# Generated by pormake.
# Topology vcd, (5)-cn, num edge types: 1
# Building blocks:
#     Node 0, Type 0, BuildingBlock: BEQFEK_clean_sbu_0, # of connection points: 5
#     Node 1, Type 0, BuildingBlock: BEQFEK_clean_sbu_0, # of connection points: 5
#     Node 2, Type 0, BuildingBlock: BEQFEK_clean_sbu_0, # of connection points: 5
#     Node 3, Type 0, BuildingBlock: BEQFEK_clean_sbu_0, # of connection points: 5
#     Node 4, Type 0, BuildingBlock: BEQFEK_clean_sbu_0, # of connection points: 5
#     Node 5, Type 0, BuildingBlock: BEQFEK_clean_sbu_0, # of connection points: 5
#     Node 6, Type 0, BuildingBlock: BEQFEK_clean_sbu_0, # of connection points: 5
#     Node 7, Type 0, BuildingBlock: BEQFEK_clean_sbu_0, # of connection points: 5
#     Node 8, Type 0, BuildingBlock: BEQFEK_clean_sbu_0, # of connection points: 5
#     Node 9, Type 0, BuildingBlock: BEQFEK_clean_sbu_0, # of connection points: 5
#     Node 10, Type 0, BuildingBlock: BEQFEK_clean_sbu_0, # of connection points: 5
#     Node 11, Type 0, BuildingBlock: BEQFEK_clean_sbu_0, # of connection points: 5
#     Node 12, Type 0, BuildingBlock: BEQFEK_clean_sbu_0, # of connection points: 5
#     Node 13, Type 0, BuildingBlock: BEQFEK_clean_sbu_0, # of connection points: 5
#     Node 14, Type 0, BuildingBlock: BEQFEK_clean_sbu_0, # of connection points: 5
#     Node 15, Type 0, BuildingBlock: BEQFEK_clean_sbu_0, # of connection points: 5
#     Node 16, Type 0, BuildingBlock: BEQFEK_clean_sbu_0, # of connection points: 5
#     Node 17, Type 0, BuildingBlock: BEQFEK_clean_sbu_0, # of connection points: 5
#     Node 18, Type 0, BuildingBlock: BEQFEK_clean_sbu_0, # of connection points: 5
#     Node 19, Type 0, BuildingBlock: BEQFEK_clean_sbu_0, # of connection points: 5
#     Node 20, Type 0, BuildingBlock: BEQFEK_clean_sbu_0, # of connection points: 5
#     Node 21, Type 0, BuildingBlock: BEQFEK_clean_sbu_0, # of connection points: 5
#     Node 22, Type 0, BuildingBlock: BEQFEK_clean_sbu_0, # of connection points: 5
#     Node 23, Type 0, BuildingBlock: BEQFEK_clean_sbu_0, # of connection points: 5
#     Node 24, Type 0, BuildingBlock: BEQFEK_clean_sbu_0, # of connection points: 5
#     Node 25, Type 0, BuildingBlock: BEQFEK_clean_sbu_0, # of connection points: 5
#     Node 26, Type 0, BuildingBlock: BEQFEK_clean_sbu_0, # of connection points: 5
#     Node 27, Type 0, BuildingBlock: BEQFEK_clean_sbu_0, # of connection points: 5
#     Node 28, Type 0, BuildingBlock: BEQFEK_clean_sbu_0, # of connection points: 5
#     Node 29, Type 0, BuildingBlock: BEQFEK_clean_sbu_0, # of connection points: 5
#     Node 30, Type 0, BuildingBlock: BEQFEK_clean_sbu_0, # of connection points: 5
#     Node 31, Type 0, BuildingBlock: BEQFEK_clean_sbu_0, # of connection points: 5
#     Edge 32, Type (0, 0), BuildingBlock: XIVTED_clean_linker_0, # of connection points: 2
#     Edge 33, Type (0, 0), BuildingBlock: XIVTED_clean_linker_0, # of connection points: 2
#     Edge 34, Type (0, 0), BuildingBlock: XIVTED_clean_linker_0, # of connection points: 2
#     Edge 35, Type (0, 0), BuildingBlock: XIVTED_clean_linker_0, # of connection points: 2
#     Edge 36, Type (0, 0), BuildingBlock: XIVTED_clean_linker_0, # of connection points: 2
#     Edge 37, Type (0, 0), BuildingBlock: XIVTED_clean_linker_0, # of connection points: 2
#     Edge 38, Type (0, 0), BuildingBlock: XIVTED_clean_linker_0, # of connection points: 2
#     Edge 39, Type (0, 0), BuildingBlock: XIVTED_clean_linker_0, # of connection points: 2
#     Edge 40, Type (0, 0), BuildingBlock: XIVTED_clean_linker_0, # of connection points: 2
#     Edge 41, Type (0, 0), BuildingBlock: XIVTED_clean_linker_0, # of connection points: 2
#     Edge 42, Type (0, 0), BuildingBlock: XIVTED_clean_linker_0, # of connection points: 2
#     Edge 43, Type (0, 0), BuildingBlock: XIVTED_clean_linker_0, # of connection points: 2
#     Edge 44, Type (0, 0), BuildingBlock: XIVTED_clean_linker_0, # of connection points: 2
#     Edge 45, Type (0, 0), BuildingBlock: XIVTED_clean_linker_0, # of connection points: 2
#     Edge 46, Type (0, 0), BuildingBlock: XIVTED_clean_linker_0, # of connection points: 2
#     Edge 47, Type (0, 0), BuildingBlock: XIVTED_clean_linker_0, # of connection points: 2
#     Edge 48, Type (0, 0), BuildingBlock: XIVTED_clean_linker_0, # of connection points: 2
#     Edge 49, Type (0, 0), BuildingBlock: XIVTED_clean_linker_0, # of connection points: 2
#     Edge 50, Type (0, 0), BuildingBlock: XIVTED_clean_linker_0, # of connection points: 2
#     Edge 51, Type (0, 0), BuildingBlock: XIVTED_clean_linker_0, # of connection points: 2
#     Edge 52, Type (0, 0), BuildingBlock: XIVTED_clean_linker_0, # of connection points: 2
#     Edge 53, Type (0, 0), BuildingBlock: XIVTED_clean_linker_0, # of connection points: 2
#     Edge 54, Type (0, 0), BuildingBlock: XIVTED_clean_linker_0, # of connection points: 2
#     Edge 55, Type (0, 0), BuildingBlock: XIVTED_clean_linker_0, # of connection points: 2
#     Edge 56, Type (0, 0), BuildingBlock: XIVTED_clean_linker_0, # of connection points: 2
#     Edge 57, Type (0, 0), BuildingBlock: XIVTED_clean_linker_0, # of connection points: 2
#     Edge 58, Type (0, 0), BuildingBlock: XIVTED_clean_linker_0, # of connection points: 2
#     Edge 59, Type (0, 0), BuildingBlock: XIVTED_clean_linker_0, # of connection points: 2
#     Edge 60, Type (0, 0), BuildingBlock: XIVTED_clean_linker_0, # of connection points: 2
#     Edge 61, Type (0, 0), BuildingBlock: XIVTED_clean_linker_0, # of connection points: 2
#     Edge 62, Type (0, 0), BuildingBlock: XIVTED_clean_linker_0, # of connection points: 2
#     Edge 63, Type (0, 0), BuildingBlock: XIVTED_clean_linker_0, # of connection points: 2
#     Edge 64, Type (0, 0), BuildingBlock: XIVTED_clean_linker_0, # of connection points: 2
#     Edge 65, Type (0, 0), BuildingBlock: XIVTED_clean_linker_0, # of connection points: 2
#     Edge 66, Type (0, 0), BuildingBlock: XIVTED_clean_linker_0, # of connection points: 2
#     Edge 67, Type (0, 0), BuildingBlock: XIVTED_clean_linker_0, # of connection points: 2
#     Edge 68, Type (0, 0), BuildingBlock: XIVTED_clean_linker_0, # of connection points: 2
#     Edge 69, Type (0, 0), BuildingBlock: XIVTED_clean_linker_0, # of connection points: 2
#     Edge 70, Type (0, 0), BuildingBlock: XIVTED_clean_linker_0, # of connection points: 2
#     Edge 71, Type (0, 0), BuildingBlock: XIVTED_clean_linker_0, # of connection points: 2
#     Edge 72, Type (0, 0), BuildingBlock: XIVTED_clean_linker_0, # of connection points: 2
#     Edge 73, Type (0, 0), BuildingBlock: XIVTED_clean_linker_0, # of connection points: 2
#     Edge 74, Type (0, 0), BuildingBlock: XIVTED_clean_linker_0, # of connection points: 2
#     Edge 75, Type (0, 0), BuildingBlock: XIVTED_clean_linker_0, # of connection points: 2
#     Edge 76, Type (0, 0), BuildingBlock: XIVTED_clean_linker_0, # of connection points: 2
#     Edge 77, Type (0, 0), BuildingBlock: XIVTED_clean_linker_0, # of connection points: 2
#     Edge 78, Type (0, 0), BuildingBlock: XIVTED_clean_linker_0, # of connection points: 2
#     Edge 79, Type (0, 0), BuildingBlock: XIVTED_clean_linker_0, # of connection points: 2
#     Edge 80, Type (0, 0), BuildingBlock: XIVTED_clean_linker_0, # of connection points: 2
#     Edge 81, Type (0, 0), BuildingBlock: XIVTED_clean_linker_0, # of connection points: 2
#     Edge 82, Type (0, 0), BuildingBlock: XIVTED_clean_linker_0, # of connection points: 2
#     Edge 83, Type (0, 0), BuildingBlock: XIVTED_clean_linker_0, # of connection points: 2
#     Edge 84, Type (0, 0), BuildingBlock: XIVTED_clean_linker_0, # of connection points: 2
#     Edge 85, Type (0, 0), BuildingBlock: XIVTED_clean_linker_0, # of connection points: 2
#     Edge 86, Type (0, 0), BuildingBlock: XIVTED_clean_linker_0, # of connection points: 2
#     Edge 87, Type (0, 0), BuildingBlock: XIVTED_clean_linker_0, # of connection points: 2
#     Edge 88, Type (0, 0), BuildingBlock: XIVTED_clean_linker_0, # of connection points: 2
#     Edge 89, Type (0, 0), BuildingBlock: XIVTED_clean_linker_0, # of connection points: 2
#     Edge 90, Type (0, 0), BuildingBlock: XIVTED_clean_linker_0, # of connection points: 2
#     Edge 91, Type (0, 0), BuildingBlock: XIVTED_clean_linker_0, # of connection points: 2
#     Edge 92, Type (0, 0), BuildingBlock: XIVTED_clean_linker_0, # of connection points: 2
#     Edge 93, Type (0, 0), BuildingBlock: XIVTED_clean_linker_0, # of connection points: 2
#     Edge 94, Type (0, 0), BuildingBlock: XIVTED_clean_linker_0, # of connection points: 2
#     Edge 95, Type (0, 0), BuildingBlock: XIVTED_clean_linker_0, # of connection points: 2
#     Edge 96, Type (0, 0), BuildingBlock: XIVTED_clean_linker_0, # of connection points: 2
#     Edge 97, Type (0, 0), BuildingBlock: XIVTED_clean_linker_0, # of connection points: 2
#     Edge 98, Type (0, 0), BuildingBlock: XIVTED_clean_linker_0, # of connection points: 2
#     Edge 99, Type (0, 0), BuildingBlock: XIVTED_clean_linker_0, # of connection points: 2
#     Edge 100, Type (0, 0), BuildingBlock: XIVTED_clean_linker_0, # of connection points: 2
#     Edge 101, Type (0, 0), BuildingBlock: XIVTED_clean_linker_0, # of connection points: 2
#     Edge 102, Type (0, 0), BuildingBlock: XIVTED_clean_linker_0, # of connection points: 2
#     Edge 103, Type (0, 0), BuildingBlock: XIVTED_clean_linker_0, # of connection points: 2
#     Edge 104, Type (0, 0), BuildingBlock: XIVTED_clean_linker_0, # of connection points: 2
#     Edge 105, Type (0, 0), BuildingBlock: XIVTED_clean_linker_0, # of connection points: 2
#     Edge 106, Type (0, 0), BuildingBlock: XIVTED_clean_linker_0, # of connection points: 2
#     Edge 107, Type (0, 0), BuildingBlock: XIVTED_clean_linker_0, # of connection points: 2
#     Edge 108, Type (0, 0), BuildingBlock: XIVTED_clean_linker_0, # of connection points: 2
#     Edge 109, Type (0, 0), BuildingBlock: XIVTED_clean_linker_0, # of connection points: 2
#     Edge 110, Type (0, 0), BuildingBlock: XIVTED_clean_linker_0, # of connection points: 2
#     Edge 111, Type (0, 0), BuildingBlock: XIVTED_clean_linker_0, # of connection points: 2
# Relax obj value: 0.026
# Max RMSD: 0.075
# Mean RMSD: 0.075
data_MOF--net-vcd--node1-BEQFEK_clean_sbu_0--edge1-XIVTED_clean_linker_0
_symmetry_space_group_name_H-M    P1
_symmetry_Int_Tables_number       1
_symmetry_cell_setting            triclinic
loop_
_symmetry_equiv_pos_as_xyz
'x, y, z'
_cell_length_a     153.75667
_cell_length_b     54.970418
_cell_length_c     22.058273
_cell_angle_alpha  90.080426
_cell_angle_beta   89.993394
_cell_angle_gamma 89.991907
loop_
_atom_site_label
_atom_site_type_symbol
_atom_site_fract_x
_atom_site_fract_y
_atom_site_fract_z
_atom_type_partial_charge
Co0 Co 0.0763 0.45847 0.12198 0.0
Co1 Co 0.05575 0.46048 0.118 0.0
C2 C 0.06622 0.43855 0.01712 0.0
O3 O 0.07341 0.44344 0.04312 0.0
O4 O 0.05894 0.44433 0.04089 0.0
C5 C 0.09434 0.46557 0.08654 0.0
O6 O 0.09125 0.4682 0.03141 0.0
C7 C 0.03798 0.47101 0.07454 0.0
C8 C 0.03068 0.47233 0.1608 0.0
C9 C 0.02972 0.47479 0.09863 0.0
N10 N 0.04351 0.46653 0.12043 0.0
N11 N 0.03909 0.4672 0.17178 0.0
C12 C 0.04079 0.47359 0.00991 0.0
H13 H 0.04775 0.47879 0.00758 0.0
H14 H 0.0368 0.48747 0.98623 0.0
H15 H 0.03997 0.45587 0.98645 0.0
C16 C 0.07384 0.51132 0.13903 0.0
N17 N 0.07066 0.48873 0.13143 0.0
N18 N 0.06211 0.48973 0.12916 0.0
C19 C 0.05958 0.51309 0.13485 0.0
C20 C 0.06694 0.5275 0.14135 0.0
C21 C 0.08331 0.51711 0.14526 0.0
H22 H 0.08639 0.50413 0.17714 0.0
H23 H 0.08651 0.51508 0.10045 0.0
H24 H 0.08435 0.53591 0.16217 0.0
O25 O 0.07265 0.43566 0.18545 0.0
O26 O 0.05822 0.43709 0.18369 0.0
H27 H 0.04652 0.51431 0.16787 0.0
H28 H 0.04983 0.54161 0.12856 0.0
C29 C 0.05036 0.52151 0.1293 0.0
H30 H 0.04753 0.51428 0.08679 0.0
H31 H 0.04185 0.46444 0.21445 0.0
O32 O 0.08911 0.46171 0.13012 0.0
C33 C 0.06529 0.42862 0.20504 0.0
Co34 Co 0.17722 0.78109 0.11831 0.0
Co35 Co 0.19773 0.7782 0.11585 0.0
C36 C 0.18757 0.79917 0.01254 0.0
O37 O 0.18033 0.79498 0.03867 0.0
O38 O 0.19479 0.79334 0.037 0.0
C39 C 0.15929 0.77367 0.08175 0.0
O40 O 0.1625 0.76975 0.02738 0.0
C41 C 0.21589 0.76824 0.07824 0.0
C42 C 0.22226 0.76342 0.16728 0.0
C43 C 0.22382 0.76291 0.10548 0.0
N44 N 0.2099 0.77131 0.12206 0.0
N45 N 0.21377 0.76853 0.17511 0.0
C46 C 0.21407 0.77209 0.01231 0.0
H47 H 0.21072 0.78973 0.00645 0.0
H48 H 0.20966 0.75755 0.99575 0.0
H49 H 0.22009 0.77241 0.98471 0.0
C50 C 0.17933 0.72832 0.13848 0.0
N51 N 0.18264 0.75073 0.13035 0.0
N52 N 0.19118 0.74933 0.12781 0.0
C53 C 0.19357 0.72585 0.1332 0.0
C54 C 0.18614 0.71181 0.14042 0.0
C55 C 0.16984 0.72297 0.14523 0.0
H56 H 0.1668 0.73665 0.17551 0.0
H57 H 0.16667 0.72416 0.10015 0.0
H58 H 0.16873 0.70456 0.16426 0.0
O59 O 0.18081 0.80454 0.18033 0.0
O60 O 0.19522 0.80263 0.17938 0.0
H61 H 0.20655 0.72178 0.16628 0.0
H62 H 0.20297 0.6969 0.11894 0.0
C63 C 0.2027 0.71688 0.12553 0.0
H64 H 0.2057 0.72575 0.0856 0.0
H65 H 0.21059 0.77 0.21676 0.0
O66 O 0.16442 0.77841 0.12533 0.0
C67 C 0.18817 0.81162 0.19968 0.0
Co68 Co 0.07675 0.77741 0.1077 0.0
Co69 Co 0.05622 0.77641 0.10911 0.0
C70 C 0.06658 0.80947 0.19042 0.0
O71 O 0.07381 0.80158 0.17033 0.0
O72 O 0.05935 0.80111 0.17121 0.0
C73 C 0.09473 0.77854 0.14619 0.0
O74 O 0.09161 0.78756 0.19691 0.0
C75 C 0.03859 0.76705 0.15767 0.0
C76 C 0.03077 0.7679 0.07362 0.0
C77 C 0.03014 0.76475 0.13577 0.0
N78 N 0.04393 0.77114 0.11042 0.0
N79 N 0.0392 0.77162 0.06041 0.0
C80 C 0.04151 0.76681 0.22239 0.0
H81 H 0.04793 0.77575 0.22725 0.0
H82 H 0.04217 0.74774 0.23797 0.0
H83 H 0.03665 0.77605 0.25167 0.0
C84 C 0.07414 0.72517 0.12992 0.0
N85 N 0.07098 0.74774 0.12194 0.0
N86 N 0.06242 0.74691 0.12066 0.0
C87 C 0.05987 0.72357 0.12652 0.0
C88 C 0.06721 0.70909 0.13294 0.0
C89 C 0.08362 0.7194 0.13557 0.0
H90 H 0.08681 0.72196 0.09091 0.0
H91 H 0.08667 0.73216 0.16823 0.0
H92 H 0.08471 0.70051 0.15144 0.0
O93 O 0.0734 0.7911 0.02873 0.0
O94 O 0.05898 0.79056 0.02949 0.0
H95 H 0.04738 0.72548 0.08339 0.0
H96 H 0.05037 0.6954 0.10823 0.0
C97 C 0.05067 0.71504 0.11965 0.0
H98 H 0.04714 0.71806 0.1628 0.0
H99 H 0.04174 0.7746 0.01716 0.0
O100 O 0.08953 0.77271 0.10386 0.0
C101 C 0.06614 0.79557 0.00352 0.0
Co102 Co 0.17699 0.4614 0.11948 0.0
Co103 Co 0.19756 0.46268 0.12292 0.0
C104 C 0.18703 0.43103 0.20661 0.0
O105 O 0.17982 0.43848 0.18511 0.0
O106 O 0.19428 0.43911 0.18713 0.0
C107 C 0.15886 0.46098 0.15599 0.0
O108 O 0.16187 0.45303 0.20807 0.0
C109 C 0.21511 0.47297 0.17225 0.0
C110 C 0.22307 0.4708 0.08897 0.0
C111 C 0.2236 0.47496 0.15081 0.0
N112 N 0.20985 0.46809 0.12501 0.0
N113 N 0.21466 0.46682 0.07545 0.0
C114 C 0.2121 0.47422 0.23669 0.0
H115 H 0.20566 0.46542 0.24186 0.0
H116 H 0.21144 0.49352 0.25057 0.0
H117 H 0.2169 0.46539 0.26708 0.0
C118 C 0.17953 0.51402 0.13745 0.0
N119 N 0.18271 0.49138 0.13112 0.0
N120 N 0.19127 0.49226 0.13063 0.0
C121 C 0.1938 0.51567 0.1353 0.0
C122 C 0.18644 0.53017 0.14022 0.0
C123 C 0.17004 0.51976 0.14261 0.0
H124 H 0.167 0.50732 0.17596 0.0
H125 H 0.16891 0.53879 0.15733 0.0
H126 H 0.16687 0.51668 0.09806 0.0
O127 O 0.18059 0.44615 0.04259 0.0
O128 O 0.19501 0.44699 0.04467 0.0
H129 H 0.20645 0.51326 0.09454 0.0
H130 H 0.20333 0.54365 0.11635 0.0
C131 C 0.20301 0.52418 0.12934 0.0
H132 H 0.20638 0.52184 0.17333 0.0
H133 H 0.2122 0.46313 0.03232 0.0
O134 O 0.16417 0.46594 0.11358 0.0
C135 C 0.18792 0.44129 0.01867 0.0
Co136 Co 0.92669 0.53055 0.8685 0.0
Co137 Co 0.94723 0.52796 0.87119 0.0
C138 C 0.93707 0.55249 0.9696 0.0
O139 O 0.92982 0.54727 0.94477 0.0
O140 O 0.94428 0.54589 0.94628 0.0
C141 C 0.90875 0.52457 0.90729 0.0
O142 O 0.91201 0.52303 0.96219 0.0
C143 C 0.96501 0.51748 0.91449 0.0
C144 C 0.97219 0.51469 0.82801 0.0
C145 C 0.97323 0.51309 0.8903 0.0
N146 N 0.95944 0.52149 0.86852 0.0
N147 N 0.9638 0.51994 0.81702 0.0
C148 C 0.96225 0.51592 0.97944 0.0
H149 H 0.95525 0.51119 0.98256 0.0
H150 H 0.96616 0.5021 0.004 0.0
H151 H 0.96324 0.53387 0.00142 0.0
C152 C 0.92889 0.47738 0.85745 0.0
N153 N 0.93218 0.49996 0.86277 0.0
N154 N 0.94073 0.49872 0.86459 0.0
C155 C 0.94315 0.4752 0.86092 0.0
C156 C 0.93573 0.46095 0.85619 0.0
C157 C 0.9194 0.47185 0.8514 0.0
H158 H 0.9164 0.48455 0.81846 0.0
H159 H 0.91619 0.47455 0.89595 0.0
H160 H 0.91828 0.45291 0.8359 0.0
O161 O 0.93028 0.55171 0.80143 0.0
O162 O 0.9447 0.54996 0.80265 0.0
H163 H 0.9561 0.47302 0.82608 0.0
H164 H 0.95281 0.44649 0.86863 0.0
C165 C 0.95236 0.46657 0.86591 0.0
H166 H 0.95535 0.47438 0.90723 0.0
H167 H 0.961 0.52218 0.77428 0.0
O168 O 0.91384 0.52747 0.86247 0.0
C169 C 0.93764 0.55809 0.78046 0.0
Co170 Co 0.82657 0.20563 0.88697 0.0
Co171 Co 0.80608 0.2094 0.89057 0.0
C172 C 0.8162 0.18919 0.99459 0.0
O173 O 0.82343 0.19275 0.96768 0.0
O174 O 0.80898 0.19502 0.97021 0.0
C175 C 0.84452 0.21313 0.92271 0.0
O176 O 0.8413 0.21807 0.97651 0.0
C177 C 0.78798 0.21998 0.92829 0.0
C178 C 0.78162 0.22513 0.83938 0.0
C179 C 0.78007 0.22558 0.90121 0.0
N180 N 0.79395 0.21678 0.88437 0.0
N181 N 0.79008 0.21977 0.83139 0.0
C182 C 0.7898 0.21591 0.99412 0.0
H183 H 0.79268 0.1976 -0.00022 0.0
H184 H 0.79464 0.22945 0.01012 0.0
H185 H 0.78385 0.21691 0.02228 0.0
C186 C 0.82471 0.2583 0.86476 0.0
N187 N 0.82129 0.23605 0.87324 0.0
N188 N 0.81277 0.23787 0.87706 0.0
C189 C 0.81051 0.26148 0.87272 0.0
C190 C 0.81801 0.27519 0.86452 0.0
C191 C 0.83421 0.26319 0.85675 0.0
H192 H 0.83714 0.24902 0.82732 0.0
H193 H 0.83746 0.26253 0.90162 0.0
H194 H 0.83536 0.2813 0.8361 0.0
O195 O 0.82281 0.18172 0.82676 0.0
O196 O 0.80841 0.18424 0.82837 0.0
H197 H 0.79741 0.26682 0.8434 0.0
H198 H 0.80141 0.2907 0.89225 0.0
C199 C 0.8015 0.27084 0.88359 0.0
H200 H 0.79864 0.26151 0.92335 0.0
H201 H 0.79324 0.21827 0.78969 0.0
O202 O 0.8394 0.20774 0.87957 0.0
C203 C 0.81539 0.17475 0.80828 0.0
Co204 Co 0.9269 0.21088 0.88717 0.0
Co205 Co 0.94744 0.21288 0.88676 0.0
C206 C 0.93737 0.17863 0.80672 0.0
O207 O 0.93006 0.18634 0.8259 0.0
O208 O 0.94452 0.1875 0.82597 0.0
C209 C 0.90892 0.20838 0.84849 0.0
O210 O 0.9121 0.19894 0.79846 0.0
C211 C 0.96504 0.22273 0.83803 0.0
C212 C 0.97278 0.22363 0.92239 0.0
C213 C 0.97345 0.22602 0.86003 0.0
N214 N 0.9597 0.21885 0.8854 0.0
N215 N 0.96438 0.2194 0.93559 0.0
C216 C 0.96216 0.22194 0.77322 0.0
H217 H 0.95586 0.21236 0.76882 0.0
H218 H 0.96128 0.24075 0.75626 0.0
H219 H 0.96715 0.21281 0.74476 0.0
C220 C 0.92923 0.26307 0.86239 0.0
N221 N 0.9325 0.24071 0.87165 0.0
N222 N 0.94105 0.24193 0.87326 0.0
C223 C 0.94348 0.26531 0.86624 0.0
C224 C 0.93607 0.27941 0.85873 0.0
C225 C 0.91972 0.26841 0.85642 0.0
H226 H 0.91674 0.25529 0.82433 0.0
H227 H 0.91854 0.28714 0.83975 0.0
H228 H 0.91654 0.26604 0.90117 0.0
O229 O 0.93029 0.19806 0.96698 0.0
O230 O 0.94471 0.19929 0.9671 0.0
H231 H 0.95281 0.29408 0.8831 0.0
H232 H 0.95624 0.27088 0.83056 0.0
C233 C 0.95262 0.2743 0.87316 0.0
H234 H 0.9559 0.26445 0.91049 0.0
H235 H 0.96184 0.21683 0.97898 0.0
O236 O 0.91408 0.21498 0.89039 0.0
C237 C 0.93754 0.19417 0.99289 0.0
Co238 Co 0.8262 0.52633 0.8735 0.0
Co239 Co 0.8056 0.52378 0.87013 0.0
C240 C 0.81589 0.5538 0.78176 0.0
O241 O 0.82314 0.54726 0.80442 0.0
O242 O 0.80868 0.54592 0.80244 0.0
C243 C 0.84423 0.5261 0.83515 0.0
O244 O 0.84105 0.53151 0.78158 0.0
C245 C 0.7879 0.51234 0.82379 0.0
C246 C 0.7803 0.51381 0.90874 0.0
C247 C 0.77952 0.50982 0.84696 0.0
N248 N 0.79334 0.5174 0.87 0.0
N249 N 0.78874 0.5182 0.92055 0.0
C250 C 0.79065 0.51134 0.75875 0.0
H251 H 0.797 0.52046 0.75227 0.0
H252 H 0.79138 0.49207 0.74467 0.0
H253 H 0.78567 0.51996 0.7294 0.0
C254 C 0.82406 0.47331 0.86568 0.0
N255 N 0.8207 0.49586 0.86725 0.0
N256 N 0.81214 0.49449 0.86665 0.0
C257 C 0.8098 0.47087 0.86518 0.0
C258 C 0.81728 0.45675 0.86434 0.0
C259 C 0.83361 0.46796 0.8642 0.0
H260 H 0.8366 0.47392 0.90752 0.0
H261 H 0.83667 0.47846 0.82701 0.0
H262 H 0.83494 0.44834 0.85695 0.0
O263 O 0.82251 0.54328 0.94758 0.0
O264 O 0.80809 0.54167 0.94581 0.0
H265 H 0.79714 0.47218 0.90553 0.0
H266 H 0.80033 0.44228 0.88003 0.0
C267 C 0.80062 0.46199 0.86958 0.0
H268 H 0.79727 0.4653 0.82588 0.0
H269 H 0.79135 0.52193 0.96321 0.0
O270 O 0.83906 0.52279 0.87933 0.0
C271 C 0.81515 0.54838 0.97073 0.0
Co272 Co 0.0766 0.95777 0.61087 0.0
Co273 Co 0.05612 0.95904 0.6108 0.0
C274 C 0.06636 0.93937 0.50566 0.0
O275 O 0.07364 0.94396 0.53083 0.0
O276 O 0.05917 0.9445 0.53148 0.0
C277 C 0.09468 0.9633 0.57528 0.0
O278 O 0.09171 0.96323 0.51942 0.0
C279 C 0.03854 0.97129 0.5694 0.0
C280 C 0.03087 0.96671 0.65337 0.0
C281 C 0.03016 0.97299 0.59273 0.0
N282 N 0.0439 0.9643 0.61419 0.0
N283 N 0.03928 0.96147 0.66417 0.0
C284 C 0.0416 0.97781 0.50712 0.0
H285 H 0.04856 0.98323 0.50825 0.0
H286 H 0.03764 0.99286 0.48808 0.0
H287 H 0.04097 0.96169 0.47713 0.0
C288 C 0.07398 0.01048 0.62952 0.0
N289 N 0.07087 0.98773 0.62339 0.0
N290 N 0.06231 0.98834 0.6242 0.0
C291 C 0.0597 0.01154 0.63145 0.0
C292 C 0.067 0.02632 0.63474 0.0
C293 C 0.08341 0.01689 0.62442 0.0
H294 H 0.08705 0.00821 0.6621 0.0
H295 H 0.08601 0.00954 0.58122 0.0
H296 H 0.08451 0.03681 0.62551 0.0
O297 O 0.07323 0.93364 0.67256 0.0
O298 O 0.05882 0.93477 0.67327 0.0
H299 H 0.04683 0.0072 0.66688 0.0
H300 H 0.04984 0.03836 0.65272 0.0
C301 C 0.0504 0.01942 0.63574 0.0
H302 H 0.04736 0.01827 0.59028 0.0
H303 H 0.04188 0.95617 0.7058 0.0
O304 O 0.08936 0.96162 0.61917 0.0
C305 C 0.06596 0.92608 0.6925 0.0
Co306 Co 0.17676 0.28005 0.62216 0.0
Co307 Co 0.19731 0.27795 0.62144 0.0
C308 C 0.18715 0.29984 0.51896 0.0
O309 O 0.17986 0.29495 0.54365 0.0
O310 O 0.19433 0.2941 0.54403 0.0
C311 C 0.15872 0.2736 0.58532 0.0
O312 O 0.16182 0.27186 0.52998 0.0
C313 C 0.21507 0.26724 0.57866 0.0
C314 C 0.22234 0.26541 0.66494 0.0
C315 C 0.22331 0.26319 0.60271 0.0
N316 N 0.20954 0.27168 0.6246 0.0
N317 N 0.21394 0.27069 0.67599 0.0
C318 C 0.21228 0.2649 0.51393 0.0
H319 H 0.20534 0.25944 0.51139 0.0
H320 H 0.21633 0.25131 0.48965 0.0
H321 H 0.213 0.28278 0.4912 0.0
C322 C 0.1791 0.22724 0.63905 0.0
N323 N 0.18234 0.2498 0.63232 0.0
N324 N 0.19089 0.24873 0.63146 0.0
C325 C 0.19337 0.22533 0.63719 0.0
C326 C 0.18598 0.21099 0.64225 0.0
C327 C 0.16961 0.22154 0.64358 0.0
H328 H 0.16646 0.23431 0.67577 0.0
H329 H 0.16655 0.22401 0.59846 0.0
H330 H 0.16847 0.20264 0.65927 0.0
O331 O 0.18027 0.30292 0.68591 0.0
O332 O 0.19469 0.30142 0.68699 0.0
H333 H 0.20633 0.22401 0.67202 0.0
H334 H 0.20311 0.19671 0.63219 0.0
C335 C 0.2026 0.21681 0.63291 0.0
H336 H 0.20556 0.22398 0.59081 0.0
H337 H 0.21118 0.27333 0.71871 0.0
O338 O 0.16394 0.27679 0.62932 0.0
C339 C 0.18755 0.30996 0.70691 0.0
Co340 Co 0.07614 0.27697 0.61667 0.0
Co341 Co 0.05556 0.2757 0.61988 0.0
C342 C 0.06601 0.30703 0.70458 0.0
O343 O 0.07325 0.29964 0.68337 0.0
O344 O 0.05879 0.29904 0.68437 0.0
C345 C 0.09419 0.27508 0.65548 0.0
O346 O 0.0911 0.2803 0.70951 0.0
C347 C 0.0377 0.26716 0.66731 0.0
C348 C 0.03035 0.26375 0.58164 0.0
C349 C 0.02942 0.26297 0.64404 0.0
N350 N 0.04326 0.26989 0.6206 0.0
N351 N 0.0388 0.26792 0.56963 0.0
C352 C 0.04023 0.26945 0.73263 0.0
H353 H 0.0462 0.28045 0.73764 0.0
H354 H 0.04155 0.25112 0.75141 0.0
H355 H 0.03489 0.27785 0.75925 0.0
C356 C 0.07357 0.22403 0.62922 0.0
N357 N 0.07043 0.24685 0.6262 0.0
N358 N 0.06187 0.24616 0.62709 0.0
C359 C 0.05929 0.22279 0.63048 0.0
C360 C 0.06661 0.20804 0.63202 0.0
C361 C 0.08302 0.21778 0.62434 0.0
H362 H 0.08584 0.22694 0.58412 0.0
H363 H 0.08646 0.22465 0.66509 0.0
H364 H 0.08408 0.19789 0.6202 0.0
O365 O 0.07262 0.29253 0.54036 0.0
O366 O 0.05818 0.2917 0.54204 0.0
H367 H 0.0466 0.22085 0.59089 0.0
H368 H 0.04934 0.19484 0.63741 0.0
C369 C 0.04998 0.21482 0.63267 0.0
H370 H 0.04676 0.22349 0.67198 0.0
H371 H 0.04153 0.26935 0.52649 0.0
O372 O 0.08895 0.27261 0.61133 0.0
C373 C 0.0653 0.29748 0.5164 0.0
Co374 Co 0.17711 0.96087 0.61374 0.0
Co375 Co 0.19763 0.9622 0.61774 0.0
C376 C 0.18711 0.9294 0.69851 0.0
O377 O 0.1799 0.93707 0.6775 0.0
O378 O 0.19436 0.93777 0.6798 0.0
C379 C 0.15901 0.96056 0.65008 0.0
O380 O 0.16197 0.95287 0.70253 0.0
C381 C 0.21519 0.97159 0.66792 0.0
C382 C 0.22306 0.97152 0.58409 0.0
C383 C 0.22365 0.97423 0.64641 0.0
N384 N 0.20989 0.96771 0.62029 0.0
N385 N 0.21465 0.9677 0.57042 0.0
C386 C 0.21222 0.97139 0.73254 0.0
H387 H 0.20583 0.96227 0.73683 0.0
H388 H 0.21148 0.99037 0.74883 0.0
H389 H 0.21708 0.96212 0.76162 0.0
C390 C 0.17958 0.01328 0.63556 0.0
N391 N 0.18278 0.99072 0.62803 0.0
N392 N 0.19134 0.99163 0.62802 0.0
C393 C 0.19385 0.01498 0.63446 0.0
C394 C 0.18648 0.0294 0.6398 0.0
C395 C 0.17008 0.01899 0.63987 0.0
H396 H 0.16699 0.00654 0.67297 0.0
H397 H 0.16892 0.03802 0.65452 0.0
H398 H 0.16699 0.01589 0.59507 0.0
O399 O 0.18073 0.94684 0.53559 0.0
O400 O 0.19514 0.94762 0.53807 0.0
H401 H 0.20342 0.04329 0.61961 0.0
H402 H 0.20646 0.02003 0.67304 0.0
C403 C 0.20307 0.02354 0.62961 0.0
H404 H 0.20647 0.01345 0.59313 0.0
H405 H 0.21216 0.96499 0.52694 0.0
O406 O 0.16434 0.96534 0.60774 0.0
C407 C 0.18806 0.94236 0.51137 0.0
Co408 Co 0.92672 0.03213 0.38429 0.0
Co409 Co 0.9472 0.03036 0.38506 0.0
C410 C 0.93707 0.04931 0.49088 0.0
O411 O 0.92981 0.04508 0.46509 0.0
O412 O 0.94427 0.04429 0.46513 0.0
C413 C 0.9089 0.02413 0.42216 0.0
O414 O 0.91223 0.02074 0.47634 0.0
C415 C 0.96506 0.01959 0.42431 0.0
C416 C 0.97219 0.02112 0.33739 0.0
C417 C 0.9733 0.01715 0.39895 0.0
N418 N 0.95941 0.02484 0.37975 0.0
N419 N 0.96371 0.02584 0.32799 0.0
C420 C 0.9624 0.01517 0.48864 0.0
H421 H 0.9555 0.00937 0.49074 0.0
H422 H 0.96657 0.00104 0.50977 0.0
H423 H 0.96308 0.03233 0.51477 0.0
C424 C 0.9292 0.97965 0.36026 0.0
N425 N 0.93235 0.00219 0.3694 0.0
N426 N 0.94091 0.00131 0.37022 0.0
C427 C 0.94348 0.97811 0.36187 0.0
C428 C 0.93613 0.96364 0.3553 0.0
C429 C 0.91972 0.97368 0.35617 0.0
H430 H 0.91642 0.98701 0.32631 0.0
H431 H 0.91678 0.97501 0.40199 0.0
H432 H 0.91865 0.9551 0.33799 0.0
O433 O 0.93007 0.05672 0.32394 0.0
O434 O 0.94449 0.05531 0.32399 0.0
H435 H 0.95652 0.97813 0.32833 0.0
H436 H 0.95335 0.94976 0.36322 0.0
C437 C 0.95274 0.96981 0.36573 0.0
H438 H 0.95557 0.97601 0.40922 0.0
H439 H 0.96085 0.02956 0.28615 0.0
O440 O 0.91392 0.02876 0.37791 0.0
C441 C 0.93739 0.06431 0.30484 0.0
Co442 Co 0.82682 0.70806 0.36908 0.0
Co443 Co 0.80626 0.71029 0.37301 0.0
C444 C 0.81677 0.68543 0.46968 0.0
O445 O 0.82401 0.6911 0.44537 0.0
O446 O 0.80955 0.69178 0.44626 0.0
C447 C 0.84484 0.71427 0.40498 0.0
O448 O 0.84176 0.71575 0.46043 0.0
C449 C 0.78841 0.72149 0.41792 0.0
C450 C 0.78109 0.72114 0.33173 0.0
C451 C 0.78015 0.7247 0.39353 0.0
N452 N 0.79398 0.71662 0.37231 0.0
N453 N 0.78953 0.7164 0.32105 0.0
C454 C 0.79087 0.72202 0.48361 0.0
H455 H 0.79213 0.74106 0.4977 0.0
H456 H 0.78551 0.71472 0.51195 0.0
H457 H 0.79684 0.71137 0.49189 0.0
C458 C 0.82451 0.76118 0.361 0.0
N459 N 0.82125 0.73854 0.36476 0.0
N460 N 0.81271 0.73969 0.36702 0.0
C461 C 0.81025 0.76322 0.36523 0.0
C462 C 0.81766 0.77758 0.36151 0.0
C463 C 0.834 0.76686 0.35519 0.0
H464 H 0.83701 0.75452 0.3214 0.0
H465 H 0.83722 0.76382 0.39954 0.0
H466 H 0.83509 0.78594 0.34081 0.0
O467 O 0.82309 0.68707 0.30219 0.0
O468 O 0.80866 0.68874 0.30306 0.0
H469 H 0.79713 0.76457 0.33333 0.0
H470 H 0.80051 0.79175 0.3732 0.0
C471 C 0.80105 0.77166 0.37169 0.0
H472 H 0.7983 0.76428 0.41423 0.0
H473 H 0.79228 0.71298 0.2786 0.0
O474 O 0.83961 0.71131 0.361 0.0
C475 C 0.81575 0.68073 0.28085 0.0
Co476 Co 0.92738 0.71283 0.37159 0.0
Co477 Co 0.94792 0.7143 0.37161 0.0
C478 C 0.93769 0.6846 0.28158 0.0
O479 O 0.93041 0.69158 0.30285 0.0
O480 O 0.94487 0.69215 0.3036 0.0
C481 C 0.9093 0.71295 0.3338 0.0
O482 O 0.91235 0.70598 0.28089 0.0
C483 C 0.96563 0.72537 0.32623 0.0
C484 C 0.97326 0.72279 0.41085 0.0
C485 C 0.97402 0.72743 0.34936 0.0
N486 N 0.9602 0.71999 0.3722 0.0
N487 N 0.96482 0.71849 0.42256 0.0
C488 C 0.96284 0.72708 0.26134 0.0
H489 H 0.95647 0.71818 0.25441 0.0
H490 H 0.96217 0.74649 0.24855 0.0
H491 H 0.96779 0.71864 0.23129 0.0
C492 C 0.92986 0.76574 0.36143 0.0
N493 N 0.93307 0.74305 0.36554 0.0
N494 N 0.94163 0.74399 0.3672 0.0
C495 C 0.94413 0.76749 0.3653 0.0
C496 C 0.93676 0.78198 0.36122 0.0
C497 C 0.92039 0.77144 0.35521 0.0
H498 H 0.91705 0.76743 0.39867 0.0
H499 H 0.9175 0.75963 0.31973 0.0
H500 H 0.91927 0.79072 0.34278 0.0
O501 O 0.93075 0.69573 0.44624 0.0
O502 O 0.94518 0.69673 0.44701 0.0
H503 H 0.95671 0.76492 0.40683 0.0
H504 H 0.95363 0.7954 0.38563 0.0
C505 C 0.95333 0.77598 0.37211 0.0
H506 H 0.95676 0.77373 0.3283 0.0
H507 H 0.96221 0.71441 0.46501 0.0
O508 O 0.91458 0.71715 0.37693 0.0
C509 C 0.93799 0.69033 0.47067 0.0
Co510 Co 0.82645 0.02801 0.39351 0.0
Co511 Co 0.80593 0.0258 0.38717 0.0
C512 C 0.81635 0.05987 0.30973 0.0
O513 O 0.82353 0.05231 0.3313 0.0
O514 O 0.80909 0.05099 0.3268 0.0
C515 C 0.84437 0.02888 0.35467 0.0
O516 O 0.84112 0.03598 0.30256 0.0
C517 C 0.78845 0.016 0.3357 0.0
C518 C 0.7806 0.01361 0.41938 0.0
C519 C 0.78003 0.01205 0.3568 0.0
N520 N 0.79371 0.01945 0.38379 0.0
N521 N 0.78895 0.01802 0.43356 0.0
C522 C 0.79143 0.01765 0.27124 0.0
H523 H 0.79766 0.02768 0.26803 0.0
H524 H 0.7925 -0.00093 0.2531 0.0
H525 H 0.78643 0.02677 0.24298 0.0
C526 C 0.82434 0.97559 0.37189 0.0
N527 N 0.82099 -0.00193 0.37743 0.0
N528 N 0.81244 -0.00319 0.37569 0.0
C529 C 0.81008 0.97332 0.36948 0.0
C530 C 0.81755 0.95919 0.3667 0.0
C531 C 0.83387 0.97007 0.37266 0.0
H532 H 0.83659 0.97491 0.41769 0.0
H533 H 0.83719 0.98136 0.3381 0.0
H534 H 0.8352 0.95062 0.36289 0.0
O535 O 0.82267 0.04087 0.47234 0.0
O536 O 0.80825 0.03978 0.46795 0.0
H537 H 0.79754 0.97326 0.41174 0.0
H538 H 0.80059 0.94437 0.3792 0.0
C539 C 0.8009 0.96438 0.37316 0.0
H540 H 0.79743 0.96927 0.33088 0.0
H541 H 0.79142 0.02007 0.47733 0.0
O542 O 0.83927 0.02423 0.39845 0.0
C543 C 0.81526 0.04487 0.49593 0.0
Co544 Co 0.57588 0.46093 0.63871 0.0
Co545 Co 0.55536 0.46338 0.63492 0.0
C546 C 0.56532 0.42992 0.55417 0.0
O547 O 0.57258 0.43712 0.5755 0.0
O548 O 0.55813 0.43886 0.57236 0.0
C549 C 0.59362 0.46409 0.59451 0.0
O550 O 0.5901 0.46249 0.54039 0.0
C551 C 0.53756 0.47133 0.58861 0.0
C552 C 0.53054 0.47991 0.6734 0.0
C553 C 0.52942 0.47771 0.61128 0.0
N554 N 0.54317 0.46999 0.63528 0.0
N555 N 0.53891 0.4749 0.68582 0.0
C556 C 0.54024 0.46863 0.52372 0.0
H557 H 0.54735 0.47163 0.51885 0.0
H558 H 0.53666 0.48171 0.49467 0.0
H559 H 0.53873 0.44989 0.50823 0.0
C560 C 0.57372 0.51383 0.62057 0.0
N561 N 0.57044 0.49122 0.62563 0.0
N562 N 0.56189 0.4923 0.62358 0.0
C563 C 0.55946 0.51567 0.61679 0.0
C564 C 0.56687 0.53003 0.61478 0.0
C565 C 0.58317 0.51985 0.62662 0.0
H566 H 0.586 0.50965 0.66523 0.0
H567 H 0.58661 0.51417 0.58471 0.0
H568 H 0.58423 0.53959 0.63394 0.0
O569 O 0.57238 0.44751 0.7175 0.0
O570 O 0.55797 0.44876 0.71435 0.0
H571 H 0.54674 0.52008 0.65463 0.0
H572 H 0.54975 0.54373 0.60166 0.0
C573 C 0.55022 0.52402 0.6117 0.0
H574 H 0.54697 0.51393 0.57464 0.0
H575 H 0.54176 0.47528 0.72874 0.0
O576 O 0.58874 0.46405 0.64102 0.0
C577 C 0.565 0.44341 0.74149 0.0
Co578 Co 0.67655 0.78225 0.61804 0.0
Co579 Co 0.6971 0.77991 0.61269 0.0
C580 C 0.68646 0.80351 0.51469 0.0
O581 O 0.67927 0.79834 0.5403 0.0
O582 O 0.69372 0.7973 0.53785 0.0
C583 C 0.65868 0.77565 0.5812 0.0
O584 O 0.66197 0.77395 0.52639 0.0
C585 C 0.71491 0.76804 0.56809 0.0
C586 C 0.72234 0.77031 0.65363 0.0
C587 C 0.72322 0.76553 0.59228 0.0
N588 N 0.70938 0.77371 0.61341 0.0
N589 N 0.7139 0.77506 0.66429 0.0
C590 C 0.71234 0.76612 0.50276 0.0
H591 H 0.70623 0.77606 0.49386 0.0
H592 H 0.71127 0.74673 0.49095 0.0
H593 H 0.71757 0.77335 0.47316 0.0
C594 C 0.67893 0.7291 0.6304 0.0
N595 N 0.68215 0.75174 0.62433 0.0
N596 N 0.69069 0.75064 0.62211 0.0
C597 C 0.69319 0.72721 0.62673 0.0
C598 C 0.68581 0.71281 0.63202 0.0
C599 C 0.66945 0.72334 0.63621 0.0
H600 H 0.66641 0.73589 0.66938 0.0
H601 H 0.66625 0.72608 0.59168 0.0
H602 H 0.66838 0.70433 0.65126 0.0
O603 O 0.68036 0.8043 0.68323 0.0
O604 O 0.69478 0.80244 0.68064 0.0
H605 H 0.7063 0.72697 0.65908 0.0
H606 H 0.703 0.69872 0.62384 0.0
C607 C 0.70242 0.71879 0.6219 0.0
H608 H 0.70517 0.72505 0.57826 0.0
H609 H 0.71121 0.7793 0.70642 0.0
O610 O 0.66374 0.77889 0.62601 0.0
C611 C 0.68777 0.81088 0.70301 0.0
Co612 Co 0.57622 0.78058 0.61018 0.0
Co613 Co 0.55567 0.77926 0.61001 0.0
C614 C 0.56585 0.80352 0.70917 0.0
O615 O 0.57313 0.79786 0.6855 0.0
O616 O 0.55867 0.79726 0.6849 0.0
C617 C 0.59414 0.77784 0.64999 0.0
O618 O 0.59088 0.78178 0.70418 0.0
C619 C 0.53821 0.76828 0.65568 0.0
C620 C 0.53029 0.76968 0.57213 0.0
C621 C 0.52976 0.76564 0.63405 0.0
N622 N 0.54343 0.77369 0.60876 0.0
N623 N 0.53866 0.77462 0.55899 0.0
C624 C 0.54146 0.76407 0.71871 0.0
H625 H 0.54842 0.75868 0.71776 0.0
H626 H 0.53759 0.74976 0.74167 0.0
H627 H 0.5409 0.78122 0.74502 0.0
C628 C 0.57363 0.72751 0.60484 0.0
N629 N 0.57049 0.75034 0.60581 0.0
N630 N 0.56193 0.74964 0.60482 0.0
C631 C 0.55935 0.72625 0.60253 0.0
C632 C 0.56667 0.71151 0.60277 0.0
C633 C 0.58307 0.7214 0.61091 0.0
H634 H 0.58577 0.73084 0.65119 0.0
H635 H 0.58417 0.70157 0.61591 0.0
H636 H 0.58662 0.7281 0.57041 0.0
O637 O 0.57285 0.80172 0.54207 0.0
O638 O 0.55842 0.80064 0.54125 0.0
H639 H 0.54956 0.69879 0.58504 0.0
H640 H 0.5469 0.72068 0.64321 0.0
C641 C 0.55007 0.71819 0.59849 0.0
H642 H 0.54657 0.7294 0.56469 0.0
H643 H 0.54113 0.77842 0.51598 0.0
O644 O 0.58904 0.77635 0.60476 0.0
C645 C 0.56559 0.80836 0.51993 0.0
Co646 Co 0.67646 0.46278 0.59935 0.0
Co647 Co 0.69703 0.46338 0.60457 0.0
C648 C 0.68633 0.43068 0.68409 0.0
O649 O 0.67921 0.43868 0.66247 0.0
O650 O 0.69366 0.43885 0.66634 0.0
C651 C 0.65861 0.46346 0.63988 0.0
O652 O 0.662 0.45733 0.69237 0.0
C653 C 0.7147 0.47215 0.65472 0.0
C654 C 0.72254 0.47189 0.57079 0.0
C655 C 0.72317 0.4745 0.63311 0.0
N656 N 0.70936 0.46853 0.60714 0.0
N657 N 0.71411 0.46841 0.55722 0.0
C658 C 0.71175 0.47193 0.71938 0.0
H659 H 0.70532 0.46303 0.72364 0.0
H660 H 0.71111 0.49089 0.73595 0.0
H661 H 0.71658 0.46241 0.74824 0.0
C662 C 0.67915 0.51514 0.62122 0.0
N663 N 0.68225 0.49245 0.61417 0.0
N664 N 0.69082 0.49304 0.6149 0.0
C665 C 0.69343 0.51631 0.62145 0.0
C666 C 0.68611 0.53103 0.62599 0.0
C667 C 0.66967 0.52119 0.62453 0.0
H668 H 0.6665 0.50934 0.65862 0.0
H669 H 0.66855 0.54044 0.63742 0.0
H670 H 0.6666 0.5175 0.57992 0.0
O671 O 0.68005 0.44895 0.52081 0.0
O672 O 0.69448 0.44897 0.52463 0.0
H673 H 0.70316 0.5443 0.60797 0.0
H674 H 0.70601 0.52068 0.6609 0.0
C675 C 0.70269 0.52453 0.61739 0.0
H676 H 0.70608 0.51446 0.58083 0.0
H677 H 0.71159 0.46583 0.51375 0.0
O678 O 0.66362 0.46721 0.595 0.0
C679 C 0.68741 0.44416 0.49718 0.0
Co680 Co 0.42663 0.53116 0.38276 0.0
Co681 Co 0.44713 0.52794 0.38175 0.0
C682 C 0.43733 0.54994 0.48576 0.0
O683 O 0.42997 0.54553 0.46146 0.0
O684 O 0.44443 0.54394 0.45994 0.0
C685 C 0.40872 0.52521 0.42215 0.0
O686 O 0.412 0.52326 0.47692 0.0
C687 C 0.4649 0.51673 0.42262 0.0
C688 C 0.47201 0.51457 0.33572 0.0
C689 C 0.47309 0.51254 0.39789 0.0
N690 N 0.4593 0.52112 0.37714 0.0
N691 N 0.4636 0.5199 0.32535 0.0
C692 C 0.46222 0.51462 0.48763 0.0
H693 H 0.45532 0.50891 0.49083 0.0
H694 H 0.46637 0.50131 0.51194 0.0
H695 H 0.46289 0.53265 0.50983 0.0
C696 C 0.42857 0.47832 0.36344 0.0
N697 N 0.43197 0.50066 0.37102 0.0
N698 N 0.44051 0.49911 0.37137 0.0
C699 C 0.44283 0.47562 0.36453 0.0
C700 C 0.43533 0.46171 0.3592 0.0
C701 C 0.41903 0.47318 0.35884 0.0
H702 H 0.41596 0.48642 0.32761 0.0
H703 H 0.41602 0.47536 0.40421 0.0
H704 H 0.41776 0.4545 0.34193 0.0
O705 O 0.43014 0.55417 0.31934 0.0
O706 O 0.44455 0.5518 0.3173 0.0
H707 H 0.45568 0.47341 0.3281 0.0
H708 H 0.45235 0.44646 0.36884 0.0
C709 C 0.452 0.46659 0.36783 0.0
H710 H 0.45513 0.47376 0.40939 0.0
H711 H 0.46077 0.5225 0.28287 0.0
O712 O 0.41379 0.52841 0.37736 0.0
C713 C 0.43745 0.56087 0.29814 0.0
Co714 Co 0.32586 0.21166 0.35406 0.0
Co715 Co 0.30534 0.21262 0.36102 0.0
C716 C 0.31587 0.18027 0.44101 0.0
O717 O 0.32297 0.18793 0.41815 0.0
O718 O 0.30852 0.18856 0.42397 0.0
C719 C 0.34369 0.21531 0.39561 0.0
O720 O 0.3403 0.21346 0.4501 0.0
C721 C 0.28755 0.22014 0.40903 0.0
C722 C 0.28036 0.22782 0.32448 0.0
C723 C 0.27935 0.22617 0.38679 0.0
N724 N 0.29309 0.21853 0.36193 0.0
N725 N 0.28872 0.22288 0.31156 0.0
C726 C 0.29035 0.21808 0.47379 0.0
H727 H 0.29747 0.22098 0.47783 0.0
H728 H 0.28685 0.23152 0.50238 0.0
H729 H 0.28882 0.19954 0.49052 0.0
C730 C 0.32333 0.26441 0.37233 0.0
N731 N 0.32021 0.24161 0.36751 0.0
N732 N 0.31166 0.24214 0.37068 0.0
C733 C 0.30907 0.26538 0.37787 0.0
C734 C 0.31637 0.2802 0.37911 0.0
C735 C 0.33273 0.27095 0.36554 0.0
H736 H 0.33556 0.26092 0.32659 0.0
H737 H 0.33628 0.26542 0.40707 0.0
H738 H 0.33363 0.29075 0.35834 0.0
O739 O 0.32226 0.19776 0.27606 0.0
O740 O 0.30785 0.19763 0.28146 0.0
H741 H 0.29617 0.26865 0.34251 0.0
H742 H 0.29918 0.29288 0.394 0.0
C743 C 0.29979 0.27315 0.38455 0.0
H744 H 0.29679 0.26311 0.42263 0.0
H745 H 0.2915 0.223 0.26839 0.0
O746 O 0.33869 0.2154 0.34972 0.0
C747 C 0.31487 0.19284 0.25331 0.0
Co748 Co 0.42628 0.21094 0.37446 0.0
Co749 Co 0.44679 0.21356 0.37379 0.0
C750 C 0.43694 0.18116 0.28868 0.0
O751 O 0.42961 0.18801 0.30958 0.0
O752 O 0.44407 0.18988 0.30871 0.0
C753 C 0.40837 0.21087 0.3329 0.0
O754 O 0.41169 0.205 0.28001 0.0
C755 C 0.46437 0.22363 0.32729 0.0
C756 C 0.47184 0.22712 0.41244 0.0
C757 C 0.47266 0.22831 0.34992 0.0
N758 N 0.45898 0.2199 0.37435 0.0
N759 N 0.4635 0.22184 0.42505 0.0
C760 C 0.46139 0.2244 0.26278 0.0
H761 H 0.45429 0.22803 0.26063 0.0
H762 H 0.46497 0.2386 0.2372 0.0
H763 H 0.46264 0.20649 0.24125 0.0
C764 C 0.42842 0.26378 0.35672 0.0
N765 N 0.43175 0.24133 0.36356 0.0
N766 N 0.4403 0.24267 0.36433 0.0
C767 C 0.44268 0.26615 0.35866 0.0
C768 C 0.43523 0.28024 0.35335 0.0
C769 C 0.4189 0.26907 0.35176 0.0
H770 H 0.41603 0.25739 0.31596 0.0
H771 H 0.41763 0.28837 0.34031 0.0
H772 H 0.41567 0.26452 0.39529 0.0
O773 O 0.42968 0.19624 0.45226 0.0
O774 O 0.4441 0.19785 0.45162 0.0
H775 H 0.45214 0.29499 0.37129 0.0
H776 H 0.45536 0.2708 0.32072 0.0
C777 C 0.45186 0.27508 0.36336 0.0
H778 H 0.45521 0.26578 0.40126 0.0
H779 H 0.46085 0.2199 0.46835 0.0
O780 O 0.41342 0.2145 0.37763 0.0
C781 C 0.43699 0.19187 0.47701 0.0
Co782 Co 0.3263 0.53048 0.385 0.0
Co783 Co 0.30571 0.5302 0.38251 0.0
C784 C 0.31645 0.5537 0.28448 0.0
O785 O 0.32363 0.54764 0.30896 0.0
O786 O 0.30917 0.54796 0.30807 0.0
C787 C 0.3443 0.52703 0.34808 0.0
O788 O 0.34119 0.53099 0.29352 0.0
C789 C 0.28798 0.51829 0.3382 0.0
C790 C 0.28023 0.52475 0.42105 0.0
C791 C 0.27953 0.5176 0.36099 0.0
N792 N 0.29337 0.52528 0.38306 0.0
N793 N 0.28868 0.5291 0.43235 0.0
C794 C 0.29084 0.51372 0.2743 0.0
H795 H 0.29727 0.52199 0.26554 0.0
H796 H 0.29141 0.49386 0.26654 0.0
H797 H 0.28598 0.52108 0.24188 0.0
C798 C 0.32333 0.47755 0.39066 0.0
N799 N 0.32034 0.50054 0.38892 0.0
N800 N 0.31178 0.50028 0.38955 0.0
C801 C 0.30905 0.47703 0.3929 0.0
C802 C 0.31627 0.46189 0.39322 0.0
C803 C 0.33274 0.47093 0.38498 0.0
H804 H 0.33625 0.47697 0.4263 0.0
H805 H 0.33559 0.48063 0.34567 0.0
H806 H 0.3337 0.45111 0.37862 0.0
O807 O 0.32286 0.55215 0.45212 0.0
O808 O 0.30842 0.55175 0.4513 0.0
H809 H 0.29625 0.48187 0.42951 0.0
H810 H 0.29916 0.45058 0.41557 0.0
C811 C 0.29974 0.46945 0.39827 0.0
H812 H 0.29662 0.47041 0.35306 0.0
H813 H 0.29126 0.53478 0.4738 0.0
O814 O 0.33908 0.5257 0.39267 0.0
C815 C 0.31558 0.55925 0.47326 0.0
Co816 Co 0.57679 0.96316 0.11276 0.0
Co817 Co 0.55627 0.96481 0.11127 0.0
C818 C 0.56642 0.93536 0.02147 0.0
O819 O 0.57367 0.94202 0.04388 0.0
O820 O 0.5592 0.94307 0.04259 0.0
C821 C 0.59477 0.96462 0.07313 0.0
O822 O 0.59163 0.95926 0.01936 0.0
C823 C 0.53866 0.97479 0.06549 0.0
C824 C 0.53114 0.97683 0.15072 0.0
C825 C 0.53034 0.9788 0.08831 0.0
N826 N 0.54405 0.97068 0.11232 0.0
N827 N 0.53951 0.97176 0.16307 0.0
C828 C 0.54166 0.9766 0.00115 0.0
H829 H 0.54872 0.98081 -0.00052 0.0
H830 H 0.53796 0.99083 0.97656 0.0
H831 H 0.5406 0.95887 0.97823 0.0
C832 C 0.57436 0.01612 0.10463 0.0
N833 N 0.57114 0.99343 0.10702 0.0
N834 N 0.56258 0.9944 0.10679 0.0
C835 C 0.56009 0.01789 0.10443 0.0
C836 C 0.56748 0.03234 0.10284 0.0
C837 C 0.58387 0.02194 0.10282 0.0
H838 H 0.58696 0.01581 0.14561 0.0
H839 H 0.58694 0.01184 0.06489 0.0
H840 H 0.58507 0.04166 0.09646 0.0
O841 O 0.57343 0.94617 0.18736 0.0
O842 O 0.55901 0.94706 0.18647 0.0
H843 H 0.54749 0.01681 0.14569 0.0
H844 H 0.55043 0.04627 0.11619 0.0
C845 C 0.55086 0.02637 0.10824 0.0
H846 H 0.54747 0.02194 0.06525 0.0
H847 H 0.54215 0.96937 0.20622 0.0
O848 O 0.58959 0.96734 0.11749 0.0
C849 C 0.56614 0.94073 0.21096 0.0
Co850 Co 0.67569 0.28321 0.10602 0.0
Co851 Co 0.69612 0.28006 0.09832 0.0
C852 C 0.68581 0.2999 0.99615 0.0
O853 O 0.67871 0.29619 0.02456 0.0
O854 O 0.69313 0.29415 0.01903 0.0
C855 C 0.658 0.26796 0.07932 0.0
O856 O 0.66148 0.25384 0.03779 0.0
C857 C 0.71429 0.27095 0.06005 0.0
C858 C 0.72061 0.26388 0.14831 0.0
C859 C 0.7222 0.26489 0.08658 0.0
N860 N 0.70829 0.27302 0.10412 0.0
N861 N 0.71212 0.26891 0.15673 0.0
C862 C 0.71251 0.27649 0.99485 0.0
H863 H 0.70969 0.29498 0.99171 0.0
H864 H 0.70764 0.26343 0.97695 0.0
H865 H 0.71848 0.27595 0.96673 0.0
C866 C 0.67806 0.23088 0.13714 0.0
N867 N 0.68114 0.25295 0.12153 0.0
N868 N 0.68958 0.25134 0.11248 0.0
C869 C 0.69204 0.22795 0.11813 0.0
C870 C 0.68484 0.21417 0.13476 0.0
C871 C 0.66901 0.22633 0.15937 0.0
H872 H 0.66627 0.24306 0.18004 0.0
H873 H 0.66483 0.22071 0.12088 0.0
H874 H 0.66895 0.21149 0.19345 0.0
O875 O 0.67938 0.30735 0.16554 0.0
O876 O 0.69378 0.30534 0.16091 0.0
H877 H 0.70531 0.22065 0.14079 0.0
H878 H 0.7007 0.19943 0.08714 0.0
C879 C 0.7009 0.21878 0.10129 0.0
H880 H 0.70354 0.2296 0.0632 0.0
H881 H 0.70892 0.26936 0.19844 0.0
O882 O 0.66286 0.28123 0.11217 0.0
C883 C 0.68684 0.3146 0.18249 0.0
Co884 Co 0.57635 0.28289 0.13474 0.0
Co885 Co 0.55586 0.27987 0.13621 0.0
C886 C 0.56585 0.29931 0.24165 0.0
O887 O 0.57312 0.29519 0.21586 0.0
O888 O 0.55866 0.29421 0.2159 0.0
C889 C 0.59417 0.26984 0.16566 0.0
O890 O 0.59081 0.25737 0.21072 0.0
C891 C 0.53791 0.26938 0.17553 0.0
C892 C 0.53104 0.26722 0.08768 0.0
C893 C 0.52977 0.26553 0.14972 0.0
N894 N 0.54368 0.27331 0.13074 0.0
N895 N 0.53952 0.27206 0.0784 0.0
C896 C 0.54037 0.26744 0.24099 0.0
H897 H 0.54722 0.26132 0.24542 0.0
H898 H 0.53606 0.25448 0.26508 0.0
H899 H 0.53977 0.2856 0.26257 0.0
C900 C 0.57423 0.23051 0.10593 0.0
N901 N 0.57096 0.25273 0.11781 0.0
N902 N 0.56244 0.25116 0.12211 0.0
C903 C 0.56005 0.22773 0.11547 0.0
C904 C 0.56745 0.21389 0.10499 0.0
C905 C 0.58359 0.22535 0.09271 0.0
H906 H 0.58663 0.24114 0.0698 0.0
H907 H 0.58708 0.22174 0.13573 0.0
H908 H 0.58425 0.20904 0.06333 0.0
O909 O 0.57279 0.30733 0.07568 0.0
O910 O 0.55838 0.30506 0.07441 0.0
H911 H 0.54688 0.22395 0.08585 0.0
H912 H 0.55073 0.19863 0.13059 0.0
C913 C 0.55097 0.21865 0.12511 0.0
H914 H 0.5482 0.22715 0.16636 0.0
H915 H 0.54249 0.27438 0.03626 0.0
O916 O 0.5892 0.28125 0.12951 0.0
C917 C 0.56546 0.31451 0.05601 0.0
Co918 Co 0.67705 0.96424 0.10909 0.0
Co919 Co 0.69753 0.96545 0.11889 0.0
C920 C 0.68685 0.93462 0.20124 0.0
O921 O 0.67977 0.94187 0.17713 0.0
O922 O 0.69421 0.94253 0.18355 0.0
C923 C 0.65914 0.96972 0.14759 0.0
O924 O 0.66235 0.96985 0.20279 0.0
C925 C 0.71558 0.97147 0.16541 0.0
C926 C 0.72233 0.98333 0.08206 0.0
C927 C 0.72361 0.97888 0.14315 0.0
N928 N 0.70978 0.972 0.11965 0.0
N929 N 0.7139 0.97892 0.06995 0.0
C930 C 0.71348 0.96308 0.22828 0.0
H931 H 0.70936 0.94662 0.22614 0.0
H932 H 0.70977 0.97746 0.2523 0.0
H933 H 0.71945 0.95872 0.25433 0.0
C934 C 0.67954 0.01737 0.12132 0.0
N935 N 0.68265 0.99452 0.11874 0.0
N936 N 0.69114 0.99496 0.12627 0.0
C937 C 0.69366 0.01808 0.13647 0.0
C938 C 0.6864 0.03315 0.13314 0.0
C939 C 0.67028 0.02393 0.10792 0.0
H940 H 0.66762 0.01163 0.07265 0.0
H941 H 0.66635 0.02179 0.14973 0.0
H942 H 0.66972 0.04297 0.09177 0.0
O943 O 0.68079 0.94852 0.03406 0.0
O944 O 0.69518 0.94882 0.04053 0.0
H945 H 0.7069 0.02521 0.11275 0.0
H946 H 0.70294 0.0434 0.17538 0.0
C947 C 0.70272 0.02519 0.15377 0.0
H948 H 0.70537 0.01182 0.1863 0.0
H949 H 0.71091 0.98092 0.02777 0.0
O950 O 0.66426 0.9679 0.10265 0.0
C951 C 0.68822 0.94318 0.01265 0.0
Co952 Co 0.42664 0.03036 0.87287 0.0
Co953 Co 0.44714 0.02896 0.87276 0.0
C954 C 0.43713 0.0496 0.97684 0.0
O955 O 0.42987 0.04452 0.95209 0.0
O956 O 0.44432 0.04445 0.9512 0.0
C957 C 0.40898 0.01691 0.90727 0.0
O958 O 0.41252 0.0054 0.95322 0.0
C959 C 0.4651 0.01944 0.91262 0.0
C960 C 0.47211 0.01818 0.82518 0.0
C961 C 0.4733 0.01615 0.88724 0.0
N962 N 0.45938 0.02333 0.86758 0.0
N963 N 0.46362 0.02266 0.81548 0.0
C964 C 0.46255 0.01697 0.9778 0.0
H965 H 0.45569 0.01088 0.98147 0.0
H966 H 0.46682 0.00379 0.00147 0.0
H967 H 0.46313 0.03495 0.00035 0.0
C968 C 0.42925 0.97759 0.84943 0.0
N969 N 0.43229 0.00024 0.85919 0.0
N970 N 0.44085 -0.00048 0.86167 0.0
C971 C 0.4435 0.97629 0.85516 0.0
C972 C 0.43623 0.96168 0.8472 0.0
C973 C 0.41989 0.9713 0.83952 0.0
H974 H 0.41652 0.98639 0.816 0.0
H975 H 0.41672 0.96808 0.88393 0.0
H976 H 0.41927 0.95446 0.81203 0.0
O977 O 0.42987 0.0539 0.8103 0.0
O978 O 0.4443 0.05284 0.8087 0.0
H979 H 0.45657 0.9749 0.82242 0.0
H980 H 0.45333 0.9481 0.86401 0.0
C981 C 0.45275 0.96816 0.86158 0.0
H982 H 0.45555 0.97602 0.90347 0.0
H983 H 0.46069 0.02506 0.77323 0.0
O984 O 0.41379 0.02785 0.86923 0.0
C985 C 0.43711 0.06132 0.78946 0.0
Co986 Co 0.32764 0.71352 0.87893 0.0
Co987 Co 0.30716 0.71526 0.88597 0.0
C988 C 0.31746 0.68489 0.97124 0.0
O989 O 0.32463 0.69172 0.94767 0.0
O990 O 0.31018 0.6929 0.95227 0.0
C991 C 0.34552 0.71928 0.91891 0.0
O992 O 0.34224 0.72037 0.97386 0.0
C993 C 0.28902 0.72126 0.92915 0.0
C994 C 0.2825 0.73276 0.8446 0.0
C995 C 0.28103 0.72826 0.90547 0.0
N996 N 0.29496 0.72198 0.88435 0.0
N997 N 0.29099 0.72874 0.83394 0.0
C998 C 0.29096 0.71265 0.99204 0.0
H999 H 0.29417 0.69465 0.98951 0.0
H1000 H 0.29557 0.72541 0.01415 0.0
H1001 H 0.285 0.71085 0.01992 0.0
C1002 C 0.32522 0.76688 0.88817 0.0
N1003 N 0.32209 0.74402 0.88631 0.0
N1004 N 0.31359 0.74461 0.89284 0.0
C1005 C 0.31106 0.76779 0.90168 0.0
C1006 C 0.31833 0.78278 0.89835 0.0
C1007 C 0.33451 0.77329 0.87578 0.0
H1008 H 0.33728 0.76062 0.84174 0.0
H1009 H 0.33831 0.77157 0.91833 0.0
H1010 H 0.33513 0.79215 0.85856 0.0
O1011 O 0.32409 0.69721 0.80412 0.0
O1012 O 0.30969 0.69803 0.80902 0.0
H1013 H 0.29789 0.77502 0.87632 0.0
H1014 H 0.30173 0.79336 0.93901 0.0
C1015 C 0.30196 0.77507 0.91781 0.0
H1016 H 0.29921 0.76183 0.95031 0.0
H1017 H 0.29411 0.73076 0.79224 0.0
O1018 O 0.34045 0.71684 0.87386 0.0
C1019 C 0.31669 0.69192 0.78221 0.0
Co1020 Co 0.42794 0.71167 0.88592 0.0
Co1021 Co 0.44844 0.71274 0.88262 0.0
C1022 C 0.43802 0.68088 0.79932 0.0
O1023 O 0.43083 0.68836 0.82116 0.0
O1024 O 0.44529 0.68906 0.81821 0.0
C1025 C 0.40993 0.71176 0.84756 0.0
O1026 O 0.41305 0.70441 0.7952 0.0
C1027 C 0.46585 0.72193 0.83244 0.0
C1028 C 0.4738 0.72426 0.91568 0.0
C1029 C 0.47429 0.7259 0.85305 0.0
N1030 N 0.46068 0.71817 0.88071 0.0
N1031 N 0.46549 0.71941 0.93026 0.0
C1032 C 0.46251 0.72345 0.76886 0.0
H1033 H 0.46356 0.70572 0.74591 0.0
H1034 H 0.45542 0.72733 0.76885 0.0
H1035 H 0.46601 0.73778 0.7432 0.0
C1036 C 0.43048 0.7641 0.86538 0.0
N1037 N 0.43365 0.74155 0.87335 0.0
N1038 N 0.44221 0.74237 0.8735 0.0
C1039 C 0.44475 0.76567 0.8666 0.0
C1040 C 0.4374 0.78015 0.86093 0.0
C1041 C 0.42099 0.76979 0.85972 0.0
H1042 H 0.41776 0.76661 0.90398 0.0
H1043 H 0.41801 0.75739 0.82594 0.0
H1044 H 0.41985 0.78883 0.84516 0.0
O1045 O 0.43143 0.69698 0.96341 0.0
O1046 O 0.44585 0.69737 0.96122 0.0
H1047 H 0.45745 0.7643 0.90673 0.0
H1048 H 0.4544 0.79395 0.87924 0.0
C1049 C 0.45399 0.77414 0.87013 0.0
H1050 H 0.45729 0.77022 0.82651 0.0
H1051 H 0.46306 0.71732 0.97413 0.0
O1052 O 0.41514 0.71619 0.89091 0.0
C1053 C 0.43874 0.69204 0.98745 0.0
Co1054 Co 0.32718 0.03306 0.86105 0.0
Co1055 Co 0.30675 0.02855 0.85486 0.0
C1056 C 0.31676 0.04903 0.75196 0.0
O1057 O 0.32392 0.0457 0.77985 0.0
O1058 O 0.30951 0.04286 0.77534 0.0
C1059 C 0.34484 0.01842 0.83269 0.0
O1060 O 0.34128 0.00395 0.7923 0.0
C1061 C 0.28865 0.01772 0.8178 0.0
C1062 C 0.28239 0.0116 0.90672 0.0
C1063 C 0.28079 0.01162 0.84496 0.0
N1064 N 0.29464 0.02077 0.86156 0.0
N1065 N 0.29084 0.01721 0.91457 0.0
C1066 C 0.29038 0.02234 0.75208 0.0
H1067 H 0.29306 0.04093 0.74707 0.0
H1068 H 0.29536 0.00933 0.73545 0.0
H1069 H 0.28443 0.02099 0.72404 0.0
C1070 C 0.32529 0.98082 0.8938 0.0
N1071 N 0.322 0.00255 0.87743 0.0
N1072 N 0.31357 0.00032 0.86897 0.0
C1073 C 0.31131 0.97682 0.87583 0.0
C1074 C 0.31866 0.96366 0.89255 0.0
C1075 C 0.33439 0.97705 0.9161 0.0
H1076 H 0.33699 0.99413 0.93585 0.0
H1077 H 0.33861 0.97137 0.87787 0.0
H1078 H 0.33458 0.96251 0.95096 0.0
O1079 O 0.32337 0.05704 0.92057 0.0
O1080 O 0.30899 0.05401 0.91709 0.0
H1081 H 0.29815 0.96905 0.90032 0.0
H1082 H 0.30281 0.94748 0.8477 0.0
C1083 C 0.3025 0.96697 0.86053 0.0
H1084 H 0.2997 0.97721 0.82199 0.0
H1085 H 0.29404 0.01846 0.95617 0.0
O1086 O 0.34005 0.03178 0.86578 0.0
C1087 C 0.31587 0.06377 0.93803 0.0
H1088 H 0.05857 0.55767 0.2203 0.0
H1089 H 0.07676 0.6785 0.06254 0.0
H1090 H 0.07624 0.55765 0.06862 0.0
H1091 H 0.05843 0.67931 0.21036 0.0
H1092 H 0.07719 0.63411 0.06753 0.0
H1093 H 0.05888 0.60227 0.22094 0.0
C1094 C 0.06252 0.56717 0.18726 0.0
C1095 C 0.06736 0.55422 0.14421 0.0
C1096 C 0.07309 0.64394 0.09907 0.0
C1097 C 0.0678 0.60488 0.14461 0.0
C1098 C 0.07288 0.66923 0.09637 0.0
C1099 C 0.06759 0.68237 0.13632 0.0
C1100 C 0.06793 0.63176 0.14195 0.0
C1101 C 0.06257 0.66966 0.1787 0.0
C1102 C 0.06272 0.59253 0.18765 0.0
C1103 C 0.07245 0.56712 0.10268 0.0
N1104 N 0.06285 0.64498 0.18043 0.0
N1105 N 0.07252 0.59179 0.10376 0.0
H1106 H 0.19517 0.55985 0.21817 0.0
H1107 H 0.17624 0.68187 0.07057 0.0
H1108 H 0.17694 0.56089 0.0698 0.0
H1109 H 0.19484 0.68141 0.21676 0.0
H1110 H 0.17584 0.63742 0.07325 0.0
H1111 H 0.19474 0.60439 0.22149 0.0
C1112 C 0.19107 0.56955 0.1864 0.0
C1113 C 0.18607 0.55689 0.14377 0.0
C1114 C 0.17999 0.64699 0.10496 0.0
C1115 C 0.1855 0.60755 0.14721 0.0
C1116 C 0.18018 0.67231 0.1036 0.0
C1117 C 0.18558 0.6851 0.1435 0.0
C1118 C 0.18526 0.63444 0.14647 0.0
C1119 C 0.19064 0.67204 0.185 0.0
C1120 C 0.19081 0.59489 0.18837 0.0
C1121 C 0.18082 0.5701 0.10376 0.0
N1122 N 0.19038 0.64735 0.18533 0.0
N1123 N 0.18068 0.59475 0.10635 0.0
H1124 H 0.92628 0.43124 0.92919 0.0
H1125 H 0.94471 0.30882 0.7799 0.0
H1126 H 0.94398 0.43036 0.77771 0.0
H1127 H 0.92641 0.31024 0.92791 0.0
H1128 H 0.94424 0.35336 0.77594 0.0
H1129 H 0.92581 0.38677 0.92683 0.0
C1130 C 0.93002 0.42158 0.8952 0.0
C1131 C 0.9352 0.43424 0.85375 0.0
C1132 C 0.94029 0.34395 0.80907 0.0
C1133 C 0.93479 0.3836 0.85092 0.0
C1134 C 0.94057 0.31862 0.81135 0.0
C1135 C 0.93557 0.30607 0.85414 0.0
C1136 C 0.93499 0.3567 0.85015 0.0
C1137 C 0.93029 0.31936 0.89385 0.0
C1138 C 0.92978 0.39625 0.89392 0.0
C1139 C 0.93998 0.42107 0.8108 0.0
N1140 N 0.93015 0.34401 0.89104 0.0
N1141 N 0.93969 0.39639 0.81059 0.0
H1142 H 0.8257 0.42929 0.94773 0.0
H1143 H 0.82883 0.30328 0.9325 0.0
H1144 H 0.81015 0.42412 0.78587 0.0
H1145 H 0.80887 0.30753 0.79579 0.0
H1146 H 0.82973 0.34733 0.93402 0.0
H1147 H 0.82669 0.38522 0.95121 0.0
C1148 C 0.8226 0.41867 0.91244 0.0
C1149 C 0.81791 0.4301 0.86623 0.0
C1150 C 0.82503 0.33894 0.90425 0.0
C1151 C 0.81913 0.37952 0.86844 0.0
C1152 C 0.82464 0.31364 0.9027 0.0
C1153 C 0.81876 0.3019 0.8641 0.0
C1154 C 0.81937 0.3526 0.8675 0.0
C1155 C 0.81342 0.31603 0.82672 0.0
C1156 C 0.8232 0.39341 0.914 0.0
C1157 C 0.81384 0.41578 0.82215 0.0
N1158 N 0.81383 0.34068 0.82952 0.0
N1159 N 0.81455 0.39118 0.82429 0.0
H1160 H 0.07563 0.05608 0.71344 0.0
H1161 H 0.05896 0.1777 0.55086 0.0
H1162 H 0.05887 0.05695 0.55691 0.0
H1163 H 0.07498 0.17807 0.71113 0.0
H1164 H 0.05918 0.13324 0.55123 0.0
H1165 H 0.07587 0.10073 0.71259 0.0
C1166 C 0.07202 0.06578 0.67891 0.0
C1167 C 0.06721 0.05308 0.63528 0.0
C1168 C 0.06266 0.14297 0.5864 0.0
C1169 C 0.0674 0.10376 0.63391 0.0
C1170 C 0.0625 0.16828 0.58621 0.0
C1171 C 0.0669 0.1813 0.63132 0.0
C1172 C 0.06727 0.13065 0.632 0.0
C1173 C 0.07151 0.16848 0.67567 0.0
C1174 C 0.07213 0.09116 0.67845 0.0
C1175 C 0.06259 0.06623 0.5916 0.0
N1176 N 0.07157 0.14377 0.67505 0.0
N1177 N 0.0628 0.09089 0.592 0.0
H1178 H 0.19487 0.05893 0.71996 0.0
H1179 H 0.17689 0.18108 0.56748 0.0
H1180 H 0.17728 0.06018 0.56787 0.0
H1181 H 0.19403 0.18059 0.72204 0.0
H1182 H 0.17654 0.13662 0.56938 0.0
H1183 H 0.19441 0.10349 0.72364 0.0
C1184 C 0.1909 0.06869 0.6875 0.0
C1185 C 0.18608 0.0561 0.64371 0.0
C1186 C 0.18037 0.14618 0.60306 0.0
C1187 C 0.1855 0.10673 0.64744 0.0
C1188 C 0.18053 0.1715 0.60208 0.0
C1189 C 0.18551 0.18428 0.64458 0.0
C1190 C 0.18525 0.13362 0.64683 0.0
C1191 C 0.19018 0.17121 0.68822 0.0
C1192 C 0.19062 0.09403 0.68964 0.0
C1193 C 0.18101 0.06935 0.60271 0.0
N1194 N 0.18996 0.14651 0.68815 0.0
N1195 N 0.18086 0.09399 0.60546 0.0
H1196 H 0.94422 0.9339 0.27393 0.0
H1197 H 0.92716 0.81198 0.43303 0.0
H1198 H 0.92728 0.93303 0.42958 0.0
H1199 H 0.94543 0.81238 0.2848 0.0
H1200 H 0.92651 0.85641 0.42887 0.0
H1201 H 0.94416 0.88929 0.2732 0.0
C1202 C 0.94047 0.92421 0.30777 0.0
C1203 C 0.93577 0.93692 0.35198 0.0
C1204 C 0.93065 0.84683 0.39713 0.0
C1205 C 0.93564 0.88623 0.35155 0.0
C1206 C 0.931 0.82153 0.39942 0.0
C1207 C 0.93633 0.80872 0.35908 0.0
C1208 C 0.9357 0.85934 0.35418 0.0
C1209 C 0.94127 0.82176 0.31683 0.0
C1210 C 0.94043 0.89884 0.30738 0.0
C1211 C 0.93095 0.92376 0.39458 0.0
N1212 N 0.94084 0.84643 0.31542 0.0
N1213 N 0.93102 0.89908 0.39347 0.0
H1214 H 0.82538 0.93126 0.45169 0.0
H1215 H 0.82741 0.80493 0.43814 0.0
H1216 H 0.8108 0.92702 0.28537 0.0
H1217 H 0.80932 0.81055 0.28968 0.0
H1218 H 0.82838 0.84891 0.44226 0.0
H1219 H 0.82606 0.88721 0.45521 0.0
C1220 C 0.82243 0.92083 0.41539 0.0
C1221 C 0.81811 0.93252 0.3679 0.0
C1222 C 0.82406 0.84089 0.40926 0.0
C1223 C 0.81894 0.88188 0.37039 0.0
C1224 C 0.82361 0.81563 0.40653 0.0
C1225 C 0.81823 0.80429 0.36384 0.0
C1226 C 0.81899 0.85494 0.36932 0.0
C1227 C 0.81344 0.81876 0.32386 0.0
C1228 C 0.82284 0.89555 0.41707 0.0
C1229 C 0.81422 0.91846 0.32258 0.0
N1230 N 0.81391 0.84338 0.3277 0.0
N1231 N 0.81473 0.89382 0.32488 0.0
H1232 H 0.55838 0.6824 0.6833 0.0
H1233 H 0.57593 0.55853 0.53605 0.0
H1234 H 0.57556 0.68039 0.52903 0.0
H1235 H 0.55886 0.56174 0.6908 0.0
H1236 H 0.57626 0.60316 0.53354 0.0
H1237 H 0.55869 0.638 0.68741 0.0
C1238 C 0.5622 0.67247 0.65022 0.0
C1239 C 0.56693 0.68481 0.60569 0.0
C1240 C 0.57244 0.59411 0.56805 0.0
C1241 C 0.56739 0.63422 0.61009 0.0
C1242 C 0.57228 0.56874 0.5695 0.0
C1243 C 0.5673 0.55672 0.61331 0.0
C1244 C 0.5676 0.60735 0.6109 0.0
C1245 C 0.56268 0.57051 0.65582 0.0
C1246 C 0.56241 0.6472 0.65264 0.0
C1247 C 0.57187 0.67135 0.56418 0.0
N1248 N 0.56292 0.59513 0.65348 0.0
N1249 N 0.57196 0.64668 0.56727 0.0
H1250 H 0.69444 0.56029 0.70715 0.0
H1251 H 0.6767 0.68322 0.55657 0.0
H1252 H 0.67724 0.5622 0.55299 0.0
H1253 H 0.69387 0.68201 0.71095 0.0
H1254 H 0.67639 0.63872 0.55705 0.0
H1255 H 0.69408 0.60486 0.7114 0.0
C1256 C 0.69058 0.5702 0.67432 0.0
C1257 C 0.68583 0.55777 0.62986 0.0
C1258 C 0.68022 0.64813 0.59097 0.0
C1259 C 0.68535 0.60845 0.63426 0.0
C1260 C 0.68036 0.67347 0.59078 0.0
C1261 C 0.68535 0.68607 0.63359 0.0
C1262 C 0.68511 0.63537 0.63432 0.0
C1263 C 0.69002 0.67279 0.67684 0.0
C1264 C 0.69035 0.59555 0.67678 0.0
C1265 C 0.6809 0.57123 0.58838 0.0
N1266 N 0.68981 0.64809 0.67602 0.0
N1267 N 0.6808 0.59588 0.59152 0.0
H1268 H 0.42601 0.43164 0.43205 0.0
H1269 H 0.44336 0.31003 0.27278 0.0
H1270 H 0.44317 0.43159 0.27756 0.0
H1271 H 0.42601 0.3107 0.42624 0.0
H1272 H 0.44293 0.3546 0.27062 0.0
H1273 H 0.42535 0.38723 0.42736 0.0
C1274 C 0.42958 0.42218 0.39687 0.0
C1275 C 0.43467 0.43506 0.35522 0.0
C1276 C 0.43917 0.34501 0.30456 0.0
C1277 C 0.43404 0.38446 0.34978 0.0
C1278 C 0.43944 0.31967 0.3058 0.0
C1279 C 0.43471 0.30692 0.34968 0.0
C1280 C 0.43416 0.35757 0.34773 0.0
C1281 C 0.42968 0.32001 0.3914 0.0
C1282 C 0.42924 0.39688 0.39428 0.0
C1283 C 0.43924 0.42213 0.31077 0.0
N1284 N 0.42956 0.34467 0.38956 0.0
N1285 N 0.43885 0.39746 0.3093 0.0
H1286 H 0.3255 0.3087 0.45769 0.0
H1287 H 0.30749 0.43278 0.31496 0.0
H1288 H 0.30791 0.31203 0.30588 0.0
H1289 H 0.32523 0.43058 0.46613 0.0
H1290 H 0.3076 0.38836 0.31123 0.0
H1291 H 0.32569 0.35332 0.46153 0.0
C1292 C 0.3217 0.31894 0.4252 0.0
C1293 C 0.31663 0.30693 0.38176 0.0
C1294 C 0.31148 0.39753 0.34527 0.0
C1295 C 0.31677 0.35759 0.3857 0.0
C1296 C 0.31138 0.42283 0.34751 0.0
C1297 C 0.31635 0.43514 0.39095 0.0
C1298 C 0.31658 0.38449 0.38688 0.0
C1299 C 0.32136 0.42159 0.43174 0.0
C1300 C 0.32178 0.3443 0.42742 0.0
C1301 C 0.3118 0.32077 0.34055 0.0
N1302 N 0.32135 0.39691 0.42878 0.0
N1303 N 0.31198 0.3454 0.34358 0.0
H1304 H 0.57853 0.18578 0.17018 0.0
H1305 H 0.57543 0.06029 0.18729 0.0
H1306 H 0.55809 0.18152 0.03685 0.0
H1307 H 0.56041 0.06445 0.02288 0.0
H1308 H 0.57609 0.10442 0.1909 0.0
H1309 H 0.57958 0.14183 0.17025 0.0
C1310 C 0.57425 0.17545 0.14083 0.0
C1311 C 0.56819 0.18717 0.10363 0.0
C1312 C 0.57281 0.09598 0.15301 0.0
C1313 C 0.56896 0.1365 0.10586 0.0
C1314 C 0.57239 0.07071 0.15143 0.0
C1315 C 0.56794 0.059 0.10447 0.0
C1316 C 0.56884 0.1096 0.10666 0.0
C1317 C 0.56392 0.07304 0.05967 0.0
C1318 C 0.57472 0.1502 0.14172 0.0
C1319 C 0.56276 0.17302 0.06685 0.0
N1320 N 0.56447 0.09768 0.06181 0.0
N1321 N 0.56324 0.14837 0.06907 0.0
H1322 H 0.6978 0.0662 0.08593 0.0
H1323 H 0.67206 0.18278 0.09753 0.0
H1324 H 0.67428 0.06114 0.19212 0.0
H1325 H 0.6967 0.18472 0.19128 0.0
H1326 H 0.67207 0.13833 0.10575 0.0
H1327 H 0.69728 0.11058 0.09622 0.0
C1328 C 0.69258 0.07437 0.11188 0.0
C1329 C 0.68611 0.05997 0.1387 0.0
C1330 C 0.67741 0.14868 0.12492 0.0
C1331 C 0.68531 0.11041 0.14791 0.0
C1332 C 0.67739 0.17398 0.12074 0.0
C1333 C 0.68441 0.1875 0.14354 0.0
C1334 C 0.6846 0.13694 0.15034 0.0
C1335 C 0.69126 0.17497 0.17173 0.0
C1336 C 0.69228 0.09959 0.11733 0.0
C1337 C 0.67933 0.0716 0.17006 0.0
N1338 N 0.69129 0.15028 0.17323 0.0
N1339 N 0.67903 0.09628 0.17315 0.0
H1340 H 0.42655 0.93211 0.91864 0.0
H1341 H 0.44589 0.80888 0.77942 0.0
H1342 H 0.44512 0.93077 0.77231 0.0
H1343 H 0.4281 0.81167 0.9303 0.0
H1344 H 0.44529 0.85339 0.77239 0.0
H1345 H 0.4264 0.88772 0.9191 0.0
C1346 C 0.43053 0.92236 0.88621 0.0
C1347 C 0.43587 0.93492 0.84549 0.0
C1348 C 0.44149 0.84426 0.80689 0.0
C1349 C 0.43585 0.88424 0.84613 0.0
C1350 C 0.44186 0.81896 0.81097 0.0
C1351 C 0.43702 0.80681 0.85537 0.0
C1352 C 0.43625 0.85736 0.84765 0.0
C1353 C 0.43185 0.82047 0.89504 0.0
C1354 C 0.4305 0.89706 0.88669 0.0
C1355 C 0.44099 0.92159 0.80479 0.0
N1356 N 0.43161 0.84505 0.89031 0.0
N1357 N 0.44089 0.89688 0.80624 0.0
H1358 H 0.30702 0.81512 0.84756 0.0
H1359 H 0.33165 0.93298 0.8553 0.0
H1360 H 0.33026 0.81151 0.95706 0.0
H1361 H 0.30721 0.93384 0.95179 0.0
H1362 H 0.33205 0.8886 0.86526 0.0
H1363 H 0.30732 0.85955 0.85615 0.0
C1364 C 0.31214 0.82363 0.87383 0.0
C1365 C 0.31858 0.80963 0.90223 0.0
C1366 C 0.32668 0.8987 0.8847 0.0
C1367 C 0.31912 0.86011 0.90958 0.0
C1368 C 0.32645 0.92395 0.8795 0.0
C1369 C 0.31935 0.93712 0.9025 0.0
C1370 C 0.31965 0.88666 0.91143 0.0
C1371 C 0.31269 0.92433 0.93205 0.0
C1372 C 0.31231 0.84887 0.87833 0.0
C1373 C 0.32523 0.82167 0.9339 0.0
N1374 N 0.3129 0.89967 0.93456 0.0
N1375 N 0.32541 0.84638 0.93616 0.0
H1376 H 0.01664 0.50368 0.14024 0.0
H1377 H 0.98619 0.48357 0.84975 0.0
H1378 H 0.02381 0.45898 0.98732 0.0
H1379 H 0.97929 0.52974 0.00058 0.0
H1380 H 0.99999 0.47428 0.89951 0.0
H1381 H 0.00284 0.51304 0.09043 0.0
C1382 C 0.01533 0.49595 0.09597 0.0
C1383 C 0.02148 0.48093 0.06736 0.0
C1384 C 0.99544 0.48631 0.92197 0.0
C1385 C 0.00565 0.49142 0.01018 0.0
C1386 C 0.98756 0.49165 0.89355 0.0
C1387 C 0.98148 0.50704 0.9216 0.0
C1388 C 0.99731 0.49661 0.97876 0.0
C1389 C 0.98362 0.51713 0.97814 0.0
C1390 C 0.00746 0.50132 0.06752 0.0
C1391 C 0.01941 0.47127 0.01023 0.0
N1392 N 0.99135 0.51172 0.00486 0.0
N1393 N 0.01168 0.47668 0.98354 0.0
H1394 H 0.23984 0.77743 0.14314 0.0
H1395 H 0.26498 0.71523 0.86534 0.0
H1396 H 0.2271 0.73465 0.00536 0.0
H1397 H 0.27799 0.75037 0.01481 0.0
H1398 H 0.25099 0.72289 0.91475 0.0
H1399 H 0.25389 0.76806 0.09642 0.0
C1400 C 0.24001 0.76619 0.10277 0.0
C1401 C 0.23229 0.75743 0.07692 0.0
C1402 C 0.2569 0.7287 0.93711 0.0
C1403 C 0.24831 0.74644 0.02352 0.0
C1404 C 0.26488 0.72434 0.90892 0.0
C1405 C 0.27264 0.73167 0.93681 0.0
C1406 C 0.25669 0.74085 0.99318 0.0
C1407 C 0.27217 0.74372 0.99278 0.0
C1408 C 0.24802 0.76084 0.07615 0.0
C1409 C 0.23286 0.74262 0.02526 0.0
N1410 N 0.26432 0.74798 0.01911 0.0
N1411 N 0.24074 0.73769 5e-05 0.0
H1412 H 0.99011 0.70983 0.37589 0.0
H1413 H 0.01407 0.78245 0.10937 0.0
H1414 H 0.97689 0.7582 0.2526 0.0
H1415 H 0.0274 0.73575 0.23593 0.0
H1416 H 1.00037 0.77368 0.16105 0.0
H1417 H 0.00385 0.71928 0.32562 0.0
C1418 C 0.99008 0.72232 0.33794 0.0
C1419 C 0.98229 0.73276 0.31752 0.0
C1420 C 0.0063 0.76552 0.17789 0.0
C1421 C 0.99802 0.74383 0.25997 0.0
C1422 C 0.01413 0.7705 0.14838 0.0
C1423 C 0.02193 0.76024 0.16911 0.0
C1424 C 0.00626 0.74992 0.22823 0.0
C1425 C 0.02162 0.74475 0.21956 0.0
C1426 C 0.99794 0.7277 0.30925 0.0
C1427 C 0.98266 0.74898 0.26852 0.0
N1428 N 0.01391 0.74004 0.24734 0.0
N1429 N 0.99039 0.75399 0.24139 0.0
H1430 H 0.26348 0.5366 0.38229 0.0
H1431 H 0.23969 0.45668 0.12784 0.0
H1432 H 0.27662 0.4833 0.2716 0.0
H1433 H 0.22618 0.50591 0.24769 0.0
H1434 H 0.25333 0.4666 0.1791 0.0
H1435 H 0.24976 0.52577 0.33331 0.0
C1436 C 0.2635 0.52273 0.34736 0.0
C1437 C 0.27127 0.51131 0.32999 0.0
C1438 C 0.24737 0.47507 0.19462 0.0
C1439 C 0.25556 0.49867 0.27394 0.0
C1440 C 0.23958 0.46942 0.16534 0.0
C1441 C 0.23175 0.48009 0.18427 0.0
C1442 C 0.24736 0.49177 0.24283 0.0
C1443 C 0.23199 0.49662 0.23278 0.0
C1444 C 0.25566 0.51655 0.31942 0.0
C1445 C 0.27089 0.49331 0.28489 0.0
N1446 N 0.23968 0.50199 0.26028 0.0
N1447 N 0.26317 0.48759 0.25837 0.0
H1448 H 0.77697 0.25477 -0.00024 0.0
H1449 H 0.72527 0.23734 0.98526 0.0
H1450 H 0.76399 0.21084 0.86537 0.0
H1451 H 0.73829 0.27909 0.12372 0.0
H1452 H 0.73936 0.22813 0.93932 0.0
H1453 H 0.76287 0.26434 0.04521 0.0
C1454 C 0.77115 0.24677 0.98055 0.0
C1455 C 0.77164 0.23139 0.92993 0.0
C1456 C 0.73915 0.23947 0.97948 0.0
C1457 C 0.75547 0.2429 0.98029 0.0
C1458 C 0.73109 0.24494 0.00528 0.0
C1459 C 0.73062 0.25957 0.05729 0.0
C1460 C 0.74679 0.2485 0.00624 0.0
C1461 C 0.73839 0.26799 0.08314 0.0
C1462 C 0.7631 0.25245 0.00607 0.0
C1463 C 0.76388 0.22252 0.90492 0.0
N1464 N 0.74616 0.26242 0.05722 0.0
N1465 N 0.75611 0.22831 0.93049 0.0
H1466 H 0.01314 0.27732 0.61147 0.0
H1467 H 0.9897 0.21065 0.88982 0.0
H1468 H 0.02682 0.23648 0.74838 0.0
H1469 H 0.97599 0.25327 0.75639 0.0
H1470 H 0.00335 0.21967 0.83796 0.0
H1471 H 0.99942 0.26817 0.66273 0.0
C1472 C 0.01326 0.2666 0.65263 0.0
C1473 C 0.02117 0.25818 0.67649 0.0
C1474 C 0.99735 0.22689 0.81969 0.0
C1475 C 0.00548 0.2474 0.73509 0.0
C1476 C 0.98955 0.22176 0.84929 0.0
C1477 C 0.98164 0.23075 0.82671 0.0
C1478 C 0.99728 0.24134 0.76726 0.0
C1479 C 0.98185 0.24519 0.77431 0.0
C1480 C 0.00543 0.26139 0.68187 0.0
C1481 C 0.02094 0.24414 0.72954 0.0
N1482 N 0.98954 0.25004 0.74638 0.0
N1483 N 0.01323 0.2392 0.75703 0.0
H1484 H 0.76341 0.52662 0.87616 0.0
H1485 H 0.73924 0.45722 0.60475 0.0
H1486 H 0.77658 0.48049 0.74714 0.0
H1487 H 0.72598 0.5022 0.73585 0.0
H1488 H 0.75298 0.46548 0.65639 0.0
H1489 H 0.74962 0.51759 0.82599 0.0
C1490 C 0.76342 0.51471 0.83699 0.0
C1491 C 0.77122 0.50477 0.81503 0.0
C1492 C 0.74705 0.47337 0.67423 0.0
C1493 C 0.75541 0.49418 0.75752 0.0
C1494 C 0.7392 0.46867 0.64475 0.0
C1495 C 0.7314 0.47861 0.66667 0.0
C1496 C 0.74714 0.48836 0.72581 0.0
C1497 C 0.73175 0.49346 0.71842 0.0
C1498 C 0.75553 0.50957 0.80835 0.0
C1499 C 0.77082 0.48931 0.76443 0.0
N1500 N 0.73949 0.49791 0.74614 0.0
N1501 N 0.76305 0.48451 0.73739 0.0
H1502 H 0.02495 0.96294 0.47597 0.0
H1503 H 0.97913 0.0306 0.51224 0.0
H1504 H 0.01663 -0.00162 0.64071 0.0
H1505 H 0.98669 0.99085 0.35188 0.0
H1506 H 0.99299 0.01999 0.55907 0.0
H1507 H 0.01123 0.97444 0.42821 0.0
C1508 C 0.02031 0.97354 0.50177 0.0
C1509 C 0.02201 0.98018 0.56201 0.0
C1510 C 0.9916 0.01344 0.51378 0.0
C1511 C 0.00618 0.99281 0.50819 0.0
C1512 C 0.98363 0.01926 0.48726 0.0
C1513 C 0.98164 0.01103 0.42866 0.0
C1514 C 0.99767 -0.00052 0.48126 0.0
C1515 C 0.98793 -0.00259 0.39737 0.0
C1516 C 0.01243 0.97985 0.47468 0.0
C1517 C 0.01559 0.993 0.59402 0.0
N1518 N 0.99565 0.99199 0.42411 0.0
N1519 N 0.00797 -0.00105 0.5667 0.0
H1520 H 0.23629 0.23325 0.64148 0.0
H1521 H 0.26674 0.25811 0.35364 0.0
H1522 H 0.22926 0.28043 0.49329 0.0
H1523 H 0.27312 0.20639 0.49374 0.0
H1524 H 0.25312 0.26704 0.40566 0.0
H1525 H 0.25002 0.22404 0.59018 0.0
C1526 C 0.23761 0.24156 0.59795 0.0
C1527 C 0.23153 0.25721 0.57099 0.0
C1528 C 0.25752 0.25384 0.42531 0.0
C1529 C 0.24726 0.24695 0.51228 0.0
C1530 C 0.2653 0.24869 0.39557 0.0
C1531 C 0.27119 0.23179 0.41988 0.0
C1532 C 0.25553 0.24191 0.47979 0.0
C1533 C 0.26895 0.22011 0.47424 0.0
C1534 C 0.24544 0.23626 0.56866 0.0
C1535 C 0.23361 0.26764 0.51485 0.0
N1536 N 0.2613 0.22541 0.5024 0.0
N1537 N 0.2413 0.26233 0.48739 0.0
H1538 H 0.2779 0.9823 0.74666 0.0
H1539 H 0.22629 0.002 0.74929 0.0
H1540 H 0.26459 0.02585 0.88028 0.0
H1541 H 0.23978 0.95756 0.6181 0.0
H1542 H 0.24011 0.01 0.79995 0.0
H1543 H 0.26391 0.97249 0.70008 0.0
C1544 C 0.27203 0.99012 0.76553 0.0
C1545 C 0.2724 0.00551 0.81615 0.0
C1546 C 0.24004 -0.0017 0.76041 0.0
C1547 C 0.25634 0.99379 0.76438 0.0
C1548 C 0.23211 0.99346 0.73185 0.0
C1549 C 0.23183 0.97864 0.68005 0.0
C1550 C 0.24775 0.9884 0.73672 0.0
C1551 C 0.23968 0.96902 0.65804 0.0
C1552 C 0.26403 0.98431 0.73939 0.0
C1553 C 0.26457 0.01418 0.84068 0.0
N1554 N 0.24731 0.97406 0.68645 0.0
N1555 N 0.25685 0.00833 0.81434 0.0
H1556 H 0.72599 0.73348 0.49798 0.0
H1557 H 0.77744 0.75561 0.49004 0.0
H1558 H 0.73939 0.78265 0.61857 0.0
H1559 H 0.76395 0.70822 0.36563 0.0
H1560 H 0.76362 0.76515 0.53892 0.0
H1561 H 0.73981 0.72382 0.4493 0.0
C1562 C 0.7318 0.74265 0.51346 0.0
C1563 C 0.73149 0.75944 0.56136 0.0
C1564 C 0.76368 0.75252 0.50121 0.0
C1565 C 0.74742 0.74779 0.50711 0.0
C1566 C 0.7716 0.74682 0.47373 0.0
C1567 C 0.77188 0.73058 0.42467 0.0
C1568 C 0.75596 0.74204 0.47922 0.0
C1569 C 0.76402 0.72069 0.40366 0.0
C1570 C 0.73972 0.73687 0.4861 0.0
C1571 C 0.73932 0.76975 0.58144 0.0
N1572 N 0.75639 0.7265 0.43116 0.0
N1573 N 0.74696 0.76384 0.55413 0.0
H1574 H 0.77776 0.98697 0.24909 0.0
H1575 H 0.7259 -0.00023 0.25491 0.0
H1576 H 0.76363 0.02537 0.3886 0.0
H1577 H 0.74005 0.96878 0.10471 0.0
H1578 H 0.73967 0.00765 0.30662 0.0
H1579 H 0.76408 0.97911 0.19665 0.0
C1580 C 0.77182 0.99424 0.26812 0.0
C1581 C 0.77189 0.00743 0.32264 0.0
C1582 C 0.73977 -0.00103 0.26254 0.0
C1583 C 0.75613 -0.00234 0.26385 0.0
C1584 C 0.73191 0.99419 0.23335 0.0
C1585 C 0.73184 0.98301 0.1762 0.0
C1586 C 0.74765 0.99266 0.2342 0.0
C1587 C 0.73983 0.97719 0.1491 0.0
C1588 C 0.76398 0.98945 0.23847 0.0
C1589 C 0.7639 0.01526 0.34649 0.0
N1590 N 0.74742 0.98198 0.17844 0.0
N1591 N 0.75635 0.01028 0.31697 0.0
H1592 H 0.51692 0.51021 0.64325 0.0
H1593 H 0.48601 0.48229 0.35947 0.0
H1594 H 0.52299 0.45663 0.50647 0.0
H1595 H 0.4792 0.53084 0.50572 0.0
H1596 H 0.49983 0.47361 0.41019 0.0
H1597 H 0.50323 0.51864 0.5917 0.0
C1598 C 0.5154 0.50028 0.60214 0.0
C1599 C 0.52122 0.48302 0.57857 0.0
C1600 C 0.49528 0.48602 0.43141 0.0
C1601 C 0.50549 0.49254 0.51924 0.0
C1602 C 0.4874 0.49101 0.40246 0.0
C1603 C 0.48136 0.50688 0.42911 0.0
C1604 C 0.49717 0.49725 0.4871 0.0
C1605 C 0.48352 0.51787 0.48451 0.0
C1606 C 0.50757 0.50514 0.57268 0.0
C1607 C 0.51887 0.47066 0.52529 0.0
N1608 N 0.49125 0.51284 0.51163 0.0
N1609 N 0.51119 0.47568 0.49737 0.0
H1610 H 0.52492 0.77996 0.7488 0.0
H1611 H 0.47925 0.71001 0.73925 0.0
H1612 H 0.51604 0.73863 0.59437 0.0
H1613 H 0.48777 0.75436 0.88951 0.0
H1614 H 0.49267 0.71997 0.68551 0.0
H1615 H 0.51146 0.77 0.80174 0.0
C1616 C 0.52022 0.76841 0.7264 0.0
C1617 C 0.52171 0.75961 0.66761 0.0
C1618 C 0.49157 0.72766 0.73007 0.0
C1619 C 0.50613 0.74872 0.72732 0.0
C1620 C 0.48385 0.72221 0.76054 0.0
C1621 C 0.48227 0.73182 0.81848 0.0
C1622 C 0.4978 0.74267 0.75792 0.0
C1623 C 0.48869 0.74664 0.84479 0.0
C1624 C 0.51247 0.76296 0.75641 0.0
C1625 C 0.51518 0.74565 0.63986 0.0
N1626 N 0.49615 0.75164 0.81432 0.0
N1627 N 0.50769 0.74055 0.67001 0.0
H1628 H 0.47844 0.21124 0.23917 0.0
H1629 H 0.52351 0.28397 0.25719 0.0
H1630 H 0.48563 0.25825 0.38776 0.0
H1631 H 0.51666 0.23646 0.10888 0.0
H1632 H 0.50956 0.27509 0.30492 0.0
H1633 H 0.49218 0.22098 0.1892 0.0
C1634 C 0.48281 0.22397 0.2608 0.0
C1635 C 0.48079 0.23433 0.31723 0.0
C1636 C 0.51112 0.26646 0.2621 0.0
C1637 C 0.49667 0.245 0.26108 0.0
C1638 C 0.51914 0.27131 0.23516 0.0
C1639 C 0.52136 0.26041 0.17977 0.0
C1640 C 0.50522 0.25073 0.23325 0.0
C1641 C 0.51524 0.24508 0.15192 0.0
C1642 C 0.49072 0.22931 0.23253 0.0
C1643 C 0.48691 0.2499 0.34418 0.0
N1644 N 0.50746 0.24061 0.17906 0.0
N1645 N 0.49455 0.25478 0.31587 0.0
H1646 H 0.47932 0.03368 0.99637 0.0
H1647 H 0.52473 0.96264 0.97641 0.0
H1648 H 0.48659 0.9879 0.84563 0.0
H1649 H 0.51716 0.00773 0.12777 0.0
H1650 H 0.51099 0.97239 0.92647 0.0
H1651 H 0.49323 0.0247 0.04457 0.0
C1652 C 0.48377 0.02139 0.97387 0.0
C1653 C 0.48169 0.011 0.91762 0.0
C1654 C 0.51236 0.9803 0.97042 0.0
C1655 C 0.49778 0.00122 0.9717 0.0
C1656 C 0.52027 0.97496 -0.00132 0.0
C1657 C 0.52219 0.98481 0.05584 0.0
C1658 C 0.50631 -0.00453 -0.00031 0.0
C1659 C 0.51596 -0.00018 0.08358 0.0
C1660 C 0.49177 0.01648 0.00111 0.0
C1661 C 0.48791 -0.00387 0.88929 0.0
N1662 N 0.50832 0.00472 0.05524 0.0
N1663 N 0.49565 0.9916 0.91672 0.0
H1664 H 0.05091 0.40747 0.25652 0.0
H1665 H 0.07907 0.31239 0.4475 0.0
H1666 H 0.07899 0.40425 0.2552 0.0
H1667 H 0.05112 0.3182 0.46155 0.0
H1668 H 0.07891 0.34322 0.36845 0.0
H1669 H 0.05066 0.37287 0.32601 0.0
C1670 C 0.05702 0.3996 0.27104 0.0
C1671 C 0.06498 0.40884 0.25013 0.0
C1672 C 0.0728 0.33763 0.38848 0.0
C1673 C 0.06474 0.36913 0.3289 0.0
C1674 C 0.07288 0.31992 0.43346 0.0
C1675 C 0.06511 0.31292 0.46177 0.0
C1676 C 0.0649 0.3485 0.37176 0.0
C1677 C 0.05728 0.32318 0.44127 0.0
C1678 C 0.05687 0.37978 0.31045 0.0
C1679 C 0.07269 0.39783 0.27024 0.0
N1680 N 0.05738 0.34067 0.39788 0.0
N1681 N 0.07237 0.37856 0.30843 0.0
H1682 H 0.20257 0.83295 0.25071 0.0
H1683 H 0.1744 0.92884 0.43957 0.0
H1684 H 0.1745 0.83712 0.2468 0.0
H1685 H 0.2023 0.92223 0.45587 0.0
H1686 H 0.17462 0.89869 0.35869 0.0
H1687 H 0.20283 0.86811 0.31869 0.0
C1688 C 0.19646 0.84117 0.2643 0.0
C1689 C 0.1885 0.83197 0.2433 0.0
C1690 C 0.18071 0.90398 0.37956 0.0
C1691 C 0.18877 0.87231 0.32029 0.0
C1692 C 0.18059 0.92131 0.42559 0.0
C1693 C 0.18833 0.92779 0.45521 0.0
C1694 C 0.18861 0.89297 0.3632 0.0
C1695 C 0.19617 0.9176 0.43468 0.0
C1696 C 0.19663 0.86131 0.30282 0.0
C1697 C 0.1808 0.84346 0.26208 0.0
N1698 N 0.1961 0.90043 0.39038 0.0
N1699 N 0.18114 0.863 0.2995 0.0
H1700 H 0.08005 0.81009 0.9352 0.0
H1701 H 0.05172 0.90397 0.74271 0.0
H1702 H 0.05202 0.81424 0.94392 0.0
H1703 H 0.0798 0.90108 0.73926 0.0
H1704 H 0.0516 0.86878 0.80991 0.0
H1705 H 0.07994 0.84012 0.85412 0.0
C1706 C 0.07386 0.81703 0.91949 0.0
C1707 C 0.06604 0.80993 0.9471 0.0
C1708 C 0.05779 0.87584 0.79435 0.0
C1709 C 0.06588 0.84457 0.85489 0.0
C1710 C 0.05787 0.89602 0.75625 0.0
C1711 C 0.06579 0.90561 0.73562 0.0
C1712 C 0.06569 0.86517 0.812 0.0
C1713 C 0.07354 0.89442 0.75433 0.0
C1714 C 0.0738 0.83428 0.87335 0.0
C1715 C 0.05821 0.81937 0.92441 0.0
N1716 N 0.07329 0.87482 0.79156 0.0
N1717 N 0.05834 0.83646 0.88009 0.0
H1718 H 0.1736 0.3337 0.75576 0.0
H1719 H 0.20224 0.42256 0.96101 0.0
H1720 H 0.2017 0.332 0.75945 0.0
H1721 H 0.17418 0.42449 0.95206 0.0
H1722 H 0.20231 0.39159 0.8816 0.0
H1723 H 0.17383 0.36825 0.8246 0.0
C1724 C 0.17983 0.34049 0.77129 0.0
C1725 C 0.18765 0.32985 0.75191 0.0
C1726 C 0.19615 0.39897 0.89665 0.0
C1727 C 0.18794 0.36967 0.83056 0.0
C1728 C 0.1961 0.41676 0.94176 0.0
C1729 C 0.18818 0.42592 0.96381 0.0
C1730 C 0.18823 0.39028 0.87361 0.0
C1731 C 0.18043 0.41779 0.93696 0.0
C1732 C 0.17995 0.36035 0.8104 0.0
C1733 C 0.19551 0.33957 0.77341 0.0
N1734 N 0.18065 0.40026 0.8937 0.0
N1735 N 0.19546 0.35894 0.8117 0.0
H1736 H 0.95204 0.57883 0.72826 0.0
H1737 H 0.924 0.67312 0.53386 0.0
H1738 H 0.92395 0.58096 0.7259 0.0
H1739 H 0.95205 0.66928 0.52633 0.0
H1740 H 0.92402 0.64115 0.61002 0.0
H1741 H 0.9523 0.61283 0.65705 0.0
C1742 C 0.94593 0.58629 0.71245 0.0
C1743 C 0.93796 0.57703 0.73316 0.0
C1744 C 0.93018 0.64739 0.59202 0.0
C1745 C 0.93822 0.61609 0.65241 0.0
C1746 C 0.93018 0.66576 0.54871 0.0
C1747 C 0.93803 0.67376 0.52323 0.0
C1748 C 0.93808 0.63686 0.60998 0.0
C1749 C 0.94583 0.6636 0.54454 0.0
C1750 C 0.94609 0.60579 0.67207 0.0
C1751 C 0.93025 0.58748 0.71126 0.0
N1752 N 0.94566 0.64552 0.58638 0.0
N1753 N 0.93058 0.60649 0.67224 0.0
H1754 H 0.80087 0.15429 0.75651 0.0
H1755 H 0.82861 0.05594 0.57275 0.0
H1756 H 0.82885 0.14758 0.76449 0.0
H1757 H 0.80095 0.06586 0.54867 0.0
H1758 H 0.82832 0.08542 0.65511 0.0
H1759 H 0.80039 0.11886 0.68934 0.0
C1760 C 0.80691 0.14544 0.74405 0.0
C1761 C 0.81492 0.15405 0.76577 0.0
C1762 C 0.8223 0.08099 0.63223 0.0
C1763 C 0.81439 0.11342 0.68981 0.0
C1764 C 0.82245 0.06406 0.58534 0.0
C1765 C 0.81482 0.05876 0.55307 0.0
C1766 C 0.81448 0.09283 0.64673 0.0
C1767 C 0.80701 0.0696 0.57195 0.0
C1768 C 0.80662 0.12516 0.706 0.0
C1769 C 0.82253 0.14175 0.74852 0.0
N1770 N 0.80705 0.08642 0.61708 0.0
N1771 N 0.82207 0.12211 0.71153 0.0
H1772 H 0.92364 0.18053 0.06234 0.0
H1773 H 0.95172 0.08644 0.25582 0.0
H1774 H 0.95165 0.17568 0.05306 0.0
H1775 H 0.92364 0.0899 0.2587 0.0
H1776 H 0.95196 0.12178 0.18905 0.0
H1777 H 0.92371 0.15099 0.14449 0.0
C1778 C 0.92982 0.17354 0.07816 0.0
C1779 C 0.93764 0.18028 0.05004 0.0
C1780 C 0.94575 0.11483 0.20443 0.0
C1781 C 0.93775 0.14617 0.14349 0.0
C1782 C 0.9456 0.09456 0.24229 0.0
C1783 C 0.93764 0.08506 0.26252 0.0
C1784 C 0.93788 0.12565 0.18665 0.0
C1785 C 0.92993 0.09647 0.24389 0.0
C1786 C 0.92985 0.15657 0.12492 0.0
C1787 C 0.94546 0.17082 0.07295 0.0
N1788 N 0.93025 0.11613 0.20688 0.0
N1789 N 0.9453 0.15397 0.11784 0.0
H1790 H 0.82956 0.65938 0.22423 0.0
H1791 H 0.80079 0.56864 0.02494 0.0
H1792 H 0.80147 0.6587 0.22985 0.0
H1793 H 0.82885 0.56641 0.03548 0.0
H1794 H 0.80072 0.60089 0.10138 0.0
H1795 H 0.82924 0.62554 0.15343 0.0
C1796 C 0.82331 0.65224 0.21025 0.0
C1797 C 0.81552 0.66189 0.23317 0.0
C1798 C 0.80688 0.59317 0.08725 0.0
C1799 C 0.81512 0.62284 0.15228 0.0
C1800 C 0.80693 0.57467 0.04388 0.0
C1801 C 0.81485 0.56497 0.02331 0.0
C1802 C 0.8148 0.60201 0.10994 0.0
C1803 C 0.82259 0.57347 0.04951 0.0
C1804 C 0.82313 0.63277 0.17002 0.0
C1805 C 0.80762 0.65184 0.21329 0.0
N1806 N 0.82237 0.59163 0.09106 0.0
N1807 N 0.80763 0.63278 0.17398 0.0
H1808 H 0.57921 0.34114 0.01494 0.0
H1809 H 0.55058 0.42503 0.79842 0.0
H1810 H 0.55124 0.33553 0.00176 0.0
H1811 H 0.57856 0.42934 0.81345 0.0
H1812 H 0.55042 0.39564 0.88129 0.0
H1813 H 0.57884 0.37602 0.94765 0.0
C1814 C 0.57297 0.34717 -0.00228 0.0
C1815 C 0.56524 0.33523 0.01364 0.0
C1816 C 0.55658 0.40325 0.86685 0.0
C1817 C 0.56478 0.37541 0.93658 0.0
C1818 C 0.55668 0.42012 0.81974 0.0
C1819 C 0.56462 0.42935 0.79827 0.0
C1820 C 0.56447 0.39558 0.89247 0.0
C1821 C 0.5723 0.42245 0.8279 0.0
C1822 C 0.57277 0.36723 0.95949 0.0
C1823 C 0.55736 0.34408 0.99033 0.0
N1824 N 0.57204 0.40577 0.87303 0.0
N1825 N 0.55734 0.36362 0.95266 0.0
H1826 H 0.70229 0.83021 0.75741 0.0
H1827 H 0.67491 0.93072 0.93698 0.0
H1828 H 0.67429 0.83649 0.75228 0.0
H1829 H 0.70239 0.91919 0.96582 0.0
H1830 H 0.67505 0.89931 0.85929 0.0
H1831 H 0.70282 0.86485 0.82711 0.0
C1832 C 0.69625 0.83874 0.77119 0.0
C1833 C 0.68823 0.83038 0.74902 0.0
C1834 C 0.68107 0.90373 0.88228 0.0
C1835 C 0.68881 0.87016 0.82786 0.0
C1836 C 0.68101 0.92179 0.92648 0.0
C1837 C 0.68863 0.9274 0.95854 0.0
C1838 C 0.6888 0.89109 0.87001 0.0
C1839 C 0.69635 0.91536 0.94245 0.0
C1840 C 0.69657 0.85857 0.81072 0.0
C1841 C 0.68062 0.84221 0.76826 0.0
N1842 N 0.69622 0.89756 0.89964 0.0
N1843 N 0.68111 0.86151 0.80639 0.0
H1844 H 0.55141 0.82894 0.46484 0.0
H1845 H 0.58 0.92355 0.27567 0.0
H1846 H 0.5795 0.83136 0.46828 0.0
H1847 H 0.55197 0.91981 0.26527 0.0
H1848 H 0.57981 0.89155 0.3518 0.0
H1849 H 0.5514 0.86305 0.39416 0.0
C1850 C 0.55758 0.83649 0.45039 0.0
C1851 C 0.56548 0.82726 0.47257 0.0
C1852 C 0.57369 0.89782 0.33316 0.0
C1853 C 0.56549 0.86647 0.39236 0.0
C1854 C 0.57379 0.91621 0.28988 0.0
C1855 C 0.56599 0.92422 0.26357 0.0
C1856 C 0.56574 0.88731 0.35019 0.0
C1857 C 0.55814 0.91411 0.28408 0.0
C1858 C 0.55756 0.85606 0.4103 0.0
C1859 C 0.57326 0.83783 0.45238 0.0
N1860 N 0.55823 0.89601 0.32586 0.0
N1861 N 0.57306 0.85692 0.41355 0.0
H1862 H 0.70144 0.33538 0.23262 0.0
H1863 H 0.67382 0.43214 0.42304 0.0
H1864 H 0.67342 0.34113 0.22909 0.0
H1865 H 0.70159 0.42315 0.44282 0.0
H1866 H 0.67397 0.40261 0.34077 0.0
H1867 H 0.70196 0.3704 0.30124 0.0
C1868 C 0.69541 0.34394 0.24631 0.0
C1869 C 0.68737 0.33517 0.22542 0.0
C1870 C 0.68005 0.40724 0.36272 0.0
C1871 C 0.68793 0.37532 0.30309 0.0
C1872 C 0.67998 0.42421 0.40958 0.0
C1873 C 0.68768 0.42986 0.44054 0.0
C1874 C 0.68788 0.39571 0.34685 0.0
C1875 C 0.69548 0.41918 0.42058 0.0
C1876 C 0.69571 0.36398 0.28523 0.0
C1877 C 0.67976 0.34709 0.24433 0.0
N1878 N 0.69536 0.40235 0.37542 0.0
N1879 N 0.68024 0.36649 0.28209 0.0
H1880 H 0.42368 0.58611 0.25164 0.0
H1881 H 0.45295 0.67246 0.04458 0.0
H1882 H 0.45173 0.58181 0.24476 0.0
H1883 H 0.42493 0.67668 0.05538 0.0
H1884 H 0.4528 0.64168 0.12426 0.0
H1885 H 0.42416 0.62082 0.18355 0.0
C1886 C 0.42995 0.59236 0.23557 0.0
C1887 C 0.43768 0.58093 0.25378 0.0
C1888 C 0.4467 0.64953 0.10957 0.0
C1889 C 0.43827 0.62092 0.17603 0.0
C1890 C 0.44677 0.66722 0.06432 0.0
C1891 C 0.43892 0.67692 0.04265 0.0
C1892 C 0.43872 0.64151 0.13314 0.0
C1893 C 0.43113 0.66951 0.07013 0.0
C1894 C 0.43022 0.61232 0.19691 0.0
C1895 C 0.4456 0.58999 0.23169 0.0
N1896 N 0.43123 0.65206 0.11349 0.0
N1897 N 0.44569 0.60945 0.19385 0.0
H1898 H 0.30118 0.08316 0.99029 0.0
H1899 H 0.32824 0.18248 0.17604 0.0
H1900 H 0.3291 0.09165 0.98225 0.0
H1901 H 0.30073 0.17041 0.20203 0.0
H1902 H 0.32812 0.15316 0.09335 0.0
H1903 H 0.30044 0.11813 0.05902 0.0
C1904 C 0.30715 0.09232 0.003 0.0
C1905 C 0.31522 0.08433 0.98087 0.0
C1906 C 0.32208 0.15706 0.11676 0.0
C1907 C 0.3144 0.1244 0.0586 0.0
C1908 C 0.32214 0.17389 0.16387 0.0
C1909 C 0.31451 0.17861 0.19666 0.0
C1910 C 0.31435 0.14472 0.10249 0.0
C1911 C 0.30678 0.16715 0.17831 0.0
C1912 C 0.30671 0.11232 0.04198 0.0
C1913 C 0.32273 0.09699 -0.0015 0.0
N1914 N 0.30692 0.15046 0.13285 0.0
N1915 N 0.32213 0.11634 0.03634 0.0
H1916 H 0.42305 0.08487 0.74183 0.0
H1917 H 0.45133 0.17446 0.53674 0.0
H1918 H 0.45114 0.08394 0.73721 0.0
H1919 H 0.42323 0.17444 0.54244 0.0
H1920 H 0.45149 0.14392 0.61691 0.0
H1921 H 0.4231 0.11942 0.67319 0.0
C1922 C 0.42924 0.09184 0.72617 0.0
C1923 C 0.43711 0.08139 0.74514 0.0
C1924 C 0.4453 0.15078 0.60099 0.0
C1925 C 0.4372 0.12119 0.66672 0.0
C1926 C 0.44519 0.16832 0.55542 0.0
C1927 C 0.43724 0.17679 0.53223 0.0
C1928 C 0.4374 0.14166 0.62337 0.0
C1929 C 0.42951 0.16826 0.55843 0.0
C1930 C 0.42926 0.1117 0.68716 0.0
C1931 C 0.44492 0.09135 0.72354 0.0
N1932 N 0.42979 0.15098 0.60218 0.0
N1933 N 0.44477 0.1107 0.68535 0.0
H1934 H 0.30141 0.58001 0.52848 0.0
H1935 H 0.33018 0.67636 0.71151 0.0
H1936 H 0.32949 0.5827 0.52367 0.0
H1937 H 0.30233 0.67002 0.73236 0.0
H1938 H 0.32977 0.64451 0.63488 0.0
H1939 H 0.30142 0.61444 0.59863 0.0
C1940 C 0.30758 0.58769 0.5425 0.0
C1941 C 0.31547 0.57843 0.52015 0.0
C1942 C 0.32374 0.65018 0.65591 0.0
C1943 C 0.3155 0.618 0.59964 0.0
C1944 C 0.32396 0.66848 0.69948 0.0
C1945 C 0.31629 0.6757 0.72894 0.0
C1946 C 0.3158 0.63894 0.64168 0.0
C1947 C 0.30841 0.66494 0.71106 0.0
C1948 C 0.30758 0.60743 0.58229 0.0
C1949 C 0.32326 0.58917 0.53975 0.0
N1950 N 0.30838 0.64691 0.66891 0.0
N1951 N 0.32307 0.60843 0.57821 0.0
H1952 H 0.05188 0.32881 0.75731 0.0
H1953 H 0.08035 0.42102 0.95521 0.0
H1954 H 0.07997 0.33054 0.755 0.0
H1955 H 0.05225 0.41995 0.95541 0.0
H1956 H 0.08032 0.38984 0.8765 0.0
H1957 H 0.05189 0.36321 0.82717 0.0
C1958 C 0.05806 0.33632 0.77171 0.0
C1959 C 0.06594 0.32671 0.75028 0.0
C1960 C 0.07416 0.39657 0.8934 0.0
C1961 C 0.06599 0.3663 0.8299 0.0
C1962 C 0.07416 0.41449 0.93816 0.0
C1963 C 0.06628 0.42294 0.96253 0.0
C1964 C 0.06622 0.38697 0.87296 0.0
C1965 C 0.05848 0.41387 0.93836 0.0
C1966 C 0.05805 0.35607 0.81138 0.0
C1967 C 0.07374 0.33728 0.77042 0.0
N1968 N 0.05865 0.39619 0.89534 0.0
N1969 N 0.07356 0.35651 0.8091 0.0
H1970 H 0.20167 0.81623 0.94928 0.0
H1971 H 0.17301 0.9057 0.74604 0.0
H1972 H 0.17358 0.81674 0.94943 0.0
H1973 H 0.2011 0.90676 0.75081 0.0
H1974 H 0.1731 0.87114 0.81514 0.0
H1975 H 0.20158 0.84646 0.86875 0.0
C1976 C 0.19548 0.82236 0.93183 0.0
C1977 C 0.18762 0.81407 0.9568 0.0
C1978 C 0.17924 0.87891 0.80102 0.0
C1979 C 0.18748 0.84906 0.86509 0.0
C1980 C 0.1792 0.89875 0.76177 0.0
C1981 C 0.18706 0.90925 0.74273 0.0
C1982 C 0.1872 0.86948 0.8215 0.0
C1983 C 0.19488 0.89934 0.76442 0.0
C1984 C 0.19543 0.83979 0.88601 0.0
C1985 C 0.1798 0.82274 0.93204 0.0
N1986 N 0.19475 0.88002 0.8027 0.0
N1987 N 0.17993 0.83995 0.88798 0.0
H1988 H 0.05216 0.92288 0.44258 0.0
H1989 H 0.08065 0.83334 0.23758 0.0
H1990 H 0.08026 0.92209 0.44106 0.0
H1991 H 0.05256 0.83238 0.24218 0.0
H1992 H 0.08058 0.86801 0.30639 0.0
H1993 H 0.05214 0.8928 0.36116 0.0
C1994 C 0.05833 0.91668 0.42457 0.0
C1995 C 0.06623 0.92478 0.44936 0.0
C1996 C 0.07443 0.86025 0.29231 0.0
C1997 C 0.06624 0.89012 0.35669 0.0
C1998 C 0.07446 0.84034 0.25321 0.0
C1999 C 0.0666 0.82981 0.23426 0.0
C2000 C 0.06648 0.86973 0.31283 0.0
C2001 C 0.05878 0.83983 0.25578 0.0
C2002 C 0.05831 0.89939 0.37826 0.0
C2003 C 0.07402 0.9162 0.42384 0.0
N2004 N 0.05892 0.8592 0.29403 0.0
N2005 N 0.07382 0.89914 0.37936 0.0
H2006 H 0.20135 0.31745 0.45806 0.0
H2007 H 0.17292 0.40795 0.25557 0.0
H2008 H 0.17325 0.31812 0.45606 0.0
H2009 H 0.20101 0.40862 0.25991 0.0
H2010 H 0.17296 0.37357 0.32513 0.0
H2011 H 0.20139 0.34847 0.37906 0.0
C2012 C 0.19519 0.32384 0.44046 0.0
C2013 C 0.18728 0.31535 0.46431 0.0
C2014 C 0.17912 0.38123 0.31089 0.0
C2015 C 0.18729 0.3511 0.37443 0.0
C2016 C 0.1791 0.40097 0.27137 0.0
C2017 C 0.18698 0.41126 0.25192 0.0
C2018 C 0.18706 0.37167 0.33126 0.0
C2019 C 0.19478 0.40133 0.27378 0.0
C2020 C 0.19522 0.34167 0.39556 0.0
C2021 C 0.17951 0.32426 0.43947 0.0
N2022 N 0.19462 0.38208 0.3123 0.0
N2023 N 0.17971 0.34181 0.3963 0.0
H2024 H 0.92309 0.57126 0.03065 0.0
H2025 H 0.95186 0.66317 0.22794 0.0
H2026 H 0.95119 0.57211 0.0278 0.0
H2027 H 0.92376 0.66244 0.22762 0.0
H2028 H 0.95181 0.6293 0.15616 0.0
H2029 H 0.92329 0.60325 0.10716 0.0
C2030 C 0.92931 0.57796 0.04659 0.0
C2031 C 0.93713 0.5691 0.02232 0.0
C2032 C 0.94566 0.6366 0.17175 0.0
C2033 C 0.9374 0.60602 0.10947 0.0
C2034 C 0.94568 0.65603 0.2125 0.0
C2035 C 0.9378 0.66567 0.23396 0.0
C2036 C 0.93771 0.62673 0.15235 0.0
C2037 C 0.93 0.65563 0.21238 0.0
C2038 C 0.92942 0.59634 0.0901 0.0
C2039 C 0.94499 0.57845 0.04498 0.0
N2040 N 0.93015 0.63668 0.17292 0.0
N2041 N 0.94492 0.59655 0.08695 0.0
H2042 H 0.8021 0.17372 0.06032 0.0
H2043 H 0.83049 0.08397 0.26437 0.0
H2044 H 0.83019 0.17157 0.05774 0.0
H2045 H 0.80241 0.08286 0.25758 0.0
H2046 H 0.83049 0.11876 0.19603 0.0
H2047 H 0.80212 0.14411 0.14224 0.0
C2048 C 0.80828 0.16736 0.07751 0.0
C2049 C 0.81615 0.17493 0.05135 0.0
C2050 C 0.82433 0.11093 0.20957 0.0
C2051 C 0.8162 0.14069 0.14472 0.0
C2052 C 0.82432 0.09098 0.2484 0.0
C2053 C 0.81643 0.08036 0.2665 0.0
C2054 C 0.8164 0.12037 0.18858 0.0
C2055 C 0.80864 0.09036 0.2446 0.0
C2056 C 0.80828 0.15029 0.12414 0.0
C2057 C 0.82395 0.16607 0.07597 0.0
N2058 N 0.80883 0.10978 0.20668 0.0
N2059 N 0.82377 0.1492 0.12082 0.0
H2060 H 0.92313 0.06414 0.55882 0.0
H2061 H 0.95161 0.15631 0.75646 0.0
H2062 H 0.95119 0.06715 0.55232 0.0
H2063 H 0.92353 0.15363 0.75978 0.0
H2064 H 0.95169 0.12138 0.68794 0.0
H2065 H 0.92328 0.09372 0.6412 0.0
C2066 C 0.92933 0.07073 0.57527 0.0
C2067 C 0.93715 0.06342 0.54791 0.0
C2068 C 0.94551 0.12841 0.70382 0.0
C2069 C 0.93736 0.09758 0.6417 0.0
C2070 C 0.94546 0.14843 0.74272 0.0
C2071 C 0.93755 0.15804 0.76364 0.0
C2072 C 0.9376 0.11793 0.68565 0.0
C2073 C 0.92979 0.14696 0.74457 0.0
C2074 C 0.92942 0.08773 0.62217 0.0
C2075 C 0.945 0.07244 0.57158 0.0
N2076 N 0.93001 0.12755 0.70656 0.0
N2077 N 0.9449 0.08929 0.61663 0.0
H2078 H 0.8018 0.57494 0.72665 0.0
H2079 H 0.83077 0.66636 0.53001 0.0
H2080 H 0.8299 0.57599 0.72909 0.0
H2081 H 0.80267 0.66597 0.52795 0.0
H2082 H 0.83053 0.63445 0.60661 0.0
H2083 H 0.80196 0.60864 0.6547 0.0
C2084 C 0.80801 0.58211 0.71176 0.0
C2085 C 0.81585 0.57261 0.73405 0.0
C2086 C 0.82442 0.64146 0.58967 0.0
C2087 C 0.81607 0.61135 0.65223 0.0
C2088 C 0.82454 0.65978 0.54612 0.0
C2089 C 0.81673 0.66874 0.52208 0.0
C2090 C 0.81642 0.63196 0.60925 0.0
C2091 C 0.80886 0.65954 0.54491 0.0
C2092 C 0.80809 0.60145 0.67093 0.0
C2093 C 0.82369 0.5827 0.7132 0.0
N2094 N 0.80891 0.64152 0.58689 0.0
N2095 N 0.82359 0.60155 0.67359 0.0
H2096 H 0.55116 0.40803 0.50188 0.0
H2097 H 0.57977 0.31445 0.3094 0.0
H2098 H 0.57923 0.4049 0.50812 0.0
H2099 H 0.5517 0.31738 0.30238 0.0
H2100 H 0.57958 0.34464 0.39039 0.0
H2101 H 0.55115 0.37291 0.43413 0.0
C2102 C 0.55733 0.40004 0.48885 0.0
C2103 C 0.56521 0.40953 0.51053 0.0
C2104 C 0.57345 0.33849 0.37158 0.0
C2105 C 0.56524 0.36915 0.43345 0.0
C2106 C 0.57355 0.32113 0.3255 0.0
C2107 C 0.56574 0.31362 0.29835 0.0
C2108 C 0.5655 0.34849 0.39046 0.0
C2109 C 0.55789 0.32279 0.32152 0.0
C2110 C 0.55731 0.37989 0.45043 0.0
C2111 C 0.57299 0.3983 0.49235 0.0
N2112 N 0.55798 0.33999 0.36573 0.0
N2113 N 0.5728 0.37874 0.45479 0.0
H2114 H 0.67248 0.91368 0.25342 0.0
H2115 H 0.70046 0.81958 0.44929 0.0
H2116 H 0.70056 0.91071 0.25324 0.0
H2117 H 0.67244 0.82454 0.45849 0.0
H2118 H 0.70047 0.85076 0.37095 0.0
H2119 H 0.67222 0.87965 0.32453 0.0
C2120 C 0.67859 0.906 0.26855 0.0
C2121 C 0.68656 0.91519 0.24747 0.0
C2122 C 0.69431 0.84492 0.3898 0.0
C2123 C 0.6863 0.87607 0.32831 0.0
C2124 C 0.69429 0.827 0.43437 0.0
C2125 C 0.68644 0.81957 0.46101 0.0
C2126 C 0.68642 0.85557 0.37173 0.0
C2127 C 0.67866 0.8298 0.43953 0.0
C2128 C 0.67844 0.8865 0.30896 0.0
C2129 C 0.69426 0.90442 0.26851 0.0
N2130 N 0.67885 0.84743 0.39649 0.0
N2131 N 0.69394 0.88543 0.30767 0.0
H2132 H 0.58043 0.9135 0.96779 0.0
H2133 H 0.55167 0.8227 0.76764 0.0
H2134 H 0.55232 0.91387 0.96717 0.0
H2135 H 0.57977 0.82277 0.76973 0.0
H2136 H 0.55172 0.85472 0.84439 0.0
H2137 H 0.58024 0.87978 0.89614 0.0
C2138 C 0.57421 0.90663 0.95227 0.0
C2139 C 0.56637 0.91654 0.97365 0.0
C2140 C 0.55787 0.84761 0.82831 0.0
C2141 C 0.56613 0.87769 0.89195 0.0
C2142 C 0.55785 0.82921 0.78471 0.0
C2143 C 0.56574 0.82017 0.76175 0.0
C2144 C 0.56583 0.85702 0.849 0.0
C2145 C 0.57354 0.82928 0.78575 0.0
C2146 C 0.57411 0.88726 0.91155 0.0
C2147 C 0.55852 0.90682 0.95192 0.0
N2148 N 0.57338 0.84733 0.82773 0.0
N2149 N 0.5586 0.88787 0.91235 0.0
H2150 H 0.67197 0.40923 0.73431 0.0
H2151 H 0.69952 0.31202 0.92262 0.0
H2152 H 0.70003 0.40534 0.73241 0.0
H2153 H 0.67177 0.32149 0.94162 0.0
H2154 H 0.69956 0.34241 0.84242 0.0
H2155 H 0.6716 0.3743 0.80229 0.0
C2156 C 0.67806 0.4011 0.74832 0.0
C2157 C 0.68605 0.41034 0.72779 0.0
C2158 C 0.69345 0.33769 0.86379 0.0
C2159 C 0.68566 0.37014 0.80519 0.0
C2160 C 0.69341 0.32022 0.9095 0.0
C2161 C 0.68565 0.31445 0.93981 0.0
C2162 C 0.68568 0.34949 0.84818 0.0
C2163 C 0.67792 0.3255 0.92003 0.0
C2164 C 0.67784 0.38108 0.78697 0.0
C2165 C 0.69373 0.39895 0.74731 0.0
N2166 N 0.67815 0.34269 0.87591 0.0
N2167 N 0.69334 0.37944 0.78494 0.0
H2168 H 0.45173 0.5674 0.54486 0.0
H2169 H 0.42383 0.65764 0.75204 0.0
H2170 H 0.42365 0.56787 0.55149 0.0
H2171 H 0.45191 0.65833 0.74484 0.0
H2172 H 0.42372 0.6232 0.6826 0.0
H2173 H 0.452 0.59822 0.62455 0.0
C2174 C 0.44562 0.57369 0.56364 0.0
C2175 C 0.43765 0.56522 0.54086 0.0
C2176 C 0.42991 0.63086 0.69618 0.0
C2177 C 0.43793 0.60075 0.6315 0.0
C2178 C 0.42998 0.65065 0.73565 0.0
C2179 C 0.4379 0.66098 0.75423 0.0
C2180 C 0.43781 0.6213 0.67492 0.0
C2181 C 0.44566 0.65101 0.73162 0.0
C2182 C 0.44579 0.59141 0.60893 0.0
C2183 C 0.42995 0.57401 0.56718 0.0
N2184 N 0.44542 0.63172 0.69309 0.0
N2185 N 0.43028 0.59146 0.61067 0.0
H2186 H 0.33027 0.15819 0.48902 0.0
H2187 H 0.30277 0.06254 0.68255 0.0
H2188 H 0.30218 0.15581 0.49223 0.0
H2189 H 0.3307 0.0696 0.69393 0.0
H2190 H 0.3026 0.09313 0.60284 0.0
H2191 H 0.33065 0.12322 0.55681 0.0
C2192 C 0.32418 0.1504 0.50415 0.0
C2193 C 0.31618 0.16005 0.48503 0.0
C2194 C 0.30878 0.08782 0.62241 0.0
C2195 C 0.31658 0.11979 0.56221 0.0
C2196 C 0.30889 0.07021 0.66777 0.0
C2197 C 0.31675 0.0637 0.69581 0.0
C2198 C 0.31658 0.09904 0.60489 0.0
C2199 C 0.32447 0.07419 0.67414 0.0
C2200 C 0.3244 0.13034 0.54267 0.0
C2201 C 0.3085 0.14908 0.50598 0.0
N2202 N 0.32418 0.09154 0.63042 0.0
N2203 N 0.3089 0.12953 0.54344 0.0
H2204 H 0.45125 0.16025 0.23559 0.0
H2205 H 0.42317 0.06497 0.04381 0.0
H2206 H 0.42319 0.15629 0.24001 0.0
H2207 H 0.4512 0.06956 0.03489 0.0
H2208 H 0.42321 0.09593 0.12294 0.0
H2209 H 0.45147 0.12553 0.16642 0.0
C2210 C 0.44513 0.15219 0.22182 0.0
C2211 C 0.43718 0.16127 0.24357 0.0
C2212 C 0.42936 0.09002 0.10406 0.0
C2213 C 0.4374 0.12136 0.16494 0.0
C2214 C 0.42935 0.07222 0.05905 0.0
C2215 C 0.43719 0.06485 0.03205 0.0
C2216 C 0.43726 0.10061 0.12211 0.0
C2217 C 0.44499 0.0748 0.05404 0.0
C2218 C 0.44527 0.13227 0.18257 0.0
C2219 C 0.42947 0.14999 0.22432 0.0
N2220 N 0.44482 0.09238 0.09734 0.0
N2221 N 0.42978 0.13064 0.18614 0.0
H2222 H 0.30256 0.57174 0.22116 0.0
H2223 H 0.33158 0.66323 0.02488 0.0
H2224 H 0.33064 0.57346 0.22776 0.0
H2225 H 0.30349 0.66227 0.02332 0.0
H2226 H 0.33144 0.62939 0.09656 0.0
H2227 H 0.30287 0.60321 0.14345 0.0
C2228 C 0.3088 0.57852 0.20584 0.0
C2229 C 0.31658 0.57009 0.23149 0.0
C2230 C 0.32531 0.63666 0.08058 0.0
C2231 C 0.31697 0.60635 0.14299 0.0
C2232 C 0.32538 0.65606 0.03987 0.0
C2233 C 0.31753 0.66573 0.01815 0.0
C2234 C 0.31734 0.62683 0.09962 0.0
C2235 C 0.3097 0.65559 0.03903 0.0
C2236 C 0.30896 0.5966 0.16163 0.0
C2237 C 0.32447 0.57951 0.20956 0.0
N2238 N 0.30981 0.63669 0.07848 0.0
N2239 N 0.32446 0.59728 0.1669 0.0
H2240 H 0.15043 0.47507 0.05231 0.0
H2241 H 0.10283 0.45915 0.19442 0.0
H2242 H 0.14566 0.45263 0.23684 0.0
H2243 H 0.10749 0.47419 0.00513 0.0
H2244 H 0.11849 0.45948 0.21221 0.0
H2245 H 0.13474 0.47762 0.03577 0.0
C2246 C 0.14609 0.47075 0.08945 0.0
C2247 C 0.14938 0.46352 0.14603 0.0
C2248 C 0.11609 0.46275 0.16679 0.0
C2249 C 0.13139 0.46642 0.1273 0.0
C2250 C 0.10714 0.46259 0.15655 0.0
C2251 C 0.10382 0.46655 0.09807 0.0
C2252 C 0.12181 0.46695 0.11827 0.0
C2253 C 0.10975 0.47097 0.0509 0.0
C2254 C 0.13712 0.47219 0.07991 0.0
C2255 C 0.14343 0.45821 0.19244 0.0
N2256 N 0.11845 0.47101 0.06201 0.0
N2257 N 0.13473 0.45973 0.18201 0.0
H2258 H 0.10333 0.76216 0.04532 0.0
H2259 H 0.15065 0.78248 0.18789 0.0
H2260 H 0.10778 0.789 0.22674 0.0
H2261 H 0.14629 0.76306 0.0006 0.0
H2262 H 0.13498 0.78222 0.20473 0.0
H2263 H 0.11904 0.7596 0.03012 0.0
C2264 C 0.10761 0.76744 0.08208 0.0
C2265 C 0.10422 0.77592 0.13736 0.0
C2266 C 0.13744 0.77798 0.15995 0.0
C2267 C 0.12223 0.77302 0.12014 0.0
C2268 C 0.1464 0.7781 0.15026 0.0
C2269 C 0.1498 0.77289 0.09261 0.0
C2270 C 0.13181 0.77254 0.11173 0.0
C2271 C 0.14396 0.76728 0.04571 0.0
C2272 C 0.11658 0.766 0.07329 0.0
C2273 C 0.11009 0.78244 0.18334 0.0
N2274 N 0.13525 0.76729 0.05629 0.0
N2275 N 0.1188 0.7809 0.17365 0.0
H2276 H 0.89586 0.51812 0.99192 0.0
H2277 H 0.85718 0.53142 0.75076 0.0
H2278 H 0.89991 0.52816 0.7999 0.0
H2279 H 0.85302 0.51691 0.94087 0.0
H2280 H 0.87286 0.52985 0.7679 0.0
H2281 H 0.88016 0.51721 0.97424 0.0
C2282 C 0.89346 0.52008 0.94603 0.0
C2283 C 0.89923 0.5233 0.89737 0.0
C2284 C 0.86852 0.52694 0.80586 0.0
C2285 C 0.88124 0.52233 0.8768 0.0
C2286 C 0.85955 0.52784 0.79609 0.0
C2287 C 0.85376 0.52437 0.84446 0.0
C2288 C 0.87174 0.52262 0.86449 0.0
C2289 C 0.85723 0.51975 0.90222 0.0
C2290 C 0.88449 0.51955 0.93596 0.0
C2291 C 0.89572 0.5257 0.83886 0.0
N2292 N 0.86599 0.51909 0.91064 0.0
N2293 N 0.88697 0.52524 0.83028 0.0
H2294 H 0.89595 0.19629 0.76874 0.0
H2295 H 0.85746 0.22556 0.00265 0.0
H2296 H 0.90019 0.22533 0.94828 0.0
H2297 H 0.85325 0.20219 0.81803 0.0
H2298 H 0.87314 0.22568 0.98375 0.0
H2299 H 0.88027 0.1985 0.78591 0.0
C2300 C 0.89359 0.20321 0.81169 0.0
C2301 C 0.8994 0.21056 0.85719 0.0
C2302 C 0.86878 0.22058 0.94734 0.0
C2303 C 0.88144 0.21306 0.87729 0.0
C2304 C 0.85983 0.22048 0.95814 0.0
C2305 C 0.85402 0.21378 0.91194 0.0
C2306 C 0.87196 0.21385 0.88999 0.0
C2307 C 0.85747 0.20744 0.85508 0.0
C2308 C 0.88463 0.20447 0.82149 0.0
C2309 C 0.89596 0.21941 0.91194 0.0
N2310 N 0.8662 0.20756 0.8458 0.0
N2311 N 0.88721 0.22032 0.92052 0.0
H2312 H 0.15073 0.97318 0.54479 0.0
H2313 H 0.10293 0.96072 0.68496 0.0
H2314 H 0.1457 0.95342 0.73091 0.0
H2315 H 0.10797 0.96918 0.49357 0.0
H2316 H 0.11856 0.96164 0.7041 0.0
H2317 H 0.13508 0.97543 0.5269 0.0
C2318 C 0.14634 0.96939 0.58201 0.0
C2319 C 0.14955 0.96298 0.63943 0.0
C2320 C 0.11625 0.96334 0.65792 0.0
C2321 C 0.1316 0.96556 0.61914 0.0
C2322 C 0.10732 0.96286 0.64691 0.0
C2323 C 0.10413 0.96476 0.58747 0.0
C2324 C 0.12206 0.96585 0.60921 0.0
C2325 C 0.11013 0.96754 0.54007 0.0
C2326 C 0.1374 0.97065 0.57168 0.0
C2327 C 0.14354 0.95834 0.68588 0.0
N2328 N 0.11881 0.96798 0.55197 0.0
N2329 N 0.13485 0.95969 0.67469 0.0
H2330 H 0.10268 0.26509 0.54911 0.0
H2331 H 0.15023 0.27726 0.69407 0.0
H2332 H 0.10736 0.2803 0.73839 0.0
H2333 H 0.14557 0.26684 0.50278 0.0
H2334 H 0.13458 0.27617 0.71192 0.0
H2335 H 0.11836 0.26335 0.53223 0.0
C2336 C 0.107 0.26799 0.58722 0.0
C2337 C 0.10368 0.27296 0.64527 0.0
C2338 C 0.13697 0.27408 0.66604 0.0
C2339 C 0.12168 0.27101 0.62612 0.0
C2340 C 0.14592 0.27469 0.65576 0.0
C2341 C 0.14924 0.27224 0.59673 0.0
C2342 C 0.13126 0.27096 0.61699 0.0
C2343 C 0.14332 0.26888 0.549 0.0
C2344 C 0.11596 0.26702 0.57749 0.0
C2345 C 0.10961 0.27649 0.69286 0.0
N2346 N 0.13462 0.26839 0.56016 0.0
N2347 N 0.11831 0.2755 0.6822 0.0
H2348 H 0.85721 0.03712 0.27098 0.0
H2349 H 0.89613 0.0145 0.50567 0.0
H2350 H 0.85325 0.01574 0.45723 0.0
H2351 H 0.89996 0.03155 0.31653 0.0
H2352 H 0.88041 0.01433 0.48875 0.0
H2353 H 0.87291 0.03466 0.28666 0.0
C2354 C 0.85963 0.03184 0.31513 0.0
C2355 C 0.8539 0.02671 0.3629 0.0
C2356 C 0.88469 0.01803 0.45093 0.0
C2357 C 0.87188 0.02391 0.38125 0.0
C2358 C 0.89367 0.01814 0.46057 0.0
C2359 C 0.89938 0.02314 0.41252 0.0
C2360 C 0.88139 0.02303 0.39285 0.0
C2361 C 0.89582 0.02767 0.355 0.0
C2362 C 0.86861 0.03043 0.32407 0.0
C2363 C 0.85743 0.01992 0.41912 0.0
N2364 N 0.88706 0.02759 0.34685 0.0
N2365 N 0.86619 0.0188 0.42678 0.0
H2366 H 0.85328 0.7104 0.29616 0.0
H2367 H 0.90086 0.72489 0.43909 0.0
H2368 H 0.858 0.72146 0.48717 0.0
H2369 H 0.89611 0.70593 0.25198 0.0
H2370 H 0.88518 0.72668 0.45617 0.0
H2371 H 0.86892 0.71163 0.27797 0.0
C2372 C 0.8576 0.71314 0.33433 0.0
C2373 C 0.85431 0.71571 0.39339 0.0
C2374 C 0.88757 0.72218 0.41135 0.0
C2375 C 0.87227 0.71716 0.37273 0.0
C2376 C 0.89653 0.72119 0.40149 0.0
C2377 C 0.89982 0.71513 0.34402 0.0
C2378 C 0.88184 0.71715 0.36339 0.0
C2379 C 0.89388 0.71058 0.29706 0.0
C2380 C 0.86655 0.71382 0.32386 0.0
C2381 C 0.86024 0.7193 0.44095 0.0
N2382 N 0.88518 0.71164 0.30782 0.0
N2383 N 0.86893 0.71988 0.42959 0.0
H2384 H 0.64936 0.472 0.53574 0.0
H2385 H 0.60298 0.46477 0.70007 0.0
H2386 H 0.64607 0.45916 0.72742 0.0
H2387 H 0.60609 0.46673 0.50561 0.0
H2388 H 0.61876 0.46602 0.71135 0.0
H2389 H 0.63354 0.47344 0.52439 0.0
C2390 C 0.64532 0.46958 0.57551 0.0
C2391 C 0.64906 0.46536 0.63263 0.0
C2392 C 0.616 0.4662 0.66619 0.0
C2393 C 0.63094 0.46702 0.61988 0.0
C2394 C 0.60697 0.46553 0.65967 0.0
C2395 C 0.60319 0.46555 0.60174 0.0
C2396 C 0.62131 0.46701 0.61445 0.0
C2397 C 0.60872 0.46659 0.55114 0.0
C2398 C 0.63629 0.47036 0.56894 0.0
C2399 C 0.64349 0.46237 0.6825 0.0
N2400 N 0.6175 0.46726 0.55866 0.0
N2401 N 0.63472 0.46324 0.67494 0.0
H2402 H 0.60696 0.78079 0.736 0.0
H2403 H 0.64588 0.76934 0.49601 0.0
H2404 H 0.60303 0.77017 0.54398 0.0
H2405 H 0.64976 0.77873 0.68847 0.0
H2406 H 0.63017 0.76836 0.51297 0.0
H2407 H 0.62266 0.77881 0.71983 0.0
C2408 C 0.60939 0.77797 0.69045 0.0
C2409 C 0.60366 0.77575 0.64125 0.0
C2410 C 0.63446 0.77057 0.55151 0.0
C2411 C 0.62165 0.77352 0.62236 0.0
C2412 C 0.64344 0.77113 0.54186 0.0
C2413 C 0.64916 0.77423 0.59084 0.0
C2414 C 0.63117 0.77315 0.6106 0.0
C2415 C 0.64561 0.7764 0.64928 0.0
C2416 C 0.61837 0.77684 0.68124 0.0
C2417 C 0.6072 0.77206 0.58326 0.0
N2418 N 0.63685 0.77589 0.65748 0.0
N2419 N 0.61596 0.77114 0.57541 0.0
H2420 H 0.39581 0.51934 0.50691 0.0
H2421 H 0.3573 0.52957 0.26344 0.0
H2422 H 0.39993 0.52804 0.31453 0.0
H2423 H 0.35296 0.51981 0.45525 0.0
H2424 H 0.37296 0.52777 0.28124 0.0
H2425 H 0.38011 0.51827 0.48894 0.0
C2426 C 0.39342 0.52097 0.4609 0.0
C2427 C 0.39921 0.52389 0.41221 0.0
C2428 C 0.36858 0.52594 0.31945 0.0
C2429 C 0.38124 0.52269 0.39131 0.0
C2430 C 0.35963 0.52696 0.3093 0.0
C2431 C 0.3538 0.52494 0.35794 0.0
C2432 C 0.37175 0.52292 0.37872 0.0
C2433 C 0.35721 0.52153 0.41638 0.0
C2434 C 0.38446 0.52036 0.45066 0.0
C2435 C 0.39573 0.52586 0.35353 0.0
N2436 N 0.36596 0.52071 0.42516 0.0
N2437 N 0.38699 0.52529 0.34479 0.0
H2438 H 0.39566 0.20702 0.24621 0.0
H2439 H 0.35636 0.21756 0.48302 0.0
H2440 H 0.39932 0.21942 0.43783 0.0
H2441 H 0.3528 0.21539 0.28894 0.0
H2442 H 0.37211 0.21771 0.46768 0.0
H2443 H 0.37993 0.20942 0.26115 0.0
C2444 C 0.39316 0.2103 0.29141 0.0
C2445 C 0.39883 0.21296 0.34084 0.0
C2446 C 0.36788 0.2173 0.42845 0.0
C2447 C 0.38081 0.21565 0.35834 0.0
C2448 C 0.35888 0.21719 0.43718 0.0
C2449 C 0.35324 0.21639 0.38722 0.0
C2450 C 0.37128 0.21645 0.36932 0.0
C2451 C 0.3569 0.21599 0.32885 0.0
C2452 C 0.38417 0.2117 0.29991 0.0
C2453 C 0.39521 0.21723 0.39837 0.0
N2454 N 0.36567 0.21591 0.32155 0.0
N2455 N 0.38644 0.21834 0.40555 0.0
H2456 H 0.64615 0.97412 0.23228 0.0
H2457 H 0.60779 0.96106 0.98864 0.0
H2458 H 0.65044 0.96783 0.03945 0.0
H2459 H 0.60339 0.97366 0.17944 0.0
H2460 H 0.62345 0.96379 0.00636 0.0
H2461 H 0.63046 0.97434 0.21395 0.0
C2462 C 0.6438 0.97287 0.18609 0.0
C2463 C 0.64963 0.97086 0.13738 0.0
C2464 C 0.61906 0.96604 0.04433 0.0
C2465 C 0.63167 0.97101 0.11605 0.0
C2466 C 0.61011 0.96447 0.03423 0.0
C2467 C 0.60426 0.96704 0.08264 0.0
C2468 C 0.6222 0.97013 0.10332 0.0
C2469 C 0.60765 0.97149 0.14075 0.0
C2470 C 0.63484 0.973 0.17564 0.0
C2471 C 0.6462 0.96934 0.07846 0.0
N2472 N 0.61639 0.97279 0.14949 0.0
N2473 N 0.63746 0.96934 0.0695 0.0
H2474 H 0.60394 0.30631 0.11807 0.0
H2475 H 0.64671 0.22983 0.06647 0.0
H2476 H 0.60577 0.23306 0.1868 0.0
H2477 H 0.64789 0.30549 0.11796 0.0
H2478 H 0.63104 0.22983 0.08943 0.0
H2479 H 0.61959 0.30566 0.09676 0.0
C2480 C 0.60765 0.2901 0.12864 0.0
C2481 C 0.60361 0.26975 0.15454 0.0
C2482 C 0.63477 0.24637 0.09554 0.0
C2483 C 0.62137 0.26872 0.12898 0.0
C2484 C 0.64365 0.24645 0.08208 0.0
C2485 C 0.64855 0.2677 0.09034 0.0
C2486 C 0.63077 0.26787 0.11564 0.0
C2487 C 0.64433 0.28872 0.11122 0.0
C2488 C 0.61655 0.28978 0.11663 0.0
C2489 C 0.60869 0.24919 0.16738 0.0
N2490 N 0.63565 0.28836 0.12258 0.0
N2491 N 0.61732 0.24907 0.15381 0.0
H2492 H 0.35504 0.05641 0.86716 0.0
H2493 H 0.39747 0.98067 0.93542 0.0
H2494 H 0.35609 0.98013 0.82167 0.0
H2495 H 0.39899 0.05252 0.8578 0.0
H2496 H 0.3817 0.98051 0.91589 0.0
H2497 H 0.37077 0.05585 0.88582 0.0
C2498 C 0.3586 0.03956 0.86116 0.0
C2499 C 0.35432 0.01832 0.84248 0.0
C2500 C 0.38552 -0.00374 0.90331 0.0
C2501 C 0.37216 0.01745 0.86516 0.0
C2502 C 0.39447 -0.00356 0.91476 0.0
C2503 C 0.39949 0.01664 0.89813 0.0
C2504 C 0.38161 0.01669 0.87678 0.0
C2505 C 0.39533 0.03657 0.87103 0.0
C2506 C 0.36754 0.03928 0.87165 0.0
C2507 C 0.3592 -0.00307 0.8354 0.0
N2508 N 0.3866 0.03621 0.86175 0.0
N2509 N 0.36788 -0.00305 0.84742 0.0
H2510 H 0.39694 0.70565 0.76391 0.0
H2511 H 0.35843 0.72525 0.00362 0.0
H2512 H 0.40128 0.72394 0.95191 0.0
H2513 H 0.35432 0.71491 0.81168 0.0
H2514 H 0.37415 0.72481 0.98599 0.0
H2515 H 0.38128 0.7089 0.78083 0.0
C2516 C 0.39461 0.71041 0.80872 0.0
C2517 C 0.40044 0.71445 0.85658 0.0
C2518 C 0.3698 0.72273 0.94772 0.0
C2519 C 0.3825 0.71813 0.87637 0.0
C2520 C 0.36083 0.72297 0.95777 0.0
C2521 C 0.35504 0.72003 0.90911 0.0
C2522 C 0.37301 0.71942 0.88863 0.0
C2523 C 0.35852 0.71719 0.85064 0.0
C2524 C 0.38566 0.71229 0.81836 0.0
C2525 C 0.39703 0.72062 0.91367 0.0
N2526 N 0.36727 0.71685 0.8421 0.0
N2527 N 0.38829 0.72217 0.92202 0.0
loop_
_geom_bond_atom_site_label_1
_geom_bond_atom_site_label_2
_geom_bond_distance
_geom_bond_site_symmetry_2
_ccdc_geom_bond_type
Co0 O3 1.970 . S
Co0 N17 1.989 . S
Co0 O25 1.967 . S
Co0 O32 1.920 . S
Co1 O4 1.966 . S
Co1 N10 2.022 . S
Co1 N18 1.993 . S
Co1 O26 1.941 . S
C2 O3 1.258 . S
C2 O4 1.263 . S
O3 Co0 1.970 . S
O3 C2 1.258 . S
O4 Co1 1.966 . S
O4 C2 1.263 . S
C5 O6 1.235 . S
C5 O32 1.289 . S
O6 C5 1.235 . S
C7 C9 1.400 . S
C7 N10 1.351 . S
C7 C12 1.501 1_554 S
C8 C9 1.387 . S
C8 N11 1.341 . S
C9 C7 1.400 . S
C9 C8 1.387 . S
N10 Co1 2.022 . S
N10 C7 1.351 . S
N10 N11 1.365 . S
N11 C8 1.341 . S
N11 N10 1.365 . S
N11 H31 0.862 . S
C12 C7 1.501 1_556 S
C12 H13 0.961 . S
C12 H14 0.961 . S
C12 H15 0.960 . S
H13 C12 0.961 . S
H14 C12 0.961 . S
H15 C12 0.960 . S
C16 N17 1.342 . S
C16 C20 1.401 . S
C16 C21 1.499 . S
N17 Co0 1.989 . S
N17 C16 1.342 . S
N17 N18 1.388 . S
N18 Co1 1.993 . S
N18 N17 1.388 . S
N18 C19 1.346 . S
C19 N18 1.346 . S
C19 C20 1.396 . S
C19 C29 1.510 . S
C20 C16 1.401 . S
C20 C19 1.396 . S
C21 C16 1.499 . S
C21 H22 0.959 . S
C21 H23 0.960 . S
C21 H24 0.961 . S
H22 C21 0.959 . S
H23 C21 0.960 . S
H24 C21 0.961 . S
O25 Co0 1.967 . S
O25 C33 1.258 . S
O26 Co1 1.941 . S
O26 C33 1.266 . S
H27 C29 0.959 . S
H28 C29 0.961 . S
C29 C19 1.510 . S
C29 H27 0.959 . S
C29 H28 0.961 . S
C29 H30 0.960 . S
H30 C29 0.960 . S
H31 N11 0.862 . S
O32 Co0 1.920 . S
O32 C5 1.289 . S
C33 O25 1.258 . S
C33 O26 1.266 . S
Co34 O37 1.970 . S
Co34 N51 1.989 . S
Co34 O59 1.967 . S
Co34 O66 1.920 . S
Co35 O38 1.966 . S
Co35 N44 2.022 . S
Co35 N52 1.993 . S
Co35 O60 1.941 . S
C36 O37 1.258 . S
C36 O38 1.263 . S
O37 Co34 1.970 . S
O37 C36 1.258 . S
O38 Co35 1.966 . S
O38 C36 1.263 . S
C39 O40 1.235 . S
C39 O66 1.289 . S
O40 C39 1.235 . S
C41 C43 1.400 . S
C41 N44 1.351 . S
C41 C46 1.501 1_554 S
C42 C43 1.387 . S
C42 N45 1.341 . S
C43 C41 1.400 . S
C43 C42 1.387 . S
N44 Co35 2.022 . S
N44 C41 1.351 . S
N44 N45 1.365 . S
N45 C42 1.341 . S
N45 N44 1.365 . S
N45 H65 0.862 . S
C46 C41 1.501 1_556 S
C46 H47 0.961 . S
C46 H48 0.961 . S
C46 H49 0.960 . S
H47 C46 0.961 . S
H48 C46 0.961 . S
H49 C46 0.960 . S
C50 N51 1.342 . S
C50 C54 1.401 . S
C50 C55 1.499 . S
N51 Co34 1.989 . S
N51 C50 1.342 . S
N51 N52 1.388 . S
N52 Co35 1.993 . S
N52 N51 1.388 . S
N52 C53 1.346 . S
C53 N52 1.346 . S
C53 C54 1.396 . S
C53 C63 1.510 . S
C54 C50 1.401 . S
C54 C53 1.396 . S
C55 C50 1.499 . S
C55 H56 0.959 . S
C55 H57 0.960 . S
C55 H58 0.961 . S
H56 C55 0.959 . S
H57 C55 0.960 . S
H58 C55 0.961 . S
O59 Co34 1.967 . S
O59 C67 1.258 . S
O60 Co35 1.941 . S
O60 C67 1.266 . S
H61 C63 0.959 . S
H62 C63 0.961 . S
C63 C53 1.510 . S
C63 H61 0.959 . S
C63 H62 0.961 . S
C63 H64 0.960 . S
H64 C63 0.960 . S
H65 N45 0.862 . S
O66 Co34 1.920 . S
O66 C39 1.289 . S
C67 O59 1.258 . S
C67 O60 1.266 . S
Co68 O71 1.970 . S
Co68 N85 1.989 . S
Co68 O93 1.967 . S
Co68 O100 1.920 . S
Co69 O72 1.966 . S
Co69 N78 2.022 . S
Co69 N86 1.993 . S
Co69 O94 1.941 . S
C70 O71 1.258 . S
C70 O72 1.263 . S
O71 Co68 1.970 . S
O71 C70 1.258 . S
O72 Co69 1.966 . S
O72 C70 1.263 . S
C73 O74 1.235 . S
C73 O100 1.289 . S
O74 C73 1.235 . S
C75 C77 1.400 . S
C75 N78 1.351 . S
C75 C80 1.501 . S
C76 C77 1.387 . S
C76 N79 1.341 . S
C77 C75 1.400 . S
C77 C76 1.387 . S
N78 Co69 2.022 . S
N78 C75 1.351 . S
N78 N79 1.365 . S
N79 C76 1.341 . S
N79 N78 1.365 . S
N79 H99 0.862 . S
C80 C75 1.501 . S
C80 H81 0.961 . S
C80 H82 0.961 . S
C80 H83 0.960 . S
H81 C80 0.961 . S
H82 C80 0.961 . S
H83 C80 0.960 . S
C84 N85 1.342 . S
C84 C88 1.401 . S
C84 C89 1.499 . S
N85 Co68 1.989 . S
N85 C84 1.342 . S
N85 N86 1.388 . S
N86 Co69 1.993 . S
N86 N85 1.388 . S
N86 C87 1.346 . S
C87 N86 1.346 . S
C87 C88 1.396 . S
C87 C97 1.510 . S
C88 C84 1.401 . S
C88 C87 1.396 . S
C89 C84 1.499 . S
C89 H90 0.959 . S
C89 H91 0.960 . S
C89 H92 0.961 . S
H90 C89 0.959 . S
H91 C89 0.960 . S
H92 C89 0.961 . S
O93 Co68 1.967 . S
O93 C101 1.258 . S
O94 Co69 1.941 . S
O94 C101 1.266 . S
H95 C97 0.959 . S
H96 C97 0.961 . S
C97 C87 1.510 . S
C97 H95 0.959 . S
C97 H96 0.961 . S
C97 H98 0.960 . S
H98 C97 0.960 . S
H99 N79 0.862 . S
O100 Co68 1.920 . S
O100 C73 1.289 . S
C101 O93 1.258 . S
C101 O94 1.266 . S
Co102 O105 1.970 . S
Co102 N119 1.989 . S
Co102 O127 1.967 . S
Co102 O134 1.920 . S
Co103 O106 1.966 . S
Co103 N112 2.022 . S
Co103 N120 1.993 . S
Co103 O128 1.941 . S
C104 O105 1.258 . S
C104 O106 1.263 . S
O105 Co102 1.970 . S
O105 C104 1.258 . S
O106 Co103 1.966 . S
O106 C104 1.263 . S
C107 O108 1.235 . S
C107 O134 1.289 . S
O108 C107 1.235 . S
C109 C111 1.400 . S
C109 N112 1.351 . S
C109 C114 1.501 . S
C110 C111 1.387 . S
C110 N113 1.341 . S
C111 C109 1.400 . S
C111 C110 1.387 . S
N112 Co103 2.022 . S
N112 C109 1.351 . S
N112 N113 1.365 . S
N113 C110 1.341 . S
N113 N112 1.365 . S
N113 H133 0.862 . S
C114 C109 1.501 . S
C114 H115 0.961 . S
C114 H116 0.961 . S
C114 H117 0.960 . S
H115 C114 0.961 . S
H116 C114 0.961 . S
H117 C114 0.960 . S
C118 N119 1.342 . S
C118 C122 1.401 . S
C118 C123 1.499 . S
N119 Co102 1.989 . S
N119 C118 1.342 . S
N119 N120 1.388 . S
N120 Co103 1.993 . S
N120 N119 1.388 . S
N120 C121 1.346 . S
C121 N120 1.346 . S
C121 C122 1.396 . S
C121 C131 1.510 . S
C122 C118 1.401 . S
C122 C121 1.396 . S
C123 C118 1.499 . S
C123 H124 0.959 . S
C123 H125 0.960 . S
C123 H126 0.961 . S
H124 C123 0.959 . S
H125 C123 0.960 . S
H126 C123 0.961 . S
O127 Co102 1.967 . S
O127 C135 1.258 . S
O128 Co103 1.941 . S
O128 C135 1.266 . S
H129 C131 0.959 . S
H130 C131 0.961 . S
C131 C121 1.510 . S
C131 H129 0.959 . S
C131 H130 0.961 . S
C131 H132 0.960 . S
H132 C131 0.960 . S
H133 N113 0.862 . S
O134 Co102 1.920 . S
O134 C107 1.289 . S
C135 O127 1.258 . S
C135 O128 1.266 . S
Co136 O139 1.970 . S
Co136 N153 1.989 . S
Co136 O161 1.967 . S
Co136 O168 1.920 . S
Co137 O140 1.966 . S
Co137 N146 2.022 . S
Co137 N154 1.993 . S
Co137 O162 1.941 . S
C138 O139 1.258 . S
C138 O140 1.263 . S
O139 Co136 1.970 . S
O139 C138 1.258 . S
O140 Co137 1.966 . S
O140 C138 1.263 . S
C141 O142 1.235 . S
C141 O168 1.289 . S
O142 C141 1.235 . S
C143 C145 1.400 . S
C143 N146 1.351 . S
C143 C148 1.501 1_556 S
C144 C145 1.387 . S
C144 N147 1.341 . S
C145 C143 1.400 . S
C145 C144 1.387 . S
N146 Co137 2.022 . S
N146 C143 1.351 . S
N146 N147 1.365 . S
N147 C144 1.341 . S
N147 N146 1.365 . S
N147 H167 0.862 . S
C148 C143 1.501 1_554 S
C148 H149 0.961 . S
C148 H150 0.961 . S
C148 H151 0.960 . S
H149 C148 0.961 . S
H150 C148 0.961 . S
H151 C148 0.960 . S
C152 N153 1.342 . S
C152 C156 1.401 . S
C152 C157 1.499 . S
N153 Co136 1.989 . S
N153 C152 1.342 . S
N153 N154 1.388 . S
N154 Co137 1.993 . S
N154 N153 1.388 . S
N154 C155 1.346 . S
C155 N154 1.346 . S
C155 C156 1.396 . S
C155 C165 1.510 . S
C156 C152 1.401 . S
C156 C155 1.396 . S
C157 C152 1.499 . S
C157 H158 0.959 . S
C157 H159 0.960 . S
C157 H160 0.961 . S
H158 C157 0.959 . S
H159 C157 0.960 . S
H160 C157 0.961 . S
O161 Co136 1.967 . S
O161 C169 1.258 . S
O162 Co137 1.941 . S
O162 C169 1.266 . S
H163 C165 0.959 . S
H164 C165 0.961 . S
C165 C155 1.510 . S
C165 H163 0.959 . S
C165 H164 0.961 . S
C165 H166 0.960 . S
H166 C165 0.960 . S
H167 N147 0.862 . S
O168 Co136 1.920 . S
O168 C141 1.289 . S
C169 O161 1.258 . S
C169 O162 1.266 . S
Co170 O173 1.970 . S
Co170 N187 1.989 . S
Co170 O195 1.967 . S
Co170 O202 1.920 . S
Co171 O174 1.966 . S
Co171 N180 2.022 . S
Co171 N188 1.993 . S
Co171 O196 1.941 . S
C172 O173 1.258 . S
C172 O174 1.263 . S
O173 Co170 1.970 . S
O173 C172 1.258 . S
O174 Co171 1.966 . S
O174 C172 1.263 . S
C175 O176 1.235 . S
C175 O202 1.289 . S
O176 C175 1.235 . S
C177 C179 1.400 . S
C177 N180 1.351 . S
C177 C182 1.501 1_556 S
C178 C179 1.387 . S
C178 N181 1.341 . S
C179 C177 1.400 . S
C179 C178 1.387 . S
N180 Co171 2.022 . S
N180 C177 1.351 . S
N180 N181 1.365 . S
N181 C178 1.341 . S
N181 N180 1.365 . S
N181 H201 0.862 . S
C182 C177 1.501 1_554 S
C182 H183 0.961 . S
C182 H184 0.961 . S
C182 H185 0.960 . S
H183 C182 0.961 . S
H184 C182 0.961 . S
H185 C182 0.960 . S
C186 N187 1.342 . S
C186 C190 1.401 . S
C186 C191 1.499 . S
N187 Co170 1.989 . S
N187 C186 1.342 . S
N187 N188 1.388 . S
N188 Co171 1.993 . S
N188 N187 1.388 . S
N188 C189 1.346 . S
C189 N188 1.346 . S
C189 C190 1.396 . S
C189 C199 1.510 . S
C190 C186 1.401 . S
C190 C189 1.396 . S
C191 C186 1.499 . S
C191 H192 0.959 . S
C191 H193 0.960 . S
C191 H194 0.961 . S
H192 C191 0.959 . S
H193 C191 0.960 . S
H194 C191 0.961 . S
O195 Co170 1.967 . S
O195 C203 1.258 . S
O196 Co171 1.941 . S
O196 C203 1.266 . S
H197 C199 0.959 . S
H198 C199 0.961 . S
C199 C189 1.510 . S
C199 H197 0.959 . S
C199 H198 0.961 . S
C199 H200 0.960 . S
H200 C199 0.960 . S
H201 N181 0.862 . S
O202 Co170 1.920 . S
O202 C175 1.289 . S
C203 O195 1.258 . S
C203 O196 1.266 . S
Co204 O207 1.970 . S
Co204 N221 1.989 . S
Co204 O229 1.967 . S
Co204 O236 1.920 . S
Co205 O208 1.966 . S
Co205 N214 2.022 . S
Co205 N222 1.993 . S
Co205 O230 1.941 . S
C206 O207 1.258 . S
C206 O208 1.263 . S
O207 Co204 1.970 . S
O207 C206 1.258 . S
O208 Co205 1.966 . S
O208 C206 1.263 . S
C209 O210 1.235 . S
C209 O236 1.289 . S
O210 C209 1.235 . S
C211 C213 1.400 . S
C211 N214 1.351 . S
C211 C216 1.501 . S
C212 C213 1.387 . S
C212 N215 1.341 . S
C213 C211 1.400 . S
C213 C212 1.387 . S
N214 Co205 2.022 . S
N214 C211 1.351 . S
N214 N215 1.365 . S
N215 C212 1.341 . S
N215 N214 1.365 . S
N215 H235 0.862 . S
C216 C211 1.501 . S
C216 H217 0.961 . S
C216 H218 0.961 . S
C216 H219 0.960 . S
H217 C216 0.961 . S
H218 C216 0.961 . S
H219 C216 0.960 . S
C220 N221 1.342 . S
C220 C224 1.401 . S
C220 C225 1.499 . S
N221 Co204 1.989 . S
N221 C220 1.342 . S
N221 N222 1.388 . S
N222 Co205 1.993 . S
N222 N221 1.388 . S
N222 C223 1.346 . S
C223 N222 1.346 . S
C223 C224 1.396 . S
C223 C233 1.510 . S
C224 C220 1.401 . S
C224 C223 1.396 . S
C225 C220 1.499 . S
C225 H226 0.959 . S
C225 H227 0.960 . S
C225 H228 0.961 . S
H226 C225 0.959 . S
H227 C225 0.960 . S
H228 C225 0.961 . S
O229 Co204 1.967 . S
O229 C237 1.258 . S
O230 Co205 1.941 . S
O230 C237 1.266 . S
H231 C233 0.959 . S
H232 C233 0.961 . S
C233 C223 1.510 . S
C233 H231 0.959 . S
C233 H232 0.961 . S
C233 H234 0.960 . S
H234 C233 0.960 . S
H235 N215 0.862 . S
O236 Co204 1.920 . S
O236 C209 1.289 . S
C237 O229 1.258 . S
C237 O230 1.266 . S
Co238 O241 1.970 . S
Co238 N255 1.989 . S
Co238 O263 1.967 . S
Co238 O270 1.920 . S
Co239 O242 1.966 . S
Co239 N248 2.022 . S
Co239 N256 1.993 . S
Co239 O264 1.941 . S
C240 O241 1.258 . S
C240 O242 1.263 . S
O241 Co238 1.970 . S
O241 C240 1.258 . S
O242 Co239 1.966 . S
O242 C240 1.263 . S
C243 O244 1.235 . S
C243 O270 1.289 . S
O244 C243 1.235 . S
C245 C247 1.400 . S
C245 N248 1.351 . S
C245 C250 1.501 . S
C246 C247 1.387 . S
C246 N249 1.341 . S
C247 C245 1.400 . S
C247 C246 1.387 . S
N248 Co239 2.022 . S
N248 C245 1.351 . S
N248 N249 1.365 . S
N249 C246 1.341 . S
N249 N248 1.365 . S
N249 H269 0.862 . S
C250 C245 1.501 . S
C250 H251 0.961 . S
C250 H252 0.961 . S
C250 H253 0.960 . S
H251 C250 0.961 . S
H252 C250 0.961 . S
H253 C250 0.960 . S
C254 N255 1.342 . S
C254 C258 1.401 . S
C254 C259 1.499 . S
N255 Co238 1.989 . S
N255 C254 1.342 . S
N255 N256 1.388 . S
N256 Co239 1.993 . S
N256 N255 1.388 . S
N256 C257 1.346 . S
C257 N256 1.346 . S
C257 C258 1.396 . S
C257 C267 1.510 . S
C258 C254 1.401 . S
C258 C257 1.396 . S
C259 C254 1.499 . S
C259 H260 0.959 . S
C259 H261 0.960 . S
C259 H262 0.961 . S
H260 C259 0.959 . S
H261 C259 0.960 . S
H262 C259 0.961 . S
O263 Co238 1.967 . S
O263 C271 1.258 . S
O264 Co239 1.941 . S
O264 C271 1.266 . S
H265 C267 0.959 . S
H266 C267 0.961 . S
C267 C257 1.510 . S
C267 H265 0.959 . S
C267 H266 0.961 . S
C267 H268 0.960 . S
H268 C267 0.960 . S
H269 N249 0.862 . S
O270 Co238 1.920 . S
O270 C243 1.289 . S
C271 O263 1.258 . S
C271 O264 1.266 . S
Co272 O275 1.970 . S
Co272 N289 1.989 . S
Co272 O297 1.967 . S
Co272 O304 1.920 . S
Co273 O276 1.966 . S
Co273 N282 2.022 . S
Co273 N290 1.993 . S
Co273 O298 1.941 . S
C274 O275 1.258 . S
C274 O276 1.263 . S
O275 Co272 1.970 . S
O275 C274 1.258 . S
O276 Co273 1.966 . S
O276 C274 1.263 . S
C277 O278 1.235 . S
C277 O304 1.289 . S
O278 C277 1.235 . S
C279 C281 1.400 . S
C279 N282 1.351 . S
C279 C284 1.501 . S
C280 C281 1.387 . S
C280 N283 1.341 . S
C281 C279 1.400 . S
C281 C280 1.387 . S
N282 Co273 2.022 . S
N282 C279 1.351 . S
N282 N283 1.365 . S
N283 C280 1.341 . S
N283 N282 1.365 . S
N283 H303 0.862 . S
C284 C279 1.501 . S
C284 H285 0.961 . S
C284 H286 0.961 . S
C284 H287 0.960 . S
H285 C284 0.961 . S
H286 C284 0.961 . S
H287 C284 0.960 . S
C288 N289 1.342 1_545 S
C288 C292 1.401 . S
C288 C293 1.499 . S
N289 Co272 1.989 . S
N289 C288 1.342 1_565 S
N289 N290 1.388 . S
N290 Co273 1.993 . S
N290 N289 1.388 . S
N290 C291 1.346 1_565 S
C291 N290 1.346 1_545 S
C291 C292 1.396 . S
C291 C301 1.510 . S
C292 C288 1.401 . S
C292 C291 1.396 . S
C293 C288 1.499 . S
C293 H294 0.959 . S
C293 H295 0.960 . S
C293 H296 0.961 . S
H294 C293 0.959 . S
H295 C293 0.960 . S
H296 C293 0.961 . S
O297 Co272 1.967 . S
O297 C305 1.258 . S
O298 Co273 1.941 . S
O298 C305 1.266 . S
H299 C301 0.959 . S
H300 C301 0.961 . S
C301 C291 1.510 . S
C301 H299 0.959 . S
C301 H300 0.961 . S
C301 H302 0.960 . S
H302 C301 0.960 . S
H303 N283 0.862 . S
O304 Co272 1.920 . S
O304 C277 1.289 . S
C305 O297 1.258 . S
C305 O298 1.266 . S
Co306 O309 1.970 . S
Co306 N323 1.989 . S
Co306 O331 1.967 . S
Co306 O338 1.920 . S
Co307 O310 1.966 . S
Co307 N316 2.022 . S
Co307 N324 1.993 . S
Co307 O332 1.941 . S
C308 O309 1.258 . S
C308 O310 1.263 . S
O309 Co306 1.970 . S
O309 C308 1.258 . S
O310 Co307 1.966 . S
O310 C308 1.263 . S
C311 O312 1.235 . S
C311 O338 1.289 . S
O312 C311 1.235 . S
C313 C315 1.400 . S
C313 N316 1.351 . S
C313 C318 1.501 . S
C314 C315 1.387 . S
C314 N317 1.341 . S
C315 C313 1.400 . S
C315 C314 1.387 . S
N316 Co307 2.022 . S
N316 C313 1.351 . S
N316 N317 1.365 . S
N317 C314 1.341 . S
N317 N316 1.365 . S
N317 H337 0.862 . S
C318 C313 1.501 . S
C318 H319 0.961 . S
C318 H320 0.961 . S
C318 H321 0.960 . S
H319 C318 0.961 . S
H320 C318 0.961 . S
H321 C318 0.960 . S
C322 N323 1.342 . S
C322 C326 1.401 . S
C322 C327 1.499 . S
N323 Co306 1.989 . S
N323 C322 1.342 . S
N323 N324 1.388 . S
N324 Co307 1.993 . S
N324 N323 1.388 . S
N324 C325 1.346 . S
C325 N324 1.346 . S
C325 C326 1.396 . S
C325 C335 1.510 . S
C326 C322 1.401 . S
C326 C325 1.396 . S
C327 C322 1.499 . S
C327 H328 0.959 . S
C327 H329 0.960 . S
C327 H330 0.961 . S
H328 C327 0.959 . S
H329 C327 0.960 . S
H330 C327 0.961 . S
O331 Co306 1.967 . S
O331 C339 1.258 . S
O332 Co307 1.941 . S
O332 C339 1.266 . S
H333 C335 0.959 . S
H334 C335 0.961 . S
C335 C325 1.510 . S
C335 H333 0.959 . S
C335 H334 0.961 . S
C335 H336 0.960 . S
H336 C335 0.960 . S
H337 N317 0.862 . S
O338 Co306 1.920 . S
O338 C311 1.289 . S
C339 O331 1.258 . S
C339 O332 1.266 . S
Co340 O343 1.970 . S
Co340 N357 1.989 . S
Co340 O365 1.967 . S
Co340 O372 1.920 . S
Co341 O344 1.966 . S
Co341 N350 2.022 . S
Co341 N358 1.993 . S
Co341 O366 1.941 . S
C342 O343 1.258 . S
C342 O344 1.263 . S
O343 Co340 1.970 . S
O343 C342 1.258 . S
O344 Co341 1.966 . S
O344 C342 1.263 . S
C345 O346 1.235 . S
C345 O372 1.289 . S
O346 C345 1.235 . S
C347 C349 1.400 . S
C347 N350 1.351 . S
C347 C352 1.501 . S
C348 C349 1.387 . S
C348 N351 1.341 . S
C349 C347 1.400 . S
C349 C348 1.387 . S
N350 Co341 2.022 . S
N350 C347 1.351 . S
N350 N351 1.365 . S
N351 C348 1.341 . S
N351 N350 1.365 . S
N351 H371 0.862 . S
C352 C347 1.501 . S
C352 H353 0.961 . S
C352 H354 0.961 . S
C352 H355 0.960 . S
H353 C352 0.961 . S
H354 C352 0.961 . S
H355 C352 0.960 . S
C356 N357 1.342 . S
C356 C360 1.401 . S
C356 C361 1.499 . S
N357 Co340 1.989 . S
N357 C356 1.342 . S
N357 N358 1.388 . S
N358 Co341 1.993 . S
N358 N357 1.388 . S
N358 C359 1.346 . S
C359 N358 1.346 . S
C359 C360 1.396 . S
C359 C369 1.510 . S
C360 C356 1.401 . S
C360 C359 1.396 . S
C361 C356 1.499 . S
C361 H362 0.959 . S
C361 H363 0.960 . S
C361 H364 0.961 . S
H362 C361 0.959 . S
H363 C361 0.960 . S
H364 C361 0.961 . S
O365 Co340 1.967 . S
O365 C373 1.258 . S
O366 Co341 1.941 . S
O366 C373 1.266 . S
H367 C369 0.959 . S
H368 C369 0.961 . S
C369 C359 1.510 . S
C369 H367 0.959 . S
C369 H368 0.961 . S
C369 H370 0.960 . S
H370 C369 0.960 . S
H371 N351 0.862 . S
O372 Co340 1.920 . S
O372 C345 1.289 . S
C373 O365 1.258 . S
C373 O366 1.266 . S
Co374 O377 1.970 . S
Co374 N391 1.989 . S
Co374 O399 1.967 . S
Co374 O406 1.920 . S
Co375 O378 1.966 . S
Co375 N384 2.022 . S
Co375 N392 1.993 . S
Co375 O400 1.941 . S
C376 O377 1.258 . S
C376 O378 1.263 . S
O377 Co374 1.970 . S
O377 C376 1.258 . S
O378 Co375 1.966 . S
O378 C376 1.263 . S
C379 O380 1.235 . S
C379 O406 1.289 . S
O380 C379 1.235 . S
C381 C383 1.400 . S
C381 N384 1.351 . S
C381 C386 1.501 . S
C382 C383 1.387 . S
C382 N385 1.341 . S
C383 C381 1.400 . S
C383 C382 1.387 . S
N384 Co375 2.022 . S
N384 C381 1.351 . S
N384 N385 1.365 . S
N385 C382 1.341 . S
N385 N384 1.365 . S
N385 H405 0.862 . S
C386 C381 1.501 . S
C386 H387 0.961 . S
C386 H388 0.961 . S
C386 H389 0.960 . S
H387 C386 0.961 . S
H388 C386 0.961 . S
H389 C386 0.960 . S
C390 N391 1.342 1_545 S
C390 C394 1.401 . S
C390 C395 1.499 . S
N391 Co374 1.989 . S
N391 C390 1.342 1_565 S
N391 N392 1.388 . S
N392 Co375 1.993 . S
N392 N391 1.388 . S
N392 C393 1.346 1_565 S
C393 N392 1.346 1_545 S
C393 C394 1.396 . S
C393 C403 1.510 . S
C394 C390 1.401 . S
C394 C393 1.396 . S
C395 C390 1.499 . S
C395 H396 0.959 . S
C395 H397 0.960 . S
C395 H398 0.961 . S
H396 C395 0.959 . S
H397 C395 0.960 . S
H398 C395 0.961 . S
O399 Co374 1.967 . S
O399 C407 1.258 . S
O400 Co375 1.941 . S
O400 C407 1.266 . S
H401 C403 0.959 . S
H402 C403 0.961 . S
C403 C393 1.510 . S
C403 H401 0.959 . S
C403 H402 0.961 . S
C403 H404 0.960 . S
H404 C403 0.960 . S
H405 N385 0.862 . S
O406 Co374 1.920 . S
O406 C379 1.289 . S
C407 O399 1.258 . S
C407 O400 1.266 . S
Co408 O411 1.970 . S
Co408 N425 1.989 . S
Co408 O433 1.967 . S
Co408 O440 1.920 . S
Co409 O412 1.966 . S
Co409 N418 2.022 . S
Co409 N426 1.993 . S
Co409 O434 1.941 . S
C410 O411 1.258 . S
C410 O412 1.263 . S
O411 Co408 1.970 . S
O411 C410 1.258 . S
O412 Co409 1.966 . S
O412 C410 1.263 . S
C413 O414 1.235 . S
C413 O440 1.289 . S
O414 C413 1.235 . S
C415 C417 1.400 . S
C415 N418 1.351 . S
C415 C420 1.501 . S
C416 C417 1.387 . S
C416 N419 1.341 . S
C417 C415 1.400 . S
C417 C416 1.387 . S
N418 Co409 2.022 . S
N418 C415 1.351 . S
N418 N419 1.365 . S
N419 C416 1.341 . S
N419 N418 1.365 . S
N419 H439 0.862 . S
C420 C415 1.501 . S
C420 H421 0.961 . S
C420 H422 0.961 . S
C420 H423 0.960 . S
H421 C420 0.961 . S
H422 C420 0.961 . S
H423 C420 0.960 . S
C424 N425 1.342 1_565 S
C424 C428 1.401 . S
C424 C429 1.499 . S
N425 Co408 1.989 . S
N425 C424 1.342 1_545 S
N425 N426 1.388 . S
N426 Co409 1.993 . S
N426 N425 1.388 . S
N426 C427 1.346 1_545 S
C427 N426 1.346 1_565 S
C427 C428 1.396 . S
C427 C437 1.510 . S
C428 C424 1.401 . S
C428 C427 1.396 . S
C429 C424 1.499 . S
C429 H430 0.959 . S
C429 H431 0.960 . S
C429 H432 0.961 . S
H430 C429 0.959 . S
H431 C429 0.960 . S
H432 C429 0.961 . S
O433 Co408 1.967 . S
O433 C441 1.258 . S
O434 Co409 1.941 . S
O434 C441 1.266 . S
H435 C437 0.959 . S
H436 C437 0.961 . S
C437 C427 1.510 . S
C437 H435 0.959 . S
C437 H436 0.961 . S
C437 H438 0.960 . S
H438 C437 0.960 . S
H439 N419 0.862 . S
O440 Co408 1.920 . S
O440 C413 1.289 . S
C441 O433 1.258 . S
C441 O434 1.266 . S
Co442 O445 1.970 . S
Co442 N459 1.989 . S
Co442 O467 1.967 . S
Co442 O474 1.920 . S
Co443 O446 1.966 . S
Co443 N452 2.022 . S
Co443 N460 1.993 . S
Co443 O468 1.941 . S
C444 O445 1.258 . S
C444 O446 1.263 . S
O445 Co442 1.970 . S
O445 C444 1.258 . S
O446 Co443 1.966 . S
O446 C444 1.263 . S
C447 O448 1.235 . S
C447 O474 1.289 . S
O448 C447 1.235 . S
C449 C451 1.400 . S
C449 N452 1.351 . S
C449 C454 1.501 . S
C450 C451 1.387 . S
C450 N453 1.341 . S
C451 C449 1.400 . S
C451 C450 1.387 . S
N452 Co443 2.022 . S
N452 C449 1.351 . S
N452 N453 1.365 . S
N453 C450 1.341 . S
N453 N452 1.365 . S
N453 H473 0.862 . S
C454 C449 1.501 . S
C454 H455 0.961 . S
C454 H456 0.961 . S
C454 H457 0.960 . S
H455 C454 0.961 . S
H456 C454 0.961 . S
H457 C454 0.960 . S
C458 N459 1.342 . S
C458 C462 1.401 . S
C458 C463 1.499 . S
N459 Co442 1.989 . S
N459 C458 1.342 . S
N459 N460 1.388 . S
N460 Co443 1.993 . S
N460 N459 1.388 . S
N460 C461 1.346 . S
C461 N460 1.346 . S
C461 C462 1.396 . S
C461 C471 1.510 . S
C462 C458 1.401 . S
C462 C461 1.396 . S
C463 C458 1.499 . S
C463 H464 0.959 . S
C463 H465 0.960 . S
C463 H466 0.961 . S
H464 C463 0.959 . S
H465 C463 0.960 . S
H466 C463 0.961 . S
O467 Co442 1.967 . S
O467 C475 1.258 . S
O468 Co443 1.941 . S
O468 C475 1.266 . S
H469 C471 0.959 . S
H470 C471 0.961 . S
C471 C461 1.510 . S
C471 H469 0.959 . S
C471 H470 0.961 . S
C471 H472 0.960 . S
H472 C471 0.960 . S
H473 N453 0.862 . S
O474 Co442 1.920 . S
O474 C447 1.289 . S
C475 O467 1.258 . S
C475 O468 1.266 . S
Co476 O479 1.970 . S
Co476 N493 1.989 . S
Co476 O501 1.967 . S
Co476 O508 1.920 . S
Co477 O480 1.966 . S
Co477 N486 2.022 . S
Co477 N494 1.993 . S
Co477 O502 1.941 . S
C478 O479 1.258 . S
C478 O480 1.263 . S
O479 Co476 1.970 . S
O479 C478 1.258 . S
O480 Co477 1.966 . S
O480 C478 1.263 . S
C481 O482 1.235 . S
C481 O508 1.289 . S
O482 C481 1.235 . S
C483 C485 1.400 . S
C483 N486 1.351 . S
C483 C488 1.501 . S
C484 C485 1.387 . S
C484 N487 1.341 . S
C485 C483 1.400 . S
C485 C484 1.387 . S
N486 Co477 2.022 . S
N486 C483 1.351 . S
N486 N487 1.365 . S
N487 C484 1.341 . S
N487 N486 1.365 . S
N487 H507 0.862 . S
C488 C483 1.501 . S
C488 H489 0.961 . S
C488 H490 0.961 . S
C488 H491 0.960 . S
H489 C488 0.961 . S
H490 C488 0.961 . S
H491 C488 0.960 . S
C492 N493 1.342 . S
C492 C496 1.401 . S
C492 C497 1.499 . S
N493 Co476 1.989 . S
N493 C492 1.342 . S
N493 N494 1.388 . S
N494 Co477 1.993 . S
N494 N493 1.388 . S
N494 C495 1.346 . S
C495 N494 1.346 . S
C495 C496 1.396 . S
C495 C505 1.510 . S
C496 C492 1.401 . S
C496 C495 1.396 . S
C497 C492 1.499 . S
C497 H498 0.959 . S
C497 H499 0.960 . S
C497 H500 0.961 . S
H498 C497 0.959 . S
H499 C497 0.960 . S
H500 C497 0.961 . S
O501 Co476 1.967 . S
O501 C509 1.258 . S
O502 Co477 1.941 . S
O502 C509 1.266 . S
H503 C505 0.959 . S
H504 C505 0.961 . S
C505 C495 1.510 . S
C505 H503 0.959 . S
C505 H504 0.961 . S
C505 H506 0.960 . S
H506 C505 0.960 . S
H507 N487 0.862 . S
O508 Co476 1.920 . S
O508 C481 1.289 . S
C509 O501 1.258 . S
C509 O502 1.266 . S
Co510 O513 1.970 . S
Co510 N527 1.989 . S
Co510 O535 1.967 . S
Co510 O542 1.920 . S
Co511 O514 1.966 . S
Co511 N520 2.022 . S
Co511 N528 1.993 . S
Co511 O536 1.941 . S
C512 O513 1.258 . S
C512 O514 1.263 . S
O513 Co510 1.970 . S
O513 C512 1.258 . S
O514 Co511 1.966 . S
O514 C512 1.263 . S
C515 O516 1.235 . S
C515 O542 1.289 . S
O516 C515 1.235 . S
C517 C519 1.400 . S
C517 N520 1.351 . S
C517 C522 1.501 . S
C518 C519 1.387 . S
C518 N521 1.341 . S
C519 C517 1.400 . S
C519 C518 1.387 . S
N520 Co511 2.022 . S
N520 C517 1.351 . S
N520 N521 1.365 . S
N521 C518 1.341 . S
N521 N520 1.365 . S
N521 H541 0.862 . S
C522 C517 1.501 . S
C522 H523 0.961 . S
C522 H524 0.961 . S
C522 H525 0.960 . S
H523 C522 0.961 . S
H524 C522 0.961 . S
H525 C522 0.960 . S
C526 N527 1.342 1_565 S
C526 C530 1.401 . S
C526 C531 1.499 . S
N527 Co510 1.989 . S
N527 C526 1.342 1_545 S
N527 N528 1.388 . S
N528 Co511 1.993 . S
N528 N527 1.388 . S
N528 C529 1.346 1_545 S
C529 N528 1.346 1_565 S
C529 C530 1.396 . S
C529 C539 1.510 . S
C530 C526 1.401 . S
C530 C529 1.396 . S
C531 C526 1.499 . S
C531 H532 0.959 . S
C531 H533 0.960 . S
C531 H534 0.961 . S
H532 C531 0.959 . S
H533 C531 0.960 . S
H534 C531 0.961 . S
O535 Co510 1.967 . S
O535 C543 1.258 . S
O536 Co511 1.941 . S
O536 C543 1.266 . S
H537 C539 0.959 . S
H538 C539 0.961 . S
C539 C529 1.510 . S
C539 H537 0.959 . S
C539 H538 0.961 . S
C539 H540 0.960 . S
H540 C539 0.960 . S
H541 N521 0.862 . S
O542 Co510 1.920 . S
O542 C515 1.289 . S
C543 O535 1.258 . S
C543 O536 1.266 . S
Co544 O547 1.970 . S
Co544 N561 1.989 . S
Co544 O569 1.967 . S
Co544 O576 1.920 . S
Co545 O548 1.966 . S
Co545 N554 2.022 . S
Co545 N562 1.993 . S
Co545 O570 1.941 . S
C546 O547 1.258 . S
C546 O548 1.263 . S
O547 Co544 1.970 . S
O547 C546 1.258 . S
O548 Co545 1.966 . S
O548 C546 1.263 . S
C549 O550 1.235 . S
C549 O576 1.289 . S
O550 C549 1.235 . S
C551 C553 1.400 . S
C551 N554 1.351 . S
C551 C556 1.501 . S
C552 C553 1.387 . S
C552 N555 1.341 . S
C553 C551 1.400 . S
C553 C552 1.387 . S
N554 Co545 2.022 . S
N554 C551 1.351 . S
N554 N555 1.365 . S
N555 C552 1.341 . S
N555 N554 1.365 . S
N555 H575 0.862 . S
C556 C551 1.501 . S
C556 H557 0.961 . S
C556 H558 0.961 . S
C556 H559 0.960 . S
H557 C556 0.961 . S
H558 C556 0.961 . S
H559 C556 0.960 . S
C560 N561 1.342 . S
C560 C564 1.401 . S
C560 C565 1.499 . S
N561 Co544 1.989 . S
N561 C560 1.342 . S
N561 N562 1.388 . S
N562 Co545 1.993 . S
N562 N561 1.388 . S
N562 C563 1.346 . S
C563 N562 1.346 . S
C563 C564 1.396 . S
C563 C573 1.510 . S
C564 C560 1.401 . S
C564 C563 1.396 . S
C565 C560 1.499 . S
C565 H566 0.959 . S
C565 H567 0.960 . S
C565 H568 0.961 . S
H566 C565 0.959 . S
H567 C565 0.960 . S
H568 C565 0.961 . S
O569 Co544 1.967 . S
O569 C577 1.258 . S
O570 Co545 1.941 . S
O570 C577 1.266 . S
H571 C573 0.959 . S
H572 C573 0.961 . S
C573 C563 1.510 . S
C573 H571 0.959 . S
C573 H572 0.961 . S
C573 H574 0.960 . S
H574 C573 0.960 . S
H575 N555 0.862 . S
O576 Co544 1.920 . S
O576 C549 1.289 . S
C577 O569 1.258 . S
C577 O570 1.266 . S
Co578 O581 1.970 . S
Co578 N595 1.989 . S
Co578 O603 1.967 . S
Co578 O610 1.920 . S
Co579 O582 1.966 . S
Co579 N588 2.022 . S
Co579 N596 1.993 . S
Co579 O604 1.941 . S
C580 O581 1.258 . S
C580 O582 1.263 . S
O581 Co578 1.970 . S
O581 C580 1.258 . S
O582 Co579 1.966 . S
O582 C580 1.263 . S
C583 O584 1.235 . S
C583 O610 1.289 . S
O584 C583 1.235 . S
C585 C587 1.400 . S
C585 N588 1.351 . S
C585 C590 1.501 . S
C586 C587 1.387 . S
C586 N589 1.341 . S
C587 C585 1.400 . S
C587 C586 1.387 . S
N588 Co579 2.022 . S
N588 C585 1.351 . S
N588 N589 1.365 . S
N589 C586 1.341 . S
N589 N588 1.365 . S
N589 H609 0.862 . S
C590 C585 1.501 . S
C590 H591 0.961 . S
C590 H592 0.961 . S
C590 H593 0.960 . S
H591 C590 0.961 . S
H592 C590 0.961 . S
H593 C590 0.960 . S
C594 N595 1.342 . S
C594 C598 1.401 . S
C594 C599 1.499 . S
N595 Co578 1.989 . S
N595 C594 1.342 . S
N595 N596 1.388 . S
N596 Co579 1.993 . S
N596 N595 1.388 . S
N596 C597 1.346 . S
C597 N596 1.346 . S
C597 C598 1.396 . S
C597 C607 1.510 . S
C598 C594 1.401 . S
C598 C597 1.396 . S
C599 C594 1.499 . S
C599 H600 0.959 . S
C599 H601 0.960 . S
C599 H602 0.961 . S
H600 C599 0.959 . S
H601 C599 0.960 . S
H602 C599 0.961 . S
O603 Co578 1.967 . S
O603 C611 1.258 . S
O604 Co579 1.941 . S
O604 C611 1.266 . S
H605 C607 0.959 . S
H606 C607 0.961 . S
C607 C597 1.510 . S
C607 H605 0.959 . S
C607 H606 0.961 . S
C607 H608 0.960 . S
H608 C607 0.960 . S
H609 N589 0.862 . S
O610 Co578 1.920 . S
O610 C583 1.289 . S
C611 O603 1.258 . S
C611 O604 1.266 . S
Co612 O615 1.970 . S
Co612 N629 1.989 . S
Co612 O637 1.967 . S
Co612 O644 1.920 . S
Co613 O616 1.966 . S
Co613 N622 2.022 . S
Co613 N630 1.993 . S
Co613 O638 1.941 . S
C614 O615 1.258 . S
C614 O616 1.263 . S
O615 Co612 1.970 . S
O615 C614 1.258 . S
O616 Co613 1.966 . S
O616 C614 1.263 . S
C617 O618 1.235 . S
C617 O644 1.289 . S
O618 C617 1.235 . S
C619 C621 1.400 . S
C619 N622 1.351 . S
C619 C624 1.501 . S
C620 C621 1.387 . S
C620 N623 1.341 . S
C621 C619 1.400 . S
C621 C620 1.387 . S
N622 Co613 2.022 . S
N622 C619 1.351 . S
N622 N623 1.365 . S
N623 C620 1.341 . S
N623 N622 1.365 . S
N623 H643 0.862 . S
C624 C619 1.501 . S
C624 H625 0.961 . S
C624 H626 0.961 . S
C624 H627 0.960 . S
H625 C624 0.961 . S
H626 C624 0.961 . S
H627 C624 0.960 . S
C628 N629 1.342 . S
C628 C632 1.401 . S
C628 C633 1.499 . S
N629 Co612 1.989 . S
N629 C628 1.342 . S
N629 N630 1.388 . S
N630 Co613 1.993 . S
N630 N629 1.388 . S
N630 C631 1.346 . S
C631 N630 1.346 . S
C631 C632 1.396 . S
C631 C641 1.510 . S
C632 C628 1.401 . S
C632 C631 1.396 . S
C633 C628 1.499 . S
C633 H634 0.959 . S
C633 H635 0.960 . S
C633 H636 0.961 . S
H634 C633 0.959 . S
H635 C633 0.960 . S
H636 C633 0.961 . S
O637 Co612 1.967 . S
O637 C645 1.258 . S
O638 Co613 1.941 . S
O638 C645 1.266 . S
H639 C641 0.959 . S
H640 C641 0.961 . S
C641 C631 1.510 . S
C641 H639 0.959 . S
C641 H640 0.961 . S
C641 H642 0.960 . S
H642 C641 0.960 . S
H643 N623 0.862 . S
O644 Co612 1.920 . S
O644 C617 1.289 . S
C645 O637 1.258 . S
C645 O638 1.266 . S
Co646 O649 1.970 . S
Co646 N663 1.989 . S
Co646 O671 1.967 . S
Co646 O678 1.920 . S
Co647 O650 1.966 . S
Co647 N656 2.022 . S
Co647 N664 1.993 . S
Co647 O672 1.941 . S
C648 O649 1.258 . S
C648 O650 1.263 . S
O649 Co646 1.970 . S
O649 C648 1.258 . S
O650 Co647 1.966 . S
O650 C648 1.263 . S
C651 O652 1.235 . S
C651 O678 1.289 . S
O652 C651 1.235 . S
C653 C655 1.400 . S
C653 N656 1.351 . S
C653 C658 1.501 . S
C654 C655 1.387 . S
C654 N657 1.341 . S
C655 C653 1.400 . S
C655 C654 1.387 . S
N656 Co647 2.022 . S
N656 C653 1.351 . S
N656 N657 1.365 . S
N657 C654 1.341 . S
N657 N656 1.365 . S
N657 H677 0.862 . S
C658 C653 1.501 . S
C658 H659 0.961 . S
C658 H660 0.961 . S
C658 H661 0.960 . S
H659 C658 0.961 . S
H660 C658 0.961 . S
H661 C658 0.960 . S
C662 N663 1.342 . S
C662 C666 1.401 . S
C662 C667 1.499 . S
N663 Co646 1.989 . S
N663 C662 1.342 . S
N663 N664 1.388 . S
N664 Co647 1.993 . S
N664 N663 1.388 . S
N664 C665 1.346 . S
C665 N664 1.346 . S
C665 C666 1.396 . S
C665 C675 1.510 . S
C666 C662 1.401 . S
C666 C665 1.396 . S
C667 C662 1.499 . S
C667 H668 0.959 . S
C667 H669 0.960 . S
C667 H670 0.961 . S
H668 C667 0.959 . S
H669 C667 0.960 . S
H670 C667 0.961 . S
O671 Co646 1.967 . S
O671 C679 1.258 . S
O672 Co647 1.941 . S
O672 C679 1.266 . S
H673 C675 0.959 . S
H674 C675 0.961 . S
C675 C665 1.510 . S
C675 H673 0.959 . S
C675 H674 0.961 . S
C675 H676 0.960 . S
H676 C675 0.960 . S
H677 N657 0.862 . S
O678 Co646 1.920 . S
O678 C651 1.289 . S
C679 O671 1.258 . S
C679 O672 1.266 . S
Co680 O683 1.970 . S
Co680 N697 1.989 . S
Co680 O705 1.967 . S
Co680 O712 1.920 . S
Co681 O684 1.966 . S
Co681 N690 2.022 . S
Co681 N698 1.993 . S
Co681 O706 1.941 . S
C682 O683 1.258 . S
C682 O684 1.263 . S
O683 Co680 1.970 . S
O683 C682 1.258 . S
O684 Co681 1.966 . S
O684 C682 1.263 . S
C685 O686 1.235 . S
C685 O712 1.289 . S
O686 C685 1.235 . S
C687 C689 1.400 . S
C687 N690 1.351 . S
C687 C692 1.501 . S
C688 C689 1.387 . S
C688 N691 1.341 . S
C689 C687 1.400 . S
C689 C688 1.387 . S
N690 Co681 2.022 . S
N690 C687 1.351 . S
N690 N691 1.365 . S
N691 C688 1.341 . S
N691 N690 1.365 . S
N691 H711 0.862 . S
C692 C687 1.501 . S
C692 H693 0.961 . S
C692 H694 0.961 . S
C692 H695 0.960 . S
H693 C692 0.961 . S
H694 C692 0.961 . S
H695 C692 0.960 . S
C696 N697 1.342 . S
C696 C700 1.401 . S
C696 C701 1.499 . S
N697 Co680 1.989 . S
N697 C696 1.342 . S
N697 N698 1.388 . S
N698 Co681 1.993 . S
N698 N697 1.388 . S
N698 C699 1.346 . S
C699 N698 1.346 . S
C699 C700 1.396 . S
C699 C709 1.510 . S
C700 C696 1.401 . S
C700 C699 1.396 . S
C701 C696 1.499 . S
C701 H702 0.959 . S
C701 H703 0.960 . S
C701 H704 0.961 . S
H702 C701 0.959 . S
H703 C701 0.960 . S
H704 C701 0.961 . S
O705 Co680 1.967 . S
O705 C713 1.258 . S
O706 Co681 1.941 . S
O706 C713 1.266 . S
H707 C709 0.959 . S
H708 C709 0.961 . S
C709 C699 1.510 . S
C709 H707 0.959 . S
C709 H708 0.961 . S
C709 H710 0.960 . S
H710 C709 0.960 . S
H711 N691 0.862 . S
O712 Co680 1.920 . S
O712 C685 1.289 . S
C713 O705 1.258 . S
C713 O706 1.266 . S
Co714 O717 1.970 . S
Co714 N731 1.989 . S
Co714 O739 1.967 . S
Co714 O746 1.920 . S
Co715 O718 1.966 . S
Co715 N724 2.022 . S
Co715 N732 1.993 . S
Co715 O740 1.941 . S
C716 O717 1.258 . S
C716 O718 1.263 . S
O717 Co714 1.970 . S
O717 C716 1.258 . S
O718 Co715 1.966 . S
O718 C716 1.263 . S
C719 O720 1.235 . S
C719 O746 1.289 . S
O720 C719 1.235 . S
C721 C723 1.400 . S
C721 N724 1.351 . S
C721 C726 1.501 . S
C722 C723 1.387 . S
C722 N725 1.341 . S
C723 C721 1.400 . S
C723 C722 1.387 . S
N724 Co715 2.022 . S
N724 C721 1.351 . S
N724 N725 1.365 . S
N725 C722 1.341 . S
N725 N724 1.365 . S
N725 H745 0.862 . S
C726 C721 1.501 . S
C726 H727 0.961 . S
C726 H728 0.961 . S
C726 H729 0.960 . S
H727 C726 0.961 . S
H728 C726 0.961 . S
H729 C726 0.960 . S
C730 N731 1.342 . S
C730 C734 1.401 . S
C730 C735 1.499 . S
N731 Co714 1.989 . S
N731 C730 1.342 . S
N731 N732 1.388 . S
N732 Co715 1.993 . S
N732 N731 1.388 . S
N732 C733 1.346 . S
C733 N732 1.346 . S
C733 C734 1.396 . S
C733 C743 1.510 . S
C734 C730 1.401 . S
C734 C733 1.396 . S
C735 C730 1.499 . S
C735 H736 0.959 . S
C735 H737 0.960 . S
C735 H738 0.961 . S
H736 C735 0.959 . S
H737 C735 0.960 . S
H738 C735 0.961 . S
O739 Co714 1.967 . S
O739 C747 1.258 . S
O740 Co715 1.941 . S
O740 C747 1.266 . S
H741 C743 0.959 . S
H742 C743 0.961 . S
C743 C733 1.510 . S
C743 H741 0.959 . S
C743 H742 0.961 . S
C743 H744 0.960 . S
H744 C743 0.960 . S
H745 N725 0.862 . S
O746 Co714 1.920 . S
O746 C719 1.289 . S
C747 O739 1.258 . S
C747 O740 1.266 . S
Co748 O751 1.970 . S
Co748 N765 1.989 . S
Co748 O773 1.967 . S
Co748 O780 1.920 . S
Co749 O752 1.966 . S
Co749 N758 2.022 . S
Co749 N766 1.993 . S
Co749 O774 1.941 . S
C750 O751 1.258 . S
C750 O752 1.263 . S
O751 Co748 1.970 . S
O751 C750 1.258 . S
O752 Co749 1.966 . S
O752 C750 1.263 . S
C753 O754 1.235 . S
C753 O780 1.289 . S
O754 C753 1.235 . S
C755 C757 1.400 . S
C755 N758 1.351 . S
C755 C760 1.501 . S
C756 C757 1.387 . S
C756 N759 1.341 . S
C757 C755 1.400 . S
C757 C756 1.387 . S
N758 Co749 2.022 . S
N758 C755 1.351 . S
N758 N759 1.365 . S
N759 C756 1.341 . S
N759 N758 1.365 . S
N759 H779 0.862 . S
C760 C755 1.501 . S
C760 H761 0.961 . S
C760 H762 0.961 . S
C760 H763 0.960 . S
H761 C760 0.961 . S
H762 C760 0.961 . S
H763 C760 0.960 . S
C764 N765 1.342 . S
C764 C768 1.401 . S
C764 C769 1.499 . S
N765 Co748 1.989 . S
N765 C764 1.342 . S
N765 N766 1.388 . S
N766 Co749 1.993 . S
N766 N765 1.388 . S
N766 C767 1.346 . S
C767 N766 1.346 . S
C767 C768 1.396 . S
C767 C777 1.510 . S
C768 C764 1.401 . S
C768 C767 1.396 . S
C769 C764 1.499 . S
C769 H770 0.959 . S
C769 H771 0.960 . S
C769 H772 0.961 . S
H770 C769 0.959 . S
H771 C769 0.960 . S
H772 C769 0.961 . S
O773 Co748 1.967 . S
O773 C781 1.258 . S
O774 Co749 1.941 . S
O774 C781 1.266 . S
H775 C777 0.959 . S
H776 C777 0.961 . S
C777 C767 1.510 . S
C777 H775 0.959 . S
C777 H776 0.961 . S
C777 H778 0.960 . S
H778 C777 0.960 . S
H779 N759 0.862 . S
O780 Co748 1.920 . S
O780 C753 1.289 . S
C781 O773 1.258 . S
C781 O774 1.266 . S
Co782 O785 1.970 . S
Co782 N799 1.989 . S
Co782 O807 1.967 . S
Co782 O814 1.920 . S
Co783 O786 1.966 . S
Co783 N792 2.022 . S
Co783 N800 1.993 . S
Co783 O808 1.941 . S
C784 O785 1.258 . S
C784 O786 1.263 . S
O785 Co782 1.970 . S
O785 C784 1.258 . S
O786 Co783 1.966 . S
O786 C784 1.263 . S
C787 O788 1.235 . S
C787 O814 1.289 . S
O788 C787 1.235 . S
C789 C791 1.400 . S
C789 N792 1.351 . S
C789 C794 1.501 . S
C790 C791 1.387 . S
C790 N793 1.341 . S
C791 C789 1.400 . S
C791 C790 1.387 . S
N792 Co783 2.022 . S
N792 C789 1.351 . S
N792 N793 1.365 . S
N793 C790 1.341 . S
N793 N792 1.365 . S
N793 H813 0.862 . S
C794 C789 1.501 . S
C794 H795 0.961 . S
C794 H796 0.961 . S
C794 H797 0.960 . S
H795 C794 0.961 . S
H796 C794 0.961 . S
H797 C794 0.960 . S
C798 N799 1.342 . S
C798 C802 1.401 . S
C798 C803 1.499 . S
N799 Co782 1.989 . S
N799 C798 1.342 . S
N799 N800 1.388 . S
N800 Co783 1.993 . S
N800 N799 1.388 . S
N800 C801 1.346 . S
C801 N800 1.346 . S
C801 C802 1.396 . S
C801 C811 1.510 . S
C802 C798 1.401 . S
C802 C801 1.396 . S
C803 C798 1.499 . S
C803 H804 0.959 . S
C803 H805 0.960 . S
C803 H806 0.961 . S
H804 C803 0.959 . S
H805 C803 0.960 . S
H806 C803 0.961 . S
O807 Co782 1.967 . S
O807 C815 1.258 . S
O808 Co783 1.941 . S
O808 C815 1.266 . S
H809 C811 0.959 . S
H810 C811 0.961 . S
C811 C801 1.510 . S
C811 H809 0.959 . S
C811 H810 0.961 . S
C811 H812 0.960 . S
H812 C811 0.960 . S
H813 N793 0.862 . S
O814 Co782 1.920 . S
O814 C787 1.289 . S
C815 O807 1.258 . S
C815 O808 1.266 . S
Co816 O819 1.970 . S
Co816 N833 1.989 . S
Co816 O841 1.967 . S
Co816 O848 1.920 . S
Co817 O820 1.966 . S
Co817 N826 2.022 . S
Co817 N834 1.993 . S
Co817 O842 1.941 . S
C818 O819 1.258 . S
C818 O820 1.263 . S
O819 Co816 1.970 . S
O819 C818 1.258 . S
O820 Co817 1.966 . S
O820 C818 1.263 . S
C821 O822 1.235 . S
C821 O848 1.289 . S
O822 C821 1.235 . S
C823 C825 1.400 . S
C823 N826 1.351 . S
C823 C828 1.501 1_554 S
C824 C825 1.387 . S
C824 N827 1.341 . S
C825 C823 1.400 . S
C825 C824 1.387 . S
N826 Co817 2.022 . S
N826 C823 1.351 . S
N826 N827 1.365 . S
N827 C824 1.341 . S
N827 N826 1.365 . S
N827 H847 0.862 . S
C828 C823 1.501 1_556 S
C828 H829 0.961 . S
C828 H830 0.961 . S
C828 H831 0.960 . S
H829 C828 0.961 . S
H830 C828 0.961 . S
H831 C828 0.960 . S
C832 N833 1.342 1_545 S
C832 C836 1.401 . S
C832 C837 1.499 . S
N833 Co816 1.989 . S
N833 C832 1.342 1_565 S
N833 N834 1.388 . S
N834 Co817 1.993 . S
N834 N833 1.388 . S
N834 C835 1.346 1_565 S
C835 N834 1.346 1_545 S
C835 C836 1.396 . S
C835 C845 1.510 . S
C836 C832 1.401 . S
C836 C835 1.396 . S
C837 C832 1.499 . S
C837 H838 0.959 . S
C837 H839 0.960 . S
C837 H840 0.961 . S
H838 C837 0.959 . S
H839 C837 0.960 . S
H840 C837 0.961 . S
O841 Co816 1.967 . S
O841 C849 1.258 . S
O842 Co817 1.941 . S
O842 C849 1.266 . S
H843 C845 0.959 . S
H844 C845 0.961 . S
C845 C835 1.510 . S
C845 H843 0.959 . S
C845 H844 0.961 . S
C845 H846 0.960 . S
H846 C845 0.960 . S
H847 N827 0.862 . S
O848 Co816 1.920 . S
O848 C821 1.289 . S
C849 O841 1.258 . S
C849 O842 1.266 . S
Co850 O853 1.970 . S
Co850 N867 1.989 . S
Co850 O875 1.967 . S
Co850 O882 1.920 . S
Co851 O854 1.966 . S
Co851 N860 2.022 . S
Co851 N868 1.993 . S
Co851 O876 1.941 . S
C852 O853 1.258 . S
C852 O854 1.263 . S
O853 Co850 1.970 . S
O853 C852 1.258 . S
O854 Co851 1.966 . S
O854 C852 1.263 . S
C855 O856 1.235 . S
C855 O882 1.289 . S
O856 C855 1.235 . S
C857 C859 1.400 . S
C857 N860 1.351 . S
C857 C862 1.501 1_554 S
C858 C859 1.387 . S
C858 N861 1.341 . S
C859 C857 1.400 . S
C859 C858 1.387 . S
N860 Co851 2.022 . S
N860 C857 1.351 . S
N860 N861 1.365 . S
N861 C858 1.341 . S
N861 N860 1.365 . S
N861 H881 0.862 . S
C862 C857 1.501 1_556 S
C862 H863 0.961 . S
C862 H864 0.961 . S
C862 H865 0.960 . S
H863 C862 0.961 . S
H864 C862 0.961 . S
H865 C862 0.960 . S
C866 N867 1.342 . S
C866 C870 1.401 . S
C866 C871 1.499 . S
N867 Co850 1.989 . S
N867 C866 1.342 . S
N867 N868 1.388 . S
N868 Co851 1.993 . S
N868 N867 1.388 . S
N868 C869 1.346 . S
C869 N868 1.346 . S
C869 C870 1.396 . S
C869 C879 1.510 . S
C870 C866 1.401 . S
C870 C869 1.396 . S
C871 C866 1.499 . S
C871 H872 0.959 . S
C871 H873 0.960 . S
C871 H874 0.961 . S
H872 C871 0.959 . S
H873 C871 0.960 . S
H874 C871 0.961 . S
O875 Co850 1.967 . S
O875 C883 1.258 . S
O876 Co851 1.941 . S
O876 C883 1.266 . S
H877 C879 0.959 . S
H878 C879 0.961 . S
C879 C869 1.510 . S
C879 H877 0.959 . S
C879 H878 0.961 . S
C879 H880 0.960 . S
H880 C879 0.960 . S
H881 N861 0.862 . S
O882 Co850 1.920 . S
O882 C855 1.289 . S
C883 O875 1.258 . S
C883 O876 1.266 . S
Co884 O887 1.970 . S
Co884 N901 1.989 . S
Co884 O909 1.967 . S
Co884 O916 1.920 . S
Co885 O888 1.966 . S
Co885 N894 2.022 . S
Co885 N902 1.993 . S
Co885 O910 1.941 . S
C886 O887 1.258 . S
C886 O888 1.263 . S
O887 Co884 1.970 . S
O887 C886 1.258 . S
O888 Co885 1.966 . S
O888 C886 1.263 . S
C889 O890 1.235 . S
C889 O916 1.289 . S
O890 C889 1.235 . S
C891 C893 1.400 . S
C891 N894 1.351 . S
C891 C896 1.501 . S
C892 C893 1.387 . S
C892 N895 1.341 . S
C893 C891 1.400 . S
C893 C892 1.387 . S
N894 Co885 2.022 . S
N894 C891 1.351 . S
N894 N895 1.365 . S
N895 C892 1.341 . S
N895 N894 1.365 . S
N895 H915 0.862 . S
C896 C891 1.501 . S
C896 H897 0.961 . S
C896 H898 0.961 . S
C896 H899 0.960 . S
H897 C896 0.961 . S
H898 C896 0.961 . S
H899 C896 0.960 . S
C900 N901 1.342 . S
C900 C904 1.401 . S
C900 C905 1.499 . S
N901 Co884 1.989 . S
N901 C900 1.342 . S
N901 N902 1.388 . S
N902 Co885 1.993 . S
N902 N901 1.388 . S
N902 C903 1.346 . S
C903 N902 1.346 . S
C903 C904 1.396 . S
C903 C913 1.510 . S
C904 C900 1.401 . S
C904 C903 1.396 . S
C905 C900 1.499 . S
C905 H906 0.959 . S
C905 H907 0.960 . S
C905 H908 0.961 . S
H906 C905 0.959 . S
H907 C905 0.960 . S
H908 C905 0.961 . S
O909 Co884 1.967 . S
O909 C917 1.258 . S
O910 Co885 1.941 . S
O910 C917 1.266 . S
H911 C913 0.959 . S
H912 C913 0.961 . S
C913 C903 1.510 . S
C913 H911 0.959 . S
C913 H912 0.961 . S
C913 H914 0.960 . S
H914 C913 0.960 . S
H915 N895 0.862 . S
O916 Co884 1.920 . S
O916 C889 1.289 . S
C917 O909 1.258 . S
C917 O910 1.266 . S
Co918 O921 1.970 . S
Co918 N935 1.989 . S
Co918 O943 1.967 . S
Co918 O950 1.920 . S
Co919 O922 1.966 . S
Co919 N928 2.022 . S
Co919 N936 1.993 . S
Co919 O944 1.941 . S
C920 O921 1.258 . S
C920 O922 1.263 . S
O921 Co918 1.970 . S
O921 C920 1.258 . S
O922 Co919 1.966 . S
O922 C920 1.263 . S
C923 O924 1.235 . S
C923 O950 1.289 . S
O924 C923 1.235 . S
C925 C927 1.400 . S
C925 N928 1.351 . S
C925 C930 1.501 . S
C926 C927 1.387 . S
C926 N929 1.341 . S
C927 C925 1.400 . S
C927 C926 1.387 . S
N928 Co919 2.022 . S
N928 C925 1.351 . S
N928 N929 1.365 . S
N929 C926 1.341 . S
N929 N928 1.365 . S
N929 H949 0.862 . S
C930 C925 1.501 . S
C930 H931 0.961 . S
C930 H932 0.961 . S
C930 H933 0.960 . S
H931 C930 0.961 . S
H932 C930 0.961 . S
H933 C930 0.960 . S
C934 N935 1.342 1_545 S
C934 C938 1.401 . S
C934 C939 1.499 . S
N935 Co918 1.989 . S
N935 C934 1.342 1_565 S
N935 N936 1.388 . S
N936 Co919 1.993 . S
N936 N935 1.388 . S
N936 C937 1.346 1_565 S
C937 N936 1.346 1_545 S
C937 C938 1.396 . S
C937 C947 1.510 . S
C938 C934 1.401 . S
C938 C937 1.396 . S
C939 C934 1.499 . S
C939 H940 0.959 . S
C939 H941 0.960 . S
C939 H942 0.961 . S
H940 C939 0.959 . S
H941 C939 0.960 . S
H942 C939 0.961 . S
O943 Co918 1.967 . S
O943 C951 1.258 . S
O944 Co919 1.941 . S
O944 C951 1.266 . S
H945 C947 0.959 . S
H946 C947 0.961 . S
C947 C937 1.510 . S
C947 H945 0.959 . S
C947 H946 0.961 . S
C947 H948 0.960 . S
H948 C947 0.960 . S
H949 N929 0.862 . S
O950 Co918 1.920 . S
O950 C923 1.289 . S
C951 O943 1.258 . S
C951 O944 1.266 . S
Co952 O955 1.970 . S
Co952 N969 1.989 . S
Co952 O977 1.967 . S
Co952 O984 1.920 . S
Co953 O956 1.966 . S
Co953 N962 2.022 . S
Co953 N970 1.993 . S
Co953 O978 1.941 . S
C954 O955 1.258 . S
C954 O956 1.263 . S
O955 Co952 1.970 . S
O955 C954 1.258 . S
O956 Co953 1.966 . S
O956 C954 1.263 . S
C957 O958 1.235 . S
C957 O984 1.289 . S
O958 C957 1.235 . S
C959 C961 1.400 . S
C959 N962 1.351 . S
C959 C964 1.501 1_556 S
C960 C961 1.387 . S
C960 N963 1.341 . S
C961 C959 1.400 . S
C961 C960 1.387 . S
N962 Co953 2.022 . S
N962 C959 1.351 . S
N962 N963 1.365 . S
N963 C960 1.341 . S
N963 N962 1.365 . S
N963 H983 0.862 . S
C964 C959 1.501 1_554 S
C964 H965 0.961 . S
C964 H966 0.961 . S
C964 H967 0.960 . S
H965 C964 0.961 . S
H966 C964 0.961 . S
H967 C964 0.960 . S
C968 N969 1.342 1_565 S
C968 C972 1.401 . S
C968 C973 1.499 . S
N969 Co952 1.989 . S
N969 C968 1.342 1_545 S
N969 N970 1.388 . S
N970 Co953 1.993 . S
N970 N969 1.388 . S
N970 C971 1.346 1_545 S
C971 N970 1.346 1_565 S
C971 C972 1.396 . S
C971 C981 1.510 . S
C972 C968 1.401 . S
C972 C971 1.396 . S
C973 C968 1.499 . S
C973 H974 0.959 . S
C973 H975 0.960 . S
C973 H976 0.961 . S
H974 C973 0.959 . S
H975 C973 0.960 . S
H976 C973 0.961 . S
O977 Co952 1.967 . S
O977 C985 1.258 . S
O978 Co953 1.941 . S
O978 C985 1.266 . S
H979 C981 0.959 . S
H980 C981 0.961 . S
C981 C971 1.510 . S
C981 H979 0.959 . S
C981 H980 0.961 . S
C981 H982 0.960 . S
H982 C981 0.960 . S
H983 N963 0.862 . S
O984 Co952 1.920 . S
O984 C957 1.289 . S
C985 O977 1.258 . S
C985 O978 1.266 . S
Co986 O989 1.970 . S
Co986 N1003 1.989 . S
Co986 O1011 1.967 . S
Co986 O1018 1.920 . S
Co987 O990 1.966 . S
Co987 N996 2.022 . S
Co987 N1004 1.993 . S
Co987 O1012 1.941 . S
C988 O989 1.258 . S
C988 O990 1.263 . S
O989 Co986 1.970 . S
O989 C988 1.258 . S
O990 Co987 1.966 . S
O990 C988 1.263 . S
C991 O992 1.235 . S
C991 O1018 1.289 . S
O992 C991 1.235 . S
C993 C995 1.400 . S
C993 N996 1.351 . S
C993 C998 1.501 1_556 S
C994 C995 1.387 . S
C994 N997 1.341 . S
C995 C993 1.400 . S
C995 C994 1.387 . S
N996 Co987 2.022 . S
N996 C993 1.351 . S
N996 N997 1.365 . S
N997 C994 1.341 . S
N997 N996 1.365 . S
N997 H1017 0.862 . S
C998 C993 1.501 1_554 S
C998 H999 0.961 . S
C998 H1000 0.961 . S
C998 H1001 0.960 . S
H999 C998 0.961 . S
H1000 C998 0.961 . S
H1001 C998 0.960 . S
C1002 N1003 1.342 . S
C1002 C1006 1.401 . S
C1002 C1007 1.499 . S
N1003 Co986 1.989 . S
N1003 C1002 1.342 . S
N1003 N1004 1.388 . S
N1004 Co987 1.993 . S
N1004 N1003 1.388 . S
N1004 C1005 1.346 . S
C1005 N1004 1.346 . S
C1005 C1006 1.396 . S
C1005 C1015 1.510 . S
C1006 C1002 1.401 . S
C1006 C1005 1.396 . S
C1007 C1002 1.499 . S
C1007 H1008 0.959 . S
C1007 H1009 0.960 . S
C1007 H1010 0.961 . S
H1008 C1007 0.959 . S
H1009 C1007 0.960 . S
H1010 C1007 0.961 . S
O1011 Co986 1.967 . S
O1011 C1019 1.258 . S
O1012 Co987 1.941 . S
O1012 C1019 1.266 . S
H1013 C1015 0.959 . S
H1014 C1015 0.961 . S
C1015 C1005 1.510 . S
C1015 H1013 0.959 . S
C1015 H1014 0.961 . S
C1015 H1016 0.960 . S
H1016 C1015 0.960 . S
H1017 N997 0.862 . S
O1018 Co986 1.920 . S
O1018 C991 1.289 . S
C1019 O1011 1.258 . S
C1019 O1012 1.266 . S
Co1020 O1023 1.970 . S
Co1020 N1037 1.989 . S
Co1020 O1045 1.967 . S
Co1020 O1052 1.920 . S
Co1021 O1024 1.966 . S
Co1021 N1030 2.022 . S
Co1021 N1038 1.993 . S
Co1021 O1046 1.941 . S
C1022 O1023 1.258 . S
C1022 O1024 1.263 . S
O1023 Co1020 1.970 . S
O1023 C1022 1.258 . S
O1024 Co1021 1.966 . S
O1024 C1022 1.263 . S
C1025 O1026 1.235 . S
C1025 O1052 1.289 . S
O1026 C1025 1.235 . S
C1027 C1029 1.400 . S
C1027 N1030 1.351 . S
C1027 C1032 1.501 . S
C1028 C1029 1.387 . S
C1028 N1031 1.341 . S
C1029 C1027 1.400 . S
C1029 C1028 1.387 . S
N1030 Co1021 2.022 . S
N1030 C1027 1.351 . S
N1030 N1031 1.365 . S
N1031 C1028 1.341 . S
N1031 N1030 1.365 . S
N1031 H1051 0.862 . S
C1032 C1027 1.501 . S
C1032 H1033 0.961 . S
C1032 H1034 0.961 . S
C1032 H1035 0.960 . S
H1033 C1032 0.961 . S
H1034 C1032 0.961 . S
H1035 C1032 0.960 . S
C1036 N1037 1.342 . S
C1036 C1040 1.401 . S
C1036 C1041 1.499 . S
N1037 Co1020 1.989 . S
N1037 C1036 1.342 . S
N1037 N1038 1.388 . S
N1038 Co1021 1.993 . S
N1038 N1037 1.388 . S
N1038 C1039 1.346 . S
C1039 N1038 1.346 . S
C1039 C1040 1.396 . S
C1039 C1049 1.510 . S
C1040 C1036 1.401 . S
C1040 C1039 1.396 . S
C1041 C1036 1.499 . S
C1041 H1042 0.959 . S
C1041 H1043 0.960 . S
C1041 H1044 0.961 . S
H1042 C1041 0.959 . S
H1043 C1041 0.960 . S
H1044 C1041 0.961 . S
O1045 Co1020 1.967 . S
O1045 C1053 1.258 . S
O1046 Co1021 1.941 . S
O1046 C1053 1.266 . S
H1047 C1049 0.959 . S
H1048 C1049 0.961 . S
C1049 C1039 1.510 . S
C1049 H1047 0.959 . S
C1049 H1048 0.961 . S
C1049 H1050 0.960 . S
H1050 C1049 0.960 . S
H1051 N1031 0.862 . S
O1052 Co1020 1.920 . S
O1052 C1025 1.289 . S
C1053 O1045 1.258 . S
C1053 O1046 1.266 . S
Co1054 O1057 1.970 . S
Co1054 N1071 1.989 . S
Co1054 O1079 1.967 . S
Co1054 O1086 1.920 . S
Co1055 O1058 1.966 . S
Co1055 N1064 2.022 . S
Co1055 N1072 1.993 . S
Co1055 O1080 1.941 . S
C1056 O1057 1.258 . S
C1056 O1058 1.263 . S
O1057 Co1054 1.970 . S
O1057 C1056 1.258 . S
O1058 Co1055 1.966 . S
O1058 C1056 1.263 . S
C1059 O1060 1.235 . S
C1059 O1086 1.289 . S
O1060 C1059 1.235 . S
C1061 C1063 1.400 . S
C1061 N1064 1.351 . S
C1061 C1066 1.501 . S
C1062 C1063 1.387 . S
C1062 N1065 1.341 . S
C1063 C1061 1.400 . S
C1063 C1062 1.387 . S
N1064 Co1055 2.022 . S
N1064 C1061 1.351 . S
N1064 N1065 1.365 . S
N1065 C1062 1.341 . S
N1065 N1064 1.365 . S
N1065 H1085 0.862 . S
C1066 C1061 1.501 . S
C1066 H1067 0.961 . S
C1066 H1068 0.961 . S
C1066 H1069 0.960 . S
H1067 C1066 0.961 . S
H1068 C1066 0.961 . S
H1069 C1066 0.960 . S
C1070 N1071 1.342 1_565 S
C1070 C1074 1.401 . S
C1070 C1075 1.499 . S
N1071 Co1054 1.989 . S
N1071 C1070 1.342 1_545 S
N1071 N1072 1.388 . S
N1072 Co1055 1.993 . S
N1072 N1071 1.388 . S
N1072 C1073 1.346 1_545 S
C1073 N1072 1.346 1_565 S
C1073 C1074 1.396 . S
C1073 C1083 1.510 . S
C1074 C1070 1.401 . S
C1074 C1073 1.396 . S
C1075 C1070 1.499 . S
C1075 H1076 0.959 . S
C1075 H1077 0.960 . S
C1075 H1078 0.961 . S
H1076 C1075 0.959 . S
H1077 C1075 0.960 . S
H1078 C1075 0.961 . S
O1079 Co1054 1.967 . S
O1079 C1087 1.258 . S
O1080 Co1055 1.941 . S
O1080 C1087 1.266 . S
H1081 C1083 0.959 . S
H1082 C1083 0.961 . S
C1083 C1073 1.510 . S
C1083 H1081 0.959 . S
C1083 H1082 0.961 . S
C1083 H1084 0.960 . S
H1084 C1083 0.960 . S
H1085 N1065 0.862 . S
O1086 Co1054 1.920 . S
O1086 C1059 1.289 . S
C1087 O1079 1.258 . S
C1087 O1080 1.266 . S
H1088 C1094 0.930 . S
H1089 C1098 0.930 . S
H1090 C1103 0.929 . S
H1091 C1101 0.929 . S
H1092 C1096 0.929 . S
H1093 C1102 0.929 . S
C1094 H1088 0.930 . S
C1094 C1095 1.367 . S
C1094 C1102 1.378 . S
C1095 C1094 1.367 . S
C1095 C1103 1.433 . S
C1096 H1092 0.929 . S
C1096 C1098 1.378 . S
C1096 C1100 1.350 . S
C1097 C1100 1.463 . S
C1097 C1102 1.350 . S
C1097 N1105 1.427 . S
C1098 H1089 0.930 . S
C1098 C1096 1.378 . S
C1098 C1099 1.367 . S
C1099 C1098 1.367 . S
C1099 C1101 1.433 . S
C1100 C1096 1.350 . S
C1100 C1097 1.463 . S
C1100 N1104 1.427 . S
C1101 H1091 0.929 . S
C1101 C1099 1.433 . S
C1101 N1104 1.384 . S
C1102 H1093 0.929 . S
C1102 C1094 1.378 . S
C1102 C1097 1.350 . S
C1103 H1090 0.929 . S
C1103 C1095 1.433 . S
C1103 N1105 1.384 . S
N1104 C1100 1.427 . S
N1104 C1101 1.384 . S
N1105 C1097 1.427 . S
N1105 C1103 1.384 . S
H1106 C1112 0.930 . S
H1107 C1116 0.930 . S
H1108 C1121 0.929 . S
H1109 C1119 0.929 . S
H1110 C1114 0.929 . S
H1111 C1120 0.929 . S
C1112 H1106 0.930 . S
C1112 C1113 1.367 . S
C1112 C1120 1.378 . S
C1113 C1112 1.367 . S
C1113 C1121 1.433 . S
C1114 H1110 0.929 . S
C1114 C1116 1.378 . S
C1114 C1118 1.350 . S
C1115 C1118 1.463 . S
C1115 C1120 1.350 . S
C1115 N1123 1.427 . S
C1116 H1107 0.930 . S
C1116 C1114 1.378 . S
C1116 C1117 1.367 . S
C1117 C1116 1.367 . S
C1117 C1119 1.433 . S
C1118 C1114 1.350 . S
C1118 C1115 1.463 . S
C1118 N1122 1.427 . S
C1119 H1109 0.929 . S
C1119 C1117 1.433 . S
C1119 N1122 1.384 . S
C1120 H1111 0.929 . S
C1120 C1112 1.378 . S
C1120 C1115 1.350 . S
C1121 H1108 0.929 . S
C1121 C1113 1.433 . S
C1121 N1123 1.384 . S
N1122 C1118 1.427 . S
N1122 C1119 1.384 . S
N1123 C1115 1.427 . S
N1123 C1121 1.384 . S
H1124 C1130 0.930 . S
H1125 C1134 0.930 . S
H1126 C1139 0.929 . S
H1127 C1137 0.929 . S
H1128 C1132 0.929 . S
H1129 C1138 0.929 . S
C1130 H1124 0.930 . S
C1130 C1131 1.367 . S
C1130 C1138 1.378 . S
C1131 C1130 1.367 . S
C1131 C1139 1.433 . S
C1132 H1128 0.929 . S
C1132 C1134 1.378 . S
C1132 C1136 1.350 . S
C1133 C1136 1.463 . S
C1133 C1138 1.350 . S
C1133 N1141 1.427 . S
C1134 H1125 0.930 . S
C1134 C1132 1.378 . S
C1134 C1135 1.367 . S
C1135 C1134 1.367 . S
C1135 C1137 1.433 . S
C1136 C1132 1.350 . S
C1136 C1133 1.463 . S
C1136 N1140 1.427 . S
C1137 H1127 0.929 . S
C1137 C1135 1.433 . S
C1137 N1140 1.384 . S
C1138 H1129 0.929 . S
C1138 C1130 1.378 . S
C1138 C1133 1.350 . S
C1139 H1126 0.929 . S
C1139 C1131 1.433 . S
C1139 N1141 1.384 . S
N1140 C1136 1.427 . S
N1140 C1137 1.384 . S
N1141 C1133 1.427 . S
N1141 C1139 1.384 . S
H1142 C1148 0.930 . S
H1143 C1152 0.930 . S
H1144 C1157 0.929 . S
H1145 C1155 0.929 . S
H1146 C1150 0.929 . S
H1147 C1156 0.929 . S
C1148 H1142 0.930 . S
C1148 C1149 1.367 . S
C1148 C1156 1.378 . S
C1149 C1148 1.367 . S
C1149 C1157 1.433 . S
C1150 H1146 0.929 . S
C1150 C1152 1.378 . S
C1150 C1154 1.350 . S
C1151 C1154 1.463 . S
C1151 C1156 1.350 . S
C1151 N1159 1.427 . S
C1152 H1143 0.930 . S
C1152 C1150 1.378 . S
C1152 C1153 1.367 . S
C1153 C1152 1.367 . S
C1153 C1155 1.433 . S
C1154 C1150 1.350 . S
C1154 C1151 1.463 . S
C1154 N1158 1.427 . S
C1155 H1145 0.929 . S
C1155 C1153 1.433 . S
C1155 N1158 1.384 . S
C1156 H1147 0.929 . S
C1156 C1148 1.378 . S
C1156 C1151 1.350 . S
C1157 H1144 0.929 . S
C1157 C1149 1.433 . S
C1157 N1159 1.384 . S
N1158 C1154 1.427 . S
N1158 C1155 1.384 . S
N1159 C1151 1.427 . S
N1159 C1157 1.384 . S
H1160 C1166 0.930 . S
H1161 C1170 0.930 . S
H1162 C1175 0.929 . S
H1163 C1173 0.929 . S
H1164 C1168 0.929 . S
H1165 C1174 0.929 . S
C1166 H1160 0.930 . S
C1166 C1167 1.367 . S
C1166 C1174 1.378 . S
C1167 C1166 1.367 . S
C1167 C1175 1.433 . S
C1168 H1164 0.929 . S
C1168 C1170 1.378 . S
C1168 C1172 1.350 . S
C1169 C1172 1.463 . S
C1169 C1174 1.350 . S
C1169 N1177 1.427 . S
C1170 H1161 0.930 . S
C1170 C1168 1.378 . S
C1170 C1171 1.367 . S
C1171 C1170 1.367 . S
C1171 C1173 1.433 . S
C1172 C1168 1.350 . S
C1172 C1169 1.463 . S
C1172 N1176 1.427 . S
C1173 H1163 0.929 . S
C1173 C1171 1.433 . S
C1173 N1176 1.384 . S
C1174 H1165 0.929 . S
C1174 C1166 1.378 . S
C1174 C1169 1.350 . S
C1175 H1162 0.929 . S
C1175 C1167 1.433 . S
C1175 N1177 1.384 . S
N1176 C1172 1.427 . S
N1176 C1173 1.384 . S
N1177 C1169 1.427 . S
N1177 C1175 1.384 . S
H1178 C1184 0.930 . S
H1179 C1188 0.930 . S
H1180 C1193 0.929 . S
H1181 C1191 0.929 . S
H1182 C1186 0.929 . S
H1183 C1192 0.929 . S
C1184 H1178 0.930 . S
C1184 C1185 1.367 . S
C1184 C1192 1.378 . S
C1185 C1184 1.367 . S
C1185 C1193 1.433 . S
C1186 H1182 0.929 . S
C1186 C1188 1.378 . S
C1186 C1190 1.350 . S
C1187 C1190 1.463 . S
C1187 C1192 1.350 . S
C1187 N1195 1.427 . S
C1188 H1179 0.930 . S
C1188 C1186 1.378 . S
C1188 C1189 1.367 . S
C1189 C1188 1.367 . S
C1189 C1191 1.433 . S
C1190 C1186 1.350 . S
C1190 C1187 1.463 . S
C1190 N1194 1.427 . S
C1191 H1181 0.929 . S
C1191 C1189 1.433 . S
C1191 N1194 1.384 . S
C1192 H1183 0.929 . S
C1192 C1184 1.378 . S
C1192 C1187 1.350 . S
C1193 H1180 0.929 . S
C1193 C1185 1.433 . S
C1193 N1195 1.384 . S
N1194 C1190 1.427 . S
N1194 C1191 1.384 . S
N1195 C1187 1.427 . S
N1195 C1193 1.384 . S
H1196 C1202 0.930 . S
H1197 C1206 0.930 . S
H1198 C1211 0.929 . S
H1199 C1209 0.929 . S
H1200 C1204 0.929 . S
H1201 C1210 0.929 . S
C1202 H1196 0.930 . S
C1202 C1203 1.367 . S
C1202 C1210 1.378 . S
C1203 C1202 1.367 . S
C1203 C1211 1.433 . S
C1204 H1200 0.929 . S
C1204 C1206 1.378 . S
C1204 C1208 1.350 . S
C1205 C1208 1.463 . S
C1205 C1210 1.350 . S
C1205 N1213 1.427 . S
C1206 H1197 0.930 . S
C1206 C1204 1.378 . S
C1206 C1207 1.367 . S
C1207 C1206 1.367 . S
C1207 C1209 1.433 . S
C1208 C1204 1.350 . S
C1208 C1205 1.463 . S
C1208 N1212 1.427 . S
C1209 H1199 0.929 . S
C1209 C1207 1.433 . S
C1209 N1212 1.384 . S
C1210 H1201 0.929 . S
C1210 C1202 1.378 . S
C1210 C1205 1.350 . S
C1211 H1198 0.929 . S
C1211 C1203 1.433 . S
C1211 N1213 1.384 . S
N1212 C1208 1.427 . S
N1212 C1209 1.384 . S
N1213 C1205 1.427 . S
N1213 C1211 1.384 . S
H1214 C1220 0.930 . S
H1215 C1224 0.930 . S
H1216 C1229 0.929 . S
H1217 C1227 0.929 . S
H1218 C1222 0.929 . S
H1219 C1228 0.929 . S
C1220 H1214 0.930 . S
C1220 C1221 1.367 . S
C1220 C1228 1.378 . S
C1221 C1220 1.367 . S
C1221 C1229 1.433 . S
C1222 H1218 0.929 . S
C1222 C1224 1.378 . S
C1222 C1226 1.350 . S
C1223 C1226 1.463 . S
C1223 C1228 1.350 . S
C1223 N1231 1.427 . S
C1224 H1215 0.930 . S
C1224 C1222 1.378 . S
C1224 C1225 1.367 . S
C1225 C1224 1.367 . S
C1225 C1227 1.433 . S
C1226 C1222 1.350 . S
C1226 C1223 1.463 . S
C1226 N1230 1.427 . S
C1227 H1217 0.929 . S
C1227 C1225 1.433 . S
C1227 N1230 1.384 . S
C1228 H1219 0.929 . S
C1228 C1220 1.378 . S
C1228 C1223 1.350 . S
C1229 H1216 0.929 . S
C1229 C1221 1.433 . S
C1229 N1231 1.384 . S
N1230 C1226 1.427 . S
N1230 C1227 1.384 . S
N1231 C1223 1.427 . S
N1231 C1229 1.384 . S
H1232 C1238 0.930 . S
H1233 C1242 0.930 . S
H1234 C1247 0.929 . S
H1235 C1245 0.929 . S
H1236 C1240 0.929 . S
H1237 C1246 0.929 . S
C1238 H1232 0.930 . S
C1238 C1239 1.367 . S
C1238 C1246 1.378 . S
C1239 C1238 1.367 . S
C1239 C1247 1.433 . S
C1240 H1236 0.929 . S
C1240 C1242 1.378 . S
C1240 C1244 1.350 . S
C1241 C1244 1.463 . S
C1241 C1246 1.350 . S
C1241 N1249 1.427 . S
C1242 H1233 0.930 . S
C1242 C1240 1.378 . S
C1242 C1243 1.367 . S
C1243 C1242 1.367 . S
C1243 C1245 1.433 . S
C1244 C1240 1.350 . S
C1244 C1241 1.463 . S
C1244 N1248 1.427 . S
C1245 H1235 0.929 . S
C1245 C1243 1.433 . S
C1245 N1248 1.384 . S
C1246 H1237 0.929 . S
C1246 C1238 1.378 . S
C1246 C1241 1.350 . S
C1247 H1234 0.929 . S
C1247 C1239 1.433 . S
C1247 N1249 1.384 . S
N1248 C1244 1.427 . S
N1248 C1245 1.384 . S
N1249 C1241 1.427 . S
N1249 C1247 1.384 . S
H1250 C1256 0.930 . S
H1251 C1260 0.930 . S
H1252 C1265 0.929 . S
H1253 C1263 0.929 . S
H1254 C1258 0.929 . S
H1255 C1264 0.929 . S
C1256 H1250 0.930 . S
C1256 C1257 1.367 . S
C1256 C1264 1.378 . S
C1257 C1256 1.367 . S
C1257 C1265 1.433 . S
C1258 H1254 0.929 . S
C1258 C1260 1.378 . S
C1258 C1262 1.350 . S
C1259 C1262 1.463 . S
C1259 C1264 1.350 . S
C1259 N1267 1.427 . S
C1260 H1251 0.930 . S
C1260 C1258 1.378 . S
C1260 C1261 1.367 . S
C1261 C1260 1.367 . S
C1261 C1263 1.433 . S
C1262 C1258 1.350 . S
C1262 C1259 1.463 . S
C1262 N1266 1.427 . S
C1263 H1253 0.929 . S
C1263 C1261 1.433 . S
C1263 N1266 1.384 . S
C1264 H1255 0.929 . S
C1264 C1256 1.378 . S
C1264 C1259 1.350 . S
C1265 H1252 0.929 . S
C1265 C1257 1.433 . S
C1265 N1267 1.384 . S
N1266 C1262 1.427 . S
N1266 C1263 1.384 . S
N1267 C1259 1.427 . S
N1267 C1265 1.384 . S
H1268 C1274 0.930 . S
H1269 C1278 0.930 . S
H1270 C1283 0.929 . S
H1271 C1281 0.929 . S
H1272 C1276 0.929 . S
H1273 C1282 0.929 . S
C1274 H1268 0.930 . S
C1274 C1275 1.367 . S
C1274 C1282 1.378 . S
C1275 C1274 1.367 . S
C1275 C1283 1.433 . S
C1276 H1272 0.929 . S
C1276 C1278 1.378 . S
C1276 C1280 1.350 . S
C1277 C1280 1.463 . S
C1277 C1282 1.350 . S
C1277 N1285 1.427 . S
C1278 H1269 0.930 . S
C1278 C1276 1.378 . S
C1278 C1279 1.367 . S
C1279 C1278 1.367 . S
C1279 C1281 1.433 . S
C1280 C1276 1.350 . S
C1280 C1277 1.463 . S
C1280 N1284 1.427 . S
C1281 H1271 0.929 . S
C1281 C1279 1.433 . S
C1281 N1284 1.384 . S
C1282 H1273 0.929 . S
C1282 C1274 1.378 . S
C1282 C1277 1.350 . S
C1283 H1270 0.929 . S
C1283 C1275 1.433 . S
C1283 N1285 1.384 . S
N1284 C1280 1.427 . S
N1284 C1281 1.384 . S
N1285 C1277 1.427 . S
N1285 C1283 1.384 . S
H1286 C1292 0.930 . S
H1287 C1296 0.930 . S
H1288 C1301 0.929 . S
H1289 C1299 0.929 . S
H1290 C1294 0.929 . S
H1291 C1300 0.929 . S
C1292 H1286 0.930 . S
C1292 C1293 1.367 . S
C1292 C1300 1.378 . S
C1293 C1292 1.367 . S
C1293 C1301 1.433 . S
C1294 H1290 0.929 . S
C1294 C1296 1.378 . S
C1294 C1298 1.350 . S
C1295 C1298 1.463 . S
C1295 C1300 1.350 . S
C1295 N1303 1.427 . S
C1296 H1287 0.930 . S
C1296 C1294 1.378 . S
C1296 C1297 1.367 . S
C1297 C1296 1.367 . S
C1297 C1299 1.433 . S
C1298 C1294 1.350 . S
C1298 C1295 1.463 . S
C1298 N1302 1.427 . S
C1299 H1289 0.929 . S
C1299 C1297 1.433 . S
C1299 N1302 1.384 . S
C1300 H1291 0.929 . S
C1300 C1292 1.378 . S
C1300 C1295 1.350 . S
C1301 H1288 0.929 . S
C1301 C1293 1.433 . S
C1301 N1303 1.384 . S
N1302 C1298 1.427 . S
N1302 C1299 1.384 . S
N1303 C1295 1.427 . S
N1303 C1301 1.384 . S
H1304 C1310 0.930 . S
H1305 C1314 0.930 . S
H1306 C1319 0.929 . S
H1307 C1317 0.929 . S
H1308 C1312 0.929 . S
H1309 C1318 0.929 . S
C1310 H1304 0.930 . S
C1310 C1311 1.367 . S
C1310 C1318 1.378 . S
C1311 C1310 1.367 . S
C1311 C1319 1.433 . S
C1312 H1308 0.929 . S
C1312 C1314 1.378 . S
C1312 C1316 1.350 . S
C1313 C1316 1.463 . S
C1313 C1318 1.350 . S
C1313 N1321 1.427 . S
C1314 H1305 0.930 . S
C1314 C1312 1.378 . S
C1314 C1315 1.367 . S
C1315 C1314 1.367 . S
C1315 C1317 1.433 . S
C1316 C1312 1.350 . S
C1316 C1313 1.463 . S
C1316 N1320 1.427 . S
C1317 H1307 0.929 . S
C1317 C1315 1.433 . S
C1317 N1320 1.384 . S
C1318 H1309 0.929 . S
C1318 C1310 1.378 . S
C1318 C1313 1.350 . S
C1319 H1306 0.929 . S
C1319 C1311 1.433 . S
C1319 N1321 1.384 . S
N1320 C1316 1.427 . S
N1320 C1317 1.384 . S
N1321 C1313 1.427 . S
N1321 C1319 1.384 . S
H1322 C1328 0.930 . S
H1323 C1332 0.930 . S
H1324 C1337 0.929 . S
H1325 C1335 0.929 . S
H1326 C1330 0.929 . S
H1327 C1336 0.929 . S
C1328 H1322 0.930 . S
C1328 C1329 1.367 . S
C1328 C1336 1.378 . S
C1329 C1328 1.367 . S
C1329 C1337 1.433 . S
C1330 H1326 0.929 . S
C1330 C1332 1.378 . S
C1330 C1334 1.350 . S
C1331 C1334 1.463 . S
C1331 C1336 1.350 . S
C1331 N1339 1.427 . S
C1332 H1323 0.930 . S
C1332 C1330 1.378 . S
C1332 C1333 1.367 . S
C1333 C1332 1.367 . S
C1333 C1335 1.433 . S
C1334 C1330 1.350 . S
C1334 C1331 1.463 . S
C1334 N1338 1.427 . S
C1335 H1325 0.929 . S
C1335 C1333 1.433 . S
C1335 N1338 1.384 . S
C1336 H1327 0.929 . S
C1336 C1328 1.378 . S
C1336 C1331 1.350 . S
C1337 H1324 0.929 . S
C1337 C1329 1.433 . S
C1337 N1339 1.384 . S
N1338 C1334 1.427 . S
N1338 C1335 1.384 . S
N1339 C1331 1.427 . S
N1339 C1337 1.384 . S
H1340 C1346 0.930 . S
H1341 C1350 0.930 . S
H1342 C1355 0.929 . S
H1343 C1353 0.929 . S
H1344 C1348 0.929 . S
H1345 C1354 0.929 . S
C1346 H1340 0.930 . S
C1346 C1347 1.367 . S
C1346 C1354 1.378 . S
C1347 C1346 1.367 . S
C1347 C1355 1.433 . S
C1348 H1344 0.929 . S
C1348 C1350 1.378 . S
C1348 C1352 1.350 . S
C1349 C1352 1.463 . S
C1349 C1354 1.350 . S
C1349 N1357 1.427 . S
C1350 H1341 0.930 . S
C1350 C1348 1.378 . S
C1350 C1351 1.367 . S
C1351 C1350 1.367 . S
C1351 C1353 1.433 . S
C1352 C1348 1.350 . S
C1352 C1349 1.463 . S
C1352 N1356 1.427 . S
C1353 H1343 0.929 . S
C1353 C1351 1.433 . S
C1353 N1356 1.384 . S
C1354 H1345 0.929 . S
C1354 C1346 1.378 . S
C1354 C1349 1.350 . S
C1355 H1342 0.929 . S
C1355 C1347 1.433 . S
C1355 N1357 1.384 . S
N1356 C1352 1.427 . S
N1356 C1353 1.384 . S
N1357 C1349 1.427 . S
N1357 C1355 1.384 . S
H1358 C1364 0.930 . S
H1359 C1368 0.930 . S
H1360 C1373 0.929 . S
H1361 C1371 0.929 . S
H1362 C1366 0.929 . S
H1363 C1372 0.929 . S
C1364 H1358 0.930 . S
C1364 C1365 1.367 . S
C1364 C1372 1.378 . S
C1365 C1364 1.367 . S
C1365 C1373 1.433 . S
C1366 H1362 0.929 . S
C1366 C1368 1.378 . S
C1366 C1370 1.350 . S
C1367 C1370 1.463 . S
C1367 C1372 1.350 . S
C1367 N1375 1.427 . S
C1368 H1359 0.930 . S
C1368 C1366 1.378 . S
C1368 C1369 1.367 . S
C1369 C1368 1.367 . S
C1369 C1371 1.433 . S
C1370 C1366 1.350 . S
C1370 C1367 1.463 . S
C1370 N1374 1.427 . S
C1371 H1361 0.929 . S
C1371 C1369 1.433 . S
C1371 N1374 1.384 . S
C1372 H1363 0.929 . S
C1372 C1364 1.378 . S
C1372 C1367 1.350 . S
C1373 H1360 0.929 . S
C1373 C1365 1.433 . S
C1373 N1375 1.384 . S
N1374 C1370 1.427 . S
N1374 C1371 1.384 . S
N1375 C1367 1.427 . S
N1375 C1373 1.384 . S
H1376 C1382 0.930 . S
H1377 C1386 0.930 . S
H1378 C1391 0.929 . S
H1379 C1389 0.929 . S
H1380 C1384 0.929 . S
H1381 C1390 0.929 . S
C1382 H1376 0.930 . S
C1382 C1383 1.367 . S
C1382 C1390 1.378 . S
C1383 C1382 1.367 . S
C1383 C1391 1.433 1_554 S
C1384 H1380 0.929 . S
C1384 C1386 1.378 . S
C1384 C1388 1.350 . S
C1385 C1388 1.463 1_454 S
C1385 C1390 1.350 . S
C1385 N1393 1.427 1_554 S
C1386 H1377 0.930 . S
C1386 C1384 1.378 . S
C1386 C1387 1.367 . S
C1387 C1386 1.367 . S
C1387 C1389 1.433 1_556 S
C1388 C1384 1.350 . S
C1388 C1385 1.463 1_656 S
C1388 N1392 1.427 1_556 S
C1389 H1379 0.929 . S
C1389 C1387 1.433 1_554 S
C1389 N1392 1.384 . S
C1390 H1381 0.929 . S
C1390 C1382 1.378 . S
C1390 C1385 1.350 . S
C1391 H1378 0.929 . S
C1391 C1383 1.433 1_556 S
C1391 N1393 1.384 . S
N1392 C1388 1.427 1_554 S
N1392 C1389 1.384 . S
N1393 C1385 1.427 1_556 S
N1393 C1391 1.384 . S
H1394 C1400 0.930 . S
H1395 C1404 0.930 . S
H1396 C1409 0.929 . S
H1397 C1407 0.929 . S
H1398 C1402 0.929 . S
H1399 C1408 0.929 . S
C1400 H1394 0.930 . S
C1400 C1401 1.367 . S
C1400 C1408 1.378 . S
C1401 C1400 1.367 . S
C1401 C1409 1.433 1_554 S
C1402 H1398 0.929 . S
C1402 C1404 1.378 . S
C1402 C1406 1.350 . S
C1403 C1406 1.463 1_554 S
C1403 C1408 1.350 . S
C1403 N1411 1.427 1_554 S
C1404 H1395 0.930 . S
C1404 C1402 1.378 . S
C1404 C1405 1.367 . S
C1405 C1404 1.367 . S
C1405 C1407 1.433 1_556 S
C1406 C1402 1.350 . S
C1406 C1403 1.463 1_556 S
C1406 N1410 1.427 1_556 S
C1407 H1397 0.929 . S
C1407 C1405 1.433 1_554 S
C1407 N1410 1.384 . S
C1408 H1399 0.929 . S
C1408 C1400 1.378 . S
C1408 C1403 1.350 . S
C1409 H1396 0.929 . S
C1409 C1401 1.433 1_556 S
C1409 N1411 1.384 . S
N1410 C1406 1.427 1_554 S
N1410 C1407 1.384 . S
N1411 C1403 1.427 1_556 S
N1411 C1409 1.384 . S
H1412 C1418 0.930 . S
H1413 C1422 0.930 . S
H1414 C1427 0.929 . S
H1415 C1425 0.929 . S
H1416 C1420 0.929 . S
H1417 C1426 0.929 . S
C1418 H1412 0.930 . S
C1418 C1419 1.367 . S
C1418 C1426 1.378 . S
C1419 C1418 1.367 . S
C1419 C1427 1.433 . S
C1420 H1416 0.929 . S
C1420 C1422 1.378 . S
C1420 C1424 1.350 . S
C1421 C1424 1.463 1_655 S
C1421 C1426 1.350 . S
C1421 N1429 1.427 . S
C1422 H1413 0.930 . S
C1422 C1420 1.378 . S
C1422 C1423 1.367 . S
C1423 C1422 1.367 . S
C1423 C1425 1.433 . S
C1424 C1420 1.350 . S
C1424 C1421 1.463 1_455 S
C1424 N1428 1.427 . S
C1425 H1415 0.929 . S
C1425 C1423 1.433 . S
C1425 N1428 1.384 . S
C1426 H1417 0.929 . S
C1426 C1418 1.378 . S
C1426 C1421 1.350 . S
C1427 H1414 0.929 . S
C1427 C1419 1.433 . S
C1427 N1429 1.384 . S
N1428 C1424 1.427 . S
N1428 C1425 1.384 . S
N1429 C1421 1.427 . S
N1429 C1427 1.384 . S
H1430 C1436 0.930 . S
H1431 C1440 0.930 . S
H1432 C1445 0.929 . S
H1433 C1443 0.929 . S
H1434 C1438 0.929 . S
H1435 C1444 0.929 . S
C1436 H1430 0.930 . S
C1436 C1437 1.367 . S
C1436 C1444 1.378 . S
C1437 C1436 1.367 . S
C1437 C1445 1.433 . S
C1438 H1434 0.929 . S
C1438 C1440 1.378 . S
C1438 C1442 1.350 . S
C1439 C1442 1.463 . S
C1439 C1444 1.350 . S
C1439 N1447 1.427 . S
C1440 H1431 0.930 . S
C1440 C1438 1.378 . S
C1440 C1441 1.367 . S
C1441 C1440 1.367 . S
C1441 C1443 1.433 . S
C1442 C1438 1.350 . S
C1442 C1439 1.463 . S
C1442 N1446 1.427 . S
C1443 H1433 0.929 . S
C1443 C1441 1.433 . S
C1443 N1446 1.384 . S
C1444 H1435 0.929 . S
C1444 C1436 1.378 . S
C1444 C1439 1.350 . S
C1445 H1432 0.929 . S
C1445 C1437 1.433 . S
C1445 N1447 1.384 . S
N1446 C1442 1.427 . S
N1446 C1443 1.384 . S
N1447 C1439 1.427 . S
N1447 C1445 1.384 . S
H1448 C1454 0.930 . S
H1449 C1458 0.930 . S
H1450 C1463 0.929 . S
H1451 C1461 0.929 . S
H1452 C1456 0.929 . S
H1453 C1462 0.929 . S
C1454 H1448 0.930 . S
C1454 C1455 1.367 1_554 S
C1454 C1462 1.378 . S
C1455 C1454 1.367 1_556 S
C1455 C1463 1.433 . S
C1456 H1452 0.929 . S
C1456 C1458 1.378 . S
C1456 C1460 1.350 1_556 S
C1457 C1460 1.463 1_556 S
C1457 C1462 1.350 1_556 S
C1457 N1465 1.427 . S
C1458 H1449 0.930 . S
C1458 C1456 1.378 . S
C1458 C1459 1.367 1_556 S
C1459 C1458 1.367 1_554 S
C1459 C1461 1.433 . S
C1460 C1456 1.350 1_554 S
C1460 C1457 1.463 1_554 S
C1460 N1464 1.427 . S
C1461 H1451 0.929 . S
C1461 C1459 1.433 . S
C1461 N1464 1.384 . S
C1462 H1453 0.929 . S
C1462 C1454 1.378 . S
C1462 C1457 1.350 1_554 S
C1463 H1450 0.929 . S
C1463 C1455 1.433 . S
C1463 N1465 1.384 . S
N1464 C1460 1.427 . S
N1464 C1461 1.384 . S
N1465 C1457 1.427 . S
N1465 C1463 1.384 . S
H1466 C1472 0.930 . S
H1467 C1476 0.930 . S
H1468 C1481 0.929 . S
H1469 C1479 0.929 . S
H1470 C1474 0.929 . S
H1471 C1480 0.929 . S
C1472 H1466 0.930 . S
C1472 C1473 1.367 . S
C1472 C1480 1.378 . S
C1473 C1472 1.367 . S
C1473 C1481 1.433 . S
C1474 H1470 0.929 . S
C1474 C1476 1.378 . S
C1474 C1478 1.350 . S
C1475 C1478 1.463 1_455 S
C1475 C1480 1.350 . S
C1475 N1483 1.427 . S
C1476 H1467 0.930 . S
C1476 C1474 1.378 . S
C1476 C1477 1.367 . S
C1477 C1476 1.367 . S
C1477 C1479 1.433 . S
C1478 C1474 1.350 . S
C1478 C1475 1.463 1_655 S
C1478 N1482 1.427 . S
C1479 H1469 0.929 . S
C1479 C1477 1.433 . S
C1479 N1482 1.384 . S
C1480 H1471 0.929 . S
C1480 C1472 1.378 . S
C1480 C1475 1.350 . S
C1481 H1468 0.929 . S
C1481 C1473 1.433 . S
C1481 N1483 1.384 . S
N1482 C1478 1.427 . S
N1482 C1479 1.384 . S
N1483 C1475 1.427 . S
N1483 C1481 1.384 . S
H1484 C1490 0.930 . S
H1485 C1494 0.930 . S
H1486 C1499 0.929 . S
H1487 C1497 0.929 . S
H1488 C1492 0.929 . S
H1489 C1498 0.929 . S
C1490 H1484 0.930 . S
C1490 C1491 1.367 . S
C1490 C1498 1.378 . S
C1491 C1490 1.367 . S
C1491 C1499 1.433 . S
C1492 H1488 0.929 . S
C1492 C1494 1.378 . S
C1492 C1496 1.350 . S
C1493 C1496 1.463 . S
C1493 C1498 1.350 . S
C1493 N1501 1.427 . S
C1494 H1485 0.930 . S
C1494 C1492 1.378 . S
C1494 C1495 1.367 . S
C1495 C1494 1.367 . S
C1495 C1497 1.433 . S
C1496 C1492 1.350 . S
C1496 C1493 1.463 . S
C1496 N1500 1.427 . S
C1497 H1487 0.929 . S
C1497 C1495 1.433 . S
C1497 N1500 1.384 . S
C1498 H1489 0.929 . S
C1498 C1490 1.378 . S
C1498 C1493 1.350 . S
C1499 H1486 0.929 . S
C1499 C1491 1.433 . S
C1499 N1501 1.384 . S
N1500 C1496 1.427 . S
N1500 C1497 1.384 . S
N1501 C1493 1.427 . S
N1501 C1499 1.384 . S
H1502 C1508 0.930 . S
H1503 C1512 0.930 . S
H1504 C1517 0.929 . S
H1505 C1515 0.929 . S
H1506 C1510 0.929 . S
H1507 C1516 0.929 . S
C1508 H1502 0.930 . S
C1508 C1509 1.367 . S
C1508 C1516 1.378 . S
C1509 C1508 1.367 . S
C1509 C1517 1.433 1_565 S
C1510 H1506 0.929 . S
C1510 C1512 1.378 . S
C1510 C1514 1.350 . S
C1511 C1514 1.463 1_465 S
C1511 C1516 1.350 . S
C1511 N1519 1.427 1_565 S
C1512 H1503 0.930 . S
C1512 C1510 1.378 . S
C1512 C1513 1.367 . S
C1513 C1512 1.367 . S
C1513 C1515 1.433 1_545 S
C1514 C1510 1.350 . S
C1514 C1511 1.463 1_645 S
C1514 N1518 1.427 1_545 S
C1515 H1505 0.929 . S
C1515 C1513 1.433 1_565 S
C1515 N1518 1.384 . S
C1516 H1507 0.929 . S
C1516 C1508 1.378 . S
C1516 C1511 1.350 . S
C1517 H1504 0.929 . S
C1517 C1509 1.433 1_545 S
C1517 N1519 1.384 . S
N1518 C1514 1.427 1_565 S
N1518 C1515 1.384 . S
N1519 C1511 1.427 1_545 S
N1519 C1517 1.384 . S
H1520 C1526 0.930 . S
H1521 C1530 0.930 . S
H1522 C1535 0.929 . S
H1523 C1533 0.929 . S
H1524 C1528 0.929 . S
H1525 C1534 0.929 . S
C1526 H1520 0.930 . S
C1526 C1527 1.367 . S
C1526 C1534 1.378 . S
C1527 C1526 1.367 . S
C1527 C1535 1.433 . S
C1528 H1524 0.929 . S
C1528 C1530 1.378 . S
C1528 C1532 1.350 . S
C1529 C1532 1.463 . S
C1529 C1534 1.350 . S
C1529 N1537 1.427 . S
C1530 H1521 0.930 . S
C1530 C1528 1.378 . S
C1530 C1531 1.367 . S
C1531 C1530 1.367 . S
C1531 C1533 1.433 . S
C1532 C1528 1.350 . S
C1532 C1529 1.463 . S
C1532 N1536 1.427 . S
C1533 H1523 0.929 . S
C1533 C1531 1.433 . S
C1533 N1536 1.384 . S
C1534 H1525 0.929 . S
C1534 C1526 1.378 . S
C1534 C1529 1.350 . S
C1535 H1522 0.929 . S
C1535 C1527 1.433 . S
C1535 N1537 1.384 . S
N1536 C1532 1.427 . S
N1536 C1533 1.384 . S
N1537 C1529 1.427 . S
N1537 C1535 1.384 . S
H1538 C1544 0.942 . S
H1539 C1548 0.942 . S
H1540 C1553 0.929 . S
H1541 C1551 0.929 . S
H1542 C1546 0.929 . S
H1543 C1552 0.929 . S
C1544 H1538 0.942 . S
C1544 C1545 1.350 1_565 S
C1544 C1552 1.385 . S
C1545 C1544 1.350 1_545 S
C1545 C1553 1.433 . S
C1546 H1542 0.929 . S
C1546 C1548 1.385 . S
C1546 C1550 1.350 1_545 S
C1547 C1550 1.463 1_545 S
C1547 C1552 1.350 1_545 S
C1547 N1555 1.427 . S
C1548 H1539 0.942 . S
C1548 C1546 1.385 . S
C1548 C1549 1.350 1_545 S
C1549 C1548 1.350 1_565 S
C1549 C1551 1.433 . S
C1550 C1546 1.350 1_565 S
C1550 C1547 1.463 1_565 S
C1550 N1554 1.427 . S
C1551 H1541 0.929 . S
C1551 C1549 1.433 . S
C1551 N1554 1.384 . S
C1552 H1543 0.929 . S
C1552 C1544 1.385 . S
C1552 C1547 1.350 1_565 S
C1553 H1540 0.929 . S
C1553 C1545 1.433 . S
C1553 N1555 1.384 . S
N1554 C1550 1.427 . S
N1554 C1551 1.384 . S
N1555 C1547 1.427 . S
N1555 C1553 1.384 . S
H1556 C1562 0.930 . S
H1557 C1566 0.930 . S
H1558 C1571 0.929 . S
H1559 C1569 0.929 . S
H1560 C1564 0.929 . S
H1561 C1570 0.929 . S
C1562 H1556 0.930 . S
C1562 C1563 1.367 . S
C1562 C1570 1.378 . S
C1563 C1562 1.367 . S
C1563 C1571 1.433 . S
C1564 H1560 0.929 . S
C1564 C1566 1.378 . S
C1564 C1568 1.350 . S
C1565 C1568 1.463 . S
C1565 C1570 1.350 . S
C1565 N1573 1.427 . S
C1566 H1557 0.930 . S
C1566 C1564 1.378 . S
C1566 C1567 1.367 . S
C1567 C1566 1.367 . S
C1567 C1569 1.433 . S
C1568 C1564 1.350 . S
C1568 C1565 1.463 . S
C1568 N1572 1.427 . S
C1569 H1559 0.929 . S
C1569 C1567 1.433 . S
C1569 N1572 1.384 . S
C1570 H1561 0.929 . S
C1570 C1562 1.378 . S
C1570 C1565 1.350 . S
C1571 H1558 0.929 . S
C1571 C1563 1.433 . S
C1571 N1573 1.384 . S
N1572 C1568 1.427 . S
N1572 C1569 1.384 . S
N1573 C1565 1.427 . S
N1573 C1571 1.384 . S
H1574 C1580 0.930 . S
H1575 C1584 0.930 . S
H1576 C1589 0.929 . S
H1577 C1587 0.929 . S
H1578 C1582 0.929 . S
H1579 C1588 0.929 . S
C1580 H1574 0.930 . S
C1580 C1581 1.367 1_565 S
C1580 C1588 1.378 . S
C1581 C1580 1.367 1_545 S
C1581 C1589 1.433 . S
C1582 H1578 0.929 . S
C1582 C1584 1.378 . S
C1582 C1586 1.350 1_545 S
C1583 C1586 1.463 1_545 S
C1583 C1588 1.350 1_545 S
C1583 N1591 1.427 . S
C1584 H1575 0.930 . S
C1584 C1582 1.378 . S
C1584 C1585 1.367 1_545 S
C1585 C1584 1.367 1_565 S
C1585 C1587 1.433 . S
C1586 C1582 1.350 1_565 S
C1586 C1583 1.463 1_565 S
C1586 N1590 1.427 . S
C1587 H1577 0.929 . S
C1587 C1585 1.433 . S
C1587 N1590 1.384 . S
C1588 H1579 0.929 . S
C1588 C1580 1.378 . S
C1588 C1583 1.350 1_565 S
C1589 H1576 0.929 . S
C1589 C1581 1.433 . S
C1589 N1591 1.384 . S
N1590 C1586 1.427 . S
N1590 C1587 1.384 . S
N1591 C1583 1.427 . S
N1591 C1589 1.384 . S
H1592 C1598 0.930 . S
H1593 C1602 0.930 . S
H1594 C1607 0.929 . S
H1595 C1605 0.929 . S
H1596 C1600 0.929 . S
H1597 C1606 0.929 . S
C1598 H1592 0.930 . S
C1598 C1599 1.367 . S
C1598 C1606 1.378 . S
C1599 C1598 1.367 . S
C1599 C1607 1.433 . S
C1600 H1596 0.929 . S
C1600 C1602 1.378 . S
C1600 C1604 1.350 . S
C1601 C1604 1.463 . S
C1601 C1606 1.350 . S
C1601 N1609 1.427 . S
C1602 H1593 0.930 . S
C1602 C1600 1.378 . S
C1602 C1603 1.367 . S
C1603 C1602 1.367 . S
C1603 C1605 1.433 . S
C1604 C1600 1.350 . S
C1604 C1601 1.463 . S
C1604 N1608 1.427 . S
C1605 H1595 0.929 . S
C1605 C1603 1.433 . S
C1605 N1608 1.384 . S
C1606 H1597 0.929 . S
C1606 C1598 1.378 . S
C1606 C1601 1.350 . S
C1607 H1594 0.929 . S
C1607 C1599 1.433 . S
C1607 N1609 1.384 . S
N1608 C1604 1.427 . S
N1608 C1605 1.384 . S
N1609 C1601 1.427 . S
N1609 C1607 1.384 . S
H1610 C1616 0.930 . S
H1611 C1620 0.930 . S
H1612 C1625 0.929 . S
H1613 C1623 0.929 . S
H1614 C1618 0.929 . S
H1615 C1624 0.929 . S
C1616 H1610 0.930 . S
C1616 C1617 1.367 . S
C1616 C1624 1.378 . S
C1617 C1616 1.367 . S
C1617 C1625 1.433 . S
C1618 H1614 0.929 . S
C1618 C1620 1.378 . S
C1618 C1622 1.350 . S
C1619 C1622 1.463 . S
C1619 C1624 1.350 . S
C1619 N1627 1.427 . S
C1620 H1611 0.930 . S
C1620 C1618 1.378 . S
C1620 C1621 1.367 . S
C1621 C1620 1.367 . S
C1621 C1623 1.433 . S
C1622 C1618 1.350 . S
C1622 C1619 1.463 . S
C1622 N1626 1.427 . S
C1623 H1613 0.929 . S
C1623 C1621 1.433 . S
C1623 N1626 1.384 . S
C1624 H1615 0.929 . S
C1624 C1616 1.378 . S
C1624 C1619 1.350 . S
C1625 H1612 0.929 . S
C1625 C1617 1.433 . S
C1625 N1627 1.384 . S
N1626 C1622 1.427 . S
N1626 C1623 1.384 . S
N1627 C1619 1.427 . S
N1627 C1625 1.384 . S
H1628 C1634 0.930 . S
H1629 C1638 0.930 . S
H1630 C1643 0.929 . S
H1631 C1641 0.929 . S
H1632 C1636 0.929 . S
H1633 C1642 0.929 . S
C1634 H1628 0.930 . S
C1634 C1635 1.367 . S
C1634 C1642 1.378 . S
C1635 C1634 1.367 . S
C1635 C1643 1.433 . S
C1636 H1632 0.929 . S
C1636 C1638 1.378 . S
C1636 C1640 1.350 . S
C1637 C1640 1.463 . S
C1637 C1642 1.350 . S
C1637 N1645 1.427 . S
C1638 H1629 0.930 . S
C1638 C1636 1.378 . S
C1638 C1639 1.367 . S
C1639 C1638 1.367 . S
C1639 C1641 1.433 . S
C1640 C1636 1.350 . S
C1640 C1637 1.463 . S
C1640 N1644 1.427 . S
C1641 H1631 0.929 . S
C1641 C1639 1.433 . S
C1641 N1644 1.384 . S
C1642 H1633 0.929 . S
C1642 C1634 1.378 . S
C1642 C1637 1.350 . S
C1643 H1630 0.929 . S
C1643 C1635 1.433 . S
C1643 N1645 1.384 . S
N1644 C1640 1.427 . S
N1644 C1641 1.384 . S
N1645 C1637 1.427 . S
N1645 C1643 1.384 . S
H1646 C1652 0.930 . S
H1647 C1656 0.930 . S
H1648 C1661 0.941 . S
H1649 C1659 0.941 . S
H1650 C1654 0.929 . S
H1651 C1660 0.929 . S
C1652 H1646 0.930 . S
C1652 C1653 1.367 1_554 S
C1652 C1660 1.378 . S
C1653 C1652 1.367 1_556 S
C1653 C1661 1.416 1_545 S
C1654 H1650 0.929 . S
C1654 C1656 1.378 . S
C1654 C1658 1.350 1_556 S
C1655 C1658 1.463 1_546 S
C1655 C1660 1.350 1_556 S
C1655 N1663 1.427 1_545 S
C1656 H1647 0.930 . S
C1656 C1654 1.378 . S
C1656 C1657 1.367 1_556 S
C1657 C1656 1.367 1_554 S
C1657 C1659 1.416 1_565 S
C1658 C1654 1.350 1_554 S
C1658 C1655 1.463 1_564 S
C1658 N1662 1.427 1_565 S
C1659 H1649 0.941 . S
C1659 C1657 1.416 1_545 S
C1659 N1662 1.391 . S
C1660 H1651 0.929 . S
C1660 C1652 1.378 . S
C1660 C1655 1.350 1_554 S
C1661 H1648 0.941 . S
C1661 C1653 1.416 1_565 S
C1661 N1663 1.391 . S
N1662 C1658 1.427 1_545 S
N1662 C1659 1.391 . S
N1663 C1655 1.427 1_565 S
N1663 C1661 1.391 . S
H1664 C1670 0.930 . S
H1665 C1674 0.930 . S
H1666 C1679 0.929 . S
H1667 C1677 0.929 . S
H1668 C1672 0.929 . S
H1669 C1678 0.929 . S
C1670 H1664 0.930 . S
C1670 C1671 1.367 . S
C1670 C1678 1.378 . S
C1671 C1670 1.367 . S
C1671 C1679 1.433 . S
C1672 H1668 0.929 . S
C1672 C1674 1.378 . S
C1672 C1676 1.350 . S
C1673 C1676 1.463 . S
C1673 C1678 1.350 . S
C1673 N1681 1.427 . S
C1674 H1665 0.930 . S
C1674 C1672 1.378 . S
C1674 C1675 1.367 . S
C1675 C1674 1.367 . S
C1675 C1677 1.433 . S
C1676 C1672 1.350 . S
C1676 C1673 1.463 . S
C1676 N1680 1.427 . S
C1677 H1667 0.929 . S
C1677 C1675 1.433 . S
C1677 N1680 1.384 . S
C1678 H1669 0.929 . S
C1678 C1670 1.378 . S
C1678 C1673 1.350 . S
C1679 H1666 0.929 . S
C1679 C1671 1.433 . S
C1679 N1681 1.384 . S
N1680 C1676 1.427 . S
N1680 C1677 1.384 . S
N1681 C1673 1.427 . S
N1681 C1679 1.384 . S
H1682 C1688 0.930 . S
H1683 C1692 0.930 . S
H1684 C1697 0.929 . S
H1685 C1695 0.929 . S
H1686 C1690 0.929 . S
H1687 C1696 0.929 . S
C1688 H1682 0.930 . S
C1688 C1689 1.367 . S
C1688 C1696 1.378 . S
C1689 C1688 1.367 . S
C1689 C1697 1.433 . S
C1690 H1686 0.929 . S
C1690 C1692 1.378 . S
C1690 C1694 1.350 . S
C1691 C1694 1.463 . S
C1691 C1696 1.350 . S
C1691 N1699 1.427 . S
C1692 H1683 0.930 . S
C1692 C1690 1.378 . S
C1692 C1693 1.367 . S
C1693 C1692 1.367 . S
C1693 C1695 1.433 . S
C1694 C1690 1.350 . S
C1694 C1691 1.463 . S
C1694 N1698 1.427 . S
C1695 H1685 0.929 . S
C1695 C1693 1.433 . S
C1695 N1698 1.384 . S
C1696 H1687 0.929 . S
C1696 C1688 1.378 . S
C1696 C1691 1.350 . S
C1697 H1684 0.929 . S
C1697 C1689 1.433 . S
C1697 N1699 1.384 . S
N1698 C1694 1.427 . S
N1698 C1695 1.384 . S
N1699 C1691 1.427 . S
N1699 C1697 1.384 . S
H1700 C1706 0.930 . S
H1701 C1710 0.930 . S
H1702 C1715 0.929 . S
H1703 C1713 0.929 . S
H1704 C1708 0.929 . S
H1705 C1714 0.929 . S
C1706 H1700 0.930 . S
C1706 C1707 1.367 . S
C1706 C1714 1.378 . S
C1707 C1706 1.367 . S
C1707 C1715 1.433 1_556 S
C1708 H1704 0.929 . S
C1708 C1710 1.378 . S
C1708 C1712 1.350 . S
C1709 C1712 1.463 . S
C1709 C1714 1.350 . S
C1709 N1717 1.427 . S
C1710 H1701 0.930 . S
C1710 C1708 1.378 . S
C1710 C1711 1.367 . S
C1711 C1710 1.367 . S
C1711 C1713 1.433 . S
C1712 C1708 1.350 . S
C1712 C1709 1.463 . S
C1712 N1716 1.427 . S
C1713 H1703 0.929 . S
C1713 C1711 1.433 . S
C1713 N1716 1.384 . S
C1714 H1705 0.929 . S
C1714 C1706 1.378 . S
C1714 C1709 1.350 . S
C1715 H1702 0.929 . S
C1715 C1707 1.433 1_554 S
C1715 N1717 1.384 1_554 S
N1716 C1712 1.427 . S
N1716 C1713 1.384 . S
N1717 C1709 1.427 . S
N1717 C1715 1.384 1_556 S
H1718 C1724 0.930 . S
H1719 C1728 0.930 1_554 S
H1720 C1733 0.929 . S
H1721 C1731 0.929 . S
H1722 C1726 0.929 . S
H1723 C1732 0.929 . S
C1724 H1718 0.930 . S
C1724 C1725 1.367 . S
C1724 C1732 1.378 . S
C1725 C1724 1.367 . S
C1725 C1733 1.433 . S
C1726 H1722 0.929 . S
C1726 C1728 1.378 . S
C1726 C1730 1.350 . S
C1727 C1730 1.463 . S
C1727 C1732 1.350 . S
C1727 N1735 1.427 . S
C1728 H1719 0.930 1_556 S
C1728 C1726 1.378 . S
C1728 C1729 1.367 . S
C1729 C1728 1.367 . S
C1729 C1731 1.433 . S
C1730 C1726 1.350 . S
C1730 C1727 1.463 . S
C1730 N1734 1.427 . S
C1731 H1721 0.929 . S
C1731 C1729 1.433 . S
C1731 N1734 1.384 . S
C1732 H1723 0.929 . S
C1732 C1724 1.378 . S
C1732 C1727 1.350 . S
C1733 H1720 0.929 . S
C1733 C1725 1.433 . S
C1733 N1735 1.384 . S
N1734 C1730 1.427 . S
N1734 C1731 1.384 . S
N1735 C1727 1.427 . S
N1735 C1733 1.384 . S
H1736 C1742 0.930 . S
H1737 C1746 0.930 . S
H1738 C1751 0.929 . S
H1739 C1749 0.929 . S
H1740 C1744 0.929 . S
H1741 C1750 0.929 . S
C1742 H1736 0.930 . S
C1742 C1743 1.367 . S
C1742 C1750 1.378 . S
C1743 C1742 1.367 . S
C1743 C1751 1.433 . S
C1744 H1740 0.929 . S
C1744 C1746 1.378 . S
C1744 C1748 1.350 . S
C1745 C1748 1.463 . S
C1745 C1750 1.350 . S
C1745 N1753 1.427 . S
C1746 H1737 0.930 . S
C1746 C1744 1.378 . S
C1746 C1747 1.367 . S
C1747 C1746 1.367 . S
C1747 C1749 1.433 . S
C1748 C1744 1.350 . S
C1748 C1745 1.463 . S
C1748 N1752 1.427 . S
C1749 H1739 0.929 . S
C1749 C1747 1.433 . S
C1749 N1752 1.384 . S
C1750 H1741 0.929 . S
C1750 C1742 1.378 . S
C1750 C1745 1.350 . S
C1751 H1738 0.929 . S
C1751 C1743 1.433 . S
C1751 N1753 1.384 . S
N1752 C1748 1.427 . S
N1752 C1749 1.384 . S
N1753 C1745 1.427 . S
N1753 C1751 1.384 . S
H1754 C1760 0.930 . S
H1755 C1764 0.930 . S
H1756 C1769 0.929 . S
H1757 C1767 0.929 . S
H1758 C1762 0.929 . S
H1759 C1768 0.929 . S
C1760 H1754 0.930 . S
C1760 C1761 1.367 . S
C1760 C1768 1.378 . S
C1761 C1760 1.367 . S
C1761 C1769 1.433 . S
C1762 H1758 0.929 . S
C1762 C1764 1.378 . S
C1762 C1766 1.350 . S
C1763 C1766 1.463 . S
C1763 C1768 1.350 . S
C1763 N1771 1.427 . S
C1764 H1755 0.930 . S
C1764 C1762 1.378 . S
C1764 C1765 1.367 . S
C1765 C1764 1.367 . S
C1765 C1767 1.433 . S
C1766 C1762 1.350 . S
C1766 C1763 1.463 . S
C1766 N1770 1.427 . S
C1767 H1757 0.929 . S
C1767 C1765 1.433 . S
C1767 N1770 1.384 . S
C1768 H1759 0.929 . S
C1768 C1760 1.378 . S
C1768 C1763 1.350 . S
C1769 H1756 0.929 . S
C1769 C1761 1.433 . S
C1769 N1771 1.384 . S
N1770 C1766 1.427 . S
N1770 C1767 1.384 . S
N1771 C1763 1.427 . S
N1771 C1769 1.384 . S
H1772 C1778 0.930 . S
H1773 C1782 0.930 . S
H1774 C1787 0.924 1_556 S
H1775 C1785 0.929 . S
H1776 C1780 0.929 . S
H1777 C1786 0.929 . S
C1778 H1772 0.930 . S
C1778 C1779 1.367 . S
C1778 C1786 1.378 . S
C1779 C1778 1.367 . S
C1779 C1787 1.435 . S
C1780 H1776 0.929 . S
C1780 C1782 1.378 . S
C1780 C1784 1.350 . S
C1781 C1784 1.463 . S
C1781 C1786 1.350 . S
C1781 N1789 1.427 . S
C1782 H1773 0.930 . S
C1782 C1780 1.378 . S
C1782 C1783 1.367 . S
C1783 C1782 1.367 . S
C1783 C1785 1.433 . S
C1784 C1780 1.350 . S
C1784 C1781 1.463 . S
C1784 N1788 1.427 . S
C1785 H1775 0.929 . S
C1785 C1783 1.433 . S
C1785 N1788 1.384 . S
C1786 H1777 0.929 . S
C1786 C1778 1.378 . S
C1786 C1781 1.350 . S
C1787 H1774 0.924 1_554 S
C1787 C1779 1.435 . S
C1787 N1789 1.388 . S
N1788 C1784 1.427 . S
N1788 C1785 1.384 . S
N1789 C1781 1.427 . S
N1789 C1787 1.388 . S
H1790 C1796 0.930 . S
H1791 C1800 0.930 . S
H1792 C1805 0.929 . S
H1793 C1803 0.929 1_556 S
H1794 C1798 0.929 . S
H1795 C1804 0.929 . S
C1796 H1790 0.930 . S
C1796 C1797 1.367 . S
C1796 C1804 1.378 . S
C1797 C1796 1.367 . S
C1797 C1805 1.433 . S
C1798 H1794 0.929 . S
C1798 C1800 1.378 . S
C1798 C1802 1.350 . S
C1799 C1802 1.463 . S
C1799 C1804 1.350 . S
C1799 N1807 1.427 . S
C1800 H1791 0.930 . S
C1800 C1798 1.378 . S
C1800 C1801 1.367 . S
C1801 C1800 1.367 . S
C1801 C1803 1.433 . S
C1802 C1798 1.350 . S
C1802 C1799 1.463 . S
C1802 N1806 1.427 . S
C1803 H1793 0.929 1_554 S
C1803 C1801 1.433 . S
C1803 N1806 1.384 . S
C1804 H1795 0.929 . S
C1804 C1796 1.378 . S
C1804 C1799 1.350 . S
C1805 H1792 0.929 . S
C1805 C1797 1.433 . S
C1805 N1807 1.384 . S
N1806 C1802 1.427 . S
N1806 C1803 1.384 . S
N1807 C1799 1.427 . S
N1807 C1805 1.384 . S
H1808 C1814 0.930 1_554 S
H1809 C1818 0.930 . S
H1810 C1823 0.929 . S
H1811 C1821 0.929 . S
H1812 C1816 0.929 . S
H1813 C1822 0.929 . S
C1814 H1808 0.930 1_556 S
C1814 C1815 1.367 . S
C1814 C1822 1.378 . S
C1815 C1814 1.367 . S
C1815 C1823 1.433 . S
C1816 H1812 0.929 . S
C1816 C1818 1.378 . S
C1816 C1820 1.350 . S
C1817 C1820 1.463 . S
C1817 C1822 1.350 . S
C1817 N1825 1.427 . S
C1818 H1809 0.930 . S
C1818 C1816 1.378 . S
C1818 C1819 1.367 . S
C1819 C1818 1.367 . S
C1819 C1821 1.433 . S
C1820 C1816 1.350 . S
C1820 C1817 1.463 . S
C1820 N1824 1.427 . S
C1821 H1811 0.929 . S
C1821 C1819 1.433 . S
C1821 N1824 1.384 . S
C1822 H1813 0.929 . S
C1822 C1814 1.378 . S
C1822 C1817 1.350 . S
C1823 H1810 0.929 . S
C1823 C1815 1.433 . S
C1823 N1825 1.384 . S
N1824 C1820 1.427 . S
N1824 C1821 1.384 . S
N1825 C1817 1.427 . S
N1825 C1823 1.384 . S
H1826 C1832 0.930 . S
H1827 C1836 0.930 . S
H1828 C1841 0.929 . S
H1829 C1839 0.929 . S
H1830 C1834 0.929 . S
H1831 C1840 0.929 . S
C1832 H1826 0.930 . S
C1832 C1833 1.367 . S
C1832 C1840 1.378 . S
C1833 C1832 1.367 . S
C1833 C1841 1.433 . S
C1834 H1830 0.929 . S
C1834 C1836 1.378 . S
C1834 C1838 1.350 . S
C1835 C1838 1.463 . S
C1835 C1840 1.350 . S
C1835 N1843 1.427 . S
C1836 H1827 0.930 . S
C1836 C1834 1.378 . S
C1836 C1837 1.367 . S
C1837 C1836 1.367 . S
C1837 C1839 1.433 1_556 S
C1838 C1834 1.350 . S
C1838 C1835 1.463 . S
C1838 N1842 1.427 . S
C1839 H1829 0.929 . S
C1839 C1837 1.433 1_554 S
C1839 N1842 1.384 1_554 S
C1840 H1831 0.929 . S
C1840 C1832 1.378 . S
C1840 C1835 1.350 . S
C1841 H1828 0.929 . S
C1841 C1833 1.433 . S
C1841 N1843 1.384 . S
N1842 C1838 1.427 . S
N1842 C1839 1.384 1_556 S
N1843 C1835 1.427 . S
N1843 C1841 1.384 . S
H1844 C1850 0.930 . S
H1845 C1854 0.930 . S
H1846 C1859 0.929 . S
H1847 C1857 0.929 . S
H1848 C1852 0.929 . S
H1849 C1858 0.929 . S
C1850 H1844 0.930 . S
C1850 C1851 1.367 . S
C1850 C1858 1.378 . S
C1851 C1850 1.367 . S
C1851 C1859 1.433 . S
C1852 H1848 0.929 . S
C1852 C1854 1.378 . S
C1852 C1856 1.350 . S
C1853 C1856 1.463 . S
C1853 C1858 1.350 . S
C1853 N1861 1.427 . S
C1854 H1845 0.930 . S
C1854 C1852 1.378 . S
C1854 C1855 1.367 . S
C1855 C1854 1.367 . S
C1855 C1857 1.433 . S
C1856 C1852 1.350 . S
C1856 C1853 1.463 . S
C1856 N1860 1.427 . S
C1857 H1847 0.929 . S
C1857 C1855 1.433 . S
C1857 N1860 1.384 . S
C1858 H1849 0.929 . S
C1858 C1850 1.378 . S
C1858 C1853 1.350 . S
C1859 H1846 0.929 . S
C1859 C1851 1.433 . S
C1859 N1861 1.384 . S
N1860 C1856 1.427 . S
N1860 C1857 1.384 . S
N1861 C1853 1.427 . S
N1861 C1859 1.384 . S
H1862 C1868 0.930 . S
H1863 C1872 0.930 . S
H1864 C1877 0.929 . S
H1865 C1875 0.929 . S
H1866 C1870 0.929 . S
H1867 C1876 0.929 . S
C1868 H1862 0.930 . S
C1868 C1869 1.367 . S
C1868 C1876 1.378 . S
C1869 C1868 1.367 . S
C1869 C1877 1.433 . S
C1870 H1866 0.929 . S
C1870 C1872 1.378 . S
C1870 C1874 1.350 . S
C1871 C1874 1.463 . S
C1871 C1876 1.350 . S
C1871 N1879 1.427 . S
C1872 H1863 0.930 . S
C1872 C1870 1.378 . S
C1872 C1873 1.367 . S
C1873 C1872 1.367 . S
C1873 C1875 1.433 . S
C1874 C1870 1.350 . S
C1874 C1871 1.463 . S
C1874 N1878 1.427 . S
C1875 H1865 0.929 . S
C1875 C1873 1.433 . S
C1875 N1878 1.384 . S
C1876 H1867 0.929 . S
C1876 C1868 1.378 . S
C1876 C1871 1.350 . S
C1877 H1864 0.929 . S
C1877 C1869 1.433 . S
C1877 N1879 1.384 . S
N1878 C1874 1.427 . S
N1878 C1875 1.384 . S
N1879 C1871 1.427 . S
N1879 C1877 1.384 . S
H1880 C1886 0.930 . S
H1881 C1890 0.930 . S
H1882 C1895 0.929 . S
H1883 C1893 0.929 . S
H1884 C1888 0.929 . S
H1885 C1894 0.929 . S
C1886 H1880 0.930 . S
C1886 C1887 1.367 . S
C1886 C1894 1.378 . S
C1887 C1886 1.367 . S
C1887 C1895 1.433 . S
C1888 H1884 0.929 . S
C1888 C1890 1.378 1_554 S
C1888 C1892 1.350 . S
C1889 C1892 1.463 . S
C1889 C1894 1.350 . S
C1889 N1897 1.427 . S
C1890 H1881 0.930 . S
C1890 C1888 1.378 1_556 S
C1890 C1891 1.367 1_556 S
C1891 C1890 1.367 1_554 S
C1891 C1893 1.433 . S
C1892 C1888 1.350 . S
C1892 C1889 1.463 . S
C1892 N1896 1.427 . S
C1893 H1883 0.929 . S
C1893 C1891 1.433 . S
C1893 N1896 1.384 . S
C1894 H1885 0.929 . S
C1894 C1886 1.378 . S
C1894 C1889 1.350 . S
C1895 H1882 0.929 . S
C1895 C1887 1.433 . S
C1895 N1897 1.384 . S
N1896 C1892 1.427 . S
N1896 C1893 1.384 . S
N1897 C1889 1.427 . S
N1897 C1895 1.384 . S
H1898 C1904 0.930 . S
H1899 C1908 0.930 . S
H1900 C1913 0.929 . S
H1901 C1911 0.929 . S
H1902 C1906 0.929 . S
H1903 C1912 0.929 . S
C1904 H1898 0.930 . S
C1904 C1905 1.367 . S
C1904 C1912 1.378 . S
C1905 C1904 1.367 . S
C1905 C1913 1.433 1_554 S
C1906 H1902 0.929 . S
C1906 C1908 1.378 . S
C1906 C1910 1.350 . S
C1907 C1910 1.463 . S
C1907 C1912 1.350 . S
C1907 N1915 1.427 . S
C1908 H1899 0.930 . S
C1908 C1906 1.378 . S
C1908 C1909 1.367 . S
C1909 C1908 1.367 . S
C1909 C1911 1.433 . S
C1910 C1906 1.350 . S
C1910 C1907 1.463 . S
C1910 N1914 1.427 . S
C1911 H1901 0.929 . S
C1911 C1909 1.433 . S
C1911 N1914 1.384 . S
C1912 H1903 0.929 . S
C1912 C1904 1.378 . S
C1912 C1907 1.350 . S
C1913 H1900 0.929 . S
C1913 C1905 1.433 1_556 S
C1913 N1915 1.384 1_556 S
N1914 C1910 1.427 . S
N1914 C1911 1.384 . S
N1915 C1907 1.427 . S
N1915 C1913 1.384 1_554 S
H1916 C1922 0.930 . S
H1917 C1926 0.930 . S
H1918 C1931 0.929 . S
H1919 C1929 0.929 . S
H1920 C1924 0.929 . S
H1921 C1930 0.929 . S
C1922 H1916 0.930 . S
C1922 C1923 1.367 . S
C1922 C1930 1.378 . S
C1923 C1922 1.367 . S
C1923 C1931 1.433 . S
C1924 H1920 0.929 . S
C1924 C1926 1.378 . S
C1924 C1928 1.350 . S
C1925 C1928 1.463 . S
C1925 C1930 1.350 . S
C1925 N1933 1.427 . S
C1926 H1917 0.930 . S
C1926 C1924 1.378 . S
C1926 C1927 1.367 . S
C1927 C1926 1.367 . S
C1927 C1929 1.433 . S
C1928 C1924 1.350 . S
C1928 C1925 1.463 . S
C1928 N1932 1.427 . S
C1929 H1919 0.929 . S
C1929 C1927 1.433 . S
C1929 N1932 1.384 . S
C1930 H1921 0.929 . S
C1930 C1922 1.378 . S
C1930 C1925 1.350 . S
C1931 H1918 0.929 . S
C1931 C1923 1.433 . S
C1931 N1933 1.384 . S
N1932 C1928 1.427 . S
N1932 C1929 1.384 . S
N1933 C1925 1.427 . S
N1933 C1931 1.384 . S
H1934 C1940 0.930 . S
H1935 C1944 0.930 . S
H1936 C1949 0.929 . S
H1937 C1947 0.929 . S
H1938 C1942 0.929 . S
H1939 C1948 0.929 . S
C1940 H1934 0.930 . S
C1940 C1941 1.367 . S
C1940 C1948 1.378 . S
C1941 C1940 1.367 . S
C1941 C1949 1.433 . S
C1942 H1938 0.929 . S
C1942 C1944 1.378 . S
C1942 C1946 1.350 . S
C1943 C1946 1.463 . S
C1943 C1948 1.350 . S
C1943 N1951 1.427 . S
C1944 H1935 0.930 . S
C1944 C1942 1.378 . S
C1944 C1945 1.367 . S
C1945 C1944 1.367 . S
C1945 C1947 1.433 . S
C1946 C1942 1.350 . S
C1946 C1943 1.463 . S
C1946 N1950 1.427 . S
C1947 H1937 0.929 . S
C1947 C1945 1.433 . S
C1947 N1950 1.384 . S
C1948 H1939 0.929 . S
C1948 C1940 1.378 . S
C1948 C1943 1.350 . S
C1949 H1936 0.929 . S
C1949 C1941 1.433 . S
C1949 N1951 1.384 . S
N1950 C1946 1.427 . S
N1950 C1947 1.384 . S
N1951 C1943 1.427 . S
N1951 C1949 1.384 . S
H1952 C1958 0.930 . S
H1953 C1962 0.930 . S
H1954 C1967 0.929 . S
H1955 C1965 0.929 . S
H1956 C1960 0.929 . S
H1957 C1966 0.929 . S
C1958 H1952 0.930 . S
C1958 C1959 1.367 . S
C1958 C1966 1.378 . S
C1959 C1958 1.367 . S
C1959 C1967 1.433 . S
C1960 H1956 0.929 . S
C1960 C1962 1.378 . S
C1960 C1964 1.350 . S
C1961 C1964 1.463 . S
C1961 C1966 1.350 . S
C1961 N1969 1.427 . S
C1962 H1953 0.930 . S
C1962 C1960 1.378 . S
C1962 C1963 1.367 . S
C1963 C1962 1.367 . S
C1963 C1965 1.433 1_556 S
C1964 C1960 1.350 . S
C1964 C1961 1.463 . S
C1964 N1968 1.427 . S
C1965 H1955 0.929 . S
C1965 C1963 1.433 1_554 S
C1965 N1968 1.384 1_554 S
C1966 H1957 0.929 . S
C1966 C1958 1.378 . S
C1966 C1961 1.350 . S
C1967 H1954 0.929 . S
C1967 C1959 1.433 . S
C1967 N1969 1.384 . S
N1968 C1964 1.427 . S
N1968 C1965 1.384 1_556 S
N1969 C1961 1.427 . S
N1969 C1967 1.384 . S
H1970 C1976 0.930 . S
H1971 C1980 0.930 . S
H1972 C1985 0.929 . S
H1973 C1983 0.929 . S
H1974 C1978 0.929 . S
H1975 C1984 0.929 . S
C1976 H1970 0.930 . S
C1976 C1977 1.367 . S
C1976 C1984 1.378 . S
C1977 C1976 1.367 . S
C1977 C1985 1.433 1_556 S
C1978 H1974 0.929 . S
C1978 C1980 1.378 . S
C1978 C1982 1.350 . S
C1979 C1982 1.463 . S
C1979 C1984 1.350 . S
C1979 N1987 1.427 . S
C1980 H1971 0.930 . S
C1980 C1978 1.378 . S
C1980 C1981 1.367 . S
C1981 C1980 1.367 . S
C1981 C1983 1.433 . S
C1982 C1978 1.350 . S
C1982 C1979 1.463 . S
C1982 N1986 1.427 . S
C1983 H1973 0.929 . S
C1983 C1981 1.433 . S
C1983 N1986 1.384 . S
C1984 H1975 0.929 . S
C1984 C1976 1.378 . S
C1984 C1979 1.350 . S
C1985 H1972 0.929 . S
C1985 C1977 1.433 1_554 S
C1985 N1987 1.384 1_554 S
N1986 C1982 1.427 . S
N1986 C1983 1.384 . S
N1987 C1979 1.427 . S
N1987 C1985 1.384 1_556 S
H1988 C1994 0.930 . S
H1989 C1998 0.930 . S
H1990 C2003 0.929 . S
H1991 C2001 0.929 . S
H1992 C1996 0.929 . S
H1993 C2002 0.929 . S
C1994 H1988 0.930 . S
C1994 C1995 1.367 . S
C1994 C2002 1.378 . S
C1995 C1994 1.367 . S
C1995 C2003 1.433 . S
C1996 H1992 0.929 . S
C1996 C1998 1.378 . S
C1996 C2000 1.350 . S
C1997 C2000 1.463 . S
C1997 C2002 1.350 . S
C1997 N2005 1.427 . S
C1998 H1989 0.930 . S
C1998 C1996 1.378 . S
C1998 C1999 1.367 . S
C1999 C1998 1.367 . S
C1999 C2001 1.433 . S
C2000 C1996 1.350 . S
C2000 C1997 1.463 . S
C2000 N2004 1.427 . S
C2001 H1991 0.929 . S
C2001 C1999 1.433 . S
C2001 N2004 1.384 . S
C2002 H1993 0.929 . S
C2002 C1994 1.378 . S
C2002 C1997 1.350 . S
C2003 H1990 0.929 . S
C2003 C1995 1.433 . S
C2003 N2005 1.384 . S
N2004 C2000 1.427 . S
N2004 C2001 1.384 . S
N2005 C1997 1.427 . S
N2005 C2003 1.384 . S
H2006 C2012 0.930 . S
H2007 C2016 0.930 . S
H2008 C2021 0.929 . S
H2009 C2019 0.929 . S
H2010 C2014 0.929 . S
H2011 C2020 0.929 . S
C2012 H2006 0.930 . S
C2012 C2013 1.367 . S
C2012 C2020 1.378 . S
C2013 C2012 1.367 . S
C2013 C2021 1.433 . S
C2014 H2010 0.929 . S
C2014 C2016 1.378 . S
C2014 C2018 1.350 . S
C2015 C2018 1.463 . S
C2015 C2020 1.350 . S
C2015 N2023 1.427 . S
C2016 H2007 0.930 . S
C2016 C2014 1.378 . S
C2016 C2017 1.367 . S
C2017 C2016 1.367 . S
C2017 C2019 1.433 . S
C2018 C2014 1.350 . S
C2018 C2015 1.463 . S
C2018 N2022 1.427 . S
C2019 H2009 0.929 . S
C2019 C2017 1.433 . S
C2019 N2022 1.384 . S
C2020 H2011 0.929 . S
C2020 C2012 1.378 . S
C2020 C2015 1.350 . S
C2021 H2008 0.929 . S
C2021 C2013 1.433 . S
C2021 N2023 1.384 . S
N2022 C2018 1.427 . S
N2022 C2019 1.384 . S
N2023 C2015 1.427 . S
N2023 C2021 1.384 . S
H2024 C2030 0.919 1_556 S
H2025 C2034 0.930 . S
H2026 C2039 0.929 . S
H2027 C2037 0.929 . S
H2028 C2032 0.929 . S
H2029 C2038 0.929 . S
C2030 H2024 0.919 1_554 S
C2030 C2031 1.370 . S
C2030 C2038 1.386 . S
C2031 C2030 1.370 . S
C2031 C2039 1.433 . S
C2032 H2028 0.929 . S
C2032 C2034 1.378 . S
C2032 C2036 1.350 . S
C2033 C2036 1.463 . S
C2033 C2038 1.350 . S
C2033 N2041 1.427 . S
C2034 H2025 0.930 . S
C2034 C2032 1.378 . S
C2034 C2035 1.367 . S
C2035 C2034 1.367 . S
C2035 C2037 1.433 . S
C2036 C2032 1.350 . S
C2036 C2033 1.463 . S
C2036 N2040 1.427 . S
C2037 H2027 0.929 . S
C2037 C2035 1.433 . S
C2037 N2040 1.384 . S
C2038 H2029 0.929 . S
C2038 C2030 1.386 . S
C2038 C2033 1.350 . S
C2039 H2026 0.929 . S
C2039 C2031 1.433 . S
C2039 N2041 1.384 . S
N2040 C2036 1.427 . S
N2040 C2037 1.384 . S
N2041 C2033 1.427 . S
N2041 C2039 1.384 . S
H2042 C2048 0.930 . S
H2043 C2052 0.930 . S
H2044 C2057 0.929 . S
H2045 C2055 0.929 . S
H2046 C2050 0.929 . S
H2047 C2056 0.929 . S
C2048 H2042 0.930 . S
C2048 C2049 1.367 . S
C2048 C2056 1.378 . S
C2049 C2048 1.367 . S
C2049 C2057 1.433 1_554 S
C2050 H2046 0.929 . S
C2050 C2052 1.378 . S
C2050 C2054 1.350 . S
C2051 C2054 1.463 . S
C2051 C2056 1.350 . S
C2051 N2059 1.427 . S
C2052 H2043 0.930 . S
C2052 C2050 1.378 . S
C2052 C2053 1.367 . S
C2053 C2052 1.367 . S
C2053 C2055 1.433 . S
C2054 C2050 1.350 . S
C2054 C2051 1.463 . S
C2054 N2058 1.427 . S
C2055 H2045 0.929 . S
C2055 C2053 1.433 . S
C2055 N2058 1.384 . S
C2056 H2047 0.929 . S
C2056 C2048 1.378 . S
C2056 C2051 1.350 . S
C2057 H2044 0.929 . S
C2057 C2049 1.433 1_556 S
C2057 N2059 1.384 1_556 S
N2058 C2054 1.427 . S
N2058 C2055 1.384 . S
N2059 C2051 1.427 . S
N2059 C2057 1.384 1_554 S
H2060 C2066 0.930 . S
H2061 C2070 0.930 . S
H2062 C2075 0.929 . S
H2063 C2073 0.929 . S
H2064 C2068 0.929 . S
H2065 C2074 0.929 . S
C2066 H2060 0.930 . S
C2066 C2067 1.367 . S
C2066 C2074 1.378 . S
C2067 C2066 1.367 . S
C2067 C2075 1.433 . S
C2068 H2064 0.929 . S
C2068 C2070 1.378 . S
C2068 C2072 1.350 . S
C2069 C2072 1.463 . S
C2069 C2074 1.350 . S
C2069 N2077 1.427 . S
C2070 H2061 0.930 . S
C2070 C2068 1.378 . S
C2070 C2071 1.367 . S
C2071 C2070 1.367 . S
C2071 C2073 1.433 . S
C2072 C2068 1.350 . S
C2072 C2069 1.463 . S
C2072 N2076 1.427 . S
C2073 H2063 0.929 . S
C2073 C2071 1.433 . S
C2073 N2076 1.384 . S
C2074 H2065 0.929 . S
C2074 C2066 1.378 . S
C2074 C2069 1.350 . S
C2075 H2062 0.929 . S
C2075 C2067 1.433 . S
C2075 N2077 1.384 . S
N2076 C2072 1.427 . S
N2076 C2073 1.384 . S
N2077 C2069 1.427 . S
N2077 C2075 1.384 . S
H2078 C2084 0.930 . S
H2079 C2088 0.930 . S
H2080 C2093 0.929 . S
H2081 C2091 0.929 . S
H2082 C2086 0.929 . S
H2083 C2092 0.929 . S
C2084 H2078 0.930 . S
C2084 C2085 1.367 . S
C2084 C2092 1.378 . S
C2085 C2084 1.367 . S
C2085 C2093 1.433 . S
C2086 H2082 0.929 . S
C2086 C2088 1.378 . S
C2086 C2090 1.350 . S
C2087 C2090 1.463 . S
C2087 C2092 1.350 . S
C2087 N2095 1.427 . S
C2088 H2079 0.930 . S
C2088 C2086 1.378 . S
C2088 C2089 1.367 . S
C2089 C2088 1.367 . S
C2089 C2091 1.433 . S
C2090 C2086 1.350 . S
C2090 C2087 1.463 . S
C2090 N2094 1.427 . S
C2091 H2081 0.929 . S
C2091 C2089 1.433 . S
C2091 N2094 1.384 . S
C2092 H2083 0.929 . S
C2092 C2084 1.378 . S
C2092 C2087 1.350 . S
C2093 H2080 0.929 . S
C2093 C2085 1.433 . S
C2093 N2095 1.384 . S
N2094 C2090 1.427 . S
N2094 C2091 1.384 . S
N2095 C2087 1.427 . S
N2095 C2093 1.384 . S
H2096 C2102 0.930 . S
H2097 C2106 0.930 . S
H2098 C2111 0.929 . S
H2099 C2109 0.929 . S
H2100 C2104 0.929 . S
H2101 C2110 0.929 . S
C2102 H2096 0.930 . S
C2102 C2103 1.367 . S
C2102 C2110 1.378 . S
C2103 C2102 1.367 . S
C2103 C2111 1.433 . S
C2104 H2100 0.929 . S
C2104 C2106 1.378 . S
C2104 C2108 1.350 . S
C2105 C2108 1.463 . S
C2105 C2110 1.350 . S
C2105 N2113 1.427 . S
C2106 H2097 0.930 . S
C2106 C2104 1.378 . S
C2106 C2107 1.367 . S
C2107 C2106 1.367 . S
C2107 C2109 1.433 . S
C2108 C2104 1.350 . S
C2108 C2105 1.463 . S
C2108 N2112 1.427 . S
C2109 H2099 0.929 . S
C2109 C2107 1.433 . S
C2109 N2112 1.384 . S
C2110 H2101 0.929 . S
C2110 C2102 1.378 . S
C2110 C2105 1.350 . S
C2111 H2098 0.929 . S
C2111 C2103 1.433 . S
C2111 N2113 1.384 . S
N2112 C2108 1.427 . S
N2112 C2109 1.384 . S
N2113 C2105 1.427 . S
N2113 C2111 1.384 . S
H2114 C2120 0.930 . S
H2115 C2124 0.930 . S
H2116 C2129 0.929 . S
H2117 C2127 0.929 . S
H2118 C2122 0.929 . S
H2119 C2128 0.929 . S
C2120 H2114 0.930 . S
C2120 C2121 1.367 . S
C2120 C2128 1.378 . S
C2121 C2120 1.367 . S
C2121 C2129 1.433 . S
C2122 H2118 0.929 . S
C2122 C2124 1.378 . S
C2122 C2126 1.350 . S
C2123 C2126 1.463 . S
C2123 C2128 1.350 . S
C2123 N2131 1.427 . S
C2124 H2115 0.930 . S
C2124 C2122 1.378 . S
C2124 C2125 1.367 . S
C2125 C2124 1.367 . S
C2125 C2127 1.433 . S
C2126 C2122 1.350 . S
C2126 C2123 1.463 . S
C2126 N2130 1.427 . S
C2127 H2117 0.929 . S
C2127 C2125 1.433 . S
C2127 N2130 1.384 . S
C2128 H2119 0.929 . S
C2128 C2120 1.378 . S
C2128 C2123 1.350 . S
C2129 H2116 0.929 . S
C2129 C2121 1.433 . S
C2129 N2131 1.384 . S
N2130 C2126 1.427 . S
N2130 C2127 1.384 . S
N2131 C2123 1.427 . S
N2131 C2129 1.384 . S
H2132 C2138 0.930 1_554 S
H2133 C2142 0.930 . S
H2134 C2147 0.929 . S
H2135 C2145 0.929 . S
H2136 C2140 0.929 . S
H2137 C2146 0.929 . S
C2138 H2132 0.930 1_556 S
C2138 C2139 1.367 . S
C2138 C2146 1.378 . S
C2139 C2138 1.367 . S
C2139 C2147 1.433 . S
C2140 H2136 0.929 . S
C2140 C2142 1.378 . S
C2140 C2144 1.350 . S
C2141 C2144 1.463 . S
C2141 C2146 1.350 . S
C2141 N2149 1.427 . S
C2142 H2133 0.930 . S
C2142 C2140 1.378 . S
C2142 C2143 1.367 . S
C2143 C2142 1.367 . S
C2143 C2145 1.433 . S
C2144 C2140 1.350 . S
C2144 C2141 1.463 . S
C2144 N2148 1.427 . S
C2145 H2135 0.929 . S
C2145 C2143 1.433 . S
C2145 N2148 1.384 . S
C2146 H2137 0.929 . S
C2146 C2138 1.378 . S
C2146 C2141 1.350 . S
C2147 H2134 0.929 . S
C2147 C2139 1.433 . S
C2147 N2149 1.384 . S
N2148 C2144 1.427 . S
N2148 C2145 1.384 . S
N2149 C2141 1.427 . S
N2149 C2147 1.384 . S
H2150 C2156 0.930 . S
H2151 C2160 0.930 . S
H2152 C2165 0.929 . S
H2153 C2163 0.940 . S
H2154 C2158 0.929 . S
H2155 C2164 0.929 . S
C2156 H2150 0.930 . S
C2156 C2157 1.367 . S
C2156 C2164 1.378 . S
C2157 C2156 1.367 . S
C2157 C2165 1.433 . S
C2158 H2154 0.929 . S
C2158 C2160 1.378 . S
C2158 C2162 1.350 . S
C2159 C2162 1.463 . S
C2159 C2164 1.350 . S
C2159 N2167 1.427 . S
C2160 H2151 0.930 . S
C2160 C2158 1.378 . S
C2160 C2161 1.367 . S
C2161 C2160 1.367 . S
C2161 C2163 1.430 1_556 S
C2162 C2158 1.350 . S
C2162 C2159 1.463 . S
C2162 N2166 1.427 . S
C2163 H2153 0.940 . S
C2163 C2161 1.430 1_554 S
C2163 N2166 1.376 1_554 S
C2164 H2155 0.929 . S
C2164 C2156 1.378 . S
C2164 C2159 1.350 . S
C2165 H2152 0.929 . S
C2165 C2157 1.433 . S
C2165 N2167 1.384 . S
N2166 C2162 1.427 . S
N2166 C2163 1.376 1_556 S
N2167 C2159 1.427 . S
N2167 C2165 1.384 . S
H2168 C2174 0.930 . S
H2169 C2178 0.930 . S
H2170 C2183 0.929 . S
H2171 C2181 0.929 . S
H2172 C2176 0.929 . S
H2173 C2182 0.929 . S
C2174 H2168 0.930 . S
C2174 C2175 1.367 . S
C2174 C2182 1.378 . S
C2175 C2174 1.367 . S
C2175 C2183 1.433 . S
C2176 H2172 0.929 . S
C2176 C2178 1.378 . S
C2176 C2180 1.350 . S
C2177 C2180 1.463 . S
C2177 C2182 1.350 . S
C2177 N2185 1.427 . S
C2178 H2169 0.930 . S
C2178 C2176 1.378 . S
C2178 C2179 1.367 . S
C2179 C2178 1.367 . S
C2179 C2181 1.433 . S
C2180 C2176 1.350 . S
C2180 C2177 1.463 . S
C2180 N2184 1.427 . S
C2181 H2171 0.929 . S
C2181 C2179 1.433 . S
C2181 N2184 1.384 . S
C2182 H2173 0.929 . S
C2182 C2174 1.378 . S
C2182 C2177 1.350 . S
C2183 H2170 0.929 . S
C2183 C2175 1.433 . S
C2183 N2185 1.384 . S
N2184 C2180 1.427 . S
N2184 C2181 1.384 . S
N2185 C2177 1.427 . S
N2185 C2183 1.384 . S
H2186 C2192 0.930 . S
H2187 C2196 0.930 . S
H2188 C2201 0.929 . S
H2189 C2199 0.929 . S
H2190 C2194 0.929 . S
H2191 C2200 0.929 . S
C2192 H2186 0.930 . S
C2192 C2193 1.367 . S
C2192 C2200 1.378 . S
C2193 C2192 1.367 . S
C2193 C2201 1.433 . S
C2194 H2190 0.929 . S
C2194 C2196 1.378 . S
C2194 C2198 1.350 . S
C2195 C2198 1.463 . S
C2195 C2200 1.350 . S
C2195 N2203 1.427 . S
C2196 H2187 0.930 . S
C2196 C2194 1.378 . S
C2196 C2197 1.367 . S
C2197 C2196 1.367 . S
C2197 C2199 1.433 . S
C2198 C2194 1.350 . S
C2198 C2195 1.463 . S
C2198 N2202 1.427 . S
C2199 H2189 0.929 . S
C2199 C2197 1.433 . S
C2199 N2202 1.384 . S
C2200 H2191 0.929 . S
C2200 C2192 1.378 . S
C2200 C2195 1.350 . S
C2201 H2188 0.929 . S
C2201 C2193 1.433 . S
C2201 N2203 1.384 . S
N2202 C2198 1.427 . S
N2202 C2199 1.384 . S
N2203 C2195 1.427 . S
N2203 C2201 1.384 . S
H2204 C2210 0.930 . S
H2205 C2214 0.930 . S
H2206 C2219 0.929 . S
H2207 C2217 0.929 . S
H2208 C2212 0.929 . S
H2209 C2218 0.929 . S
C2210 H2204 0.930 . S
C2210 C2211 1.367 . S
C2210 C2218 1.378 . S
C2211 C2210 1.367 . S
C2211 C2219 1.433 . S
C2212 H2208 0.929 . S
C2212 C2214 1.378 . S
C2212 C2216 1.350 . S
C2213 C2216 1.463 . S
C2213 C2218 1.350 . S
C2213 N2221 1.427 . S
C2214 H2205 0.930 . S
C2214 C2212 1.378 . S
C2214 C2215 1.367 . S
C2215 C2214 1.367 . S
C2215 C2217 1.433 1_554 S
C2216 C2212 1.350 . S
C2216 C2213 1.463 . S
C2216 N2220 1.427 . S
C2217 H2207 0.929 . S
C2217 C2215 1.433 1_556 S
C2217 N2220 1.384 1_556 S
C2218 H2209 0.929 . S
C2218 C2210 1.378 . S
C2218 C2213 1.350 . S
C2219 H2206 0.929 . S
C2219 C2211 1.433 . S
C2219 N2221 1.384 . S
N2220 C2216 1.427 . S
N2220 C2217 1.384 1_554 S
N2221 C2213 1.427 . S
N2221 C2219 1.384 . S
H2222 C2228 0.930 . S
H2223 C2232 0.930 . S
H2224 C2237 0.929 . S
H2225 C2235 0.929 1_556 S
H2226 C2230 0.929 . S
H2227 C2236 0.929 . S
C2228 H2222 0.930 . S
C2228 C2229 1.367 . S
C2228 C2236 1.378 . S
C2229 C2228 1.367 . S
C2229 C2237 1.433 . S
C2230 H2226 0.929 . S
C2230 C2232 1.378 . S
C2230 C2234 1.350 . S
C2231 C2234 1.463 . S
C2231 C2236 1.350 . S
C2231 N2239 1.427 . S
C2232 H2223 0.930 . S
C2232 C2230 1.378 . S
C2232 C2233 1.367 . S
C2233 C2232 1.367 . S
C2233 C2235 1.433 . S
C2234 C2230 1.350 . S
C2234 C2231 1.463 . S
C2234 N2238 1.427 . S
C2235 H2225 0.929 1_554 S
C2235 C2233 1.433 . S
C2235 N2238 1.384 . S
C2236 H2227 0.929 . S
C2236 C2228 1.378 . S
C2236 C2231 1.350 . S
C2237 H2224 0.929 . S
C2237 C2229 1.433 . S
C2237 N2239 1.384 . S
N2238 C2234 1.427 . S
N2238 C2235 1.384 . S
N2239 C2231 1.427 . S
N2239 C2237 1.384 . S
H2240 C2246 0.930 . S
H2241 C2250 0.930 . S
H2242 C2255 0.929 . S
H2243 C2253 0.929 . S
H2244 C2248 0.929 . S
H2245 C2254 0.929 . S
C2246 H2240 0.930 . S
C2246 C2247 1.367 . S
C2246 C2254 1.378 . S
C2247 C2246 1.367 . S
C2247 C2255 1.433 . S
C2248 H2244 0.929 . S
C2248 C2250 1.378 . S
C2248 C2252 1.350 . S
C2249 C2252 1.463 . S
C2249 C2254 1.350 . S
C2249 N2257 1.427 . S
C2250 H2241 0.930 . S
C2250 C2248 1.378 . S
C2250 C2251 1.367 . S
C2251 C2250 1.367 . S
C2251 C2253 1.433 . S
C2252 C2248 1.350 . S
C2252 C2249 1.463 . S
C2252 N2256 1.427 . S
C2253 H2243 0.929 . S
C2253 C2251 1.433 . S
C2253 N2256 1.384 . S
C2254 H2245 0.929 . S
C2254 C2246 1.378 . S
C2254 C2249 1.350 . S
C2255 H2242 0.929 . S
C2255 C2247 1.433 . S
C2255 N2257 1.384 . S
N2256 C2252 1.427 . S
N2256 C2253 1.384 . S
N2257 C2249 1.427 . S
N2257 C2255 1.384 . S
H2258 C2264 0.930 . S
H2259 C2268 0.930 . S
H2260 C2273 0.929 . S
H2261 C2271 0.929 . S
H2262 C2266 0.929 . S
H2263 C2272 0.929 . S
C2264 H2258 0.930 . S
C2264 C2265 1.367 . S
C2264 C2272 1.378 . S
C2265 C2264 1.367 . S
C2265 C2273 1.433 . S
C2266 H2262 0.929 . S
C2266 C2268 1.378 . S
C2266 C2270 1.350 . S
C2267 C2270 1.463 . S
C2267 C2272 1.350 . S
C2267 N2275 1.427 . S
C2268 H2259 0.930 . S
C2268 C2266 1.378 . S
C2268 C2269 1.367 . S
C2269 C2268 1.367 . S
C2269 C2271 1.433 . S
C2270 C2266 1.350 . S
C2270 C2267 1.463 . S
C2270 N2274 1.427 . S
C2271 H2261 0.929 . S
C2271 C2269 1.433 . S
C2271 N2274 1.384 . S
C2272 H2263 0.929 . S
C2272 C2264 1.378 . S
C2272 C2267 1.350 . S
C2273 H2260 0.929 . S
C2273 C2265 1.433 . S
C2273 N2275 1.384 . S
N2274 C2270 1.427 . S
N2274 C2271 1.384 . S
N2275 C2267 1.427 . S
N2275 C2273 1.384 . S
H2276 C2282 0.930 . S
H2277 C2286 0.930 . S
H2278 C2291 0.929 . S
H2279 C2289 0.929 . S
H2280 C2284 0.929 . S
H2281 C2290 0.929 . S
C2282 H2276 0.930 . S
C2282 C2283 1.367 . S
C2282 C2290 1.378 . S
C2283 C2282 1.367 . S
C2283 C2291 1.433 . S
C2284 H2280 0.929 . S
C2284 C2286 1.378 . S
C2284 C2288 1.350 . S
C2285 C2288 1.463 . S
C2285 C2290 1.350 . S
C2285 N2293 1.427 . S
C2286 H2277 0.930 . S
C2286 C2284 1.378 . S
C2286 C2287 1.367 . S
C2287 C2286 1.367 . S
C2287 C2289 1.433 . S
C2288 C2284 1.350 . S
C2288 C2285 1.463 . S
C2288 N2292 1.427 . S
C2289 H2279 0.929 . S
C2289 C2287 1.433 . S
C2289 N2292 1.384 . S
C2290 H2281 0.929 . S
C2290 C2282 1.378 . S
C2290 C2285 1.350 . S
C2291 H2278 0.929 . S
C2291 C2283 1.433 . S
C2291 N2293 1.384 . S
N2292 C2288 1.427 . S
N2292 C2289 1.384 . S
N2293 C2285 1.427 . S
N2293 C2291 1.384 . S
H2294 C2300 0.930 . S
H2295 C2304 0.930 . S
H2296 C2309 0.929 . S
H2297 C2307 0.929 . S
H2298 C2302 0.929 . S
H2299 C2308 0.929 . S
C2300 H2294 0.930 . S
C2300 C2301 1.367 . S
C2300 C2308 1.378 . S
C2301 C2300 1.367 . S
C2301 C2309 1.433 . S
C2302 H2298 0.929 . S
C2302 C2304 1.378 . S
C2302 C2306 1.350 . S
C2303 C2306 1.463 . S
C2303 C2308 1.350 . S
C2303 N2311 1.427 . S
C2304 H2295 0.930 . S
C2304 C2302 1.378 . S
C2304 C2305 1.367 . S
C2305 C2304 1.367 . S
C2305 C2307 1.433 . S
C2306 C2302 1.350 . S
C2306 C2303 1.463 . S
C2306 N2310 1.427 . S
C2307 H2297 0.929 . S
C2307 C2305 1.433 . S
C2307 N2310 1.384 . S
C2308 H2299 0.929 . S
C2308 C2300 1.378 . S
C2308 C2303 1.350 . S
C2309 H2296 0.929 . S
C2309 C2301 1.433 . S
C2309 N2311 1.384 . S
N2310 C2306 1.427 . S
N2310 C2307 1.384 . S
N2311 C2303 1.427 . S
N2311 C2309 1.384 . S
H2312 C2318 0.930 1_545 S
H2313 C2322 0.930 . S
H2314 C2327 0.929 . S
H2315 C2325 0.929 1_545 S
H2316 C2320 0.929 . S
H2317 C2326 0.929 1_545 S
C2318 H2312 0.930 1_565 S
C2318 C2319 1.367 . S
C2318 C2326 1.378 . S
C2319 C2318 1.367 . S
C2319 C2327 1.433 . S
C2320 H2316 0.929 . S
C2320 C2322 1.378 . S
C2320 C2324 1.350 . S
C2321 C2324 1.463 . S
C2321 C2326 1.350 . S
C2321 N2329 1.427 . S
C2322 H2313 0.930 . S
C2322 C2320 1.378 . S
C2322 C2323 1.367 . S
C2323 C2322 1.367 . S
C2323 C2325 1.433 . S
C2324 C2320 1.350 . S
C2324 C2321 1.463 . S
C2324 N2328 1.427 . S
C2325 H2315 0.929 1_565 S
C2325 C2323 1.433 . S
C2325 N2328 1.384 . S
C2326 H2317 0.929 1_565 S
C2326 C2318 1.378 . S
C2326 C2321 1.350 . S
C2327 H2314 0.929 . S
C2327 C2319 1.433 . S
C2327 N2329 1.384 . S
N2328 C2324 1.427 . S
N2328 C2325 1.384 . S
N2329 C2321 1.427 . S
N2329 C2327 1.384 . S
H2330 C2336 0.930 . S
H2331 C2340 0.930 . S
H2332 C2345 0.929 . S
H2333 C2343 0.929 . S
H2334 C2338 0.929 . S
H2335 C2344 0.929 . S
C2336 H2330 0.930 . S
C2336 C2337 1.367 . S
C2336 C2344 1.378 . S
C2337 C2336 1.367 . S
C2337 C2345 1.433 . S
C2338 H2334 0.929 . S
C2338 C2340 1.378 . S
C2338 C2342 1.350 . S
C2339 C2342 1.463 . S
C2339 C2344 1.350 . S
C2339 N2347 1.427 . S
C2340 H2331 0.930 . S
C2340 C2338 1.378 . S
C2340 C2341 1.367 . S
C2341 C2340 1.367 . S
C2341 C2343 1.433 . S
C2342 C2338 1.350 . S
C2342 C2339 1.463 . S
C2342 N2346 1.427 . S
C2343 H2333 0.929 . S
C2343 C2341 1.433 . S
C2343 N2346 1.384 . S
C2344 H2335 0.929 . S
C2344 C2336 1.378 . S
C2344 C2339 1.350 . S
C2345 H2332 0.929 . S
C2345 C2337 1.433 . S
C2345 N2347 1.384 . S
N2346 C2342 1.427 . S
N2346 C2343 1.384 . S
N2347 C2339 1.427 . S
N2347 C2345 1.384 . S
H2348 C2354 0.930 1_565 S
H2349 C2358 0.930 . S
H2350 C2363 0.929 . S
H2351 C2361 0.929 1_565 S
H2352 C2356 0.929 . S
H2353 C2362 0.929 1_565 S
C2354 H2348 0.930 1_545 S
C2354 C2355 1.367 . S
C2354 C2362 1.378 . S
C2355 C2354 1.367 . S
C2355 C2363 1.433 . S
C2356 H2352 0.929 . S
C2356 C2358 1.378 . S
C2356 C2360 1.350 . S
C2357 C2360 1.463 . S
C2357 C2362 1.350 . S
C2357 N2365 1.427 . S
C2358 H2349 0.930 . S
C2358 C2356 1.378 . S
C2358 C2359 1.367 . S
C2359 C2358 1.367 . S
C2359 C2361 1.433 . S
C2360 C2356 1.350 . S
C2360 C2357 1.463 . S
C2360 N2364 1.427 . S
C2361 H2351 0.929 1_545 S
C2361 C2359 1.433 . S
C2361 N2364 1.384 . S
C2362 H2353 0.929 1_545 S
C2362 C2354 1.378 . S
C2362 C2357 1.350 . S
C2363 H2350 0.929 . S
C2363 C2355 1.433 . S
C2363 N2365 1.384 . S
N2364 C2360 1.427 . S
N2364 C2361 1.384 . S
N2365 C2357 1.427 . S
N2365 C2363 1.384 . S
H2366 C2372 0.930 . S
H2367 C2376 0.930 . S
H2368 C2381 0.929 . S
H2369 C2379 0.929 . S
H2370 C2374 0.929 . S
H2371 C2380 0.929 . S
C2372 H2366 0.930 . S
C2372 C2373 1.367 . S
C2372 C2380 1.378 . S
C2373 C2372 1.367 . S
C2373 C2381 1.433 . S
C2374 H2370 0.929 . S
C2374 C2376 1.378 . S
C2374 C2378 1.350 . S
C2375 C2378 1.463 . S
C2375 C2380 1.350 . S
C2375 N2383 1.427 . S
C2376 H2367 0.930 . S
C2376 C2374 1.378 . S
C2376 C2377 1.367 . S
C2377 C2376 1.367 . S
C2377 C2379 1.433 . S
C2378 C2374 1.350 . S
C2378 C2375 1.463 . S
C2378 N2382 1.427 . S
C2379 H2369 0.929 . S
C2379 C2377 1.433 . S
C2379 N2382 1.384 . S
C2380 H2371 0.929 . S
C2380 C2372 1.378 . S
C2380 C2375 1.350 . S
C2381 H2368 0.929 . S
C2381 C2373 1.433 . S
C2381 N2383 1.384 . S
N2382 C2378 1.427 . S
N2382 C2379 1.384 . S
N2383 C2375 1.427 . S
N2383 C2381 1.384 . S
H2384 C2390 0.930 . S
H2385 C2394 0.930 . S
H2386 C2399 0.929 . S
H2387 C2397 0.929 . S
H2388 C2392 0.929 . S
H2389 C2398 0.929 . S
C2390 H2384 0.930 . S
C2390 C2391 1.367 . S
C2390 C2398 1.378 . S
C2391 C2390 1.367 . S
C2391 C2399 1.433 . S
C2392 H2388 0.929 . S
C2392 C2394 1.378 . S
C2392 C2396 1.350 . S
C2393 C2396 1.463 . S
C2393 C2398 1.350 . S
C2393 N2401 1.427 . S
C2394 H2385 0.930 . S
C2394 C2392 1.378 . S
C2394 C2395 1.367 . S
C2395 C2394 1.367 . S
C2395 C2397 1.433 . S
C2396 C2392 1.350 . S
C2396 C2393 1.463 . S
C2396 N2400 1.427 . S
C2397 H2387 0.929 . S
C2397 C2395 1.433 . S
C2397 N2400 1.384 . S
C2398 H2389 0.929 . S
C2398 C2390 1.378 . S
C2398 C2393 1.350 . S
C2399 H2386 0.929 . S
C2399 C2391 1.433 . S
C2399 N2401 1.384 . S
N2400 C2396 1.427 . S
N2400 C2397 1.384 . S
N2401 C2393 1.427 . S
N2401 C2399 1.384 . S
H2402 C2408 0.930 . S
H2403 C2412 0.930 . S
H2404 C2417 0.929 . S
H2405 C2415 0.929 . S
H2406 C2410 0.929 . S
H2407 C2416 0.929 . S
C2408 H2402 0.930 . S
C2408 C2409 1.367 . S
C2408 C2416 1.378 . S
C2409 C2408 1.367 . S
C2409 C2417 1.433 . S
C2410 H2406 0.929 . S
C2410 C2412 1.378 . S
C2410 C2414 1.350 . S
C2411 C2414 1.463 . S
C2411 C2416 1.350 . S
C2411 N2419 1.427 . S
C2412 H2403 0.930 . S
C2412 C2410 1.378 . S
C2412 C2413 1.367 . S
C2413 C2412 1.367 . S
C2413 C2415 1.433 . S
C2414 C2410 1.350 . S
C2414 C2411 1.463 . S
C2414 N2418 1.427 . S
C2415 H2405 0.929 . S
C2415 C2413 1.433 . S
C2415 N2418 1.384 . S
C2416 H2407 0.929 . S
C2416 C2408 1.378 . S
C2416 C2411 1.350 . S
C2417 H2404 0.929 . S
C2417 C2409 1.433 . S
C2417 N2419 1.384 . S
N2418 C2414 1.427 . S
N2418 C2415 1.384 . S
N2419 C2411 1.427 . S
N2419 C2417 1.384 . S
H2420 C2426 0.930 . S
H2421 C2430 0.930 . S
H2422 C2435 0.929 . S
H2423 C2433 0.929 . S
H2424 C2428 0.929 . S
H2425 C2434 0.929 . S
C2426 H2420 0.930 . S
C2426 C2427 1.367 . S
C2426 C2434 1.378 . S
C2427 C2426 1.367 . S
C2427 C2435 1.433 . S
C2428 H2424 0.929 . S
C2428 C2430 1.378 . S
C2428 C2432 1.350 . S
C2429 C2432 1.463 . S
C2429 C2434 1.350 . S
C2429 N2437 1.427 . S
C2430 H2421 0.930 . S
C2430 C2428 1.378 . S
C2430 C2431 1.367 . S
C2431 C2430 1.367 . S
C2431 C2433 1.433 . S
C2432 C2428 1.350 . S
C2432 C2429 1.463 . S
C2432 N2436 1.427 . S
C2433 H2423 0.929 . S
C2433 C2431 1.433 . S
C2433 N2436 1.384 . S
C2434 H2425 0.929 . S
C2434 C2426 1.378 . S
C2434 C2429 1.350 . S
C2435 H2422 0.929 . S
C2435 C2427 1.433 . S
C2435 N2437 1.384 . S
N2436 C2432 1.427 . S
N2436 C2433 1.384 . S
N2437 C2429 1.427 . S
N2437 C2435 1.384 . S
H2438 C2444 0.930 . S
H2439 C2448 0.930 . S
H2440 C2453 0.929 . S
H2441 C2451 0.929 . S
H2442 C2446 0.929 . S
H2443 C2452 0.929 . S
C2444 H2438 0.930 . S
C2444 C2445 1.367 . S
C2444 C2452 1.378 . S
C2445 C2444 1.367 . S
C2445 C2453 1.433 . S
C2446 H2442 0.929 . S
C2446 C2448 1.378 . S
C2446 C2450 1.350 . S
C2447 C2450 1.463 . S
C2447 C2452 1.350 . S
C2447 N2455 1.427 . S
C2448 H2439 0.930 . S
C2448 C2446 1.378 . S
C2448 C2449 1.367 . S
C2449 C2448 1.367 . S
C2449 C2451 1.433 . S
C2450 C2446 1.350 . S
C2450 C2447 1.463 . S
C2450 N2454 1.427 . S
C2451 H2441 0.929 . S
C2451 C2449 1.433 . S
C2451 N2454 1.384 . S
C2452 H2443 0.929 . S
C2452 C2444 1.378 . S
C2452 C2447 1.350 . S
C2453 H2440 0.929 . S
C2453 C2445 1.433 . S
C2453 N2455 1.384 . S
N2454 C2450 1.427 . S
N2454 C2451 1.384 . S
N2455 C2447 1.427 . S
N2455 C2453 1.384 . S
H2456 C2462 0.930 . S
H2457 C2466 0.930 . S
H2458 C2471 0.929 . S
H2459 C2469 0.929 . S
H2460 C2464 0.929 . S
H2461 C2470 0.929 . S
C2462 H2456 0.930 . S
C2462 C2463 1.367 . S
C2462 C2470 1.378 . S
C2463 C2462 1.367 . S
C2463 C2471 1.433 . S
C2464 H2460 0.929 . S
C2464 C2466 1.378 . S
C2464 C2468 1.350 . S
C2465 C2468 1.463 . S
C2465 C2470 1.350 . S
C2465 N2473 1.427 . S
C2466 H2457 0.930 . S
C2466 C2464 1.378 . S
C2466 C2467 1.367 . S
C2467 C2466 1.367 . S
C2467 C2469 1.433 . S
C2468 C2464 1.350 . S
C2468 C2465 1.463 . S
C2468 N2472 1.427 . S
C2469 H2459 0.929 . S
C2469 C2467 1.433 . S
C2469 N2472 1.384 . S
C2470 H2461 0.929 . S
C2470 C2462 1.378 . S
C2470 C2465 1.350 . S
C2471 H2458 0.929 . S
C2471 C2463 1.433 . S
C2471 N2473 1.384 . S
N2472 C2468 1.427 . S
N2472 C2469 1.384 . S
N2473 C2465 1.427 . S
N2473 C2471 1.384 . S
H2474 C2480 0.930 . S
H2475 C2484 0.930 . S
H2476 C2489 0.929 . S
H2477 C2487 0.929 . S
H2478 C2482 0.929 . S
H2479 C2488 0.929 . S
C2480 H2474 0.930 . S
C2480 C2481 1.367 . S
C2480 C2488 1.378 . S
C2481 C2480 1.367 . S
C2481 C2489 1.433 . S
C2482 H2478 0.929 . S
C2482 C2484 1.378 . S
C2482 C2486 1.350 . S
C2483 C2486 1.463 . S
C2483 C2488 1.350 . S
C2483 N2491 1.427 . S
C2484 H2475 0.930 . S
C2484 C2482 1.378 . S
C2484 C2485 1.367 . S
C2485 C2484 1.367 . S
C2485 C2487 1.433 . S
C2486 C2482 1.350 . S
C2486 C2483 1.463 . S
C2486 N2490 1.427 . S
C2487 H2477 0.929 . S
C2487 C2485 1.433 . S
C2487 N2490 1.384 . S
C2488 H2479 0.929 . S
C2488 C2480 1.378 . S
C2488 C2483 1.350 . S
C2489 H2476 0.929 . S
C2489 C2481 1.433 . S
C2489 N2491 1.384 . S
N2490 C2486 1.427 . S
N2490 C2487 1.384 . S
N2491 C2483 1.427 . S
N2491 C2489 1.384 . S
H2492 C2498 0.930 . S
H2493 C2502 0.930 1_565 S
H2494 C2507 0.929 1_565 S
H2495 C2505 0.929 . S
H2496 C2500 0.929 1_565 S
H2497 C2506 0.929 . S
C2498 H2492 0.930 . S
C2498 C2499 1.367 . S
C2498 C2506 1.378 . S
C2499 C2498 1.367 . S
C2499 C2507 1.433 . S
C2500 H2496 0.929 1_545 S
C2500 C2502 1.378 . S
C2500 C2504 1.350 . S
C2501 C2504 1.463 . S
C2501 C2506 1.350 . S
C2501 N2509 1.427 . S
C2502 H2493 0.930 1_545 S
C2502 C2500 1.378 . S
C2502 C2503 1.367 . S
C2503 C2502 1.367 . S
C2503 C2505 1.433 . S
C2504 C2500 1.350 . S
C2504 C2501 1.463 . S
C2504 N2508 1.427 . S
C2505 H2495 0.929 . S
C2505 C2503 1.433 . S
C2505 N2508 1.384 . S
C2506 H2497 0.929 . S
C2506 C2498 1.378 . S
C2506 C2501 1.350 . S
C2507 H2494 0.929 1_545 S
C2507 C2499 1.433 . S
C2507 N2509 1.384 . S
N2508 C2504 1.427 . S
N2508 C2505 1.384 . S
N2509 C2501 1.427 . S
N2509 C2507 1.384 . S
H2510 C2516 0.930 . S
H2511 C2520 0.930 . S
H2512 C2525 0.929 . S
H2513 C2523 0.929 . S
H2514 C2518 0.929 . S
H2515 C2524 0.929 . S
C2516 H2510 0.930 . S
C2516 C2517 1.367 . S
C2516 C2524 1.378 . S
C2517 C2516 1.367 . S
C2517 C2525 1.433 . S
C2518 H2514 0.929 . S
C2518 C2520 1.378 . S
C2518 C2522 1.350 . S
C2519 C2522 1.463 . S
C2519 C2524 1.350 . S
C2519 N2527 1.427 . S
C2520 H2511 0.930 . S
C2520 C2518 1.378 . S
C2520 C2521 1.367 . S
C2521 C2520 1.367 . S
C2521 C2523 1.433 . S
C2522 C2518 1.350 . S
C2522 C2519 1.463 . S
C2522 N2526 1.427 . S
C2523 H2513 0.929 . S
C2523 C2521 1.433 . S
C2523 N2526 1.384 . S
C2524 H2515 0.929 . S
C2524 C2516 1.378 . S
C2524 C2519 1.350 . S
C2525 H2512 0.929 . S
C2525 C2517 1.433 . S
C2525 N2527 1.384 . S
N2526 C2522 1.427 . S
N2526 C2523 1.384 . S
N2527 C2519 1.427 . S
N2527 C2525 1.384 . S
C1095 C20 1.374 . S
C1099 C88 1.374 . S
C1113 C122 1.368 . S
C1117 C54 1.368 . S
C1131 C156 1.368 . S
C1135 C224 1.369 . S
C1149 C258 1.371 . S
C1153 C190 1.370 . S
C1167 C292 1.374 . S
C1171 C360 1.374 . S
C1185 C394 1.369 . S
C1189 C326 1.369 . S
C1203 C428 1.374 . S
C1207 C496 1.374 . S
C1221 C530 1.372 . S
C1225 C462 1.371 . S
C1239 C632 1.369 . S
C1243 C564 1.369 . S
C1257 C666 1.370 . S
C1261 C598 1.369 . S
C1275 C700 1.369 . S
C1279 C768 1.370 . S
C1293 C734 1.367 . S
C1297 C802 1.368 . S
C1311 C904 1.371 . S
C1315 C836 1.371 . S
C1329 C938 1.371 . S
C1333 C870 1.370 . S
C1347 C972 1.367 . S
C1351 C1040 1.367 . S
C1365 C1006 1.371 . S
C1369 C1074 1.370 . S
C1383 C9 1.421 . S
C1387 C145 1.421 . S
C1401 C43 1.417 . S
C1405 C995 1.417 . S
C1419 C485 1.417 . S
C1423 C77 1.417 . S
C1437 C791 1.420 . S
C1441 C111 1.420 . S
C1455 C179 1.432 . S
C1459 C859 1.432 . S
C1473 C349 1.417 . S
C1477 C213 1.417 . S
C1491 C247 1.418 . S
C1495 C655 1.418 . S
C1509 C281 1.428 . S
C1513 C417 1.428 . S
C1527 C315 1.423 . S
C1531 C723 1.423 . S
C1545 C1063 1.433 . S
C1549 C383 1.433 . S
C1563 C587 1.431 . S
C1567 C451 1.431 . S
C1581 C519 1.432 . S
C1585 C927 1.432 . S
C1599 C553 1.424 . S
C1603 C689 1.424 . S
C1617 C621 1.423 . S
C1621 C1029 1.423 . S
C1635 C757 1.428 . S
C1639 C893 1.428 . S
C1653 C961 1.432 . S
C1657 C825 1.432 . S
C1671 C33 1.710 . S
C1675 C373 1.711 . S
C1689 C67 1.710 . S
C1693 C407 1.711 . S
C1707 C101 1.711 1_556 S
C1711 C305 1.711 . S
C1725 C339 1.708 . S
C1729 C135 1.707 1_556 S
C1743 C169 1.708 . S
C1747 C509 1.709 . S
C1761 C203 1.710 . S
C1765 C543 1.711 . S
C1779 C237 1.711 1_554 S
C1783 C441 1.711 . S
C1797 C475 1.710 . S
C1801 C271 1.709 1_554 S
C1815 C917 1.709 1_556 S
C1819 C577 1.708 . S
C1833 C611 1.711 . S
C1837 C951 1.711 1_556 S
C1851 C645 1.708 . S
C1855 C849 1.709 . S
C1869 C883 1.710 . S
C1873 C679 1.711 . S
C1887 C713 1.707 . S
C1891 C1053 1.707 1_554 S
C1905 C1087 1.711 1_554 S
C1909 C747 1.711 . S
C1923 C985 1.709 . S
C1927 C781 1.708 . S
C1941 C815 1.708 . S
C1945 C1019 1.708 . S
C1959 C342 1.261 . S
C1963 C2 1.261 1_556 S
C1977 C36 1.261 1_556 S
C1981 C376 1.261 . S
C1995 C274 1.261 . S
C1999 C70 1.261 . S
C2013 C308 1.261 . S
C2017 C104 1.261 . S
C2031 C138 1.261 1_554 S
C2035 C478 1.261 . S
C2049 C172 1.261 1_554 S
C2053 C512 1.261 . S
C2067 C410 1.261 . S
C2071 C206 1.261 . S
C2085 C240 1.261 . S
C2089 C444 1.260 . S
C2103 C546 1.261 . S
C2107 C886 1.261 . S
C2121 C920 1.261 . S
C2125 C580 1.261 . S
C2139 C818 1.261 1_556 S
C2143 C614 1.261 . S
C2157 C648 1.261 . S
C2161 C852 1.261 1_556 S
C2175 C682 1.261 . S
C2179 C1022 1.261 . S
C2193 C716 1.261 . S
C2197 C1056 1.261 . S
C2211 C750 1.261 . S
C2215 C954 1.261 1_554 S
C2229 C784 1.261 . S
C2233 C988 1.261 1_554 S
C2247 C107 1.503 . S
C2251 C5 1.502 . S
C2265 C73 1.501 . S
C2269 C39 1.503 . S
C2283 C141 1.499 . S
C2287 C243 1.500 . S
C2301 C209 1.501 . S
C2305 C175 1.499 . S
C2319 C379 1.500 . S
C2323 C277 1.502 . S
C2337 C345 1.500 . S
C2341 C311 1.502 . S
C2355 C515 1.499 . S
C2359 C413 1.501 . S
C2373 C447 1.500 . S
C2377 C481 1.503 . S
C2391 C651 1.503 . S
C2395 C549 1.501 . S
C2409 C617 1.499 . S
C2413 C583 1.501 . S
C2427 C685 1.500 . S
C2431 C787 1.502 . S
C2445 C753 1.499 . S
C2449 C719 1.501 . S
C2463 C923 1.500 . S
C2467 C821 1.499 . S
C2481 C889 1.502 . S
C2485 C855 1.500 . S
C2499 C1059 1.502 . S
C2503 C957 1.500 . S
C2517 C1025 1.499 . S
C2521 C991 1.500 . S
