# Generated by pormake.
# Topology som, (6)-cn, num edge types: 1
# Building blocks:
#     Node 0, Type 0, BuildingBlock: PAMTUU_clean_sbu_0, # of connection points: 6
#     Node 1, Type 0, BuildingBlock: PAMTUU_clean_sbu_0, # of connection points: 6
#     Node 2, Type 0, BuildingBlock: PAMTUU_clean_sbu_0, # of connection points: 6
#     Node 3, Type 0, BuildingBlock: PAMTUU_clean_sbu_0, # of connection points: 6
#     Node 4, Type 0, BuildingBlock: PAMTUU_clean_sbu_0, # of connection points: 6
#     Node 5, Type 0, BuildingBlock: PAMTUU_clean_sbu_0, # of connection points: 6
#     Node 6, Type 0, BuildingBlock: PAMTUU_clean_sbu_0, # of connection points: 6
#     Node 7, Type 0, BuildingBlock: PAMTUU_clean_sbu_0, # of connection points: 6
#     Node 8, Type 0, BuildingBlock: PAMTUU_clean_sbu_0, # of connection points: 6
#     Node 9, Type 0, BuildingBlock: PAMTUU_clean_sbu_0, # of connection points: 6
#     Node 10, Type 0, BuildingBlock: PAMTUU_clean_sbu_0, # of connection points: 6
#     Node 11, Type 0, BuildingBlock: PAMTUU_clean_sbu_0, # of connection points: 6
#     Node 12, Type 0, BuildingBlock: PAMTUU_clean_sbu_0, # of connection points: 6
#     Node 13, Type 0, BuildingBlock: PAMTUU_clean_sbu_0, # of connection points: 6
#     Node 14, Type 0, BuildingBlock: PAMTUU_clean_sbu_0, # of connection points: 6
#     Node 15, Type 0, BuildingBlock: PAMTUU_clean_sbu_0, # of connection points: 6
#     Node 16, Type 0, BuildingBlock: PAMTUU_clean_sbu_0, # of connection points: 6
#     Node 17, Type 0, BuildingBlock: PAMTUU_clean_sbu_0, # of connection points: 6
#     Node 18, Type 0, BuildingBlock: PAMTUU_clean_sbu_0, # of connection points: 6
#     Node 19, Type 0, BuildingBlock: PAMTUU_clean_sbu_0, # of connection points: 6
#     Node 20, Type 0, BuildingBlock: PAMTUU_clean_sbu_0, # of connection points: 6
#     Node 21, Type 0, BuildingBlock: PAMTUU_clean_sbu_0, # of connection points: 6
#     Node 22, Type 0, BuildingBlock: PAMTUU_clean_sbu_0, # of connection points: 6
#     Node 23, Type 0, BuildingBlock: PAMTUU_clean_sbu_0, # of connection points: 6
#     Node 24, Type 0, BuildingBlock: PAMTUU_clean_sbu_0, # of connection points: 6
#     Node 25, Type 0, BuildingBlock: PAMTUU_clean_sbu_0, # of connection points: 6
#     Node 26, Type 0, BuildingBlock: PAMTUU_clean_sbu_0, # of connection points: 6
#     Node 27, Type 0, BuildingBlock: PAMTUU_clean_sbu_0, # of connection points: 6
#     Node 28, Type 0, BuildingBlock: PAMTUU_clean_sbu_0, # of connection points: 6
#     Node 29, Type 0, BuildingBlock: PAMTUU_clean_sbu_0, # of connection points: 6
#     Node 30, Type 0, BuildingBlock: PAMTUU_clean_sbu_0, # of connection points: 6
#     Node 31, Type 0, BuildingBlock: PAMTUU_clean_sbu_0, # of connection points: 6
#     Edge 32, Type (0, 0), None
#     Edge 33, Type (0, 0), None
#     Edge 34, Type (0, 0), None
#     Edge 35, Type (0, 0), None
#     Edge 36, Type (0, 0), None
#     Edge 37, Type (0, 0), None
#     Edge 38, Type (0, 0), None
#     Edge 39, Type (0, 0), None
#     Edge 40, Type (0, 0), None
#     Edge 41, Type (0, 0), None
#     Edge 42, Type (0, 0), None
#     Edge 43, Type (0, 0), None
#     Edge 44, Type (0, 0), None
#     Edge 45, Type (0, 0), None
#     Edge 46, Type (0, 0), None
#     Edge 47, Type (0, 0), None
#     Edge 48, Type (0, 0), None
#     Edge 49, Type (0, 0), None
#     Edge 50, Type (0, 0), None
#     Edge 51, Type (0, 0), None
#     Edge 52, Type (0, 0), None
#     Edge 53, Type (0, 0), None
#     Edge 54, Type (0, 0), None
#     Edge 55, Type (0, 0), None
#     Edge 56, Type (0, 0), None
#     Edge 57, Type (0, 0), None
#     Edge 58, Type (0, 0), None
#     Edge 59, Type (0, 0), None
#     Edge 60, Type (0, 0), None
#     Edge 61, Type (0, 0), None
#     Edge 62, Type (0, 0), None
#     Edge 63, Type (0, 0), None
#     Edge 64, Type (0, 0), None
#     Edge 65, Type (0, 0), None
#     Edge 66, Type (0, 0), None
#     Edge 67, Type (0, 0), None
#     Edge 68, Type (0, 0), None
#     Edge 69, Type (0, 0), None
#     Edge 70, Type (0, 0), None
#     Edge 71, Type (0, 0), None
#     Edge 72, Type (0, 0), None
#     Edge 73, Type (0, 0), None
#     Edge 74, Type (0, 0), None
#     Edge 75, Type (0, 0), None
#     Edge 76, Type (0, 0), None
#     Edge 77, Type (0, 0), None
#     Edge 78, Type (0, 0), None
#     Edge 79, Type (0, 0), None
#     Edge 80, Type (0, 0), None
#     Edge 81, Type (0, 0), None
#     Edge 82, Type (0, 0), None
#     Edge 83, Type (0, 0), None
#     Edge 84, Type (0, 0), None
#     Edge 85, Type (0, 0), None
#     Edge 86, Type (0, 0), None
#     Edge 87, Type (0, 0), None
#     Edge 88, Type (0, 0), None
#     Edge 89, Type (0, 0), None
#     Edge 90, Type (0, 0), None
#     Edge 91, Type (0, 0), None
#     Edge 92, Type (0, 0), None
#     Edge 93, Type (0, 0), None
#     Edge 94, Type (0, 0), None
#     Edge 95, Type (0, 0), None
#     Edge 96, Type (0, 0), None
#     Edge 97, Type (0, 0), None
#     Edge 98, Type (0, 0), None
#     Edge 99, Type (0, 0), None
#     Edge 100, Type (0, 0), None
#     Edge 101, Type (0, 0), None
#     Edge 102, Type (0, 0), None
#     Edge 103, Type (0, 0), None
#     Edge 104, Type (0, 0), None
#     Edge 105, Type (0, 0), None
#     Edge 106, Type (0, 0), None
#     Edge 107, Type (0, 0), None
#     Edge 108, Type (0, 0), None
#     Edge 109, Type (0, 0), None
#     Edge 110, Type (0, 0), None
#     Edge 111, Type (0, 0), None
#     Edge 112, Type (0, 0), None
#     Edge 113, Type (0, 0), None
#     Edge 114, Type (0, 0), None
#     Edge 115, Type (0, 0), None
#     Edge 116, Type (0, 0), None
#     Edge 117, Type (0, 0), None
#     Edge 118, Type (0, 0), None
#     Edge 119, Type (0, 0), None
#     Edge 120, Type (0, 0), None
#     Edge 121, Type (0, 0), None
#     Edge 122, Type (0, 0), None
#     Edge 123, Type (0, 0), None
#     Edge 124, Type (0, 0), None
#     Edge 125, Type (0, 0), None
#     Edge 126, Type (0, 0), None
#     Edge 127, Type (0, 0), None
# Relax obj value: 0.101
# Max RMSD: 0.186
# Mean RMSD: 0.186
data_MOF--net-som--node1-PAMTUU_clean_sbu_0--edge1-none
_symmetry_space_group_name_H-M    P1
_symmetry_Int_Tables_number       1
_symmetry_cell_setting            triclinic
loop_
_symmetry_equiv_pos_as_xyz
'x, y, z'
_cell_length_a     15.873156
_cell_length_b     22.557677
_cell_length_c     49.917007
_cell_angle_alpha  90.151918
_cell_angle_beta   90.000569
_cell_angle_gamma 89.999944
loop_
_atom_site_label
_atom_site_type_symbol
_atom_site_fract_x
_atom_site_fract_y
_atom_site_fract_z
_atom_type_partial_charge
Tb0 Tb 0.22578 0.39839 0.0367 0.0
Tb1 Tb 1.07298 0.47392 0.06021 0.0
C2 C 0.10983 0.44894 -0.00192 0.0
C3 C 0.44542 0.3786 0.02655 0.0
C4 C 0.60422 0.43105 0.03814 0.0
C5 C 0.58846 0.40384 0.01306 0.0
C6 C 0.51014 0.3774 0.00743 0.0
C7 C 0.45899 0.40894 0.05073 0.0
C8 C 0.53735 0.43328 0.05673 0.0
C9 C 0.36158 0.35255 0.02115 0.0
O10 O 0.26708 0.49222 0.04274 0.0
O11 O 0.14429 0.54619 0.04511 0.0
O12 O 0.17972 0.4831 0.09049 0.0
O13 O 0.24139 0.3959 0.07927 0.0
O14 O 0.98132 0.53839 0.05235 0.0
O15 O 0.97424 0.48466 0.08805 0.0
O16 O 1.03569 0.38338 0.06746 0.0
O17 O 0.10969 0.33989 0.03364 0.0
O18 O 0.18873 0.44768 0.00316 0.0
O19 O 1.05401 0.44723 0.01772 0.0
C20 C 0.2252 0.54351 0.04201 0.0
O21 O 0.31986 0.33412 0.04201 0.0
O22 O 0.31358 0.38376 0.00558 0.0
C23 C 0.24108 0.44337 0.09408 0.0
C24 C 0.85023 0.49687 0.06238 0.0
C25 C 0.6899 0.45464 0.04562 0.0
C26 C 0.69839 0.49833 0.06564 0.0
C27 C 0.777 0.51999 0.07335 0.0
C28 C 0.84367 0.45303 0.0424 0.0
C29 C 0.76453 0.4327 0.03385 0.0
C30 C 0.93307 0.51879 0.07145 0.0
C31 C 1.04144 0.34186 0.04938 0.0
H32 H 0.63674 0.40195 -0.00219 0.0
H33 H 0.50024 0.35607 -0.01179 0.0
H34 H 0.40968 0.41198 0.06564 0.0
H35 H 0.54507 0.45176 0.07656 0.0
H36 H 0.64444 0.51642 0.07571 0.0
H37 H 0.78064 0.55511 0.08783 0.0
H38 H 0.89967 0.43439 0.0334 0.0
H39 H 0.76283 0.39874 0.01855 0.0
Tb40 Tb 0.28293 0.74603 0.04969 0.0
Tb41 Tb 0.43294 0.66088 0.05495 0.0
C42 C 0.34725 0.69809 -0.0018 0.0
C43 C 1.06252 0.77372 0.05599 0.0
C44 C 0.90481 0.71597 0.05899 0.0
C45 C 0.96466 0.69955 0.03945 0.0
C46 C 1.042 0.72856 0.03777 0.0
C47 C 1.00589 0.78795 0.07647 0.0
C48 C 0.92732 0.76043 0.07767 0.0
C49 C 0.147 0.80007 0.05604 0.0
O50 O 0.23524 0.65138 0.04837 0.0
O51 O 0.35282 0.59466 0.03992 0.0
O52 O 0.34062 0.6436 0.0887 0.0
O53 O 0.32499 0.7399 0.09008 0.0
O54 O 0.53027 0.61076 0.03783 0.0
O55 O 0.52288 0.62461 0.08084 0.0
O56 O 0.48965 0.74628 0.06316 0.0
O57 O 0.39603 0.80321 0.04057 0.0
O58 O 0.27816 0.71291 0.01011 0.0
O59 O 0.41756 0.68817 0.01207 0.0
C60 C 0.27199 0.59972 0.04198 0.0
O61 O 0.19353 0.78267 0.07587 0.0
O62 O 0.18844 0.80005 0.03343 0.0
C63 C 0.3058 0.68946 0.1006 0.0
C64 C 0.65625 0.6369 0.06012 0.0
C65 C 0.81921 0.68804 0.05944 0.0
C66 C 0.77 0.68843 0.08293 0.0
C67 C 0.68904 0.66461 0.083 0.0
C68 C 0.70479 0.63588 0.03664 0.0
C69 C 0.78449 0.66202 0.03615 0.0
C70 C 0.571 0.61057 0.06052 0.0
C71 C 0.47417 0.79414 0.04955 0.0
H72 H 0.953 0.66378 0.02548 0.0
H73 H 0.08653 0.71463 0.02256 0.0
H74 H 1.02193 0.8212 0.09134 0.0
H75 H 0.88408 0.77583 0.09289 0.0
H76 H 0.79323 0.70673 0.10153 0.0
H77 H 0.65199 0.668 0.10105 0.0
H78 H 0.6808 0.61549 0.01851 0.0
H79 H 0.81757 0.66231 0.01724 0.0
Tb80 Tb 0.22577 0.73442 0.1802 0.0
Tb81 Tb 1.07297 0.65889 0.15669 0.0
C82 C 0.10979 0.68391 0.21883 0.0
C83 C 0.44541 0.7542 0.19036 0.0
C84 C 0.60421 0.70175 0.17876 0.0
C85 C 0.58847 0.72899 0.20384 0.0
C86 C 0.51015 0.75543 0.20947 0.0
C87 C 0.45897 0.72385 0.16618 0.0
C88 C 0.53733 0.6995 0.16018 0.0
C89 C 0.36158 0.78025 0.19576 0.0
O90 O 0.26707 0.64059 0.17416 0.0
O91 O 0.14428 0.58662 0.17181 0.0
O92 O 0.17973 0.64972 0.12642 0.0
O93 O 0.24136 0.73693 0.13763 0.0
O94 O 0.98132 0.59441 0.16456 0.0
O95 O 0.97424 0.64815 0.12885 0.0
O96 O 1.03568 0.74943 0.14945 0.0
O97 O 0.10969 0.79293 0.18326 0.0
O98 O 0.18869 0.68516 0.21375 0.0
O99 O 1.05398 0.6856 0.19919 0.0
C100 C 0.22519 0.5893 0.1749 0.0
O101 O 0.31986 0.79869 0.17489 0.0
O102 O 0.31358 0.74904 0.21133 0.0
C103 C 0.24105 0.68947 0.12282 0.0
C104 C 0.85023 0.63594 0.15453 0.0
C105 C 0.6899 0.67817 0.17129 0.0
C106 C 0.69838 0.63447 0.15127 0.0
C107 C 0.777 0.6128 0.14356 0.0
C108 C 0.84367 0.67979 0.17449 0.0
C109 C 0.76453 0.70012 0.18305 0.0
C110 C 0.93307 0.61402 0.14545 0.0
C111 C 1.04143 0.79095 0.16752 0.0
H112 H 0.63676 0.7309 0.21908 0.0
H113 H 0.50026 0.77677 0.22868 0.0
H114 H 0.40965 0.72078 0.15127 0.0
H115 H 0.54504 0.681 0.14035 0.0
H116 H 0.64443 0.61636 0.1412 0.0
H117 H 0.78063 0.57767 0.12909 0.0
H118 H 0.89967 0.69843 0.18349 0.0
H119 H 0.76284 0.73409 0.19834 0.0
Tb120 Tb 0.28292 0.38678 0.16721 0.0
Tb121 Tb 0.43293 0.47192 0.16196 0.0
C122 C 0.34717 0.43474 0.2187 0.0
C123 C 1.06252 0.35908 0.16091 0.0
C124 C 0.90481 0.41682 0.15791 0.0
C125 C 0.96467 0.43326 0.17744 0.0
C126 C 1.04202 0.40425 0.17911 0.0
C127 C 1.00588 0.34483 0.14043 0.0
C128 C 0.9273 0.37235 0.13923 0.0
C129 C 0.147 0.33273 0.16085 0.0
O130 O 0.23523 0.48143 0.16854 0.0
O131 O 0.35281 0.53816 0.17698 0.0
O132 O 0.34064 0.48922 0.1282 0.0
O133 O 0.32497 0.39293 0.12683 0.0
O134 O 0.53028 0.52202 0.17909 0.0
O135 O 0.52288 0.50821 0.13607 0.0
O136 O 0.48963 0.38653 0.15374 0.0
O137 O 0.39602 0.32961 0.17634 0.0
O138 O 0.27812 0.41991 0.2068 0.0
O139 O 0.41752 0.44465 0.20484 0.0
C140 C 0.27198 0.53309 0.17493 0.0
O141 O 0.19354 0.35013 0.14103 0.0
O142 O 0.18843 0.33274 0.18347 0.0
C143 C 0.30577 0.44337 0.11631 0.0
C144 C 0.65625 0.49589 0.1568 0.0
C145 C 0.81921 0.44474 0.15746 0.0
C146 C 0.76998 0.44435 0.13398 0.0
C147 C 0.68902 0.46818 0.13391 0.0
C148 C 0.70481 0.49691 0.18026 0.0
C149 C 0.7845 0.47077 0.18075 0.0
C150 C 0.571 0.52223 0.1564 0.0
C151 C 0.47417 0.33867 0.16735 0.0
H152 H 0.95302 0.46904 0.1914 0.0
H153 H 0.08655 0.41819 0.19432 0.0
H154 H 1.02192 0.31157 0.12557 0.0
H155 H 0.88406 0.35694 0.12402 0.0
H156 H 0.79319 0.42604 0.11538 0.0
H157 H 0.65196 0.46478 0.11587 0.0
H158 H 0.68083 0.51731 0.1984 0.0
H159 H 0.8176 0.47047 0.19967 0.0
Tb160 Tb 0.12243 0.41785 0.90819 0.0
Tb161 Tb 0.96932 0.49377 0.93149 0.0
C162 C 0.95687 0.45077 0.87403 0.0
C163 C 0.34478 0.39385 0.90579 0.0
C164 C 0.50523 0.43576 0.9226 0.0
C165 C 0.49651 0.39264 0.90231 0.0
C166 C 0.4178 0.37159 0.89429 0.0
C167 C 0.35158 0.43688 0.92611 0.0
C168 C 0.43072 0.45725 0.93459 0.0
C169 C 0.26176 0.37235 0.89676 0.0
O170 O 0.15964 0.50832 0.90087 0.0
O171 O 0.0854 0.55221 0.93458 0.0
O172 O 1.00629 0.44442 0.96506 0.0
O173 O 0.14119 0.44472 0.95063 0.0
O174 O 0.8746 0.55738 0.92573 0.0
O175 O 0.88129 0.509 0.9625 0.0
O176 O 0.92738 0.40024 0.92482 0.0
O177 O 1.0499 0.34588 0.92306 0.0
O178 O 1.01632 0.40987 0.87784 0.0
O179 O 0.9577 0.49814 0.88886 0.0
C180 C 0.15357 0.55013 0.91879 0.0
O181 O 0.2135 0.35289 0.9159 0.0
O182 O 0.22083 0.40685 0.88027 0.0
C183 C 0.08517 0.44315 0.97022 0.0
C184 C 0.74941 0.51285 0.94142 0.0
C185 C 0.59089 0.45969 0.92999 0.0
C186 C 0.60651 0.4874 0.95499 0.0
C187 C 0.68467 0.51415 0.96052 0.0
C188 C 0.73603 0.48209 0.91734 0.0
C189 C 0.65785 0.45736 0.91143 0.0
C190 C 0.83301 0.53943 0.9467 0.0
C191 C 0.96881 0.34878 0.92563 0.0
H192 H 0.55023 0.37527 0.8919 0.0
H193 H 0.41401 0.33811 0.87894 0.0
H194 H 0.2957 0.45512 0.93536 0.0
H195 H 0.43244 0.49099 0.94999 0.0
H196 H 0.55833 0.48939 0.97025 0.0
H197 H 0.69443 0.53581 0.97967 0.0
H198 H 0.78538 0.47895 0.90244 0.0
H199 H 0.65046 0.43852 0.89168 0.0
Tb200 Tb 0.76142 0.2309 0.91153 0.0
Tb201 Tb 0.91126 0.14607 0.91777 0.0
C202 C 0.89102 0.20268 0.86655 0.0
C203 C 0.5376 0.25347 0.90577 0.0
C204 C 0.37467 0.20247 0.90724 0.0
C205 C 0.42145 0.20387 0.88328 0.0
C206 C 0.50242 0.22771 0.88278 0.0
C207 C 0.49124 0.25281 0.9297 0.0
C208 C 0.41154 0.22675 0.93055 0.0
C209 C 0.62285 0.27986 0.90488 0.0
O210 O 0.70572 0.14485 0.904 0.0
O211 O 0.79847 0.08929 0.92747 0.0
O212 O 0.91544 0.1809 0.95701 0.0
O213 O 0.77591 0.20532 0.95471 0.0
O214 O 1.00055 0.10792 0.89203 0.0
O215 O 1.00527 0.09237 0.93462 0.0
O216 O 0.95887 0.24082 0.9192 0.0
O217 O 0.84065 0.29796 0.92629 0.0
O218 O 0.85466 0.24843 0.87805 0.0
O219 O 0.87184 0.15222 0.8771 0.0
C220 C 0.72052 0.09797 0.91834 0.0
O221 O 0.66361 0.28225 0.92755 0.0
O222 O 0.67104 0.26386 0.88488 0.0
C223 C 0.84613 0.19586 0.96874 0.0
C224 C 0.13158 0.11706 0.91186 0.0
C225 C 0.28925 0.17454 0.90814 0.0
C226 C 0.23049 0.19098 0.92799 0.0
C227 C 0.15308 0.16215 0.93 0.0
C228 C 0.18741 0.1026 0.89116 0.0
C229 C 0.26596 0.13008 0.88958 0.0
C230 C 1.04681 0.09116 0.91203 0.0
C231 C 0.92166 0.29268 0.92505 0.0
H232 H 0.39613 0.18693 0.86467 0.0
H233 H 0.53764 0.22592 0.86433 0.0
H234 H 0.51687 0.27185 0.94791 0.0
H235 H 0.38003 0.22509 0.94973 0.0
H236 H 0.24314 0.22667 0.94192 0.0
H237 H 0.10927 0.1762 0.9454 0.0
H238 H 0.17065 0.06933 0.87638 0.0
H239 H 0.30867 0.11481 0.87418 0.0
Tb240 Tb 0.11715 0.23436 0.80748 0.0
Tb241 Tb 0.96474 0.15746 0.7868 0.0
C242 C 0.95418 0.20256 0.84387 0.0
C243 C 0.34035 0.25829 0.80909 0.0
C244 C 0.50147 0.21562 0.79355 0.0
C245 C 0.49169 0.2587 0.8138 0.0
C246 C 0.41264 0.28002 0.82125 0.0
C247 C 0.34811 0.21499 0.78891 0.0
C248 C 0.4277 0.19413 0.7811 0.0
C249 C 0.25717 0.28058 0.81744 0.0
O250 O 0.15525 0.14515 0.81662 0.0
O251 O 1.08171 0.09988 0.78336 0.0
O252 O 0.99312 0.20998 0.7535 0.0
O253 O 0.1304 0.20714 0.76444 0.0
O254 O 0.87008 0.09468 0.7939 0.0
O255 O 0.87864 0.13737 0.75574 0.0
O256 O 0.92091 0.25123 0.79307 0.0
O257 O 1.04263 0.30659 0.79437 0.0
O258 O 1.01354 0.24322 0.83905 0.0
O259 O 0.95335 0.15473 0.82939 0.0
C260 C 0.14964 0.10249 0.7992 0.0
O261 O 0.20885 0.29753 0.79783 0.0
O262 O 0.21647 0.24813 0.8348 0.0
C263 C 1.07014 0.20956 0.74611 0.0
C264 C 0.74607 0.13756 0.77665 0.0
C265 C 0.58751 0.1918 0.78669 0.0
C266 C 0.60492 0.1643 0.76176 0.0
C267 C 0.68294 0.13655 0.757 0.0
C268 C 0.73132 0.16894 0.80049 0.0
C269 C 0.65297 0.19392 0.80578 0.0
C270 C 0.82941 0.10978 0.77231 0.0
C271 C 0.96144 0.30314 0.79231 0.0
H272 H 0.54496 0.27645 0.82427 0.0
H273 H 0.40798 0.31388 0.83643 0.0
H274 H 0.29261 0.19707 0.77926 0.0
H275 H 0.43045 0.16017 0.76581 0.0
H276 H 0.55814 0.16302 0.74603 0.0
H277 H 0.69382 0.11422 0.73808 0.0
H278 H 0.77943 0.17202 0.81581 0.0
H279 H 0.64418 0.21268 0.8255 0.0
Tb280 Tb 0.75754 0.42243 0.80905 0.0
Tb281 Tb 0.90696 0.50597 0.79988 0.0
C282 C 0.89239 0.45104 0.85192 0.0
C283 C 0.5346 0.40109 0.8156 0.0
C284 C 0.37106 0.45075 0.8125 0.0
C285 C 0.41864 0.4543 0.83629 0.0
C286 C 0.50011 0.43165 0.83741 0.0
C287 C 0.48826 0.39762 0.79173 0.0
C288 C 0.40831 0.42302 0.79003 0.0
C289 C 0.61949 0.3746 0.81748 0.0
O290 O 0.70322 0.50939 0.81572 0.0
O291 O 0.79388 0.5626 0.79037 0.0
O292 O 0.90595 0.46956 0.76092 0.0
O293 O 0.76575 0.45054 0.76626 0.0
O294 O 0.99598 0.54828 0.82432 0.0
O295 O 1.00191 0.55597 0.78127 0.0
O296 O 0.95301 0.41094 0.79885 0.0
O297 O 0.83337 0.35472 0.79295 0.0
O298 O 0.85389 0.40522 0.84134 0.0
O299 O 0.87331 0.50131 0.84118 0.0
C300 C 0.71669 0.5548 0.80026 0.0
O301 O 0.66013 0.3682 0.79492 0.0
O302 O 0.66776 0.39384 0.83688 0.0
C303 C 0.83331 0.45777 0.75074 0.0
C304 C 0.12719 0.53419 0.80519 0.0
C305 C 0.2849 0.47756 0.81082 0.0
C306 C 0.2278 0.45987 0.79066 0.0
C307 C 0.15048 0.48837 0.78767 0.0
C308 C 0.18071 0.5494 0.82635 0.0
C309 C 0.25925 0.52248 0.82885 0.0
C310 C 1.04298 0.56069 0.80384 0.0
C311 C 0.91461 0.35935 0.7934 0.0
H312 H 0.39404 0.4743 0.85433 0.0
H313 H 0.53639 0.4385 0.85541 0.0
H314 H 0.51397 0.37547 0.77429 0.0
H315 H 0.37699 0.42113 0.77085 0.0
H316 H 0.24158 0.42364 0.77714 0.0
H317 H 0.10826 0.4736 0.77196 0.0
H318 H 0.16238 0.58317 0.84071 0.0
H319 H 0.30001 0.53898 0.8445 0.0
Tb320 Tb 0.17017 0.88418 0.54718 0.0
Tb321 Tb 1.02051 -0.0339 0.55939 0.0
C322 C 0.08491 0.93019 0.4996 0.0
C323 C 0.3903 0.8574 0.55129 0.0
C324 C 0.54718 0.91335 0.55951 0.0
C325 C 0.49481 0.93002 0.53801 0.0
C326 C 0.41789 0.90185 0.53375 0.0
C327 C 0.43922 0.84339 0.57374 0.0
C328 C 0.51733 0.87023 0.57761 0.0
C329 C 0.30693 0.83009 0.54804 0.0
O330 O 0.21503 -0.02086 0.5473 0.0
O331 O 0.0943 0.03483 0.54304 0.0
O332 O 0.11889 -0.01584 0.591 0.0
O333 O 0.14795 0.88896 0.58936 0.0
O334 O 0.92335 0.02359 0.54828 0.0
O335 O 0.93079 -0.0125 0.5886 0.0
O336 O 0.96917 0.87798 0.56519 0.0
O337 O 1.05751 0.82704 0.53811 0.0
O338 O 0.15987 0.92053 0.50843 0.0
O339 O 1.02051 0.9382 0.51636 0.0
C340 C 0.17562 0.03075 0.54293 0.0
O341 O 0.25855 0.83464 0.5689 0.0
O342 O 0.2664 0.84086 0.52586 0.0
C343 C 0.16386 0.93988 0.60022 0.0
C344 C 0.79764 -0.01386 0.56732 0.0
C345 C 0.63347 0.9389 0.5623 0.0
C346 C 0.67445 0.94039 0.58731 0.0
C347 C 0.75632 -0.03797 0.5895 0.0
C348 C 0.75767 -0.01563 0.54224 0.0
C349 C 0.6773 -0.03989 0.53969 0.0
C350 C 0.88272 0.0117 0.57039 0.0
C351 C 0.98124 0.83399 0.54868 0.0
H352 H 0.51254 -0.03503 0.52434 0.0
H353 H 0.37969 0.91557 0.51689 0.0
H354 H 0.41783 0.81051 0.58801 0.0
H355 H 0.555 0.85501 0.59427 0.0
H356 H 0.64399 0.92516 0.60539 0.0
H357 H 0.78769 -0.04039 0.60857 0.0
H358 H 0.78849 0.00134 0.52448 0.0
H359 H 0.65059 -0.04251 0.51981 0.0
Tb360 Tb 0.22864 0.23285 0.53668 0.0
Tb361 Tb 0.38093 0.15466 0.55593 0.0
C362 C 0.3242 0.17366 0.4953 0.0
C363 C 1.00998 0.25163 0.52697 0.0
C364 C 0.85159 0.19588 0.53544 0.0
C365 C 0.8706 0.22355 0.51075 0.0
C366 C 0.94854 0.252 0.50675 0.0
C367 C 0.99354 0.22019 0.55062 0.0
C368 C 0.91531 0.19447 0.55511 0.0
C369 C 0.09269 0.28122 0.52374 0.0
O370 O 0.18308 0.1393 0.54329 0.0
O371 O 0.30375 0.08261 0.54444 0.0
O372 O 0.27982 0.14855 0.58819 0.0
O373 O 0.22698 0.23927 0.57925 0.0
O374 O 0.47172 0.09131 0.54557 0.0
O375 O 0.48109 0.14003 0.58279 0.0
O376 O 0.42082 0.24363 0.56477 0.0
O377 O 0.34643 0.28872 0.53177 0.0
O378 O 0.2487 0.17625 0.50404 0.0
O379 O 0.38782 0.17818 0.51239 0.0
C380 C 0.22269 0.08688 0.54245 0.0
O381 O 0.13249 0.29296 0.54594 0.0
O382 O 0.14324 0.25793 0.50612 0.0
C383 C 0.22498 0.19171 0.5937 0.0
C384 C 0.6041 0.12911 0.5568 0.0
C385 C 0.76553 0.17131 0.54157 0.0
C386 C 0.75527 0.12777 0.56148 0.0
C387 C 0.67601 0.10731 0.56913 0.0
C388 C 0.61235 0.17224 0.53665 0.0
C389 C 0.69215 0.19316 0.52909 0.0
C390 C 0.52076 0.10748 0.56516 0.0
C391 C 0.41476 0.28612 0.54741 0.0
H392 H 0.82486 0.22462 0.4947 0.0
H393 H 0.96035 0.27479 0.48807 0.0
H394 H 1.04009 0.21759 0.56645 0.0
H395 H 0.90512 0.17567 0.57468 0.0
H396 H 0.80833 0.1103 0.57207 0.0
H397 H 0.67084 0.07482 0.58492 0.0
H398 H 0.557 0.19031 0.52697 0.0
H399 H 0.69545 0.22758 0.5141 0.0
Tb400 Tb 0.17013 0.24921 0.66977 0.0
Tb401 Tb 1.02049 0.1673 0.65755 0.0
C402 C 0.08494 0.20308 0.71734 0.0
C403 C 0.39026 0.27606 0.66568 0.0
C404 C 0.54715 0.22012 0.65746 0.0
C405 C 0.49477 0.20344 0.67895 0.0
C406 C 0.41785 0.2316 0.68321 0.0
C407 C 0.43919 0.29009 0.64324 0.0
C408 C 0.51731 0.26326 0.63937 0.0
C409 C 0.30687 0.30334 0.66892 0.0
O410 O 0.21502 0.15427 0.66964 0.0
O411 O 0.09429 0.09855 0.67387 0.0
O412 O 0.11887 0.14924 0.62593 0.0
O413 O 0.14795 0.24445 0.62758 0.0
O414 O 0.92331 0.10983 0.66865 0.0
O415 O 0.93074 0.14592 0.62833 0.0
O416 O 0.9692 0.25544 0.65173 0.0
O417 O 1.05745 0.30632 0.67885 0.0
O418 O 0.15989 0.21279 0.70851 0.0
O419 O 1.02052 0.19514 0.70057 0.0
C420 C 0.17561 0.10265 0.674 0.0
O421 O 0.25851 0.29878 0.64806 0.0
O422 O 0.26632 0.29256 0.6911 0.0
C423 C 0.16384 0.19353 0.61672 0.0
C424 C 0.7976 0.14731 0.64963 0.0
C425 C 0.63344 0.19457 0.65467 0.0
C426 C 0.67443 0.19312 0.62966 0.0
C427 C 0.75629 0.17148 0.62746 0.0
C428 C 0.75763 0.14905 0.67471 0.0
C429 C 0.67726 0.1733 0.67727 0.0
C430 C 0.88267 0.12173 0.64655 0.0
C431 C 0.98121 0.29939 0.66826 0.0
H432 H 0.51251 0.16847 0.69262 0.0
H433 H 0.37963 0.21785 0.70007 0.0
H434 H 0.4178 0.32299 0.62898 0.0
H435 H 0.55498 0.2785 0.62271 0.0
H436 H 0.64397 0.20838 0.61158 0.0
H437 H 0.78766 0.17395 0.60839 0.0
H438 H 0.78844 0.13203 0.69246 0.0
H439 H 0.65055 0.17589 0.69714 0.0
Tb440 Tb 0.22863 0.90057 0.68029 0.0
Tb441 Tb 0.38093 -0.02128 0.66102 0.0
C442 C 0.3243 -0.04031 0.72165 0.0
C443 C 1.00999 0.88181 0.69005 0.0
C444 C 0.8516 0.93754 0.68155 0.0
C445 C 0.87057 0.90985 0.70624 0.0
C446 C 0.94852 0.88141 0.71025 0.0
C447 C 0.99358 0.91327 0.66639 0.0
C448 C 0.91535 0.93898 0.6619 0.0
C449 C 0.0927 0.85223 0.69328 0.0
O450 O 0.18307 -0.0059 0.67366 0.0
O451 O 0.30375 0.05078 0.67251 0.0
O452 O 0.27983 -0.01519 0.62876 0.0
O453 O 0.22681 0.89415 0.63772 0.0
O454 O 0.47172 0.04208 0.67138 0.0
O455 O 0.48112 -0.00666 0.63417 0.0
O456 O 0.42078 0.88975 0.65217 0.0
O457 O 0.34642 0.84468 0.68518 0.0
O458 O 0.24879 -0.0428 0.71292 0.0
O459 O 0.3879 -0.04486 0.70455 0.0
C460 C 0.22269 0.04652 0.67449 0.0
O461 O 0.13247 0.84042 0.67108 0.0
O462 O 0.14327 0.87558 0.71087 0.0
C463 C 0.22494 -0.05832 0.62325 0.0
C464 C 0.60411 0.00428 0.66017 0.0
C465 C 0.76553 -0.0379 0.67542 0.0
C466 C 0.75528 0.00565 0.65552 0.0
C467 C 0.67603 0.0261 0.64786 0.0
C468 C 0.61234 -0.03886 0.68031 0.0
C469 C 0.69214 0.94023 0.68788 0.0
C470 C 0.52077 0.02589 0.65179 0.0
C471 C 0.41474 0.84726 0.66953 0.0
H472 H 0.82481 0.90875 0.72228 0.0
H473 H 0.9603 0.85859 0.72892 0.0
H474 H 1.04015 0.91589 0.65057 0.0
H475 H 0.90518 -0.04221 0.64232 0.0
H476 H 0.80835 0.02313 0.64493 0.0
H477 H 0.67087 0.05861 0.63207 0.0
H478 H 0.55699 -0.05695 0.68998 0.0
H479 H 0.69543 0.9058 0.70287 0.0
Tb480 Tb 0.11705 0.89871 0.40947 0.0
Tb481 Tb 0.96462 -0.0244 0.43013 0.0
C482 C 0.95404 0.93044 0.37306 0.0
C483 C 0.34025 0.87475 0.40785 0.0
C484 C 0.50136 0.91742 0.42339 0.0
C485 C 0.49158 0.87436 0.40313 0.0
C486 C 0.41253 0.85305 0.39568 0.0
C487 C 0.34802 0.91803 0.42804 0.0
C488 C 0.42761 0.9389 0.43585 0.0
C489 C 0.25706 0.85247 0.39951 0.0
O490 O 0.15518 -0.01209 0.40032 0.0
O491 O 1.08157 0.0332 0.43357 0.0
O492 O 0.99306 0.92312 0.46345 0.0
O493 O 0.13033 0.92599 0.45249 0.0
O494 O 0.86997 0.0384 0.42305 0.0
O495 O 0.87852 -0.00436 0.4612 0.0
O496 O 0.92079 0.88184 0.42387 0.0
O497 O 1.04252 0.82649 0.42259 0.0
O498 O 1.01348 0.88983 0.37788 0.0
O499 O 0.95311 -0.02173 0.38755 0.0
C500 C 0.14953 0.03059 0.41774 0.0
O501 O 0.20874 0.83553 0.41912 0.0
O502 O 0.21637 0.88492 0.38215 0.0
C503 C 1.07008 0.92361 0.47083 0.0
C504 C 0.74595 -0.00451 0.44029 0.0
C505 C 0.5874 0.94124 0.43025 0.0
C506 C 0.60483 -0.0313 0.45519 0.0
C507 C 0.68284 -0.00354 0.45994 0.0
C508 C 0.73119 -0.03585 0.41644 0.0
C509 C 0.65284 0.93917 0.41115 0.0
C510 C 0.82929 0.02326 0.44463 0.0
C511 C 0.96139 0.82991 0.42463 0.0
H512 H 0.54485 0.85662 0.39266 0.0
H513 H 0.40786 0.81921 0.38048 0.0
H514 H 0.29253 0.93594 0.43771 0.0
H515 H 0.43036 -0.02715 0.45115 0.0
H516 H 0.55807 -0.03005 0.47092 0.0
H517 H 0.69374 0.01877 0.47887 0.0
H518 H 0.77928 -0.0389 0.40111 0.0
H519 H 0.64403 0.92044 0.39142 0.0
Tb520 Tb 0.75745 0.71063 0.40787 0.0
Tb521 Tb 0.90686 0.6271 0.41708 0.0
C522 C 0.89235 0.68195 0.36502 0.0
C523 C 0.5345 0.73199 0.40135 0.0
C524 C 0.37095 0.68235 0.40448 0.0
C525 C 0.41849 0.6788 0.38069 0.0
C526 C 0.49995 0.70144 0.37954 0.0
C527 C 0.48821 0.73547 0.42523 0.0
C528 C 0.40825 0.71008 0.42694 0.0
C529 C 0.6194 0.75846 0.39945 0.0
O530 O 0.70315 0.62366 0.40121 0.0
O531 O 0.79375 0.57049 0.4266 0.0
O532 O 0.90584 0.66359 0.45603 0.0
O533 O 0.76565 0.6826 0.45068 0.0
O534 O 0.99591 0.58474 0.39268 0.0
O535 O 1.00178 0.57714 0.43574 0.0
O536 O 0.95293 0.72212 0.4181 0.0
O537 O 0.83329 0.77836 0.42396 0.0
O538 O 0.85382 0.72778 0.37558 0.0
O539 O 0.8733 0.63169 0.37577 0.0
C540 C 0.71659 0.57827 0.41668 0.0
O541 O 0.66008 0.76489 0.42201 0.0
O542 O 0.66764 0.73919 0.38005 0.0
C543 C 0.83321 0.67542 0.4662 0.0
C544 C 0.12709 0.59889 0.41182 0.0
C545 C 0.2848 0.65553 0.40618 0.0
C546 C 0.22774 0.67318 0.42636 0.0
C547 C 0.15042 0.64468 0.42936 0.0
C548 C 0.18057 0.58372 0.39064 0.0
C549 C 0.25911 0.61064 0.38814 0.0
C550 C 1.04289 0.57239 0.41317 0.0
C551 C 0.91446 0.77374 0.42353 0.0
H552 H 0.39385 0.65881 0.36264 0.0
H553 H 0.5362 0.69458 0.36154 0.0
H554 H 0.51396 0.75762 0.44266 0.0
H555 H 0.37697 0.71197 0.44613 0.0
H556 H 0.24155 0.70938 0.43989 0.0
H557 H 0.10824 0.65941 0.44509 0.0
H558 H 0.16221 0.54998 0.37627 0.0
H559 H 0.29982 0.59417 0.37248 0.0
Tb560 Tb 0.12236 0.71507 0.30871 0.0
Tb561 Tb 0.96923 0.63916 0.28542 0.0
C562 C 0.95677 0.68219 0.34289 0.0
C563 C 0.3447 0.73907 0.31112 0.0
C564 C 0.50515 0.69716 0.2943 0.0
C565 C 0.49643 0.74027 0.3146 0.0
C566 C 0.41773 0.76131 0.32262 0.0
C567 C 0.35151 0.69606 0.29079 0.0
C568 C 0.43064 0.67569 0.2823 0.0
C569 C 0.26169 0.76057 0.32014 0.0
O570 O 0.15956 0.6246 0.31604 0.0
O571 O 0.0853 0.58071 0.28233 0.0
O572 O 1.00623 0.68849 0.25184 0.0
O573 O 0.14112 0.68818 0.26628 0.0
O574 O 0.87453 0.57553 0.29115 0.0
O575 O 0.8812 0.62398 0.2544 0.0
O576 O 0.9273 0.73269 0.29209 0.0
O577 O 1.04983 0.78704 0.29385 0.0
O578 O 1.01627 0.72306 0.33907 0.0
O579 O 0.95748 0.63483 0.32805 0.0
C580 C 0.15348 0.58279 0.29812 0.0
O581 O 0.21342 0.78003 0.30101 0.0
O582 O 0.22076 0.72607 0.33664 0.0
C583 C 0.08511 0.68974 0.24669 0.0
C584 C 0.74932 0.62008 0.27547 0.0
C585 C 0.59081 0.67324 0.28691 0.0
C586 C 0.60643 0.64554 0.26191 0.0
C587 C 0.68459 0.61879 0.25637 0.0
C588 C 0.73595 0.65082 0.29956 0.0
C589 C 0.65776 0.67554 0.30548 0.0
C590 C 0.83293 0.59351 0.27019 0.0
C591 C 0.96873 0.78415 0.29129 0.0
H592 H 0.55016 0.75763 0.32501 0.0
H593 H 0.41394 0.79475 0.33799 0.0
H594 H 0.29562 0.67784 0.28153 0.0
H595 H 0.43237 0.64196 0.2669 0.0
H596 H 0.55825 0.64356 0.24665 0.0
H597 H 0.69435 0.59715 0.23722 0.0
H598 H 0.7853 0.65394 0.31446 0.0
H599 H 0.65037 0.69436 0.32523 0.0
Tb600 Tb 0.76134 0.90203 0.30538 0.0
Tb601 Tb 0.91118 -0.01314 0.29912 0.0
C602 C 0.89098 0.9303 0.35035 0.0
C603 C 0.53751 0.87941 0.31111 0.0
C604 C 0.37457 0.93041 0.30961 0.0
C605 C 0.4213 0.92897 0.33359 0.0
C606 C 0.50227 0.90513 0.3341 0.0
C607 C 0.49119 0.88009 0.28717 0.0
C608 C 0.41149 0.90615 0.28631 0.0
C609 C 0.62277 0.85305 0.31202 0.0
O610 O 0.70563 -0.01192 0.31291 0.0
O611 O 0.79836 0.04362 0.28942 0.0
O612 O 0.91536 -0.04804 0.25989 0.0
O613 O 0.77583 0.92758 0.26219 0.0
O614 O 1.0005 0.02503 0.32484 0.0
O615 O 1.00516 0.04054 0.28224 0.0
O616 O 0.95879 0.89211 0.29771 0.0
O617 O 0.84057 0.83495 0.29064 0.0
O618 O 0.85457 0.88455 0.33887 0.0
O619 O 0.87183 -0.01924 0.3398 0.0
C620 C 0.72042 0.03495 0.29857 0.0
O621 O 0.66355 0.85066 0.28935 0.0
O622 O 0.67093 0.86906 0.33202 0.0
C623 C 0.84606 0.93701 0.24816 0.0
C624 C 0.1315 0.01585 0.30499 0.0
C625 C 0.28916 -0.04165 0.30871 0.0
C626 C 0.23043 -0.05804 0.28884 0.0
C627 C 0.15302 -0.0292 0.28683 0.0
C628 C 0.18732 0.03027 0.3257 0.0
C629 C 0.26586 0.00279 0.32728 0.0
C630 C 1.04674 0.04176 0.30482 0.0
C631 C 0.92159 0.84025 0.29187 0.0
H632 H 0.39593 -0.05413 0.3522 0.0
H633 H 0.53745 0.90689 0.35256 0.0
H634 H 0.51686 0.86109 0.26896 0.0
H635 H 0.38002 0.90784 0.26712 0.0
H636 H 0.2431 0.9063 0.27489 0.0
H637 H 0.10923 -0.04322 0.27142 0.0
H638 H 0.17054 0.06351 0.34049 0.0
H639 H 0.30854 0.01802 0.34269 0.0
Tb640 Tb 0.67017 0.38419 0.54719 0.0
Tb641 Tb 0.5205 0.46611 0.55938 0.0
C642 C 0.58491 0.43018 0.4996 0.0
C643 C 0.89031 0.35741 0.5513 0.0
C644 C 1.04719 0.41337 0.55951 0.0
C645 C 0.99482 0.43002 0.53801 0.0
C646 C 0.9179 0.40185 0.53375 0.0
C647 C 0.93924 0.34341 0.57375 0.0
C648 C 1.01735 0.37025 0.57761 0.0
C649 C 0.80694 0.3301 0.54805 0.0
O650 O 0.71503 0.47914 0.5473 0.0
O651 O 0.5943 0.53483 0.54303 0.0
O652 O 0.61888 0.48416 0.591 0.0
O653 O 0.64792 0.38896 0.58936 0.0
O654 O 0.42335 0.52361 0.54828 0.0
O655 O 0.43079 0.48752 0.5886 0.0
O656 O 0.46913 0.37799 0.56518 0.0
O657 O 0.55752 0.32704 0.53812 0.0
O658 O 0.65987 0.42052 0.50843 0.0
O659 O 0.52051 0.43819 0.51636 0.0
C660 C 0.67562 0.53075 0.54293 0.0
O661 O 0.75856 0.33467 0.56891 0.0
O662 O 0.7664 0.34086 0.52587 0.0
C663 C 0.66384 0.43988 0.60022 0.0
C664 C 0.29765 0.48617 0.56731 0.0
C665 C 0.13347 0.43892 0.5623 0.0
C666 C 0.17445 0.44043 0.58731 0.0
C667 C 0.25631 0.46207 0.5895 0.0
C668 C 0.25768 0.48438 0.54223 0.0
C669 C 0.17731 0.46012 0.53969 0.0
C670 C 0.38273 0.51173 0.57039 0.0
C671 C 0.48125 0.33398 0.54869 0.0
H672 H 1.01255 0.46497 0.52433 0.0
H673 H 0.8797 0.41557 0.51689 0.0
H674 H 0.91785 0.31053 0.58801 0.0
H675 H 1.05501 0.35504 0.59427 0.0
H676 H 0.14398 0.42521 0.60539 0.0
H677 H 0.28768 0.45966 0.60857 0.0
H678 H 0.2885 0.50134 0.52447 0.0
H679 H 0.1506 0.45749 0.51981 0.0
Tb680 Tb 0.72863 0.73285 0.53667 0.0
Tb681 Tb 0.88093 0.65467 0.55593 0.0
C682 C 0.8242 0.67366 0.4953 0.0
C683 C 0.50998 0.75163 0.52695 0.0
C684 C 0.3516 0.69588 0.53543 0.0
C685 C 0.37059 0.72354 0.51074 0.0
C686 C 0.44854 0.752 0.50674 0.0
C687 C 0.49355 0.72019 0.55061 0.0
C688 C 0.41532 0.69446 0.5551 0.0
C689 C 0.59269 0.78122 0.52372 0.0
O690 O 0.68307 0.6393 0.54328 0.0
O691 O 0.80375 0.58261 0.54444 0.0
O692 O 0.77982 0.64856 0.58818 0.0
O693 O 0.72696 0.73927 0.57925 0.0
O694 O 0.97172 0.59131 0.54556 0.0
O695 O 0.9811 0.64004 0.58279 0.0
O696 O 0.92081 0.74363 0.56476 0.0
O697 O 0.84643 0.78872 0.53177 0.0
O698 O 0.7487 0.67625 0.50403 0.0
O699 O 0.88783 0.67819 0.51239 0.0
C700 C 0.72269 0.58688 0.54245 0.0
O701 O 0.63248 0.79297 0.54593 0.0
O702 O 0.64324 0.75792 0.50611 0.0
C703 C 0.72498 0.69172 0.5937 0.0
C704 C 0.1041 0.62911 0.5568 0.0
C705 C 0.26553 0.67131 0.54156 0.0
C706 C 0.25527 0.62778 0.56147 0.0
C707 C 0.17601 0.60733 0.56912 0.0
C708 C 0.11235 0.67223 0.53664 0.0
C709 C 0.19215 0.69315 0.52908 0.0
C710 C 1.02076 0.60749 0.56516 0.0
C711 C 0.91475 0.78613 0.54741 0.0
H712 H 0.32486 0.72462 0.4947 0.0
H713 H 0.46034 0.77479 0.48806 0.0
H714 H 0.5401 0.71759 0.56644 0.0
H715 H 0.40513 0.67567 0.57467 0.0
H716 H 0.30833 0.61032 0.57207 0.0
H717 H 0.17084 0.57485 0.58492 0.0
H718 H 1.05701 0.6903 0.52696 0.0
H719 H 0.19545 0.72756 0.51408 0.0
Tb720 Tb 0.67014 0.74921 0.66977 0.0
Tb721 Tb 0.52049 0.66731 0.65754 0.0
C722 C 0.58493 0.70309 0.71734 0.0
C723 C 0.89028 0.77605 0.66568 0.0
C724 C 1.04717 0.72012 0.65746 0.0
C725 C 0.9948 0.70344 0.67896 0.0
C726 C 0.91787 0.73159 0.68322 0.0
C727 C 0.9392 0.79009 0.64324 0.0
C728 C 1.01732 0.76326 0.63937 0.0
C729 C 0.80689 0.80333 0.66893 0.0
O730 O 0.71503 0.65426 0.66964 0.0
O731 O 0.59429 0.59856 0.67388 0.0
O732 O 0.61888 0.64925 0.62593 0.0
O733 O 0.64798 0.74445 0.62758 0.0
O734 O 0.42332 0.60982 0.66865 0.0
O735 O 0.43075 0.64594 0.62833 0.0
O736 O 0.46918 0.75544 0.65173 0.0
O737 O 0.55747 0.80633 0.67885 0.0
O738 O 0.65988 0.71278 0.70851 0.0
O739 O 0.52052 0.69514 0.70057 0.0
C740 C 0.67561 0.60264 0.674 0.0
O741 O 0.75853 0.79878 0.64807 0.0
O742 O 0.76634 0.79254 0.6911 0.0
C743 C 0.66386 0.69353 0.61672 0.0
C744 C 0.29762 0.64732 0.64963 0.0
C745 C 0.13346 0.69458 0.65467 0.0
C746 C 0.17444 0.69313 0.62966 0.0
C747 C 0.2563 0.67149 0.62745 0.0
C748 C 0.25766 0.64905 0.67471 0.0
C749 C 0.17729 0.67331 0.67726 0.0
C750 C 0.38269 0.62174 0.64654 0.0
C751 C 0.48123 0.79941 0.66826 0.0
H752 H 1.01254 0.66847 0.69263 0.0
H753 H 0.87966 0.71784 0.70008 0.0
H754 H 0.91781 0.82299 0.62898 0.0
H755 H 1.05499 0.77851 0.62272 0.0
H756 H 0.14398 0.70839 0.61158 0.0
H757 H 0.28767 0.67396 0.60839 0.0
H758 H 0.28846 0.63203 0.69246 0.0
H759 H 0.15058 0.67589 0.69714 0.0
Tb760 Tb 0.72861 0.40056 0.68029 0.0
Tb761 Tb 0.88092 0.47871 0.66102 0.0
C762 C 0.82429 0.45967 0.72165 0.0
C763 C 0.50996 0.3818 0.69004 0.0
C764 C 0.35157 0.43753 0.68155 0.0
C765 C 0.37055 0.40984 0.70624 0.0
C766 C 0.44849 0.3814 0.71025 0.0
C767 C 0.49356 0.41327 0.66639 0.0
C768 C 0.41532 0.43898 0.6619 0.0
C769 C 0.59268 0.35222 0.69328 0.0
O770 O 0.68306 0.4941 0.67366 0.0
O771 O 0.80374 0.55077 0.67251 0.0
O772 O 0.77982 0.48481 0.62876 0.0
O773 O 0.7268 0.39414 0.63772 0.0
O774 O 0.9717 0.54208 0.67138 0.0
O775 O 0.98111 0.49333 0.63416 0.0
O776 O 0.92077 0.38974 0.65217 0.0
O777 O 0.84639 0.34467 0.68518 0.0
O778 O 0.74877 0.45719 0.71292 0.0
O779 O 0.88788 0.45513 0.70455 0.0
C780 C 0.72268 0.54651 0.67449 0.0
O781 O 0.63245 0.34042 0.67108 0.0
O782 O 0.64325 0.37557 0.71087 0.0
C783 C 0.72492 0.44168 0.62325 0.0
C784 C 0.10409 0.50428 0.66017 0.0
C785 C 0.26551 0.46209 0.67542 0.0
C786 C 0.25526 0.50565 0.65552 0.0
C787 C 0.17601 0.52611 0.64786 0.0
C788 C 0.11232 0.46112 0.68031 0.0
C789 C 0.19212 0.44022 0.68788 0.0
C790 C 1.02075 0.52589 0.65179 0.0
C791 C 0.91471 0.34725 0.66953 0.0
H792 H 0.32479 0.40874 0.72228 0.0
H793 H 0.46028 0.35858 0.72892 0.0
H794 H 0.54013 0.41589 0.65057 0.0
H795 H 0.40516 0.4578 0.64233 0.0
H796 H 0.30834 0.52315 0.64495 0.0
H797 H 0.17086 0.55862 0.63208 0.0
H798 H 1.05696 0.44303 0.68997 0.0
H799 H 0.19541 0.40578 0.70287 0.0
Tb800 Tb 0.61705 0.39871 0.40947 0.0
Tb801 Tb 0.46461 0.4756 0.43013 0.0
C802 C 0.45403 0.43044 0.37306 0.0
C803 C 0.84025 0.37476 0.40785 0.0
C804 C 1.00136 0.41742 0.42339 0.0
C805 C 0.99158 0.37437 0.40313 0.0
C806 C 0.91253 0.35306 0.39568 0.0
C807 C 0.84802 0.41803 0.42804 0.0
C808 C 0.92761 0.4389 0.43586 0.0
C809 C 0.75707 0.35248 0.39951 0.0
O810 O 0.65517 0.48792 0.40032 0.0
O811 O 0.58157 0.5332 0.43357 0.0
O812 O 0.49306 0.42312 0.46345 0.0
O813 O 0.63033 0.42599 0.45249 0.0
O814 O 0.36997 0.5384 0.42305 0.0
O815 O 0.37852 0.49564 0.4612 0.0
O816 O 0.42079 0.38185 0.42387 0.0
O817 O 0.54251 0.32649 0.42258 0.0
O818 O 0.51347 0.38984 0.37788 0.0
O819 O 0.4531 0.47827 0.38755 0.0
C820 C 0.64952 0.5306 0.41773 0.0
O821 O 0.70874 0.33554 0.41911 0.0
O822 O 0.71637 0.38493 0.38215 0.0
C823 C 0.57008 0.4236 0.47083 0.0
C824 C 0.24595 0.49549 0.44029 0.0
C825 C 0.0874 0.44125 0.43025 0.0
C826 C 0.10483 0.46871 0.45519 0.0
C827 C 0.18284 0.49646 0.45995 0.0
C828 C 0.2312 0.46414 0.41644 0.0
C829 C 0.15285 0.43916 0.41116 0.0
C830 C 0.32929 0.52326 0.44464 0.0
C831 C 0.46139 0.32991 0.42463 0.0
H832 H 1.04485 0.35663 0.39266 0.0
H833 H 0.90786 0.31923 0.38048 0.0
H834 H 0.79252 0.43594 0.43771 0.0
H835 H 0.93036 0.47284 0.45115 0.0
H836 H 1.05806 0.46996 0.47093 0.0
H837 H 0.19373 0.51878 0.47887 0.0
H838 H 0.2793 0.46109 0.40112 0.0
H839 H 0.14405 0.42043 0.39143 0.0
Tb840 Tb 0.25745 0.21063 0.40788 0.0
Tb841 Tb 0.40686 0.1271 0.41709 0.0
C842 C 0.39233 0.18195 0.36502 0.0
C843 C 1.0345 0.23201 0.40136 0.0
C844 C 0.87095 0.18237 0.40449 0.0
C845 C 0.91848 0.17884 0.38069 0.0
C846 C 0.99995 0.20148 0.37955 0.0
C847 C 0.98822 0.23548 0.42524 0.0
C848 C 0.90826 0.2101 0.42695 0.0
C849 C 0.1194 0.25848 0.39946 0.0
O850 O 0.20311 0.12367 0.40122 0.0
O851 O 0.29376 0.07049 0.42659 0.0
O852 O 0.40584 0.16359 0.45604 0.0
O853 O 0.26564 0.1826 0.45068 0.0
O854 O 0.49592 0.08475 0.39269 0.0
O855 O 0.50179 0.07714 0.43574 0.0
O856 O 0.45293 0.22212 0.4181 0.0
O857 O 0.33329 0.27836 0.42397 0.0
O858 O 0.35381 0.22778 0.37559 0.0
O859 O 0.3733 0.13168 0.37578 0.0
C860 C 0.2166 0.07827 0.41668 0.0
O861 O 0.16008 0.26491 0.42201 0.0
O862 O 0.16763 0.23921 0.38005 0.0
C863 C 0.3332 0.17543 0.46621 0.0
C864 C 0.6271 0.0989 0.41183 0.0
C865 C 0.7848 0.15555 0.40619 0.0
C866 C 0.72775 0.17318 0.42638 0.0
C867 C 0.65043 0.14468 0.42937 0.0
C868 C 0.68057 0.08374 0.39065 0.0
C869 C 0.75911 0.11067 0.38814 0.0
C870 C 0.54289 0.07239 0.41318 0.0
C871 C 0.41446 0.27375 0.42353 0.0
H872 H 0.89384 0.15885 0.36265 0.0
H873 H 1.03619 0.19462 0.36155 0.0
H874 H 1.01397 0.25763 0.44267 0.0
H875 H 0.87698 0.21198 0.44614 0.0
H876 H 0.74156 0.20938 0.43991 0.0
H877 H 0.60825 0.1594 0.4451 0.0
H878 H 0.66222 0.05001 0.37628 0.0
H879 H 0.79982 0.0942 0.37248 0.0
Tb880 Tb 0.62234 0.21506 0.30871 0.0
Tb881 Tb 0.46921 0.13917 0.28542 0.0
C882 C 0.45675 0.18219 0.34289 0.0
C883 C 0.84469 0.23906 0.31112 0.0
C884 C 1.00514 0.19716 0.2943 0.0
C885 C 0.99642 0.24026 0.31459 0.0
C886 C 0.91772 0.2613 0.32262 0.0
C887 C 0.85149 0.19605 0.29079 0.0
C888 C 0.93063 0.17568 0.2823 0.0
C889 C 0.76168 0.26056 0.32014 0.0
O890 O 0.65955 0.12459 0.31604 0.0
O891 O 0.58528 0.08071 0.28233 0.0
O892 O 0.50623 0.1885 0.25184 0.0
O893 O 0.64112 0.18817 0.26628 0.0
O894 O 0.37451 0.07553 0.29114 0.0
O895 O 0.38119 0.124 0.25439 0.0
O896 O 0.42729 0.23269 0.29209 0.0
O897 O 0.54983 0.28703 0.29385 0.0
O898 O 0.51626 0.22305 0.33907 0.0
O899 O 0.45744 0.13483 0.32805 0.0
C900 C 0.65346 0.08278 0.29812 0.0
O901 O 0.71341 0.28002 0.30101 0.0
O902 O 0.72075 0.22606 0.33664 0.0
C903 C 0.58511 0.18973 0.24669 0.0
C904 C 0.24931 0.12008 0.27547 0.0
C905 C 0.09079 0.17324 0.2869 0.0
C906 C 0.10641 0.14554 0.26191 0.0
C907 C 0.18457 0.11879 0.25637 0.0
C908 C 0.23594 0.15082 0.29955 0.0
C909 C 0.15775 0.17554 0.30547 0.0
C910 C 0.33292 0.09352 0.27018 0.0
C911 C 0.46873 0.28415 0.29129 0.0
H912 H 1.05014 0.25763 0.32501 0.0
H913 H 0.91393 0.29475 0.33799 0.0
H914 H 0.79561 0.17782 0.28154 0.0
H915 H 0.93235 0.14195 0.2669 0.0
H916 H 1.05823 0.14356 0.24664 0.0
H917 H 0.19434 0.09715 0.23721 0.0
H918 H 0.28529 0.15394 0.31445 0.0
H919 H 0.15036 0.19436 0.32523 0.0
Tb920 Tb 0.26135 0.40203 0.30538 0.0
Tb921 Tb 0.41119 0.48686 0.29912 0.0
C922 C 0.39097 0.43031 0.35035 0.0
C923 C 1.03752 0.3794 0.31111 0.0
C924 C 0.87458 0.4304 0.30962 0.0
C925 C 0.92132 0.42897 0.33359 0.0
C926 C 1.00229 0.40513 0.3341 0.0
C927 C 0.9912 0.38008 0.28717 0.0
C928 C 0.91149 0.40614 0.28631 0.0
C929 C 0.12278 0.35304 0.31202 0.0
O930 O 0.20561 0.48807 0.3129 0.0
O931 O 0.29838 0.54363 0.28943 0.0
O932 O 0.41537 0.45197 0.25989 0.0
O933 O 0.27583 0.42758 0.26219 0.0
O934 O 0.50052 0.52502 0.32484 0.0
O935 O 0.50517 0.54054 0.28225 0.0
O936 O 0.4588 0.39211 0.29771 0.0
O937 O 0.34057 0.33496 0.29063 0.0
O938 O 0.35457 0.38455 0.33887 0.0
O939 O 0.37183 0.48076 0.3398 0.0
C940 C 0.22044 0.53496 0.29857 0.0
O941 O 0.16357 0.35065 0.28934 0.0
O942 O 0.17094 0.36906 0.33202 0.0
C943 C 0.34607 0.43701 0.24816 0.0
C944 C 0.63152 0.51585 0.305 0.0
C945 C 0.78917 0.45834 0.30871 0.0
C946 C 0.73044 0.44196 0.28884 0.0
C947 C 0.65304 0.47079 0.28684 0.0
C948 C 0.68733 0.53027 0.3257 0.0
C949 C 0.76587 0.50278 0.32728 0.0
C950 C 0.54676 0.54175 0.30483 0.0
C951 C 0.42159 0.34024 0.29187 0.0
H952 H 0.89596 0.44587 0.3522 0.0
H953 H 1.03747 0.40689 0.35256 0.0
H954 H 1.01687 0.36107 0.26896 0.0
H955 H 0.88002 0.40782 0.26712 0.0
H956 H 0.74311 0.40629 0.2749 0.0
H957 H 0.60924 0.45678 0.27143 0.0
H958 H 0.67056 0.56351 0.34049 0.0
H959 H 0.80856 0.51802 0.3427 0.0
Tb960 Tb 0.72579 0.89838 0.0367 0.0
Tb961 Tb 0.57298 -0.02608 0.06021 0.0
C962 C 0.60983 -0.05106 -0.00192 0.0
C963 C 0.94542 0.8786 0.02654 0.0
C964 C 0.10422 0.93105 0.03814 0.0
C965 C 0.08847 0.90384 0.01305 0.0
C966 C 1.01015 0.8774 0.00743 0.0
C967 C 0.95899 0.90894 0.05072 0.0
C968 C 1.03735 0.93328 0.05673 0.0
C969 C 0.86159 0.85255 0.02114 0.0
O970 O 0.76708 -0.00778 0.04274 0.0
O971 O 0.64429 0.04619 0.04511 0.0
O972 O 0.67973 -0.01691 0.09049 0.0
O973 O 0.74141 0.8959 0.07927 0.0
O974 O 0.48132 0.03838 0.05235 0.0
O975 O 0.47424 -0.01535 0.08805 0.0
O976 O 0.5357 0.88337 0.06746 0.0
O977 O 0.6097 0.83988 0.03364 0.0
O978 O 0.68873 -0.05232 0.00316 0.0
O979 O 0.55401 -0.05278 0.01772 0.0
C980 C 0.7252 0.04351 0.04201 0.0
O981 O 0.81987 0.83412 0.04201 0.0
O982 O 0.81359 0.88376 0.00557 0.0
C983 C 0.74109 -0.05664 0.09408 0.0
C984 C 0.35024 -0.00314 0.06238 0.0
C985 C 0.18991 -0.04537 0.04561 0.0
C986 C 0.1984 -0.00168 0.06564 0.0
C987 C 0.27701 0.01998 0.07335 0.0
C988 C 0.34368 -0.04698 0.0424 0.0
C989 C 0.26454 0.93269 0.03384 0.0
C990 C 0.43308 0.01878 0.07145 0.0
C991 C 0.54145 0.84185 0.04938 0.0
H992 H 0.13675 0.90194 -0.00219 0.0
H993 H 1.00025 0.85607 -0.01179 0.0
H994 H 0.90968 0.91199 0.06564 0.0
H995 H 1.04507 -0.04824 0.07655 0.0
H996 H 0.14445 0.01642 0.07571 0.0
H997 H 0.28064 0.0551 0.08783 0.0
H998 H 0.39968 0.93439 0.0334 0.0
H999 H 0.26284 0.89873 0.01855 0.0
Tb1000 Tb 0.78292 0.24603 0.04969 0.0
Tb1001 Tb 0.93294 0.16088 0.05495 0.0
C1002 C 0.84723 0.1981 -0.0018 0.0
C1003 C 0.56251 0.27371 0.05599 0.0
C1004 C 0.4048 0.21596 0.05899 0.0
C1005 C 0.46464 0.19955 0.03945 0.0
C1006 C 0.54199 0.22856 0.03777 0.0
C1007 C 0.50587 0.28794 0.07647 0.0
C1008 C 0.42731 0.26041 0.07767 0.0
C1009 C 0.64699 0.30007 0.05604 0.0
O1010 O 0.73523 0.15137 0.04837 0.0
O1011 O 0.85281 0.09466 0.03991 0.0
O1012 O 0.84063 0.14361 0.0887 0.0
O1013 O 0.82499 0.2399 0.09008 0.0
O1014 O 1.03026 0.11075 0.03783 0.0
O1015 O 1.02287 0.1246 0.08084 0.0
O1016 O 0.98968 0.24627 0.06315 0.0
O1017 O 0.89601 0.30321 0.04057 0.0
O1018 O 0.77816 0.21292 0.0101 0.0
O1019 O 0.91756 0.18817 0.01207 0.0
C1020 C 0.77199 0.09972 0.04198 0.0
O1021 O 0.69352 0.28266 0.07587 0.0
O1022 O 0.68842 0.30005 0.03343 0.0
C1023 C 0.80581 0.18946 0.1006 0.0
C1024 C 0.15624 0.13689 0.06011 0.0
C1025 C 0.3192 0.18803 0.05943 0.0
C1026 C 0.27 0.18841 0.08292 0.0
C1027 C 0.18904 0.16459 0.08299 0.0
C1028 C 0.20479 0.13587 0.03664 0.0
C1029 C 0.28448 0.16201 0.03615 0.0
C1030 C 1.07099 0.11056 0.06052 0.0
C1031 C 0.97416 0.29414 0.04956 0.0
H1032 H 0.45299 0.16378 0.02548 0.0
H1033 H 0.58652 0.21463 0.02256 0.0
H1034 H 0.52192 0.32119 0.09134 0.0
H1035 H 0.38407 0.27581 0.09289 0.0
H1036 H 0.29323 0.20672 0.10152 0.0
H1037 H 0.15199 0.16798 0.10104 0.0
H1038 H 0.18078 0.11548 0.01851 0.0
H1039 H 0.31756 0.16231 0.01723 0.0
Tb1040 Tb 0.72578 0.23442 0.18021 0.0
Tb1041 Tb 0.57297 0.15889 0.15669 0.0
C1042 C 0.60979 0.1839 0.21883 0.0
C1043 C 0.94542 0.2542 0.19036 0.0
C1044 C 0.10422 0.20175 0.17877 0.0
C1045 C 0.08848 0.22899 0.20385 0.0
C1046 C 1.01016 0.25543 0.20947 0.0
C1047 C 0.95898 0.22384 0.16619 0.0
C1048 C 1.03734 0.1995 0.16018 0.0
C1049 C 0.86158 0.28025 0.19576 0.0
O1050 O 0.76707 0.14059 0.17416 0.0
O1051 O 0.64428 0.08662 0.1718 0.0
O1052 O 0.67973 0.14972 0.12642 0.0
O1053 O 0.74138 0.23694 0.13763 0.0
O1054 O 0.48132 0.09442 0.16455 0.0
O1055 O 0.47424 0.14816 0.12885 0.0
O1056 O 0.53569 0.24944 0.14945 0.0
O1057 O 0.6097 0.29293 0.18327 0.0
O1058 O 0.68869 0.18516 0.21375 0.0
O1059 O 0.55398 0.1856 0.19919 0.0
C1060 C 0.72519 0.0893 0.1749 0.0
O1061 O 0.81987 0.29869 0.1749 0.0
O1062 O 0.81359 0.24903 0.21133 0.0
C1063 C 0.74106 0.18948 0.12282 0.0
C1064 C 0.35024 0.13594 0.15452 0.0
C1065 C 0.18991 0.17817 0.17129 0.0
C1066 C 0.19839 0.13447 0.15127 0.0
C1067 C 0.277 0.11281 0.14356 0.0
C1068 C 0.34368 0.17979 0.17449 0.0
C1069 C 0.26454 0.20012 0.18305 0.0
C1070 C 0.43307 0.11403 0.14545 0.0
C1071 C 0.54145 0.29096 0.16752 0.0
H1072 H 0.13677 0.23091 0.21908 0.0
H1073 H 1.00027 0.27678 0.22869 0.0
H1074 H 0.90966 0.22078 0.15128 0.0
H1075 H 1.04504 0.181 0.14036 0.0
H1076 H 0.14444 0.11637 0.14121 0.0
H1077 H 0.28063 0.07768 0.12908 0.0
H1078 H 0.39968 0.19844 0.18349 0.0
H1079 H 0.26284 0.23409 0.19834 0.0
Tb1080 Tb 0.78291 0.88678 0.16721 0.0
Tb1081 Tb 0.93293 -0.02807 0.16196 0.0
C1082 C 0.84717 0.93473 0.2187 0.0
C1083 C 0.56251 0.85908 0.1609 0.0
C1084 C 0.4048 0.91683 0.15791 0.0
C1085 C 0.46466 0.93326 0.17744 0.0
C1086 C 0.54201 0.90425 0.17911 0.0
C1087 C 0.50586 0.84484 0.14043 0.0
C1088 C 0.42729 0.87236 0.13922 0.0
C1089 C 0.64699 0.83273 0.16085 0.0
O1090 O 0.73522 -0.01857 0.16853 0.0
O1091 O 0.8528 0.03815 0.17698 0.0
O1092 O 0.84065 -0.01078 0.1282 0.0
O1093 O 0.82498 0.89292 0.12683 0.0
O1094 O 1.03027 0.02202 0.17909 0.0
O1095 O 1.02288 0.00822 0.13608 0.0
O1096 O 0.98965 0.88653 0.15375 0.0
O1097 O 0.89601 0.8296 0.17633 0.0
O1098 O 0.77811 0.9199 0.2068 0.0
O1099 O 0.91751 -0.05535 0.20484 0.0
C1100 C 0.77197 0.03309 0.17493 0.0
O1101 O 0.69353 0.85015 0.14103 0.0
O1102 O 0.68842 0.83274 0.18347 0.0
C1103 C 0.80578 -0.05663 0.11631 0.0
C1104 C 0.15625 -0.0041 0.1568 0.0
C1105 C 0.3192 -0.05525 0.15747 0.0
C1106 C 0.26997 -0.05564 0.13398 0.0
C1107 C 0.18901 -0.03181 0.13391 0.0
C1108 C 0.20481 -0.00308 0.18027 0.0
C1109 C 0.2845 -0.02923 0.18075 0.0
C1110 C 1.07099 0.02223 0.1564 0.0
C1111 C 0.97415 0.83867 0.16735 0.0
H1112 H 0.45302 -0.03096 0.1914 0.0
H1113 H 0.58654 0.91819 0.19432 0.0
H1114 H 0.5219 0.81158 0.12556 0.0
H1115 H 0.38405 0.85695 0.12401 0.0
H1116 H 0.29319 0.92605 0.11538 0.0
H1117 H 0.15195 -0.0352 0.11587 0.0
H1118 H 0.18082 0.01731 0.1984 0.0
H1119 H 0.31759 -0.02952 0.19967 0.0
Tb1120 Tb 0.62243 0.91786 0.90819 0.0
Tb1121 Tb 0.46931 -0.00623 0.93149 0.0
C1122 C 0.45686 -0.04922 0.87403 0.0
C1123 C 0.84477 0.89386 0.90579 0.0
C1124 C 1.00522 0.93577 0.9226 0.0
C1125 C 0.9965 0.89265 0.90231 0.0
C1126 C 0.9178 0.8716 0.89429 0.0
C1127 C 0.85157 0.93688 0.92611 0.0
C1128 C 0.93071 -0.04275 0.9346 0.0
C1129 C 0.76176 0.87236 0.89676 0.0
O1130 O 0.65963 0.00833 0.90087 0.0
O1131 O 0.58539 0.05221 0.93459 0.0
O1132 O 0.50629 -0.05558 0.96506 0.0
O1133 O 0.64118 -0.05527 0.95063 0.0
O1134 O 0.37459 0.05738 0.92574 0.0
O1135 O 0.38128 0.009 0.96251 0.0
O1136 O 0.42738 0.90024 0.92483 0.0
O1137 O 0.5499 0.84589 0.92306 0.0
O1138 O 0.51631 0.90988 0.87784 0.0
O1139 O 0.45768 -0.00185 0.88886 0.0
C1140 C 0.65356 0.05014 0.91879 0.0
O1141 O 0.71349 0.8529 0.9159 0.0
O1142 O 0.72083 0.90686 0.88026 0.0
C1143 C 0.58517 -0.05685 0.97022 0.0
C1144 C 0.2494 0.01285 0.94143 0.0
C1145 C 0.09088 -0.04031 0.93 0.0
C1146 C 0.1065 -0.0126 0.95499 0.0
C1147 C 0.18466 0.01415 0.96053 0.0
C1148 C 0.23603 -0.01791 0.91735 0.0
C1149 C 0.15785 -0.04264 0.91143 0.0
C1150 C 0.333 0.03943 0.94671 0.0
C1151 C 0.46881 0.84878 0.92563 0.0
H1152 H 1.05022 0.87527 0.8919 0.0
H1153 H 0.91401 0.83813 0.87893 0.0
H1154 H 0.79569 -0.04488 0.93536 0.0
H1155 H 0.93244 -0.00901 0.94999 0.0
H1156 H 1.05832 -0.0106 0.97025 0.0
H1157 H 0.19442 0.03582 0.97968 0.0
H1158 H 0.28539 -0.02105 0.90245 0.0
H1159 H 0.15046 0.93851 0.89168 0.0
Tb1160 Tb 0.26142 0.7309 0.91153 0.0
Tb1161 Tb 0.41127 0.64607 0.91777 0.0
C1162 C 0.391 0.70268 0.86655 0.0
C1163 C 1.0376 0.7535 0.90578 0.0
C1164 C 0.87468 0.70249 0.90725 0.0
C1165 C 0.92146 0.70389 0.88328 0.0
C1166 C 1.00243 0.72774 0.88278 0.0
C1167 C 0.99125 0.75283 0.92971 0.0
C1168 C 0.91155 0.72676 0.93056 0.0
C1169 C 0.12286 0.77987 0.90488 0.0
O1170 O 0.20568 0.64486 0.90401 0.0
O1171 O 0.29848 0.58929 0.92747 0.0
O1172 O 0.41545 0.68089 0.95701 0.0
O1173 O 0.27592 0.70532 0.95472 0.0
O1174 O 0.50056 0.60793 0.89203 0.0
O1175 O 0.50528 0.59237 0.93462 0.0
O1176 O 0.45887 0.74082 0.9192 0.0
O1177 O 0.34065 0.79796 0.9263 0.0
O1178 O 0.35466 0.74843 0.87805 0.0
O1179 O 0.37183 0.65222 0.8771 0.0
C1180 C 0.22053 0.59796 0.91834 0.0
O1181 O 0.16361 0.78227 0.92756 0.0
O1182 O 0.17105 0.76388 0.88488 0.0
C1183 C 0.34612 0.69585 0.96874 0.0
C1184 C 0.63159 0.61707 0.91186 0.0
C1185 C 0.78926 0.67456 0.90814 0.0
C1186 C 0.7305 0.69098 0.928 0.0
C1187 C 0.65309 0.66216 0.93 0.0
C1188 C 0.68743 0.60261 0.89116 0.0
C1189 C 0.76598 0.63009 0.88959 0.0
C1190 C 0.54683 0.59117 0.91203 0.0
C1191 C 0.42166 0.79268 0.92505 0.0
H1192 H 0.89613 0.68696 0.86467 0.0
H1193 H 1.03764 0.72596 0.86433 0.0
H1194 H 1.01688 0.77186 0.94792 0.0
H1195 H 0.88004 0.7251 0.94974 0.0
H1196 H 0.74315 0.72667 0.94193 0.0
H1197 H 0.60928 0.6762 0.9454 0.0
H1198 H 0.67067 0.56935 0.87638 0.0
H1199 H 0.80868 0.61483 0.87418 0.0
Tb1200 Tb 0.61714 0.73435 0.80748 0.0
Tb1201 Tb 0.46472 0.65746 0.7868 0.0
C1202 C 0.45417 0.70256 0.84387 0.0
C1203 C 0.84034 0.75829 0.80909 0.0
C1204 C 1.00145 0.71562 0.79355 0.0
C1205 C 0.99168 0.7587 0.8138 0.0
C1206 C 0.91263 0.78002 0.82125 0.0
C1207 C 0.8481 0.71499 0.78892 0.0
C1208 C 0.92769 0.69412 0.7811 0.0
C1209 C 0.75716 0.78057 0.81744 0.0
O1210 O 0.65525 0.64515 0.81662 0.0
O1211 O 0.5817 0.59988 0.78336 0.0
O1212 O 0.49311 0.70998 0.7535 0.0
O1213 O 0.63039 0.70714 0.76444 0.0
O1214 O 0.37007 0.59468 0.7939 0.0
O1215 O 0.37863 0.63737 0.75574 0.0
O1216 O 0.42089 0.75122 0.79307 0.0
O1217 O 0.5426 0.80658 0.79437 0.0
O1218 O 0.51353 0.74321 0.83906 0.0
O1219 O 0.45333 0.65473 0.82939 0.0
C1220 C 0.64962 0.60248 0.7992 0.0
O1221 O 0.70884 0.79753 0.79784 0.0
O1222 O 0.71646 0.74812 0.8348 0.0
C1223 C 0.57012 0.70956 0.74611 0.0
C1224 C 0.24605 0.63756 0.77665 0.0
C1225 C 0.08749 0.6918 0.78669 0.0
C1226 C 0.10491 0.6643 0.76176 0.0
C1227 C 0.18292 0.63656 0.757 0.0
C1228 C 0.23131 0.66894 0.80049 0.0
C1229 C 0.15296 0.69392 0.80578 0.0
C1230 C 0.32939 0.60978 0.77231 0.0
C1231 C 0.46148 0.80316 0.79231 0.0
H1232 H 1.04495 0.77645 0.82427 0.0
H1233 H 0.90797 0.81388 0.83643 0.0
H1234 H 0.7926 0.69706 0.77926 0.0
H1235 H 0.93043 0.66016 0.76581 0.0
H1236 H 1.05813 0.66303 0.74602 0.0
H1237 H 0.19381 0.61422 0.73808 0.0
H1238 H 0.27941 0.67202 0.81581 0.0
H1239 H 0.14417 0.71267 0.8255 0.0
Tb1240 Tb 0.25754 0.92243 0.80905 0.0
Tb1241 Tb 0.40697 0.00597 0.79989 0.0
C1242 C 0.39237 -0.04896 0.85192 0.0
C1243 C 1.0346 0.90108 0.8156 0.0
C1244 C 0.87107 -0.04925 0.8125 0.0
C1245 C 0.91866 -0.0457 0.83629 0.0
C1246 C 1.00012 0.93164 0.83741 0.0
C1247 C 0.98826 0.89761 0.79173 0.0
C1248 C 0.90831 0.92301 0.79003 0.0
C1249 C 0.11949 0.8746 0.81748 0.0
O1250 O 0.20319 0.00939 0.81572 0.0
O1251 O 0.2939 0.06261 0.79038 0.0
O1252 O 0.40596 -0.03043 0.76092 0.0
O1253 O 0.26575 -0.04945 0.76626 0.0
O1254 O 0.49599 0.04827 0.82432 0.0
O1255 O 0.50192 0.05598 0.78128 0.0
O1256 O 0.45303 0.91094 0.79885 0.0
O1257 O 0.33339 0.85472 0.79294 0.0
O1258 O 0.35388 0.90522 0.84134 0.0
O1259 O 0.37329 0.00132 0.84119 0.0
C1260 C 0.21671 0.05481 0.80027 0.0
O1261 O 0.16014 0.86819 0.79491 0.0
O1262 O 0.16776 0.89383 0.83688 0.0
C1263 C 0.33332 -0.04222 0.75074 0.0
C1264 C 0.6272 0.03419 0.80519 0.0
C1265 C 0.78491 -0.02244 0.81082 0.0
C1266 C 0.7278 -0.04013 0.79066 0.0
C1267 C 0.65048 -0.01163 0.78767 0.0
C1268 C 0.68073 0.04941 0.82635 0.0
C1269 C 0.75927 0.02248 0.82885 0.0
C1270 C 0.54299 0.06069 0.80385 0.0
C1271 C 0.41456 0.85933 0.79339 0.0
H1272 H 0.89406 -0.02569 0.85433 0.0
H1273 H 1.0364 0.9385 0.8554 0.0
H1274 H 1.01397 0.87545 0.77429 0.0
H1275 H 0.87698 0.92112 0.77085 0.0
H1276 H 0.74158 0.92364 0.77715 0.0
H1277 H 0.60826 -0.0264 0.77196 0.0
H1278 H 0.66241 0.08317 0.84071 0.0
H1279 H 0.80003 0.03898 0.84449 0.0
loop_
_geom_bond_atom_site_label_1
_geom_bond_atom_site_label_2
_geom_bond_distance
_geom_bond_site_symmetry_2
_ccdc_geom_bond_type
Tb0 C9 2.764 . S
Tb0 O10 2.325 . S
Tb0 O13 2.303 . S
Tb0 O17 2.322 . S
Tb0 O18 2.349 . S
Tb0 O21 2.415 . S
Tb0 O22 2.399 . S
Tb1 O11 2.322 1_655 S
Tb1 O12 2.349 . S
Tb1 O14 2.415 . S
Tb1 O15 2.399 . S
Tb1 O16 2.325 . S
Tb1 O19 2.303 . S
Tb1 C30 2.764 . S
C2 O18 1.261 . S
C2 O19 1.257 1_455 S
C3 C6 1.358 . S
C3 C7 1.332 . S
C3 C9 1.504 . S
C4 C5 1.373 . S
C4 C8 1.308 . S
C5 C4 1.373 . S
C5 C6 1.429 . S
C5 H32 0.932 . S
C6 C3 1.358 . S
C6 C5 1.429 . S
C6 H33 0.930 . S
C7 C3 1.332 . S
C7 C8 1.394 . S
C7 H34 0.932 . S
C8 C4 1.308 . S
C8 C7 1.394 . S
C8 H35 0.929 . S
C9 Tb0 2.764 . S
C9 C3 1.504 . S
C9 O21 1.239 . S
C9 O22 1.263 . S
O10 Tb0 2.325 . S
O10 C20 1.236 . S
O11 Tb1 2.322 1_455 S
O11 C20 1.257 . S
O12 Tb1 2.349 . S
O12 C23 1.261 1_655 S
O13 Tb0 2.303 . S
O13 C23 1.257 . S
O14 Tb1 2.415 . S
O14 C30 1.239 . S
O15 Tb1 2.399 . S
O15 C30 1.263 . S
O16 Tb1 2.325 . S
O16 C31 1.236 . S
O17 Tb0 2.322 . S
O17 C31 1.257 1_455 S
O18 Tb0 2.349 . S
O18 C2 1.261 . S
O19 Tb1 2.303 . S
O19 C2 1.257 1_655 S
C20 O10 1.236 . S
C20 O11 1.257 . S
O21 Tb0 2.415 . S
O21 C9 1.239 . S
O22 Tb0 2.399 . S
O22 C9 1.263 . S
C23 O12 1.261 1_455 S
C23 O13 1.257 . S
C24 C27 1.358 . S
C24 C28 1.332 . S
C24 C30 1.504 . S
C25 C26 1.373 . S
C25 C29 1.308 . S
C26 C25 1.373 . S
C26 C27 1.429 . S
C26 H36 0.932 . S
C27 C24 1.358 . S
C27 C26 1.429 . S
C27 H37 0.930 . S
C28 C24 1.332 . S
C28 C29 1.394 . S
C28 H38 0.932 . S
C29 C25 1.308 . S
C29 C28 1.394 . S
C29 H39 0.929 . S
C30 Tb1 2.764 . S
C30 O14 1.239 . S
C30 O15 1.263 . S
C30 C24 1.504 . S
C31 O16 1.236 . S
C31 O17 1.257 1_655 S
H32 C5 0.932 . S
H33 C6 0.930 . S
H34 C7 0.932 . S
H35 C8 0.929 . S
H36 C26 0.932 . S
H37 C27 0.930 . S
H38 C28 0.932 . S
H39 C29 0.929 . S
Tb40 C49 2.764 1_455 S
Tb40 O50 2.325 . S
Tb40 O53 2.303 . S
Tb40 O57 2.322 . S
Tb40 O58 2.349 . S
Tb40 O61 2.415 . S
Tb40 O62 2.399 . S
Tb41 O51 2.322 . S
Tb41 O52 2.349 . S
Tb41 O54 2.415 . S
Tb41 O55 2.399 . S
Tb41 O56 2.325 . S
Tb41 O59 2.303 . S
Tb41 C70 2.764 . S
C42 O58 1.261 . S
C42 O59 1.257 . S
C43 C46 1.358 . S
C43 C47 1.332 . S
C43 C49 1.504 . S
C44 C45 1.373 . S
C44 C48 1.308 . S
C45 C44 1.373 . S
C45 C46 1.429 . S
C45 H72 0.932 . S
C46 C43 1.358 . S
C46 C45 1.429 . S
C46 H73 0.930 . S
C47 C43 1.332 . S
C47 C48 1.394 . S
C47 H74 0.932 . S
C48 C44 1.308 . S
C48 C47 1.394 . S
C48 H75 0.929 . S
C49 Tb40 2.764 1_655 S
C49 C43 1.504 . S
C49 O61 1.239 1_655 S
C49 O62 1.263 1_655 S
O50 Tb40 2.325 . S
O50 C60 1.236 . S
O51 Tb41 2.322 . S
O51 C60 1.257 . S
O52 Tb41 2.349 . S
O52 C63 1.261 . S
O53 Tb40 2.303 . S
O53 C63 1.257 . S
O54 Tb41 2.415 . S
O54 C70 1.239 . S
O55 Tb41 2.399 . S
O55 C70 1.263 . S
O56 Tb41 2.325 . S
O56 C71 1.236 . S
O57 Tb40 2.322 . S
O57 C71 1.257 . S
O58 Tb40 2.349 . S
O58 C42 1.261 . S
O59 Tb41 2.303 . S
O59 C42 1.257 . S
C60 O50 1.236 . S
C60 O51 1.257 . S
O61 Tb40 2.415 . S
O61 C49 1.239 1_455 S
O62 Tb40 2.399 . S
O62 C49 1.263 1_455 S
C63 O52 1.261 . S
C63 O53 1.257 . S
C64 C67 1.358 . S
C64 C68 1.332 . S
C64 C70 1.504 . S
C65 C66 1.373 . S
C65 C69 1.308 . S
C66 C65 1.373 . S
C66 C67 1.429 . S
C66 H76 0.932 . S
C67 C64 1.358 . S
C67 C66 1.429 . S
C67 H77 0.930 . S
C68 C64 1.332 . S
C68 C69 1.394 . S
C68 H78 0.932 . S
C69 C65 1.308 . S
C69 C68 1.394 . S
C69 H79 0.929 . S
C70 Tb41 2.764 . S
C70 O54 1.239 . S
C70 O55 1.263 . S
C70 C64 1.504 . S
C71 O56 1.236 . S
C71 O57 1.257 . S
H72 C45 0.932 . S
H73 C46 0.930 . S
H74 C47 0.932 . S
H75 C48 0.929 . S
H76 C66 0.932 . S
H77 C67 0.930 . S
H78 C68 0.932 . S
H79 C69 0.929 . S
Tb80 C89 2.764 . S
Tb80 O90 2.325 . S
Tb80 O93 2.303 . S
Tb80 O97 2.322 . S
Tb80 O98 2.349 . S
Tb80 O101 2.415 . S
Tb80 O102 2.399 . S
Tb81 O91 2.322 1_655 S
Tb81 O92 2.349 . S
Tb81 O94 2.415 . S
Tb81 O95 2.399 . S
Tb81 O96 2.325 . S
Tb81 O99 2.303 . S
Tb81 C110 2.764 . S
C82 O98 1.261 . S
C82 O99 1.257 1_455 S
C83 C86 1.358 . S
C83 C87 1.332 . S
C83 C89 1.504 . S
C84 C85 1.373 . S
C84 C88 1.308 . S
C85 C84 1.373 . S
C85 C86 1.429 . S
C85 H112 0.932 . S
C86 C83 1.358 . S
C86 C85 1.429 . S
C86 H113 0.930 . S
C87 C83 1.332 . S
C87 C88 1.394 . S
C87 H114 0.932 . S
C88 C84 1.308 . S
C88 C87 1.394 . S
C88 H115 0.929 . S
C89 Tb80 2.764 . S
C89 C83 1.504 . S
C89 O101 1.239 . S
C89 O102 1.263 . S
O90 Tb80 2.325 . S
O90 C100 1.236 . S
O91 Tb81 2.322 1_455 S
O91 C100 1.257 . S
O92 Tb81 2.349 . S
O92 C103 1.261 1_655 S
O93 Tb80 2.303 . S
O93 C103 1.257 . S
O94 Tb81 2.415 . S
O94 C110 1.239 . S
O95 Tb81 2.399 . S
O95 C110 1.263 . S
O96 Tb81 2.325 . S
O96 C111 1.236 . S
O97 Tb80 2.322 . S
O97 C111 1.257 1_455 S
O98 Tb80 2.349 . S
O98 C82 1.261 . S
O99 Tb81 2.303 . S
O99 C82 1.257 1_655 S
C100 O90 1.236 . S
C100 O91 1.257 . S
O101 Tb80 2.415 . S
O101 C89 1.239 . S
O102 Tb80 2.399 . S
O102 C89 1.263 . S
C103 O92 1.261 1_455 S
C103 O93 1.257 . S
C104 C107 1.358 . S
C104 C108 1.332 . S
C104 C110 1.504 . S
C105 C106 1.373 . S
C105 C109 1.308 . S
C106 C105 1.373 . S
C106 C107 1.429 . S
C106 H116 0.932 . S
C107 C104 1.358 . S
C107 C106 1.429 . S
C107 H117 0.930 . S
C108 C104 1.332 . S
C108 C109 1.394 . S
C108 H118 0.932 . S
C109 C105 1.308 . S
C109 C108 1.394 . S
C109 H119 0.929 . S
C110 Tb81 2.764 . S
C110 O94 1.239 . S
C110 O95 1.263 . S
C110 C104 1.504 . S
C111 O96 1.236 . S
C111 O97 1.257 1_655 S
H112 C85 0.932 . S
H113 C86 0.930 . S
H114 C87 0.932 . S
H115 C88 0.929 . S
H116 C106 0.932 . S
H117 C107 0.930 . S
H118 C108 0.932 . S
H119 C109 0.929 . S
Tb120 C129 2.764 1_455 S
Tb120 O130 2.325 . S
Tb120 O133 2.303 . S
Tb120 O137 2.322 . S
Tb120 O138 2.349 . S
Tb120 O141 2.415 . S
Tb120 O142 2.399 . S
Tb121 O131 2.322 . S
Tb121 O132 2.349 . S
Tb121 O134 2.415 . S
Tb121 O135 2.399 . S
Tb121 O136 2.325 . S
Tb121 O139 2.303 . S
Tb121 C150 2.764 . S
C122 O138 1.261 . S
C122 O139 1.257 . S
C123 C126 1.358 . S
C123 C127 1.332 . S
C123 C129 1.504 . S
C124 C125 1.373 . S
C124 C128 1.308 . S
C125 C124 1.373 . S
C125 C126 1.429 . S
C125 H152 0.932 . S
C126 C123 1.358 . S
C126 C125 1.429 . S
C126 H153 0.930 . S
C127 C123 1.332 . S
C127 C128 1.394 . S
C127 H154 0.932 . S
C128 C124 1.308 . S
C128 C127 1.394 . S
C128 H155 0.929 . S
C129 Tb120 2.764 1_655 S
C129 C123 1.504 . S
C129 O141 1.239 1_655 S
C129 O142 1.263 1_655 S
O130 Tb120 2.325 . S
O130 C140 1.236 . S
O131 Tb121 2.322 . S
O131 C140 1.257 . S
O132 Tb121 2.349 . S
O132 C143 1.261 . S
O133 Tb120 2.303 . S
O133 C143 1.257 . S
O134 Tb121 2.415 . S
O134 C150 1.239 . S
O135 Tb121 2.399 . S
O135 C150 1.263 . S
O136 Tb121 2.325 . S
O136 C151 1.236 . S
O137 Tb120 2.322 . S
O137 C151 1.257 . S
O138 Tb120 2.349 . S
O138 C122 1.261 . S
O139 Tb121 2.303 . S
O139 C122 1.257 . S
C140 O130 1.236 . S
C140 O131 1.257 . S
O141 Tb120 2.415 . S
O141 C129 1.239 1_455 S
O142 Tb120 2.399 . S
O142 C129 1.263 1_455 S
C143 O132 1.261 . S
C143 O133 1.257 . S
C144 C147 1.358 . S
C144 C148 1.332 . S
C144 C150 1.504 . S
C145 C146 1.373 . S
C145 C149 1.308 . S
C146 C145 1.373 . S
C146 C147 1.429 . S
C146 H156 0.932 . S
C147 C144 1.358 . S
C147 C146 1.429 . S
C147 H157 0.930 . S
C148 C144 1.332 . S
C148 C149 1.394 . S
C148 H158 0.932 . S
C149 C145 1.308 . S
C149 C148 1.394 . S
C149 H159 0.929 . S
C150 Tb121 2.764 . S
C150 O134 1.239 . S
C150 O135 1.263 . S
C150 C144 1.504 . S
C151 O136 1.236 . S
C151 O137 1.257 . S
H152 C125 0.932 . S
H153 C126 0.930 . S
H154 C127 0.932 . S
H155 C128 0.929 . S
H156 C146 0.932 . S
H157 C147 0.930 . S
H158 C148 0.932 . S
H159 C149 0.929 . S
Tb160 C169 2.764 . S
Tb160 O170 2.325 . S
Tb160 O173 2.303 . S
Tb160 O177 2.322 1_455 S
Tb160 O178 2.349 . S
Tb160 O181 2.415 . S
Tb160 O182 2.399 . S
Tb161 O171 2.322 . S
Tb161 O172 2.349 . S
Tb161 O174 2.415 . S
Tb161 O175 2.399 . S
Tb161 O176 2.325 . S
Tb161 O179 2.303 . S
Tb161 C190 2.764 . S
C162 O178 1.261 1_655 S
C162 O179 1.257 . S
C163 C166 1.358 . S
C163 C167 1.332 . S
C163 C169 1.504 . S
C164 C165 1.373 . S
C164 C168 1.308 . S
C165 C164 1.373 . S
C165 C166 1.429 . S
C165 H192 0.932 . S
C166 C163 1.358 . S
C166 C165 1.429 . S
C166 H193 0.930 . S
C167 C163 1.332 . S
C167 C168 1.394 . S
C167 H194 0.932 . S
C168 C164 1.308 . S
C168 C167 1.394 . S
C168 H195 0.929 . S
C169 Tb160 2.764 . S
C169 C163 1.504 . S
C169 O181 1.239 . S
C169 O182 1.263 . S
O170 Tb160 2.325 . S
O170 C180 1.236 . S
O171 Tb161 2.322 . S
O171 C180 1.257 1_655 S
O172 Tb161 2.349 . S
O172 C183 1.261 . S
O173 Tb160 2.303 . S
O173 C183 1.257 1_455 S
O174 Tb161 2.415 . S
O174 C190 1.239 . S
O175 Tb161 2.399 . S
O175 C190 1.263 . S
O176 Tb161 2.325 . S
O176 C191 1.236 . S
O177 Tb160 2.322 1_655 S
O177 C191 1.257 . S
O178 Tb160 2.349 . S
O178 C162 1.261 1_455 S
O179 Tb161 2.303 . S
O179 C162 1.257 . S
C180 O170 1.236 . S
C180 O171 1.257 1_455 S
O181 Tb160 2.415 . S
O181 C169 1.239 . S
O182 Tb160 2.399 . S
O182 C169 1.263 . S
C183 O172 1.261 . S
C183 O173 1.257 1_655 S
C184 C187 1.358 . S
C184 C188 1.332 . S
C184 C190 1.504 . S
C185 C186 1.373 . S
C185 C189 1.308 . S
C186 C185 1.373 . S
C186 C187 1.429 . S
C186 H196 0.932 . S
C187 C184 1.358 . S
C187 C186 1.429 . S
C187 H197 0.930 . S
C188 C184 1.332 . S
C188 C189 1.394 . S
C188 H198 0.932 . S
C189 C185 1.308 . S
C189 C188 1.394 . S
C189 H199 0.929 . S
C190 Tb161 2.764 . S
C190 O174 1.239 . S
C190 O175 1.263 . S
C190 C184 1.504 . S
C191 O176 1.236 . S
C191 O177 1.257 . S
H192 C165 0.932 . S
H193 C166 0.930 . S
H194 C167 0.932 . S
H195 C168 0.929 . S
H196 C186 0.932 . S
H197 C187 0.930 . S
H198 C188 0.932 . S
H199 C189 0.929 . S
Tb200 C209 2.764 . S
Tb200 O210 2.325 . S
Tb200 O213 2.303 . S
Tb200 O217 2.322 . S
Tb200 O218 2.349 . S
Tb200 O221 2.415 . S
Tb200 O222 2.399 . S
Tb201 O211 2.322 . S
Tb201 O212 2.349 . S
Tb201 O214 2.415 . S
Tb201 O215 2.399 . S
Tb201 O216 2.325 . S
Tb201 O219 2.303 . S
Tb201 C230 2.764 1_655 S
C202 O218 1.261 . S
C202 O219 1.257 . S
C203 C206 1.358 . S
C203 C207 1.332 . S
C203 C209 1.504 . S
C204 C205 1.373 . S
C204 C208 1.308 . S
C205 C204 1.373 . S
C205 C206 1.429 . S
C205 H232 0.932 . S
C206 C203 1.358 . S
C206 C205 1.429 . S
C206 H233 0.930 . S
C207 C203 1.332 . S
C207 C208 1.394 . S
C207 H234 0.932 . S
C208 C204 1.308 . S
C208 C207 1.394 . S
C208 H235 0.929 . S
C209 Tb200 2.764 . S
C209 C203 1.504 . S
C209 O221 1.239 . S
C209 O222 1.263 . S
O210 Tb200 2.325 . S
O210 C220 1.236 . S
O211 Tb201 2.322 . S
O211 C220 1.257 . S
O212 Tb201 2.349 . S
O212 C223 1.261 . S
O213 Tb200 2.303 . S
O213 C223 1.257 . S
O214 Tb201 2.415 . S
O214 C230 1.239 1_655 S
O215 Tb201 2.399 . S
O215 C230 1.263 1_655 S
O216 Tb201 2.325 . S
O216 C231 1.236 . S
O217 Tb200 2.322 . S
O217 C231 1.257 . S
O218 Tb200 2.349 . S
O218 C202 1.261 . S
O219 Tb201 2.303 . S
O219 C202 1.257 . S
C220 O210 1.236 . S
C220 O211 1.257 . S
O221 Tb200 2.415 . S
O221 C209 1.239 . S
O222 Tb200 2.399 . S
O222 C209 1.263 . S
C223 O212 1.261 . S
C223 O213 1.257 . S
C224 C227 1.358 . S
C224 C228 1.332 . S
C224 C230 1.504 . S
C225 C226 1.373 . S
C225 C229 1.308 . S
C226 C225 1.373 . S
C226 C227 1.429 . S
C226 H236 0.932 . S
C227 C224 1.358 . S
C227 C226 1.429 . S
C227 H237 0.930 . S
C228 C224 1.332 . S
C228 C229 1.394 . S
C228 H238 0.932 . S
C229 C225 1.308 . S
C229 C228 1.394 . S
C229 H239 0.929 . S
C230 Tb201 2.764 1_455 S
C230 O214 1.239 1_455 S
C230 O215 1.263 1_455 S
C230 C224 1.504 . S
C231 O216 1.236 . S
C231 O217 1.257 . S
H232 C205 0.932 . S
H233 C206 0.930 . S
H234 C207 0.932 . S
H235 C208 0.929 . S
H236 C226 0.932 . S
H237 C227 0.930 . S
H238 C228 0.932 . S
H239 C229 0.929 . S
Tb240 C249 2.764 . S
Tb240 O250 2.325 . S
Tb240 O253 2.303 . S
Tb240 O257 2.322 1_455 S
Tb240 O258 2.349 . S
Tb240 O261 2.415 . S
Tb240 O262 2.399 . S
Tb241 O251 2.322 . S
Tb241 O252 2.349 . S
Tb241 O254 2.415 . S
Tb241 O255 2.399 . S
Tb241 O256 2.325 . S
Tb241 O259 2.303 . S
Tb241 C270 2.764 . S
C242 O258 1.261 1_655 S
C242 O259 1.257 . S
C243 C246 1.358 . S
C243 C247 1.332 . S
C243 C249 1.504 . S
C244 C245 1.373 . S
C244 C248 1.308 . S
C245 C244 1.373 . S
C245 C246 1.429 . S
C245 H272 0.932 . S
C246 C243 1.358 . S
C246 C245 1.429 . S
C246 H273 0.930 . S
C247 C243 1.332 . S
C247 C248 1.394 . S
C247 H274 0.932 . S
C248 C244 1.308 . S
C248 C247 1.394 . S
C248 H275 0.929 . S
C249 Tb240 2.764 . S
C249 C243 1.504 . S
C249 O261 1.239 . S
C249 O262 1.263 . S
O250 Tb240 2.325 . S
O250 C260 1.236 . S
O251 Tb241 2.322 . S
O251 C260 1.257 1_655 S
O252 Tb241 2.349 . S
O252 C263 1.261 . S
O253 Tb240 2.303 . S
O253 C263 1.257 1_455 S
O254 Tb241 2.415 . S
O254 C270 1.239 . S
O255 Tb241 2.399 . S
O255 C270 1.263 . S
O256 Tb241 2.325 . S
O256 C271 1.236 . S
O257 Tb240 2.322 1_655 S
O257 C271 1.257 . S
O258 Tb240 2.349 . S
O258 C242 1.261 1_455 S
O259 Tb241 2.303 . S
O259 C242 1.257 . S
C260 O250 1.236 . S
C260 O251 1.257 1_455 S
O261 Tb240 2.415 . S
O261 C249 1.239 . S
O262 Tb240 2.399 . S
O262 C249 1.263 . S
C263 O252 1.261 . S
C263 O253 1.257 1_655 S
C264 C267 1.358 . S
C264 C268 1.332 . S
C264 C270 1.504 . S
C265 C266 1.373 . S
C265 C269 1.308 . S
C266 C265 1.373 . S
C266 C267 1.429 . S
C266 H276 0.932 . S
C267 C264 1.358 . S
C267 C266 1.429 . S
C267 H277 0.930 . S
C268 C264 1.332 . S
C268 C269 1.394 . S
C268 H278 0.932 . S
C269 C265 1.308 . S
C269 C268 1.394 . S
C269 H279 0.929 . S
C270 Tb241 2.764 . S
C270 O254 1.239 . S
C270 O255 1.263 . S
C270 C264 1.504 . S
C271 O256 1.236 . S
C271 O257 1.257 . S
H272 C245 0.932 . S
H273 C246 0.930 . S
H274 C247 0.932 . S
H275 C248 0.929 . S
H276 C266 0.932 . S
H277 C267 0.930 . S
H278 C268 0.932 . S
H279 C269 0.929 . S
Tb280 C289 2.764 . S
Tb280 O290 2.325 . S
Tb280 O293 2.303 . S
Tb280 O297 2.322 . S
Tb280 O298 2.349 . S
Tb280 O301 2.415 . S
Tb280 O302 2.399 . S
Tb281 O291 2.322 . S
Tb281 O292 2.349 . S
Tb281 O294 2.415 . S
Tb281 O295 2.399 . S
Tb281 O296 2.325 . S
Tb281 O299 2.303 . S
Tb281 C310 2.764 1_655 S
C282 O298 1.261 . S
C282 O299 1.257 . S
C283 C286 1.358 . S
C283 C287 1.332 . S
C283 C289 1.504 . S
C284 C285 1.373 . S
C284 C288 1.308 . S
C285 C284 1.373 . S
C285 C286 1.429 . S
C285 H312 0.932 . S
C286 C283 1.358 . S
C286 C285 1.429 . S
C286 H313 0.930 . S
C287 C283 1.332 . S
C287 C288 1.394 . S
C287 H314 0.932 . S
C288 C284 1.308 . S
C288 C287 1.394 . S
C288 H315 0.929 . S
C289 Tb280 2.764 . S
C289 C283 1.504 . S
C289 O301 1.239 . S
C289 O302 1.263 . S
O290 Tb280 2.325 . S
O290 C300 1.236 . S
O291 Tb281 2.322 . S
O291 C300 1.257 . S
O292 Tb281 2.349 . S
O292 C303 1.261 . S
O293 Tb280 2.303 . S
O293 C303 1.257 . S
O294 Tb281 2.415 . S
O294 C310 1.239 1_655 S
O295 Tb281 2.399 . S
O295 C310 1.263 1_655 S
O296 Tb281 2.325 . S
O296 C311 1.236 . S
O297 Tb280 2.322 . S
O297 C311 1.257 . S
O298 Tb280 2.349 . S
O298 C282 1.261 . S
O299 Tb281 2.303 . S
O299 C282 1.257 . S
C300 O290 1.236 . S
C300 O291 1.257 . S
O301 Tb280 2.415 . S
O301 C289 1.239 . S
O302 Tb280 2.399 . S
O302 C289 1.263 . S
C303 O292 1.261 . S
C303 O293 1.257 . S
C304 C307 1.358 . S
C304 C308 1.332 . S
C304 C310 1.504 . S
C305 C306 1.373 . S
C305 C309 1.308 . S
C306 C305 1.373 . S
C306 C307 1.429 . S
C306 H316 0.932 . S
C307 C304 1.358 . S
C307 C306 1.429 . S
C307 H317 0.930 . S
C308 C304 1.332 . S
C308 C309 1.394 . S
C308 H318 0.932 . S
C309 C305 1.308 . S
C309 C308 1.394 . S
C309 H319 0.929 . S
C310 Tb281 2.764 1_455 S
C310 O294 1.239 1_455 S
C310 O295 1.263 1_455 S
C310 C304 1.504 . S
C311 O296 1.236 . S
C311 O297 1.257 . S
H312 C285 0.932 . S
H313 C286 0.930 . S
H314 C287 0.932 . S
H315 C288 0.929 . S
H316 C306 0.932 . S
H317 C307 0.930 . S
H318 C308 0.932 . S
H319 C309 0.929 . S
Tb320 C329 2.764 . S
Tb320 O330 2.325 1_565 S
Tb320 O333 2.303 . S
Tb320 O337 2.322 . S
Tb320 O338 2.349 . S
Tb320 O341 2.415 . S
Tb320 O342 2.399 . S
Tb321 O331 2.322 1_655 S
Tb321 O332 2.349 . S
Tb321 O334 2.415 . S
Tb321 O335 2.399 . S
Tb321 O336 2.325 1_545 S
Tb321 O339 2.303 . S
Tb321 C350 2.764 . S
C322 O338 1.261 . S
C322 O339 1.257 1_465 S
C323 C326 1.358 . S
C323 C327 1.332 . S
C323 C329 1.504 . S
C324 C325 1.373 . S
C324 C328 1.308 . S
C325 C324 1.373 . S
C325 C326 1.429 . S
C325 H352 0.932 . S
C326 C323 1.358 . S
C326 C325 1.429 . S
C326 H353 0.930 . S
C327 C323 1.332 . S
C327 C328 1.394 . S
C327 H354 0.932 . S
C328 C324 1.308 . S
C328 C327 1.394 . S
C328 H355 0.929 . S
C329 Tb320 2.764 . S
C329 C323 1.504 . S
C329 O341 1.239 . S
C329 O342 1.263 . S
O330 Tb320 2.325 1_545 S
O330 C340 1.236 . S
O331 Tb321 2.322 1_455 S
O331 C340 1.257 . S
O332 Tb321 2.349 . S
O332 C343 1.261 1_645 S
O333 Tb320 2.303 . S
O333 C343 1.257 . S
O334 Tb321 2.415 . S
O334 C350 1.239 . S
O335 Tb321 2.399 . S
O335 C350 1.263 . S
O336 Tb321 2.325 1_565 S
O336 C351 1.236 . S
O337 Tb320 2.322 . S
O337 C351 1.257 1_455 S
O338 Tb320 2.349 . S
O338 C322 1.261 . S
O339 Tb321 2.303 . S
O339 C322 1.257 1_645 S
C340 O330 1.236 . S
C340 O331 1.257 . S
O341 Tb320 2.415 . S
O341 C329 1.239 . S
O342 Tb320 2.399 . S
O342 C329 1.263 . S
C343 O332 1.261 1_465 S
C343 O333 1.257 . S
C344 C347 1.358 . S
C344 C348 1.332 . S
C344 C350 1.504 . S
C345 C346 1.373 . S
C345 C349 1.308 . S
C346 C345 1.373 . S
C346 C347 1.429 . S
C346 H356 0.932 . S
C347 C344 1.358 . S
C347 C346 1.429 . S
C347 H357 0.930 . S
C348 C344 1.332 . S
C348 C349 1.394 . S
C348 H358 0.932 1_545 S
C349 C345 1.308 . S
C349 C348 1.394 . S
C349 H359 0.929 1_545 S
C350 Tb321 2.764 . S
C350 O334 1.239 . S
C350 O335 1.263 . S
C350 C344 1.504 . S
C351 O336 1.236 . S
C351 O337 1.257 1_655 S
H352 C325 0.932 . S
H353 C326 0.930 . S
H354 C327 0.932 . S
H355 C328 0.929 . S
H356 C346 0.932 . S
H357 C347 0.930 . S
H358 C348 0.932 1_565 S
H359 C349 0.929 1_565 S
Tb360 C369 2.764 1_455 S
Tb360 O370 2.325 . S
Tb360 O373 2.303 . S
Tb360 O377 2.322 . S
Tb360 O378 2.349 . S
Tb360 O381 2.415 . S
Tb360 O382 2.399 . S
Tb361 O371 2.322 . S
Tb361 O372 2.349 . S
Tb361 O374 2.415 . S
Tb361 O375 2.399 . S
Tb361 O376 2.325 . S
Tb361 O379 2.303 . S
Tb361 C390 2.764 . S
C362 O378 1.261 . S
C362 O379 1.257 . S
C363 C366 1.358 . S
C363 C367 1.332 . S
C363 C369 1.504 . S
C364 C365 1.373 . S
C364 C368 1.308 . S
C365 C364 1.373 . S
C365 C366 1.429 . S
C365 H392 0.932 . S
C366 C363 1.358 . S
C366 C365 1.429 . S
C366 H393 0.930 . S
C367 C363 1.332 . S
C367 C368 1.394 . S
C367 H394 0.932 . S
C368 C364 1.308 . S
C368 C367 1.394 . S
C368 H395 0.929 . S
C369 Tb360 2.764 1_655 S
C369 C363 1.504 . S
C369 O381 1.239 1_655 S
C369 O382 1.263 1_655 S
O370 Tb360 2.325 . S
O370 C380 1.236 . S
O371 Tb361 2.322 . S
O371 C380 1.257 . S
O372 Tb361 2.349 . S
O372 C383 1.261 . S
O373 Tb360 2.303 . S
O373 C383 1.257 . S
O374 Tb361 2.415 . S
O374 C390 1.239 . S
O375 Tb361 2.399 . S
O375 C390 1.263 . S
O376 Tb361 2.325 . S
O376 C391 1.236 . S
O377 Tb360 2.322 . S
O377 C391 1.257 . S
O378 Tb360 2.349 . S
O378 C362 1.261 . S
O379 Tb361 2.303 . S
O379 C362 1.257 . S
C380 O370 1.236 . S
C380 O371 1.257 . S
O381 Tb360 2.415 . S
O381 C369 1.239 1_455 S
O382 Tb360 2.399 . S
O382 C369 1.263 1_455 S
C383 O372 1.261 . S
C383 O373 1.257 . S
C384 C387 1.358 . S
C384 C388 1.332 . S
C384 C390 1.504 . S
C385 C386 1.373 . S
C385 C389 1.308 . S
C386 C385 1.373 . S
C386 C387 1.429 . S
C386 H396 0.932 . S
C387 C384 1.358 . S
C387 C386 1.429 . S
C387 H397 0.930 . S
C388 C384 1.332 . S
C388 C389 1.394 . S
C388 H398 0.932 . S
C389 C385 1.308 . S
C389 C388 1.394 . S
C389 H399 0.929 . S
C390 Tb361 2.764 . S
C390 O374 1.239 . S
C390 O375 1.263 . S
C390 C384 1.504 . S
C391 O376 1.236 . S
C391 O377 1.257 . S
H392 C365 0.932 . S
H393 C366 0.930 . S
H394 C367 0.932 . S
H395 C368 0.929 . S
H396 C386 0.932 . S
H397 C387 0.930 . S
H398 C388 0.932 . S
H399 C389 0.929 . S
Tb400 C409 2.764 . S
Tb400 O410 2.325 . S
Tb400 O413 2.303 . S
Tb400 O417 2.322 . S
Tb400 O418 2.349 . S
Tb400 O421 2.415 . S
Tb400 O422 2.399 . S
Tb401 O411 2.322 1_655 S
Tb401 O412 2.349 . S
Tb401 O414 2.415 . S
Tb401 O415 2.399 . S
Tb401 O416 2.325 . S
Tb401 O419 2.303 . S
Tb401 C430 2.764 . S
C402 O418 1.261 . S
C402 O419 1.257 1_455 S
C403 C406 1.358 . S
C403 C407 1.332 . S
C403 C409 1.504 . S
C404 C405 1.373 . S
C404 C408 1.308 . S
C405 C404 1.373 . S
C405 C406 1.429 . S
C405 H432 0.932 . S
C406 C403 1.358 . S
C406 C405 1.429 . S
C406 H433 0.930 . S
C407 C403 1.332 . S
C407 C408 1.394 . S
C407 H434 0.932 . S
C408 C404 1.308 . S
C408 C407 1.394 . S
C408 H435 0.929 . S
C409 Tb400 2.764 . S
C409 C403 1.504 . S
C409 O421 1.239 . S
C409 O422 1.263 . S
O410 Tb400 2.325 . S
O410 C420 1.236 . S
O411 Tb401 2.322 1_455 S
O411 C420 1.257 . S
O412 Tb401 2.349 . S
O412 C423 1.261 1_655 S
O413 Tb400 2.303 . S
O413 C423 1.257 . S
O414 Tb401 2.415 . S
O414 C430 1.239 . S
O415 Tb401 2.399 . S
O415 C430 1.263 . S
O416 Tb401 2.325 . S
O416 C431 1.236 . S
O417 Tb400 2.322 . S
O417 C431 1.257 1_455 S
O418 Tb400 2.349 . S
O418 C402 1.261 . S
O419 Tb401 2.303 . S
O419 C402 1.257 1_655 S
C420 O410 1.236 . S
C420 O411 1.257 . S
O421 Tb400 2.415 . S
O421 C409 1.239 . S
O422 Tb400 2.399 . S
O422 C409 1.263 . S
C423 O412 1.261 1_455 S
C423 O413 1.257 . S
C424 C427 1.358 . S
C424 C428 1.332 . S
C424 C430 1.504 . S
C425 C426 1.373 . S
C425 C429 1.308 . S
C426 C425 1.373 . S
C426 C427 1.429 . S
C426 H436 0.932 . S
C427 C424 1.358 . S
C427 C426 1.429 . S
C427 H437 0.930 . S
C428 C424 1.332 . S
C428 C429 1.394 . S
C428 H438 0.932 . S
C429 C425 1.308 . S
C429 C428 1.394 . S
C429 H439 0.929 . S
C430 Tb401 2.764 . S
C430 O414 1.239 . S
C430 O415 1.263 . S
C430 C424 1.504 . S
C431 O416 1.236 . S
C431 O417 1.257 1_655 S
H432 C405 0.932 . S
H433 C406 0.930 . S
H434 C407 0.932 . S
H435 C408 0.929 . S
H436 C426 0.932 . S
H437 C427 0.930 . S
H438 C428 0.932 . S
H439 C429 0.929 . S
Tb440 C449 2.764 1_455 S
Tb440 O450 2.325 1_565 S
Tb440 O453 2.303 . S
Tb440 O457 2.322 . S
Tb440 O458 2.349 . S
Tb440 O461 2.415 . S
Tb440 O462 2.399 . S
Tb441 O451 2.322 . S
Tb441 O452 2.349 . S
Tb441 O454 2.415 . S
Tb441 O455 2.399 . S
Tb441 O456 2.325 1_545 S
Tb441 O459 2.303 . S
Tb441 C470 2.764 . S
C442 O458 1.261 . S
C442 O459 1.257 1_565 S
C443 C446 1.358 . S
C443 C447 1.332 . S
C443 C449 1.504 . S
C444 C445 1.373 . S
C444 C448 1.308 . S
C445 C444 1.373 . S
C445 C446 1.429 . S
C445 H472 0.932 . S
C446 C443 1.358 . S
C446 C445 1.429 . S
C446 H473 0.930 . S
C447 C443 1.332 . S
C447 C448 1.394 . S
C447 H474 0.932 . S
C448 C444 1.308 . S
C448 C447 1.394 . S
C448 H475 0.929 . S
C449 Tb440 2.764 1_655 S
C449 C443 1.504 . S
C449 O461 1.239 1_655 S
C449 O462 1.263 1_655 S
O450 Tb440 2.325 1_545 S
O450 C460 1.236 . S
O451 Tb441 2.322 . S
O451 C460 1.257 . S
O452 Tb441 2.349 . S
O452 C463 1.261 1_545 S
O453 Tb440 2.303 . S
O453 C463 1.257 . S
O454 Tb441 2.415 . S
O454 C470 1.239 . S
O455 Tb441 2.399 . S
O455 C470 1.263 . S
O456 Tb441 2.325 1_565 S
O456 C471 1.236 . S
O457 Tb440 2.322 . S
O457 C471 1.257 . S
O458 Tb440 2.349 . S
O458 C442 1.261 . S
O459 Tb441 2.303 . S
O459 C442 1.257 1_545 S
C460 O450 1.236 . S
C460 O451 1.257 . S
O461 Tb440 2.415 . S
O461 C449 1.239 1_455 S
O462 Tb440 2.399 . S
O462 C449 1.263 1_455 S
C463 O452 1.261 1_565 S
C463 O453 1.257 . S
C464 C467 1.358 . S
C464 C468 1.332 . S
C464 C470 1.504 . S
C465 C466 1.373 . S
C465 C469 1.308 . S
C466 C465 1.373 . S
C466 C467 1.429 . S
C466 H476 0.932 . S
C467 C464 1.358 . S
C467 C466 1.429 . S
C467 H477 0.930 . S
C468 C464 1.332 . S
C468 C469 1.394 . S
C468 H478 0.932 1_545 S
C469 C465 1.308 . S
C469 C468 1.394 . S
C469 H479 0.929 1_545 S
C470 Tb441 2.764 . S
C470 O454 1.239 . S
C470 O455 1.263 . S
C470 C464 1.504 . S
C471 O456 1.236 . S
C471 O457 1.257 . S
H472 C445 0.932 . S
H473 C446 0.930 . S
H474 C447 0.932 . S
H475 C448 0.929 . S
H476 C466 0.932 . S
H477 C467 0.930 . S
H478 C468 0.932 1_565 S
H479 C469 0.929 1_565 S
Tb480 C489 2.764 . S
Tb480 O490 2.325 1_565 S
Tb480 O493 2.303 . S
Tb480 O497 2.322 1_455 S
Tb480 O498 2.349 . S
Tb480 O501 2.415 . S
Tb480 O502 2.399 . S
Tb481 O491 2.322 . S
Tb481 O492 2.349 . S
Tb481 O494 2.415 . S
Tb481 O495 2.399 . S
Tb481 O496 2.325 1_545 S
Tb481 O499 2.303 . S
Tb481 C510 2.764 . S
C482 O498 1.261 1_645 S
C482 O499 1.257 . S
C483 C486 1.358 . S
C483 C487 1.332 . S
C483 C489 1.504 . S
C484 C485 1.373 . S
C484 C488 1.308 . S
C485 C484 1.373 . S
C485 C486 1.429 . S
C485 H512 0.932 . S
C486 C483 1.358 . S
C486 C485 1.429 . S
C486 H513 0.930 . S
C487 C483 1.332 . S
C487 C488 1.394 . S
C487 H514 0.932 1_565 S
C488 C484 1.308 . S
C488 C487 1.394 . S
C488 H515 0.929 1_565 S
C489 Tb480 2.764 . S
C489 C483 1.504 . S
C489 O501 1.239 . S
C489 O502 1.263 . S
O490 Tb480 2.325 1_545 S
O490 C500 1.236 . S
O491 Tb481 2.322 . S
O491 C500 1.257 1_655 S
O492 Tb481 2.349 . S
O492 C503 1.261 . S
O493 Tb480 2.303 . S
O493 C503 1.257 1_465 S
O494 Tb481 2.415 . S
O494 C510 1.239 . S
O495 Tb481 2.399 . S
O495 C510 1.263 . S
O496 Tb481 2.325 1_565 S
O496 C511 1.236 . S
O497 Tb480 2.322 1_655 S
O497 C511 1.257 . S
O498 Tb480 2.349 . S
O498 C482 1.261 1_465 S
O499 Tb481 2.303 . S
O499 C482 1.257 . S
C500 O490 1.236 . S
C500 O491 1.257 1_455 S
O501 Tb480 2.415 . S
O501 C489 1.239 . S
O502 Tb480 2.399 . S
O502 C489 1.263 . S
C503 O492 1.261 . S
C503 O493 1.257 1_645 S
C504 C507 1.358 . S
C504 C508 1.332 . S
C504 C510 1.504 . S
C505 C506 1.373 . S
C505 C509 1.308 . S
C506 C505 1.373 . S
C506 C507 1.429 . S
C506 H516 0.932 . S
C507 C504 1.358 . S
C507 C506 1.429 . S
C507 H517 0.930 . S
C508 C504 1.332 . S
C508 C509 1.394 . S
C508 H518 0.932 . S
C509 C505 1.308 . S
C509 C508 1.394 . S
C509 H519 0.929 . S
C510 Tb481 2.764 . S
C510 O494 1.239 . S
C510 O495 1.263 . S
C510 C504 1.504 . S
C511 O496 1.236 . S
C511 O497 1.257 . S
H512 C485 0.932 . S
H513 C486 0.930 . S
H514 C487 0.932 1_545 S
H515 C488 0.929 1_545 S
H516 C506 0.932 . S
H517 C507 0.930 . S
H518 C508 0.932 . S
H519 C509 0.929 . S
Tb520 C529 2.764 . S
Tb520 O530 2.325 . S
Tb520 O533 2.303 . S
Tb520 O537 2.322 . S
Tb520 O538 2.349 . S
Tb520 O541 2.415 . S
Tb520 O542 2.399 . S
Tb521 O531 2.322 . S
Tb521 O532 2.349 . S
Tb521 O534 2.415 . S
Tb521 O535 2.399 . S
Tb521 O536 2.325 . S
Tb521 O539 2.303 . S
Tb521 C550 2.764 1_655 S
C522 O538 1.261 . S
C522 O539 1.257 . S
C523 C526 1.358 . S
C523 C527 1.332 . S
C523 C529 1.504 . S
C524 C525 1.373 . S
C524 C528 1.308 . S
C525 C524 1.373 . S
C525 C526 1.429 . S
C525 H552 0.932 . S
C526 C523 1.358 . S
C526 C525 1.429 . S
C526 H553 0.930 . S
C527 C523 1.332 . S
C527 C528 1.394 . S
C527 H554 0.932 . S
C528 C524 1.308 . S
C528 C527 1.394 . S
C528 H555 0.929 . S
C529 Tb520 2.764 . S
C529 C523 1.504 . S
C529 O541 1.239 . S
C529 O542 1.263 . S
O530 Tb520 2.325 . S
O530 C540 1.236 . S
O531 Tb521 2.322 . S
O531 C540 1.257 . S
O532 Tb521 2.349 . S
O532 C543 1.261 . S
O533 Tb520 2.303 . S
O533 C543 1.257 . S
O534 Tb521 2.415 . S
O534 C550 1.239 1_655 S
O535 Tb521 2.399 . S
O535 C550 1.263 1_655 S
O536 Tb521 2.325 . S
O536 C551 1.236 . S
O537 Tb520 2.322 . S
O537 C551 1.257 . S
O538 Tb520 2.349 . S
O538 C522 1.261 . S
O539 Tb521 2.303 . S
O539 C522 1.257 . S
C540 O530 1.236 . S
C540 O531 1.257 . S
O541 Tb520 2.415 . S
O541 C529 1.239 . S
O542 Tb520 2.399 . S
O542 C529 1.263 . S
C543 O532 1.261 . S
C543 O533 1.257 . S
C544 C547 1.358 . S
C544 C548 1.332 . S
C544 C550 1.504 . S
C545 C546 1.373 . S
C545 C549 1.308 . S
C546 C545 1.373 . S
C546 C547 1.429 . S
C546 H556 0.932 . S
C547 C544 1.358 . S
C547 C546 1.429 . S
C547 H557 0.930 . S
C548 C544 1.332 . S
C548 C549 1.394 . S
C548 H558 0.932 . S
C549 C545 1.308 . S
C549 C548 1.394 . S
C549 H559 0.929 . S
C550 Tb521 2.764 1_455 S
C550 O534 1.239 1_455 S
C550 O535 1.263 1_455 S
C550 C544 1.504 . S
C551 O536 1.236 . S
C551 O537 1.257 . S
H552 C525 0.932 . S
H553 C526 0.930 . S
H554 C527 0.932 . S
H555 C528 0.929 . S
H556 C546 0.932 . S
H557 C547 0.930 . S
H558 C548 0.932 . S
H559 C549 0.929 . S
Tb560 C569 2.764 . S
Tb560 O570 2.325 . S
Tb560 O573 2.303 . S
Tb560 O577 2.322 1_455 S
Tb560 O578 2.349 . S
Tb560 O581 2.415 . S
Tb560 O582 2.399 . S
Tb561 O571 2.322 . S
Tb561 O572 2.349 . S
Tb561 O574 2.415 . S
Tb561 O575 2.399 . S
Tb561 O576 2.325 . S
Tb561 O579 2.303 . S
Tb561 C590 2.764 . S
C562 O578 1.261 1_655 S
C562 O579 1.257 . S
C563 C566 1.358 . S
C563 C567 1.332 . S
C563 C569 1.504 . S
C564 C565 1.373 . S
C564 C568 1.308 . S
C565 C564 1.373 . S
C565 C566 1.429 . S
C565 H592 0.932 . S
C566 C563 1.358 . S
C566 C565 1.429 . S
C566 H593 0.930 . S
C567 C563 1.332 . S
C567 C568 1.394 . S
C567 H594 0.932 . S
C568 C564 1.308 . S
C568 C567 1.394 . S
C568 H595 0.929 . S
C569 Tb560 2.764 . S
C569 C563 1.504 . S
C569 O581 1.239 . S
C569 O582 1.263 . S
O570 Tb560 2.325 . S
O570 C580 1.236 . S
O571 Tb561 2.322 . S
O571 C580 1.257 1_655 S
O572 Tb561 2.349 . S
O572 C583 1.261 . S
O573 Tb560 2.303 . S
O573 C583 1.257 1_455 S
O574 Tb561 2.415 . S
O574 C590 1.239 . S
O575 Tb561 2.399 . S
O575 C590 1.263 . S
O576 Tb561 2.325 . S
O576 C591 1.236 . S
O577 Tb560 2.322 1_655 S
O577 C591 1.257 . S
O578 Tb560 2.349 . S
O578 C562 1.261 1_455 S
O579 Tb561 2.303 . S
O579 C562 1.257 . S
C580 O570 1.236 . S
C580 O571 1.257 1_455 S
O581 Tb560 2.415 . S
O581 C569 1.239 . S
O582 Tb560 2.399 . S
O582 C569 1.263 . S
C583 O572 1.261 . S
C583 O573 1.257 1_655 S
C584 C587 1.358 . S
C584 C588 1.332 . S
C584 C590 1.504 . S
C585 C586 1.373 . S
C585 C589 1.308 . S
C586 C585 1.373 . S
C586 C587 1.429 . S
C586 H596 0.932 . S
C587 C584 1.358 . S
C587 C586 1.429 . S
C587 H597 0.930 . S
C588 C584 1.332 . S
C588 C589 1.394 . S
C588 H598 0.932 . S
C589 C585 1.308 . S
C589 C588 1.394 . S
C589 H599 0.929 . S
C590 Tb561 2.764 . S
C590 O574 1.239 . S
C590 O575 1.263 . S
C590 C584 1.504 . S
C591 O576 1.236 . S
C591 O577 1.257 . S
H592 C565 0.932 . S
H593 C566 0.930 . S
H594 C567 0.932 . S
H595 C568 0.929 . S
H596 C586 0.932 . S
H597 C587 0.930 . S
H598 C588 0.932 . S
H599 C589 0.929 . S
Tb600 C609 2.764 . S
Tb600 O610 2.325 1_565 S
Tb600 O613 2.303 . S
Tb600 O617 2.322 . S
Tb600 O618 2.349 . S
Tb600 O621 2.415 . S
Tb600 O622 2.399 . S
Tb601 O611 2.322 . S
Tb601 O612 2.349 . S
Tb601 O614 2.415 . S
Tb601 O615 2.399 . S
Tb601 O616 2.325 1_545 S
Tb601 O619 2.303 . S
Tb601 C630 2.764 1_655 S
C602 O618 1.261 1_545 S
C602 O619 1.257 . S
C603 C606 1.358 . S
C603 C607 1.332 . S
C603 C609 1.504 . S
C604 C605 1.373 . S
C604 C608 1.308 . S
C605 C604 1.373 . S
C605 C606 1.429 . S
C605 H632 0.932 . S
C606 C603 1.358 . S
C606 C605 1.429 . S
C606 H633 0.930 . S
C607 C603 1.332 . S
C607 C608 1.394 . S
C607 H634 0.932 1_565 S
C608 C604 1.308 . S
C608 C607 1.394 . S
C608 H635 0.929 1_565 S
C609 Tb600 2.764 . S
C609 C603 1.504 . S
C609 O621 1.239 . S
C609 O622 1.263 . S
O610 Tb600 2.325 1_545 S
O610 C620 1.236 . S
O611 Tb601 2.322 . S
O611 C620 1.257 . S
O612 Tb601 2.349 . S
O612 C623 1.261 . S
O613 Tb600 2.303 . S
O613 C623 1.257 1_565 S
O614 Tb601 2.415 . S
O614 C630 1.239 1_655 S
O615 Tb601 2.399 . S
O615 C630 1.263 1_655 S
O616 Tb601 2.325 1_565 S
O616 C631 1.236 . S
O617 Tb600 2.322 . S
O617 C631 1.257 . S
O618 Tb600 2.349 . S
O618 C602 1.261 1_565 S
O619 Tb601 2.303 . S
O619 C602 1.257 . S
C620 O610 1.236 . S
C620 O611 1.257 . S
O621 Tb600 2.415 . S
O621 C609 1.239 . S
O622 Tb600 2.399 . S
O622 C609 1.263 . S
C623 O612 1.261 . S
C623 O613 1.257 1_545 S
C624 C627 1.358 . S
C624 C628 1.332 . S
C624 C630 1.504 . S
C625 C626 1.373 . S
C625 C629 1.308 . S
C626 C625 1.373 . S
C626 C627 1.429 . S
C626 H636 0.932 . S
C627 C624 1.358 . S
C627 C626 1.429 . S
C627 H637 0.930 . S
C628 C624 1.332 . S
C628 C629 1.394 . S
C628 H638 0.932 . S
C629 C625 1.308 . S
C629 C628 1.394 . S
C629 H639 0.929 . S
C630 Tb601 2.764 1_455 S
C630 O614 1.239 1_455 S
C630 O615 1.263 1_455 S
C630 C624 1.504 . S
C631 O616 1.236 . S
C631 O617 1.257 . S
H632 C605 0.932 . S
H633 C606 0.930 . S
H634 C607 0.932 1_545 S
H635 C608 0.929 1_545 S
H636 C626 0.932 . S
H637 C627 0.930 . S
H638 C628 0.932 . S
H639 C629 0.929 . S
Tb640 C649 2.764 . S
Tb640 O650 2.325 . S
Tb640 O653 2.303 . S
Tb640 O657 2.322 . S
Tb640 O658 2.349 . S
Tb640 O661 2.415 . S
Tb640 O662 2.399 . S
Tb641 O651 2.322 . S
Tb641 O652 2.349 . S
Tb641 O654 2.415 . S
Tb641 O655 2.399 . S
Tb641 O656 2.325 . S
Tb641 O659 2.303 . S
Tb641 C670 2.764 . S
C642 O658 1.261 . S
C642 O659 1.257 . S
C643 C646 1.358 . S
C643 C647 1.332 . S
C643 C649 1.504 . S
C644 C645 1.373 . S
C644 C648 1.308 . S
C645 C644 1.373 . S
C645 C646 1.429 . S
C645 H672 0.932 . S
C646 C643 1.358 . S
C646 C645 1.429 . S
C646 H673 0.930 . S
C647 C643 1.332 . S
C647 C648 1.394 . S
C647 H674 0.932 . S
C648 C644 1.308 . S
C648 C647 1.394 . S
C648 H675 0.929 . S
C649 Tb640 2.764 . S
C649 C643 1.504 . S
C649 O661 1.239 . S
C649 O662 1.263 . S
O650 Tb640 2.325 . S
O650 C660 1.236 . S
O651 Tb641 2.322 . S
O651 C660 1.257 . S
O652 Tb641 2.349 . S
O652 C663 1.261 . S
O653 Tb640 2.303 . S
O653 C663 1.257 . S
O654 Tb641 2.415 . S
O654 C670 1.239 . S
O655 Tb641 2.399 . S
O655 C670 1.263 . S
O656 Tb641 2.325 . S
O656 C671 1.236 . S
O657 Tb640 2.322 . S
O657 C671 1.257 . S
O658 Tb640 2.349 . S
O658 C642 1.261 . S
O659 Tb641 2.303 . S
O659 C642 1.257 . S
C660 O650 1.236 . S
C660 O651 1.257 . S
O661 Tb640 2.415 . S
O661 C649 1.239 . S
O662 Tb640 2.399 . S
O662 C649 1.263 . S
C663 O652 1.261 . S
C663 O653 1.257 . S
C664 C667 1.358 . S
C664 C668 1.332 . S
C664 C670 1.504 . S
C665 C666 1.373 . S
C665 C669 1.308 . S
C666 C665 1.373 . S
C666 C667 1.429 . S
C666 H676 0.932 . S
C667 C664 1.358 . S
C667 C666 1.429 . S
C667 H677 0.930 . S
C668 C664 1.332 . S
C668 C669 1.394 . S
C668 H678 0.932 . S
C669 C665 1.308 . S
C669 C668 1.394 . S
C669 H679 0.929 . S
C670 Tb641 2.764 . S
C670 O654 1.239 . S
C670 O655 1.263 . S
C670 C664 1.504 . S
C671 O656 1.236 . S
C671 O657 1.257 . S
H672 C645 0.932 . S
H673 C646 0.930 . S
H674 C647 0.932 . S
H675 C648 0.929 . S
H676 C666 0.932 . S
H677 C667 0.930 . S
H678 C668 0.932 . S
H679 C669 0.929 . S
Tb680 C689 2.764 . S
Tb680 O690 2.325 . S
Tb680 O693 2.303 . S
Tb680 O697 2.322 . S
Tb680 O698 2.349 . S
Tb680 O701 2.415 . S
Tb680 O702 2.399 . S
Tb681 O691 2.322 . S
Tb681 O692 2.349 . S
Tb681 O694 2.415 . S
Tb681 O695 2.399 . S
Tb681 O696 2.325 . S
Tb681 O699 2.303 . S
Tb681 C710 2.764 . S
C682 O698 1.261 . S
C682 O699 1.257 . S
C683 C686 1.358 . S
C683 C687 1.332 . S
C683 C689 1.504 . S
C684 C685 1.373 . S
C684 C688 1.308 . S
C685 C684 1.373 . S
C685 C686 1.429 . S
C685 H712 0.932 . S
C686 C683 1.358 . S
C686 C685 1.429 . S
C686 H713 0.930 . S
C687 C683 1.332 . S
C687 C688 1.394 . S
C687 H714 0.932 . S
C688 C684 1.308 . S
C688 C687 1.394 . S
C688 H715 0.929 . S
C689 Tb680 2.764 . S
C689 C683 1.504 . S
C689 O701 1.239 . S
C689 O702 1.263 . S
O690 Tb680 2.325 . S
O690 C700 1.236 . S
O691 Tb681 2.322 . S
O691 C700 1.257 . S
O692 Tb681 2.349 . S
O692 C703 1.261 . S
O693 Tb680 2.303 . S
O693 C703 1.257 . S
O694 Tb681 2.415 . S
O694 C710 1.239 . S
O695 Tb681 2.399 . S
O695 C710 1.263 . S
O696 Tb681 2.325 . S
O696 C711 1.236 . S
O697 Tb680 2.322 . S
O697 C711 1.257 . S
O698 Tb680 2.349 . S
O698 C682 1.261 . S
O699 Tb681 2.303 . S
O699 C682 1.257 . S
C700 O690 1.236 . S
C700 O691 1.257 . S
O701 Tb680 2.415 . S
O701 C689 1.239 . S
O702 Tb680 2.399 . S
O702 C689 1.263 . S
C703 O692 1.261 . S
C703 O693 1.257 . S
C704 C707 1.358 . S
C704 C708 1.332 . S
C704 C710 1.504 1_455 S
C705 C706 1.373 . S
C705 C709 1.308 . S
C706 C705 1.373 . S
C706 C707 1.429 . S
C706 H716 0.932 . S
C707 C704 1.358 . S
C707 C706 1.429 . S
C707 H717 0.930 . S
C708 C704 1.332 . S
C708 C709 1.394 . S
C708 H718 0.932 . S
C709 C705 1.308 . S
C709 C708 1.394 . S
C709 H719 0.929 . S
C710 Tb681 2.764 . S
C710 O694 1.239 . S
C710 O695 1.263 . S
C710 C704 1.504 1_655 S
C711 O696 1.236 . S
C711 O697 1.257 . S
H712 C685 0.932 . S
H713 C686 0.930 . S
H714 C687 0.932 . S
H715 C688 0.929 . S
H716 C706 0.932 . S
H717 C707 0.930 . S
H718 C708 0.932 . S
H719 C709 0.929 . S
Tb720 C729 2.764 . S
Tb720 O730 2.325 . S
Tb720 O733 2.303 . S
Tb720 O737 2.322 . S
Tb720 O738 2.349 . S
Tb720 O741 2.415 . S
Tb720 O742 2.399 . S
Tb721 O731 2.322 . S
Tb721 O732 2.349 . S
Tb721 O734 2.415 . S
Tb721 O735 2.399 . S
Tb721 O736 2.325 . S
Tb721 O739 2.303 . S
Tb721 C750 2.764 . S
C722 O738 1.261 . S
C722 O739 1.257 . S
C723 C726 1.358 . S
C723 C727 1.332 . S
C723 C729 1.504 . S
C724 C725 1.373 . S
C724 C728 1.308 . S
C725 C724 1.373 . S
C725 C726 1.429 . S
C725 H752 0.932 . S
C726 C723 1.358 . S
C726 C725 1.429 . S
C726 H753 0.930 . S
C727 C723 1.332 . S
C727 C728 1.394 . S
C727 H754 0.932 . S
C728 C724 1.308 . S
C728 C727 1.394 . S
C728 H755 0.929 . S
C729 Tb720 2.764 . S
C729 C723 1.504 . S
C729 O741 1.239 . S
C729 O742 1.263 . S
O730 Tb720 2.325 . S
O730 C740 1.236 . S
O731 Tb721 2.322 . S
O731 C740 1.257 . S
O732 Tb721 2.349 . S
O732 C743 1.261 . S
O733 Tb720 2.303 . S
O733 C743 1.257 . S
O734 Tb721 2.415 . S
O734 C750 1.239 . S
O735 Tb721 2.399 . S
O735 C750 1.263 . S
O736 Tb721 2.325 . S
O736 C751 1.236 . S
O737 Tb720 2.322 . S
O737 C751 1.257 . S
O738 Tb720 2.349 . S
O738 C722 1.261 . S
O739 Tb721 2.303 . S
O739 C722 1.257 . S
C740 O730 1.236 . S
C740 O731 1.257 . S
O741 Tb720 2.415 . S
O741 C729 1.239 . S
O742 Tb720 2.399 . S
O742 C729 1.263 . S
C743 O732 1.261 . S
C743 O733 1.257 . S
C744 C747 1.358 . S
C744 C748 1.332 . S
C744 C750 1.504 . S
C745 C746 1.373 . S
C745 C749 1.308 . S
C746 C745 1.373 . S
C746 C747 1.429 . S
C746 H756 0.932 . S
C747 C744 1.358 . S
C747 C746 1.429 . S
C747 H757 0.930 . S
C748 C744 1.332 . S
C748 C749 1.394 . S
C748 H758 0.932 . S
C749 C745 1.308 . S
C749 C748 1.394 . S
C749 H759 0.929 . S
C750 Tb721 2.764 . S
C750 O734 1.239 . S
C750 O735 1.263 . S
C750 C744 1.504 . S
C751 O736 1.236 . S
C751 O737 1.257 . S
H752 C725 0.932 . S
H753 C726 0.930 . S
H754 C727 0.932 . S
H755 C728 0.929 . S
H756 C746 0.932 . S
H757 C747 0.930 . S
H758 C748 0.932 . S
H759 C749 0.929 . S
Tb760 C769 2.764 . S
Tb760 O770 2.325 . S
Tb760 O773 2.303 . S
Tb760 O777 2.322 . S
Tb760 O778 2.349 . S
Tb760 O781 2.415 . S
Tb760 O782 2.399 . S
Tb761 O771 2.322 . S
Tb761 O772 2.349 . S
Tb761 O774 2.415 . S
Tb761 O775 2.399 . S
Tb761 O776 2.325 . S
Tb761 O779 2.303 . S
Tb761 C790 2.764 . S
C762 O778 1.261 . S
C762 O779 1.257 . S
C763 C766 1.358 . S
C763 C767 1.332 . S
C763 C769 1.504 . S
C764 C765 1.373 . S
C764 C768 1.308 . S
C765 C764 1.373 . S
C765 C766 1.429 . S
C765 H792 0.932 . S
C766 C763 1.358 . S
C766 C765 1.429 . S
C766 H793 0.930 . S
C767 C763 1.332 . S
C767 C768 1.394 . S
C767 H794 0.932 . S
C768 C764 1.308 . S
C768 C767 1.394 . S
C768 H795 0.929 . S
C769 Tb760 2.764 . S
C769 C763 1.504 . S
C769 O781 1.239 . S
C769 O782 1.263 . S
O770 Tb760 2.325 . S
O770 C780 1.236 . S
O771 Tb761 2.322 . S
O771 C780 1.257 . S
O772 Tb761 2.349 . S
O772 C783 1.261 . S
O773 Tb760 2.303 . S
O773 C783 1.257 . S
O774 Tb761 2.415 . S
O774 C790 1.239 . S
O775 Tb761 2.399 . S
O775 C790 1.263 . S
O776 Tb761 2.325 . S
O776 C791 1.236 . S
O777 Tb760 2.322 . S
O777 C791 1.257 . S
O778 Tb760 2.349 . S
O778 C762 1.261 . S
O779 Tb761 2.303 . S
O779 C762 1.257 . S
C780 O770 1.236 . S
C780 O771 1.257 . S
O781 Tb760 2.415 . S
O781 C769 1.239 . S
O782 Tb760 2.399 . S
O782 C769 1.263 . S
C783 O772 1.261 . S
C783 O773 1.257 . S
C784 C787 1.358 . S
C784 C788 1.332 . S
C784 C790 1.504 1_455 S
C785 C786 1.373 . S
C785 C789 1.308 . S
C786 C785 1.373 . S
C786 C787 1.429 . S
C786 H796 0.932 . S
C787 C784 1.358 . S
C787 C786 1.429 . S
C787 H797 0.930 . S
C788 C784 1.332 . S
C788 C789 1.394 . S
C788 H798 0.932 . S
C789 C785 1.308 . S
C789 C788 1.394 . S
C789 H799 0.929 . S
C790 Tb761 2.764 . S
C790 O774 1.239 . S
C790 O775 1.263 . S
C790 C784 1.504 1_655 S
C791 O776 1.236 . S
C791 O777 1.257 . S
H792 C765 0.932 . S
H793 C766 0.930 . S
H794 C767 0.932 . S
H795 C768 0.929 . S
H796 C786 0.932 . S
H797 C787 0.930 . S
H798 C788 0.932 . S
H799 C789 0.929 . S
Tb800 C809 2.764 . S
Tb800 O810 2.325 . S
Tb800 O813 2.303 . S
Tb800 O817 2.322 . S
Tb800 O818 2.349 . S
Tb800 O821 2.415 . S
Tb800 O822 2.399 . S
Tb801 O811 2.322 . S
Tb801 O812 2.349 . S
Tb801 O814 2.415 . S
Tb801 O815 2.399 . S
Tb801 O816 2.325 . S
Tb801 O819 2.303 . S
Tb801 C830 2.764 . S
C802 O818 1.261 . S
C802 O819 1.257 . S
C803 C806 1.358 . S
C803 C807 1.332 . S
C803 C809 1.504 . S
C804 C805 1.373 . S
C804 C808 1.308 . S
C805 C804 1.373 . S
C805 C806 1.429 . S
C805 H832 0.932 . S
C806 C803 1.358 . S
C806 C805 1.429 . S
C806 H833 0.930 . S
C807 C803 1.332 . S
C807 C808 1.394 . S
C807 H834 0.932 . S
C808 C804 1.308 . S
C808 C807 1.394 . S
C808 H835 0.929 . S
C809 Tb800 2.764 . S
C809 C803 1.504 . S
C809 O821 1.239 . S
C809 O822 1.263 . S
O810 Tb800 2.325 . S
O810 C820 1.236 . S
O811 Tb801 2.322 . S
O811 C820 1.257 . S
O812 Tb801 2.349 . S
O812 C823 1.261 . S
O813 Tb800 2.303 . S
O813 C823 1.257 . S
O814 Tb801 2.415 . S
O814 C830 1.239 . S
O815 Tb801 2.399 . S
O815 C830 1.263 . S
O816 Tb801 2.325 . S
O816 C831 1.236 . S
O817 Tb800 2.322 . S
O817 C831 1.257 . S
O818 Tb800 2.349 . S
O818 C802 1.261 . S
O819 Tb801 2.303 . S
O819 C802 1.257 . S
C820 O810 1.236 . S
C820 O811 1.257 . S
O821 Tb800 2.415 . S
O821 C809 1.239 . S
O822 Tb800 2.399 . S
O822 C809 1.263 . S
C823 O812 1.261 . S
C823 O813 1.257 . S
C824 C827 1.358 . S
C824 C828 1.332 . S
C824 C830 1.504 . S
C825 C826 1.373 . S
C825 C829 1.308 . S
C826 C825 1.373 . S
C826 C827 1.429 . S
C826 H836 0.932 . S
C827 C824 1.358 . S
C827 C826 1.429 . S
C827 H837 0.930 . S
C828 C824 1.332 . S
C828 C829 1.394 . S
C828 H838 0.932 . S
C829 C825 1.308 . S
C829 C828 1.394 . S
C829 H839 0.929 . S
C830 Tb801 2.764 . S
C830 O814 1.239 . S
C830 O815 1.263 . S
C830 C824 1.504 . S
C831 O816 1.236 . S
C831 O817 1.257 . S
H832 C805 0.932 . S
H833 C806 0.930 . S
H834 C807 0.932 . S
H835 C808 0.929 . S
H836 C826 0.932 . S
H837 C827 0.930 . S
H838 C828 0.932 . S
H839 C829 0.929 . S
Tb840 C849 2.764 . S
Tb840 O850 2.325 . S
Tb840 O853 2.303 . S
Tb840 O857 2.322 . S
Tb840 O858 2.349 . S
Tb840 O861 2.415 . S
Tb840 O862 2.399 . S
Tb841 O851 2.322 . S
Tb841 O852 2.349 . S
Tb841 O854 2.415 . S
Tb841 O855 2.399 . S
Tb841 O856 2.325 . S
Tb841 O859 2.303 . S
Tb841 C870 2.764 . S
C842 O858 1.261 . S
C842 O859 1.257 . S
C843 C846 1.358 . S
C843 C847 1.332 . S
C843 C849 1.504 1_655 S
C844 C845 1.373 . S
C844 C848 1.308 . S
C845 C844 1.373 . S
C845 C846 1.429 . S
C845 H872 0.932 . S
C846 C843 1.358 . S
C846 C845 1.429 . S
C846 H873 0.930 . S
C847 C843 1.332 . S
C847 C848 1.394 . S
C847 H874 0.932 . S
C848 C844 1.308 . S
C848 C847 1.394 . S
C848 H875 0.929 . S
C849 Tb840 2.764 . S
C849 C843 1.504 1_455 S
C849 O861 1.239 . S
C849 O862 1.263 . S
O850 Tb840 2.325 . S
O850 C860 1.236 . S
O851 Tb841 2.322 . S
O851 C860 1.257 . S
O852 Tb841 2.349 . S
O852 C863 1.261 . S
O853 Tb840 2.303 . S
O853 C863 1.257 . S
O854 Tb841 2.415 . S
O854 C870 1.239 . S
O855 Tb841 2.399 . S
O855 C870 1.263 . S
O856 Tb841 2.325 . S
O856 C871 1.236 . S
O857 Tb840 2.322 . S
O857 C871 1.257 . S
O858 Tb840 2.349 . S
O858 C842 1.261 . S
O859 Tb841 2.303 . S
O859 C842 1.257 . S
C860 O850 1.236 . S
C860 O851 1.257 . S
O861 Tb840 2.415 . S
O861 C849 1.239 . S
O862 Tb840 2.399 . S
O862 C849 1.263 . S
C863 O852 1.261 . S
C863 O853 1.257 . S
C864 C867 1.358 . S
C864 C868 1.332 . S
C864 C870 1.504 . S
C865 C866 1.373 . S
C865 C869 1.308 . S
C866 C865 1.373 . S
C866 C867 1.429 . S
C866 H876 0.932 . S
C867 C864 1.358 . S
C867 C866 1.429 . S
C867 H877 0.930 . S
C868 C864 1.332 . S
C868 C869 1.394 . S
C868 H878 0.932 . S
C869 C865 1.308 . S
C869 C868 1.394 . S
C869 H879 0.929 . S
C870 Tb841 2.764 . S
C870 O854 1.239 . S
C870 O855 1.263 . S
C870 C864 1.504 . S
C871 O856 1.236 . S
C871 O857 1.257 . S
H872 C845 0.932 . S
H873 C846 0.930 . S
H874 C847 0.932 . S
H875 C848 0.929 . S
H876 C866 0.932 . S
H877 C867 0.930 . S
H878 C868 0.932 . S
H879 C869 0.929 . S
Tb880 C889 2.764 . S
Tb880 O890 2.325 . S
Tb880 O893 2.303 . S
Tb880 O897 2.322 . S
Tb880 O898 2.349 . S
Tb880 O901 2.415 . S
Tb880 O902 2.399 . S
Tb881 O891 2.322 . S
Tb881 O892 2.349 . S
Tb881 O894 2.415 . S
Tb881 O895 2.399 . S
Tb881 O896 2.325 . S
Tb881 O899 2.303 . S
Tb881 C910 2.764 . S
C882 O898 1.261 . S
C882 O899 1.257 . S
C883 C886 1.358 . S
C883 C887 1.332 . S
C883 C889 1.504 . S
C884 C885 1.373 . S
C884 C888 1.308 . S
C885 C884 1.373 . S
C885 C886 1.429 . S
C885 H912 0.932 . S
C886 C883 1.358 . S
C886 C885 1.429 . S
C886 H913 0.930 . S
C887 C883 1.332 . S
C887 C888 1.394 . S
C887 H914 0.932 . S
C888 C884 1.308 . S
C888 C887 1.394 . S
C888 H915 0.929 . S
C889 Tb880 2.764 . S
C889 C883 1.504 . S
C889 O901 1.239 . S
C889 O902 1.263 . S
O890 Tb880 2.325 . S
O890 C900 1.236 . S
O891 Tb881 2.322 . S
O891 C900 1.257 . S
O892 Tb881 2.349 . S
O892 C903 1.261 . S
O893 Tb880 2.303 . S
O893 C903 1.257 . S
O894 Tb881 2.415 . S
O894 C910 1.239 . S
O895 Tb881 2.399 . S
O895 C910 1.263 . S
O896 Tb881 2.325 . S
O896 C911 1.236 . S
O897 Tb880 2.322 . S
O897 C911 1.257 . S
O898 Tb880 2.349 . S
O898 C882 1.261 . S
O899 Tb881 2.303 . S
O899 C882 1.257 . S
C900 O890 1.236 . S
C900 O891 1.257 . S
O901 Tb880 2.415 . S
O901 C889 1.239 . S
O902 Tb880 2.399 . S
O902 C889 1.263 . S
C903 O892 1.261 . S
C903 O893 1.257 . S
C904 C907 1.358 . S
C904 C908 1.332 . S
C904 C910 1.504 . S
C905 C906 1.373 . S
C905 C909 1.308 . S
C906 C905 1.373 . S
C906 C907 1.429 . S
C906 H916 0.932 . S
C907 C904 1.358 . S
C907 C906 1.429 . S
C907 H917 0.930 . S
C908 C904 1.332 . S
C908 C909 1.394 . S
C908 H918 0.932 . S
C909 C905 1.308 . S
C909 C908 1.394 . S
C909 H919 0.929 . S
C910 Tb881 2.764 . S
C910 O894 1.239 . S
C910 O895 1.263 . S
C910 C904 1.504 . S
C911 O896 1.236 . S
C911 O897 1.257 . S
H912 C885 0.932 . S
H913 C886 0.930 . S
H914 C887 0.932 . S
H915 C888 0.929 . S
H916 C906 0.932 . S
H917 C907 0.930 . S
H918 C908 0.932 . S
H919 C909 0.929 . S
Tb920 C929 2.764 . S
Tb920 O930 2.325 . S
Tb920 O933 2.303 . S
Tb920 O937 2.322 . S
Tb920 O938 2.349 . S
Tb920 O941 2.415 . S
Tb920 O942 2.399 . S
Tb921 O931 2.322 . S
Tb921 O932 2.349 . S
Tb921 O934 2.415 . S
Tb921 O935 2.399 . S
Tb921 O936 2.325 . S
Tb921 O939 2.303 . S
Tb921 C950 2.764 . S
C922 O938 1.261 . S
C922 O939 1.257 . S
C923 C926 1.358 . S
C923 C927 1.332 . S
C923 C929 1.504 1_655 S
C924 C925 1.373 . S
C924 C928 1.308 . S
C925 C924 1.373 . S
C925 C926 1.429 . S
C925 H952 0.932 . S
C926 C923 1.358 . S
C926 C925 1.429 . S
C926 H953 0.930 . S
C927 C923 1.332 . S
C927 C928 1.394 . S
C927 H954 0.932 . S
C928 C924 1.308 . S
C928 C927 1.394 . S
C928 H955 0.929 . S
C929 Tb920 2.764 . S
C929 C923 1.504 1_455 S
C929 O941 1.239 . S
C929 O942 1.263 . S
O930 Tb920 2.325 . S
O930 C940 1.236 . S
O931 Tb921 2.322 . S
O931 C940 1.257 . S
O932 Tb921 2.349 . S
O932 C943 1.261 . S
O933 Tb920 2.303 . S
O933 C943 1.257 . S
O934 Tb921 2.415 . S
O934 C950 1.239 . S
O935 Tb921 2.399 . S
O935 C950 1.263 . S
O936 Tb921 2.325 . S
O936 C951 1.236 . S
O937 Tb920 2.322 . S
O937 C951 1.257 . S
O938 Tb920 2.349 . S
O938 C922 1.261 . S
O939 Tb921 2.303 . S
O939 C922 1.257 . S
C940 O930 1.236 . S
C940 O931 1.257 . S
O941 Tb920 2.415 . S
O941 C929 1.239 . S
O942 Tb920 2.399 . S
O942 C929 1.263 . S
C943 O932 1.261 . S
C943 O933 1.257 . S
C944 C947 1.358 . S
C944 C948 1.332 . S
C944 C950 1.504 . S
C945 C946 1.373 . S
C945 C949 1.308 . S
C946 C945 1.373 . S
C946 C947 1.429 . S
C946 H956 0.932 . S
C947 C944 1.358 . S
C947 C946 1.429 . S
C947 H957 0.930 . S
C948 C944 1.332 . S
C948 C949 1.394 . S
C948 H958 0.932 . S
C949 C945 1.308 . S
C949 C948 1.394 . S
C949 H959 0.929 . S
C950 Tb921 2.764 . S
C950 O934 1.239 . S
C950 O935 1.263 . S
C950 C944 1.504 . S
C951 O936 1.236 . S
C951 O937 1.257 . S
H952 C925 0.932 . S
H953 C926 0.930 . S
H954 C927 0.932 . S
H955 C928 0.929 . S
H956 C946 0.932 . S
H957 C947 0.930 . S
H958 C948 0.932 . S
H959 C949 0.929 . S
Tb960 C969 2.764 . S
Tb960 O970 2.325 1_565 S
Tb960 O973 2.303 . S
Tb960 O977 2.322 . S
Tb960 O978 2.349 . S
Tb960 O981 2.415 . S
Tb960 O982 2.399 . S
Tb961 O971 2.322 . S
Tb961 O972 2.349 . S
Tb961 O974 2.415 . S
Tb961 O975 2.399 . S
Tb961 O976 2.325 1_545 S
Tb961 O979 2.303 . S
Tb961 C990 2.764 . S
C962 O978 1.261 . S
C962 O979 1.257 1_565 S
C963 C966 1.358 . S
C963 C967 1.332 . S
C963 C969 1.504 . S
C964 C965 1.373 . S
C964 C968 1.308 . S
C965 C964 1.373 . S
C965 C966 1.429 . S
C965 H992 0.932 . S
C966 C963 1.358 . S
C966 C965 1.429 . S
C966 H993 0.930 . S
C967 C963 1.332 . S
C967 C968 1.394 . S
C967 H994 0.932 . S
C968 C964 1.308 . S
C968 C967 1.394 . S
C968 H995 0.929 . S
C969 Tb960 2.764 . S
C969 C963 1.504 . S
C969 O981 1.239 . S
C969 O982 1.263 . S
O970 Tb960 2.325 1_545 S
O970 C980 1.236 . S
O971 Tb961 2.322 . S
O971 C980 1.257 . S
O972 Tb961 2.349 . S
O972 C983 1.261 1_545 S
O973 Tb960 2.303 . S
O973 C983 1.257 . S
O974 Tb961 2.415 . S
O974 C990 1.239 . S
O975 Tb961 2.399 . S
O975 C990 1.263 . S
O976 Tb961 2.325 1_565 S
O976 C991 1.236 . S
O977 Tb960 2.322 . S
O977 C991 1.257 . S
O978 Tb960 2.349 . S
O978 C962 1.261 . S
O979 Tb961 2.303 . S
O979 C962 1.257 1_545 S
C980 O970 1.236 . S
C980 O971 1.257 . S
O981 Tb960 2.415 . S
O981 C969 1.239 . S
O982 Tb960 2.399 . S
O982 C969 1.263 . S
C983 O972 1.261 1_565 S
C983 O973 1.257 . S
C984 C987 1.358 . S
C984 C988 1.332 . S
C984 C990 1.504 . S
C985 C986 1.373 . S
C985 C989 1.308 . S
C986 C985 1.373 . S
C986 C987 1.429 . S
C986 H996 0.932 . S
C987 C984 1.358 . S
C987 C986 1.429 . S
C987 H997 0.930 . S
C988 C984 1.332 . S
C988 C989 1.394 . S
C988 H998 0.932 1_545 S
C989 C985 1.308 . S
C989 C988 1.394 . S
C989 H999 0.929 1_545 S
C990 Tb961 2.764 . S
C990 O974 1.239 . S
C990 O975 1.263 . S
C990 C984 1.504 . S
C991 O976 1.236 . S
C991 O977 1.257 . S
H992 C965 0.932 . S
H993 C966 0.930 . S
H994 C967 0.932 . S
H995 C968 0.929 . S
H996 C986 0.932 . S
H997 C987 0.930 . S
H998 C988 0.932 1_565 S
H999 C989 0.929 1_565 S
Tb1000 C1009 2.764 . S
Tb1000 O1010 2.325 . S
Tb1000 O1013 2.303 . S
Tb1000 O1017 2.322 . S
Tb1000 O1018 2.349 . S
Tb1000 O1021 2.415 . S
Tb1000 O1022 2.399 . S
Tb1001 O1011 2.322 . S
Tb1001 O1012 2.349 . S
Tb1001 O1014 2.415 . S
Tb1001 O1015 2.399 . S
Tb1001 O1016 2.325 . S
Tb1001 O1019 2.303 . S
Tb1001 C1030 2.764 . S
C1002 O1018 1.261 . S
C1002 O1019 1.257 . S
C1003 C1006 1.358 . S
C1003 C1007 1.332 . S
C1003 C1009 1.504 . S
C1004 C1005 1.373 . S
C1004 C1008 1.308 . S
C1005 C1004 1.373 . S
C1005 C1006 1.429 . S
C1005 H1032 0.932 . S
C1006 C1003 1.358 . S
C1006 C1005 1.429 . S
C1006 H1033 0.930 . S
C1007 C1003 1.332 . S
C1007 C1008 1.394 . S
C1007 H1034 0.932 . S
C1008 C1004 1.308 . S
C1008 C1007 1.394 . S
C1008 H1035 0.929 . S
C1009 Tb1000 2.764 . S
C1009 C1003 1.504 . S
C1009 O1021 1.239 . S
C1009 O1022 1.263 . S
O1010 Tb1000 2.325 . S
O1010 C1020 1.236 . S
O1011 Tb1001 2.322 . S
O1011 C1020 1.257 . S
O1012 Tb1001 2.349 . S
O1012 C1023 1.261 . S
O1013 Tb1000 2.303 . S
O1013 C1023 1.257 . S
O1014 Tb1001 2.415 . S
O1014 C1030 1.239 . S
O1015 Tb1001 2.399 . S
O1015 C1030 1.263 . S
O1016 Tb1001 2.325 . S
O1016 C1031 1.236 . S
O1017 Tb1000 2.322 . S
O1017 C1031 1.257 . S
O1018 Tb1000 2.349 . S
O1018 C1002 1.261 . S
O1019 Tb1001 2.303 . S
O1019 C1002 1.257 . S
C1020 O1010 1.236 . S
C1020 O1011 1.257 . S
O1021 Tb1000 2.415 . S
O1021 C1009 1.239 . S
O1022 Tb1000 2.399 . S
O1022 C1009 1.263 . S
C1023 O1012 1.261 . S
C1023 O1013 1.257 . S
C1024 C1027 1.358 . S
C1024 C1028 1.332 . S
C1024 C1030 1.504 1_455 S
C1025 C1026 1.373 . S
C1025 C1029 1.308 . S
C1026 C1025 1.373 . S
C1026 C1027 1.429 . S
C1026 H1036 0.932 . S
C1027 C1024 1.358 . S
C1027 C1026 1.429 . S
C1027 H1037 0.930 . S
C1028 C1024 1.332 . S
C1028 C1029 1.394 . S
C1028 H1038 0.932 . S
C1029 C1025 1.308 . S
C1029 C1028 1.394 . S
C1029 H1039 0.929 . S
C1030 Tb1001 2.764 . S
C1030 O1014 1.239 . S
C1030 O1015 1.263 . S
C1030 C1024 1.504 1_655 S
C1031 O1016 1.236 . S
C1031 O1017 1.257 . S
H1032 C1005 0.932 . S
H1033 C1006 0.930 . S
H1034 C1007 0.932 . S
H1035 C1008 0.929 . S
H1036 C1026 0.932 . S
H1037 C1027 0.930 . S
H1038 C1028 0.932 . S
H1039 C1029 0.929 . S
Tb1040 C1049 2.764 . S
Tb1040 O1050 2.325 . S
Tb1040 O1053 2.303 . S
Tb1040 O1057 2.322 . S
Tb1040 O1058 2.349 . S
Tb1040 O1061 2.415 . S
Tb1040 O1062 2.399 . S
Tb1041 O1051 2.322 . S
Tb1041 O1052 2.349 . S
Tb1041 O1054 2.415 . S
Tb1041 O1055 2.399 . S
Tb1041 O1056 2.325 . S
Tb1041 O1059 2.303 . S
Tb1041 C1070 2.764 . S
C1042 O1058 1.261 . S
C1042 O1059 1.257 . S
C1043 C1046 1.358 . S
C1043 C1047 1.332 . S
C1043 C1049 1.504 . S
C1044 C1045 1.373 . S
C1044 C1048 1.308 . S
C1045 C1044 1.373 . S
C1045 C1046 1.429 . S
C1045 H1072 0.932 . S
C1046 C1043 1.358 . S
C1046 C1045 1.429 . S
C1046 H1073 0.930 . S
C1047 C1043 1.332 . S
C1047 C1048 1.394 . S
C1047 H1074 0.932 . S
C1048 C1044 1.308 . S
C1048 C1047 1.394 . S
C1048 H1075 0.929 . S
C1049 Tb1040 2.764 . S
C1049 C1043 1.504 . S
C1049 O1061 1.239 . S
C1049 O1062 1.263 . S
O1050 Tb1040 2.325 . S
O1050 C1060 1.236 . S
O1051 Tb1041 2.322 . S
O1051 C1060 1.257 . S
O1052 Tb1041 2.349 . S
O1052 C1063 1.261 . S
O1053 Tb1040 2.303 . S
O1053 C1063 1.257 . S
O1054 Tb1041 2.415 . S
O1054 C1070 1.239 . S
O1055 Tb1041 2.399 . S
O1055 C1070 1.263 . S
O1056 Tb1041 2.325 . S
O1056 C1071 1.236 . S
O1057 Tb1040 2.322 . S
O1057 C1071 1.257 . S
O1058 Tb1040 2.349 . S
O1058 C1042 1.261 . S
O1059 Tb1041 2.303 . S
O1059 C1042 1.257 . S
C1060 O1050 1.236 . S
C1060 O1051 1.257 . S
O1061 Tb1040 2.415 . S
O1061 C1049 1.239 . S
O1062 Tb1040 2.399 . S
O1062 C1049 1.263 . S
C1063 O1052 1.261 . S
C1063 O1053 1.257 . S
C1064 C1067 1.358 . S
C1064 C1068 1.332 . S
C1064 C1070 1.504 . S
C1065 C1066 1.373 . S
C1065 C1069 1.308 . S
C1066 C1065 1.373 . S
C1066 C1067 1.429 . S
C1066 H1076 0.932 . S
C1067 C1064 1.358 . S
C1067 C1066 1.429 . S
C1067 H1077 0.930 . S
C1068 C1064 1.332 . S
C1068 C1069 1.394 . S
C1068 H1078 0.932 . S
C1069 C1065 1.308 . S
C1069 C1068 1.394 . S
C1069 H1079 0.929 . S
C1070 Tb1041 2.764 . S
C1070 O1054 1.239 . S
C1070 O1055 1.263 . S
C1070 C1064 1.504 . S
C1071 O1056 1.236 . S
C1071 O1057 1.257 . S
H1072 C1045 0.932 . S
H1073 C1046 0.930 . S
H1074 C1047 0.932 . S
H1075 C1048 0.929 . S
H1076 C1066 0.932 . S
H1077 C1067 0.930 . S
H1078 C1068 0.932 . S
H1079 C1069 0.929 . S
Tb1080 C1089 2.764 . S
Tb1080 O1090 2.325 1_565 S
Tb1080 O1093 2.303 . S
Tb1080 O1097 2.322 . S
Tb1080 O1098 2.349 . S
Tb1080 O1101 2.415 . S
Tb1080 O1102 2.399 . S
Tb1081 O1091 2.322 . S
Tb1081 O1092 2.349 . S
Tb1081 O1094 2.415 . S
Tb1081 O1095 2.399 . S
Tb1081 O1096 2.325 1_545 S
Tb1081 O1099 2.303 . S
Tb1081 C1110 2.764 . S
C1082 O1098 1.261 . S
C1082 O1099 1.257 1_565 S
C1083 C1086 1.358 . S
C1083 C1087 1.332 . S
C1083 C1089 1.504 . S
C1084 C1085 1.373 . S
C1084 C1088 1.308 . S
C1085 C1084 1.373 . S
C1085 C1086 1.429 . S
C1085 H1112 0.932 . S
C1086 C1083 1.358 . S
C1086 C1085 1.429 . S
C1086 H1113 0.930 . S
C1087 C1083 1.332 . S
C1087 C1088 1.394 . S
C1087 H1114 0.932 . S
C1088 C1084 1.308 . S
C1088 C1087 1.394 . S
C1088 H1115 0.929 . S
C1089 Tb1080 2.764 . S
C1089 C1083 1.504 . S
C1089 O1101 1.239 . S
C1089 O1102 1.263 . S
O1090 Tb1080 2.325 1_545 S
O1090 C1100 1.236 . S
O1091 Tb1081 2.322 . S
O1091 C1100 1.257 . S
O1092 Tb1081 2.349 . S
O1092 C1103 1.261 1_545 S
O1093 Tb1080 2.303 . S
O1093 C1103 1.257 . S
O1094 Tb1081 2.415 . S
O1094 C1110 1.239 . S
O1095 Tb1081 2.399 . S
O1095 C1110 1.263 . S
O1096 Tb1081 2.325 1_565 S
O1096 C1111 1.236 . S
O1097 Tb1080 2.322 . S
O1097 C1111 1.257 . S
O1098 Tb1080 2.349 . S
O1098 C1082 1.261 . S
O1099 Tb1081 2.303 . S
O1099 C1082 1.257 1_545 S
C1100 O1090 1.236 . S
C1100 O1091 1.257 . S
O1101 Tb1080 2.415 . S
O1101 C1089 1.239 . S
O1102 Tb1080 2.399 . S
O1102 C1089 1.263 . S
C1103 O1092 1.261 1_565 S
C1103 O1093 1.257 . S
C1104 C1107 1.358 . S
C1104 C1108 1.332 . S
C1104 C1110 1.504 1_455 S
C1105 C1106 1.373 . S
C1105 C1109 1.308 . S
C1106 C1105 1.373 . S
C1106 C1107 1.429 . S
C1106 H1116 0.932 . S
C1107 C1104 1.358 . S
C1107 C1106 1.429 . S
C1107 H1117 0.930 . S
C1108 C1104 1.332 . S
C1108 C1109 1.394 . S
C1108 H1118 0.932 1_545 S
C1109 C1105 1.308 . S
C1109 C1108 1.394 . S
C1109 H1119 0.929 1_545 S
C1110 Tb1081 2.764 . S
C1110 O1094 1.239 . S
C1110 O1095 1.263 . S
C1110 C1104 1.504 1_655 S
C1111 O1096 1.236 . S
C1111 O1097 1.257 . S
H1112 C1085 0.932 . S
H1113 C1086 0.930 . S
H1114 C1087 0.932 . S
H1115 C1088 0.929 . S
H1116 C1106 0.932 . S
H1117 C1107 0.930 . S
H1118 C1108 0.932 1_565 S
H1119 C1109 0.929 1_565 S
Tb1120 C1129 2.764 . S
Tb1120 O1130 2.325 1_565 S
Tb1120 O1133 2.303 . S
Tb1120 O1137 2.322 . S
Tb1120 O1138 2.349 . S
Tb1120 O1141 2.415 . S
Tb1120 O1142 2.399 . S
Tb1121 O1131 2.322 . S
Tb1121 O1132 2.349 . S
Tb1121 O1134 2.415 . S
Tb1121 O1135 2.399 . S
Tb1121 O1136 2.325 1_545 S
Tb1121 O1139 2.303 . S
Tb1121 C1150 2.764 . S
C1122 O1138 1.261 1_545 S
C1122 O1139 1.257 . S
C1123 C1126 1.358 . S
C1123 C1127 1.332 . S
C1123 C1129 1.504 . S
C1124 C1125 1.373 . S
C1124 C1128 1.308 . S
C1125 C1124 1.373 . S
C1125 C1126 1.429 . S
C1125 H1152 0.932 . S
C1126 C1123 1.358 . S
C1126 C1125 1.429 . S
C1126 H1153 0.930 . S
C1127 C1123 1.332 . S
C1127 C1128 1.394 . S
C1127 H1154 0.932 1_565 S
C1128 C1124 1.308 . S
C1128 C1127 1.394 . S
C1128 H1155 0.929 1_565 S
C1129 Tb1120 2.764 . S
C1129 C1123 1.504 . S
C1129 O1141 1.239 . S
C1129 O1142 1.263 . S
O1130 Tb1120 2.325 1_545 S
O1130 C1140 1.236 . S
O1131 Tb1121 2.322 . S
O1131 C1140 1.257 . S
O1132 Tb1121 2.349 . S
O1132 C1143 1.261 . S
O1133 Tb1120 2.303 . S
O1133 C1143 1.257 1_565 S
O1134 Tb1121 2.415 . S
O1134 C1150 1.239 . S
O1135 Tb1121 2.399 . S
O1135 C1150 1.263 . S
O1136 Tb1121 2.325 1_565 S
O1136 C1151 1.236 . S
O1137 Tb1120 2.322 . S
O1137 C1151 1.257 . S
O1138 Tb1120 2.349 . S
O1138 C1122 1.261 1_565 S
O1139 Tb1121 2.303 . S
O1139 C1122 1.257 . S
C1140 O1130 1.236 . S
C1140 O1131 1.257 . S
O1141 Tb1120 2.415 . S
O1141 C1129 1.239 . S
O1142 Tb1120 2.399 . S
O1142 C1129 1.263 . S
C1143 O1132 1.261 . S
C1143 O1133 1.257 1_545 S
C1144 C1147 1.358 . S
C1144 C1148 1.332 . S
C1144 C1150 1.504 . S
C1145 C1146 1.373 . S
C1145 C1149 1.308 . S
C1146 C1145 1.373 . S
C1146 C1147 1.429 . S
C1146 H1156 0.932 . S
C1147 C1144 1.358 . S
C1147 C1146 1.429 . S
C1147 H1157 0.930 . S
C1148 C1144 1.332 . S
C1148 C1149 1.394 . S
C1148 H1158 0.932 . S
C1149 C1145 1.308 . S
C1149 C1148 1.394 . S
C1149 H1159 0.929 . S
C1150 Tb1121 2.764 . S
C1150 O1134 1.239 . S
C1150 O1135 1.263 . S
C1150 C1144 1.504 . S
C1151 O1136 1.236 . S
C1151 O1137 1.257 . S
H1152 C1125 0.932 . S
H1153 C1126 0.930 . S
H1154 C1127 0.932 1_545 S
H1155 C1128 0.929 1_545 S
H1156 C1146 0.932 . S
H1157 C1147 0.930 . S
H1158 C1148 0.932 . S
H1159 C1149 0.929 . S
Tb1160 C1169 2.764 . S
Tb1160 O1170 2.325 . S
Tb1160 O1173 2.303 . S
Tb1160 O1177 2.322 . S
Tb1160 O1178 2.349 . S
Tb1160 O1181 2.415 . S
Tb1160 O1182 2.399 . S
Tb1161 O1171 2.322 . S
Tb1161 O1172 2.349 . S
Tb1161 O1174 2.415 . S
Tb1161 O1175 2.399 . S
Tb1161 O1176 2.325 . S
Tb1161 O1179 2.303 . S
Tb1161 C1190 2.764 . S
C1162 O1178 1.261 . S
C1162 O1179 1.257 . S
C1163 C1166 1.358 . S
C1163 C1167 1.332 . S
C1163 C1169 1.504 1_655 S
C1164 C1165 1.373 . S
C1164 C1168 1.308 . S
C1165 C1164 1.373 . S
C1165 C1166 1.429 . S
C1165 H1192 0.932 . S
C1166 C1163 1.358 . S
C1166 C1165 1.429 . S
C1166 H1193 0.930 . S
C1167 C1163 1.332 . S
C1167 C1168 1.394 . S
C1167 H1194 0.932 . S
C1168 C1164 1.308 . S
C1168 C1167 1.394 . S
C1168 H1195 0.929 . S
C1169 Tb1160 2.764 . S
C1169 C1163 1.504 1_455 S
C1169 O1181 1.239 . S
C1169 O1182 1.263 . S
O1170 Tb1160 2.325 . S
O1170 C1180 1.236 . S
O1171 Tb1161 2.322 . S
O1171 C1180 1.257 . S
O1172 Tb1161 2.349 . S
O1172 C1183 1.261 . S
O1173 Tb1160 2.303 . S
O1173 C1183 1.257 . S
O1174 Tb1161 2.415 . S
O1174 C1190 1.239 . S
O1175 Tb1161 2.399 . S
O1175 C1190 1.263 . S
O1176 Tb1161 2.325 . S
O1176 C1191 1.236 . S
O1177 Tb1160 2.322 . S
O1177 C1191 1.257 . S
O1178 Tb1160 2.349 . S
O1178 C1162 1.261 . S
O1179 Tb1161 2.303 . S
O1179 C1162 1.257 . S
C1180 O1170 1.236 . S
C1180 O1171 1.257 . S
O1181 Tb1160 2.415 . S
O1181 C1169 1.239 . S
O1182 Tb1160 2.399 . S
O1182 C1169 1.263 . S
C1183 O1172 1.261 . S
C1183 O1173 1.257 . S
C1184 C1187 1.358 . S
C1184 C1188 1.332 . S
C1184 C1190 1.504 . S
C1185 C1186 1.373 . S
C1185 C1189 1.308 . S
C1186 C1185 1.373 . S
C1186 C1187 1.429 . S
C1186 H1196 0.932 . S
C1187 C1184 1.358 . S
C1187 C1186 1.429 . S
C1187 H1197 0.930 . S
C1188 C1184 1.332 . S
C1188 C1189 1.394 . S
C1188 H1198 0.932 . S
C1189 C1185 1.308 . S
C1189 C1188 1.394 . S
C1189 H1199 0.929 . S
C1190 Tb1161 2.764 . S
C1190 O1174 1.239 . S
C1190 O1175 1.263 . S
C1190 C1184 1.504 . S
C1191 O1176 1.236 . S
C1191 O1177 1.257 . S
H1192 C1165 0.932 . S
H1193 C1166 0.930 . S
H1194 C1167 0.932 . S
H1195 C1168 0.929 . S
H1196 C1186 0.932 . S
H1197 C1187 0.930 . S
H1198 C1188 0.932 . S
H1199 C1189 0.929 . S
Tb1200 C1209 2.764 . S
Tb1200 O1210 2.325 . S
Tb1200 O1213 2.303 . S
Tb1200 O1217 2.322 . S
Tb1200 O1218 2.349 . S
Tb1200 O1221 2.415 . S
Tb1200 O1222 2.399 . S
Tb1201 O1211 2.322 . S
Tb1201 O1212 2.349 . S
Tb1201 O1214 2.415 . S
Tb1201 O1215 2.399 . S
Tb1201 O1216 2.325 . S
Tb1201 O1219 2.303 . S
Tb1201 C1230 2.764 . S
C1202 O1218 1.261 . S
C1202 O1219 1.257 . S
C1203 C1206 1.358 . S
C1203 C1207 1.332 . S
C1203 C1209 1.504 . S
C1204 C1205 1.373 . S
C1204 C1208 1.308 . S
C1205 C1204 1.373 . S
C1205 C1206 1.429 . S
C1205 H1232 0.932 . S
C1206 C1203 1.358 . S
C1206 C1205 1.429 . S
C1206 H1233 0.930 . S
C1207 C1203 1.332 . S
C1207 C1208 1.394 . S
C1207 H1234 0.932 . S
C1208 C1204 1.308 . S
C1208 C1207 1.394 . S
C1208 H1235 0.929 . S
C1209 Tb1200 2.764 . S
C1209 C1203 1.504 . S
C1209 O1221 1.239 . S
C1209 O1222 1.263 . S
O1210 Tb1200 2.325 . S
O1210 C1220 1.236 . S
O1211 Tb1201 2.322 . S
O1211 C1220 1.257 . S
O1212 Tb1201 2.349 . S
O1212 C1223 1.261 . S
O1213 Tb1200 2.303 . S
O1213 C1223 1.257 . S
O1214 Tb1201 2.415 . S
O1214 C1230 1.239 . S
O1215 Tb1201 2.399 . S
O1215 C1230 1.263 . S
O1216 Tb1201 2.325 . S
O1216 C1231 1.236 . S
O1217 Tb1200 2.322 . S
O1217 C1231 1.257 . S
O1218 Tb1200 2.349 . S
O1218 C1202 1.261 . S
O1219 Tb1201 2.303 . S
O1219 C1202 1.257 . S
C1220 O1210 1.236 . S
C1220 O1211 1.257 . S
O1221 Tb1200 2.415 . S
O1221 C1209 1.239 . S
O1222 Tb1200 2.399 . S
O1222 C1209 1.263 . S
C1223 O1212 1.261 . S
C1223 O1213 1.257 . S
C1224 C1227 1.358 . S
C1224 C1228 1.332 . S
C1224 C1230 1.504 . S
C1225 C1226 1.373 . S
C1225 C1229 1.308 . S
C1226 C1225 1.373 . S
C1226 C1227 1.429 . S
C1226 H1236 0.932 . S
C1227 C1224 1.358 . S
C1227 C1226 1.429 . S
C1227 H1237 0.930 . S
C1228 C1224 1.332 . S
C1228 C1229 1.394 . S
C1228 H1238 0.932 . S
C1229 C1225 1.308 . S
C1229 C1228 1.394 . S
C1229 H1239 0.929 . S
C1230 Tb1201 2.764 . S
C1230 O1214 1.239 . S
C1230 O1215 1.263 . S
C1230 C1224 1.504 . S
C1231 O1216 1.236 . S
C1231 O1217 1.257 . S
H1232 C1205 0.932 . S
H1233 C1206 0.930 . S
H1234 C1207 0.932 . S
H1235 C1208 0.929 . S
H1236 C1226 0.932 . S
H1237 C1227 0.930 . S
H1238 C1228 0.932 . S
H1239 C1229 0.929 . S
Tb1240 C1249 2.764 . S
Tb1240 O1250 2.325 1_565 S
Tb1240 O1253 2.303 . S
Tb1240 O1257 2.322 . S
Tb1240 O1258 2.349 . S
Tb1240 O1261 2.415 . S
Tb1240 O1262 2.399 . S
Tb1241 O1251 2.322 . S
Tb1241 O1252 2.349 . S
Tb1241 O1254 2.415 . S
Tb1241 O1255 2.399 . S
Tb1241 O1256 2.325 1_545 S
Tb1241 O1259 2.303 . S
Tb1241 C1270 2.764 . S
C1242 O1258 1.261 1_545 S
C1242 O1259 1.257 . S
C1243 C1246 1.358 . S
C1243 C1247 1.332 . S
C1243 C1249 1.504 1_655 S
C1244 C1245 1.373 . S
C1244 C1248 1.308 . S
C1245 C1244 1.373 . S
C1245 C1246 1.429 . S
C1245 H1272 0.932 . S
C1246 C1243 1.358 . S
C1246 C1245 1.429 . S
C1246 H1273 0.930 . S
C1247 C1243 1.332 . S
C1247 C1248 1.394 . S
C1247 H1274 0.932 1_565 S
C1248 C1244 1.308 . S
C1248 C1247 1.394 . S
C1248 H1275 0.929 1_565 S
C1249 Tb1240 2.764 . S
C1249 C1243 1.504 1_455 S
C1249 O1261 1.239 . S
C1249 O1262 1.263 . S
O1250 Tb1240 2.325 1_545 S
O1250 C1260 1.236 . S
O1251 Tb1241 2.322 . S
O1251 C1260 1.257 . S
O1252 Tb1241 2.349 . S
O1252 C1263 1.261 . S
O1253 Tb1240 2.303 . S
O1253 C1263 1.257 1_565 S
O1254 Tb1241 2.415 . S
O1254 C1270 1.239 . S
O1255 Tb1241 2.399 . S
O1255 C1270 1.263 . S
O1256 Tb1241 2.325 1_565 S
O1256 C1271 1.236 . S
O1257 Tb1240 2.322 . S
O1257 C1271 1.257 . S
O1258 Tb1240 2.349 . S
O1258 C1242 1.261 1_565 S
O1259 Tb1241 2.303 . S
O1259 C1242 1.257 . S
C1260 O1250 1.236 . S
C1260 O1251 1.257 . S
O1261 Tb1240 2.415 . S
O1261 C1249 1.239 . S
O1262 Tb1240 2.399 . S
O1262 C1249 1.263 . S
C1263 O1252 1.261 . S
C1263 O1253 1.257 1_545 S
C1264 C1267 1.358 . S
C1264 C1268 1.332 . S
C1264 C1270 1.504 . S
C1265 C1266 1.373 . S
C1265 C1269 1.308 . S
C1266 C1265 1.373 . S
C1266 C1267 1.429 . S
C1266 H1276 0.932 . S
C1267 C1264 1.358 . S
C1267 C1266 1.429 . S
C1267 H1277 0.930 . S
C1268 C1264 1.332 . S
C1268 C1269 1.394 . S
C1268 H1278 0.932 . S
C1269 C1265 1.308 . S
C1269 C1268 1.394 . S
C1269 H1279 0.929 . S
C1270 Tb1241 2.764 . S
C1270 O1254 1.239 . S
C1270 O1255 1.263 . S
C1270 C1264 1.504 . S
C1271 O1256 1.236 . S
C1271 O1257 1.257 . S
H1272 C1245 0.932 . S
H1273 C1246 0.930 . S
H1274 C1247 0.932 1_545 S
H1275 C1248 0.929 1_545 S
H1276 C1266 0.932 . S
H1277 C1267 0.930 . S
H1278 C1268 0.932 . S
H1279 C1269 0.929 . S
C31 C1031 2.720 . S
C991 C71 2.720 . S
C1111 C111 2.720 . S
C151 C1071 2.720 . S
C180 C1180 2.720 . S
C220 C1140 2.720 . S
C260 C1260 2.720 . S
C1220 C300 2.720 . S
C351 C711 2.720 . S
C391 C671 2.720 . S
C431 C791 2.720 . S
C751 C471 2.720 . S
C500 C860 2.720 . S
C540 C820 2.720 . S
C940 C580 2.720 . S
C620 C900 2.720 . S
C23 C143 2.718 . S
C63 C103 2.718 . S
C282 C162 2.718 . S
C242 C202 2.718 . S
C343 C463 2.718 . S
C383 C423 2.718 . S
C482 C602 2.718 . S
C562 C522 2.718 . S
C663 C783 2.718 . S
C703 C743 2.718 . S
C922 C802 2.718 . S
C842 C882 2.718 . S
C1103 C983 2.718 . S
C1023 C1063 2.718 . S
C1242 C1122 2.718 . S
C1202 C1162 2.718 . S
C60 C20 1.449 . S
C100 C140 1.449 . S
C231 C191 1.449 . S
C311 C271 1.449 . S
C340 C380 1.447 . S
C420 C460 1.447 . S
C551 C511 1.447 . S
C591 C631 1.447 . S
C660 C700 1.449 . S
C780 C740 1.449 . S
C831 C871 1.449 . S
C911 C951 1.449 . S
C980 C1020 1.447 . S
C1060 C1100 1.447 . S
C1191 C1151 1.447 . S
C1231 C1271 1.447 . S
C25 C4 2.846 . S
C65 C44 2.846 . S
C105 C84 2.846 . S
C124 C145 2.846 . S
C185 C164 2.846 . S
C204 C225 2.846 . S
C265 C244 2.846 . S
C305 C284 2.846 . S
C324 C345 2.846 1_565 S
C385 C364 2.846 . S
C425 C404 2.846 . S
C444 C465 2.846 1_565 S
C505 C484 2.846 1_545 S
C524 C545 2.846 . S
C564 C585 2.846 . S
C625 C604 2.846 1_545 S
C665 C644 2.846 1_455 S
C684 C705 2.846 . S
C724 C745 2.846 1_655 S
C785 C764 2.846 . S
C804 C825 2.846 1_655 S
C844 C865 2.846 . S
C905 C884 2.846 1_455 S
C924 C945 2.846 . S
C964 C985 2.846 1_665 S
C1025 C1004 2.846 . S
C1044 C1065 2.846 1_655 S
C1084 C1105 2.846 1_565 S
C1124 C1145 2.846 1_665 S
C1164 C1185 2.846 . S
C1225 C1204 2.846 1_455 S
C1265 C1244 2.846 1_545 S
C2 C183 1.555 1_454 S
C1183 C42 1.555 1_556 S
C583 C82 1.555 1_655 S
C122 C943 1.555 . S
C223 C1002 1.555 1_556 S
C263 C402 1.555 1_655 S
C303 C762 1.555 . S
C322 C503 1.555 1_465 S
C863 C362 1.555 . S
C1263 C442 1.555 1_545 S
C543 C682 1.555 . S
C1082 C623 1.555 1_565 S
C642 C823 1.555 . S
C1223 C722 1.555 . S
C903 C1042 1.555 . S
C962 C1143 1.555 1_564 S
