# Generated by pormake.
# Topology umd, (4)-cn, num edge types: 1
# Building blocks:
#     Node 0, Type 0, BuildingBlock: NAWXER_clean_sbu_0, # of connection points: 4
#     Node 1, Type 0, BuildingBlock: NAWXER_clean_sbu_0, # of connection points: 4
#     Node 2, Type 0, BuildingBlock: NAWXER_clean_sbu_0, # of connection points: 4
#     Node 3, Type 0, BuildingBlock: NAWXER_clean_sbu_0, # of connection points: 4
#     Node 4, Type 0, BuildingBlock: NAWXER_clean_sbu_0, # of connection points: 4
#     Node 5, Type 0, BuildingBlock: NAWXER_clean_sbu_0, # of connection points: 4
#     Node 6, Type 0, BuildingBlock: NAWXER_clean_sbu_0, # of connection points: 4
#     Node 7, Type 0, BuildingBlock: NAWXER_clean_sbu_0, # of connection points: 4
#     Node 8, Type 0, BuildingBlock: NAWXER_clean_sbu_0, # of connection points: 4
#     Node 9, Type 0, BuildingBlock: NAWXER_clean_sbu_0, # of connection points: 4
#     Node 10, Type 0, BuildingBlock: NAWXER_clean_sbu_0, # of connection points: 4
#     Node 11, Type 0, BuildingBlock: NAWXER_clean_sbu_0, # of connection points: 4
#     Node 12, Type 0, BuildingBlock: NAWXER_clean_sbu_0, # of connection points: 4
#     Node 13, Type 0, BuildingBlock: NAWXER_clean_sbu_0, # of connection points: 4
#     Node 14, Type 0, BuildingBlock: NAWXER_clean_sbu_0, # of connection points: 4
#     Node 15, Type 0, BuildingBlock: NAWXER_clean_sbu_0, # of connection points: 4
#     Edge 16, Type (0, 0), BuildingBlock: XUDNAN_clean_linker_2, # of connection points: 2
#     Edge 17, Type (0, 0), BuildingBlock: XUDNAN_clean_linker_2, # of connection points: 2
#     Edge 18, Type (0, 0), BuildingBlock: XUDNAN_clean_linker_2, # of connection points: 2
#     Edge 19, Type (0, 0), BuildingBlock: XUDNAN_clean_linker_2, # of connection points: 2
#     Edge 20, Type (0, 0), BuildingBlock: XUDNAN_clean_linker_2, # of connection points: 2
#     Edge 21, Type (0, 0), BuildingBlock: XUDNAN_clean_linker_2, # of connection points: 2
#     Edge 22, Type (0, 0), BuildingBlock: XUDNAN_clean_linker_2, # of connection points: 2
#     Edge 23, Type (0, 0), BuildingBlock: XUDNAN_clean_linker_2, # of connection points: 2
#     Edge 24, Type (0, 0), BuildingBlock: XUDNAN_clean_linker_2, # of connection points: 2
#     Edge 25, Type (0, 0), BuildingBlock: XUDNAN_clean_linker_2, # of connection points: 2
#     Edge 26, Type (0, 0), BuildingBlock: XUDNAN_clean_linker_2, # of connection points: 2
#     Edge 27, Type (0, 0), BuildingBlock: XUDNAN_clean_linker_2, # of connection points: 2
#     Edge 28, Type (0, 0), BuildingBlock: XUDNAN_clean_linker_2, # of connection points: 2
#     Edge 29, Type (0, 0), BuildingBlock: XUDNAN_clean_linker_2, # of connection points: 2
#     Edge 30, Type (0, 0), BuildingBlock: XUDNAN_clean_linker_2, # of connection points: 2
#     Edge 31, Type (0, 0), BuildingBlock: XUDNAN_clean_linker_2, # of connection points: 2
#     Edge 32, Type (0, 0), BuildingBlock: XUDNAN_clean_linker_2, # of connection points: 2
#     Edge 33, Type (0, 0), BuildingBlock: XUDNAN_clean_linker_2, # of connection points: 2
#     Edge 34, Type (0, 0), BuildingBlock: XUDNAN_clean_linker_2, # of connection points: 2
#     Edge 35, Type (0, 0), BuildingBlock: XUDNAN_clean_linker_2, # of connection points: 2
#     Edge 36, Type (0, 0), BuildingBlock: XUDNAN_clean_linker_2, # of connection points: 2
#     Edge 37, Type (0, 0), BuildingBlock: XUDNAN_clean_linker_2, # of connection points: 2
#     Edge 38, Type (0, 0), BuildingBlock: XUDNAN_clean_linker_2, # of connection points: 2
#     Edge 39, Type (0, 0), BuildingBlock: XUDNAN_clean_linker_2, # of connection points: 2
#     Edge 40, Type (0, 0), BuildingBlock: XUDNAN_clean_linker_2, # of connection points: 2
#     Edge 41, Type (0, 0), BuildingBlock: XUDNAN_clean_linker_2, # of connection points: 2
#     Edge 42, Type (0, 0), BuildingBlock: XUDNAN_clean_linker_2, # of connection points: 2
#     Edge 43, Type (0, 0), BuildingBlock: XUDNAN_clean_linker_2, # of connection points: 2
#     Edge 44, Type (0, 0), BuildingBlock: XUDNAN_clean_linker_2, # of connection points: 2
#     Edge 45, Type (0, 0), BuildingBlock: XUDNAN_clean_linker_2, # of connection points: 2
#     Edge 46, Type (0, 0), BuildingBlock: XUDNAN_clean_linker_2, # of connection points: 2
#     Edge 47, Type (0, 0), BuildingBlock: XUDNAN_clean_linker_2, # of connection points: 2
# Relax obj value: 0.021
# Max RMSD: 0.190
# Mean RMSD: 0.190
data_MOF--net-umd--node1-NAWXER_clean_sbu_0--edge1-XUDNAN_clean_linker_2
_symmetry_space_group_name_H-M    P1
_symmetry_Int_Tables_number       1
_symmetry_cell_setting            triclinic
loop_
_symmetry_equiv_pos_as_xyz
'x, y, z'
_cell_length_a     40.157694
_cell_length_b     40.1474
_cell_length_c     57.592088
_cell_angle_alpha  89.998829
_cell_angle_beta   90.060503
_cell_angle_gamma 89.720483
loop_
_atom_site_label
_atom_site_type_symbol
_atom_site_fract_x
_atom_site_fract_y
_atom_site_fract_z
_atom_type_partial_charge
C0 C 0.11728 0.46061 0.14299 0.0
C1 C 0.21878 0.39304 0.15245 0.0
O2 O 0.11865 0.43035 0.14952 0.0
Zn3 Zn 0.16726 0.42541 0.1476 0.0
O4 O 0.14428 0.47574 0.13783 0.0
Zn5 Zn 0.1965 0.46676 0.13634 0.0
O6 O 0.2061 0.47269 0.10347 0.0
O7 O 0.17579 0.42827 0.1108 0.0
O8 O 0.22411 0.42293 0.14555 0.0
O9 O 0.18901 0.38325 0.1555 0.0
O10 O 0.18436 0.45821 0.17495 0.0
O11 O 0.21253 0.49901 0.15849 0.0
C12 C 0.19066 0.44718 0.09617 0.0
C13 C 0.20107 0.48529 0.1767 0.0
C14 C 0.54227 0.20207 0.59944 0.0
C15 C 0.54449 0.19815 0.68393 0.0
O16 O 0.52026 0.21171 0.61379 0.0
Zn17 Zn 0.54327 0.19873 0.64167 0.0
O18 O 0.56913 0.18845 0.60705 0.0
Zn19 Zn 0.59024 0.17631 0.64062 0.0
O20 O 0.59512 0.12894 0.63962 0.0
O21 O 0.54257 0.14479 0.64009 0.0
O22 O 0.57137 0.18622 0.67514 0.0
O23 O 0.52114 0.2078 0.67064 0.0
O24 O 0.58556 0.23278 0.64202 0.0
O25 O 0.63056 0.2011 0.64042 0.0
C26 C 0.5645 0.12143 0.63943 0.0
C27 C 0.61746 0.2299 0.64139 0.0
C28 C 0.81815 0.52124 0.18181 0.0
C29 C 0.80688 0.54149 0.09977 0.0
O30 O 0.80482 0.50412 0.1659 0.0
Zn31 Zn 0.81287 0.53363 0.14109 0.0
O32 O 0.83016 0.55007 0.177 0.0
Zn33 Zn 0.83514 0.57934 0.145 0.0
O34 O 0.81016 0.61923 0.15079 0.0
O35 O 0.77845 0.57505 0.14677 0.0
O36 O 0.82105 0.56665 0.10934 0.0
O37 O 0.79869 0.5168 0.11215 0.0
O38 O 0.86721 0.53286 0.13873 0.0
O39 O 0.88205 0.58528 0.14273 0.0
C40 C 0.78133 0.60659 0.15 0.0
C41 C 0.89014 0.55501 0.13974 0.0
C42 C 0.45343 0.81634 0.60132 0.0
C43 C 0.45834 0.82694 0.68544 0.0
O44 O 0.47238 0.80121 0.61555 0.0
Zn45 Zn 0.45567 0.82125 0.64347 0.0
O46 O 0.43199 0.83744 0.60897 0.0
Zn47 Zn 0.41684 0.85678 0.64227 0.0
O48 O 0.42621 0.90383 0.63958 0.0
O49 O 0.47129 0.87228 0.64007 0.0
O50 O 0.4355 0.84527 0.67641 0.0
O51 O 0.4764 0.80876 0.67248 0.0
O52 O 0.40603 0.80075 0.64586 0.0
O53 O 0.37113 0.84327 0.64429 0.0
C54 C 0.45774 0.90124 0.63893 0.0
C55 C 0.37607 0.81208 0.64591 0.0
C56 C 0.20602 0.54899 0.34142 0.0
C57 C 0.21418 0.55375 0.42619 0.0
O58 O 0.22277 0.53005 0.35475 0.0
Zn59 Zn 0.20998 0.55114 0.38376 0.0
O60 O 0.18766 0.572 0.35018 0.0
Zn61 Zn 0.17472 0.58995 0.38438 0.0
O62 O 0.1875 0.63537 0.38213 0.0
O63 O 0.23044 0.60081 0.38076 0.0
O64 O 0.19321 0.57516 0.41826 0.0
O65 O 0.22972 0.53498 0.41207 0.0
O66 O 0.15896 0.5359 0.38734 0.0
O67 O 0.12774 0.58122 0.3864 0.0
C68 C 0.21865 0.63059 0.38024 0.0
C69 C 0.13013 0.54978 0.38801 0.0
C70 C 0.44253 0.19729 0.92872 0.0
C71 C 0.47895 0.20205 0.84809 0.0
O72 O 0.46588 0.2145 0.92005 0.0
Zn73 Zn 0.45988 0.20031 0.88838 0.0
O74 O 0.42481 0.17878 0.9154 0.0
Zn75 Zn 0.42304 0.16614 0.87887 0.0
O76 O 0.43057 0.11887 0.87927 0.0
O77 O 0.47397 0.14819 0.89057 0.0
O78 O 0.45393 0.18268 0.85065 0.0
O79 O 0.49063 0.21727 0.86559 0.0
O80 O 0.41219 0.22256 0.87896 0.0
O81 O 0.37993 0.18033 0.86954 0.0
C82 C 0.46034 0.11986 0.88663 0.0
C83 C 0.38395 0.21144 0.87197 0.0
C84 C 0.82641 0.45857 0.42952 0.0
C85 C 0.83741 0.45689 0.34575 0.0
O86 O 0.81489 0.4786 0.41448 0.0
Zn87 Zn 0.8322 0.45648 0.38755 0.0
O88 O 0.84319 0.43305 0.42285 0.0
Zn89 Zn 0.85929 0.41294 0.38998 0.0
O90 O 0.90575 0.41121 0.393 0.0
O91 O 0.88645 0.46258 0.39103 0.0
O92 O 0.85149 0.43135 0.355 0.0
O93 O 0.82337 0.47841 0.3586 0.0
O94 O 0.80278 0.41014 0.38502 0.0
O95 O 0.84058 0.37055 0.38897 0.0
C96 C 0.91115 0.44222 0.39299 0.0
C97 C 0.81055 0.37899 0.38575 0.0
C98 C 0.53023 0.82462 0.84838 0.0
C99 C 0.54942 0.81008 0.93028 0.0
O100 O 0.5145 0.80835 0.8636 0.0
Zn101 Zn 0.54343 0.81668 0.88874 0.0
O102 O 0.5576 0.83917 0.85384 0.0
Zn103 Zn 0.58589 0.84401 0.88643 0.0
O104 O 0.62769 0.82511 0.87973 0.0
O105 O 0.58835 0.78724 0.88098 0.0
O106 O 0.57323 0.82748 0.92168 0.0
O107 O 0.52742 0.79849 0.91683 0.0
O108 O 0.53751 0.87112 0.89361 0.0
O109 O 0.58863 0.8904 0.8904 0.0
C110 C 0.61906 0.79502 0.87789 0.0
C111 C 0.55794 0.89574 0.89382 0.0
C112 C 0.79323 0.5477 0.92977 0.0
C113 C 0.80118 0.52669 0.84741 0.0
O114 O 0.81418 0.56789 0.92057 0.0
Zn115 Zn 0.83158 0.57742 0.88526 0.0
O116 O 0.7775 0.52757 0.9169 0.0
Zn117 Zn 0.79653 0.53979 0.88818 0.0
O118 O 0.84826 0.52453 0.89183 0.0
O119 O 0.87873 0.56978 0.88799 0.0
O120 O 0.7826 0.51347 0.86258 0.0
O121 O 0.82028 0.55092 0.85316 0.0
O122 O 0.81806 0.62215 0.87876 0.0
O123 O 0.77526 0.58829 0.88141 0.0
C124 C 0.87694 0.53855 0.89121 0.0
C125 C 0.78686 0.6176 0.87808 0.0
C126 C 0.47741 0.83168 0.34949 0.0
C127 C 0.45427 0.81769 0.43091 0.0
O128 O 0.44989 0.84669 0.35426 0.0
Zn129 Zn 0.4208 0.85311 0.38629 0.0
O130 O 0.49276 0.8161 0.36534 0.0
Zn131 Zn 0.46306 0.82548 0.38984 0.0
O132 O 0.41802 0.79668 0.38142 0.0
O133 O 0.37921 0.83539 0.37874 0.0
O134 O 0.47756 0.8068 0.4182 0.0
O135 O 0.43103 0.83553 0.42175 0.0
O136 O 0.41816 0.89939 0.39 0.0
O137 O 0.46904 0.87981 0.39472 0.0
C138 C 0.38755 0.80507 0.37754 0.0
C139 C 0.44858 0.90459 0.39424 0.0
C140 C 0.17752 0.43555 0.92538 0.0
C141 C 0.17992 0.46115 0.84223 0.0
O142 O 0.16281 0.41351 0.91297 0.0
Zn143 Zn 0.15113 0.40574 0.87687 0.0
O144 O 0.18977 0.46103 0.91553 0.0
Zn145 Zn 0.177 0.44929 0.88394 0.0
O146 O 0.12272 0.45423 0.8851 0.0
O147 O 0.10418 0.40434 0.87617 0.0
O148 O 0.18957 0.47947 0.85887 0.0
O149 O 0.16562 0.4334 0.84662 0.0
O150 O 0.17109 0.36441 0.87076 0.0
O151 O 0.20778 0.40424 0.87703 0.0
C152 C 0.09826 0.43423 0.8818 0.0
C153 C 0.20115 0.37369 0.87203 0.0
C154 C 0.54912 0.21023 0.4288 0.0
C155 C 0.54996 0.20419 0.34436 0.0
O156 O 0.57123 0.18956 0.42144 0.0
Zn157 Zn 0.58845 0.17187 0.38793 0.0
O158 O 0.53147 0.22619 0.41424 0.0
Zn159 Zn 0.55003 0.20694 0.3866 0.0
O160 O 0.53454 0.15544 0.38948 0.0
O161 O 0.58034 0.12495 0.3893 0.0
O162 O 0.53041 0.22044 0.35749 0.0
O163 O 0.57261 0.18556 0.35332 0.0
O164 O 0.63374 0.18404 0.38758 0.0
O165 O 0.60023 0.22764 0.38527 0.0
C166 C 0.54886 0.12678 0.3903 0.0
C167 C 0.62982 0.21528 0.38569 0.0
C168 C 0.83251 0.4657 0.68388 0.0
C169 C 0.83086 0.46808 0.59972 0.0
O170 O 0.84285 0.43808 0.67522 0.0
Zn171 Zn 0.85272 0.41849 0.64099 0.0
O172 O 0.82522 0.48982 0.67055 0.0
Zn173 Zn 0.83349 0.46709 0.64179 0.0
O174 O 0.79666 0.42732 0.64179 0.0
O175 O 0.82488 0.38004 0.64048 0.0
O176 O 0.82262 0.49087 0.6139 0.0
O177 O 0.84245 0.44038 0.60748 0.0
O178 O 0.89997 0.41063 0.64052 0.0
O179 O 0.88718 0.46402 0.64068 0.0
C180 C 0.79713 0.39531 0.6412 0.0
C181 C 0.90924 0.44078 0.64027 0.0
C182 C 0.61539 0.78774 0.14542 0.0
C183 C 0.56685 0.89937 0.14013 0.0
O184 O 0.5834 0.78715 0.1454 0.0
Zn185 Zn 0.54291 0.82311 0.14315 0.0
O186 O 0.63021 0.81553 0.14379 0.0
Zn187 Zn 0.59111 0.84339 0.1421 0.0
O188 O 0.56999 0.83741 0.17622 0.0
O189 O 0.51948 0.81669 0.17205 0.0
O190 O 0.59732 0.89074 0.14007 0.0
O191 O 0.54433 0.87685 0.14108 0.0
O192 O 0.52081 0.81034 0.1149 0.0
O193 O 0.57078 0.83096 0.10869 0.0
C194 C 0.54261 0.82722 0.18516 0.0
C195 C 0.54373 0.81838 0.10083 0.0
C196 C 0.21428 0.55273 0.59757 0.0
C197 C 0.21024 0.5371 0.68108 0.0
O198 O 0.19199 0.57213 0.60634 0.0
Zn199 Zn 0.17474 0.58285 0.64191 0.0
O200 O 0.2317 0.53478 0.61104 0.0
Zn201 Zn 0.21235 0.54824 0.63961 0.0
O202 O 0.16152 0.52856 0.63732 0.0
O203 O 0.1286 0.5725 0.63994 0.0
O204 O 0.22972 0.52536 0.66582 0.0
O205 O 0.18853 0.55915 0.67508 0.0
O206 O 0.18371 0.62901 0.64628 0.0
O207 O 0.22964 0.59923 0.64382 0.0
C208 C 0.13204 0.54124 0.63782 0.0
C209 C 0.21521 0.62766 0.64615 0.0
C210 C 0.4663 0.12389 0.14534 0.0
C211 C 0.39503 0.22286 0.15525 0.0
O212 O 0.48049 0.15151 0.14049 0.0
Zn213 Zn 0.46958 0.2034 0.13948 0.0
O214 O 0.43593 0.12404 0.15166 0.0
Zn215 Zn 0.42918 0.17248 0.1502 0.0
O216 O 0.43197 0.18201 0.11358 0.0
O217 O 0.4753 0.21417 0.10695 0.0
O218 O 0.38623 0.19272 0.1581 0.0
O219 O 0.4248 0.22928 0.14863 0.0
O220 O 0.50118 0.22005 0.16175 0.0
O221 O 0.46131 0.18999 0.17773 0.0
C222 C 0.45041 0.19807 0.09931 0.0
C223 C 0.48782 0.20753 0.17973 0.0
H224 H 0.05243 0.43723 0.14778 0.0
H225 H 0.10986 0.52675 0.13454 0.0
H226 H 0.05827 0.55928 0.13144 0.0
H227 H 0.98485 0.45724 0.10803 0.0
H228 H 0.95271 0.44077 0.12653 0.0
H229 H 0.99423 0.42362 0.12778 0.0
H230 H 0.99655 0.43532 0.17197 0.0
H231 H 0.95502 0.45241 0.17087 0.0
H232 H 0.98865 0.47693 0.18246 0.0
H233 H 1.00174 0.58295 0.13044 0.0
H234 H 0.94201 0.59664 0.13151 0.0
H235 H 0.9191 0.49266 0.14454 0.0
C236 C 0.05408 0.46365 0.14424 0.0
C237 C 0.08536 0.47931 0.14138 0.0
C238 C 0.08637 0.51399 0.13673 0.0
C239 C 0.05714 0.53282 0.13492 0.0
C240 C 0.02686 0.51675 0.13771 0.0
C241 C 0.02491 0.48302 0.14224 0.0
C242 C 0.98878 0.47234 0.14451 0.0
C243 C 0.97961 0.44699 0.12558 0.0
C244 C 0.98185 0.45843 0.16891 0.0
C245 C 0.971 0.50541 0.14069 0.0
C246 C 0.99362 0.53059 0.13682 0.0
C247 C 0.9837 0.56347 0.13336 0.0
C248 C 0.94967 0.57099 0.13402 0.0
C249 C 0.92582 0.54576 0.13802 0.0
C250 C 0.9367 0.51244 0.14121 0.0
H251 H 0.43853 0.96734 0.63977 0.0
H252 H 0.52546 0.90287 0.63506 0.0
H253 H 0.56173 0.95211 0.63405 0.0
H254 H 0.46928 0.03232 0.60155 0.0
H255 H 0.4514 0.06568 0.61845 0.0
H256 H 0.43193 0.02534 0.61816 0.0
H257 H 0.4354 0.02295 0.66306 0.0
H258 H 0.45495 0.06322 0.66348 0.0
H259 H 0.47516 0.02814 0.67714 0.0
H260 H 0.58883 0.0078 0.63455 0.0
H261 H 0.60514 0.06683 0.63611 0.0
H262 H 0.50095 0.09578 0.64047 0.0
C263 C 0.46516 0.96358 0.63836 0.0
C264 C 0.47909 0.93117 0.63747 0.0
C265 C 0.51413 0.92739 0.63577 0.0
C266 C 0.53499 0.95522 0.63517 0.0
C267 C 0.52051 0.98674 0.63626 0.0
C268 C 0.48644 0.99116 0.63777 0.0
C269 C 0.47744 0.02785 0.63908 0.0
C270 C 0.45626 0.03841 0.61805 0.0
C271 C 0.45969 0.03601 0.66206 0.0
C272 C 0.51181 0.04327 0.63821 0.0
C273 C 0.53625 0.01906 0.63655 0.0
C274 C 0.56993 0.02702 0.63577 0.0
C275 C 0.57893 0.06066 0.6367 0.0
C276 C 0.55436 0.08602 0.63839 0.0
C277 C 0.52034 0.07705 0.63912 0.0
H278 H 0.06428 0.56882 0.38396 0.0
H279 H 0.12823 0.48368 0.39848 0.0
H280 H 0.07885 0.44828 0.40297 0.0
H281 H 0.99785 0.54681 0.42413 0.0
H282 H 0.96503 0.56061 0.40499 0.0
H283 H 0.00533 0.5801 0.40382 0.0
H284 H 0.00928 0.56683 0.35988 0.0
H285 H 0.969 0.54735 0.36091 0.0
H286 H 1.00448 0.52443 0.35015 0.0
H287 H 0.02391 0.42176 0.40492 0.0
H288 H 0.96548 0.40448 0.40328 0.0
H289 H 0.93558 0.50609 0.38714 0.0
C290 C 0.06785 0.54278 0.38824 0.0
C291 C 0.10015 0.52903 0.39091 0.0
C292 C 0.10379 0.49478 0.39631 0.0
C293 C 0.07589 0.47447 0.39898 0.0
C294 C 0.04451 0.48872 0.39616 0.0
C295 C 0.04019 0.522 0.39086 0.0
C296 C 1.00353 0.53053 0.388 0.0
C297 C 0.99228 0.55602 0.40633 0.0
C298 C 0.99615 0.54301 0.36326 0.0
C299 C 0.98807 0.4967 0.39231 0.0
C300 C 0.0123 0.47312 0.39712 0.0
C301 C 1.00465 0.43995 0.40124 0.0
C302 C 0.9713 0.43042 0.40022 0.0
C303 C 0.94587 0.45392 0.39504 0.0
C304 C 0.95441 0.48761 0.39126 0.0
H305 H 0.49616 0.92334 0.88471 0.0
H306 H 0.59484 0.94652 0.91078 0.0
H307 H 0.57936 0.00574 0.91357 0.0
H308 H 0.4885 0.99415 0.84899 0.0
H309 H 0.44477 1.00105 0.85428 0.0
H310 H 0.462 0.95969 0.85652 0.0
H311 H 0.43964 0.95472 0.89855 0.0
H312 H 0.42209 0.99601 0.89638 0.0
H313 H 0.45044 0.98602 0.91967 0.0
H314 H 0.55538 0.06243 0.91101 0.0
H315 H 0.52342 0.11396 0.90396 0.0
H316 H 0.44009 0.05527 0.879 0.0
C317 C 0.51417 0.94083 0.89149 0.0
C318 C 0.54664 0.93036 0.89762 0.0
C319 C 0.56983 0.95403 0.90595 0.0
C320 C 0.56127 0.98772 0.90766 0.0
C321 C 0.52942 0.99745 0.90094 0.0
C322 C 0.50611 0.97482 0.89311 0.0
C323 C 0.4743 0.99242 0.88574 0.0
C324 C 0.46698 0.98647 0.85985 0.0
C325 C 0.44488 0.98165 0.901 0.0
C326 C 0.48371 0.02839 0.89032 0.0
C327 C 0.51555 0.0306 0.89923 0.0
C328 C 0.53028 0.06109 0.90423 0.0
C329 C 0.51194 0.09023 0.90008 0.0
C330 C 0.47922 0.08871 0.89095 0.0
C331 C 0.46497 0.05728 0.88608 0.0
H332 H 0.94229 0.5591 0.88847 0.0
H333 H 0.8808 0.47131 0.89761 0.0
H334 H 0.93108 0.43606 0.89779 0.0
H335 H 1.0004 0.52265 0.84989 0.0
H336 H 0.03628 0.54362 0.86161 0.0
H337 H 0.99573 0.5627 0.86371 0.0
H338 H 1.00236 0.56727 0.90834 0.0
H339 H 0.04305 0.54834 0.90637 0.0
H340 H 0.01189 0.53043 0.92503 0.0
H341 H 0.98656 0.40989 0.89418 0.0
H342 H 0.04517 0.39393 0.88876 0.0
H343 H 0.07224 0.49821 0.88282 0.0
C344 C 0.93944 0.53252 0.89082 0.0
C345 C 0.90753 0.518 0.89304 0.0
C346 C 0.9049 0.48307 0.89591 0.0
C347 C 0.93333 0.46279 0.89604 0.0
C348 C 0.96427 0.47779 0.89345 0.0
C349 C 0.96765 0.51183 0.89107 0.0
C350 C 1.00393 0.52129 0.8879 0.0
C351 C 0.00939 0.53858 0.86438 0.0
C352 C 0.01602 0.54313 0.90812 0.0
C353 C 0.02026 0.48715 0.88846 0.0
C354 C 0.99678 0.46252 0.8917 0.0
C355 C 1.00525 0.42892 0.89187 0.0
C356 C 0.03864 0.42014 0.88865 0.0
C357 C 0.06332 0.44483 0.88539 0.0
C358 C 0.05398 0.47883 0.88548 0.0
H359 H 0.56991 0.06162 0.38678 0.0
H360 H 0.48248 0.12289 0.39999 0.0
H361 H 0.44887 0.07226 0.40512 0.0
H362 H 0.52808 0.99948 0.35361 0.0
H363 H 0.55236 0.96521 0.36485 0.0
H364 H 0.57017 0.00622 0.3634 0.0
H365 H 0.58336 1.0037 0.40741 0.0
H366 H 0.5654 0.96271 0.40903 0.0
H367 H 0.55028 0.99544 0.42772 0.0
H368 H 0.42446 0.01614 0.40781 0.0
H369 H 0.40926 0.95705 0.40577 0.0
H370 H 0.51199 0.93083 0.39042 0.0
C371 C 0.54373 0.06438 0.39088 0.0
C372 C 0.52882 0.09625 0.39305 0.0
C373 C 0.49444 0.09879 0.39821 0.0
C374 C 0.47517 0.07018 0.40127 0.0
C375 C 0.49063 0.03921 0.39908 0.0
C376 C 0.52403 0.03602 0.39388 0.0
C377 C 0.53399 0.99965 0.39148 0.0
C378 C 0.5469 0.99221 0.36687 0.0
C379 C 0.55979 0.9898 0.41002 0.0
C380 C 0.5008 0.98296 0.39588 0.0
C381 C 0.47631 0.00639 0.40044 0.0
C382 C 0.4434 0.99752 0.40435 0.0
C383 C 0.43505 0.96385 0.4031 0.0
C384 C 0.45945 0.93931 0.39791 0.0
C385 C 0.49291 0.94898 0.39467 0.0
H386 H 0.93748 0.50286 0.64078 0.0
H387 H 0.96228 0.39757 0.63754 0.0
H388 H 0.02205 0.41163 0.6357 0.0
H389 H 1.00085 0.53105 0.60137 0.0
H390 H 0.00903 0.56865 0.61746 0.0
H391 H 0.96824 0.55023 0.61829 0.0
H392 H 0.97113 0.54771 0.66323 0.0
H393 H 0.01187 0.5662 0.66253 0.0
H394 H 0.00577 0.5269 0.67702 0.0
H395 H 0.07947 0.43744 0.63449 0.0
H396 H 0.12966 0.47294 0.63472 0.0
H397 H 0.06668 0.56097 0.63877 0.0
C398 C 0.95542 0.48271 0.63965 0.0
C399 C 0.94513 0.4491 0.63929 0.0
C400 C 0.96952 0.42353 0.63786 0.0
C401 C 1.00354 0.43124 0.63677 0.0
C402 C 0.0128 0.46465 0.63714 0.0
C403 C 0.98942 0.48995 0.63858 0.0
C404 C 0.00583 0.5238 0.63898 0.0
C405 C 0.99536 0.54465 0.61776 0.0
C406 C 0.9982 0.54222 0.6618 0.0
C407 C 0.04211 0.51361 0.63759 0.0
C408 C 0.04568 0.47942 0.63648 0.0
C409 C 0.07696 0.46426 0.63531 0.0
C410 C 0.10532 0.48463 0.63542 0.0
C411 C 0.10218 0.51975 0.63673 0.0
C412 C 0.07004 0.53424 0.6377 0.0
H413 H 0.44517 0.05826 0.14947 0.0
H414 H 0.53292 0.1189 0.13774 0.0
H415 H 0.56733 0.06843 0.13491 0.0
H416 H 0.486 0.99525 0.18436 0.0
H417 H 0.46284 0.9611 0.17217 0.0
H418 H 0.44446 1.00208 0.17339 0.0
H419 H 0.43395 1.00027 0.12901 0.0
H420 H 0.45235 0.9593 0.12767 0.0
H421 H 0.46832 0.99226 0.10965 0.0
H422 H 0.5929 0.01221 0.13366 0.0
H423 H 0.60798 0.95264 0.13374 0.0
H424 H 0.50436 0.92712 0.14558 0.0
C425 C 0.4716 0.06087 0.14633 0.0
C426 C 0.48621 0.09269 0.14381 0.0
C427 C 0.52096 0.09494 0.13967 0.0
C428 C 0.54086 0.06637 0.13804 0.0
C429 C 0.52578 0.0355 0.14051 0.0
C430 C 0.492 0.03241 0.14452 0.0
C431 C 0.48237 0.99597 0.14636 0.0
C432 C 0.46808 0.98815 0.17051 0.0
C433 C 0.45779 0.98639 0.12702 0.0
C434 C 0.51603 0.9793 0.14284 0.0
C435 C 0.54067 1.00267 0.13953 0.0
C436 C 0.57384 0.9936 0.13618 0.0
C437 C 0.58216 0.95967 0.13626 0.0
C438 C 0.55741 0.93513 0.1396 0.0
C439 C 0.52387 0.94522 0.14285 0.0
H440 H 0.20719 0.49141 0.31564 0.0
H441 H 0.2088 0.59904 0.30984 0.0
H442 H 0.21136 0.59435 0.26705 0.0
H443 H 0.26077 0.47194 0.26637 0.0
H444 H 0.23629 0.43675 0.25729 0.0
H445 H 0.23759 0.44839 0.28749 0.0
H446 H 0.17321 0.45283 0.28814 0.0
H447 H 0.17171 0.44115 0.25797 0.0
H448 H 0.15236 0.47941 0.26743 0.0
H449 H 0.21416 0.57793 0.2249 0.0
H450 H 0.21049 0.55128 0.18627 0.0
H451 H 0.2018 0.45455 0.21924 0.0
C452 C 0.20854 0.5139 0.3053 0.0
C453 C 0.20825 0.5456 0.31593 0.0
C454 C 0.20914 0.57455 0.30194 0.0
C455 C 0.21074 0.57212 0.27766 0.0
C456 C 0.21079 0.54053 0.26763 0.0
C457 C 0.20922 0.51192 0.28097 0.0
C458 C 0.2069 0.48118 0.26576 0.0
C459 C 0.2372 0.45821 0.26945 0.0
C460 C 0.17409 0.46256 0.27008 0.0
C461 C 0.20742 0.49697 0.24184 0.0
C462 C 0.21029 0.53118 0.24331 0.0
C463 C 0.21177 0.55116 0.22353 0.0
C464 C 0.20979 0.53582 0.20167 0.0
C465 C 0.2057 0.50092 0.19977 0.0
C466 C 0.20469 0.48133 0.22017 0.0
H467 H 0.48752 0.19286 0.7097 0.0
H468 H 0.59382 0.20958 0.71545 0.0
H469 H 0.58825 0.21519 0.75806 0.0
H470 H 0.46067 0.24821 0.75556 0.0
H471 H 0.42869 0.22056 0.76585 0.0
H472 H 0.44072 0.21984 0.73573 0.0
H473 H 0.45336 0.15661 0.7387 0.0
H474 H 0.44125 0.15711 0.76879 0.0
H475 H 0.48184 0.14175 0.76064 0.0
H476 H 0.57067 0.22032 0.79999 0.0
H477 H 0.54359 0.2182 0.83854 0.0
H478 H 0.44968 0.19353 0.8056 0.0
C479 C 0.50954 0.19796 0.71996 0.0
C480 C 0.54106 0.20113 0.70936 0.0
C481 C 0.56946 0.20711 0.72331 0.0
C482 C 0.5665 0.21049 0.74747 0.0
C483 C 0.53506 0.20724 0.75742 0.0
C484 C 0.50715 0.20061 0.74414 0.0
C485 C 0.47664 0.19615 0.75924 0.0
C486 C 0.45012 0.22278 0.75376 0.0
C487 C 0.46245 0.1608 0.75669 0.0
C488 C 0.49169 0.20141 0.78307 0.0
C489 C 0.52531 0.20831 0.78163 0.0
C490 C 0.5444 0.21475 0.80135 0.0
C491 C 0.52881 0.21362 0.82314 0.0
C492 C 0.49464 0.20553 0.82502 0.0
C493 C 0.47592 0.19952 0.80468 0.0
H494 H 0.82059 0.55293 0.22434 0.0
H495 H 0.82462 0.45564 0.19154 0.0
H496 H 0.83188 0.42915 0.22977 0.0
H497 H 0.88037 0.53636 0.27018 0.0
H498 H 0.85747 0.55907 0.29199 0.0
H499 H 0.85416 0.57097 0.26191 0.0
H500 H 0.79002 0.56485 0.26392 0.0
H501 H 0.79313 0.553 0.29401 0.0
H502 H 0.77238 0.52607 0.27362 0.0
H503 H 0.83993 0.413 0.27093 0.0
H504 H 0.84319 0.4076 0.31355 0.0
H505 H 0.83 0.51453 0.32054 0.0
C506 C 0.82319 0.5261 0.2253 0.0
C507 C 0.82216 0.50631 0.20504 0.0
C508 C 0.82517 0.47124 0.20689 0.0
C509 C 0.82949 0.45595 0.22849 0.0
C510 C 0.83028 0.47602 0.24815 0.0
C511 C 0.82681 0.51026 0.24687 0.0
C512 C 0.82687 0.52567 0.27092 0.0
C513 C 0.85648 0.54942 0.27392 0.0
C514 C 0.79362 0.54344 0.27591 0.0
C515 C 0.83097 0.49471 0.28577 0.0
C516 C 0.83335 0.46644 0.2722 0.0
C517 C 0.83794 0.4349 0.28179 0.0
C518 C 0.83987 0.4321 0.30599 0.0
C519 C 0.83669 0.4606 0.32028 0.0
C520 C 0.83223 0.49229 0.31 0.0
H521 H 0.56008 0.81928 0.80536 0.0
H522 H 0.46576 0.83805 0.83968 0.0
H523 H 0.43766 0.84169 0.80168 0.0
H524 H 0.54575 0.87222 0.7545 0.0
H525 H 0.56507 0.84341 0.73458 0.0
H526 H 0.57855 0.84487 0.76441 0.0
H527 H 0.56704 0.78171 0.76846 0.0
H528 H 0.55331 0.7801 0.7387 0.0
H529 H 0.52626 0.76591 0.76158 0.0
H530 H 0.41957 0.84325 0.76069 0.0
H531 H 0.41172 0.84011 0.71827 0.0
H532 H 0.51648 0.81597 0.70973 0.0
C533 C 0.53365 0.82467 0.80471 0.0
C534 C 0.51501 0.82873 0.8253 0.0
C535 C 0.48035 0.83496 0.824 0.0
C536 C 0.46421 0.83712 0.80254 0.0
C537 C 0.48301 0.83247 0.78254 0.0
C538 C 0.51689 0.82615 0.78332 0.0
C539 C 0.53059 0.82023 0.7591 0.0
C540 C 0.55652 0.84677 0.75278 0.0
C541 C 0.54516 0.78488 0.75684 0.0
C542 C 0.49911 0.82423 0.74473 0.0
C543 C 0.4721 0.83166 0.75866 0.0
C544 C 0.44046 0.83731 0.74955 0.0
C545 C 0.43625 0.83549 0.72547 0.0
C546 C 0.46341 0.82756 0.71081 0.0
C547 C 0.49521 0.82163 0.7206 0.0
H548 H 0.81897 0.5577 0.80671 0.0
H549 H 0.78715 0.46295 0.83518 0.0
H550 H 0.79279 0.43706 0.79656 0.0
H551 H 0.77452 0.54864 0.752 0.0
H552 H 0.80644 0.56883 0.7352 0.0
H553 H 0.80043 0.57992 0.76522 0.0
H554 H 0.86247 0.56654 0.77363 0.0
H555 H 0.86862 0.55519 0.74367 0.0
H556 H 0.8789 0.52598 0.76638 0.0
H557 H 0.80513 0.42057 0.75577 0.0
H558 H 0.81682 0.41589 0.71381 0.0
H559 H 0.83629 0.52203 0.71073 0.0
C560 C 0.81311 0.53155 0.80474 0.0
C561 C 0.80273 0.51226 0.82389 0.0
C562 C 0.79497 0.4782 0.82068 0.0
C563 C 0.79827 0.46322 0.79885 0.0
C564 C 0.80881 0.48279 0.78036 0.0
C565 C 0.81556 0.51633 0.78291 0.0
C566 C 0.82534 0.53184 0.75993 0.0
C567 C 0.80018 0.5589 0.75266 0.0
C568 C 0.86095 0.5457 0.76098 0.0
C569 C 0.82337 0.50169 0.74417 0.0
C570 C 0.81422 0.47359 0.75642 0.0
C571 C 0.81197 0.44244 0.74591 0.0
C572 C 0.81883 0.43999 0.72214 0.0
C573 C 0.82725 0.46862 0.70911 0.0
C574 C 0.82956 0.49983 0.7203 0.0
H575 H 0.44577 0.8353 0.30691 0.0
H576 H 0.54313 0.8306 0.3396 0.0
H577 H 0.56985 0.82994 0.30117 0.0
H578 H 0.46558 0.77871 0.26078 0.0
H579 H 0.44151 0.80035 0.23902 0.0
H580 H 0.42952 0.80282 0.2691 0.0
H581 H 0.43194 0.86724 0.26728 0.0
H582 H 0.44376 0.86497 0.23714 0.0
H583 H 0.46954 0.88718 0.25751 0.0
H584 H 0.58636 0.82952 0.25997 0.0
H585 H 0.59195 0.82733 0.21742 0.0
H586 H 0.48426 0.82895 0.21038 0.0
C587 C 0.47269 0.83458 0.30587 0.0
C588 C 0.49245 0.83318 0.32617 0.0
C589 C 0.52757 0.83163 0.32423 0.0
C590 C 0.543 0.83132 0.30251 0.0
C591 C 0.52295 0.83222 0.28282 0.0
C592 C 0.4886 0.83365 0.28417 0.0
C593 C 0.47312 0.83278 0.26012 0.0
C594 C 0.45114 0.80182 0.25709 0.0
C595 C 0.45343 0.86496 0.25523 0.0
C596 C 0.50418 0.8306 0.24519 0.0
C597 C 0.53259 0.83065 0.25873 0.0
C598 C 0.56434 0.8294 0.24912 0.0
C599 C 0.56725 0.8282 0.22494 0.0
C600 C 0.53857 0.82783 0.21063 0.0
C601 C 0.50661 0.82887 0.22093 0.0
H602 H 0.16835 0.51924 0.81747 0.0
H603 H 0.21098 0.42006 0.81242 0.0
H604 H 0.22608 0.43059 0.77158 0.0
H605 H 0.1311 0.51782 0.76068 0.0
H606 H 0.13824 0.56124 0.75459 0.0
H607 H 0.13329 0.54747 0.78414 0.0
H608 H 0.19012 0.57353 0.79488 0.0
H609 H 0.19526 0.58736 0.76533 0.0
H610 H 0.2268 0.56173 0.77878 0.0
H611 H 0.23686 0.45109 0.73202 0.0
H612 H 0.23784 0.47812 0.69382 0.0
H613 H 0.18394 0.56304 0.72202 0.0
C614 C 0.1812 0.50004 0.80772 0.0
C615 C 0.18892 0.46895 0.81802 0.0
C616 C 0.20502 0.44402 0.80476 0.0
C617 C 0.21379 0.44982 0.78162 0.0
C618 C 0.20574 0.48053 0.77183 0.0
C619 C 0.1894 0.50513 0.78424 0.0
C620 C 0.18161 0.53487 0.76874 0.0
C621 C 0.14381 0.54068 0.76694 0.0
C622 C 0.19952 0.56623 0.77746 0.0
C623 C 0.19604 0.52297 0.74577 0.0
C624 C 0.21032 0.49179 0.74823 0.0
C625 C 0.22569 0.47547 0.72982 0.0
C626 C 0.22619 0.49117 0.70816 0.0
C627 C 0.21095 0.52274 0.70483 0.0
C628 C 0.19573 0.53889 0.72399 0.0
H629 H 0.49304 0.20763 0.31831 0.0
H630 H 0.60073 0.20649 0.3132 0.0
H631 H 0.59656 0.21133 0.27043 0.0
H632 H 0.48003 0.15558 0.26884 0.0
H633 H 0.44237 0.17647 0.25978 0.0
H634 H 0.45392 0.17601 0.28999 0.0
H635 H 0.45118 0.24051 0.29094 0.0
H636 H 0.43975 0.24116 0.26068 0.0
H637 H 0.47551 0.26417 0.27053 0.0
H638 H 0.58047 0.21701 0.22825 0.0
H639 H 0.55389 0.2157 0.18947 0.0
H640 H 0.45687 0.2078 0.222 0.0
C641 C 0.51568 0.20879 0.30814 0.0
C642 C 0.54722 0.20712 0.31892 0.0
C643 C 0.57636 0.20784 0.30515 0.0
C644 C 0.57423 0.21077 0.28091 0.0
C645 C 0.54274 0.2123 0.27075 0.0
C646 C 0.51398 0.21078 0.28389 0.0
C647 C 0.48329 0.21012 0.26857 0.0
C648 C 0.46377 0.17761 0.272 0.0
C649 C 0.46113 0.24082 0.27295 0.0
C650 C 0.49927 0.2115 0.24479 0.0
C651 C 0.53355 0.21341 0.24642 0.0
C652 C 0.55367 0.21538 0.22675 0.0
C653 C 0.53837 0.21477 0.20483 0.0
C654 C 0.50341 0.21151 0.20279 0.0
C655 C 0.48369 0.21011 0.22307 0.0
H656 H 0.2008 0.47968 0.95863 0.0
H657 H 0.15836 0.38108 0.95011 0.0
H658 H 0.15937 0.37312 0.99243 0.0
H659 H 0.2554 0.45859 1.0074 0.0
H660 H 0.24875 0.49774 0.02204 0.0
H661 H 0.24612 0.4956 0.99083 0.0
H662 H 0.18671 0.52091 0.99231 0.0
H663 H 0.18915 0.52311 0.0235 0.0
H664 H 0.15532 0.50115 1.00985 0.0
H665 H 0.16265 0.37604 0.0353 0.0
H666 H 0.16818 0.38968 0.07674 0.0
H667 H 0.20884 0.48635 0.05865 0.0
C668 C 0.19199 0.45632 0.96567 0.0
C669 C 0.17952 0.43099 0.95094 0.0
C670 C 0.168 0.4009 0.96092 0.0
C671 C 0.16851 0.39607 0.98499 0.0
C672 C 0.18067 0.42151 0.99898 0.0
C673 C 0.19227 0.45105 0.9898 0.0
C674 C 0.20316 0.4746 1.00899 0.0
C675 C 0.24058 0.48206 1.0072 0.0
C676 C 0.18234 0.50685 1.00864 0.0
C677 C 0.19553 0.45374 0.03033 0.0
C678 C 0.18267 0.42318 0.02404 0.0
C679 C 0.17285 0.39981 0.04047 0.0
C680 C 0.17606 0.40787 0.06401 0.0
C681 C 0.18901 0.43907 0.07104 0.0
C682 C 0.1991 0.46219 0.05388 0.0
H683 H 0.58536 0.18326 0.46471 0.0
H684 H 0.49956 0.24612 0.45008 0.0
H685 H 0.48835 0.25077 0.4921 0.0
H686 H 0.54973 0.13847 0.51204 0.0
H687 H 0.58777 0.13685 0.52866 0.0
H688 H 0.58942 0.13889 0.49745 0.0
H689 H 0.62633 0.19157 0.49993 0.0
H690 H 0.62492 0.18959 0.53116 0.0
H691 H 0.61197 0.22705 0.51637 0.0
H692 H 0.48543 0.24708 0.53572 0.0
H693 H 0.49264 0.23755 0.5778 0.0
H694 H 0.58096 0.17802 0.56387 0.0
C695 C 0.56429 0.19815 0.47031 0.0
C696 C 0.54333 0.21432 0.45406 0.0
C697 C 0.51604 0.23356 0.46217 0.0
C698 C 0.50941 0.2363 0.48601 0.0
C699 C 0.53039 0.2198 0.50154 0.0
C700 C 0.55741 0.20129 0.49403 0.0
C701 C 0.57614 0.18607 0.5143 0.0
C702 C 0.57572 0.1478 0.51303 0.0
C703 C 0.61196 0.19937 0.51551 0.0
C704 C 0.55534 0.19878 0.53437 0.0
C705 C 0.52899 0.21808 0.52665 0.0
C706 C 0.50607 0.23214 0.54198 0.0
C707 C 0.51033 0.2265 0.56585 0.0
C708 C 0.53741 0.20711 0.57418 0.0
C709 C 0.56009 0.19308 0.55812 0.0
H710 H 0.83591 0.57745 0.06424 0.0
H711 H 0.75922 0.50451 0.07892 0.0
H712 H 0.74526 0.50178 0.03743 0.0
H713 H 0.79201 0.62025 0.01666 0.0
H714 H 0.82919 0.62574 0.9996 0.0
H715 H 0.83183 0.62435 0.03083 0.0
H716 H 0.87476 0.57613 0.02816 0.0
H717 H 0.87228 0.57741 0.99696 0.0
H718 H 0.86427 0.53903 1.01216 0.0
H719 H 0.74061 0.50468 0.99504 0.0
H720 H 0.7472 0.51101 0.95291 0.0
H721 H 0.82789 0.58097 0.96417 0.0
C722 C 0.81593 0.56127 0.05868 0.0
C723 C 0.79858 0.54126 0.0748 0.0
C724 C 0.77294 0.51997 0.06688 0.0
C725 C 0.76466 0.51836 0.04335 0.0
C726 C 0.78235 0.53807 0.02788 0.0
C727 C 0.80756 0.55901 0.03506 0.0
C728 C 0.82385 0.57584 0.0144 0.0
C729 C 0.81892 0.6138 0.01544 0.0
C730 C 0.86099 0.56653 0.01283 0.0
C731 C 0.8041 0.56065 0.99459 0.0
C732 C 0.78007 0.53926 1.00292 0.0
C733 C 0.75921 0.52147 0.98824 0.0
C734 C 0.76322 0.52523 0.9643 0.0
C735 C 0.78808 0.54648 0.95518 0.0
C736 C 0.80852 0.56473 0.9706 0.0
H737 H 0.42011 0.84815 0.56594 0.0
H738 H 0.49291 0.77016 0.57958 0.0
H739 H 0.49813 0.76009 0.53749 0.0
H740 H 0.37987 0.80802 0.51661 0.0
H741 H 0.3741 0.8465 0.50096 0.0
H742 H 0.37469 0.8466 0.53225 0.0
H743 H 0.4222 0.89005 0.5319 0.0
H744 H 0.42171 0.89014 0.50064 0.0
H745 H 0.45985 0.88117 0.51599 0.0
H746 H 0.4974 0.75995 0.49435 0.0
H747 H 0.4918 0.77032 0.45245 0.0
H748 H 0.41928 0.84844 0.46626 0.0
C749 C 0.43696 0.82876 0.56011 0.0
C750 C 0.45606 0.80987 0.57609 0.0
C751 C 0.47801 0.78493 0.5677 0.0
C752 C 0.48108 0.77895 0.54383 0.0
C753 C 0.462 0.79808 0.52858 0.0
C754 C 0.44038 0.82249 0.53632 0.0
C755 C 0.42373 0.84035 0.51617 0.0
C756 C 0.38585 0.83504 0.51652 0.0
C757 C 0.43241 0.87763 0.51618 0.0
C758 C 0.43973 0.82241 0.49586 0.0
C759 C 0.46156 0.79801 0.50349 0.0
C760 C 0.48024 0.77883 0.48815 0.0
C761 C 0.4769 0.785 0.46436 0.0
C762 C 0.45504 0.81017 0.45605 0.0
C763 C 0.43589 0.8288 0.47206 0.0
H764 H 0.1802 0.58492 0.46181 0.0
H765 H 0.26085 0.51515 0.44815 0.0
H766 H 0.26999 0.50876 0.49023 0.0
H767 H 0.21785 0.6249 0.51186 0.0
H768 H 0.17912 0.62903 0.52741 0.0
H769 H 0.17921 0.62899 0.49612 0.0
H770 H 0.13751 0.57998 0.49596 0.0
H771 H 0.13728 0.57987 0.52724 0.0
H772 H 0.14763 0.54235 0.51159 0.0
H773 H 0.27017 0.50904 0.53338 0.0
H774 H 0.2611 0.51519 0.57533 0.0
H775 H 0.17986 0.58451 0.56198 0.0
C776 C 0.19992 0.56844 0.46766 0.0
C777 C 0.21989 0.55059 0.45159 0.0
C778 C 0.24523 0.5291 0.46003 0.0
C779 C 0.25066 0.52532 0.48394 0.0
C780 C 0.23052 0.54314 0.49926 0.0
C781 C 0.20562 0.56425 0.49154 0.0
C782 C 0.18713 0.57989 0.51184 0.0
C783 C 0.19107 0.61797 0.5118 0.0
C784 C 0.1502 0.56992 0.51164 0.0
C785 C 0.20549 0.56415 0.53216 0.0
C786 C 0.23047 0.54314 0.5244 0.0
C787 C 0.25073 0.52546 0.53968 0.0
C788 C 0.24531 0.52916 0.56354 0.0
C789 C 0.21974 0.55037 0.57209 0.0
C790 C 0.19966 0.56819 0.55607 0.0
H791 H 0.48188 0.2238 0.96323 0.0
H792 H 0.38974 0.17006 0.95162 0.0
H793 H 0.38088 0.16673 0.99388 0.0
H794 H 0.50813 0.17689 1.01216 0.0
H795 H 0.52578 0.21176 0.02748 0.0
H796 H 0.524 0.21207 0.99625 0.0
H797 H 0.49165 0.26805 0.9972 0.0
H798 H 0.49343 0.26798 0.02847 0.0
H799 H 0.45381 0.27123 0.01389 0.0
H800 H 0.38309 0.16671 0.03706 0.0
H801 H 0.39605 0.17014 0.07876 0.0
H802 H 0.48701 0.22366 0.06291 0.0
C803 C 0.45961 0.21174 0.96957 0.0
C804 C 0.43643 0.19729 0.95407 0.0
C805 C 0.40784 0.18133 0.9631 0.0
C806 C 0.40254 0.17935 0.9871 0.0
C807 C 0.42605 0.19344 1.00187 0.0
C808 C 0.45399 0.20939 0.99352 0.0
C809 C 0.476 0.22122 0.01326 0.0
C810 C 0.51052 0.20448 1.01222 0.0
C811 C 0.47888 0.25939 0.0132 0.0
C812 C 0.4562 0.20911 0.03398 0.0
C813 C 0.42742 0.19329 0.02696 0.0
C814 C 0.40545 0.17922 0.0428 0.0
C815 C 0.41311 0.18126 0.06648 0.0
C816 C 0.44254 0.19722 0.07417 0.0
C817 C 0.46423 0.21148 0.05762 0.0
H818 H 0.84668 0.41983 0.46608 0.0
H819 H 0.79607 0.51272 0.4496 0.0
H820 H 0.79117 0.5252 0.49145 0.0
H821 H 0.79816 0.40014 0.51726 0.0
H822 H 0.83333 0.38288 0.53265 0.0
H823 H 0.83187 0.38097 0.50142 0.0
H824 H 0.88894 0.41073 0.49927 0.0
H825 H 0.89049 0.41292 0.53047 0.0
H826 H 0.89411 0.45041 0.51346 0.0
H827 H 0.79377 0.52847 0.53516 0.0
H828 H 0.80176 0.5212 0.57742 0.0
H829 H 0.85019 0.42593 0.56487 0.0
C830 C 0.83435 0.44269 0.47123 0.0
C831 C 0.82177 0.46529 0.45455 0.0
C832 C 0.80586 0.49498 0.46206 0.0
C833 C 0.80298 0.50233 0.48579 0.0
C834 C 0.81602 0.47967 0.50175 0.0
C835 C 0.83119 0.45037 0.49478 0.0
C836 C 0.84345 0.43036 0.51536 0.0
C837 C 0.82563 0.39659 0.51675 0.0
C838 C 0.8815 0.42586 0.51459 0.0
C839 C 0.83305 0.45311 0.53501 0.0
C840 C 0.81729 0.48144 0.52683 0.0
C841 C 0.80593 0.50632 0.54177 0.0
C842 C 0.81067 0.50199 0.56573 0.0
C843 C 0.82656 0.47298 0.57446 0.0
C844 C 0.83787 0.44834 0.55879 0.0
H845 H 0.58312 0.84181 0.06549 0.0
H846 H 0.49534 0.78213 0.07909 0.0
H847 H 0.48931 0.77157 0.03709 0.0
H848 H 0.55209 0.88026 0.01352 0.0
H849 H 0.59187 0.88015 0.99904 0.0
H850 H 0.59001 0.88213 0.03025 0.0
H851 H 0.62789 0.82984 0.03298 0.0
H852 H 0.62971 0.82758 1.00176 0.0
H853 H 0.61577 0.79215 0.01827 0.0
H854 H 0.4926 0.76742 0.99409 0.0
H855 H 0.50253 0.7727 0.95217 0.0
H856 H 0.58762 0.83625 0.96584 0.0
C857 C 0.56268 0.82641 0.05965 0.0
C858 C 0.53974 0.81267 0.0756 0.0
C859 C 0.51318 0.79294 0.06722 0.0
C860 C 0.50963 0.78669 0.04341 0.0
C861 C 0.53274 0.80047 0.0282 0.0
C862 C 0.5586 0.82013 0.03591 0.0
C863 C 0.57929 0.83284 0.01577 0.0
C864 C 0.57824 0.87111 0.01458 0.0
C865 C 0.6153 0.81982 0.01729 0.0
C866 C 0.5609 0.81734 0.99551 0.0
C867 C 0.53431 0.79856 1.00317 0.0
C868 C 0.51332 0.78205 0.98786 0.0
C869 C 0.51925 0.78522 0.96404 0.0
C870 C 0.54588 0.80494 0.95563 0.0
C871 C 0.56719 0.82088 0.97168 0.0
H872 H 0.22189 0.32391 0.15216 0.0
H873 H 0.2815 0.41262 0.16264 0.0
H874 H 0.33147 0.37786 0.16776 0.0
H875 H 0.26837 0.2696 0.19328 0.0
H876 H 0.2653 0.23343 0.17488 0.0
H877 H 0.23303 0.2648 0.17426 0.0
H878 H 0.24089 0.27126 0.12986 0.0
H879 H 0.27316 0.23999 0.13035 0.0
H880 H 0.28162 0.28065 0.11852 0.0
H881 H 0.3754 0.33532 0.1688 0.0
H882 H 0.41201 0.28641 0.16524 0.0
H883 H 0.32586 0.22343 0.15397 0.0
C884 C 0.24538 0.33586 0.15597 0.0
C885 C 0.24775 0.37102 0.15706 0.0
C886 C 0.27904 0.3858 0.16164 0.0
C887 C 0.3076 0.36625 0.1647 0.0
C888 C 0.30463 0.33183 0.16312 0.0
C889 C 0.27445 0.31659 0.15889 0.0
C890 C 0.27902 0.27909 0.15655 0.0
C891 C 0.26032 0.26065 0.1759 0.0
C892 C 0.26802 0.26705 0.13238 0.0
C893 C 0.31652 0.27593 0.15965 0.0
C894 C 0.33055 0.30677 0.16363 0.0
C895 C 0.36474 0.31096 0.16592 0.0
C896 C 0.38535 0.28298 0.16378 0.0
C897 C 0.37184 0.25106 0.15939 0.0
C898 C 0.33686 0.24743 0.15766 0.0
H899 H 0.78969 0.32752 0.64006 0.0
H900 H 0.73324 0.41995 0.64287 0.0
H901 H 0.68084 0.38788 0.64331 0.0
H902 H 0.7339 0.28359 0.60243 0.0
H903 H 0.73989 0.2442 0.61691 0.0
H904 H 0.77275 0.27455 0.61689 0.0
H905 H 0.77463 0.27283 0.66188 0.0
H906 H 0.74177 0.24248 0.66203 0.0
H907 H 0.73708 0.2807 0.67815 0.0
H908 H 0.63443 0.34521 0.64345 0.0
H909 H 0.5981 0.29563 0.64316 0.0
H910 H 0.68558 0.23178 0.64026 0.0
C911 C 0.76635 0.34111 0.64076 0.0
C912 C 0.76561 0.37628 0.64143 0.0
C913 C 0.73447 0.39301 0.64234 0.0
C914 C 0.70456 0.37502 0.64261 0.0
C915 C 0.70624 0.34034 0.64195 0.0
C916 C 0.73636 0.3236 0.64104 0.0
C917 C 0.73148 0.28627 0.64045 0.0
C918 C 0.74532 0.27128 0.61782 0.0
C919 C 0.74717 0.2696 0.66191 0.0
C920 C 0.69388 0.28456 0.64115 0.0
C921 C 0.67971 0.31596 0.64202 0.0
C922 C 0.64528 0.32051 0.64277 0.0
C923 C 0.62485 0.29219 0.6426 0.0
C924 C 0.63895 0.25979 0.64169 0.0
C925 C 0.67395 0.25614 0.64097 0.0
H926 H 0.7795 0.67485 0.15125 0.0
H927 H 0.71556 0.58796 0.15127 0.0
H928 H 0.66602 0.62481 0.15117 0.0
H929 H 0.72786 0.72708 0.18821 0.0
H930 H 0.73699 0.76446 0.17214 0.0
H931 H 0.76717 0.73117 0.17342 0.0
H932 H 0.76878 0.72908 0.12846 0.0
H933 H 0.73851 0.76224 0.12703 0.0
H934 H 0.73059 0.72329 0.11252 0.0
H935 H 0.62339 0.67152 0.14981 0.0
H936 H 0.59123 0.724 0.14729 0.0
H937 H 0.68343 0.78005 0.14757 0.0
C938 C 0.75511 0.66347 0.15152 0.0
C939 C 0.75147 0.62843 0.1514 0.0
C940 C 0.71903 0.61469 0.15145 0.0
C941 C 0.69073 0.63544 0.15139 0.0
C942 C 0.69527 0.66987 0.15124 0.0
C943 C 0.72667 0.68376 0.15133 0.0
C944 C 0.72487 0.72144 0.15038 0.0
C945 C 0.74012 0.73694 0.17235 0.0
C946 C 0.74168 0.73478 0.12828 0.0
C947 C 0.68752 0.72665 0.1496 0.0
C948 C 0.67086 0.69662 0.1502 0.0
C949 C 0.63621 0.69516 0.14941 0.0
C950 C 0.61815 0.72515 0.14796 0.0
C951 C 0.63474 0.75623 0.14723 0.0
C952 C 0.66993 0.75678 0.14811 0.0
H953 H 0.28349 0.63571 0.64385 0.0
H954 H 0.19081 0.69054 0.6526 0.0
H955 H 0.222 0.74307 0.65436 0.0
H956 H 0.33333 0.68733 0.68245 0.0
H957 H 0.37001 0.68485 0.66451 0.0
H958 H 0.34057 0.65112 0.6646 0.0
H959 H 0.3346 0.65593 0.61992 0.0
H960 H 0.36396 0.6897 0.6197 0.0
H961 H 0.32314 0.69541 0.60723 0.0
H962 H 0.26251 0.78993 0.65378 0.0
H963 H 0.3103 0.82817 0.65165 0.0
H964 H 0.37714 0.74355 0.64372 0.0
C965 C 0.26979 0.65873 0.64631 0.0
C966 C 0.23464 0.65889 0.6481 0.0
C967 C 0.21769 0.68965 0.65118 0.0
C968 C 0.23518 0.7197 0.65222 0.0
C969 C 0.26969 0.71872 0.65021 0.0
C970 C 0.2869 0.6891 0.64741 0.0
C971 C 0.32402 0.69524 0.64531 0.0
C972 C 0.3431 0.67865 0.66542 0.0
C973 C 0.33719 0.68337 0.62163 0.0
C974 C 0.32486 0.73292 0.64723 0.0
C975 C 0.29322 0.74591 0.65005 0.0
C976 C 0.28746 0.78007 0.6517 0.0
C977 C 0.31478 0.80161 0.65044 0.0
C978 C 0.34751 0.78893 0.64759 0.0
C979 C 0.35248 0.75406 0.64606 0.0
H980 H 0.386 0.7377 0.38803 0.0
H981 H 0.32958 0.81744 0.35525 0.0
H982 H 0.28187 0.78014 0.35051 0.0
H983 H 0.35025 0.66884 0.35207 0.0
H984 H 0.34933 0.64033 0.37623 0.0
H985 H 0.38087 0.67207 0.37487 0.0
H986 H 0.36295 0.69327 0.41547 0.0
H987 H 0.33115 0.66189 0.41685 0.0
H988 H 0.32018 0.7052 0.42032 0.0
H989 H 0.23829 0.73798 0.35356 0.0
H990 H 0.20182 0.69003 0.361 0.0
H991 H 0.28544 0.63552 0.39044 0.0
C992 C 0.3639 0.74692 0.37932 0.0
C993 C 0.36147 0.78048 0.37207 0.0
C994 C 0.33194 0.79189 0.36109 0.0
C995 C 0.30468 0.77088 0.35823 0.0
C996 C 0.30731 0.73838 0.36628 0.0
C997 C 0.33619 0.72612 0.37629 0.0
C998 C 0.33136 0.69051 0.38446 0.0
C999 C 0.35432 0.66652 0.3711 0.0
C1000 C 0.33672 0.68757 0.41084 0.0
C1001 C 0.2951 0.68525 0.378 0.0
C1002 C 0.28186 0.71328 0.36753 0.0
C1003 C 0.24841 0.7156 0.36136 0.0
C1004 C 0.22785 0.68835 0.36582 0.0
C1005 C 0.24087 0.6591 0.37617 0.0
C1006 C 0.27499 0.65747 0.38222 0.0
H1007 H 0.37424 0.27588 0.88749 0.0
H1008 H 0.33004 0.19825 0.84512 0.0
H1009 H 0.28122 0.23402 0.83802 0.0
H1010 H 0.29982 0.30039 0.91507 0.0
H1011 H 0.30889 0.34431 0.91573 0.0
H1012 H 0.34241 0.31438 0.91562 0.0
H1013 H 0.36732 0.34232 0.87906 0.0
H1014 H 0.33386 0.37242 0.87908 0.0
H1015 H 0.34176 0.34763 0.85356 0.0
H1016 H 0.23587 0.27486 0.83784 0.0
H1017 H 0.19488 0.31924 0.8449 0.0
H1018 H 0.26661 0.37203 0.88753 0.0
C1019 C 0.35453 0.26675 0.87637 0.0
C1020 C 0.35597 0.23431 0.86677 0.0
C1021 C 0.32945 0.22295 0.85268 0.0
C1022 C 0.30167 0.24315 0.84845 0.0
C1023 C 0.3007 0.27469 0.85843 0.0
C1024 C 0.3263 0.2866 0.87209 0.0
C1025 C 0.31757 0.32065 0.88197 0.0
C1026 C 0.31714 0.31986 0.90868 0.0
C1027 C 0.34156 0.34734 0.87287 0.0
C1028 C 0.28278 0.32553 0.87211 0.0
C1029 C 0.2739 0.29872 0.85841 0.0
C1030 C 0.24258 0.29618 0.84832 0.0
C1031 C 0.21942 0.32148 0.85255 0.0
C1032 C 0.22756 0.34909 0.86675 0.0
C1033 C 0.2599 0.35143 0.87636 0.0
H1034 H 0.63537 0.28337 0.39256 0.0
H1035 H 0.69132 0.19507 0.37242 0.0
H1036 H 0.74161 0.22884 0.3678 0.0
H1037 H 0.67829 0.34202 0.35388 0.0
H1038 H 0.67852 0.37533 0.37487 0.0
H1039 H 0.6456 0.34497 0.37523 0.0
H1040 H 0.65874 0.33157 0.41827 0.0
H1041 H 0.69163 0.3619 0.41806 0.0
H1042 H 0.70047 0.31948 0.42637 0.0
H1043 H 0.78579 0.26978 0.36674 0.0
H1044 H 0.82396 0.31676 0.37079 0.0
H1045 H 0.74181 0.38058 0.39217 0.0
C1046 C 0.65817 0.27132 0.38696 0.0
C1047 C 0.65942 0.23656 0.38283 0.0
C1048 C 0.68976 0.22157 0.37581 0.0
C1049 C 0.71846 0.24057 0.37298 0.0
C1050 C 0.71655 0.27457 0.37732 0.0
C1051 C 0.68741 0.28999 0.38426 0.0
C1052 C 0.6932 0.3268 0.38896 0.0
C1053 C 0.67268 0.34856 0.37223 0.0
C1054 C 0.68556 0.33543 0.41443 0.0
C1055 C 0.73024 0.32931 0.38385 0.0
C1056 C 0.74284 0.29878 0.37697 0.0
C1057 C 0.77631 0.29389 0.37202 0.0
C1058 C 0.79781 0.32079 0.37448 0.0
C1059 C 0.78591 0.35234 0.3819 0.0
C1060 C 0.75151 0.35683 0.3863 0.0
H1061 H 0.72034 0.62364 0.88902 0.0
H1062 H 0.8027 0.67585 0.85682 0.0
H1063 H 0.76632 0.72442 0.84994 0.0
H1064 H 0.65351 0.65806 0.85188 0.0
H1065 H 0.62443 0.66178 0.87557 0.0
H1066 H 0.65579 0.62949 0.87599 0.0
H1067 H 0.6766 0.65048 0.91595 0.0
H1068 H 0.64532 0.68274 0.91569 0.0
H1069 H 0.68857 0.69346 0.91917 0.0
H1070 H 0.72337 0.76808 0.84871 0.0
H1071 H 0.67642 0.80648 0.85484 0.0
H1072 H 0.62067 0.72765 0.88848 0.0
C1073 C 0.73048 0.64512 0.88018 0.0
C1074 C 0.7643 0.64595 0.87331 0.0
C1075 C 0.77691 0.67471 0.86223 0.0
C1076 C 0.75639 0.70233 0.85812 0.0
C1077 C 0.72332 0.70089 0.86527 0.0
C1078 C 0.71036 0.67319 0.87617 0.0
C1079 C 0.6746 0.67939 0.88368 0.0
C1080 C 0.65067 0.65577 0.87102 0.0
C1081 C 0.67108 0.67635 0.9102 0.0
C1082 C 0.6698 0.71512 0.87567 0.0
C1083 C 0.69821 0.72671 0.86486 0.0
C1084 C 0.70087 0.75928 0.85696 0.0
C1085 C 0.67406 0.78091 0.86061 0.0
C1086 C 0.64489 0.77003 0.87211 0.0
C1087 C 0.64246 0.73647 0.87933 0.0
loop_
_geom_bond_atom_site_label_1
_geom_bond_atom_site_label_2
_geom_bond_distance
_geom_bond_site_symmetry_2
_ccdc_geom_bond_type
C0 O2 1.247 . S
C0 O4 1.258 . S
C1 O8 1.247 . S
C1 O9 1.258 . S
O2 C0 1.247 . S
O2 Zn3 2.028 . S
Zn3 O2 2.028 . S
Zn3 O7 2.035 . S
Zn3 O9 2.035 . S
Zn3 O10 2.028 . S
O4 C0 1.258 . S
O4 Zn5 2.035 . S
Zn5 O4 2.035 . S
Zn5 O6 2.028 . S
Zn5 O8 2.028 . S
Zn5 O11 2.035 . S
O6 Zn5 2.028 . S
O6 C12 1.247 . S
O7 Zn3 2.035 . S
O7 C12 1.258 . S
O8 C1 1.247 . S
O8 Zn5 2.028 . S
O9 C1 1.258 . S
O9 Zn3 2.035 . S
O10 Zn3 2.028 . S
O10 C13 1.247 . S
O11 Zn5 2.035 . S
O11 C13 1.258 . S
C12 O6 1.247 . S
C12 O7 1.258 . S
C13 O10 1.247 . S
C13 O11 1.258 . S
C14 O16 1.247 . S
C14 O18 1.258 . S
C15 O22 1.247 . S
C15 O23 1.258 . S
O16 C14 1.247 . S
O16 Zn17 2.028 . S
Zn17 O16 2.028 . S
Zn17 O21 2.035 . S
Zn17 O23 2.035 . S
Zn17 O24 2.028 . S
O18 C14 1.258 . S
O18 Zn19 2.035 . S
Zn19 O18 2.035 . S
Zn19 O20 2.028 . S
Zn19 O22 2.028 . S
Zn19 O25 2.035 . S
O20 Zn19 2.028 . S
O20 C26 1.247 . S
O21 Zn17 2.035 . S
O21 C26 1.258 . S
O22 C15 1.247 . S
O22 Zn19 2.028 . S
O23 C15 1.258 . S
O23 Zn17 2.035 . S
O24 Zn17 2.028 . S
O24 C27 1.247 . S
O25 Zn19 2.035 . S
O25 C27 1.258 . S
C26 O20 1.247 . S
C26 O21 1.258 . S
C27 O24 1.247 . S
C27 O25 1.258 . S
C28 O30 1.247 . S
C28 O32 1.258 . S
C29 O36 1.247 . S
C29 O37 1.258 . S
O30 C28 1.247 . S
O30 Zn31 2.028 . S
Zn31 O30 2.028 . S
Zn31 O35 2.035 . S
Zn31 O37 2.035 . S
Zn31 O38 2.028 . S
O32 C28 1.258 . S
O32 Zn33 2.035 . S
Zn33 O32 2.035 . S
Zn33 O34 2.028 . S
Zn33 O36 2.028 . S
Zn33 O39 2.035 . S
O34 Zn33 2.028 . S
O34 C40 1.247 . S
O35 Zn31 2.035 . S
O35 C40 1.258 . S
O36 C29 1.247 . S
O36 Zn33 2.028 . S
O37 C29 1.258 . S
O37 Zn31 2.035 . S
O38 Zn31 2.028 . S
O38 C41 1.247 . S
O39 Zn33 2.035 . S
O39 C41 1.258 . S
C40 O34 1.247 . S
C40 O35 1.258 . S
C41 O38 1.247 . S
C41 O39 1.258 . S
C42 O44 1.247 . S
C42 O46 1.258 . S
C43 O50 1.247 . S
C43 O51 1.258 . S
O44 C42 1.247 . S
O44 Zn45 2.028 . S
Zn45 O44 2.028 . S
Zn45 O49 2.035 . S
Zn45 O51 2.035 . S
Zn45 O52 2.028 . S
O46 C42 1.258 . S
O46 Zn47 2.035 . S
Zn47 O46 2.035 . S
Zn47 O48 2.028 . S
Zn47 O50 2.028 . S
Zn47 O53 2.035 . S
O48 Zn47 2.028 . S
O48 C54 1.247 . S
O49 Zn45 2.035 . S
O49 C54 1.258 . S
O50 C43 1.247 . S
O50 Zn47 2.028 . S
O51 C43 1.258 . S
O51 Zn45 2.035 . S
O52 Zn45 2.028 . S
O52 C55 1.247 . S
O53 Zn47 2.035 . S
O53 C55 1.258 . S
C54 O48 1.247 . S
C54 O49 1.258 . S
C55 O52 1.247 . S
C55 O53 1.258 . S
C56 O58 1.247 . S
C56 O60 1.258 . S
C57 O64 1.247 . S
C57 O65 1.258 . S
O58 C56 1.247 . S
O58 Zn59 2.028 . S
Zn59 O58 2.028 . S
Zn59 O63 2.035 . S
Zn59 O65 2.035 . S
Zn59 O66 2.028 . S
O60 C56 1.258 . S
O60 Zn61 2.035 . S
Zn61 O60 2.035 . S
Zn61 O62 2.028 . S
Zn61 O64 2.028 . S
Zn61 O67 2.035 . S
O62 Zn61 2.028 . S
O62 C68 1.247 . S
O63 Zn59 2.035 . S
O63 C68 1.258 . S
O64 C57 1.247 . S
O64 Zn61 2.028 . S
O65 C57 1.258 . S
O65 Zn59 2.035 . S
O66 Zn59 2.028 . S
O66 C69 1.247 . S
O67 Zn61 2.035 . S
O67 C69 1.258 . S
C68 O62 1.247 . S
C68 O63 1.258 . S
C69 O66 1.247 . S
C69 O67 1.258 . S
C70 O72 1.247 . S
C70 O74 1.258 . S
C71 O78 1.247 . S
C71 O79 1.258 . S
O72 C70 1.247 . S
O72 Zn73 2.028 . S
Zn73 O72 2.028 . S
Zn73 O77 2.035 . S
Zn73 O79 2.035 . S
Zn73 O80 2.028 . S
O74 C70 1.258 . S
O74 Zn75 2.035 . S
Zn75 O74 2.035 . S
Zn75 O76 2.028 . S
Zn75 O78 2.028 . S
Zn75 O81 2.035 . S
O76 Zn75 2.028 . S
O76 C82 1.247 . S
O77 Zn73 2.035 . S
O77 C82 1.258 . S
O78 C71 1.247 . S
O78 Zn75 2.028 . S
O79 C71 1.258 . S
O79 Zn73 2.035 . S
O80 Zn73 2.028 . S
O80 C83 1.247 . S
O81 Zn75 2.035 . S
O81 C83 1.258 . S
C82 O76 1.247 . S
C82 O77 1.258 . S
C83 O80 1.247 . S
C83 O81 1.258 . S
C84 O86 1.247 . S
C84 O88 1.258 . S
C85 O92 1.247 . S
C85 O93 1.258 . S
O86 C84 1.247 . S
O86 Zn87 2.028 . S
Zn87 O86 2.028 . S
Zn87 O91 2.035 . S
Zn87 O93 2.035 . S
Zn87 O94 2.028 . S
O88 C84 1.258 . S
O88 Zn89 2.035 . S
Zn89 O88 2.035 . S
Zn89 O90 2.028 . S
Zn89 O92 2.028 . S
Zn89 O95 2.035 . S
O90 Zn89 2.028 . S
O90 C96 1.247 . S
O91 Zn87 2.035 . S
O91 C96 1.258 . S
O92 C85 1.247 . S
O92 Zn89 2.028 . S
O93 C85 1.258 . S
O93 Zn87 2.035 . S
O94 Zn87 2.028 . S
O94 C97 1.247 . S
O95 Zn89 2.035 . S
O95 C97 1.258 . S
C96 O90 1.247 . S
C96 O91 1.258 . S
C97 O94 1.247 . S
C97 O95 1.258 . S
C98 O100 1.247 . S
C98 O102 1.258 . S
C99 O106 1.247 . S
C99 O107 1.258 . S
O100 C98 1.247 . S
O100 Zn101 2.028 . S
Zn101 O100 2.028 . S
Zn101 O105 2.035 . S
Zn101 O107 2.035 . S
Zn101 O108 2.028 . S
O102 C98 1.258 . S
O102 Zn103 2.035 . S
Zn103 O102 2.035 . S
Zn103 O104 2.028 . S
Zn103 O106 2.028 . S
Zn103 O109 2.035 . S
O104 Zn103 2.028 . S
O104 C110 1.247 . S
O105 Zn101 2.035 . S
O105 C110 1.258 . S
O106 C99 1.247 . S
O106 Zn103 2.028 . S
O107 C99 1.258 . S
O107 Zn101 2.035 . S
O108 Zn101 2.028 . S
O108 C111 1.247 . S
O109 Zn103 2.035 . S
O109 C111 1.258 . S
C110 O104 1.247 . S
C110 O105 1.258 . S
C111 O108 1.247 . S
C111 O109 1.258 . S
C112 O114 1.247 . S
C112 O116 1.258 . S
C113 O120 1.247 . S
C113 O121 1.258 . S
O114 C112 1.247 . S
O114 Zn115 2.028 . S
Zn115 O114 2.028 . S
Zn115 O119 2.035 . S
Zn115 O121 2.035 . S
Zn115 O122 2.028 . S
O116 C112 1.258 . S
O116 Zn117 2.035 . S
Zn117 O116 2.035 . S
Zn117 O118 2.028 . S
Zn117 O120 2.028 . S
Zn117 O123 2.035 . S
O118 Zn117 2.028 . S
O118 C124 1.247 . S
O119 Zn115 2.035 . S
O119 C124 1.258 . S
O120 C113 1.247 . S
O120 Zn117 2.028 . S
O121 C113 1.258 . S
O121 Zn115 2.035 . S
O122 Zn115 2.028 . S
O122 C125 1.247 . S
O123 Zn117 2.035 . S
O123 C125 1.258 . S
C124 O118 1.247 . S
C124 O119 1.258 . S
C125 O122 1.247 . S
C125 O123 1.258 . S
C126 O128 1.247 . S
C126 O130 1.258 . S
C127 O134 1.247 . S
C127 O135 1.258 . S
O128 C126 1.247 . S
O128 Zn129 2.028 . S
Zn129 O128 2.028 . S
Zn129 O133 2.035 . S
Zn129 O135 2.035 . S
Zn129 O136 2.028 . S
O130 C126 1.258 . S
O130 Zn131 2.035 . S
Zn131 O130 2.035 . S
Zn131 O132 2.028 . S
Zn131 O134 2.028 . S
Zn131 O137 2.035 . S
O132 Zn131 2.028 . S
O132 C138 1.247 . S
O133 Zn129 2.035 . S
O133 C138 1.258 . S
O134 C127 1.247 . S
O134 Zn131 2.028 . S
O135 C127 1.258 . S
O135 Zn129 2.035 . S
O136 Zn129 2.028 . S
O136 C139 1.247 . S
O137 Zn131 2.035 . S
O137 C139 1.258 . S
C138 O132 1.247 . S
C138 O133 1.258 . S
C139 O136 1.247 . S
C139 O137 1.258 . S
C140 O142 1.247 . S
C140 O144 1.258 . S
C141 O148 1.247 . S
C141 O149 1.258 . S
O142 C140 1.247 . S
O142 Zn143 2.028 . S
Zn143 O142 2.028 . S
Zn143 O147 2.035 . S
Zn143 O149 2.035 . S
Zn143 O150 2.028 . S
O144 C140 1.258 . S
O144 Zn145 2.035 . S
Zn145 O144 2.035 . S
Zn145 O146 2.028 . S
Zn145 O148 2.028 . S
Zn145 O151 2.035 . S
O146 Zn145 2.028 . S
O146 C152 1.247 . S
O147 Zn143 2.035 . S
O147 C152 1.258 . S
O148 C141 1.247 . S
O148 Zn145 2.028 . S
O149 C141 1.258 . S
O149 Zn143 2.035 . S
O150 Zn143 2.028 . S
O150 C153 1.247 . S
O151 Zn145 2.035 . S
O151 C153 1.258 . S
C152 O146 1.247 . S
C152 O147 1.258 . S
C153 O150 1.247 . S
C153 O151 1.258 . S
C154 O156 1.247 . S
C154 O158 1.258 . S
C155 O162 1.247 . S
C155 O163 1.258 . S
O156 C154 1.247 . S
O156 Zn157 2.028 . S
Zn157 O156 2.028 . S
Zn157 O161 2.035 . S
Zn157 O163 2.035 . S
Zn157 O164 2.028 . S
O158 C154 1.258 . S
O158 Zn159 2.035 . S
Zn159 O158 2.035 . S
Zn159 O160 2.028 . S
Zn159 O162 2.028 . S
Zn159 O165 2.035 . S
O160 Zn159 2.028 . S
O160 C166 1.247 . S
O161 Zn157 2.035 . S
O161 C166 1.258 . S
O162 C155 1.247 . S
O162 Zn159 2.028 . S
O163 C155 1.258 . S
O163 Zn157 2.035 . S
O164 Zn157 2.028 . S
O164 C167 1.247 . S
O165 Zn159 2.035 . S
O165 C167 1.258 . S
C166 O160 1.247 . S
C166 O161 1.258 . S
C167 O164 1.247 . S
C167 O165 1.258 . S
C168 O170 1.247 . S
C168 O172 1.258 . S
C169 O176 1.247 . S
C169 O177 1.258 . S
O170 C168 1.247 . S
O170 Zn171 2.028 . S
Zn171 O170 2.028 . S
Zn171 O175 2.035 . S
Zn171 O177 2.035 . S
Zn171 O178 2.028 . S
O172 C168 1.258 . S
O172 Zn173 2.035 . S
Zn173 O172 2.035 . S
Zn173 O174 2.028 . S
Zn173 O176 2.028 . S
Zn173 O179 2.035 . S
O174 Zn173 2.028 . S
O174 C180 1.247 . S
O175 Zn171 2.035 . S
O175 C180 1.258 . S
O176 C169 1.247 . S
O176 Zn173 2.028 . S
O177 C169 1.258 . S
O177 Zn171 2.035 . S
O178 Zn171 2.028 . S
O178 C181 1.247 . S
O179 Zn173 2.035 . S
O179 C181 1.258 . S
C180 O174 1.247 . S
C180 O175 1.258 . S
C181 O178 1.247 . S
C181 O179 1.258 . S
C182 O184 1.247 . S
C182 O186 1.258 . S
C183 O190 1.247 . S
C183 O191 1.258 . S
O184 C182 1.247 . S
O184 Zn185 2.028 . S
Zn185 O184 2.028 . S
Zn185 O189 2.035 . S
Zn185 O191 2.035 . S
Zn185 O192 2.028 . S
O186 C182 1.258 . S
O186 Zn187 2.035 . S
Zn187 O186 2.035 . S
Zn187 O188 2.028 . S
Zn187 O190 2.028 . S
Zn187 O193 2.035 . S
O188 Zn187 2.028 . S
O188 C194 1.247 . S
O189 Zn185 2.035 . S
O189 C194 1.258 . S
O190 C183 1.247 . S
O190 Zn187 2.028 . S
O191 C183 1.258 . S
O191 Zn185 2.035 . S
O192 Zn185 2.028 . S
O192 C195 1.247 . S
O193 Zn187 2.035 . S
O193 C195 1.258 . S
C194 O188 1.247 . S
C194 O189 1.258 . S
C195 O192 1.247 . S
C195 O193 1.258 . S
C196 O198 1.247 . S
C196 O200 1.258 . S
C197 O204 1.247 . S
C197 O205 1.258 . S
O198 C196 1.247 . S
O198 Zn199 2.028 . S
Zn199 O198 2.028 . S
Zn199 O203 2.035 . S
Zn199 O205 2.035 . S
Zn199 O206 2.028 . S
O200 C196 1.258 . S
O200 Zn201 2.035 . S
Zn201 O200 2.035 . S
Zn201 O202 2.028 . S
Zn201 O204 2.028 . S
Zn201 O207 2.035 . S
O202 Zn201 2.028 . S
O202 C208 1.247 . S
O203 Zn199 2.035 . S
O203 C208 1.258 . S
O204 C197 1.247 . S
O204 Zn201 2.028 . S
O205 C197 1.258 . S
O205 Zn199 2.035 . S
O206 Zn199 2.028 . S
O206 C209 1.247 . S
O207 Zn201 2.035 . S
O207 C209 1.258 . S
C208 O202 1.247 . S
C208 O203 1.258 . S
C209 O206 1.247 . S
C209 O207 1.258 . S
C210 O212 1.247 . S
C210 O214 1.258 . S
C211 O218 1.247 . S
C211 O219 1.258 . S
O212 C210 1.247 . S
O212 Zn213 2.028 . S
Zn213 O212 2.028 . S
Zn213 O217 2.035 . S
Zn213 O219 2.035 . S
Zn213 O220 2.028 . S
O214 C210 1.258 . S
O214 Zn215 2.035 . S
Zn215 O214 2.035 . S
Zn215 O216 2.028 . S
Zn215 O218 2.028 . S
Zn215 O221 2.035 . S
O216 Zn215 2.028 . S
O216 C222 1.247 . S
O217 Zn213 2.035 . S
O217 C222 1.258 . S
O218 C211 1.247 . S
O218 Zn215 2.028 . S
O219 C211 1.258 . S
O219 Zn213 2.035 . S
O220 Zn213 2.028 . S
O220 C223 1.247 . S
O221 Zn215 2.035 . S
O221 C223 1.258 . S
C222 O216 1.247 . S
C222 O217 1.258 . S
C223 O220 1.247 . S
C223 O221 1.258 . S
H224 C236 0.930 . S
H225 C238 0.930 . S
H226 C239 0.930 . S
H227 C243 0.959 . S
H228 C243 0.959 . S
H229 C243 0.961 1_455 S
H230 C244 0.967 . S
H231 C244 0.954 1_655 S
H232 C244 0.959 . S
H233 C247 0.929 . S
H234 C248 0.931 . S
H235 C250 0.930 . S
C236 H224 0.930 . S
C236 C237 1.399 . S
C236 C241 1.399 . S
C237 C236 1.399 . S
C237 C238 1.376 . S
C238 H225 0.930 . S
C238 C237 1.376 . S
C238 C239 1.388 . S
C239 H226 0.930 . S
C239 C238 1.388 . S
C239 C240 1.390 . S
C240 C239 1.390 . S
C240 C241 1.394 . S
C240 C246 1.465 1_455 S
C241 C236 1.399 . S
C241 C240 1.394 . S
C241 C242 1.516 1_455 S
C242 C241 1.516 1_655 S
C242 C243 1.502 . S
C242 C244 1.561 1_655 S
C242 C245 1.526 . S
C243 H227 0.959 . S
C243 H228 0.959 . S
C243 H229 0.961 1_655 S
C243 C242 1.502 . S
C244 H230 0.967 . S
C244 H231 0.954 1_455 S
C244 H232 0.959 . S
C244 C242 1.561 1_455 S
C245 C242 1.526 . S
C245 C246 1.396 . S
C245 C250 1.390 . S
C246 C240 1.465 1_655 S
C246 C245 1.396 . S
C246 C247 1.399 . S
C247 H233 0.929 . S
C247 C246 1.399 . S
C247 C248 1.385 . S
C248 H234 0.931 . S
C248 C247 1.385 . S
C248 C249 1.389 . S
C249 C248 1.389 . S
C249 C250 1.387 . S
C250 H235 0.930 . S
C250 C245 1.390 . S
C250 C249 1.387 . S
H251 C263 0.930 . S
H252 C265 0.930 . S
H253 C266 0.930 . S
H254 C270 0.959 . S
H255 C270 0.959 . S
H256 C270 0.961 1_565 S
H257 C271 0.960 1_565 S
H258 C271 0.961 . S
H259 C271 0.959 . S
H260 C274 0.929 . S
H261 C275 0.931 . S
H262 C277 0.930 . S
C263 H251 0.930 . S
C263 C264 1.399 . S
C263 C268 1.399 . S
C264 C263 1.399 . S
C264 C265 1.376 . S
C265 H252 0.930 . S
C265 C264 1.376 . S
C265 C266 1.388 . S
C266 H253 0.930 . S
C266 C265 1.388 . S
C266 C267 1.390 . S
C267 C266 1.390 . S
C267 C268 1.394 . S
C267 C273 1.465 1_565 S
C268 C263 1.399 . S
C268 C267 1.394 . S
C268 C269 1.516 1_565 S
C269 C268 1.516 1_545 S
C269 C270 1.502 . S
C269 C271 1.561 . S
C269 C272 1.526 . S
C270 H254 0.959 . S
C270 H255 0.959 . S
C270 H256 0.961 1_545 S
C270 C269 1.502 . S
C271 H257 0.960 1_545 S
C271 H258 0.961 . S
C271 H259 0.959 . S
C271 C269 1.561 . S
C272 C269 1.526 . S
C272 C273 1.396 . S
C272 C277 1.390 . S
C273 C267 1.465 1_545 S
C273 C272 1.396 . S
C273 C274 1.399 . S
C274 H260 0.929 . S
C274 C273 1.399 . S
C274 C275 1.385 . S
C275 H261 0.931 . S
C275 C274 1.385 . S
C275 C276 1.389 . S
C276 C275 1.389 . S
C276 C277 1.387 . S
C277 H262 0.930 . S
C277 C272 1.390 . S
C277 C276 1.387 . S
H278 C290 0.930 . S
H279 C292 0.930 . S
H280 C293 0.930 . S
H281 C297 0.959 . S
H282 C297 0.959 . S
H283 C297 0.961 1_455 S
H284 C298 0.960 1_455 S
H285 C298 0.961 . S
H286 C298 0.960 . S
H287 C301 0.929 . S
H288 C302 0.931 . S
H289 C304 0.930 . S
C290 H278 0.930 . S
C290 C291 1.399 . S
C290 C295 1.399 . S
C291 C290 1.399 . S
C291 C292 1.376 . S
C292 H279 0.930 . S
C292 C291 1.376 . S
C292 C293 1.388 . S
C293 H280 0.930 . S
C293 C292 1.388 . S
C293 C294 1.390 . S
C294 C293 1.390 . S
C294 C295 1.394 . S
C294 C300 1.465 1_455 S
C295 C290 1.399 . S
C295 C294 1.394 . S
C295 C296 1.516 1_455 S
C296 C295 1.516 1_655 S
C296 C297 1.502 . S
C296 C298 1.561 . S
C296 C299 1.526 . S
C297 H281 0.959 . S
C297 H282 0.959 . S
C297 H283 0.961 1_655 S
C297 C296 1.502 . S
C298 H284 0.960 1_655 S
C298 H285 0.961 . S
C298 H286 0.960 . S
C298 C296 1.561 . S
C299 C296 1.526 . S
C299 C300 1.396 . S
C299 C304 1.390 . S
C300 C294 1.465 1_655 S
C300 C299 1.396 . S
C300 C301 1.399 . S
C301 H287 0.929 . S
C301 C300 1.399 . S
C301 C302 1.385 . S
C302 H288 0.931 . S
C302 C301 1.385 . S
C302 C303 1.389 . S
C303 C302 1.389 . S
C303 C304 1.387 . S
C304 H289 0.930 . S
C304 C299 1.390 . S
C304 C303 1.387 . S
H305 C317 0.930 . S
H306 C319 0.930 . S
H307 C320 0.930 . S
H308 C324 0.959 . S
H309 C324 0.959 1_545 S
H310 C324 0.961 . S
H311 C325 0.960 1_565 S
H312 C325 0.961 . S
H313 C325 0.959 . S
H314 C328 0.929 . S
H315 C329 0.931 . S
H316 C331 0.930 . S
C317 H305 0.930 . S
C317 C318 1.399 . S
C317 C322 1.399 . S
C318 C317 1.399 . S
C318 C319 1.376 . S
C319 H306 0.930 . S
C319 C318 1.376 . S
C319 C320 1.388 . S
C320 H307 0.930 . S
C320 C319 1.388 . S
C320 C321 1.390 . S
C321 C320 1.390 . S
C321 C322 1.394 . S
C321 C327 1.465 1_565 S
C322 C317 1.399 . S
C322 C321 1.394 . S
C322 C323 1.516 . S
C323 C322 1.516 . S
C323 C324 1.502 . S
C323 C325 1.561 1_565 S
C323 C326 1.526 1_565 S
C324 H308 0.959 . S
C324 H309 0.959 1_565 S
C324 H310 0.961 . S
C324 C323 1.502 . S
C325 H311 0.960 1_545 S
C325 H312 0.961 . S
C325 H313 0.959 . S
C325 C323 1.561 1_545 S
C326 C323 1.526 1_545 S
C326 C327 1.396 . S
C326 C331 1.390 . S
C327 C321 1.465 1_545 S
C327 C326 1.396 . S
C327 C328 1.399 . S
C328 H314 0.929 . S
C328 C327 1.399 . S
C328 C329 1.385 . S
C329 H315 0.931 . S
C329 C328 1.385 . S
C329 C330 1.389 . S
C330 C329 1.389 . S
C330 C331 1.387 . S
C331 H316 0.930 . S
C331 C326 1.390 . S
C331 C330 1.387 . S
H332 C344 0.930 . S
H333 C346 0.930 . S
H334 C347 0.930 . S
H335 C351 0.959 . S
H336 C351 0.959 . S
H337 C351 0.961 1_655 S
H338 C352 0.960 1_655 S
H339 C352 0.961 . S
H340 C352 0.959 . S
H341 C355 0.929 . S
H342 C356 0.931 . S
H343 C358 0.930 . S
C344 H332 0.930 . S
C344 C345 1.399 . S
C344 C349 1.399 . S
C345 C344 1.399 . S
C345 C346 1.376 . S
C346 H333 0.930 . S
C346 C345 1.376 . S
C346 C347 1.388 . S
C347 H334 0.930 . S
C347 C346 1.388 . S
C347 C348 1.390 . S
C348 C347 1.390 . S
C348 C349 1.394 . S
C348 C354 1.465 1_655 S
C349 C344 1.399 . S
C349 C348 1.394 . S
C349 C350 1.516 1_655 S
C350 C349 1.516 1_455 S
C350 C351 1.502 . S
C350 C352 1.561 . S
C350 C353 1.526 . S
C351 H335 0.959 . S
C351 H336 0.959 . S
C351 H337 0.961 1_455 S
C351 C350 1.502 . S
C352 H338 0.960 1_455 S
C352 H339 0.961 . S
C352 H340 0.959 . S
C352 C350 1.561 . S
C353 C350 1.526 . S
C353 C354 1.396 . S
C353 C358 1.390 . S
C354 C348 1.465 1_455 S
C354 C353 1.396 . S
C354 C355 1.399 . S
C355 H341 0.929 . S
C355 C354 1.399 . S
C355 C356 1.385 . S
C356 H342 0.931 . S
C356 C355 1.385 . S
C356 C357 1.389 . S
C357 C356 1.389 . S
C357 C358 1.387 . S
C358 H343 0.930 . S
C358 C353 1.390 . S
C358 C357 1.387 . S
H359 C371 0.930 . S
H360 C373 0.930 . S
H361 C374 0.930 . S
H362 C378 0.959 . S
H363 C378 0.959 . S
H364 C378 0.961 1_545 S
H365 C379 0.960 . S
H366 C379 0.961 1_565 S
H367 C379 0.959 . S
H368 C382 0.929 . S
H369 C383 0.931 . S
H370 C385 0.930 . S
C371 H359 0.930 . S
C371 C372 1.399 . S
C371 C376 1.399 . S
C372 C371 1.399 . S
C372 C373 1.376 . S
C373 H360 0.930 . S
C373 C372 1.376 . S
C373 C374 1.388 . S
C374 H361 0.930 . S
C374 C373 1.388 . S
C374 C375 1.390 . S
C375 C374 1.390 . S
C375 C376 1.394 . S
C375 C381 1.465 1_545 S
C376 C371 1.399 . S
C376 C375 1.394 . S
C376 C377 1.516 1_545 S
C377 C376 1.516 1_565 S
C377 C378 1.502 . S
C377 C379 1.561 1_565 S
C377 C380 1.526 . S
C378 H362 0.959 . S
C378 H363 0.959 . S
C378 H364 0.961 1_565 S
C378 C377 1.502 . S
C379 H365 0.960 . S
C379 H366 0.961 1_545 S
C379 H367 0.959 . S
C379 C377 1.561 1_545 S
C380 C377 1.526 . S
C380 C381 1.396 . S
C380 C385 1.390 . S
C381 C375 1.465 1_565 S
C381 C380 1.396 . S
C381 C382 1.399 . S
C382 H368 0.929 . S
C382 C381 1.399 . S
C382 C383 1.385 . S
C383 H369 0.931 . S
C383 C382 1.385 . S
C383 C384 1.389 . S
C384 C383 1.389 . S
C384 C385 1.387 . S
C385 H370 0.930 . S
C385 C380 1.390 . S
C385 C384 1.387 . S
H386 C398 0.930 . S
H387 C400 0.930 . S
H388 C401 0.930 . S
H389 C405 0.959 . S
H390 C405 0.959 1_455 S
H391 C405 0.961 . S
H392 C406 0.960 1_655 S
H393 C406 0.961 . S
H394 C406 0.959 . S
H395 C409 0.929 . S
H396 C410 0.931 . S
H397 C412 0.930 . S
C398 H386 0.930 . S
C398 C399 1.399 . S
C398 C403 1.399 . S
C399 C398 1.399 . S
C399 C400 1.376 . S
C400 H387 0.930 . S
C400 C399 1.376 . S
C400 C401 1.388 . S
C401 H388 0.930 . S
C401 C400 1.388 . S
C401 C402 1.390 . S
C402 C401 1.390 . S
C402 C403 1.394 . S
C402 C408 1.465 1_655 S
C403 C398 1.399 . S
C403 C402 1.394 . S
C403 C404 1.538 . S
C404 C403 1.538 . S
C404 C405 1.505 . S
C404 C406 1.559 1_655 S
C404 C407 1.503 1_655 S
C405 H389 0.959 . S
C405 H390 0.959 1_655 S
C405 H391 0.961 . S
C405 C404 1.505 . S
C406 H392 0.960 1_455 S
C406 H393 0.961 . S
C406 H394 0.959 . S
C406 C404 1.559 1_455 S
C407 C404 1.503 1_455 S
C407 C408 1.396 . S
C407 C412 1.390 . S
C408 C402 1.465 1_455 S
C408 C407 1.396 . S
C408 C409 1.399 . S
C409 H395 0.929 . S
C409 C408 1.399 . S
C409 C410 1.385 . S
C410 H396 0.931 . S
C410 C409 1.385 . S
C410 C411 1.389 . S
C411 C410 1.389 . S
C411 C412 1.387 . S
C412 H397 0.930 . S
C412 C407 1.390 . S
C412 C411 1.387 . S
H413 C425 0.930 . S
H414 C427 0.930 . S
H415 C428 0.930 . S
H416 C432 0.959 . S
H417 C432 0.959 . S
H418 C432 0.961 1_545 S
H419 C433 0.960 . S
H420 C433 0.961 1_565 S
H421 C433 0.959 . S
H422 C436 0.929 . S
H423 C437 0.931 . S
H424 C439 0.930 . S
C425 H413 0.930 . S
C425 C426 1.399 . S
C425 C430 1.399 . S
C426 C425 1.399 . S
C426 C427 1.376 . S
C427 H414 0.930 . S
C427 C426 1.376 . S
C427 C428 1.388 . S
C428 H415 0.930 . S
C428 C427 1.388 . S
C428 C429 1.390 . S
C429 C428 1.390 . S
C429 C430 1.394 . S
C429 C435 1.465 1_545 S
C430 C425 1.399 . S
C430 C429 1.394 . S
C430 C431 1.516 1_545 S
C431 C430 1.516 1_565 S
C431 C432 1.502 . S
C431 C433 1.561 1_565 S
C431 C434 1.526 . S
C432 H416 0.959 . S
C432 H417 0.959 . S
C432 H418 0.961 1_565 S
C432 C431 1.502 . S
C433 H419 0.960 . S
C433 H420 0.961 1_545 S
C433 H421 0.959 . S
C433 C431 1.561 1_545 S
C434 C431 1.526 . S
C434 C435 1.396 . S
C434 C439 1.390 . S
C435 C429 1.465 1_565 S
C435 C434 1.396 . S
C435 C436 1.399 . S
C436 H422 0.929 . S
C436 C435 1.399 . S
C436 C437 1.385 . S
C437 H423 0.931 . S
C437 C436 1.385 . S
C437 C438 1.389 . S
C438 C437 1.389 . S
C438 C439 1.387 . S
C439 H424 0.930 . S
C439 C434 1.390 . S
C439 C438 1.387 . S
H440 C452 0.930 . S
H441 C454 0.930 . S
H442 C455 0.930 . S
H443 C459 0.959 . S
H444 C459 0.959 . S
H445 C459 0.961 . S
H446 C460 0.960 . S
H447 C460 0.961 . S
H448 C460 0.959 . S
H449 C463 0.929 . S
H450 C464 0.931 . S
H451 C466 0.930 . S
C452 H440 0.930 . S
C452 C453 1.399 . S
C452 C457 1.399 . S
C453 C452 1.399 . S
C453 C454 1.376 . S
C454 H441 0.930 . S
C454 C453 1.376 . S
C454 C455 1.388 . S
C455 H442 0.930 . S
C455 C454 1.388 . S
C455 C456 1.390 . S
C456 C455 1.390 . S
C456 C457 1.394 . S
C456 C462 1.465 . S
C457 C452 1.399 . S
C457 C456 1.394 . S
C457 C458 1.516 . S
C458 C457 1.516 . S
C458 C459 1.502 . S
C458 C460 1.561 . S
C458 C461 1.526 . S
C459 H443 0.959 . S
C459 H444 0.959 . S
C459 H445 0.961 . S
C459 C458 1.502 . S
C460 H446 0.960 . S
C460 H447 0.961 . S
C460 H448 0.959 . S
C460 C458 1.561 . S
C461 C458 1.526 . S
C461 C462 1.396 . S
C461 C466 1.390 . S
C462 C456 1.465 . S
C462 C461 1.396 . S
C462 C463 1.399 . S
C463 H449 0.929 . S
C463 C462 1.399 . S
C463 C464 1.385 . S
C464 H450 0.931 . S
C464 C463 1.385 . S
C464 C465 1.389 . S
C465 C464 1.389 . S
C465 C466 1.387 . S
C466 H451 0.930 . S
C466 C461 1.390 . S
C466 C465 1.387 . S
H467 C479 0.930 . S
H468 C481 0.930 . S
H469 C482 0.930 . S
H470 C486 0.959 . S
H471 C486 0.959 . S
H472 C486 0.961 . S
H473 C487 0.960 . S
H474 C487 0.961 . S
H475 C487 0.959 . S
H476 C490 0.929 . S
H477 C491 0.931 . S
H478 C493 0.930 . S
C479 H467 0.930 . S
C479 C480 1.399 . S
C479 C484 1.399 . S
C480 C479 1.399 . S
C480 C481 1.376 . S
C481 H468 0.930 . S
C481 C480 1.376 . S
C481 C482 1.388 . S
C482 H469 0.930 . S
C482 C481 1.388 . S
C482 C483 1.390 . S
C483 C482 1.390 . S
C483 C484 1.394 . S
C483 C489 1.465 . S
C484 C479 1.399 . S
C484 C483 1.394 . S
C484 C485 1.516 . S
C485 C484 1.516 . S
C485 C486 1.502 . S
C485 C487 1.561 . S
C485 C488 1.526 . S
C486 H470 0.959 . S
C486 H471 0.959 . S
C486 H472 0.961 . S
C486 C485 1.502 . S
C487 H473 0.960 . S
C487 H474 0.961 . S
C487 H475 0.959 . S
C487 C485 1.561 . S
C488 C485 1.526 . S
C488 C489 1.396 . S
C488 C493 1.390 . S
C489 C483 1.465 . S
C489 C488 1.396 . S
C489 C490 1.399 . S
C490 H476 0.929 . S
C490 C489 1.399 . S
C490 C491 1.385 . S
C491 H477 0.931 . S
C491 C490 1.385 . S
C491 C492 1.389 . S
C492 C491 1.389 . S
C492 C493 1.387 . S
C493 H478 0.930 . S
C493 C488 1.390 . S
C493 C492 1.387 . S
H494 C506 0.930 . S
H495 C508 0.930 . S
H496 C509 0.930 . S
H497 C513 0.959 . S
H498 C513 0.959 . S
H499 C513 0.961 . S
H500 C514 0.960 . S
H501 C514 0.961 . S
H502 C514 0.959 . S
H503 C517 0.929 . S
H504 C518 0.931 . S
H505 C520 0.930 . S
C506 H494 0.930 . S
C506 C507 1.399 . S
C506 C511 1.399 . S
C507 C506 1.399 . S
C507 C508 1.376 . S
C508 H495 0.930 . S
C508 C507 1.376 . S
C508 C509 1.388 . S
C509 H496 0.930 . S
C509 C508 1.388 . S
C509 C510 1.390 . S
C510 C509 1.390 . S
C510 C511 1.394 . S
C510 C516 1.465 . S
C511 C506 1.399 . S
C511 C510 1.394 . S
C511 C512 1.516 . S
C512 C511 1.516 . S
C512 C513 1.502 . S
C512 C514 1.561 . S
C512 C515 1.526 . S
C513 H497 0.959 . S
C513 H498 0.959 . S
C513 H499 0.961 . S
C513 C512 1.502 . S
C514 H500 0.960 . S
C514 H501 0.961 . S
C514 H502 0.959 . S
C514 C512 1.561 . S
C515 C512 1.526 . S
C515 C516 1.396 . S
C515 C520 1.390 . S
C516 C510 1.465 . S
C516 C515 1.396 . S
C516 C517 1.399 . S
C517 H503 0.929 . S
C517 C516 1.399 . S
C517 C518 1.385 . S
C518 H504 0.931 . S
C518 C517 1.385 . S
C518 C519 1.389 . S
C519 C518 1.389 . S
C519 C520 1.387 . S
C520 H505 0.930 . S
C520 C515 1.390 . S
C520 C519 1.387 . S
H521 C533 0.930 . S
H522 C535 0.930 . S
H523 C536 0.930 . S
H524 C540 0.959 . S
H525 C540 0.959 . S
H526 C540 0.961 . S
H527 C541 0.960 . S
H528 C541 0.961 . S
H529 C541 0.959 . S
H530 C544 0.929 . S
H531 C545 0.931 . S
H532 C547 0.930 . S
C533 H521 0.930 . S
C533 C534 1.399 . S
C533 C538 1.399 . S
C534 C533 1.399 . S
C534 C535 1.376 . S
C535 H522 0.930 . S
C535 C534 1.376 . S
C535 C536 1.388 . S
C536 H523 0.930 . S
C536 C535 1.388 . S
C536 C537 1.390 . S
C537 C536 1.390 . S
C537 C538 1.394 . S
C537 C543 1.465 . S
C538 C533 1.399 . S
C538 C537 1.394 . S
C538 C539 1.516 . S
C539 C538 1.516 . S
C539 C540 1.502 . S
C539 C541 1.561 . S
C539 C542 1.526 . S
C540 H524 0.959 . S
C540 H525 0.959 . S
C540 H526 0.961 . S
C540 C539 1.502 . S
C541 H527 0.960 . S
C541 H528 0.961 . S
C541 H529 0.959 . S
C541 C539 1.561 . S
C542 C539 1.526 . S
C542 C543 1.396 . S
C542 C547 1.390 . S
C543 C537 1.465 . S
C543 C542 1.396 . S
C543 C544 1.399 . S
C544 H530 0.929 . S
C544 C543 1.399 . S
C544 C545 1.385 . S
C545 H531 0.931 . S
C545 C544 1.385 . S
C545 C546 1.389 . S
C546 C545 1.389 . S
C546 C547 1.387 . S
C547 H532 0.930 . S
C547 C542 1.390 . S
C547 C546 1.387 . S
H548 C560 0.930 . S
H549 C562 0.930 . S
H550 C563 0.930 . S
H551 C567 0.959 . S
H552 C567 0.959 . S
H553 C567 0.961 . S
H554 C568 0.960 . S
H555 C568 0.961 . S
H556 C568 0.959 . S
H557 C571 0.929 . S
H558 C572 0.931 . S
H559 C574 0.930 . S
C560 H548 0.930 . S
C560 C561 1.399 . S
C560 C565 1.399 . S
C561 C560 1.399 . S
C561 C562 1.376 . S
C562 H549 0.930 . S
C562 C561 1.376 . S
C562 C563 1.388 . S
C563 H550 0.930 . S
C563 C562 1.388 . S
C563 C564 1.390 . S
C564 C563 1.390 . S
C564 C565 1.394 . S
C564 C570 1.465 . S
C565 C560 1.399 . S
C565 C564 1.394 . S
C565 C566 1.516 . S
C566 C565 1.516 . S
C566 C567 1.502 . S
C566 C568 1.561 . S
C566 C569 1.526 . S
C567 H551 0.959 . S
C567 H552 0.959 . S
C567 H553 0.961 . S
C567 C566 1.502 . S
C568 H554 0.960 . S
C568 H555 0.961 . S
C568 H556 0.959 . S
C568 C566 1.561 . S
C569 C566 1.526 . S
C569 C570 1.396 . S
C569 C574 1.390 . S
C570 C564 1.465 . S
C570 C569 1.396 . S
C570 C571 1.399 . S
C571 H557 0.929 . S
C571 C570 1.399 . S
C571 C572 1.385 . S
C572 H558 0.931 . S
C572 C571 1.385 . S
C572 C573 1.389 . S
C573 C572 1.389 . S
C573 C574 1.387 . S
C574 H559 0.930 . S
C574 C569 1.390 . S
C574 C573 1.387 . S
H575 C587 0.930 . S
H576 C589 0.930 . S
H577 C590 0.930 . S
H578 C594 0.959 . S
H579 C594 0.959 . S
H580 C594 0.961 . S
H581 C595 0.960 . S
H582 C595 0.961 . S
H583 C595 0.959 . S
H584 C598 0.929 . S
H585 C599 0.931 . S
H586 C601 0.930 . S
C587 H575 0.930 . S
C587 C588 1.399 . S
C587 C592 1.399 . S
C588 C587 1.399 . S
C588 C589 1.376 . S
C589 H576 0.930 . S
C589 C588 1.376 . S
C589 C590 1.388 . S
C590 H577 0.930 . S
C590 C589 1.388 . S
C590 C591 1.390 . S
C591 C590 1.390 . S
C591 C592 1.394 . S
C591 C597 1.465 . S
C592 C587 1.399 . S
C592 C591 1.394 . S
C592 C593 1.516 . S
C593 C592 1.516 . S
C593 C594 1.502 . S
C593 C595 1.561 . S
C593 C596 1.526 . S
C594 H578 0.959 . S
C594 H579 0.959 . S
C594 H580 0.961 . S
C594 C593 1.502 . S
C595 H581 0.960 . S
C595 H582 0.961 . S
C595 H583 0.959 . S
C595 C593 1.561 . S
C596 C593 1.526 . S
C596 C597 1.396 . S
C596 C601 1.390 . S
C597 C591 1.465 . S
C597 C596 1.396 . S
C597 C598 1.399 . S
C598 H584 0.929 . S
C598 C597 1.399 . S
C598 C599 1.385 . S
C599 H585 0.931 . S
C599 C598 1.385 . S
C599 C600 1.389 . S
C600 C599 1.389 . S
C600 C601 1.387 . S
C601 H586 0.930 . S
C601 C596 1.390 . S
C601 C600 1.387 . S
H602 C614 0.930 . S
H603 C616 0.930 . S
H604 C617 0.930 . S
H605 C621 0.959 . S
H606 C621 0.959 . S
H607 C621 0.961 . S
H608 C622 0.960 . S
H609 C622 0.961 . S
H610 C622 0.959 . S
H611 C625 0.929 . S
H612 C626 0.931 . S
H613 C628 0.930 . S
C614 H602 0.930 . S
C614 C615 1.399 . S
C614 C619 1.399 . S
C615 C614 1.399 . S
C615 C616 1.376 . S
C616 H603 0.930 . S
C616 C615 1.376 . S
C616 C617 1.388 . S
C617 H604 0.930 . S
C617 C616 1.388 . S
C617 C618 1.390 . S
C618 C617 1.390 . S
C618 C619 1.394 . S
C618 C624 1.465 . S
C619 C614 1.399 . S
C619 C618 1.394 . S
C619 C620 1.516 . S
C620 C619 1.516 . S
C620 C621 1.502 . S
C620 C622 1.561 . S
C620 C623 1.526 . S
C621 H605 0.959 . S
C621 H606 0.959 . S
C621 H607 0.961 . S
C621 C620 1.502 . S
C622 H608 0.960 . S
C622 H609 0.961 . S
C622 H610 0.959 . S
C622 C620 1.561 . S
C623 C620 1.526 . S
C623 C624 1.396 . S
C623 C628 1.390 . S
C624 C618 1.465 . S
C624 C623 1.396 . S
C624 C625 1.399 . S
C625 H611 0.929 . S
C625 C624 1.399 . S
C625 C626 1.385 . S
C626 H612 0.931 . S
C626 C625 1.385 . S
C626 C627 1.389 . S
C627 C626 1.389 . S
C627 C628 1.387 . S
C628 H613 0.930 . S
C628 C623 1.390 . S
C628 C627 1.387 . S
H629 C641 0.930 . S
H630 C643 0.930 . S
H631 C644 0.930 . S
H632 C648 0.959 . S
H633 C648 0.959 . S
H634 C648 0.961 . S
H635 C649 0.960 . S
H636 C649 0.961 . S
H637 C649 0.959 . S
H638 C652 0.929 . S
H639 C653 0.931 . S
H640 C655 0.930 . S
C641 H629 0.930 . S
C641 C642 1.399 . S
C641 C646 1.399 . S
C642 C641 1.399 . S
C642 C643 1.376 . S
C643 H630 0.930 . S
C643 C642 1.376 . S
C643 C644 1.388 . S
C644 H631 0.930 . S
C644 C643 1.388 . S
C644 C645 1.390 . S
C645 C644 1.390 . S
C645 C646 1.394 . S
C645 C651 1.465 . S
C646 C641 1.399 . S
C646 C645 1.394 . S
C646 C647 1.516 . S
C647 C646 1.516 . S
C647 C648 1.502 . S
C647 C649 1.561 . S
C647 C650 1.526 . S
C648 H632 0.959 . S
C648 H633 0.959 . S
C648 H634 0.961 . S
C648 C647 1.502 . S
C649 H635 0.960 . S
C649 H636 0.961 . S
C649 H637 0.959 . S
C649 C647 1.561 . S
C650 C647 1.526 . S
C650 C651 1.396 . S
C650 C655 1.390 . S
C651 C645 1.465 . S
C651 C650 1.396 . S
C651 C652 1.399 . S
C652 H638 0.929 . S
C652 C651 1.399 . S
C652 C653 1.385 . S
C653 H639 0.931 . S
C653 C652 1.385 . S
C653 C654 1.389 . S
C654 C653 1.389 . S
C654 C655 1.387 . S
C655 H640 0.930 . S
C655 C650 1.390 . S
C655 C654 1.387 . S
H656 C668 0.930 . S
H657 C670 0.930 . S
H658 C671 0.930 . S
H659 C675 0.962 . S
H660 C675 0.979 . S
H661 C675 0.940 1_556 S
H662 C676 0.958 1_556 S
H663 C676 0.963 . S
H664 C676 0.959 . S
H665 C679 0.929 . S
H666 C680 0.931 . S
H667 C682 0.930 . S
C668 H656 0.930 . S
C668 C669 1.399 . S
C668 C673 1.399 . S
C669 C668 1.399 . S
C669 C670 1.376 . S
C670 H657 0.930 . S
C670 C669 1.376 . S
C670 C671 1.388 . S
C671 H658 0.930 . S
C671 C670 1.388 . S
C671 C672 1.390 . S
C672 C671 1.390 . S
C672 C673 1.394 . S
C672 C678 1.465 1_556 S
C673 C668 1.399 . S
C673 C672 1.394 . S
C673 C674 1.517 1_556 S
C674 C673 1.517 1_554 S
C674 C675 1.502 . S
C674 C676 1.561 . S
C674 C677 1.525 . S
C675 H659 0.962 . S
C675 H660 0.979 . S
C675 H661 0.940 1_554 S
C675 C674 1.502 . S
C676 H662 0.958 1_554 S
C676 H663 0.963 . S
C676 H664 0.959 . S
C676 C674 1.561 . S
C677 C674 1.525 . S
C677 C678 1.396 . S
C677 C682 1.390 . S
C678 C672 1.465 1_554 S
C678 C677 1.396 . S
C678 C679 1.399 . S
C679 H665 0.929 . S
C679 C678 1.399 . S
C679 C680 1.385 . S
C680 H666 0.931 . S
C680 C679 1.385 . S
C680 C681 1.389 . S
C681 C680 1.389 . S
C681 C682 1.387 . S
C682 H667 0.930 . S
C682 C677 1.390 . S
C682 C681 1.387 . S
H683 C695 0.930 . S
H684 C697 0.930 . S
H685 C698 0.930 . S
H686 C702 0.959 . S
H687 C702 0.959 . S
H688 C702 0.961 . S
H689 C703 0.960 . S
H690 C703 0.961 . S
H691 C703 0.959 . S
H692 C706 0.929 . S
H693 C707 0.931 . S
H694 C709 0.930 . S
C695 H683 0.930 . S
C695 C696 1.399 . S
C695 C700 1.399 . S
C696 C695 1.399 . S
C696 C697 1.376 . S
C697 H684 0.930 . S
C697 C696 1.376 . S
C697 C698 1.388 . S
C698 H685 0.930 . S
C698 C697 1.388 . S
C698 C699 1.390 . S
C699 C698 1.390 . S
C699 C700 1.394 . S
C699 C705 1.465 . S
C700 C695 1.399 . S
C700 C699 1.394 . S
C700 C701 1.516 . S
C701 C700 1.516 . S
C701 C702 1.502 . S
C701 C703 1.561 . S
C701 C704 1.526 . S
C702 H686 0.959 . S
C702 H687 0.959 . S
C702 H688 0.961 . S
C702 C701 1.502 . S
C703 H689 0.960 . S
C703 H690 0.961 . S
C703 H691 0.959 . S
C703 C701 1.561 . S
C704 C701 1.526 . S
C704 C705 1.396 . S
C704 C709 1.390 . S
C705 C699 1.465 . S
C705 C704 1.396 . S
C705 C706 1.399 . S
C706 H692 0.929 . S
C706 C705 1.399 . S
C706 C707 1.385 . S
C707 H693 0.931 . S
C707 C706 1.385 . S
C707 C708 1.389 . S
C708 C707 1.389 . S
C708 C709 1.387 . S
C709 H694 0.930 . S
C709 C704 1.390 . S
C709 C708 1.387 . S
H710 C722 0.930 . S
H711 C724 0.930 . S
H712 C725 0.930 . S
H713 C729 0.962 . S
H714 C729 0.979 . S
H715 C729 0.940 1_554 S
H716 C730 0.958 1_554 S
H717 C730 0.963 . S
H718 C730 0.959 . S
H719 C733 0.929 . S
H720 C734 0.931 . S
H721 C736 0.930 . S
C722 H710 0.930 . S
C722 C723 1.399 . S
C722 C727 1.399 . S
C723 C722 1.399 . S
C723 C724 1.376 . S
C724 H711 0.930 . S
C724 C723 1.376 . S
C724 C725 1.388 . S
C725 H712 0.930 . S
C725 C724 1.388 . S
C725 C726 1.390 . S
C726 C725 1.390 . S
C726 C727 1.394 . S
C726 C732 1.465 1_554 S
C727 C722 1.399 . S
C727 C726 1.394 . S
C727 C728 1.517 1_554 S
C728 C727 1.517 1_556 S
C728 C729 1.502 . S
C728 C730 1.561 . S
C728 C731 1.525 . S
C729 H713 0.962 . S
C729 H714 0.979 . S
C729 H715 0.940 1_556 S
C729 C728 1.502 . S
C730 H716 0.958 1_556 S
C730 H717 0.963 . S
C730 H718 0.959 . S
C730 C728 1.561 . S
C731 C728 1.525 . S
C731 C732 1.396 . S
C731 C736 1.390 . S
C732 C726 1.465 1_556 S
C732 C731 1.396 . S
C732 C733 1.399 . S
C733 H719 0.929 . S
C733 C732 1.399 . S
C733 C734 1.385 . S
C734 H720 0.931 . S
C734 C733 1.385 . S
C734 C735 1.389 . S
C735 C734 1.389 . S
C735 C736 1.387 . S
C736 H721 0.930 . S
C736 C731 1.390 . S
C736 C735 1.387 . S
H737 C749 0.930 . S
H738 C751 0.930 . S
H739 C752 0.930 . S
H740 C756 0.959 . S
H741 C756 0.959 . S
H742 C756 0.961 . S
H743 C757 0.960 . S
H744 C757 0.961 . S
H745 C757 0.959 . S
H746 C760 0.929 . S
H747 C761 0.931 . S
H748 C763 0.930 . S
C749 H737 0.930 . S
C749 C750 1.399 . S
C749 C754 1.399 . S
C750 C749 1.399 . S
C750 C751 1.376 . S
C751 H738 0.930 . S
C751 C750 1.376 . S
C751 C752 1.388 . S
C752 H739 0.930 . S
C752 C751 1.388 . S
C752 C753 1.390 . S
C753 C752 1.390 . S
C753 C754 1.394 . S
C753 C759 1.465 . S
C754 C749 1.399 . S
C754 C753 1.394 . S
C754 C755 1.516 . S
C755 C754 1.516 . S
C755 C756 1.502 . S
C755 C757 1.561 . S
C755 C758 1.526 . S
C756 H740 0.959 . S
C756 H741 0.959 . S
C756 H742 0.961 . S
C756 C755 1.502 . S
C757 H743 0.960 . S
C757 H744 0.961 . S
C757 H745 0.959 . S
C757 C755 1.561 . S
C758 C755 1.526 . S
C758 C759 1.396 . S
C758 C763 1.390 . S
C759 C753 1.465 . S
C759 C758 1.396 . S
C759 C760 1.399 . S
C760 H746 0.929 . S
C760 C759 1.399 . S
C760 C761 1.385 . S
C761 H747 0.931 . S
C761 C760 1.385 . S
C761 C762 1.389 . S
C762 C761 1.389 . S
C762 C763 1.387 . S
C763 H748 0.930 . S
C763 C758 1.390 . S
C763 C762 1.387 . S
H764 C776 0.930 . S
H765 C778 0.930 . S
H766 C779 0.930 . S
H767 C783 0.959 . S
H768 C783 0.959 . S
H769 C783 0.961 . S
H770 C784 0.960 . S
H771 C784 0.961 . S
H772 C784 0.959 . S
H773 C787 0.929 . S
H774 C788 0.931 . S
H775 C790 0.930 . S
C776 H764 0.930 . S
C776 C777 1.399 . S
C776 C781 1.399 . S
C777 C776 1.399 . S
C777 C778 1.376 . S
C778 H765 0.930 . S
C778 C777 1.376 . S
C778 C779 1.388 . S
C779 H766 0.930 . S
C779 C778 1.388 . S
C779 C780 1.390 . S
C780 C779 1.390 . S
C780 C781 1.394 . S
C780 C786 1.465 . S
C781 C776 1.399 . S
C781 C780 1.394 . S
C781 C782 1.516 . S
C782 C781 1.516 . S
C782 C783 1.502 . S
C782 C784 1.561 . S
C782 C785 1.526 . S
C783 H767 0.959 . S
C783 H768 0.959 . S
C783 H769 0.961 . S
C783 C782 1.502 . S
C784 H770 0.960 . S
C784 H771 0.961 . S
C784 H772 0.959 . S
C784 C782 1.561 . S
C785 C782 1.526 . S
C785 C786 1.396 . S
C785 C790 1.390 . S
C786 C780 1.465 . S
C786 C785 1.396 . S
C786 C787 1.399 . S
C787 H773 0.929 . S
C787 C786 1.399 . S
C787 C788 1.385 . S
C788 H774 0.931 . S
C788 C787 1.385 . S
C788 C789 1.389 . S
C789 C788 1.389 . S
C789 C790 1.387 . S
C790 H775 0.930 . S
C790 C785 1.390 . S
C790 C789 1.387 . S
H791 C803 0.930 . S
H792 C805 0.930 . S
H793 C806 0.930 . S
H794 C810 0.962 . S
H795 C810 0.979 . S
H796 C810 0.940 1_556 S
H797 C811 0.958 1_556 S
H798 C811 0.963 . S
H799 C811 0.959 . S
H800 C814 0.929 . S
H801 C815 0.931 . S
H802 C817 0.930 . S
C803 H791 0.930 . S
C803 C804 1.399 . S
C803 C808 1.399 . S
C804 C803 1.399 . S
C804 C805 1.376 . S
C805 H792 0.930 . S
C805 C804 1.376 . S
C805 C806 1.388 . S
C806 H793 0.930 . S
C806 C805 1.388 . S
C806 C807 1.390 . S
C807 C806 1.390 . S
C807 C808 1.394 . S
C807 C813 1.465 1_556 S
C808 C803 1.399 . S
C808 C807 1.394 . S
C808 C809 1.517 1_556 S
C809 C808 1.517 1_554 S
C809 C810 1.502 . S
C809 C811 1.561 . S
C809 C812 1.525 . S
C810 H794 0.962 . S
C810 H795 0.979 . S
C810 H796 0.940 1_554 S
C810 C809 1.502 . S
C811 H797 0.958 1_554 S
C811 H798 0.963 . S
C811 H799 0.959 . S
C811 C809 1.561 . S
C812 C809 1.525 . S
C812 C813 1.396 . S
C812 C817 1.390 . S
C813 C807 1.465 1_554 S
C813 C812 1.396 . S
C813 C814 1.399 . S
C814 H800 0.929 . S
C814 C813 1.399 . S
C814 C815 1.385 . S
C815 H801 0.931 . S
C815 C814 1.385 . S
C815 C816 1.389 . S
C816 C815 1.389 . S
C816 C817 1.387 . S
C817 H802 0.930 . S
C817 C812 1.390 . S
C817 C816 1.387 . S
H818 C830 0.930 . S
H819 C832 0.930 . S
H820 C833 0.930 . S
H821 C837 0.959 . S
H822 C837 0.959 . S
H823 C837 0.961 . S
H824 C838 0.960 . S
H825 C838 0.961 . S
H826 C838 0.959 . S
H827 C841 0.929 . S
H828 C842 0.931 . S
H829 C844 0.930 . S
C830 H818 0.930 . S
C830 C831 1.399 . S
C830 C835 1.399 . S
C831 C830 1.399 . S
C831 C832 1.376 . S
C832 H819 0.930 . S
C832 C831 1.376 . S
C832 C833 1.388 . S
C833 H820 0.930 . S
C833 C832 1.388 . S
C833 C834 1.390 . S
C834 C833 1.390 . S
C834 C835 1.394 . S
C834 C840 1.465 . S
C835 C830 1.399 . S
C835 C834 1.394 . S
C835 C836 1.516 . S
C836 C835 1.516 . S
C836 C837 1.502 . S
C836 C838 1.561 . S
C836 C839 1.526 . S
C837 H821 0.959 . S
C837 H822 0.959 . S
C837 H823 0.961 . S
C837 C836 1.502 . S
C838 H824 0.960 . S
C838 H825 0.961 . S
C838 H826 0.959 . S
C838 C836 1.561 . S
C839 C836 1.526 . S
C839 C840 1.396 . S
C839 C844 1.390 . S
C840 C834 1.465 . S
C840 C839 1.396 . S
C840 C841 1.399 . S
C841 H827 0.929 . S
C841 C840 1.399 . S
C841 C842 1.385 . S
C842 H828 0.931 . S
C842 C841 1.385 . S
C842 C843 1.389 . S
C843 C842 1.389 . S
C843 C844 1.387 . S
C844 H829 0.930 . S
C844 C839 1.390 . S
C844 C843 1.387 . S
H845 C857 0.930 . S
H846 C859 0.930 . S
H847 C860 0.930 . S
H848 C864 0.962 . S
H849 C864 0.979 . S
H850 C864 0.940 1_554 S
H851 C865 0.958 1_554 S
H852 C865 0.963 . S
H853 C865 0.959 . S
H854 C868 0.929 . S
H855 C869 0.931 . S
H856 C871 0.930 . S
C857 H845 0.930 . S
C857 C858 1.399 . S
C857 C862 1.399 . S
C858 C857 1.399 . S
C858 C859 1.376 . S
C859 H846 0.930 . S
C859 C858 1.376 . S
C859 C860 1.388 . S
C860 H847 0.930 . S
C860 C859 1.388 . S
C860 C861 1.390 . S
C861 C860 1.390 . S
C861 C862 1.394 . S
C861 C867 1.465 1_554 S
C862 C857 1.399 . S
C862 C861 1.394 . S
C862 C863 1.517 1_554 S
C863 C862 1.517 1_556 S
C863 C864 1.502 . S
C863 C865 1.561 . S
C863 C866 1.525 . S
C864 H848 0.962 . S
C864 H849 0.979 . S
C864 H850 0.940 1_556 S
C864 C863 1.502 . S
C865 H851 0.958 1_556 S
C865 H852 0.963 . S
C865 H853 0.959 . S
C865 C863 1.561 . S
C866 C863 1.525 . S
C866 C867 1.396 . S
C866 C871 1.390 . S
C867 C861 1.465 1_556 S
C867 C866 1.396 . S
C867 C868 1.399 . S
C868 H854 0.929 . S
C868 C867 1.399 . S
C868 C869 1.385 . S
C869 H855 0.931 . S
C869 C868 1.385 . S
C869 C870 1.389 . S
C870 C869 1.389 . S
C870 C871 1.387 . S
C871 H856 0.930 . S
C871 C866 1.390 . S
C871 C870 1.387 . S
H872 C884 0.930 . S
H873 C886 0.930 . S
H874 C887 0.930 . S
H875 C891 0.959 . S
H876 C891 0.959 . S
H877 C891 0.961 . S
H878 C892 0.960 . S
H879 C892 0.961 . S
H880 C892 0.959 . S
H881 C895 0.929 . S
H882 C896 0.931 . S
H883 C898 0.930 . S
C884 H872 0.930 . S
C884 C885 1.399 . S
C884 C889 1.399 . S
C885 C884 1.399 . S
C885 C886 1.376 . S
C886 H873 0.930 . S
C886 C885 1.376 . S
C886 C887 1.388 . S
C887 H874 0.930 . S
C887 C886 1.388 . S
C887 C888 1.390 . S
C888 C887 1.390 . S
C888 C889 1.394 . S
C888 C894 1.465 . S
C889 C884 1.399 . S
C889 C888 1.394 . S
C889 C890 1.516 . S
C890 C889 1.516 . S
C890 C891 1.502 . S
C890 C892 1.561 . S
C890 C893 1.526 . S
C891 H875 0.959 . S
C891 H876 0.959 . S
C891 H877 0.961 . S
C891 C890 1.502 . S
C892 H878 0.960 . S
C892 H879 0.961 . S
C892 H880 0.959 . S
C892 C890 1.561 . S
C893 C890 1.526 . S
C893 C894 1.396 . S
C893 C898 1.390 . S
C894 C888 1.465 . S
C894 C893 1.396 . S
C894 C895 1.399 . S
C895 H881 0.929 . S
C895 C894 1.399 . S
C895 C896 1.385 . S
C896 H882 0.931 . S
C896 C895 1.385 . S
C896 C897 1.389 . S
C897 C896 1.389 . S
C897 C898 1.387 . S
C898 H883 0.930 . S
C898 C893 1.390 . S
C898 C897 1.387 . S
H899 C911 0.930 . S
H900 C913 0.930 . S
H901 C914 0.930 . S
H902 C918 0.959 . S
H903 C918 0.959 . S
H904 C918 0.961 . S
H905 C919 0.960 . S
H906 C919 0.961 . S
H907 C919 0.959 . S
H908 C922 0.929 . S
H909 C923 0.931 . S
H910 C925 0.930 . S
C911 H899 0.930 . S
C911 C912 1.399 . S
C911 C916 1.399 . S
C912 C911 1.399 . S
C912 C913 1.376 . S
C913 H900 0.930 . S
C913 C912 1.376 . S
C913 C914 1.388 . S
C914 H901 0.930 . S
C914 C913 1.388 . S
C914 C915 1.390 . S
C915 C914 1.390 . S
C915 C916 1.394 . S
C915 C921 1.465 . S
C916 C911 1.399 . S
C916 C915 1.394 . S
C916 C917 1.516 . S
C917 C916 1.516 . S
C917 C918 1.502 . S
C917 C919 1.561 . S
C917 C920 1.526 . S
C918 H902 0.959 . S
C918 H903 0.959 . S
C918 H904 0.961 . S
C918 C917 1.502 . S
C919 H905 0.960 . S
C919 H906 0.961 . S
C919 H907 0.959 . S
C919 C917 1.561 . S
C920 C917 1.526 . S
C920 C921 1.396 . S
C920 C925 1.390 . S
C921 C915 1.465 . S
C921 C920 1.396 . S
C921 C922 1.399 . S
C922 H908 0.929 . S
C922 C921 1.399 . S
C922 C923 1.385 . S
C923 H909 0.931 . S
C923 C922 1.385 . S
C923 C924 1.389 . S
C924 C923 1.389 . S
C924 C925 1.387 . S
C925 H910 0.930 . S
C925 C920 1.390 . S
C925 C924 1.387 . S
H926 C938 0.930 . S
H927 C940 0.930 . S
H928 C941 0.930 . S
H929 C945 0.959 . S
H930 C945 0.959 . S
H931 C945 0.961 . S
H932 C946 0.960 . S
H933 C946 0.961 . S
H934 C946 0.959 . S
H935 C949 0.929 . S
H936 C950 0.931 . S
H937 C952 0.930 . S
C938 H926 0.930 . S
C938 C939 1.399 . S
C938 C943 1.399 . S
C939 C938 1.399 . S
C939 C940 1.376 . S
C940 H927 0.930 . S
C940 C939 1.376 . S
C940 C941 1.388 . S
C941 H928 0.930 . S
C941 C940 1.388 . S
C941 C942 1.390 . S
C942 C941 1.390 . S
C942 C943 1.394 . S
C942 C948 1.465 . S
C943 C938 1.399 . S
C943 C942 1.394 . S
C943 C944 1.516 . S
C944 C943 1.516 . S
C944 C945 1.502 . S
C944 C946 1.561 . S
C944 C947 1.526 . S
C945 H929 0.959 . S
C945 H930 0.959 . S
C945 H931 0.961 . S
C945 C944 1.502 . S
C946 H932 0.960 . S
C946 H933 0.961 . S
C946 H934 0.959 . S
C946 C944 1.561 . S
C947 C944 1.526 . S
C947 C948 1.396 . S
C947 C952 1.390 . S
C948 C942 1.465 . S
C948 C947 1.396 . S
C948 C949 1.399 . S
C949 H935 0.929 . S
C949 C948 1.399 . S
C949 C950 1.385 . S
C950 H936 0.931 . S
C950 C949 1.385 . S
C950 C951 1.389 . S
C951 C950 1.389 . S
C951 C952 1.387 . S
C952 H937 0.930 . S
C952 C947 1.390 . S
C952 C951 1.387 . S
H953 C965 0.930 . S
H954 C967 0.930 . S
H955 C968 0.930 . S
H956 C972 0.959 . S
H957 C972 0.959 . S
H958 C972 0.961 . S
H959 C973 0.960 . S
H960 C973 0.961 . S
H961 C973 0.959 . S
H962 C976 0.929 . S
H963 C977 0.931 . S
H964 C979 0.930 . S
C965 H953 0.930 . S
C965 C966 1.399 . S
C965 C970 1.399 . S
C966 C965 1.399 . S
C966 C967 1.376 . S
C967 H954 0.930 . S
C967 C966 1.376 . S
C967 C968 1.388 . S
C968 H955 0.930 . S
C968 C967 1.388 . S
C968 C969 1.390 . S
C969 C968 1.390 . S
C969 C970 1.394 . S
C969 C975 1.465 . S
C970 C965 1.399 . S
C970 C969 1.394 . S
C970 C971 1.516 . S
C971 C970 1.516 . S
C971 C972 1.502 . S
C971 C973 1.561 . S
C971 C974 1.526 . S
C972 H956 0.959 . S
C972 H957 0.959 . S
C972 H958 0.961 . S
C972 C971 1.502 . S
C973 H959 0.960 . S
C973 H960 0.961 . S
C973 H961 0.959 . S
C973 C971 1.561 . S
C974 C971 1.526 . S
C974 C975 1.396 . S
C974 C979 1.390 . S
C975 C969 1.465 . S
C975 C974 1.396 . S
C975 C976 1.399 . S
C976 H962 0.929 . S
C976 C975 1.399 . S
C976 C977 1.385 . S
C977 H963 0.931 . S
C977 C976 1.385 . S
C977 C978 1.389 . S
C978 C977 1.389 . S
C978 C979 1.387 . S
C979 H964 0.930 . S
C979 C974 1.390 . S
C979 C978 1.387 . S
H980 C992 0.930 . S
H981 C994 0.930 . S
H982 C995 0.930 . S
H983 C999 0.959 . S
H984 C999 0.959 . S
H985 C999 0.961 . S
H986 C1000 0.960 . S
H987 C1000 0.961 . S
H988 C1000 0.959 . S
H989 C1003 0.929 . S
H990 C1004 0.931 . S
H991 C1006 0.930 . S
C992 H980 0.930 . S
C992 C993 1.399 . S
C992 C997 1.399 . S
C993 C992 1.399 . S
C993 C994 1.376 . S
C994 H981 0.930 . S
C994 C993 1.376 . S
C994 C995 1.388 . S
C995 H982 0.930 . S
C995 C994 1.388 . S
C995 C996 1.390 . S
C996 C995 1.390 . S
C996 C997 1.394 . S
C996 C1002 1.465 . S
C997 C992 1.399 . S
C997 C996 1.394 . S
C997 C998 1.516 . S
C998 C997 1.516 . S
C998 C999 1.502 . S
C998 C1000 1.561 . S
C998 C1001 1.526 . S
C999 H983 0.959 . S
C999 H984 0.959 . S
C999 H985 0.961 . S
C999 C998 1.502 . S
C1000 H986 0.960 . S
C1000 H987 0.961 . S
C1000 H988 0.959 . S
C1000 C998 1.561 . S
C1001 C998 1.526 . S
C1001 C1002 1.396 . S
C1001 C1006 1.390 . S
C1002 C996 1.465 . S
C1002 C1001 1.396 . S
C1002 C1003 1.399 . S
C1003 H989 0.929 . S
C1003 C1002 1.399 . S
C1003 C1004 1.385 . S
C1004 H990 0.931 . S
C1004 C1003 1.385 . S
C1004 C1005 1.389 . S
C1005 C1004 1.389 . S
C1005 C1006 1.387 . S
C1006 H991 0.930 . S
C1006 C1001 1.390 . S
C1006 C1005 1.387 . S
H1007 C1019 0.930 . S
H1008 C1021 0.930 . S
H1009 C1022 0.930 . S
H1010 C1026 0.959 . S
H1011 C1026 0.959 . S
H1012 C1026 0.961 . S
H1013 C1027 0.960 . S
H1014 C1027 0.961 . S
H1015 C1027 0.959 . S
H1016 C1030 0.929 . S
H1017 C1031 0.931 . S
H1018 C1033 0.930 . S
C1019 H1007 0.930 . S
C1019 C1020 1.399 . S
C1019 C1024 1.399 . S
C1020 C1019 1.399 . S
C1020 C1021 1.376 . S
C1021 H1008 0.930 . S
C1021 C1020 1.376 . S
C1021 C1022 1.388 . S
C1022 H1009 0.930 . S
C1022 C1021 1.388 . S
C1022 C1023 1.390 . S
C1023 C1022 1.390 . S
C1023 C1024 1.394 . S
C1023 C1029 1.465 . S
C1024 C1019 1.399 . S
C1024 C1023 1.394 . S
C1024 C1025 1.516 . S
C1025 C1024 1.516 . S
C1025 C1026 1.502 . S
C1025 C1027 1.561 . S
C1025 C1028 1.526 . S
C1026 H1010 0.959 . S
C1026 H1011 0.959 . S
C1026 H1012 0.961 . S
C1026 C1025 1.502 . S
C1027 H1013 0.960 . S
C1027 H1014 0.961 . S
C1027 H1015 0.959 . S
C1027 C1025 1.561 . S
C1028 C1025 1.526 . S
C1028 C1029 1.396 . S
C1028 C1033 1.390 . S
C1029 C1023 1.465 . S
C1029 C1028 1.396 . S
C1029 C1030 1.399 . S
C1030 H1016 0.929 . S
C1030 C1029 1.399 . S
C1030 C1031 1.385 . S
C1031 H1017 0.931 . S
C1031 C1030 1.385 . S
C1031 C1032 1.389 . S
C1032 C1031 1.389 . S
C1032 C1033 1.387 . S
C1033 H1018 0.930 . S
C1033 C1028 1.390 . S
C1033 C1032 1.387 . S
H1034 C1046 0.930 . S
H1035 C1048 0.930 . S
H1036 C1049 0.930 . S
H1037 C1053 0.959 . S
H1038 C1053 0.959 . S
H1039 C1053 0.961 . S
H1040 C1054 0.960 . S
H1041 C1054 0.961 . S
H1042 C1054 0.959 . S
H1043 C1057 0.929 . S
H1044 C1058 0.931 . S
H1045 C1060 0.930 . S
C1046 H1034 0.930 . S
C1046 C1047 1.399 . S
C1046 C1051 1.399 . S
C1047 C1046 1.399 . S
C1047 C1048 1.376 . S
C1048 H1035 0.930 . S
C1048 C1047 1.376 . S
C1048 C1049 1.388 . S
C1049 H1036 0.930 . S
C1049 C1048 1.388 . S
C1049 C1050 1.390 . S
C1050 C1049 1.390 . S
C1050 C1051 1.394 . S
C1050 C1056 1.465 . S
C1051 C1046 1.399 . S
C1051 C1050 1.394 . S
C1051 C1052 1.516 . S
C1052 C1051 1.516 . S
C1052 C1053 1.502 . S
C1052 C1054 1.561 . S
C1052 C1055 1.526 . S
C1053 H1037 0.959 . S
C1053 H1038 0.959 . S
C1053 H1039 0.961 . S
C1053 C1052 1.502 . S
C1054 H1040 0.960 . S
C1054 H1041 0.961 . S
C1054 H1042 0.959 . S
C1054 C1052 1.561 . S
C1055 C1052 1.526 . S
C1055 C1056 1.396 . S
C1055 C1060 1.390 . S
C1056 C1050 1.465 . S
C1056 C1055 1.396 . S
C1056 C1057 1.399 . S
C1057 H1043 0.929 . S
C1057 C1056 1.399 . S
C1057 C1058 1.385 . S
C1058 H1044 0.931 . S
C1058 C1057 1.385 . S
C1058 C1059 1.389 . S
C1059 C1058 1.389 . S
C1059 C1060 1.387 . S
C1060 H1045 0.930 . S
C1060 C1055 1.390 . S
C1060 C1059 1.387 . S
H1061 C1073 0.930 . S
H1062 C1075 0.930 . S
H1063 C1076 0.930 . S
H1064 C1080 0.959 . S
H1065 C1080 0.959 . S
H1066 C1080 0.961 . S
H1067 C1081 0.960 . S
H1068 C1081 0.961 . S
H1069 C1081 0.959 . S
H1070 C1084 0.929 . S
H1071 C1085 0.931 . S
H1072 C1087 0.930 . S
C1073 H1061 0.930 . S
C1073 C1074 1.399 . S
C1073 C1078 1.399 . S
C1074 C1073 1.399 . S
C1074 C1075 1.376 . S
C1075 H1062 0.930 . S
C1075 C1074 1.376 . S
C1075 C1076 1.388 . S
C1076 H1063 0.930 . S
C1076 C1075 1.388 . S
C1076 C1077 1.390 . S
C1077 C1076 1.390 . S
C1077 C1078 1.394 . S
C1077 C1083 1.465 . S
C1078 C1073 1.399 . S
C1078 C1077 1.394 . S
C1078 C1079 1.516 . S
C1079 C1078 1.516 . S
C1079 C1080 1.502 . S
C1079 C1081 1.561 . S
C1079 C1082 1.526 . S
C1080 H1064 0.959 . S
C1080 H1065 0.959 . S
C1080 H1066 0.961 . S
C1080 C1079 1.502 . S
C1081 H1067 0.960 . S
C1081 H1068 0.961 . S
C1081 H1069 0.959 . S
C1081 C1079 1.561 . S
C1082 C1079 1.526 . S
C1082 C1083 1.396 . S
C1082 C1087 1.390 . S
C1083 C1077 1.465 . S
C1083 C1082 1.396 . S
C1083 C1084 1.399 . S
C1084 H1070 0.929 . S
C1084 C1083 1.399 . S
C1084 C1085 1.385 . S
C1085 H1071 0.931 . S
C1085 C1084 1.385 . S
C1085 C1086 1.389 . S
C1086 C1085 1.389 . S
C1086 C1087 1.387 . S
C1087 H1072 0.930 . S
C1087 C1082 1.390 . S
C1087 C1086 1.387 . S
C237 C0 1.751 . S
C249 C41 1.715 . S
C264 C54 1.758 . S
C276 C26 1.707 . S
C291 C69 1.757 . S
C303 C96 1.709 . S
C318 C111 1.721 . S
C330 C82 1.754 . S
C345 C124 1.762 . S
C357 C152 1.723 . S
C372 C166 1.760 . S
C384 C139 1.727 . S
C399 C181 1.710 . S
C411 C208 1.740 . S
C426 C210 1.759 . S
C438 C183 1.727 . S
C453 C56 1.614 . S
C465 C13 1.595 . S
C480 C15 1.612 . S
C492 C71 1.587 . S
C507 C28 1.585 . S
C519 C85 1.611 . S
C534 C98 1.590 . S
C546 C43 1.616 . S
C561 C113 1.590 . S
C573 C168 1.615 . S
C588 C126 1.586 . S
C600 C194 1.603 . S
C615 C141 1.615 . S
C627 C197 1.592 . S
C642 C155 1.615 . S
C654 C223 1.599 . S
C669 C140 1.585 . S
C681 C12 1.590 . S
C696 C154 1.597 . S
C708 C14 1.593 . S
C723 C29 1.567 . S
C735 C112 1.567 . S
C750 C42 1.575 . S
C762 C127 1.580 . S
C777 C57 1.569 . S
C789 C196 1.568 . S
C804 C70 1.590 . S
C816 C222 1.585 . S
C831 C84 1.566 . S
C843 C169 1.566 . S
C858 C195 1.566 . S
C870 C99 1.567 . S
C885 C1 1.702 . S
C897 C211 1.705 . S
C912 C180 1.707 . S
C924 C27 1.705 . S
C939 C40 1.697 . S
C951 C182 1.703 . S
C966 C209 1.673 . S
C978 C55 1.677 . S
C993 C138 1.676 . S
C1005 C68 1.677 . S
C1020 C83 1.675 . S
C1032 C153 1.676 . S
C1047 C167 1.673 . S
C1059 C97 1.676 . S
C1074 C125 1.674 . S
C1086 C110 1.677 . S
