# Generated by pormake.
# Topology ske, (6)-cn, num edge types: 1
# Building blocks:
#     Node 0, Type 0, BuildingBlock: KUMJIN_clean_sbu_0, # of connection points: 6
#     Node 1, Type 0, BuildingBlock: KUMJIN_clean_sbu_0, # of connection points: 6
#     Node 2, Type 0, BuildingBlock: KUMJIN_clean_sbu_0, # of connection points: 6
#     Node 3, Type 0, BuildingBlock: KUMJIN_clean_sbu_0, # of connection points: 6
#     Node 4, Type 0, BuildingBlock: KUMJIN_clean_sbu_0, # of connection points: 6
#     Node 5, Type 0, BuildingBlock: KUMJIN_clean_sbu_0, # of connection points: 6
#     Node 6, Type 0, BuildingBlock: KUMJIN_clean_sbu_0, # of connection points: 6
#     Node 7, Type 0, BuildingBlock: KUMJIN_clean_sbu_0, # of connection points: 6
#     Edge 8, Type (0, 0), BuildingBlock: AJUNOK_clean_linker_0, # of connection points: 2
#     Edge 9, Type (0, 0), BuildingBlock: AJUNOK_clean_linker_0, # of connection points: 2
#     Edge 10, Type (0, 0), BuildingBlock: AJUNOK_clean_linker_0, # of connection points: 2
#     Edge 11, Type (0, 0), BuildingBlock: AJUNOK_clean_linker_0, # of connection points: 2
#     Edge 12, Type (0, 0), BuildingBlock: AJUNOK_clean_linker_0, # of connection points: 2
#     Edge 13, Type (0, 0), BuildingBlock: AJUNOK_clean_linker_0, # of connection points: 2
#     Edge 14, Type (0, 0), BuildingBlock: AJUNOK_clean_linker_0, # of connection points: 2
#     Edge 15, Type (0, 0), BuildingBlock: AJUNOK_clean_linker_0, # of connection points: 2
#     Edge 16, Type (0, 0), BuildingBlock: AJUNOK_clean_linker_0, # of connection points: 2
#     Edge 17, Type (0, 0), BuildingBlock: AJUNOK_clean_linker_0, # of connection points: 2
#     Edge 18, Type (0, 0), BuildingBlock: AJUNOK_clean_linker_0, # of connection points: 2
#     Edge 19, Type (0, 0), BuildingBlock: AJUNOK_clean_linker_0, # of connection points: 2
#     Edge 20, Type (0, 0), BuildingBlock: AJUNOK_clean_linker_0, # of connection points: 2
#     Edge 21, Type (0, 0), BuildingBlock: AJUNOK_clean_linker_0, # of connection points: 2
#     Edge 22, Type (0, 0), BuildingBlock: AJUNOK_clean_linker_0, # of connection points: 2
#     Edge 23, Type (0, 0), BuildingBlock: AJUNOK_clean_linker_0, # of connection points: 2
#     Edge 24, Type (0, 0), BuildingBlock: AJUNOK_clean_linker_0, # of connection points: 2
#     Edge 25, Type (0, 0), BuildingBlock: AJUNOK_clean_linker_0, # of connection points: 2
#     Edge 26, Type (0, 0), BuildingBlock: AJUNOK_clean_linker_0, # of connection points: 2
#     Edge 27, Type (0, 0), BuildingBlock: AJUNOK_clean_linker_0, # of connection points: 2
#     Edge 28, Type (0, 0), BuildingBlock: AJUNOK_clean_linker_0, # of connection points: 2
#     Edge 29, Type (0, 0), BuildingBlock: AJUNOK_clean_linker_0, # of connection points: 2
#     Edge 30, Type (0, 0), BuildingBlock: AJUNOK_clean_linker_0, # of connection points: 2
#     Edge 31, Type (0, 0), BuildingBlock: AJUNOK_clean_linker_0, # of connection points: 2
# Relax obj value: 0.195
# Max RMSD: 0.285
# Mean RMSD: 0.224
data_MOF--net-ske--node1-KUMJIN_clean_sbu_0--edge1-AJUNOK_clean_linker_0
_symmetry_space_group_name_H-M    P1
_symmetry_Int_Tables_number       1
_symmetry_cell_setting            triclinic
loop_
_symmetry_equiv_pos_as_xyz
'x, y, z'
_cell_length_a     83.625962
_cell_length_b     22.528089
_cell_length_c     10.880097
_cell_angle_alpha  100.67506
_cell_angle_beta   90.111972
_cell_angle_gamma 102.46834
loop_
_atom_site_label
_atom_site_type_symbol
_atom_site_fract_x
_atom_site_fract_y
_atom_site_fract_z
_atom_type_partial_charge
Eu0 Eu 0.10769 0.21973 0.54646 0.0
C1 C 0.17447 0.35495 0.4107 0.0
C2 C 0.17537 0.31074 0.19086 0.0
C3 C 0.18927 0.41753 0.26994 0.0
C4 C 0.16968 0.30583 0.31147 0.0
C5 C 0.1847 0.41078 0.3916 0.0
C6 C 0.18466 0.3675 0.16975 0.0
C7 C 0.18708 0.44583 0.61601 0.0
N8 N 0.17015 0.34647 0.52749 0.0
C9 C 0.17705 0.38944 0.63036 0.0
C10 C 0.19065 0.45708 0.49598 0.0
Eu11 Eu 0.15237 0.25053 0.54266 0.0
N12 N 0.16079 0.25146 0.335 0.0
C13 C 0.15869 0.19872 0.24566 0.0
C14 C 0.17225 0.25768 0.09659 0.0
C15 C 0.16421 0.20113 0.12497 0.0
H16 H 0.17417 0.38092 0.7233 0.0
H17 H 0.16212 0.15946 0.05373 0.0
H18 H 0.18887 0.37245 0.07729 0.0
H19 H 0.19204 0.48057 0.69746 0.0
H20 H 0.15245 0.15477 0.26615 0.0
H21 H 0.10489 0.37459 0.99151 0.0
H22 H 0.17645 0.25948 1.0029 0.0
H23 H 0.08796 0.07024 0.4489 0.0
H24 H 0.11238 0.347 0.7724 0.0
H25 H 0.07181 0.98467 0.54108 0.0
H26 H 0.19694 0.46036 0.25317 0.0
H27 H 0.09032 0.29306 0.10064 0.0
H28 H 0.07741 0.18123 0.09391 0.0
H29 H 0.19851 0.50066 0.48516 0.0
H30 H 0.06892 0.07522 0.97294 0.0
N31 N 0.10211 0.25083 0.75755 0.0
C32 C 0.10596 0.31106 0.81873 0.0
C33 C 0.09348 0.28069 1.00415 0.0
C34 C 0.0893 0.21918 0.93995 0.0
C35 C 0.10171 0.32687 0.94286 0.0
C36 C 0.09372 0.20537 0.81439 0.0
H37 H 0.0667 0.00175 0.76731 0.0
N38 N 0.09273 0.13333 0.6234 0.0
C39 C 0.07673 0.02929 0.59988 0.0
C40 C 0.08912 0.14502 0.74633 0.0
C41 C 0.08587 0.07756 0.54814 0.0
C42 C 0.0739 0.03913 0.72775 0.0
C43 C 0.07974 0.09781 0.80198 0.0
O44 O 0.08477 0.19033 0.43143 0.0
O45 O 0.12914 0.24373 0.42044 0.0
O46 O 0.1459 0.34407 0.56284 0.0
O47 O 0.11726 0.32269 0.54471 0.0
O48 O 0.10923 0.17747 0.33837 0.0
O49 O 0.08927 0.27697 0.56311 0.0
O50 O 0.17538 0.25922 0.64923 0.0
O51 O 0.13076 0.23608 0.66811 0.0
O52 O 0.11648 0.13454 0.57335 0.0
O53 O 0.14082 0.14835 0.47277 0.0
O54 O 0.1529 0.26515 0.75979 0.0
O55 O 0.16659 0.17859 0.50555 0.0
C56 C 0.12324 0.20997 0.31418 0.0
C57 C 0.06134 0.22292 0.5227 0.0
C58 C 0.03328 0.24121 0.53002 0.0
C59 C 0.04982 0.25696 0.49484 0.0
C60 C 0.02875 0.19222 0.5955 0.0
C61 C 0.05604 0.17387 0.58601 0.0
C62 C 0.04004 0.15918 0.6234 0.0
C63 C 0.13186 0.3611 0.55533 0.0
C64 C 0.07866 0.23716 0.48381 0.0
C65 C 0.07592 0.1111 0.92833 0.0
C66 C 0.0807 0.17155 0.99711 0.0
C67 C 0.13758 0.24755 0.7793 0.0
C68 C 0.19558 0.2141 0.53735 0.0
C69 C 0.20888 0.21434 0.61796 0.0
C70 C 0.22493 0.21907 0.57322 0.0
C71 C 0.22741 0.22386 0.44739 0.0
C72 C 0.19857 0.21863 0.41212 0.0
C73 C 0.21432 0.22362 0.3678 0.0
C74 C 0.1286 0.11269 0.51908 0.0
C75 C 0.17871 0.20912 0.58385 0.0
H76 H 0.05368 0.29485 0.44548 0.0
H77 H 0.01622 0.17764 0.62159 0.0
H78 H 0.06406 0.14565 0.60519 0.0
H79 H 0.03627 0.1209 0.67185 0.0
H80 H 0.20677 0.2115 0.71514 0.0
H81 H 0.2395 0.22704 0.40992 0.0
H82 H 0.18877 0.21802 0.34761 0.0
H83 H 0.21639 0.22702 0.2709 0.0
Eu84 Eu 0.85927 0.24417 0.5106 0.0
C85 C 0.92701 0.20903 0.66612 0.0
C86 C 0.93265 0.27104 0.87592 0.0
C87 C 0.94686 0.18818 0.80708 0.0
C88 C 0.92409 0.25707 0.75858 0.0
C89 C 0.93864 0.17499 0.68945 0.0
C90 C 0.94397 0.23633 0.89933 0.0
C91 C 0.93495 0.1227 0.47291 0.0
N92 N 0.91945 0.19862 0.55069 0.0
C93 C 0.92355 0.15742 0.45365 0.0
C94 C 0.94244 0.13114 0.59153 0.0
Eu95 Eu 0.90354 0.26963 0.52157 0.0
N96 N 0.91413 0.29366 0.73018 0.0
C97 C 0.91254 0.34521 0.81349 0.0
C98 C 0.93032 0.32184 0.96414 0.0
C99 C 0.92031 0.35927 0.93243 0.0
H100 H 0.91802 0.15146 0.36121 0.0
H101 H 0.91871 0.39942 0.9991 0.0
H102 H 0.95116 0.24847 0.98638 0.0
H103 H 0.93817 0.09034 0.39555 0.0
H104 H 0.90508 0.37529 0.79012 0.0
H105 H 0.85208 0.02607 0.16112 0.0
H106 H 0.93659 0.33363 0.05558 0.0
H107 H 0.84787 0.37674 0.47383 0.0
H108 H 0.85774 0.0901 0.36618 0.0
H109 H 0.83939 0.42291 0.30614 0.0
H110 H 0.95597 0.16296 0.82611 0.0
H111 H 0.84387 0.0685 0.98384 0.0
H112 H 0.8376 0.1573 0.90319 0.0
H113 H 0.95153 0.10506 0.60571 0.0
H114 H 0.83453 0.26481 0.94137 0.0
N115 N 0.85359 0.17282 0.31341 0.0
C116 C 0.85452 0.11175 0.29341 0.0
C117 C 0.84646 0.09802 0.0755 0.0
C118 C 0.84505 0.15961 0.09523 0.0
C119 C 0.85114 0.07402 0.17512 0.0
C120 C 0.8487 0.1966 0.21652 0.0
H121 H 0.83508 0.36339 0.09001 0.0
N122 N 0.8509 0.29361 0.35378 0.0
C123 C 0.84188 0.37702 0.28481 0.0
C124 C 0.84749 0.25837 0.23694 0.0
C125 C 0.84727 0.351 0.37959 0.0
C126 C 0.83937 0.34315 0.16323 0.0
C127 C 0.84187 0.28284 0.13822 0.0
O128 O 0.83875 0.28141 0.59309 0.0
O129 O 0.88162 0.26415 0.64273 0.0
O130 O 0.894 0.17024 0.54147 0.0
O131 O 0.86553 0.15618 0.55086 0.0
O132 O 0.85966 0.24723 0.72406 0.0
O133 O 0.83501 0.18374 0.51609 0.0
O134 O 0.91683 0.31295 0.3757 0.0
O135 O 0.88184 0.26924 0.39221 0.0
O136 O 0.86881 0.34703 0.57034 0.0
O137 O 0.89734 0.36341 0.57353 0.0
O138 O 0.898 0.21489 0.32153 0.0
O139 O 0.92942 0.32027 0.55019 0.0
C140 C 0.87521 0.25954 0.75001 0.0
C141 C 0.81179 0.22954 0.51669 0.0
C142 C 0.78308 0.23781 0.54796 0.0
C143 C 0.79839 0.23192 0.59534 0.0
C144 C 0.78186 0.24347 0.42151 0.0
C145 C 0.80955 0.23027 0.38958 0.0
C146 C 0.79481 0.23817 0.34285 0.0
C147 C 0.87935 0.13694 0.55769 0.0
C148 C 0.82815 0.22852 0.56828 0.0
C149 C 0.83856 0.24627 1.01814 0.0
C150 C 0.84023 0.18499 0.99658 0.0
C151 C 0.88588 0.23714 0.29024 0.0
C152 C 0.94387 0.29564 0.36701 0.0
C153 C 0.96032 0.30994 0.41462 0.0
C154 C 0.97183 0.27703 0.3564 0.0
C155 C 0.96638 0.22811 0.25458 0.0
C156 C 0.93923 0.24843 0.2608 0.0
C157 C 0.95026 0.21397 0.20792 0.0
C158 C 0.8836 0.38347 0.58416 0.0
C159 C 0.93106 0.32449 0.43356 0.0
H160 H 0.79998 0.22923 0.69281 0.0
H161 H 0.77099 0.25304 0.38259 0.0
H162 H 0.81921 0.22542 0.32634 0.0
H163 H 0.79349 0.24103 0.24524 0.0
H164 H 0.96407 0.34571 0.49705 0.0
H165 H 0.97453 0.19944 0.21238 0.0
H166 H 0.92682 0.23597 0.22094 0.0
H167 H 0.94625 0.17573 0.13033 0.0
Eu168 Eu 0.15531 0.76413 0.53616 0.0
C169 C 0.09255 0.58285 0.3022 0.0
C170 C 0.08724 0.61306 0.10621 0.0
C171 C 0.07877 0.50526 0.12654 0.0
C172 C 0.09387 0.6282 0.23037 0.0
C173 C 0.08457 0.52115 0.25213 0.0
C174 C 0.08009 0.55114 0.05372 0.0
C175 C 0.08699 0.49679 0.45756 0.0
N176 N 0.09813 0.59986 0.42376 0.0
C177 C 0.09485 0.55845 0.50305 0.0
C178 C 0.08209 0.47778 0.33107 0.0
Eu179 Eu 0.11106 0.70585 0.49372 0.0
N180 N 0.10075 0.68766 0.28401 0.0
C181 C 0.10024 0.73474 0.22208 0.0
C182 C 0.08759 0.66084 0.03969 0.0
C183 C 0.09388 0.72205 0.09866 0.0
H184 H 0.09862 0.57254 0.60089 0.0
H185 H 0.09392 0.75948 0.04892 0.0
H186 H 0.07516 0.53854 0.95799 0.0
H187 H 0.0848 0.46391 0.51998 0.0
H188 H 0.10511 0.78226 0.26665 0.0
H189 H 0.1718 0.72802 0.99895 0.0
H190 H 0.08271 0.65111 0.94399 0.0
H191 H 0.17391 0.8857 0.41007 0.0
H192 H 0.16193 0.69827 0.77761 0.0
H193 H 0.18696 0.99638 0.47804 0.0
H194 H 0.07279 0.45797 0.08597 0.0
H195 H 0.18071 0.83887 0.09643 0.0
H196 H 0.18722 0.95002 0.06942 0.0
H197 H 0.076 0.42997 0.29617 0.0
H198 H 0.19123 0.02411 0.92584 0.0
N199 N 0.16488 0.79055 0.74991 0.0
C200 C 0.1659 0.74651 0.8186 0.0
C201 C 0.17643 0.82589 0.99906 0.0
C202 C 0.17654 0.87078 0.92561 0.0
C203 C 0.17151 0.76332 0.94421 0.0
C204 C 0.17088 0.85122 0.79919 0.0
H205 H 0.19154 0.04161 0.70379 0.0
N206 N 0.16971 0.86966 0.59517 0.0
C207 C 0.18297 0.96791 0.54696 0.0
C208 C 0.17331 0.89252 0.71885 0.0
C209 C 0.17544 0.90527 0.50875 0.0
C210 C 0.1855 0.99332 0.67446 0.0
C211 C 0.18118 0.95501 0.76219 0.0
O212 O 0.17497 0.75979 0.40325 0.0
O213 O 0.13448 0.72312 0.38673 0.0
O214 O 0.12344 0.62566 0.43544 0.0
O215 O 0.14712 0.66318 0.56063 0.0
O216 O 0.1534 0.78796 0.34049 0.0
O217 O 0.17483 0.71501 0.56002 0.0
O218 O 0.09062 0.69712 0.61958 0.0
O219 O 0.1317 0.74792 0.64507 0.0
O220 O 0.14467 0.84912 0.56538 0.0
O221 O 0.11789 0.809 0.48284 0.0
O222 O 0.11318 0.67932 0.68569 0.0
O223 O 0.09075 0.75288 0.47943 0.0
C224 C 0.13953 0.75258 0.29751 0.0
C225 C 0.20085 0.75937 0.49097 0.0
C226 C 0.22992 0.76399 0.44314 0.0
C227 C 0.21307 0.73336 0.42491 0.0
C228 C 0.23394 0.8218 0.52553 0.0
C229 C 0.20566 0.81459 0.57845 0.0
C230 C 0.222 0.84587 0.59443 0.0
C231 C 0.13596 0.61649 0.49771 0.0
C232 C 0.18308 0.73125 0.46601 0.0
C233 C 0.1854 0.97608 0.89032 0.0
C234 C 0.18311 0.9339 0.97205 0.0
C235 C 0.12664 0.71656 0.73185 0.0
C236 C 0.0646 0.69924 0.53369 0.0
C237 C 0.05217 0.7332 0.56044 0.0
C238 C 0.03539 0.70326 0.53634 0.0
C239 C 0.03133 0.64004 0.4821 0.0
C240 C 0.05993 0.63594 0.48098 0.0
C241 C 0.04351 0.60682 0.45459 0.0
C242 C 0.13048 0.85565 0.52341 0.0
C243 C 0.08229 0.72835 0.56494 0.0
H244 H 0.20941 0.6898 0.35965 0.0
H245 H 0.2463 0.84969 0.53571 0.0
H246 H 0.19676 0.8343 0.63317 0.0
H247 H 0.22541 0.88971 0.65915 0.0
H248 H 0.05548 0.78197 0.60229 0.0
H249 H 0.01865 0.61623 0.4607 0.0
H250 H 0.06889 0.60833 0.46149 0.0
H251 H 0.04021 0.55798 0.41359 0.0
Eu252 Eu 0.8593 0.7397 0.56468 0.0
C253 C 0.92136 0.83296 0.33721 0.0
C254 C 0.9199 0.74558 0.16624 0.0
C255 C 0.9337 0.84849 0.13952 0.0
C256 C 0.91634 0.76985 0.29019 0.0
C257 C 0.93057 0.87241 0.26335 0.0
C258 C 0.92833 0.78529 0.09096 0.0
C259 C 0.93457 0.95515 0.44368 0.0
N260 N 0.91797 0.85558 0.45655 0.0
C261 C 0.92519 0.91479 0.51223 0.0
C262 C 0.93692 0.93443 0.31765 0.0
Eu263 Eu 0.90325 0.78342 0.57056 0.0
N264 N 0.90799 0.73227 0.36453 0.0
C265 C 0.903 0.66996 0.31904 0.0
C266 C 0.91487 0.68199 0.12089 0.0
C267 C 0.90646 0.64408 0.19786 0.0
H268 H 0.92382 0.93057 0.61064 0.0
H269 H 0.90232 0.59483 0.16306 0.0
H270 H 0.93096 0.76741 0.99544 0.0
H271 H 0.94024 0.00174 0.48894 0.0
H272 H 0.89586 0.63925 0.37226 0.0
H273 H 0.84636 0.83185 0.04631 0.0
H274 H 0.91732 0.66178 0.02636 0.0
H275 H 0.84238 0.6019 0.38492 0.0
H276 H 0.85728 0.83662 0.83751 0.0
H277 H 0.8248 0.50153 0.40862 0.0
H278 H 0.94055 0.8783 0.08123 0.0
H279 H 0.83166 0.73178 0.09454 0.0
H280 H 0.81966 0.61871 1.01908 0.0
H281 H 0.94422 0.96593 0.26466 0.0
H282 H 0.81365 0.52903 0.84535 0.0
N283 N 0.8496 0.73958 0.7691 0.0
C284 C 0.851 0.79249 0.85711 0.0
C285 C 0.83651 0.73348 1.00264 0.0
C286 C 0.83404 0.68022 0.90912 0.0
C287 C 0.84476 0.79006 0.97572 0.0
C288 C 0.84068 0.68484 0.79116 0.0
H289 H 0.81524 0.48528 0.61722 0.0
N290 N 0.84293 0.64137 0.57873 0.0
C291 C 0.82832 0.53829 0.48946 0.0
C292 C 0.83714 0.63444 0.693 0.0
C293 C 0.83819 0.59514 0.47628 0.0
C294 C 0.82292 0.52935 0.60742 0.0
C295 C 0.8271 0.57796 0.71068 0.0
O296 O 0.83713 0.722 0.441 0.0
O297 O 0.88051 0.77562 0.44494 0.0
O298 O 0.89425 0.8707 0.56882 0.0
O299 O 0.86739 0.84428 0.62874 0.0
O300 O 0.86193 0.70617 0.35453 0.0
O301 O 0.84207 0.80062 0.59228 0.0
O302 O 0.92318 0.82763 0.70812 0.0
O303 O 0.88204 0.75264 0.69284 0.0
O304 O 0.86814 0.65231 0.57783 0.0
O305 O 0.89664 0.68221 0.58629 0.0
O306 O 0.90027 0.82468 0.77778 0.0
O307 O 0.92624 0.74967 0.56914 0.0
C308 C 0.87538 0.74323 0.33574 0.0
C309 C 0.81399 0.75487 0.53756 0.0
C310 C 0.78475 0.7467 0.4876 0.0
C311 C 0.80128 0.7553 0.45163 0.0
C312 C 0.78115 0.73542 0.60836 0.0
C313 C 0.80986 0.74522 0.65848 0.0
C314 C 0.79361 0.73485 0.69287 0.0
C315 C 0.88036 0.88539 0.6063 0.0
C316 C 0.83152 0.76766 0.50417 0.0
C317 C 0.82122 0.57225 0.82969 0.0
C318 C 0.82467 0.62329 0.92866 0.0
C319 C 0.8869 0.78774 0.79998 0.0
C320 C 0.9507 0.82614 0.65158 0.0
C321 C 0.96317 0.79286 0.62012 0.0
C322 C 0.97988 0.82437 0.6224 0.0
C323 C 0.98374 0.88939 0.65314 0.0
C324 C 0.95528 0.89109 0.68598 0.0
C325 C 0.97156 0.92225 0.68436 0.0
C326 C 0.88286 0.64021 0.58528 0.0
C327 C 0.93327 0.79357 0.66105 0.0
H328 H 0.80427 0.7638 0.35866 0.0
H329 H 0.76861 0.72688 0.63757 0.0
H330 H 0.81918 0.74667 0.72778 0.0
H331 H 0.79067 0.72692 0.78618 0.0
H332 H 0.9599 0.74278 0.59575 0.0
H333 H 0.99634 0.91505 0.65715 0.0
H334 H 0.94638 0.91832 0.71724 0.0
H335 H 0.9748 0.97224 0.71065 0.0
Eu336 Eu 0.6129 0.74421 0.07098 0.0
C337 C 0.68146 0.83885 0.89992 0.0
C338 C 0.67973 0.77459 0.69283 0.0
C339 C 0.69886 0.87449 0.7372 0.0
C340 C 0.67437 0.78489 0.81648 0.0
C341 C 0.69425 0.88293 0.86218 0.0
C342 C 0.69154 0.82061 0.65251 0.0
C343 C 0.69822 0.93748 0.07718 0.0
N344 N 0.67687 0.8458 1.02053 0.0
C345 C 0.68532 0.89321 0.10993 0.0
C346 C 0.70258 0.93275 0.95248 0.0
Eu347 Eu 0.65664 0.76407 0.07093 0.0
N348 N 0.66348 0.73998 0.85934 0.0
C349 C 0.65861 0.68221 0.78718 0.0
C350 C 0.67373 0.717 0.61532 0.0
C351 C 0.66341 0.6702 0.6636 0.0
H352 H 0.68195 0.89687 0.20655 0.0
H353 H 0.65911 0.62487 0.60567 0.0
H354 H 0.69564 0.81374 0.55752 0.0
H355 H 0.70474 0.97532 0.14794 0.0
H356 H 0.65069 0.64558 0.82343 0.0
H357 H 0.61941 0.93643 0.47765 0.0
H358 H 0.67751 0.70742 0.51978 0.0
H359 H 0.59176 0.59399 0.04927 0.0
H360 H 0.62417 0.88791 0.26723 0.0
H361 H 0.57758 0.52694 0.1855 0.0
H362 H 0.70848 0.90834 0.70619 0.0
H363 H 0.60363 0.87467 0.61957 0.0
H364 H 0.58857 0.7723 0.65753 0.0
H365 H 0.71257 0.96717 0.92732 0.0
H366 H 0.57799 0.66121 0.58069 0.0
N367 N 0.61084 0.79704 0.28115 0.0
C368 C 0.61706 0.85905 0.324 0.0
C369 C 0.60549 0.85251 0.52506 0.0
C370 C 0.59927 0.78927 0.48264 0.0
C371 C 0.61442 0.88745 0.44535 0.0
C372 C 0.60201 0.76235 0.35828 0.0
H373 H 0.57417 0.56967 0.40718 0.0
N374 N 0.59869 0.67414 0.19504 0.0
C375 C 0.58295 0.57506 0.22383 0.0
C376 C 0.59604 0.69934 0.31485 0.0
C377 C 0.5915 0.61338 0.14749 0.0
C378 C 0.58095 0.59942 0.3485 0.0
C379 C 0.5872 0.66234 0.39489 0.0
O380 O 0.58656 0.70947 1.01829 0.0
O381 O 0.63446 0.76327 0.94574 0.0
O382 O 0.65236 0.86082 0.06337 0.0
O383 O 0.62383 0.84395 0.05662 0.0
O384 O 0.61343 0.70526 0.85975 0.0
O385 O 0.59758 0.80527 0.02575 0.0
O386 O 0.67862 0.77671 0.19354 0.0
O387 O 0.63497 0.74026 0.19484 0.0
O388 O 0.61697 0.64793 1.00004 0.0
O389 O 0.64468 0.66209 0.05217 0.0
O390 O 0.65528 0.80516 0.27845 0.0
O391 O 0.67135 0.69388 0.05268 0.0
C392 C 0.62811 0.73306 0.8376 0.0
C393 C 0.57004 0.78234 0.08744 0.0
C394 C 0.54066 0.78093 0.11324 0.0
C395 C 0.5535 0.76213 0.04115 0.0
C396 C 0.54468 0.81713 0.23381 0.0
C397 C 0.57345 0.82176 0.20486 0.0
C398 C 0.5609 0.83797 0.2781 0.0
C399 C 0.63856 0.88048 0.05665 0.0
C400 C 0.58386 0.76385 1.01454 0.0
C401 C 0.58465 0.68909 0.51828 0.0
C402 C 0.59062 0.75236 0.56189 0.0
C403 C 0.64129 0.77244 0.30162 0.0
C404 C 0.70001 0.73162 0.09844 0.0
C405 C 0.71282 0.73603 0.18727 0.0
C406 C 0.72925 0.74034 0.15017 0.0
C407 C 0.73254 0.74134 0.02372 0.0
C408 C 0.70381 0.73039 0.97248 0.0
C409 C 0.71993 0.73611 0.93596 0.0
C410 C 0.63008 0.62641 1.01725 0.0
C411 C 0.6827 0.72642 0.13569 0.0
H412 H 0.55069 0.73297 0.94936 0.0
H413 H 0.53522 0.82947 0.29489 0.0
H414 H 0.58585 0.84057 0.24057 0.0
H415 H 0.56378 0.86705 0.36982 0.0
H416 H 0.7099 0.7345 0.28375 0.0
H417 H 0.74495 0.74594 0.99216 0.0
H418 H 0.69432 0.72409 0.90127 0.0
H419 H 0.72264 0.7359 0.83864 0.0
Eu420 Eu 0.35753 0.73261 0.04854 0.0
C421 C 0.41393 0.78752 0.34841 0.0
C422 C 0.42398 0.89798 0.41838 0.0
C423 C 0.4238 0.82874 0.56488 0.0
C424 C 0.41697 0.84688 0.32358 0.0
C425 C 0.41816 0.77779 0.46788 0.0
C426 C 0.42659 0.88884 0.54036 0.0
C427 C 0.41224 0.66815 0.38453 0.0
N428 N 0.40798 0.73903 0.25372 0.0
C429 C 0.40781 0.68002 0.26896 0.0
C430 C 0.41711 0.71714 0.4853 0.0
Eu431 Eu 0.40112 0.76334 0.0588 0.0
N432 N 0.41483 0.85399 0.20383 0.0
C433 C 0.42206 0.90902 0.16983 0.0
C434 C 0.42917 0.95617 0.38614 0.0
C435 C 0.42867 0.9613 0.26054 0.0
H436 H 0.40461 0.64157 0.1924 0.0
H437 H 0.43358 0.00527 0.23327 0.0
H438 H 0.43163 0.92766 0.61472 0.0
H439 H 0.41184 0.62111 0.39576 0.0
H440 H 0.42226 0.91306 0.07228 0.0
H441 H 0.35094 0.55124 0.62916 0.0
H442 H 0.43453 0.99652 0.4562 0.0
H443 H 0.33443 0.83963 0.10133 0.0
H444 H 0.35713 0.59821 0.85141 0.0
H445 H 0.32064 0.89893 0.98139 0.0
H446 H 0.42663 0.82207 0.65795 0.0
H447 H 0.34056 0.60963 0.48695 0.0
H448 H 0.33151 0.70563 0.45839 0.0
H449 H 0.42038 0.70779 0.57514 0.0
H450 H 0.3242 0.80338 0.55414 0.0
N451 N 0.35166 0.68406 0.83512 0.0
C452 C 0.35329 0.62509 0.79004 0.0
C453 C 0.34352 0.6308 0.58442 0.0
C454 C 0.34105 0.69004 0.63232 0.0
C455 C 0.34943 0.59782 0.66424 0.0
C456 C 0.34506 0.71542 0.76025 0.0
H457 H 0.31975 0.87541 0.75001 0.0
N458 N 0.34308 0.78917 0.94005 0.0
C459 C 0.32666 0.86399 0.93282 0.0
C460 C 0.34101 0.77055 0.81399 0.0
C461 C 0.33464 0.83095 1.0004 0.0
C462 C 0.3262 0.85057 0.8023 0.0
C463 C 0.33276 0.80147 0.7413 0.0
O464 O 0.33676 0.73687 0.17057 0.0
O465 O 0.37934 0.73792 0.18277 0.0
O466 O 0.39165 0.65963 1.01072 0.0
O467 O 0.36504 0.64516 0.07856 0.0
O468 O 0.36228 0.78896 0.24784 0.0
O469 O 0.33639 0.65406 0.03665 0.0
O470 O 0.41412 0.70544 0.9295 0.0
O471 O 0.37922 0.73554 0.91729 0.0
O472 O 0.36553 0.83535 0.05847 0.0
O473 O 0.39394 0.85513 0.05893 0.0
O474 O 0.3987 0.80479 0.88506 0.0
O475 O 0.42801 0.78676 0.04713 0.0
C476 C 0.3751 0.77157 0.2817 0.0
C477 C 0.31098 0.68494 0.07496 0.0
C478 C 0.28327 0.70126 0.12656 0.0
C479 C 0.29861 0.69028 0.16245 0.0
C480 C 0.28085 0.70597 1.00049 0.0
C481 C 0.30753 0.68608 0.94948 0.0
C482 C 0.29266 0.69711 0.913 0.0
C483 C 0.37819 0.62442 0.04223 0.0
C484 C 0.32789 0.68389 0.11596 0.0
C485 C 0.33019 0.77947 0.61178 0.0
C486 C 0.33427 0.72364 0.55739 0.0
C487 C 0.38463 0.77151 0.83846 0.0
C488 C 0.4409 0.70164 0.99704 0.0
C489 C 0.45792 0.72608 0.99242 0.0
C490 C 0.46961 0.69377 0.0255 0.0
C491 C 0.46375 0.63601 0.0605 0.0
C492 C 0.43563 0.64335 0.02985 0.0
C493 C 0.44698 0.61097 0.0613 0.0
C494 C 0.37995 0.87317 0.06131 0.0
C495 C 0.42873 0.73696 0.96777 0.0
H496 H 0.30114 0.68555 0.25711 0.0
H497 H 0.26981 0.71719 0.96828 0.0
H498 H 0.31645 0.67974 0.87962 0.0
H499 H 0.2904 0.69997 0.81647 0.0
H500 H 0.4619 0.7698 0.96193 0.0
H501 H 0.47214 0.6102 0.08936 0.0
H502 H 0.42271 0.62256 0.03117 0.0
H503 H 0.44274 0.56633 0.08764 0.0
Eu504 Eu 0.65354 0.27518 0.97979 0.0
C505 C 0.5915 0.09279 0.76094 0.0
C506 C 0.58932 0.11546 0.55342 0.0
C507 C 0.5799 0.01004 0.58641 0.0
C508 C 0.59467 0.1345 0.68049 0.0
C509 C 0.58344 0.03067 0.71547 0.0
C510 C 0.58275 0.05251 0.50543 0.0
C511 C 0.57997 0.01739 0.92975 0.0
N512 N 0.59449 0.11477 0.88558 0.0
C513 C 0.58776 0.07958 0.97016 0.0
C514 C 0.57822 0.99231 0.80181 0.0
Eu515 Eu 0.60979 0.21836 0.94352 0.0
N516 N 0.60085 0.19515 0.72993 0.0
C517 C 0.59951 0.23971 0.66331 0.0
C518 C 0.58957 0.16077 0.48084 0.0
C519 C 0.59412 0.22328 0.53716 0.0
H520 H 0.58904 0.09857 0.06919 0.0
H521 H 0.59369 0.25877 0.48318 0.0
H522 H 0.57897 0.03682 0.40734 0.0
H523 H 0.57531 0.9889 0.99729 0.0
H524 H 0.60305 0.28801 0.70604 0.0
H525 H 0.67136 0.21694 0.4188 0.0
H526 H 0.58554 0.14794 0.38316 0.0
H527 H 0.66559 0.41078 0.88038 0.0
H528 H 0.66048 0.19596 0.2008 0.0
H529 H 0.67825 0.51991 0.96817 0.0
H530 H 0.57403 0.96221 0.54946 0.0
H531 H 0.68161 0.32487 0.52991 0.0
H532 H 0.68818 0.43835 0.52302 0.0
H533 H 0.57202 0.94431 0.7707 0.0
H534 H 0.68993 0.52093 0.40064 0.0
N535 N 0.66417 0.29113 0.18845 0.0
C536 C 0.66496 0.24333 0.24764 0.0
C537 C 0.67688 0.31597 0.43391 0.0
C538 C 0.67687 0.36465 0.37055 0.0
C539 C 0.67114 0.25499 0.37142 0.0
C540 C 0.67048 0.35054 0.24581 0.0
H541 H 0.68656 0.55165 0.19312 0.0
N542 N 0.6662 0.38104 0.05483 0.0
C543 C 0.67634 0.48587 0.02809 0.0
C544 C 0.67146 0.39702 0.17718 0.0
C545 C 0.66917 0.4239 0.97865 0.0
C546 C 0.68096 0.50363 0.15525 0.0
C547 C 0.67885 0.45886 0.23101 0.0
O548 O 0.67293 0.28442 0.84516 0.0
O549 O 0.63289 0.23179 0.82801 0.0
O550 O 0.61958 0.13226 0.94334 0.0
O551 O 0.64752 0.17242 0.98964 0.0
O552 O 0.65058 0.30492 0.7926 0.0
O553 O 0.67468 0.23204 0.98866 0.0
O554 O 0.5969 0.27229 0.0829 0.0
O555 O 0.63054 0.25651 0.09078 0.0
O556 O 0.64082 0.35336 0.04574 0.0
O557 O 0.61775 0.31849 0.91441 0.0
O558 O 0.61167 0.19002 0.13496 0.0
O559 O 0.58414 0.22192 0.91149 0.0
C560 C 0.63763 0.26514 0.74395 0.0
C561 C 0.69968 0.28504 0.91618 0.0
C562 C 0.72837 0.29216 0.85556 0.0
C563 C 0.71175 0.25895 0.84867 0.0
C564 C 0.73244 0.3511 0.93402 0.0
C565 C 0.70447 0.34271 0.99592 0.0
C566 C 0.72069 0.37539 1.00482 0.0
C567 C 0.63447 0.12602 0.97027 0.0
C568 C 0.68201 0.25472 0.8966 0.0
C569 C 0.68441 0.47359 0.35716 0.0
C570 C 0.68343 0.42656 0.42679 0.0
C571 C 0.62559 0.2257 0.17823 0.0
C572 C 0.56808 0.23406 0.08827 0.0
C573 C 0.55305 0.24783 0.05776 0.0
C574 C 0.53866 0.22637 0.11915 0.0
C575 C 0.53965 0.19157 0.21256 0.0
C576 C 0.56865 0.19887 0.18112 0.0
C577 C 0.55453 0.17794 0.24298 0.0
C578 C 0.62831 0.36398 0.98608 0.0
C579 C 0.58289 0.2552 1.02022 0.0
H580 H 0.70805 0.21318 0.79161 0.0
H581 H 0.74473 0.37953 0.93974 0.0
H582 H 0.69567 0.36327 0.04983 0.0
H583 H 0.7241 0.42053 0.06506 0.0
H584 H 0.55252 0.27455 0.98518 0.0
H585 H 0.52895 0.17559 0.26341 0.0
H586 H 0.58003 0.1876 0.20553 0.0
H587 H 0.55512 0.15109 0.31507 0.0
Eu588 Eu 0.35622 0.22557 0.96817 0.0
C589 C 0.41279 0.3223 0.7361 0.0
C590 C 0.41643 0.23813 0.5709 0.0
C591 C 0.42214 0.3431 0.53263 0.0
C592 C 0.41187 0.25938 0.69379 0.0
C593 C 0.41851 0.36478 0.65645 0.0
C594 C 0.42117 0.28 0.49017 0.0
C595 C 0.41977 0.44816 0.83254 0.0
N596 N 0.40968 0.34266 0.85773 0.0
C597 C 0.41437 0.40468 0.90818 0.0
C598 C 0.42139 0.42819 0.70531 0.0
Eu599 Eu 0.40078 0.26396 0.97856 0.0
N600 N 0.40692 0.21911 0.7726 0.0
C601 C 0.40718 0.15787 0.73547 0.0
C602 C 0.41632 0.17534 0.53262 0.0
C603 C 0.41186 0.13523 0.61584 0.0
H604 H 0.4144 0.42163 1.00768 0.0
H605 H 0.41195 0.08662 0.58769 0.0
H606 H 0.42444 0.26416 0.39529 0.0
H607 H 0.42292 0.49706 0.87302 0.0
H608 H 0.40412 0.12566 0.79712 0.0
H609 H 0.34926 0.3574 0.4303 0.0
H610 H 0.41978 0.15744 0.43942 0.0
H611 H 0.33585 0.08434 0.82764 0.0
H612 H 0.35974 0.34015 0.2177 0.0
H613 H 0.31476 0.99791 0.87888 0.0
H614 H 0.42629 0.37507 0.47022 0.0
H615 H 0.33171 0.2704 0.50906 0.0
H616 H 0.31573 0.16045 0.4653 0.0
H617 H 0.42577 0.46203 0.64717 0.0
H618 H 0.30563 0.06396 0.31322 0.0
N619 N 0.34868 0.24416 0.17801 0.0
C620 C 0.35222 0.30181 0.2514 0.0
C621 C 0.33635 0.2625 0.4159 0.0
C622 C 0.33191 0.20441 0.33711 0.0
C623 C 0.34619 0.3118 0.37159 0.0
C624 C 0.33823 0.1966 0.21636 0.0
H625 H 0.30468 0.0041 0.09346 0.0
N626 N 0.33805 0.13716 1.01266 0.0
C627 C 0.31967 0.03806 0.95051 0.0
C628 C 0.33248 0.14212 0.13048 0.0
C629 C 0.33164 0.08674 0.92199 0.0
C630 C 0.314 0.04181 0.07174 0.0
C631 C 0.32035 0.09426 0.16342 0.0
O632 O 0.3339 0.2051 0.84555 0.0
O633 O 0.37804 0.25371 0.84803 0.0
O634 O 0.39216 0.35133 0.06055 0.0
O635 O 0.36558 0.32776 0.97496 0.0
O636 O 0.35933 0.18085 0.76593 0.0
O637 O 0.33996 0.29019 0.98152 0.0
O638 O 0.42393 0.32166 0.0659 0.0
O639 O 0.37874 0.2462 0.09905 0.0
O640 O 0.36389 0.13751 0.98954 0.0
O641 O 0.39246 0.1606 0.97996 0.0
O642 O 0.40108 0.26398 0.19047 0.0
O643 O 0.42248 0.22476 0.99214 0.0
C644 C 0.3729 0.21653 0.74349 0.0
C645 C 0.31162 0.24449 0.94062 0.0
C646 C 0.28201 0.2264 0.89247 0.0
C647 C 0.29835 0.23403 0.85274 0.0
C648 C 0.27922 0.229 1.02047 0.0
C649 C 0.30831 0.24838 0.06808 0.0
C650 C 0.29227 0.23983 0.10725 0.0
C651 C 0.37874 0.36747 0.02788 0.0
C652 C 0.32888 0.25383 0.90094 0.0
C653 C 0.31476 0.1006 0.28575 0.0
C654 C 0.32058 0.15544 0.37254 0.0
C655 C 0.3856 0.25031 0.20843 0.0
C656 C 0.44843 0.2936 0.98819 0.0
C657 C 0.46204 0.27376 0.03098 0.0
C658 C 0.47767 0.29067 0.9812 0.0
C659 C 0.47932 0.32629 0.88678 0.0
C660 C 0.45074 0.33025 0.89584 0.0
C661 C 0.46597 0.34588 0.8448 0.0
C662 C 0.37828 0.12198 0.98907 0.0
C663 C 0.43205 0.27771 0.04198 0.0
H664 H 0.30071 0.23241 0.7544 0.0
H665 H 0.26692 0.22472 0.05422 0.0
H666 H 0.3181 0.25947 0.13848 0.0
H667 H 0.28997 0.24298 0.20588 0.0
H668 H 0.46053 0.24672 0.10446 0.0
H669 H 0.49102 0.33918 0.84522 0.0
H670 H 0.44088 0.34778 0.86374 0.0
H671 H 0.46746 0.37387 0.77301 0.0
C672 C 0.2541 0.2636 0.65415 0.0
C673 C 0.23931 0.21946 0.65544 0.0
C674 C 0.26804 0.26394 0.72687 0.0
C675 C 0.26779 0.22022 0.80421 0.0
H676 H 0.25484 0.29887 0.59761 0.0
H677 H 0.27894 0.29991 0.7254 0.0
S678 S 0.23273 0.09116 0.83271 0.0
N679 N 0.22571 0.1283 0.73449 0.0
N680 N 0.25181 0.12907 0.87165 0.0
C681 C 0.25322 0.17491 0.80422 0.0
C682 C 0.23902 0.17457 0.73009 0.0
C683 C 0.75803 0.28521 0.82902 0.0
C684 C 0.74165 0.26861 0.78013 0.0
C685 C 0.7712 0.2734 0.75549 0.0
C686 C 0.76869 0.24219 0.63007 0.0
H687 H 0.7609 0.30947 0.92471 0.0
H688 H 0.78348 0.29126 0.79674 0.0
S689 S 0.72803 0.17658 0.46267 0.0
N690 N 0.7237 0.21379 0.59945 0.0
N691 N 0.74812 0.18481 0.46733 0.0
C692 C 0.75225 0.21973 0.58351 0.0
C693 C 0.73885 0.2342 0.65684 0.0
C694 C 0.25317 0.69314 0.17155 0.0
C695 C 0.26975 0.70973 0.21657 0.0
C696 C 0.24038 0.70856 0.2458 0.0
C697 C 0.24329 0.73921 0.37131 0.0
H698 H 0.24992 0.66917 0.07616 0.0
H699 H 0.22821 0.69826 0.2021 0.0
S700 S 0.28368 0.78045 0.54688 0.0
N701 N 0.28789 0.75354 0.40189 0.0
N702 N 0.26367 0.77449 0.54478 0.0
C703 C 0.25951 0.75013 0.42205 0.0
C704 C 0.27271 0.73716 0.34457 0.0
C705 C 0.75511 0.70777 0.20249 0.0
C706 C 0.74314 0.74253 0.23966 0.0
C707 C 0.76876 0.71086 0.28104 0.0
C708 C 0.77101 0.74837 0.40095 0.0
H709 H 0.75385 0.67724 0.11188 0.0
H710 H 0.77741 0.68243 0.2488 0.0
S711 S 0.74395 0.85134 0.54201 0.0
N712 N 0.73502 0.81792 0.40353 0.0
N713 N 0.76045 0.82298 0.55168 0.0
C714 C 0.75925 0.78377 0.43926 0.0
C715 C 0.74539 0.7809 0.35892 0.0
C716 C 0.11904 0.94973 0.59374 0.0
C717 C 0.12911 0.91911 0.51427 0.0
C718 C 0.11877 0.01186 0.59296 0.0
C719 C 0.12856 0.04585 0.51281 0.0
H720 H 0.11164 0.92603 0.65914 0.0
H721 H 0.11107 0.03365 0.65799 0.0
S722 S 0.15553 0.98325 0.27553 0.0
N723 N 0.14793 0.92487 0.34551 0.0
N724 N 0.14766 0.04141 0.34469 0.0
C725 C 0.13827 0.01465 0.42994 0.0
C726 C 0.13847 0.95138 0.43054 0.0
C727 C 0.8708 0.47487 0.637 0.0
C728 C 0.88469 0.45103 0.60205 0.0
C729 C 0.87045 0.53625 0.63334 0.0
C730 C 0.88405 0.57673 0.59645 0.0
H731 H 0.85989 0.44554 0.66456 0.0
H732 H 0.85937 0.55182 0.65918 0.0
S733 S 0.92419 0.53939 0.50916 0.0
N734 N 0.91291 0.47415 0.53792 0.0
N735 N 0.91239 0.59002 0.53457 0.0
C736 C 0.89842 0.55469 0.56888 0.0
C737 C 0.89872 0.49181 0.57117 0.0
C738 C 0.89343 0.99751 0.62957 0.0
C739 C 0.87908 0.95067 0.61355 0.0
C740 C 0.89321 0.05764 0.61554 0.0
C741 C 0.8786 0.07415 0.58542 0.0
H742 H 0.90505 0.98778 0.65169 0.0
H743 H 0.90473 0.09107 0.62741 0.0
S744 S 0.83695 0.97184 0.55942 0.0
N745 N 0.84938 0.92683 0.58267 0.0
N746 N 0.84885 0.04069 0.56074 0.0
C747 C 0.86386 0.02927 0.58079 0.0
C748 C 0.86412 0.96741 0.59379 0.0
C749 C 0.12658 0.50123 0.42539 0.0
C750 C 0.13606 0.55158 0.51039 0.0
C751 C 0.1248 0.43992 0.44307 0.0
C752 C 0.13278 0.42629 0.54474 0.0
H753 H 0.12031 0.50922 0.34483 0.0
H754 H 0.11739 0.40281 0.37516 0.0
S755 S 0.15967 0.53942 0.79121 0.0
N756 N 0.15398 0.58212 0.69854 0.0
N757 N 0.15074 0.46714 0.72999 0.0
C758 C 0.14265 0.4755 0.62832 0.0
C759 C 0.14434 0.53799 0.61127 0.0
C760 C 0.63669 0.53808 0.09851 0.0
C761 C 0.62839 0.55893 1.00832 0.0
C762 C 0.63591 0.47495 0.0928 0.0
C763 C 0.62716 0.42973 0.9947 0.0
H764 H 0.64384 0.57092 0.17488 0.0
H765 H 0.64248 0.46169 0.16545 0.0
S766 S 0.60312 0.46051 0.73515 0.0
N767 N 0.61069 0.52986 0.82 0.0
N768 N 0.60966 0.41084 0.80608 0.0
C769 C 0.61849 0.44992 0.90497 0.0
C770 C 0.61904 0.51457 0.91236 0.0
C771 C 0.39266 0.97221 0.99064 0.0
C772 C 0.38026 0.93834 0.05341 0.0
C773 C 0.392 0.03151 0.97056 0.0
C774 C 0.37866 0.05848 1.00896 0.0
H775 H 0.40275 0.95227 0.95376 0.0
H776 H 0.40195 0.05567 0.92305 0.0
S777 S 0.34462 0.99242 0.19717 0.0
N778 N 0.35592 0.94027 0.17258 0.0
N779 N 0.35356 0.04776 0.12367 0.0
C780 C 0.36641 0.02514 0.07433 0.0
C781 C 0.36753 0.96631 0.09976 0.0
C782 C 0.37772 0.47276 0.14682 0.0
C783 C 0.37902 0.43325 0.03302 0.0
C784 C 0.37696 0.53471 0.14918 0.0
C785 C 0.3781 0.55893 0.03841 0.0
H786 H 0.37698 0.45544 0.23359 0.0
H787 H 0.37582 0.56413 0.23807 0.0
S788 S 0.38151 0.47386 0.71766 0.0
N789 N 0.38046 0.42161 0.80737 0.0
N790 N 0.38095 0.53933 0.81349 0.0
C791 C 0.37973 0.5201 0.92505 0.0
C792 C 0.37965 0.45672 0.92194 0.0
C793 C 0.62331 0.02648 0.04216 0.0
C794 C 0.63631 0.06463 0.99333 0.0
C795 C 0.62446 0.96838 0.06499 0.0
C796 C 0.63881 0.94552 0.04191 0.0
H797 H 0.61217 0.04193 0.06572 0.0
H798 H 0.61385 0.94119 0.10123 0.0
S799 S 0.677 0.02982 0.92227 0.0
N800 N 0.66438 0.07724 0.92822 0.0
N801 N 0.66672 0.96823 0.97251 0.0
C802 C 0.65222 0.98441 0.9977 0.0
C803 C 0.65095 0.04378 0.97335 0.0
C804 C 0.13288 0.27962 0.14567 0.0
C805 C 0.12666 0.2208 0.17748 0.0
C806 C 0.13554 0.2878 1.0183 0.0
C807 C 0.13166 0.23843 0.91226 0.0
H808 H 0.13593 0.31996 0.22003 0.0
H809 H 0.1409 0.3339 1.00278 0.0
S810 S 0.1168 0.07392 0.94179 0.0
N811 N 0.11761 0.11163 0.08786 0.0
N812 N 0.12285 0.12696 0.85518 0.0
C813 C 0.12577 0.17949 0.9436 0.0
C814 C 0.12303 0.17103 0.07276 0.0
C815 C 0.8854 0.19846 0.04927 0.0
C816 C 0.88415 0.24641 0.15217 0.0
C817 C 0.88395 0.20428 0.9205 0.0
C818 C 0.88167 0.25932 0.88408 0.0
H819 H 0.88699 0.15456 0.06844 0.0
H820 H 0.88398 0.16406 0.8486 0.0
S821 S 0.87983 0.40283 0.11257 0.0
N822 N 0.8823 0.35407 0.20368 0.0
N823 N 0.87894 0.36414 0.96705 0.0
C824 C 0.88094 0.30826 0.98611 0.0
C825 C 0.88254 0.30247 0.1172 0.0
C826 C 0.13682 0.79203 0.09007 0.0
C827 C 0.13492 0.7412 0.15432 0.0
C828 C 0.13457 0.78514 0.95651 0.0
C829 C 0.13077 0.72651 0.87553 0.0
H830 H 0.14014 0.83852 0.14402 0.0
H831 H 0.13588 0.82644 0.91659 0.0
S832 S 0.12493 0.57697 0.98909 0.0
N833 N 0.1294 0.62924 0.11957 0.0
N834 N 0.12498 0.61592 0.87438 0.0
C835 C 0.12879 0.67523 0.93845 0.0
C836 C 0.13105 0.68241 0.07445 0.0
C837 C 0.88794 0.82341 0.0433 0.0
C838 C 0.8838 0.77481 0.93594 0.0
C839 C 0.88574 0.81405 0.17036 0.0
C840 C 0.87943 0.75495 0.20037 0.0
H841 H 0.89285 0.87006 0.02902 0.0
H842 H 0.88884 0.85392 0.24571 0.0
S843 S 0.86807 0.6099 0.95958 0.0
N844 N 0.87425 0.66368 0.87495 0.0
N845 N 0.86957 0.64643 0.10686 0.0
C846 C 0.87546 0.70596 0.09404 0.0
C847 C 0.87786 0.71547 0.96521 0.0
C848 C 0.62964 0.70448 0.46845 0.0
C849 C 0.63758 0.76193 0.43798 0.0
C850 C 0.62691 0.69623 0.59546 0.0
C851 C 0.63243 0.7439 0.7023 0.0
H852 H 0.62543 0.66518 0.39336 0.0
H853 H 0.62043 0.65117 0.61014 0.0
S854 S 0.65388 0.90368 0.67759 0.0
N855 N 0.65099 0.86748 0.53026 0.0
N856 N 0.64595 0.85204 0.76306 0.0
C857 C 0.64049 0.80124 0.67286 0.0
C858 C 0.64316 0.80982 0.54378 0.0
C859 C 0.38015 0.71451 0.60204 0.0
C860 C 0.38025 0.76742 0.6971 0.0
C861 C 0.37845 0.71503 0.46997 0.0
C862 C 0.37782 0.76952 0.42304 0.0
H863 H 0.38157 0.67212 0.62957 0.0
H864 H 0.37773 0.67213 0.40404 0.0
S865 S 0.37822 0.9216 0.62883 0.0
N866 N 0.37962 0.87611 0.72933 0.0
N867 N 0.37722 0.8778 0.48814 0.0
C868 C 0.37801 0.82241 0.51736 0.0
C869 C 0.37931 0.82147 0.65078 0.0
C870 C 0.62863 0.18714 0.38575 0.0
C871 C 0.63015 0.2376 0.32099 0.0
C872 C 0.63077 0.1949 0.51959 0.0
C873 C 0.6341 0.25394 0.59945 0.0
H874 H 0.62565 0.14039 0.3318 0.0
H875 H 0.62971 0.15405 0.56065 0.0
S876 S 0.63828 0.40217 0.48332 0.0
N877 N 0.63456 0.34927 0.35337 0.0
N878 N 0.63862 0.36414 0.59908 0.0
C879 C 0.63561 0.30469 0.53572 0.0
C880 C 0.6335 0.29667 0.39969 0.0
C881 C 0.38032 0.29099 0.44052 0.0
C882 C 0.3795 0.24002 0.33942 0.0
C883 C 0.3782 0.28419 0.56872 0.0
C884 C 0.37601 0.22619 0.60681 0.0
H885 H 0.38285 0.33738 0.42057 0.0
H886 H 0.37852 0.32507 0.63879 0.0
S887 S 0.37747 0.07978 0.39028 0.0
N888 N 0.37951 0.13074 0.29677 0.0
N889 N 0.37478 0.1175 0.53097 0.0
C890 C 0.37574 0.17532 0.50795 0.0
C891 C 0.37798 0.18236 0.37791 0.0
C892 C 0.00745 0.28026 0.57554 0.0
C893 C 0.01996 0.2702 0.49201 0.0
C894 C 0.99229 0.28827 0.53344 0.0
C895 C 0.98911 0.28766 0.40632 0.0
H896 H 0.00892 0.27726 0.67299 0.0
H897 H 0.98261 0.28994 0.59918 0.0
S898 S 0.01896 0.27868 0.15479 0.0
N899 N 0.02887 0.2701 0.27945 0.0
N900 N 1.00081 0.28875 0.20201 0.0
C901 C 1.0022 0.28567 0.32506 0.0
C902 C 0.01754 0.27633 0.36744 0.0
C903 C 0.00679 0.8133 0.52545 0.0
C904 C 0.99366 0.79121 0.59858 0.0
C905 C 0.02056 0.7865 0.50978 0.0
C906 C 0.02176 0.73618 0.56588 0.0
H907 H 0.00639 0.85162 0.47919 0.0
H908 H 0.03014 0.80428 0.45074 0.0
S909 S 0.99149 0.66289 0.77256 0.0
N910 N 0.98336 0.71759 0.73274 0.0
N911 N 0.00898 0.66655 0.70102 0.0
C912 C 0.00885 0.7139 0.63995 0.0
C913 C 0.99488 0.74137 0.65655 0.0
C914 C 0.51583 0.70007 1.01549 0.0
C915 C 0.52294 0.76201 0.06865 0.0
C916 C 0.49872 0.67946 0.99524 0.0
C917 C 0.48786 0.71954 0.0288 0.0
H918 H 0.52344 0.66649 0.99497 0.0
H919 H 0.49394 0.63095 0.95637 0.0
S920 S 0.50057 0.8886 0.15449 0.0
N921 N 0.51797 0.86532 0.13719 0.0
N922 N 0.48597 0.82599 0.10877 0.0
C923 C 0.49496 0.7825 0.07483 0.0
C924 C 0.5124 0.80372 0.09254 0.0
C925 C 0.50741 0.31826 0.0522 0.0
C926 C 0.4926 0.27322 0.02657 0.0
C927 C 0.52214 0.30272 0.0819 0.0
C928 C 0.52274 0.24145 0.08811 0.0
H929 H 0.50765 0.36613 0.04803 0.0
H930 H 0.53315 0.33913 0.10062 0.0
S931 S 0.48759 0.10562 0.02694 0.0
N932 N 0.47958 0.16444 1.00826 0.0
N933 N 0.50721 0.13513 0.06488 0.0
C934 C 0.508 0.19598 0.06462 0.0
C935 C 0.49297 0.21187 0.03397 0.0
loop_
_geom_bond_atom_site_label_1
_geom_bond_atom_site_label_2
_geom_bond_distance
_geom_bond_site_symmetry_2
_ccdc_geom_bond_type
Eu0 N31 2.657 . S
Eu0 N38 2.609 . S
Eu0 O44 2.558 . S
Eu0 O45 2.612 . S
Eu0 O47 2.339 . S
Eu0 O48 2.563 . S
Eu0 O49 2.419 . S
Eu0 O51 2.380 . S
Eu0 O52 2.432 . S
Eu0 C64 2.848 . S
C1 C4 1.429 . S
C1 C5 1.411 . S
C1 N8 1.377 . S
C2 C4 1.420 . S
C2 C6 1.423 1_554 S
C2 C14 1.392 1_554 S
C3 C5 1.420 . S
C3 C6 1.351 1_554 S
C3 H26 0.931 1_554 S
C4 C1 1.429 . S
C4 C2 1.420 . S
C4 N12 1.362 . S
C5 C1 1.411 . S
C5 C3 1.420 . S
C5 C10 1.395 . S
C6 C2 1.423 1_556 S
C6 C3 1.351 1_556 S
C6 H18 0.930 . S
C7 C9 1.400 . S
C7 C10 1.386 . S
C7 H19 0.930 . S
N8 C1 1.377 . S
N8 C9 1.321 . S
N8 Eu11 2.609 . S
C9 C7 1.400 . S
C9 N8 1.321 . S
C9 H16 0.930 . S
C10 C5 1.395 . S
C10 C7 1.386 . S
C10 H29 0.930 . S
Eu11 N8 2.609 . S
Eu11 N12 2.657 . S
Eu11 O45 2.380 . S
Eu11 O46 2.432 . S
Eu11 O50 2.558 . S
Eu11 O51 2.612 . S
Eu11 O53 2.339 . S
Eu11 O54 2.563 . S
Eu11 O55 2.419 . S
Eu11 C75 2.848 . S
N12 C4 1.362 . S
N12 Eu11 2.657 . S
N12 C13 1.334 . S
C13 N12 1.334 . S
C13 C15 1.413 . S
C13 H20 0.929 . S
C14 C2 1.392 1_556 S
C14 C15 1.367 1_556 S
C14 H22 0.930 . S
C15 C13 1.413 . S
C15 C14 1.367 1_554 S
C15 H17 0.930 . S
H16 C9 0.930 . S
H17 C15 0.930 . S
H18 C6 0.930 . S
H19 C7 0.930 . S
H20 C13 0.929 . S
H21 C35 0.930 . S
H22 C14 0.930 . S
H23 C41 0.930 . S
H24 C32 0.929 . S
H25 C39 0.930 . S
H26 C3 0.931 1_556 S
H27 C33 0.930 . S
H28 C66 0.930 1_554 S
H29 C10 0.930 . S
H30 C65 0.931 . S
N31 Eu0 2.657 . S
N31 C32 1.334 . S
N31 C36 1.362 . S
C32 H24 0.929 . S
C32 N31 1.334 . S
C32 C35 1.413 . S
C33 H27 0.930 . S
C33 C34 1.392 . S
C33 C35 1.367 . S
C34 C33 1.392 . S
C34 C36 1.420 . S
C34 C66 1.423 . S
C35 H21 0.930 . S
C35 C32 1.413 . S
C35 C33 1.367 . S
C36 N31 1.362 . S
C36 C34 1.420 . S
C36 C40 1.429 . S
H37 C42 0.930 . S
N38 Eu0 2.609 . S
N38 C40 1.377 . S
N38 C41 1.321 . S
C39 H25 0.930 . S
C39 C41 1.400 . S
C39 C42 1.386 . S
C40 C36 1.429 . S
C40 N38 1.377 . S
C40 C43 1.411 . S
C41 H23 0.930 . S
C41 N38 1.321 . S
C41 C39 1.400 . S
C42 H37 0.930 . S
C42 C39 1.386 . S
C42 C43 1.395 . S
C43 C40 1.411 . S
C43 C42 1.395 . S
C43 C65 1.420 . S
O44 Eu0 2.558 . S
O44 C64 1.257 . S
O45 Eu0 2.612 . S
O45 Eu11 2.380 . S
O45 C56 1.276 . S
O46 Eu11 2.432 . S
O46 C63 1.264 . S
O47 Eu0 2.339 . S
O47 C63 1.254 . S
O48 Eu0 2.563 . S
O48 C56 1.235 . S
O49 Eu0 2.419 . S
O49 C64 1.249 . S
O50 Eu11 2.558 . S
O50 C75 1.257 . S
O51 Eu0 2.380 . S
O51 Eu11 2.612 . S
O51 C67 1.276 . S
O52 Eu0 2.432 . S
O52 C74 1.264 . S
O53 Eu11 2.339 . S
O53 C74 1.254 . S
O54 Eu11 2.563 . S
O54 C67 1.235 . S
O55 Eu11 2.419 . S
O55 C75 1.249 . S
C56 O45 1.276 . S
C56 O48 1.235 . S
C57 C59 1.393 . S
C57 C61 1.395 . S
C57 C64 1.492 . S
C58 C59 1.392 . S
C58 C60 1.386 . S
C59 C57 1.393 . S
C59 C58 1.392 . S
C59 H76 0.930 . S
C60 C58 1.386 . S
C60 C62 1.395 . S
C60 H77 0.930 . S
C61 C57 1.395 . S
C61 C62 1.379 . S
C61 H78 0.930 . S
C62 C60 1.395 . S
C62 C61 1.379 . S
C62 H79 0.930 . S
C63 O46 1.264 . S
C63 O47 1.254 . S
C64 Eu0 2.848 . S
C64 O44 1.257 . S
C64 O49 1.249 . S
C64 C57 1.492 . S
C65 H30 0.931 . S
C65 C43 1.420 . S
C65 C66 1.351 . S
C66 H28 0.930 1_556 S
C66 C34 1.423 . S
C66 C65 1.351 . S
C67 O51 1.276 . S
C67 O54 1.235 . S
C68 C69 1.393 . S
C68 C72 1.395 . S
C68 C75 1.492 . S
C69 C68 1.393 . S
C69 C70 1.392 . S
C69 H80 0.930 . S
C70 C69 1.392 . S
C70 C71 1.386 . S
C71 C70 1.386 . S
C71 C73 1.395 . S
C71 H81 0.930 . S
C72 C68 1.395 . S
C72 C73 1.379 . S
C72 H82 0.930 . S
C73 C71 1.395 . S
C73 C72 1.379 . S
C73 H83 0.930 . S
C74 O52 1.264 . S
C74 O53 1.254 . S
C75 Eu11 2.848 . S
C75 O50 1.257 . S
C75 O55 1.249 . S
C75 C68 1.492 . S
H76 C59 0.930 . S
H77 C60 0.930 . S
H78 C61 0.930 . S
H79 C62 0.930 . S
H80 C69 0.930 . S
H81 C71 0.930 . S
H82 C72 0.930 . S
H83 C73 0.930 . S
Eu84 N115 2.657 . S
Eu84 N122 2.609 . S
Eu84 O128 2.558 . S
Eu84 O129 2.612 . S
Eu84 O131 2.339 . S
Eu84 O132 2.563 . S
Eu84 O133 2.419 . S
Eu84 O135 2.380 . S
Eu84 O136 2.432 . S
Eu84 C148 2.848 . S
C85 C88 1.429 . S
C85 C89 1.411 . S
C85 N92 1.377 . S
C86 C88 1.420 . S
C86 C90 1.423 . S
C86 C98 1.392 . S
C87 C89 1.420 . S
C87 C90 1.351 . S
C87 H110 0.931 . S
C88 C85 1.429 . S
C88 C86 1.420 . S
C88 N96 1.362 . S
C89 C85 1.411 . S
C89 C87 1.420 . S
C89 C94 1.395 . S
C90 C86 1.423 . S
C90 C87 1.351 . S
C90 H102 0.930 1_556 S
C91 C93 1.400 . S
C91 C94 1.386 . S
C91 H103 0.930 . S
N92 C85 1.377 . S
N92 C93 1.321 . S
N92 Eu95 2.609 . S
C93 C91 1.400 . S
C93 N92 1.321 . S
C93 H100 0.930 . S
C94 C89 1.395 . S
C94 C91 1.386 . S
C94 H113 0.930 . S
Eu95 N92 2.609 . S
Eu95 N96 2.657 . S
Eu95 O129 2.380 . S
Eu95 O130 2.432 . S
Eu95 O134 2.558 . S
Eu95 O135 2.612 . S
Eu95 O137 2.339 . S
Eu95 O138 2.563 . S
Eu95 O139 2.419 . S
Eu95 C159 2.848 . S
N96 C88 1.362 . S
N96 Eu95 2.657 . S
N96 C97 1.334 . S
C97 N96 1.334 . S
C97 C99 1.413 . S
C97 H104 0.929 . S
C98 C86 1.392 . S
C98 C99 1.367 . S
C98 H106 0.930 . S
C99 C97 1.413 . S
C99 C98 1.367 . S
C99 H101 0.930 . S
H100 C93 0.930 . S
H101 C99 0.930 . S
H102 C90 0.930 1_554 S
H103 C91 0.930 . S
H104 C97 0.929 . S
H105 C119 0.930 . S
H106 C98 0.930 . S
H107 C125 0.930 . S
H108 C116 0.929 . S
H109 C123 0.930 . S
H110 C87 0.931 . S
H111 C117 0.930 . S
H112 C150 0.930 . S
H113 C94 0.930 . S
H114 C149 0.931 . S
N115 Eu84 2.657 . S
N115 C116 1.334 . S
N115 C120 1.362 . S
C116 H108 0.929 . S
C116 N115 1.334 . S
C116 C119 1.413 . S
C117 H111 0.930 . S
C117 C118 1.392 1_556 S
C117 C119 1.367 1_556 S
C118 C117 1.392 1_554 S
C118 C120 1.420 . S
C118 C150 1.423 1_554 S
C119 H105 0.930 . S
C119 C116 1.413 . S
C119 C117 1.367 1_554 S
C120 N115 1.362 . S
C120 C118 1.420 . S
C120 C124 1.429 . S
H121 C126 0.930 . S
N122 Eu84 2.609 . S
N122 C124 1.377 . S
N122 C125 1.321 . S
C123 H109 0.930 . S
C123 C125 1.400 . S
C123 C126 1.386 . S
C124 C120 1.429 . S
C124 N122 1.377 . S
C124 C127 1.411 . S
C125 H107 0.930 . S
C125 N122 1.321 . S
C125 C123 1.400 . S
C126 H121 0.930 . S
C126 C123 1.386 . S
C126 C127 1.395 . S
C127 C124 1.411 . S
C127 C126 1.395 . S
C127 C149 1.420 1_554 S
O128 Eu84 2.558 . S
O128 C148 1.257 . S
O129 Eu84 2.612 . S
O129 Eu95 2.380 . S
O129 C140 1.276 . S
O130 Eu95 2.432 . S
O130 C147 1.264 . S
O131 Eu84 2.339 . S
O131 C147 1.254 . S
O132 Eu84 2.563 . S
O132 C140 1.235 . S
O133 Eu84 2.419 . S
O133 C148 1.249 . S
O134 Eu95 2.558 . S
O134 C159 1.257 . S
O135 Eu84 2.380 . S
O135 Eu95 2.612 . S
O135 C151 1.276 . S
O136 Eu84 2.432 . S
O136 C158 1.264 . S
O137 Eu95 2.339 . S
O137 C158 1.254 . S
O138 Eu95 2.563 . S
O138 C151 1.235 . S
O139 Eu95 2.419 . S
O139 C159 1.249 . S
C140 O129 1.276 . S
C140 O132 1.235 . S
C141 C143 1.393 . S
C141 C145 1.395 . S
C141 C148 1.492 . S
C142 C143 1.392 . S
C142 C144 1.386 . S
C143 C141 1.393 . S
C143 C142 1.392 . S
C143 H160 0.930 . S
C144 C142 1.386 . S
C144 C146 1.395 . S
C144 H161 0.930 . S
C145 C141 1.395 . S
C145 C146 1.379 . S
C145 H162 0.930 . S
C146 C144 1.395 . S
C146 C145 1.379 . S
C146 H163 0.930 . S
C147 O130 1.264 . S
C147 O131 1.254 . S
C148 Eu84 2.848 . S
C148 O128 1.257 . S
C148 O133 1.249 . S
C148 C141 1.492 . S
C149 H114 0.931 . S
C149 C127 1.420 1_556 S
C149 C150 1.351 . S
C150 H112 0.930 . S
C150 C118 1.423 1_556 S
C150 C149 1.351 . S
C151 O135 1.276 . S
C151 O138 1.235 . S
C152 C153 1.393 . S
C152 C156 1.395 . S
C152 C159 1.492 . S
C153 C152 1.393 . S
C153 C154 1.392 . S
C153 H164 0.930 . S
C154 C153 1.392 . S
C154 C155 1.386 . S
C155 C154 1.386 . S
C155 C157 1.395 . S
C155 H165 0.930 . S
C156 C152 1.395 . S
C156 C157 1.379 . S
C156 H166 0.930 . S
C157 C155 1.395 . S
C157 C156 1.379 . S
C157 H167 0.930 . S
C158 O136 1.264 . S
C158 O137 1.254 . S
C159 Eu95 2.848 . S
C159 O134 1.257 . S
C159 O139 1.249 . S
C159 C152 1.492 . S
H160 C143 0.930 . S
H161 C144 0.930 . S
H162 C145 0.930 . S
H163 C146 0.930 . S
H164 C153 0.930 . S
H165 C155 0.930 . S
H166 C156 0.930 . S
H167 C157 0.930 . S
Eu168 N199 2.657 . S
Eu168 N206 2.609 . S
Eu168 O212 2.558 . S
Eu168 O213 2.612 . S
Eu168 O215 2.339 . S
Eu168 O216 2.563 . S
Eu168 O217 2.419 . S
Eu168 O219 2.380 . S
Eu168 O220 2.432 . S
Eu168 C232 2.848 . S
C169 C172 1.429 . S
C169 C173 1.411 . S
C169 N176 1.377 . S
C170 C172 1.420 . S
C170 C174 1.423 . S
C170 C182 1.392 . S
C171 C173 1.420 . S
C171 C174 1.351 . S
C171 H194 0.931 1_554 S
C172 C169 1.429 . S
C172 C170 1.420 . S
C172 N180 1.362 . S
C173 C169 1.411 . S
C173 C171 1.420 . S
C173 C178 1.395 . S
C174 C170 1.423 . S
C174 C171 1.351 . S
C174 H186 0.930 1_554 S
C175 C177 1.400 . S
C175 C178 1.386 . S
C175 H187 0.930 . S
N176 C169 1.377 . S
N176 C177 1.321 . S
N176 Eu179 2.609 . S
C177 C175 1.400 . S
C177 N176 1.321 . S
C177 H184 0.930 . S
C178 C173 1.395 . S
C178 C175 1.386 . S
C178 H197 0.930 . S
Eu179 N176 2.609 . S
Eu179 N180 2.657 . S
Eu179 O213 2.380 . S
Eu179 O214 2.432 . S
Eu179 O218 2.558 . S
Eu179 O219 2.612 . S
Eu179 O221 2.339 . S
Eu179 O222 2.563 . S
Eu179 O223 2.419 . S
Eu179 C243 2.848 . S
N180 C172 1.362 . S
N180 Eu179 2.657 . S
N180 C181 1.334 . S
C181 N180 1.334 . S
C181 C183 1.413 . S
C181 H188 0.929 . S
C182 C170 1.392 . S
C182 C183 1.367 . S
C182 H190 0.930 . S
C183 C181 1.413 . S
C183 C182 1.367 . S
C183 H185 0.930 . S
H184 C177 0.930 . S
H185 C183 0.930 . S
H186 C174 0.930 1_556 S
H187 C175 0.930 . S
H188 C181 0.929 . S
H189 C203 0.930 . S
H190 C182 0.930 . S
H191 C209 0.930 . S
H192 C200 0.929 . S
H193 C207 0.930 . S
H194 C171 0.931 1_556 S
H195 C201 0.930 . S
H196 C234 0.930 . S
H197 C178 0.930 . S
H198 C233 0.931 . S
N199 Eu168 2.657 . S
N199 C200 1.334 . S
N199 C204 1.362 . S
C200 H192 0.929 . S
C200 N199 1.334 . S
C200 C203 1.413 . S
C201 H195 0.930 . S
C201 C202 1.392 1_554 S
C201 C203 1.367 1_554 S
C202 C201 1.392 1_556 S
C202 C204 1.420 . S
C202 C234 1.423 1_556 S
C203 H189 0.930 . S
C203 C200 1.413 . S
C203 C201 1.367 1_556 S
C204 N199 1.362 . S
C204 C202 1.420 . S
C204 C208 1.429 . S
H205 C210 0.930 . S
N206 Eu168 2.609 . S
N206 C208 1.377 . S
N206 C209 1.321 . S
C207 H193 0.930 . S
C207 C209 1.400 . S
C207 C210 1.386 . S
C208 C204 1.429 . S
C208 N206 1.377 . S
C208 C211 1.411 . S
C209 H191 0.930 . S
C209 N206 1.321 . S
C209 C207 1.400 . S
C210 H205 0.930 . S
C210 C207 1.386 . S
C210 C211 1.395 . S
C211 C208 1.411 . S
C211 C210 1.395 . S
C211 C233 1.420 1_556 S
O212 Eu168 2.558 . S
O212 C232 1.257 . S
O213 Eu168 2.612 . S
O213 Eu179 2.380 . S
O213 C224 1.276 . S
O214 Eu179 2.432 . S
O214 C231 1.264 . S
O215 Eu168 2.339 . S
O215 C231 1.254 . S
O216 Eu168 2.563 . S
O216 C224 1.235 . S
O217 Eu168 2.419 . S
O217 C232 1.249 . S
O218 Eu179 2.558 . S
O218 C243 1.257 . S
O219 Eu168 2.380 . S
O219 Eu179 2.612 . S
O219 C235 1.276 . S
O220 Eu168 2.432 . S
O220 C242 1.264 . S
O221 Eu179 2.339 . S
O221 C242 1.254 . S
O222 Eu179 2.563 . S
O222 C235 1.235 . S
O223 Eu179 2.419 . S
O223 C243 1.249 . S
C224 O213 1.276 . S
C224 O216 1.235 . S
C225 C227 1.393 . S
C225 C229 1.395 . S
C225 C232 1.492 . S
C226 C227 1.392 . S
C226 C228 1.386 . S
C227 C225 1.393 . S
C227 C226 1.392 . S
C227 H244 0.930 . S
C228 C226 1.386 . S
C228 C230 1.395 . S
C228 H245 0.930 . S
C229 C225 1.395 . S
C229 C230 1.379 . S
C229 H246 0.930 . S
C230 C228 1.395 . S
C230 C229 1.379 . S
C230 H247 0.930 . S
C231 O214 1.264 . S
C231 O215 1.254 . S
C232 Eu168 2.848 . S
C232 O212 1.257 . S
C232 O217 1.249 . S
C232 C225 1.492 . S
C233 H198 0.931 . S
C233 C211 1.420 1_554 S
C233 C234 1.351 . S
C234 H196 0.930 . S
C234 C202 1.423 1_554 S
C234 C233 1.351 . S
C235 O219 1.276 . S
C235 O222 1.235 . S
C236 C237 1.393 . S
C236 C240 1.395 . S
C236 C243 1.492 . S
C237 C236 1.393 . S
C237 C238 1.392 . S
C237 H248 0.930 . S
C238 C237 1.392 . S
C238 C239 1.386 . S
C239 C238 1.386 . S
C239 C241 1.395 . S
C239 H249 0.930 . S
C240 C236 1.395 . S
C240 C241 1.379 . S
C240 H250 0.930 . S
C241 C239 1.395 . S
C241 C240 1.379 . S
C241 H251 0.930 . S
C242 O220 1.264 . S
C242 O221 1.254 . S
C243 Eu179 2.848 . S
C243 O218 1.257 . S
C243 O223 1.249 . S
C243 C236 1.492 . S
H244 C227 0.930 . S
H245 C228 0.930 . S
H246 C229 0.930 . S
H247 C230 0.930 . S
H248 C237 0.930 . S
H249 C239 0.930 . S
H250 C240 0.930 . S
H251 C241 0.930 . S
Eu252 N283 2.657 . S
Eu252 N290 2.609 . S
Eu252 O296 2.558 . S
Eu252 O297 2.612 . S
Eu252 O299 2.339 . S
Eu252 O300 2.563 . S
Eu252 O301 2.419 . S
Eu252 O303 2.380 . S
Eu252 O304 2.432 . S
Eu252 C316 2.848 . S
C253 C256 1.429 . S
C253 C257 1.411 . S
C253 N260 1.377 . S
C254 C256 1.420 . S
C254 C258 1.423 . S
C254 C266 1.392 . S
C255 C257 1.420 . S
C255 C258 1.351 . S
C255 H278 0.931 . S
C256 C253 1.429 . S
C256 C254 1.420 . S
C256 N264 1.362 . S
C257 C253 1.411 . S
C257 C255 1.420 . S
C257 C262 1.395 . S
C258 C254 1.423 . S
C258 C255 1.351 . S
C258 H270 0.930 1_554 S
C259 C261 1.400 . S
C259 C262 1.386 . S
C259 H271 0.930 1_565 S
N260 C253 1.377 . S
N260 C261 1.321 . S
N260 Eu263 2.609 . S
C261 C259 1.400 . S
C261 N260 1.321 . S
C261 H268 0.930 . S
C262 C257 1.395 . S
C262 C259 1.386 . S
C262 H281 0.930 . S
Eu263 N260 2.609 . S
Eu263 N264 2.657 . S
Eu263 O297 2.380 . S
Eu263 O298 2.432 . S
Eu263 O302 2.558 . S
Eu263 O303 2.612 . S
Eu263 O305 2.339 . S
Eu263 O306 2.563 . S
Eu263 O307 2.419 . S
Eu263 C327 2.848 . S
N264 C256 1.362 . S
N264 Eu263 2.657 . S
N264 C265 1.334 . S
C265 N264 1.334 . S
C265 C267 1.413 . S
C265 H272 0.929 . S
C266 C254 1.392 . S
C266 C267 1.367 . S
C266 H274 0.930 . S
C267 C265 1.413 . S
C267 C266 1.367 . S
C267 H269 0.930 . S
H268 C261 0.930 . S
H269 C267 0.930 . S
H270 C258 0.930 1_556 S
H271 C259 0.930 1_545 S
H272 C265 0.929 . S
H273 C287 0.930 . S
H274 C266 0.930 . S
H275 C293 0.930 . S
H276 C284 0.929 . S
H277 C291 0.930 . S
H278 C255 0.931 . S
H279 C285 0.930 . S
H280 C318 0.930 . S
H281 C262 0.930 . S
H282 C317 0.932 . S
N283 Eu252 2.657 . S
N283 C284 1.334 . S
N283 C288 1.362 . S
C284 H276 0.929 . S
C284 N283 1.334 . S
C284 C287 1.413 . S
C285 H279 0.930 . S
C285 C286 1.392 1_554 S
C285 C287 1.367 1_554 S
C286 C285 1.392 1_556 S
C286 C288 1.420 . S
C286 C318 1.423 1_556 S
C287 H273 0.930 . S
C287 C284 1.413 . S
C287 C285 1.367 1_556 S
C288 N283 1.362 . S
C288 C286 1.420 . S
C288 C292 1.429 . S
H289 C294 0.930 . S
N290 Eu252 2.609 . S
N290 C292 1.377 . S
N290 C293 1.321 . S
C291 H277 0.930 . S
C291 C293 1.400 . S
C291 C294 1.386 . S
C292 C288 1.429 . S
C292 N290 1.377 . S
C292 C295 1.411 . S
C293 H275 0.930 . S
C293 N290 1.321 . S
C293 C291 1.400 . S
C294 H289 0.930 . S
C294 C291 1.386 . S
C294 C295 1.395 . S
C295 C292 1.411 . S
C295 C294 1.395 . S
C295 C317 1.419 1_556 S
O296 Eu252 2.558 . S
O296 C316 1.257 . S
O297 Eu252 2.612 . S
O297 Eu263 2.380 . S
O297 C308 1.276 . S
O298 Eu263 2.432 . S
O298 C315 1.264 . S
O299 Eu252 2.339 . S
O299 C315 1.254 . S
O300 Eu252 2.563 . S
O300 C308 1.235 . S
O301 Eu252 2.419 . S
O301 C316 1.249 . S
O302 Eu263 2.558 . S
O302 C327 1.257 . S
O303 Eu252 2.380 . S
O303 Eu263 2.612 . S
O303 C319 1.276 . S
O304 Eu252 2.432 . S
O304 C326 1.264 . S
O305 Eu263 2.339 . S
O305 C326 1.254 . S
O306 Eu263 2.563 . S
O306 C319 1.235 . S
O307 Eu263 2.419 . S
O307 C327 1.249 . S
C308 O297 1.276 . S
C308 O300 1.235 . S
C309 C311 1.393 . S
C309 C313 1.395 . S
C309 C316 1.492 . S
C310 C311 1.392 . S
C310 C312 1.386 . S
C311 C309 1.393 . S
C311 C310 1.392 . S
C311 H328 0.930 . S
C312 C310 1.386 . S
C312 C314 1.395 . S
C312 H329 0.930 . S
C313 C309 1.395 . S
C313 C314 1.379 . S
C313 H330 0.930 . S
C314 C312 1.395 . S
C314 C313 1.379 . S
C314 H331 0.930 . S
C315 O298 1.264 . S
C315 O299 1.254 . S
C316 Eu252 2.848 . S
C316 O296 1.257 . S
C316 O301 1.249 . S
C316 C309 1.492 . S
C317 H282 0.932 . S
C317 C295 1.419 1_554 S
C317 C318 1.351 . S
C318 H280 0.930 . S
C318 C286 1.423 1_554 S
C318 C317 1.351 . S
C319 O303 1.276 . S
C319 O306 1.235 . S
C320 C321 1.393 . S
C320 C324 1.395 . S
C320 C327 1.492 . S
C321 C320 1.393 . S
C321 C322 1.392 . S
C321 H332 0.930 . S
C322 C321 1.392 . S
C322 C323 1.386 . S
C323 C322 1.386 . S
C323 C325 1.395 . S
C323 H333 0.930 . S
C324 C320 1.395 . S
C324 C325 1.379 . S
C324 H334 0.930 . S
C325 C323 1.395 . S
C325 C324 1.379 . S
C325 H335 0.930 . S
C326 O304 1.264 . S
C326 O305 1.254 . S
C327 Eu263 2.848 . S
C327 O302 1.257 . S
C327 O307 1.249 . S
C327 C320 1.492 . S
H328 C311 0.930 . S
H329 C312 0.930 . S
H330 C313 0.930 . S
H331 C314 0.930 . S
H332 C321 0.930 . S
H333 C323 0.930 . S
H334 C324 0.930 . S
H335 C325 0.930 . S
Eu336 N367 2.657 . S
Eu336 N374 2.609 . S
Eu336 O380 2.558 1_554 S
Eu336 O381 2.612 1_554 S
Eu336 O383 2.339 . S
Eu336 O384 2.563 1_554 S
Eu336 O385 2.419 1_554 S
Eu336 O387 2.380 . S
Eu336 O388 2.432 1_554 S
Eu336 C400 2.848 1_554 S
C337 C340 1.429 . S
C337 C341 1.411 . S
C337 N344 1.377 . S
C338 C340 1.420 . S
C338 C342 1.423 . S
C338 C350 1.392 . S
C339 C341 1.420 . S
C339 C342 1.351 . S
C339 H362 0.931 . S
C340 C337 1.429 . S
C340 C338 1.420 . S
C340 N348 1.362 . S
C341 C337 1.411 . S
C341 C339 1.420 . S
C341 C346 1.395 . S
C342 C338 1.423 . S
C342 C339 1.351 . S
C342 H354 0.930 . S
C343 C345 1.400 . S
C343 C346 1.386 . S
C343 H355 0.930 1_565 S
N344 C337 1.377 . S
N344 C345 1.321 . S
N344 Eu347 2.609 . S
C345 C343 1.400 . S
C345 N344 1.321 . S
C345 H352 0.930 . S
C346 C341 1.395 . S
C346 C343 1.386 . S
C346 H365 0.931 . S
Eu347 N344 2.609 . S
Eu347 N348 2.657 . S
Eu347 O381 2.380 . S
Eu347 O382 2.432 1_556 S
Eu347 O386 2.558 1_556 S
Eu347 O387 2.612 1_556 S
Eu347 O389 2.339 . S
Eu347 O390 2.563 1_556 S
Eu347 O391 2.419 1_556 S
Eu347 C411 2.848 1_556 S
N348 C340 1.362 . S
N348 Eu347 2.657 . S
N348 C349 1.334 . S
C349 N348 1.334 . S
C349 C351 1.413 . S
C349 H356 0.929 . S
C350 C338 1.392 . S
C350 C351 1.367 . S
C350 H358 0.930 . S
C351 C349 1.413 . S
C351 C350 1.367 . S
C351 H353 0.930 . S
H352 C345 0.930 . S
H353 C351 0.930 . S
H354 C342 0.930 . S
H355 C343 0.930 1_545 S
H356 C349 0.929 . S
H357 C371 0.930 . S
H358 C350 0.930 . S
H359 C377 0.930 . S
H360 C368 0.929 . S
H361 C375 0.930 . S
H362 C339 0.931 . S
H363 C369 0.930 . S
H364 C402 0.930 . S
H365 C346 0.931 . S
H366 C401 0.931 . S
N367 Eu336 2.657 . S
N367 C368 1.334 . S
N367 C372 1.362 . S
C368 H360 0.929 . S
C368 N367 1.334 . S
C368 C371 1.413 . S
C369 H363 0.930 . S
C369 C370 1.392 . S
C369 C371 1.367 . S
C370 C369 1.392 . S
C370 C372 1.420 . S
C370 C402 1.423 . S
C371 H357 0.930 . S
C371 C368 1.413 . S
C371 C369 1.367 . S
C372 N367 1.362 . S
C372 C370 1.420 . S
C372 C376 1.429 . S
H373 C378 0.930 . S
N374 Eu336 2.609 . S
N374 C376 1.377 . S
N374 C377 1.321 . S
C375 H361 0.930 . S
C375 C377 1.400 . S
C375 C378 1.386 . S
C376 C372 1.429 . S
C376 N374 1.377 . S
C376 C379 1.411 . S
C377 H359 0.930 . S
C377 N374 1.321 . S
C377 C375 1.400 . S
C378 H373 0.930 . S
C378 C375 1.386 . S
C378 C379 1.395 . S
C379 C376 1.411 . S
C379 C378 1.395 . S
C379 C401 1.420 . S
O380 Eu336 2.558 1_556 S
O380 C400 1.257 . S
O381 Eu336 2.612 1_556 S
O381 Eu347 2.380 . S
O381 C392 1.276 . S
O382 Eu347 2.432 1_554 S
O382 C399 1.264 . S
O383 Eu336 2.339 . S
O383 C399 1.254 . S
O384 Eu336 2.563 1_556 S
O384 C392 1.235 . S
O385 Eu336 2.419 1_556 S
O385 C400 1.249 . S
O386 Eu347 2.558 1_554 S
O386 C411 1.257 . S
O387 Eu336 2.380 . S
O387 Eu347 2.612 1_554 S
O387 C403 1.276 . S
O388 Eu336 2.432 1_556 S
O388 C410 1.264 . S
O389 Eu347 2.339 . S
O389 C410 1.254 . S
O390 Eu347 2.563 1_554 S
O390 C403 1.235 . S
O391 Eu347 2.419 1_554 S
O391 C411 1.249 . S
C392 O381 1.276 . S
C392 O384 1.235 . S
C393 C395 1.393 . S
C393 C397 1.395 . S
C393 C400 1.492 . S
C394 C395 1.392 . S
C394 C396 1.386 . S
C395 C393 1.393 . S
C395 C394 1.392 . S
C395 H412 0.930 . S
C396 C394 1.386 . S
C396 C398 1.395 . S
C396 H413 0.930 . S
C397 C393 1.395 . S
C397 C398 1.379 . S
C397 H414 0.930 . S
C398 C396 1.395 . S
C398 C397 1.379 . S
C398 H415 0.930 . S
C399 O382 1.264 . S
C399 O383 1.254 . S
C400 Eu336 2.848 1_556 S
C400 O380 1.257 . S
C400 O385 1.249 . S
C400 C393 1.492 . S
C401 H366 0.931 . S
C401 C379 1.420 . S
C401 C402 1.351 . S
C402 H364 0.930 . S
C402 C370 1.423 . S
C402 C401 1.351 . S
C403 O387 1.276 . S
C403 O390 1.235 . S
C404 C405 1.393 . S
C404 C408 1.395 . S
C404 C411 1.492 . S
C405 C404 1.393 . S
C405 C406 1.392 . S
C405 H416 0.930 . S
C406 C405 1.392 . S
C406 C407 1.386 . S
C407 C406 1.386 . S
C407 C409 1.395 . S
C407 H417 0.930 . S
C408 C404 1.395 . S
C408 C409 1.379 . S
C408 H418 0.930 . S
C409 C407 1.395 . S
C409 C408 1.379 . S
C409 H419 0.930 . S
C410 O388 1.264 . S
C410 O389 1.254 . S
C411 Eu347 2.848 1_554 S
C411 O386 1.257 . S
C411 O391 1.249 . S
C411 C404 1.492 . S
H412 C395 0.930 . S
H413 C396 0.930 . S
H414 C397 0.930 . S
H415 C398 0.930 . S
H416 C405 0.930 . S
H417 C407 0.930 . S
H418 C408 0.930 . S
H419 C409 0.930 . S
Eu420 N451 2.657 . S
Eu420 N458 2.609 . S
Eu420 O464 2.558 1_556 S
Eu420 O465 2.612 1_556 S
Eu420 O467 2.339 . S
Eu420 O468 2.563 1_556 S
Eu420 O469 2.419 1_556 S
Eu420 O471 2.380 . S
Eu420 O472 2.432 1_556 S
Eu420 C484 2.848 1_556 S
C421 C424 1.429 . S
C421 C425 1.411 . S
C421 N428 1.377 . S
C422 C424 1.420 . S
C422 C426 1.423 . S
C422 C434 1.392 . S
C423 C425 1.420 . S
C423 C426 1.351 . S
C423 H446 0.931 . S
C424 C421 1.429 . S
C424 C422 1.420 . S
C424 N432 1.362 . S
C425 C421 1.411 . S
C425 C423 1.420 . S
C425 C430 1.395 . S
C426 C422 1.423 . S
C426 C423 1.351 . S
C426 H438 0.930 . S
C427 C429 1.400 . S
C427 C430 1.386 . S
C427 H439 0.930 . S
N428 C421 1.377 . S
N428 C429 1.321 . S
N428 Eu431 2.609 . S
C429 C427 1.400 . S
C429 N428 1.321 . S
C429 H436 0.930 . S
C430 C425 1.395 . S
C430 C427 1.386 . S
C430 H449 0.930 . S
Eu431 N428 2.609 . S
Eu431 N432 2.657 . S
Eu431 O465 2.380 . S
Eu431 O466 2.432 1_554 S
Eu431 O470 2.558 1_554 S
Eu431 O471 2.612 1_554 S
Eu431 O473 2.339 . S
Eu431 O474 2.563 1_554 S
Eu431 O475 2.419 1_554 S
Eu431 C495 2.848 1_554 S
N432 C424 1.362 . S
N432 Eu431 2.657 . S
N432 C433 1.334 . S
C433 N432 1.334 . S
C433 C435 1.413 . S
C433 H440 0.929 . S
C434 C422 1.392 . S
C434 C435 1.367 . S
C434 H442 0.930 . S
C435 C433 1.413 . S
C435 C434 1.367 . S
C435 H437 0.930 . S
H436 C429 0.930 . S
H437 C435 0.930 . S
H438 C426 0.930 . S
H439 C427 0.930 . S
H440 C433 0.929 . S
H441 C455 0.930 . S
H442 C434 0.930 . S
H443 C461 0.930 . S
H444 C452 0.929 . S
H445 C459 0.930 . S
H446 C423 0.931 . S
H447 C453 0.930 . S
H448 C486 0.930 . S
H449 C430 0.930 . S
H450 C485 0.931 . S
N451 Eu420 2.657 . S
N451 C452 1.334 . S
N451 C456 1.362 . S
C452 H444 0.929 . S
C452 N451 1.334 . S
C452 C455 1.413 . S
C453 H447 0.930 . S
C453 C454 1.392 . S
C453 C455 1.367 . S
C454 C453 1.392 . S
C454 C456 1.420 . S
C454 C486 1.423 . S
C455 H441 0.930 . S
C455 C452 1.413 . S
C455 C453 1.367 . S
C456 N451 1.362 . S
C456 C454 1.420 . S
C456 C460 1.429 . S
H457 C462 0.930 . S
N458 Eu420 2.609 . S
N458 C460 1.377 . S
N458 C461 1.321 . S
C459 H445 0.930 . S
C459 C461 1.400 . S
C459 C462 1.386 . S
C460 C456 1.429 . S
C460 N458 1.377 . S
C460 C463 1.411 . S
C461 H443 0.930 . S
C461 N458 1.321 . S
C461 C459 1.400 . S
C462 H457 0.930 . S
C462 C459 1.386 . S
C462 C463 1.395 . S
C463 C460 1.411 . S
C463 C462 1.395 . S
C463 C485 1.420 . S
O464 Eu420 2.558 1_554 S
O464 C484 1.257 . S
O465 Eu420 2.612 1_554 S
O465 Eu431 2.380 . S
O465 C476 1.276 . S
O466 Eu431 2.432 1_556 S
O466 C483 1.264 . S
O467 Eu420 2.339 . S
O467 C483 1.254 . S
O468 Eu420 2.563 1_554 S
O468 C476 1.235 . S
O469 Eu420 2.419 1_554 S
O469 C484 1.249 . S
O470 Eu431 2.558 1_556 S
O470 C495 1.257 . S
O471 Eu420 2.380 . S
O471 Eu431 2.612 1_556 S
O471 C487 1.276 . S
O472 Eu420 2.432 1_554 S
O472 C494 1.264 . S
O473 Eu431 2.339 . S
O473 C494 1.254 . S
O474 Eu431 2.563 1_556 S
O474 C487 1.235 . S
O475 Eu431 2.419 1_556 S
O475 C495 1.249 . S
C476 O465 1.276 . S
C476 O468 1.235 . S
C477 C479 1.393 . S
C477 C481 1.395 . S
C477 C484 1.492 . S
C478 C479 1.392 . S
C478 C480 1.386 . S
C479 C477 1.393 . S
C479 C478 1.392 . S
C479 H496 0.930 . S
C480 C478 1.386 . S
C480 C482 1.395 . S
C480 H497 0.930 . S
C481 C477 1.395 . S
C481 C482 1.379 . S
C481 H498 0.930 . S
C482 C480 1.395 . S
C482 C481 1.379 . S
C482 H499 0.930 . S
C483 O466 1.264 . S
C483 O467 1.254 . S
C484 Eu420 2.848 1_554 S
C484 O464 1.257 . S
C484 O469 1.249 . S
C484 C477 1.492 . S
C485 H450 0.931 . S
C485 C463 1.420 . S
C485 C486 1.351 . S
C486 H448 0.930 . S
C486 C454 1.423 . S
C486 C485 1.351 . S
C487 O471 1.276 . S
C487 O474 1.235 . S
C488 C489 1.393 . S
C488 C492 1.395 . S
C488 C495 1.492 . S
C489 C488 1.393 . S
C489 C490 1.392 . S
C489 H500 0.930 . S
C490 C489 1.392 . S
C490 C491 1.386 . S
C491 C490 1.386 . S
C491 C493 1.395 . S
C491 H501 0.930 . S
C492 C488 1.395 . S
C492 C493 1.379 . S
C492 H502 0.930 . S
C493 C491 1.395 . S
C493 C492 1.379 . S
C493 H503 0.930 . S
C494 O472 1.264 . S
C494 O473 1.254 . S
C495 Eu431 2.848 1_556 S
C495 O470 1.257 . S
C495 O475 1.249 . S
C495 C488 1.492 . S
H496 C479 0.930 . S
H497 C480 0.930 . S
H498 C481 0.930 . S
H499 C482 0.930 . S
H500 C489 0.930 . S
H501 C491 0.930 . S
H502 C492 0.930 . S
H503 C493 0.930 . S
Eu504 N535 2.657 . S
Eu504 N542 2.609 . S
Eu504 O548 2.558 1_554 S
Eu504 O549 2.612 1_554 S
Eu504 O551 2.339 . S
Eu504 O552 2.563 1_554 S
Eu504 O553 2.419 1_554 S
Eu504 O555 2.380 . S
Eu504 O556 2.432 . S
Eu504 C568 2.848 1_554 S
C505 C508 1.429 . S
C505 C509 1.411 . S
C505 N512 1.377 . S
C506 C508 1.420 . S
C506 C510 1.423 . S
C506 C518 1.392 . S
C507 C509 1.420 . S
C507 C510 1.351 . S
C507 H530 0.931 . S
C508 C505 1.429 . S
C508 C506 1.420 . S
C508 N516 1.362 . S
C509 C505 1.411 . S
C509 C507 1.420 . S
C509 C514 1.395 1_545 S
C510 C506 1.423 . S
C510 C507 1.351 . S
C510 H522 0.930 . S
C511 C513 1.400 1_565 S
C511 C514 1.386 . S
C511 H523 0.930 . S
N512 C505 1.377 . S
N512 C513 1.321 . S
N512 Eu515 2.609 . S
C513 C511 1.400 1_545 S
C513 N512 1.321 . S
C513 H520 0.930 . S
C514 C509 1.395 1_565 S
C514 C511 1.386 . S
C514 H533 0.930 . S
Eu515 N512 2.609 . S
Eu515 N516 2.657 . S
Eu515 O549 2.380 . S
Eu515 O550 2.432 . S
Eu515 O554 2.558 1_556 S
Eu515 O555 2.612 1_556 S
Eu515 O557 2.339 . S
Eu515 O558 2.563 1_556 S
Eu515 O559 2.419 1_556 S
Eu515 C579 2.848 1_556 S
N516 C508 1.362 . S
N516 Eu515 2.657 . S
N516 C517 1.334 . S
C517 N516 1.334 . S
C517 C519 1.413 . S
C517 H524 0.929 . S
C518 C506 1.392 . S
C518 C519 1.367 . S
C518 H526 0.930 . S
C519 C517 1.413 . S
C519 C518 1.367 . S
C519 H521 0.930 . S
H520 C513 0.930 . S
H521 C519 0.930 . S
H522 C510 0.930 . S
H523 C511 0.930 . S
H524 C517 0.929 . S
H525 C539 0.930 . S
H526 C518 0.930 . S
H527 C545 0.930 . S
H528 C536 0.929 . S
H529 C543 0.930 . S
H530 C507 0.931 . S
H531 C537 0.930 . S
H532 C570 0.930 . S
H533 C514 0.930 . S
H534 C569 0.931 . S
N535 Eu504 2.657 . S
N535 C536 1.334 . S
N535 C540 1.362 . S
C536 H528 0.929 . S
C536 N535 1.334 . S
C536 C539 1.413 . S
C537 H531 0.930 . S
C537 C538 1.392 . S
C537 C539 1.367 . S
C538 C537 1.392 . S
C538 C540 1.420 . S
C538 C570 1.423 . S
C539 H525 0.930 . S
C539 C536 1.413 . S
C539 C537 1.367 . S
C540 N535 1.362 . S
C540 C538 1.420 . S
C540 C544 1.429 . S
H541 C546 0.930 . S
N542 Eu504 2.609 . S
N542 C544 1.377 . S
N542 C545 1.321 . S
C543 H529 0.930 . S
C543 C545 1.400 . S
C543 C546 1.386 . S
C544 C540 1.429 . S
C544 N542 1.377 . S
C544 C547 1.411 . S
C545 H527 0.930 . S
C545 N542 1.321 . S
C545 C543 1.400 . S
C546 H541 0.930 . S
C546 C543 1.386 . S
C546 C547 1.395 . S
C547 C544 1.411 . S
C547 C546 1.395 . S
C547 C569 1.420 . S
O548 Eu504 2.558 1_556 S
O548 C568 1.257 . S
O549 Eu504 2.612 1_556 S
O549 Eu515 2.380 . S
O549 C560 1.276 . S
O550 Eu515 2.432 . S
O550 C567 1.264 . S
O551 Eu504 2.339 . S
O551 C567 1.254 1_554 S
O552 Eu504 2.563 1_556 S
O552 C560 1.235 . S
O553 Eu504 2.419 1_556 S
O553 C568 1.249 . S
O554 Eu515 2.558 1_554 S
O554 C579 1.257 . S
O555 Eu504 2.380 . S
O555 Eu515 2.612 1_554 S
O555 C571 1.276 . S
O556 Eu504 2.432 . S
O556 C578 1.264 . S
O557 Eu515 2.339 . S
O557 C578 1.254 1_556 S
O558 Eu515 2.563 1_554 S
O558 C571 1.235 . S
O559 Eu515 2.419 1_554 S
O559 C579 1.249 . S
C560 O549 1.276 . S
C560 O552 1.235 . S
C561 C563 1.393 . S
C561 C565 1.395 . S
C561 C568 1.492 . S
C562 C563 1.392 . S
C562 C564 1.386 . S
C563 C561 1.393 . S
C563 C562 1.392 . S
C563 H580 0.930 . S
C564 C562 1.386 . S
C564 C566 1.395 . S
C564 H581 0.930 . S
C565 C561 1.395 . S
C565 C566 1.379 . S
C565 H582 0.930 . S
C566 C564 1.395 . S
C566 C565 1.379 . S
C566 H583 0.930 . S
C567 O550 1.264 . S
C567 O551 1.254 1_556 S
C568 Eu504 2.848 1_556 S
C568 O548 1.257 . S
C568 O553 1.249 . S
C568 C561 1.492 . S
C569 H534 0.931 . S
C569 C547 1.420 . S
C569 C570 1.351 . S
C570 H532 0.930 . S
C570 C538 1.423 . S
C570 C569 1.351 . S
C571 O555 1.276 . S
C571 O558 1.235 . S
C572 C573 1.393 . S
C572 C576 1.395 . S
C572 C579 1.492 . S
C573 C572 1.393 . S
C573 C574 1.392 . S
C573 H584 0.930 . S
C574 C573 1.392 . S
C574 C575 1.386 . S
C575 C574 1.386 . S
C575 C577 1.395 . S
C575 H585 0.930 . S
C576 C572 1.395 . S
C576 C577 1.379 . S
C576 H586 0.930 . S
C577 C575 1.395 . S
C577 C576 1.379 . S
C577 H587 0.930 . S
C578 O556 1.264 . S
C578 O557 1.254 1_554 S
C579 Eu515 2.848 1_554 S
C579 O554 1.257 . S
C579 O559 1.249 . S
C579 C572 1.492 . S
H580 C563 0.930 . S
H581 C564 0.930 . S
H582 C565 0.930 . S
H583 C566 0.930 . S
H584 C573 0.930 . S
H585 C575 0.930 . S
H586 C576 0.930 . S
H587 C577 0.930 . S
Eu588 N619 2.657 . S
Eu588 N626 2.609 . S
Eu588 O632 2.558 1_554 S
Eu588 O633 2.612 1_554 S
Eu588 O635 2.339 . S
Eu588 O636 2.563 1_554 S
Eu588 O637 2.419 1_554 S
Eu588 O639 2.380 . S
Eu588 O640 2.432 1_554 S
Eu588 C652 2.848 1_554 S
C589 C592 1.429 . S
C589 C593 1.411 . S
C589 N596 1.377 . S
C590 C592 1.420 . S
C590 C594 1.423 . S
C590 C602 1.392 . S
C591 C593 1.420 . S
C591 C594 1.351 . S
C591 H614 0.931 . S
C592 C589 1.429 . S
C592 C590 1.420 . S
C592 N600 1.362 . S
C593 C589 1.411 . S
C593 C591 1.420 . S
C593 C598 1.395 . S
C594 C590 1.423 . S
C594 C591 1.351 . S
C594 H606 0.930 . S
C595 C597 1.400 . S
C595 C598 1.386 . S
C595 H607 0.930 . S
N596 C589 1.377 . S
N596 C597 1.321 . S
N596 Eu599 2.609 . S
C597 C595 1.400 . S
C597 N596 1.321 . S
C597 H604 0.930 . S
C598 C593 1.395 . S
C598 C595 1.386 . S
C598 H617 0.930 . S
Eu599 N596 2.609 . S
Eu599 N600 2.657 . S
Eu599 O633 2.380 . S
Eu599 O634 2.432 1_556 S
Eu599 O638 2.558 1_556 S
Eu599 O639 2.612 1_556 S
Eu599 O641 2.339 . S
Eu599 O642 2.563 1_556 S
Eu599 O643 2.419 1_556 S
Eu599 C663 2.848 1_556 S
N600 C592 1.362 . S
N600 Eu599 2.657 . S
N600 C601 1.334 . S
C601 N600 1.334 . S
C601 C603 1.413 . S
C601 H608 0.929 . S
C602 C590 1.392 . S
C602 C603 1.367 . S
C602 H610 0.930 . S
C603 C601 1.413 . S
C603 C602 1.367 . S
C603 H605 0.930 . S
H604 C597 0.930 . S
H605 C603 0.930 . S
H606 C594 0.930 . S
H607 C595 0.930 . S
H608 C601 0.929 . S
H609 C623 0.930 . S
H610 C602 0.930 . S
H611 C629 0.930 . S
H612 C620 0.929 . S
H613 C627 0.930 . S
H614 C591 0.931 . S
H615 C621 0.930 . S
H616 C654 0.930 . S
H617 C598 0.930 . S
H618 C653 0.931 . S
N619 Eu588 2.657 . S
N619 C620 1.334 . S
N619 C624 1.362 . S
C620 H612 0.929 . S
C620 N619 1.334 . S
C620 C623 1.413 . S
C621 H615 0.930 . S
C621 C622 1.392 . S
C621 C623 1.367 . S
C622 C621 1.392 . S
C622 C624 1.420 . S
C622 C654 1.423 . S
C623 H609 0.930 . S
C623 C620 1.413 . S
C623 C621 1.367 . S
C624 N619 1.362 . S
C624 C622 1.420 . S
C624 C628 1.429 . S
H625 C630 0.930 . S
N626 Eu588 2.609 . S
N626 C628 1.377 . S
N626 C629 1.321 . S
C627 H613 0.930 . S
C627 C629 1.400 . S
C627 C630 1.386 . S
C628 C624 1.429 . S
C628 N626 1.377 . S
C628 C631 1.411 . S
C629 H611 0.930 . S
C629 N626 1.321 . S
C629 C627 1.400 . S
C630 H625 0.930 . S
C630 C627 1.386 . S
C630 C631 1.395 . S
C631 C628 1.411 . S
C631 C630 1.395 . S
C631 C653 1.420 . S
O632 Eu588 2.558 1_556 S
O632 C652 1.257 . S
O633 Eu588 2.612 1_556 S
O633 Eu599 2.380 . S
O633 C644 1.276 . S
O634 Eu599 2.432 1_554 S
O634 C651 1.264 . S
O635 Eu588 2.339 . S
O635 C651 1.254 . S
O636 Eu588 2.563 1_556 S
O636 C644 1.235 . S
O637 Eu588 2.419 1_556 S
O637 C652 1.249 . S
O638 Eu599 2.558 1_554 S
O638 C663 1.257 . S
O639 Eu588 2.380 . S
O639 Eu599 2.612 1_554 S
O639 C655 1.276 . S
O640 Eu588 2.432 1_556 S
O640 C662 1.264 . S
O641 Eu599 2.339 . S
O641 C662 1.254 . S
O642 Eu599 2.563 1_554 S
O642 C655 1.235 . S
O643 Eu599 2.419 1_554 S
O643 C663 1.249 . S
C644 O633 1.276 . S
C644 O636 1.235 . S
C645 C647 1.393 . S
C645 C649 1.395 . S
C645 C652 1.492 . S
C646 C647 1.392 . S
C646 C648 1.386 . S
C647 C645 1.393 . S
C647 C646 1.392 . S
C647 H664 0.930 . S
C648 C646 1.386 . S
C648 C650 1.395 . S
C648 H665 0.930 . S
C649 C645 1.395 . S
C649 C650 1.379 . S
C649 H666 0.930 . S
C650 C648 1.395 . S
C650 C649 1.379 . S
C650 H667 0.930 . S
C651 O634 1.264 . S
C651 O635 1.254 . S
C652 Eu588 2.848 1_556 S
C652 O632 1.257 . S
C652 O637 1.249 . S
C652 C645 1.492 . S
C653 H618 0.931 . S
C653 C631 1.420 . S
C653 C654 1.351 . S
C654 H616 0.930 . S
C654 C622 1.423 . S
C654 C653 1.351 . S
C655 O639 1.276 . S
C655 O642 1.235 . S
C656 C657 1.393 . S
C656 C660 1.395 . S
C656 C663 1.492 . S
C657 C656 1.393 . S
C657 C658 1.392 . S
C657 H668 0.930 . S
C658 C657 1.392 . S
C658 C659 1.386 . S
C659 C658 1.386 . S
C659 C661 1.395 . S
C659 H669 0.930 . S
C660 C656 1.395 . S
C660 C661 1.379 . S
C660 H670 0.930 . S
C661 C659 1.395 . S
C661 C660 1.379 . S
C661 H671 0.930 . S
C662 O640 1.264 . S
C662 O641 1.254 . S
C663 Eu599 2.848 1_554 S
C663 O638 1.257 . S
C663 O643 1.249 . S
C663 C656 1.492 . S
H664 C647 0.930 . S
H665 C648 0.930 . S
H666 C649 0.930 . S
H667 C650 0.930 . S
H668 C657 0.930 . S
H669 C659 0.930 . S
H670 C660 0.930 . S
H671 C661 0.930 . S
C672 C673 1.369 . S
C672 C674 1.419 . S
C672 H676 0.930 . S
C673 C672 1.369 . S
C673 C682 1.429 . S
C674 C672 1.419 . S
C674 C675 1.363 . S
C674 H677 0.929 . S
C675 C674 1.363 . S
C675 C681 1.428 . S
H676 C672 0.930 . S
H677 C674 0.929 . S
S678 N679 1.613 . S
S678 N680 1.610 . S
N679 S678 1.613 . S
N679 C682 1.350 . S
N680 S678 1.610 . S
N680 C681 1.351 . S
C681 C675 1.428 . S
C681 N680 1.351 . S
C681 C682 1.434 . S
C682 C673 1.429 . S
C682 N679 1.350 . S
C682 C681 1.434 . S
C683 C684 1.369 . S
C683 C685 1.419 . S
C683 H687 0.930 . S
C684 C683 1.369 . S
C684 C693 1.429 . S
C685 C683 1.419 . S
C685 C686 1.363 . S
C685 H688 0.929 . S
C686 C685 1.363 . S
C686 C692 1.428 . S
H687 C683 0.930 . S
H688 C685 0.929 . S
S689 N690 1.613 1_565 S
S689 N691 1.610 1_565 S
N690 S689 1.613 1_545 S
N690 C693 1.350 . S
N691 S689 1.610 1_545 S
N691 C692 1.351 . S
C692 C686 1.428 . S
C692 N691 1.351 . S
C692 C693 1.434 . S
C693 C684 1.429 . S
C693 N690 1.350 . S
C693 C692 1.434 . S
C694 C695 1.369 . S
C694 C696 1.419 . S
C694 H698 0.930 . S
C695 C694 1.369 . S
C695 C704 1.429 . S
C696 C694 1.419 . S
C696 C697 1.363 . S
C696 H699 0.929 . S
C697 C696 1.363 . S
C697 C703 1.428 . S
H698 C694 0.930 . S
H699 C696 0.929 . S
S700 N701 1.613 . S
S700 N702 1.610 . S
N701 S700 1.613 . S
N701 C704 1.350 . S
N702 S700 1.610 . S
N702 C703 1.351 . S
C703 C697 1.428 . S
C703 N702 1.351 . S
C703 C704 1.434 . S
C704 C695 1.429 . S
C704 N701 1.350 . S
C704 C703 1.434 . S
C705 C706 1.369 . S
C705 C707 1.419 . S
C705 H709 0.930 . S
C706 C705 1.369 . S
C706 C715 1.429 . S
C707 C705 1.419 . S
C707 C708 1.363 . S
C707 H710 0.929 . S
C708 C707 1.363 . S
C708 C714 1.428 . S
H709 C705 0.930 . S
H710 C707 0.929 . S
S711 N712 1.613 . S
S711 N713 1.610 . S
N712 S711 1.613 . S
N712 C715 1.350 . S
N713 S711 1.610 . S
N713 C714 1.351 . S
C714 C708 1.428 . S
C714 N713 1.351 . S
C714 C715 1.434 . S
C715 C706 1.429 . S
C715 N712 1.350 . S
C715 C714 1.434 . S
C716 C717 1.369 . S
C716 C718 1.419 1_565 S
C716 H720 0.930 . S
C717 C716 1.369 . S
C717 C726 1.429 . S
C718 C716 1.419 1_545 S
C718 C719 1.363 . S
C718 H721 0.929 . S
C719 C718 1.363 . S
C719 C725 1.428 . S
H720 C716 0.930 . S
H721 C718 0.929 . S
S722 N723 1.613 1_545 S
S722 N724 1.610 . S
N723 S722 1.613 1_565 S
N723 C726 1.350 . S
N724 S722 1.610 . S
N724 C725 1.351 . S
C725 C719 1.428 . S
C725 N724 1.351 . S
C725 C726 1.434 1_545 S
C726 C717 1.429 . S
C726 N723 1.350 . S
C726 C725 1.434 1_565 S
C727 C728 1.369 . S
C727 C729 1.419 . S
C727 H731 0.930 . S
C728 C727 1.369 . S
C728 C737 1.429 . S
C729 C727 1.419 . S
C729 C730 1.363 . S
C729 H732 0.929 . S
C730 C729 1.363 . S
C730 C736 1.428 . S
H731 C727 0.930 . S
H732 C729 0.929 . S
S733 N734 1.613 . S
S733 N735 1.610 . S
N734 S733 1.613 . S
N734 C737 1.350 . S
N735 S733 1.610 . S
N735 C736 1.351 . S
C736 C730 1.428 . S
C736 N735 1.351 . S
C736 C737 1.434 . S
C737 C728 1.429 . S
C737 N734 1.350 . S
C737 C736 1.434 . S
C738 C739 1.369 . S
C738 C740 1.419 1_565 S
C738 H742 0.930 1_565 S
C739 C738 1.369 . S
C739 C748 1.429 . S
C740 C738 1.419 1_545 S
C740 C741 1.363 . S
C740 H743 0.929 . S
C741 C740 1.363 . S
C741 C747 1.428 1_545 S
H742 C738 0.930 1_545 S
H743 C740 0.929 . S
S744 N745 1.613 . S
S744 N746 1.610 . S
N745 S744 1.613 . S
N745 C748 1.350 . S
N746 S744 1.610 . S
N746 C747 1.351 . S
C747 C741 1.428 1_565 S
C747 N746 1.351 . S
C747 C748 1.434 . S
C748 C739 1.429 . S
C748 N745 1.350 . S
C748 C747 1.434 . S
C749 C750 1.369 . S
C749 C751 1.419 . S
C749 H753 0.930 . S
C750 C749 1.369 . S
C750 C759 1.429 . S
C751 C749 1.419 . S
C751 C752 1.363 . S
C751 H754 0.929 . S
C752 C751 1.363 . S
C752 C758 1.428 . S
H753 C749 0.930 . S
H754 C751 0.929 . S
S755 N756 1.613 . S
S755 N757 1.610 . S
N756 S755 1.613 . S
N756 C759 1.350 . S
N757 S755 1.610 . S
N757 C758 1.351 . S
C758 C752 1.428 . S
C758 N757 1.351 . S
C758 C759 1.434 . S
C759 C750 1.429 . S
C759 N756 1.350 . S
C759 C758 1.434 . S
C760 C761 1.369 . S
C760 C762 1.419 . S
C760 H764 0.930 . S
C761 C760 1.369 . S
C761 C770 1.429 1_554 S
C762 C760 1.419 . S
C762 C763 1.363 . S
C762 H765 0.929 . S
C763 C762 1.363 . S
C763 C769 1.428 1_554 S
H764 C760 0.930 . S
H765 C762 0.929 . S
S766 N767 1.613 . S
S766 N768 1.610 . S
N767 S766 1.613 . S
N767 C770 1.350 . S
N768 S766 1.610 . S
N768 C769 1.351 . S
C769 C763 1.428 1_556 S
C769 N768 1.351 . S
C769 C770 1.434 . S
C770 C761 1.429 1_556 S
C770 N767 1.350 . S
C770 C769 1.434 . S
C771 C772 1.369 1_554 S
C771 C773 1.419 1_565 S
C771 H775 0.930 . S
C772 C771 1.369 1_556 S
C772 C781 1.429 . S
C773 C771 1.419 1_545 S
C773 C774 1.363 . S
C773 H776 0.929 . S
C774 C773 1.363 . S
C774 C780 1.428 1_554 S
H775 C771 0.930 . S
H776 C773 0.929 . S
S777 N778 1.613 . S
S777 N779 1.610 1_565 S
N778 S777 1.613 . S
N778 C781 1.350 . S
N779 S777 1.610 1_545 S
N779 C780 1.351 . S
C780 C774 1.428 1_556 S
C780 N779 1.351 . S
C780 C781 1.434 1_545 S
C781 C772 1.429 . S
C781 N778 1.350 . S
C781 C780 1.434 1_565 S
C782 C783 1.369 1_554 S
C782 C784 1.419 . S
C782 H786 0.930 . S
C783 C782 1.369 1_556 S
C783 C792 1.429 . S
C784 C782 1.419 . S
C784 C785 1.363 . S
C784 H787 0.929 . S
C785 C784 1.363 . S
C785 C791 1.428 1_554 S
H786 C782 0.930 . S
H787 C784 0.929 . S
S788 N789 1.613 . S
S788 N790 1.610 . S
N789 S788 1.613 . S
N789 C792 1.350 . S
N790 S788 1.610 . S
N790 C791 1.351 . S
C791 C785 1.428 1_556 S
C791 N790 1.351 . S
C791 C792 1.434 . S
C792 C783 1.429 . S
C792 N789 1.350 . S
C792 C791 1.434 . S
C793 C794 1.369 . S
C793 C795 1.419 1_546 S
C793 H797 0.930 1_556 S
C794 C793 1.369 . S
C794 C803 1.429 . S
C795 C793 1.419 1_564 S
C795 C796 1.363 1_554 S
C795 H798 0.929 . S
C796 C795 1.363 1_556 S
C796 C802 1.428 . S
H797 C793 0.930 1_554 S
H798 C795 0.929 . S
S799 N800 1.613 1_565 S
S799 N801 1.610 . S
N800 S799 1.613 1_545 S
N800 C803 1.350 . S
N801 S799 1.610 . S
N801 C802 1.351 . S
C802 C796 1.428 . S
C802 N801 1.351 . S
C802 C803 1.434 1_565 S
C803 C794 1.429 . S
C803 N800 1.350 . S
C803 C802 1.434 1_545 S
C804 C805 1.369 . S
C804 C806 1.419 1_554 S
C804 H808 0.930 . S
C805 C804 1.369 . S
C805 C814 1.429 1_554 S
C806 C804 1.419 1_556 S
C806 C807 1.363 . S
C806 H809 0.929 . S
C807 C806 1.363 . S
C807 C813 1.428 . S
H808 C804 0.930 . S
H809 C806 0.929 . S
S810 N811 1.613 1_556 S
S810 N812 1.610 . S
N811 S810 1.613 1_554 S
N811 C814 1.350 1_554 S
N812 S810 1.610 . S
N812 C813 1.351 . S
C813 C807 1.428 . S
C813 N812 1.351 . S
C813 C814 1.434 . S
C814 C805 1.429 1_556 S
C814 N811 1.350 1_556 S
C814 C813 1.434 . S
C815 C816 1.369 . S
C815 C817 1.419 1_554 S
C815 H819 0.930 . S
C816 C815 1.369 . S
C816 C825 1.429 1_554 S
C817 C815 1.419 1_556 S
C817 C818 1.363 . S
C817 H820 0.929 . S
C818 C817 1.363 . S
C818 C824 1.428 . S
H819 C815 0.930 . S
H820 C817 0.929 . S
S821 N822 1.613 1_556 S
S821 N823 1.610 . S
N822 S821 1.613 1_554 S
N822 C825 1.350 1_554 S
N823 S821 1.610 . S
N823 C824 1.351 . S
C824 C818 1.428 . S
C824 N823 1.351 . S
C824 C825 1.434 . S
C825 C816 1.429 1_556 S
C825 N822 1.350 1_556 S
C825 C824 1.434 . S
C826 C827 1.369 . S
C826 C828 1.419 1_554 S
C826 H830 0.930 . S
C827 C826 1.369 . S
C827 C836 1.429 . S
C828 C826 1.419 1_556 S
C828 C829 1.363 . S
C828 H831 0.929 . S
C829 C828 1.363 . S
C829 C835 1.428 1_556 S
H830 C826 0.930 . S
H831 C828 0.929 . S
S832 N833 1.613 . S
S832 N834 1.610 1_554 S
N833 S832 1.613 . S
N833 C836 1.350 . S
N834 S832 1.610 1_556 S
N834 C835 1.351 1_556 S
C835 C829 1.428 1_554 S
C835 N834 1.351 1_554 S
C835 C836 1.434 . S
C836 C827 1.429 . S
C836 N833 1.350 . S
C836 C835 1.434 . S
C837 C838 1.369 1_554 S
C837 C839 1.419 . S
C837 H841 0.930 1_554 S
C838 C837 1.369 1_556 S
C838 C847 1.429 . S
C839 C837 1.419 . S
C839 C840 1.363 . S
C839 H842 0.929 . S
C840 C839 1.363 . S
C840 C846 1.428 . S
H841 C837 0.930 1_556 S
H842 C839 0.929 . S
S843 N844 1.613 1_554 S
S843 N845 1.610 . S
N844 S843 1.613 1_556 S
N844 C847 1.350 . S
N845 S843 1.610 . S
N845 C846 1.351 . S
C846 C840 1.428 . S
C846 N845 1.351 . S
C846 C847 1.434 1_554 S
C847 C838 1.429 . S
C847 N844 1.350 . S
C847 C846 1.434 1_556 S
C848 C849 1.369 . S
C848 C850 1.419 . S
C848 H852 0.930 . S
C849 C848 1.369 . S
C849 C858 1.429 . S
C850 C848 1.419 . S
C850 C851 1.363 . S
C850 H853 0.929 . S
C851 C850 1.363 . S
C851 C857 1.428 . S
H852 C848 0.930 . S
H853 C850 0.929 . S
S854 N855 1.613 . S
S854 N856 1.610 . S
N855 S854 1.613 . S
N855 C858 1.350 . S
N856 S854 1.610 . S
N856 C857 1.351 . S
C857 C851 1.428 . S
C857 N856 1.351 . S
C857 C858 1.434 . S
C858 C849 1.429 . S
C858 N855 1.350 . S
C858 C857 1.434 . S
C859 C860 1.369 . S
C859 C861 1.419 . S
C859 H863 0.930 . S
C860 C859 1.369 . S
C860 C869 1.429 . S
C861 C859 1.419 . S
C861 C862 1.363 . S
C861 H864 0.929 . S
C862 C861 1.363 . S
C862 C868 1.428 . S
H863 C859 0.930 . S
H864 C861 0.929 . S
S865 N866 1.613 . S
S865 N867 1.610 . S
N866 S865 1.613 . S
N866 C869 1.350 . S
N867 S865 1.610 . S
N867 C868 1.351 . S
C868 C862 1.428 . S
C868 N867 1.351 . S
C868 C869 1.434 . S
C869 C860 1.429 . S
C869 N866 1.350 . S
C869 C868 1.434 . S
C870 C871 1.369 . S
C870 C872 1.419 . S
C870 H874 0.930 . S
C871 C870 1.369 . S
C871 C880 1.429 . S
C872 C870 1.419 . S
C872 C873 1.363 . S
C872 H875 0.929 . S
C873 C872 1.363 . S
C873 C879 1.428 . S
H874 C870 0.930 . S
H875 C872 0.929 . S
S876 N877 1.613 . S
S876 N878 1.610 . S
N877 S876 1.613 . S
N877 C880 1.350 . S
N878 S876 1.610 . S
N878 C879 1.351 . S
C879 C873 1.428 . S
C879 N878 1.351 . S
C879 C880 1.434 . S
C880 C871 1.429 . S
C880 N877 1.350 . S
C880 C879 1.434 . S
C881 C882 1.369 . S
C881 C883 1.419 . S
C881 H885 0.930 . S
C882 C881 1.369 . S
C882 C891 1.429 . S
C883 C881 1.419 . S
C883 C884 1.363 . S
C883 H886 0.929 . S
C884 C883 1.363 . S
C884 C890 1.428 . S
H885 C881 0.930 . S
H886 C883 0.929 . S
S887 N888 1.613 . S
S887 N889 1.610 . S
N888 S887 1.613 . S
N888 C891 1.350 . S
N889 S887 1.610 . S
N889 C890 1.351 . S
C890 C884 1.428 . S
C890 N889 1.351 . S
C890 C891 1.434 . S
C891 C882 1.429 . S
C891 N888 1.350 . S
C891 C890 1.434 . S
C892 C893 1.369 . S
C892 C894 1.419 1_455 S
C892 H896 0.930 . S
C893 C892 1.369 . S
C893 C902 1.429 . S
C894 C892 1.419 1_655 S
C894 C895 1.363 . S
C894 H897 0.929 . S
C895 C894 1.363 . S
C895 C901 1.428 . S
H896 C892 0.930 . S
H897 C894 0.929 . S
S898 N899 1.613 1_655 S
S898 N900 1.610 . S
N899 S898 1.613 1_455 S
N899 C902 1.350 . S
N900 S898 1.610 . S
N900 C901 1.351 . S
C901 C895 1.428 . S
C901 N900 1.351 . S
C901 C902 1.434 1_655 S
C902 C893 1.429 . S
C902 N899 1.350 . S
C902 C901 1.434 1_455 S
C903 C904 1.369 . S
C903 C905 1.419 1_655 S
C903 H907 0.930 . S
C904 C903 1.369 . S
C904 C913 1.429 . S
C905 C903 1.419 1_455 S
C905 C906 1.363 . S
C905 H908 0.929 . S
C906 C905 1.363 . S
C906 C912 1.428 . S
H907 C903 0.930 . S
H908 C905 0.929 . S
S909 N910 1.613 1_454 S
S909 N911 1.610 1_554 S
N910 S909 1.613 1_656 S
N910 C913 1.350 . S
N911 S909 1.610 1_556 S
N911 C912 1.351 . S
C912 C906 1.428 . S
C912 N911 1.351 . S
C912 C913 1.434 1_455 S
C913 C904 1.429 . S
C913 N910 1.350 . S
C913 C912 1.434 1_655 S
C914 C915 1.369 . S
C914 C916 1.419 . S
C914 H918 0.930 . S
C915 C914 1.369 . S
C915 C924 1.429 . S
C916 C914 1.419 . S
C916 C917 1.363 . S
C916 H919 0.929 . S
C917 C916 1.363 . S
C917 C923 1.428 . S
H918 C914 0.930 . S
H919 C916 0.929 . S
S920 N921 1.613 1_554 S
S920 N922 1.610 1_554 S
N921 S920 1.613 1_556 S
N921 C924 1.350 . S
N922 S920 1.610 1_556 S
N922 C923 1.351 . S
C923 C917 1.428 . S
C923 N922 1.351 . S
C923 C924 1.434 . S
C924 C915 1.429 . S
C924 N921 1.350 . S
C924 C923 1.434 . S
C925 C926 1.369 . S
C925 C927 1.419 . S
C925 H929 0.930 . S
C926 C925 1.369 . S
C926 C935 1.429 . S
C927 C925 1.419 . S
C927 C928 1.363 . S
C927 H930 0.929 . S
C928 C927 1.363 . S
C928 C934 1.428 . S
H929 C925 0.930 . S
H930 C927 0.929 . S
S931 N932 1.613 . S
S931 N933 1.610 . S
N932 S931 1.613 . S
N932 C935 1.350 . S
N933 S931 1.610 . S
N933 C934 1.351 . S
C934 C928 1.428 . S
C934 N933 1.351 . S
C934 C935 1.434 . S
C935 C926 1.429 . S
C935 N932 1.350 . S
C935 C934 1.434 . S
C673 C70 1.357 . S
C675 C646 1.332 . S
C684 C562 1.719 . S
C686 C142 1.421 . S
C695 C478 1.403 . S
C697 C226 1.692 . S
C706 C406 1.358 . S
C708 C310 1.346 . S
C717 C242 2.247 . S
C719 C74 2.444 . S
C728 C158 1.660 . S
C730 C326 1.720 . S
C739 C315 1.538 . S
C741 C147 1.479 . S
C750 C231 0.785 . S
C752 C63 0.782 . S
C761 C410 2.391 1_554 S
C763 C578 2.283 . S
C772 C494 1.511 1_556 S
C774 C662 1.575 1_554 S
C783 C651 1.518 1_556 S
C785 C483 1.451 1_554 S
C794 C567 0.757 . S
C796 C399 0.742 1_556 S
C805 C56 1.894 . S
C807 C67 1.897 . S
C816 C151 1.867 . S
C818 C140 1.868 . S
C827 C224 1.992 . S
C829 C235 1.988 . S
C838 C319 1.894 . S
C840 C308 1.891 . S
C849 C403 1.895 . S
C851 C392 1.896 . S
C860 C487 1.868 . S
C862 C476 1.865 . S
C871 C571 1.995 . S
C873 C560 1.987 . S
C882 C655 1.894 . S
C884 C644 1.892 . S
C893 C58 2.060 . S
C895 C154 1.763 . S
C904 C322 1.632 . S
C906 C238 1.694 . S
C915 C394 2.056 . S
C917 C490 1.772 . S
C926 C658 1.639 . S
C928 C574 1.676 . S
