# Generated by pormake.
# Topology whz, (6)-cn, num edge types: 1
# Building blocks:
#     Node 0, Type 0, BuildingBlock: JUFBIX_clean_sbu_0, # of connection points: 6
#     Node 1, Type 0, BuildingBlock: JUFBIX_clean_sbu_0, # of connection points: 6
#     Node 2, Type 0, BuildingBlock: JUFBIX_clean_sbu_0, # of connection points: 6
#     Node 3, Type 0, BuildingBlock: JUFBIX_clean_sbu_0, # of connection points: 6
#     Node 4, Type 0, BuildingBlock: JUFBIX_clean_sbu_0, # of connection points: 6
#     Node 5, Type 0, BuildingBlock: JUFBIX_clean_sbu_0, # of connection points: 6
#     Node 6, Type 0, BuildingBlock: JUFBIX_clean_sbu_0, # of connection points: 6
#     Node 7, Type 0, BuildingBlock: JUFBIX_clean_sbu_0, # of connection points: 6
#     Node 8, Type 0, BuildingBlock: JUFBIX_clean_sbu_0, # of connection points: 6
#     Node 9, Type 0, BuildingBlock: JUFBIX_clean_sbu_0, # of connection points: 6
#     Node 10, Type 0, BuildingBlock: JUFBIX_clean_sbu_0, # of connection points: 6
#     Node 11, Type 0, BuildingBlock: JUFBIX_clean_sbu_0, # of connection points: 6
#     Node 12, Type 0, BuildingBlock: JUFBIX_clean_sbu_0, # of connection points: 6
#     Node 13, Type 0, BuildingBlock: JUFBIX_clean_sbu_0, # of connection points: 6
#     Node 14, Type 0, BuildingBlock: JUFBIX_clean_sbu_0, # of connection points: 6
#     Node 15, Type 0, BuildingBlock: JUFBIX_clean_sbu_0, # of connection points: 6
#     Edge 16, Type (0, 0), BuildingBlock: XUDNAN_clean_linker_2, # of connection points: 2
#     Edge 17, Type (0, 0), BuildingBlock: XUDNAN_clean_linker_2, # of connection points: 2
#     Edge 18, Type (0, 0), BuildingBlock: XUDNAN_clean_linker_2, # of connection points: 2
#     Edge 19, Type (0, 0), BuildingBlock: XUDNAN_clean_linker_2, # of connection points: 2
#     Edge 20, Type (0, 0), BuildingBlock: XUDNAN_clean_linker_2, # of connection points: 2
#     Edge 21, Type (0, 0), BuildingBlock: XUDNAN_clean_linker_2, # of connection points: 2
#     Edge 22, Type (0, 0), BuildingBlock: XUDNAN_clean_linker_2, # of connection points: 2
#     Edge 23, Type (0, 0), BuildingBlock: XUDNAN_clean_linker_2, # of connection points: 2
#     Edge 24, Type (0, 0), BuildingBlock: XUDNAN_clean_linker_2, # of connection points: 2
#     Edge 25, Type (0, 0), BuildingBlock: XUDNAN_clean_linker_2, # of connection points: 2
#     Edge 26, Type (0, 0), BuildingBlock: XUDNAN_clean_linker_2, # of connection points: 2
#     Edge 27, Type (0, 0), BuildingBlock: XUDNAN_clean_linker_2, # of connection points: 2
#     Edge 28, Type (0, 0), BuildingBlock: XUDNAN_clean_linker_2, # of connection points: 2
#     Edge 29, Type (0, 0), BuildingBlock: XUDNAN_clean_linker_2, # of connection points: 2
#     Edge 30, Type (0, 0), BuildingBlock: XUDNAN_clean_linker_2, # of connection points: 2
#     Edge 31, Type (0, 0), BuildingBlock: XUDNAN_clean_linker_2, # of connection points: 2
#     Edge 32, Type (0, 0), BuildingBlock: XUDNAN_clean_linker_2, # of connection points: 2
#     Edge 33, Type (0, 0), BuildingBlock: XUDNAN_clean_linker_2, # of connection points: 2
#     Edge 34, Type (0, 0), BuildingBlock: XUDNAN_clean_linker_2, # of connection points: 2
#     Edge 35, Type (0, 0), BuildingBlock: XUDNAN_clean_linker_2, # of connection points: 2
#     Edge 36, Type (0, 0), BuildingBlock: XUDNAN_clean_linker_2, # of connection points: 2
#     Edge 37, Type (0, 0), BuildingBlock: XUDNAN_clean_linker_2, # of connection points: 2
#     Edge 38, Type (0, 0), BuildingBlock: XUDNAN_clean_linker_2, # of connection points: 2
#     Edge 39, Type (0, 0), BuildingBlock: XUDNAN_clean_linker_2, # of connection points: 2
#     Edge 40, Type (0, 0), BuildingBlock: XUDNAN_clean_linker_2, # of connection points: 2
#     Edge 41, Type (0, 0), BuildingBlock: XUDNAN_clean_linker_2, # of connection points: 2
#     Edge 42, Type (0, 0), BuildingBlock: XUDNAN_clean_linker_2, # of connection points: 2
#     Edge 43, Type (0, 0), BuildingBlock: XUDNAN_clean_linker_2, # of connection points: 2
#     Edge 44, Type (0, 0), BuildingBlock: XUDNAN_clean_linker_2, # of connection points: 2
#     Edge 45, Type (0, 0), BuildingBlock: XUDNAN_clean_linker_2, # of connection points: 2
#     Edge 46, Type (0, 0), BuildingBlock: XUDNAN_clean_linker_2, # of connection points: 2
#     Edge 47, Type (0, 0), BuildingBlock: XUDNAN_clean_linker_2, # of connection points: 2
#     Edge 48, Type (0, 0), BuildingBlock: XUDNAN_clean_linker_2, # of connection points: 2
#     Edge 49, Type (0, 0), BuildingBlock: XUDNAN_clean_linker_2, # of connection points: 2
#     Edge 50, Type (0, 0), BuildingBlock: XUDNAN_clean_linker_2, # of connection points: 2
#     Edge 51, Type (0, 0), BuildingBlock: XUDNAN_clean_linker_2, # of connection points: 2
#     Edge 52, Type (0, 0), BuildingBlock: XUDNAN_clean_linker_2, # of connection points: 2
#     Edge 53, Type (0, 0), BuildingBlock: XUDNAN_clean_linker_2, # of connection points: 2
#     Edge 54, Type (0, 0), BuildingBlock: XUDNAN_clean_linker_2, # of connection points: 2
#     Edge 55, Type (0, 0), BuildingBlock: XUDNAN_clean_linker_2, # of connection points: 2
#     Edge 56, Type (0, 0), BuildingBlock: XUDNAN_clean_linker_2, # of connection points: 2
#     Edge 57, Type (0, 0), BuildingBlock: XUDNAN_clean_linker_2, # of connection points: 2
#     Edge 58, Type (0, 0), BuildingBlock: XUDNAN_clean_linker_2, # of connection points: 2
#     Edge 59, Type (0, 0), BuildingBlock: XUDNAN_clean_linker_2, # of connection points: 2
#     Edge 60, Type (0, 0), BuildingBlock: XUDNAN_clean_linker_2, # of connection points: 2
#     Edge 61, Type (0, 0), BuildingBlock: XUDNAN_clean_linker_2, # of connection points: 2
#     Edge 62, Type (0, 0), BuildingBlock: XUDNAN_clean_linker_2, # of connection points: 2
#     Edge 63, Type (0, 0), BuildingBlock: XUDNAN_clean_linker_2, # of connection points: 2
# Relax obj value: 0.407
# Max RMSD: 0.257
# Mean RMSD: 0.257
data_MOF--net-whz--node1-JUFBIX_clean_sbu_0--edge1-XUDNAN_clean_linker_2
_symmetry_space_group_name_H-M    P1
_symmetry_Int_Tables_number       1
_symmetry_cell_setting            triclinic
loop_
_symmetry_equiv_pos_as_xyz
'x, y, z'
_cell_length_a     40.48479
_cell_length_b     40.542123
_cell_length_c     45.512852
_cell_angle_alpha  90.20494
_cell_angle_beta   90.127761
_cell_angle_gamma 89.864755
loop_
_atom_site_label
_atom_site_type_symbol
_atom_site_fract_x
_atom_site_fract_y
_atom_site_fract_z
_atom_type_partial_charge
Co0 Co 0.26277 0.14577 0.13753 0.0
C1 C 0.32003 0.11201 0.1548 0.0
Co2 Co 0.30979 0.16846 0.12252 0.0
C3 C 0.19809 0.11201 0.14285 0.0
C4 C 0.22362 0.1202 0.18348 0.0
N5 N 0.2257 0.12595 0.15433 0.0
N6 N 0.1794 0.09767 0.16388 0.0
C7 C 0.19542 0.10302 0.18935 0.0
H8 H 0.1926 0.11103 0.11957 0.0
H9 H 0.2421 0.12698 0.19957 0.0
C10 C 0.25082 0.20293 0.10878 0.0
N11 N 0.34776 0.1886 0.10708 0.0
C12 C 0.37699 0.19622 0.12007 0.0
C13 C 0.35039 0.20063 0.07964 0.0
N14 N 0.39776 0.21257 0.10177 0.0
C15 C 0.38077 0.21524 0.07632 0.0
C16 C 0.27949 0.12475 0.08231 0.0
O17 O 0.23678 0.1785 0.12078 0.0
O18 O 0.28228 0.20321 0.10648 0.0
O19 O 0.30419 0.14348 0.08707 0.0
O20 O 0.25852 0.12019 0.10272 0.0
O21 O 0.33618 0.13344 0.14023 0.0
H22 H 0.33108 0.19949 0.0632 0.0
H23 H 0.38268 0.19003 0.14262 0.0
O24 O 0.28878 0.1133 0.15485 0.0
O25 O 0.2672 0.17284 0.17156 0.0
O26 O 0.31412 0.19392 0.15699 0.0
C27 C 0.29088 0.19279 0.17561 0.0
H28 H 0.18762 0.09439 0.21072 0.0
H29 H 0.38912 0.2277 0.05674 0.0
Co30 Co 0.63096 0.51369 0.38972 0.0
C31 C 0.66579 0.57122 0.40048 0.0
Co32 Co 0.60296 0.55922 0.37886 0.0
C33 C 0.65311 0.44493 0.39255 0.0
C34 C 0.6717 0.4753 0.42745 0.0
N35 N 0.65376 0.47646 0.40241 0.0
N36 N 0.66954 0.4244 0.41078 0.0
C37 C 0.68121 0.44336 0.43272 0.0
H38 H 0.63938 0.43692 0.37338 0.0
H39 H 0.67624 0.49617 0.44177 0.0
C40 C 0.56748 0.50134 0.37087 0.0
N41 N 0.57949 0.59681 0.36691 0.0
C42 C 0.57351 0.62605 0.38053 0.0
C43 C 0.56338 0.59907 0.34105 0.0
N44 N 0.55446 0.64643 0.36397 0.0
C45 C 0.54812 0.62925 0.33917 0.0
C46 C 0.63865 0.52953 0.33228 0.0
O47 O 0.59364 0.48755 0.38028 0.0
O48 O 0.56691 0.53245 0.36757 0.0
O49 O 0.62118 0.55441 0.33976 0.0
O50 O 0.64685 0.5084 0.35152 0.0
O51 O 0.63953 0.5856 0.39174 0.0
H52 H 0.5624 0.57972 0.32465 0.0
H53 H 0.58306 0.63225 0.40208 0.0
O54 O 0.66761 0.54002 0.39948 0.0
O55 O 0.6145 0.51899 0.42789 0.0
O56 O 0.58442 0.56239 0.41725 0.0
C57 C 0.59389 0.54087 0.43571 0.0
H58 H 0.69483 0.4345 0.45162 0.0
H59 H 0.53285 0.63753 0.32109 0.0
Co60 Co 0.25747 0.87035 0.63806 0.0
C61 C 0.20037 0.9056 0.65258 0.0
Co62 Co 0.21114 0.84822 0.62095 0.0
C63 C 0.32606 0.89302 0.64301 0.0
C64 C 0.29556 0.90772 0.67913 0.0
N65 N 0.29498 0.89055 0.65364 0.0
N66 N 0.34558 0.91152 0.66069 0.0
C67 C 0.32645 0.92081 0.68337 0.0
H68 H 0.33406 0.882 0.62251 0.0
H69 H 0.27472 0.91068 0.69375 0.0
C70 C 0.26896 0.81286 0.60792 0.0
N71 N 0.17258 0.82826 0.60601 0.0
C72 C 0.14419 0.8196 0.61981 0.0
C73 C 0.168 0.81868 0.57792 0.0
N74 N 0.12208 0.80511 0.60135 0.0
C75 C 0.13726 0.8046 0.57499 0.0
C76 C 0.24194 0.89027 0.58146 0.0
O77 O 0.2828 0.83467 0.62382 0.0
O78 O 0.23804 0.81478 0.6027 0.0
O79 O 0.21521 0.8746 0.58616 0.0
O80 O 0.26348 0.89226 0.60181 0.0
O81 O 0.18508 0.88183 0.64026 0.0
H82 H 0.18609 0.82142 0.56064 0.0
H83 H 0.13987 0.82399 0.64295 0.0
O84 O 0.23164 0.90585 0.65242 0.0
O85 O 0.25177 0.84703 0.67372 0.0
O86 O 0.20881 0.82157 0.65493 0.0
C87 C 0.22984 0.82476 0.67554 0.0
H88 H 0.33445 0.93556 0.70193 0.0
H89 H 0.12727 0.7941 0.55498 0.0
Co90 Co 0.89554 0.50698 0.88831 0.0
C91 C 0.85699 0.45527 0.9048 0.0
Co92 Co 0.91664 0.45897 0.87367 0.0
C93 C 0.85324 0.5654 0.89727 0.0
C94 C 0.9005 0.56818 0.91834 0.0
N95 N 0.88141 0.54805 0.90187 0.0
N96 N 0.85436 0.59556 0.91014 0.0
C97 C 0.88402 0.5971 0.92353 0.0
H98 H 0.83291 0.55658 0.88393 0.0
H99 H 0.92532 0.56255 0.92563 0.0
C100 C 0.95544 0.51166 0.85885 0.0
N101 N 0.93287 0.418 0.8604 0.0
C102 C 0.94312 0.39104 0.87556 0.0
C103 C 0.93913 0.41048 0.83207 0.0
N104 N 0.95528 0.36704 0.85769 0.0
C105 C 0.95265 0.37941 0.83034 0.0
C106 C 0.87584 0.49112 0.83252 0.0
O107 O 0.93285 0.52737 0.87216 0.0
O108 O 0.95311 0.48055 0.85592 0.0
O109 O 0.8917 0.46459 0.83789 0.0
O110 O 0.87327 0.51293 0.85252 0.0
O111 O 0.87977 0.43805 0.89281 0.0
H112 H 0.93512 0.42694 0.81377 0.0
H113 H 0.94199 0.3892 0.89925 0.0
O114 O 0.85856 0.48652 0.90445 0.0
O115 O 0.91885 0.50084 0.92401 0.0
O116 O 0.94211 0.45522 0.90846 0.0
C117 C 0.9395 0.47771 0.92782 0.0
H118 H 0.89336 0.61784 0.93605 0.0
H119 H 0.96108 0.36742 0.81043 0.0
Co120 Co 0.6996 0.85862 0.88384 0.0
C121 C 0.73826 0.80601 0.89972 0.0
Co122 Co 0.75261 0.86782 0.87543 0.0
C123 C 0.63508 0.82717 0.88566 0.0
C124 C 0.6345 0.87628 0.90305 0.0
N125 N 0.65472 0.85344 0.89119 0.0
N126 N 0.60331 0.83271 0.89362 0.0
C127 C 0.60303 0.8637 0.90455 0.0
H128 H 0.64408 0.80438 0.87614 0.0
H129 H 0.64212 0.90068 0.90991 0.0
C130 C 0.71415 0.91912 0.85635 0.0
N131 N 0.79725 0.87196 0.86768 0.0
C132 C 0.81656 0.89903 0.86859 0.0
C133 C 0.81757 0.84725 0.85921 0.0
N134 N 0.8481 0.89204 0.8612 0.0
C135 C 0.84883 0.85948 0.85537 0.0
C136 C 0.7198 0.83849 0.82913 0.0
O137 O 0.69122 0.90152 0.86722 0.0
O138 O 0.74397 0.90962 0.8587 0.0
O139 O 0.74702 0.84943 0.8386 0.0
O140 O 0.69431 0.83933 0.84541 0.0
O141 O 0.76064 0.82563 0.89127 0.0
H142 H 0.81006 0.82194 0.8557 0.0
H143 H 0.80772 0.9233 0.87472 0.0
O144 O 0.70833 0.81556 0.89925 0.0
O145 O 0.70616 0.87781 0.92271 0.0
O146 O 0.75857 0.88622 0.91273 0.0
C147 C 0.73475 0.88761 0.93075 0.0
H148 H 0.58152 0.87678 0.91258 0.0
H149 H 0.87027 0.84566 0.84819 0.0
Co150 Co 0.41318 0.45876 0.64125 0.0
C151 C 0.45506 0.51258 0.65541 0.0
Co152 Co 0.39628 0.50844 0.62724 0.0
C153 C 0.44264 0.39176 0.63873 0.0
C154 C 0.44006 0.41253 0.68192 0.0
N155 N 0.43219 0.41885 0.6537 0.0
N156 N 0.45669 0.36888 0.65664 0.0
C157 C 0.45471 0.38212 0.68382 0.0
H158 H 0.44062 0.38931 0.61512 0.0
H159 H 0.43592 0.42924 0.70012 0.0
C160 C 0.35603 0.45417 0.61004 0.0
N161 N 0.37581 0.54792 0.6166 0.0
C162 C 0.38652 0.57702 0.60559 0.0
C163 C 0.3429 0.55209 0.62002 0.0
N164 N 0.36123 0.5985 0.60188 0.0
C165 C 0.33394 0.58291 0.61093 0.0
C166 C 0.43643 0.48032 0.58664 0.0
O167 O 0.37691 0.43589 0.6232 0.0
O168 O 0.35965 0.48524 0.61101 0.0
O169 O 0.41773 0.5051 0.59096 0.0
O170 O 0.4372 0.45695 0.60535 0.0
O171 O 0.43398 0.53076 0.64238 0.0
H172 H 0.3263 0.53389 0.62902 0.0
H173 H 0.41208 0.58238 0.60059 0.0
O174 O 0.44938 0.48187 0.65824 0.0
O175 O 0.38963 0.46229 0.67772 0.0
O176 O 0.37584 0.51221 0.66448 0.0
C177 C 0.37651 0.48993 0.68393 0.0
H178 H 0.4631 0.3708 0.70398 0.0
H179 H 0.30933 0.59342 0.61134 0.0
Co180 Co 0.8093 0.16749 0.38281 0.0
C181 C 0.74983 0.20069 0.39173 0.0
Co182 Co 0.76481 0.13685 0.37517 0.0
C183 C 0.87559 0.1977 0.37954 0.0
C184 C 0.84732 0.21206 0.41718 0.0
N185 N 0.84595 0.19321 0.39274 0.0
N186 N 0.89534 0.21841 0.39507 0.0
C187 C 0.87737 0.22747 0.41866 0.0
H188 H 0.8827 0.18559 0.35927 0.0
H189 H 0.82761 0.21443 0.43306 0.0
C190 C 0.82384 0.10437 0.36293 0.0
N191 N 0.7285 0.11158 0.36505 0.0
C192 C 0.69739 0.11256 0.37566 0.0
C193 C 0.72757 0.08911 0.34311 0.0
N194 N 0.67725 0.09149 0.36122 0.0
C195 C 0.69622 0.07663 0.34081 0.0
C196 C 0.78783 0.17209 0.32658 0.0
O197 O 0.83731 0.13128 0.37113 0.0
O198 O 0.79281 0.10129 0.36507 0.0
O199 O 0.76669 0.1519 0.33634 0.0
O200 O 0.81032 0.18293 0.34358 0.0
O201 O 0.73684 0.17319 0.38504 0.0
H202 H 0.74816 0.08286 0.32902 0.0
H203 H 0.68961 0.12862 0.39339 0.0
O204 O 0.78105 0.20339 0.39254 0.0
O205 O 0.80665 0.15217 0.42319 0.0
O206 O 0.7627 0.12214 0.41398 0.0
C207 C 0.78363 0.13334 0.43221 0.0
H208 H 0.88521 0.24439 0.43573 0.0
H209 H 0.68773 0.05893 0.32463 0.0
Co210 Co 0.10456 0.56408 0.13768 0.0
C211 C 0.06167 0.511 0.1462 0.0
Co212 Co 0.12436 0.51566 0.12416 0.0
C213 C 0.07815 0.63202 0.13862 0.0
C214 C 0.07746 0.60812 0.18043 0.0
N215 N 0.08661 0.60352 0.15225 0.0
N216 N 0.06399 0.65408 0.15728 0.0
C217 C 0.06386 0.63893 0.18361 0.0
H218 H 0.0815 0.63609 0.11533 0.0
H219 H 0.07993 0.58996 0.19765 0.0
C220 C 0.16617 0.56954 0.11364 0.0
N221 N 0.1429 0.47724 0.1091 0.0
C222 C 0.14315 0.44576 0.11882 0.0
C223 C 0.16159 0.47667 0.08454 0.0
N224 N 0.16175 0.42603 0.10143 0.0
C225 C 0.17332 0.4454 0.07991 0.0
C226 C 0.0895 0.54911 0.08067 0.0
O227 O 0.14204 0.5868 0.12287 0.0
O228 O 0.1644 0.53832 0.1149 0.0
O229 O 0.10819 0.52504 0.08678 0.0
O230 O 0.08261 0.57025 0.10048 0.0
O231 O 0.08353 0.49365 0.13319 0.0
H232 H 0.16667 0.49786 0.0709 0.0
H233 H 0.13069 0.43768 0.13854 0.0
O234 O 0.06727 0.54131 0.15129 0.0
O235 O 0.12638 0.55615 0.17525 0.0
O236 O 0.14014 0.50591 0.16191 0.0
C237 C 0.1383 0.52791 0.18175 0.0
H238 H 0.05459 0.64924 0.20394 0.0
H239 H 0.18898 0.43737 0.06198 0.0
Co240 Co 0.76333 0.6451 0.63902 0.0
C241 C 0.82098 0.61139 0.65401 0.0
Co242 Co 0.80965 0.66812 0.62242 0.0
C243 C 0.69732 0.61362 0.64752 0.0
C244 C 0.72721 0.6186 0.68615 0.0
N245 N 0.72679 0.62547 0.65714 0.0
N246 N 0.67988 0.59955 0.66959 0.0
C247 C 0.69868 0.60306 0.69379 0.0
H248 H 0.68943 0.61416 0.62479 0.0
H249 H 0.7475 0.62373 0.70095 0.0
C250 C 0.75066 0.70255 0.61041 0.0
N251 N 0.84751 0.68795 0.60636 0.0
C252 C 0.87666 0.69557 0.61949 0.0
C253 C 0.85054 0.69939 0.57878 0.0
N254 N 0.89785 0.71146 0.60121 0.0
C255 C 0.88112 0.71372 0.57555 0.0
C256 C 0.77757 0.62447 0.58337 0.0
O257 O 0.73713 0.6787 0.62378 0.0
O258 O 0.78189 0.70233 0.60635 0.0
O259 O 0.80321 0.64222 0.58738 0.0
O260 O 0.75701 0.62077 0.60424 0.0
O261 O 0.83632 0.63382 0.64005 0.0
H262 H 0.83146 0.69792 0.56215 0.0
H263 H 0.8819 0.68974 0.64218 0.0
O264 O 0.78975 0.61179 0.65471 0.0
O265 O 0.76968 0.67096 0.67308 0.0
O266 O 0.81455 0.69436 0.65655 0.0
C267 C 0.79261 0.69183 0.67626 0.0
H268 H 0.69244 0.59449 0.71559 0.0
H269 H 0.88982 0.72539 0.55572 0.0
Co270 Co 0.12035 0.00932 0.88788 0.0
C271 C 0.16367 0.06022 0.90262 0.0
Co272 Co 0.10309 0.05932 0.87483 0.0
C273 C 0.13807 0.93918 0.88851 0.0
C274 C 0.1496 0.9648 0.92845 0.0
N275 N 0.13569 0.96902 0.90173 0.0
N276 N 0.15334 0.91685 0.90591 0.0
C277 C 0.16049 0.93292 0.93104 0.0
H278 H 0.12986 0.93425 0.86627 0.0
H279 H 0.15229 0.98394 0.94488 0.0
C280 C 0.05851 1.00848 0.86323 0.0
N281 N 0.08741 0.10054 0.86139 0.0
C282 C 0.0759 0.12733 0.87627 0.0
C283 C 0.08246 0.10809 0.83288 0.0
N284 N 0.06387 0.15102 0.85806 0.0
C285 C 0.06837 0.1388 0.83078 0.0
C286 C 0.13761 0.02276 0.83125 0.0
O287 O 0.08038 0.99005 0.87488 0.0
O288 O 0.06426 0.0391 0.86009 0.0
O289 O 0.12505 0.05094 0.83722 0.0
O290 O 0.13905 1.00108 0.8512 0.0
O291 O 0.14228 0.07925 0.89095 0.0
H292 H 0.08781 0.09197 0.81453 0.0
H293 H 0.07529 0.12893 0.89999 0.0
O294 O 0.1595 0.02923 0.90151 0.0
O295 O 0.10129 0.01715 0.92417 0.0
O296 O 0.08102 0.06549 0.91212 0.0
C297 C 0.08472 0.04251 0.93086 0.0
H298 H 0.17289 0.92237 0.94991 0.0
H299 H 0.06179 0.15101 0.81049 0.0
Co300 Co 0.75571 0.3735 0.13829 0.0
C301 C 0.69919 0.4079 0.15566 0.0
Co302 Co 0.70855 0.35263 0.1213 0.0
C303 C 0.82165 0.40414 0.14613 0.0
C304 C 0.79492 0.39553 0.18592 0.0
N305 N 0.79308 0.39127 0.15652 0.0
N306 N 0.84075 0.41636 0.16808 0.0
C307 C 0.82396 0.41066 0.19302 0.0
H308 H 0.82766 0.40578 0.12302 0.0
H309 H 0.77583 0.38897 0.20139 0.0
C310 C 0.76685 0.31763 0.10705 0.0
N311 N 0.67014 0.33419 0.10487 0.0
C312 C 0.64151 0.32574 0.1183 0.0
C313 C 0.66626 0.32405 0.07687 0.0
N314 N 0.6199 0.31057 0.09982 0.0
C315 C 0.63567 0.30965 0.07371 0.0
C316 C 0.74097 0.3973 0.08399 0.0
O317 O 0.78098 0.34104 0.12063 0.0
O318 O 0.73542 0.31786 0.10415 0.0
O319 O 0.71539 0.37929 0.08695 0.0
O320 O 0.76137 0.40002 0.10515 0.0
O321 O 0.68288 0.38745 0.13998 0.0
H322 H 0.68488 0.32619 0.05998 0.0
H323 H 0.63692 0.33036 0.14135 0.0
O324 O 0.73039 0.40587 0.15641 0.0
O325 O 0.75 0.34552 0.17075 0.0
O326 O 0.70309 0.32573 0.15472 0.0
C327 C 0.72597 0.32591 0.17376 0.0
H328 H 0.83184 0.41764 0.21492 0.0
H329 H 0.62638 0.29844 0.05375 0.0
Co330 Co 0.38555 1.00298 0.38745 0.0
C331 C 0.35082 0.94534 0.39791 0.0
Co332 Co 0.41378 0.95757 0.37673 0.0
C333 C 0.36315 0.07137 0.38848 0.0
C334 C 0.34067 0.04162 0.42162 0.0
N335 N 0.36214 0.04026 0.39902 0.0
N336 N 0.34297 0.09193 0.40355 0.0
C337 C 0.32877 0.0732 0.42436 0.0
H338 H 0.37838 0.07878 0.37014 0.0
H339 H 0.33449 0.02105 0.43563 0.0
C340 C 0.44929 0.01545 0.36948 0.0
N341 N 0.43769 0.91995 0.36542 0.0
C342 C 0.44343 0.89084 0.37919 0.0
C343 C 0.45439 0.9175 0.33992 0.0
N344 N 0.46289 0.87035 0.36305 0.0
C345 C 0.46976 0.88734 0.3384 0.0
C346 C 0.37886 0.98659 0.32955 0.0
O347 O 0.42301 0.02921 0.37865 0.0
O348 O 0.44986 0.98436 0.36588 0.0
O349 O 0.39617 0.96168 0.33716 0.0
O350 O 0.37044 1.00766 0.34883 0.0
O351 O 0.37719 0.93105 0.38932 0.0
H352 H 0.45566 0.93669 0.32352 0.0
H353 H 0.43338 0.88479 0.40051 0.0
O354 O 0.3488 0.97651 0.39666 0.0
O355 O 0.40117 0.99846 0.42601 0.0
O356 O 0.43175 0.95525 0.41544 0.0
C357 C 0.42205 0.97683 0.43388 0.0
H358 H 0.3117 0.08192 0.44095 0.0
H359 H 0.48543 0.87894 0.32065 0.0
Co360 Co 0.20666 0.3551 0.38624 0.0
C361 C 0.26495 0.31987 0.39379 0.0
Co362 Co 0.25145 0.38363 0.37573 0.0
C363 C 0.14065 0.32509 0.38323 0.0
C364 C 0.16679 0.31495 0.42313 0.0
N365 N 0.16943 0.33121 0.39747 0.0
N366 N 0.12013 0.30581 0.3992 0.0
C367 C 0.13673 0.29943 0.42427 0.0
H368 H 0.13483 0.33477 0.36169 0.0
H369 H 0.18576 0.31409 0.43989 0.0
C370 C 0.19337 0.41787 0.36488 0.0
N371 N 0.28815 0.40708 0.36399 0.0
C372 C 0.31945 0.40574 0.37417 0.0
C373 C 0.28908 0.42853 0.3414 0.0
N374 N 0.33974 0.42566 0.35886 0.0
C375 C 0.32068 0.4401 0.3383 0.0
C376 C 0.22572 0.3468 0.32919 0.0
O377 O 0.17951 0.39133 0.37322 0.0
O378 O 0.22452 0.42025 0.36648 0.0
O379 O 0.2469 0.36799 0.33717 0.0
O380 O 0.20449 0.33666 0.3476 0.0
O381 O 0.27832 0.34619 0.38453 0.0
H382 H 0.26824 0.43481 0.32758 0.0
H383 H 0.32721 0.3904 0.39235 0.0
O384 O 0.23387 0.31923 0.39753 0.0
O385 O 0.21049 0.3733 0.42574 0.0
O386 O 0.25634 0.39909 0.41438 0.0
C387 C 0.23512 0.39096 0.43349 0.0
H388 H 0.12811 0.28405 0.44204 0.0
H389 H 0.32919 0.45703 0.32163 0.0
Co390 Co 0.91 0.95713 0.13502 0.0
C391 C 0.95734 1.00514 0.1456 0.0
Co392 Co 0.89524 1.00686 0.12039 0.0
C393 C 0.94834 0.89604 0.14128 0.0
C394 C 0.90302 0.89577 0.16536 0.0
N395 N 0.92194 0.91512 0.14829 0.0
N396 N 0.94651 0.86551 0.15326 0.0
C397 C 0.91795 0.86551 0.16848 0.0
H398 H 0.96818 0.90425 0.12723 0.0
H399 H 0.87918 0.90275 0.1741 0.0
C400 C 0.84903 0.9581 0.10732 0.0
N401 N 0.88173 0.04718 0.10535 0.0
C402 C 0.88034 0.0779 0.11696 0.0
C403 C 0.86714 0.04989 0.07871 0.0
N404 N 0.86504 0.09912 0.09858 0.0
C405 C 0.85672 0.08166 0.07461 0.0
C406 C 0.93152 0.97143 0.07935 0.0
O407 O 0.87074 0.93893 0.11806 0.0
O408 O 0.85392 0.98895 0.10815 0.0
O409 O 0.91386 0.9968 0.08353 0.0
O410 O 0.93296 0.94954 0.09921 0.0
O411 O 0.93714 0.02419 0.13233 0.0
H412 H 0.86331 0.02968 0.06351 0.0
H413 H 0.88908 0.08425 0.13876 0.0
O414 O 0.94917 0.97537 0.15065 0.0
O415 O 0.88783 0.96649 0.17177 0.0
O416 O 0.87764 0.01732 0.15782 0.0
C417 C 0.87728 0.99543 0.17776 0.0
H418 H 0.90767 0.84469 0.18008 0.0
H419 H 0.8436 0.09122 0.05569 0.0
Co420 Co 0.30911 0.66265 0.88684 0.0
C421 C 0.24913 0.69605 0.88993 0.0
Co422 Co 0.26647 0.63303 0.87336 0.0
C423 C 0.37361 0.69496 0.88696 0.0
C424 C 0.3461 0.70322 0.92641 0.0
N425 N 0.34464 0.6877 0.90022 0.0
N426 N 0.39308 0.7145 0.9039 0.0
C427 C 0.37568 0.71955 0.92877 0.0
H428 H 0.37999 0.68643 0.86514 0.0
H429 H 0.3268 0.70271 0.9428 0.0
C430 C 0.32603 0.60027 0.86717 0.0
N431 N 0.23199 0.60768 0.8593 0.0
C432 C 0.19951 0.60923 0.8657 0.0
C433 C 0.23451 0.58401 0.83845 0.0
N434 N 0.18189 0.58731 0.84978 0.0
C435 C 0.2038 0.57129 0.83273 0.0
C436 C 0.29436 0.66999 0.82851 0.0
O437 O 0.33848 0.62786 0.87465 0.0
O438 O 0.29502 0.59677 0.86807 0.0
O439 O 0.27459 0.64683 0.83468 0.0
O440 O 0.31261 0.68189 0.84868 0.0
O441 O 0.23808 0.66973 0.87838 0.0
H442 H 0.25714 0.57693 0.8275 0.0
H443 H 0.18897 0.62619 0.88156 0.0
O444 O 0.27941 0.69742 0.89744 0.0
O445 O 0.30415 0.64337 0.92566 0.0
O446 O 0.25776 0.61983 0.91203 0.0
C447 C 0.27828 0.62705 0.93216 0.0
H448 H 0.38378 0.73371 0.94763 0.0
H449 H 0.19784 0.55253 0.81659 0.0
Co450 Co 0.60335 0.06187 0.63745 0.0
C451 C 0.56804 1.00387 0.65035 0.0
Co452 Co 0.62659 0.01535 0.62234 0.0
C453 C 0.57342 0.12774 0.6374 0.0
C454 C 0.57406 0.10553 0.67999 0.0
N455 N 0.5831 0.10017 0.65187 0.0
N456 N 0.55897 0.15009 0.65548 0.0
C457 C 0.55945 0.13609 0.68229 0.0
H458 H 0.577 0.13137 0.61407 0.0
H459 H 0.57743 0.0881 0.69768 0.0
C460 C 0.6611 0.07198 0.6061 0.0
N461 N 0.64644 0.97787 0.60696 0.0
C462 C 0.64954 0.94727 0.61829 0.0
C463 C 0.66074 0.97597 0.58023 0.0
N464 N 0.66573 0.92679 0.59979 0.0
C465 C 0.67291 0.94475 0.5759 0.0
C466 C 0.58057 0.04244 0.58354 0.0
O467 O 0.63876 0.08786 0.62001 0.0
O468 O 0.66016 0.04077 0.60597 0.0
O469 O 0.60121 0.01919 0.58725 0.0
O470 O 0.57869 0.06531 0.60257 0.0
O471 O 0.59267 0.99004 0.63825 0.0
H472 H 0.66153 0.99583 0.5645 0.0
H473 H 0.64008 0.94013 0.63957 0.0
O474 O 0.56792 0.0352 0.65341 0.0
O475 O 0.62779 0.0571 0.6733 0.0
O476 O 0.65105 0.01119 0.658 0.0
C477 C 0.64662 0.03251 0.67823 0.0
H478 H 0.54919 0.14682 0.70209 0.0
H479 H 0.68505 0.93556 0.55633 0.0
H480 H 0.25499 0.19086 0.22658 0.0
H481 H 0.3172 0.25433 0.17372 0.0
H482 H 0.30173 0.30191 0.20466 0.0
H483 H 0.19 0.24753 0.23934 0.0
H484 H 0.1832 0.23606 0.27707 0.0
H485 H 0.19949 0.20627 0.25142 0.0
H486 H 0.25046 0.19639 0.28493 0.0
H487 H 0.23374 0.22532 0.31109 0.0
H488 H 0.27481 0.23113 0.29686 0.0
H489 H 0.27718 0.34289 0.23881 0.0
H490 H 0.25452 0.3734 0.28113 0.0
H491 H 0.2097 0.28344 0.31346 0.0
C492 C 0.26585 0.21467 0.22195 0.0
C493 C 0.28736 0.21897 0.19786 0.0
C494 C 0.30104 0.25043 0.19233 0.0
C495 C 0.29204 0.27769 0.2095 0.0
C496 C 0.26977 0.27289 0.23235 0.0
C497 C 0.25761 0.24206 0.23922 0.0
C498 C 0.23516 0.24358 0.26581 0.0
C499 C 0.19987 0.23271 0.25792 0.0
C500 C 0.2494 0.22289 0.29117 0.0
C501 C 0.23649 0.28015 0.27266 0.0
C502 C 0.25617 0.29658 0.25272 0.0
C503 C 0.26187 0.33033 0.25468 0.0
C504 C 0.24871 0.34746 0.27866 0.0
C505 C 0.23037 0.33074 0.30046 0.0
C506 C 0.2231 0.29693 0.29682 0.0
H507 H 0.43614 0.5176 0.53643 0.0
H508 H 0.4963 0.44998 0.58762 0.0
H509 H 0.54473 0.46398 0.55756 0.0
H510 H 0.4757 0.49827 0.46582 0.0
H511 H 0.47202 0.54008 0.45289 0.0
H512 H 0.44214 0.52401 0.47831 0.0
H513 H 0.45452 0.57302 0.51345 0.0
H514 H 0.4853 0.58854 0.48856 0.0
H515 H 0.49621 0.57965 0.52614 0.0
H516 H 0.58715 0.48791 0.525 0.0
H517 H 0.619 0.51002 0.48352 0.0
H518 H 0.53136 0.5603 0.45138 0.0
C519 C 0.45936 0.50522 0.54084 0.0
C520 C 0.4625 0.48269 0.5643 0.0
C521 C 0.49325 0.46702 0.56953 0.0
C522 C 0.52102 0.47518 0.55287 0.0
C523 C 0.51745 0.4986 0.53082 0.0
C524 C 0.48726 0.5126 0.52405 0.0
C525 C 0.49004 0.53589 0.4982 0.0
C526 C 0.46873 0.52383 0.47227 0.0
C527 C 0.48098 0.57138 0.50714 0.0
C528 C 0.52658 0.53277 0.49158 0.0
C529 C 0.54194 0.51166 0.51113 0.0
C530 C 0.57542 0.50427 0.50938 0.0
C531 C 0.59332 0.51713 0.48588 0.0
C532 C 0.57756 0.53675 0.46427 0.0
C533 C 0.54411 0.54581 0.46784 0.0
H534 H 0.26405 0.82694 0.72785 0.0
H535 H 0.20602 0.76223 0.67179 0.0
H536 H 0.22227 0.7147 0.70209 0.0
H537 H 0.33065 0.77202 0.74173 0.0
H538 H 0.33556 0.78303 0.7799 0.0
H539 H 0.31933 0.81274 0.75425 0.0
H540 H 0.26676 0.82039 0.78608 0.0
H541 H 0.28336 0.79156 0.81227 0.0
H542 H 0.24311 0.78467 0.79645 0.0
H543 H 0.24717 0.67386 0.73603 0.0
H544 H 0.26891 0.64332 0.77859 0.0
H545 H 0.30891 0.73419 0.81456 0.0
C546 C 0.25427 0.80285 0.72233 0.0
C547 C 0.23376 0.7983 0.69747 0.0
C548 C 0.22149 0.76641 0.69089 0.0
C549 C 0.23095 0.73915 0.70772 0.0
C550 C 0.25225 0.74425 0.73132 0.0
C551 C 0.26297 0.77536 0.73926 0.0
C552 C 0.28436 0.77406 0.76663 0.0
C553 C 0.31956 0.78618 0.76023 0.0
C554 C 0.26844 0.79383 0.79185 0.0
C555 C 0.28399 0.73732 0.77274 0.0
C556 C 0.26583 0.72061 0.75171 0.0
C557 C 0.26127 0.68664 0.75276 0.0
C558 C 0.27391 0.66949 0.77692 0.0
C559 C 0.29055 0.6864 0.79985 0.0
C560 C 0.29678 0.72054 0.79713 0.0
H561 H 0.93442 0.50777 0.98168 0.0
H562 H 1.004 0.46087 0.92225 0.0
H563 H 0.05031 0.48194 0.95206 0.0
H564 H 0.98005 0.58006 0.99704 0.0
H565 H 0.97019 0.5818 0.03562 0.0
H566 H 0.94185 0.56278 0.01014 0.0
H567 H 0.94309 0.50832 0.03995 0.0
H568 H 0.97038 0.52763 0.06609 0.0
H569 H 0.98234 0.48955 0.04852 0.0
H570 H 0.08878 0.5108 0.9858 0.0
H571 H 0.11782 0.53319 0.02909 0.0
H572 H 0.02398 0.55935 0.06865 0.0
C573 C 0.95942 0.50126 0.97546 0.0
C574 C 0.9657 0.48252 0.94983 0.0
C575 C 0.99865 0.47466 0.94212 0.0
C576 C 0.02512 0.48702 0.95861 0.0
C577 C 0.01814 0.5067 0.98297 0.0
C578 C 0.98617 0.5128 0.99205 0.0
C579 C 0.98567 0.53301 0.02016 0.0
C580 C 0.96841 0.56639 0.01544 0.0
C581 C 0.96941 0.51347 0.04516 0.0
C582 C 0.0224 0.53741 0.02536 0.0
C583 C 0.04056 0.52264 1.00318 0.0
C584 C 0.0749 0.52237 1.00335 0.0
C585 C 0.09117 0.53546 0.02784 0.0
C586 C 0.07307 0.54825 0.05191 0.0
C587 C 0.03834 0.5506 0.05013 0.0
H588 H 0.70759 0.77447 0.81529 0.0
H589 H 0.7376 0.8684 0.7794 0.0
H590 H 0.76056 0.84033 0.73584 0.0
H591 H 0.77714 0.73276 0.79779 0.0
H592 H 0.75868 0.69394 0.78761 0.0
H593 H 0.73792 0.72089 0.81312 0.0
H594 H 0.68558 0.72219 0.78026 0.0
H595 H 0.70554 0.69393 0.75528 0.0
H596 H 0.68937 0.73254 0.74192 0.0
H597 H 0.78933 0.80218 0.70176 0.0
H598 H 0.81083 0.75607 0.67182 0.0
H599 H 0.76208 0.68637 0.72936 0.0
C600 C 0.71709 0.78907 0.79731 0.0
C601 C 0.72004 0.82355 0.79996 0.0
C602 C 0.73428 0.84204 0.77699 0.0
C603 C 0.74782 0.82626 0.75248 0.0
C604 C 0.74678 0.792 0.75142 0.0
C605 C 0.73087 0.77358 0.77266 0.0
C606 C 0.73538 0.73698 0.76716 0.0
C607 C 0.75335 0.72018 0.79296 0.0
C608 C 0.70198 0.72044 0.76076 0.0
C609 C 0.75695 0.73787 0.74005 0.0
C610 C 0.76349 0.76984 0.73155 0.0
C611 C 0.78398 0.77698 0.70786 0.0
C612 C 0.79658 0.75065 0.69133 0.0
C613 C 0.78822 0.71778 0.69845 0.0
C614 C 0.76895 0.71133 0.7236 0.0
H615 H 0.76764 0.32404 0.22073 0.0
H616 H 0.69168 0.26787 0.17542 0.0
H617 H 0.70478 0.21949 0.20622 0.0
H618 H 0.82599 0.258 0.22731 0.0
H619 H 0.84013 0.27035 0.26328 0.0
H620 H 0.82472 0.30085 0.23797 0.0
H621 H 0.7815 0.32053 0.27621 0.0
H622 H 0.79741 0.29078 0.30189 0.0
H623 H 0.75419 0.29076 0.29246 0.0
H624 H 0.72718 0.17722 0.24058 0.0
H625 H 0.74985 0.14665 0.28274 0.0
H626 H 0.81114 0.2307 0.30559 0.0
C627 C 0.75337 0.30173 0.21758 0.0
C628 C 0.7286 0.29964 0.19578 0.0
C629 C 0.71052 0.27005 0.19225 0.0
C630 C 0.71811 0.24235 0.2093 0.0
C631 C 0.74373 0.24485 0.22969 0.0
C632 C 0.76062 0.27395 0.23431 0.0
C633 C 0.78635 0.27049 0.25824 0.0
C634 C 0.82137 0.2752 0.24595 0.0
C635 C 0.77945 0.29457 0.28371 0.0
C636 C 0.78059 0.23507 0.26705 0.0
C637 C 0.75648 0.22053 0.24977 0.0
C638 C 0.74604 0.18831 0.25429 0.0
C639 C 0.75916 0.17114 0.2782 0.0
C640 C 0.78209 0.18646 0.29744 0.0
C641 C 0.79399 0.21826 0.29102 0.0
H642 H 0.927 0.99917 0.0247 0.0
H643 H 0.99504 0.95163 0.08506 0.0
H644 H 0.04205 0.97217 0.05618 0.0
H645 H 0.97733 0.98128 0.95779 0.0
H646 H 0.96549 0.01967 0.94089 0.0
H647 H 0.9376 0.99939 0.96569 0.0
H648 H 0.93465 0.05322 0.99662 0.0
H649 H 0.96375 0.07312 0.97264 0.0
H650 H 0.97214 0.07055 0.01148 0.0
H651 H 0.08126 1.00228 0.02445 0.0
H652 H 0.11147 0.02625 0.98281 0.0
H653 H 0.01884 0.05236 0.94094 0.0
C654 C 0.95179 0.99207 0.0311 0.0
C655 C 0.95746 0.97359 0.05692 0.0
C656 C 0.99016 0.96515 0.06502 0.0
C657 C 0.01703 0.97726 0.04908 0.0
C658 C 0.01066 0.99707 0.02478 0.0
C659 C 0.97894 1.00326 0.01501 0.0
C660 C 0.97916 0.02412 0.98739 0.0
C661 C 0.96401 1.00498 0.9614 0.0
C662 C 0.96136 0.05721 0.99235 0.0
C663 C 0.01599 0.02906 0.98347 0.0
C664 C 0.03354 0.0138 1.00574 0.0
C665 C 0.06786 0.01418 0.00682 0.0
C666 C 0.0848 0.02833 0.98334 0.0
C667 C 0.06742 0.04163 0.95908 0.0
C668 C 0.03262 0.04334 0.95971 0.0
H669 H 0.48522 0.95904 0.44893 0.0
H670 H 0.39689 1.0072 0.48205 0.0
H671 H 0.42881 0.02996 0.5235 0.0
H672 H 0.52206 0.9404 0.52311 0.0
H673 H 0.56331 0.94807 0.51002 0.0
H674 H 0.53243 0.93195 0.48532 0.0
H675 H 0.54369 0.98056 0.44995 0.0
H676 H 0.57371 0.99755 0.47497 0.0
H677 H 0.53917 0.02231 0.46311 0.0
H678 H 0.47105 0.05472 0.55597 0.0
H679 H 0.51957 0.07034 0.58545 0.0
H680 H 0.58084 1.00439 0.53334 0.0
C681 C 0.47236 0.97317 0.46562 0.0
C682 C 0.43863 0.9814 0.46238 0.0
C683 C 0.42275 1.00065 0.48421 0.0
C684 C 0.44069 0.01385 0.5077 0.0
C685 C 0.47436 1.0072 0.5092 0.0
C686 C 0.48994 0.9865 0.48937 0.0
C687 C 0.52671 0.98445 0.49559 0.0
C688 C 0.53671 0.94912 0.50402 0.0
C689 C 0.547 0.99697 0.46934 0.0
C690 C 0.52931 1.00776 0.5216 0.0
C691 C 0.49884 0.02087 0.52876 0.0
C692 C 0.49499 0.04421 0.55097 0.0
C693 C 0.52282 0.05327 0.56732 0.0
C694 C 0.55397 0.03859 0.56167 0.0
C695 C 0.55732 0.01603 0.53811 0.0
H696 H 0.16655 0.0429 0.95924 0.0
H697 H 0.21311 0.10674 0.89558 0.0
H698 H 0.2524 0.12605 0.93421 0.0
H699 H 0.16923 0.10064 0.01802 0.0
H700 H 0.17556 0.06973 0.04585 0.0
H701 H 0.15377 0.05941 0.0126 0.0
H702 H 0.19499 0.01164 1.0029 0.0
H703 H 0.21714 0.02197 0.03605 0.0
H704 H 0.23864 0.0202 1.00143 0.0
H705 H 0.2864 0.13769 0.98069 0.0
H706 H 0.30654 0.1475 0.03119 0.0
H707 H 0.23409 0.07844 0.06451 0.0
C708 C 0.18536 0.06062 0.95334 0.0
C709 C 0.18747 0.07291 0.92443 0.0
C710 C 0.2115 0.09687 0.9176 0.0
C711 C 0.23389 0.10775 0.93936 0.0
C712 C 0.23131 0.09478 0.96774 0.0
C713 C 0.20716 0.07216 0.97479 0.0
C714 C 0.2074 0.06401 0.00723 0.0
C715 C 0.17455 0.07406 0.02177 0.0
C716 C 0.215 0.02727 0.01218 0.0
C717 C 0.23556 0.08557 0.01761 0.0
C718 C 0.24947 0.10267 0.99448 0.0
C719 C 0.27564 0.12441 0.99889 0.0
C720 C 0.28708 0.12963 0.02771 0.0
C721 C 0.27199 0.11365 0.0519 0.0
C722 C 0.24633 0.09084 0.04654 0.0
H723 H 0.69132 0.4963 0.31029 0.0
H724 H 0.5997 0.54352 0.2845 0.0
H725 H 0.60488 0.51909 0.23464 0.0
H726 H 0.73359 0.50494 0.23856 0.0
H727 H 0.75377 0.46554 0.24266 0.0
H728 H 0.74395 0.4899 0.27466 0.0
H729 H 0.7117 0.44033 0.29616 0.0
H730 H 0.72085 0.41609 0.26403 0.0
H731 H 0.67857 0.42223 0.27511 0.0
H732 H 0.61713 0.48166 0.18922 0.0
H733 H 0.63959 0.4425 0.15175 0.0
H734 H 0.7235 0.42363 0.20862 0.0
C735 C 0.67287 0.50233 0.29387 0.0
C736 C 0.6453 0.52195 0.30108 0.0
C737 C 0.62137 0.52897 0.27919 0.0
C738 C 0.62396 0.51494 0.25092 0.0
C739 C 0.65092 0.49449 0.24485 0.0
C740 C 0.67534 0.489 0.26564 0.0
C741 C 0.70134 0.46543 0.25446 0.0
C742 C 0.73516 0.48248 0.25246 0.0
C743 C 0.70319 0.43419 0.27357 0.0
C744 C 0.68751 0.45788 0.22438 0.0
C745 C 0.65832 0.47448 0.21899 0.0
C746 C 0.64037 0.46912 0.19304 0.0
C747 C 0.65308 0.44676 0.17197 0.0
C748 C 0.68355 0.43059 0.17704 0.0
C749 C 0.70055 0.43626 0.20369 0.0
H750 H 0.30382 0.89527 0.55878 0.0
H751 H 0.20044 0.90568 0.53537 0.0
H752 H 0.21646 0.91625 0.48363 0.0
H753 H 0.33687 0.95672 0.51014 0.0
H754 H 0.37323 0.93273 0.50192 0.0
H755 H 0.35296 0.92804 0.5368 0.0
H756 H 0.34784 0.86519 0.52696 0.0
H757 H 0.36734 0.86988 0.49168 0.0
H758 H 0.3272 0.85096 0.49415 0.0
H759 H 0.24513 0.92931 0.43478 0.0
H760 H 0.28338 0.94252 0.39393 0.0
H761 H 0.36664 0.91592 0.44875 0.0
C762 C 0.2845 0.90038 0.54292 0.0
C763 C 0.25086 0.90036 0.55122 0.0
C764 C 0.22636 0.90609 0.52956 0.0
C765 C 0.23525 0.9119 0.50013 0.0
C766 C 0.26869 0.91107 0.49262 0.0
C767 C 0.29287 0.9053 0.51347 0.0
C768 C 0.32696 0.90471 0.49987 0.0
C769 C 0.34877 0.93218 0.51295 0.0
C770 C 0.34328 0.87065 0.50338 0.0
C771 C 0.31839 0.91149 0.46808 0.0
C772 C 0.28469 0.91542 0.46427 0.0
C773 C 0.27142 0.92535 0.43735 0.0
C774 C 0.29321 0.93245 0.41416 0.0
C775 C 0.32771 0.92861 0.41781 0.0
C776 C 0.34024 0.91721 0.44489 0.0
H777 H 0.81302 0.61645 0.71178 0.0
H778 H 0.86333 0.55841 0.64551 0.0
H779 H 0.88048 0.51818 0.68403 0.0
H780 H 0.87135 0.60372 0.77122 0.0
H781 H 0.83912 0.60222 0.79844 0.0
H782 H 0.83341 0.62625 0.76565 0.0
H783 H 0.77938 0.59423 0.75475 0.0
H784 H 0.78538 0.56946 0.7871 0.0
H785 H 0.78059 0.5499 0.75172 0.0
H786 H 0.88921 0.48317 0.73081 0.0
H787 H 0.89484 0.4607 0.78107 0.0
H788 H 0.83704 0.54256 0.81505 0.0
C789 C 0.82832 0.59561 0.70551 0.0
C790 C 0.83743 0.59056 0.67597 0.0
C791 C 0.85683 0.56287 0.66824 0.0
C792 C 0.86624 0.53983 0.68991 0.0
C793 C 0.85583 0.54506 0.71888 0.0
C794 C 0.83767 0.57264 0.72662 0.0
C795 C 0.829 0.57287 0.75889 0.0
C796 C 0.84414 0.60304 0.77446 0.0
C797 C 0.79136 0.57153 0.76336 0.0
C798 C 0.84535 0.54117 0.76847 0.0
C799 C 0.86045 0.52518 0.74517 0.0
C800 C 0.87747 0.49557 0.74913 0.0
C801 C 0.88026 0.4828 0.77775 0.0
C802 C 0.86628 0.49979 0.80205 0.0
C803 C 0.84784 0.52882 0.797 0.0
H804 H 0.85327 0.90786 0.06821 0.0
H805 H 0.78581 0.98173 0.10196 0.0
H806 H 0.7451 0.96681 0.06334 0.0
H807 H 0.84069 0.92831 0.99598 0.0
H808 H 0.84496 0.88712 0.98142 0.0
H809 H 0.86525 0.89813 0.01522 0.0
H810 H 0.83609 0.85001 0.04199 0.0
H811 H 0.81594 0.83855 0.00812 0.0
H812 H 0.79171 0.84682 0.0405 0.0
H813 H 0.71363 0.94642 0.01772 0.0
H814 H 0.69729 0.92641 0.968 0.0
H815 H 0.78873 0.87107 0.96234 0.0
C816 C 0.82931 0.91981 0.06826 0.0
C817 C 0.82211 0.94511 0.08863 0.0
C818 C 0.79133 0.96165 0.08698 0.0
C819 C 0.76814 0.95336 0.0651 0.0
C820 C 0.77642 0.92892 0.04468 0.0
C821 C 0.80645 0.91257 0.04605 0.0
C822 C 0.81172 0.89095 0.01929 0.0
C823 C 0.84246 0.9018 1.00197 0.0
C824 C 0.81399 0.85441 0.028 0.0
C825 C 0.78028 0.898 1.0024 0.0
C826 C 0.75975 0.91931 0.01757 0.0
C827 C 0.72952 0.92963 1.00575 0.0
C828 C 0.72038 0.91819 0.97758 0.0
C829 C 0.74189 0.8975 0.96139 0.0
C830 C 0.77193 0.8871 0.97421 0.0
H831 H 0.35685 0.61541 0.81705 0.0
H832 H 0.33037 0.5332 0.87243 0.0
H833 H 0.34357 0.49436 0.83186 0.0
H834 H 0.3152 0.58628 0.75753 0.0
H835 H 0.34319 0.6014 0.72997 0.0
H836 H 0.34026 0.62205 0.76491 0.0
H837 H 0.40309 0.61479 0.77374 0.0
H838 H 0.40657 0.59513 0.73831 0.0
H839 H 0.42139 0.57434 0.77072 0.0
H840 H 0.35483 0.46506 0.78273 0.0
H841 H 0.36271 0.44865 0.73055 0.0
H842 H 0.3739 0.55166 0.70716 0.0
C843 C 0.35583 0.58912 0.82115 0.0
C844 C 0.34423 0.57708 0.84824 0.0
C845 C 0.34064 0.54267 0.8522 0.0
C846 C 0.34771 0.52053 0.82915 0.0
C847 C 0.35748 0.53335 0.80211 0.0
C848 C 0.36155 0.56694 0.79811 0.0
C849 C 0.36743 0.57511 0.76614 0.0
C850 C 0.33988 0.59752 0.75394 0.0
C851 C 0.40166 0.59075 0.76199 0.0
C852 C 0.36591 0.54098 0.75268 0.0
C853 C 0.3607 0.51706 0.77369 0.0
C854 C 0.35887 0.48366 0.76614 0.0
C855 C 0.36312 0.47455 0.73646 0.0
C856 C 0.36827 0.49885 0.71468 0.0
C857 C 0.36929 0.53244 0.7231 0.0
H858 H 0.76469 0.07716 0.45965 0.0
H859 H 0.78462 0.18061 0.47506 0.0
H860 H 0.75896 0.17659 0.52439 0.0
H861 H 0.68818 0.07464 0.49035 0.0
H862 H 0.69223 0.03443 0.50675 0.0
H863 H 0.71609 0.0446 0.47481 0.0
H864 H 0.77028 0.03029 0.50251 0.0
H865 H 0.74648 0.01949 0.53446 0.0
H866 H 0.77892 0.04971 0.53738 0.0
H867 H 0.72081 0.16239 0.56855 0.0
H868 H 0.68251 0.13747 0.60505 0.0
H869 H 0.69378 0.043 0.56123 0.0
C870 C 0.76484 0.0986 0.47393 0.0
C871 C 0.77703 0.12901 0.46386 0.0
C872 C 0.7761 0.15685 0.48275 0.0
C873 C 0.76127 0.15485 0.51067 0.0
C874 C 0.74826 0.12463 0.51958 0.0
C875 C 0.75092 0.09679 0.50198 0.0
C876 C 0.7339 0.06755 0.51564 0.0
C877 C 0.70596 0.05457 0.4957 0.0
C878 C 0.75889 0.04015 0.52294 0.0
C879 C 0.72034 0.08337 0.54322 0.0
C880 C 0.72841 0.11634 0.54526 0.0
C881 C 0.7152 0.13633 0.56754 0.0
C882 C 0.69339 0.12208 0.58814 0.0
C883 C 0.6855 0.08811 0.58647 0.0
C884 C 0.6997 0.06882 0.56381 0.0
H885 H 0.16169 0.40275 0.31466 0.0
H886 H 0.19145 0.48523 0.36905 0.0
H887 H 0.17691 0.52381 0.3288 0.0
H888 H 0.20024 0.43151 0.25286 0.0
H889 H 0.1704 0.41616 0.22677 0.0
H890 H 0.17565 0.39587 0.26155 0.0
H891 H 0.11344 0.40335 0.27312 0.0
H892 H 0.10774 0.42295 0.238 0.0
H893 H 0.09514 0.44387 0.27116 0.0
H894 H 0.1631 0.55288 0.28025 0.0
H895 H 0.1531 0.5691 0.2284 0.0
H896 H 0.13928 0.46619 0.20517 0.0
C897 C 0.16337 0.42907 0.3186 0.0
C898 C 0.17612 0.44126 0.34539 0.0
C899 C 0.1804 0.47565 0.34908 0.0
C900 C 0.17249 0.49764 0.32623 0.0
C901 C 0.16116 0.48471 0.29958 0.0
C902 C 0.15669 0.45113 0.29572 0.0
C903 C 0.1487 0.44287 0.26402 0.0
C904 C 0.17533 0.42028 0.25052 0.0
C905 C 0.1142 0.42735 0.26143 0.0
C906 C 0.14949 0.47694 0.25054 0.0
C907 C 0.15616 0.5009 0.27136 0.0
C908 C 0.15788 0.53425 0.26381 0.0
C909 C 0.15233 0.54326 0.23432 0.0
C910 C 0.14594 0.51893 0.21264 0.0
C911 C 0.14468 0.4854 0.22107 0.0
H912 H 0.71541 0.6157 0.56218 0.0
H913 H 0.81837 0.61241 0.5362 0.0
H914 H 0.80126 0.60275 0.48449 0.0
H915 H 0.68414 0.55437 0.51136 0.0
H916 H 0.64629 0.57678 0.5051 0.0
H917 H 0.66747 0.58067 0.53974 0.0
H918 H 0.66877 0.64416 0.5329 0.0
H919 H 0.64847 0.64028 0.49781 0.0
H920 H 0.68758 0.66124 0.50049 0.0
H921 H 0.77178 0.59047 0.43573 0.0
H922 H 0.73285 0.57754 0.39503 0.0
H923 H 0.65028 0.59701 0.45275 0.0
C924 C 0.73445 0.6122 0.54576 0.0
C925 C 0.76827 0.61406 0.55328 0.0
C926 C 0.79234 0.61051 0.53095 0.0
C927 C 0.78282 0.60525 0.50154 0.0
C928 C 0.74916 0.60441 0.4948 0.0
C929 C 0.7254 0.60788 0.51636 0.0
C930 C 0.69091 0.60734 0.50352 0.0
C931 C 0.67105 0.57805 0.51564 0.0
C932 C 0.67289 0.64022 0.50901 0.0
C933 C 0.69883 0.60273 0.47131 0.0
C934 C 0.73253 0.6007 0.46663 0.0
C935 C 0.74542 0.59294 0.43901 0.0
C936 C 0.72325 0.58603 0.41594 0.0
C937 C 0.68877 0.58799 0.42051 0.0
C938 C 0.67657 0.59724 0.44832 0.0
H939 H 0.13882 0.96053 0.80908 0.0
H940 H 0.15463 0.06243 0.7842 0.0
H941 H 0.16748 0.04409 0.73327 0.0
H942 H 0.20211 0.92412 0.76644 0.0
H943 H 0.17824 0.88806 0.75723 0.0
H944 H 0.17033 0.90988 0.79098 0.0
H945 H 0.10887 0.9164 0.77597 0.0
H946 H 0.11671 0.89499 0.74191 0.0
H947 H 0.09859 0.93564 0.74147 0.0
H948 H 0.18376 0.01287 0.68612 0.0
H949 H 0.19987 0.9726 0.64749 0.0
H950 H 0.16734 0.89241 0.70268 0.0
C951 C 0.14517 0.97911 0.79303 0.0
C952 C 0.14628 0.01295 0.80074 0.0
C953 C 0.15395 0.0364 0.77884 0.0
C954 C 0.16113 0.02616 0.74987 0.0
C955 C 0.1597 0.9925 0.74308 0.0
C956 C 0.15157 0.96944 0.76409 0.0
C957 C 0.15159 0.93478 0.75157 0.0
C958 C 0.17709 0.91294 0.76749 0.0
C959 C 0.11687 0.91957 0.75281 0.0
C960 C 0.1618 0.94162 0.72022 0.0
C961 C 0.16651 0.97505 0.71567 0.0
C962 C 0.17923 0.98682 0.68923 0.0
C963 C 0.18807 0.96386 0.66733 0.0
C964 C 0.1834 0.92965 0.6717 0.0
C965 C 0.16952 0.91856 0.69825 0.0
H966 H 0.80341 0.40469 0.06404 0.0
H967 H 0.70097 0.41345 0.03706 0.0
H968 H 0.71916 0.42599 0.98621 0.0
H969 H 0.83789 0.46773 0.01815 0.0
H970 H 0.87484 0.44429 0.01074 0.0
H971 H 0.85309 0.43853 0.04476 0.0
H972 H 0.84898 0.37592 0.0336 0.0
H973 H 0.87007 0.3816 0.99918 0.0
H974 H 0.83002 0.36228 0.99981 0.0
H975 H 0.74984 0.44026 0.93869 0.0
H976 H 0.78983 0.45349 0.89912 0.0
H977 H 0.87084 0.42791 0.95691 0.0
C978 C 0.78473 0.40998 0.04763 0.0
C979 C 0.75077 0.40893 0.05457 0.0
C980 C 0.72712 0.41473 0.03222 0.0
C981 C 0.73724 0.42164 1.00332 0.0
C982 C 0.77103 0.42176 0.99713 0.0
C983 C 0.79433 0.41589 0.01873 0.0
C984 C 0.82901 0.41591 0.00649 0.0
C985 C 0.84992 0.44325 0.02088 0.0
C986 C 0.84547 0.3819 0.00998 0.0
C987 C 0.8218 0.42331 0.9746 0.0
C988 C 0.78825 0.42687 0.96956 0.0
C989 C 0.77605 0.43671 0.94223 0.0
C990 C 0.79879 0.44387 0.91984 0.0
C991 C 0.83309 0.44023 0.92479 0.0
C992 C 0.8446 0.42926 0.95227 0.0
H993 H 0.29461 0.09362 0.20652 0.0
H994 H 0.38076 0.07907 0.15157 0.0
H995 H 0.40318 0.03933 0.18842 0.0
H996 H 0.3375 0.09439 0.27393 0.0
H997 H 0.30436 0.07486 0.29365 0.0
H998 H 0.29537 0.09954 0.26186 0.0
H999 H 0.26463 0.05002 0.23824 0.0
H1000 H 0.27397 0.02497 0.26981 0.0
H1001 H 0.28592 0.01123 0.23365 0.0
H1002 H 0.41513 1.00062 0.23314 0.0
H1003 H 0.41948 0.97483 0.28241 0.0
H1004 H 0.32582 0.01871 0.30688 0.0
C1005 C 0.31805 0.08181 0.20184 0.0
C1006 C 0.33568 0.08891 0.17588 0.0
C1007 C 0.36675 0.07375 0.17122 0.0
C1008 C 0.37946 0.05104 0.19195 0.0
C1009 C 0.36091 0.04429 0.21721 0.0
C1010 C 0.33107 0.05984 0.22222 0.0
C1011 C 0.31664 0.05098 0.25172 0.0
C1012 C 0.3133 0.08176 0.27145 0.0
C1013 C 0.28332 0.03324 0.24812 0.0
C1014 C 0.34297 0.02785 0.26295 0.0
C1015 C 0.36815 0.02367 0.24271 0.0
C1016 C 0.39545 1.00374 0.24896 0.0
C1017 C 0.39756 0.98888 0.27688 0.0
C1018 C 0.37279 0.99453 0.29829 0.0
C1019 C 0.34491 0.01363 0.29082 0.0
H1020 H 0.33483 0.48182 0.55945 0.0
H1021 H 0.32248 0.39472 0.61319 0.0
H1022 H 0.28334 0.37193 0.57611 0.0
H1023 H 0.25167 0.48726 0.52844 0.0
H1024 H 0.26679 0.49908 0.49279 0.0
H1025 H 0.28967 0.51007 0.52538 0.0
H1026 H 0.34178 0.48122 0.50439 0.0
H1027 H 0.31917 0.47035 0.47173 0.0
H1028 H 0.33931 0.43867 0.49296 0.0
H1029 H 0.24656 0.35841 0.53122 0.0
H1030 H 0.22334 0.35159 0.48109 0.0
H1031 H 0.26501 0.44566 0.45603 0.0
C1032 C 0.32326 0.45829 0.56386 0.0
C1033 C 0.33101 0.44036 0.58957 0.0
C1034 C 0.31646 0.40905 0.59386 0.0
C1035 C 0.29415 0.39604 0.57296 0.0
C1036 C 0.2872 0.41443 0.5477 0.0
C1037 C 0.30185 0.4447 0.543 0.0
C1038 C 0.2938 0.45803 0.51278 0.0
C1039 C 0.27432 0.49054 0.515 0.0
C1040 C 0.32539 0.46229 0.49439 0.0
C1041 C 0.27243 0.43048 0.5009 0.0
C1042 C 0.26815 0.40586 0.52151 0.0
C1043 C 0.24973 0.37765 0.51505 0.0
C1044 C 0.23637 0.37409 0.4866 0.0
C1045 C 0.24217 0.39824 0.4648 0.0
C1046 C 0.2599 0.42699 0.47235 0.0
H1047 H 0.87534 0.0576 0.20142 0.0
H1048 H 0.86152 0.95466 0.2239 0.0
H1049 H 0.85183 0.9707 0.27578 0.0
H1050 H 0.91975 0.07997 0.26705 0.0
H1051 H 0.90131 0.12039 0.26965 0.0
H1052 H 0.90627 0.10095 0.23426 0.0
H1053 H 0.84358 0.10737 0.22386 0.0
H1054 H 0.83863 0.12746 0.2589 0.0
H1055 H 0.81425 0.09165 0.25003 0.0
H1056 H 0.8398 0.99908 0.32485 0.0
H1057 H 0.82654 0.03708 0.36602 0.0
H1058 H 0.85425 0.12034 0.3123 0.0
C1059 C 0.86992 0.03839 0.21715 0.0
C1060 C 0.86877 1.00483 0.20847 0.0
C1061 C 0.86225 0.98051 0.22995 0.0
C1062 C 0.85689 0.9894 0.25951 0.0
C1063 C 0.85874 0.02268 0.26738 0.0
C1064 C 0.86518 0.04676 0.24676 0.0
C1065 C 0.86603 0.08075 0.26075 0.0
C1066 C 0.90039 0.09643 0.25775 0.0
C1067 C 0.83902 0.10311 0.24761 0.0
C1068 C 0.85866 0.07219 0.29246 0.0
C1069 C 0.85434 0.03859 0.29587 0.0
C1070 C 0.84401 0.0253 0.32258 0.0
C1071 C 0.83688 0.04696 0.34598 0.0
C1072 C 0.84093 0.08142 0.34278 0.0
C1073 C 0.85276 0.09397 0.31587 0.0
H1074 H 0.1533 0.6039 0.06467 0.0
H1075 H 0.23377 0.56368 0.11607 0.0
H1076 H 0.27319 0.57848 0.07646 0.0
H1077 H 0.17942 0.56838 0.99975 0.0
H1078 H 0.16572 0.60135 0.97618 0.0
H1079 H 0.14532 0.59429 0.01064 0.0
H1080 H 0.1565 0.65457 0.02675 0.0
H1081 H 0.17643 0.66216 0.99207 0.0
H1082 H 0.1981 0.67033 0.02596 0.0
H1083 H 0.30321 0.59582 0.02898 0.0
H1084 H 0.31959 0.60879 0.97764 0.0
H1085 H 0.21738 0.63001 0.95636 0.0
C1086 C 0.17946 0.59964 0.0681 0.0
C1087 C 0.19089 0.58411 0.09387 0.0
C1088 C 0.22489 0.57672 0.09687 0.0
C1089 C 0.24733 0.58489 0.07443 0.0
C1090 C 0.2351 0.59953 0.04884 0.0
C1091 C 0.20182 0.6065 0.04557 0.0
C1092 C 0.1939 0.61784 0.01471 0.0
C1093 C 0.16967 0.59404 0.99943 0.0
C1094 C 0.18045 0.65334 0.0149 0.0
C1095 C 0.22784 0.61612 1.00097 0.0
C1096 C 0.25153 0.60624 0.02104 0.0
C1097 C 0.28478 0.60344 0.01313 0.0
C1098 C 0.2939 0.6108 0.98399 0.0
C1099 C 0.26968 0.61984 0.96304 0.0
C1100 C 0.23635 0.62258 0.97182 0.0
H1101 H 0.69682 0.99082 0.69559 0.0
H1102 H 0.62305 0.05871 0.72945 0.0
H1103 H 0.63617 0.04119 0.77998 0.0
H1104 H 0.68213 0.92622 0.74327 0.0
H1105 H 0.72485 0.91452 0.74751 0.0
H1106 H 0.71153 0.93505 0.71466 0.0
H1107 H 0.75611 0.98 0.72372 0.0
H1108 H 0.76884 0.9595 0.75698 0.0
H1109 H 0.75652 1.00224 0.75809 0.0
H1110 H 0.65005 1.00881 0.82581 0.0
H1111 H 0.66907 0.96913 0.86372 0.0
H1112 H 0.73799 0.92695 0.80133 0.0
C1113 C 0.68408 1.00265 0.7137 0.0
C1114 C 0.65895 0.0262 0.70848 0.0
C1115 C 0.64263 0.04086 0.7328 0.0
C1116 C 0.64982 0.03097 0.76166 0.0
C1117 C 0.67402 1.00697 0.76601 0.0
C1118 C 0.69152 0.99361 0.74274 0.0
C1119 C 0.71549 0.96739 0.75328 0.0
C1120 C 0.70801 0.93382 0.73883 0.0
C1121 C 0.75137 0.97792 0.74769 0.0
C1122 C 0.70778 0.96714 0.78589 0.0
C1123 C 0.68367 0.99005 0.79283 0.0
C1124 C 0.66974 0.99157 0.82088 0.0
C1125 C 0.68062 0.96902 0.84228 0.0
C1126 C 0.70572 0.94588 0.83569 0.0
C1127 C 0.71973 0.94536 0.80726 0.0
H1128 H 0.44417 0.23279 0.06189 0.0
H1129 H 0.42677 0.22278 0.15557 0.0
H1130 H 0.48178 0.24652 0.16553 0.0
H1131 H 0.5305 0.21341 0.06267 0.0
H1132 H 0.54067 0.24324 0.03487 0.0
H1133 H 0.50031 0.22468 0.03529 0.0
H1134 H 0.47333 0.28266 0.03728 0.0
H1135 H 0.51361 0.3014 0.03685 0.0
H1136 H 0.48509 0.31105 0.06602 0.0
H1137 H 0.5397 0.27243 0.165 0.0
H1138 H 0.59398 0.29695 0.15409 0.0
H1139 H 0.5715 0.29213 0.06081 0.0
C1140 C 0.45151 0.23567 0.08459 0.0
C1141 C 0.43053 0.22573 0.10788 0.0
C1142 C 0.44207 0.22972 0.13718 0.0
C1143 C 0.47338 0.24343 0.1431 0.0
C1144 C 0.4931 0.2532 0.11957 0.0
C1145 C 0.4825 0.24946 0.09089 0.0
C1146 C 0.50808 0.26216 0.06943 0.0
C1147 C 0.52063 0.2342 0.04939 0.0
C1148 C 0.4942 0.29103 0.05133 0.0
C1149 C 0.53483 0.27367 0.09044 0.0
C1150 C 0.52584 0.26828 0.11928 0.0
C1151 C 0.54683 0.27681 0.14245 0.0
C1152 C 0.57773 0.29099 0.13598 0.0
C1153 C 0.58761 0.29673 0.1065 0.0
C1154 C 0.56541 0.28795 0.08359 0.0
H1155 H 0.5373 0.69415 0.32491 0.0
H1156 H 0.54427 0.67394 0.41822 0.0
H1157 H 0.52094 0.72932 0.42893 0.0
H1158 H 0.55855 0.7798 0.32844 0.0
H1159 H 0.53005 0.79127 0.29974 0.0
H1160 H 0.54792 0.75056 0.30004 0.0
H1161 H 0.48932 0.72494 0.29922 0.0
H1162 H 0.47126 0.76557 0.29901 0.0
H1163 H 0.45994 0.73655 0.32714 0.0
H1164 H 0.49478 0.78787 0.42867 0.0
H1165 H 0.4717 0.84317 0.4175 0.0
H1166 H 0.4811 0.8224 0.32434 0.0
C1167 C 0.5338 0.70108 0.34766 0.0
C1168 C 0.54251 0.67936 0.3707 0.0
C1169 C 0.53807 0.69008 0.40014 0.0
C1170 C 0.52461 0.72147 0.40641 0.0
C1171 C 0.51579 0.74197 0.38303 0.0
C1172 C 0.52044 0.7321 0.35424 0.0
C1173 C 0.50911 0.75834 0.33288 0.0
C1174 C 0.53814 0.77072 0.31418 0.0
C1175 C 0.48072 0.74558 0.31342 0.0
C1176 C 0.49723 0.78466 0.35402 0.0
C1177 C 0.50114 0.77496 0.38289 0.0
C1178 C 0.4917 0.79559 0.40609 0.0
C1179 C 0.47838 0.82693 0.39954 0.0
C1180 C 0.47469 0.83748 0.37002 0.0
C1181 C 0.48402 0.81562 0.34716 0.0
H1182 H 0.94207 0.73905 0.56249 0.0
H1183 H 0.93007 0.71338 0.65452 0.0
H1184 H 0.9856 0.73521 0.66489 0.0
H1185 H 0.02731 0.71857 0.55653 0.0
H1186 H 0.03671 0.75256 0.53257 0.0
H1187 H 0.9959 0.735 0.53251 0.0
H1188 H 0.9708 0.79255 0.54356 0.0
H1189 H 0.01154 0.81031 0.54364 0.0
H1190 H 0.98506 0.8155 0.57511 0.0
H1191 H 0.04399 0.76037 0.6651 0.0
H1192 H 0.09863 0.78485 0.65465 0.0
H1193 H 0.07094 0.79503 0.56297 0.0
C1194 C 0.9506 0.73797 0.58496 0.0
C1195 C 0.93084 0.72419 0.60757 0.0
C1196 C 0.94412 0.72345 0.63652 0.0
C1197 C 0.97586 0.73599 0.64274 0.0
C1198 C 0.99436 0.74942 0.6199 0.0
C1199 C 0.9821 0.75047 0.59158 0.0
C1200 C 1.00677 0.76609 0.57081 0.0
C1201 C 0.01729 0.74159 0.54669 0.0
C1202 C 0.9927 0.798 0.5575 0.0
C1203 C 0.03505 0.7734 0.59175 0.0
C1204 C 0.02747 0.76378 0.62002 0.0
C1205 C 0.05002 0.76804 0.643 0.0
C1206 C 0.08105 0.7822 0.63688 0.0
C1207 C 0.08953 0.79194 0.60794 0.0
C1208 C 0.0658 0.78756 0.58528 0.0
H1209 H 0.95801 0.31169 0.82386 0.0
H1210 H 0.98666 0.35077 0.90893 0.0
H1211 H 0.01575 0.29835 0.91996 0.0
H1212 H 0.94556 0.22671 0.8469 0.0
H1213 H 0.96181 0.21008 0.8131 0.0
H1214 H 0.94164 0.24973 0.81325 0.0
H1215 H 0.99365 0.27608 0.79006 0.0
H1216 H 0.01402 0.23658 0.78997 0.0
H1217 H 0.0331 0.27131 0.80802 0.0
H1218 H 0.04521 0.24146 0.9198 0.0
H1219 H 0.07041 0.18702 0.90879 0.0
H1220 H 0.02118 0.18654 0.82402 0.0
C1221 C 0.9703 0.30934 0.84488 0.0
C1222 C 0.97005 0.3356 0.86546 0.0
C1223 C 0.98614 0.33103 0.89287 0.0
C1224 C 1.0029 0.30134 0.89926 0.0
C1225 C 1.00318 0.27623 0.87813 0.0
C1226 C 0.98699 0.27998 0.85157 0.0
C1227 C 0.99148 0.24993 0.83212 0.0
C1228 C 0.95814 0.23312 0.82599 0.0
C1229 C 1.00912 0.25903 0.80335 0.0
C1230 C 0.01325 0.22878 0.85154 0.0
C1231 C 0.0197 0.24411 0.87809 0.0
C1232 C 0.04003 0.22924 0.89912 0.0
C1233 C 0.05419 0.19818 0.89272 0.0
C1234 C 0.04815 0.18223 0.86543 0.0
C1235 C 0.02698 0.19792 0.84491 0.0
H1236 H 0.5456 0.83528 0.92437 0.0
H1237 H 0.59694 0.77985 0.85658 0.0
H1238 H 0.54861 0.74316 0.85154 0.0
H1239 H 0.50512 0.76701 0.95811 0.0
H1240 H 0.46762 0.78965 0.96533 0.0
H1241 H 0.5065 0.81103 0.96374 0.0
H1242 H 0.48295 0.84986 0.92366 0.0
H1243 H 0.44399 0.82862 0.92515 0.0
H1244 H 0.46544 0.83238 0.89066 0.0
H1245 H 0.4934 0.71256 0.85385 0.0
H1246 H 0.43763 0.69072 0.86398 0.0
H1247 H 0.42271 0.76818 0.92874 0.0
C1248 C 0.54679 0.81568 0.90824 0.0
C1249 C 0.57533 0.81069 0.89085 0.0
C1250 C 0.57569 0.78414 0.87044 0.0
C1251 C 0.5482 0.76323 0.86727 0.0
C1252 C 0.52044 0.76911 0.88465 0.0
C1253 C 0.51964 0.79473 0.90474 0.0
C1254 C 0.48694 0.79602 0.92079 0.0
C1255 C 0.49185 0.79059 0.95395 0.0
C1256 C 0.46876 0.82865 0.91469 0.0
C1257 C 0.46938 0.76711 0.90663 0.0
C1258 C 0.48899 0.75183 0.88584 0.0
C1259 C 0.47785 0.72444 0.87006 0.0
C1260 C 0.44598 0.7123 0.87586 0.0
C1261 C 0.42551 0.72751 0.89727 0.0
C1262 C 0.43761 0.75546 0.91258 0.0
H1263 H 0.49812 0.33156 0.69061 0.0
H1264 H 0.4492 0.33335 0.6056 0.0
H1265 H 0.47287 0.27843 0.59433 0.0
H1266 H 0.57224 0.2893 0.66836 0.0
H1267 H 0.57485 0.26592 0.7019 0.0
H1268 H 0.55593 0.30618 0.70205 0.0
H1269 H 0.50259 0.28144 0.72426 0.0
H1270 H 0.52133 0.24114 0.72423 0.0
H1271 H 0.48244 0.24761 0.70574 0.0
H1272 H 0.50128 0.22119 0.59354 0.0
H1273 H 0.52901 0.16788 0.60419 0.0
H1274 H 0.55653 0.20437 0.69041 0.0
C1275 C 0.49198 0.32069 0.6696 0.0
C1276 C 0.47141 0.33722 0.64912 0.0
C1277 C 0.46499 0.32166 0.6217 0.0
C1278 C 0.4783 0.2903 0.61512 0.0
C1279 C 0.49803 0.27468 0.63613 0.0
C1280 C 0.50472 0.28949 0.66284 0.0
C1281 C 0.52538 0.26737 0.68236 0.0
C1282 C 0.5591 0.28314 0.68905 0.0
C1283 C 0.50682 0.25889 0.71082 0.0
C1284 C 0.52904 0.23744 0.66269 0.0
C1285 C 0.51349 0.2421 0.63595 0.0
C1286 C 0.51356 0.21745 0.61441 0.0
C1287 C 0.52951 0.18729 0.62057 0.0
C1288 C 0.54484 0.18185 0.64818 0.0
C1289 C 0.54476 0.20756 0.66924 0.0
H1290 H 0.07123 0.28958 0.43714 0.0
H1291 H 0.0946 0.29492 0.34435 0.0
H1292 H 0.03942 0.27195 0.33237 0.0
H1293 H 0.02807 0.21277 0.43438 0.0
H1294 H 0.99821 0.22502 0.46167 0.0
H1295 H 0.03911 0.24235 0.46238 0.0
H1296 H 0.01423 0.30129 0.46047 0.0
H1297 H 0.97326 0.28415 0.45986 0.0
H1298 H 0.98606 0.31194 0.43126 0.0
H1299 H 0.9807 0.24655 0.33132 0.0
H1300 H 0.9245 0.22493 0.3413 0.0
H1301 H 0.94219 0.23586 0.4348 0.0
C1302 C 0.06501 0.28575 0.41426 0.0
C1303 C 0.08749 0.2939 0.39171 0.0
C1304 C 0.07779 0.28911 0.36204 0.0
C1305 C 0.04656 0.27586 0.35505 0.0
C1306 C 0.02524 0.26762 0.37797 0.0
C1307 C 0.03415 0.27263 0.40697 0.0
C1308 C 1.00707 0.26214 0.42774 0.0
C1309 C 0.01883 0.23389 0.44771 0.0
C1310 C 0.99441 0.29164 0.44589 0.0
C1311 C 0.98135 0.25039 0.40601 0.0
C1312 C 0.9921 0.25353 0.37736 0.0
C1313 C 0.97214 0.24407 0.35371 0.0
C1314 C 0.94032 0.23162 0.35956 0.0
C1315 C 0.92872 0.22891 0.38882 0.0
C1316 C 0.94992 0.23811 0.41216 0.0
H1317 H 0.01789 0.68785 0.18907 0.0
H1318 H 0.07889 0.69436 0.11101 0.0
H1319 H 0.05625 0.75011 0.10137 0.0
H1320 H 0.94724 0.72917 0.16065 0.0
H1321 H 0.93792 0.7497 0.19484 0.0
H1322 H 0.95887 0.71049 0.19505 0.0
H1323 H 1.00656 0.73594 0.22565 0.0
H1324 H 0.98576 0.77525 0.22553 0.0
H1325 H 0.02753 0.77202 0.21217 0.0
H1326 H 0.02607 0.8063 0.10087 0.0
H1327 H 0.99088 0.85547 0.10873 0.0
H1328 H 0.95248 0.81156 0.18846 0.0
C1329 C 0.02698 0.70091 0.17008 0.0
C1330 C 0.05051 0.68647 0.15094 0.0
C1331 C 0.06079 0.70457 0.12596 0.0
C1332 C 0.04818 0.7364 0.1204 0.0
C1333 C 0.02529 0.7499 0.14001 0.0
C1334 C 0.01485 0.73256 0.16433 0.0
C1335 C 0.99002 0.75213 0.18213 0.0
C1336 C 0.95653 0.73431 0.18321 0.0
C1337 C 1.00327 0.75926 0.21321 0.0
C1338 C 0.98793 0.7833 0.16405 0.0
C1339 C 1.0084 0.78172 0.13984 0.0
C1340 C 0.01008 0.80772 0.11986 0.0
C1341 C 0.99009 0.83574 0.12463 0.0
C1342 C 0.96862 0.83765 0.1492 0.0
C1343 C 0.96808 0.81101 0.16921 0.0
H1344 H 0.27285 0.26492 0.09442 0.0
H1345 H 0.18366 0.20859 0.11067 0.0
H1346 H 0.15101 0.25989 0.11078 0.0
H1347 H 0.25384 0.33105 0.14056 0.0
H1348 H 0.27057 0.36267 0.1172 0.0
H1349 H 0.28696 0.32139 0.11553 0.0
H1350 H 0.27494 0.31847 0.05963 0.0
H1351 H 0.25921 0.36006 0.06092 0.0
H1352 H 0.2339 0.32732 0.04633 0.0
H1353 H 0.12895 0.3178 0.11495 0.0
H1354 H 0.11805 0.37811 0.11501 0.0
H1355 H 0.22075 0.39618 0.0943 0.0
C1356 C 0.24633 0.26326 0.09713 0.0
C1357 C 0.23087 0.2327 0.10251 0.0
C1358 C 0.19612 0.23169 0.10645 0.0
C1359 C 0.17732 0.26073 0.10671 0.0
C1360 C 0.19353 0.29057 0.10267 0.0
C1361 C 0.22712 0.29202 0.09731 0.0
C1362 C 0.23859 0.32734 0.09436 0.0
C1363 C 0.26399 0.33611 0.11834 0.0
C1364 C 0.25247 0.33367 0.06347 0.0
C1365 C 0.20629 0.34545 0.09913 0.0
C1366 C 0.18063 0.32385 0.10423 0.0
C1367 C 0.14875 0.33497 0.11056 0.0
C1368 C 0.1428 0.36911 0.11084 0.0
C1369 C 0.16852 0.39146 0.10446 0.0
C1370 C 0.20065 0.37942 0.09887 0.0
H1371 H 0.37426 0.48142 0.34925 0.0
H1372 H 0.38424 0.37961 0.3767 0.0
H1373 H 0.44488 0.38674 0.3805 0.0
H1374 H 0.44705 0.4853 0.30503 0.0
H1375 H 0.45707 0.52687 0.31599 0.0
H1376 H 0.41466 0.51354 0.31552 0.0
H1377 H 0.40835 0.53034 0.37033 0.0
H1378 H 0.45059 0.54408 0.37079 0.0
H1379 H 0.43685 0.51401 0.39711 0.0
H1380 H 0.50467 0.4055 0.38072 0.0
H1381 H 0.55792 0.43531 0.38109 0.0
H1382 H 0.50745 0.52448 0.35304 0.0
C1383 C 0.38923 0.46058 0.35588 0.0
C1384 C 0.37472 0.42993 0.36252 0.0
C1385 C 0.39497 0.40337 0.37173 0.0
C1386 C 0.42937 0.40713 0.37371 0.0
C1387 C 0.44293 0.43764 0.36656 0.0
C1388 C 0.42339 0.46397 0.35812 0.0
C1389 C 0.4437 0.49449 0.35247 0.0
C1390 C 0.44042 0.50569 0.32034 0.0
C1391 C 0.43432 0.52236 0.37396 0.0
C1392 C 0.47783 0.48122 0.35882 0.0
C1393 C 0.477 0.44839 0.36683 0.0
C1394 C 0.50561 0.43119 0.37441 0.0
C1395 C 0.53573 0.44828 0.37443 0.0
C1396 C 0.53684 0.48218 0.367 0.0
C1397 C 0.50752 0.49853 0.35862 0.0
H1398 H 0.31582 0.77969 0.63865 0.0
H1399 H 0.26383 0.78031 0.55538 0.0
H1400 H 0.29347 0.7294 0.54044 0.0
H1401 H 0.3951 0.74142 0.61355 0.0
H1402 H 0.39829 0.71663 0.64624 0.0
H1403 H 0.37859 0.75654 0.64781 0.0
H1404 H 0.32574 0.73002 0.66937 0.0
H1405 H 0.34539 0.69029 0.6682 0.0
H1406 H 0.30634 0.69644 0.6499 0.0
H1407 H 0.32303 0.67543 0.53719 0.0
H1408 H 0.34342 0.61929 0.54853 0.0
H1409 H 0.37406 0.65198 0.6347 0.0
C1410 C 0.31157 0.76962 0.61689 0.0
C1411 C 0.2882 0.78412 0.59781 0.0
C1412 C 0.282 0.76964 0.57006 0.0
C1413 C 0.29891 0.74094 0.56137 0.0
C1414 C 0.32159 0.72691 0.58086 0.0
C1415 C 0.32759 0.74057 0.60823 0.0
C1416 C 0.34877 0.71801 0.62696 0.0
C1417 C 0.38218 0.73412 0.63405 0.0
C1418 C 0.33046 0.7081 0.65525 0.0
C1419 C 0.35296 0.68899 0.60621 0.0
C1420 C 0.3379 0.69504 0.57941 0.0
C1421 C 0.33561 0.67072 0.55776 0.0
C1422 C 0.34752 0.63905 0.56419 0.0
C1423 C 0.36132 0.63194 0.59199 0.0
C1424 C 0.36508 0.65746 0.61282 0.0
H1425 H 0.01587 0.48501 0.84593 0.0
H1426 H 0.96369 0.57817 0.855 0.0
H1427 H 0.01637 0.60808 0.85101 0.0
H1428 H 0.082 0.50594 0.88995 0.0
H1429 H 0.11316 0.48488 0.86869 0.0
H1430 H 0.07113 0.47058 0.86787 0.0
H1431 H 0.06964 0.47593 0.81115 0.0
H1432 H 0.11195 0.48964 0.81164 0.0
H1433 H 0.08058 0.5146 0.79438 0.0
H1434 H 0.0748 0.62738 0.85285 0.0
H1435 H 0.13543 0.63499 0.85501 0.0
H1436 H 0.14935 0.52964 0.84413 0.0
C1437 C 0.01541 0.51172 0.84605 0.0
C1438 C 0.98575 0.52928 0.85061 0.0
C1439 C 0.98619 0.56423 0.85141 0.0
C1440 C 0.01597 0.58146 0.84921 0.0
C1441 C 0.04498 0.56337 0.846 0.0
C1442 C 0.04494 0.52932 0.84394 0.0
C1443 C 0.07971 0.51571 0.84256 0.0
C1444 C 0.08691 0.49295 0.86883 0.0
C1445 C 0.08583 0.49793 0.81318 0.0
C1446 C 0.09924 0.54739 0.84466 0.0
C1447 C 0.07876 0.57459 0.84671 0.0
C1448 C 0.09114 0.60634 0.85075 0.0
C1449 C 0.12546 0.61042 0.85225 0.0
C1450 C 0.14679 0.58291 0.84952 0.0
C1451 C 0.13345 0.55108 0.84573 0.0
H1452 H 0.80002 0.7825 0.90962 0.0
H1453 H 0.69781 0.75137 0.90317 0.0
H1454 H 0.71589 0.69289 0.90594 0.0
H1455 H 0.83233 0.72154 0.86368 0.0
H1456 H 0.8702 0.71671 0.88413 0.0
H1457 H 0.84872 0.75561 0.88464 0.0
H1458 H 0.84609 0.75402 0.94156 0.0
H1459 H 0.86801 0.71531 0.9413 0.0
H1460 H 0.82863 0.71854 0.9595 0.0
H1461 H 0.74704 0.637 0.90546 0.0
H1462 H 0.78728 0.59058 0.90559 0.0
H1463 H 0.86766 0.6608 0.91084 0.0
C1464 C 0.78125 0.7635 0.90938 0.0
C1465 C 0.74748 0.7715 0.90637 0.0
C1466 C 0.72382 0.7458 0.90587 0.0
C1467 C 0.73389 0.71254 0.90721 0.0
C1468 C 0.76763 0.70556 0.90917 0.0
C1469 C 0.79081 0.7305 0.91058 0.0
C1470 C 0.8256 0.71711 0.91136 0.0
C1471 C 0.84536 0.72841 0.88435 0.0
C1472 C 0.8431 0.72681 0.94015 0.0
C1473 C 0.81861 0.6806 0.91014 0.0
C1474 C 0.78514 0.67415 0.9088 0.0
C1475 C 0.77327 0.64188 0.90676 0.0
C1476 C 0.79625 0.61569 0.90663 0.0
C1477 C 0.83058 0.62204 0.90862 0.0
C1478 C 0.8416 0.655 0.91002 0.0
H1479 H 0.62464 0.6131 0.6365 0.0
H1480 H 0.66539 0.54532 0.70072 0.0
H1481 H 0.61138 0.51865 0.70569 0.0
H1482 H 0.5456 0.62346 0.66955 0.0
H1483 H 0.5222 0.62319 0.63581 0.0
H1484 H 0.56445 0.63705 0.63585 0.0
H1485 H 0.57921 0.59404 0.59567 0.0
H1486 H 0.53684 0.58054 0.59512 0.0
H1487 H 0.56953 0.55119 0.60156 0.0
H1488 H 0.55375 0.50073 0.70617 0.0
H1489 H 0.49534 0.48731 0.69725 0.0
H1490 H 0.48961 0.56492 0.63191 0.0
C1491 C 0.62216 0.5923 0.65117 0.0
C1492 C 0.64913 0.58166 0.66864 0.0
C1493 C 0.64495 0.55438 0.68766 0.0
C1494 C 0.61437 0.53899 0.69061 0.0
C1495 C 0.58801 0.5508 0.67412 0.0
C1496 C 0.59149 0.57632 0.65431 0.0
C1497 C 0.55871 0.58348 0.63914 0.0
C1498 C 0.54706 0.61891 0.64547 0.0
C1499 C 0.56123 0.57692 0.60591 0.0
C1500 C 0.53648 0.55834 0.65398 0.0
C1501 C 0.55411 0.53992 0.67412 0.0
C1502 C 0.5396 0.51487 0.6904 0.0
C1503 C 0.50636 0.50755 0.6853 0.0
C1504 C 0.48787 0.52523 0.66412 0.0
C1505 C 0.50298 0.55145 0.64867 0.0
H1506 H 0.74693 0.25556 0.35807 0.0
H1507 H 0.70726 0.21148 0.43696 0.0
H1508 H 0.67704 0.26341 0.44803 0.0
H1509 H 0.7611 0.33386 0.38427 0.0
H1510 H 0.74789 0.35554 0.35176 0.0
H1511 H 0.76326 0.31403 0.34881 0.0
H1512 H 0.70805 0.2952 0.3233 0.0
H1513 H 0.69459 0.3376 0.32521 0.0
H1514 H 0.66944 0.30534 0.34054 0.0
H1515 H 0.65806 0.32212 0.45373 0.0
H1516 H 0.6485 0.38248 0.45215 0.0
H1517 H 0.6968 0.38743 0.36763 0.0
C1518 C 0.73133 0.25683 0.37736 0.0
C1519 C 0.7292 0.22992 0.3968 0.0
C1520 C 0.70882 0.23201 0.42186 0.0
C1521 C 0.69165 0.26131 0.42823 0.0
C1522 C 0.69458 0.28776 0.40883 0.0
C1523 C 0.71337 0.28555 0.38357 0.0
C1524 C 0.71318 0.3178 0.36682 0.0
C1525 C 0.74845 0.33108 0.36269 0.0
C1526 C 0.69528 0.31377 0.3372 0.0
C1527 C 0.69324 0.33921 0.38757 0.0
C1528 C 0.68236 0.32127 0.41149 0.0
C1529 C 0.66574 0.33621 0.43479 0.0
C1530 C 0.66046 0.37037 0.43378 0.0
C1531 C 0.67145 0.3891 0.40956 0.0
C1532 C 0.68747 0.37327 0.38594 0.0
H1533 H 0.89376 0.40564 0.13181 0.0
H1534 H 0.8559 0.46946 0.20072 0.0
H1535 H 0.90911 0.49822 0.20325 0.0
H1536 H 0.9758 0.39755 0.16044 0.0
H1537 H 0.99642 0.39932 0.12542 0.0
H1538 H 0.95485 0.38375 0.12764 0.0
H1539 H 0.93536 0.4267 0.08933 0.0
H1540 H 0.97695 0.44212 0.0867 0.0
H1541 H 0.94352 0.46982 0.09566 0.0
H1542 H 0.9655 0.51849 0.20073 0.0
H1543 H 0.02265 0.534 0.18961 0.0
H1544 H 0.02673 0.45878 0.12147 0.0
C1545 C 0.89671 0.426 0.14703 0.0
C1546 C 0.87085 0.43508 0.16637 0.0
C1547 C 0.87555 0.46172 0.18613 0.0
C1548 C 0.90566 0.47827 0.18771 0.0
C1549 C 0.93099 0.46809 0.16922 0.0
C1550 C 0.92695 0.44298 0.14892 0.0
C1551 C 0.95873 0.43746 0.13175 0.0
C1552 C 0.97224 0.40243 0.13661 0.0
C1553 C 0.95331 0.44445 0.09891 0.0
C1554 C 0.98105 0.46323 0.14585 0.0
C1555 C 0.96427 0.48037 0.16747 0.0
C1556 C 0.97895 0.50543 0.18376 0.0
C1557 C 0.01148 0.51398 0.17731 0.0
C1558 C 0.02917 0.49759 0.15473 0.0
C1559 C 0.01393 0.47143 0.1391 0.0
H1560 H 0.7723 0.76283 0.59084 0.0
H1561 H 0.68415 0.71001 0.61754 0.0
H1562 H 0.65267 0.76199 0.61738 0.0
H1563 H 0.75963 0.83237 0.63437 0.0
H1564 H 0.77431 0.86194 0.60798 0.0
H1565 H 0.78968 0.82025 0.6072 0.0
H1566 H 0.77158 0.81389 0.55283 0.0
H1567 H 0.75681 0.85585 0.55316 0.0
H1568 H 0.72945 0.82282 0.54262 0.0
H1569 H 0.63251 0.82034 0.62059 0.0
H1570 H 0.62293 0.88078 0.61902 0.0
H1571 H 0.72285 0.89523 0.58798 0.0
C1572 C 0.74617 0.76203 0.59582 0.0
C1573 C 0.73075 0.73233 0.60422 0.0
C1574 C 0.69656 0.73244 0.611 0.0
C1575 C 0.67844 0.76188 0.6111 0.0
C1576 C 0.69472 0.79093 0.60401 0.0
C1577 C 0.72759 0.79119 0.59582 0.0
C1578 C 0.73936 0.82595 0.58995 0.0
C1579 C 0.7674 0.83568 0.61114 0.0
C1580 C 0.74991 0.82985 0.55772 0.0
C1581 C 0.70808 0.84513 0.59645 0.0
C1582 C 0.68271 0.82452 0.60486 0.0
C1583 C 0.652 0.83673 0.61356 0.0
C1584 C 0.64684 0.87094 0.61291 0.0
C1585 C 0.67212 0.89226 0.60324 0.0
C1586 C 0.70311 0.87919 0.59511 0.0
H1587 H 0.91203 0.87882 0.87389 0.0
H1588 H 0.84585 0.95587 0.84379 0.0
H1589 H 0.89341 0.99363 0.83823 0.0
H1590 H 0.965 0.93195 0.91607 0.0
H1591 H 1.00195 0.90908 0.90735 0.0
H1592 H 0.96269 0.88837 0.90832 0.0
H1593 H 0.97197 0.86756 0.85498 0.0
H1594 H 0.01113 0.88851 0.85377 0.0
H1595 H 0.98015 0.89695 0.82629 0.0
H1596 H 0.94836 0.0225 0.83568 0.0
H1597 H 1.00579 0.04211 0.84027 0.0
H1598 H 0.03567 0.94582 0.87251 0.0
C1599 C 0.90762 0.90357 0.86593 0.0
C1600 C 0.87539 0.91447 0.85908 0.0
C1601 C 0.87039 0.94722 0.84933 0.0
C1602 C 0.89723 0.96867 0.8459 0.0
C1603 C 0.92878 0.95698 0.85254 0.0
C1604 C 0.93403 0.92531 0.86267 0.0
C1605 C 0.97012 0.91916 0.86939 0.0
C1606 C 0.97523 0.91171 0.90223 0.0
C1607 C 0.98416 0.8914 0.84994 0.0
C1608 C 0.98448 0.95226 0.86124 0.0
C1609 C 0.96028 0.97369 0.85144 0.0
C1610 C 0.96752 1.00593 0.84327 0.0
C1611 C 1.00025 0.01677 0.84586 0.0
C1612 C 0.02527 0.99545 0.85665 0.0
C1613 C 0.01722 0.96263 0.86393 0.0
H1614 H 0.80402 0.12501 0.09996 0.0
H1615 H 0.9078 0.14918 0.10606 0.0
H1616 H 0.89383 0.20891 0.10502 0.0
H1617 H 0.77936 0.18783 0.05154 0.0
H1618 H 0.74053 0.19654 0.06928 0.0
H1619 H 0.75843 0.15593 0.0717 0.0
H1620 H 0.75689 0.15878 0.12864 0.0
H1621 H 0.73809 0.199 0.12635 0.0
H1622 H 0.77552 0.1934 0.14726 0.0
H1623 H 0.86845 0.26517 0.1 0.0
H1624 H 0.83352 0.31502 0.10023 0.0
H1625 H 0.74559 0.25393 0.0991 0.0
C1626 C 0.82359 0.14309 0.10165 0.0
C1627 C 0.8569 0.13305 0.10326 0.0
C1628 C 0.88218 0.15684 0.10524 0.0
C1629 C 0.87444 0.19059 0.10434 0.0
C1630 C 0.84129 0.19977 0.10183 0.0
C1631 C 0.81621 0.17673 0.1013 0.0
C1632 C 0.78258 0.19305 0.09944 0.0
C1633 C 0.76415 0.18271 0.07131 0.0
C1634 C 0.76207 0.18562 0.12707 0.0
C1635 C 0.79264 0.22893 0.09836 0.0
C1636 C 0.82662 0.23221 0.09954 0.0
C1637 C 0.84183 0.26292 0.09926 0.0
C1638 C 0.82176 0.29107 0.09919 0.0
C1639 C 0.78684 0.28832 0.09959 0.0
C1640 C 0.77217 0.25681 0.09827 0.0
H1641 H 0.50991 0.99194 0.35387 0.0
H1642 H 0.45859 0.08171 0.37939 0.0
H1643 H 0.51187 0.11148 0.38038 0.0
H1644 H 0.57908 1.00344 0.39993 0.0
H1645 H 0.60826 0.98632 0.37416 0.0
H1646 H 0.56595 0.97278 0.37363 0.0
H1647 H 0.56099 0.98857 0.31861 0.0
H1648 H 0.60343 1.00177 0.31883 0.0
H1649 H 0.57137 0.02981 0.30725 0.0
H1650 H 0.57171 0.13038 0.38124 0.0
H1651 H 0.63234 0.1377 0.37813 0.0
H1652 H 0.64313 0.03511 0.35268 0.0
C1653 C 0.50968 0.018 0.35919 0.0
C1654 C 0.48008 0.03455 0.36643 0.0
C1655 C 0.48099 0.06858 0.37358 0.0
C1656 C 0.51113 0.08565 0.37434 0.0
C1657 C 0.53998 0.06828 0.36785 0.0
C1658 C 0.53939 0.03528 0.36015 0.0
C1659 C 0.57372 0.02191 0.35488 0.0
C1660 C 0.58224 0.9945 0.37697 0.0
C1661 C 0.5776 0.00982 0.32299 0.0
C1662 C 0.59383 0.05259 0.36063 0.0
C1663 C 0.57406 0.07907 0.36829 0.0
C1664 C 0.5874 0.10984 0.37512 0.0
C1665 C 0.62182 0.11371 0.37354 0.0
C1666 C 0.64232 0.08699 0.36502 0.0
C1667 C 0.62801 0.05606 0.35883 0.0
H1668 H 0.24254 0.25951 0.4111 0.0
H1669 H 0.3309 0.3102 0.38201 0.0
H1670 H 0.36099 0.25699 0.38104 0.0
H1671 H 0.2831 0.19938 0.45774 0.0
H1672 H 0.25475 0.167 0.4477 0.0
H1673 H 0.24122 0.20935 0.44748 0.0
H1674 H 0.22291 0.20285 0.39315 0.0
H1675 H 0.23677 0.16063 0.39301 0.0
H1676 H 0.25246 0.18912 0.36615 0.0
H1677 H 0.3803 0.19702 0.38058 0.0
H1678 H 0.38814 0.13653 0.38449 0.0
H1679 H 0.28679 0.1264 0.41356 0.0
C1680 C 0.26838 0.25962 0.40498 0.0
C1681 C 0.2844 0.28908 0.39677 0.0
C1682 C 0.31816 0.28797 0.3886 0.0
C1683 C 0.3354 0.25785 0.38784 0.0
C1684 C 0.31854 0.22914 0.39538 0.0
C1685 C 0.28586 0.22991 0.40406 0.0
C1686 C 0.27301 0.1957 0.41045 0.0
C1687 C 0.26241 0.19269 0.44277 0.0
C1688 C 0.24462 0.18655 0.38943 0.0
C1689 C 0.3036 0.17546 0.40416 0.0
C1690 C 0.32959 0.19504 0.39528 0.0
C1691 C 0.36014 0.18151 0.38769 0.0
C1692 C 0.36431 0.14715 0.38975 0.0
C1693 C 0.33814 0.12683 0.3995 0.0
C1694 C 0.3074 0.14134 0.40649 0.0
H1695 H 0.99184 0.05796 0.12289 0.0
H1696 H 1.00019 0.9757 0.18337 0.0
H1697 H 0.05878 0.98889 0.19152 0.0
H1698 H 0.07261 0.04774 0.09041 0.0
H1699 H 0.08049 0.0913 0.08698 0.0
H1700 H 0.03869 0.07612 0.08576 0.0
H1701 H 0.02246 0.11505 0.12866 0.0
H1702 H 0.06403 0.13073 0.12973 0.0
H1703 H 0.04577 0.11378 0.16244 0.0
H1704 H 0.11568 0.00977 0.19319 0.0
H1705 H 0.16796 0.04057 0.19155 0.0
H1706 H 0.12485 0.10987 0.13003 0.0
C1707 C 1.00592 0.04307 0.13818 0.0
C1708 C 0.99135 0.01589 0.15266 0.0
C1709 C 0.01074 0.99665 0.1721 0.0
C1710 C 0.04411 1.00384 0.17677 0.0
C1711 C 0.05789 0.03025 0.16172 0.0
C1712 C 0.03952 0.04979 0.14299 0.0
C1713 C 0.06077 0.07681 0.12978 0.0
C1714 C 0.06328 0.07274 0.09624 0.0
C1715 C 0.04746 0.11113 0.13817 0.0
C1716 C 0.0937 0.06976 0.14461 0.0
C1717 C 0.09133 0.04247 0.16262 0.0
C1718 C 0.11788 0.0312 0.17922 0.0
C1719 C 0.14743 0.04885 0.17818 0.0
C1720 C 0.15032 0.0776 0.1608 0.0
C1721 C 0.12333 0.08776 0.14321 0.0
H1722 H 0.20914 0.88513 0.92217 0.0
H1723 H 0.1172 0.8727 0.87455 0.0
H1724 H 0.13078 0.81363 0.86633 0.0
H1725 H 0.25798 0.8313 0.87564 0.0
H1726 H 0.28256 0.81619 0.90581 0.0
H1727 H 0.26532 0.85714 0.9073 0.0
H1728 H 0.23706 0.84297 0.95676 0.0
H1729 H 0.25388 0.80185 0.9552 0.0
H1730 H 0.20993 0.80785 0.95871 0.0
H1731 H 0.15385 0.75528 0.86558 0.0
H1732 H 0.18666 0.70391 0.8677 0.0
H1733 H 0.26409 0.7558 0.915 0.0
C1734 C 0.19184 0.86993 0.91006 0.0
C1735 C 0.16197 0.88323 0.8992 0.0
C1736 C 0.14024 0.86286 0.88292 0.0
C1737 C 0.14768 0.82934 0.87835 0.0
C1738 C 0.17712 0.81686 0.88991 0.0
C1739 C 0.19906 0.83671 0.90505 0.0
C1740 C 0.22939 0.81768 0.91466 0.0
C1741 C 0.26065 0.83139 0.89997 0.0
C1742 C 0.23274 0.81759 0.94833 0.0
C1743 C 0.22095 0.78379 0.90298 0.0
C1744 C 0.19065 0.78373 0.88889 0.0
C1745 C 0.17765 0.75511 0.87645 0.0
C1746 C 0.19642 0.72601 0.87792 0.0
C1747 C 0.22796 0.7258 0.89157 0.0
C1748 C 0.24007 0.75508 0.9045 0.0
H1749 H 0.37462 0.97071 0.66989 0.0
H1750 H 0.39407 0.86964 0.644 0.0
H1751 H 0.45409 0.88164 0.64236 0.0
H1752 H 0.43669 1.00671 0.62225 0.0
H1753 H 0.44706 0.03901 0.64794 0.0
H1754 H 0.40604 0.02194 0.64761 0.0
H1755 H 0.41174 1.00842 0.70304 0.0
H1756 H 0.45302 0.02495 0.70336 0.0
H1757 H 0.4458 0.98329 0.71542 0.0
H1758 H 0.51161 0.90414 0.64558 0.0
H1759 H 0.56252 0.93707 0.64557 0.0
H1760 H 0.50567 0.02501 0.6667 0.0
C1761 C 0.39164 0.95121 0.66385 0.0
C1762 C 0.38 0.91918 0.65724 0.0
C1763 C 0.40268 0.8943 0.64897 0.0
C1764 C 0.43671 0.90086 0.64826 0.0
C1765 C 0.44747 0.93258 0.65543 0.0
C1766 C 0.42558 0.95755 0.66245 0.0
C1767 C 0.44345 0.98992 0.66766 0.0
C1768 C 0.43267 0.01592 0.64501 0.0
C1769 C 0.43818 1.00237 0.69925 0.0
C1770 C 0.47891 0.9792 0.66277 0.0
C1771 C 0.48062 0.94592 0.65613 0.0
C1772 C 0.51055 0.93024 0.65059 0.0
C1773 C 0.5394 0.94923 0.65079 0.0
C1774 C 0.5382 0.98374 0.65613 0.0
C1775 C 0.50753 0.9987 0.66283 0.0
loop_
_geom_bond_atom_site_label_1
_geom_bond_atom_site_label_2
_geom_bond_distance
_geom_bond_site_symmetry_2
_ccdc_geom_bond_type
Co0 N5 2.057 . S
Co0 O17 2.021 . S
Co0 O20 2.062 . S
Co0 O24 2.117 . S
Co0 O25 2.020 . S
C1 O21 1.259 . S
C1 O24 1.258 . S
Co2 N11 2.057 . S
Co2 O18 2.117 . S
Co2 O19 2.020 . S
Co2 O21 2.021 . S
Co2 O26 2.062 . S
C3 N5 1.316 . S
C3 N6 1.347 . S
C3 H8 0.931 . S
C4 N5 1.375 . S
C4 C7 1.350 . S
C4 H9 0.930 . S
N5 Co0 2.057 . S
N5 C3 1.316 . S
N5 C4 1.375 . S
N6 C3 1.347 . S
N6 C7 1.373 . S
C7 C4 1.350 . S
C7 N6 1.373 . S
C7 H28 0.931 . S
H8 C3 0.931 . S
H9 C4 0.930 . S
C10 O17 1.259 . S
C10 O18 1.258 . S
N11 Co2 2.057 . S
N11 C12 1.316 . S
N11 C13 1.375 . S
C12 N11 1.316 . S
C12 N14 1.347 . S
C12 H23 0.931 . S
C13 N11 1.375 . S
C13 C15 1.350 . S
C13 H22 0.930 . S
N14 C12 1.347 . S
N14 C15 1.373 . S
C15 C13 1.350 . S
C15 N14 1.373 . S
C15 H29 0.931 . S
C16 O19 1.256 . S
C16 O20 1.255 . S
O17 Co0 2.021 . S
O17 C10 1.259 . S
O18 Co2 2.117 . S
O18 C10 1.258 . S
O19 Co2 2.020 . S
O19 C16 1.256 . S
O20 Co0 2.062 . S
O20 C16 1.255 . S
O21 C1 1.259 . S
O21 Co2 2.021 . S
H22 C13 0.930 . S
H23 C12 0.931 . S
O24 Co0 2.117 . S
O24 C1 1.258 . S
O25 Co0 2.020 . S
O25 C27 1.256 . S
O26 Co2 2.062 . S
O26 C27 1.255 . S
C27 O25 1.256 . S
C27 O26 1.255 . S
H28 C7 0.931 . S
H29 C15 0.931 . S
Co30 N35 2.057 . S
Co30 O47 2.021 . S
Co30 O50 2.062 . S
Co30 O54 2.117 . S
Co30 O55 2.020 . S
C31 O51 1.259 . S
C31 O54 1.258 . S
Co32 N41 2.057 . S
Co32 O48 2.117 . S
Co32 O49 2.020 . S
Co32 O51 2.021 . S
Co32 O56 2.062 . S
C33 N35 1.316 . S
C33 N36 1.347 . S
C33 H38 0.931 . S
C34 N35 1.375 . S
C34 C37 1.350 . S
C34 H39 0.930 . S
N35 Co30 2.057 . S
N35 C33 1.316 . S
N35 C34 1.375 . S
N36 C33 1.347 . S
N36 C37 1.373 . S
C37 C34 1.350 . S
C37 N36 1.373 . S
C37 H58 0.931 . S
H38 C33 0.931 . S
H39 C34 0.930 . S
C40 O47 1.259 . S
C40 O48 1.258 . S
N41 Co32 2.057 . S
N41 C42 1.316 . S
N41 C43 1.375 . S
C42 N41 1.316 . S
C42 N44 1.347 . S
C42 H53 0.931 . S
C43 N41 1.375 . S
C43 C45 1.350 . S
C43 H52 0.930 . S
N44 C42 1.347 . S
N44 C45 1.373 . S
C45 C43 1.350 . S
C45 N44 1.373 . S
C45 H59 0.931 . S
C46 O49 1.256 . S
C46 O50 1.255 . S
O47 Co30 2.021 . S
O47 C40 1.259 . S
O48 Co32 2.117 . S
O48 C40 1.258 . S
O49 Co32 2.020 . S
O49 C46 1.256 . S
O50 Co30 2.062 . S
O50 C46 1.255 . S
O51 C31 1.259 . S
O51 Co32 2.021 . S
H52 C43 0.930 . S
H53 C42 0.931 . S
O54 Co30 2.117 . S
O54 C31 1.258 . S
O55 Co30 2.020 . S
O55 C57 1.256 . S
O56 Co32 2.062 . S
O56 C57 1.255 . S
C57 O55 1.256 . S
C57 O56 1.255 . S
H58 C37 0.931 . S
H59 C45 0.931 . S
Co60 N65 2.057 . S
Co60 O77 2.021 . S
Co60 O80 2.062 . S
Co60 O84 2.117 . S
Co60 O85 2.020 . S
C61 O81 1.259 . S
C61 O84 1.258 . S
Co62 N71 2.057 . S
Co62 O78 2.117 . S
Co62 O79 2.020 . S
Co62 O81 2.021 . S
Co62 O86 2.062 . S
C63 N65 1.316 . S
C63 N66 1.347 . S
C63 H68 0.931 . S
C64 N65 1.375 . S
C64 C67 1.350 . S
C64 H69 0.930 . S
N65 Co60 2.057 . S
N65 C63 1.316 . S
N65 C64 1.375 . S
N66 C63 1.347 . S
N66 C67 1.373 . S
C67 C64 1.350 . S
C67 N66 1.373 . S
C67 H88 0.931 . S
H68 C63 0.931 . S
H69 C64 0.930 . S
C70 O77 1.259 . S
C70 O78 1.258 . S
N71 Co62 2.057 . S
N71 C72 1.316 . S
N71 C73 1.375 . S
C72 N71 1.316 . S
C72 N74 1.347 . S
C72 H83 0.931 . S
C73 N71 1.375 . S
C73 C75 1.350 . S
C73 H82 0.930 . S
N74 C72 1.347 . S
N74 C75 1.373 . S
C75 C73 1.350 . S
C75 N74 1.373 . S
C75 H89 0.931 . S
C76 O79 1.256 . S
C76 O80 1.255 . S
O77 Co60 2.021 . S
O77 C70 1.259 . S
O78 Co62 2.117 . S
O78 C70 1.258 . S
O79 Co62 2.020 . S
O79 C76 1.256 . S
O80 Co60 2.062 . S
O80 C76 1.255 . S
O81 C61 1.259 . S
O81 Co62 2.021 . S
H82 C73 0.930 . S
H83 C72 0.931 . S
O84 Co60 2.117 . S
O84 C61 1.258 . S
O85 Co60 2.020 . S
O85 C87 1.256 . S
O86 Co62 2.062 . S
O86 C87 1.255 . S
C87 O85 1.256 . S
C87 O86 1.255 . S
H88 C67 0.931 . S
H89 C75 0.931 . S
Co90 N95 2.057 . S
Co90 O107 2.021 . S
Co90 O110 2.062 . S
Co90 O114 2.117 . S
Co90 O115 2.020 . S
C91 O111 1.259 . S
C91 O114 1.258 . S
Co92 N101 2.057 . S
Co92 O108 2.117 . S
Co92 O109 2.020 . S
Co92 O111 2.021 . S
Co92 O116 2.062 . S
C93 N95 1.316 . S
C93 N96 1.347 . S
C93 H98 0.931 . S
C94 N95 1.375 . S
C94 C97 1.350 . S
C94 H99 0.930 . S
N95 Co90 2.057 . S
N95 C93 1.316 . S
N95 C94 1.375 . S
N96 C93 1.347 . S
N96 C97 1.373 . S
C97 C94 1.350 . S
C97 N96 1.373 . S
C97 H118 0.931 . S
H98 C93 0.931 . S
H99 C94 0.930 . S
C100 O107 1.259 . S
C100 O108 1.258 . S
N101 Co92 2.057 . S
N101 C102 1.316 . S
N101 C103 1.375 . S
C102 N101 1.316 . S
C102 N104 1.347 . S
C102 H113 0.931 . S
C103 N101 1.375 . S
C103 C105 1.350 . S
C103 H112 0.930 . S
N104 C102 1.347 . S
N104 C105 1.373 . S
C105 C103 1.350 . S
C105 N104 1.373 . S
C105 H119 0.931 . S
C106 O109 1.256 . S
C106 O110 1.255 . S
O107 Co90 2.021 . S
O107 C100 1.259 . S
O108 Co92 2.117 . S
O108 C100 1.258 . S
O109 Co92 2.020 . S
O109 C106 1.256 . S
O110 Co90 2.062 . S
O110 C106 1.255 . S
O111 C91 1.259 . S
O111 Co92 2.021 . S
H112 C103 0.930 . S
H113 C102 0.931 . S
O114 Co90 2.117 . S
O114 C91 1.258 . S
O115 Co90 2.020 . S
O115 C117 1.256 . S
O116 Co92 2.062 . S
O116 C117 1.255 . S
C117 O115 1.256 . S
C117 O116 1.255 . S
H118 C97 0.931 . S
H119 C105 0.931 . S
Co120 N125 2.057 . S
Co120 O137 2.021 . S
Co120 O140 2.062 . S
Co120 O144 2.117 . S
Co120 O145 2.020 . S
C121 O141 1.259 . S
C121 O144 1.258 . S
Co122 N131 2.057 . S
Co122 O138 2.117 . S
Co122 O139 2.020 . S
Co122 O141 2.021 . S
Co122 O146 2.062 . S
C123 N125 1.316 . S
C123 N126 1.347 . S
C123 H128 0.931 . S
C124 N125 1.375 . S
C124 C127 1.350 . S
C124 H129 0.930 . S
N125 Co120 2.057 . S
N125 C123 1.316 . S
N125 C124 1.375 . S
N126 C123 1.347 . S
N126 C127 1.373 . S
C127 C124 1.350 . S
C127 N126 1.373 . S
C127 H148 0.931 . S
H128 C123 0.931 . S
H129 C124 0.930 . S
C130 O137 1.259 . S
C130 O138 1.258 . S
N131 Co122 2.057 . S
N131 C132 1.316 . S
N131 C133 1.375 . S
C132 N131 1.316 . S
C132 N134 1.347 . S
C132 H143 0.931 . S
C133 N131 1.375 . S
C133 C135 1.350 . S
C133 H142 0.930 . S
N134 C132 1.347 . S
N134 C135 1.373 . S
C135 C133 1.350 . S
C135 N134 1.373 . S
C135 H149 0.931 . S
C136 O139 1.256 . S
C136 O140 1.255 . S
O137 Co120 2.021 . S
O137 C130 1.259 . S
O138 Co122 2.117 . S
O138 C130 1.258 . S
O139 Co122 2.020 . S
O139 C136 1.256 . S
O140 Co120 2.062 . S
O140 C136 1.255 . S
O141 C121 1.259 . S
O141 Co122 2.021 . S
H142 C133 0.930 . S
H143 C132 0.931 . S
O144 Co120 2.117 . S
O144 C121 1.258 . S
O145 Co120 2.020 . S
O145 C147 1.256 . S
O146 Co122 2.062 . S
O146 C147 1.255 . S
C147 O145 1.256 . S
C147 O146 1.255 . S
H148 C127 0.931 . S
H149 C135 0.931 . S
Co150 N155 2.057 . S
Co150 O167 2.021 . S
Co150 O170 2.062 . S
Co150 O174 2.117 . S
Co150 O175 2.020 . S
C151 O171 1.259 . S
C151 O174 1.258 . S
Co152 N161 2.057 . S
Co152 O168 2.117 . S
Co152 O169 2.020 . S
Co152 O171 2.021 . S
Co152 O176 2.062 . S
C153 N155 1.316 . S
C153 N156 1.347 . S
C153 H158 0.931 . S
C154 N155 1.375 . S
C154 C157 1.350 . S
C154 H159 0.930 . S
N155 Co150 2.057 . S
N155 C153 1.316 . S
N155 C154 1.375 . S
N156 C153 1.347 . S
N156 C157 1.373 . S
C157 C154 1.350 . S
C157 N156 1.373 . S
C157 H178 0.931 . S
H158 C153 0.931 . S
H159 C154 0.930 . S
C160 O167 1.259 . S
C160 O168 1.258 . S
N161 Co152 2.057 . S
N161 C162 1.316 . S
N161 C163 1.375 . S
C162 N161 1.316 . S
C162 N164 1.347 . S
C162 H173 0.931 . S
C163 N161 1.375 . S
C163 C165 1.350 . S
C163 H172 0.930 . S
N164 C162 1.347 . S
N164 C165 1.373 . S
C165 C163 1.350 . S
C165 N164 1.373 . S
C165 H179 0.931 . S
C166 O169 1.256 . S
C166 O170 1.255 . S
O167 Co150 2.021 . S
O167 C160 1.259 . S
O168 Co152 2.117 . S
O168 C160 1.258 . S
O169 Co152 2.020 . S
O169 C166 1.256 . S
O170 Co150 2.062 . S
O170 C166 1.255 . S
O171 C151 1.259 . S
O171 Co152 2.021 . S
H172 C163 0.930 . S
H173 C162 0.931 . S
O174 Co150 2.117 . S
O174 C151 1.258 . S
O175 Co150 2.020 . S
O175 C177 1.256 . S
O176 Co152 2.062 . S
O176 C177 1.255 . S
C177 O175 1.256 . S
C177 O176 1.255 . S
H178 C157 0.931 . S
H179 C165 0.931 . S
Co180 N185 2.057 . S
Co180 O197 2.021 . S
Co180 O200 2.062 . S
Co180 O204 2.117 . S
Co180 O205 2.020 . S
C181 O201 1.259 . S
C181 O204 1.258 . S
Co182 N191 2.057 . S
Co182 O198 2.117 . S
Co182 O199 2.020 . S
Co182 O201 2.021 . S
Co182 O206 2.062 . S
C183 N185 1.316 . S
C183 N186 1.347 . S
C183 H188 0.931 . S
C184 N185 1.375 . S
C184 C187 1.350 . S
C184 H189 0.930 . S
N185 Co180 2.057 . S
N185 C183 1.316 . S
N185 C184 1.375 . S
N186 C183 1.347 . S
N186 C187 1.373 . S
C187 C184 1.350 . S
C187 N186 1.373 . S
C187 H208 0.931 . S
H188 C183 0.931 . S
H189 C184 0.930 . S
C190 O197 1.259 . S
C190 O198 1.258 . S
N191 Co182 2.057 . S
N191 C192 1.316 . S
N191 C193 1.375 . S
C192 N191 1.316 . S
C192 N194 1.347 . S
C192 H203 0.931 . S
C193 N191 1.375 . S
C193 C195 1.350 . S
C193 H202 0.930 . S
N194 C192 1.347 . S
N194 C195 1.373 . S
C195 C193 1.350 . S
C195 N194 1.373 . S
C195 H209 0.931 . S
C196 O199 1.256 . S
C196 O200 1.255 . S
O197 Co180 2.021 . S
O197 C190 1.259 . S
O198 Co182 2.117 . S
O198 C190 1.258 . S
O199 Co182 2.020 . S
O199 C196 1.256 . S
O200 Co180 2.062 . S
O200 C196 1.255 . S
O201 C181 1.259 . S
O201 Co182 2.021 . S
H202 C193 0.930 . S
H203 C192 0.931 . S
O204 Co180 2.117 . S
O204 C181 1.258 . S
O205 Co180 2.020 . S
O205 C207 1.256 . S
O206 Co182 2.062 . S
O206 C207 1.255 . S
C207 O205 1.256 . S
C207 O206 1.255 . S
H208 C187 0.931 . S
H209 C195 0.931 . S
Co210 N215 2.057 . S
Co210 O227 2.021 . S
Co210 O230 2.062 . S
Co210 O234 2.117 . S
Co210 O235 2.020 . S
C211 O231 1.259 . S
C211 O234 1.258 . S
Co212 N221 2.057 . S
Co212 O228 2.117 . S
Co212 O229 2.020 . S
Co212 O231 2.021 . S
Co212 O236 2.062 . S
C213 N215 1.316 . S
C213 N216 1.347 . S
C213 H218 0.931 . S
C214 N215 1.375 . S
C214 C217 1.350 . S
C214 H219 0.930 . S
N215 Co210 2.057 . S
N215 C213 1.316 . S
N215 C214 1.375 . S
N216 C213 1.347 . S
N216 C217 1.373 . S
C217 C214 1.350 . S
C217 N216 1.373 . S
C217 H238 0.931 . S
H218 C213 0.931 . S
H219 C214 0.930 . S
C220 O227 1.259 . S
C220 O228 1.258 . S
N221 Co212 2.057 . S
N221 C222 1.316 . S
N221 C223 1.375 . S
C222 N221 1.316 . S
C222 N224 1.347 . S
C222 H233 0.931 . S
C223 N221 1.375 . S
C223 C225 1.350 . S
C223 H232 0.930 . S
N224 C222 1.347 . S
N224 C225 1.373 . S
C225 C223 1.350 . S
C225 N224 1.373 . S
C225 H239 0.931 . S
C226 O229 1.256 . S
C226 O230 1.255 . S
O227 Co210 2.021 . S
O227 C220 1.259 . S
O228 Co212 2.117 . S
O228 C220 1.258 . S
O229 Co212 2.020 . S
O229 C226 1.256 . S
O230 Co210 2.062 . S
O230 C226 1.255 . S
O231 C211 1.259 . S
O231 Co212 2.021 . S
H232 C223 0.930 . S
H233 C222 0.931 . S
O234 Co210 2.117 . S
O234 C211 1.258 . S
O235 Co210 2.020 . S
O235 C237 1.256 . S
O236 Co212 2.062 . S
O236 C237 1.255 . S
C237 O235 1.256 . S
C237 O236 1.255 . S
H238 C217 0.931 . S
H239 C225 0.931 . S
Co240 N245 2.057 . S
Co240 O257 2.021 . S
Co240 O260 2.062 . S
Co240 O264 2.117 . S
Co240 O265 2.020 . S
C241 O261 1.259 . S
C241 O264 1.258 . S
Co242 N251 2.057 . S
Co242 O258 2.117 . S
Co242 O259 2.020 . S
Co242 O261 2.021 . S
Co242 O266 2.062 . S
C243 N245 1.316 . S
C243 N246 1.347 . S
C243 H248 0.931 . S
C244 N245 1.375 . S
C244 C247 1.350 . S
C244 H249 0.930 . S
N245 Co240 2.057 . S
N245 C243 1.316 . S
N245 C244 1.375 . S
N246 C243 1.347 . S
N246 C247 1.373 . S
C247 C244 1.350 . S
C247 N246 1.373 . S
C247 H268 0.931 . S
H248 C243 0.931 . S
H249 C244 0.930 . S
C250 O257 1.259 . S
C250 O258 1.258 . S
N251 Co242 2.057 . S
N251 C252 1.316 . S
N251 C253 1.375 . S
C252 N251 1.316 . S
C252 N254 1.347 . S
C252 H263 0.931 . S
C253 N251 1.375 . S
C253 C255 1.350 . S
C253 H262 0.930 . S
N254 C252 1.347 . S
N254 C255 1.373 . S
C255 C253 1.350 . S
C255 N254 1.373 . S
C255 H269 0.931 . S
C256 O259 1.256 . S
C256 O260 1.255 . S
O257 Co240 2.021 . S
O257 C250 1.259 . S
O258 Co242 2.117 . S
O258 C250 1.258 . S
O259 Co242 2.020 . S
O259 C256 1.256 . S
O260 Co240 2.062 . S
O260 C256 1.255 . S
O261 C241 1.259 . S
O261 Co242 2.021 . S
H262 C253 0.930 . S
H263 C252 0.931 . S
O264 Co240 2.117 . S
O264 C241 1.258 . S
O265 Co240 2.020 . S
O265 C267 1.256 . S
O266 Co242 2.062 . S
O266 C267 1.255 . S
C267 O265 1.256 . S
C267 O266 1.255 . S
H268 C247 0.931 . S
H269 C255 0.931 . S
Co270 N275 2.057 . S
Co270 O287 2.021 . S
Co270 O290 2.062 . S
Co270 O294 2.117 1_565 S
Co270 O295 2.020 . S
C271 O291 1.259 . S
C271 O294 1.258 . S
Co272 N281 2.057 . S
Co272 O288 2.117 . S
Co272 O289 2.020 . S
Co272 O291 2.021 . S
Co272 O296 2.062 . S
C273 N275 1.316 . S
C273 N276 1.347 . S
C273 H278 0.931 . S
C274 N275 1.375 . S
C274 C277 1.350 . S
C274 H279 0.930 . S
N275 Co270 2.057 . S
N275 C273 1.316 . S
N275 C274 1.375 . S
N276 C273 1.347 . S
N276 C277 1.373 . S
C277 C274 1.350 . S
C277 N276 1.373 . S
C277 H298 0.931 . S
H278 C273 0.931 . S
H279 C274 0.930 . S
C280 O287 1.259 . S
C280 O288 1.258 1_565 S
N281 Co272 2.057 . S
N281 C282 1.316 . S
N281 C283 1.375 . S
C282 N281 1.316 . S
C282 N284 1.347 . S
C282 H293 0.931 . S
C283 N281 1.375 . S
C283 C285 1.350 . S
C283 H292 0.930 . S
N284 C282 1.347 . S
N284 C285 1.373 . S
C285 C283 1.350 . S
C285 N284 1.373 . S
C285 H299 0.931 . S
C286 O289 1.256 . S
C286 O290 1.255 1_545 S
O287 Co270 2.021 . S
O287 C280 1.259 . S
O288 Co272 2.117 . S
O288 C280 1.258 1_545 S
O289 Co272 2.020 . S
O289 C286 1.256 . S
O290 Co270 2.062 . S
O290 C286 1.255 1_565 S
O291 C271 1.259 . S
O291 Co272 2.021 . S
H292 C283 0.930 . S
H293 C282 0.931 . S
O294 Co270 2.117 1_545 S
O294 C271 1.258 . S
O295 Co270 2.020 . S
O295 C297 1.256 1_565 S
O296 Co272 2.062 . S
O296 C297 1.255 . S
C297 O295 1.256 1_545 S
C297 O296 1.255 . S
H298 C277 0.931 . S
H299 C285 0.931 . S
Co300 N305 2.057 . S
Co300 O317 2.021 . S
Co300 O320 2.062 . S
Co300 O324 2.117 . S
Co300 O325 2.020 . S
C301 O321 1.259 . S
C301 O324 1.258 . S
Co302 N311 2.057 . S
Co302 O318 2.117 . S
Co302 O319 2.020 . S
Co302 O321 2.021 . S
Co302 O326 2.062 . S
C303 N305 1.316 . S
C303 N306 1.347 . S
C303 H308 0.931 . S
C304 N305 1.375 . S
C304 C307 1.350 . S
C304 H309 0.930 . S
N305 Co300 2.057 . S
N305 C303 1.316 . S
N305 C304 1.375 . S
N306 C303 1.347 . S
N306 C307 1.373 . S
C307 C304 1.350 . S
C307 N306 1.373 . S
C307 H328 0.931 . S
H308 C303 0.931 . S
H309 C304 0.930 . S
C310 O317 1.259 . S
C310 O318 1.258 . S
N311 Co302 2.057 . S
N311 C312 1.316 . S
N311 C313 1.375 . S
C312 N311 1.316 . S
C312 N314 1.347 . S
C312 H323 0.931 . S
C313 N311 1.375 . S
C313 C315 1.350 . S
C313 H322 0.930 . S
N314 C312 1.347 . S
N314 C315 1.373 . S
C315 C313 1.350 . S
C315 N314 1.373 . S
C315 H329 0.931 . S
C316 O319 1.256 . S
C316 O320 1.255 . S
O317 Co300 2.021 . S
O317 C310 1.259 . S
O318 Co302 2.117 . S
O318 C310 1.258 . S
O319 Co302 2.020 . S
O319 C316 1.256 . S
O320 Co300 2.062 . S
O320 C316 1.255 . S
O321 C301 1.259 . S
O321 Co302 2.021 . S
H322 C313 0.930 . S
H323 C312 0.931 . S
O324 Co300 2.117 . S
O324 C301 1.258 . S
O325 Co300 2.020 . S
O325 C327 1.256 . S
O326 Co302 2.062 . S
O326 C327 1.255 . S
C327 O325 1.256 . S
C327 O326 1.255 . S
H328 C307 0.931 . S
H329 C315 0.931 . S
Co330 N335 2.057 . S
Co330 O347 2.021 . S
Co330 O350 2.062 . S
Co330 O354 2.117 1_545 S
Co330 O355 2.020 . S
C331 O351 1.259 . S
C331 O354 1.258 . S
Co332 N341 2.057 . S
Co332 O348 2.117 . S
Co332 O349 2.020 . S
Co332 O351 2.021 . S
Co332 O356 2.062 . S
C333 N335 1.316 . S
C333 N336 1.347 . S
C333 H338 0.931 . S
C334 N335 1.375 . S
C334 C337 1.350 . S
C334 H339 0.930 . S
N335 Co330 2.057 . S
N335 C333 1.316 . S
N335 C334 1.375 . S
N336 C333 1.347 . S
N336 C337 1.373 . S
C337 C334 1.350 . S
C337 N336 1.373 . S
C337 H358 0.931 . S
H338 C333 0.931 . S
H339 C334 0.930 . S
C340 O347 1.259 . S
C340 O348 1.258 1_545 S
N341 Co332 2.057 . S
N341 C342 1.316 . S
N341 C343 1.375 . S
C342 N341 1.316 . S
C342 N344 1.347 . S
C342 H353 0.931 . S
C343 N341 1.375 . S
C343 C345 1.350 . S
C343 H352 0.930 . S
N344 C342 1.347 . S
N344 C345 1.373 . S
C345 C343 1.350 . S
C345 N344 1.373 . S
C345 H359 0.931 . S
C346 O349 1.256 . S
C346 O350 1.255 1_565 S
O347 Co330 2.021 . S
O347 C340 1.259 . S
O348 Co332 2.117 . S
O348 C340 1.258 1_565 S
O349 Co332 2.020 . S
O349 C346 1.256 . S
O350 Co330 2.062 . S
O350 C346 1.255 1_545 S
O351 C331 1.259 . S
O351 Co332 2.021 . S
H352 C343 0.930 . S
H353 C342 0.931 . S
O354 Co330 2.117 1_565 S
O354 C331 1.258 . S
O355 Co330 2.020 . S
O355 C357 1.256 1_545 S
O356 Co332 2.062 . S
O356 C357 1.255 . S
C357 O355 1.256 1_565 S
C357 O356 1.255 . S
H358 C337 0.931 . S
H359 C345 0.931 . S
Co360 N365 2.057 . S
Co360 O377 2.021 . S
Co360 O380 2.062 . S
Co360 O384 2.117 . S
Co360 O385 2.020 . S
C361 O381 1.259 . S
C361 O384 1.258 . S
Co362 N371 2.057 . S
Co362 O378 2.117 . S
Co362 O379 2.020 . S
Co362 O381 2.021 . S
Co362 O386 2.062 . S
C363 N365 1.316 . S
C363 N366 1.347 . S
C363 H368 0.931 . S
C364 N365 1.375 . S
C364 C367 1.350 . S
C364 H369 0.930 . S
N365 Co360 2.057 . S
N365 C363 1.316 . S
N365 C364 1.375 . S
N366 C363 1.347 . S
N366 C367 1.373 . S
C367 C364 1.350 . S
C367 N366 1.373 . S
C367 H388 0.931 . S
H368 C363 0.931 . S
H369 C364 0.930 . S
C370 O377 1.259 . S
C370 O378 1.258 . S
N371 Co362 2.057 . S
N371 C372 1.316 . S
N371 C373 1.375 . S
C372 N371 1.316 . S
C372 N374 1.347 . S
C372 H383 0.931 . S
C373 N371 1.375 . S
C373 C375 1.350 . S
C373 H382 0.930 . S
N374 C372 1.347 . S
N374 C375 1.373 . S
C375 C373 1.350 . S
C375 N374 1.373 . S
C375 H389 0.931 . S
C376 O379 1.256 . S
C376 O380 1.255 . S
O377 Co360 2.021 . S
O377 C370 1.259 . S
O378 Co362 2.117 . S
O378 C370 1.258 . S
O379 Co362 2.020 . S
O379 C376 1.256 . S
O380 Co360 2.062 . S
O380 C376 1.255 . S
O381 C361 1.259 . S
O381 Co362 2.021 . S
H382 C373 0.930 . S
H383 C372 0.931 . S
O384 Co360 2.117 . S
O384 C361 1.258 . S
O385 Co360 2.020 . S
O385 C387 1.256 . S
O386 Co362 2.062 . S
O386 C387 1.255 . S
C387 O385 1.256 . S
C387 O386 1.255 . S
H388 C367 0.931 . S
H389 C375 0.931 . S
Co390 N395 2.057 . S
Co390 O407 2.021 . S
Co390 O410 2.062 . S
Co390 O414 2.117 . S
Co390 O415 2.020 . S
C391 O411 1.259 . S
C391 O414 1.258 1_545 S
Co392 N401 2.057 . S
Co392 O408 2.117 1_545 S
Co392 O409 2.020 . S
Co392 O411 2.021 . S
Co392 O416 2.062 . S
C393 N395 1.316 . S
C393 N396 1.347 . S
C393 H398 0.931 . S
C394 N395 1.375 . S
C394 C397 1.350 . S
C394 H399 0.930 . S
N395 Co390 2.057 . S
N395 C393 1.316 . S
N395 C394 1.375 . S
N396 C393 1.347 . S
N396 C397 1.373 . S
C397 C394 1.350 . S
C397 N396 1.373 . S
C397 H418 0.931 . S
H398 C393 0.931 . S
H399 C394 0.930 . S
C400 O407 1.259 . S
C400 O408 1.258 . S
N401 Co392 2.057 . S
N401 C402 1.316 . S
N401 C403 1.375 . S
C402 N401 1.316 . S
C402 N404 1.347 . S
C402 H413 0.931 . S
C403 N401 1.375 . S
C403 C405 1.350 . S
C403 H412 0.930 . S
N404 C402 1.347 . S
N404 C405 1.373 . S
C405 C403 1.350 . S
C405 N404 1.373 . S
C405 H419 0.931 . S
C406 O409 1.256 1_565 S
C406 O410 1.255 . S
O407 Co390 2.021 . S
O407 C400 1.259 . S
O408 Co392 2.117 1_565 S
O408 C400 1.258 . S
O409 Co392 2.020 . S
O409 C406 1.256 1_545 S
O410 Co390 2.062 . S
O410 C406 1.255 . S
O411 C391 1.259 . S
O411 Co392 2.021 . S
H412 C403 0.930 . S
H413 C402 0.931 . S
O414 Co390 2.117 . S
O414 C391 1.258 1_565 S
O415 Co390 2.020 . S
O415 C417 1.256 . S
O416 Co392 2.062 . S
O416 C417 1.255 1_545 S
C417 O415 1.256 . S
C417 O416 1.255 1_565 S
H418 C397 0.931 . S
H419 C405 0.931 . S
Co420 N425 2.057 . S
Co420 O437 2.021 . S
Co420 O440 2.062 . S
Co420 O444 2.117 . S
Co420 O445 2.020 . S
C421 O441 1.259 . S
C421 O444 1.258 . S
Co422 N431 2.057 . S
Co422 O438 2.117 . S
Co422 O439 2.020 . S
Co422 O441 2.021 . S
Co422 O446 2.062 . S
C423 N425 1.316 . S
C423 N426 1.347 . S
C423 H428 0.931 . S
C424 N425 1.375 . S
C424 C427 1.350 . S
C424 H429 0.930 . S
N425 Co420 2.057 . S
N425 C423 1.316 . S
N425 C424 1.375 . S
N426 C423 1.347 . S
N426 C427 1.373 . S
C427 C424 1.350 . S
C427 N426 1.373 . S
C427 H448 0.931 . S
H428 C423 0.931 . S
H429 C424 0.930 . S
C430 O437 1.259 . S
C430 O438 1.258 . S
N431 Co422 2.057 . S
N431 C432 1.316 . S
N431 C433 1.375 . S
C432 N431 1.316 . S
C432 N434 1.347 . S
C432 H443 0.931 . S
C433 N431 1.375 . S
C433 C435 1.350 . S
C433 H442 0.930 . S
N434 C432 1.347 . S
N434 C435 1.373 . S
C435 C433 1.350 . S
C435 N434 1.373 . S
C435 H449 0.931 . S
C436 O439 1.256 . S
C436 O440 1.255 . S
O437 Co420 2.021 . S
O437 C430 1.259 . S
O438 Co422 2.117 . S
O438 C430 1.258 . S
O439 Co422 2.020 . S
O439 C436 1.256 . S
O440 Co420 2.062 . S
O440 C436 1.255 . S
O441 C421 1.259 . S
O441 Co422 2.021 . S
H442 C433 0.930 . S
H443 C432 0.931 . S
O444 Co420 2.117 . S
O444 C421 1.258 . S
O445 Co420 2.020 . S
O445 C447 1.256 . S
O446 Co422 2.062 . S
O446 C447 1.255 . S
C447 O445 1.256 . S
C447 O446 1.255 . S
H448 C427 0.931 . S
H449 C435 0.931 . S
Co450 N455 2.057 . S
Co450 O467 2.021 . S
Co450 O470 2.062 . S
Co450 O474 2.117 . S
Co450 O475 2.020 . S
C451 O471 1.259 . S
C451 O474 1.258 1_565 S
Co452 N461 2.057 . S
Co452 O468 2.117 1_565 S
Co452 O469 2.020 . S
Co452 O471 2.021 . S
Co452 O476 2.062 . S
C453 N455 1.316 . S
C453 N456 1.347 . S
C453 H458 0.931 . S
C454 N455 1.375 . S
C454 C457 1.350 . S
C454 H459 0.930 . S
N455 Co450 2.057 . S
N455 C453 1.316 . S
N455 C454 1.375 . S
N456 C453 1.347 . S
N456 C457 1.373 . S
C457 C454 1.350 . S
C457 N456 1.373 . S
C457 H478 0.931 . S
H458 C453 0.931 . S
H459 C454 0.930 . S
C460 O467 1.259 . S
C460 O468 1.258 . S
N461 Co452 2.057 . S
N461 C462 1.316 . S
N461 C463 1.375 . S
C462 N461 1.316 . S
C462 N464 1.347 . S
C462 H473 0.931 . S
C463 N461 1.375 . S
C463 C465 1.350 . S
C463 H472 0.930 . S
N464 C462 1.347 . S
N464 C465 1.373 . S
C465 C463 1.350 . S
C465 N464 1.373 . S
C465 H479 0.931 . S
C466 O469 1.256 1_545 S
C466 O470 1.255 . S
O467 Co450 2.021 . S
O467 C460 1.259 . S
O468 Co452 2.117 1_545 S
O468 C460 1.258 . S
O469 Co452 2.020 . S
O469 C466 1.256 1_565 S
O470 Co450 2.062 . S
O470 C466 1.255 . S
O471 C451 1.259 . S
O471 Co452 2.021 . S
H472 C463 0.930 . S
H473 C462 0.931 . S
O474 Co450 2.117 . S
O474 C451 1.258 1_545 S
O475 Co450 2.020 . S
O475 C477 1.256 . S
O476 Co452 2.062 . S
O476 C477 1.255 1_565 S
C477 O475 1.256 . S
C477 O476 1.255 1_545 S
H478 C457 0.931 . S
H479 C465 0.931 . S
H480 C492 0.930 . S
H481 C494 0.930 . S
H482 C495 0.930 . S
H483 C499 0.959 . S
H484 C499 0.959 . S
H485 C499 0.961 . S
H486 C500 0.960 . S
H487 C500 0.961 . S
H488 C500 0.959 . S
H489 C503 0.929 . S
H490 C504 0.931 . S
H491 C506 0.930 . S
C492 H480 0.930 . S
C492 C493 1.399 . S
C492 C497 1.399 . S
C493 C492 1.399 . S
C493 C494 1.376 . S
C494 H481 0.930 . S
C494 C493 1.376 . S
C494 C495 1.388 . S
C495 H482 0.930 . S
C495 C494 1.388 . S
C495 C496 1.390 . S
C496 C495 1.390 . S
C496 C497 1.394 . S
C496 C502 1.465 . S
C497 C492 1.399 . S
C497 C496 1.394 . S
C497 C498 1.516 . S
C498 C497 1.516 . S
C498 C499 1.502 . S
C498 C500 1.561 . S
C498 C501 1.526 . S
C499 H483 0.959 . S
C499 H484 0.959 . S
C499 H485 0.961 . S
C499 C498 1.502 . S
C500 H486 0.960 . S
C500 H487 0.961 . S
C500 H488 0.959 . S
C500 C498 1.561 . S
C501 C498 1.526 . S
C501 C502 1.396 . S
C501 C506 1.390 . S
C502 C496 1.465 . S
C502 C501 1.396 . S
C502 C503 1.399 . S
C503 H489 0.929 . S
C503 C502 1.399 . S
C503 C504 1.385 . S
C504 H490 0.931 . S
C504 C503 1.385 . S
C504 C505 1.389 . S
C505 C504 1.389 . S
C505 C506 1.387 . S
C506 H491 0.930 . S
C506 C501 1.390 . S
C506 C505 1.387 . S
H507 C519 0.930 . S
H508 C521 0.930 . S
H509 C522 0.930 . S
H510 C526 0.959 . S
H511 C526 0.959 . S
H512 C526 0.961 . S
H513 C527 0.960 . S
H514 C527 0.961 . S
H515 C527 0.959 . S
H516 C530 0.929 . S
H517 C531 0.931 . S
H518 C533 0.930 . S
C519 H507 0.930 . S
C519 C520 1.399 . S
C519 C524 1.399 . S
C520 C519 1.399 . S
C520 C521 1.376 . S
C521 H508 0.930 . S
C521 C520 1.376 . S
C521 C522 1.388 . S
C522 H509 0.930 . S
C522 C521 1.388 . S
C522 C523 1.390 . S
C523 C522 1.390 . S
C523 C524 1.394 . S
C523 C529 1.465 . S
C524 C519 1.399 . S
C524 C523 1.394 . S
C524 C525 1.516 . S
C525 C524 1.516 . S
C525 C526 1.502 . S
C525 C527 1.561 . S
C525 C528 1.526 . S
C526 H510 0.959 . S
C526 H511 0.959 . S
C526 H512 0.961 . S
C526 C525 1.502 . S
C527 H513 0.960 . S
C527 H514 0.961 . S
C527 H515 0.959 . S
C527 C525 1.561 . S
C528 C525 1.526 . S
C528 C529 1.396 . S
C528 C533 1.390 . S
C529 C523 1.465 . S
C529 C528 1.396 . S
C529 C530 1.399 . S
C530 H516 0.929 . S
C530 C529 1.399 . S
C530 C531 1.385 . S
C531 H517 0.931 . S
C531 C530 1.385 . S
C531 C532 1.389 . S
C532 C531 1.389 . S
C532 C533 1.387 . S
C533 H518 0.930 . S
C533 C528 1.390 . S
C533 C532 1.387 . S
H534 C546 0.930 . S
H535 C548 0.930 . S
H536 C549 0.930 . S
H537 C553 0.959 . S
H538 C553 0.959 . S
H539 C553 0.961 . S
H540 C554 0.960 . S
H541 C554 0.961 . S
H542 C554 0.959 . S
H543 C557 0.929 . S
H544 C558 0.931 . S
H545 C560 0.930 . S
C546 H534 0.930 . S
C546 C547 1.399 . S
C546 C551 1.399 . S
C547 C546 1.399 . S
C547 C548 1.376 . S
C548 H535 0.930 . S
C548 C547 1.376 . S
C548 C549 1.388 . S
C549 H536 0.930 . S
C549 C548 1.388 . S
C549 C550 1.390 . S
C550 C549 1.390 . S
C550 C551 1.394 . S
C550 C556 1.465 . S
C551 C546 1.399 . S
C551 C550 1.394 . S
C551 C552 1.516 . S
C552 C551 1.516 . S
C552 C553 1.502 . S
C552 C554 1.561 . S
C552 C555 1.526 . S
C553 H537 0.959 . S
C553 H538 0.959 . S
C553 H539 0.961 . S
C553 C552 1.502 . S
C554 H540 0.960 . S
C554 H541 0.961 . S
C554 H542 0.959 . S
C554 C552 1.561 . S
C555 C552 1.526 . S
C555 C556 1.396 . S
C555 C560 1.390 . S
C556 C550 1.465 . S
C556 C555 1.396 . S
C556 C557 1.399 . S
C557 H543 0.929 . S
C557 C556 1.399 . S
C557 C558 1.385 . S
C558 H544 0.931 . S
C558 C557 1.385 . S
C558 C559 1.389 . S
C559 C558 1.389 . S
C559 C560 1.387 . S
C560 H545 0.930 . S
C560 C555 1.390 . S
C560 C559 1.387 . S
H561 C573 0.930 . S
H562 C575 0.930 . S
H563 C576 0.930 . S
H564 C580 0.959 . S
H565 C580 0.959 . S
H566 C580 0.961 . S
H567 C581 0.960 . S
H568 C581 0.961 1_455 S
H569 C581 0.959 1_554 S
H570 C584 0.929 . S
H571 C585 0.931 . S
H572 C587 0.930 . S
C573 H561 0.930 . S
C573 C574 1.399 . S
C573 C578 1.399 . S
C574 C573 1.399 . S
C574 C575 1.376 . S
C575 H562 0.930 . S
C575 C574 1.376 . S
C575 C576 1.388 1_556 S
C576 H563 0.930 . S
C576 C575 1.388 1_554 S
C576 C577 1.393 . S
C577 C576 1.393 . S
C577 C578 1.362 1_554 S
C577 C583 1.490 1_655 S
C578 C573 1.399 . S
C578 C577 1.362 1_556 S
C578 C579 1.516 1_655 S
C579 C578 1.516 1_455 S
C579 C580 1.502 . S
C579 C581 1.561 1_455 S
C579 C582 1.526 1_556 S
C580 H564 0.959 . S
C580 H565 0.959 . S
C580 H566 0.961 . S
C580 C579 1.502 . S
C581 H567 0.960 . S
C581 H568 0.961 1_655 S
C581 H569 0.959 1_556 S
C581 C579 1.561 1_655 S
C582 C579 1.526 1_554 S
C582 C583 1.396 . S
C582 C587 1.390 . S
C583 C577 1.490 1_455 S
C583 C582 1.396 . S
C583 C584 1.399 . S
C584 H570 0.929 . S
C584 C583 1.399 . S
C584 C585 1.385 . S
C585 H571 0.931 . S
C585 C584 1.385 . S
C585 C586 1.389 . S
C586 C585 1.389 . S
C586 C587 1.387 . S
C587 H572 0.930 . S
C587 C582 1.390 . S
C587 C586 1.387 . S
H588 C600 0.930 . S
H589 C602 0.930 . S
H590 C603 0.930 . S
H591 C607 0.959 . S
H592 C607 0.959 . S
H593 C607 0.961 . S
H594 C608 0.960 . S
H595 C608 0.961 . S
H596 C608 0.959 . S
H597 C611 0.929 . S
H598 C612 0.931 . S
H599 C614 0.930 . S
C600 H588 0.930 . S
C600 C601 1.399 . S
C600 C605 1.399 . S
C601 C600 1.399 . S
C601 C602 1.376 . S
C602 H589 0.930 . S
C602 C601 1.376 . S
C602 C603 1.388 . S
C603 H590 0.930 . S
C603 C602 1.388 . S
C603 C604 1.390 . S
C604 C603 1.390 . S
C604 C605 1.394 . S
C604 C610 1.465 . S
C605 C600 1.399 . S
C605 C604 1.394 . S
C605 C606 1.516 . S
C606 C605 1.516 . S
C606 C607 1.502 . S
C606 C608 1.561 . S
C606 C609 1.526 . S
C607 H591 0.959 . S
C607 H592 0.959 . S
C607 H593 0.961 . S
C607 C606 1.502 . S
C608 H594 0.960 . S
C608 H595 0.961 . S
C608 H596 0.959 . S
C608 C606 1.561 . S
C609 C606 1.526 . S
C609 C610 1.396 . S
C609 C614 1.390 . S
C610 C604 1.465 . S
C610 C609 1.396 . S
C610 C611 1.399 . S
C611 H597 0.929 . S
C611 C610 1.399 . S
C611 C612 1.385 . S
C612 H598 0.931 . S
C612 C611 1.385 . S
C612 C613 1.389 . S
C613 C612 1.389 . S
C613 C614 1.387 . S
C614 H599 0.930 . S
C614 C609 1.390 . S
C614 C613 1.387 . S
H615 C627 0.930 . S
H616 C629 0.930 . S
H617 C630 0.930 . S
H618 C634 0.959 . S
H619 C634 0.959 . S
H620 C634 0.961 . S
H621 C635 0.960 . S
H622 C635 0.961 . S
H623 C635 0.959 . S
H624 C638 0.929 . S
H625 C639 0.931 . S
H626 C641 0.930 . S
C627 H615 0.930 . S
C627 C628 1.399 . S
C627 C632 1.399 . S
C628 C627 1.399 . S
C628 C629 1.376 . S
C629 H616 0.930 . S
C629 C628 1.376 . S
C629 C630 1.388 . S
C630 H617 0.930 . S
C630 C629 1.388 . S
C630 C631 1.390 . S
C631 C630 1.390 . S
C631 C632 1.394 . S
C631 C637 1.465 . S
C632 C627 1.399 . S
C632 C631 1.394 . S
C632 C633 1.516 . S
C633 C632 1.516 . S
C633 C634 1.502 . S
C633 C635 1.561 . S
C633 C636 1.526 . S
C634 H618 0.959 . S
C634 H619 0.959 . S
C634 H620 0.961 . S
C634 C633 1.502 . S
C635 H621 0.960 . S
C635 H622 0.961 . S
C635 H623 0.959 . S
C635 C633 1.561 . S
C636 C633 1.526 . S
C636 C637 1.396 . S
C636 C641 1.390 . S
C637 C631 1.465 . S
C637 C636 1.396 . S
C637 C638 1.399 . S
C638 H624 0.929 . S
C638 C637 1.399 . S
C638 C639 1.385 . S
C639 H625 0.931 . S
C639 C638 1.385 . S
C639 C640 1.389 . S
C640 C639 1.389 . S
C640 C641 1.387 . S
C641 H626 0.930 . S
C641 C636 1.390 . S
C641 C640 1.387 . S
H642 C654 0.930 . S
H643 C656 0.930 . S
H644 C657 0.927 1_445 S
H645 C661 0.959 . S
H646 C661 0.959 . S
H647 C661 0.961 . S
H648 C662 0.960 . S
H649 C662 0.961 . S
H650 C662 0.959 . S
H651 C665 0.929 . S
H652 C666 0.931 . S
H653 C668 0.930 . S
C654 H642 0.930 . S
C654 C655 1.399 . S
C654 C659 1.399 . S
C655 C654 1.399 . S
C655 C656 1.376 . S
C656 H643 0.930 . S
C656 C655 1.376 . S
C656 C657 1.392 . S
C657 H644 0.927 1_665 S
C657 C656 1.392 . S
C657 C658 1.389 1_565 S
C658 C657 1.389 1_545 S
C658 C659 1.394 1_545 S
C658 C664 1.465 1_655 S
C659 C654 1.399 . S
C659 C658 1.394 1_565 S
C659 C660 1.516 1_554 S
C660 C659 1.516 1_556 S
C660 C661 1.502 . S
C660 C662 1.561 1_565 S
C660 C663 1.526 1_665 S
C661 H645 0.959 . S
C661 H646 0.959 . S
C661 H647 0.961 . S
C661 C660 1.502 . S
C662 H648 0.960 . S
C662 H649 0.961 . S
C662 H650 0.959 . S
C662 C660 1.561 1_545 S
C663 C660 1.526 1_445 S
C663 C664 1.396 1_556 S
C663 C668 1.390 . S
C664 C658 1.465 1_455 S
C664 C663 1.396 1_554 S
C664 C665 1.399 . S
C665 H651 0.929 . S
C665 C664 1.399 . S
C665 C666 1.385 1_554 S
C666 H652 0.931 . S
C666 C665 1.385 1_556 S
C666 C667 1.389 . S
C667 C666 1.389 . S
C667 C668 1.387 . S
C668 H653 0.930 . S
C668 C663 1.390 . S
C668 C667 1.387 . S
H669 C681 0.930 . S
H670 C683 0.930 . S
H671 C684 0.930 . S
H672 C688 0.959 . S
H673 C688 0.959 . S
H674 C688 0.961 . S
H675 C689 0.960 . S
H676 C689 0.961 . S
H677 C689 0.959 . S
H678 C692 0.929 . S
H679 C693 0.931 . S
H680 C695 0.930 . S
C681 H669 0.930 . S
C681 C682 1.399 . S
C681 C686 1.399 . S
C682 C681 1.399 . S
C682 C683 1.376 1_565 S
C683 H670 0.930 . S
C683 C682 1.376 1_545 S
C683 C684 1.388 . S
C684 H671 0.930 . S
C684 C683 1.388 . S
C684 C685 1.390 . S
C685 C684 1.390 . S
C685 C686 1.394 1_545 S
C685 C691 1.465 . S
C686 C681 1.399 . S
C686 C685 1.394 1_565 S
C686 C687 1.516 . S
C687 C686 1.516 . S
C687 C688 1.502 . S
C687 C689 1.561 . S
C687 C690 1.526 . S
C688 H672 0.959 . S
C688 H673 0.959 . S
C688 H674 0.961 . S
C688 C687 1.502 . S
C689 H675 0.960 . S
C689 H676 0.961 . S
C689 H677 0.959 . S
C689 C687 1.561 . S
C690 C687 1.526 . S
C690 C691 1.396 1_565 S
C690 C695 1.390 . S
C691 C685 1.465 . S
C691 C690 1.396 1_545 S
C691 C692 1.399 . S
C692 H678 0.929 . S
C692 C691 1.399 . S
C692 C693 1.385 . S
C693 H679 0.931 . S
C693 C692 1.385 . S
C693 C694 1.389 . S
C694 C693 1.389 . S
C694 C695 1.387 1_545 S
C695 H680 0.930 . S
C695 C690 1.390 . S
C695 C694 1.387 1_565 S
H696 C708 0.930 . S
H697 C710 0.930 . S
H698 C711 0.930 . S
H699 C715 0.959 . S
H700 C715 0.959 . S
H701 C715 0.961 . S
H702 C716 0.960 . S
H703 C716 0.961 . S
H704 C716 0.959 . S
H705 C719 0.929 1_556 S
H706 C720 0.931 . S
H707 C722 0.930 . S
C708 H696 0.930 . S
C708 C709 1.399 . S
C708 C713 1.399 . S
C709 C708 1.399 . S
C709 C710 1.376 . S
C710 H697 0.930 . S
C710 C709 1.376 . S
C710 C711 1.388 . S
C711 H698 0.930 . S
C711 C710 1.388 . S
C711 C712 1.390 . S
C712 C711 1.390 . S
C712 C713 1.394 . S
C712 C718 1.465 1_556 S
C713 C708 1.399 . S
C713 C712 1.394 . S
C713 C714 1.516 1_556 S
C714 C713 1.516 1_554 S
C714 C715 1.502 . S
C714 C716 1.561 . S
C714 C717 1.526 . S
C715 H699 0.959 . S
C715 H700 0.959 . S
C715 H701 0.961 . S
C715 C714 1.502 . S
C716 H702 0.960 . S
C716 H703 0.961 . S
C716 H704 0.959 . S
C716 C714 1.561 . S
C717 C714 1.526 . S
C717 C718 1.396 . S
C717 C722 1.390 . S
C718 C712 1.465 1_554 S
C718 C717 1.396 . S
C718 C719 1.399 . S
C719 H705 0.929 1_554 S
C719 C718 1.399 . S
C719 C720 1.385 . S
C720 H706 0.931 . S
C720 C719 1.385 . S
C720 C721 1.389 . S
C721 C720 1.389 . S
C721 C722 1.387 . S
C722 H707 0.930 . S
C722 C717 1.390 . S
C722 C721 1.387 . S
H723 C735 0.930 . S
H724 C737 0.930 . S
H725 C738 0.930 . S
H726 C742 0.959 . S
H727 C742 0.959 . S
H728 C742 0.961 . S
H729 C743 0.960 . S
H730 C743 0.961 . S
H731 C743 0.959 . S
H732 C746 0.929 . S
H733 C747 0.931 . S
H734 C749 0.930 . S
C735 H723 0.930 . S
C735 C736 1.399 . S
C735 C740 1.399 . S
C736 C735 1.399 . S
C736 C737 1.376 . S
C737 H724 0.930 . S
C737 C736 1.376 . S
C737 C738 1.388 . S
C738 H725 0.930 . S
C738 C737 1.388 . S
C738 C739 1.390 . S
C739 C738 1.390 . S
C739 C740 1.394 . S
C739 C745 1.465 . S
C740 C735 1.399 . S
C740 C739 1.394 . S
C740 C741 1.516 . S
C741 C740 1.516 . S
C741 C742 1.502 . S
C741 C743 1.561 . S
C741 C744 1.526 . S
C742 H726 0.959 . S
C742 H727 0.959 . S
C742 H728 0.961 . S
C742 C741 1.502 . S
C743 H729 0.960 . S
C743 H730 0.961 . S
C743 H731 0.959 . S
C743 C741 1.561 . S
C744 C741 1.526 . S
C744 C745 1.396 . S
C744 C749 1.390 . S
C745 C739 1.465 . S
C745 C744 1.396 . S
C745 C746 1.399 . S
C746 H732 0.929 . S
C746 C745 1.399 . S
C746 C747 1.385 . S
C747 H733 0.931 . S
C747 C746 1.385 . S
C747 C748 1.389 . S
C748 C747 1.389 . S
C748 C749 1.387 . S
C749 H734 0.930 . S
C749 C744 1.390 . S
C749 C748 1.387 . S
H750 C762 0.930 . S
H751 C764 0.930 . S
H752 C765 0.930 . S
H753 C769 0.959 . S
H754 C769 0.959 . S
H755 C769 0.961 . S
H756 C770 0.960 . S
H757 C770 0.961 . S
H758 C770 0.959 . S
H759 C773 0.929 . S
H760 C774 0.931 . S
H761 C776 0.930 . S
C762 H750 0.930 . S
C762 C763 1.399 . S
C762 C767 1.399 . S
C763 C762 1.399 . S
C763 C764 1.376 . S
C764 H751 0.930 . S
C764 C763 1.376 . S
C764 C765 1.388 . S
C765 H752 0.930 . S
C765 C764 1.388 . S
C765 C766 1.390 . S
C766 C765 1.390 . S
C766 C767 1.394 . S
C766 C772 1.465 . S
C767 C762 1.399 . S
C767 C766 1.394 . S
C767 C768 1.516 . S
C768 C767 1.516 . S
C768 C769 1.502 . S
C768 C770 1.561 . S
C768 C771 1.526 . S
C769 H753 0.959 . S
C769 H754 0.959 . S
C769 H755 0.961 . S
C769 C768 1.502 . S
C770 H756 0.960 . S
C770 H757 0.961 . S
C770 H758 0.959 . S
C770 C768 1.561 . S
C771 C768 1.526 . S
C771 C772 1.396 . S
C771 C776 1.390 . S
C772 C766 1.465 . S
C772 C771 1.396 . S
C772 C773 1.399 . S
C773 H759 0.929 . S
C773 C772 1.399 . S
C773 C774 1.385 . S
C774 H760 0.931 . S
C774 C773 1.385 . S
C774 C775 1.389 . S
C775 C774 1.389 . S
C775 C776 1.387 . S
C776 H761 0.930 . S
C776 C771 1.390 . S
C776 C775 1.387 . S
H777 C789 0.930 . S
H778 C791 0.930 . S
H779 C792 0.930 . S
H780 C796 0.959 . S
H781 C796 0.959 . S
H782 C796 0.961 . S
H783 C797 0.960 . S
H784 C797 0.961 . S
H785 C797 0.959 . S
H786 C800 0.929 . S
H787 C801 0.931 . S
H788 C803 0.930 . S
C789 H777 0.930 . S
C789 C790 1.399 . S
C789 C794 1.399 . S
C790 C789 1.399 . S
C790 C791 1.376 . S
C791 H778 0.930 . S
C791 C790 1.376 . S
C791 C792 1.388 . S
C792 H779 0.930 . S
C792 C791 1.388 . S
C792 C793 1.390 . S
C793 C792 1.390 . S
C793 C794 1.394 . S
C793 C799 1.465 . S
C794 C789 1.399 . S
C794 C793 1.394 . S
C794 C795 1.516 . S
C795 C794 1.516 . S
C795 C796 1.502 . S
C795 C797 1.561 . S
C795 C798 1.526 . S
C796 H780 0.959 . S
C796 H781 0.959 . S
C796 H782 0.961 . S
C796 C795 1.502 . S
C797 H783 0.960 . S
C797 H784 0.961 . S
C797 H785 0.959 . S
C797 C795 1.561 . S
C798 C795 1.526 . S
C798 C799 1.396 . S
C798 C803 1.390 . S
C799 C793 1.465 . S
C799 C798 1.396 . S
C799 C800 1.399 . S
C800 H786 0.929 . S
C800 C799 1.399 . S
C800 C801 1.385 . S
C801 H787 0.931 . S
C801 C800 1.385 . S
C801 C802 1.389 . S
C802 C801 1.389 . S
C802 C803 1.387 . S
C803 H788 0.930 . S
C803 C798 1.390 . S
C803 C802 1.387 . S
H804 C816 0.930 . S
H805 C818 0.930 . S
H806 C819 0.930 . S
H807 C823 0.959 . S
H808 C823 0.959 . S
H809 C823 0.961 . S
H810 C824 0.960 . S
H811 C824 0.961 1_556 S
H812 C824 0.959 . S
H813 C827 0.929 . S
H814 C828 0.931 . S
H815 C830 0.930 . S
C816 H804 0.930 . S
C816 C817 1.399 . S
C816 C821 1.399 . S
C817 C816 1.399 . S
C817 C818 1.376 . S
C818 H805 0.930 . S
C818 C817 1.376 . S
C818 C819 1.388 . S
C819 H806 0.930 . S
C819 C818 1.388 . S
C819 C820 1.390 . S
C820 C819 1.390 . S
C820 C821 1.394 . S
C820 C826 1.465 1_554 S
C821 C816 1.399 . S
C821 C820 1.394 . S
C821 C822 1.516 1_554 S
C822 C821 1.516 1_556 S
C822 C823 1.502 . S
C822 C824 1.561 1_556 S
C822 C825 1.526 . S
C823 H807 0.959 . S
C823 H808 0.959 . S
C823 H809 0.961 . S
C823 C822 1.502 . S
C824 H810 0.960 . S
C824 H811 0.961 1_554 S
C824 H812 0.959 . S
C824 C822 1.561 1_554 S
C825 C822 1.526 . S
C825 C826 1.396 . S
C825 C830 1.390 . S
C826 C820 1.465 1_556 S
C826 C825 1.396 . S
C826 C827 1.399 . S
C827 H813 0.929 . S
C827 C826 1.399 . S
C827 C828 1.385 . S
C828 H814 0.931 . S
C828 C827 1.385 . S
C828 C829 1.389 . S
C829 C828 1.389 . S
C829 C830 1.387 . S
C830 H815 0.930 . S
C830 C825 1.390 . S
C830 C829 1.387 . S
H831 C843 0.930 . S
H832 C845 0.930 . S
H833 C846 0.930 . S
H834 C850 0.959 . S
H835 C850 0.959 . S
H836 C850 0.961 . S
H837 C851 0.960 . S
H838 C851 0.961 . S
H839 C851 0.959 . S
H840 C854 0.929 . S
H841 C855 0.931 . S
H842 C857 0.930 . S
C843 H831 0.930 . S
C843 C844 1.399 . S
C843 C848 1.399 . S
C844 C843 1.399 . S
C844 C845 1.376 . S
C845 H832 0.930 . S
C845 C844 1.376 . S
C845 C846 1.388 . S
C846 H833 0.930 . S
C846 C845 1.388 . S
C846 C847 1.390 . S
C847 C846 1.390 . S
C847 C848 1.394 . S
C847 C853 1.465 . S
C848 C843 1.399 . S
C848 C847 1.394 . S
C848 C849 1.516 . S
C849 C848 1.516 . S
C849 C850 1.502 . S
C849 C851 1.561 . S
C849 C852 1.526 . S
C850 H834 0.959 . S
C850 H835 0.959 . S
C850 H836 0.961 . S
C850 C849 1.502 . S
C851 H837 0.960 . S
C851 H838 0.961 . S
C851 H839 0.959 . S
C851 C849 1.561 . S
C852 C849 1.526 . S
C852 C853 1.396 . S
C852 C857 1.390 . S
C853 C847 1.465 . S
C853 C852 1.396 . S
C853 C854 1.399 . S
C854 H840 0.929 . S
C854 C853 1.399 . S
C854 C855 1.385 . S
C855 H841 0.931 . S
C855 C854 1.385 . S
C855 C856 1.389 . S
C856 C855 1.389 . S
C856 C857 1.387 . S
C857 H842 0.930 . S
C857 C852 1.390 . S
C857 C856 1.387 . S
H858 C870 0.930 . S
H859 C872 0.930 . S
H860 C873 0.930 . S
H861 C877 0.959 . S
H862 C877 0.959 . S
H863 C877 0.961 . S
H864 C878 0.960 . S
H865 C878 0.961 . S
H866 C878 0.959 . S
H867 C881 0.929 . S
H868 C882 0.931 . S
H869 C884 0.930 . S
C870 H858 0.930 . S
C870 C871 1.399 . S
C870 C875 1.399 . S
C871 C870 1.399 . S
C871 C872 1.376 . S
C872 H859 0.930 . S
C872 C871 1.376 . S
C872 C873 1.388 . S
C873 H860 0.930 . S
C873 C872 1.388 . S
C873 C874 1.390 . S
C874 C873 1.390 . S
C874 C875 1.394 . S
C874 C880 1.465 . S
C875 C870 1.399 . S
C875 C874 1.394 . S
C875 C876 1.516 . S
C876 C875 1.516 . S
C876 C877 1.502 . S
C876 C878 1.561 . S
C876 C879 1.526 . S
C877 H861 0.959 . S
C877 H862 0.959 . S
C877 H863 0.961 . S
C877 C876 1.502 . S
C878 H864 0.960 . S
C878 H865 0.961 . S
C878 H866 0.959 . S
C878 C876 1.561 . S
C879 C876 1.526 . S
C879 C880 1.396 . S
C879 C884 1.390 . S
C880 C874 1.465 . S
C880 C879 1.396 . S
C880 C881 1.399 . S
C881 H867 0.929 . S
C881 C880 1.399 . S
C881 C882 1.385 . S
C882 H868 0.931 . S
C882 C881 1.385 . S
C882 C883 1.389 . S
C883 C882 1.389 . S
C883 C884 1.387 . S
C884 H869 0.930 . S
C884 C879 1.390 . S
C884 C883 1.387 . S
H885 C897 0.930 . S
H886 C899 0.930 . S
H887 C900 0.930 . S
H888 C904 0.959 . S
H889 C904 0.959 . S
H890 C904 0.961 . S
H891 C905 0.960 . S
H892 C905 0.961 . S
H893 C905 0.959 . S
H894 C908 0.929 . S
H895 C909 0.931 . S
H896 C911 0.930 . S
C897 H885 0.930 . S
C897 C898 1.399 . S
C897 C902 1.399 . S
C898 C897 1.399 . S
C898 C899 1.376 . S
C899 H886 0.930 . S
C899 C898 1.376 . S
C899 C900 1.388 . S
C900 H887 0.930 . S
C900 C899 1.388 . S
C900 C901 1.390 . S
C901 C900 1.390 . S
C901 C902 1.394 . S
C901 C907 1.465 . S
C902 C897 1.399 . S
C902 C901 1.394 . S
C902 C903 1.516 . S
C903 C902 1.516 . S
C903 C904 1.502 . S
C903 C905 1.561 . S
C903 C906 1.526 . S
C904 H888 0.959 . S
C904 H889 0.959 . S
C904 H890 0.961 . S
C904 C903 1.502 . S
C905 H891 0.960 . S
C905 H892 0.961 . S
C905 H893 0.959 . S
C905 C903 1.561 . S
C906 C903 1.526 . S
C906 C907 1.396 . S
C906 C911 1.390 . S
C907 C901 1.465 . S
C907 C906 1.396 . S
C907 C908 1.399 . S
C908 H894 0.929 . S
C908 C907 1.399 . S
C908 C909 1.385 . S
C909 H895 0.931 . S
C909 C908 1.385 . S
C909 C910 1.389 . S
C910 C909 1.389 . S
C910 C911 1.387 . S
C911 H896 0.930 . S
C911 C906 1.390 . S
C911 C910 1.387 . S
H912 C924 0.930 . S
H913 C926 0.930 . S
H914 C927 0.930 . S
H915 C931 0.959 . S
H916 C931 0.959 . S
H917 C931 0.961 . S
H918 C932 0.960 . S
H919 C932 0.961 . S
H920 C932 0.959 . S
H921 C935 0.929 . S
H922 C936 0.931 . S
H923 C938 0.930 . S
C924 H912 0.930 . S
C924 C925 1.399 . S
C924 C929 1.399 . S
C925 C924 1.399 . S
C925 C926 1.376 . S
C926 H913 0.930 . S
C926 C925 1.376 . S
C926 C927 1.388 . S
C927 H914 0.930 . S
C927 C926 1.388 . S
C927 C928 1.390 . S
C928 C927 1.390 . S
C928 C929 1.394 . S
C928 C934 1.465 . S
C929 C924 1.399 . S
C929 C928 1.394 . S
C929 C930 1.516 . S
C930 C929 1.516 . S
C930 C931 1.502 . S
C930 C932 1.561 . S
C930 C933 1.526 . S
C931 H915 0.959 . S
C931 H916 0.959 . S
C931 H917 0.961 . S
C931 C930 1.502 . S
C932 H918 0.960 . S
C932 H919 0.961 . S
C932 H920 0.959 . S
C932 C930 1.561 . S
C933 C930 1.526 . S
C933 C934 1.396 . S
C933 C938 1.390 . S
C934 C928 1.465 . S
C934 C933 1.396 . S
C934 C935 1.399 . S
C935 H921 0.929 . S
C935 C934 1.399 . S
C935 C936 1.385 . S
C936 H922 0.931 . S
C936 C935 1.385 . S
C936 C937 1.389 . S
C937 C936 1.389 . S
C937 C938 1.387 . S
C938 H923 0.930 . S
C938 C933 1.390 . S
C938 C937 1.387 . S
H939 C951 0.930 . S
H940 C953 0.930 . S
H941 C954 0.930 . S
H942 C958 0.959 . S
H943 C958 0.959 . S
H944 C958 0.961 1_545 S
H945 C959 0.960 . S
H946 C959 0.961 . S
H947 C959 0.959 . S
H948 C962 0.929 . S
H949 C963 0.931 . S
H950 C965 0.930 . S
C951 H939 0.930 . S
C951 C952 1.399 . S
C951 C956 1.399 1_545 S
C952 C951 1.399 . S
C952 C953 1.376 1_545 S
C953 H940 0.930 . S
C953 C952 1.376 1_565 S
C953 C954 1.388 . S
C954 H941 0.930 . S
C954 C953 1.388 . S
C954 C955 1.390 . S
C955 C954 1.390 . S
C955 C956 1.394 . S
C955 C961 1.465 . S
C956 C951 1.399 1_565 S
C956 C955 1.394 . S
C956 C957 1.516 . S
C957 C956 1.516 . S
C957 C958 1.502 . S
C957 C959 1.561 1_565 S
C957 C960 1.526 . S
C958 H942 0.959 . S
C958 H943 0.959 . S
C958 H944 0.961 1_565 S
C958 C957 1.502 . S
C959 H945 0.960 . S
C959 H946 0.961 . S
C959 H947 0.959 . S
C959 C957 1.561 1_545 S
C960 C957 1.526 . S
C960 C961 1.396 . S
C960 C965 1.390 . S
C961 C955 1.465 . S
C961 C960 1.396 . S
C961 C962 1.399 . S
C962 H948 0.929 . S
C962 C961 1.399 . S
C962 C963 1.385 . S
C963 H949 0.931 . S
C963 C962 1.385 . S
C963 C964 1.389 . S
C964 C963 1.389 . S
C964 C965 1.387 . S
C965 H950 0.930 . S
C965 C960 1.390 . S
C965 C964 1.387 . S
H966 C978 0.930 . S
H967 C980 0.930 . S
H968 C981 0.930 . S
H969 C985 0.959 . S
H970 C985 0.959 1_556 S
H971 C985 0.961 . S
H972 C986 0.960 . S
H973 C986 0.961 . S
H974 C986 0.959 . S
H975 C989 0.929 . S
H976 C990 0.931 . S
H977 C992 0.930 . S
C978 H966 0.930 . S
C978 C979 1.399 . S
C978 C983 1.399 . S
C979 C978 1.399 . S
C979 C980 1.376 . S
C980 H967 0.930 . S
C980 C979 1.376 . S
C980 C981 1.388 . S
C981 H968 0.930 . S
C981 C980 1.388 . S
C981 C982 1.390 . S
C982 C981 1.390 . S
C982 C983 1.394 . S
C982 C988 1.465 1_554 S
C983 C978 1.399 . S
C983 C982 1.394 . S
C983 C984 1.516 1_554 S
C984 C983 1.516 1_556 S
C984 C985 1.502 1_556 S
C984 C986 1.561 . S
C984 C987 1.526 . S
C985 H969 0.959 . S
C985 H970 0.959 1_554 S
C985 H971 0.961 . S
C985 C984 1.502 1_554 S
C986 H972 0.960 . S
C986 H973 0.961 . S
C986 H974 0.959 . S
C986 C984 1.561 . S
C987 C984 1.526 . S
C987 C988 1.396 . S
C987 C992 1.390 . S
C988 C982 1.465 1_556 S
C988 C987 1.396 . S
C988 C989 1.399 . S
C989 H975 0.929 . S
C989 C988 1.399 . S
C989 C990 1.385 . S
C990 H976 0.931 . S
C990 C989 1.385 . S
C990 C991 1.389 . S
C991 C990 1.389 . S
C991 C992 1.387 . S
C992 H977 0.930 . S
C992 C987 1.390 . S
C992 C991 1.387 . S
H993 C1005 0.930 . S
H994 C1007 0.930 . S
H995 C1008 0.930 1_565 S
H996 C1012 0.959 . S
H997 C1012 0.959 . S
H998 C1012 0.961 . S
H999 C1013 0.960 . S
H1000 C1013 0.961 . S
H1001 C1013 0.959 . S
H1002 C1016 0.929 . S
H1003 C1017 0.931 . S
H1004 C1019 0.930 . S
C1005 H993 0.930 . S
C1005 C1006 1.399 . S
C1005 C1010 1.399 . S
C1006 C1005 1.399 . S
C1006 C1007 1.376 . S
C1007 H994 0.930 . S
C1007 C1006 1.376 . S
C1007 C1008 1.388 . S
C1008 H995 0.930 1_545 S
C1008 C1007 1.388 . S
C1008 C1009 1.390 . S
C1009 C1008 1.390 . S
C1009 C1010 1.394 . S
C1009 C1015 1.465 . S
C1010 C1005 1.399 . S
C1010 C1009 1.394 . S
C1010 C1011 1.516 . S
C1011 C1010 1.516 . S
C1011 C1012 1.502 . S
C1011 C1013 1.561 . S
C1011 C1014 1.526 . S
C1012 H996 0.959 . S
C1012 H997 0.959 . S
C1012 H998 0.961 . S
C1012 C1011 1.502 . S
C1013 H999 0.960 . S
C1013 H1000 0.961 . S
C1013 H1001 0.959 . S
C1013 C1011 1.561 . S
C1014 C1011 1.526 . S
C1014 C1015 1.396 . S
C1014 C1019 1.390 . S
C1015 C1009 1.465 . S
C1015 C1014 1.396 . S
C1015 C1016 1.399 1_545 S
C1016 H1002 0.929 . S
C1016 C1015 1.399 1_565 S
C1016 C1017 1.385 . S
C1017 H1003 0.931 . S
C1017 C1016 1.385 . S
C1017 C1018 1.389 . S
C1018 C1017 1.389 . S
C1018 C1019 1.387 1_565 S
C1019 H1004 0.930 . S
C1019 C1014 1.390 . S
C1019 C1018 1.387 1_545 S
H1020 C1032 0.930 . S
H1021 C1034 0.930 . S
H1022 C1035 0.930 . S
H1023 C1039 0.959 . S
H1024 C1039 0.959 . S
H1025 C1039 0.961 . S
H1026 C1040 0.960 . S
H1027 C1040 0.961 . S
H1028 C1040 0.959 . S
H1029 C1043 0.929 . S
H1030 C1044 0.931 . S
H1031 C1046 0.930 . S
C1032 H1020 0.930 . S
C1032 C1033 1.399 . S
C1032 C1037 1.399 . S
C1033 C1032 1.399 . S
C1033 C1034 1.376 . S
C1034 H1021 0.930 . S
C1034 C1033 1.376 . S
C1034 C1035 1.388 . S
C1035 H1022 0.930 . S
C1035 C1034 1.388 . S
C1035 C1036 1.390 . S
C1036 C1035 1.390 . S
C1036 C1037 1.394 . S
C1036 C1042 1.465 . S
C1037 C1032 1.399 . S
C1037 C1036 1.394 . S
C1037 C1038 1.516 . S
C1038 C1037 1.516 . S
C1038 C1039 1.502 . S
C1038 C1040 1.561 . S
C1038 C1041 1.526 . S
C1039 H1023 0.959 . S
C1039 H1024 0.959 . S
C1039 H1025 0.961 . S
C1039 C1038 1.502 . S
C1040 H1026 0.960 . S
C1040 H1027 0.961 . S
C1040 H1028 0.959 . S
C1040 C1038 1.561 . S
C1041 C1038 1.526 . S
C1041 C1042 1.396 . S
C1041 C1046 1.390 . S
C1042 C1036 1.465 . S
C1042 C1041 1.396 . S
C1042 C1043 1.399 . S
C1043 H1029 0.929 . S
C1043 C1042 1.399 . S
C1043 C1044 1.385 . S
C1044 H1030 0.931 . S
C1044 C1043 1.385 . S
C1044 C1045 1.389 . S
C1045 C1044 1.389 . S
C1045 C1046 1.387 . S
C1046 H1031 0.930 . S
C1046 C1041 1.390 . S
C1046 C1045 1.387 . S
H1047 C1059 0.930 . S
H1048 C1061 0.930 . S
H1049 C1062 0.930 . S
H1050 C1066 0.959 . S
H1051 C1066 0.959 . S
H1052 C1066 0.961 . S
H1053 C1067 0.960 . S
H1054 C1067 0.961 . S
H1055 C1067 0.959 . S
H1056 C1070 0.929 1_565 S
H1057 C1071 0.931 . S
H1058 C1073 0.930 . S
C1059 H1047 0.930 . S
C1059 C1060 1.399 1_545 S
C1059 C1064 1.399 . S
C1060 C1059 1.399 1_565 S
C1060 C1061 1.376 . S
C1061 H1048 0.930 . S
C1061 C1060 1.376 . S
C1061 C1062 1.388 . S
C1062 H1049 0.930 . S
C1062 C1061 1.388 . S
C1062 C1063 1.390 1_565 S
C1063 C1062 1.390 1_545 S
C1063 C1064 1.394 . S
C1063 C1069 1.465 . S
C1064 C1059 1.399 . S
C1064 C1063 1.394 . S
C1064 C1065 1.516 . S
C1065 C1064 1.516 . S
C1065 C1066 1.502 . S
C1065 C1067 1.561 . S
C1065 C1068 1.526 . S
C1066 H1050 0.959 . S
C1066 H1051 0.959 . S
C1066 H1052 0.961 . S
C1066 C1065 1.502 . S
C1067 H1053 0.960 . S
C1067 H1054 0.961 . S
C1067 H1055 0.959 . S
C1067 C1065 1.561 . S
C1068 C1065 1.526 . S
C1068 C1069 1.396 . S
C1068 C1073 1.390 . S
C1069 C1063 1.465 . S
C1069 C1068 1.396 . S
C1069 C1070 1.399 . S
C1070 H1056 0.929 1_545 S
C1070 C1069 1.399 . S
C1070 C1071 1.385 . S
C1071 H1057 0.931 . S
C1071 C1070 1.385 . S
C1071 C1072 1.389 . S
C1072 C1071 1.389 . S
C1072 C1073 1.387 . S
C1073 H1058 0.930 . S
C1073 C1068 1.390 . S
C1073 C1072 1.387 . S
H1074 C1086 0.930 . S
H1075 C1088 0.930 . S
H1076 C1089 0.930 . S
H1077 C1093 0.959 . S
H1078 C1093 0.959 . S
H1079 C1093 0.961 . S
H1080 C1094 0.960 . S
H1081 C1094 0.961 1_556 S
H1082 C1094 0.959 . S
H1083 C1097 0.929 . S
H1084 C1098 0.931 . S
H1085 C1100 0.930 . S
C1086 H1074 0.930 . S
C1086 C1087 1.399 . S
C1086 C1091 1.399 . S
C1087 C1086 1.399 . S
C1087 C1088 1.376 . S
C1088 H1075 0.930 . S
C1088 C1087 1.376 . S
C1088 C1089 1.388 . S
C1089 H1076 0.930 . S
C1089 C1088 1.388 . S
C1089 C1090 1.390 . S
C1090 C1089 1.390 . S
C1090 C1091 1.394 . S
C1090 C1096 1.465 1_554 S
C1091 C1086 1.399 . S
C1091 C1090 1.394 . S
C1091 C1092 1.516 1_554 S
C1092 C1091 1.516 1_556 S
C1092 C1093 1.502 . S
C1092 C1094 1.561 1_556 S
C1092 C1095 1.526 . S
C1093 H1077 0.959 . S
C1093 H1078 0.959 . S
C1093 H1079 0.961 . S
C1093 C1092 1.502 . S
C1094 H1080 0.960 . S
C1094 H1081 0.961 1_554 S
C1094 H1082 0.959 . S
C1094 C1092 1.561 1_554 S
C1095 C1092 1.526 . S
C1095 C1096 1.396 . S
C1095 C1100 1.390 . S
C1096 C1090 1.465 1_556 S
C1096 C1095 1.396 . S
C1096 C1097 1.399 . S
C1097 H1083 0.929 . S
C1097 C1096 1.399 . S
C1097 C1098 1.385 . S
C1098 H1084 0.931 . S
C1098 C1097 1.385 . S
C1098 C1099 1.389 . S
C1099 C1098 1.389 . S
C1099 C1100 1.387 . S
C1100 H1085 0.930 . S
C1100 C1095 1.390 . S
C1100 C1099 1.387 . S
H1101 C1113 0.930 . S
H1102 C1115 0.930 . S
H1103 C1116 0.930 . S
H1104 C1120 0.959 . S
H1105 C1120 0.959 . S
H1106 C1120 0.961 1_545 S
H1107 C1121 0.960 . S
H1108 C1121 0.961 . S
H1109 C1121 0.959 . S
H1110 C1124 0.929 . S
H1111 C1125 0.931 . S
H1112 C1127 0.930 . S
C1113 H1101 0.930 . S
C1113 C1114 1.399 . S
C1113 C1118 1.399 1_545 S
C1114 C1113 1.399 . S
C1114 C1115 1.376 1_545 S
C1115 H1102 0.930 . S
C1115 C1114 1.376 1_565 S
C1115 C1116 1.388 . S
C1116 H1103 0.930 . S
C1116 C1115 1.388 . S
C1116 C1117 1.390 . S
C1117 C1116 1.390 . S
C1117 C1118 1.394 . S
C1117 C1123 1.465 . S
C1118 C1113 1.399 1_565 S
C1118 C1117 1.394 . S
C1118 C1119 1.516 . S
C1119 C1118 1.516 . S
C1119 C1120 1.502 . S
C1119 C1121 1.561 1_565 S
C1119 C1122 1.526 . S
C1120 H1104 0.959 . S
C1120 H1105 0.959 . S
C1120 H1106 0.961 1_565 S
C1120 C1119 1.502 . S
C1121 H1107 0.960 . S
C1121 H1108 0.961 . S
C1121 H1109 0.959 . S
C1121 C1119 1.561 1_545 S
C1122 C1119 1.526 . S
C1122 C1123 1.396 . S
C1122 C1127 1.390 . S
C1123 C1117 1.465 . S
C1123 C1122 1.396 . S
C1123 C1124 1.399 . S
C1124 H1110 0.929 . S
C1124 C1123 1.399 . S
C1124 C1125 1.385 . S
C1125 H1111 0.931 . S
C1125 C1124 1.385 . S
C1125 C1126 1.389 . S
C1126 C1125 1.389 . S
C1126 C1127 1.387 . S
C1127 H1112 0.930 . S
C1127 C1122 1.390 . S
C1127 C1126 1.387 . S
H1128 C1140 0.930 . S
H1129 C1142 0.930 . S
H1130 C1143 0.930 . S
H1131 C1147 0.959 . S
H1132 C1147 0.959 . S
H1133 C1147 0.961 . S
H1134 C1148 0.960 . S
H1135 C1148 0.961 . S
H1136 C1148 0.959 . S
H1137 C1151 0.929 . S
H1138 C1152 0.931 . S
H1139 C1154 0.930 . S
C1140 H1128 0.930 . S
C1140 C1141 1.399 . S
C1140 C1145 1.399 . S
C1141 C1140 1.399 . S
C1141 C1142 1.376 . S
C1142 H1129 0.930 . S
C1142 C1141 1.376 . S
C1142 C1143 1.388 . S
C1143 H1130 0.930 . S
C1143 C1142 1.388 . S
C1143 C1144 1.390 . S
C1144 C1143 1.390 . S
C1144 C1145 1.394 . S
C1144 C1150 1.465 . S
C1145 C1140 1.399 . S
C1145 C1144 1.394 . S
C1145 C1146 1.516 . S
C1146 C1145 1.516 . S
C1146 C1147 1.502 . S
C1146 C1148 1.561 . S
C1146 C1149 1.526 . S
C1147 H1131 0.959 . S
C1147 H1132 0.959 . S
C1147 H1133 0.961 . S
C1147 C1146 1.502 . S
C1148 H1134 0.960 . S
C1148 H1135 0.961 . S
C1148 H1136 0.959 . S
C1148 C1146 1.561 . S
C1149 C1146 1.526 . S
C1149 C1150 1.396 . S
C1149 C1154 1.390 . S
C1150 C1144 1.465 . S
C1150 C1149 1.396 . S
C1150 C1151 1.399 . S
C1151 H1137 0.929 . S
C1151 C1150 1.399 . S
C1151 C1152 1.385 . S
C1152 H1138 0.931 . S
C1152 C1151 1.385 . S
C1152 C1153 1.389 . S
C1153 C1152 1.389 . S
C1153 C1154 1.387 . S
C1154 H1139 0.930 . S
C1154 C1149 1.390 . S
C1154 C1153 1.387 . S
H1155 C1167 0.930 . S
H1156 C1169 0.930 . S
H1157 C1170 0.930 . S
H1158 C1174 0.959 . S
H1159 C1174 0.959 . S
H1160 C1174 0.961 . S
H1161 C1175 0.960 . S
H1162 C1175 0.961 . S
H1163 C1175 0.959 . S
H1164 C1178 0.929 . S
H1165 C1179 0.931 . S
H1166 C1181 0.930 . S
C1167 H1155 0.930 . S
C1167 C1168 1.399 . S
C1167 C1172 1.399 . S
C1168 C1167 1.399 . S
C1168 C1169 1.376 . S
C1169 H1156 0.930 . S
C1169 C1168 1.376 . S
C1169 C1170 1.388 . S
C1170 H1157 0.930 . S
C1170 C1169 1.388 . S
C1170 C1171 1.390 . S
C1171 C1170 1.390 . S
C1171 C1172 1.394 . S
C1171 C1177 1.465 . S
C1172 C1167 1.399 . S
C1172 C1171 1.394 . S
C1172 C1173 1.516 . S
C1173 C1172 1.516 . S
C1173 C1174 1.502 . S
C1173 C1175 1.561 . S
C1173 C1176 1.526 . S
C1174 H1158 0.959 . S
C1174 H1159 0.959 . S
C1174 H1160 0.961 . S
C1174 C1173 1.502 . S
C1175 H1161 0.960 . S
C1175 H1162 0.961 . S
C1175 H1163 0.959 . S
C1175 C1173 1.561 . S
C1176 C1173 1.526 . S
C1176 C1177 1.396 . S
C1176 C1181 1.390 . S
C1177 C1171 1.465 . S
C1177 C1176 1.396 . S
C1177 C1178 1.399 . S
C1178 H1164 0.929 . S
C1178 C1177 1.399 . S
C1178 C1179 1.385 . S
C1179 H1165 0.931 . S
C1179 C1178 1.385 . S
C1179 C1180 1.389 . S
C1180 C1179 1.389 . S
C1180 C1181 1.387 . S
C1181 H1166 0.930 . S
C1181 C1176 1.390 . S
C1181 C1180 1.387 . S
H1182 C1194 0.930 . S
H1183 C1196 0.930 . S
H1184 C1197 0.951 . S
H1185 C1201 0.959 . S
H1186 C1201 0.959 . S
H1187 C1201 0.961 . S
H1188 C1202 0.960 . S
H1189 C1202 0.961 . S
H1190 C1202 0.959 . S
H1191 C1205 0.929 . S
H1192 C1206 0.931 . S
H1193 C1208 0.930 . S
C1194 H1182 0.930 . S
C1194 C1195 1.399 . S
C1194 C1199 1.399 . S
C1195 C1194 1.399 . S
C1195 C1196 1.376 . S
C1196 H1183 0.930 . S
C1196 C1195 1.376 . S
C1196 C1197 1.388 . S
C1197 H1184 0.951 . S
C1197 C1196 1.388 . S
C1197 C1198 1.390 . S
C1198 C1197 1.390 . S
C1198 C1199 1.394 . S
C1198 C1204 1.465 1_655 S
C1199 C1194 1.399 . S
C1199 C1198 1.394 . S
C1199 C1200 1.516 . S
C1200 C1199 1.516 . S
C1200 C1201 1.502 . S
C1200 C1202 1.561 . S
C1200 C1203 1.526 1_655 S
C1201 H1185 0.959 . S
C1201 H1186 0.959 . S
C1201 H1187 0.961 . S
C1201 C1200 1.502 . S
C1202 H1188 0.960 . S
C1202 H1189 0.961 . S
C1202 H1190 0.959 . S
C1202 C1200 1.561 . S
C1203 C1200 1.526 1_455 S
C1203 C1204 1.396 . S
C1203 C1208 1.390 . S
C1204 C1198 1.465 1_455 S
C1204 C1203 1.396 . S
C1204 C1205 1.399 . S
C1205 H1191 0.929 . S
C1205 C1204 1.399 . S
C1205 C1206 1.385 . S
C1206 H1192 0.931 . S
C1206 C1205 1.385 . S
C1206 C1207 1.389 . S
C1207 C1206 1.389 . S
C1207 C1208 1.387 . S
C1208 H1193 0.930 . S
C1208 C1203 1.390 . S
C1208 C1207 1.387 . S
H1209 C1221 0.930 . S
H1210 C1223 0.930 . S
H1211 C1224 0.930 . S
H1212 C1228 0.959 . S
H1213 C1228 0.959 . S
H1214 C1228 0.961 . S
H1215 C1229 0.960 1_655 S
H1216 C1229 0.961 . S
H1217 C1229 0.959 . S
H1218 C1232 0.929 . S
H1219 C1233 0.931 . S
H1220 C1235 0.930 . S
C1221 H1209 0.930 . S
C1221 C1222 1.399 . S
C1221 C1226 1.399 . S
C1222 C1221 1.399 . S
C1222 C1223 1.376 . S
C1223 H1210 0.930 . S
C1223 C1222 1.376 . S
C1223 C1224 1.388 1_655 S
C1224 H1211 0.930 . S
C1224 C1223 1.388 1_455 S
C1224 C1225 1.390 . S
C1225 C1224 1.390 . S
C1225 C1226 1.394 1_455 S
C1225 C1231 1.465 . S
C1226 C1221 1.399 . S
C1226 C1225 1.394 1_655 S
C1226 C1227 1.516 . S
C1227 C1226 1.516 . S
C1227 C1228 1.502 . S
C1227 C1229 1.561 1_655 S
C1227 C1230 1.526 1_655 S
C1228 H1212 0.959 . S
C1228 H1213 0.959 . S
C1228 H1214 0.961 . S
C1228 C1227 1.502 . S
C1229 H1215 0.960 1_455 S
C1229 H1216 0.961 . S
C1229 H1217 0.959 . S
C1229 C1227 1.561 1_455 S
C1230 C1227 1.526 1_455 S
C1230 C1231 1.396 . S
C1230 C1235 1.390 . S
C1231 C1225 1.465 . S
C1231 C1230 1.396 . S
C1231 C1232 1.399 . S
C1232 H1218 0.929 . S
C1232 C1231 1.399 . S
C1232 C1233 1.385 . S
C1233 H1219 0.931 . S
C1233 C1232 1.385 . S
C1233 C1234 1.389 . S
C1234 C1233 1.389 . S
C1234 C1235 1.387 . S
C1235 H1220 0.930 . S
C1235 C1230 1.390 . S
C1235 C1234 1.387 . S
H1236 C1248 0.930 . S
H1237 C1250 0.930 . S
H1238 C1251 0.930 . S
H1239 C1255 0.959 . S
H1240 C1255 0.959 . S
H1241 C1255 0.961 . S
H1242 C1256 0.960 . S
H1243 C1256 0.961 . S
H1244 C1256 0.959 . S
H1245 C1259 0.929 . S
H1246 C1260 0.931 . S
H1247 C1262 0.930 . S
C1248 H1236 0.930 . S
C1248 C1249 1.399 . S
C1248 C1253 1.399 . S
C1249 C1248 1.399 . S
C1249 C1250 1.376 . S
C1250 H1237 0.930 . S
C1250 C1249 1.376 . S
C1250 C1251 1.388 . S
C1251 H1238 0.930 . S
C1251 C1250 1.388 . S
C1251 C1252 1.390 . S
C1252 C1251 1.390 . S
C1252 C1253 1.394 . S
C1252 C1258 1.465 . S
C1253 C1248 1.399 . S
C1253 C1252 1.394 . S
C1253 C1254 1.516 . S
C1254 C1253 1.516 . S
C1254 C1255 1.502 . S
C1254 C1256 1.561 . S
C1254 C1257 1.526 . S
C1255 H1239 0.959 . S
C1255 H1240 0.959 . S
C1255 H1241 0.961 . S
C1255 C1254 1.502 . S
C1256 H1242 0.960 . S
C1256 H1243 0.961 . S
C1256 H1244 0.959 . S
C1256 C1254 1.561 . S
C1257 C1254 1.526 . S
C1257 C1258 1.396 . S
C1257 C1262 1.390 . S
C1258 C1252 1.465 . S
C1258 C1257 1.396 . S
C1258 C1259 1.399 . S
C1259 H1245 0.929 . S
C1259 C1258 1.399 . S
C1259 C1260 1.385 . S
C1260 H1246 0.931 . S
C1260 C1259 1.385 . S
C1260 C1261 1.389 . S
C1261 C1260 1.389 . S
C1261 C1262 1.387 . S
C1262 H1247 0.930 . S
C1262 C1257 1.390 . S
C1262 C1261 1.387 . S
H1263 C1275 0.930 . S
H1264 C1277 0.930 . S
H1265 C1278 0.930 . S
H1266 C1282 0.959 . S
H1267 C1282 0.959 . S
H1268 C1282 0.961 . S
H1269 C1283 0.960 . S
H1270 C1283 0.961 . S
H1271 C1283 0.959 . S
H1272 C1286 0.929 . S
H1273 C1287 0.931 . S
H1274 C1289 0.930 . S
C1275 H1263 0.930 . S
C1275 C1276 1.399 . S
C1275 C1280 1.399 . S
C1276 C1275 1.399 . S
C1276 C1277 1.376 . S
C1277 H1264 0.930 . S
C1277 C1276 1.376 . S
C1277 C1278 1.388 . S
C1278 H1265 0.930 . S
C1278 C1277 1.388 . S
C1278 C1279 1.390 . S
C1279 C1278 1.390 . S
C1279 C1280 1.394 . S
C1279 C1285 1.465 . S
C1280 C1275 1.399 . S
C1280 C1279 1.394 . S
C1280 C1281 1.516 . S
C1281 C1280 1.516 . S
C1281 C1282 1.502 . S
C1281 C1283 1.561 . S
C1281 C1284 1.526 . S
C1282 H1266 0.959 . S
C1282 H1267 0.959 . S
C1282 H1268 0.961 . S
C1282 C1281 1.502 . S
C1283 H1269 0.960 . S
C1283 H1270 0.961 . S
C1283 H1271 0.959 . S
C1283 C1281 1.561 . S
C1284 C1281 1.526 . S
C1284 C1285 1.396 . S
C1284 C1289 1.390 . S
C1285 C1279 1.465 . S
C1285 C1284 1.396 . S
C1285 C1286 1.399 . S
C1286 H1272 0.929 . S
C1286 C1285 1.399 . S
C1286 C1287 1.385 . S
C1287 H1273 0.931 . S
C1287 C1286 1.385 . S
C1287 C1288 1.389 . S
C1288 C1287 1.389 . S
C1288 C1289 1.387 . S
C1289 H1274 0.930 . S
C1289 C1284 1.390 . S
C1289 C1288 1.387 . S
H1290 C1302 0.930 . S
H1291 C1304 0.930 . S
H1292 C1305 0.930 . S
H1293 C1309 0.959 . S
H1294 C1309 0.959 . S
H1295 C1309 0.961 . S
H1296 C1310 0.960 1_455 S
H1297 C1310 0.961 . S
H1298 C1310 0.959 . S
H1299 C1313 0.929 . S
H1300 C1314 0.931 . S
H1301 C1316 0.930 . S
C1302 H1290 0.930 . S
C1302 C1303 1.399 . S
C1302 C1307 1.399 . S
C1303 C1302 1.399 . S
C1303 C1304 1.376 . S
C1304 H1291 0.930 . S
C1304 C1303 1.376 . S
C1304 C1305 1.388 . S
C1305 H1292 0.930 . S
C1305 C1304 1.388 . S
C1305 C1306 1.390 . S
C1306 C1305 1.390 . S
C1306 C1307 1.394 . S
C1306 C1312 1.465 1_455 S
C1307 C1302 1.399 . S
C1307 C1306 1.394 . S
C1307 C1308 1.516 . S
C1308 C1307 1.516 . S
C1308 C1309 1.502 . S
C1308 C1310 1.561 1_455 S
C1308 C1311 1.526 1_455 S
C1309 H1293 0.959 . S
C1309 H1294 0.959 . S
C1309 H1295 0.961 . S
C1309 C1308 1.502 . S
C1310 H1296 0.960 1_655 S
C1310 H1297 0.961 . S
C1310 H1298 0.959 . S
C1310 C1308 1.561 1_655 S
C1311 C1308 1.526 1_655 S
C1311 C1312 1.396 . S
C1311 C1316 1.390 . S
C1312 C1306 1.465 1_655 S
C1312 C1311 1.396 . S
C1312 C1313 1.399 . S
C1313 H1299 0.929 . S
C1313 C1312 1.399 . S
C1313 C1314 1.385 . S
C1314 H1300 0.931 . S
C1314 C1313 1.385 . S
C1314 C1315 1.389 . S
C1315 C1314 1.389 . S
C1315 C1316 1.387 . S
C1316 H1301 0.930 . S
C1316 C1311 1.390 . S
C1316 C1315 1.387 . S
H1317 C1329 0.930 . S
H1318 C1331 0.930 . S
H1319 C1332 0.930 . S
H1320 C1336 0.959 . S
H1321 C1336 0.959 . S
H1322 C1336 0.961 . S
H1323 C1337 0.960 . S
H1324 C1337 0.961 . S
H1325 C1337 0.959 . S
H1326 C1340 0.929 . S
H1327 C1341 0.931 . S
H1328 C1343 0.930 . S
C1329 H1317 0.930 . S
C1329 C1330 1.399 . S
C1329 C1334 1.399 . S
C1330 C1329 1.399 . S
C1330 C1331 1.376 . S
C1331 H1318 0.930 . S
C1331 C1330 1.376 . S
C1331 C1332 1.388 . S
C1332 H1319 0.930 . S
C1332 C1331 1.388 . S
C1332 C1333 1.390 . S
C1333 C1332 1.390 . S
C1333 C1334 1.394 . S
C1333 C1339 1.455 1_455 S
C1334 C1329 1.399 . S
C1334 C1333 1.394 . S
C1334 C1335 1.516 1_455 S
C1335 C1334 1.516 1_655 S
C1335 C1336 1.502 . S
C1335 C1337 1.561 . S
C1335 C1338 1.526 . S
C1336 H1320 0.959 . S
C1336 H1321 0.959 . S
C1336 H1322 0.961 . S
C1336 C1335 1.502 . S
C1337 H1323 0.960 . S
C1337 H1324 0.961 . S
C1337 H1325 0.959 . S
C1337 C1335 1.561 . S
C1338 C1335 1.526 . S
C1338 C1339 1.412 . S
C1338 C1343 1.390 . S
C1339 C1333 1.455 1_655 S
C1339 C1338 1.412 . S
C1339 C1340 1.396 1_655 S
C1340 H1326 0.929 . S
C1340 C1339 1.396 1_455 S
C1340 C1341 1.385 1_455 S
C1341 H1327 0.931 . S
C1341 C1340 1.385 1_655 S
C1341 C1342 1.389 . S
C1342 C1341 1.389 . S
C1342 C1343 1.387 . S
C1343 H1328 0.930 . S
C1343 C1338 1.390 . S
C1343 C1342 1.387 . S
H1344 C1356 0.930 . S
H1345 C1358 0.930 . S
H1346 C1359 0.930 . S
H1347 C1363 0.959 . S
H1348 C1363 0.959 . S
H1349 C1363 0.961 . S
H1350 C1364 0.960 . S
H1351 C1364 0.961 . S
H1352 C1364 0.959 . S
H1353 C1367 0.929 . S
H1354 C1368 0.931 . S
H1355 C1370 0.930 . S
C1356 H1344 0.930 . S
C1356 C1357 1.399 . S
C1356 C1361 1.399 . S
C1357 C1356 1.399 . S
C1357 C1358 1.376 . S
C1358 H1345 0.930 . S
C1358 C1357 1.376 . S
C1358 C1359 1.388 . S
C1359 H1346 0.930 . S
C1359 C1358 1.388 . S
C1359 C1360 1.390 . S
C1360 C1359 1.390 . S
C1360 C1361 1.394 . S
C1360 C1366 1.465 . S
C1361 C1356 1.399 . S
C1361 C1360 1.394 . S
C1361 C1362 1.516 . S
C1362 C1361 1.516 . S
C1362 C1363 1.502 . S
C1362 C1364 1.561 . S
C1362 C1365 1.526 . S
C1363 H1347 0.959 . S
C1363 H1348 0.959 . S
C1363 H1349 0.961 . S
C1363 C1362 1.502 . S
C1364 H1350 0.960 . S
C1364 H1351 0.961 . S
C1364 H1352 0.959 . S
C1364 C1362 1.561 . S
C1365 C1362 1.526 . S
C1365 C1366 1.396 . S
C1365 C1370 1.390 . S
C1366 C1360 1.465 . S
C1366 C1365 1.396 . S
C1366 C1367 1.399 . S
C1367 H1353 0.929 . S
C1367 C1366 1.399 . S
C1367 C1368 1.385 . S
C1368 H1354 0.931 . S
C1368 C1367 1.385 . S
C1368 C1369 1.389 . S
C1369 C1368 1.389 . S
C1369 C1370 1.387 . S
C1370 H1355 0.930 . S
C1370 C1365 1.390 . S
C1370 C1369 1.387 . S
H1371 C1383 0.930 . S
H1372 C1385 0.930 . S
H1373 C1386 0.930 . S
H1374 C1390 0.959 . S
H1375 C1390 0.959 . S
H1376 C1390 0.961 . S
H1377 C1391 0.960 . S
H1378 C1391 0.961 . S
H1379 C1391 0.959 . S
H1380 C1394 0.929 . S
H1381 C1395 0.931 . S
H1382 C1397 0.930 . S
C1383 H1371 0.930 . S
C1383 C1384 1.399 . S
C1383 C1388 1.399 . S
C1384 C1383 1.399 . S
C1384 C1385 1.376 . S
C1385 H1372 0.930 . S
C1385 C1384 1.376 . S
C1385 C1386 1.388 . S
C1386 H1373 0.930 . S
C1386 C1385 1.388 . S
C1386 C1387 1.390 . S
C1387 C1386 1.390 . S
C1387 C1388 1.394 . S
C1387 C1393 1.465 . S
C1388 C1383 1.399 . S
C1388 C1387 1.394 . S
C1388 C1389 1.516 . S
C1389 C1388 1.516 . S
C1389 C1390 1.502 . S
C1389 C1391 1.561 . S
C1389 C1392 1.526 . S
C1390 H1374 0.959 . S
C1390 H1375 0.959 . S
C1390 H1376 0.961 . S
C1390 C1389 1.502 . S
C1391 H1377 0.960 . S
C1391 H1378 0.961 . S
C1391 H1379 0.959 . S
C1391 C1389 1.561 . S
C1392 C1389 1.526 . S
C1392 C1393 1.396 . S
C1392 C1397 1.390 . S
C1393 C1387 1.465 . S
C1393 C1392 1.396 . S
C1393 C1394 1.399 . S
C1394 H1380 0.929 . S
C1394 C1393 1.399 . S
C1394 C1395 1.385 . S
C1395 H1381 0.931 . S
C1395 C1394 1.385 . S
C1395 C1396 1.389 . S
C1396 C1395 1.389 . S
C1396 C1397 1.387 . S
C1397 H1382 0.930 . S
C1397 C1392 1.390 . S
C1397 C1396 1.387 . S
H1398 C1410 0.930 . S
H1399 C1412 0.930 . S
H1400 C1413 0.930 . S
H1401 C1417 0.959 . S
H1402 C1417 0.959 . S
H1403 C1417 0.961 . S
H1404 C1418 0.960 . S
H1405 C1418 0.961 . S
H1406 C1418 0.959 . S
H1407 C1421 0.929 . S
H1408 C1422 0.931 . S
H1409 C1424 0.930 . S
C1410 H1398 0.930 . S
C1410 C1411 1.399 . S
C1410 C1415 1.399 . S
C1411 C1410 1.399 . S
C1411 C1412 1.376 . S
C1412 H1399 0.930 . S
C1412 C1411 1.376 . S
C1412 C1413 1.388 . S
C1413 H1400 0.930 . S
C1413 C1412 1.388 . S
C1413 C1414 1.390 . S
C1414 C1413 1.390 . S
C1414 C1415 1.394 . S
C1414 C1420 1.465 . S
C1415 C1410 1.399 . S
C1415 C1414 1.394 . S
C1415 C1416 1.516 . S
C1416 C1415 1.516 . S
C1416 C1417 1.502 . S
C1416 C1418 1.561 . S
C1416 C1419 1.526 . S
C1417 H1401 0.959 . S
C1417 H1402 0.959 . S
C1417 H1403 0.961 . S
C1417 C1416 1.502 . S
C1418 H1404 0.960 . S
C1418 H1405 0.961 . S
C1418 H1406 0.959 . S
C1418 C1416 1.561 . S
C1419 C1416 1.526 . S
C1419 C1420 1.396 . S
C1419 C1424 1.390 . S
C1420 C1414 1.465 . S
C1420 C1419 1.396 . S
C1420 C1421 1.399 . S
C1421 H1407 0.929 . S
C1421 C1420 1.399 . S
C1421 C1422 1.385 . S
C1422 H1408 0.931 . S
C1422 C1421 1.385 . S
C1422 C1423 1.389 . S
C1423 C1422 1.389 . S
C1423 C1424 1.387 . S
C1424 H1409 0.930 . S
C1424 C1419 1.390 . S
C1424 C1423 1.387 . S
H1425 C1437 0.929 1_455 S
H1426 C1439 0.930 . S
H1427 C1440 0.930 . S
H1428 C1444 0.959 . S
H1429 C1444 0.959 . S
H1430 C1444 0.961 . S
H1431 C1445 0.960 . S
H1432 C1445 0.961 . S
H1433 C1445 0.959 . S
H1434 C1448 0.929 . S
H1435 C1449 0.931 . S
H1436 C1451 0.930 . S
C1437 H1425 0.929 1_655 S
C1437 C1438 1.406 . S
C1437 C1442 1.393 1_655 S
C1438 C1437 1.406 . S
C1438 C1439 1.376 . S
C1439 H1426 0.930 . S
C1439 C1438 1.376 . S
C1439 C1440 1.388 . S
C1440 H1427 0.930 . S
C1440 C1439 1.388 . S
C1440 C1441 1.390 1_655 S
C1441 C1440 1.390 1_455 S
C1441 C1442 1.394 . S
C1441 C1447 1.465 . S
C1442 C1437 1.393 1_455 S
C1442 C1441 1.394 . S
C1442 C1443 1.516 . S
C1443 C1442 1.516 . S
C1443 C1444 1.502 . S
C1443 C1445 1.561 . S
C1443 C1446 1.526 . S
C1444 H1428 0.959 . S
C1444 H1429 0.959 . S
C1444 H1430 0.961 . S
C1444 C1443 1.502 . S
C1445 H1431 0.960 . S
C1445 H1432 0.961 . S
C1445 H1433 0.959 . S
C1445 C1443 1.561 . S
C1446 C1443 1.526 . S
C1446 C1447 1.396 . S
C1446 C1451 1.390 . S
C1447 C1441 1.465 . S
C1447 C1446 1.396 . S
C1447 C1448 1.399 . S
C1448 H1434 0.929 . S
C1448 C1447 1.399 . S
C1448 C1449 1.385 . S
C1449 H1435 0.931 . S
C1449 C1448 1.385 . S
C1449 C1450 1.389 . S
C1450 C1449 1.389 . S
C1450 C1451 1.387 . S
C1451 H1436 0.930 . S
C1451 C1446 1.390 . S
C1451 C1450 1.387 . S
H1452 C1464 0.930 . S
H1453 C1466 0.930 . S
H1454 C1467 0.930 . S
H1455 C1471 0.959 . S
H1456 C1471 0.959 . S
H1457 C1471 0.961 . S
H1458 C1472 0.960 . S
H1459 C1472 0.961 . S
H1460 C1472 0.959 . S
H1461 C1475 0.929 . S
H1462 C1476 0.931 . S
H1463 C1478 0.930 . S
C1464 H1452 0.930 . S
C1464 C1465 1.399 . S
C1464 C1469 1.399 . S
C1465 C1464 1.399 . S
C1465 C1466 1.376 . S
C1466 H1453 0.930 . S
C1466 C1465 1.376 . S
C1466 C1467 1.388 . S
C1467 H1454 0.930 . S
C1467 C1466 1.388 . S
C1467 C1468 1.390 . S
C1468 C1467 1.390 . S
C1468 C1469 1.394 . S
C1468 C1474 1.465 . S
C1469 C1464 1.399 . S
C1469 C1468 1.394 . S
C1469 C1470 1.516 . S
C1470 C1469 1.516 . S
C1470 C1471 1.502 . S
C1470 C1472 1.561 . S
C1470 C1473 1.526 . S
C1471 H1455 0.959 . S
C1471 H1456 0.959 . S
C1471 H1457 0.961 . S
C1471 C1470 1.502 . S
C1472 H1458 0.960 . S
C1472 H1459 0.961 . S
C1472 H1460 0.959 . S
C1472 C1470 1.561 . S
C1473 C1470 1.526 . S
C1473 C1474 1.396 . S
C1473 C1478 1.390 . S
C1474 C1468 1.465 . S
C1474 C1473 1.396 . S
C1474 C1475 1.399 . S
C1475 H1461 0.929 . S
C1475 C1474 1.399 . S
C1475 C1476 1.385 . S
C1476 H1462 0.931 . S
C1476 C1475 1.385 . S
C1476 C1477 1.389 . S
C1477 C1476 1.389 . S
C1477 C1478 1.387 . S
C1478 H1463 0.930 . S
C1478 C1473 1.390 . S
C1478 C1477 1.387 . S
H1479 C1491 0.930 . S
H1480 C1493 0.930 . S
H1481 C1494 0.930 . S
H1482 C1498 0.959 . S
H1483 C1498 0.959 . S
H1484 C1498 0.961 . S
H1485 C1499 0.960 . S
H1486 C1499 0.961 . S
H1487 C1499 0.959 . S
H1488 C1502 0.929 . S
H1489 C1503 0.931 . S
H1490 C1505 0.930 . S
C1491 H1479 0.930 . S
C1491 C1492 1.399 . S
C1491 C1496 1.399 . S
C1492 C1491 1.399 . S
C1492 C1493 1.376 . S
C1493 H1480 0.930 . S
C1493 C1492 1.376 . S
C1493 C1494 1.388 . S
C1494 H1481 0.930 . S
C1494 C1493 1.388 . S
C1494 C1495 1.390 . S
C1495 C1494 1.390 . S
C1495 C1496 1.394 . S
C1495 C1501 1.465 . S
C1496 C1491 1.399 . S
C1496 C1495 1.394 . S
C1496 C1497 1.516 . S
C1497 C1496 1.516 . S
C1497 C1498 1.502 . S
C1497 C1499 1.561 . S
C1497 C1500 1.526 . S
C1498 H1482 0.959 . S
C1498 H1483 0.959 . S
C1498 H1484 0.961 . S
C1498 C1497 1.502 . S
C1499 H1485 0.960 . S
C1499 H1486 0.961 . S
C1499 H1487 0.959 . S
C1499 C1497 1.561 . S
C1500 C1497 1.526 . S
C1500 C1501 1.396 . S
C1500 C1505 1.390 . S
C1501 C1495 1.465 . S
C1501 C1500 1.396 . S
C1501 C1502 1.399 . S
C1502 H1488 0.929 . S
C1502 C1501 1.399 . S
C1502 C1503 1.385 . S
C1503 H1489 0.931 . S
C1503 C1502 1.385 . S
C1503 C1504 1.389 . S
C1504 C1503 1.389 . S
C1504 C1505 1.387 . S
C1505 H1490 0.930 . S
C1505 C1500 1.390 . S
C1505 C1504 1.387 . S
H1506 C1518 0.930 . S
H1507 C1520 0.930 . S
H1508 C1521 0.930 . S
H1509 C1525 0.959 . S
H1510 C1525 0.959 . S
H1511 C1525 0.961 . S
H1512 C1526 0.960 . S
H1513 C1526 0.961 . S
H1514 C1526 0.959 . S
H1515 C1529 0.929 . S
H1516 C1530 0.931 . S
H1517 C1532 0.930 . S
C1518 H1506 0.930 . S
C1518 C1519 1.399 . S
C1518 C1523 1.399 . S
C1519 C1518 1.399 . S
C1519 C1520 1.376 . S
C1520 H1507 0.930 . S
C1520 C1519 1.376 . S
C1520 C1521 1.388 . S
C1521 H1508 0.930 . S
C1521 C1520 1.388 . S
C1521 C1522 1.390 . S
C1522 C1521 1.390 . S
C1522 C1523 1.394 . S
C1522 C1528 1.465 . S
C1523 C1518 1.399 . S
C1523 C1522 1.394 . S
C1523 C1524 1.516 . S
C1524 C1523 1.516 . S
C1524 C1525 1.502 . S
C1524 C1526 1.561 . S
C1524 C1527 1.526 . S
C1525 H1509 0.959 . S
C1525 H1510 0.959 . S
C1525 H1511 0.961 . S
C1525 C1524 1.502 . S
C1526 H1512 0.960 . S
C1526 H1513 0.961 . S
C1526 H1514 0.959 . S
C1526 C1524 1.561 . S
C1527 C1524 1.526 . S
C1527 C1528 1.396 . S
C1527 C1532 1.390 . S
C1528 C1522 1.465 . S
C1528 C1527 1.396 . S
C1528 C1529 1.399 . S
C1529 H1515 0.929 . S
C1529 C1528 1.399 . S
C1529 C1530 1.385 . S
C1530 H1516 0.931 . S
C1530 C1529 1.385 . S
C1530 C1531 1.389 . S
C1531 C1530 1.389 . S
C1531 C1532 1.387 . S
C1532 H1517 0.930 . S
C1532 C1527 1.390 . S
C1532 C1531 1.387 . S
H1533 C1545 0.930 . S
H1534 C1547 0.930 . S
H1535 C1548 0.930 . S
H1536 C1552 0.959 . S
H1537 C1552 0.959 . S
H1538 C1552 0.961 . S
H1539 C1553 0.960 . S
H1540 C1553 0.961 . S
H1541 C1553 0.959 . S
H1542 C1556 0.929 . S
H1543 C1557 0.931 . S
H1544 C1559 0.930 . S
C1545 H1533 0.930 . S
C1545 C1546 1.399 . S
C1545 C1550 1.399 . S
C1546 C1545 1.399 . S
C1546 C1547 1.376 . S
C1547 H1534 0.930 . S
C1547 C1546 1.376 . S
C1547 C1548 1.388 . S
C1548 H1535 0.930 . S
C1548 C1547 1.388 . S
C1548 C1549 1.390 . S
C1549 C1548 1.390 . S
C1549 C1550 1.394 . S
C1549 C1555 1.465 . S
C1550 C1545 1.399 . S
C1550 C1549 1.394 . S
C1550 C1551 1.516 . S
C1551 C1550 1.516 . S
C1551 C1552 1.502 . S
C1551 C1553 1.561 . S
C1551 C1554 1.526 . S
C1552 H1536 0.959 . S
C1552 H1537 0.959 . S
C1552 H1538 0.961 . S
C1552 C1551 1.502 . S
C1553 H1539 0.960 . S
C1553 H1540 0.961 . S
C1553 H1541 0.959 . S
C1553 C1551 1.561 . S
C1554 C1551 1.526 . S
C1554 C1555 1.396 . S
C1554 C1559 1.390 1_655 S
C1555 C1549 1.465 . S
C1555 C1554 1.396 . S
C1555 C1556 1.399 . S
C1556 H1542 0.929 . S
C1556 C1555 1.399 . S
C1556 C1557 1.385 1_655 S
C1557 H1543 0.931 . S
C1557 C1556 1.385 1_455 S
C1557 C1558 1.389 . S
C1558 C1557 1.389 . S
C1558 C1559 1.387 . S
C1559 H1544 0.930 . S
C1559 C1554 1.390 1_455 S
C1559 C1558 1.387 . S
H1560 C1572 0.930 . S
H1561 C1574 0.930 . S
H1562 C1575 0.930 . S
H1563 C1579 0.959 . S
H1564 C1579 0.959 . S
H1565 C1579 0.961 . S
H1566 C1580 0.960 . S
H1567 C1580 0.961 . S
H1568 C1580 0.959 . S
H1569 C1583 0.929 . S
H1570 C1584 0.931 . S
H1571 C1586 0.930 . S
C1572 H1560 0.930 . S
C1572 C1573 1.399 . S
C1572 C1577 1.399 . S
C1573 C1572 1.399 . S
C1573 C1574 1.376 . S
C1574 H1561 0.930 . S
C1574 C1573 1.376 . S
C1574 C1575 1.388 . S
C1575 H1562 0.930 . S
C1575 C1574 1.388 . S
C1575 C1576 1.390 . S
C1576 C1575 1.390 . S
C1576 C1577 1.394 . S
C1576 C1582 1.465 . S
C1577 C1572 1.399 . S
C1577 C1576 1.394 . S
C1577 C1578 1.516 . S
C1578 C1577 1.516 . S
C1578 C1579 1.502 . S
C1578 C1580 1.561 . S
C1578 C1581 1.526 . S
C1579 H1563 0.959 . S
C1579 H1564 0.959 . S
C1579 H1565 0.961 . S
C1579 C1578 1.502 . S
C1580 H1566 0.960 . S
C1580 H1567 0.961 . S
C1580 H1568 0.959 . S
C1580 C1578 1.561 . S
C1581 C1578 1.526 . S
C1581 C1582 1.396 . S
C1581 C1586 1.390 . S
C1582 C1576 1.465 . S
C1582 C1581 1.396 . S
C1582 C1583 1.399 . S
C1583 H1569 0.929 . S
C1583 C1582 1.399 . S
C1583 C1584 1.385 . S
C1584 H1570 0.931 . S
C1584 C1583 1.385 . S
C1584 C1585 1.389 . S
C1585 C1584 1.389 . S
C1585 C1586 1.387 . S
C1586 H1571 0.930 . S
C1586 C1581 1.390 . S
C1586 C1585 1.387 . S
H1587 C1599 0.930 . S
H1588 C1601 0.930 . S
H1589 C1602 0.930 . S
H1590 C1606 0.959 . S
H1591 C1606 0.959 . S
H1592 C1606 0.961 . S
H1593 C1607 0.960 . S
H1594 C1607 0.961 . S
H1595 C1607 0.959 . S
H1596 C1610 0.929 . S
H1597 C1611 0.931 1_545 S
H1598 C1613 0.930 . S
C1599 H1587 0.930 . S
C1599 C1600 1.399 . S
C1599 C1604 1.399 . S
C1600 C1599 1.399 . S
C1600 C1601 1.376 . S
C1601 H1588 0.930 . S
C1601 C1600 1.376 . S
C1601 C1602 1.388 . S
C1602 H1589 0.930 . S
C1602 C1601 1.388 . S
C1602 C1603 1.390 . S
C1603 C1602 1.390 . S
C1603 C1604 1.394 . S
C1603 C1609 1.465 . S
C1604 C1599 1.399 . S
C1604 C1603 1.394 . S
C1604 C1605 1.516 . S
C1605 C1604 1.516 . S
C1605 C1606 1.502 . S
C1605 C1607 1.561 . S
C1605 C1608 1.526 . S
C1606 H1590 0.959 . S
C1606 H1591 0.959 . S
C1606 H1592 0.961 . S
C1606 C1605 1.502 . S
C1607 H1593 0.960 . S
C1607 H1594 0.961 . S
C1607 H1595 0.959 . S
C1607 C1605 1.561 . S
C1608 C1605 1.526 . S
C1608 C1609 1.396 . S
C1608 C1613 1.390 1_655 S
C1609 C1603 1.465 . S
C1609 C1608 1.396 . S
C1609 C1610 1.399 . S
C1610 H1596 0.929 . S
C1610 C1609 1.399 . S
C1610 C1611 1.385 1_655 S
C1611 H1597 0.931 1_565 S
C1611 C1610 1.385 1_455 S
C1611 C1612 1.389 . S
C1612 C1611 1.389 . S
C1612 C1613 1.387 . S
C1613 H1598 0.930 . S
C1613 C1608 1.390 1_455 S
C1613 C1612 1.387 . S
H1614 C1626 0.930 . S
H1615 C1628 0.930 . S
H1616 C1629 0.930 . S
H1617 C1633 0.959 . S
H1618 C1633 0.959 . S
H1619 C1633 0.961 . S
H1620 C1634 0.960 . S
H1621 C1634 0.961 . S
H1622 C1634 0.959 . S
H1623 C1637 0.929 . S
H1624 C1638 0.931 . S
H1625 C1640 0.930 . S
C1626 H1614 0.930 . S
C1626 C1627 1.399 . S
C1626 C1631 1.399 . S
C1627 C1626 1.399 . S
C1627 C1628 1.376 . S
C1628 H1615 0.930 . S
C1628 C1627 1.376 . S
C1628 C1629 1.388 . S
C1629 H1616 0.930 . S
C1629 C1628 1.388 . S
C1629 C1630 1.390 . S
C1630 C1629 1.390 . S
C1630 C1631 1.394 . S
C1630 C1636 1.465 . S
C1631 C1626 1.399 . S
C1631 C1630 1.394 . S
C1631 C1632 1.516 . S
C1632 C1631 1.516 . S
C1632 C1633 1.502 . S
C1632 C1634 1.561 . S
C1632 C1635 1.526 . S
C1633 H1617 0.959 . S
C1633 H1618 0.959 . S
C1633 H1619 0.961 . S
C1633 C1632 1.502 . S
C1634 H1620 0.960 . S
C1634 H1621 0.961 . S
C1634 H1622 0.959 . S
C1634 C1632 1.561 . S
C1635 C1632 1.526 . S
C1635 C1636 1.396 . S
C1635 C1640 1.390 . S
C1636 C1630 1.465 . S
C1636 C1635 1.396 . S
C1636 C1637 1.399 . S
C1637 H1623 0.929 . S
C1637 C1636 1.399 . S
C1637 C1638 1.385 . S
C1638 H1624 0.931 . S
C1638 C1637 1.385 . S
C1638 C1639 1.389 . S
C1639 C1638 1.389 . S
C1639 C1640 1.387 . S
C1640 H1625 0.930 . S
C1640 C1635 1.390 . S
C1640 C1639 1.387 . S
H1641 C1653 0.930 . S
H1642 C1655 0.930 . S
H1643 C1656 0.930 . S
H1644 C1660 0.959 . S
H1645 C1660 0.959 . S
H1646 C1660 0.961 . S
H1647 C1661 0.960 . S
H1648 C1661 0.961 . S
H1649 C1661 0.959 . S
H1650 C1664 0.929 . S
H1651 C1665 0.931 . S
H1652 C1667 0.930 . S
C1653 H1641 0.930 . S
C1653 C1654 1.399 . S
C1653 C1658 1.399 . S
C1654 C1653 1.399 . S
C1654 C1655 1.376 . S
C1655 H1642 0.930 . S
C1655 C1654 1.376 . S
C1655 C1656 1.388 . S
C1656 H1643 0.930 . S
C1656 C1655 1.388 . S
C1656 C1657 1.390 . S
C1657 C1656 1.390 . S
C1657 C1658 1.394 . S
C1657 C1663 1.465 . S
C1658 C1653 1.399 . S
C1658 C1657 1.394 . S
C1658 C1659 1.516 . S
C1659 C1658 1.516 . S
C1659 C1660 1.502 . S
C1659 C1661 1.561 . S
C1659 C1662 1.526 . S
C1660 H1644 0.959 . S
C1660 H1645 0.959 . S
C1660 H1646 0.961 . S
C1660 C1659 1.502 . S
C1661 H1647 0.960 . S
C1661 H1648 0.961 . S
C1661 H1649 0.959 . S
C1661 C1659 1.561 . S
C1662 C1659 1.526 . S
C1662 C1663 1.396 . S
C1662 C1667 1.390 . S
C1663 C1657 1.465 . S
C1663 C1662 1.396 . S
C1663 C1664 1.399 . S
C1664 H1650 0.929 . S
C1664 C1663 1.399 . S
C1664 C1665 1.385 . S
C1665 H1651 0.931 . S
C1665 C1664 1.385 . S
C1665 C1666 1.389 . S
C1666 C1665 1.389 . S
C1666 C1667 1.387 . S
C1667 H1652 0.930 . S
C1667 C1662 1.390 . S
C1667 C1666 1.387 . S
H1668 C1680 0.930 . S
H1669 C1682 0.930 . S
H1670 C1683 0.930 . S
H1671 C1687 0.959 . S
H1672 C1687 0.959 . S
H1673 C1687 0.961 . S
H1674 C1688 0.960 . S
H1675 C1688 0.961 . S
H1676 C1688 0.959 . S
H1677 C1691 0.929 . S
H1678 C1692 0.931 . S
H1679 C1694 0.930 . S
C1680 H1668 0.930 . S
C1680 C1681 1.399 . S
C1680 C1685 1.399 . S
C1681 C1680 1.399 . S
C1681 C1682 1.376 . S
C1682 H1669 0.930 . S
C1682 C1681 1.376 . S
C1682 C1683 1.388 . S
C1683 H1670 0.930 . S
C1683 C1682 1.388 . S
C1683 C1684 1.390 . S
C1684 C1683 1.390 . S
C1684 C1685 1.394 . S
C1684 C1690 1.465 . S
C1685 C1680 1.399 . S
C1685 C1684 1.394 . S
C1685 C1686 1.516 . S
C1686 C1685 1.516 . S
C1686 C1687 1.502 . S
C1686 C1688 1.561 . S
C1686 C1689 1.526 . S
C1687 H1671 0.959 . S
C1687 H1672 0.959 . S
C1687 H1673 0.961 . S
C1687 C1686 1.502 . S
C1688 H1674 0.960 . S
C1688 H1675 0.961 . S
C1688 H1676 0.959 . S
C1688 C1686 1.561 . S
C1689 C1686 1.526 . S
C1689 C1690 1.396 . S
C1689 C1694 1.390 . S
C1690 C1684 1.465 . S
C1690 C1689 1.396 . S
C1690 C1691 1.399 . S
C1691 H1677 0.929 . S
C1691 C1690 1.399 . S
C1691 C1692 1.385 . S
C1692 H1678 0.931 . S
C1692 C1691 1.385 . S
C1692 C1693 1.389 . S
C1693 C1692 1.389 . S
C1693 C1694 1.387 . S
C1694 H1679 0.930 . S
C1694 C1689 1.390 . S
C1694 C1693 1.387 . S
H1695 C1707 0.930 . S
H1696 C1709 0.930 . S
H1697 C1710 0.930 . S
H1698 C1714 0.959 . S
H1699 C1714 0.959 . S
H1700 C1714 0.961 . S
H1701 C1715 0.960 1_655 S
H1702 C1715 0.961 . S
H1703 C1715 0.959 . S
H1704 C1718 0.929 . S
H1705 C1719 0.931 . S
H1706 C1721 0.930 . S
C1707 H1695 0.930 . S
C1707 C1708 1.399 . S
C1707 C1712 1.399 1_655 S
C1708 C1707 1.399 . S
C1708 C1709 1.376 1_545 S
C1709 H1696 0.930 . S
C1709 C1708 1.376 1_565 S
C1709 C1710 1.388 1_655 S
C1710 H1697 0.930 . S
C1710 C1709 1.388 1_455 S
C1710 C1711 1.390 1_565 S
C1711 C1710 1.390 1_545 S
C1711 C1712 1.394 . S
C1711 C1717 1.465 . S
C1712 C1707 1.399 1_455 S
C1712 C1711 1.394 . S
C1712 C1713 1.516 . S
C1713 C1712 1.516 . S
C1713 C1714 1.502 . S
C1713 C1715 1.561 . S
C1713 C1716 1.526 . S
C1714 H1698 0.959 . S
C1714 H1699 0.959 . S
C1714 H1700 0.961 . S
C1714 C1713 1.502 . S
C1715 H1701 0.960 1_455 S
C1715 H1702 0.961 . S
C1715 H1703 0.959 . S
C1715 C1713 1.561 . S
C1716 C1713 1.526 . S
C1716 C1717 1.396 . S
C1716 C1721 1.390 . S
C1717 C1711 1.465 . S
C1717 C1716 1.396 . S
C1717 C1718 1.399 . S
C1718 H1704 0.929 . S
C1718 C1717 1.399 . S
C1718 C1719 1.385 . S
C1719 H1705 0.931 . S
C1719 C1718 1.385 . S
C1719 C1720 1.389 . S
C1720 C1719 1.389 . S
C1720 C1721 1.387 . S
C1721 H1706 0.930 . S
C1721 C1716 1.390 . S
C1721 C1720 1.387 . S
H1722 C1734 0.930 . S
H1723 C1736 0.930 . S
H1724 C1737 0.930 . S
H1725 C1741 0.959 . S
H1726 C1741 0.959 . S
H1727 C1741 0.961 . S
H1728 C1742 0.960 . S
H1729 C1742 0.961 . S
H1730 C1742 0.959 . S
H1731 C1745 0.929 . S
H1732 C1746 0.931 . S
H1733 C1748 0.930 . S
C1734 H1722 0.930 . S
C1734 C1735 1.399 . S
C1734 C1739 1.399 . S
C1735 C1734 1.399 . S
C1735 C1736 1.376 . S
C1736 H1723 0.930 . S
C1736 C1735 1.376 . S
C1736 C1737 1.388 . S
C1737 H1724 0.930 . S
C1737 C1736 1.388 . S
C1737 C1738 1.390 . S
C1738 C1737 1.390 . S
C1738 C1739 1.394 . S
C1738 C1744 1.465 . S
C1739 C1734 1.399 . S
C1739 C1738 1.394 . S
C1739 C1740 1.516 . S
C1740 C1739 1.516 . S
C1740 C1741 1.502 . S
C1740 C1742 1.561 . S
C1740 C1743 1.526 . S
C1741 H1725 0.959 . S
C1741 H1726 0.959 . S
C1741 H1727 0.961 . S
C1741 C1740 1.502 . S
C1742 H1728 0.960 . S
C1742 H1729 0.961 . S
C1742 H1730 0.959 . S
C1742 C1740 1.561 . S
C1743 C1740 1.526 . S
C1743 C1744 1.396 . S
C1743 C1748 1.390 . S
C1744 C1738 1.465 . S
C1744 C1743 1.396 . S
C1744 C1745 1.399 . S
C1745 H1731 0.929 . S
C1745 C1744 1.399 . S
C1745 C1746 1.385 . S
C1746 H1732 0.931 . S
C1746 C1745 1.385 . S
C1746 C1747 1.389 . S
C1747 C1746 1.389 . S
C1747 C1748 1.387 . S
C1748 H1733 0.930 . S
C1748 C1743 1.390 . S
C1748 C1747 1.387 . S
H1749 C1761 0.930 . S
H1750 C1763 0.930 . S
H1751 C1764 0.930 . S
H1752 C1768 0.959 . S
H1753 C1768 0.959 . S
H1754 C1768 0.961 . S
H1755 C1769 0.960 . S
H1756 C1769 0.961 . S
H1757 C1769 0.959 . S
H1758 C1772 0.929 1_545 S
H1759 C1773 0.941 . S
H1760 C1775 0.930 . S
C1761 H1749 0.930 . S
C1761 C1762 1.399 . S
C1761 C1766 1.399 . S
C1762 C1761 1.399 . S
C1762 C1763 1.376 . S
C1763 H1750 0.930 . S
C1763 C1762 1.376 . S
C1763 C1764 1.388 . S
C1764 H1751 0.930 . S
C1764 C1763 1.388 . S
C1764 C1765 1.390 . S
C1765 C1764 1.390 . S
C1765 C1766 1.394 . S
C1765 C1771 1.465 . S
C1766 C1761 1.399 . S
C1766 C1765 1.394 . S
C1766 C1767 1.516 . S
C1767 C1766 1.516 . S
C1767 C1768 1.502 . S
C1767 C1769 1.561 . S
C1767 C1770 1.526 . S
C1768 H1752 0.959 . S
C1768 H1753 0.959 . S
C1768 H1754 0.961 . S
C1768 C1767 1.502 . S
C1769 H1755 0.960 . S
C1769 H1756 0.961 . S
C1769 H1757 0.959 . S
C1769 C1767 1.561 . S
C1770 C1767 1.526 . S
C1770 C1771 1.396 . S
C1770 C1775 1.390 . S
C1771 C1765 1.465 . S
C1771 C1770 1.396 . S
C1771 C1772 1.399 . S
C1772 H1758 0.929 1_565 S
C1772 C1771 1.399 . S
C1772 C1773 1.381 1_565 S
C1773 H1759 0.941 . S
C1773 C1772 1.381 1_545 S
C1773 C1774 1.383 1_545 S
C1774 C1773 1.383 1_565 S
C1774 C1775 1.387 . S
C1775 H1760 0.930 . S
C1775 C1770 1.390 . S
C1775 C1774 1.387 . S
C493 C27 0.944 . S
C505 C376 0.837 . S
C520 C166 0.941 . S
C532 C57 0.838 . S
C547 C87 0.941 . S
C559 C436 0.838 . S
C574 C117 0.948 . S
C586 C226 0.836 . S
C601 C136 0.948 . S
C613 C267 0.845 . S
C628 C327 0.905 . S
C640 C196 0.901 . S
C655 C406 0.835 . S
C667 C297 0.944 . S
C682 C357 0.845 . S
C694 C466 0.928 . S
C709 C271 1.559 . S
C721 C16 1.524 . S
C736 C46 1.508 . S
C748 C301 1.553 . S
C763 C76 1.481 . S
C775 C331 1.532 . S
C790 C241 1.558 . S
C802 C106 1.537 . S
C817 C400 1.555 . S
C829 C147 1.547 . S
C844 C430 1.550 . S
C856 C177 1.523 . S
C871 C207 1.535 . S
C883 C460 1.556 . S
C898 C370 1.556 . S
C910 C237 1.547 . S
C925 C256 1.498 . S
C937 C31 1.548 . S
C952 C286 1.518 . S
C964 C61 1.508 . S
C979 C316 1.546 . S
C991 C91 1.537 . S
C1006 C1 1.553 . S
C1018 C346 1.544 . S
C1033 C160 1.521 . S
C1045 C387 1.487 . S
C1060 C417 1.546 . S
C1072 C190 1.558 . S
C1087 C220 1.556 . S
C1099 C447 1.547 . S
C1114 C477 1.488 . S
C1126 C130 1.522 . S
C1141 N14 1.326 . S
C1153 N314 1.354 . S
C1168 N44 1.327 . S
C1180 N344 1.353 . S
C1195 N254 1.353 . S
C1207 N74 1.299 . S
C1222 N104 1.317 . S
C1234 N284 1.356 . S
C1249 N126 1.291 . S
C1261 N426 1.326 . S
C1276 N156 1.293 . S
C1288 N456 1.302 . S
C1303 N366 1.357 . S
C1315 N186 1.329 . S
C1330 N216 1.307 . S
C1342 N396 1.292 . S
C1357 C10 1.107 . S
C1369 N224 1.199 . S
C1384 N374 1.167 . S
C1396 C40 1.186 . S
C1411 C70 1.176 . S
C1423 N164 1.133 . S
C1438 C100 1.180 . S
C1450 N434 1.175 . S
C1465 C121 1.143 . S
C1477 N96 1.158 . S
C1492 N246 1.132 . S
C1504 C151 1.189 . S
C1519 C181 1.172 . S
C1531 N36 1.161 . S
C1546 N306 1.135 . S
C1558 C211 1.182 . S
C1573 C250 1.096 . S
C1585 N464 1.184 . S
C1600 N134 1.166 . S
C1612 C280 1.107 . S
C1627 N404 1.173 . S
C1639 C310 1.181 . S
C1654 C340 1.097 . S
C1666 N194 1.191 . S
C1681 C361 1.122 . S
C1693 N336 1.172 . S
C1708 C391 1.182 . S
C1720 N6 1.136 . S
C1735 N276 1.132 . S
C1747 C421 1.191 . S
C1762 N66 1.134 . S
C1774 C451 1.185 . S
