# Generated by pormake.
# Topology wmg, (6)-cn, num edge types: 1
# Building blocks:
#     Node 0, Type 0, BuildingBlock: OJICUG_clean_sbu_0, # of connection points: 6
#     Node 1, Type 0, BuildingBlock: OJICUG_clean_sbu_0, # of connection points: 6
#     Node 2, Type 0, BuildingBlock: OJICUG_clean_sbu_0, # of connection points: 6
#     Node 3, Type 0, BuildingBlock: OJICUG_clean_sbu_0, # of connection points: 6
#     Node 4, Type 0, BuildingBlock: OJICUG_clean_sbu_0, # of connection points: 6
#     Node 5, Type 0, BuildingBlock: OJICUG_clean_sbu_0, # of connection points: 6
#     Node 6, Type 0, BuildingBlock: OJICUG_clean_sbu_0, # of connection points: 6
#     Node 7, Type 0, BuildingBlock: OJICUG_clean_sbu_0, # of connection points: 6
#     Node 8, Type 0, BuildingBlock: OJICUG_clean_sbu_0, # of connection points: 6
#     Node 9, Type 0, BuildingBlock: OJICUG_clean_sbu_0, # of connection points: 6
#     Node 10, Type 0, BuildingBlock: OJICUG_clean_sbu_0, # of connection points: 6
#     Node 11, Type 0, BuildingBlock: OJICUG_clean_sbu_0, # of connection points: 6
#     Node 12, Type 0, BuildingBlock: OJICUG_clean_sbu_0, # of connection points: 6
#     Node 13, Type 0, BuildingBlock: OJICUG_clean_sbu_0, # of connection points: 6
#     Node 14, Type 0, BuildingBlock: OJICUG_clean_sbu_0, # of connection points: 6
#     Node 15, Type 0, BuildingBlock: OJICUG_clean_sbu_0, # of connection points: 6
#     Node 16, Type 0, BuildingBlock: OJICUG_clean_sbu_0, # of connection points: 6
#     Node 17, Type 0, BuildingBlock: OJICUG_clean_sbu_0, # of connection points: 6
#     Edge 18, Type (0, 0), BuildingBlock: EZIPEK_clean_linker_0, # of connection points: 2
#     Edge 19, Type (0, 0), BuildingBlock: EZIPEK_clean_linker_0, # of connection points: 2
#     Edge 20, Type (0, 0), BuildingBlock: EZIPEK_clean_linker_0, # of connection points: 2
#     Edge 21, Type (0, 0), BuildingBlock: EZIPEK_clean_linker_0, # of connection points: 2
#     Edge 22, Type (0, 0), BuildingBlock: EZIPEK_clean_linker_0, # of connection points: 2
#     Edge 23, Type (0, 0), BuildingBlock: EZIPEK_clean_linker_0, # of connection points: 2
#     Edge 24, Type (0, 0), BuildingBlock: EZIPEK_clean_linker_0, # of connection points: 2
#     Edge 25, Type (0, 0), BuildingBlock: EZIPEK_clean_linker_0, # of connection points: 2
#     Edge 26, Type (0, 0), BuildingBlock: EZIPEK_clean_linker_0, # of connection points: 2
#     Edge 27, Type (0, 0), BuildingBlock: EZIPEK_clean_linker_0, # of connection points: 2
#     Edge 28, Type (0, 0), BuildingBlock: EZIPEK_clean_linker_0, # of connection points: 2
#     Edge 29, Type (0, 0), BuildingBlock: EZIPEK_clean_linker_0, # of connection points: 2
#     Edge 30, Type (0, 0), BuildingBlock: EZIPEK_clean_linker_0, # of connection points: 2
#     Edge 31, Type (0, 0), BuildingBlock: EZIPEK_clean_linker_0, # of connection points: 2
#     Edge 32, Type (0, 0), BuildingBlock: EZIPEK_clean_linker_0, # of connection points: 2
#     Edge 33, Type (0, 0), BuildingBlock: EZIPEK_clean_linker_0, # of connection points: 2
#     Edge 34, Type (0, 0), BuildingBlock: EZIPEK_clean_linker_0, # of connection points: 2
#     Edge 35, Type (0, 0), BuildingBlock: EZIPEK_clean_linker_0, # of connection points: 2
#     Edge 36, Type (0, 0), BuildingBlock: EZIPEK_clean_linker_0, # of connection points: 2
#     Edge 37, Type (0, 0), BuildingBlock: EZIPEK_clean_linker_0, # of connection points: 2
#     Edge 38, Type (0, 0), BuildingBlock: EZIPEK_clean_linker_0, # of connection points: 2
#     Edge 39, Type (0, 0), BuildingBlock: EZIPEK_clean_linker_0, # of connection points: 2
#     Edge 40, Type (0, 0), BuildingBlock: EZIPEK_clean_linker_0, # of connection points: 2
#     Edge 41, Type (0, 0), BuildingBlock: EZIPEK_clean_linker_0, # of connection points: 2
#     Edge 42, Type (0, 0), BuildingBlock: EZIPEK_clean_linker_0, # of connection points: 2
#     Edge 43, Type (0, 0), BuildingBlock: EZIPEK_clean_linker_0, # of connection points: 2
#     Edge 44, Type (0, 0), BuildingBlock: EZIPEK_clean_linker_0, # of connection points: 2
#     Edge 45, Type (0, 0), BuildingBlock: EZIPEK_clean_linker_0, # of connection points: 2
#     Edge 46, Type (0, 0), BuildingBlock: EZIPEK_clean_linker_0, # of connection points: 2
#     Edge 47, Type (0, 0), BuildingBlock: EZIPEK_clean_linker_0, # of connection points: 2
#     Edge 48, Type (0, 0), BuildingBlock: EZIPEK_clean_linker_0, # of connection points: 2
#     Edge 49, Type (0, 0), BuildingBlock: EZIPEK_clean_linker_0, # of connection points: 2
#     Edge 50, Type (0, 0), BuildingBlock: EZIPEK_clean_linker_0, # of connection points: 2
#     Edge 51, Type (0, 0), BuildingBlock: EZIPEK_clean_linker_0, # of connection points: 2
#     Edge 52, Type (0, 0), BuildingBlock: EZIPEK_clean_linker_0, # of connection points: 2
#     Edge 53, Type (0, 0), BuildingBlock: EZIPEK_clean_linker_0, # of connection points: 2
#     Edge 54, Type (0, 0), BuildingBlock: EZIPEK_clean_linker_0, # of connection points: 2
#     Edge 55, Type (0, 0), BuildingBlock: EZIPEK_clean_linker_0, # of connection points: 2
#     Edge 56, Type (0, 0), BuildingBlock: EZIPEK_clean_linker_0, # of connection points: 2
#     Edge 57, Type (0, 0), BuildingBlock: EZIPEK_clean_linker_0, # of connection points: 2
#     Edge 58, Type (0, 0), BuildingBlock: EZIPEK_clean_linker_0, # of connection points: 2
#     Edge 59, Type (0, 0), BuildingBlock: EZIPEK_clean_linker_0, # of connection points: 2
#     Edge 60, Type (0, 0), BuildingBlock: EZIPEK_clean_linker_0, # of connection points: 2
#     Edge 61, Type (0, 0), BuildingBlock: EZIPEK_clean_linker_0, # of connection points: 2
#     Edge 62, Type (0, 0), BuildingBlock: EZIPEK_clean_linker_0, # of connection points: 2
#     Edge 63, Type (0, 0), BuildingBlock: EZIPEK_clean_linker_0, # of connection points: 2
#     Edge 64, Type (0, 0), BuildingBlock: EZIPEK_clean_linker_0, # of connection points: 2
#     Edge 65, Type (0, 0), BuildingBlock: EZIPEK_clean_linker_0, # of connection points: 2
#     Edge 66, Type (0, 0), BuildingBlock: EZIPEK_clean_linker_0, # of connection points: 2
#     Edge 67, Type (0, 0), BuildingBlock: EZIPEK_clean_linker_0, # of connection points: 2
#     Edge 68, Type (0, 0), BuildingBlock: EZIPEK_clean_linker_0, # of connection points: 2
#     Edge 69, Type (0, 0), BuildingBlock: EZIPEK_clean_linker_0, # of connection points: 2
#     Edge 70, Type (0, 0), BuildingBlock: EZIPEK_clean_linker_0, # of connection points: 2
#     Edge 71, Type (0, 0), BuildingBlock: EZIPEK_clean_linker_0, # of connection points: 2
# Relax obj value: 0.253
# Max RMSD: 0.274
# Mean RMSD: 0.274
data_MOF--net-wmg--node1-OJICUG_clean_sbu_0--edge1-EZIPEK_clean_linker_0
_symmetry_space_group_name_H-M    P1
_symmetry_Int_Tables_number       1
_symmetry_cell_setting            triclinic
loop_
_symmetry_equiv_pos_as_xyz
'x, y, z'
_cell_length_a     48.665406
_cell_length_b     48.82141
_cell_length_c     18.863609
_cell_angle_alpha  90.275108
_cell_angle_beta   89.742957
_cell_angle_gamma 120.29782
loop_
_atom_site_label
_atom_site_type_symbol
_atom_site_fract_x
_atom_site_fract_y
_atom_site_fract_z
_atom_type_partial_charge
Sc0 Sc 0.18636 0.24948 0.94969 0.0
Sc1 Sc 0.21856 0.31167 0.0732 0.0
Sc2 Sc 0.17034 0.23312 0.13102 0.0
O3 O 0.19148 0.26467 0.05137 0.0
C4 C 0.1156 0.21621 0.01531 0.0
C5 C 0.18792 0.31493 0.93241 0.0
C6 C 0.17182 0.29538 0.19971 0.0
C7 C 0.25928 0.30145 0.95412 0.0
C8 C 0.18255 0.18922 0.01973 0.0
C9 C 0.24187 0.27691 0.17902 0.0
O10 O 0.1352 0.22518 0.96336 0.0
O11 O 0.19754 0.32633 -0.00628 0.0
O12 O 0.16468 0.26633 0.20156 0.0
O13 O 0.23764 0.27439 0.93167 0.0
O14 O 0.17498 0.19457 0.081 0.0
O15 O 0.24393 0.30164 0.15175 0.0
O16 O 0.18748 0.20745 0.96828 0.0
O17 O 0.25393 0.31696 0.00059 0.0
O18 O 0.2169 0.24937 0.17642 0.0
O19 O 0.18434 0.28873 0.91178 0.0
O20 O 0.12393 0.21758 0.08055 0.0
O21 O 0.18687 0.31333 0.14853 0.0
Sc22 Sc 0.73974 0.9397 0.95942 0.0
Sc23 Sc 0.67505 0.90197 0.07569 0.0
Sc24 Sc 0.75331 0.93529 0.13833 0.0
O25 O 0.7225 0.92535 0.05782 0.0
C26 C 0.77424 0.90295 0.02197 0.0
C27 C 0.6802 0.87075 0.93501 0.0
C28 C 0.69164 0.87354 0.20538 0.0
C29 C 0.6809 0.95041 0.9558 0.0
C30 C 0.79743 0.99461 0.03582 0.0
C31 C 0.70775 0.96132 0.18196 0.0
O32 O 0.76965 0.91824 0.97266 0.0
O33 O 0.66583 0.86713 -0.00607 0.0
O34 O 0.72026 0.89652 0.20843 0.0
O35 O 0.70948 0.95977 0.93696 0.0
O36 O 0.79391 0.97693 0.08866 0.0
O37 O 0.68317 0.93777 0.15419 0.0
O38 O 0.77613 0.98625 -0.01076 0.0
O39 O 0.66642 0.92923 0.00194 0.0
O40 O 0.73578 0.96491 0.18087 0.0
O41 O 0.70538 0.89578 0.91728 0.0
O42 O 0.7684 0.90493 0.08768 0.0
O43 O 0.67393 0.86976 0.15321 0.0
Sc44 Sc 0.04687 0.79144 0.95139 0.0
Sc45 Sc 0.08691 0.76898 0.06933 0.0
Sc46 Sc 0.05645 0.81642 0.12385 0.0
O47 O 0.06405 0.79233 0.0476 0.0
C48 C 0.08727 0.86495 0.00137 0.0
C49 C 0.11472 0.80013 0.92172 0.0
C50 C 0.1179 0.81692 0.19113 0.0
C51 C 0.03632 0.72189 0.95709 0.0
C52 C -0.00326 0.79967 0.02358 0.0
C53 C 0.02794 0.74636 0.17605 0.0
O54 O 0.06667 0.84344 0.95981 0.0
O55 O 0.119 0.79047 0.98111 0.0
O56 O 0.0934 0.81984 0.19783 0.0
O57 O 0.02792 0.74093 0.93331 0.0
O58 O 0.01733 0.81852 0.06816 0.0
O59 O 0.05265 0.74564 0.1546 0.0
O60 O 0.00125 0.77969 -0.00883 0.0
O61 O 0.05707 0.72962 0.00481 0.0
O62 O 0.02396 0.77031 0.16857 0.0
O63 O 0.09004 0.80096 0.90479 0.0
O64 O 0.08966 0.85927 0.06694 0.0
O65 O 0.12231 0.80499 0.13599 0.0
Sc66 Sc 0.8165 0.76113 0.83141 0.0
Sc67 Sc 0.7749 0.6839 0.90172 0.0
Sc68 Sc 0.80692 0.74912 0.01601 0.0
O69 O 0.7993 0.73152 0.91582 0.0
C70 C 0.87539 0.78487 0.93929 0.0
C71 C 0.81881 0.70034 0.76643 0.0
C72 C 0.81493 0.68898 0.03235 0.0
C73 C 0.74362 0.71101 0.79576 0.0
C74 C 0.80291 0.8047 0.93965 0.0
C75 C 0.73831 0.69292 0.03442 0.0
O76 O 0.86481 0.78315 0.87611 0.0
O77 O 0.80165 0.68168 0.81462 0.0
O78 O 0.81363 0.71257 0.05573 0.0
O79 O 0.76813 0.73884 0.78987 0.0
O80 O 0.80082 0.78846 -0.00658 0.0
O81 O 0.74356 0.67716 -0.01182 0.0
O82 O 0.80878 0.79814 0.87794 0.0
O83 O 0.74305 0.6886 0.83141 0.0
O84 O 0.75734 0.72221 0.0465 0.0
O85 O 0.82621 0.72944 0.76498 0.0
O86 O 0.85711 0.7749 -0.00666 0.0
O87 O 0.80574 0.6772 0.97102 0.0
Sc88 Sc 0.22916 0.05494 0.82864 0.0
Sc89 Sc 0.30695 0.08915 0.89704 0.0
Sc90 Sc 0.24154 0.05084 0.01076 0.0
O91 O 0.25911 0.06493 0.91168 0.0
C92 C 0.20593 0.08602 0.94666 0.0
C93 C 0.29037 0.11923 0.76828 0.0
C94 C 0.30181 0.11904 0.03689 0.0
C95 C 0.27851 0.0332 0.78343 0.0
C96 C 0.18504 0.99392 0.92795 0.0
C97 C 0.29955 0.04035 0.01819 0.0
O98 O 0.20868 0.08036 0.88129 0.0
O99 O 0.3091 0.11992 0.81511 0.0
O100 O 0.27791 0.09322 0.05598 0.0
O101 O 0.2507 0.02994 0.77967 0.0
O102 O 0.20235 0.00547 0.98212 0.0
O103 O 0.31491 0.06305 0.97576 0.0
O104 O 0.19095 0.00936 0.87014 0.0
O105 O 0.30127 0.05407 0.82083 0.0
O106 O 0.26991 0.02856 0.03075 0.0
O107 O 0.26096 0.09786 0.76722 0.0
O108 O 0.21446 0.075 -0.0018 0.0
O109 O 0.31408 0.12429 0.97523 0.0
Sc110 Sc 0.92742 0.17293 0.84859 0.0
Sc111 Sc 0.89428 0.21681 0.91285 0.0
Sc112 Sc 0.93473 0.19189 0.02599 0.0
O113 O 0.91834 0.19377 0.92976 0.0
C114 C 0.90057 0.11967 0.96388 0.0
C115 C 0.86345 0.17037 0.78885 0.0
C116 C 0.8669 0.18228 0.05873 0.0
C117 C 0.95039 0.24294 0.7995 0.0
C118 C 0.98896 0.19122 0.94477 0.0
C119 C 0.94503 0.26146 0.02801 0.0
O120 O 0.89837 0.12718 0.89979 0.0
O121 O 0.85892 0.18147 0.84538 0.0
O122 O 0.89104 0.18006 0.07261 0.0
O123 O 0.95613 0.2202 0.80755 0.0
O124 O 0.98127 0.20499 -0.00939 0.0
O125 O 0.92519 0.25545 0.9788 0.0
O126 O 0.97032 0.17524 0.89429 0.0
O127 O 0.92527 0.24179 0.82363 0.0
O128 O 0.95251 0.24155 0.05059 0.0
O129 O 0.88779 0.16723 0.78092 0.0
O130 O 0.91619 0.14096 0.01084 0.0
O131 O 0.86311 0.19402 0.00199 0.0
Sc132 Sc 0.85233 0.58096 0.29028 0.0
Sc133 Sc 0.8856 0.64647 0.40719 0.0
Sc134 Sc 0.83823 0.56924 0.47253 0.0
O135 O 0.85864 0.59896 0.38995 0.0
C136 C 0.78218 0.54831 0.36045 0.0
C137 C 0.85046 0.64437 0.26788 0.0
C138 C 0.8399 0.63246 0.53614 0.0
C139 C 0.9235 0.63546 0.28115 0.0
C140 C 0.85061 0.52344 0.36857 0.0
C141 C 0.91059 0.61457 0.51664 0.0
O142 O 0.80114 0.55497 0.30779 0.0
O143 O 0.86118 0.6574 0.32767 0.0
O144 O 0.83247 0.60337 0.5395 0.0
O145 O 0.9024 0.60743 0.26346 0.0
O146 O 0.84114 0.52926 0.42682 0.0
O147 O 0.91235 0.63898 0.48801 0.0
O148 O 0.85776 0.54144 0.31555 0.0
O149 O 0.91962 0.65115 0.32986 0.0
O150 O 0.88559 0.587 0.5139 0.0
O151 O 0.84726 0.61808 0.24903 0.0
O152 O 0.79137 0.55213 0.42533 0.0
O153 O 0.85603 0.65019 0.4856 0.0
Sc154 Sc 0.40548 0.2641 0.28705 0.0
Sc155 Sc 0.3412 0.23452 0.40396 0.0
Sc156 Sc 0.41931 0.27141 0.47076 0.0
O157 O 0.38887 0.25659 0.38792 0.0
C158 C 0.44132 0.2334 0.36617 0.0
C159 C 0.34318 0.19618 0.27748 0.0
C160 C 0.35848 0.21025 0.5423 0.0
C161 C 0.35095 0.2787 0.2723 0.0
C162 C 0.46271 0.32557 0.35504 0.0
C163 C 0.37061 0.29642 0.49992 0.0
O164 O 0.43061 0.23953 0.31058 0.0
O165 O 0.33227 0.19466 0.33945 0.0
O166 O 0.38813 0.23106 0.54052 0.0
O167 O 0.38008 0.28825 0.25945 0.0
O168 O 0.45585 0.31559 0.41881 0.0
O169 O 0.34781 0.27407 0.46574 0.0
O170 O 0.44675 0.30894 0.30313 0.0
O171 O 0.33429 0.25697 0.31592 0.0
O172 O 0.39768 0.29845 0.50983 0.0
O173 O 0.36684 0.22059 0.252 0.0
O174 O 0.44026 0.24383 0.42836 0.0
O175 O 0.33936 0.20849 0.49526 0.0
Sc176 Sc 0.72566 0.13993 0.29802 0.0
Sc177 Sc 0.75158 0.10664 0.42505 0.0
Sc178 Sc 0.71738 0.15229 0.4785 0.0
O179 O 0.73144 0.13307 0.40124 0.0
C180 C 0.75749 0.20917 0.36806 0.0
C181 C 0.79295 0.14471 0.29993 0.0
C182 C 0.77597 0.1521 0.55909 0.0
C183 C 0.70996 0.07039 0.28924 0.0
C184 C 0.66459 0.13914 0.35817 0.0
C185 C 0.68938 0.07902 0.51915 0.0
O186 O 0.75165 0.19019 0.31618 0.0
O187 O 0.79313 0.13615 0.3632 0.0
O188 O 0.75718 0.16298 0.55101 0.0
O189 O 0.70082 0.08984 0.27358 0.0
O190 O 0.6741 0.14391 0.42242 0.0
O191 O 0.71055 0.07606 0.48602 0.0
O192 O 0.68116 0.13775 0.30827 0.0
O193 O 0.73028 0.07564 0.33686 0.0
O194 O 0.68891 0.10502 0.52415 0.0
O195 O 0.7691 0.14329 0.27016 0.0
O196 O 0.74588 0.19966 0.43046 0.0
O197 O 0.77632 0.1321 0.51722 0.0
Sc198 Sc 0.48184 0.0943 0.16673 0.0
Sc199 Sc 0.43915 0.01728 0.22962 0.0
Sc200 Sc 0.47764 0.08042 0.34655 0.0
O201 O 0.46568 0.06406 0.24726 0.0
C202 C 0.54167 0.11958 0.26547 0.0
C203 C 0.48265 0.03277 0.09948 0.0
C204 C 0.48264 0.0225 0.36197 0.0
C205 C 0.41092 0.04695 0.12482 0.0
C206 C 0.46599 0.13218 0.2893 0.0
C207 C 0.40572 0.02163 0.36191 0.0
O208 O 0.53032 0.11071 0.20311 0.0
O209 O 0.47265 0.01663 0.15626 0.0
O210 O 0.49888 0.0522 0.35759 0.0
O211 O 0.43303 0.07583 0.13299 0.0
O212 O 0.45916 0.11124 0.3365 0.0
O213 O 0.40329 0.01482 0.29674 0.0
O214 O 0.47777 0.13112 0.22877 0.0
O215 O 0.41374 0.0235 0.1438 0.0
O216 O 0.43169 0.04311 0.38971 0.0
O217 O 0.48603 0.06053 0.09454 0.0
O218 O 0.52434 0.11853 0.31713 0.0
O219 O 0.45932 0.00584 0.32053 0.0
Sc220 Sc 0.8945 0.39226 0.17375 0.0
Sc221 Sc 0.97371 0.42437 0.2123 0.0
Sc222 Sc 0.91679 0.39156 0.34462 0.0
O223 O 0.92873 0.40359 0.2441 0.0
C224 C 0.87706 0.42328 0.29583 0.0
C225 C 0.95427 0.45437 0.1018 0.0
C226 C 0.97579 0.45728 0.36155 0.0
C227 C 0.93678 0.36736 0.11096 0.0
C228 C 0.85963 0.33449 0.28429 0.0
C229 C 0.97671 0.3815 0.32378 0.0
O230 O 0.88411 0.42505 0.22969 0.0
O231 O 0.9704 0.46067 0.15826 0.0
O232 O 0.94686 0.43858 0.37585 0.0
O233 O 0.90842 0.36013 0.12828 0.0
O234 O 0.88558 0.34308 0.31631 0.0
O235 O 0.97877 0.38797 0.25882 0.0
O236 O 0.85764 0.35261 0.23819 0.0
O237 O 0.96025 0.39551 0.11751 0.0
O238 O 0.95623 0.38274 0.36435 0.0
O239 O 0.92657 0.42959 0.09783 0.0
O240 O 0.87854 0.40303 0.33626 0.0
O241 O 0.99017 0.45423 0.30783 0.0
Sc242 Sc 0.60152 0.50889 0.15998 0.0
Sc243 Sc 0.5667 0.5532 0.21755 0.0
Sc244 Sc 0.59569 0.52169 0.34126 0.0
O245 O 0.58784 0.52752 0.23887 0.0
C246 C 0.56304 0.45226 0.27274 0.0
C247 C 0.54173 0.50804 0.08295 0.0
C248 C 0.52799 0.51633 0.34546 0.0
C249 C 0.6293 0.58277 0.12405 0.0
C250 C 0.65596 0.52255 0.27628 0.0
C251 C 0.61049 0.59073 0.34811 0.0
O252 O 0.5733 0.46165 0.20926 0.0
O253 O 0.54142 0.52792 0.12533 0.0
O254 O 0.55267 0.51865 0.37316 0.0
O255 O 0.62945 0.5567 0.11476 0.0
O256 O 0.6401 0.52416 0.32738 0.0
O257 O 0.58805 0.58397 0.30533 0.0
O258 O 0.6455 0.51738 0.21282 0.0
O259 O 0.60763 0.58474 0.15759 0.0
O260 O 0.62094 0.57214 0.36161 0.0
O261 O 0.56097 0.49767 0.08981 0.0
O262 O 0.56987 0.47108 0.3254 0.0
O263 O 0.52613 0.52309 0.28141 0.0
Sc264 Sc 0.51026 0.90659 0.63358 0.0
Sc265 Sc 0.54388 0.97267 0.74381 0.0
Sc266 Sc 0.49776 0.89696 0.81153 0.0
O267 O 0.51798 0.92576 0.73017 0.0
C268 C 0.44362 0.87071 0.69985 0.0
C269 C 0.50297 0.96301 0.60307 0.0
C270 C 0.49782 0.9603 0.86759 0.0
C271 C 0.58096 0.9667 0.61999 0.0
C272 C 0.51728 0.85628 0.70736 0.0
C273 C 0.56847 0.94381 0.85891 0.0
O274 O 0.46364 0.86779 0.66241 0.0
O275 O 0.52475 0.98107 0.64684 0.0
O276 O 0.49333 0.93234 0.87614 0.0
O277 O 0.55612 0.94387 0.59166 0.0
O278 O 0.50076 0.85752 0.75927 0.0
O279 O 0.56658 0.96738 0.83641 0.0
O280 O 0.53029 0.87826 0.66173 0.0
O281 O 0.58172 0.97443 0.68423 0.0
O282 O 0.5458 0.91492 0.85246 0.0
O283 O 0.48842 0.93319 0.6072 0.0
O284 O 0.45138 0.88236 0.76248 0.0
O285 O 0.50911 0.97536 0.80992 0.0
Sc286 Sc 0.07595 0.59981 0.63033 0.0
Sc287 Sc 0.01615 0.5642 0.75668 0.0
Sc288 Sc 0.09452 0.59785 0.80433 0.0
O289 O 0.06191 0.58688 0.73005 0.0
C290 C 0.11455 0.5684 0.68326 0.0
C291 C 0.01851 0.53341 0.60748 0.0
C292 C 0.03451 0.53393 0.86987 0.0
C293 C 0.01476 0.60814 0.64477 0.0
C294 C 0.13063 0.6573 0.69793 0.0
C295 C 0.04931 0.61967 0.86477 0.0
O296 O 0.11467 0.58972 0.64402 0.0
O297 O 0.00265 0.5354 0.6595 0.0
O298 O 0.06174 0.55909 0.87572 0.0
O299 O 0.03639 0.60794 0.60631 0.0
O300 O 0.13188 0.63939 0.74571 0.0
O301 O 0.02623 0.59179 0.85266 0.0
O302 O 0.10621 0.64824 0.65957 0.0
O303 O 0.01112 0.60048 0.7092 0.0
O304 O 0.07822 0.62801 0.85014 0.0
O305 O 0.04757 0.55283 0.59652 0.0
O306 O 0.10689 0.56633 0.74899 0.0
O307 O 0.01899 0.52783 0.81245 0.0
Sc308 Sc 0.38471 0.47284 0.61584 0.0
Sc309 Sc 0.41968 0.43937 0.72011 0.0
Sc310 Sc 0.38608 0.48064 0.80149 0.0
O311 O 0.39672 0.46425 0.71283 0.0
C312 C 0.42003 0.54017 0.69581 0.0
C313 C 0.45182 0.47935 0.58597 0.0
C314 C 0.45057 0.48204 0.85528 0.0
C315 C 0.36996 0.40365 0.5933 0.0
C316 C 0.32729 0.46925 0.70142 0.0
C317 C 0.36274 0.40783 0.83257 0.0
O318 O 0.40951 0.52285 0.64043 0.0
O319 O 0.45548 0.4689 0.64451 0.0
O320 O 0.42812 0.48822 0.86262 0.0
O321 O 0.36103 0.42371 0.5832 0.0
O322 O 0.3411 0.47513 0.76144 0.0
O323 O 0.38497 0.40806 0.796 0.0
O324 O 0.33988 0.4664 0.64556 0.0
O325 O 0.39152 0.40789 0.63697 0.0
O326 O 0.35902 0.43191 0.83964 0.0
O327 O 0.42704 0.47984 0.56911 0.0
O328 O 0.41346 0.52906 0.75924 0.0
O329 O 0.45193 0.46659 0.80288 0.0
Sc330 Sc 0.15052 0.42279 0.49881 0.0
Sc331 Sc 0.10721 0.34587 0.55607 0.0
Sc332 Sc 0.13261 0.40843 0.67662 0.0
O333 O 0.12991 0.39209 0.57795 0.0
C334 C 0.20303 0.44497 0.6134 0.0
C335 C 0.15346 0.36232 0.43678 0.0
C336 C 0.14288 0.35152 0.70135 0.0
C337 C 0.08195 0.377 0.44652 0.0
C338 C 0.1318 0.4631 0.60364 0.0
C339 C 0.06245 0.34693 0.67351 0.0
O340 O 0.19574 0.43682 0.54839 0.0
O341 O 0.14565 0.34859 0.496 0.0
O342 O 0.14917 0.37941 0.71472 0.0
O343 O 0.1035 0.4058 0.45854 0.0
O344 O 0.11651 0.44005 0.64554 0.0
O345 O 0.06687 0.33867 0.61307 0.0
O346 O 0.14904 0.46202 0.5537 0.0
O347 O 0.08492 0.35339 0.46395 0.0
O348 O 0.08384 0.37154 0.70595 0.0
O349 O 0.1542 0.38857 0.42712 0.0
O350 O 0.18286 0.44389 0.65895 0.0
O351 O 0.12662 0.33518 0.64838 0.0
Sc352 Sc 0.56415 0.72365 0.50716 0.0
Sc353 Sc 0.64396 0.75581 0.56157 0.0
Sc354 Sc 0.58288 0.72404 0.68663 0.0
O355 O 0.59683 0.73479 0.58454 0.0
C356 C 0.54702 0.75931 0.62857 0.0
C357 C 0.62458 0.7852 0.43602 0.0
C358 C 0.64799 0.79 0.70098 0.0
C359 C 0.60942 0.69754 0.4553 0.0
C360 C 0.52205 0.66662 0.61789 0.0
C361 C 0.63586 0.70659 0.68105 0.0
O362 O 0.54676 0.75167 0.56308 0.0
O363 O 0.64457 0.78549 0.47883 0.0
O364 O 0.62349 0.76556 0.72393 0.0
O365 O 0.5824 0.69619 0.45446 0.0
O366 O 0.54023 0.68081 0.66916 0.0
O367 O 0.65185 0.72952 0.63945 0.0
O368 O 0.52732 0.67876 0.55598 0.0
O369 O 0.63371 0.7184 0.48864 0.0
O370 O 0.6072 0.69748 0.69798 0.0
O371 O 0.59483 0.76507 0.44032 0.0
O372 O 0.55831 0.7503 0.67847 0.0
O373 O 0.6571 0.79339 0.63683 0.0
Sc374 Sc 0.26423 0.8381 0.50029 0.0
Sc375 Sc 0.23357 0.88618 0.55486 0.0
Sc376 Sc 0.26687 0.85761 0.67807 0.0
O377 O 0.25457 0.86047 0.57761 0.0
C378 C 0.22887 0.78563 0.6186 0.0
C379 C 0.20512 0.83975 0.42546 0.0
C380 C 0.19882 0.85201 0.69276 0.0
C381 C 0.29423 0.91052 0.45505 0.0
C382 C 0.32146 0.85211 0.60877 0.0
C383 C 0.28168 0.92787 0.67744 0.0
O384 O 0.23143 0.79303 0.55249 0.0
O385 O 0.20227 0.85609 0.47377 0.0
O386 O 0.22306 0.85151 0.71509 0.0
O387 O 0.29608 0.88513 0.45691 0.0
O388 O 0.31271 0.86475 0.65513 0.0
O389 O 0.26068 0.92168 0.63105 0.0
O390 O 0.30495 0.83896 0.55348 0.0
O391 O 0.27115 0.91279 0.48067 0.0
O392 O 0.28962 0.90802 0.69725 0.0
O393 O 0.22672 0.83233 0.42676 0.0
O394 O 0.24449 0.80611 0.66706 0.0
O395 O 0.19653 0.86142 0.63154 0.0
C396 C 0.17198 0.10536 0.00787 0.0
C397 C 0.19833 0.11148 0.9639 0.0
C398 C 0.2163 0.16846 0.9674 0.0
C399 C 0.18843 0.16221 0.00594 0.0
N400 N 0.13683 0.12357 0.05156 0.0
N401 N 0.24375 0.14906 0.89457 0.0
C402 C 0.16555 0.13035 0.02371 0.0
C403 C 0.21964 0.14298 0.94099 0.0
N404 N 0.15289 0.07556 0.03417 0.0
N405 N 0.2408 0.19896 0.95909 0.0
H406 H 0.2508 0.13281 0.8813 0.0
H407 H 0.2561 0.17022 0.86646 0.0
H408 H 0.24012 0.21877 0.97692 0.0
H409 H 0.2633 0.20473 0.94076 0.0
H410 H 0.13578 0.07031 0.07331 0.0
H411 H 0.15541 0.05633 0.01963 0.0
H412 H 0.11786 0.10058 0.05842 0.0
H413 H 0.13081 0.14086 0.06208 0.0
C414 C 0.84363 0.02928 0.95531 0.0
C415 C 0.82841 0.02462 0.02252 0.0
C416 C 0.87194 0.07694 0.05917 0.0
C417 C 0.88138 0.0851 -0.01307 0.0
N418 N 0.88206 0.06552 0.86973 0.0
N419 N 0.82838 0.04503 0.13929 0.0
C420 C 0.86892 0.06012 0.93593 0.0
C421 C 0.84279 0.04861 0.07498 0.0
N422 N 0.83504 0.00375 0.91172 0.0
N423 N 0.89167 0.09465 0.11303 0.0
H424 H 0.80657 0.02528 0.15249 0.0
H425 H 0.83681 0.06299 0.17731 0.0
H426 H 0.91542 0.11174 0.10472 0.0
H427 H 0.88651 0.08855 0.16627 0.0
H428 H 0.84676 0.00468 0.86474 0.0
H429 H 0.81804 0.98065 0.92594 0.0
H430 H 0.87122 0.05053 0.82662 0.0
H431 H 0.90435 0.08505 0.85836 0.0
C432 C 0.92319 0.81006 0.02051 0.0
C433 C 0.91009 0.79628 0.95314 0.0
C434 C 0.9605 0.79826 0.92688 0.0
C435 C 0.96912 0.8031 -0.00019 0.0
N436 N 0.95518 0.81051 0.11879 0.0
N437 N 0.91675 0.77206 0.84588 0.0
C438 C 0.94973 0.80853 0.04754 0.0
C439 C 0.92893 0.78923 0.90671 0.0
N440 N 0.91064 0.82508 0.05834 0.0
N441 N 0.98256 0.80284 0.87627 0.0
H442 H 0.8934 0.76263 0.82922 0.0
H443 H 0.92931 0.76411 0.81541 0.0
H444 H 0.00652 0.81178 0.88818 0.0
H445 H 0.9778 0.80178 0.82214 0.0
H446 H 0.92074 0.83736 0.1053 0.0
H447 H 0.89274 0.82861 0.03804 0.0
H448 H 0.93955 0.81131 0.15562 0.0
H449 H 0.97337 0.80823 0.14155 0.0
C450 C 0.76456 0.82195 0.97702 0.0
C451 C 0.79525 0.8305 0.95091 0.0
C452 C 0.81197 0.88706 0.96646 0.0
C453 C 0.7823 0.87829 -0.00047 0.0
N454 N 0.73109 0.83695 0.04174 0.0
N455 N 0.84936 0.87088 0.9266 0.0
C456 C 0.75889 0.8456 0.00652 0.0
C457 C 0.81922 0.86302 0.94648 0.0
N458 N 0.74039 0.79113 0.97103 0.0
N459 N 0.83329 0.9184 0.95451 0.0
H460 H 0.85529 0.85402 0.9106 0.0
H461 H 0.8689 0.89374 0.93001 0.0
H462 H 0.82974 0.9366 0.97264 0.0
H463 H 0.85364 0.92634 0.92349 0.0
H464 H 0.71673 0.78353 0.98303 0.0
H465 H 0.74341 0.77341 0.94764 0.0
H466 H 0.71549 0.81384 0.05828 0.0
H467 H 0.72419 0.85301 0.05817 0.0
C468 C 0.13392 0.95632 -0.0089 0.0
C469 C 0.15601 0.96155 0.93583 0.0
C470 C 0.12685 0.90414 0.91008 0.0
C471 C 0.10832 0.89831 0.9734 0.0
N472 N 0.09179 0.91953 0.06954 0.0
N473 N 0.1738 0.94052 0.84227 0.0
C474 C 0.11119 0.92469 0.0124 0.0
C475 C 0.15216 0.93554 0.89439 0.0
N476 N 0.13392 0.98187 0.02114 0.0
N477 N 0.1205 0.87992 0.86419 0.0
H478 H 0.19194 0.96296 0.82743 0.0
H479 H 0.17499 0.92241 0.81588 0.0
H480 H 0.1042 0.85631 0.874 0.0
H481 H 0.12984 0.8834 0.81312 0.0
H482 H 0.11689 0.98024 0.05708 0.0
H483 H 0.14949 0.00509 0.00496 0.0
H484 H 0.09554 0.93688 0.10675 0.0
H485 H 0.07195 0.89748 0.08071 0.0
C486 C 0.07798 0.23265 0.96795 0.0
C487 C 0.08246 0.20846 -0.00236 0.0
C488 C 0.02489 0.1709 -0.01401 0.0
C489 C 0.02112 0.19479 0.95209 0.0
N490 N 0.04502 0.24598 0.89668 0.0
N491 N 0.06107 0.15331 0.02548 0.0
C492 C 0.04804 0.22487 0.93856 0.0
C493 C 0.05613 0.17715 0.00397 0.0
N494 N 0.10189 0.26357 0.97148 0.0
N495 N -0.00146 0.14267 0.00318 0.0
H496 H 0.08346 0.15729 0.04008 0.0
H497 H 0.04356 0.12942 0.02428 0.0
H498 H 0.9756 0.13696 -0.01155 0.0
H499 H -0.00081 0.12568 0.03512 0.0
H500 H 0.09844 0.28234 0.95886 0.0
H501 H 0.12393 0.27065 -0.00548 0.0
H502 H 0.0644 0.267 0.8784 0.0
H503 H 0.02338 0.24089 0.87417 0.0
C504 C 0.83455 0.47147 0.30731 0.0
C505 C 0.85316 0.49429 0.35988 0.0
C506 C 0.87982 0.46404 0.38593 0.0
C507 C 0.86521 0.44432 0.32519 0.0
N508 N 0.82576 0.42697 0.23295 0.0
N509 N 0.8958 0.51421 0.44479 0.0
C510 C 0.84162 0.44738 0.28753 0.0
C511 C 0.87613 0.49087 0.39856 0.0
N512 N 0.80951 0.47247 0.2776 0.0
N513 N 0.89679 0.45712 0.43275 0.0
H514 H 0.89387 0.53411 0.45602 0.0
H515 H 0.91568 0.51525 0.46791 0.0
H516 H 0.89934 0.43736 0.42886 0.0
H517 H 0.90523 0.46888 0.48091 0.0
H518 H 0.79284 0.45507 0.24418 0.0
H519 H 0.80393 0.48983 0.29077 0.0
H520 H 0.81177 0.43034 0.19647 0.0
H521 H 0.82699 0.40656 0.22331 0.0
C522 C 0.50728 0.406 0.26241 0.0
C523 C 0.53889 0.41825 0.28699 0.0
C524 C 0.52112 0.36926 0.35656 0.0
C525 C 0.489 0.35855 0.33761 0.0
N526 N 0.45113 0.36975 0.28159 0.0
N527 N 0.57577 0.41299 0.36242 0.0
C528 C 0.48206 0.37773 0.29275 0.0
C529 C 0.5457 0.40029 0.33575 0.0
N530 N 0.50109 0.42141 0.21005 0.0
N531 N 0.52844 0.34923 0.3911 0.0
H532 H 0.59482 0.43439 0.3444 0.0
H533 H 0.58152 0.40315 0.40463 0.0
H534 H 0.51132 0.3264 0.40659 0.0
H535 H 0.55165 0.3542 0.39943 0.0
H536 H 0.47942 0.41157 0.18351 0.0
H537 H 0.51822 0.44302 0.18877 0.0
H538 H 0.44458 0.38476 0.25753 0.0
H539 H 0.43173 0.3495 0.3025 0.0
C540 C 0.59682 0.15527 0.31527 0.0
C541 C 0.57438 0.12598 0.2831 0.0
C542 C 0.61038 0.1051 0.30403 0.0
C543 C 0.63251 0.13398 0.33834 0.0
N544 N 0.64913 0.18813 0.36857 0.0
N545 N 0.55712 0.07091 0.25961 0.0
C546 C 0.62617 0.15941 0.34253 0.0
C547 C 0.5806 0.10048 0.28025 0.0
N548 N 0.58967 0.17894 0.32051 0.0
N549 N 0.61813 0.08213 0.29216 0.0
H550 H 0.53512 0.06606 0.24014 0.0
H551 H 0.55825 0.05039 0.26712 0.0
H552 H 0.63833 0.08295 0.3128 0.0
H553 H 0.60552 0.06299 0.25799 0.0
H554 H 0.60268 0.19963 0.34986 0.0
H555 H 0.56972 0.17751 0.29646 0.0
H556 H 0.64785 0.20874 0.36751 0.0
H557 H 0.67073 0.19202 0.38871 0.0
C558 C 0.48471 0.19132 0.29776 0.0
C559 C 0.46062 0.15907 0.30854 0.0
C560 C 0.42964 0.17749 0.37689 0.0
C561 C 0.45124 0.20924 0.35701 0.0
N562 N 0.49808 0.24642 0.29246 0.0
N563 N 0.40704 0.12203 0.34822 0.0
C564 C 0.47836 0.21613 0.31538 0.0
C565 C 0.43231 0.15235 0.3457 0.0
N566 N 0.5143 0.19856 0.27487 0.0
N567 N 0.40622 0.1711 0.42533 0.0
H568 H 0.40711 0.1029 0.32404 0.0
H569 H 0.38469 0.11629 0.36762 0.0
H570 H 0.40276 0.18859 0.44814 0.0
H571 H 0.39222 0.14882 0.44805 0.0
H572 H 0.53357 0.22165 0.27297 0.0
H573 H 0.52066 0.1815 0.26477 0.0
H574 H 0.51593 0.25228 0.25485 0.0
H575 H 0.49538 0.26545 0.30833 0.0
C576 C 0.77951 0.2559 0.28497 0.0
C577 C 0.78025 0.24365 0.35292 0.0
C578 C 0.82705 0.29525 0.3805 0.0
C579 C 0.83066 0.30422 0.30772 0.0
N580 N 0.81152 0.2885 0.18764 0.0
N581 N 0.81061 0.25134 0.46052 0.0
C582 C 0.8071 0.28342 0.25895 0.0
C583 C 0.8055 0.26324 0.3998 0.0
N584 N 0.75233 0.24157 0.24549 0.0
N585 N 0.84328 0.31735 0.43191 0.0
H586 H 0.79721 0.22767 0.47547 0.0
H587 H 0.83067 0.26448 0.49206 0.0
H588 H 0.85704 0.34155 0.42118 0.0
H589 H 0.83951 0.31207 0.48583 0.0
H590 H 0.74999 0.25103 0.19798 0.0
H591 H 0.73109 0.22261 0.26461 0.0
H592 H 0.79607 0.27218 0.15045 0.0
H593 H 0.8322 0.30691 0.16539 0.0
C594 C 0.70965 0.5575 0.33121 0.0
C595 C 0.68878 0.52917 0.29353 0.0
C596 C 0.72871 0.5124 0.30217 0.0
C597 C 0.74869 0.53983 0.34347 0.0
N598 N 0.75605 0.58651 0.40539 0.0
N599 N 0.67614 0.47718 0.25336 0.0
C600 C 0.73838 0.5616 0.36074 0.0
C601 C 0.69778 0.50602 0.28123 0.0
N602 N 0.70278 0.58139 0.33612 0.0
N603 N 0.73925 0.49222 0.28344 0.0
H604 H 0.65333 0.47154 0.23792 0.0
H605 H 0.67976 0.45794 0.25038 0.0
H606 H 0.76004 0.49431 0.30397 0.0
H607 H 0.72814 0.47427 0.24579 0.0
H608 H 0.71893 0.60421 0.35371 0.0
H609 H 0.68198 0.57964 0.31651 0.0
H610 H 0.7474 0.60004 0.42877 0.0
H611 H 0.7787 0.59272 0.42292 0.0
C612 C 0.55989 0.81068 0.68665 0.0
C613 C 0.53769 0.78318 0.64857 0.0
C614 C 0.49945 0.80207 0.65442 0.0
C615 C 0.52113 0.82815 0.69717 0.0
N616 N 0.56764 0.85155 0.77071 0.0
N617 N 0.48404 0.74984 0.60677 0.0
C618 C 0.54991 0.83051 0.71875 0.0
C619 C 0.50673 0.77801 0.6353 0.0
N620 N 0.59122 0.81926 0.68816 0.0
N621 N 0.47224 0.8006 0.63107 0.0
H622 H 0.4886 0.73183 0.59263 0.0
H623 H 0.46019 0.74336 0.60232 0.0
H624 H 0.46536 0.81664 0.64768 0.0
H625 H 0.45736 0.78446 0.59299 0.0
H626 H 0.60852 0.84107 0.70813 0.0
H627 H 0.6003 0.80679 0.66141 0.0
H628 H 0.58746 0.8522 0.79333 0.0
H629 H 0.56024 0.86566 0.79666 0.0
C630 C 0.16603 0.71481 0.72864 0.0
C631 C 0.1589 0.68911 0.6829 0.0
C632 C 0.20218 0.72555 0.60294 0.0
C633 C 0.20554 0.75206 0.64199 0.0
N634 N 0.18569 0.77084 0.73761 0.0
N635 N 0.16873 0.66986 0.57321 0.0
C636 C 0.18647 0.74638 0.70435 0.0
C637 C 0.17653 0.69447 0.619 0.0
N638 N 0.15247 0.70918 0.79458 0.0
N639 N 0.22445 0.72969 0.55322 0.0
H640 H 0.15154 0.64651 0.58483 0.0
H641 H 0.17799 0.67297 0.52206 0.0
H642 H 0.24469 0.7516 0.54332 0.0
H643 H 0.22487 0.71091 0.5278 0.0
H644 H 0.15956 0.72656 0.83372 0.0
H645 H 0.13614 0.68652 0.81272 0.0
H646 H 0.1712 0.768 0.78088 0.0
H647 H 0.1963 0.79349 0.71677 0.0
C648 C 0.24213 0.42693 0.6391 0.0
C649 C 0.23474 0.45168 0.64023 0.0
C650 C 0.28717 0.48765 0.69379 0.0
C651 C 0.29398 0.46258 0.69401 0.0
N652 N 0.27568 0.40698 0.68199 0.0
N653 N 0.24812 0.50427 0.67776 0.0
C654 C 0.27069 0.43182 0.67116 0.0
C655 C 0.25654 0.48157 0.67104 0.0
N656 N 0.22206 0.39869 0.60663 0.0
N657 N 0.31057 0.5176 0.71167 0.0
H658 H 0.22702 0.50156 0.65721 0.0
H659 H 0.26118 0.52509 0.7068 0.0
H660 H 0.33277 0.52256 0.73036 0.0
H661 H 0.30873 0.53774 0.70462 0.0
H662 H 0.22882 0.38225 0.59277 0.0
H663 H 0.19925 0.39221 0.58953 0.0
H664 H 0.25866 0.3834 0.6723 0.0
H665 H 0.296 0.40966 0.70704 0.0
C666 C 0.11227 0.5296 0.58754 0.0
C667 C 0.1247 0.54612 0.65324 0.0
C668 C 0.14688 0.51159 0.67849 0.0
C669 C 0.13139 0.49303 0.61743 0.0
N670 N 0.09753 0.48246 0.51638 0.0
N671 N 0.16317 0.55989 0.74615 0.0
C672 C 0.114 0.50181 0.57214 0.0
C673 C 0.14463 0.53901 0.69453 0.0
N674 N 0.09995 0.54083 0.53814 0.0
N675 N 0.16305 0.50243 0.72242 0.0
H676 H 0.1638 0.58129 0.75543 0.0
H677 H 0.18045 0.55805 0.77446 0.0
H678 H 0.16695 0.48382 0.71042 0.0
H679 H 0.17126 0.51208 0.77247 0.0
H680 H 0.09359 0.53164 0.48712 0.0
H681 H 0.09932 0.56162 0.54329 0.0
H682 H 0.08085 0.48475 0.4867 0.0
H683 H 0.09869 0.46236 0.50254 0.0
C684 C 0.50207 0.61253 0.67012 0.0
C685 C 0.49513 0.63376 0.6333 0.0
C686 C 0.43787 0.5941 0.64186 0.0
C687 C 0.44494 0.57408 0.68317 0.0
N688 N 0.48405 0.567 0.74631 0.0
N689 N 0.45595 0.64687 0.59514 0.0
C690 C 0.47705 0.5843 0.70069 0.0
C691 C 0.46287 0.62506 0.62173 0.0
N692 N 0.53271 0.61854 0.67318 0.0
N693 N 0.40715 0.58348 0.62183 0.0
H694 H 0.47341 0.66968 0.58033 0.0
H695 H 0.433 0.64331 0.59284 0.0
H696 H 0.38803 0.56225 0.64032 0.0
H697 H 0.4008 0.59492 0.58448 0.0
H698 H 0.53876 0.602 0.6902 0.0
H699 H 0.55206 0.63883 0.65235 0.0
H700 H 0.50639 0.5758 0.76926 0.0
H701 H 0.4673 0.5449 0.76602 0.0
C702 C 0.38333 0.84284 0.71255 0.0
C703 C 0.41098 0.86018 0.66972 0.0
C704 C 0.37846 0.86817 0.58074 0.0
C705 C 0.3512 0.85139 0.62397 0.0
N706 N 0.32558 0.81562 0.72128 0.0
N707 N 0.43056 0.87802 0.54918 0.0
C708 C 0.35306 0.83662 0.6871 0.0
C709 C 0.40733 0.86929 0.59957 0.0
N710 N 0.38582 0.83175 0.77716 0.0
N711 N 0.37735 0.88436 0.5229 0.0
H712 H 0.45166 0.87803 0.55585 0.0
H713 H 0.42723 0.8816 0.49625 0.0
H714 H 0.35645 0.88293 0.50498 0.0
H715 H 0.39763 0.90108 0.49589 0.0
H716 H 0.36794 0.82324 0.81543 0.0
H717 H 0.40616 0.83149 0.7932 0.0
H718 H 0.32463 0.80166 0.76376 0.0
H719 H 0.30311 0.80987 0.70277 0.0
C720 C 0.15497 0.33609 0.88679 0.0
C721 C 0.18162 0.33231 0.87847 0.0
C722 C 0.17937 0.33518 0.74951 0.0
C723 C 0.15172 0.3373 0.75779 0.0
N724 N 0.10926 0.33373 0.83066 0.0
N725 N 0.22453 0.33641 0.80691 0.0
C726 C 0.13838 0.33601 0.82561 0.0
C727 C 0.19554 0.33451 0.81094 0.0
N728 N 0.14619 0.34063 0.95272 0.0
N729 N 0.18929 0.33276 0.68314 0.0
H730 H 0.23719 0.3373 0.85226 0.0
H731 H 0.23716 0.33962 0.76011 0.0
H732 H 0.17701 0.33236 0.63758 0.0
H733 H 0.20791 0.32862 0.67308 0.0
H734 H 0.12865 0.34649 0.96161 0.0
H735 H 0.15842 0.34142 -0.00147 0.0
H736 H 0.09613 0.33254 0.78604 0.0
H737 H 0.09678 0.32992 0.87799 0.0
C738 C 0.66947 0.81941 0.88395 0.0
C739 C 0.66701 0.84691 0.87869 0.0
C740 C 0.66514 0.84322 0.74934 0.0
C741 C 0.66518 0.81452 0.75462 0.0
N742 N 0.67597 0.77933 0.82167 0.0
N743 N 0.65544 0.88123 0.81019 0.0
C744 C 0.67012 0.80393 0.82074 0.0
C745 C 0.66275 0.85766 0.81222 0.0
N746 N 0.66992 0.80763 0.94915 0.0
N747 N 0.66806 0.85691 0.68467 0.0
H748 H 0.65189 0.89093 0.85636 0.0
H749 H 0.64964 0.88866 0.76388 0.0
H750 H 0.67091 0.84722 0.63784 0.0
H751 H 0.67089 0.87936 0.67817 0.0
H752 H 0.66878 0.78602 0.95712 0.0
H753 H 0.66857 0.81827 -0.00396 0.0
H754 H 0.68179 0.77128 0.86695 0.0
H755 H 0.67757 0.76863 0.77495 0.0
C756 C 0.14788 0.81027 0.74051 0.0
C757 C 0.17324 0.84183 0.74444 0.0
C758 C 0.16312 0.84454 0.87077 0.0
C759 C 0.13924 0.81217 0.86751 0.0
N760 N 0.10988 0.7634 0.79999 0.0
N761 N 0.20561 0.88979 0.81014 0.0
C762 C 0.13194 0.79491 0.80301 0.0
C763 C 0.18072 0.85932 0.80868 0.0
N764 N 0.13999 0.79416 0.67756 0.0
N765 N 0.16778 0.86134 0.93226 0.0
H766 H 0.21699 0.90213 0.76402 0.0
H767 H 0.2153 0.90247 0.85658 0.0
H768 H 0.15624 0.85075 0.97963 0.0
H769 H 0.1819 0.88588 0.93617 0.0
H770 H 0.12184 0.77051 0.67336 0.0
H771 H 0.15107 0.80474 0.6298 0.0
H772 H 0.09807 0.74979 0.84441 0.0
H773 H 0.09807 0.74979 0.84441 0.0
C774 C 0.80312 0.64722 0.11898 0.0
C775 C 0.82627 0.67456 0.08297 0.0
C776 C 0.86534 0.68555 0.17603 0.0
C777 C 0.84124 0.65959 0.21446 0.0
N778 N 0.78652 0.6192 0.23077 0.0
N779 N 0.87887 0.72032 0.0743 0.0
C780 C 0.80983 0.64153 0.18825 0.0
C781 C 0.85736 0.69384 0.11062 0.0
N782 N 0.77478 0.62692 0.08704 0.0
N783 N 0.89593 0.70131 0.20071 0.0
H784 H 0.87439 0.72535 0.02333 0.0
H785 H 0.90061 0.73768 0.09479 0.0
H786 H 0.90242 0.69656 0.2497 0.0
H787 H 0.91531 0.71812 0.17165 0.0
H788 H 0.75801 0.60512 0.1082 0.0
H789 H 0.76897 0.63058 0.03625 0.0
H790 H 0.76258 0.60626 0.21716 0.0
H791 H 0.79093 0.61558 0.28297 0.0
C792 C 0.29908 0.15841 0.11316 0.0
C793 C 0.31564 0.14266 0.09289 0.0
C794 C 0.34117 0.15292 0.2086 0.0
C795 C 0.32645 0.17056 0.22689 0.0
N796 N 0.29146 0.19056 0.20067 0.0
N797 N 0.35408 0.12657 0.11592 0.0
C798 C 0.305 0.17306 0.18059 0.0
C799 C 0.3373 0.14048 0.13913 0.0
N800 N 0.27729 0.1586 0.06796 0.0
N801 N 0.35879 0.14835 0.25837 0.0
H802 H 0.35187 0.11767 0.06456 0.0
H803 H 0.37171 0.12571 0.14507 0.0
H804 H 0.36111 0.15697 0.3101 0.0
H805 H 0.36891 0.13422 0.25076 0.0
H806 H 0.26172 0.16652 0.08143 0.0
H807 H 0.2744 0.14996 0.01624 0.0
H808 H 0.27831 0.19646 0.16725 0.0
H809 H 0.29387 0.19977 0.25176 0.0
C810 C 0.83534 0.18703 0.23362 0.0
C811 C 0.82001 0.15481 0.25326 0.0
C812 C 0.82972 0.13968 0.13672 0.0
C813 C 0.84375 0.17185 0.11597 0.0
N814 N 0.85556 0.22536 0.13819 0.0
N815 N 0.80472 0.10065 0.23071 0.0
C816 C 0.8453 0.19539 0.16259 0.0
C817 C 0.81834 0.1312 0.20701 0.0
N818 N 0.83966 0.20924 0.28356 0.0
N819 N 0.82725 0.11761 0.08824 0.0
H820 H 0.79762 0.09472 0.28341 0.0
H821 H 0.80068 0.08133 0.19979 0.0
H822 H 0.83428 0.12343 0.03546 0.0
H823 H 0.81723 0.09356 0.09847 0.0
H824 H 0.85236 0.23361 0.27493 0.0
H825 H 0.83241 0.20294 0.33612 0.0
H826 H 0.85475 0.24298 0.16777 0.0
H827 H 0.86282 0.23206 0.08595 0.0
C828 C 0.49601 0.96543 0.4712 0.0
C829 C 0.49627 0.97703 0.54121 0.0
C830 C 0.48903 0.01921 0.49336 0.0
C831 C 0.48836 0.00748 0.42334 0.0
N832 N 0.498 0.97436 0.34447 0.0
N833 N 0.48391 0.00851 0.61914 0.0
C834 C 0.4931 0.98154 0.41196 0.0
C835 C 0.49068 0.00238 0.55234 0.0
N836 N 0.49884 0.93919 0.46066 0.0
N837 N 0.48787 0.04633 0.50444 0.0
H838 H 0.48301 0.99549 0.66365 0.0
H839 H 0.47559 0.02402 0.62977 0.0
H840 H 0.48144 0.05733 0.46637 0.0
H841 H 0.49432 0.05876 0.55226 0.0
H842 H 0.49248 0.92621 0.41364 0.0
H843 H 0.50688 0.92955 0.49866 0.0
H844 H 0.50556 0.95837 0.33251 0.0
H845 H 0.49757 0.98661 0.29974 0.0
C846 C 0.98958 0.51957 0.49387 0.0
C847 C 0.00294 0.51062 0.54971 0.0
C848 C 0.00674 0.47233 0.47219 0.0
C849 C 0.99293 0.48095 0.4168 0.0
N850 N 0.97069 0.51156 0.37223 0.0
N851 N 0.02583 0.48042 0.5937 0.0
C852 C 0.98459 0.50459 0.42678 0.0
C853 C 0.01176 0.48731 0.53934 0.0
N854 N 0.98305 0.54344 0.50458 0.0
N855 N 0.01351 0.44865 0.461 0.0
H856 H 0.02787 0.48967 0.6447 0.0
H857 H 0.036 0.46621 0.58892 0.0
H858 H 0.01214 0.43888 0.41107 0.0
H859 H 0.0201 0.43828 0.50037 0.0
H860 H 0.97708 0.55413 0.46476 0.0
H861 H 0.9842 0.55319 0.55437 0.0
H862 H 0.96053 0.52579 0.37684 0.0
H863 H 0.96877 0.50231 0.32127 0.0
C864 C 0.48855 0.522 0.50683 0.0
C865 C 0.47598 0.49038 0.53072 0.0
C866 C 0.48737 0.47461 0.41686 0.0
C867 C 0.50173 0.50645 0.39457 0.0
N868 N 0.51746 0.56103 0.41535 0.0
N869 N 0.46833 0.43793 0.51536 0.0
C870 C 0.50233 0.53031 0.43845 0.0
C871 C 0.477 0.46706 0.48784 0.0
N872 N 0.4868 0.54371 0.54984 0.0
N873 N 0.48426 0.45195 0.36948 0.0
H874 H 0.46051 0.43167 0.56745 0.0
H875 H 0.4713 0.42088 0.48878 0.0
H876 H 0.4913 0.45744 0.31661 0.0
H877 H 0.4726 0.42781 0.3804 0.0
H878 H 0.4923 0.56629 0.53383 0.0
H879 H 0.47907 0.53863 0.60236 0.0
H880 H 0.52202 0.58039 0.44693 0.0
H881 H 0.52616 0.5672 0.36371 0.0
C882 C 0.28938 0.29996 0.25887 0.0
C883 C 0.27243 0.28006 0.20078 0.0
C884 C 0.31807 0.27371 0.1708 0.0
C885 C 0.33316 0.29043 0.23297 0.0
N886 N 0.33889 0.32621 0.32607 0.0
N887 N 0.27043 0.24868 0.09924 0.0
C888 C 0.32066 0.30614 0.27315 0.0
C889 C 0.28682 0.26727 0.15577 0.0
N890 N 0.27474 0.31126 0.3023 0.0
N891 N 0.33398 0.26406 0.1268 0.0
H892 H 0.24854 0.24528 0.08282 0.0
H893 H 0.27788 0.23554 0.06989 0.0
H894 H 0.35715 0.26928 0.13754 0.0
H895 H 0.32575 0.25331 0.07768 0.0
H896 H 0.28497 0.32483 0.34754 0.0
H897 H 0.25111 0.30527 0.29541 0.0
H898 H 0.33241 0.33962 0.35743 0.0
H899 H 0.36205 0.33092 0.3349 0.0
C900 C 0.71956 0.04439 0.1874 0.0
C901 C 0.70037 0.04175 0.24646 0.0
C902 C 0.6832 0.9855 0.25949 0.0
C903 C 0.70438 0.98865 0.20382 0.0
N904 N 0.73639 0.01817 0.10288 0.0
N905 N 0.65848 0.00991 0.32783 0.0
C906 C 0.7207 0.01729 0.16408 0.0
C907 C 0.68017 0.0121 0.27854 0.0
N908 N 0.73767 0.0733 0.15587 0.0
N909 N 0.6672 0.95761 0.29598 0.0
H910 H 0.65606 0.02938 0.34121 0.0
H911 H 0.64139 0.98884 0.35114 0.0
H912 H 0.66852 0.93759 0.2827 0.0
H913 H 0.65373 0.95448 0.34137 0.0
H914 H 0.75512 0.07826 0.11793 0.0
H915 H 0.73574 0.09301 0.16939 0.0
H916 H 0.74669 0.03736 0.06843 0.0
H917 H 0.73682 -0.00147 0.08237 0.0
C918 C 0.9813 0.6672 0.26884 0.0
C919 C 0.95147 0.65437 0.23591 0.0
C920 C 0.97307 0.69985 0.15548 0.0
C921 C 0.00064 0.71558 0.19912 0.0
N922 N 0.02831 0.71557 0.30452 0.0
N923 N 0.91881 0.65606 0.1428 0.0
C924 C 0.00433 0.69942 0.25714 0.0
C925 C 0.94749 0.66977 0.17674 0.0
N926 N 0.98705 0.64855 0.31258 0.0
N927 N 0.97182 0.71305 0.09268 0.0
H928 H 0.90049 0.63318 0.15442 0.0
H929 H 0.91277 0.66742 0.1046 0.0
H930 H 0.99048 0.73443 0.0741 0.0
H931 H 0.95376 0.70155 0.05554 0.0
H932 H 0.00954 0.65563 0.33302 0.0
H933 H 0.96977 0.62489 0.32189 0.0
H934 H 0.0311 0.70535 0.35025 0.0
H935 H 0.04256 0.74017 0.30253 0.0
C936 C 0.6873 0.69807 0.81381 0.0
C937 C 0.71281 0.70473 0.76657 0.0
C938 C 0.67634 0.69137 0.66729 0.0
C939 C 0.65394 0.69289 0.7128 0.0
N940 N 0.63639 0.69456 0.83165 0.0
N941 N 0.7321 0.71035 0.64632 0.0
C942 C 0.65842 0.69432 0.78691 0.0
C943 C 0.70744 0.70178 0.69255 0.0
N944 N 0.69049 0.6955 0.88471 0.0
N945 N 0.66796 0.68151 0.59892 0.0
H946 H 0.75558 0.72011 0.66297 0.0
H947 H 0.72971 0.7109 0.59157 0.0
H948 H 0.64504 0.67404 0.58042 0.0
H949 H 0.68239 0.6778 0.56386 0.0
H950 H 0.67066 0.68396 0.91746 0.0
H951 H 0.71218 0.70255 0.90928 0.0
H952 H 0.64092 0.70109 0.88489 0.0
H953 H 0.61361 0.68857 0.81555 0.0
C954 C 0.30504 0.98608 0.67079 0.0
C955 C 0.29379 0.95863 0.71356 0.0
C956 C 0.27282 0.98037 0.80018 0.0
C957 C 0.28304 0.00748 0.75672 0.0
N958 N 0.31536 0.04004 0.65994 0.0
N959 N 0.28005 0.93629 0.83041 0.0
C960 C 0.30152 0.01174 0.69508 0.0
C961 C 0.28213 0.95806 0.78235 0.0
N962 N 0.31772 0.98666 0.60571 0.0
N963 N 0.25385 0.9757 0.85795 0.0
H964 H 0.28767 0.92027 0.81895 0.0
H965 H 0.27435 0.93661 0.88359 0.0
H966 H 0.2473 0.99198 0.87477 0.0
H967 H 0.24367 0.95511 0.88822 0.0
H968 H 0.32305 0.00409 0.56781 0.0
H969 H 0.32198 0.96869 0.58931 0.0
H970 H 0.3314 0.04558 0.61828 0.0
H971 H 0.31223 0.05883 0.67545 0.0
C972 C -0.00664 0.26611 0.71058 0.0
C973 C 0.97445 0.27138 0.75915 0.0
C974 C 0.01105 0.32903 0.74335 0.0
C975 C 0.0331 0.32234 0.70966 0.0
N976 N 0.04723 0.28225 0.68279 0.0
N977 N 0.96604 0.31024 0.82302 0.0
C978 C 0.02485 0.2902 0.69975 0.0
C979 C 0.98318 0.30354 0.77575 0.0
N980 N 0.98134 0.23809 0.67447 0.0
N981 N 0.01616 0.35921 0.74288 0.0
H982 H 0.9456 0.29341 0.84869 0.0
H983 H 0.97326 0.33317 0.84023 0.0
H984 H 0.03628 0.37812 0.71988 0.0
H985 H -0.00078 0.36493 0.75955 0.0
H986 H -0.00568 0.2343 0.6354 0.0
H987 H 0.95735 0.22056 0.67743 0.0
H988 H 0.042 0.25874 0.67991 0.0
H989 H 0.07139 0.29886 0.68112 0.0
C990 C 0.93331 0.59753 0.61295 0.0
C991 C 0.93885 0.61786 0.55489 0.0
C992 C -0.00371 0.63791 0.56778 0.0
C993 C 0.98924 0.6122 0.6131 0.0
N994 N 0.94832 0.56246 0.66486 0.0
N995 N 0.97747 0.65622 0.47148 0.0
C996 C 0.957 0.59059 0.63202 0.0
C997 C 0.9709 0.63812 0.53095 0.0
N998 N 0.90568 0.58521 0.6511 0.0
N999 N 0.02692 0.66232 0.56086 0.0
H1000 H 0.96037 0.65576 0.43806 0.0
H1001 H 0.00036 0.66962 0.45094 0.0
H1002 H 0.04589 0.66305 0.58808 0.0
H1003 H 0.03292 0.6833 0.53437 0.0
H1004 H 0.90197 0.57214 0.69735 0.0
H1005 H 0.88843 0.59143 0.64189 0.0
H1006 H 0.92457 0.5452 0.67333 0.0
H1007 H 0.96404 0.55451 0.67558 0.0
C1008 C 0.38702 0.35342 0.48094 0.0
C1009 C 0.36685 0.32408 0.5159 0.0
C1010 C 0.33607 0.34661 0.56684 0.0
C1011 C 0.3601 0.37669 0.54482 0.0
N1012 N 0.39977 0.40783 0.45943 0.0
N1013 N 0.32092 0.29196 0.5898 0.0
C1014 C 0.38284 0.37971 0.49455 0.0
C1015 C 0.34045 0.32017 0.5569 0.0
N1016 N 0.41026 0.3562 0.43562 0.0
N1017 N 0.30894 0.34368 0.59538 0.0
H1018 H 0.32423 0.27249 0.5862 0.0
H1019 H 0.30286 0.28855 0.62478 0.0
H1020 H 0.30615 0.36341 0.60198 0.0
H1021 H 0.28879 0.32196 0.60694 0.0
H1022 H 0.42792 0.37758 0.41485 0.0
H1023 H 0.41215 0.33693 0.41848 0.0
H1024 H 0.41506 0.41162 0.41718 0.0
H1025 H 0.39617 0.42685 0.46938 0.0
C1026 C 0.66508 0.02895 0.58994 0.0
C1027 C 0.66133 0.0491 0.54199 0.0
C1028 C 0.60492 0.00961 0.52822 0.0
C1029 C 0.60855 0.98949 0.57673 0.0
N1030 N 0.64335 0.97541 0.63465 0.0
N1031 N 0.63024 0.05453 0.44941 0.0
C1032 C 0.63921 -0.00223 0.60126 0.0
C1033 C 0.63201 0.03825 0.50634 0.0
N1034 N 0.6929 0.04001 0.6265 0.0
N1035 N 0.57547 0.0022 0.50519 0.0
H1036 H 0.64954 0.0755 0.43075 0.0
H1037 H 0.61043 0.04566 0.41647 0.0
H1038 H 0.55562 0.98009 0.5132 0.0
H1039 H 0.57067 0.01826 0.4799 0.0
H1040 H 0.69592 0.02742 0.66719 0.0
H1041 H 0.71213 0.06299 0.62034 0.0
H1042 H 0.66553 0.97893 0.64909 0.0
H1043 H 0.62465 0.95209 0.6399 0.0
C1044 C 0.33573 0.01833 0.01488 0.0
C1045 C 0.31931 0.02999 0.05601 0.0
C1046 C 0.36126 0.04958 0.14566 0.0
C1047 C 0.37878 0.03982 0.10202 0.0
N1048 N 0.37875 0.00715 0.00532 0.0
N1049 N 0.31151 0.04875 0.16777 0.0
C1050 C 0.36459 0.02141 0.04022 0.0
C1051 C 0.33043 0.04278 0.1242 0.0
N1052 N 0.32449 0.00609 0.94922 0.0
N1053 N 0.37432 0.06568 0.20725 0.0
H1054 H 0.28885 0.04379 0.15286 0.0
H1055 H 0.31678 0.05587 0.22041 0.0
H1056 H 0.39529 0.0684 0.22842 0.0
H1057 H 0.36493 0.07715 0.23658 0.0
H1058 H 0.33705 0.00102 0.91164 0.0
H1059 H 0.30269 0.00241 0.93167 0.0
H1060 H 0.36787 0.9907 0.96461 0.0
H1061 H 0.40053 0.00987 0.02024 0.0
C1062 C 0.97057 0.31956 0.02475 0.0
C1063 C 0.95526 0.29166 0.06556 0.0
C1064 C 0.93565 0.3172 0.14674 0.0
C1065 C 0.94411 0.34176 0.09591 0.0
N1066 N 0.97132 0.36725 -0.01283 0.0
N1067 N 0.92697 0.26464 0.17128 0.0
C1068 C 0.96272 0.34363 0.03577 0.0
C1069 C 0.93948 0.29097 0.12925 0.0
N1070 N 0.9923 0.32249 0.97498 0.0
N1071 N 0.92503 0.31951 0.21247 0.0
H1072 H 0.931 0.24589 0.16203 0.0
H1073 H 0.912 0.26086 0.21426 0.0
H1074 H 0.92277 0.33872 0.22808 0.0
H1075 H 0.92146 0.30413 0.25409 0.0
H1076 H 0.00691 0.34343 0.94767 0.0
H1077 H -0.00229 0.30454 0.96662 0.0
H1078 H 0.9827 0.36841 0.93952 0.0
H1079 H 0.96507 0.38465 -0.00798 0.0
C1080 C 0.71472 0.65219 0.12603 0.0
C1081 C 0.71158 0.67373 0.08249 0.0
C1082 C 0.65463 0.63753 0.0715 0.0
C1083 C 0.65804 0.61371 0.10706 0.0
N1084 N 0.69075 0.5999 0.17775 0.0
N1085 N 0.67843 0.6939 0.04665 0.0
C1086 C 0.68792 0.62159 0.13786 0.0
C1087 C 0.68137 0.6686 0.06549 0.0
N1088 N 0.74338 0.66202 0.15787 0.0
N1089 N 0.62652 0.63003 0.03959 0.0
H1090 H 0.6983 0.71669 0.04314 0.0
H1091 H 0.65654 0.69262 0.04053 0.0
H1092 H 0.60685 0.6071 0.03931 0.0
H1093 H 0.62374 0.64588 0.0079 0.0
H1094 H 0.74743 0.64918 0.19601 0.0
H1095 H 0.76268 0.68487 0.15017 0.0
H1096 H 0.71236 0.6024 0.19317 0.0
H1097 H 0.67136 0.5789 0.19543 0.0
C1098 C 0.61894 0.94339 0.8337 0.0
C1099 C 0.60065 0.95075 0.88095 0.0
C1100 C 0.64418 0.97162 0.96703 0.0
C1101 C 0.66125 0.96202 0.92198 0.0
N1102 N 0.67105 0.95139 0.80323 0.0
N1103 N 0.6005 0.98161 0.98121 0.0
C1104 C 0.65066 0.95211 0.85206 0.0
C1105 C 0.61484 0.9682 0.94389 0.0
N1106 N 0.60598 0.92773 0.77161 0.0
N1107 N 0.65554 0.98261 0.03345 0.0
H1108 H 0.5791 0.9796 0.96566 0.0
H1109 H 0.61109 -0.003 0.02383 0.0
H1110 H 0.67783 0.98692 0.04948 0.0
H1111 H 0.64262 0.98618 0.07289 0.0
H1112 H 0.61644 0.9178 0.7404 0.0
H1113 H 0.58382 0.92291 0.75313 0.0
H1114 H 0.66568 0.94676 0.7496 0.0
H1115 H 0.69462 0.95857 0.8153 0.0
C1116 C 0.04529 0.66773 0.8367 0.0
C1117 C 0.04091 0.64383 0.88611 0.0
C1118 C 0.01816 0.66482 0.97179 0.0
C1119 C 0.02535 0.69024 0.92495 0.0
N1120 N 0.03231 0.70797 0.80429 0.0
N1121 N 0.01556 0.61464 -0.00717 0.0
C1122 C 0.03444 0.68903 0.85438 0.0
C1123 C 0.02455 0.64057 0.95092 0.0
N1124 N 0.06005 0.67035 0.77315 0.0
N1125 N 0.00693 0.66522 0.03799 0.0
H1126 H 0.02152 0.59743 0.98144 0.0
H1127 H 0.00069 0.60913 0.03676 0.0
H1128 H 0.00054 0.68191 0.05199 0.0
H1129 H 0.00487 0.65011 0.07901 0.0
H1130 H 0.06757 0.68966 0.73939 0.0
H1131 H 0.06645 0.65411 0.75537 0.0
H1132 H 0.03623 0.70654 0.75044 0.0
H1133 H 0.02295 0.72256 0.81549 0.0
C1134 C 0.2962 0.32132 0.84841 0.0
C1135 C 0.2918 0.31898 0.92263 0.0
C1136 C 0.33592 0.37319 0.93849 0.0
C1137 C 0.33891 0.37695 0.86398 0.0
N1138 N 0.32813 0.35146 0.74897 0.0
N1139 N 0.31727 0.33588 0.03582 0.0
C1140 C 0.32123 0.34996 0.81931 0.0
C1141 C 0.31557 0.34261 0.96648 0.0
N1142 N 0.27565 0.29713 0.80529 0.0
N1143 N 0.35118 0.39875 0.98268 0.0
H1144 H 0.30201 0.31335 0.05623 0.0
H1145 H 0.33543 0.35124 0.06981 0.0
H1146 H 0.36498 0.42187 0.96434 0.0
H1147 H 0.3475 0.39733 0.03732 0.0
H1148 H 0.27422 0.29964 0.75081 0.0
H1149 H 0.26033 0.27433 0.824 0.0
H1150 H 0.32128 0.33108 0.71896 0.0
H1151 H 0.34227 0.37261 0.72218 0.0
C1152 C -0.00399 0.35214 0.39957 0.0
C1153 C 0.0026 0.37736 0.3529 0.0
C1154 C 0.05852 0.39164 0.34869 0.0
C1155 C 0.05343 0.37151 0.40649 0.0
N1156 N 0.01632 0.33166 0.48846 0.0
N1157 N 0.04274 0.42584 0.29509 0.0
C1158 C 0.02184 0.35116 0.43206 0.0
C1159 C 0.03453 0.39829 0.33015 0.0
N1160 N 0.9653 0.32854 0.41082 0.0
N1161 N 0.08644 0.40452 0.31151 0.0
H1162 H 0.02696 0.43374 0.28472 0.0
H1163 H 0.0663 0.44291 0.28408 0.0
H1164 H 0.10416 0.39911 0.32277 0.0
H1165 H 0.0902 0.41733 0.26485 0.0
H1166 H 0.95933 0.30789 0.43869 0.0
H1167 H 0.94589 0.32809 0.38643 0.0
H1168 H -0.00529 0.32026 0.51562 0.0
H1169 H 0.03346 0.32748 0.50959 0.0
C1170 C 0.63324 0.675 0.37191 0.0
C1171 C 0.61195 0.6705 0.42834 0.0
C1172 C 0.60429 0.61767 0.45072 0.0
C1173 C 0.62111 0.62022 0.38783 0.0
N1174 N 0.65318 0.65058 0.28934 0.0
N1175 N 0.57656 0.63748 0.5215 0.0
C1176 C 0.63664 0.64901 0.34942 0.0
C1177 C 0.5974 0.64184 0.46801 0.0
N1178 N 0.64984 0.70392 0.33966 0.0
N1179 N 0.59463 0.59177 0.4932 0.0
H1180 H 0.57208 0.6551 0.53897 0.0
H1181 H 0.56205 0.61566 0.54561 0.0
H1182 H 0.59968 0.57389 0.4811 0.0
H1183 H 0.58449 0.58937 0.54314 0.0
H1184 H 0.668 0.70974 0.30303 0.0
H1185 H 0.64635 0.72282 0.35189 0.0
H1186 H 0.66204 0.66923 0.25336 0.0
H1187 H 0.65725 0.63225 0.27474 0.0
C1188 C 0.34761 0.99337 0.38049 0.0
C1189 C 0.37769 -0.00019 0.40527 0.0
C1190 C 0.3514 0.95099 0.4751 0.0
C1191 C 0.32289 0.94106 0.43653 0.0
N1192 N 0.2936 0.95328 0.35161 0.0
N1193 N 0.40837 0.98374 0.47623 0.0
C1194 C 0.32075 0.96257 0.38955 0.0
C1195 C 0.37962 0.97859 0.45345 0.0
N1196 N 0.34513 0.01691 0.34777 0.0
N1197 N 0.35128 0.93524 0.53499 0.0
H1198 H 0.42936 0.00462 0.46604 0.0
H1199 H 0.4113 0.96668 0.50267 0.0
H1200 H 0.33077 0.91596 0.55564 0.0
H1201 H 0.37081 0.94355 0.56871 0.0
H1202 H 0.32356 0.01474 0.33264 0.0
H1203 H 0.36468 0.03981 0.34299 0.0
H1204 H 0.29189 0.96683 0.31126 0.0
H1205 H 0.27347 0.9309 0.35657 0.0
C1206 C 0.19329 0.33846 0.29315 0.0
C1207 C 0.16668 0.31104 0.26298 0.0
C1208 C 0.13189 0.31572 0.35106 0.0
C1209 C 0.15797 0.34507 0.37594 0.0
N1210 N 0.21287 0.38611 0.36491 0.0
N1211 N 0.10994 0.27668 0.25614 0.0
C1212 C 0.18842 0.35702 0.34485 0.0
C1213 C 0.13579 0.3004 0.29029 0.0
N1214 N 0.22353 0.34594 0.27506 0.0
N1215 N 0.10331 0.30211 0.38571 0.0
H1216 H 0.11185 0.265 0.2116 0.0
H1217 H 0.08657 0.27041 0.26804 0.0
H1218 H 0.09863 0.31266 0.42841 0.0
H1219 H 0.08489 0.27912 0.37558 0.0
H1220 H 0.2438 0.36325 0.30088 0.0
H1221 H 0.22841 0.33276 0.23902 0.0
H1222 H 0.23453 0.39792 0.33805 0.0
H1223 H 0.21084 0.39957 0.40548 0.0
C1224 C 0.67269 0.86288 0.3334 0.0
C1225 C 0.67651 0.85129 0.26676 0.0
C1226 C 0.6403 0.79641 0.30718 0.0
C1227 C 0.63825 0.80793 0.37531 0.0
N1228 N 0.65498 0.85184 0.45605 0.0
N1229 N 0.66816 0.80707 0.1943 0.0
C1230 C 0.65523 0.84111 0.38907 0.0
C1231 C 0.66128 0.81802 0.25479 0.0
N1232 N 0.68442 0.89467 0.34269 0.0
N1233 N 0.62233 0.76469 0.29255 0.0
H1234 H 0.68396 0.8222 0.15595 0.0
H1235 H 0.66076 0.78333 0.18482 0.0
H1236 H 0.60779 0.74791 0.32991 0.0
H1237 H 0.61989 0.7551 0.24202 0.0
H1238 H 0.67893 0.90427 0.38613 0.0
H1239 H 0.69804 0.9116 0.30477 0.0
H1240 H 0.67021 0.87506 0.47268 0.0
H1241 H 0.64046 0.83701 0.49649 0.0
C1242 C 0.1318 0.79976 0.30572 0.0
C1243 C 0.14008 0.82318 0.25225 0.0
C1244 C 0.19387 0.85292 0.30363 0.0
C1245 C 0.18379 0.83188 0.3625 0.0
N1246 N 0.14161 0.78722 0.42381 0.0
N1247 N 0.17876 0.87353 0.20306 0.0
C1248 C 0.15223 0.80597 0.36491 0.0
C1249 C 0.17113 0.85022 0.25202 0.0
N1250 N 0.10546 0.77057 0.29754 0.0
N1251 N 0.22537 0.87498 0.29618 0.0
H1252 H 0.16278 0.87203 0.16439 0.0
H1253 H 0.19986 0.89532 0.20414 0.0
H1254 H 0.24253 0.87684 0.33189 0.0
H1255 H 0.2349 0.88921 0.25155 0.0
H1256 H 0.09997 0.75147 0.33073 0.0
H1257 H 0.0912 0.76457 0.25279 0.0
H1258 H 0.11775 0.77026 0.43188 0.0
H1259 H 0.15631 0.79007 0.4667 0.0
C1260 C 0.81068 0.6584 0.58886 0.0
C1261 C 0.83321 0.64829 0.59675 0.0
C1262 C 0.85041 0.67763 0.71051 0.0
C1263 C 0.82598 0.6853 0.70506 0.0
N1264 N 0.77794 0.67602 0.64726 0.0
N1265 N 0.87362 0.6467 0.66715 0.0
C1266 C 0.80482 0.67383 0.64635 0.0
C1267 C 0.85274 0.65738 0.65845 0.0
N1268 N 0.79518 0.65381 0.52588 0.0
N1269 N 0.8717 0.6902 0.765 0.0
H1270 H 0.87717 0.63336 0.62883 0.0
H1271 H 0.88613 0.64938 0.7137 0.0
H1272 H 0.87015 0.70451 0.80421 0.0
H1273 H 0.89206 0.68843 0.76909 0.0
H1274 H 0.78121 0.66381 0.51429 0.0
H1275 H 0.79842 0.64223 0.48295 0.0
H1276 H 0.75984 0.6651 0.60988 0.0
H1277 H 0.77223 0.68604 0.68951 0.0
C1278 C 0.30748 0.13202 0.64001 0.0
C1279 C 0.30534 0.14277 0.70908 0.0
C1280 C 0.34001 0.19826 0.66994 0.0
C1281 C 0.34387 0.18739 0.60261 0.0
N1282 N 0.33392 0.14407 0.52516 0.0
N1283 N 0.32213 0.18601 0.79216 0.0
C1284 C 0.32819 0.15427 0.5882 0.0
C1285 C 0.32246 0.17588 0.72462 0.0
N1286 N 0.28976 0.10044 0.62365 0.0
N1287 N 0.35162 0.22997 0.68051 0.0
H1288 H 0.30769 0.17086 0.83218 0.0
H1289 H 0.33729 0.20911 0.80964 0.0
H1290 H 0.36501 0.24714 0.64267 0.0
H1291 H 0.3462 0.23922 0.72471 0.0
H1292 H 0.287 0.09141 0.57246 0.0
H1293 H 0.27598 0.08296 0.6604 0.0
H1294 H 0.32668 0.12052 0.51367 0.0
H1295 H 0.34819 0.15958 0.48551 0.0
C1296 C 0.83121 0.1804 0.61056 0.0
C1297 C 0.7979 0.16102 0.62127 0.0
C1298 C 0.80798 0.14422 0.73687 0.0
C1299 C 0.84129 0.16499 0.72808 0.0
N1300 N 0.88408 0.20737 0.66149 0.0
N1301 N 0.75413 0.12772 0.69819 0.0
C1302 C 0.85277 0.18424 0.6661 0.0
C1303 C 0.7862 0.14407 0.68584 0.0
N1304 N 0.84233 0.19473 0.54632 0.0
N1305 N 0.79727 0.12357 0.79264 0.0
H1306 H 0.73764 0.12675 0.6616 0.0
H1307 H 0.74392 0.1173 0.74654 0.0
H1308 H 0.81256 0.12253 0.82974 0.0
H1309 H 0.77372 0.10558 0.79892 0.0
H1310 H 0.86614 0.20557 0.53122 0.0
H1311 H 0.82735 0.19429 0.50633 0.0
H1312 H 0.89308 0.22471 0.62231 0.0
H1313 H 0.90086 0.21087 0.69975 0.0
C1314 C 0.47349 0.01343 0.9701 0.0
C1315 C 0.48893 0.01721 0.03674 0.0
C1316 C 0.50751 0.98113 -0.00469 0.0
C1317 C 0.49239 0.97746 0.92832 0.0
N1318 N 0.45579 0.98505 0.85764 0.0
N1319 N 0.52741 0.0114 0.10431 0.0
C1320 C 0.47432 0.99263 0.91705 0.0
C1321 C 0.50757 0.00268 0.04697 0.0
N1322 N 0.45838 0.03003 0.95656 0.0
N1323 N 0.5213 0.96349 0.01118 0.0
H1324 H 0.5293 0.02819 0.1413 0.0
H1325 H 0.54463 0.00498 0.11115 0.0
H1326 H 0.52408 0.94887 0.97536 0.0
H1327 H 0.52816 0.96151 0.06222 0.0
H1328 H 0.45054 0.03191 0.9066 0.0
H1329 H 0.45524 0.04392 -0.00608 0.0
H1330 H 0.43919 0.99209 0.84867 0.0
H1331 H 0.45458 0.96889 0.81964 0.0
C1332 C 0.97382 0.46081 0.97279 0.0
C1333 C 0.97119 0.47447 0.03785 0.0
C1334 C 0.01527 0.52661 -0.00083 0.0
C1335 C 0.01738 0.51329 0.93317 0.0
N1336 N 0.00511 0.4663 0.86727 0.0
N1337 N 0.98299 0.52177 0.10194 0.0
C1338 C -0.00182 0.47999 0.92275 0.0
C1339 C 0.99022 0.50775 0.04771 0.0
N1340 N 0.95249 0.42987 0.95677 0.0
N1341 N 0.03796 0.55665 0.01844 0.0
H1342 H 0.96393 0.50893 0.13647 0.0
H1343 H 0.99321 0.54625 0.10742 0.0
H1344 H 0.05743 0.5718 -0.01233 0.0
H1345 H 0.03951 0.56567 0.06936 0.0
H1346 H 0.95053 0.42004 0.90665 0.0
H1347 H 0.93461 0.41424 -0.00947 0.0
H1348 H -0.00504 0.44192 0.86043 0.0
H1349 H 0.02394 0.47936 0.83234 0.0
C1350 C 0.46364 0.47222 0.97903 0.0
C1351 C 0.47414 0.489 0.91389 0.0
C1352 C 0.52982 0.51195 0.95427 0.0
C1353 C 0.51887 0.49805 0.02223 0.0
N1354 N 0.47504 0.46794 0.10215 0.0
N1355 N 0.51736 0.52579 0.83969 0.0
C1356 C 0.48567 0.47913 0.03536 0.0
C1357 C 0.50735 0.50897 0.90144 0.0
N1358 N 0.4329 0.44804 -0.01449 0.0
N1359 N 0.56177 0.52806 0.94034 0.0
H1360 H 0.50173 0.52348 0.79942 0.0
H1361 H 0.54072 0.54345 0.82976 0.0
H1362 H 0.5788 0.5315 0.97816 0.0
H1363 H 0.57149 0.53613 0.89029 0.0
H1364 H 0.42448 0.43269 0.02865 0.0
H1365 H 0.4167 0.44111 0.94402 0.0
H1366 H 0.45123 0.45746 0.1172 0.0
H1367 H 0.49028 0.47092 0.14394 0.0
loop_
_geom_bond_atom_site_label_1
_geom_bond_atom_site_label_2
_geom_bond_distance
_geom_bond_site_symmetry_2
_ccdc_geom_bond_type
Sc0 O3 2.025 1_556 S
Sc0 O10 2.105 . S
Sc0 O13 2.105 . S
Sc0 O16 2.105 . S
Sc0 O19 2.105 . S
Sc1 O3 2.025 . S
Sc1 O11 2.105 . S
Sc1 O15 2.105 . S
Sc1 O17 2.105 1_554 S
Sc1 O21 2.105 . S
Sc2 O3 2.025 . S
Sc2 O12 2.105 . S
Sc2 O14 2.105 . S
Sc2 O18 2.105 . S
Sc2 O20 2.105 . S
O3 Sc0 2.025 1_554 S
O3 Sc1 2.025 . S
O3 Sc2 2.025 . S
C4 O10 1.268 1_554 S
C4 O20 1.268 . S
C5 O11 1.268 1_556 S
C5 O19 1.268 . S
C6 O12 1.268 . S
C6 O21 1.268 . S
C7 O13 1.268 . S
C7 O17 1.268 . S
C8 O14 1.268 . S
C8 O16 1.268 1_554 S
C9 O15 1.268 . S
C9 O18 1.268 . S
O10 Sc0 2.105 . S
O10 C4 1.268 1_556 S
O11 Sc1 2.105 . S
O11 C5 1.268 1_554 S
O12 Sc2 2.105 . S
O12 C6 1.268 . S
O13 Sc0 2.105 . S
O13 C7 1.268 . S
O14 Sc2 2.105 . S
O14 C8 1.268 . S
O15 Sc1 2.105 . S
O15 C9 1.268 . S
O16 Sc0 2.105 . S
O16 C8 1.268 1_556 S
O17 Sc1 2.105 1_556 S
O17 C7 1.268 . S
O18 Sc2 2.105 . S
O18 C9 1.268 . S
O19 Sc0 2.105 . S
O19 C5 1.268 . S
O20 Sc2 2.105 . S
O20 C4 1.268 . S
O21 Sc1 2.105 . S
O21 C6 1.268 . S
Sc22 O25 2.025 1_556 S
Sc22 O32 2.105 . S
Sc22 O35 2.105 . S
Sc22 O38 2.105 . S
Sc22 O41 2.105 . S
Sc23 O25 2.025 . S
Sc23 O33 2.105 . S
Sc23 O37 2.105 . S
Sc23 O39 2.105 1_554 S
Sc23 O43 2.105 . S
Sc24 O25 2.025 . S
Sc24 O34 2.105 . S
Sc24 O36 2.105 . S
Sc24 O40 2.105 . S
Sc24 O42 2.105 . S
O25 Sc22 2.025 1_554 S
O25 Sc23 2.025 . S
O25 Sc24 2.025 . S
C26 O32 1.268 1_554 S
C26 O42 1.268 . S
C27 O33 1.268 1_556 S
C27 O41 1.268 . S
C28 O34 1.268 . S
C28 O43 1.268 . S
C29 O35 1.268 . S
C29 O39 1.268 . S
C30 O36 1.268 . S
C30 O38 1.268 1_554 S
C31 O37 1.268 . S
C31 O40 1.268 . S
O32 Sc22 2.105 . S
O32 C26 1.268 1_556 S
O33 Sc23 2.105 . S
O33 C27 1.268 1_554 S
O34 Sc24 2.105 . S
O34 C28 1.268 . S
O35 Sc22 2.105 . S
O35 C29 1.268 . S
O36 Sc24 2.105 . S
O36 C30 1.268 . S
O37 Sc23 2.105 . S
O37 C31 1.268 . S
O38 Sc22 2.105 . S
O38 C30 1.268 1_556 S
O39 Sc23 2.105 1_556 S
O39 C29 1.268 . S
O40 Sc24 2.105 . S
O40 C31 1.268 . S
O41 Sc22 2.105 . S
O41 C27 1.268 . S
O42 Sc24 2.105 . S
O42 C26 1.268 . S
O43 Sc23 2.105 . S
O43 C28 1.268 . S
Sc44 O47 2.025 1_556 S
Sc44 O54 2.105 . S
Sc44 O57 2.105 . S
Sc44 O60 2.105 . S
Sc44 O63 2.105 . S
Sc45 O47 2.025 . S
Sc45 O55 2.105 . S
Sc45 O59 2.105 . S
Sc45 O61 2.105 1_554 S
Sc45 O65 2.105 . S
Sc46 O47 2.025 . S
Sc46 O56 2.105 . S
Sc46 O58 2.105 . S
Sc46 O62 2.105 . S
Sc46 O64 2.105 . S
O47 Sc44 2.025 1_554 S
O47 Sc45 2.025 . S
O47 Sc46 2.025 . S
C48 O54 1.268 1_554 S
C48 O64 1.268 . S
C49 O55 1.268 1_556 S
C49 O63 1.268 . S
C50 O56 1.268 . S
C50 O65 1.268 . S
C51 O57 1.268 . S
C51 O61 1.268 . S
C52 O58 1.268 . S
C52 O60 1.268 1_554 S
C53 O59 1.268 . S
C53 O62 1.268 . S
O54 Sc44 2.105 . S
O54 C48 1.268 1_556 S
O55 Sc45 2.105 . S
O55 C49 1.268 1_554 S
O56 Sc46 2.105 . S
O56 C50 1.268 . S
O57 Sc44 2.105 . S
O57 C51 1.268 . S
O58 Sc46 2.105 . S
O58 C52 1.268 . S
O59 Sc45 2.105 . S
O59 C53 1.268 . S
O60 Sc44 2.105 . S
O60 C52 1.268 1_556 S
O61 Sc45 2.105 1_556 S
O61 C51 1.268 . S
O62 Sc46 2.105 . S
O62 C53 1.268 . S
O63 Sc44 2.105 . S
O63 C49 1.268 . S
O64 Sc46 2.105 . S
O64 C48 1.268 . S
O65 Sc45 2.105 . S
O65 C50 1.268 . S
Sc66 O69 2.025 . S
Sc66 O76 2.105 . S
Sc66 O79 2.105 . S
Sc66 O82 2.105 . S
Sc66 O85 2.105 . S
Sc67 O69 2.025 . S
Sc67 O77 2.105 . S
Sc67 O81 2.105 1_556 S
Sc67 O83 2.105 . S
Sc67 O87 2.105 . S
Sc68 O69 2.025 1_554 S
Sc68 O78 2.105 . S
Sc68 O80 2.105 . S
Sc68 O84 2.105 . S
Sc68 O86 2.105 . S
O69 Sc66 2.025 . S
O69 Sc67 2.025 . S
O69 Sc68 2.025 1_556 S
C70 O76 1.268 . S
C70 O86 1.268 1_556 S
C71 O77 1.268 . S
C71 O85 1.268 . S
C72 O78 1.268 . S
C72 O87 1.268 1_554 S
C73 O79 1.268 . S
C73 O83 1.268 . S
C74 O80 1.268 1_556 S
C74 O82 1.268 . S
C75 O81 1.268 . S
C75 O84 1.268 . S
O76 Sc66 2.105 . S
O76 C70 1.268 . S
O77 Sc67 2.105 . S
O77 C71 1.268 . S
O78 Sc68 2.105 . S
O78 C72 1.268 . S
O79 Sc66 2.105 . S
O79 C73 1.268 . S
O80 Sc68 2.105 . S
O80 C74 1.268 1_554 S
O81 Sc67 2.105 1_554 S
O81 C75 1.268 . S
O82 Sc66 2.105 . S
O82 C74 1.268 . S
O83 Sc67 2.105 . S
O83 C73 1.268 . S
O84 Sc68 2.105 . S
O84 C75 1.268 . S
O85 Sc66 2.105 . S
O85 C71 1.268 . S
O86 Sc68 2.105 . S
O86 C70 1.268 1_554 S
O87 Sc67 2.105 . S
O87 C72 1.268 1_556 S
Sc88 O91 2.025 . S
Sc88 O98 2.105 . S
Sc88 O101 2.105 . S
Sc88 O104 2.105 . S
Sc88 O107 2.105 . S
Sc89 O91 2.025 . S
Sc89 O99 2.105 . S
Sc89 O103 2.105 1_556 S
Sc89 O105 2.105 . S
Sc89 O109 2.105 . S
Sc90 O91 2.025 1_554 S
Sc90 O100 2.105 . S
Sc90 O102 2.105 . S
Sc90 O106 2.105 . S
Sc90 O108 2.105 . S
O91 Sc88 2.025 . S
O91 Sc89 2.025 . S
O91 Sc90 2.025 1_556 S
C92 O98 1.268 . S
C92 O108 1.268 1_556 S
C93 O99 1.268 . S
C93 O107 1.268 . S
C94 O100 1.268 . S
C94 O109 1.268 1_554 S
C95 O101 1.268 . S
C95 O105 1.268 . S
C96 O102 1.268 1_556 S
C96 O104 1.268 . S
C97 O103 1.268 . S
C97 O106 1.268 . S
O98 Sc88 2.105 . S
O98 C92 1.268 . S
O99 Sc89 2.105 . S
O99 C93 1.268 . S
O100 Sc90 2.105 . S
O100 C94 1.268 . S
O101 Sc88 2.105 . S
O101 C95 1.268 . S
O102 Sc90 2.105 . S
O102 C96 1.268 1_554 S
O103 Sc89 2.105 1_554 S
O103 C97 1.268 . S
O104 Sc88 2.105 . S
O104 C96 1.268 . S
O105 Sc89 2.105 . S
O105 C95 1.268 . S
O106 Sc90 2.105 . S
O106 C97 1.268 . S
O107 Sc88 2.105 . S
O107 C93 1.268 . S
O108 Sc90 2.105 . S
O108 C92 1.268 1_554 S
O109 Sc89 2.105 . S
O109 C94 1.268 1_556 S
Sc110 O113 2.025 . S
Sc110 O120 2.105 . S
Sc110 O123 2.105 . S
Sc110 O126 2.105 . S
Sc110 O129 2.105 . S
Sc111 O113 2.025 . S
Sc111 O121 2.105 . S
Sc111 O125 2.105 1_556 S
Sc111 O127 2.105 . S
Sc111 O131 2.105 . S
Sc112 O113 2.025 1_554 S
Sc112 O122 2.105 . S
Sc112 O124 2.105 . S
Sc112 O128 2.105 . S
Sc112 O130 2.105 . S
O113 Sc110 2.025 . S
O113 Sc111 2.025 . S
O113 Sc112 2.025 1_556 S
C114 O120 1.268 . S
C114 O130 1.268 1_556 S
C115 O121 1.268 . S
C115 O129 1.268 . S
C116 O122 1.268 . S
C116 O131 1.268 1_554 S
C117 O123 1.268 . S
C117 O127 1.268 . S
C118 O124 1.268 1_556 S
C118 O126 1.268 . S
C119 O125 1.268 . S
C119 O128 1.268 . S
O120 Sc110 2.105 . S
O120 C114 1.268 . S
O121 Sc111 2.105 . S
O121 C115 1.268 . S
O122 Sc112 2.105 . S
O122 C116 1.268 . S
O123 Sc110 2.105 . S
O123 C117 1.268 . S
O124 Sc112 2.105 . S
O124 C118 1.268 1_554 S
O125 Sc111 2.105 1_554 S
O125 C119 1.268 . S
O126 Sc110 2.105 . S
O126 C118 1.268 . S
O127 Sc111 2.105 . S
O127 C117 1.268 . S
O128 Sc112 2.105 . S
O128 C119 1.268 . S
O129 Sc110 2.105 . S
O129 C115 1.268 . S
O130 Sc112 2.105 . S
O130 C114 1.268 1_554 S
O131 Sc111 2.105 . S
O131 C116 1.268 1_556 S
Sc132 O135 2.025 . S
Sc132 O142 2.105 . S
Sc132 O145 2.105 . S
Sc132 O148 2.105 . S
Sc132 O151 2.105 . S
Sc133 O135 2.025 . S
Sc133 O143 2.105 . S
Sc133 O147 2.105 . S
Sc133 O149 2.105 . S
Sc133 O153 2.105 . S
Sc134 O135 2.025 . S
Sc134 O144 2.105 . S
Sc134 O146 2.105 . S
Sc134 O150 2.105 . S
Sc134 O152 2.105 . S
O135 Sc132 2.025 . S
O135 Sc133 2.025 . S
O135 Sc134 2.025 . S
C136 O142 1.268 . S
C136 O152 1.268 . S
C137 O143 1.268 . S
C137 O151 1.268 . S
C138 O144 1.268 . S
C138 O153 1.268 . S
C139 O145 1.268 . S
C139 O149 1.268 . S
C140 O146 1.268 . S
C140 O148 1.268 . S
C141 O147 1.268 . S
C141 O150 1.268 . S
O142 Sc132 2.105 . S
O142 C136 1.268 . S
O143 Sc133 2.105 . S
O143 C137 1.268 . S
O144 Sc134 2.105 . S
O144 C138 1.268 . S
O145 Sc132 2.105 . S
O145 C139 1.268 . S
O146 Sc134 2.105 . S
O146 C140 1.268 . S
O147 Sc133 2.105 . S
O147 C141 1.268 . S
O148 Sc132 2.105 . S
O148 C140 1.268 . S
O149 Sc133 2.105 . S
O149 C139 1.268 . S
O150 Sc134 2.105 . S
O150 C141 1.268 . S
O151 Sc132 2.105 . S
O151 C137 1.268 . S
O152 Sc134 2.105 . S
O152 C136 1.268 . S
O153 Sc133 2.105 . S
O153 C138 1.268 . S
Sc154 O157 2.025 . S
Sc154 O164 2.105 . S
Sc154 O167 2.105 . S
Sc154 O170 2.105 . S
Sc154 O173 2.105 . S
Sc155 O157 2.025 . S
Sc155 O165 2.105 . S
Sc155 O169 2.105 . S
Sc155 O171 2.105 . S
Sc155 O175 2.105 . S
Sc156 O157 2.025 . S
Sc156 O166 2.105 . S
Sc156 O168 2.105 . S
Sc156 O172 2.105 . S
Sc156 O174 2.105 . S
O157 Sc154 2.025 . S
O157 Sc155 2.025 . S
O157 Sc156 2.025 . S
C158 O164 1.268 . S
C158 O174 1.268 . S
C159 O165 1.268 . S
C159 O173 1.268 . S
C160 O166 1.268 . S
C160 O175 1.268 . S
C161 O167 1.268 . S
C161 O171 1.268 . S
C162 O168 1.268 . S
C162 O170 1.268 . S
C163 O169 1.268 . S
C163 O172 1.268 . S
O164 Sc154 2.105 . S
O164 C158 1.268 . S
O165 Sc155 2.105 . S
O165 C159 1.268 . S
O166 Sc156 2.105 . S
O166 C160 1.268 . S
O167 Sc154 2.105 . S
O167 C161 1.268 . S
O168 Sc156 2.105 . S
O168 C162 1.268 . S
O169 Sc155 2.105 . S
O169 C163 1.268 . S
O170 Sc154 2.105 . S
O170 C162 1.268 . S
O171 Sc155 2.105 . S
O171 C161 1.268 . S
O172 Sc156 2.105 . S
O172 C163 1.268 . S
O173 Sc154 2.105 . S
O173 C159 1.268 . S
O174 Sc156 2.105 . S
O174 C158 1.268 . S
O175 Sc155 2.105 . S
O175 C160 1.268 . S
Sc176 O179 2.025 . S
Sc176 O186 2.105 . S
Sc176 O189 2.105 . S
Sc176 O192 2.105 . S
Sc176 O195 2.105 . S
Sc177 O179 2.025 . S
Sc177 O187 2.105 . S
Sc177 O191 2.105 . S
Sc177 O193 2.105 . S
Sc177 O197 2.105 . S
Sc178 O179 2.025 . S
Sc178 O188 2.105 . S
Sc178 O190 2.105 . S
Sc178 O194 2.105 . S
Sc178 O196 2.105 . S
O179 Sc176 2.025 . S
O179 Sc177 2.025 . S
O179 Sc178 2.025 . S
C180 O186 1.268 . S
C180 O196 1.268 . S
C181 O187 1.268 . S
C181 O195 1.268 . S
C182 O188 1.268 . S
C182 O197 1.268 . S
C183 O189 1.268 . S
C183 O193 1.268 . S
C184 O190 1.268 . S
C184 O192 1.268 . S
C185 O191 1.268 . S
C185 O194 1.268 . S
O186 Sc176 2.105 . S
O186 C180 1.268 . S
O187 Sc177 2.105 . S
O187 C181 1.268 . S
O188 Sc178 2.105 . S
O188 C182 1.268 . S
O189 Sc176 2.105 . S
O189 C183 1.268 . S
O190 Sc178 2.105 . S
O190 C184 1.268 . S
O191 Sc177 2.105 . S
O191 C185 1.268 . S
O192 Sc176 2.105 . S
O192 C184 1.268 . S
O193 Sc177 2.105 . S
O193 C183 1.268 . S
O194 Sc178 2.105 . S
O194 C185 1.268 . S
O195 Sc176 2.105 . S
O195 C181 1.268 . S
O196 Sc178 2.105 . S
O196 C180 1.268 . S
O197 Sc177 2.105 . S
O197 C182 1.268 . S
Sc198 O201 2.025 . S
Sc198 O208 2.105 . S
Sc198 O211 2.105 . S
Sc198 O214 2.105 . S
Sc198 O217 2.105 . S
Sc199 O201 2.025 . S
Sc199 O209 2.105 . S
Sc199 O213 2.105 . S
Sc199 O215 2.105 . S
Sc199 O219 2.105 1_545 S
Sc200 O201 2.025 . S
Sc200 O210 2.105 . S
Sc200 O212 2.105 . S
Sc200 O216 2.105 . S
Sc200 O218 2.105 . S
O201 Sc198 2.025 . S
O201 Sc199 2.025 . S
O201 Sc200 2.025 . S
C202 O208 1.268 . S
C202 O218 1.268 . S
C203 O209 1.268 . S
C203 O217 1.268 . S
C204 O210 1.268 . S
C204 O219 1.268 1_545 S
C205 O211 1.268 . S
C205 O215 1.268 . S
C206 O212 1.268 . S
C206 O214 1.268 . S
C207 O213 1.268 . S
C207 O216 1.268 . S
O208 Sc198 2.105 . S
O208 C202 1.268 . S
O209 Sc199 2.105 . S
O209 C203 1.268 . S
O210 Sc200 2.105 . S
O210 C204 1.268 . S
O211 Sc198 2.105 . S
O211 C205 1.268 . S
O212 Sc200 2.105 . S
O212 C206 1.268 . S
O213 Sc199 2.105 . S
O213 C207 1.268 . S
O214 Sc198 2.105 . S
O214 C206 1.268 . S
O215 Sc199 2.105 . S
O215 C205 1.268 . S
O216 Sc200 2.105 . S
O216 C207 1.268 . S
O217 Sc198 2.105 . S
O217 C203 1.268 . S
O218 Sc200 2.105 . S
O218 C202 1.268 . S
O219 Sc199 2.105 1_565 S
O219 C204 1.268 1_565 S
Sc220 O223 2.025 . S
Sc220 O230 2.105 . S
Sc220 O233 2.105 . S
Sc220 O236 2.105 . S
Sc220 O239 2.105 . S
Sc221 O223 2.025 . S
Sc221 O231 2.105 . S
Sc221 O235 2.105 . S
Sc221 O237 2.105 . S
Sc221 O241 2.105 1_655 S
Sc222 O223 2.025 . S
Sc222 O232 2.105 . S
Sc222 O234 2.105 . S
Sc222 O238 2.105 . S
Sc222 O240 2.105 . S
O223 Sc220 2.025 . S
O223 Sc221 2.025 . S
O223 Sc222 2.025 . S
C224 O230 1.268 . S
C224 O240 1.268 . S
C225 O231 1.268 . S
C225 O239 1.268 . S
C226 O232 1.268 . S
C226 O241 1.268 1_655 S
C227 O233 1.268 . S
C227 O237 1.268 . S
C228 O234 1.268 . S
C228 O236 1.268 . S
C229 O235 1.268 . S
C229 O238 1.268 . S
O230 Sc220 2.105 . S
O230 C224 1.268 . S
O231 Sc221 2.105 . S
O231 C225 1.268 . S
O232 Sc222 2.105 . S
O232 C226 1.268 . S
O233 Sc220 2.105 . S
O233 C227 1.268 . S
O234 Sc222 2.105 . S
O234 C228 1.268 . S
O235 Sc221 2.105 . S
O235 C229 1.268 . S
O236 Sc220 2.105 . S
O236 C228 1.268 . S
O237 Sc221 2.105 . S
O237 C227 1.268 . S
O238 Sc222 2.105 . S
O238 C229 1.268 . S
O239 Sc220 2.105 . S
O239 C225 1.268 . S
O240 Sc222 2.105 . S
O240 C224 1.268 . S
O241 Sc221 2.105 1_455 S
O241 C226 1.268 1_455 S
Sc242 O245 2.025 . S
Sc242 O252 2.105 . S
Sc242 O255 2.105 . S
Sc242 O258 2.105 . S
Sc242 O261 2.105 . S
Sc243 O245 2.025 . S
Sc243 O253 2.105 . S
Sc243 O257 2.105 . S
Sc243 O259 2.105 . S
Sc243 O263 2.105 . S
Sc244 O245 2.025 . S
Sc244 O254 2.105 . S
Sc244 O256 2.105 . S
Sc244 O260 2.105 . S
Sc244 O262 2.105 . S
O245 Sc242 2.025 . S
O245 Sc243 2.025 . S
O245 Sc244 2.025 . S
C246 O252 1.268 . S
C246 O262 1.268 . S
C247 O253 1.268 . S
C247 O261 1.268 . S
C248 O254 1.268 . S
C248 O263 1.268 . S
C249 O255 1.268 . S
C249 O259 1.268 . S
C250 O256 1.268 . S
C250 O258 1.268 . S
C251 O257 1.268 . S
C251 O260 1.268 . S
O252 Sc242 2.105 . S
O252 C246 1.268 . S
O253 Sc243 2.105 . S
O253 C247 1.268 . S
O254 Sc244 2.105 . S
O254 C248 1.268 . S
O255 Sc242 2.105 . S
O255 C249 1.268 . S
O256 Sc244 2.105 . S
O256 C250 1.268 . S
O257 Sc243 2.105 . S
O257 C251 1.268 . S
O258 Sc242 2.105 . S
O258 C250 1.268 . S
O259 Sc243 2.105 . S
O259 C249 1.268 . S
O260 Sc244 2.105 . S
O260 C251 1.268 . S
O261 Sc242 2.105 . S
O261 C247 1.268 . S
O262 Sc244 2.105 . S
O262 C246 1.268 . S
O263 Sc243 2.105 . S
O263 C248 1.268 . S
Sc264 O267 2.025 . S
Sc264 O274 2.105 . S
Sc264 O277 2.105 . S
Sc264 O280 2.105 . S
Sc264 O283 2.105 . S
Sc265 O267 2.025 . S
Sc265 O275 2.105 1_565 S
Sc265 O279 2.105 . S
Sc265 O281 2.105 . S
Sc265 O285 2.105 . S
Sc266 O267 2.025 . S
Sc266 O276 2.105 . S
Sc266 O278 2.105 . S
Sc266 O282 2.105 . S
Sc266 O284 2.105 . S
O267 Sc264 2.025 . S
O267 Sc265 2.025 . S
O267 Sc266 2.025 . S
C268 O274 1.268 . S
C268 O284 1.268 . S
C269 O275 1.268 1_565 S
C269 O283 1.268 . S
C270 O276 1.268 . S
C270 O285 1.268 . S
C271 O277 1.268 . S
C271 O281 1.268 . S
C272 O278 1.268 . S
C272 O280 1.268 . S
C273 O279 1.268 . S
C273 O282 1.268 . S
O274 Sc264 2.105 . S
O274 C268 1.268 . S
O275 Sc265 2.105 1_545 S
O275 C269 1.268 1_545 S
O276 Sc266 2.105 . S
O276 C270 1.268 . S
O277 Sc264 2.105 . S
O277 C271 1.268 . S
O278 Sc266 2.105 . S
O278 C272 1.268 . S
O279 Sc265 2.105 . S
O279 C273 1.268 . S
O280 Sc264 2.105 . S
O280 C272 1.268 . S
O281 Sc265 2.105 . S
O281 C271 1.268 . S
O282 Sc266 2.105 . S
O282 C273 1.268 . S
O283 Sc264 2.105 . S
O283 C269 1.268 . S
O284 Sc266 2.105 . S
O284 C268 1.268 . S
O285 Sc265 2.105 . S
O285 C270 1.268 . S
Sc286 O289 2.025 . S
Sc286 O296 2.105 . S
Sc286 O299 2.105 . S
Sc286 O302 2.105 . S
Sc286 O305 2.105 . S
Sc287 O289 2.025 . S
Sc287 O297 2.105 1_455 S
Sc287 O301 2.105 . S
Sc287 O303 2.105 . S
Sc287 O307 2.105 . S
Sc288 O289 2.025 . S
Sc288 O298 2.105 . S
Sc288 O300 2.105 . S
Sc288 O304 2.105 . S
Sc288 O306 2.105 . S
O289 Sc286 2.025 . S
O289 Sc287 2.025 . S
O289 Sc288 2.025 . S
C290 O296 1.268 . S
C290 O306 1.268 . S
C291 O297 1.268 1_455 S
C291 O305 1.268 . S
C292 O298 1.268 . S
C292 O307 1.268 . S
C293 O299 1.268 . S
C293 O303 1.268 . S
C294 O300 1.268 . S
C294 O302 1.268 . S
C295 O301 1.268 . S
C295 O304 1.268 . S
O296 Sc286 2.105 . S
O296 C290 1.268 . S
O297 Sc287 2.105 1_655 S
O297 C291 1.268 1_655 S
O298 Sc288 2.105 . S
O298 C292 1.268 . S
O299 Sc286 2.105 . S
O299 C293 1.268 . S
O300 Sc288 2.105 . S
O300 C294 1.268 . S
O301 Sc287 2.105 . S
O301 C295 1.268 . S
O302 Sc286 2.105 . S
O302 C294 1.268 . S
O303 Sc287 2.105 . S
O303 C293 1.268 . S
O304 Sc288 2.105 . S
O304 C295 1.268 . S
O305 Sc286 2.105 . S
O305 C291 1.268 . S
O306 Sc288 2.105 . S
O306 C290 1.268 . S
O307 Sc287 2.105 . S
O307 C292 1.268 . S
Sc308 O311 2.025 . S
Sc308 O318 2.105 . S
Sc308 O321 2.105 . S
Sc308 O324 2.105 . S
Sc308 O327 2.105 . S
Sc309 O311 2.025 . S
Sc309 O319 2.105 . S
Sc309 O323 2.105 . S
Sc309 O325 2.105 . S
Sc309 O329 2.105 . S
Sc310 O311 2.025 . S
Sc310 O320 2.105 . S
Sc310 O322 2.105 . S
Sc310 O326 2.105 . S
Sc310 O328 2.105 . S
O311 Sc308 2.025 . S
O311 Sc309 2.025 . S
O311 Sc310 2.025 . S
C312 O318 1.268 . S
C312 O328 1.268 . S
C313 O319 1.268 . S
C313 O327 1.268 . S
C314 O320 1.268 . S
C314 O329 1.268 . S
C315 O321 1.268 . S
C315 O325 1.268 . S
C316 O322 1.268 . S
C316 O324 1.268 . S
C317 O323 1.268 . S
C317 O326 1.268 . S
O318 Sc308 2.105 . S
O318 C312 1.268 . S
O319 Sc309 2.105 . S
O319 C313 1.268 . S
O320 Sc310 2.105 . S
O320 C314 1.268 . S
O321 Sc308 2.105 . S
O321 C315 1.268 . S
O322 Sc310 2.105 . S
O322 C316 1.268 . S
O323 Sc309 2.105 . S
O323 C317 1.268 . S
O324 Sc308 2.105 . S
O324 C316 1.268 . S
O325 Sc309 2.105 . S
O325 C315 1.268 . S
O326 Sc310 2.105 . S
O326 C317 1.268 . S
O327 Sc308 2.105 . S
O327 C313 1.268 . S
O328 Sc310 2.105 . S
O328 C312 1.268 . S
O329 Sc309 2.105 . S
O329 C314 1.268 . S
Sc330 O333 2.025 . S
Sc330 O340 2.105 . S
Sc330 O343 2.105 . S
Sc330 O346 2.105 . S
Sc330 O349 2.105 . S
Sc331 O333 2.025 . S
Sc331 O341 2.105 . S
Sc331 O345 2.105 . S
Sc331 O347 2.105 . S
Sc331 O351 2.105 . S
Sc332 O333 2.025 . S
Sc332 O342 2.105 . S
Sc332 O344 2.105 . S
Sc332 O348 2.105 . S
Sc332 O350 2.105 . S
O333 Sc330 2.025 . S
O333 Sc331 2.025 . S
O333 Sc332 2.025 . S
C334 O340 1.268 . S
C334 O350 1.268 . S
C335 O341 1.268 . S
C335 O349 1.268 . S
C336 O342 1.268 . S
C336 O351 1.268 . S
C337 O343 1.268 . S
C337 O347 1.268 . S
C338 O344 1.268 . S
C338 O346 1.268 . S
C339 O345 1.268 . S
C339 O348 1.268 . S
O340 Sc330 2.105 . S
O340 C334 1.268 . S
O341 Sc331 2.105 . S
O341 C335 1.268 . S
O342 Sc332 2.105 . S
O342 C336 1.268 . S
O343 Sc330 2.105 . S
O343 C337 1.268 . S
O344 Sc332 2.105 . S
O344 C338 1.268 . S
O345 Sc331 2.105 . S
O345 C339 1.268 . S
O346 Sc330 2.105 . S
O346 C338 1.268 . S
O347 Sc331 2.105 . S
O347 C337 1.268 . S
O348 Sc332 2.105 . S
O348 C339 1.268 . S
O349 Sc330 2.105 . S
O349 C335 1.268 . S
O350 Sc332 2.105 . S
O350 C334 1.268 . S
O351 Sc331 2.105 . S
O351 C336 1.268 . S
Sc352 O355 2.025 . S
Sc352 O362 2.105 . S
Sc352 O365 2.105 . S
Sc352 O368 2.105 . S
Sc352 O371 2.105 . S
Sc353 O355 2.025 . S
Sc353 O363 2.105 . S
Sc353 O367 2.105 . S
Sc353 O369 2.105 . S
Sc353 O373 2.105 . S
Sc354 O355 2.025 . S
Sc354 O364 2.105 . S
Sc354 O366 2.105 . S
Sc354 O370 2.105 . S
Sc354 O372 2.105 . S
O355 Sc352 2.025 . S
O355 Sc353 2.025 . S
O355 Sc354 2.025 . S
C356 O362 1.268 . S
C356 O372 1.268 . S
C357 O363 1.268 . S
C357 O371 1.268 . S
C358 O364 1.268 . S
C358 O373 1.268 . S
C359 O365 1.268 . S
C359 O369 1.268 . S
C360 O366 1.268 . S
C360 O368 1.268 . S
C361 O367 1.268 . S
C361 O370 1.268 . S
O362 Sc352 2.105 . S
O362 C356 1.268 . S
O363 Sc353 2.105 . S
O363 C357 1.268 . S
O364 Sc354 2.105 . S
O364 C358 1.268 . S
O365 Sc352 2.105 . S
O365 C359 1.268 . S
O366 Sc354 2.105 . S
O366 C360 1.268 . S
O367 Sc353 2.105 . S
O367 C361 1.268 . S
O368 Sc352 2.105 . S
O368 C360 1.268 . S
O369 Sc353 2.105 . S
O369 C359 1.268 . S
O370 Sc354 2.105 . S
O370 C361 1.268 . S
O371 Sc352 2.105 . S
O371 C357 1.268 . S
O372 Sc354 2.105 . S
O372 C356 1.268 . S
O373 Sc353 2.105 . S
O373 C358 1.268 . S
Sc374 O377 2.025 . S
Sc374 O384 2.105 . S
Sc374 O387 2.105 . S
Sc374 O390 2.105 . S
Sc374 O393 2.105 . S
Sc375 O377 2.025 . S
Sc375 O385 2.105 . S
Sc375 O389 2.105 . S
Sc375 O391 2.105 . S
Sc375 O395 2.105 . S
Sc376 O377 2.025 . S
Sc376 O386 2.105 . S
Sc376 O388 2.105 . S
Sc376 O392 2.105 . S
Sc376 O394 2.105 . S
O377 Sc374 2.025 . S
O377 Sc375 2.025 . S
O377 Sc376 2.025 . S
C378 O384 1.268 . S
C378 O394 1.268 . S
C379 O385 1.268 . S
C379 O393 1.268 . S
C380 O386 1.268 . S
C380 O395 1.268 . S
C381 O387 1.268 . S
C381 O391 1.268 . S
C382 O388 1.268 . S
C382 O390 1.268 . S
C383 O389 1.268 . S
C383 O392 1.268 . S
O384 Sc374 2.105 . S
O384 C378 1.268 . S
O385 Sc375 2.105 . S
O385 C379 1.268 . S
O386 Sc376 2.105 . S
O386 C380 1.268 . S
O387 Sc374 2.105 . S
O387 C381 1.268 . S
O388 Sc376 2.105 . S
O388 C382 1.268 . S
O389 Sc375 2.105 . S
O389 C383 1.268 . S
O390 Sc374 2.105 . S
O390 C382 1.268 . S
O391 Sc375 2.105 . S
O391 C381 1.268 . S
O392 Sc376 2.105 . S
O392 C383 1.268 . S
O393 Sc374 2.105 . S
O393 C379 1.268 . S
O394 Sc376 2.105 . S
O394 C378 1.268 . S
O395 Sc375 2.105 . S
O395 C380 1.268 . S
C396 C397 1.363 1_554 S
C396 C402 1.379 . S
C396 N404 1.356 . S
C397 C396 1.363 1_556 S
C397 C403 1.363 . S
C398 C399 1.363 . S
C398 C403 1.379 . S
C398 N405 1.356 . S
C399 C398 1.363 . S
C399 C402 1.363 1_556 S
N400 C402 1.356 . S
N400 H412 0.984 . S
N400 H413 0.985 . S
N401 C403 1.356 . S
N401 H406 0.984 . S
N401 H407 0.985 . S
C402 C396 1.379 . S
C402 C399 1.363 1_554 S
C402 N400 1.356 . S
C403 C397 1.363 . S
C403 C398 1.379 . S
C403 N401 1.356 . S
N404 C396 1.356 . S
N404 H410 0.984 . S
N404 H411 0.984 . S
N405 C398 1.356 . S
N405 H408 0.984 . S
N405 H409 0.985 . S
H406 N401 0.984 . S
H407 N401 0.985 . S
H408 N405 0.984 . S
H409 N405 0.985 . S
H410 N404 0.984 . S
H411 N404 0.984 . S
H412 N400 0.984 . S
H413 N400 0.985 . S
C414 C415 1.363 . S
C414 C420 1.379 . S
C414 N422 1.356 . S
C415 C414 1.363 . S
C415 C421 1.363 1_556 S
C416 C417 1.363 1_554 S
C416 C421 1.379 . S
C416 N423 1.356 . S
C417 C416 1.363 1_556 S
C417 C420 1.363 . S
N418 C420 1.356 . S
N418 H430 0.984 . S
N418 H431 0.985 . S
N419 C421 1.356 . S
N419 H424 0.984 . S
N419 H425 0.985 . S
C420 C414 1.379 . S
C420 C417 1.363 . S
C420 N418 1.356 . S
C421 C415 1.363 1_554 S
C421 C416 1.379 . S
C421 N419 1.356 . S
N422 C414 1.356 . S
N422 H428 0.984 . S
N422 H429 0.984 1_545 S
N423 C416 1.356 . S
N423 H426 0.984 . S
N423 H427 0.985 . S
H424 N419 0.984 . S
H425 N419 0.985 . S
H426 N423 0.984 . S
H427 N423 0.985 . S
H428 N422 0.984 . S
H429 N422 0.984 1_565 S
H430 N418 0.984 . S
H431 N418 0.985 . S
C432 C433 1.363 1_554 S
C432 C438 1.379 . S
C432 N440 1.356 . S
C433 C432 1.363 1_556 S
C433 C439 1.363 . S
C434 C435 1.363 . S
C434 C439 1.379 . S
C434 N441 1.356 . S
C435 C434 1.363 . S
C435 C438 1.363 1_556 S
N436 C438 1.356 . S
N436 H448 0.984 . S
N436 H449 0.985 1_655 S
N437 C439 1.356 . S
N437 H442 0.984 . S
N437 H443 0.985 . S
C438 C432 1.379 . S
C438 C435 1.363 1_554 S
C438 N436 1.356 . S
C439 C433 1.363 . S
C439 C434 1.379 . S
C439 N437 1.356 . S
N440 C432 1.356 . S
N440 H446 0.984 . S
N440 H447 0.984 . S
N441 C434 1.356 . S
N441 H444 0.984 1_655 S
N441 H445 0.985 . S
H442 N437 0.984 . S
H443 N437 0.985 . S
H444 N441 0.984 1_455 S
H445 N441 0.985 . S
H446 N440 0.984 . S
H447 N440 0.984 . S
H448 N436 0.984 . S
H449 N436 0.985 1_455 S
C450 C451 1.363 . S
C450 C456 1.379 . S
C450 N458 1.356 . S
C451 C450 1.363 . S
C451 C457 1.363 1_554 S
C452 C453 1.363 1_556 S
C452 C457 1.379 . S
C452 N459 1.356 . S
C453 C452 1.363 1_554 S
C453 C456 1.363 . S
N454 C456 1.356 . S
N454 H466 0.984 . S
N454 H467 0.985 . S
N455 C457 1.356 . S
N455 H460 0.984 . S
N455 H461 0.985 . S
C456 C450 1.379 . S
C456 C453 1.363 . S
C456 N454 1.356 . S
C457 C451 1.363 1_556 S
C457 C452 1.379 . S
C457 N455 1.356 . S
N458 C450 1.356 . S
N458 H464 0.984 . S
N458 H465 0.984 . S
N459 C452 1.356 . S
N459 H462 0.984 . S
N459 H463 0.985 . S
H460 N455 0.984 . S
H461 N455 0.985 . S
H462 N459 0.984 . S
H463 N459 0.985 . S
H464 N458 0.984 . S
H465 N458 0.984 . S
H466 N454 0.984 . S
H467 N454 0.985 . S
C468 C469 1.363 . S
C468 C474 1.379 . S
C468 N476 1.356 . S
C469 C468 1.363 . S
C469 C475 1.363 1_554 S
C470 C471 1.363 1_556 S
C470 C475 1.379 . S
C470 N477 1.356 . S
C471 C470 1.363 1_554 S
C471 C474 1.363 . S
N472 C474 1.356 . S
N472 H484 0.984 . S
N472 H485 0.985 . S
N473 C475 1.356 . S
N473 H478 0.984 . S
N473 H479 0.985 . S
C474 C468 1.379 . S
C474 C471 1.363 . S
C474 N472 1.356 . S
C475 C469 1.363 1_556 S
C475 C470 1.379 . S
C475 N473 1.356 . S
N476 C468 1.356 . S
N476 H482 0.984 1_565 S
N476 H483 0.984 1_565 S
N477 C470 1.356 . S
N477 H480 0.984 . S
N477 H481 0.985 . S
H478 N473 0.984 . S
H479 N473 0.985 . S
H480 N477 0.984 . S
H481 N477 0.985 . S
H482 N476 0.984 1_545 S
H483 N476 0.984 1_545 S
H484 N472 0.984 . S
H485 N472 0.985 . S
C486 C487 1.363 1_556 S
C486 C492 1.379 . S
C486 N494 1.356 . S
C487 C486 1.363 1_554 S
C487 C493 1.363 . S
C488 C489 1.363 . S
C488 C493 1.379 . S
C488 N495 1.356 1_455 S
C489 C488 1.363 . S
C489 C492 1.363 1_554 S
N490 C492 1.356 . S
N490 H502 0.984 . S
N490 H503 0.985 . S
N491 C493 1.356 . S
N491 H496 0.984 . S
N491 H497 0.985 . S
C492 C486 1.379 . S
C492 C489 1.363 1_556 S
C492 N490 1.356 . S
C493 C487 1.363 . S
C493 C488 1.379 . S
C493 N491 1.356 . S
N494 C486 1.356 . S
N494 H500 0.984 . S
N494 H501 0.984 . S
N495 C488 1.356 1_655 S
N495 H498 0.984 . S
N495 H499 0.985 . S
H496 N491 0.984 . S
H497 N491 0.985 . S
H498 N495 0.984 . S
H499 N495 0.985 . S
H500 N494 0.984 . S
H501 N494 0.984 . S
H502 N490 0.984 . S
H503 N490 0.985 . S
C504 C505 1.363 . S
C504 C510 1.379 . S
C504 N512 1.356 . S
C505 C504 1.363 . S
C505 C511 1.363 . S
C506 C507 1.363 . S
C506 C511 1.379 . S
C506 N513 1.356 . S
C507 C506 1.363 . S
C507 C510 1.363 . S
N508 C510 1.356 . S
N508 H520 0.984 . S
N508 H521 0.985 . S
N509 C511 1.356 . S
N509 H514 0.984 . S
N509 H515 0.985 . S
C510 C504 1.379 . S
C510 C507 1.363 . S
C510 N508 1.356 . S
C511 C505 1.363 . S
C511 C506 1.379 . S
C511 N509 1.356 . S
N512 C504 1.356 . S
N512 H518 0.984 . S
N512 H519 0.984 . S
N513 C506 1.356 . S
N513 H516 0.984 . S
N513 H517 0.985 . S
H514 N509 0.984 . S
H515 N509 0.985 . S
H516 N513 0.984 . S
H517 N513 0.985 . S
H518 N512 0.984 . S
H519 N512 0.984 . S
H520 N508 0.984 . S
H521 N508 0.985 . S
C522 C523 1.363 . S
C522 C528 1.379 . S
C522 N530 1.356 . S
C523 C522 1.363 . S
C523 C529 1.363 . S
C524 C525 1.363 . S
C524 C529 1.379 . S
C524 N531 1.356 . S
C525 C524 1.363 . S
C525 C528 1.363 . S
N526 C528 1.356 . S
N526 H538 0.984 . S
N526 H539 0.985 . S
N527 C529 1.356 . S
N527 H532 0.984 . S
N527 H533 0.985 . S
C528 C522 1.379 . S
C528 C525 1.363 . S
C528 N526 1.356 . S
C529 C523 1.363 . S
C529 C524 1.379 . S
C529 N527 1.356 . S
N530 C522 1.356 . S
N530 H536 0.984 . S
N530 H537 0.984 . S
N531 C524 1.356 . S
N531 H534 0.984 . S
N531 H535 0.985 . S
H532 N527 0.984 . S
H533 N527 0.985 . S
H534 N531 0.984 . S
H535 N531 0.985 . S
H536 N530 0.984 . S
H537 N530 0.984 . S
H538 N526 0.984 . S
H539 N526 0.985 . S
C540 C541 1.363 . S
C540 C546 1.379 . S
C540 N548 1.356 . S
C541 C540 1.363 . S
C541 C547 1.363 . S
C542 C543 1.363 . S
C542 C547 1.379 . S
C542 N549 1.356 . S
C543 C542 1.363 . S
C543 C546 1.363 . S
N544 C546 1.356 . S
N544 H556 0.984 . S
N544 H557 0.985 . S
N545 C547 1.356 . S
N545 H550 0.984 . S
N545 H551 0.985 . S
C546 C540 1.379 . S
C546 C543 1.363 . S
C546 N544 1.356 . S
C547 C541 1.363 . S
C547 C542 1.379 . S
C547 N545 1.356 . S
N548 C540 1.356 . S
N548 H554 0.984 . S
N548 H555 0.984 . S
N549 C542 1.356 . S
N549 H552 0.984 . S
N549 H553 0.985 . S
H550 N545 0.984 . S
H551 N545 0.985 . S
H552 N549 0.984 . S
H553 N549 0.985 . S
H554 N548 0.984 . S
H555 N548 0.984 . S
H556 N544 0.984 . S
H557 N544 0.985 . S
C558 C559 1.363 . S
C558 C564 1.379 . S
C558 N566 1.356 . S
C559 C558 1.363 . S
C559 C565 1.363 . S
C560 C561 1.363 . S
C560 C565 1.379 . S
C560 N567 1.356 . S
C561 C560 1.363 . S
C561 C564 1.363 . S
N562 C564 1.356 . S
N562 H574 0.984 . S
N562 H575 0.985 . S
N563 C565 1.356 . S
N563 H568 0.984 . S
N563 H569 0.985 . S
C564 C558 1.379 . S
C564 C561 1.363 . S
C564 N562 1.356 . S
C565 C559 1.363 . S
C565 C560 1.379 . S
C565 N563 1.356 . S
N566 C558 1.356 . S
N566 H572 0.984 . S
N566 H573 0.984 . S
N567 C560 1.356 . S
N567 H570 0.984 . S
N567 H571 0.985 . S
H568 N563 0.984 . S
H569 N563 0.985 . S
H570 N567 0.984 . S
H571 N567 0.985 . S
H572 N566 0.984 . S
H573 N566 0.984 . S
H574 N562 0.984 . S
H575 N562 0.985 . S
C576 C577 1.363 . S
C576 C582 1.379 . S
C576 N584 1.356 . S
C577 C576 1.363 . S
C577 C583 1.363 . S
C578 C579 1.363 . S
C578 C583 1.379 . S
C578 N585 1.356 . S
C579 C578 1.363 . S
C579 C582 1.363 . S
N580 C582 1.356 . S
N580 H592 0.984 . S
N580 H593 0.985 . S
N581 C583 1.356 . S
N581 H586 0.984 . S
N581 H587 0.985 . S
C582 C576 1.379 . S
C582 C579 1.363 . S
C582 N580 1.356 . S
C583 C577 1.363 . S
C583 C578 1.379 . S
C583 N581 1.356 . S
N584 C576 1.356 . S
N584 H590 0.984 . S
N584 H591 0.984 . S
N585 C578 1.356 . S
N585 H588 0.984 . S
N585 H589 0.985 . S
H586 N581 0.984 . S
H587 N581 0.985 . S
H588 N585 0.984 . S
H589 N585 0.985 . S
H590 N584 0.984 . S
H591 N584 0.984 . S
H592 N580 0.984 . S
H593 N580 0.985 . S
C594 C595 1.363 . S
C594 C600 1.379 . S
C594 N602 1.356 . S
C595 C594 1.363 . S
C595 C601 1.363 . S
C596 C597 1.363 . S
C596 C601 1.379 . S
C596 N603 1.356 . S
C597 C596 1.363 . S
C597 C600 1.363 . S
N598 C600 1.356 . S
N598 H610 0.984 . S
N598 H611 0.985 . S
N599 C601 1.356 . S
N599 H604 0.984 . S
N599 H605 0.985 . S
C600 C594 1.379 . S
C600 C597 1.363 . S
C600 N598 1.356 . S
C601 C595 1.363 . S
C601 C596 1.379 . S
C601 N599 1.356 . S
N602 C594 1.356 . S
N602 H608 0.984 . S
N602 H609 0.984 . S
N603 C596 1.356 . S
N603 H606 0.984 . S
N603 H607 0.985 . S
H604 N599 0.984 . S
H605 N599 0.985 . S
H606 N603 0.984 . S
H607 N603 0.985 . S
H608 N602 0.984 . S
H609 N602 0.984 . S
H610 N598 0.984 . S
H611 N598 0.985 . S
C612 C613 1.363 . S
C612 C618 1.379 . S
C612 N620 1.356 . S
C613 C612 1.363 . S
C613 C619 1.363 . S
C614 C615 1.363 . S
C614 C619 1.379 . S
C614 N621 1.356 . S
C615 C614 1.363 . S
C615 C618 1.363 . S
N616 C618 1.356 . S
N616 H628 0.984 . S
N616 H629 0.985 . S
N617 C619 1.356 . S
N617 H622 0.984 . S
N617 H623 0.985 . S
C618 C612 1.379 . S
C618 C615 1.363 . S
C618 N616 1.356 . S
C619 C613 1.363 . S
C619 C614 1.379 . S
C619 N617 1.356 . S
N620 C612 1.356 . S
N620 H626 0.984 . S
N620 H627 0.984 . S
N621 C614 1.356 . S
N621 H624 0.984 . S
N621 H625 0.985 . S
H622 N617 0.984 . S
H623 N617 0.985 . S
H624 N621 0.984 . S
H625 N621 0.985 . S
H626 N620 0.984 . S
H627 N620 0.984 . S
H628 N616 0.984 . S
H629 N616 0.985 . S
C630 C631 1.363 . S
C630 C636 1.379 . S
C630 N638 1.356 . S
C631 C630 1.363 . S
C631 C637 1.363 . S
C632 C633 1.363 . S
C632 C637 1.379 . S
C632 N639 1.356 . S
C633 C632 1.363 . S
C633 C636 1.363 . S
N634 C636 1.356 . S
N634 H646 0.984 . S
N634 H647 0.985 . S
N635 C637 1.356 . S
N635 H640 0.984 . S
N635 H641 0.985 . S
C636 C630 1.379 . S
C636 C633 1.363 . S
C636 N634 1.356 . S
C637 C631 1.363 . S
C637 C632 1.379 . S
C637 N635 1.356 . S
N638 C630 1.356 . S
N638 H644 0.984 . S
N638 H645 0.984 . S
N639 C632 1.356 . S
N639 H642 0.984 . S
N639 H643 0.985 . S
H640 N635 0.984 . S
H641 N635 0.985 . S
H642 N639 0.984 . S
H643 N639 0.985 . S
H644 N638 0.984 . S
H645 N638 0.984 . S
H646 N634 0.984 . S
H647 N634 0.985 . S
C648 C649 1.363 . S
C648 C654 1.379 . S
C648 N656 1.356 . S
C649 C648 1.363 . S
C649 C655 1.363 . S
C650 C651 1.363 . S
C650 C655 1.379 . S
C650 N657 1.356 . S
C651 C650 1.363 . S
C651 C654 1.363 . S
N652 C654 1.356 . S
N652 H664 0.984 . S
N652 H665 0.985 . S
N653 C655 1.356 . S
N653 H658 0.984 . S
N653 H659 0.985 . S
C654 C648 1.379 . S
C654 C651 1.363 . S
C654 N652 1.356 . S
C655 C649 1.363 . S
C655 C650 1.379 . S
C655 N653 1.356 . S
N656 C648 1.356 . S
N656 H662 0.984 . S
N656 H663 0.984 . S
N657 C650 1.356 . S
N657 H660 0.984 . S
N657 H661 0.985 . S
H658 N653 0.984 . S
H659 N653 0.985 . S
H660 N657 0.984 . S
H661 N657 0.985 . S
H662 N656 0.984 . S
H663 N656 0.984 . S
H664 N652 0.984 . S
H665 N652 0.985 . S
C666 C667 1.363 . S
C666 C672 1.379 . S
C666 N674 1.356 . S
C667 C666 1.363 . S
C667 C673 1.363 . S
C668 C669 1.363 . S
C668 C673 1.379 . S
C668 N675 1.356 . S
C669 C668 1.363 . S
C669 C672 1.363 . S
N670 C672 1.356 . S
N670 H682 0.984 . S
N670 H683 0.985 . S
N671 C673 1.356 . S
N671 H676 0.984 . S
N671 H677 0.985 . S
C672 C666 1.379 . S
C672 C669 1.363 . S
C672 N670 1.356 . S
C673 C667 1.363 . S
C673 C668 1.379 . S
C673 N671 1.356 . S
N674 C666 1.356 . S
N674 H680 0.984 . S
N674 H681 0.984 . S
N675 C668 1.356 . S
N675 H678 0.984 . S
N675 H679 0.985 . S
H676 N671 0.984 . S
H677 N671 0.985 . S
H678 N675 0.984 . S
H679 N675 0.985 . S
H680 N674 0.984 . S
H681 N674 0.984 . S
H682 N670 0.984 . S
H683 N670 0.985 . S
C684 C685 1.363 . S
C684 C690 1.379 . S
C684 N692 1.356 . S
C685 C684 1.363 . S
C685 C691 1.363 . S
C686 C687 1.363 . S
C686 C691 1.379 . S
C686 N693 1.356 . S
C687 C686 1.363 . S
C687 C690 1.363 . S
N688 C690 1.356 . S
N688 H700 0.984 . S
N688 H701 0.985 . S
N689 C691 1.356 . S
N689 H694 0.984 . S
N689 H695 0.985 . S
C690 C684 1.379 . S
C690 C687 1.363 . S
C690 N688 1.356 . S
C691 C685 1.363 . S
C691 C686 1.379 . S
C691 N689 1.356 . S
N692 C684 1.356 . S
N692 H698 0.984 . S
N692 H699 0.984 . S
N693 C686 1.356 . S
N693 H696 0.984 . S
N693 H697 0.985 . S
H694 N689 0.984 . S
H695 N689 0.985 . S
H696 N693 0.984 . S
H697 N693 0.985 . S
H698 N692 0.984 . S
H699 N692 0.984 . S
H700 N688 0.984 . S
H701 N688 0.985 . S
C702 C703 1.363 . S
C702 C708 1.379 . S
C702 N710 1.356 . S
C703 C702 1.363 . S
C703 C709 1.363 . S
C704 C705 1.363 . S
C704 C709 1.379 . S
C704 N711 1.356 . S
C705 C704 1.363 . S
C705 C708 1.363 . S
N706 C708 1.356 . S
N706 H718 0.984 . S
N706 H719 0.985 . S
N707 C709 1.356 . S
N707 H712 0.984 . S
N707 H713 0.985 . S
C708 C702 1.379 . S
C708 C705 1.363 . S
C708 N706 1.356 . S
C709 C703 1.363 . S
C709 C704 1.379 . S
C709 N707 1.356 . S
N710 C702 1.356 . S
N710 H716 0.984 . S
N710 H717 0.984 . S
N711 C704 1.356 . S
N711 H714 0.984 . S
N711 H715 0.985 . S
H712 N707 0.984 . S
H713 N707 0.985 . S
H714 N711 0.984 . S
H715 N711 0.985 . S
H716 N710 0.984 . S
H717 N710 0.984 . S
H718 N706 0.984 . S
H719 N706 0.985 . S
C720 C721 1.363 . S
C720 C726 1.379 . S
C720 N728 1.356 . S
C721 C720 1.363 . S
C721 C727 1.363 . S
C722 C723 1.363 . S
C722 C727 1.379 . S
C722 N729 1.356 . S
C723 C722 1.363 . S
C723 C726 1.363 . S
N724 C726 1.356 . S
N724 H736 0.984 . S
N724 H737 0.985 . S
N725 C727 1.356 . S
N725 H730 0.984 . S
N725 H731 0.985 . S
C726 C720 1.379 . S
C726 C723 1.363 . S
C726 N724 1.356 . S
C727 C721 1.363 . S
C727 C722 1.379 . S
C727 N725 1.356 . S
N728 C720 1.356 . S
N728 H734 0.984 . S
N728 H735 0.984 . S
N729 C722 1.356 . S
N729 H732 0.984 . S
N729 H733 0.985 . S
H730 N725 0.984 . S
H731 N725 0.985 . S
H732 N729 0.984 . S
H733 N729 0.985 . S
H734 N728 0.984 . S
H735 N728 0.984 . S
H736 N724 0.984 . S
H737 N724 0.985 . S
C738 C739 1.363 . S
C738 C744 1.379 . S
C738 N746 1.356 . S
C739 C738 1.363 . S
C739 C745 1.363 . S
C740 C741 1.363 . S
C740 C745 1.379 . S
C740 N747 1.356 . S
C741 C740 1.363 . S
C741 C744 1.363 . S
N742 C744 1.356 . S
N742 H754 0.984 . S
N742 H755 0.985 . S
N743 C745 1.356 . S
N743 H748 0.984 . S
N743 H749 0.985 . S
C744 C738 1.379 . S
C744 C741 1.363 . S
C744 N742 1.356 . S
C745 C739 1.363 . S
C745 C740 1.379 . S
C745 N743 1.356 . S
N746 C738 1.356 . S
N746 H752 0.984 . S
N746 H753 0.984 . S
N747 C740 1.356 . S
N747 H750 0.984 . S
N747 H751 0.985 . S
H748 N743 0.984 . S
H749 N743 0.985 . S
H750 N747 0.984 . S
H751 N747 0.985 . S
H752 N746 0.984 . S
H753 N746 0.984 . S
H754 N742 0.984 . S
H755 N742 0.985 . S
C756 C757 1.363 . S
C756 C762 1.379 . S
C756 N764 1.356 . S
C757 C756 1.363 . S
C757 C763 1.363 . S
C758 C759 1.363 . S
C758 C763 1.379 . S
C758 N765 1.356 . S
C759 C758 1.363 . S
C759 C762 1.363 . S
N760 C762 1.356 . S
N760 H772 0.984 . S
N760 H773 0.985 . S
N761 C763 1.356 . S
N761 H766 0.984 . S
N761 H767 0.985 . S
C762 C756 1.379 . S
C762 C759 1.363 . S
C762 N760 1.356 . S
C763 C757 1.363 . S
C763 C758 1.379 . S
C763 N761 1.356 . S
N764 C756 1.356 . S
N764 H770 0.984 . S
N764 H771 0.984 . S
N765 C758 1.356 . S
N765 H768 0.984 . S
N765 H769 0.985 . S
H766 N761 0.984 . S
H767 N761 0.985 . S
H768 N765 0.984 . S
H769 N765 0.985 . S
H770 N764 0.984 . S
H771 N764 0.984 . S
H772 N760 0.984 . S
H773 N760 0.985 . S
C774 C775 1.363 . S
C774 C780 1.379 . S
C774 N782 1.356 . S
C775 C774 1.363 . S
C775 C781 1.363 . S
C776 C777 1.363 . S
C776 C781 1.379 . S
C776 N783 1.356 . S
C777 C776 1.363 . S
C777 C780 1.363 . S
N778 C780 1.356 . S
N778 H790 0.984 . S
N778 H791 0.985 . S
N779 C781 1.356 . S
N779 H784 0.984 . S
N779 H785 0.985 . S
C780 C774 1.379 . S
C780 C777 1.363 . S
C780 N778 1.356 . S
C781 C775 1.363 . S
C781 C776 1.379 . S
C781 N779 1.356 . S
N782 C774 1.356 . S
N782 H788 0.984 . S
N782 H789 0.984 . S
N783 C776 1.356 . S
N783 H786 0.984 . S
N783 H787 0.985 . S
H784 N779 0.984 . S
H785 N779 0.985 . S
H786 N783 0.984 . S
H787 N783 0.985 . S
H788 N782 0.984 . S
H789 N782 0.984 . S
H790 N778 0.984 . S
H791 N778 0.985 . S
C792 C793 1.363 . S
C792 C798 1.379 . S
C792 N800 1.356 . S
C793 C792 1.363 . S
C793 C799 1.363 . S
C794 C795 1.363 . S
C794 C799 1.379 . S
C794 N801 1.356 . S
C795 C794 1.363 . S
C795 C798 1.363 . S
N796 C798 1.356 . S
N796 H808 0.984 . S
N796 H809 0.985 . S
N797 C799 1.356 . S
N797 H802 0.984 . S
N797 H803 0.985 . S
C798 C792 1.379 . S
C798 C795 1.363 . S
C798 N796 1.356 . S
C799 C793 1.363 . S
C799 C794 1.379 . S
C799 N797 1.356 . S
N800 C792 1.356 . S
N800 H806 0.984 . S
N800 H807 0.984 . S
N801 C794 1.356 . S
N801 H804 0.984 . S
N801 H805 0.985 . S
H802 N797 0.984 . S
H803 N797 0.985 . S
H804 N801 0.984 . S
H805 N801 0.985 . S
H806 N800 0.984 . S
H807 N800 0.984 . S
H808 N796 0.984 . S
H809 N796 0.985 . S
C810 C811 1.363 . S
C810 C816 1.379 . S
C810 N818 1.356 . S
C811 C810 1.363 . S
C811 C817 1.363 . S
C812 C813 1.363 . S
C812 C817 1.379 . S
C812 N819 1.356 . S
C813 C812 1.363 . S
C813 C816 1.363 . S
N814 C816 1.356 . S
N814 H826 0.984 . S
N814 H827 0.985 . S
N815 C817 1.356 . S
N815 H820 0.984 . S
N815 H821 0.985 . S
C816 C810 1.379 . S
C816 C813 1.363 . S
C816 N814 1.356 . S
C817 C811 1.363 . S
C817 C812 1.379 . S
C817 N815 1.356 . S
N818 C810 1.356 . S
N818 H824 0.984 . S
N818 H825 0.984 . S
N819 C812 1.356 . S
N819 H822 0.984 . S
N819 H823 0.985 . S
H820 N815 0.984 . S
H821 N815 0.985 . S
H822 N819 0.984 . S
H823 N819 0.985 . S
H824 N818 0.984 . S
H825 N818 0.984 . S
H826 N814 0.984 . S
H827 N814 0.985 . S
C828 C829 1.357 1_565 S
C828 C834 1.379 . S
C828 N836 1.356 . S
C829 C828 1.357 1_545 S
C829 C835 1.370 . S
C830 C831 1.357 1_545 S
C830 C835 1.379 . S
C830 N837 1.356 . S
C831 C830 1.357 1_565 S
C831 C834 1.370 . S
N832 C834 1.356 . S
N832 H844 0.984 . S
N832 H845 0.985 . S
N833 C835 1.356 . S
N833 H838 0.984 . S
N833 H839 0.985 . S
C834 C828 1.379 . S
C834 C831 1.370 . S
C834 N832 1.356 . S
C835 C829 1.370 . S
C835 C830 1.379 . S
C835 N833 1.356 . S
N836 C828 1.356 . S
N836 H842 0.984 . S
N836 H843 0.984 . S
N837 C830 1.356 . S
N837 H840 0.984 . S
N837 H841 0.985 . S
H838 N833 0.984 . S
H839 N833 0.985 . S
H840 N837 0.984 . S
H841 N837 0.985 . S
H842 N836 0.984 . S
H843 N836 0.984 . S
H844 N832 0.984 . S
H845 N832 0.985 . S
C846 C847 1.368 . S
C846 C852 1.379 . S
C846 N854 1.356 . S
C847 C846 1.368 . S
C847 C853 1.357 1_655 S
C848 C849 1.368 . S
C848 C853 1.379 . S
C848 N855 1.356 . S
C849 C848 1.368 . S
C849 C852 1.357 1_455 S
N850 C852 1.356 . S
N850 H862 0.984 . S
N850 H863 0.985 . S
N851 C853 1.356 . S
N851 H856 0.984 . S
N851 H857 0.985 . S
C852 C846 1.379 . S
C852 C849 1.357 1_655 S
C852 N850 1.356 . S
C853 C847 1.357 1_455 S
C853 C848 1.379 . S
C853 N851 1.356 . S
N854 C846 1.356 . S
N854 H860 0.984 . S
N854 H861 0.984 . S
N855 C848 1.356 . S
N855 H858 0.984 . S
N855 H859 0.985 . S
H856 N851 0.984 . S
H857 N851 0.985 . S
H858 N855 0.984 . S
H859 N855 0.985 . S
H860 N854 0.984 . S
H861 N854 0.984 . S
H862 N850 0.984 . S
H863 N850 0.985 . S
C864 C865 1.363 . S
C864 C870 1.379 . S
C864 N872 1.356 . S
C865 C864 1.363 . S
C865 C871 1.363 . S
C866 C867 1.363 . S
C866 C871 1.379 . S
C866 N873 1.356 . S
C867 C866 1.363 . S
C867 C870 1.363 . S
N868 C870 1.356 . S
N868 H880 0.984 . S
N868 H881 0.985 . S
N869 C871 1.356 . S
N869 H874 0.984 . S
N869 H875 0.985 . S
C870 C864 1.379 . S
C870 C867 1.363 . S
C870 N868 1.356 . S
C871 C865 1.363 . S
C871 C866 1.379 . S
C871 N869 1.356 . S
N872 C864 1.356 . S
N872 H878 0.984 . S
N872 H879 0.984 . S
N873 C866 1.356 . S
N873 H876 0.984 . S
N873 H877 0.985 . S
H874 N869 0.984 . S
H875 N869 0.985 . S
H876 N873 0.984 . S
H877 N873 0.985 . S
H878 N872 0.984 . S
H879 N872 0.984 . S
H880 N868 0.984 . S
H881 N868 0.985 . S
C882 C883 1.363 . S
C882 C888 1.379 . S
C882 N890 1.356 . S
C883 C882 1.363 . S
C883 C889 1.363 . S
C884 C885 1.363 . S
C884 C889 1.379 . S
C884 N891 1.356 . S
C885 C884 1.363 . S
C885 C888 1.363 . S
N886 C888 1.356 . S
N886 H898 0.984 . S
N886 H899 0.985 . S
N887 C889 1.356 . S
N887 H892 0.984 . S
N887 H893 0.985 . S
C888 C882 1.379 . S
C888 C885 1.363 . S
C888 N886 1.356 . S
C889 C883 1.363 . S
C889 C884 1.379 . S
C889 N887 1.356 . S
N890 C882 1.356 . S
N890 H896 0.984 . S
N890 H897 0.984 . S
N891 C884 1.356 . S
N891 H894 0.984 . S
N891 H895 0.985 . S
H892 N887 0.984 . S
H893 N887 0.985 . S
H894 N891 0.984 . S
H895 N891 0.985 . S
H896 N890 0.984 . S
H897 N890 0.984 . S
H898 N886 0.984 . S
H899 N886 0.985 . S
C900 C901 1.363 . S
C900 C906 1.379 . S
C900 N908 1.356 . S
C901 C900 1.363 . S
C901 C907 1.363 . S
C902 C903 1.378 . S
C902 C907 1.353 1_565 S
C902 N909 1.374 . S
C903 C902 1.378 . S
C903 C906 1.363 1_565 S
N904 C906 1.356 . S
N904 H916 0.984 . S
N904 H917 0.985 1_545 S
N905 C907 1.356 . S
N905 H910 0.984 . S
N905 H911 0.985 . S
C906 C900 1.379 . S
C906 C903 1.363 1_545 S
C906 N904 1.356 . S
C907 C901 1.363 . S
C907 C902 1.353 1_545 S
C907 N905 1.356 . S
N908 C900 1.356 . S
N908 H914 0.984 . S
N908 H915 0.984 . S
N909 C902 1.374 . S
N909 H912 0.984 . S
N909 H913 0.985 . S
H910 N905 0.984 . S
H911 N905 0.985 . S
H912 N909 0.984 . S
H913 N909 0.985 . S
H914 N908 0.984 . S
H915 N908 0.984 . S
H916 N904 0.984 . S
H917 N904 0.985 1_565 S
C918 C919 1.363 . S
C918 C924 1.379 . S
C918 N926 1.356 . S
C919 C918 1.363 . S
C919 C925 1.363 . S
C920 C921 1.363 1_655 S
C920 C925 1.379 . S
C920 N927 1.355 1_655 S
C921 C920 1.363 1_455 S
C921 C924 1.363 1_455 S
N922 C924 1.356 1_455 S
N922 H934 0.984 . S
N922 H935 0.985 . S
N923 C925 1.356 . S
N923 H928 0.984 . S
N923 H929 0.985 . S
C924 C918 1.379 . S
C924 C921 1.363 1_655 S
C924 N922 1.356 1_655 S
C925 C919 1.363 . S
C925 C920 1.379 . S
C925 N923 1.356 . S
N926 C918 1.356 . S
N926 H932 0.984 . S
N926 H933 0.984 . S
N927 C920 1.355 1_455 S
N927 H930 0.986 . S
N927 H931 0.984 1_455 S
H928 N923 0.984 . S
H929 N923 0.985 . S
H930 N927 0.986 . S
H931 N927 0.984 1_655 S
H932 N926 0.984 . S
H933 N926 0.984 . S
H934 N922 0.984 . S
H935 N922 0.985 . S
C936 C937 1.363 . S
C936 C942 1.379 . S
C936 N944 1.356 . S
C937 C936 1.363 . S
C937 C943 1.363 . S
C938 C939 1.363 . S
C938 C943 1.379 . S
C938 N945 1.356 . S
C939 C938 1.363 . S
C939 C942 1.363 . S
N940 C942 1.356 . S
N940 H952 0.984 . S
N940 H953 0.985 . S
N941 C943 1.356 . S
N941 H946 0.984 . S
N941 H947 0.985 . S
C942 C936 1.379 . S
C942 C939 1.363 . S
C942 N940 1.356 . S
C943 C937 1.363 . S
C943 C938 1.379 . S
C943 N941 1.356 . S
N944 C936 1.356 . S
N944 H950 0.984 . S
N944 H951 0.984 . S
N945 C938 1.356 . S
N945 H948 0.984 . S
N945 H949 0.985 . S
H946 N941 0.984 . S
H947 N941 0.985 . S
H948 N945 0.984 . S
H949 N945 0.985 . S
H950 N944 0.984 . S
H951 N944 0.984 . S
H952 N940 0.984 . S
H953 N940 0.985 . S
C954 C955 1.363 . S
C954 C960 1.379 . S
C954 N962 1.356 . S
C955 C954 1.363 . S
C955 C961 1.363 . S
C956 C957 1.363 1_565 S
C956 C961 1.379 . S
C956 N963 1.356 1_565 S
C957 C956 1.363 1_545 S
C957 C960 1.363 1_545 S
N958 C960 1.356 1_545 S
N958 H970 0.984 . S
N958 H971 0.985 . S
N959 C961 1.356 . S
N959 H964 0.984 . S
N959 H965 0.985 . S
C960 C954 1.379 . S
C960 C957 1.363 1_565 S
C960 N958 1.356 1_565 S
C961 C955 1.363 . S
C961 C956 1.379 . S
C961 N959 1.356 . S
N962 C954 1.356 . S
N962 H968 0.984 . S
N962 H969 0.984 . S
N963 C956 1.356 1_545 S
N963 H966 0.984 . S
N963 H967 0.985 1_545 S
H964 N959 0.984 . S
H965 N959 0.985 . S
H966 N963 0.984 . S
H967 N963 0.985 1_565 S
H968 N962 0.984 . S
H969 N962 0.984 . S
H970 N958 0.984 . S
H971 N958 0.985 . S
C972 C973 1.363 1_455 S
C972 C978 1.379 . S
C972 N980 1.356 . S
C973 C972 1.363 1_655 S
C973 C979 1.363 . S
C974 C975 1.363 . S
C974 C979 1.379 1_455 S
C974 N981 1.356 . S
C975 C974 1.363 . S
C975 C978 1.363 . S
N976 C978 1.356 . S
N976 H988 0.984 . S
N976 H989 0.985 . S
N977 C979 1.356 . S
N977 H982 0.984 . S
N977 H983 0.985 . S
C978 C972 1.379 . S
C978 C975 1.363 . S
C978 N976 1.356 . S
C979 C973 1.363 . S
C979 C974 1.379 1_655 S
C979 N977 1.356 . S
N980 C972 1.356 . S
N980 H986 0.984 . S
N980 H987 0.984 1_455 S
N981 C974 1.356 . S
N981 H984 0.984 . S
N981 H985 0.985 . S
H982 N977 0.984 . S
H983 N977 0.985 . S
H984 N981 0.984 . S
H985 N981 0.985 . S
H986 N980 0.984 . S
H987 N980 0.984 1_655 S
H988 N976 0.984 . S
H989 N976 0.985 . S
C990 C991 1.363 . S
C990 C996 1.379 . S
C990 N998 1.356 . S
C991 C990 1.363 . S
C991 C997 1.363 . S
C992 C993 1.363 . S
C992 C997 1.379 1_455 S
C992 N999 1.356 . S
C993 C992 1.363 . S
C993 C996 1.363 1_455 S
N994 C996 1.356 . S
N994 H1006 0.984 . S
N994 H1007 0.985 1_655 S
N995 C997 1.356 . S
N995 H1000 0.984 . S
N995 H1001 0.985 . S
C996 C990 1.379 . S
C996 C993 1.363 1_655 S
C996 N994 1.356 . S
C997 C991 1.363 . S
C997 C992 1.379 1_655 S
C997 N995 1.356 . S
N998 C990 1.356 . S
N998 H1004 0.984 . S
N998 H1005 0.984 . S
N999 C992 1.356 . S
N999 H1002 0.984 . S
N999 H1003 0.985 . S
H1000 N995 0.984 . S
H1001 N995 0.985 . S
H1002 N999 0.984 . S
H1003 N999 0.985 . S
H1004 N998 0.984 . S
H1005 N998 0.984 . S
H1006 N994 0.984 . S
H1007 N994 0.985 1_455 S
C1008 C1009 1.363 . S
C1008 C1014 1.379 . S
C1008 N1016 1.356 . S
C1009 C1008 1.363 . S
C1009 C1015 1.363 . S
C1010 C1011 1.363 . S
C1010 C1015 1.379 . S
C1010 N1017 1.356 . S
C1011 C1010 1.363 . S
C1011 C1014 1.363 . S
N1012 C1014 1.356 . S
N1012 H1024 0.984 . S
N1012 H1025 0.985 . S
N1013 C1015 1.356 . S
N1013 H1018 0.984 . S
N1013 H1019 0.985 . S
C1014 C1008 1.379 . S
C1014 C1011 1.363 . S
C1014 N1012 1.356 . S
C1015 C1009 1.363 . S
C1015 C1010 1.379 . S
C1015 N1013 1.356 . S
N1016 C1008 1.356 . S
N1016 H1022 0.984 . S
N1016 H1023 0.984 . S
N1017 C1010 1.356 . S
N1017 H1020 0.984 . S
N1017 H1021 0.985 . S
H1018 N1013 0.984 . S
H1019 N1013 0.985 . S
H1020 N1017 0.984 . S
H1021 N1017 0.985 . S
H1022 N1016 0.984 . S
H1023 N1016 0.984 . S
H1024 N1012 0.984 . S
H1025 N1012 0.985 . S
C1026 C1027 1.363 . S
C1026 C1032 1.379 . S
C1026 N1034 1.356 . S
C1027 C1026 1.363 . S
C1027 C1033 1.363 . S
C1028 C1029 1.363 1_545 S
C1028 C1033 1.379 . S
C1028 N1035 1.356 . S
C1029 C1028 1.363 1_565 S
C1029 C1032 1.363 1_565 S
N1030 C1032 1.356 1_565 S
N1030 H1042 0.984 . S
N1030 H1043 0.985 . S
N1031 C1033 1.356 . S
N1031 H1036 0.984 . S
N1031 H1037 0.985 . S
C1032 C1026 1.379 . S
C1032 C1029 1.363 1_545 S
C1032 N1030 1.356 1_545 S
C1033 C1027 1.363 . S
C1033 C1028 1.379 . S
C1033 N1031 1.356 . S
N1034 C1026 1.356 . S
N1034 H1040 0.984 . S
N1034 H1041 0.984 . S
N1035 C1028 1.356 . S
N1035 H1038 0.984 1_545 S
N1035 H1039 0.985 . S
H1036 N1031 0.984 . S
H1037 N1031 0.985 . S
H1038 N1035 0.984 1_565 S
H1039 N1035 0.985 . S
H1040 N1034 0.984 . S
H1041 N1034 0.984 . S
H1042 N1030 0.984 . S
H1043 N1030 0.985 . S
C1044 C1045 1.363 . S
C1044 C1050 1.379 . S
C1044 N1052 1.356 1_554 S
C1045 C1044 1.363 . S
C1045 C1051 1.363 . S
C1046 C1047 1.363 . S
C1046 C1051 1.379 . S
C1046 N1053 1.356 . S
C1047 C1046 1.363 . S
C1047 C1050 1.363 . S
N1048 C1050 1.356 . S
N1048 H1060 0.984 1_554 S
N1048 H1061 0.985 . S
N1049 C1051 1.356 . S
N1049 H1054 0.984 . S
N1049 H1055 0.985 . S
C1050 C1044 1.379 . S
C1050 C1047 1.363 . S
C1050 N1048 1.356 . S
C1051 C1045 1.363 . S
C1051 C1046 1.379 . S
C1051 N1049 1.356 . S
N1052 C1044 1.356 1_556 S
N1052 H1058 0.984 . S
N1052 H1059 0.984 . S
N1053 C1046 1.356 . S
N1053 H1056 0.984 . S
N1053 H1057 0.985 . S
H1054 N1049 0.984 . S
H1055 N1049 0.985 . S
H1056 N1053 0.984 . S
H1057 N1053 0.985 . S
H1058 N1052 0.984 . S
H1059 N1052 0.984 . S
H1060 N1048 0.984 1_556 S
H1061 N1048 0.985 . S
C1062 C1063 1.363 . S
C1062 C1068 1.379 . S
C1062 N1070 1.384 . S
C1063 C1062 1.363 . S
C1063 C1069 1.363 . S
C1064 C1065 1.363 . S
C1064 C1069 1.379 . S
C1064 N1071 1.356 . S
C1065 C1064 1.363 . S
C1065 C1068 1.363 . S
N1066 C1068 1.356 . S
N1066 H1078 0.984 1_655 S
N1066 H1079 0.985 . S
N1067 C1069 1.356 . S
N1067 H1072 0.984 . S
N1067 H1073 0.985 . S
C1068 C1062 1.379 . S
C1068 C1065 1.363 . S
C1068 N1066 1.356 . S
C1069 C1063 1.363 . S
C1069 C1064 1.379 . S
C1069 N1067 1.356 . S
N1070 C1062 1.384 . S
N1070 H1076 0.970 1_655 S
N1070 H1077 0.973 . S
N1071 C1064 1.356 . S
N1071 H1074 0.984 . S
N1071 H1075 0.985 . S
H1072 N1067 0.984 . S
H1073 N1067 0.985 . S
H1074 N1071 0.984 . S
H1075 N1071 0.985 . S
H1076 N1070 0.970 1_455 S
H1077 N1070 0.973 . S
H1078 N1066 0.984 1_455 S
H1079 N1066 0.985 . S
C1080 C1081 1.363 . S
C1080 C1086 1.379 . S
C1080 N1088 1.356 . S
C1081 C1080 1.363 . S
C1081 C1087 1.363 . S
C1082 C1083 1.363 . S
C1082 C1087 1.379 . S
C1082 N1089 1.356 . S
C1083 C1082 1.363 . S
C1083 C1086 1.363 . S
N1084 C1086 1.356 . S
N1084 H1096 0.984 . S
N1084 H1097 0.985 . S
N1085 C1087 1.356 1_556 S
N1085 H1090 0.984 . S
N1085 H1091 0.985 . S
C1086 C1080 1.379 . S
C1086 C1083 1.363 . S
C1086 N1084 1.356 . S
C1087 C1081 1.363 . S
C1087 C1082 1.379 . S
C1087 N1085 1.356 1_554 S
N1088 C1080 1.356 . S
N1088 H1094 0.984 . S
N1088 H1095 0.984 . S
N1089 C1082 1.356 . S
N1089 H1092 0.984 . S
N1089 H1093 0.985 1_554 S
H1090 N1085 0.984 . S
H1091 N1085 0.985 . S
H1092 N1089 0.984 . S
H1093 N1089 0.985 1_556 S
H1094 N1088 0.984 . S
H1095 N1088 0.984 . S
H1096 N1084 0.984 . S
H1097 N1084 0.985 . S
C1098 C1099 1.363 . S
C1098 C1104 1.379 . S
C1098 N1106 1.356 . S
C1099 C1098 1.363 . S
C1099 C1105 1.363 . S
C1100 C1101 1.363 . S
C1100 C1105 1.379 . S
C1100 N1107 1.356 1_556 S
C1101 C1100 1.363 . S
C1101 C1104 1.363 . S
N1102 C1104 1.356 . S
N1102 H1114 0.984 . S
N1102 H1115 0.985 . S
N1103 C1105 1.356 . S
N1103 H1108 0.984 . S
N1103 H1109 0.985 1_556 S
C1104 C1098 1.379 . S
C1104 C1101 1.363 . S
C1104 N1102 1.356 . S
C1105 C1099 1.363 . S
C1105 C1100 1.379 . S
C1105 N1103 1.356 . S
N1106 C1098 1.356 . S
N1106 H1112 0.984 . S
N1106 H1113 0.984 . S
N1107 C1100 1.356 1_554 S
N1107 H1110 0.984 . S
N1107 H1111 0.985 . S
H1108 N1103 0.984 . S
H1109 N1103 0.985 1_554 S
H1110 N1107 0.984 . S
H1111 N1107 0.985 . S
H1112 N1106 0.984 . S
H1113 N1106 0.984 . S
H1114 N1102 0.984 . S
H1115 N1102 0.985 . S
C1116 C1117 1.363 . S
C1116 C1122 1.379 . S
C1116 N1124 1.356 . S
C1117 C1116 1.363 . S
C1117 C1123 1.363 . S
C1118 C1119 1.363 . S
C1118 C1123 1.379 . S
C1118 N1125 1.356 . S
C1119 C1118 1.363 . S
C1119 C1122 1.363 . S
N1120 C1122 1.356 . S
N1120 H1132 0.984 . S
N1120 H1133 0.985 . S
N1121 C1123 1.356 . S
N1121 H1126 0.984 . S
N1121 H1127 0.985 1_455 S
C1122 C1116 1.379 . S
C1122 C1119 1.363 . S
C1122 N1120 1.356 . S
C1123 C1117 1.363 . S
C1123 C1118 1.379 . S
C1123 N1121 1.356 . S
N1124 C1116 1.356 . S
N1124 H1130 0.984 . S
N1124 H1131 0.984 . S
N1125 C1118 1.356 . S
N1125 H1128 0.984 . S
N1125 H1129 0.985 1_455 S
H1126 N1121 0.984 . S
H1127 N1121 0.985 1_655 S
H1128 N1125 0.984 . S
H1129 N1125 0.985 1_655 S
H1130 N1124 0.984 . S
H1131 N1124 0.984 . S
H1132 N1120 0.984 . S
H1133 N1120 0.985 . S
C1134 C1135 1.363 . S
C1134 C1140 1.379 . S
C1134 N1142 1.356 . S
C1135 C1134 1.363 . S
C1135 C1141 1.363 . S
C1136 C1137 1.363 . S
C1136 C1141 1.379 . S
C1136 N1143 1.356 . S
C1137 C1136 1.363 . S
C1137 C1140 1.363 . S
N1138 C1140 1.356 . S
N1138 H1150 0.984 . S
N1138 H1151 0.985 . S
N1139 C1141 1.356 . S
N1139 H1144 0.985 . S
N1139 H1145 0.985 1_556 S
C1140 C1134 1.379 . S
C1140 C1137 1.363 . S
C1140 N1138 1.356 . S
C1141 C1135 1.363 . S
C1141 C1136 1.379 . S
C1141 N1139 1.356 . S
N1142 C1134 1.356 . S
N1142 H1148 0.984 . S
N1142 H1149 0.984 . S
N1143 C1136 1.356 . S
N1143 H1146 0.984 . S
N1143 H1147 0.985 . S
H1144 N1139 0.985 . S
H1145 N1139 0.985 1_554 S
H1146 N1143 0.984 . S
H1147 N1143 0.985 . S
H1148 N1142 0.984 . S
H1149 N1142 0.984 . S
H1150 N1138 0.984 . S
H1151 N1138 0.985 . S
C1152 C1153 1.363 . S
C1152 C1158 1.379 1_655 S
C1152 N1160 1.356 . S
C1153 C1152 1.363 . S
C1153 C1159 1.363 1_655 S
C1154 C1155 1.363 . S
C1154 C1159 1.379 . S
C1154 N1161 1.356 . S
C1155 C1154 1.363 . S
C1155 C1158 1.363 . S
N1156 C1158 1.356 . S
N1156 H1168 0.984 . S
N1156 H1169 0.985 . S
N1157 C1159 1.356 . S
N1157 H1162 0.984 1_455 S
N1157 H1163 0.985 . S
C1158 C1152 1.379 1_455 S
C1158 C1155 1.363 . S
C1158 N1156 1.356 . S
C1159 C1153 1.363 1_455 S
C1159 C1154 1.379 . S
C1159 N1157 1.356 . S
N1160 C1152 1.356 . S
N1160 H1166 0.984 . S
N1160 H1167 0.984 . S
N1161 C1154 1.356 . S
N1161 H1164 0.984 . S
N1161 H1165 0.985 . S
H1162 N1157 0.984 1_655 S
H1163 N1157 0.985 . S
H1164 N1161 0.984 . S
H1165 N1161 0.985 . S
H1166 N1160 0.984 . S
H1167 N1160 0.984 . S
H1168 N1156 0.984 . S
H1169 N1156 0.985 . S
C1170 C1171 1.363 . S
C1170 C1176 1.379 . S
C1170 N1178 1.356 . S
C1171 C1170 1.363 . S
C1171 C1177 1.363 . S
C1172 C1173 1.363 . S
C1172 C1177 1.379 . S
C1172 N1179 1.356 . S
C1173 C1172 1.363 . S
C1173 C1176 1.363 . S
N1174 C1176 1.356 . S
N1174 H1186 0.984 . S
N1174 H1187 0.985 . S
N1175 C1177 1.356 . S
N1175 H1180 0.984 . S
N1175 H1181 0.985 . S
C1176 C1170 1.379 . S
C1176 C1173 1.363 . S
C1176 N1174 1.356 . S
C1177 C1171 1.363 . S
C1177 C1172 1.379 . S
C1177 N1175 1.356 . S
N1178 C1170 1.356 . S
N1178 H1184 0.984 . S
N1178 H1185 0.984 . S
N1179 C1172 1.356 . S
N1179 H1182 0.984 . S
N1179 H1183 0.985 . S
H1180 N1175 0.984 . S
H1181 N1175 0.985 . S
H1182 N1179 0.984 . S
H1183 N1179 0.985 . S
H1184 N1178 0.984 . S
H1185 N1178 0.984 . S
H1186 N1174 0.984 . S
H1187 N1174 0.985 . S
C1188 C1189 1.363 1_565 S
C1188 C1194 1.379 . S
C1188 N1196 1.356 1_565 S
C1189 C1188 1.363 1_545 S
C1189 C1195 1.363 1_545 S
C1190 C1191 1.363 . S
C1190 C1195 1.379 . S
C1190 N1197 1.356 . S
C1191 C1190 1.363 . S
C1191 C1194 1.363 . S
N1192 C1194 1.356 . S
N1192 H1204 0.984 . S
N1192 H1205 0.985 . S
N1193 C1195 1.356 1_545 S
N1193 H1198 0.984 . S
N1193 H1199 0.985 1_545 S
C1194 C1188 1.379 . S
C1194 C1191 1.363 . S
C1194 N1192 1.356 . S
C1195 C1189 1.363 1_565 S
C1195 C1190 1.379 . S
C1195 N1193 1.356 1_565 S
N1196 C1188 1.356 1_545 S
N1196 H1202 0.984 . S
N1196 H1203 0.984 . S
N1197 C1190 1.356 . S
N1197 H1200 0.984 . S
N1197 H1201 0.985 . S
H1198 N1193 0.984 . S
H1199 N1193 0.985 1_565 S
H1200 N1197 0.984 . S
H1201 N1197 0.985 . S
H1202 N1196 0.984 . S
H1203 N1196 0.984 . S
H1204 N1192 0.984 . S
H1205 N1192 0.985 . S
C1206 C1207 1.363 . S
C1206 C1212 1.379 . S
C1206 N1214 1.356 . S
C1207 C1206 1.363 . S
C1207 C1213 1.363 . S
C1208 C1209 1.363 . S
C1208 C1213 1.379 . S
C1208 N1215 1.356 . S
C1209 C1208 1.363 . S
C1209 C1212 1.363 . S
N1210 C1212 1.356 . S
N1210 H1222 0.984 . S
N1210 H1223 0.985 . S
N1211 C1213 1.356 . S
N1211 H1216 0.984 . S
N1211 H1217 0.985 . S
C1212 C1206 1.379 . S
C1212 C1209 1.363 . S
C1212 N1210 1.356 . S
C1213 C1207 1.363 . S
C1213 C1208 1.379 . S
C1213 N1211 1.356 . S
N1214 C1206 1.356 . S
N1214 H1220 0.984 . S
N1214 H1221 0.984 . S
N1215 C1208 1.356 . S
N1215 H1218 0.984 . S
N1215 H1219 0.985 . S
H1216 N1211 0.984 . S
H1217 N1211 0.985 . S
H1218 N1215 0.984 . S
H1219 N1215 0.985 . S
H1220 N1214 0.984 . S
H1221 N1214 0.984 . S
H1222 N1210 0.984 . S
H1223 N1210 0.985 . S
C1224 C1225 1.363 . S
C1224 C1230 1.379 . S
C1224 N1232 1.356 . S
C1225 C1224 1.363 . S
C1225 C1231 1.363 . S
C1226 C1227 1.363 . S
C1226 C1231 1.379 . S
C1226 N1233 1.356 . S
C1227 C1226 1.363 . S
C1227 C1230 1.363 . S
N1228 C1230 1.356 . S
N1228 H1240 0.984 . S
N1228 H1241 0.985 . S
N1229 C1231 1.356 . S
N1229 H1234 0.984 . S
N1229 H1235 0.985 . S
C1230 C1224 1.379 . S
C1230 C1227 1.363 . S
C1230 N1228 1.356 . S
C1231 C1225 1.363 . S
C1231 C1226 1.379 . S
C1231 N1229 1.356 . S
N1232 C1224 1.356 . S
N1232 H1238 0.984 . S
N1232 H1239 0.984 . S
N1233 C1226 1.356 . S
N1233 H1236 0.984 . S
N1233 H1237 0.985 . S
H1234 N1229 0.984 . S
H1235 N1229 0.985 . S
H1236 N1233 0.984 . S
H1237 N1233 0.985 . S
H1238 N1232 0.984 . S
H1239 N1232 0.984 . S
H1240 N1228 0.984 . S
H1241 N1228 0.985 . S
C1242 C1243 1.363 . S
C1242 C1248 1.379 . S
C1242 N1250 1.356 . S
C1243 C1242 1.363 . S
C1243 C1249 1.363 . S
C1244 C1245 1.363 . S
C1244 C1249 1.379 . S
C1244 N1251 1.356 . S
C1245 C1244 1.363 . S
C1245 C1248 1.363 . S
N1246 C1248 1.356 . S
N1246 H1258 0.984 . S
N1246 H1259 0.985 . S
N1247 C1249 1.356 . S
N1247 H1252 0.984 . S
N1247 H1253 0.985 . S
C1248 C1242 1.379 . S
C1248 C1245 1.363 . S
C1248 N1246 1.356 . S
C1249 C1243 1.363 . S
C1249 C1244 1.379 . S
C1249 N1247 1.356 . S
N1250 C1242 1.356 . S
N1250 H1256 0.984 . S
N1250 H1257 0.984 . S
N1251 C1244 1.356 . S
N1251 H1254 0.984 . S
N1251 H1255 0.985 . S
H1252 N1247 0.984 . S
H1253 N1247 0.985 . S
H1254 N1251 0.984 . S
H1255 N1251 0.985 . S
H1256 N1250 0.984 . S
H1257 N1250 0.984 . S
H1258 N1246 0.984 . S
H1259 N1246 0.985 . S
C1260 C1261 1.363 . S
C1260 C1266 1.379 . S
C1260 N1268 1.356 . S
C1261 C1260 1.363 . S
C1261 C1267 1.363 . S
C1262 C1263 1.363 . S
C1262 C1267 1.379 . S
C1262 N1269 1.356 . S
C1263 C1262 1.363 . S
C1263 C1266 1.363 . S
N1264 C1266 1.356 . S
N1264 H1276 0.984 . S
N1264 H1277 0.985 . S
N1265 C1267 1.356 . S
N1265 H1270 0.984 . S
N1265 H1271 0.985 . S
C1266 C1260 1.379 . S
C1266 C1263 1.363 . S
C1266 N1264 1.356 . S
C1267 C1261 1.363 . S
C1267 C1262 1.379 . S
C1267 N1265 1.356 . S
N1268 C1260 1.356 . S
N1268 H1274 0.984 . S
N1268 H1275 0.984 . S
N1269 C1262 1.356 . S
N1269 H1272 0.984 . S
N1269 H1273 0.985 . S
H1270 N1265 0.984 . S
H1271 N1265 0.985 . S
H1272 N1269 0.984 . S
H1273 N1269 0.985 . S
H1274 N1268 0.984 . S
H1275 N1268 0.984 . S
H1276 N1264 0.984 . S
H1277 N1264 0.985 . S
C1278 C1279 1.363 . S
C1278 C1284 1.379 . S
C1278 N1286 1.356 . S
C1279 C1278 1.363 . S
C1279 C1285 1.363 . S
C1280 C1281 1.363 . S
C1280 C1285 1.379 . S
C1280 N1287 1.356 . S
C1281 C1280 1.363 . S
C1281 C1284 1.363 . S
N1282 C1284 1.356 . S
N1282 H1294 0.984 . S
N1282 H1295 0.985 . S
N1283 C1285 1.356 . S
N1283 H1288 0.984 . S
N1283 H1289 0.985 . S
C1284 C1278 1.379 . S
C1284 C1281 1.363 . S
C1284 N1282 1.356 . S
C1285 C1279 1.363 . S
C1285 C1280 1.379 . S
C1285 N1283 1.356 . S
N1286 C1278 1.356 . S
N1286 H1292 0.984 . S
N1286 H1293 0.984 . S
N1287 C1280 1.356 . S
N1287 H1290 0.984 . S
N1287 H1291 0.985 . S
H1288 N1283 0.984 . S
H1289 N1283 0.985 . S
H1290 N1287 0.984 . S
H1291 N1287 0.985 . S
H1292 N1286 0.984 . S
H1293 N1286 0.984 . S
H1294 N1282 0.984 . S
H1295 N1282 0.985 . S
C1296 C1297 1.363 . S
C1296 C1302 1.379 . S
C1296 N1304 1.356 . S
C1297 C1296 1.363 . S
C1297 C1303 1.363 . S
C1298 C1299 1.363 . S
C1298 C1303 1.379 . S
C1298 N1305 1.356 . S
C1299 C1298 1.363 . S
C1299 C1302 1.363 . S
N1300 C1302 1.356 . S
N1300 H1312 0.984 . S
N1300 H1313 0.985 . S
N1301 C1303 1.356 . S
N1301 H1306 0.984 . S
N1301 H1307 0.985 . S
C1302 C1296 1.379 . S
C1302 C1299 1.363 . S
C1302 N1300 1.356 . S
C1303 C1297 1.363 . S
C1303 C1298 1.379 . S
C1303 N1301 1.356 . S
N1304 C1296 1.356 . S
N1304 H1310 0.984 . S
N1304 H1311 0.984 . S
N1305 C1298 1.356 . S
N1305 H1308 0.984 . S
N1305 H1309 0.985 . S
H1306 N1301 0.984 . S
H1307 N1301 0.985 . S
H1308 N1305 0.984 . S
H1309 N1305 0.985 . S
H1310 N1304 0.984 . S
H1311 N1304 0.984 . S
H1312 N1300 0.984 . S
H1313 N1300 0.985 . S
C1314 C1315 1.363 1_556 S
C1314 C1320 1.379 . S
C1314 N1322 1.356 1_556 S
C1315 C1314 1.363 1_554 S
C1315 C1321 1.363 1_545 S
C1316 C1317 1.363 1_554 S
C1316 C1321 1.379 . S
C1316 N1323 1.356 1_554 S
C1317 C1316 1.363 1_556 S
C1317 C1320 1.363 1_565 S
N1318 C1320 1.356 . S
N1318 H1330 0.984 . S
N1318 H1331 0.985 1_545 S
N1319 C1321 1.356 . S
N1319 H1324 0.984 1_565 S
N1319 H1325 0.985 . S
C1320 C1314 1.379 . S
C1320 C1317 1.363 1_545 S
C1320 N1318 1.356 . S
C1321 C1315 1.363 1_565 S
C1321 C1316 1.379 . S
C1321 N1319 1.356 . S
N1322 C1314 1.356 1_554 S
N1322 H1328 0.984 1_554 S
N1322 H1329 0.984 . S
N1323 C1316 1.356 1_556 S
N1323 H1326 0.984 . S
N1323 H1327 0.985 1_556 S
H1324 N1319 0.984 1_545 S
H1325 N1319 0.985 . S
H1326 N1323 0.984 . S
H1327 N1323 0.985 1_554 S
H1328 N1322 0.984 1_556 S
H1329 N1322 0.984 . S
H1330 N1318 0.984 . S
H1331 N1318 0.985 1_565 S
C1332 C1333 1.363 1_556 S
C1332 C1338 1.379 . S
C1332 N1340 1.356 1_556 S
C1333 C1332 1.363 1_554 S
C1333 C1339 1.363 1_655 S
C1334 C1335 1.363 1_554 S
C1334 C1339 1.379 . S
C1334 N1341 1.356 1_554 S
C1335 C1334 1.363 1_556 S
C1335 C1338 1.363 1_455 S
N1336 C1338 1.356 . S
N1336 H1348 0.984 . S
N1336 H1349 0.985 . S
N1337 C1339 1.356 . S
N1337 H1342 0.984 . S
N1337 H1343 0.985 . S
C1338 C1332 1.379 . S
C1338 C1335 1.363 1_655 S
C1338 N1336 1.356 . S
C1339 C1333 1.363 1_455 S
C1339 C1334 1.379 . S
C1339 N1337 1.356 . S
N1340 C1332 1.356 1_554 S
N1340 H1346 0.984 1_554 S
N1340 H1347 0.984 . S
N1341 C1334 1.356 1_556 S
N1341 H1344 0.984 . S
N1341 H1345 0.985 1_556 S
H1342 N1337 0.984 . S
H1343 N1337 0.985 . S
H1344 N1341 0.984 . S
H1345 N1341 0.985 1_554 S
H1346 N1340 0.984 1_556 S
H1347 N1340 0.984 . S
H1348 N1336 0.984 . S
H1349 N1336 0.985 . S
C1350 C1351 1.363 . S
C1350 C1356 1.379 1_556 S
C1350 N1358 1.356 . S
C1351 C1350 1.363 . S
C1351 C1357 1.363 . S
C1352 C1353 1.363 . S
C1352 C1357 1.379 1_554 S
C1352 N1359 1.356 . S
C1353 C1352 1.363 . S
C1353 C1356 1.363 . S
N1354 C1356 1.356 . S
N1354 H1366 0.984 . S
N1354 H1367 0.985 . S
N1355 C1357 1.356 . S
N1355 H1360 0.984 . S
N1355 H1361 0.985 . S
C1356 C1350 1.379 1_554 S
C1356 C1353 1.363 . S
C1356 N1354 1.356 . S
C1357 C1351 1.363 . S
C1357 C1352 1.379 1_556 S
C1357 N1355 1.356 . S
N1358 C1350 1.356 . S
N1358 H1364 0.984 . S
N1358 H1365 0.984 . S
N1359 C1352 1.356 . S
N1359 H1362 0.984 . S
N1359 H1363 0.985 . S
H1360 N1355 0.984 . S
H1361 N1355 0.985 . S
H1362 N1359 0.984 . S
H1363 N1359 0.985 . S
H1364 N1358 0.984 . S
H1365 N1358 0.984 . S
H1366 N1354 0.984 . S
H1367 N1354 0.985 . S
C397 C92 1.514 . S
C399 C8 1.509 1_556 S
C415 C30 1.509 1_546 S
C417 C114 1.513 . S
C433 C70 1.513 . S
C435 C52 1.509 1_656 S
C451 C74 1.509 1_554 S
C453 C26 1.514 . S
C469 C96 1.509 1_564 S
C471 C48 1.513 . S
C487 C4 1.513 . S
C489 C118 1.509 1_454 S
C505 C140 1.509 . S
C507 C224 1.514 . S
C523 C246 1.513 . S
C525 C162 1.509 . S
C541 C202 1.513 . S
C543 C184 1.509 . S
C559 C206 1.509 . S
C561 C158 1.514 . S
C577 C180 1.513 . S
C579 C228 1.509 . S
C595 C250 1.509 . S
C597 C136 1.513 . S
C613 C356 1.514 . S
C615 C272 1.509 . S
C631 C294 1.509 . S
C633 C378 1.513 . S
C649 C334 1.513 . S
C651 C316 1.509 . S
C667 C290 1.514 . S
C669 C338 1.509 . S
C685 C360 1.509 . S
C687 C312 1.513 . S
C703 C268 1.513 . S
C705 C382 1.509 . S
C721 C5 1.225 . S
C723 C336 1.225 . S
C739 C27 1.225 . S
C741 C358 1.225 . S
C757 C380 1.225 . S
C759 C49 1.225 . S
C775 C72 1.225 . S
C777 C137 1.225 . S
C793 C94 1.225 . S
C795 C159 1.225 . S
C811 C181 1.225 . S
C813 C116 1.225 . S
C829 C269 1.221 1_545 S
C831 C204 1.221 1_565 S
C847 C291 1.225 1_655 S
C849 C226 1.225 1_455 S
C865 C313 1.225 . S
C867 C248 1.225 . S
C883 C9 1.426 . S
C885 C161 1.295 . S
C901 C183 1.295 . S
C903 C31 1.426 . S
C919 C139 1.295 . S
C921 C53 1.426 . S
C937 C73 1.426 . S
C939 C361 1.295 . S
C955 C383 1.295 . S
C957 C95 1.426 . S
C973 C117 1.426 . S
C975 C339 1.295 . S
C991 C141 1.426 . S
C993 C293 1.295 . S
C1009 C163 1.426 . S
C1011 C315 1.295 . S
C1027 C185 1.426 . S
C1029 C271 1.295 . S
C1045 C97 1.295 . S
C1047 C205 1.426 . S
C1063 C119 1.295 . S
C1065 C227 1.426 . S
C1081 C75 1.295 . S
C1083 C249 1.426 . S
C1099 C273 1.426 . S
C1101 C29 1.295 . S
C1117 C295 1.426 . S
C1119 C51 1.295 . S
C1135 C7 1.295 . S
C1137 C317 1.426 . S
C1153 C229 1.295 . S
C1155 C337 1.426 . S
C1171 C359 1.426 . S
C1173 C251 1.295 . S
C1189 C207 1.295 . S
C1191 C381 1.426 . S
C1207 C6 1.782 . S
C1209 C335 1.782 . S
C1225 C28 1.782 . S
C1227 C357 1.782 . S
C1243 C50 1.782 . S
C1245 C379 1.782 . S
C1261 C138 1.782 . S
C1263 C71 1.782 . S
C1279 C93 1.782 . S
C1281 C160 1.782 . S
C1297 C182 1.782 . S
C1299 C115 1.782 . S
C1315 C203 1.782 . S
C1317 C270 1.782 . S
C1333 C225 1.782 . S
C1335 C292 1.782 . S
C1351 C314 1.782 . S
C1353 C247 1.782 . S
