# Generated by pormake.
# Topology fcq, (5)-cn, num edge types: 1
# Building blocks:
#     Node 0, Type 0, BuildingBlock: BEQFEK_clean_sbu_0, # of connection points: 5
#     Node 1, Type 0, BuildingBlock: BEQFEK_clean_sbu_0, # of connection points: 5
#     Node 2, Type 0, BuildingBlock: BEQFEK_clean_sbu_0, # of connection points: 5
#     Node 3, Type 0, BuildingBlock: BEQFEK_clean_sbu_0, # of connection points: 5
#     Node 4, Type 0, BuildingBlock: BEQFEK_clean_sbu_0, # of connection points: 5
#     Node 5, Type 0, BuildingBlock: BEQFEK_clean_sbu_0, # of connection points: 5
#     Node 6, Type 0, BuildingBlock: BEQFEK_clean_sbu_0, # of connection points: 5
#     Node 7, Type 0, BuildingBlock: BEQFEK_clean_sbu_0, # of connection points: 5
#     Node 8, Type 0, BuildingBlock: BEQFEK_clean_sbu_0, # of connection points: 5
#     Node 9, Type 0, BuildingBlock: BEQFEK_clean_sbu_0, # of connection points: 5
#     Node 10, Type 0, BuildingBlock: BEQFEK_clean_sbu_0, # of connection points: 5
#     Node 11, Type 0, BuildingBlock: BEQFEK_clean_sbu_0, # of connection points: 5
#     Node 12, Type 0, BuildingBlock: BEQFEK_clean_sbu_0, # of connection points: 5
#     Node 13, Type 0, BuildingBlock: BEQFEK_clean_sbu_0, # of connection points: 5
#     Node 14, Type 0, BuildingBlock: BEQFEK_clean_sbu_0, # of connection points: 5
#     Node 15, Type 0, BuildingBlock: BEQFEK_clean_sbu_0, # of connection points: 5
#     Node 16, Type 0, BuildingBlock: BEQFEK_clean_sbu_0, # of connection points: 5
#     Node 17, Type 0, BuildingBlock: BEQFEK_clean_sbu_0, # of connection points: 5
#     Node 18, Type 0, BuildingBlock: BEQFEK_clean_sbu_0, # of connection points: 5
#     Node 19, Type 0, BuildingBlock: BEQFEK_clean_sbu_0, # of connection points: 5
#     Node 20, Type 0, BuildingBlock: BEQFEK_clean_sbu_0, # of connection points: 5
#     Node 21, Type 0, BuildingBlock: BEQFEK_clean_sbu_0, # of connection points: 5
#     Node 22, Type 0, BuildingBlock: BEQFEK_clean_sbu_0, # of connection points: 5
#     Node 23, Type 0, BuildingBlock: BEQFEK_clean_sbu_0, # of connection points: 5
#     Node 24, Type 0, BuildingBlock: BEQFEK_clean_sbu_0, # of connection points: 5
#     Node 25, Type 0, BuildingBlock: BEQFEK_clean_sbu_0, # of connection points: 5
#     Node 26, Type 0, BuildingBlock: BEQFEK_clean_sbu_0, # of connection points: 5
#     Node 27, Type 0, BuildingBlock: BEQFEK_clean_sbu_0, # of connection points: 5
#     Node 28, Type 0, BuildingBlock: BEQFEK_clean_sbu_0, # of connection points: 5
#     Node 29, Type 0, BuildingBlock: BEQFEK_clean_sbu_0, # of connection points: 5
#     Node 30, Type 0, BuildingBlock: BEQFEK_clean_sbu_0, # of connection points: 5
#     Node 31, Type 0, BuildingBlock: BEQFEK_clean_sbu_0, # of connection points: 5
#     Node 32, Type 0, BuildingBlock: BEQFEK_clean_sbu_0, # of connection points: 5
#     Node 33, Type 0, BuildingBlock: BEQFEK_clean_sbu_0, # of connection points: 5
#     Node 34, Type 0, BuildingBlock: BEQFEK_clean_sbu_0, # of connection points: 5
#     Node 35, Type 0, BuildingBlock: BEQFEK_clean_sbu_0, # of connection points: 5
#     Node 36, Type 0, BuildingBlock: BEQFEK_clean_sbu_0, # of connection points: 5
#     Node 37, Type 0, BuildingBlock: BEQFEK_clean_sbu_0, # of connection points: 5
#     Node 38, Type 0, BuildingBlock: BEQFEK_clean_sbu_0, # of connection points: 5
#     Node 39, Type 0, BuildingBlock: BEQFEK_clean_sbu_0, # of connection points: 5
#     Node 40, Type 0, BuildingBlock: BEQFEK_clean_sbu_0, # of connection points: 5
#     Node 41, Type 0, BuildingBlock: BEQFEK_clean_sbu_0, # of connection points: 5
#     Node 42, Type 0, BuildingBlock: BEQFEK_clean_sbu_0, # of connection points: 5
#     Node 43, Type 0, BuildingBlock: BEQFEK_clean_sbu_0, # of connection points: 5
#     Node 44, Type 0, BuildingBlock: BEQFEK_clean_sbu_0, # of connection points: 5
#     Node 45, Type 0, BuildingBlock: BEQFEK_clean_sbu_0, # of connection points: 5
#     Node 46, Type 0, BuildingBlock: BEQFEK_clean_sbu_0, # of connection points: 5
#     Node 47, Type 0, BuildingBlock: BEQFEK_clean_sbu_0, # of connection points: 5
#     Edge 48, Type (0, 0), BuildingBlock: OJICUG_clean_linker_0, # of connection points: 2
#     Edge 49, Type (0, 0), BuildingBlock: OJICUG_clean_linker_0, # of connection points: 2
#     Edge 50, Type (0, 0), BuildingBlock: OJICUG_clean_linker_0, # of connection points: 2
#     Edge 51, Type (0, 0), BuildingBlock: OJICUG_clean_linker_0, # of connection points: 2
#     Edge 52, Type (0, 0), BuildingBlock: OJICUG_clean_linker_0, # of connection points: 2
#     Edge 53, Type (0, 0), BuildingBlock: OJICUG_clean_linker_0, # of connection points: 2
#     Edge 54, Type (0, 0), BuildingBlock: OJICUG_clean_linker_0, # of connection points: 2
#     Edge 55, Type (0, 0), BuildingBlock: OJICUG_clean_linker_0, # of connection points: 2
#     Edge 56, Type (0, 0), BuildingBlock: OJICUG_clean_linker_0, # of connection points: 2
#     Edge 57, Type (0, 0), BuildingBlock: OJICUG_clean_linker_0, # of connection points: 2
#     Edge 58, Type (0, 0), BuildingBlock: OJICUG_clean_linker_0, # of connection points: 2
#     Edge 59, Type (0, 0), BuildingBlock: OJICUG_clean_linker_0, # of connection points: 2
#     Edge 60, Type (0, 0), BuildingBlock: OJICUG_clean_linker_0, # of connection points: 2
#     Edge 61, Type (0, 0), BuildingBlock: OJICUG_clean_linker_0, # of connection points: 2
#     Edge 62, Type (0, 0), BuildingBlock: OJICUG_clean_linker_0, # of connection points: 2
#     Edge 63, Type (0, 0), BuildingBlock: OJICUG_clean_linker_0, # of connection points: 2
#     Edge 64, Type (0, 0), BuildingBlock: OJICUG_clean_linker_0, # of connection points: 2
#     Edge 65, Type (0, 0), BuildingBlock: OJICUG_clean_linker_0, # of connection points: 2
#     Edge 66, Type (0, 0), BuildingBlock: OJICUG_clean_linker_0, # of connection points: 2
#     Edge 67, Type (0, 0), BuildingBlock: OJICUG_clean_linker_0, # of connection points: 2
#     Edge 68, Type (0, 0), BuildingBlock: OJICUG_clean_linker_0, # of connection points: 2
#     Edge 69, Type (0, 0), BuildingBlock: OJICUG_clean_linker_0, # of connection points: 2
#     Edge 70, Type (0, 0), BuildingBlock: OJICUG_clean_linker_0, # of connection points: 2
#     Edge 71, Type (0, 0), BuildingBlock: OJICUG_clean_linker_0, # of connection points: 2
#     Edge 72, Type (0, 0), BuildingBlock: OJICUG_clean_linker_0, # of connection points: 2
#     Edge 73, Type (0, 0), BuildingBlock: OJICUG_clean_linker_0, # of connection points: 2
#     Edge 74, Type (0, 0), BuildingBlock: OJICUG_clean_linker_0, # of connection points: 2
#     Edge 75, Type (0, 0), BuildingBlock: OJICUG_clean_linker_0, # of connection points: 2
#     Edge 76, Type (0, 0), BuildingBlock: OJICUG_clean_linker_0, # of connection points: 2
#     Edge 77, Type (0, 0), BuildingBlock: OJICUG_clean_linker_0, # of connection points: 2
#     Edge 78, Type (0, 0), BuildingBlock: OJICUG_clean_linker_0, # of connection points: 2
#     Edge 79, Type (0, 0), BuildingBlock: OJICUG_clean_linker_0, # of connection points: 2
#     Edge 80, Type (0, 0), BuildingBlock: OJICUG_clean_linker_0, # of connection points: 2
#     Edge 81, Type (0, 0), BuildingBlock: OJICUG_clean_linker_0, # of connection points: 2
#     Edge 82, Type (0, 0), BuildingBlock: OJICUG_clean_linker_0, # of connection points: 2
#     Edge 83, Type (0, 0), BuildingBlock: OJICUG_clean_linker_0, # of connection points: 2
#     Edge 84, Type (0, 0), BuildingBlock: OJICUG_clean_linker_0, # of connection points: 2
#     Edge 85, Type (0, 0), BuildingBlock: OJICUG_clean_linker_0, # of connection points: 2
#     Edge 86, Type (0, 0), BuildingBlock: OJICUG_clean_linker_0, # of connection points: 2
#     Edge 87, Type (0, 0), BuildingBlock: OJICUG_clean_linker_0, # of connection points: 2
#     Edge 88, Type (0, 0), BuildingBlock: OJICUG_clean_linker_0, # of connection points: 2
#     Edge 89, Type (0, 0), BuildingBlock: OJICUG_clean_linker_0, # of connection points: 2
#     Edge 90, Type (0, 0), BuildingBlock: OJICUG_clean_linker_0, # of connection points: 2
#     Edge 91, Type (0, 0), BuildingBlock: OJICUG_clean_linker_0, # of connection points: 2
#     Edge 92, Type (0, 0), BuildingBlock: OJICUG_clean_linker_0, # of connection points: 2
#     Edge 93, Type (0, 0), BuildingBlock: OJICUG_clean_linker_0, # of connection points: 2
#     Edge 94, Type (0, 0), BuildingBlock: OJICUG_clean_linker_0, # of connection points: 2
#     Edge 95, Type (0, 0), BuildingBlock: OJICUG_clean_linker_0, # of connection points: 2
#     Edge 96, Type (0, 0), BuildingBlock: OJICUG_clean_linker_0, # of connection points: 2
#     Edge 97, Type (0, 0), BuildingBlock: OJICUG_clean_linker_0, # of connection points: 2
#     Edge 98, Type (0, 0), BuildingBlock: OJICUG_clean_linker_0, # of connection points: 2
#     Edge 99, Type (0, 0), BuildingBlock: OJICUG_clean_linker_0, # of connection points: 2
#     Edge 100, Type (0, 0), BuildingBlock: OJICUG_clean_linker_0, # of connection points: 2
#     Edge 101, Type (0, 0), BuildingBlock: OJICUG_clean_linker_0, # of connection points: 2
#     Edge 102, Type (0, 0), BuildingBlock: OJICUG_clean_linker_0, # of connection points: 2
#     Edge 103, Type (0, 0), BuildingBlock: OJICUG_clean_linker_0, # of connection points: 2
#     Edge 104, Type (0, 0), BuildingBlock: OJICUG_clean_linker_0, # of connection points: 2
#     Edge 105, Type (0, 0), BuildingBlock: OJICUG_clean_linker_0, # of connection points: 2
#     Edge 106, Type (0, 0), BuildingBlock: OJICUG_clean_linker_0, # of connection points: 2
#     Edge 107, Type (0, 0), BuildingBlock: OJICUG_clean_linker_0, # of connection points: 2
#     Edge 108, Type (0, 0), BuildingBlock: OJICUG_clean_linker_0, # of connection points: 2
#     Edge 109, Type (0, 0), BuildingBlock: OJICUG_clean_linker_0, # of connection points: 2
#     Edge 110, Type (0, 0), BuildingBlock: OJICUG_clean_linker_0, # of connection points: 2
#     Edge 111, Type (0, 0), BuildingBlock: OJICUG_clean_linker_0, # of connection points: 2
#     Edge 112, Type (0, 0), BuildingBlock: OJICUG_clean_linker_0, # of connection points: 2
#     Edge 113, Type (0, 0), BuildingBlock: OJICUG_clean_linker_0, # of connection points: 2
#     Edge 114, Type (0, 0), BuildingBlock: OJICUG_clean_linker_0, # of connection points: 2
#     Edge 115, Type (0, 0), BuildingBlock: OJICUG_clean_linker_0, # of connection points: 2
#     Edge 116, Type (0, 0), BuildingBlock: OJICUG_clean_linker_0, # of connection points: 2
#     Edge 117, Type (0, 0), BuildingBlock: OJICUG_clean_linker_0, # of connection points: 2
#     Edge 118, Type (0, 0), BuildingBlock: OJICUG_clean_linker_0, # of connection points: 2
#     Edge 119, Type (0, 0), BuildingBlock: OJICUG_clean_linker_0, # of connection points: 2
#     Edge 120, Type (0, 0), BuildingBlock: OJICUG_clean_linker_0, # of connection points: 2
#     Edge 121, Type (0, 0), BuildingBlock: OJICUG_clean_linker_0, # of connection points: 2
#     Edge 122, Type (0, 0), BuildingBlock: OJICUG_clean_linker_0, # of connection points: 2
#     Edge 123, Type (0, 0), BuildingBlock: OJICUG_clean_linker_0, # of connection points: 2
#     Edge 124, Type (0, 0), BuildingBlock: OJICUG_clean_linker_0, # of connection points: 2
#     Edge 125, Type (0, 0), BuildingBlock: OJICUG_clean_linker_0, # of connection points: 2
#     Edge 126, Type (0, 0), BuildingBlock: OJICUG_clean_linker_0, # of connection points: 2
#     Edge 127, Type (0, 0), BuildingBlock: OJICUG_clean_linker_0, # of connection points: 2
#     Edge 128, Type (0, 0), BuildingBlock: OJICUG_clean_linker_0, # of connection points: 2
#     Edge 129, Type (0, 0), BuildingBlock: OJICUG_clean_linker_0, # of connection points: 2
#     Edge 130, Type (0, 0), BuildingBlock: OJICUG_clean_linker_0, # of connection points: 2
#     Edge 131, Type (0, 0), BuildingBlock: OJICUG_clean_linker_0, # of connection points: 2
#     Edge 132, Type (0, 0), BuildingBlock: OJICUG_clean_linker_0, # of connection points: 2
#     Edge 133, Type (0, 0), BuildingBlock: OJICUG_clean_linker_0, # of connection points: 2
#     Edge 134, Type (0, 0), BuildingBlock: OJICUG_clean_linker_0, # of connection points: 2
#     Edge 135, Type (0, 0), BuildingBlock: OJICUG_clean_linker_0, # of connection points: 2
#     Edge 136, Type (0, 0), BuildingBlock: OJICUG_clean_linker_0, # of connection points: 2
#     Edge 137, Type (0, 0), BuildingBlock: OJICUG_clean_linker_0, # of connection points: 2
#     Edge 138, Type (0, 0), BuildingBlock: OJICUG_clean_linker_0, # of connection points: 2
#     Edge 139, Type (0, 0), BuildingBlock: OJICUG_clean_linker_0, # of connection points: 2
#     Edge 140, Type (0, 0), BuildingBlock: OJICUG_clean_linker_0, # of connection points: 2
#     Edge 141, Type (0, 0), BuildingBlock: OJICUG_clean_linker_0, # of connection points: 2
#     Edge 142, Type (0, 0), BuildingBlock: OJICUG_clean_linker_0, # of connection points: 2
#     Edge 143, Type (0, 0), BuildingBlock: OJICUG_clean_linker_0, # of connection points: 2
#     Edge 144, Type (0, 0), BuildingBlock: OJICUG_clean_linker_0, # of connection points: 2
#     Edge 145, Type (0, 0), BuildingBlock: OJICUG_clean_linker_0, # of connection points: 2
#     Edge 146, Type (0, 0), BuildingBlock: OJICUG_clean_linker_0, # of connection points: 2
#     Edge 147, Type (0, 0), BuildingBlock: OJICUG_clean_linker_0, # of connection points: 2
#     Edge 148, Type (0, 0), BuildingBlock: OJICUG_clean_linker_0, # of connection points: 2
#     Edge 149, Type (0, 0), BuildingBlock: OJICUG_clean_linker_0, # of connection points: 2
#     Edge 150, Type (0, 0), BuildingBlock: OJICUG_clean_linker_0, # of connection points: 2
#     Edge 151, Type (0, 0), BuildingBlock: OJICUG_clean_linker_0, # of connection points: 2
#     Edge 152, Type (0, 0), BuildingBlock: OJICUG_clean_linker_0, # of connection points: 2
#     Edge 153, Type (0, 0), BuildingBlock: OJICUG_clean_linker_0, # of connection points: 2
#     Edge 154, Type (0, 0), BuildingBlock: OJICUG_clean_linker_0, # of connection points: 2
#     Edge 155, Type (0, 0), BuildingBlock: OJICUG_clean_linker_0, # of connection points: 2
#     Edge 156, Type (0, 0), BuildingBlock: OJICUG_clean_linker_0, # of connection points: 2
#     Edge 157, Type (0, 0), BuildingBlock: OJICUG_clean_linker_0, # of connection points: 2
#     Edge 158, Type (0, 0), BuildingBlock: OJICUG_clean_linker_0, # of connection points: 2
#     Edge 159, Type (0, 0), BuildingBlock: OJICUG_clean_linker_0, # of connection points: 2
#     Edge 160, Type (0, 0), BuildingBlock: OJICUG_clean_linker_0, # of connection points: 2
#     Edge 161, Type (0, 0), BuildingBlock: OJICUG_clean_linker_0, # of connection points: 2
#     Edge 162, Type (0, 0), BuildingBlock: OJICUG_clean_linker_0, # of connection points: 2
#     Edge 163, Type (0, 0), BuildingBlock: OJICUG_clean_linker_0, # of connection points: 2
#     Edge 164, Type (0, 0), BuildingBlock: OJICUG_clean_linker_0, # of connection points: 2
#     Edge 165, Type (0, 0), BuildingBlock: OJICUG_clean_linker_0, # of connection points: 2
#     Edge 166, Type (0, 0), BuildingBlock: OJICUG_clean_linker_0, # of connection points: 2
#     Edge 167, Type (0, 0), BuildingBlock: OJICUG_clean_linker_0, # of connection points: 2
# Relax obj value: 0.411
# Max RMSD: 0.247
# Mean RMSD: 0.247
data_MOF--net-fcq--node1-BEQFEK_clean_sbu_0--edge1-OJICUG_clean_linker_0
_symmetry_space_group_name_H-M    P1
_symmetry_Int_Tables_number       1
_symmetry_cell_setting            triclinic
loop_
_symmetry_equiv_pos_as_xyz
'x, y, z'
_cell_length_a     53.935217
_cell_length_b     53.914046
_cell_length_c     53.925183
_cell_angle_alpha  89.992286
_cell_angle_beta   90.038596
_cell_angle_gamma 89.960271
loop_
_atom_site_label
_atom_site_type_symbol
_atom_site_fract_x
_atom_site_fract_y
_atom_site_fract_z
_atom_type_partial_charge
Co0 Co 0.18126 0.18285 0.42677 0.0
Co1 Co 0.14206 0.15226 0.39783 0.0
C2 C 0.14564 0.14984 0.45327 0.0
O3 O 0.16307 0.16572 0.45365 0.0
O4 O 0.13596 0.14278 0.43293 0.0
C5 C 0.20007 0.21725 0.46197 0.0
O6 O 0.1777 0.21575 0.4715 0.0
C7 C 0.0918 0.1382 0.38522 0.0
C8 C 0.09582 0.1237 0.34711 0.0
C9 C 0.07848 0.1286 0.36546 0.0
N10 N 0.11583 0.13898 0.37879 0.0
N11 N 0.1182 0.13014 0.35607 0.0
C12 C 0.08189 0.14862 0.40896 0.0
H13 H 0.09443 0.16326 0.41615 0.0
H14 H 0.06305 0.15644 0.40624 0.0
H15 H 0.08087 0.13359 0.42298 0.0
C16 C 0.15712 0.22436 0.40153 0.0
N17 N 0.15984 0.19999 0.40579 0.0
N18 N 0.14288 0.18757 0.39343 0.0
C19 C 0.12859 0.20401 0.38093 0.0
C20 C 0.13713 0.22774 0.38595 0.0
C21 C 0.17305 0.24428 0.41249 0.0
H22 H 0.19282 0.23873 0.41159 0.0
H23 H 0.16781 0.24707 0.43217 0.0
H24 H 0.17067 0.26212 0.40251 0.0
O25 O 0.20102 0.15869 0.40809 0.0
O26 O 0.17367 0.13567 0.38762 0.0
H27 H 0.11098 0.18178 0.35312 0.0
H28 H 0.10013 0.21351 0.35435 0.0
C29 C 0.10644 0.19746 0.3656 0.0
H30 H 0.09108 0.19174 0.37797 0.0
H31 H 0.13499 0.129 0.34654 0.0
O32 O 0.20504 0.20529 0.44234 0.0
C33 C 0.19594 0.14086 0.39355 0.0
Co34 Co 0.43456 0.55751 0.81008 0.0
Co35 Co 0.40357 0.59617 0.83926 0.0
C36 C 0.40173 0.59325 0.78363 0.0
O37 O 0.41778 0.57595 0.78301 0.0
O38 O 0.39456 0.6025 0.80412 0.0
C39 C 0.4693 0.53809 0.77535 0.0
O40 O 0.46795 0.56026 0.76531 0.0
C41 C 0.38912 0.64637 0.85136 0.0
C42 C 0.37407 0.64263 0.88927 0.0
C43 C 0.37907 0.65981 0.87078 0.0
N44 N 0.39001 0.62241 0.85806 0.0
N45 N 0.38087 0.6202 0.88067 0.0
C46 C 0.39978 0.65615 0.82768 0.0
H47 H 0.41493 0.64388 0.82107 0.0
H48 H 0.40702 0.67525 0.83021 0.0
H49 H 0.38506 0.65652 0.8133 0.0
C50 C 0.47575 0.58147 0.83619 0.0
N51 N 0.45144 0.57867 0.83158 0.0
N52 N 0.43878 0.59533 0.84412 0.0
C53 C 0.45495 0.60947 0.85707 0.0
C54 C 0.47879 0.6011 0.85228 0.0
C55 C 0.49592 0.56623 0.82473 0.0
H56 H 0.49099 0.5463 0.82562 0.0
H57 H 0.49809 0.57165 0.80502 0.0
H58 H 0.5139 0.56909 0.83435 0.0
O59 O 0.41 0.53756 0.82812 0.0
O60 O 0.38681 0.5645 0.84894 0.0
H61 H 0.43235 0.62648 0.88494 0.0
H62 H 0.46398 0.63761 0.88411 0.0
C63 C 0.44807 0.63135 0.87265 0.0
H64 H 0.44226 0.64683 0.86045 0.0
H65 H 0.37971 0.60349 0.89036 0.0
O66 O 0.45718 0.53361 0.79499 0.0
C67 C 0.39202 0.54235 0.84257 0.0
Co68 Co 0.80619 0.30443 0.4287 0.0
Co69 Co 0.84454 0.3344 0.39804 0.0
C70 C 0.84317 0.33686 0.45373 0.0
O71 O 0.82562 0.32115 0.45503 0.0
O72 O 0.85188 0.34371 0.43291 0.0
C73 C 0.78658 0.27049 0.46439 0.0
O74 O 0.80874 0.27173 0.47446 0.0
C75 C 0.89463 0.34803 0.38462 0.0
C76 C 0.89015 0.36299 0.34674 0.0
C77 C 0.90771 0.35791 0.36486 0.0
N78 N 0.87053 0.34733 0.37845 0.0
N79 N 0.86789 0.35639 0.35585 0.0
C80 C 0.90483 0.33741 0.40817 0.0
H81 H 0.89251 0.32251 0.41521 0.0
H82 H 0.92374 0.32984 0.40525 0.0
H83 H 0.90575 0.35225 0.42239 0.0
C84 C 0.82905 0.26251 0.40294 0.0
N85 N 0.82661 0.28694 0.40699 0.0
N86 N 0.84311 0.29912 0.39381 0.0
C87 C 0.85679 0.28248 0.38094 0.0
C88 C 0.84836 0.25884 0.38658 0.0
C89 C 0.8136 0.24284 0.41495 0.0
H90 H 0.79377 0.24819 0.41429 0.0
H91 H 0.8193 0.24083 0.4346 0.0
H92 H 0.81588 0.22466 0.40554 0.0
O93 O 0.78624 0.329 0.41066 0.0
O94 O 0.81288 0.35142 0.38869 0.0
H95 H 0.87359 0.30446 0.35246 0.0
H96 H 0.88422 0.27264 0.35346 0.0
C97 C 0.87844 0.28879 0.36484 0.0
H98 H 0.89427 0.29445 0.37666 0.0
H99 H 0.85097 0.35772 0.34654 0.0
O100 O 0.78222 0.28241 0.44458 0.0
C101 C 0.79085 0.34659 0.39569 0.0
Co102 Co 0.55264 0.9335 0.80803 0.0
Co103 Co 0.58096 0.89272 0.83758 0.0
C104 C 0.58403 0.89515 0.7824 0.0
O105 O 0.5695 0.91379 0.78183 0.0
O106 O 0.59012 0.88495 0.80282 0.0
C107 C 0.51892 0.95334 0.7723 0.0
O108 O 0.51949 0.93096 0.76267 0.0
C109 C 0.6034 0.84569 0.85369 0.0
C110 C 0.59353 0.84555 0.89345 0.0
C111 C 0.604 0.83108 0.87494 0.0
N112 N 0.59216 0.86723 0.85928 0.0
N113 N 0.58682 0.86725 0.88317 0.0
C114 C 0.61507 0.84045 0.82907 0.0
H115 H 0.62299 0.85777 0.82136 0.0
H116 H 0.60075 0.83344 0.81606 0.0
H117 H 0.63026 0.82668 0.83072 0.0
C118 C 0.50974 0.91178 0.83284 0.0
N119 N 0.53431 0.91335 0.82915 0.0
N120 N 0.54555 0.89497 0.84061 0.0
C121 C 0.52804 0.88042 0.85118 0.0
C122 C 0.50497 0.89084 0.84668 0.0
C123 C 0.49094 0.9295 0.82266 0.0
H124 H 0.49807 0.94874 0.82368 0.0
H125 H 0.48711 0.92475 0.80303 0.0
H126 H 0.47326 0.92836 0.83314 0.0
O127 O 0.57713 0.95261 0.82657 0.0
O128 O 0.59884 0.92412 0.84694 0.0
H129 H 0.53758 0.85797 0.88234 0.0
H130 H 0.51589 0.84371 0.86156 0.0
C131 C 0.53271 0.85553 0.86252 0.0
H132 H 0.54817 0.84604 0.85287 0.0
H133 H 0.57775 0.88174 0.89226 0.0
O134 O 0.53131 0.95785 0.79178 0.0
C135 C 0.59471 0.94665 0.84105 0.0
Co136 Co 0.18566 0.80026 0.05848 0.0
Co137 Co 0.14431 0.82723 0.08815 0.0
C138 C 0.14715 0.8327 0.03354 0.0
O139 O 0.16594 0.81835 0.03284 0.0
O140 O 0.1365 0.83796 0.05394 0.0
C141 C 0.20445 0.76721 0.02192 0.0
O142 O 0.18157 0.76735 0.01352 0.0
C143 C 0.09776 0.84922 0.10598 0.0
C144 C 0.09861 0.83844 0.14553 0.0
C145 C 0.08397 0.84979 0.12771 0.0
N146 N 0.11919 0.83739 0.11064 0.0
N147 N 0.11974 0.83132 0.13438 0.0
C148 C 0.0917 0.86113 0.08164 0.0
H149 H 0.10858 0.86988 0.07386 0.0
H150 H 0.0852 0.84672 0.06845 0.0
H151 H 0.07726 0.87563 0.08365 0.0
C152 C 0.16418 0.75644 0.08178 0.0
N153 N 0.16548 0.7811 0.07872 0.0
N154 N 0.14644 0.79178 0.08949 0.0
C155 C 0.13146 0.77387 0.09858 0.0
C156 C 0.14233 0.75088 0.09401 0.0
C157 C 0.18399 0.73864 0.07386 0.0
H158 H 0.20248 0.74748 0.07539 0.0
H159 H 0.18084 0.73318 0.0543 0.0
H160 H 0.18373 0.72167 0.08551 0.0
O161 O 0.20474 0.82377 0.07806 0.0
O162 O 0.1757 0.84475 0.0983 0.0
H163 H 0.10687 0.78165 0.12862 0.0
H164 H 0.0937 0.76215 0.10498 0.0
C165 C 0.10587 0.77839 0.10834 0.0
H166 H 0.09758 0.79489 0.0993 0.0
H167 H 0.13428 0.82169 0.14279 0.0
O168 O 0.20973 0.77953 0.04124 0.0
C169 C 0.19837 0.8409 0.09287 0.0
Co170 Co 0.05094 0.55313 0.17978 0.0
Co171 Co 0.08062 0.59215 0.14951 0.0
C172 C 0.08383 0.59056 0.20486 0.0
O173 O 0.06866 0.57247 0.20575 0.0
O174 O 0.09017 0.60018 0.18423 0.0
C175 C 0.01721 0.53464 0.21613 0.0
O176 O 0.01871 0.55701 0.2257 0.0
C177 C 0.10377 0.63835 0.13237 0.0
C178 C 0.09627 0.63646 0.09211 0.0
C179 C 0.10574 0.65177 0.11046 0.0
N180 N 0.09278 0.61659 0.12725 0.0
N181 N 0.08881 0.61537 0.1031 0.0
C182 C 0.11385 0.64495 0.15738 0.0
H183 H 0.12231 0.62831 0.16596 0.0
H184 H 0.09849 0.65143 0.16944 0.0
H185 H 0.12831 0.6595 0.15616 0.0
C186 C 0.00871 0.57637 0.15486 0.0
N187 N 0.03321 0.57377 0.15852 0.0
N188 N 0.04518 0.59122 0.1464 0.0
C189 C 0.02831 0.60607 0.13522 0.0
C190 C 0.00482 0.59692 0.14016 0.0
C191 C 0.9892 0.56006 0.16595 0.0
H192 H -0.00487 0.5404 0.16508 0.0
H193 H 0.9864 0.56533 0.18563 0.0
H194 H 0.97127 0.56213 0.15604 0.0
O195 O 0.07457 0.5327 0.16131 0.0
O196 O 0.09721 0.56004 0.14056 0.0
H197 H 0.03996 0.62617 0.10321 0.0
H198 H 0.01756 0.6423 0.12182 0.0
C199 C 0.0341 0.63005 0.12252 0.0
H200 H 0.04931 0.63977 0.13234 0.0
H201 H 0.0802 0.60046 0.09427 0.0
O202 O 0.02889 0.52975 0.19633 0.0
C203 C 0.09229 0.53777 0.1467 0.0
Co204 Co 0.80321 0.68489 0.06057 0.0
Co205 Co 0.8431 0.65535 0.08956 0.0
C206 C 0.84033 0.6526 0.03438 0.0
O207 O 0.82226 0.66781 0.03397 0.0
O208 O 0.85025 0.646 0.05475 0.0
C209 C 0.78509 0.71919 0.02497 0.0
O210 O 0.80787 0.7183 0.01638 0.0
C211 C 0.89272 0.63964 0.10389 0.0
C212 C 0.88695 0.62693 0.14241 0.0
C213 C 0.90499 0.62988 0.12432 0.0
N214 N 0.86866 0.64226 0.10973 0.0
N215 N 0.86527 0.63456 0.13272 0.0
C216 C 0.90366 0.64819 0.07985 0.0
H217 H 0.89204 0.66298 0.07149 0.0
H218 H 0.92276 0.65531 0.08264 0.0
H219 H 0.9043 0.63237 0.06671 0.0
C220 C 0.82585 0.72699 0.08613 0.0
N221 N 0.82384 0.70254 0.08195 0.0
N222 N 0.84168 0.6907 0.09361 0.0
C223 C 0.85621 0.70761 0.10512 0.0
C224 C 0.84673 0.7312 0.10042 0.0
C225 C 0.80799 0.74609 0.07673 0.0
H226 H 0.78879 0.73882 0.07761 0.0
H227 H 0.8125 0.75061 0.05719 0.0
H228 H 0.80907 0.76337 0.08787 0.0
O229 O 0.78344 0.66061 0.07884 0.0
O230 O 0.81146 0.6381 0.09897 0.0
H231 H 0.87647 0.68697 0.13233 0.0
H232 H 0.88833 0.71788 0.12717 0.0
C233 C 0.87994 0.70145 0.11816 0.0
H234 H 0.89339 0.69402 0.10456 0.0
H235 H 0.84822 0.63477 0.14185 0.0
O236 O 0.77958 0.70694 0.04427 0.0
C237 C 0.78903 0.64273 0.09312 0.0
Co238 Co 0.93724 0.93368 0.17925 0.0
Co239 Co 0.90957 0.89169 0.15103 0.0
C240 C 0.90458 0.89644 0.20558 0.0
O241 O 0.91913 0.91507 0.20562 0.0
O242 O 0.8991 0.88519 0.18556 0.0
C243 C 0.97024 0.95338 0.21532 0.0
O244 O 0.96983 0.93075 0.22438 0.0
C245 C 0.88647 0.84483 0.13528 0.0
C246 C 0.89914 0.84263 0.09638 0.0
C247 C 0.8867 0.82942 0.11459 0.0
N248 N 0.89902 0.86563 0.1297 0.0
N249 N 0.90609 0.86441 0.1063 0.0
C250 C 0.87304 0.84101 0.15925 0.0
H251 H 0.8657 0.85897 0.16604 0.0
H252 H 0.88612 0.83355 0.17329 0.0
H253 H 0.85725 0.82805 0.15701 0.0
C254 C 0.98071 0.9108 0.15652 0.0
N255 N 0.95607 0.91254 0.15962 0.0
N256 N 0.9451 0.89335 0.1494 0.0
C257 C 0.96279 0.87791 0.14061 0.0
C258 C 0.98589 0.88861 0.14474 0.0
C259 C -0.00113 0.93033 0.16422 0.0
H260 H 0.99047 0.949 0.16225 0.0
H261 H 0.00409 0.92742 0.1839 0.0
H262 H 0.01593 0.92943 0.15276 0.0
O263 O 0.91374 0.95235 0.15919 0.0
O264 O 0.89223 0.92298 0.13998 0.0
H265 H 0.95522 0.85223 0.11142 0.0
H266 H 0.9742 0.83981 0.13581 0.0
C267 C 0.95811 0.85201 0.13178 0.0
H268 H 0.94145 0.84421 0.1409 0.0
H269 H 0.91643 0.8781 0.09736 0.0
O270 O 0.9582 0.95815 0.19568 0.0
C271 C 0.89639 0.94578 0.14472 0.0
Co272 Co 0.42626 0.185 0.18468 0.0
Co273 Co 0.39742 0.14442 0.1559 0.0
C274 C 0.45239 0.14776 0.15245 0.0
O275 O 0.4528 0.1659 0.16757 0.0
O276 O 0.43206 0.13767 0.14606 0.0
C277 C 0.4617 0.20275 0.21901 0.0
O278 O 0.4696 0.1797 0.21851 0.0
C279 C 0.384 0.09448 0.14039 0.0
C280 C 0.34444 0.09884 0.13061 0.0
C281 C 0.36342 0.08152 0.13209 0.0
N282 N 0.37745 0.1183 0.14362 0.0
N283 N 0.35383 0.12085 0.13765 0.0
C284 C 0.4089 0.08423 0.14723 0.0
H285 H 0.41739 0.0954 0.16226 0.0
H286 H 0.40738 0.06465 0.1534 0.0
H287 H 0.42126 0.08508 0.13081 0.0
C288 C 0.40122 0.16279 0.2272 0.0
N289 N 0.40523 0.16445 0.20271 0.0
N290 N 0.39402 0.1461 0.19127 0.0
C291 C 0.38319 0.13145 0.2085 0.0
C292 C 0.3877 0.14151 0.23187 0.0
C293 C 0.40975 0.18152 0.24585 0.0
H294 H 0.40875 0.20043 0.23786 0.0
H295 H 0.4292 0.17751 0.25116 0.0
H296 H 0.39812 0.18084 0.26282 0.0
O297 O 0.40759 0.2043 0.16041 0.0
O298 O 0.38736 0.17588 0.13848 0.0
H299 H 0.35539 0.11019 0.18985 0.0
H300 H 0.36419 0.09772 0.2197 0.0
C301 C 0.37107 0.10714 0.20281 0.0
H302 H 0.38463 0.09477 0.19364 0.0
H303 H 0.34406 0.13752 0.13874 0.0
O304 O 0.44276 0.20874 0.2064 0.0
C305 C 0.39309 0.19841 0.14281 0.0
Co306 Co 0.43501 0.31012 0.051 0.0
Co307 Co 0.39551 0.33955 0.08062 0.0
C308 C 0.39757 0.2842 0.08289 0.0
O309 O 0.41556 0.28352 0.06761 0.0
O310 O 0.38814 0.30473 0.08968 0.0
C311 C 0.45339 0.27482 0.01642 0.0
O312 O 0.43065 0.26611 0.01703 0.0
C313 C 0.34573 0.35348 0.09573 0.0
C314 C 0.35104 0.39175 0.10938 0.0
C315 C 0.33317 0.37362 0.10568 0.0
N316 N 0.3698 0.3595 0.09372 0.0
N317 N 0.37292 0.38234 0.10199 0.0
C318 C 0.33507 0.32959 0.08641 0.0
H319 H 0.34694 0.3217 0.07159 0.0
H320 H 0.31605 0.33244 0.07908 0.0
H321 H 0.33432 0.31604 0.10188 0.0
C322 C 0.41275 0.33627 0.00904 0.0
N323 N 0.41472 0.33196 0.03346 0.0
N324 N 0.39706 0.34383 0.04533 0.0
C325 C 0.38269 0.35563 0.02845 0.0
C326 C 0.39209 0.35087 0.00488 0.0
C327 C 0.43039 0.3266 0.9899 0.0
H328 H 0.44964 0.32729 -0.00294 0.0
H329 H 0.42563 0.3071 0.98547 0.0
H330 H 0.42932 0.33769 0.97258 0.0
O331 O 0.45479 0.32796 0.07558 0.0
O332 O 0.42717 0.34869 0.09801 0.0
H333 H 0.36266 0.38261 0.04961 0.0
H334 H 0.35131 0.37878 0.01834 0.0
C335 C 0.35916 0.36901 0.0346 0.0
H336 H 0.34525 0.35547 0.04126 0.0
H337 H 0.38992 0.39156 0.10231 0.0
O338 O 0.45873 0.29397 0.02897 0.0
C339 C 0.44948 0.34239 0.0934 0.0
Co340 Co 0.56157 0.3009 0.18588 0.0
Co341 Co 0.59062 0.34149 0.15735 0.0
C342 C 0.53565 0.33814 0.15335 0.0
O343 O 0.53515 0.32001 0.16848 0.0
O344 O 0.55602 0.34824 0.14711 0.0
C345 C 0.5258 0.28316 0.21982 0.0
O346 O 0.51791 0.30622 0.21923 0.0
C347 C 0.60426 0.39107 0.14096 0.0
C348 C 0.64432 0.38702 0.13336 0.0
C349 C 0.62504 0.40404 0.13326 0.0
N350 N 0.61094 0.36747 0.14532 0.0
N351 N 0.63487 0.36511 0.14067 0.0
C352 C 0.57896 0.40125 0.14629 0.0
H353 H 0.57028 0.391 0.16185 0.0
H354 H 0.57986 0.42124 0.15108 0.0
H355 H 0.56711 0.39891 0.12963 0.0
C356 C 0.58613 0.32327 0.22864 0.0
N357 N 0.58239 0.3215 0.20411 0.0
N358 N 0.59359 0.3399 0.19275 0.0
C359 C 0.60409 0.3547 0.21006 0.0
C360 C 0.59943 0.34467 0.23341 0.0
C361 C 0.57757 0.30449 0.24723 0.0
H362 H 0.5787 0.28558 0.23924 0.0
H363 H 0.55806 0.3084 0.25238 0.0
H364 H 0.58908 0.30522 0.26428 0.0
O365 O 0.58047 0.28156 0.16184 0.0
O366 O 0.60083 0.31 0.14012 0.0
H367 H 0.63264 0.37607 0.19279 0.0
H368 H 0.62133 0.38931 0.22144 0.0
C369 C 0.61596 0.37914 0.20442 0.0
H370 H 0.60284 0.3908 0.19377 0.0
H371 H 0.64479 0.34862 0.14282 0.0
O372 O 0.54488 0.27718 0.20746 0.0
C373 C 0.59511 0.28746 0.14439 0.0
Co374 Co 0.55353 0.17721 0.05105 0.0
Co375 Co 0.59265 0.14703 0.08044 0.0
C376 C 0.59111 0.20228 0.08359 0.0
O377 O 0.57316 0.20329 0.06827 0.0
O378 O 0.60044 0.1816 0.09011 0.0
C379 C 0.53576 0.21323 0.01681 0.0
O380 O 0.55855 0.2218 0.01777 0.0
C381 C 0.64196 0.13166 0.09581 0.0
C382 C 0.63546 0.09333 0.10881 0.0
C383 C 0.65386 0.11102 0.10558 0.0
N384 N 0.61776 0.12633 0.09344 0.0
N385 N 0.61393 0.10346 0.10131 0.0
C386 C 0.65332 0.15542 0.08702 0.0
H387 H 0.64166 0.16402 0.07241 0.0
H388 H 0.67223 0.15215 0.0796 0.0
H389 H 0.65452 0.16858 0.10279 0.0
C390 C 0.57565 0.15142 0.00886 0.0
N391 N 0.57369 0.15547 0.03332 0.0
N392 N 0.59122 0.14329 0.04509 0.0
C393 C 0.6055 0.13154 0.02814 0.0
C394 C 0.59617 0.13666 0.00459 0.0
C395 C 0.55809 0.16143 0.98978 0.0
H396 H 0.53884 0.16082 -0.00308 0.0
H397 H 0.56302 0.18093 0.98555 0.0
H398 H 0.55906 0.1505 0.97237 0.0
O399 O 0.53339 0.15914 0.07514 0.0
O400 O 0.56085 0.13801 0.09743 0.0
H401 H 0.62515 0.10399 0.04894 0.0
H402 H 0.63674 0.1083 0.01783 0.0
C403 C 0.62887 0.11784 0.03421 0.0
H404 H 0.64286 0.13112 0.04122 0.0
H405 H 0.59668 0.09471 0.10131 0.0
O406 O 0.53017 0.19396 0.02907 0.0
C407 C 0.53859 0.14443 0.09279 0.0
Co408 Co 0.42812 0.80487 0.29852 0.0
Co409 Co 0.39768 0.84248 0.32945 0.0
C410 C 0.4533 0.84198 0.33106 0.0
O411 O 0.45439 0.82435 0.31541 0.0
O412 O 0.43254 0.85066 0.33819 0.0
C413 C 0.46408 0.78711 0.26419 0.0
O414 O 0.47323 0.80963 0.26584 0.0
C415 C 0.3825 0.89159 0.34486 0.0
C416 C 0.34588 0.88471 0.36187 0.0
C417 C 0.3628 0.90334 0.3565 0.0
N418 N 0.37743 0.86727 0.34356 0.0
N419 N 0.35557 0.8632 0.35378 0.0
C420 C 0.40505 0.90309 0.33349 0.0
H421 H 0.41234 0.89116 0.31839 0.0
H422 H 0.40073 0.92177 0.32599 0.0
H423 H 0.4197 0.90485 0.34783 0.0
C424 C 0.40167 0.82829 0.25731 0.0
N425 N 0.40592 0.82535 0.28165 0.0
N426 N 0.3928 0.8416 0.29426 0.0
C427 C 0.37976 0.85559 0.278 0.0
C428 C 0.38527 0.84768 0.25415 0.0
C429 C 0.4137 0.81337 0.23723 0.0
H430 H 0.41348 0.79343 0.24223 0.0
H431 H 0.43321 0.81945 0.23506 0.0
H432 H 0.404 0.81582 0.21923 0.0
O433 O 0.41074 0.78395 0.32276 0.0
O434 O 0.38947 0.81039 0.34605 0.0
H435 H 0.35208 0.87233 0.3011 0.0
H436 H 0.35151 0.88259 0.26915 0.0
C437 C 0.36368 0.87713 0.28484 0.0
H438 H 0.37553 0.89317 0.28974 0.0
H439 H 0.34724 0.84578 0.35509 0.0
O440 O 0.44438 0.78182 0.27586 0.0
C441 C 0.39628 0.78839 0.3408 0.0
Co442 Co 0.0502 0.31269 0.93363 0.0
Co443 Co 0.09216 0.34077 0.90608 0.0
C444 C 0.08832 0.28627 0.90179 0.0
O445 O 0.06949 0.28638 0.91607 0.0
O446 O 0.09948 0.30627 0.89608 0.0
C447 C 0.03263 0.27731 0.96791 0.0
O448 O 0.05584 0.26988 0.9678 0.0
C449 C 0.13934 0.35737 0.88453 0.0
C450 C 0.13898 0.39711 0.89465 0.0
C451 C 0.15355 0.37883 0.88398 0.0
N452 N 0.11772 0.36265 0.89572 0.0
N453 N 0.11748 0.38648 0.9014 0.0
C454 C 0.14532 0.33266 0.87338 0.0
H455 H 0.12853 0.32487 0.86445 0.0
H456 H 0.15135 0.31977 0.88825 0.0
H457 H 0.16009 0.33414 0.85917 0.0
C458 C 0.07219 0.33633 0.97694 0.0
N459 N 0.07068 0.33304 0.95233 0.0
N460 N 0.09012 0.34286 0.9415 0.0
C461 C 0.10556 0.35146 0.95928 0.0
C462 C 0.09461 0.34756 0.98233 0.0
C463 C 0.05214 0.32955 -0.00508 0.0
H464 H 0.0337 0.33125 0.98598 0.0
H465 H 0.05478 0.31015 0.00117 0.0
H466 H 0.05276 0.34179 0.01146 0.0
O467 O 0.03136 0.33192 0.90972 0.0
O468 O 0.06083 0.35089 0.88815 0.0
H469 H 0.13143 0.38023 0.95095 0.0
H470 H 0.14359 0.35642 0.97092 0.0
C471 C 0.13155 0.35999 0.95461 0.0
H472 H 0.1394 0.35031 0.93828 0.0
H473 H 0.10292 0.3953 0.9106 0.0
O474 O 0.02638 0.29591 0.95493 0.0
C475 C 0.03804 0.34602 0.89212 0.0
Co476 Co 0.55975 0.68538 0.302 0.0
Co477 Co 0.58948 0.6453 0.33077 0.0
C478 C 0.53429 0.64732 0.33368 0.0
O479 O 0.53345 0.66551 0.31862 0.0
O480 O 0.55487 0.63786 0.34029 0.0
C481 C 0.5245 0.70398 0.26733 0.0
O482 O 0.51574 0.68125 0.26765 0.0
C483 C 0.60378 0.59594 0.34736 0.0
C484 C 0.64373 0.6006 0.35528 0.0
C485 C 0.62472 0.58331 0.3553 0.0
N486 N 0.61012 0.61961 0.34297 0.0
N487 N 0.63398 0.62234 0.3478 0.0
C488 C 0.57869 0.58537 0.34189 0.0
H489 H 0.57002 0.59532 0.32611 0.0
H490 H 0.57991 0.56533 0.33734 0.0
H491 H 0.56665 0.58774 0.35839 0.0
C492 C 0.58534 0.66373 0.25957 0.0
N493 N 0.58138 0.66539 0.28406 0.0
N494 N 0.59283 0.64715 0.29549 0.0
C495 C 0.60366 0.63252 0.27825 0.0
C496 C 0.59897 0.64252 0.2549 0.0
C497 C 0.5765 0.68233 0.24092 0.0
H498 H 0.57747 0.70129 0.24881 0.0
H499 H 0.55702 0.67821 0.23583 0.0
H500 H 0.58795 0.68164 0.22383 0.0
O501 O 0.57784 0.7048 0.32651 0.0
O502 O 0.59896 0.67686 0.34823 0.0
H503 H 0.63228 0.61136 0.29574 0.0
H504 H 0.62137 0.59811 0.26694 0.0
C505 C 0.61574 0.60817 0.28394 0.0
H506 H 0.60265 0.59636 0.29442 0.0
H507 H 0.64365 0.63896 0.34567 0.0
O508 O 0.54342 0.70926 0.28027 0.0
C509 C 0.59261 0.69923 0.34397 0.0
Co510 Co 0.93601 0.17632 0.93573 0.0
Co511 Co 0.89457 0.14779 0.90789 0.0
C512 C 0.89844 0.20228 0.90287 0.0
O513 O 0.91706 0.20242 0.91744 0.0
O514 O 0.88736 0.18218 0.89737 0.0
C515 C 0.95324 0.21223 0.9697 0.0
O516 O 0.93002 0.21962 0.96932 0.0
C517 C 0.84783 0.13088 0.8857 0.0
C518 C 0.84837 0.0911 0.89564 0.0
C519 C 0.83382 0.10932 0.88482 0.0
N520 N 0.86932 0.12574 0.89722 0.0
N521 N 0.86968 0.10187 0.90278 0.0
C522 C 0.84186 0.15557 0.87448 0.0
H523 H 0.85866 0.16333 0.86557 0.0
H524 H 0.83583 0.16851 0.88931 0.0
H525 H 0.8271 0.15409 0.86023 0.0
C526 C 0.91365 0.15279 0.97896 0.0
N527 N 0.91526 0.1562 0.95437 0.0
N528 N 0.89613 0.14599 0.94334 0.0
C529 C 0.88078 0.13693 0.96094 0.0
C530 C 0.89148 0.14095 0.9841 0.0
C531 C 0.93349 0.15983 -0.00292 0.0
H532 H 0.95201 0.15835 0.98828 0.0
H533 H 0.93058 0.17923 0.00323 0.0
H534 H 0.93297 0.14762 0.01365 0.0
O535 O 0.95527 0.15673 0.91243 0.0
O536 O 0.9261 0.13751 0.89066 0.0
H537 H 0.85584 0.10742 0.9523 0.0
H538 H 0.84282 0.13084 0.97217 0.0
C539 C 0.8551 0.12764 0.95598 0.0
H540 H 0.84711 0.13713 0.93959 0.0
H541 H 0.8842 0.09312 0.91214 0.0
O542 O 0.95956 0.1934 0.95711 0.0
C543 C 0.94883 0.1424 0.89493 0.0
Co544 Co 0.18673 0.42582 0.18274 0.0
Co545 Co 0.157 0.39653 0.1429 0.0
C546 C 0.15283 0.45161 0.14672 0.0
O547 O 0.16832 0.45209 0.16454 0.0
O548 O 0.14668 0.43128 0.1364 0.0
C549 C 0.22036 0.46207 0.20053 0.0
O550 O 0.21871 0.47082 0.17784 0.0
C551 C 0.13421 0.38122 0.09587 0.0
C552 C 0.14125 0.34084 0.09645 0.0
C553 C 0.13218 0.35983 0.08167 0.0
N554 N 0.14487 0.3752 0.11759 0.0
N555 N 0.14859 0.35099 0.11801 0.0
C556 C 0.12457 0.40659 0.08994 0.0
H557 H 0.11558 0.41458 0.10659 0.0
H558 H 0.14025 0.41875 0.08453 0.0
H559 H 0.11061 0.40613 0.07485 0.0
C560 C 0.22899 0.402 0.1585 0.0
N561 N 0.20449 0.40549 0.16125 0.0
N562 N 0.1925 0.39389 0.14345 0.0
C563 C 0.20937 0.38328 0.12821 0.0
C564 C 0.23287 0.38803 0.13747 0.0
C565 C 0.24852 0.41233 0.1753 0.0
H566 H 0.24233 0.41126 0.19486 0.0
H567 H 0.25192 0.432 0.17039 0.0
H568 H 0.26623 0.40201 0.17329 0.0
O569 O 0.16355 0.40642 0.2027 0.0
O570 O 0.14084 0.38633 0.17485 0.0
H571 H 0.19748 0.35175 0.10749 0.0
H572 H 0.22008 0.37048 0.09178 0.0
C573 C 0.20353 0.37108 0.10399 0.0
H574 H 0.18841 0.38121 0.09443 0.0
H575 H 0.15694 0.34153 0.13269 0.0
O576 O 0.20879 0.44238 0.20613 0.0
C577 C 0.1459 0.39182 0.19727 0.0
Co578 Co 0.18638 0.55944 0.30186 0.0
Co579 Co 0.15861 0.58733 0.34394 0.0
C580 C 0.15449 0.53271 0.33953 0.0
O581 O 0.16886 0.53287 0.32077 0.0
O582 O 0.14874 0.55267 0.35075 0.0
C583 C 0.22022 0.52401 0.28278 0.0
O584 O 0.22012 0.5155 0.30562 0.0
C585 C 0.13519 0.6029 0.39066 0.0
C586 C 0.14805 0.64171 0.3933 0.0
C587 C 0.13538 0.62346 0.40624 0.0
N588 N 0.14796 0.60858 0.37002 0.0
N589 N 0.15515 0.63194 0.37151 0.0
C590 C 0.12159 0.57897 0.39414 0.0
H591 H 0.11452 0.57229 0.37603 0.0
H592 H 0.13448 0.56483 0.40175 0.0
H593 H 0.10561 0.58124 0.40687 0.0
C594 C 0.22966 0.58283 0.32428 0.0
N595 N 0.20504 0.57954 0.32269 0.0
N596 N 0.19412 0.58945 0.34206 0.0
C597 C 0.21187 0.59815 0.3575 0.0
C598 C 0.23493 0.5943 0.3466 0.0
C599 C 0.24776 0.57561 0.3045 0.0
H600 H 0.23911 0.57746 0.28594 0.0
H601 H 0.25352 0.55607 0.30729 0.0
H602 H 0.26455 0.58748 0.30529 0.0
O603 O 0.16247 0.57896 0.28322 0.0
O604 O 0.14084 0.59794 0.31265 0.0
H605 H 0.20452 0.62694 0.38369 0.0
H606 H 0.22345 0.60227 0.39561 0.0
C607 C 0.20732 0.60656 0.38356 0.0
H608 H 0.19064 0.59738 0.39126 0.0
H609 H 0.16567 0.64093 0.358 0.0
O610 O 0.20755 0.54312 0.27752 0.0
C611 C 0.14493 0.59316 0.28984 0.0
Co612 Co 0.80857 0.55036 0.93662 0.0
Co613 Co 0.83713 0.57793 0.89504 0.0
C614 C 0.78249 0.58209 0.89811 0.0
O615 O 0.78237 0.56787 0.91702 0.0
O616 O 0.80265 0.58778 0.88723 0.0
C617 C 0.7732 0.51597 0.95489 0.0
O618 O 0.765 0.51601 0.93194 0.0
C619 C 0.8545 0.60072 0.8487 0.0
C620 C 0.89398 0.58969 0.8489 0.0
C621 C 0.87607 0.60141 0.83468 0.0
N622 N 0.85935 0.58848 0.86986 0.0
N623 N 0.88304 0.58227 0.87003 0.0
C624 C 0.83016 0.61288 0.84317 0.0
H625 H 0.82242 0.62097 0.8604 0.0
H626 H 0.81696 0.59876 0.83612 0.0
H627 H 0.83218 0.62791 0.82929 0.0
C628 C 0.83255 0.50704 0.91489 0.0
N629 N 0.82914 0.53165 0.91633 0.0
N630 N 0.83928 0.54252 0.89707 0.0
C631 C 0.84823 0.52477 0.88179 0.0
C632 C 0.84425 0.5017 0.89269 0.0
C633 C 0.82547 0.48904 0.93482 0.0
H634 H 0.82703 0.49792 0.9533 0.0
H635 H 0.80606 0.48294 0.93196 0.0
H636 H 0.83762 0.47242 0.93433 0.0
O637 O 0.82767 0.57422 0.95572 0.0
O638 O 0.847 0.59574 0.92646 0.0
H639 H 0.87747 0.5327 0.85632 0.0
H640 H 0.85346 0.51328 0.84377 0.0
C641 C 0.85717 0.52946 0.85594 0.0
H642 H 0.84789 0.54602 0.84804 0.0
H643 H 0.89157 0.57233 0.88429 0.0
O644 O 0.79191 0.52905 0.96052 0.0
C645 C 0.84193 0.59174 0.9492 0.0
Co646 Co 0.80126 0.92632 0.30629 0.0
Co647 Co 0.83222 0.89782 0.34553 0.0
C648 C 0.83329 0.95335 0.34249 0.0
O649 O 0.81755 0.9536 0.32488 0.0
O650 O 0.84065 0.93304 0.35202 0.0
C651 C 0.7665 0.96079 0.28616 0.0
O652 O 0.76757 0.97112 0.3082 0.0
C653 C 0.84727 0.88519 0.39559 0.0
C654 C 0.86188 0.84715 0.39111 0.0
C655 C 0.85736 0.86546 0.4086 0.0
N656 N 0.84589 0.87879 0.37157 0.0
N657 N 0.85477 0.85611 0.36893 0.0
C658 C 0.83707 0.90889 0.40584 0.0
H659 H 0.82184 0.91589 0.39388 0.0
H660 H 0.83007 0.90619 0.425 0.0
H661 H 0.85199 0.92304 0.40619 0.0
C662 C 0.76018 0.89995 0.33 0.0
N663 N 0.78447 0.9047 0.32736 0.0
N664 N 0.79708 0.89261 0.3444 0.0
C665 C 0.78088 0.8799 0.3587 0.0
C666 C 0.75709 0.88427 0.34996 0.0
C667 C 0.74005 0.91126 0.31459 0.0
H668 H 0.74505 0.9102 0.29469 0.0
H669 H 0.73783 0.93102 0.31982 0.0
H670 H 0.72208 0.90166 0.31748 0.0
O671 O 0.82614 0.90847 0.28661 0.0
O672 O 0.84935 0.88832 0.31404 0.0
H673 H 0.80331 0.85252 0.37674 0.0
H674 H 0.77168 0.85397 0.38781 0.0
C675 C 0.78766 0.86509 0.38114 0.0
H676 H 0.79355 0.87782 0.39616 0.0
H677 H 0.85556 0.84663 0.35208 0.0
O678 O 0.77872 0.9411 0.28208 0.0
C679 C 0.84428 0.89434 0.29176 0.0
Co680 Co 0.67665 0.43779 0.43451 0.0
Co681 Co 0.64838 0.40798 0.39398 0.0
C682 C 0.70333 0.405 0.39783 0.0
O683 O 0.70332 0.42012 0.41599 0.0
O684 O 0.68324 0.39856 0.38726 0.0
C685 C 0.7123 0.47185 0.45269 0.0
O686 O 0.72089 0.47077 0.42991 0.0
C687 C 0.63326 0.38419 0.34734 0.0
C688 C 0.59341 0.39364 0.34634 0.0
C689 C 0.61226 0.38302 0.33244 0.0
N690 N 0.62722 0.39589 0.36851 0.0
N691 N 0.60327 0.40097 0.36802 0.0
C692 C 0.65811 0.3727 0.34275 0.0
H693 H 0.66558 0.36511 0.36032 0.0
H694 H 0.67108 0.38706 0.33577 0.0
H695 H 0.6569 0.35729 0.32919 0.0
C696 C 0.65156 0.47983 0.411 0.0
N697 N 0.65587 0.45539 0.41329 0.0
N698 N 0.6452 0.44343 0.3949 0.0
C699 C 0.63475 0.46031 0.37955 0.0
C700 C 0.63815 0.4837 0.3896 0.0
C701 C 0.66134 0.49937 0.42809 0.0
H702 H 0.66038 0.49286 0.44757 0.0
H703 H 0.68094 0.5033 0.42333 0.0
H704 H 0.65062 0.51687 0.42624 0.0
O705 O 0.65767 0.41403 0.45412 0.0
O706 O 0.63838 0.39124 0.42577 0.0
H707 H 0.60424 0.44972 0.3567 0.0
H708 H 0.62505 0.47123 0.34226 0.0
C709 C 0.62405 0.45475 0.35456 0.0
H710 H 0.63412 0.43913 0.3458 0.0
H711 H 0.59387 0.41032 0.38212 0.0
O712 O 0.69283 0.45988 0.45819 0.0
C713 C 0.6435 0.39615 0.44833 0.0
Co714 Co 0.30085 0.56044 0.68267 0.0
Co715 Co 0.33071 0.58958 0.64298 0.0
C716 C 0.3347 0.53453 0.64659 0.0
O717 O 0.31925 0.53414 0.66444 0.0
O718 O 0.34091 0.55482 0.63623 0.0
C719 C 0.2668 0.52446 0.70026 0.0
O720 O 0.26838 0.51566 0.67759 0.0
C721 C 0.35348 0.60567 0.59623 0.0
C722 C 0.34621 0.64601 0.59752 0.0
C723 C 0.35536 0.62733 0.58241 0.0
N724 N 0.34284 0.61125 0.61805 0.0
N725 N 0.339 0.63544 0.6189 0.0
C726 C 0.36316 0.58044 0.58985 0.0
H727 H 0.37184 0.57197 0.60644 0.0
H728 H 0.34754 0.56846 0.58384 0.0
H729 H 0.37736 0.58126 0.57502 0.0
C730 C 0.25869 0.58458 0.65842 0.0
N731 N 0.28317 0.5809 0.66121 0.0
N732 N 0.29524 0.59238 0.64341 0.0
C733 C 0.27845 0.60306 0.62811 0.0
C734 C 0.25492 0.59855 0.63736 0.0
C735 C 0.23905 0.57436 0.67513 0.0
H736 H 0.24521 0.57533 0.69472 0.0
H737 H 0.2355 0.55473 0.67016 0.0
H738 H 0.22143 0.58482 0.67309 0.0
O739 O 0.32402 0.5797 0.70283 0.0
O740 O 0.34689 0.59955 0.67498 0.0
H741 H 0.29038 0.63446 0.60722 0.0
H742 H 0.26787 0.61559 0.59154 0.0
C743 C 0.28437 0.61509 0.60383 0.0
H744 H 0.29954 0.60492 0.59442 0.0
H745 H 0.3306 0.64458 0.63374 0.0
O746 O 0.27863 0.54398 0.70589 0.0
C747 C 0.34179 0.59415 0.6974 0.0
Co748 Co 0.81153 0.43778 0.55259 0.0
Co749 Co 0.84058 0.40886 0.59311 0.0
C750 C 0.78579 0.40379 0.5885 0.0
O751 O 0.78524 0.4194 0.57078 0.0
O752 O 0.8061 0.39767 0.59883 0.0
C753 C 0.77526 0.47122 0.53442 0.0
O754 O 0.76676 0.47004 0.55722 0.0
C755 C 0.85382 0.3911 0.6424 0.0
C756 C 0.89423 0.38519 0.63897 0.0
C757 C 0.87463 0.38368 0.65551 0.0
N758 N 0.86078 0.39663 0.61915 0.0
N759 N 0.88493 0.39299 0.61715 0.0
C760 C 0.82815 0.39508 0.65221 0.0
H761 H 0.81689 0.37824 0.6486 0.0
H762 H 0.81924 0.41096 0.64263 0.0
H763 H 0.82842 0.39872 0.67246 0.0
C764 C 0.83459 0.48051 0.57661 0.0
N765 N 0.83144 0.45596 0.57412 0.0
N766 N 0.84272 0.44433 0.59234 0.0
C767 C 0.85275 0.46143 0.60768 0.0
C768 C 0.84769 0.48494 0.59822 0.0
C769 C 0.82571 0.49943 0.5583 0.0
H770 H 0.82724 0.49203 0.53918 0.0
H771 H 0.80603 0.50395 0.56214 0.0
H772 H 0.83675 0.51675 0.55964 0.0
O773 O 0.83139 0.41452 0.53321 0.0
O774 O 0.85175 0.39261 0.56154 0.0
H775 H 0.88192 0.44476 0.62872 0.0
H776 H 0.86902 0.47227 0.64291 0.0
C777 C 0.86464 0.4554 0.63203 0.0
H778 H 0.85196 0.44364 0.64308 0.0
H779 H 0.89508 0.39617 0.601 0.0
O780 O 0.79484 0.45944 0.52883 0.0
C781 C 0.84633 0.39726 0.53901 0.0
Co782 Co 0.18005 0.0509 0.55671 0.0
Co783 Co 0.15008 0.08155 0.59498 0.0
C784 C 0.20558 0.08488 0.59217 0.0
O785 O 0.20649 0.06881 0.57491 0.0
O786 O 0.18496 0.09165 0.60146 0.0
C787 C 0.21592 0.01684 0.53804 0.0
O788 O 0.22583 0.01875 0.56023 0.0
C789 C 0.1365 0.09694 0.64461 0.0
C790 C 0.09829 0.11083 0.63947 0.0
C791 C 0.11648 0.10691 0.65724 0.0
N792 N 0.13039 0.09508 0.62055 0.0
N793 N 0.10759 0.10351 0.61751 0.0
C794 C 0.16029 0.08732 0.65523 0.0
H795 H 0.1678 0.07222 0.64344 0.0
H796 H 0.15749 0.08033 0.67439 0.0
H797 H 0.17409 0.10257 0.6557 0.0
C798 C 0.15535 0.00933 0.58126 0.0
N799 N 0.15922 0.03372 0.5782 0.0
N800 N 0.14634 0.04621 0.59473 0.0
C801 C 0.13388 0.02983 0.60905 0.0
C802 C 0.13947 0.00604 0.60101 0.0
C803 C 0.16685 0.98938 0.56575 0.0
H804 H 0.16583 -0.00549 0.54588 0.0
H805 H 0.18659 0.98722 0.57108 0.0
H806 H 0.15734 0.97132 0.56843 0.0
O807 O 0.16102 0.07428 0.53627 0.0
O808 O 0.13983 0.09732 0.56301 0.0
H809 H 0.10519 0.05174 0.6256 0.0
H810 H 0.1072 0.02038 0.63741 0.0
C811 C 0.11805 0.03656 0.63079 0.0
H812 H 0.13003 0.04314 0.64614 0.0
H813 H 0.09829 0.1039 0.60054 0.0
O814 O 0.19598 0.02838 0.53328 0.0
C815 C 0.14601 0.09185 0.54088 0.0
Co816 Co 0.6837 0.68391 0.92828 0.0
Co817 Co 0.64268 0.65547 0.89964 0.0
C818 C 0.64661 0.65185 0.95468 0.0
O819 O 0.66479 0.66691 0.95503 0.0
O820 O 0.63634 0.64558 0.9344 0.0
C821 C 0.70265 0.71816 0.9634 0.0
O822 O 0.67985 0.71793 0.97198 0.0
C823 C 0.59235 0.64057 0.88686 0.0
C824 C 0.59588 0.63122 0.84713 0.0
C825 C 0.57891 0.63275 0.86639 0.0
N826 N 0.61611 0.64351 0.87999 0.0
N827 N 0.61815 0.63777 0.85627 0.0
C828 C 0.58258 0.64736 0.91196 0.0
H829 H 0.59398 0.66231 0.92029 0.0
H830 H 0.56302 0.65364 0.9108 0.0
H831 H 0.58359 0.63088 0.92425 0.0
C832 C 0.66159 0.72666 0.90338 0.0
N833 N 0.66306 0.70216 0.90745 0.0
N834 N 0.64458 0.69086 0.8963 0.0
C835 C 0.63007 0.70822 0.88543 0.0
C836 C 0.64035 0.73152 0.88985 0.0
C837 C 0.68056 0.74514 0.91175 0.0
H838 H 0.69939 0.73697 0.91058 0.0
H839 H 0.67679 0.75045 0.93125 0.0
H840 H 0.67994 0.76213 0.90014 0.0
O841 O 0.70257 0.65948 0.90939 0.0
O842 O 0.67394 0.63783 0.88919 0.0
H843 H 0.60871 0.68999 0.85743 0.0
H844 H 0.59629 0.71975 0.86665 0.0
C845 C 0.60572 0.70274 0.87328 0.0
H846 H 0.5934 0.69338 0.88675 0.0
H847 H 0.63466 0.63875 0.84624 0.0
O848 O 0.70794 0.70539 0.94437 0.0
C849 C 0.69653 0.642 0.89484 0.0
Co850 Co 0.93285 0.05575 0.31063 0.0
Co851 Co 0.9021 0.09482 0.33958 0.0
C852 C 0.89932 0.09106 0.28418 0.0
O853 O 0.91533 0.07372 0.2838 0.0
O854 O 0.89235 0.10081 0.30452 0.0
C855 C 0.96722 0.03718 0.27531 0.0
O856 O 0.96554 0.05957 0.26582 0.0
C857 C 0.88737 0.14491 0.35233 0.0
C858 C 0.87318 0.14056 0.39051 0.0
C859 C 0.87764 0.15803 0.37216 0.0
N860 N 0.88863 0.12088 0.35872 0.0
N861 N 0.87998 0.11831 0.38148 0.0
C862 C 0.89744 0.15504 0.32853 0.0
H863 H 0.91222 0.14274 0.32122 0.0
H864 H 0.90497 0.174 0.33125 0.0
H865 H 0.88229 0.15588 0.31463 0.0
C866 C 0.97428 0.0802 0.33569 0.0
N867 N 0.94992 0.07736 0.33145 0.0
N868 N 0.93743 0.09429 0.34381 0.0
C869 C 0.9538 0.10868 0.35625 0.0
C870 C 0.97757 0.10022 0.35123 0.0
C871 C -0.00576 0.06427 0.32479 0.0
H872 H 0.98876 0.04449 0.32575 0.0
H873 H -0.00298 0.06948 0.3051 0.0
H874 H 0.01207 0.06671 0.33478 0.0
O875 O 0.90903 0.03581 0.32953 0.0
O876 O 0.88587 0.06309 0.34993 0.0
H877 H 0.96321 0.13734 0.38263 0.0
H878 H 0.94106 0.14606 0.35919 0.0
C879 C 0.94713 0.13081 0.37157 0.0
H880 H 0.93165 0.12612 0.38422 0.0
H881 H 0.87919 0.10147 0.39099 0.0
O882 O 0.95539 0.03212 0.29499 0.0
C883 C 0.89123 0.04082 0.34411 0.0
Co884 Co 0.30418 0.80434 0.92469 0.0
Co885 Co 0.34201 0.83569 0.89493 0.0
C886 C 0.33962 0.83818 0.95045 0.0
O887 O 0.32254 0.82193 0.95121 0.0
O888 O 0.34874 0.84534 0.9299 0.0
C889 C 0.28678 0.76961 0.96027 0.0
O890 O 0.30932 0.7715 0.96934 0.0
C891 C 0.39147 0.85082 0.88096 0.0
C892 C 0.38568 0.86736 0.8439 0.0
C893 C 0.40384 0.8619 0.86132 0.0
N894 N 0.36726 0.84983 0.87532 0.0
N895 N 0.36382 0.85982 0.85323 0.0
C896 C 0.4023 0.83948 0.90388 0.0
H897 H 0.38988 0.82481 0.91119 0.0
H898 H 0.42085 0.83146 0.9 0.0
H899 H 0.40422 0.854 0.91833 0.0
C900 C 0.32864 0.7633 0.89903 0.0
N901 N 0.32548 0.78763 0.90325 0.0
N902 N 0.34191 0.80036 0.8905 0.0
C903 C 0.35628 0.78418 0.87778 0.0
C904 C 0.34839 0.76029 0.8831 0.0
C905 C 0.31342 0.74309 0.91043 0.0
H906 H 0.29352 0.74819 0.90992 0.0
H907 H 0.31918 0.7405 0.92999 0.0
H908 H 0.31597 0.72526 0.90047 0.0
O909 O 0.28344 0.82804 0.90647 0.0
O910 O 0.3099 0.85157 0.88548 0.0
H911 H 0.37311 0.80734 0.85022 0.0
H912 H 0.38356 0.77544 0.84983 0.0
C913 C 0.3779 0.79113 0.8619 0.0
H914 H 0.39381 0.79612 0.87391 0.0
H915 H 0.34664 0.8612 0.84443 0.0
O916 O 0.2812 0.78145 0.94072 0.0
C917 C 0.28787 0.84597 0.89184 0.0
Co918 Co 0.05357 0.43046 0.30925 0.0
Co919 Co 0.08391 0.39174 0.33902 0.0
C920 C 0.0862 0.39407 0.28341 0.0
O921 O 0.07039 0.41159 0.28254 0.0
O922 O 0.09316 0.38491 0.30402 0.0
C923 C 0.01897 0.4498 0.27419 0.0
O924 O 0.02013 0.42756 0.26429 0.0
C925 C 0.09798 0.34164 0.35211 0.0
C926 C 0.11276 0.34601 0.39008 0.0
C927 C 0.10783 0.32851 0.37188 0.0
N928 N 0.09713 0.36572 0.35837 0.0
N929 N 0.1061 0.3683 0.38102 0.0
C930 C 0.08747 0.33151 0.32849 0.0
H931 H 0.07261 0.34386 0.32139 0.0
H932 H 0.0799 0.31259 0.33134 0.0
H933 H 0.10237 0.33061 0.31434 0.0
C934 C 0.01192 0.40702 0.3349 0.0
N935 N 0.03631 0.40961 0.33071 0.0
N936 N 0.04865 0.39284 0.34344 0.0
C937 C 0.03215 0.3788 0.35609 0.0
C938 C 0.00845 0.38729 0.35079 0.0
C939 C 0.99208 0.42278 0.32353 0.0
H940 H -0.00244 0.44257 0.32426 0.0
H941 H 0.98949 0.41727 0.30389 0.0
H942 H 0.97415 0.42052 0.33337 0.0
O943 O 0.07801 0.45039 0.32741 0.0
O944 O 0.10078 0.42338 0.34862 0.0
H945 H 0.05433 0.36145 0.38414 0.0
H946 H 0.02257 0.35072 0.38302 0.0
C947 C 0.03864 0.35681 0.37171 0.0
H948 H 0.04432 0.34127 0.35953 0.0
H949 H 0.10727 0.38518 0.39041 0.0
O950 O 0.03125 0.45437 0.29372 0.0
C951 C 0.09579 0.44554 0.3421 0.0
Co952 Co 0.68249 0.3022 0.55852 0.0
Co953 Co 0.64503 0.33305 0.58941 0.0
C954 C 0.64583 0.33547 0.53376 0.0
O955 O 0.66323 0.31956 0.53248 0.0
O956 O 0.63714 0.34241 0.55459 0.0
C957 C 0.70119 0.26851 0.5221 0.0
O958 O 0.67905 0.2705 0.5121 0.0
C959 C 0.59585 0.34817 0.60498 0.0
C960 C 0.60294 0.36486 0.64173 0.0
C961 C 0.58417 0.35948 0.62494 0.0
N962 N 0.62023 0.34701 0.60983 0.0
N963 N 0.62442 0.35707 0.63175 0.0
C964 C 0.58424 0.3369 0.58242 0.0
H965 H 0.59636 0.32215 0.57472 0.0
H966 H 0.56579 0.32898 0.58689 0.0
H967 H 0.58194 0.35144 0.56803 0.0
C968 C 0.65891 0.26085 0.5844 0.0
N969 N 0.66187 0.28523 0.58041 0.0
N970 N 0.6458 0.29776 0.59381 0.0
C971 C 0.63196 0.28141 0.60687 0.0
C972 C 0.63974 0.25758 0.601 0.0
C973 C 0.67378 0.2409 0.57207 0.0
H974 H 0.69374 0.24571 0.57272 0.0
H975 H 0.66799 0.23935 0.5524 0.0
H976 H 0.67106 0.22267 0.58124 0.0
O977 O 0.70337 0.32617 0.57628 0.0
O978 O 0.67717 0.34936 0.59795 0.0
H979 H 0.61582 0.30434 0.63505 0.0
H980 H 0.60547 0.27242 0.63551 0.0
C981 C 0.61076 0.28819 0.62339 0.0
H982 H 0.59452 0.29325 0.61186 0.0
H983 H 0.6419 0.35841 0.63997 0.0
O984 O 0.70577 0.2797 0.54227 0.0
C985 C 0.6991 0.34404 0.59102 0.0
Co986 Co 0.5506 0.05753 0.67919 0.0
Co987 Co 0.58213 0.09543 0.64967 0.0
C988 C 0.58388 0.09319 0.70533 0.0
O989 O 0.56781 0.07592 0.70603 0.0
O990 O 0.59108 0.10227 0.68476 0.0
C991 C 0.51623 0.03865 0.7146 0.0
O992 O 0.51811 0.06076 0.72467 0.0
C993 C 0.59771 0.14505 0.63621 0.0
C994 C 0.61267 0.13975 0.59844 0.0
C995 C 0.60811 0.15762 0.61638 0.0
N996 N 0.5962 0.12093 0.63023 0.0
N997 N 0.60529 0.1178 0.60771 0.0
C998 C 0.58734 0.1558 0.6596 0.0
H999 H 0.57205 0.14401 0.6667 0.0
H1000 H 0.58039 0.17492 0.65644 0.0
H1001 H 0.60215 0.1564 0.67388 0.0
C1002 C 0.50976 0.08204 0.653 0.0
N1003 N 0.53402 0.07885 0.65759 0.0
N1004 N 0.54695 0.09509 0.64478 0.0
C1005 C 0.531 0.10929 0.6316 0.0
C1006 C 0.50704 0.10144 0.63655 0.0
C1007 C 0.48939 0.06742 0.66487 0.0
H1008 H 0.49375 0.04736 0.66391 0.0
H1009 H 0.48782 0.07286 0.68463 0.0
H1010 H 0.4713 0.07081 0.65563 0.0
O1011 O 0.57464 0.03688 0.66113 0.0
O1012 O 0.5983 0.06337 0.64034 0.0
H1013 H 0.55385 0.12537 0.6034 0.0
H1014 H 0.52244 0.13715 0.60409 0.0
C1015 C 0.53825 0.13076 0.61563 0.0
H1016 H 0.54437 0.14634 0.62756 0.0
H1017 H 0.60604 0.10077 0.59855 0.0
O1018 O 0.52769 0.03412 0.69459 0.0
C1019 C 0.5927 0.04131 0.64667 0.0
Co1020 Co 0.30364 0.18671 0.55768 0.0
Co1021 Co 0.34468 0.15855 0.58662 0.0
C1022 C 0.34033 0.15374 0.53171 0.0
O1023 O 0.32222 0.1689 0.53122 0.0
O1024 O 0.35078 0.14781 0.55203 0.0
C1025 C 0.28404 0.21994 0.52171 0.0
O1026 O 0.30662 0.2194 0.51258 0.0
C1027 C 0.3947 0.14286 0.60005 0.0
C1028 C 0.39076 0.13517 0.64011 0.0
C1029 C 0.40783 0.13544 0.6209 0.0
N1030 N 0.37102 0.14676 0.6067 0.0
N1031 N 0.36873 0.14202 0.63062 0.0
C1032 C 0.40473 0.14839 0.57476 0.0
H1033 H 0.39381 0.16337 0.56584 0.0
H1034 H 0.42448 0.15408 0.57575 0.0
H1035 H 0.40324 0.13151 0.56309 0.0
C1036 C 0.32622 0.22981 0.5815 0.0
N1037 N 0.32463 0.20525 0.57781 0.0
N1038 N 0.34304 0.194 0.58915 0.0
C1039 C 0.35763 0.2114 0.59979 0.0
C1040 C 0.34745 0.2347 0.59506 0.0
C1041 C 0.30727 0.24821 0.57288 0.0
H1042 H 0.28843 0.24015 0.57436 0.0
H1043 H 0.31089 0.25302 0.55322 0.0
H1044 H 0.308 0.26545 0.5841 0.0
O1045 O 0.28472 0.16302 0.57742 0.0
O1046 O 0.3134 0.14155 0.59776 0.0
H1047 H 0.37864 0.19446 0.62885 0.0
H1048 H 0.39203 0.22297 0.61733 0.0
C1049 C 0.38191 0.2059 0.61207 0.0
H1050 H 0.39372 0.1951 0.59923 0.0
H1051 H 0.35221 0.14387 0.64052 0.0
O1052 O 0.27927 0.20791 0.54134 0.0
C1053 C 0.29079 0.14584 0.59234 0.0
Co1054 Co 0.43664 0.43414 0.6808 0.0
Co1055 Co 0.40787 0.39429 0.65065 0.0
C1056 C 0.40407 0.39638 0.70585 0.0
O1057 O 0.4189 0.41475 0.70668 0.0
O1058 O 0.39808 0.38639 0.68529 0.0
C1059 C 0.46997 0.45309 0.71731 0.0
O1060 O 0.46878 0.43069 0.72683 0.0
C1061 C 0.38484 0.34791 0.63359 0.0
C1062 C 0.3946 0.34855 0.5938 0.0
C1063 C 0.38396 0.33383 0.612 0.0
N1064 N 0.39636 0.3694 0.62847 0.0
N1065 N 0.40164 0.36989 0.60456 0.0
C1066 C 0.37318 0.34227 0.65812 0.0
H1067 H 0.36534 0.35948 0.66614 0.0
H1068 H 0.3875 0.33496 0.67099 0.0
H1069 H 0.35794 0.3286 0.65626 0.0
C1070 C 0.47948 0.41138 0.65663 0.0
N1071 N 0.4549 0.41356 0.65998 0.0
N1072 N 0.44338 0.39567 0.64806 0.0
C1073 C 0.46065 0.3809 0.63741 0.0
C1074 C 0.48393 0.39058 0.64245 0.0
C1075 C 0.49851 0.42863 0.66715 0.0
H1076 H 0.49179 0.44803 0.6661 0.0
H1077 H 0.50191 0.42375 0.68684 0.0
H1078 H 0.51631 0.42715 0.65694 0.0
O1079 O 0.41297 0.45406 0.66186 0.0
O1080 O 0.39087 0.42616 0.64121 0.0
H1081 H 0.4507 0.35965 0.60555 0.0
H1082 H 0.47205 0.34425 0.62592 0.0
C1083 C 0.4555 0.35648 0.62529 0.0
H1084 H 0.43981 0.34706 0.63462 0.0
H1085 H 0.41088 0.38445 0.5958 0.0
O1086 O 0.4582 0.45789 0.69752 0.0
C1087 C 0.39544 0.44858 0.64714 0.0
Co1088 Co 0.92834 0.68561 0.68843 0.0
Co1089 Co 0.89878 0.64474 0.66061 0.0
C1090 C 0.95347 0.64796 0.65533 0.0
O1091 O 0.95418 0.66644 0.67006 0.0
O1092 O 0.93307 0.63743 0.64988 0.0
C1093 C 0.96486 0.70377 0.72174 0.0
O1094 O 0.9732 0.68088 0.7211 0.0
C1095 C 0.88222 0.59828 0.63766 0.0
C1096 C 0.84312 0.59693 0.64978 0.0
C1097 C 0.86128 0.58329 0.63773 0.0
N1098 N 0.87687 0.61929 0.64993 0.0
N1099 N 0.85334 0.61859 0.65669 0.0
C1100 C 0.90631 0.59382 0.62462 0.0
H1101 H 0.91312 0.61144 0.61653 0.0
H1102 H 0.92024 0.587 0.63815 0.0
H1103 H 0.90424 0.58015 0.6094 0.0
C1104 C 0.90512 0.66308 0.73185 0.0
N1105 N 0.90819 0.66491 0.70722 0.0
N1106 N 0.89736 0.64612 0.69614 0.0
C1107 C 0.88819 0.63081 0.71374 0.0
C1108 C 0.89272 0.6412 0.73691 0.0
C1109 C 0.91334 0.68228 0.75015 0.0
H1110 H 0.91188 0.70105 0.74188 0.0
H1111 H 0.93292 0.67879 0.75537 0.0
H1112 H 0.90185 0.68158 0.76721 0.0
O1113 O 0.90864 0.70505 0.6652 0.0
O1114 O 0.88835 0.67642 0.64368 0.0
H1115 H 0.85824 0.60615 0.70583 0.0
H1116 H 0.88209 0.59282 0.7249 0.0
C1117 C 0.87856 0.60524 0.70886 0.0
H1118 H 0.88753 0.59724 0.69221 0.0
H1119 H 0.84454 0.63252 0.66683 0.0
O1120 O 0.94548 0.70935 0.70962 0.0
C1121 C 0.89378 0.69903 0.64797 0.0
Co1122 Co 0.93178 0.80897 0.55339 0.0
Co1123 Co 0.89436 0.83983 0.5842 0.0
C1124 C 0.89557 0.78416 0.58699 0.0
O1125 O 0.91283 0.78287 0.57097 0.0
O1126 O 0.88687 0.805 0.59388 0.0
C1127 C 0.94947 0.77274 0.51924 0.0
O1128 O 0.92705 0.76342 0.52123 0.0
C1129 C 0.84487 0.85459 0.59846 0.0
C1130 C 0.85086 0.89149 0.61523 0.0
C1131 C 0.83256 0.87437 0.60937 0.0
N1132 N 0.86917 0.85985 0.59795 0.0
N1133 N 0.87272 0.88186 0.60808 0.0
C1134 C 0.83394 0.83187 0.58684 0.0
H1135 H 0.83162 0.81737 0.60125 0.0
H1136 H 0.84651 0.82446 0.57233 0.0
H1137 H 0.81557 0.83603 0.57853 0.0
C1138 C 0.90794 0.83471 0.51197 0.0
N1139 N 0.91093 0.83066 0.53635 0.0
N1140 N 0.89486 0.84405 0.54889 0.0
C1141 C 0.88097 0.85712 0.53256 0.0
C1142 C 0.88872 0.85129 0.50874 0.0
C1143 C 0.92287 0.82259 0.49196 0.0
H1144 H 0.94281 0.82298 0.49692 0.0
H1145 H 0.91691 0.80302 0.48997 0.0
H1146 H 0.92033 0.83211 0.47388 0.0
O1147 O 0.95266 0.82713 0.57709 0.0
O1148 O 0.9265 0.84893 0.60024 0.0
H1149 H 0.86492 0.88531 0.55556 0.0
H1150 H 0.8548 0.88609 0.52358 0.0
C1151 C 0.85987 0.8738 0.5393 0.0
H1152 H 0.84348 0.8624 0.54411 0.0
H1153 H 0.89 0.8904 0.60981 0.0
O1154 O 0.95478 0.79254 0.53078 0.0
C1155 C 0.94844 0.84208 0.5948 0.0
Co1156 Co 0.06225 0.80387 0.68584 0.0
Co1157 Co 0.0915 0.84261 0.65507 0.0
C1158 C 0.03607 0.83996 0.6529 0.0
O1159 O 0.03551 0.82252 0.66879 0.0
O1160 O 0.05651 0.84933 0.64579 0.0
C1161 C 0.02691 0.78586 0.72034 0.0
O1162 O 0.01791 0.80847 0.71883 0.0
C1163 C 0.10467 0.89252 0.64031 0.0
C1164 C 0.14277 0.88784 0.62602 0.0
C1165 C 0.12456 0.90546 0.63054 0.0
N1166 N 0.11087 0.86844 0.64154 0.0
N1167 N 0.13358 0.86567 0.63283 0.0
C1168 C 0.08098 0.90287 0.65045 0.0
H1169 H 0.07366 0.8907 0.66533 0.0
H1170 H 0.08384 0.92184 0.65789 0.0
H1171 H 0.067 0.90371 0.63536 0.0
C1172 C 0.08777 0.82797 0.72725 0.0
N1173 N 0.08367 0.82498 0.70287 0.0
N1174 N 0.09605 0.84185 0.69036 0.0
C1175 C 0.10833 0.85638 0.70674 0.0
C1176 C 0.1032 0.84807 0.73053 0.0
C1177 C 0.07644 0.81247 0.74729 0.0
H1178 H 0.05687 0.81817 0.74997 0.0
H1179 H 0.08643 0.81488 0.76513 0.0
H1180 H 0.07699 0.79262 0.74199 0.0
O1181 O 0.08033 0.78372 0.66152 0.0
O1182 O 0.10094 0.81082 0.63837 0.0
H1183 H 0.13448 0.88523 0.71611 0.0
H1184 H 0.1107 0.89392 0.69435 0.0
C1185 C 0.12331 0.87874 0.70009 0.0
H1186 H 0.13584 0.87433 0.68443 0.0
H1187 H 0.14295 0.84875 0.63201 0.0
O1188 O 0.0464 0.78042 0.70838 0.0
C1189 C 0.09469 0.78862 0.64351 0.0
Co1190 Co 0.05234 0.67676 0.55147 0.0
Co1191 Co 0.09223 0.64709 0.58045 0.0
C1192 C 0.08977 0.70238 0.58363 0.0
O1193 O 0.07177 0.70322 0.56836 0.0
O1194 O 0.09937 0.68181 0.59009 0.0
C1195 C 0.03302 0.71248 0.51766 0.0
O1196 O 0.05559 0.72164 0.51822 0.0
C1197 C 0.14211 0.63315 0.59543 0.0
C1198 C 0.13705 0.59445 0.60793 0.0
C1199 C 0.15478 0.61284 0.6049 0.0
N1200 N 0.1181 0.627 0.59307 0.0
N1201 N 0.11514 0.6039 0.60064 0.0
C1202 C 0.15264 0.65738 0.58688 0.0
H1203 H 0.14087 0.66553 0.5721 0.0
H1204 H 0.17178 0.65494 0.57976 0.0
H1205 H 0.15303 0.67053 0.60271 0.0
C1206 C 0.07454 0.65144 0.50897 0.0
N1207 N 0.07266 0.65534 0.53347 0.0
N1208 N 0.09045 0.64338 0.54508 0.0
C1209 C 0.10479 0.63192 0.52798 0.0
C1210 C 0.09524 0.63697 0.5045 0.0
C1211 C 0.05674 0.66134 0.49007 0.0
H1212 H 0.03754 0.66037 0.49729 0.0
H1213 H 0.06133 0.68097 0.48602 0.0
H1214 H 0.05779 0.6506 0.47254 0.0
O1215 O 0.0329 0.65852 0.57606 0.0
O1216 O 0.0608 0.6376 0.59797 0.0
H1217 H 0.12493 0.60432 0.54822 0.0
H1218 H 0.13668 0.60971 0.51733 0.0
C1219 C 0.12844 0.61862 0.53388 0.0
H1220 H 0.14204 0.63203 0.54139 0.0
H1221 H 0.09821 0.59453 0.60057 0.0
O1222 O 0.02821 0.69298 0.5299 0.0
C1223 C 0.03843 0.64391 0.59368 0.0
Co1224 Co 0.92743 0.30356 0.79979 0.0
Co1225 Co 0.89762 0.34274 0.8299 0.0
C1226 C 0.9529 0.34177 0.83166 0.0
O1227 O 0.95361 0.32348 0.81669 0.0
O1228 O 0.93235 0.35127 0.83838 0.0
C1229 C 0.96343 0.28515 0.76565 0.0
O1230 O 0.97269 0.30765 0.7669 0.0
C1231 C 0.88088 0.389 0.8532 0.0
C1232 C 0.84057 0.38746 0.84601 0.0
C1233 C 0.85913 0.40262 0.8553 0.0
N1234 N 0.8755 0.36725 0.84229 0.0
N1235 N 0.85132 0.36624 0.8385 0.0
C1236 C 0.90599 0.39538 0.86313 0.0
H1237 H 0.91439 0.37867 0.87165 0.0
H1238 H 0.91806 0.40162 0.84768 0.0
H1239 H 0.905 0.41004 0.87751 0.0
C1240 C 0.90083 0.32597 0.75806 0.0
N1241 N 0.90527 0.32365 0.78247 0.0
N1242 N 0.89374 0.3414 0.79459 0.0
C1243 C 0.88247 0.35634 0.77789 0.0
C1244 C 0.88631 0.3467 0.75438 0.0
C1245 C 0.912 0.30996 0.73834 0.0
H1246 H 0.93158 0.31549 0.73548 0.0
H1247 H 0.90197 0.31206 0.72048 0.0
H1248 H 0.91145 0.29024 0.74414 0.0
O1249 O 0.90995 0.28324 0.8242 0.0
O1250 O 0.88955 0.31069 0.84712 0.0
H1251 H 0.87017 0.39298 0.76717 0.0
H1252 H 0.88107 0.39023 0.79878 0.0
C1253 C 0.87071 0.38078 0.78375 0.0
H1254 H 0.85136 0.37763 0.78989 0.0
H1255 H 0.8423 0.3514 0.82996 0.0
O1256 O 0.94379 0.28011 0.77755 0.0
C1257 C 0.89582 0.28841 0.8423 0.0
Co1258 Co 0.55109 0.81331 0.43344 0.0
Co1259 Co 0.59254 0.84119 0.40494 0.0
C1260 C 0.58842 0.78616 0.40221 0.0
O1261 O 0.57006 0.78622 0.41703 0.0
O1262 O 0.59878 0.80628 0.39562 0.0
C1263 C 0.53272 0.77852 0.46785 0.0
O1264 O 0.55582 0.77077 0.46783 0.0
C1265 C 0.64303 0.85292 0.38998 0.0
C1266 C 0.6404 0.89278 0.38079 0.0
C1267 C 0.65689 0.87309 0.38219 0.0
N1268 N 0.61944 0.86037 0.39301 0.0
N1269 N 0.61793 0.88417 0.38738 0.0
C1270 C 0.65229 0.82758 0.39664 0.0
H1271 H 0.64113 0.81969 0.41199 0.0
H1272 H 0.67206 0.82816 0.40232 0.0
H1273 H 0.65042 0.81522 0.3803 0.0
C1274 C 0.57314 0.83836 0.476 0.0
N1275 N 0.57169 0.83421 0.45152 0.0
N1276 N 0.59044 0.84489 0.44025 0.0
C1277 C 0.60516 0.85544 0.45761 0.0
C1278 C 0.59469 0.85133 0.48086 0.0
C1279 C 0.55399 0.83043 0.49447 0.0
H1280 H 0.53522 0.83163 0.48618 0.0
H1281 H 0.55759 0.811 0.50014 0.0
H1282 H 0.55465 0.8423 0.51128 0.0
O1283 O 0.53251 0.83207 0.40875 0.0
O1284 O 0.56143 0.85179 0.38704 0.0
H1285 H 0.62742 0.88269 0.43937 0.0
H1286 H 0.63937 0.87327 0.46924 0.0
C1287 C 0.62988 0.86681 0.45221 0.0
H1288 H 0.64187 0.85293 0.443 0.0
H1289 H 0.60167 0.8946 0.38846 0.0
O1290 O 0.52685 0.79731 0.45495 0.0
C1291 C 0.53877 0.84643 0.39118 0.0
Co1292 Co 0.05885 0.18265 0.80127 0.0
Co1293 Co 0.08924 0.14475 0.83216 0.0
C1294 C 0.03354 0.14605 0.83395 0.0
O1295 O 0.03237 0.16347 0.81807 0.0
O1296 O 0.05432 0.13743 0.84107 0.0
C1297 C 0.02326 0.20123 0.76681 0.0
O1298 O 0.01371 0.17886 0.76834 0.0
C1299 C 0.10231 0.09493 0.84707 0.0
C1300 C 0.13988 0.09953 0.86272 0.0
C1301 C 0.12174 0.08197 0.85776 0.0
N1302 N 0.10865 0.11896 0.84583 0.0
N1303 N 0.13108 0.12168 0.85529 0.0
C1304 C 0.07889 0.08463 0.83628 0.0
H1305 H 0.06436 0.08429 0.85083 0.0
H1306 H 0.07226 0.09656 0.82086 0.0
H1307 H 0.0818 0.06547 0.82935 0.0
C1308 C 0.08504 0.159 0.76002 0.0
N1309 N 0.08078 0.16194 0.78436 0.0
N1310 N 0.09387 0.14565 0.79698 0.0
C1311 C 0.10687 0.13163 0.78075 0.0
C1312 C 0.10142 0.13958 0.7569 0.0
C1313 C 0.07312 0.17401 0.73992 0.0
H1314 H 0.07354 0.19394 0.7449 0.0
H1315 H 0.05354 0.16812 0.73779 0.0
H1316 H 0.08275 0.17144 0.72192 0.0
O1317 O 0.0766 0.20307 0.8257 0.0
O1318 O 0.09823 0.17667 0.8488 0.0
H1319 H 0.13504 0.11509 0.80339 0.0
H1320 H 0.13439 0.10391 0.77176 0.0
C1321 C 0.12284 0.11002 0.78765 0.0
H1322 H 0.11091 0.09433 0.79345 0.0
H1323 H 0.14044 0.13857 0.8564 0.0
O1324 O 0.04295 0.20615 0.77869 0.0
C1325 C 0.09133 0.19866 0.84357 0.0
Co1326 Co 0.43627 0.67672 0.43428 0.0
Co1327 Co 0.39483 0.64765 0.40677 0.0
C1328 C 0.39858 0.70207 0.40118 0.0
O1329 O 0.41717 0.70245 0.41577 0.0
O1330 O 0.38759 0.68189 0.39583 0.0
C1331 C 0.4532 0.71327 0.4677 0.0
O1332 O 0.42996 0.72058 0.46699 0.0
C1333 C 0.34789 0.63068 0.38497 0.0
C1334 C 0.34824 0.59103 0.39542 0.0
C1335 C 0.33371 0.60919 0.38448 0.0
N1336 N 0.36944 0.62554 0.3964 0.0
N1337 N 0.36968 0.60175 0.40227 0.0
C1338 C 0.34197 0.65526 0.37349 0.0
H1339 H 0.35876 0.66286 0.36441 0.0
H1340 H 0.33605 0.66839 0.3882 0.0
H1341 H 0.32715 0.65367 0.35933 0.0
C1342 C 0.41411 0.6536 0.47773 0.0
N1343 N 0.41565 0.65668 0.4531 0.0
N1344 N 0.3965 0.6463 0.44225 0.0
C1345 C 0.3812 0.63748 0.46002 0.0
C1346 C 0.39196 0.64185 0.48309 0.0
C1347 C 0.43398 0.66096 0.49571 0.0
H1348 H 0.45248 0.65936 0.4869 0.0
H1349 H 0.43105 0.68045 0.50156 0.0
H1350 H 0.43349 0.649 0.51246 0.0
O1351 O 0.45551 0.65702 0.41111 0.0
O1352 O 0.42641 0.63736 0.38959 0.0
H1353 H 0.35626 0.60785 0.45183 0.0
H1354 H 0.34329 0.63148 0.47148 0.0
C1355 C 0.35551 0.62811 0.45528 0.0
H1356 H 0.34744 0.6374 0.43881 0.0
H1357 H 0.38419 0.59303 0.41165 0.0
O1358 O 0.45969 0.69424 0.45549 0.0
C1359 C 0.44912 0.64246 0.39376 0.0
Co1360 Co 0.68486 0.92726 0.6832 0.0
Co1361 Co 0.65564 0.89897 0.64243 0.0
C1362 C 0.65157 0.95384 0.64702 0.0
O1363 O 0.66675 0.95386 0.66512 0.0
O1364 O 0.64548 0.93378 0.63617 0.0
C1365 C 0.71916 0.96268 0.70103 0.0
O1366 O 0.71806 0.97116 0.6782 0.0
C1367 C 0.63256 0.8841 0.59545 0.0
C1368 C 0.64222 0.84428 0.59432 0.0
C1369 C 0.63175 0.8632 0.58039 0.0
N1370 N 0.64393 0.87793 0.61676 0.0
N1371 N 0.64914 0.854 0.6162 0.0
C1372 C 0.62109 0.90896 0.59079 0.0
H1373 H 0.61302 0.91625 0.60822 0.0
H1374 H 0.63557 0.92206 0.58431 0.0
H1375 H 0.60604 0.90784 0.57682 0.0
C1376 C 0.72736 0.90346 0.65946 0.0
N1377 N 0.70284 0.90718 0.66173 0.0
N1378 N 0.69115 0.8963 0.6433 0.0
C1379 C 0.70828 0.88612 0.62803 0.0
C1380 C 0.73159 0.89028 0.638 0.0
C1381 C 0.74659 0.91251 0.67732 0.0
H1382 H 0.75129 0.93202 0.67287 0.0
H1383 H 0.76381 0.90129 0.6759 0.0
H1384 H 0.73951 0.91145 0.69657 0.0
O1385 O 0.6615 0.90764 0.70264 0.0
O1386 O 0.63905 0.88832 0.67404 0.0
H1387 H 0.7195 0.87615 0.59093 0.0
H1388 H 0.6873 0.88495 0.59417 0.0
C1389 C 0.70296 0.87511 0.60314 0.0
H1390 H 0.69808 0.85528 0.60546 0.0
H1391 H 0.65833 0.84455 0.63038 0.0
O1392 O 0.70682 0.94353 0.70681 0.0
C1393 C 0.64386 0.89327 0.69665 0.0
Co1394 Co 0.68656 0.0598 0.80171 0.0
Co1395 Co 0.65904 0.08721 0.84409 0.0
C1396 C 0.65475 0.03271 0.83932 0.0
O1397 O 0.66895 0.03309 0.82043 0.0
O1398 O 0.64915 0.05256 0.85082 0.0
C1399 C 0.72063 0.02467 0.78283 0.0
O1400 O 0.72066 0.01639 0.80576 0.0
C1401 C 0.63581 0.1028 0.89078 0.0
C1402 C 0.64915 0.14144 0.89359 0.0
C1403 C 0.63631 0.12326 0.90646 0.0
N1404 N 0.6486 0.10844 0.87016 0.0
N1405 N 0.65606 0.1317 0.87173 0.0
C1406 C 0.62193 0.07901 0.89413 0.0
H1407 H 0.61487 0.07246 0.87597 0.0
H1408 H 0.63461 0.06471 0.90177 0.0
H1409 H 0.60591 0.08144 0.90679 0.0
C1410 C 0.72995 0.08306 0.82413 0.0
N1411 N 0.70534 0.07967 0.82263 0.0
N1412 N 0.69448 0.08931 0.84217 0.0
C1413 C 0.71226 0.09787 0.85764 0.0
C1414 C 0.73526 0.09427 0.84657 0.0
C1415 C 0.74799 0.07628 0.80415 0.0
H1416 H 0.73917 0.07814 0.78567 0.0
H1417 H 0.75408 0.05681 0.80673 0.0
H1418 H 0.76461 0.08839 0.80492 0.0
O1419 O 0.66276 0.07959 0.78321 0.0
O1420 O 0.64123 0.09812 0.81299 0.0
H1421 H 0.70517 0.12624 0.88437 0.0
H1422 H 0.72393 0.10121 0.89579 0.0
C1423 C 0.7078 0.10585 0.88386 0.0
H1424 H 0.69108 0.09665 0.89143 0.0
H1425 H 0.66667 0.14063 0.85824 0.0
O1426 O 0.70774 0.04358 0.7774 0.0
C1427 C 0.64525 0.0937 0.79011 0.0
Co1428 Co 0.30932 0.05027 0.43323 0.0
Co1429 Co 0.33809 0.07932 0.39255 0.0
C1430 C 0.28298 0.0822 0.39575 0.0
O1431 O 0.28275 0.0674 0.41418 0.0
O1432 O 0.30321 0.0885 0.38536 0.0
C1433 C 0.27387 0.01644 0.45302 0.0
O1434 O 0.26413 0.01722 0.43069 0.0
C1435 C 0.35346 0.10268 0.34584 0.0
C1436 C 0.39322 0.09282 0.34494 0.0
C1437 C 0.37448 0.10356 0.33096 0.0
N1438 N 0.35939 0.09102 0.36707 0.0
N1439 N 0.38329 0.0857 0.36665 0.0
C1440 C 0.32876 0.11448 0.34121 0.0
H1441 H 0.32131 0.12205 0.35879 0.0
H1442 H 0.31565 0.1003 0.33409 0.0
H1443 H 0.33019 0.12994 0.32773 0.0
C1444 C 0.33375 0.00772 0.41024 0.0
N1445 N 0.33012 0.03227 0.41243 0.0
N1446 N 0.3413 0.04389 0.39413 0.0
C1447 C 0.35164 0.02669 0.37906 0.0
C1448 C 0.34727 0.0034 0.38901 0.0
C1449 C 0.3238 0.98856 0.42767 0.0
H1450 H 0.32508 -0.00471 0.44705 0.0
H1451 H 0.3041 0.98488 0.42311 0.0
H1452 H 0.33424 0.97089 0.42601 0.0
O1453 O 0.32807 0.07452 0.45249 0.0
O1454 O 0.34775 0.09677 0.42403 0.0
H1455 H 0.38243 0.03669 0.35635 0.0
H1456 H 0.36144 0.0153 0.34194 0.0
C1457 C 0.36258 0.03187 0.35411 0.0
H1458 H 0.35276 0.04753 0.3451 0.0
H1459 H 0.39259 0.07635 0.38082 0.0
O1460 O 0.29347 0.02863 0.45749 0.0
C1461 C 0.34229 0.0923 0.44657 0.0
Co1462 Co 0.30127 0.42825 0.80208 0.0
Co1463 Co 0.32882 0.40058 0.84439 0.0
C1464 C 0.33317 0.45514 0.83971 0.0
O1465 O 0.31883 0.45493 0.8209 0.0
O1466 O 0.33882 0.43522 0.85107 0.0
C1467 C 0.26713 0.46331 0.78281 0.0
O1468 O 0.26704 0.47187 0.80563 0.0
C1469 C 0.35202 0.38502 0.89119 0.0
C1470 C 0.3389 0.34629 0.89387 0.0
C1471 C 0.35163 0.3645 0.90681 0.0
N1472 N 0.33929 0.37937 0.87052 0.0
N1473 N 0.33194 0.35606 0.87202 0.0
C1474 C 0.36577 0.40887 0.89466 0.0
H1475 H 0.37286 0.41552 0.87655 0.0
H1476 H 0.35297 0.42308 0.90227 0.0
H1477 H 0.38176 0.4065 0.90739 0.0
C1478 C 0.25788 0.40491 0.82435 0.0
N1479 N 0.28249 0.40828 0.82291 0.0
N1480 N 0.29333 0.39851 0.84242 0.0
C1481 C 0.27552 0.38987 0.8578 0.0
C1482 C 0.25252 0.39358 0.84671 0.0
C1483 C 0.23986 0.41182 0.80437 0.0
H1484 H 0.24866 0.40997 0.78589 0.0
H1485 H 0.23385 0.43131 0.80699 0.0
H1486 H 0.22319 0.39978 0.80508 0.0
O1487 O 0.32514 0.40857 0.7836 0.0
O1488 O 0.34661 0.38973 0.81327 0.0
H1489 H 0.28267 0.36124 0.88425 0.0
H1490 H 0.26378 0.38607 0.89587 0.0
C1491 C 0.27995 0.38163 0.88395 0.0
H1492 H 0.29663 0.39081 0.89167 0.0
H1493 H 0.32141 0.34711 0.85847 0.0
O1494 O 0.28012 0.4444 0.77764 0.0
C1495 C 0.34261 0.39435 0.79041 0.0
Co1496 Co 0.17482 0.93619 0.93334 0.0
Co1497 Co 0.1451 0.90614 0.89422 0.0
C1498 C 0.20067 0.90416 0.89649 0.0
O1499 O 0.20152 0.91977 0.91416 0.0
O1500 O 0.18008 0.89714 0.88738 0.0
C1501 C 0.21026 0.97013 0.95286 0.0
O1502 O 0.21992 0.96899 0.93053 0.0
C1503 C 0.13288 0.8917 0.84398 0.0
C1504 C 0.09488 0.87691 0.84769 0.0
C1505 C 0.11352 0.88146 0.83057 0.0
N1506 N 0.12602 0.89305 0.86787 0.0
N1507 N 0.10333 0.88413 0.87005 0.0
C1508 C 0.15676 0.90193 0.83423 0.0
H1509 H 0.16337 0.91731 0.8462 0.0
H1510 H 0.1545 0.90876 0.81494 0.0
H1511 H 0.17102 0.88708 0.8344 0.0
C1512 C 0.14928 0.97802 0.91001 0.0
N1513 N 0.15324 0.95358 0.91266 0.0
N1514 N 0.14063 0.94138 0.89571 0.0
C1515 C 0.12832 0.958 0.8815 0.0
C1516 C 0.13368 0.98166 0.89006 0.0
C1517 C 0.16092 -0.00226 0.9257 0.0
H1518 H 0.18057 6e-05 0.92015 0.0
H1519 H 0.15128 0.01579 0.92339 0.0
H1520 H 0.16019 0.99229 0.9455 0.0
O1521 O 0.15689 0.9113 0.95293 0.0
O1522 O 0.13569 0.88881 0.92569 0.0
H1523 H 0.10233 0.96785 0.8526 0.0
H1524 H 0.12582 0.94574 0.84393 0.0
C1525 C 0.11327 0.95165 0.85908 0.0
H1526 H 0.10054 0.93613 0.86341 0.0
H1527 H 0.09356 0.8832 0.88672 0.0
O1528 O 0.19051 0.95823 0.95747 0.0
C1529 C 0.1423 0.8935 0.94789 0.0
Co1530 Co 0.80016 0.05481 0.18188 0.0
Co1531 Co 0.82961 0.0854 0.14283 0.0
C1532 C 0.8342 0.03014 0.14534 0.0
O1533 O 0.81875 0.02907 0.16318 0.0
O1534 O 0.84019 0.05081 0.13558 0.0
C1535 C 0.76695 0.018 0.20053 0.0
O1536 O 0.76887 0.00815 0.17832 0.0
C1537 C 0.85226 0.10242 0.09628 0.0
C1538 C 0.84507 0.14273 0.09837 0.0
C1539 C 0.85424 0.12436 0.08291 0.0
N1540 N 0.84155 0.10756 0.11818 0.0
N1541 N 0.83775 0.13173 0.1195 0.0
C1542 C 0.86202 0.07733 0.08946 0.0
H1543 H 0.87081 0.06868 0.10589 0.0
H1544 H 0.84643 0.06537 0.08334 0.0
H1545 H 0.87616 0.07843 0.0746 0.0
C1546 C 0.75768 0.07852 0.15789 0.0
N1547 N 0.78221 0.07529 0.16067 0.0
N1548 N 0.79411 0.08766 0.14335 0.0
C1549 C 0.77717 0.09867 0.12846 0.0
C1550 C 0.75371 0.09325 0.13738 0.0
C1551 C 0.73826 0.06742 0.17431 0.0
H1552 H 0.74413 0.06867 0.19397 0.0
H1553 H 0.73575 0.04763 0.16935 0.0
H1554 H 0.7202 0.07706 0.17208 0.0
O1555 O 0.82303 0.07427 0.20226 0.0
O1556 O 0.84545 0.09536 0.17497 0.0
H1557 H 0.78886 0.13118 0.10919 0.0
H1558 H 0.7664 0.11302 0.09261 0.0
C1559 C 0.78294 0.11199 0.10482 0.0
H1560 H 0.79813 0.1024 0.09485 0.0
H1561 H 0.82938 0.14059 0.13453 0.0
O1562 O 0.77824 0.03807 0.20527 0.0
C1563 C 0.84036 0.08938 0.19724 0.0
Co1564 Co 0.30682 0.93744 0.05491 0.0
Co1565 Co 0.33793 0.90659 0.09222 0.0
C1566 C 0.28231 0.90327 0.09069 0.0
O1567 O 0.2808 0.91947 0.0736 0.0
O1568 O 0.30323 0.89651 0.09928 0.0
C1569 C 0.27009 0.97095 0.03694 0.0
O1570 O 0.26057 0.9686 0.05925 0.0
C1571 C 0.35159 0.89123 0.14175 0.0
C1572 C 0.38955 0.87665 0.13671 0.0
C1573 C 0.3714 0.8809 0.15444 0.0
N1574 N 0.35775 0.89296 0.1177 0.0
N1575 N 0.3804 0.88413 0.11472 0.0
C1576 C 0.32798 0.90127 0.15233 0.0
H1577 H 0.32085 0.91664 0.14063 0.0
H1578 H 0.33084 0.90804 0.17155 0.0
H1579 H 0.31384 0.88633 0.1526 0.0
C1580 C 0.33188 0.97891 0.07942 0.0
N1581 N 0.32813 0.95453 0.07608 0.0
N1582 N 0.34163 0.94191 0.09202 0.0
C1583 C 0.35448 0.95816 0.10615 0.0
C1584 C 0.34848 0.98201 0.09864 0.0
C1585 C 0.31933 -0.001 0.06493 0.0
H1586 H 0.32003 -0.00541 0.04487 0.0
H1587 H 0.29965 0.00022 0.07072 0.0
H1588 H 0.32826 0.01728 0.06807 0.0
O1589 O 0.32539 0.914 0.03401 0.0
O1590 O 0.34751 0.89093 0.06002 0.0
H1591 H 0.38358 0.93594 0.1216 0.0
H1592 H 0.38231 0.9673 0.1335 0.0
C1593 C 0.37106 0.95122 0.12728 0.0
H1594 H 0.35962 0.94475 0.14305 0.0
H1595 H 0.38969 0.88352 0.09776 0.0
O1596 O 0.29029 0.96003 0.03186 0.0
C1597 C 0.3406 0.89644 0.0381 0.0
Co1598 Co 0.67648 0.54957 0.05469 0.0
Co1599 Co 0.64809 0.57945 0.09484 0.0
C1600 C 0.70302 0.58233 0.09156 0.0
O1601 O 0.70315 0.56719 0.0734 0.0
O1602 O 0.68285 0.58872 0.10199 0.0
C1603 C 0.71165 0.51474 0.0369 0.0
O1604 O 0.72025 0.51566 0.05969 0.0
C1605 C 0.6326 0.60342 0.14105 0.0
C1606 C 0.59287 0.59348 0.14208 0.0
C1607 C 0.61161 0.60435 0.15594 0.0
N1608 N 0.62668 0.5916 0.11994 0.0
N1609 N 0.6028 0.58624 0.12041 0.0
C1610 C 0.65728 0.61526 0.14557 0.0
H1611 H 0.6646 0.62284 0.12794 0.0
H1612 H 0.67047 0.60112 0.15263 0.0
H1613 H 0.65587 0.63074 0.15904 0.0
C1614 C 0.6509 0.50764 0.07786 0.0
N1615 N 0.65538 0.53205 0.07562 0.0
N1616 N 0.64475 0.54405 0.09399 0.0
C1617 C 0.63425 0.52722 0.10933 0.0
C1618 C 0.63748 0.50382 0.09925 0.0
C1619 C 0.66054 0.48802 0.06078 0.0
H1620 H 0.65987 0.49462 0.04132 0.0
H1621 H 0.68002 0.4837 0.06577 0.0
H1622 H 0.64953 0.47071 0.06243 0.0
O1623 O 0.65793 0.57346 0.0348 0.0
O1624 O 0.63859 0.59636 0.06301 0.0
H1625 H 0.60387 0.53764 0.13243 0.0
H1626 H 0.62506 0.51638 0.14675 0.0
C1627 C 0.62376 0.53281 0.13439 0.0
H1628 H 0.63376 0.54855 0.14301 0.0
H1629 H 0.59353 0.5767 0.10635 0.0
O1630 O 0.69256 0.52726 0.03127 0.0
C1631 C 0.64391 0.59149 0.04051 0.0
C1632 C 0.1209 0.28751 0.35404 0.0
C1633 C 0.11212 0.30159 0.37418 0.0
H1634 H 0.13537 0.25237 0.342 0.0
C1635 C 0.1091 0.29016 0.39735 0.0
H1636 H 0.12407 0.29599 0.33615 0.0
C1637 C 0.1156 0.26537 0.40059 0.0
C1638 C 0.12527 0.25166 0.38076 0.0
H1639 H 0.10236 0.30057 0.41315 0.0
H1640 H 0.11418 0.2572 0.4189 0.0
C1641 C 0.12739 0.26261 0.35732 0.0
C1642 C 0.515 0.62576 0.83903 0.0
C1643 C 0.50251 0.61311 0.85796 0.0
H1644 H 0.54909 0.64206 0.82707 0.0
C1645 C 0.51458 0.60831 0.88044 0.0
H1646 H 0.50599 0.62916 0.82138 0.0
C1647 C 0.53931 0.61538 0.88364 0.0
C1648 C 0.55215 0.62741 0.86438 0.0
H1649 H 0.50531 0.59796 0.89495 0.0
H1650 H 0.54866 0.61025 0.90064 0.0
C1651 C 0.53963 0.63286 0.84221 0.0
C1652 C 0.85753 0.22385 0.35786 0.0
C1653 C 0.86 0.23482 0.38126 0.0
H1654 H 0.86067 0.19047 0.33664 0.0
C1655 C 0.87006 0.22115 0.40094 0.0
H1656 H 0.84929 0.23408 0.34264 0.0
C1657 C 0.87659 0.19638 0.39761 0.0
C1658 C 0.87324 0.18493 0.37449 0.0
H1659 H 0.87182 0.22934 0.41921 0.0
H1660 H 0.88366 0.18601 0.41331 0.0
C1661 C 0.86407 0.19897 0.35449 0.0
C1662 C 0.44092 0.86678 0.83442 0.0
C1663 C 0.4306 0.86683 0.85832 0.0
H1664 H 0.47299 0.87404 0.81218 0.0
C1665 C 0.44569 0.87308 0.87868 0.0
H1666 H 0.42978 0.86206 0.81838 0.0
C1667 C 0.47054 0.87947 0.87511 0.0
C1668 C 0.4804 0.88013 0.85113 0.0
H1669 H 0.43817 0.87422 0.89721 0.0
H1670 H 0.48168 0.88509 0.89086 0.0
C1671 C 0.46561 0.87342 0.83086 0.0
C1672 C 0.12072 0.71976 0.12082 0.0
C1673 C 0.13188 0.72593 0.09818 0.0
H1674 H 0.10255 0.69182 0.14215 0.0
C1675 C 0.13342 0.70794 0.07942 0.0
H1676 H 0.11907 0.7334 0.13547 0.0
C1677 C 0.12509 0.68387 0.08362 0.0
C1678 C 0.11467 0.67737 0.10654 0.0
H1679 H 0.14108 0.71243 0.06143 0.0
H1680 H 0.12695 0.67029 0.06893 0.0
C1681 C 0.11184 0.69576 0.12484 0.0
C1682 C 0.94232 0.62542 0.15106 0.0
C1683 C 0.93154 0.62381 0.1274 0.0
H1684 H 0.97439 0.61836 0.17345 0.0
C1685 C 0.94588 0.6149 0.1075 0.0
H1686 H 0.93175 0.63215 0.16676 0.0
C1687 C 0.97043 0.6075 0.11131 0.0
C1688 C 0.98072 0.60848 0.13511 0.0
H1689 H 0.93794 0.61248 0.08926 0.0
H1690 H 0.98094 0.59987 0.09599 0.0
C1691 C 0.96669 0.61775 0.15489 0.0
C1692 C 0.87033 0.79567 0.08779 0.0
C1693 C 0.87695 0.80393 0.11156 0.0
H1694 H 0.85642 0.76592 0.06568 0.0
C1695 C 0.87524 0.78729 0.13163 0.0
H1696 H 0.87187 0.80779 0.07184 0.0
C1697 C 0.86566 0.76342 0.12817 0.0
C1698 C 0.85846 0.75558 0.10446 0.0
H1699 H 0.88148 0.79246 0.14996 0.0
H1700 H 0.86359 0.75126 0.14401 0.0
C1701 C 0.86136 0.77173 0.08427 0.0
C1702 C 0.02865 0.87864 0.15919 0.0
C1703 C 0.01062 0.87773 0.14044 0.0
H1704 H 0.06611 0.87086 0.16961 0.0
C1705 C 0.01649 0.86676 0.11762 0.0
H1706 H 0.02435 0.88631 0.17724 0.0
C1707 C 0.04029 0.85742 0.11342 0.0
C1708 C 0.05867 0.85936 0.13183 0.0
H1709 H 0.00279 0.86564 0.10297 0.0
H1710 H 0.04414 0.84849 0.09588 0.0
C1711 C 0.05247 0.86961 0.15491 0.0
C1712 C 0.40413 0.1289 0.27299 0.0
C1713 C 0.38403 0.13021 0.25651 0.0
H1714 H 0.41662 0.1202 0.30951 0.0
C1715 C 0.3607 0.12181 0.2642 0.0
H1716 H 0.42249 0.13467 0.26729 0.0
C1717 C 0.35748 0.11266 0.28825 0.0
C1718 C 0.37734 0.11268 0.30523 0.0
H1719 H 0.34495 0.12259 0.25176 0.0
H1720 H 0.33951 0.10539 0.29328 0.0
C1721 C 0.40079 0.12045 0.29713 0.0
C1722 C 0.37682 0.33446 0.96471 0.0
C1723 C 0.3802 0.35482 0.98056 0.0
H1724 H 0.36584 0.32176 0.9289 0.0
C1725 C 0.37337 0.37855 0.97247 0.0
H1726 H 0.38149 0.31587 0.97073 0.0
C1727 C 0.36367 0.38188 0.94863 0.0
C1728 C 0.36148 0.36162 0.93227 0.0
H1729 H 0.37582 0.39451 0.98441 0.0
H1730 H 0.3577 0.40025 0.94328 0.0
C1731 C 0.36774 0.33784 0.9408 0.0
C1732 C 0.5829 0.35699 0.27459 0.0
C1733 C 0.60297 0.356 0.25807 0.0
H1734 H 0.57036 0.36557 0.3111 0.0
C1735 C 0.62616 0.36485 0.26571 0.0
H1736 H 0.56462 0.35091 0.26892 0.0
C1737 C 0.6293 0.3741 0.28974 0.0
C1738 C 0.60949 0.37376 0.30675 0.0
H1739 H 0.64188 0.36437 0.25323 0.0
H1740 H 0.64714 0.3817 0.29473 0.0
C1741 C 0.58616 0.36556 0.2987 0.0
C1742 C 0.6205 0.14987 0.94059 0.0
C1743 C 0.62653 0.12608 0.93193 0.0
H1744 H 0.60702 0.17178 0.97066 0.0
C1745 C 0.62421 0.10575 0.94818 0.0
H1746 H 0.62252 0.166 0.92878 0.0
C1747 C 0.61458 0.10902 0.97203 0.0
C1748 C 0.60798 0.13276 0.98025 0.0
H1749 H 0.63001 0.08736 0.94273 0.0
H1750 H 0.612 0.09301 0.98388 0.0
C1751 C 0.61151 0.15318 0.96452 0.0
C1752 C 0.35356 0.86591 0.19476 0.0
C1753 C 0.37368 0.87537 0.18113 0.0
H1754 H 0.34145 0.84997 0.22923 0.0
C1755 C 0.39682 0.87794 0.19274 0.0
H1756 H 0.33569 0.86306 0.1861 0.0
C1757 C 0.40002 0.87042 0.21724 0.0
C1758 C 0.38018 0.86012 0.23048 0.0
H1759 H 0.41261 0.88519 0.18268 0.0
H1760 H 0.41828 0.87164 0.22555 0.0
C1761 C 0.35679 0.85837 0.21936 0.0
C1762 C 0.11213 0.33454 0.04878 0.0
C1763 C 0.12329 0.35691 0.05592 0.0
H1764 H 0.09524 0.31379 0.01967 0.0
C1765 C 0.12672 0.37563 0.03806 0.0
H1766 H 0.10981 0.31952 0.06193 0.0
C1767 C 0.11763 0.37262 0.01396 0.0
C1768 C 0.10559 0.3506 0.00723 0.0
H1769 H 0.13657 0.39251 0.04253 0.0
H1770 H 0.11974 0.38758 0.00072 0.0
C1771 C 0.10354 0.33136 0.02465 0.0
C1772 C 0.58226 0.62979 0.21396 0.0
C1773 C 0.60246 0.63111 0.23031 0.0
H1774 H 0.56958 0.62107 0.17752 0.0
C1775 C 0.62572 0.62255 0.22257 0.0
H1776 H 0.56393 0.63561 0.21974 0.0
C1777 C 0.6288 0.61334 0.19854 0.0
C1778 C 0.60886 0.61346 0.18164 0.0
H1779 H 0.64152 0.62325 0.23496 0.0
H1780 H 0.64671 0.60596 0.19345 0.0
C1781 C 0.58546 0.6213 0.18983 0.0
C1782 C 0.86909 0.1143 0.01483 0.0
C1783 C 0.88067 0.13679 0.0089 0.0
H1784 H 0.8505 0.09304 0.0426 0.0
C1785 C 0.8824 0.1554 0.02702 0.0
H1786 H 0.86726 0.09978 0.00108 0.0
C1787 C 0.87392 0.15116 0.05102 0.0
C1788 C 0.86315 0.12835 0.05732 0.0
H1789 H 0.89038 0.1733 0.02269 0.0
H1790 H 0.87598 0.16573 0.0647 0.0
C1791 C 0.86006 0.11025 0.03878 0.0
C1792 C 0.29221 0.35617 0.11962 0.0
C1793 C 0.30649 0.37636 0.11128 0.0
H1794 H 0.25707 0.34409 0.13395 0.0
C1795 C 0.29549 0.39994 0.10983 0.0
H1796 H 0.30031 0.33798 0.1219 0.0
C1797 C 0.27097 0.4034 0.11714 0.0
C1798 C 0.257 0.38334 0.12587 0.0
H1799 H 0.30602 0.41584 0.10354 0.0
H1800 H 0.26311 0.4219 0.11674 0.0
C1801 C 0.26752 0.35963 0.12667 0.0
C1802 C 0.30143 0.58273 0.36497 0.0
C1803 C 0.30816 0.6056 0.37535 0.0
H1804 H 0.27275 0.56107 0.34838 0.0
C1805 C 0.2901 0.62427 0.3778 0.0
H1806 H 0.3148 0.56781 0.36335 0.0
C1807 C 0.2661 0.62058 0.36873 0.0
C1808 C 0.25974 0.59802 0.3575 0.0
H1809 H 0.29437 0.64164 0.38688 0.0
H1810 H 0.25265 0.63543 0.37019 0.0
C1811 C 0.27743 0.57896 0.3562 0.0
C1812 C 0.8329 0.43493 0.87514 0.0
C1813 C 0.85555 0.42826 0.86427 0.0
H1814 H 0.81131 0.46361 0.89175 0.0
C1815 C 0.87393 0.44651 0.86113 0.0
H1816 H 0.81814 0.42147 0.87725 0.0
C1817 C 0.87029 0.47053 0.87018 0.0
C1818 C 0.84797 0.47682 0.88188 0.0
H1819 H 0.89103 0.44241 0.8515 0.0
H1820 H 0.885 0.48406 0.86827 0.0
C1821 C 0.82909 0.45899 0.88369 0.0
C1822 C 0.69701 0.8958 0.38263 0.0
C1823 C 0.68364 0.8743 0.37664 0.0
H1824 H 0.73142 0.91537 0.37927 0.0
C1825 C 0.69562 0.85491 0.36394 0.0
H1826 H 0.68819 0.91102 0.39234 0.0
C1827 C 0.72038 0.85735 0.35673 0.0
C1828 C 0.73335 0.87916 0.36213 0.0
H1829 H 0.68557 0.83844 0.35844 0.0
H1830 H 0.72898 0.84281 0.34585 0.0
C1831 C 0.72172 0.89819 0.37545 0.0
C1832 C 0.65182 0.51943 0.36426 0.0
C1833 C 0.63324 0.50785 0.37819 0.0
H1834 H 0.66351 0.55267 0.34594 0.0
C1835 C 0.61145 0.52069 0.38395 0.0
H1836 H 0.66895 0.50978 0.36012 0.0
C1837 C 0.60839 0.54517 0.37611 0.0
C1838 C 0.62708 0.55701 0.36235 0.0
H1839 H 0.59726 0.51209 0.39527 0.0
H1840 H 0.59185 0.55508 0.38168 0.0
C1841 C 0.64878 0.5439 0.35641 0.0
C1842 C 0.21721 0.58339 0.61612 0.0
C1843 C 0.23085 0.60332 0.62566 0.0
H1844 H 0.18244 0.571 0.60171 0.0
C1845 C 0.22002 0.62685 0.62714 0.0
H1846 H 0.2253 0.565 0.61523 0.0
C1847 C 0.19537 0.63026 0.6199 0.0
C1848 C 0.18143 0.6102 0.61072 0.0
H1849 H 0.23021 0.64226 0.63506 0.0
H1850 H 0.18703 0.64827 0.62268 0.0
C1851 C 0.19272 0.58681 0.60864 0.0
C1852 C 0.83468 0.54989 0.6204 0.0
C1853 C 0.85817 0.55774 0.62831 0.0
H1854 H 0.81292 0.52039 0.60544 0.0
C1855 C 0.87797 0.5407 0.62808 0.0
H1856 H 0.81894 0.56237 0.62084 0.0
C1857 C 0.87464 0.5168 0.61861 0.0
C1858 C 0.85131 0.50937 0.60995 0.0
H1859 H 0.89598 0.54565 0.63536 0.0
H1860 H 0.89033 0.50428 0.61773 0.0
C1861 C 0.83127 0.52592 0.61145 0.0
C1862 C 0.11057 0.97137 0.61056 0.0
C1863 C 0.13405 0.98218 0.61288 0.0
H1864 H 0.08918 0.93814 0.61376 0.0
C1865 C 0.15371 0.96838 0.62281 0.0
H1866 H 0.09538 0.98169 0.60238 0.0
C1867 C 0.15026 0.94364 0.62935 0.0
C1868 C 0.12706 0.93234 0.62613 0.0
H1869 H 0.17204 0.97644 0.6244 0.0
H1870 H 0.16593 0.93316 0.63631 0.0
C1871 C 0.10709 0.94652 0.61709 0.0
C1872 C 0.62842 0.77313 0.90559 0.0
C1873 C 0.62943 0.75629 0.88577 0.0
H1874 H 0.62034 0.81 0.91745 0.0
C1875 C 0.62112 0.76376 0.86231 0.0
H1876 H 0.63414 0.76763 0.92404 0.0
C1877 C 0.61237 0.78793 0.85867 0.0
C1878 C 0.61269 0.80523 0.87824 0.0
H1879 H 0.62167 0.75106 0.84676 0.0
H1880 H 0.60517 0.7928 0.84061 0.0
C1881 C 0.62036 0.79736 0.90183 0.0
C1882 C 0.01244 0.10963 0.37997 0.0
C1883 C 0.00147 0.11204 0.35656 0.0
H1884 H 0.04587 0.11246 0.40114 0.0
C1885 C 0.01522 0.1218 0.3368 0.0
H1886 H 0.00217 0.10157 0.39523 0.0
C1887 C 0.04005 0.12804 0.34008 0.0
C1888 C 0.05151 0.12468 0.3632 0.0
H1889 H 0.00704 0.12343 0.31851 0.0
H1890 H 0.05048 0.13482 0.32432 0.0
C1891 C 0.03738 0.11588 0.38328 0.0
C1892 C 0.37784 0.69872 0.89536 0.0
C1893 C 0.37463 0.68674 0.8725 0.0
H1894 H 0.37258 0.73206 0.91625 0.0
C1895 C 0.36547 0.70027 0.85215 0.0
H1896 H 0.3849 0.68873 0.91131 0.0
C1897 C 0.35862 0.72514 0.85497 0.0
C1898 C 0.36086 0.73661 0.87815 0.0
H1899 H 0.36222 0.69134 0.83448 0.0
H1900 H 0.35024 0.73491 0.83954 0.0
C1901 C 0.37106 0.72348 0.89814 0.0
C1902 C 0.94872 0.37096 0.3827 0.0
C1903 C 0.93461 0.36223 0.36254 0.0
H1904 H 0.98385 0.38542 0.39476 0.0
C1905 C 0.94601 0.35932 0.33935 0.0
H1906 H 0.94027 0.37405 0.40062 0.0
C1907 C 0.97077 0.36585 0.3361 0.0
C1908 C 0.9845 0.37547 0.35596 0.0
H1909 H 0.93558 0.35262 0.32353 0.0
H1910 H 0.97891 0.36447 0.31778 0.0
C1911 C 0.97359 0.37749 0.37941 0.0
C1912 C 0.62235 0.19846 0.63367 0.0
C1913 C 0.61315 0.18437 0.61373 0.0
H1914 H 0.63777 0.23335 0.64525 0.0
C1915 C 0.61039 0.19557 0.59042 0.0
H1916 H 0.62528 0.19012 0.65169 0.0
C1917 C 0.61752 0.22012 0.58684 0.0
C1918 C 0.62764 0.23383 0.60647 0.0
H1919 H 0.6033 0.18516 0.57477 0.0
H1920 H 0.61616 0.22812 0.56845 0.0
C1921 C 0.62952 0.22312 0.63005 0.0
C1922 C 0.44697 0.11623 0.60451 0.0
C1923 C 0.4344 0.12931 0.62326 0.0
H1924 H 0.48051 0.09745 0.59398 0.0
C1925 C 0.44695 0.13508 0.64533 0.0
H1926 H 0.43756 0.11082 0.58763 0.0
C1927 C 0.47134 0.12733 0.64891 0.0
C1928 C 0.48355 0.11371 0.63048 0.0
H1929 H 0.4377 0.14508 0.66009 0.0
H1930 H 0.48037 0.13107 0.66647 0.0
C1931 C 0.47146 0.10852 0.6081 0.0
C1932 C 0.35897 0.27678 0.58021 0.0
C1933 C 0.35815 0.25947 0.59962 0.0
H1934 H 0.36704 0.31391 0.56916 0.0
C1935 C 0.36663 0.26638 0.62319 0.0
H1936 H 0.35312 0.27173 0.56167 0.0
C1937 C 0.37545 0.29041 0.62733 0.0
C1938 C 0.37503 0.30816 0.60817 0.0
H1939 H 0.36622 0.25331 0.63845 0.0
H1940 H 0.38283 0.29482 0.64543 0.0
C1941 C 0.36711 0.3009 0.58447 0.0
C1942 C 0.51727 0.37803 0.61312 0.0
C1943 C 0.50833 0.3796 0.63742 0.0
H1944 H 0.54867 0.37152 0.58998 0.0
C1945 C 0.52375 0.37312 0.6573 0.0
H1946 H 0.50564 0.3834 0.59763 0.0
C1947 C 0.54815 0.36583 0.65301 0.0
C1948 C 0.55759 0.36499 0.62875 0.0
H1949 H 0.51708 0.37433 0.67622 0.0
H1950 H 0.55978 0.36129 0.66876 0.0
C1951 C 0.54185 0.37102 0.6088 0.0
C1952 C 0.86542 0.61971 0.7676 0.0
C1953 C 0.88841 0.6302 0.76158 0.0
H1954 H 0.84363 0.60154 0.79525 0.0
C1955 C 0.9074 0.63044 0.77939 0.0
H1956 H 0.85059 0.61911 0.75406 0.0
C1957 C 0.9032 0.6212 0.80313 0.0
C1958 C 0.87999 0.61138 0.80949 0.0
H1959 H 0.92557 0.63771 0.77496 0.0
H1960 H 0.91812 0.62191 0.81659 0.0
C1961 C 0.86131 0.61014 0.79132 0.0
C1962 C 0.87164 0.88329 0.44919 0.0
C1963 C 0.86219 0.86324 0.43542 0.0
H1964 H 0.88723 0.89521 0.4839 0.0
C1965 C 0.85905 0.84018 0.44702 0.0
H1966 H 0.87485 0.90111 0.44054 0.0
C1967 C 0.8661 0.83691 0.47164 0.0
C1968 C 0.87651 0.85661 0.48501 0.0
H1969 H 0.85177 0.82446 0.43685 0.0
H1970 H 0.86451 0.81867 0.47994 0.0
C1971 C 0.87874 0.87998 0.47392 0.0
C1972 C 0.08937 0.87836 0.79144 0.0
C1973 C 0.11216 0.87603 0.80378 0.0
H1974 H 0.06902 0.87178 0.75798 0.0
C1975 C 0.13281 0.86677 0.7908 0.0
H1976 H 0.07318 0.88542 0.801 0.0
C1977 C 0.13044 0.85921 0.7661 0.0
C1978 C 0.10741 0.86073 0.75425 0.0
H1979 H 0.15042 0.86406 0.80002 0.0
H1980 H 0.14618 0.85095 0.75674 0.0
C1981 C 0.08704 0.8708 0.76685 0.0
C1982 C 0.11387 0.60939 0.47196 0.0
C1983 C 0.10686 0.63308 0.48003 0.0
H1984 H 0.12962 0.58775 0.44279 0.0
C1985 C 0.10995 0.65341 0.46409 0.0
H1986 H 0.11165 0.59343 0.48396 0.0
C1987 C 0.11898 0.65006 0.44015 0.0
C1988 C 0.12546 0.62631 0.43168 0.0
H1989 H 0.10515 0.67198 0.47007 0.0
H1990 H 0.12069 0.66612 0.4282 0.0
C1991 C 0.1235 0.60608 0.4481 0.0
C1992 C 0.89713 0.38265 0.69582 0.0
C1993 C 0.87639 0.37585 0.68163 0.0
H1994 H 0.91613 0.37899 0.7306 0.0
C1995 C 0.85815 0.36053 0.69219 0.0
H1996 H 0.91149 0.39434 0.68804 0.0
C1997 C 0.86078 0.35194 0.71648 0.0
C1998 C 0.88163 0.35859 0.73041 0.0
H1999 H 0.84238 0.35438 0.68142 0.0
H2000 H 0.84702 0.33945 0.72409 0.0
C2001 C 0.8997 0.37412 0.72011 0.0
C2002 C 0.61477 0.87769 0.51349 0.0
C2003 C 0.60589 0.8546 0.50559 0.0
H2004 H 0.63131 0.89836 0.54291 0.0
C2005 C 0.60656 0.83438 0.52196 0.0
H2006 H 0.61453 0.89351 0.50111 0.0
C2007 C 0.6148 0.8374 0.54621 0.0
C2008 C 0.62298 0.86064 0.55453 0.0
H2009 H 0.60042 0.81618 0.51609 0.0
H2010 H 0.61454 0.82152 0.55852 0.0
C2011 C 0.6237 0.88058 0.53766 0.0
C2012 C 0.1303 0.1293 0.72239 0.0
C2013 C 0.10681 0.12732 0.73323 0.0
H2014 H 0.15177 0.12493 0.68935 0.0
C2015 C 0.0872 0.1169 0.71976 0.0
H2016 H 0.14547 0.1378 0.73246 0.0
C2017 C 0.09071 0.10947 0.69529 0.0
C2018 C 0.11394 0.11228 0.68393 0.0
H2019 H 0.06887 0.1155 0.72786 0.0
H2020 H 0.07508 0.10211 0.68504 0.0
C2021 C 0.13385 0.12188 0.6978 0.0
C2022 C 0.36089 0.61226 0.53855 0.0
C2023 C 0.36404 0.63079 0.55667 0.0
H2024 H 0.3679 0.601 0.50104 0.0
C2025 C 0.37461 0.65352 0.54978 0.0
H2026 H 0.35144 0.5951 0.54281 0.0
C2027 C 0.38291 0.65726 0.52565 0.0
C2028 C 0.38118 0.63823 0.50797 0.0
H2029 H 0.3767 0.6684 0.56313 0.0
H2030 H 0.39077 0.6751 0.52087 0.0
C2031 C 0.36973 0.61583 0.51446 0.0
C2032 C 0.79575 0.90177 0.614 0.0
C2033 C 0.80576 0.87772 0.61393 0.0
H2034 H 0.76397 0.92443 0.62138 0.0
C2035 C 0.79032 0.85752 0.61982 0.0
H2036 H 0.80716 0.91769 0.60956 0.0
C2037 C 0.76548 0.86141 0.62608 0.0
C2038 C 0.75596 0.88553 0.62695 0.0
H2039 H 0.79758 0.83887 0.62088 0.0
H2040 H 0.75412 0.84578 0.63154 0.0
C2041 C 0.77107 0.90564 0.62053 0.0
C2042 C 0.79018 0.1242 0.87818 0.0
C2043 C 0.80837 0.10569 0.87549 0.0
H2044 H 0.75267 0.1352 0.87069 0.0
C2045 C 0.80186 0.08296 0.86468 0.0
H2046 H 0.79429 0.14145 0.88757 0.0
C2047 C 0.77792 0.07915 0.8558 0.0
C2048 C 0.76008 0.09805 0.85741 0.0
H2049 H 0.81535 0.06818 0.86286 0.0
H2050 H 0.77338 0.06136 0.84768 0.0
C2051 C 0.76624 0.12048 0.869 0.0
C2052 C 0.37588 0.96968 0.37595 0.0
C2053 C 0.35177 0.97907 0.37771 0.0
H2054 H 0.3984 0.93793 0.36895 0.0
C2055 C 0.33157 0.96414 0.37116 0.0
H2056 H 0.3916 0.98094 0.3814 0.0
C2057 C 0.33537 0.93976 0.36352 0.0
C2058 C 0.35945 0.92989 0.36243 0.0
H2059 H 0.31279 0.97117 0.37258 0.0
H2060 H 0.3194 0.92848 0.35892 0.0
C2061 C 0.37971 0.94513 0.3686 0.0
C2062 C 0.18593 0.40518 0.86454 0.0
C2063 C 0.17915 0.38236 0.87499 0.0
H2064 H 0.2147 0.42677 0.84805 0.0
C2065 C 0.1972 0.3637 0.87766 0.0
H2066 H 0.17257 0.42008 0.86276 0.0
C2067 C 0.22125 0.36736 0.86875 0.0
C2068 C 0.22766 0.38988 0.85746 0.0
H2069 H 0.19288 0.34636 0.88679 0.0
H2070 H 0.23471 0.35253 0.87039 0.0
C2071 C 0.20997 0.40892 0.85594 0.0
C2072 C 0.10591 0.01687 0.87897 0.0
C2073 C 0.12925 0.00559 0.87787 0.0
H2074 H 0.08524 0.05037 0.87406 0.0
C2075 C 0.14955 0.01881 0.86848 0.0
H2076 H 0.09021 0.00701 0.88669 0.0
C2077 C 0.14679 0.04344 0.86118 0.0
C2078 C 0.12367 0.0552 0.86308 0.0
H2079 H 0.16777 0.01036 0.86777 0.0
H2080 H 0.1629 0.05346 0.85461 0.0
C2081 C 0.10313 0.04161 0.87169 0.0
C2082 C 0.71496 0.07913 0.11732 0.0
C2083 C 0.72957 0.09869 0.12612 0.0
H2084 H 0.67956 0.06791 0.10353 0.0
C2085 C 0.71986 0.12274 0.12692 0.0
H2086 H 0.72221 0.06038 0.11684 0.0
C2087 C 0.69531 0.12704 0.11983 0.0
C2088 C 0.68039 0.10738 0.11137 0.0
H2089 H 0.73084 0.13791 0.1342 0.0
H2090 H 0.68785 0.1455 0.12215 0.0
C2091 C 0.69059 0.08344 0.10992 0.0
C2092 C 0.33851 0.04277 0.13074 0.0
C2093 C 0.36107 0.0549 0.12617 0.0
H2094 H 0.31719 0.00961 0.12591 0.0
C2095 C 0.3804 0.04186 0.11447 0.0
H2096 H 0.3233 0.05237 0.13968 0.0
C2097 C 0.37696 0.01729 0.10694 0.0
C2098 C 0.35412 0.00564 0.11084 0.0
H2099 H 0.3977 0.05093 0.10996 0.0
H2100 H 0.39161 0.00786 0.09693 0.0
C2101 C 0.33507 0.01832 0.12312 0.0
C2102 C 0.64857 0.44375 0.13252 0.0
C2103 C 0.62707 0.43042 0.12639 0.0
H2104 H 0.66837 0.47807 0.129 0.0
C2105 C 0.60828 0.4421 0.11258 0.0
H2106 H 0.66336 0.4351 0.14303 0.0
C2107 C 0.61109 0.46664 0.10482 0.0
C2108 C 0.63271 0.47969 0.11072 0.0
H2109 H 0.59189 0.43204 0.10688 0.0
H2110 H 0.59687 0.47511 0.09342 0.0
C2111 C 0.65135 0.46826 0.12475 0.0
C2112 C 0.2607 0.11963 0.38016 0.0
C2113 C 0.25976 0.09508 0.38887 0.0
H2114 H 0.24076 0.15362 0.37487 0.0
C2115 C 0.23658 0.08453 0.39441 0.0
H2116 H 0.27827 0.12834 0.37587 0.0
C2117 C 0.21497 0.09888 0.39309 0.0
C2118 C 0.21639 0.12411 0.38683 0.0
H2119 H 0.23532 0.06562 0.40111 0.0
H2120 H 0.19758 0.09087 0.39915 0.0
C2121 C 0.23924 0.13413 0.37953 0.0
C2122 C 0.37049 0.47749 0.85547 0.0
C2123 C 0.34614 0.47842 0.8462 0.0
H2124 H 0.40435 0.49742 0.86147 0.0
C2125 C 0.3358 0.50158 0.84009 0.0
H2126 H 0.37902 0.45993 0.8602 0.0
C2127 C 0.35013 0.52318 0.84163 0.0
C2128 C 0.37515 0.52179 0.84865 0.0
H2129 H 0.31706 0.50283 0.83295 0.0
H2130 H 0.34228 0.54057 0.83528 0.0
C2131 C 0.385 0.49893 0.85627 0.0
C2132 C 0.74979 0.4027 0.39708 0.0
C2133 C 0.72666 0.39208 0.39137 0.0
H2134 H 0.78883 0.39653 0.40185 0.0
C2135 C 0.72586 0.36752 0.38266 0.0
H2136 H 0.75095 0.42161 0.40379 0.0
C2137 C 0.74739 0.35313 0.38204 0.0
C2138 C 0.7702 0.36327 0.38934 0.0
H2139 H 0.70835 0.35876 0.37825 0.0
H2140 H 0.74599 0.33366 0.37729 0.0
C2141 C 0.77147 0.38846 0.39577 0.0
C2142 C 0.61802 0.01023 0.85624 0.0
C2143 C 0.64185 0.00936 0.84574 0.0
H2144 H 0.58415 0.99056 0.86295 0.0
C2145 C 0.65156 0.98629 0.83833 0.0
H2146 H 0.60997 0.02769 0.86205 0.0
C2147 C 0.63695 0.96486 0.83962 0.0
C2148 C 0.6123 0.96634 0.8478 0.0
H2149 H 0.6699 0.98506 0.83026 0.0
H2150 H 0.64417 0.94767 0.83213 0.0
C2151 C 0.60323 0.98897 0.85687 0.0
C2152 C 0.24103 0.84965 0.10759 0.0
C2153 C 0.21773 0.85861 0.10025 0.0
H2154 H 0.27977 0.85714 0.11113 0.0
C2155 C 0.21512 0.88376 0.09407 0.0
H2156 H 0.24346 0.83024 0.11223 0.0
C2157 C 0.23604 0.89905 0.09266 0.0
C2158 C 0.25974 0.88949 0.09795 0.0
H2159 H 0.19736 0.89097 0.08799 0.0
H2160 H 0.23386 0.91787 0.08595 0.0
C2161 C 0.26181 0.86506 0.10684 0.0
C2162 C 0.14939 0.49797 0.1456 0.0
C2163 C 0.13908 0.47455 0.14058 0.0
H2164 H 0.14253 0.5369 0.15044 0.0
C2165 C 0.11414 0.47307 0.13317 0.0
H2166 H 0.16858 0.49964 0.15133 0.0
C2167 C 0.0992 0.49424 0.13321 0.0
C2168 C 0.10911 0.51736 0.13987 0.0
H2169 H 0.10562 0.4553 0.12934 0.0
H2170 H 0.07955 0.49232 0.12943 0.0
C2171 C 0.13456 0.5193 0.14492 0.0
C2172 C 0.74946 0.5856 0.09173 0.0
C2173 C 0.72619 0.59557 0.09801 0.0
H2174 H 0.78823 0.59282 0.0863 0.0
C2175 C 0.72497 0.61994 0.10722 0.0
H2176 H 0.75096 0.56686 0.08463 0.0
C2177 C 0.74614 0.63484 0.1077 0.0
C2178 C 0.76903 0.62541 0.09975 0.0
H2179 H 0.70736 0.62824 0.11209 0.0
H2180 H 0.74433 0.65419 0.11282 0.0
C2181 C 0.77081 0.60036 0.09288 0.0
C2182 C 0.88787 0.98839 0.12949 0.0
C2183 C 0.87878 0.96519 0.13701 0.0
H2184 H 0.88055 0.02715 0.12554 0.0
C2185 C 0.85358 0.96279 0.143 0.0
H2186 H 0.90732 0.99069 0.12503 0.0
C2187 C 0.83835 0.98382 0.14401 0.0
C2188 C 0.848 0.00742 0.13848 0.0
H2189 H 0.84625 0.94514 0.14922 0.0
H2190 H 0.81948 0.98182 0.15058 0.0
C2191 C 0.87252 0.00927 0.12987 0.0
C2192 C 0.37832 0.24113 0.13434 0.0
C2193 C 0.38649 0.21818 0.12522 0.0
H2194 H 0.37464 0.28003 0.12768 0.0
C2195 C 0.39426 0.21637 0.10045 0.0
H2196 H 0.37252 0.24295 0.15349 0.0
C2197 C 0.39628 0.23775 0.08584 0.0
C2198 C 0.39003 0.2611 0.09566 0.0
H2199 H 0.40103 0.19891 0.09317 0.0
H2200 H 0.40415 0.2362 0.06742 0.0
C2201 C 0.37969 0.26235 0.11956 0.0
C2202 C 0.48924 0.33926 0.15024 0.0
C2203 C 0.51258 0.34525 0.14028 0.0
H2204 H 0.45034 0.33477 0.14312 0.0
C2205 C 0.51386 0.35502 0.11614 0.0
H2206 H 0.4877 0.3318 0.16884 0.0
C2207 C 0.49261 0.35625 0.10137 0.0
C2208 C 0.46961 0.34854 0.11074 0.0
H2209 H 0.53155 0.3598 0.10793 0.0
H2210 H 0.4944 0.36174 0.08212 0.0
C2211 C 0.46784 0.34118 0.13564 0.0
C2212 C 0.59293 0.24866 0.08699 0.0
C2213 C 0.59866 0.22515 0.09676 0.0
H2214 H 0.58843 0.28748 0.09454 0.0
C2215 C 0.60834 0.22354 0.12092 0.0
H2216 H 0.58556 0.25047 0.06838 0.0
C2217 C 0.60954 0.24461 0.13594 0.0
C2218 C 0.60187 0.26774 0.12681 0.0
H2219 H 0.61296 0.20572 0.129 0.0
H2220 H 0.61483 0.24253 0.15523 0.0
C2221 C 0.5948 0.26987 0.10185 0.0
C2222 C 0.47422 0.13137 0.11514 0.0
C2223 C 0.47547 0.14078 0.13942 0.0
H2224 H 0.49372 0.12524 0.08106 0.0
C2225 C 0.49877 0.14667 0.14954 0.0
H2226 H 0.45655 0.12669 0.10681 0.0
C2227 C 0.52017 0.14503 0.13496 0.0
C2228 C 0.51843 0.13807 0.10994 0.0
H2229 H 0.50027 0.15385 0.16824 0.0
H2230 H 0.53766 0.15135 0.14257 0.0
C2231 C 0.49547 0.13044 0.1004 0.0
C2232 C 0.38442 0.72333 0.36265 0.0
C2233 C 0.39215 0.72492 0.38749 0.0
H2234 H 0.37989 0.74256 0.32813 0.0
C2235 C 0.39708 0.74837 0.39775 0.0
H2236 H 0.38066 0.7055 0.35419 0.0
C2237 C 0.39584 0.76968 0.38297 0.0
C2238 C 0.39039 0.7677 0.35759 0.0
H2239 H 0.40306 0.75009 0.41686 0.0
H2240 H 0.40118 0.78737 0.39089 0.0
C2241 C 0.38397 0.7445 0.34772 0.0
C2242 C 0.97482 0.36046 0.86794 0.0
C2243 C 0.97603 0.34953 0.8443 0.0
H2244 H -0.00593 0.36808 0.90185 0.0
C2245 C -0.00064 0.34275 0.83477 0.0
H2246 H 0.95722 0.36587 0.87589 0.0
C2247 C 0.02066 0.34472 0.84951 0.0
C2248 C 0.0188 0.35303 0.87411 0.0
H2249 H 0.00091 0.33442 0.81655 0.0
H2250 H 0.03803 0.33743 0.84255 0.0
C2251 C -0.00405 0.36186 0.88283 0.0
C2252 C 0.58865 0.73969 0.40002 0.0
C2253 C 0.5956 0.76271 0.38991 0.0
H2254 H 0.58339 0.70081 0.39332 0.0
C2255 C 0.60652 0.76333 0.36625 0.0
H2256 H 0.58033 0.73864 0.41828 0.0
C2257 C 0.60787 0.7418 0.35193 0.0
C2258 C 0.59911 0.71918 0.36132 0.0
H2259 H 0.6121 0.78075 0.35795 0.0
H2260 H 0.61417 0.74312 0.3329 0.0
C2261 C 0.59065 0.71801 0.38588 0.0
C2262 C 0.96603 0.14243 0.85227 0.0
C2263 C 0.96823 0.13523 0.87719 0.0
H2264 H 0.98533 0.15175 0.8188 0.0
C2265 C 0.99131 0.12724 0.88615 0.0
H2266 H 0.94845 0.14901 0.84508 0.0
C2267 C 0.01231 0.12842 0.87109 0.0
C2268 C 0.01069 0.13836 0.84703 0.0
H2269 H 0.99343 0.12182 0.90539 0.0
H2270 H 0.03011 0.12361 0.87908 0.0
C2271 C 0.98718 0.14424 0.83734 0.0
C2272 C 0.08905 0.3921 0.23703 0.0
C2273 C 0.09939 0.38697 0.26043 0.0
H2274 H 0.09581 0.39656 0.19808 0.0
C2275 C 0.124 0.37847 0.26179 0.0
H2276 H 0.07009 0.39856 0.23543 0.0
C2277 C 0.13876 0.3778 0.24053 0.0
C2278 C 0.12896 0.38483 0.21747 0.0
H2279 H 0.13251 0.37437 0.27952 0.0
H2280 H 0.15828 0.37337 0.24236 0.0
C2281 C 0.10368 0.39073 0.21564 0.0
C2282 C 0.13613 0.60868 0.24746 0.0
C2283 C 0.12715 0.60051 0.27047 0.0
H2284 H 0.12914 0.61262 0.20866 0.0
C2285 C 0.10223 0.5933 0.2725 0.0
H2286 H 0.15538 0.61407 0.24543 0.0
C2287 C 0.08732 0.59177 0.25128 0.0
C2288 C 0.09699 0.59792 0.22783 0.0
H2289 H 0.09502 0.58653 0.28999 0.0
H2290 H 0.06876 0.58428 0.25299 0.0
C2291 C 0.12108 0.60775 0.22638 0.0
C2292 C 0.84038 0.64921 0.98796 0.0
C2293 C 0.84726 0.63958 0.01122 0.0
H2294 H 0.83436 0.64149 0.94937 0.0
C2295 C 0.85746 0.6156 0.01243 0.0
H2296 H 0.83259 0.66768 0.98643 0.0
C2297 C 0.85805 0.60057 0.99134 0.0
C2298 C 0.84922 0.60951 0.96855 0.0
H2299 H 0.86297 0.60763 0.03004 0.0
H2300 H 0.86377 0.58139 0.99321 0.0
C2301 C 0.84161 0.63434 0.9667 0.0
C2302 C 0.90122 0.8961 0.25194 0.0
C2303 C 0.89118 0.8901 0.22863 0.0
H2304 H 0.89414 0.90106 0.29079 0.0
C2305 C 0.86674 0.88116 0.2273 0.0
H2306 H 0.92002 0.90298 0.25349 0.0
C2307 C 0.85187 0.8806 0.24848 0.0
C2308 C 0.86142 0.88814 0.27147 0.0
H2309 H 0.85845 0.87653 0.2096 0.0
H2310 H 0.83249 0.87563 0.24665 0.0
C2311 C 0.88651 0.8948 0.27329 0.0
C2312 C 0.64218 0.35366 0.4662 0.0
C2313 C 0.63644 0.37896 0.46831 0.0
H2314 H 0.64988 0.3198 0.48561 0.0
C2315 C 0.62941 0.38851 0.49148 0.0
H2316 H 0.64796 0.34598 0.44855 0.0
C2317 C 0.63004 0.37349 0.51258 0.0
C2318 C 0.63847 0.34887 0.51096 0.0
H2319 H 0.62505 0.40802 0.49353 0.0
H2320 H 0.62602 0.38183 0.53041 0.0
C2321 C 0.64348 0.33877 0.48743 0.0
C2322 C 0.39873 0.59452 0.73722 0.0
C2323 C 0.38842 0.59989 0.76056 0.0
H2324 H 0.3919 0.58953 0.69833 0.0
C2325 C 0.36373 0.60819 0.76183 0.0
H2326 H 0.41774 0.58819 0.73568 0.0
C2327 C 0.3489 0.60844 0.74059 0.0
C2328 C 0.35871 0.60122 0.71761 0.0
H2329 H 0.35522 0.61246 0.77951 0.0
H2330 H 0.32936 0.61278 0.74239 0.0
C2331 C 0.38403 0.59548 0.71583 0.0
C2332 C 0.84761 0.35482 0.52127 0.0
C2333 C 0.85359 0.38006 0.51914 0.0
H2334 H 0.83935 0.32111 0.50187 0.0
C2335 C 0.86053 0.38958 0.49595 0.0
H2336 H 0.84185 0.34719 0.53894 0.0
C2337 C 0.85956 0.37461 0.47484 0.0
C2338 C 0.85083 0.3501 0.47649 0.0
H2339 H 0.865 0.40906 0.49389 0.0
H2340 H 0.86351 0.38294 0.45699 0.0
C2341 C 0.84596 0.33999 0.50003 0.0
C2342 C 0.14338 0.13355 0.52135 0.0
C2343 C 0.13882 0.10796 0.52006 0.0
H2344 H 0.14938 0.1671 0.50083 0.0
C2345 C 0.13241 0.0973 0.4972 0.0
H2346 H 0.14867 0.14208 0.53876 0.0
C2347 C 0.13226 0.11165 0.47563 0.0
C2348 C 0.13933 0.13672 0.47649 0.0
H2349 H 0.12898 0.07755 0.4958 0.0
H2350 H 0.12865 0.10259 0.45807 0.0
C2351 C 0.14396 0.14779 0.49965 0.0
C2352 C 0.76027 0.61874 0.8805 0.0
C2353 C 0.75925 0.59488 0.89098 0.0
H2354 H 0.74067 0.65262 0.87346 0.0
C2355 C 0.73606 0.5851 0.89778 0.0
H2356 H 0.77783 0.62684 0.87513 0.0
C2357 C 0.71462 0.59968 0.89604 0.0
C2358 C 0.71621 0.62439 0.88801 0.0
H2359 H 0.73471 0.56673 0.90581 0.0
H2360 H 0.69731 0.59242 0.90319 0.0
C2361 C 0.73899 0.63349 0.87941 0.0
C2362 C 0.83522 -0.00018 0.34369 0.0
C2363 C 0.84598 0.97671 0.34925 0.0
H2364 H 0.84123 0.03885 0.33876 0.0
C2365 C 0.87057 0.97597 0.35791 0.0
H2366 H 0.81628 0.00095 0.33708 0.0
C2367 C 0.8849 -0.00248 0.35837 0.0
C2368 C 0.87467 0.02029 0.35098 0.0
H2369 H 0.87941 0.95847 0.36233 0.0
H2370 H 0.90441 -0.00384 0.36298 0.0
C2371 C 0.84941 0.02152 0.34485 0.0
C2372 C 0.24403 0.85227 0.87935 0.0
C2373 C 0.26707 0.8625 0.88573 0.0
H2374 H 0.20487 0.85786 0.87691 0.0
C2375 C 0.26859 0.88781 0.89164 0.0
H2376 H 0.24246 0.83273 0.87492 0.0
C2377 C 0.24699 0.90206 0.89359 0.0
C2378 C 0.22368 0.89131 0.88902 0.0
H2379 H 0.28616 0.89598 0.89696 0.0
H2380 H 0.24839 0.92105 0.9 0.0
C2381 C 0.22255 0.86667 0.88057 0.0
C2382 C 0.10276 0.48885 0.35605 0.0
C2383 C 0.11264 0.46603 0.34839 0.0
H2384 H 0.10868 0.52785 0.36003 0.0
C2385 C 0.13768 0.46466 0.34146 0.0
H2386 H 0.0834 0.49033 0.36118 0.0
C2387 C 0.15199 0.48628 0.34001 0.0
C2388 C 0.1416 0.50942 0.34609 0.0
H2389 H 0.14555 0.4473 0.33509 0.0
H2390 H 0.17074 0.48506 0.3329 0.0
C2391 C 0.11725 0.51031 0.35532 0.0
C2392 C 0.73947 0.40065 0.59019 0.0
C2393 C 0.76289 0.39016 0.59482 0.0
H2394 H 0.7004 0.39415 0.58645 0.0
C2395 C 0.76436 0.36528 0.60246 0.0
H2396 H 0.73783 0.41981 0.58435 0.0
C2397 C 0.74308 0.35054 0.60309 0.0
C2398 C 0.7199 0.36065 0.59694 0.0
H2399 H 0.78216 0.35667 0.60609 0.0
H2400 H 0.74491 0.33092 0.60708 0.0
C2401 C 0.71806 0.38606 0.59159 0.0
C2402 C 0.61321 0.976 0.63369 0.0
C2403 C 0.63819 0.97702 0.64104 0.0
H2404 H 0.57899 -0.00408 0.62991 0.0
C2405 C 0.64895 0.00025 0.64604 0.0
H2406 H 0.60436 0.95837 0.62989 0.0
C2407 C 0.63454 0.02185 0.64528 0.0
C2408 C 0.60905 0.02041 0.64021 0.0
H2409 H 0.66817 0.00155 0.65172 0.0
H2410 H 0.64286 0.03932 0.65069 0.0
C2411 C 0.59867 -0.00254 0.63369 0.0
C2412 C 0.25193 0.08839 0.59346 0.0
C2413 C 0.22847 0.09846 0.59883 0.0
H2414 H 0.2907 0.09566 0.58827 0.0
C2415 C 0.22692 0.12312 0.60714 0.0
H2416 H 0.25369 0.0694 0.58714 0.0
C2417 C 0.24799 0.13818 0.60734 0.0
C2418 C 0.27106 0.12864 0.60001 0.0
H2419 H 0.20914 0.13144 0.61143 0.0
H2420 H 0.24595 0.15772 0.6116 0.0
C2421 C 0.27314 0.10333 0.59433 0.0
C2422 C 0.38815 0.49175 0.63274 0.0
C2423 C 0.37843 0.46872 0.63996 0.0
H2424 H 0.38159 0.53062 0.62837 0.0
C2425 C 0.35306 0.46682 0.64544 0.0
H2426 H 0.40773 0.49366 0.62866 0.0
C2427 C 0.33819 0.48813 0.64601 0.0
C2428 C 0.34837 0.51151 0.64049 0.0
H2429 H 0.34525 0.4493 0.65141 0.0
H2430 H 0.31912 0.4865 0.65209 0.0
C2431 C 0.37316 0.5129 0.63261 0.0
C2432 C 0.89213 0.71661 0.60541 0.0
C2433 C 0.88632 0.71879 0.63068 0.0
H2434 H 0.89985 0.73593 0.57153 0.0
C2435 C 0.87919 0.74198 0.64011 0.0
H2436 H 0.89803 0.69896 0.59782 0.0
C2437 C 0.8798 0.76304 0.62504 0.0
C2438 C 0.88831 0.76137 0.60046 0.0
H2439 H 0.87484 0.7441 0.65962 0.0
H2440 H 0.87571 0.7809 0.63331 0.0
C2441 C 0.89339 0.7378 0.59045 0.0
C2442 C 0.9897 0.84222 0.65078 0.0
C2443 C 0.01293 0.84669 0.63983 0.0
H2444 H 0.95053 0.8383 0.64496 0.0
C2445 C 0.0139 0.85419 0.61488 0.0
H2446 H 0.98842 0.83649 0.67 0.0
C2447 C 0.99235 0.85466 0.60051 0.0
C2448 C 0.9694 0.84848 0.61104 0.0
H2449 H 0.03152 0.8577 0.6059 0.0
H2450 H -0.00618 0.85844 0.58083 0.0
C2451 C 0.96803 0.84343 0.63654 0.0
C2452 C 0.10752 0.74503 0.636 0.0
C2453 C 0.10059 0.7682 0.62641 0.0
H2454 H 0.11036 0.706 0.62957 0.0
C2455 C 0.09394 0.77013 0.60131 0.0
H2456 H 0.11248 0.74312 0.65538 0.0
C2457 C 0.0919 0.74877 0.58668 0.0
C2458 C 0.09712 0.7253 0.59681 0.0
H2459 H 0.08816 0.78778 0.59363 0.0
H2460 H 0.08497 0.75047 0.56789 0.0
C2461 C 0.10621 0.7238 0.62121 0.0
C2462 C 0.02089 0.64477 0.63626 0.0
C2463 C 0.01857 0.63774 0.6113 0.0
H2464 H 0.00177 0.65385 0.66995 0.0
C2465 C -0.00468 0.63037 0.60227 0.0
H2466 H 0.03859 0.65094 0.64349 0.0
C2467 C 0.97439 0.63156 0.61745 0.0
C2468 C 0.97623 0.64094 0.64171 0.0
H2469 H 0.9931 0.62518 0.58298 0.0
H2470 H 0.95651 0.6271 0.60948 0.0
C2471 C -0.0002 0.64666 0.65129 0.0
C2472 C 0.89664 0.27 0.8846 0.0
C2473 C 0.88978 0.26815 0.85956 0.0
H2474 H 0.90507 0.25026 0.91813 0.0
C2475 C 0.88216 0.24513 0.85013 0.0
H2476 H 0.90295 0.28752 0.89214 0.0
C2477 C 0.88284 0.22396 0.86506 0.0
C2478 C 0.89195 0.22533 0.88945 0.0
H2479 H 0.87704 0.24327 0.83079 0.0
H2480 H 0.87814 0.20625 0.85684 0.0
C2481 C 0.89803 0.24868 0.89937 0.0
C2482 C 0.49972 0.84386 0.33399 0.0
C2483 C 0.47631 0.84985 0.34384 0.0
H2484 H 0.53856 0.83917 0.34138 0.0
C2485 C 0.47498 0.86007 0.36779 0.0
H2486 H 0.50136 0.83611 0.31553 0.0
C2487 C 0.49619 0.86146 0.3826 0.0
C2488 C 0.51918 0.85338 0.3735 0.0
H2489 H 0.45728 0.86495 0.37591 0.0
H2490 H 0.4943 0.86711 0.4018 0.0
C2491 C 0.52107 0.84585 0.34867 0.0
C2492 C 0.1038 0.26384 0.86442 0.0
C2493 C 0.09497 0.26299 0.88893 0.0
H2494 H 0.10941 0.24371 0.8306 0.0
C2495 C 0.0893 0.23985 0.89953 0.0
H2496 H 0.10817 0.2814 0.85571 0.0
C2497 C 0.09081 0.21816 0.88533 0.0
C2498 C 0.09735 0.21945 0.86017 0.0
H2499 H 0.08249 0.23868 0.91839 0.0
H2500 H 0.0848 0.20077 0.8934 0.0
C2501 C 0.10456 0.2423 0.85005 0.0
C2502 C 0.4879 0.64574 0.33665 0.0
C2503 C 0.51128 0.63944 0.34636 0.0
H2504 H 0.44913 0.65044 0.34417 0.0
C2505 C 0.51264 0.6287 0.37009 0.0
H2506 H 0.48627 0.65387 0.31835 0.0
C2507 C 0.49148 0.62711 0.38491 0.0
C2508 C 0.46852 0.63547 0.37598 0.0
H2509 H 0.53035 0.62357 0.37809 0.0
H2510 H 0.49339 0.62111 0.404 0.0
C2511 C 0.4666 0.64351 0.3513 0.0
C2512 C 0.58685 0.89373 0.73604 0.0
C2513 C 0.59698 0.88788 0.75936 0.0
H2514 H 0.59389 0.89892 0.69723 0.0
C2515 C 0.62135 0.87871 0.76061 0.0
H2516 H 0.56808 0.90076 0.73453 0.0
C2517 C 0.63617 0.87812 0.7394 0.0
C2518 C 0.62665 0.88594 0.71647 0.0
H2519 H 0.62973 0.87414 0.77828 0.0
H2520 H 0.65558 0.87323 0.74121 0.0
C2521 C 0.60152 0.89247 0.71467 0.0
C2522 C 0.58748 0.09342 0.75176 0.0
C2523 C 0.5971 0.10003 0.72842 0.0
H2524 H 0.59533 0.08726 0.7903 0.0
C2525 C 0.62123 0.10981 0.72709 0.0
H2526 H 0.5689 0.08599 0.7534 0.0
C2527 C 0.63638 0.11016 0.7481 0.0
C2528 C 0.62745 0.10147 0.77093 0.0
H2529 H 0.62919 0.11516 0.70944 0.0
H2530 H 0.65564 0.11552 0.74612 0.0
C2531 C 0.60251 0.09438 0.77293 0.0
C2532 C 0.357 0.10079 0.48935 0.0
C2533 C 0.34902 0.10988 0.46631 0.0
H2534 H 0.36133 0.10795 0.52811 0.0
C2535 C 0.34202 0.13487 0.46421 0.0
H2536 H 0.36224 0.08149 0.4914 0.0
C2537 C 0.34069 0.14986 0.48536 0.0
C2538 C 0.34694 0.1402 0.50878 0.0
H2539 H 0.33542 0.14215 0.44667 0.0
H2540 H 0.33348 0.16854 0.4836 0.0
C2541 C 0.35638 0.11594 0.51035 0.0
C2542 C 0.38537 0.39405 0.77336 0.0
C2543 C 0.36046 0.38684 0.77121 0.0
H2544 H 0.41893 0.40295 0.754 0.0
C2545 C 0.3516 0.37847 0.74821 0.0
H2546 H 0.39248 0.40095 0.79084 0.0
C2547 C 0.36676 0.37924 0.72724 0.0
C2548 C 0.39084 0.38909 0.72878 0.0
H2549 H 0.33236 0.37308 0.7461 0.0
H2550 H 0.35881 0.37423 0.70949 0.0
C2551 C 0.40039 0.39543 0.75223 0.0
C2552 C 0.14326 0.85112 0.96599 0.0
C2553 C 0.13644 0.87616 0.96812 0.0
H2554 H 0.15233 0.81756 0.98538 0.0
C2555 C 0.12943 0.8855 0.99137 0.0
H2556 H 0.14913 0.84366 0.94829 0.0
C2557 C 0.13074 0.8705 0.01246 0.0
C2558 C 0.1399 0.84615 0.01075 0.0
H2559 H 0.1244 0.90485 0.99344 0.0
H2560 H 0.12656 0.87866 0.03032 0.0
C2561 C 0.14529 0.83629 0.98722 0.0
C2562 C 0.88226 0.09248 0.21625 0.0
C2563 C 0.85667 0.09695 0.21776 0.0
H2564 H 0.91606 0.08687 0.23647 0.0
C2565 C 0.84625 0.10362 0.24065 0.0
H2566 H 0.89062 0.087 0.19883 0.0
C2567 C 0.86085 0.1041 0.26206 0.0
C2568 C 0.88593 0.0971 0.26103 0.0
H2569 H 0.82651 0.10698 0.24223 0.0
H2570 H 0.85197 0.10789 0.27967 0.0
C2571 C 0.89675 0.09224 0.2378 0.0
C2572 C 0.34322 0.85476 0.01845 0.0
C2573 C 0.34725 0.88044 0.01701 0.0
H2574 H 0.33737 0.82103 -0.00183 0.0
C2575 C 0.35272 0.89117 -0.00605 0.0
H2576 H 0.33865 0.84615 0.03602 0.0
C2577 C 0.35258 0.87677 0.97241 0.0
C2578 C 0.34611 0.85154 0.9735 0.0
H2579 H 0.35573 0.91098 0.99241 0.0
H2580 H 0.35551 0.88586 0.95474 0.0
C2581 C 0.34233 0.84046 -0.0032 0.0
C2582 C 0.64609 0.64858 0.00108 0.0
C2583 C 0.63978 0.63872 0.97777 0.0
H2584 H 0.65126 0.64125 0.03986 0.0
C2585 C 0.63007 0.61456 0.97649 0.0
H2586 H 0.65351 0.66719 0.00263 0.0
C2587 C 0.62926 0.59965 -0.00235 0.0
C2588 C 0.63735 0.60891 0.02058 0.0
H2589 H 0.62504 0.60643 0.95882 0.0
H2590 H 0.62382 0.5804 -0.00418 0.0
C2591 C 0.64459 0.63384 0.02241 0.0
C2592 C 0.21833 0.22984 0.50238 0.0
C2593 C 0.22079 0.22721 0.47663 0.0
H2594 H 0.23712 0.23004 0.53727 0.0
C2595 C 0.24441 0.22924 0.46581 0.0
H2596 H 0.20032 0.22879 0.5112 0.0
C2597 C 0.2655 0.23005 0.48074 0.0
C2598 C 0.2631 0.22867 0.50659 0.0
H2599 H 0.24674 0.22787 0.4459 0.0
H2600 H 0.28354 0.22909 0.47198 0.0
C2601 C 0.23942 0.23049 0.51731 0.0
C2602 C 0.4817 0.51885 0.73536 0.0
C2603 C 0.47901 0.51693 0.76115 0.0
H2604 H 0.48137 0.49941 0.70085 0.0
C2605 C 0.48052 0.49346 0.77243 0.0
H2606 H 0.48107 0.53672 0.72619 0.0
C2607 C 0.48074 0.47207 0.75791 0.0
C2608 C 0.47933 0.47403 0.73203 0.0
H2609 H 0.47911 0.49152 0.79238 0.0
H2610 H 0.47932 0.45421 0.76701 0.0
C2611 C 0.48179 0.49746 0.72085 0.0
C2612 C 0.72054 0.25846 0.48148 0.0
C2613 C 0.72234 0.25953 0.5074 0.0
H2614 H 0.74011 0.26071 0.44714 0.0
C2615 C 0.74576 0.25723 0.51866 0.0
H2616 H 0.70272 0.25976 0.47229 0.0
C2617 C 0.7672 0.25778 0.50426 0.0
C2618 C 0.76538 0.26073 0.47849 0.0
H2619 H 0.74761 0.2574 0.53867 0.0
H2620 H 0.78502 0.25848 0.51353 0.0
C2621 C 0.74198 0.25912 0.46708 0.0
C2622 C 0.50613 0.01923 0.75514 0.0
C2623 C 0.50727 0.01745 0.72923 0.0
H2624 H 0.50861 -0.00034 0.7895 0.0
C2625 C 0.50525 -0.006 0.71797 0.0
H2626 H 0.50721 0.03707 0.76433 0.0
C2627 C 0.50604 0.97255 0.73239 0.0
C2628 C 0.50896 0.97442 0.75815 0.0
H2629 H 0.5055 0.99216 0.69796 0.0
H2630 H 0.50699 0.95474 0.72315 0.0
C2631 C 0.50706 -0.00221 0.76955 0.0
C2632 C 0.24891 0.75657 0.01656 0.0
C2633 C 0.22497 0.75833 0.00638 0.0
H2634 H 0.28783 0.75824 0.00953 0.0
C2635 C 0.22192 0.75669 0.98061 0.0
H2636 H 0.2517 0.75719 0.03645 0.0
C2637 C 0.24263 0.75736 0.96519 0.0
C2638 C 0.26651 0.75954 0.97544 0.0
H2639 H 0.20365 0.75759 0.97228 0.0
H2640 H 0.2398 0.75859 0.94533 0.0
C2641 C 0.26962 0.75709 0.00114 0.0
C2642 C 0.00589 0.46891 0.23432 0.0
C2643 C 0.00895 0.47087 0.26007 0.0
H2644 H 0.00561 0.48832 0.1998 0.0
C2645 C 0.00738 0.49433 0.27134 0.0
H2646 H 0.00653 0.45103 0.22517 0.0
C2647 C 0.00681 0.51571 0.25682 0.0
C2648 C 0.00792 0.51373 0.23092 0.0
H2649 H 0.00904 0.4963 0.29127 0.0
H2650 H 0.00825 0.53358 0.26589 0.0
C2651 C 0.00543 0.49028 0.2198 0.0
C2652 C 0.7201 0.73053 0.00421 0.0
C2653 C 0.72313 0.72785 0.97852 0.0
H2654 H 0.73807 0.7303 0.03952 0.0
C2655 C 0.74702 0.7295 0.96825 0.0
H2656 H 0.70186 0.72975 0.01259 0.0
C2657 C 0.76776 0.72993 0.98367 0.0
C2658 C 0.76472 0.72852 0.00945 0.0
H2659 H 0.74978 0.72808 0.9484 0.0
H2660 H 0.78598 0.72864 0.97533 0.0
C2661 C 0.74084 0.73077 0.01962 0.0
C2662 C 0.97979 0.01909 0.23483 0.0
C2663 C 0.97723 0.01654 0.26058 0.0
H2664 H 0.98002 0.00042 0.19989 0.0
C2665 C 0.97939 0.99287 0.27133 0.0
H2666 H 0.97865 0.03714 0.22606 0.0
C2667 C 0.98027 0.97183 0.25634 0.0
C2668 C 0.97883 0.97431 0.2305 0.0
H2669 H 0.97807 0.99046 0.29123 0.0
H2670 H 0.97941 0.95374 0.26505 0.0
C2671 C 0.98051 -0.00195 0.21984 0.0
C2672 C 0.50316 0.21878 0.23101 0.0
C2673 C 0.47755 0.22267 0.22869 0.0
H2674 H 0.539 0.23559 0.23039 0.0
C2675 C 0.46806 0.24688 0.23057 0.0
H2676 H 0.51095 0.20028 0.23003 0.0
C2677 C 0.48412 0.26711 0.2309 0.0
C2678 C 0.50977 0.26323 0.22914 0.0
H2679 H 0.44829 0.25029 0.22942 0.0
H2680 H 0.47634 0.28561 0.22982 0.0
C2681 C 0.51922 0.23901 0.23114 0.0
C2682 C 0.47087 0.23386 0.00461 0.0
C2683 C 0.47388 0.25958 0.00691 0.0
H2684 H 0.48883 0.19854 0.00555 0.0
C2685 C 0.49779 0.26982 0.00527 0.0
H2686 H 0.45263 0.22548 0.00538 0.0
C2687 C 0.51853 0.2544 0.0053 0.0
C2688 C 0.51547 0.22864 0.00712 0.0
H2689 H 0.50055 0.28969 0.00641 0.0
H2690 H 0.53675 0.26275 0.00661 0.0
C2691 C 0.49161 0.21843 0.00479 0.0
C2692 C 0.48415 0.72175 0.25385 0.0
C2693 C 0.5098 0.72449 0.25702 0.0
H2694 H 0.44909 0.74017 0.2531 0.0
C2695 C 0.52041 0.74823 0.25518 0.0
H2696 H 0.47553 0.70363 0.25473 0.0
C2697 C 0.50529 0.76917 0.25415 0.0
C2698 C 0.47945 0.76649 0.25515 0.0
H2699 H 0.54026 0.75077 0.25694 0.0
H2700 H 0.51385 0.7873 0.25536 0.0
C2701 C 0.46902 0.74269 0.25297 0.0
C2702 C 0.01723 0.23585 0.98063 0.0
C2703 C 0.01298 0.26136 0.97788 0.0
H2704 H 0.00089 0.19976 0.98059 0.0
C2705 C 0.98867 0.27057 0.97969 0.0
H2706 H 0.03582 0.22829 0.97972 0.0
C2707 C 0.96867 0.25425 0.98033 0.0
C2708 C 0.97289 0.22863 0.97894 0.0
H2709 H 0.98499 0.29028 0.97822 0.0
H2710 H 0.95007 0.26176 0.97914 0.0
C2711 C -0.00278 0.21952 0.98106 0.0
C2712 C 0.23222 0.46756 0.24471 0.0
C2713 C 0.22976 0.47766 0.2208 0.0
H2714 H 0.2316 0.47474 0.28367 0.0
C2715 C 0.23121 0.50344 0.21764 0.0
H2716 H 0.23174 0.44768 0.24758 0.0
C2717 C 0.23105 0.51893 0.23832 0.0
C2718 C 0.22962 0.50875 0.26228 0.0
H2719 H 0.2298 0.51172 0.19939 0.0
H2720 H 0.22969 0.53878 0.23548 0.0
C2721 C 0.23222 0.48306 0.26539 0.0
C2722 C 0.7169 0.50311 0.99267 0.0
C2723 C 0.72706 0.50515 0.0166 0.0
H2724 H 0.72401 0.50449 0.95372 0.0
C2725 C 0.75281 0.50344 0.01972 0.0
H2726 H 0.69702 0.50379 0.98985 0.0
C2727 C 0.76825 0.50394 -0.00098 0.0
C2728 C 0.75802 0.50594 0.97513 0.0
H2729 H 0.76113 0.50453 0.03797 0.0
H2730 H 0.7881 0.5052 0.00185 0.0
C2731 C 0.73235 0.50343 0.97197 0.0
C2732 C 0.75443 0.01484 0.24474 0.0
C2733 C 0.75737 0.00344 0.22148 0.0
H2734 H 0.75449 0.00991 0.28405 0.0
C2735 C 0.75614 0.97752 0.21977 0.0
H2736 H 0.75468 0.03486 0.24648 0.0
C2737 C 0.75605 0.96322 0.24131 0.0
C2738 C 0.75709 0.97474 0.26469 0.0
H2739 H 0.75791 0.96824 0.20205 0.0
H2740 H 0.7576 0.94326 0.23961 0.0
C2741 C 0.75423 0.00055 0.26627 0.0
C2742 C 0.75368 0.48297 0.46965 0.0
C2743 C 0.72798 0.481 0.47303 0.0
H2744 H 0.78924 0.48177 0.48707 0.0
C2745 C 0.71813 0.48272 0.4971 0.0
H2746 H 0.76177 0.48212 0.45128 0.0
C2747 C 0.73386 0.4826 0.51761 0.0
C2748 C 0.75956 0.48059 0.51419 0.0
H2749 H 0.6983 0.48182 0.50017 0.0
H2750 H 0.72577 0.48147 0.53596 0.0
C2751 C 0.76941 0.48268 0.49015 0.0
C2752 C 0.25458 0.51931 0.74434 0.0
C2753 C 0.25717 0.50903 0.72052 0.0
H2754 H 0.25523 0.51245 0.78336 0.0
C2755 C 0.25581 0.48323 0.71756 0.0
H2756 H 0.25497 0.53923 0.74704 0.0
C2757 C 0.25604 0.46792 0.73837 0.0
C2758 C 0.25745 0.4783 0.76223 0.0
H2759 H 0.25732 0.47482 0.69939 0.0
H2760 H 0.25754 0.44805 0.7357 0.0
C2761 C 0.25465 0.50399 0.76515 0.0
C2762 C 0.25632 0.00543 0.51904 0.0
C2763 C 0.23045 0.00719 0.51709 0.0
H2764 H 0.29077 0.00656 0.49957 0.0
C2765 C 0.21922 0.00483 0.49367 0.0
H2766 H 0.26546 0.00673 0.53688 0.0
C2767 C 0.23371 0.0047 0.47228 0.0
C2768 C 0.25952 0.00704 0.47419 0.0
H2769 H 0.19923 0.00551 0.49173 0.0
H2770 H 0.22454 0.00544 0.45442 0.0
C2771 C 0.2708 0.00542 0.49765 0.0
C2772 C 0.02182 0.74152 0.7319 0.0
C2773 C 0.01169 0.76549 0.73015 0.0
H2774 H 0.01453 0.70258 0.73111 0.0
C2775 C 0.98602 0.76869 0.73277 0.0
H2776 H 0.04166 0.7386 0.73053 0.0
C2777 C 0.9705 0.74804 0.73305 0.0
C2778 C 0.98054 0.72408 0.73088 0.0
H2779 H 0.97772 0.78697 0.73196 0.0
H2780 H 0.95062 0.75095 0.73258 0.0
C2781 C 0.0063 0.72087 0.73233 0.0
C2782 C 0.98836 0.71682 0.5072 0.0
C2783 C 0.01211 0.72746 0.5086 0.0
H2784 H 0.94931 0.7232 0.50898 0.0
C2785 C 0.01464 0.75325 0.5064 0.0
H2786 H 0.98595 0.6969 0.50824 0.0
C2787 C -0.00636 0.76831 0.50687 0.0
C2788 C 0.96997 0.75769 0.5094 0.0
H2789 H 0.03274 0.76193 0.50699 0.0
H2790 H -0.0039 0.78824 0.50764 0.0
C2791 C 0.96735 0.73189 0.50753 0.0
C2792 C 0.01928 0.24571 0.75526 0.0
C2793 C 0.00851 0.22203 0.75709 0.0
H2794 H 0.01308 0.28485 0.756 0.0
C2795 C 0.98274 0.21959 0.7546 0.0
H2796 H 0.03919 0.24805 0.75652 0.0
C2797 C 0.96779 0.24068 0.75433 0.0
C2798 C 0.97849 0.26436 0.75643 0.0
H2799 H 0.97395 0.20155 0.75548 0.0
H2800 H 0.94784 0.23834 0.7549 0.0
C2801 C 0.00432 0.2668 0.75486 0.0
C2802 C 0.4684 0.75539 0.47838 0.0
C2803 C 0.47268 0.72976 0.47715 0.0
H2804 H 0.48473 0.79144 0.47675 0.0
C2805 C 0.49695 0.72068 0.47989 0.0
H2806 H 0.44983 0.76287 0.4767 0.0
C2807 C 0.51694 0.73703 0.48004 0.0
C2808 C 0.51276 0.76255 0.47723 0.0
H2809 H 0.50064 0.70093 0.47956 0.0
H2810 H 0.53555 0.72947 0.47968 0.0
C2811 C 0.4884 0.77174 0.47832 0.0
C2812 C 0.73161 0.96798 0.74503 0.0
C2813 C 0.7292 0.97807 0.72112 0.0
H2814 H 0.73134 0.97529 0.78396 0.0
C2815 C 0.73128 0.00378 0.71785 0.0
H2816 H 0.73067 0.94812 0.74796 0.0
C2817 C 0.73158 0.01933 0.73847 0.0
C2818 C 0.72999 0.00925 0.76245 0.0
H2819 H 0.72992 0.01203 0.69958 0.0
H2820 H 0.73059 0.0392 0.73558 0.0
C2821 C 0.73209 0.98353 0.76566 0.0
C2822 C 0.229 0.98119 0.01867 0.0
C2823 C 0.25486 0.98012 0.01623 0.0
H2824 H 0.19418 0.97925 -0.00011 0.0
C2825 C 0.26553 0.98273 0.99259 0.0
H2826 H 0.22026 0.97966 0.03668 0.0
C2827 C 0.2506 0.98251 0.97149 0.0
C2828 C 0.22487 0.97958 0.97388 0.0
H2829 H 0.28549 0.98256 0.99026 0.0
H2830 H 0.25941 0.98207 0.95345 0.0
C2831 C 0.21406 0.98085 -0.00244 0.0
loop_
_geom_bond_atom_site_label_1
_geom_bond_atom_site_label_2
_geom_bond_distance
_geom_bond_site_symmetry_2
_ccdc_geom_bond_type
Co0 O3 1.970 . S
Co0 N17 1.989 . S
Co0 O25 1.967 . S
Co0 O32 1.920 . S
Co1 O4 1.966 . S
Co1 N10 2.022 . S
Co1 N18 1.993 . S
Co1 O26 1.941 . S
C2 O3 1.258 . S
C2 O4 1.263 . S
O3 Co0 1.970 . S
O3 C2 1.258 . S
O4 Co1 1.966 . S
O4 C2 1.263 . S
C5 O6 1.235 . S
C5 O32 1.289 . S
O6 C5 1.235 . S
C7 C9 1.400 . S
C7 N10 1.351 . S
C7 C12 1.501 . S
C8 C9 1.387 . S
C8 N11 1.341 . S
C9 C7 1.400 . S
C9 C8 1.387 . S
N10 Co1 2.022 . S
N10 C7 1.351 . S
N10 N11 1.365 . S
N11 C8 1.341 . S
N11 N10 1.365 . S
N11 H31 0.862 . S
C12 C7 1.501 . S
C12 H13 0.961 . S
C12 H14 0.961 . S
C12 H15 0.960 . S
H13 C12 0.961 . S
H14 C12 0.961 . S
H15 C12 0.960 . S
C16 N17 1.342 . S
C16 C20 1.401 . S
C16 C21 1.499 . S
N17 Co0 1.989 . S
N17 C16 1.342 . S
N17 N18 1.388 . S
N18 Co1 1.993 . S
N18 N17 1.388 . S
N18 C19 1.346 . S
C19 N18 1.346 . S
C19 C20 1.396 . S
C19 C29 1.510 . S
C20 C16 1.401 . S
C20 C19 1.396 . S
C21 C16 1.499 . S
C21 H22 0.959 . S
C21 H23 0.960 . S
C21 H24 0.961 . S
H22 C21 0.959 . S
H23 C21 0.960 . S
H24 C21 0.961 . S
O25 Co0 1.967 . S
O25 C33 1.258 . S
O26 Co1 1.941 . S
O26 C33 1.266 . S
H27 C29 0.959 . S
H28 C29 0.961 . S
C29 C19 1.510 . S
C29 H27 0.959 . S
C29 H28 0.961 . S
C29 H30 0.960 . S
H30 C29 0.960 . S
H31 N11 0.862 . S
O32 Co0 1.920 . S
O32 C5 1.289 . S
C33 O25 1.258 . S
C33 O26 1.266 . S
Co34 O37 1.970 . S
Co34 N51 1.989 . S
Co34 O59 1.967 . S
Co34 O66 1.920 . S
Co35 O38 1.966 . S
Co35 N44 2.022 . S
Co35 N52 1.993 . S
Co35 O60 1.941 . S
C36 O37 1.258 . S
C36 O38 1.263 . S
O37 Co34 1.970 . S
O37 C36 1.258 . S
O38 Co35 1.966 . S
O38 C36 1.263 . S
C39 O40 1.235 . S
C39 O66 1.289 . S
O40 C39 1.235 . S
C41 C43 1.400 . S
C41 N44 1.351 . S
C41 C46 1.501 . S
C42 C43 1.387 . S
C42 N45 1.341 . S
C43 C41 1.400 . S
C43 C42 1.387 . S
N44 Co35 2.022 . S
N44 C41 1.351 . S
N44 N45 1.365 . S
N45 C42 1.341 . S
N45 N44 1.365 . S
N45 H65 0.862 . S
C46 C41 1.501 . S
C46 H47 0.961 . S
C46 H48 0.961 . S
C46 H49 0.960 . S
H47 C46 0.961 . S
H48 C46 0.961 . S
H49 C46 0.960 . S
C50 N51 1.342 . S
C50 C54 1.401 . S
C50 C55 1.499 . S
N51 Co34 1.989 . S
N51 C50 1.342 . S
N51 N52 1.388 . S
N52 Co35 1.993 . S
N52 N51 1.388 . S
N52 C53 1.346 . S
C53 N52 1.346 . S
C53 C54 1.396 . S
C53 C63 1.510 . S
C54 C50 1.401 . S
C54 C53 1.396 . S
C55 C50 1.499 . S
C55 H56 0.959 . S
C55 H57 0.960 . S
C55 H58 0.961 . S
H56 C55 0.959 . S
H57 C55 0.960 . S
H58 C55 0.961 . S
O59 Co34 1.967 . S
O59 C67 1.258 . S
O60 Co35 1.941 . S
O60 C67 1.266 . S
H61 C63 0.959 . S
H62 C63 0.961 . S
C63 C53 1.510 . S
C63 H61 0.959 . S
C63 H62 0.961 . S
C63 H64 0.960 . S
H64 C63 0.960 . S
H65 N45 0.862 . S
O66 Co34 1.920 . S
O66 C39 1.289 . S
C67 O59 1.258 . S
C67 O60 1.266 . S
Co68 O71 1.970 . S
Co68 N85 1.989 . S
Co68 O93 1.967 . S
Co68 O100 1.920 . S
Co69 O72 1.966 . S
Co69 N78 2.022 . S
Co69 N86 1.993 . S
Co69 O94 1.941 . S
C70 O71 1.258 . S
C70 O72 1.263 . S
O71 Co68 1.970 . S
O71 C70 1.258 . S
O72 Co69 1.966 . S
O72 C70 1.263 . S
C73 O74 1.235 . S
C73 O100 1.289 . S
O74 C73 1.235 . S
C75 C77 1.400 . S
C75 N78 1.351 . S
C75 C80 1.501 . S
C76 C77 1.387 . S
C76 N79 1.341 . S
C77 C75 1.400 . S
C77 C76 1.387 . S
N78 Co69 2.022 . S
N78 C75 1.351 . S
N78 N79 1.365 . S
N79 C76 1.341 . S
N79 N78 1.365 . S
N79 H99 0.862 . S
C80 C75 1.501 . S
C80 H81 0.961 . S
C80 H82 0.961 . S
C80 H83 0.960 . S
H81 C80 0.961 . S
H82 C80 0.961 . S
H83 C80 0.960 . S
C84 N85 1.342 . S
C84 C88 1.401 . S
C84 C89 1.499 . S
N85 Co68 1.989 . S
N85 C84 1.342 . S
N85 N86 1.388 . S
N86 Co69 1.993 . S
N86 N85 1.388 . S
N86 C87 1.346 . S
C87 N86 1.346 . S
C87 C88 1.396 . S
C87 C97 1.510 . S
C88 C84 1.401 . S
C88 C87 1.396 . S
C89 C84 1.499 . S
C89 H90 0.959 . S
C89 H91 0.960 . S
C89 H92 0.961 . S
H90 C89 0.959 . S
H91 C89 0.960 . S
H92 C89 0.961 . S
O93 Co68 1.967 . S
O93 C101 1.258 . S
O94 Co69 1.941 . S
O94 C101 1.266 . S
H95 C97 0.959 . S
H96 C97 0.961 . S
C97 C87 1.510 . S
C97 H95 0.959 . S
C97 H96 0.961 . S
C97 H98 0.960 . S
H98 C97 0.960 . S
H99 N79 0.862 . S
O100 Co68 1.920 . S
O100 C73 1.289 . S
C101 O93 1.258 . S
C101 O94 1.266 . S
Co102 O105 1.970 . S
Co102 N119 1.989 . S
Co102 O127 1.967 . S
Co102 O134 1.920 . S
Co103 O106 1.966 . S
Co103 N112 2.022 . S
Co103 N120 1.993 . S
Co103 O128 1.941 . S
C104 O105 1.258 . S
C104 O106 1.263 . S
O105 Co102 1.970 . S
O105 C104 1.258 . S
O106 Co103 1.966 . S
O106 C104 1.263 . S
C107 O108 1.235 . S
C107 O134 1.289 . S
O108 C107 1.235 . S
C109 C111 1.400 . S
C109 N112 1.351 . S
C109 C114 1.501 . S
C110 C111 1.387 . S
C110 N113 1.341 . S
C111 C109 1.400 . S
C111 C110 1.387 . S
N112 Co103 2.022 . S
N112 C109 1.351 . S
N112 N113 1.365 . S
N113 C110 1.341 . S
N113 N112 1.365 . S
N113 H133 0.862 . S
C114 C109 1.501 . S
C114 H115 0.961 . S
C114 H116 0.961 . S
C114 H117 0.960 . S
H115 C114 0.961 . S
H116 C114 0.961 . S
H117 C114 0.960 . S
C118 N119 1.342 . S
C118 C122 1.401 . S
C118 C123 1.499 . S
N119 Co102 1.989 . S
N119 C118 1.342 . S
N119 N120 1.388 . S
N120 Co103 1.993 . S
N120 N119 1.388 . S
N120 C121 1.346 . S
C121 N120 1.346 . S
C121 C122 1.396 . S
C121 C131 1.510 . S
C122 C118 1.401 . S
C122 C121 1.396 . S
C123 C118 1.499 . S
C123 H124 0.959 . S
C123 H125 0.960 . S
C123 H126 0.961 . S
H124 C123 0.959 . S
H125 C123 0.960 . S
H126 C123 0.961 . S
O127 Co102 1.967 . S
O127 C135 1.258 . S
O128 Co103 1.941 . S
O128 C135 1.266 . S
H129 C131 0.959 . S
H130 C131 0.961 . S
C131 C121 1.510 . S
C131 H129 0.959 . S
C131 H130 0.961 . S
C131 H132 0.960 . S
H132 C131 0.960 . S
H133 N113 0.862 . S
O134 Co102 1.920 . S
O134 C107 1.289 . S
C135 O127 1.258 . S
C135 O128 1.266 . S
Co136 O139 1.970 . S
Co136 N153 1.989 . S
Co136 O161 1.967 . S
Co136 O168 1.920 . S
Co137 O140 1.966 . S
Co137 N146 2.022 . S
Co137 N154 1.993 . S
Co137 O162 1.941 . S
C138 O139 1.258 . S
C138 O140 1.263 . S
O139 Co136 1.970 . S
O139 C138 1.258 . S
O140 Co137 1.966 . S
O140 C138 1.263 . S
C141 O142 1.235 . S
C141 O168 1.289 . S
O142 C141 1.235 . S
C143 C145 1.400 . S
C143 N146 1.351 . S
C143 C148 1.501 . S
C144 C145 1.387 . S
C144 N147 1.341 . S
C145 C143 1.400 . S
C145 C144 1.387 . S
N146 Co137 2.022 . S
N146 C143 1.351 . S
N146 N147 1.365 . S
N147 C144 1.341 . S
N147 N146 1.365 . S
N147 H167 0.862 . S
C148 C143 1.501 . S
C148 H149 0.961 . S
C148 H150 0.961 . S
C148 H151 0.960 . S
H149 C148 0.961 . S
H150 C148 0.961 . S
H151 C148 0.960 . S
C152 N153 1.342 . S
C152 C156 1.401 . S
C152 C157 1.499 . S
N153 Co136 1.989 . S
N153 C152 1.342 . S
N153 N154 1.388 . S
N154 Co137 1.993 . S
N154 N153 1.388 . S
N154 C155 1.346 . S
C155 N154 1.346 . S
C155 C156 1.396 . S
C155 C165 1.510 . S
C156 C152 1.401 . S
C156 C155 1.396 . S
C157 C152 1.499 . S
C157 H158 0.959 . S
C157 H159 0.960 . S
C157 H160 0.961 . S
H158 C157 0.959 . S
H159 C157 0.960 . S
H160 C157 0.961 . S
O161 Co136 1.967 . S
O161 C169 1.258 . S
O162 Co137 1.941 . S
O162 C169 1.266 . S
H163 C165 0.959 . S
H164 C165 0.961 . S
C165 C155 1.510 . S
C165 H163 0.959 . S
C165 H164 0.961 . S
C165 H166 0.960 . S
H166 C165 0.960 . S
H167 N147 0.862 . S
O168 Co136 1.920 . S
O168 C141 1.289 . S
C169 O161 1.258 . S
C169 O162 1.266 . S
Co170 O173 1.970 . S
Co170 N187 1.989 . S
Co170 O195 1.967 . S
Co170 O202 1.920 . S
Co171 O174 1.966 . S
Co171 N180 2.022 . S
Co171 N188 1.993 . S
Co171 O196 1.941 . S
C172 O173 1.258 . S
C172 O174 1.263 . S
O173 Co170 1.970 . S
O173 C172 1.258 . S
O174 Co171 1.966 . S
O174 C172 1.263 . S
C175 O176 1.235 . S
C175 O202 1.289 . S
O176 C175 1.235 . S
C177 C179 1.400 . S
C177 N180 1.351 . S
C177 C182 1.501 . S
C178 C179 1.387 . S
C178 N181 1.341 . S
C179 C177 1.400 . S
C179 C178 1.387 . S
N180 Co171 2.022 . S
N180 C177 1.351 . S
N180 N181 1.365 . S
N181 C178 1.341 . S
N181 N180 1.365 . S
N181 H201 0.862 . S
C182 C177 1.501 . S
C182 H183 0.961 . S
C182 H184 0.961 . S
C182 H185 0.960 . S
H183 C182 0.961 . S
H184 C182 0.961 . S
H185 C182 0.960 . S
C186 N187 1.342 . S
C186 C190 1.401 . S
C186 C191 1.499 . S
N187 Co170 1.989 . S
N187 C186 1.342 . S
N187 N188 1.388 . S
N188 Co171 1.993 . S
N188 N187 1.388 . S
N188 C189 1.346 . S
C189 N188 1.346 . S
C189 C190 1.396 . S
C189 C199 1.510 . S
C190 C186 1.401 . S
C190 C189 1.396 . S
C191 C186 1.499 . S
C191 H192 0.959 . S
C191 H193 0.960 1_455 S
C191 H194 0.961 1_455 S
H192 C191 0.959 . S
H193 C191 0.960 1_655 S
H194 C191 0.961 1_655 S
O195 Co170 1.967 . S
O195 C203 1.258 . S
O196 Co171 1.941 . S
O196 C203 1.266 . S
H197 C199 0.959 . S
H198 C199 0.961 . S
C199 C189 1.510 . S
C199 H197 0.959 . S
C199 H198 0.961 . S
C199 H200 0.960 . S
H200 C199 0.960 . S
H201 N181 0.862 . S
O202 Co170 1.920 . S
O202 C175 1.289 . S
C203 O195 1.258 . S
C203 O196 1.266 . S
Co204 O207 1.970 . S
Co204 N221 1.989 . S
Co204 O229 1.967 . S
Co204 O236 1.920 . S
Co205 O208 1.966 . S
Co205 N214 2.022 . S
Co205 N222 1.993 . S
Co205 O230 1.941 . S
C206 O207 1.258 . S
C206 O208 1.263 . S
O207 Co204 1.970 . S
O207 C206 1.258 . S
O208 Co205 1.966 . S
O208 C206 1.263 . S
C209 O210 1.235 . S
C209 O236 1.289 . S
O210 C209 1.235 . S
C211 C213 1.400 . S
C211 N214 1.351 . S
C211 C216 1.501 . S
C212 C213 1.387 . S
C212 N215 1.341 . S
C213 C211 1.400 . S
C213 C212 1.387 . S
N214 Co205 2.022 . S
N214 C211 1.351 . S
N214 N215 1.365 . S
N215 C212 1.341 . S
N215 N214 1.365 . S
N215 H235 0.862 . S
C216 C211 1.501 . S
C216 H217 0.961 . S
C216 H218 0.961 . S
C216 H219 0.960 . S
H217 C216 0.961 . S
H218 C216 0.961 . S
H219 C216 0.960 . S
C220 N221 1.342 . S
C220 C224 1.401 . S
C220 C225 1.499 . S
N221 Co204 1.989 . S
N221 C220 1.342 . S
N221 N222 1.388 . S
N222 Co205 1.993 . S
N222 N221 1.388 . S
N222 C223 1.346 . S
C223 N222 1.346 . S
C223 C224 1.396 . S
C223 C233 1.510 . S
C224 C220 1.401 . S
C224 C223 1.396 . S
C225 C220 1.499 . S
C225 H226 0.959 . S
C225 H227 0.960 . S
C225 H228 0.961 . S
H226 C225 0.959 . S
H227 C225 0.960 . S
H228 C225 0.961 . S
O229 Co204 1.967 . S
O229 C237 1.258 . S
O230 Co205 1.941 . S
O230 C237 1.266 . S
H231 C233 0.959 . S
H232 C233 0.961 . S
C233 C223 1.510 . S
C233 H231 0.959 . S
C233 H232 0.961 . S
C233 H234 0.960 . S
H234 C233 0.960 . S
H235 N215 0.862 . S
O236 Co204 1.920 . S
O236 C209 1.289 . S
C237 O229 1.258 . S
C237 O230 1.266 . S
Co238 O241 1.970 . S
Co238 N255 1.989 . S
Co238 O263 1.967 . S
Co238 O270 1.920 . S
Co239 O242 1.966 . S
Co239 N248 2.022 . S
Co239 N256 1.993 . S
Co239 O264 1.941 . S
C240 O241 1.258 . S
C240 O242 1.263 . S
O241 Co238 1.970 . S
O241 C240 1.258 . S
O242 Co239 1.966 . S
O242 C240 1.263 . S
C243 O244 1.235 . S
C243 O270 1.289 . S
O244 C243 1.235 . S
C245 C247 1.400 . S
C245 N248 1.351 . S
C245 C250 1.501 . S
C246 C247 1.387 . S
C246 N249 1.341 . S
C247 C245 1.400 . S
C247 C246 1.387 . S
N248 Co239 2.022 . S
N248 C245 1.351 . S
N248 N249 1.365 . S
N249 C246 1.341 . S
N249 N248 1.365 . S
N249 H269 0.862 . S
C250 C245 1.501 . S
C250 H251 0.961 . S
C250 H252 0.961 . S
C250 H253 0.960 . S
H251 C250 0.961 . S
H252 C250 0.961 . S
H253 C250 0.960 . S
C254 N255 1.342 . S
C254 C258 1.401 . S
C254 C259 1.499 . S
N255 Co238 1.989 . S
N255 C254 1.342 . S
N255 N256 1.388 . S
N256 Co239 1.993 . S
N256 N255 1.388 . S
N256 C257 1.346 . S
C257 N256 1.346 . S
C257 C258 1.396 . S
C257 C267 1.510 . S
C258 C254 1.401 . S
C258 C257 1.396 . S
C259 C254 1.499 . S
C259 H260 0.959 . S
C259 H261 0.960 1_655 S
C259 H262 0.961 1_655 S
H260 C259 0.959 . S
H261 C259 0.960 1_455 S
H262 C259 0.961 1_455 S
O263 Co238 1.967 . S
O263 C271 1.258 . S
O264 Co239 1.941 . S
O264 C271 1.266 . S
H265 C267 0.959 . S
H266 C267 0.961 . S
C267 C257 1.510 . S
C267 H265 0.959 . S
C267 H266 0.961 . S
C267 H268 0.960 . S
H268 C267 0.960 . S
H269 N249 0.862 . S
O270 Co238 1.920 . S
O270 C243 1.289 . S
C271 O263 1.258 . S
C271 O264 1.266 . S
Co272 O275 1.970 . S
Co272 N289 1.989 . S
Co272 O297 1.967 . S
Co272 O304 1.920 . S
Co273 O276 1.966 . S
Co273 N282 2.022 . S
Co273 N290 1.993 . S
Co273 O298 1.941 . S
C274 O275 1.258 . S
C274 O276 1.263 . S
O275 Co272 1.970 . S
O275 C274 1.258 . S
O276 Co273 1.966 . S
O276 C274 1.263 . S
C277 O278 1.235 . S
C277 O304 1.289 . S
O278 C277 1.235 . S
C279 C281 1.400 . S
C279 N282 1.351 . S
C279 C284 1.501 . S
C280 C281 1.387 . S
C280 N283 1.341 . S
C281 C279 1.400 . S
C281 C280 1.387 . S
N282 Co273 2.022 . S
N282 C279 1.351 . S
N282 N283 1.365 . S
N283 C280 1.341 . S
N283 N282 1.365 . S
N283 H303 0.862 . S
C284 C279 1.501 . S
C284 H285 0.961 . S
C284 H286 0.961 . S
C284 H287 0.960 . S
H285 C284 0.961 . S
H286 C284 0.961 . S
H287 C284 0.960 . S
C288 N289 1.342 . S
C288 C292 1.401 . S
C288 C293 1.499 . S
N289 Co272 1.989 . S
N289 C288 1.342 . S
N289 N290 1.388 . S
N290 Co273 1.993 . S
N290 N289 1.388 . S
N290 C291 1.346 . S
C291 N290 1.346 . S
C291 C292 1.396 . S
C291 C301 1.510 . S
C292 C288 1.401 . S
C292 C291 1.396 . S
C293 C288 1.499 . S
C293 H294 0.959 . S
C293 H295 0.960 . S
C293 H296 0.961 . S
H294 C293 0.959 . S
H295 C293 0.960 . S
H296 C293 0.961 . S
O297 Co272 1.967 . S
O297 C305 1.258 . S
O298 Co273 1.941 . S
O298 C305 1.266 . S
H299 C301 0.959 . S
H300 C301 0.961 . S
C301 C291 1.510 . S
C301 H299 0.959 . S
C301 H300 0.961 . S
C301 H302 0.960 . S
H302 C301 0.960 . S
H303 N283 0.862 . S
O304 Co272 1.920 . S
O304 C277 1.289 . S
C305 O297 1.258 . S
C305 O298 1.266 . S
Co306 O309 1.970 . S
Co306 N323 1.989 . S
Co306 O331 1.967 . S
Co306 O338 1.920 . S
Co307 O310 1.966 . S
Co307 N316 2.022 . S
Co307 N324 1.993 . S
Co307 O332 1.941 . S
C308 O309 1.258 . S
C308 O310 1.263 . S
O309 Co306 1.970 . S
O309 C308 1.258 . S
O310 Co307 1.966 . S
O310 C308 1.263 . S
C311 O312 1.235 . S
C311 O338 1.289 . S
O312 C311 1.235 . S
C313 C315 1.400 . S
C313 N316 1.351 . S
C313 C318 1.501 . S
C314 C315 1.387 . S
C314 N317 1.341 . S
C315 C313 1.400 . S
C315 C314 1.387 . S
N316 Co307 2.022 . S
N316 C313 1.351 . S
N316 N317 1.365 . S
N317 C314 1.341 . S
N317 N316 1.365 . S
N317 H337 0.862 . S
C318 C313 1.501 . S
C318 H319 0.961 . S
C318 H320 0.961 . S
C318 H321 0.960 . S
H319 C318 0.961 . S
H320 C318 0.961 . S
H321 C318 0.960 . S
C322 N323 1.342 . S
C322 C326 1.401 . S
C322 C327 1.499 . S
N323 Co306 1.989 . S
N323 C322 1.342 . S
N323 N324 1.388 . S
N324 Co307 1.993 . S
N324 N323 1.388 . S
N324 C325 1.346 . S
C325 N324 1.346 . S
C325 C326 1.396 . S
C325 C335 1.510 . S
C326 C322 1.401 . S
C326 C325 1.396 . S
C327 C322 1.499 . S
C327 H328 0.959 . S
C327 H329 0.960 1_554 S
C327 H330 0.961 1_554 S
H328 C327 0.959 . S
H329 C327 0.960 1_556 S
H330 C327 0.961 1_556 S
O331 Co306 1.967 . S
O331 C339 1.258 . S
O332 Co307 1.941 . S
O332 C339 1.266 . S
H333 C335 0.959 . S
H334 C335 0.961 . S
C335 C325 1.510 . S
C335 H333 0.959 . S
C335 H334 0.961 . S
C335 H336 0.960 . S
H336 C335 0.960 . S
H337 N317 0.862 . S
O338 Co306 1.920 . S
O338 C311 1.289 . S
C339 O331 1.258 . S
C339 O332 1.266 . S
Co340 O343 1.970 . S
Co340 N357 1.989 . S
Co340 O365 1.967 . S
Co340 O372 1.920 . S
Co341 O344 1.966 . S
Co341 N350 2.022 . S
Co341 N358 1.993 . S
Co341 O366 1.941 . S
C342 O343 1.258 . S
C342 O344 1.263 . S
O343 Co340 1.970 . S
O343 C342 1.258 . S
O344 Co341 1.966 . S
O344 C342 1.263 . S
C345 O346 1.235 . S
C345 O372 1.289 . S
O346 C345 1.235 . S
C347 C349 1.400 . S
C347 N350 1.351 . S
C347 C352 1.501 . S
C348 C349 1.387 . S
C348 N351 1.341 . S
C349 C347 1.400 . S
C349 C348 1.387 . S
N350 Co341 2.022 . S
N350 C347 1.351 . S
N350 N351 1.365 . S
N351 C348 1.341 . S
N351 N350 1.365 . S
N351 H371 0.862 . S
C352 C347 1.501 . S
C352 H353 0.961 . S
C352 H354 0.961 . S
C352 H355 0.960 . S
H353 C352 0.961 . S
H354 C352 0.961 . S
H355 C352 0.960 . S
C356 N357 1.342 . S
C356 C360 1.401 . S
C356 C361 1.499 . S
N357 Co340 1.989 . S
N357 C356 1.342 . S
N357 N358 1.388 . S
N358 Co341 1.993 . S
N358 N357 1.388 . S
N358 C359 1.346 . S
C359 N358 1.346 . S
C359 C360 1.396 . S
C359 C369 1.510 . S
C360 C356 1.401 . S
C360 C359 1.396 . S
C361 C356 1.499 . S
C361 H362 0.959 . S
C361 H363 0.960 . S
C361 H364 0.961 . S
H362 C361 0.959 . S
H363 C361 0.960 . S
H364 C361 0.961 . S
O365 Co340 1.967 . S
O365 C373 1.258 . S
O366 Co341 1.941 . S
O366 C373 1.266 . S
H367 C369 0.959 . S
H368 C369 0.961 . S
C369 C359 1.510 . S
C369 H367 0.959 . S
C369 H368 0.961 . S
C369 H370 0.960 . S
H370 C369 0.960 . S
H371 N351 0.862 . S
O372 Co340 1.920 . S
O372 C345 1.289 . S
C373 O365 1.258 . S
C373 O366 1.266 . S
Co374 O377 1.970 . S
Co374 N391 1.989 . S
Co374 O399 1.967 . S
Co374 O406 1.920 . S
Co375 O378 1.966 . S
Co375 N384 2.022 . S
Co375 N392 1.993 . S
Co375 O400 1.941 . S
C376 O377 1.258 . S
C376 O378 1.263 . S
O377 Co374 1.970 . S
O377 C376 1.258 . S
O378 Co375 1.966 . S
O378 C376 1.263 . S
C379 O380 1.235 . S
C379 O406 1.289 . S
O380 C379 1.235 . S
C381 C383 1.400 . S
C381 N384 1.351 . S
C381 C386 1.501 . S
C382 C383 1.387 . S
C382 N385 1.341 . S
C383 C381 1.400 . S
C383 C382 1.387 . S
N384 Co375 2.022 . S
N384 C381 1.351 . S
N384 N385 1.365 . S
N385 C382 1.341 . S
N385 N384 1.365 . S
N385 H405 0.862 . S
C386 C381 1.501 . S
C386 H387 0.961 . S
C386 H388 0.961 . S
C386 H389 0.960 . S
H387 C386 0.961 . S
H388 C386 0.961 . S
H389 C386 0.960 . S
C390 N391 1.342 . S
C390 C394 1.401 . S
C390 C395 1.499 . S
N391 Co374 1.989 . S
N391 C390 1.342 . S
N391 N392 1.388 . S
N392 Co375 1.993 . S
N392 N391 1.388 . S
N392 C393 1.346 . S
C393 N392 1.346 . S
C393 C394 1.396 . S
C393 C403 1.510 . S
C394 C390 1.401 . S
C394 C393 1.396 . S
C395 C390 1.499 . S
C395 H396 0.959 . S
C395 H397 0.960 1_554 S
C395 H398 0.961 1_554 S
H396 C395 0.959 . S
H397 C395 0.960 1_556 S
H398 C395 0.961 1_556 S
O399 Co374 1.967 . S
O399 C407 1.258 . S
O400 Co375 1.941 . S
O400 C407 1.266 . S
H401 C403 0.959 . S
H402 C403 0.961 . S
C403 C393 1.510 . S
C403 H401 0.959 . S
C403 H402 0.961 . S
C403 H404 0.960 . S
H404 C403 0.960 . S
H405 N385 0.862 . S
O406 Co374 1.920 . S
O406 C379 1.289 . S
C407 O399 1.258 . S
C407 O400 1.266 . S
Co408 O411 1.970 . S
Co408 N425 1.989 . S
Co408 O433 1.967 . S
Co408 O440 1.920 . S
Co409 O412 1.966 . S
Co409 N418 2.022 . S
Co409 N426 1.993 . S
Co409 O434 1.941 . S
C410 O411 1.258 . S
C410 O412 1.263 . S
O411 Co408 1.970 . S
O411 C410 1.258 . S
O412 Co409 1.966 . S
O412 C410 1.263 . S
C413 O414 1.235 . S
C413 O440 1.289 . S
O414 C413 1.235 . S
C415 C417 1.400 . S
C415 N418 1.351 . S
C415 C420 1.501 . S
C416 C417 1.387 . S
C416 N419 1.341 . S
C417 C415 1.400 . S
C417 C416 1.387 . S
N418 Co409 2.022 . S
N418 C415 1.351 . S
N418 N419 1.365 . S
N419 C416 1.341 . S
N419 N418 1.365 . S
N419 H439 0.862 . S
C420 C415 1.501 . S
C420 H421 0.961 . S
C420 H422 0.961 . S
C420 H423 0.960 . S
H421 C420 0.961 . S
H422 C420 0.961 . S
H423 C420 0.960 . S
C424 N425 1.342 . S
C424 C428 1.401 . S
C424 C429 1.499 . S
N425 Co408 1.989 . S
N425 C424 1.342 . S
N425 N426 1.388 . S
N426 Co409 1.993 . S
N426 N425 1.388 . S
N426 C427 1.346 . S
C427 N426 1.346 . S
C427 C428 1.396 . S
C427 C437 1.510 . S
C428 C424 1.401 . S
C428 C427 1.396 . S
C429 C424 1.499 . S
C429 H430 0.959 . S
C429 H431 0.960 . S
C429 H432 0.961 . S
H430 C429 0.959 . S
H431 C429 0.960 . S
H432 C429 0.961 . S
O433 Co408 1.967 . S
O433 C441 1.258 . S
O434 Co409 1.941 . S
O434 C441 1.266 . S
H435 C437 0.959 . S
H436 C437 0.961 . S
C437 C427 1.510 . S
C437 H435 0.959 . S
C437 H436 0.961 . S
C437 H438 0.960 . S
H438 C437 0.960 . S
H439 N419 0.862 . S
O440 Co408 1.920 . S
O440 C413 1.289 . S
C441 O433 1.258 . S
C441 O434 1.266 . S
Co442 O445 1.970 . S
Co442 N459 1.989 . S
Co442 O467 1.967 . S
Co442 O474 1.920 . S
Co443 O446 1.966 . S
Co443 N452 2.022 . S
Co443 N460 1.993 . S
Co443 O468 1.941 . S
C444 O445 1.258 . S
C444 O446 1.263 . S
O445 Co442 1.970 . S
O445 C444 1.258 . S
O446 Co443 1.966 . S
O446 C444 1.263 . S
C447 O448 1.235 . S
C447 O474 1.289 . S
O448 C447 1.235 . S
C449 C451 1.400 . S
C449 N452 1.351 . S
C449 C454 1.501 . S
C450 C451 1.387 . S
C450 N453 1.341 . S
C451 C449 1.400 . S
C451 C450 1.387 . S
N452 Co443 2.022 . S
N452 C449 1.351 . S
N452 N453 1.365 . S
N453 C450 1.341 . S
N453 N452 1.365 . S
N453 H473 0.862 . S
C454 C449 1.501 . S
C454 H455 0.961 . S
C454 H456 0.961 . S
C454 H457 0.960 . S
H455 C454 0.961 . S
H456 C454 0.961 . S
H457 C454 0.960 . S
C458 N459 1.342 . S
C458 C462 1.401 . S
C458 C463 1.499 . S
N459 Co442 1.989 . S
N459 C458 1.342 . S
N459 N460 1.388 . S
N460 Co443 1.993 . S
N460 N459 1.388 . S
N460 C461 1.346 . S
C461 N460 1.346 . S
C461 C462 1.396 . S
C461 C471 1.510 . S
C462 C458 1.401 . S
C462 C461 1.396 . S
C463 C458 1.499 . S
C463 H464 0.959 . S
C463 H465 0.960 1_556 S
C463 H466 0.961 1_556 S
H464 C463 0.959 . S
H465 C463 0.960 1_554 S
H466 C463 0.961 1_554 S
O467 Co442 1.967 . S
O467 C475 1.258 . S
O468 Co443 1.941 . S
O468 C475 1.266 . S
H469 C471 0.959 . S
H470 C471 0.961 . S
C471 C461 1.510 . S
C471 H469 0.959 . S
C471 H470 0.961 . S
C471 H472 0.960 . S
H472 C471 0.960 . S
H473 N453 0.862 . S
O474 Co442 1.920 . S
O474 C447 1.289 . S
C475 O467 1.258 . S
C475 O468 1.266 . S
Co476 O479 1.970 . S
Co476 N493 1.989 . S
Co476 O501 1.967 . S
Co476 O508 1.920 . S
Co477 O480 1.966 . S
Co477 N486 2.022 . S
Co477 N494 1.993 . S
Co477 O502 1.941 . S
C478 O479 1.258 . S
C478 O480 1.263 . S
O479 Co476 1.970 . S
O479 C478 1.258 . S
O480 Co477 1.966 . S
O480 C478 1.263 . S
C481 O482 1.235 . S
C481 O508 1.289 . S
O482 C481 1.235 . S
C483 C485 1.400 . S
C483 N486 1.351 . S
C483 C488 1.501 . S
C484 C485 1.387 . S
C484 N487 1.341 . S
C485 C483 1.400 . S
C485 C484 1.387 . S
N486 Co477 2.022 . S
N486 C483 1.351 . S
N486 N487 1.365 . S
N487 C484 1.341 . S
N487 N486 1.365 . S
N487 H507 0.862 . S
C488 C483 1.501 . S
C488 H489 0.961 . S
C488 H490 0.961 . S
C488 H491 0.960 . S
H489 C488 0.961 . S
H490 C488 0.961 . S
H491 C488 0.960 . S
C492 N493 1.342 . S
C492 C496 1.401 . S
C492 C497 1.499 . S
N493 Co476 1.989 . S
N493 C492 1.342 . S
N493 N494 1.388 . S
N494 Co477 1.993 . S
N494 N493 1.388 . S
N494 C495 1.346 . S
C495 N494 1.346 . S
C495 C496 1.396 . S
C495 C505 1.510 . S
C496 C492 1.401 . S
C496 C495 1.396 . S
C497 C492 1.499 . S
C497 H498 0.959 . S
C497 H499 0.960 . S
C497 H500 0.961 . S
H498 C497 0.959 . S
H499 C497 0.960 . S
H500 C497 0.961 . S
O501 Co476 1.967 . S
O501 C509 1.258 . S
O502 Co477 1.941 . S
O502 C509 1.266 . S
H503 C505 0.959 . S
H504 C505 0.961 . S
C505 C495 1.510 . S
C505 H503 0.959 . S
C505 H504 0.961 . S
C505 H506 0.960 . S
H506 C505 0.960 . S
H507 N487 0.862 . S
O508 Co476 1.920 . S
O508 C481 1.289 . S
C509 O501 1.258 . S
C509 O502 1.266 . S
Co510 O513 1.970 . S
Co510 N527 1.989 . S
Co510 O535 1.967 . S
Co510 O542 1.920 . S
Co511 O514 1.966 . S
Co511 N520 2.022 . S
Co511 N528 1.993 . S
Co511 O536 1.941 . S
C512 O513 1.258 . S
C512 O514 1.263 . S
O513 Co510 1.970 . S
O513 C512 1.258 . S
O514 Co511 1.966 . S
O514 C512 1.263 . S
C515 O516 1.235 . S
C515 O542 1.289 . S
O516 C515 1.235 . S
C517 C519 1.400 . S
C517 N520 1.351 . S
C517 C522 1.501 . S
C518 C519 1.387 . S
C518 N521 1.341 . S
C519 C517 1.400 . S
C519 C518 1.387 . S
N520 Co511 2.022 . S
N520 C517 1.351 . S
N520 N521 1.365 . S
N521 C518 1.341 . S
N521 N520 1.365 . S
N521 H541 0.862 . S
C522 C517 1.501 . S
C522 H523 0.961 . S
C522 H524 0.961 . S
C522 H525 0.960 . S
H523 C522 0.961 . S
H524 C522 0.961 . S
H525 C522 0.960 . S
C526 N527 1.342 . S
C526 C530 1.401 . S
C526 C531 1.499 . S
N527 Co510 1.989 . S
N527 C526 1.342 . S
N527 N528 1.388 . S
N528 Co511 1.993 . S
N528 N527 1.388 . S
N528 C529 1.346 . S
C529 N528 1.346 . S
C529 C530 1.396 . S
C529 C539 1.510 . S
C530 C526 1.401 . S
C530 C529 1.396 . S
C531 C526 1.499 . S
C531 H532 0.959 . S
C531 H533 0.960 1_556 S
C531 H534 0.961 1_556 S
H532 C531 0.959 . S
H533 C531 0.960 1_554 S
H534 C531 0.961 1_554 S
O535 Co510 1.967 . S
O535 C543 1.258 . S
O536 Co511 1.941 . S
O536 C543 1.266 . S
H537 C539 0.959 . S
H538 C539 0.961 . S
C539 C529 1.510 . S
C539 H537 0.959 . S
C539 H538 0.961 . S
C539 H540 0.960 . S
H540 C539 0.960 . S
H541 N521 0.862 . S
O542 Co510 1.920 . S
O542 C515 1.289 . S
C543 O535 1.258 . S
C543 O536 1.266 . S
Co544 O547 1.970 . S
Co544 N561 1.989 . S
Co544 O569 1.967 . S
Co544 O576 1.920 . S
Co545 O548 1.966 . S
Co545 N554 2.022 . S
Co545 N562 1.993 . S
Co545 O570 1.941 . S
C546 O547 1.258 . S
C546 O548 1.263 . S
O547 Co544 1.970 . S
O547 C546 1.258 . S
O548 Co545 1.966 . S
O548 C546 1.263 . S
C549 O550 1.235 . S
C549 O576 1.289 . S
O550 C549 1.235 . S
C551 C553 1.400 . S
C551 N554 1.351 . S
C551 C556 1.501 . S
C552 C553 1.387 . S
C552 N555 1.341 . S
C553 C551 1.400 . S
C553 C552 1.387 . S
N554 Co545 2.022 . S
N554 C551 1.351 . S
N554 N555 1.365 . S
N555 C552 1.341 . S
N555 N554 1.365 . S
N555 H575 0.862 . S
C556 C551 1.501 . S
C556 H557 0.961 . S
C556 H558 0.961 . S
C556 H559 0.960 . S
H557 C556 0.961 . S
H558 C556 0.961 . S
H559 C556 0.960 . S
C560 N561 1.342 . S
C560 C564 1.401 . S
C560 C565 1.499 . S
N561 Co544 1.989 . S
N561 C560 1.342 . S
N561 N562 1.388 . S
N562 Co545 1.993 . S
N562 N561 1.388 . S
N562 C563 1.346 . S
C563 N562 1.346 . S
C563 C564 1.396 . S
C563 C573 1.510 . S
C564 C560 1.401 . S
C564 C563 1.396 . S
C565 C560 1.499 . S
C565 H566 0.959 . S
C565 H567 0.960 . S
C565 H568 0.961 . S
H566 C565 0.959 . S
H567 C565 0.960 . S
H568 C565 0.961 . S
O569 Co544 1.967 . S
O569 C577 1.258 . S
O570 Co545 1.941 . S
O570 C577 1.266 . S
H571 C573 0.959 . S
H572 C573 0.961 . S
C573 C563 1.510 . S
C573 H571 0.959 . S
C573 H572 0.961 . S
C573 H574 0.960 . S
H574 C573 0.960 . S
H575 N555 0.862 . S
O576 Co544 1.920 . S
O576 C549 1.289 . S
C577 O569 1.258 . S
C577 O570 1.266 . S
Co578 O581 1.970 . S
Co578 N595 1.989 . S
Co578 O603 1.967 . S
Co578 O610 1.920 . S
Co579 O582 1.966 . S
Co579 N588 2.022 . S
Co579 N596 1.993 . S
Co579 O604 1.941 . S
C580 O581 1.258 . S
C580 O582 1.263 . S
O581 Co578 1.970 . S
O581 C580 1.258 . S
O582 Co579 1.966 . S
O582 C580 1.263 . S
C583 O584 1.235 . S
C583 O610 1.289 . S
O584 C583 1.235 . S
C585 C587 1.400 . S
C585 N588 1.351 . S
C585 C590 1.501 . S
C586 C587 1.387 . S
C586 N589 1.341 . S
C587 C585 1.400 . S
C587 C586 1.387 . S
N588 Co579 2.022 . S
N588 C585 1.351 . S
N588 N589 1.365 . S
N589 C586 1.341 . S
N589 N588 1.365 . S
N589 H609 0.862 . S
C590 C585 1.501 . S
C590 H591 0.961 . S
C590 H592 0.961 . S
C590 H593 0.960 . S
H591 C590 0.961 . S
H592 C590 0.961 . S
H593 C590 0.960 . S
C594 N595 1.342 . S
C594 C598 1.401 . S
C594 C599 1.499 . S
N595 Co578 1.989 . S
N595 C594 1.342 . S
N595 N596 1.388 . S
N596 Co579 1.993 . S
N596 N595 1.388 . S
N596 C597 1.346 . S
C597 N596 1.346 . S
C597 C598 1.396 . S
C597 C607 1.510 . S
C598 C594 1.401 . S
C598 C597 1.396 . S
C599 C594 1.499 . S
C599 H600 0.959 . S
C599 H601 0.960 . S
C599 H602 0.961 . S
H600 C599 0.959 . S
H601 C599 0.960 . S
H602 C599 0.961 . S
O603 Co578 1.967 . S
O603 C611 1.258 . S
O604 Co579 1.941 . S
O604 C611 1.266 . S
H605 C607 0.959 . S
H606 C607 0.961 . S
C607 C597 1.510 . S
C607 H605 0.959 . S
C607 H606 0.961 . S
C607 H608 0.960 . S
H608 C607 0.960 . S
H609 N589 0.862 . S
O610 Co578 1.920 . S
O610 C583 1.289 . S
C611 O603 1.258 . S
C611 O604 1.266 . S
Co612 O615 1.970 . S
Co612 N629 1.989 . S
Co612 O637 1.967 . S
Co612 O644 1.920 . S
Co613 O616 1.966 . S
Co613 N622 2.022 . S
Co613 N630 1.993 . S
Co613 O638 1.941 . S
C614 O615 1.258 . S
C614 O616 1.263 . S
O615 Co612 1.970 . S
O615 C614 1.258 . S
O616 Co613 1.966 . S
O616 C614 1.263 . S
C617 O618 1.235 . S
C617 O644 1.289 . S
O618 C617 1.235 . S
C619 C621 1.400 . S
C619 N622 1.351 . S
C619 C624 1.501 . S
C620 C621 1.387 . S
C620 N623 1.341 . S
C621 C619 1.400 . S
C621 C620 1.387 . S
N622 Co613 2.022 . S
N622 C619 1.351 . S
N622 N623 1.365 . S
N623 C620 1.341 . S
N623 N622 1.365 . S
N623 H643 0.862 . S
C624 C619 1.501 . S
C624 H625 0.961 . S
C624 H626 0.961 . S
C624 H627 0.960 . S
H625 C624 0.961 . S
H626 C624 0.961 . S
H627 C624 0.960 . S
C628 N629 1.342 . S
C628 C632 1.401 . S
C628 C633 1.499 . S
N629 Co612 1.989 . S
N629 C628 1.342 . S
N629 N630 1.388 . S
N630 Co613 1.993 . S
N630 N629 1.388 . S
N630 C631 1.346 . S
C631 N630 1.346 . S
C631 C632 1.396 . S
C631 C641 1.510 . S
C632 C628 1.401 . S
C632 C631 1.396 . S
C633 C628 1.499 . S
C633 H634 0.959 . S
C633 H635 0.960 . S
C633 H636 0.961 . S
H634 C633 0.959 . S
H635 C633 0.960 . S
H636 C633 0.961 . S
O637 Co612 1.967 . S
O637 C645 1.258 . S
O638 Co613 1.941 . S
O638 C645 1.266 . S
H639 C641 0.959 . S
H640 C641 0.961 . S
C641 C631 1.510 . S
C641 H639 0.959 . S
C641 H640 0.961 . S
C641 H642 0.960 . S
H642 C641 0.960 . S
H643 N623 0.862 . S
O644 Co612 1.920 . S
O644 C617 1.289 . S
C645 O637 1.258 . S
C645 O638 1.266 . S
Co646 O649 1.970 . S
Co646 N663 1.989 . S
Co646 O671 1.967 . S
Co646 O678 1.920 . S
Co647 O650 1.966 . S
Co647 N656 2.022 . S
Co647 N664 1.993 . S
Co647 O672 1.941 . S
C648 O649 1.258 . S
C648 O650 1.263 . S
O649 Co646 1.970 . S
O649 C648 1.258 . S
O650 Co647 1.966 . S
O650 C648 1.263 . S
C651 O652 1.235 . S
C651 O678 1.289 . S
O652 C651 1.235 . S
C653 C655 1.400 . S
C653 N656 1.351 . S
C653 C658 1.501 . S
C654 C655 1.387 . S
C654 N657 1.341 . S
C655 C653 1.400 . S
C655 C654 1.387 . S
N656 Co647 2.022 . S
N656 C653 1.351 . S
N656 N657 1.365 . S
N657 C654 1.341 . S
N657 N656 1.365 . S
N657 H677 0.862 . S
C658 C653 1.501 . S
C658 H659 0.961 . S
C658 H660 0.961 . S
C658 H661 0.960 . S
H659 C658 0.961 . S
H660 C658 0.961 . S
H661 C658 0.960 . S
C662 N663 1.342 . S
C662 C666 1.401 . S
C662 C667 1.499 . S
N663 Co646 1.989 . S
N663 C662 1.342 . S
N663 N664 1.388 . S
N664 Co647 1.993 . S
N664 N663 1.388 . S
N664 C665 1.346 . S
C665 N664 1.346 . S
C665 C666 1.396 . S
C665 C675 1.510 . S
C666 C662 1.401 . S
C666 C665 1.396 . S
C667 C662 1.499 . S
C667 H668 0.959 . S
C667 H669 0.960 . S
C667 H670 0.961 . S
H668 C667 0.959 . S
H669 C667 0.960 . S
H670 C667 0.961 . S
O671 Co646 1.967 . S
O671 C679 1.258 . S
O672 Co647 1.941 . S
O672 C679 1.266 . S
H673 C675 0.959 . S
H674 C675 0.961 . S
C675 C665 1.510 . S
C675 H673 0.959 . S
C675 H674 0.961 . S
C675 H676 0.960 . S
H676 C675 0.960 . S
H677 N657 0.862 . S
O678 Co646 1.920 . S
O678 C651 1.289 . S
C679 O671 1.258 . S
C679 O672 1.266 . S
Co680 O683 1.970 . S
Co680 N697 1.989 . S
Co680 O705 1.967 . S
Co680 O712 1.920 . S
Co681 O684 1.966 . S
Co681 N690 2.022 . S
Co681 N698 1.993 . S
Co681 O706 1.941 . S
C682 O683 1.258 . S
C682 O684 1.263 . S
O683 Co680 1.970 . S
O683 C682 1.258 . S
O684 Co681 1.966 . S
O684 C682 1.263 . S
C685 O686 1.235 . S
C685 O712 1.289 . S
O686 C685 1.235 . S
C687 C689 1.400 . S
C687 N690 1.351 . S
C687 C692 1.501 . S
C688 C689 1.387 . S
C688 N691 1.341 . S
C689 C687 1.400 . S
C689 C688 1.387 . S
N690 Co681 2.022 . S
N690 C687 1.351 . S
N690 N691 1.365 . S
N691 C688 1.341 . S
N691 N690 1.365 . S
N691 H711 0.862 . S
C692 C687 1.501 . S
C692 H693 0.961 . S
C692 H694 0.961 . S
C692 H695 0.960 . S
H693 C692 0.961 . S
H694 C692 0.961 . S
H695 C692 0.960 . S
C696 N697 1.342 . S
C696 C700 1.401 . S
C696 C701 1.499 . S
N697 Co680 1.989 . S
N697 C696 1.342 . S
N697 N698 1.388 . S
N698 Co681 1.993 . S
N698 N697 1.388 . S
N698 C699 1.346 . S
C699 N698 1.346 . S
C699 C700 1.396 . S
C699 C709 1.510 . S
C700 C696 1.401 . S
C700 C699 1.396 . S
C701 C696 1.499 . S
C701 H702 0.959 . S
C701 H703 0.960 . S
C701 H704 0.961 . S
H702 C701 0.959 . S
H703 C701 0.960 . S
H704 C701 0.961 . S
O705 Co680 1.967 . S
O705 C713 1.258 . S
O706 Co681 1.941 . S
O706 C713 1.266 . S
H707 C709 0.959 . S
H708 C709 0.961 . S
C709 C699 1.510 . S
C709 H707 0.959 . S
C709 H708 0.961 . S
C709 H710 0.960 . S
H710 C709 0.960 . S
H711 N691 0.862 . S
O712 Co680 1.920 . S
O712 C685 1.289 . S
C713 O705 1.258 . S
C713 O706 1.266 . S
Co714 O717 1.970 . S
Co714 N731 1.989 . S
Co714 O739 1.967 . S
Co714 O746 1.920 . S
Co715 O718 1.966 . S
Co715 N724 2.022 . S
Co715 N732 1.993 . S
Co715 O740 1.941 . S
C716 O717 1.258 . S
C716 O718 1.263 . S
O717 Co714 1.970 . S
O717 C716 1.258 . S
O718 Co715 1.966 . S
O718 C716 1.263 . S
C719 O720 1.235 . S
C719 O746 1.289 . S
O720 C719 1.235 . S
C721 C723 1.400 . S
C721 N724 1.351 . S
C721 C726 1.501 . S
C722 C723 1.387 . S
C722 N725 1.341 . S
C723 C721 1.400 . S
C723 C722 1.387 . S
N724 Co715 2.022 . S
N724 C721 1.351 . S
N724 N725 1.365 . S
N725 C722 1.341 . S
N725 N724 1.365 . S
N725 H745 0.862 . S
C726 C721 1.501 . S
C726 H727 0.961 . S
C726 H728 0.961 . S
C726 H729 0.960 . S
H727 C726 0.961 . S
H728 C726 0.961 . S
H729 C726 0.960 . S
C730 N731 1.342 . S
C730 C734 1.401 . S
C730 C735 1.499 . S
N731 Co714 1.989 . S
N731 C730 1.342 . S
N731 N732 1.388 . S
N732 Co715 1.993 . S
N732 N731 1.388 . S
N732 C733 1.346 . S
C733 N732 1.346 . S
C733 C734 1.396 . S
C733 C743 1.510 . S
C734 C730 1.401 . S
C734 C733 1.396 . S
C735 C730 1.499 . S
C735 H736 0.959 . S
C735 H737 0.960 . S
C735 H738 0.961 . S
H736 C735 0.959 . S
H737 C735 0.960 . S
H738 C735 0.961 . S
O739 Co714 1.967 . S
O739 C747 1.258 . S
O740 Co715 1.941 . S
O740 C747 1.266 . S
H741 C743 0.959 . S
H742 C743 0.961 . S
C743 C733 1.510 . S
C743 H741 0.959 . S
C743 H742 0.961 . S
C743 H744 0.960 . S
H744 C743 0.960 . S
H745 N725 0.862 . S
O746 Co714 1.920 . S
O746 C719 1.289 . S
C747 O739 1.258 . S
C747 O740 1.266 . S
Co748 O751 1.970 . S
Co748 N765 1.989 . S
Co748 O773 1.967 . S
Co748 O780 1.920 . S
Co749 O752 1.966 . S
Co749 N758 2.022 . S
Co749 N766 1.993 . S
Co749 O774 1.941 . S
C750 O751 1.258 . S
C750 O752 1.263 . S
O751 Co748 1.970 . S
O751 C750 1.258 . S
O752 Co749 1.966 . S
O752 C750 1.263 . S
C753 O754 1.235 . S
C753 O780 1.289 . S
O754 C753 1.235 . S
C755 C757 1.400 . S
C755 N758 1.351 . S
C755 C760 1.501 . S
C756 C757 1.387 . S
C756 N759 1.341 . S
C757 C755 1.400 . S
C757 C756 1.387 . S
N758 Co749 2.022 . S
N758 C755 1.351 . S
N758 N759 1.365 . S
N759 C756 1.341 . S
N759 N758 1.365 . S
N759 H779 0.862 . S
C760 C755 1.501 . S
C760 H761 0.961 . S
C760 H762 0.961 . S
C760 H763 0.960 . S
H761 C760 0.961 . S
H762 C760 0.961 . S
H763 C760 0.960 . S
C764 N765 1.342 . S
C764 C768 1.401 . S
C764 C769 1.499 . S
N765 Co748 1.989 . S
N765 C764 1.342 . S
N765 N766 1.388 . S
N766 Co749 1.993 . S
N766 N765 1.388 . S
N766 C767 1.346 . S
C767 N766 1.346 . S
C767 C768 1.396 . S
C767 C777 1.510 . S
C768 C764 1.401 . S
C768 C767 1.396 . S
C769 C764 1.499 . S
C769 H770 0.959 . S
C769 H771 0.960 . S
C769 H772 0.961 . S
H770 C769 0.959 . S
H771 C769 0.960 . S
H772 C769 0.961 . S
O773 Co748 1.967 . S
O773 C781 1.258 . S
O774 Co749 1.941 . S
O774 C781 1.266 . S
H775 C777 0.959 . S
H776 C777 0.961 . S
C777 C767 1.510 . S
C777 H775 0.959 . S
C777 H776 0.961 . S
C777 H778 0.960 . S
H778 C777 0.960 . S
H779 N759 0.862 . S
O780 Co748 1.920 . S
O780 C753 1.289 . S
C781 O773 1.258 . S
C781 O774 1.266 . S
Co782 O785 1.970 . S
Co782 N799 1.989 . S
Co782 O807 1.967 . S
Co782 O814 1.920 . S
Co783 O786 1.966 . S
Co783 N792 2.022 . S
Co783 N800 1.993 . S
Co783 O808 1.941 . S
C784 O785 1.258 . S
C784 O786 1.263 . S
O785 Co782 1.970 . S
O785 C784 1.258 . S
O786 Co783 1.966 . S
O786 C784 1.263 . S
C787 O788 1.235 . S
C787 O814 1.289 . S
O788 C787 1.235 . S
C789 C791 1.400 . S
C789 N792 1.351 . S
C789 C794 1.501 . S
C790 C791 1.387 . S
C790 N793 1.341 . S
C791 C789 1.400 . S
C791 C790 1.387 . S
N792 Co783 2.022 . S
N792 C789 1.351 . S
N792 N793 1.365 . S
N793 C790 1.341 . S
N793 N792 1.365 . S
N793 H813 0.862 . S
C794 C789 1.501 . S
C794 H795 0.961 . S
C794 H796 0.961 . S
C794 H797 0.960 . S
H795 C794 0.961 . S
H796 C794 0.961 . S
H797 C794 0.960 . S
C798 N799 1.342 . S
C798 C802 1.401 . S
C798 C803 1.499 . S
N799 Co782 1.989 . S
N799 C798 1.342 . S
N799 N800 1.388 . S
N800 Co783 1.993 . S
N800 N799 1.388 . S
N800 C801 1.346 . S
C801 N800 1.346 . S
C801 C802 1.396 . S
C801 C811 1.510 . S
C802 C798 1.401 . S
C802 C801 1.396 . S
C803 C798 1.499 . S
C803 H804 0.959 . S
C803 H805 0.960 1_545 S
C803 H806 0.961 1_545 S
H804 C803 0.959 . S
H805 C803 0.960 1_565 S
H806 C803 0.961 1_565 S
O807 Co782 1.967 . S
O807 C815 1.258 . S
O808 Co783 1.941 . S
O808 C815 1.266 . S
H809 C811 0.959 . S
H810 C811 0.961 . S
C811 C801 1.510 . S
C811 H809 0.959 . S
C811 H810 0.961 . S
C811 H812 0.960 . S
H812 C811 0.960 . S
H813 N793 0.862 . S
O814 Co782 1.920 . S
O814 C787 1.289 . S
C815 O807 1.258 . S
C815 O808 1.266 . S
Co816 O819 1.970 . S
Co816 N833 1.989 . S
Co816 O841 1.967 . S
Co816 O848 1.920 . S
Co817 O820 1.966 . S
Co817 N826 2.022 . S
Co817 N834 1.993 . S
Co817 O842 1.941 . S
C818 O819 1.258 . S
C818 O820 1.263 . S
O819 Co816 1.970 . S
O819 C818 1.258 . S
O820 Co817 1.966 . S
O820 C818 1.263 . S
C821 O822 1.235 . S
C821 O848 1.289 . S
O822 C821 1.235 . S
C823 C825 1.400 . S
C823 N826 1.351 . S
C823 C828 1.501 . S
C824 C825 1.387 . S
C824 N827 1.341 . S
C825 C823 1.400 . S
C825 C824 1.387 . S
N826 Co817 2.022 . S
N826 C823 1.351 . S
N826 N827 1.365 . S
N827 C824 1.341 . S
N827 N826 1.365 . S
N827 H847 0.862 . S
C828 C823 1.501 . S
C828 H829 0.961 . S
C828 H830 0.961 . S
C828 H831 0.960 . S
H829 C828 0.961 . S
H830 C828 0.961 . S
H831 C828 0.960 . S
C832 N833 1.342 . S
C832 C836 1.401 . S
C832 C837 1.499 . S
N833 Co816 1.989 . S
N833 C832 1.342 . S
N833 N834 1.388 . S
N834 Co817 1.993 . S
N834 N833 1.388 . S
N834 C835 1.346 . S
C835 N834 1.346 . S
C835 C836 1.396 . S
C835 C845 1.510 . S
C836 C832 1.401 . S
C836 C835 1.396 . S
C837 C832 1.499 . S
C837 H838 0.959 . S
C837 H839 0.960 . S
C837 H840 0.961 . S
H838 C837 0.959 . S
H839 C837 0.960 . S
H840 C837 0.961 . S
O841 Co816 1.967 . S
O841 C849 1.258 . S
O842 Co817 1.941 . S
O842 C849 1.266 . S
H843 C845 0.959 . S
H844 C845 0.961 . S
C845 C835 1.510 . S
C845 H843 0.959 . S
C845 H844 0.961 . S
C845 H846 0.960 . S
H846 C845 0.960 . S
H847 N827 0.862 . S
O848 Co816 1.920 . S
O848 C821 1.289 . S
C849 O841 1.258 . S
C849 O842 1.266 . S
Co850 O853 1.970 . S
Co850 N867 1.989 . S
Co850 O875 1.967 . S
Co850 O882 1.920 . S
Co851 O854 1.966 . S
Co851 N860 2.022 . S
Co851 N868 1.993 . S
Co851 O876 1.941 . S
C852 O853 1.258 . S
C852 O854 1.263 . S
O853 Co850 1.970 . S
O853 C852 1.258 . S
O854 Co851 1.966 . S
O854 C852 1.263 . S
C855 O856 1.235 . S
C855 O882 1.289 . S
O856 C855 1.235 . S
C857 C859 1.400 . S
C857 N860 1.351 . S
C857 C862 1.501 . S
C858 C859 1.387 . S
C858 N861 1.341 . S
C859 C857 1.400 . S
C859 C858 1.387 . S
N860 Co851 2.022 . S
N860 C857 1.351 . S
N860 N861 1.365 . S
N861 C858 1.341 . S
N861 N860 1.365 . S
N861 H881 0.862 . S
C862 C857 1.501 . S
C862 H863 0.961 . S
C862 H864 0.961 . S
C862 H865 0.960 . S
H863 C862 0.961 . S
H864 C862 0.961 . S
H865 C862 0.960 . S
C866 N867 1.342 . S
C866 C870 1.401 . S
C866 C871 1.499 . S
N867 Co850 1.989 . S
N867 C866 1.342 . S
N867 N868 1.388 . S
N868 Co851 1.993 . S
N868 N867 1.388 . S
N868 C869 1.346 . S
C869 N868 1.346 . S
C869 C870 1.396 . S
C869 C879 1.510 . S
C870 C866 1.401 . S
C870 C869 1.396 . S
C871 C866 1.499 . S
C871 H872 0.959 . S
C871 H873 0.960 1_655 S
C871 H874 0.961 1_655 S
H872 C871 0.959 . S
H873 C871 0.960 1_455 S
H874 C871 0.961 1_455 S
O875 Co850 1.967 . S
O875 C883 1.258 . S
O876 Co851 1.941 . S
O876 C883 1.266 . S
H877 C879 0.959 . S
H878 C879 0.961 . S
C879 C869 1.510 . S
C879 H877 0.959 . S
C879 H878 0.961 . S
C879 H880 0.960 . S
H880 C879 0.960 . S
H881 N861 0.862 . S
O882 Co850 1.920 . S
O882 C855 1.289 . S
C883 O875 1.258 . S
C883 O876 1.266 . S
Co884 O887 1.970 . S
Co884 N901 1.989 . S
Co884 O909 1.967 . S
Co884 O916 1.920 . S
Co885 O888 1.966 . S
Co885 N894 2.022 . S
Co885 N902 1.993 . S
Co885 O910 1.941 . S
C886 O887 1.258 . S
C886 O888 1.263 . S
O887 Co884 1.970 . S
O887 C886 1.258 . S
O888 Co885 1.966 . S
O888 C886 1.263 . S
C889 O890 1.235 . S
C889 O916 1.289 . S
O890 C889 1.235 . S
C891 C893 1.400 . S
C891 N894 1.351 . S
C891 C896 1.501 . S
C892 C893 1.387 . S
C892 N895 1.341 . S
C893 C891 1.400 . S
C893 C892 1.387 . S
N894 Co885 2.022 . S
N894 C891 1.351 . S
N894 N895 1.365 . S
N895 C892 1.341 . S
N895 N894 1.365 . S
N895 H915 0.862 . S
C896 C891 1.501 . S
C896 H897 0.961 . S
C896 H898 0.961 . S
C896 H899 0.960 . S
H897 C896 0.961 . S
H898 C896 0.961 . S
H899 C896 0.960 . S
C900 N901 1.342 . S
C900 C904 1.401 . S
C900 C905 1.499 . S
N901 Co884 1.989 . S
N901 C900 1.342 . S
N901 N902 1.388 . S
N902 Co885 1.993 . S
N902 N901 1.388 . S
N902 C903 1.346 . S
C903 N902 1.346 . S
C903 C904 1.396 . S
C903 C913 1.510 . S
C904 C900 1.401 . S
C904 C903 1.396 . S
C905 C900 1.499 . S
C905 H906 0.959 . S
C905 H907 0.960 . S
C905 H908 0.961 . S
H906 C905 0.959 . S
H907 C905 0.960 . S
H908 C905 0.961 . S
O909 Co884 1.967 . S
O909 C917 1.258 . S
O910 Co885 1.941 . S
O910 C917 1.266 . S
H911 C913 0.959 . S
H912 C913 0.961 . S
C913 C903 1.510 . S
C913 H911 0.959 . S
C913 H912 0.961 . S
C913 H914 0.960 . S
H914 C913 0.960 . S
H915 N895 0.862 . S
O916 Co884 1.920 . S
O916 C889 1.289 . S
C917 O909 1.258 . S
C917 O910 1.266 . S
Co918 O921 1.970 . S
Co918 N935 1.989 . S
Co918 O943 1.967 . S
Co918 O950 1.920 . S
Co919 O922 1.966 . S
Co919 N928 2.022 . S
Co919 N936 1.993 . S
Co919 O944 1.941 . S
C920 O921 1.258 . S
C920 O922 1.263 . S
O921 Co918 1.970 . S
O921 C920 1.258 . S
O922 Co919 1.966 . S
O922 C920 1.263 . S
C923 O924 1.235 . S
C923 O950 1.289 . S
O924 C923 1.235 . S
C925 C927 1.400 . S
C925 N928 1.351 . S
C925 C930 1.501 . S
C926 C927 1.387 . S
C926 N929 1.341 . S
C927 C925 1.400 . S
C927 C926 1.387 . S
N928 Co919 2.022 . S
N928 C925 1.351 . S
N928 N929 1.365 . S
N929 C926 1.341 . S
N929 N928 1.365 . S
N929 H949 0.862 . S
C930 C925 1.501 . S
C930 H931 0.961 . S
C930 H932 0.961 . S
C930 H933 0.960 . S
H931 C930 0.961 . S
H932 C930 0.961 . S
H933 C930 0.960 . S
C934 N935 1.342 . S
C934 C938 1.401 . S
C934 C939 1.499 . S
N935 Co918 1.989 . S
N935 C934 1.342 . S
N935 N936 1.388 . S
N936 Co919 1.993 . S
N936 N935 1.388 . S
N936 C937 1.346 . S
C937 N936 1.346 . S
C937 C938 1.396 . S
C937 C947 1.510 . S
C938 C934 1.401 . S
C938 C937 1.396 . S
C939 C934 1.499 . S
C939 H940 0.959 . S
C939 H941 0.960 1_455 S
C939 H942 0.961 1_455 S
H940 C939 0.959 . S
H941 C939 0.960 1_655 S
H942 C939 0.961 1_655 S
O943 Co918 1.967 . S
O943 C951 1.258 . S
O944 Co919 1.941 . S
O944 C951 1.266 . S
H945 C947 0.959 . S
H946 C947 0.961 . S
C947 C937 1.510 . S
C947 H945 0.959 . S
C947 H946 0.961 . S
C947 H948 0.960 . S
H948 C947 0.960 . S
H949 N929 0.862 . S
O950 Co918 1.920 . S
O950 C923 1.289 . S
C951 O943 1.258 . S
C951 O944 1.266 . S
Co952 O955 1.970 . S
Co952 N969 1.989 . S
Co952 O977 1.967 . S
Co952 O984 1.920 . S
Co953 O956 1.966 . S
Co953 N962 2.022 . S
Co953 N970 1.993 . S
Co953 O978 1.941 . S
C954 O955 1.258 . S
C954 O956 1.263 . S
O955 Co952 1.970 . S
O955 C954 1.258 . S
O956 Co953 1.966 . S
O956 C954 1.263 . S
C957 O958 1.235 . S
C957 O984 1.289 . S
O958 C957 1.235 . S
C959 C961 1.400 . S
C959 N962 1.351 . S
C959 C964 1.501 . S
C960 C961 1.387 . S
C960 N963 1.341 . S
C961 C959 1.400 . S
C961 C960 1.387 . S
N962 Co953 2.022 . S
N962 C959 1.351 . S
N962 N963 1.365 . S
N963 C960 1.341 . S
N963 N962 1.365 . S
N963 H983 0.862 . S
C964 C959 1.501 . S
C964 H965 0.961 . S
C964 H966 0.961 . S
C964 H967 0.960 . S
H965 C964 0.961 . S
H966 C964 0.961 . S
H967 C964 0.960 . S
C968 N969 1.342 . S
C968 C972 1.401 . S
C968 C973 1.499 . S
N969 Co952 1.989 . S
N969 C968 1.342 . S
N969 N970 1.388 . S
N970 Co953 1.993 . S
N970 N969 1.388 . S
N970 C971 1.346 . S
C971 N970 1.346 . S
C971 C972 1.396 . S
C971 C981 1.510 . S
C972 C968 1.401 . S
C972 C971 1.396 . S
C973 C968 1.499 . S
C973 H974 0.959 . S
C973 H975 0.960 . S
C973 H976 0.961 . S
H974 C973 0.959 . S
H975 C973 0.960 . S
H976 C973 0.961 . S
O977 Co952 1.967 . S
O977 C985 1.258 . S
O978 Co953 1.941 . S
O978 C985 1.266 . S
H979 C981 0.959 . S
H980 C981 0.961 . S
C981 C971 1.510 . S
C981 H979 0.959 . S
C981 H980 0.961 . S
C981 H982 0.960 . S
H982 C981 0.960 . S
H983 N963 0.862 . S
O984 Co952 1.920 . S
O984 C957 1.289 . S
C985 O977 1.258 . S
C985 O978 1.266 . S
Co986 O989 1.970 . S
Co986 N1003 1.989 . S
Co986 O1011 1.967 . S
Co986 O1018 1.920 . S
Co987 O990 1.966 . S
Co987 N996 2.022 . S
Co987 N1004 1.993 . S
Co987 O1012 1.941 . S
C988 O989 1.258 . S
C988 O990 1.263 . S
O989 Co986 1.970 . S
O989 C988 1.258 . S
O990 Co987 1.966 . S
O990 C988 1.263 . S
C991 O992 1.235 . S
C991 O1018 1.289 . S
O992 C991 1.235 . S
C993 C995 1.400 . S
C993 N996 1.351 . S
C993 C998 1.501 . S
C994 C995 1.387 . S
C994 N997 1.341 . S
C995 C993 1.400 . S
C995 C994 1.387 . S
N996 Co987 2.022 . S
N996 C993 1.351 . S
N996 N997 1.365 . S
N997 C994 1.341 . S
N997 N996 1.365 . S
N997 H1017 0.862 . S
C998 C993 1.501 . S
C998 H999 0.961 . S
C998 H1000 0.961 . S
C998 H1001 0.960 . S
H999 C998 0.961 . S
H1000 C998 0.961 . S
H1001 C998 0.960 . S
C1002 N1003 1.342 . S
C1002 C1006 1.401 . S
C1002 C1007 1.499 . S
N1003 Co986 1.989 . S
N1003 C1002 1.342 . S
N1003 N1004 1.388 . S
N1004 Co987 1.993 . S
N1004 N1003 1.388 . S
N1004 C1005 1.346 . S
C1005 N1004 1.346 . S
C1005 C1006 1.396 . S
C1005 C1015 1.510 . S
C1006 C1002 1.401 . S
C1006 C1005 1.396 . S
C1007 C1002 1.499 . S
C1007 H1008 0.959 . S
C1007 H1009 0.960 . S
C1007 H1010 0.961 . S
H1008 C1007 0.959 . S
H1009 C1007 0.960 . S
H1010 C1007 0.961 . S
O1011 Co986 1.967 . S
O1011 C1019 1.258 . S
O1012 Co987 1.941 . S
O1012 C1019 1.266 . S
H1013 C1015 0.959 . S
H1014 C1015 0.961 . S
C1015 C1005 1.510 . S
C1015 H1013 0.959 . S
C1015 H1014 0.961 . S
C1015 H1016 0.960 . S
H1016 C1015 0.960 . S
H1017 N997 0.862 . S
O1018 Co986 1.920 . S
O1018 C991 1.289 . S
C1019 O1011 1.258 . S
C1019 O1012 1.266 . S
Co1020 O1023 1.970 . S
Co1020 N1037 1.989 . S
Co1020 O1045 1.967 . S
Co1020 O1052 1.920 . S
Co1021 O1024 1.966 . S
Co1021 N1030 2.022 . S
Co1021 N1038 1.993 . S
Co1021 O1046 1.941 . S
C1022 O1023 1.258 . S
C1022 O1024 1.263 . S
O1023 Co1020 1.970 . S
O1023 C1022 1.258 . S
O1024 Co1021 1.966 . S
O1024 C1022 1.263 . S
C1025 O1026 1.235 . S
C1025 O1052 1.289 . S
O1026 C1025 1.235 . S
C1027 C1029 1.400 . S
C1027 N1030 1.351 . S
C1027 C1032 1.501 . S
C1028 C1029 1.387 . S
C1028 N1031 1.341 . S
C1029 C1027 1.400 . S
C1029 C1028 1.387 . S
N1030 Co1021 2.022 . S
N1030 C1027 1.351 . S
N1030 N1031 1.365 . S
N1031 C1028 1.341 . S
N1031 N1030 1.365 . S
N1031 H1051 0.862 . S
C1032 C1027 1.501 . S
C1032 H1033 0.961 . S
C1032 H1034 0.961 . S
C1032 H1035 0.960 . S
H1033 C1032 0.961 . S
H1034 C1032 0.961 . S
H1035 C1032 0.960 . S
C1036 N1037 1.342 . S
C1036 C1040 1.401 . S
C1036 C1041 1.499 . S
N1037 Co1020 1.989 . S
N1037 C1036 1.342 . S
N1037 N1038 1.388 . S
N1038 Co1021 1.993 . S
N1038 N1037 1.388 . S
N1038 C1039 1.346 . S
C1039 N1038 1.346 . S
C1039 C1040 1.396 . S
C1039 C1049 1.510 . S
C1040 C1036 1.401 . S
C1040 C1039 1.396 . S
C1041 C1036 1.499 . S
C1041 H1042 0.959 . S
C1041 H1043 0.960 . S
C1041 H1044 0.961 . S
H1042 C1041 0.959 . S
H1043 C1041 0.960 . S
H1044 C1041 0.961 . S
O1045 Co1020 1.967 . S
O1045 C1053 1.258 . S
O1046 Co1021 1.941 . S
O1046 C1053 1.266 . S
H1047 C1049 0.959 . S
H1048 C1049 0.961 . S
C1049 C1039 1.510 . S
C1049 H1047 0.959 . S
C1049 H1048 0.961 . S
C1049 H1050 0.960 . S
H1050 C1049 0.960 . S
H1051 N1031 0.862 . S
O1052 Co1020 1.920 . S
O1052 C1025 1.289 . S
C1053 O1045 1.258 . S
C1053 O1046 1.266 . S
Co1054 O1057 1.970 . S
Co1054 N1071 1.989 . S
Co1054 O1079 1.967 . S
Co1054 O1086 1.920 . S
Co1055 O1058 1.966 . S
Co1055 N1064 2.022 . S
Co1055 N1072 1.993 . S
Co1055 O1080 1.941 . S
C1056 O1057 1.258 . S
C1056 O1058 1.263 . S
O1057 Co1054 1.970 . S
O1057 C1056 1.258 . S
O1058 Co1055 1.966 . S
O1058 C1056 1.263 . S
C1059 O1060 1.235 . S
C1059 O1086 1.289 . S
O1060 C1059 1.235 . S
C1061 C1063 1.400 . S
C1061 N1064 1.351 . S
C1061 C1066 1.501 . S
C1062 C1063 1.387 . S
C1062 N1065 1.341 . S
C1063 C1061 1.400 . S
C1063 C1062 1.387 . S
N1064 Co1055 2.022 . S
N1064 C1061 1.351 . S
N1064 N1065 1.365 . S
N1065 C1062 1.341 . S
N1065 N1064 1.365 . S
N1065 H1085 0.862 . S
C1066 C1061 1.501 . S
C1066 H1067 0.961 . S
C1066 H1068 0.961 . S
C1066 H1069 0.960 . S
H1067 C1066 0.961 . S
H1068 C1066 0.961 . S
H1069 C1066 0.960 . S
C1070 N1071 1.342 . S
C1070 C1074 1.401 . S
C1070 C1075 1.499 . S
N1071 Co1054 1.989 . S
N1071 C1070 1.342 . S
N1071 N1072 1.388 . S
N1072 Co1055 1.993 . S
N1072 N1071 1.388 . S
N1072 C1073 1.346 . S
C1073 N1072 1.346 . S
C1073 C1074 1.396 . S
C1073 C1083 1.510 . S
C1074 C1070 1.401 . S
C1074 C1073 1.396 . S
C1075 C1070 1.499 . S
C1075 H1076 0.959 . S
C1075 H1077 0.960 . S
C1075 H1078 0.961 . S
H1076 C1075 0.959 . S
H1077 C1075 0.960 . S
H1078 C1075 0.961 . S
O1079 Co1054 1.967 . S
O1079 C1087 1.258 . S
O1080 Co1055 1.941 . S
O1080 C1087 1.266 . S
H1081 C1083 0.959 . S
H1082 C1083 0.961 . S
C1083 C1073 1.510 . S
C1083 H1081 0.959 . S
C1083 H1082 0.961 . S
C1083 H1084 0.960 . S
H1084 C1083 0.960 . S
H1085 N1065 0.862 . S
O1086 Co1054 1.920 . S
O1086 C1059 1.289 . S
C1087 O1079 1.258 . S
C1087 O1080 1.266 . S
Co1088 O1091 1.970 . S
Co1088 N1105 1.989 . S
Co1088 O1113 1.967 . S
Co1088 O1120 1.920 . S
Co1089 O1092 1.966 . S
Co1089 N1098 2.022 . S
Co1089 N1106 1.993 . S
Co1089 O1114 1.941 . S
C1090 O1091 1.258 . S
C1090 O1092 1.263 . S
O1091 Co1088 1.970 . S
O1091 C1090 1.258 . S
O1092 Co1089 1.966 . S
O1092 C1090 1.263 . S
C1093 O1094 1.235 . S
C1093 O1120 1.289 . S
O1094 C1093 1.235 . S
C1095 C1097 1.400 . S
C1095 N1098 1.351 . S
C1095 C1100 1.501 . S
C1096 C1097 1.387 . S
C1096 N1099 1.341 . S
C1097 C1095 1.400 . S
C1097 C1096 1.387 . S
N1098 Co1089 2.022 . S
N1098 C1095 1.351 . S
N1098 N1099 1.365 . S
N1099 C1096 1.341 . S
N1099 N1098 1.365 . S
N1099 H1119 0.862 . S
C1100 C1095 1.501 . S
C1100 H1101 0.961 . S
C1100 H1102 0.961 . S
C1100 H1103 0.960 . S
H1101 C1100 0.961 . S
H1102 C1100 0.961 . S
H1103 C1100 0.960 . S
C1104 N1105 1.342 . S
C1104 C1108 1.401 . S
C1104 C1109 1.499 . S
N1105 Co1088 1.989 . S
N1105 C1104 1.342 . S
N1105 N1106 1.388 . S
N1106 Co1089 1.993 . S
N1106 N1105 1.388 . S
N1106 C1107 1.346 . S
C1107 N1106 1.346 . S
C1107 C1108 1.396 . S
C1107 C1117 1.510 . S
C1108 C1104 1.401 . S
C1108 C1107 1.396 . S
C1109 C1104 1.499 . S
C1109 H1110 0.959 . S
C1109 H1111 0.960 . S
C1109 H1112 0.961 . S
H1110 C1109 0.959 . S
H1111 C1109 0.960 . S
H1112 C1109 0.961 . S
O1113 Co1088 1.967 . S
O1113 C1121 1.258 . S
O1114 Co1089 1.941 . S
O1114 C1121 1.266 . S
H1115 C1117 0.959 . S
H1116 C1117 0.961 . S
C1117 C1107 1.510 . S
C1117 H1115 0.959 . S
C1117 H1116 0.961 . S
C1117 H1118 0.960 . S
H1118 C1117 0.960 . S
H1119 N1099 0.862 . S
O1120 Co1088 1.920 . S
O1120 C1093 1.289 . S
C1121 O1113 1.258 . S
C1121 O1114 1.266 . S
Co1122 O1125 1.970 . S
Co1122 N1139 1.989 . S
Co1122 O1147 1.967 . S
Co1122 O1154 1.920 . S
Co1123 O1126 1.966 . S
Co1123 N1132 2.022 . S
Co1123 N1140 1.993 . S
Co1123 O1148 1.941 . S
C1124 O1125 1.258 . S
C1124 O1126 1.263 . S
O1125 Co1122 1.970 . S
O1125 C1124 1.258 . S
O1126 Co1123 1.966 . S
O1126 C1124 1.263 . S
C1127 O1128 1.235 . S
C1127 O1154 1.289 . S
O1128 C1127 1.235 . S
C1129 C1131 1.400 . S
C1129 N1132 1.351 . S
C1129 C1134 1.501 . S
C1130 C1131 1.387 . S
C1130 N1133 1.341 . S
C1131 C1129 1.400 . S
C1131 C1130 1.387 . S
N1132 Co1123 2.022 . S
N1132 C1129 1.351 . S
N1132 N1133 1.365 . S
N1133 C1130 1.341 . S
N1133 N1132 1.365 . S
N1133 H1153 0.862 . S
C1134 C1129 1.501 . S
C1134 H1135 0.961 . S
C1134 H1136 0.961 . S
C1134 H1137 0.960 . S
H1135 C1134 0.961 . S
H1136 C1134 0.961 . S
H1137 C1134 0.960 . S
C1138 N1139 1.342 . S
C1138 C1142 1.401 . S
C1138 C1143 1.499 . S
N1139 Co1122 1.989 . S
N1139 C1138 1.342 . S
N1139 N1140 1.388 . S
N1140 Co1123 1.993 . S
N1140 N1139 1.388 . S
N1140 C1141 1.346 . S
C1141 N1140 1.346 . S
C1141 C1142 1.396 . S
C1141 C1151 1.510 . S
C1142 C1138 1.401 . S
C1142 C1141 1.396 . S
C1143 C1138 1.499 . S
C1143 H1144 0.959 . S
C1143 H1145 0.960 . S
C1143 H1146 0.961 . S
H1144 C1143 0.959 . S
H1145 C1143 0.960 . S
H1146 C1143 0.961 . S
O1147 Co1122 1.967 . S
O1147 C1155 1.258 . S
O1148 Co1123 1.941 . S
O1148 C1155 1.266 . S
H1149 C1151 0.959 . S
H1150 C1151 0.961 . S
C1151 C1141 1.510 . S
C1151 H1149 0.959 . S
C1151 H1150 0.961 . S
C1151 H1152 0.960 . S
H1152 C1151 0.960 . S
H1153 N1133 0.862 . S
O1154 Co1122 1.920 . S
O1154 C1127 1.289 . S
C1155 O1147 1.258 . S
C1155 O1148 1.266 . S
Co1156 O1159 1.970 . S
Co1156 N1173 1.989 . S
Co1156 O1181 1.967 . S
Co1156 O1188 1.920 . S
Co1157 O1160 1.966 . S
Co1157 N1166 2.022 . S
Co1157 N1174 1.993 . S
Co1157 O1182 1.941 . S
C1158 O1159 1.258 . S
C1158 O1160 1.263 . S
O1159 Co1156 1.970 . S
O1159 C1158 1.258 . S
O1160 Co1157 1.966 . S
O1160 C1158 1.263 . S
C1161 O1162 1.235 . S
C1161 O1188 1.289 . S
O1162 C1161 1.235 . S
C1163 C1165 1.400 . S
C1163 N1166 1.351 . S
C1163 C1168 1.501 . S
C1164 C1165 1.387 . S
C1164 N1167 1.341 . S
C1165 C1163 1.400 . S
C1165 C1164 1.387 . S
N1166 Co1157 2.022 . S
N1166 C1163 1.351 . S
N1166 N1167 1.365 . S
N1167 C1164 1.341 . S
N1167 N1166 1.365 . S
N1167 H1187 0.862 . S
C1168 C1163 1.501 . S
C1168 H1169 0.961 . S
C1168 H1170 0.961 . S
C1168 H1171 0.960 . S
H1169 C1168 0.961 . S
H1170 C1168 0.961 . S
H1171 C1168 0.960 . S
C1172 N1173 1.342 . S
C1172 C1176 1.401 . S
C1172 C1177 1.499 . S
N1173 Co1156 1.989 . S
N1173 C1172 1.342 . S
N1173 N1174 1.388 . S
N1174 Co1157 1.993 . S
N1174 N1173 1.388 . S
N1174 C1175 1.346 . S
C1175 N1174 1.346 . S
C1175 C1176 1.396 . S
C1175 C1185 1.510 . S
C1176 C1172 1.401 . S
C1176 C1175 1.396 . S
C1177 C1172 1.499 . S
C1177 H1178 0.959 . S
C1177 H1179 0.960 . S
C1177 H1180 0.961 . S
H1178 C1177 0.959 . S
H1179 C1177 0.960 . S
H1180 C1177 0.961 . S
O1181 Co1156 1.967 . S
O1181 C1189 1.258 . S
O1182 Co1157 1.941 . S
O1182 C1189 1.266 . S
H1183 C1185 0.959 . S
H1184 C1185 0.961 . S
C1185 C1175 1.510 . S
C1185 H1183 0.959 . S
C1185 H1184 0.961 . S
C1185 H1186 0.960 . S
H1186 C1185 0.960 . S
H1187 N1167 0.862 . S
O1188 Co1156 1.920 . S
O1188 C1161 1.289 . S
C1189 O1181 1.258 . S
C1189 O1182 1.266 . S
Co1190 O1193 1.970 . S
Co1190 N1207 1.989 . S
Co1190 O1215 1.967 . S
Co1190 O1222 1.920 . S
Co1191 O1194 1.966 . S
Co1191 N1200 2.022 . S
Co1191 N1208 1.993 . S
Co1191 O1216 1.941 . S
C1192 O1193 1.258 . S
C1192 O1194 1.263 . S
O1193 Co1190 1.970 . S
O1193 C1192 1.258 . S
O1194 Co1191 1.966 . S
O1194 C1192 1.263 . S
C1195 O1196 1.235 . S
C1195 O1222 1.289 . S
O1196 C1195 1.235 . S
C1197 C1199 1.400 . S
C1197 N1200 1.351 . S
C1197 C1202 1.501 . S
C1198 C1199 1.387 . S
C1198 N1201 1.341 . S
C1199 C1197 1.400 . S
C1199 C1198 1.387 . S
N1200 Co1191 2.022 . S
N1200 C1197 1.351 . S
N1200 N1201 1.365 . S
N1201 C1198 1.341 . S
N1201 N1200 1.365 . S
N1201 H1221 0.862 . S
C1202 C1197 1.501 . S
C1202 H1203 0.961 . S
C1202 H1204 0.961 . S
C1202 H1205 0.960 . S
H1203 C1202 0.961 . S
H1204 C1202 0.961 . S
H1205 C1202 0.960 . S
C1206 N1207 1.342 . S
C1206 C1210 1.401 . S
C1206 C1211 1.499 . S
N1207 Co1190 1.989 . S
N1207 C1206 1.342 . S
N1207 N1208 1.388 . S
N1208 Co1191 1.993 . S
N1208 N1207 1.388 . S
N1208 C1209 1.346 . S
C1209 N1208 1.346 . S
C1209 C1210 1.396 . S
C1209 C1219 1.510 . S
C1210 C1206 1.401 . S
C1210 C1209 1.396 . S
C1211 C1206 1.499 . S
C1211 H1212 0.959 . S
C1211 H1213 0.960 . S
C1211 H1214 0.961 . S
H1212 C1211 0.959 . S
H1213 C1211 0.960 . S
H1214 C1211 0.961 . S
O1215 Co1190 1.967 . S
O1215 C1223 1.258 . S
O1216 Co1191 1.941 . S
O1216 C1223 1.266 . S
H1217 C1219 0.959 . S
H1218 C1219 0.961 . S
C1219 C1209 1.510 . S
C1219 H1217 0.959 . S
C1219 H1218 0.961 . S
C1219 H1220 0.960 . S
H1220 C1219 0.960 . S
H1221 N1201 0.862 . S
O1222 Co1190 1.920 . S
O1222 C1195 1.289 . S
C1223 O1215 1.258 . S
C1223 O1216 1.266 . S
Co1224 O1227 1.970 . S
Co1224 N1241 1.989 . S
Co1224 O1249 1.967 . S
Co1224 O1256 1.920 . S
Co1225 O1228 1.966 . S
Co1225 N1234 2.022 . S
Co1225 N1242 1.993 . S
Co1225 O1250 1.941 . S
C1226 O1227 1.258 . S
C1226 O1228 1.263 . S
O1227 Co1224 1.970 . S
O1227 C1226 1.258 . S
O1228 Co1225 1.966 . S
O1228 C1226 1.263 . S
C1229 O1230 1.235 . S
C1229 O1256 1.289 . S
O1230 C1229 1.235 . S
C1231 C1233 1.400 . S
C1231 N1234 1.351 . S
C1231 C1236 1.501 . S
C1232 C1233 1.387 . S
C1232 N1235 1.341 . S
C1233 C1231 1.400 . S
C1233 C1232 1.387 . S
N1234 Co1225 2.022 . S
N1234 C1231 1.351 . S
N1234 N1235 1.365 . S
N1235 C1232 1.341 . S
N1235 N1234 1.365 . S
N1235 H1255 0.862 . S
C1236 C1231 1.501 . S
C1236 H1237 0.961 . S
C1236 H1238 0.961 . S
C1236 H1239 0.960 . S
H1237 C1236 0.961 . S
H1238 C1236 0.961 . S
H1239 C1236 0.960 . S
C1240 N1241 1.342 . S
C1240 C1244 1.401 . S
C1240 C1245 1.499 . S
N1241 Co1224 1.989 . S
N1241 C1240 1.342 . S
N1241 N1242 1.388 . S
N1242 Co1225 1.993 . S
N1242 N1241 1.388 . S
N1242 C1243 1.346 . S
C1243 N1242 1.346 . S
C1243 C1244 1.396 . S
C1243 C1253 1.510 . S
C1244 C1240 1.401 . S
C1244 C1243 1.396 . S
C1245 C1240 1.499 . S
C1245 H1246 0.959 . S
C1245 H1247 0.960 . S
C1245 H1248 0.961 . S
H1246 C1245 0.959 . S
H1247 C1245 0.960 . S
H1248 C1245 0.961 . S
O1249 Co1224 1.967 . S
O1249 C1257 1.258 . S
O1250 Co1225 1.941 . S
O1250 C1257 1.266 . S
H1251 C1253 0.959 . S
H1252 C1253 0.961 . S
C1253 C1243 1.510 . S
C1253 H1251 0.959 . S
C1253 H1252 0.961 . S
C1253 H1254 0.960 . S
H1254 C1253 0.960 . S
H1255 N1235 0.862 . S
O1256 Co1224 1.920 . S
O1256 C1229 1.289 . S
C1257 O1249 1.258 . S
C1257 O1250 1.266 . S
Co1258 O1261 1.970 . S
Co1258 N1275 1.989 . S
Co1258 O1283 1.967 . S
Co1258 O1290 1.920 . S
Co1259 O1262 1.966 . S
Co1259 N1268 2.022 . S
Co1259 N1276 1.993 . S
Co1259 O1284 1.941 . S
C1260 O1261 1.258 . S
C1260 O1262 1.263 . S
O1261 Co1258 1.970 . S
O1261 C1260 1.258 . S
O1262 Co1259 1.966 . S
O1262 C1260 1.263 . S
C1263 O1264 1.235 . S
C1263 O1290 1.289 . S
O1264 C1263 1.235 . S
C1265 C1267 1.400 . S
C1265 N1268 1.351 . S
C1265 C1270 1.501 . S
C1266 C1267 1.387 . S
C1266 N1269 1.341 . S
C1267 C1265 1.400 . S
C1267 C1266 1.387 . S
N1268 Co1259 2.022 . S
N1268 C1265 1.351 . S
N1268 N1269 1.365 . S
N1269 C1266 1.341 . S
N1269 N1268 1.365 . S
N1269 H1289 0.862 . S
C1270 C1265 1.501 . S
C1270 H1271 0.961 . S
C1270 H1272 0.961 . S
C1270 H1273 0.960 . S
H1271 C1270 0.961 . S
H1272 C1270 0.961 . S
H1273 C1270 0.960 . S
C1274 N1275 1.342 . S
C1274 C1278 1.401 . S
C1274 C1279 1.499 . S
N1275 Co1258 1.989 . S
N1275 C1274 1.342 . S
N1275 N1276 1.388 . S
N1276 Co1259 1.993 . S
N1276 N1275 1.388 . S
N1276 C1277 1.346 . S
C1277 N1276 1.346 . S
C1277 C1278 1.396 . S
C1277 C1287 1.510 . S
C1278 C1274 1.401 . S
C1278 C1277 1.396 . S
C1279 C1274 1.499 . S
C1279 H1280 0.959 . S
C1279 H1281 0.960 . S
C1279 H1282 0.961 . S
H1280 C1279 0.959 . S
H1281 C1279 0.960 . S
H1282 C1279 0.961 . S
O1283 Co1258 1.967 . S
O1283 C1291 1.258 . S
O1284 Co1259 1.941 . S
O1284 C1291 1.266 . S
H1285 C1287 0.959 . S
H1286 C1287 0.961 . S
C1287 C1277 1.510 . S
C1287 H1285 0.959 . S
C1287 H1286 0.961 . S
C1287 H1288 0.960 . S
H1288 C1287 0.960 . S
H1289 N1269 0.862 . S
O1290 Co1258 1.920 . S
O1290 C1263 1.289 . S
C1291 O1283 1.258 . S
C1291 O1284 1.266 . S
Co1292 O1295 1.970 . S
Co1292 N1309 1.989 . S
Co1292 O1317 1.967 . S
Co1292 O1324 1.920 . S
Co1293 O1296 1.966 . S
Co1293 N1302 2.022 . S
Co1293 N1310 1.993 . S
Co1293 O1318 1.941 . S
C1294 O1295 1.258 . S
C1294 O1296 1.263 . S
O1295 Co1292 1.970 . S
O1295 C1294 1.258 . S
O1296 Co1293 1.966 . S
O1296 C1294 1.263 . S
C1297 O1298 1.235 . S
C1297 O1324 1.289 . S
O1298 C1297 1.235 . S
C1299 C1301 1.400 . S
C1299 N1302 1.351 . S
C1299 C1304 1.501 . S
C1300 C1301 1.387 . S
C1300 N1303 1.341 . S
C1301 C1299 1.400 . S
C1301 C1300 1.387 . S
N1302 Co1293 2.022 . S
N1302 C1299 1.351 . S
N1302 N1303 1.365 . S
N1303 C1300 1.341 . S
N1303 N1302 1.365 . S
N1303 H1323 0.862 . S
C1304 C1299 1.501 . S
C1304 H1305 0.961 . S
C1304 H1306 0.961 . S
C1304 H1307 0.960 . S
H1305 C1304 0.961 . S
H1306 C1304 0.961 . S
H1307 C1304 0.960 . S
C1308 N1309 1.342 . S
C1308 C1312 1.401 . S
C1308 C1313 1.499 . S
N1309 Co1292 1.989 . S
N1309 C1308 1.342 . S
N1309 N1310 1.388 . S
N1310 Co1293 1.993 . S
N1310 N1309 1.388 . S
N1310 C1311 1.346 . S
C1311 N1310 1.346 . S
C1311 C1312 1.396 . S
C1311 C1321 1.510 . S
C1312 C1308 1.401 . S
C1312 C1311 1.396 . S
C1313 C1308 1.499 . S
C1313 H1314 0.959 . S
C1313 H1315 0.960 . S
C1313 H1316 0.961 . S
H1314 C1313 0.959 . S
H1315 C1313 0.960 . S
H1316 C1313 0.961 . S
O1317 Co1292 1.967 . S
O1317 C1325 1.258 . S
O1318 Co1293 1.941 . S
O1318 C1325 1.266 . S
H1319 C1321 0.959 . S
H1320 C1321 0.961 . S
C1321 C1311 1.510 . S
C1321 H1319 0.959 . S
C1321 H1320 0.961 . S
C1321 H1322 0.960 . S
H1322 C1321 0.960 . S
H1323 N1303 0.862 . S
O1324 Co1292 1.920 . S
O1324 C1297 1.289 . S
C1325 O1317 1.258 . S
C1325 O1318 1.266 . S
Co1326 O1329 1.970 . S
Co1326 N1343 1.989 . S
Co1326 O1351 1.967 . S
Co1326 O1358 1.920 . S
Co1327 O1330 1.966 . S
Co1327 N1336 2.022 . S
Co1327 N1344 1.993 . S
Co1327 O1352 1.941 . S
C1328 O1329 1.258 . S
C1328 O1330 1.263 . S
O1329 Co1326 1.970 . S
O1329 C1328 1.258 . S
O1330 Co1327 1.966 . S
O1330 C1328 1.263 . S
C1331 O1332 1.235 . S
C1331 O1358 1.289 . S
O1332 C1331 1.235 . S
C1333 C1335 1.400 . S
C1333 N1336 1.351 . S
C1333 C1338 1.501 . S
C1334 C1335 1.387 . S
C1334 N1337 1.341 . S
C1335 C1333 1.400 . S
C1335 C1334 1.387 . S
N1336 Co1327 2.022 . S
N1336 C1333 1.351 . S
N1336 N1337 1.365 . S
N1337 C1334 1.341 . S
N1337 N1336 1.365 . S
N1337 H1357 0.862 . S
C1338 C1333 1.501 . S
C1338 H1339 0.961 . S
C1338 H1340 0.961 . S
C1338 H1341 0.960 . S
H1339 C1338 0.961 . S
H1340 C1338 0.961 . S
H1341 C1338 0.960 . S
C1342 N1343 1.342 . S
C1342 C1346 1.401 . S
C1342 C1347 1.499 . S
N1343 Co1326 1.989 . S
N1343 C1342 1.342 . S
N1343 N1344 1.388 . S
N1344 Co1327 1.993 . S
N1344 N1343 1.388 . S
N1344 C1345 1.346 . S
C1345 N1344 1.346 . S
C1345 C1346 1.396 . S
C1345 C1355 1.510 . S
C1346 C1342 1.401 . S
C1346 C1345 1.396 . S
C1347 C1342 1.499 . S
C1347 H1348 0.959 . S
C1347 H1349 0.960 . S
C1347 H1350 0.961 . S
H1348 C1347 0.959 . S
H1349 C1347 0.960 . S
H1350 C1347 0.961 . S
O1351 Co1326 1.967 . S
O1351 C1359 1.258 . S
O1352 Co1327 1.941 . S
O1352 C1359 1.266 . S
H1353 C1355 0.959 . S
H1354 C1355 0.961 . S
C1355 C1345 1.510 . S
C1355 H1353 0.959 . S
C1355 H1354 0.961 . S
C1355 H1356 0.960 . S
H1356 C1355 0.960 . S
H1357 N1337 0.862 . S
O1358 Co1326 1.920 . S
O1358 C1331 1.289 . S
C1359 O1351 1.258 . S
C1359 O1352 1.266 . S
Co1360 O1363 1.970 . S
Co1360 N1377 1.989 . S
Co1360 O1385 1.967 . S
Co1360 O1392 1.920 . S
Co1361 O1364 1.966 . S
Co1361 N1370 2.022 . S
Co1361 N1378 1.993 . S
Co1361 O1386 1.941 . S
C1362 O1363 1.258 . S
C1362 O1364 1.263 . S
O1363 Co1360 1.970 . S
O1363 C1362 1.258 . S
O1364 Co1361 1.966 . S
O1364 C1362 1.263 . S
C1365 O1366 1.235 . S
C1365 O1392 1.289 . S
O1366 C1365 1.235 . S
C1367 C1369 1.400 . S
C1367 N1370 1.351 . S
C1367 C1372 1.501 . S
C1368 C1369 1.387 . S
C1368 N1371 1.341 . S
C1369 C1367 1.400 . S
C1369 C1368 1.387 . S
N1370 Co1361 2.022 . S
N1370 C1367 1.351 . S
N1370 N1371 1.365 . S
N1371 C1368 1.341 . S
N1371 N1370 1.365 . S
N1371 H1391 0.862 . S
C1372 C1367 1.501 . S
C1372 H1373 0.961 . S
C1372 H1374 0.961 . S
C1372 H1375 0.960 . S
H1373 C1372 0.961 . S
H1374 C1372 0.961 . S
H1375 C1372 0.960 . S
C1376 N1377 1.342 . S
C1376 C1380 1.401 . S
C1376 C1381 1.499 . S
N1377 Co1360 1.989 . S
N1377 C1376 1.342 . S
N1377 N1378 1.388 . S
N1378 Co1361 1.993 . S
N1378 N1377 1.388 . S
N1378 C1379 1.346 . S
C1379 N1378 1.346 . S
C1379 C1380 1.396 . S
C1379 C1389 1.510 . S
C1380 C1376 1.401 . S
C1380 C1379 1.396 . S
C1381 C1376 1.499 . S
C1381 H1382 0.959 . S
C1381 H1383 0.960 . S
C1381 H1384 0.961 . S
H1382 C1381 0.959 . S
H1383 C1381 0.960 . S
H1384 C1381 0.961 . S
O1385 Co1360 1.967 . S
O1385 C1393 1.258 . S
O1386 Co1361 1.941 . S
O1386 C1393 1.266 . S
H1387 C1389 0.959 . S
H1388 C1389 0.961 . S
C1389 C1379 1.510 . S
C1389 H1387 0.959 . S
C1389 H1388 0.961 . S
C1389 H1390 0.960 . S
H1390 C1389 0.960 . S
H1391 N1371 0.862 . S
O1392 Co1360 1.920 . S
O1392 C1365 1.289 . S
C1393 O1385 1.258 . S
C1393 O1386 1.266 . S
Co1394 O1397 1.970 . S
Co1394 N1411 1.989 . S
Co1394 O1419 1.967 . S
Co1394 O1426 1.920 . S
Co1395 O1398 1.966 . S
Co1395 N1404 2.022 . S
Co1395 N1412 1.993 . S
Co1395 O1420 1.941 . S
C1396 O1397 1.258 . S
C1396 O1398 1.263 . S
O1397 Co1394 1.970 . S
O1397 C1396 1.258 . S
O1398 Co1395 1.966 . S
O1398 C1396 1.263 . S
C1399 O1400 1.235 . S
C1399 O1426 1.289 . S
O1400 C1399 1.235 . S
C1401 C1403 1.400 . S
C1401 N1404 1.351 . S
C1401 C1406 1.501 . S
C1402 C1403 1.387 . S
C1402 N1405 1.341 . S
C1403 C1401 1.400 . S
C1403 C1402 1.387 . S
N1404 Co1395 2.022 . S
N1404 C1401 1.351 . S
N1404 N1405 1.365 . S
N1405 C1402 1.341 . S
N1405 N1404 1.365 . S
N1405 H1425 0.862 . S
C1406 C1401 1.501 . S
C1406 H1407 0.961 . S
C1406 H1408 0.961 . S
C1406 H1409 0.960 . S
H1407 C1406 0.961 . S
H1408 C1406 0.961 . S
H1409 C1406 0.960 . S
C1410 N1411 1.342 . S
C1410 C1414 1.401 . S
C1410 C1415 1.499 . S
N1411 Co1394 1.989 . S
N1411 C1410 1.342 . S
N1411 N1412 1.388 . S
N1412 Co1395 1.993 . S
N1412 N1411 1.388 . S
N1412 C1413 1.346 . S
C1413 N1412 1.346 . S
C1413 C1414 1.396 . S
C1413 C1423 1.510 . S
C1414 C1410 1.401 . S
C1414 C1413 1.396 . S
C1415 C1410 1.499 . S
C1415 H1416 0.959 . S
C1415 H1417 0.960 . S
C1415 H1418 0.961 . S
H1416 C1415 0.959 . S
H1417 C1415 0.960 . S
H1418 C1415 0.961 . S
O1419 Co1394 1.967 . S
O1419 C1427 1.258 . S
O1420 Co1395 1.941 . S
O1420 C1427 1.266 . S
H1421 C1423 0.959 . S
H1422 C1423 0.961 . S
C1423 C1413 1.510 . S
C1423 H1421 0.959 . S
C1423 H1422 0.961 . S
C1423 H1424 0.960 . S
H1424 C1423 0.960 . S
H1425 N1405 0.862 . S
O1426 Co1394 1.920 . S
O1426 C1399 1.289 . S
C1427 O1419 1.258 . S
C1427 O1420 1.266 . S
Co1428 O1431 1.970 . S
Co1428 N1445 1.989 . S
Co1428 O1453 1.967 . S
Co1428 O1460 1.920 . S
Co1429 O1432 1.966 . S
Co1429 N1438 2.022 . S
Co1429 N1446 1.993 . S
Co1429 O1454 1.941 . S
C1430 O1431 1.258 . S
C1430 O1432 1.263 . S
O1431 Co1428 1.970 . S
O1431 C1430 1.258 . S
O1432 Co1429 1.966 . S
O1432 C1430 1.263 . S
C1433 O1434 1.235 . S
C1433 O1460 1.289 . S
O1434 C1433 1.235 . S
C1435 C1437 1.400 . S
C1435 N1438 1.351 . S
C1435 C1440 1.501 . S
C1436 C1437 1.387 . S
C1436 N1439 1.341 . S
C1437 C1435 1.400 . S
C1437 C1436 1.387 . S
N1438 Co1429 2.022 . S
N1438 C1435 1.351 . S
N1438 N1439 1.365 . S
N1439 C1436 1.341 . S
N1439 N1438 1.365 . S
N1439 H1459 0.862 . S
C1440 C1435 1.501 . S
C1440 H1441 0.961 . S
C1440 H1442 0.961 . S
C1440 H1443 0.960 . S
H1441 C1440 0.961 . S
H1442 C1440 0.961 . S
H1443 C1440 0.960 . S
C1444 N1445 1.342 . S
C1444 C1448 1.401 . S
C1444 C1449 1.499 . S
N1445 Co1428 1.989 . S
N1445 C1444 1.342 . S
N1445 N1446 1.388 . S
N1446 Co1429 1.993 . S
N1446 N1445 1.388 . S
N1446 C1447 1.346 . S
C1447 N1446 1.346 . S
C1447 C1448 1.396 . S
C1447 C1457 1.510 . S
C1448 C1444 1.401 . S
C1448 C1447 1.396 . S
C1449 C1444 1.499 . S
C1449 H1450 0.959 . S
C1449 H1451 0.960 1_545 S
C1449 H1452 0.961 1_545 S
H1450 C1449 0.959 . S
H1451 C1449 0.960 1_565 S
H1452 C1449 0.961 1_565 S
O1453 Co1428 1.967 . S
O1453 C1461 1.258 . S
O1454 Co1429 1.941 . S
O1454 C1461 1.266 . S
H1455 C1457 0.959 . S
H1456 C1457 0.961 . S
C1457 C1447 1.510 . S
C1457 H1455 0.959 . S
C1457 H1456 0.961 . S
C1457 H1458 0.960 . S
H1458 C1457 0.960 . S
H1459 N1439 0.862 . S
O1460 Co1428 1.920 . S
O1460 C1433 1.289 . S
C1461 O1453 1.258 . S
C1461 O1454 1.266 . S
Co1462 O1465 1.970 . S
Co1462 N1479 1.989 . S
Co1462 O1487 1.967 . S
Co1462 O1494 1.920 . S
Co1463 O1466 1.966 . S
Co1463 N1472 2.022 . S
Co1463 N1480 1.993 . S
Co1463 O1488 1.941 . S
C1464 O1465 1.258 . S
C1464 O1466 1.263 . S
O1465 Co1462 1.970 . S
O1465 C1464 1.258 . S
O1466 Co1463 1.966 . S
O1466 C1464 1.263 . S
C1467 O1468 1.235 . S
C1467 O1494 1.289 . S
O1468 C1467 1.235 . S
C1469 C1471 1.400 . S
C1469 N1472 1.351 . S
C1469 C1474 1.501 . S
C1470 C1471 1.387 . S
C1470 N1473 1.341 . S
C1471 C1469 1.400 . S
C1471 C1470 1.387 . S
N1472 Co1463 2.022 . S
N1472 C1469 1.351 . S
N1472 N1473 1.365 . S
N1473 C1470 1.341 . S
N1473 N1472 1.365 . S
N1473 H1493 0.862 . S
C1474 C1469 1.501 . S
C1474 H1475 0.961 . S
C1474 H1476 0.961 . S
C1474 H1477 0.960 . S
H1475 C1474 0.961 . S
H1476 C1474 0.961 . S
H1477 C1474 0.960 . S
C1478 N1479 1.342 . S
C1478 C1482 1.401 . S
C1478 C1483 1.499 . S
N1479 Co1462 1.989 . S
N1479 C1478 1.342 . S
N1479 N1480 1.388 . S
N1480 Co1463 1.993 . S
N1480 N1479 1.388 . S
N1480 C1481 1.346 . S
C1481 N1480 1.346 . S
C1481 C1482 1.396 . S
C1481 C1491 1.510 . S
C1482 C1478 1.401 . S
C1482 C1481 1.396 . S
C1483 C1478 1.499 . S
C1483 H1484 0.959 . S
C1483 H1485 0.960 . S
C1483 H1486 0.961 . S
H1484 C1483 0.959 . S
H1485 C1483 0.960 . S
H1486 C1483 0.961 . S
O1487 Co1462 1.967 . S
O1487 C1495 1.258 . S
O1488 Co1463 1.941 . S
O1488 C1495 1.266 . S
H1489 C1491 0.959 . S
H1490 C1491 0.961 . S
C1491 C1481 1.510 . S
C1491 H1489 0.959 . S
C1491 H1490 0.961 . S
C1491 H1492 0.960 . S
H1492 C1491 0.960 . S
H1493 N1473 0.862 . S
O1494 Co1462 1.920 . S
O1494 C1467 1.289 . S
C1495 O1487 1.258 . S
C1495 O1488 1.266 . S
Co1496 O1499 1.970 . S
Co1496 N1513 1.989 . S
Co1496 O1521 1.967 . S
Co1496 O1528 1.920 . S
Co1497 O1500 1.966 . S
Co1497 N1506 2.022 . S
Co1497 N1514 1.993 . S
Co1497 O1522 1.941 . S
C1498 O1499 1.258 . S
C1498 O1500 1.263 . S
O1499 Co1496 1.970 . S
O1499 C1498 1.258 . S
O1500 Co1497 1.966 . S
O1500 C1498 1.263 . S
C1501 O1502 1.235 . S
C1501 O1528 1.289 . S
O1502 C1501 1.235 . S
C1503 C1505 1.400 . S
C1503 N1506 1.351 . S
C1503 C1508 1.501 . S
C1504 C1505 1.387 . S
C1504 N1507 1.341 . S
C1505 C1503 1.400 . S
C1505 C1504 1.387 . S
N1506 Co1497 2.022 . S
N1506 C1503 1.351 . S
N1506 N1507 1.365 . S
N1507 C1504 1.341 . S
N1507 N1506 1.365 . S
N1507 H1527 0.862 . S
C1508 C1503 1.501 . S
C1508 H1509 0.961 . S
C1508 H1510 0.961 . S
C1508 H1511 0.960 . S
H1509 C1508 0.961 . S
H1510 C1508 0.961 . S
H1511 C1508 0.960 . S
C1512 N1513 1.342 . S
C1512 C1516 1.401 . S
C1512 C1517 1.499 . S
N1513 Co1496 1.989 . S
N1513 C1512 1.342 . S
N1513 N1514 1.388 . S
N1514 Co1497 1.993 . S
N1514 N1513 1.388 . S
N1514 C1515 1.346 . S
C1515 N1514 1.346 . S
C1515 C1516 1.396 . S
C1515 C1525 1.510 . S
C1516 C1512 1.401 . S
C1516 C1515 1.396 . S
C1517 C1512 1.499 . S
C1517 H1518 0.959 . S
C1517 H1519 0.960 1_565 S
C1517 H1520 0.961 1_565 S
H1518 C1517 0.959 . S
H1519 C1517 0.960 1_545 S
H1520 C1517 0.961 1_545 S
O1521 Co1496 1.967 . S
O1521 C1529 1.258 . S
O1522 Co1497 1.941 . S
O1522 C1529 1.266 . S
H1523 C1525 0.959 . S
H1524 C1525 0.961 . S
C1525 C1515 1.510 . S
C1525 H1523 0.959 . S
C1525 H1524 0.961 . S
C1525 H1526 0.960 . S
H1526 C1525 0.960 . S
H1527 N1507 0.862 . S
O1528 Co1496 1.920 . S
O1528 C1501 1.289 . S
C1529 O1521 1.258 . S
C1529 O1522 1.266 . S
Co1530 O1533 1.970 . S
Co1530 N1547 1.989 . S
Co1530 O1555 1.967 . S
Co1530 O1562 1.920 . S
Co1531 O1534 1.966 . S
Co1531 N1540 2.022 . S
Co1531 N1548 1.993 . S
Co1531 O1556 1.941 . S
C1532 O1533 1.258 . S
C1532 O1534 1.263 . S
O1533 Co1530 1.970 . S
O1533 C1532 1.258 . S
O1534 Co1531 1.966 . S
O1534 C1532 1.263 . S
C1535 O1536 1.235 . S
C1535 O1562 1.289 . S
O1536 C1535 1.235 . S
C1537 C1539 1.400 . S
C1537 N1540 1.351 . S
C1537 C1542 1.501 . S
C1538 C1539 1.387 . S
C1538 N1541 1.341 . S
C1539 C1537 1.400 . S
C1539 C1538 1.387 . S
N1540 Co1531 2.022 . S
N1540 C1537 1.351 . S
N1540 N1541 1.365 . S
N1541 C1538 1.341 . S
N1541 N1540 1.365 . S
N1541 H1561 0.862 . S
C1542 C1537 1.501 . S
C1542 H1543 0.961 . S
C1542 H1544 0.961 . S
C1542 H1545 0.960 . S
H1543 C1542 0.961 . S
H1544 C1542 0.961 . S
H1545 C1542 0.960 . S
C1546 N1547 1.342 . S
C1546 C1550 1.401 . S
C1546 C1551 1.499 . S
N1547 Co1530 1.989 . S
N1547 C1546 1.342 . S
N1547 N1548 1.388 . S
N1548 Co1531 1.993 . S
N1548 N1547 1.388 . S
N1548 C1549 1.346 . S
C1549 N1548 1.346 . S
C1549 C1550 1.396 . S
C1549 C1559 1.510 . S
C1550 C1546 1.401 . S
C1550 C1549 1.396 . S
C1551 C1546 1.499 . S
C1551 H1552 0.959 . S
C1551 H1553 0.960 . S
C1551 H1554 0.961 . S
H1552 C1551 0.959 . S
H1553 C1551 0.960 . S
H1554 C1551 0.961 . S
O1555 Co1530 1.967 . S
O1555 C1563 1.258 . S
O1556 Co1531 1.941 . S
O1556 C1563 1.266 . S
H1557 C1559 0.959 . S
H1558 C1559 0.961 . S
C1559 C1549 1.510 . S
C1559 H1557 0.959 . S
C1559 H1558 0.961 . S
C1559 H1560 0.960 . S
H1560 C1559 0.960 . S
H1561 N1541 0.862 . S
O1562 Co1530 1.920 . S
O1562 C1535 1.289 . S
C1563 O1555 1.258 . S
C1563 O1556 1.266 . S
Co1564 O1567 1.970 . S
Co1564 N1581 1.989 . S
Co1564 O1589 1.967 . S
Co1564 O1596 1.920 . S
Co1565 O1568 1.966 . S
Co1565 N1574 2.022 . S
Co1565 N1582 1.993 . S
Co1565 O1590 1.941 . S
C1566 O1567 1.258 . S
C1566 O1568 1.263 . S
O1567 Co1564 1.970 . S
O1567 C1566 1.258 . S
O1568 Co1565 1.966 . S
O1568 C1566 1.263 . S
C1569 O1570 1.235 . S
C1569 O1596 1.289 . S
O1570 C1569 1.235 . S
C1571 C1573 1.400 . S
C1571 N1574 1.351 . S
C1571 C1576 1.501 . S
C1572 C1573 1.387 . S
C1572 N1575 1.341 . S
C1573 C1571 1.400 . S
C1573 C1572 1.387 . S
N1574 Co1565 2.022 . S
N1574 C1571 1.351 . S
N1574 N1575 1.365 . S
N1575 C1572 1.341 . S
N1575 N1574 1.365 . S
N1575 H1595 0.862 . S
C1576 C1571 1.501 . S
C1576 H1577 0.961 . S
C1576 H1578 0.961 . S
C1576 H1579 0.960 . S
H1577 C1576 0.961 . S
H1578 C1576 0.961 . S
H1579 C1576 0.960 . S
C1580 N1581 1.342 . S
C1580 C1584 1.401 . S
C1580 C1585 1.499 . S
N1581 Co1564 1.989 . S
N1581 C1580 1.342 . S
N1581 N1582 1.388 . S
N1582 Co1565 1.993 . S
N1582 N1581 1.388 . S
N1582 C1583 1.346 . S
C1583 N1582 1.346 . S
C1583 C1584 1.396 . S
C1583 C1593 1.510 . S
C1584 C1580 1.401 . S
C1584 C1583 1.396 . S
C1585 C1580 1.499 . S
C1585 H1586 0.959 . S
C1585 H1587 0.960 1_565 S
C1585 H1588 0.961 1_565 S
H1586 C1585 0.959 . S
H1587 C1585 0.960 1_545 S
H1588 C1585 0.961 1_545 S
O1589 Co1564 1.967 . S
O1589 C1597 1.258 . S
O1590 Co1565 1.941 . S
O1590 C1597 1.266 . S
H1591 C1593 0.959 . S
H1592 C1593 0.961 . S
C1593 C1583 1.510 . S
C1593 H1591 0.959 . S
C1593 H1592 0.961 . S
C1593 H1594 0.960 . S
H1594 C1593 0.960 . S
H1595 N1575 0.862 . S
O1596 Co1564 1.920 . S
O1596 C1569 1.289 . S
C1597 O1589 1.258 . S
C1597 O1590 1.266 . S
Co1598 O1601 1.970 . S
Co1598 N1615 1.989 . S
Co1598 O1623 1.967 . S
Co1598 O1630 1.920 . S
Co1599 O1602 1.966 . S
Co1599 N1608 2.022 . S
Co1599 N1616 1.993 . S
Co1599 O1624 1.941 . S
C1600 O1601 1.258 . S
C1600 O1602 1.263 . S
O1601 Co1598 1.970 . S
O1601 C1600 1.258 . S
O1602 Co1599 1.966 . S
O1602 C1600 1.263 . S
C1603 O1604 1.235 . S
C1603 O1630 1.289 . S
O1604 C1603 1.235 . S
C1605 C1607 1.400 . S
C1605 N1608 1.351 . S
C1605 C1610 1.501 . S
C1606 C1607 1.387 . S
C1606 N1609 1.341 . S
C1607 C1605 1.400 . S
C1607 C1606 1.387 . S
N1608 Co1599 2.022 . S
N1608 C1605 1.351 . S
N1608 N1609 1.365 . S
N1609 C1606 1.341 . S
N1609 N1608 1.365 . S
N1609 H1629 0.862 . S
C1610 C1605 1.501 . S
C1610 H1611 0.961 . S
C1610 H1612 0.961 . S
C1610 H1613 0.960 . S
H1611 C1610 0.961 . S
H1612 C1610 0.961 . S
H1613 C1610 0.960 . S
C1614 N1615 1.342 . S
C1614 C1618 1.401 . S
C1614 C1619 1.499 . S
N1615 Co1598 1.989 . S
N1615 C1614 1.342 . S
N1615 N1616 1.388 . S
N1616 Co1599 1.993 . S
N1616 N1615 1.388 . S
N1616 C1617 1.346 . S
C1617 N1616 1.346 . S
C1617 C1618 1.396 . S
C1617 C1627 1.510 . S
C1618 C1614 1.401 . S
C1618 C1617 1.396 . S
C1619 C1614 1.499 . S
C1619 H1620 0.959 . S
C1619 H1621 0.960 . S
C1619 H1622 0.961 . S
H1620 C1619 0.959 . S
H1621 C1619 0.960 . S
H1622 C1619 0.961 . S
O1623 Co1598 1.967 . S
O1623 C1631 1.258 . S
O1624 Co1599 1.941 . S
O1624 C1631 1.266 . S
H1625 C1627 0.959 . S
H1626 C1627 0.961 . S
C1627 C1617 1.510 . S
C1627 H1625 0.959 . S
C1627 H1626 0.961 . S
C1627 H1628 0.960 . S
H1628 C1627 0.960 . S
H1629 N1609 0.862 . S
O1630 Co1598 1.920 . S
O1630 C1603 1.289 . S
C1631 O1623 1.258 . S
C1631 O1624 1.266 . S
C1632 C1633 1.387 . S
C1632 H1636 0.950 . S
C1632 C1641 1.390 . S
C1633 C1632 1.387 . S
C1633 C1635 1.387 . S
H1634 C1641 0.950 . S
C1635 C1633 1.387 . S
C1635 C1637 1.390 . S
C1635 H1639 0.950 . S
H1636 C1632 0.950 . S
C1637 C1635 1.390 . S
C1637 C1638 1.387 . S
C1637 H1640 0.950 . S
C1638 C1637 1.387 . S
C1638 C1641 1.387 . S
H1639 C1635 0.950 . S
H1640 C1637 0.950 . S
C1641 C1632 1.390 . S
C1641 H1634 0.950 . S
C1641 C1638 1.387 . S
C1642 C1643 1.387 . S
C1642 H1646 0.950 . S
C1642 C1651 1.390 . S
C1643 C1642 1.387 . S
C1643 C1645 1.387 . S
H1644 C1651 0.950 . S
C1645 C1643 1.387 . S
C1645 C1647 1.390 . S
C1645 H1649 0.950 . S
H1646 C1642 0.950 . S
C1647 C1645 1.390 . S
C1647 C1648 1.387 . S
C1647 H1650 0.950 . S
C1648 C1647 1.387 . S
C1648 C1651 1.387 . S
H1649 C1645 0.950 . S
H1650 C1647 0.950 . S
C1651 C1642 1.390 . S
C1651 H1644 0.950 . S
C1651 C1648 1.387 . S
C1652 C1653 1.387 . S
C1652 H1656 0.950 . S
C1652 C1661 1.390 . S
C1653 C1652 1.387 . S
C1653 C1655 1.387 . S
H1654 C1661 0.950 . S
C1655 C1653 1.387 . S
C1655 C1657 1.390 . S
C1655 H1659 0.950 . S
H1656 C1652 0.950 . S
C1657 C1655 1.390 . S
C1657 C1658 1.387 . S
C1657 H1660 0.950 . S
C1658 C1657 1.387 . S
C1658 C1661 1.387 . S
H1659 C1655 0.950 . S
H1660 C1657 0.950 . S
C1661 C1652 1.390 . S
C1661 H1654 0.950 . S
C1661 C1658 1.387 . S
C1662 C1663 1.387 . S
C1662 H1666 0.950 . S
C1662 C1671 1.390 . S
C1663 C1662 1.387 . S
C1663 C1665 1.387 . S
H1664 C1671 0.950 . S
C1665 C1663 1.387 . S
C1665 C1667 1.390 . S
C1665 H1669 0.950 . S
H1666 C1662 0.950 . S
C1667 C1665 1.390 . S
C1667 C1668 1.387 . S
C1667 H1670 0.950 . S
C1668 C1667 1.387 . S
C1668 C1671 1.387 . S
H1669 C1665 0.950 . S
H1670 C1667 0.950 . S
C1671 C1662 1.390 . S
C1671 H1664 0.950 . S
C1671 C1668 1.387 . S
C1672 C1673 1.387 . S
C1672 H1676 0.950 . S
C1672 C1681 1.390 . S
C1673 C1672 1.387 . S
C1673 C1675 1.387 . S
H1674 C1681 0.950 . S
C1675 C1673 1.387 . S
C1675 C1677 1.390 . S
C1675 H1679 0.950 . S
H1676 C1672 0.950 . S
C1677 C1675 1.390 . S
C1677 C1678 1.387 . S
C1677 H1680 0.950 . S
C1678 C1677 1.387 . S
C1678 C1681 1.387 . S
H1679 C1675 0.950 . S
H1680 C1677 0.950 . S
C1681 C1672 1.390 . S
C1681 H1674 0.950 . S
C1681 C1678 1.387 . S
C1682 C1683 1.387 . S
C1682 H1686 0.950 . S
C1682 C1691 1.390 . S
C1683 C1682 1.387 . S
C1683 C1685 1.387 . S
H1684 C1691 0.950 . S
C1685 C1683 1.387 . S
C1685 C1687 1.390 . S
C1685 H1689 0.950 . S
H1686 C1682 0.950 . S
C1687 C1685 1.390 . S
C1687 C1688 1.387 . S
C1687 H1690 0.950 . S
C1688 C1687 1.387 . S
C1688 C1691 1.387 . S
H1689 C1685 0.950 . S
H1690 C1687 0.950 . S
C1691 C1682 1.390 . S
C1691 H1684 0.950 . S
C1691 C1688 1.387 . S
C1692 C1693 1.387 . S
C1692 H1696 0.950 . S
C1692 C1701 1.390 . S
C1693 C1692 1.387 . S
C1693 C1695 1.387 . S
H1694 C1701 0.950 . S
C1695 C1693 1.387 . S
C1695 C1697 1.390 . S
C1695 H1699 0.950 . S
H1696 C1692 0.950 . S
C1697 C1695 1.390 . S
C1697 C1698 1.387 . S
C1697 H1700 0.950 . S
C1698 C1697 1.387 . S
C1698 C1701 1.387 . S
H1699 C1695 0.950 . S
H1700 C1697 0.950 . S
C1701 C1692 1.390 . S
C1701 H1694 0.950 . S
C1701 C1698 1.387 . S
C1702 C1703 1.387 . S
C1702 H1706 0.950 . S
C1702 C1711 1.390 . S
C1703 C1702 1.387 . S
C1703 C1705 1.387 . S
H1704 C1711 0.950 . S
C1705 C1703 1.387 . S
C1705 C1707 1.390 . S
C1705 H1709 0.950 1_455 S
H1706 C1702 0.950 . S
C1707 C1705 1.390 . S
C1707 C1708 1.387 . S
C1707 H1710 0.950 . S
C1708 C1707 1.387 . S
C1708 C1711 1.387 . S
H1709 C1705 0.950 1_655 S
H1710 C1707 0.950 . S
C1711 C1702 1.390 . S
C1711 H1704 0.950 . S
C1711 C1708 1.387 . S
C1712 C1713 1.387 . S
C1712 H1716 0.950 . S
C1712 C1721 1.390 . S
C1713 C1712 1.387 . S
C1713 C1715 1.387 . S
H1714 C1721 0.950 . S
C1715 C1713 1.387 . S
C1715 C1717 1.390 . S
C1715 H1719 0.950 . S
H1716 C1712 0.950 . S
C1717 C1715 1.390 . S
C1717 C1718 1.387 . S
C1717 H1720 0.950 . S
C1718 C1717 1.387 . S
C1718 C1721 1.387 . S
H1719 C1715 0.950 . S
H1720 C1717 0.950 . S
C1721 C1712 1.390 . S
C1721 H1714 0.950 . S
C1721 C1718 1.387 . S
C1722 C1723 1.387 . S
C1722 H1726 0.950 . S
C1722 C1731 1.390 . S
C1723 C1722 1.387 . S
C1723 C1725 1.387 . S
H1724 C1731 0.950 . S
C1725 C1723 1.387 . S
C1725 C1727 1.390 . S
C1725 H1729 0.950 1_556 S
H1726 C1722 0.950 . S
C1727 C1725 1.390 . S
C1727 C1728 1.387 . S
C1727 H1730 0.950 . S
C1728 C1727 1.387 . S
C1728 C1731 1.387 . S
H1729 C1725 0.950 1_554 S
H1730 C1727 0.950 . S
C1731 C1722 1.390 . S
C1731 H1724 0.950 . S
C1731 C1728 1.387 . S
C1732 C1733 1.387 . S
C1732 H1736 0.950 . S
C1732 C1741 1.390 . S
C1733 C1732 1.387 . S
C1733 C1735 1.387 . S
H1734 C1741 0.950 . S
C1735 C1733 1.387 . S
C1735 C1737 1.390 . S
C1735 H1739 0.950 . S
H1736 C1732 0.950 . S
C1737 C1735 1.390 . S
C1737 C1738 1.387 . S
C1737 H1740 0.950 . S
C1738 C1737 1.387 . S
C1738 C1741 1.387 . S
H1739 C1735 0.950 . S
H1740 C1737 0.950 . S
C1741 C1732 1.390 . S
C1741 H1734 0.950 . S
C1741 C1738 1.387 . S
C1742 C1743 1.387 . S
C1742 H1746 0.950 . S
C1742 C1751 1.390 . S
C1743 C1742 1.387 . S
C1743 C1745 1.387 . S
H1744 C1751 0.950 . S
C1745 C1743 1.387 . S
C1745 C1747 1.390 . S
C1745 H1749 0.950 . S
H1746 C1742 0.950 . S
C1747 C1745 1.390 . S
C1747 C1748 1.387 . S
C1747 H1750 0.940 1_556 S
C1748 C1747 1.387 . S
C1748 C1751 1.387 . S
H1749 C1745 0.950 . S
H1750 C1747 0.940 1_554 S
C1751 C1742 1.390 . S
C1751 H1744 0.950 . S
C1751 C1748 1.387 . S
C1752 C1753 1.387 . S
C1752 H1756 0.950 . S
C1752 C1761 1.390 . S
C1753 C1752 1.387 . S
C1753 C1755 1.387 . S
H1754 C1761 0.950 . S
C1755 C1753 1.387 . S
C1755 C1757 1.390 . S
C1755 H1759 0.950 . S
H1756 C1752 0.950 . S
C1757 C1755 1.390 . S
C1757 C1758 1.387 . S
C1757 H1760 0.950 . S
C1758 C1757 1.387 . S
C1758 C1761 1.387 . S
H1759 C1755 0.950 . S
H1760 C1757 0.950 . S
C1761 C1752 1.390 . S
C1761 H1754 0.950 . S
C1761 C1758 1.387 . S
C1762 C1763 1.387 . S
C1762 H1766 0.950 . S
C1762 C1771 1.390 . S
C1763 C1762 1.387 . S
C1763 C1765 1.387 . S
H1764 C1771 0.950 . S
C1765 C1763 1.387 . S
C1765 C1767 1.390 . S
C1765 H1769 0.950 . S
H1766 C1762 0.950 . S
C1767 C1765 1.390 . S
C1767 C1768 1.387 . S
C1767 H1770 0.950 1_554 S
C1768 C1767 1.387 . S
C1768 C1771 1.387 . S
H1769 C1765 0.950 . S
H1770 C1767 0.950 1_556 S
C1771 C1762 1.390 . S
C1771 H1764 0.950 . S
C1771 C1768 1.387 . S
C1772 C1773 1.387 . S
C1772 H1776 0.950 . S
C1772 C1781 1.390 . S
C1773 C1772 1.387 . S
C1773 C1775 1.387 . S
H1774 C1781 0.950 . S
C1775 C1773 1.387 . S
C1775 C1777 1.390 . S
C1775 H1779 0.950 . S
H1776 C1772 0.950 . S
C1777 C1775 1.390 . S
C1777 C1778 1.387 . S
C1777 H1780 0.950 . S
C1778 C1777 1.387 . S
C1778 C1781 1.387 . S
H1779 C1775 0.950 . S
H1780 C1777 0.950 . S
C1781 C1772 1.390 . S
C1781 H1774 0.950 . S
C1781 C1778 1.387 . S
C1782 C1783 1.387 . S
C1782 H1786 0.950 1_554 S
C1782 C1791 1.390 . S
C1783 C1782 1.387 . S
C1783 C1785 1.387 . S
H1784 C1791 0.950 . S
C1785 C1783 1.387 . S
C1785 C1787 1.390 . S
C1785 H1789 0.950 . S
H1786 C1782 0.950 1_556 S
C1787 C1785 1.390 . S
C1787 C1788 1.387 . S
C1787 H1790 0.950 . S
C1788 C1787 1.387 . S
C1788 C1791 1.387 . S
H1789 C1785 0.950 . S
H1790 C1787 0.950 . S
C1791 C1782 1.390 . S
C1791 H1784 0.950 . S
C1791 C1788 1.387 . S
C1792 C1793 1.387 . S
C1792 H1796 0.950 . S
C1792 C1801 1.390 . S
C1793 C1792 1.387 . S
C1793 C1795 1.387 . S
H1794 C1801 0.950 . S
C1795 C1793 1.387 . S
C1795 C1797 1.390 . S
C1795 H1799 0.950 . S
H1796 C1792 0.950 . S
C1797 C1795 1.390 . S
C1797 C1798 1.387 . S
C1797 H1800 0.950 . S
C1798 C1797 1.387 . S
C1798 C1801 1.387 . S
H1799 C1795 0.950 . S
H1800 C1797 0.950 . S
C1801 C1792 1.390 . S
C1801 H1794 0.950 . S
C1801 C1798 1.387 . S
C1802 C1803 1.387 . S
C1802 H1806 0.950 . S
C1802 C1811 1.390 . S
C1803 C1802 1.387 . S
C1803 C1805 1.387 . S
H1804 C1811 0.950 . S
C1805 C1803 1.387 . S
C1805 C1807 1.390 . S
C1805 H1809 0.950 . S
H1806 C1802 0.950 . S
C1807 C1805 1.390 . S
C1807 C1808 1.387 . S
C1807 H1810 0.950 . S
C1808 C1807 1.387 . S
C1808 C1811 1.387 . S
H1809 C1805 0.950 . S
H1810 C1807 0.950 . S
C1811 C1802 1.390 . S
C1811 H1804 0.950 . S
C1811 C1808 1.387 . S
C1812 C1813 1.387 . S
C1812 H1816 0.950 . S
C1812 C1821 1.390 . S
C1813 C1812 1.387 . S
C1813 C1815 1.387 . S
H1814 C1821 0.950 . S
C1815 C1813 1.387 . S
C1815 C1817 1.390 . S
C1815 H1819 0.950 . S
H1816 C1812 0.950 . S
C1817 C1815 1.390 . S
C1817 C1818 1.387 . S
C1817 H1820 0.950 . S
C1818 C1817 1.387 . S
C1818 C1821 1.387 . S
H1819 C1815 0.950 . S
H1820 C1817 0.950 . S
C1821 C1812 1.390 . S
C1821 H1814 0.950 . S
C1821 C1818 1.387 . S
C1822 C1823 1.387 . S
C1822 H1826 0.950 . S
C1822 C1831 1.390 . S
C1823 C1822 1.387 . S
C1823 C1825 1.387 . S
H1824 C1831 0.950 . S
C1825 C1823 1.387 . S
C1825 C1827 1.390 . S
C1825 H1829 0.950 . S
H1826 C1822 0.950 . S
C1827 C1825 1.390 . S
C1827 C1828 1.387 . S
C1827 H1830 0.950 . S
C1828 C1827 1.387 . S
C1828 C1831 1.387 . S
H1829 C1825 0.950 . S
H1830 C1827 0.950 . S
C1831 C1822 1.390 . S
C1831 H1824 0.950 . S
C1831 C1828 1.387 . S
C1832 C1833 1.387 . S
C1832 H1836 0.950 . S
C1832 C1841 1.390 . S
C1833 C1832 1.387 . S
C1833 C1835 1.387 . S
H1834 C1841 0.950 . S
C1835 C1833 1.387 . S
C1835 C1837 1.390 . S
C1835 H1839 0.950 . S
H1836 C1832 0.950 . S
C1837 C1835 1.390 . S
C1837 C1838 1.387 . S
C1837 H1840 0.950 . S
C1838 C1837 1.387 . S
C1838 C1841 1.387 . S
H1839 C1835 0.950 . S
H1840 C1837 0.950 . S
C1841 C1832 1.390 . S
C1841 H1834 0.950 . S
C1841 C1838 1.387 . S
C1842 C1843 1.387 . S
C1842 H1846 0.950 . S
C1842 C1851 1.390 . S
C1843 C1842 1.387 . S
C1843 C1845 1.387 . S
H1844 C1851 0.950 . S
C1845 C1843 1.387 . S
C1845 C1847 1.390 . S
C1845 H1849 0.950 . S
H1846 C1842 0.950 . S
C1847 C1845 1.390 . S
C1847 C1848 1.387 . S
C1847 H1850 0.950 . S
C1848 C1847 1.387 . S
C1848 C1851 1.387 . S
H1849 C1845 0.950 . S
H1850 C1847 0.950 . S
C1851 C1842 1.390 . S
C1851 H1844 0.950 . S
C1851 C1848 1.387 . S
C1852 C1853 1.387 . S
C1852 H1856 0.950 . S
C1852 C1861 1.390 . S
C1853 C1852 1.387 . S
C1853 C1855 1.387 . S
H1854 C1861 0.950 . S
C1855 C1853 1.387 . S
C1855 C1857 1.390 . S
C1855 H1859 0.950 . S
H1856 C1852 0.950 . S
C1857 C1855 1.390 . S
C1857 C1858 1.387 . S
C1857 H1860 0.950 . S
C1858 C1857 1.387 . S
C1858 C1861 1.387 . S
H1859 C1855 0.950 . S
H1860 C1857 0.950 . S
C1861 C1852 1.390 . S
C1861 H1854 0.950 . S
C1861 C1858 1.387 . S
C1862 C1863 1.387 . S
C1862 H1866 0.950 . S
C1862 C1871 1.390 . S
C1863 C1862 1.387 . S
C1863 C1865 1.387 . S
H1864 C1871 0.950 . S
C1865 C1863 1.387 . S
C1865 C1867 1.390 . S
C1865 H1869 0.950 . S
H1866 C1862 0.950 . S
C1867 C1865 1.390 . S
C1867 C1868 1.387 . S
C1867 H1870 0.950 . S
C1868 C1867 1.387 . S
C1868 C1871 1.387 . S
H1869 C1865 0.950 . S
H1870 C1867 0.950 . S
C1871 C1862 1.390 . S
C1871 H1864 0.950 . S
C1871 C1868 1.387 . S
C1872 C1873 1.387 . S
C1872 H1876 0.950 . S
C1872 C1881 1.390 . S
C1873 C1872 1.387 . S
C1873 C1875 1.387 . S
H1874 C1881 0.950 . S
C1875 C1873 1.387 . S
C1875 C1877 1.390 . S
C1875 H1879 0.950 . S
H1876 C1872 0.950 . S
C1877 C1875 1.390 . S
C1877 C1878 1.387 . S
C1877 H1880 0.950 . S
C1878 C1877 1.387 . S
C1878 C1881 1.387 . S
H1879 C1875 0.950 . S
H1880 C1877 0.950 . S
C1881 C1872 1.390 . S
C1881 H1874 0.950 . S
C1881 C1878 1.387 . S
C1882 C1883 1.387 . S
C1882 H1886 0.950 . S
C1882 C1891 1.390 . S
C1883 C1882 1.387 . S
C1883 C1885 1.387 . S
H1884 C1891 0.950 . S
C1885 C1883 1.387 . S
C1885 C1887 1.390 . S
C1885 H1889 0.950 1_455 S
H1886 C1882 0.950 . S
C1887 C1885 1.390 . S
C1887 C1888 1.387 . S
C1887 H1890 0.950 . S
C1888 C1887 1.387 . S
C1888 C1891 1.387 . S
H1889 C1885 0.950 1_655 S
H1890 C1887 0.950 . S
C1891 C1882 1.390 . S
C1891 H1884 0.950 . S
C1891 C1888 1.387 . S
C1892 C1893 1.387 . S
C1892 H1896 0.950 . S
C1892 C1901 1.390 . S
C1893 C1892 1.387 . S
C1893 C1895 1.387 . S
H1894 C1901 0.950 . S
C1895 C1893 1.387 . S
C1895 C1897 1.390 . S
C1895 H1899 0.950 . S
H1896 C1892 0.950 . S
C1897 C1895 1.390 . S
C1897 C1898 1.387 . S
C1897 H1900 0.950 . S
C1898 C1897 1.387 . S
C1898 C1901 1.387 . S
H1899 C1895 0.950 . S
H1900 C1897 0.950 . S
C1901 C1892 1.390 . S
C1901 H1894 0.950 . S
C1901 C1898 1.387 . S
C1902 C1903 1.387 . S
C1902 H1906 0.950 . S
C1902 C1911 1.390 . S
C1903 C1902 1.387 . S
C1903 C1905 1.387 . S
H1904 C1911 0.950 . S
C1905 C1903 1.387 . S
C1905 C1907 1.390 . S
C1905 H1909 0.950 . S
H1906 C1902 0.950 . S
C1907 C1905 1.390 . S
C1907 C1908 1.387 . S
C1907 H1910 0.950 . S
C1908 C1907 1.387 . S
C1908 C1911 1.387 . S
H1909 C1905 0.950 . S
H1910 C1907 0.950 . S
C1911 C1902 1.390 . S
C1911 H1904 0.950 . S
C1911 C1908 1.387 . S
C1912 C1913 1.387 . S
C1912 H1916 0.950 . S
C1912 C1921 1.390 . S
C1913 C1912 1.387 . S
C1913 C1915 1.387 . S
H1914 C1921 0.950 . S
C1915 C1913 1.387 . S
C1915 C1917 1.390 . S
C1915 H1919 0.950 . S
H1916 C1912 0.950 . S
C1917 C1915 1.390 . S
C1917 C1918 1.387 . S
C1917 H1920 0.950 . S
C1918 C1917 1.387 . S
C1918 C1921 1.387 . S
H1919 C1915 0.950 . S
H1920 C1917 0.950 . S
C1921 C1912 1.390 . S
C1921 H1914 0.950 . S
C1921 C1918 1.387 . S
C1922 C1923 1.387 . S
C1922 H1926 0.950 . S
C1922 C1931 1.390 . S
C1923 C1922 1.387 . S
C1923 C1925 1.387 . S
H1924 C1931 0.950 . S
C1925 C1923 1.387 . S
C1925 C1927 1.390 . S
C1925 H1929 0.950 . S
H1926 C1922 0.950 . S
C1927 C1925 1.390 . S
C1927 C1928 1.387 . S
C1927 H1930 0.950 . S
C1928 C1927 1.387 . S
C1928 C1931 1.387 . S
H1929 C1925 0.950 . S
H1930 C1927 0.950 . S
C1931 C1922 1.390 . S
C1931 H1924 0.950 . S
C1931 C1928 1.387 . S
C1932 C1933 1.387 . S
C1932 H1936 0.950 . S
C1932 C1941 1.390 . S
C1933 C1932 1.387 . S
C1933 C1935 1.387 . S
H1934 C1941 0.950 . S
C1935 C1933 1.387 . S
C1935 C1937 1.390 . S
C1935 H1939 0.950 . S
H1936 C1932 0.950 . S
C1937 C1935 1.390 . S
C1937 C1938 1.387 . S
C1937 H1940 0.950 . S
C1938 C1937 1.387 . S
C1938 C1941 1.387 . S
H1939 C1935 0.950 . S
H1940 C1937 0.950 . S
C1941 C1932 1.390 . S
C1941 H1934 0.950 . S
C1941 C1938 1.387 . S
C1942 C1943 1.387 . S
C1942 H1946 0.950 . S
C1942 C1951 1.390 . S
C1943 C1942 1.387 . S
C1943 C1945 1.387 . S
H1944 C1951 0.950 . S
C1945 C1943 1.387 . S
C1945 C1947 1.390 . S
C1945 H1949 0.950 . S
H1946 C1942 0.950 . S
C1947 C1945 1.390 . S
C1947 C1948 1.387 . S
C1947 H1950 0.950 . S
C1948 C1947 1.387 . S
C1948 C1951 1.387 . S
H1949 C1945 0.950 . S
H1950 C1947 0.950 . S
C1951 C1942 1.390 . S
C1951 H1944 0.950 . S
C1951 C1948 1.387 . S
C1952 C1953 1.387 . S
C1952 H1956 0.950 . S
C1952 C1961 1.390 . S
C1953 C1952 1.387 . S
C1953 C1955 1.387 . S
H1954 C1961 0.950 . S
C1955 C1953 1.387 . S
C1955 C1957 1.390 . S
C1955 H1959 0.950 . S
H1956 C1952 0.950 . S
C1957 C1955 1.390 . S
C1957 C1958 1.387 . S
C1957 H1960 0.950 . S
C1958 C1957 1.387 . S
C1958 C1961 1.387 . S
H1959 C1955 0.950 . S
H1960 C1957 0.950 . S
C1961 C1952 1.390 . S
C1961 H1954 0.950 . S
C1961 C1958 1.387 . S
C1962 C1963 1.387 . S
C1962 H1966 0.950 . S
C1962 C1971 1.390 . S
C1963 C1962 1.387 . S
C1963 C1965 1.387 . S
H1964 C1971 0.950 . S
C1965 C1963 1.387 . S
C1965 C1967 1.390 . S
C1965 H1969 0.950 . S
H1966 C1962 0.950 . S
C1967 C1965 1.390 . S
C1967 C1968 1.387 . S
C1967 H1970 0.950 . S
C1968 C1967 1.387 . S
C1968 C1971 1.387 . S
H1969 C1965 0.950 . S
H1970 C1967 0.950 . S
C1971 C1962 1.390 . S
C1971 H1964 0.950 . S
C1971 C1968 1.387 . S
C1972 C1973 1.387 . S
C1972 H1976 0.950 . S
C1972 C1981 1.390 . S
C1973 C1972 1.387 . S
C1973 C1975 1.387 . S
H1974 C1981 0.950 . S
C1975 C1973 1.387 . S
C1975 C1977 1.390 . S
C1975 H1979 0.950 . S
H1976 C1972 0.950 . S
C1977 C1975 1.390 . S
C1977 C1978 1.387 . S
C1977 H1980 0.950 . S
C1978 C1977 1.387 . S
C1978 C1981 1.387 . S
H1979 C1975 0.950 . S
H1980 C1977 0.950 . S
C1981 C1972 1.390 . S
C1981 H1974 0.950 . S
C1981 C1978 1.387 . S
C1982 C1983 1.387 . S
C1982 H1986 0.950 . S
C1982 C1991 1.390 . S
C1983 C1982 1.387 . S
C1983 C1985 1.387 . S
H1984 C1991 0.950 . S
C1985 C1983 1.387 . S
C1985 C1987 1.390 . S
C1985 H1989 0.950 . S
H1986 C1982 0.950 . S
C1987 C1985 1.390 . S
C1987 C1988 1.387 . S
C1987 H1990 0.950 . S
C1988 C1987 1.387 . S
C1988 C1991 1.387 . S
H1989 C1985 0.950 . S
H1990 C1987 0.950 . S
C1991 C1982 1.390 . S
C1991 H1984 0.950 . S
C1991 C1988 1.387 . S
C1992 C1993 1.387 . S
C1992 H1996 0.950 . S
C1992 C2001 1.390 . S
C1993 C1992 1.387 . S
C1993 C1995 1.387 . S
H1994 C2001 0.950 . S
C1995 C1993 1.387 . S
C1995 C1997 1.390 . S
C1995 H1999 0.950 . S
H1996 C1992 0.950 . S
C1997 C1995 1.390 . S
C1997 C1998 1.387 . S
C1997 H2000 0.950 . S
C1998 C1997 1.387 . S
C1998 C2001 1.387 . S
H1999 C1995 0.950 . S
H2000 C1997 0.950 . S
C2001 C1992 1.390 . S
C2001 H1994 0.950 . S
C2001 C1998 1.387 . S
C2002 C2003 1.387 . S
C2002 H2006 0.950 . S
C2002 C2011 1.390 . S
C2003 C2002 1.387 . S
C2003 C2005 1.387 . S
H2004 C2011 0.950 . S
C2005 C2003 1.387 . S
C2005 C2007 1.390 . S
C2005 H2009 0.950 . S
H2006 C2002 0.950 . S
C2007 C2005 1.390 . S
C2007 C2008 1.387 . S
C2007 H2010 0.950 . S
C2008 C2007 1.387 . S
C2008 C2011 1.387 . S
H2009 C2005 0.950 . S
H2010 C2007 0.950 . S
C2011 C2002 1.390 . S
C2011 H2004 0.950 . S
C2011 C2008 1.387 . S
C2012 C2013 1.387 . S
C2012 H2016 0.950 . S
C2012 C2021 1.390 . S
C2013 C2012 1.387 . S
C2013 C2015 1.387 . S
H2014 C2021 0.950 . S
C2015 C2013 1.387 . S
C2015 C2017 1.390 . S
C2015 H2019 0.950 . S
H2016 C2012 0.950 . S
C2017 C2015 1.390 . S
C2017 C2018 1.387 . S
C2017 H2020 0.950 . S
C2018 C2017 1.387 . S
C2018 C2021 1.387 . S
H2019 C2015 0.950 . S
H2020 C2017 0.950 . S
C2021 C2012 1.390 . S
C2021 H2014 0.950 . S
C2021 C2018 1.387 . S
C2022 C2023 1.387 . S
C2022 H2026 0.950 . S
C2022 C2031 1.390 . S
C2023 C2022 1.387 . S
C2023 C2025 1.387 . S
H2024 C2031 0.950 . S
C2025 C2023 1.387 . S
C2025 C2027 1.390 . S
C2025 H2029 0.950 . S
H2026 C2022 0.950 . S
C2027 C2025 1.390 . S
C2027 C2028 1.387 . S
C2027 H2030 0.950 . S
C2028 C2027 1.387 . S
C2028 C2031 1.387 . S
H2029 C2025 0.950 . S
H2030 C2027 0.950 . S
C2031 C2022 1.390 . S
C2031 H2024 0.950 . S
C2031 C2028 1.387 . S
C2032 C2033 1.387 . S
C2032 H2036 0.950 . S
C2032 C2041 1.390 . S
C2033 C2032 1.387 . S
C2033 C2035 1.387 . S
H2034 C2041 0.950 . S
C2035 C2033 1.387 . S
C2035 C2037 1.390 . S
C2035 H2039 0.950 . S
H2036 C2032 0.950 . S
C2037 C2035 1.390 . S
C2037 C2038 1.387 . S
C2037 H2040 0.950 . S
C2038 C2037 1.387 . S
C2038 C2041 1.387 . S
H2039 C2035 0.950 . S
H2040 C2037 0.950 . S
C2041 C2032 1.390 . S
C2041 H2034 0.950 . S
C2041 C2038 1.387 . S
C2042 C2043 1.387 . S
C2042 H2046 0.950 . S
C2042 C2051 1.390 . S
C2043 C2042 1.387 . S
C2043 C2045 1.387 . S
H2044 C2051 0.950 . S
C2045 C2043 1.387 . S
C2045 C2047 1.390 . S
C2045 H2049 0.950 . S
H2046 C2042 0.950 . S
C2047 C2045 1.390 . S
C2047 C2048 1.387 . S
C2047 H2050 0.950 . S
C2048 C2047 1.387 . S
C2048 C2051 1.387 . S
H2049 C2045 0.950 . S
H2050 C2047 0.950 . S
C2051 C2042 1.390 . S
C2051 H2044 0.950 . S
C2051 C2048 1.387 . S
C2052 C2053 1.387 . S
C2052 H2056 0.950 . S
C2052 C2061 1.390 . S
C2053 C2052 1.387 . S
C2053 C2055 1.387 . S
H2054 C2061 0.950 . S
C2055 C2053 1.387 . S
C2055 C2057 1.390 . S
C2055 H2059 0.950 1_565 S
H2056 C2052 0.950 . S
C2057 C2055 1.390 . S
C2057 C2058 1.387 . S
C2057 H2060 0.950 . S
C2058 C2057 1.387 . S
C2058 C2061 1.387 . S
H2059 C2055 0.950 1_545 S
H2060 C2057 0.950 . S
C2061 C2052 1.390 . S
C2061 H2054 0.950 . S
C2061 C2058 1.387 . S
C2062 C2063 1.387 . S
C2062 H2066 0.950 . S
C2062 C2071 1.390 . S
C2063 C2062 1.387 . S
C2063 C2065 1.387 . S
H2064 C2071 0.950 . S
C2065 C2063 1.387 . S
C2065 C2067 1.390 . S
C2065 H2069 0.950 . S
H2066 C2062 0.950 . S
C2067 C2065 1.390 . S
C2067 C2068 1.387 . S
C2067 H2070 0.950 . S
C2068 C2067 1.387 . S
C2068 C2071 1.387 . S
H2069 C2065 0.950 . S
H2070 C2067 0.950 . S
C2071 C2062 1.390 . S
C2071 H2064 0.950 . S
C2071 C2068 1.387 . S
C2072 C2073 1.387 . S
C2072 H2076 0.950 . S
C2072 C2081 1.390 . S
C2073 C2072 1.387 . S
C2073 C2075 1.387 . S
H2074 C2081 0.950 . S
C2075 C2073 1.387 . S
C2075 C2077 1.390 . S
C2075 H2079 0.950 1_545 S
H2076 C2072 0.950 . S
C2077 C2075 1.390 . S
C2077 C2078 1.387 . S
C2077 H2080 0.950 . S
C2078 C2077 1.387 . S
C2078 C2081 1.387 . S
H2079 C2075 0.950 1_565 S
H2080 C2077 0.950 . S
C2081 C2072 1.390 . S
C2081 H2074 0.950 . S
C2081 C2078 1.387 . S
C2082 C2083 1.387 . S
C2082 H2086 0.950 . S
C2082 C2091 1.390 . S
C2083 C2082 1.387 . S
C2083 C2085 1.387 . S
H2084 C2091 0.950 . S
C2085 C2083 1.387 . S
C2085 C2087 1.390 . S
C2085 H2089 0.950 . S
H2086 C2082 0.950 . S
C2087 C2085 1.390 . S
C2087 C2088 1.387 . S
C2087 H2090 0.950 . S
C2088 C2087 1.387 . S
C2088 C2091 1.387 . S
H2089 C2085 0.950 . S
H2090 C2087 0.950 . S
C2091 C2082 1.390 . S
C2091 H2084 0.950 . S
C2091 C2088 1.387 . S
C2092 C2093 1.387 . S
C2092 H2096 0.950 . S
C2092 C2101 1.390 . S
C2093 C2092 1.387 . S
C2093 C2095 1.387 . S
H2094 C2101 0.950 . S
C2095 C2093 1.387 . S
C2095 C2097 1.390 . S
C2095 H2099 0.950 . S
H2096 C2092 0.950 . S
C2097 C2095 1.390 . S
C2097 C2098 1.387 . S
C2097 H2100 0.950 . S
C2098 C2097 1.387 . S
C2098 C2101 1.387 . S
H2099 C2095 0.950 . S
H2100 C2097 0.950 . S
C2101 C2092 1.390 . S
C2101 H2094 0.950 . S
C2101 C2098 1.387 . S
C2102 C2103 1.387 . S
C2102 H2106 0.950 . S
C2102 C2111 1.390 . S
C2103 C2102 1.387 . S
C2103 C2105 1.387 . S
H2104 C2111 0.950 . S
C2105 C2103 1.387 . S
C2105 C2107 1.390 . S
C2105 H2109 0.950 . S
H2106 C2102 0.950 . S
C2107 C2105 1.390 . S
C2107 C2108 1.387 . S
C2107 H2110 0.950 . S
C2108 C2107 1.387 . S
C2108 C2111 1.387 . S
H2109 C2105 0.950 . S
H2110 C2107 0.950 . S
C2111 C2102 1.390 . S
C2111 H2104 0.950 . S
C2111 C2108 1.387 . S
C2112 C2113 1.387 . S
C2112 H2116 0.950 . S
C2112 C2121 1.390 . S
C2113 C2112 1.387 . S
C2113 C2115 1.387 . S
H2114 C2121 0.950 . S
C2115 C2113 1.387 . S
C2115 C2117 1.390 . S
C2115 H2119 0.950 . S
H2116 C2112 0.950 . S
C2117 C2115 1.390 . S
C2117 C2118 1.387 . S
C2117 H2120 0.950 . S
C2118 C2117 1.387 . S
C2118 C2121 1.387 . S
H2119 C2115 0.950 . S
H2120 C2117 0.950 . S
C2121 C2112 1.390 . S
C2121 H2114 0.950 . S
C2121 C2118 1.387 . S
C2122 C2123 1.387 . S
C2122 H2126 0.950 . S
C2122 C2131 1.390 . S
C2123 C2122 1.387 . S
C2123 C2125 1.387 . S
H2124 C2131 0.950 . S
C2125 C2123 1.387 . S
C2125 C2127 1.390 . S
C2125 H2129 0.950 . S
H2126 C2122 0.950 . S
C2127 C2125 1.390 . S
C2127 C2128 1.387 . S
C2127 H2130 0.950 . S
C2128 C2127 1.387 . S
C2128 C2131 1.387 . S
H2129 C2125 0.950 . S
H2130 C2127 0.950 . S
C2131 C2122 1.390 . S
C2131 H2124 0.950 . S
C2131 C2128 1.387 . S
C2132 C2133 1.387 . S
C2132 H2136 0.950 . S
C2132 C2141 1.390 . S
C2133 C2132 1.387 . S
C2133 C2135 1.387 . S
H2134 C2141 0.950 . S
C2135 C2133 1.387 . S
C2135 C2137 1.390 . S
C2135 H2139 0.950 . S
H2136 C2132 0.950 . S
C2137 C2135 1.390 . S
C2137 C2138 1.387 . S
C2137 H2140 0.950 . S
C2138 C2137 1.387 . S
C2138 C2141 1.387 . S
H2139 C2135 0.950 . S
H2140 C2137 0.950 . S
C2141 C2132 1.390 . S
C2141 H2134 0.950 . S
C2141 C2138 1.387 . S
C2142 C2143 1.387 . S
C2142 H2146 0.950 . S
C2142 C2151 1.390 1_545 S
C2143 C2142 1.387 . S
C2143 C2145 1.380 1_545 S
H2144 C2151 0.950 . S
C2145 C2143 1.380 1_565 S
C2145 C2147 1.401 . S
C2145 H2149 0.947 1_565 S
H2146 C2142 0.950 . S
C2147 C2145 1.401 . S
C2147 C2148 1.387 . S
C2147 H2150 0.950 . S
C2148 C2147 1.387 . S
C2148 C2151 1.387 . S
H2149 C2145 0.947 1_545 S
H2150 C2147 0.950 . S
C2151 C2142 1.390 1_565 S
C2151 H2144 0.950 . S
C2151 C2148 1.387 . S
C2152 C2153 1.387 . S
C2152 H2156 0.950 . S
C2152 C2161 1.390 . S
C2153 C2152 1.387 . S
C2153 C2155 1.387 . S
H2154 C2161 0.950 . S
C2155 C2153 1.387 . S
C2155 C2157 1.390 . S
C2155 H2159 0.950 . S
H2156 C2152 0.950 . S
C2157 C2155 1.390 . S
C2157 C2158 1.387 . S
C2157 H2160 0.950 . S
C2158 C2157 1.387 . S
C2158 C2161 1.387 . S
H2159 C2155 0.950 . S
H2160 C2157 0.950 . S
C2161 C2152 1.390 . S
C2161 H2154 0.950 . S
C2161 C2158 1.387 . S
C2162 C2163 1.387 . S
C2162 H2166 0.950 . S
C2162 C2171 1.390 . S
C2163 C2162 1.387 . S
C2163 C2165 1.387 . S
H2164 C2171 0.950 . S
C2165 C2163 1.387 . S
C2165 C2167 1.390 . S
C2165 H2169 0.950 . S
H2166 C2162 0.950 . S
C2167 C2165 1.390 . S
C2167 C2168 1.387 . S
C2167 H2170 0.950 . S
C2168 C2167 1.387 . S
C2168 C2171 1.387 . S
H2169 C2165 0.950 . S
H2170 C2167 0.950 . S
C2171 C2162 1.390 . S
C2171 H2164 0.950 . S
C2171 C2168 1.387 . S
C2172 C2173 1.387 . S
C2172 H2176 0.950 . S
C2172 C2181 1.390 . S
C2173 C2172 1.387 . S
C2173 C2175 1.387 . S
H2174 C2181 0.950 . S
C2175 C2173 1.387 . S
C2175 C2177 1.390 . S
C2175 H2179 0.950 . S
H2176 C2172 0.950 . S
C2177 C2175 1.390 . S
C2177 C2178 1.387 . S
C2177 H2180 0.950 . S
C2178 C2177 1.387 . S
C2178 C2181 1.387 . S
H2179 C2175 0.950 . S
H2180 C2177 0.950 . S
C2181 C2172 1.390 . S
C2181 H2174 0.950 . S
C2181 C2178 1.387 . S
C2182 C2183 1.387 . S
C2182 H2186 0.950 . S
C2182 C2191 1.390 1_565 S
C2183 C2182 1.387 . S
C2183 C2185 1.387 . S
H2184 C2191 0.950 . S
C2185 C2183 1.387 . S
C2185 C2187 1.390 1_565 S
C2185 H2189 0.950 . S
H2186 C2182 0.950 . S
C2187 C2185 1.390 1_545 S
C2187 C2188 1.387 . S
C2187 H2190 0.950 . S
C2188 C2187 1.387 . S
C2188 C2191 1.387 . S
H2189 C2185 0.950 . S
H2190 C2187 0.950 . S
C2191 C2182 1.390 1_545 S
C2191 H2184 0.950 . S
C2191 C2188 1.387 . S
C2192 C2193 1.387 . S
C2192 H2196 0.950 . S
C2192 C2201 1.390 . S
C2193 C2192 1.387 . S
C2193 C2195 1.387 . S
H2194 C2201 0.950 . S
C2195 C2193 1.387 . S
C2195 C2197 1.390 . S
C2195 H2199 0.950 . S
H2196 C2192 0.950 . S
C2197 C2195 1.390 . S
C2197 C2198 1.387 . S
C2197 H2200 0.950 . S
C2198 C2197 1.387 . S
C2198 C2201 1.387 . S
H2199 C2195 0.950 . S
H2200 C2197 0.950 . S
C2201 C2192 1.390 . S
C2201 H2194 0.950 . S
C2201 C2198 1.387 . S
C2202 C2203 1.387 . S
C2202 H2206 0.950 . S
C2202 C2211 1.390 . S
C2203 C2202 1.387 . S
C2203 C2205 1.387 . S
H2204 C2211 0.950 . S
C2205 C2203 1.387 . S
C2205 C2207 1.390 . S
C2205 H2209 0.950 . S
H2206 C2202 0.950 . S
C2207 C2205 1.390 . S
C2207 C2208 1.387 . S
C2207 H2210 0.950 . S
C2208 C2207 1.387 . S
C2208 C2211 1.387 . S
H2209 C2205 0.950 . S
H2210 C2207 0.950 . S
C2211 C2202 1.390 . S
C2211 H2204 0.950 . S
C2211 C2208 1.387 . S
C2212 C2213 1.387 . S
C2212 H2216 0.950 . S
C2212 C2221 1.390 . S
C2213 C2212 1.387 . S
C2213 C2215 1.387 . S
H2214 C2221 0.950 . S
C2215 C2213 1.387 . S
C2215 C2217 1.390 . S
C2215 H2219 0.950 . S
H2216 C2212 0.950 . S
C2217 C2215 1.390 . S
C2217 C2218 1.387 . S
C2217 H2220 0.950 . S
C2218 C2217 1.387 . S
C2218 C2221 1.387 . S
H2219 C2215 0.950 . S
H2220 C2217 0.950 . S
C2221 C2212 1.390 . S
C2221 H2214 0.950 . S
C2221 C2218 1.387 . S
C2222 C2223 1.387 . S
C2222 H2226 0.950 . S
C2222 C2231 1.390 . S
C2223 C2222 1.387 . S
C2223 C2225 1.387 . S
H2224 C2231 0.950 . S
C2225 C2223 1.387 . S
C2225 C2227 1.390 . S
C2225 H2229 0.950 . S
H2226 C2222 0.950 . S
C2227 C2225 1.390 . S
C2227 C2228 1.387 . S
C2227 H2230 0.950 . S
C2228 C2227 1.387 . S
C2228 C2231 1.387 . S
H2229 C2225 0.950 . S
H2230 C2227 0.950 . S
C2231 C2222 1.390 . S
C2231 H2224 0.950 . S
C2231 C2228 1.387 . S
C2232 C2233 1.387 . S
C2232 H2236 0.950 . S
C2232 C2241 1.390 . S
C2233 C2232 1.387 . S
C2233 C2235 1.387 . S
H2234 C2241 0.950 . S
C2235 C2233 1.387 . S
C2235 C2237 1.390 . S
C2235 H2239 0.950 . S
H2236 C2232 0.950 . S
C2237 C2235 1.390 . S
C2237 C2238 1.387 . S
C2237 H2240 0.950 . S
C2238 C2237 1.387 . S
C2238 C2241 1.387 . S
H2239 C2235 0.950 . S
H2240 C2237 0.950 . S
C2241 C2232 1.390 . S
C2241 H2234 0.950 . S
C2241 C2238 1.387 . S
C2242 C2243 1.387 . S
C2242 H2246 0.950 . S
C2242 C2251 1.390 1_655 S
C2243 C2242 1.387 . S
C2243 C2245 1.387 . S
H2244 C2251 0.950 . S
C2245 C2243 1.387 . S
C2245 C2247 1.390 1_655 S
C2245 H2249 0.950 . S
H2246 C2242 0.950 . S
C2247 C2245 1.390 1_455 S
C2247 C2248 1.387 . S
C2247 H2250 0.950 . S
C2248 C2247 1.387 . S
C2248 C2251 1.387 . S
H2249 C2245 0.950 . S
H2250 C2247 0.950 . S
C2251 C2242 1.390 1_455 S
C2251 H2244 0.950 . S
C2251 C2248 1.387 . S
C2252 C2253 1.387 . S
C2252 H2256 0.950 . S
C2252 C2261 1.390 . S
C2253 C2252 1.387 . S
C2253 C2255 1.387 . S
H2254 C2261 0.950 . S
C2255 C2253 1.387 . S
C2255 C2257 1.390 . S
C2255 H2259 0.950 . S
H2256 C2252 0.950 . S
C2257 C2255 1.390 . S
C2257 C2258 1.387 . S
C2257 H2260 0.950 . S
C2258 C2257 1.387 . S
C2258 C2261 1.387 . S
H2259 C2255 0.950 . S
H2260 C2257 0.950 . S
C2261 C2252 1.390 . S
C2261 H2254 0.950 . S
C2261 C2258 1.387 . S
C2262 C2263 1.387 . S
C2262 H2266 0.950 . S
C2262 C2271 1.390 1_655 S
C2263 C2262 1.387 . S
C2263 C2265 1.387 . S
H2264 C2271 0.950 . S
C2265 C2263 1.387 . S
C2265 C2267 1.390 1_655 S
C2265 H2269 0.950 . S
H2266 C2262 0.950 . S
C2267 C2265 1.390 1_455 S
C2267 C2268 1.387 . S
C2267 H2270 0.950 . S
C2268 C2267 1.387 . S
C2268 C2271 1.387 . S
H2269 C2265 0.950 . S
H2270 C2267 0.950 . S
C2271 C2262 1.390 1_455 S
C2271 H2264 0.950 . S
C2271 C2268 1.387 . S
C2272 C2273 1.387 . S
C2272 H2276 0.950 . S
C2272 C2281 1.390 . S
C2273 C2272 1.387 . S
C2273 C2275 1.387 . S
H2274 C2281 0.950 . S
C2275 C2273 1.387 . S
C2275 C2277 1.390 . S
C2275 H2279 0.950 . S
H2276 C2272 0.950 . S
C2277 C2275 1.390 . S
C2277 C2278 1.387 . S
C2277 H2280 0.950 . S
C2278 C2277 1.387 . S
C2278 C2281 1.387 . S
H2279 C2275 0.950 . S
H2280 C2277 0.950 . S
C2281 C2272 1.390 . S
C2281 H2274 0.950 . S
C2281 C2278 1.387 . S
C2282 C2283 1.387 . S
C2282 H2286 0.950 . S
C2282 C2291 1.390 . S
C2283 C2282 1.387 . S
C2283 C2285 1.387 . S
H2284 C2291 0.950 . S
C2285 C2283 1.387 . S
C2285 C2287 1.390 . S
C2285 H2289 0.950 . S
H2286 C2282 0.950 . S
C2287 C2285 1.390 . S
C2287 C2288 1.387 . S
C2287 H2290 0.950 . S
C2288 C2287 1.387 . S
C2288 C2291 1.387 . S
H2289 C2285 0.950 . S
H2290 C2287 0.950 . S
C2291 C2282 1.390 . S
C2291 H2284 0.950 . S
C2291 C2288 1.387 . S
C2292 C2293 1.384 1_556 S
C2292 H2296 0.948 1_556 S
C2292 C2301 1.395 . S
C2293 C2292 1.384 1_554 S
C2293 C2295 1.387 . S
H2294 C2301 0.950 . S
C2295 C2293 1.387 . S
C2295 C2297 1.390 1_554 S
C2295 H2299 0.950 . S
H2296 C2292 0.948 1_554 S
C2297 C2295 1.390 1_556 S
C2297 C2298 1.387 . S
C2297 H2300 0.950 . S
C2298 C2297 1.387 . S
C2298 C2301 1.387 . S
H2299 C2295 0.950 . S
H2300 C2297 0.950 . S
C2301 C2292 1.395 . S
C2301 H2294 0.950 . S
C2301 C2298 1.387 . S
C2302 C2303 1.387 . S
C2302 H2306 0.950 . S
C2302 C2311 1.390 . S
C2303 C2302 1.387 . S
C2303 C2305 1.387 . S
H2304 C2311 0.950 . S
C2305 C2303 1.387 . S
C2305 C2307 1.390 . S
C2305 H2309 0.950 . S
H2306 C2302 0.950 . S
C2307 C2305 1.390 . S
C2307 C2308 1.387 . S
C2307 H2310 0.950 . S
C2308 C2307 1.387 . S
C2308 C2311 1.387 . S
H2309 C2305 0.950 . S
H2310 C2307 0.950 . S
C2311 C2302 1.390 . S
C2311 H2304 0.950 . S
C2311 C2308 1.387 . S
C2312 C2313 1.387 . S
C2312 H2316 0.950 . S
C2312 C2321 1.390 . S
C2313 C2312 1.387 . S
C2313 C2315 1.387 . S
H2314 C2321 0.950 . S
C2315 C2313 1.387 . S
C2315 C2317 1.390 . S
C2315 H2319 0.950 . S
H2316 C2312 0.950 . S
C2317 C2315 1.390 . S
C2317 C2318 1.387 . S
C2317 H2320 0.950 . S
C2318 C2317 1.387 . S
C2318 C2321 1.387 . S
H2319 C2315 0.950 . S
H2320 C2317 0.950 . S
C2321 C2312 1.390 . S
C2321 H2314 0.950 . S
C2321 C2318 1.387 . S
C2322 C2323 1.387 . S
C2322 H2326 0.950 . S
C2322 C2331 1.390 . S
C2323 C2322 1.387 . S
C2323 C2325 1.387 . S
H2324 C2331 0.950 . S
C2325 C2323 1.387 . S
C2325 C2327 1.390 . S
C2325 H2329 0.950 . S
H2326 C2322 0.950 . S
C2327 C2325 1.390 . S
C2327 C2328 1.387 . S
C2327 H2330 0.950 . S
C2328 C2327 1.387 . S
C2328 C2331 1.387 . S
H2329 C2325 0.950 . S
H2330 C2327 0.950 . S
C2331 C2322 1.390 . S
C2331 H2324 0.950 . S
C2331 C2328 1.387 . S
C2332 C2333 1.387 . S
C2332 H2336 0.950 . S
C2332 C2341 1.390 . S
C2333 C2332 1.387 . S
C2333 C2335 1.387 . S
H2334 C2341 0.950 . S
C2335 C2333 1.387 . S
C2335 C2337 1.390 . S
C2335 H2339 0.950 . S
H2336 C2332 0.950 . S
C2337 C2335 1.390 . S
C2337 C2338 1.387 . S
C2337 H2340 0.950 . S
C2338 C2337 1.387 . S
C2338 C2341 1.387 . S
H2339 C2335 0.950 . S
H2340 C2337 0.950 . S
C2341 C2332 1.390 . S
C2341 H2334 0.950 . S
C2341 C2338 1.387 . S
C2342 C2343 1.387 . S
C2342 H2346 0.950 . S
C2342 C2351 1.390 . S
C2343 C2342 1.387 . S
C2343 C2345 1.387 . S
H2344 C2351 0.950 . S
C2345 C2343 1.387 . S
C2345 C2347 1.390 . S
C2345 H2349 0.950 . S
H2346 C2342 0.950 . S
C2347 C2345 1.390 . S
C2347 C2348 1.387 . S
C2347 H2350 0.950 . S
C2348 C2347 1.387 . S
C2348 C2351 1.387 . S
H2349 C2345 0.950 . S
H2350 C2347 0.950 . S
C2351 C2342 1.390 . S
C2351 H2344 0.950 . S
C2351 C2348 1.387 . S
C2352 C2353 1.387 . S
C2352 H2356 0.950 . S
C2352 C2361 1.390 . S
C2353 C2352 1.387 . S
C2353 C2355 1.387 . S
H2354 C2361 0.950 . S
C2355 C2353 1.387 . S
C2355 C2357 1.390 . S
C2355 H2359 0.950 . S
H2356 C2352 0.950 . S
C2357 C2355 1.390 . S
C2357 C2358 1.387 . S
C2357 H2360 0.950 . S
C2358 C2357 1.387 . S
C2358 C2361 1.387 . S
H2359 C2355 0.950 . S
H2360 C2357 0.950 . S
C2361 C2352 1.390 . S
C2361 H2354 0.950 . S
C2361 C2358 1.387 . S
C2362 C2363 1.387 . S
C2362 H2366 0.950 . S
C2362 C2371 1.390 1_565 S
C2363 C2362 1.387 . S
C2363 C2365 1.387 . S
H2364 C2371 0.950 . S
C2365 C2363 1.387 . S
C2365 C2367 1.390 1_565 S
C2365 H2369 0.950 . S
H2366 C2362 0.950 . S
C2367 C2365 1.390 1_545 S
C2367 C2368 1.387 . S
C2367 H2370 0.950 . S
C2368 C2367 1.387 . S
C2368 C2371 1.387 . S
H2369 C2365 0.950 . S
H2370 C2367 0.950 . S
C2371 C2362 1.390 1_545 S
C2371 H2364 0.950 . S
C2371 C2368 1.387 . S
C2372 C2373 1.387 . S
C2372 H2376 0.950 . S
C2372 C2381 1.390 . S
C2373 C2372 1.387 . S
C2373 C2375 1.387 . S
H2374 C2381 0.950 . S
C2375 C2373 1.387 . S
C2375 C2377 1.390 . S
C2375 H2379 0.950 . S
H2376 C2372 0.950 . S
C2377 C2375 1.390 . S
C2377 C2378 1.387 . S
C2377 H2380 0.950 . S
C2378 C2377 1.387 . S
C2378 C2381 1.387 . S
H2379 C2375 0.950 . S
H2380 C2377 0.950 . S
C2381 C2372 1.390 . S
C2381 H2374 0.950 . S
C2381 C2378 1.387 . S
C2382 C2383 1.387 . S
C2382 H2386 0.950 . S
C2382 C2391 1.390 . S
C2383 C2382 1.387 . S
C2383 C2385 1.387 . S
H2384 C2391 0.950 . S
C2385 C2383 1.387 . S
C2385 C2387 1.390 . S
C2385 H2389 0.950 . S
H2386 C2382 0.950 . S
C2387 C2385 1.390 . S
C2387 C2388 1.387 . S
C2387 H2390 0.950 . S
C2388 C2387 1.387 . S
C2388 C2391 1.387 . S
H2389 C2385 0.950 . S
H2390 C2387 0.950 . S
C2391 C2382 1.390 . S
C2391 H2384 0.950 . S
C2391 C2388 1.387 . S
C2392 C2393 1.387 . S
C2392 H2396 0.950 . S
C2392 C2401 1.390 . S
C2393 C2392 1.387 . S
C2393 C2395 1.387 . S
H2394 C2401 0.950 . S
C2395 C2393 1.387 . S
C2395 C2397 1.390 . S
C2395 H2399 0.950 . S
H2396 C2392 0.950 . S
C2397 C2395 1.390 . S
C2397 C2398 1.387 . S
C2397 H2400 0.950 . S
C2398 C2397 1.387 . S
C2398 C2401 1.387 . S
H2399 C2395 0.950 . S
H2400 C2397 0.950 . S
C2401 C2392 1.390 . S
C2401 H2394 0.950 . S
C2401 C2398 1.387 . S
C2402 C2403 1.387 . S
C2402 H2406 0.950 . S
C2402 C2411 1.390 1_565 S
C2403 C2402 1.387 . S
C2403 C2405 1.387 . S
H2404 C2411 0.950 . S
C2405 C2403 1.387 . S
C2405 C2407 1.390 1_565 S
C2405 H2409 0.950 . S
H2406 C2402 0.950 . S
C2407 C2405 1.390 1_545 S
C2407 C2408 1.387 . S
C2407 H2410 0.950 . S
C2408 C2407 1.387 . S
C2408 C2411 1.387 . S
H2409 C2405 0.950 . S
H2410 C2407 0.950 . S
C2411 C2402 1.390 1_545 S
C2411 H2404 0.950 . S
C2411 C2408 1.387 . S
C2412 C2413 1.387 . S
C2412 H2416 0.950 . S
C2412 C2421 1.390 . S
C2413 C2412 1.387 . S
C2413 C2415 1.387 . S
H2414 C2421 0.950 . S
C2415 C2413 1.387 . S
C2415 C2417 1.390 . S
C2415 H2419 0.950 . S
H2416 C2412 0.950 . S
C2417 C2415 1.390 . S
C2417 C2418 1.387 . S
C2417 H2420 0.950 . S
C2418 C2417 1.387 . S
C2418 C2421 1.387 . S
H2419 C2415 0.950 . S
H2420 C2417 0.950 . S
C2421 C2412 1.390 . S
C2421 H2414 0.950 . S
C2421 C2418 1.387 . S
C2422 C2423 1.387 . S
C2422 H2426 0.950 . S
C2422 C2431 1.390 . S
C2423 C2422 1.387 . S
C2423 C2425 1.387 . S
H2424 C2431 0.950 . S
C2425 C2423 1.387 . S
C2425 C2427 1.390 . S
C2425 H2429 0.950 . S
H2426 C2422 0.950 . S
C2427 C2425 1.390 . S
C2427 C2428 1.387 . S
C2427 H2430 0.950 . S
C2428 C2427 1.387 . S
C2428 C2431 1.387 . S
H2429 C2425 0.950 . S
H2430 C2427 0.950 . S
C2431 C2422 1.390 . S
C2431 H2424 0.950 . S
C2431 C2428 1.387 . S
C2432 C2433 1.387 . S
C2432 H2436 0.950 . S
C2432 C2441 1.390 . S
C2433 C2432 1.387 . S
C2433 C2435 1.387 . S
H2434 C2441 0.950 . S
C2435 C2433 1.387 . S
C2435 C2437 1.390 . S
C2435 H2439 0.950 . S
H2436 C2432 0.950 . S
C2437 C2435 1.390 . S
C2437 C2438 1.387 . S
C2437 H2440 0.950 . S
C2438 C2437 1.387 . S
C2438 C2441 1.387 . S
H2439 C2435 0.950 . S
H2440 C2437 0.950 . S
C2441 C2432 1.390 . S
C2441 H2434 0.950 . S
C2441 C2438 1.387 . S
C2442 C2443 1.387 . S
C2442 H2446 0.950 . S
C2442 C2451 1.390 1_455 S
C2443 C2442 1.387 . S
C2443 C2445 1.387 . S
H2444 C2451 0.950 . S
C2445 C2443 1.387 . S
C2445 C2447 1.390 1_455 S
C2445 H2449 0.950 . S
H2446 C2442 0.950 . S
C2447 C2445 1.390 1_655 S
C2447 C2448 1.387 . S
C2447 H2450 0.950 . S
C2448 C2447 1.387 . S
C2448 C2451 1.387 . S
H2449 C2445 0.950 . S
H2450 C2447 0.950 . S
C2451 C2442 1.390 1_655 S
C2451 H2444 0.950 . S
C2451 C2448 1.387 . S
C2452 C2453 1.387 . S
C2452 H2456 0.950 . S
C2452 C2461 1.390 . S
C2453 C2452 1.387 . S
C2453 C2455 1.387 . S
H2454 C2461 0.950 . S
C2455 C2453 1.387 . S
C2455 C2457 1.390 . S
C2455 H2459 0.950 . S
H2456 C2452 0.950 . S
C2457 C2455 1.390 . S
C2457 C2458 1.387 . S
C2457 H2460 0.950 . S
C2458 C2457 1.387 . S
C2458 C2461 1.387 . S
H2459 C2455 0.950 . S
H2460 C2457 0.950 . S
C2461 C2452 1.390 . S
C2461 H2454 0.950 . S
C2461 C2458 1.387 . S
C2462 C2463 1.387 . S
C2462 H2466 0.950 . S
C2462 C2471 1.390 1_455 S
C2463 C2462 1.387 . S
C2463 C2465 1.387 . S
H2464 C2471 0.950 . S
C2465 C2463 1.387 . S
C2465 C2467 1.390 1_455 S
C2465 H2469 0.950 . S
H2466 C2462 0.950 . S
C2467 C2465 1.390 1_655 S
C2467 C2468 1.387 . S
C2467 H2470 0.950 . S
C2468 C2467 1.387 . S
C2468 C2471 1.387 . S
H2469 C2465 0.950 . S
H2470 C2467 0.950 . S
C2471 C2462 1.390 1_655 S
C2471 H2464 0.950 . S
C2471 C2468 1.387 . S
C2472 C2473 1.387 . S
C2472 H2476 0.950 . S
C2472 C2481 1.390 . S
C2473 C2472 1.387 . S
C2473 C2475 1.387 . S
H2474 C2481 0.950 . S
C2475 C2473 1.387 . S
C2475 C2477 1.390 . S
C2475 H2479 0.950 . S
H2476 C2472 0.950 . S
C2477 C2475 1.390 . S
C2477 C2478 1.387 . S
C2477 H2480 0.950 . S
C2478 C2477 1.387 . S
C2478 C2481 1.387 . S
H2479 C2475 0.950 . S
H2480 C2477 0.950 . S
C2481 C2472 1.390 . S
C2481 H2474 0.950 . S
C2481 C2478 1.387 . S
C2482 C2483 1.387 . S
C2482 H2486 0.950 . S
C2482 C2491 1.390 . S
C2483 C2482 1.387 . S
C2483 C2485 1.387 . S
H2484 C2491 0.950 . S
C2485 C2483 1.387 . S
C2485 C2487 1.390 . S
C2485 H2489 0.950 . S
H2486 C2482 0.950 . S
C2487 C2485 1.390 . S
C2487 C2488 1.387 . S
C2487 H2490 0.950 . S
C2488 C2487 1.387 . S
C2488 C2491 1.387 . S
H2489 C2485 0.950 . S
H2490 C2487 0.950 . S
C2491 C2482 1.390 . S
C2491 H2484 0.950 . S
C2491 C2488 1.387 . S
C2492 C2493 1.387 . S
C2492 H2496 0.950 . S
C2492 C2501 1.390 . S
C2493 C2492 1.387 . S
C2493 C2495 1.387 . S
H2494 C2501 0.950 . S
C2495 C2493 1.387 . S
C2495 C2497 1.390 . S
C2495 H2499 0.950 . S
H2496 C2492 0.950 . S
C2497 C2495 1.390 . S
C2497 C2498 1.387 . S
C2497 H2500 0.950 . S
C2498 C2497 1.387 . S
C2498 C2501 1.387 . S
H2499 C2495 0.950 . S
H2500 C2497 0.950 . S
C2501 C2492 1.390 . S
C2501 H2494 0.950 . S
C2501 C2498 1.387 . S
C2502 C2503 1.387 . S
C2502 H2506 0.950 . S
C2502 C2511 1.390 . S
C2503 C2502 1.387 . S
C2503 C2505 1.387 . S
H2504 C2511 0.950 . S
C2505 C2503 1.387 . S
C2505 C2507 1.390 . S
C2505 H2509 0.950 . S
H2506 C2502 0.950 . S
C2507 C2505 1.390 . S
C2507 C2508 1.387 . S
C2507 H2510 0.950 . S
C2508 C2507 1.387 . S
C2508 C2511 1.387 . S
H2509 C2505 0.950 . S
H2510 C2507 0.950 . S
C2511 C2502 1.390 . S
C2511 H2504 0.950 . S
C2511 C2508 1.387 . S
C2512 C2513 1.387 . S
C2512 H2516 0.950 . S
C2512 C2521 1.390 . S
C2513 C2512 1.387 . S
C2513 C2515 1.387 . S
H2514 C2521 0.950 . S
C2515 C2513 1.387 . S
C2515 C2517 1.390 . S
C2515 H2519 0.950 . S
H2516 C2512 0.950 . S
C2517 C2515 1.390 . S
C2517 C2518 1.387 . S
C2517 H2520 0.950 . S
C2518 C2517 1.387 . S
C2518 C2521 1.387 . S
H2519 C2515 0.950 . S
H2520 C2517 0.950 . S
C2521 C2512 1.390 . S
C2521 H2514 0.950 . S
C2521 C2518 1.387 . S
C2522 C2523 1.387 . S
C2522 H2526 0.950 . S
C2522 C2531 1.390 . S
C2523 C2522 1.387 . S
C2523 C2525 1.387 . S
H2524 C2531 0.950 . S
C2525 C2523 1.387 . S
C2525 C2527 1.390 . S
C2525 H2529 0.950 . S
H2526 C2522 0.950 . S
C2527 C2525 1.390 . S
C2527 C2528 1.387 . S
C2527 H2530 0.950 . S
C2528 C2527 1.387 . S
C2528 C2531 1.387 . S
H2529 C2525 0.950 . S
H2530 C2527 0.950 . S
C2531 C2522 1.390 . S
C2531 H2524 0.950 . S
C2531 C2528 1.387 . S
C2532 C2533 1.387 . S
C2532 H2536 0.950 . S
C2532 C2541 1.390 . S
C2533 C2532 1.387 . S
C2533 C2535 1.387 . S
H2534 C2541 0.950 . S
C2535 C2533 1.387 . S
C2535 C2537 1.390 . S
C2535 H2539 0.950 . S
H2536 C2532 0.950 . S
C2537 C2535 1.390 . S
C2537 C2538 1.387 . S
C2537 H2540 0.950 . S
C2538 C2537 1.387 . S
C2538 C2541 1.387 . S
H2539 C2535 0.950 . S
H2540 C2537 0.950 . S
C2541 C2532 1.390 . S
C2541 H2534 0.950 . S
C2541 C2538 1.387 . S
C2542 C2543 1.387 . S
C2542 H2546 0.950 . S
C2542 C2551 1.390 . S
C2543 C2542 1.387 . S
C2543 C2545 1.387 . S
H2544 C2551 0.950 . S
C2545 C2543 1.387 . S
C2545 C2547 1.390 . S
C2545 H2549 0.950 . S
H2546 C2542 0.950 . S
C2547 C2545 1.390 . S
C2547 C2548 1.387 . S
C2547 H2550 0.950 . S
C2548 C2547 1.387 . S
C2548 C2551 1.387 . S
H2549 C2545 0.950 . S
H2550 C2547 0.950 . S
C2551 C2542 1.390 . S
C2551 H2544 0.950 . S
C2551 C2548 1.387 . S
C2552 C2553 1.387 . S
C2552 H2556 0.950 . S
C2552 C2561 1.378 1_556 S
C2553 C2552 1.387 . S
C2553 C2555 1.387 . S
H2554 C2561 0.953 . S
C2555 C2553 1.387 . S
C2555 C2557 1.390 1_556 S
C2555 H2559 0.950 . S
H2556 C2552 0.950 . S
C2557 C2555 1.390 1_554 S
C2557 C2558 1.387 . S
C2557 H2560 0.950 . S
C2558 C2557 1.387 . S
C2558 C2561 1.396 . S
H2559 C2555 0.950 . S
H2560 C2557 0.950 . S
C2561 C2552 1.378 1_554 S
C2561 H2554 0.953 . S
C2561 C2558 1.396 . S
C2562 C2563 1.387 . S
C2562 H2566 0.950 . S
C2562 C2571 1.390 . S
C2563 C2562 1.387 . S
C2563 C2565 1.387 . S
H2564 C2571 0.950 . S
C2565 C2563 1.387 . S
C2565 C2567 1.390 . S
C2565 H2569 0.950 . S
H2566 C2562 0.950 . S
C2567 C2565 1.390 . S
C2567 C2568 1.387 . S
C2567 H2570 0.950 . S
C2568 C2567 1.387 . S
C2568 C2571 1.387 . S
H2569 C2565 0.950 . S
H2570 C2567 0.950 . S
C2571 C2562 1.390 . S
C2571 H2564 0.950 . S
C2571 C2568 1.387 . S
C2572 C2573 1.387 . S
C2572 H2576 0.950 . S
C2572 C2581 1.390 1_554 S
C2573 C2572 1.387 . S
C2573 C2575 1.387 . S
H2574 C2581 0.950 . S
C2575 C2573 1.387 . S
C2575 C2577 1.390 1_554 S
C2575 H2579 0.950 . S
H2576 C2572 0.950 . S
C2577 C2575 1.390 1_556 S
C2577 C2578 1.387 . S
C2577 H2580 0.950 . S
C2578 C2577 1.387 . S
C2578 C2581 1.387 . S
H2579 C2575 0.950 . S
H2580 C2577 0.950 . S
C2581 C2572 1.390 1_556 S
C2581 H2574 0.950 . S
C2581 C2578 1.387 . S
C2582 C2583 1.412 . S
C2582 H2586 0.962 . S
C2582 C2591 1.355 1_556 S
C2583 C2582 1.412 . S
C2583 C2585 1.387 . S
H2584 C2591 0.950 . S
C2585 C2583 1.387 . S
C2585 C2587 1.390 1_556 S
C2585 H2589 0.950 . S
H2586 C2582 0.962 . S
C2587 C2585 1.390 1_554 S
C2587 C2588 1.387 . S
C2587 H2590 0.950 . S
C2588 C2587 1.387 . S
C2588 C2591 1.387 . S
H2589 C2585 0.950 . S
H2590 C2587 0.950 . S
C2591 C2582 1.355 1_554 S
C2591 H2584 0.950 . S
C2591 C2588 1.387 . S
C2592 C2593 1.387 . S
C2592 H2596 0.950 . S
C2592 C2601 1.390 . S
C2593 C2592 1.387 . S
C2593 C2595 1.387 . S
H2594 C2601 0.950 . S
C2595 C2593 1.387 . S
C2595 C2597 1.390 . S
C2595 H2599 0.950 . S
H2596 C2592 0.950 . S
C2597 C2595 1.390 . S
C2597 C2598 1.387 . S
C2597 H2600 0.950 . S
C2598 C2597 1.387 . S
C2598 C2601 1.387 . S
H2599 C2595 0.950 . S
H2600 C2597 0.950 . S
C2601 C2592 1.390 . S
C2601 H2594 0.950 . S
C2601 C2598 1.387 . S
C2602 C2603 1.387 . S
C2602 H2606 0.950 . S
C2602 C2611 1.390 . S
C2603 C2602 1.387 . S
C2603 C2605 1.387 . S
H2604 C2611 0.950 . S
C2605 C2603 1.387 . S
C2605 C2607 1.390 . S
C2605 H2609 0.950 . S
H2606 C2602 0.950 . S
C2607 C2605 1.390 . S
C2607 C2608 1.387 . S
C2607 H2610 0.950 . S
C2608 C2607 1.387 . S
C2608 C2611 1.387 . S
H2609 C2605 0.950 . S
H2610 C2607 0.950 . S
C2611 C2602 1.390 . S
C2611 H2604 0.950 . S
C2611 C2608 1.387 . S
C2612 C2613 1.387 . S
C2612 H2616 0.950 . S
C2612 C2621 1.390 . S
C2613 C2612 1.387 . S
C2613 C2615 1.387 . S
H2614 C2621 0.950 . S
C2615 C2613 1.387 . S
C2615 C2617 1.390 . S
C2615 H2619 0.950 . S
H2616 C2612 0.950 . S
C2617 C2615 1.390 . S
C2617 C2618 1.387 . S
C2617 H2620 0.950 . S
C2618 C2617 1.387 . S
C2618 C2621 1.387 . S
H2619 C2615 0.950 . S
H2620 C2617 0.950 . S
C2621 C2612 1.390 . S
C2621 H2614 0.950 . S
C2621 C2618 1.387 . S
C2622 C2623 1.387 . S
C2622 H2626 0.950 . S
C2622 C2631 1.390 1_545 S
C2623 C2622 1.387 . S
C2623 C2625 1.387 . S
H2624 C2631 0.950 . S
C2625 C2623 1.387 . S
C2625 C2627 1.390 1_545 S
C2625 H2629 0.950 . S
H2626 C2622 0.950 . S
C2627 C2625 1.390 1_565 S
C2627 C2628 1.387 . S
C2627 H2630 0.950 . S
C2628 C2627 1.387 . S
C2628 C2631 1.387 . S
H2629 C2625 0.950 . S
H2630 C2627 0.950 . S
C2631 C2622 1.390 1_565 S
C2631 H2624 0.950 . S
C2631 C2628 1.387 . S
C2632 C2633 1.387 . S
C2632 H2636 0.950 . S
C2632 C2641 1.390 1_554 S
C2633 C2632 1.387 . S
C2633 C2635 1.387 . S
H2634 C2641 0.950 . S
C2635 C2633 1.387 . S
C2635 C2637 1.390 1_554 S
C2635 H2639 0.950 . S
H2636 C2632 0.950 . S
C2637 C2635 1.390 1_556 S
C2637 C2638 1.387 . S
C2637 H2640 0.950 . S
C2638 C2637 1.387 . S
C2638 C2641 1.387 . S
H2639 C2635 0.950 . S
H2640 C2637 0.950 . S
C2641 C2632 1.390 1_556 S
C2641 H2634 0.950 . S
C2641 C2638 1.387 . S
C2642 C2643 1.387 . S
C2642 H2646 0.950 1_455 S
C2642 C2651 1.390 . S
C2643 C2642 1.387 . S
C2643 C2645 1.387 . S
H2644 C2651 0.950 1_655 S
C2645 C2643 1.387 . S
C2645 C2647 1.390 . S
C2645 H2649 0.950 . S
H2646 C2642 0.950 1_655 S
C2647 C2645 1.390 . S
C2647 C2648 1.387 . S
C2647 H2650 0.950 . S
C2648 C2647 1.387 . S
C2648 C2651 1.387 . S
H2649 C2645 0.950 . S
H2650 C2647 0.950 . S
C2651 C2642 1.390 . S
C2651 H2644 0.950 1_455 S
C2651 C2648 1.387 . S
C2652 C2653 1.387 . S
C2652 H2656 0.950 . S
C2652 C2661 1.390 1_556 S
C2653 C2652 1.387 . S
C2653 C2655 1.387 . S
H2654 C2661 0.950 . S
C2655 C2653 1.387 . S
C2655 C2657 1.390 1_556 S
C2655 H2659 0.950 . S
H2656 C2652 0.950 . S
C2657 C2655 1.390 1_554 S
C2657 C2658 1.387 . S
C2657 H2660 0.950 . S
C2658 C2657 1.387 . S
C2658 C2661 1.387 . S
H2659 C2655 0.950 . S
H2660 C2657 0.950 . S
C2661 C2652 1.390 1_554 S
C2661 H2654 0.950 . S
C2661 C2658 1.387 . S
C2662 C2663 1.387 . S
C2662 H2666 0.950 1_655 S
C2662 C2671 1.390 1_545 S
C2663 C2662 1.387 . S
C2663 C2665 1.387 . S
H2664 C2671 0.950 1_455 S
C2665 C2663 1.387 . S
C2665 C2667 1.390 1_545 S
C2665 H2669 0.950 . S
H2666 C2662 0.950 1_455 S
C2667 C2665 1.390 1_565 S
C2667 C2668 1.387 . S
C2667 H2670 0.950 . S
C2668 C2667 1.387 . S
C2668 C2671 1.387 . S
H2669 C2665 0.950 . S
H2670 C2667 0.950 . S
C2671 C2662 1.390 1_565 S
C2671 H2664 0.950 1_655 S
C2671 C2668 1.387 . S
C2672 C2673 1.387 . S
C2672 H2676 0.950 . S
C2672 C2681 1.390 . S
C2673 C2672 1.387 . S
C2673 C2675 1.387 . S
H2674 C2681 0.950 . S
C2675 C2673 1.387 . S
C2675 C2677 1.390 . S
C2675 H2679 0.950 . S
H2676 C2672 0.950 . S
C2677 C2675 1.390 . S
C2677 C2678 1.387 . S
C2677 H2680 0.950 . S
C2678 C2677 1.387 . S
C2678 C2681 1.387 . S
H2679 C2675 0.950 . S
H2680 C2677 0.950 . S
C2681 C2672 1.390 . S
C2681 H2674 0.950 . S
C2681 C2678 1.387 . S
C2682 C2683 1.387 . S
C2682 H2686 0.950 . S
C2682 C2691 1.390 . S
C2683 C2682 1.387 . S
C2683 C2685 1.387 . S
H2684 C2691 0.950 . S
C2685 C2683 1.387 . S
C2685 C2687 1.390 . S
C2685 H2689 0.950 1_554 S
H2686 C2682 0.950 . S
C2687 C2685 1.390 . S
C2687 C2688 1.387 . S
C2687 H2690 0.950 1_554 S
C2688 C2687 1.387 . S
C2688 C2691 1.387 . S
H2689 C2685 0.950 1_556 S
H2690 C2687 0.950 1_556 S
C2691 C2682 1.390 . S
C2691 H2684 0.950 . S
C2691 C2688 1.387 . S
C2692 C2693 1.387 . S
C2692 H2696 0.950 . S
C2692 C2701 1.390 . S
C2693 C2692 1.387 . S
C2693 C2695 1.387 . S
H2694 C2701 0.950 . S
C2695 C2693 1.387 . S
C2695 C2697 1.390 . S
C2695 H2699 0.950 . S
H2696 C2692 0.950 . S
C2697 C2695 1.390 . S
C2697 C2698 1.387 . S
C2697 H2700 0.950 . S
C2698 C2697 1.387 . S
C2698 C2701 1.387 . S
H2699 C2695 0.950 . S
H2700 C2697 0.950 . S
C2701 C2692 1.390 . S
C2701 H2694 0.950 . S
C2701 C2698 1.387 . S
C2702 C2703 1.387 . S
C2702 H2706 0.950 1_556 S
C2702 C2711 1.390 1_455 S
C2703 C2702 1.387 . S
C2703 C2705 1.387 . S
H2704 C2711 0.950 1_554 S
C2705 C2703 1.387 . S
C2705 C2707 1.390 1_455 S
C2705 H2709 0.950 . S
H2706 C2702 0.950 1_554 S
C2707 C2705 1.390 1_655 S
C2707 C2708 1.387 . S
C2707 H2710 0.950 . S
C2708 C2707 1.387 . S
C2708 C2711 1.387 . S
H2709 C2705 0.950 . S
H2710 C2707 0.950 . S
C2711 C2702 1.390 1_655 S
C2711 H2704 0.950 1_556 S
C2711 C2708 1.387 . S
C2712 C2713 1.387 . S
C2712 H2716 0.950 . S
C2712 C2721 1.390 . S
C2713 C2712 1.387 . S
C2713 C2715 1.387 . S
H2714 C2721 0.950 . S
C2715 C2713 1.387 . S
C2715 C2717 1.390 . S
C2715 H2719 0.950 . S
H2716 C2712 0.950 . S
C2717 C2715 1.390 . S
C2717 C2718 1.387 . S
C2717 H2720 0.950 . S
C2718 C2717 1.387 . S
C2718 C2721 1.387 . S
H2719 C2715 0.950 . S
H2720 C2717 0.950 . S
C2721 C2712 1.390 . S
C2721 H2714 0.950 . S
C2721 C2718 1.387 . S
C2722 C2723 1.387 . S
C2722 H2726 0.950 . S
C2722 C2731 1.390 1_554 S
C2723 C2722 1.387 . S
C2723 C2725 1.387 . S
H2724 C2731 0.950 . S
C2725 C2723 1.387 . S
C2725 C2727 1.390 1_554 S
C2725 H2729 0.950 . S
H2726 C2722 0.950 . S
C2727 C2725 1.390 1_556 S
C2727 C2728 1.387 . S
C2727 H2730 0.950 . S
C2728 C2727 1.387 . S
C2728 C2731 1.387 . S
H2729 C2725 0.950 . S
H2730 C2727 0.950 . S
C2731 C2722 1.390 1_556 S
C2731 H2724 0.950 . S
C2731 C2728 1.387 . S
C2732 C2733 1.387 . S
C2732 H2736 0.950 . S
C2732 C2741 1.390 1_545 S
C2733 C2732 1.387 . S
C2733 C2735 1.387 . S
H2734 C2741 0.950 . S
C2735 C2733 1.387 . S
C2735 C2737 1.390 1_545 S
C2735 H2739 0.950 . S
H2736 C2732 0.950 . S
C2737 C2735 1.390 1_565 S
C2737 C2738 1.387 . S
C2737 H2740 0.950 . S
C2738 C2737 1.387 . S
C2738 C2741 1.387 . S
H2739 C2735 0.950 . S
H2740 C2737 0.950 . S
C2741 C2732 1.390 1_565 S
C2741 H2734 0.950 . S
C2741 C2738 1.387 . S
C2742 C2743 1.387 . S
C2742 H2746 0.950 . S
C2742 C2751 1.390 . S
C2743 C2742 1.387 . S
C2743 C2745 1.387 . S
H2744 C2751 0.950 . S
C2745 C2743 1.387 . S
C2745 C2747 1.390 . S
C2745 H2749 0.950 . S
H2746 C2742 0.950 . S
C2747 C2745 1.390 . S
C2747 C2748 1.387 . S
C2747 H2750 0.950 . S
C2748 C2747 1.387 . S
C2748 C2751 1.387 . S
H2749 C2745 0.950 . S
H2750 C2747 0.950 . S
C2751 C2742 1.390 . S
C2751 H2744 0.950 . S
C2751 C2748 1.387 . S
C2752 C2753 1.387 . S
C2752 H2756 0.950 . S
C2752 C2761 1.390 . S
C2753 C2752 1.387 . S
C2753 C2755 1.387 . S
H2754 C2761 0.950 . S
C2755 C2753 1.387 . S
C2755 C2757 1.390 . S
C2755 H2759 0.950 . S
H2756 C2752 0.950 . S
C2757 C2755 1.390 . S
C2757 C2758 1.387 . S
C2757 H2760 0.950 . S
C2758 C2757 1.387 . S
C2758 C2761 1.387 . S
H2759 C2755 0.950 . S
H2760 C2757 0.950 . S
C2761 C2752 1.390 . S
C2761 H2754 0.950 . S
C2761 C2758 1.387 . S
C2762 C2763 1.387 . S
C2762 H2766 0.950 . S
C2762 C2771 1.390 . S
C2763 C2762 1.387 . S
C2763 C2765 1.387 . S
H2764 C2771 0.950 . S
C2765 C2763 1.387 . S
C2765 C2767 1.390 . S
C2765 H2769 0.950 1_545 S
H2766 C2762 0.950 . S
C2767 C2765 1.390 . S
C2767 C2768 1.387 . S
C2767 H2770 0.950 1_545 S
C2768 C2767 1.387 . S
C2768 C2771 1.387 . S
H2769 C2765 0.950 1_565 S
H2770 C2767 0.950 1_565 S
C2771 C2762 1.390 . S
C2771 H2764 0.950 . S
C2771 C2768 1.387 . S
C2772 C2773 1.387 . S
C2772 H2776 0.950 . S
C2772 C2781 1.390 1_455 S
C2773 C2772 1.387 . S
C2773 C2775 1.387 . S
H2774 C2781 0.950 . S
C2775 C2773 1.387 . S
C2775 C2777 1.390 1_455 S
C2775 H2779 0.950 . S
H2776 C2772 0.950 . S
C2777 C2775 1.390 1_655 S
C2777 C2778 1.387 . S
C2777 H2780 0.950 . S
C2778 C2777 1.387 . S
C2778 C2781 1.387 . S
H2779 C2775 0.950 . S
H2780 C2777 0.950 . S
C2781 C2772 1.390 1_655 S
C2781 H2774 0.950 . S
C2781 C2778 1.387 . S
C2782 C2783 1.387 . S
C2782 H2786 0.950 . S
C2782 C2791 1.390 1_455 S
C2783 C2782 1.387 . S
C2783 C2785 1.387 . S
H2784 C2791 0.950 . S
C2785 C2783 1.387 . S
C2785 C2787 1.390 1_455 S
C2785 H2789 0.950 . S
H2786 C2782 0.950 . S
C2787 C2785 1.390 1_655 S
C2787 C2788 1.387 . S
C2787 H2790 0.950 . S
C2788 C2787 1.387 . S
C2788 C2791 1.387 . S
H2789 C2785 0.950 . S
H2790 C2787 0.950 . S
C2791 C2782 1.390 1_655 S
C2791 H2784 0.950 . S
C2791 C2788 1.387 . S
C2792 C2793 1.387 . S
C2792 H2796 0.950 . S
C2792 C2801 1.390 1_455 S
C2793 C2792 1.387 . S
C2793 C2795 1.387 . S
H2794 C2801 0.950 . S
C2795 C2793 1.387 . S
C2795 C2797 1.390 1_455 S
C2795 H2799 0.950 . S
H2796 C2792 0.950 . S
C2797 C2795 1.390 1_655 S
C2797 C2798 1.387 . S
C2797 H2800 0.950 . S
C2798 C2797 1.387 . S
C2798 C2801 1.387 . S
H2799 C2795 0.950 . S
H2800 C2797 0.950 . S
C2801 C2792 1.390 1_655 S
C2801 H2794 0.950 . S
C2801 C2798 1.387 . S
C2802 C2803 1.387 . S
C2802 H2806 0.950 . S
C2802 C2811 1.390 . S
C2803 C2802 1.387 . S
C2803 C2805 1.387 . S
H2804 C2811 0.950 . S
C2805 C2803 1.387 . S
C2805 C2807 1.390 . S
C2805 H2809 0.950 . S
H2806 C2802 0.950 . S
C2807 C2805 1.390 . S
C2807 C2808 1.387 . S
C2807 H2810 0.950 . S
C2808 C2807 1.387 . S
C2808 C2811 1.387 . S
H2809 C2805 0.950 . S
H2810 C2807 0.950 . S
C2811 C2802 1.390 . S
C2811 H2804 0.950 . S
C2811 C2808 1.387 . S
C2812 C2813 1.387 . S
C2812 H2816 0.950 . S
C2812 C2821 1.390 1_565 S
C2813 C2812 1.387 . S
C2813 C2815 1.387 . S
H2814 C2821 0.950 . S
C2815 C2813 1.387 . S
C2815 C2817 1.390 1_565 S
C2815 H2819 0.950 . S
H2816 C2812 0.950 . S
C2817 C2815 1.390 1_545 S
C2817 C2818 1.387 . S
C2817 H2820 0.950 . S
C2818 C2817 1.387 . S
C2818 C2821 1.387 . S
H2819 C2815 0.950 . S
H2820 C2817 0.950 . S
C2821 C2812 1.390 1_545 S
C2821 H2814 0.950 . S
C2821 C2818 1.387 . S
C2822 C2823 1.387 . S
C2822 H2826 0.950 . S
C2822 C2831 1.390 1_554 S
C2823 C2822 1.387 . S
C2823 C2825 1.387 . S
H2824 C2831 0.950 . S
C2825 C2823 1.387 . S
C2825 C2827 1.390 1_554 S
C2825 H2829 0.950 1_565 S
H2826 C2822 0.950 . S
C2827 C2825 1.390 1_556 S
C2827 C2828 1.387 . S
C2827 H2830 0.950 1_565 S
C2828 C2827 1.387 . S
C2828 C2831 1.387 . S
H2829 C2825 0.950 1_545 S
H2830 C2827 0.950 1_545 S
C2831 C2822 1.390 1_556 S
C2831 H2824 0.950 . S
C2831 C2828 1.387 . S
C1633 C927 1.353 . S
C1638 C20 1.377 . S
C1643 C54 1.377 . S
C1648 C825 1.353 . S
C1653 C88 1.377 . S
C1658 C859 1.352 . S
C1663 C893 1.353 . S
C1668 C122 1.377 . S
C1673 C156 1.377 . S
C1678 C179 1.352 . S
C1683 C213 1.353 . S
C1688 C190 1.377 1_655 S
C1693 C247 1.352 . S
C1698 C224 1.376 . S
C1703 C258 1.377 1_455 S
C1708 C145 1.352 . S
C1713 C292 1.376 . S
C1718 C1437 1.351 . S
C1723 C326 1.377 1_556 S
C1728 C1471 1.352 . S
C1733 C360 1.376 . S
C1738 C689 1.351 . S
C1743 C1403 1.352 . S
C1748 C394 1.377 1_556 S
C1753 C1573 1.353 . S
C1758 C428 1.376 . S
C1763 C553 1.352 . S
C1768 C462 1.377 1_554 S
C1773 C496 1.376 . S
C1778 C1607 1.352 . S
C1783 C530 1.376 1_554 S
C1788 C1539 1.351 . S
C1793 C315 1.353 . S
C1798 C564 1.377 . S
C1803 C1335 1.352 . S
C1808 C598 1.376 . S
C1813 C1233 1.351 . S
C1818 C632 1.377 . S
C1823 C1267 1.350 . S
C1828 C666 1.376 . S
C1833 C700 1.376 . S
C1838 C485 1.353 . S
C1843 C734 1.376 . S
C1848 C1199 1.350 . S
C1853 C1097 1.351 . S
C1858 C768 1.377 . S
C1863 C802 1.376 1_565 S
C1868 C1165 1.350 . S
C1873 C836 1.376 . S
C1878 C111 1.350 . S
C1883 C870 1.377 1_455 S
C1888 C9 1.350 . S
C1893 C43 1.350 . S
C1898 C904 1.376 . S
C1903 C77 1.350 . S
C1908 C938 1.376 1_655 S
C1913 C995 1.353 . S
C1918 C972 1.377 . S
C1923 C1029 1.350 . S
C1928 C1006 1.377 . S
C1933 C1040 1.376 . S
C1938 C1063 1.351 . S
C1943 C1074 1.376 . S
C1948 C961 1.350 . S
C1953 C1108 1.377 . S
C1958 C621 1.351 . S
C1963 C655 1.350 . S
C1968 C1142 1.376 . S
C1973 C1505 1.350 . S
C1978 C1176 1.377 . S
C1983 C1210 1.376 . S
C1988 C587 1.352 . S
C1993 C757 1.350 . S
C1998 C1244 1.377 . S
C2003 C1278 1.376 . S
C2008 C1369 1.351 . S
C2013 C1312 1.376 . S
C2018 C791 1.353 . S
C2023 C723 1.351 . S
C2028 C1346 1.376 . S
C2033 C1131 1.350 . S
C2038 C1380 1.377 . S
C2043 C519 1.352 . S
C2048 C1414 1.377 . S
C2053 C1448 1.377 1_565 S
C2058 C417 1.350 . S
C2063 C451 1.351 . S
C2068 C1482 1.376 . S
C2073 C1516 1.377 1_545 S
C2078 C1301 1.351 . S
C2083 C1550 1.376 . S
C2088 C383 1.350 . S
C2093 C281 1.353 . S
C2098 C1584 1.376 1_545 S
C2103 C349 1.353 . S
C2108 C1618 1.376 . S
C2113 C1430 1.251 . S
C2118 C33 1.225 . S
C2123 C1464 1.248 . S
C2128 C67 1.223 . S
C2133 C682 1.248 . S
C2138 C101 1.224 . S
C2143 C1396 1.250 . S
C2148 C135 1.223 . S
C2153 C169 1.224 . S
C2158 C1566 1.248 . S
C2163 C546 1.251 . S
C2168 C203 1.226 . S
C2173 C1600 1.248 . S
C2178 C237 1.224 . S
C2183 C271 1.223 . S
C2188 C1532 1.248 . S
C2193 C305 1.227 . S
C2198 C308 1.250 . S
C2203 C342 1.251 . S
C2208 C339 1.225 . S
C2213 C376 1.250 . S
C2218 C373 1.223 . S
C2223 C274 1.251 . S
C2228 C407 1.224 . S
C2233 C1328 1.248 . S
C2238 C441 1.225 . S
C2243 C1226 1.251 . S
C2248 C475 1.224 . S
C2253 C1260 1.249 . S
C2258 C509 1.222 . S
C2263 C543 1.225 . S
C2268 C1294 1.251 . S
C2273 C920 1.248 . S
C2278 C577 1.223 . S
C2283 C611 1.226 . S
C2288 C172 1.251 . S
C2293 C206 1.250 . S
C2298 C645 1.227 . S
C2303 C240 1.248 . S
C2308 C679 1.224 . S
C2313 C713 1.227 . S
C2318 C954 1.250 . S
C2323 C36 1.248 . S
C2328 C747 1.224 . S
C2333 C781 1.227 . S
C2338 C70 1.250 . S
C2343 C815 1.226 . S
C2348 C2 1.251 . S
C2353 C614 1.251 . S
C2358 C849 1.225 . S
C2363 C648 1.251 . S
C2368 C883 1.226 . S
C2373 C917 1.225 . S
C2378 C1498 1.251 . S
C2383 C951 1.223 . S
C2388 C580 1.248 . S
C2393 C750 1.248 . S
C2398 C985 1.224 . S
C2403 C1362 1.248 . S
C2408 C1019 1.223 . S
C2413 C784 1.248 . S
C2418 C1053 1.223 . S
C2423 C1087 1.224 . S
C2428 C716 1.248 . S
C2433 C1121 1.225 . S
C2438 C1124 1.251 . S
C2443 C1158 1.251 . S
C2448 C1155 1.225 . S
C2453 C1189 1.227 . S
C2458 C1192 1.251 . S
C2463 C1223 1.225 . S
C2468 C1090 1.248 . S
C2473 C1257 1.223 . S
C2478 C512 1.250 . S
C2483 C410 1.251 . S
C2488 C1291 1.226 . S
C2493 C444 1.249 . S
C2498 C1325 1.226 . S
C2503 C478 1.248 . S
C2508 C1359 1.224 . S
C2513 C104 1.248 . S
C2518 C1393 1.223 . S
C2523 C988 1.248 . S
C2528 C1427 1.224 . S
C2533 C1461 1.223 . S
C2538 C1022 1.248 . S
C2543 C1495 1.224 . S
C2548 C1056 1.248 . S
C2553 C1529 1.226 . S
C2558 C138 1.249 . S
C2563 C1563 1.224 . S
C2568 C852 1.248 . S
C2573 C1597 1.224 . S
C2578 C886 1.248 . S
C2583 C818 1.248 . S
C2588 C1631 1.226 . S
C2593 C5 0.942 . S
C2598 C1025 0.942 . S
C2603 C39 0.940 . S
C2608 C1059 0.940 . S
C2613 C957 0.940 . S
C2618 C73 0.940 . S
C2623 C991 0.942 . S
C2628 C107 0.942 . S
C2633 C141 0.942 . S
C2638 C889 0.942 . S
C2643 C923 0.940 . S
C2648 C175 0.940 . S
C2653 C821 0.942 . S
C2658 C209 0.942 . S
C2663 C855 0.940 . S
C2668 C243 0.940 . S
C2673 C277 0.942 . S
C2678 C345 0.942 . S
C2683 C311 0.942 . S
C2688 C379 0.942 . S
C2693 C481 0.940 . S
C2698 C413 0.940 . S
C2703 C447 0.940 . S
C2708 C515 0.940 . S
C2713 C549 0.942 . S
C2718 C583 0.942 . S
C2723 C1603 0.942 . S
C2728 C617 0.942 . S
C2733 C1535 0.942 . S
C2738 C651 0.942 . S
C2743 C685 0.940 . S
C2748 C753 0.940 . S
C2753 C719 0.940 . S
C2758 C1467 0.940 . S
C2763 C787 0.942 . S
C2768 C1433 0.942 . S
C2773 C1161 0.942 . S
C2778 C1093 0.942 . S
C2783 C1195 0.940 . S
C2788 C1127 0.940 . S
C2793 C1297 0.942 . S
C2798 C1229 0.942 . S
C2803 C1331 0.940 . S
C2808 C1263 0.940 . S
C2813 C1365 0.942 . S
C2818 C1399 0.942 . S
C2823 C1569 0.942 . S
C2828 C1501 0.942 . S
