# Generated by pormake.
# Topology umf, (4)-cn, num edge types: 1
# Building blocks:
#     Node 0, Type 0, BuildingBlock: KOZSID_clean_sbu_0, # of connection points: 4
#     Node 1, Type 0, BuildingBlock: KOZSID_clean_sbu_0, # of connection points: 4
#     Node 2, Type 0, BuildingBlock: KOZSID_clean_sbu_0, # of connection points: 4
#     Node 3, Type 0, BuildingBlock: KOZSID_clean_sbu_0, # of connection points: 4
#     Node 4, Type 0, BuildingBlock: KOZSID_clean_sbu_0, # of connection points: 4
#     Node 5, Type 0, BuildingBlock: KOZSID_clean_sbu_0, # of connection points: 4
#     Node 6, Type 0, BuildingBlock: KOZSID_clean_sbu_0, # of connection points: 4
#     Node 7, Type 0, BuildingBlock: KOZSID_clean_sbu_0, # of connection points: 4
#     Edge 8, Type (0, 0), BuildingBlock: KIFKEQ_clean_linker_1, # of connection points: 2
#     Edge 9, Type (0, 0), BuildingBlock: KIFKEQ_clean_linker_1, # of connection points: 2
#     Edge 10, Type (0, 0), BuildingBlock: KIFKEQ_clean_linker_1, # of connection points: 2
#     Edge 11, Type (0, 0), BuildingBlock: KIFKEQ_clean_linker_1, # of connection points: 2
#     Edge 12, Type (0, 0), BuildingBlock: KIFKEQ_clean_linker_1, # of connection points: 2
#     Edge 13, Type (0, 0), BuildingBlock: KIFKEQ_clean_linker_1, # of connection points: 2
#     Edge 14, Type (0, 0), BuildingBlock: KIFKEQ_clean_linker_1, # of connection points: 2
#     Edge 15, Type (0, 0), BuildingBlock: KIFKEQ_clean_linker_1, # of connection points: 2
#     Edge 16, Type (0, 0), BuildingBlock: KIFKEQ_clean_linker_1, # of connection points: 2
#     Edge 17, Type (0, 0), BuildingBlock: KIFKEQ_clean_linker_1, # of connection points: 2
#     Edge 18, Type (0, 0), BuildingBlock: KIFKEQ_clean_linker_1, # of connection points: 2
#     Edge 19, Type (0, 0), BuildingBlock: KIFKEQ_clean_linker_1, # of connection points: 2
#     Edge 20, Type (0, 0), BuildingBlock: KIFKEQ_clean_linker_1, # of connection points: 2
#     Edge 21, Type (0, 0), BuildingBlock: KIFKEQ_clean_linker_1, # of connection points: 2
#     Edge 22, Type (0, 0), BuildingBlock: KIFKEQ_clean_linker_1, # of connection points: 2
#     Edge 23, Type (0, 0), BuildingBlock: KIFKEQ_clean_linker_1, # of connection points: 2
# Relax obj value: 0.077
# Max RMSD: 0.190
# Mean RMSD: 0.190
data_MOF--net-umf--node1-KOZSID_clean_sbu_0--edge1-KIFKEQ_clean_linker_1
_symmetry_space_group_name_H-M    P1
_symmetry_Int_Tables_number       1
_symmetry_cell_setting            triclinic
loop_
_symmetry_equiv_pos_as_xyz
'x, y, z'
_cell_length_a     38.488522
_cell_length_b     38.479728
_cell_length_c     59.726429
_cell_angle_alpha  89.954537
_cell_angle_beta   89.999367
_cell_angle_gamma 90.042315
loop_
_atom_site_label
_atom_site_type_symbol
_atom_site_fract_x
_atom_site_fract_y
_atom_site_fract_z
_atom_type_partial_charge
C0 C 0.11827 0.24094 0.18226 0.0
C1 C 0.15372 0.24259 0.18633 0.0
C2 C 0.16843 0.25801 0.1679 0.0
C3 C 0.14122 0.26506 0.15371 0.0
N4 N 0.11038 0.25525 0.16218 0.0
Co5 Co 0.06472 0.26013 0.14727 0.0
N6 N 0.08665 0.26274 0.11728 0.0
C7 C 0.12033 0.27001 0.11326 0.0
C8 C 0.12851 0.26928 0.09092 0.0
C9 C 0.09801 0.26157 0.0802 0.0
C10 C 0.07262 0.25839 0.09665 0.0
N11 N 0.01909 0.26541 0.13234 0.0
C12 C 1.01039 0.26246 0.11034 0.0
C13 C 0.9755 0.27015 0.10728 0.0
C14 C 0.96225 0.27838 0.12803 0.0
C15 C 0.98967 0.2754 0.14267 0.0
N16 N 0.04392 0.25662 0.17757 0.0
C17 C 0.01178 0.267 0.1832 0.0
C18 C 1.0038 0.25855 0.20502 0.0
C19 C 0.03273 0.24183 0.21341 0.0
C20 C 0.05699 0.24102 0.19627 0.0
N21 N 0.06665 0.31173 0.14991 0.0
C22 C 0.05067 0.38353 0.15442 0.0
C23 C 0.06311 0.36394 0.1727 0.0
C24 C 0.07098 0.32817 0.1701 0.0
C25 C 0.04929 0.36675 0.13362 0.0
C26 C 0.05747 0.33142 0.1317 0.0
N27 N 0.06034 0.20936 0.14444 0.0
C28 C 0.02234 0.15969 0.14676 0.0
C29 C 0.04814 0.13784 0.13835 0.0
C30 C 0.08094 0.15241 0.1337 0.0
C31 C 0.08645 0.18842 0.13672 0.0
C32 C 0.02891 0.19486 0.14971 0.0
H33 H 0.11149 0.1994 0.13261 0.0
H34 H 1.00798 0.21039 0.15608 0.0
H35 H 0.07882 0.31347 0.18466 0.0
H36 H 0.05411 0.31971 0.1155 0.0
C37 C 0.14427 0.27237 0.13085 0.0
C38 C 0.09268 0.22664 0.198 0.0
C39 C 0.03515 0.25562 0.09191 0.0
C40 C 0.98798 0.27659 0.1663 0.0
H41 H 0.16749 0.23313 0.20091 0.0
H42 H 0.19588 0.2615 0.16465 0.0
H43 H 0.1538 0.27294 0.08335 0.0
H44 H 0.09482 0.25928 0.06227 0.0
H45 H 0.96128 0.27027 0.09165 0.0
H46 H 0.9356 0.28487 0.132 0.0
H47 H 0.97913 0.26203 0.21341 0.0
H48 H 0.03533 0.23104 0.23005 0.0
H49 H 0.06511 0.37562 0.18913 0.0
H50 H 0.04091 0.38066 0.11879 0.0
H51 H 0.99695 0.14963 0.15119 0.0
H52 H 0.1018 0.13636 0.12732 0.0
C53 C 0.78067 0.11854 0.68265 0.0
C54 C 0.77908 0.15404 0.68653 0.0
C55 C 0.764 0.16859 0.66793 0.0
C56 C 0.7571 0.14122 0.65383 0.0
N57 N 0.76665 0.11046 0.66252 0.0
Co58 Co 0.76203 0.06464 0.6478 0.0
N59 N 0.76009 0.08625 0.61768 0.0
C60 C 0.75292 0.11989 0.61344 0.0
C61 C 0.75391 0.12782 0.59107 0.0
C62 C 0.76168 0.09719 0.58054 0.0
C63 C 0.76466 0.072 0.59714 0.0
N64 N 0.75705 0.01882 0.63306 0.0
C65 C 0.76026 1.0099 0.61111 0.0
C66 C 0.75253 0.97498 0.60817 0.0
C67 C 0.74398 0.96194 0.62894 0.0
C68 C 0.74681 0.98951 0.64346 0.0
N69 N 0.76482 0.04417 0.67824 0.0
C70 C 0.75427 0.01209 0.68395 0.0
C71 C 0.76234 1.00432 0.70586 0.0
C72 C 0.779 0.03333 0.71422 0.0
C73 C 0.78015 0.05742 0.69698 0.0
N74 N 0.71038 0.06655 0.64999 0.0
C75 C 0.6385 0.05046 0.65407 0.0
C76 C 0.65776 0.06311 0.67242 0.0
C77 C 0.69355 0.07105 0.67004 0.0
C78 C 0.65566 0.04896 0.63338 0.0
C79 C 0.69103 0.05718 0.63169 0.0
N80 N 0.81287 0.06028 0.64551 0.0
C81 C 0.86278 0.02322 0.65025 0.0
C82 C 0.88505 0.04916 0.64241 0.0
C83 C 0.87027 0.08108 0.63585 0.0
C84 C 0.83402 0.08621 0.63768 0.0
C85 C 0.82728 0.0292 0.65161 0.0
H86 H 0.82307 0.1109 0.63276 0.0
H87 H 0.81149 1.00815 0.65758 0.0
H88 H 0.70797 0.07908 0.68467 0.0
H89 H 0.70303 0.0537 0.61559 0.0
C90 C 0.75025 0.14402 0.63091 0.0
C91 C 0.79467 0.0931 0.6986 0.0
C92 C 0.76733 0.03447 0.59258 0.0
C93 C 0.74507 0.9881 0.66709 0.0
H94 H 0.78836 0.16796 0.7011 0.0
H95 H 0.76068 0.19601 0.66451 0.0
H96 H 0.75032 0.15302 0.58334 0.0
H97 H 0.76408 0.09376 0.56263 0.0
H98 H 0.75257 0.96061 0.5926 0.0
H99 H 0.7373 0.93535 0.63299 0.0
H100 H 0.75872 0.97972 0.71433 0.0
H101 H 0.78956 0.03606 0.7309 0.0
H102 H 0.6458 0.06523 0.68877 0.0
H103 H 0.64204 0.04047 0.61849 0.0
H104 H 0.87262 0.99791 0.65503 0.0
H105 H 0.88653 0.10194 0.62965 0.0
C106 C 0.904 0.78133 0.18322 0.0
C107 C 0.86858 0.77978 0.1874 0.0
C108 C 0.85366 0.76469 0.16894 0.0
C109 C 0.88073 0.75773 0.15463 0.0
N110 N 0.91168 0.76726 0.16305 0.0
Co111 Co 0.95721 0.76246 0.14798 0.0
N112 N 0.93506 0.76042 0.11803 0.0
C113 C 0.9013 0.75341 0.11408 0.0
C114 C 0.89292 0.75452 0.09179 0.0
C115 C 0.92337 0.76218 0.081 0.0
C116 C 0.94894 0.76491 0.09737 0.0
N117 N 1.00273 0.7573 0.13287 0.0
C118 C 0.01127 0.76041 0.11085 0.0
C119 C 0.04612 0.75265 0.10765 0.0
C120 C 0.0595 0.74418 0.12834 0.0
C121 C 0.03219 0.74709 0.14307 0.0
N122 N 0.97822 0.76533 0.17825 0.0
C123 C 1.01036 0.75474 0.18373 0.0
C124 C 0.01853 0.76288 0.20556 0.0
C125 C 0.98973 0.77961 0.21412 0.0
C126 C 0.96536 0.78075 0.19706 0.0
N127 N 0.95505 0.71084 0.15032 0.0
C128 C 0.96821 0.6382 0.15425 0.0
C129 C 0.95719 0.65815 0.17276 0.0
C130 C 0.95051 0.69417 0.17042 0.0
C131 C 0.97067 0.65558 0.13363 0.0
C132 C 0.96389 0.69128 0.13202 0.0
N133 N 0.96174 0.81328 0.14554 0.0
C134 C 0.99897 0.86316 0.15006 0.0
C135 C 0.97294 0.88547 0.14245 0.0
C136 C 0.9409 0.87073 0.1361 0.0
C137 C 0.93573 0.83447 0.13793 0.0
C138 C 0.99296 0.82765 0.1514 0.0
H139 H 0.91093 0.82356 0.13319 0.0
H140 H 0.01407 0.81182 0.15719 0.0
H141 H 0.94299 0.70879 0.18508 0.0
H142 H 0.96786 0.70327 0.11595 0.0
C143 C 0.87749 0.75085 0.13174 0.0
C144 C 0.92977 0.79534 0.19893 0.0
C145 C 0.98639 0.76733 0.09247 0.0
C146 C 0.03401 0.74544 0.16669 0.0
H147 H 0.85496 0.78911 0.20207 0.0
H148 H 0.82617 0.76139 0.16575 0.0
H149 H 0.86754 0.75112 0.08429 0.0
H150 H 0.92641 0.7647 0.06306 0.0
H151 H 0.06021 0.75259 0.09198 0.0
H152 H 0.08614 0.7375 0.13221 0.0
H153 H 0.04327 0.75923 0.21385 0.0
H154 H 0.98731 0.79022 0.2308 0.0
H155 H 0.95407 0.64619 0.18904 0.0
H156 H 0.97941 0.64216 0.11874 0.0
H157 H 0.02435 0.87299 0.15468 0.0
H158 H 0.91998 0.88705 0.13007 0.0
C159 C 0.2405 0.90181 0.68091 0.0
C160 C 0.24056 0.86597 0.68378 0.0
C161 C 0.25545 0.85206 0.66498 0.0
C162 C 0.2634 0.87994 0.65159 0.0
N163 N 0.25457 0.91054 0.66085 0.0
Co164 Co 0.25959 0.95685 0.64658 0.0
N165 N 0.26177 0.93614 0.6162 0.0
C166 C 0.26867 0.9026 0.61157 0.0
C167 C 0.26774 0.89533 0.58911 0.0
C168 C 0.26025 0.9263 0.57893 0.0
C169 C 0.25736 0.95101 0.59581 0.0
N170 N 0.26499 1.00306 0.63232 0.0
C171 C 0.26191 0.01263 0.61047 0.0
C172 C 0.26974 0.0476 0.60791 0.0
C173 C 0.27821 0.06003 0.62884 0.0
C174 C 0.27522 0.03205 0.64306 0.0
N175 N 0.25649 0.97655 0.67717 0.0
C176 C 0.26728 1.00838 0.68325 0.0
C177 C 0.25993 0.01533 0.70537 0.0
C178 C 0.24351 0.98603 0.7135 0.0
C179 C 0.24157 0.96273 0.69587 0.0
N180 N 0.31119 0.95457 0.649 0.0
C181 C 0.38383 0.96765 0.65314 0.0
C182 C 0.36383 0.95598 0.67148 0.0
C183 C 0.3278 0.94934 0.66904 0.0
C184 C 0.36649 0.97082 0.63256 0.0
C185 C 0.33081 0.96409 0.63084 0.0
N186 N 0.20883 0.96154 0.64398 0.0
C187 C 0.15934 0.99959 0.64693 0.0
C188 C 0.13738 0.97421 0.63808 0.0
C189 C 0.15179 0.94156 0.63289 0.0
C190 C 0.18776 0.93582 0.63583 0.0
C191 C 0.1945 0.99279 0.64979 0.0
H192 H 0.1986 0.91093 0.63127 0.0
H193 H 0.21015 0.0134 0.65648 0.0
H194 H 0.31315 0.9413 0.68358 0.0
H195 H 0.31888 0.96867 0.61483 0.0
C196 C 0.27057 0.87793 0.6287 0.0
C197 C 0.22762 0.92691 0.69756 0.0
C198 C 0.25477 0.98864 0.59167 0.0
C199 C 0.27677 0.0328 0.66669 0.0
H200 H 0.23025 0.85114 0.69765 0.0
H201 H 0.2578 0.82476 0.66091 0.0
H202 H 0.27106 0.87031 0.58111 0.0
H203 H 0.25788 0.93027 0.56106 0.0
H204 H 0.26978 0.06242 0.5925 0.0
H205 H 0.28489 0.08649 0.6332 0.0
H206 H 0.26422 0.03948 0.71423 0.0
H207 H 0.23389 0.98227 0.73036 0.0
H208 H 0.37575 0.95233 0.68773 0.0
H209 H 0.37995 0.9801 0.6178 0.0
H210 H 0.14939 0.02484 0.65176 0.0
H211 H 0.13565 0.92102 0.62616 0.0
C212 C 0.12099 0.78207 0.83588 0.0
C213 C 0.15686 0.78218 0.83327 0.0
C214 C 0.17053 0.76731 0.85216 0.0
C215 C 0.14248 0.75923 0.86536 0.0
N216 N 0.112 0.76795 0.85589 0.0
Co217 Co 0.06552 0.76287 0.86987 0.0
N218 N 0.0858 0.76073 0.90039 0.0
C219 C 0.11925 0.75378 0.90523 0.0
C220 C 0.12619 0.75457 0.92774 0.0
C221 C 0.09507 0.76203 0.93773 0.0
C222 C 0.07065 0.7651 0.92067 0.0
N223 N 0.01913 0.7575 0.88384 0.0
C224 C 1.00927 0.76056 0.90563 0.0
C225 C 0.97428 0.75266 0.90798 0.0
C226 C 0.96216 0.74416 0.88698 0.0
C227 C 0.9903 0.74721 0.87293 0.0
N228 N 0.04627 0.76583 0.83914 0.0
C229 C 0.01457 0.7549 0.83287 0.0
C230 C 1.00792 0.76214 0.81069 0.0
C231 C 0.03728 0.77864 0.80272 0.0
C232 C 0.0603 0.78073 0.8205 0.0
N233 N 0.06781 0.71123 0.86752 0.0
C234 C 0.05195 0.63935 0.86299 0.0
C235 C 0.06528 0.65879 0.84489 0.0
C236 C 0.0731 0.69457 0.84751 0.0
C237 C 0.04969 0.65633 0.8837 0.0
C238 C 0.05779 0.69171 0.88562 0.0
N239 N 0.06071 0.81365 0.87238 0.0
C240 C 0.02267 0.86308 0.86883 0.0
C241 C 0.04731 0.88497 0.87861 0.0
C242 C 0.07971 0.87054 0.88446 0.0
C243 C 0.08586 0.83469 0.88127 0.0
C244 C 0.02976 0.82798 0.86593 0.0
H245 H 0.11053 0.82386 0.88632 0.0
H246 H 1.00952 0.81233 0.85878 0.0
H247 H 0.08166 0.70912 0.83304 0.0
H248 H 0.05365 0.70356 0.9017 0.0
C249 C 0.14417 0.75198 0.88825 0.0
C250 C 0.09609 0.79481 0.81903 0.0
C251 C 0.03298 0.76779 0.92457 0.0
C252 C 0.98991 0.74549 0.8493 0.0
H253 H 0.17187 0.79258 0.81952 0.0
H254 H 0.19777 0.76507 0.85643 0.0
H255 H 0.15106 0.75116 0.9359 0.0
H256 H 0.09081 0.76425 0.95558 0.0
H257 H 0.95927 0.75258 0.9233 0.0
H258 H 0.93578 0.73737 0.88247 0.0
H259 H 0.98392 0.75776 0.80168 0.0
H260 H 0.04125 0.78821 0.78587 0.0
H261 H 0.06801 0.64696 0.82855 0.0
H262 H 0.04065 0.64258 0.89843 0.0
H263 H 0.99769 0.87295 0.86342 0.0
H264 H 0.09971 0.88654 0.89196 0.0
C265 C 0.24122 0.11827 0.33337 0.0
C266 C 0.2428 0.15374 0.32933 0.0
C267 C 0.25794 0.16846 0.34785 0.0
C268 C 0.26488 0.14122 0.36206 0.0
N269 N 0.2553 0.11037 0.35351 0.0
Co270 Co 0.26003 0.06467 0.36841 0.0
N271 N 0.26206 0.08652 0.39844 0.0
C272 C 0.26924 0.12021 0.40252 0.0
C273 C 0.26826 0.12833 0.42485 0.0
C274 C 0.26049 0.09778 0.43552 0.0
C275 C 0.25753 0.07243 0.41903 0.0
N276 N 0.2651 0.01899 0.38334 0.0
C277 C 0.26187 1.01023 0.40532 0.0
C278 C 0.26955 0.97533 0.4084 0.0
C279 C 0.27807 0.96214 0.38768 0.0
C280 C 0.27528 0.9896 0.37305 0.0
N281 N 0.25719 0.04398 0.33806 0.0
C282 C 0.26776 0.01189 0.33247 0.0
C283 C 0.25963 1.00394 0.3106 0.0
C284 C 0.24292 0.03284 0.30214 0.0
C285 C 0.24178 0.05705 0.31929 0.0
N286 N 0.31166 0.06679 0.36614 0.0
C287 C 0.3843 0.05367 0.36228 0.0
C288 C 0.36441 0.06493 0.34379 0.0
C289 C 0.32838 0.07158 0.34609 0.0
C290 C 0.36684 0.05093 0.38286 0.0
C291 C 0.33115 0.0577 0.38443 0.0
N292 N 0.20921 0.06018 0.37079 0.0
C293 C 0.1593 0.02304 0.36612 0.0
C294 C 0.13705 0.04894 0.37396 0.0
C295 C 0.15183 0.08088 0.38047 0.0
C296 C 0.18807 0.08608 0.37859 0.0
C297 C 0.1948 0.02906 0.36475 0.0
H298 H 0.19901 0.1108 0.38347 0.0
H299 H 0.21059 1.00803 0.35881 0.0
H300 H 0.31381 0.07928 0.33145 0.0
H301 H 0.31912 0.05353 0.40046 0.0
C302 C 0.27185 0.14422 0.38495 0.0
C303 C 0.22719 0.09266 0.31756 0.0
C304 C 0.25486 0.03494 0.42376 0.0
C305 C 0.27699 0.98803 0.34943 0.0
H306 H 0.23348 0.16752 0.31471 0.0
H307 H 0.26129 0.19591 0.35114 0.0
H308 H 0.27184 0.1536 0.43246 0.0
H309 H 0.25807 0.09451 0.45344 0.0
H310 H 0.26949 0.96107 0.42403 0.0
H311 H 0.2847 0.93551 0.38373 0.0
H312 H 0.26325 0.97928 0.30222 0.0
H313 H 0.2323 0.03543 0.28546 0.0
H314 H 0.37641 0.06826 0.32754 0.0
H315 H 0.38021 0.04199 0.39772 0.0
H316 H 0.14943 0.99772 0.36136 0.0
H317 H 0.13556 0.1017 0.38667 0.0
C318 C 0.90388 0.24138 0.83409 0.0
C319 C 0.86839 0.24311 0.8302 0.0
C320 C 0.85394 0.25846 0.84872 0.0
C321 C 0.88134 0.26537 0.86279 0.0
N322 N 0.91205 0.25556 0.85416 0.0
Co323 Co 0.95789 0.26028 0.86884 0.0
N324 N 0.93633 0.26272 0.89894 0.0
C325 C 0.90275 0.27018 0.90314 0.0
C326 C 0.89486 0.26953 0.92552 0.0
C327 C 0.92544 0.26167 0.93609 0.0
C328 C 0.95058 0.25827 0.9195 0.0
N329 N 1.00371 0.26532 0.88355 0.0
C330 C 0.01265 0.26214 0.9055 0.0
C331 C 0.04762 0.26963 0.90841 0.0
C332 C 0.06068 0.27797 0.88761 0.0
C333 C 0.03307 0.27525 0.8731 0.0
N334 N 0.97831 0.25703 0.83842 0.0
C335 C 1.0104 0.26744 0.83265 0.0
C336 C 0.0181 0.25916 0.81078 0.0
C337 C 0.98903 0.24253 0.80249 0.0
C338 C 0.96497 0.2416 0.81974 0.0
N339 N 0.95605 0.31192 0.86635 0.0
C340 C 0.96931 0.38458 0.86239 0.0
C341 C 0.95811 0.36463 0.84391 0.0
C342 C 0.95137 0.32859 0.84627 0.0
C343 C 0.972 0.36716 0.88298 0.0
C344 C 0.9652 0.33147 0.8846 0.0
N345 N 0.96216 0.20947 0.87155 0.0
C346 C 0.99991 0.15972 0.86881 0.0
C347 C 0.97461 0.13805 0.8781 0.0
C348 C 0.94206 0.15274 0.88327 0.0
C349 C 0.93639 0.18865 0.87994 0.0
C350 C 0.99327 0.19486 0.86574 0.0
H351 H 0.91158 0.19971 0.88447 0.0
H352 H 0.01397 0.21031 0.85896 0.0
H353 H 0.94365 0.31398 0.83165 0.0
H354 H 0.96939 0.3195 0.90065 0.0
C355 C 0.8786 0.27266 0.88566 0.0
C356 C 0.92924 0.22721 0.81817 0.0
C357 C 0.98807 0.25525 0.92404 0.0
C358 C 0.03446 0.27672 0.84947 0.0
H359 H 0.85441 0.23379 0.81566 0.0
H360 H 0.82654 0.26201 0.85211 0.0
H361 H 0.8697 0.27337 0.93323 0.0
H362 H 0.9289 0.25945 0.95401 0.0
H363 H 0.06203 0.26954 0.92397 0.0
H364 H 0.08732 0.28438 0.88352 0.0
H365 H 0.0427 0.26264 0.80228 0.0
H366 H 0.98624 0.23184 0.78585 0.0
H367 H 0.95486 0.37662 0.82765 0.0
H368 H 0.98092 0.38058 0.89783 0.0
H369 H 0.02506 0.14962 0.86393 0.0
H370 H 0.92155 0.1369 0.89035 0.0
C371 C 0.78167 0.90379 0.33443 0.0
C372 C 0.78 0.86834 0.33035 0.0
C373 C 0.76452 0.85361 0.34877 0.0
C374 C 0.75746 0.88081 0.36295 0.0
N375 N 0.76731 0.91166 0.35449 0.0
Co376 Co 0.76246 0.95731 0.3694 0.0
N377 N 0.75978 0.93534 0.39939 0.0
C378 C 0.75242 0.90166 0.4034 0.0
C379 C 0.753 0.89346 0.42574 0.0
C380 C 0.7607 0.92395 0.43648 0.0
C381 C 0.76407 0.94933 0.42003 0.0
N382 N 0.75718 1.00293 0.38434 0.0
C383 C 0.76012 0.01159 0.40634 0.0
C384 C 0.75245 0.04649 0.4094 0.0
C385 C 0.74426 0.05979 0.38864 0.0
C386 C 0.74723 0.03238 0.374 0.0
N387 N 0.76605 0.97816 0.33911 0.0
C388 C 0.75571 1.01033 0.33347 0.0
C389 C 0.76422 0.01835 0.31168 0.0
C390 C 0.78093 0.98941 0.3033 0.0
C391 C 0.78167 0.96511 0.32043 0.0
N392 N 0.71086 0.95544 0.36671 0.0
C393 C 0.63906 0.97145 0.36218 0.0
C394 C 0.65867 0.95912 0.34389 0.0
C395 C 0.69442 0.95123 0.34651 0.0
C396 C 0.65583 0.97271 0.383 0.0
C397 C 0.69116 0.96453 0.38492 0.0
N398 N 0.81322 0.96164 0.37229 0.0
C399 C 0.86293 0.99959 0.37004 0.0
C400 C 0.88475 0.9737 0.37838 0.0
C401 C 0.87015 0.94088 0.38297 0.0
C402 C 0.83413 0.93544 0.37995 0.0
C403 C 0.82775 0.99308 0.36708 0.0
H404 H 0.82312 0.91039 0.38403 0.0
H405 H 0.81224 0.01407 0.36075 0.0
H406 H 0.70913 0.94346 0.33194 0.0
H407 H 0.70285 0.96782 0.40113 0.0
C408 C 0.75007 0.87775 0.38579 0.0
C409 C 0.79602 0.92939 0.31871 0.0
C410 C 0.76694 0.9868 0.42477 0.0
C411 C 0.7461 0.03411 0.35037 0.0
H412 H 0.78948 0.85457 0.31579 0.0
H413 H 0.76099 0.82615 0.35201 0.0
H414 H 0.74921 0.86817 0.43331 0.0
H415 H 0.76286 0.92714 0.45442 0.0
H416 H 0.75233 0.06069 0.42504 0.0
H417 H 0.7378 0.08645 0.38467 0.0
H418 H 0.7608 0.04305 0.30329 0.0
H419 H 0.79177 0.98684 0.28668 0.0
H420 H 0.647 0.95721 0.32745 0.0
H421 H 0.64193 0.98098 0.39783 0.0
H422 H 0.87301 0.025 0.36566 0.0
H423 H 0.88618 0.91995 0.38929 0.0
H424 H 0.99219 0.412 0.1358 0.0
H425 H 0.07848 0.43902 0.17838 0.0
H426 H 0.97122 0.47136 0.1374 0.0
H427 H 0.05806 0.49936 0.17951 0.0
H428 H 0.99944 0.60286 0.18964 0.0
H429 H 0.01792 0.54212 0.19134 0.0
H430 H 0.98009 0.52656 0.12403 0.0
H431 H 0.95986 0.58601 0.12291 0.0
C432 C 1.00703 0.43075 0.14536 0.0
C433 C 0.03745 0.42041 0.15669 0.0
C434 C 0.99499 0.46519 0.14622 0.0
C435 C 0.01301 0.49109 0.15827 0.0
C436 C 0.04305 0.48056 0.17013 0.0
C437 C 0.05495 0.44578 0.16945 0.0
C438 C 0.99445 0.58635 0.17533 0.0
C439 C 0.97807 0.60006 0.1561 0.0
C440 C 1.00561 0.55136 0.17618 0.0
C441 C 1.00079 0.52868 0.15783 0.0
C442 C 0.98405 0.54243 0.13876 0.0
C443 C 0.97278 0.57716 0.13797 0.0
H444 H 0.41914 0.998 0.68885 0.0
H445 H 0.43603 0.96009 0.62174 0.0
H446 H 0.47988 0.0166 0.69069 0.0
H447 H 0.49547 0.98039 0.62302 0.0
H448 H 0.61003 0.99224 0.635 0.0
H449 H 0.55067 0.97119 0.6364 0.0
H450 H 0.52254 0.05727 0.67906 0.0
H451 H 0.58285 0.07785 0.67808 0.0
C452 C 0.43566 0.99339 0.67448 0.0
C453 C 0.42196 0.97746 0.6551 0.0
C454 C 0.47064 1.00462 0.67541 0.0
C455 C 0.49332 1.00029 0.65701 0.0
C456 C 0.47959 0.98397 0.63779 0.0
C457 C 0.44487 0.97265 0.63691 0.0
C458 C 0.59126 1.00693 0.64463 0.0
C459 C 0.60157 0.0372 0.65614 0.0
C460 C 0.55681 0.99482 0.64538 0.0
C461 C 0.53089 0.01259 0.65754 0.0
C462 C 0.54137 0.04246 0.66959 0.0
C463 C 0.57614 0.05445 0.66899 0.0
H464 H 1.00064 0.4201 0.82708 0.0
H465 H 0.96073 0.43663 0.89376 0.0
H466 H 0.01926 0.48088 0.82556 0.0
H467 H 0.981 0.49612 0.8928 0.0
H468 H 0.99307 0.61075 0.88114 0.0
H469 H 0.97209 0.55139 0.87934 0.0
H470 H 0.05959 0.52353 0.83781 0.0
H471 H 0.08014 0.58385 0.83921 0.0
C472 C 0.9956 0.43655 0.84141 0.0
C473 C 0.97911 0.42275 0.86059 0.0
C474 C 1.00683 0.47156 0.84067 0.0
C475 C 1.00192 0.49415 0.85905 0.0
C476 C 0.98504 0.48031 0.87805 0.0
C477 C 0.97373 0.44556 0.87875 0.0
C478 C 1.00809 0.59205 0.87168 0.0
C479 C 0.03875 0.60243 0.86061 0.0
C480 C 0.99602 0.55759 0.87069 0.0
C481 C 0.01421 0.53174 0.85874 0.0
C482 C 0.04447 0.5423 0.84712 0.0
C483 C 0.05643 0.57708 0.84795 0.0
H484 H 0.43634 0.06152 0.3938 0.0
H485 H 0.41984 0.02304 0.32678 0.0
H486 H 0.49579 0.04134 0.3927 0.0
H487 H 0.48059 1.00464 0.32511 0.0
H488 H 0.58369 0.94395 0.33793 0.0
H489 H 0.52334 0.96433 0.33678 0.0
H490 H 0.55104 0.05051 0.37951 0.0
H491 H 0.61041 0.02961 0.38111 0.0
C492 C 0.44526 0.04885 0.37869 0.0
C493 C 0.42245 0.04386 0.36047 0.0
C494 C 0.48 0.03762 0.37791 0.0
C495 C 0.49386 0.02121 0.35876 0.0
C496 C 0.47127 0.01668 0.34033 0.0
C497 C 0.43626 0.0278 0.34116 0.0
C498 C 0.57686 0.96733 0.347 0.0
C499 C 0.60216 0.98465 0.35992 0.0
C500 C 0.54207 0.9792 0.34631 0.0
C501 C 0.53146 1.00904 0.35834 0.0
C502 C 0.55727 0.02689 0.37055 0.0
C503 C 0.59173 0.01489 0.37141 0.0
H504 H 0.0127 0.202 0.95015 0.0
H505 H 0.9875 0.31088 0.95208 0.0
H506 H 0.02293 0.20243 0.99064 0.0
H507 H 0.99533 0.31139 0.99251 0.0
H508 H 0.03835 0.31067 0.06336 0.0
H509 H 0.03051 0.31084 0.02294 0.0
H510 H 0.9977 0.20333 0.02572 0.0
H511 H 1.00799 0.20311 0.0662 0.0
C512 C 1.00979 0.22613 0.95929 0.0
C513 C 0.99971 0.25647 0.94799 0.0
C514 C 0.01498 0.22637 0.98262 0.0
C515 C 1.00967 0.25688 0.99535 0.0
C516 C 1.00037 0.2874 0.98367 0.0
C517 C 0.99581 0.28724 0.96036 0.0
C518 C 0.02897 0.28727 0.05528 0.0
C519 C 0.02371 0.25691 0.06791 0.0
C520 C 0.02437 0.28726 0.03198 0.0
C521 C 0.0136 0.257 0.02055 0.0
C522 C 1.00684 0.22699 0.03354 0.0
C523 C 0.01208 0.22691 0.05687 0.0
H524 H 0.71194 0.03626 0.56432 0.0
H525 H 0.82016 1.0085 0.56668 0.0
H526 H 0.7115 0.02815 0.52391 0.0
H527 H 0.81974 0.99804 0.52622 0.0
H528 H 0.81981 0.01294 0.45059 0.0
H529 H 0.81958 0.02332 0.49107 0.0
H530 H 0.7115 0.99252 0.49362 0.0
H531 H 0.71174 0.9845 0.4532 0.0
C532 C 0.73544 0.02738 0.55614 0.0
C533 C 0.76603 0.02284 0.56863 0.0
C534 C 0.7353 0.02264 0.53285 0.0
C535 C 0.76566 0.01254 0.5213 0.0
C536 C 0.79596 1.00661 0.53414 0.0
C537 C 0.79617 0.01194 0.55746 0.0
C538 C 0.7959 1.0093 0.45987 0.0
C539 C 0.76575 0.99822 0.44877 0.0
C540 C 0.7958 0.0146 0.4832 0.0
C541 C 0.7656 1.00846 0.49611 0.0
C542 C 0.73523 0.99818 0.48462 0.0
C543 C 0.73526 0.99349 0.46133 0.0
H544 H 0.01468 0.81925 0.06669 0.0
H545 H 0.98159 0.71251 0.06387 0.0
H546 H 0.02452 0.81898 0.02617 0.0
H547 H 0.9889 0.71237 0.02341 0.0
H548 H 0.03103 0.71172 0.95226 0.0
H549 H 0.02322 0.71102 0.99269 0.0
H550 H 0.99934 0.82088 0.99122 0.0
H551 H 1.00958 0.82141 0.95075 0.0
C552 C 1.00988 0.79561 0.05735 0.0
C553 C 0.99759 0.76587 0.06842 0.0
C554 C 0.01485 0.79552 0.03399 0.0
C555 C 1.00714 0.76578 0.02099 0.0
C556 C 0.99576 0.73575 0.03244 0.0
C557 C 0.99145 0.73571 0.05577 0.0
C558 C 0.02341 0.73551 0.96062 0.0
C559 C 0.02053 0.76652 0.94835 0.0
C560 C 0.01892 0.73525 0.98393 0.0
C561 C 1.01076 0.76596 0.99575 0.0
C562 C 1.0064 0.79676 0.98312 0.0
C563 C 0.01155 0.79706 0.95978 0.0
H564 H 0.20219 1.00876 0.44977 0.0
H565 H 0.31019 0.0375 0.45203 0.0
H566 H 0.20256 0.99899 0.4903 0.0
H567 H 0.31055 0.03023 0.4925 0.0
H568 H 0.31044 0.98819 0.56365 0.0
H569 H 0.31089 0.99587 0.52322 0.0
H570 H 0.20218 0.02432 0.52523 0.0
H571 H 0.20177 0.01414 0.56571 0.0
C572 C 0.22613 0.01257 0.45899 0.0
C573 C 0.25622 0.02354 0.44776 0.0
C574 C 0.2263 1.00766 0.48236 0.0
C575 C 0.2565 0.01416 0.4952 0.0
C576 C 0.28682 0.02429 0.48358 0.0
C577 C 0.28673 0.02854 0.46025 0.0
C578 C 0.28685 0.99672 0.55541 0.0
C579 C 0.25614 1.00082 0.56783 0.0
C580 C 0.28698 1.00117 0.53209 0.0
C581 C 0.25649 1.01058 0.52043 0.0
C582 C 0.22607 0.01624 0.53321 0.0
C583 C 0.22587 1.01112 0.55656 0.0
H584 H 0.12159 0.16247 0.19324 0.0
H585 H 0.09555 0.23765 0.24385 0.0
H586 H 0.15114 0.1268 0.22131 0.0
H587 H 0.12518 0.20226 0.27208 0.0
H588 H 0.16289 0.12123 0.32232 0.0
H589 H 0.1271 0.15064 0.29426 0.0
H590 H 0.20273 0.12514 0.24348 0.0
H591 H 0.23825 0.09567 0.27171 0.0
C592 C 0.12152 0.171 0.21053 0.0
C593 C 0.10528 0.20255 0.21631 0.0
C594 C 0.13893 0.15073 0.22666 0.0
C595 C 0.14095 0.16132 0.24924 0.0
C596 C 0.12391 0.1926 0.25509 0.0
C597 C 0.10655 0.21295 0.23888 0.0
C598 C 0.17145 0.12124 0.30504 0.0
C599 C 0.20307 0.10517 0.29926 0.0
C600 C 0.15109 0.13856 0.28891 0.0
C601 C 0.16169 0.14067 0.26633 0.0
C602 C 0.19306 0.1238 0.26048 0.0
C603 C 0.21349 0.10653 0.27669 0.0
H604 H 0.92616 0.2384 0.77232 0.0
H605 H 0.90002 0.16312 0.82294 0.0
H606 H 0.89648 0.20305 0.7441 0.0
H607 H 0.87038 0.12752 0.79489 0.0
H608 H 0.78341 0.09626 0.74442 0.0
H609 H 0.81883 0.12584 0.77266 0.0
H610 H 0.89462 0.15142 0.72195 0.0
H611 H 0.85894 0.1219 0.69388 0.0
C612 C 0.91511 0.21369 0.7773 0.0
C613 C 0.9164 0.20324 0.79987 0.0
C614 C 0.89773 0.19337 0.7611 0.0
C615 C 0.88065 0.16207 0.76695 0.0
C616 C 0.88263 0.15146 0.78953 0.0
C617 C 0.90008 0.1717 0.80566 0.0
C618 C 0.80818 0.10717 0.73947 0.0
C619 C 0.81868 0.10579 0.71691 0.0
C620 C 0.82855 0.1245 0.75568 0.0
C621 C 0.85994 0.14141 0.74985 0.0
C622 C 0.8706 0.13931 0.72729 0.0
C623 C 0.85032 0.12192 0.71115 0.0
H624 H 0.78505 0.9267 0.27284 0.0
H625 H 0.86014 0.90033 0.32347 0.0
H626 H 0.82044 0.89721 0.24459 0.0
H627 H 0.89582 0.87091 0.29538 0.0
H628 H 0.92705 0.78413 0.24478 0.0
H629 H 0.89764 0.81951 0.27308 0.0
H630 H 0.87198 0.89539 0.22244 0.0
H631 H 0.90129 0.85973 0.1943 0.0
C632 C 0.80973 0.91565 0.27782 0.0
C633 C 0.8201 0.9168 0.3004 0.0
C634 C 0.83009 0.89838 0.2616 0.0
C635 C 0.86135 0.88129 0.26743 0.0
C636 C 0.87191 0.88316 0.29003 0.0
C637 C 0.85162 0.90049 0.30618 0.0
C638 C 0.91616 0.80892 0.23985 0.0
C639 C 0.91743 0.81943 0.21729 0.0
C640 C 0.89893 0.82926 0.2561 0.0
C641 C 0.88201 0.86065 0.25031 0.0
C642 C 0.88407 0.87137 0.22775 0.0
C643 C 0.90135 0.8511 0.21157 0.0
H644 H 0.15808 0.93566 0.70681 0.0
H645 H 0.25054 0.88749 0.73291 0.0
H646 H 0.12299 0.90557 0.73546 0.0
H647 H 0.2156 0.85647 0.76086 0.0
H648 H 0.13671 0.77224 0.78418 0.0
H649 H 0.16758 0.80741 0.75627 0.0
H650 H 0.11623 0.8994 0.7807 0.0
H651 H 0.08629 0.86411 0.80932 0.0
C652 C 0.17099 0.91919 0.71894 0.0
C653 C 0.20715 0.91398 0.71752 0.0
C654 C 0.15086 0.90173 0.73527 0.0
C655 C 0.16629 0.87804 0.75032 0.0
C656 C 0.20267 0.87405 0.74941 0.0
C657 C 0.22279 0.89208 0.73349 0.0
C658 C 0.13164 0.7999 0.78341 0.0
C659 C 0.10916 0.81533 0.79911 0.0
C660 C 0.14956 0.82016 0.76752 0.0
C661 C 0.14488 0.85644 0.76634 0.0
C662 C 0.12063 0.87161 0.78111 0.0
C663 C 0.10327 0.85136 0.79742 0.0
H664 H 0.99056 0.11012 0.11852 0.0
H665 H 0.08621 0.0806 0.15101 0.0
H666 H 0.97141 0.04977 0.11866 0.0
H667 H 0.06749 0.01974 0.15062 0.0
H668 H 1.00465 0.92577 0.17395 0.0
H669 H 0.02461 0.98551 0.17049 0.0
H670 H 0.97938 0.99144 0.10442 0.0
H671 H 0.95922 0.9312 0.10799 0.0
C672 C 1.00777 0.09058 0.1254 0.0
C673 C 0.0398 0.10027 0.13499 0.0
C674 C 0.99684 0.05587 0.12535 0.0
C675 C 0.01759 0.02976 0.13493 0.0
C676 C 0.05046 0.03921 0.14349 0.0
C677 C 0.06148 0.07404 0.14346 0.0
C678 C 0.99886 0.9398 0.15867 0.0
C679 C 0.98052 0.92353 0.14117 0.0
C680 C 1.0106 0.97406 0.15661 0.0
C681 C 1.00431 0.99327 0.137 0.0
C682 C 0.98475 0.9775 0.11979 0.0
C683 C 0.97298 0.94302 0.12186 0.0
H684 H 0.10987 0.03249 0.61898 0.0
H685 H 0.08004 0.93585 0.65023 0.0
H686 H 0.0495 0.05158 0.61911 0.0
H687 H 0.01921 0.95459 0.64991 0.0
H688 H 0.92545 0.01723 0.67381 0.0
H689 H 0.98517 0.9974 0.67028 0.0
H690 H 0.99106 0.04334 0.6044 0.0
H691 H 0.93078 0.06325 0.60798 0.0
C692 C 0.09026 0.01507 0.62559 0.0
C693 C 0.09985 0.98275 0.63481 0.0
C694 C 0.05556 0.02597 0.62554 0.0
C695 C 0.02938 1.00491 0.63478 0.0
C696 C 0.03875 0.97181 0.64302 0.0
C697 C 0.07355 0.96081 0.64296 0.0
C698 C 0.93944 0.02317 0.65854 0.0
C699 C 0.92312 0.04161 0.64109 0.0
C700 C 0.97369 0.01153 0.65645 0.0
C701 C 0.99289 0.01808 0.63688 0.0
C702 C 0.97711 0.03777 0.61972 0.0
C703 C 0.94261 0.0494 0.62181 0.0
H704 H 0.03436 0.11148 0.89589 0.0
H705 H 0.93496 0.0799 0.86932 0.0
H706 H 0.05244 0.05097 0.89816 0.0
H707 H 0.95308 0.01899 0.87162 0.0
H708 H 0.98629 0.91121 0.89479 0.0
H709 H 0.96793 0.97166 0.89683 0.0
H710 H 0.0688 1.00416 0.87303 0.0
H711 H 0.0872 0.94335 0.87096 0.0
C712 C 0.01627 0.09155 0.89056 0.0
C713 C 0.98328 0.10067 0.88216 0.0
C714 C 0.02675 0.05679 0.8918 0.0
C715 C 1.0045 0.02995 0.88481 0.0
C716 C 0.9709 0.03891 0.87729 0.0
C717 C 0.9604 0.07385 0.87601 0.0
C718 C 1.00465 0.93123 0.89 0.0
C719 C 0.03817 0.92229 0.88245 0.0
C720 C 0.99401 0.96596 0.89111 0.0
C721 C 0.01663 0.99294 0.88484 0.0
C722 C 0.05068 0.98414 0.87815 0.0
C723 C 0.06134 0.94925 0.87699 0.0
H724 H 0.91263 0.03099 0.39845 0.0
H725 H 0.94186 0.93575 0.3654 0.0
H726 H 0.97298 0.05012 0.39826 0.0
H727 H 1.00273 0.95445 0.36572 0.0
H728 H 0.09647 0.01766 0.34242 0.0
H729 H 0.03677 0.99764 0.34596 0.0
H730 H 0.03144 0.0419 0.4123 0.0
H731 H 0.09163 0.06213 0.40864 0.0
C732 C 0.93211 0.01385 0.39144 0.0
C733 C 0.92234 0.98195 0.38172 0.0
C734 C 0.96682 0.02478 0.39145 0.0
C735 C 0.99284 1.00414 0.3817 0.0
C736 C 0.98332 0.97138 0.37299 0.0
C737 C 0.94849 0.96037 0.37307 0.0
C738 C 0.08257 0.02323 0.35778 0.0
C739 C 0.099 0.04132 0.37532 0.0
C740 C 0.04835 0.01145 0.35988 0.0
C741 C 0.02931 0.01745 0.37959 0.0
C742 C 0.04524 0.03676 0.39686 0.0
C743 C 0.07969 0.04857 0.39474 0.0
loop_
_geom_bond_atom_site_label_1
_geom_bond_atom_site_label_2
_geom_bond_distance
_geom_bond_site_symmetry_2
_ccdc_geom_bond_type
C0 C1 1.443 . S
C0 N4 1.376 . S
C0 C38 1.389 . S
C1 C0 1.443 . S
C1 C2 1.340 . S
C1 H41 0.951 . S
C2 C1 1.340 . S
C2 C3 1.439 . S
C2 H42 0.950 . S
C3 C2 1.439 . S
C3 N4 1.374 . S
C3 C37 1.395 . S
N4 C0 1.376 . S
N4 C3 1.374 . S
N4 Co5 2.008 . S
Co5 N4 2.008 . S
Co5 N6 1.995 . S
Co5 N11 2.008 . S
Co5 N16 1.995 . S
Co5 N21 2.282 . S
Co5 N27 2.282 . S
N6 Co5 1.995 . S
N6 C7 1.376 . S
N6 C10 1.383 . S
C7 N6 1.376 . S
C7 C8 1.446 . S
C7 C37 1.391 . S
C8 C7 1.446 . S
C8 C9 1.339 . S
C8 H43 0.949 . S
C9 C8 1.339 . S
C9 C10 1.439 . S
C9 H44 0.950 . S
C10 N6 1.383 . S
C10 C9 1.439 . S
C10 C39 1.392 . S
N11 Co5 2.008 . S
N11 C12 1.376 . S
N11 C15 1.374 1_455 S
C12 N11 1.376 . S
C12 C13 1.443 1_455 S
C12 C39 1.389 . S
C13 C12 1.443 1_655 S
C13 C14 1.340 . S
C13 H45 0.951 . S
C14 C13 1.340 . S
C14 C15 1.439 . S
C14 H46 0.950 . S
C15 N11 1.374 1_655 S
C15 C14 1.439 . S
C15 C40 1.395 . S
N16 Co5 1.995 . S
N16 C17 1.376 . S
N16 C20 1.383 . S
C17 N16 1.376 . S
C17 C18 1.448 . S
C17 C40 1.391 1_455 S
C18 C17 1.448 . S
C18 C19 1.349 . S
C18 H47 0.940 1_455 S
C19 C18 1.349 . S
C19 C20 1.439 . S
C19 H48 0.950 . S
C20 N16 1.383 . S
C20 C19 1.439 . S
C20 C38 1.392 . S
N21 Co5 2.282 . S
N21 C24 1.332 . S
N21 C26 1.332 . S
C22 C23 1.386 . S
C22 C25 1.388 . S
C23 C22 1.386 . S
C23 C24 1.382 . S
C23 H49 0.950 . S
C24 N21 1.332 . S
C24 C23 1.382 . S
C24 H35 0.952 . S
C25 C22 1.388 . S
C25 C26 1.382 . S
C25 H50 0.950 . S
C26 N21 1.332 . S
C26 C25 1.382 . S
C26 H36 0.948 . S
N27 Co5 2.282 . S
N27 C31 1.332 . S
N27 C32 1.332 . S
C28 C29 1.388 . S
C28 C32 1.382 . S
C28 H51 0.950 . S
C29 C28 1.388 . S
C29 C30 1.386 . S
C30 C29 1.386 . S
C30 C31 1.382 . S
C30 H52 0.950 . S
C31 N27 1.332 . S
C31 C30 1.382 . S
C31 H33 0.952 . S
C32 N27 1.332 . S
C32 C28 1.382 . S
C32 H34 0.948 . S
H33 C31 0.952 . S
H34 C32 0.948 . S
H35 C24 0.952 . S
H36 C26 0.948 . S
C37 C3 1.395 . S
C37 C7 1.391 . S
C38 C0 1.389 . S
C38 C20 1.392 . S
C39 C10 1.392 . S
C39 C12 1.389 . S
C40 C15 1.395 . S
C40 C17 1.391 1_655 S
H41 C1 0.951 . S
H42 C2 0.950 . S
H43 C8 0.949 . S
H44 C9 0.950 . S
H45 C13 0.951 . S
H46 C14 0.950 . S
H47 C18 0.940 1_655 S
H48 C19 0.950 . S
H49 C23 0.950 . S
H50 C25 0.950 . S
H51 C28 0.950 . S
H52 C30 0.950 . S
C53 C54 1.443 . S
C53 N57 1.376 . S
C53 C91 1.389 . S
C54 C53 1.443 . S
C54 C55 1.340 . S
C54 H94 0.951 . S
C55 C54 1.340 . S
C55 C56 1.439 . S
C55 H95 0.950 . S
C56 C55 1.439 . S
C56 N57 1.374 . S
C56 C90 1.395 . S
N57 C53 1.376 . S
N57 C56 1.374 . S
N57 Co58 2.008 . S
Co58 N57 2.008 . S
Co58 N59 1.995 . S
Co58 N64 2.008 . S
Co58 N69 1.995 . S
Co58 N74 2.282 . S
Co58 N80 2.282 . S
N59 Co58 1.995 . S
N59 C60 1.376 . S
N59 C63 1.383 . S
C60 N59 1.376 . S
C60 C61 1.446 . S
C60 C90 1.391 . S
C61 C60 1.446 . S
C61 C62 1.339 . S
C61 H96 0.949 . S
C62 C61 1.339 . S
C62 C63 1.439 . S
C62 H97 0.950 . S
C63 N59 1.383 . S
C63 C62 1.439 . S
C63 C92 1.392 . S
N64 Co58 2.008 . S
N64 C65 1.376 . S
N64 C68 1.374 1_545 S
C65 N64 1.376 . S
C65 C66 1.443 1_545 S
C65 C92 1.389 . S
C66 C65 1.443 1_565 S
C66 C67 1.340 . S
C66 H98 0.951 . S
C67 C66 1.340 . S
C67 C68 1.439 . S
C67 H99 0.950 . S
C68 N64 1.374 1_565 S
C68 C67 1.439 . S
C68 C93 1.395 . S
N69 Co58 1.995 . S
N69 C70 1.376 . S
N69 C73 1.383 . S
C70 N69 1.376 . S
C70 C71 1.448 . S
C70 C93 1.391 1_545 S
C71 C70 1.448 . S
C71 C72 1.349 . S
C71 H100 0.940 1_545 S
C72 C71 1.349 . S
C72 C73 1.439 . S
C72 H101 0.950 . S
C73 N69 1.383 . S
C73 C72 1.439 . S
C73 C91 1.392 . S
N74 Co58 2.282 . S
N74 C77 1.332 . S
N74 C79 1.332 . S
C75 C76 1.386 . S
C75 C78 1.388 . S
C76 C75 1.386 . S
C76 C77 1.382 . S
C76 H102 0.950 . S
C77 N74 1.332 . S
C77 C76 1.382 . S
C77 H88 0.952 . S
C78 C75 1.388 . S
C78 C79 1.382 . S
C78 H103 0.950 . S
C79 N74 1.332 . S
C79 C78 1.382 . S
C79 H89 0.948 . S
N80 Co58 2.282 . S
N80 C84 1.332 . S
N80 C85 1.332 . S
C81 C82 1.388 . S
C81 C85 1.382 . S
C81 H104 0.950 . S
C82 C81 1.388 . S
C82 C83 1.386 . S
C83 C82 1.386 . S
C83 C84 1.382 . S
C83 H105 0.950 . S
C84 N80 1.332 . S
C84 C83 1.382 . S
C84 H86 0.952 . S
C85 N80 1.332 . S
C85 C81 1.382 . S
C85 H87 0.948 . S
H86 C84 0.952 . S
H87 C85 0.948 . S
H88 C77 0.952 . S
H89 C79 0.948 . S
C90 C56 1.395 . S
C90 C60 1.391 . S
C91 C53 1.389 . S
C91 C73 1.392 . S
C92 C63 1.392 . S
C92 C65 1.389 . S
C93 C68 1.395 . S
C93 C70 1.391 1_565 S
H94 C54 0.951 . S
H95 C55 0.950 . S
H96 C61 0.949 . S
H97 C62 0.950 . S
H98 C66 0.951 . S
H99 C67 0.950 . S
H100 C71 0.940 1_565 S
H101 C72 0.950 . S
H102 C76 0.950 . S
H103 C78 0.950 . S
H104 C81 0.950 . S
H105 C83 0.950 . S
C106 C107 1.443 . S
C106 N110 1.376 . S
C106 C144 1.389 . S
C107 C106 1.443 . S
C107 C108 1.340 . S
C107 H147 0.951 . S
C108 C107 1.340 . S
C108 C109 1.439 . S
C108 H148 0.950 . S
C109 C108 1.439 . S
C109 N110 1.374 . S
C109 C143 1.395 . S
N110 C106 1.376 . S
N110 C109 1.374 . S
N110 Co111 2.008 . S
Co111 N110 2.008 . S
Co111 N112 1.995 . S
Co111 N117 2.008 . S
Co111 N122 1.995 . S
Co111 N127 2.282 . S
Co111 N133 2.282 . S
N112 Co111 1.995 . S
N112 C113 1.376 . S
N112 C116 1.383 . S
C113 N112 1.376 . S
C113 C114 1.446 . S
C113 C143 1.391 . S
C114 C113 1.446 . S
C114 C115 1.339 . S
C114 H149 0.949 . S
C115 C114 1.339 . S
C115 C116 1.439 . S
C115 H150 0.950 . S
C116 N112 1.383 . S
C116 C115 1.439 . S
C116 C145 1.392 . S
N117 Co111 2.008 . S
N117 C118 1.376 . S
N117 C121 1.374 1_655 S
C118 N117 1.376 . S
C118 C119 1.443 1_655 S
C118 C145 1.389 . S
C119 C118 1.443 1_455 S
C119 C120 1.340 . S
C119 H151 0.951 . S
C120 C119 1.340 . S
C120 C121 1.439 . S
C120 H152 0.950 . S
C121 N117 1.374 1_455 S
C121 C120 1.439 . S
C121 C146 1.395 . S
N122 Co111 1.995 . S
N122 C123 1.376 . S
N122 C126 1.383 . S
C123 N122 1.376 . S
C123 C124 1.448 . S
C123 C146 1.391 1_655 S
C124 C123 1.448 . S
C124 C125 1.349 . S
C124 H153 0.940 1_655 S
C125 C124 1.349 . S
C125 C126 1.439 . S
C125 H154 0.950 . S
C126 N122 1.383 . S
C126 C125 1.439 . S
C126 C144 1.392 . S
N127 Co111 2.282 . S
N127 C130 1.332 . S
N127 C132 1.332 . S
C128 C129 1.386 . S
C128 C131 1.388 . S
C129 C128 1.386 . S
C129 C130 1.382 . S
C129 H155 0.950 . S
C130 N127 1.332 . S
C130 C129 1.382 . S
C130 H141 0.952 . S
C131 C128 1.388 . S
C131 C132 1.382 . S
C131 H156 0.950 . S
C132 N127 1.332 . S
C132 C131 1.382 . S
C132 H142 0.948 . S
N133 Co111 2.282 . S
N133 C137 1.332 . S
N133 C138 1.332 . S
C134 C135 1.388 . S
C134 C138 1.382 . S
C134 H157 0.950 . S
C135 C134 1.388 . S
C135 C136 1.386 . S
C136 C135 1.386 . S
C136 C137 1.382 . S
C136 H158 0.950 . S
C137 N133 1.332 . S
C137 C136 1.382 . S
C137 H139 0.952 . S
C138 N133 1.332 . S
C138 C134 1.382 . S
C138 H140 0.948 . S
H139 C137 0.952 . S
H140 C138 0.948 . S
H141 C130 0.952 . S
H142 C132 0.948 . S
C143 C109 1.395 . S
C143 C113 1.391 . S
C144 C106 1.389 . S
C144 C126 1.392 . S
C145 C116 1.392 . S
C145 C118 1.389 . S
C146 C121 1.395 . S
C146 C123 1.391 1_455 S
H147 C107 0.951 . S
H148 C108 0.950 . S
H149 C114 0.949 . S
H150 C115 0.950 . S
H151 C119 0.951 . S
H152 C120 0.950 . S
H153 C124 0.940 1_455 S
H154 C125 0.950 . S
H155 C129 0.950 . S
H156 C131 0.950 . S
H157 C134 0.950 . S
H158 C136 0.950 . S
C159 C160 1.443 . S
C159 N163 1.376 . S
C159 C197 1.389 . S
C160 C159 1.443 . S
C160 C161 1.340 . S
C160 H200 0.951 . S
C161 C160 1.340 . S
C161 C162 1.439 . S
C161 H201 0.950 . S
C162 C161 1.439 . S
C162 N163 1.374 . S
C162 C196 1.395 . S
N163 C159 1.376 . S
N163 C162 1.374 . S
N163 Co164 2.008 . S
Co164 N163 2.008 . S
Co164 N165 1.995 . S
Co164 N170 2.008 . S
Co164 N175 1.995 . S
Co164 N180 2.282 . S
Co164 N186 2.282 . S
N165 Co164 1.995 . S
N165 C166 1.376 . S
N165 C169 1.383 . S
C166 N165 1.376 . S
C166 C167 1.446 . S
C166 C196 1.391 . S
C167 C166 1.446 . S
C167 C168 1.339 . S
C167 H202 0.949 . S
C168 C167 1.339 . S
C168 C169 1.439 . S
C168 H203 0.950 . S
C169 N165 1.383 . S
C169 C168 1.439 . S
C169 C198 1.392 . S
N170 Co164 2.008 . S
N170 C171 1.376 . S
N170 C174 1.374 1_565 S
C171 N170 1.376 . S
C171 C172 1.443 1_565 S
C171 C198 1.389 . S
C172 C171 1.443 1_545 S
C172 C173 1.340 . S
C172 H204 0.951 . S
C173 C172 1.340 . S
C173 C174 1.439 . S
C173 H205 0.950 . S
C174 N170 1.374 1_545 S
C174 C173 1.439 . S
C174 C199 1.395 . S
N175 Co164 1.995 . S
N175 C176 1.376 . S
N175 C179 1.383 . S
C176 N175 1.376 . S
C176 C177 1.448 . S
C176 C199 1.391 1_565 S
C177 C176 1.448 . S
C177 C178 1.349 . S
C177 H206 0.940 1_565 S
C178 C177 1.349 . S
C178 C179 1.439 . S
C178 H207 0.950 . S
C179 N175 1.383 . S
C179 C178 1.439 . S
C179 C197 1.392 . S
N180 Co164 2.282 . S
N180 C183 1.332 . S
N180 C185 1.332 . S
C181 C182 1.386 . S
C181 C184 1.388 . S
C182 C181 1.386 . S
C182 C183 1.382 . S
C182 H208 0.950 . S
C183 N180 1.332 . S
C183 C182 1.382 . S
C183 H194 0.952 . S
C184 C181 1.388 . S
C184 C185 1.382 . S
C184 H209 0.950 . S
C185 N180 1.332 . S
C185 C184 1.382 . S
C185 H195 0.948 . S
N186 Co164 2.282 . S
N186 C190 1.332 . S
N186 C191 1.332 . S
C187 C188 1.388 . S
C187 C191 1.382 . S
C187 H210 0.950 . S
C188 C187 1.388 . S
C188 C189 1.386 . S
C189 C188 1.386 . S
C189 C190 1.382 . S
C189 H211 0.950 . S
C190 N186 1.332 . S
C190 C189 1.382 . S
C190 H192 0.952 . S
C191 N186 1.332 . S
C191 C187 1.382 . S
C191 H193 0.948 . S
H192 C190 0.952 . S
H193 C191 0.948 . S
H194 C183 0.952 . S
H195 C185 0.948 . S
C196 C162 1.395 . S
C196 C166 1.391 . S
C197 C159 1.389 . S
C197 C179 1.392 . S
C198 C169 1.392 . S
C198 C171 1.389 . S
C199 C174 1.395 . S
C199 C176 1.391 1_545 S
H200 C160 0.951 . S
H201 C161 0.950 . S
H202 C167 0.949 . S
H203 C168 0.950 . S
H204 C172 0.951 . S
H205 C173 0.950 . S
H206 C177 0.940 1_545 S
H207 C178 0.950 . S
H208 C182 0.950 . S
H209 C184 0.950 . S
H210 C187 0.950 . S
H211 C189 0.950 . S
C212 C213 1.443 . S
C212 N216 1.376 . S
C212 C250 1.389 . S
C213 C212 1.443 . S
C213 C214 1.340 . S
C213 H253 0.951 . S
C214 C213 1.340 . S
C214 C215 1.439 . S
C214 H254 0.950 . S
C215 C214 1.439 . S
C215 N216 1.374 . S
C215 C249 1.395 . S
N216 C212 1.376 . S
N216 C215 1.374 . S
N216 Co217 2.008 . S
Co217 N216 2.008 . S
Co217 N218 1.995 . S
Co217 N223 2.008 . S
Co217 N228 1.995 . S
Co217 N233 2.282 . S
Co217 N239 2.282 . S
N218 Co217 1.995 . S
N218 C219 1.376 . S
N218 C222 1.383 . S
C219 N218 1.376 . S
C219 C220 1.446 . S
C219 C249 1.391 . S
C220 C219 1.446 . S
C220 C221 1.339 . S
C220 H255 0.949 . S
C221 C220 1.339 . S
C221 C222 1.439 . S
C221 H256 0.950 . S
C222 N218 1.383 . S
C222 C221 1.439 . S
C222 C251 1.392 . S
N223 Co217 2.008 . S
N223 C224 1.376 . S
N223 C227 1.374 1_455 S
C224 N223 1.376 . S
C224 C225 1.443 1_455 S
C224 C251 1.389 . S
C225 C224 1.443 1_655 S
C225 C226 1.340 . S
C225 H257 0.951 . S
C226 C225 1.340 . S
C226 C227 1.439 . S
C226 H258 0.950 . S
C227 N223 1.374 1_655 S
C227 C226 1.439 . S
C227 C252 1.395 . S
N228 Co217 1.995 . S
N228 C229 1.376 . S
N228 C232 1.383 . S
C229 N228 1.376 . S
C229 C230 1.448 . S
C229 C252 1.391 1_455 S
C230 C229 1.448 . S
C230 C231 1.349 . S
C230 H259 0.940 1_455 S
C231 C230 1.349 . S
C231 C232 1.439 . S
C231 H260 0.950 . S
C232 N228 1.383 . S
C232 C231 1.439 . S
C232 C250 1.392 . S
N233 Co217 2.282 . S
N233 C236 1.332 . S
N233 C238 1.332 . S
C234 C235 1.386 . S
C234 C237 1.388 . S
C235 C234 1.386 . S
C235 C236 1.382 . S
C235 H261 0.950 . S
C236 N233 1.332 . S
C236 C235 1.382 . S
C236 H247 0.952 . S
C237 C234 1.388 . S
C237 C238 1.382 . S
C237 H262 0.950 . S
C238 N233 1.332 . S
C238 C237 1.382 . S
C238 H248 0.948 . S
N239 Co217 2.282 . S
N239 C243 1.332 . S
N239 C244 1.332 . S
C240 C241 1.388 . S
C240 C244 1.382 . S
C240 H263 0.950 . S
C241 C240 1.388 . S
C241 C242 1.386 . S
C242 C241 1.386 . S
C242 C243 1.382 . S
C242 H264 0.950 . S
C243 N239 1.332 . S
C243 C242 1.382 . S
C243 H245 0.952 . S
C244 N239 1.332 . S
C244 C240 1.382 . S
C244 H246 0.948 . S
H245 C243 0.952 . S
H246 C244 0.948 . S
H247 C236 0.952 . S
H248 C238 0.948 . S
C249 C215 1.395 . S
C249 C219 1.391 . S
C250 C212 1.389 . S
C250 C232 1.392 . S
C251 C222 1.392 . S
C251 C224 1.389 . S
C252 C227 1.395 . S
C252 C229 1.391 1_655 S
H253 C213 0.951 . S
H254 C214 0.950 . S
H255 C220 0.949 . S
H256 C221 0.950 . S
H257 C225 0.951 . S
H258 C226 0.950 . S
H259 C230 0.940 1_655 S
H260 C231 0.950 . S
H261 C235 0.950 . S
H262 C237 0.950 . S
H263 C240 0.950 . S
H264 C242 0.950 . S
C265 C266 1.443 . S
C265 N269 1.376 . S
C265 C303 1.389 . S
C266 C265 1.443 . S
C266 C267 1.340 . S
C266 H306 0.951 . S
C267 C266 1.340 . S
C267 C268 1.439 . S
C267 H307 0.950 . S
C268 C267 1.439 . S
C268 N269 1.374 . S
C268 C302 1.395 . S
N269 C265 1.376 . S
N269 C268 1.374 . S
N269 Co270 2.008 . S
Co270 N269 2.008 . S
Co270 N271 1.995 . S
Co270 N276 2.008 . S
Co270 N281 1.995 . S
Co270 N286 2.282 . S
Co270 N292 2.282 . S
N271 Co270 1.995 . S
N271 C272 1.376 . S
N271 C275 1.383 . S
C272 N271 1.376 . S
C272 C273 1.446 . S
C272 C302 1.391 . S
C273 C272 1.446 . S
C273 C274 1.339 . S
C273 H308 0.949 . S
C274 C273 1.339 . S
C274 C275 1.439 . S
C274 H309 0.950 . S
C275 N271 1.383 . S
C275 C274 1.439 . S
C275 C304 1.392 . S
N276 Co270 2.008 . S
N276 C277 1.376 . S
N276 C280 1.374 1_545 S
C277 N276 1.376 . S
C277 C278 1.443 1_545 S
C277 C304 1.389 . S
C278 C277 1.443 1_565 S
C278 C279 1.340 . S
C278 H310 0.951 . S
C279 C278 1.340 . S
C279 C280 1.439 . S
C279 H311 0.950 . S
C280 N276 1.374 1_565 S
C280 C279 1.439 . S
C280 C305 1.395 . S
N281 Co270 1.995 . S
N281 C282 1.376 . S
N281 C285 1.383 . S
C282 N281 1.376 . S
C282 C283 1.448 . S
C282 C305 1.391 1_545 S
C283 C282 1.448 . S
C283 C284 1.349 . S
C283 H312 0.940 1_545 S
C284 C283 1.349 . S
C284 C285 1.439 . S
C284 H313 0.950 . S
C285 N281 1.383 . S
C285 C284 1.439 . S
C285 C303 1.392 . S
N286 Co270 2.282 . S
N286 C289 1.332 . S
N286 C291 1.332 . S
C287 C288 1.386 . S
C287 C290 1.388 . S
C288 C287 1.386 . S
C288 C289 1.382 . S
C288 H314 0.950 . S
C289 N286 1.332 . S
C289 C288 1.382 . S
C289 H300 0.952 . S
C290 C287 1.388 . S
C290 C291 1.382 . S
C290 H315 0.950 . S
C291 N286 1.332 . S
C291 C290 1.382 . S
C291 H301 0.948 . S
N292 Co270 2.282 . S
N292 C296 1.332 . S
N292 C297 1.332 . S
C293 C294 1.388 . S
C293 C297 1.382 . S
C293 H316 0.950 . S
C294 C293 1.388 . S
C294 C295 1.386 . S
C295 C294 1.386 . S
C295 C296 1.382 . S
C295 H317 0.950 . S
C296 N292 1.332 . S
C296 C295 1.382 . S
C296 H298 0.952 . S
C297 N292 1.332 . S
C297 C293 1.382 . S
C297 H299 0.948 . S
H298 C296 0.952 . S
H299 C297 0.948 . S
H300 C289 0.952 . S
H301 C291 0.948 . S
C302 C268 1.395 . S
C302 C272 1.391 . S
C303 C265 1.389 . S
C303 C285 1.392 . S
C304 C275 1.392 . S
C304 C277 1.389 . S
C305 C280 1.395 . S
C305 C282 1.391 1_565 S
H306 C266 0.951 . S
H307 C267 0.950 . S
H308 C273 0.949 . S
H309 C274 0.950 . S
H310 C278 0.951 . S
H311 C279 0.950 . S
H312 C283 0.940 1_565 S
H313 C284 0.950 . S
H314 C288 0.950 . S
H315 C290 0.950 . S
H316 C293 0.950 . S
H317 C295 0.950 . S
C318 C319 1.443 . S
C318 N322 1.376 . S
C318 C356 1.389 . S
C319 C318 1.443 . S
C319 C320 1.340 . S
C319 H359 0.951 . S
C320 C319 1.340 . S
C320 C321 1.439 . S
C320 H360 0.950 . S
C321 C320 1.439 . S
C321 N322 1.374 . S
C321 C355 1.395 . S
N322 C318 1.376 . S
N322 C321 1.374 . S
N322 Co323 2.008 . S
Co323 N322 2.008 . S
Co323 N324 1.995 . S
Co323 N329 2.008 . S
Co323 N334 1.995 . S
Co323 N339 2.282 . S
Co323 N345 2.282 . S
N324 Co323 1.995 . S
N324 C325 1.376 . S
N324 C328 1.383 . S
C325 N324 1.376 . S
C325 C326 1.446 . S
C325 C355 1.391 . S
C326 C325 1.446 . S
C326 C327 1.339 . S
C326 H361 0.949 . S
C327 C326 1.339 . S
C327 C328 1.439 . S
C327 H362 0.950 . S
C328 N324 1.383 . S
C328 C327 1.439 . S
C328 C357 1.392 . S
N329 Co323 2.008 . S
N329 C330 1.376 . S
N329 C333 1.374 1_655 S
C330 N329 1.376 . S
C330 C331 1.443 1_655 S
C330 C357 1.389 . S
C331 C330 1.443 1_455 S
C331 C332 1.340 . S
C331 H363 0.951 . S
C332 C331 1.340 . S
C332 C333 1.439 . S
C332 H364 0.950 . S
C333 N329 1.374 1_455 S
C333 C332 1.439 . S
C333 C358 1.395 . S
N334 Co323 1.995 . S
N334 C335 1.376 . S
N334 C338 1.383 . S
C335 N334 1.376 . S
C335 C336 1.448 . S
C335 C358 1.391 1_655 S
C336 C335 1.448 . S
C336 C337 1.349 . S
C336 H365 0.940 1_655 S
C337 C336 1.349 . S
C337 C338 1.439 . S
C337 H366 0.950 . S
C338 N334 1.383 . S
C338 C337 1.439 . S
C338 C356 1.392 . S
N339 Co323 2.282 . S
N339 C342 1.332 . S
N339 C344 1.332 . S
C340 C341 1.386 . S
C340 C343 1.388 . S
C341 C340 1.386 . S
C341 C342 1.382 . S
C341 H367 0.950 . S
C342 N339 1.332 . S
C342 C341 1.382 . S
C342 H353 0.952 . S
C343 C340 1.388 . S
C343 C344 1.382 . S
C343 H368 0.950 . S
C344 N339 1.332 . S
C344 C343 1.382 . S
C344 H354 0.948 . S
N345 Co323 2.282 . S
N345 C349 1.332 . S
N345 C350 1.332 . S
C346 C347 1.388 . S
C346 C350 1.382 . S
C346 H369 0.950 . S
C347 C346 1.388 . S
C347 C348 1.386 . S
C348 C347 1.386 . S
C348 C349 1.382 . S
C348 H370 0.950 . S
C349 N345 1.332 . S
C349 C348 1.382 . S
C349 H351 0.952 . S
C350 N345 1.332 . S
C350 C346 1.382 . S
C350 H352 0.948 . S
H351 C349 0.952 . S
H352 C350 0.948 . S
H353 C342 0.952 . S
H354 C344 0.948 . S
C355 C321 1.395 . S
C355 C325 1.391 . S
C356 C318 1.389 . S
C356 C338 1.392 . S
C357 C328 1.392 . S
C357 C330 1.389 . S
C358 C333 1.395 . S
C358 C335 1.391 1_455 S
H359 C319 0.951 . S
H360 C320 0.950 . S
H361 C326 0.949 . S
H362 C327 0.950 . S
H363 C331 0.951 . S
H364 C332 0.950 . S
H365 C336 0.940 1_455 S
H366 C337 0.950 . S
H367 C341 0.950 . S
H368 C343 0.950 . S
H369 C346 0.950 . S
H370 C348 0.950 . S
C371 C372 1.443 . S
C371 N375 1.376 . S
C371 C409 1.389 . S
C372 C371 1.443 . S
C372 C373 1.340 . S
C372 H412 0.951 . S
C373 C372 1.340 . S
C373 C374 1.439 . S
C373 H413 0.950 . S
C374 C373 1.439 . S
C374 N375 1.374 . S
C374 C408 1.395 . S
N375 C371 1.376 . S
N375 C374 1.374 . S
N375 Co376 2.008 . S
Co376 N375 2.008 . S
Co376 N377 1.995 . S
Co376 N382 2.008 . S
Co376 N387 1.995 . S
Co376 N392 2.282 . S
Co376 N398 2.282 . S
N377 Co376 1.995 . S
N377 C378 1.376 . S
N377 C381 1.383 . S
C378 N377 1.376 . S
C378 C379 1.446 . S
C378 C408 1.391 . S
C379 C378 1.446 . S
C379 C380 1.339 . S
C379 H414 0.949 . S
C380 C379 1.339 . S
C380 C381 1.439 . S
C380 H415 0.950 . S
C381 N377 1.383 . S
C381 C380 1.439 . S
C381 C410 1.392 . S
N382 Co376 2.008 . S
N382 C383 1.376 . S
N382 C386 1.374 1_565 S
C383 N382 1.376 . S
C383 C384 1.443 1_565 S
C383 C410 1.389 . S
C384 C383 1.443 1_545 S
C384 C385 1.340 . S
C384 H416 0.951 . S
C385 C384 1.340 . S
C385 C386 1.439 . S
C385 H417 0.950 . S
C386 N382 1.374 1_545 S
C386 C385 1.439 . S
C386 C411 1.395 . S
N387 Co376 1.995 . S
N387 C388 1.376 . S
N387 C391 1.383 . S
C388 N387 1.376 . S
C388 C389 1.448 . S
C388 C411 1.391 1_565 S
C389 C388 1.448 . S
C389 C390 1.349 . S
C389 H418 0.940 1_565 S
C390 C389 1.349 . S
C390 C391 1.439 . S
C390 H419 0.950 . S
C391 N387 1.383 . S
C391 C390 1.439 . S
C391 C409 1.392 . S
N392 Co376 2.282 . S
N392 C395 1.332 . S
N392 C397 1.332 . S
C393 C394 1.386 . S
C393 C396 1.388 . S
C394 C393 1.386 . S
C394 C395 1.382 . S
C394 H420 0.950 . S
C395 N392 1.332 . S
C395 C394 1.382 . S
C395 H406 0.952 . S
C396 C393 1.388 . S
C396 C397 1.382 . S
C396 H421 0.950 . S
C397 N392 1.332 . S
C397 C396 1.382 . S
C397 H407 0.948 . S
N398 Co376 2.282 . S
N398 C402 1.332 . S
N398 C403 1.332 . S
C399 C400 1.388 . S
C399 C403 1.382 . S
C399 H422 0.950 . S
C400 C399 1.388 . S
C400 C401 1.386 . S
C401 C400 1.386 . S
C401 C402 1.382 . S
C401 H423 0.950 . S
C402 N398 1.332 . S
C402 C401 1.382 . S
C402 H404 0.952 . S
C403 N398 1.332 . S
C403 C399 1.382 . S
C403 H405 0.948 . S
H404 C402 0.952 . S
H405 C403 0.948 . S
H406 C395 0.952 . S
H407 C397 0.948 . S
C408 C374 1.395 . S
C408 C378 1.391 . S
C409 C371 1.389 . S
C409 C391 1.392 . S
C410 C381 1.392 . S
C410 C383 1.389 . S
C411 C386 1.395 . S
C411 C388 1.391 1_545 S
H412 C372 0.951 . S
H413 C373 0.950 . S
H414 C379 0.949 . S
H415 C380 0.950 . S
H416 C384 0.951 . S
H417 C385 0.950 . S
H418 C389 0.940 1_545 S
H419 C390 0.950 . S
H420 C394 0.950 . S
H421 C396 0.950 . S
H422 C399 0.950 . S
H423 C401 0.950 . S
H424 C432 0.950 1_655 S
H425 C437 0.950 . S
H426 C434 0.950 . S
H427 C436 0.950 . S
H428 C438 0.950 1_455 S
H429 C440 0.950 . S
H430 C442 0.950 . S
H431 C443 0.950 . S
C432 H424 0.950 1_455 S
C432 C433 1.386 . S
C432 C434 1.391 1_455 S
C433 C432 1.386 . S
C433 C437 1.393 . S
C434 H426 0.950 . S
C434 C432 1.391 1_655 S
C434 C435 1.400 1_655 S
C435 C434 1.400 1_455 S
C435 C436 1.398 . S
C435 C441 1.491 1_455 S
C436 H427 0.950 . S
C436 C435 1.398 . S
C436 C437 1.391 . S
C437 H425 0.950 . S
C437 C433 1.393 . S
C437 C436 1.391 . S
C438 H428 0.950 1_655 S
C438 C439 1.386 . S
C438 C440 1.391 1_655 S
C439 C438 1.386 . S
C439 C443 1.393 . S
C440 H429 0.950 . S
C440 C438 1.391 1_455 S
C440 C441 1.400 1_455 S
C441 C435 1.491 1_655 S
C441 C440 1.400 1_655 S
C441 C442 1.398 . S
C442 H430 0.950 . S
C442 C441 1.398 . S
C442 C443 1.391 . S
C443 H431 0.950 . S
C443 C439 1.393 . S
C443 C442 1.391 . S
H444 C452 0.950 . S
H445 C457 0.950 . S
H446 C454 0.950 1_545 S
H447 C456 0.950 . S
H448 C458 0.950 . S
H449 C460 0.950 1_565 S
H450 C462 0.950 . S
H451 C463 0.950 . S
C452 H444 0.950 . S
C452 C453 1.386 . S
C452 C454 1.391 . S
C453 C452 1.386 . S
C453 C457 1.393 . S
C454 H446 0.950 1_565 S
C454 C452 1.391 . S
C454 C455 1.400 . S
C455 C454 1.400 . S
C455 C456 1.398 . S
C455 C461 1.491 1_565 S
C456 H447 0.950 . S
C456 C455 1.398 . S
C456 C457 1.391 . S
C457 H445 0.950 . S
C457 C453 1.393 . S
C457 C456 1.391 . S
C458 H448 0.950 . S
C458 C459 1.386 . S
C458 C460 1.391 . S
C459 C458 1.386 . S
C459 C463 1.393 . S
C460 H449 0.950 1_545 S
C460 C458 1.391 . S
C460 C461 1.400 . S
C461 C455 1.491 1_545 S
C461 C460 1.400 . S
C461 C462 1.398 . S
C462 H450 0.950 . S
C462 C461 1.398 . S
C462 C463 1.391 . S
C463 H451 0.950 . S
C463 C459 1.393 . S
C463 C462 1.391 . S
H464 C472 0.950 . S
H465 C477 0.950 . S
H466 C474 0.950 1_455 S
H467 C476 0.950 . S
H468 C478 0.950 . S
H469 C480 0.950 1_655 S
H470 C482 0.950 . S
H471 C483 0.950 . S
C472 H464 0.950 . S
C472 C473 1.386 . S
C472 C474 1.391 . S
C473 C472 1.386 . S
C473 C477 1.393 . S
C474 H466 0.950 1_655 S
C474 C472 1.391 . S
C474 C475 1.400 . S
C475 C474 1.400 . S
C475 C476 1.398 . S
C475 C481 1.491 1_655 S
C476 H467 0.950 . S
C476 C475 1.398 . S
C476 C477 1.391 . S
C477 H465 0.950 . S
C477 C473 1.393 . S
C477 C476 1.391 . S
C478 H468 0.950 . S
C478 C479 1.386 . S
C478 C480 1.391 . S
C479 C478 1.386 . S
C479 C483 1.393 . S
C480 H469 0.950 1_455 S
C480 C478 1.391 . S
C480 C481 1.400 . S
C481 C475 1.491 1_455 S
C481 C480 1.400 . S
C481 C482 1.398 . S
C482 H470 0.950 . S
C482 C481 1.398 . S
C482 C483 1.391 . S
C483 H471 0.950 . S
C483 C479 1.393 . S
C483 C482 1.391 . S
H484 C492 0.950 . S
H485 C497 0.950 . S
H486 C494 0.950 . S
H487 C496 0.928 1_565 S
H488 C498 0.950 . S
H489 C500 0.950 . S
H490 C502 0.928 1_545 S
H491 C503 0.950 . S
C492 H484 0.950 . S
C492 C493 1.386 . S
C492 C494 1.391 . S
C493 C492 1.386 . S
C493 C497 1.393 . S
C494 H486 0.950 . S
C494 C492 1.391 . S
C494 C495 1.400 . S
C495 C494 1.400 . S
C495 C496 1.405 . S
C495 C501 1.491 1_545 S
C496 H487 0.928 1_545 S
C496 C495 1.405 . S
C496 C497 1.406 . S
C497 H485 0.950 . S
C497 C493 1.393 . S
C497 C496 1.406 . S
C498 H488 0.950 . S
C498 C499 1.386 . S
C498 C500 1.391 . S
C499 C498 1.386 . S
C499 C503 1.393 . S
C500 H489 0.950 . S
C500 C498 1.391 . S
C500 C501 1.400 . S
C501 C495 1.491 1_565 S
C501 C500 1.400 . S
C501 C502 1.405 . S
C502 H490 0.928 1_565 S
C502 C501 1.405 . S
C502 C503 1.406 . S
C503 H491 0.950 . S
C503 C499 1.393 . S
C503 C502 1.406 . S
H504 C512 0.950 . S
H505 C517 0.950 . S
H506 C514 0.950 . S
H507 C516 0.950 . S
H508 C518 0.950 . S
H509 C520 0.950 . S
H510 C522 0.950 . S
H511 C523 0.950 . S
C512 H504 0.950 . S
C512 C513 1.386 . S
C512 C514 1.391 . S
C513 C512 1.386 . S
C513 C517 1.393 1_655 S
C514 H506 0.950 . S
C514 C512 1.391 . S
C514 C515 1.400 . S
C515 C514 1.400 . S
C515 C516 1.398 1_655 S
C515 C521 1.491 1_656 S
C516 H507 0.950 . S
C516 C515 1.398 1_455 S
C516 C517 1.391 . S
C517 H505 0.950 . S
C517 C513 1.393 1_455 S
C517 C516 1.391 . S
C518 H508 0.950 . S
C518 C519 1.386 . S
C518 C520 1.391 . S
C519 C518 1.386 . S
C519 C523 1.393 1_455 S
C520 H509 0.950 . S
C520 C518 1.391 . S
C520 C521 1.400 . S
C521 C515 1.491 1_454 S
C521 C520 1.400 . S
C521 C522 1.398 1_455 S
C522 H510 0.950 . S
C522 C521 1.398 1_655 S
C522 C523 1.391 . S
C523 H511 0.950 . S
C523 C519 1.393 1_655 S
C523 C522 1.391 . S
H524 C532 0.950 . S
H525 C537 0.950 . S
H526 C534 0.950 . S
H527 C536 0.950 . S
H528 C538 0.950 . S
H529 C540 0.950 . S
H530 C542 0.950 . S
H531 C543 0.950 . S
C532 H524 0.950 . S
C532 C533 1.386 . S
C532 C534 1.391 . S
C533 C532 1.386 . S
C533 C537 1.393 . S
C534 H526 0.950 . S
C534 C532 1.391 . S
C534 C535 1.400 . S
C535 C534 1.400 . S
C535 C536 1.398 . S
C535 C541 1.491 1_545 S
C536 H527 0.950 . S
C536 C535 1.398 . S
C536 C537 1.391 . S
C537 H525 0.950 . S
C537 C533 1.393 . S
C537 C536 1.391 . S
C538 H528 0.950 . S
C538 C539 1.386 . S
C538 C540 1.391 . S
C539 C538 1.386 . S
C539 C543 1.393 . S
C540 H529 0.950 . S
C540 C538 1.391 . S
C540 C541 1.400 . S
C541 C535 1.491 1_565 S
C541 C540 1.400 . S
C541 C542 1.398 . S
C542 H530 0.950 . S
C542 C541 1.398 . S
C542 C543 1.391 . S
C543 H531 0.950 . S
C543 C539 1.393 . S
C543 C542 1.391 . S
H544 C552 0.950 . S
H545 C557 0.950 . S
H546 C554 0.950 . S
H547 C556 0.950 . S
H548 C558 0.950 . S
H549 C560 0.950 . S
H550 C562 0.950 . S
H551 C563 0.950 . S
C552 H544 0.950 . S
C552 C553 1.386 1_455 S
C552 C554 1.391 . S
C553 C552 1.386 1_655 S
C553 C557 1.393 . S
C554 H546 0.950 . S
C554 C552 1.391 . S
C554 C555 1.400 1_455 S
C555 C554 1.400 1_655 S
C555 C556 1.398 . S
C555 C561 1.491 1_654 S
C556 H547 0.950 . S
C556 C555 1.398 . S
C556 C557 1.391 . S
C557 H545 0.950 . S
C557 C553 1.393 . S
C557 C556 1.391 . S
C558 H548 0.950 . S
C558 C559 1.386 1_655 S
C558 C560 1.391 . S
C559 C558 1.386 1_455 S
C559 C563 1.393 . S
C560 H549 0.950 . S
C560 C558 1.391 . S
C560 C561 1.400 1_655 S
C561 C555 1.491 1_456 S
C561 C560 1.400 1_455 S
C561 C562 1.398 . S
C562 H550 0.950 . S
C562 C561 1.398 . S
C562 C563 1.391 . S
C563 H551 0.950 . S
C563 C559 1.393 . S
C563 C562 1.391 . S
H564 C572 0.950 . S
H565 C577 0.950 . S
H566 C574 0.950 . S
H567 C576 0.950 . S
H568 C578 0.950 . S
H569 C580 0.950 . S
H570 C582 0.950 . S
H571 C583 0.950 . S
C572 H564 0.950 . S
C572 C573 1.386 . S
C572 C574 1.391 . S
C573 C572 1.386 . S
C573 C577 1.393 . S
C574 H566 0.950 . S
C574 C572 1.391 . S
C574 C575 1.400 . S
C575 C574 1.400 . S
C575 C576 1.398 1_545 S
C575 C581 1.491 1_545 S
C576 H567 0.950 . S
C576 C575 1.398 1_565 S
C576 C577 1.391 1_565 S
C577 H565 0.950 . S
C577 C573 1.393 . S
C577 C576 1.391 1_545 S
C578 H568 0.950 . S
C578 C579 1.386 . S
C578 C580 1.391 . S
C579 C578 1.386 . S
C579 C583 1.393 . S
C580 H569 0.950 . S
C580 C578 1.391 . S
C580 C581 1.400 . S
C581 C575 1.491 1_565 S
C581 C580 1.400 . S
C581 C582 1.398 1_565 S
C582 H570 0.950 . S
C582 C581 1.398 1_545 S
C582 C583 1.391 1_545 S
C583 H571 0.950 . S
C583 C579 1.393 . S
C583 C582 1.391 1_565 S
H584 C592 0.950 . S
H585 C597 0.950 . S
H586 C594 0.950 . S
H587 C596 0.950 . S
H588 C598 0.950 . S
H589 C600 0.950 . S
H590 C602 0.950 . S
H591 C603 0.950 . S
C592 H584 0.950 . S
C592 C593 1.386 . S
C592 C594 1.391 . S
C593 C592 1.386 . S
C593 C597 1.393 . S
C594 H586 0.950 . S
C594 C592 1.391 . S
C594 C595 1.400 . S
C595 C594 1.400 . S
C595 C596 1.398 . S
C595 C601 1.491 . S
C596 H587 0.950 . S
C596 C595 1.398 . S
C596 C597 1.391 . S
C597 H585 0.950 . S
C597 C593 1.393 . S
C597 C596 1.391 . S
C598 H588 0.950 . S
C598 C599 1.386 . S
C598 C600 1.391 . S
C599 C598 1.386 . S
C599 C603 1.393 . S
C600 H589 0.950 . S
C600 C598 1.391 . S
C600 C601 1.400 . S
C601 C595 1.491 . S
C601 C600 1.400 . S
C601 C602 1.398 . S
C602 H590 0.950 . S
C602 C601 1.398 . S
C602 C603 1.391 . S
C603 H591 0.950 . S
C603 C599 1.393 . S
C603 C602 1.391 . S
H604 C612 0.950 . S
H605 C617 0.950 . S
H606 C614 0.950 . S
H607 C616 0.950 . S
H608 C618 0.950 . S
H609 C620 0.950 . S
H610 C622 0.950 . S
H611 C623 0.950 . S
C612 H604 0.950 . S
C612 C613 1.386 . S
C612 C614 1.391 . S
C613 C612 1.386 . S
C613 C617 1.393 . S
C614 H606 0.950 . S
C614 C612 1.391 . S
C614 C615 1.400 . S
C615 C614 1.400 . S
C615 C616 1.398 . S
C615 C621 1.491 . S
C616 H607 0.950 . S
C616 C615 1.398 . S
C616 C617 1.391 . S
C617 H605 0.950 . S
C617 C613 1.393 . S
C617 C616 1.391 . S
C618 H608 0.950 . S
C618 C619 1.386 . S
C618 C620 1.391 . S
C619 C618 1.386 . S
C619 C623 1.393 . S
C620 H609 0.950 . S
C620 C618 1.391 . S
C620 C621 1.400 . S
C621 C615 1.491 . S
C621 C620 1.400 . S
C621 C622 1.398 . S
C622 H610 0.950 . S
C622 C621 1.398 . S
C622 C623 1.391 . S
C623 H611 0.950 . S
C623 C619 1.393 . S
C623 C622 1.391 . S
H624 C632 0.950 . S
H625 C637 0.950 . S
H626 C634 0.950 . S
H627 C636 0.950 . S
H628 C638 0.950 . S
H629 C640 0.950 . S
H630 C642 0.950 . S
H631 C643 0.950 . S
C632 H624 0.950 . S
C632 C633 1.386 . S
C632 C634 1.391 . S
C633 C632 1.386 . S
C633 C637 1.393 . S
C634 H626 0.950 . S
C634 C632 1.391 . S
C634 C635 1.400 . S
C635 C634 1.400 . S
C635 C636 1.398 . S
C635 C641 1.491 . S
C636 H627 0.950 . S
C636 C635 1.398 . S
C636 C637 1.391 . S
C637 H625 0.950 . S
C637 C633 1.393 . S
C637 C636 1.391 . S
C638 H628 0.950 . S
C638 C639 1.386 . S
C638 C640 1.391 . S
C639 C638 1.386 . S
C639 C643 1.393 . S
C640 H629 0.950 . S
C640 C638 1.391 . S
C640 C641 1.400 . S
C641 C635 1.491 . S
C641 C640 1.400 . S
C641 C642 1.398 . S
C642 H630 0.950 . S
C642 C641 1.398 . S
C642 C643 1.391 . S
C643 H631 0.950 . S
C643 C639 1.393 . S
C643 C642 1.391 . S
H644 C652 0.950 . S
H645 C657 0.950 . S
H646 C654 0.950 . S
H647 C656 0.950 . S
H648 C658 0.950 . S
H649 C660 0.950 . S
H650 C662 0.950 . S
H651 C663 0.950 . S
C652 H644 0.950 . S
C652 C653 1.386 . S
C652 C654 1.391 . S
C653 C652 1.386 . S
C653 C657 1.393 . S
C654 H646 0.950 . S
C654 C652 1.391 . S
C654 C655 1.400 . S
C655 C654 1.400 . S
C655 C656 1.398 . S
C655 C661 1.491 . S
C656 H647 0.950 . S
C656 C655 1.398 . S
C656 C657 1.391 . S
C657 H645 0.950 . S
C657 C653 1.393 . S
C657 C656 1.391 . S
C658 H648 0.950 . S
C658 C659 1.386 . S
C658 C660 1.391 . S
C659 C658 1.386 . S
C659 C663 1.393 . S
C660 H649 0.950 . S
C660 C658 1.391 . S
C660 C661 1.400 . S
C661 C655 1.491 . S
C661 C660 1.400 . S
C661 C662 1.398 . S
C662 H650 0.950 . S
C662 C661 1.398 . S
C662 C663 1.391 . S
C663 H651 0.950 . S
C663 C659 1.393 . S
C663 C662 1.391 . S
H664 C672 0.950 . S
H665 C677 0.950 . S
H666 C674 0.950 1_655 S
H667 C676 0.950 . S
H668 C678 0.950 . S
H669 C680 0.950 1_455 S
H670 C682 0.950 . S
H671 C683 0.950 . S
C672 H664 0.950 . S
C672 C673 1.386 . S
C672 C674 1.391 . S
C673 C672 1.386 . S
C673 C677 1.393 . S
C674 H666 0.950 1_455 S
C674 C672 1.391 . S
C674 C675 1.400 . S
C675 C674 1.400 . S
C675 C676 1.398 . S
C675 C681 1.491 1_445 S
C676 H667 0.950 . S
C676 C675 1.398 . S
C676 C677 1.391 . S
C677 H665 0.950 . S
C677 C673 1.393 . S
C677 C676 1.391 . S
C678 H668 0.950 . S
C678 C679 1.386 . S
C678 C680 1.391 . S
C679 C678 1.386 . S
C679 C683 1.393 . S
C680 H669 0.950 1_655 S
C680 C678 1.391 . S
C680 C681 1.400 . S
C681 C675 1.491 1_665 S
C681 C680 1.400 . S
C681 C682 1.398 . S
C682 H670 0.950 . S
C682 C681 1.398 . S
C682 C683 1.391 . S
C683 H671 0.950 . S
C683 C679 1.393 . S
C683 C682 1.391 . S
H684 C692 0.950 . S
H685 C697 0.950 . S
H686 C694 0.950 1_545 S
H687 C696 0.950 . S
H688 C698 0.950 . S
H689 C700 0.950 1_565 S
H690 C702 0.950 . S
H691 C703 0.950 . S
C692 H684 0.950 . S
C692 C693 1.386 . S
C692 C694 1.391 . S
C693 C692 1.386 . S
C693 C697 1.393 . S
C694 H686 0.950 1_565 S
C694 C692 1.391 . S
C694 C695 1.400 . S
C695 C694 1.400 . S
C695 C696 1.398 . S
C695 C701 1.491 1_465 S
C696 H687 0.950 . S
C696 C695 1.398 . S
C696 C697 1.391 . S
C697 H685 0.950 . S
C697 C693 1.393 . S
C697 C696 1.391 . S
C698 H688 0.950 . S
C698 C699 1.386 . S
C698 C700 1.391 . S
C699 C698 1.386 . S
C699 C703 1.393 . S
C700 H689 0.950 1_545 S
C700 C698 1.391 . S
C700 C701 1.400 . S
C701 C695 1.491 1_645 S
C701 C700 1.400 . S
C701 C702 1.398 . S
C702 H690 0.950 . S
C702 C701 1.398 . S
C702 C703 1.391 . S
C703 H691 0.950 . S
C703 C699 1.393 . S
C703 C702 1.391 . S
H704 C712 0.947 1_455 S
H705 C717 0.950 . S
H706 C714 0.950 . S
H707 C716 0.950 1_565 S
H708 C718 0.947 1_655 S
H709 C720 0.950 . S
H710 C722 0.950 1_545 S
H711 C723 0.950 . S
C712 H704 0.947 1_655 S
C712 C713 1.386 . S
C712 C714 1.391 1_655 S
C713 C712 1.386 . S
C713 C717 1.393 . S
C714 H706 0.950 . S
C714 C712 1.391 1_455 S
C714 C715 1.400 1_455 S
C715 C714 1.400 1_655 S
C715 C716 1.398 . S
C715 C721 1.491 1_645 S
C716 H707 0.950 1_545 S
C716 C715 1.398 . S
C716 C717 1.391 . S
C717 H705 0.950 . S
C717 C713 1.393 . S
C717 C716 1.391 . S
C718 H708 0.947 1_455 S
C718 C719 1.386 . S
C718 C720 1.391 1_455 S
C719 C718 1.386 . S
C719 C723 1.393 . S
C720 H709 0.950 . S
C720 C718 1.391 1_655 S
C720 C721 1.400 1_655 S
C721 C715 1.491 1_465 S
C721 C720 1.400 1_455 S
C721 C722 1.398 . S
C722 H710 0.950 1_565 S
C722 C721 1.398 . S
C722 C723 1.391 . S
C723 H711 0.950 . S
C723 C719 1.393 . S
C723 C722 1.391 . S
H724 C732 0.950 . S
H725 C737 0.950 . S
H726 C734 0.950 1_545 S
H727 C736 0.950 . S
H728 C738 0.950 . S
H729 C740 0.950 1_565 S
H730 C742 0.950 . S
H731 C743 0.950 . S
C732 H724 0.950 . S
C732 C733 1.386 . S
C732 C734 1.391 . S
C733 C732 1.386 . S
C733 C737 1.393 . S
C734 H726 0.950 1_565 S
C734 C732 1.391 . S
C734 C735 1.400 . S
C735 C734 1.400 . S
C735 C736 1.398 . S
C735 C741 1.491 1_665 S
C736 H727 0.950 . S
C736 C735 1.398 . S
C736 C737 1.391 . S
C737 H725 0.950 . S
C737 C733 1.393 . S
C737 C736 1.391 . S
C738 H728 0.950 . S
C738 C739 1.386 . S
C738 C740 1.391 . S
C739 C738 1.386 . S
C739 C743 1.393 . S
C740 H729 0.950 1_545 S
C740 C738 1.391 . S
C740 C741 1.400 . S
C741 C735 1.491 1_445 S
C741 C740 1.400 . S
C741 C742 1.398 . S
C742 H730 0.950 . S
C742 C741 1.398 . S
C742 C743 1.391 . S
C743 H731 0.950 . S
C743 C739 1.393 . S
C743 C742 1.391 . S
C433 C22 1.865 . S
C439 C128 1.868 . S
C453 C181 1.872 . S
C459 C75 1.874 . S
C473 C340 1.873 . S
C479 C234 1.874 . S
C493 C287 1.859 . S
C499 C393 1.858 . S
C513 C357 1.787 . S
C519 C39 1.797 . S
C533 C92 1.786 . S
C539 C410 1.788 . S
C553 C145 1.797 . S
C559 C251 1.785 . S
C573 C304 1.792 . S
C579 C198 1.794 . S
C593 C38 1.849 . S
C599 C303 1.849 . S
C613 C356 1.846 . S
C619 C91 1.846 . S
C633 C409 1.854 . S
C639 C144 1.854 . S
C653 C197 1.846 . S
C659 C250 1.846 . S
C673 C29 1.676 . S
C679 C135 1.678 . S
C693 C188 1.676 . S
C699 C82 1.678 . S
C713 C347 1.663 . S
C719 C241 1.667 . S
C733 C400 1.676 . S
C739 C294 1.678 . S
