# Generated by pormake.
# Topology zga, (5)-cn, num edge types: 1
# Building blocks:
#     Node 0, Type 0, BuildingBlock: BEQFEK_clean_sbu_0, # of connection points: 5
#     Node 1, Type 0, BuildingBlock: BEQFEK_clean_sbu_0, # of connection points: 5
#     Node 2, Type 0, BuildingBlock: BEQFEK_clean_sbu_0, # of connection points: 5
#     Node 3, Type 0, BuildingBlock: BEQFEK_clean_sbu_0, # of connection points: 5
#     Node 4, Type 0, BuildingBlock: BEQFEK_clean_sbu_0, # of connection points: 5
#     Node 5, Type 0, BuildingBlock: BEQFEK_clean_sbu_0, # of connection points: 5
#     Node 6, Type 0, BuildingBlock: BEQFEK_clean_sbu_0, # of connection points: 5
#     Node 7, Type 0, BuildingBlock: BEQFEK_clean_sbu_0, # of connection points: 5
#     Node 8, Type 0, BuildingBlock: BEQFEK_clean_sbu_0, # of connection points: 5
#     Node 9, Type 0, BuildingBlock: BEQFEK_clean_sbu_0, # of connection points: 5
#     Node 10, Type 0, BuildingBlock: BEQFEK_clean_sbu_0, # of connection points: 5
#     Node 11, Type 0, BuildingBlock: BEQFEK_clean_sbu_0, # of connection points: 5
#     Node 12, Type 0, BuildingBlock: BEQFEK_clean_sbu_0, # of connection points: 5
#     Node 13, Type 0, BuildingBlock: BEQFEK_clean_sbu_0, # of connection points: 5
#     Node 14, Type 0, BuildingBlock: BEQFEK_clean_sbu_0, # of connection points: 5
#     Node 15, Type 0, BuildingBlock: BEQFEK_clean_sbu_0, # of connection points: 5
#     Edge 16, Type (0, 0), BuildingBlock: KIFKEQ_clean_linker_1, # of connection points: 2
#     Edge 17, Type (0, 0), BuildingBlock: KIFKEQ_clean_linker_1, # of connection points: 2
#     Edge 18, Type (0, 0), BuildingBlock: KIFKEQ_clean_linker_1, # of connection points: 2
#     Edge 19, Type (0, 0), BuildingBlock: KIFKEQ_clean_linker_1, # of connection points: 2
#     Edge 20, Type (0, 0), BuildingBlock: KIFKEQ_clean_linker_1, # of connection points: 2
#     Edge 21, Type (0, 0), BuildingBlock: KIFKEQ_clean_linker_1, # of connection points: 2
#     Edge 22, Type (0, 0), BuildingBlock: KIFKEQ_clean_linker_1, # of connection points: 2
#     Edge 23, Type (0, 0), BuildingBlock: KIFKEQ_clean_linker_1, # of connection points: 2
#     Edge 24, Type (0, 0), BuildingBlock: KIFKEQ_clean_linker_1, # of connection points: 2
#     Edge 25, Type (0, 0), BuildingBlock: KIFKEQ_clean_linker_1, # of connection points: 2
#     Edge 26, Type (0, 0), BuildingBlock: KIFKEQ_clean_linker_1, # of connection points: 2
#     Edge 27, Type (0, 0), BuildingBlock: KIFKEQ_clean_linker_1, # of connection points: 2
#     Edge 28, Type (0, 0), BuildingBlock: KIFKEQ_clean_linker_1, # of connection points: 2
#     Edge 29, Type (0, 0), BuildingBlock: KIFKEQ_clean_linker_1, # of connection points: 2
#     Edge 30, Type (0, 0), BuildingBlock: KIFKEQ_clean_linker_1, # of connection points: 2
#     Edge 31, Type (0, 0), BuildingBlock: KIFKEQ_clean_linker_1, # of connection points: 2
#     Edge 32, Type (0, 0), BuildingBlock: KIFKEQ_clean_linker_1, # of connection points: 2
#     Edge 33, Type (0, 0), BuildingBlock: KIFKEQ_clean_linker_1, # of connection points: 2
#     Edge 34, Type (0, 0), BuildingBlock: KIFKEQ_clean_linker_1, # of connection points: 2
#     Edge 35, Type (0, 0), BuildingBlock: KIFKEQ_clean_linker_1, # of connection points: 2
#     Edge 36, Type (0, 0), BuildingBlock: KIFKEQ_clean_linker_1, # of connection points: 2
#     Edge 37, Type (0, 0), BuildingBlock: KIFKEQ_clean_linker_1, # of connection points: 2
#     Edge 38, Type (0, 0), BuildingBlock: KIFKEQ_clean_linker_1, # of connection points: 2
#     Edge 39, Type (0, 0), BuildingBlock: KIFKEQ_clean_linker_1, # of connection points: 2
#     Edge 40, Type (0, 0), BuildingBlock: KIFKEQ_clean_linker_1, # of connection points: 2
#     Edge 41, Type (0, 0), BuildingBlock: KIFKEQ_clean_linker_1, # of connection points: 2
#     Edge 42, Type (0, 0), BuildingBlock: KIFKEQ_clean_linker_1, # of connection points: 2
#     Edge 43, Type (0, 0), BuildingBlock: KIFKEQ_clean_linker_1, # of connection points: 2
#     Edge 44, Type (0, 0), BuildingBlock: KIFKEQ_clean_linker_1, # of connection points: 2
#     Edge 45, Type (0, 0), BuildingBlock: KIFKEQ_clean_linker_1, # of connection points: 2
#     Edge 46, Type (0, 0), BuildingBlock: KIFKEQ_clean_linker_1, # of connection points: 2
#     Edge 47, Type (0, 0), BuildingBlock: KIFKEQ_clean_linker_1, # of connection points: 2
#     Edge 48, Type (0, 0), BuildingBlock: KIFKEQ_clean_linker_1, # of connection points: 2
#     Edge 49, Type (0, 0), BuildingBlock: KIFKEQ_clean_linker_1, # of connection points: 2
#     Edge 50, Type (0, 0), BuildingBlock: KIFKEQ_clean_linker_1, # of connection points: 2
#     Edge 51, Type (0, 0), BuildingBlock: KIFKEQ_clean_linker_1, # of connection points: 2
#     Edge 52, Type (0, 0), BuildingBlock: KIFKEQ_clean_linker_1, # of connection points: 2
#     Edge 53, Type (0, 0), BuildingBlock: KIFKEQ_clean_linker_1, # of connection points: 2
#     Edge 54, Type (0, 0), BuildingBlock: KIFKEQ_clean_linker_1, # of connection points: 2
#     Edge 55, Type (0, 0), BuildingBlock: KIFKEQ_clean_linker_1, # of connection points: 2
# Relax obj value: 0.161
# Max RMSD: 0.223
# Mean RMSD: 0.180
data_MOF--net-zga--node1-BEQFEK_clean_sbu_0--edge1-KIFKEQ_clean_linker_1
_symmetry_space_group_name_H-M    P1
_symmetry_Int_Tables_number       1
_symmetry_cell_setting            triclinic
loop_
_symmetry_equiv_pos_as_xyz
'x, y, z'
_cell_length_a     53.868636
_cell_length_b     91.074649
_cell_length_c     19.270108
_cell_angle_alpha  91.060698
_cell_angle_beta   90.116908
_cell_angle_gamma 101.18917
loop_
_atom_site_label
_atom_site_type_symbol
_atom_site_fract_x
_atom_site_fract_y
_atom_site_fract_z
_atom_type_partial_charge
Co0 Co 0.09617 0.54119 0.0754 0.0
Co1 Co 0.0763 0.54012 0.22782 0.0
C2 C 0.09366 0.56921 0.1522 0.0
O3 O 0.09994 0.56259 0.09821 0.0
O4 O 0.08413 0.56186 0.20462 0.0
C5 C 0.11958 0.54892 0.94278 0.0
O6 O 0.12708 0.56236 0.97032 0.0
C7 C 0.08363 0.54518 0.37796 0.0
C8 C 0.05181 0.52866 0.4192 0.0
C9 C 0.07313 0.53903 0.43929 0.0
N10 N 0.06951 0.53842 0.32451 0.0
N11 N 0.05034 0.52872 0.34957 0.0
C12 C 0.10628 0.55747 0.36967 0.0
H13 H 0.12356 0.5526 0.36524 0.0
H14 H 0.1084 0.56532 0.41496 0.0
H15 H 0.10462 0.56373 0.3218 0.0
C16 C 0.1325 0.52449 0.13742 0.0
N17 N 0.11265 0.53144 0.14186 0.0
N18 N 0.10374 0.53042 0.20549 0.0
C19 C 0.11725 0.52234 0.2431 0.0
C20 C 0.13612 0.5185 0.20157 0.0
C21 C 0.14817 0.52419 0.07359 0.0
H22 H 0.13819 0.51541 0.03716 0.0
H23 H 0.15053 0.53511 0.04741 0.0
H24 H 0.16705 0.52175 0.0861 0.0
O25 O 0.05973 0.53223 0.0696 0.0
O26 O 0.04531 0.53024 0.17736 0.0
H27 H 0.09005 0.51449 0.32201 0.0
H28 H 0.11845 0.50688 0.32624 0.0
C29 C 0.11083 0.51708 0.31522 0.0
H30 H 0.11923 0.52595 0.35318 0.0
H31 H 0.0367 0.5218 0.319 0.0
O32 O 0.10824 0.53843 0.98044 0.0
C33 C 0.0418 0.5283 0.11227 0.0
Co34 Co 0.1401 0.71103 0.22046 0.0
Co35 Co 0.12194 0.70999 0.06576 0.0
C36 C 0.11942 0.68196 0.1463 0.0
O37 O 0.12867 0.68942 0.19996 0.0
O38 O 0.11565 0.68846 0.09032 0.0
C39 C 0.15909 0.70293 0.35153 0.0
O40 O 0.15859 0.68979 0.32171 0.0
C41 C 0.12086 0.70373 0.91441 0.0
C42 C 0.10924 0.72412 0.87616 0.0
C43 C 0.1173 0.71126 0.8542 0.0
N44 N 0.11599 0.71208 0.96922 0.0
N45 N 0.10853 0.72408 0.94585 0.0
C46 C 0.12829 0.68878 0.92023 0.0
H47 H 0.14853 0.69032 0.93512 0.0
H48 H 0.12507 0.68231 0.87061 0.0
H49 H 0.11705 0.68228 0.96131 0.0
C50 C 0.18798 0.72675 0.15782 0.0
N51 N 0.16356 0.71977 0.15333 0.0
N52 N 0.15601 0.7194 0.08817 0.0
C53 C 0.17548 0.72621 0.04908 0.0
C54 C 0.19632 0.73111 0.09187 0.0
C55 C 0.20255 0.7295 0.22449 0.0
H56 H 0.19125 0.73434 0.26375 0.0
H57 H 0.20579 0.71866 0.24431 0.0
H58 H 0.22101 0.7372 0.21768 0.0
O59 O 0.11102 0.72126 0.22365 0.0
O60 O 0.09775 0.72043 0.11462 0.0
H61 H 0.1603 0.73375 0.95652 0.0
H62 H 0.19314 0.73229 0.94936 0.0
C63 C 0.17463 0.72715 0.97162 0.0
H64 H 0.16918 0.71575 0.94895 0.0
H65 H 0.104 0.73257 0.97764 0.0
O66 O 0.15402 0.71355 0.31565 0.0
C67 C 0.09584 0.72427 0.17791 0.0
Co68 Co 0.82833 0.45018 0.94962 0.0
Co69 Co 0.84697 0.45599 0.79737 0.0
C70 C 0.84529 0.42627 0.86644 0.0
O71 O 0.83628 0.43057 0.92266 0.0
O72 O 0.84997 0.43494 0.81495 0.0
C73 C 0.80983 0.43851 0.08349 0.0
O74 O 0.81037 0.42515 0.05739 0.0
C75 C 0.84074 0.45097 0.64835 0.0
C76 C 0.86277 0.47193 0.60649 0.0
C77 C 0.84689 0.4586 0.58745 0.0
N78 N 0.85228 0.45944 0.70122 0.0
N79 N 0.86581 0.47184 0.67584 0.0
C80 C 0.82201 0.43669 0.65722 0.0
H81 H 0.81466 0.43591 0.71106 0.0
H82 H 0.80612 0.43592 0.61973 0.0
H83 H 0.83154 0.42711 0.64687 0.0
C84 C 0.78281 0.45956 0.89209 0.0
N85 N 0.80611 0.4564 0.88544 0.0
N86 N 0.81453 0.45975 0.82258 0.0
C87 C 0.79716 0.46564 0.78782 0.0
C88 C 0.77627 0.46554 0.83028 0.0
C89 C 0.76721 0.45667 0.95632 0.0
H90 H 0.7703 0.44621 0.9805 0.0
H91 H 0.74677 0.45571 0.94459 0.0
H92 H 0.77325 0.46604 0.99407 0.0
O93 O 0.86039 0.46512 0.95684 0.0
O94 O 0.87411 0.46941 0.84933 0.0
H95 H 0.78979 0.48143 0.71126 0.0
H96 H 0.79754 0.46434 0.6769 0.0
C97 C 0.8018 0.47297 0.71885 0.0
H98 H 0.82183 0.47868 0.71503 0.0
H99 H 0.87614 0.48054 0.70616 0.0
O100 O 0.81504 0.44985 0.04497 0.0
C101 C 0.87669 0.47176 0.91446 0.0
Co102 Co 0.91407 0.30167 0.93856 0.0
Co103 Co 0.89497 0.29617 0.78528 0.0
C104 C 0.89948 0.32621 0.85907 0.0
O105 O 0.90884 0.32187 0.91399 0.0
O106 O 0.89336 0.31733 0.80737 0.0
C107 C 0.93227 0.31306 0.07435 0.0
O108 O 0.93141 0.32639 0.05071 0.0
C109 C 0.89893 0.30112 0.63521 0.0
C110 C 0.87751 0.27962 0.59318 0.0
C111 C 0.89234 0.29309 0.57372 0.0
N112 N 0.88913 0.29255 0.6884 0.0
N113 N 0.87601 0.27982 0.66285 0.0
C114 C 0.91423 0.31665 0.64375 0.0
H115 H 0.93427 0.31604 0.65409 0.0
H116 H 0.91314 0.32328 0.59653 0.0
H117 H 0.90735 0.32251 0.68827 0.0
C118 C 0.956 0.28835 0.88334 0.0
N119 N 0.93474 0.29384 0.87458 0.0
N120 N 0.92679 0.29141 0.81004 0.0
C121 C 0.94289 0.2843 0.77543 0.0
C122 C 0.96186 0.28205 0.82075 0.0
C123 C 0.96847 0.28765 0.95235 0.0
H124 H 0.95454 0.2814 0.98876 0.0
H125 H 0.97454 0.29918 0.97395 0.0
H126 H 0.98502 0.2821 0.94879 0.0
O127 O 0.88076 0.28822 0.94392 0.0
O128 O 0.86706 0.28332 0.83583 0.0
H129 H 0.92183 0.27155 0.69287 0.0
H130 H 0.95577 0.27432 0.68211 0.0
C131 C 0.94 0.27955 0.70057 0.0
H132 H 0.93973 0.28947 0.66858 0.0
H133 H 0.86673 0.27107 0.69313 0.0
O134 O 0.92741 0.30175 0.03359 0.0
C135 C 0.86413 0.28164 0.90096 0.0
Co136 Co 0.0993 0.04171 0.55444 0.0
Co137 Co 0.07868 0.03825 0.70508 0.0
C138 C 0.09697 0.06848 0.64284 0.0
O139 O 0.1033 0.06258 0.58704 0.0
O140 O 0.08696 0.06041 0.69252 0.0
C141 C 0.10623 0.05144 0.42134 0.0
O142 O 0.09282 0.06065 0.44876 0.0
C143 C 0.08519 0.0419 0.85354 0.0
C144 C 0.0539 0.02493 0.89426 0.0
C145 C 0.07476 0.03564 0.91452 0.0
N146 N 0.07125 0.03512 0.8001 0.0
N147 N 0.05239 0.02511 0.82456 0.0
C148 C 0.10935 0.053 0.84464 0.0
H149 H 0.11717 0.05184 0.79203 0.0
H150 H 0.12353 0.05146 0.88434 0.0
H151 H 0.10547 0.06449 0.85046 0.0
C152 C 0.13496 0.02368 0.60969 0.0
N153 N 0.1152 0.03065 0.61647 0.0
N154 N 0.10596 0.02867 0.67954 0.0
C155 C 0.1191 0.01989 0.71412 0.0
C156 C 0.13796 0.01658 0.67127 0.0
C157 C 0.15038 0.0238 0.54524 0.0
H158 H 0.13811 0.01819 0.50236 0.0
H159 H 0.15755 0.03554 0.53001 0.0
H160 H 0.16649 0.018 0.55267 0.0
O161 O 0.06282 0.03272 0.54355 0.0
O162 O 0.04812 0.02954 0.65075 0.0
H163 H 0.09323 0.01146 0.79508 0.0
H164 H 0.12285 0.00502 0.79819 0.0
C165 C 0.11389 0.0147 0.78686 0.0
H166 H 0.12177 0.02392 0.82368 0.0
H167 H 0.03896 0.01812 0.79364 0.0
O168 O 0.11312 0.04175 0.4598 0.0
C169 C 0.04476 0.02832 0.58536 0.0
Co170 Co 0.14031 0.2097 0.73006 0.0
Co171 Co 0.12133 0.20954 0.57605 0.0
C172 C 0.11889 0.18109 0.65374 0.0
O173 O 0.12798 0.18826 0.70818 0.0
O174 O 0.11544 0.18789 0.59845 0.0
C175 C 0.15749 0.20014 0.85953 0.0
O176 O 0.15385 0.18701 0.82786 0.0
C177 C 0.12568 0.20442 0.42668 0.0
C178 C 0.10253 0.21967 0.38376 0.0
C179 C 0.11834 0.20995 0.36448 0.0
N180 N 0.11507 0.21084 0.47933 0.0
N181 N 0.10091 0.21974 0.45335 0.0
C182 C 0.14411 0.1943 0.43761 0.0
H183 H 0.15092 0.19511 0.49219 0.0
H184 H 0.16047 0.19715 0.40217 0.0
H185 H 0.13453 0.18255 0.42668 0.0
C186 C 0.18861 0.22426 0.66463 0.0
N187 N 0.16371 0.21825 0.66193 0.0
N188 N 0.15529 0.21911 0.59817 0.0
C189 C 0.17443 0.22629 0.55906 0.0
C190 C 0.19625 0.22944 0.59923 0.0
C191 C 0.20477 0.22433 0.72788 0.0
H192 H 0.20195 0.23362 0.7632 0.0
H193 H 0.19895 0.21368 0.7558 0.0
H194 H 0.22511 0.22586 0.71432 0.0
O195 O 0.11152 0.22043 0.73448 0.0
O196 O 0.09717 0.21961 0.62625 0.0
H197 H 0.15235 0.23379 0.47855 0.0
H198 H 0.18559 0.24196 0.47711 0.0
C199 C 0.17161 0.23154 0.48679 0.0
H200 H 0.1752 0.22293 0.44887 0.0
H201 H 0.09092 0.22628 0.48321 0.0
O202 O 0.15488 0.21159 0.82551 0.0
C203 C 0.0959 0.22344 0.68979 0.0
Co204 Co 0.83164 0.95054 0.45365 0.0
Co205 Co 0.84318 0.95536 0.29621 0.0
C206 C 0.84603 0.92643 0.36294 0.0
O207 O 0.83929 0.93117 0.42111 0.0
O208 O 0.84829 0.93463 0.30971 0.0
C209 C 0.80565 0.93944 0.58278 0.0
O210 O 0.78822 0.93044 0.54636 0.0
C211 C 0.83498 0.9497 0.14772 0.0
C212 C 0.84976 0.97196 0.10422 0.0
C213 C 0.83769 0.95753 0.08641 0.0
N214 N 0.84475 0.95912 0.19959 0.0
N215 N 0.85393 0.97235 0.17319 0.0
C216 C 0.82096 0.93404 0.15837 0.0
H217 H 0.81242 0.93303 0.21085 0.0
H218 H 0.80596 0.93073 0.11839 0.0
H219 H 0.83446 0.92629 0.15431 0.0
C220 C 0.78452 0.96098 0.41297 0.0
N221 N 0.80657 0.95668 0.39839 0.0
N222 N 0.81121 0.95827 0.33154 0.0
C223 C 0.79186 0.96324 0.30135 0.0
C224 C 0.77435 0.96502 0.35173 0.0
C225 C 0.77414 0.96205 0.4844 0.0
H226 H 0.76338 0.95089 0.49892 0.0
H227 H 0.76108 0.97008 0.48672 0.0
H228 H 0.7898 0.96553 0.52226 0.0
O229 O 0.86268 0.96595 0.45262 0.0
O230 O 0.87184 0.96947 0.34127 0.0
H231 H 0.77421 0.97241 0.2151 0.0
H232 H 0.79074 0.9576 0.19311 0.0
C233 C 0.79111 0.9676 0.22696 0.0
H234 H 0.80826 0.97602 0.21519 0.0
H235 H 0.86218 0.98178 0.20263 0.0
O236 O 0.82322 0.94835 0.5527 0.0
C237 C 0.87684 0.97245 0.4052 0.0
Co238 Co 0.91384 0.80169 0.43296 0.0
Co239 Co 0.8935 0.79566 0.28108 0.0
C240 C 0.89876 0.82598 0.35405 0.0
O241 O 0.90858 0.82183 0.40866 0.0
O242 O 0.89211 0.81693 0.3032 0.0
C243 C 0.93217 0.81279 0.56921 0.0
O244 O 0.93149 0.82617 0.54594 0.0
C245 C 0.90065 0.80026 0.1324 0.0
C246 C 0.8728 0.78151 0.08703 0.0
C247 C 0.89184 0.79343 0.06951 0.0
N248 N 0.88775 0.79253 0.18405 0.0
N249 N 0.87099 0.78141 0.15663 0.0
C250 C 0.92053 0.81406 0.14417 0.0
H251 H 0.93949 0.81103 0.14349 0.0
H252 H 0.91965 0.82229 0.10292 0.0
H253 H 0.9182 0.81926 0.19546 0.0
C254 C 0.95641 0.78936 0.37427 0.0
N255 N 0.93429 0.79403 0.36774 0.0
N256 N 0.9253 0.79085 0.30458 0.0
C257 C 0.94119 0.78371 0.26927 0.0
C258 C 0.96156 0.78269 0.31195 0.0
C259 C 0.97191 0.7911 0.43944 0.0
H260 H 0.96351 0.78227 0.47606 0.0
H261 H 0.9716 0.80214 0.46444 0.0
H262 H 0.99177 0.79013 0.42874 0.0
O263 O 0.88044 0.78818 0.439 0.0
O264 O 0.86588 0.78282 0.33197 0.0
H265 H 0.91475 0.77167 0.19483 0.0
H266 H 0.94554 0.76679 0.1923 0.0
C267 C 0.93532 0.77616 0.1998 0.0
H268 H 0.94118 0.78437 0.15837 0.0
H269 H 0.85867 0.7736 0.18548 0.0
O270 O 0.92732 0.80155 0.52802 0.0
C271 C 0.86349 0.7814 0.39737 0.0
Co272 Co 0.59563 0.54039 0.56522 0.0
Co273 Co 0.57653 0.54001 0.7185 0.0
C274 C 0.59292 0.56874 0.6413 0.0
O275 O 0.59869 0.56193 0.58723 0.0
O276 O 0.5841 0.56159 0.6949 0.0
C277 C 0.61945 0.54829 0.43336 0.0
O278 O 0.62697 0.56166 0.46151 0.0
C279 C 0.58289 0.54541 0.86904 0.0
C280 C 0.55267 0.52771 0.90928 0.0
C281 C 0.57289 0.53881 0.92997 0.0
N282 N 0.56962 0.5382 0.81513 0.0
N283 N 0.55134 0.52781 0.83963 0.0
C284 C 0.60422 0.55854 0.86166 0.0
H285 H 0.60117 0.56511 0.81581 0.0
H286 H 0.62222 0.55455 0.85406 0.0
H287 H 0.60597 0.56594 0.90856 0.0
C288 C 0.63177 0.52359 0.62661 0.0
N289 N 0.61238 0.53091 0.63179 0.0
N290 N 0.60422 0.53043 0.69624 0.0
C291 C 0.61818 0.52264 0.73403 0.0
C292 C 0.63612 0.51817 0.69131 0.0
C293 C 0.64594 0.52209 0.56104 0.0
H294 H 0.65172 0.53326 0.53755 0.0
H295 H 0.66291 0.51716 0.57048 0.0
H296 H 0.63322 0.51486 0.5235 0.0
O297 O 0.55958 0.53079 0.56001 0.0
O298 O 0.54541 0.53015 0.66799 0.0
H299 H 0.62293 0.50919 0.82272 0.0
H300 H 0.62098 0.52829 0.84229 0.0
C301 C 0.61345 0.51849 0.80832 0.0
H302 H 0.59287 0.51502 0.81733 0.0
H303 H 0.53852 0.52043 0.80865 0.0
O304 O 0.60793 0.53774 0.47044 0.0
C305 C 0.54176 0.52735 0.60341 0.0
Co306 Co 0.63938 0.71014 0.71634 0.0
Co307 Co 0.62152 0.71009 0.56199 0.0
C308 C 0.61858 0.68155 0.63987 0.0
O309 O 0.62764 0.68869 0.69455 0.0
O310 O 0.61508 0.68839 0.58461 0.0
C311 C 0.65796 0.70194 0.84846 0.0
O312 O 0.65673 0.68861 0.81995 0.0
C313 C 0.62471 0.70481 0.41214 0.0
C314 C 0.60858 0.72348 0.37125 0.0
C315 C 0.62056 0.71193 0.3515 0.0
N316 N 0.61594 0.71201 0.46548 0.0
N317 N 0.60575 0.72291 0.44053 0.0
C318 C 0.6395 0.69263 0.42036 0.0
H319 H 0.64732 0.69285 0.47379 0.0
H320 H 0.65506 0.69375 0.38198 0.0
H321 H 0.62672 0.68166 0.41094 0.0
C322 C 0.68821 0.72454 0.65426 0.0
N323 N 0.66327 0.7187 0.64984 0.0
N324 N 0.6556 0.71928 0.58519 0.0
C325 C 0.67539 0.72592 0.54678 0.0
C326 C 0.69674 0.72921 0.58886 0.0
C327 C 0.70359 0.72474 0.7191 0.0
H328 H 0.69895 0.73337 0.75559 0.0
H329 H 0.69857 0.71375 0.74457 0.0
H330 H 0.72418 0.72723 0.70822 0.0
O331 O 0.61054 0.72069 0.71965 0.0
O332 O 0.59737 0.72048 0.61071 0.0
H333 H 0.65576 0.73376 0.46231 0.0
H334 H 0.68959 0.73934 0.45876 0.0
C335 C 0.67382 0.73009 0.47233 0.0
H336 H 0.67502 0.72029 0.4385 0.0
H337 H 0.59824 0.73053 0.4712 0.0
O338 O 0.65321 0.71253 0.81176 0.0
C339 C 0.59549 0.72405 0.67432 0.0
Co340 Co 0.32647 0.44882 0.45366 0.0
Co341 Co 0.34507 0.45497 0.30177 0.0
C342 C 0.34451 0.42533 0.37183 0.0
O343 O 0.33442 0.42924 0.4271 0.0
O344 O 0.3496 0.43425 0.3214 0.0
C345 C 0.3082 0.43701 0.58666 0.0
O346 O 0.30936 0.42377 0.56016 0.0
C347 C 0.33913 0.44979 0.15185 0.0
C348 C 0.36254 0.47041 0.11091 0.0
C349 C 0.3463 0.45727 0.09066 0.0
N350 N 0.35017 0.45831 0.20536 0.0
N351 N 0.36435 0.47054 0.18053 0.0
C352 C 0.32245 0.43473 0.16006 0.0
H353 H 0.3268 0.42957 0.20897 0.0
H354 H 0.3024 0.43599 0.1622 0.0
H355 H 0.32481 0.42717 0.11573 0.0
C356 C 0.2814 0.45882 0.39778 0.0
N357 N 0.30424 0.45508 0.38984 0.0
N358 N 0.31236 0.45821 0.32646 0.0
C359 C 0.29511 0.46437 0.29253 0.0
C360 C 0.27487 0.46477 0.33627 0.0
C361 C 0.2673 0.45792 0.46479 0.0
H362 H 0.27797 0.46615 0.50251 0.0
H363 H 0.26601 0.44661 0.48662 0.0
H364 H 0.24802 0.4603 0.45768 0.0
O365 O 0.35864 0.46359 0.46088 0.0
O366 O 0.37144 0.4691 0.35356 0.0
H367 H 0.31818 0.4777 0.21746 0.0
H368 H 0.28488 0.47817 0.21078 0.0
C369 C 0.29878 0.47098 0.22183 0.0
H370 H 0.29628 0.46184 0.18223 0.0
H371 H 0.37477 0.47914 0.21123 0.0
O372 O 0.31299 0.44842 0.54851 0.0
C373 C 0.37442 0.47086 0.41893 0.0
Co374 Co 0.41353 0.30073 0.4399 0.0
Co375 Co 0.39351 0.29533 0.2871 0.0
C376 C 0.39903 0.3254 0.36106 0.0
O377 O 0.40853 0.32099 0.4156 0.0
O378 O 0.39249 0.31655 0.30948 0.0
C379 C 0.43131 0.31195 0.57602 0.0
O380 O 0.42986 0.32522 0.55271 0.0
C381 C 0.39679 0.3003 0.13684 0.0
C382 C 0.37541 0.27875 0.09523 0.0
C383 C 0.39013 0.29223 0.07547 0.0
N384 N 0.38717 0.29173 0.19025 0.0
N385 N 0.37404 0.27899 0.16494 0.0
C386 C 0.412 0.31585 0.1451 0.0
H387 H 0.40482 0.32179 0.1889 0.0
H388 H 0.43199 0.31531 0.15652 0.0
H389 H 0.41114 0.32239 0.09746 0.0
C390 C 0.45507 0.28736 0.38227 0.0
N391 N 0.43368 0.29277 0.37482 0.0
N392 N 0.42535 0.29039 0.31058 0.0
C393 C 0.44132 0.28338 0.27488 0.0
C394 C 0.46061 0.28116 0.31913 0.0
C395 C 0.46814 0.28677 0.45047 0.0
H396 H 0.45451 0.28062 0.48792 0.0
H397 H 0.47444 0.29833 0.47143 0.0
H398 H 0.48461 0.28117 0.44593 0.0
O399 O 0.3801 0.28748 0.44629 0.0
O400 O 0.36566 0.28266 0.33883 0.0
H401 H 0.41998 0.27089 0.19206 0.0
H402 H 0.45387 0.27367 0.18035 0.0
C403 C 0.43818 0.27886 0.19978 0.0
H404 H 0.43785 0.28889 0.16858 0.0
H405 H 0.36491 0.27022 0.19539 0.0
O406 O 0.42715 0.3007 0.53477 0.0
C407 C 0.36311 0.28101 0.4041 0.0
Co408 Co 0.59694 0.04091 0.08103 0.0
Co409 Co 0.57568 0.0401 0.23243 0.0
C410 C 0.59302 0.06904 0.15592 0.0
O411 O 0.59953 0.06235 0.10241 0.0
O412 O 0.58357 0.06177 0.20864 0.0
C413 C 0.61987 0.04869 0.94784 0.0
O414 O 0.62654 0.06225 0.97475 0.0
C415 C 0.58301 0.04512 0.38253 0.0
C416 C 0.55032 0.02932 0.42411 0.0
C417 C 0.5722 0.03924 0.44408 0.0
N418 N 0.56852 0.03863 0.32918 0.0
N419 N 0.54883 0.02936 0.35444 0.0
C420 C 0.60639 0.05686 0.37373 0.0
H421 H 0.60538 0.06297 0.32501 0.0
H422 H 0.62315 0.05149 0.37057 0.0
H423 H 0.6089 0.06493 0.41824 0.0
C424 C 0.63349 0.02496 0.14761 0.0
N425 N 0.61334 0.03169 0.14966 0.0
N426 N 0.60337 0.03041 0.21207 0.0
C427 C 0.6163 0.02224 0.25097 0.0
C428 C 0.63611 0.01874 0.21196 0.0
C429 C 0.65027 0.02505 0.08581 0.0
H430 H 0.6511 0.03553 0.05677 0.0
H431 H 0.66968 0.02402 0.10153 0.0
H432 H 0.64228 0.01547 0.05083 0.0
O433 O 0.56086 0.03116 0.07423 0.0
O434 O 0.54501 0.03027 0.18046 0.0
H435 H 0.61469 0.00568 0.33052 0.0
H436 H 0.61628 0.02453 0.36178 0.0
C437 C 0.6081 0.01628 0.32095 0.0
H438 H 0.5872 0.0141 0.32467 0.0
H439 H 0.53481 0.0227 0.32402 0.0
O440 O 0.60947 0.03808 0.98628 0.0
C441 C 0.54239 0.02757 0.11554 0.0
Co442 Co 0.6405 0.21071 0.2212 0.0
Co443 Co 0.6213 0.2098 0.0675 0.0
C444 C 0.61874 0.18176 0.14955 0.0
O445 O 0.62844 0.18914 0.20292 0.0
O446 O 0.61485 0.18834 0.09388 0.0
C447 C 0.65986 0.20304 0.3526 0.0
O448 O 0.65939 0.18984 0.32342 0.0
C449 C 0.62373 0.20372 0.91713 0.0
C450 C 0.6044 0.22102 0.87568 0.0
C451 C 0.61764 0.21003 0.85568 0.0
N452 N 0.61513 0.21101 0.97057 0.0
N453 N 0.60323 0.22115 0.94533 0.0
C454 C 0.63685 0.19078 0.92545 0.0
H455 H 0.62995 0.18443 0.97226 0.0
H456 H 0.65748 0.19495 0.93204 0.0
H457 H 0.63361 0.18317 0.87931 0.0
C458 C 0.68872 0.22482 0.15486 0.0
N459 N 0.66382 0.21882 0.15242 0.0
N460 N 0.65548 0.2192 0.08832 0.0
C461 C 0.67472 0.22595 0.04838 0.0
C462 C 0.69649 0.22946 0.08878 0.0
C463 C 0.70477 0.22534 0.21863 0.0
H464 H 0.7015 0.23468 0.253 0.0
H465 H 0.6992 0.21478 0.24735 0.0
H466 H 0.72517 0.22703 0.20567 0.0
O467 O 0.6117 0.22132 0.22422 0.0
O468 O 0.59738 0.22038 0.11609 0.0
H469 H 0.65344 0.23354 0.96659 0.0
H470 H 0.6871 0.24006 0.9612 0.0
C471 C 0.67205 0.23039 0.97468 0.0
H472 H 0.67375 0.22092 0.93932 0.0
H473 H 0.59512 0.22854 0.97577 0.0
O474 O 0.65475 0.21357 0.31614 0.0
C475 C 0.59615 0.22434 0.17945 0.0
Co476 Co 0.32854 0.94995 0.94725 0.0
Co477 Co 0.34789 0.95618 0.79564 0.0
C478 C 0.34565 0.92623 0.86316 0.0
O479 O 0.33594 0.93029 0.9188 0.0
O480 O 0.35112 0.93515 0.81281 0.0
C481 C 0.31132 0.9382 0.08161 0.0
O482 O 0.31344 0.92504 0.05598 0.0
C483 C 0.34344 0.95121 0.64604 0.0
C484 C 0.36363 0.97283 0.60599 0.0
C485 C 0.34923 0.95912 0.58566 0.0
N486 N 0.35374 0.9599 0.69979 0.0
N487 N 0.36623 0.9727 0.67547 0.0
C488 C 0.32596 0.93642 0.65359 0.0
H489 H 0.31755 0.9355 0.70624 0.0
H490 H 0.31073 0.93489 0.61372 0.0
H491 H 0.33689 0.92736 0.64619 0.0
C492 C 0.28381 0.9602 0.88979 0.0
N493 N 0.3069 0.95673 0.88315 0.0
N494 N 0.31509 0.95956 0.81956 0.0
C495 C 0.29744 0.96503 0.78381 0.0
C496 C 0.27699 0.96547 0.82685 0.0
C497 C 0.26883 0.95855 0.95538 0.0
H498 H 0.27765 0.96736 0.99327 0.0
H499 H 0.26931 0.94752 0.97831 0.0
H500 H 0.2489 0.95958 0.94601 0.0
O501 O 0.36095 0.96432 0.95599 0.0
O502 O 0.37454 0.96982 0.84938 0.0
H503 H 0.32033 0.97789 0.70707 0.0
H504 H 0.28722 0.97833 0.70003 0.0
C505 C 0.30102 0.97114 0.71213 0.0
H506 H 0.29847 0.96173 0.67383 0.0
H507 H 0.37542 0.98161 0.70658 0.0
O508 O 0.315 0.94948 0.04249 0.0
C509 C 0.3772 0.97145 0.9149 0.0
Co510 Co 0.4139 0.80145 0.93313 0.0
Co511 Co 0.39384 0.79579 0.78082 0.0
C512 C 0.39901 0.82595 0.85477 0.0
O513 O 0.40851 0.82163 0.90953 0.0
O514 O 0.39266 0.81704 0.80325 0.0
C515 C 0.43275 0.81253 0.06895 0.0
O516 O 0.43263 0.82595 0.04531 0.0
C517 C 0.40103 0.80047 0.63218 0.0
C518 C 0.37314 0.78174 0.58671 0.0
C519 C 0.39221 0.79365 0.56927 0.0
N520 N 0.38812 0.79273 0.68378 0.0
N521 N 0.37133 0.78163 0.6563 0.0
C522 C 0.42091 0.81426 0.64398 0.0
H523 H 0.43987 0.81122 0.64355 0.0
H524 H 0.42011 0.82248 0.6026 0.0
H525 H 0.41852 0.81949 0.69516 0.0
C526 C 0.4565 0.78916 0.87434 0.0
N527 N 0.43443 0.79387 0.8678 0.0
N528 N 0.42553 0.79082 0.80448 0.0
C529 C 0.44144 0.78372 0.76904 0.0
C530 C 0.46174 0.78259 0.81185 0.0
C531 C 0.47191 0.79078 0.93967 0.0
H532 H 0.47169 0.8018 0.96487 0.0
H533 H 0.49174 0.78973 0.92915 0.0
H534 H 0.46336 0.78193 0.97606 0.0
O535 O 0.38052 0.7879 0.93876 0.0
O536 O 0.36593 0.78311 0.83136 0.0
H537 H 0.44591 0.76696 0.69137 0.0
H538 H 0.44164 0.78462 0.6582 0.0
C539 C 0.43569 0.77632 0.6992 0.0
H540 H 0.41513 0.77185 0.69384 0.0
H541 H 0.359 0.77381 0.68511 0.0
O542 O 0.42736 0.80125 0.02813 0.0
C543 C 0.36351 0.78141 0.8966 0.0
H544 H 0.27537 0.49446 0.3442 0.0
H545 H 0.22705 0.45189 0.29749 0.0
H546 H 0.24123 0.50736 0.31264 0.0
H547 H 0.19256 0.46468 0.26632 0.0
H548 H 0.15026 0.49457 0.13633 0.0
H549 H 0.18331 0.48121 0.17256 0.0
H550 H 0.19929 0.51073 0.35201 0.0
H551 H 0.16674 0.52422 0.31471 0.0
C552 C 0.25721 0.48792 0.32807 0.0
C553 C 0.25353 0.47228 0.32345 0.0
C554 C 0.2377 0.49524 0.31012 0.0
C555 C 0.21421 0.48703 0.28686 0.0
C556 C 0.21053 0.47131 0.28332 0.0
C557 C 0.23007 0.46399 0.30164 0.0
C558 C 0.16101 0.49821 0.1832 0.0
C559 C 0.1561 0.51041 0.22271 0.0
C560 C 0.1797 0.49049 0.20437 0.0
C561 C 0.19387 0.49491 0.26523 0.0
C562 C 0.18886 0.50714 0.3046 0.0
C563 C 0.17013 0.51479 0.28358 0.0
H564 H 0.08735 0.73512 0.30722 0.0
H565 H 0.05966 0.73271 0.09573 0.0
H566 H 0.05586 0.74974 0.34092 0.0
H567 H 0.02777 0.74706 0.12997 0.0
H568 H 0.99185 0.78624 0.19873 0.0
H569 H 0.02462 0.77223 0.16695 0.0
H570 H 0.01057 0.74723 0.35608 0.0
H571 H 0.97799 0.7614 0.38776 0.0
C572 C 0.07445 0.73761 0.26794 0.0
C573 C 0.07607 0.73273 0.19868 0.0
C574 C 0.0563 0.74595 0.28741 0.0
C575 C 0.03933 0.7496 0.23815 0.0
C576 C 0.04082 0.74463 0.169 0.0
C577 C 0.05899 0.73631 0.14947 0.0
C578 C 0.99594 0.77779 0.23348 0.0
C579 C 0.98255 0.7749 0.29569 0.0
C580 C 0.01455 0.76971 0.2152 0.0
C581 C 0.02012 0.75854 0.25877 0.0
C582 C 0.00697 0.75587 0.32175 0.0
C583 C 0.98836 0.76399 0.34002 0.0
H584 H 0.35529 0.77113 0.02842 0.0
H585 H 0.31823 0.7719 0.82964 0.0
H586 H 0.31532 0.75881 0.07888 0.0
H587 H 0.27826 0.75957 0.88049 0.0
H588 H 0.20797 0.7566 0.01836 0.0
H589 H 0.24911 0.76789 0.97041 0.0
H590 H 0.28298 0.73437 0.06955 0.0
H591 H 0.24156 0.72293 0.11654 0.0
C592 C 0.33868 0.76855 0.99532 0.0
C593 C 0.3399 0.77257 0.92505 0.0
C594 C 0.31584 0.76145 0.02426 0.0
C595 C 0.2937 0.75838 0.98375 0.0
C596 C 0.29502 0.76201 0.91308 0.0
C597 C 0.31793 0.76895 0.88388 0.0
C598 C 0.22428 0.75171 0.02996 0.0
C599 C 0.22171 0.73886 0.0704 0.0
C600 C 0.24772 0.75809 0.00231 0.0
C601 C 0.26911 0.75186 0.01547 0.0
C602 C 0.26676 0.73938 0.0586 0.0
C603 C 0.24318 0.73289 0.08567 0.0
H604 H 0.88389 0.48494 0.04331 0.0
H605 H 0.92169 0.48077 0.8485 0.0
H606 H 0.9227 0.49991 0.09144 0.0
H607 H 0.9608 0.49506 0.89738 0.0
H608 H 0.02331 0.5306 0.98229 0.0
H609 H 0.98244 0.51856 0.93495 0.0
H610 H 0.9628 0.49749 0.13199 0.0
H611 H 0.00331 0.51024 0.18024 0.0
C612 C 0.90052 0.48722 0.01078 0.0
C613 C 0.89974 0.48167 0.94211 0.0
C614 C 0.92285 0.49571 0.03856 0.0
C615 C 0.94504 0.49865 -0.00137 0.0
C616 C 0.94405 0.49328 0.92948 0.0
C617 C 0.92162 0.485 0.90141 0.0
C618 C 0.01019 0.52345 0.01559 0.0
C619 C 0.01656 0.52129 0.08489 0.0
C620 C 0.98677 0.51646 0.98831 0.0
C621 C 0.96929 0.5069 0.02927 0.0
C622 C 0.97557 0.50493 0.09905 0.0
C623 C 0.99887 0.51215 0.12671 0.0
H624 H 0.74839 0.46145 0.71109 0.0
H625 H 0.75257 0.48339 0.91231 0.0
H626 H 0.71433 0.47392 0.67752 0.0
H627 H 0.71684 0.49477 0.88174 0.0
H628 H 0.67485 0.52744 0.78092 0.0
H629 H 0.70749 0.51392 0.81629 0.0
H630 H 0.67261 0.47615 0.68666 0.0
H631 H 0.6411 0.49031 0.64824 0.0
C632 C 0.7417 0.46879 0.74854 0.0
C633 C 0.75332 0.47158 0.81398 0.0
C634 C 0.72189 0.4758 0.7297 0.0
C635 C 0.71278 0.48553 0.77655 0.0
C636 C 0.72366 0.48769 0.84345 0.0
C637 C 0.74387 0.48092 0.86165 0.0
C638 C 0.67444 0.51627 0.75989 0.0
C639 C 0.65581 0.50989 0.71164 0.0
C640 C 0.69291 0.50841 0.7807 0.0
C641 C 0.69278 0.49381 0.75484 0.0
C642 C 0.67374 0.48742 0.70687 0.0
C643 C 0.65559 0.49546 0.68498 0.0
H644 H 0.05458 0.22764 0.61582 0.0
H645 H 0.09252 0.23818 0.81359 0.0
H646 H 0.02231 0.24163 0.65145 0.0
H647 H 0.06015 0.2522 0.84895 0.0
H648 H 0.01278 0.29045 0.8415 0.0
H649 H 0.04547 0.27595 0.81298 0.0
H650 H 0.98759 0.23913 0.74081 0.0
H651 H 0.95508 0.25352 0.77043 0.0
C652 C 0.05603 0.23291 0.66691 0.0
C653 C 0.07612 0.23176 0.71189 0.0
C654 C 0.03748 0.24086 0.6874 0.0
C655 C 0.03872 0.24797 0.75301 0.0
C656 C 0.05883 0.24691 0.79792 0.0
C657 C 0.07726 0.2388 0.77776 0.0
C658 C 0.00716 0.27919 0.82028 0.0
C659 C 0.98156 0.27311 0.80738 0.0
C660 C 0.02578 0.27091 0.80402 0.0
C661 C 0.01905 0.25647 0.7741 0.0
C662 C 0.99334 0.25031 0.76276 0.0
C663 C 0.97478 0.25852 0.77969 0.0
H664 H 0.72949 0.25328 0.14485 0.0
H665 H 0.72104 0.22041 0.97806 0.0
H666 H 0.77082 0.26505 0.09955 0.0
H667 H 0.76236 0.23202 0.93279 0.0
H668 H 0.82156 0.2683 0.82849 0.0
H669 H 0.78168 0.25501 0.87582 0.0
H670 H 0.81362 0.2609 0.08264 0.0
H671 H 0.85321 0.27441 0.03582 0.0
C672 C 0.7367 0.24848 0.09907 0.0
C673 C 0.72218 0.23602 0.0647 0.0
C674 C 0.76032 0.25518 0.07309 0.0
C675 C 0.76983 0.2495 0.01232 0.0
C676 C 0.7554 0.23682 0.97895 0.0
C677 C 0.73182 0.23015 0.00492 0.0
C678 C 0.82013 0.26666 0.88398 0.0
C679 C 0.84054 0.27251 0.92832 0.0
C680 C 0.7973 0.25899 0.91111 0.0
C681 C 0.79443 0.25698 0.98309 0.0
C682 C 0.81506 0.26249 0.02713 0.0
C683 C 0.83783 0.27016 0.00011 0.0
H684 H 0.26013 0.98846 0.89141 0.0
H685 H 0.24349 0.95634 0.72234 0.0
H686 H 0.22558 0.00049 0.85339 0.0
H687 H 0.20892 0.96828 0.68417 0.0
H688 H 0.1338 0.98657 0.68334 0.0
H689 H 0.16631 0.97325 0.72488 0.0
H690 H 0.21909 0.01536 0.74635 0.0
H691 H 0.18655 0.02854 0.70436 0.0
C692 C 0.24874 0.98385 0.84689 0.0
C693 C 0.25427 0.97151 0.80971 0.0
C694 C 0.2292 0.99079 0.82473 0.0
C695 C 0.21473 0.98537 0.76552 0.0
C696 C 0.21969 0.97264 0.73011 0.0
C697 C 0.23941 0.96583 0.7518 0.0
C698 C 0.1525 0.99286 0.69624 0.0
C699 C 0.15798 0.00847 0.69038 0.0
C700 C 0.17101 0.9853 0.72004 0.0
C701 C 0.19513 0.99329 0.73929 0.0
C702 C 0.20056 0.00894 0.73272 0.0
C703 C 0.18213 0.01646 0.70814 0.0
H704 H 0.21988 0.22059 0.48656 0.0
H705 H 0.2302 0.25276 0.65633 0.0
H706 H 0.26093 0.2321 0.43969 0.0
H707 H 0.27133 0.26449 0.60931 0.0
H708 H 0.35319 0.27366 0.53929 0.0
H709 H 0.31383 0.26034 0.58822 0.0
H710 H 0.28004 0.25509 0.38349 0.0
H711 H 0.31968 0.26817 0.33404 0.0
C712 C 0.23101 0.23017 0.51371 0.0
C713 C 0.22194 0.23588 0.57473 0.0
C714 C 0.25445 0.23679 0.48682 0.0
C715 C 0.26933 0.24928 0.52041 0.0
C716 C 0.26046 0.25477 0.58255 0.0
C717 C 0.23696 0.2481 0.60953 0.0
C718 C 0.33744 0.26959 0.50448 0.0
C719 C 0.33958 0.27203 0.43264 0.0
C720 C 0.31481 0.26204 0.53273 0.0
C721 C 0.29374 0.25675 0.48991 0.0
C722 C 0.29601 0.2589 0.41787 0.0
C723 C 0.31871 0.26644 0.38951 0.0
H724 H 0.88571 0.98851 0.52595 0.0
H725 H 0.92082 0.97992 0.33205 0.0
H726 H 0.92545 0.00361 0.5669 0.0
H727 H 0.96108 0.99445 0.37417 0.0
H728 H 0.02713 0.02958 0.45279 0.0
H729 H 0.98569 0.018 0.40635 0.0
H730 H 0.96444 0.99941 0.60748 0.0
H731 H 0.00534 0.01152 0.65431 0.0
C732 C 0.90197 0.98989 0.492 0.0
C733 C 0.90023 0.98295 0.42602 0.0
C734 C 0.92484 0.99845 0.51569 0.0
C735 C 0.94668 5e-05 0.47447 0.0
C736 C 0.94465 0.99359 0.40722 0.0
C737 C 0.92159 0.98521 0.38304 0.0
C738 C 0.01352 0.02308 0.48709 0.0
C739 C 0.01951 0.02148 0.55726 0.0
C740 C 0.9898 0.01637 0.46038 0.0
C741 C 0.97161 0.00777 0.50304 0.0
C742 C 0.97769 0.00622 0.57329 0.0
C743 C 0.00125 0.01308 0.60016 0.0
H744 H 0.65429 0.99663 0.14228 0.0
H745 H 0.66203 0.02227 0.33433 0.0
H746 H 0.68686 0.98335 0.18084 0.0
H747 H 0.69324 0.00832 0.37529 0.0
H748 H 0.7695 0.99307 0.38996 0.0
H749 H 0.73549 0.00592 0.35775 0.0
H750 H 0.69531 0.96515 0.25858 0.0
H751 H 0.73009 0.95266 0.28859 0.0
C752 C 0.66295 0.9994 0.19279 0.0
C753 C 0.6557 0.01051 0.23519 0.0
C754 C 0.68133 0.99162 0.2155 0.0
C755 C 0.69267 0.99468 0.28148 0.0
C756 C 0.6852 0.00576 0.32392 0.0
C757 C 0.66706 0.01364 0.30083 0.0
C758 C 0.75311 0.98688 0.3624 0.0
C759 C 0.75207 0.97192 0.34218 0.0
C760 C 0.7336 0.99418 0.34391 0.0
C761 C 0.71262 0.98661 0.30515 0.0
C762 C 0.71135 0.97142 0.28722 0.0
C763 C 0.73102 0.96419 0.30511 0.0
H764 H 0.72937 0.75327 0.64419 0.0
H765 H 0.72231 0.71929 0.48257 0.0
H766 H 0.77079 0.765 0.599 0.0
H767 H 0.76371 0.73083 0.43754 0.0
H768 H 0.82103 0.76704 0.32743 0.0
H769 H 0.78173 0.75358 0.37703 0.0
H770 H 0.8141 0.7615 0.58284 0.0
H771 H 0.85316 0.77519 0.53365 0.0
C772 C 0.73695 0.7482 0.59973 0.0
C773 C 0.72276 0.73548 0.56649 0.0
C774 C 0.76061 0.75488 0.57381 0.0
C775 C 0.77045 0.7489 0.51429 0.0
C776 C 0.75647 0.73586 0.48262 0.0
C777 C 0.73287 0.72923 0.50849 0.0
C778 C 0.81984 0.76582 0.3832 0.0
C779 C 0.84022 0.77227 0.42649 0.0
C780 C 0.79735 0.75805 0.41165 0.0
C781 C 0.79476 0.75652 0.48396 0.0
C782 C 0.81534 0.76268 0.52706 0.0
C783 C 0.8378 0.77045 0.49869 0.0
H784 H 0.49224 0.78641 0.69911 0.0
H785 H 0.47804 0.76113 0.88679 0.0
H786 H 0.52501 0.77244 0.66683 0.0
H787 H 0.51063 0.74699 0.85458 0.0
H788 H 0.58718 0.73459 0.80448 0.0
H789 H 0.5559 0.74929 0.83934 0.0
H790 H 0.5279 0.74736 0.62844 0.0
H791 H 0.55954 0.73295 0.59311 0.0
C792 C 0.49625 0.77787 0.73347 0.0
C793 C 0.48276 0.77484 0.79541 0.0
C794 C 0.51488 0.76981 0.7149 0.0
C795 C 0.52034 0.75852 0.7579 0.0
C796 C 0.50711 0.75572 0.82069 0.0
C797 C 0.48849 0.76381 0.83925 0.0
C798 C 0.57434 0.73727 0.76548 0.0
C799 C 0.57592 0.73259 0.69591 0.0
C800 C 0.55632 0.74565 0.7856 0.0
C801 C 0.53944 0.74955 0.73669 0.0
C802 C 0.54089 0.74477 0.66724 0.0
C803 C 0.55892 0.7364 0.64707 0.0
H804 H 0.52971 0.51485 0.47519 0.0
H805 H 0.49658 0.52314 0.67268 0.0
H806 H 0.48852 0.50242 0.43194 0.0
H807 H 0.45497 0.51116 0.62832 0.0
H808 H 0.39178 0.47276 0.55254 0.0
H809 H 0.4314 0.48718 0.59743 0.0
H810 H 0.44842 0.50628 0.39521 0.0
H811 H 0.40913 0.49132 0.34951 0.0
C812 C 0.51356 0.51416 0.50923 0.0
C813 C 0.51645 0.51995 0.57752 0.0
C814 C 0.48984 0.50713 0.48414 0.0
C815 C 0.46832 0.50584 0.5264 0.0
C816 C 0.47117 0.51177 0.59459 0.0
C817 C 0.49501 0.51868 0.62 0.0
C818 C 0.40386 0.48013 0.51768 0.0
C819 C 0.39738 0.48079 0.44723 0.0
C820 C 0.42657 0.48849 0.54362 0.0
C821 C 0.44326 0.49785 0.49994 0.0
C822 C 0.43629 0.49894 0.43003 0.0
C823 C 0.41368 0.49044 0.40387 0.0
H824 H 0.4546 0.25282 0.26664 0.0
H825 H 0.51153 0.29015 0.33773 0.0
H826 H 0.48763 0.23907 0.23368 0.0
H827 H 0.54474 0.27629 0.30594 0.0
H828 H 0.59296 0.23904 0.30323 0.0
H829 H 0.56034 0.25272 0.33991 0.0
H830 H 0.5221 0.24221 0.14292 0.0
H831 H 0.55468 0.22855 0.10588 0.0
C832 C 0.47424 0.25805 0.27519 0.0
C833 C 0.48065 0.27257 0.30392 0.0
C834 C 0.4931 0.25021 0.2563 0.0
C835 C 0.51873 0.25666 0.26673 0.0
C836 C 0.52511 0.27102 0.29761 0.0
C837 C 0.5062 0.27894 0.31581 0.0
C838 C 0.57759 0.23963 0.26769 0.0
C839 C 0.5764 0.23267 0.20164 0.0
C840 C 0.55901 0.24754 0.28864 0.0
C841 C 0.53869 0.24849 0.24434 0.0
C842 C 0.53744 0.24152 0.17839 0.0
C843 C 0.55617 0.23377 0.15709 0.0
H844 H 0.39318 0.97313 0.04966 0.0
H845 H 0.41333 0.99153 0.8477 0.0
H846 H 0.43236 0.98735 0.09782 0.0
H847 H 0.45226 0.00631 0.89671 0.0
H848 H 0.53239 0.01514 0.98628 0.0
H849 H 0.4919 0.00266 0.93844 0.0
H850 H 0.4553 0.0113 0.13028 0.0
H851 H 0.49615 0.0233 0.17925 0.0
C852 C 0.4058 0.98041 0.01566 0.0
C853 C 0.40018 0.98112 0.94464 0.0
C854 C 0.42827 0.98866 0.0435 0.0
C855 C 0.44559 0.99797 0.00124 0.0
C856 C 0.43959 0.99903 0.93056 0.0
C857 C 0.4172 0.99064 0.90249 0.0
C858 C 0.51571 0.0144 0.01833 0.0
C859 C 0.51752 0.02016 0.08674 0.0
C860 C 0.4924 0.00734 0.9906 0.0
C861 C 0.47023 0.006 0.03027 0.0
C862 C 0.47201 0.01193 0.09852 0.0
C863 C 0.49542 0.01886 0.12658 0.0
H864 H 0.04526 0.53602 0.55676 0.0
H865 H 0.12269 0.54647 0.48597 0.0
H866 H 0.06029 0.53788 0.67664 0.0
H867 H 0.13747 0.54909 0.60612 0.0
H868 H 0.1396 0.56898 0.84351 0.0
H869 H 0.13088 0.56673 0.71848 0.0
H870 H 0.08852 0.5219 0.74538 0.0
H871 H 0.09742 0.52392 0.8694 0.0
C872 C 0.06544 0.53894 0.56663 0.0
C873 C 0.08268 0.54149 0.51154 0.0
C874 C 0.07401 0.53996 0.63518 0.0
C875 C 0.1 0.54363 0.65019 0.0
C876 C 0.11732 0.54642 0.59558 0.0
C877 C 0.10876 0.54514 0.52674 0.0
C878 C 0.12893 0.55852 0.82251 0.0
C879 C 0.11892 0.54671 0.86654 0.0
C880 C 0.12397 0.55726 0.7511 0.0
C881 C 0.10869 0.54425 0.72303 0.0
C882 C 0.10005 0.53213 0.76623 0.0
C883 C 0.10528 0.53329 0.83718 0.0
H884 H 0.15744 0.69918 0.80773 0.0
H885 H 0.09398 0.71769 0.73733 0.0
H886 H 0.17081 0.69687 0.68762 0.0
H887 H 0.10788 0.71582 0.61767 0.0
H888 H 0.15573 0.72782 0.42894 0.0
H889 H 0.14712 0.72905 0.55255 0.0
H890 H 0.15397 0.68287 0.57186 0.0
H891 H 0.16251 0.68151 0.44745 0.0
C892 C 0.14589 0.70232 0.76668 0.0
C893 C 0.12421 0.70825 0.78187 0.0
C894 C 0.15379 0.70118 0.69801 0.0
C895 C 0.14049 0.70628 0.64367 0.0
C896 C 0.11866 0.712 0.6588 0.0
C897 C 0.11062 0.71297 0.72715 0.0
C898 C 0.15587 0.71798 0.45951 0.0
C899 C 0.15941 0.70449 0.42808 0.0
C900 C 0.15076 0.71868 0.53023 0.0
C901 C 0.14935 0.70597 0.57119 0.0
C902 C 0.15484 0.6928 0.54117 0.0
C903 C 0.15975 0.69205 0.47003 0.0
H904 H 0.84665 0.4328 0.51368 0.0
H905 H 0.82343 0.47544 0.50516 0.0
H906 H 0.83266 0.42727 0.3938 0.0
H907 H 0.8077 0.46965 0.38728 0.0
H908 H 0.81944 0.46506 0.1548 0.0
H909 H 0.82452 0.46904 0.27844 0.0
H910 H 0.80093 0.42144 0.30954 0.0
H911 H 0.79731 0.41739 0.18399 0.0
C912 C 0.83803 0.44083 0.48627 0.0
C913 C 0.83639 0.45461 0.51764 0.0
C914 C 0.82977 0.43764 0.41781 0.0
C915 C 0.81922 0.44807 0.38006 0.0
C916 C 0.81638 0.46152 0.4136 0.0
C917 C 0.82525 0.46484 0.48124 0.0
C918 C 0.81496 0.45543 0.18785 0.0
C919 C 0.80825 0.44088 0.15938 0.0
C920 C 0.8177 0.45772 0.25933 0.0
C921 C 0.81331 0.44557 0.30464 0.0
C922 C 0.80506 0.43106 0.27632 0.0
C923 C 0.80272 0.42873 0.20437 0.0
H924 H 0.9402 0.33413 0.17986 0.0
H925 H 0.92546 0.28631 0.13971 0.0
H926 H 0.93314 0.32959 0.3039 0.0
H927 H 0.91801 0.28196 0.26276 0.0
H928 H 0.86591 0.28468 0.45511 0.0
H929 H 0.87977 0.28966 0.33577 0.0
H930 H 0.95138 0.31475 0.41041 0.0
H931 H 0.93824 0.30908 0.52966 0.0
C932 C 0.93595 0.32269 0.1975 0.0
C933 C 0.93305 0.31059 0.14983 0.0
C934 C 0.93192 0.32012 0.26832 0.0
C935 C 0.92465 0.30545 0.2921 0.0
C936 C 0.92327 0.29337 0.2452 0.0
C937 C 0.92766 0.29591 0.17484 0.0
C938 C 0.88459 0.29128 0.44615 0.0
C939 C 0.9006 0.2969 0.50203 0.0
C940 C 0.89251 0.29409 0.37801 0.0
C941 C 0.91654 0.30265 0.36444 0.0
C942 C 0.93262 0.30832 0.41995 0.0
C943 C 0.92487 0.30526 0.48821 0.0
H944 H 0.12415 0.03035 0.34297 0.0
H945 H 0.09468 0.07109 0.32797 0.0
H946 H 0.12171 0.02725 0.21677 0.0
H947 H 0.09161 0.06779 0.20296 0.0
H948 H 0.09766 0.06246 0.97441 0.0
H949 H 0.11245 0.06708 0.09363 0.0
H950 H 0.08586 0.02033 0.13802 0.0
H951 H 0.0724 0.01557 0.01763 0.0
C952 C 0.11757 0.03877 0.31272 0.0
C953 C 0.10925 0.05084 0.34537 0.0
C954 C 0.11599 0.03694 0.24057 0.0
C955 C 0.10613 0.04716 0.19998 0.0
C956 C 0.09946 0.05976 0.23251 0.0
C957 C 0.10105 0.06159 0.30438 0.0
C958 C 0.09571 0.05308 0.00892 0.0
C959 C 0.08427 0.0386 0.98632 0.0
C960 C 0.10387 0.05577 0.07757 0.0
C961 C 0.10044 0.04406 0.12526 0.0
C962 C 0.08926 0.02954 0.10232 0.0
C963 C 0.08122 0.02685 0.03361 0.0
H964 H 0.13528 0.18576 0.30432 0.0
H965 H 0.12084 0.22969 0.25994 0.0
H966 H 0.15113 0.18375 0.18754 0.0
H967 H 0.13438 0.22711 0.14156 0.0
H968 H 0.17337 0.22496 0.94192 0.0
H969 H 0.16824 0.2271 0.06712 0.0
H970 H 0.13696 0.17966 0.07388 0.0
H971 H 0.14355 0.17746 0.95002 0.0
C972 C 0.13582 0.19511 0.27036 0.0
C973 C 0.1274 0.20808 0.29267 0.0
C974 C 0.14448 0.19383 0.20251 0.0
C975 C 0.14432 0.20532 0.15472 0.0
C976 C 0.13554 0.21818 0.17699 0.0
C977 C 0.12732 0.21956 0.24494 0.0
C978 C 0.16595 0.21495 0.97064 0.0
C979 C 0.15867 0.20108 0.93611 0.0
C980 C 0.16273 0.21618 0.04232 0.0
C981 C 0.15163 0.20361 0.08082 0.0
C982 C 0.14575 0.18958 0.04655 0.0
C983 C 0.14945 0.18832 0.97516 0.0
H984 H 0.84299 0.93175 0.01918 0.0
H985 H 0.81202 0.97171 0.99657 0.0
H986 H 0.83103 0.92435 0.8988 0.0
H987 H 0.79965 0.96416 0.87676 0.0
H988 H 0.76678 0.93847 0.6749 0.0
H989 H 0.77057 0.94052 0.80242 0.0
H990 H 0.85049 0.94047 0.78716 0.0
H991 H 0.84689 0.93896 0.66087 0.0
C992 C 0.83309 0.93873 0.98892 0.0
C993 C 0.82841 0.95228 0.01665 0.0
C994 C 0.82629 0.93451 0.92036 0.0
C995 C 0.81426 0.94365 0.87919 0.0
C996 C 0.80858 0.95686 0.90798 0.0
C997 C 0.81586 0.96123 0.97601 0.0
C998 C 0.78498 0.93866 0.69926 0.0
C999 C 0.80658 0.93865 0.65872 0.0
C1000 C 0.78716 0.93985 0.77172 0.0
C1001 C 0.8108 0.94056 0.80405 0.0
C1002 C 0.83205 0.93977 0.76334 0.0
C1003 C 0.83001 0.93901 0.6913 0.0
H1004 H 0.93962 0.8068 0.02384 0.0
H1005 H 0.86409 0.7875 0.95128 0.0
H1006 H 0.95275 0.81235 0.90476 0.0
H1007 H 0.87792 0.79225 0.83195 0.0
H1008 H 0.9224 0.786 0.63437 0.0
H1009 H 0.91493 0.78183 0.75762 0.0
H1010 H 0.93545 0.82934 0.79924 0.0
H1011 H 0.94247 0.83372 0.67495 0.0
C1012 C 0.92559 0.80407 0.98321 0.0
C1013 C 0.90047 0.79714 0.99776 0.0
C1014 C 0.93332 0.80706 0.91482 0.0
C1015 C 0.91631 0.80273 0.85975 0.0
C1016 C 0.89138 0.79564 0.87387 0.0
C1017 C 0.88351 0.79293 0.94213 0.0
C1018 C 0.9258 0.79559 0.66963 0.0
C1019 C 0.93273 0.81023 0.6447 0.0
C1020 C 0.92141 0.79317 0.7401 0.0
C1021 C 0.92435 0.80529 0.78721 0.0
C1022 C 0.93305 0.81985 0.76347 0.0
C1023 C 0.93704 0.82233 0.69253 0.0
H1024 H 0.54509 0.53479 0.04737 0.0
H1025 H 0.62223 0.54747 0.97645 0.0
H1026 H 0.56019 0.53662 0.1672 0.0
H1027 H 0.63707 0.54999 0.09663 0.0
H1028 H 0.6388 0.56873 0.33496 0.0
H1029 H 0.62999 0.56668 0.21 0.0
H1030 H 0.58924 0.52141 0.2349 0.0
H1031 H 0.5982 0.52324 0.35888 0.0
C1032 C 0.56521 0.5382 0.05728 0.0
C1033 C 0.58233 0.54136 0.00224 0.0
C1034 C 0.57383 0.53919 0.12577 0.0
C1035 C 0.59976 0.54344 0.14076 0.0
C1036 C 0.61695 0.54686 0.08616 0.0
C1037 C 0.60835 0.54563 0.01737 0.0
C1038 C 0.62848 0.55822 0.31353 0.0
C1039 C 0.61889 0.54623 0.35703 0.0
C1040 C 0.62345 0.55708 0.24214 0.0
C1041 C 0.60857 0.54399 0.21353 0.0
C1042 C 0.60042 0.5317 0.25616 0.0
C1043 C 0.60569 0.53275 0.32709 0.0
H1044 H 0.65274 0.7267 0.92403 0.0
H1045 H 0.66643 0.68179 0.9457 0.0
H1046 H 0.64754 0.72873 0.04799 0.0
H1047 H 0.66246 0.68409 0.07147 0.0
H1048 H 0.6156 0.68632 0.27259 0.0
H1049 H 0.62981 0.68402 0.1531 0.0
H1050 H 0.66499 0.73098 0.1583 0.0
H1051 H 0.64937 0.7333 0.27563 0.0
C1052 C 0.65532 0.71737 0.9555 0.0
C1053 C 0.65971 0.70401 0.92477 0.0
C1054 C 0.65249 0.71857 0.0271 0.0
C1055 C 0.65439 0.70653 0.07021 0.0
C1056 C 0.66034 0.69347 0.03983 0.0
C1057 C 0.66287 0.6922 0.96778 0.0
C1058 C 0.62652 0.69606 0.24787 0.0
C1059 C 0.63109 0.71002 0.28228 0.0
C1060 C 0.63487 0.69476 0.17971 0.0
C1061 C 0.64834 0.70736 0.14541 0.0
C1062 C 0.65408 0.72112 0.18204 0.0
C1063 C 0.64524 0.72247 0.24934 0.0
H1064 H 0.37303 0.46519 0.97384 0.0
H1065 H 0.30041 0.44099 0.04269 0.0
H1066 H 0.3595 0.45994 0.85356 0.0
H1067 H 0.28768 0.43505 0.92237 0.0
H1068 H 0.30073 0.41572 0.68753 0.0
H1069 H 0.30717 0.4201 0.8128 0.0
H1070 H 0.3205 0.46777 0.78203 0.0
H1071 H 0.31363 0.46357 0.65784 0.0
C1072 C 0.35436 0.45858 0.96354 0.0
C1073 C 0.33815 0.45316 0.01825 0.0
C1074 C 0.34665 0.4556 0.89478 0.0
C1075 C 0.32265 0.44704 0.87927 0.0
C1076 C 0.30642 0.44149 0.93346 0.0
C1077 C 0.31395 0.44472 0.00243 0.0
C1078 C 0.30443 0.42712 0.70769 0.0
C1079 C 0.30702 0.43929 0.66263 0.0
C1080 C 0.3081 0.4296 0.7792 0.0
C1081 C 0.3147 0.44426 0.80624 0.0
C1082 C 0.31573 0.45638 0.76192 0.0
C1083 C 0.3117 0.45393 0.69089 0.0
H1084 H 0.36378 0.28372 0.95673 0.0
H1085 H 0.43611 0.3081 0.03136 0.0
H1086 H 0.37778 0.28854 0.83736 0.0
H1087 H 0.4494 0.3136 0.91211 0.0
H1088 H 0.43938 0.33292 0.6818 0.0
H1089 H 0.43187 0.32838 0.80565 0.0
H1090 H 0.41558 0.28077 0.76402 0.0
H1091 H 0.42348 0.28513 0.64109 0.0
C1092 C 0.38249 0.29028 0.94777 0.0
C1093 C 0.39846 0.29596 0.00369 0.0
C1094 C 0.3905 0.293 0.8796 0.0
C1095 C 0.41458 0.3015 0.86602 0.0
C1096 C 0.4306 0.30721 0.92159 0.0
C1097 C 0.42277 0.30425 0.98987 0.0
C1098 C 0.43477 0.32149 0.6993 0.0
C1099 C 0.43174 0.30941 0.65151 0.0
C1100 C 0.43048 0.31891 0.77002 0.0
C1101 C 0.42277 0.30425 0.79365 0.0
C1102 C 0.42118 0.29218 0.74662 0.0
C1103 C 0.42585 0.29471 0.67634 0.0
H1104 H 0.54442 0.03648 0.56186 0.0
H1105 H 0.62189 0.046 0.49098 0.0
H1106 H 0.55946 0.03811 0.68171 0.0
H1107 H 0.63669 0.04842 0.61103 0.0
H1108 H 0.64013 0.06846 0.84775 0.0
H1109 H 0.63096 0.06623 0.72295 0.0
H1110 H 0.58693 0.02189 0.75136 0.0
H1111 H 0.5963 0.02388 0.87521 0.0
C1112 C 0.56462 0.03915 0.57165 0.0
C1113 C 0.58185 0.04151 0.51644 0.0
C1114 C 0.57319 0.04004 0.64023 0.0
C1115 C 0.5992 0.04341 0.65525 0.0
C1116 C 0.61652 0.04599 0.60055 0.0
C1117 C 0.60795 0.04484 0.53169 0.0
C1118 C 0.62898 0.05811 0.82712 0.0
C1119 C 0.61873 0.04642 0.87156 0.0
C1120 C 0.62376 0.05686 0.75582 0.0
C1121 C 0.60793 0.04399 0.72817 0.0
C1122 C 0.59891 0.03199 0.77181 0.0
C1123 C 0.60443 0.03313 0.84266 0.0
H1124 H 0.66162 0.20172 0.80966 0.0
H1125 H 0.59223 0.2137 0.738 0.0
H1126 H 0.67524 0.19982 0.68963 0.0
H1127 H 0.60648 0.21244 0.61846 0.0
H1128 H 0.65313 0.22742 0.42924 0.0
H1129 H 0.64483 0.22848 0.55312 0.0
H1130 H 0.6588 0.1837 0.57411 0.0
H1131 H 0.66687 0.18245 0.44928 0.0
C1132 C 0.64891 0.20352 0.7686 0.0
C1133 C 0.62547 0.20748 0.78351 0.0
C1134 C 0.65695 0.20264 0.69988 0.0
C1135 C 0.64198 0.20608 0.64517 0.0
C1136 C 0.61849 0.20989 0.65994 0.0
C1137 C 0.61031 0.21055 0.7283 0.0
C1138 C 0.65492 0.21787 0.46018 0.0
C1139 C 0.66029 0.20475 0.42912 0.0
C1140 C 0.65002 0.21847 0.53106 0.0
C1141 C 0.65074 0.20607 0.57257 0.0
C1142 C 0.65804 0.19338 0.54291 0.0
C1143 C 0.66266 0.19269 0.47157 0.0
H1144 H 0.35115 0.93371 0.51084 0.0
H1145 H 0.32463 0.97537 0.50333 0.0
H1146 H 0.33732 0.92797 0.39097 0.0
H1147 H 0.30912 0.96933 0.38544 0.0
H1148 H 0.31953 0.96485 0.15229 0.0
H1149 H 0.32532 0.96905 0.27572 0.0
H1150 H 0.30531 0.92133 0.30813 0.0
H1151 H 0.301 0.9171 0.18284 0.0
C1152 C 0.3419 0.94148 0.48362 0.0
C1153 C 0.33922 0.95504 0.51537 0.0
C1154 C 0.33372 0.93816 0.41516 0.0
C1155 C 0.32222 0.94824 0.37775 0.0
C1156 C 0.31851 0.96148 0.41149 0.0
C1157 C 0.32726 0.96494 0.47915 0.0
C1158 C 0.31598 0.95523 0.18563 0.0
C1159 C 0.31006 0.94061 0.15756 0.0
C1160 C 0.31915 0.95765 0.25698 0.0
C1161 C 0.31599 0.94554 0.30255 0.0
C1162 C 0.30852 0.93093 0.2747 0.0
C1163 C 0.30577 0.92849 0.20289 0.0
H1164 H 0.42277 0.78582 0.13473 0.0
H1165 H 0.44339 0.83356 0.1742 0.0
H1166 H 0.41529 0.78181 0.25806 0.0
H1167 H 0.43635 0.82934 0.2986 0.0
H1168 H 0.44007 0.80688 0.52382 0.0
H1169 H 0.45333 0.81233 0.40472 0.0
H1170 H 0.37841 0.79249 0.33172 0.0
H1171 H 0.36446 0.78784 0.45101 0.0
C1172 C 0.42628 0.79544 0.16976 0.0
C1173 C 0.43336 0.81005 0.14449 0.0
C1174 C 0.42189 0.79311 0.24028 0.0
C1175 C 0.42497 0.80529 0.2871 0.0
C1176 C 0.43383 0.8198 0.26304 0.0
C1177 C 0.43784 0.82219 0.19205 0.0
C1178 C 0.42606 0.8042 0.48311 0.0
C1179 C 0.40088 0.79736 0.49757 0.0
C1180 C 0.43385 0.80713 0.41473 0.0
C1181 C 0.41685 0.80284 0.35963 0.0
C1182 C 0.39185 0.79585 0.37368 0.0
C1183 C 0.38392 0.7932 0.44191 0.0
H1184 H 0.11251 0.58831 0.04899 0.0
H1185 H 0.08231 0.58759 0.25694 0.0
H1186 H 0.11749 0.61541 0.04892 0.0
H1187 H 0.08686 0.61477 0.25612 0.0
H1188 H 0.09924 0.66196 0.04339 0.0
H1189 H 0.09199 0.63473 0.04624 0.0
H1190 H 0.12002 0.6372 0.25719 0.0
H1191 H 0.12685 0.66437 0.25496 0.0
C1192 C 0.10685 0.59391 0.09469 0.0
C1193 C 0.097 0.58575 0.15302 0.0
C1194 C 0.10953 0.60946 0.09437 0.0
C1195 C 0.10243 0.61724 0.15232 0.0
C1196 C 0.0927 0.60911 0.21086 0.0
C1197 C 0.09001 0.59352 0.21121 0.0
C1198 C 0.10378 0.65672 0.09047 0.0
C1199 C 0.1138 0.66539 0.14874 0.0
C1200 C 0.09973 0.6411 0.09199 0.0
C1201 C 0.10558 0.6338 0.15181 0.0
C1202 C 0.11509 0.64246 0.21054 0.0
C1203 C 0.11914 0.65807 0.20904 0.0
H1204 H 0.84046 0.40518 0.96752 0.0
H1205 H 0.86605 0.41349 0.75675 0.0
H1206 H 0.85453 0.38134 0.96375 0.0
H1207 H 0.88058 0.38978 0.7537 0.0
H1208 H 0.90718 0.34793 0.96142 0.0
H1209 H 0.8941 0.3721 0.96126 0.0
H1210 H 0.86472 0.36293 0.75288 0.0
H1211 H 0.87819 0.33893 0.75233 0.0
C1212 C 0.849 0.40192 0.92029 0.0
C1213 C 0.85215 0.41129 0.86248 0.0
C1214 C 0.85729 0.38831 0.9184 0.0
C1215 C 0.8689 0.38372 0.85867 0.0
C1216 C 0.87156 0.39293 0.80035 0.0
C1217 C 0.86328 0.40655 0.80221 0.0
C1218 C 0.89817 0.35112 0.91528 0.0
C1219 C 0.89369 0.34145 0.85698 0.0
C1220 C 0.89047 0.36492 0.91543 0.0
C1221 C 0.87814 0.36937 0.85731 0.0
C1222 C 0.87432 0.35989 0.79831 0.0
C1223 C 0.88201 0.3461 0.79813 0.0
H1224 H 0.11898 0.0888 0.54819 0.0
H1225 H 0.08228 0.08559 0.74822 0.0
H1226 H 0.12279 0.11579 0.55256 0.0
H1227 H 0.08563 0.11273 0.75173 0.0
H1228 H 0.12258 0.16294 0.76332 0.0
H1229 H 0.11688 0.13579 0.76237 0.0
H1230 H 0.09644 0.13439 0.54508 0.0
H1231 H 0.10283 0.16163 0.54539 0.0
C1232 C 0.11168 0.09384 0.59317 0.0
C1233 C 0.10027 0.08499 0.64785 0.0
C1234 C 0.11367 0.10933 0.59532 0.0
C1235 C 0.10427 0.11641 0.6521 0.0
C1236 C 0.09319 0.10762 0.70739 0.0
C1237 C 0.09123 0.09207 0.70532 0.0
C1238 C 0.1168 0.15687 0.7153 0.0
C1239 C 0.11339 0.16451 0.65423 0.0
C1240 C 0.11335 0.14127 0.71495 0.0
C1241 C 0.10638 0.13292 0.65358 0.0
C1242 C 0.10225 0.14052 0.59297 0.0
C1243 C 0.10573 0.15613 0.59327 0.0
H1244 H 0.84332 0.90581 0.46535 0.0
H1245 H 0.86453 0.91317 0.25063 0.0
H1246 H 0.85705 0.88191 0.4605 0.0
H1247 H 0.8788 0.88935 0.2464 0.0
H1248 H 0.87603 0.83834 0.24877 0.0
H1249 H 0.86306 0.8625 0.24917 0.0
H1250 H 0.89617 0.87253 0.45312 0.0
H1251 H 0.90863 0.84822 0.45358 0.0
C1252 C 0.85088 0.90234 0.41704 0.0
C1253 C 0.85287 0.91145 0.35842 0.0
C1254 C 0.85897 0.88868 0.41448 0.0
C1255 C 0.86929 0.88379 0.3533 0.0
C1256 C 0.8708 0.89274 0.29421 0.0
C1257 C 0.86267 0.90642 0.29672 0.0
C1258 C 0.88072 0.84573 0.29355 0.0
C1259 C 0.89322 0.84128 0.35139 0.0
C1260 C 0.87336 0.85962 0.29361 0.0
C1261 C 0.87835 0.86939 0.35145 0.0
C1262 C 0.89158 0.86514 0.40831 0.0
C1263 C 0.89892 0.85124 0.40832 0.0
H1264 H 0.6007 0.66205 0.53278 0.0
H1265 H 0.62411 0.66346 0.74799 0.0
H1266 H 0.59334 0.63476 0.53325 0.0
H1267 H 0.61741 0.63632 0.74774 0.0
H1268 H 0.61258 0.58783 0.53847 0.0
H1269 H 0.61757 0.61497 0.53819 0.0
H1270 H 0.58462 0.61421 0.74266 0.0
H1271 H 0.5802 0.5871 0.74382 0.0
C1272 C 0.60423 0.65657 0.58018 0.0
C1273 C 0.61301 0.66497 0.64031 0.0
C1274 C 0.60018 0.64092 0.5803 0.0
C1275 C 0.60485 0.63335 0.6405 0.0
C1276 C 0.6133 0.64177 0.70077 0.0
C1277 C 0.61729 0.65737 0.70072 0.0
C1278 C 0.60642 0.59343 0.58346 0.0
C1279 C 0.59606 0.58527 0.64127 0.0
C1280 C 0.6091 0.609 0.58303 0.0
C1281 C 0.60144 0.61677 0.64031 0.0
C1282 C 0.591 0.60859 0.69803 0.0
C1283 C 0.58838 0.59303 0.69857 0.0
H1284 H 0.36627 0.41307 0.26244 0.0
H1285 H 0.33988 0.40407 0.47204 0.0
H1286 H 0.38116 0.38946 0.25857 0.0
H1287 H 0.35437 0.38035 0.46749 0.0
H1288 H 0.37804 0.33843 0.25475 0.0
H1289 H 0.3649 0.36253 0.2562 0.0
H1290 H 0.39425 0.37123 0.46483 0.0
H1291 H 0.40706 0.34699 0.46405 0.0
C1292 C 0.36345 0.40601 0.3075 0.0
C1293 C 0.35192 0.4105 0.36763 0.0
C1294 C 0.37193 0.39246 0.30517 0.0
C1295 C 0.36912 0.38308 0.36289 0.0
C1296 C 0.35723 0.38745 0.42259 0.0
C1297 C 0.3487 0.40099 0.42492 0.0
C1298 C 0.38195 0.34552 0.30077 0.0
C1299 C 0.39353 0.34072 0.35943 0.0
C1300 C 0.37446 0.35937 0.30146 0.0
C1301 C 0.37834 0.36874 0.36082 0.0
C1302 C 0.39059 0.36414 0.41873 0.0
C1303 C 0.39813 0.3503 0.41803 0.0
H1304 H 0.62488 0.16406 0.25885 0.0
H1305 H 0.59953 0.16191 0.04517 0.0
H1306 H 0.61791 0.13689 0.26065 0.0
H1307 H 0.59201 0.13465 0.04767 0.0
H1308 H 0.58059 0.08741 0.25905 0.0
H1309 H 0.58491 0.11456 0.25763 0.0
H1310 H 0.61706 0.11519 0.05222 0.0
H1311 H 0.61226 0.0881 0.05282 0.0
C1312 C 0.61759 0.15781 0.2124 0.0
C1313 C 0.61289 0.1652 0.15171 0.0
C1314 C 0.61345 0.1422 0.21364 0.0
C1315 C 0.60448 0.1336 0.15427 0.0
C1316 C 0.59929 0.14097 0.09398 0.0
C1317 C 0.60344 0.1566 0.0927 0.0
C1318 C 0.58856 0.09333 0.21354 0.0
C1319 C 0.59607 0.08555 0.15605 0.0
C1320 C 0.59112 0.1089 0.21286 0.0
C1321 C 0.60126 0.11703 0.15472 0.0
C1322 C 0.6088 0.10925 0.09736 0.0
C1323 C 0.60623 0.0937 0.09798 0.0
H1324 H 0.37875 0.83897 0.74712 0.0
H1325 H 0.40611 0.84747 0.958 0.0
H1326 H 0.36544 0.86304 0.74764 0.0
H1327 H 0.39322 0.87168 0.95781 0.0
H1328 H 0.33968 0.90477 0.9626 0.0
H1329 H 0.35355 0.88087 0.95838 0.0
H1330 H 0.38153 0.88995 0.75053 0.0
H1331 H 0.36723 0.91375 0.75401 0.0
C1332 C 0.38221 0.84603 0.79334 0.0
C1333 C 0.39337 0.84123 0.8527 0.0
C1334 C 0.37464 0.85987 0.79349 0.0
C1335 C 0.37806 0.86921 0.85297 0.0
C1336 C 0.3899 0.86461 0.9116 0.0
C1337 C 0.39749 0.85078 0.91146 0.0
C1338 C 0.34861 0.90164 0.91574 0.0
C1339 C 0.35238 0.91122 0.85871 0.0
C1340 C 0.35678 0.88799 0.9136 0.0
C1341 C 0.36888 0.88358 0.85439 0.0
C1342 C 0.37214 0.89298 0.79676 0.0
C1343 C 0.36399 0.90665 0.79888 0.0
loop_
_geom_bond_atom_site_label_1
_geom_bond_atom_site_label_2
_geom_bond_distance
_geom_bond_site_symmetry_2
_ccdc_geom_bond_type
Co0 O3 1.970 . S
Co0 N17 1.989 . S
Co0 O25 1.967 . S
Co0 O32 1.920 1_554 S
Co1 O4 1.966 . S
Co1 N10 2.022 . S
Co1 N18 1.993 . S
Co1 O26 1.941 . S
C2 O3 1.258 . S
C2 O4 1.263 . S
O3 Co0 1.970 . S
O3 C2 1.258 . S
O4 Co1 1.966 . S
O4 C2 1.263 . S
C5 O6 1.235 . S
C5 O32 1.289 . S
O6 C5 1.235 . S
C7 C9 1.400 . S
C7 N10 1.351 . S
C7 C12 1.501 . S
C8 C9 1.387 . S
C8 N11 1.341 . S
C9 C7 1.400 . S
C9 C8 1.387 . S
N10 Co1 2.022 . S
N10 C7 1.351 . S
N10 N11 1.365 . S
N11 C8 1.341 . S
N11 N10 1.365 . S
N11 H31 0.862 . S
C12 C7 1.501 . S
C12 H13 0.961 . S
C12 H14 0.961 . S
C12 H15 0.960 . S
H13 C12 0.961 . S
H14 C12 0.961 . S
H15 C12 0.960 . S
C16 N17 1.342 . S
C16 C20 1.401 . S
C16 C21 1.499 . S
N17 Co0 1.989 . S
N17 C16 1.342 . S
N17 N18 1.388 . S
N18 Co1 1.993 . S
N18 N17 1.388 . S
N18 C19 1.346 . S
C19 N18 1.346 . S
C19 C20 1.396 . S
C19 C29 1.510 . S
C20 C16 1.401 . S
C20 C19 1.396 . S
C21 C16 1.499 . S
C21 H22 0.959 . S
C21 H23 0.960 . S
C21 H24 0.961 . S
H22 C21 0.959 . S
H23 C21 0.960 . S
H24 C21 0.961 . S
O25 Co0 1.967 . S
O25 C33 1.258 . S
O26 Co1 1.941 . S
O26 C33 1.266 . S
H27 C29 0.959 . S
H28 C29 0.961 . S
C29 C19 1.510 . S
C29 H27 0.959 . S
C29 H28 0.961 . S
C29 H30 0.960 . S
H30 C29 0.960 . S
H31 N11 0.862 . S
O32 Co0 1.920 1_556 S
O32 C5 1.289 . S
C33 O25 1.258 . S
C33 O26 1.266 . S
Co34 O37 1.970 . S
Co34 N51 1.989 . S
Co34 O59 1.967 . S
Co34 O66 1.920 . S
Co35 O38 1.966 . S
Co35 N44 2.022 1_554 S
Co35 N52 1.993 . S
Co35 O60 1.941 . S
C36 O37 1.258 . S
C36 O38 1.263 . S
O37 Co34 1.970 . S
O37 C36 1.258 . S
O38 Co35 1.966 . S
O38 C36 1.263 . S
C39 O40 1.235 . S
C39 O66 1.289 . S
O40 C39 1.235 . S
C41 C43 1.400 . S
C41 N44 1.351 . S
C41 C46 1.501 . S
C42 C43 1.387 . S
C42 N45 1.341 . S
C43 C41 1.400 . S
C43 C42 1.387 . S
N44 Co35 2.022 1_556 S
N44 C41 1.351 . S
N44 N45 1.365 . S
N45 C42 1.341 . S
N45 N44 1.365 . S
N45 H65 0.862 . S
C46 C41 1.501 . S
C46 H47 0.961 . S
C46 H48 0.961 . S
C46 H49 0.960 . S
H47 C46 0.961 . S
H48 C46 0.961 . S
H49 C46 0.960 . S
C50 N51 1.342 . S
C50 C54 1.401 . S
C50 C55 1.499 . S
N51 Co34 1.989 . S
N51 C50 1.342 . S
N51 N52 1.388 . S
N52 Co35 1.993 . S
N52 N51 1.388 . S
N52 C53 1.346 . S
C53 N52 1.346 . S
C53 C54 1.396 . S
C53 C63 1.510 1_554 S
C54 C50 1.401 . S
C54 C53 1.396 . S
C55 C50 1.499 . S
C55 H56 0.959 . S
C55 H57 0.960 . S
C55 H58 0.961 . S
H56 C55 0.959 . S
H57 C55 0.960 . S
H58 C55 0.961 . S
O59 Co34 1.967 . S
O59 C67 1.258 . S
O60 Co35 1.941 . S
O60 C67 1.266 . S
H61 C63 0.959 . S
H62 C63 0.961 . S
C63 C53 1.510 1_556 S
C63 H61 0.959 . S
C63 H62 0.961 . S
C63 H64 0.960 . S
H64 C63 0.960 . S
H65 N45 0.862 . S
O66 Co34 1.920 . S
O66 C39 1.289 . S
C67 O59 1.258 . S
C67 O60 1.266 . S
Co68 O71 1.970 . S
Co68 N85 1.989 . S
Co68 O93 1.967 . S
Co68 O100 1.920 1_556 S
Co69 O72 1.966 . S
Co69 N78 2.022 . S
Co69 N86 1.993 . S
Co69 O94 1.941 . S
C70 O71 1.258 . S
C70 O72 1.263 . S
O71 Co68 1.970 . S
O71 C70 1.258 . S
O72 Co69 1.966 . S
O72 C70 1.263 . S
C73 O74 1.235 . S
C73 O100 1.289 . S
O74 C73 1.235 . S
C75 C77 1.400 . S
C75 N78 1.351 . S
C75 C80 1.501 . S
C76 C77 1.387 . S
C76 N79 1.341 . S
C77 C75 1.400 . S
C77 C76 1.387 . S
N78 Co69 2.022 . S
N78 C75 1.351 . S
N78 N79 1.365 . S
N79 C76 1.341 . S
N79 N78 1.365 . S
N79 H99 0.862 . S
C80 C75 1.501 . S
C80 H81 0.961 . S
C80 H82 0.961 . S
C80 H83 0.960 . S
H81 C80 0.961 . S
H82 C80 0.961 . S
H83 C80 0.960 . S
C84 N85 1.342 . S
C84 C88 1.401 . S
C84 C89 1.499 . S
N85 Co68 1.989 . S
N85 C84 1.342 . S
N85 N86 1.388 . S
N86 Co69 1.993 . S
N86 N85 1.388 . S
N86 C87 1.346 . S
C87 N86 1.346 . S
C87 C88 1.396 . S
C87 C97 1.510 . S
C88 C84 1.401 . S
C88 C87 1.396 . S
C89 C84 1.499 . S
C89 H90 0.959 1_556 S
C89 H91 0.960 . S
C89 H92 0.961 1_556 S
H90 C89 0.959 1_554 S
H91 C89 0.960 . S
H92 C89 0.961 1_554 S
O93 Co68 1.967 . S
O93 C101 1.258 . S
O94 Co69 1.941 . S
O94 C101 1.266 . S
H95 C97 0.959 . S
H96 C97 0.961 . S
C97 C87 1.510 . S
C97 H95 0.959 . S
C97 H96 0.961 . S
C97 H98 0.960 . S
H98 C97 0.960 . S
H99 N79 0.862 . S
O100 Co68 1.920 1_554 S
O100 C73 1.289 . S
C101 O93 1.258 . S
C101 O94 1.266 . S
Co102 O105 1.970 . S
Co102 N119 1.989 . S
Co102 O127 1.967 . S
Co102 O134 1.920 1_556 S
Co103 O106 1.966 . S
Co103 N112 2.022 . S
Co103 N120 1.993 . S
Co103 O128 1.941 . S
C104 O105 1.258 . S
C104 O106 1.263 . S
O105 Co102 1.970 . S
O105 C104 1.258 . S
O106 Co103 1.966 . S
O106 C104 1.263 . S
C107 O108 1.235 . S
C107 O134 1.289 . S
O108 C107 1.235 . S
C109 C111 1.400 . S
C109 N112 1.351 . S
C109 C114 1.501 . S
C110 C111 1.387 . S
C110 N113 1.341 . S
C111 C109 1.400 . S
C111 C110 1.387 . S
N112 Co103 2.022 . S
N112 C109 1.351 . S
N112 N113 1.365 . S
N113 C110 1.341 . S
N113 N112 1.365 . S
N113 H133 0.862 . S
C114 C109 1.501 . S
C114 H115 0.961 . S
C114 H116 0.961 . S
C114 H117 0.960 . S
H115 C114 0.961 . S
H116 C114 0.961 . S
H117 C114 0.960 . S
C118 N119 1.342 . S
C118 C122 1.401 . S
C118 C123 1.499 . S
N119 Co102 1.989 . S
N119 C118 1.342 . S
N119 N120 1.388 . S
N120 Co103 1.993 . S
N120 N119 1.388 . S
N120 C121 1.346 . S
C121 N120 1.346 . S
C121 C122 1.396 . S
C121 C131 1.510 . S
C122 C118 1.401 . S
C122 C121 1.396 . S
C123 C118 1.499 . S
C123 H124 0.959 1_556 S
C123 H125 0.960 . S
C123 H126 0.961 . S
H124 C123 0.959 1_554 S
H125 C123 0.960 . S
H126 C123 0.961 . S
O127 Co102 1.967 . S
O127 C135 1.258 . S
O128 Co103 1.941 . S
O128 C135 1.266 . S
H129 C131 0.959 . S
H130 C131 0.961 . S
C131 C121 1.510 . S
C131 H129 0.959 . S
C131 H130 0.961 . S
C131 H132 0.960 . S
H132 C131 0.960 . S
H133 N113 0.862 . S
O134 Co102 1.920 1_554 S
O134 C107 1.289 . S
C135 O127 1.258 . S
C135 O128 1.266 . S
Co136 O139 1.970 . S
Co136 N153 1.989 . S
Co136 O161 1.967 . S
Co136 O168 1.920 . S
Co137 O140 1.966 . S
Co137 N146 2.022 . S
Co137 N154 1.993 . S
Co137 O162 1.941 . S
C138 O139 1.258 . S
C138 O140 1.263 . S
O139 Co136 1.970 . S
O139 C138 1.258 . S
O140 Co137 1.966 . S
O140 C138 1.263 . S
C141 O142 1.235 . S
C141 O168 1.289 . S
O142 C141 1.235 . S
C143 C145 1.400 . S
C143 N146 1.351 . S
C143 C148 1.501 . S
C144 C145 1.387 . S
C144 N147 1.341 . S
C145 C143 1.400 . S
C145 C144 1.387 . S
N146 Co137 2.022 . S
N146 C143 1.351 . S
N146 N147 1.365 . S
N147 C144 1.341 . S
N147 N146 1.365 . S
N147 H167 0.862 . S
C148 C143 1.501 . S
C148 H149 0.961 . S
C148 H150 0.961 . S
C148 H151 0.960 . S
H149 C148 0.961 . S
H150 C148 0.961 . S
H151 C148 0.960 . S
C152 N153 1.342 . S
C152 C156 1.401 . S
C152 C157 1.499 . S
N153 Co136 1.989 . S
N153 C152 1.342 . S
N153 N154 1.388 . S
N154 Co137 1.993 . S
N154 N153 1.388 . S
N154 C155 1.346 . S
C155 N154 1.346 . S
C155 C156 1.396 . S
C155 C165 1.510 . S
C156 C152 1.401 . S
C156 C155 1.396 . S
C157 C152 1.499 . S
C157 H158 0.959 . S
C157 H159 0.960 . S
C157 H160 0.961 . S
H158 C157 0.959 . S
H159 C157 0.960 . S
H160 C157 0.961 . S
O161 Co136 1.967 . S
O161 C169 1.258 . S
O162 Co137 1.941 . S
O162 C169 1.266 . S
H163 C165 0.959 . S
H164 C165 0.961 . S
C165 C155 1.510 . S
C165 H163 0.959 . S
C165 H164 0.961 . S
C165 H166 0.960 . S
H166 C165 0.960 . S
H167 N147 0.862 . S
O168 Co136 1.920 . S
O168 C141 1.289 . S
C169 O161 1.258 . S
C169 O162 1.266 . S
Co170 O173 1.970 . S
Co170 N187 1.989 . S
Co170 O195 1.967 . S
Co170 O202 1.920 . S
Co171 O174 1.966 . S
Co171 N180 2.022 . S
Co171 N188 1.993 . S
Co171 O196 1.941 . S
C172 O173 1.258 . S
C172 O174 1.263 . S
O173 Co170 1.970 . S
O173 C172 1.258 . S
O174 Co171 1.966 . S
O174 C172 1.263 . S
C175 O176 1.235 . S
C175 O202 1.289 . S
O176 C175 1.235 . S
C177 C179 1.400 . S
C177 N180 1.351 . S
C177 C182 1.501 . S
C178 C179 1.387 . S
C178 N181 1.341 . S
C179 C177 1.400 . S
C179 C178 1.387 . S
N180 Co171 2.022 . S
N180 C177 1.351 . S
N180 N181 1.365 . S
N181 C178 1.341 . S
N181 N180 1.365 . S
N181 H201 0.862 . S
C182 C177 1.501 . S
C182 H183 0.961 . S
C182 H184 0.961 . S
C182 H185 0.960 . S
H183 C182 0.961 . S
H184 C182 0.961 . S
H185 C182 0.960 . S
C186 N187 1.342 . S
C186 C190 1.401 . S
C186 C191 1.499 . S
N187 Co170 1.989 . S
N187 C186 1.342 . S
N187 N188 1.388 . S
N188 Co171 1.993 . S
N188 N187 1.388 . S
N188 C189 1.346 . S
C189 N188 1.346 . S
C189 C190 1.396 . S
C189 C199 1.510 . S
C190 C186 1.401 . S
C190 C189 1.396 . S
C191 C186 1.499 . S
C191 H192 0.959 . S
C191 H193 0.960 . S
C191 H194 0.961 . S
H192 C191 0.959 . S
H193 C191 0.960 . S
H194 C191 0.961 . S
O195 Co170 1.967 . S
O195 C203 1.258 . S
O196 Co171 1.941 . S
O196 C203 1.266 . S
H197 C199 0.959 . S
H198 C199 0.961 . S
C199 C189 1.510 . S
C199 H197 0.959 . S
C199 H198 0.961 . S
C199 H200 0.960 . S
H200 C199 0.960 . S
H201 N181 0.862 . S
O202 Co170 1.920 . S
O202 C175 1.289 . S
C203 O195 1.258 . S
C203 O196 1.266 . S
Co204 O207 1.970 . S
Co204 N221 1.989 . S
Co204 O229 1.967 . S
Co204 O236 1.920 . S
Co205 O208 1.966 . S
Co205 N214 2.022 . S
Co205 N222 1.993 . S
Co205 O230 1.941 . S
C206 O207 1.258 . S
C206 O208 1.263 . S
O207 Co204 1.970 . S
O207 C206 1.258 . S
O208 Co205 1.966 . S
O208 C206 1.263 . S
C209 O210 1.235 . S
C209 O236 1.289 . S
O210 C209 1.235 . S
C211 C213 1.400 . S
C211 N214 1.351 . S
C211 C216 1.501 . S
C212 C213 1.387 . S
C212 N215 1.341 . S
C213 C211 1.400 . S
C213 C212 1.387 . S
N214 Co205 2.022 . S
N214 C211 1.351 . S
N214 N215 1.365 . S
N215 C212 1.341 . S
N215 N214 1.365 . S
N215 H235 0.862 . S
C216 C211 1.501 . S
C216 H217 0.961 . S
C216 H218 0.961 . S
C216 H219 0.960 . S
H217 C216 0.961 . S
H218 C216 0.961 . S
H219 C216 0.960 . S
C220 N221 1.342 . S
C220 C224 1.401 . S
C220 C225 1.499 . S
N221 Co204 1.989 . S
N221 C220 1.342 . S
N221 N222 1.388 . S
N222 Co205 1.993 . S
N222 N221 1.388 . S
N222 C223 1.346 . S
C223 N222 1.346 . S
C223 C224 1.396 . S
C223 C233 1.510 . S
C224 C220 1.401 . S
C224 C223 1.396 . S
C225 C220 1.499 . S
C225 H226 0.959 . S
C225 H227 0.960 . S
C225 H228 0.961 . S
H226 C225 0.959 . S
H227 C225 0.960 . S
H228 C225 0.961 . S
O229 Co204 1.967 . S
O229 C237 1.258 . S
O230 Co205 1.941 . S
O230 C237 1.266 . S
H231 C233 0.959 . S
H232 C233 0.961 . S
C233 C223 1.510 . S
C233 H231 0.959 . S
C233 H232 0.961 . S
C233 H234 0.960 . S
H234 C233 0.960 . S
H235 N215 0.862 . S
O236 Co204 1.920 . S
O236 C209 1.289 . S
C237 O229 1.258 . S
C237 O230 1.266 . S
Co238 O241 1.970 . S
Co238 N255 1.989 . S
Co238 O263 1.967 . S
Co238 O270 1.920 . S
Co239 O242 1.966 . S
Co239 N248 2.022 . S
Co239 N256 1.993 . S
Co239 O264 1.941 . S
C240 O241 1.258 . S
C240 O242 1.263 . S
O241 Co238 1.970 . S
O241 C240 1.258 . S
O242 Co239 1.966 . S
O242 C240 1.263 . S
C243 O244 1.235 . S
C243 O270 1.289 . S
O244 C243 1.235 . S
C245 C247 1.400 . S
C245 N248 1.351 . S
C245 C250 1.501 . S
C246 C247 1.387 . S
C246 N249 1.341 . S
C247 C245 1.400 . S
C247 C246 1.387 . S
N248 Co239 2.022 . S
N248 C245 1.351 . S
N248 N249 1.365 . S
N249 C246 1.341 . S
N249 N248 1.365 . S
N249 H269 0.862 . S
C250 C245 1.501 . S
C250 H251 0.961 . S
C250 H252 0.961 . S
C250 H253 0.960 . S
H251 C250 0.961 . S
H252 C250 0.961 . S
H253 C250 0.960 . S
C254 N255 1.342 . S
C254 C258 1.401 . S
C254 C259 1.499 . S
N255 Co238 1.989 . S
N255 C254 1.342 . S
N255 N256 1.388 . S
N256 Co239 1.993 . S
N256 N255 1.388 . S
N256 C257 1.346 . S
C257 N256 1.346 . S
C257 C258 1.396 . S
C257 C267 1.510 . S
C258 C254 1.401 . S
C258 C257 1.396 . S
C259 C254 1.499 . S
C259 H260 0.959 . S
C259 H261 0.960 . S
C259 H262 0.961 . S
H260 C259 0.959 . S
H261 C259 0.960 . S
H262 C259 0.961 . S
O263 Co238 1.967 . S
O263 C271 1.258 . S
O264 Co239 1.941 . S
O264 C271 1.266 . S
H265 C267 0.959 . S
H266 C267 0.961 . S
C267 C257 1.510 . S
C267 H265 0.959 . S
C267 H266 0.961 . S
C267 H268 0.960 . S
H268 C267 0.960 . S
H269 N249 0.862 . S
O270 Co238 1.920 . S
O270 C243 1.289 . S
C271 O263 1.258 . S
C271 O264 1.266 . S
Co272 O275 1.970 . S
Co272 N289 1.989 . S
Co272 O297 1.967 . S
Co272 O304 1.920 . S
Co273 O276 1.966 . S
Co273 N282 2.022 . S
Co273 N290 1.993 . S
Co273 O298 1.941 . S
C274 O275 1.258 . S
C274 O276 1.263 . S
O275 Co272 1.970 . S
O275 C274 1.258 . S
O276 Co273 1.966 . S
O276 C274 1.263 . S
C277 O278 1.235 . S
C277 O304 1.289 . S
O278 C277 1.235 . S
C279 C281 1.400 . S
C279 N282 1.351 . S
C279 C284 1.501 . S
C280 C281 1.387 . S
C280 N283 1.341 . S
C281 C279 1.400 . S
C281 C280 1.387 . S
N282 Co273 2.022 . S
N282 C279 1.351 . S
N282 N283 1.365 . S
N283 C280 1.341 . S
N283 N282 1.365 . S
N283 H303 0.862 . S
C284 C279 1.501 . S
C284 H285 0.961 . S
C284 H286 0.961 . S
C284 H287 0.960 . S
H285 C284 0.961 . S
H286 C284 0.961 . S
H287 C284 0.960 . S
C288 N289 1.342 . S
C288 C292 1.401 . S
C288 C293 1.499 . S
N289 Co272 1.989 . S
N289 C288 1.342 . S
N289 N290 1.388 . S
N290 Co273 1.993 . S
N290 N289 1.388 . S
N290 C291 1.346 . S
C291 N290 1.346 . S
C291 C292 1.396 . S
C291 C301 1.510 . S
C292 C288 1.401 . S
C292 C291 1.396 . S
C293 C288 1.499 . S
C293 H294 0.959 . S
C293 H295 0.960 . S
C293 H296 0.961 . S
H294 C293 0.959 . S
H295 C293 0.960 . S
H296 C293 0.961 . S
O297 Co272 1.967 . S
O297 C305 1.258 . S
O298 Co273 1.941 . S
O298 C305 1.266 . S
H299 C301 0.959 . S
H300 C301 0.961 . S
C301 C291 1.510 . S
C301 H299 0.959 . S
C301 H300 0.961 . S
C301 H302 0.960 . S
H302 C301 0.960 . S
H303 N283 0.862 . S
O304 Co272 1.920 . S
O304 C277 1.289 . S
C305 O297 1.258 . S
C305 O298 1.266 . S
Co306 O309 1.970 . S
Co306 N323 1.989 . S
Co306 O331 1.967 . S
Co306 O338 1.920 . S
Co307 O310 1.966 . S
Co307 N316 2.022 . S
Co307 N324 1.993 . S
Co307 O332 1.941 . S
C308 O309 1.258 . S
C308 O310 1.263 . S
O309 Co306 1.970 . S
O309 C308 1.258 . S
O310 Co307 1.966 . S
O310 C308 1.263 . S
C311 O312 1.235 . S
C311 O338 1.289 . S
O312 C311 1.235 . S
C313 C315 1.400 . S
C313 N316 1.351 . S
C313 C318 1.501 . S
C314 C315 1.387 . S
C314 N317 1.341 . S
C315 C313 1.400 . S
C315 C314 1.387 . S
N316 Co307 2.022 . S
N316 C313 1.351 . S
N316 N317 1.365 . S
N317 C314 1.341 . S
N317 N316 1.365 . S
N317 H337 0.862 . S
C318 C313 1.501 . S
C318 H319 0.961 . S
C318 H320 0.961 . S
C318 H321 0.960 . S
H319 C318 0.961 . S
H320 C318 0.961 . S
H321 C318 0.960 . S
C322 N323 1.342 . S
C322 C326 1.401 . S
C322 C327 1.499 . S
N323 Co306 1.989 . S
N323 C322 1.342 . S
N323 N324 1.388 . S
N324 Co307 1.993 . S
N324 N323 1.388 . S
N324 C325 1.346 . S
C325 N324 1.346 . S
C325 C326 1.396 . S
C325 C335 1.510 . S
C326 C322 1.401 . S
C326 C325 1.396 . S
C327 C322 1.499 . S
C327 H328 0.959 . S
C327 H329 0.960 . S
C327 H330 0.961 . S
H328 C327 0.959 . S
H329 C327 0.960 . S
H330 C327 0.961 . S
O331 Co306 1.967 . S
O331 C339 1.258 . S
O332 Co307 1.941 . S
O332 C339 1.266 . S
H333 C335 0.959 . S
H334 C335 0.961 . S
C335 C325 1.510 . S
C335 H333 0.959 . S
C335 H334 0.961 . S
C335 H336 0.960 . S
H336 C335 0.960 . S
H337 N317 0.862 . S
O338 Co306 1.920 . S
O338 C311 1.289 . S
C339 O331 1.258 . S
C339 O332 1.266 . S
Co340 O343 1.970 . S
Co340 N357 1.989 . S
Co340 O365 1.967 . S
Co340 O372 1.920 . S
Co341 O344 1.966 . S
Co341 N350 2.022 . S
Co341 N358 1.993 . S
Co341 O366 1.941 . S
C342 O343 1.258 . S
C342 O344 1.263 . S
O343 Co340 1.970 . S
O343 C342 1.258 . S
O344 Co341 1.966 . S
O344 C342 1.263 . S
C345 O346 1.235 . S
C345 O372 1.289 . S
O346 C345 1.235 . S
C347 C349 1.400 . S
C347 N350 1.351 . S
C347 C352 1.501 . S
C348 C349 1.387 . S
C348 N351 1.341 . S
C349 C347 1.400 . S
C349 C348 1.387 . S
N350 Co341 2.022 . S
N350 C347 1.351 . S
N350 N351 1.365 . S
N351 C348 1.341 . S
N351 N350 1.365 . S
N351 H371 0.862 . S
C352 C347 1.501 . S
C352 H353 0.961 . S
C352 H354 0.961 . S
C352 H355 0.960 . S
H353 C352 0.961 . S
H354 C352 0.961 . S
H355 C352 0.960 . S
C356 N357 1.342 . S
C356 C360 1.401 . S
C356 C361 1.499 . S
N357 Co340 1.989 . S
N357 C356 1.342 . S
N357 N358 1.388 . S
N358 Co341 1.993 . S
N358 N357 1.388 . S
N358 C359 1.346 . S
C359 N358 1.346 . S
C359 C360 1.396 . S
C359 C369 1.510 . S
C360 C356 1.401 . S
C360 C359 1.396 . S
C361 C356 1.499 . S
C361 H362 0.959 . S
C361 H363 0.960 . S
C361 H364 0.961 . S
H362 C361 0.959 . S
H363 C361 0.960 . S
H364 C361 0.961 . S
O365 Co340 1.967 . S
O365 C373 1.258 . S
O366 Co341 1.941 . S
O366 C373 1.266 . S
H367 C369 0.959 . S
H368 C369 0.961 . S
C369 C359 1.510 . S
C369 H367 0.959 . S
C369 H368 0.961 . S
C369 H370 0.960 . S
H370 C369 0.960 . S
H371 N351 0.862 . S
O372 Co340 1.920 . S
O372 C345 1.289 . S
C373 O365 1.258 . S
C373 O366 1.266 . S
Co374 O377 1.970 . S
Co374 N391 1.989 . S
Co374 O399 1.967 . S
Co374 O406 1.920 . S
Co375 O378 1.966 . S
Co375 N384 2.022 . S
Co375 N392 1.993 . S
Co375 O400 1.941 . S
C376 O377 1.258 . S
C376 O378 1.263 . S
O377 Co374 1.970 . S
O377 C376 1.258 . S
O378 Co375 1.966 . S
O378 C376 1.263 . S
C379 O380 1.235 . S
C379 O406 1.289 . S
O380 C379 1.235 . S
C381 C383 1.400 . S
C381 N384 1.351 . S
C381 C386 1.501 . S
C382 C383 1.387 . S
C382 N385 1.341 . S
C383 C381 1.400 . S
C383 C382 1.387 . S
N384 Co375 2.022 . S
N384 C381 1.351 . S
N384 N385 1.365 . S
N385 C382 1.341 . S
N385 N384 1.365 . S
N385 H405 0.862 . S
C386 C381 1.501 . S
C386 H387 0.961 . S
C386 H388 0.961 . S
C386 H389 0.960 . S
H387 C386 0.961 . S
H388 C386 0.961 . S
H389 C386 0.960 . S
C390 N391 1.342 . S
C390 C394 1.401 . S
C390 C395 1.499 . S
N391 Co374 1.989 . S
N391 C390 1.342 . S
N391 N392 1.388 . S
N392 Co375 1.993 . S
N392 N391 1.388 . S
N392 C393 1.346 . S
C393 N392 1.346 . S
C393 C394 1.396 . S
C393 C403 1.510 . S
C394 C390 1.401 . S
C394 C393 1.396 . S
C395 C390 1.499 . S
C395 H396 0.959 . S
C395 H397 0.960 . S
C395 H398 0.961 . S
H396 C395 0.959 . S
H397 C395 0.960 . S
H398 C395 0.961 . S
O399 Co374 1.967 . S
O399 C407 1.258 . S
O400 Co375 1.941 . S
O400 C407 1.266 . S
H401 C403 0.959 . S
H402 C403 0.961 . S
C403 C393 1.510 . S
C403 H401 0.959 . S
C403 H402 0.961 . S
C403 H404 0.960 . S
H404 C403 0.960 . S
H405 N385 0.862 . S
O406 Co374 1.920 . S
O406 C379 1.289 . S
C407 O399 1.258 . S
C407 O400 1.266 . S
Co408 O411 1.970 . S
Co408 N425 1.989 . S
Co408 O433 1.967 . S
Co408 O440 1.920 1_554 S
Co409 O412 1.966 . S
Co409 N418 2.022 . S
Co409 N426 1.993 . S
Co409 O434 1.941 . S
C410 O411 1.258 . S
C410 O412 1.263 . S
O411 Co408 1.970 . S
O411 C410 1.258 . S
O412 Co409 1.966 . S
O412 C410 1.263 . S
C413 O414 1.235 . S
C413 O440 1.289 . S
O414 C413 1.235 . S
C415 C417 1.400 . S
C415 N418 1.351 . S
C415 C420 1.501 . S
C416 C417 1.387 . S
C416 N419 1.341 . S
C417 C415 1.400 . S
C417 C416 1.387 . S
N418 Co409 2.022 . S
N418 C415 1.351 . S
N418 N419 1.365 . S
N419 C416 1.341 . S
N419 N418 1.365 . S
N419 H439 0.862 . S
C420 C415 1.501 . S
C420 H421 0.961 . S
C420 H422 0.961 . S
C420 H423 0.960 . S
H421 C420 0.961 . S
H422 C420 0.961 . S
H423 C420 0.960 . S
C424 N425 1.342 . S
C424 C428 1.401 . S
C424 C429 1.499 . S
N425 Co408 1.989 . S
N425 C424 1.342 . S
N425 N426 1.388 . S
N426 Co409 1.993 . S
N426 N425 1.388 . S
N426 C427 1.346 . S
C427 N426 1.346 . S
C427 C428 1.396 . S
C427 C437 1.510 . S
C428 C424 1.401 . S
C428 C427 1.396 . S
C429 C424 1.499 . S
C429 H430 0.959 . S
C429 H431 0.960 . S
C429 H432 0.961 . S
H430 C429 0.959 . S
H431 C429 0.960 . S
H432 C429 0.961 . S
O433 Co408 1.967 . S
O433 C441 1.258 . S
O434 Co409 1.941 . S
O434 C441 1.266 . S
H435 C437 0.959 . S
H436 C437 0.961 . S
C437 C427 1.510 . S
C437 H435 0.959 . S
C437 H436 0.961 . S
C437 H438 0.960 . S
H438 C437 0.960 . S
H439 N419 0.862 . S
O440 Co408 1.920 1_556 S
O440 C413 1.289 . S
C441 O433 1.258 . S
C441 O434 1.266 . S
Co442 O445 1.970 . S
Co442 N459 1.989 . S
Co442 O467 1.967 . S
Co442 O474 1.920 . S
Co443 O446 1.966 . S
Co443 N452 2.022 1_554 S
Co443 N460 1.993 . S
Co443 O468 1.941 . S
C444 O445 1.258 . S
C444 O446 1.263 . S
O445 Co442 1.970 . S
O445 C444 1.258 . S
O446 Co443 1.966 . S
O446 C444 1.263 . S
C447 O448 1.235 . S
C447 O474 1.289 . S
O448 C447 1.235 . S
C449 C451 1.400 . S
C449 N452 1.351 . S
C449 C454 1.501 . S
C450 C451 1.387 . S
C450 N453 1.341 . S
C451 C449 1.400 . S
C451 C450 1.387 . S
N452 Co443 2.022 1_556 S
N452 C449 1.351 . S
N452 N453 1.365 . S
N453 C450 1.341 . S
N453 N452 1.365 . S
N453 H473 0.862 . S
C454 C449 1.501 . S
C454 H455 0.961 . S
C454 H456 0.961 . S
C454 H457 0.960 . S
H455 C454 0.961 . S
H456 C454 0.961 . S
H457 C454 0.960 . S
C458 N459 1.342 . S
C458 C462 1.401 . S
C458 C463 1.499 . S
N459 Co442 1.989 . S
N459 C458 1.342 . S
N459 N460 1.388 . S
N460 Co443 1.993 . S
N460 N459 1.388 . S
N460 C461 1.346 . S
C461 N460 1.346 . S
C461 C462 1.396 . S
C461 C471 1.510 1_554 S
C462 C458 1.401 . S
C462 C461 1.396 . S
C463 C458 1.499 . S
C463 H464 0.959 . S
C463 H465 0.960 . S
C463 H466 0.961 . S
H464 C463 0.959 . S
H465 C463 0.960 . S
H466 C463 0.961 . S
O467 Co442 1.967 . S
O467 C475 1.258 . S
O468 Co443 1.941 . S
O468 C475 1.266 . S
H469 C471 0.959 . S
H470 C471 0.961 . S
C471 C461 1.510 1_556 S
C471 H469 0.959 . S
C471 H470 0.961 . S
C471 H472 0.960 . S
H472 C471 0.960 . S
H473 N453 0.862 . S
O474 Co442 1.920 . S
O474 C447 1.289 . S
C475 O467 1.258 . S
C475 O468 1.266 . S
Co476 O479 1.970 . S
Co476 N493 1.989 . S
Co476 O501 1.967 . S
Co476 O508 1.920 1_556 S
Co477 O480 1.966 . S
Co477 N486 2.022 . S
Co477 N494 1.993 . S
Co477 O502 1.941 . S
C478 O479 1.258 . S
C478 O480 1.263 . S
O479 Co476 1.970 . S
O479 C478 1.258 . S
O480 Co477 1.966 . S
O480 C478 1.263 . S
C481 O482 1.235 . S
C481 O508 1.289 . S
O482 C481 1.235 . S
C483 C485 1.400 . S
C483 N486 1.351 . S
C483 C488 1.501 . S
C484 C485 1.387 . S
C484 N487 1.341 . S
C485 C483 1.400 . S
C485 C484 1.387 . S
N486 Co477 2.022 . S
N486 C483 1.351 . S
N486 N487 1.365 . S
N487 C484 1.341 . S
N487 N486 1.365 . S
N487 H507 0.862 . S
C488 C483 1.501 . S
C488 H489 0.961 . S
C488 H490 0.961 . S
C488 H491 0.960 . S
H489 C488 0.961 . S
H490 C488 0.961 . S
H491 C488 0.960 . S
C492 N493 1.342 . S
C492 C496 1.401 . S
C492 C497 1.499 . S
N493 Co476 1.989 . S
N493 C492 1.342 . S
N493 N494 1.388 . S
N494 Co477 1.993 . S
N494 N493 1.388 . S
N494 C495 1.346 . S
C495 N494 1.346 . S
C495 C496 1.396 . S
C495 C505 1.510 . S
C496 C492 1.401 . S
C496 C495 1.396 . S
C497 C492 1.499 . S
C497 H498 0.959 1_556 S
C497 H499 0.960 . S
C497 H500 0.961 1_556 S
H498 C497 0.959 1_554 S
H499 C497 0.960 . S
H500 C497 0.961 1_554 S
O501 Co476 1.967 . S
O501 C509 1.258 . S
O502 Co477 1.941 . S
O502 C509 1.266 . S
H503 C505 0.959 . S
H504 C505 0.961 . S
C505 C495 1.510 . S
C505 H503 0.959 . S
C505 H504 0.961 . S
C505 H506 0.960 . S
H506 C505 0.960 . S
H507 N487 0.862 . S
O508 Co476 1.920 1_554 S
O508 C481 1.289 . S
C509 O501 1.258 . S
C509 O502 1.266 . S
Co510 O513 1.970 . S
Co510 N527 1.989 . S
Co510 O535 1.967 . S
Co510 O542 1.920 1_556 S
Co511 O514 1.966 . S
Co511 N520 2.022 . S
Co511 N528 1.993 . S
Co511 O536 1.941 . S
C512 O513 1.258 . S
C512 O514 1.263 . S
O513 Co510 1.970 . S
O513 C512 1.258 . S
O514 Co511 1.966 . S
O514 C512 1.263 . S
C515 O516 1.235 . S
C515 O542 1.289 . S
O516 C515 1.235 . S
C517 C519 1.400 . S
C517 N520 1.351 . S
C517 C522 1.501 . S
C518 C519 1.387 . S
C518 N521 1.341 . S
C519 C517 1.400 . S
C519 C518 1.387 . S
N520 Co511 2.022 . S
N520 C517 1.351 . S
N520 N521 1.365 . S
N521 C518 1.341 . S
N521 N520 1.365 . S
N521 H541 0.862 . S
C522 C517 1.501 . S
C522 H523 0.961 . S
C522 H524 0.961 . S
C522 H525 0.960 . S
H523 C522 0.961 . S
H524 C522 0.961 . S
H525 C522 0.960 . S
C526 N527 1.342 . S
C526 C530 1.401 . S
C526 C531 1.499 . S
N527 Co510 1.989 . S
N527 C526 1.342 . S
N527 N528 1.388 . S
N528 Co511 1.993 . S
N528 N527 1.388 . S
N528 C529 1.346 . S
C529 N528 1.346 . S
C529 C530 1.396 . S
C529 C539 1.510 . S
C530 C526 1.401 . S
C530 C529 1.396 . S
C531 C526 1.499 . S
C531 H532 0.959 1_556 S
C531 H533 0.960 . S
C531 H534 0.961 . S
H532 C531 0.959 1_554 S
H533 C531 0.960 . S
H534 C531 0.961 . S
O535 Co510 1.967 . S
O535 C543 1.258 . S
O536 Co511 1.941 . S
O536 C543 1.266 . S
H537 C539 0.959 . S
H538 C539 0.961 . S
C539 C529 1.510 . S
C539 H537 0.959 . S
C539 H538 0.961 . S
C539 H540 0.960 . S
H540 C539 0.960 . S
H541 N521 0.862 . S
O542 Co510 1.920 1_554 S
O542 C515 1.289 . S
C543 O535 1.258 . S
C543 O536 1.266 . S
H544 C552 0.950 . S
H545 C557 0.950 . S
H546 C554 0.950 . S
H547 C556 0.950 . S
H548 C558 0.950 . S
H549 C560 0.950 . S
H550 C562 0.950 . S
H551 C563 0.950 . S
C552 H544 0.950 . S
C552 C553 1.386 . S
C552 C554 1.391 . S
C553 C552 1.386 . S
C553 C557 1.393 . S
C554 H546 0.950 . S
C554 C552 1.391 . S
C554 C555 1.400 . S
C555 C554 1.400 . S
C555 C556 1.398 . S
C555 C561 1.491 . S
C556 H547 0.950 . S
C556 C555 1.398 . S
C556 C557 1.391 . S
C557 H545 0.950 . S
C557 C553 1.393 . S
C557 C556 1.391 . S
C558 H548 0.950 . S
C558 C559 1.386 . S
C558 C560 1.391 . S
C559 C558 1.386 . S
C559 C563 1.393 . S
C560 H549 0.950 . S
C560 C558 1.391 . S
C560 C561 1.400 . S
C561 C555 1.491 . S
C561 C560 1.400 . S
C561 C562 1.398 . S
C562 H550 0.950 . S
C562 C561 1.398 . S
C562 C563 1.391 . S
C563 H551 0.950 . S
C563 C559 1.393 . S
C563 C562 1.391 . S
H564 C572 0.950 . S
H565 C577 0.950 . S
H566 C574 0.950 . S
H567 C576 0.950 . S
H568 C578 0.950 . S
H569 C580 0.950 . S
H570 C582 0.950 . S
H571 C583 0.950 . S
C572 H564 0.950 . S
C572 C573 1.386 . S
C572 C574 1.391 . S
C573 C572 1.386 . S
C573 C577 1.393 . S
C574 H566 0.950 . S
C574 C572 1.391 . S
C574 C575 1.400 . S
C575 C574 1.400 . S
C575 C576 1.398 . S
C575 C581 1.491 . S
C576 H567 0.950 . S
C576 C575 1.398 . S
C576 C577 1.391 . S
C577 H565 0.950 . S
C577 C573 1.393 . S
C577 C576 1.391 . S
C578 H568 0.950 . S
C578 C579 1.386 1_455 S
C578 C580 1.391 . S
C579 C578 1.386 1_655 S
C579 C583 1.393 . S
C580 H569 0.950 . S
C580 C578 1.391 . S
C580 C581 1.400 . S
C581 C575 1.491 . S
C581 C580 1.400 . S
C581 C582 1.398 . S
C582 H570 0.950 . S
C582 C581 1.398 . S
C582 C583 1.391 1_455 S
C583 H571 0.950 . S
C583 C579 1.393 . S
C583 C582 1.391 1_655 S
H584 C592 0.950 1_554 S
H585 C597 0.950 . S
H586 C594 0.950 . S
H587 C596 0.950 . S
H588 C598 0.950 . S
H589 C600 0.950 . S
H590 C602 0.950 . S
H591 C603 0.950 . S
C592 H584 0.950 1_556 S
C592 C593 1.386 . S
C592 C594 1.391 1_556 S
C593 C592 1.386 . S
C593 C597 1.393 . S
C594 H586 0.950 . S
C594 C592 1.391 1_554 S
C594 C595 1.400 1_554 S
C595 C594 1.400 1_556 S
C595 C596 1.398 . S
C595 C601 1.491 . S
C596 H587 0.950 . S
C596 C595 1.398 . S
C596 C597 1.391 . S
C597 H585 0.950 . S
C597 C593 1.393 . S
C597 C596 1.391 . S
C598 H588 0.950 . S
C598 C599 1.386 1_556 S
C598 C600 1.391 . S
C599 C598 1.386 1_554 S
C599 C603 1.393 . S
C600 H589 0.950 . S
C600 C598 1.391 . S
C600 C601 1.400 . S
C601 C595 1.491 . S
C601 C600 1.400 . S
C601 C602 1.398 1_556 S
C602 H590 0.950 . S
C602 C601 1.398 1_554 S
C602 C603 1.391 . S
C603 H591 0.950 . S
C603 C599 1.393 . S
C603 C602 1.391 . S
H604 C612 0.950 . S
H605 C617 0.950 . S
H606 C614 0.950 . S
H607 C616 0.950 . S
H608 C618 0.950 . S
H609 C620 0.950 1_556 S
H610 C622 0.950 . S
H611 C623 0.950 . S
C612 H604 0.950 . S
C612 C613 1.386 1_554 S
C612 C614 1.391 . S
C613 C612 1.386 1_556 S
C613 C617 1.393 . S
C614 H606 0.950 . S
C614 C612 1.391 . S
C614 C615 1.400 . S
C615 C614 1.400 . S
C615 C616 1.398 1_554 S
C615 C621 1.491 . S
C616 H607 0.950 . S
C616 C615 1.398 1_556 S
C616 C617 1.391 . S
C617 H605 0.950 . S
C617 C613 1.393 . S
C617 C616 1.391 . S
C618 H608 0.950 . S
C618 C619 1.386 . S
C618 C620 1.391 1_455 S
C619 C618 1.386 . S
C619 C623 1.393 1_455 S
C620 H609 0.950 1_554 S
C620 C618 1.391 1_655 S
C620 C621 1.400 . S
C621 C615 1.491 . S
C621 C620 1.400 . S
C621 C622 1.398 . S
C622 H610 0.950 . S
C622 C621 1.398 . S
C622 C623 1.391 . S
C623 H611 0.950 . S
C623 C619 1.393 1_655 S
C623 C622 1.391 . S
H624 C632 0.950 . S
H625 C637 0.950 . S
H626 C634 0.950 . S
H627 C636 0.950 . S
H628 C638 0.950 . S
H629 C640 0.950 . S
H630 C642 0.950 . S
H631 C643 0.950 . S
C632 H624 0.950 . S
C632 C633 1.386 . S
C632 C634 1.391 . S
C633 C632 1.386 . S
C633 C637 1.393 . S
C634 H626 0.950 . S
C634 C632 1.391 . S
C634 C635 1.400 . S
C635 C634 1.400 . S
C635 C636 1.398 . S
C635 C641 1.491 . S
C636 H627 0.950 . S
C636 C635 1.398 . S
C636 C637 1.391 . S
C637 H625 0.950 . S
C637 C633 1.393 . S
C637 C636 1.391 . S
C638 H628 0.950 . S
C638 C639 1.386 . S
C638 C640 1.391 . S
C639 C638 1.386 . S
C639 C643 1.393 . S
C640 H629 0.950 . S
C640 C638 1.391 . S
C640 C641 1.400 . S
C641 C635 1.491 . S
C641 C640 1.400 . S
C641 C642 1.398 . S
C642 H630 0.950 . S
C642 C641 1.398 . S
C642 C643 1.391 . S
C643 H631 0.950 . S
C643 C639 1.393 . S
C643 C642 1.391 . S
H644 C652 0.950 . S
H645 C657 0.950 . S
H646 C654 0.950 . S
H647 C656 0.950 . S
H648 C658 0.950 . S
H649 C660 0.950 . S
H650 C662 0.950 . S
H651 C663 0.950 . S
C652 H644 0.950 . S
C652 C653 1.386 . S
C652 C654 1.391 . S
C653 C652 1.386 . S
C653 C657 1.393 . S
C654 H646 0.950 . S
C654 C652 1.391 . S
C654 C655 1.400 . S
C655 C654 1.400 . S
C655 C656 1.398 . S
C655 C661 1.491 . S
C656 H647 0.950 . S
C656 C655 1.398 . S
C656 C657 1.391 . S
C657 H645 0.950 . S
C657 C653 1.393 . S
C657 C656 1.391 . S
C658 H648 0.950 . S
C658 C659 1.386 1_455 S
C658 C660 1.391 . S
C659 C658 1.386 1_655 S
C659 C663 1.393 . S
C660 H649 0.950 . S
C660 C658 1.391 . S
C660 C661 1.400 . S
C661 C655 1.491 . S
C661 C660 1.400 . S
C661 C662 1.398 . S
C662 H650 0.950 . S
C662 C661 1.398 . S
C662 C663 1.391 1_455 S
C663 H651 0.950 . S
C663 C659 1.393 . S
C663 C662 1.391 1_655 S
H664 C672 0.950 . S
H665 C677 0.950 . S
H666 C674 0.950 . S
H667 C676 0.950 . S
H668 C678 0.950 . S
H669 C680 0.950 . S
H670 C682 0.950 . S
H671 C683 0.950 . S
C672 H664 0.950 . S
C672 C673 1.386 . S
C672 C674 1.391 . S
C673 C672 1.386 . S
C673 C677 1.393 . S
C674 H666 0.950 . S
C674 C672 1.391 . S
C674 C675 1.397 1_554 S
C675 C674 1.397 1_556 S
C675 C676 1.396 1_556 S
C675 C681 1.495 . S
C676 H667 0.950 . S
C676 C675 1.396 1_554 S
C676 C677 1.391 . S
C677 H665 0.950 . S
C677 C673 1.393 . S
C677 C676 1.391 . S
C678 H668 0.950 . S
C678 C679 1.386 . S
C678 C680 1.391 . S
C679 C678 1.386 . S
C679 C683 1.393 . S
C680 H669 0.950 . S
C680 C678 1.391 . S
C680 C681 1.400 . S
C681 C675 1.495 . S
C681 C680 1.400 . S
C681 C682 1.398 . S
C682 H670 0.950 . S
C682 C681 1.398 . S
C682 C683 1.391 . S
C683 H671 0.950 . S
C683 C679 1.393 . S
C683 C682 1.391 . S
H684 C692 0.950 . S
H685 C697 0.950 . S
H686 C694 0.950 . S
H687 C696 0.950 . S
H688 C698 0.957 1_565 S
H689 C700 0.950 . S
H690 C702 0.950 . S
H691 C703 0.950 . S
C692 H684 0.950 . S
C692 C693 1.386 . S
C692 C694 1.391 . S
C693 C692 1.386 . S
C693 C697 1.393 . S
C694 H686 0.950 . S
C694 C692 1.391 . S
C694 C695 1.400 . S
C695 C694 1.400 . S
C695 C696 1.398 . S
C695 C701 1.491 . S
C696 H687 0.950 . S
C696 C695 1.398 . S
C696 C697 1.391 . S
C697 H685 0.950 . S
C697 C693 1.393 . S
C697 C696 1.391 . S
C698 H688 0.957 1_545 S
C698 C699 1.415 . S
C698 C700 1.361 1_545 S
C699 C698 1.415 . S
C699 C703 1.393 . S
C700 H689 0.950 . S
C700 C698 1.361 1_565 S
C700 C701 1.400 . S
C701 C695 1.491 . S
C701 C700 1.400 . S
C701 C702 1.398 1_565 S
C702 H690 0.950 . S
C702 C701 1.398 1_545 S
C702 C703 1.391 . S
C703 H691 0.950 . S
C703 C699 1.393 . S
C703 C702 1.391 . S
H704 C712 0.950 . S
H705 C717 0.950 . S
H706 C714 0.950 . S
H707 C716 0.950 . S
H708 C718 0.950 . S
H709 C720 0.950 . S
H710 C722 0.950 . S
H711 C723 0.950 . S
C712 H704 0.950 . S
C712 C713 1.386 . S
C712 C714 1.391 . S
C713 C712 1.386 . S
C713 C717 1.393 . S
C714 H706 0.950 . S
C714 C712 1.391 . S
C714 C715 1.400 . S
C715 C714 1.400 . S
C715 C716 1.398 . S
C715 C721 1.491 . S
C716 H707 0.950 . S
C716 C715 1.398 . S
C716 C717 1.391 . S
C717 H705 0.950 . S
C717 C713 1.393 . S
C717 C716 1.391 . S
C718 H708 0.950 . S
C718 C719 1.386 . S
C718 C720 1.391 . S
C719 C718 1.386 . S
C719 C723 1.393 . S
C720 H709 0.950 . S
C720 C718 1.391 . S
C720 C721 1.400 . S
C721 C715 1.491 . S
C721 C720 1.400 . S
C721 C722 1.398 . S
C722 H710 0.950 . S
C722 C721 1.398 . S
C722 C723 1.391 . S
C723 H711 0.950 . S
C723 C719 1.393 . S
C723 C722 1.391 . S
H724 C732 0.950 . S
H725 C737 0.950 . S
H726 C734 0.950 . S
H727 C736 0.950 . S
H728 C738 0.950 . S
H729 C740 0.950 . S
H730 C742 0.950 . S
H731 C743 0.950 . S
C732 H724 0.950 . S
C732 C733 1.386 . S
C732 C734 1.391 . S
C733 C732 1.386 . S
C733 C737 1.393 . S
C734 H726 0.950 . S
C734 C732 1.391 . S
C734 C735 1.400 . S
C735 C734 1.400 . S
C735 C736 1.398 . S
C735 C741 1.491 1_565 S
C736 H727 0.950 . S
C736 C735 1.398 . S
C736 C737 1.391 . S
C737 H725 0.950 . S
C737 C733 1.393 . S
C737 C736 1.391 . S
C738 H728 0.950 . S
C738 C739 1.386 . S
C738 C740 1.391 1_455 S
C739 C738 1.386 . S
C739 C743 1.393 1_455 S
C740 H729 0.950 . S
C740 C738 1.391 1_655 S
C740 C741 1.400 . S
C741 C735 1.491 1_545 S
C741 C740 1.400 . S
C741 C742 1.398 . S
C742 H730 0.950 . S
C742 C741 1.398 . S
C742 C743 1.391 . S
C743 H731 0.950 . S
C743 C739 1.393 1_655 S
C743 C742 1.391 . S
H744 C752 0.951 . S
H745 C757 0.950 . S
H746 C754 0.950 . S
H747 C756 0.950 . S
H748 C758 0.950 . S
H749 C760 0.950 . S
H750 C762 0.950 . S
H751 C763 0.950 . S
C752 H744 0.951 . S
C752 C753 1.377 1_565 S
C752 C754 1.399 . S
C753 C752 1.377 1_545 S
C753 C757 1.393 . S
C754 H746 0.950 . S
C754 C752 1.399 . S
C754 C755 1.400 . S
C755 C754 1.400 . S
C755 C756 1.398 1_565 S
C755 C761 1.491 . S
C756 H747 0.950 . S
C756 C755 1.398 1_545 S
C756 C757 1.391 . S
C757 H745 0.950 . S
C757 C753 1.393 . S
C757 C756 1.391 . S
C758 H748 0.950 . S
C758 C759 1.386 . S
C758 C760 1.391 . S
C759 C758 1.386 . S
C759 C763 1.393 . S
C760 H749 0.950 . S
C760 C758 1.391 . S
C760 C761 1.400 . S
C761 C755 1.491 . S
C761 C760 1.400 . S
C761 C762 1.398 . S
C762 H750 0.950 . S
C762 C761 1.398 . S
C762 C763 1.391 . S
C763 H751 0.950 . S
C763 C759 1.393 . S
C763 C762 1.391 . S
H764 C772 0.950 . S
H765 C777 0.950 . S
H766 C774 0.950 . S
H767 C776 0.950 . S
H768 C778 0.950 . S
H769 C780 0.950 . S
H770 C782 0.950 . S
H771 C783 0.950 . S
C772 H764 0.950 . S
C772 C773 1.386 . S
C772 C774 1.391 . S
C773 C772 1.386 . S
C773 C777 1.393 . S
C774 H766 0.950 . S
C774 C772 1.391 . S
C774 C775 1.400 . S
C775 C774 1.400 . S
C775 C776 1.398 . S
C775 C781 1.491 . S
C776 H767 0.950 . S
C776 C775 1.398 . S
C776 C777 1.391 . S
C777 H765 0.950 . S
C777 C773 1.393 . S
C777 C776 1.391 . S
C778 H768 0.950 . S
C778 C779 1.386 . S
C778 C780 1.391 . S
C779 C778 1.386 . S
C779 C783 1.393 . S
C780 H769 0.950 . S
C780 C778 1.391 . S
C780 C781 1.400 . S
C781 C775 1.491 . S
C781 C780 1.400 . S
C781 C782 1.398 . S
C782 H770 0.950 . S
C782 C781 1.398 . S
C782 C783 1.391 . S
C783 H771 0.950 . S
C783 C779 1.393 . S
C783 C782 1.391 . S
H784 C792 0.950 . S
H785 C797 0.950 . S
H786 C794 0.950 . S
H787 C796 0.950 . S
H788 C798 0.950 . S
H789 C800 0.950 . S
H790 C802 0.950 . S
H791 C803 0.950 . S
C792 H784 0.950 . S
C792 C793 1.386 . S
C792 C794 1.391 . S
C793 C792 1.386 . S
C793 C797 1.393 . S
C794 H786 0.950 . S
C794 C792 1.391 . S
C794 C795 1.400 . S
C795 C794 1.400 . S
C795 C796 1.398 . S
C795 C801 1.491 . S
C796 H787 0.950 . S
C796 C795 1.398 . S
C796 C797 1.391 . S
C797 H785 0.950 . S
C797 C793 1.393 . S
C797 C796 1.391 . S
C798 H788 0.950 . S
C798 C799 1.386 . S
C798 C800 1.391 . S
C799 C798 1.386 . S
C799 C803 1.393 . S
C800 H789 0.950 . S
C800 C798 1.391 . S
C800 C801 1.400 . S
C801 C795 1.491 . S
C801 C800 1.400 . S
C801 C802 1.398 . S
C802 H790 0.950 . S
C802 C801 1.398 . S
C802 C803 1.391 . S
C803 H791 0.950 . S
C803 C799 1.393 . S
C803 C802 1.391 . S
H804 C812 0.950 . S
H805 C817 0.950 . S
H806 C814 0.950 . S
H807 C816 0.950 . S
H808 C818 0.950 . S
H809 C820 0.950 . S
H810 C822 0.950 . S
H811 C823 0.950 . S
C812 H804 0.950 . S
C812 C813 1.386 . S
C812 C814 1.391 . S
C813 C812 1.386 . S
C813 C817 1.393 . S
C814 H806 0.950 . S
C814 C812 1.391 . S
C814 C815 1.400 . S
C815 C814 1.400 . S
C815 C816 1.398 . S
C815 C821 1.491 . S
C816 H807 0.950 . S
C816 C815 1.398 . S
C816 C817 1.391 . S
C817 H805 0.950 . S
C817 C813 1.393 . S
C817 C816 1.391 . S
C818 H808 0.950 . S
C818 C819 1.386 . S
C818 C820 1.391 . S
C819 C818 1.386 . S
C819 C823 1.393 . S
C820 H809 0.950 . S
C820 C818 1.391 . S
C820 C821 1.400 . S
C821 C815 1.491 . S
C821 C820 1.400 . S
C821 C822 1.398 . S
C822 H810 0.950 . S
C822 C821 1.398 . S
C822 C823 1.391 . S
C823 H811 0.950 . S
C823 C819 1.393 . S
C823 C822 1.391 . S
H824 C832 0.950 . S
H825 C837 0.950 . S
H826 C834 0.950 . S
H827 C836 0.950 . S
H828 C838 0.950 . S
H829 C840 0.950 . S
H830 C842 0.950 . S
H831 C843 0.950 . S
C832 H824 0.950 . S
C832 C833 1.386 . S
C832 C834 1.391 . S
C833 C832 1.386 . S
C833 C837 1.393 . S
C834 H826 0.950 . S
C834 C832 1.391 . S
C834 C835 1.400 . S
C835 C834 1.400 . S
C835 C836 1.398 . S
C835 C841 1.491 . S
C836 H827 0.950 . S
C836 C835 1.398 . S
C836 C837 1.391 . S
C837 H825 0.950 . S
C837 C833 1.393 . S
C837 C836 1.391 . S
C838 H828 0.950 . S
C838 C839 1.386 . S
C838 C840 1.391 . S
C839 C838 1.386 . S
C839 C843 1.393 . S
C840 H829 0.950 . S
C840 C838 1.391 . S
C840 C841 1.400 . S
C841 C835 1.491 . S
C841 C840 1.400 . S
C841 C842 1.398 . S
C842 H830 0.950 . S
C842 C841 1.398 . S
C842 C843 1.391 . S
C843 H831 0.950 . S
C843 C839 1.393 . S
C843 C842 1.391 . S
H844 C852 0.950 . S
H845 C857 0.950 . S
H846 C854 0.950 . S
H847 C856 0.938 1_545 S
H848 C858 0.950 . S
H849 C860 0.941 1_556 S
H850 C862 0.950 . S
H851 C863 0.981 . S
C852 H844 0.950 . S
C852 C853 1.386 . S
C852 C854 1.391 1_556 S
C853 C852 1.386 . S
C853 C857 1.393 . S
C854 H846 0.950 . S
C854 C852 1.391 1_554 S
C854 C855 1.400 . S
C855 C854 1.400 . S
C855 C856 1.405 1_554 S
C855 C861 1.491 1_565 S
C856 H847 0.938 1_565 S
C856 C855 1.405 1_556 S
C856 C857 1.396 . S
C857 H845 0.950 . S
C857 C853 1.393 . S
C857 C856 1.396 . S
C858 H848 0.950 . S
C858 C859 1.386 . S
C858 C860 1.391 . S
C859 C858 1.386 . S
C859 C863 1.393 . S
C860 H849 0.941 1_554 S
C860 C858 1.391 . S
C860 C861 1.400 . S
C861 C855 1.491 1_545 S
C861 C860 1.400 . S
C861 C862 1.398 1_545 S
C862 H850 0.950 . S
C862 C861 1.398 1_565 S
C862 C863 1.391 1_565 S
C863 H851 0.981 . S
C863 C859 1.393 . S
C863 C862 1.391 1_545 S
H864 C872 0.950 . S
H865 C877 0.950 . S
H866 C874 0.950 . S
H867 C876 0.950 . S
H868 C878 0.950 . S
H869 C880 0.950 . S
H870 C882 0.950 . S
H871 C883 0.950 . S
C872 H864 0.950 . S
C872 C873 1.386 . S
C872 C874 1.391 . S
C873 C872 1.386 . S
C873 C877 1.393 . S
C874 H866 0.950 . S
C874 C872 1.391 . S
C874 C875 1.400 . S
C875 C874 1.400 . S
C875 C876 1.398 . S
C875 C881 1.491 . S
C876 H867 0.950 . S
C876 C875 1.398 . S
C876 C877 1.391 . S
C877 H865 0.950 . S
C877 C873 1.393 . S
C877 C876 1.391 . S
C878 H868 0.950 . S
C878 C879 1.386 . S
C878 C880 1.391 . S
C879 C878 1.386 . S
C879 C883 1.393 . S
C880 H869 0.950 . S
C880 C878 1.391 . S
C880 C881 1.400 . S
C881 C875 1.491 . S
C881 C880 1.400 . S
C881 C882 1.398 . S
C882 H870 0.950 . S
C882 C881 1.398 . S
C882 C883 1.391 . S
C883 H871 0.950 . S
C883 C879 1.393 . S
C883 C882 1.391 . S
H884 C892 0.950 . S
H885 C897 0.950 . S
H886 C894 0.950 . S
H887 C896 0.950 . S
H888 C898 0.950 . S
H889 C900 0.950 . S
H890 C902 0.950 . S
H891 C903 0.950 . S
C892 H884 0.950 . S
C892 C893 1.386 . S
C892 C894 1.391 . S
C893 C892 1.386 . S
C893 C897 1.393 . S
C894 H886 0.950 . S
C894 C892 1.391 . S
C894 C895 1.400 . S
C895 C894 1.400 . S
C895 C896 1.398 . S
C895 C901 1.491 . S
C896 H887 0.950 . S
C896 C895 1.398 . S
C896 C897 1.391 . S
C897 H885 0.950 . S
C897 C893 1.393 . S
C897 C896 1.391 . S
C898 H888 0.950 . S
C898 C899 1.386 . S
C898 C900 1.391 . S
C899 C898 1.386 . S
C899 C903 1.393 . S
C900 H889 0.950 . S
C900 C898 1.391 . S
C900 C901 1.400 . S
C901 C895 1.491 . S
C901 C900 1.400 . S
C901 C902 1.398 . S
C902 H890 0.950 . S
C902 C901 1.398 . S
C902 C903 1.391 . S
C903 H891 0.950 . S
C903 C899 1.393 . S
C903 C902 1.391 . S
H904 C912 0.950 . S
H905 C917 0.950 . S
H906 C914 0.950 . S
H907 C916 0.950 . S
H908 C918 0.950 . S
H909 C920 0.950 . S
H910 C922 0.950 . S
H911 C923 0.950 . S
C912 H904 0.950 . S
C912 C913 1.386 . S
C912 C914 1.391 . S
C913 C912 1.386 . S
C913 C917 1.393 . S
C914 H906 0.950 . S
C914 C912 1.391 . S
C914 C915 1.400 . S
C915 C914 1.400 . S
C915 C916 1.398 . S
C915 C921 1.491 . S
C916 H907 0.950 . S
C916 C915 1.398 . S
C916 C917 1.391 . S
C917 H905 0.950 . S
C917 C913 1.393 . S
C917 C916 1.391 . S
C918 H908 0.950 . S
C918 C919 1.386 . S
C918 C920 1.391 . S
C919 C918 1.386 . S
C919 C923 1.393 . S
C920 H909 0.950 . S
C920 C918 1.391 . S
C920 C921 1.400 . S
C921 C915 1.491 . S
C921 C920 1.400 . S
C921 C922 1.398 . S
C922 H910 0.950 . S
C922 C921 1.398 . S
C922 C923 1.391 . S
C923 H911 0.950 . S
C923 C919 1.393 . S
C923 C922 1.391 . S
H924 C932 0.950 . S
H925 C937 0.950 . S
H926 C934 0.950 . S
H927 C936 0.950 . S
H928 C938 0.950 . S
H929 C940 0.950 . S
H930 C942 0.950 . S
H931 C943 0.950 . S
C932 H924 0.950 . S
C932 C933 1.386 . S
C932 C934 1.391 . S
C933 C932 1.386 . S
C933 C937 1.393 . S
C934 H926 0.950 . S
C934 C932 1.391 . S
C934 C935 1.400 . S
C935 C934 1.400 . S
C935 C936 1.398 . S
C935 C941 1.491 . S
C936 H927 0.950 . S
C936 C935 1.398 . S
C936 C937 1.391 . S
C937 H925 0.950 . S
C937 C933 1.393 . S
C937 C936 1.391 . S
C938 H928 0.950 . S
C938 C939 1.386 . S
C938 C940 1.391 . S
C939 C938 1.386 . S
C939 C943 1.393 . S
C940 H929 0.950 . S
C940 C938 1.391 . S
C940 C941 1.400 . S
C941 C935 1.491 . S
C941 C940 1.400 . S
C941 C942 1.398 . S
C942 H930 0.950 . S
C942 C941 1.398 . S
C942 C943 1.391 . S
C943 H931 0.950 . S
C943 C939 1.393 . S
C943 C942 1.391 . S
H944 C952 0.950 . S
H945 C957 0.950 . S
H946 C954 0.950 . S
H947 C956 0.950 . S
H948 C958 0.950 . S
H949 C960 0.950 . S
H950 C962 0.950 . S
H951 C963 0.950 . S
C952 H944 0.950 . S
C952 C953 1.386 . S
C952 C954 1.391 . S
C953 C952 1.386 . S
C953 C957 1.393 . S
C954 H946 0.950 . S
C954 C952 1.391 . S
C954 C955 1.400 . S
C955 C954 1.400 . S
C955 C956 1.398 . S
C955 C961 1.491 . S
C956 H947 0.950 . S
C956 C955 1.398 . S
C956 C957 1.391 . S
C957 H945 0.950 . S
C957 C953 1.393 . S
C957 C956 1.391 . S
C958 H948 0.950 . S
C958 C959 1.386 . S
C958 C960 1.391 . S
C959 C958 1.386 . S
C959 C963 1.393 . S
C960 H949 0.950 . S
C960 C958 1.391 . S
C960 C961 1.400 . S
C961 C955 1.491 . S
C961 C960 1.400 . S
C961 C962 1.398 . S
C962 H950 0.950 . S
C962 C961 1.398 . S
C962 C963 1.391 . S
C963 H951 0.950 . S
C963 C959 1.393 . S
C963 C962 1.391 . S
H964 C972 0.950 . S
H965 C977 0.950 . S
H966 C974 0.950 . S
H967 C976 0.950 . S
H968 C978 0.950 . S
H969 C980 0.948 1_554 S
H970 C982 0.950 1_554 S
H971 C983 0.950 . S
C972 H964 0.950 . S
C972 C973 1.386 . S
C972 C974 1.391 . S
C973 C972 1.386 . S
C973 C977 1.393 . S
C974 H966 0.950 . S
C974 C972 1.391 . S
C974 C975 1.400 . S
C975 C974 1.400 . S
C975 C976 1.398 . S
C975 C981 1.491 . S
C976 H967 0.950 . S
C976 C975 1.398 . S
C976 C977 1.391 . S
C977 H965 0.950 . S
C977 C973 1.393 . S
C977 C976 1.391 . S
C978 H968 0.950 . S
C978 C979 1.386 . S
C978 C980 1.394 . S
C979 C978 1.386 . S
C979 C983 1.393 . S
C980 H969 0.948 1_556 S
C980 C978 1.394 . S
C980 C981 1.399 1_556 S
C981 C975 1.491 . S
C981 C980 1.399 1_554 S
C981 C982 1.398 1_554 S
C982 H970 0.950 1_556 S
C982 C981 1.398 1_556 S
C982 C983 1.391 . S
C983 H971 0.950 . S
C983 C979 1.393 . S
C983 C982 1.391 . S
H984 C992 0.947 1_554 S
H985 C997 0.950 1_554 S
H986 C994 0.950 . S
H987 C996 0.950 . S
H988 C998 0.950 . S
H989 C1000 0.950 . S
H990 C1002 0.950 . S
H991 C1003 0.950 . S
C992 H984 0.947 1_556 S
C992 C993 1.386 1_556 S
C992 C994 1.391 . S
C993 C992 1.386 1_554 S
C993 C997 1.393 1_554 S
C994 H986 0.950 . S
C994 C992 1.391 . S
C994 C995 1.400 . S
C995 C994 1.400 . S
C995 C996 1.398 . S
C995 C1001 1.491 . S
C996 H987 0.950 . S
C996 C995 1.398 . S
C996 C997 1.391 . S
C997 H985 0.950 1_556 S
C997 C993 1.393 1_556 S
C997 C996 1.391 . S
C998 H988 0.950 . S
C998 C999 1.386 . S
C998 C1000 1.391 . S
C999 C998 1.386 . S
C999 C1003 1.393 . S
C1000 H989 0.950 . S
C1000 C998 1.391 . S
C1000 C1001 1.400 . S
C1001 C995 1.491 . S
C1001 C1000 1.400 . S
C1001 C1002 1.398 . S
C1002 H990 0.950 . S
C1002 C1001 1.398 . S
C1002 C1003 1.391 . S
C1003 H991 0.950 . S
C1003 C999 1.393 . S
C1003 C1002 1.391 . S
H1004 C1012 0.950 1_554 S
H1005 C1017 0.950 . S
H1006 C1014 0.950 . S
H1007 C1016 0.950 . S
H1008 C1018 0.950 . S
H1009 C1020 0.950 . S
H1010 C1022 0.950 . S
H1011 C1023 0.950 . S
C1012 H1004 0.950 1_556 S
C1012 C1013 1.386 1_556 S
C1012 C1014 1.391 . S
C1013 C1012 1.386 1_554 S
C1013 C1017 1.393 1_554 S
C1014 H1006 0.950 . S
C1014 C1012 1.391 . S
C1014 C1015 1.400 . S
C1015 C1014 1.400 . S
C1015 C1016 1.398 . S
C1015 C1021 1.491 . S
C1016 H1007 0.950 . S
C1016 C1015 1.398 . S
C1016 C1017 1.391 . S
C1017 H1005 0.950 . S
C1017 C1013 1.393 1_556 S
C1017 C1016 1.391 . S
C1018 H1008 0.950 . S
C1018 C1019 1.386 . S
C1018 C1020 1.391 . S
C1019 C1018 1.386 . S
C1019 C1023 1.393 . S
C1020 H1009 0.950 . S
C1020 C1018 1.391 . S
C1020 C1021 1.400 . S
C1021 C1015 1.491 . S
C1021 C1020 1.400 . S
C1021 C1022 1.398 . S
C1022 H1010 0.950 . S
C1022 C1021 1.398 . S
C1022 C1023 1.391 . S
C1023 H1011 0.950 . S
C1023 C1019 1.393 . S
C1023 C1022 1.391 . S
H1024 C1032 0.950 . S
H1025 C1037 0.950 . S
H1026 C1034 0.950 . S
H1027 C1036 0.950 . S
H1028 C1038 0.950 . S
H1029 C1040 0.950 . S
H1030 C1042 0.950 . S
H1031 C1043 0.950 . S
C1032 H1024 0.950 . S
C1032 C1033 1.386 . S
C1032 C1034 1.391 . S
C1033 C1032 1.386 . S
C1033 C1037 1.393 . S
C1034 H1026 0.950 . S
C1034 C1032 1.391 . S
C1034 C1035 1.400 . S
C1035 C1034 1.400 . S
C1035 C1036 1.398 . S
C1035 C1041 1.491 . S
C1036 H1027 0.950 . S
C1036 C1035 1.398 . S
C1036 C1037 1.391 . S
C1037 H1025 0.950 . S
C1037 C1033 1.393 . S
C1037 C1036 1.391 . S
C1038 H1028 0.950 . S
C1038 C1039 1.386 . S
C1038 C1040 1.391 . S
C1039 C1038 1.386 . S
C1039 C1043 1.393 . S
C1040 H1029 0.950 . S
C1040 C1038 1.391 . S
C1040 C1041 1.400 . S
C1041 C1035 1.491 . S
C1041 C1040 1.400 . S
C1041 C1042 1.398 . S
C1042 H1030 0.950 . S
C1042 C1041 1.398 . S
C1042 C1043 1.391 . S
C1043 H1031 0.950 . S
C1043 C1039 1.393 . S
C1043 C1042 1.391 . S
H1044 C1052 0.950 . S
H1045 C1057 0.950 . S
H1046 C1054 0.950 . S
H1047 C1056 0.950 1_554 S
H1048 C1058 0.950 . S
H1049 C1060 0.950 . S
H1050 C1062 0.950 . S
H1051 C1063 0.950 . S
C1052 H1044 0.950 . S
C1052 C1053 1.386 . S
C1052 C1054 1.391 1_556 S
C1053 C1052 1.386 . S
C1053 C1057 1.393 . S
C1054 H1046 0.950 . S
C1054 C1052 1.391 1_554 S
C1054 C1055 1.400 . S
C1055 C1054 1.400 . S
C1055 C1056 1.398 1_554 S
C1055 C1061 1.491 . S
C1056 H1047 0.950 1_556 S
C1056 C1055 1.398 1_556 S
C1056 C1057 1.391 . S
C1057 H1045 0.950 . S
C1057 C1053 1.393 . S
C1057 C1056 1.391 . S
C1058 H1048 0.950 . S
C1058 C1059 1.386 . S
C1058 C1060 1.391 . S
C1059 C1058 1.386 . S
C1059 C1063 1.393 . S
C1060 H1049 0.950 . S
C1060 C1058 1.391 . S
C1060 C1061 1.400 . S
C1061 C1055 1.491 . S
C1061 C1060 1.400 . S
C1061 C1062 1.398 . S
C1062 H1050 0.950 . S
C1062 C1061 1.398 . S
C1062 C1063 1.391 . S
C1063 H1051 0.950 . S
C1063 C1059 1.393 . S
C1063 C1062 1.391 . S
H1064 C1072 0.950 1_554 S
H1065 C1077 0.950 1_554 S
H1066 C1074 0.950 . S
H1067 C1076 0.950 . S
H1068 C1078 0.950 . S
H1069 C1080 0.950 . S
H1070 C1082 0.950 . S
H1071 C1083 0.950 . S
C1072 H1064 0.950 1_556 S
C1072 C1073 1.386 1_556 S
C1072 C1074 1.391 . S
C1073 C1072 1.386 1_554 S
C1073 C1077 1.393 1_554 S
C1074 H1066 0.950 . S
C1074 C1072 1.391 . S
C1074 C1075 1.400 . S
C1075 C1074 1.400 . S
C1075 C1076 1.398 . S
C1075 C1081 1.491 . S
C1076 H1067 0.950 . S
C1076 C1075 1.398 . S
C1076 C1077 1.391 . S
C1077 H1065 0.950 1_556 S
C1077 C1073 1.393 1_556 S
C1077 C1076 1.391 . S
C1078 H1068 0.950 . S
C1078 C1079 1.386 . S
C1078 C1080 1.391 . S
C1079 C1078 1.386 . S
C1079 C1083 1.393 . S
C1080 H1069 0.950 . S
C1080 C1078 1.391 . S
C1080 C1081 1.400 . S
C1081 C1075 1.491 . S
C1081 C1080 1.400 . S
C1081 C1082 1.398 . S
C1082 H1070 0.950 . S
C1082 C1081 1.398 . S
C1082 C1083 1.391 . S
C1083 H1071 0.950 . S
C1083 C1079 1.393 . S
C1083 C1082 1.391 . S
H1084 C1092 0.950 . S
H1085 C1097 0.950 1_554 S
H1086 C1094 0.950 . S
H1087 C1096 0.950 . S
H1088 C1098 0.950 . S
H1089 C1100 0.950 . S
H1090 C1102 0.950 . S
H1091 C1103 0.950 . S
C1092 H1084 0.950 . S
C1092 C1093 1.386 1_556 S
C1092 C1094 1.391 . S
C1093 C1092 1.386 1_554 S
C1093 C1097 1.393 1_554 S
C1094 H1086 0.950 . S
C1094 C1092 1.391 . S
C1094 C1095 1.400 . S
C1095 C1094 1.400 . S
C1095 C1096 1.398 . S
C1095 C1101 1.491 . S
C1096 H1087 0.950 . S
C1096 C1095 1.398 . S
C1096 C1097 1.391 . S
C1097 H1085 0.950 1_556 S
C1097 C1093 1.393 1_556 S
C1097 C1096 1.391 . S
C1098 H1088 0.950 . S
C1098 C1099 1.386 . S
C1098 C1100 1.391 . S
C1099 C1098 1.386 . S
C1099 C1103 1.393 . S
C1100 H1089 0.950 . S
C1100 C1098 1.391 . S
C1100 C1101 1.400 . S
C1101 C1095 1.491 . S
C1101 C1100 1.400 . S
C1101 C1102 1.398 . S
C1102 H1090 0.950 . S
C1102 C1101 1.398 . S
C1102 C1103 1.391 . S
C1103 H1091 0.950 . S
C1103 C1099 1.393 . S
C1103 C1102 1.391 . S
H1104 C1112 0.950 . S
H1105 C1117 0.950 . S
H1106 C1114 0.950 . S
H1107 C1116 0.950 . S
H1108 C1118 0.950 . S
H1109 C1120 0.950 . S
H1110 C1122 0.950 . S
H1111 C1123 0.950 . S
C1112 H1104 0.950 . S
C1112 C1113 1.386 . S
C1112 C1114 1.391 . S
C1113 C1112 1.386 . S
C1113 C1117 1.393 . S
C1114 H1106 0.950 . S
C1114 C1112 1.391 . S
C1114 C1115 1.400 . S
C1115 C1114 1.400 . S
C1115 C1116 1.398 . S
C1115 C1121 1.491 . S
C1116 H1107 0.950 . S
C1116 C1115 1.398 . S
C1116 C1117 1.391 . S
C1117 H1105 0.950 . S
C1117 C1113 1.393 . S
C1117 C1116 1.391 . S
C1118 H1108 0.950 . S
C1118 C1119 1.386 . S
C1118 C1120 1.391 . S
C1119 C1118 1.386 . S
C1119 C1123 1.393 . S
C1120 H1109 0.950 . S
C1120 C1118 1.391 . S
C1120 C1121 1.400 . S
C1121 C1115 1.491 . S
C1121 C1120 1.400 . S
C1121 C1122 1.398 . S
C1122 H1110 0.950 . S
C1122 C1121 1.398 . S
C1122 C1123 1.391 . S
C1123 H1111 0.950 . S
C1123 C1119 1.393 . S
C1123 C1122 1.391 . S
H1124 C1132 0.950 . S
H1125 C1137 0.950 . S
H1126 C1134 0.950 . S
H1127 C1136 0.950 . S
H1128 C1138 0.950 . S
H1129 C1140 0.950 . S
H1130 C1142 0.950 . S
H1131 C1143 0.950 . S
C1132 H1124 0.950 . S
C1132 C1133 1.386 . S
C1132 C1134 1.391 . S
C1133 C1132 1.386 . S
C1133 C1137 1.393 . S
C1134 H1126 0.950 . S
C1134 C1132 1.391 . S
C1134 C1135 1.400 . S
C1135 C1134 1.400 . S
C1135 C1136 1.398 . S
C1135 C1141 1.491 . S
C1136 H1127 0.950 . S
C1136 C1135 1.398 . S
C1136 C1137 1.391 . S
C1137 H1125 0.950 . S
C1137 C1133 1.393 . S
C1137 C1136 1.391 . S
C1138 H1128 0.950 . S
C1138 C1139 1.386 . S
C1138 C1140 1.391 . S
C1139 C1138 1.386 . S
C1139 C1143 1.393 . S
C1140 H1129 0.950 . S
C1140 C1138 1.391 . S
C1140 C1141 1.400 . S
C1141 C1135 1.491 . S
C1141 C1140 1.400 . S
C1141 C1142 1.398 . S
C1142 H1130 0.950 . S
C1142 C1141 1.398 . S
C1142 C1143 1.391 . S
C1143 H1131 0.950 . S
C1143 C1139 1.393 . S
C1143 C1142 1.391 . S
H1144 C1152 0.950 . S
H1145 C1157 0.950 . S
H1146 C1154 0.950 . S
H1147 C1156 0.950 . S
H1148 C1158 0.950 . S
H1149 C1160 0.950 . S
H1150 C1162 0.950 . S
H1151 C1163 0.950 . S
C1152 H1144 0.950 . S
C1152 C1153 1.386 . S
C1152 C1154 1.391 . S
C1153 C1152 1.386 . S
C1153 C1157 1.393 . S
C1154 H1146 0.950 . S
C1154 C1152 1.391 . S
C1154 C1155 1.400 . S
C1155 C1154 1.400 . S
C1155 C1156 1.398 . S
C1155 C1161 1.491 . S
C1156 H1147 0.950 . S
C1156 C1155 1.398 . S
C1156 C1157 1.391 . S
C1157 H1145 0.950 . S
C1157 C1153 1.393 . S
C1157 C1156 1.391 . S
C1158 H1148 0.950 . S
C1158 C1159 1.386 . S
C1158 C1160 1.391 . S
C1159 C1158 1.386 . S
C1159 C1163 1.393 . S
C1160 H1149 0.950 . S
C1160 C1158 1.391 . S
C1160 C1161 1.400 . S
C1161 C1155 1.491 . S
C1161 C1160 1.400 . S
C1161 C1162 1.398 . S
C1162 H1150 0.950 . S
C1162 C1161 1.398 . S
C1162 C1163 1.391 . S
C1163 H1151 0.950 . S
C1163 C1159 1.393 . S
C1163 C1162 1.391 . S
H1164 C1172 0.950 . S
H1165 C1177 0.950 . S
H1166 C1174 0.950 . S
H1167 C1176 0.950 . S
H1168 C1178 0.950 . S
H1169 C1180 0.950 . S
H1170 C1182 0.950 . S
H1171 C1183 0.950 . S
C1172 H1164 0.950 . S
C1172 C1173 1.386 . S
C1172 C1174 1.391 . S
C1173 C1172 1.386 . S
C1173 C1177 1.393 . S
C1174 H1166 0.950 . S
C1174 C1172 1.391 . S
C1174 C1175 1.400 . S
C1175 C1174 1.400 . S
C1175 C1176 1.398 . S
C1175 C1181 1.491 . S
C1176 H1167 0.950 . S
C1176 C1175 1.398 . S
C1176 C1177 1.391 . S
C1177 H1165 0.950 . S
C1177 C1173 1.393 . S
C1177 C1176 1.391 . S
C1178 H1168 0.950 . S
C1178 C1179 1.386 . S
C1178 C1180 1.391 . S
C1179 C1178 1.386 . S
C1179 C1183 1.393 . S
C1180 H1169 0.950 . S
C1180 C1178 1.391 . S
C1180 C1181 1.400 . S
C1181 C1175 1.491 . S
C1181 C1180 1.400 . S
C1181 C1182 1.398 . S
C1182 H1170 0.950 . S
C1182 C1181 1.398 . S
C1182 C1183 1.391 . S
C1183 H1171 0.950 . S
C1183 C1179 1.393 . S
C1183 C1182 1.391 . S
H1184 C1192 0.950 . S
H1185 C1197 0.950 . S
H1186 C1194 0.950 . S
H1187 C1196 0.950 . S
H1188 C1198 0.950 . S
H1189 C1200 0.950 . S
H1190 C1202 0.950 . S
H1191 C1203 0.950 . S
C1192 H1184 0.950 . S
C1192 C1193 1.386 . S
C1192 C1194 1.391 . S
C1193 C1192 1.386 . S
C1193 C1197 1.393 . S
C1194 H1186 0.950 . S
C1194 C1192 1.391 . S
C1194 C1195 1.400 . S
C1195 C1194 1.400 . S
C1195 C1196 1.398 . S
C1195 C1201 1.491 . S
C1196 H1187 0.950 . S
C1196 C1195 1.398 . S
C1196 C1197 1.391 . S
C1197 H1185 0.950 . S
C1197 C1193 1.393 . S
C1197 C1196 1.391 . S
C1198 H1188 0.950 . S
C1198 C1199 1.386 . S
C1198 C1200 1.391 . S
C1199 C1198 1.386 . S
C1199 C1203 1.393 . S
C1200 H1189 0.950 . S
C1200 C1198 1.391 . S
C1200 C1201 1.400 . S
C1201 C1195 1.491 . S
C1201 C1200 1.400 . S
C1201 C1202 1.398 . S
C1202 H1190 0.950 . S
C1202 C1201 1.398 . S
C1202 C1203 1.391 . S
C1203 H1191 0.950 . S
C1203 C1199 1.393 . S
C1203 C1202 1.391 . S
H1204 C1212 0.950 . S
H1205 C1217 0.950 . S
H1206 C1214 0.950 . S
H1207 C1216 0.950 . S
H1208 C1218 0.950 . S
H1209 C1220 0.950 . S
H1210 C1222 0.950 . S
H1211 C1223 0.950 . S
C1212 H1204 0.950 . S
C1212 C1213 1.386 . S
C1212 C1214 1.391 . S
C1213 C1212 1.386 . S
C1213 C1217 1.393 . S
C1214 H1206 0.950 . S
C1214 C1212 1.391 . S
C1214 C1215 1.400 . S
C1215 C1214 1.400 . S
C1215 C1216 1.398 . S
C1215 C1221 1.491 . S
C1216 H1207 0.950 . S
C1216 C1215 1.398 . S
C1216 C1217 1.391 . S
C1217 H1205 0.950 . S
C1217 C1213 1.393 . S
C1217 C1216 1.391 . S
C1218 H1208 0.950 . S
C1218 C1219 1.386 . S
C1218 C1220 1.391 . S
C1219 C1218 1.386 . S
C1219 C1223 1.393 . S
C1220 H1209 0.950 . S
C1220 C1218 1.391 . S
C1220 C1221 1.400 . S
C1221 C1215 1.491 . S
C1221 C1220 1.400 . S
C1221 C1222 1.398 . S
C1222 H1210 0.950 . S
C1222 C1221 1.398 . S
C1222 C1223 1.391 . S
C1223 H1211 0.950 . S
C1223 C1219 1.393 . S
C1223 C1222 1.391 . S
H1224 C1232 0.950 . S
H1225 C1237 0.950 . S
H1226 C1234 0.950 . S
H1227 C1236 0.950 . S
H1228 C1238 0.950 . S
H1229 C1240 0.950 . S
H1230 C1242 0.950 . S
H1231 C1243 0.950 . S
C1232 H1224 0.950 . S
C1232 C1233 1.386 . S
C1232 C1234 1.391 . S
C1233 C1232 1.386 . S
C1233 C1237 1.393 . S
C1234 H1226 0.950 . S
C1234 C1232 1.391 . S
C1234 C1235 1.400 . S
C1235 C1234 1.400 . S
C1235 C1236 1.398 . S
C1235 C1241 1.491 . S
C1236 H1227 0.950 . S
C1236 C1235 1.398 . S
C1236 C1237 1.391 . S
C1237 H1225 0.950 . S
C1237 C1233 1.393 . S
C1237 C1236 1.391 . S
C1238 H1228 0.950 . S
C1238 C1239 1.386 . S
C1238 C1240 1.391 . S
C1239 C1238 1.386 . S
C1239 C1243 1.393 . S
C1240 H1229 0.950 . S
C1240 C1238 1.391 . S
C1240 C1241 1.400 . S
C1241 C1235 1.491 . S
C1241 C1240 1.400 . S
C1241 C1242 1.398 . S
C1242 H1230 0.950 . S
C1242 C1241 1.398 . S
C1242 C1243 1.391 . S
C1243 H1231 0.950 . S
C1243 C1239 1.393 . S
C1243 C1242 1.391 . S
H1244 C1252 0.950 . S
H1245 C1257 0.950 . S
H1246 C1254 0.950 . S
H1247 C1256 0.950 . S
H1248 C1258 0.950 . S
H1249 C1260 0.950 . S
H1250 C1262 0.950 . S
H1251 C1263 0.950 . S
C1252 H1244 0.950 . S
C1252 C1253 1.386 . S
C1252 C1254 1.391 . S
C1253 C1252 1.386 . S
C1253 C1257 1.393 . S
C1254 H1246 0.950 . S
C1254 C1252 1.391 . S
C1254 C1255 1.400 . S
C1255 C1254 1.400 . S
C1255 C1256 1.398 . S
C1255 C1261 1.491 . S
C1256 H1247 0.950 . S
C1256 C1255 1.398 . S
C1256 C1257 1.391 . S
C1257 H1245 0.950 . S
C1257 C1253 1.393 . S
C1257 C1256 1.391 . S
C1258 H1248 0.950 . S
C1258 C1259 1.386 . S
C1258 C1260 1.391 . S
C1259 C1258 1.386 . S
C1259 C1263 1.393 . S
C1260 H1249 0.950 . S
C1260 C1258 1.391 . S
C1260 C1261 1.400 . S
C1261 C1255 1.491 . S
C1261 C1260 1.400 . S
C1261 C1262 1.398 . S
C1262 H1250 0.950 . S
C1262 C1261 1.398 . S
C1262 C1263 1.391 . S
C1263 H1251 0.950 . S
C1263 C1259 1.393 . S
C1263 C1262 1.391 . S
H1264 C1272 0.950 . S
H1265 C1277 0.950 . S
H1266 C1274 0.950 . S
H1267 C1276 0.950 . S
H1268 C1278 0.950 . S
H1269 C1280 0.950 . S
H1270 C1282 0.950 . S
H1271 C1283 0.950 . S
C1272 H1264 0.950 . S
C1272 C1273 1.386 . S
C1272 C1274 1.391 . S
C1273 C1272 1.386 . S
C1273 C1277 1.393 . S
C1274 H1266 0.950 . S
C1274 C1272 1.391 . S
C1274 C1275 1.400 . S
C1275 C1274 1.400 . S
C1275 C1276 1.398 . S
C1275 C1281 1.491 . S
C1276 H1267 0.950 . S
C1276 C1275 1.398 . S
C1276 C1277 1.391 . S
C1277 H1265 0.950 . S
C1277 C1273 1.393 . S
C1277 C1276 1.391 . S
C1278 H1268 0.950 . S
C1278 C1279 1.386 . S
C1278 C1280 1.391 . S
C1279 C1278 1.386 . S
C1279 C1283 1.393 . S
C1280 H1269 0.950 . S
C1280 C1278 1.391 . S
C1280 C1281 1.400 . S
C1281 C1275 1.491 . S
C1281 C1280 1.400 . S
C1281 C1282 1.398 . S
C1282 H1270 0.950 . S
C1282 C1281 1.398 . S
C1282 C1283 1.391 . S
C1283 H1271 0.950 . S
C1283 C1279 1.393 . S
C1283 C1282 1.391 . S
H1284 C1292 0.950 . S
H1285 C1297 0.950 . S
H1286 C1294 0.950 . S
H1287 C1296 0.950 . S
H1288 C1298 0.950 . S
H1289 C1300 0.950 . S
H1290 C1302 0.950 . S
H1291 C1303 0.950 . S
C1292 H1284 0.950 . S
C1292 C1293 1.386 . S
C1292 C1294 1.391 . S
C1293 C1292 1.386 . S
C1293 C1297 1.393 . S
C1294 H1286 0.950 . S
C1294 C1292 1.391 . S
C1294 C1295 1.400 . S
C1295 C1294 1.400 . S
C1295 C1296 1.398 . S
C1295 C1301 1.491 . S
C1296 H1287 0.950 . S
C1296 C1295 1.398 . S
C1296 C1297 1.391 . S
C1297 H1285 0.950 . S
C1297 C1293 1.393 . S
C1297 C1296 1.391 . S
C1298 H1288 0.950 . S
C1298 C1299 1.386 . S
C1298 C1300 1.391 . S
C1299 C1298 1.386 . S
C1299 C1303 1.393 . S
C1300 H1289 0.950 . S
C1300 C1298 1.391 . S
C1300 C1301 1.400 . S
C1301 C1295 1.491 . S
C1301 C1300 1.400 . S
C1301 C1302 1.398 . S
C1302 H1290 0.950 . S
C1302 C1301 1.398 . S
C1302 C1303 1.391 . S
C1303 H1291 0.950 . S
C1303 C1299 1.393 . S
C1303 C1302 1.391 . S
H1304 C1312 0.950 . S
H1305 C1317 0.950 . S
H1306 C1314 0.950 . S
H1307 C1316 0.950 . S
H1308 C1318 0.950 . S
H1309 C1320 0.950 . S
H1310 C1322 0.950 . S
H1311 C1323 0.950 . S
C1312 H1304 0.950 . S
C1312 C1313 1.386 . S
C1312 C1314 1.391 . S
C1313 C1312 1.386 . S
C1313 C1317 1.393 . S
C1314 H1306 0.950 . S
C1314 C1312 1.391 . S
C1314 C1315 1.400 . S
C1315 C1314 1.400 . S
C1315 C1316 1.398 . S
C1315 C1321 1.491 . S
C1316 H1307 0.950 . S
C1316 C1315 1.398 . S
C1316 C1317 1.391 . S
C1317 H1305 0.950 . S
C1317 C1313 1.393 . S
C1317 C1316 1.391 . S
C1318 H1308 0.950 . S
C1318 C1319 1.386 . S
C1318 C1320 1.391 . S
C1319 C1318 1.386 . S
C1319 C1323 1.393 . S
C1320 H1309 0.950 . S
C1320 C1318 1.391 . S
C1320 C1321 1.400 . S
C1321 C1315 1.491 . S
C1321 C1320 1.400 . S
C1321 C1322 1.398 . S
C1322 H1310 0.950 . S
C1322 C1321 1.398 . S
C1322 C1323 1.391 . S
C1323 H1311 0.950 . S
C1323 C1319 1.393 . S
C1323 C1322 1.391 . S
H1324 C1332 0.950 . S
H1325 C1337 0.950 . S
H1326 C1334 0.950 . S
H1327 C1336 0.950 . S
H1328 C1338 0.950 . S
H1329 C1340 0.950 . S
H1330 C1342 0.950 . S
H1331 C1343 0.950 . S
C1332 H1324 0.950 . S
C1332 C1333 1.386 . S
C1332 C1334 1.391 . S
C1333 C1332 1.386 . S
C1333 C1337 1.393 . S
C1334 H1326 0.950 . S
C1334 C1332 1.391 . S
C1334 C1335 1.400 . S
C1335 C1334 1.400 . S
C1335 C1336 1.398 . S
C1335 C1341 1.491 . S
C1336 H1327 0.950 . S
C1336 C1335 1.398 . S
C1336 C1337 1.391 . S
C1337 H1325 0.950 . S
C1337 C1333 1.393 . S
C1337 C1336 1.391 . S
C1338 H1328 0.950 . S
C1338 C1339 1.386 . S
C1338 C1340 1.391 . S
C1339 C1338 1.386 . S
C1339 C1343 1.393 . S
C1340 H1329 0.950 . S
C1340 C1338 1.391 . S
C1340 C1341 1.400 . S
C1341 C1335 1.491 . S
C1341 C1340 1.400 . S
C1341 C1342 1.398 . S
C1342 H1330 0.950 . S
C1342 C1341 1.398 . S
C1342 C1343 1.391 . S
C1343 H1331 0.950 . S
C1343 C1339 1.393 . S
C1343 C1342 1.391 . S
C553 C360 1.567 . S
C559 C20 1.558 . S
C573 C67 1.590 . S
C579 C258 1.587 . S
C593 C543 1.548 . S
C599 C54 1.529 . S
C613 C101 1.576 . S
C619 C33 1.572 . S
C633 C88 1.572 . S
C639 C292 1.558 . S
C653 C203 1.598 . S
C659 C122 1.590 . S
C673 C462 1.538 . S
C679 C135 1.553 . S
C693 C496 1.568 . S
C699 C156 1.555 . S
C713 C190 1.533 . S
C719 C407 1.549 . S
C733 C237 1.574 . S
C739 C169 1.570 . S
C753 C428 1.556 . S
C759 C224 1.570 . S
C773 C326 1.541 . S
C779 C271 1.554 . S
C793 C530 1.594 . S
C799 C339 1.600 . S
C813 C305 1.560 . S
C819 C373 1.570 . S
C833 C394 1.589 . S
C839 C475 1.597 . S
C853 C509 1.579 . S
C859 C441 1.574 . S
C873 C9 1.207 . S
C879 C5 1.262 . S
C893 C43 1.246 . S
C899 C39 1.288 . S
C913 C77 1.236 . S
C919 C73 1.254 . S
C933 C107 1.243 . S
C939 C111 1.198 . S
C953 C141 1.268 . S
C959 C145 1.238 1_554 S
C973 C179 1.224 . S
C979 C175 1.286 . S
C993 C213 1.240 . S
C999 C209 1.257 . S
C1013 C247 1.197 . S
C1019 C243 1.243 . S
C1033 C281 1.209 1_554 S
C1039 C277 1.261 . S
C1053 C311 1.277 . S
C1059 C315 1.239 . S
C1073 C349 1.226 . S
C1079 C345 1.263 . S
C1093 C383 1.209 . S
C1099 C379 1.254 . S
C1113 C417 1.208 . S
C1119 C413 1.261 . S
C1133 C451 1.241 . S
C1139 C447 1.289 . S
C1153 C485 1.236 . S
C1159 C481 1.254 . S
C1173 C515 1.254 . S
C1179 C519 1.220 . S
C1193 C2 1.574 . S
C1199 C36 1.573 . S
C1213 C70 1.524 . S
C1219 C104 1.521 . S
C1233 C138 1.578 . S
C1239 C172 1.579 . S
C1253 C206 1.524 . S
C1259 C240 1.524 . S
C1273 C308 1.578 . S
C1279 C274 1.579 . S
C1293 C342 1.521 . S
C1299 C376 1.523 . S
C1313 C444 1.579 . S
C1319 C410 1.568 . S
C1333 C512 1.519 . S
C1339 C478 1.521 . S
