# Generated by pormake.
# Topology uke, (4)-cn, num edge types: 1
# Building blocks:
#     Node 0, Type 0, BuildingBlock: AZAVOO_clean_sbu_0, # of connection points: 4
#     Node 1, Type 0, BuildingBlock: AZAVOO_clean_sbu_0, # of connection points: 4
#     Node 2, Type 0, BuildingBlock: AZAVOO_clean_sbu_0, # of connection points: 4
#     Node 3, Type 0, BuildingBlock: AZAVOO_clean_sbu_0, # of connection points: 4
#     Node 4, Type 0, BuildingBlock: AZAVOO_clean_sbu_0, # of connection points: 4
#     Node 5, Type 0, BuildingBlock: AZAVOO_clean_sbu_0, # of connection points: 4
#     Node 6, Type 0, BuildingBlock: AZAVOO_clean_sbu_0, # of connection points: 4
#     Node 7, Type 0, BuildingBlock: AZAVOO_clean_sbu_0, # of connection points: 4
#     Node 8, Type 0, BuildingBlock: AZAVOO_clean_sbu_0, # of connection points: 4
#     Node 9, Type 0, BuildingBlock: AZAVOO_clean_sbu_0, # of connection points: 4
#     Node 10, Type 0, BuildingBlock: AZAVOO_clean_sbu_0, # of connection points: 4
#     Node 11, Type 0, BuildingBlock: AZAVOO_clean_sbu_0, # of connection points: 4
#     Node 12, Type 0, BuildingBlock: AZAVOO_clean_sbu_0, # of connection points: 4
#     Node 13, Type 0, BuildingBlock: AZAVOO_clean_sbu_0, # of connection points: 4
#     Node 14, Type 0, BuildingBlock: AZAVOO_clean_sbu_0, # of connection points: 4
#     Node 15, Type 0, BuildingBlock: AZAVOO_clean_sbu_0, # of connection points: 4
#     Node 16, Type 0, BuildingBlock: AZAVOO_clean_sbu_0, # of connection points: 4
#     Node 17, Type 0, BuildingBlock: AZAVOO_clean_sbu_0, # of connection points: 4
#     Node 18, Type 0, BuildingBlock: AZAVOO_clean_sbu_0, # of connection points: 4
#     Node 19, Type 0, BuildingBlock: AZAVOO_clean_sbu_0, # of connection points: 4
#     Node 20, Type 0, BuildingBlock: AZAVOO_clean_sbu_0, # of connection points: 4
#     Node 21, Type 0, BuildingBlock: AZAVOO_clean_sbu_0, # of connection points: 4
#     Node 22, Type 0, BuildingBlock: AZAVOO_clean_sbu_0, # of connection points: 4
#     Node 23, Type 0, BuildingBlock: AZAVOO_clean_sbu_0, # of connection points: 4
#     Node 24, Type 0, BuildingBlock: AZAVOO_clean_sbu_0, # of connection points: 4
#     Node 25, Type 0, BuildingBlock: AZAVOO_clean_sbu_0, # of connection points: 4
#     Node 26, Type 0, BuildingBlock: AZAVOO_clean_sbu_0, # of connection points: 4
#     Node 27, Type 0, BuildingBlock: AZAVOO_clean_sbu_0, # of connection points: 4
#     Node 28, Type 0, BuildingBlock: AZAVOO_clean_sbu_0, # of connection points: 4
#     Node 29, Type 0, BuildingBlock: AZAVOO_clean_sbu_0, # of connection points: 4
#     Node 30, Type 0, BuildingBlock: AZAVOO_clean_sbu_0, # of connection points: 4
#     Node 31, Type 0, BuildingBlock: AZAVOO_clean_sbu_0, # of connection points: 4
#     Edge 32, Type (0, 0), BuildingBlock: XUDNAN_clean_linker_2, # of connection points: 2
#     Edge 33, Type (0, 0), BuildingBlock: XUDNAN_clean_linker_2, # of connection points: 2
#     Edge 34, Type (0, 0), BuildingBlock: XUDNAN_clean_linker_2, # of connection points: 2
#     Edge 35, Type (0, 0), BuildingBlock: XUDNAN_clean_linker_2, # of connection points: 2
#     Edge 36, Type (0, 0), BuildingBlock: XUDNAN_clean_linker_2, # of connection points: 2
#     Edge 37, Type (0, 0), BuildingBlock: XUDNAN_clean_linker_2, # of connection points: 2
#     Edge 38, Type (0, 0), BuildingBlock: XUDNAN_clean_linker_2, # of connection points: 2
#     Edge 39, Type (0, 0), BuildingBlock: XUDNAN_clean_linker_2, # of connection points: 2
#     Edge 40, Type (0, 0), BuildingBlock: XUDNAN_clean_linker_2, # of connection points: 2
#     Edge 41, Type (0, 0), BuildingBlock: XUDNAN_clean_linker_2, # of connection points: 2
#     Edge 42, Type (0, 0), BuildingBlock: XUDNAN_clean_linker_2, # of connection points: 2
#     Edge 43, Type (0, 0), BuildingBlock: XUDNAN_clean_linker_2, # of connection points: 2
#     Edge 44, Type (0, 0), BuildingBlock: XUDNAN_clean_linker_2, # of connection points: 2
#     Edge 45, Type (0, 0), BuildingBlock: XUDNAN_clean_linker_2, # of connection points: 2
#     Edge 46, Type (0, 0), BuildingBlock: XUDNAN_clean_linker_2, # of connection points: 2
#     Edge 47, Type (0, 0), BuildingBlock: XUDNAN_clean_linker_2, # of connection points: 2
#     Edge 48, Type (0, 0), BuildingBlock: XUDNAN_clean_linker_2, # of connection points: 2
#     Edge 49, Type (0, 0), BuildingBlock: XUDNAN_clean_linker_2, # of connection points: 2
#     Edge 50, Type (0, 0), BuildingBlock: XUDNAN_clean_linker_2, # of connection points: 2
#     Edge 51, Type (0, 0), BuildingBlock: XUDNAN_clean_linker_2, # of connection points: 2
#     Edge 52, Type (0, 0), BuildingBlock: XUDNAN_clean_linker_2, # of connection points: 2
#     Edge 53, Type (0, 0), BuildingBlock: XUDNAN_clean_linker_2, # of connection points: 2
#     Edge 54, Type (0, 0), BuildingBlock: XUDNAN_clean_linker_2, # of connection points: 2
#     Edge 55, Type (0, 0), BuildingBlock: XUDNAN_clean_linker_2, # of connection points: 2
#     Edge 56, Type (0, 0), BuildingBlock: XUDNAN_clean_linker_2, # of connection points: 2
#     Edge 57, Type (0, 0), BuildingBlock: XUDNAN_clean_linker_2, # of connection points: 2
#     Edge 58, Type (0, 0), BuildingBlock: XUDNAN_clean_linker_2, # of connection points: 2
#     Edge 59, Type (0, 0), BuildingBlock: XUDNAN_clean_linker_2, # of connection points: 2
#     Edge 60, Type (0, 0), BuildingBlock: XUDNAN_clean_linker_2, # of connection points: 2
#     Edge 61, Type (0, 0), BuildingBlock: XUDNAN_clean_linker_2, # of connection points: 2
#     Edge 62, Type (0, 0), BuildingBlock: XUDNAN_clean_linker_2, # of connection points: 2
#     Edge 63, Type (0, 0), BuildingBlock: XUDNAN_clean_linker_2, # of connection points: 2
#     Edge 64, Type (0, 0), BuildingBlock: XUDNAN_clean_linker_2, # of connection points: 2
#     Edge 65, Type (0, 0), BuildingBlock: XUDNAN_clean_linker_2, # of connection points: 2
#     Edge 66, Type (0, 0), BuildingBlock: XUDNAN_clean_linker_2, # of connection points: 2
#     Edge 67, Type (0, 0), BuildingBlock: XUDNAN_clean_linker_2, # of connection points: 2
#     Edge 68, Type (0, 0), BuildingBlock: XUDNAN_clean_linker_2, # of connection points: 2
#     Edge 69, Type (0, 0), BuildingBlock: XUDNAN_clean_linker_2, # of connection points: 2
#     Edge 70, Type (0, 0), BuildingBlock: XUDNAN_clean_linker_2, # of connection points: 2
#     Edge 71, Type (0, 0), BuildingBlock: XUDNAN_clean_linker_2, # of connection points: 2
#     Edge 72, Type (0, 0), BuildingBlock: XUDNAN_clean_linker_2, # of connection points: 2
#     Edge 73, Type (0, 0), BuildingBlock: XUDNAN_clean_linker_2, # of connection points: 2
#     Edge 74, Type (0, 0), BuildingBlock: XUDNAN_clean_linker_2, # of connection points: 2
#     Edge 75, Type (0, 0), BuildingBlock: XUDNAN_clean_linker_2, # of connection points: 2
#     Edge 76, Type (0, 0), BuildingBlock: XUDNAN_clean_linker_2, # of connection points: 2
#     Edge 77, Type (0, 0), BuildingBlock: XUDNAN_clean_linker_2, # of connection points: 2
#     Edge 78, Type (0, 0), BuildingBlock: XUDNAN_clean_linker_2, # of connection points: 2
#     Edge 79, Type (0, 0), BuildingBlock: XUDNAN_clean_linker_2, # of connection points: 2
#     Edge 80, Type (0, 0), BuildingBlock: XUDNAN_clean_linker_2, # of connection points: 2
#     Edge 81, Type (0, 0), BuildingBlock: XUDNAN_clean_linker_2, # of connection points: 2
#     Edge 82, Type (0, 0), BuildingBlock: XUDNAN_clean_linker_2, # of connection points: 2
#     Edge 83, Type (0, 0), BuildingBlock: XUDNAN_clean_linker_2, # of connection points: 2
#     Edge 84, Type (0, 0), BuildingBlock: XUDNAN_clean_linker_2, # of connection points: 2
#     Edge 85, Type (0, 0), BuildingBlock: XUDNAN_clean_linker_2, # of connection points: 2
#     Edge 86, Type (0, 0), BuildingBlock: XUDNAN_clean_linker_2, # of connection points: 2
#     Edge 87, Type (0, 0), BuildingBlock: XUDNAN_clean_linker_2, # of connection points: 2
#     Edge 88, Type (0, 0), BuildingBlock: XUDNAN_clean_linker_2, # of connection points: 2
#     Edge 89, Type (0, 0), BuildingBlock: XUDNAN_clean_linker_2, # of connection points: 2
#     Edge 90, Type (0, 0), BuildingBlock: XUDNAN_clean_linker_2, # of connection points: 2
#     Edge 91, Type (0, 0), BuildingBlock: XUDNAN_clean_linker_2, # of connection points: 2
#     Edge 92, Type (0, 0), BuildingBlock: XUDNAN_clean_linker_2, # of connection points: 2
#     Edge 93, Type (0, 0), BuildingBlock: XUDNAN_clean_linker_2, # of connection points: 2
#     Edge 94, Type (0, 0), BuildingBlock: XUDNAN_clean_linker_2, # of connection points: 2
#     Edge 95, Type (0, 0), BuildingBlock: XUDNAN_clean_linker_2, # of connection points: 2
# Relax obj value: 0.246
# Max RMSD: 0.250
# Mean RMSD: 0.250
data_MOF--net-uke--node1-AZAVOO_clean_sbu_0--edge1-XUDNAN_clean_linker_2
_symmetry_space_group_name_H-M    P1
_symmetry_Int_Tables_number       1
_symmetry_cell_setting            triclinic
loop_
_symmetry_equiv_pos_as_xyz
'x, y, z'
_cell_length_a     29.897724
_cell_length_b     105.7804
_cell_length_c     41.985932
_cell_angle_alpha  90.037203
_cell_angle_beta   90.071456
_cell_angle_gamma 90.143225
loop_
_atom_site_label
_atom_site_type_symbol
_atom_site_fract_x
_atom_site_fract_y
_atom_site_fract_z
_atom_type_partial_charge
Mg0 Mg 0.09216 0.05197 0.29934 0.0
O1 O 0.08388 0.05235 0.24525 0.0
O2 O 0.04883 0.07024 0.23176 0.0
Mg3 Mg 0.02861 0.08027 0.27749 0.0
C4 C 0.06821 0.05992 0.22447 0.0
C5 C 0.14166 0.02686 0.3149 0.0
O6 O 0.14945 0.03261 0.3421 0.0
O7 O 0.02008 0.04513 0.30569 0.0
O8 O -0.01273 0.06338 0.29364 0.0
O9 O 0.15442 0.06374 0.29503 0.0
O10 O 0.08655 0.07165 0.30072 0.0
C11 C -0.01494 0.05188 0.30269 0.0
C12 C 0.12847 0.0735 0.29567 0.0
O13 O 0.11713 0.03214 0.29422 0.0
Mg14 Mg 0.1365 0.18867 0.30031 0.0
O15 O 0.15076 0.19042 0.24727 0.0
O16 O 0.21243 0.1799 0.234 0.0
Mg17 Mg 0.24218 0.17304 0.28146 0.0
C18 C 0.1784 0.18651 0.22652 0.0
C19 C 0.06071 0.21004 0.31072 0.0
O20 O 0.06384 0.20785 0.34143 0.0
O21 O 0.1887 0.20355 0.3135 0.0
O22 O 0.25158 0.19308 0.30197 0.0
O23 O 0.1044 0.16969 0.29119 0.0
O24 O 0.17544 0.17246 0.30384 0.0
C25 C 0.23133 0.20285 0.31257 0.0
C26 C 0.1436 0.16489 0.29631 0.0
O27 O 0.08408 0.20367 0.2913 0.0
Mg28 Mg 0.08424 0.1878 0.92744 0.0
O29 O 0.09086 0.18737 0.98163 0.0
O30 O 0.04864 0.17204 0.00218 0.0
Mg31 Mg 0.01093 0.16307 0.96014 0.0
C32 C 0.07654 0.18107 0.00532 0.0
C33 C 0.16694 0.20482 0.93172 0.0
O34 O 0.18482 0.19363 0.92726 0.0
O35 O 0.01629 0.19803 0.9298 0.0
O36 O 0.9763 0.18147 0.94651 0.0
O37 O 0.1341 0.17167 0.92146 0.0
O38 O 0.06115 0.16928 0.92558 0.0
C39 C 0.97868 0.19286 0.93648 0.0
C40 C 0.09958 0.16429 0.92187 0.0
O41 O 0.12468 0.20593 0.93021 0.0
Mg42 Mg 0.12649 0.05182 0.92138 0.0
O43 O 0.12324 0.05396 0.97508 0.0
O44 O 0.15583 0.07191 -0.00934 0.0
Mg45 Mg 0.1815 0.08151 0.94544 0.0
C46 C 0.13514 0.06164 -0.00313 0.0
C47 C 0.06611 0.02836 0.93567 0.0
O48 O 0.0346 0.03687 0.93202 0.0
O49 O 0.20036 0.04668 0.92458 0.0
O50 O 0.23039 0.06529 0.93853 0.0
O51 O 0.06319 0.06338 0.91627 0.0
O52 O 0.13187 0.07119 0.91674 0.0
C53 C 0.23406 0.05359 0.93155 0.0
C54 C 0.08959 0.0731 0.9164 0.0
O55 O 0.10644 0.03137 0.9299 0.0
Mg56 Mg 0.88994 0.93853 0.68077 0.0
O57 O 0.89798 0.94154 0.73419 0.0
O58 O 0.95265 0.92926 0.75286 0.0
Mg59 Mg 0.98405 0.91968 0.70938 0.0
C60 C 0.92127 0.93722 0.75711 0.0
C61 C 0.80614 0.95702 0.67294 0.0
O62 O 0.78658 0.94779 0.65722 0.0
O63 O 0.95063 0.9506 0.66937 0.0
O64 O 0.00689 0.93847 0.68643 0.0
O65 O 0.845 0.92215 0.69092 0.0
O66 O 0.91852 0.92072 0.68494 0.0
C67 C -0.00777 0.94857 0.67343 0.0
C68 C 0.88109 0.91542 0.69221 0.0
O69 O 0.84624 0.95581 0.68229 0.0
Mg70 Mg 0.84887 0.8011 0.68434 0.0
O71 O 0.82625 0.80452 0.73553 0.0
O72 O 0.78072 0.82113 0.73749 0.0
Mg73 Mg 0.77024 0.82747 0.68605 0.0
C74 C 0.8025 0.81232 0.75121 0.0
C75 C 0.91283 0.77769 0.69653 0.0
O76 O 0.93937 0.78308 0.67561 0.0
O77 O 0.78288 0.79181 0.67071 0.0
O78 O 0.73762 0.80857 0.67279 0.0
O79 O 0.90286 0.81518 0.69341 0.0
O80 O 0.8366 0.81994 0.67314 0.0
C81 C 0.7443 0.7968 0.66795 0.0
C82 C 0.87429 0.82369 0.68463 0.0
O83 O 0.87519 0.78259 0.70271 0.0
Mg84 Mg 0.88677 0.80126 0.04577 0.0
O85 O 0.88809 0.80399 -0.00803 0.0
O86 O 0.9318 0.82044 0.98029 0.0
Mg87 Mg 0.96394 0.82695 0.02705 0.0
C88 C 0.90507 0.81163 0.97197 0.0
C89 C 0.81328 0.78036 0.03462 0.0
O90 O 0.78585 0.78857 0.0475 0.0
O91 O 0.95445 0.79184 0.04731 0.0
O92 O 1e-05 0.80814 0.03772 0.0
O93 O 0.8322 0.81543 0.04652 0.0
O94 O 0.90378 0.82026 0.05292 0.0
C95 C -0.00651 0.79648 0.04412 0.0
C96 C 0.86318 0.82397 0.04886 0.0
O97 O 0.8549 0.7826 0.03399 0.0
Mg98 Mg 0.84223 0.94054 0.05022 0.0
O99 O 0.82899 0.94238 -0.00336 0.0
O100 O 0.77659 0.92868 0.97991 0.0
Mg101 Mg 0.74353 0.92087 0.02473 0.0
C102 C 0.80623 0.93712 0.97457 0.0
C103 C 0.93347 0.95647 0.04905 0.0
O104 O 0.95161 0.94639 0.06193 0.0
O105 O 0.78661 0.95534 0.06294 0.0
O106 O 0.74659 0.93983 0.04545 0.0
O107 O 0.88201 0.92263 0.04046 0.0
O108 O 0.80952 0.92209 0.0488 0.0
C109 C 0.7482 0.95073 0.05738 0.0
C110 C 0.84538 0.91614 0.04142 0.0
O111 O 0.89155 0.95673 0.04412 0.0
Mg112 Mg 0.09721 0.54853 0.80258 0.0
O113 O 0.07878 0.54849 0.7501 0.0
O114 O 0.0304 0.56387 0.73902 0.0
Mg115 Mg 0.01348 0.5728 0.7873 0.0
C116 C 0.05515 0.55469 0.73038 0.0
C117 C 0.17132 0.5291 0.78882 0.0
O118 O 0.19666 0.5387 0.79709 0.0
O119 O 0.03297 0.53899 0.81633 0.0
O120 O 0.98302 0.55434 0.80794 0.0
O121 O 0.14982 0.56263 0.79295 0.0
O122 O 0.08034 0.56766 0.80632 0.0
C123 C -0.00688 0.54316 0.81704 0.0
C124 C 0.1198 0.57122 0.79774 0.0
O125 O 0.12929 0.52985 0.79199 0.0
Mg126 Mg 0.14354 0.68733 0.79431 0.0
O127 O 0.1531 0.68469 0.74058 0.0
O128 O 0.20983 0.67133 0.73357 0.0
Mg129 Mg 0.24073 0.66697 0.78216 0.0
C130 C 0.17809 0.67808 0.72258 0.0
C131 C 0.06341 0.70633 0.7993 0.0
O132 O 0.05521 0.70006 0.82566 0.0
O133 O 0.20245 0.70093 0.79977 0.0
O134 O 0.2593 0.6874 0.79494 0.0
O135 O 0.1024 0.66944 0.7947 0.0
O136 O 0.17502 0.67036 0.8041 0.0
C137 C 0.24421 0.69847 0.80043 0.0
C138 C 0.13964 0.66363 0.80051 0.0
O139 O 0.09677 0.7033 0.78234 0.0
Mg140 Mg 0.09378 0.68758 0.43614 0.0
O141 O 0.07879 0.6843 0.48919 0.0
O142 O 0.03519 0.66716 0.49136 0.0
Mg143 Mg 0.01737 0.66061 0.44107 0.0
C144 C 0.05786 0.67586 0.50499 0.0
C145 C 0.16258 0.70841 0.43554 0.0
O146 O 0.17783 0.70013 0.4149 0.0
O147 O 0.02613 0.69673 0.42633 0.0
O148 O 0.98436 0.67919 0.42577 0.0
O149 O 0.14968 0.67378 0.44124 0.0
O150 O 0.0815 0.66852 0.4257 0.0
C151 C -0.01106 0.69109 0.42181 0.0
C152 C 0.12096 0.66505 0.4341 0.0
O153 O 0.12522 0.70631 0.44885 0.0
Mg154 Mg 0.14024 0.54848 0.4307 0.0
O155 O 0.14051 0.54761 0.48577 0.0
O156 O 0.18572 0.56242 0.50673 0.0
Mg157 Mg 0.23481 0.56569 0.46588 0.0
C158 C 0.1552 0.554 0.50945 0.0
C159 C 0.05152 0.53513 0.4454 0.0
O160 O 0.04341 0.54682 0.45416 0.0
O161 O 0.19774 0.5342 0.42364 0.0
O162 O 0.23019 0.54449 0.46134 0.0
O163 O 0.10184 0.56663 0.43383 0.0
O164 O 0.17573 0.56611 0.43314 0.0
C165 C 0.23401 0.53799 0.43613 0.0
C166 C 0.13955 0.57259 0.43593 0.0
O167 O 0.08864 0.53264 0.4321 0.0
Mg168 Mg 0.89053 0.43762 0.17845 0.0
O169 O 0.89312 0.4409 0.23229 0.0
O170 O 0.95146 0.43051 0.25256 0.0
Mg171 Mg -0.00924 0.42236 0.21078 0.0
C172 C 0.91658 0.43728 0.25588 0.0
C173 C 0.80737 0.45445 0.19605 0.0
O174 O 0.80082 0.44537 0.2169 0.0
O175 O 0.94601 0.45184 0.16864 0.0
O176 O 0.00565 0.44171 0.18799 0.0
O177 O 0.85473 0.41921 0.18674 0.0
O178 O 0.92806 0.42106 0.18305 0.0
C179 C -0.01211 0.45119 0.17411 0.0
C180 C 0.89385 0.41397 0.18804 0.0
O181 O 0.83886 0.45337 0.1759 0.0
Mg182 Mg 0.84612 0.29958 0.1769 0.0
O183 O 0.83454 0.30112 0.23022 0.0
O184 O 0.79452 0.31828 0.24195 0.0
Mg185 Mg 0.77256 0.32632 0.19414 0.0
C186 C 0.81657 0.30854 0.25028 0.0
C187 C 0.91475 0.27763 0.18988 0.0
O188 O 0.94402 0.28556 0.17785 0.0
O189 O 0.77663 0.29121 0.16942 0.0
O190 O 0.73544 0.30817 0.18081 0.0
O191 O 0.90362 0.313 0.18214 0.0
O192 O 0.83446 0.31907 0.17175 0.0
C193 C 0.73876 0.29659 0.17259 0.0
C194 C 0.87509 0.32209 0.17866 0.0
O195 O 0.87344 0.28031 0.18916 0.0
Mg196 Mg 0.88448 0.3007 0.55151 0.0
O197 O 0.88343 0.30293 0.49787 0.0
O198 O 0.917 0.32078 0.48275 0.0
Mg199 Mg 0.94239 0.33013 0.52855 0.0
C200 C 0.89599 0.31058 0.47629 0.0
C201 C 0.82009 0.27774 0.53899 0.0
O202 O 0.79025 0.28653 0.54484 0.0
O203 O 0.9586 0.29522 0.55037 0.0
O204 O -0.00942 0.31371 0.53749 0.0
O205 O 0.82205 0.31264 0.55551 0.0
O206 O 0.89112 0.32014 0.55648 0.0
C207 C -0.00677 0.30201 0.54483 0.0
C208 C 0.84895 0.32224 0.55619 0.0
O209 O 0.86139 0.28036 0.5424 0.0
Mg210 Mg 0.83984 0.43775 0.55019 0.0
O211 O 0.8306 0.4382 0.49649 0.0
O212 O 0.77887 0.42421 0.48137 0.0
Mg213 Mg 0.75187 0.41522 0.52734 0.0
C214 C 0.80776 0.43271 0.47498 0.0
C215 C 0.91118 0.45747 0.52567 0.0
O216 O 0.92667 0.44755 0.51045 0.0
O217 O 0.77528 0.44871 0.55853 0.0
O218 O 0.72415 0.4339 0.54681 0.0
O219 O 0.88701 0.42085 0.54682 0.0
O220 O 0.81401 0.41961 0.55329 0.0
C221 C 0.73474 0.44495 0.55659 0.0
C222 C 0.85151 0.41397 0.55058 0.0
O223 O 0.87879 0.45612 0.54495 0.0
Mg224 Mg 0.6077 0.04893 0.80958 0.0
O225 O 0.58345 0.04944 0.75806 0.0
O226 O 0.54836 0.06765 0.74825 0.0
Mg227 Mg 0.51922 0.07104 0.79774 0.0
C228 C 0.56793 0.05763 0.73881 0.0
C229 C 0.67931 0.02904 0.78747 0.0
O230 O 0.70829 0.03811 0.79312 0.0
O231 O 0.54656 0.03899 0.82789 0.0
O232 O 0.50059 0.04983 0.79745 0.0
O233 O 0.65397 0.06452 0.7959 0.0
O234 O 0.58702 0.06744 0.81744 0.0
C235 C 0.50696 0.04182 0.81959 0.0
C236 C 0.62231 0.07214 0.80456 0.0
O237 O 0.63852 0.03053 0.79459 0.0
Mg238 Mg 0.61434 0.18532 0.78503 0.0
O239 O 0.63844 0.18375 0.73353 0.0
O240 O 0.68572 0.16751 0.7302 0.0
Mg241 Mg 0.6934 0.15886 0.77976 0.0
C242 C 0.66395 0.17654 0.71735 0.0
C243 C 0.58275 0.21319 0.79406 0.0
O244 O 0.59966 0.21111 0.82247 0.0
O245 O 0.68079 0.19432 0.80158 0.0
O246 O 0.72309 0.17691 0.80076 0.0
O247 O 0.56059 0.17105 0.77318 0.0
O248 O 0.62742 0.16624 0.79221 0.0
C249 C 0.71762 0.18861 0.80711 0.0
C250 C 0.58969 0.16256 0.781 0.0
O251 O 0.58396 0.20444 0.77336 0.0
Mg252 Mg 0.57415 0.19255 0.42518 0.0
O253 O 0.5771 0.18857 0.47831 0.0
O254 O 0.52336 0.17492 0.49184 0.0
Mg255 Mg 0.481 0.17164 0.44712 0.0
C256 C 0.55722 0.18173 0.49877 0.0
C257 C 0.66584 0.2074 0.43161 0.0
O258 O 0.68166 0.19697 0.41893 0.0
O259 O 0.51427 0.20592 0.42942 0.0
O260 O 0.45959 0.19237 0.44232 0.0
O261 O 0.61343 0.1745 0.41825 0.0
O262 O 0.53974 0.1757 0.41696 0.0
C263 C 0.47333 0.20353 0.43589 0.0
C264 C 0.57503 0.16885 0.41615 0.0
O265 O 0.62385 0.20853 0.43533 0.0
Mg266 Mg 0.6083 0.05444 0.43858 0.0
O267 O 0.62094 0.05434 0.49193 0.0
O268 O 0.66491 0.0705 0.50587 0.0
Mg269 Mg 0.68216 0.08104 0.46016 0.0
C270 C 0.64191 0.06073 0.51291 0.0
C271 C 0.56131 0.02829 0.42205 0.0
O272 O 0.56486 0.03221 0.39248 0.0
O273 O 0.67797 0.04612 0.42873 0.0
O274 O 0.71621 0.06378 0.43922 0.0
O275 O 0.55102 0.06803 0.44421 0.0
O276 O 0.62107 0.07395 0.43715 0.0
C277 C 0.71453 0.05238 0.42926 0.0
C278 C 0.58015 0.07705 0.44189 0.0
O279 O 0.57669 0.03508 0.44448 0.0
Mg280 Mg 0.37698 0.93839 0.19694 0.0
O281 O 0.40163 0.93402 0.24695 0.0
O282 O 0.44361 0.91669 0.24596 0.0
Mg283 Mg 0.44866 0.91058 0.19354 0.0
C284 C 0.42459 0.92563 0.26118 0.0
C285 C 0.31715 0.96164 0.20834 0.0
O286 O 0.29616 0.95704 0.18337 0.0
O287 O 0.44427 0.94684 0.18244 0.0
O288 O 0.48325 0.9289 0.1779 0.0
O289 O 0.32045 0.92515 0.20695 0.0
O290 O 0.38395 0.91959 0.18363 0.0
C291 C 0.4799 0.94089 0.17519 0.0
C292 C 0.34632 0.91639 0.19601 0.0
O293 O 0.35344 0.95667 0.21743 0.0
Mg294 Mg 0.35619 0.80271 0.18142 0.0
O295 O 0.33 0.80495 0.23219 0.0
O296 O 0.28116 0.82083 0.23384 0.0
Mg297 Mg 0.27143 0.82751 0.18261 0.0
C298 C 0.30383 0.81221 0.24761 0.0
C299 C 0.41593 0.77888 0.17961 0.0
O300 O 0.42465 0.78345 0.15119 0.0
O301 O 0.29316 0.79222 0.1657 0.0
O302 O 0.24403 0.8081 0.16837 0.0
O303 O 0.40561 0.81784 0.19322 0.0
O304 O 0.33942 0.8212 0.17089 0.0
C305 C 0.25351 0.79653 0.16299 0.0
C306 C 0.37527 0.82568 0.18353 0.0
O307 O 0.38857 0.78463 0.19747 0.0
Mg308 Mg 0.38352 0.80212 0.54588 0.0
O309 O 0.37644 0.80443 0.49227 0.0
O310 O 0.42281 0.81972 0.47622 0.0
Mg311 Mg 0.45752 0.82773 0.52063 0.0
C312 C 0.3935 0.81124 0.47046 0.0
C313 C 0.31041 0.78101 0.53572 0.0
O314 O 0.28201 0.79032 0.53982 0.0
O315 O 0.45146 0.79287 0.5422 0.0
O316 O 0.49555 0.80952 0.53332 0.0
O317 O 0.32872 0.8161 0.55251 0.0
O318 O 0.40046 0.8212 0.55013 0.0
C319 C 0.49011 0.7978 0.53949 0.0
C320 C 0.35939 0.82477 0.55177 0.0
O321 O 0.35191 0.78297 0.53962 0.0
Mg322 Mg 0.34183 0.9406 0.55138 0.0
O323 O 0.33611 0.93584 0.49844 0.0
O324 O 0.28599 0.92053 0.4909 0.0
Mg325 Mg 0.2503 0.91795 0.53879 0.0
C326 C 0.31609 0.92799 0.48047 0.0
C327 C 0.41844 0.95351 0.51584 0.0
O328 O 0.4239 0.94155 0.50847 0.0
O329 O 0.27984 0.95332 0.55023 0.0
O330 O 0.22723 0.93852 0.54309 0.0
O331 O 0.38477 0.92319 0.55748 0.0
O332 O 0.31158 0.92359 0.56418 0.0
C333 C 0.2388 0.95005 0.54734 0.0
C334 C 0.34788 0.91721 0.56344 0.0
O335 O 0.38845 0.95654 0.53588 0.0
Mg336 Mg 0.58039 0.54668 0.29662 0.0
O337 O 0.58297 0.55185 0.24297 0.0
O338 O 0.55097 0.57075 0.23492 0.0
Mg339 Mg 0.50075 0.57147 0.27559 0.0
C340 C 0.57504 0.56151 0.22561 0.0
C341 C 0.65894 0.53196 0.26874 0.0
O342 O 0.6693 0.5438 0.26276 0.0
O343 O 0.51428 0.53526 0.29374 0.0
O344 O 0.49293 0.55072 0.26391 0.0
O345 O 0.6281 0.56279 0.30586 0.0
O346 O 0.55453 0.56492 0.30804 0.0
C347 C 0.48241 0.54204 0.28334 0.0
C348 C 0.59354 0.56996 0.30967 0.0
O349 O 0.62362 0.52957 0.28451 0.0
Mg350 Mg 0.61707 0.68487 0.3044 0.0
O351 O 0.62523 0.68268 0.25099 0.0
O352 O 0.66905 0.66658 0.23757 0.0
Mg353 Mg 0.69308 0.65888 0.28593 0.0
C354 C 0.64406 0.67585 0.23003 0.0
C355 C 0.54626 0.70749 0.29563 0.0
O356 O 0.51805 0.70099 0.31315 0.0
O357 O 0.68564 0.69407 0.30825 0.0
O358 O 0.7297 0.67755 0.29765 0.0
O359 O 0.56179 0.67046 0.30439 0.0
O360 O 0.63346 0.666 0.31154 0.0
C361 C 0.72437 0.6892 0.30503 0.0
C362 C 0.59293 0.66214 0.30868 0.0
O363 O 0.58594 0.70358 0.29172 0.0
Mg364 Mg 0.59059 0.68967 0.92972 0.0
O365 O 0.58531 0.68712 0.98337 0.0
O366 O 0.53463 0.67238 -0.00459 0.0
Mg367 Mg 0.50236 0.66679 0.94769 0.0
C368 C 0.5646 0.68034 0.00357 0.0
C369 C 0.6635 0.71112 0.922 0.0
O370 O 0.66977 0.70603 0.89381 0.0
O371 O 0.52733 0.7017 0.92824 0.0
O372 O 0.47588 0.6868 0.93789 0.0
O373 O 0.63618 0.67269 0.9268 0.0
O374 O 0.56263 0.67224 0.92103 0.0
C375 C 0.48657 0.69822 0.93128 0.0
C376 C 0.59984 0.6663 0.92169 0.0
O377 O 0.63404 0.70655 0.94042 0.0
Mg378 Mg 0.6253 0.55249 0.93251 0.0
O379 O 0.63816 0.55641 0.9858 0.0
O380 O 0.68415 0.57308 0.98854 0.0
Mg381 Mg 0.70074 0.57969 0.93847 0.0
C382 C 0.66096 0.56443 0.00187 0.0
C383 C 0.56317 0.53185 0.96181 0.0
O384 O 0.54197 0.5418 0.97277 0.0
O385 O 0.69431 0.54403 0.92759 0.0
O386 O 0.73875 0.56107 0.93083 0.0
O387 O 0.56734 0.56574 0.93262 0.0
O388 O 0.63771 0.57112 0.92261 0.0
C389 C 0.73288 0.54916 0.92781 0.0
C390 C 0.59691 0.57444 0.92721 0.0
O391 O 0.59745 0.53335 0.94446 0.0
Mg392 Mg 0.3674 0.4353 0.68265 0.0
O393 O 0.377 0.43481 0.7366 0.0
O394 O 0.42126 0.41867 0.74992 0.0
Mg395 Mg 0.44382 0.40972 0.70286 0.0
C396 C 0.39685 0.42809 0.7574 0.0
C397 C 0.31008 0.46002 0.67057 0.0
O398 O 0.30084 0.45494 0.64276 0.0
O399 O 0.43575 0.44408 0.67592 0.0
O400 O 0.48119 0.42793 0.68693 0.0
O401 O 0.31055 0.42186 0.68623 0.0
O402 O 0.38114 0.41604 0.67976 0.0
C403 C 0.47483 0.43938 0.67818 0.0
C404 C 0.33989 0.41291 0.6842 0.0
O405 O 0.33628 0.4544 0.68959 0.0
Mg406 Mg 0.34418 0.29715 0.67312 0.0
O407 O 0.32842 0.29711 0.72674 0.0
O408 O 0.27475 0.31098 0.73942 0.0
Mg409 Mg 0.23596 0.31098 0.69217 0.0
C410 C 0.30639 0.30348 0.7472 0.0
C411 C 0.42724 0.28714 0.70697 0.0
O412 O 0.42348 0.29866 0.71836 0.0
O413 O 0.29657 0.28084 0.66107 0.0
O414 O 0.25044 0.28992 0.69317 0.0
O415 O 0.37179 0.31657 0.67939 0.0
O416 O 0.30108 0.31299 0.66641 0.0
C417 C 0.25632 0.28321 0.66852 0.0
C418 C 0.33216 0.32093 0.67369 0.0
O419 O 0.40068 0.28359 0.68503 0.0
Mg420 Mg 0.36479 0.30185 0.0451 0.0
O421 O 0.37787 0.30167 -0.00829 0.0
O422 O 0.42152 0.31793 0.978 0.0
Mg423 Mg 0.43995 0.328 0.02471 0.0
C424 C 0.39822 0.30822 0.97077 0.0
C425 C 0.29715 0.27959 0.03373 0.0
O426 O 0.26784 0.28882 0.03331 0.0
O427 O 0.43363 0.29392 0.05523 0.0
O428 O 0.47693 0.31075 0.04531 0.0
O429 O 0.30775 0.31526 0.03669 0.0
O430 O 0.37779 0.321 0.04653 0.0
C431 C 0.47173 0.29932 0.05443 0.0
C432 C 0.33766 0.32408 0.03912 0.0
O433 O 0.3378 0.28206 0.03978 0.0
Mg434 Mg 0.34741 0.43814 0.0601 0.0
O435 O 0.34128 0.43775 0.00579 0.0
O436 O 0.29142 0.42313 -0.00894 0.0
Mg437 Mg 0.25898 0.41591 0.03697 0.0
C438 C 0.3207 0.4315 0.98433 0.0
C439 C 0.42962 0.45334 0.0413 0.0
O440 O 0.44107 0.44162 0.03512 0.0
O441 O 0.28405 0.45004 0.06431 0.0
O442 O 0.23279 0.43569 0.04995 0.0
O443 O 0.39391 0.42168 0.05642 0.0
O444 O 0.3208 0.41993 0.06344 0.0
C445 C 0.24343 0.44684 0.05914 0.0
C446 C 0.35865 0.41463 0.0582 0.0
O447 O 0.39172 0.45545 0.05388 0.0
H448 H 0.14997 0.07615 0.0499 0.0
H449 H 0.09531 0.04001 0.01941 0.0
H450 H 0.07537 0.03506 0.07503 0.0
H451 H 0.19496 0.06483 0.12596 0.0
H452 H 0.18155 0.07935 0.14626 0.0
H453 H 0.19464 0.07955 0.10437 0.0
H454 H 0.11913 0.09063 0.09265 0.0
H455 H 0.10574 0.09043 0.1344 0.0
H456 H 0.06777 0.08342 0.10602 0.0
H457 H 0.06054 0.03421 0.13433 0.0
H458 H 0.0478 0.0383 0.19189 0.0
H459 H 0.10795 0.07539 0.18196 0.0
C460 C 0.13416 0.06715 0.05487 0.0
C461 C 0.12429 0.05848 0.03027 0.0
C462 C 0.10329 0.04682 0.03785 0.0
C463 C 0.09195 0.04389 0.06939 0.0
C464 C 0.10189 0.0527 0.09302 0.0
C465 C 0.12247 0.0641 0.0861 0.0
C466 C 0.1279 0.07218 0.11554 0.0
C467 C 0.17772 0.07409 0.1235 0.0
C468 C 0.10366 0.08491 0.11192 0.0
C469 C 0.10537 0.0638 0.13985 0.0
C470 C 0.09166 0.05245 0.12668 0.0
C471 C 0.07095 0.04308 0.14487 0.0
C472 C 0.0638 0.04546 0.17737 0.0
C473 C 0.07628 0.05721 0.19078 0.0
C474 C 0.09744 0.06643 0.17188 0.0
H475 H 0.1169 0.16586 0.04934 0.0
H476 H 0.07243 0.20426 0.03289 0.0
H477 H 0.09722 0.21026 0.0872 0.0
H478 H 0.0881 0.16323 0.13078 0.0
H479 H 0.13756 0.15461 0.14212 0.0
H480 H 0.11644 0.15343 0.10206 0.0
H481 H 0.19349 0.16052 0.08012 0.0
H482 H 0.21482 0.16175 0.12017 0.0
H483 H 0.21783 0.17516 0.0938 0.0
H484 H 0.11984 0.21139 0.14501 0.0
H485 H 0.14579 0.20817 0.20042 0.0
H486 H 0.18388 0.16975 0.17718 0.0
C487 C 0.11246 0.17551 0.05732 0.0
C488 C 0.09225 0.18459 0.03738 0.0
C489 C 0.08765 0.1972 0.0481 0.0
C490 C 0.10164 0.20067 0.0788 0.0
C491 C 0.12135 0.1915 0.09804 0.0
C492 C 0.12759 0.17923 0.08752 0.0
C493 C 0.15076 0.17129 0.11262 0.0
C494 C 0.12145 0.15997 0.12248 0.0
C495 C 0.19697 0.16693 0.10097 0.0
C496 C 0.15509 0.18087 0.13932 0.0
C497 C 0.1377 0.19245 0.13047 0.0
C498 C 0.13457 0.20247 0.15195 0.0
C499 C 0.14937 0.20057 0.18331 0.0
C500 C 0.16787 0.18884 0.19269 0.0
C501 C 0.17126 0.17894 0.17026 0.0
H502 H 0.83433 0.92029 0.93057 0.0
H503 H 0.8091 0.96015 0.94555 0.0
H504 H 0.83629 0.96478 0.89092 0.0
H505 H 0.93771 0.92489 0.89008 0.0
H506 H 0.9301 0.91172 0.86334 0.0
H507 H 0.9047 0.91145 0.90219 0.0
H508 H 0.8268 0.90777 0.87671 0.0
H509 H 0.852 0.90785 0.83778 0.0
H510 H 0.80684 0.91854 0.84666 0.0
H511 H 0.86372 0.96468 0.83373 0.0
H512 H 0.89539 0.96021 0.78034 0.0
H513 H 0.91148 0.92082 0.80622 0.0
C514 C 0.83378 0.92994 0.92198 0.0
C515 C 0.81874 0.93986 0.94157 0.0
C516 C 0.81989 0.95246 0.93037 0.0
C517 C 0.83531 0.95515 0.89954 0.0
C518 C 0.85048 0.94514 0.88079 0.0
C519 C 0.85035 0.93281 0.89176 0.0
C520 C 0.87128 0.92389 0.86791 0.0
C521 C 0.91345 0.91763 0.88172 0.0
C522 C 0.83719 0.91393 0.85659 0.0
C523 C 0.88293 0.9331 0.84164 0.0
C524 C 0.87005 0.94528 0.84926 0.0
C525 C 0.87475 0.95524 0.82775 0.0
C526 C 0.89285 0.95264 0.79762 0.0
C527 C 0.90702 0.94027 0.78974 0.0
C528 C 0.90233 0.93044 0.81215 0.0
H529 H 0.91717 0.79676 0.91854 0.0
H530 H 0.84271 0.82852 0.9562 0.0
H531 H 0.80133 0.83035 0.90547 0.0
H532 H 0.93162 0.80952 0.84104 0.0
H533 H 0.92588 0.79466 0.82037 0.0
H534 H 0.94634 0.79495 0.86068 0.0
H535 H 0.88364 0.77935 0.87732 0.0
H536 H 0.86283 0.77912 0.83701 0.0
H537 H 0.82608 0.78328 0.86934 0.0
H538 H 0.77101 0.82961 0.85078 0.0
H539 H 0.75809 0.82766 0.79307 0.0
H540 H 0.85346 0.79675 0.78919 0.0
C541 C 0.89204 0.80404 0.91589 0.0
C542 C 0.88307 0.81259 0.94085 0.0
C543 C 0.85011 0.82201 0.93697 0.0
C544 C 0.82621 0.82304 0.90845 0.0
C545 C 0.83582 0.81456 0.88405 0.0
C546 C 0.86815 0.8053 0.88725 0.0
C547 C 0.87413 0.7981 0.85628 0.0
C548 C 0.92234 0.79939 0.84386 0.0
C549 C 0.86086 0.78413 0.86024 0.0
C550 C 0.84109 0.80504 0.83511 0.0
C551 C 0.81873 0.8143 0.85188 0.0
C552 C 0.78803 0.82233 0.83735 0.0
C553 C 0.7809 0.82115 0.80452 0.0
C554 C 0.80472 0.81207 0.78647 0.0
C555 C 0.83438 0.80372 0.80227 0.0
H556 H 0.06312 0.5716 0.68184 0.0
H557 H 0.0637 0.5315 0.70289 0.0
H558 H 0.08368 0.52687 0.64692 0.0
H559 H 0.02317 0.56963 0.59829 0.0
H560 H 0.06028 0.58206 0.5854 0.0
H561 H 0.03891 0.58205 0.62552 0.0
H562 H 0.11993 0.58297 0.64735 0.0
H563 H 0.14157 0.58285 0.60739 0.0
H564 H 0.15946 0.57102 0.63548 0.0
H565 H 0.10619 0.52671 0.58922 0.0
H566 H 0.13659 0.53107 0.53549 0.0
H567 H 0.12966 0.57133 0.55408 0.0
C568 C 0.06597 0.56184 0.6743 0.0
C569 C 0.06074 0.55187 0.69628 0.0
C570 C 0.06677 0.53923 0.68611 0.0
C571 C 0.07808 0.53652 0.65443 0.0
C572 C 0.08392 0.54659 0.63343 0.0
C573 C 0.07844 0.55901 0.64299 0.0
C574 C 0.09161 0.56813 0.61681 0.0
C575 C 0.05107 0.57593 0.60585 0.0
C576 C 0.13045 0.57674 0.6274 0.0
C577 C 0.10624 0.55892 0.59128 0.0
C578 C 0.10043 0.54654 0.60104 0.0
C579 C 0.111 0.53636 0.58136 0.0
C580 C 0.12825 0.53891 0.55098 0.0
C581 C 0.13591 0.5515 0.54106 0.0
C582 C 0.12466 0.56161 0.56142 0.0
H583 H 0.15095 0.69566 0.67778 0.0
H584 H 0.17045 0.65551 0.69346 0.0
H585 H 0.13596 0.65088 0.64142 0.0
H586 H 0.04665 0.69397 0.63572 0.0
H587 H 0.06036 0.70598 0.60688 0.0
H588 H 0.08536 0.70643 0.64593 0.0
H589 H 0.16447 0.70655 0.62087 0.0
H590 H 0.13967 0.70633 0.58176 0.0
H591 H 0.17951 0.69435 0.59287 0.0
H592 H 0.09452 0.65033 0.59068 0.0
H593 H 0.06354 0.65381 0.53721 0.0
H594 H 0.07829 0.69438 0.5496 0.0
C595 C 0.14839 0.68594 0.66992 0.0
C596 C 0.16344 0.67592 0.68948 0.0
C597 C 0.15966 0.6633 0.6786 0.0
C598 C 0.13964 0.66057 0.64928 0.0
C599 C 0.12445 0.67059 0.63076 0.0
C600 C 0.12977 0.68304 0.64003 0.0
C601 C 0.11312 0.69196 0.61425 0.0
C602 C 0.07405 0.70006 0.62644 0.0
C603 C 0.15148 0.70029 0.60169 0.0
C604 C 0.09746 0.68252 0.58927 0.0
C605 C 0.10328 0.67027 0.59987 0.0
C606 C 0.09019 0.65986 0.58188 0.0
C607 C 0.07217 0.66196 0.55162 0.0
C608 C 0.06837 0.67437 0.53923 0.0
C609 C 0.08071 0.6848 0.55851 0.0
H610 H 0.83208 0.41658 0.42771 0.0
H611 H 0.80818 0.45612 0.44825 0.0
H612 H 0.83082 0.46176 0.39323 0.0
H613 H 0.9319 0.42193 0.3846 0.0
H614 H 0.92274 0.40933 0.35639 0.0
H615 H 0.89938 0.40826 0.39579 0.0
H616 H 0.82022 0.40514 0.37178 0.0
H617 H 0.84341 0.4061 0.33227 0.0
H618 H 0.79883 0.41657 0.34384 0.0
H619 H 0.85525 0.46286 0.3353 0.0
H620 H 0.8873 0.4596 0.28136 0.0
H621 H 0.90425 0.41977 0.30195 0.0
C622 C 0.83065 0.42638 0.42025 0.0
C623 C 0.81734 0.43592 0.44163 0.0
C624 C 0.81755 0.4487 0.43177 0.0
C625 C 0.83034 0.45197 0.40068 0.0
C626 C 0.84385 0.44235 0.38014 0.0
C627 C 0.84466 0.42982 0.38968 0.0
C628 C 0.86435 0.42142 0.36412 0.0
C629 C 0.90713 0.41486 0.37594 0.0
C630 C 0.82963 0.41174 0.3523 0.0
C631 C 0.87473 0.43117 0.33881 0.0
C632 C 0.86176 0.44314 0.34813 0.0
C633 C 0.86615 0.45356 0.32795 0.0
C634 C 0.88443 0.45165 0.2975 0.0
C635 C 0.89926 0.43953 0.28813 0.0
C636 C 0.89433 0.4292 0.30905 0.0
H637 H 0.84323 0.32576 0.29428 0.0
H638 H 0.81125 0.28608 0.28172 0.0
H639 H 0.82897 0.28213 0.33855 0.0
H640 H 0.93856 0.31991 0.34562 0.0
H641 H 0.92955 0.33389 0.36929 0.0
H642 H 0.91259 0.33361 0.32811 0.0
H643 H 0.83179 0.3396 0.34449 0.0
H644 H 0.84851 0.33994 0.38568 0.0
H645 H 0.80258 0.33001 0.37327 0.0
H646 H 0.84729 0.28284 0.39695 0.0
H647 H 0.86963 0.28772 0.45218 0.0
H648 H 0.89548 0.3267 0.42515 0.0
C649 C 0.83937 0.3163 0.30373 0.0
C650 C 0.82493 0.30625 0.28418 0.0
C651 C 0.82171 0.29388 0.29673 0.0
C652 C 0.83178 0.29157 0.32882 0.0
C653 C 0.84608 0.30169 0.34756 0.0
C654 C 0.85053 0.31377 0.33538 0.0
C655 C 0.8688 0.32284 0.36005 0.0
C656 C 0.91511 0.32785 0.35017 0.0
C657 C 0.83594 0.33374 0.36624 0.0
C658 C 0.87227 0.3141 0.38841 0.0
C659 C 0.8591 0.30194 0.38069 0.0
C660 C 0.85811 0.2923 0.40321 0.0
C661 C 0.87078 0.29518 0.43452 0.0
C662 C 0.88457 0.30758 0.44291 0.0
C663 C 0.88561 0.3171 0.4194 0.0
H664 H 0.60025 0.07485 0.69627 0.0
H665 H 0.55858 0.03575 0.7059 0.0
H666 H 0.57917 0.03175 0.64976 0.0
H667 H 0.56428 0.08029 0.61742 0.0
H668 H 0.61259 0.08945 0.60601 0.0
H669 H 0.59519 0.08909 0.64699 0.0
H670 H 0.67427 0.08152 0.66351 0.0
H671 H 0.69172 0.08173 0.62243 0.0
H672 H 0.69721 0.06748 0.64557 0.0
H673 H 0.59877 0.03245 0.59214 0.0
H674 H 0.61745 0.03768 0.53646 0.0
H675 H 0.65214 0.07591 0.56522 0.0
C676 C 0.59495 0.06552 0.68628 0.0
C677 C 0.5768 0.05566 0.70484 0.0
C678 C 0.57175 0.04343 0.69164 0.0
C679 C 0.58365 0.04107 0.65997 0.0
C680 C 0.60169 0.05096 0.64225 0.0
C681 C 0.60784 0.0629 0.65496 0.0
C682 C 0.62847 0.0718 0.63082 0.0
C683 C 0.59831 0.08333 0.62496 0.0
C684 C 0.67572 0.07587 0.64121 0.0
C685 C 0.63031 0.06319 0.60203 0.0
C686 C 0.61531 0.05116 0.60929 0.0
C687 C 0.61121 0.04177 0.58621 0.0
C688 C 0.62177 0.04484 0.55467 0.0
C689 C 0.63641 0.05717 0.54661 0.0
C690 C 0.64173 0.06635 0.57078 0.0
H691 H 0.61877 0.19383 0.68059 0.0
H692 H 0.70446 0.1608 0.67436 0.0
H693 H 0.68972 0.15952 0.61677 0.0
H694 H 0.53636 0.18342 0.63074 0.0
H695 H 0.52514 0.19829 0.61137 0.0
H696 H 0.54762 0.19811 0.65112 0.0
H697 H 0.61461 0.21193 0.63328 0.0
H698 H 0.5919 0.21241 0.59351 0.0
H699 H 0.64827 0.20698 0.59994 0.0
H700 H 0.65683 0.15969 0.56233 0.0
H701 H 0.61434 0.16294 0.51237 0.0
H702 H 0.55153 0.19612 0.55291 0.0
C703 C 0.63556 0.18655 0.667 0.0
C704 C 0.66273 0.1774 0.68213 0.0
C705 C 0.68364 0.16796 0.66342 0.0
C706 C 0.67541 0.16712 0.63064 0.0
C707 C 0.64676 0.17592 0.61682 0.0
C708 C 0.62792 0.18563 0.63419 0.0
C709 C 0.59625 0.1934 0.61387 0.0
C710 C 0.54854 0.19329 0.62761 0.0
C711 C 0.61382 0.20698 0.60991 0.0
C712 C 0.59867 0.18616 0.58281 0.0
C713 C 0.62826 0.17615 0.58501 0.0
C714 C 0.63422 0.16761 0.56012 0.0
C715 C 0.60976 0.16945 0.53205 0.0
C716 C 0.57985 0.17971 0.52925 0.0
C717 C 0.57431 0.18821 0.55477 0.0
H718 H 0.32306 0.94464 0.43036 0.0
H719 H 0.35424 0.90644 0.46015 0.0
H720 H 0.39457 0.90281 0.40959 0.0
H721 H 0.29944 0.93627 0.34901 0.0
H722 H 0.32201 0.95068 0.33264 0.0
H723 H 0.29921 0.9506 0.37228 0.0
H724 H 0.3742 0.95949 0.39411 0.0
H725 H 0.39712 0.95944 0.35442 0.0
H726 H 0.42545 0.95115 0.38603 0.0
H727 H 0.43103 0.9032 0.35638 0.0
H728 H 0.45018 0.90612 0.29984 0.0
H729 H 0.391 0.94359 0.30221 0.0
C730 C 0.33822 0.93552 0.42597 0.0
C731 C 0.33536 0.92574 0.44877 0.0
C732 C 0.35556 0.91393 0.44257 0.0
C733 C 0.37898 0.91185 0.41418 0.0
C734 C 0.38138 0.92165 0.39209 0.0
C735 C 0.36076 0.93316 0.39726 0.0
C736 C 0.36506 0.94165 0.36829 0.0
C737 C 0.31868 0.94499 0.35475 0.0
C738 C 0.39207 0.95364 0.3762 0.0
C739 C 0.39077 0.93301 0.34597 0.0
C740 C 0.4008 0.92166 0.36054 0.0
C741 C 0.4234 0.91205 0.34464 0.0
C742 C 0.4344 0.91383 0.31252 0.0
C743 C 0.42211 0.92507 0.29644 0.0
C744 C 0.40113 0.93491 0.31379 0.0
H745 H 0.41212 0.79722 0.4168 0.0
H746 H 0.32402 0.82589 0.45517 0.0
H747 H 0.28482 0.8273 0.40343 0.0
H748 H 0.42644 0.8108 0.34161 0.0
H749 H 0.42618 0.79617 0.31955 0.0
H750 H 0.44384 0.79632 0.3605 0.0
H751 H 0.38456 0.7792 0.37371 0.0
H752 H 0.36668 0.77908 0.33269 0.0
H753 H 0.32669 0.78196 0.36393 0.0
H754 H 0.25984 0.82708 0.34729 0.0
H755 H 0.25226 0.82591 0.28897 0.0
H756 H 0.35617 0.79728 0.28608 0.0
C757 C 0.38421 0.80364 0.41417 0.0
C758 C 0.37077 0.81148 0.43957 0.0
C759 C 0.33447 0.81986 0.43568 0.0
C760 C 0.31193 0.82065 0.40656 0.0
C761 C 0.32599 0.81292 0.38171 0.0
C762 C 0.36119 0.80454 0.38511 0.0
C763 C 0.37132 0.79796 0.35384 0.0
C764 C 0.41981 0.80048 0.34325 0.0
C765 C 0.36173 0.7837 0.3562 0.0
C766 C 0.33784 0.80444 0.33215 0.0
C767 C 0.31143 0.81281 0.3489 0.0
C768 C 0.27986 0.82043 0.3339 0.0
C769 C 0.27585 0.81971 0.30072 0.0
C770 C 0.30353 0.8115 0.28285 0.0
C771 C 0.33414 0.80356 0.29901 0.0
H772 H 0.6113 0.54866 0.04074 0.0
H773 H 0.70725 0.57961 0.04295 0.0
H774 H 0.70061 0.58065 0.10114 0.0
H775 H 0.53946 0.56036 0.09808 0.0
H776 H 0.52699 0.54545 0.11689 0.0
H777 H 0.54306 0.54586 0.07563 0.0
H778 H 0.60769 0.53029 0.08709 0.0
H779 H 0.59168 0.52975 0.12844 0.0
H780 H 0.64807 0.53399 0.11764 0.0
H781 H 0.67621 0.58065 0.15715 0.0
H782 H 0.63864 0.57842 0.20933 0.0
H783 H 0.56161 0.5468 0.17287 0.0
C784 C 0.63157 0.55549 0.05352 0.0
C785 C 0.65964 0.56409 0.03713 0.0
C786 C 0.68535 0.57294 0.0548 0.0
C787 C 0.68199 0.57358 0.08795 0.0
C788 C 0.65321 0.56523 0.10327 0.0
C789 C 0.62886 0.55621 0.08681 0.0
C790 C 0.59848 0.54887 0.10911 0.0
C791 C 0.54909 0.55023 0.09934 0.0
C792 C 0.61233 0.5349 0.11066 0.0
C793 C 0.60813 0.55561 0.1403 0.0
C794 C 0.64008 0.56495 0.13632 0.0
C795 C 0.65184 0.57321 0.16082 0.0
C796 C 0.63022 0.57195 0.19019 0.0
C797 C 0.5977 0.56244 0.19479 0.0
C798 C 0.58694 0.55404 0.16979 0.0
H799 H 0.64316 0.65977 0.17826 0.0
H800 H 0.62623 0.69903 0.20555 0.0
H801 H 0.60586 0.70443 0.15035 0.0
H802 H 0.68872 0.66641 0.09788 0.0
H803 H 0.66028 0.65311 0.08013 0.0
H804 H 0.67734 0.65249 0.12129 0.0
H805 H 0.59581 0.6474 0.13776 0.0
H806 H 0.57844 0.64811 0.09674 0.0
H807 H 0.55145 0.65794 0.12603 0.0
H808 H 0.58633 0.70563 0.09284 0.0
H809 H 0.5657 0.70234 0.03634 0.0
H810 H 0.59032 0.66217 0.04632 0.0
C811 C 0.63589 0.66952 0.17241 0.0
C812 C 0.63602 0.67899 0.19619 0.0
C813 C 0.62574 0.69162 0.18778 0.0
C814 C 0.61443 0.69479 0.15645 0.0
C815 C 0.61357 0.68522 0.13371 0.0
C816 C 0.62407 0.67285 0.14117 0.0
C817 C 0.61858 0.66432 0.11234 0.0
C818 C 0.66392 0.65876 0.10232 0.0
C819 C 0.584 0.65383 0.11861 0.0
C820 C 0.60175 0.67377 0.08796 0.0
C821 C 0.60021 0.68582 0.10066 0.0
C822 C 0.58715 0.69624 0.08263 0.0
C823 C 0.57541 0.6943 0.0507 0.0
C824 C 0.57571 0.68201 0.03743 0.0
C825 C 0.58895 0.67161 0.05627 0.0
H826 H 0.37432 0.41173 0.80489 0.0
H827 H 0.40107 0.45126 0.78544 0.0
H828 H 0.38578 0.4565 0.84193 0.0
H829 H 0.28085 0.41774 0.85624 0.0
H830 H 0.29241 0.40465 0.88242 0.0
H831 H 0.30888 0.4039 0.84122 0.0
H832 H 0.39075 0.3995 0.85814 0.0
H833 H 0.37451 0.40018 0.8994 0.0
H834 H 0.41863 0.41029 0.8849 0.0
H835 H 0.3698 0.45719 0.90096 0.0
H836 H 0.34733 0.45368 0.95699 0.0
H837 H 0.32322 0.41407 0.93629 0.0
C838 C 0.37758 0.42145 0.81276 0.0
C839 C 0.38969 0.43109 0.79123 0.0
C840 C 0.39228 0.44377 0.80187 0.0
C841 C 0.38369 0.44681 0.83381 0.0
C842 C 0.37151 0.43709 0.85451 0.0
C843 C 0.3678 0.42469 0.84432 0.0
C844 C 0.35115 0.41617 0.87077 0.0
C845 C 0.30562 0.41027 0.86214 0.0
C846 C 0.38584 0.40593 0.87878 0.0
C847 C 0.34666 0.42567 0.89756 0.0
C848 C 0.35909 0.43765 0.88781 0.0
C849 C 0.35946 0.44789 0.90875 0.0
C850 C 0.34669 0.44581 0.94048 0.0
C851 C 0.33286 0.43366 0.95071 0.0
C852 C 0.33273 0.4235 0.92889 0.0
H853 H 0.32721 0.32196 0.79073 0.0
H854 H 0.31599 0.28138 0.77846 0.0
H855 H 0.34193 0.27814 0.83377 0.0
H856 H 0.42988 0.32043 0.83735 0.0
H857 H 0.41543 0.33359 0.86257 0.0
H858 H 0.39457 0.33287 0.82232 0.0
H859 H 0.31332 0.33484 0.84301 0.0
H860 H 0.33395 0.3357 0.88325 0.0
H861 H 0.29318 0.32385 0.87255 0.0
H862 H 0.36492 0.27929 0.89063 0.0
H863 H 0.38676 0.28473 0.94572 0.0
H864 H 0.39014 0.32447 0.9203 0.0
C865 C 0.32966 0.31243 0.80001 0.0
C866 C 0.31878 0.30189 0.78084 0.0
C867 C 0.32367 0.28953 0.79313 0.0
C868 C 0.33852 0.28761 0.82438 0.0
C869 C 0.34939 0.29816 0.84269 0.0
C870 C 0.34565 0.31033 0.83098 0.0
C871 C 0.36108 0.31995 0.85547 0.0
C872 C 0.40271 0.32713 0.84371 0.0
C873 C 0.32311 0.32912 0.86408 0.0
C874 C 0.37253 0.31129 0.88308 0.0
C875 C 0.36555 0.29876 0.8751 0.0
C876 C 0.37119 0.28904 0.89708 0.0
C877 C 0.38361 0.29221 0.92825 0.0
C878 C 0.39085 0.30497 0.93701 0.0
C879 C 0.38595 0.31461 0.91397 0.0
H880 H 0.25823 0.9803 0.19195 0.0
H881 H 0.32529 0.96301 0.27261 0.0
H882 H 0.28453 0.97706 0.30926 0.0
H883 H 0.26259 0.01208 0.22458 0.0
H884 H 0.2093 0.01654 0.20798 0.0
H885 H 0.24318 0.00489 0.18815 0.0
H886 H 0.17698 0.98902 0.19002 0.0
H887 H 0.14307 0.00058 0.2101 0.0
H888 H 0.15156 0.98525 0.22778 0.0
H889 H 0.2369 0.99306 0.33714 0.0
H890 H 0.18855 0.01082 0.35394 0.0
H891 H 0.15345 0.01762 0.25502 0.0
C892 C 0.26426 0.97953 0.21732 0.0
C893 C 0.29479 0.97065 0.22954 0.0
C894 C 0.3023 0.9699 0.26282 0.0
C895 C 0.27911 0.97776 0.28383 0.0
C896 C 0.24905 0.98641 0.2711 0.0
C897 C 0.24199 0.98746 0.23863 0.0
C898 C 0.20946 -0.00205 0.2311 0.0
C899 C 0.23251 0.00849 0.21182 0.0
C900 C 0.1678 0.99289 0.21373 0.0
C901 C 0.19843 0.00235 0.26443 0.0
C902 C 0.22173 -0.00436 0.28719 0.0
C903 C 0.21827 -0.00163 0.31958 0.0
C904 C 0.19075 0.00844 0.3289 0.0
C905 C 0.16703 0.01551 0.30584 0.0
C906 C 0.17057 0.01226 0.2733 0.0
H907 H 0.97871 0.2595 0.17982 0.0
H908 H 0.8847 0.27372 0.24968 0.0
H909 H 0.91156 0.25801 0.28874 0.0
H910 H 0.96413 0.22631 0.2021 0.0
H911 H 0.02184 0.22238 0.19482 0.0
H912 H -0.00442 0.23486 0.17247 0.0
H913 H 0.05792 0.2504 0.19044 0.0
H914 H 0.08419 0.23795 0.21283 0.0
H915 H 0.06892 0.2525 0.23235 0.0
H916 H 0.95129 0.2414 0.32099 0.0
H917 H -0.00283 0.22393 0.34268 0.0
H918 H 0.06115 0.21968 0.25049 0.0
C919 C 0.96378 0.2592 0.2033 0.0
C920 C 0.92966 0.2677 0.21187 0.0
C921 C 0.91058 0.26712 0.24269 0.0
C922 C 0.92574 0.2583 0.26505 0.0
C923 C 0.95938 0.24998 0.25594 0.0
C924 C 0.97771 0.25021 0.22567 0.0
C925 C 0.01235 0.23993 0.22168 0.0
C926 C -0.00242 0.2303 0.19626 0.0
C927 C 0.05858 0.24554 0.21388 0.0
C928 C 0.01144 0.23415 0.25464 0.0
C929 C 0.98082 0.24008 0.27411 0.0
C930 C 0.97508 0.23657 0.30589 0.0
C931 C 0.00128 0.22667 0.31801 0.0
C932 C 0.03244 0.22037 0.29825 0.0
C933 C 0.0373 0.2242 0.26618 0.0
H934 H 0.1386 0.22776 0.9545 0.0
H935 H 0.25794 0.20535 0.93794 0.0
H936 H 0.30348 0.22162 0.96494 0.0
H937 H 0.18955 0.25844 0.94247 0.0
H938 H 0.15732 0.26584 0.97355 0.0
H939 H 0.13461 0.25253 0.95218 0.0
H940 H 0.12226 0.24086 0.00574 0.0
H941 H 0.14579 0.25405 0.0272 0.0
H942 H 0.16898 0.23846 0.03221 0.0
H943 H 0.3355 0.23977 -0.00463 0.0
H944 H 0.35366 0.25989 0.0219 0.0
H945 H 0.21356 0.27064 0.0183 0.0
C946 C 0.17439 0.22634 0.95612 0.0
C947 C 0.19472 0.21528 0.9441 0.0
C948 C 0.24163 0.21375 0.94696 0.0
C949 C 0.26776 0.2229 0.9624 0.0
C950 C 0.24644 0.2335 0.97481 0.0
C951 C 0.20096 0.23536 0.97151 0.0
C952 C 0.1864 0.24761 0.98697 0.0
C953 C 0.16578 0.25664 0.96231 0.0
C954 C 0.15395 0.24509 0.01468 0.0
C955 C 0.231 0.25246 -0.00102 0.0
C956 C 0.26504 0.24407 -0.00788 0.0
C957 C 0.3092 0.24644 0.00076 0.0
C958 C 0.3191 0.25789 0.01595 0.0
C959 C 0.28503 0.26688 0.02201 0.0
C960 C 0.24031 0.26398 0.01396 0.0
H961 H -0.01449 0.0161 0.9392 0.0
H962 H 0.12376 0.01378 0.97019 0.0
H963 H 0.10517 -0.0048 0.00324 0.0
H964 H 0.93443 0.00811 0.01147 0.0
H965 H 0.89078 -0.00148 -0.0058 0.0
H966 H 0.91525 0.01119 0.97149 0.0
H967 H 0.93553 -0.00447 0.92626 0.0
H968 H 0.91051 0.98283 0.94864 0.0
H969 H 0.96766 0.9816 0.93546 0.0
H970 H 0.07031 0.97742 0.03519 0.0
H971 H 0.02285 0.96097 0.06024 0.0
H972 H 0.90807 0.97506 0.00783 0.0
C973 C 0.01196 0.01156 0.95261 0.0
C974 C 0.05605 0.01634 0.95207 0.0
C975 C 0.08981 0.01018 0.96995 0.0
C976 C 0.07954 -0.00034 0.98896 0.0
C977 C 0.03551 -0.00467 0.98946 0.0
C978 C 0.00243 0.00096 0.97132 0.0
C979 C 0.95781 0.99443 0.97594 0.0
C980 C 0.92251 0.00361 0.98907 0.0
C981 C 0.94196 0.98823 0.94473 0.0
C982 C 0.97062 0.98457 0.00035 0.0
C983 C 0.01561 0.98514 0.0077 0.0
C984 C 0.03505 0.97684 0.02949 0.0
C985 C 0.00785 0.96756 0.04367 0.0
C986 C 0.96174 0.96676 0.03614 0.0
C987 C 0.94308 0.97549 0.0144 0.0
H988 H 0.75327 0.0139 0.7911 0.0
H989 H 0.6319 0.02048 0.73701 0.0
H990 H 0.65138 0.00298 0.7006 0.0
H991 H 0.82531 0.00565 0.72711 0.0
H992 H 0.85318 0.99312 0.74831 0.0
H993 H 0.82986 0.00623 0.76992 0.0
H994 H 0.78288 0.99072 0.80418 0.0
H995 H 0.80627 0.97756 0.78269 0.0
H996 H 0.74648 0.9795 0.78474 0.0
H997 H 0.68417 0.98466 0.67017 0.0
H998 H 0.72755 0.96658 0.64882 0.0
H999 H 0.82627 0.97198 0.72355 0.0
C1000 C 0.731 0.01162 0.77154 0.0
C1001 C 0.69122 0.01842 0.7667 0.0
C1002 C 0.66239 0.0152 0.74114 0.0
C1003 C 0.67322 0.00534 0.72032 0.0
C1004 C 0.7126 -0.0013 0.72576 0.0
C1005 C 0.74081 0.0016 0.75094 0.0
C1006 C 0.78017 0.99268 0.75221 0.0
C1007 C 0.82476 -0.00014 0.74919 0.0
C1008 C 0.77885 0.98464 0.78276 0.0
C1009 C 0.77064 0.98469 0.72309 0.0
C1010 C 0.73129 0.98817 0.70834 0.0
C1011 C 0.71515 0.98185 0.68146 0.0
C1012 C 0.7399 0.97163 0.6695 0.0
C1013 C 0.78044 0.968 0.68427 0.0
C1014 C 0.79582 0.97468 0.71132 0.0
H1015 H 0.07004 0.72008 0.74445 0.0
H1016 H -0.00912 0.71621 0.83061 0.0
H1017 H 0.94258 0.73378 0.81275 0.0
H1018 H 0.06778 0.75365 0.74015 0.0
H1019 H 0.06359 0.75408 0.69733 0.0
H1020 H 0.09102 0.74102 0.71657 0.0
H1021 H 0.03784 0.72534 0.68786 0.0
H1022 H 0.01014 0.73835 0.66851 0.0
H1023 H 0.9782 0.72723 0.69177 0.0
H1024 H 0.90355 0.75171 0.78576 0.0
H1025 H 0.87716 0.76927 0.75229 0.0
H1026 H 0.98277 0.76162 0.68403 0.0
C1027 C 0.04254 0.72289 0.75963 0.0
C1028 C 0.03418 0.71677 0.78895 0.0
C1029 C -0.00217 0.72075 0.80804 0.0
C1030 C 0.97023 0.7307 0.79809 0.0
C1031 C 0.97948 0.7365 0.76903 0.0
C1032 C 0.01477 0.73276 0.75009 0.0
C1033 C 0.01788 0.74064 0.72008 0.0
C1034 C 0.06272 0.74777 0.71847 0.0
C1035 C 0.01057 0.7324 0.6903 0.0
C1036 C 0.97915 0.74957 0.72533 0.0
C1037 C 0.95722 0.74693 0.75356 0.0
C1038 C 0.92034 0.75385 0.76358 0.0
C1039 C 0.90556 0.76378 0.74431 0.0
C1040 C 0.92789 0.76677 0.71549 0.0
C1041 C 0.96511 0.75954 0.70592 0.0
H1042 H 0.66251 0.72205 0.98089 0.0
H1043 H 0.72625 0.72454 0.88816 0.0
H1044 H 0.77175 0.74256 0.90741 0.0
H1045 H 0.65513 0.75502 -0.00347 0.0
H1046 H 0.66753 0.75349 0.03838 0.0
H1047 H 0.64074 0.74069 0.01743 0.0
H1048 H 0.70364 0.72546 0.03537 0.0
H1049 H 0.73067 0.7382 0.05645 0.0
H1050 H 0.76109 0.72938 0.02685 0.0
H1051 H 0.81096 0.75987 0.93697 0.0
H1052 H 0.83973 0.776 0.97429 0.0
H1053 H 0.74805 0.76274 0.04703 0.0
C1054 C 0.68593 0.72638 0.96451 0.0
C1055 C 0.69082 0.72191 0.93297 0.0
C1056 C 0.72202 0.7278 0.91242 0.0
C1057 C 0.74797 0.73803 0.92313 0.0
C1058 C 0.74224 0.74216 0.95439 0.0
C1059 C 0.71198 0.73654 0.97477 0.0
C1060 C 0.71226 0.74275 0.00726 0.0
C1061 C 0.66618 0.74832 0.01535 0.0
C1062 C 0.72785 0.73339 0.033 0.0
C1063 C 0.74674 0.753 0.00178 0.0
C1064 C 0.76411 0.75234 0.97126 0.0
C1065 C 0.79757 0.7605 0.96086 0.0
C1066 C 0.81377 0.76956 0.98222 0.0
C1067 C 0.79598 0.7705 0.01336 0.0
C1068 C 0.76184 0.7622 0.02323 0.0
H1069 H 0.22992 0.50987 0.80047 0.0
H1070 H 0.15099 0.52771 0.72655 0.0
H1071 H 0.17966 0.51239 0.687 0.0
H1072 H 0.32617 0.50208 0.75359 0.0
H1073 H 0.33433 0.48686 0.77195 0.0
H1074 H 0.30853 0.49946 0.79412 0.0
H1075 H 0.23962 0.48515 0.80515 0.0
H1076 H 0.26538 0.47251 0.78309 0.0
H1077 H 0.21042 0.47797 0.77216 0.0
H1078 H 0.21657 0.49496 0.65584 0.0
H1079 H 0.25729 0.47622 0.63571 0.0
H1080 H 0.31049 0.46974 0.7306 0.0
C1081 C 0.21901 0.51051 0.77591 0.0
C1082 C 0.18859 0.51985 0.7662 0.0
C1083 C 0.17432 0.52048 0.73411 0.0
C1084 C 0.19046 0.51188 0.71158 0.0
C1085 C 0.22039 0.50267 0.72179 0.0
C1086 C 0.23423 0.50185 0.75323 0.0
C1087 C 0.26502 0.49073 0.75823 0.0
C1088 C 0.31125 0.49505 0.77017 0.0
C1089 C 0.24384 0.48102 0.781 0.0
C1090 C 0.26727 0.48566 0.72461 0.0
C1091 C 0.24116 0.4926 0.70393 0.0
C1092 C 0.23725 0.48944 0.67178 0.0
C1093 C 0.26045 0.47881 0.66056 0.0
C1094 C 0.28721 0.47157 0.68151 0.0
C1095 C 0.29071 0.47514 0.71385 0.0
H1096 H 0.22704 0.76994 0.53635 0.0
H1097 H 0.36156 0.76568 0.49895 0.0
H1098 H 0.33724 0.74719 0.46787 0.0
H1099 H 0.20601 0.73592 0.54394 0.0
H1100 H 0.14781 0.73728 0.53329 0.0
H1101 H 0.17585 0.75022 0.55288 0.0
H1102 H 0.15242 0.76512 0.50684 0.0
H1103 H 0.12488 0.75218 0.48689 0.0
H1104 H 0.16743 0.76115 0.46648 0.0
H1105 H 0.29836 0.73002 0.43874 0.0
H1106 H 0.24883 0.71325 0.41816 0.0
H1107 H 0.14007 0.72775 0.4761 0.0
C1108 C 0.25133 0.76503 0.52181 0.0
C1109 C 0.29609 0.76923 0.52002 0.0
C1110 C 0.32713 0.76256 0.50089 0.0
C1111 C 0.31362 0.7521 0.48294 0.0
C1112 C 0.26916 0.74831 0.48479 0.0
C1113 C 0.23861 0.75437 0.50418 0.0
C1114 C 0.1932 0.74802 0.50249 0.0
C1115 C 0.17996 0.74254 0.53508 0.0
C1116 C 0.15738 0.75716 0.48992 0.0
C1117 C 0.20297 0.73762 0.47867 0.0
C1118 C 0.24692 0.73804 0.46865 0.0
C1119 C 0.26392 0.7295 0.44656 0.0
C1120 C 0.23547 0.72005 0.43492 0.0
C1121 C 0.19069 0.71916 0.44565 0.0
C1122 C 0.17418 0.72818 0.46751 0.0
H1123 H -0.01354 0.46424 0.492 0.0
H1124 H 0.86974 0.4798 0.53923 0.0
H1125 H 0.8908 0.50112 0.52095 0.0
H1126 H 0.06039 0.49049 0.51128 0.0
H1127 H 0.08985 0.48966 0.47392 0.0
H1128 H 0.06538 0.4756 0.4907 0.0
H1129 H 0.02115 0.472 0.43836 0.0
H1130 H 0.04494 0.48617 0.42163 0.0
H1131 H -0.01494 0.4843 0.42354 0.0
H1132 H 0.92318 0.52065 0.49678 0.0
H1133 H 0.96927 0.53752 0.47295 0.0
H1134 H 0.06592 0.50949 0.44212 0.0
C1135 C 0.96548 0.47214 0.49862 0.0
C1136 C 0.92639 0.47034 0.51699 0.0
C1137 C 0.89995 0.48094 0.52531 0.0
C1138 C 0.91145 0.49309 0.51486 0.0
C1139 C 0.94972 0.49452 0.49635 0.0
C1140 C 0.97676 0.48438 0.48869 0.0
C1141 C 0.01691 0.48862 0.46938 0.0
C1142 C 0.06071 0.48594 0.4874 0.0
C1143 C 0.01698 0.4824 0.43626 0.0
C1144 C 0.00791 0.50268 0.46719 0.0
C1145 C 0.96884 0.50586 0.48276 0.0
C1146 C 0.9539 0.5183 0.48456 0.0
C1147 C 0.98028 0.52781 0.47087 0.0
C1148 C 0.02121 0.52484 0.45567 0.0
C1149 C 0.03464 0.51206 0.45333 0.0
H1150 H 0.66162 0.50681 0.28573 0.0
H1151 H 0.71516 0.53393 0.21809 0.0
H1152 H 0.75517 0.51679 0.19049 0.0
H1153 H 0.76326 0.48798 0.29075 0.0
H1154 H 0.73344 0.47324 0.29466 0.0
H1155 H 0.70868 0.48767 0.30895 0.0
H1156 H 0.63887 0.48338 0.27389 0.0
H1157 H 0.66377 0.46904 0.25908 0.0
H1158 H 0.64558 0.48108 0.23161 0.0
H1159 H 0.7874 0.49681 0.16915 0.0
H1160 H 0.81756 0.47553 0.15909 0.0
H1161 H 0.74563 0.46127 0.24148 0.0
C1162 C 0.68184 0.50912 0.26514 0.0
C1163 C 0.68506 0.52168 0.25392 0.0
C1164 C 0.71227 0.52438 0.22715 0.0
C1165 C 0.73492 0.5147 0.21118 0.0
C1166 C 0.73049 0.50239 0.22249 0.0
C1167 C 0.70533 0.49958 0.24916 0.0
C1168 C 0.70775 0.4856 0.257 0.0
C1169 C 0.72958 0.48351 0.28978 0.0
C1170 C 0.66122 0.47941 0.25528 0.0
C1171 C 0.73775 0.48101 0.23032 0.0
C1172 C 0.75016 0.49085 0.21059 0.0
C1173 C 0.7781 0.48903 0.18449 0.0
C1174 C 0.79493 0.47688 0.17892 0.0
C1175 C 0.78408 0.46671 0.19951 0.0
C1176 C 0.7544 0.46881 0.22519 0.0
H1177 H 0.73561 0.26756 0.53588 0.0
H1178 H 0.87281 0.26095 0.50665 0.0
H1179 H 0.84832 0.2423 0.47579 0.0
H1180 H 0.70531 0.23389 0.54346 0.0
H1181 H 0.64922 0.23644 0.52914 0.0
H1182 H 0.67809 0.24884 0.5503 0.0
H1183 H 0.6645 0.26399 0.50283 0.0
H1184 H 0.63617 0.2516 0.48136 0.0
H1185 H 0.68336 0.25955 0.46362 0.0
H1186 H 0.80826 0.22497 0.44579 0.0
H1187 H 0.75625 0.20943 0.42184 0.0
H1188 H 0.64534 0.22735 0.47078 0.0
C1189 C 0.7606 0.26209 0.52333 0.0
C1190 C 0.80616 0.26571 0.52374 0.0
C1191 C 0.83779 0.25831 0.50696 0.0
C1192 C 0.82417 0.24773 0.48921 0.0
C1193 C 0.77888 0.24457 0.48877 0.0
C1194 C 0.74764 0.25142 0.50577 0.0
C1195 C 0.701 0.24605 0.50123 0.0
C1196 C 0.68232 0.24101 0.53291 0.0
C1197 C 0.66942 0.25589 0.48637 0.0
C1198 C 0.71073 0.23535 0.47828 0.0
C1199 C 0.75587 0.2346 0.47154 0.0
C1200 C 0.77287 0.22542 0.45103 0.0
C1201 C 0.74305 0.21666 0.43748 0.0
C1202 C 0.6967 0.21717 0.44433 0.0
C1203 C 0.6805 0.22674 0.46483 0.0
H1204 H 0.44419 0.26254 0.68957 0.0
H1205 H 0.47649 0.29087 0.76099 0.0
H1206 H 0.51985 0.27505 0.79093 0.0
H1207 H 0.42964 0.23691 0.74304 0.0
H1208 H 0.45456 0.22527 0.71726 0.0
H1209 H 0.42756 0.23892 0.70042 0.0
H1210 H 0.50009 0.24467 0.66984 0.0
H1211 H 0.52714 0.23095 0.68633 0.0
H1212 H 0.55188 0.24637 0.6915 0.0
H1213 H 0.55599 0.2559 0.81479 0.0
H1214 H 0.58741 0.23506 0.82881 0.0
H1215 H 0.53314 0.21933 0.74132 0.0
C1216 C 0.46088 0.26546 0.71128 0.0
C1217 C 0.45701 0.27796 0.72289 0.0
C1218 C 0.47915 0.28138 0.7515 0.0
C1219 C 0.50374 0.27245 0.76878 0.0
C1220 C 0.50617 0.26016 0.75701 0.0
C1221 C 0.4858 0.25668 0.72875 0.0
C1222 C 0.49325 0.24281 0.72158 0.0
C1223 C 0.4486 0.23555 0.72053 0.0
C1224 C 0.51967 0.2411 0.69047 0.0
C1225 C 0.52089 0.23904 0.75027 0.0
C1226 C 0.5277 0.24916 0.77052 0.0
C1227 C 0.55127 0.24792 0.79899 0.0
C1228 C 0.56888 0.23604 0.80678 0.0
C1229 C 0.56307 0.2256 0.78606 0.0
C1230 C 0.53855 0.22716 0.75752 0.0
H1231 H 0.53081 0.02044 0.48013 0.0
H1232 H 0.54094 0.00886 0.38119 0.0
H1233 H 0.5057 0.98836 0.39473 0.0
H1234 H 0.55465 0.9906 0.51515 0.0
H1235 H 0.515 0.99236 0.54715 0.0
H1236 H 0.54053 0.00614 0.52964 0.0
H1237 H 0.46227 0.0154 0.51732 0.0
H1238 H 0.43644 0.00171 0.53502 0.0
H1239 H 0.42263 0.00615 0.49475 0.0
H1240 H 0.47363 0.96875 0.4197 0.0
H1241 H 0.44004 0.95209 0.45325 0.0
H1242 H 0.44659 0.977 0.53527 0.0
C1243 C 0.52565 0.0136 0.46127 0.0
C1244 C 0.53902 0.01618 0.42963 0.0
C1245 C 0.53111 0.00705 0.40559 0.0
C1246 C 0.51121 -0.00461 0.41307 0.0
C1247 C 0.49897 0.99311 0.44459 0.0
C1248 C 0.50531 0.00203 0.46821 0.0
C1249 C 0.48854 -0.00268 0.50012 0.0
C1250 C 0.52697 -0.00344 0.52444 0.0
C1251 C 0.45018 0.00564 0.51252 0.0
C1252 C 0.47203 0.9843 0.49081 0.0
C1253 C 0.47882 0.98201 0.45873 0.0
C1254 C 0.46788 0.97046 0.44477 0.0
C1255 C 0.44915 0.96104 0.46405 0.0
C1256 C 0.44091 0.96331 0.49676 0.0
C1257 C 0.4524 0.97509 0.51027 0.0
H1258 H 0.48486 0.72639 0.30761 0.0
H1259 H 0.57126 0.71076 0.23466 0.0
H1260 H 0.54581 0.72692 0.19676 0.0
H1261 H 0.39291 0.73531 0.25638 0.0
H1262 H 0.38211 0.75002 0.27663 0.0
H1263 H 0.40576 0.73692 0.29817 0.0
H1264 H 0.47244 0.75105 0.31562 0.0
H1265 H 0.44881 0.76417 0.2941 0.0
H1266 H 0.50509 0.75909 0.28574 0.0
H1267 H 0.51217 0.74461 0.1668 0.0
H1268 H 0.4732 0.76354 0.14672 0.0
H1269 H 0.40994 0.76835 0.23905 0.0
C1270 C 0.49813 0.72641 0.28362 0.0
C1271 C 0.53014 0.71741 0.27399 0.0
C1272 C 0.54716 0.7177 0.24254 0.0
C1273 C 0.53274 0.72679 0.22079 0.0
C1274 C 0.5016 0.73563 0.23096 0.0
C1275 C 0.48466 0.73563 0.26164 0.0
C1276 C 0.45289 0.7466 0.26653 0.0
C1277 C 0.40561 0.74193 0.27491 0.0
C1278 C 0.4709 0.75577 0.292 0.0
C1279 C 0.45423 0.75254 0.2337 0.0
C1280 C 0.48256 0.74606 0.21361 0.0
C1281 C 0.48982 0.74981 0.18223 0.0
C1282 C 0.46758 0.76056 0.17106 0.0
C1283 C 0.43852 0.7674 0.19126 0.0
C1284 C 0.43178 0.76328 0.22295 0.0
H1285 H 0.41455 0.47891 0.04683 0.0
H1286 H 0.50871 0.4514 0.00957 0.0
H1287 H 0.55271 0.46857 0.98547 0.0
H1288 H 0.41457 0.4992 0.98012 0.0
H1289 H 0.41209 0.51369 0.00265 0.0
H1290 H 0.38876 0.49938 0.0189 0.0
H1291 H 0.43843 0.50172 0.0692 0.0
H1292 H 0.46142 0.51615 0.05328 0.0
H1293 H 0.49811 0.50345 0.06477 0.0
H1294 H 0.58374 0.48824 0.96257 0.0
H1295 H 0.60414 0.50975 0.94571 0.0
H1296 H 0.49105 0.5248 -0.00165 0.0
C1297 C 0.44475 0.47652 0.03398 0.0
C1298 C 0.45811 0.46381 0.03 0.0
C1299 C 0.49777 0.46106 0.01293 0.0
C1300 C 0.52298 0.47074 -0.00092 0.0
C1301 C 0.50831 0.48312 0.00274 0.0
C1302 C 0.47053 0.48609 0.0201 0.0
C1303 C 0.46202 0.50021 0.01996 0.0
C1304 C 0.41667 0.50329 0.00447 0.0
C1305 C 0.4652 0.5057 0.05382 0.0
C1306 C 0.50062 0.50464 -0.00054 0.0
C1307 C 0.52677 0.4946 0.98977 0.0
C1308 C 0.56384 0.49621 0.97023 0.0
C1309 C 0.57504 0.50847 0.96072 0.0
C1310 C 0.54932 0.51896 0.97088 0.0
C1311 C 0.51144 0.51698 -0.00968 0.0
H1312 H 0.09251 0.14644 0.26705 0.0
H1313 H 0.21552 0.15248 0.32003 0.0
H1314 H 0.23069 0.12965 0.31886 0.0
H1315 H 0.05873 0.11905 0.30466 0.0
H1316 H 0.03768 0.11115 0.26965 0.0
H1317 H 0.03908 0.12812 0.27111 0.0
H1318 H 0.0859 0.12854 0.21919 0.0
H1319 H 0.08483 0.11151 0.21771 0.0
H1320 H 0.13752 0.11981 0.21723 0.0
H1321 H 0.22858 0.10608 0.31757 0.0
H1322 H 0.20703 0.08344 0.31737 0.0
H1323 H 0.08849 0.09265 0.26275 0.0
C1324 C 0.12293 0.14295 0.27793 0.0
C1325 C 0.15288 0.15123 0.2935 0.0
C1326 C 0.19227 0.14633 0.30766 0.0
C1327 C 0.20133 0.13337 0.30706 0.0
C1328 C 0.17112 0.12542 0.29171 0.0
C1329 C 0.13289 0.13001 0.27713 0.0
C1330 C 0.10468 0.11932 0.26393 0.0
C1331 C 0.05726 0.11942 0.27821 0.0
C1332 C 0.10315 0.11983 0.22734 0.0
C1333 C 0.13147 0.10806 0.27533 0.0
C1334 C 0.17023 0.11176 0.29065 0.0
C1335 C 0.19868 0.10303 0.30516 0.0
C1336 C 0.18633 0.09022 0.30488 0.0
C1337 C 0.14569 0.08638 0.2906 0.0
C1338 C 0.11903 0.09536 0.27462 0.0
H1339 H 0.13067 0.14481 0.95912 0.0
H1340 H 0.06778 0.15368 0.86888 0.0
H1341 H 0.05009 0.13112 0.86052 0.0
H1342 H 0.17901 0.11421 0.93324 0.0
H1343 H 0.1696 0.10704 0.97157 0.0
H1344 H 0.1796 0.12379 0.96878 0.0
H1345 H 0.10536 0.12764 -0.0008 0.0
H1346 H 0.0943 0.1109 0.00073 0.0
H1347 H 0.05378 0.12142 0.98326 0.0
H1348 H 0.03531 0.10791 0.86319 0.0
H1349 H 0.03832 0.08476 0.87183 0.0
H1350 H 0.10875 0.09088 0.96071 0.0
C1351 C 0.11468 0.14187 0.93717 0.0
C1352 C 0.10131 0.15081 0.91425 0.0
C1353 C 0.07898 0.14681 0.88628 0.0
C1354 C 0.06829 0.13408 0.88155 0.0
C1355 C 0.08006 0.12549 0.90513 0.0
C1356 C 0.10376 0.12912 0.93201 0.0
C1357 C 0.11262 0.11789 0.95343 0.0
C1358 C 0.16321 0.1156 0.95695 0.0
C1359 C 0.09017 0.11957 0.98609 0.0
C1360 C 0.09027 0.10747 0.93434 0.0
C1361 C 0.07112 0.11208 0.90678 0.0
C1362 C 0.05009 0.10416 0.88472 0.0
C1363 C 0.05129 0.09106 0.88999 0.0
C1364 C 0.07359 0.08616 0.91691 0.0
C1365 C 0.09142 0.09448 0.93998 0.0
H1366 H 0.82373 0.89724 0.67136 0.0
H1367 H 0.93702 0.9036 0.73379 0.0
H1368 H 0.94453 0.8806 0.74194 0.0
H1369 H 0.77875 0.86838 0.71331 0.0
H1370 H 0.76357 0.86105 0.67605 0.0
H1371 H 0.7622 0.87802 0.67993 0.0
H1372 H 0.81477 0.87999 0.63118 0.0
H1373 H 0.81712 0.86307 0.62751 0.0
H1374 H 0.86809 0.87206 0.63168 0.0
H1375 H 0.94623 0.85697 0.7373 0.0
H1376 H 0.93834 0.83436 0.7232 0.0
H1377 H 0.82538 0.84354 0.66251 0.0
C1378 C 0.84906 0.89376 0.68759 0.0
C1379 C 0.88002 0.90208 0.70182 0.0
C1380 C 0.9135 0.89729 0.72231 0.0
C1381 C 0.91776 0.88426 0.72726 0.0
C1382 C 0.8882 0.8762 0.71155 0.0
C1383 C 0.85405 0.88076 0.69247 0.0
C1384 C 0.82956 0.87009 0.67586 0.0
C1385 C 0.78062 0.86934 0.68697 0.0
C1386 C 0.8326 0.87138 0.63941 0.0
C1387 C 0.85625 0.8589 0.68772 0.0
C1388 C 0.88955 0.86258 0.70859 0.0
C1389 C 0.91982 0.85394 0.72137 0.0
C1390 C 0.91539 0.84115 0.71299 0.0
C1391 C 0.88109 0.8372 0.69194 0.0
C1392 C 0.8515 0.84624 0.67907 0.0
H1393 H 0.91071 0.89829 0.05134 0.0
H1394 H 0.77673 0.90285 0.01356 0.0
H1395 H 0.76806 0.87999 0.00958 0.0
H1396 H 0.93708 0.86994 0.00018 0.0
H1397 H 0.96958 0.86264 0.03128 0.0
H1398 H 0.9672 0.87963 0.02832 0.0
H1399 H 0.93993 0.88087 0.0868 0.0
H1400 H 0.94181 0.86391 0.08983 0.0
H1401 H 0.8906 0.87219 0.09848 0.0
H1402 H 0.76985 0.85669 0.01544 0.0
H1403 H 0.78534 0.83419 0.02634 0.0
H1404 H 0.91913 0.84419 0.0581 0.0
C1405 C 0.88002 0.89447 0.04153 0.0
C1406 C 0.84384 0.90247 0.03377 0.0
C1407 C 0.8042 0.89708 0.02109 0.0
C1408 C 0.79914 0.884 0.01821 0.0
C1409 C 0.83447 0.87636 0.02746 0.0
C1410 C 0.87455 0.88134 0.03821 0.0
C1411 C 0.90653 0.87088 0.04761 0.0
C1412 C 0.94753 0.87077 0.02553 0.0
C1413 C 0.92051 0.87204 0.08277 0.0
C1414 C 0.87717 0.85938 0.04201 0.0
C1415 C 0.83593 0.86275 0.03 0.0
C1416 C 0.8023 0.85387 0.02435 0.0
C1417 C 0.81126 0.84114 0.03086 0.0
C1418 C 0.85346 0.83744 0.04293 0.0
C1419 C 0.88672 0.84671 0.04853 0.0
H1420 H 0.06676 0.59112 0.77891 0.0
H1421 H 0.19945 0.58158 0.81319 0.0
H1422 H 0.21838 0.60422 0.81661 0.0
H1423 H 0.10573 0.6186 0.73055 0.0
H1424 H 0.0558 0.62758 0.73841 0.0
H1425 H 0.05327 0.61056 0.73691 0.0
H1426 H 0.01842 0.61027 0.79333 0.0
H1427 H 0.0214 0.62726 0.79519 0.0
H1428 H 0.04754 0.61787 0.82578 0.0
H1429 H 0.22067 0.62726 0.82164 0.0
H1430 H 0.21038 0.65022 0.82197 0.0
H1431 H 0.07755 0.64563 0.7813 0.0
C1432 C 0.09986 0.59384 0.78683 0.0
C1433 C 0.13166 0.58468 0.79602 0.0
C1434 C 0.17483 0.5885 0.80589 0.0
C1435 C 0.1858 0.60131 0.80803 0.0
C1436 C 0.15351 0.61014 0.79947 0.0
C1437 C 0.11178 0.60664 0.78836 0.0
C1438 C 0.08375 0.61817 0.78039 0.0
C1439 C 0.07407 0.61876 0.74443 0.0
C1440 C 0.04021 0.6184 0.79985 0.0
C1441 C 0.11552 0.62865 0.79045 0.0
C1442 C 0.15557 0.62371 0.80116 0.0
C1443 C 0.18988 0.63129 0.81271 0.0
C1444 C 0.18363 0.64435 0.81275 0.0
C1445 C 0.14344 0.64974 0.80116 0.0
C1446 C 0.10871 0.64177 0.79012 0.0
H1447 H 0.07561 0.64489 0.40945 0.0
H1448 H 0.1886 0.65475 0.46959 0.0
H1449 H 0.20305 0.63204 0.47903 0.0
H1450 H 0.0366 0.61812 0.4543 0.0
H1451 H 0.0222 0.60897 0.4195 0.0
H1452 H 0.02031 0.62598 0.41803 0.0
H1453 H 0.07418 0.62596 0.36975 0.0
H1454 H 0.07604 0.60895 0.37091 0.0
H1455 H 0.12719 0.61797 0.37289 0.0
H1456 H 0.20615 0.60836 0.48071 0.0
H1457 H 0.19947 0.58534 0.47336 0.0
H1458 H 0.08379 0.59081 0.4126 0.0
C1459 C 0.10329 0.64227 0.42472 0.0
C1460 C 0.13097 0.65154 0.43888 0.0
C1461 C 0.16717 0.64777 0.45839 0.0
C1462 C 0.17544 0.63491 0.46402 0.0
C1463 C 0.14732 0.626 0.44981 0.0
C1464 C 0.11214 0.6295 0.43041 0.0
C1465 C 0.08796 0.61807 0.41704 0.0
C1466 C 0.03886 0.61777 0.42789 0.0
C1467 C 0.09157 0.61772 0.38048 0.0
C1468 C 0.11481 0.60754 0.43218 0.0
C1469 C 0.14896 0.61234 0.4509 0.0
C1470 C 0.17951 0.60449 0.46616 0.0
C1471 C 0.17562 0.59141 0.46167 0.0
C1472 C 0.14127 0.5863 0.44232 0.0
C1473 C 0.11003 0.59448 0.42786 0.0
H1474 H 0.81922 0.34257 0.1826 0.0
H1475 H 0.95904 0.33199 0.18864 0.0
H1476 H 0.97891 0.35444 0.1978 0.0
H1477 H 0.82808 0.37021 0.1433 0.0
H1478 H 0.78632 0.3787 0.16562 0.0
H1479 H 0.78309 0.36179 0.16253 0.0
H1480 H 0.78257 0.35984 0.22399 0.0
H1481 H 0.7854 0.37682 0.22736 0.0
H1482 H 0.82659 0.36713 0.24696 0.0
H1483 H 0.98332 0.37818 0.19918 0.0
H1484 H 0.97265 0.40111 0.19471 0.0
H1485 H 0.82868 0.39579 0.19368 0.0
C1486 C 0.85385 0.34476 0.18693 0.0
C1487 C 0.88741 0.3354 0.18533 0.0
C1488 C 0.93265 0.33896 0.18994 0.0
C1489 C 0.9442 0.35167 0.19535 0.0
C1490 C 0.90999 0.36061 0.19698 0.0
C1491 C 0.86565 0.35725 0.19347 0.0
C1492 C 0.83516 0.36864 0.19518 0.0
C1493 C 0.80653 0.3699 0.16484 0.0
C1494 C 0.8057 0.36807 0.22516 0.0
C1495 C 0.86951 0.3791 0.19774 0.0
C1496 C 0.91243 0.37425 0.19929 0.0
C1497 C 0.94988 0.38207 0.19887 0.0
C1498 C 0.94338 0.39514 0.19635 0.0
C1499 C 0.89973 0.40032 0.19439 0.0
C1500 C 0.86239 0.39216 0.19574 0.0
H1501 H 0.86447 0.34014 0.51122 0.0
H1502 H 0.80248 0.33385 0.60304 0.0
H1503 H 0.79745 0.35699 0.61128 0.0
H1504 H 0.93213 0.36467 0.53133 0.0
H1505 H 0.92525 0.37402 0.49577 0.0
H1506 H 0.91755 0.35715 0.49417 0.0
H1507 H 0.83765 0.35984 0.47141 0.0
H1508 H 0.8456 0.37674 0.47171 0.0
H1509 H 0.79833 0.36984 0.49191 0.0
H1510 H 0.80955 0.38019 0.61294 0.0
H1511 H 0.82428 0.40284 0.60403 0.0
H1512 H 0.87756 0.39455 0.51036 0.0
C1513 C 0.84828 0.34371 0.53245 0.0
C1514 C 0.83333 0.33536 0.55643 0.0
C1515 C 0.81308 0.34018 0.58421 0.0
C1516 C 0.81061 0.35327 0.58918 0.0
C1517 C 0.82787 0.36129 0.56581 0.0
C1518 C 0.84491 0.35674 0.5375 0.0
C1519 C 0.86237 0.36742 0.51672 0.0
C1520 C 0.91229 0.36571 0.50907 0.0
C1521 C 0.83432 0.36853 0.48613 0.0
C1522 C 0.85472 0.37863 0.53854 0.0
C1523 C 0.83461 0.37482 0.56665 0.0
C1524 C 0.82468 0.38331 0.59089 0.0
C1525 C 0.83361 0.39611 0.58575 0.0
C1526 C 0.85252 0.40032 0.55676 0.0
C1527 C 0.86397 0.39148 0.53298 0.0
H1528 H 0.58637 0.09171 0.83716 0.0
H1529 H 0.65471 0.08237 0.74928 0.0
H1530 H 0.64372 0.10434 0.73022 0.0
H1531 H 0.5046 0.11303 0.80496 0.0
H1532 H 0.50772 0.1239 0.83798 0.0
H1533 H 0.51916 0.10736 0.8441 0.0
H1534 H 0.59701 0.1128 0.86783 0.0
H1535 H 0.58523 0.12933 0.86258 0.0
H1536 H 0.63496 0.12259 0.84535 0.0
H1537 H 0.62553 0.12742 0.72132 0.0
H1538 H 0.61271 0.15045 0.7267 0.0
H1539 H 0.55864 0.14465 0.82112 0.0
C1540 C 0.59925 0.09434 0.81398 0.0
C1541 C 0.62155 0.08546 0.79466 0.0
C1542 C 0.63815 0.08916 0.76455 0.0
C1543 C 0.63147 0.10153 0.75341 0.0
C1544 C 0.60855 0.11004 0.77287 0.0
C1545 C 0.59353 0.10666 0.8028 0.0
C1546 C 0.57289 0.11775 0.82009 0.0
C1547 C 0.52314 0.11536 0.82719 0.0
C1548 C 0.5991 0.1208 0.85076 0.0
C1549 C 0.57878 0.12798 0.7953 0.0
C1550 C 0.59866 0.12331 0.76798 0.0
C1551 C 0.60955 0.13115 0.74244 0.0
C1552 C 0.6018 0.14417 0.74553 0.0
C1553 C 0.58361 0.14913 0.77394 0.0
C1554 C 0.57104 0.14094 0.79876 0.0
H1555 H 0.63106 0.15099 0.44287 0.0
H1556 H 0.50647 0.15554 0.39104 0.0
H1557 H 0.49127 0.13274 0.39609 0.0
H1558 H 0.6614 0.12063 0.41006 0.0
H1559 H 0.68333 0.11465 0.44711 0.0
H1560 H 0.68453 0.13137 0.43915 0.0
H1561 H 0.64152 0.13541 0.49174 0.0
H1562 H 0.63951 0.11866 0.49951 0.0
H1563 H 0.58851 0.12769 0.49825 0.0
H1564 H 0.4883 0.10963 0.4074 0.0
H1565 H 0.50306 0.08706 0.41853 0.0
H1566 H 0.62866 0.09736 0.46343 0.0
C1567 C 0.601 0.14712 0.43221 0.0
C1568 C 0.56995 0.15499 0.41651 0.0
C1569 C 0.5306 0.14965 0.40326 0.0
C1570 C 0.52153 0.13673 0.40612 0.0
C1571 C 0.552 0.12926 0.42252 0.0
C1572 C 0.59117 0.13418 0.43508 0.0
C1573 C 0.61823 0.12397 0.45142 0.0
C1574 C 0.6646 0.12257 0.43599 0.0
C1575 C 0.62217 0.12659 0.48736 0.0
C1576 C 0.58884 0.11253 0.44502 0.0
C1577 C 0.55035 0.11584 0.42892 0.0
C1578 C 0.51831 0.10689 0.42004 0.0
C1579 C 0.52674 0.09412 0.42669 0.0
C1580 C 0.56714 0.09047 0.44155 0.0
C1581 C 0.59782 0.09984 0.45163 0.0
H1582 H 0.32193 0.898 0.15492 0.0
H1583 H 0.35888 0.90503 0.25303 0.0
H1584 H 0.37162 0.88213 0.26112 0.0
H1585 H 0.2644 0.86673 0.17103 0.0
H1586 H 0.28312 0.86051 0.13338 0.0
H1587 H 0.27153 0.87714 0.13744 0.0
H1588 H 0.35146 0.88208 0.11692 0.0
H1589 H 0.36406 0.86551 0.11405 0.0
H1590 H 0.39907 0.87572 0.13782 0.0
H1591 H 0.39235 0.85897 0.25517 0.0
H1592 H 0.40355 0.83659 0.23918 0.0
H1593 H 0.34801 0.84486 0.14614 0.0
C1594 C 0.33063 0.89459 0.17844 0.0
C1595 C 0.33897 0.90308 0.2035 0.0
C1596 C 0.35172 0.89851 0.23379 0.0
C1597 C 0.35935 0.88557 0.23848 0.0
C1598 C 0.35302 0.87742 0.21274 0.0
C1599 C 0.3373 0.8817 0.18366 0.0
C1600 C 0.33433 0.87112 0.15958 0.0
C1601 C 0.28544 0.86873 0.14979 0.0
C1602 C 0.364 0.87377 0.13039 0.0
C1603 C 0.3525 0.86033 0.17919 0.0
C1604 C 0.36346 0.86412 0.20973 0.0
C1605 C 0.38312 0.85585 0.2315 0.0
C1606 C 0.38999 0.84324 0.22213 0.0
C1607 C 0.37674 0.83915 0.19148 0.0
C1608 C 0.35838 0.84783 0.16973 0.0
H1609 H 0.40305 0.89912 0.53678 0.0
H1610 H 0.28516 0.90411 0.59567 0.0
H1611 H 0.27343 0.88109 0.59676 0.0
H1612 H 0.35702 0.87345 0.49002 0.0
H1613 H 0.40911 0.86499 0.48702 0.0
H1614 H 0.4093 0.88196 0.49099 0.0
H1615 H 0.46021 0.88028 0.5408 0.0
H1616 H 0.46061 0.86334 0.53669 0.0
H1617 H 0.44309 0.87043 0.57367 0.0
H1618 H 0.27244 0.85778 0.59037 0.0
H1619 H 0.28729 0.83509 0.58125 0.0
H1620 H 0.40585 0.84491 0.52708 0.0
C1621 C 0.37528 0.89531 0.55028 0.0
C1622 C 0.34507 0.90335 0.56623 0.0
C1623 C 0.30861 0.89808 0.58321 0.0
C1624 C 0.30154 0.88503 0.58391 0.0
C1625 C 0.33111 0.87735 0.56734 0.0
C1626 C 0.36746 0.88223 0.55103 0.0
C1627 C 0.3938 0.87177 0.53509 0.0
C1628 C 0.3922 0.87313 0.49862 0.0
C1629 C 0.44229 0.87144 0.54732 0.0
C1630 C 0.36741 0.8603 0.54601 0.0
C1631 C 0.33084 0.86378 0.564 0.0
C1632 C 0.30107 0.8549 0.57641 0.0
C1633 C 0.30961 0.84206 0.57099 0.0
C1634 C 0.34795 0.83827 0.55381 0.0
C1635 C 0.37671 0.84753 0.54074 0.0
H1636 H 0.59298 0.64331 0.26395 0.0
H1637 H 0.57515 0.65092 0.3645 0.0
H1638 H 0.57513 0.62797 0.37569 0.0
H1639 H 0.52184 0.61404 0.26285 0.0
H1640 H 0.55732 0.60639 0.23406 0.0
H1641 H 0.55169 0.62335 0.23385 0.0
H1642 H 0.63778 0.62551 0.23823 0.0
H1643 H 0.64364 0.60858 0.23927 0.0
H1644 H 0.66665 0.6181 0.27097 0.0
H1645 H 0.58343 0.60458 0.37664 0.0
H1646 H 0.59019 0.58161 0.36654 0.0
H1647 H 0.6021 0.5888 0.26533 0.0
C1648 C 0.58756 0.64004 0.28809 0.0
C1649 C 0.58307 0.64872 0.31341 0.0
C1650 C 0.57753 0.64429 0.34487 0.0
C1651 C 0.57787 0.63132 0.35143 0.0
C1652 C 0.58355 0.62295 0.32614 0.0
C1653 C 0.5873 0.62707 0.295 0.0
C1654 C 0.59368 0.61601 0.2724 0.0
C1655 C 0.55376 0.61488 0.24943 0.0
C1656 C 0.63809 0.61712 0.25415 0.0
C1657 C 0.59455 0.60511 0.29586 0.0
C1658 C 0.58852 0.60936 0.32671 0.0
C1659 C 0.58797 0.60112 0.3526 0.0
C1660 C 0.59226 0.58815 0.34673 0.0
C1661 C 0.59743 0.58359 0.31535 0.0
C1662 C 0.59901 0.59215 0.2896 0.0
H1663 H 0.64167 0.64765 0.95669 0.0
H1664 H 0.55341 0.65433 0.87641 0.0
H1665 H 0.53848 0.63149 0.87203 0.0
H1666 H 0.68936 0.61803 0.9286 0.0
H1667 H 0.68982 0.6109 0.96759 0.0
H1668 H 0.6947 0.62779 0.96364 0.0
H1669 H 0.62657 0.63046 0.0012 0.0
H1670 H 0.62074 0.61354 0.00446 0.0
H1671 H 0.57422 0.62297 -0.00888 0.0
H1672 H 0.52916 0.60842 0.87788 0.0
H1673 H 0.53693 0.58546 0.88791 0.0
H1674 H 0.63225 0.59331 0.96324 0.0
C1675 C 0.62018 0.64419 0.93778 0.0
C1676 C 0.59882 0.65261 0.9167 0.0
C1677 C 0.57002 0.64791 0.89268 0.0
C1678 C 0.56108 0.63501 0.89015 0.0
C1679 C 0.581 0.62695 0.91201 0.0
C1680 C 0.61055 0.63125 0.93504 0.0
C1681 C 0.62711 0.62043 0.95549 0.0
C1682 C 0.67829 0.61922 0.95369 0.0
C1683 C 0.61122 0.62195 -0.00988 0.0
C1684 C 0.6037 0.60941 0.93939 0.0
C1685 C 0.57618 0.61346 0.91503 0.0
C1686 C 0.55069 0.60508 0.89682 0.0
C1687 C 0.55495 0.59212 0.90279 0.0
C1688 C 0.58511 0.58781 0.92621 0.0
C1689 C 0.609 0.59651 0.9452 0.0
H1690 H 0.38598 0.39316 0.71039 0.0
H1691 H 0.26351 0.40259 0.66055 0.0
H1692 H 0.24472 0.37986 0.65638 0.0
H1693 H 0.41661 0.3672 0.66737 0.0
H1694 H 0.43595 0.35776 0.70035 0.0
H1695 H 0.4368 0.37471 0.70321 0.0
H1696 H 0.38883 0.37371 0.75449 0.0
H1697 H 0.38815 0.35669 0.75201 0.0
H1698 H 0.33633 0.36531 0.75399 0.0
H1699 H 0.24391 0.35621 0.65226 0.0
H1700 H 0.25934 0.33331 0.65027 0.0
H1701 H 0.38223 0.33928 0.70338 0.0
C1702 C 0.35497 0.39042 0.69901 0.0
C1703 C 0.32628 0.39954 0.68558 0.0
C1704 C 0.28569 0.39569 0.67118 0.0
C1705 C 0.27481 0.38282 0.66868 0.0
C1706 C 0.30439 0.374 0.68147 0.0
C1707 C 0.34322 0.37764 0.6969 0.0
C1708 C 0.37001 0.36628 0.70763 0.0
C1709 C 0.41764 0.36651 0.69378 0.0
C1710 C 0.37088 0.36545 0.7442 0.0
C1711 C 0.34208 0.35571 0.69351 0.0
C1712 C 0.30375 0.36035 0.67928 0.0
C1713 C 0.27343 0.35244 0.66375 0.0
C1714 C 0.28254 0.33946 0.6627 0.0
C1715 C 0.322 0.33454 0.67665 0.0
C1716 C 0.35186 0.34278 0.69247 0.0
H1717 H 0.32866 0.39499 0.09318 0.0
H1718 H 0.38882 0.40461 0.00257 0.0
H1719 H 0.37968 0.38239 0.98453 0.0
H1720 H 0.38326 0.3645 0.09941 0.0
H1721 H 0.33627 0.35737 0.11945 0.0
H1722 H 0.34689 0.37404 0.12374 0.0
H1723 H 0.26605 0.37856 0.10433 0.0
H1724 H 0.25578 0.36191 0.0989 0.0
H1725 H 0.24804 0.37267 0.06609 0.0
H1726 H 0.36368 0.35913 0.97693 0.0
H1727 H 0.35428 0.33601 0.98343 0.0
H1728 H 0.30647 0.34171 0.07958 0.0
C1729 C 0.34022 0.39232 0.06968 0.0
C1730 C 0.35957 0.4013 0.04919 0.0
C1731 C 0.37452 0.39767 0.01862 0.0
C1732 C 0.3689 0.38517 0.00811 0.0
C1733 C 0.34876 0.37652 0.02872 0.0
C1734 C 0.33573 0.37988 0.05915 0.0
C1735 C 0.31816 0.36866 0.07757 0.0
C1736 C 0.34792 0.36598 0.10675 0.0
C1737 C 0.26909 0.37057 0.08728 0.0
C1738 C 0.32269 0.35843 0.05264 0.0
C1739 C 0.33993 0.36317 0.02448 0.0
C1740 C 0.34974 0.35534 -0.00129 0.0
C1741 C 0.3439 0.34227 0.00244 0.0
C1742 C 0.32846 0.33727 0.03164 0.0
C1743 C 0.31656 0.34544 0.05665 0.0
H1744 H 0.91496 0.06665 0.31659 0.0
H1745 H 0.95819 0.02757 0.3208 0.0
H1746 H 0.88941 0.02222 0.35155 0.0
H1747 H 0.88601 0.06754 0.39561 0.0
H1748 H 0.8415 0.07876 0.38985 0.0
H1749 H 0.8884 0.07866 0.36315 0.0
H1750 H 0.83535 0.0757 0.31466 0.0
H1751 H 0.78811 0.07611 0.34113 0.0
H1752 H 0.79553 0.06287 0.31462 0.0
H1753 H 0.81348 0.02221 0.38547 0.0
H1754 H 0.74758 0.02785 0.41927 0.0
H1755 H 0.76806 0.06732 0.39553 0.0
C1756 C 0.90983 0.05683 0.32293 0.0
C1757 C 0.94176 0.04751 0.31583 0.0
C1758 C 0.93381 0.03487 0.32568 0.0
C1759 C 0.89492 0.03177 0.34321 0.0
C1760 C 0.86515 0.04148 0.35106 0.0
C1761 C 0.87293 0.05376 0.34119 0.0
C1762 C 0.84098 0.06302 0.35573 0.0
C1763 C 0.8657 0.07255 0.37735 0.0
C1764 C 0.81335 0.06981 0.33 0.0
C1765 C 0.81285 0.0541 0.37492 0.0
C1766 C 0.82619 0.04166 0.37203 0.0
C1767 C 0.80326 0.03197 0.38795 0.0
C1768 C 0.76606 0.03522 0.40712 0.0
C1769 C 0.75348 0.04806 0.41065 0.0
C1770 C 0.77739 0.05745 0.39416 0.0
H1771 H 0.31548 0.21106 0.29955 0.0
H1772 H 0.20949 0.21369 0.36922 0.0
H1773 H 0.26383 0.22087 0.40951 0.0
H1774 H 0.38743 0.19705 0.34274 0.0
H1775 H 0.43795 0.20476 0.32958 0.0
H1776 H 0.39011 0.20441 0.30404 0.0
H1777 H 0.39104 0.22886 0.30023 0.0
H1778 H 0.43963 0.22929 0.32574 0.0
H1779 H 0.3905 0.23824 0.33611 0.0
H1780 H 0.32996 0.21917 0.44479 0.0
H1781 H 0.40032 0.21176 0.46937 0.0
H1782 H 0.46547 0.21325 0.37771 0.0
C1783 C 0.30349 0.21396 0.32274 0.0
C1784 C 0.25845 0.2119 0.33125 0.0
C1785 C 0.24373 0.21543 0.36201 0.0
C1786 C 0.27454 0.21947 0.38515 0.0
C1787 C 0.31964 0.22037 0.37681 0.0
C1788 C 0.33384 0.2182 0.34589 0.0
C1789 C 0.38442 0.21781 0.34399 0.0
C1790 C 0.40086 0.20527 0.32927 0.0
C1791 C 0.40245 0.22924 0.32542 0.0
C1792 C 0.39638 0.21879 0.37897 0.0
C1793 C 0.35864 0.22045 0.39761 0.0
C1794 C 0.36007 0.21861 0.43058 0.0
C1795 C 0.40023 0.21446 0.44448 0.0
C1796 C 0.43865 0.21249 0.42556 0.0
C1797 C 0.43719 0.21542 0.39285 0.0
H1798 H 0.75046 0.17822 0.85963 0.0
H1799 H 0.76163 0.21178 0.80128 0.0
H1800 H 0.82555 0.21917 0.83493 0.0
H1801 H 0.77895 0.19196 0.93646 0.0
H1802 H 0.80988 0.17808 0.94808 0.0
H1803 H 0.76301 0.17663 0.92134 0.0
H1804 H 0.81344 0.16541 0.87979 0.0
H1805 H 0.86022 0.16672 0.90644 0.0
H1806 H 0.8641 0.17307 0.86673 0.0
H1807 H 0.89804 0.22018 0.87023 0.0
H1808 H 0.96506 0.21526 0.90289 0.0
H1809 H 0.8963 0.18245 0.94109 0.0
C1810 C 0.76574 0.18727 0.85427 0.0
C1811 C 0.75156 0.19443 0.82796 0.0
C1812 C 0.77218 0.20621 0.82155 0.0
C1813 C 0.80839 0.21043 0.84052 0.0
C1814 C 0.82241 0.20286 0.86602 0.0
C1815 C 0.80091 0.1916 0.87297 0.0
C1816 C 0.82343 0.18449 0.8995 0.0
C1817 C 0.79193 0.1827 0.92804 0.0
C1818 C 0.84135 0.17168 0.88739 0.0
C1819 C 0.86107 0.1935 0.90705 0.0
C1820 C 0.86102 0.20394 0.88723 0.0
C1821 C 0.89752 0.21225 0.88649 0.0
C1822 C 0.93542 0.20944 0.90532 0.0
C1823 C 0.93613 0.1985 0.92486 0.0
C1824 C 0.8971 0.19101 0.92697 0.0
H1825 H 0.26238 0.03595 0.88863 0.0
H1826 H 0.30839 0.06106 0.96356 0.0
H1827 H 0.38627 0.05748 0.94722 0.0
H1828 H 0.36732 0.01431 0.88894 0.0
H1829 H 0.3642 0.01275 0.84625 0.0
H1830 H 0.31365 0.01423 0.86935 0.0
H1831 H 0.29045 0.03333 0.83459 0.0
H1832 H 0.34122 0.03217 0.812 0.0
H1833 H 0.32732 0.0468 0.83168 0.0
H1834 H 0.45527 0.05503 0.91737 0.0
H1835 H 0.51352 0.05307 0.8763 0.0
H1836 H 0.42423 0.03037 0.81821 0.0
C1837 C 0.28909 0.04012 0.90258 0.0
C1838 C 0.27962 0.04865 0.92753 0.0
C1839 C 0.31512 0.0544 0.94455 0.0
C1840 C 0.35946 0.05239 0.9355 0.0
C1841 C 0.36768 0.04454 0.90957 0.0
C1842 C 0.33369 0.03831 0.89357 0.0
C1843 C 0.3512 0.03189 0.86375 0.0
C1844 C 0.34896 0.01744 0.86729 0.0
C1845 C 0.32606 0.03633 0.83376 0.0
C1846 C 0.39927 0.03646 0.86409 0.0
C1847 C 0.40828 0.04334 0.89142 0.0
C1848 C 0.44918 0.04931 0.89642 0.0
C1849 C 0.48198 0.04816 0.87302 0.0
C1850 C 0.47337 0.04131 0.84477 0.0
C1851 C 0.43162 0.03538 0.84011 0.0
H1852 H 0.15104 0.94923 0.53083 0.0
H1853 H 0.2455 0.96932 0.59057 0.0
H1854 H 0.18394 0.97604 0.62553 0.0
H1855 H 0.04688 0.97055 0.548 0.0
H1856 H 0.0121 0.95661 0.54809 0.0
H1857 H 0.05958 0.95756 0.52174 0.0
H1858 H 0.08916 0.93652 0.54511 0.0
H1859 H 0.04281 0.93565 0.57195 0.0
H1860 H 0.09906 0.93535 0.58739 0.0
H1861 H 0.12035 0.97341 0.6634 0.0
H1862 H 0.05732 0.96483 0.69526 0.0
H1863 H 0.00169 0.94775 0.61047 0.0
C1864 C 0.15825 0.95573 0.55009 0.0
C1865 C 0.20298 0.95871 0.55802 0.0
C1866 C 0.21148 0.96703 0.58376 0.0
C1867 C 0.17658 0.97082 0.60397 0.0
C1868 C 0.13331 0.96651 0.59757 0.0
C1869 C 0.12375 0.95952 0.57046 0.0
C1870 C 0.07677 0.95413 0.57164 0.0
C1871 C 0.04708 0.96008 0.54583 0.0
C1872 C 0.07704 0.93957 0.56889 0.0
C1873 C 0.06259 0.95836 0.60451 0.0
C1874 C 0.09537 0.96559 0.61913 0.0
C1875 C 0.09346 0.96834 0.65172 0.0
C1876 C 0.05773 0.96343 0.66971 0.0
C1877 C 0.02417 0.9561 0.65485 0.0
C1878 C 0.02601 0.95389 0.62184 0.0
H1879 H 0.65624 0.79967 0.6799 0.0
H1880 H 0.74948 0.7785 0.62203 0.0
H1881 H 0.68786 0.77236 0.58584 0.0
H1882 H 0.55175 0.77905 0.66342 0.0
H1883 H 0.51777 0.7931 0.66261 0.0
H1884 H 0.5655 0.79226 0.68881 0.0
H1885 H 0.5961 0.81296 0.66398 0.0
H1886 H 0.54943 0.81372 0.63728 0.0
H1887 H 0.60551 0.81369 0.6216 0.0
H1888 H 0.62201 0.7742 0.54814 0.0
H1889 H 0.55615 0.78166 0.51697 0.0
H1890 H 0.50642 0.8009 0.6006 0.0
C1891 C 0.66311 0.79317 0.66056 0.0
C1892 C 0.70729 0.78953 0.65368 0.0
C1893 C 0.71559 0.78124 0.62791 0.0
C1894 C 0.68078 0.77776 0.60715 0.0
C1895 C 0.63792 0.78241 0.61307 0.0
C1896 C 0.62879 0.78963 0.63985 0.0
C1897 C 0.5823 0.79515 0.63863 0.0
C1898 C 0.55258 0.78955 0.66493 0.0
C1899 C 0.58347 0.80973 0.64045 0.0
C1900 C 0.56773 0.79064 0.60616 0.0
C1901 C 0.59973 0.78317 0.59171 0.0
C1902 C 0.59598 0.77962 0.55965 0.0
C1903 C 0.55881 0.78392 0.54206 0.0
C1904 C 0.52642 0.79162 0.55685 0.0
C1905 C 0.5305 0.79472 0.58925 0.0
H1906 H 0.16631 0.79663 0.17906 0.0
H1907 H 0.26064 0.77989 0.11347 0.0
H1908 H 0.19814 0.77326 0.07859 0.0
H1909 H 0.06721 0.77386 0.16239 0.0
H1910 H 0.02896 0.78693 0.16582 0.0
H1911 H 0.07888 0.78653 0.18993 0.0
H1912 H 0.10096 0.80864 0.16848 0.0
H1913 H 0.05196 0.80903 0.14397 0.0
H1914 H 0.10632 0.81095 0.1261 0.0
H1915 H 0.12989 0.77504 0.04377 0.0
H1916 H 0.061 0.78246 0.01631 0.0
H1917 H 0.0105 0.79667 0.10582 0.0
C1918 C 0.17344 0.79092 0.15825 0.0
C1919 C 0.21792 0.78869 0.1489 0.0
C1920 C 0.22657 0.78148 0.12123 0.0
C1921 C 0.19123 0.77774 0.10122 0.0
C1922 C 0.14763 0.78101 0.10978 0.0
C1923 C 0.13858 0.7871 0.1383 0.0
C1924 C 0.09048 0.7914 0.13998 0.0
C1925 C 0.06488 0.78424 0.16608 0.0
C1926 C 0.08731 0.80585 0.14489 0.0
C1927 C 0.0746 0.78758 0.10723 0.0
C1928 C 0.10767 0.78149 0.09007 0.0
C1929 C 0.10304 0.77925 0.05735 0.0
C1930 C 0.06406 0.78351 0.04188 0.0
C1931 C 0.03045 0.78975 0.0594 0.0
C1932 C 0.03529 0.79145 0.09241 0.0
H1933 H 0.66615 0.94163 0.04585 0.0
H1934 H 0.73528 0.97066 0.09991 0.0
H1935 H 0.66608 0.9742 0.13148 0.0
H1936 H 0.54936 0.95244 0.05048 0.0
H1937 H 0.5303 0.9365 0.05748 0.0
H1938 H 0.57922 0.93928 0.03345 0.0
H1939 H 0.62494 0.92442 0.07013 0.0
H1940 H 0.57659 0.92171 0.09446 0.0
H1941 H 0.62736 0.92763 0.11226 0.0
H1942 H 0.59157 0.97173 0.16282 0.0
H1943 H 0.52542 0.96283 0.19126 0.0
H1944 H 0.51479 0.93342 0.11993 0.0
C1945 C 0.66661 0.94911 0.0635 0.0
C1946 C 0.70609 0.95591 0.07034 0.0
C1947 C 0.70518 0.96544 0.09399 0.0
C1948 C 0.66605 0.96746 0.1121 0.0
C1949 C 0.62874 0.95975 0.10633 0.0
C1950 C 0.62919 0.95073 0.08249 0.0
C1951 C 0.59 0.94178 0.08465 0.0
C1952 C 0.56046 0.94256 0.05474 0.0
C1953 C 0.60568 0.92809 0.09074 0.0
C1954 C 0.56683 0.94714 0.11338 0.0
C1955 C 0.58877 0.95765 0.12545 0.0
C1956 C 0.57408 0.96359 0.1533 0.0
C1957 C 0.53668 0.9585 0.16932 0.0
C1958 C 0.51569 0.94742 0.15774 0.0
C1959 C 0.53053 0.94189 0.12924 0.0
H1960 H 0.90761 0.53616 0.80172 0.0
H1961 H 0.00531 0.5362 0.87776 0.0
H1962 H 0.94605 0.53172 0.91674 0.0
H1963 H 0.82928 0.55146 0.83252 0.0
H1964 H 0.78063 0.54245 0.82088 0.0
H1965 H 0.83095 0.54123 0.79811 0.0
H1966 H 0.83172 0.51696 0.80621 0.0
H1967 H 0.78067 0.51809 0.82891 0.0
H1968 H 0.82907 0.51052 0.84589 0.0
H1969 H 0.8778 0.53591 0.94678 0.0
H1970 H 0.80529 0.54439 0.9651 0.0
H1971 H 0.74907 0.53818 0.87153 0.0
C1972 C 0.91647 0.53442 0.82633 0.0
C1973 C 0.96062 0.5364 0.83691 0.0
C1974 C 0.9716 0.53446 0.86927 0.0
C1975 C 0.93814 0.5319 0.89158 0.0
C1976 C 0.8942 0.53075 0.88087 0.0
C1977 C 0.88349 0.53131 0.84875 0.0
C1978 C 0.83325 0.53123 0.84397 0.0
C1979 C 0.81769 0.54226 0.82267 0.0
C1980 C 0.81777 0.51844 0.83045 0.0
C1981 C 0.81788 0.53273 0.87811 0.0
C1982 C 0.85346 0.53201 0.89919 0.0
C1983 C 0.84921 0.53577 0.93095 0.0
C1984 C 0.80811 0.54064 0.94117 0.0
C1985 C 0.77181 0.54147 0.91982 0.0
C1986 C 0.77616 0.53702 0.88842 0.0
H1987 H 0.25033 0.69694 0.86281 0.0
H1988 H 0.30696 0.7162 0.7816 0.0
H1989 H 0.36922 0.72404 0.81554 0.0
H1990 H 0.29476 0.71737 0.93059 0.0
H1991 H 0.30737 0.70338 0.95337 0.0
H1992 H 0.26004 0.70349 0.92672 0.0
H1993 H 0.29086 0.6836 0.89825 0.0
H1994 H 0.33796 0.68343 0.92459 0.0
H1995 H 0.34672 0.68395 0.88215 0.0
H1996 H 0.4328 0.72542 0.85433 0.0
H1997 H 0.49356 0.71797 0.88925 0.0
H1998 H 0.39778 0.69625 0.94406 0.0
C1999 C 0.27446 0.70348 0.85281 0.0
C2000 C 0.27318 0.70648 0.82017 0.0
C2001 C 0.30668 0.71427 0.80693 0.0
C2002 C 0.34209 0.71872 0.8261 0.0
C2003 C 0.34374 0.71502 0.85811 0.0
C2004 C 0.31065 0.70747 0.87123 0.0
C2005 C 0.32488 0.70201 0.90294 0.0
C2006 C 0.29499 0.70687 0.93001 0.0
C2007 C 0.32515 0.6874 0.90188 0.0
C2008 C 0.37174 0.70732 0.90541 0.0
C2009 C 0.38167 0.71511 0.87987 0.0
C2010 C 0.42503 0.71959 0.87477 0.0
C2011 C 0.45944 0.71536 0.89492 0.0
C2012 C 0.45036 0.7065 0.91936 0.0
C2013 C 0.40557 0.70315 0.92583 0.0
H2014 H 0.96753 0.68493 0.36265 0.0
H2015 H 0.9316 0.71052 0.43869 0.0
H2016 H 0.86467 0.71727 0.40777 0.0
H2017 H 0.91947 0.70381 0.29325 0.0
H2018 H 0.90127 0.68937 0.27439 0.0
H2019 H 0.95163 0.68954 0.29806 0.0
H2020 H 0.92036 0.67121 0.3325 0.0
H2021 H 0.87025 0.67098 0.30914 0.0
H2022 H 0.86685 0.67305 0.35169 0.0
H2023 H 0.79427 0.71733 0.37415 0.0
H2024 H 0.7278 0.70994 0.34447 0.0
H2025 H 0.81099 0.68417 0.29062 0.0
C2026 C 0.94639 0.69233 0.37213 0.0
C2027 C 0.95437 0.69732 0.40266 0.0
C2028 C 0.92599 0.70676 0.41502 0.0
C2029 C 0.88815 0.71065 0.39754 0.0
C2030 C 0.87999 0.70508 0.3678 0.0
C2031 C 0.90887 0.6962 0.35514 0.0
C2032 C 0.88973 0.68993 0.32581 0.0
C2033 C 0.91715 0.69338 0.29612 0.0
C2034 C 0.88658 0.67545 0.33008 0.0
C2035 C 0.8441 0.69599 0.32495 0.0
C2036 C 0.83937 0.70499 0.34867 0.0
C2037 C 0.79802 0.71054 0.35503 0.0
C2038 C 0.76036 0.7063 0.33798 0.0
C2039 C 0.76431 0.69643 0.31532 0.0
C2040 C 0.80708 0.69179 0.30762 0.0
H2041 H 0.43939 0.52386 0.31893 0.0
H2042 H 0.43326 0.56356 0.29323 0.0
H2043 H 0.37234 0.56677 0.33121 0.0
H2044 H 0.31664 0.52093 0.32355 0.0
H2045 H 0.31835 0.50954 0.35542 0.0
H2046 H 0.36344 0.51031 0.32703 0.0
H2047 H 0.42006 0.51332 0.37312 0.0
H2048 H 0.37518 0.51264 0.40164 0.0
H2049 H 0.41232 0.52609 0.40103 0.0
H2050 H 0.31496 0.56615 0.37344 0.0
H2051 H 0.25647 0.56111 0.41253 0.0
H2052 H 0.29236 0.52146 0.40824 0.0
C2053 C 0.42513 0.53321 0.32135 0.0
C2054 C 0.4424 0.54355 0.30381 0.0
C2055 C 0.42196 0.55556 0.30693 0.0
C2056 C 0.387 0.55749 0.32845 0.0
C2057 C 0.37151 0.54721 0.34586 0.0
C2058 C 0.38887 0.53522 0.34194 0.0
C2059 C 0.36345 0.52568 0.36206 0.0
C2060 C 0.33903 0.51605 0.34075 0.0
C2061 C 0.39463 0.51905 0.38588 0.0
C2062 C 0.3305 0.53432 0.37881 0.0
C2063 C 0.33602 0.5467 0.36908 0.0
C2064 C 0.31015 0.5565 0.38123 0.0
C2065 C 0.27728 0.55356 0.40372 0.0
C2066 C 0.27049 0.54095 0.41379 0.0
C2067 C 0.29726 0.53119 0.40104 0.0
H2068 H -0.0015 0.44947 0.11168 0.0
H2069 H 0.04908 0.46876 0.19496 0.0
H2070 H 0.11553 0.47571 0.16442 0.0
H2071 H 0.09215 0.435 0.09918 0.0
H2072 H 0.09005 0.43423 0.05631 0.0
H2073 H 0.03928 0.43559 0.07852 0.0
H2074 H 0.01808 0.4558 0.04727 0.0
H2075 H 0.06892 0.45444 0.02446 0.0
H2076 H 0.05675 0.46889 0.04551 0.0
H2077 H 0.18366 0.47556 0.13076 0.0
H2078 H 0.24755 0.46661 0.10143 0.0
H2079 H 0.15589 0.44546 0.04158 0.0
C2080 C 0.02222 0.45591 0.12264 0.0
C2081 C 0.01814 0.45907 0.15506 0.0
C2082 C 0.05107 0.46668 0.16973 0.0
C2083 C 0.08888 0.47063 0.15249 0.0
C2084 C 0.09365 0.46658 0.12095 0.0
C2085 C 0.06099 0.45933 0.10618 0.0
C2086 C 0.07844 0.45323 0.07602 0.0
C2087 C 0.07479 0.43867 0.07765 0.0
C2088 C 0.05411 0.45841 0.04657 0.0
C2089 C 0.12666 0.45758 0.07693 0.0
C2090 C 0.13445 0.46568 0.10226 0.0
C2091 C 0.17772 0.46949 0.11043 0.0
C2092 C 0.21394 0.46436 0.09356 0.0
C2093 C 0.20665 0.45529 0.0693 0.0
C2094 C 0.16241 0.45247 0.05983 0.0
H2095 H 0.65364 0.30326 0.18616 0.0
H2096 H 0.73124 0.27623 0.13195 0.0
H2097 H 0.66384 0.27067 0.10075 0.0
H2098 H 0.53965 0.28686 0.18033 0.0
H2099 H 0.51303 0.30202 0.17555 0.0
H2100 H 0.56231 0.30061 0.20007 0.0
H2101 H 0.60037 0.31822 0.16678 0.0
H2102 H 0.55203 0.31946 0.14172 0.0
H2103 H 0.60586 0.31621 0.12431 0.0
H2104 H 0.59339 0.27205 0.06711 0.0
H2105 H 0.52683 0.27961 0.03693 0.0
H2106 H 0.499 0.30656 0.11181 0.0
C2107 C 0.65603 0.29575 0.16872 0.0
C2108 C 0.69759 0.29022 0.16139 0.0
C2109 C 0.69958 0.28052 0.13817 0.0
C2110 C 0.66142 0.27733 0.12025 0.0
C2111 C 0.62166 0.28381 0.12624 0.0
C2112 C 0.61864 0.29266 0.15045 0.0
C2113 C 0.57538 0.29998 0.14882 0.0
C2114 C 0.54585 0.29719 0.17792 0.0
C2115 C 0.58397 0.3143 0.14517 0.0
C2116 C 0.55556 0.29439 0.11893 0.0
C2117 C 0.58189 0.28486 0.1065 0.0
C2118 C 0.57198 0.27927 0.0771 0.0
C2119 C 0.53447 0.28363 0.06005 0.0
C2120 C 0.50837 0.29359 0.07239 0.0
C2121 C 0.51858 0.29883 0.10226 0.0
H2122 H 0.01592 0.28413 0.5889 0.0
H2123 H 0.0721 0.30941 0.51812 0.0
H2124 H 0.14789 0.30493 0.53834 0.0
H2125 H 0.07938 0.29407 0.6501 0.0
H2126 H 0.08759 0.279 0.66925 0.0
H2127 H 0.03906 0.28153 0.64481 0.0
H2128 H 0.0595 0.26221 0.60989 0.0
H2129 H 0.10783 0.25942 0.63462 0.0
H2130 H 0.1143 0.26127 0.59221 0.0
H2131 H 0.21558 0.30037 0.57075 0.0
H2132 H 0.27066 0.29591 0.61321 0.0
H2133 H 0.17038 0.27468 0.66517 0.0
C2134 C 0.04436 0.28825 0.57674 0.0
C2135 C 0.03825 0.29696 0.55165 0.0
C2136 C 0.07613 0.30259 0.53714 0.0
C2137 C 0.11931 0.30009 0.54844 0.0
C2138 C 0.12408 0.29194 0.57425 0.0
C2139 C 0.0877 0.28599 0.58806 0.0
C2140 C 0.10132 0.27894 0.61796 0.0
C2141 C 0.0753 0.28368 0.64724 0.0
C2142 C 0.09539 0.26461 0.61339 0.0
C2143 C 0.15038 0.28248 0.61981 0.0
C2144 C 0.1631 0.28967 0.59383 0.0
C2145 C 0.20627 0.29453 0.59085 0.0
C2146 C 0.23728 0.29197 0.61503 0.0
C2147 C 0.22464 0.28483 0.64205 0.0
C2148 C 0.18076 0.28003 0.64445 0.0
H2149 H 0.56377 0.43566 0.69012 0.0
H2150 H 0.47238 0.45905 0.63592 0.0
H2151 H 0.53548 0.46727 0.60438 0.0
H2152 H 0.66447 0.45862 0.6854 0.0
H2153 H 0.70217 0.44541 0.68208 0.0
H2154 H 0.65205 0.44401 0.70568 0.0
H2155 H 0.62876 0.42425 0.67297 0.0
H2156 H 0.67836 0.42565 0.64934 0.0
H2157 H 0.62433 0.42546 0.63024 0.0
H2158 H 0.60312 0.46778 0.56912 0.0
H2159 H 0.67087 0.46221 0.53795 0.0
H2160 H 0.72025 0.44046 0.61761 0.0
C2161 C 0.55736 0.44292 0.67254 0.0
C2162 C 0.51321 0.44667 0.66544 0.0
C2163 C 0.50597 0.45608 0.64199 0.0
C2164 C 0.54169 0.46083 0.6239 0.0
C2165 C 0.58463 0.45636 0.63018 0.0
C2166 C 0.59277 0.4479 0.65467 0.0
C2167 C 0.6407 0.44337 0.6542 0.0
C2168 C 0.66636 0.44814 0.68359 0.0
C2169 C 0.64312 0.42883 0.6515 0.0
C2170 C 0.6572 0.44978 0.62423 0.0
C2171 C 0.62471 0.45739 0.61079 0.0
C2172 C 0.62964 0.46236 0.58009 0.0
C2173 C 0.66811 0.4592 0.56252 0.0
C2174 C 0.70108 0.45134 0.57608 0.0
C2175 C 0.6962 0.44698 0.60754 0.0
loop_
_geom_bond_atom_site_label_1
_geom_bond_atom_site_label_2
_geom_bond_distance
_geom_bond_site_symmetry_2
_ccdc_geom_bond_type
Mg0 O1 2.028 . S
Mg0 O7 1.986 . S
Mg0 O9 2.114 . S
Mg0 O10 2.251 . S
Mg0 O13 2.010 . S
O1 Mg0 2.028 . S
O1 C4 1.250 . S
O2 Mg3 2.028 . S
O2 C4 1.248 . S
Mg3 O2 2.028 . S
Mg3 O8 2.032 1_455 S
Mg3 O10 2.079 . S
C4 O1 1.250 . S
C4 O2 1.248 . S
C5 O6 1.264 . S
C5 O13 1.249 . S
O6 C5 1.264 . S
O7 Mg0 1.986 . S
O7 C11 1.246 . S
O8 Mg3 2.032 1_655 S
O8 C11 1.259 1_655 S
O9 Mg0 2.114 . S
O9 C12 1.252 . S
O10 Mg0 2.251 . S
O10 Mg3 2.079 . S
O10 C12 1.273 . S
C11 O7 1.246 . S
C11 O8 1.259 1_455 S
C12 O9 1.252 . S
C12 O10 1.273 . S
O13 Mg0 2.010 . S
O13 C5 1.249 . S
Mg14 O15 2.028 . S
Mg14 O21 1.986 . S
Mg14 O23 2.114 . S
Mg14 O24 2.251 . S
Mg14 O27 2.010 . S
O15 Mg14 2.028 . S
O15 C18 1.250 . S
O16 Mg17 2.028 . S
O16 C18 1.248 . S
Mg17 O16 2.028 . S
Mg17 O22 2.032 . S
Mg17 O24 2.079 . S
C18 O15 1.250 . S
C18 O16 1.248 . S
C19 O20 1.264 . S
C19 O27 1.249 . S
O20 C19 1.264 . S
O21 Mg14 1.986 . S
O21 C25 1.246 . S
O22 Mg17 2.032 . S
O22 C25 1.259 . S
O23 Mg14 2.114 . S
O23 C26 1.252 . S
O24 Mg14 2.251 . S
O24 Mg17 2.079 . S
O24 C26 1.273 . S
C25 O21 1.246 . S
C25 O22 1.259 . S
C26 O23 1.252 . S
C26 O24 1.273 . S
O27 Mg14 2.010 . S
O27 C19 1.249 . S
Mg28 O29 2.028 1_556 S
Mg28 O35 1.986 . S
Mg28 O37 2.114 . S
Mg28 O38 2.251 . S
Mg28 O41 2.010 . S
O29 Mg28 2.028 1_554 S
O29 C32 1.250 . S
O30 Mg31 2.028 1_554 S
O30 C32 1.248 . S
Mg31 O30 2.028 1_556 S
Mg31 O36 2.032 1_455 S
Mg31 O38 2.079 . S
C32 O29 1.250 . S
C32 O30 1.248 . S
C33 O34 1.264 . S
C33 O41 1.249 . S
O34 C33 1.264 . S
O35 Mg28 1.986 . S
O35 C39 1.246 . S
O36 Mg31 2.032 1_655 S
O36 C39 1.259 1_655 S
O37 Mg28 2.114 . S
O37 C40 1.252 . S
O38 Mg28 2.251 . S
O38 Mg31 2.079 . S
O38 C40 1.273 . S
C39 O35 1.246 . S
C39 O36 1.259 1_455 S
C40 O37 1.252 . S
C40 O38 1.273 . S
O41 Mg28 2.010 . S
O41 C33 1.249 . S
Mg42 O43 2.028 1_556 S
Mg42 O49 1.986 . S
Mg42 O51 2.114 . S
Mg42 O52 2.251 . S
Mg42 O55 2.010 . S
O43 Mg42 2.028 1_554 S
O43 C46 1.250 . S
O44 Mg45 2.028 1_554 S
O44 C46 1.248 . S
Mg45 O44 2.028 1_556 S
Mg45 O50 2.032 . S
Mg45 O52 2.079 . S
C46 O43 1.250 . S
C46 O44 1.248 . S
C47 O48 1.264 . S
C47 O55 1.249 . S
O48 C47 1.264 . S
O49 Mg42 1.986 . S
O49 C53 1.246 . S
O50 Mg45 2.032 . S
O50 C53 1.259 . S
O51 Mg42 2.114 . S
O51 C54 1.252 . S
O52 Mg42 2.251 . S
O52 Mg45 2.079 . S
O52 C54 1.273 . S
C53 O49 1.246 . S
C53 O50 1.259 . S
C54 O51 1.252 . S
C54 O52 1.273 . S
O55 Mg42 2.010 . S
O55 C47 1.249 . S
Mg56 O57 2.028 . S
Mg56 O63 1.986 . S
Mg56 O65 2.114 . S
Mg56 O66 2.251 . S
Mg56 O69 2.010 . S
O57 Mg56 2.028 . S
O57 C60 1.250 . S
O58 Mg59 2.028 . S
O58 C60 1.248 . S
Mg59 O58 2.028 . S
Mg59 O64 2.032 1_655 S
Mg59 O66 2.079 . S
C60 O57 1.250 . S
C60 O58 1.248 . S
C61 O62 1.264 . S
C61 O69 1.249 . S
O62 C61 1.264 . S
O63 Mg56 1.986 . S
O63 C67 1.246 . S
O64 Mg59 2.032 1_455 S
O64 C67 1.259 1_455 S
O65 Mg56 2.114 . S
O65 C68 1.252 . S
O66 Mg56 2.251 . S
O66 Mg59 2.079 . S
O66 C68 1.273 . S
C67 O63 1.246 . S
C67 O64 1.259 1_655 S
C68 O65 1.252 . S
C68 O66 1.273 . S
O69 Mg56 2.010 . S
O69 C61 1.249 . S
Mg70 O71 2.028 . S
Mg70 O77 1.986 . S
Mg70 O79 2.114 . S
Mg70 O80 2.251 . S
Mg70 O83 2.010 . S
O71 Mg70 2.028 . S
O71 C74 1.250 . S
O72 Mg73 2.028 . S
O72 C74 1.248 . S
Mg73 O72 2.028 . S
Mg73 O78 2.032 . S
Mg73 O80 2.079 . S
C74 O71 1.250 . S
C74 O72 1.248 . S
C75 O76 1.264 . S
C75 O83 1.249 . S
O76 C75 1.264 . S
O77 Mg70 1.986 . S
O77 C81 1.246 . S
O78 Mg73 2.032 . S
O78 C81 1.259 . S
O79 Mg70 2.114 . S
O79 C82 1.252 . S
O80 Mg70 2.251 . S
O80 Mg73 2.079 . S
O80 C82 1.273 . S
C81 O77 1.246 . S
C81 O78 1.259 . S
C82 O79 1.252 . S
C82 O80 1.273 . S
O83 Mg70 2.010 . S
O83 C75 1.249 . S
Mg84 O85 2.028 1_554 S
Mg84 O91 1.986 . S
Mg84 O93 2.114 . S
Mg84 O94 2.251 . S
Mg84 O97 2.010 . S
O85 Mg84 2.028 1_556 S
O85 C88 1.250 . S
O86 Mg87 2.028 1_556 S
O86 C88 1.248 . S
Mg87 O86 2.028 1_554 S
Mg87 O92 2.032 1_655 S
Mg87 O94 2.079 . S
C88 O85 1.250 . S
C88 O86 1.248 . S
C89 O90 1.264 . S
C89 O97 1.249 . S
O90 C89 1.264 . S
O91 Mg84 1.986 . S
O91 C95 1.246 . S
O92 Mg87 2.032 1_455 S
O92 C95 1.259 1_455 S
O93 Mg84 2.114 . S
O93 C96 1.252 . S
O94 Mg84 2.251 . S
O94 Mg87 2.079 . S
O94 C96 1.273 . S
C95 O91 1.246 . S
C95 O92 1.259 1_655 S
C96 O93 1.252 . S
C96 O94 1.273 . S
O97 Mg84 2.010 . S
O97 C89 1.249 . S
Mg98 O99 2.028 1_554 S
Mg98 O105 1.986 . S
Mg98 O107 2.114 . S
Mg98 O108 2.251 . S
Mg98 O111 2.010 . S
O99 Mg98 2.028 1_556 S
O99 C102 1.250 . S
O100 Mg101 2.028 1_556 S
O100 C102 1.248 . S
Mg101 O100 2.028 1_554 S
Mg101 O106 2.032 . S
Mg101 O108 2.079 . S
C102 O99 1.250 . S
C102 O100 1.248 . S
C103 O104 1.264 . S
C103 O111 1.249 . S
O104 C103 1.264 . S
O105 Mg98 1.986 . S
O105 C109 1.246 . S
O106 Mg101 2.032 . S
O106 C109 1.259 . S
O107 Mg98 2.114 . S
O107 C110 1.252 . S
O108 Mg98 2.251 . S
O108 Mg101 2.079 . S
O108 C110 1.273 . S
C109 O105 1.246 . S
C109 O106 1.259 . S
C110 O107 1.252 . S
C110 O108 1.273 . S
O111 Mg98 2.010 . S
O111 C103 1.249 . S
Mg112 O113 2.028 . S
Mg112 O119 1.986 . S
Mg112 O121 2.114 . S
Mg112 O122 2.251 . S
Mg112 O125 2.010 . S
O113 Mg112 2.028 . S
O113 C116 1.250 . S
O114 Mg115 2.028 . S
O114 C116 1.248 . S
Mg115 O114 2.028 . S
Mg115 O120 2.032 1_455 S
Mg115 O122 2.079 . S
C116 O113 1.250 . S
C116 O114 1.248 . S
C117 O118 1.264 . S
C117 O125 1.249 . S
O118 C117 1.264 . S
O119 Mg112 1.986 . S
O119 C123 1.246 . S
O120 Mg115 2.032 1_655 S
O120 C123 1.259 1_655 S
O121 Mg112 2.114 . S
O121 C124 1.252 . S
O122 Mg112 2.251 . S
O122 Mg115 2.079 . S
O122 C124 1.273 . S
C123 O119 1.246 . S
C123 O120 1.259 1_455 S
C124 O121 1.252 . S
C124 O122 1.273 . S
O125 Mg112 2.010 . S
O125 C117 1.249 . S
Mg126 O127 2.028 . S
Mg126 O133 1.986 . S
Mg126 O135 2.114 . S
Mg126 O136 2.251 . S
Mg126 O139 2.010 . S
O127 Mg126 2.028 . S
O127 C130 1.250 . S
O128 Mg129 2.028 . S
O128 C130 1.248 . S
Mg129 O128 2.028 . S
Mg129 O134 2.032 . S
Mg129 O136 2.079 . S
C130 O127 1.250 . S
C130 O128 1.248 . S
C131 O132 1.264 . S
C131 O139 1.249 . S
O132 C131 1.264 . S
O133 Mg126 1.986 . S
O133 C137 1.246 . S
O134 Mg129 2.032 . S
O134 C137 1.259 . S
O135 Mg126 2.114 . S
O135 C138 1.252 . S
O136 Mg126 2.251 . S
O136 Mg129 2.079 . S
O136 C138 1.273 . S
C137 O133 1.246 . S
C137 O134 1.259 . S
C138 O135 1.252 . S
C138 O136 1.273 . S
O139 Mg126 2.010 . S
O139 C131 1.249 . S
Mg140 O141 2.028 . S
Mg140 O147 1.986 . S
Mg140 O149 2.114 . S
Mg140 O150 2.251 . S
Mg140 O153 2.010 . S
O141 Mg140 2.028 . S
O141 C144 1.250 . S
O142 Mg143 2.028 . S
O142 C144 1.248 . S
Mg143 O142 2.028 . S
Mg143 O148 2.032 1_455 S
Mg143 O150 2.079 . S
C144 O141 1.250 . S
C144 O142 1.248 . S
C145 O146 1.264 . S
C145 O153 1.249 . S
O146 C145 1.264 . S
O147 Mg140 1.986 . S
O147 C151 1.246 . S
O148 Mg143 2.032 1_655 S
O148 C151 1.259 1_655 S
O149 Mg140 2.114 . S
O149 C152 1.252 . S
O150 Mg140 2.251 . S
O150 Mg143 2.079 . S
O150 C152 1.273 . S
C151 O147 1.246 . S
C151 O148 1.259 1_455 S
C152 O149 1.252 . S
C152 O150 1.273 . S
O153 Mg140 2.010 . S
O153 C145 1.249 . S
Mg154 O155 2.028 . S
Mg154 O161 1.986 . S
Mg154 O163 2.114 . S
Mg154 O164 2.251 . S
Mg154 O167 2.010 . S
O155 Mg154 2.028 . S
O155 C158 1.250 . S
O156 Mg157 2.028 . S
O156 C158 1.248 . S
Mg157 O156 2.028 . S
Mg157 O162 2.032 . S
Mg157 O164 2.079 . S
C158 O155 1.250 . S
C158 O156 1.248 . S
C159 O160 1.264 . S
C159 O167 1.249 . S
O160 C159 1.264 . S
O161 Mg154 1.986 . S
O161 C165 1.246 . S
O162 Mg157 2.032 . S
O162 C165 1.259 . S
O163 Mg154 2.114 . S
O163 C166 1.252 . S
O164 Mg154 2.251 . S
O164 Mg157 2.079 . S
O164 C166 1.273 . S
C165 O161 1.246 . S
C165 O162 1.259 . S
C166 O163 1.252 . S
C166 O164 1.273 . S
O167 Mg154 2.010 . S
O167 C159 1.249 . S
Mg168 O169 2.028 . S
Mg168 O175 1.986 . S
Mg168 O177 2.114 . S
Mg168 O178 2.251 . S
Mg168 O181 2.010 . S
O169 Mg168 2.028 . S
O169 C172 1.250 . S
O170 Mg171 2.028 . S
O170 C172 1.248 . S
Mg171 O170 2.028 . S
Mg171 O176 2.032 1_655 S
Mg171 O178 2.079 . S
C172 O169 1.250 . S
C172 O170 1.248 . S
C173 O174 1.264 . S
C173 O181 1.249 . S
O174 C173 1.264 . S
O175 Mg168 1.986 . S
O175 C179 1.246 . S
O176 Mg171 2.032 1_455 S
O176 C179 1.259 1_455 S
O177 Mg168 2.114 . S
O177 C180 1.252 . S
O178 Mg168 2.251 . S
O178 Mg171 2.079 . S
O178 C180 1.273 . S
C179 O175 1.246 . S
C179 O176 1.259 1_655 S
C180 O177 1.252 . S
C180 O178 1.273 . S
O181 Mg168 2.010 . S
O181 C173 1.249 . S
Mg182 O183 2.028 . S
Mg182 O189 1.986 . S
Mg182 O191 2.114 . S
Mg182 O192 2.251 . S
Mg182 O195 2.010 . S
O183 Mg182 2.028 . S
O183 C186 1.250 . S
O184 Mg185 2.028 . S
O184 C186 1.248 . S
Mg185 O184 2.028 . S
Mg185 O190 2.032 . S
Mg185 O192 2.079 . S
C186 O183 1.250 . S
C186 O184 1.248 . S
C187 O188 1.264 . S
C187 O195 1.249 . S
O188 C187 1.264 . S
O189 Mg182 1.986 . S
O189 C193 1.246 . S
O190 Mg185 2.032 . S
O190 C193 1.259 . S
O191 Mg182 2.114 . S
O191 C194 1.252 . S
O192 Mg182 2.251 . S
O192 Mg185 2.079 . S
O192 C194 1.273 . S
C193 O189 1.246 . S
C193 O190 1.259 . S
C194 O191 1.252 . S
C194 O192 1.273 . S
O195 Mg182 2.010 . S
O195 C187 1.249 . S
Mg196 O197 2.028 . S
Mg196 O203 1.986 . S
Mg196 O205 2.114 . S
Mg196 O206 2.251 . S
Mg196 O209 2.010 . S
O197 Mg196 2.028 . S
O197 C200 1.250 . S
O198 Mg199 2.028 . S
O198 C200 1.248 . S
Mg199 O198 2.028 . S
Mg199 O204 2.032 1_655 S
Mg199 O206 2.079 . S
C200 O197 1.250 . S
C200 O198 1.248 . S
C201 O202 1.264 . S
C201 O209 1.249 . S
O202 C201 1.264 . S
O203 Mg196 1.986 . S
O203 C207 1.246 . S
O204 Mg199 2.032 1_455 S
O204 C207 1.259 1_455 S
O205 Mg196 2.114 . S
O205 C208 1.252 . S
O206 Mg196 2.251 . S
O206 Mg199 2.079 . S
O206 C208 1.273 . S
C207 O203 1.246 . S
C207 O204 1.259 1_655 S
C208 O205 1.252 . S
C208 O206 1.273 . S
O209 Mg196 2.010 . S
O209 C201 1.249 . S
Mg210 O211 2.028 . S
Mg210 O217 1.986 . S
Mg210 O219 2.114 . S
Mg210 O220 2.251 . S
Mg210 O223 2.010 . S
O211 Mg210 2.028 . S
O211 C214 1.250 . S
O212 Mg213 2.028 . S
O212 C214 1.248 . S
Mg213 O212 2.028 . S
Mg213 O218 2.032 . S
Mg213 O220 2.079 . S
C214 O211 1.250 . S
C214 O212 1.248 . S
C215 O216 1.264 . S
C215 O223 1.249 . S
O216 C215 1.264 . S
O217 Mg210 1.986 . S
O217 C221 1.246 . S
O218 Mg213 2.032 . S
O218 C221 1.259 . S
O219 Mg210 2.114 . S
O219 C222 1.252 . S
O220 Mg210 2.251 . S
O220 Mg213 2.079 . S
O220 C222 1.273 . S
C221 O217 1.246 . S
C221 O218 1.259 . S
C222 O219 1.252 . S
C222 O220 1.273 . S
O223 Mg210 2.010 . S
O223 C215 1.249 . S
Mg224 O225 2.028 . S
Mg224 O231 1.986 . S
Mg224 O233 2.114 . S
Mg224 O234 2.251 . S
Mg224 O237 2.010 . S
O225 Mg224 2.028 . S
O225 C228 1.250 . S
O226 Mg227 2.028 . S
O226 C228 1.248 . S
Mg227 O226 2.028 . S
Mg227 O232 2.032 . S
Mg227 O234 2.079 . S
C228 O225 1.250 . S
C228 O226 1.248 . S
C229 O230 1.264 . S
C229 O237 1.249 . S
O230 C229 1.264 . S
O231 Mg224 1.986 . S
O231 C235 1.246 . S
O232 Mg227 2.032 . S
O232 C235 1.259 . S
O233 Mg224 2.114 . S
O233 C236 1.252 . S
O234 Mg224 2.251 . S
O234 Mg227 2.079 . S
O234 C236 1.273 . S
C235 O231 1.246 . S
C235 O232 1.259 . S
C236 O233 1.252 . S
C236 O234 1.273 . S
O237 Mg224 2.010 . S
O237 C229 1.249 . S
Mg238 O239 2.028 . S
Mg238 O245 1.986 . S
Mg238 O247 2.114 . S
Mg238 O248 2.251 . S
Mg238 O251 2.010 . S
O239 Mg238 2.028 . S
O239 C242 1.250 . S
O240 Mg241 2.028 . S
O240 C242 1.248 . S
Mg241 O240 2.028 . S
Mg241 O246 2.032 . S
Mg241 O248 2.079 . S
C242 O239 1.250 . S
C242 O240 1.248 . S
C243 O244 1.264 . S
C243 O251 1.249 . S
O244 C243 1.264 . S
O245 Mg238 1.986 . S
O245 C249 1.246 . S
O246 Mg241 2.032 . S
O246 C249 1.259 . S
O247 Mg238 2.114 . S
O247 C250 1.252 . S
O248 Mg238 2.251 . S
O248 Mg241 2.079 . S
O248 C250 1.273 . S
C249 O245 1.246 . S
C249 O246 1.259 . S
C250 O247 1.252 . S
C250 O248 1.273 . S
O251 Mg238 2.010 . S
O251 C243 1.249 . S
Mg252 O253 2.028 . S
Mg252 O259 1.986 . S
Mg252 O261 2.114 . S
Mg252 O262 2.251 . S
Mg252 O265 2.010 . S
O253 Mg252 2.028 . S
O253 C256 1.250 . S
O254 Mg255 2.028 . S
O254 C256 1.248 . S
Mg255 O254 2.028 . S
Mg255 O260 2.032 . S
Mg255 O262 2.079 . S
C256 O253 1.250 . S
C256 O254 1.248 . S
C257 O258 1.264 . S
C257 O265 1.249 . S
O258 C257 1.264 . S
O259 Mg252 1.986 . S
O259 C263 1.246 . S
O260 Mg255 2.032 . S
O260 C263 1.259 . S
O261 Mg252 2.114 . S
O261 C264 1.252 . S
O262 Mg252 2.251 . S
O262 Mg255 2.079 . S
O262 C264 1.273 . S
C263 O259 1.246 . S
C263 O260 1.259 . S
C264 O261 1.252 . S
C264 O262 1.273 . S
O265 Mg252 2.010 . S
O265 C257 1.249 . S
Mg266 O267 2.028 . S
Mg266 O273 1.986 . S
Mg266 O275 2.114 . S
Mg266 O276 2.251 . S
Mg266 O279 2.010 . S
O267 Mg266 2.028 . S
O267 C270 1.250 . S
O268 Mg269 2.028 . S
O268 C270 1.248 . S
Mg269 O268 2.028 . S
Mg269 O274 2.032 . S
Mg269 O276 2.079 . S
C270 O267 1.250 . S
C270 O268 1.248 . S
C271 O272 1.264 . S
C271 O279 1.249 . S
O272 C271 1.264 . S
O273 Mg266 1.986 . S
O273 C277 1.246 . S
O274 Mg269 2.032 . S
O274 C277 1.259 . S
O275 Mg266 2.114 . S
O275 C278 1.252 . S
O276 Mg266 2.251 . S
O276 Mg269 2.079 . S
O276 C278 1.273 . S
C277 O273 1.246 . S
C277 O274 1.259 . S
C278 O275 1.252 . S
C278 O276 1.273 . S
O279 Mg266 2.010 . S
O279 C271 1.249 . S
Mg280 O281 2.028 . S
Mg280 O287 1.986 . S
Mg280 O289 2.114 . S
Mg280 O290 2.251 . S
Mg280 O293 2.010 . S
O281 Mg280 2.028 . S
O281 C284 1.250 . S
O282 Mg283 2.028 . S
O282 C284 1.248 . S
Mg283 O282 2.028 . S
Mg283 O288 2.032 . S
Mg283 O290 2.079 . S
C284 O281 1.250 . S
C284 O282 1.248 . S
C285 O286 1.264 . S
C285 O293 1.249 . S
O286 C285 1.264 . S
O287 Mg280 1.986 . S
O287 C291 1.246 . S
O288 Mg283 2.032 . S
O288 C291 1.259 . S
O289 Mg280 2.114 . S
O289 C292 1.252 . S
O290 Mg280 2.251 . S
O290 Mg283 2.079 . S
O290 C292 1.273 . S
C291 O287 1.246 . S
C291 O288 1.259 . S
C292 O289 1.252 . S
C292 O290 1.273 . S
O293 Mg280 2.010 . S
O293 C285 1.249 . S
Mg294 O295 2.028 . S
Mg294 O301 1.986 . S
Mg294 O303 2.114 . S
Mg294 O304 2.251 . S
Mg294 O307 2.010 . S
O295 Mg294 2.028 . S
O295 C298 1.250 . S
O296 Mg297 2.028 . S
O296 C298 1.248 . S
Mg297 O296 2.028 . S
Mg297 O302 2.032 . S
Mg297 O304 2.079 . S
C298 O295 1.250 . S
C298 O296 1.248 . S
C299 O300 1.264 . S
C299 O307 1.249 . S
O300 C299 1.264 . S
O301 Mg294 1.986 . S
O301 C305 1.246 . S
O302 Mg297 2.032 . S
O302 C305 1.259 . S
O303 Mg294 2.114 . S
O303 C306 1.252 . S
O304 Mg294 2.251 . S
O304 Mg297 2.079 . S
O304 C306 1.273 . S
C305 O301 1.246 . S
C305 O302 1.259 . S
C306 O303 1.252 . S
C306 O304 1.273 . S
O307 Mg294 2.010 . S
O307 C299 1.249 . S
Mg308 O309 2.028 . S
Mg308 O315 1.986 . S
Mg308 O317 2.114 . S
Mg308 O318 2.251 . S
Mg308 O321 2.010 . S
O309 Mg308 2.028 . S
O309 C312 1.250 . S
O310 Mg311 2.028 . S
O310 C312 1.248 . S
Mg311 O310 2.028 . S
Mg311 O316 2.032 . S
Mg311 O318 2.079 . S
C312 O309 1.250 . S
C312 O310 1.248 . S
C313 O314 1.264 . S
C313 O321 1.249 . S
O314 C313 1.264 . S
O315 Mg308 1.986 . S
O315 C319 1.246 . S
O316 Mg311 2.032 . S
O316 C319 1.259 . S
O317 Mg308 2.114 . S
O317 C320 1.252 . S
O318 Mg308 2.251 . S
O318 Mg311 2.079 . S
O318 C320 1.273 . S
C319 O315 1.246 . S
C319 O316 1.259 . S
C320 O317 1.252 . S
C320 O318 1.273 . S
O321 Mg308 2.010 . S
O321 C313 1.249 . S
Mg322 O323 2.028 . S
Mg322 O329 1.986 . S
Mg322 O331 2.114 . S
Mg322 O332 2.251 . S
Mg322 O335 2.010 . S
O323 Mg322 2.028 . S
O323 C326 1.250 . S
O324 Mg325 2.028 . S
O324 C326 1.248 . S
Mg325 O324 2.028 . S
Mg325 O330 2.032 . S
Mg325 O332 2.079 . S
C326 O323 1.250 . S
C326 O324 1.248 . S
C327 O328 1.264 . S
C327 O335 1.249 . S
O328 C327 1.264 . S
O329 Mg322 1.986 . S
O329 C333 1.246 . S
O330 Mg325 2.032 . S
O330 C333 1.259 . S
O331 Mg322 2.114 . S
O331 C334 1.252 . S
O332 Mg322 2.251 . S
O332 Mg325 2.079 . S
O332 C334 1.273 . S
C333 O329 1.246 . S
C333 O330 1.259 . S
C334 O331 1.252 . S
C334 O332 1.273 . S
O335 Mg322 2.010 . S
O335 C327 1.249 . S
Mg336 O337 2.028 . S
Mg336 O343 1.986 . S
Mg336 O345 2.114 . S
Mg336 O346 2.251 . S
Mg336 O349 2.010 . S
O337 Mg336 2.028 . S
O337 C340 1.250 . S
O338 Mg339 2.028 . S
O338 C340 1.248 . S
Mg339 O338 2.028 . S
Mg339 O344 2.032 . S
Mg339 O346 2.079 . S
C340 O337 1.250 . S
C340 O338 1.248 . S
C341 O342 1.264 . S
C341 O349 1.249 . S
O342 C341 1.264 . S
O343 Mg336 1.986 . S
O343 C347 1.246 . S
O344 Mg339 2.032 . S
O344 C347 1.259 . S
O345 Mg336 2.114 . S
O345 C348 1.252 . S
O346 Mg336 2.251 . S
O346 Mg339 2.079 . S
O346 C348 1.273 . S
C347 O343 1.246 . S
C347 O344 1.259 . S
C348 O345 1.252 . S
C348 O346 1.273 . S
O349 Mg336 2.010 . S
O349 C341 1.249 . S
Mg350 O351 2.028 . S
Mg350 O357 1.986 . S
Mg350 O359 2.114 . S
Mg350 O360 2.251 . S
Mg350 O363 2.010 . S
O351 Mg350 2.028 . S
O351 C354 1.250 . S
O352 Mg353 2.028 . S
O352 C354 1.248 . S
Mg353 O352 2.028 . S
Mg353 O358 2.032 . S
Mg353 O360 2.079 . S
C354 O351 1.250 . S
C354 O352 1.248 . S
C355 O356 1.264 . S
C355 O363 1.249 . S
O356 C355 1.264 . S
O357 Mg350 1.986 . S
O357 C361 1.246 . S
O358 Mg353 2.032 . S
O358 C361 1.259 . S
O359 Mg350 2.114 . S
O359 C362 1.252 . S
O360 Mg350 2.251 . S
O360 Mg353 2.079 . S
O360 C362 1.273 . S
C361 O357 1.246 . S
C361 O358 1.259 . S
C362 O359 1.252 . S
C362 O360 1.273 . S
O363 Mg350 2.010 . S
O363 C355 1.249 . S
Mg364 O365 2.028 1_556 S
Mg364 O371 1.986 . S
Mg364 O373 2.114 . S
Mg364 O374 2.251 . S
Mg364 O377 2.010 . S
O365 Mg364 2.028 1_554 S
O365 C368 1.250 . S
O366 Mg367 2.028 1_554 S
O366 C368 1.248 . S
Mg367 O366 2.028 1_556 S
Mg367 O372 2.032 . S
Mg367 O374 2.079 . S
C368 O365 1.250 . S
C368 O366 1.248 . S
C369 O370 1.264 . S
C369 O377 1.249 . S
O370 C369 1.264 . S
O371 Mg364 1.986 . S
O371 C375 1.246 . S
O372 Mg367 2.032 . S
O372 C375 1.259 . S
O373 Mg364 2.114 . S
O373 C376 1.252 . S
O374 Mg364 2.251 . S
O374 Mg367 2.079 . S
O374 C376 1.273 . S
C375 O371 1.246 . S
C375 O372 1.259 . S
C376 O373 1.252 . S
C376 O374 1.273 . S
O377 Mg364 2.010 . S
O377 C369 1.249 . S
Mg378 O379 2.028 1_556 S
Mg378 O385 1.986 . S
Mg378 O387 2.114 . S
Mg378 O388 2.251 . S
Mg378 O391 2.010 . S
O379 Mg378 2.028 1_554 S
O379 C382 1.250 . S
O380 Mg381 2.028 1_554 S
O380 C382 1.248 . S
Mg381 O380 2.028 1_556 S
Mg381 O386 2.032 . S
Mg381 O388 2.079 . S
C382 O379 1.250 . S
C382 O380 1.248 . S
C383 O384 1.264 . S
C383 O391 1.249 . S
O384 C383 1.264 . S
O385 Mg378 1.986 . S
O385 C389 1.246 . S
O386 Mg381 2.032 . S
O386 C389 1.259 . S
O387 Mg378 2.114 . S
O387 C390 1.252 . S
O388 Mg378 2.251 . S
O388 Mg381 2.079 . S
O388 C390 1.273 . S
C389 O385 1.246 . S
C389 O386 1.259 . S
C390 O387 1.252 . S
C390 O388 1.273 . S
O391 Mg378 2.010 . S
O391 C383 1.249 . S
Mg392 O393 2.028 . S
Mg392 O399 1.986 . S
Mg392 O401 2.114 . S
Mg392 O402 2.251 . S
Mg392 O405 2.010 . S
O393 Mg392 2.028 . S
O393 C396 1.250 . S
O394 Mg395 2.028 . S
O394 C396 1.248 . S
Mg395 O394 2.028 . S
Mg395 O400 2.032 . S
Mg395 O402 2.079 . S
C396 O393 1.250 . S
C396 O394 1.248 . S
C397 O398 1.264 . S
C397 O405 1.249 . S
O398 C397 1.264 . S
O399 Mg392 1.986 . S
O399 C403 1.246 . S
O400 Mg395 2.032 . S
O400 C403 1.259 . S
O401 Mg392 2.114 . S
O401 C404 1.252 . S
O402 Mg392 2.251 . S
O402 Mg395 2.079 . S
O402 C404 1.273 . S
C403 O399 1.246 . S
C403 O400 1.259 . S
C404 O401 1.252 . S
C404 O402 1.273 . S
O405 Mg392 2.010 . S
O405 C397 1.249 . S
Mg406 O407 2.028 . S
Mg406 O413 1.986 . S
Mg406 O415 2.114 . S
Mg406 O416 2.251 . S
Mg406 O419 2.010 . S
O407 Mg406 2.028 . S
O407 C410 1.250 . S
O408 Mg409 2.028 . S
O408 C410 1.248 . S
Mg409 O408 2.028 . S
Mg409 O414 2.032 . S
Mg409 O416 2.079 . S
C410 O407 1.250 . S
C410 O408 1.248 . S
C411 O412 1.264 . S
C411 O419 1.249 . S
O412 C411 1.264 . S
O413 Mg406 1.986 . S
O413 C417 1.246 . S
O414 Mg409 2.032 . S
O414 C417 1.259 . S
O415 Mg406 2.114 . S
O415 C418 1.252 . S
O416 Mg406 2.251 . S
O416 Mg409 2.079 . S
O416 C418 1.273 . S
C417 O413 1.246 . S
C417 O414 1.259 . S
C418 O415 1.252 . S
C418 O416 1.273 . S
O419 Mg406 2.010 . S
O419 C411 1.249 . S
Mg420 O421 2.028 1_554 S
Mg420 O427 1.986 . S
Mg420 O429 2.114 . S
Mg420 O430 2.251 . S
Mg420 O433 2.010 . S
O421 Mg420 2.028 1_556 S
O421 C424 1.250 . S
O422 Mg423 2.028 1_556 S
O422 C424 1.248 . S
Mg423 O422 2.028 1_554 S
Mg423 O428 2.032 . S
Mg423 O430 2.079 . S
C424 O421 1.250 . S
C424 O422 1.248 . S
C425 O426 1.264 . S
C425 O433 1.249 . S
O426 C425 1.264 . S
O427 Mg420 1.986 . S
O427 C431 1.246 . S
O428 Mg423 2.032 . S
O428 C431 1.259 . S
O429 Mg420 2.114 . S
O429 C432 1.252 . S
O430 Mg420 2.251 . S
O430 Mg423 2.079 . S
O430 C432 1.273 . S
C431 O427 1.246 . S
C431 O428 1.259 . S
C432 O429 1.252 . S
C432 O430 1.273 . S
O433 Mg420 2.010 . S
O433 C425 1.249 . S
Mg434 O435 2.028 1_554 S
Mg434 O441 1.986 . S
Mg434 O443 2.114 . S
Mg434 O444 2.251 . S
Mg434 O447 2.010 . S
O435 Mg434 2.028 1_556 S
O435 C438 1.250 . S
O436 Mg437 2.028 1_556 S
O436 C438 1.248 . S
Mg437 O436 2.028 1_554 S
Mg437 O442 2.032 . S
Mg437 O444 2.079 . S
C438 O435 1.250 . S
C438 O436 1.248 . S
C439 O440 1.264 . S
C439 O447 1.249 . S
O440 C439 1.264 . S
O441 Mg434 1.986 . S
O441 C445 1.246 . S
O442 Mg437 2.032 . S
O442 C445 1.259 . S
O443 Mg434 2.114 . S
O443 C446 1.252 . S
O444 Mg434 2.251 . S
O444 Mg437 2.079 . S
O444 C446 1.273 . S
C445 O441 1.246 . S
C445 O442 1.259 . S
C446 O443 1.252 . S
C446 O444 1.273 . S
O447 Mg434 2.010 . S
O447 C439 1.249 . S
H448 C460 0.930 . S
H449 C462 0.930 . S
H450 C463 0.930 . S
H451 C467 0.959 . S
H452 C467 0.959 . S
H453 C467 0.961 . S
H454 C468 0.960 . S
H455 C468 0.961 . S
H456 C468 0.959 . S
H457 C471 0.929 . S
H458 C472 0.931 . S
H459 C474 0.930 . S
C460 H448 0.930 . S
C460 C461 1.399 . S
C460 C465 1.399 . S
C461 C460 1.399 . S
C461 C462 1.376 . S
C462 H449 0.930 . S
C462 C461 1.376 . S
C462 C463 1.388 . S
C463 H450 0.930 . S
C463 C462 1.388 . S
C463 C464 1.390 . S
C464 C463 1.390 . S
C464 C465 1.394 . S
C464 C470 1.465 . S
C465 C460 1.399 . S
C465 C464 1.394 . S
C465 C466 1.516 . S
C466 C465 1.516 . S
C466 C467 1.502 . S
C466 C468 1.561 . S
C466 C469 1.526 . S
C467 H451 0.959 . S
C467 H452 0.959 . S
C467 H453 0.961 . S
C467 C466 1.502 . S
C468 H454 0.960 . S
C468 H455 0.961 . S
C468 H456 0.959 . S
C468 C466 1.561 . S
C469 C466 1.526 . S
C469 C470 1.396 . S
C469 C474 1.390 . S
C470 C464 1.465 . S
C470 C469 1.396 . S
C470 C471 1.399 . S
C471 H457 0.929 . S
C471 C470 1.399 . S
C471 C472 1.385 . S
C472 H458 0.931 . S
C472 C471 1.385 . S
C472 C473 1.389 . S
C473 C472 1.389 . S
C473 C474 1.387 . S
C474 H459 0.930 . S
C474 C469 1.390 . S
C474 C473 1.387 . S
H475 C487 0.930 . S
H476 C489 0.930 . S
H477 C490 0.930 . S
H478 C494 0.959 . S
H479 C494 0.959 . S
H480 C494 0.961 . S
H481 C495 0.960 . S
H482 C495 0.961 . S
H483 C495 0.959 . S
H484 C498 0.929 . S
H485 C499 0.931 . S
H486 C501 0.930 . S
C487 H475 0.930 . S
C487 C488 1.399 . S
C487 C492 1.399 . S
C488 C487 1.399 . S
C488 C489 1.376 . S
C489 H476 0.930 . S
C489 C488 1.376 . S
C489 C490 1.388 . S
C490 H477 0.930 . S
C490 C489 1.388 . S
C490 C491 1.390 . S
C491 C490 1.390 . S
C491 C492 1.394 . S
C491 C497 1.465 . S
C492 C487 1.399 . S
C492 C491 1.394 . S
C492 C493 1.516 . S
C493 C492 1.516 . S
C493 C494 1.502 . S
C493 C495 1.561 . S
C493 C496 1.526 . S
C494 H478 0.959 . S
C494 H479 0.959 . S
C494 H480 0.961 . S
C494 C493 1.502 . S
C495 H481 0.960 . S
C495 H482 0.961 . S
C495 H483 0.959 . S
C495 C493 1.561 . S
C496 C493 1.526 . S
C496 C497 1.396 . S
C496 C501 1.390 . S
C497 C491 1.465 . S
C497 C496 1.396 . S
C497 C498 1.399 . S
C498 H484 0.929 . S
C498 C497 1.399 . S
C498 C499 1.385 . S
C499 H485 0.931 . S
C499 C498 1.385 . S
C499 C500 1.389 . S
C500 C499 1.389 . S
C500 C501 1.387 . S
C501 H486 0.930 . S
C501 C496 1.390 . S
C501 C500 1.387 . S
H502 C514 0.930 . S
H503 C516 0.930 . S
H504 C517 0.930 . S
H505 C521 0.959 . S
H506 C521 0.959 . S
H507 C521 0.961 . S
H508 C522 0.960 . S
H509 C522 0.961 . S
H510 C522 0.959 . S
H511 C525 0.929 . S
H512 C526 0.931 . S
H513 C528 0.930 . S
C514 H502 0.930 . S
C514 C515 1.399 . S
C514 C519 1.399 . S
C515 C514 1.399 . S
C515 C516 1.376 . S
C516 H503 0.930 . S
C516 C515 1.376 . S
C516 C517 1.388 . S
C517 H504 0.930 . S
C517 C516 1.388 . S
C517 C518 1.390 . S
C518 C517 1.390 . S
C518 C519 1.394 . S
C518 C524 1.465 . S
C519 C514 1.399 . S
C519 C518 1.394 . S
C519 C520 1.516 . S
C520 C519 1.516 . S
C520 C521 1.502 . S
C520 C522 1.561 . S
C520 C523 1.526 . S
C521 H505 0.959 . S
C521 H506 0.959 . S
C521 H507 0.961 . S
C521 C520 1.502 . S
C522 H508 0.960 . S
C522 H509 0.961 . S
C522 H510 0.959 . S
C522 C520 1.561 . S
C523 C520 1.526 . S
C523 C524 1.396 . S
C523 C528 1.390 . S
C524 C518 1.465 . S
C524 C523 1.396 . S
C524 C525 1.399 . S
C525 H511 0.929 . S
C525 C524 1.399 . S
C525 C526 1.385 . S
C526 H512 0.931 . S
C526 C525 1.385 . S
C526 C527 1.389 . S
C527 C526 1.389 . S
C527 C528 1.387 . S
C528 H513 0.930 . S
C528 C523 1.390 . S
C528 C527 1.387 . S
H529 C541 0.930 . S
H530 C543 0.930 . S
H531 C544 0.930 . S
H532 C548 0.959 . S
H533 C548 0.959 . S
H534 C548 0.961 . S
H535 C549 0.960 . S
H536 C549 0.961 . S
H537 C549 0.959 . S
H538 C552 0.929 . S
H539 C553 0.931 . S
H540 C555 0.930 . S
C541 H529 0.930 . S
C541 C542 1.399 . S
C541 C546 1.399 . S
C542 C541 1.399 . S
C542 C543 1.376 . S
C543 H530 0.930 . S
C543 C542 1.376 . S
C543 C544 1.388 . S
C544 H531 0.930 . S
C544 C543 1.388 . S
C544 C545 1.390 . S
C545 C544 1.390 . S
C545 C546 1.394 . S
C545 C551 1.465 . S
C546 C541 1.399 . S
C546 C545 1.394 . S
C546 C547 1.516 . S
C547 C546 1.516 . S
C547 C548 1.502 . S
C547 C549 1.561 . S
C547 C550 1.526 . S
C548 H532 0.959 . S
C548 H533 0.959 . S
C548 H534 0.961 . S
C548 C547 1.502 . S
C549 H535 0.960 . S
C549 H536 0.961 . S
C549 H537 0.959 . S
C549 C547 1.561 . S
C550 C547 1.526 . S
C550 C551 1.396 . S
C550 C555 1.390 . S
C551 C545 1.465 . S
C551 C550 1.396 . S
C551 C552 1.399 . S
C552 H538 0.929 . S
C552 C551 1.399 . S
C552 C553 1.385 . S
C553 H539 0.931 . S
C553 C552 1.385 . S
C553 C554 1.389 . S
C554 C553 1.389 . S
C554 C555 1.387 . S
C555 H540 0.930 . S
C555 C550 1.390 . S
C555 C554 1.387 . S
H556 C568 0.930 . S
H557 C570 0.930 . S
H558 C571 0.930 . S
H559 C575 0.959 . S
H560 C575 0.959 . S
H561 C575 0.961 . S
H562 C576 0.960 . S
H563 C576 0.961 . S
H564 C576 0.959 . S
H565 C579 0.929 . S
H566 C580 0.931 . S
H567 C582 0.930 . S
C568 H556 0.930 . S
C568 C569 1.399 . S
C568 C573 1.399 . S
C569 C568 1.399 . S
C569 C570 1.376 . S
C570 H557 0.930 . S
C570 C569 1.376 . S
C570 C571 1.388 . S
C571 H558 0.930 . S
C571 C570 1.388 . S
C571 C572 1.390 . S
C572 C571 1.390 . S
C572 C573 1.394 . S
C572 C578 1.465 . S
C573 C568 1.399 . S
C573 C572 1.394 . S
C573 C574 1.516 . S
C574 C573 1.516 . S
C574 C575 1.502 . S
C574 C576 1.561 . S
C574 C577 1.526 . S
C575 H559 0.959 . S
C575 H560 0.959 . S
C575 H561 0.961 . S
C575 C574 1.502 . S
C576 H562 0.960 . S
C576 H563 0.961 . S
C576 H564 0.959 . S
C576 C574 1.561 . S
C577 C574 1.526 . S
C577 C578 1.396 . S
C577 C582 1.390 . S
C578 C572 1.465 . S
C578 C577 1.396 . S
C578 C579 1.399 . S
C579 H565 0.929 . S
C579 C578 1.399 . S
C579 C580 1.385 . S
C580 H566 0.931 . S
C580 C579 1.385 . S
C580 C581 1.389 . S
C581 C580 1.389 . S
C581 C582 1.387 . S
C582 H567 0.930 . S
C582 C577 1.390 . S
C582 C581 1.387 . S
H583 C595 0.930 . S
H584 C597 0.930 . S
H585 C598 0.930 . S
H586 C602 0.959 . S
H587 C602 0.959 . S
H588 C602 0.961 . S
H589 C603 0.960 . S
H590 C603 0.961 . S
H591 C603 0.959 . S
H592 C606 0.929 . S
H593 C607 0.931 . S
H594 C609 0.930 . S
C595 H583 0.930 . S
C595 C596 1.399 . S
C595 C600 1.399 . S
C596 C595 1.399 . S
C596 C597 1.376 . S
C597 H584 0.930 . S
C597 C596 1.376 . S
C597 C598 1.388 . S
C598 H585 0.930 . S
C598 C597 1.388 . S
C598 C599 1.390 . S
C599 C598 1.390 . S
C599 C600 1.394 . S
C599 C605 1.465 . S
C600 C595 1.399 . S
C600 C599 1.394 . S
C600 C601 1.516 . S
C601 C600 1.516 . S
C601 C602 1.502 . S
C601 C603 1.561 . S
C601 C604 1.526 . S
C602 H586 0.959 . S
C602 H587 0.959 . S
C602 H588 0.961 . S
C602 C601 1.502 . S
C603 H589 0.960 . S
C603 H590 0.961 . S
C603 H591 0.959 . S
C603 C601 1.561 . S
C604 C601 1.526 . S
C604 C605 1.396 . S
C604 C609 1.390 . S
C605 C599 1.465 . S
C605 C604 1.396 . S
C605 C606 1.399 . S
C606 H592 0.929 . S
C606 C605 1.399 . S
C606 C607 1.385 . S
C607 H593 0.931 . S
C607 C606 1.385 . S
C607 C608 1.389 . S
C608 C607 1.389 . S
C608 C609 1.387 . S
C609 H594 0.930 . S
C609 C604 1.390 . S
C609 C608 1.387 . S
H610 C622 0.930 . S
H611 C624 0.930 . S
H612 C625 0.930 . S
H613 C629 0.959 . S
H614 C629 0.959 . S
H615 C629 0.961 . S
H616 C630 0.960 . S
H617 C630 0.961 . S
H618 C630 0.959 . S
H619 C633 0.929 . S
H620 C634 0.931 . S
H621 C636 0.930 . S
C622 H610 0.930 . S
C622 C623 1.399 . S
C622 C627 1.399 . S
C623 C622 1.399 . S
C623 C624 1.376 . S
C624 H611 0.930 . S
C624 C623 1.376 . S
C624 C625 1.388 . S
C625 H612 0.930 . S
C625 C624 1.388 . S
C625 C626 1.390 . S
C626 C625 1.390 . S
C626 C627 1.394 . S
C626 C632 1.465 . S
C627 C622 1.399 . S
C627 C626 1.394 . S
C627 C628 1.516 . S
C628 C627 1.516 . S
C628 C629 1.502 . S
C628 C630 1.561 . S
C628 C631 1.526 . S
C629 H613 0.959 . S
C629 H614 0.959 . S
C629 H615 0.961 . S
C629 C628 1.502 . S
C630 H616 0.960 . S
C630 H617 0.961 . S
C630 H618 0.959 . S
C630 C628 1.561 . S
C631 C628 1.526 . S
C631 C632 1.396 . S
C631 C636 1.390 . S
C632 C626 1.465 . S
C632 C631 1.396 . S
C632 C633 1.399 . S
C633 H619 0.929 . S
C633 C632 1.399 . S
C633 C634 1.385 . S
C634 H620 0.931 . S
C634 C633 1.385 . S
C634 C635 1.389 . S
C635 C634 1.389 . S
C635 C636 1.387 . S
C636 H621 0.930 . S
C636 C631 1.390 . S
C636 C635 1.387 . S
H637 C649 0.930 . S
H638 C651 0.930 . S
H639 C652 0.930 . S
H640 C656 0.959 . S
H641 C656 0.959 . S
H642 C656 0.961 . S
H643 C657 0.960 . S
H644 C657 0.961 . S
H645 C657 0.959 . S
H646 C660 0.929 . S
H647 C661 0.931 . S
H648 C663 0.930 . S
C649 H637 0.930 . S
C649 C650 1.399 . S
C649 C654 1.399 . S
C650 C649 1.399 . S
C650 C651 1.376 . S
C651 H638 0.930 . S
C651 C650 1.376 . S
C651 C652 1.388 . S
C652 H639 0.930 . S
C652 C651 1.388 . S
C652 C653 1.390 . S
C653 C652 1.390 . S
C653 C654 1.394 . S
C653 C659 1.465 . S
C654 C649 1.399 . S
C654 C653 1.394 . S
C654 C655 1.516 . S
C655 C654 1.516 . S
C655 C656 1.502 . S
C655 C657 1.561 . S
C655 C658 1.526 . S
C656 H640 0.959 . S
C656 H641 0.959 . S
C656 H642 0.961 . S
C656 C655 1.502 . S
C657 H643 0.960 . S
C657 H644 0.961 . S
C657 H645 0.959 . S
C657 C655 1.561 . S
C658 C655 1.526 . S
C658 C659 1.396 . S
C658 C663 1.390 . S
C659 C653 1.465 . S
C659 C658 1.396 . S
C659 C660 1.399 . S
C660 H646 0.929 . S
C660 C659 1.399 . S
C660 C661 1.385 . S
C661 H647 0.931 . S
C661 C660 1.385 . S
C661 C662 1.389 . S
C662 C661 1.389 . S
C662 C663 1.387 . S
C663 H648 0.930 . S
C663 C658 1.390 . S
C663 C662 1.387 . S
H664 C676 0.930 . S
H665 C678 0.930 . S
H666 C679 0.930 . S
H667 C683 0.959 . S
H668 C683 0.959 . S
H669 C683 0.961 . S
H670 C684 0.960 . S
H671 C684 0.961 . S
H672 C684 0.959 . S
H673 C687 0.929 . S
H674 C688 0.931 . S
H675 C690 0.930 . S
C676 H664 0.930 . S
C676 C677 1.399 . S
C676 C681 1.399 . S
C677 C676 1.399 . S
C677 C678 1.376 . S
C678 H665 0.930 . S
C678 C677 1.376 . S
C678 C679 1.388 . S
C679 H666 0.930 . S
C679 C678 1.388 . S
C679 C680 1.390 . S
C680 C679 1.390 . S
C680 C681 1.394 . S
C680 C686 1.465 . S
C681 C676 1.399 . S
C681 C680 1.394 . S
C681 C682 1.516 . S
C682 C681 1.516 . S
C682 C683 1.502 . S
C682 C684 1.561 . S
C682 C685 1.526 . S
C683 H667 0.959 . S
C683 H668 0.959 . S
C683 H669 0.961 . S
C683 C682 1.502 . S
C684 H670 0.960 . S
C684 H671 0.961 . S
C684 H672 0.959 . S
C684 C682 1.561 . S
C685 C682 1.526 . S
C685 C686 1.396 . S
C685 C690 1.390 . S
C686 C680 1.465 . S
C686 C685 1.396 . S
C686 C687 1.399 . S
C687 H673 0.929 . S
C687 C686 1.399 . S
C687 C688 1.385 . S
C688 H674 0.931 . S
C688 C687 1.385 . S
C688 C689 1.389 . S
C689 C688 1.389 . S
C689 C690 1.387 . S
C690 H675 0.930 . S
C690 C685 1.390 . S
C690 C689 1.387 . S
H691 C703 0.930 . S
H692 C705 0.930 . S
H693 C706 0.930 . S
H694 C710 0.959 . S
H695 C710 0.959 . S
H696 C710 0.961 . S
H697 C711 0.960 . S
H698 C711 0.961 . S
H699 C711 0.959 . S
H700 C714 0.929 . S
H701 C715 0.931 . S
H702 C717 0.930 . S
C703 H691 0.930 . S
C703 C704 1.399 . S
C703 C708 1.399 . S
C704 C703 1.399 . S
C704 C705 1.376 . S
C705 H692 0.930 . S
C705 C704 1.376 . S
C705 C706 1.388 . S
C706 H693 0.930 . S
C706 C705 1.388 . S
C706 C707 1.390 . S
C707 C706 1.390 . S
C707 C708 1.394 . S
C707 C713 1.465 . S
C708 C703 1.399 . S
C708 C707 1.394 . S
C708 C709 1.516 . S
C709 C708 1.516 . S
C709 C710 1.502 . S
C709 C711 1.561 . S
C709 C712 1.526 . S
C710 H694 0.959 . S
C710 H695 0.959 . S
C710 H696 0.961 . S
C710 C709 1.502 . S
C711 H697 0.960 . S
C711 H698 0.961 . S
C711 H699 0.959 . S
C711 C709 1.561 . S
C712 C709 1.526 . S
C712 C713 1.396 . S
C712 C717 1.390 . S
C713 C707 1.465 . S
C713 C712 1.396 . S
C713 C714 1.399 . S
C714 H700 0.929 . S
C714 C713 1.399 . S
C714 C715 1.385 . S
C715 H701 0.931 . S
C715 C714 1.385 . S
C715 C716 1.389 . S
C716 C715 1.389 . S
C716 C717 1.387 . S
C717 H702 0.930 . S
C717 C712 1.390 . S
C717 C716 1.387 . S
H718 C730 0.930 . S
H719 C732 0.930 . S
H720 C733 0.930 . S
H721 C737 0.959 . S
H722 C737 0.959 . S
H723 C737 0.961 . S
H724 C738 0.960 . S
H725 C738 0.961 . S
H726 C738 0.959 . S
H727 C741 0.929 . S
H728 C742 0.931 . S
H729 C744 0.930 . S
C730 H718 0.930 . S
C730 C731 1.399 . S
C730 C735 1.399 . S
C731 C730 1.399 . S
C731 C732 1.376 . S
C732 H719 0.930 . S
C732 C731 1.376 . S
C732 C733 1.388 . S
C733 H720 0.930 . S
C733 C732 1.388 . S
C733 C734 1.390 . S
C734 C733 1.390 . S
C734 C735 1.394 . S
C734 C740 1.465 . S
C735 C730 1.399 . S
C735 C734 1.394 . S
C735 C736 1.516 . S
C736 C735 1.516 . S
C736 C737 1.502 . S
C736 C738 1.561 . S
C736 C739 1.526 . S
C737 H721 0.959 . S
C737 H722 0.959 . S
C737 H723 0.961 . S
C737 C736 1.502 . S
C738 H724 0.960 . S
C738 H725 0.961 . S
C738 H726 0.959 . S
C738 C736 1.561 . S
C739 C736 1.526 . S
C739 C740 1.396 . S
C739 C744 1.390 . S
C740 C734 1.465 . S
C740 C739 1.396 . S
C740 C741 1.399 . S
C741 H727 0.929 . S
C741 C740 1.399 . S
C741 C742 1.385 . S
C742 H728 0.931 . S
C742 C741 1.385 . S
C742 C743 1.389 . S
C743 C742 1.389 . S
C743 C744 1.387 . S
C744 H729 0.930 . S
C744 C739 1.390 . S
C744 C743 1.387 . S
H745 C757 0.930 . S
H746 C759 0.930 . S
H747 C760 0.930 . S
H748 C764 0.959 . S
H749 C764 0.959 . S
H750 C764 0.961 . S
H751 C765 0.960 . S
H752 C765 0.961 . S
H753 C765 0.959 . S
H754 C768 0.929 . S
H755 C769 0.931 . S
H756 C771 0.930 . S
C757 H745 0.930 . S
C757 C758 1.399 . S
C757 C762 1.399 . S
C758 C757 1.399 . S
C758 C759 1.376 . S
C759 H746 0.930 . S
C759 C758 1.376 . S
C759 C760 1.388 . S
C760 H747 0.930 . S
C760 C759 1.388 . S
C760 C761 1.390 . S
C761 C760 1.390 . S
C761 C762 1.394 . S
C761 C767 1.465 . S
C762 C757 1.399 . S
C762 C761 1.394 . S
C762 C763 1.516 . S
C763 C762 1.516 . S
C763 C764 1.502 . S
C763 C765 1.561 . S
C763 C766 1.526 . S
C764 H748 0.959 . S
C764 H749 0.959 . S
C764 H750 0.961 . S
C764 C763 1.502 . S
C765 H751 0.960 . S
C765 H752 0.961 . S
C765 H753 0.959 . S
C765 C763 1.561 . S
C766 C763 1.526 . S
C766 C767 1.396 . S
C766 C771 1.390 . S
C767 C761 1.465 . S
C767 C766 1.396 . S
C767 C768 1.399 . S
C768 H754 0.929 . S
C768 C767 1.399 . S
C768 C769 1.385 . S
C769 H755 0.931 . S
C769 C768 1.385 . S
C769 C770 1.389 . S
C770 C769 1.389 . S
C770 C771 1.387 . S
C771 H756 0.930 . S
C771 C766 1.390 . S
C771 C770 1.387 . S
H772 C784 0.930 . S
H773 C786 0.930 . S
H774 C787 0.930 . S
H775 C791 0.959 . S
H776 C791 0.959 . S
H777 C791 0.961 . S
H778 C792 0.960 . S
H779 C792 0.961 . S
H780 C792 0.959 . S
H781 C795 0.929 . S
H782 C796 0.931 . S
H783 C798 0.930 . S
C784 H772 0.930 . S
C784 C785 1.399 . S
C784 C789 1.399 . S
C785 C784 1.399 . S
C785 C786 1.376 . S
C786 H773 0.930 . S
C786 C785 1.376 . S
C786 C787 1.388 . S
C787 H774 0.930 . S
C787 C786 1.388 . S
C787 C788 1.390 . S
C788 C787 1.390 . S
C788 C789 1.394 . S
C788 C794 1.465 . S
C789 C784 1.399 . S
C789 C788 1.394 . S
C789 C790 1.516 . S
C790 C789 1.516 . S
C790 C791 1.502 . S
C790 C792 1.561 . S
C790 C793 1.526 . S
C791 H775 0.959 . S
C791 H776 0.959 . S
C791 H777 0.961 . S
C791 C790 1.502 . S
C792 H778 0.960 . S
C792 H779 0.961 . S
C792 H780 0.959 . S
C792 C790 1.561 . S
C793 C790 1.526 . S
C793 C794 1.396 . S
C793 C798 1.390 . S
C794 C788 1.465 . S
C794 C793 1.396 . S
C794 C795 1.399 . S
C795 H781 0.929 . S
C795 C794 1.399 . S
C795 C796 1.385 . S
C796 H782 0.931 . S
C796 C795 1.385 . S
C796 C797 1.389 . S
C797 C796 1.389 . S
C797 C798 1.387 . S
C798 H783 0.930 . S
C798 C793 1.390 . S
C798 C797 1.387 . S
H799 C811 0.930 . S
H800 C813 0.930 . S
H801 C814 0.930 . S
H802 C818 0.959 . S
H803 C818 0.959 . S
H804 C818 0.961 . S
H805 C819 0.960 . S
H806 C819 0.961 . S
H807 C819 0.959 . S
H808 C822 0.929 . S
H809 C823 0.931 . S
H810 C825 0.930 . S
C811 H799 0.930 . S
C811 C812 1.399 . S
C811 C816 1.399 . S
C812 C811 1.399 . S
C812 C813 1.376 . S
C813 H800 0.930 . S
C813 C812 1.376 . S
C813 C814 1.388 . S
C814 H801 0.930 . S
C814 C813 1.388 . S
C814 C815 1.390 . S
C815 C814 1.390 . S
C815 C816 1.394 . S
C815 C821 1.465 . S
C816 C811 1.399 . S
C816 C815 1.394 . S
C816 C817 1.516 . S
C817 C816 1.516 . S
C817 C818 1.502 . S
C817 C819 1.561 . S
C817 C820 1.526 . S
C818 H802 0.959 . S
C818 H803 0.959 . S
C818 H804 0.961 . S
C818 C817 1.502 . S
C819 H805 0.960 . S
C819 H806 0.961 . S
C819 H807 0.959 . S
C819 C817 1.561 . S
C820 C817 1.526 . S
C820 C821 1.396 . S
C820 C825 1.390 . S
C821 C815 1.465 . S
C821 C820 1.396 . S
C821 C822 1.399 . S
C822 H808 0.929 . S
C822 C821 1.399 . S
C822 C823 1.385 . S
C823 H809 0.931 . S
C823 C822 1.385 . S
C823 C824 1.389 . S
C824 C823 1.389 . S
C824 C825 1.387 . S
C825 H810 0.930 . S
C825 C820 1.390 . S
C825 C824 1.387 . S
H826 C838 0.930 . S
H827 C840 0.930 . S
H828 C841 0.930 . S
H829 C845 0.959 . S
H830 C845 0.959 . S
H831 C845 0.961 . S
H832 C846 0.960 . S
H833 C846 0.961 . S
H834 C846 0.959 . S
H835 C849 0.929 . S
H836 C850 0.931 . S
H837 C852 0.930 . S
C838 H826 0.930 . S
C838 C839 1.399 . S
C838 C843 1.399 . S
C839 C838 1.399 . S
C839 C840 1.376 . S
C840 H827 0.930 . S
C840 C839 1.376 . S
C840 C841 1.388 . S
C841 H828 0.930 . S
C841 C840 1.388 . S
C841 C842 1.390 . S
C842 C841 1.390 . S
C842 C843 1.394 . S
C842 C848 1.465 . S
C843 C838 1.399 . S
C843 C842 1.394 . S
C843 C844 1.516 . S
C844 C843 1.516 . S
C844 C845 1.502 . S
C844 C846 1.561 . S
C844 C847 1.526 . S
C845 H829 0.959 . S
C845 H830 0.959 . S
C845 H831 0.961 . S
C845 C844 1.502 . S
C846 H832 0.960 . S
C846 H833 0.961 . S
C846 H834 0.959 . S
C846 C844 1.561 . S
C847 C844 1.526 . S
C847 C848 1.396 . S
C847 C852 1.390 . S
C848 C842 1.465 . S
C848 C847 1.396 . S
C848 C849 1.399 . S
C849 H835 0.929 . S
C849 C848 1.399 . S
C849 C850 1.385 . S
C850 H836 0.931 . S
C850 C849 1.385 . S
C850 C851 1.389 . S
C851 C850 1.389 . S
C851 C852 1.387 . S
C852 H837 0.930 . S
C852 C847 1.390 . S
C852 C851 1.387 . S
H853 C865 0.930 . S
H854 C867 0.930 . S
H855 C868 0.930 . S
H856 C872 0.959 . S
H857 C872 0.959 . S
H858 C872 0.961 . S
H859 C873 0.960 . S
H860 C873 0.961 . S
H861 C873 0.959 . S
H862 C876 0.929 . S
H863 C877 0.931 . S
H864 C879 0.930 . S
C865 H853 0.930 . S
C865 C866 1.399 . S
C865 C870 1.399 . S
C866 C865 1.399 . S
C866 C867 1.376 . S
C867 H854 0.930 . S
C867 C866 1.376 . S
C867 C868 1.388 . S
C868 H855 0.930 . S
C868 C867 1.388 . S
C868 C869 1.390 . S
C869 C868 1.390 . S
C869 C870 1.394 . S
C869 C875 1.465 . S
C870 C865 1.399 . S
C870 C869 1.394 . S
C870 C871 1.516 . S
C871 C870 1.516 . S
C871 C872 1.502 . S
C871 C873 1.561 . S
C871 C874 1.526 . S
C872 H856 0.959 . S
C872 H857 0.959 . S
C872 H858 0.961 . S
C872 C871 1.502 . S
C873 H859 0.960 . S
C873 H860 0.961 . S
C873 H861 0.959 . S
C873 C871 1.561 . S
C874 C871 1.526 . S
C874 C875 1.396 . S
C874 C879 1.390 . S
C875 C869 1.465 . S
C875 C874 1.396 . S
C875 C876 1.399 . S
C876 H862 0.929 . S
C876 C875 1.399 . S
C876 C877 1.385 . S
C877 H863 0.931 . S
C877 C876 1.385 . S
C877 C878 1.389 . S
C878 C877 1.389 . S
C878 C879 1.387 . S
C879 H864 0.930 . S
C879 C874 1.390 . S
C879 C878 1.387 . S
H880 C892 0.930 . S
H881 C894 0.930 . S
H882 C895 0.930 . S
H883 C899 0.959 . S
H884 C899 0.959 . S
H885 C899 0.961 . S
H886 C900 1.003 . S
H887 C900 0.961 . S
H888 C900 0.972 . S
H889 C903 0.929 1_565 S
H890 C904 0.931 . S
H891 C906 0.930 . S
C892 H880 0.930 . S
C892 C893 1.399 . S
C892 C897 1.399 . S
C893 C892 1.399 . S
C893 C894 1.376 . S
C894 H881 0.930 . S
C894 C893 1.376 . S
C894 C895 1.388 . S
C895 H882 0.930 . S
C895 C894 1.388 . S
C895 C896 1.390 . S
C896 C895 1.390 . S
C896 C897 1.394 . S
C896 C902 1.465 1_565 S
C897 C892 1.399 . S
C897 C896 1.394 . S
C897 C898 1.516 1_565 S
C898 C897 1.516 1_545 S
C898 C899 1.502 . S
C898 C900 1.561 . S
C898 C901 1.526 . S
C899 H883 0.959 . S
C899 H884 0.959 . S
C899 H885 0.961 . S
C899 C898 1.502 . S
C900 H886 1.003 . S
C900 H887 0.961 . S
C900 H888 0.972 . S
C900 C898 1.561 . S
C901 C898 1.526 . S
C901 C902 1.396 . S
C901 C906 1.390 . S
C902 C896 1.465 1_545 S
C902 C901 1.396 . S
C902 C903 1.399 . S
C903 H889 0.929 1_545 S
C903 C902 1.399 . S
C903 C904 1.385 . S
C904 H890 0.931 . S
C904 C903 1.385 . S
C904 C905 1.389 . S
C905 C904 1.389 . S
C905 C906 1.387 . S
C906 H891 0.930 . S
C906 C901 1.390 . S
C906 C905 1.387 . S
H907 C919 0.930 . S
H908 C921 0.930 . S
H909 C922 0.930 . S
H910 C926 0.959 . S
H911 C926 0.959 1_455 S
H912 C926 0.961 . S
H913 C927 0.960 . S
H914 C927 0.961 . S
H915 C927 0.959 . S
H916 C930 0.929 . S
H917 C931 0.931 . S
H918 C933 0.930 . S
C919 H907 0.930 . S
C919 C920 1.399 . S
C919 C924 1.399 . S
C920 C919 1.399 . S
C920 C921 1.376 . S
C921 H908 0.930 . S
C921 C920 1.376 . S
C921 C922 1.388 . S
C922 H909 0.930 . S
C922 C921 1.388 . S
C922 C923 1.390 . S
C923 C922 1.390 . S
C923 C924 1.394 . S
C923 C929 1.465 1_655 S
C924 C919 1.399 . S
C924 C923 1.394 . S
C924 C925 1.516 1_655 S
C925 C924 1.516 1_455 S
C925 C926 1.502 1_455 S
C925 C927 1.561 . S
C925 C928 1.526 . S
C926 H910 0.959 . S
C926 H911 0.959 1_655 S
C926 H912 0.961 . S
C926 C925 1.502 1_655 S
C927 H913 0.960 . S
C927 H914 0.961 . S
C927 H915 0.959 . S
C927 C925 1.561 . S
C928 C925 1.526 . S
C928 C929 1.396 . S
C928 C933 1.390 . S
C929 C923 1.465 1_455 S
C929 C928 1.396 . S
C929 C930 1.399 . S
C930 H916 0.929 . S
C930 C929 1.399 . S
C930 C931 1.385 . S
C931 H917 0.931 . S
C931 C930 1.385 . S
C931 C932 1.389 . S
C932 C931 1.389 . S
C932 C933 1.387 . S
C933 H918 0.930 . S
C933 C928 1.390 . S
C933 C932 1.387 . S
H934 C946 0.930 . S
H935 C948 0.930 . S
H936 C949 0.930 . S
H937 C953 0.959 . S
H938 C953 0.959 1_554 S
H939 C953 0.961 . S
H940 C954 0.960 . S
H941 C954 0.961 . S
H942 C954 0.959 . S
H943 C957 0.929 . S
H944 C958 0.931 . S
H945 C960 0.930 . S
C946 H934 0.930 . S
C946 C947 1.399 . S
C946 C951 1.399 . S
C947 C946 1.399 . S
C947 C948 1.376 . S
C948 H935 0.930 . S
C948 C947 1.376 . S
C948 C949 1.388 . S
C949 H936 0.930 . S
C949 C948 1.388 . S
C949 C950 1.390 . S
C950 C949 1.390 . S
C950 C951 1.394 . S
C950 C956 1.465 1_556 S
C951 C946 1.399 . S
C951 C950 1.394 . S
C951 C952 1.516 1_556 S
C952 C951 1.516 1_554 S
C952 C953 1.502 1_554 S
C952 C954 1.561 . S
C952 C955 1.526 . S
C953 H937 0.959 . S
C953 H938 0.959 1_556 S
C953 H939 0.961 . S
C953 C952 1.502 1_556 S
C954 H940 0.960 . S
C954 H941 0.961 . S
C954 H942 0.959 . S
C954 C952 1.561 . S
C955 C952 1.526 . S
C955 C956 1.396 . S
C955 C960 1.390 . S
C956 C950 1.465 1_554 S
C956 C955 1.396 . S
C956 C957 1.399 . S
C957 H943 0.929 . S
C957 C956 1.399 . S
C957 C958 1.385 . S
C958 H944 0.931 . S
C958 C957 1.385 . S
C958 C959 1.389 . S
C959 C958 1.389 . S
C959 C960 1.387 . S
C960 H945 0.930 . S
C960 C955 1.390 . S
C960 C959 1.387 . S
H961 C973 0.927 1_655 S
H962 C975 0.930 . S
H963 C976 0.930 . S
H964 C980 0.959 . S
H965 C980 0.972 . S
H966 C980 0.961 . S
H967 C981 0.960 . S
H968 C981 0.961 . S
H969 C981 0.959 . S
H970 C984 0.929 . S
H971 C985 0.931 . S
H972 C987 0.930 1_556 S
C973 H961 0.927 1_455 S
C973 C974 1.399 . S
C973 C978 1.399 . S
C974 C973 1.399 . S
C974 C975 1.376 . S
C975 H962 0.930 . S
C975 C974 1.376 . S
C975 C976 1.388 1_556 S
C976 H963 0.930 . S
C976 C975 1.388 1_554 S
C976 C977 1.390 . S
C977 C976 1.390 . S
C977 C978 1.394 1_554 S
C977 C983 1.465 1_545 S
C978 C973 1.399 . S
C978 C977 1.394 1_556 S
C978 C979 1.504 1_445 S
C979 C978 1.504 1_665 S
C979 C980 1.492 1_565 S
C979 C981 1.572 . S
C979 C982 1.551 . S
C980 H964 0.959 . S
C980 H965 0.972 . S
C980 H966 0.961 . S
C980 C979 1.492 1_545 S
C981 H967 0.960 . S
C981 H968 0.961 . S
C981 H969 0.959 . S
C981 C979 1.572 . S
C982 C979 1.551 . S
C982 C983 1.388 1_656 S
C982 C987 1.385 1_556 S
C983 C977 1.465 1_565 S
C983 C982 1.388 1_454 S
C983 C984 1.399 . S
C984 H970 0.929 . S
C984 C983 1.399 . S
C984 C985 1.385 1_455 S
C985 H971 0.931 . S
C985 C984 1.385 1_655 S
C985 C986 1.389 . S
C986 C985 1.389 . S
C986 C987 1.387 . S
C987 H972 0.930 1_554 S
C987 C982 1.385 1_554 S
C987 C986 1.387 . S
H988 C1000 0.930 . S
H989 C1002 0.930 . S
H990 C1003 0.930 . S
H991 C1007 0.997 . S
H992 C1007 0.907 1_565 S
H993 C1007 1.002 . S
H994 C1008 0.960 . S
H995 C1008 0.961 . S
H996 C1008 0.959 . S
H997 C1011 0.929 . S
H998 C1012 0.931 . S
H999 C1014 0.930 . S
C1000 H988 0.930 . S
C1000 C1001 1.399 . S
C1000 C1005 1.399 . S
C1001 C1000 1.399 . S
C1001 C1002 1.376 . S
C1002 H989 0.930 . S
C1002 C1001 1.376 . S
C1002 C1003 1.388 . S
C1003 H990 0.930 . S
C1003 C1002 1.388 . S
C1003 C1004 1.390 . S
C1004 C1003 1.390 . S
C1004 C1005 1.394 . S
C1004 C1010 1.465 1_545 S
C1005 C1000 1.399 . S
C1005 C1004 1.394 . S
C1005 C1006 1.516 1_545 S
C1006 C1005 1.516 1_565 S
C1006 C1007 1.483 1_565 S
C1006 C1008 1.561 . S
C1006 C1009 1.526 . S
C1007 H991 0.997 . S
C1007 H992 0.907 1_545 S
C1007 H993 1.002 . S
C1007 C1006 1.483 1_545 S
C1008 H994 0.960 . S
C1008 H995 0.961 . S
C1008 H996 0.959 . S
C1008 C1006 1.561 . S
C1009 C1006 1.526 . S
C1009 C1010 1.396 . S
C1009 C1014 1.390 . S
C1010 C1004 1.465 1_565 S
C1010 C1009 1.396 . S
C1010 C1011 1.399 . S
C1011 H997 0.929 . S
C1011 C1010 1.399 . S
C1011 C1012 1.385 . S
C1012 H998 0.931 . S
C1012 C1011 1.385 . S
C1012 C1013 1.389 . S
C1013 C1012 1.389 . S
C1013 C1014 1.387 . S
C1014 H999 0.930 . S
C1014 C1009 1.390 . S
C1014 C1013 1.387 . S
H1015 C1027 0.930 . S
H1016 C1029 0.930 . S
H1017 C1030 0.930 . S
H1018 C1034 0.959 . S
H1019 C1034 0.959 . S
H1020 C1034 0.961 . S
H1021 C1035 0.960 . S
H1022 C1035 0.962 . S
H1023 C1035 0.959 1_655 S
H1024 C1038 0.929 . S
H1025 C1039 0.931 . S
H1026 C1041 0.930 . S
C1027 H1015 0.930 . S
C1027 C1028 1.399 . S
C1027 C1032 1.399 . S
C1028 C1027 1.399 . S
C1028 C1029 1.376 . S
C1029 H1016 0.930 . S
C1029 C1028 1.376 . S
C1029 C1030 1.388 1_455 S
C1030 H1017 0.930 . S
C1030 C1029 1.388 1_655 S
C1030 C1031 1.390 . S
C1031 C1030 1.390 . S
C1031 C1032 1.394 1_655 S
C1031 C1037 1.465 . S
C1032 C1027 1.399 . S
C1032 C1031 1.394 1_455 S
C1032 C1033 1.516 . S
C1033 C1032 1.516 . S
C1033 C1034 1.502 . S
C1033 C1035 1.561 . S
C1033 C1036 1.526 1_455 S
C1034 H1018 0.959 . S
C1034 H1019 0.959 . S
C1034 H1020 0.961 . S
C1034 C1033 1.502 . S
C1035 H1021 0.960 . S
C1035 H1022 0.962 . S
C1035 H1023 0.959 1_455 S
C1035 C1033 1.561 . S
C1036 C1033 1.526 1_655 S
C1036 C1037 1.396 . S
C1036 C1041 1.390 . S
C1037 C1031 1.465 . S
C1037 C1036 1.396 . S
C1037 C1038 1.399 . S
C1038 H1024 0.929 . S
C1038 C1037 1.399 . S
C1038 C1039 1.385 . S
C1039 H1025 0.931 . S
C1039 C1038 1.385 . S
C1039 C1040 1.389 . S
C1040 C1039 1.389 . S
C1040 C1041 1.387 . S
C1041 H1026 0.930 . S
C1041 C1036 1.390 . S
C1041 C1040 1.387 . S
H1042 C1054 0.930 1_554 S
H1043 C1056 0.930 . S
H1044 C1057 0.930 . S
H1045 C1061 0.959 . S
H1046 C1061 0.959 . S
H1047 C1061 0.961 . S
H1048 C1062 0.960 . S
H1049 C1062 0.961 . S
H1050 C1062 0.959 . S
H1051 C1065 0.929 . S
H1052 C1066 0.931 . S
H1053 C1068 0.930 . S
C1054 H1042 0.930 1_556 S
C1054 C1055 1.399 . S
C1054 C1059 1.399 1_556 S
C1055 C1054 1.399 . S
C1055 C1056 1.376 . S
C1056 H1043 0.930 . S
C1056 C1055 1.376 . S
C1056 C1057 1.388 . S
C1057 H1044 0.930 . S
C1057 C1056 1.388 . S
C1057 C1058 1.390 . S
C1058 C1057 1.390 . S
C1058 C1059 1.394 1_556 S
C1058 C1064 1.465 . S
C1059 C1054 1.399 1_554 S
C1059 C1058 1.394 1_554 S
C1059 C1060 1.516 . S
C1060 C1059 1.516 . S
C1060 C1061 1.502 . S
C1060 C1062 1.561 . S
C1060 C1063 1.526 . S
C1061 H1045 0.959 . S
C1061 H1046 0.959 . S
C1061 H1047 0.961 . S
C1061 C1060 1.502 . S
C1062 H1048 0.960 . S
C1062 H1049 0.961 . S
C1062 H1050 0.959 . S
C1062 C1060 1.561 . S
C1063 C1060 1.526 . S
C1063 C1064 1.396 1_554 S
C1063 C1068 1.390 . S
C1064 C1058 1.465 . S
C1064 C1063 1.396 1_556 S
C1064 C1065 1.399 . S
C1065 H1051 0.929 . S
C1065 C1064 1.399 . S
C1065 C1066 1.385 . S
C1066 H1052 0.931 . S
C1066 C1065 1.385 . S
C1066 C1067 1.389 1_556 S
C1067 C1066 1.389 1_554 S
C1067 C1068 1.387 . S
C1068 H1053 0.930 . S
C1068 C1063 1.390 . S
C1068 C1067 1.387 . S
H1069 C1081 0.930 . S
H1070 C1083 0.930 . S
H1071 C1084 0.930 . S
H1072 C1088 0.959 . S
H1073 C1088 0.959 . S
H1074 C1088 0.961 . S
H1075 C1089 0.960 . S
H1076 C1089 0.961 . S
H1077 C1089 0.959 . S
H1078 C1092 0.929 . S
H1079 C1093 0.931 . S
H1080 C1095 0.930 . S
C1081 H1069 0.930 . S
C1081 C1082 1.399 . S
C1081 C1086 1.399 . S
C1082 C1081 1.399 . S
C1082 C1083 1.376 . S
C1083 H1070 0.930 . S
C1083 C1082 1.376 . S
C1083 C1084 1.388 . S
C1084 H1071 0.930 . S
C1084 C1083 1.388 . S
C1084 C1085 1.390 . S
C1085 C1084 1.390 . S
C1085 C1086 1.394 . S
C1085 C1091 1.465 . S
C1086 C1081 1.399 . S
C1086 C1085 1.394 . S
C1086 C1087 1.516 . S
C1087 C1086 1.516 . S
C1087 C1088 1.502 . S
C1087 C1089 1.561 . S
C1087 C1090 1.526 . S
C1088 H1072 0.959 . S
C1088 H1073 0.959 . S
C1088 H1074 0.961 . S
C1088 C1087 1.502 . S
C1089 H1075 0.960 . S
C1089 H1076 0.961 . S
C1089 H1077 0.959 . S
C1089 C1087 1.561 . S
C1090 C1087 1.526 . S
C1090 C1091 1.396 . S
C1090 C1095 1.390 . S
C1091 C1085 1.465 . S
C1091 C1090 1.396 . S
C1091 C1092 1.399 . S
C1092 H1078 0.929 . S
C1092 C1091 1.399 . S
C1092 C1093 1.385 . S
C1093 H1079 0.931 . S
C1093 C1092 1.385 . S
C1093 C1094 1.389 . S
C1094 C1093 1.389 . S
C1094 C1095 1.387 . S
C1095 H1080 0.930 . S
C1095 C1090 1.390 . S
C1095 C1094 1.387 . S
H1096 C1108 0.930 . S
H1097 C1110 0.930 . S
H1098 C1111 0.930 . S
H1099 C1115 0.959 . S
H1100 C1115 0.959 . S
H1101 C1115 0.961 . S
H1102 C1116 0.960 . S
H1103 C1116 0.961 . S
H1104 C1116 0.959 . S
H1105 C1119 0.929 . S
H1106 C1120 0.931 . S
H1107 C1122 0.930 . S
C1108 H1096 0.930 . S
C1108 C1109 1.399 . S
C1108 C1113 1.399 . S
C1109 C1108 1.399 . S
C1109 C1110 1.376 . S
C1110 H1097 0.930 . S
C1110 C1109 1.376 . S
C1110 C1111 1.388 . S
C1111 H1098 0.930 . S
C1111 C1110 1.388 . S
C1111 C1112 1.390 . S
C1112 C1111 1.390 . S
C1112 C1113 1.394 . S
C1112 C1118 1.465 . S
C1113 C1108 1.399 . S
C1113 C1112 1.394 . S
C1113 C1114 1.516 . S
C1114 C1113 1.516 . S
C1114 C1115 1.502 . S
C1114 C1116 1.561 . S
C1114 C1117 1.526 . S
C1115 H1099 0.959 . S
C1115 H1100 0.959 . S
C1115 H1101 0.961 . S
C1115 C1114 1.502 . S
C1116 H1102 0.960 . S
C1116 H1103 0.961 . S
C1116 H1104 0.959 . S
C1116 C1114 1.561 . S
C1117 C1114 1.526 . S
C1117 C1118 1.396 . S
C1117 C1122 1.390 . S
C1118 C1112 1.465 . S
C1118 C1117 1.396 . S
C1118 C1119 1.399 . S
C1119 H1105 0.929 . S
C1119 C1118 1.399 . S
C1119 C1120 1.385 . S
C1120 H1106 0.931 . S
C1120 C1119 1.385 . S
C1120 C1121 1.389 . S
C1121 C1120 1.389 . S
C1121 C1122 1.387 . S
C1122 H1107 0.930 . S
C1122 C1117 1.390 . S
C1122 C1121 1.387 . S
H1123 C1135 0.930 1_455 S
H1124 C1137 0.930 . S
H1125 C1138 0.930 . S
H1126 C1142 0.959 . S
H1127 C1142 0.959 . S
H1128 C1142 0.961 . S
H1129 C1143 0.960 . S
H1130 C1143 0.961 . S
H1131 C1143 0.959 . S
H1132 C1146 0.929 . S
H1133 C1147 0.931 . S
H1134 C1149 0.930 . S
C1135 H1123 0.930 1_655 S
C1135 C1136 1.399 . S
C1135 C1140 1.399 . S
C1136 C1135 1.399 . S
C1136 C1137 1.376 . S
C1137 H1124 0.930 . S
C1137 C1136 1.376 . S
C1137 C1138 1.388 . S
C1138 H1125 0.930 . S
C1138 C1137 1.388 . S
C1138 C1139 1.390 . S
C1139 C1138 1.390 . S
C1139 C1140 1.394 . S
C1139 C1145 1.465 . S
C1140 C1135 1.399 . S
C1140 C1139 1.394 . S
C1140 C1141 1.516 1_655 S
C1141 C1140 1.516 1_455 S
C1141 C1142 1.502 . S
C1141 C1143 1.561 . S
C1141 C1144 1.526 . S
C1142 H1126 0.959 . S
C1142 H1127 0.959 . S
C1142 H1128 0.961 . S
C1142 C1141 1.502 . S
C1143 H1129 0.960 . S
C1143 H1130 0.961 . S
C1143 H1131 0.959 . S
C1143 C1141 1.561 . S
C1144 C1141 1.526 . S
C1144 C1145 1.396 1_455 S
C1144 C1149 1.390 . S
C1145 C1139 1.465 . S
C1145 C1144 1.396 1_655 S
C1145 C1146 1.399 . S
C1146 H1132 0.929 . S
C1146 C1145 1.399 . S
C1146 C1147 1.385 1_655 S
C1147 H1133 0.931 . S
C1147 C1146 1.385 1_455 S
C1147 C1148 1.389 . S
C1148 C1147 1.389 . S
C1148 C1149 1.387 . S
C1149 H1134 0.930 . S
C1149 C1144 1.390 . S
C1149 C1148 1.387 . S
H1150 C1162 0.930 . S
H1151 C1164 0.930 . S
H1152 C1165 0.930 . S
H1153 C1169 0.959 . S
H1154 C1169 0.959 . S
H1155 C1169 0.961 . S
H1156 C1170 0.960 . S
H1157 C1170 0.961 . S
H1158 C1170 0.959 . S
H1159 C1173 0.929 . S
H1160 C1174 0.931 . S
H1161 C1176 0.930 . S
C1162 H1150 0.930 . S
C1162 C1163 1.399 . S
C1162 C1167 1.399 . S
C1163 C1162 1.399 . S
C1163 C1164 1.376 . S
C1164 H1151 0.930 . S
C1164 C1163 1.376 . S
C1164 C1165 1.388 . S
C1165 H1152 0.930 . S
C1165 C1164 1.388 . S
C1165 C1166 1.390 . S
C1166 C1165 1.390 . S
C1166 C1167 1.394 . S
C1166 C1172 1.465 . S
C1167 C1162 1.399 . S
C1167 C1166 1.394 . S
C1167 C1168 1.516 . S
C1168 C1167 1.516 . S
C1168 C1169 1.502 . S
C1168 C1170 1.561 . S
C1168 C1171 1.526 . S
C1169 H1153 0.959 . S
C1169 H1154 0.959 . S
C1169 H1155 0.961 . S
C1169 C1168 1.502 . S
C1170 H1156 0.960 . S
C1170 H1157 0.961 . S
C1170 H1158 0.959 . S
C1170 C1168 1.561 . S
C1171 C1168 1.526 . S
C1171 C1172 1.396 . S
C1171 C1176 1.390 . S
C1172 C1166 1.465 . S
C1172 C1171 1.396 . S
C1172 C1173 1.399 . S
C1173 H1159 0.929 . S
C1173 C1172 1.399 . S
C1173 C1174 1.385 . S
C1174 H1160 0.931 . S
C1174 C1173 1.385 . S
C1174 C1175 1.389 . S
C1175 C1174 1.389 . S
C1175 C1176 1.387 . S
C1176 H1161 0.930 . S
C1176 C1171 1.390 . S
C1176 C1175 1.387 . S
H1177 C1189 0.930 . S
H1178 C1191 0.930 . S
H1179 C1192 0.930 . S
H1180 C1196 0.959 . S
H1181 C1196 0.959 . S
H1182 C1196 0.961 . S
H1183 C1197 0.960 . S
H1184 C1197 0.961 . S
H1185 C1197 0.959 . S
H1186 C1200 0.929 . S
H1187 C1201 0.931 . S
H1188 C1203 0.930 . S
C1189 H1177 0.930 . S
C1189 C1190 1.399 . S
C1189 C1194 1.399 . S
C1190 C1189 1.399 . S
C1190 C1191 1.376 . S
C1191 H1178 0.930 . S
C1191 C1190 1.376 . S
C1191 C1192 1.388 . S
C1192 H1179 0.930 . S
C1192 C1191 1.388 . S
C1192 C1193 1.390 . S
C1193 C1192 1.390 . S
C1193 C1194 1.394 . S
C1193 C1199 1.465 . S
C1194 C1189 1.399 . S
C1194 C1193 1.394 . S
C1194 C1195 1.516 . S
C1195 C1194 1.516 . S
C1195 C1196 1.502 . S
C1195 C1197 1.561 . S
C1195 C1198 1.526 . S
C1196 H1180 0.959 . S
C1196 H1181 0.959 . S
C1196 H1182 0.961 . S
C1196 C1195 1.502 . S
C1197 H1183 0.960 . S
C1197 H1184 0.961 . S
C1197 H1185 0.959 . S
C1197 C1195 1.561 . S
C1198 C1195 1.526 . S
C1198 C1199 1.396 . S
C1198 C1203 1.390 . S
C1199 C1193 1.465 . S
C1199 C1198 1.396 . S
C1199 C1200 1.399 . S
C1200 H1186 0.929 . S
C1200 C1199 1.399 . S
C1200 C1201 1.385 . S
C1201 H1187 0.931 . S
C1201 C1200 1.385 . S
C1201 C1202 1.389 . S
C1202 C1201 1.389 . S
C1202 C1203 1.387 . S
C1203 H1188 0.930 . S
C1203 C1198 1.390 . S
C1203 C1202 1.387 . S
H1204 C1216 0.930 . S
H1205 C1218 0.930 . S
H1206 C1219 0.930 . S
H1207 C1223 0.959 . S
H1208 C1223 0.959 . S
H1209 C1223 0.961 . S
H1210 C1224 0.960 . S
H1211 C1224 0.961 . S
H1212 C1224 0.959 . S
H1213 C1227 0.929 . S
H1214 C1228 0.931 . S
H1215 C1230 0.930 . S
C1216 H1204 0.930 . S
C1216 C1217 1.399 . S
C1216 C1221 1.399 . S
C1217 C1216 1.399 . S
C1217 C1218 1.376 . S
C1218 H1205 0.930 . S
C1218 C1217 1.376 . S
C1218 C1219 1.388 . S
C1219 H1206 0.930 . S
C1219 C1218 1.388 . S
C1219 C1220 1.390 . S
C1220 C1219 1.390 . S
C1220 C1221 1.394 . S
C1220 C1226 1.465 . S
C1221 C1216 1.399 . S
C1221 C1220 1.394 . S
C1221 C1222 1.516 . S
C1222 C1221 1.516 . S
C1222 C1223 1.502 . S
C1222 C1224 1.561 . S
C1222 C1225 1.526 . S
C1223 H1207 0.959 . S
C1223 H1208 0.959 . S
C1223 H1209 0.961 . S
C1223 C1222 1.502 . S
C1224 H1210 0.960 . S
C1224 H1211 0.961 . S
C1224 H1212 0.959 . S
C1224 C1222 1.561 . S
C1225 C1222 1.526 . S
C1225 C1226 1.396 . S
C1225 C1230 1.390 . S
C1226 C1220 1.465 . S
C1226 C1225 1.396 . S
C1226 C1227 1.399 . S
C1227 H1213 0.929 . S
C1227 C1226 1.399 . S
C1227 C1228 1.385 . S
C1228 H1214 0.931 . S
C1228 C1227 1.385 . S
C1228 C1229 1.389 . S
C1229 C1228 1.389 . S
C1229 C1230 1.387 . S
C1230 H1215 0.930 . S
C1230 C1225 1.390 . S
C1230 C1229 1.387 . S
H1231 C1243 0.930 . S
H1232 C1245 0.930 . S
H1233 C1246 0.926 . S
H1234 C1250 0.959 . S
H1235 C1250 0.959 . S
H1236 C1250 0.961 . S
H1237 C1251 0.960 . S
H1238 C1251 0.961 . S
H1239 C1251 0.959 . S
H1240 C1254 0.929 . S
H1241 C1255 0.931 . S
H1242 C1257 0.930 . S
C1243 H1231 0.930 . S
C1243 C1244 1.399 . S
C1243 C1248 1.399 . S
C1244 C1243 1.399 . S
C1244 C1245 1.376 . S
C1245 H1232 0.930 . S
C1245 C1244 1.376 . S
C1245 C1246 1.388 . S
C1246 H1233 0.926 . S
C1246 C1245 1.388 . S
C1246 C1247 1.390 . S
C1247 C1246 1.390 . S
C1247 C1248 1.394 . S
C1247 C1253 1.465 1_545 S
C1248 C1243 1.399 . S
C1248 C1247 1.394 . S
C1248 C1249 1.516 . S
C1249 C1248 1.516 . S
C1249 C1250 1.502 . S
C1249 C1251 1.561 . S
C1249 C1252 1.526 1_545 S
C1250 H1234 0.959 . S
C1250 H1235 0.959 . S
C1250 H1236 0.961 . S
C1250 C1249 1.502 . S
C1251 H1237 0.960 . S
C1251 H1238 0.961 . S
C1251 H1239 0.959 . S
C1251 C1249 1.561 . S
C1252 C1249 1.526 1_565 S
C1252 C1253 1.396 . S
C1252 C1257 1.390 . S
C1253 C1247 1.465 1_565 S
C1253 C1252 1.396 . S
C1253 C1254 1.399 . S
C1254 H1240 0.929 . S
C1254 C1253 1.399 . S
C1254 C1255 1.385 . S
C1255 H1241 0.931 . S
C1255 C1254 1.385 . S
C1255 C1256 1.389 . S
C1256 C1255 1.389 . S
C1256 C1257 1.387 . S
C1257 H1242 0.930 . S
C1257 C1252 1.390 . S
C1257 C1256 1.387 . S
H1258 C1270 0.930 . S
H1259 C1272 0.930 . S
H1260 C1273 0.930 . S
H1261 C1277 0.959 . S
H1262 C1277 0.959 . S
H1263 C1277 0.961 . S
H1264 C1278 0.960 . S
H1265 C1278 0.961 . S
H1266 C1278 0.959 . S
H1267 C1281 0.929 . S
H1268 C1282 0.931 . S
H1269 C1284 0.930 . S
C1270 H1258 0.930 . S
C1270 C1271 1.399 . S
C1270 C1275 1.399 . S
C1271 C1270 1.399 . S
C1271 C1272 1.376 . S
C1272 H1259 0.930 . S
C1272 C1271 1.376 . S
C1272 C1273 1.388 . S
C1273 H1260 0.930 . S
C1273 C1272 1.388 . S
C1273 C1274 1.390 . S
C1274 C1273 1.390 . S
C1274 C1275 1.394 . S
C1274 C1280 1.465 . S
C1275 C1270 1.399 . S
C1275 C1274 1.394 . S
C1275 C1276 1.516 . S
C1276 C1275 1.516 . S
C1276 C1277 1.502 . S
C1276 C1278 1.561 . S
C1276 C1279 1.526 . S
C1277 H1261 0.959 . S
C1277 H1262 0.959 . S
C1277 H1263 0.961 . S
C1277 C1276 1.502 . S
C1278 H1264 0.960 . S
C1278 H1265 0.961 . S
C1278 H1266 0.959 . S
C1278 C1276 1.561 . S
C1279 C1276 1.526 . S
C1279 C1280 1.396 . S
C1279 C1284 1.390 . S
C1280 C1274 1.465 . S
C1280 C1279 1.396 . S
C1280 C1281 1.399 . S
C1281 H1267 0.929 . S
C1281 C1280 1.399 . S
C1281 C1282 1.385 . S
C1282 H1268 0.931 . S
C1282 C1281 1.385 . S
C1282 C1283 1.389 . S
C1283 C1282 1.389 . S
C1283 C1284 1.387 . S
C1284 H1269 0.930 . S
C1284 C1279 1.390 . S
C1284 C1283 1.387 . S
H1285 C1297 0.930 . S
H1286 C1299 0.930 . S
H1287 C1300 0.930 . S
H1288 C1304 0.959 . S
H1289 C1304 0.959 . S
H1290 C1304 0.961 . S
H1291 C1305 0.960 . S
H1292 C1305 0.961 . S
H1293 C1305 0.959 . S
H1294 C1308 0.929 . S
H1295 C1309 0.931 . S
H1296 C1311 0.920 1_554 S
C1297 H1285 0.930 . S
C1297 C1298 1.399 . S
C1297 C1302 1.399 . S
C1298 C1297 1.399 . S
C1298 C1299 1.376 . S
C1299 H1286 0.930 . S
C1299 C1298 1.376 . S
C1299 C1300 1.388 1_554 S
C1300 H1287 0.930 . S
C1300 C1299 1.388 1_556 S
C1300 C1301 1.390 . S
C1301 C1300 1.390 . S
C1301 C1302 1.394 1_556 S
C1301 C1307 1.465 . S
C1302 C1297 1.399 . S
C1302 C1301 1.394 1_554 S
C1302 C1303 1.516 . S
C1303 C1302 1.516 . S
C1303 C1304 1.502 . S
C1303 C1305 1.561 . S
C1303 C1306 1.526 1_554 S
C1304 H1288 0.959 . S
C1304 H1289 0.959 . S
C1304 H1290 0.961 . S
C1304 C1303 1.502 . S
C1305 H1291 0.960 . S
C1305 H1292 0.961 . S
C1305 H1293 0.959 . S
C1305 C1303 1.561 . S
C1306 C1303 1.526 1_556 S
C1306 C1307 1.396 . S
C1306 C1311 1.389 . S
C1307 C1301 1.465 . S
C1307 C1306 1.396 . S
C1307 C1308 1.399 . S
C1308 H1294 0.929 . S
C1308 C1307 1.399 . S
C1308 C1309 1.385 . S
C1309 H1295 0.931 . S
C1309 C1308 1.385 . S
C1309 C1310 1.389 . S
C1310 C1309 1.389 . S
C1310 C1311 1.387 . S
C1311 H1296 0.920 1_556 S
C1311 C1306 1.389 . S
C1311 C1310 1.387 . S
H1312 C1324 0.930 . S
H1313 C1326 0.930 . S
H1314 C1327 0.930 . S
H1315 C1331 0.959 . S
H1316 C1331 0.959 . S
H1317 C1331 0.961 . S
H1318 C1332 0.960 . S
H1319 C1332 0.961 . S
H1320 C1332 0.959 . S
H1321 C1335 0.929 . S
H1322 C1336 0.931 . S
H1323 C1338 0.930 . S
C1324 H1312 0.930 . S
C1324 C1325 1.399 . S
C1324 C1329 1.399 . S
C1325 C1324 1.399 . S
C1325 C1326 1.376 . S
C1326 H1313 0.930 . S
C1326 C1325 1.376 . S
C1326 C1327 1.388 . S
C1327 H1314 0.930 . S
C1327 C1326 1.388 . S
C1327 C1328 1.390 . S
C1328 C1327 1.390 . S
C1328 C1329 1.394 . S
C1328 C1334 1.465 . S
C1329 C1324 1.399 . S
C1329 C1328 1.394 . S
C1329 C1330 1.516 . S
C1330 C1329 1.516 . S
C1330 C1331 1.502 . S
C1330 C1332 1.561 . S
C1330 C1333 1.526 . S
C1331 H1315 0.959 . S
C1331 H1316 0.959 . S
C1331 H1317 0.961 . S
C1331 C1330 1.502 . S
C1332 H1318 0.960 . S
C1332 H1319 0.961 . S
C1332 H1320 0.959 . S
C1332 C1330 1.561 . S
C1333 C1330 1.526 . S
C1333 C1334 1.396 . S
C1333 C1338 1.390 . S
C1334 C1328 1.465 . S
C1334 C1333 1.396 . S
C1334 C1335 1.399 . S
C1335 H1321 0.929 . S
C1335 C1334 1.399 . S
C1335 C1336 1.385 . S
C1336 H1322 0.931 . S
C1336 C1335 1.385 . S
C1336 C1337 1.389 . S
C1337 C1336 1.389 . S
C1337 C1338 1.387 . S
C1338 H1323 0.930 . S
C1338 C1333 1.390 . S
C1338 C1337 1.387 . S
H1339 C1351 0.910 1_554 S
H1340 C1353 0.930 . S
H1341 C1354 0.930 . S
H1342 C1358 0.959 1_556 S
H1343 C1358 0.959 . S
H1344 C1358 0.961 . S
H1345 C1359 0.960 . S
H1346 C1359 0.961 . S
H1347 C1359 0.959 . S
H1348 C1362 0.929 . S
H1349 C1363 0.931 . S
H1350 C1365 0.906 1_554 S
C1351 H1339 0.910 1_556 S
C1351 C1352 1.399 . S
C1351 C1356 1.399 . S
C1352 C1351 1.399 . S
C1352 C1353 1.376 . S
C1353 H1340 0.930 . S
C1353 C1352 1.376 . S
C1353 C1354 1.388 . S
C1354 H1341 0.930 . S
C1354 C1353 1.388 . S
C1354 C1355 1.390 . S
C1355 C1354 1.390 . S
C1355 C1356 1.394 . S
C1355 C1361 1.465 . S
C1356 C1351 1.399 . S
C1356 C1355 1.394 . S
C1356 C1357 1.516 . S
C1357 C1356 1.516 . S
C1357 C1358 1.502 1_556 S
C1357 C1359 1.561 1_556 S
C1357 C1360 1.526 . S
C1358 H1342 0.959 1_554 S
C1358 H1343 0.959 . S
C1358 H1344 0.961 . S
C1358 C1357 1.502 1_554 S
C1359 H1345 0.960 . S
C1359 H1346 0.961 . S
C1359 H1347 0.959 . S
C1359 C1357 1.561 1_554 S
C1360 C1357 1.526 . S
C1360 C1361 1.396 . S
C1360 C1365 1.390 . S
C1361 C1355 1.465 . S
C1361 C1360 1.396 . S
C1361 C1362 1.399 . S
C1362 H1348 0.929 . S
C1362 C1361 1.399 . S
C1362 C1363 1.385 . S
C1363 H1349 0.931 . S
C1363 C1362 1.385 . S
C1363 C1364 1.389 . S
C1364 C1363 1.389 . S
C1364 C1365 1.387 . S
C1365 H1350 0.906 1_556 S
C1365 C1360 1.390 . S
C1365 C1364 1.387 . S
H1366 C1378 0.930 . S
H1367 C1380 0.930 . S
H1368 C1381 0.930 . S
H1369 C1385 0.959 . S
H1370 C1385 0.959 . S
H1371 C1385 0.961 . S
H1372 C1386 0.960 . S
H1373 C1386 0.961 . S
H1374 C1386 0.959 . S
H1375 C1389 0.929 . S
H1376 C1390 0.931 . S
H1377 C1392 0.930 . S
C1378 H1366 0.930 . S
C1378 C1379 1.399 . S
C1378 C1383 1.399 . S
C1379 C1378 1.399 . S
C1379 C1380 1.376 . S
C1380 H1367 0.930 . S
C1380 C1379 1.376 . S
C1380 C1381 1.388 . S
C1381 H1368 0.930 . S
C1381 C1380 1.388 . S
C1381 C1382 1.390 . S
C1382 C1381 1.390 . S
C1382 C1383 1.394 . S
C1382 C1388 1.465 . S
C1383 C1378 1.399 . S
C1383 C1382 1.394 . S
C1383 C1384 1.516 . S
C1384 C1383 1.516 . S
C1384 C1385 1.502 . S
C1384 C1386 1.561 . S
C1384 C1387 1.526 . S
C1385 H1369 0.959 . S
C1385 H1370 0.959 . S
C1385 H1371 0.961 . S
C1385 C1384 1.502 . S
C1386 H1372 0.960 . S
C1386 H1373 0.961 . S
C1386 H1374 0.959 . S
C1386 C1384 1.561 . S
C1387 C1384 1.526 . S
C1387 C1388 1.396 . S
C1387 C1392 1.390 . S
C1388 C1382 1.465 . S
C1388 C1387 1.396 . S
C1388 C1389 1.399 . S
C1389 H1375 0.929 . S
C1389 C1388 1.399 . S
C1389 C1390 1.385 . S
C1390 H1376 0.931 . S
C1390 C1389 1.385 . S
C1390 C1391 1.389 . S
C1391 C1390 1.389 . S
C1391 C1392 1.387 . S
C1392 H1377 0.930 . S
C1392 C1387 1.390 . S
C1392 C1391 1.387 . S
H1393 C1405 0.930 . S
H1394 C1407 0.930 . S
H1395 C1408 0.930 . S
H1396 C1412 0.959 . S
H1397 C1412 0.959 . S
H1398 C1412 0.961 . S
H1399 C1413 0.960 . S
H1400 C1413 0.961 . S
H1401 C1413 0.959 . S
H1402 C1416 0.929 . S
H1403 C1417 0.931 . S
H1404 C1419 0.930 . S
C1405 H1393 0.930 . S
C1405 C1406 1.399 . S
C1405 C1410 1.399 . S
C1406 C1405 1.399 . S
C1406 C1407 1.376 . S
C1407 H1394 0.930 . S
C1407 C1406 1.376 . S
C1407 C1408 1.388 . S
C1408 H1395 0.930 . S
C1408 C1407 1.388 . S
C1408 C1409 1.390 . S
C1409 C1408 1.390 . S
C1409 C1410 1.394 . S
C1409 C1415 1.465 . S
C1410 C1405 1.399 . S
C1410 C1409 1.394 . S
C1410 C1411 1.516 . S
C1411 C1410 1.516 . S
C1411 C1412 1.502 . S
C1411 C1413 1.561 . S
C1411 C1414 1.526 . S
C1412 H1396 0.959 . S
C1412 H1397 0.959 . S
C1412 H1398 0.961 . S
C1412 C1411 1.502 . S
C1413 H1399 0.960 . S
C1413 H1400 0.961 . S
C1413 H1401 0.959 . S
C1413 C1411 1.561 . S
C1414 C1411 1.526 . S
C1414 C1415 1.396 . S
C1414 C1419 1.390 . S
C1415 C1409 1.465 . S
C1415 C1414 1.396 . S
C1415 C1416 1.399 . S
C1416 H1402 0.929 . S
C1416 C1415 1.399 . S
C1416 C1417 1.385 . S
C1417 H1403 0.931 . S
C1417 C1416 1.385 . S
C1417 C1418 1.389 . S
C1418 C1417 1.389 . S
C1418 C1419 1.387 . S
C1419 H1404 0.930 . S
C1419 C1414 1.390 . S
C1419 C1418 1.387 . S
H1420 C1432 0.930 . S
H1421 C1434 0.930 . S
H1422 C1435 0.930 . S
H1423 C1439 0.959 . S
H1424 C1439 0.959 . S
H1425 C1439 0.961 . S
H1426 C1440 0.960 . S
H1427 C1440 0.961 . S
H1428 C1440 0.959 . S
H1429 C1443 0.929 . S
H1430 C1444 0.931 . S
H1431 C1446 0.930 . S
C1432 H1420 0.930 . S
C1432 C1433 1.399 . S
C1432 C1437 1.399 . S
C1433 C1432 1.399 . S
C1433 C1434 1.376 . S
C1434 H1421 0.930 . S
C1434 C1433 1.376 . S
C1434 C1435 1.388 . S
C1435 H1422 0.930 . S
C1435 C1434 1.388 . S
C1435 C1436 1.390 . S
C1436 C1435 1.390 . S
C1436 C1437 1.394 . S
C1436 C1442 1.465 . S
C1437 C1432 1.399 . S
C1437 C1436 1.394 . S
C1437 C1438 1.516 . S
C1438 C1437 1.516 . S
C1438 C1439 1.502 . S
C1438 C1440 1.561 . S
C1438 C1441 1.526 . S
C1439 H1423 0.959 . S
C1439 H1424 0.959 . S
C1439 H1425 0.961 . S
C1439 C1438 1.502 . S
C1440 H1426 0.960 . S
C1440 H1427 0.961 . S
C1440 H1428 0.959 . S
C1440 C1438 1.561 . S
C1441 C1438 1.526 . S
C1441 C1442 1.396 . S
C1441 C1446 1.390 . S
C1442 C1436 1.465 . S
C1442 C1441 1.396 . S
C1442 C1443 1.399 . S
C1443 H1429 0.929 . S
C1443 C1442 1.399 . S
C1443 C1444 1.385 . S
C1444 H1430 0.931 . S
C1444 C1443 1.385 . S
C1444 C1445 1.389 . S
C1445 C1444 1.389 . S
C1445 C1446 1.387 . S
C1446 H1431 0.930 . S
C1446 C1441 1.390 . S
C1446 C1445 1.387 . S
H1447 C1459 0.930 . S
H1448 C1461 0.930 . S
H1449 C1462 0.930 . S
H1450 C1466 0.959 . S
H1451 C1466 0.959 . S
H1452 C1466 0.961 . S
H1453 C1467 0.960 . S
H1454 C1467 0.961 . S
H1455 C1467 0.959 . S
H1456 C1470 0.929 . S
H1457 C1471 0.931 . S
H1458 C1473 0.930 . S
C1459 H1447 0.930 . S
C1459 C1460 1.399 . S
C1459 C1464 1.399 . S
C1460 C1459 1.399 . S
C1460 C1461 1.376 . S
C1461 H1448 0.930 . S
C1461 C1460 1.376 . S
C1461 C1462 1.388 . S
C1462 H1449 0.930 . S
C1462 C1461 1.388 . S
C1462 C1463 1.390 . S
C1463 C1462 1.390 . S
C1463 C1464 1.394 . S
C1463 C1469 1.465 . S
C1464 C1459 1.399 . S
C1464 C1463 1.394 . S
C1464 C1465 1.516 . S
C1465 C1464 1.516 . S
C1465 C1466 1.502 . S
C1465 C1467 1.561 . S
C1465 C1468 1.526 . S
C1466 H1450 0.959 . S
C1466 H1451 0.959 . S
C1466 H1452 0.961 . S
C1466 C1465 1.502 . S
C1467 H1453 0.960 . S
C1467 H1454 0.961 . S
C1467 H1455 0.959 . S
C1467 C1465 1.561 . S
C1468 C1465 1.526 . S
C1468 C1469 1.396 . S
C1468 C1473 1.390 . S
C1469 C1463 1.465 . S
C1469 C1468 1.396 . S
C1469 C1470 1.399 . S
C1470 H1456 0.929 . S
C1470 C1469 1.399 . S
C1470 C1471 1.385 . S
C1471 H1457 0.931 . S
C1471 C1470 1.385 . S
C1471 C1472 1.389 . S
C1472 C1471 1.389 . S
C1472 C1473 1.387 . S
C1473 H1458 0.930 . S
C1473 C1468 1.390 . S
C1473 C1472 1.387 . S
H1474 C1486 0.930 . S
H1475 C1488 0.930 . S
H1476 C1489 0.930 . S
H1477 C1493 0.959 . S
H1478 C1493 0.959 . S
H1479 C1493 0.961 . S
H1480 C1494 0.960 . S
H1481 C1494 0.961 . S
H1482 C1494 0.959 . S
H1483 C1497 0.929 . S
H1484 C1498 0.931 . S
H1485 C1500 0.930 . S
C1486 H1474 0.930 . S
C1486 C1487 1.399 . S
C1486 C1491 1.399 . S
C1487 C1486 1.399 . S
C1487 C1488 1.376 . S
C1488 H1475 0.930 . S
C1488 C1487 1.376 . S
C1488 C1489 1.388 . S
C1489 H1476 0.930 . S
C1489 C1488 1.388 . S
C1489 C1490 1.390 . S
C1490 C1489 1.390 . S
C1490 C1491 1.394 . S
C1490 C1496 1.465 . S
C1491 C1486 1.399 . S
C1491 C1490 1.394 . S
C1491 C1492 1.516 . S
C1492 C1491 1.516 . S
C1492 C1493 1.502 . S
C1492 C1494 1.561 . S
C1492 C1495 1.526 . S
C1493 H1477 0.959 . S
C1493 H1478 0.959 . S
C1493 H1479 0.961 . S
C1493 C1492 1.502 . S
C1494 H1480 0.960 . S
C1494 H1481 0.961 . S
C1494 H1482 0.959 . S
C1494 C1492 1.561 . S
C1495 C1492 1.526 . S
C1495 C1496 1.396 . S
C1495 C1500 1.390 . S
C1496 C1490 1.465 . S
C1496 C1495 1.396 . S
C1496 C1497 1.399 . S
C1497 H1483 0.929 . S
C1497 C1496 1.399 . S
C1497 C1498 1.385 . S
C1498 H1484 0.931 . S
C1498 C1497 1.385 . S
C1498 C1499 1.389 . S
C1499 C1498 1.389 . S
C1499 C1500 1.387 . S
C1500 H1485 0.930 . S
C1500 C1495 1.390 . S
C1500 C1499 1.387 . S
H1501 C1513 0.930 . S
H1502 C1515 0.930 . S
H1503 C1516 0.930 . S
H1504 C1520 0.959 . S
H1505 C1520 0.959 . S
H1506 C1520 0.961 . S
H1507 C1521 0.960 . S
H1508 C1521 0.961 . S
H1509 C1521 0.959 . S
H1510 C1524 0.929 . S
H1511 C1525 0.931 . S
H1512 C1527 0.930 . S
C1513 H1501 0.930 . S
C1513 C1514 1.399 . S
C1513 C1518 1.399 . S
C1514 C1513 1.399 . S
C1514 C1515 1.376 . S
C1515 H1502 0.930 . S
C1515 C1514 1.376 . S
C1515 C1516 1.388 . S
C1516 H1503 0.930 . S
C1516 C1515 1.388 . S
C1516 C1517 1.390 . S
C1517 C1516 1.390 . S
C1517 C1518 1.394 . S
C1517 C1523 1.465 . S
C1518 C1513 1.399 . S
C1518 C1517 1.394 . S
C1518 C1519 1.516 . S
C1519 C1518 1.516 . S
C1519 C1520 1.502 . S
C1519 C1521 1.561 . S
C1519 C1522 1.526 . S
C1520 H1504 0.959 . S
C1520 H1505 0.959 . S
C1520 H1506 0.961 . S
C1520 C1519 1.502 . S
C1521 H1507 0.960 . S
C1521 H1508 0.961 . S
C1521 H1509 0.959 . S
C1521 C1519 1.561 . S
C1522 C1519 1.526 . S
C1522 C1523 1.396 . S
C1522 C1527 1.390 . S
C1523 C1517 1.465 . S
C1523 C1522 1.396 . S
C1523 C1524 1.399 . S
C1524 H1510 0.929 . S
C1524 C1523 1.399 . S
C1524 C1525 1.385 . S
C1525 H1511 0.931 . S
C1525 C1524 1.385 . S
C1525 C1526 1.389 . S
C1526 C1525 1.389 . S
C1526 C1527 1.387 . S
C1527 H1512 0.930 . S
C1527 C1522 1.390 . S
C1527 C1526 1.387 . S
H1528 C1540 0.930 . S
H1529 C1542 0.930 . S
H1530 C1543 0.930 . S
H1531 C1547 0.959 . S
H1532 C1547 0.959 . S
H1533 C1547 0.961 . S
H1534 C1548 0.960 . S
H1535 C1548 0.961 . S
H1536 C1548 0.959 . S
H1537 C1551 0.929 . S
H1538 C1552 0.931 . S
H1539 C1554 0.930 . S
C1540 H1528 0.930 . S
C1540 C1541 1.399 . S
C1540 C1545 1.399 . S
C1541 C1540 1.399 . S
C1541 C1542 1.376 . S
C1542 H1529 0.930 . S
C1542 C1541 1.376 . S
C1542 C1543 1.388 . S
C1543 H1530 0.930 . S
C1543 C1542 1.388 . S
C1543 C1544 1.390 . S
C1544 C1543 1.390 . S
C1544 C1545 1.394 . S
C1544 C1550 1.465 . S
C1545 C1540 1.399 . S
C1545 C1544 1.394 . S
C1545 C1546 1.516 . S
C1546 C1545 1.516 . S
C1546 C1547 1.502 . S
C1546 C1548 1.561 . S
C1546 C1549 1.526 . S
C1547 H1531 0.959 . S
C1547 H1532 0.959 . S
C1547 H1533 0.961 . S
C1547 C1546 1.502 . S
C1548 H1534 0.960 . S
C1548 H1535 0.961 . S
C1548 H1536 0.959 . S
C1548 C1546 1.561 . S
C1549 C1546 1.526 . S
C1549 C1550 1.396 . S
C1549 C1554 1.390 . S
C1550 C1544 1.465 . S
C1550 C1549 1.396 . S
C1550 C1551 1.399 . S
C1551 H1537 0.929 . S
C1551 C1550 1.399 . S
C1551 C1552 1.385 . S
C1552 H1538 0.931 . S
C1552 C1551 1.385 . S
C1552 C1553 1.389 . S
C1553 C1552 1.389 . S
C1553 C1554 1.387 . S
C1554 H1539 0.930 . S
C1554 C1549 1.390 . S
C1554 C1553 1.387 . S
H1555 C1567 0.930 . S
H1556 C1569 0.930 . S
H1557 C1570 0.930 . S
H1558 C1574 0.959 . S
H1559 C1574 0.959 . S
H1560 C1574 0.961 . S
H1561 C1575 0.960 . S
H1562 C1575 0.961 . S
H1563 C1575 0.959 . S
H1564 C1578 0.929 . S
H1565 C1579 0.931 . S
H1566 C1581 0.930 . S
C1567 H1555 0.930 . S
C1567 C1568 1.399 . S
C1567 C1572 1.399 . S
C1568 C1567 1.399 . S
C1568 C1569 1.376 . S
C1569 H1556 0.930 . S
C1569 C1568 1.376 . S
C1569 C1570 1.388 . S
C1570 H1557 0.930 . S
C1570 C1569 1.388 . S
C1570 C1571 1.390 . S
C1571 C1570 1.390 . S
C1571 C1572 1.394 . S
C1571 C1577 1.465 . S
C1572 C1567 1.399 . S
C1572 C1571 1.394 . S
C1572 C1573 1.516 . S
C1573 C1572 1.516 . S
C1573 C1574 1.502 . S
C1573 C1575 1.561 . S
C1573 C1576 1.526 . S
C1574 H1558 0.959 . S
C1574 H1559 0.959 . S
C1574 H1560 0.961 . S
C1574 C1573 1.502 . S
C1575 H1561 0.960 . S
C1575 H1562 0.961 . S
C1575 H1563 0.959 . S
C1575 C1573 1.561 . S
C1576 C1573 1.526 . S
C1576 C1577 1.396 . S
C1576 C1581 1.390 . S
C1577 C1571 1.465 . S
C1577 C1576 1.396 . S
C1577 C1578 1.399 . S
C1578 H1564 0.929 . S
C1578 C1577 1.399 . S
C1578 C1579 1.385 . S
C1579 H1565 0.931 . S
C1579 C1578 1.385 . S
C1579 C1580 1.389 . S
C1580 C1579 1.389 . S
C1580 C1581 1.387 . S
C1581 H1566 0.930 . S
C1581 C1576 1.390 . S
C1581 C1580 1.387 . S
H1582 C1594 0.930 . S
H1583 C1596 0.930 . S
H1584 C1597 0.930 . S
H1585 C1601 0.959 . S
H1586 C1601 0.959 . S
H1587 C1601 0.961 . S
H1588 C1602 0.960 . S
H1589 C1602 0.961 . S
H1590 C1602 0.959 . S
H1591 C1605 0.929 . S
H1592 C1606 0.931 . S
H1593 C1608 0.930 . S
C1594 H1582 0.930 . S
C1594 C1595 1.399 . S
C1594 C1599 1.399 . S
C1595 C1594 1.399 . S
C1595 C1596 1.376 . S
C1596 H1583 0.930 . S
C1596 C1595 1.376 . S
C1596 C1597 1.388 . S
C1597 H1584 0.930 . S
C1597 C1596 1.388 . S
C1597 C1598 1.390 . S
C1598 C1597 1.390 . S
C1598 C1599 1.394 . S
C1598 C1604 1.465 . S
C1599 C1594 1.399 . S
C1599 C1598 1.394 . S
C1599 C1600 1.516 . S
C1600 C1599 1.516 . S
C1600 C1601 1.502 . S
C1600 C1602 1.561 . S
C1600 C1603 1.526 . S
C1601 H1585 0.959 . S
C1601 H1586 0.959 . S
C1601 H1587 0.961 . S
C1601 C1600 1.502 . S
C1602 H1588 0.960 . S
C1602 H1589 0.961 . S
C1602 H1590 0.959 . S
C1602 C1600 1.561 . S
C1603 C1600 1.526 . S
C1603 C1604 1.396 . S
C1603 C1608 1.390 . S
C1604 C1598 1.465 . S
C1604 C1603 1.396 . S
C1604 C1605 1.399 . S
C1605 H1591 0.929 . S
C1605 C1604 1.399 . S
C1605 C1606 1.385 . S
C1606 H1592 0.931 . S
C1606 C1605 1.385 . S
C1606 C1607 1.389 . S
C1607 C1606 1.389 . S
C1607 C1608 1.387 . S
C1608 H1593 0.930 . S
C1608 C1603 1.390 . S
C1608 C1607 1.387 . S
H1609 C1621 0.930 . S
H1610 C1623 0.930 . S
H1611 C1624 0.930 . S
H1612 C1628 0.959 . S
H1613 C1628 0.959 . S
H1614 C1628 0.961 . S
H1615 C1629 0.960 . S
H1616 C1629 0.961 . S
H1617 C1629 0.959 . S
H1618 C1632 0.929 . S
H1619 C1633 0.931 . S
H1620 C1635 0.930 . S
C1621 H1609 0.930 . S
C1621 C1622 1.399 . S
C1621 C1626 1.399 . S
C1622 C1621 1.399 . S
C1622 C1623 1.376 . S
C1623 H1610 0.930 . S
C1623 C1622 1.376 . S
C1623 C1624 1.388 . S
C1624 H1611 0.930 . S
C1624 C1623 1.388 . S
C1624 C1625 1.390 . S
C1625 C1624 1.390 . S
C1625 C1626 1.394 . S
C1625 C1631 1.465 . S
C1626 C1621 1.399 . S
C1626 C1625 1.394 . S
C1626 C1627 1.516 . S
C1627 C1626 1.516 . S
C1627 C1628 1.502 . S
C1627 C1629 1.561 . S
C1627 C1630 1.526 . S
C1628 H1612 0.959 . S
C1628 H1613 0.959 . S
C1628 H1614 0.961 . S
C1628 C1627 1.502 . S
C1629 H1615 0.960 . S
C1629 H1616 0.961 . S
C1629 H1617 0.959 . S
C1629 C1627 1.561 . S
C1630 C1627 1.526 . S
C1630 C1631 1.396 . S
C1630 C1635 1.390 . S
C1631 C1625 1.465 . S
C1631 C1630 1.396 . S
C1631 C1632 1.399 . S
C1632 H1618 0.929 . S
C1632 C1631 1.399 . S
C1632 C1633 1.385 . S
C1633 H1619 0.931 . S
C1633 C1632 1.385 . S
C1633 C1634 1.389 . S
C1634 C1633 1.389 . S
C1634 C1635 1.387 . S
C1635 H1620 0.930 . S
C1635 C1630 1.390 . S
C1635 C1634 1.387 . S
H1636 C1648 0.930 . S
H1637 C1650 0.930 . S
H1638 C1651 0.930 . S
H1639 C1655 0.959 . S
H1640 C1655 0.959 . S
H1641 C1655 0.961 . S
H1642 C1656 0.960 . S
H1643 C1656 0.961 . S
H1644 C1656 0.959 . S
H1645 C1659 0.929 . S
H1646 C1660 0.931 . S
H1647 C1662 0.930 . S
C1648 H1636 0.930 . S
C1648 C1649 1.399 . S
C1648 C1653 1.399 . S
C1649 C1648 1.399 . S
C1649 C1650 1.376 . S
C1650 H1637 0.930 . S
C1650 C1649 1.376 . S
C1650 C1651 1.388 . S
C1651 H1638 0.930 . S
C1651 C1650 1.388 . S
C1651 C1652 1.390 . S
C1652 C1651 1.390 . S
C1652 C1653 1.394 . S
C1652 C1658 1.465 . S
C1653 C1648 1.399 . S
C1653 C1652 1.394 . S
C1653 C1654 1.516 . S
C1654 C1653 1.516 . S
C1654 C1655 1.502 . S
C1654 C1656 1.561 . S
C1654 C1657 1.526 . S
C1655 H1639 0.959 . S
C1655 H1640 0.959 . S
C1655 H1641 0.961 . S
C1655 C1654 1.502 . S
C1656 H1642 0.960 . S
C1656 H1643 0.961 . S
C1656 H1644 0.959 . S
C1656 C1654 1.561 . S
C1657 C1654 1.526 . S
C1657 C1658 1.396 . S
C1657 C1662 1.390 . S
C1658 C1652 1.465 . S
C1658 C1657 1.396 . S
C1658 C1659 1.399 . S
C1659 H1645 0.929 . S
C1659 C1658 1.399 . S
C1659 C1660 1.385 . S
C1660 H1646 0.931 . S
C1660 C1659 1.385 . S
C1660 C1661 1.389 . S
C1661 C1660 1.389 . S
C1661 C1662 1.387 . S
C1662 H1647 0.930 . S
C1662 C1657 1.390 . S
C1662 C1661 1.387 . S
H1663 C1675 0.943 . S
H1664 C1677 0.930 . S
H1665 C1678 0.930 . S
H1666 C1682 0.959 1_556 S
H1667 C1682 0.959 . S
H1668 C1682 0.961 . S
H1669 C1683 0.960 . S
H1670 C1683 0.961 . S
H1671 C1683 0.959 . S
H1672 C1686 0.929 . S
H1673 C1687 0.931 . S
H1674 C1689 0.938 . S
C1675 H1663 0.943 . S
C1675 C1676 1.399 . S
C1675 C1680 1.399 . S
C1676 C1675 1.399 . S
C1676 C1677 1.376 . S
C1677 H1664 0.930 . S
C1677 C1676 1.376 . S
C1677 C1678 1.388 . S
C1678 H1665 0.930 . S
C1678 C1677 1.388 . S
C1678 C1679 1.390 . S
C1679 C1678 1.390 . S
C1679 C1680 1.394 . S
C1679 C1685 1.465 . S
C1680 C1675 1.399 . S
C1680 C1679 1.394 . S
C1680 C1681 1.516 . S
C1681 C1680 1.516 . S
C1681 C1682 1.502 1_556 S
C1681 C1683 1.561 1_556 S
C1681 C1684 1.526 . S
C1682 H1666 0.959 1_554 S
C1682 H1667 0.959 . S
C1682 H1668 0.961 . S
C1682 C1681 1.502 1_554 S
C1683 H1669 0.960 . S
C1683 H1670 0.961 . S
C1683 H1671 0.959 . S
C1683 C1681 1.561 1_554 S
C1684 C1681 1.526 . S
C1684 C1685 1.396 . S
C1684 C1689 1.390 . S
C1685 C1679 1.465 . S
C1685 C1684 1.396 . S
C1685 C1686 1.399 . S
C1686 H1672 0.929 . S
C1686 C1685 1.399 . S
C1686 C1687 1.385 . S
C1687 H1673 0.931 . S
C1687 C1686 1.385 . S
C1687 C1688 1.389 . S
C1688 C1687 1.389 . S
C1688 C1689 1.387 . S
C1689 H1674 0.938 . S
C1689 C1684 1.390 . S
C1689 C1688 1.387 . S
H1690 C1702 0.930 . S
H1691 C1704 0.930 . S
H1692 C1705 0.930 . S
H1693 C1709 0.959 . S
H1694 C1709 0.959 . S
H1695 C1709 0.961 . S
H1696 C1710 0.960 . S
H1697 C1710 0.961 . S
H1698 C1710 0.959 . S
H1699 C1713 0.929 . S
H1700 C1714 0.931 . S
H1701 C1716 0.930 . S
C1702 H1690 0.930 . S
C1702 C1703 1.399 . S
C1702 C1707 1.399 . S
C1703 C1702 1.399 . S
C1703 C1704 1.376 . S
C1704 H1691 0.930 . S
C1704 C1703 1.376 . S
C1704 C1705 1.388 . S
C1705 H1692 0.930 . S
C1705 C1704 1.388 . S
C1705 C1706 1.390 . S
C1706 C1705 1.390 . S
C1706 C1707 1.394 . S
C1706 C1712 1.465 . S
C1707 C1702 1.399 . S
C1707 C1706 1.394 . S
C1707 C1708 1.516 . S
C1708 C1707 1.516 . S
C1708 C1709 1.502 . S
C1708 C1710 1.561 . S
C1708 C1711 1.526 . S
C1709 H1693 0.959 . S
C1709 H1694 0.959 . S
C1709 H1695 0.961 . S
C1709 C1708 1.502 . S
C1710 H1696 0.960 . S
C1710 H1697 0.961 . S
C1710 H1698 0.959 . S
C1710 C1708 1.561 . S
C1711 C1708 1.526 . S
C1711 C1712 1.396 . S
C1711 C1716 1.390 . S
C1712 C1706 1.465 . S
C1712 C1711 1.396 . S
C1712 C1713 1.399 . S
C1713 H1699 0.929 . S
C1713 C1712 1.399 . S
C1713 C1714 1.385 . S
C1714 H1700 0.931 . S
C1714 C1713 1.385 . S
C1714 C1715 1.389 . S
C1715 C1714 1.389 . S
C1715 C1716 1.387 . S
C1716 H1701 0.930 . S
C1716 C1711 1.390 . S
C1716 C1715 1.387 . S
H1717 C1729 0.930 . S
H1718 C1731 0.930 1_556 S
H1719 C1732 0.930 . S
H1720 C1736 0.959 . S
H1721 C1736 0.959 . S
H1722 C1736 0.961 . S
H1723 C1737 0.960 . S
H1724 C1737 0.961 . S
H1725 C1737 0.959 . S
H1726 C1740 0.929 . S
H1727 C1741 0.931 1_556 S
H1728 C1743 0.930 . S
C1729 H1717 0.930 . S
C1729 C1730 1.399 . S
C1729 C1734 1.399 . S
C1730 C1729 1.399 . S
C1730 C1731 1.376 . S
C1731 H1718 0.930 1_554 S
C1731 C1730 1.376 . S
C1731 C1732 1.388 1_554 S
C1732 H1719 0.930 . S
C1732 C1731 1.388 1_556 S
C1732 C1733 1.390 1_556 S
C1733 C1732 1.390 1_554 S
C1733 C1734 1.394 . S
C1733 C1739 1.465 . S
C1734 C1729 1.399 . S
C1734 C1733 1.394 . S
C1734 C1735 1.516 . S
C1735 C1734 1.516 . S
C1735 C1736 1.502 . S
C1735 C1737 1.561 . S
C1735 C1738 1.526 . S
C1736 H1720 0.959 . S
C1736 H1721 0.959 . S
C1736 H1722 0.961 . S
C1736 C1735 1.502 . S
C1737 H1723 0.960 . S
C1737 H1724 0.961 . S
C1737 H1725 0.959 . S
C1737 C1735 1.561 . S
C1738 C1735 1.526 . S
C1738 C1739 1.396 . S
C1738 C1743 1.390 . S
C1739 C1733 1.465 . S
C1739 C1738 1.396 . S
C1739 C1740 1.399 1_554 S
C1740 H1726 0.929 . S
C1740 C1739 1.399 1_556 S
C1740 C1741 1.385 1_556 S
C1741 H1727 0.931 1_554 S
C1741 C1740 1.385 1_554 S
C1741 C1742 1.389 . S
C1742 C1741 1.389 . S
C1742 C1743 1.387 . S
C1743 H1728 0.930 . S
C1743 C1738 1.390 . S
C1743 C1742 1.387 . S
H1744 C1756 0.930 . S
H1745 C1758 0.930 . S
H1746 C1759 0.930 . S
H1747 C1763 0.959 . S
H1748 C1763 0.959 . S
H1749 C1763 0.961 . S
H1750 C1764 0.960 . S
H1751 C1764 0.961 . S
H1752 C1764 0.959 . S
H1753 C1767 0.929 . S
H1754 C1768 0.931 . S
H1755 C1770 0.930 . S
C1756 H1744 0.930 . S
C1756 C1757 1.399 . S
C1756 C1761 1.399 . S
C1757 C1756 1.399 . S
C1757 C1758 1.376 . S
C1758 H1745 0.930 . S
C1758 C1757 1.376 . S
C1758 C1759 1.388 . S
C1759 H1746 0.930 . S
C1759 C1758 1.388 . S
C1759 C1760 1.390 . S
C1760 C1759 1.390 . S
C1760 C1761 1.394 . S
C1760 C1766 1.465 . S
C1761 C1756 1.399 . S
C1761 C1760 1.394 . S
C1761 C1762 1.516 . S
C1762 C1761 1.516 . S
C1762 C1763 1.502 . S
C1762 C1764 1.561 . S
C1762 C1765 1.526 . S
C1763 H1747 0.959 . S
C1763 H1748 0.959 . S
C1763 H1749 0.961 . S
C1763 C1762 1.502 . S
C1764 H1750 0.960 . S
C1764 H1751 0.961 . S
C1764 H1752 0.959 . S
C1764 C1762 1.561 . S
C1765 C1762 1.526 . S
C1765 C1766 1.396 . S
C1765 C1770 1.390 . S
C1766 C1760 1.465 . S
C1766 C1765 1.396 . S
C1766 C1767 1.399 . S
C1767 H1753 0.929 . S
C1767 C1766 1.399 . S
C1767 C1768 1.385 . S
C1768 H1754 0.931 . S
C1768 C1767 1.385 . S
C1768 C1769 1.389 . S
C1769 C1768 1.389 . S
C1769 C1770 1.387 . S
C1770 H1755 0.930 . S
C1770 C1765 1.390 . S
C1770 C1769 1.387 . S
H1771 C1783 0.930 . S
H1772 C1785 0.930 . S
H1773 C1786 0.930 . S
H1774 C1790 0.959 . S
H1775 C1790 0.959 . S
H1776 C1790 0.961 . S
H1777 C1791 0.960 . S
H1778 C1791 0.961 . S
H1779 C1791 0.959 . S
H1780 C1794 0.929 . S
H1781 C1795 0.931 . S
H1782 C1797 0.930 . S
C1783 H1771 0.930 . S
C1783 C1784 1.399 . S
C1783 C1788 1.399 . S
C1784 C1783 1.399 . S
C1784 C1785 1.376 . S
C1785 H1772 0.930 . S
C1785 C1784 1.376 . S
C1785 C1786 1.388 . S
C1786 H1773 0.930 . S
C1786 C1785 1.388 . S
C1786 C1787 1.390 . S
C1787 C1786 1.390 . S
C1787 C1788 1.394 . S
C1787 C1793 1.465 . S
C1788 C1783 1.399 . S
C1788 C1787 1.394 . S
C1788 C1789 1.516 . S
C1789 C1788 1.516 . S
C1789 C1790 1.502 . S
C1789 C1791 1.561 . S
C1789 C1792 1.526 . S
C1790 H1774 0.959 . S
C1790 H1775 0.959 . S
C1790 H1776 0.961 . S
C1790 C1789 1.502 . S
C1791 H1777 0.960 . S
C1791 H1778 0.961 . S
C1791 H1779 0.959 . S
C1791 C1789 1.561 . S
C1792 C1789 1.526 . S
C1792 C1793 1.396 . S
C1792 C1797 1.390 . S
C1793 C1787 1.465 . S
C1793 C1792 1.396 . S
C1793 C1794 1.399 . S
C1794 H1780 0.929 . S
C1794 C1793 1.399 . S
C1794 C1795 1.385 . S
C1795 H1781 0.931 . S
C1795 C1794 1.385 . S
C1795 C1796 1.389 . S
C1796 C1795 1.389 . S
C1796 C1797 1.387 . S
C1797 H1782 0.930 . S
C1797 C1792 1.390 . S
C1797 C1796 1.387 . S
H1798 C1810 0.930 . S
H1799 C1812 0.930 . S
H1800 C1813 0.930 . S
H1801 C1817 0.959 . S
H1802 C1817 0.959 . S
H1803 C1817 0.961 . S
H1804 C1818 0.960 . S
H1805 C1818 0.961 . S
H1806 C1818 0.959 . S
H1807 C1821 0.929 . S
H1808 C1822 0.931 . S
H1809 C1824 0.930 . S
C1810 H1798 0.930 . S
C1810 C1811 1.399 . S
C1810 C1815 1.399 . S
C1811 C1810 1.399 . S
C1811 C1812 1.376 . S
C1812 H1799 0.930 . S
C1812 C1811 1.376 . S
C1812 C1813 1.388 . S
C1813 H1800 0.930 . S
C1813 C1812 1.388 . S
C1813 C1814 1.390 . S
C1814 C1813 1.390 . S
C1814 C1815 1.394 . S
C1814 C1820 1.465 . S
C1815 C1810 1.399 . S
C1815 C1814 1.394 . S
C1815 C1816 1.516 . S
C1816 C1815 1.516 . S
C1816 C1817 1.502 . S
C1816 C1818 1.561 . S
C1816 C1819 1.526 . S
C1817 H1801 0.959 . S
C1817 H1802 0.959 . S
C1817 H1803 0.961 . S
C1817 C1816 1.502 . S
C1818 H1804 0.960 . S
C1818 H1805 0.961 . S
C1818 H1806 0.959 . S
C1818 C1816 1.561 . S
C1819 C1816 1.526 . S
C1819 C1820 1.396 . S
C1819 C1824 1.390 . S
C1820 C1814 1.465 . S
C1820 C1819 1.396 . S
C1820 C1821 1.399 . S
C1821 H1807 0.929 . S
C1821 C1820 1.399 . S
C1821 C1822 1.385 . S
C1822 H1808 0.931 . S
C1822 C1821 1.385 . S
C1822 C1823 1.389 . S
C1823 C1822 1.389 . S
C1823 C1824 1.387 . S
C1824 H1809 0.930 . S
C1824 C1819 1.390 . S
C1824 C1823 1.387 . S
H1825 C1837 0.930 . S
H1826 C1839 0.930 . S
H1827 C1840 0.930 . S
H1828 C1844 0.959 . S
H1829 C1844 0.959 . S
H1830 C1844 0.961 . S
H1831 C1845 0.960 . S
H1832 C1845 0.961 . S
H1833 C1845 0.959 . S
H1834 C1848 0.929 . S
H1835 C1849 0.931 . S
H1836 C1851 0.930 . S
C1837 H1825 0.930 . S
C1837 C1838 1.399 . S
C1837 C1842 1.399 . S
C1838 C1837 1.399 . S
C1838 C1839 1.376 . S
C1839 H1826 0.930 . S
C1839 C1838 1.376 . S
C1839 C1840 1.388 . S
C1840 H1827 0.930 . S
C1840 C1839 1.388 . S
C1840 C1841 1.390 . S
C1841 C1840 1.390 . S
C1841 C1842 1.394 . S
C1841 C1847 1.465 . S
C1842 C1837 1.399 . S
C1842 C1841 1.394 . S
C1842 C1843 1.516 . S
C1843 C1842 1.516 . S
C1843 C1844 1.502 . S
C1843 C1845 1.561 . S
C1843 C1846 1.526 . S
C1844 H1828 0.959 . S
C1844 H1829 0.959 . S
C1844 H1830 0.961 . S
C1844 C1843 1.502 . S
C1845 H1831 0.960 . S
C1845 H1832 0.961 . S
C1845 H1833 0.959 . S
C1845 C1843 1.561 . S
C1846 C1843 1.526 . S
C1846 C1847 1.396 . S
C1846 C1851 1.390 . S
C1847 C1841 1.465 . S
C1847 C1846 1.396 . S
C1847 C1848 1.399 . S
C1848 H1834 0.929 . S
C1848 C1847 1.399 . S
C1848 C1849 1.385 . S
C1849 H1835 0.931 . S
C1849 C1848 1.385 . S
C1849 C1850 1.389 . S
C1850 C1849 1.389 . S
C1850 C1851 1.387 . S
C1851 H1836 0.930 . S
C1851 C1846 1.390 . S
C1851 C1850 1.387 . S
H1852 C1864 0.930 . S
H1853 C1866 0.930 . S
H1854 C1867 0.930 . S
H1855 C1871 0.959 . S
H1856 C1871 0.959 . S
H1857 C1871 0.961 . S
H1858 C1872 0.960 . S
H1859 C1872 0.961 . S
H1860 C1872 0.959 . S
H1861 C1875 0.929 . S
H1862 C1876 0.931 . S
H1863 C1878 0.930 . S
C1864 H1852 0.930 . S
C1864 C1865 1.399 . S
C1864 C1869 1.399 . S
C1865 C1864 1.399 . S
C1865 C1866 1.376 . S
C1866 H1853 0.930 . S
C1866 C1865 1.376 . S
C1866 C1867 1.388 . S
C1867 H1854 0.930 . S
C1867 C1866 1.388 . S
C1867 C1868 1.390 . S
C1868 C1867 1.390 . S
C1868 C1869 1.394 . S
C1868 C1874 1.465 . S
C1869 C1864 1.399 . S
C1869 C1868 1.394 . S
C1869 C1870 1.516 . S
C1870 C1869 1.516 . S
C1870 C1871 1.502 . S
C1870 C1872 1.561 . S
C1870 C1873 1.526 . S
C1871 H1855 0.959 . S
C1871 H1856 0.959 . S
C1871 H1857 0.961 . S
C1871 C1870 1.502 . S
C1872 H1858 0.960 . S
C1872 H1859 0.961 . S
C1872 H1860 0.959 . S
C1872 C1870 1.561 . S
C1873 C1870 1.526 . S
C1873 C1874 1.396 . S
C1873 C1878 1.390 . S
C1874 C1868 1.465 . S
C1874 C1873 1.396 . S
C1874 C1875 1.399 . S
C1875 H1861 0.929 . S
C1875 C1874 1.399 . S
C1875 C1876 1.385 . S
C1876 H1862 0.931 . S
C1876 C1875 1.385 . S
C1876 C1877 1.389 . S
C1877 C1876 1.389 . S
C1877 C1878 1.387 . S
C1878 H1863 0.930 . S
C1878 C1873 1.390 . S
C1878 C1877 1.387 . S
H1879 C1891 0.930 . S
H1880 C1893 0.930 . S
H1881 C1894 0.930 . S
H1882 C1898 0.959 . S
H1883 C1898 0.959 . S
H1884 C1898 0.961 . S
H1885 C1899 0.960 . S
H1886 C1899 0.961 . S
H1887 C1899 0.959 . S
H1888 C1902 0.929 . S
H1889 C1903 0.931 . S
H1890 C1905 0.930 . S
C1891 H1879 0.930 . S
C1891 C1892 1.399 . S
C1891 C1896 1.399 . S
C1892 C1891 1.399 . S
C1892 C1893 1.376 . S
C1893 H1880 0.930 . S
C1893 C1892 1.376 . S
C1893 C1894 1.388 . S
C1894 H1881 0.930 . S
C1894 C1893 1.388 . S
C1894 C1895 1.390 . S
C1895 C1894 1.390 . S
C1895 C1896 1.394 . S
C1895 C1901 1.465 . S
C1896 C1891 1.399 . S
C1896 C1895 1.394 . S
C1896 C1897 1.516 . S
C1897 C1896 1.516 . S
C1897 C1898 1.502 . S
C1897 C1899 1.561 . S
C1897 C1900 1.526 . S
C1898 H1882 0.959 . S
C1898 H1883 0.959 . S
C1898 H1884 0.961 . S
C1898 C1897 1.502 . S
C1899 H1885 0.960 . S
C1899 H1886 0.961 . S
C1899 H1887 0.959 . S
C1899 C1897 1.561 . S
C1900 C1897 1.526 . S
C1900 C1901 1.396 . S
C1900 C1905 1.390 . S
C1901 C1895 1.465 . S
C1901 C1900 1.396 . S
C1901 C1902 1.399 . S
C1902 H1888 0.929 . S
C1902 C1901 1.399 . S
C1902 C1903 1.385 . S
C1903 H1889 0.931 . S
C1903 C1902 1.385 . S
C1903 C1904 1.389 . S
C1904 C1903 1.389 . S
C1904 C1905 1.387 . S
C1905 H1890 0.930 . S
C1905 C1900 1.390 . S
C1905 C1904 1.387 . S
H1906 C1918 0.930 . S
H1907 C1920 0.930 . S
H1908 C1921 0.930 . S
H1909 C1925 0.959 . S
H1910 C1925 0.959 . S
H1911 C1925 0.961 . S
H1912 C1926 0.960 . S
H1913 C1926 0.961 . S
H1914 C1926 0.959 . S
H1915 C1929 0.929 . S
H1916 C1930 0.931 . S
H1917 C1932 0.930 . S
C1918 H1906 0.930 . S
C1918 C1919 1.399 . S
C1918 C1923 1.399 . S
C1919 C1918 1.399 . S
C1919 C1920 1.376 . S
C1920 H1907 0.930 . S
C1920 C1919 1.376 . S
C1920 C1921 1.388 . S
C1921 H1908 0.930 . S
C1921 C1920 1.388 . S
C1921 C1922 1.390 . S
C1922 C1921 1.390 . S
C1922 C1923 1.394 . S
C1922 C1928 1.465 . S
C1923 C1918 1.399 . S
C1923 C1922 1.394 . S
C1923 C1924 1.516 . S
C1924 C1923 1.516 . S
C1924 C1925 1.502 . S
C1924 C1926 1.561 . S
C1924 C1927 1.526 . S
C1925 H1909 0.959 . S
C1925 H1910 0.959 . S
C1925 H1911 0.961 . S
C1925 C1924 1.502 . S
C1926 H1912 0.960 . S
C1926 H1913 0.961 . S
C1926 H1914 0.959 . S
C1926 C1924 1.561 . S
C1927 C1924 1.526 . S
C1927 C1928 1.396 . S
C1927 C1932 1.390 . S
C1928 C1922 1.465 . S
C1928 C1927 1.396 . S
C1928 C1929 1.399 . S
C1929 H1915 0.929 . S
C1929 C1928 1.399 . S
C1929 C1930 1.385 . S
C1930 H1916 0.931 . S
C1930 C1929 1.385 . S
C1930 C1931 1.389 . S
C1931 C1930 1.389 . S
C1931 C1932 1.387 . S
C1932 H1917 0.930 . S
C1932 C1927 1.390 . S
C1932 C1931 1.387 . S
H1933 C1945 0.930 . S
H1934 C1947 0.930 . S
H1935 C1948 0.930 . S
H1936 C1952 0.959 . S
H1937 C1952 0.959 . S
H1938 C1952 0.961 . S
H1939 C1953 0.960 . S
H1940 C1953 0.961 . S
H1941 C1953 0.959 . S
H1942 C1956 0.929 . S
H1943 C1957 0.931 . S
H1944 C1959 0.930 . S
C1945 H1933 0.930 . S
C1945 C1946 1.399 . S
C1945 C1950 1.399 . S
C1946 C1945 1.399 . S
C1946 C1947 1.376 . S
C1947 H1934 0.930 . S
C1947 C1946 1.376 . S
C1947 C1948 1.388 . S
C1948 H1935 0.930 . S
C1948 C1947 1.388 . S
C1948 C1949 1.390 . S
C1949 C1948 1.390 . S
C1949 C1950 1.394 . S
C1949 C1955 1.465 . S
C1950 C1945 1.399 . S
C1950 C1949 1.394 . S
C1950 C1951 1.516 . S
C1951 C1950 1.516 . S
C1951 C1952 1.502 . S
C1951 C1953 1.561 . S
C1951 C1954 1.526 . S
C1952 H1936 0.959 . S
C1952 H1937 0.959 . S
C1952 H1938 0.961 . S
C1952 C1951 1.502 . S
C1953 H1939 0.960 . S
C1953 H1940 0.961 . S
C1953 H1941 0.959 . S
C1953 C1951 1.561 . S
C1954 C1951 1.526 . S
C1954 C1955 1.396 . S
C1954 C1959 1.390 . S
C1955 C1949 1.465 . S
C1955 C1954 1.396 . S
C1955 C1956 1.399 . S
C1956 H1942 0.929 . S
C1956 C1955 1.399 . S
C1956 C1957 1.385 . S
C1957 H1943 0.931 . S
C1957 C1956 1.385 . S
C1957 C1958 1.389 . S
C1958 C1957 1.389 . S
C1958 C1959 1.387 . S
C1959 H1944 0.930 . S
C1959 C1954 1.390 . S
C1959 C1958 1.387 . S
H1960 C1972 0.930 . S
H1961 C1974 0.930 . S
H1962 C1975 0.930 . S
H1963 C1979 0.959 . S
H1964 C1979 0.959 . S
H1965 C1979 0.961 . S
H1966 C1980 0.960 . S
H1967 C1980 0.961 . S
H1968 C1980 0.959 . S
H1969 C1983 0.929 . S
H1970 C1984 0.931 . S
H1971 C1986 0.930 . S
C1972 H1960 0.930 . S
C1972 C1973 1.399 . S
C1972 C1977 1.399 . S
C1973 C1972 1.399 . S
C1973 C1974 1.376 . S
C1974 H1961 0.930 . S
C1974 C1973 1.376 . S
C1974 C1975 1.388 . S
C1975 H1962 0.930 . S
C1975 C1974 1.388 . S
C1975 C1976 1.390 . S
C1976 C1975 1.390 . S
C1976 C1977 1.394 . S
C1976 C1982 1.465 . S
C1977 C1972 1.399 . S
C1977 C1976 1.394 . S
C1977 C1978 1.516 . S
C1978 C1977 1.516 . S
C1978 C1979 1.502 . S
C1978 C1980 1.561 . S
C1978 C1981 1.526 . S
C1979 H1963 0.959 . S
C1979 H1964 0.959 . S
C1979 H1965 0.961 . S
C1979 C1978 1.502 . S
C1980 H1966 0.960 . S
C1980 H1967 0.961 . S
C1980 H1968 0.959 . S
C1980 C1978 1.561 . S
C1981 C1978 1.526 . S
C1981 C1982 1.396 . S
C1981 C1986 1.390 . S
C1982 C1976 1.465 . S
C1982 C1981 1.396 . S
C1982 C1983 1.399 . S
C1983 H1969 0.929 . S
C1983 C1982 1.399 . S
C1983 C1984 1.385 . S
C1984 H1970 0.931 . S
C1984 C1983 1.385 . S
C1984 C1985 1.389 . S
C1985 C1984 1.389 . S
C1985 C1986 1.387 . S
C1986 H1971 0.930 . S
C1986 C1981 1.390 . S
C1986 C1985 1.387 . S
H1987 C1999 0.930 . S
H1988 C2001 0.930 . S
H1989 C2002 0.930 . S
H1990 C2006 0.959 . S
H1991 C2006 0.959 . S
H1992 C2006 0.961 . S
H1993 C2007 0.960 . S
H1994 C2007 0.961 . S
H1995 C2007 0.959 . S
H1996 C2010 0.929 . S
H1997 C2011 0.931 . S
H1998 C2013 0.930 . S
C1999 H1987 0.930 . S
C1999 C2000 1.399 . S
C1999 C2004 1.399 . S
C2000 C1999 1.399 . S
C2000 C2001 1.376 . S
C2001 H1988 0.930 . S
C2001 C2000 1.376 . S
C2001 C2002 1.388 . S
C2002 H1989 0.930 . S
C2002 C2001 1.388 . S
C2002 C2003 1.390 . S
C2003 C2002 1.390 . S
C2003 C2004 1.394 . S
C2003 C2009 1.465 . S
C2004 C1999 1.399 . S
C2004 C2003 1.394 . S
C2004 C2005 1.516 . S
C2005 C2004 1.516 . S
C2005 C2006 1.502 . S
C2005 C2007 1.561 . S
C2005 C2008 1.526 . S
C2006 H1990 0.959 . S
C2006 H1991 0.959 . S
C2006 H1992 0.961 . S
C2006 C2005 1.502 . S
C2007 H1993 0.960 . S
C2007 H1994 0.961 . S
C2007 H1995 0.959 . S
C2007 C2005 1.561 . S
C2008 C2005 1.526 . S
C2008 C2009 1.396 . S
C2008 C2013 1.390 . S
C2009 C2003 1.465 . S
C2009 C2008 1.396 . S
C2009 C2010 1.399 . S
C2010 H1996 0.929 . S
C2010 C2009 1.399 . S
C2010 C2011 1.385 . S
C2011 H1997 0.931 . S
C2011 C2010 1.385 . S
C2011 C2012 1.389 . S
C2012 C2011 1.389 . S
C2012 C2013 1.387 . S
C2013 H1998 0.930 . S
C2013 C2008 1.390 . S
C2013 C2012 1.387 . S
H2014 C2026 0.930 . S
H2015 C2028 0.930 . S
H2016 C2029 0.930 . S
H2017 C2033 0.959 . S
H2018 C2033 0.959 . S
H2019 C2033 0.961 . S
H2020 C2034 0.960 . S
H2021 C2034 0.961 . S
H2022 C2034 0.959 . S
H2023 C2037 0.929 . S
H2024 C2038 0.931 . S
H2025 C2040 0.930 . S
C2026 H2014 0.930 . S
C2026 C2027 1.399 . S
C2026 C2031 1.399 . S
C2027 C2026 1.399 . S
C2027 C2028 1.376 . S
C2028 H2015 0.930 . S
C2028 C2027 1.376 . S
C2028 C2029 1.388 . S
C2029 H2016 0.930 . S
C2029 C2028 1.388 . S
C2029 C2030 1.390 . S
C2030 C2029 1.390 . S
C2030 C2031 1.394 . S
C2030 C2036 1.465 . S
C2031 C2026 1.399 . S
C2031 C2030 1.394 . S
C2031 C2032 1.516 . S
C2032 C2031 1.516 . S
C2032 C2033 1.502 . S
C2032 C2034 1.561 . S
C2032 C2035 1.526 . S
C2033 H2017 0.959 . S
C2033 H2018 0.959 . S
C2033 H2019 0.961 . S
C2033 C2032 1.502 . S
C2034 H2020 0.960 . S
C2034 H2021 0.961 . S
C2034 H2022 0.959 . S
C2034 C2032 1.561 . S
C2035 C2032 1.526 . S
C2035 C2036 1.396 . S
C2035 C2040 1.390 . S
C2036 C2030 1.465 . S
C2036 C2035 1.396 . S
C2036 C2037 1.399 . S
C2037 H2023 0.929 . S
C2037 C2036 1.399 . S
C2037 C2038 1.385 . S
C2038 H2024 0.931 . S
C2038 C2037 1.385 . S
C2038 C2039 1.389 . S
C2039 C2038 1.389 . S
C2039 C2040 1.387 . S
C2040 H2025 0.930 . S
C2040 C2035 1.390 . S
C2040 C2039 1.387 . S
H2041 C2053 0.930 . S
H2042 C2055 0.930 . S
H2043 C2056 0.930 . S
H2044 C2060 0.959 . S
H2045 C2060 0.959 . S
H2046 C2060 0.961 . S
H2047 C2061 0.960 . S
H2048 C2061 0.961 . S
H2049 C2061 0.959 . S
H2050 C2064 0.929 . S
H2051 C2065 0.931 . S
H2052 C2067 0.930 . S
C2053 H2041 0.930 . S
C2053 C2054 1.399 . S
C2053 C2058 1.399 . S
C2054 C2053 1.399 . S
C2054 C2055 1.376 . S
C2055 H2042 0.930 . S
C2055 C2054 1.376 . S
C2055 C2056 1.388 . S
C2056 H2043 0.930 . S
C2056 C2055 1.388 . S
C2056 C2057 1.390 . S
C2057 C2056 1.390 . S
C2057 C2058 1.394 . S
C2057 C2063 1.465 . S
C2058 C2053 1.399 . S
C2058 C2057 1.394 . S
C2058 C2059 1.516 . S
C2059 C2058 1.516 . S
C2059 C2060 1.502 . S
C2059 C2061 1.561 . S
C2059 C2062 1.526 . S
C2060 H2044 0.959 . S
C2060 H2045 0.959 . S
C2060 H2046 0.961 . S
C2060 C2059 1.502 . S
C2061 H2047 0.960 . S
C2061 H2048 0.961 . S
C2061 H2049 0.959 . S
C2061 C2059 1.561 . S
C2062 C2059 1.526 . S
C2062 C2063 1.396 . S
C2062 C2067 1.390 . S
C2063 C2057 1.465 . S
C2063 C2062 1.396 . S
C2063 C2064 1.399 . S
C2064 H2050 0.929 . S
C2064 C2063 1.399 . S
C2064 C2065 1.385 . S
C2065 H2051 0.931 . S
C2065 C2064 1.385 . S
C2065 C2066 1.389 . S
C2066 C2065 1.389 . S
C2066 C2067 1.387 . S
C2067 H2052 0.930 . S
C2067 C2062 1.390 . S
C2067 C2066 1.387 . S
H2068 C2080 0.930 . S
H2069 C2082 0.930 . S
H2070 C2083 0.930 . S
H2071 C2087 0.959 . S
H2072 C2087 0.959 . S
H2073 C2087 0.961 . S
H2074 C2088 0.960 . S
H2075 C2088 0.961 . S
H2076 C2088 0.959 . S
H2077 C2091 0.929 . S
H2078 C2092 0.931 . S
H2079 C2094 0.930 . S
C2080 H2068 0.930 . S
C2080 C2081 1.399 . S
C2080 C2085 1.399 . S
C2081 C2080 1.399 . S
C2081 C2082 1.376 . S
C2082 H2069 0.930 . S
C2082 C2081 1.376 . S
C2082 C2083 1.388 . S
C2083 H2070 0.930 . S
C2083 C2082 1.388 . S
C2083 C2084 1.390 . S
C2084 C2083 1.390 . S
C2084 C2085 1.394 . S
C2084 C2090 1.465 . S
C2085 C2080 1.399 . S
C2085 C2084 1.394 . S
C2085 C2086 1.516 . S
C2086 C2085 1.516 . S
C2086 C2087 1.502 . S
C2086 C2088 1.561 . S
C2086 C2089 1.526 . S
C2087 H2071 0.959 . S
C2087 H2072 0.959 . S
C2087 H2073 0.961 . S
C2087 C2086 1.502 . S
C2088 H2074 0.960 . S
C2088 H2075 0.961 . S
C2088 H2076 0.959 . S
C2088 C2086 1.561 . S
C2089 C2086 1.526 . S
C2089 C2090 1.396 . S
C2089 C2094 1.390 . S
C2090 C2084 1.465 . S
C2090 C2089 1.396 . S
C2090 C2091 1.399 . S
C2091 H2077 0.929 . S
C2091 C2090 1.399 . S
C2091 C2092 1.385 . S
C2092 H2078 0.931 . S
C2092 C2091 1.385 . S
C2092 C2093 1.389 . S
C2093 C2092 1.389 . S
C2093 C2094 1.387 . S
C2094 H2079 0.930 . S
C2094 C2089 1.390 . S
C2094 C2093 1.387 . S
H2095 C2107 0.930 . S
H2096 C2109 0.930 . S
H2097 C2110 0.930 . S
H2098 C2114 0.959 . S
H2099 C2114 0.959 . S
H2100 C2114 0.961 . S
H2101 C2115 0.960 . S
H2102 C2115 0.961 . S
H2103 C2115 0.959 . S
H2104 C2118 0.929 . S
H2105 C2119 0.931 . S
H2106 C2121 0.930 . S
C2107 H2095 0.930 . S
C2107 C2108 1.399 . S
C2107 C2112 1.399 . S
C2108 C2107 1.399 . S
C2108 C2109 1.376 . S
C2109 H2096 0.930 . S
C2109 C2108 1.376 . S
C2109 C2110 1.388 . S
C2110 H2097 0.930 . S
C2110 C2109 1.388 . S
C2110 C2111 1.390 . S
C2111 C2110 1.390 . S
C2111 C2112 1.394 . S
C2111 C2117 1.465 . S
C2112 C2107 1.399 . S
C2112 C2111 1.394 . S
C2112 C2113 1.516 . S
C2113 C2112 1.516 . S
C2113 C2114 1.502 . S
C2113 C2115 1.561 . S
C2113 C2116 1.526 . S
C2114 H2098 0.959 . S
C2114 H2099 0.959 . S
C2114 H2100 0.961 . S
C2114 C2113 1.502 . S
C2115 H2101 0.960 . S
C2115 H2102 0.961 . S
C2115 H2103 0.959 . S
C2115 C2113 1.561 . S
C2116 C2113 1.526 . S
C2116 C2117 1.396 . S
C2116 C2121 1.390 . S
C2117 C2111 1.465 . S
C2117 C2116 1.396 . S
C2117 C2118 1.399 . S
C2118 H2104 0.929 . S
C2118 C2117 1.399 . S
C2118 C2119 1.385 . S
C2119 H2105 0.931 . S
C2119 C2118 1.385 . S
C2119 C2120 1.389 . S
C2120 C2119 1.389 . S
C2120 C2121 1.387 . S
C2121 H2106 0.930 . S
C2121 C2116 1.390 . S
C2121 C2120 1.387 . S
H2122 C2134 0.930 . S
H2123 C2136 0.930 . S
H2124 C2137 0.930 . S
H2125 C2141 0.959 . S
H2126 C2141 0.959 . S
H2127 C2141 0.961 . S
H2128 C2142 0.960 . S
H2129 C2142 0.961 . S
H2130 C2142 0.959 . S
H2131 C2145 0.929 . S
H2132 C2146 0.931 . S
H2133 C2148 0.930 . S
C2134 H2122 0.930 . S
C2134 C2135 1.399 . S
C2134 C2139 1.399 . S
C2135 C2134 1.399 . S
C2135 C2136 1.376 . S
C2136 H2123 0.930 . S
C2136 C2135 1.376 . S
C2136 C2137 1.388 . S
C2137 H2124 0.930 . S
C2137 C2136 1.388 . S
C2137 C2138 1.390 . S
C2138 C2137 1.390 . S
C2138 C2139 1.394 . S
C2138 C2144 1.465 . S
C2139 C2134 1.399 . S
C2139 C2138 1.394 . S
C2139 C2140 1.516 . S
C2140 C2139 1.516 . S
C2140 C2141 1.502 . S
C2140 C2142 1.561 . S
C2140 C2143 1.526 . S
C2141 H2125 0.959 . S
C2141 H2126 0.959 . S
C2141 H2127 0.961 . S
C2141 C2140 1.502 . S
C2142 H2128 0.960 . S
C2142 H2129 0.961 . S
C2142 H2130 0.959 . S
C2142 C2140 1.561 . S
C2143 C2140 1.526 . S
C2143 C2144 1.396 . S
C2143 C2148 1.390 . S
C2144 C2138 1.465 . S
C2144 C2143 1.396 . S
C2144 C2145 1.399 . S
C2145 H2131 0.929 . S
C2145 C2144 1.399 . S
C2145 C2146 1.385 . S
C2146 H2132 0.931 . S
C2146 C2145 1.385 . S
C2146 C2147 1.389 . S
C2147 C2146 1.389 . S
C2147 C2148 1.387 . S
C2148 H2133 0.930 . S
C2148 C2143 1.390 . S
C2148 C2147 1.387 . S
H2149 C2161 0.930 . S
H2150 C2163 0.930 . S
H2151 C2164 0.930 . S
H2152 C2168 0.959 . S
H2153 C2168 0.959 . S
H2154 C2168 0.961 . S
H2155 C2169 0.960 . S
H2156 C2169 0.961 . S
H2157 C2169 0.959 . S
H2158 C2172 0.929 . S
H2159 C2173 0.931 . S
H2160 C2175 0.930 . S
C2161 H2149 0.930 . S
C2161 C2162 1.399 . S
C2161 C2166 1.399 . S
C2162 C2161 1.399 . S
C2162 C2163 1.376 . S
C2163 H2150 0.930 . S
C2163 C2162 1.376 . S
C2163 C2164 1.388 . S
C2164 H2151 0.930 . S
C2164 C2163 1.388 . S
C2164 C2165 1.390 . S
C2165 C2164 1.390 . S
C2165 C2166 1.394 . S
C2165 C2171 1.465 . S
C2166 C2161 1.399 . S
C2166 C2165 1.394 . S
C2166 C2167 1.516 . S
C2167 C2166 1.516 . S
C2167 C2168 1.502 . S
C2167 C2169 1.561 . S
C2167 C2170 1.526 . S
C2168 H2152 0.959 . S
C2168 H2153 0.959 . S
C2168 H2154 0.961 . S
C2168 C2167 1.502 . S
C2169 H2155 0.960 . S
C2169 H2156 0.961 . S
C2169 H2157 0.959 . S
C2169 C2167 1.561 . S
C2170 C2167 1.526 . S
C2170 C2171 1.396 . S
C2170 C2175 1.390 . S
C2171 C2165 1.465 . S
C2171 C2170 1.396 . S
C2171 C2172 1.399 . S
C2172 H2158 0.929 . S
C2172 C2171 1.399 . S
C2172 C2173 1.385 . S
C2173 H2159 0.931 . S
C2173 C2172 1.385 . S
C2173 C2174 1.389 . S
C2174 C2173 1.389 . S
C2174 C2175 1.387 . S
C2175 H2160 0.930 . S
C2175 C2170 1.390 . S
C2175 C2174 1.387 . S
C461 C46 0.731 . S
C473 C4 0.786 . S
C488 C32 0.781 . S
C500 C18 0.772 . S
C515 C102 0.787 . S
C527 C60 0.767 . S
C542 C88 0.667 . S
C554 C74 0.694 . S
C569 C116 0.752 . S
C581 C158 0.788 . S
C596 C130 0.691 . S
C608 C144 0.668 . S
C623 C214 0.789 . S
C635 C172 0.772 . S
C650 C186 0.784 . S
C662 C200 0.758 . S
C677 C228 0.780 . S
C689 C270 0.775 . S
C704 C242 0.713 . S
C716 C256 0.665 . S
C731 C326 0.665 . S
C743 C284 0.686 . S
C758 C312 0.668 . S
C770 C298 0.696 . S
C785 C382 0.712 . S
C797 C340 0.665 . S
C812 C354 0.734 . S
C824 C368 0.786 . S
C839 C396 0.787 . S
C851 C438 0.765 . S
C866 C410 0.788 . S
C878 C424 0.768 . S
C893 C285 1.348 . S
C905 C5 1.286 . S
C920 C187 1.356 . S
C932 C19 1.281 . S
C947 C33 1.328 . S
C959 C425 1.326 . S
C974 C47 1.339 . S
C986 C103 1.292 . S
C1001 C229 1.350 . S
C1013 C61 1.285 . S
C1028 C131 1.291 . S
C1040 C75 1.356 . S
C1055 C369 1.285 . S
C1067 C89 1.358 . S
C1082 C117 1.356 . S
C1094 C397 1.281 . S
C1109 C313 1.358 . S
C1121 C145 1.287 . S
C1136 C215 1.325 . S
C1148 C159 1.327 . S
C1163 C341 1.359 . S
C1175 C173 1.285 . S
C1190 C201 1.358 . S
C1202 C257 1.287 . S
C1217 C411 1.341 . S
C1229 C243 1.291 . S
C1244 C271 1.280 . S
C1256 C327 1.359 . S
C1271 C355 1.351 . S
C1283 C299 1.284 . S
C1298 C439 1.332 . S
C1310 C383 1.299 . S
C1325 C26 1.273 . S
C1337 C12 1.322 . S
C1352 C40 1.275 . S
C1364 C54 1.320 . S
C1379 C68 1.259 . S
C1391 C82 1.314 . S
C1406 C110 1.263 . S
C1418 C96 1.320 . S
C1433 C124 1.315 . S
C1445 C138 1.285 . S
C1460 C152 1.311 . S
C1472 C166 1.262 . S
C1487 C194 1.319 . S
C1499 C180 1.262 . S
C1514 C208 1.322 . S
C1526 C222 1.293 . S
C1541 C236 1.305 . S
C1553 C250 1.265 . S
C1568 C264 1.266 . S
C1580 C278 1.324 . S
C1595 C292 1.258 . S
C1607 C306 1.299 . S
C1622 C334 1.298 . S
C1634 C320 1.319 . S
C1649 C362 1.284 . S
C1661 C348 1.314 . S
C1676 C376 1.274 . S
C1688 C390 1.321 . S
C1703 C404 1.323 . S
C1715 C418 1.292 . S
C1730 C446 1.269 . S
C1742 C432 1.278 . S
C1757 C11 1.481 1_655 S
C1769 C277 1.486 . S
C1784 C25 1.451 . S
C1796 C263 1.438 . S
C1811 C249 1.479 . S
C1823 C39 1.485 1_655 S
C1838 C53 1.425 . S
C1850 C235 1.425 . S
C1865 C333 1.466 . S
C1877 C67 1.471 1_455 S
C1892 C81 1.470 . S
C1904 C319 1.474 . S
C1919 C305 1.467 . S
C1931 C95 1.471 1_455 S
C1946 C109 1.476 . S
C1958 C291 1.479 . S
C1973 C123 1.439 1_655 S
C1985 C389 1.429 . S
C2000 C137 1.477 . S
C2012 C375 1.484 . S
C2027 C151 1.476 1_655 S
C2039 C361 1.484 . S
C2054 C347 1.429 . S
C2066 C165 1.425 . S
C2081 C179 1.486 1_455 S
C2093 C445 1.485 . S
C2108 C193 1.477 . S
C2120 C431 1.480 . S
C2135 C207 1.429 1_455 S
C2147 C417 1.428 . S
C2162 C403 1.468 . S
C2174 C221 1.472 . S
