# Generated by pormake.
# Topology vby, (6)-cn, num edge types: 1
# Building blocks:
#     Node 0, Type 0, BuildingBlock: UKALOJ_clean_sbu_0, # of connection points: 6
#     Node 1, Type 0, BuildingBlock: UKALOJ_clean_sbu_0, # of connection points: 6
#     Node 2, Type 0, BuildingBlock: UKALOJ_clean_sbu_0, # of connection points: 6
#     Node 3, Type 0, BuildingBlock: UKALOJ_clean_sbu_0, # of connection points: 6
#     Node 4, Type 0, BuildingBlock: UKALOJ_clean_sbu_0, # of connection points: 6
#     Node 5, Type 0, BuildingBlock: UKALOJ_clean_sbu_0, # of connection points: 6
#     Node 6, Type 0, BuildingBlock: UKALOJ_clean_sbu_0, # of connection points: 6
#     Node 7, Type 0, BuildingBlock: UKALOJ_clean_sbu_0, # of connection points: 6
#     Edge 8, Type (0, 0), BuildingBlock: OJICUG_clean_linker_0, # of connection points: 2
#     Edge 9, Type (0, 0), BuildingBlock: OJICUG_clean_linker_0, # of connection points: 2
#     Edge 10, Type (0, 0), BuildingBlock: OJICUG_clean_linker_0, # of connection points: 2
#     Edge 11, Type (0, 0), BuildingBlock: OJICUG_clean_linker_0, # of connection points: 2
#     Edge 12, Type (0, 0), BuildingBlock: OJICUG_clean_linker_0, # of connection points: 2
#     Edge 13, Type (0, 0), BuildingBlock: OJICUG_clean_linker_0, # of connection points: 2
#     Edge 14, Type (0, 0), BuildingBlock: OJICUG_clean_linker_0, # of connection points: 2
#     Edge 15, Type (0, 0), BuildingBlock: OJICUG_clean_linker_0, # of connection points: 2
#     Edge 16, Type (0, 0), BuildingBlock: OJICUG_clean_linker_0, # of connection points: 2
#     Edge 17, Type (0, 0), BuildingBlock: OJICUG_clean_linker_0, # of connection points: 2
#     Edge 18, Type (0, 0), BuildingBlock: OJICUG_clean_linker_0, # of connection points: 2
#     Edge 19, Type (0, 0), BuildingBlock: OJICUG_clean_linker_0, # of connection points: 2
#     Edge 20, Type (0, 0), BuildingBlock: OJICUG_clean_linker_0, # of connection points: 2
#     Edge 21, Type (0, 0), BuildingBlock: OJICUG_clean_linker_0, # of connection points: 2
#     Edge 22, Type (0, 0), BuildingBlock: OJICUG_clean_linker_0, # of connection points: 2
#     Edge 23, Type (0, 0), BuildingBlock: OJICUG_clean_linker_0, # of connection points: 2
#     Edge 24, Type (0, 0), BuildingBlock: OJICUG_clean_linker_0, # of connection points: 2
#     Edge 25, Type (0, 0), BuildingBlock: OJICUG_clean_linker_0, # of connection points: 2
#     Edge 26, Type (0, 0), BuildingBlock: OJICUG_clean_linker_0, # of connection points: 2
#     Edge 27, Type (0, 0), BuildingBlock: OJICUG_clean_linker_0, # of connection points: 2
#     Edge 28, Type (0, 0), BuildingBlock: OJICUG_clean_linker_0, # of connection points: 2
#     Edge 29, Type (0, 0), BuildingBlock: OJICUG_clean_linker_0, # of connection points: 2
#     Edge 30, Type (0, 0), BuildingBlock: OJICUG_clean_linker_0, # of connection points: 2
#     Edge 31, Type (0, 0), BuildingBlock: OJICUG_clean_linker_0, # of connection points: 2
# Relax obj value: 0.065
# Max RMSD: 0.108
# Mean RMSD: 0.108
data_MOF--net-vby--node1-UKALOJ_clean_sbu_0--edge1-OJICUG_clean_linker_0
_symmetry_space_group_name_H-M    P1
_symmetry_Int_Tables_number       1
_symmetry_cell_setting            triclinic
loop_
_symmetry_equiv_pos_as_xyz
'x, y, z'
_cell_length_a     11.205534
_cell_length_b     42.734484
_cell_length_c     32.295977
_cell_angle_alpha  89.997934
_cell_angle_beta   89.998671
_cell_angle_gamma 90.004219
loop_
_atom_site_label
_atom_site_type_symbol
_atom_site_fract_x
_atom_site_fract_y
_atom_site_fract_z
_atom_type_partial_charge
Zn0 Zn 0.04894 0.36483 0.99223 0.0
O1 O 0.23609 0.37076 0.98965 0.0
C2 C 0.09214 0.30103 1.01275 0.0
Zn3 Zn 0.04771 0.36174 0.06125 0.0
C4 C 0.29197 0.36991 0.02404 0.0
O5 O 0.23376 0.36774 0.05774 0.0
C6 C 0.80451 0.35639 0.02912 0.0
O7 O 0.02425 0.40983 0.07359 0.0
O8 O 0.02623 0.41281 1.0059 0.0
N9 N 0.06387 0.3517 0.12311 0.0
C10 C 0.0078 0.36176 0.15766 0.0
C11 C 0.13118 0.32642 0.17601 0.0
N12 N 0.14083 0.32989 0.13475 0.0
N13 N 0.04878 0.34625 0.1913 0.0
C14 C 0.04548 0.36489 0.89289 0.0
C15 C 0.92874 0.40388 0.88556 0.0
N16 N 0.02097 0.37603 0.93116 0.0
N17 N 0.9482 0.40012 0.92616 0.0
N18 N -0.01213 0.38204 0.86365 0.0
H19 H 0.19352 0.3357 0.91021 0.0
H20 H 0.1753 0.3414 0.85483 0.0
H21 H 0.07497 0.31616 0.8829 0.0
C22 C 0.12787 0.33807 0.88467 0.0
C23 C 0.90943 0.38551 0.1581 0.0
H24 H 0.86801 0.38806 0.12721 0.0
H25 H 0.94693 0.40854 0.16719 0.0
H26 H 0.84015 0.37893 0.18106 0.0
O27 O 0.86038 0.35556 0.06333 0.0
O28 O 0.86302 0.35873 0.99567 0.0
C29 C 0.01723 0.42616 0.04088 0.0
O30 O 0.07656 0.31702 0.97997 0.0
O31 O 0.07625 0.31386 0.04791 0.0
Zn32 Zn 0.89713 0.62359 0.06111 0.0
O33 O 0.92058 0.57552 0.07348 0.0
C34 C 0.14033 0.62894 0.02897 0.0
Zn35 Zn 0.89591 0.62047 0.99209 0.0
C36 C 0.92765 0.55917 0.04079 0.0
O37 O 0.91867 0.57249 1.00579 0.0
C38 C 0.85264 0.68428 1.01258 0.0
O39 O 0.70875 0.61453 0.98953 0.0
O40 O 0.71107 0.6176 0.0576 0.0
N41 N 0.92386 0.60926 0.93102 0.0
C42 C 0.89936 0.6204 0.89275 0.0
C43 C 0.01606 0.5814 0.88544 0.0
N44 N -0.00339 0.58516 0.92603 0.0
N45 N 0.95696 0.60324 0.86352 0.0
C46 C 0.93703 0.62357 0.15751 0.0
C47 C 0.81375 0.65892 0.17588 0.0
N48 N 0.881 0.63365 0.12297 0.0
N49 N 0.80411 0.65547 0.13461 0.0
N50 N 0.89609 0.63908 0.19116 0.0
H51 H 0.07685 0.59727 0.12707 0.0
H52 H -0.00226 0.57677 0.16698 0.0
H53 H 0.10456 0.60633 0.18094 0.0
C54 C 0.03534 0.59979 0.15794 0.0
C55 C 0.817 0.64722 0.88452 0.0
H56 H 0.75133 0.64959 0.91006 0.0
H57 H 0.76959 0.6439 0.85468 0.0
H58 H 0.86991 0.66913 0.88275 0.0
O59 O 0.86822 0.66829 0.97981 0.0
O60 O 0.86858 0.67146 0.04774 0.0
C61 C 0.65287 0.6154 0.02391 0.0
O62 O 0.08446 0.62977 0.06317 0.0
O63 O 0.08183 0.62659 0.99552 0.0
Zn64 Zn 0.04833 0.62351 0.48953 0.0
O65 O 0.02475 0.57542 0.47718 0.0
C66 C 0.80513 0.62886 0.52167 0.0
Zn67 Zn 0.04954 0.6204 0.55855 0.0
C68 C 0.01768 0.55909 0.50988 0.0
O69 O 0.02673 0.57242 0.54487 0.0
C70 C 0.09289 0.6842 0.53804 0.0
O71 O 0.2367 0.61446 0.56111 0.0
O72 O 0.23438 0.61749 0.49303 0.0
N73 N 0.02159 0.6092 0.61962 0.0
C74 C 0.0461 0.62035 0.65788 0.0
C75 C 0.92939 0.58135 0.66523 0.0
N76 N 0.94884 0.5851 0.62463 0.0
N77 N -0.01151 0.6032 0.68713 0.0
C78 C 0.00842 0.6235 0.39312 0.0
C79 C 0.13187 0.65882 0.37477 0.0
N80 N 0.06451 0.63355 0.42767 0.0
N81 N 0.1415 0.65535 0.41603 0.0
N82 N 0.04943 0.63901 0.35948 0.0
H83 H 0.86856 0.59721 0.42356 0.0
H84 H 0.94747 0.57672 0.38359 0.0
H85 H 0.84076 0.60634 0.36971 0.0
C86 C 0.91 0.59975 0.39268 0.0
C87 C 0.12847 0.64718 0.66609 0.0
H88 H 0.19415 0.64954 0.64056 0.0
H89 H 0.17587 0.64387 0.69594 0.0
H90 H 0.07556 0.66908 0.66784 0.0
O91 O 0.07724 0.66821 0.57082 0.0
O92 O 0.07699 0.67138 0.50288 0.0
C93 C 0.29258 0.61531 0.52673 0.0
O94 O 0.86101 0.6297 0.48746 0.0
O95 O 0.86363 0.62651 0.55511 0.0
Zn96 Zn 0.89528 0.36483 0.55869 0.0
O97 O 0.70813 0.37077 0.56125 0.0
C98 C 0.85189 0.30102 0.53822 0.0
Zn99 Zn 0.8965 0.36169 0.48967 0.0
C100 C 0.65225 0.3699 0.52686 0.0
O101 O 0.71045 0.36771 0.49317 0.0
C102 C 0.1397 0.35634 0.52182 0.0
O103 O 0.92008 0.40977 0.47729 0.0
O104 O 0.91814 0.4128 0.54498 0.0
N105 N 0.88037 0.35163 0.42781 0.0
C106 C 0.93642 0.3617 0.39327 0.0
C107 C 0.81308 0.32636 0.37491 0.0
N108 N 0.80344 0.32982 0.41618 0.0
N109 N 0.89545 0.3462 0.35963 0.0
C110 C 0.89873 0.36489 0.65802 0.0
C111 C 0.01538 0.4039 0.66535 0.0
N112 N 0.92321 0.37605 0.61976 0.0
N113 N -0.00407 0.40015 0.62476 0.0
N114 N 0.95631 0.38205 0.68726 0.0
H115 H 0.7507 0.33569 0.64072 0.0
H116 H 0.76902 0.34137 0.6961 0.0
H117 H 0.86933 0.31616 0.66799 0.0
C118 C 0.8164 0.33806 0.66625 0.0
C119 C 0.03477 0.38547 0.39283 0.0
H120 H 0.0763 0.38798 0.4237 0.0
H121 H -0.0028 0.4085 0.3838 0.0
H122 H 0.10397 0.37893 0.36983 0.0
O123 O 0.08383 0.35549 0.48762 0.0
O124 O 0.0812 0.3587 0.55526 0.0
C125 C 0.92718 0.42612 0.50998 0.0
O126 O 0.86753 0.31702 0.57099 0.0
O127 O 0.86784 0.31383 0.50305 0.0
Zn128 Zn 0.54941 0.86485 0.99216 0.0
O129 O 0.73656 0.8708 0.9896 0.0
C130 C 0.59279 0.80105 1.01263 0.0
Zn131 Zn 0.54819 0.86172 0.06117 0.0
C132 C 0.79245 0.86994 0.02398 0.0
O133 O 0.73424 0.86774 0.05768 0.0
C134 C 0.30498 0.85636 0.02902 0.0
O135 O 0.52461 0.90979 0.07355 0.0
O136 O 0.52655 0.91283 1.00587 0.0
N137 N 0.56431 0.85165 0.12303 0.0
C138 C 0.50825 0.86172 0.15758 0.0
C139 C 0.6316 0.82638 0.17594 0.0
N140 N 0.64124 0.82984 0.13467 0.0
N141 N 0.54921 0.84621 0.19122 0.0
C142 C 0.54594 0.86491 0.89282 0.0
C143 C 0.42937 0.90393 0.88548 0.0
N144 N 0.52149 0.87607 0.93108 0.0
N145 N 0.44882 0.90018 0.92608 0.0
N146 N 0.48839 0.88207 0.86358 0.0
H147 H 0.69394 0.83571 0.91013 0.0
H148 H 0.67558 0.84136 0.85475 0.0
H149 H 0.57525 0.81617 0.88289 0.0
C150 C 0.62822 0.83807 0.88461 0.0
C151 C 0.4099 0.88549 0.15801 0.0
H152 H 0.36838 0.888 0.12714 0.0
H153 H 0.44746 0.90851 0.16705 0.0
H154 H 0.34069 0.87893 0.18101 0.0
O155 O 0.36086 0.85551 0.06323 0.0
O156 O 0.36349 0.85873 0.99558 0.0
C157 C 0.51751 0.92614 0.04087 0.0
O158 O 0.57715 0.81704 0.97986 0.0
O159 O 0.57685 0.81385 0.0478 0.0
Zn160 Zn 0.3962 0.12352 0.06132 0.0
O161 O 0.41978 0.07544 0.07367 0.0
C162 C 0.63941 0.12889 0.02918 0.0
Zn163 Zn 0.39499 0.12042 0.9923 0.0
C164 C 0.42685 0.0591 0.04096 0.0
O165 O 0.4178 0.07244 1.00598 0.0
C166 C 0.35165 0.18421 1.0128 0.0
O167 O 0.20783 0.11448 0.98973 0.0
O168 O 0.21015 0.1175 0.05781 0.0
N169 N 0.42294 0.10922 0.93122 0.0
C170 C 0.39842 0.12037 0.89296 0.0
C171 C 0.51516 0.08138 0.88563 0.0
N172 N 0.49572 0.08513 0.92622 0.0
N173 N 0.45603 0.10322 0.86372 0.0
C174 C 0.43611 0.12351 0.15772 0.0
C175 C 0.31268 0.15883 0.17608 0.0
N176 N 0.38003 0.13357 0.12318 0.0
N177 N 0.30305 0.15536 0.13481 0.0
N178 N 0.39511 0.13902 0.19137 0.0
H179 H 0.57597 0.09723 0.12728 0.0
H180 H 0.49704 0.07673 0.16725 0.0
H181 H 0.60377 0.10634 0.18113 0.0
C182 C 0.53452 0.09976 0.15817 0.0
C183 C 0.31603 0.14718 0.88474 0.0
H184 H 0.25036 0.14955 0.91028 0.0
H185 H 0.26861 0.14386 0.8549 0.0
H186 H 0.36892 0.16909 0.88298 0.0
O187 O 0.3673 0.16823 0.98003 0.0
O188 O 0.36755 0.17139 0.04796 0.0
C189 C 0.15194 0.11532 0.02411 0.0
O190 O 0.58353 0.12972 0.06338 0.0
O191 O 0.58091 0.12654 0.99573 0.0
Zn192 Zn 0.54743 0.12358 0.48974 0.0
O193 O 0.52397 0.0755 0.47737 0.0
C194 C 0.30423 0.12891 0.52188 0.0
Zn195 Zn 0.54865 0.12045 0.55875 0.0
C196 C 0.51691 0.05915 0.51006 0.0
O197 O 0.52588 0.07247 0.54505 0.0
C198 C 0.59194 0.18426 0.53826 0.0
O199 O 0.7358 0.11452 0.56132 0.0
O200 O 0.73349 0.11758 0.49324 0.0
N201 N 0.52071 0.10923 0.61982 0.0
C202 C 0.54518 0.12038 0.65809 0.0
C203 C 0.42852 0.08137 0.66542 0.0
N204 N 0.44798 0.08513 0.62482 0.0
N205 N 0.48759 0.10322 0.68733 0.0
C206 C 0.50753 0.12356 0.39333 0.0
C207 C 0.63082 0.15891 0.37497 0.0
N208 N 0.56357 0.13364 0.42788 0.0
N209 N 0.64047 0.15546 0.41624 0.0
N210 N 0.54847 0.13907 0.35969 0.0
H211 H 0.3677 0.09726 0.42378 0.0
H212 H 0.44679 0.07676 0.38386 0.0
H213 H 0.33998 0.10632 0.36991 0.0
C214 C 0.40921 0.09978 0.3929 0.0
C215 C 0.62751 0.14722 0.66632 0.0
H216 H 0.69319 0.14959 0.64078 0.0
H217 H 0.6749 0.1439 0.69616 0.0
H218 H 0.57457 0.16912 0.66807 0.0
O219 O 0.57635 0.16827 0.57104 0.0
O220 O 0.576 0.17144 0.5031 0.0
C221 C 0.79169 0.11539 0.52694 0.0
O222 O 0.36011 0.12976 0.48767 0.0
O223 O 0.36274 0.12656 0.55532 0.0
Zn224 Zn 0.3957 0.86481 0.55862 0.0
O225 O 0.20855 0.87073 0.56119 0.0
C226 C 0.35248 0.80101 0.53809 0.0
Zn227 Zn 0.39693 0.86172 0.48959 0.0
C228 C 0.15268 0.86988 0.52681 0.0
O229 O 0.21088 0.86771 0.49311 0.0
C230 C 0.64013 0.85637 0.52173 0.0
O231 O 0.4204 0.9098 0.47725 0.0
O232 O 0.41843 0.91279 0.54494 0.0
N233 N 0.38077 0.85168 0.42773 0.0
C234 C 0.43683 0.86174 0.39319 0.0
C235 C 0.31345 0.82641 0.37483 0.0
N236 N 0.30381 0.82987 0.4161 0.0
N237 N 0.39586 0.84623 0.35954 0.0
C238 C 0.39916 0.86487 0.65796 0.0
C239 C 0.51596 0.90385 0.66527 0.0
N240 N 0.42368 0.87601 0.61969 0.0
N241 N 0.4965 0.90009 0.62468 0.0
N242 N 0.45679 0.88202 0.68719 0.0
H243 H 0.2511 0.83568 0.64064 0.0
H244 H 0.26929 0.8414 0.69602 0.0
H245 H 0.36961 0.81615 0.66797 0.0
C246 C 0.31674 0.83806 0.66619 0.0
C247 C 0.53521 0.88551 0.39275 0.0
H248 H 0.57664 0.88805 0.42363 0.0
H249 H 0.49769 0.90853 0.38366 0.0
H250 H 0.60447 0.87893 0.36978 0.0
O251 O 0.58426 0.85554 0.48752 0.0
O252 O 0.58162 0.85871 0.55517 0.0
C253 C 0.42742 0.92613 0.50996 0.0
O254 O 0.36807 0.81699 0.57087 0.0
O255 O 0.36838 0.81384 0.50294 0.0
C256 C 0.48975 0.3656 0.98839 0.0
C257 C 0.4236 0.36779 0.02518 0.0
H258 H 0.66156 0.35964 0.9608 0.0
C259 C 0.48345 0.3652 0.06336 0.0
H260 H 0.44627 0.36713 0.95851 0.0
C261 C 0.60672 0.36054 0.06472 0.0
C262 C 0.67289 0.35838 0.02794 0.0
H263 H 0.435 0.36651 0.09233 0.0
H264 H 0.65023 0.35901 0.09461 0.0
C265 C 0.61305 0.36095 0.98976 0.0
C266 C 0.33811 0.6248 0.06458 0.0
C267 C 0.27195 0.62694 0.02779 0.0
H268 H 0.50982 0.61884 0.09219 0.0
C269 C 0.3318 0.62436 0.98962 0.0
H270 H 0.2946 0.62635 0.09447 0.0
C271 C 0.4551 0.6197 0.98826 0.0
C272 C 0.52124 0.61752 0.02504 0.0
H273 H 0.2833 0.62565 0.96065 0.0
H274 H 0.49859 0.61815 0.95837 0.0
C275 C 0.46138 0.62014 0.06322 0.0
C276 C 0.60736 0.62471 0.48606 0.0
C277 C 0.6735 0.62687 0.52284 0.0
H278 H 0.43564 0.61872 0.45844 0.0
C279 C 0.61365 0.62429 0.56102 0.0
H280 H 0.65087 0.62625 0.45617 0.0
C281 C 0.49036 0.61963 0.56238 0.0
C282 C 0.42421 0.61743 0.5256 0.0
H283 H 0.66215 0.62559 0.58998 0.0
H284 H 0.44686 0.61809 0.59227 0.0
C285 C 0.48408 0.62004 0.48742 0.0
C286 C 0.45447 0.3656 0.56252 0.0
C287 C 0.52062 0.36778 0.52573 0.0
H288 H 0.28268 0.35964 0.59013 0.0
C289 C 0.46075 0.36515 0.48756 0.0
H290 H 0.49797 0.36716 0.59241 0.0
C291 C 0.33748 0.36048 0.4862 0.0
C292 C 0.27133 0.35834 0.52299 0.0
H293 H 0.50919 0.36645 0.45858 0.0
H294 H 0.29397 0.35893 0.45632 0.0
C295 C 0.33118 0.36093 0.56117 0.0
C296 C -0.01606 0.86518 0.06329 0.0
C297 C 0.92408 0.86781 0.02511 0.0
H298 H 0.15072 0.85895 0.09453 0.0
C299 C -0.00978 0.86563 0.98832 0.0
H300 H 0.93551 0.86648 0.09226 0.0
C301 C 0.11351 0.86096 0.98968 0.0
C302 C 0.17336 0.85836 0.02785 0.0
H303 H 0.94672 0.86719 0.95844 0.0
H304 H 0.16201 0.85967 0.96071 0.0
C305 C 0.10721 0.8605 0.06464 0.0
C306 C 0.96045 0.12005 0.06343 0.0
C307 C 0.02031 0.11745 0.02525 0.0
H308 H 0.79367 0.12626 0.09468 0.0
C309 C 0.95417 0.11965 0.98846 0.0
H310 H 0.00889 0.11874 0.0924 0.0
C311 C 0.83088 0.12431 0.98983 0.0
C312 C 0.77103 0.12689 0.02801 0.0
H313 H -0.00233 0.11811 0.95858 0.0
H314 H 0.78238 0.12562 0.96086 0.0
C315 C 0.83718 0.12473 0.06479 0.0
C316 C 0.10646 0.12479 0.48627 0.0
C317 C 0.17261 0.12692 0.52305 0.0
H318 H 0.93474 0.11882 0.45865 0.0
C319 C 0.11276 0.12433 0.56123 0.0
H320 H 0.14997 0.12633 0.45638 0.0
C321 C -0.01054 0.11968 0.56259 0.0
C322 C 0.92331 0.11751 0.5258 0.0
H323 H 0.16127 0.12562 0.59019 0.0
H324 H 0.94596 0.11813 0.59247 0.0
C325 C -0.01682 0.12012 0.48763 0.0
C326 C 0.83159 0.86092 0.56108 0.0
C327 C 0.77175 0.85836 0.5229 0.0
H328 H -0.00163 0.8671 0.59234 0.0
C329 C 0.83792 0.86052 0.48612 0.0
H330 H 0.78307 0.85962 0.59005 0.0
C331 C 0.9612 0.86517 0.48749 0.0
C332 C 0.02105 0.86777 0.52567 0.0
H333 H 0.79442 0.85899 0.45623 0.0
H334 H 0.00965 0.86649 0.45852 0.0
C335 C 0.95489 0.86557 0.56245 0.0
C336 C 0.96109 0.50861 1.00486 0.0
C337 C 0.94943 0.52511 0.04224 0.0
H338 H -0.00794 0.46495 0.97529 0.0
C339 C 0.96108 0.50882 0.07988 0.0
H340 H 0.95301 0.52033 0.97525 0.0
C341 C -0.01626 0.47653 0.0799 0.0
C342 C -0.00453 0.46022 0.04228 0.0
H343 H 0.95283 0.52098 0.10917 0.0
H344 H -0.00809 0.46439 0.10921 0.0
C345 C -0.01609 0.47669 1.00488 0.0
C346 C 0.96095 0.47666 0.5459 0.0
C347 C 0.94917 0.46017 0.50853 0.0
H348 H -0.00775 0.5203 0.57547 0.0
C349 C 0.96095 0.47645 0.47088 0.0
H350 H 0.95277 0.46494 0.57551 0.0
C351 C -0.01614 0.50873 0.47086 0.0
C352 C -0.00429 0.52503 0.50848 0.0
H353 H 0.95263 0.4643 0.44159 0.0
H354 H -0.00788 0.52086 0.44155 0.0
C355 C -0.01598 0.50856 0.54588 0.0
C356 C 0.48369 0.97669 1.00494 0.0
C357 C 0.49549 0.96019 0.04232 0.0
H358 H 0.45233 0.02033 0.97537 0.0
C359 C 0.48368 0.97647 0.07996 0.0
H360 H 0.49189 0.96497 0.97533 0.0
C361 C 0.46073 0.00875 0.07998 0.0
C362 C 0.44885 0.02505 0.04237 0.0
H363 H 0.49202 0.96432 0.10925 0.0
H364 H 0.45244 0.02088 0.10929 0.0
C365 C 0.46058 0.00859 1.00497 0.0
C366 C 0.4835 0.00859 0.54598 0.0
C367 C 0.49514 0.02509 0.50861 0.0
H368 H 0.45257 0.96493 0.57556 0.0
C369 C 0.48351 0.0088 0.47096 0.0
H370 H 0.49158 0.02031 0.5756 0.0
C371 C 0.46088 0.97651 0.47094 0.0
C372 C 0.44916 0.9602 0.50856 0.0
H373 H 0.49174 0.02096 0.44167 0.0
H374 H 0.45271 0.96438 0.44163 0.0
C375 C 0.46071 0.97667 0.54596 0.0
C376 C 0.18652 0.25599 0.04871 0.0
C377 C 0.15105 0.27003 1.01135 0.0
H378 H 0.28132 0.2192 0.07835 0.0
C379 C 0.18719 0.2563 0.97376 0.0
H380 H 0.162 0.26601 0.07833 0.0
C381 C 0.25674 0.22895 0.97377 0.0
C382 C 0.29267 0.21521 1.01138 0.0
H383 H 0.16296 0.26683 0.94443 0.0
H384 H 0.28115 0.21843 0.94446 0.0
C385 C 0.25698 0.22923 0.04873 0.0
C386 C 0.68758 0.75605 0.04854 0.0
C387 C 0.65185 0.77006 1.01119 0.0
H388 H 0.78268 0.71929 0.07815 0.0
C389 C 0.68784 0.75633 0.97359 0.0
H390 H 0.6632 0.76607 0.07817 0.0
C391 C 0.75747 0.729 0.97358 0.0
C392 C 0.79364 0.71527 1.01117 0.0
H393 H 0.6634 0.76685 0.94428 0.0
H394 H 0.78174 0.71847 0.94425 0.0
C395 C 0.75814 0.72931 0.04853 0.0
C396 C 0.18783 0.72893 0.57707 0.0
C397 C 0.15189 0.71519 0.53947 0.0
H398 H 0.28163 0.76681 0.60642 0.0
C399 C 0.1876 0.72921 0.50212 0.0
H400 H 0.1634 0.71841 0.60639 0.0
C401 C 0.25808 0.75597 0.50214 0.0
C402 C 0.29355 0.77001 0.5395 0.0
H403 H 0.16325 0.71918 0.47249 0.0
H404 H 0.28261 0.76599 0.47252 0.0
C405 C 0.2574 0.75627 0.57709 0.0
C406 C 0.75709 0.25602 0.50231 0.0
C407 C 0.79282 0.27004 0.53965 0.0
H408 H 0.66197 0.21927 0.4727 0.0
C409 C 0.7568 0.2563 0.57726 0.0
H410 H 0.78149 0.26605 0.47268 0.0
C411 C 0.68713 0.22897 0.57727 0.0
C412 C 0.65097 0.21525 0.53968 0.0
H413 H 0.78122 0.26682 0.60657 0.0
H414 H 0.66284 0.21845 0.60659 0.0
C415 C 0.6865 0.22928 0.50232 0.0
C416 C -0.00988 0.37528 0.25467 0.0
C417 C 0.00824 0.3469 0.23358 0.0
H418 H 0.9386 0.39735 0.31172 0.0
C419 C -0.00953 0.31863 0.25482 0.0
H420 H 0.00551 0.39738 0.23924 0.0
C421 C 0.95373 0.31862 0.29608 0.0
C422 C 0.93594 0.34687 0.31734 0.0
H423 H 0.00411 0.29648 0.23925 0.0
H424 H 0.94013 0.29645 0.31163 0.0
C425 C 0.95402 0.37527 0.29627 0.0
C426 C 0.95444 0.66665 0.2547 0.0
C427 C 0.93659 0.6384 0.23344 0.0
H428 H 0.00486 0.68878 0.31153 0.0
C429 C 0.95461 0.61 0.25451 0.0
H430 H 0.94088 0.68881 0.23915 0.0
C431 C -0.00928 0.60998 0.2961 0.0
C432 C 0.0089 0.63836 0.3172 0.0
H433 H 0.93916 0.58791 0.23906 0.0
H434 H 0.00607 0.58788 0.31154 0.0
C435 C -0.00881 0.66663 0.29596 0.0
C436 C 0.96566 0.57646 0.79669 0.0
C437 C 0.95856 0.60462 0.8189 0.0
H438 H -0.01547 0.55417 0.73808 0.0
C439 C 0.96608 0.63307 0.79701 0.0
H440 H 0.96089 0.55419 0.81261 0.0
C441 C -0.02062 0.63306 0.75361 0.0
C442 C -0.01312 0.6046 0.73175 0.0
H443 H 0.96407 0.65515 0.81335 0.0
H444 H -0.01859 0.65514 0.73726 0.0
C445 C -0.02024 0.57646 0.75398 0.0
C446 C 0.96502 0.40881 0.7541 0.0
C447 C 0.95793 0.38066 0.73188 0.0
H448 H -0.01612 0.43108 0.81272 0.0
C449 C 0.96548 0.3522 0.75375 0.0
H450 H 0.96023 0.43109 0.7382 0.0
C451 C -0.02121 0.3522 0.79715 0.0
C452 C -0.01373 0.38065 0.81903 0.0
H453 H 0.96349 0.33012 0.73741 0.0
H454 H -0.01917 0.33012 0.8135 0.0
C455 C -0.02087 0.4088 0.79682 0.0
C456 C 0.49091 0.81862 0.25476 0.0
C457 C 0.50871 0.84688 0.23351 0.0
H458 H 0.44053 0.79647 0.31159 0.0
C459 C 0.49062 0.87527 0.25458 0.0
H460 H 0.50452 0.79646 0.2392 0.0
C461 C 0.45451 0.87528 0.29617 0.0
C462 C 0.43639 0.84689 0.31726 0.0
H463 H 0.50604 0.89736 0.23913 0.0
H464 H 0.43911 0.89737 0.31161 0.0
C465 C 0.45416 0.81863 0.29602 0.0
C466 C 0.45381 0.10998 0.25474 0.0
C467 C 0.43564 0.13836 0.23365 0.0
H468 H 0.50537 0.08791 0.31178 0.0
C469 C 0.45337 0.16663 0.25489 0.0
H470 H 0.43845 0.08789 0.2393 0.0
C471 C 0.49012 0.16665 0.29614 0.0
C472 C 0.50796 0.13839 0.3174 0.0
H473 H 0.4397 0.18879 0.23932 0.0
H474 H 0.50369 0.18881 0.3117 0.0
C475 C 0.48992 0.11 0.29633 0.0
C476 C 0.46511 0.13306 0.79722 0.0
C477 C 0.45763 0.10461 0.8191 0.0
H478 H 0.48042 0.15515 0.73748 0.0
C479 C 0.46476 0.07646 0.79688 0.0
H480 H 0.46307 0.15514 0.81357 0.0
C481 C 0.47886 0.07646 0.75417 0.0
C482 C 0.48596 0.10461 0.73195 0.0
H483 H 0.46 0.05418 0.81279 0.0
H484 H 0.48365 0.05418 0.73826 0.0
C485 C 0.47842 0.13306 0.75382 0.0
C486 C 0.46583 0.8522 0.7537 0.0
C487 C 0.45839 0.88064 0.73181 0.0
H488 H 0.4811 0.83013 0.81346 0.0
C489 C 0.46557 0.9088 0.75401 0.0
H490 H 0.46374 0.83011 0.73737 0.0
C491 C 0.47969 0.90881 0.79673 0.0
C492 C 0.48674 0.88067 0.81896 0.0
H493 H 0.46085 0.93108 0.7381 0.0
H494 H 0.48452 0.93109 0.81262 0.0
C495 C 0.47914 0.85221 0.7971 0.0
loop_
_geom_bond_atom_site_label_1
_geom_bond_atom_site_label_2
_geom_bond_distance
_geom_bond_site_symmetry_2
_ccdc_geom_bond_type
Zn0 O1 2.055 . S
Zn0 O8 2.046 . S
Zn0 N16 2.036 . S
Zn0 O28 2.053 1_455 S
Zn0 O30 2.066 . S
O1 Zn0 2.055 . S
O1 C4 1.259 1_556 S
C2 O30 1.256 . S
C2 O31 1.244 1_556 S
Zn3 O5 2.046 . S
Zn3 O7 2.055 . S
Zn3 N9 2.036 . S
Zn3 O27 2.066 1_455 S
Zn3 O31 2.053 . S
C4 O1 1.259 1_554 S
C4 O5 1.254 . S
O5 Zn3 2.046 . S
O5 C4 1.254 . S
C6 O27 1.256 . S
C6 O28 1.244 1_554 S
O7 Zn3 2.055 . S
O7 C29 1.259 . S
O8 Zn0 2.046 . S
O8 C29 1.254 1_556 S
N9 Zn3 2.036 . S
N9 C10 1.298 . S
N9 N12 1.398 . S
C10 N9 1.298 . S
C10 N13 1.367 . S
C10 C23 1.481 1_455 S
C11 N12 1.299 . S
C11 N13 1.379 . S
N12 N9 1.398 . S
N12 C11 1.299 . S
N13 C10 1.367 . S
N13 C11 1.379 . S
C14 N16 1.298 . S
C14 N18 1.367 . S
C14 C22 1.481 . S
C15 N17 1.299 . S
C15 N18 1.379 1_655 S
N16 Zn0 2.036 . S
N16 C14 1.298 . S
N16 N17 1.398 1_455 S
N17 C15 1.299 . S
N17 N16 1.398 1_655 S
N18 C14 1.367 . S
N18 C15 1.379 1_455 S
H19 C22 0.980 . S
H20 C22 0.981 . S
H21 C22 0.981 . S
C22 C14 1.481 . S
C22 H19 0.980 . S
C22 H20 0.981 . S
C22 H21 0.981 . S
C23 C10 1.481 1_655 S
C23 H24 0.980 . S
C23 H25 0.981 . S
C23 H26 0.981 . S
H24 C23 0.980 . S
H25 C23 0.981 . S
H26 C23 0.981 . S
O27 Zn3 2.066 1_655 S
O27 C6 1.256 . S
O28 Zn0 2.053 1_655 S
O28 C6 1.244 1_556 S
C29 O7 1.259 . S
C29 O8 1.254 1_554 S
O30 Zn0 2.066 . S
O30 C2 1.256 . S
O31 C2 1.244 1_554 S
O31 Zn3 2.053 . S
Zn32 O33 2.055 . S
Zn32 O40 2.046 . S
Zn32 N48 2.036 . S
Zn32 O60 2.053 . S
Zn32 O62 2.066 1_655 S
O33 Zn32 2.055 . S
O33 C36 1.259 . S
C34 O62 1.256 . S
C34 O63 1.244 1_554 S
Zn35 O37 2.046 . S
Zn35 O39 2.055 . S
Zn35 N41 2.036 . S
Zn35 O59 2.066 . S
Zn35 O63 2.053 1_655 S
C36 O33 1.259 . S
C36 O37 1.254 1_554 S
O37 Zn35 2.046 . S
O37 C36 1.254 1_556 S
C38 O59 1.256 . S
C38 O60 1.244 1_556 S
O39 Zn35 2.055 . S
O39 C61 1.259 1_556 S
O40 Zn32 2.046 . S
O40 C61 1.254 . S
N41 Zn35 2.036 . S
N41 C42 1.298 . S
N41 N44 1.398 1_655 S
C42 N41 1.298 . S
C42 N45 1.367 . S
C42 C55 1.481 . S
C43 N44 1.299 . S
C43 N45 1.379 1_455 S
N44 N41 1.398 1_455 S
N44 C43 1.299 . S
N45 C42 1.367 . S
N45 C43 1.379 1_655 S
C46 N48 1.298 . S
C46 N50 1.367 . S
C46 C54 1.481 1_655 S
C47 N49 1.299 . S
C47 N50 1.379 . S
N48 Zn32 2.036 . S
N48 C46 1.298 . S
N48 N49 1.398 . S
N49 C47 1.299 . S
N49 N48 1.398 . S
N50 C46 1.367 . S
N50 C47 1.379 . S
H51 C54 0.980 . S
H52 C54 0.981 . S
H53 C54 0.981 . S
C54 C46 1.481 1_455 S
C54 H51 0.980 . S
C54 H52 0.981 . S
C54 H53 0.981 . S
C55 C42 1.481 . S
C55 H56 0.980 . S
C55 H57 0.981 . S
C55 H58 0.981 . S
H56 C55 0.980 . S
H57 C55 0.981 . S
H58 C55 0.981 . S
O59 Zn35 2.066 . S
O59 C38 1.256 . S
O60 Zn32 2.053 . S
O60 C38 1.244 1_554 S
C61 O39 1.259 1_554 S
C61 O40 1.254 . S
O62 Zn32 2.066 1_455 S
O62 C34 1.256 . S
O63 C34 1.244 1_556 S
O63 Zn35 2.053 1_455 S
Zn64 O65 2.055 . S
Zn64 O72 2.046 . S
Zn64 N80 2.036 . S
Zn64 O92 2.053 . S
Zn64 O94 2.066 1_455 S
O65 Zn64 2.055 . S
O65 C68 1.259 . S
C66 O94 1.256 . S
C66 O95 1.244 . S
Zn67 O69 2.046 . S
Zn67 O71 2.055 . S
Zn67 N73 2.036 . S
Zn67 O91 2.066 . S
Zn67 O95 2.053 1_455 S
C68 O65 1.259 . S
C68 O69 1.254 . S
O69 Zn67 2.046 . S
O69 C68 1.254 . S
C70 O91 1.256 . S
C70 O92 1.244 . S
O71 Zn67 2.055 . S
O71 C93 1.259 . S
O72 Zn64 2.046 . S
O72 C93 1.254 . S
N73 Zn67 2.036 . S
N73 C74 1.298 . S
N73 N76 1.398 1_455 S
C74 N73 1.298 . S
C74 N77 1.367 . S
C74 C87 1.481 . S
C75 N76 1.299 . S
C75 N77 1.379 1_655 S
N76 N73 1.398 1_655 S
N76 C75 1.299 . S
N77 C74 1.367 . S
N77 C75 1.379 1_455 S
C78 N80 1.298 . S
C78 N82 1.367 . S
C78 C86 1.481 1_455 S
C79 N81 1.299 . S
C79 N82 1.379 . S
N80 Zn64 2.036 . S
N80 C78 1.298 . S
N80 N81 1.398 . S
N81 C79 1.299 . S
N81 N80 1.398 . S
N82 C78 1.367 . S
N82 C79 1.379 . S
H83 C86 0.980 . S
H84 C86 0.981 . S
H85 C86 0.981 . S
C86 C78 1.481 1_655 S
C86 H83 0.980 . S
C86 H84 0.981 . S
C86 H85 0.981 . S
C87 C74 1.481 . S
C87 H88 0.980 . S
C87 H89 0.981 . S
C87 H90 0.981 . S
H88 C87 0.980 . S
H89 C87 0.981 . S
H90 C87 0.981 . S
O91 Zn67 2.066 . S
O91 C70 1.256 . S
O92 Zn64 2.053 . S
O92 C70 1.244 . S
C93 O71 1.259 . S
C93 O72 1.254 . S
O94 Zn64 2.066 1_655 S
O94 C66 1.256 . S
O95 C66 1.244 . S
O95 Zn67 2.053 1_655 S
Zn96 O97 2.055 . S
Zn96 O104 2.046 . S
Zn96 N112 2.036 . S
Zn96 O124 2.053 1_655 S
Zn96 O126 2.066 . S
O97 Zn96 2.055 . S
O97 C100 1.259 . S
C98 O126 1.256 . S
C98 O127 1.244 . S
Zn99 O101 2.046 . S
Zn99 O103 2.055 . S
Zn99 N105 2.036 . S
Zn99 O123 2.066 1_655 S
Zn99 O127 2.053 . S
C100 O97 1.259 . S
C100 O101 1.254 . S
O101 Zn99 2.046 . S
O101 C100 1.254 . S
C102 O123 1.256 . S
C102 O124 1.244 . S
O103 Zn99 2.055 . S
O103 C125 1.259 . S
O104 Zn96 2.046 . S
O104 C125 1.254 . S
N105 Zn99 2.036 . S
N105 C106 1.298 . S
N105 N108 1.398 . S
C106 N105 1.298 . S
C106 N109 1.367 . S
C106 C119 1.481 1_655 S
C107 N108 1.299 . S
C107 N109 1.379 . S
N108 N105 1.398 . S
N108 C107 1.299 . S
N109 C106 1.367 . S
N109 C107 1.379 . S
C110 N112 1.298 . S
C110 N114 1.367 . S
C110 C118 1.481 . S
C111 N113 1.299 . S
C111 N114 1.379 1_455 S
N112 Zn96 2.036 . S
N112 C110 1.298 . S
N112 N113 1.398 1_655 S
N113 C111 1.299 . S
N113 N112 1.398 1_455 S
N114 C110 1.367 . S
N114 C111 1.379 1_655 S
H115 C118 0.980 . S
H116 C118 0.981 . S
H117 C118 0.981 . S
C118 C110 1.481 . S
C118 H115 0.980 . S
C118 H116 0.981 . S
C118 H117 0.981 . S
C119 C106 1.481 1_455 S
C119 H120 0.980 . S
C119 H121 0.981 . S
C119 H122 0.981 . S
H120 C119 0.980 . S
H121 C119 0.981 . S
H122 C119 0.981 . S
O123 Zn99 2.066 1_455 S
O123 C102 1.256 . S
O124 Zn96 2.053 1_455 S
O124 C102 1.244 . S
C125 O103 1.259 . S
C125 O104 1.254 . S
O126 Zn96 2.066 . S
O126 C98 1.256 . S
O127 C98 1.244 . S
O127 Zn99 2.053 . S
Zn128 O129 2.055 . S
Zn128 O136 2.046 . S
Zn128 N144 2.036 . S
Zn128 O156 2.053 . S
Zn128 O158 2.066 . S
O129 Zn128 2.055 . S
O129 C132 1.259 1_556 S
C130 O158 1.256 . S
C130 O159 1.244 1_556 S
Zn131 O133 2.046 . S
Zn131 O135 2.055 . S
Zn131 N137 2.036 . S
Zn131 O155 2.066 . S
Zn131 O159 2.053 . S
C132 O129 1.259 1_554 S
C132 O133 1.254 . S
O133 Zn131 2.046 . S
O133 C132 1.254 . S
C134 O155 1.256 . S
C134 O156 1.244 1_554 S
O135 Zn131 2.055 . S
O135 C157 1.259 . S
O136 Zn128 2.046 . S
O136 C157 1.254 1_556 S
N137 Zn131 2.036 . S
N137 C138 1.298 . S
N137 N140 1.398 . S
C138 N137 1.298 . S
C138 N141 1.367 . S
C138 C151 1.481 . S
C139 N140 1.299 . S
C139 N141 1.379 . S
N140 N137 1.398 . S
N140 C139 1.299 . S
N141 C138 1.367 . S
N141 C139 1.379 . S
C142 N144 1.298 . S
C142 N146 1.367 . S
C142 C150 1.481 . S
C143 N145 1.299 . S
C143 N146 1.379 . S
N144 Zn128 2.036 . S
N144 C142 1.298 . S
N144 N145 1.398 . S
N145 C143 1.299 . S
N145 N144 1.398 . S
N146 C142 1.367 . S
N146 C143 1.379 . S
H147 C150 0.980 . S
H148 C150 0.981 . S
H149 C150 0.981 . S
C150 C142 1.481 . S
C150 H147 0.980 . S
C150 H148 0.981 . S
C150 H149 0.981 . S
C151 C138 1.481 . S
C151 H152 0.980 . S
C151 H153 0.981 . S
C151 H154 0.981 . S
H152 C151 0.980 . S
H153 C151 0.981 . S
H154 C151 0.981 . S
O155 Zn131 2.066 . S
O155 C134 1.256 . S
O156 Zn128 2.053 . S
O156 C134 1.244 1_556 S
C157 O135 1.259 . S
C157 O136 1.254 1_554 S
O158 Zn128 2.066 . S
O158 C130 1.256 . S
O159 C130 1.244 1_554 S
O159 Zn131 2.053 . S
Zn160 O161 2.055 . S
Zn160 O168 2.046 . S
Zn160 N176 2.036 . S
Zn160 O188 2.053 . S
Zn160 O190 2.066 . S
O161 Zn160 2.055 . S
O161 C164 1.259 . S
C162 O190 1.256 . S
C162 O191 1.244 1_554 S
Zn163 O165 2.046 . S
Zn163 O167 2.055 . S
Zn163 N169 2.036 . S
Zn163 O187 2.066 . S
Zn163 O191 2.053 . S
C164 O161 1.259 . S
C164 O165 1.254 1_554 S
O165 Zn163 2.046 . S
O165 C164 1.254 1_556 S
C166 O187 1.256 . S
C166 O188 1.244 1_556 S
O167 Zn163 2.055 . S
O167 C189 1.259 1_556 S
O168 Zn160 2.046 . S
O168 C189 1.254 . S
N169 Zn163 2.036 . S
N169 C170 1.298 . S
N169 N172 1.398 . S
C170 N169 1.298 . S
C170 N173 1.367 . S
C170 C183 1.481 . S
C171 N172 1.299 . S
C171 N173 1.379 . S
N172 N169 1.398 . S
N172 C171 1.299 . S
N173 C170 1.367 . S
N173 C171 1.379 . S
C174 N176 1.298 . S
C174 N178 1.367 . S
C174 C182 1.481 . S
C175 N177 1.299 . S
C175 N178 1.379 . S
N176 Zn160 2.036 . S
N176 C174 1.298 . S
N176 N177 1.398 . S
N177 C175 1.299 . S
N177 N176 1.398 . S
N178 C174 1.367 . S
N178 C175 1.379 . S
H179 C182 0.980 . S
H180 C182 0.981 . S
H181 C182 0.981 . S
C182 C174 1.481 . S
C182 H179 0.980 . S
C182 H180 0.981 . S
C182 H181 0.981 . S
C183 C170 1.481 . S
C183 H184 0.980 . S
C183 H185 0.981 . S
C183 H186 0.981 . S
H184 C183 0.980 . S
H185 C183 0.981 . S
H186 C183 0.981 . S
O187 Zn163 2.066 . S
O187 C166 1.256 . S
O188 Zn160 2.053 . S
O188 C166 1.244 1_554 S
C189 O167 1.259 1_554 S
C189 O168 1.254 . S
O190 Zn160 2.066 . S
O190 C162 1.256 . S
O191 C162 1.244 1_556 S
O191 Zn163 2.053 . S
Zn192 O193 2.055 . S
Zn192 O200 2.046 . S
Zn192 N208 2.036 . S
Zn192 O220 2.053 . S
Zn192 O222 2.066 . S
O193 Zn192 2.055 . S
O193 C196 1.259 . S
C194 O222 1.256 . S
C194 O223 1.244 . S
Zn195 O197 2.046 . S
Zn195 O199 2.055 . S
Zn195 N201 2.036 . S
Zn195 O219 2.066 . S
Zn195 O223 2.053 . S
C196 O193 1.259 . S
C196 O197 1.254 . S
O197 Zn195 2.046 . S
O197 C196 1.254 . S
C198 O219 1.256 . S
C198 O220 1.244 . S
O199 Zn195 2.055 . S
O199 C221 1.259 . S
O200 Zn192 2.046 . S
O200 C221 1.254 . S
N201 Zn195 2.036 . S
N201 C202 1.298 . S
N201 N204 1.398 . S
C202 N201 1.298 . S
C202 N205 1.367 . S
C202 C215 1.481 . S
C203 N204 1.299 . S
C203 N205 1.379 . S
N204 N201 1.398 . S
N204 C203 1.299 . S
N205 C202 1.367 . S
N205 C203 1.379 . S
C206 N208 1.298 . S
C206 N210 1.367 . S
C206 C214 1.481 . S
C207 N209 1.299 . S
C207 N210 1.379 . S
N208 Zn192 2.036 . S
N208 C206 1.298 . S
N208 N209 1.398 . S
N209 C207 1.299 . S
N209 N208 1.398 . S
N210 C206 1.367 . S
N210 C207 1.379 . S
H211 C214 0.980 . S
H212 C214 0.981 . S
H213 C214 0.981 . S
C214 C206 1.481 . S
C214 H211 0.980 . S
C214 H212 0.981 . S
C214 H213 0.981 . S
C215 C202 1.481 . S
C215 H216 0.980 . S
C215 H217 0.981 . S
C215 H218 0.981 . S
H216 C215 0.980 . S
H217 C215 0.981 . S
H218 C215 0.981 . S
O219 Zn195 2.066 . S
O219 C198 1.256 . S
O220 Zn192 2.053 . S
O220 C198 1.244 . S
C221 O199 1.259 . S
C221 O200 1.254 . S
O222 Zn192 2.066 . S
O222 C194 1.256 . S
O223 C194 1.244 . S
O223 Zn195 2.053 . S
Zn224 O225 2.055 . S
Zn224 O232 2.046 . S
Zn224 N240 2.036 . S
Zn224 O252 2.053 . S
Zn224 O254 2.066 . S
O225 Zn224 2.055 . S
O225 C228 1.259 . S
C226 O254 1.256 . S
C226 O255 1.244 . S
Zn227 O229 2.046 . S
Zn227 O231 2.055 . S
Zn227 N233 2.036 . S
Zn227 O251 2.066 . S
Zn227 O255 2.053 . S
C228 O225 1.259 . S
C228 O229 1.254 . S
O229 Zn227 2.046 . S
O229 C228 1.254 . S
C230 O251 1.256 . S
C230 O252 1.244 . S
O231 Zn227 2.055 . S
O231 C253 1.259 . S
O232 Zn224 2.046 . S
O232 C253 1.254 . S
N233 Zn227 2.036 . S
N233 C234 1.298 . S
N233 N236 1.398 . S
C234 N233 1.298 . S
C234 N237 1.367 . S
C234 C247 1.481 . S
C235 N236 1.299 . S
C235 N237 1.379 . S
N236 N233 1.398 . S
N236 C235 1.299 . S
N237 C234 1.367 . S
N237 C235 1.379 . S
C238 N240 1.298 . S
C238 N242 1.367 . S
C238 C246 1.481 . S
C239 N241 1.299 . S
C239 N242 1.379 . S
N240 Zn224 2.036 . S
N240 C238 1.298 . S
N240 N241 1.398 . S
N241 C239 1.299 . S
N241 N240 1.398 . S
N242 C238 1.367 . S
N242 C239 1.379 . S
H243 C246 0.980 . S
H244 C246 0.981 . S
H245 C246 0.981 . S
C246 C238 1.481 . S
C246 H243 0.980 . S
C246 H244 0.981 . S
C246 H245 0.981 . S
C247 C234 1.481 . S
C247 H248 0.980 . S
C247 H249 0.981 . S
C247 H250 0.981 . S
H248 C247 0.980 . S
H249 C247 0.981 . S
H250 C247 0.981 . S
O251 Zn227 2.066 . S
O251 C230 1.256 . S
O252 Zn224 2.053 . S
O252 C230 1.244 . S
C253 O231 1.259 . S
C253 O232 1.254 . S
O254 Zn224 2.066 . S
O254 C226 1.256 . S
O255 C226 1.244 . S
O255 Zn227 2.053 . S
C256 C257 1.387 1_556 S
C256 H260 0.950 . S
C256 C265 1.390 . S
C257 C256 1.387 1_554 S
C257 C259 1.387 . S
H258 C265 0.950 . S
C259 C257 1.387 . S
C259 C261 1.390 . S
C259 H263 0.950 . S
H260 C256 0.950 . S
C261 C259 1.390 . S
C261 C262 1.387 . S
C261 H264 0.950 . S
C262 C261 1.387 . S
C262 C265 1.387 1_554 S
H263 C259 0.950 . S
H264 C261 0.950 . S
C265 C256 1.390 . S
C265 H258 0.950 . S
C265 C262 1.387 1_556 S
C266 C267 1.387 . S
C266 H270 0.950 . S
C266 C275 1.390 . S
C267 C266 1.387 . S
C267 C269 1.387 1_554 S
H268 C275 0.950 . S
C269 C267 1.387 1_556 S
C269 C271 1.390 . S
C269 H273 0.950 . S
H270 C266 0.950 . S
C271 C269 1.390 . S
C271 C272 1.387 1_556 S
C271 H274 0.950 . S
C272 C271 1.387 1_554 S
C272 C275 1.387 . S
H273 C269 0.950 . S
H274 C271 0.950 . S
C275 C266 1.390 . S
C275 H268 0.950 . S
C275 C272 1.387 . S
C276 C277 1.387 . S
C276 H280 0.950 . S
C276 C285 1.390 . S
C277 C276 1.387 . S
C277 C279 1.387 . S
H278 C285 0.950 . S
C279 C277 1.387 . S
C279 C281 1.390 . S
C279 H283 0.950 . S
H280 C276 0.950 . S
C281 C279 1.390 . S
C281 C282 1.387 . S
C281 H284 0.950 . S
C282 C281 1.387 . S
C282 C285 1.387 . S
H283 C279 0.950 . S
H284 C281 0.950 . S
C285 C276 1.390 . S
C285 H278 0.950 . S
C285 C282 1.387 . S
C286 C287 1.387 . S
C286 H290 0.950 . S
C286 C295 1.390 . S
C287 C286 1.387 . S
C287 C289 1.387 . S
H288 C295 0.950 . S
C289 C287 1.387 . S
C289 C291 1.390 . S
C289 H293 0.950 . S
H290 C286 0.950 . S
C291 C289 1.390 . S
C291 C292 1.387 . S
C291 H294 0.950 . S
C292 C291 1.387 . S
C292 C295 1.387 . S
H293 C289 0.950 . S
H294 C291 0.950 . S
C295 C286 1.390 . S
C295 H288 0.950 . S
C295 C292 1.387 . S
C296 C297 1.387 1_455 S
C296 H300 0.950 1_455 S
C296 C305 1.390 . S
C297 C296 1.387 1_655 S
C297 C299 1.387 1_654 S
H298 C305 0.950 . S
C299 C297 1.387 1_456 S
C299 C301 1.390 . S
C299 H303 0.950 1_455 S
H300 C296 0.950 1_655 S
C301 C299 1.390 . S
C301 C302 1.387 1_556 S
C301 H304 0.950 . S
C302 C301 1.387 1_554 S
C302 C305 1.387 . S
H303 C299 0.950 1_655 S
H304 C301 0.950 . S
C305 C296 1.390 . S
C305 H298 0.950 . S
C305 C302 1.387 . S
C306 C307 1.387 1_655 S
C306 H310 0.950 1_655 S
C306 C315 1.390 . S
C307 C306 1.387 1_455 S
C307 C309 1.387 1_454 S
H308 C315 0.950 . S
C309 C307 1.387 1_656 S
C309 C311 1.390 . S
C309 H313 0.950 1_655 S
H310 C306 0.950 1_455 S
C311 C309 1.390 . S
C311 C312 1.387 1_556 S
C311 H314 0.950 . S
C312 C311 1.387 1_554 S
C312 C315 1.387 . S
H313 C309 0.950 1_455 S
H314 C311 0.950 . S
C315 C306 1.390 . S
C315 H308 0.950 . S
C315 C312 1.387 . S
C316 C317 1.387 . S
C316 H320 0.950 . S
C316 C325 1.390 . S
C317 C316 1.387 . S
C317 C319 1.387 . S
H318 C325 0.950 1_655 S
C319 C317 1.387 . S
C319 C321 1.390 . S
C319 H323 0.950 . S
H320 C316 0.950 . S
C321 C319 1.390 . S
C321 C322 1.387 1_455 S
C321 H324 0.950 1_455 S
C322 C321 1.387 1_655 S
C322 C325 1.387 1_655 S
H323 C319 0.950 . S
H324 C321 0.950 1_655 S
C325 C316 1.390 . S
C325 H318 0.950 1_455 S
C325 C322 1.387 1_455 S
C326 C327 1.387 . S
C326 H330 0.950 . S
C326 C335 1.390 . S
C327 C326 1.387 . S
C327 C329 1.387 . S
H328 C335 0.950 1_455 S
C329 C327 1.387 . S
C329 C331 1.390 . S
C329 H333 0.950 . S
H330 C326 0.950 . S
C331 C329 1.390 . S
C331 C332 1.387 1_655 S
C331 H334 0.950 1_655 S
C332 C331 1.387 1_455 S
C332 C335 1.387 1_455 S
H333 C329 0.950 . S
H334 C331 0.950 1_455 S
C335 C326 1.390 . S
C335 H328 0.950 1_655 S
C335 C332 1.387 1_655 S
C336 C337 1.387 1_556 S
C336 H340 0.950 . S
C336 C345 1.390 1_655 S
C337 C336 1.387 1_554 S
C337 C339 1.387 . S
H338 C345 0.950 . S
C339 C337 1.387 . S
C339 C341 1.390 1_655 S
C339 H343 0.950 . S
H340 C336 0.950 . S
C341 C339 1.390 1_455 S
C341 C342 1.387 . S
C341 H344 0.950 . S
C342 C341 1.387 . S
C342 C345 1.387 1_554 S
H343 C339 0.950 . S
H344 C341 0.950 . S
C345 C336 1.390 1_455 S
C345 H338 0.950 . S
C345 C342 1.387 1_556 S
C346 C347 1.387 . S
C346 H350 0.950 . S
C346 C355 1.390 1_655 S
C347 C346 1.387 . S
C347 C349 1.387 . S
H348 C355 0.950 . S
C349 C347 1.387 . S
C349 C351 1.390 1_655 S
C349 H353 0.950 . S
H350 C346 0.950 . S
C351 C349 1.390 1_455 S
C351 C352 1.387 . S
C351 H354 0.950 . S
C352 C351 1.387 . S
C352 C355 1.387 . S
H353 C349 0.950 . S
H354 C351 0.950 . S
C355 C346 1.390 1_455 S
C355 H348 0.950 . S
C355 C352 1.387 . S
C356 C357 1.387 1_556 S
C356 H360 0.950 . S
C356 C365 1.390 1_565 S
C357 C356 1.387 1_554 S
C357 C359 1.387 . S
H358 C365 0.950 . S
C359 C357 1.387 . S
C359 C361 1.390 1_565 S
C359 H363 0.950 . S
H360 C356 0.950 . S
C361 C359 1.390 1_545 S
C361 C362 1.387 . S
C361 H364 0.950 . S
C362 C361 1.387 . S
C362 C365 1.387 1_554 S
H363 C359 0.950 . S
H364 C361 0.950 . S
C365 C356 1.390 1_545 S
C365 H358 0.950 . S
C365 C362 1.387 1_556 S
C366 C367 1.387 . S
C366 H370 0.950 . S
C366 C375 1.390 1_545 S
C367 C366 1.387 . S
C367 C369 1.387 . S
H368 C375 0.950 . S
C369 C367 1.387 . S
C369 C371 1.390 1_545 S
C369 H373 0.950 . S
H370 C366 0.950 . S
C371 C369 1.390 1_565 S
C371 C372 1.387 . S
C371 H374 0.950 . S
C372 C371 1.387 . S
C372 C375 1.387 . S
H373 C369 0.950 . S
H374 C371 0.950 . S
C375 C366 1.390 1_565 S
C375 H368 0.950 . S
C375 C372 1.387 . S
C376 C377 1.387 1_554 S
C376 H380 0.950 . S
C376 C385 1.390 . S
C377 C376 1.387 1_556 S
C377 C379 1.387 . S
H378 C385 0.950 . S
C379 C377 1.387 . S
C379 C381 1.390 . S
C379 H383 0.950 . S
H380 C376 0.950 . S
C381 C379 1.390 . S
C381 C382 1.387 . S
C381 H384 0.950 . S
C382 C381 1.387 . S
C382 C385 1.387 1_556 S
H383 C379 0.950 . S
H384 C381 0.950 . S
C385 C376 1.390 . S
C385 H378 0.950 . S
C385 C382 1.387 1_554 S
C386 C387 1.387 1_554 S
C386 H390 0.950 . S
C386 C395 1.390 . S
C387 C386 1.387 1_556 S
C387 C389 1.387 . S
H388 C395 0.950 . S
C389 C387 1.387 . S
C389 C391 1.390 . S
C389 H393 0.950 . S
H390 C386 0.950 . S
C391 C389 1.390 . S
C391 C392 1.387 . S
C391 H394 0.950 . S
C392 C391 1.387 . S
C392 C395 1.387 1_556 S
H393 C389 0.950 . S
H394 C391 0.950 . S
C395 C386 1.390 . S
C395 H388 0.950 . S
C395 C392 1.387 1_554 S
C396 C397 1.387 . S
C396 H400 0.950 . S
C396 C405 1.390 . S
C397 C396 1.387 . S
C397 C399 1.387 . S
H398 C405 0.950 . S
C399 C397 1.387 . S
C399 C401 1.390 . S
C399 H403 0.950 . S
H400 C396 0.950 . S
C401 C399 1.390 . S
C401 C402 1.387 . S
C401 H404 0.950 . S
C402 C401 1.387 . S
C402 C405 1.387 . S
H403 C399 0.950 . S
H404 C401 0.950 . S
C405 C396 1.390 . S
C405 H398 0.950 . S
C405 C402 1.387 . S
C406 C407 1.387 . S
C406 H410 0.950 . S
C406 C415 1.390 . S
C407 C406 1.387 . S
C407 C409 1.387 . S
H408 C415 0.950 . S
C409 C407 1.387 . S
C409 C411 1.390 . S
C409 H413 0.950 . S
H410 C406 0.950 . S
C411 C409 1.390 . S
C411 C412 1.387 . S
C411 H414 0.950 . S
C412 C411 1.387 . S
C412 C415 1.387 . S
H413 C409 0.950 . S
H414 C411 0.950 . S
C415 C406 1.390 . S
C415 H408 0.950 . S
C415 C412 1.387 . S
C416 C417 1.388 . S
C416 H420 0.950 . S
C416 C425 1.390 . S
C417 C416 1.388 . S
C417 C419 1.387 1_655 S
H418 C425 0.950 . S
C419 C417 1.387 1_455 S
C419 C421 1.390 . S
C419 H423 0.950 . S
H420 C416 0.950 . S
C421 C419 1.390 . S
C421 C422 1.388 . S
C421 H424 0.950 . S
C422 C421 1.388 . S
C422 C425 1.387 1_455 S
H423 C419 0.950 . S
H424 C421 0.950 . S
C425 C416 1.390 . S
C425 H418 0.950 . S
C425 C422 1.387 1_655 S
C426 C427 1.388 . S
C426 H430 0.950 . S
C426 C435 1.390 1_455 S
C427 C426 1.388 . S
C427 C429 1.387 . S
H428 C435 0.950 . S
C429 C427 1.387 . S
C429 C431 1.390 1_455 S
C429 H433 0.950 . S
H430 C426 0.950 . S
C431 C429 1.390 1_655 S
C431 C432 1.388 . S
C431 H434 0.950 . S
C432 C431 1.388 . S
C432 C435 1.387 . S
H433 C429 0.950 . S
H434 C431 0.950 . S
C435 C426 1.390 1_655 S
C435 H428 0.950 . S
C435 C432 1.387 . S
C436 C437 1.387 . S
C436 H440 0.950 . S
C436 C445 1.390 1_655 S
C437 C436 1.387 . S
C437 C439 1.387 . S
H438 C445 0.950 . S
C439 C437 1.387 . S
C439 C441 1.390 1_655 S
C439 H443 0.950 . S
H440 C436 0.950 . S
C441 C439 1.390 1_455 S
C441 C442 1.387 . S
C441 H444 0.950 . S
C442 C441 1.387 . S
C442 C445 1.387 . S
H443 C439 0.950 . S
H444 C441 0.950 . S
C445 C436 1.390 1_455 S
C445 H438 0.950 . S
C445 C442 1.387 . S
C446 C447 1.387 . S
C446 H450 0.950 . S
C446 C455 1.390 1_655 S
C447 C446 1.387 . S
C447 C449 1.387 . S
H448 C455 0.950 . S
C449 C447 1.387 . S
C449 C451 1.390 1_655 S
C449 H453 0.950 . S
H450 C446 0.950 . S
C451 C449 1.390 1_455 S
C451 C452 1.387 . S
C451 H454 0.950 . S
C452 C451 1.387 . S
C452 C455 1.387 . S
H453 C449 0.950 . S
H454 C451 0.950 . S
C455 C446 1.390 1_455 S
C455 H448 0.950 . S
C455 C452 1.387 . S
C456 C457 1.387 . S
C456 H460 0.950 . S
C456 C465 1.390 . S
C457 C456 1.387 . S
C457 C459 1.387 . S
H458 C465 0.950 . S
C459 C457 1.387 . S
C459 C461 1.390 . S
C459 H463 0.950 . S
H460 C456 0.950 . S
C461 C459 1.390 . S
C461 C462 1.387 . S
C461 H464 0.950 . S
C462 C461 1.387 . S
C462 C465 1.387 . S
H463 C459 0.950 . S
H464 C461 0.950 . S
C465 C456 1.390 . S
C465 H458 0.950 . S
C465 C462 1.387 . S
C466 C467 1.387 . S
C466 H470 0.950 . S
C466 C475 1.390 . S
C467 C466 1.387 . S
C467 C469 1.387 . S
H468 C475 0.950 . S
C469 C467 1.387 . S
C469 C471 1.390 . S
C469 H473 0.950 . S
H470 C466 0.950 . S
C471 C469 1.390 . S
C471 C472 1.387 . S
C471 H474 0.950 . S
C472 C471 1.387 . S
C472 C475 1.387 . S
H473 C469 0.950 . S
H474 C471 0.950 . S
C475 C466 1.390 . S
C475 H468 0.950 . S
C475 C472 1.387 . S
C476 C477 1.387 . S
C476 H480 0.950 . S
C476 C485 1.390 . S
C477 C476 1.387 . S
C477 C479 1.387 . S
H478 C485 0.950 . S
C479 C477 1.387 . S
C479 C481 1.390 . S
C479 H483 0.950 . S
H480 C476 0.950 . S
C481 C479 1.390 . S
C481 C482 1.387 . S
C481 H484 0.950 . S
C482 C481 1.387 . S
C482 C485 1.387 . S
H483 C479 0.950 . S
H484 C481 0.950 . S
C485 C476 1.390 . S
C485 H478 0.950 . S
C485 C482 1.387 . S
C486 C487 1.387 . S
C486 H490 0.950 . S
C486 C495 1.390 . S
C487 C486 1.387 . S
C487 C489 1.387 . S
H488 C495 0.950 . S
C489 C487 1.387 . S
C489 C491 1.390 . S
C489 H493 0.950 . S
H490 C486 0.950 . S
C491 C489 1.390 . S
C491 C492 1.387 . S
C491 H494 0.950 . S
C492 C491 1.387 . S
C492 C495 1.387 . S
H493 C489 0.950 . S
H494 C491 0.950 . S
C495 C486 1.390 . S
C495 H488 0.950 . S
C495 C492 1.387 . S
C257 C4 1.368 . S
C262 C6 1.369 . S
C267 C34 1.370 . S
C272 C61 1.369 . S
C277 C66 1.370 . S
C282 C93 1.369 . S
C287 C100 1.368 . S
C292 C102 1.369 . S
C297 C132 1.368 . S
C302 C134 1.369 . S
C307 C189 1.369 . S
C312 C162 1.370 . S
C317 C194 1.370 . S
C322 C221 1.369 . S
C327 C230 1.369 . S
C332 C228 1.368 . S
C337 C36 1.513 . S
C342 C29 1.513 . S
C347 C125 1.513 . S
C352 C68 1.513 . S
C357 C157 1.513 . S
C362 C164 1.513 . S
C367 C196 1.513 . S
C372 C253 1.513 . S
C377 C2 1.595 . S
C382 C166 1.595 . S
C387 C130 1.595 . S
C392 C38 1.595 . S
C397 C70 1.596 . S
C402 C226 1.596 . S
C407 C98 1.595 . S
C412 C198 1.595 . S
C417 N13 1.459 1_655 S
C422 N109 1.459 1_455 S
C427 N50 1.462 1_455 S
C432 N82 1.462 1_655 S
C437 N45 1.545 . S
C442 N77 1.545 . S
C447 N114 1.544 . S
C452 N18 1.544 . S
C457 N141 1.462 . S
C462 N237 1.462 . S
C467 N178 1.459 . S
C472 N210 1.459 . S
C477 N173 1.548 . S
C482 N205 1.548 . S
C487 N242 1.548 . S
C492 N146 1.548 . S
