# Generated by pormake.
# Topology whw, (6)-cn, num edge types: 1
# Building blocks:
#     Node 0, Type 0, BuildingBlock: BETGAK_clean_sbu_0, # of connection points: 6
#     Node 1, Type 0, BuildingBlock: BETGAK_clean_sbu_0, # of connection points: 6
#     Node 2, Type 0, BuildingBlock: BETGAK_clean_sbu_0, # of connection points: 6
#     Node 3, Type 0, BuildingBlock: BETGAK_clean_sbu_0, # of connection points: 6
#     Node 4, Type 0, BuildingBlock: BETGAK_clean_sbu_0, # of connection points: 6
#     Node 5, Type 0, BuildingBlock: BETGAK_clean_sbu_0, # of connection points: 6
#     Node 6, Type 0, BuildingBlock: BETGAK_clean_sbu_0, # of connection points: 6
#     Node 7, Type 0, BuildingBlock: BETGAK_clean_sbu_0, # of connection points: 6
#     Node 8, Type 0, BuildingBlock: BETGAK_clean_sbu_0, # of connection points: 6
#     Node 9, Type 0, BuildingBlock: BETGAK_clean_sbu_0, # of connection points: 6
#     Node 10, Type 0, BuildingBlock: BETGAK_clean_sbu_0, # of connection points: 6
#     Node 11, Type 0, BuildingBlock: BETGAK_clean_sbu_0, # of connection points: 6
#     Node 12, Type 0, BuildingBlock: BETGAK_clean_sbu_0, # of connection points: 6
#     Node 13, Type 0, BuildingBlock: BETGAK_clean_sbu_0, # of connection points: 6
#     Node 14, Type 0, BuildingBlock: BETGAK_clean_sbu_0, # of connection points: 6
#     Node 15, Type 0, BuildingBlock: BETGAK_clean_sbu_0, # of connection points: 6
#     Edge 16, Type (0, 0), BuildingBlock: KIFKEQ_clean_linker_1, # of connection points: 2
#     Edge 17, Type (0, 0), BuildingBlock: KIFKEQ_clean_linker_1, # of connection points: 2
#     Edge 18, Type (0, 0), BuildingBlock: KIFKEQ_clean_linker_1, # of connection points: 2
#     Edge 19, Type (0, 0), BuildingBlock: KIFKEQ_clean_linker_1, # of connection points: 2
#     Edge 20, Type (0, 0), BuildingBlock: KIFKEQ_clean_linker_1, # of connection points: 2
#     Edge 21, Type (0, 0), BuildingBlock: KIFKEQ_clean_linker_1, # of connection points: 2
#     Edge 22, Type (0, 0), BuildingBlock: KIFKEQ_clean_linker_1, # of connection points: 2
#     Edge 23, Type (0, 0), BuildingBlock: KIFKEQ_clean_linker_1, # of connection points: 2
#     Edge 24, Type (0, 0), BuildingBlock: KIFKEQ_clean_linker_1, # of connection points: 2
#     Edge 25, Type (0, 0), BuildingBlock: KIFKEQ_clean_linker_1, # of connection points: 2
#     Edge 26, Type (0, 0), BuildingBlock: KIFKEQ_clean_linker_1, # of connection points: 2
#     Edge 27, Type (0, 0), BuildingBlock: KIFKEQ_clean_linker_1, # of connection points: 2
#     Edge 28, Type (0, 0), BuildingBlock: KIFKEQ_clean_linker_1, # of connection points: 2
#     Edge 29, Type (0, 0), BuildingBlock: KIFKEQ_clean_linker_1, # of connection points: 2
#     Edge 30, Type (0, 0), BuildingBlock: KIFKEQ_clean_linker_1, # of connection points: 2
#     Edge 31, Type (0, 0), BuildingBlock: KIFKEQ_clean_linker_1, # of connection points: 2
#     Edge 32, Type (0, 0), BuildingBlock: KIFKEQ_clean_linker_1, # of connection points: 2
#     Edge 33, Type (0, 0), BuildingBlock: KIFKEQ_clean_linker_1, # of connection points: 2
#     Edge 34, Type (0, 0), BuildingBlock: KIFKEQ_clean_linker_1, # of connection points: 2
#     Edge 35, Type (0, 0), BuildingBlock: KIFKEQ_clean_linker_1, # of connection points: 2
#     Edge 36, Type (0, 0), BuildingBlock: KIFKEQ_clean_linker_1, # of connection points: 2
#     Edge 37, Type (0, 0), BuildingBlock: KIFKEQ_clean_linker_1, # of connection points: 2
#     Edge 38, Type (0, 0), BuildingBlock: KIFKEQ_clean_linker_1, # of connection points: 2
#     Edge 39, Type (0, 0), BuildingBlock: KIFKEQ_clean_linker_1, # of connection points: 2
#     Edge 40, Type (0, 0), BuildingBlock: KIFKEQ_clean_linker_1, # of connection points: 2
#     Edge 41, Type (0, 0), BuildingBlock: KIFKEQ_clean_linker_1, # of connection points: 2
#     Edge 42, Type (0, 0), BuildingBlock: KIFKEQ_clean_linker_1, # of connection points: 2
#     Edge 43, Type (0, 0), BuildingBlock: KIFKEQ_clean_linker_1, # of connection points: 2
#     Edge 44, Type (0, 0), BuildingBlock: KIFKEQ_clean_linker_1, # of connection points: 2
#     Edge 45, Type (0, 0), BuildingBlock: KIFKEQ_clean_linker_1, # of connection points: 2
#     Edge 46, Type (0, 0), BuildingBlock: KIFKEQ_clean_linker_1, # of connection points: 2
#     Edge 47, Type (0, 0), BuildingBlock: KIFKEQ_clean_linker_1, # of connection points: 2
#     Edge 48, Type (0, 0), BuildingBlock: KIFKEQ_clean_linker_1, # of connection points: 2
#     Edge 49, Type (0, 0), BuildingBlock: KIFKEQ_clean_linker_1, # of connection points: 2
#     Edge 50, Type (0, 0), BuildingBlock: KIFKEQ_clean_linker_1, # of connection points: 2
#     Edge 51, Type (0, 0), BuildingBlock: KIFKEQ_clean_linker_1, # of connection points: 2
#     Edge 52, Type (0, 0), BuildingBlock: KIFKEQ_clean_linker_1, # of connection points: 2
#     Edge 53, Type (0, 0), BuildingBlock: KIFKEQ_clean_linker_1, # of connection points: 2
#     Edge 54, Type (0, 0), BuildingBlock: KIFKEQ_clean_linker_1, # of connection points: 2
#     Edge 55, Type (0, 0), BuildingBlock: KIFKEQ_clean_linker_1, # of connection points: 2
#     Edge 56, Type (0, 0), BuildingBlock: KIFKEQ_clean_linker_1, # of connection points: 2
#     Edge 57, Type (0, 0), BuildingBlock: KIFKEQ_clean_linker_1, # of connection points: 2
#     Edge 58, Type (0, 0), BuildingBlock: KIFKEQ_clean_linker_1, # of connection points: 2
#     Edge 59, Type (0, 0), BuildingBlock: KIFKEQ_clean_linker_1, # of connection points: 2
#     Edge 60, Type (0, 0), BuildingBlock: KIFKEQ_clean_linker_1, # of connection points: 2
#     Edge 61, Type (0, 0), BuildingBlock: KIFKEQ_clean_linker_1, # of connection points: 2
#     Edge 62, Type (0, 0), BuildingBlock: KIFKEQ_clean_linker_1, # of connection points: 2
#     Edge 63, Type (0, 0), BuildingBlock: KIFKEQ_clean_linker_1, # of connection points: 2
# Relax obj value: 0.447
# Max RMSD: 0.240
# Mean RMSD: 0.216
data_MOF--net-whw--node1-BETGAK_clean_sbu_0--edge1-KIFKEQ_clean_linker_1
_symmetry_space_group_name_H-M    P1
_symmetry_Int_Tables_number       1
_symmetry_cell_setting            triclinic
loop_
_symmetry_equiv_pos_as_xyz
'x, y, z'
_cell_length_a     48.04658
_cell_length_b     47.399271
_cell_length_c     34.131414
_cell_angle_alpha  89.628101
_cell_angle_beta   102.024
_cell_angle_gamma 96.859094
loop_
_atom_site_label
_atom_site_type_symbol
_atom_site_fract_x
_atom_site_fract_y
_atom_site_fract_z
_atom_type_partial_charge
La0 La 0.0659 0.13686 0.17415 0.0
La1 La 0.00673 0.12082 0.18123 0.0
C2 C 0.11497 0.13732 0.15885 0.0
C3 C 0.1297 0.12975 0.12784 0.0
C4 C 0.11476 0.12289 0.08866 0.0
C5 C 0.12971 0.11659 0.05949 0.0
C6 C 0.15974 0.117 0.06925 0.0
C7 C 0.17439 0.12317 0.10889 0.0
C8 C 0.15944 0.1295 0.13795 0.0
C9 C 0.04529 0.17681 0.2086 0.0
C10 C 0.01465 0.15305 0.10245 0.0
C11 C 0.95898 0.10562 0.19948 0.0
C12 C 0.94718 0.10978 0.23489 0.0
C13 C 0.92006 0.09617 0.23745 0.0
C14 C 0.91034 0.09763 0.27322 0.0
C15 C 0.92794 0.1124 0.30657 0.0
C16 C 0.9545 0.12688 0.30328 0.0
C17 C 0.96398 0.12561 0.2677 0.0
C18 C 0.02535 0.08476 0.13586 0.0
C19 C 0.05709 0.12934 0.26305 0.0
O20 O 0.09963 0.15855 0.15149 0.0
O21 O 0.10212 0.11604 0.17551 0.0
O22 O 0.07234 0.17402 0.2151 0.0
O23 O 0.03212 0.15998 0.18099 0.0
O24 O 0.04178 0.14702 0.11266 0.0
O25 O 0.99727 0.14765 0.12805 0.0
O26 O 0.98026 0.09017 0.20529 0.0
O27 O 0.96417 0.1284 0.17911 0.0
O28 O 1.00062 0.09364 0.12867 0.0
O29 O 0.03957 0.09588 0.16909 0.0
O30 O 0.02923 0.12775 0.24621 0.0
O31 O 0.07575 0.12863 0.23945 0.0
H32 H 0.09172 0.12289 0.08057 0.0
H33 H 0.11787 0.11234 1.02904 0.0
H34 H 0.19743 0.12337 0.11734 0.0
H35 H 0.17116 0.13454 0.16829 0.0
H36 H 0.90686 0.08379 0.21231 0.0
H37 H 0.88973 0.08638 0.27535 0.0
H38 H 0.96822 0.13869 0.32859 0.0
H39 H 0.98481 0.13632 0.26639 0.0
La40 La 0.13543 0.76041 0.37276 0.0
La41 La 0.13871 0.70132 0.34888 0.0
C42 C 0.12984 0.80772 0.40031 0.0
C43 C 0.11976 0.81869 0.43409 0.0
C44 C 0.13723 0.8403 0.45837 0.0
C45 C 0.129 0.85014 0.49205 0.0
C46 C 0.10292 0.83874 0.50166 0.0
C47 C 0.08498 0.81771 0.47638 0.0
C48 C 0.09346 0.80754 0.44304 0.0
C49 C 0.18061 0.75327 0.34142 0.0
C50 C 0.13797 0.71271 0.44252 0.0
C51 C 0.16131 0.65776 0.33642 0.0
C52 C 0.17849 0.65119 0.30741 0.0
C53 C 0.17184 0.62525 0.28627 0.0
C54 C 0.18373 0.62097 0.25311 0.0
C55 C 0.20253 0.64263 0.24056 0.0
C56 C 0.21128 0.66752 0.26427 0.0
C57 C 0.19915 0.67184 0.29718 0.0
C58 C 0.08653 0.71084 0.35125 0.0
C59 C 0.11306 0.74469 0.28258 0.0
O60 O 0.15361 0.79583 0.4096 0.0
O61 O 0.11035 0.79349 0.3724 0.0
O62 O 0.16607 0.77448 0.33469 0.0
O63 O 0.17017 0.73738 0.36573 0.0
O64 O 0.13767 0.7401 0.43285 0.0
O65 O 0.13801 0.69346 0.4139 0.0
O66 O 0.13469 0.6612 0.32096 0.0
O67 O 0.17326 0.67728 0.36359 0.0
O68 O 0.09205 0.69078 0.32937 0.0
O69 O 0.10955 0.72134 0.37341 0.0
O70 O 0.12972 0.72361 0.28965 0.0
O71 O 0.10819 0.75895 0.3131 0.0
H72 H 0.15762 0.84906 0.45184 0.0
H73 H 0.14363 0.86591 0.51128 0.0
H74 H 0.06462 0.80877 0.48272 0.0
H75 H 0.07966 0.79073 0.42471 0.0
H76 H 0.15597 0.60904 0.29372 0.0
H77 H 0.17614 0.60165 0.23539 0.0
H78 H 0.22597 0.68447 0.2558 0.0
H79 H 0.20467 0.69198 0.31309 0.0
La80 La 0.49972 0.88191 0.70243 0.0
La81 La 0.52719 0.86431 0.62859 0.0
C82 C 0.48648 0.87373 0.7711 0.0
C83 C 0.48 0.86723 0.81266 0.0
C84 C 0.45686 0.87726 0.82578 0.0
C85 C 0.44959 0.86889 0.86296 0.0
C86 C 0.46508 0.85001 0.88908 0.0
C87 C 0.48852 0.84042 0.8759 0.0
C88 C 0.49565 0.84867 0.83876 0.0
C89 C 0.50664 0.92247 0.64941 0.0
C90 C 0.56854 0.88953 0.70765 0.0
C91 C 0.54119 0.85125 0.56347 0.0
C92 C 0.5488 0.84208 0.52463 0.0
C93 C 0.53886 0.81465 0.50782 0.0
C94 C 0.54696 0.80517 0.47301 0.0
C95 C 0.56557 0.82256 0.4532 0.0
C96 C 0.5753 0.8502 0.46998 0.0
C97 C 0.56707 0.85973 0.50482 0.0
C98 C 0.52272 0.82827 0.68627 0.0
C99 C 0.45949 0.86295 0.6212 0.0
O100 O 0.47352 0.89061 0.74434 0.0
O101 O 0.50779 0.86374 0.75968 0.0
O102 O 0.48985 0.92308 0.67508 0.0
O103 O 0.52132 0.90212 0.65855 0.0
O104 O 0.54612 0.89091 0.72467 0.0
O105 O 0.5666 0.88168 0.66968 0.0
O106 O 0.52669 0.83364 0.58379 0.0
O107 O 0.54722 0.87704 0.57952 0.0
O108 O 0.5432 0.83007 0.66668 0.0
O109 O 0.50504 0.84484 0.67177 0.0
O110 O 0.48173 0.86696 0.60335 0.0
O111 O 0.46191 0.86323 0.66052 0.0
H112 H 0.44383 0.89121 0.80682 0.0
H113 H 0.43117 0.87684 0.87057 0.0
H114 H 0.50177 0.82644 0.89436 0.0
H115 H 0.5135 0.84008 0.83028 0.0
H116 H 0.52477 0.80019 0.52175 0.0
H117 H 0.53831 0.78403 0.46158 0.0
H118 H 0.58992 0.86452 0.45681 0.0
H119 H 0.5755 0.88088 0.51666 0.0
La120 La 0.39822 0.23625 0.98554 0.0
La121 La 0.40201 0.29511 0.9582 0.0
C122 C 0.39601 0.18866 1.01879 0.0
C123 C 0.39991 0.17648 0.05892 0.0
C124 C 0.40464 0.14796 0.06333 0.0
C125 C 0.4062 0.13511 0.10052 0.0
C126 C 0.40303 0.15061 0.134 0.0
C127 C 0.39844 0.17932 0.12949 0.0
C128 C 0.39691 0.19217 0.09222 0.0
C129 C 0.3541 0.24582 0.92791 0.0
C130 C 0.40584 0.28773 1.05164 0.0
C131 C 0.39089 0.34107 0.92487 0.0
C132 C 0.37719 0.35138 0.88611 0.0
C133 C 0.38347 0.37998 0.87736 0.0
C134 C 0.37338 0.38983 0.83913 0.0
C135 C 0.35657 0.3712 0.80906 0.0
C136 C 0.34873 0.34286 0.81896 0.0
C137 C 0.35932 0.33293 0.85711 0.0
C138 C 0.45086 0.28147 1.00184 0.0
C139 C 0.41746 0.24657 0.90263 0.0
O140 O 0.37415 0.20319 1.00878 0.0
O141 O 0.41895 0.20086 1.0075 0.0
O142 O 0.36612 0.22289 0.93299 0.0
O143 O 0.36582 0.26309 0.95713 0.0
O144 O 0.40551 0.26012 1.04424 0.0
O145 O 0.40129 0.30535 1.02122 0.0
O146 O 0.41479 0.33016 0.92568 0.0
O147 O 0.374 0.32608 0.94489 0.0
O148 O 0.44379 0.30707 0.99891 0.0
O149 O 0.43219 0.26622 0.97732 0.0
O150 O 0.40836 0.2721 0.90403 0.0
O151 O 0.4189 0.22977 0.93442 0.0
H152 H 0.40667 0.13546 1.03782 0.0
H153 H 0.40951 0.1129 0.10293 0.0
H154 H 0.39636 0.19193 0.15484 0.0
H155 H 0.39303 0.21418 0.0893 0.0
H156 H 0.39728 0.39444 0.89961 0.0
H157 H 0.38034 0.4116 0.83264 0.0
H158 H 0.33546 0.32803 0.79678 0.0
H159 H 0.35443 0.31071 0.86351 0.0
La160 La 0.03788 0.86232 0.92968 0.0
La161 La 0.97905 0.85317 0.94152 0.0
C162 C 0.08427 0.87022 0.90619 0.0
C163 C 0.09066 0.86719 0.86649 0.0
C164 C 0.10742 0.88927 0.85163 0.0
C165 C 0.10868 0.88945 0.81114 0.0
C166 C 0.0932 0.86746 0.78521 0.0
C167 C 0.0779 0.84454 0.80085 0.0
C168 C 0.07641 0.84458 0.841 0.0
C169 C 0.02571 0.90191 0.97633 0.0
C170 C 0.98548 0.85825 0.85062 0.0
C171 C 0.93334 0.86054 0.9628 0.0
C172 C 0.92524 0.87357 0.99673 0.0
C173 C 0.89623 0.87497 0.99605 0.0
C174 C 0.88807 0.88766 1.02797 0.0
C175 C 0.90888 0.89907 0.06108 0.0
C176 C 0.93806 0.89821 0.06108 0.0
C177 C 0.94619 0.88557 1.02905 0.0
C178 C 0.99332 0.80998 0.90559 0.0
C179 C 0.03036 0.83279 1.01022 0.0
O180 O 0.06832 0.89038 0.90879 0.0
O181 O 0.07575 0.84675 0.92309 0.0
O182 O 0.04925 0.89068 0.98138 0.0
O183 O 0.00914 0.89125 0.9443 0.0
O184 O 0.0135 0.85881 0.86556 0.0
O185 O 0.96777 0.8594 0.87566 0.0
O186 O 0.9458 0.83736 0.97 0.0
O187 O 0.94614 0.87836 0.94085 0.0
O188 O 0.96716 0.81595 0.90052 0.0
O189 O 0.00881 0.82595 0.93263 0.0
O190 O 1.0039 0.84074 1.00152 0.0
O191 O 0.047 0.83646 0.98351 0.0
H192 H 0.11825 0.90709 0.87084 0.0
H193 H 0.12059 0.90742 0.79983 0.0
H194 H 0.06631 0.82695 0.78179 0.0
H195 H 0.063 0.82759 0.85154 0.0
H196 H 0.87988 0.86614 0.97089 0.0
H197 H 0.86546 0.88829 1.02691 0.0
H198 H 0.95459 0.90645 0.08638 0.0
H199 H 0.96875 0.8849 1.02965 0.0
La200 La 0.41891 0.79475 0.25655 0.0
La201 La 0.4174 0.73484 0.23149 0.0
C202 C 0.40409 0.83936 0.28168 0.0
C203 C 0.38926 0.84789 0.31262 0.0
C204 C 0.40415 0.8668 0.34329 0.0
C205 C 0.39135 0.87346 0.37457 0.0
C206 C 0.36332 0.86131 0.3758 0.0
C207 C 0.34776 0.8438 0.34373 0.0
C208 C 0.36055 0.83733 0.31226 0.0
C209 C 0.46615 0.78454 0.23522 0.0
C210 C 0.44 0.74754 0.32315 0.0
C211 C 0.4181 0.68646 0.20227 0.0
C212 C 0.4197 0.67496 0.16307 0.0
C213 C 0.39498 0.67061 0.13244 0.0
C214 C 0.39681 0.66179 0.09444 0.0
C215 C 0.4233 0.65686 0.08647 0.0
C216 C 0.44778 0.65974 0.11756 0.0
C217 C 0.44599 0.66872 0.15565 0.0
C218 C 0.37245 0.74609 0.25998 0.0
C219 C 0.41524 0.78285 0.1631 0.0
O220 O 0.42947 0.83106 0.29429 0.0
O221 O 0.38854 0.82334 0.25211 0.0
O222 O 0.45698 0.80929 0.23315 0.0
O223 O 0.45056 0.76802 0.25304 0.0
O224 O 0.43021 0.7729 0.31615 0.0
O225 O 0.44007 0.73024 0.29293 0.0
O226 O 0.39465 0.69752 0.20378 0.0
O227 O 0.44106 0.70199 0.22198 0.0
O228 O 0.38523 0.72366 0.26719 0.0
O229 O 0.38463 0.76154 0.2365 0.0
O230 O 0.41761 0.75589 0.17297 0.0
O231 O 0.41273 0.80165 0.19069 0.0
H232 H 0.42611 0.87563 0.34386 0.0
H233 H 0.40419 0.88665 0.39912 0.0
H234 H 0.32613 0.83422 0.34379 0.0
H235 H 0.34819 0.82348 0.28832 0.0
H236 H 0.37428 0.67479 0.13737 0.0
H237 H 0.37765 0.66001 0.0709 0.0
H238 H 0.46835 0.65553 0.11219 0.0
H239 H 0.46526 0.67138 0.17899 0.0
La240 La 0.52055 0.1374 0.4732 0.0
La241 La 0.55056 0.12013 0.3991 0.0
C242 C 0.50644 0.15095 0.53796 0.0
C243 C 0.49852 0.16002 0.57663 0.0
C244 C 0.50765 0.18764 0.59322 0.0
C245 C 0.49943 0.19674 0.62818 0.0
C246 C 0.48152 0.17872 0.64834 0.0
C247 C 0.47256 0.15095 0.6317 0.0
C248 C 0.4809 0.14183 0.59675 0.0
C249 C 0.51912 0.16969 0.41009 0.0
C250 C 0.589 0.14516 0.48004 0.0
C251 C 0.56516 0.1301 0.33181 0.0
C252 C 0.57313 0.136 0.29102 0.0
C253 C 0.60187 0.14329 0.28734 0.0
C254 C 0.60903 0.15177 0.25019 0.0
C255 C 0.58783 0.15294 0.21465 0.0
C256 C 0.5591 0.14509 0.2183 0.0
C257 C 0.55193 0.13718 0.2556 0.0
C258 C 0.54313 0.07783 0.45038 0.0
C259 C 0.48274 0.10509 0.39696 0.0
O260 O 0.52051 0.16867 0.51713 0.0
O261 O 0.50069 0.125 0.52235 0.0
O262 O 0.49949 0.16734 0.43122 0.0
O263 O 0.53917 0.15623 0.4261 0.0
O264 O 0.56675 0.14159 0.49805 0.0
O265 O 0.58723 0.14107 0.44117 0.0
O266 O 0.58204 0.11997 0.36286 0.0
O267 O 0.53962 0.13259 0.3384 0.0
O268 O 0.55333 0.07505 0.41793 0.0
O269 O 0.5384 0.10332 0.45151 0.0
O270 O 0.50453 0.1087 0.37809 0.0
O271 O 0.48444 0.1117 0.43535 0.0
H272 H 0.52123 0.2025 0.57905 0.0
H273 H 0.50746 0.21805 0.63949 0.0
H274 H 0.45848 0.13616 0.6451 0.0
H275 H 0.47311 0.1205 0.58512 0.0
H276 H 0.61898 0.14316 0.31359 0.0
H277 H 0.63141 0.15732 0.24937 0.0
H278 H 0.54186 0.1458 0.19237 0.0
H279 H 0.52951 0.13222 0.25671 0.0
La280 La 0.13945 0.19819 0.65195 0.0
La281 La 0.1435 0.25724 0.62619 0.0
C282 C 0.15144 0.153 0.68699 0.0
C283 C 0.16734 0.1453 0.72619 0.0
C284 C 0.1584 0.11982 0.74327 0.0
C285 C 0.17173 0.11323 0.78198 0.0
C286 C 0.19434 0.13204 0.80418 0.0
C287 C 0.20419 0.15692 0.78602 0.0
C288 C 0.19063 0.16357 0.74742 0.0
C289 C 0.091 0.21152 0.60778 0.0
C290 C 0.12314 0.24693 0.70769 0.0
C291 C 0.14846 0.30491 0.59359 0.0
C292 C 0.14688 0.31626 0.55328 0.0
C293 C 0.15674 0.34491 0.54905 0.0
C294 C 0.15854 0.35552 0.51128 0.0
C295 C 0.15078 0.33749 0.47726 0.0
C296 C 0.14062 0.30882 0.4816 0.0
C297 C 0.13861 0.29832 0.51934 0.0
C298 C 0.18707 0.24643 0.6839 0.0
C299 C 0.13576 0.20636 0.55877 0.0
O300 O 0.12772 0.16403 0.68702 0.0
O301 O 0.16677 0.16658 0.66365 0.0
O302 O 0.09794 0.18585 0.61096 0.0
O303 O 0.10919 0.22698 0.63275 0.0
O304 O 0.13225 0.22133 0.70604 0.0
O305 O 0.12211 0.26394 0.67621 0.0
O306 O 0.16964 0.28981 0.60548 0.0
O307 O 0.12454 0.29328 0.60279 0.0
O308 O 0.17465 0.26915 0.68076 0.0
O309 O 0.17565 0.23011 0.65361 0.0
O310 O 0.1349 0.23363 0.56708 0.0
O311 O 0.14148 0.1886 0.58887 0.0
H312 H 0.14043 0.10549 0.72721 0.0
H313 H 0.16319 0.09417 0.79524 0.0
H314 H 0.22169 0.17173 0.80213 0.0
H315 H 0.19782 0.1833 0.73458 0.0
H316 H 0.16358 0.35896 0.57509 0.0
H317 H 0.16644 0.3777 0.50873 0.0
H318 H 0.13394 0.29459 0.45575 0.0
H319 H 0.13102 0.27616 0.52202 0.0
La320 La 0.91439 0.28905 0.76229 0.0
La321 La 0.91384 0.22976 0.73485 0.0
C322 C 0.89987 0.33321 0.7891 0.0
C323 C 0.88642 0.34237 0.82109 0.0
C324 C 0.90101 0.36444 0.84718 0.0
C325 C 0.88947 0.37297 0.87873 0.0
C326 C 0.86285 0.35976 0.88475 0.0
C327 C 0.84757 0.33854 0.85733 0.0
C328 C 0.85929 0.3299 0.82582 0.0
C329 C 0.96238 0.2797 0.74236 0.0
C330 C 0.93515 0.24068 0.82735 0.0
C331 C 0.91559 0.18218 0.70381 0.0
C332 C 0.91761 0.17162 0.66458 0.0
C333 C 0.90399 0.14453 0.6517 0.0
C334 C 0.90257 0.13519 0.61265 0.0
C335 C 0.91475 0.15291 0.58595 0.0
C336 C 0.92916 0.1798 0.59939 0.0
C337 C 0.93052 0.18912 0.63847 0.0
C338 C 0.86783 0.23995 0.76177 0.0
C339 C 0.91219 0.27938 0.66859 0.0
O340 O 0.92548 0.32518 0.80026 0.0
O341 O 0.88351 0.31688 0.76048 0.0
O342 O 0.95289 0.30429 0.74016 0.0
O343 O 0.94642 0.2628 0.75904 0.0
O344 O 0.92411 0.26552 0.82096 0.0
O345 O 0.93644 0.22452 0.79641 0.0
O346 O 0.89185 0.19289 0.70443 0.0
O347 O 0.93819 0.19779 0.72426 0.0
O348 O 0.88052 0.2174 0.76856 0.0
O349 O 0.88066 0.256 0.73962 0.0
O350 O 0.91496 0.25236 0.67764 0.0
O351 O 0.90884 0.29743 0.69666 0.0
H352 H 0.92181 0.37458 0.84383 0.0
H353 H 0.9023 0.38891 0.89963 0.0
H354 H 0.82698 0.32803 0.86088 0.0
H355 H 0.84735 0.31314 0.80574 0.0
H356 H 0.89369 0.13093 0.67151 0.0
H357 H 0.89114 0.11449 0.60298 0.0
H358 H 0.93915 0.1937 0.57962 0.0
H359 H 0.94103 0.21016 0.64799 0.0
La360 La 0.64175 0.69918 0.14616 0.0
La361 La 0.65031 0.75773 0.11995 0.0
C362 C 0.64902 0.65273 0.18057 0.0
C363 C 0.6636 0.64327 0.21951 0.0
C364 C 0.65399 0.61691 0.23365 0.0
C365 C 0.66666 0.60824 0.27164 0.0
C366 C 0.6894 0.62574 0.29595 0.0
C367 C 0.69973 0.65168 0.28074 0.0
C368 C 0.68666 0.6605 0.24303 0.0
C369 C 0.59506 0.71564 0.1004 0.0
C370 C 0.62845 0.74947 0.20094 0.0
C371 C 0.65722 0.80462 0.08626 0.0
C372 C 0.65409 0.81577 1.04544 0.0
C373 C 0.67785 0.83153 1.03449 0.0
C374 C 0.6756 0.84282 0.99625 0.0
C375 C 0.6494 0.83882 0.96849 0.0
C376 C 0.6257 0.8227 0.97926 0.0
C377 C 0.62803 0.81114 1.01738 0.0
C378 C 0.69203 0.74552 0.1794 0.0
C379 C 0.64044 0.70639 1.05325 0.0
O380 O 0.62681 0.66623 0.18075 0.0
O381 O 0.66574 0.66494 0.15796 0.0
O382 O 0.60033 0.68945 0.1039 0.0
O383 O 0.61393 0.7301 0.12567 0.0
O384 O 0.63587 0.7232 0.19975 0.0
O385 O 0.62885 0.76628 0.16945 0.0
O386 O 0.6774 0.78809 0.09651 0.0
O387 O 0.63381 0.79533 0.09882 0.0
O388 O 0.68163 0.76932 0.17396 0.0
O389 O 0.68015 0.72881 0.1496 0.0
O390 O 0.64233 0.73412 0.061 0.0
O391 O 0.64319 0.68845 0.08347 0.0
H392 H 0.63612 0.6034 0.21578 0.0
H393 H 0.65767 0.58845 0.28257 0.0
H394 H 0.71736 0.66557 0.29837 0.0
H395 H 0.69411 0.68098 0.23252 0.0
H396 H 0.69816 0.8353 0.05573 0.0
H397 H 0.6941 0.85532 0.98874 0.0
H398 H 0.60533 0.81907 0.95815 0.0
H399 H 0.60945 0.79881 1.0249 0.0
La400 La 0.63197 0.26694 0.87117 0.0
La401 La 0.63216 0.20683 0.84633 0.0
C402 C 0.62784 0.31397 0.90152 0.0
C403 C 0.62361 0.32192 0.94084 0.0
C404 C 0.63656 0.34817 0.95828 0.0
C405 C 0.63774 0.35354 0.99877 0.0
C406 C 0.62612 0.33254 1.02198 0.0
C407 C 0.6115 0.30705 1.00371 0.0
C408 C 0.6104 0.30173 0.96345 0.0
C409 C 0.67793 0.25635 0.84491 0.0
C410 C 0.63455 0.21821 0.9393 0.0
C411 C 0.64966 0.16395 0.82085 0.0
C412 C 0.66588 0.15853 0.79009 0.0
C413 C 0.65452 0.13734 0.76091 0.0
C414 C 0.66765 0.13422 0.72869 0.0
C415 C 0.69251 0.15227 0.72508 0.0
C416 C 0.7051 0.17201 0.75609 0.0
C417 C 0.69185 0.17513 0.78826 0.0
C418 C 0.58408 0.21621 0.86571 0.0
C419 C 0.61122 0.25404 0.77921 0.0
O420 O 0.65228 0.30418 0.90229 0.0
O421 O 0.60626 0.29841 0.87865 0.0
O422 O 0.66548 0.27901 0.83747 0.0
O423 O 0.6652 0.24078 0.86758 0.0
O424 O 0.63198 0.24514 0.92937 0.0
O425 O 0.63725 0.19942 0.91184 0.0
O426 O 0.62377 0.17096 0.8078 0.0
O427 O 0.66381 0.17957 0.85177 0.0
O428 O 0.59357 0.19155 0.86822 0.0
O429 O 0.59996 0.23296 0.84867 0.0
O430 O 0.62085 0.22863 0.78669 0.0
O431 O 0.61097 0.27166 0.809 0.0
H432 H 0.64707 0.36384 0.94119 0.0
H433 H 0.64911 0.37335 1.01239 0.0
H434 H 0.60195 0.29077 1.02097 0.0
H435 H 0.60061 0.28124 0.95063 0.0
H436 H 0.63467 0.12412 0.76196 0.0
H437 H 0.65699 0.11907 0.70513 0.0
H438 H 0.72431 0.18606 0.75442 0.0
H439 H 0.70137 0.19129 0.81079 0.0
La440 La 0.90201 0.73965 0.48385 0.0
La441 La 0.89841 0.79841 0.45757 0.0
C442 C 0.89852 0.69298 0.51878 0.0
C443 C 0.90095 0.68293 0.55999 0.0
C444 C 0.87919 0.66279 0.56823 0.0
C445 C 0.879 0.65452 0.60745 0.0
C446 C 0.90083 0.666 0.63932 0.0
C447 C 0.92283 0.68608 0.63086 0.0
C448 C 0.92277 0.69465 0.59155 0.0
C449 C 0.85658 0.74661 0.42666 0.0
C450 C 0.90647 0.78876 0.55249 0.0
C451 C 0.87831 0.84344 0.43229 0.0
C452 C 0.88225 0.8629 0.40001 0.0
C453 C 0.90381 0.86009 0.37884 0.0
C454 C 0.90618 0.87715 0.34606 0.0
C455 C 0.88694 0.89725 0.3338 0.0
C456 C 0.86586 0.90056 0.3559 0.0
C457 C 0.86357 0.88346 0.38888 0.0
C458 C 0.95151 0.78837 0.47779 0.0
C459 C 0.9208 0.75358 0.40245 0.0
O460 O 0.87685 0.70747 0.50674 0.0
O461 O 0.92191 0.70412 0.50734 0.0
O462 O 0.87231 0.72639 0.42816 0.0
O463 O 0.86645 0.76287 0.45736 0.0
O464 O 0.90751 0.76159 0.54372 0.0
O465 O 0.90093 0.80683 0.52265 0.0
O466 O 0.9007 0.84277 0.4614 0.0
O467 O 0.86583 0.81792 0.42065 0.0
O468 O 0.94228 0.8069 0.45143 0.0
O469 O 0.93119 0.7777 0.49386 0.0
O470 O 0.90822 0.77747 0.40323 0.0
O471 O 0.92399 0.73673 0.43407 0.0
H472 H 0.86189 0.65389 0.54428 0.0
H473 H 0.86146 0.63943 0.61276 0.0
H474 H 0.94028 0.69503 0.65452 0.0
H475 H 0.93956 0.71056 0.58592 0.0
H476 H 0.91825 0.84411 0.38695 0.0
H477 H 0.92223 0.8736 0.32916 0.0
H478 H 0.85079 0.91587 0.34715 0.0
H479 H 0.84679 0.8858 0.40505 0.0
La480 La 0.57261 0.64027 0.66591 0.0
La481 La 0.51325 0.63202 0.67497 0.0
C482 C 0.62029 0.63304 0.65062 0.0
C483 C 0.63346 0.62209 0.61995 0.0
C484 C 0.61784 0.61594 0.58094 0.0
C485 C 0.63153 0.6068 0.55188 0.0
C486 C 0.66095 0.6036 0.56162 0.0
C487 C 0.67609 0.60868 0.60127 0.0
C488 C 0.66241 0.61789 0.6302 0.0
C489 C 0.55808 0.68374 0.70105 0.0
C490 C 0.52338 0.66033 0.59449 0.0
C491 C 0.46479 0.62708 0.69281 0.0
C492 C 0.45442 0.63362 0.72839 0.0
C493 C 0.42772 0.62066 0.73351 0.0
C494 C 0.41894 0.62479 0.76928 0.0
C495 C 0.43681 0.64206 0.79996 0.0
C496 C 0.46315 0.65571 0.79407 0.0
C497 C 0.47196 0.65138 0.75857 0.0
C498 C 0.52589 0.59132 0.63033 0.0
C499 C 0.56371 0.63522 0.75581 0.0
O500 O 0.60827 0.6564 0.64261 0.0
O501 O 0.60494 0.61409 0.66785 0.0
O502 O 0.584 0.67708 0.70738 0.0
O503 O 0.5428 0.66818 0.67331 0.0
O504 O 0.55002 0.65304 0.60483 0.0
O505 O 0.50585 0.65663 0.61993 0.0
O506 O 0.48134 0.60675 0.69706 0.0
O507 O 0.47502 0.64908 0.67462 0.0
O508 O 0.50242 0.60264 0.62448 0.0
O509 O 0.54205 0.60232 0.66243 0.0
O510 O 0.53595 0.63537 0.73979 0.0
O511 O 0.58193 0.63351 0.73169 0.0
H512 H 0.59535 0.61888 0.5728 0.0
H513 H 0.61936 0.60345 0.52145 0.0
H514 H 0.69866 0.60613 0.60972 0.0
H515 H 0.6746 0.62225 0.66047 0.0
H516 H 0.41408 0.60678 0.71037 0.0
H517 H 0.39855 0.61409 0.77333 0.0
H518 H 0.47754 0.66869 0.8176 0.0
H519 H 0.49282 0.66117 0.75523 0.0
La520 La 0.00452 0.38535 0.21415 0.0
La521 La 0.02481 0.3667 0.13305 0.0
C522 C 0.98975 0.37616 0.28156 0.0
C523 C 0.97971 0.36886 0.32082 0.0
C524 C 0.99231 0.38318 0.35763 0.0
C525 C 0.9845 0.37438 0.39438 0.0
C526 C 0.96363 0.35076 0.39639 0.0
C527 C 0.95083 0.33683 0.35918 0.0
C528 C 0.95875 0.34551 0.32264 0.0
C529 C 0.01265 0.42639 0.16252 0.0
C530 C 0.07037 0.38083 0.2156 0.0
C531 C 0.04833 0.35855 0.07368 0.0
C532 C 0.04996 0.34422 1.03431 0.0
C533 C 0.05859 0.31678 1.03321 0.0
C534 C 0.06474 0.30536 0.99801 0.0
C535 C 0.06275 0.32084 0.96207 0.0
C536 C 0.05346 0.34807 0.96303 0.0
C537 C 0.04737 0.35949 0.99829 0.0
C538 C 1.00074 0.32799 0.17537 0.0
C539 C 0.96067 0.37567 0.13053 0.0
O540 O 0.00835 0.39787 0.27599 0.0
O541 O 0.97842 0.3616 0.24834 0.0
O542 O 0.99737 0.42788 0.18998 0.0
O543 O 0.02516 0.40426 0.16836 0.0
O544 O 0.04998 0.38335 0.23582 0.0
O545 O 0.06576 0.37627 0.17622 0.0
O546 O 0.05161 0.34389 0.10674 0.0
O547 O 0.0315 0.3784 0.07477 0.0
O548 O 0.99923 0.32516 0.13716 0.0
O549 O 0.01689 0.34995 0.18776 0.0
O550 O 0.98159 0.37677 0.11025 0.0
O551 O 0.96446 0.37526 0.1702 0.0
H552 H 0.00881 0.40095 0.35829 0.0
H553 H 0.99557 0.38593 0.42147 0.0
H554 H 0.93434 0.31901 0.35782 0.0
H555 H 0.94845 0.3335 0.29555 0.0
H556 H 0.0614 0.30422 0.06005 0.0
H557 H 0.07127 0.28425 0.99925 0.0
H558 H 0.05183 0.36123 0.93683 0.0
H559 H 0.04152 0.38089 0.99765 0.0
La560 La 0.53642 0.36648 0.426 0.0
La561 La 0.47712 0.36004 0.43638 0.0
C562 C 0.58497 0.36998 0.40853 0.0
C563 C 0.59639 0.36246 0.37432 0.0
C564 C 0.62494 0.37187 0.3732 0.0
C565 C 0.63568 0.36588 0.33967 0.0
C566 C 0.6179 0.35036 0.30709 0.0
C567 C 0.58944 0.34043 0.30889 0.0
C568 C 0.57875 0.34649 0.34231 0.0
C569 C 0.52482 0.40787 0.47044 0.0
C570 C 0.48536 0.36386 0.346 0.0
C571 C 0.4308 0.36948 0.45399 0.0
C572 C 0.41969 0.38157 0.48605 0.0
C573 C 0.39248 0.37052 0.49142 0.0
C574 C 0.38121 0.38121 0.52186 0.0
C575 C 0.39692 0.40337 0.54738 0.0
C576 C 0.42396 0.41504 0.54105 0.0
C577 C 0.43534 0.40411 0.51068 0.0
C578 C 0.48953 0.3157 0.40077 0.0
C579 C 0.52643 0.3391 0.50699 0.0
O580 O 0.56853 0.39042 0.40262 0.0
O581 O 0.57422 0.34848 0.42712 0.0
O582 O 0.54813 0.3963 0.47642 0.0
O583 O 0.50851 0.39693 0.43856 0.0
O584 O 0.51311 0.36302 0.36154 0.0
O585 O 0.46751 0.36647 0.37046 0.0
O586 O 0.44173 0.34548 0.46141 0.0
O587 O 0.44595 0.38737 0.43493 0.0
O588 O 0.4639 0.32302 0.39581 0.0
O589 O 0.50578 0.33109 0.42802 0.0
O590 O 0.50012 0.34725 0.49724 0.0
O591 O 0.54353 0.34186 0.48097 0.0
H592 H 0.63873 0.38419 0.39794 0.0
H593 H 0.6577 0.37365 0.33896 0.0
H594 H 0.5751 0.32888 0.28387 0.0
H595 H 0.55661 0.33919 0.34281 0.0
H596 H 0.38012 0.3532 0.47248 0.0
H597 H 0.36069 0.37119 0.52637 0.0
H598 H 0.43653 0.4322 0.56002 0.0
H599 H 0.45639 0.41302 0.50672 0.0
La600 La 0.02731 0.63683 0.97989 0.0
La601 La 0.05471 0.61945 0.90619 0.0
C602 C 0.01337 0.65072 1.0447 0.0
C603 C 0.00589 0.66034 0.08346 0.0
C604 C 0.01796 0.68691 0.10183 0.0
C605 C 0.00961 0.69711 0.13611 0.0
C606 C 0.98862 0.6813 0.15372 0.0
C607 C 0.97681 0.65452 0.13544 0.0
C608 C 0.98525 0.6443 0.10118 0.0
C609 C 0.03542 0.67455 0.92498 0.0
C610 C 0.0937 0.63104 0.98959 0.0
C611 C 0.06853 0.62726 0.83774 0.0
C612 C 0.07523 0.63363 0.79624 0.0
C613 C 0.09799 0.62299 0.78293 0.0
C614 C 0.10501 0.63078 0.74538 0.0
C615 C 0.08966 0.64969 0.71914 0.0
C616 C 0.06666 0.65998 0.73259 0.0
C617 C 0.05974 0.65225 0.77003 0.0
C618 C 0.04454 0.57788 0.95609 0.0
C619 C 0.98571 0.61565 0.89925 0.0
O620 O 0.03141 0.6665 1.02724 0.0
O621 O 1.00406 0.62594 1.02632 0.0
O622 O 0.01462 0.67317 0.94386 0.0
O623 O 0.05154 0.6564 0.93874 0.0
O624 O 0.0706 0.6268 1.00558 0.0
O625 O 0.09234 0.63559 0.95091 0.0
O626 O 0.08149 0.61071 0.86497 0.0
O627 O 0.04718 0.63738 0.8488 0.0
O628 O 0.06212 0.57721 0.93157 0.0
O629 O 0.03102 0.59911 0.94764 0.0
O630 O 0.00826 0.61358 0.8828 0.0
O631 O 0.98756 0.62236 0.9376 0.0
H632 H 0.03385 0.70017 0.08945 0.0
H633 H 0.01994 0.7175 0.14888 0.0
H634 H 0.96035 0.64148 0.14694 0.0
H635 H 0.97508 0.62394 0.08805 0.0
H636 H 0.11083 0.6089 0.8019 0.0
H637 H 0.12309 0.62232 0.73749 0.0
H638 H 0.05355 0.67403 0.71406 0.0
H639 H 0.04212 0.66123 0.77857 0.0
H640 H 0.20942 0.14771 0.05897 0.0
H641 H 0.14622 0.07801 1.00757 0.0
H642 H 0.23087 0.14736 1.00031 0.0
H643 H 0.16693 0.07839 0.94832 0.0
H644 H 0.20634 0.17218 0.86397 0.0
H645 H 0.20925 0.16406 0.93452 0.0
H646 H 0.20665 0.07381 0.91424 0.0
H647 H 0.20411 0.08201 0.8429 0.0
C648 C 0.20058 0.1318 1.03565 0.0
C649 C 0.17579 0.11322 1.03745 0.0
C650 C 0.2128 0.13171 1.00199 0.0
C651 C 0.20039 0.11312 0.96953 0.0
C652 C 0.17716 0.09288 0.97293 0.0
C653 C 0.16497 0.09294 1.00659 0.0
C654 C 0.20767 0.1507 0.87457 0.0
C655 C 0.20431 0.12766 0.84763 0.0
C656 C 0.20936 0.14602 0.91526 0.0
C657 C 0.20763 0.11821 0.92981 0.0
C658 C 0.20747 0.09542 0.90363 0.0
C659 C 0.20592 0.10012 0.86285 0.0
H660 H 0.12435 0.73215 0.20718 0.0
H661 H 0.07092 0.77941 0.26227 0.0
H662 H 0.10368 0.75119 0.14167 0.0
H663 H 0.05107 0.7987 0.19814 0.0
H664 H 1.00289 0.81766 0.07296 0.0
H665 H 0.02109 0.79385 0.13522 0.0
H666 H 0.10187 0.79128 0.09973 0.0
H667 H 0.08336 0.81432 1.03724 0.0
C668 C 0.10816 0.74642 0.20553 0.0
C669 C 0.09967 0.7541 0.24077 0.0
C670 C 0.09634 0.75768 0.16774 0.0
C671 C 0.07543 0.77692 0.16364 0.0
C672 C 0.06663 0.78388 0.19894 0.0
C673 C 0.07842 0.77281 0.23637 0.0
C674 C 0.02455 0.81206 0.07832 0.0
C675 C 0.04146 0.81833 1.04946 0.0
C676 C 0.03522 0.79837 0.11449 0.0
C677 C 0.06336 0.79039 0.12361 0.0
C678 C 0.08009 0.79647 0.09442 0.0
C679 C 0.06941 0.81009 0.0583 0.0
H680 H 0.36655 0.90764 0.42486 0.0
H681 H 0.33813 0.81758 0.41348 0.0
H682 H 0.37403 0.90448 0.49724 0.0
H683 H 0.34481 0.81463 0.48581 0.0
H684 H 0.442 0.82314 0.56293 0.0
H685 H 0.39884 0.82032 0.51083 0.0
H686 H 0.37005 0.88922 0.56818 0.0
H687 H 0.41349 0.89129 0.62153 0.0
C688 C 0.36034 0.8875 0.43772 0.0
C689 C 0.35327 0.86261 0.41384 0.0
C690 C 0.36431 0.88571 0.47928 0.0
C691 C 0.36126 0.859 0.49704 0.0
C692 C 0.34801 0.83535 0.47271 0.0
C693 C 0.34419 0.83709 0.43116 0.0
C694 C 0.4259 0.83692 0.56511 0.0
C695 C 0.43093 0.85761 0.59555 0.0
C696 C 0.40096 0.83512 0.53563 0.0
C697 C 0.38096 0.85457 0.53546 0.0
C698 C 0.38499 0.87387 0.56782 0.0
C699 C 0.40979 0.87515 0.59807 0.0
H700 H 0.44523 0.19997 0.89246 0.0
H701 H 0.41175 0.27102 0.82755 0.0
H702 H 0.4609 0.18446 0.83347 0.0
H703 H 0.42646 0.25509 0.76787 0.0
H704 H 0.47482 0.23368 0.67165 0.0
H705 H 0.46097 0.24972 0.73146 0.0
H706 H 0.45114 0.16313 0.77092 0.0
H707 H 0.46671 0.14727 0.71234 0.0
C708 C 0.44093 0.21228 0.8655 0.0
C709 C 0.427 0.2369 0.86545 0.0
C710 C 0.44985 0.20319 0.83108 0.0
C711 C 0.44513 0.21814 0.79467 0.0
C712 C 0.43118 0.24286 0.7948 0.0
C713 C 0.42243 0.25205 0.82935 0.0
C714 C 0.47019 0.21785 0.69312 0.0
C715 C 0.47225 0.18884 0.68598 0.0
C716 C 0.46165 0.22719 0.72774 0.0
C717 C 0.45455 0.20804 0.75716 0.0
C718 C 0.4566 0.17904 0.75001 0.0
C719 C 0.46525 0.16971 0.71547 0.0
H720 H 0.84082 0.90549 0.27481 0.0
H721 H 0.93324 0.9216 0.30567 0.0
H722 H 0.8417 0.91747 0.20558 0.0
H723 H 0.93425 0.93222 0.23622 0.0
H724 H 0.93275 0.94591 0.10861 0.0
H725 H 0.92343 0.95749 0.17404 0.0
H726 H 0.85641 0.88657 0.15995 0.0
H727 H 0.86563 0.87517 0.09526 0.0
C728 C 0.86127 0.91249 0.26712 0.0
C729 C 0.88704 0.91193 0.2954 0.0
C730 C 0.86178 0.91911 0.22736 0.0
C731 C 0.88805 0.92505 0.2152 0.0
C732 C 0.91362 0.9277 0.24447 0.0
C733 C 0.91309 0.92126 0.28424 0.0
C734 C 0.91572 0.93315 0.11935 0.0
C735 C 0.90018 0.90941 0.09706 0.0
C736 C 0.91032 0.93985 0.15666 0.0
C737 C 0.88931 0.92288 0.17232 0.0
C738 C 0.87242 0.90044 0.14861 0.0
C739 C 0.8778 0.89378 0.11144 0.0
H740 H 0.92933 0.25858 0.90359 0.0
H741 H 0.96931 0.19811 0.84693 0.0
H742 H 0.94863 0.23897 0.96939 0.0
H743 H 0.98828 0.17877 0.91166 0.0
H744 H 0.04055 0.16294 1.037 0.0
H745 H 0.02252 0.18546 0.97346 0.0
H746 H 0.94544 0.19827 1.01337 0.0
H747 H 0.96353 0.17582 0.07683 0.0
C748 C 0.94227 0.24126 0.90491 0.0
C749 C 0.94745 0.23017 0.86912 0.0
C750 C 0.95331 0.22976 0.9429 0.0
C751 C 0.97037 0.207 0.94677 0.0
C752 C 0.97576 0.19637 0.9109 0.0
C753 C 0.96451 0.20753 0.87321 0.0
C754 C 0.01974 0.17051 1.0324 0.0
C755 C 1.00367 0.16714 0.06272 0.0
C756 C 0.00919 0.18346 0.99552 0.0
C757 C 0.98218 0.19395 0.98729 0.0
C758 C 0.96635 0.19094 1.01796 0.0
C759 C 0.97676 0.17771 0.05463 0.0
H760 H 0.69525 0.10892 0.67343 0.0
H761 H 0.7084 0.20043 0.68671 0.0
H762 H 0.68417 0.11338 0.60111 0.0
H763 H 0.69861 0.20476 0.61452 0.0
H764 H 0.60207 0.18452 0.53952 0.0
H765 H 0.6456 0.19171 0.59081 0.0
H766 H 0.68318 0.13082 0.53049 0.0
H767 H 0.63917 0.12415 0.4781 0.0
C768 C 0.69729 0.12995 0.66094 0.0
C769 C 0.701 0.15428 0.68568 0.0
C770 C 0.6913 0.13254 0.61936 0.0
C771 C 0.68919 0.15949 0.60238 0.0
C772 C 0.69929 0.18372 0.62704 0.0
C773 C 0.70497 0.18117 0.66859 0.0
C774 C 0.61999 0.1734 0.53656 0.0
C775 C 0.61731 0.15351 0.50552 0.0
C776 C 0.64515 0.17777 0.56561 0.0
C777 C 0.66791 0.16179 0.5647 0.0
C778 C 0.66604 0.14348 0.53177 0.0
C779 C 0.64092 0.1396 0.50201 0.0
H780 H 0.58235 0.85318 0.38968 0.0
H781 H 0.57019 0.76698 0.43008 0.0
H782 H 0.59767 0.83619 0.33149 0.0
H783 H 0.58367 0.74991 0.37068 0.0
H784 H 0.63212 0.72525 0.27586 0.0
H785 H 0.61783 0.74253 0.33504 0.0
H786 H 0.58791 0.8149 0.26895 0.0
H787 H 0.60325 0.79798 0.21043 0.0
C788 C 0.58284 0.83056 0.38656 0.0
C789 C 0.57477 0.81184 0.41585 0.0
C790 C 0.59135 0.8206 0.35225 0.0
C791 C 0.59215 0.79132 0.34515 0.0
C792 C 0.58398 0.7726 0.37436 0.0
C793 C 0.57564 0.78256 0.40875 0.0
C794 C 0.62251 0.74489 0.27383 0.0
C795 C 0.6191 0.76006 0.23774 0.0
C796 C 0.614 0.75488 0.3081 0.0
C797 C 0.60141 0.78047 0.30794 0.0
C798 C 0.59787 0.79549 0.27155 0.0
C799 C 0.6066 0.78559 0.2374 0.0
H800 H 0.69674 0.57314 0.3285 0.0
H801 H 0.70408 0.66232 0.36031 0.0
H802 H 0.70063 0.56116 0.39904 0.0
H803 H 0.70882 0.65042 0.42996 0.0
H804 H 0.71298 0.62933 0.55226 0.0
H805 H 0.73263 0.62892 0.4921 0.0
H806 H 0.66252 0.56644 0.43754 0.0
H807 H 0.6434 0.56606 0.49825 0.0
C808 C 0.69989 0.5902 0.35051 0.0
C809 C 0.69941 0.61865 0.33858 0.0
C810 C 0.70233 0.58332 0.39085 0.0
C811 C 0.70472 0.60481 0.41989 0.0
C812 C 0.70733 0.63335 0.4084 0.0
C813 C 0.70458 0.6402 0.36819 0.0
C814 C 0.70239 0.61462 0.5281 0.0
C815 C 0.67627 0.59817 0.52955 0.0
C816 C 0.71362 0.61451 0.49359 0.0
C817 C 0.69885 0.59805 0.45995 0.0
C818 C 0.67445 0.57931 0.46303 0.0
C819 C 0.66324 0.57939 0.49757 0.0
H820 H 0.61792 0.30792 0.75156 0.0
H821 H 0.57813 0.22386 0.71147 0.0
H822 H 0.59703 0.32703 0.68695 0.0
H823 H 0.55647 0.24338 0.64631 0.0
H824 H 0.49729 0.30447 0.55602 0.0
H825 H 0.51774 0.28163 0.61907 0.0
H826 H 0.60184 0.32189 0.61243 0.0
H827 H 0.58179 0.34365 0.54932 0.0
C828 C 0.60481 0.29336 0.72885 0.0
C829 C 0.60012 0.26415 0.73716 0.0
C830 C 0.59271 0.30444 0.69157 0.0
C831 C 0.57466 0.28699 0.66104 0.0
C832 C 0.56989 0.25766 0.66907 0.0
C833 C 0.58267 0.24635 0.70635 0.0
C834 C 0.52012 0.30853 0.56807 0.0
C835 C 0.53772 0.32622 0.54723 0.0
C836 C 0.53195 0.29517 0.60416 0.0
C837 C 0.56164 0.29972 0.62126 0.0
C838 C 0.57898 0.31775 0.6006 0.0
C839 C 0.56736 0.33034 0.56419 0.0
H840 H 0.93588 0.3296 0.08672 0.0
H841 H 0.9206 0.41282 0.12084 0.0
H842 H 0.89298 0.32602 1.03461 0.0
H843 H 0.87675 0.40953 0.06819 0.0
H844 H 0.86779 0.41032 0.92599 0.0
H845 H 0.87627 0.41388 0.99827 0.0
H846 H 0.84393 0.32514 1.003 0.0
H847 H 0.83778 0.32099 0.93092 0.0
C848 C 0.92254 0.34672 0.08372 0.0
C849 C 0.93144 0.37161 0.10686 0.0
C850 C 0.89764 0.34463 0.05417 0.0
C851 C 0.8814 0.3677 1.04669 0.0
C852 C 0.88891 0.39154 0.07288 0.0
C853 C 0.91391 0.39348 0.1029 0.0
C854 C 0.86171 0.39173 0.94236 0.0
C855 C 0.85405 0.36498 0.92304 0.0
C856 C 0.86612 0.39386 0.98398 0.0
C857 C 0.86242 0.36929 1.00656 0.0
C858 C 0.84826 0.34415 0.9864 0.0
C859 C 0.84455 0.34183 0.94484 0.0
H860 H 0.94752 0.70655 0.39277 0.0
H861 H 0.91856 0.77951 0.32786 0.0
H862 H 0.96394 0.69046 0.33513 0.0
H863 H 0.9347 0.76304 0.26917 0.0
H864 H 0.98688 0.7375 0.17752 0.0
H865 H 0.97187 0.75526 0.23579 0.0
H866 H 0.95207 0.66913 0.27197 0.0
H867 H 0.96825 0.65143 0.21497 0.0
C868 C 0.9444 0.71927 0.3661 0.0
C869 C 0.93134 0.74451 0.36569 0.0
C870 C 0.95375 0.70975 0.33239 0.0
C871 C 0.95066 0.72495 0.29628 0.0
C872 C 0.93793 0.75051 0.29599 0.0
C873 C 0.92843 0.76003 0.3299 0.0
C874 C 0.97969 0.72214 0.19796 0.0
C875 C 0.97906 0.69266 0.1904 0.0
C876 C 0.97058 0.7325 0.2316 0.0
C877 C 0.96044 0.71397 0.2596 0.0
C878 C 0.95991 0.68454 0.25209 0.0
C879 C 0.96895 0.67419 0.21849 0.0
H880 H 0.34164 0.40856 0.55381 0.0
H881 H 0.4287 0.41514 0.62278 0.0
H882 H 0.32387 0.40637 0.61612 0.0
H883 H 0.41074 0.41439 0.68431 0.0
H884 H 0.35757 0.33926 0.74332 0.0
H885 H 0.36112 0.35633 0.67728 0.0
H886 H 0.35059 0.44093 0.71235 0.0
H887 H 0.3453 0.42374 0.77867 0.0
C888 C 0.35699 0.41055 0.5821 0.0
C889 C 0.38657 0.41127 0.58333 0.0
C890 C 0.34676 0.40966 0.61756 0.0
C891 C 0.36606 0.41023 0.65448 0.0
C892 C 0.39561 0.41426 0.65587 0.0
C893 C 0.40584 0.41474 0.62056 0.0
C894 C 0.35455 0.3612 0.73678 0.0
C895 C 0.35149 0.38018 0.76667 0.0
C896 C 0.35682 0.37096 0.69896 0.0
C897 C 0.35627 0.39982 0.69035 0.0
C898 C 0.35101 0.41854 0.71872 0.0
C899 C 0.34827 0.40869 0.7566 0.0
H900 H 0.5526 0.69676 0.5476 0.0
H901 H 0.46844 0.65474 0.55041 0.0
H902 H 0.53248 0.72012 0.48483 0.0
H903 H 0.44876 0.67699 0.48747 0.0
H904 H 0.43606 0.69286 0.34845 0.0
H905 H 0.45656 0.67333 0.41289 0.0
H906 H 0.49137 0.75757 0.45811 0.0
H907 H 0.47022 0.77752 0.39299 0.0
C908 C 0.52992 0.69219 0.53475 0.0
C909 C 0.51232 0.67354 0.55442 0.0
C910 C 0.51828 0.70584 0.49883 0.0
C911 C 0.48881 0.70065 0.48072 0.0
C912 C 0.47146 0.68167 0.50017 0.0
C913 C 0.48286 0.66878 0.53645 0.0
C914 C 0.4479 0.70747 0.37203 0.0
C915 C 0.45116 0.73697 0.36497 0.0
C916 C 0.45975 0.69613 0.40924 0.0
C917 C 0.47609 0.71365 0.44101 0.0
C918 C 0.4794 0.74326 0.4343 0.0
C919 C 0.46689 0.75478 0.39703 0.0
H920 H 0.21312 0.59702 0.19859 0.0
H921 H 0.20183 0.68605 0.18763 0.0
H922 H 0.19956 0.59134 0.12583 0.0
H923 H 0.18872 0.6804 0.11578 0.0
H924 H 0.10506 0.59255 1.04691 0.0
H925 H 0.14762 0.59334 0.09955 0.0
H926 H 0.18789 0.66558 1.04547 0.0
H927 H 0.14471 0.6644 0.99186 0.0
C928 C 0.20897 0.61561 0.18068 0.0
C929 C 0.20732 0.64167 0.19899 0.0
C930 C 0.20138 0.61239 0.13902 0.0
C931 C 0.19204 0.63518 0.1153 0.0
C932 C 0.19556 0.66232 0.13318 0.0
C933 C 0.20308 0.66555 0.17474 0.0
C934 C 0.12331 0.60814 1.04572 0.0
C935 C 0.12155 0.62884 1.01615 0.0
C936 C 0.14794 0.60833 0.07552 0.0
C937 C 0.17117 0.62962 0.07679 0.0
C938 C 0.1703 0.64896 1.0452 0.0
C939 C 0.14565 0.64838 1.01473 0.0
H940 H 0.10081 0.29661 0.72004 0.0
H941 H 0.12397 0.22034 0.78112 0.0
H942 H 0.08654 0.31347 0.77934 0.0
H943 H 0.10903 0.23683 0.84052 0.0
H944 H 0.10356 0.28446 0.95623 0.0
H945 H 0.11722 0.26665 0.89703 0.0
H946 H 0.05441 0.31209 0.8217 0.0
H947 H 0.0409 0.33002 0.88094 0.0
C948 C 0.1028 0.28321 0.74604 0.0
C949 C 0.11378 0.2569 0.745 0.0
C950 C 0.09428 0.2929 0.78048 0.0
C951 C 0.0963 0.27683 0.81589 0.0
C952 C 0.10727 0.25042 0.81474 0.0
C953 C 0.11576 0.24069 0.78017 0.0
C954 C 0.09229 0.29056 0.92717 0.0
C955 C 0.07091 0.30907 0.92449 0.0
C956 C 0.10025 0.28017 0.89264 0.0
C957 C 0.08728 0.28766 0.85341 0.0
C958 C 0.0657 0.30595 0.85073 0.0
C959 C 0.05779 0.31639 0.88527 0.0
H960 H 0.96228 0.28088 0.15494 0.0
H961 H 0.01705 0.32723 0.25624 0.0
H962 H 0.95929 0.23917 0.19543 0.0
H963 H 0.01253 0.28614 0.29786 0.0
H964 H 0.06997 0.22042 0.26072 0.0
H965 H 0.04447 0.25555 0.28462 0.0
H966 H 0.96408 0.20273 0.24169 0.0
H967 H 0.98974 0.16965 0.21402 0.0
C968 C 0.9726 0.28242 0.1864 0.0
C969 C 0.99089 0.3066 0.20202 0.0
C970 C 0.97055 0.25863 0.21021 0.0
C971 C 0.98771 0.25875 0.24934 0.0
C972 C 1.00038 0.28499 0.26726 0.0
C973 C 1.00301 0.30856 0.24327 0.0
C974 C 0.0469 0.21621 0.25709 0.0
C975 C 0.03144 0.19339 0.23333 0.0
C976 C 0.0321 0.23601 0.27163 0.0
C977 C 1.00178 0.23299 0.26188 0.0
C978 C 0.98727 0.20651 0.24735 0.0
C979 C 1.0019 0.18759 0.23105 0.0
H980 H 0.9954 0.8126 0.44731 0.0
H981 H 0.96681 0.73603 0.50372 0.0
H982 H 0.02533 0.78666 0.41553 0.0
H983 H 0.9961 0.70925 0.47011 0.0
H984 H 0.07535 0.68523 0.41752 0.0
H985 H 0.04411 0.7023 0.45771 0.0
H986 H 0.00824 0.75317 0.35853 0.0
H987 H 0.04047 0.73691 0.31921 0.0
C988 C 0.99609 0.79023 0.45368 0.0
C989 C 0.97754 0.77573 0.47576 0.0
C990 C 0.0128 0.77528 0.43489 0.0
C991 C 0.01144 0.74568 0.43832 0.0
C992 C 0.99666 0.73196 0.46592 0.0
C993 C 0.98005 0.7472 0.48526 0.0
C994 C 0.05976 0.69904 0.40387 0.0
C995 C 0.06012 0.71003 0.36564 0.0
C996 C 0.04209 0.70893 0.42692 0.0
C997 C 0.0246 0.72974 0.41163 0.0
C998 C 0.02231 0.73774 0.37135 0.0
C999 C 0.0402 0.72807 0.34851 0.0
H1000 H 0.50479 0.69909 0.6902 0.0
H1001 H 0.58538 0.70461 0.77531 0.0
H1002 H 0.48811 0.73272 0.72939 0.0
H1003 H 0.56865 0.73849 0.81588 0.0
H1004 H 0.56996 0.82014 0.74183 0.0
H1005 H 0.57246 0.78421 0.79221 0.0
H1006 H 0.48011 0.76973 0.76987 0.0
H1007 H 0.47765 0.80659 0.71918 0.0
C1008 C 0.51868 0.7071 0.71802 0.0
C1009 C 0.54682 0.70059 0.72868 0.0
C1010 C 0.509 0.7262 0.74126 0.0
C1011 C 0.528 0.74034 0.77442 0.0
C1012 C 0.55407 0.72933 0.78923 0.0
C1013 C 0.56388 0.71031 0.7657 0.0
C1014 C 0.55018 0.80971 0.74835 0.0
C1015 C 0.52368 0.81395 0.72445 0.0
C1016 C 0.55141 0.78938 0.778 0.0
C1017 C 0.52634 0.7712 0.78021 0.0
C1018 C 0.49991 0.78159 0.76549 0.0
C1019 C 0.49842 0.80217 0.73582 0.0
H1020 H 0.57286 0.18948 0.93209 0.0
H1021 H 0.55699 0.26357 0.86076 0.0
H1022 H 0.55249 0.2087 0.98411 0.0
H1023 H 0.5337 0.28168 0.91067 0.0
H1024 H 0.499 0.31775 0.99852 0.0
H1025 H 0.53947 0.30208 0.97536 0.0
H1026 H 0.50793 0.21479 0.99468 0.0
H1027 H 0.46913 0.23077 1.02004 0.0
C1028 C 0.56464 0.2098 0.92743 0.0
C1029 C 0.56709 0.22551 0.8931 0.0
C1030 C 0.55295 0.22082 0.95721 0.0
C1031 C 0.54194 0.24707 0.95213 0.0
C1032 C 0.54302 0.26199 0.9165 0.0
C1033 C 0.55583 0.25145 0.8875 0.0
C1034 C 0.50185 0.29541 1.00009 0.0
C1035 C 0.48053 0.2752 1.00939 0.0
C1036 C 0.52467 0.28635 0.98607 0.0
C1037 C 0.52594 0.25712 0.98093 0.0
C1038 C 0.50748 0.23745 0.99742 0.0
C1039 C 0.48509 0.24657 1.01203 0.0
H1040 H 0.04678 0.79587 0.91567 0.0
H1041 H 0.96547 0.78791 0.83198 0.0
H1042 H 0.06463 0.76408 0.87542 0.0
H1043 H 0.98309 0.75511 0.79067 0.0
H1044 H 0.9874 0.67715 0.86788 0.0
H1045 H 0.98284 0.70838 0.81137 0.0
H1046 H 0.07443 0.7283 0.83283 0.0
H1047 H 0.07941 0.69586 0.88939 0.0
C1048 C 0.03288 0.78758 0.888 0.0
C1049 C 0.00444 0.79319 0.8778 0.0
C1050 C 0.04318 0.76946 0.86417 0.0
C1051 C 0.02455 0.75502 0.83095 0.0
C1052 C 0.99761 0.76465 0.81712 0.0
C1053 C 0.98728 0.783 0.84109 0.0
C1054 C 0.00666 0.68787 0.8602 0.0
C1055 C 0.03358 0.68664 0.88518 0.0
C1056 C 1.00426 0.70536 0.82708 0.0
C1057 C 0.02815 0.72479 0.82352 0.0
C1058 C 0.05531 0.7161 0.83895 0.0
C1059 C 0.05824 0.6983 0.87211 0.0
H1060 H 0.54414 0.68184 0.09561 0.0
H1061 H 0.58098 0.76825 0.08422 0.0
H1062 H 0.50345 0.69914 0.116 0.0
H1063 H 0.54164 0.78564 0.10653 0.0
H1064 H 0.47844 0.81275 0.1703 0.0
H1065 H 0.49726 0.79399 0.11635 0.0
H1066 H 0.50949 0.71655 0.18237 0.0
H1067 H 0.48899 0.73493 0.23495 0.0
C1068 C 0.54283 0.7045 0.09552 0.0
C1069 C 0.56612 0.72389 0.09033 0.0
C1070 C 0.51977 0.71444 0.10781 0.0
C1071 C 0.52021 0.74368 0.11527 0.0
C1072 C 0.54075 0.76294 0.10205 0.0
C1073 C 0.56347 0.753 0.08922 0.0
C1074 C 0.48512 0.79167 0.17309 0.0
C1075 C 0.48181 0.77493 0.20627 0.0
C1076 C 0.49572 0.78085 0.14207 0.0
C1077 C 0.50439 0.75351 0.14445 0.0
C1078 C 0.50191 0.73721 0.17852 0.0
C1079 C 0.49066 0.74783 0.20906 0.0
H1080 H 0.47069 0.17944 0.35766 0.0
H1081 H 0.56275 0.18954 0.37348 0.0
H1082 H 0.4678 0.21598 0.30821 0.0
H1083 H 0.55992 0.22677 0.32359 0.0
H1084 H 0.54239 0.29957 0.40602 0.0
H1085 H 0.55568 0.26491 0.36438 0.0
H1086 H 0.4724 0.26142 0.28466 0.0
H1087 H 0.45884 0.29537 0.32822 0.0
C1088 C 0.49028 0.18911 0.34969 0.0
C1089 C 0.51703 0.1837 0.37153 0.0
C1090 C 0.48879 0.20988 0.32061 0.0
C1091 C 0.5141 0.22715 0.31678 0.0
C1092 C 0.54015 0.21563 0.32924 0.0
C1093 C 0.54187 0.19471 0.35838 0.0
C1094 C 0.52714 0.2917 0.37925 0.0
C1095 C 0.49914 0.29873 0.37154 0.0
C1096 C 0.53484 0.27207 0.35456 0.0
C1097 C 0.51408 0.25829 0.32279 0.0
C1098 C 0.48825 0.27016 0.31038 0.0
C1099 C 0.4803 0.28932 0.33563 0.0
H1100 H 0.04152 0.17617 0.60675 0.0
H1101 H 0.0744 0.26238 0.58617 0.0
H1102 H 1.00073 0.19316 0.62736 0.0
H1103 H 0.03547 0.27971 0.60944 0.0
H1104 H 0.97448 0.30761 0.67709 0.0
H1105 H 0.99285 0.2882 0.62324 0.0
H1106 H 0.00775 0.21242 0.69227 0.0
H1107 H 0.9871 0.23117 0.74436 0.0
C1108 C 0.03927 0.19863 0.60475 0.0
C1109 C 0.06156 0.21828 0.597 0.0
C1110 C 0.01625 0.20846 0.61731 0.0
C1111 C 0.016 0.23785 0.62281 0.0
C1112 C 0.03521 0.25694 0.60675 0.0
C1113 C 0.05771 0.24705 0.59335 0.0
C1114 C 0.98166 0.28675 0.68053 0.0
C1115 C 0.97881 0.27045 0.71423 0.0
C1116 C 0.99206 0.27555 0.64959 0.0
C1117 C 1.00113 0.24836 0.65269 0.0
C1118 C 0.99972 0.23283 0.68773 0.0
C1119 C 0.98846 0.24372 0.71805 0.0
H1120 H 0.00471 0.0727 0.05755 0.0
H1121 H 0.05438 0.03817 0.1627 0.0
H1122 H 1.00352 0.02901 1.02006 0.0
H1123 H 0.05253 0.99354 0.12555 0.0
H1124 H 0.06553 0.92548 1.03903 0.0
H1125 H 0.06714 0.96876 0.07679 0.0
H1126 H 0.98354 0.98164 1.00795 0.0
H1127 H 0.98257 0.9381 0.96852 0.0
C1128 C 0.01571 0.05573 0.07265 0.0
C1129 C 0.02993 0.05924 0.11317 0.0
C1130 C 0.01461 0.0303 1.05115 0.0
C1131 C 0.02748 0.00701 0.06936 0.0
C1132 C 0.04248 0.0108 0.10985 0.0
C1133 C 0.04376 0.03655 0.13139 0.0
C1134 C 0.04732 0.93741 1.03166 0.0
C1135 C 0.024 0.92814 1.00009 0.0
C1136 C 0.04819 0.96241 0.05391 0.0
C1137 C 0.02562 0.97935 1.04596 0.0
C1138 C 1.00178 0.96975 1.01486 0.0
C1139 C 1.001 0.94455 0.99223 0.0
H1140 H 0.19576 0.77221 0.27252 0.0
H1141 H 0.22854 0.73211 0.38336 0.0
H1142 H 0.24141 0.77109 0.25216 0.0
H1143 H 0.27488 0.7325 0.36468 0.0
H1144 H 0.34669 0.71129 0.3083 0.0
H1145 H 0.3008 0.71249 0.32636 0.0
H1146 H 0.28895 0.78875 0.25769 0.0
H1147 H 0.33445 0.78589 0.23695 0.0
C1148 C 0.21292 0.76331 0.29267 0.0
C1149 C 0.20847 0.75195 0.32932 0.0
C1150 C 0.23932 0.7629 0.2812 0.0
C1151 C 0.26237 0.75168 0.3065 0.0
C1152 C 0.25779 0.74072 0.34361 0.0
C1153 C 0.23118 0.74063 0.35465 0.0
C1154 C 0.33431 0.72837 0.29692 0.0
C1155 C 0.34453 0.74874 0.2715 0.0
C1156 C 0.30789 0.72927 0.30776 0.0
C1157 C 0.29076 0.75094 0.2942 0.0
C1158 C 0.30106 0.77145 0.26863 0.0
C1159 C 0.32744 0.77014 0.25708 0.0
H1160 H 0.54671 0.02081 0.44398 0.0
H1161 H 0.52738 0.08296 0.52251 0.0
H1162 H 0.53742 0.9833 0.49091 0.0
H1163 H 0.51778 0.04568 0.56945 0.0
H1164 H 0.47626 0.96752 0.62695 0.0
H1165 H 0.48451 0.00455 0.57885 0.0
H1166 H 0.55654 0.96543 0.55661 0.0
H1167 H 0.54829 0.92869 0.60488 0.0
C1168 C 0.54035 0.0265 0.47125 0.0
C1169 C 0.53734 0.05495 0.47912 0.0
C1170 C 0.53513 0.00496 0.49836 0.0
C1171 C 0.52663 0.01119 0.5342 0.0
C1172 C 0.52371 0.03976 0.54198 0.0
C1173 C 0.52914 0.06127 0.51497 0.0
C1174 C 0.49381 0.96681 0.61171 0.0
C1175 C 0.51138 0.94484 0.6195 0.0
C1176 C 0.49867 0.98817 0.58419 0.0
C1177 C 0.5212 0.98817 0.56344 0.0
C1178 C 0.53869 0.96605 0.57128 0.0
C1179 C 0.53393 0.94485 0.599 0.0
H1180 H 0.31643 0.28788 0.90731 0.0
H1181 H 0.33599 0.20795 0.86685 0.0
H1182 H 0.27681 0.28735 0.84817 0.0
H1183 H 0.29661 0.20672 0.81007 0.0
H1184 H 0.23715 0.22045 0.6896 0.0
H1185 H 0.2777 0.22253 0.74722 0.0
H1186 H 0.23054 0.26692 0.81688 0.0
H1187 H 0.1909 0.26544 0.75929 0.0
C1188 C 0.31237 0.27023 0.8861 0.0
C1189 C 0.32971 0.24803 0.8924 0.0
C1190 C 0.28942 0.26969 0.85209 0.0
C1191 C 0.28303 0.24688 0.82349 0.0
C1192 C 0.30065 0.22498 0.83019 0.0
C1193 C 0.32338 0.22562 0.86358 0.0
C1194 C 0.23533 0.23017 0.71743 0.0
C1195 C 0.21051 0.24251 0.71964 0.0
C1196 C 0.25871 0.23154 0.75077 0.0
C1197 C 0.258 0.24524 0.78745 0.0
C1198 C 0.2327 0.25682 0.7895 0.0
C1199 C 0.20961 0.25559 0.75633 0.0
H1200 H 0.72344 0.2301 0.88509 0.0
H1201 H 0.69378 0.27376 0.77611 0.0
H1202 H 0.76921 0.22724 0.86559 0.0
H1203 H 0.73858 0.26956 0.75508 0.0
H1204 H 0.83177 0.28167 0.74148 0.0
H1205 H 0.78655 0.28554 0.7622 0.0
H1206 H 0.79445 0.20676 0.82586 0.0
H1207 H 0.84019 0.20424 0.80746 0.0
C1208 C 0.72657 0.23865 0.85661 0.0
C1209 C 0.70497 0.25205 0.8321 0.0
C1210 C 0.75285 0.23694 0.84513 0.0
C1211 C 0.75813 0.24822 0.8085 0.0
C1212 C 0.73603 0.26116 0.78384 0.0
C1213 C 0.71006 0.26331 0.79569 0.0
C1214 C 0.82393 0.26543 0.76031 0.0
C1215 C 0.83991 0.24292 0.77324 0.0
C1216 C 0.79769 0.26738 0.7719 0.0
C1217 C 0.78636 0.2465 0.7961 0.0
C1218 C 0.80235 0.22374 0.80823 0.0
C1219 C 0.82867 0.22212 0.79724 0.0
H1220 H 0.85503 0.7315 0.34995 0.0
H1221 H 0.80365 0.76657 0.4223 0.0
H1222 H 0.81565 0.72906 0.29208 0.0
H1223 H 0.76316 0.76275 0.36485 0.0
H1224 H 0.70161 0.77588 0.24791 0.0
H1225 H 0.74026 0.77757 0.30561 0.0
H1226 H 0.77291 0.70795 0.25558 0.0
H1227 H 0.73439 0.70781 0.19538 0.0
C1228 C 0.83518 0.73889 0.35347 0.0
C1229 C 0.83281 0.74962 0.39095 0.0
C1230 C 0.81218 0.73702 0.32008 0.0
C1231 C 0.78542 0.74532 0.32276 0.0
C1232 C 0.78321 0.75647 0.36046 0.0
C1233 C 0.80658 0.75881 0.39384 0.0
C1234 C 0.71695 0.76074 0.24894 0.0
C1235 C 0.71461 0.74172 0.21642 0.0
C1236 C 0.73929 0.76154 0.28282 0.0
C1237 C 0.76047 0.74303 0.28641 0.0
C1238 C 0.75769 0.72316 0.25429 0.0
C1239 C 0.73525 0.72267 0.21968 0.0
H1240 H 0.57205 0.55997 0.63004 0.0
H1241 H 0.48192 0.56052 0.58023 0.0
H1242 H 0.57134 0.51643 0.59074 0.0
H1243 H 0.4808 0.51723 0.54296 0.0
H1244 H 0.48923 0.45077 0.45095 0.0
H1245 H 0.49101 0.49503 0.48881 0.0
H1246 H 0.55749 0.46773 0.58188 0.0
H1247 H 0.55626 0.42453 0.54348 0.0
C1248 C 0.55207 0.55074 0.61119 0.0
C1249 C 0.52711 0.56399 0.60871 0.0
C1250 C 0.55151 0.52558 0.58855 0.0
C1251 C 0.52592 0.51282 0.56297 0.0
C1252 C 0.50112 0.52623 0.56111 0.0
C1253 C 0.50177 0.55123 0.58318 0.0
C1254 C 0.50403 0.45422 0.47959 0.0
C1255 C 0.5226 0.43396 0.49391 0.0
C1256 C 0.50514 0.4797 0.50162 0.0
C1257 C 0.52467 0.48561 0.53886 0.0
C1258 C 0.54266 0.46481 0.55323 0.0
C1259 C 0.54169 0.43965 0.53119 0.0
H1260 H 0.08084 0.5404 0.99095 0.0
H1261 H 0.99816 0.56676 0.99125 0.0
H1262 H 0.07393 0.50524 1.04144 0.0
H1263 H 0.98997 0.53032 1.03965 0.0
H1264 H 0.98938 0.47661 0.15034 0.0
H1265 H 0.99773 0.51359 0.10278 0.0
H1266 H 0.05352 0.46264 0.0575 0.0
H1267 H 0.04701 0.42726 0.10768 0.0
C1268 C 0.06096 0.53839 1.00155 0.0
C1269 C 0.04006 0.55636 0.987 0.0
C1270 C 0.05676 0.51792 1.03043 0.0
C1271 C 0.03115 0.51423 1.0451 0.0
C1272 C 0.01024 0.53242 1.03022 0.0
C1273 C 0.01478 0.55334 1.00201 0.0
C1274 C 1.0035 0.47342 0.13023 0.0
C1275 C 0.01716 0.44866 0.13247 0.0
C1276 C 0.00815 0.49462 0.10243 0.0
C1277 C 0.02628 0.49157 0.07538 0.0
C1278 C 0.03979 0.46652 0.07778 0.0
C1279 C 0.0356 0.44569 0.10618 0.0
H1280 H 0.11003 0.12403 0.31368 0.0
H1281 H 0.03018 0.15624 0.31489 0.0
H1282 H 0.12894 0.14156 0.38286 0.0
H1283 H 0.04926 0.1744 0.38355 0.0
H1284 H 0.10301 0.2304 0.49278 0.0
H1285 H 0.08423 0.2113 0.42462 0.0
H1286 H 0.12629 0.1365 0.45542 0.0
H1287 H 0.14458 0.15542 0.52413 0.0
C1288 C 0.09622 0.13456 0.3286 0.0
C1289 C 0.06809 0.13798 0.30774 0.0
C1290 C 0.10721 0.14479 0.36879 0.0
C1291 C 0.09102 0.15981 0.39007 0.0
C1292 C 0.0629 0.16329 0.36907 0.0
C1293 C 0.05167 0.15243 0.32927 0.0
C1294 C 0.10864 0.20997 0.48527 0.0
C1295 C 0.12594 0.19494 0.51506 0.0
C1296 C 0.09745 0.19872 0.4457 0.0
C1297 C 0.10334 0.17198 0.43321 0.0
C1298 C 0.12109 0.15715 0.46281 0.0
C1299 C 0.13173 0.16813 0.50274 0.0
H1300 H 0.07771 0.80453 0.55223 0.0
H1301 H 0.11256 0.89159 0.5377 0.0
H1302 H 0.07157 0.81662 0.61865 0.0
H1303 H 0.10764 0.90313 0.60545 0.0
H1304 H 0.13671 0.88422 0.74651 0.0
H1305 H 0.13458 0.88219 0.67438 0.0
H1306 H 0.04447 0.85108 0.65393 0.0
H1307 H 0.04622 0.85395 0.7257 0.0
C1308 C 0.08343 0.82638 0.56271 0.0
C1309 C 0.09579 0.84707 0.53971 0.0
C1310 C 0.08003 0.83322 0.60084 0.0
C1311 C 0.08928 0.86071 0.61685 0.0
C1312 C 0.10058 0.88174 0.59354 0.0
C1313 C 0.10352 0.87505 0.55503 0.0
C1314 C 0.11633 0.8776 0.72654 0.0
C1315 C 0.09175 0.86874 0.74167 0.0
C1316 C 0.11512 0.87651 0.68541 0.0
C1317 C 0.08938 0.86638 0.65905 0.0
C1318 C 0.06455 0.85875 0.67393 0.0
C1319 C 0.06567 0.86014 0.7149 0.0
H1320 H 0.42009 0.83767 0.13262 0.0
H1321 H 0.42174 0.75074 0.09833 0.0
H1322 H 0.43181 0.85349 0.06909 0.0
H1323 H 0.43256 0.76624 1.03437 0.0
H1324 H 0.47503 0.80021 0.93237 0.0
H1325 H 0.46321 0.78523 0.99561 0.0
H1326 H 0.42256 0.86102 1.00127 0.0
H1327 H 0.43594 0.87687 0.93908 0.0
C1328 C 0.42237 0.82172 0.11133 0.0
C1329 C 0.41947 0.79268 0.12145 0.0
C1330 C 0.42919 0.83089 0.07425 0.0
C1331 C 0.43346 0.81152 1.04509 0.0
C1332 C 0.43012 0.78239 0.05521 0.0
C1333 C 0.42341 0.77327 0.0923 0.0
C1334 C 0.46395 0.81417 0.94698 0.0
C1335 C 0.45688 0.84021 0.92914 0.0
C1336 C 0.45658 0.80515 0.98374 0.0
C1337 C 0.44151 0.82147 1.00502 0.0
C1338 C 0.43437 0.84749 0.98717 0.0
C1339 C 0.44184 0.85658 0.95043 0.0
H1340 H 0.44049 0.1387 0.38473 0.0
H1341 H 0.46353 0.05987 0.3464 0.0
H1342 H 0.41137 0.14421 0.31846 0.0
H1343 H 0.43277 0.0641 0.2807 0.0
H1344 H 0.44213 0.11589 0.16804 0.0
H1345 H 0.44906 0.09631 0.23446 0.0
H1346 H 0.37665 0.13494 0.257 0.0
H1347 H 0.36994 0.155 0.18987 0.0
C1348 C 0.4376 0.1215 0.36295 0.0
C1349 C 0.45457 0.09916 0.37019 0.0
C1350 C 0.42101 0.12472 0.32471 0.0
C1351 C 0.42074 0.10517 0.29372 0.0
C1352 C 0.43345 0.08009 0.30352 0.0
C1353 C 0.4506 0.07731 0.34138 0.0
C1354 C 0.42725 0.11971 0.18674 0.0
C1355 C 0.40557 0.13707 0.17372 0.0
C1356 C 0.43105 0.10826 0.2249 0.0
C1357 C 0.41318 0.11371 0.25114 0.0
C1358 C 0.39085 0.13038 0.23766 0.0
C1359 C 0.38711 0.14198 0.19933 0.0
H1360 H 0.90461 0.76025 0.62428 0.0
H1361 H 0.93191 0.84248 0.58163 0.0
H1362 H 0.92249 0.77768 0.69391 0.0
H1363 H 0.95103 0.85939 0.65107 0.0
H1364 H 0.01227 0.86287 0.78472 0.0
H1365 H 0.99281 0.84735 0.71452 0.0
H1366 H 0.91177 0.81771 0.74432 0.0
H1367 H 0.93056 0.83452 0.81374 0.0
C1368 C 0.91425 0.78211 0.62945 0.0
C1369 C 0.9161 0.79983 0.59626 0.0
C1370 C 0.92468 0.79219 0.66981 0.0
C1371 C 0.93852 0.82019 0.67912 0.0
C1372 C 0.94073 0.83775 0.64592 0.0
C1373 C 0.92943 0.82799 0.60565 0.0
C1374 C 0.99011 0.85357 0.7764 0.0
C1375 C 0.97315 0.85069 0.8059 0.0
C1376 C 0.97888 0.84445 0.73576 0.0
C1377 C 0.95048 0.83095 0.72279 0.0
C1378 C 0.93367 0.82781 0.75237 0.0
C1379 C 0.94453 0.83782 0.79258 0.0
H1380 H 0.92133 0.10067 0.55861 0.0
H1381 H 0.90133 0.18403 0.51868 0.0
H1382 H 0.91797 0.08575 0.48934 0.0
H1383 H 0.89892 0.16938 0.44958 0.0
H1384 H 0.88049 0.13042 0.32563 0.0
H1385 H 0.872 0.13655 0.39344 0.0
H1386 H 0.94978 0.09995 0.44264 0.0
H1387 H 0.95792 0.09374 0.37537 0.0
C1388 C 0.91595 0.11569 0.53499 0.0
C1389 C 0.91187 0.14358 0.54397 0.0
C1390 C 0.91413 0.10719 0.49544 0.0
C1391 C 0.90818 0.12642 0.4642 0.0
C1392 C 0.90318 0.15402 0.47305 0.0
C1393 C 0.90504 0.16254 0.51261 0.0
C1394 C 0.89524 0.12312 0.35106 0.0
C1395 C 0.91989 0.11183 0.34577 0.0
C1396 C 0.89055 0.12676 0.38967 0.0
C1397 C 0.91032 0.11883 0.42318 0.0
C1398 C 0.93403 0.10597 0.41739 0.0
C1399 C 0.9388 0.10258 0.37902 0.0
H1400 H 0.62339 0.16334 0.96689 0.0
H1401 H 0.63532 0.25062 1.00743 0.0
H1402 H 0.61238 0.14808 1.03134 0.0
H1403 H 0.62462 0.23542 0.07202 0.0
H1404 H 0.62931 0.19582 0.1995 0.0
H1405 H 0.64122 0.21118 0.13561 0.0
H1406 H 0.57604 0.14732 0.07314 0.0
H1407 H 0.56395 0.13216 0.13696 0.0
C1408 C 0.62412 0.17941 0.98959 0.0
C1409 C 0.6306 0.20842 0.98108 0.0
C1410 C 0.61741 0.17059 1.02684 0.0
C1411 C 0.61738 0.19027 0.05791 0.0
C1412 C 0.6245 0.21926 1.04968 0.0
C1413 C 0.63067 0.2281 1.01216 0.0
C1414 C 0.61747 0.18484 0.1723 0.0
C1415 C 0.5955 0.16247 0.17443 0.0
C1416 C 0.62424 0.19391 0.13517 0.0
C1417 C 0.60984 0.18069 0.09818 0.0
C1418 C 0.58805 0.15815 0.10036 0.0
C1419 C 0.58087 0.14949 0.1374 0.0
H1420 H 0.60912 0.85362 0.71879 0.0
H1421 H 0.58934 0.93303 0.7605 0.0
H1422 H 0.63911 0.84685 0.78438 0.0
H1423 H 0.62031 0.92704 0.82552 0.0
H1424 H 0.68435 0.83831 0.91445 0.0
H1425 H 0.67715 0.85904 0.84741 0.0
H1426 H 0.6003 0.89034 0.8675 0.0
H1427 H 0.60762 0.87004 0.93378 0.0
C1428 C 0.61279 0.87055 0.74113 0.0
C1429 C 0.59655 0.8935 0.73519 0.0
C1430 C 0.62988 0.86663 0.77882 0.0
C1431 C 0.63115 0.88596 0.81041 0.0
C1432 C 0.61904 0.91145 0.80194 0.0
C1433 C 0.6016 0.91506 0.76462 0.0
C1434 C 0.66621 0.85004 0.90452 0.0
C1435 C 0.64634 0.8524 0.92897 0.0
C1436 C 0.66213 0.86186 0.86632 0.0
C1437 C 0.63843 0.87665 0.85244 0.0
C1438 C 0.61917 0.87967 0.87761 0.0
C1439 C 0.62305 0.86765 0.91534 0.0
H1440 H 0.61917 0.6557 0.79461 0.0
H1441 H 0.53512 0.63404 0.81977 0.0
H1442 H 0.63741 0.67281 0.86393 0.0
H1443 H 0.55383 0.65 0.88989 0.0
H1444 H 0.61034 0.6543 1.02476 0.0
H1445 H 0.59172 0.63696 0.95546 0.0
H1446 H 0.62985 0.71449 0.91197 0.0
H1447 H 0.64741 0.73244 0.98139 0.0
C1448 C 0.60452 0.65394 0.81493 0.0
C1449 C 0.57545 0.64283 0.80058 0.0
C1450 C 0.61508 0.66414 0.85507 0.0
C1451 C 0.59741 0.663 0.88354 0.0
C1452 C 0.56847 0.65127 0.86957 0.0
C1453 C 0.55765 0.6419 0.82897 0.0
C1454 C 0.61504 0.66775 1.00062 0.0
C1455 C 0.63096 0.69491 1.00974 0.0
C1456 C 0.60402 0.65777 0.96043 0.0
C1457 C 0.60905 0.67403 0.92711 0.0
C1458 C 0.62543 0.70098 0.9362 0.0
C1459 C 0.63566 0.71137 0.97642 0.0
H1460 H 0.61007 0.30221 0.26118 0.0
H1461 H 0.6477 0.39001 0.26872 0.0
H1462 H 0.61789 0.29852 0.19337 0.0
H1463 H 0.65669 0.386 0.20137 0.0
H1464 H 0.61771 0.37819 0.06418 0.0
H1465 H 0.62308 0.38239 0.13669 0.0
H1466 H 0.65205 0.29922 0.1502 0.0
H1467 H 0.64608 0.2949 0.07772 0.0
C1468 C 0.62061 0.3205 0.24858 0.0
C1469 C 0.62792 0.34648 0.26981 0.0
C1470 C 0.62537 0.31833 0.20996 0.0
C1471 C 0.63763 0.3421 0.19203 0.0
C1472 C 0.64681 0.36751 0.21435 0.0
C1473 C 0.64197 0.36969 0.253 0.0
C1474 C 0.62552 0.36104 0.08283 0.0
C1475 C 0.63103 0.33608 0.06566 0.0
C1476 C 0.62883 0.36348 0.12424 0.0
C1477 C 0.63793 0.34107 0.14899 0.0
C1478 C 0.64462 0.31662 0.13176 0.0
C1479 C 0.64111 0.31412 0.09041 0.0
H1480 H 0.96787 0.38078 0.46904 0.0
H1481 H 0.94041 0.29675 0.41722 0.0
H1482 H 0.95559 0.36435 0.53167 0.0
H1483 H 0.92653 0.28087 0.47869 0.0
H1484 H 0.92227 0.24892 0.60466 0.0
H1485 H 0.9348 0.26557 0.54243 0.0
H1486 H 0.92559 0.35138 0.57453 0.0
H1487 H 0.91422 0.33451 0.63794 0.0
C1488 C 0.95923 0.35875 0.47044 0.0
C1489 C 0.95544 0.34054 0.4364 0.0
C1490 C 0.95163 0.34922 0.50699 0.0
C1491 C 0.93967 0.32086 0.51188 0.0
C1492 C 0.93587 0.30271 0.4778 0.0
C1493 C 0.94358 0.31218 0.4414 0.0
C1494 C 0.92259 0.27137 0.59859 0.0
C1495 C 0.91681 0.29003 0.62733 0.0
C1496 C 0.92981 0.28116 0.56208 0.0
C1497 C 0.93147 0.31027 0.55172 0.0
C1498 C 0.92522 0.32891 0.58036 0.0
C1499 C 0.91818 0.31908 0.61713 0.0
H1500 H 0.94307 0.6491 0.89647 0.0
H1501 H 0.96693 0.57838 0.8373 0.0
H1502 H 0.90961 0.65888 0.83484 0.0
H1503 H 0.93416 0.58808 0.77606 0.0
H1504 H 0.88462 0.61245 0.66402 0.0
H1505 H 0.8904 0.59548 0.73217 0.0
H1506 H 0.92529 0.68016 0.77719 0.0
H1507 H 0.91756 0.69758 0.7092 0.0
C1508 C 0.94 0.63473 0.87096 0.0
C1509 C 0.95787 0.61336 0.87114 0.0
C1510 C 0.92117 0.64057 0.8355 0.0
C1511 C 0.91985 0.62482 0.80018 0.0
C1512 C 0.93458 0.60075 0.8025 0.0
C1513 C 0.95346 0.59513 0.83769 0.0
C1514 C 0.8926 0.62772 0.68841 0.0
C1515 C 0.90118 0.65634 0.68097 0.0
C1516 C 0.89607 0.61789 0.72756 0.0
C1517 C 0.90863 0.63632 0.76018 0.0
C1518 C 0.9153 0.66534 0.75289 0.0
C1519 C 0.91148 0.67525 0.71375 0.0
H1520 H 0.42918 0.34511 0.308 0.0
H1521 H 0.51344 0.36222 0.28192 0.0
H1522 H 0.4102 0.32663 0.23942 0.0
H1523 H 0.494 0.34501 0.21253 0.0
H1524 H 0.43528 0.34038 0.07797 0.0
H1525 H 0.45451 0.35898 0.14652 0.0
H1526 H 0.41838 0.28187 0.19351 0.0
H1527 H 0.40024 0.26263 0.12478 0.0
C1528 C 0.44373 0.34562 0.2876 0.0
C1529 C 0.4731 0.35581 0.30148 0.0
C1530 C 0.43273 0.33463 0.24794 0.0
C1531 C 0.45028 0.33407 0.2195 0.0
C1532 C 0.47949 0.345 0.23292 0.0
C1533 C 0.49072 0.35512 0.27306 0.0
C1534 C 0.43116 0.32727 0.10272 0.0
C1535 C 0.41567 0.29982 0.09479 0.0
C1536 C 0.44251 0.33799 0.14245 0.0
C1537 C 0.43823 0.32223 0.17648 0.0
C1538 C 0.42224 0.29499 0.16864 0.0
C1539 C 0.4117 0.28385 0.12884 0.0
H1540 H 0.4641 0.68101 1.04822 0.0
H1541 H 0.38725 0.62094 1.03109 0.0
H1542 H 0.46485 0.6765 0.97751 0.0
H1543 H 0.38731 0.61737 0.9598 0.0
H1544 H 0.41902 0.59828 0.84393 0.0
H1545 H 0.41511 0.6002 0.91395 0.0
H1546 H 0.43515 0.69162 0.91517 0.0
H1547 H 0.4394 0.6896 0.84527 0.0
C1548 C 0.44762 0.66653 1.02943 0.0
C1549 C 0.42559 0.65133 1.04498 0.0
C1550 C 0.44776 0.66434 0.98888 0.0
C1551 C 0.42583 0.64699 0.96321 0.0
C1552 C 0.40443 0.63091 0.97902 0.0
C1553 C 0.40432 0.63306 1.01965 0.0
C1554 C 0.4219 0.6188 0.85899 0.0
C1555 C 0.42964 0.6438 0.83956 0.0
C1556 C 0.41977 0.61989 0.899 0.0
C1557 C 0.42531 0.646 0.91999 0.0
C1558 C 0.43147 0.67115 0.89984 0.0
C1559 C 0.4337 0.67005 0.85992 0.0
H1560 H 0.13348 0.74564 0.50761 0.0
H1561 H 0.13002 0.65799 0.47261 0.0
H1562 H 0.123 0.73102 0.57212 0.0
H1563 H 0.11869 0.64309 0.5368 0.0
H1564 H 0.11677 0.62112 0.66827 0.0
H1565 H 0.1294 0.63583 0.60508 0.0
H1566 H 0.09205 0.71354 0.61169 0.0
H1567 H 0.08086 0.69957 0.6757 0.0
C1568 C 0.13062 0.72312 0.51352 0.0
C1569 C 0.13308 0.70324 0.48403 0.0
C1570 C 0.12417 0.71454 0.55097 0.0
C1571 C 0.11962 0.68551 0.56114 0.0
C1572 C 0.12229 0.66564 0.53157 0.0
C1573 C 0.12881 0.67427 0.4941 0.0
C1574 C 0.11144 0.64157 0.65686 0.0
C1575 C 0.09749 0.65879 0.67861 0.0
C1576 C 0.11847 0.65001 0.6196 0.0
C1577 C 0.11202 0.67621 0.60173 0.0
C1578 C 0.09808 0.69341 0.62352 0.0
C1579 C 0.0911 0.685 0.66074 0.0
H1580 H 0.09622 0.33382 0.23228 0.0
H1581 H 0.10638 0.42389 0.25694 0.0
H1582 H 0.12836 0.3268 0.29549 0.0
H1583 H 0.1404 0.41749 0.3193 0.0
H1584 H 0.13105 0.38571 0.44537 0.0
H1585 H 0.12533 0.40041 0.37649 0.0
H1586 H 0.1679 0.32979 0.34907 0.0
H1587 H 0.17259 0.31454 0.41844 0.0
C1588 C 0.10699 0.35234 0.2501 0.0
C1589 C 0.09887 0.37931 0.24022 0.0
C1590 C 0.12544 0.34839 0.28657 0.0
C1591 C 0.13621 0.37151 0.31336 0.0
C1592 C 0.13164 0.3991 0.30007 0.0
C1593 C 0.11258 0.40291 0.26407 0.0
C1594 C 0.13981 0.37374 0.42487 0.0
C1595 C 0.1518 0.34875 0.43701 0.0
C1596 C 0.13681 0.3823 0.38524 0.0
C1597 C 0.146 0.36621 0.35681 0.0
C1598 C 0.16009 0.3424 0.36987 0.0
C1599 C 0.16275 0.33363 0.40953 0.0
loop_
_geom_bond_atom_site_label_1
_geom_bond_atom_site_label_2
_geom_bond_distance
_geom_bond_site_symmetry_2
_ccdc_geom_bond_type
La0 C2 2.928 . S
La0 O20 2.521 . S
La0 O21 2.628 . S
La0 O22 2.554 . S
La0 O23 2.759 . S
La0 O24 2.470 1_455 S
La0 O29 2.482 . S
La0 O31 2.503 . S
La1 C11 2.928 . S
La1 O23 2.480 1_655 S
La1 O25 2.503 . S
La1 O26 2.521 . S
La1 O27 2.628 . S
La1 O28 2.554 . S
La1 O29 2.757 1_655 S
La1 O30 2.470 1_655 S
C2 La0 2.928 . S
C2 C3 1.503 1_554 S
C2 O20 1.261 . S
C2 O21 1.243 . S
C3 C2 1.503 1_556 S
C3 C4 1.394 . S
C3 C8 1.373 . S
C4 C3 1.394 . S
C4 C5 1.380 . S
C4 H32 0.930 . S
C5 C4 1.380 . S
C5 C6 1.376 . S
C5 H33 0.930 . S
C6 C5 1.376 . S
C6 C7 1.370 . S
C7 C6 1.370 . S
C7 C8 1.396 . S
C7 H34 0.929 . S
C8 C3 1.373 . S
C8 C7 1.396 . S
C8 H35 0.929 . S
C9 O22 1.240 . S
C9 O23 1.290 . S
C10 O24 1.258 . S
C10 O25 1.256 . S
C11 La1 2.928 . S
C11 C12 1.503 . S
C11 O26 1.261 . S
C11 O27 1.243 . S
C12 C11 1.503 . S
C12 C13 1.394 . S
C12 C17 1.373 . S
C13 C12 1.394 . S
C13 C14 1.380 . S
C13 H36 0.930 . S
C14 C13 1.380 . S
C14 C15 1.376 . S
C14 H37 0.930 . S
C15 C14 1.376 . S
C15 C16 1.370 . S
C16 C15 1.370 . S
C16 C17 1.396 . S
C16 H38 0.929 . S
C17 C12 1.373 . S
C17 C16 1.396 . S
C17 H39 0.929 . S
C18 O28 1.240 . S
C18 O29 1.289 1_655 S
C19 O30 1.258 . S
C19 O31 1.256 . S
O20 La0 2.521 . S
O20 C2 1.261 . S
O21 La0 2.628 . S
O21 C2 1.243 . S
O22 La0 2.554 . S
O22 C9 1.240 . S
O23 La0 2.759 . S
O23 La1 2.480 1_455 S
O23 C9 1.290 . S
O24 La0 2.470 1_655 S
O24 C10 1.258 . S
O25 La1 2.503 . S
O25 C10 1.256 . S
O26 La1 2.521 . S
O26 C11 1.261 . S
O27 La1 2.628 . S
O27 C11 1.243 . S
O28 La1 2.554 . S
O28 C18 1.240 . S
O29 La0 2.482 . S
O29 La1 2.757 1_455 S
O29 C18 1.289 1_455 S
O30 La1 2.470 1_455 S
O30 C19 1.258 . S
O31 La0 2.503 . S
O31 C19 1.256 . S
H32 C4 0.930 . S
H33 C5 0.930 . S
H34 C7 0.929 . S
H35 C8 0.929 . S
H36 C13 0.930 . S
H37 C14 0.930 . S
H38 C16 0.929 . S
H39 C17 0.929 . S
La40 C42 2.928 . S
La40 O60 2.521 . S
La40 O61 2.628 . S
La40 O62 2.554 . S
La40 O63 2.757 . S
La40 O64 2.470 . S
La40 O69 2.482 . S
La40 O71 2.503 . S
La41 C51 2.928 . S
La41 O63 2.482 . S
La41 O65 2.503 . S
La41 O66 2.521 . S
La41 O67 2.628 . S
La41 O68 2.554 . S
La41 O69 2.757 . S
La41 O70 2.470 . S
C42 La40 2.928 . S
C42 C43 1.503 . S
C42 O60 1.261 . S
C42 O61 1.243 . S
C43 C42 1.503 . S
C43 C44 1.394 . S
C43 C48 1.373 . S
C44 C43 1.394 . S
C44 C45 1.380 . S
C44 H72 0.930 . S
C45 C44 1.380 . S
C45 C46 1.376 . S
C45 H73 0.930 . S
C46 C45 1.376 . S
C46 C47 1.370 . S
C47 C46 1.370 . S
C47 C48 1.396 . S
C47 H74 0.929 . S
C48 C43 1.373 . S
C48 C47 1.396 . S
C48 H75 0.929 . S
C49 O62 1.240 . S
C49 O63 1.289 . S
C50 O64 1.258 . S
C50 O65 1.256 . S
C51 La41 2.928 . S
C51 C52 1.503 . S
C51 O66 1.261 . S
C51 O67 1.243 . S
C52 C51 1.503 . S
C52 C53 1.394 . S
C52 C57 1.373 . S
C53 C52 1.394 . S
C53 C54 1.380 . S
C53 H76 0.930 . S
C54 C53 1.380 . S
C54 C55 1.376 . S
C54 H77 0.930 . S
C55 C54 1.376 . S
C55 C56 1.370 . S
C56 C55 1.370 . S
C56 C57 1.396 . S
C56 H78 0.929 . S
C57 C52 1.373 . S
C57 C56 1.396 . S
C57 H79 0.929 . S
C58 O68 1.240 . S
C58 O69 1.289 . S
C59 O70 1.258 . S
C59 O71 1.256 . S
O60 La40 2.521 . S
O60 C42 1.261 . S
O61 La40 2.628 . S
O61 C42 1.243 . S
O62 La40 2.554 . S
O62 C49 1.240 . S
O63 La40 2.757 . S
O63 La41 2.482 . S
O63 C49 1.289 . S
O64 La40 2.470 . S
O64 C50 1.258 . S
O65 La41 2.503 . S
O65 C50 1.256 . S
O66 La41 2.521 . S
O66 C51 1.261 . S
O67 La41 2.628 . S
O67 C51 1.243 . S
O68 La41 2.554 . S
O68 C58 1.240 . S
O69 La40 2.482 . S
O69 La41 2.757 . S
O69 C58 1.289 . S
O70 La41 2.470 . S
O70 C59 1.258 . S
O71 La40 2.503 . S
O71 C59 1.256 . S
H72 C44 0.930 . S
H73 C45 0.930 . S
H74 C47 0.929 . S
H75 C48 0.929 . S
H76 C53 0.930 . S
H77 C54 0.930 . S
H78 C56 0.929 . S
H79 C57 0.929 . S
La80 C82 2.928 . S
La80 O100 2.521 . S
La80 O101 2.628 . S
La80 O102 2.554 . S
La80 O103 2.757 . S
La80 O104 2.470 . S
La80 O109 2.482 . S
La80 O111 2.503 . S
La81 C91 2.928 . S
La81 O103 2.482 . S
La81 O105 2.503 . S
La81 O106 2.521 . S
La81 O107 2.628 . S
La81 O108 2.554 . S
La81 O109 2.757 . S
La81 O110 2.470 . S
C82 La80 2.928 . S
C82 C83 1.503 . S
C82 O100 1.261 . S
C82 O101 1.243 . S
C83 C82 1.503 . S
C83 C84 1.394 . S
C83 C88 1.373 . S
C84 C83 1.394 . S
C84 C85 1.380 . S
C84 H112 0.930 . S
C85 C84 1.380 . S
C85 C86 1.376 . S
C85 H113 0.930 . S
C86 C85 1.376 . S
C86 C87 1.370 . S
C87 C86 1.370 . S
C87 C88 1.396 . S
C87 H114 0.929 . S
C88 C83 1.373 . S
C88 C87 1.396 . S
C88 H115 0.929 . S
C89 O102 1.240 . S
C89 O103 1.289 . S
C90 O104 1.258 . S
C90 O105 1.256 . S
C91 La81 2.928 . S
C91 C92 1.503 . S
C91 O106 1.261 . S
C91 O107 1.243 . S
C92 C91 1.503 . S
C92 C93 1.394 . S
C92 C97 1.373 . S
C93 C92 1.394 . S
C93 C94 1.380 . S
C93 H116 0.930 . S
C94 C93 1.380 . S
C94 C95 1.376 . S
C94 H117 0.930 . S
C95 C94 1.376 . S
C95 C96 1.370 . S
C96 C95 1.370 . S
C96 C97 1.396 . S
C96 H118 0.929 . S
C97 C92 1.373 . S
C97 C96 1.396 . S
C97 H119 0.929 . S
C98 O108 1.240 . S
C98 O109 1.289 . S
C99 O110 1.258 . S
C99 O111 1.256 . S
O100 La80 2.521 . S
O100 C82 1.261 . S
O101 La80 2.628 . S
O101 C82 1.243 . S
O102 La80 2.554 . S
O102 C89 1.240 . S
O103 La80 2.757 . S
O103 La81 2.482 . S
O103 C89 1.289 . S
O104 La80 2.470 . S
O104 C90 1.258 . S
O105 La81 2.503 . S
O105 C90 1.256 . S
O106 La81 2.521 . S
O106 C91 1.261 . S
O107 La81 2.628 . S
O107 C91 1.243 . S
O108 La81 2.554 . S
O108 C98 1.240 . S
O109 La80 2.482 . S
O109 La81 2.757 . S
O109 C98 1.289 . S
O110 La81 2.470 . S
O110 C99 1.258 . S
O111 La80 2.503 . S
O111 C99 1.256 . S
H112 C84 0.930 . S
H113 C85 0.930 . S
H114 C87 0.929 . S
H115 C88 0.929 . S
H116 C93 0.930 . S
H117 C94 0.930 . S
H118 C96 0.929 . S
H119 C97 0.929 . S
La120 C122 2.928 . S
La120 O140 2.521 . S
La120 O141 2.628 . S
La120 O142 2.554 . S
La120 O143 2.757 . S
La120 O144 2.470 . S
La120 O149 2.482 . S
La120 O151 2.503 . S
La121 C131 2.928 . S
La121 O143 2.482 . S
La121 O145 2.503 . S
La121 O146 2.521 . S
La121 O147 2.628 . S
La121 O148 2.554 . S
La121 O149 2.757 . S
La121 O150 2.470 . S
C122 La120 2.928 . S
C122 C123 1.503 1_556 S
C122 O140 1.261 . S
C122 O141 1.243 . S
C123 C122 1.503 1_554 S
C123 C124 1.394 . S
C123 C128 1.373 . S
C124 C123 1.394 . S
C124 C125 1.380 . S
C124 H152 0.930 . S
C125 C124 1.380 . S
C125 C126 1.376 . S
C125 H153 0.930 . S
C126 C125 1.376 . S
C126 C127 1.370 . S
C127 C126 1.370 . S
C127 C128 1.396 . S
C127 H154 0.929 . S
C128 C123 1.373 . S
C128 C127 1.396 . S
C128 H155 0.929 . S
C129 O142 1.240 . S
C129 O143 1.289 . S
C130 O144 1.258 . S
C130 O145 1.256 . S
C131 La121 2.928 . S
C131 C132 1.503 . S
C131 O146 1.261 . S
C131 O147 1.243 . S
C132 C131 1.503 . S
C132 C133 1.394 . S
C132 C137 1.373 . S
C133 C132 1.394 . S
C133 C134 1.380 . S
C133 H156 0.930 . S
C134 C133 1.380 . S
C134 C135 1.376 . S
C134 H157 0.930 . S
C135 C134 1.376 . S
C135 C136 1.370 . S
C136 C135 1.370 . S
C136 C137 1.396 . S
C136 H158 0.929 . S
C137 C132 1.373 . S
C137 C136 1.396 . S
C137 H159 0.929 . S
C138 O148 1.240 . S
C138 O149 1.289 . S
C139 O150 1.258 . S
C139 O151 1.256 . S
O140 La120 2.521 . S
O140 C122 1.261 . S
O141 La120 2.628 . S
O141 C122 1.243 . S
O142 La120 2.554 . S
O142 C129 1.240 . S
O143 La120 2.757 . S
O143 La121 2.482 . S
O143 C129 1.289 . S
O144 La120 2.470 . S
O144 C130 1.258 . S
O145 La121 2.503 . S
O145 C130 1.256 . S
O146 La121 2.521 . S
O146 C131 1.261 . S
O147 La121 2.628 . S
O147 C131 1.243 . S
O148 La121 2.554 . S
O148 C138 1.240 . S
O149 La120 2.482 . S
O149 La121 2.757 . S
O149 C138 1.289 . S
O150 La121 2.470 . S
O150 C139 1.258 . S
O151 La120 2.503 . S
O151 C139 1.256 . S
H152 C124 0.930 . S
H153 C125 0.930 . S
H154 C127 0.929 . S
H155 C128 0.929 . S
H156 C133 0.930 . S
H157 C134 0.930 . S
H158 C136 0.929 . S
H159 C137 0.929 . S
La160 C162 2.928 . S
La160 O180 2.521 . S
La160 O181 2.628 . S
La160 O182 2.554 . S
La160 O183 2.757 . S
La160 O184 2.470 . S
La160 O189 2.482 . S
La160 O191 2.503 . S
La161 C171 2.928 . S
La161 O183 2.482 1_655 S
La161 O185 2.503 . S
La161 O186 2.521 . S
La161 O187 2.628 . S
La161 O188 2.554 1_655 S
La161 O189 2.757 1_655 S
La161 O190 2.470 1_655 S
C162 La160 2.928 . S
C162 C163 1.503 . S
C162 O180 1.261 . S
C162 O181 1.243 . S
C163 C162 1.503 . S
C163 C164 1.394 . S
C163 C168 1.373 . S
C164 C163 1.394 . S
C164 C165 1.380 . S
C164 H192 0.930 . S
C165 C164 1.380 . S
C165 C166 1.376 . S
C165 H193 0.930 . S
C166 C165 1.376 . S
C166 C167 1.370 . S
C167 C166 1.370 . S
C167 C168 1.396 . S
C167 H194 0.929 . S
C168 C163 1.373 . S
C168 C167 1.396 . S
C168 H195 0.929 . S
C169 O182 1.240 . S
C169 O183 1.289 . S
C170 O184 1.258 . S
C170 O185 1.256 1_455 S
C171 La161 2.928 . S
C171 C172 1.503 1_556 S
C171 O186 1.261 . S
C171 O187 1.243 . S
C172 C171 1.503 1_554 S
C172 C173 1.394 . S
C172 C177 1.373 . S
C173 C172 1.394 . S
C173 C174 1.380 . S
C173 H196 0.930 . S
C174 C173 1.380 . S
C174 C175 1.376 . S
C174 H197 0.930 . S
C175 C174 1.376 . S
C175 C176 1.370 . S
C176 C175 1.370 . S
C176 C177 1.396 . S
C176 H198 0.929 . S
C177 C172 1.373 . S
C177 C176 1.396 . S
C177 H199 0.929 . S
C178 O188 1.240 . S
C178 O189 1.289 . S
C179 O190 1.258 . S
C179 O191 1.256 . S
O180 La160 2.521 . S
O180 C162 1.261 . S
O181 La160 2.628 . S
O181 C162 1.243 . S
O182 La160 2.554 . S
O182 C169 1.240 . S
O183 La160 2.757 . S
O183 La161 2.482 1_455 S
O183 C169 1.289 . S
O184 La160 2.470 . S
O184 C170 1.258 . S
O185 La161 2.503 . S
O185 C170 1.256 1_655 S
O186 La161 2.521 . S
O186 C171 1.261 . S
O187 La161 2.628 . S
O187 C171 1.243 . S
O188 La161 2.554 1_455 S
O188 C178 1.240 . S
O189 La160 2.482 . S
O189 La161 2.757 1_455 S
O189 C178 1.289 . S
O190 La161 2.470 1_455 S
O190 C179 1.258 . S
O191 La160 2.503 . S
O191 C179 1.256 . S
H192 C164 0.930 . S
H193 C165 0.930 . S
H194 C167 0.929 . S
H195 C168 0.929 . S
H196 C173 0.930 . S
H197 C174 0.930 . S
H198 C176 0.929 . S
H199 C177 0.929 . S
La200 C202 2.928 . S
La200 O220 2.521 . S
La200 O221 2.628 . S
La200 O222 2.554 . S
La200 O223 2.757 . S
La200 O224 2.470 . S
La200 O229 2.482 . S
La200 O231 2.503 . S
La201 C211 2.928 . S
La201 O223 2.482 . S
La201 O225 2.503 . S
La201 O226 2.521 . S
La201 O227 2.628 . S
La201 O228 2.554 . S
La201 O229 2.757 . S
La201 O230 2.470 . S
C202 La200 2.928 . S
C202 C203 1.503 . S
C202 O220 1.261 . S
C202 O221 1.243 . S
C203 C202 1.503 . S
C203 C204 1.394 . S
C203 C208 1.373 . S
C204 C203 1.394 . S
C204 C205 1.380 . S
C204 H232 0.930 . S
C205 C204 1.380 . S
C205 C206 1.376 . S
C205 H233 0.930 . S
C206 C205 1.376 . S
C206 C207 1.370 . S
C207 C206 1.370 . S
C207 C208 1.396 . S
C207 H234 0.929 . S
C208 C203 1.373 . S
C208 C207 1.396 . S
C208 H235 0.929 . S
C209 O222 1.240 . S
C209 O223 1.289 . S
C210 O224 1.258 . S
C210 O225 1.256 . S
C211 La201 2.928 . S
C211 C212 1.503 . S
C211 O226 1.261 . S
C211 O227 1.243 . S
C212 C211 1.503 . S
C212 C213 1.394 . S
C212 C217 1.373 . S
C213 C212 1.394 . S
C213 C214 1.380 1_554 S
C213 H236 0.930 . S
C214 C213 1.380 1_556 S
C214 C215 1.376 . S
C214 H237 0.930 . S
C215 C214 1.376 . S
C215 C216 1.370 . S
C216 C215 1.370 . S
C216 C217 1.396 1_556 S
C216 H238 0.929 . S
C217 C212 1.373 . S
C217 C216 1.396 1_554 S
C217 H239 0.929 . S
C218 O228 1.240 . S
C218 O229 1.289 . S
C219 O230 1.258 . S
C219 O231 1.256 . S
O220 La200 2.521 . S
O220 C202 1.261 . S
O221 La200 2.628 . S
O221 C202 1.243 . S
O222 La200 2.554 . S
O222 C209 1.240 . S
O223 La200 2.757 . S
O223 La201 2.482 . S
O223 C209 1.289 . S
O224 La200 2.470 . S
O224 C210 1.258 . S
O225 La201 2.503 . S
O225 C210 1.256 . S
O226 La201 2.521 . S
O226 C211 1.261 . S
O227 La201 2.628 . S
O227 C211 1.243 . S
O228 La201 2.554 . S
O228 C218 1.240 . S
O229 La200 2.482 . S
O229 La201 2.757 . S
O229 C218 1.289 . S
O230 La201 2.470 . S
O230 C219 1.258 . S
O231 La200 2.503 . S
O231 C219 1.256 . S
H232 C204 0.930 . S
H233 C205 0.930 . S
H234 C207 0.929 . S
H235 C208 0.929 . S
H236 C213 0.930 . S
H237 C214 0.930 . S
H238 C216 0.929 . S
H239 C217 0.929 . S
La240 C242 2.928 . S
La240 O260 2.521 . S
La240 O261 2.628 . S
La240 O262 2.554 . S
La240 O263 2.757 . S
La240 O264 2.470 . S
La240 O269 2.482 . S
La240 O271 2.503 . S
La241 C251 2.928 . S
La241 O263 2.482 . S
La241 O265 2.503 . S
La241 O266 2.521 . S
La241 O267 2.628 . S
La241 O268 2.554 . S
La241 O269 2.757 . S
La241 O270 2.470 . S
C242 La240 2.928 . S
C242 C243 1.503 . S
C242 O260 1.261 . S
C242 O261 1.243 . S
C243 C242 1.503 . S
C243 C244 1.394 . S
C243 C248 1.373 . S
C244 C243 1.394 . S
C244 C245 1.380 . S
C244 H272 0.930 . S
C245 C244 1.380 . S
C245 C246 1.376 . S
C245 H273 0.930 . S
C246 C245 1.376 . S
C246 C247 1.370 . S
C247 C246 1.370 . S
C247 C248 1.396 . S
C247 H274 0.929 . S
C248 C243 1.373 . S
C248 C247 1.396 . S
C248 H275 0.929 . S
C249 O262 1.240 . S
C249 O263 1.289 . S
C250 O264 1.258 . S
C250 O265 1.256 . S
C251 La241 2.928 . S
C251 C252 1.503 . S
C251 O266 1.261 . S
C251 O267 1.243 . S
C252 C251 1.503 . S
C252 C253 1.394 . S
C252 C257 1.373 . S
C253 C252 1.394 . S
C253 C254 1.380 . S
C253 H276 0.930 . S
C254 C253 1.380 . S
C254 C255 1.376 . S
C254 H277 0.930 . S
C255 C254 1.376 . S
C255 C256 1.370 . S
C256 C255 1.370 . S
C256 C257 1.396 . S
C256 H278 0.929 . S
C257 C252 1.373 . S
C257 C256 1.396 . S
C257 H279 0.929 . S
C258 O268 1.240 . S
C258 O269 1.289 . S
C259 O270 1.258 . S
C259 O271 1.256 . S
O260 La240 2.521 . S
O260 C242 1.261 . S
O261 La240 2.628 . S
O261 C242 1.243 . S
O262 La240 2.554 . S
O262 C249 1.240 . S
O263 La240 2.757 . S
O263 La241 2.482 . S
O263 C249 1.289 . S
O264 La240 2.470 . S
O264 C250 1.258 . S
O265 La241 2.503 . S
O265 C250 1.256 . S
O266 La241 2.521 . S
O266 C251 1.261 . S
O267 La241 2.628 . S
O267 C251 1.243 . S
O268 La241 2.554 . S
O268 C258 1.240 . S
O269 La240 2.482 . S
O269 La241 2.757 . S
O269 C258 1.289 . S
O270 La241 2.470 . S
O270 C259 1.258 . S
O271 La240 2.503 . S
O271 C259 1.256 . S
H272 C244 0.930 . S
H273 C245 0.930 . S
H274 C247 0.929 . S
H275 C248 0.929 . S
H276 C253 0.930 . S
H277 C254 0.930 . S
H278 C256 0.929 . S
H279 C257 0.929 . S
La280 C282 2.928 . S
La280 O300 2.521 . S
La280 O301 2.628 . S
La280 O302 2.554 . S
La280 O303 2.757 . S
La280 O304 2.470 . S
La280 O309 2.482 . S
La280 O311 2.503 . S
La281 C291 2.928 . S
La281 O303 2.482 . S
La281 O305 2.503 . S
La281 O306 2.521 . S
La281 O307 2.628 . S
La281 O308 2.554 . S
La281 O309 2.757 . S
La281 O310 2.470 . S
C282 La280 2.928 . S
C282 C283 1.503 . S
C282 O300 1.261 . S
C282 O301 1.243 . S
C283 C282 1.503 . S
C283 C284 1.394 . S
C283 C288 1.373 . S
C284 C283 1.394 . S
C284 C285 1.380 . S
C284 H312 0.930 . S
C285 C284 1.380 . S
C285 C286 1.376 . S
C285 H313 0.930 . S
C286 C285 1.376 . S
C286 C287 1.370 . S
C287 C286 1.370 . S
C287 C288 1.396 . S
C287 H314 0.929 . S
C288 C283 1.373 . S
C288 C287 1.396 . S
C288 H315 0.929 . S
C289 O302 1.240 . S
C289 O303 1.289 . S
C290 O304 1.258 . S
C290 O305 1.256 . S
C291 La281 2.928 . S
C291 C292 1.503 . S
C291 O306 1.261 . S
C291 O307 1.243 . S
C292 C291 1.503 . S
C292 C293 1.394 . S
C292 C297 1.373 . S
C293 C292 1.394 . S
C293 C294 1.380 . S
C293 H316 0.930 . S
C294 C293 1.380 . S
C294 C295 1.376 . S
C294 H317 0.930 . S
C295 C294 1.376 . S
C295 C296 1.370 . S
C296 C295 1.370 . S
C296 C297 1.396 . S
C296 H318 0.929 . S
C297 C292 1.373 . S
C297 C296 1.396 . S
C297 H319 0.929 . S
C298 O308 1.240 . S
C298 O309 1.289 . S
C299 O310 1.258 . S
C299 O311 1.256 . S
O300 La280 2.521 . S
O300 C282 1.261 . S
O301 La280 2.628 . S
O301 C282 1.243 . S
O302 La280 2.554 . S
O302 C289 1.240 . S
O303 La280 2.757 . S
O303 La281 2.482 . S
O303 C289 1.289 . S
O304 La280 2.470 . S
O304 C290 1.258 . S
O305 La281 2.503 . S
O305 C290 1.256 . S
O306 La281 2.521 . S
O306 C291 1.261 . S
O307 La281 2.628 . S
O307 C291 1.243 . S
O308 La281 2.554 . S
O308 C298 1.240 . S
O309 La280 2.482 . S
O309 La281 2.757 . S
O309 C298 1.289 . S
O310 La281 2.470 . S
O310 C299 1.258 . S
O311 La280 2.503 . S
O311 C299 1.256 . S
H312 C284 0.930 . S
H313 C285 0.930 . S
H314 C287 0.929 . S
H315 C288 0.929 . S
H316 C293 0.930 . S
H317 C294 0.930 . S
H318 C296 0.929 . S
H319 C297 0.929 . S
La320 C322 2.928 . S
La320 O340 2.521 . S
La320 O341 2.628 . S
La320 O342 2.554 . S
La320 O343 2.757 . S
La320 O344 2.470 . S
La320 O349 2.482 . S
La320 O351 2.503 . S
La321 C331 2.928 . S
La321 O343 2.482 . S
La321 O345 2.503 . S
La321 O346 2.521 . S
La321 O347 2.628 . S
La321 O348 2.554 . S
La321 O349 2.757 . S
La321 O350 2.470 . S
C322 La320 2.928 . S
C322 C323 1.503 . S
C322 O340 1.261 . S
C322 O341 1.243 . S
C323 C322 1.503 . S
C323 C324 1.394 . S
C323 C328 1.373 . S
C324 C323 1.394 . S
C324 C325 1.380 . S
C324 H352 0.930 . S
C325 C324 1.380 . S
C325 C326 1.376 . S
C325 H353 0.930 . S
C326 C325 1.376 . S
C326 C327 1.370 . S
C327 C326 1.370 . S
C327 C328 1.396 . S
C327 H354 0.929 . S
C328 C323 1.373 . S
C328 C327 1.396 . S
C328 H355 0.929 . S
C329 O342 1.240 . S
C329 O343 1.289 . S
C330 O344 1.258 . S
C330 O345 1.256 . S
C331 La321 2.928 . S
C331 C332 1.503 . S
C331 O346 1.261 . S
C331 O347 1.243 . S
C332 C331 1.503 . S
C332 C333 1.394 . S
C332 C337 1.373 . S
C333 C332 1.394 . S
C333 C334 1.380 . S
C333 H356 0.930 . S
C334 C333 1.380 . S
C334 C335 1.376 . S
C334 H357 0.930 . S
C335 C334 1.376 . S
C335 C336 1.370 . S
C336 C335 1.370 . S
C336 C337 1.396 . S
C336 H358 0.929 . S
C337 C332 1.373 . S
C337 C336 1.396 . S
C337 H359 0.929 . S
C338 O348 1.240 . S
C338 O349 1.289 . S
C339 O350 1.258 . S
C339 O351 1.256 . S
O340 La320 2.521 . S
O340 C322 1.261 . S
O341 La320 2.628 . S
O341 C322 1.243 . S
O342 La320 2.554 . S
O342 C329 1.240 . S
O343 La320 2.757 . S
O343 La321 2.482 . S
O343 C329 1.289 . S
O344 La320 2.470 . S
O344 C330 1.258 . S
O345 La321 2.503 . S
O345 C330 1.256 . S
O346 La321 2.521 . S
O346 C331 1.261 . S
O347 La321 2.628 . S
O347 C331 1.243 . S
O348 La321 2.554 . S
O348 C338 1.240 . S
O349 La320 2.482 . S
O349 La321 2.757 . S
O349 C338 1.289 . S
O350 La321 2.470 . S
O350 C339 1.258 . S
O351 La320 2.503 . S
O351 C339 1.256 . S
H352 C324 0.930 . S
H353 C325 0.930 . S
H354 C327 0.929 . S
H355 C328 0.929 . S
H356 C333 0.930 . S
H357 C334 0.930 . S
H358 C336 0.929 . S
H359 C337 0.929 . S
La360 C362 2.928 . S
La360 O380 2.521 . S
La360 O381 2.628 . S
La360 O382 2.554 . S
La360 O383 2.757 . S
La360 O384 2.470 . S
La360 O389 2.482 . S
La360 O391 2.503 . S
La361 C371 2.928 . S
La361 O383 2.482 . S
La361 O385 2.503 . S
La361 O386 2.521 . S
La361 O387 2.628 . S
La361 O388 2.554 . S
La361 O389 2.757 . S
La361 O390 2.470 . S
C362 La360 2.928 . S
C362 C363 1.503 . S
C362 O380 1.261 . S
C362 O381 1.243 . S
C363 C362 1.503 . S
C363 C364 1.394 . S
C363 C368 1.373 . S
C364 C363 1.394 . S
C364 C365 1.380 . S
C364 H392 0.930 . S
C365 C364 1.380 . S
C365 C366 1.376 . S
C365 H393 0.930 . S
C366 C365 1.376 . S
C366 C367 1.370 . S
C367 C366 1.370 . S
C367 C368 1.396 . S
C367 H394 0.929 . S
C368 C363 1.373 . S
C368 C367 1.396 . S
C368 H395 0.929 . S
C369 O382 1.240 . S
C369 O383 1.289 . S
C370 O384 1.258 . S
C370 O385 1.256 . S
C371 La361 2.928 . S
C371 C372 1.503 1_554 S
C371 O386 1.261 . S
C371 O387 1.243 . S
C372 C371 1.503 1_556 S
C372 C373 1.394 . S
C372 C377 1.373 . S
C373 C372 1.394 . S
C373 C374 1.380 . S
C373 H396 0.930 . S
C374 C373 1.380 . S
C374 C375 1.376 . S
C374 H397 0.930 . S
C375 C374 1.376 . S
C375 C376 1.370 . S
C376 C375 1.370 . S
C376 C377 1.396 . S
C376 H398 0.929 . S
C377 C372 1.373 . S
C377 C376 1.396 . S
C377 H399 0.929 . S
C378 O388 1.240 . S
C378 O389 1.289 . S
C379 O390 1.258 . S
C379 O391 1.256 . S
O380 La360 2.521 . S
O380 C362 1.261 . S
O381 La360 2.628 . S
O381 C362 1.243 . S
O382 La360 2.554 . S
O382 C369 1.240 . S
O383 La360 2.757 . S
O383 La361 2.482 . S
O383 C369 1.289 . S
O384 La360 2.470 . S
O384 C370 1.258 . S
O385 La361 2.503 . S
O385 C370 1.256 . S
O386 La361 2.521 . S
O386 C371 1.261 . S
O387 La361 2.628 . S
O387 C371 1.243 . S
O388 La361 2.554 . S
O388 C378 1.240 . S
O389 La360 2.482 . S
O389 La361 2.757 . S
O389 C378 1.289 . S
O390 La361 2.470 . S
O390 C379 1.258 . S
O391 La360 2.503 . S
O391 C379 1.256 . S
H392 C364 0.930 . S
H393 C365 0.930 . S
H394 C367 0.929 . S
H395 C368 0.929 . S
H396 C373 0.930 . S
H397 C374 0.930 . S
H398 C376 0.929 . S
H399 C377 0.929 . S
La400 C402 2.928 . S
La400 O420 2.521 . S
La400 O421 2.628 . S
La400 O422 2.554 . S
La400 O423 2.757 . S
La400 O424 2.470 . S
La400 O429 2.482 . S
La400 O431 2.503 . S
La401 C411 2.928 . S
La401 O423 2.482 . S
La401 O425 2.503 . S
La401 O426 2.521 . S
La401 O427 2.628 . S
La401 O428 2.554 . S
La401 O429 2.757 . S
La401 O430 2.470 . S
C402 La400 2.928 . S
C402 C403 1.503 . S
C402 O420 1.261 . S
C402 O421 1.243 . S
C403 C402 1.503 . S
C403 C404 1.394 . S
C403 C408 1.373 . S
C404 C403 1.394 . S
C404 C405 1.380 1_556 S
C404 H432 0.930 . S
C405 C404 1.380 1_554 S
C405 C406 1.376 . S
C405 H433 0.930 . S
C406 C405 1.376 . S
C406 C407 1.370 . S
C407 C406 1.370 . S
C407 C408 1.396 1_554 S
C407 H434 0.929 . S
C408 C403 1.373 . S
C408 C407 1.396 1_556 S
C408 H435 0.929 . S
C409 O422 1.240 . S
C409 O423 1.289 . S
C410 O424 1.258 . S
C410 O425 1.256 . S
C411 La401 2.928 . S
C411 C412 1.503 . S
C411 O426 1.261 . S
C411 O427 1.243 . S
C412 C411 1.503 . S
C412 C413 1.394 . S
C412 C417 1.373 . S
C413 C412 1.394 . S
C413 C414 1.380 . S
C413 H436 0.930 . S
C414 C413 1.380 . S
C414 C415 1.376 . S
C414 H437 0.930 . S
C415 C414 1.376 . S
C415 C416 1.370 . S
C416 C415 1.370 . S
C416 C417 1.396 . S
C416 H438 0.929 . S
C417 C412 1.373 . S
C417 C416 1.396 . S
C417 H439 0.929 . S
C418 O428 1.240 . S
C418 O429 1.289 . S
C419 O430 1.258 . S
C419 O431 1.256 . S
O420 La400 2.521 . S
O420 C402 1.261 . S
O421 La400 2.628 . S
O421 C402 1.243 . S
O422 La400 2.554 . S
O422 C409 1.240 . S
O423 La400 2.757 . S
O423 La401 2.482 . S
O423 C409 1.289 . S
O424 La400 2.470 . S
O424 C410 1.258 . S
O425 La401 2.503 . S
O425 C410 1.256 . S
O426 La401 2.521 . S
O426 C411 1.261 . S
O427 La401 2.628 . S
O427 C411 1.243 . S
O428 La401 2.554 . S
O428 C418 1.240 . S
O429 La400 2.482 . S
O429 La401 2.757 . S
O429 C418 1.289 . S
O430 La401 2.470 . S
O430 C419 1.258 . S
O431 La400 2.503 . S
O431 C419 1.256 . S
H432 C404 0.930 . S
H433 C405 0.930 . S
H434 C407 0.929 . S
H435 C408 0.929 . S
H436 C413 0.930 . S
H437 C414 0.930 . S
H438 C416 0.929 . S
H439 C417 0.929 . S
La440 C442 2.928 . S
La440 O460 2.521 . S
La440 O461 2.628 . S
La440 O462 2.554 . S
La440 O463 2.757 . S
La440 O464 2.470 . S
La440 O469 2.482 . S
La440 O471 2.503 . S
La441 C451 2.928 . S
La441 O463 2.482 . S
La441 O465 2.503 . S
La441 O466 2.521 . S
La441 O467 2.628 . S
La441 O468 2.554 . S
La441 O469 2.757 . S
La441 O470 2.470 . S
C442 La440 2.928 . S
C442 C443 1.503 . S
C442 O460 1.261 . S
C442 O461 1.243 . S
C443 C442 1.503 . S
C443 C444 1.394 . S
C443 C448 1.373 . S
C444 C443 1.394 . S
C444 C445 1.380 . S
C444 H472 0.930 . S
C445 C444 1.380 . S
C445 C446 1.376 . S
C445 H473 0.930 . S
C446 C445 1.376 . S
C446 C447 1.370 . S
C447 C446 1.370 . S
C447 C448 1.396 . S
C447 H474 0.929 . S
C448 C443 1.373 . S
C448 C447 1.396 . S
C448 H475 0.929 . S
C449 O462 1.240 . S
C449 O463 1.289 . S
C450 O464 1.258 . S
C450 O465 1.256 . S
C451 La441 2.928 . S
C451 C452 1.503 . S
C451 O466 1.261 . S
C451 O467 1.243 . S
C452 C451 1.503 . S
C452 C453 1.394 . S
C452 C457 1.373 . S
C453 C452 1.394 . S
C453 C454 1.380 . S
C453 H476 0.930 . S
C454 C453 1.380 . S
C454 C455 1.376 . S
C454 H477 0.930 . S
C455 C454 1.376 . S
C455 C456 1.370 . S
C456 C455 1.370 . S
C456 C457 1.396 . S
C456 H478 0.929 . S
C457 C452 1.373 . S
C457 C456 1.396 . S
C457 H479 0.929 . S
C458 O468 1.240 . S
C458 O469 1.289 . S
C459 O470 1.258 . S
C459 O471 1.256 . S
O460 La440 2.521 . S
O460 C442 1.261 . S
O461 La440 2.628 . S
O461 C442 1.243 . S
O462 La440 2.554 . S
O462 C449 1.240 . S
O463 La440 2.757 . S
O463 La441 2.482 . S
O463 C449 1.289 . S
O464 La440 2.470 . S
O464 C450 1.258 . S
O465 La441 2.503 . S
O465 C450 1.256 . S
O466 La441 2.521 . S
O466 C451 1.261 . S
O467 La441 2.628 . S
O467 C451 1.243 . S
O468 La441 2.554 . S
O468 C458 1.240 . S
O469 La440 2.482 . S
O469 La441 2.757 . S
O469 C458 1.289 . S
O470 La441 2.470 . S
O470 C459 1.258 . S
O471 La440 2.503 . S
O471 C459 1.256 . S
H472 C444 0.930 . S
H473 C445 0.930 . S
H474 C447 0.929 . S
H475 C448 0.929 . S
H476 C453 0.930 . S
H477 C454 0.930 . S
H478 C456 0.929 . S
H479 C457 0.929 . S
La480 C482 2.928 . S
La480 O500 2.521 . S
La480 O501 2.628 . S
La480 O502 2.554 . S
La480 O503 2.757 . S
La480 O504 2.470 . S
La480 O509 2.482 . S
La480 O511 2.503 . S
La481 C491 2.928 . S
La481 O503 2.482 . S
La481 O505 2.503 . S
La481 O506 2.521 . S
La481 O507 2.628 . S
La481 O508 2.554 . S
La481 O509 2.757 . S
La481 O510 2.470 . S
C482 La480 2.928 . S
C482 C483 1.503 . S
C482 O500 1.261 . S
C482 O501 1.243 . S
C483 C482 1.503 . S
C483 C484 1.394 . S
C483 C488 1.373 . S
C484 C483 1.394 . S
C484 C485 1.380 . S
C484 H512 0.930 . S
C485 C484 1.380 . S
C485 C486 1.376 . S
C485 H513 0.930 . S
C486 C485 1.376 . S
C486 C487 1.370 . S
C487 C486 1.370 . S
C487 C488 1.396 . S
C487 H514 0.929 . S
C488 C483 1.373 . S
C488 C487 1.396 . S
C488 H515 0.929 . S
C489 O502 1.240 . S
C489 O503 1.289 . S
C490 O504 1.258 . S
C490 O505 1.256 . S
C491 La481 2.928 . S
C491 C492 1.503 . S
C491 O506 1.261 . S
C491 O507 1.243 . S
C492 C491 1.503 . S
C492 C493 1.394 . S
C492 C497 1.373 . S
C493 C492 1.394 . S
C493 C494 1.380 . S
C493 H516 0.930 . S
C494 C493 1.380 . S
C494 C495 1.376 . S
C494 H517 0.930 . S
C495 C494 1.376 . S
C495 C496 1.370 . S
C496 C495 1.370 . S
C496 C497 1.396 . S
C496 H518 0.929 . S
C497 C492 1.373 . S
C497 C496 1.396 . S
C497 H519 0.929 . S
C498 O508 1.240 . S
C498 O509 1.289 . S
C499 O510 1.258 . S
C499 O511 1.256 . S
O500 La480 2.521 . S
O500 C482 1.261 . S
O501 La480 2.628 . S
O501 C482 1.243 . S
O502 La480 2.554 . S
O502 C489 1.240 . S
O503 La480 2.757 . S
O503 La481 2.482 . S
O503 C489 1.289 . S
O504 La480 2.470 . S
O504 C490 1.258 . S
O505 La481 2.503 . S
O505 C490 1.256 . S
O506 La481 2.521 . S
O506 C491 1.261 . S
O507 La481 2.628 . S
O507 C491 1.243 . S
O508 La481 2.554 . S
O508 C498 1.240 . S
O509 La480 2.482 . S
O509 La481 2.757 . S
O509 C498 1.289 . S
O510 La481 2.470 . S
O510 C499 1.258 . S
O511 La480 2.503 . S
O511 C499 1.256 . S
H512 C484 0.930 . S
H513 C485 0.930 . S
H514 C487 0.929 . S
H515 C488 0.929 . S
H516 C493 0.930 . S
H517 C494 0.930 . S
H518 C496 0.929 . S
H519 C497 0.929 . S
La520 C522 2.928 . S
La520 O540 2.521 . S
La520 O541 2.628 . S
La520 O542 2.554 . S
La520 O543 2.757 1_655 S
La520 O544 2.470 1_655 S
La520 O549 2.482 1_655 S
La520 O551 2.503 . S
La521 C531 2.928 . S
La521 O543 2.482 . S
La521 O545 2.503 . S
La521 O546 2.521 . S
La521 O547 2.628 . S
La521 O548 2.554 . S
La521 O549 2.757 . S
La521 O550 2.470 . S
C522 La520 2.928 . S
C522 C523 1.503 . S
C522 O540 1.261 . S
C522 O541 1.243 . S
C523 C522 1.503 . S
C523 C524 1.394 . S
C523 C528 1.373 . S
C524 C523 1.394 . S
C524 C525 1.380 . S
C524 H552 0.930 . S
C525 C524 1.380 . S
C525 C526 1.376 . S
C525 H553 0.930 . S
C526 C525 1.376 . S
C526 C527 1.370 . S
C527 C526 1.370 . S
C527 C528 1.396 . S
C527 H554 0.929 . S
C528 C523 1.373 . S
C528 C527 1.396 . S
C528 H555 0.929 . S
C529 O542 1.240 1_455 S
C529 O543 1.289 . S
C530 O544 1.258 . S
C530 O545 1.256 . S
C531 La521 2.928 . S
C531 C532 1.503 1_554 S
C531 O546 1.261 . S
C531 O547 1.243 . S
C532 C531 1.503 1_556 S
C532 C533 1.394 . S
C532 C537 1.373 . S
C533 C532 1.394 . S
C533 C534 1.380 . S
C533 H556 0.930 . S
C534 C533 1.380 . S
C534 C535 1.376 . S
C534 H557 0.930 . S
C535 C534 1.376 . S
C535 C536 1.370 . S
C536 C535 1.370 . S
C536 C537 1.396 . S
C536 H558 0.929 . S
C537 C532 1.373 . S
C537 C536 1.396 . S
C537 H559 0.929 . S
C538 O548 1.240 . S
C538 O549 1.289 . S
C539 O550 1.258 1_655 S
C539 O551 1.256 . S
O540 La520 2.521 . S
O540 C522 1.261 . S
O541 La520 2.628 . S
O541 C522 1.243 . S
O542 La520 2.554 . S
O542 C529 1.240 1_655 S
O543 La520 2.757 1_455 S
O543 La521 2.482 . S
O543 C529 1.289 . S
O544 La520 2.470 1_455 S
O544 C530 1.258 . S
O545 La521 2.503 . S
O545 C530 1.256 . S
O546 La521 2.521 . S
O546 C531 1.261 . S
O547 La521 2.628 . S
O547 C531 1.243 . S
O548 La521 2.554 . S
O548 C538 1.240 . S
O549 La520 2.482 1_455 S
O549 La521 2.757 . S
O549 C538 1.289 . S
O550 La521 2.470 . S
O550 C539 1.258 1_455 S
O551 La520 2.503 . S
O551 C539 1.256 . S
H552 C524 0.930 . S
H553 C525 0.930 . S
H554 C527 0.929 . S
H555 C528 0.929 . S
H556 C533 0.930 . S
H557 C534 0.930 . S
H558 C536 0.929 . S
H559 C537 0.929 . S
La560 C562 2.928 . S
La560 O580 2.521 . S
La560 O581 2.628 . S
La560 O582 2.554 . S
La560 O583 2.757 . S
La560 O584 2.470 . S
La560 O589 2.482 . S
La560 O591 2.503 . S
La561 C571 2.928 . S
La561 O583 2.482 . S
La561 O585 2.503 . S
La561 O586 2.521 . S
La561 O587 2.628 . S
La561 O588 2.554 . S
La561 O589 2.757 . S
La561 O590 2.470 . S
C562 La560 2.928 . S
C562 C563 1.503 . S
C562 O580 1.261 . S
C562 O581 1.243 . S
C563 C562 1.503 . S
C563 C564 1.394 . S
C563 C568 1.373 . S
C564 C563 1.394 . S
C564 C565 1.380 . S
C564 H592 0.930 . S
C565 C564 1.380 . S
C565 C566 1.376 . S
C565 H593 0.930 . S
C566 C565 1.376 . S
C566 C567 1.370 . S
C567 C566 1.370 . S
C567 C568 1.396 . S
C567 H594 0.929 . S
C568 C563 1.373 . S
C568 C567 1.396 . S
C568 H595 0.929 . S
C569 O582 1.240 . S
C569 O583 1.289 . S
C570 O584 1.258 . S
C570 O585 1.256 . S
C571 La561 2.928 . S
C571 C572 1.503 . S
C571 O586 1.261 . S
C571 O587 1.243 . S
C572 C571 1.503 . S
C572 C573 1.394 . S
C572 C577 1.373 . S
C573 C572 1.394 . S
C573 C574 1.380 . S
C573 H596 0.930 . S
C574 C573 1.380 . S
C574 C575 1.376 . S
C574 H597 0.930 . S
C575 C574 1.376 . S
C575 C576 1.370 . S
C576 C575 1.370 . S
C576 C577 1.396 . S
C576 H598 0.929 . S
C577 C572 1.373 . S
C577 C576 1.396 . S
C577 H599 0.929 . S
C578 O588 1.240 . S
C578 O589 1.289 . S
C579 O590 1.258 . S
C579 O591 1.256 . S
O580 La560 2.521 . S
O580 C562 1.261 . S
O581 La560 2.628 . S
O581 C562 1.243 . S
O582 La560 2.554 . S
O582 C569 1.240 . S
O583 La560 2.757 . S
O583 La561 2.482 . S
O583 C569 1.289 . S
O584 La560 2.470 . S
O584 C570 1.258 . S
O585 La561 2.503 . S
O585 C570 1.256 . S
O586 La561 2.521 . S
O586 C571 1.261 . S
O587 La561 2.628 . S
O587 C571 1.243 . S
O588 La561 2.554 . S
O588 C578 1.240 . S
O589 La560 2.482 . S
O589 La561 2.757 . S
O589 C578 1.289 . S
O590 La561 2.470 . S
O590 C579 1.258 . S
O591 La560 2.503 . S
O591 C579 1.256 . S
H592 C564 0.930 . S
H593 C565 0.930 . S
H594 C567 0.929 . S
H595 C568 0.929 . S
H596 C573 0.930 . S
H597 C574 0.930 . S
H598 C576 0.929 . S
H599 C577 0.929 . S
La600 C602 2.928 . S
La600 O620 2.521 . S
La600 O621 2.628 . S
La600 O622 2.554 1_655 S
La600 O623 2.757 1_655 S
La600 O624 2.470 1_655 S
La600 O629 2.482 1_655 S
La600 O631 2.503 . S
La601 C611 2.928 . S
La601 O623 2.482 . S
La601 O625 2.503 . S
La601 O626 2.521 . S
La601 O627 2.628 . S
La601 O628 2.554 . S
La601 O629 2.757 . S
La601 O630 2.470 . S
C602 La600 2.928 . S
C602 C603 1.503 1_556 S
C602 O620 1.261 . S
C602 O621 1.243 . S
C603 C602 1.503 1_554 S
C603 C604 1.394 . S
C603 C608 1.373 . S
C604 C603 1.394 . S
C604 C605 1.380 . S
C604 H632 0.930 . S
C605 C604 1.380 . S
C605 C606 1.376 . S
C605 H633 0.930 . S
C606 C605 1.376 . S
C606 C607 1.370 . S
C607 C606 1.370 . S
C607 C608 1.396 . S
C607 H634 0.929 . S
C608 C603 1.373 . S
C608 C607 1.396 . S
C608 H635 0.929 . S
C609 O622 1.240 . S
C609 O623 1.289 . S
C610 O624 1.258 . S
C610 O625 1.256 . S
C611 La601 2.928 . S
C611 C612 1.503 . S
C611 O626 1.261 . S
C611 O627 1.243 . S
C612 C611 1.503 . S
C612 C613 1.394 . S
C612 C617 1.373 . S
C613 C612 1.394 . S
C613 C614 1.380 . S
C613 H636 0.930 . S
C614 C613 1.380 . S
C614 C615 1.376 . S
C614 H637 0.930 . S
C615 C614 1.376 . S
C615 C616 1.370 . S
C616 C615 1.370 . S
C616 C617 1.396 . S
C616 H638 0.929 . S
C617 C612 1.373 . S
C617 C616 1.396 . S
C617 H639 0.929 . S
C618 O628 1.240 . S
C618 O629 1.289 . S
C619 O630 1.258 1_655 S
C619 O631 1.256 . S
O620 La600 2.521 . S
O620 C602 1.261 . S
O621 La600 2.628 . S
O621 C602 1.243 . S
O622 La600 2.554 1_455 S
O622 C609 1.240 . S
O623 La600 2.757 1_455 S
O623 La601 2.482 . S
O623 C609 1.289 . S
O624 La600 2.470 1_455 S
O624 C610 1.258 . S
O625 La601 2.503 . S
O625 C610 1.256 . S
O626 La601 2.521 . S
O626 C611 1.261 . S
O627 La601 2.628 . S
O627 C611 1.243 . S
O628 La601 2.554 . S
O628 C618 1.240 . S
O629 La600 2.482 1_455 S
O629 La601 2.757 . S
O629 C618 1.289 . S
O630 La601 2.470 . S
O630 C619 1.258 1_455 S
O631 La600 2.503 . S
O631 C619 1.256 . S
H632 C604 0.930 . S
H633 C605 0.930 . S
H634 C607 0.929 . S
H635 C608 0.929 . S
H636 C613 0.930 . S
H637 C614 0.930 . S
H638 C616 0.929 . S
H639 C617 0.929 . S
H640 C648 0.950 . S
H641 C653 0.950 . S
H642 C650 0.950 . S
H643 C652 0.950 . S
H644 C654 0.950 . S
H645 C656 0.950 . S
H646 C658 0.950 . S
H647 C659 0.950 . S
C648 H640 0.950 . S
C648 C649 1.386 . S
C648 C650 1.391 . S
C649 C648 1.386 . S
C649 C653 1.393 . S
C650 H642 0.950 . S
C650 C648 1.391 . S
C650 C651 1.400 . S
C651 C650 1.400 . S
C651 C652 1.398 . S
C651 C657 1.491 . S
C652 H643 0.950 . S
C652 C651 1.398 . S
C652 C653 1.391 . S
C653 H641 0.950 . S
C653 C649 1.393 . S
C653 C652 1.391 . S
C654 H644 0.950 . S
C654 C655 1.386 . S
C654 C656 1.391 . S
C655 C654 1.386 . S
C655 C659 1.393 . S
C656 H645 0.950 . S
C656 C654 1.391 . S
C656 C657 1.400 . S
C657 C651 1.491 . S
C657 C656 1.400 . S
C657 C658 1.398 . S
C658 H646 0.950 . S
C658 C657 1.398 . S
C658 C659 1.391 . S
C659 H647 0.950 . S
C659 C655 1.393 . S
C659 C658 1.391 . S
H660 C668 0.950 . S
H661 C673 0.950 . S
H662 C670 0.950 . S
H663 C672 0.950 . S
H664 C674 0.950 . S
H665 C676 0.950 . S
H666 C678 0.950 . S
H667 C679 0.950 . S
C668 H660 0.950 . S
C668 C669 1.386 . S
C668 C670 1.391 . S
C669 C668 1.386 . S
C669 C673 1.393 . S
C670 H662 0.950 . S
C670 C668 1.391 . S
C670 C671 1.400 . S
C671 C670 1.400 . S
C671 C672 1.398 . S
C671 C677 1.491 . S
C672 H663 0.950 . S
C672 C671 1.398 . S
C672 C673 1.391 . S
C673 H661 0.950 . S
C673 C669 1.393 . S
C673 C672 1.391 . S
C674 H664 0.950 . S
C674 C675 1.386 . S
C674 C676 1.391 . S
C675 C674 1.386 . S
C675 C679 1.393 . S
C676 H665 0.950 . S
C676 C674 1.391 . S
C676 C677 1.400 . S
C677 C671 1.491 . S
C677 C676 1.400 . S
C677 C678 1.398 . S
C678 H666 0.950 . S
C678 C677 1.398 . S
C678 C679 1.391 . S
C679 H667 0.950 . S
C679 C675 1.393 . S
C679 C678 1.391 . S
H680 C688 0.950 . S
H681 C693 0.950 . S
H682 C690 0.950 . S
H683 C692 0.950 . S
H684 C694 0.950 . S
H685 C696 0.950 . S
H686 C698 0.950 . S
H687 C699 0.950 . S
C688 H680 0.950 . S
C688 C689 1.386 . S
C688 C690 1.391 . S
C689 C688 1.386 . S
C689 C693 1.393 . S
C690 H682 0.950 . S
C690 C688 1.391 . S
C690 C691 1.400 . S
C691 C690 1.400 . S
C691 C692 1.398 . S
C691 C697 1.491 . S
C692 H683 0.950 . S
C692 C691 1.398 . S
C692 C693 1.391 . S
C693 H681 0.950 . S
C693 C689 1.393 . S
C693 C692 1.391 . S
C694 H684 0.950 . S
C694 C695 1.386 . S
C694 C696 1.391 . S
C695 C694 1.386 . S
C695 C699 1.393 . S
C696 H685 0.950 . S
C696 C694 1.391 . S
C696 C697 1.400 . S
C697 C691 1.491 . S
C697 C696 1.400 . S
C697 C698 1.398 . S
C698 H686 0.950 . S
C698 C697 1.398 . S
C698 C699 1.391 . S
C699 H687 0.950 . S
C699 C695 1.393 . S
C699 C698 1.391 . S
H700 C708 0.950 . S
H701 C713 0.950 . S
H702 C710 0.950 . S
H703 C712 0.950 . S
H704 C714 0.950 . S
H705 C716 0.950 . S
H706 C718 0.950 . S
H707 C719 0.950 . S
C708 H700 0.950 . S
C708 C709 1.386 . S
C708 C710 1.391 . S
C709 C708 1.386 . S
C709 C713 1.393 . S
C710 H702 0.950 . S
C710 C708 1.391 . S
C710 C711 1.400 . S
C711 C710 1.400 . S
C711 C712 1.398 . S
C711 C717 1.491 . S
C712 H703 0.950 . S
C712 C711 1.398 . S
C712 C713 1.391 . S
C713 H701 0.950 . S
C713 C709 1.393 . S
C713 C712 1.391 . S
C714 H704 0.950 . S
C714 C715 1.386 . S
C714 C716 1.391 . S
C715 C714 1.386 . S
C715 C719 1.393 . S
C716 H705 0.950 . S
C716 C714 1.391 . S
C716 C717 1.400 . S
C717 C711 1.491 . S
C717 C716 1.400 . S
C717 C718 1.398 . S
C718 H706 0.950 . S
C718 C717 1.398 . S
C718 C719 1.391 . S
C719 H707 0.950 . S
C719 C715 1.393 . S
C719 C718 1.391 . S
H720 C728 0.950 . S
H721 C733 0.950 . S
H722 C730 0.950 . S
H723 C732 0.950 . S
H724 C734 0.950 . S
H725 C736 0.950 . S
H726 C738 0.950 . S
H727 C739 0.950 . S
C728 H720 0.950 . S
C728 C729 1.386 . S
C728 C730 1.391 . S
C729 C728 1.386 . S
C729 C733 1.393 . S
C730 H722 0.950 . S
C730 C728 1.391 . S
C730 C731 1.400 . S
C731 C730 1.400 . S
C731 C732 1.398 . S
C731 C737 1.491 . S
C732 H723 0.950 . S
C732 C731 1.398 . S
C732 C733 1.391 . S
C733 H721 0.950 . S
C733 C729 1.393 . S
C733 C732 1.391 . S
C734 H724 0.950 . S
C734 C735 1.386 . S
C734 C736 1.391 . S
C735 C734 1.386 . S
C735 C739 1.393 . S
C736 H725 0.950 . S
C736 C734 1.391 . S
C736 C737 1.400 . S
C737 C731 1.491 . S
C737 C736 1.400 . S
C737 C738 1.398 . S
C738 H726 0.950 . S
C738 C737 1.398 . S
C738 C739 1.391 . S
C739 H727 0.950 . S
C739 C735 1.393 . S
C739 C738 1.391 . S
H740 C748 0.950 . S
H741 C753 0.950 . S
H742 C750 0.950 . S
H743 C752 0.950 . S
H744 C754 0.950 . S
H745 C756 0.950 . S
H746 C758 0.950 . S
H747 C759 0.950 . S
C748 H740 0.950 . S
C748 C749 1.386 . S
C748 C750 1.391 . S
C749 C748 1.386 . S
C749 C753 1.393 . S
C750 H742 0.950 . S
C750 C748 1.391 . S
C750 C751 1.400 . S
C751 C750 1.400 . S
C751 C752 1.398 . S
C751 C757 1.491 . S
C752 H743 0.950 . S
C752 C751 1.398 . S
C752 C753 1.391 . S
C753 H741 0.950 . S
C753 C749 1.393 . S
C753 C752 1.391 . S
C754 H744 0.950 . S
C754 C755 1.386 . S
C754 C756 1.391 . S
C755 C754 1.386 . S
C755 C759 1.393 . S
C756 H745 0.950 . S
C756 C754 1.391 . S
C756 C757 1.400 . S
C757 C751 1.491 . S
C757 C756 1.400 . S
C757 C758 1.398 . S
C758 H746 0.950 . S
C758 C757 1.398 . S
C758 C759 1.391 . S
C759 H747 0.950 . S
C759 C755 1.393 . S
C759 C758 1.391 . S
H760 C768 0.950 . S
H761 C773 0.950 . S
H762 C770 0.950 . S
H763 C772 0.950 . S
H764 C774 0.950 . S
H765 C776 0.950 . S
H766 C778 0.950 . S
H767 C779 0.950 . S
C768 H760 0.950 . S
C768 C769 1.386 . S
C768 C770 1.391 . S
C769 C768 1.386 . S
C769 C773 1.393 . S
C770 H762 0.950 . S
C770 C768 1.391 . S
C770 C771 1.400 . S
C771 C770 1.400 . S
C771 C772 1.398 . S
C771 C777 1.491 . S
C772 H763 0.950 . S
C772 C771 1.398 . S
C772 C773 1.391 . S
C773 H761 0.950 . S
C773 C769 1.393 . S
C773 C772 1.391 . S
C774 H764 0.950 . S
C774 C775 1.386 . S
C774 C776 1.391 . S
C775 C774 1.386 . S
C775 C779 1.393 . S
C776 H765 0.950 . S
C776 C774 1.391 . S
C776 C777 1.400 . S
C777 C771 1.491 . S
C777 C776 1.400 . S
C777 C778 1.398 . S
C778 H766 0.950 . S
C778 C777 1.398 . S
C778 C779 1.391 . S
C779 H767 0.950 . S
C779 C775 1.393 . S
C779 C778 1.391 . S
H780 C788 0.950 . S
H781 C793 0.950 . S
H782 C790 0.950 . S
H783 C792 0.950 . S
H784 C794 0.950 . S
H785 C796 0.950 . S
H786 C798 0.950 . S
H787 C799 0.950 . S
C788 H780 0.950 . S
C788 C789 1.386 . S
C788 C790 1.391 . S
C789 C788 1.386 . S
C789 C793 1.393 . S
C790 H782 0.950 . S
C790 C788 1.391 . S
C790 C791 1.400 . S
C791 C790 1.400 . S
C791 C792 1.398 . S
C791 C797 1.491 . S
C792 H783 0.950 . S
C792 C791 1.398 . S
C792 C793 1.391 . S
C793 H781 0.950 . S
C793 C789 1.393 . S
C793 C792 1.391 . S
C794 H784 0.950 . S
C794 C795 1.386 . S
C794 C796 1.391 . S
C795 C794 1.386 . S
C795 C799 1.393 . S
C796 H785 0.950 . S
C796 C794 1.391 . S
C796 C797 1.400 . S
C797 C791 1.491 . S
C797 C796 1.400 . S
C797 C798 1.398 . S
C798 H786 0.950 . S
C798 C797 1.398 . S
C798 C799 1.391 . S
C799 H787 0.950 . S
C799 C795 1.393 . S
C799 C798 1.391 . S
H800 C808 0.950 . S
H801 C813 0.950 . S
H802 C810 0.950 . S
H803 C812 0.950 . S
H804 C814 0.950 . S
H805 C816 0.950 . S
H806 C818 0.950 . S
H807 C819 0.950 . S
C808 H800 0.950 . S
C808 C809 1.386 . S
C808 C810 1.391 . S
C809 C808 1.386 . S
C809 C813 1.393 . S
C810 H802 0.950 . S
C810 C808 1.391 . S
C810 C811 1.400 . S
C811 C810 1.400 . S
C811 C812 1.398 . S
C811 C817 1.491 . S
C812 H803 0.950 . S
C812 C811 1.398 . S
C812 C813 1.391 . S
C813 H801 0.950 . S
C813 C809 1.393 . S
C813 C812 1.391 . S
C814 H804 0.950 . S
C814 C815 1.386 . S
C814 C816 1.391 . S
C815 C814 1.386 . S
C815 C819 1.393 . S
C816 H805 0.950 . S
C816 C814 1.391 . S
C816 C817 1.400 . S
C817 C811 1.491 . S
C817 C816 1.400 . S
C817 C818 1.398 . S
C818 H806 0.950 . S
C818 C817 1.398 . S
C818 C819 1.391 . S
C819 H807 0.950 . S
C819 C815 1.393 . S
C819 C818 1.391 . S
H820 C828 0.950 . S
H821 C833 0.950 . S
H822 C830 0.950 . S
H823 C832 0.950 . S
H824 C834 0.950 . S
H825 C836 0.950 . S
H826 C838 0.950 . S
H827 C839 0.950 . S
C828 H820 0.950 . S
C828 C829 1.386 . S
C828 C830 1.391 . S
C829 C828 1.386 . S
C829 C833 1.393 . S
C830 H822 0.950 . S
C830 C828 1.391 . S
C830 C831 1.400 . S
C831 C830 1.400 . S
C831 C832 1.398 . S
C831 C837 1.491 . S
C832 H823 0.950 . S
C832 C831 1.398 . S
C832 C833 1.391 . S
C833 H821 0.950 . S
C833 C829 1.393 . S
C833 C832 1.391 . S
C834 H824 0.950 . S
C834 C835 1.386 . S
C834 C836 1.391 . S
C835 C834 1.386 . S
C835 C839 1.393 . S
C836 H825 0.950 . S
C836 C834 1.391 . S
C836 C837 1.400 . S
C837 C831 1.491 . S
C837 C836 1.400 . S
C837 C838 1.398 . S
C838 H826 0.950 . S
C838 C837 1.398 . S
C838 C839 1.391 . S
C839 H827 0.950 . S
C839 C835 1.393 . S
C839 C838 1.391 . S
H840 C848 0.950 . S
H841 C853 0.950 . S
H842 C850 0.950 1_556 S
H843 C852 0.950 . S
H844 C854 0.950 . S
H845 C856 0.950 . S
H846 C858 0.950 . S
H847 C859 0.950 . S
C848 H840 0.950 . S
C848 C849 1.386 . S
C848 C850 1.391 . S
C849 C848 1.386 . S
C849 C853 1.393 . S
C850 H842 0.950 1_554 S
C850 C848 1.391 . S
C850 C851 1.400 1_554 S
C851 C850 1.400 1_556 S
C851 C852 1.398 . S
C851 C857 1.491 . S
C852 H843 0.950 . S
C852 C851 1.398 . S
C852 C853 1.391 1_556 S
C853 H841 0.950 . S
C853 C849 1.393 . S
C853 C852 1.391 1_554 S
C854 H844 0.950 . S
C854 C855 1.386 . S
C854 C856 1.391 . S
C855 C854 1.386 . S
C855 C859 1.393 . S
C856 H845 0.950 . S
C856 C854 1.391 . S
C856 C857 1.400 . S
C857 C851 1.491 . S
C857 C856 1.400 . S
C857 C858 1.398 . S
C858 H846 0.950 . S
C858 C857 1.398 . S
C858 C859 1.391 . S
C859 H847 0.950 . S
C859 C855 1.393 . S
C859 C858 1.391 . S
H860 C868 0.950 . S
H861 C873 0.950 . S
H862 C870 0.950 . S
H863 C872 0.950 . S
H864 C874 0.950 . S
H865 C876 0.950 . S
H866 C878 0.950 . S
H867 C879 0.950 . S
C868 H860 0.950 . S
C868 C869 1.386 . S
C868 C870 1.391 . S
C869 C868 1.386 . S
C869 C873 1.393 . S
C870 H862 0.950 . S
C870 C868 1.391 . S
C870 C871 1.400 . S
C871 C870 1.400 . S
C871 C872 1.398 . S
C871 C877 1.491 . S
C872 H863 0.950 . S
C872 C871 1.398 . S
C872 C873 1.391 . S
C873 H861 0.950 . S
C873 C869 1.393 . S
C873 C872 1.391 . S
C874 H864 0.950 . S
C874 C875 1.386 . S
C874 C876 1.391 . S
C875 C874 1.386 . S
C875 C879 1.393 . S
C876 H865 0.950 . S
C876 C874 1.391 . S
C876 C877 1.400 . S
C877 C871 1.491 . S
C877 C876 1.400 . S
C877 C878 1.398 . S
C878 H866 0.950 . S
C878 C877 1.398 . S
C878 C879 1.391 . S
C879 H867 0.950 . S
C879 C875 1.393 . S
C879 C878 1.391 . S
H880 C888 0.950 . S
H881 C893 0.950 . S
H882 C890 0.950 . S
H883 C892 0.950 . S
H884 C894 0.950 . S
H885 C896 0.950 . S
H886 C898 0.950 . S
H887 C899 0.950 . S
C888 H880 0.950 . S
C888 C889 1.386 . S
C888 C890 1.391 . S
C889 C888 1.386 . S
C889 C893 1.393 . S
C890 H882 0.950 . S
C890 C888 1.391 . S
C890 C891 1.400 . S
C891 C890 1.400 . S
C891 C892 1.398 . S
C891 C897 1.491 . S
C892 H883 0.950 . S
C892 C891 1.398 . S
C892 C893 1.391 . S
C893 H881 0.950 . S
C893 C889 1.393 . S
C893 C892 1.391 . S
C894 H884 0.950 . S
C894 C895 1.386 . S
C894 C896 1.391 . S
C895 C894 1.386 . S
C895 C899 1.393 . S
C896 H885 0.950 . S
C896 C894 1.391 . S
C896 C897 1.400 . S
C897 C891 1.491 . S
C897 C896 1.400 . S
C897 C898 1.398 . S
C898 H886 0.950 . S
C898 C897 1.398 . S
C898 C899 1.391 . S
C899 H887 0.950 . S
C899 C895 1.393 . S
C899 C898 1.391 . S
H900 C908 0.950 . S
H901 C913 0.950 . S
H902 C910 0.950 . S
H903 C912 0.950 . S
H904 C914 0.950 . S
H905 C916 0.950 . S
H906 C918 0.950 . S
H907 C919 0.950 . S
C908 H900 0.950 . S
C908 C909 1.386 . S
C908 C910 1.391 . S
C909 C908 1.386 . S
C909 C913 1.393 . S
C910 H902 0.950 . S
C910 C908 1.391 . S
C910 C911 1.400 . S
C911 C910 1.400 . S
C911 C912 1.398 . S
C911 C917 1.491 . S
C912 H903 0.950 . S
C912 C911 1.398 . S
C912 C913 1.391 . S
C913 H901 0.950 . S
C913 C909 1.393 . S
C913 C912 1.391 . S
C914 H904 0.950 . S
C914 C915 1.386 . S
C914 C916 1.391 . S
C915 C914 1.386 . S
C915 C919 1.393 . S
C916 H905 0.950 . S
C916 C914 1.391 . S
C916 C917 1.400 . S
C917 C911 1.491 . S
C917 C916 1.400 . S
C917 C918 1.398 . S
C918 H906 0.950 . S
C918 C917 1.398 . S
C918 C919 1.391 . S
C919 H907 0.950 . S
C919 C915 1.393 . S
C919 C918 1.391 . S
H920 C928 0.950 . S
H921 C933 0.950 . S
H922 C930 0.950 . S
H923 C932 0.950 . S
H924 C934 0.950 . S
H925 C936 0.950 . S
H926 C938 0.950 1_554 S
H927 C939 0.950 . S
C928 H920 0.950 . S
C928 C929 1.386 . S
C928 C930 1.391 . S
C929 C928 1.386 . S
C929 C933 1.393 . S
C930 H922 0.950 . S
C930 C928 1.391 . S
C930 C931 1.400 . S
C931 C930 1.400 . S
C931 C932 1.398 . S
C931 C937 1.491 . S
C932 H923 0.950 . S
C932 C931 1.398 . S
C932 C933 1.391 . S
C933 H921 0.950 . S
C933 C929 1.393 . S
C933 C932 1.391 . S
C934 H924 0.950 . S
C934 C935 1.386 . S
C934 C936 1.391 1_556 S
C935 C934 1.386 . S
C935 C939 1.393 . S
C936 H925 0.950 . S
C936 C934 1.391 1_554 S
C936 C937 1.400 . S
C937 C931 1.491 . S
C937 C936 1.400 . S
C937 C938 1.398 1_554 S
C938 H926 0.950 1_556 S
C938 C937 1.398 1_556 S
C938 C939 1.391 . S
C939 H927 0.950 . S
C939 C935 1.393 . S
C939 C938 1.391 . S
H940 C948 0.950 . S
H941 C953 0.950 . S
H942 C950 0.950 . S
H943 C952 0.950 . S
H944 C954 0.950 . S
H945 C956 0.950 . S
H946 C958 0.950 . S
H947 C959 0.950 . S
C948 H940 0.950 . S
C948 C949 1.386 . S
C948 C950 1.391 . S
C949 C948 1.386 . S
C949 C953 1.393 . S
C950 H942 0.950 . S
C950 C948 1.391 . S
C950 C951 1.400 . S
C951 C950 1.400 . S
C951 C952 1.398 . S
C951 C957 1.491 . S
C952 H943 0.950 . S
C952 C951 1.398 . S
C952 C953 1.391 . S
C953 H941 0.950 . S
C953 C949 1.393 . S
C953 C952 1.391 . S
C954 H944 0.950 . S
C954 C955 1.386 . S
C954 C956 1.391 . S
C955 C954 1.386 . S
C955 C959 1.393 . S
C956 H945 0.950 . S
C956 C954 1.391 . S
C956 C957 1.400 . S
C957 C951 1.491 . S
C957 C956 1.400 . S
C957 C958 1.398 . S
C958 H946 0.950 . S
C958 C957 1.398 . S
C958 C959 1.391 . S
C959 H947 0.950 . S
C959 C955 1.393 . S
C959 C958 1.391 . S
H960 C968 0.950 . S
H961 C973 0.950 . S
H962 C970 0.950 . S
H963 C972 0.950 . S
H964 C974 0.950 . S
H965 C976 0.950 . S
H966 C978 0.950 . S
H967 C979 0.950 . S
C968 H960 0.950 . S
C968 C969 1.386 1_655 S
C968 C970 1.391 . S
C969 C968 1.386 1_455 S
C969 C973 1.393 . S
C970 H962 0.950 . S
C970 C968 1.391 . S
C970 C971 1.400 1_655 S
C971 C970 1.400 1_455 S
C971 C972 1.398 . S
C971 C977 1.491 . S
C972 H963 0.950 . S
C972 C971 1.398 . S
C972 C973 1.391 . S
C973 H961 0.950 . S
C973 C969 1.393 . S
C973 C972 1.391 . S
C974 H964 0.950 . S
C974 C975 1.387 . S
C974 C976 1.391 . S
C975 C974 1.387 . S
C975 C979 1.391 1_455 S
C976 H965 0.950 . S
C976 C974 1.391 . S
C976 C977 1.400 . S
C977 C971 1.491 . S
C977 C976 1.400 . S
C977 C978 1.398 1_455 S
C978 H966 0.950 . S
C978 C977 1.398 1_655 S
C978 C979 1.391 . S
C979 H967 0.950 . S
C979 C975 1.391 1_655 S
C979 C978 1.391 . S
H980 C988 0.950 . S
H981 C993 0.950 . S
H982 C990 0.952 . S
H983 C992 0.950 . S
H984 C994 0.950 . S
H985 C996 0.950 . S
H986 C998 0.950 . S
H987 C999 0.950 . S
C988 H980 0.950 . S
C988 C989 1.386 . S
C988 C990 1.386 1_655 S
C989 C988 1.386 . S
C989 C993 1.393 . S
C990 H982 0.952 . S
C990 C988 1.386 1_455 S
C990 C991 1.404 . S
C991 C990 1.404 . S
C991 C992 1.398 . S
C991 C997 1.491 . S
C992 H983 0.950 . S
C992 C991 1.398 . S
C992 C993 1.391 1_455 S
C993 H981 0.950 . S
C993 C989 1.393 . S
C993 C992 1.391 1_655 S
C994 H984 0.950 . S
C994 C995 1.386 . S
C994 C996 1.391 . S
C995 C994 1.386 . S
C995 C999 1.393 . S
C996 H985 0.950 . S
C996 C994 1.391 . S
C996 C997 1.400 . S
C997 C991 1.491 . S
C997 C996 1.400 . S
C997 C998 1.398 . S
C998 H986 0.950 . S
C998 C997 1.398 . S
C998 C999 1.391 . S
C999 H987 0.950 . S
C999 C995 1.393 . S
C999 C998 1.391 . S
H1000 C1008 0.950 . S
H1001 C1013 0.950 . S
H1002 C1010 0.950 . S
H1003 C1012 0.950 . S
H1004 C1014 0.950 . S
H1005 C1016 0.950 . S
H1006 C1018 0.950 . S
H1007 C1019 0.950 . S
C1008 H1000 0.950 . S
C1008 C1009 1.386 . S
C1008 C1010 1.391 . S
C1009 C1008 1.386 . S
C1009 C1013 1.393 . S
C1010 H1002 0.950 . S
C1010 C1008 1.391 . S
C1010 C1011 1.400 . S
C1011 C1010 1.400 . S
C1011 C1012 1.398 . S
C1011 C1017 1.491 . S
C1012 H1003 0.950 . S
C1012 C1011 1.398 . S
C1012 C1013 1.391 . S
C1013 H1001 0.950 . S
C1013 C1009 1.393 . S
C1013 C1012 1.391 . S
C1014 H1004 0.950 . S
C1014 C1015 1.386 . S
C1014 C1016 1.391 . S
C1015 C1014 1.386 . S
C1015 C1019 1.393 . S
C1016 H1005 0.950 . S
C1016 C1014 1.391 . S
C1016 C1017 1.400 . S
C1017 C1011 1.491 . S
C1017 C1016 1.400 . S
C1017 C1018 1.398 . S
C1018 H1006 0.950 . S
C1018 C1017 1.398 . S
C1018 C1019 1.391 . S
C1019 H1007 0.950 . S
C1019 C1015 1.393 . S
C1019 C1018 1.391 . S
H1020 C1028 0.950 . S
H1021 C1033 0.950 . S
H1022 C1030 0.950 . S
H1023 C1032 0.950 . S
H1024 C1034 0.950 . S
H1025 C1036 0.950 . S
H1026 C1038 0.950 . S
H1027 C1039 0.950 . S
C1028 H1020 0.950 . S
C1028 C1029 1.386 . S
C1028 C1030 1.391 . S
C1029 C1028 1.386 . S
C1029 C1033 1.393 . S
C1030 H1022 0.950 . S
C1030 C1028 1.391 . S
C1030 C1031 1.400 . S
C1031 C1030 1.400 . S
C1031 C1032 1.398 . S
C1031 C1037 1.491 . S
C1032 H1023 0.950 . S
C1032 C1031 1.398 . S
C1032 C1033 1.391 . S
C1033 H1021 0.950 . S
C1033 C1029 1.393 . S
C1033 C1032 1.391 . S
C1034 H1024 0.950 . S
C1034 C1035 1.386 . S
C1034 C1036 1.391 . S
C1035 C1034 1.386 . S
C1035 C1039 1.393 . S
C1036 H1025 0.950 . S
C1036 C1034 1.391 . S
C1036 C1037 1.400 . S
C1037 C1031 1.491 . S
C1037 C1036 1.400 . S
C1037 C1038 1.398 . S
C1038 H1026 0.950 . S
C1038 C1037 1.398 . S
C1038 C1039 1.391 . S
C1039 H1027 0.950 . S
C1039 C1035 1.393 . S
C1039 C1038 1.391 . S
H1040 C1048 0.950 . S
H1041 C1053 0.950 . S
H1042 C1050 0.950 . S
H1043 C1052 0.950 . S
H1044 C1054 0.950 . S
H1045 C1056 0.950 . S
H1046 C1058 0.950 . S
H1047 C1059 0.950 . S
C1048 H1040 0.950 . S
C1048 C1049 1.386 . S
C1048 C1050 1.391 . S
C1049 C1048 1.386 . S
C1049 C1053 1.393 . S
C1050 H1042 0.950 . S
C1050 C1048 1.391 . S
C1050 C1051 1.400 . S
C1051 C1050 1.400 . S
C1051 C1052 1.398 . S
C1051 C1057 1.491 . S
C1052 H1043 0.950 . S
C1052 C1051 1.398 . S
C1052 C1053 1.391 . S
C1053 H1041 0.950 . S
C1053 C1049 1.393 . S
C1053 C1052 1.391 . S
C1054 H1044 0.950 . S
C1054 C1055 1.386 . S
C1054 C1056 1.391 . S
C1055 C1054 1.386 . S
C1055 C1059 1.393 . S
C1056 H1045 0.950 . S
C1056 C1054 1.391 . S
C1056 C1057 1.400 . S
C1057 C1051 1.491 . S
C1057 C1056 1.400 . S
C1057 C1058 1.398 . S
C1058 H1046 0.950 . S
C1058 C1057 1.398 . S
C1058 C1059 1.391 . S
C1059 H1047 0.950 . S
C1059 C1055 1.393 . S
C1059 C1058 1.391 . S
H1060 C1068 0.950 . S
H1061 C1073 0.950 . S
H1062 C1070 0.950 . S
H1063 C1072 0.950 . S
H1064 C1074 0.950 . S
H1065 C1076 0.950 . S
H1066 C1078 0.950 . S
H1067 C1079 0.950 . S
C1068 H1060 0.950 . S
C1068 C1069 1.386 . S
C1068 C1070 1.391 . S
C1069 C1068 1.386 . S
C1069 C1073 1.393 . S
C1070 H1062 0.950 . S
C1070 C1068 1.391 . S
C1070 C1071 1.400 . S
C1071 C1070 1.400 . S
C1071 C1072 1.398 . S
C1071 C1077 1.491 . S
C1072 H1063 0.950 . S
C1072 C1071 1.398 . S
C1072 C1073 1.391 . S
C1073 H1061 0.950 . S
C1073 C1069 1.393 . S
C1073 C1072 1.391 . S
C1074 H1064 0.950 . S
C1074 C1075 1.386 . S
C1074 C1076 1.391 . S
C1075 C1074 1.386 . S
C1075 C1079 1.393 . S
C1076 H1065 0.950 . S
C1076 C1074 1.391 . S
C1076 C1077 1.400 . S
C1077 C1071 1.491 . S
C1077 C1076 1.400 . S
C1077 C1078 1.398 . S
C1078 H1066 0.950 . S
C1078 C1077 1.398 . S
C1078 C1079 1.391 . S
C1079 H1067 0.950 . S
C1079 C1075 1.393 . S
C1079 C1078 1.391 . S
H1080 C1088 0.950 . S
H1081 C1093 0.950 . S
H1082 C1090 0.950 . S
H1083 C1092 0.950 . S
H1084 C1094 0.950 . S
H1085 C1096 0.950 . S
H1086 C1098 0.950 . S
H1087 C1099 0.950 . S
C1088 H1080 0.950 . S
C1088 C1089 1.386 . S
C1088 C1090 1.391 . S
C1089 C1088 1.386 . S
C1089 C1093 1.393 . S
C1090 H1082 0.950 . S
C1090 C1088 1.391 . S
C1090 C1091 1.400 . S
C1091 C1090 1.400 . S
C1091 C1092 1.398 . S
C1091 C1097 1.491 . S
C1092 H1083 0.950 . S
C1092 C1091 1.398 . S
C1092 C1093 1.391 . S
C1093 H1081 0.950 . S
C1093 C1089 1.393 . S
C1093 C1092 1.391 . S
C1094 H1084 0.950 . S
C1094 C1095 1.386 . S
C1094 C1096 1.391 . S
C1095 C1094 1.386 . S
C1095 C1099 1.393 . S
C1096 H1085 0.950 . S
C1096 C1094 1.391 . S
C1096 C1097 1.400 . S
C1097 C1091 1.491 . S
C1097 C1096 1.400 . S
C1097 C1098 1.398 . S
C1098 H1086 0.950 . S
C1098 C1097 1.398 . S
C1098 C1099 1.391 . S
C1099 H1087 0.950 . S
C1099 C1095 1.393 . S
C1099 C1098 1.391 . S
H1100 C1108 0.950 . S
H1101 C1113 0.950 . S
H1102 C1110 0.950 . S
H1103 C1112 0.950 . S
H1104 C1114 0.950 . S
H1105 C1116 0.950 . S
H1106 C1118 0.921 1_455 S
H1107 C1119 0.950 . S
C1108 H1100 0.950 . S
C1108 C1109 1.386 . S
C1108 C1110 1.391 . S
C1109 C1108 1.386 . S
C1109 C1113 1.393 . S
C1110 H1102 0.950 . S
C1110 C1108 1.391 . S
C1110 C1111 1.400 . S
C1111 C1110 1.400 . S
C1111 C1112 1.398 . S
C1111 C1117 1.500 . S
C1112 H1103 0.950 . S
C1112 C1111 1.398 . S
C1112 C1113 1.391 . S
C1113 H1101 0.950 . S
C1113 C1109 1.393 . S
C1113 C1112 1.391 . S
C1114 H1104 0.950 . S
C1114 C1115 1.386 . S
C1114 C1116 1.391 . S
C1115 C1114 1.386 . S
C1115 C1119 1.393 . S
C1116 H1105 0.950 . S
C1116 C1114 1.391 . S
C1116 C1117 1.391 1_655 S
C1117 C1111 1.500 . S
C1117 C1116 1.391 1_455 S
C1117 C1118 1.393 1_455 S
C1118 H1106 0.921 1_655 S
C1118 C1117 1.393 1_655 S
C1118 C1119 1.424 . S
C1119 H1107 0.950 . S
C1119 C1115 1.393 . S
C1119 C1118 1.424 . S
H1120 C1128 0.950 . S
H1121 C1133 0.950 . S
H1122 C1130 0.950 1_565 S
H1123 C1132 0.950 . S
H1124 C1134 0.950 . S
H1125 C1136 0.950 1_545 S
H1126 C1138 0.950 1_655 S
H1127 C1139 0.950 1_655 S
C1128 H1120 0.950 . S
C1128 C1129 1.386 1_655 S
C1128 C1130 1.391 . S
C1129 C1128 1.386 1_455 S
C1129 C1133 1.393 . S
C1130 H1122 0.950 1_545 S
C1130 C1128 1.391 . S
C1130 C1131 1.400 1_655 S
C1131 C1130 1.400 1_455 S
C1131 C1132 1.398 . S
C1131 C1137 1.491 1_544 S
C1132 H1123 0.950 . S
C1132 C1131 1.398 . S
C1132 C1133 1.391 . S
C1133 H1121 0.950 . S
C1133 C1129 1.393 . S
C1133 C1132 1.391 . S
C1134 H1124 0.950 . S
C1134 C1135 1.386 . S
C1134 C1136 1.391 . S
C1135 C1134 1.386 . S
C1135 C1139 1.393 . S
C1136 H1125 0.950 1_565 S
C1136 C1134 1.391 . S
C1136 C1137 1.400 . S
C1137 C1131 1.491 1_566 S
C1137 C1136 1.400 . S
C1137 C1138 1.398 . S
C1138 H1126 0.950 1_455 S
C1138 C1137 1.398 . S
C1138 C1139 1.391 . S
C1139 H1127 0.950 1_455 S
C1139 C1135 1.393 . S
C1139 C1138 1.391 . S
H1140 C1148 0.950 . S
H1141 C1153 0.950 . S
H1142 C1150 0.950 . S
H1143 C1152 0.950 . S
H1144 C1154 0.950 . S
H1145 C1156 0.950 . S
H1146 C1158 0.950 . S
H1147 C1159 0.950 . S
C1148 H1140 0.950 . S
C1148 C1149 1.386 . S
C1148 C1150 1.391 . S
C1149 C1148 1.386 . S
C1149 C1153 1.393 . S
C1150 H1142 0.950 . S
C1150 C1148 1.391 . S
C1150 C1151 1.400 . S
C1151 C1150 1.400 . S
C1151 C1152 1.398 . S
C1151 C1157 1.491 . S
C1152 H1143 0.950 . S
C1152 C1151 1.398 . S
C1152 C1153 1.391 . S
C1153 H1141 0.950 . S
C1153 C1149 1.393 . S
C1153 C1152 1.391 . S
C1154 H1144 0.950 . S
C1154 C1155 1.386 . S
C1154 C1156 1.391 . S
C1155 C1154 1.386 . S
C1155 C1159 1.393 . S
C1156 H1145 0.950 . S
C1156 C1154 1.391 . S
C1156 C1157 1.400 . S
C1157 C1151 1.491 . S
C1157 C1156 1.400 . S
C1157 C1158 1.398 . S
C1158 H1146 0.950 . S
C1158 C1157 1.398 . S
C1158 C1159 1.391 . S
C1159 H1147 0.950 . S
C1159 C1155 1.393 . S
C1159 C1158 1.391 . S
H1160 C1168 0.950 . S
H1161 C1173 0.950 . S
H1162 C1170 0.950 1_565 S
H1163 C1172 0.950 . S
H1164 C1174 0.950 . S
H1165 C1176 0.950 1_545 S
H1166 C1178 0.950 . S
H1167 C1179 0.950 . S
C1168 H1160 0.950 . S
C1168 C1169 1.386 . S
C1168 C1170 1.391 . S
C1169 C1168 1.386 . S
C1169 C1173 1.393 . S
C1170 H1162 0.950 1_545 S
C1170 C1168 1.391 . S
C1170 C1171 1.400 . S
C1171 C1170 1.400 . S
C1171 C1172 1.398 . S
C1171 C1177 1.491 1_545 S
C1172 H1163 0.950 . S
C1172 C1171 1.398 . S
C1172 C1173 1.391 . S
C1173 H1161 0.950 . S
C1173 C1169 1.393 . S
C1173 C1172 1.391 . S
C1174 H1164 0.950 . S
C1174 C1175 1.386 . S
C1174 C1176 1.391 . S
C1175 C1174 1.386 . S
C1175 C1179 1.393 . S
C1176 H1165 0.950 1_565 S
C1176 C1174 1.391 . S
C1176 C1177 1.400 . S
C1177 C1171 1.491 1_565 S
C1177 C1176 1.400 . S
C1177 C1178 1.398 . S
C1178 H1166 0.950 . S
C1178 C1177 1.398 . S
C1178 C1179 1.391 . S
C1179 H1167 0.950 . S
C1179 C1175 1.393 . S
C1179 C1178 1.391 . S
H1180 C1188 0.950 . S
H1181 C1193 0.950 . S
H1182 C1190 0.950 . S
H1183 C1192 0.950 . S
H1184 C1194 0.950 . S
H1185 C1196 0.950 . S
H1186 C1198 0.950 . S
H1187 C1199 0.950 . S
C1188 H1180 0.950 . S
C1188 C1189 1.386 . S
C1188 C1190 1.391 . S
C1189 C1188 1.386 . S
C1189 C1193 1.393 . S
C1190 H1182 0.950 . S
C1190 C1188 1.391 . S
C1190 C1191 1.400 . S
C1191 C1190 1.400 . S
C1191 C1192 1.398 . S
C1191 C1197 1.491 . S
C1192 H1183 0.950 . S
C1192 C1191 1.398 . S
C1192 C1193 1.391 . S
C1193 H1181 0.950 . S
C1193 C1189 1.393 . S
C1193 C1192 1.391 . S
C1194 H1184 0.950 . S
C1194 C1195 1.386 . S
C1194 C1196 1.391 . S
C1195 C1194 1.386 . S
C1195 C1199 1.393 . S
C1196 H1185 0.950 . S
C1196 C1194 1.391 . S
C1196 C1197 1.400 . S
C1197 C1191 1.491 . S
C1197 C1196 1.400 . S
C1197 C1198 1.398 . S
C1198 H1186 0.950 . S
C1198 C1197 1.398 . S
C1198 C1199 1.391 . S
C1199 H1187 0.950 . S
C1199 C1195 1.393 . S
C1199 C1198 1.391 . S
H1200 C1208 0.950 . S
H1201 C1213 0.950 . S
H1202 C1210 0.950 . S
H1203 C1212 0.950 . S
H1204 C1214 0.950 . S
H1205 C1216 0.950 . S
H1206 C1218 0.950 . S
H1207 C1219 0.950 . S
C1208 H1200 0.950 . S
C1208 C1209 1.386 . S
C1208 C1210 1.391 . S
C1209 C1208 1.386 . S
C1209 C1213 1.393 . S
C1210 H1202 0.950 . S
C1210 C1208 1.391 . S
C1210 C1211 1.400 . S
C1211 C1210 1.400 . S
C1211 C1212 1.398 . S
C1211 C1217 1.491 . S
C1212 H1203 0.950 . S
C1212 C1211 1.398 . S
C1212 C1213 1.391 . S
C1213 H1201 0.950 . S
C1213 C1209 1.393 . S
C1213 C1212 1.391 . S
C1214 H1204 0.950 . S
C1214 C1215 1.386 . S
C1214 C1216 1.391 . S
C1215 C1214 1.386 . S
C1215 C1219 1.393 . S
C1216 H1205 0.950 . S
C1216 C1214 1.391 . S
C1216 C1217 1.400 . S
C1217 C1211 1.491 . S
C1217 C1216 1.400 . S
C1217 C1218 1.398 . S
C1218 H1206 0.950 . S
C1218 C1217 1.398 . S
C1218 C1219 1.391 . S
C1219 H1207 0.950 . S
C1219 C1215 1.393 . S
C1219 C1218 1.391 . S
H1220 C1228 0.950 . S
H1221 C1233 0.950 . S
H1222 C1230 0.950 . S
H1223 C1232 0.950 . S
H1224 C1234 0.950 . S
H1225 C1236 0.950 . S
H1226 C1238 0.950 . S
H1227 C1239 0.950 . S
C1228 H1220 0.950 . S
C1228 C1229 1.386 . S
C1228 C1230 1.391 . S
C1229 C1228 1.386 . S
C1229 C1233 1.393 . S
C1230 H1222 0.950 . S
C1230 C1228 1.391 . S
C1230 C1231 1.400 . S
C1231 C1230 1.400 . S
C1231 C1232 1.398 . S
C1231 C1237 1.491 . S
C1232 H1223 0.950 . S
C1232 C1231 1.398 . S
C1232 C1233 1.391 . S
C1233 H1221 0.950 . S
C1233 C1229 1.393 . S
C1233 C1232 1.391 . S
C1234 H1224 0.950 . S
C1234 C1235 1.386 . S
C1234 C1236 1.391 . S
C1235 C1234 1.386 . S
C1235 C1239 1.393 . S
C1236 H1225 0.950 . S
C1236 C1234 1.391 . S
C1236 C1237 1.400 . S
C1237 C1231 1.491 . S
C1237 C1236 1.400 . S
C1237 C1238 1.398 . S
C1238 H1226 0.950 . S
C1238 C1237 1.398 . S
C1238 C1239 1.391 . S
C1239 H1227 0.950 . S
C1239 C1235 1.393 . S
C1239 C1238 1.391 . S
H1240 C1248 0.950 . S
H1241 C1253 0.950 . S
H1242 C1250 0.950 . S
H1243 C1252 0.950 . S
H1244 C1254 0.950 . S
H1245 C1256 0.950 . S
H1246 C1258 0.950 . S
H1247 C1259 0.950 . S
C1248 H1240 0.950 . S
C1248 C1249 1.386 . S
C1248 C1250 1.391 . S
C1249 C1248 1.386 . S
C1249 C1253 1.393 . S
C1250 H1242 0.950 . S
C1250 C1248 1.391 . S
C1250 C1251 1.400 . S
C1251 C1250 1.400 . S
C1251 C1252 1.398 . S
C1251 C1257 1.491 . S
C1252 H1243 0.950 . S
C1252 C1251 1.398 . S
C1252 C1253 1.391 . S
C1253 H1241 0.950 . S
C1253 C1249 1.393 . S
C1253 C1252 1.391 . S
C1254 H1244 0.950 . S
C1254 C1255 1.386 . S
C1254 C1256 1.391 . S
C1255 C1254 1.386 . S
C1255 C1259 1.393 . S
C1256 H1245 0.950 . S
C1256 C1254 1.391 . S
C1256 C1257 1.400 . S
C1257 C1251 1.491 . S
C1257 C1256 1.400 . S
C1257 C1258 1.398 . S
C1258 H1246 0.950 . S
C1258 C1257 1.398 . S
C1258 C1259 1.391 . S
C1259 H1247 0.950 . S
C1259 C1255 1.393 . S
C1259 C1258 1.391 . S
H1260 C1268 0.950 . S
H1261 C1273 0.950 . S
H1262 C1270 0.950 . S
H1263 C1272 0.950 1_554 S
H1264 C1274 0.950 . S
H1265 C1276 0.950 . S
H1266 C1278 0.950 1_556 S
H1267 C1279 0.950 . S
C1268 H1260 0.950 . S
C1268 C1269 1.386 . S
C1268 C1270 1.391 . S
C1269 C1268 1.386 . S
C1269 C1273 1.393 . S
C1270 H1262 0.950 . S
C1270 C1268 1.391 . S
C1270 C1271 1.400 . S
C1271 C1270 1.400 . S
C1271 C1272 1.398 . S
C1271 C1277 1.491 1_556 S
C1272 H1263 0.950 1_556 S
C1272 C1271 1.398 . S
C1272 C1273 1.391 . S
C1273 H1261 0.950 . S
C1273 C1269 1.393 . S
C1273 C1272 1.391 . S
C1274 H1264 0.950 . S
C1274 C1275 1.386 . S
C1274 C1276 1.391 . S
C1275 C1274 1.386 . S
C1275 C1279 1.393 . S
C1276 H1265 0.950 . S
C1276 C1274 1.391 . S
C1276 C1277 1.400 . S
C1277 C1271 1.491 1_554 S
C1277 C1276 1.400 . S
C1277 C1278 1.398 . S
C1278 H1266 0.950 1_554 S
C1278 C1277 1.398 . S
C1278 C1279 1.391 . S
C1279 H1267 0.950 . S
C1279 C1275 1.393 . S
C1279 C1278 1.391 . S
H1280 C1288 0.950 . S
H1281 C1293 0.950 . S
H1282 C1290 0.950 . S
H1283 C1292 0.950 . S
H1284 C1294 0.950 . S
H1285 C1296 0.950 . S
H1286 C1298 0.950 . S
H1287 C1299 0.950 . S
C1288 H1280 0.950 . S
C1288 C1289 1.386 . S
C1288 C1290 1.391 . S
C1289 C1288 1.386 . S
C1289 C1293 1.393 . S
C1290 H1282 0.950 . S
C1290 C1288 1.391 . S
C1290 C1291 1.400 . S
C1291 C1290 1.400 . S
C1291 C1292 1.398 . S
C1291 C1297 1.491 . S
C1292 H1283 0.950 . S
C1292 C1291 1.398 . S
C1292 C1293 1.391 . S
C1293 H1281 0.950 . S
C1293 C1289 1.393 . S
C1293 C1292 1.391 . S
C1294 H1284 0.950 . S
C1294 C1295 1.386 . S
C1294 C1296 1.391 . S
C1295 C1294 1.386 . S
C1295 C1299 1.393 . S
C1296 H1285 0.950 . S
C1296 C1294 1.391 . S
C1296 C1297 1.400 . S
C1297 C1291 1.491 . S
C1297 C1296 1.400 . S
C1297 C1298 1.398 . S
C1298 H1286 0.950 . S
C1298 C1297 1.398 . S
C1298 C1299 1.391 . S
C1299 H1287 0.950 . S
C1299 C1295 1.393 . S
C1299 C1298 1.391 . S
H1300 C1308 0.950 . S
H1301 C1313 0.950 . S
H1302 C1310 0.950 . S
H1303 C1312 0.950 . S
H1304 C1314 0.950 . S
H1305 C1316 0.950 . S
H1306 C1318 0.950 . S
H1307 C1319 0.950 . S
C1308 H1300 0.950 . S
C1308 C1309 1.386 . S
C1308 C1310 1.391 . S
C1309 C1308 1.386 . S
C1309 C1313 1.393 . S
C1310 H1302 0.950 . S
C1310 C1308 1.391 . S
C1310 C1311 1.400 . S
C1311 C1310 1.400 . S
C1311 C1312 1.398 . S
C1311 C1317 1.491 . S
C1312 H1303 0.950 . S
C1312 C1311 1.398 . S
C1312 C1313 1.391 . S
C1313 H1301 0.950 . S
C1313 C1309 1.393 . S
C1313 C1312 1.391 . S
C1314 H1304 0.950 . S
C1314 C1315 1.386 . S
C1314 C1316 1.391 . S
C1315 C1314 1.386 . S
C1315 C1319 1.393 . S
C1316 H1305 0.950 . S
C1316 C1314 1.391 . S
C1316 C1317 1.400 . S
C1317 C1311 1.491 . S
C1317 C1316 1.400 . S
C1317 C1318 1.398 . S
C1318 H1306 0.950 . S
C1318 C1317 1.398 . S
C1318 C1319 1.391 . S
C1319 H1307 0.950 . S
C1319 C1315 1.393 . S
C1319 C1318 1.391 . S
H1320 C1328 0.950 . S
H1321 C1333 0.950 . S
H1322 C1330 0.950 . S
H1323 C1332 0.950 . S
H1324 C1334 0.950 . S
H1325 C1336 0.950 . S
H1326 C1338 0.950 . S
H1327 C1339 0.950 . S
C1328 H1320 0.950 . S
C1328 C1329 1.386 . S
C1328 C1330 1.391 . S
C1329 C1328 1.386 . S
C1329 C1333 1.393 1_554 S
C1330 H1322 0.950 . S
C1330 C1328 1.391 . S
C1330 C1331 1.400 1_554 S
C1331 C1330 1.400 1_556 S
C1331 C1332 1.398 . S
C1331 C1337 1.491 . S
C1332 H1323 0.950 . S
C1332 C1331 1.398 . S
C1332 C1333 1.391 . S
C1333 H1321 0.950 . S
C1333 C1329 1.393 1_556 S
C1333 C1332 1.391 . S
C1334 H1324 0.950 . S
C1334 C1335 1.386 . S
C1334 C1336 1.391 . S
C1335 C1334 1.386 . S
C1335 C1339 1.393 . S
C1336 H1325 0.950 . S
C1336 C1334 1.391 . S
C1336 C1337 1.400 . S
C1337 C1331 1.491 . S
C1337 C1336 1.400 . S
C1337 C1338 1.398 . S
C1338 H1326 0.950 . S
C1338 C1337 1.398 . S
C1338 C1339 1.391 . S
C1339 H1327 0.950 . S
C1339 C1335 1.393 . S
C1339 C1338 1.391 . S
H1340 C1348 0.950 . S
H1341 C1353 0.950 . S
H1342 C1350 0.950 . S
H1343 C1352 0.950 . S
H1344 C1354 0.950 . S
H1345 C1356 0.950 . S
H1346 C1358 0.950 . S
H1347 C1359 0.950 . S
C1348 H1340 0.950 . S
C1348 C1349 1.386 . S
C1348 C1350 1.391 . S
C1349 C1348 1.386 . S
C1349 C1353 1.393 . S
C1350 H1342 0.950 . S
C1350 C1348 1.391 . S
C1350 C1351 1.400 . S
C1351 C1350 1.400 . S
C1351 C1352 1.398 . S
C1351 C1357 1.491 . S
C1352 H1343 0.950 . S
C1352 C1351 1.398 . S
C1352 C1353 1.391 . S
C1353 H1341 0.950 . S
C1353 C1349 1.393 . S
C1353 C1352 1.391 . S
C1354 H1344 0.950 . S
C1354 C1355 1.386 . S
C1354 C1356 1.391 . S
C1355 C1354 1.386 . S
C1355 C1359 1.393 . S
C1356 H1345 0.950 . S
C1356 C1354 1.391 . S
C1356 C1357 1.400 . S
C1357 C1351 1.491 . S
C1357 C1356 1.400 . S
C1357 C1358 1.398 . S
C1358 H1346 0.950 . S
C1358 C1357 1.398 . S
C1358 C1359 1.391 . S
C1359 H1347 0.950 . S
C1359 C1355 1.393 . S
C1359 C1358 1.391 . S
H1360 C1368 0.950 . S
H1361 C1373 0.950 . S
H1362 C1370 0.950 . S
H1363 C1372 0.950 . S
H1364 C1374 0.950 . S
H1365 C1376 0.950 . S
H1366 C1378 0.950 . S
H1367 C1379 0.950 . S
C1368 H1360 0.950 . S
C1368 C1369 1.386 . S
C1368 C1370 1.391 . S
C1369 C1368 1.386 . S
C1369 C1373 1.393 . S
C1370 H1362 0.950 . S
C1370 C1368 1.391 . S
C1370 C1371 1.400 . S
C1371 C1370 1.400 . S
C1371 C1372 1.398 . S
C1371 C1377 1.491 . S
C1372 H1363 0.950 . S
C1372 C1371 1.398 . S
C1372 C1373 1.391 . S
C1373 H1361 0.950 . S
C1373 C1369 1.393 . S
C1373 C1372 1.391 . S
C1374 H1364 0.950 . S
C1374 C1375 1.386 . S
C1374 C1376 1.391 . S
C1375 C1374 1.386 . S
C1375 C1379 1.393 . S
C1376 H1365 0.950 . S
C1376 C1374 1.391 . S
C1376 C1377 1.400 . S
C1377 C1371 1.491 . S
C1377 C1376 1.400 . S
C1377 C1378 1.398 . S
C1378 H1366 0.950 . S
C1378 C1377 1.398 . S
C1378 C1379 1.391 . S
C1379 H1367 0.950 . S
C1379 C1375 1.393 . S
C1379 C1378 1.391 . S
H1380 C1388 0.950 . S
H1381 C1393 0.950 . S
H1382 C1390 0.950 . S
H1383 C1392 0.950 . S
H1384 C1394 0.950 . S
H1385 C1396 0.950 . S
H1386 C1398 0.950 . S
H1387 C1399 0.950 . S
C1388 H1380 0.950 . S
C1388 C1389 1.386 . S
C1388 C1390 1.391 . S
C1389 C1388 1.386 . S
C1389 C1393 1.393 . S
C1390 H1382 0.950 . S
C1390 C1388 1.391 . S
C1390 C1391 1.400 . S
C1391 C1390 1.400 . S
C1391 C1392 1.398 . S
C1391 C1397 1.491 . S
C1392 H1383 0.950 . S
C1392 C1391 1.398 . S
C1392 C1393 1.391 . S
C1393 H1381 0.950 . S
C1393 C1389 1.393 . S
C1393 C1392 1.391 . S
C1394 H1384 0.950 . S
C1394 C1395 1.386 . S
C1394 C1396 1.391 . S
C1395 C1394 1.386 . S
C1395 C1399 1.393 . S
C1396 H1385 0.950 . S
C1396 C1394 1.391 . S
C1396 C1397 1.400 . S
C1397 C1391 1.491 . S
C1397 C1396 1.400 . S
C1397 C1398 1.398 . S
C1398 H1386 0.950 . S
C1398 C1397 1.398 . S
C1398 C1399 1.391 . S
C1399 H1387 0.950 . S
C1399 C1395 1.393 . S
C1399 C1398 1.391 . S
H1400 C1408 0.950 . S
H1401 C1413 0.950 . S
H1402 C1410 0.950 . S
H1403 C1412 0.950 . S
H1404 C1414 0.950 . S
H1405 C1416 0.950 . S
H1406 C1418 0.950 . S
H1407 C1419 0.950 . S
C1408 H1400 0.950 . S
C1408 C1409 1.386 . S
C1408 C1410 1.391 1_556 S
C1409 C1408 1.386 . S
C1409 C1413 1.393 . S
C1410 H1402 0.950 . S
C1410 C1408 1.391 1_554 S
C1410 C1411 1.400 . S
C1411 C1410 1.400 . S
C1411 C1412 1.398 . S
C1411 C1417 1.491 . S
C1412 H1403 0.950 . S
C1412 C1411 1.398 . S
C1412 C1413 1.391 1_554 S
C1413 H1401 0.950 . S
C1413 C1409 1.393 . S
C1413 C1412 1.391 1_556 S
C1414 H1404 0.950 . S
C1414 C1415 1.386 . S
C1414 C1416 1.391 . S
C1415 C1414 1.386 . S
C1415 C1419 1.393 . S
C1416 H1405 0.950 . S
C1416 C1414 1.391 . S
C1416 C1417 1.400 . S
C1417 C1411 1.491 . S
C1417 C1416 1.400 . S
C1417 C1418 1.398 . S
C1418 H1406 0.950 . S
C1418 C1417 1.398 . S
C1418 C1419 1.391 . S
C1419 H1407 0.950 . S
C1419 C1415 1.393 . S
C1419 C1418 1.391 . S
H1420 C1428 0.950 . S
H1421 C1433 0.950 . S
H1422 C1430 0.950 . S
H1423 C1432 0.950 . S
H1424 C1434 0.950 . S
H1425 C1436 0.950 . S
H1426 C1438 0.950 . S
H1427 C1439 0.950 . S
C1428 H1420 0.950 . S
C1428 C1429 1.386 . S
C1428 C1430 1.391 . S
C1429 C1428 1.386 . S
C1429 C1433 1.393 . S
C1430 H1422 0.950 . S
C1430 C1428 1.391 . S
C1430 C1431 1.400 . S
C1431 C1430 1.400 . S
C1431 C1432 1.398 . S
C1431 C1437 1.491 . S
C1432 H1423 0.950 . S
C1432 C1431 1.398 . S
C1432 C1433 1.391 . S
C1433 H1421 0.950 . S
C1433 C1429 1.393 . S
C1433 C1432 1.391 . S
C1434 H1424 0.950 . S
C1434 C1435 1.386 . S
C1434 C1436 1.391 . S
C1435 C1434 1.386 . S
C1435 C1439 1.393 . S
C1436 H1425 0.950 . S
C1436 C1434 1.391 . S
C1436 C1437 1.400 . S
C1437 C1431 1.491 . S
C1437 C1436 1.400 . S
C1437 C1438 1.398 . S
C1438 H1426 0.950 . S
C1438 C1437 1.398 . S
C1438 C1439 1.391 . S
C1439 H1427 0.950 . S
C1439 C1435 1.393 . S
C1439 C1438 1.391 . S
H1440 C1448 0.950 . S
H1441 C1453 0.950 . S
H1442 C1450 0.950 . S
H1443 C1452 0.950 . S
H1444 C1454 0.950 . S
H1445 C1456 0.950 . S
H1446 C1458 0.950 . S
H1447 C1459 0.950 . S
C1448 H1440 0.950 . S
C1448 C1449 1.386 . S
C1448 C1450 1.391 . S
C1449 C1448 1.386 . S
C1449 C1453 1.393 . S
C1450 H1442 0.950 . S
C1450 C1448 1.391 . S
C1450 C1451 1.400 . S
C1451 C1450 1.400 . S
C1451 C1452 1.398 . S
C1451 C1457 1.491 . S
C1452 H1443 0.950 . S
C1452 C1451 1.398 . S
C1452 C1453 1.391 . S
C1453 H1441 0.950 . S
C1453 C1449 1.393 . S
C1453 C1452 1.391 . S
C1454 H1444 0.950 . S
C1454 C1455 1.386 . S
C1454 C1456 1.391 . S
C1455 C1454 1.386 . S
C1455 C1459 1.393 . S
C1456 H1445 0.950 . S
C1456 C1454 1.391 . S
C1456 C1457 1.400 . S
C1457 C1451 1.491 . S
C1457 C1456 1.400 . S
C1457 C1458 1.398 . S
C1458 H1446 0.950 . S
C1458 C1457 1.398 . S
C1458 C1459 1.391 . S
C1459 H1447 0.950 . S
C1459 C1455 1.393 . S
C1459 C1458 1.391 . S
H1460 C1468 0.950 . S
H1461 C1473 0.950 . S
H1462 C1470 0.950 . S
H1463 C1472 0.950 . S
H1464 C1474 0.950 . S
H1465 C1476 0.950 . S
H1466 C1478 0.950 . S
H1467 C1479 0.950 . S
C1468 H1460 0.950 . S
C1468 C1469 1.386 . S
C1468 C1470 1.391 . S
C1469 C1468 1.386 . S
C1469 C1473 1.393 . S
C1470 H1462 0.950 . S
C1470 C1468 1.391 . S
C1470 C1471 1.400 . S
C1471 C1470 1.400 . S
C1471 C1472 1.398 . S
C1471 C1477 1.491 . S
C1472 H1463 0.950 . S
C1472 C1471 1.398 . S
C1472 C1473 1.391 . S
C1473 H1461 0.950 . S
C1473 C1469 1.393 . S
C1473 C1472 1.391 . S
C1474 H1464 0.950 . S
C1474 C1475 1.386 . S
C1474 C1476 1.391 . S
C1475 C1474 1.386 . S
C1475 C1479 1.393 . S
C1476 H1465 0.950 . S
C1476 C1474 1.391 . S
C1476 C1477 1.400 . S
C1477 C1471 1.491 . S
C1477 C1476 1.400 . S
C1477 C1478 1.398 . S
C1478 H1466 0.950 . S
C1478 C1477 1.398 . S
C1478 C1479 1.391 . S
C1479 H1467 0.950 . S
C1479 C1475 1.393 . S
C1479 C1478 1.391 . S
H1480 C1488 0.950 . S
H1481 C1493 0.950 . S
H1482 C1490 0.950 . S
H1483 C1492 0.950 . S
H1484 C1494 0.950 . S
H1485 C1496 0.950 . S
H1486 C1498 0.950 . S
H1487 C1499 0.950 . S
C1488 H1480 0.950 . S
C1488 C1489 1.386 . S
C1488 C1490 1.391 . S
C1489 C1488 1.386 . S
C1489 C1493 1.393 . S
C1490 H1482 0.950 . S
C1490 C1488 1.391 . S
C1490 C1491 1.400 . S
C1491 C1490 1.400 . S
C1491 C1492 1.398 . S
C1491 C1497 1.491 . S
C1492 H1483 0.950 . S
C1492 C1491 1.398 . S
C1492 C1493 1.391 . S
C1493 H1481 0.950 . S
C1493 C1489 1.393 . S
C1493 C1492 1.391 . S
C1494 H1484 0.950 . S
C1494 C1495 1.386 . S
C1494 C1496 1.391 . S
C1495 C1494 1.386 . S
C1495 C1499 1.393 . S
C1496 H1485 0.950 . S
C1496 C1494 1.391 . S
C1496 C1497 1.400 . S
C1497 C1491 1.491 . S
C1497 C1496 1.400 . S
C1497 C1498 1.398 . S
C1498 H1486 0.950 . S
C1498 C1497 1.398 . S
C1498 C1499 1.391 . S
C1499 H1487 0.950 . S
C1499 C1495 1.393 . S
C1499 C1498 1.391 . S
H1500 C1508 0.950 . S
H1501 C1513 0.950 1_455 S
H1502 C1510 0.950 . S
H1503 C1512 0.950 . S
H1504 C1514 0.950 . S
H1505 C1516 0.950 . S
H1506 C1518 0.950 . S
H1507 C1519 0.950 . S
C1508 H1500 0.950 . S
C1508 C1509 1.386 . S
C1508 C1510 1.391 . S
C1509 C1508 1.386 . S
C1509 C1513 1.393 . S
C1510 H1502 0.950 . S
C1510 C1508 1.391 . S
C1510 C1511 1.400 . S
C1511 C1510 1.400 . S
C1511 C1512 1.398 . S
C1511 C1517 1.491 . S
C1512 H1503 0.950 . S
C1512 C1511 1.398 . S
C1512 C1513 1.391 . S
C1513 H1501 0.950 1_655 S
C1513 C1509 1.393 . S
C1513 C1512 1.391 . S
C1514 H1504 0.950 . S
C1514 C1515 1.386 . S
C1514 C1516 1.391 . S
C1515 C1514 1.386 . S
C1515 C1519 1.393 . S
C1516 H1505 0.950 . S
C1516 C1514 1.391 . S
C1516 C1517 1.400 . S
C1517 C1511 1.491 . S
C1517 C1516 1.400 . S
C1517 C1518 1.398 . S
C1518 H1506 0.950 . S
C1518 C1517 1.398 . S
C1518 C1519 1.391 . S
C1519 H1507 0.950 . S
C1519 C1515 1.393 . S
C1519 C1518 1.391 . S
H1520 C1528 0.950 . S
H1521 C1533 0.950 . S
H1522 C1530 0.950 . S
H1523 C1532 0.950 . S
H1524 C1534 0.950 . S
H1525 C1536 0.950 . S
H1526 C1538 0.950 . S
H1527 C1539 0.950 . S
C1528 H1520 0.950 . S
C1528 C1529 1.386 . S
C1528 C1530 1.391 . S
C1529 C1528 1.386 . S
C1529 C1533 1.393 . S
C1530 H1522 0.950 . S
C1530 C1528 1.391 . S
C1530 C1531 1.400 . S
C1531 C1530 1.400 . S
C1531 C1532 1.398 . S
C1531 C1537 1.491 . S
C1532 H1523 0.950 . S
C1532 C1531 1.398 . S
C1532 C1533 1.391 . S
C1533 H1521 0.950 . S
C1533 C1529 1.393 . S
C1533 C1532 1.391 . S
C1534 H1524 0.950 . S
C1534 C1535 1.386 . S
C1534 C1536 1.391 . S
C1535 C1534 1.386 . S
C1535 C1539 1.393 . S
C1536 H1525 0.950 . S
C1536 C1534 1.391 . S
C1536 C1537 1.400 . S
C1537 C1531 1.491 . S
C1537 C1536 1.400 . S
C1537 C1538 1.398 . S
C1538 H1526 0.950 . S
C1538 C1537 1.398 . S
C1538 C1539 1.391 . S
C1539 H1527 0.950 . S
C1539 C1535 1.393 . S
C1539 C1538 1.391 . S
H1540 C1548 0.950 . S
H1541 C1553 0.950 . S
H1542 C1550 0.950 . S
H1543 C1552 0.950 . S
H1544 C1554 0.950 . S
H1545 C1556 0.950 . S
H1546 C1558 0.950 . S
H1547 C1559 0.950 . S
C1548 H1540 0.950 . S
C1548 C1549 1.386 . S
C1548 C1550 1.391 . S
C1549 C1548 1.386 . S
C1549 C1553 1.393 . S
C1550 H1542 0.950 . S
C1550 C1548 1.391 . S
C1550 C1551 1.400 . S
C1551 C1550 1.400 . S
C1551 C1552 1.398 . S
C1551 C1557 1.491 . S
C1552 H1543 0.950 . S
C1552 C1551 1.398 . S
C1552 C1553 1.391 . S
C1553 H1541 0.950 . S
C1553 C1549 1.393 . S
C1553 C1552 1.391 . S
C1554 H1544 0.950 . S
C1554 C1555 1.386 . S
C1554 C1556 1.391 . S
C1555 C1554 1.386 . S
C1555 C1559 1.393 . S
C1556 H1545 0.950 . S
C1556 C1554 1.391 . S
C1556 C1557 1.400 . S
C1557 C1551 1.491 . S
C1557 C1556 1.400 . S
C1557 C1558 1.398 . S
C1558 H1546 0.950 . S
C1558 C1557 1.398 . S
C1558 C1559 1.391 . S
C1559 H1547 0.950 . S
C1559 C1555 1.393 . S
C1559 C1558 1.391 . S
H1560 C1568 0.950 . S
H1561 C1573 0.950 . S
H1562 C1570 0.950 . S
H1563 C1572 0.950 . S
H1564 C1574 0.950 . S
H1565 C1576 0.950 . S
H1566 C1578 0.950 . S
H1567 C1579 0.950 . S
C1568 H1560 0.950 . S
C1568 C1569 1.386 . S
C1568 C1570 1.391 . S
C1569 C1568 1.386 . S
C1569 C1573 1.393 . S
C1570 H1562 0.950 . S
C1570 C1568 1.391 . S
C1570 C1571 1.400 . S
C1571 C1570 1.400 . S
C1571 C1572 1.398 . S
C1571 C1577 1.491 . S
C1572 H1563 0.950 . S
C1572 C1571 1.398 . S
C1572 C1573 1.391 . S
C1573 H1561 0.950 . S
C1573 C1569 1.393 . S
C1573 C1572 1.391 . S
C1574 H1564 0.950 . S
C1574 C1575 1.386 . S
C1574 C1576 1.391 . S
C1575 C1574 1.386 . S
C1575 C1579 1.393 . S
C1576 H1565 0.950 . S
C1576 C1574 1.391 . S
C1576 C1577 1.400 . S
C1577 C1571 1.491 . S
C1577 C1576 1.400 . S
C1577 C1578 1.398 . S
C1578 H1566 0.950 . S
C1578 C1577 1.398 . S
C1578 C1579 1.391 . S
C1579 H1567 0.950 . S
C1579 C1575 1.393 . S
C1579 C1578 1.391 . S
H1580 C1588 0.950 . S
H1581 C1593 0.950 . S
H1582 C1590 0.950 . S
H1583 C1592 0.950 . S
H1584 C1594 0.950 . S
H1585 C1596 0.950 . S
H1586 C1598 0.950 . S
H1587 C1599 0.950 . S
C1588 H1580 0.950 . S
C1588 C1589 1.386 . S
C1588 C1590 1.391 . S
C1589 C1588 1.386 . S
C1589 C1593 1.393 . S
C1590 H1582 0.950 . S
C1590 C1588 1.391 . S
C1590 C1591 1.400 . S
C1591 C1590 1.400 . S
C1591 C1592 1.398 . S
C1591 C1597 1.491 . S
C1592 H1583 0.950 . S
C1592 C1591 1.398 . S
C1592 C1593 1.391 . S
C1593 H1581 0.950 . S
C1593 C1589 1.393 . S
C1593 C1592 1.391 . S
C1594 H1584 0.950 . S
C1594 C1595 1.386 . S
C1594 C1596 1.391 . S
C1595 C1594 1.386 . S
C1595 C1599 1.393 . S
C1596 H1585 0.950 . S
C1596 C1594 1.391 . S
C1596 C1597 1.400 . S
C1597 C1591 1.491 . S
C1597 C1596 1.400 . S
C1597 C1598 1.398 . S
C1598 H1586 0.950 . S
C1598 C1597 1.398 . S
C1598 C1599 1.391 . S
C1599 H1587 0.950 . S
C1599 C1595 1.393 . S
C1599 C1598 1.391 . S
C649 C6 0.868 . S
C655 C286 0.954 . S
C669 C59 2.771 . S
C675 C179 2.720 1_554 S
C689 C206 0.514 . S
C695 C99 0.466 . S
C709 C139 1.957 . S
C715 C246 1.978 . S
C729 C455 0.974 . S
C735 C175 0.857 . S
C749 C330 2.772 . S
C755 C10 2.705 1_556 S
C769 C415 0.456 . S
C775 C250 0.503 . S
C789 C95 1.978 . S
C795 C370 1.942 . S
C809 C366 0.975 . S
C815 C486 0.856 . S
C829 C419 2.775 . S
C835 C579 2.717 . S
C849 C539 0.474 . S
C855 C326 0.453 . S
C869 C459 1.953 . S
C875 C606 1.987 . S
C889 C575 0.849 . S
C895 C135 0.938 . S
C909 C490 2.719 . S
C915 C210 2.774 . S
C929 C55 0.478 . S
C935 C610 0.450 . S
C949 C290 1.950 . S
C955 C535 1.988 . S
C969 C538 0.389 . S
C975 C9 0.526 . S
C989 C458 0.752 . S
C995 C58 0.679 . S
C1009 C489 0.522 . S
C1015 C98 0.390 . S
C1029 C418 0.644 . S
C1035 C138 0.673 . S
C1049 C178 0.446 . S
C1055 C609 0.466 . S
C1069 C369 0.669 . S
C1075 C209 0.646 . S
C1089 C249 0.403 . S
C1095 C578 0.509 . S
C1109 C289 0.716 . S
C1115 C329 0.690 . S
C1129 C18 1.479 1_455 S
C1135 C169 1.479 . S
C1149 C49 1.240 . S
C1155 C218 1.240 . S
C1169 C258 1.553 . S
C1175 C89 1.553 . S
C1189 C129 1.928 . S
C1195 C298 1.928 . S
C1209 C409 1.219 . S
C1215 C338 1.219 . S
C1229 C449 1.947 . S
C1235 C378 1.947 . S
C1249 C498 1.508 . S
C1255 C569 1.508 . S
C1269 C618 1.558 . S
C1275 C529 1.558 . S
C1289 C19 3.691 . S
C1295 C299 3.700 . S
C1309 C46 0.649 . S
C1315 C166 0.633 . S
C1329 C219 2.945 . S
C1335 C86 2.885 . S
C1349 C259 1.010 . S
C1355 C126 0.983 . S
C1369 C450 3.700 . S
C1375 C170 3.692 1_655 S
C1389 C335 0.650 . S
C1395 C15 0.627 . S
C1409 C410 2.944 . S
C1415 C255 2.873 . S
C1429 C90 0.997 . S
C1435 C375 0.971 . S
C1449 C499 3.691 . S
C1455 C379 3.701 1_556 S
C1469 C566 0.633 . S
C1475 C406 0.649 . S
C1489 C526 2.875 . S
C1495 C339 2.943 . S
C1509 C619 1.005 . S
C1515 C446 0.985 . S
C1529 C570 3.694 . S
C1535 C130 3.702 1_554 S
C1549 C215 0.582 . S
C1555 C495 0.603 . S
C1569 C50 2.943 . S
C1575 C615 2.879 . S
C1589 C530 0.990 . S
C1595 C295 0.954 . S
