# Generated by pormake.
# Topology umw, (4)-cn, num edge types: 1
# Building blocks:
#     Node 0, Type 0, BuildingBlock: KUFVIS_clean_sbu_0, # of connection points: 4
#     Node 1, Type 0, BuildingBlock: KUFVIS_clean_sbu_0, # of connection points: 4
#     Node 2, Type 0, BuildingBlock: KUFVIS_clean_sbu_0, # of connection points: 4
#     Node 3, Type 0, BuildingBlock: KUFVIS_clean_sbu_0, # of connection points: 4
#     Node 4, Type 0, BuildingBlock: KUFVIS_clean_sbu_0, # of connection points: 4
#     Node 5, Type 0, BuildingBlock: KUFVIS_clean_sbu_0, # of connection points: 4
#     Node 6, Type 0, BuildingBlock: KUFVIS_clean_sbu_0, # of connection points: 4
#     Node 7, Type 0, BuildingBlock: KUFVIS_clean_sbu_0, # of connection points: 4
#     Edge 8, Type (0, 0), BuildingBlock: OJICUG_clean_linker_0, # of connection points: 2
#     Edge 9, Type (0, 0), BuildingBlock: OJICUG_clean_linker_0, # of connection points: 2
#     Edge 10, Type (0, 0), BuildingBlock: OJICUG_clean_linker_0, # of connection points: 2
#     Edge 11, Type (0, 0), BuildingBlock: OJICUG_clean_linker_0, # of connection points: 2
#     Edge 12, Type (0, 0), BuildingBlock: OJICUG_clean_linker_0, # of connection points: 2
#     Edge 13, Type (0, 0), BuildingBlock: OJICUG_clean_linker_0, # of connection points: 2
#     Edge 14, Type (0, 0), BuildingBlock: OJICUG_clean_linker_0, # of connection points: 2
#     Edge 15, Type (0, 0), BuildingBlock: OJICUG_clean_linker_0, # of connection points: 2
#     Edge 16, Type (0, 0), BuildingBlock: OJICUG_clean_linker_0, # of connection points: 2
#     Edge 17, Type (0, 0), BuildingBlock: OJICUG_clean_linker_0, # of connection points: 2
#     Edge 18, Type (0, 0), BuildingBlock: OJICUG_clean_linker_0, # of connection points: 2
#     Edge 19, Type (0, 0), BuildingBlock: OJICUG_clean_linker_0, # of connection points: 2
#     Edge 20, Type (0, 0), BuildingBlock: OJICUG_clean_linker_0, # of connection points: 2
#     Edge 21, Type (0, 0), BuildingBlock: OJICUG_clean_linker_0, # of connection points: 2
#     Edge 22, Type (0, 0), BuildingBlock: OJICUG_clean_linker_0, # of connection points: 2
#     Edge 23, Type (0, 0), BuildingBlock: OJICUG_clean_linker_0, # of connection points: 2
# Relax obj value: 0.127
# Max RMSD: 0.104
# Mean RMSD: 0.104
data_MOF--net-umw--node1-KUFVIS_clean_sbu_0--edge1-OJICUG_clean_linker_0
_symmetry_space_group_name_H-M    P1
_symmetry_Int_Tables_number       1
_symmetry_cell_setting            triclinic
loop_
_symmetry_equiv_pos_as_xyz
'x, y, z'
_cell_length_a     29.458281
_cell_length_b     29.458991
_cell_length_c     19.209886
_cell_angle_alpha  90.003142
_cell_angle_beta   90.00234
_cell_angle_gamma 89.998705
loop_
_atom_site_label
_atom_site_type_symbol
_atom_site_fract_x
_atom_site_fract_y
_atom_site_fract_z
_atom_type_partial_charge
Mn0 Mn 0.44395 0.23946 0.29108 0.0
Mn1 Mn 0.55834 0.22664 0.28978 0.0
C2 C 0.48314 0.23149 0.39239 0.0
C3 C 0.38331 0.2908 0.3098 0.0
C4 C 0.49284 0.14705 0.27527 0.0
O5 O 0.45938 0.25477 0.18872 0.0
O6 O 0.53423 0.24178 0.19775 0.0
C7 C 0.57549 0.32416 0.26224 0.0
N8 N 0.5819 0.28665 0.30261 0.0
C9 C 0.62687 0.32924 0.38437 0.0
C10 C 0.62087 0.36821 0.34353 0.0
C11 C 0.59496 0.36566 0.28228 0.0
C12 C 0.60595 0.28899 0.3624 0.0
H13 H 0.55553 0.32254 0.21521 0.0
C14 C 0.49932 0.25231 0.16227 0.0
O15 O 0.37561 0.25035 0.28502 0.0
O16 O 0.42531 0.30273 0.31221 0.0
N17 N 0.5894 0.21217 0.37449 0.0
C18 C 0.60011 0.17011 0.39911 0.0
C19 C 0.62855 0.16586 0.45743 0.0
C20 C 0.6473 0.20481 0.48808 0.0
C21 C 0.63907 0.24737 0.45812 0.0
C22 C 0.61061 0.24939 0.39979 0.0
H23 H 0.58635 0.14007 0.37518 0.0
O24 O 0.4399 0.22571 0.39119 0.0
O25 O 0.50261 0.24506 0.33554 0.0
O26 O 0.45563 0.17029 0.27289 0.0
O27 O 0.53254 0.16503 0.28088 0.0
C28 C 0.65986 0.2875 0.48178 0.0
C29 C 0.65345 0.32855 0.44535 0.0
H30 H 0.63622 0.40018 0.35845 0.0
H31 H 0.59011 0.3956 0.25049 0.0
H32 H 0.63598 0.13265 0.47865 0.0
H33 H 0.6693 0.20148 0.533 0.0
H34 H 0.68174 0.28676 0.52689 0.0
H35 H 0.6701 0.35911 0.46359 0.0
Mn36 Mn 0.82116 0.44395 0.5411 0.0
Mn37 Mn 0.83397 0.55833 0.53981 0.0
C38 C 0.82913 0.48314 0.64241 0.0
C39 C 0.76982 0.38331 0.55981 0.0
C40 C 0.91357 0.49283 0.5253 0.0
O41 O 0.80584 0.45938 0.43874 0.0
O42 O 0.81882 0.53423 0.44778 0.0
C43 C 0.73645 0.57548 0.51228 0.0
N44 N 0.77396 0.5819 0.55264 0.0
C45 C 0.73138 0.62686 0.63441 0.0
C46 C 0.6924 0.62086 0.59356 0.0
C47 C 0.69495 0.59496 0.53232 0.0
C48 C 0.77162 0.60595 0.61243 0.0
H49 H 0.73807 0.55553 0.46524 0.0
C50 C 0.8083 0.49932 0.4123 0.0
O51 O 0.81027 0.37561 0.53503 0.0
O52 O 0.75789 0.42531 0.56223 0.0
N53 N 0.84845 0.58939 0.62452 0.0
C54 C 0.89051 0.6001 0.64915 0.0
C55 C 0.89476 0.62854 0.70747 0.0
C56 C 0.85582 0.64729 0.73812 0.0
C57 C 0.81325 0.63906 0.70816 0.0
C58 C 0.81123 0.6106 0.64982 0.0
H59 H 0.92055 0.58633 0.62521 0.0
O60 O 0.83491 0.43989 0.64121 0.0
O61 O 0.81556 0.5026 0.58557 0.0
O62 O 0.89033 0.45562 0.52291 0.0
O63 O 0.89559 0.53254 0.5309 0.0
C64 C 0.77313 0.65985 0.73181 0.0
C65 C 0.73207 0.65344 0.69539 0.0
H66 H 0.66043 0.63622 0.60848 0.0
H67 H 0.66501 0.59011 0.50052 0.0
H68 H 0.92797 0.63597 0.72869 0.0
H69 H 0.85915 0.66929 0.78303 0.0
H70 H 0.77386 0.68173 0.77693 0.0
H71 H 0.70151 0.67009 0.71363 0.0
Mn72 Mn 0.61668 0.82116 0.7911 0.0
Mn73 Mn 0.50229 0.83399 0.7898 0.0
C74 C 0.57749 0.82914 0.89241 0.0
C75 C 0.67732 0.76982 0.80982 0.0
C76 C 0.56779 0.91358 0.7753 0.0
O77 O 0.60125 0.80585 0.68874 0.0
O78 O 0.5264 0.81884 0.69777 0.0
C79 C 0.48515 0.73647 0.76224 0.0
N80 N 0.47873 0.77398 0.80261 0.0
C81 C 0.43377 0.73139 0.88436 0.0
C82 C 0.43977 0.69242 0.84351 0.0
C83 C 0.46567 0.69497 0.78227 0.0
C84 C 0.45468 0.77163 0.8624 0.0
H85 H 0.5051 0.73809 0.71521 0.0
C86 C 0.56131 0.80832 0.66229 0.0
O87 O 0.68502 0.81027 0.78504 0.0
O88 O 0.63532 0.7579 0.81223 0.0
N89 N 0.47123 0.84846 0.8745 0.0
C90 C 0.46052 0.89051 0.89913 0.0
C91 C 0.43208 0.89477 0.95745 0.0
C92 C 0.41333 0.85582 -0.0119 0.0
C93 C 0.42156 0.81326 0.95813 0.0
C94 C 0.45003 0.81124 0.8998 0.0
H95 H 0.47429 0.92056 0.87521 0.0
O96 O 0.62074 0.83492 0.89121 0.0
O97 O 0.55802 0.81557 0.83556 0.0
O98 O 0.60501 0.89034 0.77292 0.0
O99 O 0.52809 0.8956 0.7809 0.0
C100 C 0.40077 0.77313 -0.01823 0.0
C101 C 0.40719 0.73207 0.94534 0.0
H102 H 0.42441 0.66045 0.85843 0.0
H103 H 0.47052 0.66503 0.75047 0.0
H104 H 0.42465 0.92797 -0.02133 0.0
H105 H 0.39133 0.85915 0.033 0.0
H106 H 0.37889 0.77386 0.02689 0.0
H107 H 0.39053 0.70152 0.96357 0.0
Mn108 Mn 0.23946 0.61667 0.0411 0.0
Mn109 Mn 0.22665 0.50229 0.03979 0.0
C110 C 0.2315 0.57749 0.1424 0.0
C111 C 0.2908 0.67731 0.0598 0.0
C112 C 0.14705 0.56778 0.02531 0.0
O113 O 0.25477 0.60124 0.93873 0.0
O114 O 0.24178 0.52639 0.94776 0.0
C115 C 0.32417 0.48514 0.01223 0.0
N116 N 0.28667 0.47873 0.0526 0.0
C117 C 0.32927 0.43377 0.13435 0.0
C118 C 0.36824 0.43977 0.0935 0.0
C119 C 0.36568 0.46568 0.03226 0.0
C120 C 0.28902 0.45468 0.11239 0.0
H121 H 0.32254 0.5051 0.96519 0.0
C122 C 0.2523 0.5613 0.91228 0.0
O123 O 0.25035 0.68501 0.03503 0.0
O124 O 0.30273 0.63531 0.06221 0.0
N125 N 0.21219 0.47123 0.1245 0.0
C126 C 0.17014 0.46051 0.14914 0.0
C127 C 0.1659 0.43207 0.20745 0.0
C128 C 0.20485 0.41332 0.2381 0.0
C129 C 0.24741 0.42156 0.20813 0.0
C130 C 0.24942 0.45002 0.14979 0.0
H131 H 0.14009 0.47427 0.12521 0.0
O132 O 0.22572 0.62073 0.14121 0.0
O133 O 0.24507 0.55802 0.08555 0.0
O134 O 0.17029 0.60499 0.02292 0.0
O135 O 0.16503 0.52808 0.03091 0.0
C136 C 0.28754 0.40078 0.23177 0.0
C137 C 0.32859 0.40719 0.19533 0.0
H138 H 0.40021 0.42442 0.10841 0.0
H139 H 0.39561 0.47052 0.00045 0.0
H140 H 0.13269 0.42464 0.22868 0.0
H141 H 0.20153 0.39133 0.28301 0.0
H142 H 0.28682 0.3789 0.27688 0.0
H143 H 0.35915 0.39054 0.21356 0.0
Mn144 Mn 0.45833 0.8553 0.25115 0.0
Mn145 Mn 0.57059 0.87851 0.24974 0.0
C146 C 0.4962 0.87002 0.14927 0.0
C147 C 0.40274 0.79868 0.22837 0.0
C148 C 0.49808 0.94927 0.28375 0.0
O149 O 0.47844 0.83414 0.34932 0.0
O150 O 0.55293 0.85031 0.33832 0.0
C151 C 0.6023 0.78305 0.24999 0.0
N152 N 0.60167 0.8249 0.21983 0.0
C153 C 0.64941 0.79924 0.12601 0.0
C154 C 0.65075 0.75597 0.15629 0.0
C155 C 0.627 0.74783 0.21846 0.0
C156 C 0.62388 0.8329 0.15947 0.0
H157 H 0.58397 0.77653 0.29761 0.0
C158 C 0.51939 0.83464 0.37282 0.0
O159 O 0.39146 0.83688 0.2578 0.0
O160 O 0.44564 0.79185 0.22176 0.0
N161 N 0.5934 0.90568 0.16616 0.0
C162 C 0.59068 0.94991 0.14568 0.0
C163 C 0.61393 0.96413 0.08567 0.0
C164 C 0.64037 0.93297 0.04801 0.0
C165 C 0.64385 0.88799 0.07129 0.0
C166 C 0.62024 0.8759 0.13182 0.0
H167 H 0.57079 0.97415 0.17467 0.0
O168 O 0.45267 0.87437 0.15211 0.0
O169 O 0.51605 0.85677 0.20548 0.0
O170 O 0.46282 0.92359 0.27896 0.0
O171 O 0.53886 0.93463 0.27676 0.0
C172 C 0.67005 0.85478 0.03706 0.0
C173 C 0.67245 0.8103 0.06399 0.0
H174 H 0.66988 0.72875 0.13226 0.0
H175 H 0.62774 0.71447 0.24204 0.0
H176 H 0.61144 0.99902 0.06847 0.0
H177 H 0.65801 0.94399 0.0015 0.0
H178 H 0.68845 0.86307 -0.01007 0.0
H179 H 0.69245 0.78498 0.03691 0.0
Mn180 Mn 0.20532 0.45833 0.50113 0.0
Mn181 Mn 0.18211 0.57058 0.49973 0.0
C182 C 0.1906 0.49619 0.39925 0.0
C183 C 0.26195 0.40273 0.47837 0.0
C184 C 0.11135 0.49807 0.53374 0.0
O185 O 0.22648 0.47843 0.5993 0.0
O186 O 0.21031 0.55292 0.5883 0.0
C187 C 0.27756 0.6023 0.49998 0.0
N188 N 0.23571 0.60166 0.46981 0.0
C189 C 0.26136 0.6494 0.37599 0.0
C190 C 0.30464 0.65074 0.40628 0.0
C191 C 0.31279 0.62699 0.46845 0.0
C192 C 0.22771 0.62387 0.40946 0.0
H193 H 0.2841 0.58396 0.54759 0.0
C194 C 0.22598 0.51938 0.62281 0.0
O195 O 0.22375 0.39145 0.50779 0.0
O196 O 0.26877 0.44563 0.47175 0.0
N197 N 0.15493 0.59339 0.41615 0.0
C198 C 0.1107 0.59067 0.39566 0.0
C199 C 0.09647 0.61392 0.33565 0.0
C200 C 0.12763 0.64036 0.29799 0.0
C201 C 0.17261 0.64384 0.32128 0.0
C202 C 0.18471 0.62023 0.3818 0.0
H203 H 0.08647 0.57078 0.42465 0.0
O204 O 0.18625 0.45267 0.40209 0.0
O205 O 0.20385 0.51604 0.45546 0.0
O206 O 0.13703 0.46282 0.52894 0.0
O207 O 0.12599 0.53885 0.52675 0.0
C208 C 0.20582 0.67003 0.28705 0.0
C209 C 0.2503 0.67244 0.31397 0.0
H210 H 0.33186 0.66987 0.38225 0.0
H211 H 0.34614 0.62773 0.49203 0.0
H212 H 0.06158 0.61143 0.31845 0.0
H213 H 0.11661 0.65799 0.25148 0.0
H214 H 0.19753 0.68843 0.23991 0.0
H215 H 0.27563 0.69244 0.28689 0.0
Mn216 Mn 0.6023 0.20533 0.75114 0.0
Mn217 Mn 0.49005 0.18211 0.74972 0.0
C218 C 0.56444 0.19059 0.64925 0.0
C219 C 0.65789 0.26195 0.72837 0.0
C220 C 0.56256 0.11136 0.78374 0.0
O221 O 0.58219 0.22649 0.8493 0.0
O222 O 0.5077 0.21032 0.83829 0.0
C223 C 0.45832 0.27756 0.74995 0.0
N224 N 0.45896 0.23571 0.71979 0.0
C225 C 0.41122 0.26135 0.62596 0.0
C226 C 0.40988 0.30463 0.65624 0.0
C227 C 0.43363 0.31278 0.71841 0.0
C228 C 0.43675 0.2277 0.65943 0.0
H229 H 0.47665 0.2841 0.79757 0.0
C230 C 0.54124 0.22599 0.8728 0.0
O231 O 0.66917 0.22376 0.75779 0.0
O232 O 0.61499 0.26877 0.72175 0.0
N233 N 0.46724 0.15493 0.66613 0.0
C234 C 0.46996 0.1107 0.64565 0.0
C235 C 0.44671 0.09647 0.58564 0.0
C236 C 0.42027 0.12762 0.54797 0.0
C237 C 0.41679 0.1726 0.57125 0.0
C238 C 0.4404 0.1847 0.63178 0.0
H239 H 0.48985 0.08647 0.67465 0.0
O240 O 0.60796 0.18625 0.65209 0.0
O241 O 0.54459 0.20384 0.70546 0.0
O242 O 0.59781 0.13703 0.77895 0.0
O243 O 0.52178 0.12599 0.77675 0.0
C244 C 0.39059 0.20581 0.53702 0.0
C245 C 0.38818 0.25029 0.56393 0.0
H246 H 0.39074 0.33185 0.6322 0.0
H247 H 0.43288 0.34614 0.74199 0.0
H248 H 0.44921 0.06157 0.56844 0.0
H249 H 0.40264 0.1166 0.50146 0.0
H250 H 0.37219 0.19751 0.48987 0.0
H251 H 0.36818 0.27561 0.53685 0.0
Mn252 Mn 0.85529 0.60229 0.00117 0.0
Mn253 Mn 0.87851 0.49004 -0.00025 0.0
C254 C 0.87003 0.56443 0.89928 0.0
C255 C 0.79867 0.65788 -0.0216 0.0
C256 C 0.94927 0.56255 0.03378 0.0
O257 O 0.83414 0.58219 0.09933 0.0
O258 O 0.85031 0.5077 0.08833 0.0
C259 C 0.78306 0.45832 -2e-05 0.0
N260 N 0.82491 0.45896 0.96982 0.0
C261 C 0.79926 0.41122 0.87599 0.0
C262 C 0.75598 0.40988 0.90627 0.0
C263 C 0.74784 0.43363 0.96844 0.0
C264 C 0.83292 0.43675 0.90947 0.0
H265 H 0.77653 0.47665 0.0476 0.0
C266 C 0.83463 0.54124 0.12283 0.0
O267 O 0.83687 0.66917 0.00783 0.0
O268 O 0.79185 0.61499 -0.02822 0.0
N269 N 0.90569 0.46723 0.91617 0.0
C270 C 0.94992 0.46995 0.89569 0.0
C271 C 0.96415 0.4467 0.83568 0.0
C272 C 0.93299 0.42026 0.79801 0.0
C273 C 0.88801 0.41679 0.82129 0.0
C274 C 0.87591 0.44039 0.88182 0.0
H275 H 0.97416 0.48984 0.92469 0.0
O276 O 0.87437 0.60795 0.90213 0.0
O277 O 0.85678 0.54458 0.95549 0.0
O278 O 0.92359 0.5978 0.02899 0.0
O279 O 0.93463 0.52177 0.02679 0.0
C280 C 0.85481 0.39059 0.78705 0.0
C281 C 0.81032 0.38818 0.81397 0.0
H282 H 0.72877 0.39075 0.88223 0.0
H283 H 0.71448 0.43288 -0.00798 0.0
H284 H 0.99904 0.4492 0.81848 0.0
H285 H 0.94402 0.40263 0.7515 0.0
H286 H 0.8631 0.37219 0.73991 0.0
H287 H 0.785 0.36818 0.78688 0.0
C288 C 0.51222 0.17545 0.47456 0.0
C289 C 0.50697 0.22093 0.45518 0.0
H290 H 0.53955 0.12993 0.55078 0.0
C291 C 0.5192 0.25605 0.50006 0.0
H292 H 0.50157 0.14826 0.44023 0.0
C293 C 0.53741 0.24556 0.5645 0.0
C294 C 0.54413 0.20008 0.58298 0.0
H295 H 0.51381 0.29124 0.48583 0.0
H296 H 0.54656 0.27282 0.59974 0.0
C297 C 0.53303 0.16502 0.53733 0.0
C298 C 0.80457 0.51919 0.75008 0.0
C299 C 0.83969 0.50696 0.70521 0.0
H300 H 0.7878 0.54655 0.84976 0.0
C301 C 0.88517 0.51221 0.72459 0.0
H302 H 0.76938 0.5138 0.73585 0.0
C303 C 0.8956 0.53302 0.78737 0.0
C304 C 0.86054 0.54412 0.83301 0.0
H305 H 0.91237 0.50157 0.69027 0.0
H306 H 0.9307 0.53955 0.80082 0.0
C307 C 0.81506 0.5374 0.81453 0.0
C308 C 0.52323 0.81506 0.06452 0.0
C309 C 0.51651 0.86054 0.083 0.0
H310 H 0.54683 0.76938 -0.01417 0.0
C311 C 0.5276 0.8956 0.03736 0.0
H312 H 0.51408 0.7878 0.09974 0.0
C313 C 0.54841 0.88517 -0.02541 0.0
C314 C 0.55367 0.83969 0.95521 0.0
H315 H 0.52107 0.93069 0.05081 0.0
H316 H 0.55906 0.91237 0.94026 0.0
C317 C 0.54143 0.80457 7e-05 0.0
C318 C 0.16502 0.5276 0.28733 0.0
C319 C 0.20008 0.5165 0.33299 0.0
H320 H 0.14826 0.55905 0.19024 0.0
C321 C 0.24557 0.52322 0.31452 0.0
H322 H 0.12993 0.52107 0.30078 0.0
C323 C 0.25606 0.54143 0.25007 0.0
C324 C 0.22094 0.55366 0.2052 0.0
H325 H 0.27282 0.51407 0.34975 0.0
H326 H 0.29125 0.54682 0.23585 0.0
C327 C 0.17546 0.54841 0.22457 0.0
C328 C 0.30746 0.3013 0.3731 0.0
C329 C 0.34929 0.31871 0.3491 0.0
H330 H 0.247 0.31347 0.43423 0.0
C331 C 0.36245 0.36204 0.37245 0.0
H332 H 0.29662 0.26765 0.35769 0.0
C333 C 0.33507 0.38732 0.41738 0.0
C334 C 0.29306 0.37064 0.44098 0.0
H335 H 0.3945 0.37667 0.35629 0.0
H336 H 0.34669 0.42077 0.43262 0.0
C337 C 0.27952 0.3271 0.41837 0.0
C338 C 0.69857 0.36245 0.62242 0.0
C339 C 0.7419 0.34928 0.5991 0.0
H340 H 0.63983 0.34669 0.68257 0.0
C341 C 0.75933 0.30747 0.62313 0.0
H342 H 0.68394 0.39449 0.60624 0.0
C343 C 0.73352 0.27953 0.6684 0.0
C344 C 0.68997 0.29306 0.69097 0.0
H345 H 0.79299 0.29664 0.60775 0.0
H346 H 0.74717 0.24702 0.68429 0.0
C347 C 0.67329 0.33506 0.66735 0.0
C348 C 0.7811 0.73352 0.91842 0.0
C349 C 0.76756 0.68997 0.941 0.0
H350 H 0.764 0.79298 0.85777 0.0
C351 C 0.72556 0.67329 0.91737 0.0
H352 H 0.81361 0.74716 0.93432 0.0
C353 C 0.69818 0.69858 0.87244 0.0
C354 C 0.71135 0.74191 0.84911 0.0
H355 H 0.71393 0.63984 0.93259 0.0
H356 H 0.66613 0.68395 0.85625 0.0
C357 C 0.75316 0.75933 0.87316 0.0
C358 C 0.36205 0.69818 0.12241 0.0
C359 C 0.31872 0.71134 0.09909 0.0
H360 H 0.42079 0.71394 0.18256 0.0
C361 C 0.30129 0.75316 0.12313 0.0
H362 H 0.37669 0.66614 0.10622 0.0
C363 C 0.3271 0.7811 0.1684 0.0
C364 C 0.37066 0.76757 0.19097 0.0
H365 H 0.26764 0.76399 0.10775 0.0
H366 H 0.31346 0.81361 0.18429 0.0
C367 C 0.38734 0.72556 0.16734 0.0
C368 C 0.45191 1.02287 0.27986 0.0
C369 C 0.49343 0.99972 0.28914 0.0
H370 H 0.41856 0.08774 0.26815 0.0
C371 C 0.53328 1.02575 0.29453 0.0
H372 H 0.42052 1.00404 0.27478 0.0
C373 C 0.53241 0.07261 0.28746 0.0
C374 C 0.49144 0.09625 0.27774 0.0
H375 H 0.56612 1.00989 0.30177 0.0
H376 H 0.56465 0.09009 0.28935 0.0
C377 C 0.45087 0.0708 0.27495 0.0
C378 C 0.98801 0.53241 0.53747 0.0
C379 C 0.96436 0.49143 0.52775 0.0
H380 H 0.05073 0.56611 0.55177 0.0
C381 C 0.98982 0.45087 0.52495 0.0
H382 H 0.97052 0.56465 0.53937 0.0
C383 C 0.03775 0.45191 0.52985 0.0
C384 C 0.0609 0.49342 0.53914 0.0
H385 H 0.97288 0.41856 0.51816 0.0
H386 H 0.05658 0.42052 0.52477 0.0
C387 C 0.03486 0.53327 0.54453 0.0
C388 C 0.52822 0.98802 0.78749 0.0
C389 C 0.5692 0.96437 0.77777 0.0
H390 H 0.49452 0.05074 0.8018 0.0
C391 C 0.60976 0.98983 0.77496 0.0
H392 H 0.49598 0.97054 0.7894 0.0
C393 C 0.60873 0.03776 0.77985 0.0
C394 C 0.56721 0.0609 0.78915 0.0
H395 H 0.64207 0.97289 0.76815 0.0
H396 H 0.64011 0.05659 0.77476 0.0
C397 C 0.52736 0.03487 0.79456 0.0
C398 C 1.02575 0.52735 0.04459 0.0
C399 C 0.99972 0.5672 0.03919 0.0
H400 H 0.09009 0.49598 0.03943 0.0
C401 C 1.02287 0.60872 0.02987 0.0
H402 H 1.00989 0.49452 0.05185 0.0
C403 C 0.0708 0.60975 0.02497 0.0
C404 C 0.09626 0.56919 0.02779 0.0
H405 H 1.00404 0.6401 0.02477 0.0
H406 H 0.08774 0.64206 0.01815 0.0
C407 C 0.07261 0.52822 0.03752 0.0
C408 C 0.48436 0.24136 0.96764 0.0
C409 C 0.53008 0.24176 0.94454 0.0
H410 H 0.4384 0.24481 0.05426 0.0
C411 C 0.56393 0.25394 -0.00793 0.0
H412 H 0.45692 0.23314 0.9323 0.0
C413 C 0.55283 0.26163 0.06193 0.0
C414 C 0.50769 0.25679 0.08624 0.0
H415 H 0.59918 0.25539 -0.02378 0.0
H416 H 0.58028 0.2688 0.09782 0.0
C417 C 0.47333 0.2486 0.03765 0.0
C418 C 0.80668 0.56393 0.24209 0.0
C419 C 0.81887 0.53008 0.19457 0.0
H420 H 0.79181 0.58028 0.34784 0.0
C421 C 0.81927 0.48436 0.21767 0.0
H422 H 0.80522 0.59918 0.22624 0.0
C423 C 0.81202 0.47333 0.28768 0.0
C424 C 0.80383 0.50769 0.33627 0.0
H425 H 0.82749 0.45692 0.18234 0.0
H426 H 0.81581 0.4384 0.30429 0.0
C427 C 0.79898 0.55283 0.31195 0.0
C428 C 0.5078 0.799 0.56194 0.0
C429 C 0.55294 0.80384 0.58626 0.0
H430 H 0.46145 0.80524 0.47623 0.0
C431 C 0.5873 0.81203 0.53768 0.0
H432 H 0.48035 0.79183 0.59783 0.0
C433 C 0.57626 0.81927 0.46766 0.0
C434 C 0.53055 0.81888 0.44456 0.0
H435 H 0.62223 0.81582 0.55429 0.0
H436 H 0.60371 0.82749 0.43233 0.0
C437 C 0.4967 0.80669 0.49208 0.0
C438 C 0.26161 0.50779 0.81193 0.0
C439 C 0.25677 0.55293 0.83625 0.0
H440 H 0.25538 0.46144 0.72622 0.0
C441 C 0.2486 0.58728 0.78767 0.0
H442 H 0.26878 0.48034 0.84782 0.0
C443 C 0.24135 0.57626 0.71765 0.0
C444 C 0.24175 0.53054 0.69455 0.0
H445 H 0.24481 0.62222 0.80428 0.0
H446 H 0.23313 0.6037 0.68232 0.0
C447 C 0.25393 0.49669 0.74207 0.0
loop_
_geom_bond_atom_site_label_1
_geom_bond_atom_site_label_2
_geom_bond_distance
_geom_bond_site_symmetry_2
_ccdc_geom_bond_type
Mn0 O5 2.095 . S
Mn0 O15 2.162 . S
Mn0 O16 2.297 . S
Mn0 O24 2.385 . S
Mn0 O25 2.209 . S
Mn0 O26 2.094 . S
Mn1 O6 2.121 . S
Mn1 N8 2.257 . S
Mn1 N17 2.282 . S
Mn1 O25 2.215 . S
Mn1 O27 2.117 . S
C2 O24 1.234 . S
C2 O25 1.283 . S
C3 O15 1.281 . S
C3 O16 1.236 . S
C4 O26 1.240 . S
C4 O27 1.264 . S
O5 Mn0 2.095 . S
O5 C14 1.250 . S
O6 Mn1 2.121 . S
O6 C14 1.258 . S
C7 N8 1.326 . S
C7 C11 1.460 . S
C7 H13 0.929 . S
N8 Mn1 2.257 . S
N8 C7 1.326 . S
N8 C12 1.362 . S
C9 C10 1.258 . S
C9 C12 1.431 . S
C9 C29 1.449 . S
C10 C9 1.258 . S
C10 C11 1.477 . S
C10 H30 0.931 . S
C11 C7 1.460 . S
C11 C10 1.477 . S
C11 H31 0.930 . S
C12 N8 1.362 . S
C12 C9 1.431 . S
C12 C22 1.476 . S
H13 C7 0.929 . S
C14 O5 1.250 . S
C14 O6 1.258 . S
O15 Mn0 2.162 . S
O15 C3 1.281 . S
O16 Mn0 2.297 . S
O16 C3 1.236 . S
N17 Mn1 2.282 . S
N17 C18 1.328 . S
N17 C22 1.318 . S
C18 N17 1.328 . S
C18 C19 1.457 . S
C18 H23 0.929 . S
C19 C18 1.457 . S
C19 C20 1.291 . S
C19 H32 0.931 . S
C20 C19 1.291 . S
C20 C21 1.373 . S
C20 H33 0.929 . S
C21 C20 1.373 . S
C21 C22 1.396 . S
C21 C28 1.403 . S
C22 C12 1.476 . S
C22 N17 1.318 . S
C22 C21 1.396 . S
H23 C18 0.929 . S
O24 Mn0 2.385 . S
O24 C2 1.234 . S
O25 Mn0 2.209 . S
O25 Mn1 2.215 . S
O25 C2 1.283 . S
O26 Mn0 2.094 . S
O26 C4 1.240 . S
O27 Mn1 2.117 . S
O27 C4 1.264 . S
C28 C21 1.403 . S
C28 C29 1.399 . S
C28 H34 0.929 . S
C29 C9 1.449 . S
C29 C28 1.399 . S
C29 H35 0.930 . S
H30 C10 0.931 . S
H31 C11 0.930 . S
H32 C19 0.931 . S
H33 C20 0.929 . S
H34 C28 0.929 . S
H35 C29 0.930 . S
Mn36 O41 2.095 . S
Mn36 O51 2.162 . S
Mn36 O52 2.297 . S
Mn36 O60 2.385 . S
Mn36 O61 2.209 . S
Mn36 O62 2.094 . S
Mn37 O42 2.121 . S
Mn37 N44 2.257 . S
Mn37 N53 2.282 . S
Mn37 O61 2.215 . S
Mn37 O63 2.117 . S
C38 O60 1.234 . S
C38 O61 1.283 . S
C39 O51 1.281 . S
C39 O52 1.236 . S
C40 O62 1.240 . S
C40 O63 1.264 . S
O41 Mn36 2.095 . S
O41 C50 1.250 . S
O42 Mn37 2.121 . S
O42 C50 1.258 . S
C43 N44 1.326 . S
C43 C47 1.460 . S
C43 H49 0.929 . S
N44 Mn37 2.257 . S
N44 C43 1.326 . S
N44 C48 1.362 . S
C45 C46 1.258 . S
C45 C48 1.431 . S
C45 C65 1.449 . S
C46 C45 1.258 . S
C46 C47 1.477 . S
C46 H66 0.931 . S
C47 C43 1.460 . S
C47 C46 1.477 . S
C47 H67 0.930 . S
C48 N44 1.362 . S
C48 C45 1.431 . S
C48 C58 1.476 . S
H49 C43 0.929 . S
C50 O41 1.250 . S
C50 O42 1.258 . S
O51 Mn36 2.162 . S
O51 C39 1.281 . S
O52 Mn36 2.297 . S
O52 C39 1.236 . S
N53 Mn37 2.282 . S
N53 C54 1.328 . S
N53 C58 1.318 . S
C54 N53 1.328 . S
C54 C55 1.457 . S
C54 H59 0.929 . S
C55 C54 1.457 . S
C55 C56 1.291 . S
C55 H68 0.931 . S
C56 C55 1.291 . S
C56 C57 1.373 . S
C56 H69 0.929 . S
C57 C56 1.373 . S
C57 C58 1.396 . S
C57 C64 1.403 . S
C58 C48 1.476 . S
C58 N53 1.318 . S
C58 C57 1.396 . S
H59 C54 0.929 . S
O60 Mn36 2.385 . S
O60 C38 1.234 . S
O61 Mn36 2.209 . S
O61 Mn37 2.215 . S
O61 C38 1.283 . S
O62 Mn36 2.094 . S
O62 C40 1.240 . S
O63 Mn37 2.117 . S
O63 C40 1.264 . S
C64 C57 1.403 . S
C64 C65 1.399 . S
C64 H70 0.929 . S
C65 C45 1.449 . S
C65 C64 1.399 . S
C65 H71 0.930 . S
H66 C46 0.931 . S
H67 C47 0.930 . S
H68 C55 0.931 . S
H69 C56 0.929 . S
H70 C64 0.929 . S
H71 C65 0.930 . S
Mn72 O77 2.095 . S
Mn72 O87 2.162 . S
Mn72 O88 2.297 . S
Mn72 O96 2.385 . S
Mn72 O97 2.209 . S
Mn72 O98 2.094 . S
Mn73 O78 2.121 . S
Mn73 N80 2.257 . S
Mn73 N89 2.282 . S
Mn73 O97 2.215 . S
Mn73 O99 2.117 . S
C74 O96 1.234 . S
C74 O97 1.283 . S
C75 O87 1.281 . S
C75 O88 1.236 . S
C76 O98 1.240 . S
C76 O99 1.264 . S
O77 Mn72 2.095 . S
O77 C86 1.250 . S
O78 Mn73 2.121 . S
O78 C86 1.258 . S
C79 N80 1.326 . S
C79 C83 1.460 . S
C79 H85 0.929 . S
N80 Mn73 2.257 . S
N80 C79 1.326 . S
N80 C84 1.362 . S
C81 C82 1.258 . S
C81 C84 1.431 . S
C81 C101 1.449 . S
C82 C81 1.258 . S
C82 C83 1.477 . S
C82 H102 0.931 . S
C83 C79 1.460 . S
C83 C82 1.477 . S
C83 H103 0.930 . S
C84 N80 1.362 . S
C84 C81 1.431 . S
C84 C94 1.476 . S
H85 C79 0.929 . S
C86 O77 1.250 . S
C86 O78 1.258 . S
O87 Mn72 2.162 . S
O87 C75 1.281 . S
O88 Mn72 2.297 . S
O88 C75 1.236 . S
N89 Mn73 2.282 . S
N89 C90 1.328 . S
N89 C94 1.318 . S
C90 N89 1.328 . S
C90 C91 1.457 1_556 S
C90 H95 0.929 . S
C91 C90 1.457 1_554 S
C91 C92 1.291 . S
C91 H104 0.931 . S
C92 C91 1.291 . S
C92 C93 1.373 1_554 S
C92 H105 0.929 . S
C93 C92 1.373 1_556 S
C93 C94 1.396 . S
C93 C100 1.403 1_556 S
C94 C84 1.476 . S
C94 N89 1.318 . S
C94 C93 1.396 . S
H95 C90 0.929 . S
O96 Mn72 2.385 . S
O96 C74 1.234 . S
O97 Mn72 2.209 . S
O97 Mn73 2.215 . S
O97 C74 1.283 . S
O98 Mn72 2.094 . S
O98 C76 1.240 . S
O99 Mn73 2.117 . S
O99 C76 1.264 . S
C100 C93 1.403 1_554 S
C100 C101 1.399 1_554 S
C100 H106 0.929 . S
C101 C81 1.449 . S
C101 C100 1.399 1_556 S
C101 H107 0.930 . S
H102 C82 0.931 . S
H103 C83 0.930 . S
H104 C91 0.931 . S
H105 C92 0.929 . S
H106 C100 0.929 . S
H107 C101 0.930 . S
Mn108 O113 2.095 1_554 S
Mn108 O123 2.162 . S
Mn108 O124 2.297 . S
Mn108 O132 2.385 . S
Mn108 O133 2.209 . S
Mn108 O134 2.094 . S
Mn109 O114 2.121 1_554 S
Mn109 N116 2.257 . S
Mn109 N125 2.282 . S
Mn109 O133 2.215 . S
Mn109 O135 2.117 . S
C110 O132 1.234 . S
C110 O133 1.283 . S
C111 O123 1.281 . S
C111 O124 1.236 . S
C112 O134 1.240 . S
C112 O135 1.264 . S
O113 Mn108 2.095 1_556 S
O113 C122 1.250 . S
O114 Mn109 2.121 1_556 S
O114 C122 1.258 . S
C115 N116 1.326 . S
C115 C119 1.460 . S
C115 H121 0.929 1_554 S
N116 Mn109 2.257 . S
N116 C115 1.326 . S
N116 C120 1.362 . S
C117 C118 1.258 . S
C117 C120 1.431 . S
C117 C137 1.449 . S
C118 C117 1.258 . S
C118 C119 1.477 . S
C118 H138 0.931 . S
C119 C115 1.460 . S
C119 C118 1.477 . S
C119 H139 0.930 . S
C120 N116 1.362 . S
C120 C117 1.431 . S
C120 C130 1.476 . S
H121 C115 0.929 1_556 S
C122 O113 1.250 . S
C122 O114 1.258 . S
O123 Mn108 2.162 . S
O123 C111 1.281 . S
O124 Mn108 2.297 . S
O124 C111 1.236 . S
N125 Mn109 2.282 . S
N125 C126 1.328 . S
N125 C130 1.318 . S
C126 N125 1.328 . S
C126 C127 1.457 . S
C126 H131 0.929 . S
C127 C126 1.457 . S
C127 C128 1.291 . S
C127 H140 0.931 . S
C128 C127 1.291 . S
C128 C129 1.373 . S
C128 H141 0.929 . S
C129 C128 1.373 . S
C129 C130 1.396 . S
C129 C136 1.403 . S
C130 C120 1.476 . S
C130 N125 1.318 . S
C130 C129 1.396 . S
H131 C126 0.929 . S
O132 Mn108 2.385 . S
O132 C110 1.234 . S
O133 Mn108 2.209 . S
O133 Mn109 2.215 . S
O133 C110 1.283 . S
O134 Mn108 2.094 . S
O134 C112 1.240 . S
O135 Mn109 2.117 . S
O135 C112 1.264 . S
C136 C129 1.403 . S
C136 C137 1.399 . S
C136 H142 0.929 . S
C137 C117 1.449 . S
C137 C136 1.399 . S
C137 H143 0.930 . S
H138 C118 0.931 . S
H139 C119 0.930 . S
H140 C127 0.931 . S
H141 C128 0.929 . S
H142 C136 0.929 . S
H143 C137 0.930 . S
Mn144 O149 2.095 . S
Mn144 O159 2.162 . S
Mn144 O160 2.297 . S
Mn144 O168 2.385 . S
Mn144 O169 2.209 . S
Mn144 O170 2.094 . S
Mn145 O150 2.121 . S
Mn145 N152 2.257 . S
Mn145 N161 2.282 . S
Mn145 O169 2.215 . S
Mn145 O171 2.117 . S
C146 O168 1.234 . S
C146 O169 1.283 . S
C147 O159 1.281 . S
C147 O160 1.236 . S
C148 O170 1.240 . S
C148 O171 1.264 . S
O149 Mn144 2.095 . S
O149 C158 1.250 . S
O150 Mn145 2.121 . S
O150 C158 1.258 . S
C151 N152 1.326 . S
C151 C155 1.460 . S
C151 H157 0.929 . S
N152 Mn145 2.257 . S
N152 C151 1.326 . S
N152 C156 1.362 . S
C153 C154 1.258 . S
C153 C156 1.431 . S
C153 C173 1.449 . S
C154 C153 1.258 . S
C154 C155 1.477 . S
C154 H174 0.931 . S
C155 C151 1.460 . S
C155 C154 1.477 . S
C155 H175 0.930 . S
C156 N152 1.362 . S
C156 C153 1.431 . S
C156 C166 1.476 . S
H157 C151 0.929 . S
C158 O149 1.250 . S
C158 O150 1.258 . S
O159 Mn144 2.162 . S
O159 C147 1.281 . S
O160 Mn144 2.297 . S
O160 C147 1.236 . S
N161 Mn145 2.282 . S
N161 C162 1.328 . S
N161 C166 1.318 . S
C162 N161 1.328 . S
C162 C163 1.457 . S
C162 H167 0.929 . S
C163 C162 1.457 . S
C163 C164 1.291 . S
C163 H176 0.931 . S
C164 C163 1.291 . S
C164 C165 1.373 . S
C164 H177 0.929 . S
C165 C164 1.373 . S
C165 C166 1.396 . S
C165 C172 1.403 . S
C166 C156 1.476 . S
C166 N161 1.318 . S
C166 C165 1.396 . S
H167 C162 0.929 . S
O168 Mn144 2.385 . S
O168 C146 1.234 . S
O169 Mn144 2.209 . S
O169 Mn145 2.215 . S
O169 C146 1.283 . S
O170 Mn144 2.094 . S
O170 C148 1.240 . S
O171 Mn145 2.117 . S
O171 C148 1.264 . S
C172 C165 1.403 . S
C172 C173 1.399 . S
C172 H178 0.929 . S
C173 C153 1.449 . S
C173 C172 1.399 . S
C173 H179 0.930 . S
H174 C154 0.931 . S
H175 C155 0.930 . S
H176 C163 0.931 . S
H177 C164 0.929 . S
H178 C172 0.929 . S
H179 C173 0.930 . S
Mn180 O185 2.095 . S
Mn180 O195 2.162 . S
Mn180 O196 2.297 . S
Mn180 O204 2.385 . S
Mn180 O205 2.209 . S
Mn180 O206 2.094 . S
Mn181 O186 2.121 . S
Mn181 N188 2.257 . S
Mn181 N197 2.282 . S
Mn181 O205 2.215 . S
Mn181 O207 2.117 . S
C182 O204 1.234 . S
C182 O205 1.283 . S
C183 O195 1.281 . S
C183 O196 1.236 . S
C184 O206 1.240 . S
C184 O207 1.264 . S
O185 Mn180 2.095 . S
O185 C194 1.250 . S
O186 Mn181 2.121 . S
O186 C194 1.258 . S
C187 N188 1.326 . S
C187 C191 1.460 . S
C187 H193 0.929 . S
N188 Mn181 2.257 . S
N188 C187 1.326 . S
N188 C192 1.362 . S
C189 C190 1.258 . S
C189 C192 1.431 . S
C189 C209 1.449 . S
C190 C189 1.258 . S
C190 C191 1.477 . S
C190 H210 0.931 . S
C191 C187 1.460 . S
C191 C190 1.477 . S
C191 H211 0.930 . S
C192 N188 1.362 . S
C192 C189 1.431 . S
C192 C202 1.476 . S
H193 C187 0.929 . S
C194 O185 1.250 . S
C194 O186 1.258 . S
O195 Mn180 2.162 . S
O195 C183 1.281 . S
O196 Mn180 2.297 . S
O196 C183 1.236 . S
N197 Mn181 2.282 . S
N197 C198 1.328 . S
N197 C202 1.318 . S
C198 N197 1.328 . S
C198 C199 1.457 . S
C198 H203 0.929 . S
C199 C198 1.457 . S
C199 C200 1.291 . S
C199 H212 0.931 . S
C200 C199 1.291 . S
C200 C201 1.373 . S
C200 H213 0.929 . S
C201 C200 1.373 . S
C201 C202 1.396 . S
C201 C208 1.403 . S
C202 C192 1.476 . S
C202 N197 1.318 . S
C202 C201 1.396 . S
H203 C198 0.929 . S
O204 Mn180 2.385 . S
O204 C182 1.234 . S
O205 Mn180 2.209 . S
O205 Mn181 2.215 . S
O205 C182 1.283 . S
O206 Mn180 2.094 . S
O206 C184 1.240 . S
O207 Mn181 2.117 . S
O207 C184 1.264 . S
C208 C201 1.403 . S
C208 C209 1.399 . S
C208 H214 0.929 . S
C209 C189 1.449 . S
C209 C208 1.399 . S
C209 H215 0.930 . S
H210 C190 0.931 . S
H211 C191 0.930 . S
H212 C199 0.931 . S
H213 C200 0.929 . S
H214 C208 0.929 . S
H215 C209 0.930 . S
Mn216 O221 2.095 . S
Mn216 O231 2.162 . S
Mn216 O232 2.297 . S
Mn216 O240 2.385 . S
Mn216 O241 2.209 . S
Mn216 O242 2.094 . S
Mn217 O222 2.121 . S
Mn217 N224 2.257 . S
Mn217 N233 2.282 . S
Mn217 O241 2.215 . S
Mn217 O243 2.117 . S
C218 O240 1.234 . S
C218 O241 1.283 . S
C219 O231 1.281 . S
C219 O232 1.236 . S
C220 O242 1.240 . S
C220 O243 1.264 . S
O221 Mn216 2.095 . S
O221 C230 1.250 . S
O222 Mn217 2.121 . S
O222 C230 1.258 . S
C223 N224 1.326 . S
C223 C227 1.460 . S
C223 H229 0.929 . S
N224 Mn217 2.257 . S
N224 C223 1.326 . S
N224 C228 1.362 . S
C225 C226 1.258 . S
C225 C228 1.431 . S
C225 C245 1.449 . S
C226 C225 1.258 . S
C226 C227 1.477 . S
C226 H246 0.931 . S
C227 C223 1.460 . S
C227 C226 1.477 . S
C227 H247 0.930 . S
C228 N224 1.362 . S
C228 C225 1.431 . S
C228 C238 1.476 . S
H229 C223 0.929 . S
C230 O221 1.250 . S
C230 O222 1.258 . S
O231 Mn216 2.162 . S
O231 C219 1.281 . S
O232 Mn216 2.297 . S
O232 C219 1.236 . S
N233 Mn217 2.282 . S
N233 C234 1.328 . S
N233 C238 1.318 . S
C234 N233 1.328 . S
C234 C235 1.457 . S
C234 H239 0.929 . S
C235 C234 1.457 . S
C235 C236 1.291 . S
C235 H248 0.931 . S
C236 C235 1.291 . S
C236 C237 1.373 . S
C236 H249 0.929 . S
C237 C236 1.373 . S
C237 C238 1.396 . S
C237 C244 1.403 . S
C238 C228 1.476 . S
C238 N233 1.318 . S
C238 C237 1.396 . S
H239 C234 0.929 . S
O240 Mn216 2.385 . S
O240 C218 1.234 . S
O241 Mn216 2.209 . S
O241 Mn217 2.215 . S
O241 C218 1.283 . S
O242 Mn216 2.094 . S
O242 C220 1.240 . S
O243 Mn217 2.117 . S
O243 C220 1.264 . S
C244 C237 1.403 . S
C244 C245 1.399 . S
C244 H250 0.929 . S
C245 C225 1.449 . S
C245 C244 1.399 . S
C245 H251 0.930 . S
H246 C226 0.931 . S
H247 C227 0.930 . S
H248 C235 0.931 . S
H249 C236 0.929 . S
H250 C244 0.929 . S
H251 C245 0.930 . S
Mn252 O257 2.095 . S
Mn252 O267 2.162 . S
Mn252 O268 2.297 . S
Mn252 O276 2.385 1_554 S
Mn252 O277 2.209 1_554 S
Mn252 O278 2.094 . S
Mn253 O258 2.121 . S
Mn253 N260 2.257 . S
Mn253 N269 2.282 1_554 S
Mn253 O277 2.215 1_554 S
Mn253 O279 2.117 . S
C254 O276 1.234 . S
C254 O277 1.283 . S
C255 O267 1.281 . S
C255 O268 1.236 . S
C256 O278 1.240 . S
C256 O279 1.264 . S
O257 Mn252 2.095 . S
O257 C266 1.250 . S
O258 Mn253 2.121 . S
O258 C266 1.258 . S
C259 N260 1.326 . S
C259 C263 1.460 . S
C259 H265 0.929 . S
N260 Mn253 2.257 . S
N260 C259 1.326 . S
N260 C264 1.362 1_554 S
C261 C262 1.258 . S
C261 C264 1.431 . S
C261 C281 1.449 . S
C262 C261 1.258 . S
C262 C263 1.477 1_556 S
C262 H282 0.931 . S
C263 C259 1.460 . S
C263 C262 1.477 1_554 S
C263 H283 0.930 . S
C264 N260 1.362 1_556 S
C264 C261 1.431 . S
C264 C274 1.476 . S
H265 C259 0.929 . S
C266 O257 1.250 . S
C266 O258 1.258 . S
O267 Mn252 2.162 . S
O267 C255 1.281 . S
O268 Mn252 2.297 . S
O268 C255 1.236 . S
N269 Mn253 2.282 1_556 S
N269 C270 1.328 . S
N269 C274 1.318 . S
C270 N269 1.328 . S
C270 C271 1.457 . S
C270 H275 0.929 . S
C271 C270 1.457 . S
C271 C272 1.291 . S
C271 H284 0.931 . S
C272 C271 1.291 . S
C272 C273 1.373 . S
C272 H285 0.929 . S
C273 C272 1.373 . S
C273 C274 1.396 . S
C273 C280 1.403 . S
C274 C264 1.476 . S
C274 N269 1.318 . S
C274 C273 1.396 . S
H275 C270 0.929 . S
O276 Mn252 2.385 1_556 S
O276 C254 1.234 . S
O277 Mn252 2.209 1_556 S
O277 Mn253 2.215 1_556 S
O277 C254 1.283 . S
O278 Mn252 2.094 . S
O278 C256 1.240 . S
O279 Mn253 2.117 . S
O279 C256 1.264 . S
C280 C273 1.403 . S
C280 C281 1.399 . S
C280 H286 0.929 . S
C281 C261 1.449 . S
C281 C280 1.399 . S
C281 H287 0.930 . S
H282 C262 0.931 . S
H283 C263 0.930 . S
H284 C271 0.931 . S
H285 C272 0.929 . S
H286 C280 0.929 . S
H287 C281 0.930 . S
C288 C289 1.387 . S
C288 H292 0.950 . S
C288 C297 1.390 . S
C289 C288 1.387 . S
C289 C291 1.387 . S
H290 C297 0.950 . S
C291 C289 1.387 . S
C291 C293 1.390 . S
C291 H295 0.950 . S
H292 C288 0.950 . S
C293 C291 1.390 . S
C293 C294 1.387 . S
C293 H296 0.950 . S
C294 C293 1.387 . S
C294 C297 1.387 . S
H295 C291 0.950 . S
H296 C293 0.950 . S
C297 C288 1.390 . S
C297 H290 0.950 . S
C297 C294 1.387 . S
C298 C299 1.387 . S
C298 H302 0.950 . S
C298 C307 1.390 . S
C299 C298 1.387 . S
C299 C301 1.387 . S
H300 C307 0.950 . S
C301 C299 1.387 . S
C301 C303 1.390 . S
C301 H305 0.950 . S
H302 C298 0.950 . S
C303 C301 1.390 . S
C303 C304 1.387 . S
C303 H306 0.950 . S
C304 C303 1.387 . S
C304 C307 1.387 . S
H305 C301 0.950 . S
H306 C303 0.950 . S
C307 C298 1.390 . S
C307 H300 0.950 . S
C307 C304 1.387 . S
C308 C309 1.387 . S
C308 H312 0.950 . S
C308 C317 1.390 . S
C309 C308 1.387 . S
C309 C311 1.387 . S
H310 C317 0.950 1_556 S
C311 C309 1.387 . S
C311 C313 1.390 . S
C311 H315 0.950 . S
H312 C308 0.950 . S
C313 C311 1.390 . S
C313 C314 1.387 1_554 S
C313 H316 0.950 1_554 S
C314 C313 1.387 1_556 S
C314 C317 1.387 1_556 S
H315 C311 0.950 . S
H316 C313 0.950 1_556 S
C317 C308 1.390 . S
C317 H310 0.950 1_554 S
C317 C314 1.387 1_554 S
C318 C319 1.387 . S
C318 H322 0.950 . S
C318 C327 1.390 . S
C319 C318 1.387 . S
C319 C321 1.387 . S
H320 C327 0.950 . S
C321 C319 1.387 . S
C321 C323 1.390 . S
C321 H325 0.950 . S
H322 C318 0.950 . S
C323 C321 1.390 . S
C323 C324 1.387 . S
C323 H326 0.950 . S
C324 C323 1.387 . S
C324 C327 1.387 . S
H325 C321 0.950 . S
H326 C323 0.950 . S
C327 C318 1.390 . S
C327 H320 0.950 . S
C327 C324 1.387 . S
C328 C329 1.387 . S
C328 H332 0.950 . S
C328 C337 1.390 . S
C329 C328 1.387 . S
C329 C331 1.387 . S
H330 C337 0.950 . S
C331 C329 1.387 . S
C331 C333 1.390 . S
C331 H335 0.950 . S
H332 C328 0.950 . S
C333 C331 1.390 . S
C333 C334 1.387 . S
C333 H336 0.950 . S
C334 C333 1.387 . S
C334 C337 1.387 . S
H335 C331 0.950 . S
H336 C333 0.950 . S
C337 C328 1.390 . S
C337 H330 0.950 . S
C337 C334 1.387 . S
C338 C339 1.387 . S
C338 H342 0.950 . S
C338 C347 1.390 . S
C339 C338 1.387 . S
C339 C341 1.387 . S
H340 C347 0.950 . S
C341 C339 1.387 . S
C341 C343 1.390 . S
C341 H345 0.950 . S
H342 C338 0.950 . S
C343 C341 1.390 . S
C343 C344 1.387 . S
C343 H346 0.950 . S
C344 C343 1.387 . S
C344 C347 1.387 . S
H345 C341 0.950 . S
H346 C343 0.950 . S
C347 C338 1.390 . S
C347 H340 0.950 . S
C347 C344 1.387 . S
C348 C349 1.387 . S
C348 H352 0.950 1_556 S
C348 C357 1.390 . S
C349 C348 1.387 . S
C349 C351 1.387 . S
H350 C357 0.950 . S
C351 C349 1.387 . S
C351 C353 1.390 . S
C351 H355 0.950 . S
H352 C348 0.950 1_554 S
C353 C351 1.390 . S
C353 C354 1.387 . S
C353 H356 0.950 . S
C354 C353 1.387 . S
C354 C357 1.387 . S
H355 C351 0.950 . S
H356 C353 0.950 . S
C357 C348 1.390 . S
C357 H350 0.950 . S
C357 C354 1.387 . S
C358 C359 1.387 . S
C358 H362 0.950 . S
C358 C367 1.390 . S
C359 C358 1.387 . S
C359 C361 1.387 . S
H360 C367 0.950 . S
C361 C359 1.387 . S
C361 C363 1.390 . S
C361 H365 0.950 . S
H362 C358 0.950 . S
C363 C361 1.390 . S
C363 C364 1.387 . S
C363 H366 0.950 . S
C364 C363 1.387 . S
C364 C367 1.387 . S
H365 C361 0.950 . S
H366 C363 0.950 . S
C367 C358 1.390 . S
C367 H360 0.950 . S
C367 C364 1.387 . S
C368 C369 1.387 . S
C368 H372 0.950 . S
C368 C377 1.390 1_565 S
C369 C368 1.387 . S
C369 C371 1.387 . S
H370 C377 0.950 . S
C371 C369 1.387 . S
C371 C373 1.390 1_565 S
C371 H375 0.950 . S
H372 C368 0.950 . S
C373 C371 1.390 1_545 S
C373 C374 1.387 . S
C373 H376 0.950 . S
C374 C373 1.387 . S
C374 C377 1.387 . S
H375 C371 0.950 . S
H376 C373 0.950 . S
C377 C368 1.390 1_545 S
C377 H370 0.950 . S
C377 C374 1.387 . S
C378 C379 1.387 . S
C378 H382 0.950 . S
C378 C387 1.390 1_655 S
C379 C378 1.387 . S
C379 C381 1.387 . S
H380 C387 0.950 . S
C381 C379 1.387 . S
C381 C383 1.390 1_655 S
C381 H385 0.950 . S
H382 C378 0.950 . S
C383 C381 1.390 1_455 S
C383 C384 1.387 . S
C383 H386 0.950 . S
C384 C383 1.387 . S
C384 C387 1.387 . S
H385 C381 0.950 . S
H386 C383 0.950 . S
C387 C378 1.390 1_455 S
C387 H380 0.950 . S
C387 C384 1.387 . S
C388 C389 1.387 . S
C388 H392 0.950 . S
C388 C397 1.390 1_565 S
C389 C388 1.387 . S
C389 C391 1.387 . S
H390 C397 0.950 . S
C391 C389 1.387 . S
C391 C393 1.390 1_565 S
C391 H395 0.950 . S
H392 C388 0.950 . S
C393 C391 1.390 1_545 S
C393 C394 1.387 . S
C393 H396 0.950 . S
C394 C393 1.387 . S
C394 C397 1.387 . S
H395 C391 0.950 . S
H396 C393 0.950 . S
C397 C388 1.390 1_545 S
C397 H390 0.950 . S
C397 C394 1.387 . S
C398 C399 1.387 . S
C398 H402 0.950 . S
C398 C407 1.390 1_655 S
C399 C398 1.387 . S
C399 C401 1.387 . S
H400 C407 0.950 . S
C401 C399 1.387 . S
C401 C403 1.390 1_655 S
C401 H405 0.950 . S
H402 C398 0.950 . S
C403 C401 1.390 1_455 S
C403 C404 1.387 . S
C403 H406 0.950 . S
C404 C403 1.387 . S
C404 C407 1.387 . S
H405 C401 0.950 . S
H406 C403 0.950 . S
C407 C398 1.390 1_455 S
C407 H400 0.950 . S
C407 C404 1.387 . S
C408 C409 1.387 1_554 S
C408 H412 0.950 1_554 S
C408 C417 1.390 . S
C409 C408 1.387 1_556 S
C409 C411 1.387 1_556 S
H410 C417 0.950 . S
C411 C409 1.387 1_554 S
C411 C413 1.390 . S
C411 H415 0.950 1_554 S
H412 C408 0.950 1_556 S
C413 C411 1.390 . S
C413 C414 1.387 . S
C413 H416 0.950 . S
C414 C413 1.387 . S
C414 C417 1.387 . S
H415 C411 0.950 1_556 S
H416 C413 0.950 . S
C417 C408 1.390 . S
C417 H410 0.950 . S
C417 C414 1.387 . S
C418 C419 1.387 . S
C418 H422 0.950 . S
C418 C427 1.390 . S
C419 C418 1.387 . S
C419 C421 1.387 . S
H420 C427 0.950 . S
C421 C419 1.387 . S
C421 C423 1.390 . S
C421 H425 0.950 . S
H422 C418 0.950 . S
C423 C421 1.390 . S
C423 C424 1.387 . S
C423 H426 0.950 . S
C424 C423 1.387 . S
C424 C427 1.387 . S
H425 C421 0.950 . S
H426 C423 0.950 . S
C427 C418 1.390 . S
C427 H420 0.950 . S
C427 C424 1.387 . S
C428 C429 1.387 . S
C428 H432 0.950 . S
C428 C437 1.390 . S
C429 C428 1.387 . S
C429 C431 1.387 . S
H430 C437 0.950 . S
C431 C429 1.387 . S
C431 C433 1.390 . S
C431 H435 0.950 . S
H432 C428 0.950 . S
C433 C431 1.390 . S
C433 C434 1.387 . S
C433 H436 0.950 . S
C434 C433 1.387 . S
C434 C437 1.387 . S
H435 C431 0.950 . S
H436 C433 0.950 . S
C437 C428 1.390 . S
C437 H430 0.950 . S
C437 C434 1.387 . S
C438 C439 1.387 . S
C438 H442 0.950 . S
C438 C447 1.390 . S
C439 C438 1.387 . S
C439 C441 1.387 . S
H440 C447 0.950 . S
C441 C439 1.387 . S
C441 C443 1.390 . S
C441 H445 0.950 . S
H442 C438 0.950 . S
C443 C441 1.390 . S
C443 C444 1.387 . S
C443 H446 0.950 . S
C444 C443 1.387 . S
C444 C447 1.387 . S
H445 C441 0.950 . S
H446 C443 0.950 . S
C447 C438 1.390 . S
C447 H440 0.950 . S
C447 C444 1.387 . S
C289 C2 1.014 . S
C294 C218 1.014 . S
C299 C38 1.017 . S
C304 C254 1.017 . S
C309 C146 1.017 . S
C314 C74 1.017 . S
C319 C182 1.014 . S
C324 C110 1.014 . S
C329 C3 1.528 . S
C334 C183 1.528 . S
C339 C39 1.525 . S
C344 C219 1.525 . S
C349 C255 1.527 1_556 S
C354 C75 1.527 . S
C359 C111 1.525 . S
C364 C147 1.525 . S
C369 C148 1.479 . S
C374 C4 1.479 . S
C379 C40 1.479 . S
C384 C184 1.479 . S
C389 C76 1.479 . S
C394 C220 1.479 . S
C399 C256 1.479 . S
C404 C112 1.479 . S
C409 C230 1.381 . S
C414 C14 1.381 . S
C419 C266 1.384 . S
C424 C50 1.384 . S
C429 C86 1.384 . S
C434 C158 1.384 . S
C439 C122 1.384 . S
C444 C194 1.384 . S
