# Generated by pormake.
# Topology rac, (4)-cn, num edge types: 1
# Building blocks:
#     Node 0, Type 0, BuildingBlock: QUQFOY_clean_sbu_1, # of connection points: 4
#     Node 1, Type 0, BuildingBlock: QUQFOY_clean_sbu_1, # of connection points: 4
#     Node 2, Type 0, BuildingBlock: QUQFOY_clean_sbu_1, # of connection points: 4
#     Node 3, Type 0, BuildingBlock: QUQFOY_clean_sbu_1, # of connection points: 4
#     Node 4, Type 0, BuildingBlock: QUQFOY_clean_sbu_1, # of connection points: 4
#     Node 5, Type 0, BuildingBlock: QUQFOY_clean_sbu_1, # of connection points: 4
#     Node 6, Type 0, BuildingBlock: QUQFOY_clean_sbu_1, # of connection points: 4
#     Node 7, Type 0, BuildingBlock: QUQFOY_clean_sbu_1, # of connection points: 4
#     Edge 8, Type (0, 0), BuildingBlock: UVAHIK_clean_linker_0, # of connection points: 2
#     Edge 9, Type (0, 0), BuildingBlock: UVAHIK_clean_linker_0, # of connection points: 2
#     Edge 10, Type (0, 0), BuildingBlock: UVAHIK_clean_linker_0, # of connection points: 2
#     Edge 11, Type (0, 0), BuildingBlock: UVAHIK_clean_linker_0, # of connection points: 2
#     Edge 12, Type (0, 0), BuildingBlock: UVAHIK_clean_linker_0, # of connection points: 2
#     Edge 13, Type (0, 0), BuildingBlock: UVAHIK_clean_linker_0, # of connection points: 2
#     Edge 14, Type (0, 0), BuildingBlock: UVAHIK_clean_linker_0, # of connection points: 2
#     Edge 15, Type (0, 0), BuildingBlock: UVAHIK_clean_linker_0, # of connection points: 2
#     Edge 16, Type (0, 0), BuildingBlock: UVAHIK_clean_linker_0, # of connection points: 2
#     Edge 17, Type (0, 0), BuildingBlock: UVAHIK_clean_linker_0, # of connection points: 2
#     Edge 18, Type (0, 0), BuildingBlock: UVAHIK_clean_linker_0, # of connection points: 2
#     Edge 19, Type (0, 0), BuildingBlock: UVAHIK_clean_linker_0, # of connection points: 2
#     Edge 20, Type (0, 0), BuildingBlock: UVAHIK_clean_linker_0, # of connection points: 2
#     Edge 21, Type (0, 0), BuildingBlock: UVAHIK_clean_linker_0, # of connection points: 2
#     Edge 22, Type (0, 0), BuildingBlock: UVAHIK_clean_linker_0, # of connection points: 2
#     Edge 23, Type (0, 0), BuildingBlock: UVAHIK_clean_linker_0, # of connection points: 2
# Relax obj value: 0.261
# Max RMSD: 0.148
# Mean RMSD: 0.148
data_MOF--net-rac--node1-QUQFOY_clean_sbu_1--edge1-UVAHIK_clean_linker_0
_symmetry_space_group_name_H-M    P1
_symmetry_Int_Tables_number       1
_symmetry_cell_setting            triclinic
loop_
_symmetry_equiv_pos_as_xyz
'x, y, z'
_cell_length_a     53.872216
_cell_length_b     25.953349
_cell_length_c     59.158848
_cell_angle_alpha  90.05203
_cell_angle_beta   90.006482
_cell_angle_gamma 90.006042
loop_
_atom_site_label
_atom_site_type_symbol
_atom_site_fract_x
_atom_site_fract_y
_atom_site_fract_z
_atom_type_partial_charge
O0 O 0.36389 0.30906 0.0552 0.0
Cd1 Cd 0.38998 0.25328 0.0506 0.0
Cd2 Cd 0.38291 0.24081 0.09754 0.0
O3 O 0.3659 0.31086 0.09241 0.0
O4 O 0.40875 0.27685 0.02339 0.0
O5 O 0.42479 0.27582 0.05787 0.0
C6 C 0.42661 0.28952 0.03689 0.0
C7 C 0.39533 0.23015 0.1356 0.0
C8 C 0.35801 0.32948 0.07392 0.0
C9 C 0.36329 0.15885 0.06373 0.0
O10 O 0.36496 0.17778 0.08354 0.0
O11 O 0.37456 0.18016 0.04725 0.0
O12 O 0.37248 0.22998 0.12953 0.0
O13 O 0.41177 0.23555 0.11994 0.0
O14 O 0.14686 0.69822 0.0532 0.0
Cd15 Cd 0.11961 0.75184 0.04934 0.0
Cd16 Cd 0.12665 0.76454 0.0964 0.0
O17 O 0.14529 0.69668 0.0904 0.0
O18 O 0.10076 0.72792 0.02221 0.0
O19 O 0.08531 0.7266 0.05691 0.0
C20 C 0.08331 0.71367 0.03584 0.0
C21 C 0.1147 0.76933 0.13482 0.0
C22 C 0.15341 0.67865 0.07188 0.0
C23 C 0.14412 0.84899 0.06311 0.0
O24 O 0.14286 0.83015 0.08295 0.0
O25 O 0.13352 0.82632 0.04658 0.0
O26 O 0.13739 0.77279 0.12845 0.0
O27 O 0.09808 0.76525 0.11923 0.0
O28 O 0.36261 0.2019 0.45664 0.0
Cd29 Cd 0.38997 0.25564 0.45931 0.0
Cd30 Cd 0.38256 0.26517 0.4126 0.0
O31 O 0.36433 0.19726 0.4195 0.0
O32 O 0.41009 0.23287 0.48582 0.0
O33 O 0.4238 0.22997 0.45051 0.0
C34 C 0.4268 0.21786 0.47157 0.0
C35 C 0.39458 0.26773 0.37418 0.0
C36 C 0.35619 0.18066 0.43826 0.0
C37 C 0.36516 0.3516 0.44491 0.0
O38 O 0.36609 0.33133 0.42531 0.0
O39 O 0.37619 0.33028 0.46153 0.0
O40 O 0.37183 0.27088 0.38045 0.0
O41 O 0.41118 0.26522 0.38985 0.0
O42 O 0.14538 0.81087 0.45501 0.0
Cd43 Cd 0.11916 0.75518 0.45906 0.0
Cd44 Cd 0.12641 0.74433 0.41204 0.0
O45 O 0.14348 0.8141 0.41782 0.0
O46 O 0.10029 0.77802 0.48634 0.0
O47 O 0.08444 0.77818 0.45178 0.0
C48 C 0.08253 0.79125 0.47285 0.0
C49 C 0.11436 0.73492 0.3738 0.0
C50 C 0.15137 0.83193 0.43648 0.0
C51 C 0.14574 0.66109 0.44531 0.0
O52 O 0.14419 0.68072 0.42565 0.0
O53 O 0.13444 0.68188 0.46192 0.0
O54 O 0.13716 0.7347 0.38006 0.0
O55 O 0.09777 0.73972 0.38936 0.0
O56 O 0.64777 0.69548 0.95286 0.0
Cd57 Cd 0.62114 0.75003 0.95776 0.0
Cd58 Cd 0.62663 0.76378 0.91063 0.0
O59 O 0.64406 0.6942 0.91578 0.0
O60 O 0.60252 0.72569 0.98492 0.0
O61 O 0.58658 0.72621 0.95039 0.0
C62 C 0.5848 0.71246 0.97137 0.0
C63 C 0.61402 0.77025 0.87246 0.0
C64 C 0.65288 0.67546 0.93388 0.0
C65 C 0.64605 0.84648 0.94404 0.0
O66 O 0.64411 0.828 0.92416 0.0
O67 O 0.63561 0.82399 0.96068 0.0
O68 O 0.63688 0.77221 0.87848 0.0
O69 O 0.59765 0.76694 0.88829 0.0
O70 O 0.86357 0.30626 0.94655 0.0
Cd71 Cd 0.89034 0.25248 0.95255 0.0
Cd72 Cd 0.88377 0.23405 0.90657 0.0
O73 O 0.86251 0.29957 0.90941 0.0
O74 O 0.90768 0.2792 0.98005 0.0
O75 O 0.92527 0.27606 0.94627 0.0
C76 C 0.92608 0.29129 0.9671 0.0
C77 C 0.90236 0.22523 0.87071 0.0
C78 C 0.85543 0.32121 0.92755 0.0
C79 C 0.86577 0.15358 0.94113 0.0
O80 O 0.86792 0.16916 0.92082 0.0
O81 O 0.87566 0.179 0.95725 0.0
O82 O 0.87908 0.21747 0.87387 0.0
O83 O 0.91567 0.23689 0.88811 0.0
O84 O 0.64715 0.81045 0.55525 0.0
Cd85 Cd 0.62074 0.75575 0.54961 0.0
Cd86 Cd 0.62627 0.74041 0.59665 0.0
O87 O 0.64397 0.81 0.5924 0.0
O88 O 0.60236 0.78105 0.52248 0.0
O89 O 0.586 0.77868 0.55683 0.0
C90 C 0.58442 0.79331 0.53595 0.0
C91 C 0.61311 0.72943 0.63446 0.0
C92 C 0.65255 0.82955 0.57436 0.0
C93 C 0.64578 0.65911 0.56251 0.0
O94 O 0.64371 0.67692 0.58248 0.0
O95 O 0.63544 0.68215 0.54597 0.0
O96 O 0.63605 0.72803 0.62868 0.0
O97 O 0.59699 0.73603 0.61862 0.0
O98 O 0.86303 0.19946 0.56119 0.0
Cd99 Cd 0.8899 0.25314 0.55537 0.0
Cd100 Cd 0.88332 0.27129 0.60127 0.0
O101 O 0.86212 0.20571 0.59835 0.0
O102 O 0.90741 0.22645 0.52797 0.0
O103 O 0.92474 0.22938 0.56187 0.0
C104 C 0.92569 0.21422 0.54104 0.0
C105 C 0.90199 0.27977 0.63711 0.0
C106 C 0.85497 0.18428 0.58018 0.0
C107 C 0.86537 0.35199 0.56679 0.0
O108 O 0.86743 0.33624 0.58708 0.0
O109 O 0.87537 0.32671 0.55068 0.0
O110 O 0.87869 0.28758 0.634 0.0
O111 O 0.91526 0.26831 0.61967 0.0
C112 C 0.33463 0.10807 0.03813 0.0
C113 C 0.3443 0.11796 0.05984 0.0
C114 C 0.31273 0.0791 0.03548 0.0
C115 C 0.25561 0.0534 0.06663 0.0
H116 H 0.24415 0.93843 0.02613 0.0
C117 C 0.17214 0.91826 0.0778 0.0
C118 C 0.1619 0.89209 0.05918 0.0
C119 C 0.19282 0.95025 0.07525 0.0
C120 C 0.24681 0.97118 0.03722 0.0
H121 H 0.3395 0.10125 0.09554 0.0
H122 H 0.30163 0.0515 0.09085 0.0
H123 H 0.2846 0.98165 0.02631 0.0
H124 H 0.1647 0.88182 0.0229 0.0
H125 H 0.20047 0.93905 0.01829 0.0
H126 H 0.21805 0.04402 0.07744 0.0
C127 C 0.3107 0.0667 0.07593 0.0
C128 C 0.27008 0.99569 0.03738 0.0
C129 C 0.33257 0.095 0.07857 0.0
C130 C 0.17199 0.9015 0.03762 0.0
C131 C 0.19277 0.93376 0.03504 0.0
C132 C 0.23234 0.02954 0.06625 0.0
C133 C 0.30003 0.05994 0.05448 0.0
C134 C 0.27491 0.0362 0.05253 0.0
C135 C 0.20391 0.9575 0.05394 0.0
C136 C 0.22773 0.98713 0.05201 0.0
H137 H 0.34306 0.12527 0.02334 0.0
H138 H 0.30497 0.07426 0.01872 0.0
H139 H 0.25858 0.0853 0.07814 0.0
H140 H 0.16498 0.91198 0.09469 0.0
H141 H 0.20085 0.96709 0.09031 0.0
C142 C 0.17612 0.59699 0.43009 0.0
C143 C 0.16467 0.62 0.44896 0.0
C144 C 0.198 0.56861 0.43246 0.0
C145 C 0.23929 0.49845 0.47088 0.0
H146 H 0.2905 0.5449 0.42957 0.0
C147 C 0.33762 0.40539 0.47019 0.0
C148 C 0.34731 0.39468 0.44859 0.0
C149 C 0.31679 0.43754 0.47272 0.0
C150 C 0.27644 0.53095 0.44111 0.0
H151 H 0.16641 0.62736 0.48545 0.0
H152 H 0.20453 0.57633 0.48961 0.0
H153 H 0.24994 0.58602 0.42915 0.0
H154 H 0.34349 0.41213 0.41291 0.0
H155 H 0.30754 0.46712 0.41721 0.0
H156 H 0.26552 0.44196 0.48227 0.0
C157 C 0.19654 0.5811 0.47294 0.0
C158 C 0.25315 0.5547 0.44089 0.0
C159 C 0.17462 0.61009 0.47055 0.0
C160 C 0.33663 0.41945 0.42983 0.0
C161 C 0.31592 0.45135 0.43233 0.0
C162 C 0.2626 0.47409 0.47092 0.0
C163 C 0.20898 0.5619 0.45378 0.0
C164 C 0.23413 0.53817 0.45545 0.0
C165 C 0.30522 0.45988 0.45373 0.0
C166 C 0.28138 0.48937 0.4557 0.0
H167 H 0.16896 0.60326 0.4132 0.0
H168 H 0.20683 0.55334 0.41743 0.0
H169 H 0.22501 0.48492 0.48232 0.0
H170 H 0.34525 0.38679 0.48502 0.0
H171 H 0.30939 0.44384 0.48951 0.0
C172 C 0.67468 0.91424 0.92903 0.0
C173 C 0.66423 0.88896 0.94778 0.0
C174 C 0.69553 0.94578 0.93145 0.0
C175 C 0.74942 0.96743 0.96966 0.0
H176 H 0.7621 0.07877 0.92759 0.0
C177 C 0.83709 0.10524 0.96753 0.0
C178 C 0.84727 0.11215 0.94579 0.0
C179 C 0.81526 0.07624 0.97053 0.0
C180 C 0.75885 0.04767 0.93944 0.0
H181 H 0.66688 0.87985 0.98412 0.0
H182 H 0.70294 0.93643 0.98849 0.0
H183 H 0.72134 0.0385 0.92848 0.0
H184 H 0.8435 0.08993 0.91055 0.0
H185 H 0.80567 0.04029 0.91583 0.0
H186 H 0.78716 0.97792 0.98076 0.0
C187 C 0.69528 0.93071 0.97175 0.0
C188 C 0.73546 0.02434 0.93991 0.0
C189 C 0.67434 0.89882 0.9693 0.0
C190 C 0.83618 0.086 0.92752 0.0
C191 C 0.81435 0.05774 0.93048 0.0
C192 C 0.7728 0.9915 0.96942 0.0
C193 C 0.70659 0.95357 0.95275 0.0
C194 C 0.73053 0.98285 0.95456 0.0
C195 C 0.80313 0.05411 0.95183 0.0
C196 C 0.77793 0.03096 0.95386 0.0
H197 H 0.66751 0.90763 0.91217 0.0
H198 H 0.70368 0.96187 0.9163 0.0
H199 H 0.74652 0.9354 0.98107 0.0
H200 H 0.84501 0.12492 0.98198 0.0
H201 H 0.80706 0.07384 0.98721 0.0
C202 C 0.674 0.59049 0.57735 0.0
C203 C 0.66397 0.61671 0.55866 0.0
C204 C 0.69487 0.559 0.57501 0.0
C205 C 0.74952 0.53894 0.53756 0.0
H206 H 0.76131 0.42589 0.57897 0.0
C207 C 0.83712 0.40095 0.54023 0.0
C208 C 0.84689 0.39342 0.56208 0.0
C209 C 0.81534 0.42999 0.53704 0.0
C210 C 0.75831 0.45746 0.56731 0.0
H211 H 0.66737 0.62755 0.52247 0.0
H212 H 0.70346 0.571 0.51821 0.0
H213 H 0.72058 0.46617 0.57766 0.0
H214 H 0.84243 0.41457 0.59738 0.0
H215 H 0.80468 0.46427 0.59178 0.0
H216 H 0.78749 0.52888 0.52705 0.0
C217 C 0.69546 0.57596 0.53485 0.0
C218 C 0.73494 0.4808 0.56659 0.0
C219 C 0.6745 0.60783 0.53723 0.0
C220 C 0.83544 0.41898 0.58032 0.0
C221 C 0.81365 0.44728 0.57718 0.0
C222 C 0.77289 0.51485 0.53803 0.0
C223 C 0.70636 0.55216 0.55384 0.0
C224 C 0.73032 0.5229 0.5522 0.0
C225 C 0.80285 0.45155 0.55567 0.0
C226 C 0.77769 0.47476 0.55336 0.0
H227 H 0.66649 0.59633 0.59415 0.0
H228 H 0.70269 0.54219 0.59016 0.0
H229 H 0.74687 0.57143 0.52636 0.0
H230 H 0.84532 0.38174 0.52579 0.0
H231 H 0.80746 0.4329 0.52025 0.0
C232 C 0.42571 0.23746 0.16799 0.0
C233 C 0.40181 0.22583 0.15987 0.0
C234 C 0.43063 0.23688 0.19132 0.0
C235 C 0.40504 0.18816 0.24565 0.0
H236 H 0.43668 0.30719 0.27296 0.0
C237 C 0.38134 0.25614 0.33419 0.0
C238 C 0.40068 0.26361 0.34981 0.0
C239 C 0.38642 0.24825 0.31138 0.0
C240 C 0.42823 0.2733 0.26553 0.0
H241 H 0.36459 0.20325 0.1698 0.0
H242 H 0.37306 0.20237 0.20996 0.0
H243 H 0.4369 0.29711 0.23169 0.0
H244 H 0.4406 0.27026 0.35351 0.0
H245 H 0.44947 0.25767 0.313 0.0
H246 H 0.39513 0.16588 0.27928 0.0
C247 C 0.38814 0.21148 0.19853 0.0
C248 C 0.42838 0.26743 0.24194 0.0
C249 C 0.38322 0.21238 0.17543 0.0
C250 C 0.42531 0.26454 0.34188 0.0
C251 C 0.4304 0.25739 0.31878 0.0
C252 C 0.40472 0.19425 0.26907 0.0
C253 C 0.41182 0.22403 0.20684 0.0
C254 C 0.41597 0.22571 0.23172 0.0
C255 C 0.41095 0.24822 0.30345 0.0
C256 C 0.41557 0.2377 0.27918 0.0
H257 H 0.44039 0.24814 0.1564 0.0
H258 H 0.44908 0.24661 0.19721 0.0
H259 H 0.39582 0.15496 0.23837 0.0
H260 H 0.36214 0.2552 0.33963 0.0
H261 H 0.37107 0.24196 0.29985 0.0
C262 C 0.0841 0.74133 0.34126 0.0
C263 C 0.10812 0.73113 0.34945 0.0
C264 C 0.0793 0.74076 0.31791 0.0
C265 C 0.10584 0.69376 0.26365 0.0
H266 H 0.07213 0.80999 0.23617 0.0
C267 C 0.12819 0.76182 0.17492 0.0
C268 C 0.1087 0.76647 0.15925 0.0
C269 C 0.1233 0.7546 0.19781 0.0
C270 C 0.08117 0.77686 0.24366 0.0
H271 H 0.14574 0.71137 0.33957 0.0
H272 H 0.13748 0.71057 0.29939 0.0
H273 H 0.07211 0.80041 0.27747 0.0
H274 H 0.06868 0.76903 0.15554 0.0
H275 H 0.06011 0.7576 0.19617 0.0
H276 H 0.11611 0.67184 0.23006 0.0
C277 C 0.12221 0.71848 0.31078 0.0
C278 C 0.08114 0.77128 0.26726 0.0
C279 C 0.12701 0.71934 0.33391 0.0
C280 C 0.08408 0.7655 0.16721 0.0
C281 C 0.07916 0.75901 0.19037 0.0
C282 C 0.10605 0.69959 0.24023 0.0
C283 C 0.09837 0.72938 0.30242 0.0
C284 C 0.09426 0.73062 0.27753 0.0
C285 C 0.0988 0.75245 0.20575 0.0
C286 C 0.09443 0.74205 0.23005 0.0
H287 H 0.06919 0.75072 0.35283 0.0
H288 H 0.06072 0.74922 0.31198 0.0
H289 H 0.11561 0.66134 0.27097 0.0
H290 H 0.14739 0.76245 0.16948 0.0
H291 H 0.13877 0.75033 0.20937 0.0
C292 C 0.58277 0.76732 0.84056 0.0
C293 C 0.60755 0.76781 0.84812 0.0
C294 C 0.57737 0.76055 0.8175 0.0
C295 C 0.60212 0.6975 0.768 0.0
H296 H 0.5715 0.80072 0.72973 0.0
C297 C 0.62443 0.71095 0.67441 0.0
C298 C 0.60625 0.72548 0.65865 0.0
C299 C 0.61927 0.71087 0.69747 0.0
C300 C 0.57954 0.77093 0.74023 0.0
H301 H 0.64601 0.76287 0.83728 0.0
H302 H 0.63654 0.75016 0.79756 0.0
H303 H 0.5717 0.81238 0.77094 0.0
H304 H 0.5681 0.75047 0.65476 0.0
H305 H 0.55896 0.75029 0.69549 0.0
H306 H 0.61057 0.65646 0.73765 0.0
C307 C 0.62133 0.7551 0.80936 0.0
C308 C 0.57968 0.77772 0.76377 0.0
C309 C 0.62671 0.76262 0.83214 0.0
C310 C 0.58247 0.7389 0.66651 0.0
C311 C 0.5773 0.73912 0.6898 0.0
C312 C 0.60177 0.69046 0.74463 0.0
C313 C 0.59668 0.75325 0.80184 0.0
C314 C 0.59181 0.74193 0.77772 0.0
C315 C 0.59574 0.72532 0.70554 0.0
C316 C 0.59143 0.7281 0.73038 0.0
H317 H 0.56761 0.77127 0.85246 0.0
H318 H 0.5582 0.75936 0.812 0.0
H319 H 0.61135 0.66911 0.77847 0.0
H320 H 0.64296 0.70045 0.66899 0.0
H321 H 0.63409 0.70098 0.70906 0.0
C322 C 0.93275 0.25021 0.66627 0.0
C323 C 0.9123 0.2809 0.66027 0.0
C324 C 0.93972 0.24525 0.68902 0.0
C325 C 0.9323 0.30285 0.74593 0.0
H326 H 0.93172 0.1619 0.76764 0.0
C327 C 0.9331 0.2544 0.84145 0.0
C328 C 0.91263 0.22384 0.84753 0.0
C329 C 0.94001 0.25917 0.81869 0.0
C330 C 0.93227 0.20144 0.76181 0.0
H331 H 0.8841 0.33284 0.67308 0.0
H332 H 0.89657 0.32518 0.7125 0.0
H333 H 0.93161 0.17876 0.72697 0.0
H334 H 0.88437 0.17185 0.83486 0.0
H335 H 0.89674 0.17919 0.7954 0.0
H336 H 0.93185 0.32554 0.78077 0.0
C337 C 0.90715 0.30467 0.69979 0.0
C338 C 0.93238 0.21109 0.73854 0.0
C339 C 0.89991 0.30883 0.67721 0.0
C340 C 0.9002 0.19578 0.83067 0.0
C341 C 0.90737 0.19975 0.80807 0.0
C342 C 0.93252 0.29319 0.7692 0.0
C343 C 0.92669 0.2718 0.70603 0.0
C344 C 0.93153 0.2619 0.73037 0.0
C345 C 0.92691 0.23255 0.80173 0.0
C346 C 0.93164 0.24239 0.77737 0.0
H347 H 0.94253 0.22802 0.65357 0.0
H348 H 0.95489 0.21973 0.69337 0.0
H349 H 0.93177 0.34239 0.7401 0.0
H350 H 0.94293 0.27667 0.8541 0.0
H351 H 0.95519 0.28463 0.81426 0.0
C352 C 0.44694 0.34283 0.0067 0.0
C353 C 0.44645 0.32543 0.02922 0.0
C354 C 0.46236 0.38374 1.00027 0.0
C355 C 0.51633 0.4637 0.01844 0.0
H356 H 0.4868 0.5657 0.97881 0.0
C357 C 0.5647 0.65856 1.00151 0.0
C358 C 0.56513 0.6761 0.97901 0.0
C359 C 0.54937 0.61748 0.0079 0.0
C360 C 0.49546 0.53743 0.98972 0.0
H361 H 0.46278 0.33616 0.06238 0.0
H362 H 0.48966 0.40735 0.05121 0.0
H363 H 0.46347 0.4885 0.98875 0.0
H364 H 0.54881 0.66535 0.94584 0.0
H365 H 0.52209 0.59386 0.95697 0.0
H366 H 0.54831 0.51264 0.01941 0.0
C367 C 0.4782 0.38923 0.03843 0.0
C368 C 0.48208 0.49295 0.99538 0.0
C369 C 0.46276 0.34825 0.04487 0.0
C370 C 0.54887 0.65316 0.96334 0.0
C371 C 0.53352 0.61201 0.96975 0.0
C372 C 0.52971 0.50819 0.01277 0.0
C373 C 0.47773 0.40846 0.01618 0.0
C374 C 0.49232 0.45538 0.00981 0.0
C375 C 0.53403 0.59272 0.99199 0.0
C376 C 0.51946 0.54576 0.99834 0.0
H377 H 0.43468 0.32619 0.99415 0.0
H378 H 0.46188 0.39663 0.98287 0.0
H379 H 0.52498 0.43544 0.02934 0.0
H380 H 0.57693 0.67528 0.01406 0.0
H381 H 0.54988 0.60453 0.02529 0.0
C382 C 0.06339 0.6598 0.00556 0.0
C383 C 0.06368 0.6773 0.02808 0.0
C384 C 0.048 0.61891 0.999 0.0
C385 C 0.01534 0.5057 0.02317 0.0
H386 H 0.98499 0.49823 0.96385 0.0
C387 C 0.94526 0.34583 0.99756 0.0
C388 C 0.94555 0.3277 0.97513 0.0
C389 C 0.9606 0.38668 0.00426 0.0
C390 C 0.99362 0.4993 0.98037 0.0
H391 H 0.04701 0.66683 0.06111 0.0
H392 H 0.01978 0.59631 0.04958 0.0
H393 H 0.00782 0.57536 0.97485 0.0
H394 H 0.96317 0.33706 0.94245 0.0
H395 H 0.99018 0.40775 0.95421 0.0
H396 H 1.00104 0.42968 0.0287 0.0
C397 C 0.03186 0.61351 0.03705 0.0
C398 C 0.00668 0.54373 0.98673 0.0
C399 C 0.04728 0.65446 0.04362 0.0
C400 C 0.96245 0.34991 0.95986 0.0
C401 C 0.97775 0.39092 0.96655 0.0
C402 C 1.00223 0.46131 0.01682 0.0
C403 C 0.03244 0.59433 0.01477 0.0
C404 C 0.01776 0.54761 0.00821 0.0
C405 C 0.97663 0.41067 0.98871 0.0
C406 C 0.99121 0.45742 0.99532 0.0
H407 H 0.07585 0.67621 0.99313 0.0
H408 H 0.04916 0.60514 0.98175 0.0
H409 H 0.02399 0.5067 0.03968 0.0
H410 H 0.93242 0.32987 0.00978 0.0
H411 H 0.95907 0.40092 0.02141 0.0
C412 C 0.5485 0.8524 0.54418 0.0
C413 C 0.56468 0.82959 0.52841 0.0
C414 C 0.53314 0.89359 0.53789 0.0
C415 C 0.50699 0.9638 0.48836 0.0
H416 H 0.50421 0.07885 0.53014 0.0
C417 C 0.46214 0.15771 0.46265 0.0
C418 C 0.44662 0.18136 0.47873 0.0
C419 C 0.47758 0.11649 0.46877 0.0
C420 C 0.50455 0.04696 0.51833 0.0
H421 H 0.57637 0.83078 0.49333 0.0
H422 H 0.54957 0.90213 0.48239 0.0
H423 H 0.52691 1.00118 0.54052 0.0
H424 H 0.43612 0.18145 0.51412 0.0
H425 H 0.46285 0.10991 0.52473 0.0
H426 H 0.48454 0.00944 0.46621 0.0
C427 C 0.54868 0.88824 0.49963 0.0
C428 C 0.51754 0.00223 0.52433 0.0
C429 C 0.56411 0.84722 0.50593 0.0
C430 C 0.44788 0.16442 0.50129 0.0
C431 C 0.4633 0.12325 0.5074 0.0
C432 C 0.49394 0.00849 0.48238 0.0
C433 C 0.53346 0.91291 0.51566 0.0
C434 C 0.51894 0.95997 0.50944 0.0
C435 C 0.47792 0.09783 0.49112 0.0
C436 C 0.49253 0.05077 0.49727 0.0
H437 H 0.54846 0.83996 0.56165 0.0
H438 H 0.52132 0.91096 0.5506 0.0
H439 H 0.5074 0.9319 0.47656 0.0
H440 H 0.46166 0.16964 0.44512 0.0
H441 H 0.48894 0.09865 0.45585 0.0
C442 C 0.94495 0.15953 0.51069 0.0
C443 C 0.94514 0.17767 0.53312 0.0
C444 C 0.96023 0.11851 0.50409 0.0
C445 C 0.99281 0.00556 0.52819 0.0
H446 H 0.02333 0.99759 0.46897 0.0
C447 C 0.06245 0.84465 0.50318 0.0
C448 C 0.06273 0.82711 0.48067 0.0
C449 C 0.04703 0.88549 0.50973 0.0
C450 C 0.01463 0.99875 0.48546 0.0
H451 H 0.96252 0.16814 0.56591 0.0
H452 H 0.98943 0.09716 0.5543 0.0
H453 H 1.0006 0.07494 0.47984 0.0
H454 H 0.04596 0.83736 0.44766 0.0
H455 H 0.01872 0.90783 0.45917 0.0
H456 H 0.00679 0.92936 0.53381 0.0
C457 C 0.97712 0.11412 0.5419 0.0
C458 C 1.00165 0.04333 0.49174 0.0
C459 C 0.96188 0.1553 0.54849 0.0
C460 C 0.04624 0.84975 0.46514 0.0
C461 C 0.03082 0.89067 0.47169 0.0
C462 C 0.00577 0.96096 0.5219 0.0
C463 C 0.97609 0.09435 0.51973 0.0
C464 C 0.99057 0.04742 0.51321 0.0
C465 C 0.03145 0.91 0.49395 0.0
C466 C 0.01689 0.95687 0.50045 0.0
H467 H 0.93224 0.17562 0.4984 0.0
H468 H 0.95876 0.10427 0.48693 0.0
H469 H 0.98414 0.00679 0.54469 0.0
H470 H 0.07496 0.82837 0.5156 0.0
H471 H 0.04822 0.89936 0.52696 0.0
C472 C 0.18282 0.61975 0.05196 0.0
C473 C 0.17237 0.63777 0.07224 0.0
C474 C 0.2029 0.58594 0.05239 0.0
C475 C 0.23742 0.49589 0.08863 0.0
H476 H 0.29236 0.5294 0.04884 0.0
C477 C 0.33074 0.39094 0.09488 0.0
C478 C 0.34009 0.37232 0.07426 0.0
C479 C 0.3114 0.42662 0.0951 0.0
C480 C 0.2771 0.51948 0.05994 0.0
H481 H 0.17397 0.63251 0.10885 0.0
H482 H 0.20912 0.57371 0.10954 0.0
H483 H 0.25475 0.58167 0.04788 0.0
H484 H 0.33751 0.37867 0.03773 0.0
H485 H 0.30369 0.44067 0.03818 0.0
H486 H 0.25974 0.43358 0.10064 0.0
C487 C 0.20172 0.5856 0.09334 0.0
C488 C 0.25557 0.54917 0.05933 0.0
C489 C 0.18164 0.61941 0.09293 0.0
C490 C 0.33063 0.39209 0.0539 0.0
C491 C 0.31134 0.4278 0.05414 0.0
C492 C 0.25896 0.46621 0.08926 0.0
C493 C 0.21287 0.56949 0.07309 0.0
C494 C 0.2355 0.53749 0.07359 0.0
C495 C 0.30116 0.44441 0.07473 0.0
C496 C 0.27895 0.47765 0.07487 0.0
H497 H 0.17598 0.63289 0.03574 0.0
H498 H 0.21088 0.57328 0.03652 0.0
H499 H 0.22212 0.48578 0.09965 0.0
H500 H 0.33774 0.3767 0.11086 0.0
H501 H 0.30412 0.43952 0.11121 0.0
C502 C 0.3283 0.1193 0.41802 0.0
C503 C 0.33743 0.13938 0.43846 0.0
C504 C 0.30842 0.08499 0.41803 0.0
C505 C 0.25471 0.04961 0.45243 0.0
H506 H 0.25073 0.93289 0.41162 0.0
C507 C 0.17875 0.89368 0.45707 0.0
C508 C 0.16949 0.87443 0.43652 0.0
C509 C 0.19829 0.92885 0.45719 0.0
C510 C 0.25148 0.96579 0.42289 0.0
H511 H 0.33381 0.13709 0.47501 0.0
H512 H 0.29925 0.0765 0.47497 0.0
H513 H 0.28843 0.98481 0.41267 0.0
H514 H 0.17241 0.87921 0.39997 0.0
H515 H 0.20647 0.94101 0.40025 0.0
H516 H 0.21778 0.03035 0.46271 0.0
C517 C 0.30718 0.08821 0.45896 0.0
C518 C 0.27306 0.99532 0.42355 0.0
C519 C 0.32706 0.12259 0.45896 0.0
C520 C 0.17926 0.89306 0.41609 0.0
C521 C 0.19884 0.92814 0.41623 0.0
C522 C 0.23314 0.02 0.4518 0.0
C523 C 0.29735 0.07001 0.43847 0.0
C524 C 0.27486 0.03751 0.43831 0.0
C525 C 0.20891 0.94533 0.43678 0.0
C526 C 0.23134 0.9779 0.43699 0.0
H527 H 0.33591 0.13143 0.40194 0.0
H528 H 0.30111 0.07183 0.40197 0.0
H529 H 0.25544 0.08252 0.46368 0.0
H530 H 0.17154 0.88024 0.4731 0.0
H531 H 0.20579 0.94136 0.47328 0.0
C532 C 0.68242 0.61439 0.95226 0.0
C533 C 0.6707 0.63251 0.9326 0.0
C534 C 0.70123 0.57771 0.95078 0.0
C535 C 0.74826 0.53097 0.91127 0.0
H536 H 0.75616 0.42172 0.95536 0.0
C537 C 0.82448 0.37425 0.90631 0.0
C538 C 0.83607 0.36125 0.92682 0.0
C539 C 0.80422 0.40774 0.90613 0.0
C540 C 0.75426 0.45237 0.94306 0.0
H541 H 0.66861 0.62454 0.89609 0.0
H542 H 0.70131 0.55999 0.89362 0.0
H543 H 0.71928 0.47608 0.95657 0.0
H544 H 0.83637 0.37523 0.96304 0.0
H545 H 0.80121 0.43392 0.9626 0.0
H546 H 0.78336 0.50732 0.89785 0.0
C547 C 0.69623 0.57491 0.91009 0.0
C548 C 0.73317 0.48333 0.94372 0.0
C549 C 0.67742 0.61162 0.91154 0.0
C550 C 0.82771 0.38409 0.94697 0.0
C551 C 0.80749 0.41742 0.94678 0.0
C552 C 0.76935 0.49989 0.91058 0.0
C553 C 0.70863 0.5584 0.92965 0.0
C554 C 0.73009 0.52325 0.92799 0.0
C555 C 0.79524 0.42866 0.92644 0.0
C556 C 0.77265 0.46074 0.92663 0.0
H557 H 0.67765 0.62968 0.96873 0.0
H558 H 0.71063 0.56599 0.96613 0.0
H559 H 0.74652 0.56198 0.89914 0.0
H560 H 0.83051 0.35732 0.89051 0.0
H561 H 0.79504 0.41577 0.89023 0.0
C562 C 0.67752 0.89245 0.59685 0.0
C563 C 0.6704 0.87243 0.57574 0.0
C564 C 0.69633 0.92917 0.5983 0.0
C565 C 0.73257 0.02215 0.5647 0.0
H566 H 0.78361 0.99685 0.60965 0.0
C567 C 0.827 0.1219 0.56073 0.0
C568 C 0.83563 0.14419 0.58091 0.0
C569 C 0.80681 0.08844 0.56098 0.0
C570 C 0.76937 0.00463 0.59718 0.0
H571 H 0.67665 0.87679 0.53953 0.0
H572 H 0.70964 0.94039 0.54211 0.0
H573 H 0.7468 0.9421 0.60859 0.0
H574 H 0.83061 0.147 0.61731 0.0
H575 H 0.79523 0.08833 0.61768 0.0
H576 H 0.75532 0.08418 0.55309 0.0
C577 C 0.70055 0.92804 0.55751 0.0
C578 C 0.74828 0.97351 0.59662 0.0
C579 C 0.68173 0.89139 0.55605 0.0
C580 C 0.82436 0.13052 0.60147 0.0
C581 C 0.80416 0.09689 0.60172 0.0
C582 C 0.75367 0.05313 0.56523 0.0
C583 C 0.70834 0.94653 0.57867 0.0
C584 C 0.7298 0.98172 0.58024 0.0
C585 C 0.7949 0.07651 0.58141 0.0
C586 C 0.77235 0.0443 0.58132 0.0
H587 H 0.66901 0.87886 0.61233 0.0
H588 H 0.70173 0.94344 0.61479 0.0
H589 H 0.71844 0.02979 0.55211 0.0
H590 H 0.8354 0.13129 0.54461 0.0
H591 H 0.80031 0.07238 0.54514 0.0
loop_
_geom_bond_atom_site_label_1
_geom_bond_atom_site_label_2
_geom_bond_distance
_geom_bond_site_symmetry_2
_ccdc_geom_bond_type
O0 Cd1 2.223 . S
O0 C8 1.315 . S
Cd1 O0 2.223 . S
Cd1 O4 2.297 . S
Cd1 O5 2.439 . S
Cd1 O11 2.240 . S
Cd2 O3 2.240 . S
Cd2 O10 2.223 . S
Cd2 O12 2.297 . S
Cd2 O13 2.439 . S
O3 Cd2 2.240 . S
O3 C8 1.279 . S
O4 Cd1 2.297 . S
O4 C6 1.247 . S
O5 Cd1 2.439 . S
O5 C6 1.208 . S
C6 O4 1.247 . S
C6 O5 1.208 . S
C7 O12 1.247 . S
C7 O13 1.208 . S
C8 O0 1.315 . S
C8 O3 1.279 . S
C9 O10 1.315 . S
C9 O11 1.279 . S
O10 Cd2 2.223 . S
O10 C9 1.315 . S
O11 Cd1 2.240 . S
O11 C9 1.279 . S
O12 Cd2 2.297 . S
O12 C7 1.247 . S
O13 Cd2 2.439 . S
O13 C7 1.208 . S
O14 Cd15 2.223 . S
O14 C22 1.315 . S
Cd15 O14 2.223 . S
Cd15 O18 2.297 . S
Cd15 O19 2.439 . S
Cd15 O25 2.240 . S
Cd16 O17 2.240 . S
Cd16 O24 2.223 . S
Cd16 O26 2.297 . S
Cd16 O27 2.439 . S
O17 Cd16 2.240 . S
O17 C22 1.279 . S
O18 Cd15 2.297 . S
O18 C20 1.247 . S
O19 Cd15 2.439 . S
O19 C20 1.208 . S
C20 O18 1.247 . S
C20 O19 1.208 . S
C21 O26 1.247 . S
C21 O27 1.208 . S
C22 O14 1.315 . S
C22 O17 1.279 . S
C23 O24 1.315 . S
C23 O25 1.279 . S
O24 Cd16 2.223 . S
O24 C23 1.315 . S
O25 Cd15 2.240 . S
O25 C23 1.279 . S
O26 Cd16 2.297 . S
O26 C21 1.247 . S
O27 Cd16 2.439 . S
O27 C21 1.208 . S
O28 Cd29 2.223 . S
O28 C36 1.315 . S
Cd29 O28 2.223 . S
Cd29 O32 2.297 . S
Cd29 O33 2.439 . S
Cd29 O39 2.240 . S
Cd30 O31 2.240 . S
Cd30 O38 2.223 . S
Cd30 O40 2.297 . S
Cd30 O41 2.439 . S
O31 Cd30 2.240 . S
O31 C36 1.279 . S
O32 Cd29 2.297 . S
O32 C34 1.247 . S
O33 Cd29 2.439 . S
O33 C34 1.208 . S
C34 O32 1.247 . S
C34 O33 1.208 . S
C35 O40 1.247 . S
C35 O41 1.208 . S
C36 O28 1.315 . S
C36 O31 1.279 . S
C37 O38 1.315 . S
C37 O39 1.279 . S
O38 Cd30 2.223 . S
O38 C37 1.315 . S
O39 Cd29 2.240 . S
O39 C37 1.279 . S
O40 Cd30 2.297 . S
O40 C35 1.247 . S
O41 Cd30 2.439 . S
O41 C35 1.208 . S
O42 Cd43 2.223 . S
O42 C50 1.315 . S
Cd43 O42 2.223 . S
Cd43 O46 2.297 . S
Cd43 O47 2.439 . S
Cd43 O53 2.240 . S
Cd44 O45 2.240 . S
Cd44 O52 2.223 . S
Cd44 O54 2.297 . S
Cd44 O55 2.439 . S
O45 Cd44 2.240 . S
O45 C50 1.279 . S
O46 Cd43 2.297 . S
O46 C48 1.247 . S
O47 Cd43 2.439 . S
O47 C48 1.208 . S
C48 O46 1.247 . S
C48 O47 1.208 . S
C49 O54 1.247 . S
C49 O55 1.208 . S
C50 O42 1.315 . S
C50 O45 1.279 . S
C51 O52 1.315 . S
C51 O53 1.279 . S
O52 Cd44 2.223 . S
O52 C51 1.315 . S
O53 Cd43 2.240 . S
O53 C51 1.279 . S
O54 Cd44 2.297 . S
O54 C49 1.247 . S
O55 Cd44 2.439 . S
O55 C49 1.208 . S
O56 Cd57 2.223 . S
O56 C64 1.315 . S
Cd57 O56 2.223 . S
Cd57 O60 2.297 . S
Cd57 O61 2.439 . S
Cd57 O67 2.240 . S
Cd58 O59 2.240 . S
Cd58 O66 2.223 . S
Cd58 O68 2.297 . S
Cd58 O69 2.439 . S
O59 Cd58 2.240 . S
O59 C64 1.279 . S
O60 Cd57 2.297 . S
O60 C62 1.247 . S
O61 Cd57 2.439 . S
O61 C62 1.208 . S
C62 O60 1.247 . S
C62 O61 1.208 . S
C63 O68 1.247 . S
C63 O69 1.208 . S
C64 O56 1.315 . S
C64 O59 1.279 . S
C65 O66 1.315 . S
C65 O67 1.279 . S
O66 Cd58 2.223 . S
O66 C65 1.315 . S
O67 Cd57 2.240 . S
O67 C65 1.279 . S
O68 Cd58 2.297 . S
O68 C63 1.247 . S
O69 Cd58 2.439 . S
O69 C63 1.208 . S
O70 Cd71 2.223 . S
O70 C78 1.315 . S
Cd71 O70 2.223 . S
Cd71 O74 2.297 . S
Cd71 O75 2.439 . S
Cd71 O81 2.240 . S
Cd72 O73 2.240 . S
Cd72 O80 2.223 . S
Cd72 O82 2.297 . S
Cd72 O83 2.439 . S
O73 Cd72 2.240 . S
O73 C78 1.279 . S
O74 Cd71 2.297 . S
O74 C76 1.247 . S
O75 Cd71 2.439 . S
O75 C76 1.208 . S
C76 O74 1.247 . S
C76 O75 1.208 . S
C77 O82 1.247 . S
C77 O83 1.208 . S
C78 O70 1.315 . S
C78 O73 1.279 . S
C79 O80 1.315 . S
C79 O81 1.279 . S
O80 Cd72 2.223 . S
O80 C79 1.315 . S
O81 Cd71 2.240 . S
O81 C79 1.279 . S
O82 Cd72 2.297 . S
O82 C77 1.247 . S
O83 Cd72 2.439 . S
O83 C77 1.208 . S
O84 Cd85 2.223 . S
O84 C92 1.315 . S
Cd85 O84 2.223 . S
Cd85 O88 2.297 . S
Cd85 O89 2.439 . S
Cd85 O95 2.240 . S
Cd86 O87 2.240 . S
Cd86 O94 2.223 . S
Cd86 O96 2.297 . S
Cd86 O97 2.439 . S
O87 Cd86 2.240 . S
O87 C92 1.279 . S
O88 Cd85 2.297 . S
O88 C90 1.247 . S
O89 Cd85 2.439 . S
O89 C90 1.208 . S
C90 O88 1.247 . S
C90 O89 1.208 . S
C91 O96 1.247 . S
C91 O97 1.208 . S
C92 O84 1.315 . S
C92 O87 1.279 . S
C93 O94 1.315 . S
C93 O95 1.279 . S
O94 Cd86 2.223 . S
O94 C93 1.315 . S
O95 Cd85 2.240 . S
O95 C93 1.279 . S
O96 Cd86 2.297 . S
O96 C91 1.247 . S
O97 Cd86 2.439 . S
O97 C91 1.208 . S
O98 Cd99 2.223 . S
O98 C106 1.315 . S
Cd99 O98 2.223 . S
Cd99 O102 2.297 . S
Cd99 O103 2.439 . S
Cd99 O109 2.240 . S
Cd100 O101 2.240 . S
Cd100 O108 2.223 . S
Cd100 O110 2.297 . S
Cd100 O111 2.439 . S
O101 Cd100 2.240 . S
O101 C106 1.279 . S
O102 Cd99 2.297 . S
O102 C104 1.247 . S
O103 Cd99 2.439 . S
O103 C104 1.208 . S
C104 O102 1.247 . S
C104 O103 1.208 . S
C105 O110 1.247 . S
C105 O111 1.208 . S
C106 O98 1.315 . S
C106 O101 1.279 . S
C107 O108 1.315 . S
C107 O109 1.279 . S
O108 Cd100 2.223 . S
O108 C107 1.315 . S
O109 Cd99 2.240 . S
O109 C107 1.279 . S
O110 Cd100 2.297 . S
O110 C105 1.247 . S
O111 Cd100 2.439 . S
O111 C105 1.208 . S
C112 C113 1.349 . S
C112 C114 1.327 . S
C112 H137 0.950 . S
C113 C112 1.349 . S
C113 C129 1.349 . S
C114 C112 1.327 . S
C114 C133 1.429 . S
C114 H138 0.950 . S
C115 C132 1.568 1_545 S
C115 C134 1.368 . S
C115 H139 0.949 . S
H116 C120 0.949 . S
C117 C118 1.349 . S
C117 C119 1.327 . S
C117 H140 0.950 . S
C118 C117 1.349 . S
C118 C130 1.349 . S
C119 C117 1.327 . S
C119 C135 1.429 . S
C119 H141 0.950 . S
C120 H116 0.949 . S
C120 C128 1.569 1_565 S
C120 C136 1.368 . S
H121 C129 0.950 . S
H122 C127 0.950 . S
H123 C128 0.949 . S
H124 C130 0.950 . S
H125 C131 0.950 . S
H126 C132 0.949 . S
C127 H122 0.950 . S
C127 C129 1.327 . S
C127 C133 1.429 . S
C128 C120 1.569 1_545 S
C128 H123 0.949 . S
C128 C134 1.373 . S
C129 C113 1.349 . S
C129 H121 0.950 . S
C129 C127 1.327 . S
C130 C118 1.349 . S
C130 H124 0.950 . S
C130 C131 1.327 . S
C131 H125 0.950 . S
C131 C130 1.327 . S
C131 C135 1.429 . S
C132 C115 1.568 1_565 S
C132 H126 0.949 . S
C132 C136 1.374 . S
C133 C114 1.429 . S
C133 C127 1.429 . S
C133 C134 1.523 . S
C134 C115 1.368 . S
C134 C128 1.373 . S
C134 C133 1.523 . S
C135 C119 1.429 . S
C135 C131 1.429 . S
C135 C136 1.523 . S
C136 C120 1.368 . S
C136 C132 1.374 . S
C136 C135 1.523 . S
H137 C112 0.950 . S
H138 C114 0.950 . S
H139 C115 0.949 . S
H140 C117 0.950 . S
H141 C119 0.950 . S
C142 C143 1.349 . S
C142 C144 1.327 . S
C142 H167 0.950 . S
C143 C142 1.349 . S
C143 C159 1.349 . S
C144 C142 1.327 . S
C144 C163 1.429 . S
C144 H168 0.950 . S
C145 C162 1.574 . S
C145 C164 1.368 . S
C145 H169 0.949 . S
H146 C150 0.949 . S
C147 C148 1.349 . S
C147 C149 1.327 . S
C147 H170 0.950 . S
C148 C147 1.349 . S
C148 C160 1.349 . S
C149 C147 1.327 . S
C149 C165 1.429 . S
C149 H171 0.950 . S
C150 H146 0.949 . S
C150 C158 1.574 . S
C150 C166 1.368 . S
H151 C159 0.950 . S
H152 C157 0.950 . S
H153 C158 0.949 . S
H154 C160 0.950 . S
H155 C161 0.950 . S
H156 C162 0.949 . S
C157 H152 0.950 . S
C157 C159 1.327 . S
C157 C163 1.429 . S
C158 C150 1.574 . S
C158 H153 0.949 . S
C158 C164 1.368 . S
C159 C143 1.349 . S
C159 H151 0.950 . S
C159 C157 1.327 . S
C160 C148 1.349 . S
C160 H154 0.950 . S
C160 C161 1.327 . S
C161 H155 0.950 . S
C161 C160 1.327 . S
C161 C165 1.429 . S
C162 C145 1.574 . S
C162 H156 0.949 . S
C162 C166 1.368 . S
C163 C144 1.429 . S
C163 C157 1.429 . S
C163 C164 1.523 . S
C164 C145 1.368 . S
C164 C158 1.368 . S
C164 C163 1.523 . S
C165 C149 1.429 . S
C165 C161 1.429 . S
C165 C166 1.523 . S
C166 C150 1.368 . S
C166 C162 1.368 . S
C166 C165 1.523 . S
H167 C142 0.950 . S
H168 C144 0.950 . S
H169 C145 0.949 . S
H170 C147 0.950 . S
H171 C149 0.950 . S
C172 C173 1.349 . S
C172 C174 1.327 . S
C172 H197 0.950 . S
C173 C172 1.349 . S
C173 C189 1.349 . S
C174 C172 1.327 . S
C174 C193 1.429 . S
C174 H198 0.950 . S
C175 C192 1.567 1_565 S
C175 C194 1.368 . S
C175 H199 0.949 . S
H176 C180 0.949 . S
C177 C178 1.349 . S
C177 C179 1.327 . S
C177 H200 0.950 . S
C178 C177 1.349 . S
C178 C190 1.349 . S
C179 C177 1.327 . S
C179 C195 1.429 . S
C179 H201 0.950 . S
C180 H176 0.949 . S
C180 C188 1.568 1_545 S
C180 C196 1.368 . S
H181 C189 0.950 . S
H182 C187 0.950 . S
H183 C188 0.949 . S
H184 C190 0.950 . S
H185 C191 0.950 . S
H186 C192 0.949 . S
C187 H182 0.950 . S
C187 C189 1.327 . S
C187 C193 1.429 . S
C188 C180 1.568 1_565 S
C188 H183 0.949 . S
C188 C194 1.374 . S
C189 C173 1.349 . S
C189 H181 0.950 . S
C189 C187 1.327 . S
C190 C178 1.349 . S
C190 H184 0.950 . S
C190 C191 1.327 . S
C191 H185 0.950 . S
C191 C190 1.327 . S
C191 C195 1.429 . S
C192 C175 1.567 1_545 S
C192 H186 0.949 . S
C192 C196 1.375 . S
C193 C174 1.429 . S
C193 C187 1.429 . S
C193 C194 1.523 . S
C194 C175 1.368 . S
C194 C188 1.374 . S
C194 C193 1.523 . S
C195 C179 1.429 . S
C195 C191 1.429 . S
C195 C196 1.523 . S
C196 C180 1.368 . S
C196 C192 1.375 . S
C196 C195 1.523 . S
H197 C172 0.950 . S
H198 C174 0.950 . S
H199 C175 0.949 . S
H200 C177 0.950 . S
H201 C179 0.950 . S
C202 C203 1.349 . S
C202 C204 1.327 . S
C202 H227 0.950 . S
C203 C202 1.349 . S
C203 C219 1.349 . S
C204 C202 1.327 . S
C204 C223 1.429 . S
C204 H228 0.950 . S
C205 C222 1.574 . S
C205 C224 1.368 . S
C205 H229 0.949 . S
H206 C210 0.949 . S
C207 C208 1.349 . S
C207 C209 1.327 . S
C207 H230 0.950 . S
C208 C207 1.349 . S
C208 C220 1.349 . S
C209 C207 1.327 . S
C209 C225 1.429 . S
C209 H231 0.950 . S
C210 H206 0.949 . S
C210 C218 1.574 . S
C210 C226 1.368 . S
H211 C219 0.950 . S
H212 C217 0.950 . S
H213 C218 0.949 . S
H214 C220 0.950 . S
H215 C221 0.950 . S
H216 C222 0.949 . S
C217 H212 0.950 . S
C217 C219 1.327 . S
C217 C223 1.429 . S
C218 C210 1.574 . S
C218 H213 0.949 . S
C218 C224 1.368 . S
C219 C203 1.349 . S
C219 H211 0.950 . S
C219 C217 1.327 . S
C220 C208 1.349 . S
C220 H214 0.950 . S
C220 C221 1.327 . S
C221 H215 0.950 . S
C221 C220 1.327 . S
C221 C225 1.429 . S
C222 C205 1.574 . S
C222 H216 0.949 . S
C222 C226 1.368 . S
C223 C204 1.429 . S
C223 C217 1.429 . S
C223 C224 1.523 . S
C224 C205 1.368 . S
C224 C218 1.368 . S
C224 C223 1.523 . S
C225 C209 1.429 . S
C225 C221 1.429 . S
C225 C226 1.523 . S
C226 C210 1.368 . S
C226 C222 1.368 . S
C226 C225 1.523 . S
H227 C202 0.950 . S
H228 C204 0.950 . S
H229 C205 0.949 . S
H230 C207 0.950 . S
H231 C209 0.950 . S
C232 C233 1.349 . S
C232 C234 1.327 . S
C232 H257 0.950 . S
C233 C232 1.349 . S
C233 C249 1.349 . S
C234 C232 1.327 . S
C234 C253 1.429 . S
C234 H258 0.950 . S
C235 C252 1.574 . S
C235 C254 1.368 . S
C235 H259 0.949 . S
H236 C240 0.949 . S
C237 C238 1.349 . S
C237 C239 1.327 . S
C237 H260 0.950 . S
C238 C237 1.349 . S
C238 C250 1.349 . S
C239 C237 1.327 . S
C239 C255 1.429 . S
C239 H261 0.950 . S
C240 H236 0.949 . S
C240 C248 1.574 . S
C240 C256 1.368 . S
H241 C249 0.950 . S
H242 C247 0.950 . S
H243 C248 0.949 . S
H244 C250 0.950 . S
H245 C251 0.950 . S
H246 C252 0.949 . S
C247 H242 0.950 . S
C247 C249 1.327 . S
C247 C253 1.429 . S
C248 C240 1.574 . S
C248 H243 0.949 . S
C248 C254 1.368 . S
C249 C233 1.349 . S
C249 H241 0.950 . S
C249 C247 1.327 . S
C250 C238 1.349 . S
C250 H244 0.950 . S
C250 C251 1.327 . S
C251 H245 0.950 . S
C251 C250 1.327 . S
C251 C255 1.429 . S
C252 C235 1.574 . S
C252 H246 0.949 . S
C252 C256 1.368 . S
C253 C234 1.429 . S
C253 C247 1.429 . S
C253 C254 1.523 . S
C254 C235 1.368 . S
C254 C248 1.368 . S
C254 C253 1.523 . S
C255 C239 1.429 . S
C255 C251 1.429 . S
C255 C256 1.523 . S
C256 C240 1.368 . S
C256 C252 1.368 . S
C256 C255 1.523 . S
H257 C232 0.950 . S
H258 C234 0.950 . S
H259 C235 0.949 . S
H260 C237 0.950 . S
H261 C239 0.950 . S
C262 C263 1.349 . S
C262 C264 1.327 . S
C262 H287 0.950 . S
C263 C262 1.349 . S
C263 C279 1.349 . S
C264 C262 1.327 . S
C264 C283 1.429 . S
C264 H288 0.950 . S
C265 C282 1.574 . S
C265 C284 1.368 . S
C265 H289 0.949 . S
H266 C270 0.949 . S
C267 C268 1.349 . S
C267 C269 1.327 . S
C267 H290 0.950 . S
C268 C267 1.349 . S
C268 C280 1.349 . S
C269 C267 1.327 . S
C269 C285 1.429 . S
C269 H291 0.950 . S
C270 H266 0.949 . S
C270 C278 1.574 . S
C270 C286 1.368 . S
H271 C279 0.950 . S
H272 C277 0.950 . S
H273 C278 0.949 . S
H274 C280 0.950 . S
H275 C281 0.950 . S
H276 C282 0.949 . S
C277 H272 0.950 . S
C277 C279 1.327 . S
C277 C283 1.429 . S
C278 C270 1.574 . S
C278 H273 0.949 . S
C278 C284 1.368 . S
C279 C263 1.349 . S
C279 H271 0.950 . S
C279 C277 1.327 . S
C280 C268 1.349 . S
C280 H274 0.950 . S
C280 C281 1.327 . S
C281 H275 0.950 . S
C281 C280 1.327 . S
C281 C285 1.429 . S
C282 C265 1.574 . S
C282 H276 0.949 . S
C282 C286 1.368 . S
C283 C264 1.429 . S
C283 C277 1.429 . S
C283 C284 1.523 . S
C284 C265 1.368 . S
C284 C278 1.368 . S
C284 C283 1.523 . S
C285 C269 1.429 . S
C285 C281 1.429 . S
C285 C286 1.523 . S
C286 C270 1.368 . S
C286 C282 1.368 . S
C286 C285 1.523 . S
H287 C262 0.950 . S
H288 C264 0.950 . S
H289 C265 0.949 . S
H290 C267 0.950 . S
H291 C269 0.950 . S
C292 C293 1.349 . S
C292 C294 1.327 . S
C292 H317 0.950 . S
C293 C292 1.349 . S
C293 C309 1.349 . S
C294 C292 1.327 . S
C294 C313 1.429 . S
C294 H318 0.950 . S
C295 C312 1.574 . S
C295 C314 1.368 . S
C295 H319 0.949 . S
H296 C300 0.949 . S
C297 C298 1.349 . S
C297 C299 1.327 . S
C297 H320 0.950 . S
C298 C297 1.349 . S
C298 C310 1.349 . S
C299 C297 1.327 . S
C299 C315 1.429 . S
C299 H321 0.950 . S
C300 H296 0.949 . S
C300 C308 1.574 . S
C300 C316 1.368 . S
H301 C309 0.950 . S
H302 C307 0.950 . S
H303 C308 0.949 . S
H304 C310 0.950 . S
H305 C311 0.950 . S
H306 C312 0.949 . S
C307 H302 0.950 . S
C307 C309 1.327 . S
C307 C313 1.429 . S
C308 C300 1.574 . S
C308 H303 0.949 . S
C308 C314 1.368 . S
C309 C293 1.349 . S
C309 H301 0.950 . S
C309 C307 1.327 . S
C310 C298 1.349 . S
C310 H304 0.950 . S
C310 C311 1.327 . S
C311 H305 0.950 . S
C311 C310 1.327 . S
C311 C315 1.429 . S
C312 C295 1.574 . S
C312 H306 0.949 . S
C312 C316 1.368 . S
C313 C294 1.429 . S
C313 C307 1.429 . S
C313 C314 1.523 . S
C314 C295 1.368 . S
C314 C308 1.368 . S
C314 C313 1.523 . S
C315 C299 1.429 . S
C315 C311 1.429 . S
C315 C316 1.523 . S
C316 C300 1.368 . S
C316 C312 1.368 . S
C316 C315 1.523 . S
H317 C292 0.950 . S
H318 C294 0.950 . S
H319 C295 0.949 . S
H320 C297 0.950 . S
H321 C299 0.950 . S
C322 C323 1.349 . S
C322 C324 1.327 . S
C322 H347 0.950 . S
C323 C322 1.349 . S
C323 C339 1.349 . S
C324 C322 1.327 . S
C324 C343 1.429 . S
C324 H348 0.950 . S
C325 C342 1.574 . S
C325 C344 1.368 . S
C325 H349 0.949 . S
H326 C330 0.949 . S
C327 C328 1.349 . S
C327 C329 1.327 . S
C327 H350 0.950 . S
C328 C327 1.349 . S
C328 C340 1.349 . S
C329 C327 1.327 . S
C329 C345 1.429 . S
C329 H351 0.950 . S
C330 H326 0.949 . S
C330 C338 1.574 . S
C330 C346 1.368 . S
H331 C339 0.950 . S
H332 C337 0.950 . S
H333 C338 0.949 . S
H334 C340 0.950 . S
H335 C341 0.950 . S
H336 C342 0.949 . S
C337 H332 0.950 . S
C337 C339 1.327 . S
C337 C343 1.429 . S
C338 C330 1.574 . S
C338 H333 0.949 . S
C338 C344 1.368 . S
C339 C323 1.349 . S
C339 H331 0.950 . S
C339 C337 1.327 . S
C340 C328 1.349 . S
C340 H334 0.950 . S
C340 C341 1.327 . S
C341 H335 0.950 . S
C341 C340 1.327 . S
C341 C345 1.429 . S
C342 C325 1.574 . S
C342 H336 0.949 . S
C342 C346 1.368 . S
C343 C324 1.429 . S
C343 C337 1.429 . S
C343 C344 1.523 . S
C344 C325 1.368 . S
C344 C338 1.368 . S
C344 C343 1.523 . S
C345 C329 1.429 . S
C345 C341 1.429 . S
C345 C346 1.523 . S
C346 C330 1.368 . S
C346 C342 1.368 . S
C346 C345 1.523 . S
H347 C322 0.950 . S
H348 C324 0.950 . S
H349 C325 0.949 . S
H350 C327 0.950 . S
H351 C329 0.950 . S
C352 C353 1.349 . S
C352 C354 1.327 . S
C352 H377 0.950 . S
C353 C352 1.349 . S
C353 C369 1.349 . S
C354 C352 1.327 . S
C354 C373 1.429 . S
C354 H378 0.950 1_554 S
C355 C372 1.574 . S
C355 C374 1.368 . S
C355 H379 0.949 . S
H356 C360 0.949 . S
C357 C358 1.349 . S
C357 C359 1.327 . S
C357 H380 0.950 . S
C358 C357 1.349 . S
C358 C370 1.349 . S
C359 C357 1.327 . S
C359 C375 1.429 . S
C359 H381 0.950 1_556 S
C360 H356 0.949 . S
C360 C368 1.574 . S
C360 C376 1.368 . S
H361 C369 0.950 . S
H362 C367 0.950 . S
H363 C368 0.949 . S
H364 C370 0.950 . S
H365 C371 0.950 . S
H366 C372 0.949 . S
C367 H362 0.950 . S
C367 C369 1.327 . S
C367 C373 1.429 . S
C368 C360 1.574 . S
C368 H363 0.949 . S
C368 C374 1.368 1_556 S
C369 C353 1.349 . S
C369 H361 0.950 . S
C369 C367 1.327 . S
C370 C358 1.349 . S
C370 H364 0.950 . S
C370 C371 1.327 . S
C371 H365 0.950 . S
C371 C370 1.327 . S
C371 C375 1.429 . S
C372 C355 1.574 . S
C372 H366 0.949 . S
C372 C376 1.368 1_554 S
C373 C354 1.429 . S
C373 C367 1.429 . S
C373 C374 1.523 . S
C374 C355 1.368 . S
C374 C368 1.368 1_554 S
C374 C373 1.523 . S
C375 C359 1.429 . S
C375 C371 1.429 . S
C375 C376 1.523 . S
C376 C360 1.368 . S
C376 C372 1.368 1_556 S
C376 C375 1.523 . S
H377 C352 0.950 . S
H378 C354 0.950 1_556 S
H379 C355 0.949 . S
H380 C357 0.950 . S
H381 C359 0.950 1_554 S
C382 C383 1.349 . S
C382 C384 1.327 . S
C382 H407 0.950 . S
C383 C382 1.349 . S
C383 C399 1.349 . S
C384 C382 1.327 . S
C384 C403 1.429 . S
C384 H408 0.950 1_554 S
C385 C402 1.574 1_455 S
C385 C404 1.368 . S
C385 H409 0.949 . S
H386 C390 0.949 . S
C387 C388 1.349 . S
C387 C389 1.327 . S
C387 H410 0.950 . S
C388 C387 1.349 . S
C388 C400 1.349 . S
C389 C387 1.327 . S
C389 C405 1.429 . S
C389 H411 0.950 1_556 S
C390 H386 0.949 . S
C390 C398 1.574 1_655 S
C390 C406 1.368 . S
H391 C399 0.950 . S
H392 C397 0.950 . S
H393 C398 0.949 . S
H394 C400 0.950 . S
H395 C401 0.950 . S
H396 C402 0.949 . S
C397 H392 0.950 . S
C397 C399 1.327 . S
C397 C403 1.429 . S
C398 C390 1.574 1_455 S
C398 H393 0.949 . S
C398 C404 1.368 1_556 S
C399 C383 1.349 . S
C399 H391 0.950 . S
C399 C397 1.327 . S
C400 C388 1.349 . S
C400 H394 0.950 . S
C400 C401 1.327 . S
C401 H395 0.950 . S
C401 C400 1.327 . S
C401 C405 1.429 . S
C402 C385 1.574 1_655 S
C402 H396 0.949 . S
C402 C406 1.368 1_554 S
C403 C384 1.429 . S
C403 C397 1.429 . S
C403 C404 1.523 . S
C404 C385 1.368 . S
C404 C398 1.368 1_554 S
C404 C403 1.523 . S
C405 C389 1.429 . S
C405 C401 1.429 . S
C405 C406 1.523 . S
C406 C390 1.368 . S
C406 C402 1.368 1_556 S
C406 C405 1.523 . S
H407 C382 0.950 . S
H408 C384 0.950 1_556 S
H409 C385 0.949 . S
H410 C387 0.950 . S
H411 C389 0.950 1_554 S
C412 C413 1.349 . S
C412 C414 1.327 . S
C412 H437 0.950 . S
C413 C412 1.349 . S
C413 C429 1.349 . S
C414 C412 1.327 . S
C414 C433 1.429 . S
C414 H438 0.950 . S
C415 C432 1.574 . S
C415 C434 1.368 . S
C415 H439 0.949 . S
H416 C420 0.949 . S
C417 C418 1.349 . S
C417 C419 1.327 . S
C417 H440 0.950 . S
C418 C417 1.349 . S
C418 C430 1.349 . S
C419 C417 1.327 . S
C419 C435 1.429 . S
C419 H441 0.950 . S
C420 H416 0.949 . S
C420 C428 1.574 . S
C420 C436 1.368 . S
H421 C429 0.950 . S
H422 C427 0.950 . S
H423 C428 0.949 . S
H424 C430 0.950 . S
H425 C431 0.950 . S
H426 C432 0.949 . S
C427 H422 0.950 . S
C427 C429 1.327 . S
C427 C433 1.429 . S
C428 C420 1.574 . S
C428 H423 0.949 . S
C428 C434 1.368 1_545 S
C429 C413 1.349 . S
C429 H421 0.950 . S
C429 C427 1.327 . S
C430 C418 1.349 . S
C430 H424 0.950 . S
C430 C431 1.327 . S
C431 H425 0.950 . S
C431 C430 1.327 . S
C431 C435 1.429 . S
C432 C415 1.574 . S
C432 H426 0.949 . S
C432 C436 1.368 1_565 S
C433 C414 1.429 . S
C433 C427 1.429 . S
C433 C434 1.523 . S
C434 C415 1.368 . S
C434 C428 1.368 1_565 S
C434 C433 1.523 . S
C435 C419 1.429 . S
C435 C431 1.429 . S
C435 C436 1.523 . S
C436 C420 1.368 . S
C436 C432 1.368 1_545 S
C436 C435 1.523 . S
H437 C412 0.950 . S
H438 C414 0.950 . S
H439 C415 0.949 . S
H440 C417 0.950 . S
H441 C419 0.950 . S
C442 C443 1.349 . S
C442 C444 1.327 . S
C442 H467 0.950 . S
C443 C442 1.349 . S
C443 C459 1.349 . S
C444 C442 1.327 . S
C444 C463 1.429 . S
C444 H468 0.950 . S
C445 C462 1.574 . S
C445 C464 1.368 1_565 S
C445 H469 0.949 . S
H446 C450 0.949 . S
C447 C448 1.349 . S
C447 C449 1.327 . S
C447 H470 0.950 . S
C448 C447 1.349 . S
C448 C460 1.349 . S
C449 C447 1.327 . S
C449 C465 1.429 . S
C449 H471 0.950 . S
C450 H446 0.949 . S
C450 C458 1.574 . S
C450 C466 1.368 1_545 S
H451 C459 0.950 . S
H452 C457 0.950 . S
H453 C458 0.949 . S
H454 C460 0.950 . S
H455 C461 0.950 . S
H456 C462 0.949 . S
C457 H452 0.950 . S
C457 C459 1.327 . S
C457 C463 1.429 . S
C458 C450 1.574 . S
C458 H453 0.949 . S
C458 C464 1.368 1_455 S
C459 C443 1.349 . S
C459 H451 0.950 . S
C459 C457 1.327 . S
C460 C448 1.349 . S
C460 H454 0.950 . S
C460 C461 1.327 . S
C461 H455 0.950 . S
C461 C460 1.327 . S
C461 C465 1.429 . S
C462 C445 1.574 . S
C462 H456 0.949 . S
C462 C466 1.368 1_655 S
C463 C444 1.429 . S
C463 C457 1.429 . S
C463 C464 1.523 . S
C464 C445 1.368 1_545 S
C464 C458 1.368 1_655 S
C464 C463 1.523 . S
C465 C449 1.429 . S
C465 C461 1.429 . S
C465 C466 1.523 . S
C466 C450 1.368 1_565 S
C466 C462 1.368 1_455 S
C466 C465 1.523 . S
H467 C442 0.950 . S
H468 C444 0.950 . S
H469 C445 0.949 . S
H470 C447 0.950 . S
H471 C449 0.950 . S
C472 C473 1.349 . S
C472 C474 1.327 . S
C472 H497 0.950 . S
C473 C472 1.349 . S
C473 C489 1.349 . S
C474 C472 1.327 . S
C474 C493 1.429 . S
C474 H498 0.950 . S
C475 C492 1.574 . S
C475 C494 1.368 . S
C475 H499 0.949 . S
H476 C480 0.949 . S
C477 C478 1.349 . S
C477 C479 1.327 . S
C477 H500 0.950 . S
C478 C477 1.349 . S
C478 C490 1.349 . S
C479 C477 1.327 . S
C479 C495 1.429 . S
C479 H501 0.950 . S
C480 H476 0.949 . S
C480 C488 1.574 . S
C480 C496 1.368 . S
H481 C489 0.950 . S
H482 C487 0.950 . S
H483 C488 0.949 . S
H484 C490 0.950 . S
H485 C491 0.950 . S
H486 C492 0.949 . S
C487 H482 0.950 . S
C487 C489 1.327 . S
C487 C493 1.429 . S
C488 C480 1.574 . S
C488 H483 0.949 . S
C488 C494 1.368 . S
C489 C473 1.349 . S
C489 H481 0.950 . S
C489 C487 1.327 . S
C490 C478 1.349 . S
C490 H484 0.950 . S
C490 C491 1.327 . S
C491 H485 0.950 . S
C491 C490 1.327 . S
C491 C495 1.429 . S
C492 C475 1.574 . S
C492 H486 0.949 . S
C492 C496 1.368 . S
C493 C474 1.429 . S
C493 C487 1.429 . S
C493 C494 1.523 . S
C494 C475 1.368 . S
C494 C488 1.368 . S
C494 C493 1.523 . S
C495 C479 1.429 . S
C495 C491 1.429 . S
C495 C496 1.523 . S
C496 C480 1.368 . S
C496 C492 1.368 . S
C496 C495 1.523 . S
H497 C472 0.950 . S
H498 C474 0.950 . S
H499 C475 0.949 . S
H500 C477 0.950 . S
H501 C479 0.950 . S
C502 C503 1.349 . S
C502 C504 1.327 . S
C502 H527 0.950 . S
C503 C502 1.349 . S
C503 C519 1.349 . S
C504 C502 1.327 . S
C504 C523 1.429 . S
C504 H528 0.950 . S
C505 C522 1.566 1_545 S
C505 C524 1.368 . S
C505 H529 0.949 . S
H506 C510 0.949 . S
C507 C508 1.349 . S
C507 C509 1.327 . S
C507 H530 0.950 . S
C508 C507 1.349 . S
C508 C520 1.349 . S
C509 C507 1.327 . S
C509 C525 1.429 . S
C509 H531 0.950 . S
C510 H506 0.949 . S
C510 C518 1.567 1_565 S
C510 C526 1.368 . S
H511 C519 0.950 . S
H512 C517 0.950 . S
H513 C518 0.949 . S
H514 C520 0.950 . S
H515 C521 0.950 . S
H516 C522 0.949 . S
C517 H512 0.950 . S
C517 C519 1.327 . S
C517 C523 1.429 . S
C518 C510 1.567 1_545 S
C518 H513 0.949 . S
C518 C524 1.374 . S
C519 C503 1.349 . S
C519 H511 0.950 . S
C519 C517 1.327 . S
C520 C508 1.349 . S
C520 H514 0.950 . S
C520 C521 1.327 . S
C521 H515 0.950 . S
C521 C520 1.327 . S
C521 C525 1.429 . S
C522 C505 1.566 1_565 S
C522 H516 0.949 . S
C522 C526 1.375 . S
C523 C504 1.429 . S
C523 C517 1.429 . S
C523 C524 1.523 . S
C524 C505 1.368 . S
C524 C518 1.374 . S
C524 C523 1.523 . S
C525 C509 1.429 . S
C525 C521 1.429 . S
C525 C526 1.523 . S
C526 C510 1.368 . S
C526 C522 1.375 . S
C526 C525 1.523 . S
H527 C502 0.950 . S
H528 C504 0.950 . S
H529 C505 0.949 . S
H530 C507 0.950 . S
H531 C509 0.950 . S
C532 C533 1.349 . S
C532 C534 1.327 . S
C532 H557 0.950 . S
C533 C532 1.349 . S
C533 C549 1.349 . S
C534 C532 1.327 . S
C534 C553 1.429 . S
C534 H558 0.950 . S
C535 C552 1.574 . S
C535 C554 1.368 . S
C535 H559 0.949 . S
H536 C540 0.949 . S
C537 C538 1.349 . S
C537 C539 1.327 . S
C537 H560 0.950 . S
C538 C537 1.349 . S
C538 C550 1.349 . S
C539 C537 1.327 . S
C539 C555 1.429 . S
C539 H561 0.950 . S
C540 H536 0.949 . S
C540 C548 1.574 . S
C540 C556 1.368 . S
H541 C549 0.950 . S
H542 C547 0.950 . S
H543 C548 0.949 . S
H544 C550 0.950 . S
H545 C551 0.950 . S
H546 C552 0.949 . S
C547 H542 0.950 . S
C547 C549 1.327 . S
C547 C553 1.429 . S
C548 C540 1.574 . S
C548 H543 0.949 . S
C548 C554 1.368 . S
C549 C533 1.349 . S
C549 H541 0.950 . S
C549 C547 1.327 . S
C550 C538 1.349 . S
C550 H544 0.950 . S
C550 C551 1.327 . S
C551 H545 0.950 . S
C551 C550 1.327 . S
C551 C555 1.429 . S
C552 C535 1.574 . S
C552 H546 0.949 . S
C552 C556 1.368 . S
C553 C534 1.429 . S
C553 C547 1.429 . S
C553 C554 1.523 . S
C554 C535 1.368 . S
C554 C548 1.368 . S
C554 C553 1.523 . S
C555 C539 1.429 . S
C555 C551 1.429 . S
C555 C556 1.523 . S
C556 C540 1.368 . S
C556 C552 1.368 . S
C556 C555 1.523 . S
H557 C532 0.950 . S
H558 C534 0.950 . S
H559 C535 0.949 . S
H560 C537 0.950 . S
H561 C539 0.950 . S
C562 C563 1.349 . S
C562 C564 1.327 . S
C562 H587 0.950 . S
C563 C562 1.349 . S
C563 C579 1.349 . S
C564 C562 1.327 . S
C564 C583 1.429 . S
C564 H588 0.950 . S
C565 C582 1.568 1_565 S
C565 C584 1.374 . S
C565 H589 0.949 . S
H566 C570 0.949 . S
C567 C568 1.349 . S
C567 C569 1.327 . S
C567 H590 0.950 . S
C568 C567 1.349 . S
C568 C580 1.349 . S
C569 C567 1.327 . S
C569 C585 1.429 . S
C569 H591 0.950 . S
C570 H566 0.949 . S
C570 C578 1.567 1_545 S
C570 C586 1.375 . S
H571 C579 0.950 . S
H572 C577 0.950 . S
H573 C578 0.949 . S
H574 C580 0.950 . S
H575 C581 0.950 . S
H576 C582 0.949 . S
C577 H572 0.950 . S
C577 C579 1.327 . S
C577 C583 1.429 . S
C578 C570 1.567 1_565 S
C578 H573 0.949 . S
C578 C584 1.368 . S
C579 C563 1.349 . S
C579 H571 0.950 . S
C579 C577 1.327 . S
C580 C568 1.349 . S
C580 H574 0.950 . S
C580 C581 1.327 . S
C581 H575 0.950 . S
C581 C580 1.327 . S
C581 C585 1.429 . S
C582 C565 1.568 1_545 S
C582 H576 0.949 . S
C582 C586 1.368 . S
C583 C564 1.429 . S
C583 C577 1.429 . S
C583 C584 1.523 . S
C584 C565 1.374 . S
C584 C578 1.368 . S
C584 C583 1.523 . S
C585 C569 1.429 . S
C585 C581 1.429 . S
C585 C586 1.523 . S
C586 C570 1.375 . S
C586 C582 1.368 . S
C586 C585 1.523 . S
H587 C562 0.950 . S
H588 C564 0.950 . S
H589 C565 0.949 . S
H590 C567 0.950 . S
H591 C569 0.950 . S
C113 C9 1.657 . S
C118 C23 1.657 . S
C143 C51 1.657 . S
C148 C37 1.657 . S
C173 C65 1.657 . S
C178 C79 1.657 . S
C203 C93 1.657 . S
C208 C107 1.657 . S
C233 C7 1.674 . S
C238 C35 1.674 . S
C263 C49 1.674 . S
C268 C21 1.674 . S
C293 C63 1.674 . S
C298 C91 1.674 . S
C323 C105 1.674 . S
C328 C77 1.674 . S
C353 C6 1.185 . S
C358 C62 1.185 . S
C383 C20 1.185 . S
C388 C76 1.185 . S
C413 C90 1.185 . S
C418 C34 1.185 . S
C443 C104 1.185 . S
C448 C48 1.185 . S
C473 C22 1.245 . S
C478 C8 1.245 . S
C503 C36 1.245 . S
C508 C50 1.245 . S
C533 C64 1.245 . S
C538 C78 1.245 . S
C563 C92 1.245 . S
C568 C106 1.245 . S
