# Generated by pormake.
# Topology uob, (4)-cn, num edge types: 1
# Building blocks:
#     Node 0, Type 0, BuildingBlock: MUDLON_clean_sbu_0, # of connection points: 4
#     Node 1, Type 0, BuildingBlock: MUDLON_clean_sbu_0, # of connection points: 4
#     Node 2, Type 0, BuildingBlock: MUDLON_clean_sbu_0, # of connection points: 4
#     Node 3, Type 0, BuildingBlock: MUDLON_clean_sbu_0, # of connection points: 4
#     Node 4, Type 0, BuildingBlock: MUDLON_clean_sbu_0, # of connection points: 4
#     Node 5, Type 0, BuildingBlock: MUDLON_clean_sbu_0, # of connection points: 4
#     Node 6, Type 0, BuildingBlock: MUDLON_clean_sbu_0, # of connection points: 4
#     Node 7, Type 0, BuildingBlock: MUDLON_clean_sbu_0, # of connection points: 4
#     Node 8, Type 0, BuildingBlock: MUDLON_clean_sbu_0, # of connection points: 4
#     Node 9, Type 0, BuildingBlock: MUDLON_clean_sbu_0, # of connection points: 4
#     Node 10, Type 0, BuildingBlock: MUDLON_clean_sbu_0, # of connection points: 4
#     Node 11, Type 0, BuildingBlock: MUDLON_clean_sbu_0, # of connection points: 4
#     Node 12, Type 0, BuildingBlock: MUDLON_clean_sbu_0, # of connection points: 4
#     Node 13, Type 0, BuildingBlock: MUDLON_clean_sbu_0, # of connection points: 4
#     Node 14, Type 0, BuildingBlock: MUDLON_clean_sbu_0, # of connection points: 4
#     Node 15, Type 0, BuildingBlock: MUDLON_clean_sbu_0, # of connection points: 4
#     Edge 16, Type (0, 0), BuildingBlock: UVAHIK_clean_linker_0, # of connection points: 2
#     Edge 17, Type (0, 0), BuildingBlock: UVAHIK_clean_linker_0, # of connection points: 2
#     Edge 18, Type (0, 0), BuildingBlock: UVAHIK_clean_linker_0, # of connection points: 2
#     Edge 19, Type (0, 0), BuildingBlock: UVAHIK_clean_linker_0, # of connection points: 2
#     Edge 20, Type (0, 0), BuildingBlock: UVAHIK_clean_linker_0, # of connection points: 2
#     Edge 21, Type (0, 0), BuildingBlock: UVAHIK_clean_linker_0, # of connection points: 2
#     Edge 22, Type (0, 0), BuildingBlock: UVAHIK_clean_linker_0, # of connection points: 2
#     Edge 23, Type (0, 0), BuildingBlock: UVAHIK_clean_linker_0, # of connection points: 2
#     Edge 24, Type (0, 0), BuildingBlock: UVAHIK_clean_linker_0, # of connection points: 2
#     Edge 25, Type (0, 0), BuildingBlock: UVAHIK_clean_linker_0, # of connection points: 2
#     Edge 26, Type (0, 0), BuildingBlock: UVAHIK_clean_linker_0, # of connection points: 2
#     Edge 27, Type (0, 0), BuildingBlock: UVAHIK_clean_linker_0, # of connection points: 2
#     Edge 28, Type (0, 0), BuildingBlock: UVAHIK_clean_linker_0, # of connection points: 2
#     Edge 29, Type (0, 0), BuildingBlock: UVAHIK_clean_linker_0, # of connection points: 2
#     Edge 30, Type (0, 0), BuildingBlock: UVAHIK_clean_linker_0, # of connection points: 2
#     Edge 31, Type (0, 0), BuildingBlock: UVAHIK_clean_linker_0, # of connection points: 2
#     Edge 32, Type (0, 0), BuildingBlock: UVAHIK_clean_linker_0, # of connection points: 2
#     Edge 33, Type (0, 0), BuildingBlock: UVAHIK_clean_linker_0, # of connection points: 2
#     Edge 34, Type (0, 0), BuildingBlock: UVAHIK_clean_linker_0, # of connection points: 2
#     Edge 35, Type (0, 0), BuildingBlock: UVAHIK_clean_linker_0, # of connection points: 2
#     Edge 36, Type (0, 0), BuildingBlock: UVAHIK_clean_linker_0, # of connection points: 2
#     Edge 37, Type (0, 0), BuildingBlock: UVAHIK_clean_linker_0, # of connection points: 2
#     Edge 38, Type (0, 0), BuildingBlock: UVAHIK_clean_linker_0, # of connection points: 2
#     Edge 39, Type (0, 0), BuildingBlock: UVAHIK_clean_linker_0, # of connection points: 2
#     Edge 40, Type (0, 0), BuildingBlock: UVAHIK_clean_linker_0, # of connection points: 2
#     Edge 41, Type (0, 0), BuildingBlock: UVAHIK_clean_linker_0, # of connection points: 2
#     Edge 42, Type (0, 0), BuildingBlock: UVAHIK_clean_linker_0, # of connection points: 2
#     Edge 43, Type (0, 0), BuildingBlock: UVAHIK_clean_linker_0, # of connection points: 2
#     Edge 44, Type (0, 0), BuildingBlock: UVAHIK_clean_linker_0, # of connection points: 2
#     Edge 45, Type (0, 0), BuildingBlock: UVAHIK_clean_linker_0, # of connection points: 2
#     Edge 46, Type (0, 0), BuildingBlock: UVAHIK_clean_linker_0, # of connection points: 2
#     Edge 47, Type (0, 0), BuildingBlock: UVAHIK_clean_linker_0, # of connection points: 2
# Relax obj value: 0.173
# Max RMSD: 0.257
# Mean RMSD: 0.257
data_MOF--net-uob--node1-MUDLON_clean_sbu_0--edge1-UVAHIK_clean_linker_0
_symmetry_space_group_name_H-M    P1
_symmetry_Int_Tables_number       1
_symmetry_cell_setting            triclinic
loop_
_symmetry_equiv_pos_as_xyz
'x, y, z'
_cell_length_a     70.829504
_cell_length_b     70.747315
_cell_length_c     37.194984
_cell_angle_alpha  90.046207
_cell_angle_beta   89.995644
_cell_angle_gamma 90.056071
loop_
_atom_site_label
_atom_site_type_symbol
_atom_site_fract_x
_atom_site_fract_y
_atom_site_fract_z
_atom_type_partial_charge
Mg0 Mg 0.1342 0.06665 0.30257 0.0
C1 C 0.11243 0.08704 0.36116 0.0
O2 O 0.09799 0.07889 0.34526 0.0
C3 C 0.14198 0.07489 0.22364 0.0
O4 O 0.14994 0.05816 0.22555 0.0
C5 C 0.16213 0.0494 0.3513 0.0
O6 O 0.14691 0.05101 0.37127 0.0
O7 O 0.16102 0.0538 0.31816 0.0
O8 O 0.12872 0.08553 0.34721 0.0
O9 O 0.11051 0.04683 0.30071 0.0
C10 C 0.09782 0.04942 0.27699 0.0
O11 O 0.10013 0.06301 0.25336 0.0
O12 O 0.13518 0.08222 0.25206 0.0
Mg13 Mg 0.94014 0.63248 0.55902 0.0
C14 C 0.91441 0.64104 0.62153 0.0
O15 O 0.91777 0.65837 0.61059 0.0
C16 C 0.93377 0.63744 0.47904 0.0
O17 O 0.9517 0.64214 0.48073 0.0
C18 C 0.95026 0.67459 0.5611 0.0
O19 O 0.93794 0.67538 0.53474 0.0
O20 O 0.95472 0.65856 0.57402 0.0
O21 O 0.92095 0.62727 0.60343 0.0
O22 O 0.95868 0.60794 0.55671 0.0
C23 C 0.96232 0.59876 0.58527 0.0
O24 O 0.95604 0.60525 0.61614 0.0
O25 O 0.92504 0.63357 0.50801 0.0
Mg26 Mg 0.37727 0.4478 0.80528 0.0
C27 C 0.3682 0.42131 0.86653 0.0
O28 O 0.35109 0.42738 0.8594 0.0
C29 C 0.37735 0.44709 0.72492 0.0
O30 O 0.37826 0.46531 0.73158 0.0
C31 C 0.33564 0.45898 0.80804 0.0
O32 O 0.33481 0.448 0.77957 0.0
O33 O 0.35164 0.46247 0.82209 0.0
O34 O 0.38178 0.4264 0.84633 0.0
O35 O 0.40227 0.46581 0.80679 0.0
C36 C 0.41169 0.46746 0.83575 0.0
O37 O 0.40526 0.45941 0.86514 0.0
O38 O 0.37591 0.43574 0.7513 0.0
Mg39 Mg 0.57557 0.87696 0.05835 0.0
C40 C 0.59928 0.89465 0.11809 0.0
O41 O 0.58954 0.90979 0.10967 0.0
C42 C 0.57584 0.8771 0.97802 0.0
O43 O 0.55768 0.87807 0.98505 0.0
C44 C 0.55822 0.85005 0.109 0.0
O45 O 0.56197 0.86493 0.12893 0.0
O46 O 0.56122 0.85109 0.07529 0.0
O47 O 0.59734 0.87977 0.09928 0.0
O48 O 0.55747 0.90191 0.0602 0.0
C49 C 0.56372 0.91675 0.0449 0.0
O50 O 0.58024 0.91602 0.02887 0.0
O51 O 0.58732 0.87552 1.00415 0.0
Mg52 Mg 0.13061 0.44134 0.04485 0.0
C53 C 0.13507 0.4119 0.9858 0.0
O54 O 0.15186 0.40991 1.00033 0.0
C55 C 0.13558 0.43484 0.12468 0.0
O56 O 0.1411 0.45254 0.12266 0.0
C57 C 0.15921 0.45767 0.99538 0.0
O58 O 0.14415 0.45615 0.97498 0.0
O59 O 0.15779 0.45341 0.02856 0.0
O60 O 0.12312 0.42274 1.00079 0.0
O61 O 0.10759 0.46176 0.04783 0.0
C62 C 0.09823 0.46554 0.01954 0.0
O63 O 0.10377 0.45832 0.98876 0.0
O64 O 0.13115 0.42619 0.09588 0.0
Mg65 Mg 0.56994 0.63296 0.3014 0.0
C66 C 0.59225 0.61311 0.24282 0.0
O67 O 0.58586 0.59797 0.25923 0.0
C68 C 0.57325 0.6334 0.38079 0.0
O69 O 0.5549 0.63302 0.37564 0.0
C70 C 0.56046 0.67473 0.29781 0.0
O71 O 0.57381 0.67543 0.3223 0.0
O72 O 0.55492 0.65868 0.28652 0.0
O73 O 0.58915 0.62925 0.25661 0.0
O74 O 0.55213 0.60787 0.30343 0.0
C75 C 0.54195 0.60228 0.27737 0.0
O76 O 0.54089 0.61268 0.24819 0.0
O77 O 0.584 0.63444 0.35345 0.0
Mg78 Mg 0.37899 0.06375 0.5479 0.0
C79 C 0.37209 0.08972 0.48493 0.0
O80 O 0.35463 0.08446 0.4913 0.0
C81 C 0.37872 0.06534 0.62809 0.0
O82 O 0.37956 0.04705 0.62202 0.0
C83 C 0.33708 0.05318 0.54339 0.0
O84 O 0.33595 0.06416 0.5718 0.0
O85 O 0.35323 0.04961 0.53007 0.0
O86 O 0.3851 0.08435 0.50618 0.0
O87 O 0.40332 0.04496 0.54831 0.0
C88 C 0.41163 0.04076 0.51906 0.0
O89 O 0.4044 0.04669 0.48856 0.0
O90 O 0.37739 0.07645 0.60132 0.0
Mg91 Mg 0.94175 0.8783 0.79992 0.0
C92 C 0.91197 0.87015 0.74332 0.0
O93 O 0.91535 0.85266 0.75324 0.0
C94 C 0.93994 0.88443 0.87944 0.0
O95 O 0.95679 0.89104 0.87162 0.0
C96 C 0.95912 0.85107 0.74889 0.0
O97 O 0.95739 0.86643 0.72933 0.0
O98 O 0.9548 0.8519 0.78209 0.0
O99 O 0.91984 0.88363 0.76032 0.0
O100 O 0.96106 0.90245 0.798 0.0
C101 C 0.95812 0.91594 0.77606 0.0
O102 O 0.94425 0.91443 0.75281 0.0
O103 O 0.93008 0.87718 0.85433 0.0
Mg104 Mg 0.63397 0.56585 0.8081 0.0
C105 C 0.61416 0.59055 0.86384 0.0
O106 O 0.59893 0.58535 0.84626 0.0
C107 C 0.63339 0.56884 0.72836 0.0
O108 O 0.632 0.55051 0.73348 0.0
C109 C 0.67584 0.55672 0.81201 0.0
O110 O 0.67649 0.56956 0.78653 0.0
O111 O 0.65984 0.55136 0.82373 0.0
O112 O 0.63025 0.58573 0.85183 0.0
O113 O 0.60919 0.54754 0.8074 0.0
C114 C 0.60201 0.54076 0.83596 0.0
O115 O 0.61059 0.54366 0.86679 0.0
O116 O 0.63535 0.57952 0.75565 0.0
Mg117 Mg 0.44725 0.13163 0.05474 0.0
C118 C 0.43931 0.12654 0.13032 0.0
O119 O 0.45759 0.12949 0.12798 0.0
C120 C 0.44258 0.12719 0.976 0.0
O121 O 0.46099 0.12673 0.98029 0.0
C122 C 0.44518 0.17108 0.07734 0.0
O123 O 0.42762 0.1651 0.07643 0.0
O124 O 0.45809 0.15993 0.06651 0.0
O125 O 0.4297 0.12605 0.10145 0.0
O126 O 0.46806 0.10892 0.05469 0.0
C127 C 0.4609 0.09265 0.06003 0.0
O128 O 0.44257 0.09138 0.065 0.0
O129 O 0.43225 0.12986 1.00354 0.0
Mg130 Mg 0.87965 0.94143 0.31079 0.0
C131 C 0.88083 0.93277 0.38639 0.0
O132 O 0.87939 0.95125 0.38393 0.0
C133 C 0.87298 0.93432 0.2317 0.0
O134 O 0.86441 0.95067 0.23546 0.0
C135 C 0.83771 0.94866 0.31324 0.0
O136 O 0.83788 0.93291 0.2945 0.0
O137 O 0.85333 0.95645 0.32134 0.0
O138 O 0.88175 0.92318 0.35749 0.0
O139 O 0.90473 0.95935 0.31301 0.0
C140 C 0.91132 0.96767 0.28542 0.0
O141 O 0.902 0.96664 0.25497 0.0
O142 O 0.87997 0.92643 0.2594 0.0
Mg143 Mg 0.06879 0.38079 0.55458 0.0
C144 C 0.09823 0.37642 0.61366 0.0
O145 O 0.10018 0.35955 0.59933 0.0
C146 C 0.07813 0.37291 0.47589 0.0
O147 O 0.06342 0.36169 0.4789 0.0
C148 C 0.05357 0.35013 0.60136 0.0
O149 O 0.0544 0.36456 0.62355 0.0
O150 O 0.05787 0.35278 0.56848 0.0
O151 O 0.08723 0.38827 0.59883 0.0
O152 O 0.0475 0.40304 0.55313 0.0
C153 C 0.04356 0.41203 0.58181 0.0
O154 O 0.05112 0.40645 0.61225 0.0
O155 O 0.08386 0.38188 0.50347 0.0
Mg156 Mg 0.63286 0.93916 0.54376 0.0
C157 C 0.64245 0.91015 0.48757 0.0
O158 O 0.65927 0.91277 0.50161 0.0
C159 C 0.63073 0.93781 0.62385 0.0
O160 O 0.62835 0.95591 0.61737 0.0
C161 C 0.66017 0.95702 0.49386 0.0
O162 O 0.64505 0.95475 0.47384 0.0
O163 O 0.65912 0.95296 0.52716 0.0
O164 O 0.62828 0.91801 0.50232 0.0
O165 O 0.60845 0.95793 0.54247 0.0
C166 C 0.59819 0.95904 0.51446 0.0
O167 O 0.60326 0.94973 0.48547 0.0
O168 O 0.63385 0.92678 0.59747 0.0
Mg169 Mg 0.06806 0.13341 0.79961 0.0
C170 C 0.08788 0.11213 0.73948 0.0
O171 O 0.08044 0.09742 0.75574 0.0
C172 C 0.07719 0.13852 0.87888 0.0
O173 O 0.06037 0.14633 0.87855 0.0
C174 C 0.05121 0.16342 0.75458 0.0
O175 O 0.05176 0.14876 0.73289 0.0
O176 O 0.05613 0.16112 0.78723 0.0
O177 O 0.08612 0.12838 0.75359 0.0
O178 O 0.04752 0.11034 0.80018 0.0
C179 C 0.05102 0.09616 0.82014 0.0
O180 O 0.06597 0.09667 0.841 0.0
O181 O 0.08423 0.13267 0.84944 0.0
Mg182 Mg 0.8797 0.5721 0.04917 0.0
C183 C 0.87252 0.60043 0.98996 0.0
O184 O 0.85522 0.59895 1.0024 0.0
C185 C 0.87123 0.58017 0.12845 0.0
O186 O 0.86084 0.56487 0.12527 0.0
C187 C 0.85163 0.55421 1.00088 0.0
O188 O 0.8669 0.55519 0.98091 0.0
O189 O 0.85273 0.55932 0.03366 0.0
O190 O 0.88581 0.59188 0.00617 0.0
O191 O 0.90318 0.55216 0.04987 0.0
C192 C 0.91314 0.54988 0.02171 0.0
O193 O 0.90813 0.55856 0.992 0.0
O194 O 0.87976 0.58656 0.10092 0.0
Mg195 Mg 0.44194 0.37936 0.29567 0.0
C196 C 0.43282 0.38162 0.21971 0.0
O197 O 0.45126 0.37993 0.22133 0.0
C198 C 0.43814 0.38631 0.37396 0.0
O199 O 0.4565 0.38673 0.36887 0.0
C200 C 0.46691 0.34563 0.27122 0.0
O201 O 0.47898 0.35868 0.26105 0.0
O202 O 0.45223 0.3505 0.28868 0.0
O203 O 0.42359 0.38233 0.24903 0.0
O204 O 0.46249 0.40239 0.29175 0.0
C205 C 0.45562 0.41764 0.27913 0.0
O206 O 0.43779 0.41788 0.2695 0.0
O207 O 0.42751 0.3829 0.34713 0.0
C208 C 0.32066 0.04203 0.48741 0.0
C209 C 0.3197 0.04766 0.52367 0.0
C210 C 0.30417 0.0391 0.46744 0.0
C211 C 0.25313 0.02972 0.47468 0.0
H212 H 0.24952 0.05662 0.38416 0.0
C213 C 0.18161 0.04357 0.40623 0.0
C214 C 0.18051 0.04498 0.36858 0.0
C215 C 0.19899 0.04128 0.42341 0.0
C216 C 0.25034 0.04866 0.40895 0.0
H217 H 0.30063 0.05385 0.56771 0.0
H218 H 0.27183 0.04834 0.533 0.0
H219 H 0.2791 0.05697 0.41762 0.0
H220 H 0.19688 0.04435 0.31937 0.0
H221 H 0.22726 0.03976 0.34931 0.0
H222 H 0.22449 0.02126 0.46612 0.0
C223 C 0.28537 0.04631 0.52002 0.0
C224 C 0.26732 0.04894 0.42822 0.0
C225 C 0.30187 0.04951 0.53987 0.0
C226 C 0.19722 0.04339 0.34842 0.0
C227 C 0.21467 0.04091 0.36566 0.0
C228 C 0.23622 0.02922 0.4552 0.0
C229 C 0.28633 0.04144 0.4834 0.0
C230 C 0.2688 0.03976 0.4616 0.0
C231 C 0.21583 0.04011 0.40348 0.0
C232 C 0.23444 0.03901 0.42239 0.0
H233 H 0.33416 0.04056 0.47403 0.0
H234 H 0.30535 0.03521 0.43936 0.0
H235 H 0.25392 0.02229 0.50008 0.0
H236 H 0.16907 0.04484 0.42272 0.0
H237 H 0.1992 0.04111 0.45251 0.0
C238 C 0.96547 0.81601 0.7511 0.0
C239 C 0.96304 0.83268 0.73108 0.0
C240 C 0.96743 0.79852 0.73372 0.0
C241 C 0.97588 0.77666 0.64305 0.0
H242 H 0.9504 0.73357 0.68537 0.0
C243 C 0.95357 0.70991 0.56311 0.0
C244 C 0.95633 0.69222 0.57947 0.0
C245 C 0.95727 0.72664 0.58199 0.0
C246 C 0.95779 0.74541 0.67341 0.0
H247 H 0.96105 0.84398 0.677 0.0
H248 H 0.96388 0.81373 0.64699 0.0
H249 H 0.95151 0.76342 0.71802 0.0
H250 H 0.96558 0.67827 0.62832 0.0
H251 H 0.97179 0.7075 0.66136 0.0
H252 H 0.98138 0.75872 0.59772 0.0
C253 C 0.96479 0.81404 0.67603 0.0
C254 C 0.95851 0.76256 0.6922 0.0
C255 C 0.96305 0.83148 0.69335 0.0
C256 C 0.96338 0.69165 0.61483 0.0
C257 C 0.96681 0.70838 0.63388 0.0
C258 C 0.97493 0.75959 0.62408 0.0
C259 C 0.96682 0.79724 0.6959 0.0
C260 C 0.96737 0.77853 0.67712 0.0
C261 C 0.96355 0.72606 0.61784 0.0
C262 C 0.96572 0.74383 0.63889 0.0
H263 H 0.96558 0.81644 0.78021 0.0
H264 H 0.96929 0.78598 0.75 0.0
H265 H 0.98321 0.78845 0.6308 0.0
H266 H 0.94814 0.71084 0.53595 0.0
H267 H 0.95451 0.74004 0.56898 0.0
C268 C 0.31863 0.46977 0.86362 0.0
C269 C 0.31804 0.46426 0.82727 0.0
C270 C 0.30193 0.47223 0.88322 0.0
C271 C 0.25062 0.48 0.87481 0.0
H272 H 0.24729 0.45271 0.96496 0.0
C273 C 0.17912 0.46339 0.94099 0.0
C274 C 0.17771 0.46216 0.97863 0.0
C275 C 0.19658 0.46614 0.92434 0.0
C276 C 0.24802 0.46076 0.94026 0.0
H277 H 0.29941 0.45783 0.78266 0.0
H278 H 0.27028 0.46248 0.8167 0.0
H279 H 0.27711 0.45356 0.9323 0.0
H280 H 0.1936 0.46342 0.02835 0.0
H281 H 0.22413 0.4688 0.9993 0.0
H282 H 0.22163 0.48731 0.88263 0.0
C283 C 0.28367 0.46481 0.83006 0.0
C284 C 0.26514 0.46118 0.92146 0.0
C285 C 0.30036 0.46209 0.81058 0.0
C286 C 0.1942 0.46426 0.9993 0.0
C287 C 0.21172 0.4672 0.98258 0.0
C288 C 0.23357 0.47978 0.89379 0.0
C289 C 0.28427 0.4695 0.86679 0.0
C290 C 0.26654 0.47051 0.8882 0.0
C291 C 0.21318 0.46797 0.94479 0.0
C292 C 0.23189 0.46982 0.92644 0.0
H293 H 0.332 0.47148 0.87739 0.0
H294 H 0.30283 0.47601 0.91139 0.0
H295 H 0.25134 0.48753 0.8495 0.0
H296 H 0.16677 0.4617 0.92411 0.0
H297 H 0.19705 0.46625 0.89525 0.0
C298 C 0.54921 0.81553 0.10646 0.0
C299 C 0.55308 0.83191 0.12659 0.0
C300 C 0.5461 0.79816 0.12373 0.0
C301 C 0.53705 0.77683 0.21465 0.0
H302 H 0.55958 0.73226 0.17188 0.0
C303 C 0.55819 0.71006 0.29483 0.0
C304 C 0.55435 0.69231 0.27947 0.0
C305 C 0.55462 0.7267 0.27567 0.0
C306 C 0.55299 0.74453 0.18395 0.0
H307 H 0.55635 0.84287 0.18075 0.0
H308 H 0.55155 0.81286 0.21049 0.0
H309 H 0.55966 0.76198 0.13877 0.0
H310 H 0.54324 0.67816 0.2322 0.0
H311 H 0.5373 0.70726 0.19855 0.0
H312 H 0.53126 0.75944 0.26058 0.0
C313 C 0.5504 0.8133 0.18148 0.0
C314 C 0.55295 0.7616 0.16491 0.0
C315 C 0.55331 0.8306 0.1643 0.0
C316 C 0.54629 0.69161 0.24491 0.0
C317 C 0.54301 0.70825 0.22551 0.0
C318 C 0.53733 0.75983 0.23386 0.0
C319 C 0.54695 0.79675 0.16152 0.0
C320 C 0.54527 0.7781 0.18022 0.0
C321 C 0.54739 0.72596 0.24049 0.0
C322 C 0.54554 0.74356 0.21893 0.0
H323 H 0.54888 0.81605 0.07737 0.0
H324 H 0.54319 0.78583 0.1074 0.0
H325 H 0.53057 0.78905 0.22708 0.0
H326 H 0.56441 0.7111 0.32137 0.0
H327 H 0.55826 0.74013 0.28785 0.0
C328 C 0.71114 0.55437 0.81502 0.0
C329 C 0.69341 0.55106 0.83083 0.0
C330 C 0.72776 0.55117 0.83442 0.0
C331 C 0.74589 0.55195 0.92582 0.0
H332 H 0.7895 0.52659 0.88548 0.0
C333 C 0.81661 0.54773 1.00409 0.0
C334 C 0.83319 0.54987 0.98373 0.0
C335 C 0.79913 0.54506 0.98703 0.0
C336 C 0.77755 0.53392 0.89709 0.0
H337 H 0.67929 0.54136 0.8792 0.0
H338 H 0.70837 0.53612 0.91324 0.0
H339 H 0.75994 0.52722 0.85191 0.0
H340 H 0.84435 0.55076 0.92941 0.0
H341 H 0.81417 0.54679 0.89996 0.0
H342 H 0.76358 0.55952 0.97014 0.0
C343 C 0.70934 0.54109 0.88575 0.0
C344 C 0.76058 0.53416 0.87785 0.0
C345 C 0.69271 0.54396 0.86614 0.0
C346 C 0.83192 0.54898 0.94605 0.0
C347 C 0.81452 0.54656 0.92905 0.0
C348 C 0.76295 0.55198 0.94483 0.0
C349 C 0.72703 0.5449 0.87024 0.0
C350 C 0.74463 0.54336 0.89182 0.0
C351 C 0.7978 0.54468 0.9492 0.0
C352 C 0.77914 0.5432 0.93052 0.0
H353 H 0.71216 0.55985 0.78791 0.0
H354 H 0.7412 0.55433 0.82184 0.0
H355 H 0.73386 0.55931 0.93709 0.0
H356 H 0.8171 0.54831 0.03318 0.0
H357 H 0.78666 0.54338 1.00356 0.0
C358 C 0.48368 0.32056 0.23514 0.0
C359 C 0.46806 0.32623 0.25596 0.0
C360 C 0.48332 0.30342 0.21613 0.0
C361 C 0.44946 0.27265 0.17198 0.0
H362 H 0.48788 0.23366 0.1729 0.0
C363 C 0.43495 0.19982 0.11101 0.0
C364 C 0.44954 0.18958 0.09439 0.0
C365 C 0.43868 0.21666 0.12916 0.0
C366 C 0.47717 0.24455 0.17179 0.0
H367 H 0.44023 0.31777 0.27444 0.0
H368 H 0.43957 0.28818 0.241 0.0
H369 H 0.49217 0.26232 0.20911 0.0
H370 H 0.47961 0.18925 0.08359 0.0
H371 H 0.48612 0.21916 0.11457 0.0
H372 H 0.43459 0.25545 0.1343 0.0
C373 C 0.45205 0.29702 0.23932 0.0
C374 C 0.47961 0.2609 0.19272 0.0
C375 C 0.4525 0.31394 0.25866 0.0
C376 C 0.46803 0.19681 0.09603 0.0
C377 C 0.47178 0.21388 0.11405 0.0
C378 C 0.44716 0.25654 0.15074 0.0
C379 C 0.46723 0.29178 0.21719 0.0
C380 C 0.46556 0.27491 0.19358 0.0
C381 C 0.45711 0.22402 0.13095 0.0
C382 C 0.46073 0.24201 0.15096 0.0
H383 H 0.4959 0.32966 0.23249 0.0
H384 H 0.49522 0.2997 0.19927 0.0
H385 H 0.4386 0.28342 0.17151 0.0
H386 H 0.42056 0.19464 0.11071 0.0
H387 H 0.42706 0.22369 0.14249 0.0
C388 C 0.81996 0.96529 0.36233 0.0
C389 C 0.81982 0.95524 0.32968 0.0
C390 C 0.80306 0.96903 0.38058 0.0
C391 C 0.7517 0.97299 0.37007 0.0
H392 H 0.74872 0.95417 0.46778 0.0
C393 C 0.68024 0.9597 0.43888 0.0
C394 C 0.67857 0.96117 0.47644 0.0
C395 C 0.69774 0.96181 0.42205 0.0
C396 C 0.74932 0.95992 0.44085 0.0
H397 H 0.80183 0.94202 0.28978 0.0
H398 H 0.77231 0.94909 0.32108 0.0
H399 H 0.7788 0.95347 0.43592 0.0
H400 H 0.69396 0.9666 0.52569 0.0
H401 H 0.7245 0.97105 0.49619 0.0
H402 H 0.7224 0.97969 0.3748 0.0
C403 C 0.78549 0.95389 0.33271 0.0
C404 C 0.76659 0.95943 0.42254 0.0
C405 C 0.80239 0.94982 0.31484 0.0
C406 C 0.69479 0.96535 0.49671 0.0
C407 C 0.71233 0.96774 0.47975 0.0
C408 C 0.73451 0.97379 0.38854 0.0
C409 C 0.78568 0.96315 0.36616 0.0
C410 C 0.76786 0.96559 0.38672 0.0
C411 C 0.71411 0.96574 0.44216 0.0
C412 C 0.73293 0.96684 0.42393 0.0
H413 H 0.83317 0.96952 0.37461 0.0
H414 H 0.80359 0.97626 0.40624 0.0
H415 H 0.75234 0.97803 0.3426 0.0
H416 H 0.66811 0.95625 0.42239 0.0
H417 H 0.69844 0.9597 0.39325 0.0
C418 C 0.04802 0.32812 0.65297 0.0
C419 C 0.04979 0.3309 0.61568 0.0
C420 C 0.04598 0.30997 0.66725 0.0
C421 C 0.05474 0.25962 0.64495 0.0
H422 H 0.02522 0.25066 0.73115 0.0
C423 C 0.0444 0.18474 0.7025 0.0
C424 C 0.04744 0.18253 0.73964 0.0
C425 C 0.04288 0.20272 0.68726 0.0
C426 C 0.03361 0.25298 0.7072 0.0
H427 H 0.05021 0.31669 0.56405 0.0
H428 H 0.04616 0.28497 0.58887 0.0
H429 H 0.02538 0.28202 0.70379 0.0
H430 H 0.05055 0.19759 0.79008 0.0
H431 H 0.04771 0.2291 0.7634 0.0
H432 H 0.06286 0.23053 0.64831 0.0
C433 C 0.04677 0.29685 0.6072 0.0
C434 C 0.03375 0.27097 0.69149 0.0
C435 C 0.04895 0.31506 0.5929 0.0
C436 C 0.04819 0.19878 0.7614 0.0
C437 C 0.04653 0.21683 0.74612 0.0
C438 C 0.05447 0.24162 0.66047 0.0
C439 C 0.04551 0.29403 0.64465 0.0
C440 C 0.04445 0.27459 0.66029 0.0
C441 C 0.04423 0.21899 0.70875 0.0
C442 C 0.044 0.23809 0.69191 0.0
H443 H 0.0487 0.33996 0.67141 0.0
H444 H 0.04537 0.30844 0.69619 0.0
H445 H 0.06345 0.26188 0.62141 0.0
H446 H 0.04367 0.17256 0.68487 0.0
H447 H 0.04081 0.20388 0.65849 0.0
C448 C 0.07473 0.02772 0.30773 0.0
C449 C 0.07981 0.03872 0.27778 0.0
C450 C 0.05693 0.01907 0.30943 0.0
C451 C 0.01661 1.00392 0.25298 0.0
H452 H 0.98744 0.0089 0.34069 0.0
C453 C 0.93725 0.98635 0.25636 0.0
C454 C 0.93019 0.9768 0.28663 0.0
C455 C 0.95559 0.9937 0.25635 0.0
C456 C 0.99546 0.00716 0.31613 0.0
H457 H 0.07039 0.04881 0.22572 0.0
H458 H 0.03956 0.03371 0.22862 0.0
H459 H 0.01973 0.02095 0.33851 0.0
H460 H 0.93678 0.96784 0.34096 0.0
H461 H 0.96884 0.98044 0.34076 0.0
H462 H 0.99247 0.99011 0.23053 0.0
C463 C 0.04928 0.03169 0.25076 0.0
C464 C 0.01399 0.01406 0.31491 0.0
C465 C 0.06694 0.04044 0.24919 0.0
C466 C 0.94175 0.97517 0.31722 0.0
C467 C 0.96013 0.98246 0.31715 0.0
C468 C 0.99814 0.99695 0.25423 0.0
C469 C 0.04395 0.02109 0.28105 0.0
C470 C 0.02471 0.01269 0.28319 0.0
C471 C 0.96738 0.99162 0.28653 0.0
C472 C 0.98724 0.99865 0.28569 0.0
H473 H 0.08429 0.02616 0.33025 0.0
H474 H 0.05331 0.01084 0.33298 0.0
H475 H 0.02458 1.00238 0.2283 0.0
H476 H 0.92871 0.98798 0.23242 0.0
H477 H 0.96052 1.00102 0.23257 0.0
C478 C 0.97551 0.56994 0.61524 0.0
C479 C 0.97169 0.58002 0.58352 0.0
C480 C 0.98286 0.55162 0.61376 0.0
C481 C 0.0073 0.51749 0.554 0.0
H482 H 0.98747 0.48069 0.62141 0.0
C483 C 0.02783 0.4383 0.54752 0.0
C484 C 0.03262 0.4299 0.58054 0.0
C485 C 0.0193 0.45615 0.54658 0.0
C486 C 0.99325 0.49082 0.60255 0.0
H487 H 0.97304 0.57886 0.5253 0.0
H488 H 0.98573 0.54682 0.52271 0.0
H489 H 0.97553 0.51297 0.62234 0.0
H490 H 0.03158 0.43341 0.63846 0.0
H491 H 0.01673 0.4644 0.63678 0.0
H492 H 0.02506 0.49527 0.5343 0.0
C493 C 0.9832 0.55315 0.54879 0.0
C494 C 0.98645 0.50936 0.60314 0.0
C495 C 0.97587 0.57152 0.55027 0.0
C496 C 0.02809 0.43945 0.61255 0.0
C497 C 0.01949 0.45721 0.6116 0.0
C498 C 0.01408 0.49891 0.55335 0.0
C499 C 0.98654 0.54287 0.58053 0.0
C500 C 0.99351 0.523 0.57912 0.0
C501 C 0.01525 0.46592 0.57862 0.0
C502 C 0.00726 0.48539 0.57785 0.0
H503 H 0.97257 0.57608 0.64133 0.0
H504 H 0.98563 0.5443 0.63877 0.0
H505 H 0.01321 0.52765 0.53535 0.0
H506 H 0.03113 0.43134 0.52236 0.0
H507 H 0.016 0.46236 0.52073 0.0
C508 C 0.43877 0.48304 0.80353 0.0
C509 C 0.43058 0.47657 0.83571 0.0
C510 C 0.45723 0.49016 0.80321 0.0
C511 C 0.50173 0.48854 0.85545 0.0
H512 H 0.51578 0.53144 0.79643 0.0
C513 C 0.57447 0.5254 0.86685 0.0
C514 C 0.58311 0.53167 0.83498 0.0
C515 C 0.55606 0.5182 0.86638 0.0
C516 C 0.51214 0.51929 0.81273 0.0
H517 H 0.43522 0.47311 0.89298 0.0
H518 H 0.4672 0.48576 0.89249 0.0
H519 H 0.48308 0.52059 0.797 0.0
H520 H 0.57927 0.53485 0.77742 0.0
H521 H 0.54726 0.52212 0.77658 0.0
H522 H 0.53076 0.48729 0.87127 0.0
C523 C 0.45952 0.48499 0.86735 0.0
C524 C 0.49338 0.51308 0.81308 0.0
C525 C 0.4411 0.47787 0.86767 0.0
C526 C 0.57304 0.53018 0.8025 0.0
C527 C 0.55462 0.52302 0.80204 0.0
C528 C 0.52048 0.49477 0.85512 0.0
C529 C 0.46793 0.49098 0.83505 0.0
C530 C 0.48791 0.49766 0.83454 0.0
C531 C 0.54582 0.51712 0.83403 0.0
C532 C 0.52592 0.51025 0.83382 0.0
H533 H 0.43109 0.4822 0.77839 0.0
H534 H 0.46329 0.4945 0.77779 0.0
H535 H 0.49812 0.47639 0.87176 0.0
H536 H 0.58177 0.52639 0.89237 0.0
H537 H 0.54967 0.51396 0.89157 0.0
C538 C 0.53516 0.9359 0.06196 0.0
C539 C 0.55323 0.93487 0.04651 0.0
C540 C 0.52558 0.95319 0.06385 0.0
C541 C 0.5251 1.00161 0.02471 0.0
H542 H 0.49534 0.01338 0.10927 0.0
C543 C 0.49147 0.07543 0.04872 0.0
C544 C 0.47256 0.07526 0.0602 0.0
C545 C 0.50198 0.05864 0.04781 0.0
C546 C 0.50351 0.01025 0.08538 0.0
H547 H 0.57543 0.95126 0.02105 0.0
H548 H 0.55896 0.9813 0.02497 0.0
H549 H 0.51202 0.98331 0.10578 0.0
H550 H 0.44999 0.05737 0.08029 0.0
H551 H 0.46826 0.02831 0.07881 0.0
H552 H 0.51663 0.02867 1.00448 0.0
C553 C 0.55197 0.96875 0.03502 0.0
C554 C 0.51302 0.99297 0.08329 0.0
C555 C 0.56148 0.95149 0.03296 0.0
C556 C 0.46452 0.05804 0.07126 0.0
C557 C 0.47502 0.04136 0.07064 0.0
C558 C 0.51568 0.01895 0.0269 0.0
C559 C 0.53389 0.96986 0.0505 0.0
C560 C 0.52386 0.98836 0.05284 0.0
C561 C 0.49384 0.04141 0.05873 0.0
C562 C 0.50467 0.02342 0.05715 0.0
H563 H 0.52838 0.92335 0.07253 0.0
H564 H 0.51157 0.95343 0.07548 0.0
H565 H 0.53307 0.99846 1.0006 0.0
H566 H 0.49807 0.08846 0.04001 0.0
H567 H 0.5165 0.05915 0.03875 0.0
C568 C 0.0715 0.47982 0.05484 0.0
C569 C 0.08006 0.4759 0.02155 0.0
C570 C 0.05338 0.48772 0.0563 0.0
C571 C 0.01028 0.49288 1.00055 0.0
H572 H 0.99593 0.53017 0.07189 0.0
C573 C 0.9413 0.53578 0.99121 0.0
C574 C 0.93115 0.53923 0.02301 0.0
C575 C 0.95902 0.52714 0.99236 0.0
C576 C 0.99966 0.51958 0.0521 0.0
H577 H 0.07665 0.47804 0.96374 0.0
H578 H 0.04539 0.49215 0.96629 0.0
H579 H 0.02813 0.51785 0.07128 0.0
H580 H 0.93153 0.53594 0.08099 0.0
H581 H 0.96254 0.5208 0.08296 0.0
H582 H 0.98192 0.49479 0.98107 0.0
C583 C 0.0524 0.48867 0.9913 0.0
C584 C 0.01813 0.51252 0.05172 0.0
C585 C 0.07042 0.48071 0.98984 0.0
C586 C 0.93897 0.53347 0.05598 0.0
C587 C 0.9568 0.52493 0.05715 0.0
C588 C 0.99189 0.49998 1.00085 0.0
C589 C 0.04347 0.49193 0.02451 0.0
C590 C 0.02373 0.49921 0.02571 0.0
C591 C 0.96709 0.52182 0.02536 0.0
C592 C 0.98639 0.51353 0.02642 0.0
H593 H 0.07851 0.47622 0.07978 0.0
H594 H 0.04691 0.48993 0.08234 0.0
H595 H 0.01393 0.48231 0.98067 0.0
H596 H 0.93572 0.54005 0.96536 0.0
H597 H 0.96665 0.52512 0.96741 0.0
C598 C 0.46096 0.44957 0.253 0.0
C599 C 0.46679 0.43528 0.27669 0.0
C600 C 0.46997 0.46711 0.25268 0.0
C601 C 0.51273 0.49306 0.28399 0.0
H602 H 0.48027 0.53658 0.26988 0.0
C603 C 0.53762 0.57043 0.30592 0.0
C604 C 0.53288 0.58338 0.27868 0.0
C605 C 0.52992 0.55221 0.30607 0.0
C606 C 0.48954 0.52457 0.27359 0.0
H607 H 0.48702 0.42796 0.31802 0.0
H608 H 0.50256 0.4589 0.3183 0.0
H609 H 0.46671 0.50499 0.26944 0.0
H610 H 0.5161 0.58737 0.23052 0.0
H611 H 0.50242 0.55566 0.23115 0.0
H612 H 0.5355 0.51293 0.28896 0.0
C613 C 0.4912 0.45643 0.29941 0.0
C614 C 0.4818 0.5064 0.27318 0.0
C615 C 0.48229 0.4387 0.29935 0.0
C616 C 0.52002 0.57778 0.25192 0.0
C617 C 0.51215 0.55963 0.25233 0.0
C618 C 0.52045 0.5113 0.28479 0.0
C619 C 0.48489 0.471 0.27651 0.0
C620 C 0.4933 0.49036 0.27798 0.0
C621 C 0.51712 0.5466 0.27925 0.0
C622 C 0.50895 0.52724 0.2793 0.0
H623 H 0.44921 0.44728 0.23484 0.0
H624 H 0.46507 0.47769 0.23387 0.0
H625 H 0.52207 0.48109 0.28741 0.0
H626 H 0.54753 0.57425 0.32688 0.0
H627 H 0.53387 0.54255 0.32735 0.0
C628 C 0.43976 0.02783 0.55201 0.0
C629 C 0.43019 0.03106 0.51947 0.0
C630 C 0.45797 0.02015 0.55207 0.0
C631 C 0.49956 0.01361 0.49258 0.0
H632 H 0.51566 0.97844 0.56632 0.0
C633 C 0.56924 0.97137 0.48372 0.0
C634 C 0.57988 0.9692 0.51534 0.0
C635 C 0.55134 0.97968 0.48475 0.0
C636 C 0.51144 0.98843 0.54579 0.0
H637 H 0.43203 0.02809 0.46154 0.0
H638 H 0.4635 0.0143 0.46167 0.0
H639 H 0.48342 0.99054 0.56696 0.0
H640 H 0.58018 0.97443 0.57282 0.0
H641 H 0.54889 0.98895 0.57458 0.0
H642 H 0.52753 0.01126 0.47115 0.0
C643 C 0.45717 0.01814 0.48715 0.0
C644 C 0.49295 0.99537 0.54613 0.0
C645 C 0.43903 0.02591 0.48708 0.0
C646 C 0.57236 0.97588 0.54796 0.0
C647 C 0.55438 0.98407 0.54902 0.0
C648 C 0.51801 0.00659 0.49213 0.0
C649 C 0.46701 0.01541 0.5196 0.0
C650 C 0.48673 0.00801 0.51945 0.0
C651 C 0.54359 0.98592 0.51747 0.0
C652 C 0.52416 0.99387 0.51866 0.0
H653 H 0.4334 0.03171 0.57746 0.0
H654 H 0.46514 0.01843 0.57756 0.0
H655 H 0.49544 0.02362 0.47203 0.0
H656 H 0.57459 0.96638 0.45814 0.0
H657 H 0.54335 0.98073 0.46001 0.0
C658 C 0.02611 0.07614 0.79034 0.0
C659 C 0.03983 0.07847 0.8173 0.0
C660 C 0.01684 0.05878 0.78601 0.0
C661 C 0.00616 0.01364 0.83268 0.0
H662 H 0.99998 0.99404 0.73602 0.0
C663 C 0.98223 0.93671 0.8063 0.0
C664 C 0.96885 0.93392 0.77887 0.0
C665 C 0.99115 0.95425 0.81049 0.0
C666 C 1.00141 0.99937 0.76318 0.0
H667 H 0.05418 0.0645 0.86144 0.0
H668 H 0.03812 0.03437 0.85383 0.0
H669 H 0.01396 0.02521 0.74497 0.0
H670 H 0.95472 0.94731 0.73382 0.0
H671 H 0.97013 0.9778 0.74129 0.0
H672 H 0.99361 0.98783 0.85092 0.0
C673 C 0.03439 0.04593 0.83615 0.0
C674 C 0.0094 0.01728 0.76831 0.0
C675 C 0.04368 0.06323 0.84039 0.0
C676 C 0.96497 0.94892 0.75522 0.0
C677 C 0.97389 0.96643 0.7594 0.0
C678 C 0.99816 0.99575 0.82756 0.0
C679 C 0.02102 0.0434 0.80865 0.0
C680 C 0.01191 0.02462 0.80313 0.0
C681 C 0.98693 0.9694 0.78733 0.0
C682 C 0.99572 0.98836 0.79275 0.0
H683 H 0.02281 0.08759 0.77208 0.0
H684 H 0.00643 0.05738 0.76484 0.0
H685 H 0.00765 0.01896 0.85985 0.0
H686 H 0.98557 0.92546 0.82496 0.0
H687 H 1.00135 0.95595 0.83195 0.0
C688 C 0.09875 0.12668 0.68171 0.0
C689 C 0.09493 0.11041 0.70217 0.0
C690 C 0.10243 0.12528 0.6449 0.0
C691 C 0.09259 0.09352 0.56881 0.0
H692 H 0.12712 0.12629 0.51719 0.0
C693 C 0.09269 0.09526 0.41477 0.0
C694 C 0.11049 0.09448 0.39818 0.0
C695 C 0.09116 0.09927 0.45145 0.0
C696 C 0.11747 0.11698 0.53124 0.0
H697 H 0.09327 0.07981 0.70049 0.0
H698 H 0.10011 0.07733 0.63644 0.0
H699 H 0.12561 0.12786 0.58272 0.0
H700 H 0.14057 0.09835 0.40668 0.0
H701 H 0.13791 0.10507 0.47062 0.0
H702 H 0.08476 0.08228 0.51764 0.0
C703 C 0.09975 0.09123 0.64867 0.0
C704 C 0.11651 0.11798 0.56876 0.0
C705 C 0.09599 0.09263 0.68545 0.0
C706 C 0.12663 0.09885 0.4186 0.0
C707 C 0.1251 0.10276 0.45531 0.0
C708 C 0.09358 0.0925 0.53141 0.0
C709 C 0.10246 0.10757 0.62776 0.0
C710 C 0.10407 0.10623 0.58799 0.0
C711 C 0.1074 0.10249 0.47237 0.0
C712 C 0.106 0.10422 0.51212 0.0
H713 H 0.09803 0.14062 0.69373 0.0
H714 H 0.10434 0.13816 0.62961 0.0
H715 H 0.08262 0.08448 0.58267 0.0
H716 H 0.07997 0.09212 0.39975 0.0
H717 H 0.07727 0.09937 0.46361 0.0
C718 C 0.9017 0.65302 0.6801 0.0
C719 C 0.90589 0.63772 0.65732 0.0
C720 C 0.89621 0.64992 0.71572 0.0
C721 C 0.90115 0.61417 0.78682 0.0
H722 H 0.86504 0.64536 0.838 0.0
C723 C 0.8944 0.60971 0.94013 0.0
C724 C 0.87598 0.60876 0.95406 0.0
C725 C 0.89746 0.61489 0.90438 0.0
C726 C 0.8751 0.63648 0.82404 0.0
H727 H 0.90648 0.60712 0.65347 0.0
H728 H 0.89657 0.60172 0.71535 0.0
H729 H 0.86987 0.6501 0.77358 0.0
H730 H 0.84639 0.61339 0.9418 0.0
H731 H 0.85173 0.62224 0.87932 0.0
H732 H 0.90616 0.60029 0.83688 0.0
C733 C 0.89796 0.61613 0.70594 0.0
C734 C 0.87797 0.63928 0.78719 0.0
C735 C 0.9035 0.61923 0.67037 0.0
C736 C 0.86077 0.61402 0.93195 0.0
C737 C 0.86383 0.61914 0.89611 0.0
C738 C 0.89829 0.61137 0.82354 0.0
C739 C 0.89473 0.63144 0.7293 0.0
C740 C 0.89104 0.62816 0.76816 0.0
C741 C 0.88217 0.61916 0.88167 0.0
C742 C 0.8853 0.62252 0.84266 0.0
H743 H 0.90339 0.66745 0.67092 0.0
H744 H 0.89395 0.66203 0.73301 0.0
H745 H 0.91154 0.60554 0.77316 0.0
H746 H 0.90644 0.60588 0.95651 0.0
H747 H 0.9118 0.61517 0.89431 0.0
C748 C 0.40382 0.3851 0.18099 0.0
C749 C 0.42344 0.38262 0.18421 0.0
C750 C 0.39539 0.38616 0.14694 0.0
C751 C 0.40434 0.37515 0.05062 0.0
H752 H 0.3683 0.41516 0.03217 0.0
C753 C 0.3905 0.40591 0.90986 0.0
C754 C 0.37206 0.41152 0.90093 0.0
C755 C 0.3946 0.39915 0.94427 0.0
C756 C 0.37809 0.40369 0.03699 0.0
H757 H 0.44953 0.37919 0.15422 0.0
H758 H 0.43496 0.38127 0.09547 0.0
H759 H 0.37925 0.4096 0.09342 0.0
H760 H 0.34328 0.41352 0.92065 0.0
H761 H 0.35049 0.40171 0.98068 0.0
H762 H 0.40367 0.36969 0.99399 0.0
C763 C 0.42598 0.38209 0.119 0.0
C764 C 0.38435 0.40049 0.07211 0.0
C765 C 0.43437 0.38108 0.15281 0.0
C766 C 0.35765 0.40938 0.92665 0.0
C767 C 0.36178 0.40273 0.96114 0.0
C768 C 0.39813 0.37839 0.01552 0.0
C769 C 0.40641 0.38465 0.11556 0.0
C770 C 0.3979 0.38648 0.0792 0.0
C771 C 0.38037 0.39792 0.97055 0.0
C772 C 0.38525 0.39296 0.00821 0.0
H773 H 0.39502 0.3863 0.20469 0.0
H774 H 0.38024 0.38805 0.14518 0.0
H775 H 0.41449 0.36397 0.05528 0.0
H776 H 0.40192 0.40738 0.8907 0.0
H777 H 0.4091 0.39571 0.95078 0.0
C778 C 0.62268 0.89925 0.43566 0.0
C779 C 0.6406 0.9022 0.45091 0.0
C780 C 0.62087 0.89489 0.39916 0.0
C781 C 0.64501 0.90365 0.31442 0.0
H782 H 0.60801 0.86889 0.27513 0.0
C783 C 0.61277 0.91045 0.17257 0.0
C784 C 0.60941 0.89383 0.15286 0.0
C785 C 0.6197 0.90952 0.20771 0.0
C786 C 0.61858 0.87848 0.28566 0.0
H787 H 0.67072 0.90193 0.44015 0.0
H788 H 0.66751 0.89439 0.37643 0.0
H789 H 0.61381 0.86945 0.33991 0.0
H790 H 0.61147 0.86322 0.15404 0.0
H791 H 0.62345 0.86165 0.21552 0.0
H792 H 0.64937 0.91308 0.2603 0.0
C793 C 0.65488 0.89555 0.39272 0.0
C794 C 0.62178 0.8789 0.32274 0.0
C795 C 0.6567 0.89972 0.42929 0.0
C796 C 0.61394 0.8763 0.16845 0.0
C797 C 0.62066 0.87537 0.20375 0.0
C798 C 0.64167 0.90337 0.27739 0.0
C799 C 0.63693 0.89355 0.3771 0.0
C800 C 0.63484 0.89167 0.33755 0.0
C801 C 0.62324 0.89195 0.22398 0.0
C802 C 0.62823 0.89097 0.26268 0.0
H803 H 0.61 0.90107 0.45158 0.0
H804 H 0.60685 0.89354 0.38783 0.0
H805 H 0.65503 0.91378 0.32508 0.0
H806 H 0.60944 0.92416 0.16132 0.0
H807 H 0.62142 0.92253 0.22272 0.0
C808 C 0.1184 0.36783 0.66671 0.0
C809 C 0.10598 0.3805 0.6498 0.0
C810 C 0.12392 0.3707 0.70245 0.0
C811 C 0.12341 0.4068 0.77595 0.0
H812 H 0.12571 0.36296 0.83838 0.0
C813 C 0.1164 0.41252 0.92885 0.0
C814 C 0.13145 0.40497 0.94888 0.0
C815 C 0.11454 0.40838 0.89235 0.0
C816 C 0.12525 0.37528 0.82113 0.0
H817 H 0.08998 0.40638 0.65695 0.0
H818 H 0.09908 0.41108 0.71904 0.0
H819 H 0.12106 0.35863 0.77374 0.0
H820 H 0.15571 0.38632 0.94673 0.0
H821 H 0.15203 0.37864 0.88278 0.0
H822 H 0.12671 0.42341 0.8237 0.0
C823 C 0.105 0.39915 0.70473 0.0
C824 C 0.12271 0.37285 0.78408 0.0
C825 C 0.09968 0.39639 0.66901 0.0
C826 C 0.14399 0.39236 0.93201 0.0
C827 C 0.14191 0.38796 0.89549 0.0
C828 C 0.12561 0.40921 0.81294 0.0
C829 C 0.11701 0.38623 0.72214 0.0
C830 C 0.12147 0.38861 0.76105 0.0
C831 C 0.12747 0.39637 0.87521 0.0
C832 C 0.12628 0.3935 0.83589 0.0
H833 H 0.12356 0.35547 0.65259 0.0
H834 H 0.13345 0.36064 0.71472 0.0
H835 H 0.12303 0.41926 0.75908 0.0
H836 H 0.1065 0.4223 0.94092 0.0
H837 H 0.10316 0.41486 0.8773 0.0
C838 C 0.60323 0.62829 0.18564 0.0
C839 C 0.59935 0.6118 0.20544 0.0
C840 C 0.6067 0.62731 0.14868 0.0
C841 C 0.59555 0.59688 0.0715 0.0
H842 H 0.63086 0.62897 0.02025 0.0
C843 C 0.59497 0.60006 0.91747 0.0
C844 C 0.61267 0.59823 0.90079 0.0
C845 C 0.59372 0.60401 0.95423 0.0
C846 C 0.62096 0.61989 0.0342 0.0
H847 H 0.59738 0.58124 0.20236 0.0
H848 H 0.60374 0.57952 0.13805 0.0
H849 H 0.62978 0.62995 0.08592 0.0
H850 H 0.64293 0.60041 0.90917 0.0
H851 H 0.64074 0.60714 0.97318 0.0
H852 H 0.58697 0.58651 0.02007 0.0
C853 C 0.60366 0.59325 0.15096 0.0
C854 C 0.62027 0.62054 0.07179 0.0
C855 C 0.60018 0.59422 0.18789 0.0
C856 C 0.62906 0.60165 0.92118 0.0
C857 C 0.62781 0.60559 0.95792 0.0
C858 C 0.59623 0.59626 0.03402 0.0
C859 C 0.60638 0.60982 0.13074 0.0
C860 C 0.6076 0.60896 0.09087 0.0
C861 C 0.61015 0.60623 0.97509 0.0
C862 C 0.60894 0.60773 0.01489 0.0
H863 H 0.60274 0.64207 0.19831 0.0
H864 H 0.60868 0.64035 0.13391 0.0
H865 H 0.58541 0.58801 0.08529 0.0
H866 H 0.58206 0.59763 0.90253 0.0
H867 H 0.57989 0.6048 0.96653 0.0
C868 C 0.36298 0.10172 0.42402 0.0
C869 C 0.37696 0.09885 0.45032 0.0
C870 C 0.3679 0.10771 0.38946 0.0
C871 C 0.40649 0.12882 0.33553 0.0
H872 H 0.38528 0.09906 0.25771 0.0
C873 C 0.44173 0.12489 0.19712 0.0
C874 C 0.43039 0.12465 0.16613 0.0
C875 C 0.43365 0.12366 0.23121 0.0
C876 C 0.3911 0.10774 0.27901 0.0
H877 H 0.40695 0.10099 0.46145 0.0
H878 H 0.41551 0.11145 0.40123 0.0
H879 H 0.37385 0.09444 0.31893 0.0
H880 H 0.40159 0.12286 0.14664 0.0
H881 H 0.38738 0.12077 0.20655 0.0
H882 H 0.42396 0.14189 0.29576 0.0
C883 C 0.40074 0.10912 0.40733 0.0
C884 C 0.38455 0.10509 0.31411 0.0
C885 C 0.39583 0.10306 0.44184 0.0
C886 C 0.41071 0.12302 0.17001 0.0
C887 C 0.40259 0.12179 0.2043 0.0
C888 C 0.413 0.1315 0.30045 0.0
C889 C 0.38688 0.11107 0.38051 0.0
C890 C 0.39243 0.11535 0.34286 0.0
C891 C 0.41399 0.12221 0.23529 0.0
C892 C 0.40567 0.1207 0.27188 0.0
H893 H 0.34829 0.09868 0.42967 0.0
H894 H 0.35688 0.10934 0.36951 0.0
H895 H 0.41263 0.13715 0.35701 0.0
H896 H 0.45695 0.12603 0.19516 0.0
H897 H 0.44289 0.12361 0.25441 0.0
C898 C 0.89919 0.85932 0.68397 0.0
C899 C 0.90243 0.87402 0.7087 0.0
C900 C 0.89311 0.86333 0.64903 0.0
C901 C 0.87242 0.90066 0.5915 0.0
H902 H 0.90303 0.87834 0.51613 0.0
C903 C 0.87987 0.9351 0.45323 0.0
C904 C 0.88095 0.92374 0.42229 0.0
C905 C 0.87984 0.927 0.48737 0.0
C906 C 0.89409 0.88443 0.53671 0.0
H907 H 0.90077 0.90434 0.7168 0.0
H908 H 0.89003 0.9113 0.65604 0.0
H909 H 0.90678 0.86767 0.57808 0.0
H910 H 0.88275 0.89487 0.40298 0.0
H911 H 0.88264 0.88062 0.46303 0.0
H912 H 0.86001 0.91769 0.55036 0.0
C913 C 0.89219 0.89668 0.66359 0.0
C914 C 0.89624 0.87832 0.57224 0.0
C915 C 0.89842 0.89269 0.6984 0.0
C916 C 0.88196 0.90401 0.42631 0.0
C917 C 0.88194 0.89586 0.46068 0.0
C918 C 0.87022 0.9067 0.55601 0.0
C919 C 0.88994 0.88209 0.63824 0.0
C920 C 0.88577 0.88672 0.60013 0.0
C921 C 0.88084 0.9073 0.4916 0.0
C922 C 0.8814 0.89904 0.52834 0.0
H923 H 0.90217 0.84478 0.69102 0.0
H924 H 0.8913 0.85179 0.63018 0.0
H925 H 0.86394 0.90717 0.61233 0.0
H926 H 0.87914 0.95035 0.45121 0.0
H927 H 0.8794 0.93628 0.51054 0.0
C928 C 0.07967 0.14203 0.94588 0.0
C929 C 0.0869 0.13476 0.91349 0.0
C930 C 0.08789 0.13721 0.97884 0.0
C931 C 0.11535 0.09936 0.02117 0.0
H932 H 0.1223 0.1355 0.09847 0.0
C933 C 0.14725 0.07657 0.15699 0.0
C934 C 0.13887 0.084 0.1882 0.0
C935 C 0.14293 0.08403 0.12315 0.0
C936 C 0.12029 0.12518 0.0773 0.0
H937 H 0.10878 0.11707 0.89037 0.0
H938 H 0.12304 0.10862 0.94789 0.0
H939 H 0.11091 0.14629 0.04003 0.0
H940 H 0.11972 0.10544 0.20833 0.0
H941 H 0.11188 0.11816 0.14943 0.0
H942 H 0.12412 0.07815 0.05844 0.0
C943 C 0.11095 0.11798 0.94776 0.0
C944 C 0.11381 0.13139 0.04377 0.0
C945 C 0.10284 0.12293 0.91478 0.0
C946 C 0.1265 0.09943 0.18487 0.0
C947 C 0.12206 0.1068 0.15101 0.0
C948 C 0.12169 0.09313 0.05472 0.0
C949 C 0.10342 0.12487 0.9802 0.0
C950 C 0.11117 0.11853 0.01538 0.0
C951 C 0.13 0.09902 0.11961 0.0
C952 C 0.12415 0.10592 0.08335 0.0
H953 H 0.06743 0.15119 0.94587 0.0
H954 H 0.08166 0.14264 1.00335 0.0
H955 H 0.11318 0.08904 1.00004 0.0
H956 H 0.15694 0.06477 0.15861 0.0
H957 H 0.14962 0.07792 0.0997 0.0
C958 C 0.90699 0.62543 0.44101 0.0
C959 C 0.92448 0.63476 0.44362 0.0
C960 C 0.89916 0.62128 0.40736 0.0
C961 C 0.90096 0.6337 0.31087 0.0
H962 H 0.88399 0.58217 0.29615 0.0
C963 C 0.8887 0.6025 0.1691 0.0
C964 C 0.87454 0.58877 0.16434 0.0
C965 C 0.89298 0.60942 0.20339 0.0
C966 C 0.88831 0.59672 0.29983 0.0
H967 H 0.94708 0.64769 0.41286 0.0
H968 H 0.93332 0.64059 0.35424 0.0
H969 H 0.89442 0.59218 0.35554 0.0
H970 H 0.85327 0.57214 0.19184 0.0
H971 H 0.86035 0.58457 0.25147 0.0
H972 H 0.89485 0.63831 0.25522 0.0
C973 C 0.92567 0.63647 0.37821 0.0
C974 C 0.89434 0.60244 0.33395 0.0
C975 C 0.9336 0.64046 0.41184 0.0
C976 C 0.86435 0.5826 0.19456 0.0
C977 C 0.86852 0.58965 0.22884 0.0
C978 C 0.89476 0.62804 0.27678 0.0
C979 C 0.90853 0.62654 0.37557 0.0
C980 C 0.90095 0.62093 0.33979 0.0
C981 C 0.88311 0.60293 0.23383 0.0
C982 C 0.88856 0.60939 0.27066 0.0
H983 H 0.89958 0.62085 0.46494 0.0
H984 H 0.88582 0.61379 0.40621 0.0
H985 H 0.90576 0.64811 0.31463 0.0
H986 H 0.8969 0.60751 0.14645 0.0
H987 H 0.90448 0.61942 0.20608 0.0
C988 C 0.38252 0.45288 0.65923 0.0
C989 C 0.38 0.44002 0.68763 0.0
C990 C 0.38688 0.44651 0.62465 0.0
C991 C 0.38714 0.40465 0.56468 0.0
H992 H 0.42764 0.43182 0.51717 0.0
C993 C 0.41067 0.39081 0.41636 0.0
C994 C 0.43025 0.3908 0.40998 0.0
C995 C 0.4035 0.396 0.45013 0.0
C996 C 0.41636 0.42401 0.53009 0.0
H997 H 0.37935 0.41025 0.70148 0.0
H998 H 0.38704 0.39911 0.64094 0.0
H999 H 0.41662 0.44233 0.5758 0.0
H1000 H 0.45762 0.3958 0.43449 0.0
H1001 H 0.44516 0.40478 0.49292 0.0
H1002 H 0.38716 0.38615 0.51886 0.0
C1003 C 0.38555 0.41415 0.64551 0.0
C1004 C 0.40989 0.43017 0.56357 0.0
C1005 C 0.38122 0.42055 0.68024 0.0
C1006 C 0.44246 0.39574 0.43828 0.0
C1007 C 0.43531 0.401 0.47182 0.0
C1008 C 0.39355 0.39853 0.53093 0.0
C1009 C 0.38883 0.42709 0.61747 0.0
C1010 C 0.39524 0.42056 0.58138 0.0
C1011 C 0.41575 0.40143 0.47808 0.0
C1012 C 0.40835 0.40807 0.51339 0.0
H1013 H 0.38155 0.46797 0.66381 0.0
H1014 H 0.38897 0.45684 0.60355 0.0
H1015 H 0.37576 0.397 0.57759 0.0
H1016 H 0.40087 0.38706 0.39517 0.0
H1017 H 0.38835 0.39627 0.45406 0.0
C1018 C 0.62362 0.94284 0.68908 0.0
C1019 C 0.628 0.93037 0.66083 0.0
C1020 C 0.61936 0.93597 0.72334 0.0
C1021 C 0.62311 0.89449 0.78341 0.0
H1022 H 0.57968 0.91732 0.82971 0.0
C1023 C 0.6021 0.8814 0.93302 0.0
C1024 C 0.5827 0.88 0.94069 0.0
C1025 C 0.6083 0.886 0.89829 0.0
C1026 C 0.59175 0.91067 0.81709 0.0
H1027 H 0.63201 0.90087 0.64692 0.0
H1028 H 0.62453 0.88885 0.70696 0.0
H1029 H 0.5896 0.92841 0.77079 0.0
H1030 H 0.55465 0.88154 0.91739 0.0
H1031 H 0.56543 0.88941 0.85713 0.0
H1032 H 0.62509 0.87662 0.8299 0.0
C1033 C 0.62446 0.90398 0.70249 0.0
C1034 C 0.59758 0.9172 0.78345 0.0
C1035 C 0.62868 0.91086 0.66805 0.0
C1036 C 0.56969 0.88263 0.91258 0.0
C1037 C 0.57587 0.88726 0.87801 0.0
C1038 C 0.61732 0.88801 0.8173 0.0
C1039 C 0.6194 0.91645 0.73035 0.0
C1040 C 0.61335 0.90924 0.76619 0.0
C1041 C 0.59521 0.88937 0.87056 0.0
C1042 C 0.60153 0.896 0.83448 0.0
H1043 H 0.62309 0.95795 0.68464 0.0
H1044 H 0.61587 0.94599 0.74434 0.0
H1045 H 0.63536 0.88813 0.7709 0.0
H1046 H 0.6125 0.87947 0.95404 0.0
H1047 H 0.62329 0.88761 0.8935 0.0
C1048 C 0.08112 0.3659 0.40993 0.0
C1049 C 0.08677 0.37644 0.44013 0.0
C1050 C 0.08815 0.37019 0.37572 0.0
C1051 C 0.12586 0.39727 0.32793 0.0
H1052 H 0.09028 0.39569 0.24876 0.0
C1053 C 0.13847 0.43508 0.19193 0.0
C1054 C 0.13276 0.42579 0.1603 0.0
C1055 C 0.13442 0.42738 0.22571 0.0
C1056 C 0.10048 0.39596 0.27045 0.0
H1057 H 0.10461 0.39953 0.45804 0.0
H1058 H 0.11654 0.40726 0.39846 0.0
H1059 H 0.08034 0.3854 0.30824 0.0
H1060 H 0.11876 0.40079 0.13946 0.0
H1061 H 0.11166 0.38739 0.19844 0.0
H1062 H 0.14582 0.40837 0.29008 0.0
C1063 C 0.10693 0.39544 0.40117 0.0
C1064 C 0.09479 0.39002 0.30464 0.0
C1065 C 0.1 0.39107 0.43541 0.0
C1066 C 0.12334 0.40834 0.16325 0.0
C1067 C 0.11916 0.40071 0.19706 0.0
C1068 C 0.1315 0.40334 0.29375 0.0
C1069 C 0.10092 0.38522 0.37075 0.0
C1070 C 0.10735 0.3907 0.33395 0.0
C1071 C 0.12444 0.41026 0.22869 0.0
C1072 C 0.11884 0.40287 0.26465 0.0
H1073 H 0.07105 0.35445 0.41261 0.0
H1074 H 0.08346 0.36175 0.35311 0.0
H1075 H 0.13603 0.39771 0.34964 0.0
H1076 H 0.14576 0.44852 0.19067 0.0
H1077 H 0.13855 0.43517 0.24952 0.0
C1078 C 0.6306 0.59646 0.6859 0.0
C1079 C 0.63067 0.57682 0.69182 0.0
C1080 C 0.6262 0.6038 0.65189 0.0
C1081 C 0.5993 0.59117 0.57108 0.0
H1082 H 0.62541 0.63306 0.5257 0.0
C1083 C 0.56869 0.62768 0.44658 0.0
C1084 C 0.58103 0.63036 0.4174 0.0
C1085 C 0.57563 0.62274 0.48042 0.0
C1086 C 0.61803 0.62132 0.53804 0.0
H1087 H 0.62696 0.5495 0.66613 0.0
H1088 H 0.61932 0.56226 0.60721 0.0
H1089 H 0.63665 0.62087 0.58364 0.0
H1090 H 0.61048 0.6308 0.40146 0.0
H1091 H 0.62264 0.62219 0.46087 0.0
H1092 H 0.58074 0.59147 0.52577 0.0
C1093 C 0.62243 0.57201 0.62889 0.0
C1094 C 0.62437 0.61444 0.57128 0.0
C1095 C 0.62691 0.56471 0.66269 0.0
C1096 C 0.60058 0.6288 0.42333 0.0
C1097 C 0.60756 0.62393 0.45738 0.0
C1098 C 0.59288 0.59813 0.53818 0.0
C1099 C 0.62166 0.59163 0.62323 0.0
C1100 C 0.61511 0.59921 0.58806 0.0
C1101 C 0.5951 0.62041 0.48607 0.0
C1102 C 0.60214 0.61328 0.52124 0.0
H1103 H 0.63346 0.60619 0.70773 0.0
H1104 H 0.62565 0.61898 0.6484 0.0
H1105 H 0.59171 0.57958 0.58346 0.0
H1106 H 0.55355 0.6289 0.44314 0.0
H1107 H 0.56569 0.62045 0.50212 0.0
C1108 C 0.3842 0.06009 0.69383 0.0
C1109 C 0.38148 0.07272 0.66513 0.0
C1110 C 0.3888 0.06674 0.72811 0.0
C1111 C 0.38944 0.10887 0.7872 0.0
H1112 H 0.43091 0.08251 0.83313 0.0
C1113 C 0.41462 0.12281 0.93468 0.0
C1114 C 0.43428 0.12318 0.9401 0.0
C1115 C 0.40709 0.11772 0.90113 0.0
C1116 C 0.41937 0.09009 0.82064 0.0
H1117 H 0.38065 0.10238 0.65048 0.0
H1118 H 0.38871 0.11402 0.71055 0.0
H1119 H 0.41928 0.0716 0.77518 0.0
H1120 H 0.4614 0.11907 0.91404 0.0
H1121 H 0.44832 0.11024 0.85601 0.0
H1122 H 0.38977 0.1275 0.83285 0.0
C1123 C 0.38723 0.09893 0.70641 0.0
C1124 C 0.41255 0.0837 0.78757 0.0
C1125 C 0.38268 0.09225 0.67196 0.0
C1126 C 0.4462 0.11883 0.911 0.0
C1127 C 0.4387 0.11366 0.8777 0.0
C1128 C 0.39618 0.11519 0.82059 0.0
C1129 C 0.39076 0.08621 0.73469 0.0
C1130 C 0.39755 0.09302 0.77034 0.0
C1131 C 0.41907 0.11276 0.87245 0.0
C1132 C 0.41134 0.10595 0.83753 0.0
H1133 H 0.38325 0.04496 0.6897 0.0
H1134 H 0.3911 0.05658 0.74943 0.0
H1135 H 0.3778 0.1163 0.7747 0.0
H1136 H 0.40505 0.1261 0.95651 0.0
H1137 H 0.3919 0.11709 0.89796 0.0
C1138 C 0.88645 0.90953 0.19036 0.0
C1139 C 0.87656 0.92659 0.19519 0.0
C1140 C 0.89149 0.9034 0.15581 0.0
C1141 C 0.90211 0.92278 0.06683 0.0
H1142 H 0.8994 0.87082 0.03384 0.0
C1143 C 0.94234 0.8976 0.9417 0.0
C1144 C 0.93221 0.88694 0.91625 0.0
C1145 C 0.93476 0.90126 0.97564 0.0
C1146 C 0.90014 0.8854 0.04266 0.0
H1147 H 0.86353 0.95013 0.16725 0.0
H1148 H 0.87237 0.93947 0.10729 0.0
H1149 H 0.88673 0.87927 0.09314 0.0
H1150 H 0.90634 0.87124 0.90711 0.0
H1151 H 0.89314 0.87751 0.96691 0.0
H1152 H 0.91564 0.92895 0.01676 0.0
C1153 C 0.87637 0.93093 0.13021 0.0
C1154 C 0.89303 0.8902 0.07666 0.0
C1155 C 0.87123 0.93698 0.16462 0.0
C1156 C 0.9145 0.87953 0.92605 0.0
C1157 C 0.90697 0.88305 0.9603 0.0
C1158 C 0.90939 0.91796 0.03316 0.0
C1159 C 0.88687 0.91427 0.12542 0.0
C1160 C 0.89394 0.90897 0.0891 0.0
C1161 C 0.91691 0.89424 0.98523 0.0
C1162 C 0.90858 0.89921 0.02072 0.0
H1163 H 0.89076 0.90117 0.21331 0.0
H1164 H 0.89965 0.89054 0.15302 0.0
H1165 H 0.90322 0.93732 0.07574 0.0
H1166 H 0.95605 0.90349 0.93521 0.0
H1167 H 0.94288 0.9097 0.99443 0.0
loop_
_geom_bond_atom_site_label_1
_geom_bond_atom_site_label_2
_geom_bond_distance
_geom_bond_site_symmetry_2
_ccdc_geom_bond_type
Mg0 O7 2.141 . S
Mg0 O8 2.048 . S
Mg0 O9 2.048 . S
Mg0 O12 2.141 . S
C1 O2 1.313 . S
C1 O8 1.195 . S
O2 C1 1.313 . S
C3 O4 1.245 . S
C3 O12 1.289 . S
O4 C3 1.245 . S
C5 O6 1.245 . S
C5 O7 1.289 . S
O6 C5 1.245 . S
O7 Mg0 2.141 . S
O7 C5 1.289 . S
O8 Mg0 2.048 . S
O8 C1 1.195 . S
O9 Mg0 2.048 . S
O9 C10 1.195 . S
C10 O9 1.195 . S
C10 O11 1.313 . S
O11 C10 1.313 . S
O12 Mg0 2.141 . S
O12 C3 1.289 . S
Mg13 O20 2.141 . S
Mg13 O21 2.048 . S
Mg13 O22 2.048 . S
Mg13 O25 2.141 . S
C14 O15 1.313 . S
C14 O21 1.195 . S
O15 C14 1.313 . S
C16 O17 1.245 . S
C16 O25 1.289 . S
O17 C16 1.245 . S
C18 O19 1.245 . S
C18 O20 1.289 . S
O19 C18 1.245 . S
O20 Mg13 2.141 . S
O20 C18 1.289 . S
O21 Mg13 2.048 . S
O21 C14 1.195 . S
O22 Mg13 2.048 . S
O22 C23 1.195 . S
C23 O22 1.195 . S
C23 O24 1.313 . S
O24 C23 1.313 . S
O25 Mg13 2.141 . S
O25 C16 1.289 . S
Mg26 O33 2.141 . S
Mg26 O34 2.048 . S
Mg26 O35 2.048 . S
Mg26 O38 2.141 . S
C27 O28 1.313 . S
C27 O34 1.195 . S
O28 C27 1.313 . S
C29 O30 1.245 . S
C29 O38 1.289 . S
O30 C29 1.245 . S
C31 O32 1.245 . S
C31 O33 1.289 . S
O32 C31 1.245 . S
O33 Mg26 2.141 . S
O33 C31 1.289 . S
O34 Mg26 2.048 . S
O34 C27 1.195 . S
O35 Mg26 2.048 . S
O35 C36 1.195 . S
C36 O35 1.195 . S
C36 O37 1.313 . S
O37 C36 1.313 . S
O38 Mg26 2.141 . S
O38 C29 1.289 . S
Mg39 O46 2.141 . S
Mg39 O47 2.048 . S
Mg39 O48 2.048 . S
Mg39 O51 2.141 . S
C40 O41 1.313 . S
C40 O47 1.195 . S
O41 C40 1.313 . S
C42 O43 1.245 . S
C42 O51 1.289 1_556 S
O43 C42 1.245 . S
C44 O45 1.245 . S
C44 O46 1.289 . S
O45 C44 1.245 . S
O46 Mg39 2.141 . S
O46 C44 1.289 . S
O47 Mg39 2.048 . S
O47 C40 1.195 . S
O48 Mg39 2.048 . S
O48 C49 1.195 . S
C49 O48 1.195 . S
C49 O50 1.313 . S
O50 C49 1.313 . S
O51 Mg39 2.141 . S
O51 C42 1.289 1_554 S
Mg52 O59 2.141 . S
Mg52 O60 2.048 1_554 S
Mg52 O61 2.048 . S
Mg52 O64 2.141 . S
C53 O54 1.313 . S
C53 O60 1.195 . S
O54 C53 1.313 . S
C55 O56 1.245 . S
C55 O64 1.289 . S
O56 C55 1.245 . S
C57 O58 1.245 . S
C57 O59 1.289 . S
O58 C57 1.245 . S
O59 Mg52 2.141 . S
O59 C57 1.289 . S
O60 Mg52 2.048 1_556 S
O60 C53 1.195 . S
O61 Mg52 2.048 . S
O61 C62 1.195 . S
C62 O61 1.195 . S
C62 O63 1.313 . S
O63 C62 1.313 . S
O64 Mg52 2.141 . S
O64 C55 1.289 . S
Mg65 O72 2.141 . S
Mg65 O73 2.048 . S
Mg65 O74 2.048 . S
Mg65 O77 2.141 . S
C66 O67 1.313 . S
C66 O73 1.195 . S
O67 C66 1.313 . S
C68 O69 1.245 . S
C68 O77 1.289 . S
O69 C68 1.245 . S
C70 O71 1.245 . S
C70 O72 1.289 . S
O71 C70 1.245 . S
O72 Mg65 2.141 . S
O72 C70 1.289 . S
O73 Mg65 2.048 . S
O73 C66 1.195 . S
O74 Mg65 2.048 . S
O74 C75 1.195 . S
C75 O74 1.195 . S
C75 O76 1.313 . S
O76 C75 1.313 . S
O77 Mg65 2.141 . S
O77 C68 1.289 . S
Mg78 O85 2.141 . S
Mg78 O86 2.048 . S
Mg78 O87 2.048 . S
Mg78 O90 2.141 . S
C79 O80 1.313 . S
C79 O86 1.195 . S
O80 C79 1.313 . S
C81 O82 1.245 . S
C81 O90 1.289 . S
O82 C81 1.245 . S
C83 O84 1.245 . S
C83 O85 1.289 . S
O84 C83 1.245 . S
O85 Mg78 2.141 . S
O85 C83 1.289 . S
O86 Mg78 2.048 . S
O86 C79 1.195 . S
O87 Mg78 2.048 . S
O87 C88 1.195 . S
C88 O87 1.195 . S
C88 O89 1.313 . S
O89 C88 1.313 . S
O90 Mg78 2.141 . S
O90 C81 1.289 . S
Mg91 O98 2.141 . S
Mg91 O99 2.048 . S
Mg91 O100 2.048 . S
Mg91 O103 2.141 . S
C92 O93 1.313 . S
C92 O99 1.195 . S
O93 C92 1.313 . S
C94 O95 1.245 . S
C94 O103 1.289 . S
O95 C94 1.245 . S
C96 O97 1.245 . S
C96 O98 1.289 . S
O97 C96 1.245 . S
O98 Mg91 2.141 . S
O98 C96 1.289 . S
O99 Mg91 2.048 . S
O99 C92 1.195 . S
O100 Mg91 2.048 . S
O100 C101 1.195 . S
C101 O100 1.195 . S
C101 O102 1.313 . S
O102 C101 1.313 . S
O103 Mg91 2.141 . S
O103 C94 1.289 . S
Mg104 O111 2.141 . S
Mg104 O112 2.048 . S
Mg104 O113 2.048 . S
Mg104 O116 2.141 . S
C105 O106 1.313 . S
C105 O112 1.195 . S
O106 C105 1.313 . S
C107 O108 1.245 . S
C107 O116 1.289 . S
O108 C107 1.245 . S
C109 O110 1.245 . S
C109 O111 1.289 . S
O110 C109 1.245 . S
O111 Mg104 2.141 . S
O111 C109 1.289 . S
O112 Mg104 2.048 . S
O112 C105 1.195 . S
O113 Mg104 2.048 . S
O113 C114 1.195 . S
C114 O113 1.195 . S
C114 O115 1.313 . S
O115 C114 1.313 . S
O116 Mg104 2.141 . S
O116 C107 1.289 . S
Mg117 O124 2.141 . S
Mg117 O125 2.048 . S
Mg117 O126 2.048 . S
Mg117 O129 2.141 . S
C118 O119 1.313 . S
C118 O125 1.195 . S
O119 C118 1.313 . S
C120 O121 1.245 . S
C120 O129 1.289 1_556 S
O121 C120 1.245 . S
C122 O123 1.245 . S
C122 O124 1.289 . S
O123 C122 1.245 . S
O124 Mg117 2.141 . S
O124 C122 1.289 . S
O125 Mg117 2.048 . S
O125 C118 1.195 . S
O126 Mg117 2.048 . S
O126 C127 1.195 . S
C127 O126 1.195 . S
C127 O128 1.313 . S
O128 C127 1.313 . S
O129 Mg117 2.141 . S
O129 C120 1.289 1_554 S
Mg130 O137 2.141 . S
Mg130 O138 2.048 . S
Mg130 O139 2.048 . S
Mg130 O142 2.141 . S
C131 O132 1.313 . S
C131 O138 1.195 . S
O132 C131 1.313 . S
C133 O134 1.245 . S
C133 O142 1.289 . S
O134 C133 1.245 . S
C135 O136 1.245 . S
C135 O137 1.289 . S
O136 C135 1.245 . S
O137 Mg130 2.141 . S
O137 C135 1.289 . S
O138 Mg130 2.048 . S
O138 C131 1.195 . S
O139 Mg130 2.048 . S
O139 C140 1.195 . S
C140 O139 1.195 . S
C140 O141 1.313 . S
O141 C140 1.313 . S
O142 Mg130 2.141 . S
O142 C133 1.289 . S
Mg143 O150 2.141 . S
Mg143 O151 2.048 . S
Mg143 O152 2.048 . S
Mg143 O155 2.141 . S
C144 O145 1.313 . S
C144 O151 1.195 . S
O145 C144 1.313 . S
C146 O147 1.245 . S
C146 O155 1.289 . S
O147 C146 1.245 . S
C148 O149 1.245 . S
C148 O150 1.289 . S
O149 C148 1.245 . S
O150 Mg143 2.141 . S
O150 C148 1.289 . S
O151 Mg143 2.048 . S
O151 C144 1.195 . S
O152 Mg143 2.048 . S
O152 C153 1.195 . S
C153 O152 1.195 . S
C153 O154 1.313 . S
O154 C153 1.313 . S
O155 Mg143 2.141 . S
O155 C146 1.289 . S
Mg156 O163 2.141 . S
Mg156 O164 2.048 . S
Mg156 O165 2.048 . S
Mg156 O168 2.141 . S
C157 O158 1.313 . S
C157 O164 1.195 . S
O158 C157 1.313 . S
C159 O160 1.245 . S
C159 O168 1.289 . S
O160 C159 1.245 . S
C161 O162 1.245 . S
C161 O163 1.289 . S
O162 C161 1.245 . S
O163 Mg156 2.141 . S
O163 C161 1.289 . S
O164 Mg156 2.048 . S
O164 C157 1.195 . S
O165 Mg156 2.048 . S
O165 C166 1.195 . S
C166 O165 1.195 . S
C166 O167 1.313 . S
O167 C166 1.313 . S
O168 Mg156 2.141 . S
O168 C159 1.289 . S
Mg169 O176 2.141 . S
Mg169 O177 2.048 . S
Mg169 O178 2.048 . S
Mg169 O181 2.141 . S
C170 O171 1.313 . S
C170 O177 1.195 . S
O171 C170 1.313 . S
C172 O173 1.245 . S
C172 O181 1.289 . S
O173 C172 1.245 . S
C174 O175 1.245 . S
C174 O176 1.289 . S
O175 C174 1.245 . S
O176 Mg169 2.141 . S
O176 C174 1.289 . S
O177 Mg169 2.048 . S
O177 C170 1.195 . S
O178 Mg169 2.048 . S
O178 C179 1.195 . S
C179 O178 1.195 . S
C179 O180 1.313 . S
O180 C179 1.313 . S
O181 Mg169 2.141 . S
O181 C172 1.289 . S
Mg182 O189 2.141 . S
Mg182 O190 2.048 1_554 S
Mg182 O191 2.048 . S
Mg182 O194 2.141 . S
C183 O184 1.313 . S
C183 O190 1.195 . S
O184 C183 1.313 . S
C185 O186 1.245 . S
C185 O194 1.289 . S
O186 C185 1.245 . S
C187 O188 1.245 . S
C187 O189 1.289 . S
O188 C187 1.245 . S
O189 Mg182 2.141 . S
O189 C187 1.289 . S
O190 Mg182 2.048 1_556 S
O190 C183 1.195 . S
O191 Mg182 2.048 . S
O191 C192 1.195 . S
C192 O191 1.195 . S
C192 O193 1.313 . S
O193 C192 1.313 . S
O194 Mg182 2.141 . S
O194 C185 1.289 . S
Mg195 O202 2.141 . S
Mg195 O203 2.048 . S
Mg195 O204 2.048 . S
Mg195 O207 2.141 . S
C196 O197 1.313 . S
C196 O203 1.195 . S
O197 C196 1.313 . S
C198 O199 1.245 . S
C198 O207 1.289 . S
O199 C198 1.245 . S
C200 O201 1.245 . S
C200 O202 1.289 . S
O201 C200 1.245 . S
O202 Mg195 2.141 . S
O202 C200 1.289 . S
O203 Mg195 2.048 . S
O203 C196 1.195 . S
O204 Mg195 2.048 . S
O204 C205 1.195 . S
C205 O204 1.195 . S
C205 O206 1.313 . S
O206 C205 1.313 . S
O207 Mg195 2.141 . S
O207 C198 1.289 . S
C208 C209 1.349 . S
C208 C210 1.327 . S
C208 H233 0.950 . S
C209 C208 1.349 . S
C209 C225 1.349 . S
C210 C208 1.327 . S
C210 C229 1.429 . S
C210 H234 0.950 . S
C211 C228 1.574 . S
C211 C230 1.368 . S
C211 H235 0.949 . S
H212 C216 0.949 . S
C213 C214 1.349 . S
C213 C215 1.327 . S
C213 H236 0.950 . S
C214 C213 1.349 . S
C214 C226 1.349 . S
C215 C213 1.327 . S
C215 C231 1.429 . S
C215 H237 0.950 . S
C216 H212 0.949 . S
C216 C224 1.574 . S
C216 C232 1.368 . S
H217 C225 0.950 . S
H218 C223 0.950 . S
H219 C224 0.949 . S
H220 C226 0.950 . S
H221 C227 0.950 . S
H222 C228 0.949 . S
C223 H218 0.950 . S
C223 C225 1.327 . S
C223 C229 1.429 . S
C224 C216 1.574 . S
C224 H219 0.949 . S
C224 C230 1.368 . S
C225 C209 1.349 . S
C225 H217 0.950 . S
C225 C223 1.327 . S
C226 C214 1.349 . S
C226 H220 0.950 . S
C226 C227 1.327 . S
C227 H221 0.950 . S
C227 C226 1.327 . S
C227 C231 1.429 . S
C228 C211 1.574 . S
C228 H222 0.949 . S
C228 C232 1.368 . S
C229 C210 1.429 . S
C229 C223 1.429 . S
C229 C230 1.523 . S
C230 C211 1.368 . S
C230 C224 1.368 . S
C230 C229 1.523 . S
C231 C215 1.429 . S
C231 C227 1.429 . S
C231 C232 1.523 . S
C232 C216 1.368 . S
C232 C228 1.368 . S
C232 C231 1.523 . S
H233 C208 0.950 . S
H234 C210 0.950 . S
H235 C211 0.949 . S
H236 C213 0.950 . S
H237 C215 0.950 . S
C238 C239 1.349 . S
C238 C240 1.327 . S
C238 H263 0.950 . S
C239 C238 1.349 . S
C239 C255 1.349 . S
C240 C238 1.327 . S
C240 C259 1.429 . S
C240 H264 0.950 . S
C241 C258 1.574 . S
C241 C260 1.368 . S
C241 H265 0.949 . S
H242 C246 0.949 . S
C243 C244 1.349 . S
C243 C245 1.327 . S
C243 H266 0.950 . S
C244 C243 1.349 . S
C244 C256 1.349 . S
C245 C243 1.327 . S
C245 C261 1.429 . S
C245 H267 0.950 . S
C246 H242 0.949 . S
C246 C254 1.574 . S
C246 C262 1.368 . S
H247 C255 0.950 . S
H248 C253 0.950 . S
H249 C254 0.949 . S
H250 C256 0.950 . S
H251 C257 0.950 . S
H252 C258 0.949 . S
C253 H248 0.950 . S
C253 C255 1.327 . S
C253 C259 1.429 . S
C254 C246 1.574 . S
C254 H249 0.949 . S
C254 C260 1.368 . S
C255 C239 1.349 . S
C255 H247 0.950 . S
C255 C253 1.327 . S
C256 C244 1.349 . S
C256 H250 0.950 . S
C256 C257 1.327 . S
C257 H251 0.950 . S
C257 C256 1.327 . S
C257 C261 1.429 . S
C258 C241 1.574 . S
C258 H252 0.949 . S
C258 C262 1.368 . S
C259 C240 1.429 . S
C259 C253 1.429 . S
C259 C260 1.523 . S
C260 C241 1.368 . S
C260 C254 1.368 . S
C260 C259 1.523 . S
C261 C245 1.429 . S
C261 C257 1.429 . S
C261 C262 1.523 . S
C262 C246 1.368 . S
C262 C258 1.368 . S
C262 C261 1.523 . S
H263 C238 0.950 . S
H264 C240 0.950 . S
H265 C241 0.949 . S
H266 C243 0.950 . S
H267 C245 0.950 . S
C268 C269 1.349 . S
C268 C270 1.327 . S
C268 H293 0.950 . S
C269 C268 1.349 . S
C269 C285 1.349 . S
C270 C268 1.327 . S
C270 C289 1.429 . S
C270 H294 0.950 . S
C271 C288 1.574 . S
C271 C290 1.368 . S
C271 H295 0.949 . S
H272 C276 0.949 . S
C273 C274 1.349 . S
C273 C275 1.327 . S
C273 H296 0.950 . S
C274 C273 1.349 . S
C274 C286 1.349 . S
C275 C273 1.327 . S
C275 C291 1.429 . S
C275 H297 0.950 . S
C276 H272 0.949 . S
C276 C284 1.574 . S
C276 C292 1.368 . S
H277 C285 0.950 . S
H278 C283 0.950 . S
H279 C284 0.949 . S
H280 C286 0.950 1_554 S
H281 C287 0.950 . S
H282 C288 0.949 . S
C283 H278 0.950 . S
C283 C285 1.327 . S
C283 C289 1.429 . S
C284 C276 1.574 . S
C284 H279 0.949 . S
C284 C290 1.368 . S
C285 C269 1.349 . S
C285 H277 0.950 . S
C285 C283 1.327 . S
C286 C274 1.349 . S
C286 H280 0.950 1_556 S
C286 C287 1.327 . S
C287 H281 0.950 . S
C287 C286 1.327 . S
C287 C291 1.429 . S
C288 C271 1.574 . S
C288 H282 0.949 . S
C288 C292 1.368 . S
C289 C270 1.429 . S
C289 C283 1.429 . S
C289 C290 1.523 . S
C290 C271 1.368 . S
C290 C284 1.368 . S
C290 C289 1.523 . S
C291 C275 1.429 . S
C291 C287 1.429 . S
C291 C292 1.523 . S
C292 C276 1.368 . S
C292 C288 1.368 . S
C292 C291 1.523 . S
H293 C268 0.950 . S
H294 C270 0.950 . S
H295 C271 0.949 . S
H296 C273 0.950 . S
H297 C275 0.950 . S
C298 C299 1.349 . S
C298 C300 1.327 . S
C298 H323 0.950 . S
C299 C298 1.349 . S
C299 C315 1.349 . S
C300 C298 1.327 . S
C300 C319 1.429 . S
C300 H324 0.950 . S
C301 C318 1.574 . S
C301 C320 1.368 . S
C301 H325 0.949 . S
H302 C306 0.949 . S
C303 C304 1.349 . S
C303 C305 1.327 . S
C303 H326 0.950 . S
C304 C303 1.349 . S
C304 C316 1.349 . S
C305 C303 1.327 . S
C305 C321 1.429 . S
C305 H327 0.950 . S
C306 H302 0.949 . S
C306 C314 1.574 . S
C306 C322 1.368 . S
H307 C315 0.950 . S
H308 C313 0.950 . S
H309 C314 0.949 . S
H310 C316 0.950 . S
H311 C317 0.950 . S
H312 C318 0.949 . S
C313 H308 0.950 . S
C313 C315 1.327 . S
C313 C319 1.429 . S
C314 C306 1.574 . S
C314 H309 0.949 . S
C314 C320 1.368 . S
C315 C299 1.349 . S
C315 H307 0.950 . S
C315 C313 1.327 . S
C316 C304 1.349 . S
C316 H310 0.950 . S
C316 C317 1.327 . S
C317 H311 0.950 . S
C317 C316 1.327 . S
C317 C321 1.429 . S
C318 C301 1.574 . S
C318 H312 0.949 . S
C318 C322 1.368 . S
C319 C300 1.429 . S
C319 C313 1.429 . S
C319 C320 1.523 . S
C320 C301 1.368 . S
C320 C314 1.368 . S
C320 C319 1.523 . S
C321 C305 1.429 . S
C321 C317 1.429 . S
C321 C322 1.523 . S
C322 C306 1.368 . S
C322 C318 1.368 . S
C322 C321 1.523 . S
H323 C298 0.950 . S
H324 C300 0.950 . S
H325 C301 0.949 . S
H326 C303 0.950 . S
H327 C305 0.950 . S
C328 C329 1.349 . S
C328 C330 1.327 . S
C328 H353 0.950 . S
C329 C328 1.349 . S
C329 C345 1.349 . S
C330 C328 1.327 . S
C330 C349 1.429 . S
C330 H354 0.950 . S
C331 C348 1.574 . S
C331 C350 1.368 . S
C331 H355 0.949 . S
H332 C336 0.949 . S
C333 C334 1.349 . S
C333 C335 1.327 . S
C333 H356 0.950 1_556 S
C334 C333 1.349 . S
C334 C346 1.349 . S
C335 C333 1.327 . S
C335 C351 1.429 . S
C335 H357 0.950 . S
C336 H332 0.949 . S
C336 C344 1.574 . S
C336 C352 1.368 . S
H337 C345 0.950 . S
H338 C343 0.950 . S
H339 C344 0.949 . S
H340 C346 0.950 . S
H341 C347 0.950 . S
H342 C348 0.949 . S
C343 H338 0.950 . S
C343 C345 1.327 . S
C343 C349 1.429 . S
C344 C336 1.574 . S
C344 H339 0.949 . S
C344 C350 1.368 . S
C345 C329 1.349 . S
C345 H337 0.950 . S
C345 C343 1.327 . S
C346 C334 1.349 . S
C346 H340 0.950 . S
C346 C347 1.327 . S
C347 H341 0.950 . S
C347 C346 1.327 . S
C347 C351 1.429 . S
C348 C331 1.574 . S
C348 H342 0.949 . S
C348 C352 1.368 . S
C349 C330 1.429 . S
C349 C343 1.429 . S
C349 C350 1.523 . S
C350 C331 1.368 . S
C350 C344 1.368 . S
C350 C349 1.523 . S
C351 C335 1.429 . S
C351 C347 1.429 . S
C351 C352 1.523 . S
C352 C336 1.368 . S
C352 C348 1.368 . S
C352 C351 1.523 . S
H353 C328 0.950 . S
H354 C330 0.950 . S
H355 C331 0.949 . S
H356 C333 0.950 1_554 S
H357 C335 0.950 . S
C358 C359 1.349 . S
C358 C360 1.327 . S
C358 H383 0.950 . S
C359 C358 1.349 . S
C359 C375 1.349 . S
C360 C358 1.327 . S
C360 C379 1.429 . S
C360 H384 0.950 . S
C361 C378 1.574 . S
C361 C380 1.368 . S
C361 H385 0.949 . S
H362 C366 0.949 . S
C363 C364 1.349 . S
C363 C365 1.327 . S
C363 H386 0.950 . S
C364 C363 1.349 . S
C364 C376 1.349 . S
C365 C363 1.327 . S
C365 C381 1.429 . S
C365 H387 0.950 . S
C366 H362 0.949 . S
C366 C374 1.574 . S
C366 C382 1.368 . S
H367 C375 0.950 . S
H368 C373 0.950 . S
H369 C374 0.949 . S
H370 C376 0.950 . S
H371 C377 0.950 . S
H372 C378 0.949 . S
C373 H368 0.950 . S
C373 C375 1.327 . S
C373 C379 1.429 . S
C374 C366 1.574 . S
C374 H369 0.949 . S
C374 C380 1.368 . S
C375 C359 1.349 . S
C375 H367 0.950 . S
C375 C373 1.327 . S
C376 C364 1.349 . S
C376 H370 0.950 . S
C376 C377 1.327 . S
C377 H371 0.950 . S
C377 C376 1.327 . S
C377 C381 1.429 . S
C378 C361 1.574 . S
C378 H372 0.949 . S
C378 C382 1.368 . S
C379 C360 1.429 . S
C379 C373 1.429 . S
C379 C380 1.523 . S
C380 C361 1.368 . S
C380 C374 1.368 . S
C380 C379 1.523 . S
C381 C365 1.429 . S
C381 C377 1.429 . S
C381 C382 1.523 . S
C382 C366 1.368 . S
C382 C378 1.368 . S
C382 C381 1.523 . S
H383 C358 0.950 . S
H384 C360 0.950 . S
H385 C361 0.949 . S
H386 C363 0.950 . S
H387 C365 0.950 . S
C388 C389 1.349 . S
C388 C390 1.327 . S
C388 H413 0.950 . S
C389 C388 1.349 . S
C389 C405 1.349 . S
C390 C388 1.327 . S
C390 C409 1.429 . S
C390 H414 0.950 . S
C391 C408 1.574 . S
C391 C410 1.368 . S
C391 H415 0.949 . S
H392 C396 0.949 . S
C393 C394 1.349 . S
C393 C395 1.327 . S
C393 H416 0.950 . S
C394 C393 1.349 . S
C394 C406 1.349 . S
C395 C393 1.327 . S
C395 C411 1.429 . S
C395 H417 0.950 . S
C396 H392 0.949 . S
C396 C404 1.574 . S
C396 C412 1.368 . S
H397 C405 0.950 . S
H398 C403 0.950 . S
H399 C404 0.949 . S
H400 C406 0.950 . S
H401 C407 0.950 . S
H402 C408 0.949 . S
C403 H398 0.950 . S
C403 C405 1.327 . S
C403 C409 1.429 . S
C404 C396 1.574 . S
C404 H399 0.949 . S
C404 C410 1.368 . S
C405 C389 1.349 . S
C405 H397 0.950 . S
C405 C403 1.327 . S
C406 C394 1.349 . S
C406 H400 0.950 . S
C406 C407 1.327 . S
C407 H401 0.950 . S
C407 C406 1.327 . S
C407 C411 1.429 . S
C408 C391 1.574 . S
C408 H402 0.949 . S
C408 C412 1.368 . S
C409 C390 1.429 . S
C409 C403 1.429 . S
C409 C410 1.523 . S
C410 C391 1.368 . S
C410 C404 1.368 . S
C410 C409 1.523 . S
C411 C395 1.429 . S
C411 C407 1.429 . S
C411 C412 1.523 . S
C412 C396 1.368 . S
C412 C408 1.368 . S
C412 C411 1.523 . S
H413 C388 0.950 . S
H414 C390 0.950 . S
H415 C391 0.949 . S
H416 C393 0.950 . S
H417 C395 0.950 . S
C418 C419 1.349 . S
C418 C420 1.327 . S
C418 H443 0.950 . S
C419 C418 1.349 . S
C419 C435 1.349 . S
C420 C418 1.327 . S
C420 C439 1.429 . S
C420 H444 0.950 . S
C421 C438 1.574 . S
C421 C440 1.368 . S
C421 H445 0.949 . S
H422 C426 0.949 . S
C423 C424 1.349 . S
C423 C425 1.327 . S
C423 H446 0.950 . S
C424 C423 1.349 . S
C424 C436 1.349 . S
C425 C423 1.327 . S
C425 C441 1.429 . S
C425 H447 0.950 . S
C426 H422 0.949 . S
C426 C434 1.574 . S
C426 C442 1.368 . S
H427 C435 0.950 . S
H428 C433 0.950 . S
H429 C434 0.949 . S
H430 C436 0.950 . S
H431 C437 0.950 . S
H432 C438 0.949 . S
C433 H428 0.950 . S
C433 C435 1.327 . S
C433 C439 1.429 . S
C434 C426 1.574 . S
C434 H429 0.949 . S
C434 C440 1.368 . S
C435 C419 1.349 . S
C435 H427 0.950 . S
C435 C433 1.327 . S
C436 C424 1.349 . S
C436 H430 0.950 . S
C436 C437 1.327 . S
C437 H431 0.950 . S
C437 C436 1.327 . S
C437 C441 1.429 . S
C438 C421 1.574 . S
C438 H432 0.949 . S
C438 C442 1.368 . S
C439 C420 1.429 . S
C439 C433 1.429 . S
C439 C440 1.523 . S
C440 C421 1.368 . S
C440 C434 1.368 . S
C440 C439 1.523 . S
C441 C425 1.429 . S
C441 C437 1.429 . S
C441 C442 1.523 . S
C442 C426 1.368 . S
C442 C438 1.368 . S
C442 C441 1.523 . S
H443 C418 0.950 . S
H444 C420 0.950 . S
H445 C421 0.949 . S
H446 C423 0.950 . S
H447 C425 0.950 . S
C448 C449 1.349 . S
C448 C450 1.327 . S
C448 H473 0.950 . S
C449 C448 1.349 . S
C449 C465 1.349 . S
C450 C448 1.327 . S
C450 C469 1.429 . S
C450 H474 0.950 . S
C451 C468 1.572 1_545 S
C451 C470 1.370 1_655 S
C451 H475 0.949 1_655 S
H452 C456 0.949 1_655 S
C453 C454 1.349 . S
C453 C455 1.327 . S
C453 H476 0.950 . S
C454 C453 1.349 . S
C454 C466 1.349 . S
C455 C453 1.327 . S
C455 C471 1.429 . S
C455 H477 0.950 . S
C456 H452 0.949 1_455 S
C456 C464 1.572 1_565 S
C456 C472 1.370 1_455 S
H457 C465 0.950 . S
H458 C463 0.950 . S
H459 C464 0.949 . S
H460 C466 0.950 . S
H461 C467 0.950 . S
H462 C468 0.949 . S
C463 H458 0.950 . S
C463 C465 1.327 . S
C463 C469 1.429 . S
C464 C456 1.572 1_545 S
C464 H459 0.949 . S
C464 C470 1.368 . S
C465 C449 1.349 . S
C465 H457 0.950 . S
C465 C463 1.327 . S
C466 C454 1.349 . S
C466 H460 0.950 . S
C466 C467 1.327 . S
C467 H461 0.950 . S
C467 C466 1.327 . S
C467 C471 1.429 . S
C468 C451 1.572 1_565 S
C468 H462 0.949 . S
C468 C472 1.368 . S
C469 C450 1.429 . S
C469 C463 1.429 . S
C469 C470 1.523 . S
C470 C451 1.370 1_455 S
C470 C464 1.368 . S
C470 C469 1.523 . S
C471 C455 1.429 . S
C471 C467 1.429 . S
C471 C472 1.523 . S
C472 C456 1.370 1_655 S
C472 C468 1.368 . S
C472 C471 1.523 . S
H473 C448 0.950 . S
H474 C450 0.950 . S
H475 C451 0.949 1_455 S
H476 C453 0.950 . S
H477 C455 0.950 . S
C478 C479 1.349 . S
C478 C480 1.327 . S
C478 H503 0.950 . S
C479 C478 1.349 . S
C479 C495 1.349 . S
C480 C478 1.327 . S
C480 C499 1.429 . S
C480 H504 0.950 . S
C481 C498 1.574 1_655 S
C481 C500 1.368 . S
C481 H505 0.949 . S
H482 C486 0.949 . S
C483 C484 1.349 . S
C483 C485 1.327 . S
C483 H506 0.950 . S
C484 C483 1.349 . S
C484 C496 1.349 . S
C485 C483 1.327 . S
C485 C501 1.429 . S
C485 H507 0.950 . S
C486 H482 0.949 . S
C486 C494 1.574 1_455 S
C486 C502 1.368 . S
H487 C495 0.950 . S
H488 C493 0.950 . S
H489 C494 0.949 . S
H490 C496 0.950 . S
H491 C497 0.950 . S
H492 C498 0.949 . S
C493 H488 0.950 . S
C493 C495 1.327 . S
C493 C499 1.429 . S
C494 C486 1.574 1_655 S
C494 H489 0.949 . S
C494 C500 1.368 . S
C495 C479 1.349 . S
C495 H487 0.950 . S
C495 C493 1.327 . S
C496 C484 1.349 . S
C496 H490 0.950 . S
C496 C497 1.327 . S
C497 H491 0.950 . S
C497 C496 1.327 . S
C497 C501 1.429 . S
C498 C481 1.574 1_455 S
C498 H492 0.949 . S
C498 C502 1.368 . S
C499 C480 1.429 . S
C499 C493 1.429 . S
C499 C500 1.523 . S
C500 C481 1.368 . S
C500 C494 1.368 . S
C500 C499 1.523 . S
C501 C485 1.429 . S
C501 C497 1.429 . S
C501 C502 1.523 . S
C502 C486 1.368 . S
C502 C498 1.368 . S
C502 C501 1.523 . S
H503 C478 0.950 . S
H504 C480 0.950 . S
H505 C481 0.949 . S
H506 C483 0.950 . S
H507 C485 0.950 . S
C508 C509 1.349 . S
C508 C510 1.327 . S
C508 H533 0.950 . S
C509 C508 1.349 . S
C509 C525 1.349 . S
C510 C508 1.327 . S
C510 C529 1.429 . S
C510 H534 0.950 . S
C511 C528 1.574 . S
C511 C530 1.368 . S
C511 H535 0.949 . S
H512 C516 0.949 . S
C513 C514 1.349 . S
C513 C515 1.327 . S
C513 H536 0.950 . S
C514 C513 1.349 . S
C514 C526 1.349 . S
C515 C513 1.327 . S
C515 C531 1.429 . S
C515 H537 0.950 . S
C516 H512 0.949 . S
C516 C524 1.574 . S
C516 C532 1.368 . S
H517 C525 0.950 . S
H518 C523 0.950 . S
H519 C524 0.949 . S
H520 C526 0.950 . S
H521 C527 0.950 . S
H522 C528 0.949 . S
C523 H518 0.950 . S
C523 C525 1.327 . S
C523 C529 1.429 . S
C524 C516 1.574 . S
C524 H519 0.949 . S
C524 C530 1.368 . S
C525 C509 1.349 . S
C525 H517 0.950 . S
C525 C523 1.327 . S
C526 C514 1.349 . S
C526 H520 0.950 . S
C526 C527 1.327 . S
C527 H521 0.950 . S
C527 C526 1.327 . S
C527 C531 1.429 . S
C528 C511 1.574 . S
C528 H522 0.949 . S
C528 C532 1.368 . S
C529 C510 1.429 . S
C529 C523 1.429 . S
C529 C530 1.523 . S
C530 C511 1.368 . S
C530 C524 1.368 . S
C530 C529 1.523 . S
C531 C515 1.429 . S
C531 C527 1.429 . S
C531 C532 1.523 . S
C532 C516 1.368 . S
C532 C528 1.368 . S
C532 C531 1.523 . S
H533 C508 0.950 . S
H534 C510 0.950 . S
H535 C511 0.949 . S
H536 C513 0.950 . S
H537 C515 0.950 . S
C538 C539 1.349 . S
C538 C540 1.327 . S
C538 H563 0.950 . S
C539 C538 1.349 . S
C539 C555 1.349 . S
C540 C538 1.327 . S
C540 C559 1.429 . S
C540 H564 0.950 . S
C541 C558 1.571 . S
C541 C560 1.368 . S
C541 H565 0.949 . S
H542 C546 0.949 . S
C543 C544 1.349 . S
C543 C545 1.327 . S
C543 H566 0.950 . S
C544 C543 1.349 . S
C544 C556 1.349 . S
C545 C543 1.327 . S
C545 C561 1.429 . S
C545 H567 0.950 . S
C546 H542 0.949 . S
C546 C554 1.571 . S
C546 C562 1.368 . S
H547 C555 0.950 . S
H548 C553 0.950 . S
H549 C554 0.949 1_565 S
H550 C556 0.950 . S
H551 C557 0.950 . S
H552 C558 0.949 1_545 S
C553 H548 0.950 . S
C553 C555 1.327 . S
C553 C559 1.429 . S
C554 C546 1.571 . S
C554 H549 0.949 1_545 S
C554 C560 1.371 1_545 S
C555 C539 1.349 . S
C555 H547 0.950 . S
C555 C553 1.327 . S
C556 C544 1.349 . S
C556 H550 0.950 . S
C556 C557 1.327 . S
C557 H551 0.950 . S
C557 C556 1.327 . S
C557 C561 1.429 . S
C558 C541 1.571 . S
C558 H552 0.949 1_565 S
C558 C562 1.371 1_565 S
C559 C540 1.429 . S
C559 C553 1.429 . S
C559 C560 1.523 . S
C560 C541 1.368 . S
C560 C554 1.371 1_565 S
C560 C559 1.523 . S
C561 C545 1.429 . S
C561 C557 1.429 . S
C561 C562 1.523 . S
C562 C546 1.368 . S
C562 C558 1.371 1_545 S
C562 C561 1.523 . S
H563 C538 0.950 . S
H564 C540 0.950 . S
H565 C541 0.949 . S
H566 C543 0.950 . S
H567 C545 0.950 . S
C568 C569 1.349 . S
C568 C570 1.327 . S
C568 H593 0.950 . S
C569 C568 1.349 . S
C569 C585 1.349 . S
C570 C568 1.327 . S
C570 C589 1.429 . S
C570 H594 0.950 . S
C571 C588 1.571 . S
C571 C590 1.380 1_655 S
C571 H595 0.940 1_654 S
H572 C576 0.949 1_655 S
C573 C574 1.349 . S
C573 C575 1.327 . S
C573 H596 0.950 1_554 S
C574 C573 1.349 . S
C574 C586 1.349 . S
C575 C573 1.327 . S
C575 C591 1.429 . S
C575 H597 0.950 1_554 S
C576 H572 0.949 1_455 S
C576 C584 1.571 . S
C576 C592 1.371 1_455 S
H577 C585 0.950 1_556 S
H578 C583 0.950 1_556 S
H579 C584 0.949 . S
H580 C586 0.950 . S
H581 C587 0.950 . S
H582 C588 0.940 1_556 S
C583 H578 0.950 1_554 S
C583 C585 1.327 . S
C583 C589 1.429 . S
C584 C576 1.571 . S
C584 H579 0.949 . S
C584 C590 1.368 . S
C585 C569 1.349 . S
C585 H577 0.950 1_554 S
C585 C583 1.327 . S
C586 C574 1.349 . S
C586 H580 0.950 . S
C586 C587 1.327 . S
C587 H581 0.950 . S
C587 C586 1.327 . S
C587 C591 1.429 . S
C588 C571 1.571 . S
C588 H582 0.940 1_554 S
C588 C592 1.378 . S
C589 C570 1.429 . S
C589 C583 1.429 . S
C589 C590 1.523 . S
C590 C571 1.380 1_455 S
C590 C584 1.368 . S
C590 C589 1.523 . S
C591 C575 1.429 . S
C591 C587 1.429 . S
C591 C592 1.523 . S
C592 C576 1.371 1_655 S
C592 C588 1.378 . S
C592 C591 1.523 . S
H593 C568 0.950 . S
H594 C570 0.950 . S
H595 C571 0.940 1_456 S
H596 C573 0.950 1_556 S
H597 C575 0.950 1_556 S
C598 C599 1.349 . S
C598 C600 1.327 . S
C598 H623 0.950 . S
C599 C598 1.349 . S
C599 C615 1.349 . S
C600 C598 1.327 . S
C600 C619 1.429 . S
C600 H624 0.950 . S
C601 C618 1.574 . S
C601 C620 1.368 . S
C601 H625 0.949 . S
H602 C606 0.949 . S
C603 C604 1.349 . S
C603 C605 1.327 . S
C603 H626 0.950 . S
C604 C603 1.349 . S
C604 C616 1.349 . S
C605 C603 1.327 . S
C605 C621 1.429 . S
C605 H627 0.950 . S
C606 H602 0.949 . S
C606 C614 1.574 . S
C606 C622 1.368 . S
H607 C615 0.950 . S
H608 C613 0.950 . S
H609 C614 0.949 . S
H610 C616 0.950 . S
H611 C617 0.950 . S
H612 C618 0.949 . S
C613 H608 0.950 . S
C613 C615 1.327 . S
C613 C619 1.429 . S
C614 C606 1.574 . S
C614 H609 0.949 . S
C614 C620 1.368 . S
C615 C599 1.349 . S
C615 H607 0.950 . S
C615 C613 1.327 . S
C616 C604 1.349 . S
C616 H610 0.950 . S
C616 C617 1.327 . S
C617 H611 0.950 . S
C617 C616 1.327 . S
C617 C621 1.429 . S
C618 C601 1.574 . S
C618 H612 0.949 . S
C618 C622 1.368 . S
C619 C600 1.429 . S
C619 C613 1.429 . S
C619 C620 1.523 . S
C620 C601 1.368 . S
C620 C614 1.368 . S
C620 C619 1.523 . S
C621 C605 1.429 . S
C621 C617 1.429 . S
C621 C622 1.523 . S
C622 C606 1.368 . S
C622 C618 1.368 . S
C622 C621 1.523 . S
H623 C598 0.950 . S
H624 C600 0.950 . S
H625 C601 0.949 . S
H626 C603 0.950 . S
H627 C605 0.950 . S
C628 C629 1.349 . S
C628 C630 1.327 . S
C628 H653 0.950 . S
C629 C628 1.349 . S
C629 C645 1.349 . S
C630 C628 1.327 . S
C630 C649 1.429 . S
C630 H654 0.950 . S
C631 C648 1.574 1_545 S
C631 C650 1.368 . S
C631 H655 0.949 . S
H632 C636 0.949 . S
C633 C634 1.349 . S
C633 C635 1.327 . S
C633 H656 0.950 . S
C634 C633 1.349 . S
C634 C646 1.349 . S
C635 C633 1.327 . S
C635 C651 1.429 . S
C635 H657 0.950 . S
C636 H632 0.949 . S
C636 C644 1.574 1_565 S
C636 C652 1.368 . S
H637 C645 0.950 . S
H638 C643 0.950 . S
H639 C644 0.949 . S
H640 C646 0.950 . S
H641 C647 0.950 . S
H642 C648 0.949 . S
C643 H638 0.950 . S
C643 C645 1.327 . S
C643 C649 1.429 . S
C644 C636 1.574 1_545 S
C644 H639 0.949 . S
C644 C650 1.368 . S
C645 C629 1.349 . S
C645 H637 0.950 . S
C645 C643 1.327 . S
C646 C634 1.349 . S
C646 H640 0.950 . S
C646 C647 1.327 . S
C647 H641 0.950 . S
C647 C646 1.327 . S
C647 C651 1.429 . S
C648 C631 1.574 1_565 S
C648 H642 0.949 . S
C648 C652 1.368 . S
C649 C630 1.429 . S
C649 C643 1.429 . S
C649 C650 1.523 . S
C650 C631 1.368 . S
C650 C644 1.368 . S
C650 C649 1.523 . S
C651 C635 1.429 . S
C651 C647 1.429 . S
C651 C652 1.523 . S
C652 C636 1.368 . S
C652 C648 1.368 . S
C652 C651 1.523 . S
H653 C628 0.950 . S
H654 C630 0.950 . S
H655 C631 0.949 . S
H656 C633 0.950 . S
H657 C635 0.950 . S
C658 C659 1.349 . S
C658 C660 1.327 . S
C658 H683 0.950 . S
C659 C658 1.349 . S
C659 C675 1.349 . S
C660 C658 1.327 . S
C660 C679 1.429 . S
C660 H684 0.950 . S
C661 C678 1.572 1_455 S
C661 C680 1.368 . S
C661 H685 0.949 . S
H662 C666 0.949 . S
C663 C664 1.349 . S
C663 C665 1.327 . S
C663 H686 0.950 . S
C664 C663 1.349 . S
C664 C676 1.349 . S
C665 C663 1.327 . S
C665 C681 1.429 . S
C665 H687 0.950 . S
C666 H662 0.949 . S
C666 C674 1.572 1_655 S
C666 C682 1.368 . S
H667 C675 0.950 . S
H668 C673 0.950 . S
H669 C674 0.949 1_545 S
H670 C676 0.950 . S
H671 C677 0.950 . S
H672 C678 0.949 1_565 S
C673 H668 0.950 . S
C673 C675 1.327 . S
C673 C679 1.429 . S
C674 C666 1.572 1_455 S
C674 H669 0.949 1_565 S
C674 C680 1.370 1_565 S
C675 C659 1.349 . S
C675 H667 0.950 . S
C675 C673 1.327 . S
C676 C664 1.349 . S
C676 H670 0.950 . S
C676 C677 1.327 . S
C677 H671 0.950 . S
C677 C676 1.327 . S
C677 C681 1.429 . S
C678 C661 1.572 1_655 S
C678 H672 0.949 1_545 S
C678 C682 1.370 1_545 S
C679 C660 1.429 . S
C679 C673 1.429 . S
C679 C680 1.523 . S
C680 C661 1.368 . S
C680 C674 1.370 1_545 S
C680 C679 1.523 . S
C681 C665 1.429 . S
C681 C677 1.429 . S
C681 C682 1.523 . S
C682 C666 1.368 . S
C682 C678 1.370 1_565 S
C682 C681 1.523 . S
H683 C658 0.950 . S
H684 C660 0.950 . S
H685 C661 0.949 . S
H686 C663 0.950 . S
H687 C665 0.950 . S
C688 C689 1.349 . S
C688 C690 1.327 . S
C688 H713 0.950 . S
C689 C688 1.349 . S
C689 C705 1.349 . S
C690 C688 1.327 . S
C690 C709 1.429 . S
C690 H714 0.950 . S
C691 C708 1.574 . S
C691 C710 1.368 . S
C691 H715 0.949 . S
H692 C696 0.949 . S
C693 C694 1.349 . S
C693 C695 1.327 . S
C693 H716 0.950 . S
C694 C693 1.349 . S
C694 C706 1.349 . S
C695 C693 1.327 . S
C695 C711 1.429 . S
C695 H717 0.950 . S
C696 H692 0.949 . S
C696 C704 1.574 . S
C696 C712 1.368 . S
H697 C705 0.950 . S
H698 C703 0.950 . S
H699 C704 0.949 . S
H700 C706 0.950 . S
H701 C707 0.950 . S
H702 C708 0.949 . S
C703 H698 0.950 . S
C703 C705 1.327 . S
C703 C709 1.429 . S
C704 C696 1.574 . S
C704 H699 0.949 . S
C704 C710 1.368 . S
C705 C689 1.349 . S
C705 H697 0.950 . S
C705 C703 1.327 . S
C706 C694 1.349 . S
C706 H700 0.950 . S
C706 C707 1.327 . S
C707 H701 0.950 . S
C707 C706 1.327 . S
C707 C711 1.429 . S
C708 C691 1.574 . S
C708 H702 0.949 . S
C708 C712 1.368 . S
C709 C690 1.429 . S
C709 C703 1.429 . S
C709 C710 1.523 . S
C710 C691 1.368 . S
C710 C704 1.368 . S
C710 C709 1.523 . S
C711 C695 1.429 . S
C711 C707 1.429 . S
C711 C712 1.523 . S
C712 C696 1.368 . S
C712 C708 1.368 . S
C712 C711 1.523 . S
H713 C688 0.950 . S
H714 C690 0.950 . S
H715 C691 0.949 . S
H716 C693 0.950 . S
H717 C695 0.950 . S
C718 C719 1.349 . S
C718 C720 1.327 . S
C718 H743 0.950 . S
C719 C718 1.349 . S
C719 C735 1.349 . S
C720 C718 1.327 . S
C720 C739 1.429 . S
C720 H744 0.950 . S
C721 C738 1.574 . S
C721 C740 1.368 . S
C721 H745 0.949 . S
H722 C726 0.949 . S
C723 C724 1.349 . S
C723 C725 1.327 . S
C723 H746 0.950 . S
C724 C723 1.349 . S
C724 C736 1.349 . S
C725 C723 1.327 . S
C725 C741 1.429 . S
C725 H747 0.950 . S
C726 H722 0.949 . S
C726 C734 1.574 . S
C726 C742 1.368 . S
H727 C735 0.950 . S
H728 C733 0.950 . S
H729 C734 0.949 . S
H730 C736 0.950 . S
H731 C737 0.950 . S
H732 C738 0.949 . S
C733 H728 0.950 . S
C733 C735 1.327 . S
C733 C739 1.429 . S
C734 C726 1.574 . S
C734 H729 0.949 . S
C734 C740 1.368 . S
C735 C719 1.349 . S
C735 H727 0.950 . S
C735 C733 1.327 . S
C736 C724 1.349 . S
C736 H730 0.950 . S
C736 C737 1.327 . S
C737 H731 0.950 . S
C737 C736 1.327 . S
C737 C741 1.429 . S
C738 C721 1.574 . S
C738 H732 0.949 . S
C738 C742 1.368 . S
C739 C720 1.429 . S
C739 C733 1.429 . S
C739 C740 1.523 . S
C740 C721 1.368 . S
C740 C734 1.368 . S
C740 C739 1.523 . S
C741 C725 1.429 . S
C741 C737 1.429 . S
C741 C742 1.523 . S
C742 C726 1.368 . S
C742 C738 1.368 . S
C742 C741 1.523 . S
H743 C718 0.950 . S
H744 C720 0.950 . S
H745 C721 0.949 . S
H746 C723 0.950 . S
H747 C725 0.950 . S
C748 C749 1.349 . S
C748 C750 1.327 . S
C748 H773 0.950 . S
C749 C748 1.349 . S
C749 C765 1.349 . S
C750 C748 1.327 . S
C750 C769 1.429 . S
C750 H774 0.950 . S
C751 C768 1.574 . S
C751 C770 1.368 . S
C751 H775 0.949 . S
H752 C756 0.949 . S
C753 C754 1.349 . S
C753 C755 1.327 . S
C753 H776 0.950 . S
C754 C753 1.349 . S
C754 C766 1.349 . S
C755 C753 1.327 . S
C755 C771 1.429 . S
C755 H777 0.950 . S
C756 H752 0.949 . S
C756 C764 1.574 . S
C756 C772 1.368 . S
H757 C765 0.950 . S
H758 C763 0.950 . S
H759 C764 0.949 . S
H760 C766 0.950 . S
H761 C767 0.950 . S
H762 C768 0.939 1_556 S
C763 H758 0.950 . S
C763 C765 1.327 . S
C763 C769 1.429 . S
C764 C756 1.574 . S
C764 H759 0.949 . S
C764 C770 1.368 . S
C765 C749 1.349 . S
C765 H757 0.950 . S
C765 C763 1.327 . S
C766 C754 1.349 . S
C766 H760 0.950 . S
C766 C767 1.327 . S
C767 H761 0.950 . S
C767 C766 1.327 . S
C767 C771 1.429 . S
C768 C751 1.574 . S
C768 H762 0.939 1_554 S
C768 C772 1.368 . S
C769 C750 1.429 . S
C769 C763 1.429 . S
C769 C770 1.523 . S
C770 C751 1.368 . S
C770 C764 1.368 . S
C770 C769 1.523 . S
C771 C755 1.429 . S
C771 C767 1.429 . S
C771 C772 1.523 1_556 S
C772 C756 1.368 . S
C772 C768 1.368 . S
C772 C771 1.523 1_554 S
H773 C748 0.950 . S
H774 C750 0.950 . S
H775 C751 0.949 . S
H776 C753 0.950 . S
H777 C755 0.950 . S
C778 C779 1.349 . S
C778 C780 1.327 . S
C778 H803 0.950 . S
C779 C778 1.349 . S
C779 C795 1.349 . S
C780 C778 1.327 . S
C780 C799 1.429 . S
C780 H804 0.950 . S
C781 C798 1.574 . S
C781 C800 1.368 . S
C781 H805 0.949 . S
H782 C786 0.949 . S
C783 C784 1.349 . S
C783 C785 1.327 . S
C783 H806 0.950 . S
C784 C783 1.349 . S
C784 C796 1.349 . S
C785 C783 1.327 . S
C785 C801 1.429 . S
C785 H807 0.950 . S
C786 H782 0.949 . S
C786 C794 1.574 . S
C786 C802 1.368 . S
H787 C795 0.950 . S
H788 C793 0.950 . S
H789 C794 0.949 . S
H790 C796 0.950 . S
H791 C797 0.950 . S
H792 C798 0.949 . S
C793 H788 0.950 . S
C793 C795 1.327 . S
C793 C799 1.429 . S
C794 C786 1.574 . S
C794 H789 0.949 . S
C794 C800 1.368 . S
C795 C779 1.349 . S
C795 H787 0.950 . S
C795 C793 1.327 . S
C796 C784 1.349 . S
C796 H790 0.950 . S
C796 C797 1.327 . S
C797 H791 0.950 . S
C797 C796 1.327 . S
C797 C801 1.429 . S
C798 C781 1.574 . S
C798 H792 0.949 . S
C798 C802 1.368 . S
C799 C780 1.429 . S
C799 C793 1.429 . S
C799 C800 1.523 . S
C800 C781 1.368 . S
C800 C794 1.368 . S
C800 C799 1.523 . S
C801 C785 1.429 . S
C801 C797 1.429 . S
C801 C802 1.523 . S
C802 C786 1.368 . S
C802 C798 1.368 . S
C802 C801 1.523 . S
H803 C778 0.950 . S
H804 C780 0.950 . S
H805 C781 0.949 . S
H806 C783 0.950 . S
H807 C785 0.950 . S
C808 C809 1.349 . S
C808 C810 1.327 . S
C808 H833 0.950 . S
C809 C808 1.349 . S
C809 C825 1.349 . S
C810 C808 1.327 . S
C810 C829 1.429 . S
C810 H834 0.950 . S
C811 C828 1.574 . S
C811 C830 1.368 . S
C811 H835 0.949 . S
H812 C816 0.949 . S
C813 C814 1.349 . S
C813 C815 1.327 . S
C813 H836 0.950 . S
C814 C813 1.349 . S
C814 C826 1.349 . S
C815 C813 1.327 . S
C815 C831 1.429 . S
C815 H837 0.950 . S
C816 H812 0.949 . S
C816 C824 1.574 . S
C816 C832 1.368 . S
H817 C825 0.950 . S
H818 C823 0.950 . S
H819 C824 0.949 . S
H820 C826 0.950 . S
H821 C827 0.950 . S
H822 C828 0.949 . S
C823 H818 0.950 . S
C823 C825 1.327 . S
C823 C829 1.429 . S
C824 C816 1.574 . S
C824 H819 0.949 . S
C824 C830 1.368 . S
C825 C809 1.349 . S
C825 H817 0.950 . S
C825 C823 1.327 . S
C826 C814 1.349 . S
C826 H820 0.950 . S
C826 C827 1.327 . S
C827 H821 0.950 . S
C827 C826 1.327 . S
C827 C831 1.429 . S
C828 C811 1.574 . S
C828 H822 0.949 . S
C828 C832 1.368 . S
C829 C810 1.429 . S
C829 C823 1.429 . S
C829 C830 1.523 . S
C830 C811 1.368 . S
C830 C824 1.368 . S
C830 C829 1.523 . S
C831 C815 1.429 . S
C831 C827 1.429 . S
C831 C832 1.523 . S
C832 C816 1.368 . S
C832 C828 1.368 . S
C832 C831 1.523 . S
H833 C808 0.950 . S
H834 C810 0.950 . S
H835 C811 0.949 . S
H836 C813 0.950 . S
H837 C815 0.950 . S
C838 C839 1.349 . S
C838 C840 1.327 . S
C838 H863 0.950 . S
C839 C838 1.349 . S
C839 C855 1.349 . S
C840 C838 1.327 . S
C840 C859 1.429 . S
C840 H864 0.950 . S
C841 C858 1.574 . S
C841 C860 1.368 . S
C841 H865 0.949 . S
H842 C846 0.949 . S
C843 C844 1.349 . S
C843 C845 1.327 . S
C843 H866 0.950 . S
C844 C843 1.349 . S
C844 C856 1.349 . S
C845 C843 1.327 . S
C845 C861 1.429 . S
C845 H867 0.950 . S
C846 H842 0.949 . S
C846 C854 1.574 . S
C846 C862 1.368 . S
H847 C855 0.950 . S
H848 C853 0.950 . S
H849 C854 0.949 . S
H850 C856 0.950 . S
H851 C857 0.950 . S
H852 C858 0.949 . S
C853 H848 0.950 . S
C853 C855 1.327 . S
C853 C859 1.429 . S
C854 C846 1.574 . S
C854 H849 0.949 . S
C854 C860 1.368 . S
C855 C839 1.349 . S
C855 H847 0.950 . S
C855 C853 1.327 . S
C856 C844 1.349 . S
C856 H850 0.950 . S
C856 C857 1.327 . S
C857 H851 0.950 . S
C857 C856 1.327 . S
C857 C861 1.429 . S
C858 C841 1.574 . S
C858 H852 0.949 . S
C858 C862 1.368 . S
C859 C840 1.429 . S
C859 C853 1.429 . S
C859 C860 1.523 . S
C860 C841 1.368 . S
C860 C854 1.368 . S
C860 C859 1.523 . S
C861 C845 1.429 . S
C861 C857 1.429 . S
C861 C862 1.523 1_556 S
C862 C846 1.368 . S
C862 C858 1.368 . S
C862 C861 1.523 1_554 S
H863 C838 0.950 . S
H864 C840 0.950 . S
H865 C841 0.949 . S
H866 C843 0.950 . S
H867 C845 0.950 . S
C868 C869 1.349 . S
C868 C870 1.327 . S
C868 H893 0.950 . S
C869 C868 1.349 . S
C869 C885 1.349 . S
C870 C868 1.327 . S
C870 C889 1.429 . S
C870 H894 0.950 . S
C871 C888 1.574 . S
C871 C890 1.368 . S
C871 H895 0.949 . S
H872 C876 0.949 . S
C873 C874 1.349 . S
C873 C875 1.327 . S
C873 H896 0.950 . S
C874 C873 1.349 . S
C874 C886 1.349 . S
C875 C873 1.327 . S
C875 C891 1.429 . S
C875 H897 0.950 . S
C876 H872 0.949 . S
C876 C884 1.574 . S
C876 C892 1.368 . S
H877 C885 0.950 . S
H878 C883 0.950 . S
H879 C884 0.949 . S
H880 C886 0.950 . S
H881 C887 0.950 . S
H882 C888 0.949 . S
C883 H878 0.950 . S
C883 C885 1.327 . S
C883 C889 1.429 . S
C884 C876 1.574 . S
C884 H879 0.949 . S
C884 C890 1.368 . S
C885 C869 1.349 . S
C885 H877 0.950 . S
C885 C883 1.327 . S
C886 C874 1.349 . S
C886 H880 0.950 . S
C886 C887 1.327 . S
C887 H881 0.950 . S
C887 C886 1.327 . S
C887 C891 1.429 . S
C888 C871 1.574 . S
C888 H882 0.949 . S
C888 C892 1.368 . S
C889 C870 1.429 . S
C889 C883 1.429 . S
C889 C890 1.523 . S
C890 C871 1.368 . S
C890 C884 1.368 . S
C890 C889 1.523 . S
C891 C875 1.429 . S
C891 C887 1.429 . S
C891 C892 1.523 . S
C892 C876 1.368 . S
C892 C888 1.368 . S
C892 C891 1.523 . S
H893 C868 0.950 . S
H894 C870 0.950 . S
H895 C871 0.949 . S
H896 C873 0.950 . S
H897 C875 0.950 . S
C898 C899 1.349 . S
C898 C900 1.327 . S
C898 H923 0.950 . S
C899 C898 1.349 . S
C899 C915 1.349 . S
C900 C898 1.327 . S
C900 C919 1.429 . S
C900 H924 0.950 . S
C901 C918 1.574 . S
C901 C920 1.368 . S
C901 H925 0.949 . S
H902 C906 0.949 . S
C903 C904 1.349 . S
C903 C905 1.327 . S
C903 H926 0.950 . S
C904 C903 1.349 . S
C904 C916 1.349 . S
C905 C903 1.327 . S
C905 C921 1.429 . S
C905 H927 0.950 . S
C906 H902 0.949 . S
C906 C914 1.574 . S
C906 C922 1.368 . S
H907 C915 0.950 . S
H908 C913 0.950 . S
H909 C914 0.949 . S
H910 C916 0.950 . S
H911 C917 0.950 . S
H912 C918 0.949 . S
C913 H908 0.950 . S
C913 C915 1.327 . S
C913 C919 1.429 . S
C914 C906 1.574 . S
C914 H909 0.949 . S
C914 C920 1.368 . S
C915 C899 1.349 . S
C915 H907 0.950 . S
C915 C913 1.327 . S
C916 C904 1.349 . S
C916 H910 0.950 . S
C916 C917 1.327 . S
C917 H911 0.950 . S
C917 C916 1.327 . S
C917 C921 1.429 . S
C918 C901 1.574 . S
C918 H912 0.949 . S
C918 C922 1.368 . S
C919 C900 1.429 . S
C919 C913 1.429 . S
C919 C920 1.523 . S
C920 C901 1.368 . S
C920 C914 1.368 . S
C920 C919 1.523 . S
C921 C905 1.429 . S
C921 C917 1.429 . S
C921 C922 1.523 . S
C922 C906 1.368 . S
C922 C918 1.368 . S
C922 C921 1.523 . S
H923 C898 0.950 . S
H924 C900 0.950 . S
H925 C901 0.949 . S
H926 C903 0.950 . S
H927 C905 0.950 . S
C928 C929 1.349 . S
C928 C930 1.327 . S
C928 H953 0.950 . S
C929 C928 1.349 . S
C929 C945 1.349 . S
C930 C928 1.327 . S
C930 C949 1.429 . S
C930 H954 0.950 . S
C931 C948 1.574 . S
C931 C950 1.368 . S
C931 H955 0.949 1_554 S
H932 C936 0.949 . S
C933 C934 1.349 . S
C933 C935 1.327 . S
C933 H956 0.950 . S
C934 C933 1.349 . S
C934 C946 1.349 . S
C935 C933 1.327 . S
C935 C951 1.429 . S
C935 H957 0.950 . S
C936 H932 0.949 . S
C936 C944 1.574 . S
C936 C952 1.368 . S
H937 C945 0.950 . S
H938 C943 0.950 . S
H939 C944 0.949 . S
H940 C946 0.950 . S
H941 C947 0.950 . S
H942 C948 0.949 . S
C943 H938 0.950 . S
C943 C945 1.327 . S
C943 C949 1.429 . S
C944 C936 1.574 . S
C944 H939 0.949 . S
C944 C950 1.368 . S
C945 C929 1.349 . S
C945 H937 0.950 . S
C945 C943 1.327 . S
C946 C934 1.349 . S
C946 H940 0.950 . S
C946 C947 1.327 . S
C947 H941 0.950 . S
C947 C946 1.327 . S
C947 C951 1.429 . S
C948 C931 1.574 . S
C948 H942 0.949 . S
C948 C952 1.368 . S
C949 C930 1.429 . S
C949 C943 1.429 . S
C949 C950 1.523 1_556 S
C950 C931 1.368 . S
C950 C944 1.368 . S
C950 C949 1.523 1_554 S
C951 C935 1.429 . S
C951 C947 1.429 . S
C951 C952 1.523 . S
C952 C936 1.368 . S
C952 C948 1.368 . S
C952 C951 1.523 . S
H953 C928 0.950 . S
H954 C930 0.950 . S
H955 C931 0.949 1_556 S
H956 C933 0.950 . S
H957 C935 0.950 . S
C958 C959 1.349 . S
C958 C960 1.327 . S
C958 H983 0.950 . S
C959 C958 1.349 . S
C959 C975 1.349 . S
C960 C958 1.327 . S
C960 C979 1.429 . S
C960 H984 0.950 . S
C961 C978 1.574 . S
C961 C980 1.368 . S
C961 H985 0.949 . S
H962 C966 0.949 . S
C963 C964 1.349 . S
C963 C965 1.327 . S
C963 H986 0.950 . S
C964 C963 1.349 . S
C964 C976 1.349 . S
C965 C963 1.327 . S
C965 C981 1.429 . S
C965 H987 0.950 . S
C966 H962 0.949 . S
C966 C974 1.574 . S
C966 C982 1.368 . S
H967 C975 0.950 . S
H968 C973 0.950 . S
H969 C974 0.949 . S
H970 C976 0.950 . S
H971 C977 0.950 . S
H972 C978 0.949 . S
C973 H968 0.950 . S
C973 C975 1.327 . S
C973 C979 1.429 . S
C974 C966 1.574 . S
C974 H969 0.949 . S
C974 C980 1.368 . S
C975 C959 1.349 . S
C975 H967 0.950 . S
C975 C973 1.327 . S
C976 C964 1.349 . S
C976 H970 0.950 . S
C976 C977 1.327 . S
C977 H971 0.950 . S
C977 C976 1.327 . S
C977 C981 1.429 . S
C978 C961 1.574 . S
C978 H972 0.949 . S
C978 C982 1.368 . S
C979 C960 1.429 . S
C979 C973 1.429 . S
C979 C980 1.523 . S
C980 C961 1.368 . S
C980 C974 1.368 . S
C980 C979 1.523 . S
C981 C965 1.429 . S
C981 C977 1.429 . S
C981 C982 1.523 . S
C982 C966 1.368 . S
C982 C978 1.368 . S
C982 C981 1.523 . S
H983 C958 0.950 . S
H984 C960 0.950 . S
H985 C961 0.949 . S
H986 C963 0.950 . S
H987 C965 0.950 . S
C988 C989 1.349 . S
C988 C990 1.327 . S
C988 H1013 0.950 . S
C989 C988 1.349 . S
C989 C1005 1.349 . S
C990 C988 1.327 . S
C990 C1009 1.429 . S
C990 H1014 0.950 . S
C991 C1008 1.574 . S
C991 C1010 1.368 . S
C991 H1015 0.949 . S
H992 C996 0.949 . S
C993 C994 1.349 . S
C993 C995 1.327 . S
C993 H1016 0.950 . S
C994 C993 1.349 . S
C994 C1006 1.349 . S
C995 C993 1.327 . S
C995 C1011 1.429 . S
C995 H1017 0.950 . S
C996 H992 0.949 . S
C996 C1004 1.574 . S
C996 C1012 1.368 . S
H997 C1005 0.950 . S
H998 C1003 0.950 . S
H999 C1004 0.949 . S
H1000 C1006 0.950 . S
H1001 C1007 0.950 . S
H1002 C1008 0.949 . S
C1003 H998 0.950 . S
C1003 C1005 1.327 . S
C1003 C1009 1.429 . S
C1004 C996 1.574 . S
C1004 H999 0.949 . S
C1004 C1010 1.368 . S
C1005 C989 1.349 . S
C1005 H997 0.950 . S
C1005 C1003 1.327 . S
C1006 C994 1.349 . S
C1006 H1000 0.950 . S
C1006 C1007 1.327 . S
C1007 H1001 0.950 . S
C1007 C1006 1.327 . S
C1007 C1011 1.429 . S
C1008 C991 1.574 . S
C1008 H1002 0.949 . S
C1008 C1012 1.368 . S
C1009 C990 1.429 . S
C1009 C1003 1.429 . S
C1009 C1010 1.523 . S
C1010 C991 1.368 . S
C1010 C1004 1.368 . S
C1010 C1009 1.523 . S
C1011 C995 1.429 . S
C1011 C1007 1.429 . S
C1011 C1012 1.523 . S
C1012 C996 1.368 . S
C1012 C1008 1.368 . S
C1012 C1011 1.523 . S
H1013 C988 0.950 . S
H1014 C990 0.950 . S
H1015 C991 0.949 . S
H1016 C993 0.950 . S
H1017 C995 0.950 . S
C1018 C1019 1.349 . S
C1018 C1020 1.327 . S
C1018 H1043 0.950 . S
C1019 C1018 1.349 . S
C1019 C1035 1.349 . S
C1020 C1018 1.327 . S
C1020 C1039 1.429 . S
C1020 H1044 0.950 . S
C1021 C1038 1.574 . S
C1021 C1040 1.368 . S
C1021 H1045 0.949 . S
H1022 C1026 0.949 . S
C1023 C1024 1.349 . S
C1023 C1025 1.327 . S
C1023 H1046 0.950 . S
C1024 C1023 1.349 . S
C1024 C1036 1.349 . S
C1025 C1023 1.327 . S
C1025 C1041 1.429 . S
C1025 H1047 0.950 . S
C1026 H1022 0.949 . S
C1026 C1034 1.574 . S
C1026 C1042 1.368 . S
H1027 C1035 0.950 . S
H1028 C1033 0.950 . S
H1029 C1034 0.949 . S
H1030 C1036 0.950 . S
H1031 C1037 0.950 . S
H1032 C1038 0.949 . S
C1033 H1028 0.950 . S
C1033 C1035 1.327 . S
C1033 C1039 1.429 . S
C1034 C1026 1.574 . S
C1034 H1029 0.949 . S
C1034 C1040 1.368 . S
C1035 C1019 1.349 . S
C1035 H1027 0.950 . S
C1035 C1033 1.327 . S
C1036 C1024 1.349 . S
C1036 H1030 0.950 . S
C1036 C1037 1.327 . S
C1037 H1031 0.950 . S
C1037 C1036 1.327 . S
C1037 C1041 1.429 . S
C1038 C1021 1.574 . S
C1038 H1032 0.949 . S
C1038 C1042 1.368 . S
C1039 C1020 1.429 . S
C1039 C1033 1.429 . S
C1039 C1040 1.523 . S
C1040 C1021 1.368 . S
C1040 C1034 1.368 . S
C1040 C1039 1.523 . S
C1041 C1025 1.429 . S
C1041 C1037 1.429 . S
C1041 C1042 1.523 . S
C1042 C1026 1.368 . S
C1042 C1038 1.368 . S
C1042 C1041 1.523 . S
H1043 C1018 0.950 . S
H1044 C1020 0.950 . S
H1045 C1021 0.949 . S
H1046 C1023 0.950 . S
H1047 C1025 0.950 . S
C1048 C1049 1.349 . S
C1048 C1050 1.327 . S
C1048 H1073 0.950 . S
C1049 C1048 1.349 . S
C1049 C1065 1.349 . S
C1050 C1048 1.327 . S
C1050 C1069 1.429 . S
C1050 H1074 0.950 . S
C1051 C1068 1.574 . S
C1051 C1070 1.368 . S
C1051 H1075 0.949 . S
H1052 C1056 0.949 . S
C1053 C1054 1.349 . S
C1053 C1055 1.327 . S
C1053 H1076 0.950 . S
C1054 C1053 1.349 . S
C1054 C1066 1.349 . S
C1055 C1053 1.327 . S
C1055 C1071 1.429 . S
C1055 H1077 0.950 . S
C1056 H1052 0.949 . S
C1056 C1064 1.574 . S
C1056 C1072 1.368 . S
H1057 C1065 0.950 . S
H1058 C1063 0.950 . S
H1059 C1064 0.949 . S
H1060 C1066 0.950 . S
H1061 C1067 0.950 . S
H1062 C1068 0.949 . S
C1063 H1058 0.950 . S
C1063 C1065 1.327 . S
C1063 C1069 1.429 . S
C1064 C1056 1.574 . S
C1064 H1059 0.949 . S
C1064 C1070 1.368 . S
C1065 C1049 1.349 . S
C1065 H1057 0.950 . S
C1065 C1063 1.327 . S
C1066 C1054 1.349 . S
C1066 H1060 0.950 . S
C1066 C1067 1.327 . S
C1067 H1061 0.950 . S
C1067 C1066 1.327 . S
C1067 C1071 1.429 . S
C1068 C1051 1.574 . S
C1068 H1062 0.949 . S
C1068 C1072 1.368 . S
C1069 C1050 1.429 . S
C1069 C1063 1.429 . S
C1069 C1070 1.523 . S
C1070 C1051 1.368 . S
C1070 C1064 1.368 . S
C1070 C1069 1.523 . S
C1071 C1055 1.429 . S
C1071 C1067 1.429 . S
C1071 C1072 1.523 . S
C1072 C1056 1.368 . S
C1072 C1068 1.368 . S
C1072 C1071 1.523 . S
H1073 C1048 0.950 . S
H1074 C1050 0.950 . S
H1075 C1051 0.949 . S
H1076 C1053 0.950 . S
H1077 C1055 0.950 . S
C1078 C1079 1.349 . S
C1078 C1080 1.327 . S
C1078 H1103 0.950 . S
C1079 C1078 1.349 . S
C1079 C1095 1.349 . S
C1080 C1078 1.327 . S
C1080 C1099 1.429 . S
C1080 H1104 0.950 . S
C1081 C1098 1.574 . S
C1081 C1100 1.368 . S
C1081 H1105 0.949 . S
H1082 C1086 0.949 . S
C1083 C1084 1.349 . S
C1083 C1085 1.327 . S
C1083 H1106 0.950 . S
C1084 C1083 1.349 . S
C1084 C1096 1.349 . S
C1085 C1083 1.327 . S
C1085 C1101 1.429 . S
C1085 H1107 0.950 . S
C1086 H1082 0.949 . S
C1086 C1094 1.574 . S
C1086 C1102 1.368 . S
H1087 C1095 0.950 . S
H1088 C1093 0.950 . S
H1089 C1094 0.949 . S
H1090 C1096 0.950 . S
H1091 C1097 0.950 . S
H1092 C1098 0.949 . S
C1093 H1088 0.950 . S
C1093 C1095 1.327 . S
C1093 C1099 1.429 . S
C1094 C1086 1.574 . S
C1094 H1089 0.949 . S
C1094 C1100 1.368 . S
C1095 C1079 1.349 . S
C1095 H1087 0.950 . S
C1095 C1093 1.327 . S
C1096 C1084 1.349 . S
C1096 H1090 0.950 . S
C1096 C1097 1.327 . S
C1097 H1091 0.950 . S
C1097 C1096 1.327 . S
C1097 C1101 1.429 . S
C1098 C1081 1.574 . S
C1098 H1092 0.949 . S
C1098 C1102 1.368 . S
C1099 C1080 1.429 . S
C1099 C1093 1.429 . S
C1099 C1100 1.523 . S
C1100 C1081 1.368 . S
C1100 C1094 1.368 . S
C1100 C1099 1.523 . S
C1101 C1085 1.429 . S
C1101 C1097 1.429 . S
C1101 C1102 1.523 . S
C1102 C1086 1.368 . S
C1102 C1098 1.368 . S
C1102 C1101 1.523 . S
H1103 C1078 0.950 . S
H1104 C1080 0.950 . S
H1105 C1081 0.949 . S
H1106 C1083 0.950 . S
H1107 C1085 0.950 . S
C1108 C1109 1.349 . S
C1108 C1110 1.327 . S
C1108 H1133 0.950 . S
C1109 C1108 1.349 . S
C1109 C1125 1.349 . S
C1110 C1108 1.327 . S
C1110 C1129 1.429 . S
C1110 H1134 0.950 . S
C1111 C1128 1.574 . S
C1111 C1130 1.368 . S
C1111 H1135 0.949 . S
H1112 C1116 0.949 . S
C1113 C1114 1.349 . S
C1113 C1115 1.327 . S
C1113 H1136 0.950 . S
C1114 C1113 1.349 . S
C1114 C1126 1.349 . S
C1115 C1113 1.327 . S
C1115 C1131 1.429 . S
C1115 H1137 0.950 . S
C1116 H1112 0.949 . S
C1116 C1124 1.574 . S
C1116 C1132 1.368 . S
H1117 C1125 0.950 . S
H1118 C1123 0.950 . S
H1119 C1124 0.949 . S
H1120 C1126 0.950 . S
H1121 C1127 0.950 . S
H1122 C1128 0.949 . S
C1123 H1118 0.950 . S
C1123 C1125 1.327 . S
C1123 C1129 1.429 . S
C1124 C1116 1.574 . S
C1124 H1119 0.949 . S
C1124 C1130 1.368 . S
C1125 C1109 1.349 . S
C1125 H1117 0.950 . S
C1125 C1123 1.327 . S
C1126 C1114 1.349 . S
C1126 H1120 0.950 . S
C1126 C1127 1.327 . S
C1127 H1121 0.950 . S
C1127 C1126 1.327 . S
C1127 C1131 1.429 . S
C1128 C1111 1.574 . S
C1128 H1122 0.949 . S
C1128 C1132 1.368 . S
C1129 C1110 1.429 . S
C1129 C1123 1.429 . S
C1129 C1130 1.523 . S
C1130 C1111 1.368 . S
C1130 C1124 1.368 . S
C1130 C1129 1.523 . S
C1131 C1115 1.429 . S
C1131 C1127 1.429 . S
C1131 C1132 1.523 . S
C1132 C1116 1.368 . S
C1132 C1128 1.368 . S
C1132 C1131 1.523 . S
H1133 C1108 0.950 . S
H1134 C1110 0.950 . S
H1135 C1111 0.949 . S
H1136 C1113 0.950 . S
H1137 C1115 0.950 . S
C1138 C1139 1.349 . S
C1138 C1140 1.327 . S
C1138 H1163 0.950 . S
C1139 C1138 1.349 . S
C1139 C1155 1.349 . S
C1140 C1138 1.327 . S
C1140 C1159 1.429 . S
C1140 H1164 0.950 . S
C1141 C1158 1.574 . S
C1141 C1160 1.368 . S
C1141 H1165 0.949 . S
H1142 C1146 0.949 . S
C1143 C1144 1.349 . S
C1143 C1145 1.327 . S
C1143 H1166 0.950 . S
C1144 C1143 1.349 . S
C1144 C1156 1.349 . S
C1145 C1143 1.327 . S
C1145 C1161 1.429 . S
C1145 H1167 0.950 . S
C1146 H1142 0.949 . S
C1146 C1154 1.574 . S
C1146 C1162 1.368 . S
H1147 C1155 0.950 . S
H1148 C1153 0.950 . S
H1149 C1154 0.949 . S
H1150 C1156 0.950 . S
H1151 C1157 0.950 . S
H1152 C1158 0.949 . S
C1153 H1148 0.950 . S
C1153 C1155 1.327 . S
C1153 C1159 1.429 . S
C1154 C1146 1.574 . S
C1154 H1149 0.949 . S
C1154 C1160 1.368 . S
C1155 C1139 1.349 . S
C1155 H1147 0.950 . S
C1155 C1153 1.327 . S
C1156 C1144 1.349 . S
C1156 H1150 0.950 . S
C1156 C1157 1.327 . S
C1157 H1151 0.950 . S
C1157 C1156 1.327 . S
C1157 C1161 1.429 . S
C1158 C1141 1.574 . S
C1158 H1152 0.949 . S
C1158 C1162 1.368 . S
C1159 C1140 1.429 . S
C1159 C1153 1.429 . S
C1159 C1160 1.523 . S
C1160 C1141 1.368 . S
C1160 C1154 1.368 . S
C1160 C1159 1.523 . S
C1161 C1145 1.429 . S
C1161 C1157 1.429 . S
C1161 C1162 1.523 1_556 S
C1162 C1146 1.368 . S
C1162 C1158 1.368 . S
C1162 C1161 1.523 1_554 S
H1163 C1138 0.950 . S
H1164 C1140 0.950 . S
H1165 C1141 0.949 . S
H1166 C1143 0.950 . S
H1167 C1145 0.950 . S
C209 C83 2.141 . S
C214 C5 2.141 . S
C239 C96 2.141 . S
C244 C18 2.141 . S
C269 C31 2.141 . S
C274 C57 2.141 1_556 S
C299 C44 2.141 . S
C304 C70 2.141 . S
C329 C109 2.141 . S
C334 C187 2.141 1_556 S
C359 C200 2.141 . S
C364 C122 2.141 . S
C389 C135 2.141 . S
C394 C161 2.141 . S
C419 C148 2.141 . S
C424 C174 2.141 . S
C449 C10 2.031 . S
C454 C140 2.031 . S
C479 C23 2.031 . S
C484 C153 2.031 . S
C509 C36 2.031 . S
C514 C114 2.031 . S
C539 C49 2.031 . S
C544 C127 2.031 . S
C569 C62 2.031 . S
C574 C192 2.031 . S
C599 C205 2.031 . S
C604 C75 2.031 . S
C629 C88 2.031 . S
C634 C166 2.031 . S
C659 C179 2.031 . S
C664 C101 2.031 . S
C689 C170 0.143 . S
C694 C1 0.143 . S
C719 C14 0.144 . S
C724 C183 0.144 . S
C749 C196 0.143 . S
C754 C27 0.143 . S
C779 C157 0.144 . S
C784 C40 0.144 . S
C809 C144 0.144 . S
C814 C53 0.144 . S
C839 C66 0.143 . S
C844 C105 0.143 . S
C869 C79 0.144 . S
C874 C118 0.144 . S
C899 C92 0.143 . S
C904 C131 0.143 . S
C929 C172 1.902 . S
C934 C3 1.902 . S
C959 C16 1.902 . S
C964 C185 1.902 . S
C989 C29 1.902 . S
C994 C198 1.902 . S
C1019 C159 1.902 . S
C1024 C42 1.902 . S
C1049 C146 1.902 . S
C1054 C55 1.902 . S
C1079 C107 1.902 . S
C1084 C68 1.902 . S
C1109 C81 1.902 . S
C1114 C120 1.902 . S
C1139 C133 1.902 . S
C1144 C94 1.902 . S
