# Generated by pormake.
# Topology smm, (6)-cn, num edge types: 1
# Building blocks:
#     Node 0, Type 0, BuildingBlock: CUKXOW_clean_sbu_0, # of connection points: 6
#     Node 1, Type 0, BuildingBlock: CUKXOW_clean_sbu_0, # of connection points: 6
#     Node 2, Type 0, BuildingBlock: CUKXOW_clean_sbu_0, # of connection points: 6
#     Node 3, Type 0, BuildingBlock: CUKXOW_clean_sbu_0, # of connection points: 6
#     Node 4, Type 0, BuildingBlock: CUKXOW_clean_sbu_0, # of connection points: 6
#     Node 5, Type 0, BuildingBlock: CUKXOW_clean_sbu_0, # of connection points: 6
#     Node 6, Type 0, BuildingBlock: CUKXOW_clean_sbu_0, # of connection points: 6
#     Node 7, Type 0, BuildingBlock: CUKXOW_clean_sbu_0, # of connection points: 6
#     Node 8, Type 0, BuildingBlock: CUKXOW_clean_sbu_0, # of connection points: 6
#     Edge 9, Type (0, 0), BuildingBlock: AJUNOK_clean_linker_0, # of connection points: 2
#     Edge 10, Type (0, 0), BuildingBlock: AJUNOK_clean_linker_0, # of connection points: 2
#     Edge 11, Type (0, 0), BuildingBlock: AJUNOK_clean_linker_0, # of connection points: 2
#     Edge 12, Type (0, 0), BuildingBlock: AJUNOK_clean_linker_0, # of connection points: 2
#     Edge 13, Type (0, 0), BuildingBlock: AJUNOK_clean_linker_0, # of connection points: 2
#     Edge 14, Type (0, 0), BuildingBlock: AJUNOK_clean_linker_0, # of connection points: 2
#     Edge 15, Type (0, 0), BuildingBlock: AJUNOK_clean_linker_0, # of connection points: 2
#     Edge 16, Type (0, 0), BuildingBlock: AJUNOK_clean_linker_0, # of connection points: 2
#     Edge 17, Type (0, 0), BuildingBlock: AJUNOK_clean_linker_0, # of connection points: 2
#     Edge 18, Type (0, 0), BuildingBlock: AJUNOK_clean_linker_0, # of connection points: 2
#     Edge 19, Type (0, 0), BuildingBlock: AJUNOK_clean_linker_0, # of connection points: 2
#     Edge 20, Type (0, 0), BuildingBlock: AJUNOK_clean_linker_0, # of connection points: 2
#     Edge 21, Type (0, 0), BuildingBlock: AJUNOK_clean_linker_0, # of connection points: 2
#     Edge 22, Type (0, 0), BuildingBlock: AJUNOK_clean_linker_0, # of connection points: 2
#     Edge 23, Type (0, 0), BuildingBlock: AJUNOK_clean_linker_0, # of connection points: 2
#     Edge 24, Type (0, 0), BuildingBlock: AJUNOK_clean_linker_0, # of connection points: 2
#     Edge 25, Type (0, 0), BuildingBlock: AJUNOK_clean_linker_0, # of connection points: 2
#     Edge 26, Type (0, 0), BuildingBlock: AJUNOK_clean_linker_0, # of connection points: 2
#     Edge 27, Type (0, 0), BuildingBlock: AJUNOK_clean_linker_0, # of connection points: 2
#     Edge 28, Type (0, 0), BuildingBlock: AJUNOK_clean_linker_0, # of connection points: 2
#     Edge 29, Type (0, 0), BuildingBlock: AJUNOK_clean_linker_0, # of connection points: 2
#     Edge 30, Type (0, 0), BuildingBlock: AJUNOK_clean_linker_0, # of connection points: 2
#     Edge 31, Type (0, 0), BuildingBlock: AJUNOK_clean_linker_0, # of connection points: 2
#     Edge 32, Type (0, 0), BuildingBlock: AJUNOK_clean_linker_0, # of connection points: 2
#     Edge 33, Type (0, 0), BuildingBlock: AJUNOK_clean_linker_0, # of connection points: 2
#     Edge 34, Type (0, 0), BuildingBlock: AJUNOK_clean_linker_0, # of connection points: 2
#     Edge 35, Type (0, 0), BuildingBlock: AJUNOK_clean_linker_0, # of connection points: 2
# Relax obj value: 0.095
# Max RMSD: 0.193
# Mean RMSD: 0.155
data_MOF--net-smm--node1-CUKXOW_clean_sbu_0--edge1-AJUNOK_clean_linker_0
_symmetry_space_group_name_H-M    P1
_symmetry_Int_Tables_number       1
_symmetry_cell_setting            triclinic
loop_
_symmetry_equiv_pos_as_xyz
'x, y, z'
_cell_length_a     44.070011
_cell_length_b     36.937879
_cell_length_c     11.214351
_cell_angle_alpha  91.790743
_cell_angle_beta   92.200543
_cell_angle_gamma 121.34558
loop_
_atom_site_label
_atom_site_type_symbol
_atom_site_fract_x
_atom_site_fract_y
_atom_site_fract_z
_atom_type_partial_charge
Tb0 Tb 1.04147 0.27286 0.96703 0.0
C1 C 0.07355 0.25857 0.20584 0.0
Tb2 Tb 0.09647 0.244 0.95331 0.0
O3 O 0.99305 0.21193 -0.01242 0.0
O4 O 1.04081 0.21484 0.97266 0.0
O5 O 0.05658 0.27518 0.15374 0.0
C6 C 0.13707 0.20895 0.95679 0.0
O7 O 0.08896 0.24156 0.14568 0.0
C8 C 0.11913 0.3235 0.89258 0.0
C9 C 0.05881 0.24845 0.71835 0.0
O10 O 0.14471 0.24415 0.01415 0.0
O11 O 0.10614 0.19314 0.89923 0.0
O12 O 0.13172 0.30059 0.8556 0.0
O13 O 0.09761 0.30291 0.97063 0.0
O14 O 0.07032 0.22626 0.77458 0.0
O15 O 0.04949 0.27296 0.77631 0.0
C16 C 1.01321 0.31895 0.03153 0.0
O17 O 1.00037 0.28936 0.94536 0.0
O18 O 1.04306 0.32423 0.07359 0.0
C19 C 1.00803 0.18971 -0.01208 0.0
Tb20 Tb 0.84914 0.93375 0.02371 0.0
C21 C 0.88304 0.92487 0.79005 0.0
Tb22 Tb 0.91954 0.93844 0.04799 0.0
O23 O 0.87479 1.00082 0.08697 0.0
O24 O 0.90288 0.97979 -0.00713 0.0
O25 O 0.85442 0.91945 0.83982 0.0
C26 C 0.98688 0.96159 0.0369 0.0
O27 O 0.91246 0.9343 0.8535 0.0
C28 C 0.86571 0.86631 0.11007 0.0
C29 C 0.8841 0.94417 0.2783 0.0
O30 O 0.95997 0.92519 -0.00419 0.0
O31 O 0.97573 0.98435 0.08722 0.0
O32 O 0.89837 0.88206 0.15082 0.0
O33 O 0.86526 0.88861 0.027 0.0
O34 O 0.9149 0.9591 0.22765 0.0
O35 O 0.85356 0.92865 0.21417 0.0
C36 C 0.78158 0.90554 0.95144 0.0
O37 O 0.80937 0.9386 0.9141 0.0
O38 O 0.79198 0.89042 0.03606 0.0
C39 C 0.90588 1.0115 0.04982 0.0
Tb40 Tb 0.27842 0.11655 0.9175 0.0
C41 C 0.23885 0.07805 0.14622 0.0
Tb42 Tb 0.19905 0.0505 0.8902 0.0
O43 O 0.26692 0.16497 -0.0152 0.0
O44 O 0.23114 0.11577 0.86669 0.0
O45 O 0.2692 0.09495 0.09503 0.0
C46 C 0.13129 1.02227 0.92205 0.0
O47 O 0.20791 0.05964 0.08396 0.0
C48 C 0.23957 1.0194 0.86172 0.0
C49 C 0.24039 0.08746 0.66009 0.0
O50 O 0.15805 0.05869 0.96092 0.0
O51 O 0.14247 1.00095 0.86306 0.0
O52 O 0.2065 1.0 0.82029 0.0
O53 O 0.24599 0.05018 0.93318 0.0
O54 O 0.20895 0.06965 0.70803 0.0
O55 O 0.27128 0.10598 0.7247 0.0
C56 C 0.34793 0.15004 0.96867 0.0
O57 O 0.33038 0.16876 -0.01133 0.0
O58 O 0.32693 0.1151 0.90466 0.0
C59 C 0.23521 0.1464 0.93209 0.0
Tb60 Tb 0.72233 0.63394 0.37136 0.0
C61 C 0.69002 0.57976 0.12436 0.0
Tb62 Tb 0.66537 0.53227 0.36356 0.0
O63 O 0.77006 0.62803 0.36586 0.0
O64 O 0.72034 0.5758 0.36003 0.0
O65 O 0.70433 0.61706 0.18429 0.0
C66 C 0.63576 0.44767 0.36917 0.0
O67 O 0.67761 0.54309 0.17606 0.0
C68 C 0.63457 0.5781 0.38059 0.0
C69 C 0.69732 0.58719 0.60883 0.0
O70 O 0.64192 0.46874 0.27332 0.0
O71 O 0.6463 0.47435 0.46167 0.0
O72 O 0.61725 0.53683 0.36937 0.0
O73 O 0.66696 0.59021 0.37763 0.0
O74 O 0.68704 0.55052 0.54862 0.0
O75 O 0.70775 0.62355 0.55643 0.0
C76 C 0.75509 0.71659 0.32514 0.0
O77 O 0.76326 0.70108 0.41532 0.0
O78 O 0.72694 0.68566 0.26708 0.0
C79 C 0.75248 0.58685 0.36117 0.0
Tb80 Tb 0.51198 0.18399 0.41258 0.0
C81 C 0.55 0.18507 0.18542 0.0
Tb82 Tb 0.58823 0.20517 0.44247 0.0
O83 O 0.53029 0.24224 0.31826 0.0
O84 O 0.56283 0.24056 0.45169 0.0
O85 O 0.5193 0.16675 0.23517 0.0
C86 C 0.6599 0.24791 0.43707 0.0
O87 O 0.58059 0.20581 0.24996 0.0
C88 C 0.53998 0.12611 0.49134 0.0
C89 C 0.54862 0.19923 0.67155 0.0
O90 O 0.63812 0.20795 0.4052 0.0
O91 O 0.64123 0.26334 0.47498 0.0
O92 O 0.57316 0.14656 0.53248 0.0
O93 O 0.53687 0.1479 0.41157 0.0
O94 O 0.57971 0.21795 0.62248 0.0
O95 O 0.51758 0.18096 0.60686 0.0
C96 C 0.44392 0.15578 0.34793 0.0
O97 O 0.46545 0.19089 0.41105 0.0
O98 O 0.45987 0.13486 0.33577 0.0
C99 C 0.56143 0.2633 0.37304 0.0
Tb100 Tb 0.88506 0.38427 0.39465 0.0
C101 C 0.86809 0.41561 0.15744 0.0
Tb102 Tb 0.85879 0.4494 0.40638 0.0
O103 O 0.83272 0.32532 0.39752 0.0
O104 O 0.83693 0.38325 0.39421 0.0
O105 O 0.88697 0.40216 0.21296 0.0
C106 C 0.82408 0.49117 0.39026 0.0
O107 O 0.8522 0.43258 0.21465 0.0
C108 C 0.92758 0.47945 0.45629 0.0
C109 C 0.86879 0.41136 0.6413 0.0
O110 O 0.85554 0.50413 0.35299 0.0
O111 O 0.81244 0.45486 0.43734 0.0
O112 O 0.91046 0.49595 0.50192 0.0
O113 O 0.90666 0.45016 0.38047 0.0
O114 O 0.85123 0.42685 0.58495 0.0
O115 O 0.88766 0.39758 0.58665 0.0
C116 C 0.92431 0.35222 0.32864 0.0
O117 O 0.93458 0.38332 0.40926 0.0
O118 O 0.89141 0.33773 0.29387 0.0
C119 C 0.81447 0.34389 0.39491 0.0
Tb120 Tb 0.35365 0.90223 0.64688 0.0
C121 C 0.38432 0.89067 0.88711 0.0
Tb122 Tb 0.40138 0.86542 0.64367 0.0
O123 O 0.30987 0.84418 0.55929 0.0
O124 O 0.34555 0.83951 0.6744 0.0
O125 O 0.37706 0.91574 0.82785 0.0
C126 C 0.43442 0.82129 0.65064 0.0
O127 O 0.39029 0.86318 0.83112 0.0
C128 C 0.44187 0.94988 0.62338 0.0
C129 C 0.37616 0.8858 0.4026 0.0
O130 O 0.43904 0.85075 0.72822 0.0
O131 O 0.40982 0.81532 0.57013 0.0
O132 O 0.4533 0.92405 0.62674 0.0
O133 O 0.40871 0.92714 0.63547 0.0
O134 O 0.38404 0.85979 0.45592 0.0
O135 O 0.3678 0.9106 0.46301 0.0
C136 C 0.31902 0.94134 0.71389 0.0
O137 O 0.34241 0.95398 0.63307 0.0
O138 O 0.31473 0.90643 0.75271 0.0
C139 C 0.31803 0.81794 0.6024 0.0
Tb140 Tb 0.14527 0.55755 0.64214 0.0
C141 C 0.18224 0.5575 0.41016 0.0
Tb142 Tb 0.22207 0.56751 0.66079 0.0
O143 O 0.16718 0.62715 0.62057 0.0
O144 O 0.1996 0.60461 0.64163 0.0
O145 O 0.15174 0.5422 0.46123 0.0
C146 C 0.29067 0.59522 0.6465 0.0
O147 O 0.21323 0.5736 0.47195 0.0
C148 C 0.17213 0.48733 0.69116 0.0
C149 C 0.1843 0.56667 0.8942 0.0
O150 O 0.26473 0.56405 0.58142 0.0
O151 O 0.27802 0.61109 0.72118 0.0
O152 O 0.20598 0.50211 0.69082 0.0
O153 O 0.16744 0.51794 0.66994 0.0
O154 O 0.21533 0.58014 0.84563 0.0
O155 O 0.15341 0.55163 0.83087 0.0
C156 C 0.07492 0.52788 0.5961 0.0
O157 O 0.09462 0.55241 0.68864 0.0
O158 O 0.09471 0.51903 0.53363 0.0
C159 C 0.20061 0.63872 0.6282 0.0
Tb160 Tb 0.58476 0.7436 0.59795 0.0
C161 C 0.54555 0.69931 0.82524 0.0
Tb162 Tb 0.50611 0.67466 0.5666 0.0
O163 O 0.56811 0.78531 0.68114 0.0
O164 O 0.53628 0.74013 0.54812 0.0
O165 O 0.57646 0.72328 0.77888 0.0
C166 C 0.43794 0.6472 0.59458 0.0
O167 O 0.51495 0.67859 0.76048 0.0
C168 C 0.548 0.6461 0.52566 0.0
C169 C 0.54827 0.71141 0.33963 0.0
O170 O 0.46494 0.68037 0.64864 0.0
O171 O 0.44916 0.62845 0.52404 0.0
O172 O 0.51439 0.62614 0.48923 0.0
O173 O 0.55452 0.67613 0.60117 0.0
O174 O 0.51703 0.69675 0.38708 0.0
O175 O 0.57886 0.72809 0.4056 0.0
C176 C 0.65495 0.79412 0.64646 0.0
O177 O 0.6345 0.80551 0.59513 0.0
O178 O 0.63616 0.75364 0.65984 0.0
C179 C 0.53779 0.76768 0.61998 0.0
C180 C 0.14122 0.37251 0.72447 0.0
C181 C 0.12599 0.36347 0.83605 0.0
C182 C 0.15163 0.411 0.67135 0.0
C183 C 0.14752 0.4429 0.72627 0.0
H184 H 0.1462 0.35004 0.67856 0.0
H185 H 0.16526 0.41697 0.58922 0.0
S186 S 0.10944 0.43618 0.01996 0.0
N187 N 0.10723 0.39031 -2e-05 0.0
N188 N 0.12668 0.46244 0.89969 0.0
C189 C 0.13106 0.43386 0.83581 0.0
C190 C 0.1204 0.39434 0.89065 0.0
C191 C 0.74377 0.89012 0.76198 0.0
C192 C 0.74725 0.88037 0.88047 0.0
C193 C 0.71384 0.86217 0.68563 0.0
C194 C 0.68693 0.82324 0.72466 0.0
H195 H 0.76484 0.91881 0.72661 0.0
H196 H 0.71217 0.87056 0.59494 0.0
S197 S 0.68101 0.78596 0.03144 0.0
N198 N 0.71937 0.83152 0.0365 0.0
N199 N 0.6638 0.77851 0.89305 0.0
C200 C 0.68948 0.81402 0.84424 0.0
C201 C 0.71946 0.84275 0.92218 0.0
C202 C 0.28867 1.02095 0.75101 0.0
C203 C 0.26355 1.00336 0.83845 0.0
C204 C 0.30707 1.00129 0.71223 0.0
C205 C 0.30075 0.96314 0.75888 0.0
H206 H 0.29321 1.04921 0.70907 0.0
H207 H 0.32573 1.01556 0.64339 0.0
S208 S 0.23864 0.90562 -0.0059 0.0
N209 N 0.23415 0.94668 0.97292 0.0
N210 N 0.26854 0.90987 0.90201 0.0
C211 C 0.27638 0.94608 0.84897 0.0
C212 C 0.25775 0.96606 0.88793 0.0
C213 C 0.40914 0.18403 0.24965 0.0
C214 C 0.41699 0.15177 0.25648 0.0
C215 C 0.38865 0.18487 0.15194 0.0
C216 C 0.37547 0.15369 0.05671 0.0
H217 H 0.41931 0.20921 0.31951 0.0
H218 H 0.38244 0.20966 0.15246 0.0
S219 S 0.38893 0.06261 0.0301 0.0
N220 N 0.4099 0.08773 0.15895 0.0
N221 N 0.3722 0.0899 -0.02516 0.0
C222 C 0.38349 0.12153 0.06177 0.0
C223 C 0.40386 0.12029 0.16195 0.0
C224 C 0.93321 0.31528 0.15633 0.0
C225 C 0.94784 0.34337 0.25884 0.0
C226 C 0.95478 0.30954 0.07889 0.0
C227 C 0.99189 0.33151 0.10109 0.0
H228 H 0.90474 0.29767 0.13489 0.0
H229 H 0.94211 0.2868 0.00293 0.0
S230 S 1.04368 0.40974 0.35484 0.0
N231 N 1.00184 0.39372 0.37759 0.0
N232 N 1.04259 0.38353 0.23114 0.0
C233 C 1.00699 0.36014 0.2024 0.0
C234 C 0.98493 0.36578 0.28176 0.0
C235 C 0.83953 0.82212 0.28441 0.0
C236 C 0.83483 0.83114 0.16626 0.0
C237 C 0.81259 0.78668 0.33808 0.0
C238 C 0.77984 0.75835 0.27551 0.0
H239 H 0.86465 0.84218 0.33548 0.0
H240 H 0.81812 0.78049 0.42761 0.0
S241 S 0.75375 0.76841 0.96468 0.0
N242 N 0.79453 0.80985 -0.01018 0.0
N243 N 0.74377 0.74292 0.08933 0.0
C244 C 0.77419 0.76801 0.15878 0.0
C245 C 0.8017 0.80443 0.10447 0.0
C246 C 1.01577 0.5201 0.64139 0.0
C247 C 1.03721 0.51511 0.56028 0.0
C248 C 0.98047 0.50877 0.60752 0.0
C249 C 0.965 0.49159 0.49146 0.0
H250 H 1.0263 0.53283 0.73187 0.0
H251 H 0.96504 0.51306 0.6732 0.0
S252 S 1.01067 0.47683 0.24086 0.0
N253 N 1.0408 0.49533 0.3547 0.0
N254 N 0.97472 0.47296 0.29355 0.0
C255 C 0.98625 0.48706 0.40933 0.0
C256 C 1.0222 0.49908 0.44301 0.0
C257 C 0.60695 0.64858 0.5382 0.0
C258 C 0.57345 0.63453 0.47943 0.0
C259 C 0.62874 0.63333 0.49947 0.0
C260 C 0.61753 0.60327 0.40182 0.0
H261 H 0.61566 0.6699 0.61738 0.0
H262 H 0.6534 0.64314 0.5503 0.0
S263 S 0.53557 0.56244 0.20482 0.0
N264 N 0.53297 0.59348 0.3077 0.0
N265 N 0.57312 0.5643 0.23916 0.0
C266 C 0.5854 0.59139 0.3382 0.0
C267 C 0.56357 0.60711 0.376 0.0
C268 C 0.5248 0.05324 0.5446 0.0
C269 C 0.51301 0.08126 0.52078 0.0
C270 C 0.50144 1.01157 0.57793 0.0
C271 C 0.46488 0.99545 0.59128 0.0
H272 H 0.55254 0.06351 0.53676 0.0
H273 H 0.51241 0.9917 0.59349 0.0
S274 S 0.42062 0.05688 0.55231 0.0
N275 N 0.46233 0.09054 0.52243 0.0
N276 N 0.41845 1.01217 0.58329 0.0
C277 C 0.45266 1.02326 0.57027 0.0
C278 C 0.47663 0.06601 0.53557 0.0
C279 C 0.21559 0.19384 0.02215 0.0
C280 C 0.20968 0.16165 0.93681 0.0
C281 C 0.1919 0.20864 0.02872 0.0
C282 C 0.16107 0.19163 0.95098 0.0
H283 H 0.23875 0.20779 0.0846 0.0
H284 H 0.19781 0.23365 0.09549 0.0
S285 S 0.13361 0.10764 0.70887 0.0
N286 N 0.17111 0.11447 0.76943 0.0
N287 N 0.12617 0.14094 0.78508 0.0
C288 C 0.15478 0.15938 0.86545 0.0
C289 C 0.17917 0.1448 0.85743 0.0
C290 C 0.93467 0.0888 0.10692 0.0
C291 C 0.93615 0.05629 0.04446 0.0
C292 C 0.95994 0.13168 0.09355 0.0
C293 C 0.98817 0.14435 0.01783 0.0
H294 H 0.91299 0.08117 0.16358 0.0
H295 H 0.95643 0.15532 0.13991 0.0
S296 S 1.00634 0.072 0.84146 0.0
N297 N 0.96985 1.03978 0.90897 0.0
N298 N 1.0176 0.1208 0.88547 0.0
C299 C 0.99146 0.11239 0.96014 0.0
C300 C 0.96537 0.06829 0.97297 0.0
C301 C 1.03277 0.94995 0.95397 0.0
C302 C 1.024 0.9771 0.01314 0.0
C303 C 0.06761 0.96485 0.92277 0.0
C304 C 0.09455 1.0073 0.94987 0.0
H305 H 1.01257 0.91705 0.93082 0.0
H306 H 0.07348 0.943 0.87794 0.0
S307 S 0.08491 0.09149 0.10047 0.0
N308 N 1.04474 1.04848 0.0957 0.0
N309 N 0.11017 0.07661 0.03696 0.0
C310 C 0.08605 1.03482 0.00852 0.0
C311 C 0.05071 1.01965 0.04045 0.0
C312 C 0.80336 0.57696 0.3249 0.0
C313 C 0.76877 0.56026 0.36383 0.0
C314 C 0.82086 0.55424 0.3322 0.0
C315 C 0.80466 0.5141 0.38041 0.0
H316 H 0.81716 0.60803 0.28866 0.0
H317 H 0.84746 0.56852 0.3011 0.0
S318 S 0.71527 0.45714 0.50082 0.0
N319 N 0.71955 0.50158 0.45533 0.0
N320 N 0.7523 0.45895 0.46983 0.0
C321 C 0.77015 0.49706 0.41987 0.0
C322 C 0.75222 0.52007 0.41133 0.0
C323 C 0.60279 0.37488 0.26671 0.0
C324 C 0.61906 0.40087 0.37205 0.0
C325 C 0.58517 0.33042 0.26768 0.0
C326 C 0.58392 0.31023 0.37329 0.0
H327 H 0.60281 0.38889 0.18326 0.0
H328 H 0.57198 0.31162 0.18519 0.0
S329 S 0.62347 0.36365 0.67248 0.0
N330 N 0.63299 0.40295 0.58516 0.0
N331 N 0.60139 0.31961 0.58537 0.0
C332 C 0.60114 0.33581 0.47846 0.0
C333 C 0.61827 0.38106 0.47825 0.0
C334 C 0.71997 0.3165 0.45773 0.0
C335 C 0.69921 0.27256 0.42481 0.0
C336 C 0.75715 0.34017 0.44548 0.0
C337 C 0.77493 0.32072 0.40025 0.0
H338 H 0.70745 0.33272 0.49383 0.0
H339 H 0.77207 0.3735 0.47433 0.0
S340 S 0.73271 0.20728 0.29501 0.0
N341 N 0.69938 0.21133 0.34071 0.0
N342 N 0.76851 0.2552 0.31805 0.0
C343 C 0.7543 0.27704 0.36541 0.0
C344 C 0.71669 0.25314 0.3775 0.0
C345 C 0.51202 0.80594 0.72414 0.0
C346 C 0.51009 0.77923 0.62826 0.0
C347 C 0.48664 0.81798 0.73255 0.0
C348 C 0.45826 0.80391 0.6453 0.0
H349 H 0.53349 0.81795 0.79298 0.0
H350 H 0.48977 0.83926 0.8071 0.0
S351 S 0.44022 0.73216 0.37833 0.0
N352 N 0.47682 0.73834 0.445 0.0
N353 N 0.42909 0.76052 0.46204 0.0
C354 C 0.45552 0.77642 0.55037 0.0
C355 C 0.48144 0.76428 0.54145 0.0
C356 C 0.26524 0.69937 0.68148 0.0
C357 C 0.2322 0.68293 0.6155 0.0
C358 C 0.29344 0.7425 0.67609 0.0
C359 C 0.29002 0.77086 0.60279 0.0
H360 H 0.2689 0.67928 0.74113 0.0
H361 H 0.31773 0.75385 0.73142 0.0
S362 S 0.21027 0.74196 0.40209 0.0
N363 N 0.19894 0.69801 0.4696 0.0
N364 N 0.25117 0.77704 0.45521 0.0
C365 C 0.25757 0.75378 0.53255 0.0
C366 C 0.22896 0.71057 0.5401 0.0
C367 C 0.37283 0.59753 0.54884 0.0
C368 C 0.40066 0.63448 0.60945 0.0
C369 C 0.33729 0.58523 0.56165 0.0
C370 C 0.32841 0.60942 0.63566 0.0
H371 H 0.37849 0.57796 0.49118 0.0
H372 H 0.31662 0.5564 0.51339 0.0
S373 S 0.39159 0.7099 0.81007 0.0
N374 N 0.41712 0.69591 0.7441 0.0
N375 N 0.35024 0.67259 0.76764 0.0
C376 C 0.35597 0.64663 0.69604 0.0
C377 C 0.39217 0.65923 0.68299 0.0
C378 C 0.06347 0.21911 0.5191 0.0
C379 C 0.06159 0.25061 0.58705 0.0
C380 C 0.06888 0.22245 0.39614 0.0
C381 C 0.07292 0.25762 0.33741 0.0
H382 H 0.06048 0.19148 0.56092 0.0
H383 H 0.06892 0.19687 0.34635 0.0
S384 S 0.07467 0.35108 0.47687 0.0
N385 N 0.06653 0.31929 0.58674 0.0
N386 N 0.07788 0.32619 0.35793 0.0
C387 C 0.07232 0.2899 0.40506 0.0
C388 C 0.06627 0.28621 0.52914 0.0
C389 C 0.91512 0.95155 0.60384 0.0
C390 C 0.8831 0.92591 0.65856 0.0
C391 C 0.91517 0.95801 0.4813 0.0
C392 C 0.8832 0.93914 0.40899 0.0
H393 H 0.94027 0.96789 0.65656 0.0
H394 H 0.94049 0.97821 0.44338 0.0
S395 S 0.79232 0.86591 0.50824 0.0
N396 N 0.81881 0.87923 0.63041 0.0
N397 N 0.81865 0.89152 0.40112 0.0
C398 C 0.85101 0.91255 0.46259 0.0
C399 C 0.85104 0.90583 0.58697 0.0
C400 C 0.20928 0.05806 0.4603 0.0
C401 C 0.24073 0.08651 0.52952 0.0
C402 C 0.20893 0.05511 0.33604 0.0
C403 C 0.24003 0.08042 0.27704 0.0
H404 H 0.18474 1.03744 0.5021 0.0
H405 H 0.18414 1.03271 0.28621 0.0
S406 S 0.32895 0.16179 0.41729 0.0
N407 N 0.30347 0.14164 0.53025 0.0
N408 N 0.30295 0.13621 0.29639 0.0
C409 C 0.27167 0.10937 0.34514 0.0
C410 C 0.27198 0.1124 0.47162 0.0
C411 C 0.69778 0.55461 0.80065 0.0
C412 C 0.69568 0.58628 0.74045 0.0
C413 C 0.69481 0.55171 0.92455 0.0
C414 C 0.68957 0.58033 -0.00736 0.0
H415 H 0.70213 0.53207 0.75191 0.0
H416 H 0.69752 0.52759 0.96754 0.0
S417 S 0.67716 0.66513 0.8764 0.0
N418 N 0.68508 0.64451 0.75768 0.0
N419 N 0.67902 0.63876 -0.01022 0.0
C420 C 0.68628 0.61126 0.93321 0.0
C421 C 0.68952 0.61437 0.80737 0.0
C422 C 0.51806 0.18041 0.86344 0.0
C423 C 0.54937 0.1958 0.80265 0.0
C424 C 0.51827 0.17576 -0.01312 0.0
C425 C 0.54979 0.18622 0.05399 0.0
H426 H 0.49323 0.17214 0.81579 0.0
H427 H 0.4936 0.16469 0.03006 0.0
S428 S 0.63841 0.22438 0.93653 0.0
N429 N 0.61257 0.21921 0.81887 0.0
N430 N 0.61258 0.21024 0.04979 0.0
C431 C 0.58106 0.20057 -0.00598 0.0
C432 C 0.58096 0.20546 0.8687 0.0
C433 C 0.86025 0.43862 0.83524 0.0
C434 C 0.86753 0.41063 0.77224 0.0
C435 C 0.85961 0.43948 0.95986 0.0
C436 C 0.86627 0.41242 0.02573 0.0
H437 H 0.85568 0.46072 0.7883 0.0
H438 H 0.85473 0.46219 0.0048 0.0
S439 S 0.88284 0.33001 0.90211 0.0
N440 N 0.879 0.3532 0.78404 0.0
N441 N 0.87759 0.35437 0.01811 0.0
C442 C 0.87247 0.3833 0.96341 0.0
C443 C 0.87322 0.38257 0.83668 0.0
C444 C 0.39236 0.86721 0.20906 0.0
C445 C 0.37794 0.88791 0.27138 0.0
C446 C 0.39492 0.86894 0.08528 0.0
C447 C 0.38323 0.8915 0.01871 0.0
H448 H 0.40193 0.84951 0.25595 0.0
H449 H 0.40606 0.85228 0.04163 0.0
S450 S 0.3426 0.95063 0.13843 0.0
N451 N 0.35136 0.93137 0.2567 0.0
N452 N 0.3562 0.93475 0.02425 0.0
C453 C 0.36884 0.91257 0.07982 0.0
C454 C 0.36617 0.91071 0.20601 0.0
C455 C 0.21288 0.57022 0.09474 0.0
C456 C 0.18354 0.56549 0.02577 0.0
C457 C 0.2121 0.56715 0.21877 0.0
C458 C 0.18191 0.55908 0.27859 0.0
H459 H 0.23658 0.57584 0.05282 0.0
H460 H 0.23533 0.57093 0.26782 0.0
S461 S 0.09886 0.54682 0.13993 0.0
N462 N 0.12399 0.55417 0.02725 0.0
N463 N 0.12237 0.54811 0.25971 0.0
C464 C 0.15248 0.55469 0.21082 0.0
C465 C 0.15336 0.55802 0.08469 0.0
C466 C 0.52232 0.71023 0.13803 0.0
C467 C 0.54828 0.708 0.20875 0.0
C468 C 0.52079 0.70565 0.01339 0.0
C469 C 0.54516 0.69869 0.95569 0.0
H470 H 0.50333 0.71614 0.17917 0.0
H471 H 0.50111 0.70888 0.96177 0.0
S472 S 0.61408 0.68285 0.10029 0.0
N473 N 0.59623 0.69355 0.21258 0.0
N474 N 0.59347 0.68527 -0.02272 0.0
C475 C 0.57043 0.69486 0.02503 0.0
C476 C 0.57197 0.69945 0.15208 0.0
loop_
_geom_bond_atom_site_label_1
_geom_bond_atom_site_label_2
_geom_bond_distance
_geom_bond_site_symmetry_2
_ccdc_geom_bond_type
Tb0 O3 2.453 . S
Tb0 O4 2.596 1_655 S
Tb0 O5 2.374 . S
Tb0 O13 2.343 1_655 S
Tb0 O15 2.353 1_554 S
Tb0 O17 2.427 1_554 S
Tb0 O18 2.513 . S
C1 O5 1.251 1_455 S
C1 O7 1.263 . S
Tb2 O4 2.343 . S
Tb2 O7 2.353 . S
Tb2 O10 2.427 . S
Tb2 O11 2.513 1_554 S
Tb2 O12 2.453 . S
Tb2 O13 2.596 . S
Tb2 O14 2.374 1_554 S
O3 Tb0 2.453 . S
O3 C19 1.245 . S
O4 Tb0 2.596 1_455 S
O4 Tb2 2.343 . S
O4 C19 1.259 1_455 S
O5 Tb0 2.374 . S
O5 C1 1.251 1_655 S
C6 O10 1.275 . S
C6 O11 1.246 1_554 S
O7 C1 1.263 . S
O7 Tb2 2.353 . S
C8 O12 1.245 . S
C8 O13 1.259 . S
C9 O14 1.250 . S
C9 O15 1.263 1_455 S
O10 Tb2 2.427 . S
O10 C6 1.275 . S
O11 Tb2 2.513 1_556 S
O11 C6 1.246 1_556 S
O12 Tb2 2.453 . S
O12 C8 1.245 . S
O13 Tb0 2.343 1_455 S
O13 Tb2 2.596 . S
O13 C8 1.259 . S
O14 Tb2 2.374 1_556 S
O14 C9 1.250 . S
O15 Tb0 2.353 1_556 S
O15 C9 1.263 1_655 S
C16 O17 1.275 1_554 S
C16 O18 1.246 . S
O17 Tb0 2.427 1_556 S
O17 C16 1.275 1_556 S
O18 Tb0 2.513 . S
O18 C16 1.246 . S
C19 O3 1.245 . S
C19 O4 1.259 1_655 S
Tb20 O23 2.453 . S
Tb20 O24 2.596 . S
Tb20 O25 2.374 1_554 S
Tb20 O33 2.343 . S
Tb20 O35 2.353 . S
Tb20 O37 2.427 . S
Tb20 O38 2.513 1_554 S
C21 O25 1.251 . S
C21 O27 1.263 . S
Tb22 O24 2.343 . S
Tb22 O27 2.353 1_554 S
Tb22 O30 2.427 . S
Tb22 O31 2.513 . S
Tb22 O32 2.453 . S
Tb22 O33 2.596 . S
Tb22 O34 2.374 . S
O23 Tb20 2.453 . S
O23 C39 1.245 . S
O24 Tb20 2.596 . S
O24 Tb22 2.343 . S
O24 C39 1.259 . S
O25 Tb20 2.374 1_556 S
O25 C21 1.251 . S
C26 O30 1.275 . S
C26 O31 1.246 . S
O27 C21 1.263 . S
O27 Tb22 2.353 1_556 S
C28 O32 1.245 . S
C28 O33 1.259 . S
C29 O34 1.250 . S
C29 O35 1.263 . S
O30 Tb22 2.427 . S
O30 C26 1.275 . S
O31 Tb22 2.513 . S
O31 C26 1.246 . S
O32 Tb22 2.453 . S
O32 C28 1.245 . S
O33 Tb20 2.343 . S
O33 Tb22 2.596 . S
O33 C28 1.259 . S
O34 Tb22 2.374 . S
O34 C29 1.250 . S
O35 Tb20 2.353 . S
O35 C29 1.263 . S
C36 O37 1.275 . S
C36 O38 1.246 1_554 S
O37 Tb20 2.427 . S
O37 C36 1.275 . S
O38 Tb20 2.513 1_556 S
O38 C36 1.246 1_556 S
C39 O23 1.245 . S
C39 O24 1.259 . S
Tb40 O43 2.453 . S
Tb40 O44 2.596 . S
Tb40 O45 2.374 . S
Tb40 O53 2.343 1_554 S
Tb40 O55 2.353 1_554 S
Tb40 O57 2.427 1_554 S
Tb40 O58 2.513 . S
C41 O45 1.251 . S
C41 O47 1.263 1_545 S
Tb42 O44 2.343 1_566 S
Tb42 O47 2.353 1_556 S
Tb42 O50 2.427 1_556 S
Tb42 O51 2.513 . S
Tb42 O52 2.453 . S
Tb42 O53 2.596 1_565 S
Tb42 O54 2.374 . S
O43 Tb40 2.453 . S
O43 C59 1.245 . S
O44 Tb40 2.596 . S
O44 Tb42 2.343 1_544 S
O44 C59 1.259 . S
O45 Tb40 2.374 . S
O45 C41 1.251 . S
C46 O50 1.275 1_556 S
C46 O51 1.246 . S
O47 C41 1.263 1_565 S
O47 Tb42 2.353 1_554 S
C48 O52 1.245 . S
C48 O53 1.259 1_565 S
C49 O54 1.250 1_545 S
C49 O55 1.263 . S
O50 Tb42 2.427 1_554 S
O50 C46 1.275 1_554 S
O51 Tb42 2.513 . S
O51 C46 1.246 . S
O52 Tb42 2.453 . S
O52 C48 1.245 . S
O53 Tb40 2.343 1_556 S
O53 Tb42 2.596 1_545 S
O53 C48 1.259 1_545 S
O54 Tb42 2.374 . S
O54 C49 1.250 1_565 S
O55 Tb40 2.353 1_556 S
O55 C49 1.263 . S
C56 O57 1.275 1_554 S
C56 O58 1.246 . S
O57 Tb40 2.427 1_556 S
O57 C56 1.275 1_556 S
O58 Tb40 2.513 . S
O58 C56 1.246 . S
C59 O43 1.245 . S
C59 O44 1.259 . S
Tb60 O63 2.453 . S
Tb60 O64 2.596 . S
Tb60 O65 2.374 . S
Tb60 O73 2.343 . S
Tb60 O75 2.353 . S
Tb60 O77 2.427 . S
Tb60 O78 2.513 . S
C61 O65 1.251 . S
C61 O67 1.263 . S
Tb62 O64 2.343 . S
Tb62 O67 2.353 . S
Tb62 O70 2.427 . S
Tb62 O71 2.513 . S
Tb62 O72 2.453 . S
Tb62 O73 2.596 . S
Tb62 O74 2.374 . S
O63 Tb60 2.453 . S
O63 C79 1.245 . S
O64 Tb60 2.596 . S
O64 Tb62 2.343 . S
O64 C79 1.259 . S
O65 Tb60 2.374 . S
O65 C61 1.251 . S
C66 O70 1.275 . S
C66 O71 1.246 . S
O67 C61 1.263 . S
O67 Tb62 2.353 . S
C68 O72 1.245 . S
C68 O73 1.259 . S
C69 O74 1.250 . S
C69 O75 1.263 . S
O70 Tb62 2.427 . S
O70 C66 1.275 . S
O71 Tb62 2.513 . S
O71 C66 1.246 . S
O72 Tb62 2.453 . S
O72 C68 1.245 . S
O73 Tb60 2.343 . S
O73 Tb62 2.596 . S
O73 C68 1.259 . S
O74 Tb62 2.374 . S
O74 C69 1.250 . S
O75 Tb60 2.353 . S
O75 C69 1.263 . S
C76 O77 1.275 . S
C76 O78 1.246 . S
O77 Tb60 2.427 . S
O77 C76 1.275 . S
O78 Tb60 2.513 . S
O78 C76 1.246 . S
C79 O63 1.245 . S
C79 O64 1.259 . S
Tb80 O83 2.453 . S
Tb80 O84 2.596 . S
Tb80 O85 2.374 . S
Tb80 O93 2.343 . S
Tb80 O95 2.353 . S
Tb80 O97 2.427 . S
Tb80 O98 2.513 . S
C81 O85 1.251 . S
C81 O87 1.263 . S
Tb82 O84 2.343 . S
Tb82 O87 2.353 . S
Tb82 O90 2.427 . S
Tb82 O91 2.513 . S
Tb82 O92 2.453 . S
Tb82 O93 2.596 . S
Tb82 O94 2.374 . S
O83 Tb80 2.453 . S
O83 C99 1.245 . S
O84 Tb80 2.596 . S
O84 Tb82 2.343 . S
O84 C99 1.259 . S
O85 Tb80 2.374 . S
O85 C81 1.251 . S
C86 O90 1.275 . S
C86 O91 1.246 . S
O87 C81 1.263 . S
O87 Tb82 2.353 . S
C88 O92 1.245 . S
C88 O93 1.259 . S
C89 O94 1.250 . S
C89 O95 1.263 . S
O90 Tb82 2.427 . S
O90 C86 1.275 . S
O91 Tb82 2.513 . S
O91 C86 1.246 . S
O92 Tb82 2.453 . S
O92 C88 1.245 . S
O93 Tb80 2.343 . S
O93 Tb82 2.596 . S
O93 C88 1.259 . S
O94 Tb82 2.374 . S
O94 C89 1.250 . S
O95 Tb80 2.353 . S
O95 C89 1.263 . S
C96 O97 1.275 . S
C96 O98 1.246 . S
O97 Tb80 2.427 . S
O97 C96 1.275 . S
O98 Tb80 2.513 . S
O98 C96 1.246 . S
C99 O83 1.245 . S
C99 O84 1.259 . S
Tb100 O103 2.453 . S
Tb100 O104 2.596 . S
Tb100 O105 2.374 . S
Tb100 O113 2.343 . S
Tb100 O115 2.353 . S
Tb100 O117 2.427 . S
Tb100 O118 2.513 . S
C101 O105 1.251 . S
C101 O107 1.263 . S
Tb102 O104 2.343 . S
Tb102 O107 2.353 . S
Tb102 O110 2.427 . S
Tb102 O111 2.513 . S
Tb102 O112 2.453 . S
Tb102 O113 2.596 . S
Tb102 O114 2.374 . S
O103 Tb100 2.453 . S
O103 C119 1.245 . S
O104 Tb100 2.596 . S
O104 Tb102 2.343 . S
O104 C119 1.259 . S
O105 Tb100 2.374 . S
O105 C101 1.251 . S
C106 O110 1.275 . S
C106 O111 1.246 . S
O107 C101 1.263 . S
O107 Tb102 2.353 . S
C108 O112 1.245 . S
C108 O113 1.259 . S
C109 O114 1.250 . S
C109 O115 1.263 . S
O110 Tb102 2.427 . S
O110 C106 1.275 . S
O111 Tb102 2.513 . S
O111 C106 1.246 . S
O112 Tb102 2.453 . S
O112 C108 1.245 . S
O113 Tb100 2.343 . S
O113 Tb102 2.596 . S
O113 C108 1.259 . S
O114 Tb102 2.374 . S
O114 C109 1.250 . S
O115 Tb100 2.353 . S
O115 C109 1.263 . S
C116 O117 1.275 . S
C116 O118 1.246 . S
O117 Tb100 2.427 . S
O117 C116 1.275 . S
O118 Tb100 2.513 . S
O118 C116 1.246 . S
C119 O103 1.245 . S
C119 O104 1.259 . S
Tb120 O123 2.453 . S
Tb120 O124 2.596 . S
Tb120 O125 2.374 . S
Tb120 O133 2.343 . S
Tb120 O135 2.353 . S
Tb120 O137 2.427 . S
Tb120 O138 2.513 . S
C121 O125 1.251 . S
C121 O127 1.263 . S
Tb122 O124 2.343 . S
Tb122 O127 2.353 . S
Tb122 O130 2.427 . S
Tb122 O131 2.513 . S
Tb122 O132 2.453 . S
Tb122 O133 2.596 . S
Tb122 O134 2.374 . S
O123 Tb120 2.453 . S
O123 C139 1.245 . S
O124 Tb120 2.596 . S
O124 Tb122 2.343 . S
O124 C139 1.259 . S
O125 Tb120 2.374 . S
O125 C121 1.251 . S
C126 O130 1.275 . S
C126 O131 1.246 . S
O127 C121 1.263 . S
O127 Tb122 2.353 . S
C128 O132 1.245 . S
C128 O133 1.259 . S
C129 O134 1.250 . S
C129 O135 1.263 . S
O130 Tb122 2.427 . S
O130 C126 1.275 . S
O131 Tb122 2.513 . S
O131 C126 1.246 . S
O132 Tb122 2.453 . S
O132 C128 1.245 . S
O133 Tb120 2.343 . S
O133 Tb122 2.596 . S
O133 C128 1.259 . S
O134 Tb122 2.374 . S
O134 C129 1.250 . S
O135 Tb120 2.353 . S
O135 C129 1.263 . S
C136 O137 1.275 . S
C136 O138 1.246 . S
O137 Tb120 2.427 . S
O137 C136 1.275 . S
O138 Tb120 2.513 . S
O138 C136 1.246 . S
C139 O123 1.245 . S
C139 O124 1.259 . S
Tb140 O143 2.453 . S
Tb140 O144 2.596 . S
Tb140 O145 2.374 . S
Tb140 O153 2.343 . S
Tb140 O155 2.353 . S
Tb140 O157 2.427 . S
Tb140 O158 2.513 . S
C141 O145 1.251 . S
C141 O147 1.263 . S
Tb142 O144 2.343 . S
Tb142 O147 2.353 . S
Tb142 O150 2.427 . S
Tb142 O151 2.513 . S
Tb142 O152 2.453 . S
Tb142 O153 2.596 . S
Tb142 O154 2.374 . S
O143 Tb140 2.453 . S
O143 C159 1.245 . S
O144 Tb140 2.596 . S
O144 Tb142 2.343 . S
O144 C159 1.259 . S
O145 Tb140 2.374 . S
O145 C141 1.251 . S
C146 O150 1.275 . S
C146 O151 1.246 . S
O147 C141 1.263 . S
O147 Tb142 2.353 . S
C148 O152 1.245 . S
C148 O153 1.259 . S
C149 O154 1.250 . S
C149 O155 1.263 . S
O150 Tb142 2.427 . S
O150 C146 1.275 . S
O151 Tb142 2.513 . S
O151 C146 1.246 . S
O152 Tb142 2.453 . S
O152 C148 1.245 . S
O153 Tb140 2.343 . S
O153 Tb142 2.596 . S
O153 C148 1.259 . S
O154 Tb142 2.374 . S
O154 C149 1.250 . S
O155 Tb140 2.353 . S
O155 C149 1.263 . S
C156 O157 1.275 . S
C156 O158 1.246 . S
O157 Tb140 2.427 . S
O157 C156 1.275 . S
O158 Tb140 2.513 . S
O158 C156 1.246 . S
C159 O143 1.245 . S
C159 O144 1.259 . S
Tb160 O163 2.453 . S
Tb160 O164 2.596 . S
Tb160 O165 2.374 . S
Tb160 O173 2.343 . S
Tb160 O175 2.353 . S
Tb160 O177 2.427 . S
Tb160 O178 2.513 . S
C161 O165 1.251 . S
C161 O167 1.263 . S
Tb162 O164 2.343 . S
Tb162 O167 2.353 . S
Tb162 O170 2.427 . S
Tb162 O171 2.513 . S
Tb162 O172 2.453 . S
Tb162 O173 2.596 . S
Tb162 O174 2.374 . S
O163 Tb160 2.453 . S
O163 C179 1.245 . S
O164 Tb160 2.596 . S
O164 Tb162 2.343 . S
O164 C179 1.259 . S
O165 Tb160 2.374 . S
O165 C161 1.251 . S
C166 O170 1.275 . S
C166 O171 1.246 . S
O167 C161 1.263 . S
O167 Tb162 2.353 . S
C168 O172 1.245 . S
C168 O173 1.259 . S
C169 O174 1.250 . S
C169 O175 1.263 . S
O170 Tb162 2.427 . S
O170 C166 1.275 . S
O171 Tb162 2.513 . S
O171 C166 1.246 . S
O172 Tb162 2.453 . S
O172 C168 1.245 . S
O173 Tb160 2.343 . S
O173 Tb162 2.596 . S
O173 C168 1.259 . S
O174 Tb162 2.374 . S
O174 C169 1.250 . S
O175 Tb160 2.353 . S
O175 C169 1.263 . S
C176 O177 1.275 . S
C176 O178 1.246 . S
O177 Tb160 2.427 . S
O177 C176 1.275 . S
O178 Tb160 2.513 . S
O178 C176 1.246 . S
C179 O163 1.245 . S
C179 O164 1.259 . S
C180 C181 1.369 . S
C180 C182 1.419 . S
C180 H184 0.930 . S
C181 C180 1.369 . S
C181 C190 1.429 . S
C182 C180 1.419 . S
C182 C183 1.363 . S
C182 H185 0.929 . S
C183 C182 1.363 . S
C183 C189 1.428 . S
H184 C180 0.930 . S
H185 C182 0.929 . S
S186 N187 1.614 . S
S186 N188 1.611 . S
N187 S186 1.614 . S
N187 C190 1.350 . S
N188 S186 1.611 . S
N188 C189 1.351 . S
C189 C183 1.428 . S
C189 N188 1.351 . S
C189 C190 1.434 . S
C190 C181 1.429 . S
C190 N187 1.350 . S
C190 C189 1.434 . S
C191 C192 1.369 . S
C191 C193 1.419 . S
C191 H195 0.930 . S
C192 C191 1.369 . S
C192 C201 1.429 . S
C193 C191 1.419 . S
C193 C194 1.363 . S
C193 H196 0.929 . S
C194 C193 1.363 . S
C194 C200 1.428 . S
H195 C191 0.930 . S
H196 C193 0.929 . S
S197 N198 1.613 . S
S197 N199 1.610 1_554 S
N198 S197 1.613 . S
N198 C201 1.350 1_554 S
N199 S197 1.610 1_556 S
N199 C200 1.351 . S
C200 C194 1.428 . S
C200 N199 1.351 . S
C200 C201 1.434 . S
C201 C192 1.429 . S
C201 N198 1.350 1_556 S
C201 C200 1.434 . S
C202 C203 1.369 . S
C202 C204 1.419 . S
C202 H206 0.930 1_565 S
C203 C202 1.369 . S
C203 C212 1.429 . S
C204 C202 1.419 . S
C204 C205 1.363 . S
C204 H207 0.929 . S
C205 C204 1.363 . S
C205 C211 1.428 . S
H206 C202 0.930 1_545 S
H207 C204 0.929 . S
S208 N209 1.613 . S
S208 N210 1.610 . S
N209 S208 1.613 . S
N209 C212 1.350 . S
N210 S208 1.610 . S
N210 C211 1.351 . S
C211 C205 1.428 . S
C211 N210 1.351 . S
C211 C212 1.434 . S
C212 C203 1.429 . S
C212 N209 1.350 . S
C212 C211 1.434 . S
C213 C214 1.369 . S
C213 C215 1.419 . S
C213 H217 0.930 . S
C214 C213 1.369 . S
C214 C223 1.429 . S
C215 C213 1.419 . S
C215 C216 1.363 . S
C215 H218 0.929 . S
C216 C215 1.363 . S
C216 C222 1.428 . S
H217 C213 0.930 . S
H218 C215 0.929 . S
S219 N220 1.613 1_565 S
S219 N221 1.610 1_565 S
N220 S219 1.613 1_545 S
N220 C223 1.350 . S
N221 S219 1.610 1_545 S
N221 C222 1.351 . S
C222 C216 1.428 . S
C222 N221 1.351 . S
C222 C223 1.434 . S
C223 C214 1.429 . S
C223 N220 1.350 . S
C223 C222 1.434 . S
C224 C225 1.369 . S
C224 C226 1.419 . S
C224 H228 0.930 . S
C225 C224 1.369 . S
C225 C234 1.429 . S
C226 C224 1.419 . S
C226 C227 1.363 . S
C226 H229 0.929 1_554 S
C227 C226 1.363 . S
C227 C233 1.428 . S
H228 C224 0.930 . S
H229 C226 0.929 1_556 S
S230 N231 1.613 . S
S230 N232 1.610 . S
N231 S230 1.613 . S
N231 C234 1.350 . S
N232 S230 1.610 . S
N232 C233 1.351 . S
C233 C227 1.428 . S
C233 N232 1.351 . S
C233 C234 1.434 . S
C234 C225 1.429 . S
C234 N231 1.350 . S
C234 C233 1.434 . S
C235 C236 1.369 . S
C235 C237 1.419 . S
C235 H239 0.930 . S
C236 C235 1.369 . S
C236 C245 1.429 . S
C237 C235 1.419 . S
C237 C238 1.363 . S
C237 H240 0.929 . S
C238 C237 1.363 . S
C238 C244 1.428 . S
H239 C235 0.930 . S
H240 C237 0.929 . S
S241 N242 1.613 . S
S241 N243 1.610 1_556 S
N242 S241 1.613 . S
N242 C245 1.350 1_556 S
N243 S241 1.610 1_554 S
N243 C244 1.351 . S
C244 C238 1.428 . S
C244 N243 1.351 . S
C244 C245 1.434 . S
C245 C236 1.429 . S
C245 N242 1.350 1_554 S
C245 C244 1.434 . S
C246 C247 1.369 . S
C246 C248 1.419 . S
C246 H250 0.930 . S
C247 C246 1.369 . S
C247 C256 1.428 . S
C248 C246 1.419 . S
C248 C249 1.363 . S
C248 H251 0.929 . S
C249 C248 1.363 . S
C249 C255 1.428 . S
H250 C246 0.930 . S
H251 C248 0.929 . S
S252 N253 1.613 . S
S252 N254 1.610 1_455 S
N253 S252 1.613 . S
N253 C256 1.343 1_455 S
N254 S252 1.610 1_655 S
N254 C255 1.351 . S
C255 C249 1.428 . S
C255 N254 1.351 . S
C255 C256 1.441 . S
C256 C247 1.428 . S
C256 N253 1.343 1_655 S
C256 C255 1.441 . S
C257 C258 1.369 . S
C257 C259 1.419 . S
C257 H261 0.930 . S
C258 C257 1.369 . S
C258 C267 1.429 . S
C259 C257 1.419 . S
C259 C260 1.363 . S
C259 H262 0.929 . S
C260 C259 1.363 . S
C260 C266 1.428 . S
H261 C257 0.930 . S
H262 C259 0.929 . S
S263 N264 1.613 . S
S263 N265 1.610 . S
N264 S263 1.613 . S
N264 C267 1.350 . S
N265 S263 1.610 . S
N265 C266 1.351 . S
C266 C260 1.428 . S
C266 N265 1.351 . S
C266 C267 1.434 . S
C267 C258 1.429 . S
C267 N264 1.350 . S
C267 C266 1.434 . S
C268 C269 1.369 . S
C268 C270 1.419 1_545 S
C268 H272 0.930 1_545 S
C269 C268 1.369 . S
C269 C278 1.429 . S
C270 C268 1.419 1_565 S
C270 C271 1.363 . S
C270 H273 0.929 . S
C271 C270 1.363 . S
C271 C277 1.428 1_565 S
H272 C268 0.930 1_565 S
H273 C270 0.929 . S
S274 N275 1.613 . S
S274 N276 1.610 . S
N275 S274 1.613 . S
N275 C278 1.350 . S
N276 S274 1.610 . S
N276 C277 1.351 . S
C277 C271 1.428 1_545 S
C277 N276 1.351 . S
C277 C278 1.434 . S
C278 C269 1.429 . S
C278 N275 1.350 . S
C278 C277 1.434 . S
C279 C280 1.369 . S
C279 C281 1.419 . S
C279 H283 0.930 . S
C280 C279 1.369 . S
C280 C289 1.429 1_554 S
C281 C279 1.419 . S
C281 C282 1.363 . S
C281 H284 0.929 . S
C282 C281 1.363 . S
C282 C288 1.425 1_554 S
H283 C279 0.930 . S
H284 C281 0.929 . S
S285 N286 1.613 . S
S285 N287 1.610 . S
N286 S285 1.613 . S
N286 C289 1.350 . S
N287 S285 1.610 . S
N287 C288 1.354 . S
C288 C282 1.425 1_556 S
C288 N287 1.354 . S
C288 C289 1.434 . S
C289 C280 1.429 1_556 S
C289 N286 1.350 . S
C289 C288 1.434 . S
C290 C291 1.369 1_545 S
C290 C292 1.419 . S
C290 H294 0.930 1_554 S
C291 C290 1.369 1_565 S
C291 C300 1.429 1_565 S
C292 C290 1.419 . S
C292 C293 1.363 . S
C292 H295 0.929 . S
C293 C292 1.363 . S
C293 C299 1.428 . S
H294 C290 0.930 1_556 S
H295 C292 0.929 . S
S296 N297 1.613 1_545 S
S296 N298 1.610 . S
N297 S296 1.613 1_565 S
N297 C300 1.350 1_565 S
N298 S296 1.610 . S
N298 C299 1.351 . S
C299 C293 1.428 . S
C299 N298 1.351 . S
C299 C300 1.434 . S
C300 C291 1.429 1_545 S
C300 N297 1.350 1_545 S
C300 C299 1.434 . S
C301 C302 1.369 1_556 S
C301 C303 1.419 1_655 S
C301 H305 0.930 . S
C302 C301 1.369 1_554 S
C302 C311 1.429 1_655 S
C303 C301 1.419 1_455 S
C303 C304 1.365 . S
C303 H306 0.929 . S
C304 C303 1.365 . S
C304 C310 1.426 1_556 S
H305 C301 0.930 . S
H306 C303 0.929 . S
S307 N308 1.613 1_545 S
S307 N309 1.610 1_545 S
N308 S307 1.613 1_565 S
N308 C311 1.350 . S
N309 S307 1.610 1_565 S
N309 C310 1.351 . S
C310 C304 1.426 1_554 S
C310 N309 1.351 . S
C310 C311 1.434 . S
C311 C302 1.429 1_455 S
C311 N308 1.350 . S
C311 C310 1.434 . S
C312 C313 1.369 . S
C312 C314 1.419 . S
C312 H316 0.930 . S
C313 C312 1.369 . S
C313 C322 1.429 . S
C314 C312 1.419 . S
C314 C315 1.363 . S
C314 H317 0.929 . S
C315 C314 1.363 . S
C315 C321 1.428 . S
H316 C312 0.930 . S
H317 C314 0.929 . S
S318 N319 1.613 . S
S318 N320 1.610 . S
N319 S318 1.613 . S
N319 C322 1.350 . S
N320 S318 1.610 . S
N320 C321 1.351 . S
C321 C315 1.428 . S
C321 N320 1.351 . S
C321 C322 1.434 . S
C322 C313 1.429 . S
C322 N319 1.350 . S
C322 C321 1.434 . S
C323 C324 1.369 . S
C323 C325 1.419 . S
C323 H327 0.930 . S
C324 C323 1.369 . S
C324 C333 1.429 . S
C325 C323 1.419 . S
C325 C326 1.363 . S
C325 H328 0.929 . S
C326 C325 1.363 . S
C326 C332 1.428 . S
H327 C323 0.930 . S
H328 C325 0.929 . S
S329 N330 1.613 . S
S329 N331 1.610 . S
N330 S329 1.613 . S
N330 C333 1.350 . S
N331 S329 1.610 . S
N331 C332 1.351 . S
C332 C326 1.428 . S
C332 N331 1.351 . S
C332 C333 1.434 . S
C333 C324 1.429 . S
C333 N330 1.350 . S
C333 C332 1.434 . S
C334 C335 1.369 . S
C334 C336 1.419 . S
C334 H338 0.930 . S
C335 C334 1.369 . S
C335 C344 1.429 . S
C336 C334 1.419 . S
C336 C337 1.363 . S
C336 H339 0.929 . S
C337 C336 1.363 . S
C337 C343 1.428 . S
H338 C334 0.930 . S
H339 C336 0.929 . S
S340 N341 1.613 . S
S340 N342 1.610 . S
N341 S340 1.613 . S
N341 C344 1.350 . S
N342 S340 1.610 . S
N342 C343 1.351 . S
C343 C337 1.428 . S
C343 N342 1.351 . S
C343 C344 1.434 . S
C344 C335 1.429 . S
C344 N341 1.350 . S
C344 C343 1.434 . S
C345 C346 1.369 . S
C345 C347 1.419 . S
C345 H349 0.930 . S
C346 C345 1.369 . S
C346 C355 1.429 . S
C347 C345 1.419 . S
C347 C348 1.363 . S
C347 H350 0.929 . S
C348 C347 1.363 . S
C348 C354 1.428 . S
H349 C345 0.930 . S
H350 C347 0.929 . S
S351 N352 1.613 . S
S351 N353 1.610 . S
N352 S351 1.613 . S
N352 C355 1.350 . S
N353 S351 1.610 . S
N353 C354 1.351 . S
C354 C348 1.428 . S
C354 N353 1.351 . S
C354 C355 1.434 . S
C355 C346 1.429 . S
C355 N352 1.350 . S
C355 C354 1.434 . S
C356 C357 1.369 . S
C356 C358 1.419 . S
C356 H360 0.930 . S
C357 C356 1.369 . S
C357 C366 1.429 . S
C358 C356 1.419 . S
C358 C359 1.363 . S
C358 H361 0.929 . S
C359 C358 1.363 . S
C359 C365 1.428 . S
H360 C356 0.930 . S
H361 C358 0.929 . S
S362 N363 1.613 . S
S362 N364 1.610 . S
N363 S362 1.613 . S
N363 C366 1.350 . S
N364 S362 1.610 . S
N364 C365 1.351 . S
C365 C359 1.428 . S
C365 N364 1.351 . S
C365 C366 1.434 . S
C366 C357 1.429 . S
C366 N363 1.350 . S
C366 C365 1.434 . S
C367 C368 1.369 . S
C367 C369 1.419 . S
C367 H371 0.930 . S
C368 C367 1.369 . S
C368 C377 1.429 . S
C369 C367 1.419 . S
C369 C370 1.363 . S
C369 H372 0.929 . S
C370 C369 1.363 . S
C370 C376 1.428 . S
H371 C367 0.930 . S
H372 C369 0.929 . S
S373 N374 1.613 . S
S373 N375 1.610 . S
N374 S373 1.613 . S
N374 C377 1.350 . S
N375 S373 1.610 . S
N375 C376 1.351 . S
C376 C370 1.428 . S
C376 N375 1.351 . S
C376 C377 1.434 . S
C377 C368 1.429 . S
C377 N374 1.350 . S
C377 C376 1.434 . S
C378 C379 1.369 1_655 S
C378 C380 1.419 . S
C378 H382 0.930 . S
C379 C378 1.369 1_455 S
C379 C388 1.429 . S
C380 C378 1.419 . S
C380 C381 1.363 1_655 S
C380 H383 0.929 . S
C381 C380 1.363 1_455 S
C381 C387 1.428 . S
H382 C378 0.930 . S
H383 C380 0.929 . S
S384 N385 1.613 . S
S384 N386 1.610 . S
N385 S384 1.613 . S
N385 C388 1.350 . S
N386 S384 1.610 . S
N386 C387 1.351 . S
C387 C381 1.428 . S
C387 N386 1.351 . S
C387 C388 1.434 . S
C388 C379 1.429 . S
C388 N385 1.350 . S
C388 C387 1.434 . S
C389 C390 1.369 . S
C389 C391 1.419 . S
C389 H393 0.930 . S
C390 C389 1.369 . S
C390 C399 1.429 . S
C391 C389 1.419 . S
C391 C392 1.363 . S
C391 H394 0.929 . S
C392 C391 1.363 . S
C392 C398 1.428 . S
H393 C389 0.930 . S
H394 C391 0.929 . S
S395 N396 1.613 . S
S395 N397 1.610 . S
N396 S395 1.613 . S
N396 C399 1.350 . S
N397 S395 1.610 . S
N397 C398 1.351 . S
C398 C392 1.428 . S
C398 N397 1.351 . S
C398 C399 1.434 . S
C399 C390 1.429 . S
C399 N396 1.350 . S
C399 C398 1.434 . S
C400 C401 1.369 1_565 S
C400 C402 1.419 . S
C400 H404 0.930 . S
C401 C400 1.369 1_545 S
C401 C410 1.429 . S
C402 C400 1.419 . S
C402 C403 1.363 1_565 S
C402 H405 0.929 . S
C403 C402 1.363 1_545 S
C403 C409 1.428 . S
H404 C400 0.930 . S
H405 C402 0.929 . S
S406 N407 1.613 . S
S406 N408 1.610 . S
N407 S406 1.613 . S
N407 C410 1.350 . S
N408 S406 1.610 . S
N408 C409 1.351 . S
C409 C403 1.428 . S
C409 N408 1.351 . S
C409 C410 1.434 . S
C410 C401 1.429 . S
C410 N407 1.350 . S
C410 C409 1.434 . S
C411 C412 1.369 . S
C411 C413 1.419 . S
C411 H415 0.930 . S
C412 C411 1.369 . S
C412 C421 1.429 . S
C413 C411 1.419 . S
C413 C414 1.363 . S
C413 H416 0.929 . S
C414 C413 1.363 . S
C414 C420 1.428 . S
H415 C411 0.930 . S
H416 C413 0.929 . S
S417 N418 1.613 . S
S417 N419 1.610 1_556 S
N418 S417 1.613 . S
N418 C421 1.350 . S
N419 S417 1.610 1_554 S
N419 C420 1.351 1_554 S
C420 C414 1.428 . S
C420 N419 1.351 1_556 S
C420 C421 1.434 . S
C421 C412 1.429 . S
C421 N418 1.350 . S
C421 C420 1.434 . S
C422 C423 1.369 . S
C422 C424 1.419 . S
C422 H426 0.930 . S
C423 C422 1.369 . S
C423 C432 1.429 . S
C424 C422 1.419 . S
C424 C425 1.363 . S
C424 H427 0.929 . S
C425 C424 1.363 . S
C425 C431 1.428 . S
H426 C422 0.930 . S
H427 C424 0.929 . S
S428 N429 1.613 . S
S428 N430 1.610 . S
N429 S428 1.613 . S
N429 C432 1.350 . S
N430 S428 1.610 . S
N430 C431 1.351 . S
C431 C425 1.428 . S
C431 N430 1.351 . S
C431 C432 1.434 . S
C432 C423 1.429 . S
C432 N429 1.350 . S
C432 C431 1.434 . S
C433 C434 1.369 . S
C433 C435 1.419 . S
C433 H437 0.930 . S
C434 C433 1.369 . S
C434 C443 1.429 . S
C435 C433 1.419 . S
C435 C436 1.363 . S
C435 H438 0.929 . S
C436 C435 1.363 . S
C436 C442 1.428 . S
H437 C433 0.930 . S
H438 C435 0.929 . S
S439 N440 1.613 . S
S439 N441 1.610 . S
N440 S439 1.613 . S
N440 C443 1.350 . S
N441 S439 1.610 . S
N441 C442 1.351 . S
C442 C436 1.428 . S
C442 N441 1.351 . S
C442 C443 1.434 . S
C443 C434 1.429 . S
C443 N440 1.350 . S
C443 C442 1.434 . S
C444 C445 1.369 . S
C444 C446 1.419 . S
C444 H448 0.930 . S
C445 C444 1.369 . S
C445 C454 1.429 . S
C446 C444 1.419 . S
C446 C447 1.363 . S
C446 H449 0.929 . S
C447 C446 1.363 . S
C447 C453 1.428 . S
H448 C444 0.930 . S
H449 C446 0.929 . S
S450 N451 1.613 . S
S450 N452 1.610 . S
N451 S450 1.613 . S
N451 C454 1.350 . S
N452 S450 1.610 . S
N452 C453 1.351 . S
C453 C447 1.428 . S
C453 N452 1.351 . S
C453 C454 1.434 . S
C454 C445 1.429 . S
C454 N451 1.350 . S
C454 C453 1.434 . S
C455 C456 1.369 . S
C455 C457 1.419 . S
C455 H459 0.930 . S
C456 C455 1.369 . S
C456 C465 1.429 . S
C457 C455 1.419 . S
C457 C458 1.363 . S
C457 H460 0.929 . S
C458 C457 1.363 . S
C458 C464 1.428 . S
H459 C455 0.930 . S
H460 C457 0.929 . S
S461 N462 1.613 . S
S461 N463 1.610 . S
N462 S461 1.613 . S
N462 C465 1.350 . S
N463 S461 1.610 . S
N463 C464 1.351 . S
C464 C458 1.428 . S
C464 N463 1.351 . S
C464 C465 1.434 . S
C465 C456 1.429 . S
C465 N462 1.350 . S
C465 C464 1.434 . S
C466 C467 1.369 . S
C466 C468 1.419 . S
C466 H470 0.930 . S
C467 C466 1.369 . S
C467 C476 1.429 . S
C468 C466 1.419 . S
C468 C469 1.363 . S
C468 H471 0.929 . S
C469 C468 1.363 . S
C469 C475 1.428 . S
H470 C466 0.930 . S
H471 C468 0.929 . S
S472 N473 1.613 . S
S472 N474 1.610 . S
N473 S472 1.613 . S
N473 C476 1.350 . S
N474 S472 1.610 . S
N474 C475 1.351 . S
C475 C469 1.428 . S
C475 N474 1.351 . S
C475 C476 1.434 . S
C476 C467 1.429 . S
C476 N473 1.350 . S
C476 C475 1.434 . S
C181 C8 2.113 1_556 S
C183 C148 2.034 . S
C192 C36 1.624 1_556 S
C194 C176 1.575 . S
C203 C48 1.933 . S
C205 C136 1.766 . S
C214 C96 1.276 . S
C216 C56 1.346 . S
C225 C116 1.526 . S
C227 C16 1.448 . S
C236 C28 1.816 . S
C238 C76 1.639 . S
C247 C156 1.965 1_655 S
C249 C108 2.107 . S
C258 C168 2.206 . S
C260 C68 2.126 . S
C269 C88 2.421 . S
C271 C128 2.328 . S
C280 C59 1.578 . S
C282 C6 1.579 . S
C291 C39 1.733 . S
C293 C19 1.641 . S
C302 C26 1.292 . S
C304 C46 1.340 . S
C313 C79 1.522 . S
C315 C106 1.641 . S
C324 C66 1.648 . S
C326 C99 1.501 . S
C335 C86 1.709 . S
C337 C119 1.556 . S
C346 C179 1.640 . S
C348 C126 1.676 . S
C357 C159 2.019 . S
C359 C139 1.928 . S
C368 C166 1.537 . S
C370 C146 1.483 . S
C379 C9 1.197 . S
C381 C1 1.189 . S
C390 C21 1.171 . S
C392 C29 1.178 . S
C401 C49 1.169 . S
C403 C41 1.177 . S
C412 C69 1.210 . S
C414 C61 1.201 1_556 S
C423 C89 1.180 . S
C425 C81 1.173 1_556 S
C434 C109 1.203 . S
C436 C101 1.204 1_556 S
C445 C129 1.187 . S
C447 C121 1.190 1_554 S
C456 C149 1.185 1_554 S
C458 C141 1.178 . S
C467 C169 1.188 . S
C469 C161 1.180 1_554 S
