# Generated by pormake.
# Topology wkq, (6)-cn, num edge types: 1
# Building blocks:
#     Node 0, Type 0, BuildingBlock: IZENUY_clean_sbu_0, # of connection points: 6
#     Node 1, Type 0, BuildingBlock: IZENUY_clean_sbu_0, # of connection points: 6
#     Node 2, Type 0, BuildingBlock: IZENUY_clean_sbu_0, # of connection points: 6
#     Node 3, Type 0, BuildingBlock: IZENUY_clean_sbu_0, # of connection points: 6
#     Node 4, Type 0, BuildingBlock: IZENUY_clean_sbu_0, # of connection points: 6
#     Node 5, Type 0, BuildingBlock: IZENUY_clean_sbu_0, # of connection points: 6
#     Node 6, Type 0, BuildingBlock: IZENUY_clean_sbu_0, # of connection points: 6
#     Node 7, Type 0, BuildingBlock: IZENUY_clean_sbu_0, # of connection points: 6
#     Node 8, Type 0, BuildingBlock: IZENUY_clean_sbu_0, # of connection points: 6
#     Node 9, Type 0, BuildingBlock: IZENUY_clean_sbu_0, # of connection points: 6
#     Node 10, Type 0, BuildingBlock: IZENUY_clean_sbu_0, # of connection points: 6
#     Node 11, Type 0, BuildingBlock: IZENUY_clean_sbu_0, # of connection points: 6
#     Edge 12, Type (0, 0), BuildingBlock: KIFKEQ_clean_linker_1, # of connection points: 2
#     Edge 13, Type (0, 0), BuildingBlock: KIFKEQ_clean_linker_1, # of connection points: 2
#     Edge 14, Type (0, 0), BuildingBlock: KIFKEQ_clean_linker_1, # of connection points: 2
#     Edge 15, Type (0, 0), BuildingBlock: KIFKEQ_clean_linker_1, # of connection points: 2
#     Edge 16, Type (0, 0), BuildingBlock: KIFKEQ_clean_linker_1, # of connection points: 2
#     Edge 17, Type (0, 0), BuildingBlock: KIFKEQ_clean_linker_1, # of connection points: 2
#     Edge 18, Type (0, 0), BuildingBlock: KIFKEQ_clean_linker_1, # of connection points: 2
#     Edge 19, Type (0, 0), BuildingBlock: KIFKEQ_clean_linker_1, # of connection points: 2
#     Edge 20, Type (0, 0), BuildingBlock: KIFKEQ_clean_linker_1, # of connection points: 2
#     Edge 21, Type (0, 0), BuildingBlock: KIFKEQ_clean_linker_1, # of connection points: 2
#     Edge 22, Type (0, 0), BuildingBlock: KIFKEQ_clean_linker_1, # of connection points: 2
#     Edge 23, Type (0, 0), BuildingBlock: KIFKEQ_clean_linker_1, # of connection points: 2
#     Edge 24, Type (0, 0), BuildingBlock: KIFKEQ_clean_linker_1, # of connection points: 2
#     Edge 25, Type (0, 0), BuildingBlock: KIFKEQ_clean_linker_1, # of connection points: 2
#     Edge 26, Type (0, 0), BuildingBlock: KIFKEQ_clean_linker_1, # of connection points: 2
#     Edge 27, Type (0, 0), BuildingBlock: KIFKEQ_clean_linker_1, # of connection points: 2
#     Edge 28, Type (0, 0), BuildingBlock: KIFKEQ_clean_linker_1, # of connection points: 2
#     Edge 29, Type (0, 0), BuildingBlock: KIFKEQ_clean_linker_1, # of connection points: 2
#     Edge 30, Type (0, 0), BuildingBlock: KIFKEQ_clean_linker_1, # of connection points: 2
#     Edge 31, Type (0, 0), BuildingBlock: KIFKEQ_clean_linker_1, # of connection points: 2
#     Edge 32, Type (0, 0), BuildingBlock: KIFKEQ_clean_linker_1, # of connection points: 2
#     Edge 33, Type (0, 0), BuildingBlock: KIFKEQ_clean_linker_1, # of connection points: 2
#     Edge 34, Type (0, 0), BuildingBlock: KIFKEQ_clean_linker_1, # of connection points: 2
#     Edge 35, Type (0, 0), BuildingBlock: KIFKEQ_clean_linker_1, # of connection points: 2
#     Edge 36, Type (0, 0), BuildingBlock: KIFKEQ_clean_linker_1, # of connection points: 2
#     Edge 37, Type (0, 0), BuildingBlock: KIFKEQ_clean_linker_1, # of connection points: 2
#     Edge 38, Type (0, 0), BuildingBlock: KIFKEQ_clean_linker_1, # of connection points: 2
#     Edge 39, Type (0, 0), BuildingBlock: KIFKEQ_clean_linker_1, # of connection points: 2
#     Edge 40, Type (0, 0), BuildingBlock: KIFKEQ_clean_linker_1, # of connection points: 2
#     Edge 41, Type (0, 0), BuildingBlock: KIFKEQ_clean_linker_1, # of connection points: 2
#     Edge 42, Type (0, 0), BuildingBlock: KIFKEQ_clean_linker_1, # of connection points: 2
#     Edge 43, Type (0, 0), BuildingBlock: KIFKEQ_clean_linker_1, # of connection points: 2
#     Edge 44, Type (0, 0), BuildingBlock: KIFKEQ_clean_linker_1, # of connection points: 2
#     Edge 45, Type (0, 0), BuildingBlock: KIFKEQ_clean_linker_1, # of connection points: 2
#     Edge 46, Type (0, 0), BuildingBlock: KIFKEQ_clean_linker_1, # of connection points: 2
#     Edge 47, Type (0, 0), BuildingBlock: KIFKEQ_clean_linker_1, # of connection points: 2
# Relax obj value: 0.404
# Max RMSD: 0.286
# Mean RMSD: 0.286
data_MOF--net-wkq--node1-IZENUY_clean_sbu_0--edge1-KIFKEQ_clean_linker_1
_symmetry_space_group_name_H-M    P1
_symmetry_Int_Tables_number       1
_symmetry_cell_setting            triclinic
loop_
_symmetry_equiv_pos_as_xyz
'x, y, z'
_cell_length_a     37.938426
_cell_length_b     37.939337
_cell_length_c     35.230184
_cell_angle_alpha  89.913013
_cell_angle_beta   90.061112
_cell_angle_gamma 120.1019
loop_
_atom_site_label
_atom_site_type_symbol
_atom_site_fract_x
_atom_site_fract_y
_atom_site_fract_z
_atom_type_partial_charge
Fe0 Fe 0.23297 0.38014 0.03725 0.0
Fe1 Fe 0.29101 0.47207 0.04371 0.0
O2 O 0.25193 0.42996 0.01919 0.0
Fe3 Fe 0.23274 0.43881 0.97644 0.0
O4 O 0.1801 0.39568 0.98225 0.0
O5 O 0.18142 0.37023 0.03794 0.0
O6 O 0.236 0.39608 0.08708 0.0
C7 C 0.24085 0.42883 0.10177 0.0
C8 C 0.24262 0.37302 0.95852 0.0
O9 O 0.25835 0.46224 0.08403 0.0
C10 C 0.31818 0.49284 0.97194 0.0
O11 O 0.28322 0.38517 0.03886 0.0
O12 O 0.31341 0.4446 0.06622 0.0
O13 O 0.24892 0.4081 0.94973 0.0
O14 O 0.22678 0.35689 0.9902 0.0
C15 C 0.24026 0.50137 0.02113 0.0
O16 O 0.32536 0.48333 0.00419 0.0
O17 O 0.28205 0.48337 0.96265 0.0
C18 C 0.3113 0.41102 0.05956 0.0
O19 O 0.2759 0.5082 0.02727 0.0
O20 O 0.21606 0.47059 0.00157 0.0
C21 C 0.16188 0.37399 0.01099 0.0
Fe22 Fe 0.81215 0.22536 0.14968 0.0
Fe23 Fe 0.87653 0.22075 0.1986 0.0
O24 O 0.84217 0.23911 0.19161 0.0
Fe25 Fe 0.83799 0.27043 0.22632 0.0
O26 O 0.78414 0.23589 0.2321 0.0
O27 O 0.76716 0.22384 0.17205 0.0
O28 O 0.78879 0.17147 0.16152 0.0
C29 C 0.80845 0.15333 0.16753 0.0
C30 C 0.83464 0.30622 0.15609 0.0
O31 O 0.84675 0.17379 0.17103 0.0
C32 C 0.91921 0.29903 0.23322 0.0
O33 O 0.85242 0.22547 0.11942 0.0
O34 O 0.90542 0.24891 0.15768 0.0
O35 O 0.82985 0.30233 0.19183 0.0
O36 O 0.83313 0.27806 0.13587 0.0
C37 C 0.8423 0.20864 0.26845 0.0
O38 O 0.9126 0.26332 0.2279 0.0
O39 O 0.89222 0.30788 0.22484 0.0
C40 C 0.89079 0.24488 0.12484 0.0
O41 O 0.84973 0.19246 0.2406 0.0
O42 O 0.84482 0.2432 0.26589 0.0
C43 C 0.75734 0.22258 0.20668 0.0
Fe44 Fe 0.65865 0.86627 0.36381 0.0
Fe45 Fe 0.56676 0.83367 0.36824 0.0
O46 O 0.60887 0.83418 0.34614 0.0
Fe47 Fe 0.60064 0.80297 0.30582 0.0
O48 O 0.64361 0.79409 0.31559 0.0
O49 O 0.66741 0.82421 0.3705 0.0
O50 O 0.64248 0.85919 0.41364 0.0
C51 C 0.60977 0.83312 0.42977 0.0
C52 C 0.66723 0.87646 0.28462 0.0
O53 O 0.57628 0.81536 0.41216 0.0
C54 C 0.54643 0.83327 0.2944 0.0
O55 O 0.65436 0.91163 0.35893 0.0
O56 O 0.59463 0.88626 0.38562 0.0
O57 O 0.63191 0.84773 0.27658 0.0
O58 O 0.68277 0.87815 0.31688 0.0
C59 C 0.53648 0.75096 0.35036 0.0
O60 O 0.55541 0.85239 0.32543 0.0
O61 O 0.55632 0.80631 0.2884 0.0
C62 C 0.6284 0.91672 0.37657 0.0
O63 O 0.53052 0.78052 0.35601 0.0
O64 O 0.56824 0.7566 0.33329 0.0
C65 C 0.66415 0.79909 0.34559 0.0
Fe66 Fe 0.81677 0.66139 0.53405 0.0
Fe67 Fe 0.75577 0.57027 0.54193 0.0
O68 O 0.79724 0.61072 0.51824 0.0
Fe69 Fe 0.81897 0.60047 0.47806 0.0
O70 O 0.87138 0.64366 0.48623 0.0
O71 O 0.8661 0.6668 0.5417 0.0
O72 O 0.80704 0.64803 0.58431 0.0
C73 C 0.7993 0.61603 0.60222 0.0
C74 C 0.81248 0.66651 0.45537 0.0
O75 O 0.78377 0.58186 0.58596 0.0
C76 C 0.73436 0.54584 0.4692 0.0
O77 O 0.76804 0.65909 0.52856 0.0
O78 O 0.73218 0.59986 0.55647 0.0
O79 O 0.80461 0.63066 0.44805 0.0
O80 O 0.82997 0.68325 0.48622 0.0
C81 C 0.80783 0.53891 0.52642 0.0
O82 O 0.72501 0.55667 0.4995 0.0
O83 O 0.771 0.55545 0.46273 0.0
C84 C 0.73666 0.6339 0.54659 0.0
O85 O 0.77246 0.53334 0.5325 0.0
O86 O 0.8331 0.5689 0.50652 0.0
C87 C 0.8872 0.66166 0.51728 0.0
Fe88 Fe 0.1732 0.80726 0.70839 0.0
Fe89 Fe 0.22016 0.76481 0.73313 0.0
O90 O 0.21089 0.79373 0.6994 0.0
Fe91 Fe 0.23922 0.8095 0.65635 0.0
O92 O 0.25929 0.86285 0.66828 0.0
O93 O 0.19968 0.85557 0.68207 0.0
O94 O 0.19895 0.83571 0.75054 0.0
C95 C 0.20891 0.82082 0.77768 0.0
C96 C 0.15859 0.78457 0.63415 0.0
O97 O 0.21064 0.78853 0.77387 0.0
C98 C 0.2236 0.73089 0.66228 0.0
O99 O 0.14002 0.76197 0.73676 0.0
O100 O 0.16765 0.72334 0.73251 0.0
O101 O 0.19655 0.80647 0.62768 0.0
O102 O 0.14498 0.77885 0.66747 0.0
C103 C 0.29846 0.81746 0.711 0.0
O104 O 0.23131 0.73625 0.69754 0.0
O105 O 0.22109 0.75729 0.64246 0.0
C106 C 0.13766 0.72769 0.74041 0.0
O107 O 0.27294 0.80381 0.73753 0.0
O108 O 0.28663 0.8144 0.67679 0.0
C109 C 0.23762 0.87826 0.67682 0.0
Fe110 Fe 0.39087 0.16271 0.86645 0.0
Fe111 Fe 0.48249 0.19668 0.87369 0.0
O112 O 0.44103 0.19649 0.85071 0.0
Fe113 Fe 0.44981 0.22987 0.81198 0.0
O114 O 0.40582 0.23742 0.82289 0.0
O115 O 0.38261 0.20436 0.87664 0.0
O116 O 0.40506 0.16497 0.91653 0.0
C117 C 0.43627 0.19091 0.93451 0.0
C118 C 0.38424 0.15803 0.78722 0.0
O119 O 0.47006 0.21156 0.91802 0.0
C120 C 0.50695 0.20271 0.80054 0.0
O121 O 0.39611 0.11836 0.858 0.0
O122 O 0.45443 0.14266 0.88746 0.0
O123 O 0.42002 0.18659 0.78078 0.0
O124 O 0.36776 0.15492 0.81916 0.0
C125 C 0.51125 0.27987 0.86065 0.0
O126 O 0.49714 0.1819 0.83063 0.0
O127 O 0.49516 0.22828 0.79444 0.0
C128 C 0.42127 0.11246 0.87635 0.0
O129 O 0.51814 0.25078 0.86507 0.0
O130 O 0.48091 0.27484 0.84134 0.0
C131 C 0.38622 0.2315 0.85384 0.0
Fe132 Fe 0.60708 0.81417 0.83902 0.0
Fe133 Fe 0.66516 0.81534 0.77691 0.0
O134 O 0.61546 0.79588 0.79548 0.0
Fe135 Fe 0.57311 0.75726 0.77079 0.0
O136 O 0.53734 0.77249 0.78795 0.0
O137 O 0.57522 0.83151 0.8152 0.0
O138 O 0.65023 0.86681 0.83385 0.0
C139 C 0.67108 0.88564 0.80497 0.0
C140 C 0.55266 0.72878 0.84231 0.0
O141 O 0.67489 0.86688 0.77742 0.0
C142 C 0.63398 0.73705 0.75383 0.0
O143 O 0.63792 0.79728 0.86451 0.0
O144 O 0.6888 0.82041 0.82371 0.0
O145 O 0.5619 0.72221 0.80976 0.0
O146 O 0.56247 0.76475 0.85238 0.0
C147 C 0.61589 0.80814 0.71282 0.0
O148 O 0.66031 0.76531 0.77405 0.0
O149 O 0.60026 0.73491 0.74771 0.0
C150 C 0.6728 0.80347 0.85511 0.0
O151 O 0.64886 0.81322 0.72726 0.0
O152 O 0.58268 0.79043 0.73081 0.0
C153 C 0.54436 0.80796 0.79542 0.0
Fe154 Fe 0.87374 0.65348 0.94678 0.0
Fe155 Fe 0.83413 0.56196 0.93302 0.0
O156 O 0.83971 0.60272 0.96146 0.0
Fe157 Fe 0.81124 0.59361 0.00394 0.0
O158 O 0.78837 0.62308 0.98628 0.0
O159 O 0.84613 0.67584 0.9697 0.0
O160 O 0.84395 0.6469 0.90418 0.0
C161 C 0.83498 0.61834 0.88084 0.0
C162 C 0.89162 0.65527 0.02189 0.0
O163 O 0.84132 0.58942 0.88868 0.0
C164 C 0.83082 0.53298 0.00828 0.0
O165 O 0.90848 0.64161 0.9211 0.0
O166 O 0.88807 0.57816 0.93603 0.0
O167 O 0.85358 0.63769 0.02916 0.0
O168 O 0.90444 0.6612 0.98816 0.0
C169 C 0.75432 0.53425 0.95246 0.0
O170 O 0.82527 0.52736 0.97284 0.0
O171 O 0.83129 0.56304 0.02415 0.0
C172 C 0.91547 0.61248 0.92417 0.0
O173 O 0.78046 0.5431 0.92681 0.0
O174 O 0.76496 0.54763 0.98605 0.0
C175 C 0.80823 0.65952 0.97497 0.0
Fe176 Fe 0.26703 0.82022 0.08898 0.0
Fe177 Fe 0.22964 0.80043 0.16898 0.0
O178 O 0.23822 0.82635 0.125 0.0
Fe179 Fe 0.21709 0.85821 0.11693 0.0
O180 O 0.18609 0.82698 0.07803 0.0
O181 O 0.23624 0.82314 0.05047 0.0
O182 O 0.23307 0.76599 0.08743 0.0
C183 C 0.22362 0.74159 0.11472 0.0
C184 C 0.2927 0.90006 0.0772 0.0
O185 O 0.22817 0.75437 0.14874 0.0
C186 C 0.24587 0.88017 0.18876 0.0
O187 O 0.30241 0.81569 0.12183 0.0
O188 O 0.28359 0.82432 0.17857 0.0
O189 O 0.25688 0.89276 0.08391 0.0
O190 O 0.3032 0.87458 0.08669 0.0
C191 C 0.15455 0.7918 0.15503 0.0
O192 O 0.23077 0.84258 0.19717 0.0
O193 O 0.24704 0.89128 0.15485 0.0
C194 C 0.30986 0.82412 0.15681 0.0
O195 O 0.17476 0.77431 0.16151 0.0
O196 O 0.17293 0.82956 0.14812 0.0
C197 C 0.20072 0.81844 0.04977 0.0
Fe198 Fe 0.38795 0.2178 0.28006 0.0
Fe199 Fe 0.47968 0.27341 0.26958 0.0
O200 O 0.43827 0.23716 0.29696 0.0
Fe201 Fe 0.44819 0.22099 0.34103 0.0
O202 O 0.40463 0.16827 0.33837 0.0
O203 O 0.37723 0.16598 0.28268 0.0
O204 O 0.40184 0.21701 0.23032 0.0
C205 C 0.43316 0.21868 0.21553 0.0
C206 C 0.38341 0.23312 0.35781 0.0
O207 O 0.4674 0.23695 0.23185 0.0
C208 C 0.50354 0.30642 0.33929 0.0
O209 O 0.39393 0.26834 0.2752 0.0
O210 O 0.4521 0.29478 0.24559 0.0
O211 O 0.41856 0.2395 0.3665 0.0
O212 O 0.3664 0.21521 0.32714 0.0
C213 C 0.50886 0.22402 0.29627 0.0
O214 O 0.49341 0.31124 0.30638 0.0
O215 O 0.49343 0.27099 0.35152 0.0
C216 C 0.41955 0.29463 0.25287 0.0
O217 O 0.51582 0.25904 0.28719 0.0
O218 O 0.47887 0.20189 0.31759 0.0
C219 C 0.38227 0.14835 0.31058 0.0
Fe220 Fe 0.17982 0.38426 0.45011 0.0
Fe221 Fe 0.21391 0.47646 0.44515 0.0
O222 O 0.21262 0.43403 0.46754 0.0
Fe223 Fe 0.24388 0.44211 0.50788 0.0
O224 O 0.25229 0.3988 0.49851 0.0
O225 O 0.2211 0.37417 0.44418 0.0
O226 O 0.18787 0.40031 0.40021 0.0
C227 C 0.21435 0.43291 0.38418 0.0
C228 C 0.16954 0.37662 0.5294 0.0
O229 O 0.23225 0.46646 0.40165 0.0
C230 C 0.21441 0.4971 0.51872 0.0
O231 O 0.13494 0.38956 0.45395 0.0
O232 O 0.16155 0.44929 0.42712 0.0
O233 O 0.19915 0.41149 0.53722 0.0
O234 O 0.16701 0.36054 0.49727 0.0
C235 C 0.29635 0.506 0.46341 0.0
O236 O 0.19524 0.48821 0.48767 0.0
O237 O 0.24102 0.48674 0.52492 0.0
C238 C 0.13065 0.41563 0.43554 0.0
O239 O 0.26706 0.51231 0.45768 0.0
O240 O 0.29036 0.47404 0.48038 0.0
C241 C 0.24655 0.37764 0.46886 0.0
Fe242 Fe 0.77974 0.21636 0.58269 0.0
Fe243 Fe 0.81896 0.2341 0.66201 0.0
O244 O 0.80878 0.2088 0.61763 0.0
Fe245 Fe 0.82865 0.17623 0.60813 0.0
O246 O 0.85904 0.2075 0.56888 0.0
O247 O 0.80911 0.2132 0.54309 0.0
O248 O 0.81465 0.27054 0.58175 0.0
C249 C 0.82429 0.29425 0.60959 0.0
C250 C 0.75205 0.13593 0.57032 0.0
O251 O 0.82038 0.28066 0.64325 0.0
C252 C 0.80183 0.15374 0.68035 0.0
O253 O 0.74576 0.22135 0.61695 0.0
O254 O 0.76512 0.21051 0.67276 0.0
O255 O 0.78783 0.14269 0.57589 0.0
O256 O 0.74247 0.16214 0.57971 0.0
C257 C 0.89304 0.24135 0.64561 0.0
O258 O 0.818 0.19132 0.68912 0.0
O259 O 0.79918 0.14298 0.64619 0.0
C260 C 0.73883 0.21192 0.65182 0.0
O261 O 0.87389 0.25976 0.6531 0.0
O262 O 0.87354 0.20367 0.63856 0.0
C263 C 0.84402 0.21652 0.54115 0.0
H264 H 0.27969 0.55612 0.07693 0.0
H265 H 0.17544 0.51315 0.00271 0.0
H266 H 0.26628 0.60714 0.10262 0.0
H267 H 0.16145 0.56491 0.02929 0.0
H268 H 0.19692 0.70237 0.04701 0.0
H269 H 0.19277 0.63908 0.02717 0.0
H270 H 0.22204 0.6204 0.14122 0.0
H271 H 0.22721 0.68467 0.16097 0.0
C272 C 0.25362 0.5574 0.06609 0.0
C273 C 0.22903 0.53078 0.03715 0.0
C274 C 0.24559 0.58652 0.08138 0.0
C275 C 0.21266 0.59026 0.06832 0.0
C276 C 0.18726 0.56306 0.03992 0.0
C277 C 0.19518 0.53336 0.02469 0.0
C278 C 0.20186 0.68449 0.06812 0.0
C279 C 0.21313 0.69908 0.10553 0.0
C280 C 0.19912 0.64788 0.05671 0.0
C281 C 0.20764 0.62475 0.08234 0.0
C282 C 0.21602 0.63782 0.12048 0.0
C283 C 0.21867 0.67453 0.13196 0.0
H284 H 0.54986 0.248 0.23039 0.0
H285 H 0.53289 0.17197 0.32783 0.0
H286 H 0.60372 0.2374 0.20744 0.0
H287 H 0.58748 0.16054 0.30421 0.0
H288 H 0.72678 0.21192 0.27864 0.0
H289 H 0.66106 0.20168 0.29854 0.0
H290 H 0.62456 0.19304 0.18117 0.0
H291 H 0.69122 0.20462 0.16108 0.0
C292 C 0.5573 0.22838 0.24674 0.0
C293 C 0.53743 0.21132 0.28131 0.0
C294 C 0.58808 0.22191 0.23323 0.0
C295 C 0.60027 0.19816 0.25386 0.0
C296 C 0.57914 0.17937 0.28772 0.0
C297 C 0.54773 0.18564 0.3012 0.0
C298 C 0.70466 0.20742 0.25692 0.0
C299 C 0.71478 0.20998 0.21811 0.0
C300 C 0.66663 0.20106 0.26847 0.0
C301 C 0.63745 0.19699 0.24158 0.0
C302 C 0.64654 0.19684 0.20275 0.0
C303 C 0.68474 0.20329 0.19115 0.0
H304 H 0.32669 0.58643 0.47353 0.0
H305 H 0.35855 0.50037 0.42863 0.0
H306 H 0.3875 0.64227 0.44534 0.0
H307 H 0.41984 0.55694 0.39907 0.0
H308 H 0.54305 0.6861 0.3778 0.0
H309 H 0.48839 0.62388 0.40798 0.0
H310 H 0.40175 0.6617 0.37872 0.0
H311 H 0.45565 0.72321 0.34982 0.0
C312 C 0.34718 0.57955 0.45802 0.0
C313 C 0.33775 0.53905 0.45307 0.0
C314 C 0.38189 0.61155 0.44153 0.0
C315 C 0.40798 0.60406 0.41896 0.0
C316 C 0.40025 0.56372 0.41612 0.0
C317 C 0.36533 0.53138 0.43313 0.0
C318 C 0.5121 0.68049 0.37727 0.0
C319 C 0.5037 0.70975 0.36187 0.0
C320 C 0.48087 0.645 0.39463 0.0
C321 C 0.44088 0.63836 0.39672 0.0
C322 C 0.43237 0.66639 0.37879 0.0
C323 C 0.46327 0.70159 0.3619 0.0
H324 H 0.76502 0.48002 0.57879 0.0
H325 H 0.87252 0.52744 0.50844 0.0
H326 H 0.77719 0.42695 0.60205 0.0
H327 H 0.88505 0.47385 0.53234 0.0
H328 H 0.85062 0.33633 0.54309 0.0
H329 H 0.85329 0.39973 0.52582 0.0
H330 H 0.82125 0.41203 0.64066 0.0
H331 H 0.81791 0.34787 0.65787 0.0
C332 C 0.79149 0.4793 0.56833 0.0
C333 C 0.8175 0.50788 0.54126 0.0
C334 C 0.79874 0.44898 0.58214 0.0
C335 C 0.83219 0.44602 0.56929 0.0
C336 C 0.85882 0.47504 0.54272 0.0
C337 C 0.85171 0.50581 0.52904 0.0
C338 C 0.84481 0.35287 0.56492 0.0
C339 C 0.83357 0.33667 0.60183 0.0
C340 C 0.84662 0.38948 0.55501 0.0
C341 C 0.83702 0.4109 0.58165 0.0
C342 C 0.8282 0.39601 0.61922 0.0
C343 C 0.82664 0.35939 0.62923 0.0
H344 H 0.52831 0.86768 0.82152 0.0
H345 H 0.49357 0.77471 0.73583 0.0
H346 H 0.47489 0.88114 0.79829 0.0
H347 H 0.44096 0.78762 0.71327 0.0
H348 H 0.3598 0.82652 0.66309 0.0
H349 H 0.42573 0.83477 0.68133 0.0
H350 H 0.39978 0.84411 0.79901 0.0
H351 H 0.3346 0.83683 0.78082 0.0
C352 C 0.50964 0.85046 0.79764 0.0
C353 C 0.51481 0.81971 0.78099 0.0
C354 C 0.47901 0.85804 0.78436 0.0
C355 C 0.45358 0.83552 0.75377 0.0
C356 C 0.46016 0.80605 0.7364 0.0
C357 C 0.49015 0.79825 0.7498 0.0
C358 C 0.3686 0.83136 0.69273 0.0
C359 C 0.34152 0.8303 0.72048 0.0
C360 C 0.4063 0.83582 0.70327 0.0
C361 C 0.41786 0.83942 0.74178 0.0
C362 C 0.39211 0.84156 0.76914 0.0
C363 C 0.35446 0.83702 0.75865 0.0
H364 H 0.71795 0.51934 0.8833 0.0
H365 H 0.69456 0.47853 -0.0002 0.0
H366 H 0.65353 0.46076 0.86414 0.0
H367 H 0.62949 0.41965 0.98056 0.0
H368 H 0.56396 0.29409 0.9184 0.0
H369 H 0.61599 0.35887 0.94392 0.0
H370 H 0.57796 0.42219 0.86698 0.0
H371 H 0.52531 0.35655 0.84102 0.0
C372 C 0.69854 0.49826 0.905 0.0
C373 C 0.7116 0.50333 0.94305 0.0
C374 C 0.66141 0.46477 0.894 0.0
C375 C 0.63647 0.43521 0.92069 0.0
C376 C 0.64827 0.44164 0.9592 0.0
C377 C 0.68537 0.47551 0.97031 0.0
C378 C 0.56642 0.32175 0.90692 0.0
C379 C 0.54082 0.3201 0.87719 0.0
C380 C 0.59602 0.35898 0.92199 0.0
C381 C 0.60121 0.39583 0.90763 0.0
C382 C 0.57488 0.39432 0.87856 0.0
C383 C 0.54471 0.35678 0.86371 0.0
H384 H 0.34507 0.4445 0.12767 0.0
H385 H 0.32497 0.3467 0.05161 0.0
H386 H 0.37156 0.41765 0.1756 0.0
H387 H 0.35303 0.32063 0.09985 0.0
H388 H 0.45359 0.3276 0.1847 0.0
H389 H 0.42891 0.35632 0.13699 0.0
H390 H 0.33294 0.34125 0.21252 0.0
H391 H 0.35681 0.31091 0.26063 0.0
C392 C 0.3471 0.41775 0.12077 0.0
C393 C 0.33309 0.3978 0.0856 0.0
C394 C 0.36185 0.40224 0.1485 0.0
C395 C 0.36384 0.36703 0.1414 0.0
C396 C 0.35154 0.34786 0.10584 0.0
C397 C 0.33576 0.36283 0.07827 0.0
C398 C 0.42747 0.33073 0.19159 0.0
C399 C 0.40718 0.31703 0.22668 0.0
C400 C 0.41323 0.34684 0.164 0.0
C401 C 0.37899 0.35053 0.1711 0.0
C402 C 0.35945 0.33847 0.20655 0.0
C403 C 0.37314 0.32134 0.23402 0.0
H404 H 0.93006 0.36514 0.27545 0.0
H405 H 0.98457 0.29128 0.25113 0.0
H406 H 0.97744 0.39642 0.3289 0.0
H407 H 0.0307 0.32174 0.30443 0.0
H408 H 0.06595 0.33826 0.42679 0.0
H409 H 1.01429 0.31507 0.37716 0.0
H410 H 0.05787 0.43949 0.34324 0.0
H411 H 0.10997 0.46306 0.39285 0.0
C412 C 0.95266 0.35628 0.28084 0.0
C413 C 0.95323 0.3254 0.25915 0.0
C414 C 0.97947 0.3739 0.31164 0.0
C415 C 1.00684 0.36056 0.32138 0.0
C416 C 1.00914 0.33178 0.29818 0.0
C417 C 0.98292 0.31464 0.26737 0.0
C418 C 0.06392 0.36087 0.40959 0.0
C419 C 0.09262 0.40253 0.41351 0.0
C420 C 0.03451 0.34752 0.38091 0.0
C421 C 0.03276 0.37549 0.35587 0.0
C422 C 0.05874 0.41731 0.36203 0.0
C423 C 0.08852 0.43071 0.3905 0.0
H424 H 0.76216 0.07265 0.55011 0.0
H425 H 0.68349 0.12285 0.5307 0.0
H426 H 0.72961 0.02514 0.4983 0.0
H427 H 0.65009 0.07398 0.47865 0.0
H428 H 0.58251 0.93764 0.42115 0.0
H429 H 0.60823 0.99271 0.46776 0.0
H430 H 0.73021 0.03863 0.42536 0.0
H431 H 0.70489 0.98392 0.37873 0.0
C432 C 0.73747 0.0732 0.53517 0.0
C433 C 0.72579 0.10197 0.54437 0.0
C434 C 0.71909 0.04616 0.50521 0.0
C435 C 0.68815 0.0467 0.48386 0.0
C436 C 0.67427 0.07337 0.49448 0.0
C437 C 0.69314 0.10103 0.52443 0.0
C438 C 0.61468 0.96016 0.42096 0.0
C439 C 0.64176 0.95581 0.39665 0.0
C440 C 0.6293 0.99168 0.44769 0.0
C441 C 0.67123 0.01924 0.45065 0.0
C442 C 0.69776 0.01723 0.42405 0.0
C443 C 0.68318 0.986 0.39717 0.0
H444 H 0.58477 0.67262 0.70867 0.0
H445 H 0.71125 0.75254 0.73798 0.0
H446 H 0.60531 0.64813 0.65401 0.0
H447 H 0.73173 0.72719 0.68365 0.0
H448 H 0.75778 0.71282 0.56233 0.0
H449 H 0.73072 0.73479 0.61414 0.0
H450 H 0.63744 0.60986 0.63423 0.0
H451 H 0.66379 0.58799 0.58201 0.0
C452 C 0.61697 0.68423 0.70402 0.0
C453 C 0.64637 0.71483 0.72755 0.0
C454 C 0.62872 0.67026 0.67255 0.0
C455 C 0.67014 0.68648 0.66396 0.0
C456 C 0.69955 0.71499 0.68894 0.0
C457 C 0.6878 0.72896 0.72049 0.0
C458 C 0.73063 0.6902 0.57688 0.0
C459 C 0.71319 0.64858 0.56828 0.0
C460 C 0.71561 0.7027 0.60707 0.0
C461 C 0.68273 0.6739 0.629 0.0
C462 C 0.66298 0.63279 0.61809 0.0
C463 C 0.678 0.62028 0.588 0.0
H464 H 0.05741 0.70434 0.73499 0.0
H465 H 0.14215 0.68341 0.79918 0.0
H466 H 1.00417 0.66519 0.78194 0.0
H467 H 0.0892 0.64562 0.84695 0.0
H468 H 0.99438 0.67195 0.93132 0.0
H469 H 0.04903 0.6891 0.88519 0.0
H470 H 0.96918 0.58188 0.82039 0.0
H471 H 0.91493 0.56375 0.86744 0.0
C472 C 0.06422 0.69031 0.75853 0.0
C473 C 0.10367 0.69646 0.76326 0.0
C474 C 0.03387 0.66801 0.78534 0.0
C475 C 0.04275 0.65241 0.81783 0.0
C476 C 0.08165 0.65705 0.82187 0.0
C477 C 0.11175 0.6784 0.79446 0.0
C478 C 0.9892 0.65112 0.90816 0.0
C479 C 0.9508 0.61624 0.90319 0.0
C480 C 1.02031 0.66097 0.88177 0.0
C481 C 1.01313 0.63669 0.84944 0.0
C482 C 0.97542 0.60074 0.84536 0.0
C483 C 0.94461 0.59027 0.87237 0.0
H484 H 0.46439 0.09031 0.92344 0.0
H485 H 0.34385 0.04633 0.87715 0.0
H486 H 0.43595 0.03706 0.97171 0.0
H487 H 0.31571 0.99296 0.92522 0.0
H488 H 0.27659 0.95704 0.04812 0.0
H489 H 0.30937 1.00232 -0.00526 0.0
H490 H 0.39716 0.96188 0.98808 0.0
H491 H 0.36414 0.91599 0.04194 0.0
C492 C 0.43201 0.06855 0.92275 0.0
C493 C 0.40632 0.07323 0.89683 0.0
C494 C 0.41575 0.03804 0.95052 0.0
C495 C 0.3735 1.01161 0.9529 0.0
C496 C 0.34833 1.01364 0.92465 0.0
C497 C 0.36456 0.044 0.89681 0.0
C498 C 0.30314 0.95795 0.03569 0.0
C499 C 0.31752 0.93259 0.04932 0.0
C500 C 0.32162 0.9836 0.00471 0.0
C501 C 0.35519 0.98488 0.98658 0.0
C502 C 0.37109 0.96124 0.0013 0.0
C503 C 0.35232 0.93518 0.03231 0.0
H504 H 0.49867 0.72754 0.89401 0.0
H505 H 0.53744 0.65049 0.83987 0.0
H506 H 0.44219 0.66769 0.92378 0.0
H507 H 0.48112 0.59065 0.87037 0.0
H508 H 0.3964 0.50771 0.9727 0.0
H509 H 0.45578 0.56428 0.94192 0.0
H510 H 0.37805 0.60407 0.89115 0.0
H511 H 0.31864 0.54735 0.92119 0.0
C512 C 0.49559 0.69796 0.88904 0.0
C513 C 0.52231 0.69361 0.86448 0.0
C514 C 0.46311 0.66376 0.90579 0.0
C515 C 0.45725 0.62475 0.89888 0.0
C516 C 0.48509 0.6205 0.87595 0.0
C517 C 0.51718 0.65465 0.85858 0.0
C518 C 0.39197 0.52821 0.95449 0.0
C519 C 0.35297 0.52327 0.94944 0.0
C520 C 0.42586 0.56044 0.93695 0.0
C521 C 0.42131 0.5886 0.91472 0.0
C522 C 0.38222 0.5829 0.9086 0.0
C523 C 0.34827 0.55028 0.92551 0.0
H524 H 0.81633 0.45829 0.98538 0.0
H525 H 0.85179 0.53678 0.08368 0.0
H526 H 0.81969 0.40631 0.02253 0.0
H527 H 0.85645 0.48477 0.12092 0.0
H528 H 0.81475 0.3618 0.18347 0.0
H529 H 0.81594 0.41837 0.14903 0.0
H530 H 0.86651 0.3908 0.05124 0.0
H531 H 0.86394 0.33371 0.08508 0.0
C532 C 0.82527 0.46468 0.0149 0.0
C533 C 0.83382 0.50184 0.03147 0.0
C534 C 0.82748 0.43484 0.03624 0.0
C535 C 0.83872 0.44133 0.07475 0.0
C536 C 0.84733 0.47853 0.09145 0.0
C537 C 0.84483 0.50843 0.07005 0.0
C538 C 0.82637 0.36807 0.1547 0.0
C539 C 0.83871 0.34289 0.13684 0.0
C540 C 0.82723 0.40063 0.13498 0.0
C541 C 0.8408 0.40893 0.09709 0.0
C542 C 0.85481 0.38474 0.07997 0.0
C543 C 0.85355 0.35205 0.09948 0.0
H544 H 0.33737 0.84686 0.22926 0.0
H545 H 0.3697 0.81492 0.12229 0.0
H546 H 0.39812 0.85265 0.25822 0.0
H547 H 0.43131 0.82155 0.15136 0.0
H548 H 0.52469 0.89177 0.29537 0.0
H549 H 0.47155 0.89383 0.25839 0.0
H550 H 0.44925 0.78533 0.19837 0.0
H551 H 0.50314 0.7837 0.23489 0.0
C552 C 0.35762 0.84141 0.21177 0.0
C553 C 0.34844 0.83017 0.17346 0.0
C554 C 0.39273 0.84508 0.22835 0.0
C555 C 0.41969 0.83766 0.2071 0.0
C556 C 0.41097 0.82711 0.16859 0.0
C557 C 0.37578 0.82353 0.1519 0.0
C558 C 0.5088 0.86857 0.27399 0.0
C559 C 0.51781 0.83723 0.26847 0.0
C560 C 0.47819 0.86967 0.2529 0.0
C561 C 0.45569 0.83939 0.22584 0.0
C562 C 0.46612 0.80925 0.21887 0.0
C563 C 0.49693 0.80822 0.23992 0.0
H564 H 0.73673 0.48936 0.42312 0.0
H565 H 0.65683 0.53194 0.46284 0.0
H566 H 0.67911 0.43211 0.39153 0.0
H567 H 0.59937 0.47487 0.43069 0.0
H568 H 0.52106 0.3852 0.33132 0.0
H569 H 0.57737 0.44593 0.36061 0.0
H570 H 0.61317 0.37013 0.4216 0.0
H571 H 0.55678 0.30945 0.39297 0.0
C572 C 0.70706 0.48694 0.42448 0.0
C573 C 0.70116 0.51493 0.44559 0.0
C574 C 0.67412 0.45405 0.4067 0.0
C575 C 0.63493 0.44905 0.40912 0.0
C576 C 0.62936 0.47817 0.42849 0.0
C577 C 0.66217 0.51067 0.44686 0.0
C578 C 0.54072 0.38153 0.3513 0.0
C579 C 0.53461 0.34263 0.35981 0.0
C580 C 0.57282 0.4162 0.36798 0.0
C581 C 0.59971 0.41253 0.39286 0.0
C582 C 0.59307 0.37366 0.40205 0.0
C583 C 0.5606 0.33898 0.38595 0.0
H584 H 0.232 0.66946 0.69412 0.0
H585 H 0.20663 0.70924 0.58769 0.0
H586 H 0.22612 0.60945 0.66266 0.0
H587 H 0.20162 0.6499 0.5563 0.0
H588 H 0.15894 0.52288 0.51579 0.0
H589 H 0.15843 0.5766 0.55302 0.0
H590 H 0.26292 0.5922 0.6163 0.0
H591 H 0.26297 0.5378 0.57954 0.0
C592 C 0.22526 0.66549 0.66405 0.0
C593 C 0.21995 0.6943 0.64343 0.0
C594 C 0.22204 0.63117 0.646 0.0
C595 C 0.21329 0.62481 0.60699 0.0
C596 C 0.20774 0.65349 0.5865 0.0
C597 C 0.21098 0.68775 0.60448 0.0
C598 C 0.18158 0.53745 0.5379 0.0
C599 C 0.2113 0.52633 0.54437 0.0
C600 C 0.18141 0.56842 0.5591 0.0
C601 C 0.21099 0.58911 0.58725 0.0
C602 C 0.23957 0.57674 0.59495 0.0
C603 C 0.23968 0.54563 0.57378 0.0
H604 H 0.51982 0.21843 0.72398 0.0
H605 H 0.56553 0.18605 0.82228 0.0
H606 H 0.57219 0.21666 0.68478 0.0
H607 H 0.61897 0.18694 0.78447 0.0
H608 H 0.69488 0.15983 0.70852 0.0
H609 H 0.63543 0.15378 0.74066 0.0
H610 H 0.64064 0.2491 0.66902 0.0
H611 H 0.69833 0.25257 0.6351 0.0
C612 C 0.54123 0.2112 0.73718 0.0
C613 C 0.53831 0.202 0.77607 0.0
C614 C 0.57146 0.21041 0.71484 0.0
C615 C 0.59998 0.20128 0.73114 0.0
C616 C 0.59708 0.19276 0.77028 0.0
C617 C 0.56646 0.1926 0.79223 0.0
C618 C 0.68292 0.17911 0.69946 0.0
C619 C 0.70125 0.20677 0.66951 0.0
C620 C 0.64901 0.17602 0.71812 0.0
C621 C 0.63333 0.20155 0.70819 0.0
C622 C 0.65126 0.22856 0.67741 0.0
C623 C 0.68455 0.23078 0.65802 0.0
H624 H 0.30254 0.40539 0.90387 0.0
H625 H 0.21683 0.29173 0.95729 0.0
H626 H 0.33598 0.37179 0.8734 0.0
H627 H 0.24926 0.25815 0.92626 0.0
H628 H 0.35069 0.2295 0.92115 0.0
H629 H 0.3136 0.2629 0.93942 0.0
H630 H 0.33456 0.31913 0.82885 0.0
H631 H 0.37302 0.28534 0.81015 0.0
C632 C 0.29004 0.373 0.9082 0.0
C633 C 0.2572 0.35136 0.93339 0.0
C634 C 0.30927 0.35374 0.89073 0.0
C635 C 0.29596 0.31241 0.89798 0.0
C636 C 0.26113 0.29026 0.92079 0.0
C637 C 0.24225 0.30947 0.93842 0.0
C638 C 0.34745 0.24871 0.9003 0.0
C639 C 0.36463 0.25413 0.86382 0.0
C640 C 0.32574 0.2678 0.91087 0.0
C641 C 0.32011 0.29308 0.88543 0.0
C642 C 0.3381 0.29965 0.84913 0.0
C643 C 0.36009 0.28027 0.83838 0.0
H644 H 0.93905 0.32391 0.10675 0.0
H645 H 0.91009 0.20291 0.07414 0.0
H646 H 1.00017 0.35299 0.06723 0.0
H647 H 0.97146 0.2318 0.03434 0.0
H648 H 0.11492 0.29922 0.04158 0.0
H649 H 0.04288 0.26572 0.05715 0.0
H650 H 0.03443 0.36377 0.00375 0.0
H651 H 0.10735 0.39746 0.9878 0.0
C652 C 0.94506 0.30367 0.08983 0.0
C653 C 0.91985 0.26129 0.09306 0.0
C654 C 0.98003 0.32027 0.06715 0.0
C655 C 0.99092 0.29474 0.04779 0.0
C656 C 0.96404 0.25228 0.04908 0.0
C657 C 0.92875 0.2357 0.07151 0.0
C658 C 0.09752 0.31322 0.03235 0.0
C659 C 0.11681 0.35107 0.01364 0.0
C660 C 0.05607 0.29383 0.04103 0.0
C661 C 0.03278 0.31202 0.03176 0.0
C662 C 0.05159 0.34902 0.01137 0.0
C663 C 0.0932 0.36819 0.00203 0.0
H664 H 0.63804 0.89565 0.22111 0.0
H665 H 0.74693 0.9367 0.2885 0.0
H666 H 0.67194 0.95907 0.18462 0.0
H667 H 0.78026 0.99993 0.25281 0.0
H668 H 0.84187 0.10424 0.1735 0.0
H669 H 0.80834 0.03326 0.19354 0.0
H670 H 0.69294 0.03002 0.19711 0.0
H671 H 0.72637 0.10085 0.17616 0.0
C672 C 0.66946 0.91775 0.22763 0.0
C673 C 0.6897 0.91101 0.25783 0.0
C674 C 0.68875 0.95432 0.20696 0.0
C675 C 0.72879 0.98487 0.21586 0.0
C676 C 0.74962 0.97706 0.24474 0.0
C677 C 0.73037 0.94072 0.26542 0.0
C678 C 0.8092 0.08822 0.17784 0.0
C679 C 0.78691 0.10846 0.17346 0.0
C680 C 0.78998 0.0475 0.18959 0.0
C681 C 0.74797 0.02593 0.19751 0.0
C682 C 0.72526 0.04547 0.19101 0.0
C683 C 0.74449 0.08622 0.17909 0.0
H684 H 0.63955 0.7176 0.34334 0.0
H685 H 0.74471 0.8365 0.36011 0.0
H686 H 0.67916 0.68594 0.36374 0.0
H687 H 0.78503 0.80558 0.37813 0.0
H688 H 0.8241 0.74291 0.46442 0.0
H689 H 0.79035 0.77374 0.43183 0.0
H690 H 0.73209 0.67003 0.35658 0.0
H691 H 0.76497 0.63803 0.39081 0.0
C692 C 0.67149 0.73687 0.35027 0.0
C693 C 0.68907 0.77941 0.35045 0.0
C694 C 0.69433 0.71883 0.36191 0.0
C695 C 0.73534 0.74308 0.37342 0.0
C696 C 0.75333 0.78572 0.37078 0.0
C697 C 0.73037 0.80357 0.36002 0.0
C698 C 0.8047 0.7268 0.44052 0.0
C699 C 0.79745 0.6879 0.43033 0.0
C700 C 0.78532 0.74471 0.4215 0.0
C701 C 0.7583 0.72463 0.39125 0.0
C702 C 0.75223 0.68632 0.37998 0.0
C703 C 0.77152 0.66815 0.39932 0.0
H704 H 0.14099 0.81998 0.57431 0.0
H705 H 0.10696 0.70459 0.627 0.0
H706 H 0.07744 0.7871 0.53694 0.0
H707 H 0.04431 0.67193 0.58982 0.0
H708 H 0.91846 0.66562 0.58663 0.0
H709 H 0.98914 0.69339 0.60489 0.0
H710 H 0.02615 0.72167 0.48782 0.0
H711 H 0.95398 0.69266 0.46901 0.0
C712 C 0.12086 0.78736 0.57656 0.0
C713 C 0.1286 0.7647 0.60345 0.0
C714 C 0.08457 0.76857 0.55527 0.0
C715 C 0.05588 0.72706 0.56082 0.0
C716 C 0.06578 0.70396 0.58513 0.0
C717 C 0.10164 0.72261 0.60632 0.0
C718 C 0.94148 0.6775 0.56459 0.0
C719 C 0.93065 0.67701 0.52637 0.0
C720 C 0.982 0.69323 0.57507 0.0
C721 C 1.01309 0.7095 0.54776 0.0
C722 C 1.00264 0.70922 0.50937 0.0
C723 C 0.96151 0.6925 0.49864 0.0
H724 H 0.41713 0.12184 0.74518 0.0
H725 H 0.30346 0.11711 0.76903 0.0
H726 H 0.38082 0.05682 0.71256 0.0
H727 H 0.26687 0.05381 0.73346 0.0
H728 H 0.20926 0.91662 0.72178 0.0
H729 H 0.24412 0.98705 0.74148 0.0
H730 H 0.34409 1.01216 0.666 0.0
H731 H 0.30995 0.94024 0.64869 0.0
C732 C 0.38438 0.10757 0.74201 0.0
C733 C 0.36307 0.12441 0.7597 0.0
C734 C 0.36332 0.07009 0.72316 0.0
C735 C 0.3204 0.04896 0.72066 0.0
C736 C 0.29962 0.06791 0.7358 0.0
C737 C 0.3206 0.10468 0.75573 0.0
C738 C 0.23844 0.93729 0.70895 0.0
C739 C 0.25682 0.92274 0.6837 0.0
C740 C 0.25857 0.97814 0.72009 0.0
C741 C 0.29739 1.00614 0.70558 0.0
C742 C 0.31482 0.99178 0.67871 0.0
C743 C 0.29505 0.95051 0.66835 0.0
H744 H 0.72607 0.63175 0.96738 0.0
H745 H 0.8438 0.74119 0.96081 0.0
H746 H 0.69399 0.66943 0.94327 0.0
H747 H 0.81186 0.77888 0.93769 0.0
H748 H 0.74987 0.81571 0.84622 0.0
H749 H 0.78146 0.78278 0.87985 0.0
H750 H 0.67627 0.72204 0.95297 0.0
H751 H 0.64409 0.75456 0.9186 0.0
C752 C 0.74503 0.66401 0.96161 0.0
C753 C 0.7876 0.68326 0.96589 0.0
C754 C 0.72662 0.68572 0.9478 0.0
C755 C 0.75029 0.72726 0.93798 0.0
C756 C 0.79262 0.74681 0.94407 0.0
C757 C 0.81098 0.72516 0.95767 0.0
C758 C 0.7336 0.79587 0.86983 0.0
C759 C 0.69436 0.78803 0.87962 0.0
C760 C 0.75187 0.77697 0.88933 0.0
C761 C 0.73153 0.74952 0.91926 0.0
C762 C 0.69274 0.74256 0.92984 0.0
C763 C 0.67445 0.76163 0.91035 0.0
H764 H 0.10164 0.82023 0.14421 0.0
H765 H 0.10555 0.70873 0.15451 0.0
H766 H 0.03143 0.78153 0.12198 0.0
H767 H 0.03512 0.67008 0.13262 0.0
H768 H 0.95477 0.64237 0.02344 0.0
H769 H 1.01228 0.67058 0.06674 0.0
H770 H 0.95726 0.72686 0.13179 0.0
H771 H 0.89863 0.69769 0.08791 0.0
C772 C 0.0872 0.78735 0.14281 0.0
C773 C 0.10954 0.76769 0.15059 0.0
C774 C 0.04678 0.76514 0.13026 0.0
C775 C 0.02787 0.72279 0.12505 0.0
C776 C 0.04906 0.70277 0.13589 0.0
C777 C 0.08941 0.72494 0.1486 0.0
C778 C 0.95452 0.6601 0.04744 0.0
C779 C 0.92245 0.66807 0.05229 0.0
C780 C 0.98736 0.67602 0.07247 0.0
C781 C 0.98938 0.70092 0.10282 0.0
C782 C 0.95651 0.70777 0.10862 0.0
C783 C 0.92296 0.69101 0.08373 0.0
H784 H 0.4122 0.09624 0.30763 0.0
H785 H 0.30059 0.09997 0.31012 0.0
H786 H 0.37416 0.02469 0.28751 0.0
H787 H 0.26229 0.02845 0.29159 0.0
H788 H 0.2315 0.94281 0.1889 0.0
H789 H 0.26137 1.00234 0.22937 0.0
H790 H 0.32086 0.9511 0.29548 0.0
H791 H 0.29049 0.89062 0.25399 0.0
C792 C 0.37931 0.08113 0.30557 0.0
C793 C 0.3592 0.1034 0.31046 0.0
C794 C 0.35746 0.04018 0.294 0.0
C795 C 0.31519 0.02095 0.28723 0.0
C796 C 0.29488 0.04247 0.29573 0.0
C797 C 0.3167 0.08332 0.30673 0.0
C798 C 0.25024 0.94375 0.21255 0.0
C799 C 0.25858 0.91202 0.21832 0.0
C800 C 0.26725 0.97788 0.23602 0.0
C801 C 0.29349 0.98164 0.26593 0.0
C802 C 0.30083 0.94921 0.27266 0.0
C803 C 0.28319 0.91446 0.24921 0.0
H804 H 0.41077 0.28001 0.42304 0.0
H805 H 0.30807 0.22364 0.34653 0.0
H806 H 0.37794 0.31214 0.45714 0.0
H807 H 0.27657 0.25661 0.37897 0.0
H808 H 0.21058 0.29779 0.45123 0.0
H809 H 0.24283 0.25907 0.4323 0.0
H810 H 0.36131 0.36493 0.4518 0.0
H811 H 0.32824 0.40288 0.4731 0.0
C812 C 0.38103 0.274 0.41376 0.0
C813 C 0.36209 0.2489 0.38207 0.0
C814 C 0.36237 0.29283 0.43307 0.0
C815 C 0.32434 0.28711 0.42111 0.0
C816 C 0.30526 0.26126 0.38991 0.0
C817 C 0.32364 0.24236 0.37094 0.0
C818 C 0.24352 0.31248 0.45223 0.0
C819 C 0.26691 0.35333 0.46353 0.0
C820 C 0.26216 0.29044 0.44094 0.0
C821 C 0.30492 0.30895 0.43942 0.0
C822 C 0.32837 0.34939 0.45266 0.0
C823 C 0.3095 0.37127 0.46485 0.0
H824 H 0.10797 0.29732 0.52769 0.0
H825 H 0.15137 0.40905 0.59091 0.0
H826 H 0.04495 0.26643 0.5638 0.0
H827 H 0.08805 0.37775 0.62759 0.0
H828 H 0.94296 0.20901 0.64526 0.0
H829 H 1.01383 0.24186 0.6253 0.0
H830 H 1.01608 0.35634 0.61417 0.0
H831 H 0.94499 0.32344 0.63488 0.0
C832 C 0.10449 0.31503 0.54993 0.0
C833 C 0.13487 0.35569 0.55634 0.0
C834 C 0.06828 0.29723 0.57081 0.0
C835 C 0.06124 0.3196 0.59862 0.0
C836 C 0.0923 0.35976 0.60617 0.0
C837 C 0.12879 0.37754 0.58541 0.0
C838 C 0.95875 0.2414 0.63935 0.0
C839 C 0.9381 0.2635 0.64136 0.0
C840 C 0.99939 0.26019 0.62764 0.0
C841 C 1.02054 0.3016 0.61743 0.0
C842 C 1.00082 0.32443 0.62197 0.0
C843 C 0.96002 0.30558 0.63386 0.0
H844 H 0.76136 0.1437 0.74822 0.0
H845 H 0.81422 0.08992 0.67702 0.0
H846 H 0.73284 0.08314 0.78974 0.0
H847 H 0.78613 0.03035 0.71745 0.0
H848 H 0.75245 0.93355 0.79848 0.0
H849 H 0.78967 1.00476 0.77879 0.0
H850 H 0.67835 1.0095 0.78376 0.0
H851 H 0.64146 0.93821 0.8051 0.0
C852 C 0.7677 0.11947 0.74203 0.0
C853 C 0.79007 0.12152 0.70947 0.0
C854 C 0.75109 0.08468 0.7655 0.0
C855 C 0.7573 0.05184 0.75711 0.0
C856 C 0.78123 0.05513 0.72539 0.0
C857 C 0.79719 0.08929 0.70194 0.0
C858 C 0.73631 0.95032 0.7967 0.0
C859 C 0.69422 0.93058 0.80334 0.0
C860 C 0.75749 0.991 0.78509 0.0
C861 C 0.73688 1.0127 0.77884 0.0
C862 C 0.69525 0.99384 0.78843 0.0
C863 C 0.67408 0.95305 0.80067 0.0
H864 H 0.22876 0.49384 0.33532 0.0
H865 H 0.20893 0.37147 0.3406 0.0
H866 H 0.23074 0.4921 0.2665 0.0
H867 H 0.21354 0.37041 0.27161 0.0
H868 H 0.18734 0.36585 0.1464 0.0
H869 H 0.17907 0.3669 0.21502 0.0
H870 H 0.27206 0.49443 0.21707 0.0
H871 H 0.2783 0.49381 0.14881 0.0
C872 C 0.22571 0.46689 0.32164 0.0
C873 C 0.21901 0.43289 0.34299 0.0
C874 C 0.22688 0.46585 0.28222 0.0
C875 C 0.2224 0.43114 0.26347 0.0
C876 C 0.21628 0.39731 0.28507 0.0
C877 C 0.21412 0.39803 0.32452 0.0
C878 C 0.20549 0.39412 0.16167 0.0
C879 C 0.23328 0.42972 0.14245 0.0
C880 C 0.2011 0.39469 0.20093 0.0
C881 C 0.22508 0.43071 0.22161 0.0
C882 C 0.25249 0.46636 0.20207 0.0
C883 C 0.25621 0.46598 0.16288 0.0
H884 H 0.85299 0.2707 0.48747 0.0
H885 H 0.86936 0.16779 0.50919 0.0
H886 H 0.8553 0.26077 0.41939 0.0
H887 H 0.87099 0.15735 0.44055 0.0
H888 H 0.89822 0.19476 0.30288 0.0
H889 H 0.90826 0.19654 0.37197 0.0
H890 H 0.79382 0.19305 0.38865 0.0
H891 H 0.78429 0.19204 0.32014 0.0
C892 C 0.85877 0.24703 0.47755 0.0
C893 C 0.86082 0.21991 0.50318 0.0
C894 C 0.85963 0.24104 0.43877 0.0
C895 C 0.86207 0.20758 0.42517 0.0
C896 C 0.86879 0.18313 0.45066 0.0
C897 C 0.86824 0.18936 0.48973 0.0
C898 C 0.87439 0.1923 0.32154 0.0
C899 C 0.84046 0.1932 0.30671 0.0
C900 C 0.88034 0.19375 0.36084 0.0
C901 C 0.85231 0.19604 0.38512 0.0
C902 C 0.81619 0.19213 0.37019 0.0
C903 C 0.81044 0.19101 0.3312 0.0
H904 H 0.55019 0.77141 0.66631 0.0
H905 H 0.67855 0.86111 0.66745 0.0
H906 H 0.54885 0.77718 0.59802 0.0
H907 H 0.6768 0.869 0.59884 0.0
H908 H 0.67127 0.83872 0.47356 0.0
H909 H 0.67265 0.83452 0.54254 0.0
H910 H 0.55093 0.81721 0.54765 0.0
H911 H 0.54887 0.81874 0.47877 0.0
C912 C 0.57797 0.79315 0.65197 0.0
C913 C 0.61454 0.81578 0.67211 0.0
C914 C 0.57717 0.79662 0.61273 0.0
C915 C 0.61274 0.82349 0.59277 0.0
C916 C 0.64904 0.84731 0.61318 0.0
C917 C 0.65002 0.84316 0.65248 0.0
C918 C 0.64476 0.8336 0.48963 0.0
C919 C 0.60984 0.82861 0.47108 0.0
C920 C 0.64566 0.83169 0.52911 0.0
C921 C 0.61196 0.82572 0.55078 0.0
C922 C 0.57713 0.821 0.53196 0.0
C923 C 0.5759 0.82193 0.49248 0.0
H924 H 0.84233 0.68448 0.84135 0.0
H925 H 0.79663 0.55494 0.83327 0.0
H926 H 0.82727 0.68581 0.77378 0.0
H927 H 0.78364 0.55649 0.76667 0.0
H928 H 0.74485 0.56005 0.65074 0.0
H929 H 0.74473 0.56409 0.71962 0.0
H930 H 0.85717 0.67998 0.71555 0.0
H931 H 0.85558 0.67687 0.64627 0.0
C932 C 0.8287 0.65637 0.82528 0.0
C933 C 0.82144 0.61982 0.84218 0.0
C934 C 0.82037 0.65713 0.78668 0.0
C935 C 0.80462 0.62133 0.7648 0.0
C936 C 0.79525 0.58455 0.78259 0.0
C937 C 0.80328 0.58377 0.8208 0.0
C938 C 0.76956 0.58624 0.66471 0.0
C939 C 0.8008 0.61769 0.64362 0.0
C940 C 0.76942 0.58873 0.70406 0.0
C941 C 0.80119 0.62216 0.72308 0.0
C942 C 0.83197 0.6541 0.70177 0.0
C943 C 0.83151 0.65206 0.66225 0.0
H944 H 0.15587 0.84118 0.80907 0.0
H945 H 0.26033 0.82813 0.83348 0.0
H946 H 0.14234 0.83998 0.87747 0.0
H947 H 0.24721 0.82745 0.9012 0.0
H948 H 0.18187 0.758 0.00016 0.0
H949 H 0.17941 0.76478 0.9315 0.0
H950 H 0.18106 0.87855 0.94615 0.0
H951 H 0.18254 0.87117 0.01528 0.0
C952 C 0.17686 0.83988 0.82912 0.0
C953 C 0.2089 0.83438 0.81644 0.0
C954 C 0.16888 0.83879 0.868 0.0
C955 C 0.19304 0.83231 0.89403 0.0
C956 C 0.22761 0.8314 0.88133 0.0
C957 C 0.23539 0.83224 0.84279 0.0
C958 C 0.17947 0.78325 0.9887 0.0
C959 C 0.18237 0.81405 0.0125 0.0
C960 C 0.17851 0.78739 0.9496 0.0
C961 C 0.18116 0.82272 0.934 0.0
C962 C 0.17911 0.85119 0.95781 0.0
C963 C 0.17961 0.84678 -0.00283 0.0
H964 H 0.37475 0.13818 0.98077 0.0
H965 H 0.49438 0.24614 0.98205 0.0
H966 H 0.37335 0.13846 0.04981 0.0
H967 H 0.49247 0.24679 0.05109 0.0
H968 H 0.36866 0.19142 0.16717 0.0
H969 H 0.36894 0.18128 0.09918 0.0
H970 H 0.49337 0.2069 0.10592 0.0
H971 H 0.49355 0.21796 0.17403 0.0
C972 C 0.40059 0.16215 -0.00423 0.0
C973 C 0.43466 0.19223 0.97607 0.0
C974 C 0.39977 0.16222 0.03525 0.0
C975 C 0.43289 0.19246 0.05567 0.0
C976 C 0.46687 0.22264 0.03599 0.0
C977 C 0.46778 0.22249 -0.00349 0.0
C978 C 0.39591 0.19431 0.15431 0.0
C979 C 0.43132 0.20617 0.1758 0.0
C980 C 0.39598 0.18833 0.11538 0.0
C981 C 0.43136 0.19385 0.09735 0.0
C982 C 0.46598 0.20328 0.11914 0.0
C983 C 0.46597 0.20939 0.15809 0.0
loop_
_geom_bond_atom_site_label_1
_geom_bond_atom_site_label_2
_geom_bond_distance
_geom_bond_site_symmetry_2
_ccdc_geom_bond_type
Fe0 O2 1.918 . S
Fe0 O5 1.997 . S
Fe0 O6 2.002 . S
Fe0 O11 1.976 . S
Fe0 O14 1.996 . S
Fe1 O2 1.918 . S
Fe1 O9 1.997 . S
Fe1 O12 1.996 . S
Fe1 O16 1.976 . S
Fe1 O19 2.002 . S
O2 Fe0 1.918 . S
O2 Fe1 1.918 . S
O2 Fe3 1.918 1_554 S
Fe3 O2 1.918 1_556 S
Fe3 O4 2.006 . S
Fe3 O13 1.976 . S
Fe3 O17 1.996 . S
Fe3 O20 1.997 1_556 S
O4 Fe3 2.006 . S
O4 C21 1.280 1_556 S
O5 Fe0 1.997 . S
O5 C21 1.235 . S
O6 Fe0 2.002 . S
O6 C7 1.295 . S
C7 O6 1.295 . S
C7 O9 1.235 . S
C8 O13 1.287 . S
C8 O14 1.255 1_556 S
O9 Fe1 1.997 . S
O9 C7 1.235 . S
C10 O16 1.287 1_556 S
C10 O17 1.255 . S
O11 Fe0 1.976 . S
O11 C18 1.287 . S
O12 Fe1 1.996 . S
O12 C18 1.255 . S
O13 Fe3 1.976 . S
O13 C8 1.287 . S
O14 Fe0 1.996 . S
O14 C8 1.255 1_554 S
C15 O19 1.295 . S
C15 O20 1.235 . S
O16 Fe1 1.976 . S
O16 C10 1.287 1_554 S
O17 Fe3 1.996 . S
O17 C10 1.255 . S
C18 O11 1.287 . S
C18 O12 1.255 . S
O19 Fe1 2.002 . S
O19 C15 1.295 . S
O20 Fe3 1.997 1_554 S
O20 C15 1.235 . S
C21 O4 1.280 1_554 S
C21 O5 1.235 . S
Fe22 O24 1.918 . S
Fe22 O27 1.997 . S
Fe22 O28 2.002 . S
Fe22 O33 1.976 . S
Fe22 O36 1.996 . S
Fe23 O24 1.918 . S
Fe23 O31 1.997 . S
Fe23 O34 1.996 . S
Fe23 O38 1.976 . S
Fe23 O41 2.002 . S
O24 Fe22 1.918 . S
O24 Fe23 1.918 . S
O24 Fe25 1.918 . S
Fe25 O24 1.918 . S
Fe25 O26 2.002 . S
Fe25 O35 1.976 . S
Fe25 O39 1.996 . S
Fe25 O42 1.997 . S
O26 Fe25 2.002 . S
O26 C43 1.295 . S
O27 Fe22 1.997 . S
O27 C43 1.235 . S
O28 Fe22 2.002 . S
O28 C29 1.295 . S
C29 O28 1.295 . S
C29 O31 1.235 . S
C30 O35 1.287 . S
C30 O36 1.255 . S
O31 Fe23 1.997 . S
O31 C29 1.235 . S
C32 O38 1.287 . S
C32 O39 1.255 . S
O33 Fe22 1.976 . S
O33 C40 1.287 . S
O34 Fe23 1.996 . S
O34 C40 1.255 . S
O35 Fe25 1.976 . S
O35 C30 1.287 . S
O36 Fe22 1.996 . S
O36 C30 1.255 . S
C37 O41 1.295 . S
C37 O42 1.235 . S
O38 Fe23 1.976 . S
O38 C32 1.287 . S
O39 Fe25 1.996 . S
O39 C32 1.255 . S
C40 O33 1.287 . S
C40 O34 1.255 . S
O41 Fe23 2.002 . S
O41 C37 1.295 . S
O42 Fe25 1.997 . S
O42 C37 1.235 . S
C43 O26 1.295 . S
C43 O27 1.235 . S
Fe44 O46 1.918 . S
Fe44 O49 1.997 . S
Fe44 O50 2.002 . S
Fe44 O55 1.976 . S
Fe44 O58 1.996 . S
Fe45 O46 1.918 . S
Fe45 O53 1.997 . S
Fe45 O56 1.996 . S
Fe45 O60 1.976 . S
Fe45 O63 2.002 . S
O46 Fe44 1.918 . S
O46 Fe45 1.918 . S
O46 Fe47 1.918 . S
Fe47 O46 1.918 . S
Fe47 O48 2.002 . S
Fe47 O57 1.976 . S
Fe47 O61 1.996 . S
Fe47 O64 1.997 . S
O48 Fe47 2.002 . S
O48 C65 1.295 . S
O49 Fe44 1.997 . S
O49 C65 1.235 . S
O50 Fe44 2.002 . S
O50 C51 1.295 . S
C51 O50 1.295 . S
C51 O53 1.235 . S
C52 O57 1.287 . S
C52 O58 1.255 . S
O53 Fe45 1.997 . S
O53 C51 1.235 . S
C54 O60 1.287 . S
C54 O61 1.255 . S
O55 Fe44 1.976 . S
O55 C62 1.287 . S
O56 Fe45 1.996 . S
O56 C62 1.255 . S
O57 Fe47 1.976 . S
O57 C52 1.287 . S
O58 Fe44 1.996 . S
O58 C52 1.255 . S
C59 O63 1.295 . S
C59 O64 1.235 . S
O60 Fe45 1.976 . S
O60 C54 1.287 . S
O61 Fe47 1.996 . S
O61 C54 1.255 . S
C62 O55 1.287 . S
C62 O56 1.255 . S
O63 Fe45 2.002 . S
O63 C59 1.295 . S
O64 Fe47 1.997 . S
O64 C59 1.235 . S
C65 O48 1.295 . S
C65 O49 1.235 . S
Fe66 O68 1.918 . S
Fe66 O71 1.997 . S
Fe66 O72 2.002 . S
Fe66 O77 1.976 . S
Fe66 O80 1.996 . S
Fe67 O68 1.918 . S
Fe67 O75 1.997 . S
Fe67 O78 1.996 . S
Fe67 O82 1.976 . S
Fe67 O85 2.002 . S
O68 Fe66 1.918 . S
O68 Fe67 1.918 . S
O68 Fe69 1.918 . S
Fe69 O68 1.918 . S
Fe69 O70 2.002 . S
Fe69 O79 1.976 . S
Fe69 O83 1.996 . S
Fe69 O86 1.997 . S
O70 Fe69 2.002 . S
O70 C87 1.295 . S
O71 Fe66 1.997 . S
O71 C87 1.235 . S
O72 Fe66 2.002 . S
O72 C73 1.295 . S
C73 O72 1.295 . S
C73 O75 1.235 . S
C74 O79 1.287 . S
C74 O80 1.255 . S
O75 Fe67 1.997 . S
O75 C73 1.235 . S
C76 O82 1.287 . S
C76 O83 1.255 . S
O77 Fe66 1.976 . S
O77 C84 1.287 . S
O78 Fe67 1.996 . S
O78 C84 1.255 . S
O79 Fe69 1.976 . S
O79 C74 1.287 . S
O80 Fe66 1.996 . S
O80 C74 1.255 . S
C81 O85 1.295 . S
C81 O86 1.235 . S
O82 Fe67 1.976 . S
O82 C76 1.287 . S
O83 Fe69 1.996 . S
O83 C76 1.255 . S
C84 O77 1.287 . S
C84 O78 1.255 . S
O85 Fe67 2.002 . S
O85 C81 1.295 . S
O86 Fe69 1.997 . S
O86 C81 1.235 . S
C87 O70 1.295 . S
C87 O71 1.235 . S
Fe88 O90 1.918 . S
Fe88 O93 1.997 . S
Fe88 O94 2.002 . S
Fe88 O99 1.976 . S
Fe88 O102 1.996 . S
Fe89 O90 1.918 . S
Fe89 O97 1.997 . S
Fe89 O100 1.996 . S
Fe89 O104 1.976 . S
Fe89 O107 2.002 . S
O90 Fe88 1.918 . S
O90 Fe89 1.918 . S
O90 Fe91 1.918 . S
Fe91 O90 1.918 . S
Fe91 O92 2.002 . S
Fe91 O101 1.976 . S
Fe91 O105 1.996 . S
Fe91 O108 1.997 . S
O92 Fe91 2.002 . S
O92 C109 1.295 . S
O93 Fe88 1.997 . S
O93 C109 1.235 . S
O94 Fe88 2.002 . S
O94 C95 1.295 . S
C95 O94 1.295 . S
C95 O97 1.235 . S
C96 O101 1.287 . S
C96 O102 1.255 . S
O97 Fe89 1.997 . S
O97 C95 1.235 . S
C98 O104 1.287 . S
C98 O105 1.255 . S
O99 Fe88 1.976 . S
O99 C106 1.287 . S
O100 Fe89 1.996 . S
O100 C106 1.255 . S
O101 Fe91 1.976 . S
O101 C96 1.287 . S
O102 Fe88 1.996 . S
O102 C96 1.255 . S
C103 O107 1.295 . S
C103 O108 1.235 . S
O104 Fe89 1.976 . S
O104 C98 1.287 . S
O105 Fe91 1.996 . S
O105 C98 1.255 . S
C106 O99 1.287 . S
C106 O100 1.255 . S
O107 Fe89 2.002 . S
O107 C103 1.295 . S
O108 Fe91 1.997 . S
O108 C103 1.235 . S
C109 O92 1.295 . S
C109 O93 1.235 . S
Fe110 O112 1.918 . S
Fe110 O115 1.997 . S
Fe110 O116 2.002 . S
Fe110 O121 1.976 . S
Fe110 O124 1.996 . S
Fe111 O112 1.918 . S
Fe111 O119 1.997 . S
Fe111 O122 1.996 . S
Fe111 O126 1.976 . S
Fe111 O129 2.002 . S
O112 Fe110 1.918 . S
O112 Fe111 1.918 . S
O112 Fe113 1.918 . S
Fe113 O112 1.918 . S
Fe113 O114 2.002 . S
Fe113 O123 1.976 . S
Fe113 O127 1.996 . S
Fe113 O130 1.997 . S
O114 Fe113 2.002 . S
O114 C131 1.295 . S
O115 Fe110 1.997 . S
O115 C131 1.235 . S
O116 Fe110 2.002 . S
O116 C117 1.295 . S
C117 O116 1.295 . S
C117 O119 1.235 . S
C118 O123 1.287 . S
C118 O124 1.255 . S
O119 Fe111 1.997 . S
O119 C117 1.235 . S
C120 O126 1.287 . S
C120 O127 1.255 . S
O121 Fe110 1.976 . S
O121 C128 1.287 . S
O122 Fe111 1.996 . S
O122 C128 1.255 . S
O123 Fe113 1.976 . S
O123 C118 1.287 . S
O124 Fe110 1.996 . S
O124 C118 1.255 . S
C125 O129 1.295 . S
C125 O130 1.235 . S
O126 Fe111 1.976 . S
O126 C120 1.287 . S
O127 Fe113 1.996 . S
O127 C120 1.255 . S
C128 O121 1.287 . S
C128 O122 1.255 . S
O129 Fe111 2.002 . S
O129 C125 1.295 . S
O130 Fe113 1.997 . S
O130 C125 1.235 . S
C131 O114 1.295 . S
C131 O115 1.235 . S
Fe132 O134 1.918 . S
Fe132 O137 1.997 . S
Fe132 O138 2.002 . S
Fe132 O143 1.976 . S
Fe132 O146 1.996 . S
Fe133 O134 1.918 . S
Fe133 O141 1.997 . S
Fe133 O144 1.996 . S
Fe133 O148 1.976 . S
Fe133 O151 2.002 . S
O134 Fe132 1.918 . S
O134 Fe133 1.918 . S
O134 Fe135 1.918 . S
Fe135 O134 1.918 . S
Fe135 O136 2.002 . S
Fe135 O145 1.976 . S
Fe135 O149 1.996 . S
Fe135 O152 1.997 . S
O136 Fe135 2.002 . S
O136 C153 1.295 . S
O137 Fe132 1.997 . S
O137 C153 1.235 . S
O138 Fe132 2.002 . S
O138 C139 1.295 . S
C139 O138 1.295 . S
C139 O141 1.235 . S
C140 O145 1.287 . S
C140 O146 1.255 . S
O141 Fe133 1.997 . S
O141 C139 1.235 . S
C142 O148 1.287 . S
C142 O149 1.255 . S
O143 Fe132 1.976 . S
O143 C150 1.287 . S
O144 Fe133 1.996 . S
O144 C150 1.255 . S
O145 Fe135 1.976 . S
O145 C140 1.287 . S
O146 Fe132 1.996 . S
O146 C140 1.255 . S
C147 O151 1.295 . S
C147 O152 1.235 . S
O148 Fe133 1.976 . S
O148 C142 1.287 . S
O149 Fe135 1.996 . S
O149 C142 1.255 . S
C150 O143 1.287 . S
C150 O144 1.255 . S
O151 Fe133 2.002 . S
O151 C147 1.295 . S
O152 Fe135 1.997 . S
O152 C147 1.235 . S
C153 O136 1.295 . S
C153 O137 1.235 . S
Fe154 O156 1.918 . S
Fe154 O159 1.997 . S
Fe154 O160 2.002 . S
Fe154 O165 1.976 . S
Fe154 O168 1.996 . S
Fe155 O156 1.918 . S
Fe155 O163 1.997 . S
Fe155 O166 1.996 . S
Fe155 O170 1.976 . S
Fe155 O173 2.002 . S
O156 Fe154 1.918 . S
O156 Fe155 1.918 . S
O156 Fe157 1.918 1_556 S
Fe157 O156 1.918 1_554 S
Fe157 O158 2.006 . S
Fe157 O167 1.976 . S
Fe157 O171 1.996 . S
Fe157 O174 1.997 1_554 S
O158 Fe157 2.006 . S
O158 C175 1.280 1_554 S
O159 Fe154 1.997 . S
O159 C175 1.235 . S
O160 Fe154 2.002 . S
O160 C161 1.295 . S
C161 O160 1.295 . S
C161 O163 1.235 . S
C162 O167 1.287 . S
C162 O168 1.255 1_554 S
O163 Fe155 1.997 . S
O163 C161 1.235 . S
C164 O170 1.287 1_554 S
C164 O171 1.255 . S
O165 Fe154 1.976 . S
O165 C172 1.287 . S
O166 Fe155 1.996 . S
O166 C172 1.255 . S
O167 Fe157 1.976 . S
O167 C162 1.287 . S
O168 Fe154 1.996 . S
O168 C162 1.255 1_556 S
C169 O173 1.295 . S
C169 O174 1.235 . S
O170 Fe155 1.976 . S
O170 C164 1.287 1_556 S
O171 Fe157 1.996 . S
O171 C164 1.255 . S
C172 O165 1.287 . S
C172 O166 1.255 . S
O173 Fe155 2.002 . S
O173 C169 1.295 . S
O174 Fe157 1.997 1_556 S
O174 C169 1.235 . S
C175 O158 1.280 1_556 S
C175 O159 1.235 . S
Fe176 O178 1.918 . S
Fe176 O181 1.997 . S
Fe176 O182 2.002 . S
Fe176 O187 1.976 . S
Fe176 O190 1.996 . S
Fe177 O178 1.918 . S
Fe177 O185 1.997 . S
Fe177 O188 1.996 . S
Fe177 O192 1.976 . S
Fe177 O195 2.002 . S
O178 Fe176 1.918 . S
O178 Fe177 1.918 . S
O178 Fe179 1.918 . S
Fe179 O178 1.918 . S
Fe179 O180 2.002 . S
Fe179 O189 1.976 . S
Fe179 O193 1.996 . S
Fe179 O196 1.997 . S
O180 Fe179 2.002 . S
O180 C197 1.295 . S
O181 Fe176 1.997 . S
O181 C197 1.235 . S
O182 Fe176 2.002 . S
O182 C183 1.295 . S
C183 O182 1.295 . S
C183 O185 1.235 . S
C184 O189 1.287 . S
C184 O190 1.255 . S
O185 Fe177 1.997 . S
O185 C183 1.235 . S
C186 O192 1.287 . S
C186 O193 1.255 . S
O187 Fe176 1.976 . S
O187 C194 1.287 . S
O188 Fe177 1.996 . S
O188 C194 1.255 . S
O189 Fe179 1.976 . S
O189 C184 1.287 . S
O190 Fe176 1.996 . S
O190 C184 1.255 . S
C191 O195 1.295 . S
C191 O196 1.235 . S
O192 Fe177 1.976 . S
O192 C186 1.287 . S
O193 Fe179 1.996 . S
O193 C186 1.255 . S
C194 O187 1.287 . S
C194 O188 1.255 . S
O195 Fe177 2.002 . S
O195 C191 1.295 . S
O196 Fe179 1.997 . S
O196 C191 1.235 . S
C197 O180 1.295 . S
C197 O181 1.235 . S
Fe198 O200 1.918 . S
Fe198 O203 1.997 . S
Fe198 O204 2.002 . S
Fe198 O209 1.976 . S
Fe198 O212 1.996 . S
Fe199 O200 1.918 . S
Fe199 O207 1.997 . S
Fe199 O210 1.996 . S
Fe199 O214 1.976 . S
Fe199 O217 2.002 . S
O200 Fe198 1.918 . S
O200 Fe199 1.918 . S
O200 Fe201 1.918 . S
Fe201 O200 1.918 . S
Fe201 O202 2.002 . S
Fe201 O211 1.976 . S
Fe201 O215 1.996 . S
Fe201 O218 1.997 . S
O202 Fe201 2.002 . S
O202 C219 1.295 . S
O203 Fe198 1.997 . S
O203 C219 1.235 . S
O204 Fe198 2.002 . S
O204 C205 1.295 . S
C205 O204 1.295 . S
C205 O207 1.235 . S
C206 O211 1.287 . S
C206 O212 1.255 . S
O207 Fe199 1.997 . S
O207 C205 1.235 . S
C208 O214 1.287 . S
C208 O215 1.255 . S
O209 Fe198 1.976 . S
O209 C216 1.287 . S
O210 Fe199 1.996 . S
O210 C216 1.255 . S
O211 Fe201 1.976 . S
O211 C206 1.287 . S
O212 Fe198 1.996 . S
O212 C206 1.255 . S
C213 O217 1.295 . S
C213 O218 1.235 . S
O214 Fe199 1.976 . S
O214 C208 1.287 . S
O215 Fe201 1.996 . S
O215 C208 1.255 . S
C216 O209 1.287 . S
C216 O210 1.255 . S
O217 Fe199 2.002 . S
O217 C213 1.295 . S
O218 Fe201 1.997 . S
O218 C213 1.235 . S
C219 O202 1.295 . S
C219 O203 1.235 . S
Fe220 O222 1.918 . S
Fe220 O225 1.997 . S
Fe220 O226 2.002 . S
Fe220 O231 1.976 . S
Fe220 O234 1.996 . S
Fe221 O222 1.918 . S
Fe221 O229 1.997 . S
Fe221 O232 1.996 . S
Fe221 O236 1.976 . S
Fe221 O239 2.002 . S
O222 Fe220 1.918 . S
O222 Fe221 1.918 . S
O222 Fe223 1.918 . S
Fe223 O222 1.918 . S
Fe223 O224 2.002 . S
Fe223 O233 1.976 . S
Fe223 O237 1.996 . S
Fe223 O240 1.997 . S
O224 Fe223 2.002 . S
O224 C241 1.295 . S
O225 Fe220 1.997 . S
O225 C241 1.235 . S
O226 Fe220 2.002 . S
O226 C227 1.295 . S
C227 O226 1.295 . S
C227 O229 1.235 . S
C228 O233 1.287 . S
C228 O234 1.255 . S
O229 Fe221 1.997 . S
O229 C227 1.235 . S
C230 O236 1.287 . S
C230 O237 1.255 . S
O231 Fe220 1.976 . S
O231 C238 1.287 . S
O232 Fe221 1.996 . S
O232 C238 1.255 . S
O233 Fe223 1.976 . S
O233 C228 1.287 . S
O234 Fe220 1.996 . S
O234 C228 1.255 . S
C235 O239 1.295 . S
C235 O240 1.235 . S
O236 Fe221 1.976 . S
O236 C230 1.287 . S
O237 Fe223 1.996 . S
O237 C230 1.255 . S
C238 O231 1.287 . S
C238 O232 1.255 . S
O239 Fe221 2.002 . S
O239 C235 1.295 . S
O240 Fe223 1.997 . S
O240 C235 1.235 . S
C241 O224 1.295 . S
C241 O225 1.235 . S
Fe242 O244 1.918 . S
Fe242 O247 1.997 . S
Fe242 O248 2.002 . S
Fe242 O253 1.976 . S
Fe242 O256 1.996 . S
Fe243 O244 1.918 . S
Fe243 O251 1.997 . S
Fe243 O254 1.996 . S
Fe243 O258 1.976 . S
Fe243 O261 2.002 . S
O244 Fe242 1.918 . S
O244 Fe243 1.918 . S
O244 Fe245 1.918 . S
Fe245 O244 1.918 . S
Fe245 O246 2.002 . S
Fe245 O255 1.976 . S
Fe245 O259 1.996 . S
Fe245 O262 1.997 . S
O246 Fe245 2.002 . S
O246 C263 1.295 . S
O247 Fe242 1.997 . S
O247 C263 1.235 . S
O248 Fe242 2.002 . S
O248 C249 1.295 . S
C249 O248 1.295 . S
C249 O251 1.235 . S
C250 O255 1.287 . S
C250 O256 1.255 . S
O251 Fe243 1.997 . S
O251 C249 1.235 . S
C252 O258 1.287 . S
C252 O259 1.255 . S
O253 Fe242 1.976 . S
O253 C260 1.287 . S
O254 Fe243 1.996 . S
O254 C260 1.255 . S
O255 Fe245 1.976 . S
O255 C250 1.287 . S
O256 Fe242 1.996 . S
O256 C250 1.255 . S
C257 O261 1.295 . S
C257 O262 1.235 . S
O258 Fe243 1.976 . S
O258 C252 1.287 . S
O259 Fe245 1.996 . S
O259 C252 1.255 . S
C260 O253 1.287 . S
C260 O254 1.255 . S
O261 Fe243 2.002 . S
O261 C257 1.295 . S
O262 Fe245 1.997 . S
O262 C257 1.235 . S
C263 O246 1.295 . S
C263 O247 1.235 . S
H264 C272 0.950 . S
H265 C277 0.950 . S
H266 C274 0.950 . S
H267 C276 0.950 . S
H268 C278 0.950 . S
H269 C280 0.950 . S
H270 C282 0.950 . S
H271 C283 0.950 . S
C272 H264 0.950 . S
C272 C273 1.386 . S
C272 C274 1.391 . S
C273 C272 1.386 . S
C273 C277 1.393 . S
C274 H266 0.950 . S
C274 C272 1.391 . S
C274 C275 1.400 . S
C275 C274 1.400 . S
C275 C276 1.398 . S
C275 C281 1.491 . S
C276 H267 0.950 . S
C276 C275 1.398 . S
C276 C277 1.391 . S
C277 H265 0.950 . S
C277 C273 1.393 . S
C277 C276 1.391 . S
C278 H268 0.950 . S
C278 C279 1.386 . S
C278 C280 1.391 . S
C279 C278 1.386 . S
C279 C283 1.393 . S
C280 H269 0.950 . S
C280 C278 1.391 . S
C280 C281 1.400 . S
C281 C275 1.491 . S
C281 C280 1.400 . S
C281 C282 1.398 . S
C282 H270 0.950 . S
C282 C281 1.398 . S
C282 C283 1.391 . S
C283 H271 0.950 . S
C283 C279 1.393 . S
C283 C282 1.391 . S
H284 C292 0.950 . S
H285 C297 0.950 . S
H286 C294 0.950 . S
H287 C296 0.950 . S
H288 C298 0.950 . S
H289 C300 0.950 . S
H290 C302 0.950 . S
H291 C303 0.950 . S
C292 H284 0.950 . S
C292 C293 1.386 . S
C292 C294 1.391 . S
C293 C292 1.386 . S
C293 C297 1.393 . S
C294 H286 0.950 . S
C294 C292 1.391 . S
C294 C295 1.400 . S
C295 C294 1.400 . S
C295 C296 1.398 . S
C295 C301 1.491 . S
C296 H287 0.950 . S
C296 C295 1.398 . S
C296 C297 1.391 . S
C297 H285 0.950 . S
C297 C293 1.393 . S
C297 C296 1.391 . S
C298 H288 0.950 . S
C298 C299 1.386 . S
C298 C300 1.391 . S
C299 C298 1.386 . S
C299 C303 1.393 . S
C300 H289 0.950 . S
C300 C298 1.391 . S
C300 C301 1.400 . S
C301 C295 1.491 . S
C301 C300 1.400 . S
C301 C302 1.398 . S
C302 H290 0.950 . S
C302 C301 1.398 . S
C302 C303 1.391 . S
C303 H291 0.950 . S
C303 C299 1.393 . S
C303 C302 1.391 . S
H304 C312 0.950 . S
H305 C317 0.950 . S
H306 C314 0.950 . S
H307 C316 0.950 . S
H308 C318 0.950 . S
H309 C320 0.950 . S
H310 C322 0.950 . S
H311 C323 0.950 . S
C312 H304 0.950 . S
C312 C313 1.386 . S
C312 C314 1.391 . S
C313 C312 1.386 . S
C313 C317 1.393 . S
C314 H306 0.950 . S
C314 C312 1.391 . S
C314 C315 1.400 . S
C315 C314 1.400 . S
C315 C316 1.398 . S
C315 C321 1.491 . S
C316 H307 0.950 . S
C316 C315 1.398 . S
C316 C317 1.391 . S
C317 H305 0.950 . S
C317 C313 1.393 . S
C317 C316 1.391 . S
C318 H308 0.950 . S
C318 C319 1.386 . S
C318 C320 1.391 . S
C319 C318 1.386 . S
C319 C323 1.393 . S
C320 H309 0.950 . S
C320 C318 1.391 . S
C320 C321 1.400 . S
C321 C315 1.491 . S
C321 C320 1.400 . S
C321 C322 1.398 . S
C322 H310 0.950 . S
C322 C321 1.398 . S
C322 C323 1.391 . S
C323 H311 0.950 . S
C323 C319 1.393 . S
C323 C322 1.391 . S
H324 C332 0.950 . S
H325 C337 0.950 . S
H326 C334 0.950 . S
H327 C336 0.950 . S
H328 C338 0.950 . S
H329 C340 0.950 . S
H330 C342 0.950 . S
H331 C343 0.950 . S
C332 H324 0.950 . S
C332 C333 1.386 . S
C332 C334 1.391 . S
C333 C332 1.386 . S
C333 C337 1.393 . S
C334 H326 0.950 . S
C334 C332 1.391 . S
C334 C335 1.400 . S
C335 C334 1.400 . S
C335 C336 1.398 . S
C335 C341 1.491 . S
C336 H327 0.950 . S
C336 C335 1.398 . S
C336 C337 1.391 . S
C337 H325 0.950 . S
C337 C333 1.393 . S
C337 C336 1.391 . S
C338 H328 0.950 . S
C338 C339 1.386 . S
C338 C340 1.391 . S
C339 C338 1.386 . S
C339 C343 1.393 . S
C340 H329 0.950 . S
C340 C338 1.391 . S
C340 C341 1.400 . S
C341 C335 1.491 . S
C341 C340 1.400 . S
C341 C342 1.398 . S
C342 H330 0.950 . S
C342 C341 1.398 . S
C342 C343 1.391 . S
C343 H331 0.950 . S
C343 C339 1.393 . S
C343 C342 1.391 . S
H344 C352 0.950 . S
H345 C357 0.950 . S
H346 C354 0.950 . S
H347 C356 0.950 . S
H348 C358 0.950 . S
H349 C360 0.950 . S
H350 C362 0.950 . S
H351 C363 0.950 . S
C352 H344 0.950 . S
C352 C353 1.386 . S
C352 C354 1.391 . S
C353 C352 1.386 . S
C353 C357 1.393 . S
C354 H346 0.950 . S
C354 C352 1.391 . S
C354 C355 1.400 . S
C355 C354 1.400 . S
C355 C356 1.398 . S
C355 C361 1.491 . S
C356 H347 0.950 . S
C356 C355 1.398 . S
C356 C357 1.391 . S
C357 H345 0.950 . S
C357 C353 1.393 . S
C357 C356 1.391 . S
C358 H348 0.950 . S
C358 C359 1.386 . S
C358 C360 1.391 . S
C359 C358 1.386 . S
C359 C363 1.393 . S
C360 H349 0.950 . S
C360 C358 1.391 . S
C360 C361 1.400 . S
C361 C355 1.491 . S
C361 C360 1.400 . S
C361 C362 1.398 . S
C362 H350 0.950 . S
C362 C361 1.398 . S
C362 C363 1.391 . S
C363 H351 0.950 . S
C363 C359 1.393 . S
C363 C362 1.391 . S
H364 C372 0.950 . S
H365 C377 0.950 . S
H366 C374 0.950 . S
H367 C376 0.950 . S
H368 C378 0.950 . S
H369 C380 0.950 . S
H370 C382 0.950 . S
H371 C383 0.950 . S
C372 H364 0.950 . S
C372 C373 1.386 . S
C372 C374 1.391 . S
C373 C372 1.386 . S
C373 C377 1.393 . S
C374 H366 0.950 . S
C374 C372 1.391 . S
C374 C375 1.400 . S
C375 C374 1.400 . S
C375 C376 1.398 . S
C375 C381 1.491 . S
C376 H367 0.950 . S
C376 C375 1.398 . S
C376 C377 1.391 . S
C377 H365 0.950 . S
C377 C373 1.393 . S
C377 C376 1.391 . S
C378 H368 0.950 . S
C378 C379 1.386 . S
C378 C380 1.391 . S
C379 C378 1.386 . S
C379 C383 1.393 . S
C380 H369 0.950 . S
C380 C378 1.391 . S
C380 C381 1.400 . S
C381 C375 1.491 . S
C381 C380 1.400 . S
C381 C382 1.398 . S
C382 H370 0.950 . S
C382 C381 1.398 . S
C382 C383 1.391 . S
C383 H371 0.950 . S
C383 C379 1.393 . S
C383 C382 1.391 . S
H384 C392 0.950 . S
H385 C397 0.950 . S
H386 C394 0.950 . S
H387 C396 0.950 . S
H388 C398 0.950 . S
H389 C400 0.950 . S
H390 C402 0.950 . S
H391 C403 0.950 . S
C392 H384 0.950 . S
C392 C393 1.386 . S
C392 C394 1.391 . S
C393 C392 1.386 . S
C393 C397 1.393 . S
C394 H386 0.950 . S
C394 C392 1.391 . S
C394 C395 1.400 . S
C395 C394 1.400 . S
C395 C396 1.398 . S
C395 C401 1.491 . S
C396 H387 0.950 . S
C396 C395 1.398 . S
C396 C397 1.391 . S
C397 H385 0.950 . S
C397 C393 1.393 . S
C397 C396 1.391 . S
C398 H388 0.950 . S
C398 C399 1.386 . S
C398 C400 1.391 . S
C399 C398 1.386 . S
C399 C403 1.393 . S
C400 H389 0.950 . S
C400 C398 1.391 . S
C400 C401 1.400 . S
C401 C395 1.491 . S
C401 C400 1.400 . S
C401 C402 1.398 . S
C402 H390 0.950 . S
C402 C401 1.398 . S
C402 C403 1.391 . S
C403 H391 0.950 . S
C403 C399 1.393 . S
C403 C402 1.391 . S
H404 C412 0.950 . S
H405 C417 0.950 . S
H406 C414 0.950 . S
H407 C416 0.950 1_455 S
H408 C418 0.950 . S
H409 C420 0.950 . S
H410 C422 0.950 1_655 S
H411 C423 0.950 . S
C412 H404 0.950 . S
C412 C413 1.386 . S
C412 C414 1.391 . S
C413 C412 1.386 . S
C413 C417 1.393 . S
C414 H406 0.950 . S
C414 C412 1.391 . S
C414 C415 1.400 . S
C415 C414 1.400 . S
C415 C416 1.398 . S
C415 C421 1.491 1_655 S
C416 H407 0.950 1_655 S
C416 C415 1.398 . S
C416 C417 1.391 . S
C417 H405 0.950 . S
C417 C413 1.393 . S
C417 C416 1.391 . S
C418 H408 0.950 . S
C418 C419 1.386 . S
C418 C420 1.391 . S
C419 C418 1.386 . S
C419 C423 1.393 . S
C420 H409 0.950 . S
C420 C418 1.391 . S
C420 C421 1.400 . S
C421 C415 1.491 1_455 S
C421 C420 1.400 . S
C421 C422 1.398 . S
C422 H410 0.950 1_455 S
C422 C421 1.398 . S
C422 C423 1.391 . S
C423 H411 0.950 . S
C423 C419 1.393 . S
C423 C422 1.391 . S
H424 C432 0.950 . S
H425 C437 0.950 . S
H426 C434 0.950 . S
H427 C436 0.950 . S
H428 C438 0.950 . S
H429 C440 0.950 . S
H430 C442 0.950 . S
H431 C443 0.950 . S
C432 H424 0.950 . S
C432 C433 1.386 . S
C432 C434 1.391 . S
C433 C432 1.386 . S
C433 C437 1.393 . S
C434 H426 0.950 . S
C434 C432 1.391 . S
C434 C435 1.400 . S
C435 C434 1.400 . S
C435 C436 1.398 . S
C435 C441 1.491 1_545 S
C436 H427 0.950 . S
C436 C435 1.398 . S
C436 C437 1.391 . S
C437 H425 0.950 . S
C437 C433 1.393 . S
C437 C436 1.391 . S
C438 H428 0.950 . S
C438 C439 1.386 . S
C438 C440 1.391 . S
C439 C438 1.386 . S
C439 C443 1.393 . S
C440 H429 0.950 . S
C440 C438 1.391 . S
C440 C441 1.400 . S
C441 C435 1.491 1_565 S
C441 C440 1.400 . S
C441 C442 1.398 . S
C442 H430 0.950 . S
C442 C441 1.398 . S
C442 C443 1.391 . S
C443 H431 0.950 . S
C443 C439 1.393 . S
C443 C442 1.391 . S
H444 C452 0.950 . S
H445 C457 0.950 . S
H446 C454 0.950 . S
H447 C456 0.950 . S
H448 C458 0.950 . S
H449 C460 0.950 . S
H450 C462 0.950 . S
H451 C463 0.950 . S
C452 H444 0.950 . S
C452 C453 1.386 . S
C452 C454 1.391 . S
C453 C452 1.386 . S
C453 C457 1.393 . S
C454 H446 0.950 . S
C454 C452 1.391 . S
C454 C455 1.400 . S
C455 C454 1.400 . S
C455 C456 1.398 . S
C455 C461 1.491 . S
C456 H447 0.950 . S
C456 C455 1.398 . S
C456 C457 1.391 . S
C457 H445 0.950 . S
C457 C453 1.393 . S
C457 C456 1.391 . S
C458 H448 0.950 . S
C458 C459 1.386 . S
C458 C460 1.391 . S
C459 C458 1.386 . S
C459 C463 1.393 . S
C460 H449 0.950 . S
C460 C458 1.391 . S
C460 C461 1.400 . S
C461 C455 1.491 . S
C461 C460 1.400 . S
C461 C462 1.398 . S
C462 H450 0.950 . S
C462 C461 1.398 . S
C462 C463 1.391 . S
C463 H451 0.950 . S
C463 C459 1.393 . S
C463 C462 1.391 . S
H464 C472 0.950 . S
H465 C477 0.950 . S
H466 C474 0.950 1_655 S
H467 C476 0.950 . S
H468 C478 0.950 . S
H469 C480 0.950 1_455 S
H470 C482 0.950 . S
H471 C483 0.950 . S
C472 H464 0.950 . S
C472 C473 1.386 . S
C472 C474 1.391 . S
C473 C472 1.386 . S
C473 C477 1.393 . S
C474 H466 0.950 1_455 S
C474 C472 1.391 . S
C474 C475 1.400 . S
C475 C474 1.400 . S
C475 C476 1.398 . S
C475 C481 1.491 1_455 S
C476 H467 0.950 . S
C476 C475 1.398 . S
C476 C477 1.391 . S
C477 H465 0.950 . S
C477 C473 1.393 . S
C477 C476 1.391 . S
C478 H468 0.950 . S
C478 C479 1.386 . S
C478 C480 1.391 . S
C479 C478 1.386 . S
C479 C483 1.393 . S
C480 H469 0.950 1_655 S
C480 C478 1.391 . S
C480 C481 1.400 . S
C481 C475 1.491 1_655 S
C481 C480 1.400 . S
C481 C482 1.398 . S
C482 H470 0.950 . S
C482 C481 1.398 . S
C482 C483 1.391 . S
C483 H471 0.950 . S
C483 C479 1.393 . S
C483 C482 1.391 . S
H484 C492 0.950 . S
H485 C497 0.950 . S
H486 C494 0.950 1_565 S
H487 C496 0.950 1_554 S
H488 C498 0.950 . S
H489 C500 0.950 1_545 S
H490 C502 0.950 1_556 S
H491 C503 0.950 . S
C492 H484 0.950 . S
C492 C493 1.386 . S
C492 C494 1.391 . S
C493 C492 1.386 . S
C493 C497 1.393 . S
C494 H486 0.950 1_545 S
C494 C492 1.391 . S
C494 C495 1.400 . S
C495 C494 1.400 . S
C495 C496 1.398 . S
C495 C501 1.491 1_546 S
C496 H487 0.950 1_556 S
C496 C495 1.398 . S
C496 C497 1.391 . S
C497 H485 0.950 . S
C497 C493 1.393 . S
C497 C496 1.391 . S
C498 H488 0.950 . S
C498 C499 1.386 . S
C498 C500 1.391 . S
C499 C498 1.386 . S
C499 C503 1.393 . S
C500 H489 0.950 1_565 S
C500 C498 1.391 . S
C500 C501 1.400 . S
C501 C495 1.491 1_564 S
C501 C500 1.400 . S
C501 C502 1.398 . S
C502 H490 0.950 1_554 S
C502 C501 1.398 . S
C502 C503 1.391 . S
C503 H491 0.950 . S
C503 C499 1.393 . S
C503 C502 1.391 . S
H504 C512 0.950 . S
H505 C517 0.950 . S
H506 C514 0.950 . S
H507 C516 0.950 . S
H508 C518 0.950 . S
H509 C520 0.950 . S
H510 C522 0.950 . S
H511 C523 0.950 . S
C512 H504 0.950 . S
C512 C513 1.386 . S
C512 C514 1.391 . S
C513 C512 1.386 . S
C513 C517 1.393 . S
C514 H506 0.950 . S
C514 C512 1.391 . S
C514 C515 1.400 . S
C515 C514 1.400 . S
C515 C516 1.398 . S
C515 C521 1.491 . S
C516 H507 0.950 . S
C516 C515 1.398 . S
C516 C517 1.391 . S
C517 H505 0.950 . S
C517 C513 1.393 . S
C517 C516 1.391 . S
C518 H508 0.950 . S
C518 C519 1.386 . S
C518 C520 1.391 . S
C519 C518 1.386 . S
C519 C523 1.393 . S
C520 H509 0.950 . S
C520 C518 1.391 . S
C520 C521 1.400 . S
C521 C515 1.491 . S
C521 C520 1.400 . S
C521 C522 1.398 . S
C522 H510 0.950 . S
C522 C521 1.398 . S
C522 C523 1.391 . S
C523 H511 0.950 . S
C523 C519 1.393 . S
C523 C522 1.391 . S
H524 C532 0.950 . S
H525 C537 0.950 . S
H526 C534 0.950 . S
H527 C536 0.950 . S
H528 C538 0.950 . S
H529 C540 0.950 . S
H530 C542 0.950 . S
H531 C543 0.950 . S
C532 H524 0.950 . S
C532 C533 1.386 . S
C532 C534 1.391 . S
C533 C532 1.386 . S
C533 C537 1.393 . S
C534 H526 0.950 . S
C534 C532 1.391 . S
C534 C535 1.400 . S
C535 C534 1.400 . S
C535 C536 1.398 . S
C535 C541 1.491 . S
C536 H527 0.950 . S
C536 C535 1.398 . S
C536 C537 1.391 . S
C537 H525 0.950 . S
C537 C533 1.393 . S
C537 C536 1.391 . S
C538 H528 0.950 . S
C538 C539 1.386 . S
C538 C540 1.391 . S
C539 C538 1.386 . S
C539 C543 1.393 . S
C540 H529 0.950 . S
C540 C538 1.391 . S
C540 C541 1.400 . S
C541 C535 1.491 . S
C541 C540 1.400 . S
C541 C542 1.398 . S
C542 H530 0.950 . S
C542 C541 1.398 . S
C542 C543 1.391 . S
C543 H531 0.950 . S
C543 C539 1.393 . S
C543 C542 1.391 . S
H544 C552 0.950 . S
H545 C557 0.950 . S
H546 C554 0.950 . S
H547 C556 0.950 . S
H548 C558 0.950 . S
H549 C560 0.950 . S
H550 C562 0.950 . S
H551 C563 0.950 . S
C552 H544 0.950 . S
C552 C553 1.386 . S
C552 C554 1.391 . S
C553 C552 1.386 . S
C553 C557 1.393 . S
C554 H546 0.950 . S
C554 C552 1.391 . S
C554 C555 1.400 . S
C555 C554 1.400 . S
C555 C556 1.398 . S
C555 C561 1.491 . S
C556 H547 0.950 . S
C556 C555 1.398 . S
C556 C557 1.391 . S
C557 H545 0.950 . S
C557 C553 1.393 . S
C557 C556 1.391 . S
C558 H548 0.950 . S
C558 C559 1.386 . S
C558 C560 1.391 . S
C559 C558 1.386 . S
C559 C563 1.393 . S
C560 H549 0.950 . S
C560 C558 1.391 . S
C560 C561 1.400 . S
C561 C555 1.491 . S
C561 C560 1.400 . S
C561 C562 1.398 . S
C562 H550 0.950 . S
C562 C561 1.398 . S
C562 C563 1.391 . S
C563 H551 0.950 . S
C563 C559 1.393 . S
C563 C562 1.391 . S
H564 C572 0.950 . S
H565 C577 0.950 . S
H566 C574 0.950 . S
H567 C576 0.950 . S
H568 C578 0.950 . S
H569 C580 0.950 . S
H570 C582 0.950 . S
H571 C583 0.950 . S
C572 H564 0.950 . S
C572 C573 1.386 . S
C572 C574 1.391 . S
C573 C572 1.386 . S
C573 C577 1.393 . S
C574 H566 0.950 . S
C574 C572 1.391 . S
C574 C575 1.400 . S
C575 C574 1.400 . S
C575 C576 1.398 . S
C575 C581 1.491 . S
C576 H567 0.950 . S
C576 C575 1.398 . S
C576 C577 1.391 . S
C577 H565 0.950 . S
C577 C573 1.393 . S
C577 C576 1.391 . S
C578 H568 0.950 . S
C578 C579 1.386 . S
C578 C580 1.391 . S
C579 C578 1.386 . S
C579 C583 1.393 . S
C580 H569 0.950 . S
C580 C578 1.391 . S
C580 C581 1.400 . S
C581 C575 1.491 . S
C581 C580 1.400 . S
C581 C582 1.398 . S
C582 H570 0.950 . S
C582 C581 1.398 . S
C582 C583 1.391 . S
C583 H571 0.950 . S
C583 C579 1.393 . S
C583 C582 1.391 . S
H584 C592 0.950 . S
H585 C597 0.950 . S
H586 C594 0.950 . S
H587 C596 0.950 . S
H588 C598 0.950 . S
H589 C600 0.950 . S
H590 C602 0.950 . S
H591 C603 0.950 . S
C592 H584 0.950 . S
C592 C593 1.386 . S
C592 C594 1.391 . S
C593 C592 1.386 . S
C593 C597 1.393 . S
C594 H586 0.950 . S
C594 C592 1.391 . S
C594 C595 1.400 . S
C595 C594 1.400 . S
C595 C596 1.398 . S
C595 C601 1.491 . S
C596 H587 0.950 . S
C596 C595 1.398 . S
C596 C597 1.391 . S
C597 H585 0.950 . S
C597 C593 1.393 . S
C597 C596 1.391 . S
C598 H588 0.950 . S
C598 C599 1.386 . S
C598 C600 1.391 . S
C599 C598 1.386 . S
C599 C603 1.393 . S
C600 H589 0.950 . S
C600 C598 1.391 . S
C600 C601 1.400 . S
C601 C595 1.491 . S
C601 C600 1.400 . S
C601 C602 1.398 . S
C602 H590 0.950 . S
C602 C601 1.398 . S
C602 C603 1.391 . S
C603 H591 0.950 . S
C603 C599 1.393 . S
C603 C602 1.391 . S
H604 C612 0.950 . S
H605 C617 0.950 . S
H606 C614 0.950 . S
H607 C616 0.950 . S
H608 C618 0.950 . S
H609 C620 0.950 . S
H610 C622 0.950 . S
H611 C623 0.950 . S
C612 H604 0.950 . S
C612 C613 1.386 . S
C612 C614 1.391 . S
C613 C612 1.386 . S
C613 C617 1.393 . S
C614 H606 0.950 . S
C614 C612 1.391 . S
C614 C615 1.400 . S
C615 C614 1.400 . S
C615 C616 1.398 . S
C615 C621 1.491 . S
C616 H607 0.950 . S
C616 C615 1.398 . S
C616 C617 1.391 . S
C617 H605 0.950 . S
C617 C613 1.393 . S
C617 C616 1.391 . S
C618 H608 0.950 . S
C618 C619 1.386 . S
C618 C620 1.391 . S
C619 C618 1.386 . S
C619 C623 1.393 . S
C620 H609 0.950 . S
C620 C618 1.391 . S
C620 C621 1.400 . S
C621 C615 1.491 . S
C621 C620 1.400 . S
C621 C622 1.398 . S
C622 H610 0.950 . S
C622 C621 1.398 . S
C622 C623 1.391 . S
C623 H611 0.950 . S
C623 C619 1.393 . S
C623 C622 1.391 . S
H624 C632 0.950 . S
H625 C637 0.971 . S
H626 C634 0.950 . S
H627 C636 0.950 . S
H628 C638 0.950 . S
H629 C640 0.950 . S
H630 C642 0.950 . S
H631 C643 0.950 . S
C632 H624 0.950 . S
C632 C633 1.386 . S
C632 C634 1.391 . S
C633 C632 1.386 . S
C633 C637 1.393 . S
C634 H626 0.950 . S
C634 C632 1.391 . S
C634 C635 1.400 . S
C635 C634 1.400 . S
C635 C636 1.398 . S
C635 C641 1.491 . S
C636 H627 0.950 . S
C636 C635 1.398 . S
C636 C637 1.391 . S
C637 H625 0.971 . S
C637 C633 1.393 . S
C637 C636 1.391 . S
C638 H628 0.950 . S
C638 C639 1.386 . S
C638 C640 1.391 . S
C639 C638 1.386 . S
C639 C643 1.393 . S
C640 H629 0.950 . S
C640 C638 1.391 . S
C640 C641 1.400 . S
C641 C635 1.491 . S
C641 C640 1.400 . S
C641 C642 1.398 . S
C642 H630 0.950 . S
C642 C641 1.398 . S
C642 C643 1.391 . S
C643 H631 0.950 . S
C643 C639 1.393 . S
C643 C642 1.391 . S
H644 C652 0.950 . S
H645 C657 0.950 . S
H646 C654 0.950 . S
H647 C656 0.950 . S
H648 C658 0.950 . S
H649 C660 0.950 . S
H650 C662 0.950 . S
H651 C663 0.950 . S
C652 H644 0.950 . S
C652 C653 1.386 . S
C652 C654 1.391 . S
C653 C652 1.386 . S
C653 C657 1.393 . S
C654 H646 0.950 . S
C654 C652 1.391 . S
C654 C655 1.400 . S
C655 C654 1.400 . S
C655 C656 1.398 . S
C655 C661 1.491 1_655 S
C656 H647 0.950 . S
C656 C655 1.398 . S
C656 C657 1.391 . S
C657 H645 0.950 . S
C657 C653 1.393 . S
C657 C656 1.391 . S
C658 H648 0.950 . S
C658 C659 1.386 . S
C658 C660 1.391 . S
C659 C658 1.386 . S
C659 C663 1.393 . S
C660 H649 0.950 . S
C660 C658 1.391 . S
C660 C661 1.400 . S
C661 C655 1.491 1_455 S
C661 C660 1.400 . S
C661 C662 1.398 . S
C662 H650 0.950 . S
C662 C661 1.398 . S
C662 C663 1.391 . S
C663 H651 0.950 . S
C663 C659 1.393 . S
C663 C662 1.391 . S
H664 C672 0.950 . S
H665 C677 0.950 . S
H666 C674 0.950 . S
H667 C676 0.950 . S
H668 C678 0.950 . S
H669 C680 0.950 . S
H670 C682 0.950 . S
H671 C683 0.950 . S
C672 H664 0.950 . S
C672 C673 1.386 . S
C672 C674 1.391 . S
C673 C672 1.386 . S
C673 C677 1.393 . S
C674 H666 0.950 . S
C674 C672 1.391 . S
C674 C675 1.400 . S
C675 C674 1.400 . S
C675 C676 1.398 . S
C675 C681 1.491 1_565 S
C676 H667 0.950 . S
C676 C675 1.398 . S
C676 C677 1.391 . S
C677 H665 0.950 . S
C677 C673 1.393 . S
C677 C676 1.391 . S
C678 H668 0.950 . S
C678 C679 1.386 . S
C678 C680 1.391 . S
C679 C678 1.386 . S
C679 C683 1.393 . S
C680 H669 0.950 . S
C680 C678 1.391 . S
C680 C681 1.400 . S
C681 C675 1.491 1_545 S
C681 C680 1.400 . S
C681 C682 1.398 . S
C682 H670 0.950 . S
C682 C681 1.398 . S
C682 C683 1.391 . S
C683 H671 0.950 . S
C683 C679 1.393 . S
C683 C682 1.391 . S
H684 C692 0.950 . S
H685 C697 0.950 . S
H686 C694 0.950 . S
H687 C696 0.950 . S
H688 C698 0.950 . S
H689 C700 0.950 . S
H690 C702 0.950 . S
H691 C703 0.950 . S
C692 H684 0.950 . S
C692 C693 1.386 . S
C692 C694 1.391 . S
C693 C692 1.386 . S
C693 C697 1.393 . S
C694 H686 0.950 . S
C694 C692 1.391 . S
C694 C695 1.400 . S
C695 C694 1.400 . S
C695 C696 1.398 . S
C695 C701 1.491 . S
C696 H687 0.950 . S
C696 C695 1.398 . S
C696 C697 1.391 . S
C697 H685 0.950 . S
C697 C693 1.393 . S
C697 C696 1.391 . S
C698 H688 0.950 . S
C698 C699 1.386 . S
C698 C700 1.391 . S
C699 C698 1.386 . S
C699 C703 1.393 . S
C700 H689 0.950 . S
C700 C698 1.391 . S
C700 C701 1.400 . S
C701 C695 1.491 . S
C701 C700 1.400 . S
C701 C702 1.398 . S
C702 H690 0.950 . S
C702 C701 1.398 . S
C702 C703 1.391 . S
C703 H691 0.950 . S
C703 C699 1.393 . S
C703 C702 1.391 . S
H704 C712 0.950 . S
H705 C717 0.950 . S
H706 C714 0.950 . S
H707 C716 0.950 . S
H708 C718 0.950 . S
H709 C720 0.950 . S
H710 C722 0.950 . S
H711 C723 0.950 . S
C712 H704 0.950 . S
C712 C713 1.386 . S
C712 C714 1.391 . S
C713 C712 1.386 . S
C713 C717 1.393 . S
C714 H706 0.950 . S
C714 C712 1.391 . S
C714 C715 1.400 . S
C715 C714 1.400 . S
C715 C716 1.398 . S
C715 C721 1.491 1_455 S
C716 H707 0.950 . S
C716 C715 1.398 . S
C716 C717 1.391 . S
C717 H705 0.950 . S
C717 C713 1.393 . S
C717 C716 1.391 . S
C718 H708 0.950 . S
C718 C719 1.386 . S
C718 C720 1.391 . S
C719 C718 1.386 . S
C719 C723 1.393 . S
C720 H709 0.950 . S
C720 C718 1.391 . S
C720 C721 1.400 . S
C721 C715 1.491 1_655 S
C721 C720 1.400 . S
C721 C722 1.398 . S
C722 H710 0.950 . S
C722 C721 1.398 . S
C722 C723 1.391 . S
C723 H711 0.950 . S
C723 C719 1.393 . S
C723 C722 1.391 . S
H724 C732 0.950 . S
H725 C737 0.950 . S
H726 C734 0.950 . S
H727 C736 0.950 . S
H728 C738 0.950 . S
H729 C740 0.950 . S
H730 C742 0.950 . S
H731 C743 0.950 . S
C732 H724 0.950 . S
C732 C733 1.386 . S
C732 C734 1.391 . S
C733 C732 1.386 . S
C733 C737 1.393 . S
C734 H726 0.950 . S
C734 C732 1.391 . S
C734 C735 1.400 . S
C735 C734 1.400 . S
C735 C736 1.398 . S
C735 C741 1.491 1_545 S
C736 H727 0.950 . S
C736 C735 1.398 . S
C736 C737 1.391 . S
C737 H725 0.950 . S
C737 C733 1.393 . S
C737 C736 1.391 . S
C738 H728 0.950 . S
C738 C739 1.386 . S
C738 C740 1.391 . S
C739 C738 1.386 . S
C739 C743 1.393 . S
C740 H729 0.950 . S
C740 C738 1.391 . S
C740 C741 1.400 . S
C741 C735 1.491 1_565 S
C741 C740 1.400 . S
C741 C742 1.398 . S
C742 H730 0.950 . S
C742 C741 1.398 . S
C742 C743 1.391 . S
C743 H731 0.950 . S
C743 C739 1.393 . S
C743 C742 1.391 . S
H744 C752 0.950 . S
H745 C757 0.950 . S
H746 C754 0.950 . S
H747 C756 0.950 . S
H748 C758 0.950 . S
H749 C760 0.950 . S
H750 C762 0.950 . S
H751 C763 0.950 . S
C752 H744 0.950 . S
C752 C753 1.386 . S
C752 C754 1.391 . S
C753 C752 1.386 . S
C753 C757 1.393 . S
C754 H746 0.950 . S
C754 C752 1.391 . S
C754 C755 1.400 . S
C755 C754 1.400 . S
C755 C756 1.398 . S
C755 C761 1.491 . S
C756 H747 0.950 . S
C756 C755 1.398 . S
C756 C757 1.391 . S
C757 H745 0.950 . S
C757 C753 1.393 . S
C757 C756 1.391 . S
C758 H748 0.950 . S
C758 C759 1.386 . S
C758 C760 1.391 . S
C759 C758 1.386 . S
C759 C763 1.393 . S
C760 H749 0.950 . S
C760 C758 1.391 . S
C760 C761 1.400 . S
C761 C755 1.491 . S
C761 C760 1.400 . S
C761 C762 1.398 . S
C762 H750 0.950 . S
C762 C761 1.398 . S
C762 C763 1.391 . S
C763 H751 0.950 . S
C763 C759 1.393 . S
C763 C762 1.391 . S
H764 C772 0.950 . S
H765 C777 0.950 . S
H766 C774 0.950 . S
H767 C776 0.950 . S
H768 C778 0.950 . S
H769 C780 0.950 . S
H770 C782 0.950 . S
H771 C783 0.950 . S
C772 H764 0.950 . S
C772 C773 1.386 . S
C772 C774 1.391 . S
C773 C772 1.386 . S
C773 C777 1.393 . S
C774 H766 0.950 . S
C774 C772 1.391 . S
C774 C775 1.400 . S
C775 C774 1.400 . S
C775 C776 1.398 . S
C775 C781 1.491 1_455 S
C776 H767 0.950 . S
C776 C775 1.398 . S
C776 C777 1.391 . S
C777 H765 0.950 . S
C777 C773 1.393 . S
C777 C776 1.391 . S
C778 H768 0.950 . S
C778 C779 1.386 . S
C778 C780 1.391 . S
C779 C778 1.386 . S
C779 C783 1.393 . S
C780 H769 0.950 . S
C780 C778 1.391 . S
C780 C781 1.400 . S
C781 C775 1.491 1_655 S
C781 C780 1.400 . S
C781 C782 1.398 . S
C782 H770 0.950 . S
C782 C781 1.398 . S
C782 C783 1.391 . S
C783 H771 0.950 . S
C783 C779 1.393 . S
C783 C782 1.391 . S
H784 C792 0.950 . S
H785 C797 0.950 . S
H786 C794 0.950 . S
H787 C796 0.950 . S
H788 C798 0.950 . S
H789 C800 0.950 . S
H790 C802 0.950 . S
H791 C803 0.950 . S
C792 H784 0.950 . S
C792 C793 1.386 . S
C792 C794 1.391 . S
C793 C792 1.386 . S
C793 C797 1.393 . S
C794 H786 0.950 . S
C794 C792 1.391 . S
C794 C795 1.400 . S
C795 C794 1.400 . S
C795 C796 1.398 . S
C795 C801 1.491 1_545 S
C796 H787 0.950 . S
C796 C795 1.398 . S
C796 C797 1.391 . S
C797 H785 0.950 . S
C797 C793 1.393 . S
C797 C796 1.391 . S
C798 H788 0.950 . S
C798 C799 1.386 . S
C798 C800 1.391 . S
C799 C798 1.386 . S
C799 C803 1.393 . S
C800 H789 0.950 . S
C800 C798 1.391 . S
C800 C801 1.400 . S
C801 C795 1.491 1_565 S
C801 C800 1.400 . S
C801 C802 1.398 . S
C802 H790 0.950 . S
C802 C801 1.398 . S
C802 C803 1.391 . S
C803 H791 0.950 . S
C803 C799 1.393 . S
C803 C802 1.391 . S
H804 C812 0.950 . S
H805 C817 0.950 . S
H806 C814 0.950 . S
H807 C816 0.950 . S
H808 C818 0.950 . S
H809 C820 0.950 . S
H810 C822 0.950 . S
H811 C823 0.950 . S
C812 H804 0.950 . S
C812 C813 1.386 . S
C812 C814 1.391 . S
C813 C812 1.386 . S
C813 C817 1.393 . S
C814 H806 0.950 . S
C814 C812 1.391 . S
C814 C815 1.400 . S
C815 C814 1.400 . S
C815 C816 1.398 . S
C815 C821 1.491 . S
C816 H807 0.950 . S
C816 C815 1.398 . S
C816 C817 1.391 . S
C817 H805 0.950 . S
C817 C813 1.393 . S
C817 C816 1.391 . S
C818 H808 0.950 . S
C818 C819 1.386 . S
C818 C820 1.391 . S
C819 C818 1.386 . S
C819 C823 1.393 . S
C820 H809 0.950 . S
C820 C818 1.391 . S
C820 C821 1.400 . S
C821 C815 1.491 . S
C821 C820 1.400 . S
C821 C822 1.398 . S
C822 H810 0.950 . S
C822 C821 1.398 . S
C822 C823 1.391 . S
C823 H811 0.950 . S
C823 C819 1.393 . S
C823 C822 1.391 . S
H824 C832 0.950 . S
H825 C837 0.950 . S
H826 C834 0.950 . S
H827 C836 0.950 . S
H828 C838 0.950 . S
H829 C840 0.950 . S
H830 C842 0.950 . S
H831 C843 0.950 . S
C832 H824 0.950 . S
C832 C833 1.386 . S
C832 C834 1.391 . S
C833 C832 1.386 . S
C833 C837 1.393 . S
C834 H826 0.950 . S
C834 C832 1.391 . S
C834 C835 1.400 . S
C835 C834 1.400 . S
C835 C836 1.398 . S
C835 C841 1.491 1_455 S
C836 H827 0.950 . S
C836 C835 1.398 . S
C836 C837 1.391 . S
C837 H825 0.950 . S
C837 C833 1.393 . S
C837 C836 1.391 . S
C838 H828 0.950 . S
C838 C839 1.386 . S
C838 C840 1.391 . S
C839 C838 1.386 . S
C839 C843 1.393 . S
C840 H829 0.950 . S
C840 C838 1.391 . S
C840 C841 1.400 . S
C841 C835 1.491 1_655 S
C841 C840 1.400 . S
C841 C842 1.398 . S
C842 H830 0.950 . S
C842 C841 1.398 . S
C842 C843 1.391 . S
C843 H831 0.950 . S
C843 C839 1.393 . S
C843 C842 1.391 . S
H844 C852 0.950 . S
H845 C857 0.950 . S
H846 C854 0.950 . S
H847 C856 0.950 . S
H848 C858 0.950 . S
H849 C860 0.950 . S
H850 C862 0.950 . S
H851 C863 0.950 . S
C852 H844 0.950 . S
C852 C853 1.386 . S
C852 C854 1.391 . S
C853 C852 1.386 . S
C853 C857 1.393 . S
C854 H846 0.950 . S
C854 C852 1.391 . S
C854 C855 1.400 . S
C855 C854 1.400 . S
C855 C856 1.398 . S
C855 C861 1.491 1_545 S
C856 H847 0.950 . S
C856 C855 1.398 . S
C856 C857 1.391 . S
C857 H845 0.950 . S
C857 C853 1.393 . S
C857 C856 1.391 . S
C858 H848 0.950 . S
C858 C859 1.386 . S
C858 C860 1.391 . S
C859 C858 1.386 . S
C859 C863 1.393 . S
C860 H849 0.950 . S
C860 C858 1.391 . S
C860 C861 1.400 . S
C861 C855 1.491 1_565 S
C861 C860 1.400 . S
C861 C862 1.398 . S
C862 H850 0.950 . S
C862 C861 1.398 . S
C862 C863 1.391 . S
C863 H851 0.950 . S
C863 C859 1.393 . S
C863 C862 1.391 . S
H864 C872 0.950 . S
H865 C877 0.950 . S
H866 C874 0.950 . S
H867 C876 0.950 . S
H868 C878 0.950 . S
H869 C880 0.950 . S
H870 C882 0.950 . S
H871 C883 0.950 . S
C872 H864 0.950 . S
C872 C873 1.386 . S
C872 C874 1.391 . S
C873 C872 1.386 . S
C873 C877 1.393 . S
C874 H866 0.950 . S
C874 C872 1.391 . S
C874 C875 1.400 . S
C875 C874 1.400 . S
C875 C876 1.398 . S
C875 C881 1.491 . S
C876 H867 0.950 . S
C876 C875 1.398 . S
C876 C877 1.391 . S
C877 H865 0.950 . S
C877 C873 1.393 . S
C877 C876 1.391 . S
C878 H868 0.950 . S
C878 C879 1.386 . S
C878 C880 1.391 . S
C879 C878 1.386 . S
C879 C883 1.393 . S
C880 H869 0.950 . S
C880 C878 1.391 . S
C880 C881 1.400 . S
C881 C875 1.491 . S
C881 C880 1.400 . S
C881 C882 1.398 . S
C882 H870 0.950 . S
C882 C881 1.398 . S
C882 C883 1.391 . S
C883 H871 0.950 . S
C883 C879 1.393 . S
C883 C882 1.391 . S
H884 C892 0.950 . S
H885 C897 0.950 . S
H886 C894 0.950 . S
H887 C896 0.950 . S
H888 C898 0.950 . S
H889 C900 0.950 . S
H890 C902 0.950 . S
H891 C903 0.950 . S
C892 H884 0.950 . S
C892 C893 1.386 . S
C892 C894 1.391 . S
C893 C892 1.386 . S
C893 C897 1.393 . S
C894 H886 0.950 . S
C894 C892 1.391 . S
C894 C895 1.400 . S
C895 C894 1.400 . S
C895 C896 1.398 . S
C895 C901 1.491 . S
C896 H887 0.950 . S
C896 C895 1.398 . S
C896 C897 1.391 . S
C897 H885 0.950 . S
C897 C893 1.393 . S
C897 C896 1.391 . S
C898 H888 0.950 . S
C898 C899 1.386 . S
C898 C900 1.391 . S
C899 C898 1.386 . S
C899 C903 1.393 . S
C900 H889 0.950 . S
C900 C898 1.391 . S
C900 C901 1.400 . S
C901 C895 1.491 . S
C901 C900 1.400 . S
C901 C902 1.398 . S
C902 H890 0.950 . S
C902 C901 1.398 . S
C902 C903 1.391 . S
C903 H891 0.950 . S
C903 C899 1.393 . S
C903 C902 1.391 . S
H904 C912 0.950 . S
H905 C917 0.950 . S
H906 C914 0.950 . S
H907 C916 0.950 . S
H908 C918 0.950 . S
H909 C920 0.950 . S
H910 C922 0.950 . S
H911 C923 0.950 . S
C912 H904 0.950 . S
C912 C913 1.386 . S
C912 C914 1.391 . S
C913 C912 1.386 . S
C913 C917 1.393 . S
C914 H906 0.950 . S
C914 C912 1.391 . S
C914 C915 1.400 . S
C915 C914 1.400 . S
C915 C916 1.398 . S
C915 C921 1.491 . S
C916 H907 0.950 . S
C916 C915 1.398 . S
C916 C917 1.391 . S
C917 H905 0.950 . S
C917 C913 1.393 . S
C917 C916 1.391 . S
C918 H908 0.950 . S
C918 C919 1.386 . S
C918 C920 1.391 . S
C919 C918 1.386 . S
C919 C923 1.393 . S
C920 H909 0.950 . S
C920 C918 1.391 . S
C920 C921 1.400 . S
C921 C915 1.491 . S
C921 C920 1.400 . S
C921 C922 1.398 . S
C922 H910 0.950 . S
C922 C921 1.398 . S
C922 C923 1.391 . S
C923 H911 0.950 . S
C923 C919 1.393 . S
C923 C922 1.391 . S
H924 C932 0.950 . S
H925 C937 0.950 . S
H926 C934 0.950 . S
H927 C936 0.950 . S
H928 C938 0.950 . S
H929 C940 0.950 . S
H930 C942 0.950 . S
H931 C943 0.950 . S
C932 H924 0.950 . S
C932 C933 1.386 . S
C932 C934 1.391 . S
C933 C932 1.386 . S
C933 C937 1.393 . S
C934 H926 0.950 . S
C934 C932 1.391 . S
C934 C935 1.400 . S
C935 C934 1.400 . S
C935 C936 1.398 . S
C935 C941 1.491 . S
C936 H927 0.950 . S
C936 C935 1.398 . S
C936 C937 1.391 . S
C937 H925 0.950 . S
C937 C933 1.393 . S
C937 C936 1.391 . S
C938 H928 0.950 . S
C938 C939 1.386 . S
C938 C940 1.391 . S
C939 C938 1.386 . S
C939 C943 1.393 . S
C940 H929 0.950 . S
C940 C938 1.391 . S
C940 C941 1.400 . S
C941 C935 1.491 . S
C941 C940 1.400 . S
C941 C942 1.398 . S
C942 H930 0.950 . S
C942 C941 1.398 . S
C942 C943 1.391 . S
C943 H931 0.950 . S
C943 C939 1.393 . S
C943 C942 1.391 . S
H944 C952 0.950 . S
H945 C957 0.950 . S
H946 C954 0.950 . S
H947 C956 0.950 . S
H948 C958 0.937 1_554 S
H949 C960 0.950 . S
H950 C962 0.950 . S
H951 C963 0.942 1_554 S
C952 H944 0.950 . S
C952 C953 1.386 . S
C952 C954 1.391 . S
C953 C952 1.386 . S
C953 C957 1.393 . S
C954 H946 0.950 . S
C954 C952 1.391 . S
C954 C955 1.400 . S
C955 C954 1.400 . S
C955 C956 1.398 . S
C955 C961 1.491 . S
C956 H947 0.950 . S
C956 C955 1.398 . S
C956 C957 1.391 . S
C957 H945 0.950 . S
C957 C953 1.393 . S
C957 C956 1.391 . S
C958 H948 0.937 1_556 S
C958 C959 1.373 1_556 S
C958 C960 1.417 . S
C959 C958 1.373 1_554 S
C959 C963 1.385 1_554 S
C960 H949 0.950 . S
C960 C958 1.417 . S
C960 C961 1.400 . S
C961 C955 1.491 . S
C961 C960 1.400 . S
C961 C962 1.398 . S
C962 H950 0.950 . S
C962 C961 1.398 . S
C962 C963 1.406 . S
C963 H951 0.942 1_556 S
C963 C959 1.385 1_556 S
C963 C962 1.406 . S
H964 C972 0.950 1_556 S
H965 C977 0.959 . S
H966 C974 0.950 . S
H967 C976 0.950 . S
H968 C978 0.950 . S
H969 C980 0.950 . S
H970 C982 0.950 . S
H971 C983 0.950 . S
C972 H964 0.950 1_554 S
C972 C973 1.386 1_554 S
C972 C974 1.391 . S
C973 C972 1.386 1_556 S
C973 C977 1.401 . S
C974 H966 0.950 . S
C974 C972 1.391 . S
C974 C975 1.400 . S
C975 C974 1.400 . S
C975 C976 1.398 . S
C975 C981 1.491 . S
C976 H967 0.950 . S
C976 C975 1.398 . S
C976 C977 1.373 1_554 S
C977 H965 0.959 . S
C977 C973 1.401 . S
C977 C976 1.373 1_556 S
C978 H968 0.950 . S
C978 C979 1.386 . S
C978 C980 1.391 . S
C979 C978 1.386 . S
C979 C983 1.393 . S
C980 H969 0.950 . S
C980 C978 1.391 . S
C980 C981 1.400 . S
C981 C975 1.491 . S
C981 C980 1.400 . S
C981 C982 1.398 . S
C982 H970 0.950 . S
C982 C981 1.398 . S
C982 C983 1.391 . S
C983 H971 0.950 . S
C983 C979 1.393 . S
C983 C982 1.391 . S
C273 C15 1.539 . S
C279 C183 1.549 . S
C293 C213 1.545 . S
C299 C43 1.545 . S
C313 C235 1.549 . S
C319 C59 1.537 . S
C333 C81 1.539 . S
C339 C249 1.549 . S
C353 C153 1.549 . S
C359 C103 1.537 . S
C373 C169 1.536 . S
C379 C125 1.531 . S
C393 C18 0.898 . S
C399 C216 0.918 . S
C413 C32 0.893 . S
C419 C238 0.914 . S
C433 C250 0.923 . S
C439 C62 0.914 . S
C453 C142 0.893 . S
C459 C84 0.888 . S
C473 C106 0.906 . S
C479 C172 0.888 . S
C493 C128 0.897 . S
C499 C184 0.887 . S
C513 C140 1.401 . S
C519 C10 1.398 . S
C533 C164 1.404 . S
C539 C30 1.397 . S
C553 C194 1.400 . S
C559 C54 1.400 . S
C573 C76 1.398 . S
C579 C208 1.402 . S
C593 C98 1.409 . S
C599 C230 1.398 . S
C613 C120 1.398 . S
C619 C260 1.402 . S
C633 C8 1.431 . S
C639 C131 1.492 . S
C653 C40 1.444 . S
C659 C21 1.502 . S
C673 C52 1.432 . S
C679 C29 1.497 . S
C693 C65 1.498 . S
C699 C74 1.432 . S
C713 C96 1.440 . S
C719 C87 1.483 . S
C733 C118 1.452 . S
C739 C109 1.501 . S
C753 C175 1.496 . S
C759 C150 1.431 . S
C773 C191 1.482 . S
C779 C162 1.446 . S
C793 C219 1.496 . S
C799 C186 1.431 . S
C813 C206 1.438 . S
C819 C241 1.501 . S
C833 C228 1.458 . S
C839 C257 1.497 . S
C853 C252 1.432 . S
C859 C139 1.498 . S
C873 C227 0.650 . S
C879 C7 0.646 . S
C893 C263 0.663 . S
C899 C37 0.663 . S
C913 C147 0.651 . S
C919 C51 0.655 . S
C933 C161 0.633 . S
C939 C73 0.629 . S
C953 C95 0.619 . S
C959 C197 0.618 . S
C973 C117 0.645 . S
C979 C205 0.640 . S
