# Generated by pormake.
# Topology svh, (7)-cn, num edge types: 1
# Building blocks:
#     Node 0, Type 0, BuildingBlock: HICVOG_clean_sbu_0, # of connection points: 7
#     Node 1, Type 0, BuildingBlock: HICVOG_clean_sbu_0, # of connection points: 7
#     Node 2, Type 0, BuildingBlock: HICVOG_clean_sbu_0, # of connection points: 7
#     Node 3, Type 0, BuildingBlock: HICVOG_clean_sbu_0, # of connection points: 7
#     Node 4, Type 0, BuildingBlock: HICVOG_clean_sbu_0, # of connection points: 7
#     Node 5, Type 0, BuildingBlock: HICVOG_clean_sbu_0, # of connection points: 7
#     Node 6, Type 0, BuildingBlock: HICVOG_clean_sbu_0, # of connection points: 7
#     Node 7, Type 0, BuildingBlock: HICVOG_clean_sbu_0, # of connection points: 7
#     Edge 8, Type (0, 0), BuildingBlock: MIFKUJ_clean_linker_0, # of connection points: 2
#     Edge 9, Type (0, 0), BuildingBlock: MIFKUJ_clean_linker_0, # of connection points: 2
#     Edge 10, Type (0, 0), BuildingBlock: MIFKUJ_clean_linker_0, # of connection points: 2
#     Edge 11, Type (0, 0), BuildingBlock: MIFKUJ_clean_linker_0, # of connection points: 2
#     Edge 12, Type (0, 0), BuildingBlock: MIFKUJ_clean_linker_0, # of connection points: 2
#     Edge 13, Type (0, 0), BuildingBlock: MIFKUJ_clean_linker_0, # of connection points: 2
#     Edge 14, Type (0, 0), BuildingBlock: MIFKUJ_clean_linker_0, # of connection points: 2
#     Edge 15, Type (0, 0), BuildingBlock: MIFKUJ_clean_linker_0, # of connection points: 2
#     Edge 16, Type (0, 0), BuildingBlock: MIFKUJ_clean_linker_0, # of connection points: 2
#     Edge 17, Type (0, 0), BuildingBlock: MIFKUJ_clean_linker_0, # of connection points: 2
#     Edge 18, Type (0, 0), BuildingBlock: MIFKUJ_clean_linker_0, # of connection points: 2
#     Edge 19, Type (0, 0), BuildingBlock: MIFKUJ_clean_linker_0, # of connection points: 2
#     Edge 20, Type (0, 0), BuildingBlock: MIFKUJ_clean_linker_0, # of connection points: 2
#     Edge 21, Type (0, 0), BuildingBlock: MIFKUJ_clean_linker_0, # of connection points: 2
#     Edge 22, Type (0, 0), BuildingBlock: MIFKUJ_clean_linker_0, # of connection points: 2
#     Edge 23, Type (0, 0), BuildingBlock: MIFKUJ_clean_linker_0, # of connection points: 2
#     Edge 24, Type (0, 0), BuildingBlock: MIFKUJ_clean_linker_0, # of connection points: 2
#     Edge 25, Type (0, 0), BuildingBlock: MIFKUJ_clean_linker_0, # of connection points: 2
#     Edge 26, Type (0, 0), BuildingBlock: MIFKUJ_clean_linker_0, # of connection points: 2
#     Edge 27, Type (0, 0), BuildingBlock: MIFKUJ_clean_linker_0, # of connection points: 2
#     Edge 28, Type (0, 0), BuildingBlock: MIFKUJ_clean_linker_0, # of connection points: 2
#     Edge 29, Type (0, 0), BuildingBlock: MIFKUJ_clean_linker_0, # of connection points: 2
#     Edge 30, Type (0, 0), BuildingBlock: MIFKUJ_clean_linker_0, # of connection points: 2
#     Edge 31, Type (0, 0), BuildingBlock: MIFKUJ_clean_linker_0, # of connection points: 2
#     Edge 32, Type (0, 0), BuildingBlock: MIFKUJ_clean_linker_0, # of connection points: 2
#     Edge 33, Type (0, 0), BuildingBlock: MIFKUJ_clean_linker_0, # of connection points: 2
#     Edge 34, Type (0, 0), BuildingBlock: MIFKUJ_clean_linker_0, # of connection points: 2
#     Edge 35, Type (0, 0), BuildingBlock: MIFKUJ_clean_linker_0, # of connection points: 2
# Relax obj value: 0.254
# Max RMSD: 0.245
# Mean RMSD: 0.245
data_MOF--net-svh--node1-HICVOG_clean_sbu_0--edge1-MIFKUJ_clean_linker_0
_symmetry_space_group_name_H-M    P1
_symmetry_Int_Tables_number       1
_symmetry_cell_setting            triclinic
loop_
_symmetry_equiv_pos_as_xyz
'x, y, z'
_cell_length_a     23.046101
_cell_length_b     23.128603
_cell_length_c     136.08057
_cell_angle_alpha  90.311939
_cell_angle_beta   90.23118
_cell_angle_gamma 90.091149
loop_
_atom_site_label
_atom_site_type_symbol
_atom_site_fract_x
_atom_site_fract_y
_atom_site_fract_z
_atom_type_partial_charge
Zn0 Zn 0.02038 0.78114 0.0754 0.0
C1 C 0.89936 0.68515 0.06163 0.0
N2 N 0.89066 0.73292 0.05624 0.0
C3 C 0.92547 0.77229 0.06054 0.0
N4 N 0.95426 0.74963 0.06831 0.0
N5 N 0.93736 0.6949 0.06906 0.0
C6 C 1.00627 0.52768 0.0763 0.0
O7 O 0.05574 0.55383 0.07819 0.0
O8 O 0.02358 0.86989 0.07474 0.0
Zn9 Zn 0.95441 0.64297 0.08017 0.0
N10 N 0.08921 0.74847 0.0692 0.0
C11 C 0.12852 0.6967 0.05559 0.0
C12 C 0.08103 0.71831 0.06068 0.0
C13 C 0.14352 0.75638 0.07299 0.0
N14 N 0.18258 0.70557 0.05923 0.0
C15 C 0.19167 0.73456 0.06783 0.0
O16 O 0.02438 0.66472 0.08886 0.0
C17 C 0.02801 0.71132 0.09389 0.0
O18 O 0.01953 0.76014 0.08985 0.0
H19 H 0.03805 0.71193 0.0577 0.0
H20 H 0.14912 0.78042 0.07977 0.0
C21 C 0.83547 0.66389 0.08649 0.0
C22 C 0.79088 0.66587 0.09357 0.0
C23 C 0.85802 0.63305 0.10563 0.0
C24 C 0.90147 0.63074 0.09859 0.0
N25 N 0.88973 0.64686 0.08921 0.0
N26 N 0.80409 0.65037 0.10297 0.0
H27 H 0.82746 0.67432 0.07889 0.0
C28 C 0.9797 0.90176 0.07648 0.0
O29 O 0.93018 0.87701 0.07873 0.0
O30 O 0.95966 0.55727 0.07631 0.0
H31 H 0.94429 0.61581 0.10056 0.0
H32 H 0.12254 0.67332 0.04875 0.0
H33 H 0.86689 0.62071 0.11315 0.0
Zn34 Zn 0.46929 0.83375 0.32686 0.0
C35 C 0.55613 0.72128 0.31 0.0
N36 N 0.50559 0.71875 0.30502 0.0
C37 C 0.46917 0.74929 0.31069 0.0
N38 N 0.49613 0.77013 0.31879 0.0
N39 N 0.55067 0.75177 0.31849 0.0
C40 C 0.72 0.78371 0.32815 0.0
O41 O 0.69506 0.83394 0.32972 0.0
O42 O 0.37914 0.83713 0.32641 0.0
Zn43 Zn 0.59957 0.74579 0.33033 0.0
N44 N 0.50648 0.9024 0.32135 0.0
C45 C 0.56358 0.94044 0.30835 0.0
C46 C 0.53345 0.89506 0.31254 0.0
C47 C 0.51034 0.95377 0.3263 0.0
N48 N 0.56724 0.99138 0.31321 0.0
C49 C 0.54196 0.99988 0.32213 0.0
O50 O 0.58847 0.80837 0.34096 0.0
C51 C 0.54276 0.82387 0.34555 0.0
O52 O 0.49401 0.82845 0.34115 0.0
H53 H 0.53186 0.85429 0.3087 0.0
H54 H 0.48925 0.95819 0.33335 0.0
C55 C 0.60107 0.62729 0.33833 0.0
C56 C 0.5756 0.58246 0.34383 0.0
C57 C 0.49202 0.64033 0.34628 0.0
C58 C 0.51644 0.68363 0.3406 0.0
N59 N 0.57098 0.67732 0.33698 0.0
N60 N 0.522 0.59086 0.34774 0.0
H61 H 0.64389 0.62254 0.33519 0.0
C62 C 0.34997 0.79101 0.32794 0.0
O63 O 0.37832 0.74304 0.32981 0.0
O64 O 0.68798 0.73861 0.32771 0.0
H65 H 0.49191 0.72213 0.33909 0.0
H66 H 0.58439 0.93512 0.30132 0.0
H67 H 0.44911 0.64547 0.34935 0.0
Zn68 Zn 0.51891 0.33701 0.57439 0.0
C69 C 0.40136 0.23611 0.56128 0.0
N70 N 0.39455 0.282 0.55537 0.0
C71 C 0.42631 0.32324 0.55983 0.0
N72 N 0.45234 0.3032 0.56802 0.0
N73 N 0.43621 0.24861 0.56901 0.0
C74 C 0.48316 0.07744 0.58195 0.0
O75 O 0.49533 0.0958 0.59087 0.0
O76 O 0.51666 0.42469 0.57263 0.0
Zn77 Zn 0.45353 0.19787 0.58009 0.0
N78 N 0.58735 0.30632 0.56782 0.0
C79 C 0.62527 0.25435 0.55412 0.0
C80 C 0.57829 0.27408 0.55956 0.0
C81 C 0.6422 0.31781 0.57108 0.0
N82 N 0.6798 0.26651 0.55726 0.0
C83 C 0.68991 0.29731 0.56564 0.0
O84 O 0.51979 0.22295 0.58936 0.0
C85 C 0.52653 0.27173 0.59365 0.0
O86 O 0.52125 0.31886 0.58894 0.0
H87 H 0.53495 0.26392 0.55711 0.0
H88 H 0.64848 0.34329 0.57769 0.0
C89 C 0.3322 0.21262 0.58526 0.0
C90 C 0.2855 0.21611 0.59191 0.0
C91 C 0.34961 0.18934 0.60485 0.0
C92 C 0.39544 0.18674 0.59826 0.0
N93 N 0.38608 0.19853 0.58861 0.0
N94 N 0.2961 0.20405 0.60155 0.0
H95 H 0.3263 0.22056 0.57752 0.0
C96 C 0.50222 0.45848 0.57962 0.0
O97 O 0.48897 0.43624 0.58819 0.0
O98 O 0.46576 0.11397 0.57562 0.0
H99 H 0.43832 0.17572 0.60084 0.0
H100 H 0.61849 0.22937 0.54747 0.0
H101 H 0.35651 0.18018 0.61255 0.0
Zn102 Zn 0.94745 0.28363 0.82868 0.0
C103 C 0.07746 0.28906 0.80857 0.0
N104 N 0.03696 0.31927 0.80363 0.0
C105 C 0.99115 0.31852 0.80967 0.0
N106 N 1.00327 0.28985 0.81801 0.0
N107 N 0.0573 0.27033 0.81735 0.0
C108 C 0.21197 0.24839 0.82458 0.0
O109 O 0.18912 0.30031 0.82411 0.0
O110 O 0.87048 0.2461 0.82454 0.0
Zn111 Zn 0.0892 0.21067 0.82603 0.0
N112 N 0.92322 0.36121 0.83198 0.0
C113 C 0.85033 0.41974 0.8393 0.0
C114 C 0.87069 0.36576 0.83642 0.0
C115 C 0.95673 0.40872 0.83034 0.0
N116 N 0.88358 0.46709 0.83769 0.0
C117 C 0.93644 0.46352 0.83328 0.0
O118 O 0.06988 0.22121 0.84061 0.0
C119 C 0.02565 0.23549 0.84568 0.0
O120 O 0.9797 0.25484 0.84164 0.0
H121 H 0.84503 0.32759 0.83782 0.0
H122 H 0.99893 0.40346 0.82701 0.0
C123 C 0.08098 0.08749 0.82117 0.0
C124 C 0.05129 0.03901 0.81736 0.0
C125 C 0.96695 0.09632 0.81518 0.0
C126 C 0.99611 0.14388 0.81906 0.0
N127 N 0.05274 0.13911 0.82178 0.0
N128 N 0.99512 0.0452 0.81442 0.0
H129 H 0.12584 0.08447 0.82349 0.0
C130 C 0.83926 0.21327 0.82985 0.0
O131 O 0.86124 0.19219 0.83799 0.0
O132 O 0.17839 0.20468 0.8252 0.0
H133 H 0.97366 0.18443 0.81984 0.0
H134 H 0.8086 0.42404 0.84284 0.0
H135 H 0.92212 0.09981 0.81287 0.0
Zn136 Zn 0.9585 0.32552 0.96822 0.0
C137 C 0.94904 0.19174 0.98748 0.0
N138 N 0.91528 0.22857 0.99251 0.0
C139 C 0.91644 0.27659 0.98701 0.0
N140 N 0.95007 0.2698 0.97894 0.0
N141 N 0.97051 0.21612 0.97927 0.0
C142 C 0.04362 0.05999 0.96558 0.0
O143 O 0.06147 0.0828 0.9573 0.0
O144 O 0.98868 0.40591 0.97228 0.0
Zn145 Zn 0.03375 0.18266 0.97173 0.0
N146 N 0.88184 0.34264 0.96345 0.0
C147 C 0.82273 0.40484 0.95383 0.0
C148 C 0.87632 0.39116 0.95794 0.0
C149 C 0.83595 0.30689 0.96501 0.0
N150 N 0.7768 0.36941 0.95541 0.0
C151 C 0.7816 0.32067 0.96093 0.0
O152 O 0.03516 0.20587 0.95726 0.0
C153 C 0.02171 0.24981 0.9521 0.0
O154 O 0.99684 0.29374 0.95589 0.0
H155 H 0.91356 0.41856 0.95665 0.0
H156 H 0.84224 0.26776 0.96919 0.0
C157 C 0.15697 0.1856 0.97527 0.0
C158 C 0.20706 0.20077 0.98061 0.0
C159 C 0.15029 0.25973 0.99113 0.0
C160 C 0.10081 0.24508 0.98578 0.0
N161 N 0.1048 0.2075 0.97808 0.0
N162 N 0.20213 0.23719 0.98845 0.0
H163 H 0.15916 0.15605 0.96909 0.0
C164 C 0.02863 0.43494 0.96812 0.0
O165 O 0.06069 0.40984 0.96138 0.0
O166 O 0.02945 0.09361 0.97263 0.0
H167 H 0.05945 0.26293 0.9879 0.0
H168 H 0.81763 0.44319 0.9494 0.0
H169 H 0.1476 0.28884 0.99736 0.0
Zn170 Zn 0.96944 0.70447 0.21883 0.0
C171 C 0.06817 0.81068 0.23514 0.0
N172 N 0.02271 0.80959 0.2413 0.0
C173 C 0.98163 0.78125 0.23615 0.0
N174 N 1.00131 0.76457 0.22725 0.0
N175 N 0.0553 0.78395 0.22656 0.0
C176 C 0.22167 0.72608 0.21755 0.0
O177 O 0.19476 0.67743 0.21544 0.0
O178 O 0.88125 0.69976 0.22035 0.0
Zn179 Zn 0.10506 0.77735 0.215 0.0
N180 N 1.0056 0.63239 0.2229 0.0
C181 C 0.0901 0.58879 0.22969 0.0
C182 C 0.06108 0.6372 0.22624 0.0
C183 C 0.9784 0.57998 0.22255 0.0
N184 N 0.06314 0.53678 0.2294 0.0
C185 C 1.00816 0.5304 0.22585 0.0
O186 O 0.08395 0.71293 0.20522 0.0
C187 C 0.03718 0.71192 0.20017 0.0
O188 O 0.98805 0.71712 0.20437 0.0
H189 H 0.08294 0.67832 0.2262 0.0
H190 H 0.9344 0.57718 0.21978 0.0
C191 C 0.06925 0.89579 0.21073 0.0
C192 C 0.06161 0.94305 0.20436 0.0
C193 C 0.10771 0.88986 0.19162 0.0
C194 C 0.11555 0.84352 0.19796 0.0
N195 N 0.0957 0.847 0.20733 0.0
N196 N 0.08093 0.93827 0.19495 0.0
H197 H 0.05346 0.89723 0.2182 0.0
C198 C 0.85004 0.74249 0.21776 0.0
O199 O 0.87581 0.78884 0.21432 0.0
O200 O 0.19204 0.7724 0.21829 0.0
H201 H 0.13677 0.8046 0.19541 0.0
H202 H 0.13405 0.59231 0.23246 0.0
H203 H 0.12274 0.88743 0.18411 0.0
Zn204 Zn 0.46028 0.87604 0.46709 0.0
C205 C 0.43679 0.74283 0.48606 0.0
N206 N 0.40358 0.78158 0.49078 0.0
C207 C 0.40884 0.82931 0.48528 0.0
N208 N 0.44394 0.82026 0.4775 0.0
N209 N 0.46177 0.76589 0.47802 0.0
C210 C 0.49107 0.61212 0.47048 0.0
O211 O 0.44159 0.63348 0.46734 0.0
O212 O 0.4788 0.95773 0.4722 0.0
Zn213 Zn 0.52754 0.73515 0.47094 0.0
N214 N 0.38928 0.88717 0.45981 0.0
C215 C 0.34457 0.93577 0.44643 0.0
C216 C 0.393 0.92535 0.45229 0.0
C217 C 0.33883 0.85883 0.46176 0.0
N218 N 0.2943 0.90745 0.44832 0.0
C219 C 0.28971 0.86921 0.45585 0.0
O220 O 0.52529 0.7551 0.45637 0.0
C221 C 0.52738 0.80332 0.45187 0.0
O222 O 0.51639 0.85109 0.45622 0.0
H223 H 0.43355 0.94733 0.45085 0.0
H224 H 0.33732 0.82806 0.4677 0.0
C225 C 0.65059 0.75522 0.47365 0.0
C226 C 0.69955 0.77907 0.47842 0.0
C227 C 0.63732 0.82989 0.4893 0.0
C228 C 0.58917 0.80647 0.48455 0.0
N229 N 0.5965 0.76926 0.47688 0.0
N230 N 0.69114 0.81563 0.48615 0.0
H231 H 0.65515 0.72514 0.46759 0.0
C232 C 0.52016 0.98928 0.46911 0.0
O233 O 0.55774 0.96696 0.46293 0.0
O234 O 0.53286 0.64661 0.4724 0.0
H235 H 0.54635 0.8176 0.48708 0.0
H236 H 0.34676 0.96625 0.44045 0.0
H237 H 0.63203 0.85917 0.49546 0.0
Zn238 Zn 0.45512 0.22406 0.71671 0.0
C239 C 0.58832 0.22972 0.73633 0.0
N240 N 0.55128 0.20055 0.74207 0.0
C241 C 0.50308 0.19678 0.7365 0.0
N242 N 0.51039 0.22267 0.72769 0.0
N243 N 0.56386 0.24381 0.72767 0.0
C244 C 0.71542 0.26527 0.71976 0.0
O245 O 0.69167 0.21476 0.71783 0.0
O246 O 0.37073 0.24049 0.72067 0.0
Zn247 Zn 0.59353 0.30362 0.71923 0.0
N248 N 0.45174 0.14723 0.71127 0.0
C249 C 0.41363 0.08983 0.6982 0.0
C250 C 0.41494 0.14143 0.7035 0.0
C251 C 0.48696 0.1031 0.7141 0.0
N252 N 0.44933 0.0461 0.70089 0.0
C253 C 0.48595 0.0511 0.70872 0.0
O254 O 0.57249 0.29316 0.70484 0.0
C255 C 0.52526 0.28503 0.7001 0.0
O256 O 0.47886 0.26869 0.70439 0.0
H257 H 0.38792 0.17736 0.70131 0.0
H258 H 0.51667 0.10906 0.7202 0.0
C259 C 0.58719 0.42631 0.72331 0.0
C260 C 0.56076 0.47629 0.72716 0.0
C261 C 0.47936 0.42006 0.73189 0.0
C262 C 0.50512 0.37104 0.72789 0.0
N263 N 0.5588 0.37478 0.72383 0.0
N264 N 0.50762 0.47137 0.73142 0.0
H265 H 0.6298 0.42805 0.72001 0.0
C266 C 0.34211 0.28734 0.71991 0.0
O267 O 0.36852 0.33397 0.71673 0.0
O268 O 0.68254 0.3093 0.72062 0.0
H269 H 0.48252 0.33026 0.7281 0.0
H270 H 0.38501 0.08475 0.69194 0.0
H271 H 0.43697 0.41752 0.73525 0.0
H272 H 0.94772 0.7168 0.18681 0.0
H273 H 0.95327 0.7121 0.1689 0.0
H274 H 0.13867 0.68938 0.17074 0.0
H275 H 0.13359 0.69492 0.18868 0.0
H276 H 0.11526 0.76331 0.15674 0.0
H277 H 0.04698 0.57543 0.16488 0.0
H278 H 0.98404 0.50322 0.1728 0.0
H279 H 0.83654 0.56891 0.15707 0.0
H280 H 0.89851 0.64202 0.14914 0.0
H281 H 0.05424 0.61626 0.10517 0.0
H282 H 0.06365 0.61155 0.12308 0.0
H283 H 0.03376 0.7952 0.12511 0.0
H284 H 0.02481 0.80036 0.10727 0.0
H285 H 0.98854 0.63238 0.13717 0.0
H286 H 0.10376 0.85223 0.14487 0.0
H287 H 0.17554 0.9161 0.13701 0.0
H288 H 0.24514 0.77152 0.12105 0.0
H289 H 0.17431 0.70664 0.12891 0.0
C290 C 0.98971 0.71036 0.18343 0.0
C291 C 0.04016 0.70598 0.18925 0.0
C292 C 0.99281 0.70755 0.17315 0.0
C293 C 0.04635 0.69977 0.1684 0.0
C294 C 0.0968 0.69541 0.17419 0.0
C295 C 0.09376 0.69831 0.18447 0.0
C296 C 0.04968 0.69701 0.15741 0.0
C297 C 0.08753 0.73463 0.15247 0.0
C298 C 0.01473 0.65862 0.15177 0.0
C299 C 0.97732 0.61452 0.15647 0.0
C300 C 1.00105 0.57473 0.16316 0.0
C301 C 0.96557 0.5336 0.16764 0.0
C302 C 0.9063 0.53157 0.16546 0.0
C303 C 0.88245 0.57057 0.15876 0.0
C304 C 0.91775 0.61182 0.15426 0.0
C305 C 0.05021 0.65579 0.10941 0.0
C306 C 0.03871 0.7087 0.10472 0.0
C307 C 0.05538 0.65297 0.11968 0.0
C308 C 0.04977 0.70303 0.12552 0.0
C309 C 0.03919 0.75601 0.12083 0.0
C310 C 0.03397 0.75886 0.11057 0.0
C311 C 0.05301 0.69976 0.1365 0.0
C312 C 0.01636 0.661 0.14143 0.0
C313 C 0.09018 0.73604 0.14213 0.0
C314 C 0.13329 0.77468 0.13742 0.0
C315 C 0.1345 0.83402 0.13971 0.0
C316 C 0.17501 0.8704 0.13525 0.0
C317 C 0.21474 0.8479 0.12852 0.0
C318 C 0.21417 0.78892 0.12624 0.0
C319 C 0.17379 0.75234 0.13069 0.0
H320 H 0.24603 0.87615 0.12507 0.0
H321 H 0.87889 0.49971 0.16894 0.0
H322 H 0.63815 0.82023 0.35779 0.0
H323 H 0.63941 0.81897 0.37576 0.0
H324 H 0.45306 0.83585 0.3761 0.0
H325 H 0.45161 0.83887 0.35819 0.0
H326 H 0.49354 0.89658 0.39029 0.0
H327 H 0.52263 0.70407 0.37939 0.0
H328 H 0.56825 0.62515 0.36995 0.0
H329 H 0.72914 0.65405 0.38524 0.0
H330 H 0.68475 0.73395 0.39465 0.0
H331 H 0.51674 0.71391 0.4386 0.0
H332 H 0.52251 0.71875 0.42068 0.0
H333 H 0.5699 0.89898 0.42272 0.0
H334 H 0.56144 0.89501 0.44058 0.0
H335 H 0.59589 0.73679 0.40723 0.0
H336 H 0.52031 0.97594 0.40428 0.0
H337 H 0.45691 0.04442 0.41313 0.0
H338 H 0.35914 0.9026 0.42486 0.0
H339 H 0.42187 0.83346 0.41609 0.0
C340 C 0.59746 0.82446 0.36168 0.0
C341 C 0.54476 0.82953 0.35648 0.0
C342 C 0.5982 0.82327 0.37198 0.0
C343 C 0.54622 0.82624 0.37736 0.0
C344 C 0.49383 0.8334 0.37218 0.0
C345 C 0.49309 0.8351 0.36189 0.0
C346 C 0.54603 0.82049 0.38832 0.0
C347 C 0.51626 0.86178 0.39397 0.0
C348 C 0.57377 0.77398 0.3932 0.0
C349 C 0.60052 0.72543 0.38766 0.0
C350 C 0.56786 0.69387 0.3807 0.0
C351 C 0.59348 0.64894 0.37535 0.0
C352 C 0.65159 0.63468 0.37698 0.0
C353 C 0.68414 0.66522 0.38398 0.0
C354 C 0.65878 0.71034 0.38932 0.0
C355 C 0.52887 0.75449 0.43524 0.0
C356 C 0.53812 0.80419 0.44106 0.0
C357 C 0.53221 0.75722 0.42495 0.0
C358 C 0.54543 0.80956 0.42023 0.0
C359 C 0.55787 0.8584 0.42609 0.0
C360 C 0.55348 0.85598 0.43635 0.0
C361 C 0.54434 0.81363 0.40922 0.0
C362 C 0.57368 0.77191 0.40355 0.0
C363 C 0.51386 0.8582 0.40428 0.0
C364 C 0.47614 0.8996 0.40961 0.0
C365 C 0.48526 0.95945 0.40875 0.0
C366 C 0.44951 0.99837 0.41377 0.0
C367 C 0.4042 0.9779 0.41959 0.0
C368 C 0.39449 0.91846 0.42041 0.0
C369 C 0.43021 0.87939 0.41543 0.0
H370 H 0.3765 0.00811 0.42345 0.0
H371 H 0.67135 0.59988 0.37283 0.0
H372 H 0.54466 0.18118 0.60638 0.0
H373 H 0.54677 0.18455 0.62436 0.0
H374 H 0.53162 0.37023 0.62362 0.0
H375 H 0.52842 0.36726 0.60569 0.0
H376 H 0.61446 0.23233 0.63826 0.0
H377 H 0.44422 0.41512 0.64226 0.0
H378 H 0.36073 0.45466 0.63311 0.0
H379 H 0.33371 0.29017 0.61904 0.0
H380 H 0.41654 0.24941 0.62819 0.0
H381 H 0.61246 0.32446 0.68809 0.0
H382 H 0.61497 0.324 0.67012 0.0
H383 H 0.44186 0.25303 0.66925 0.0
H384 H 0.43846 0.25459 0.68717 0.0
H385 H 0.45112 0.32904 0.65535 0.0
H386 H 0.56533 0.16792 0.66569 0.0
H387 H 0.64293 0.11806 0.67483 0.0
H388 H 0.77145 0.22077 0.66023 0.0
H389 H 0.69451 0.27181 0.65109 0.0
C390 C 0.54224 0.22284 0.61002 0.0
C391 C 0.53569 0.27388 0.60452 0.0
C392 C 0.54361 0.22469 0.62033 0.0
C393 C 0.53835 0.27755 0.62539 0.0
C394 C 0.53467 0.32877 0.61992 0.0
C395 C 0.53323 0.32698 0.60963 0.0
C396 C 0.53453 0.27907 0.63637 0.0
C397 C 0.57886 0.2537 0.64199 0.0
C398 C 0.48741 0.30564 0.6413 0.0
C399 C 0.43698 0.32944 0.63585 0.0
C400 C 0.42033 0.38734 0.63724 0.0
C401 C 0.37316 0.40996 0.63205 0.0
C402 C 0.3421 0.37498 0.62547 0.0
C403 C 0.358 0.31724 0.6241 0.0
C404 C 0.40509 0.29439 0.62929 0.0
C405 C 0.57466 0.3092 0.68409 0.0
C406 C 0.52531 0.28943 0.68915 0.0
C407 C 0.57631 0.3086 0.67378 0.0
C408 C 0.52899 0.28753 0.66826 0.0
C409 C 0.47904 0.26943 0.67329 0.0
C410 C 0.47719 0.27035 0.68358 0.0
C411 C 0.53173 0.28338 0.65728 0.0
C412 C 0.48702 0.30808 0.65164 0.0
C413 C 0.57775 0.25487 0.65234 0.0
C414 C 0.62413 0.22406 0.65778 0.0
C415 C 0.61012 0.18014 0.66448 0.0
C416 C 0.65398 0.15163 0.66965 0.0
C417 C 0.71207 0.16634 0.66813 0.0
C418 C 0.72643 0.20948 0.66141 0.0
C419 C 0.68271 0.23818 0.65623 0.0
H420 H 0.74597 0.14422 0.67215 0.0
H421 H 0.30563 0.39259 0.62145 0.0
H422 H 0.97408 0.32168 0.93834 0.0
H423 H 0.97988 0.31427 0.92047 0.0
H424 H 0.09281 0.16682 0.92309 0.0
H425 H 0.08662 0.17325 0.94109 0.0
H426 H 0.12716 0.25322 0.9083 0.0
H427 H 0.96241 0.13811 0.91781 0.0
H428 H 0.87043 0.12033 0.92649 0.0
H429 H 0.78978 0.25905 0.91068 0.0
H430 H 0.88158 0.27822 0.90201 0.0
H431 H 0.104 0.17758 0.85741 0.0
H432 H 0.10765 0.17492 0.87539 0.0
H433 H 0.95819 0.28679 0.87674 0.0
H434 H 0.95289 0.28751 0.85886 0.0
H435 H 0.94546 0.21137 0.8899 0.0
H436 H 0.10602 0.3328 0.88117 0.0
H437 H 0.19715 0.35857 0.87281 0.0
H438 H 0.28466 0.2186 0.8872 0.0
H439 H 0.1938 0.19154 0.89556 0.0
C440 C 1.00071 0.28791 0.93517 0.0
C441 C 0.0298 0.24795 0.94122 0.0
C442 C 1.00379 0.28367 0.92492 0.0
C443 C 0.03646 0.23978 0.92042 0.0
C444 C 0.0673 0.20103 0.92639 0.0
C445 C 0.06359 0.20471 0.93669 0.0
C446 C 0.03627 0.23346 0.9095 0.0
C447 C 0.0877 0.24314 0.90426 0.0
C448 C 0.98449 0.22184 0.90421 0.0
C449 C 0.92903 0.20991 0.90932 0.0
C450 C 0.92519 0.1651 0.91624 0.0
C451 C 0.87306 0.15473 0.92115 0.0
C452 C 0.82433 0.18862 0.91916 0.0
C453 C 0.82758 0.23286 0.91223 0.0
C454 C 0.87963 0.24346 0.9073 0.0
C455 C 0.07184 0.2015 0.86154 0.0
C456 C 0.02818 0.23277 0.85664 0.0
C457 C 0.07418 0.20029 0.87186 0.0
C458 C 0.03375 0.23143 0.87754 0.0
C459 C 0.98994 0.26224 0.87262 0.0
C460 C 0.98702 0.2627 0.86234 0.0
C461 C 0.03638 0.23196 0.88857 0.0
C462 C 0.98524 0.22114 0.89387 0.0
C463 C 0.08829 0.24355 0.89389 0.0
C464 C 0.14297 0.25976 0.8889 0.0
C465 C 0.1446 0.30726 0.8825 0.0
C466 C 0.19621 0.32214 0.87777 0.0
C467 C 0.24662 0.29013 0.87945 0.0
C468 C 0.24555 0.24328 0.88589 0.0
C469 C 0.19402 0.22817 0.89063 0.0
H470 H 0.28654 0.30172 0.87579 0.0
H471 H 0.78401 0.18054 0.92297 0.0
H472 H 0.81105 0.29847 0.99468 0.0
H473 H 0.79068 0.3703 1.00747 0.0
H474 H 0.95863 0.44755 1.0028 0.0
H475 H 0.97974 0.37431 0.99026 0.0
H476 H 0.85537 0.3717 0.02415 0.0
H477 H 0.94654 0.59482 1.01067 0.0
H478 H 0.94155 0.65875 0.99624 0.0
H479 H 0.79111 0.56752 0.98572 0.0
H480 H 0.79439 0.50384 1.00016 0.0
H481 H 0.97081 0.59364 0.05842 0.0
H482 H 0.9549 0.51703 0.0462 0.0
H483 H 0.78108 0.57923 0.04133 0.0
H484 H 0.79563 0.65341 0.05401 0.0
H485 H 0.8726 0.58527 0.02488 0.0
H486 H 0.77261 0.46672 0.04714 0.0
H487 H 0.75187 0.40885 0.06183 0.0
H488 H 0.88933 0.29198 0.05435 0.0
H489 H 0.91313 0.35092 0.03983 0.0
C490 C 0.84243 0.33255 0.99605 0.0
C491 C 0.89633 0.33182 0.99126 0.0
C492 C 0.83106 0.37313 1.00345 0.0
C493 C 0.87325 0.41411 1.00617 0.0
C494 C 0.92512 0.41679 1.00077 0.0
C495 C 0.93676 0.37563 0.99343 0.0
C496 C 0.86648 0.44833 1.0154 0.0
C497 C 0.85925 0.41844 0.02431 0.0
C498 C 0.87013 0.50935 1.0156 0.0
C499 C 0.87108 0.54415 1.00647 0.0
C500 C 0.91259 0.58817 1.00525 0.0
C501 C 0.90991 0.62453 0.99709 0.0
C502 C 0.86582 0.61738 0.99011 0.0
C503 C 0.82514 0.57305 0.99115 0.0
C504 C 0.82753 0.53667 0.99931 0.0
C505 C 0.92776 0.58799 0.05534 0.0
C506 C 0.88376 0.62814 0.05745 0.0
C507 C 0.91907 0.54495 0.04818 0.0
C508 C 0.8668 0.54247 0.04286 0.0
C509 C 0.82153 0.58006 0.04542 0.0
C510 C 0.82975 0.62212 0.05271 0.0
C511 C 0.86335 0.50851 0.03359 0.0
C512 C 0.86923 0.53847 0.0247 0.0
C513 C 0.85689 0.44775 0.0334 0.0
C514 C 0.84547 0.41414 0.04247 0.0
C515 C 0.79965 0.42972 0.04875 0.0
C516 C 0.78718 0.39655 0.05704 0.0
C517 C 0.81953 0.34698 0.05904 0.0
C518 C 0.8647 0.33071 0.05281 0.0
C519 C 0.87789 0.36417 0.04458 0.0
H520 H 0.80947 0.32103 0.06541 0.0
H521 H 0.86303 0.64631 0.9839 0.0
H522 H 0.65826 0.78228 0.31049 0.0
H523 H 0.73559 0.77794 0.29826 0.0
H524 H 0.64643 0.63697 0.28369 0.0
H525 H 0.5741 0.63656 0.29663 0.0
H526 H 0.74594 0.62263 0.27919 0.0
H527 H 0.63058 0.79398 0.27783 0.0
H528 H 0.58628 0.8862 0.28305 0.0
H529 H 0.75554 0.95918 0.28791 0.0
H530 H 0.80069 0.86729 0.28277 0.0
H531 H 0.86876 0.81668 0.23551 0.0
H532 H 0.79284 0.79169 0.24737 0.0
H533 H 0.91045 0.67222 0.26138 0.0
H534 H 0.98417 0.69445 0.24915 0.0
H535 H 0.79253 0.81469 0.26528 0.0
H536 H 0.84411 0.57347 0.27509 0.0
H537 H 0.87126 0.48402 0.26629 0.0
H538 H 0.79741 0.55046 0.23963 0.0
H539 H 0.76906 0.63982 0.24827 0.0
C540 C 0.6577 0.74765 0.30513 0.0
C541 C 0.61098 0.70866 0.30474 0.0
C542 C 0.70078 0.74652 0.29785 0.0
C543 C 0.69613 0.70859 0.28973 0.0
C544 C 0.65159 0.66699 0.28977 0.0
C545 C 0.61002 0.66669 0.29723 0.0
C546 C 0.73414 0.71473 0.28084 0.0
C547 C 0.75607 0.66477 0.2762 0.0
C548 C 0.74607 0.76928 0.27655 0.0
C549 C 0.71897 0.82363 0.28004 0.0
C550 C 0.65827 0.82954 0.28011 0.0
C551 C 0.63303 0.8818 0.28301 0.0
C552 C 0.6681 0.92853 0.28579 0.0
C553 C 0.72844 0.92297 0.28575 0.0
C554 C 0.75387 0.87084 0.28285 0.0
C555 C 0.87699 0.78294 0.24082 0.0
C556 C 0.93145 0.75615 0.24126 0.0
C557 C 0.83407 0.76936 0.24771 0.0
C558 C 0.84556 0.72993 0.25534 0.0
C559 C 0.89953 0.70168 0.2555 0.0
C560 C 0.94179 0.71437 0.2485 0.0
C561 C 0.80415 0.72281 0.26368 0.0
C562 C 0.78213 0.77257 0.26827 0.0
C563 C 0.78918 0.668 0.26753 0.0
C564 C 0.80491 0.61362 0.26233 0.0
C565 C 0.83332 0.56885 0.26737 0.0
C566 C 0.849 0.51817 0.2624 0.0
C567 C 0.83624 0.51163 0.25241 0.0
C568 C 0.80746 0.55562 0.24737 0.0
C569 C 0.79161 0.60632 0.2523 0.0
H570 H 0.84859 0.47244 0.24857 0.0
H571 H 0.64855 0.96914 0.28796 0.0
H572 H 0.49833 0.32266 0.54436 0.0
H573 H 0.51583 0.4008 0.53283 0.0
H574 H 0.40917 0.51444 0.55033 0.0
H575 H 0.39248 0.43556 0.56209 0.0
H576 H 0.37516 0.51363 0.53168 0.0
H577 H 0.55582 0.55117 0.54748 0.0
H578 H 0.64702 0.5231 0.55572 0.0
H579 H 0.70497 0.44039 0.52919 0.0
H580 H 0.6134 0.4669 0.52089 0.0
H581 H 0.52157 0.74342 0.49961 0.0
H582 H 0.53404 0.67298 0.51269 0.0
H583 H 0.41247 0.55877 0.4981 0.0
H584 H 0.39559 0.63242 0.48554 0.0
H585 H 0.56348 0.57096 0.51706 0.0
H586 H 0.32502 0.49455 0.5142 0.0
H587 H 0.23203 0.5278 0.50719 0.0
H588 H 0.28846 0.70425 0.50977 0.0
H589 H 0.38118 0.6721 0.51704 0.0
C590 C 0.4809 0.36505 0.546 0.0
C591 C 0.44576 0.37389 0.55427 0.0
C592 C 0.49064 0.40966 0.53937 0.0
C593 C 0.46462 0.46384 0.54078 0.0
C594 C 0.43015 0.47312 0.54915 0.0
C595 C 0.42099 0.42841 0.55589 0.0
C596 C 0.46811 0.50763 0.53287 0.0
C597 C 0.41633 0.52669 0.52855 0.0
C598 C 0.52174 0.52518 0.52883 0.0
C599 C 0.57754 0.51035 0.53363 0.0
C600 C 0.5878 0.52642 0.54346 0.0
C601 C 0.63957 0.51092 0.54812 0.0
C602 C 0.68173 0.47983 0.54299 0.0
C603 C 0.67224 0.46441 0.53316 0.0
C604 C 0.62041 0.47971 0.52847 0.0
C605 C 0.49927 0.7023 0.499 0.0
C606 C 0.45876 0.69258 0.49145 0.0
C607 C 0.50619 0.66207 0.50652 0.0
C608 C 0.47299 0.61113 0.50656 0.0
C609 C 0.4373 0.59854 0.4984 0.0
C610 C 0.42857 0.63998 0.49109 0.0
C611 C 0.47032 0.57556 0.51564 0.0
C612 C 0.52225 0.55844 0.52022 0.0
C613 C 0.41664 0.56086 0.52007 0.0
C614 C 0.36013 0.58089 0.5161 0.0
C615 C 0.31731 0.54047 0.51336 0.0
C616 C 0.26469 0.55912 0.50935 0.0
C617 C 0.25435 0.61811 0.50804 0.0
C618 C 0.29648 0.6586 0.51081 0.0
C619 C 0.349 0.64021 0.5149 0.0
H620 H 0.21371 0.63244 0.50489 0.0
H621 H 0.7218 0.46779 0.54661 0.0
H622 H 0.93492 0.41594 0.8036 0.0
H623 H 0.85473 0.41816 0.79169 0.0
H624 H 0.84439 0.23195 0.79282 0.0
H625 H 0.91992 0.23066 0.80521 0.0
H626 H 0.86548 0.38192 0.77466 0.0
H627 H 0.76566 0.17627 0.78503 0.0
H628 H 0.70417 0.11945 0.79622 0.0
H629 H 0.61256 0.27348 0.80451 0.0
H630 H 0.67656 0.33174 0.79392 0.0
H631 H 0.69688 0.18791 0.73947 0.0
H632 H 0.76815 0.22765 0.75111 0.0
H633 H 0.65732 0.3747 0.75612 0.0
H634 H 0.58805 0.33684 0.74406 0.0
H635 H 0.68967 0.26027 0.77102 0.0
H636 H 0.7428 0.42851 0.75242 0.0
H637 H 0.78418 0.48118 0.73846 0.0
H638 H 0.95197 0.40973 0.74474 0.0
H639 H 0.91113 0.355 0.75856 0.0
C640 C 0.91267 0.37605 0.80173 0.0
C641 C 0.93233 0.32332 0.80551 0.0
C642 C 0.86731 0.37708 0.79482 0.0
C643 C 0.84221 0.32519 0.79133 0.0
C644 C 0.86006 0.2729 0.7956 0.0
C645 C 0.90395 0.2721 0.8027 0.0
C646 C 0.80628 0.32473 0.78215 0.0
C647 C 0.82656 0.35582 0.77394 0.0
C648 C 0.7556 0.29058 0.78101 0.0
C649 C 0.72762 0.25861 0.78906 0.0
C650 C 0.73425 0.19831 0.78961 0.0
C651 C 0.69886 0.16586 0.79581 0.0
C652 C 0.65507 0.19299 0.80118 0.0
C653 C 0.6474 0.25277 0.80051 0.0
C654 C 0.68407 0.2857 0.79459 0.0
C655 C 0.68974 0.23044 0.74261 0.0
C656 C 0.63799 0.2602 0.74072 0.0
C657 C 0.73052 0.25329 0.74921 0.0
C658 C 0.71911 0.30522 0.75425 0.0
C659 C 0.66848 0.33614 0.75199 0.0
C660 C 0.62869 0.31426 0.74515 0.0
C661 C 0.74926 0.31672 0.76367 0.0
C662 C 0.72812 0.28716 0.77184 0.0
C663 C 0.79865 0.35257 0.76471 0.0
C664 C 0.82314 0.38554 0.75633 0.0
C665 C 0.78803 0.42237 0.75066 0.0
C666 C 0.8116 0.45321 0.74282 0.0
C667 C 0.87059 0.44849 0.74066 0.0
C668 C 0.90621 0.41327 0.74639 0.0
C669 C 0.88278 0.38229 0.75424 0.0
H670 H 0.88876 0.47235 0.73458 0.0
H671 H 0.62658 0.16752 0.80572 0.0
H672 H 0.14507 0.35406 0.79703 0.0
H673 H 0.21418 0.32037 0.78472 0.0
H674 H 0.19667 0.14619 0.79541 0.0
H675 H 0.12523 0.1797 0.80757 0.0
H676 H 0.32041 0.19477 0.78962 0.0
H677 H 0.12484 0.16301 0.77791 0.0
H678 H 0.02358 0.19073 0.77445 0.0
H679 H 0.0824 0.3244 0.75512 0.0
H680 H 0.1841 0.29867 0.75867 0.0
H681 H 0.47092 0.10367 0.74724 0.0
H682 H 0.39363 0.10191 0.75958 0.0
H683 H 0.33595 0.2697 0.74993 0.0
H684 H 0.41334 0.27155 0.73776 0.0
H685 H 0.24493 0.2064 0.75546 0.0
H686 H 0.42934 0.26215 0.77024 0.0
H687 H 0.53333 0.25045 0.77422 0.0
H688 H 0.49793 0.08511 0.78712 0.0
H689 H 0.39401 0.09536 0.78295 0.0
C690 C 0.15715 0.3088 0.79696 0.0
C691 C 0.13039 0.26966 0.80338 0.0
C692 C 0.19637 0.28958 0.78988 0.0
C693 C 0.21 0.23075 0.78907 0.0
C694 C 0.18666 0.19184 0.79592 0.0
C695 C 0.14645 0.21109 0.80296 0.0
C696 C 0.24523 0.21055 0.7806 0.0
C697 C 0.3035 0.19569 0.78217 0.0
C698 C 0.22364 0.21383 0.77084 0.0
C699 C 0.16231 0.22942 0.7687 0.0
C700 C 0.1163 0.19889 0.77304 0.0
C701 C 0.05877 0.21419 0.77105 0.0
C702 C 0.04663 0.25961 0.76464 0.0
C703 C 0.09192 0.28949 0.76014 0.0
C704 C 0.14952 0.27458 0.76215 0.0
C705 C 0.44 0.13889 0.74748 0.0
C706 C 0.44668 0.18675 0.74128 0.0
C707 C 0.39642 0.1383 0.75463 0.0
C708 C 0.35943 0.18609 0.75581 0.0
C709 C 0.36361 0.23213 0.74915 0.0
C710 C 0.40722 0.23271 0.74203 0.0
C711 C 0.32024 0.19101 0.76446 0.0
C712 C 0.26138 0.20366 0.76292 0.0
C713 C 0.34146 0.18702 0.77423 0.0
C714 C 0.40405 0.17967 0.77638 0.0
C715 C 0.4439 0.2232 0.77388 0.0
C716 C 0.50279 0.21681 0.77614 0.0
C717 C 0.52221 0.16716 0.78095 0.0
C718 C 0.48284 0.12361 0.78342 0.0
C719 C 0.42397 0.12971 0.78112 0.0
H720 H 0.56776 0.16241 0.78274 0.0
H721 H 1.00214 0.27167 0.76316 0.0
H722 H 0.43065 0.85841 0.30613 0.0
H723 H 0.35698 0.87951 0.29382 0.0
H724 H 0.30385 0.70056 0.29395 0.0
H725 H 0.38041 0.67894 0.30582 0.0
H726 H 0.34406 0.73023 0.27676 0.0
H727 H 0.20068 0.82453 0.29895 0.0
H728 H 0.16903 0.8986 0.31092 0.0
H729 H 0.23891 0.03263 0.29285 0.0
H730 H 0.26925 0.95992 0.28058 0.0
H731 H 0.13354 0.72004 0.23997 0.0
H732 H 0.20248 0.71835 0.25332 0.0
H733 H 0.20425 0.90526 0.25402 0.0
H734 H 0.12886 0.90596 0.24126 0.0
H735 H 0.19528 0.88025 0.27079 0.0
H736 H 0.34171 0.80575 0.2497 0.0
H737 H 0.39228 0.74689 0.23742 0.0
H738 H 0.34133 0.59171 0.25229 0.0
H739 H 0.29224 0.65032 0.26499 0.0
C740 C 0.40208 0.82401 0.30383 0.0
C741 C 0.4119 0.76684 0.30684 0.0
C742 C 0.35929 0.83626 0.2968 0.0
C743 C 0.32497 0.79155 0.29284 0.0
C744 C 0.33002 0.7358 0.29682 0.0
C745 C 0.37359 0.72343 0.30365 0.0
C746 C 0.29431 0.79908 0.28327 0.0
C747 C 0.31047 0.76227 0.27553 0.0
C748 C 0.25417 0.84381 0.28135 0.0
C749 C 0.23766 0.88683 0.28891 0.0
C750 C 0.20968 0.86975 0.29757 0.0
C751 C 0.19183 0.91144 0.30439 0.0
C752 C 0.2026 0.97001 0.30273 0.0
C753 C 0.23075 0.98723 0.29416 0.0
C754 C 0.24788 0.94591 0.28723 0.0
C755 C 0.15082 0.76083 0.24261 0.0
C756 C 0.12679 0.81315 0.23943 0.0
C757 C 0.19078 0.75997 0.25034 0.0
C758 C 0.20997 0.81169 0.25479 0.0
C759 C 0.19013 0.86448 0.25087 0.0
C760 C 0.14796 0.86514 0.24341 0.0
C761 C 0.24373 0.81 0.26425 0.0
C762 C 0.22859 0.84794 0.27196 0.0
C763 C 0.28703 0.76795 0.26608 0.0
C764 C 0.31275 0.73231 0.25818 0.0
C765 C 0.34068 0.75906 0.25028 0.0
C766 C 0.36935 0.72565 0.24326 0.0
C767 C 0.36941 0.66535 0.24395 0.0
C768 C 0.34109 0.63837 0.25174 0.0
C769 C 0.31327 0.67168 0.2589 0.0
H770 H 0.3918 0.63948 0.23852 0.0
H771 H 0.18879 1.00205 0.30805 0.0
H772 H 0.48501 0.15967 0.5567 0.0
H773 H 0.47752 0.08809 0.54346 0.0
H774 H 0.29248 0.11392 0.54219 0.0
H775 H 0.30014 0.18708 0.55528 0.0
H776 H 0.34912 0.98774 0.53893 0.0
H777 H 0.34516 0.19033 0.52839 0.0
H778 H 0.3843 0.28968 0.52844 0.0
H779 H 0.5478 0.22663 0.51788 0.0
H780 H 0.51011 0.12669 0.51802 0.0
H781 H 0.30628 0.86832 0.49231 0.0
H782 H 0.29562 0.94096 0.50536 0.0
H783 H 0.47686 0.98486 0.50267 0.0
H784 H 0.4873 0.9124 0.4897 0.0
H785 H 0.41778 0.07805 0.50804 0.0
H786 H 0.43299 0.88265 0.51849 0.0
H787 H 0.40925 0.77914 0.51996 0.0
H788 H 0.24184 0.82224 0.53163 0.0
H789 H 0.26419 0.92615 0.53005 0.0
C790 C 0.44235 0.14767 0.554 0.0
C791 C 0.39294 0.17797 0.55713 0.0
C792 C 0.43826 0.10745 0.54632 0.0
C793 C 0.3846 0.0965 0.54178 0.0
C794 C 0.33426 0.12192 0.54562 0.0
C795 C 0.33853 0.16313 0.55317 0.0
C796 C 0.38239 0.06498 0.53229 0.0
C797 C 0.36295 1.00765 0.53212 0.0
C798 C 0.40265 0.09065 0.52353 0.0
C799 C 0.42503 0.15088 0.52336 0.0
C800 C 0.38969 0.19752 0.52621 0.0
C801 C 0.41157 0.25397 0.52618 0.0
C802 C 0.46855 0.2644 0.5232 0.0
C803 C 0.50372 0.21845 0.52022 0.0
C804 C 0.48213 0.1619 0.52028 0.0
C805 C 0.34296 0.89568 0.49417 0.0
C806 C 0.39717 0.886 0.4898 0.0
C807 C 0.33713 0.93654 0.50172 0.0
C808 C 0.38576 0.96751 0.50515 0.0
C809 C 0.43868 0.96162 0.50016 0.0
C810 C 0.44444 0.92084 0.4926 0.0
C811 C 0.38341 1.00058 0.51456 0.0
C812 C 0.40269 0.05819 0.51477 0.0
C813 C 0.3644 0.97465 0.52342 0.0
C814 C 0.34998 0.91221 0.52404 0.0
C815 C 0.3908 0.87009 0.52125 0.0
C816 C 0.37765 0.81132 0.52212 0.0
C817 C 0.32406 0.79414 0.52589 0.0
C818 C 0.28332 0.83565 0.52871 0.0
C819 C 0.29617 0.89448 0.52781 0.0
H820 H 0.31417 0.74869 0.5267 0.0
H821 H 0.48541 0.30808 0.52316 0.0
H822 H 0.03097 0.82477 0.05709 0.0
H823 H 0.04974 0.90274 0.04545 0.0
H824 H 0.86607 0.9164 0.03978 0.0
H825 H 0.84728 0.84141 0.05181 0.0
H826 H 0.02788 0.89289 0.0265 0.0
H827 H 0.8261 0.00986 0.03324 0.0
H828 H 0.76573 0.06195 0.04534 0.0
H829 H 0.91909 0.12805 0.05939 0.0
H830 H 0.98046 0.0727 0.04785 0.0
H831 H 0.9128 0.07961 0.98598 0.0
H832 H 0.92902 1.00488 0.99852 0.0
H833 H 0.04907 0.11801 1.01356 0.0
H834 H 0.03347 0.19182 1.0011 0.0
H835 H 0.93085 0.08255 1.02273 0.0
H836 H 0.1066 0.01932 1.00773 0.0
H837 H 0.17179 0.97717 0.99537 0.0
H838 H 0.08168 0.81503 0.99727 0.0
H839 H 0.01352 0.85721 1.00917 0.0
C840 C 0.99452 0.84649 0.05377 0.0
C841 C 0.93757 0.82782 0.05557 0.0
C842 C 1.00527 0.89075 0.047 0.0
C843 C 0.95928 0.91662 0.04181 0.0
C844 C 0.90228 0.89931 0.04391 0.0
C845 C 0.89158 0.85579 0.05075 0.0
C846 C 0.97087 0.95501 0.03327 0.0
C847 C 1.00682 0.9345 0.02567 0.0
C848 C 0.94376 0.00937 0.03216 0.0
C849 C 0.90762 0.03583 0.0399 0.0
C850 C 0.84685 0.03399 0.03913 0.0
C851 C 0.81255 0.06383 0.04591 0.0
C852 C 0.8387 0.09723 0.05329 0.0
C853 C 0.89913 0.1005 0.05391 0.0
C854 C 0.93365 0.06927 0.04734 0.0
C855 C 0.94504 0.08699 0.99167 0.0
C856 C 0.97316 0.14072 0.99244 0.0
C857 C 0.95409 0.04451 0.99884 0.0
C858 C 0.99071 0.05578 1.00691 0.0
C859 C 0.02159 0.10801 1.0073 0.0
C860 C 0.01304 0.14999 1.00011 0.0
C861 C 0.98697 0.01999 1.01589 0.0
C862 C 0.95216 0.041 1.02354 0.0
C863 C 0.01528 0.96619 1.01696 0.0
C864 C 0.05398 0.94199 1.00926 0.0
C865 C 0.09935 0.97527 1.00531 0.0
C866 C 0.13709 0.95124 0.99838 0.0
C867 C 0.13078 0.89354 0.99549 0.0
C868 C 0.08642 0.85984 0.99946 0.0
C869 C 0.04789 0.88397 1.00624 0.0
H870 H 0.16041 0.8749 0.99021 0.0
H871 H 0.81217 0.12123 0.05843 0.0
H872 H 0.23482 0.71587 0.08633 0.0
H873 H 0.33726 0.71324 0.09119 0.0
H874 H 0.38635 0.76723 0.06205 0.0
H875 H 0.2844 0.76691 0.05709 0.0
H876 H 0.44949 0.68214 0.06676 0.0
H877 H 0.3976 0.8577 0.08366 0.0
H878 H 0.33894 0.91825 0.0948 0.0
H879 H 0.38059 0.80657 0.11891 0.0
H880 H 0.43919 0.74506 0.1079 0.0
H881 H 0.7477 0.72715 0.07751 0.0
H882 H 0.64653 0.74778 0.07372 0.0
H883 H 0.59359 0.66509 0.10054 0.0
H884 H 0.69428 0.64283 0.10436 0.0
H885 H 0.53419 0.76791 0.09709 0.0
H886 H 0.58338 0.59167 0.07987 0.0
H887 H 0.64367 0.53266 0.06875 0.0
H888 H 0.60707 0.64881 0.04502 0.0
H889 H 0.54719 0.70901 0.05605 0.0
C890 C 0.26755 0.7283 0.08105 0.0
C891 C 0.25191 0.74185 0.07135 0.0
C892 C 0.32612 0.7269 0.08383 0.0
C893 C 0.36983 0.74051 0.07701 0.0
C894 C 0.35369 0.75627 0.06743 0.0
C895 C 0.29543 0.75639 0.06461 0.0
C896 C 0.4324 0.73467 0.07959 0.0
C897 C 0.46802 0.70192 0.07331 0.0
C898 C 0.45669 0.75905 0.08826 0.0
C899 C 0.42243 0.79656 0.09494 0.0
C900 C 0.39407 0.84593 0.09133 0.0
C901 C 0.36087 0.88044 0.09762 0.0
C902 C 0.35597 0.8662 0.10755 0.0
C903 C 0.38446 0.81755 0.11122 0.0
C904 C 0.41777 0.78292 0.10496 0.0
C905 C 0.71496 0.71246 0.08258 0.0
C906 C 0.72978 0.6819 0.09117 0.0
C907 C 0.65692 0.72496 0.08043 0.0
C908 C 0.61257 0.70751 0.08681 0.0
C909 C 0.62717 0.67902 0.09552 0.0
C910 C 0.68499 0.6662 0.09766 0.0
C911 C 0.55072 0.71624 0.08419 0.0
C912 C 0.51539 0.74895 0.09049 0.0
C913 C 0.52664 0.69216 0.07552 0.0
C914 C 0.56128 0.65514 0.06881 0.0
C915 C 0.58844 0.60479 0.07229 0.0
C916 C 0.62253 0.57113 0.06601 0.0
C917 C 0.62937 0.58709 0.05619 0.0
C918 C 0.60182 0.63657 0.05263 0.0
C919 C 0.56776 0.67044 0.05889 0.0
H920 H 0.65591 0.56106 0.05134 0.0
H921 H 0.3302 0.89293 0.1124 0.0
H922 H 0.53874 0.02881 0.34204 0.0
H923 H 0.56057 0.1235 0.34939 0.0
H924 H 0.58859 0.19409 0.32053 0.0
H925 H 0.56565 0.10121 0.31313 0.0
H926 H 0.67752 0.22154 0.33391 0.0
H927 H 0.46507 0.21962 0.33187 0.0
H928 H 0.36854 0.18034 0.33592 0.0
H929 H 0.40416 0.20342 0.36669 0.0
H930 H 0.50125 0.2422 0.36282 0.0
H931 H 0.62874 0.51861 0.32954 0.0
H932 H 0.64285 0.41423 0.32974 0.0
H933 H 0.59246 0.40974 0.36025 0.0
H934 H 0.57665 0.51424 0.35997 0.0
H935 H 0.5277 0.34005 0.35053 0.0
H936 H 0.73072 0.36427 0.35237 0.0
H937 H 0.82716 0.40419 0.34851 0.0
H938 H 0.81328 0.33898 0.319 0.0
H939 H 0.71637 0.29939 0.32261 0.0
C940 C 0.54841 0.06464 0.33724 0.0
C941 C 0.5501 0.05714 0.32696 0.0
C942 C 0.56153 0.11858 0.34147 0.0
C943 C 0.57679 0.16551 0.33549 0.0
C944 C 0.57774 0.15822 0.32528 0.0
C945 C 0.56433 0.10493 0.32107 0.0
C946 C 0.59061 0.22321 0.33964 0.0
C947 C 0.64501 0.24765 0.33759 0.0
C948 C 0.54892 0.2562 0.34476 0.0
C949 C 0.49061 0.23302 0.34707 0.0
C950 C 0.45248 0.21582 0.3395 0.0
C951 C 0.39765 0.19376 0.34176 0.0
C952 C 0.38031 0.18918 0.35156 0.0
C953 C 0.41771 0.20684 0.35911 0.0
C954 C 0.47262 0.22887 0.35689 0.0
C955 C 0.62312 0.49577 0.3364 0.0
C956 C 0.60152 0.52441 0.34474 0.0
C957 C 0.63114 0.43589 0.33652 0.0
C958 C 0.61867 0.40386 0.34502 0.0
C959 C 0.60207 0.43336 0.3536 0.0
C960 C 0.59332 0.49307 0.35344 0.0
C961 C 0.61415 0.33979 0.34445 0.0
C962 C 0.56133 0.31393 0.34716 0.0
C963 C 0.65759 0.30545 0.34 0.0
C964 C 0.71605 0.32901 0.33776 0.0
C965 C 0.74803 0.35874 0.34503 0.0
C966 C 0.80284 0.38127 0.34289 0.0
C967 C 0.82631 0.37417 0.33352 0.0
C968 C 0.79506 0.34442 0.32626 0.0
C969 C 0.74022 0.32181 0.32836 0.0
H970 H 0.86874 0.39166 0.33187 0.0
H971 H 0.33784 0.17211 0.35329 0.0
H972 H 0.73615 0.28578 0.5841 0.0
H973 H 0.8392 0.28399 0.58847 0.0
H974 H 0.88373 0.32706 0.5586 0.0
H975 H 0.7809 0.32638 0.55415 0.0
H976 H 0.94587 0.24216 0.56377 0.0
H977 H 0.90309 0.42333 0.57892 0.0
H978 H 0.85034 0.49233 0.58946 0.0
H979 H 0.89197 0.39113 0.61489 0.0
H980 H 0.94431 0.32105 0.60447 0.0
H981 H 0.24762 0.27295 0.575 0.0
H982 H 0.14823 0.29699 0.57053 0.0
H983 H 0.08691 0.22351 0.59761 0.0
H984 H 0.18576 0.19768 0.60212 0.0
H985 H 0.03674 0.331 0.59331 0.0
H986 H 0.07433 0.14712 0.57724 0.0
H987 H 0.13036 0.08241 0.56639 0.0
H988 H 0.10085 0.1965 0.54209 0.0
H989 H 0.04528 0.26232 0.55284 0.0
C990 C 0.76794 0.29628 0.57854 0.0
C991 C 0.75067 0.30644 0.5688 0.0
C992 C 0.82691 0.29528 0.58104 0.0
C993 C 0.86954 0.30577 0.57388 0.0
C994 C 0.8519 0.31854 0.56424 0.0
C995 C 0.79314 0.31843 0.56172 0.0
C996 C 0.93234 0.29882 0.57621 0.0
C997 C 0.9658 0.26264 0.57013 0.0
C998 C 0.95856 0.32455 0.5846 0.0
C999 C 0.92722 0.36667 0.5909 0.0
C1000 C 0.90064 0.41555 0.58675 0.0
C1001 C 0.87087 0.4549 0.5927 0.0
C1002 C 0.8677 0.44605 0.60284 0.0
C1003 C 0.89442 0.3979 0.60704 0.0
C1004 C 0.9242 0.35838 0.60111 0.0
C1005 C 0.21338 0.26074 0.57998 0.0
C1006 C 0.22534 0.23206 0.58889 0.0
C1007 C 0.15637 0.27522 0.57743 0.0
C1008 C 0.11024 0.26176 0.58372 0.0
C1009 C 0.12194 0.23444 0.59266 0.0
C1010 C 0.17869 0.21957 0.5952 0.0
C1011 C 0.04943 0.27447 0.58089 0.0
C1012 C 0.01654 0.31137 0.58689 0.0
C1013 C 0.02387 0.2501 0.57237 0.0
C1014 C 0.05616 0.2099 0.56586 0.0
C1015 C 0.08009 0.15857 0.56959 0.0
C1016 C 0.11173 0.12168 0.56346 0.0
C1017 C 0.11933 0.13543 0.55356 0.0
C1018 C 0.09502 0.18596 0.54977 0.0
C1019 C 0.0634 0.22304 0.55587 0.0
H1020 H 0.14393 0.10687 0.54883 0.0
H1021 H 0.84463 0.47656 0.60743 0.0
H1022 H 0.04217 0.96087 0.8026 0.0
H1023 H 0.05262 0.85635 0.80419 0.0
H1024 H 0.12389 0.87931 0.83328 0.0
H1025 H 0.11416 0.98436 0.83169 0.0
H1026 H 0.16092 0.77045 0.82206 0.0
H1027 H 0.99127 0.87936 0.83348 0.0
H1028 H 0.91512 0.95259 0.83085 0.0
H1029 H 0.85215 0.85766 0.80577 0.0
H1030 H 0.92878 0.78448 0.80815 0.0
H1031 H 0.93324 0.56002 0.84461 0.0
H1032 H 0.97785 0.65351 0.84147 0.0
H1033 H 0.06006 0.58434 0.81555 0.0
H1034 H 0.01486 0.49014 0.81856 0.0
H1035 H 0.95338 0.71519 0.82495 0.0
H1036 H 0.18821 0.67129 0.81246 0.0
H1037 H 0.26633 0.60035 0.81525 0.0
H1038 H 0.19828 0.56386 0.84389 0.0
H1039 H 0.12031 0.63513 0.84132 0.0
C1040 C 0.06258 0.94378 0.80915 0.0
C1041 C 0.07664 0.98047 0.81707 0.0
C1042 C 0.06881 0.8841 0.81003 0.0
C1043 C 0.08821 0.86024 0.8189 0.0
C1044 C 0.1091 0.89703 0.82636 0.0
C1045 C 0.10339 0.95706 0.82545 0.0
C1046 C 0.07246 0.79985 0.82124 0.0
C1047 C 0.11568 0.75803 0.82266 0.0
C1048 C 0.01339 0.78412 0.82214 0.0
C1049 C 0.96598 0.82682 0.82094 0.0
C1050 C 0.96133 0.8743 0.82738 0.0
C1051 C 0.91813 0.91579 0.82593 0.0
C1052 C 0.87888 0.90984 0.81814 0.0
C1053 C 0.88263 0.86225 0.8118 0.0
C1054 C 0.92592 0.82076 0.81319 0.0
C1055 C 0.96127 0.56429 0.83829 0.0
C1056 C 0.9702 0.51749 0.83183 0.0
C1057 C 0.98691 0.61777 0.83652 0.0
C1058 C 0.02219 0.62584 0.82828 0.0
C1059 C 0.03345 0.57876 0.82202 0.0
C1060 C 1.00764 0.52488 0.82378 0.0
C1061 C 0.04172 0.68502 0.8258 0.0
C1062 C 0.99881 0.727 0.82432 0.0
C1063 C 0.10096 0.70052 0.82495 0.0
C1064 C 0.14803 0.65807 0.82664 0.0
C1065 C 0.19004 0.64824 0.81936 0.0
C1066 C 0.23428 0.60797 0.82091 0.0
C1067 C 0.23713 0.57745 0.82973 0.0
C1068 C 0.19587 0.58732 0.83704 0.0
C1069 C 0.15157 0.62758 0.83553 0.0
H1070 H 0.2714 0.54627 0.83091 0.0
H1071 H 0.84552 0.94205 0.81702 0.0
H1072 H 0.28906 0.15453 0.99247 0.0
H1073 H 0.39235 0.14389 0.98882 0.0
H1074 H 0.36043 0.19708 0.95893 0.0
H1075 H 0.25657 0.20504 0.96247 0.0
H1076 H 0.45197 0.12468 0.95968 0.0
H1077 H 0.38912 0.29667 0.97691 0.0
H1078 H 0.34126 0.35006 0.99035 0.0
H1079 H 0.45702 0.27285 1.0113 0.0
H1080 H 0.505 0.21831 0.99798 0.0
H1081 H 0.6907 0.30536 0.94843 0.0
H1082 H 0.59903 0.25635 0.95166 0.0
H1083 H 0.66198 0.20568 0.98023 0.0
H1084 H 0.75342 0.25585 0.97717 0.0
H1085 H 0.56035 0.26123 0.98123 0.0
H1086 H 0.63556 0.10382 0.9625 0.0
H1087 H 0.68305 0.05709 0.94834 0.0
H1088 H 0.54526 0.11369 0.92938 0.0
H1089 H 0.49733 0.16153 0.9434 0.0
C1090 C 0.30397 0.16195 0.98504 0.0
C1091 C 0.26531 0.18101 0.97776 0.0
C1092 C 0.36288 0.15602 0.98296 0.0
C1093 C 0.38425 0.17125 0.97368 0.0
C1094 C 0.3449 0.18531 0.96615 0.0
C1095 C 0.28563 0.18992 0.96817 0.0
C1096 C 0.44724 0.18125 0.97227 0.0
C1097 C 0.4758 0.1545 0.96437 0.0
C1098 C 0.47849 0.21967 0.97848 0.0
C1099 C 0.45016 0.25294 0.98648 0.0
C1100 C 0.40411 0.29084 0.98439 0.0
C1101 C 0.37698 0.3213 0.99199 0.0
C1102 C 0.39598 0.31472 1.00168 0.0
C1103 C 0.44227 0.2778 1.0038 0.0
C1104 C 0.46944 0.2471 0.99623 0.0
C1105 C 0.68541 0.28306 0.95535 0.0
C1106 C 0.72946 0.28445 0.96252 0.0
C1107 C 0.63319 0.25451 0.95714 0.0
C1108 C 0.62394 0.22676 0.96614 0.0
C1109 C 0.66852 0.22637 0.9732 0.0
C1110 C 0.72094 0.25481 0.97141 0.0
C1111 C 0.56534 0.20498 0.9686 0.0
C1112 C 0.53725 0.23011 0.97667 0.0
C1113 C 0.53463 0.16586 0.96245 0.0
C1114 C 0.56299 0.13656 0.95401 0.0
C1115 C 0.61554 0.10664 0.9553 0.0
C1116 C 0.64253 0.0799 0.9473 0.0
C1117 C 0.61723 0.08249 0.93796 0.0
C1118 C 0.5648 0.11171 0.93662 0.0
C1119 C 0.53765 0.13856 0.94459 0.0
H1120 H 0.63822 0.0618 0.93178 0.0
H1121 H 0.37492 0.33834 1.00755 0.0
H1122 H 0.06922 0.99804 0.22233 0.0
H1123 H 0.03458 0.09494 0.22646 0.0
H1124 H 0.95787 0.10976 0.1976 0.0
H1125 H 0.99366 0.01356 0.19337 0.0
H1126 H 0.0192 0.20008 0.20109 0.0
H1127 H 0.87451 0.1003 0.21924 0.0
H1128 H 0.8355 0.02943 0.23097 0.0
H1129 H 0.92911 0.11211 0.2545 0.0
H1130 H 0.9694 0.183 0.24289 0.0
H1131 H 0.9351 0.48459 0.21166 0.0
H1132 H 0.91574 0.38186 0.20871 0.0
H1133 H 0.0108 0.33875 0.23503 0.0
H1134 H 0.0288 0.44102 0.23817 0.0
H1135 H 0.92285 0.26238 0.2319 0.0
H1136 H 0.08006 0.34851 0.21295 0.0
H1137 H 0.11927 0.41986 0.2013 0.0
H1138 H 0.99918 0.36121 0.17918 0.0
H1139 H 0.95886 0.28988 0.19075 0.0
C1140 C 0.04375 0.02132 0.21695 0.0
C1141 C 0.0341 0.99804 0.20752 0.0
C1142 C 0.02384 0.07684 0.21933 0.0
C1143 C 0.99311 0.10974 0.21237 0.0
C1144 C 0.98154 0.08545 0.20309 0.0
C1145 C 1.00201 0.0304 0.20068 0.0
C1146 C 0.97803 0.17126 0.21441 0.0
C1147 C 0.99681 0.21336 0.20772 0.0
C1148 C 0.94971 0.18912 0.22314 0.0
C1149 C 0.92531 0.14677 0.23017 0.0
C1150 C 0.88711 0.10315 0.2269 0.0
C1151 C 0.86472 0.063 0.23353 0.0
C1152 C 0.8799 0.0662 0.24347 0.0
C1153 C 0.91741 0.10966 0.2468 0.0
C1154 C 0.93997 0.1499 0.2402 0.0
C1155 C 0.94996 0.45349 0.21702 0.0
C1156 C 0.98409 0.47099 0.2251 0.0
C1157 C 0.93926 0.39465 0.21528 0.0
C1158 C 0.9629 0.35252 0.22154 0.0
C1159 C 0.99235 0.37033 0.23007 0.0
C1160 C 1.00295 0.4289 0.23182 0.0
C1161 C 0.96453 0.29052 0.21863 0.0
C1162 C 0.94379 0.24855 0.22516 0.0
C1163 C 0.99094 0.27252 0.20975 0.0
C1164 C 0.0161 0.31435 0.20273 0.0
C1165 C 0.06192 0.351 0.20561 0.0
C1166 C 0.08432 0.39142 0.19903 0.0
C1167 C 0.06162 0.39517 0.18951 0.0
C1168 C 0.01665 0.3583 0.18655 0.0
C1169 C 0.99404 0.31785 0.19312 0.0
H1170 H 0.07893 0.42657 0.18443 0.0
H1171 H 0.86253 0.03506 0.24859 0.0
H1172 H 0.21024 0.83578 0.44219 0.0
H1173 H 0.11174 0.8005 0.44495 0.0
H1174 H 0.14122 0.80591 0.47627 0.0
H1175 H 0.24029 0.84026 0.47356 0.0
H1176 H 0.07491 0.71378 0.47126 0.0
H1177 H 0.07577 0.91808 0.4645 0.0
H1178 H 0.0983 1.00537 0.4549 0.0
H1179 H 0.99966 0.93839 0.43052 0.0
H1180 H 0.97721 0.85029 0.43994 0.0
H1181 H 0.79505 0.7726 0.49006 0.0
H1182 H 0.89624 0.76704 0.485 0.0
H1183 H 0.84258 0.75381 0.45467 0.0
H1184 H 0.74083 0.76029 0.45967 0.0
H1185 H 0.92033 0.83949 0.45762 0.0
H1186 H 0.90801 0.64003 0.46587 0.0
H1187 H 0.88473 0.55552 0.4761 0.0
H1188 H 1.00315 0.61558 0.49836 0.0
H1189 H 0.02652 0.70096 0.48834 0.0
C1190 C 0.196 0.82871 0.44966 0.0
C1191 C 0.23299 0.84102 0.45765 0.0
C1192 C 0.1397 0.80857 0.45123 0.0
C1193 C 0.11877 0.80156 0.46082 0.0
C1194 C 0.15649 0.811 0.46881 0.0
C1195 C 0.21318 0.83056 0.46724 0.0
C1196 C 0.05644 0.78896 0.46253 0.0
C1197 C 0.04104 0.74138 0.46833 0.0
C1198 C 0.0122 0.82428 0.45853 0.0
C1199 C 0.02538 0.87735 0.45288 0.0
C1200 C 0.05925 0.9218 0.45706 0.0
C1201 C 0.07195 0.97144 0.45166 0.0
C1202 C 0.05057 0.97735 0.4421 0.0
C1203 C 0.01629 0.9337 0.43793 0.0
C1204 C 1.00354 0.88392 0.44329 0.0
C1205 C 0.80467 0.76753 0.48231 0.0
C1206 C 0.75983 0.76682 0.47527 0.0
C1207 C 0.86259 0.76387 0.47944 0.0
C1208 C 0.87701 0.7595 0.46947 0.0
C1209 C 0.83234 0.75674 0.46242 0.0
C1210 C 0.77417 0.76005 0.4653 0.0
C1211 C 0.93856 0.76451 0.46642 0.0
C1212 C 0.95395 0.81107 0.46041 0.0
C1213 C 0.9826 0.72855 0.47032 0.0
C1214 C 0.96871 0.67718 0.47637 0.0
C1215 C 0.92875 0.6355 0.47298 0.0
C1216 C 0.9156 0.58737 0.47874 0.0
C1217 C 0.94236 0.58024 0.48788 0.0
C1218 C 0.98243 0.62117 0.49128 0.0
C1219 C 0.99571 0.66941 0.48556 0.0
H1220 H 0.93213 0.54294 0.49232 0.0
H1221 H 0.06044 0.01582 0.43793 0.0
H1222 H 0.62255 0.52031 0.71169 0.0
H1223 H 0.64448 0.62228 0.70877 0.0
H1224 H 0.57608 0.66634 0.7373 0.0
H1225 H 0.55447 0.56466 0.74029 0.0
H1226 H 0.55387 0.6971 0.70797 0.0
H1227 H 0.63395 0.79525 0.7451 0.0
H1228 H 0.69989 0.76933 0.75868 0.0
H1229 H 0.79664 0.6591 0.73928 0.0
H1230 H 0.73195 0.68506 0.72554 0.0
H1231 H 0.50188 1.0022 0.72678 0.0
H1232 H 0.54592 0.90775 0.73007 0.0
H1233 H 0.5984 0.8949 0.69973 0.0
H1234 H 0.55204 0.98773 0.69634 0.0
H1235 H 0.64634 0.84889 0.72867 0.0
H1236 H 0.56796 0.76307 0.69101 0.0
H1237 H 0.49516 0.7861 0.67826 0.0
H1238 H 0.38675 0.86581 0.70005 0.0
H1239 H 0.45849 0.84252 0.71292 0.0
C1240 C 0.61431 0.55137 0.7175 0.0
C1241 C 0.58656 0.53457 0.72621 0.0
C1242 C 0.62663 0.60968 0.7158 0.0
C1243 C 0.61203 0.65185 0.72283 0.0
C1244 C 0.58845 0.63453 0.73183 0.0
C1245 C 0.57569 0.57643 0.73349 0.0
C1246 C 0.61142 0.71387 0.72017 0.0
C1247 C 0.57557 0.73021 0.71232 0.0
C1248 C 0.63794 0.75701 0.72609 0.0
C1249 C 0.67774 0.74187 0.73429 0.0
C1250 C 0.6695 0.76577 0.7437 0.0
C1251 C 0.70664 0.75101 0.75144 0.0
C1252 C 0.75234 0.7125 0.74985 0.0
C1253 C 0.76111 0.68879 0.74051 0.0
C1254 C 0.72415 0.70346 0.73275 0.0
C1255 C 0.5241 0.97972 0.72089 0.0
C1256 C 0.52302 1.00152 0.71128 0.0
C1257 C 0.54937 0.9259 0.72278 0.0
C1258 C 0.57429 0.8937 0.71509 0.0
C1259 C 0.57828 0.91841 0.70572 0.0
C1260 C 0.55188 0.97137 0.70379 0.0
C1261 C 0.58851 0.83175 0.71653 0.0
C1262 C 0.62617 0.81558 0.72417 0.0
C1263 C 0.56282 0.78831 0.71055 0.0
C1264 C 0.51894 0.80172 0.70289 0.0
C1265 C 0.5285 0.78536 0.69307 0.0
C1266 C 0.48743 0.79846 0.68583 0.0
C1267 C 0.43648 0.82761 0.68834 0.0
C1268 C 0.42633 0.84344 0.6981 0.0
C1269 C 0.46718 0.83032 0.70537 0.0
H1270 H 0.40479 0.83779 0.68272 0.0
H1271 H 0.78099 0.70108 0.75585 0.0
H1272 H 0.09781 0.4524 0.07511 0.0
H1273 H 0.09473 0.34677 0.07442 0.0
H1274 H 0.9078 0.35166 0.07425 0.0
H1275 H 0.91039 0.45739 0.07481 0.0
H1276 H 0.94649 0.27534 0.08731 0.0
H1277 H 0.98995 0.32052 0.05381 0.0
H1278 H 0.04434 0.36222 0.04004 0.0
H1279 H 0.19372 0.26174 0.04796 0.0
H1280 H 0.14018 0.21978 0.06186 0.0
H1281 H 0.89156 0.98042 0.07768 0.0
H1282 H 0.89783 0.08545 0.0772 0.0
H1283 H 0.08359 0.07456 0.07381 0.0
H1284 H 0.07724 0.96885 0.07402 0.0
H1285 H 0.04745 0.15449 0.06253 0.0
H1286 H 0.01142 0.11538 0.09647 0.0
H1287 H 0.96062 0.07303 0.11064 0.0
H1288 H 0.80483 0.16316 0.10264 0.0
H1289 H 0.85451 0.2055 0.08834 0.0
C1290 C 0.05595 0.43112 0.07479 0.0
C1291 C 1.00435 0.46364 0.07503 0.0
C1292 C 0.05428 0.37055 0.07437 0.0
C1293 C 1.00098 0.34094 0.07417 0.0
C1294 C 0.94943 0.37335 0.0743 0.0
C1295 C 0.95102 0.43394 0.07463 0.0
C1296 C 0.9988 0.2763 0.07425 0.0
C1297 C 0.96798 0.24898 0.08181 0.0
C1298 C 0.02852 0.24158 0.06728 0.0
C1299 C 0.06094 0.26718 0.05894 0.0
C1300 C 0.03437 0.30745 0.05266 0.0
C1301 C 0.0651 0.33115 0.04481 0.0
C1302 C 0.12251 0.3147 0.04313 0.0
C1303 C 0.14924 0.27446 0.04928 0.0
C1304 C 0.11865 0.25066 0.05714 0.0
C1305 C 0.93387 1.00023 0.07687 0.0
C1306 C 0.98397 0.96597 0.07599 0.0
C1307 C 0.9375 0.06062 0.07668 0.0
C1308 C 0.9914 0.08866 0.0757 0.0
C1309 C 0.04143 0.05442 0.07462 0.0
C1310 C 0.03777 0.99382 0.07476 0.0
C1311 C 0.99525 0.15345 0.07562 0.0
C1312 C 0.02627 0.18083 0.06807 0.0
C1313 C 0.96649 0.1884 0.08268 0.0
C1314 C 0.93657 0.16322 0.09129 0.0
C1315 C 0.96623 0.12589 0.0977 0.0
C1316 C 0.93765 0.10192 0.10575 0.0
C1317 C 0.8795 0.1153 0.10752 0.0
C1318 C 0.84985 0.1528 0.10125 0.0
C1319 C 0.87822 0.17684 0.09318 0.0
H1320 H 0.85744 0.09669 0.11376 0.0
H1321 H 0.14626 0.33308 0.03705 0.0
H1322 H 0.79629 0.87385 0.32692 0.0
H1323 H 0.90186 0.87096 0.32613 0.0
H1324 H 0.89712 0.68463 0.32636 0.0
H1325 H 0.79058 0.68721 0.32722 0.0
H1326 H 0.97965 0.72467 0.33884 0.0
H1327 H 0.92907 0.75798 0.30553 0.0
H1328 H 0.88063 0.80477 0.29149 0.0
H1329 H 0.9684 0.96422 0.29817 0.0
H1330 H 0.01666 0.91865 0.31236 0.0
H1331 H 0.27954 0.69633 0.32629 0.0
H1332 H 0.17361 0.6925 0.3258 0.0
H1333 H 0.16652 0.87811 0.32833 0.0
H1334 H 0.27313 0.88253 0.32843 0.0
H1335 H 0.09022 0.83296 0.31372 0.0
H1336 H 0.13695 0.79772 0.34778 0.0
H1337 H 0.18604 0.74739 0.3614 0.0
H1338 H 0.1063 0.58733 0.35257 0.0
H1339 H 0.05734 0.63658 0.33881 0.0
C1340 C 0.81741 0.83206 0.32675 0.0
C1341 C 0.78454 0.78072 0.32713 0.0
C1342 C 0.8781 0.83052 0.32625 0.0
C1343 C 0.90796 0.7776 0.3261 0.0
C1344 C 0.87535 0.72609 0.32646 0.0
C1345 C 0.81432 0.7276 0.3269 0.0
C1346 C 0.97307 0.77667 0.32581 0.0
C1347 C 1.00371 0.74774 0.33325 0.0
C1348 C 1.00503 0.80736 0.31862 0.0
C1349 C 0.97602 0.83502 0.31009 0.0
C1350 C 0.93763 0.80318 0.30407 0.0
C1351 C 0.91026 0.82947 0.29607 0.0
C1352 C 0.92131 0.8875 0.29396 0.0
C1353 C 0.95982 0.9193 0.29983 0.0
C1354 C 0.98721 0.89325 0.30785 0.0
C1355 C 0.25563 0.73653 0.3267 0.0
C1356 C 0.28516 0.78982 0.32742 0.0
C1357 C 0.19482 0.73419 0.32644 0.0
C1358 C 0.16168 0.785 0.32701 0.0
C1359 C 0.19097 0.83831 0.32774 0.0
C1360 C 0.252 0.8408 0.32784 0.0
C1361 C 0.09663 0.7823 0.32688 0.0
C1362 C 0.06608 0.81023 0.31932 0.0
C1363 C 0.06478 0.75033 0.33391 0.0
C1364 C 0.09395 0.72074 0.34221 0.0
C1365 C 0.13025 0.7517 0.3487 0.0
C1366 C 0.15799 0.72339 0.35645 0.0
C1367 C 0.14942 0.66417 0.35784 0.0
C1368 C 0.11296 0.63318 0.35148 0.0
C1369 C 0.08517 0.66128 0.34371 0.0
H1370 H 0.17092 0.64233 0.36385 0.0
H1371 H 0.9002 0.90779 0.28776 0.0
H1372 H 0.512 0.51922 0.56245 0.0
H1373 H 0.50298 0.62383 0.56013 0.0
H1374 H 0.48074 0.64615 0.59141 0.0
H1375 H 0.48612 0.54186 0.59361 0.0
H1376 H 0.40813 0.71207 0.58262 0.0
H1377 H 0.61537 0.67476 0.57794 0.0
H1378 H 0.69659 0.62566 0.5696 0.0
H1379 H 0.64066 0.69474 0.54192 0.0
H1380 H 0.5589 0.74398 0.5501 0.0
H1381 H 0.50087 0.9897 0.59484 0.0
H1382 H 0.50053 0.88607 0.59162 0.0
H1383 H 0.4721 0.91725 0.56078 0.0
H1384 H 0.47152 0.02222 0.56397 0.0
H1385 H 0.56085 0.8264 0.56595 0.0
H1386 H 0.36263 0.87559 0.5711 0.0
H1387 H 0.28053 0.92344 0.57936 0.0
H1388 H 0.31748 0.83017 0.60584 0.0
H1389 H 0.40047 0.78242 0.5978 0.0
C1390 C 0.50475 0.54653 0.56879 0.0
C1391 C 0.49936 0.52208 0.57818 0.0
C1392 C 0.50014 0.60648 0.56749 0.0
C1393 C 0.49184 0.64346 0.57561 0.0
C1394 C 0.48687 0.61889 0.585 0.0
C1395 C 0.49027 0.55905 0.58626 0.0
C1396 C 0.48816 0.70767 0.57451 0.0
C1397 C 0.44181 0.73687 0.57901 0.0
C1398 C 0.53063 0.74048 0.56946 0.0
C1399 C 0.58095 0.71274 0.56462 0.0
C1400 C 0.62047 0.67947 0.57008 0.0
C1401 C 0.66656 0.65163 0.56538 0.0
C1402 C 0.67378 0.65711 0.55524 0.0
C1403 C 0.63506 0.69063 0.54977 0.0
C1404 C 0.58893 0.71861 0.55444 0.0
C1405 C 0.49489 0.9749 0.58734 0.0
C1406 C 0.48602 0.0145 0.57967 0.0
C1407 C 0.49469 0.91545 0.58552 0.0
C1408 C 0.4861 0.89386 0.57597 0.0
C1409 C 0.47892 0.93303 0.5682 0.0
C1410 C 0.47839 0.99293 0.57004 0.0
C1411 C 0.48223 0.83022 0.57442 0.0
C1412 C 0.52688 0.80132 0.56942 0.0
C1413 C 0.43817 0.79746 0.57899 0.0
C1414 C 0.38807 0.82575 0.58386 0.0
C1415 C 0.35357 0.86563 0.57871 0.0
C1416 C 0.30681 0.89268 0.58335 0.0
C1417 C 0.29387 0.87994 0.59312 0.0
C1418 C 0.32759 0.84002 0.59827 0.0
C1419 C 0.37446 0.8129 0.59368 0.0
H1420 H 0.25764 0.90092 0.5967 0.0
H1421 H 0.70933 0.63531 0.5516 0.0
H1422 H 0.77176 0.29223 0.82035 0.0
H1423 H 0.66623 0.29661 0.81974 0.0
H1424 H 0.65561 0.1337 0.8349 0.0
H1425 H 0.76199 0.13058 0.83597 0.0
H1426 H 0.57743 0.13523 0.82046 0.0
H1427 H 0.63001 0.26622 0.84649 0.0
H1428 H 0.68393 0.34792 0.85386 0.0
H1429 H 0.60827 0.46358 0.83284 0.0
H1430 H 0.55457 0.38237 0.82524 0.0
H1431 H 0.27605 0.15656 0.83127 0.0
H1432 H 0.38184 0.14823 0.83216 0.0
H1433 H 0.39916 0.31567 0.81864 0.0
H1434 H 0.29355 0.32519 0.81817 0.0
H1435 H 0.47423 0.30948 0.83253 0.0
H1436 H 0.4176 0.18068 0.8067 0.0
H1437 H 0.3612 0.10001 0.79962 0.0
H1438 H 0.44712 0.98099 0.81887 0.0
H1439 H 0.50118 0.06147 0.82658 0.0
C1440 C 0.74712 0.25684 0.82345 0.0
C1441 C 0.77545 0.21086 0.82818 0.0
C1442 C 0.68647 0.25954 0.82314 0.0
C1443 C 0.65234 0.21548 0.82726 0.0
C1444 C 0.68064 0.16824 0.83164 0.0
C1445 C 0.7415 0.16639 0.83222 0.0
C1446 C 0.58738 0.21928 0.82713 0.0
C1447 C 0.55486 0.17317 0.82316 0.0
C1448 C 0.55752 0.269 0.83053 0.0
C1449 C 0.58859 0.31813 0.83525 0.0
C1450 C 0.62505 0.30904 0.84341 0.0
C1451 C 0.6556 0.35525 0.84763 0.0
C1452 C 0.64963 0.41088 0.8438 0.0
C1453 C 0.61289 0.42045 0.83578 0.0
C1454 C 0.58234 0.37436 0.83153 0.0
C1455 C 0.30243 0.19147 0.82845 0.0
C1456 C 0.27624 0.24149 0.82464 0.0
C1457 C 0.3631 0.18664 0.82893 0.0
C1458 C 0.39913 0.23097 0.82534 0.0
C1459 C 0.3728 0.28081 0.82149 0.0
C1460 C 0.31222 0.28612 0.82118 0.0
C1461 C 0.46407 0.2259 0.82566 0.0
C1462 C 0.49665 0.2717 0.82972 0.0
C1463 C 0.49396 0.17616 0.82221 0.0
C1464 C 0.46304 0.12737 0.81732 0.0
C1465 C 0.42416 0.13743 0.80951 0.0
C1466 C 0.39251 0.09171 0.80538 0.0
C1467 C 0.40094 0.03536 0.80873 0.0
C1468 C 0.44068 0.02467 0.81628 0.0
C1469 C 0.47151 0.07041 0.82059 0.0
H1470 H 0.37659 1.0 0.80548 0.0
H1471 H 0.6734 0.44658 0.84707 0.0
H1472 H 0.05923 0.97818 0.95123 0.0
H1473 H 0.0544 0.87302 0.95271 0.0
H1474 H 0.01448 0.89026 0.98348 0.0
H1475 H 0.02068 0.99583 0.98215 0.0
H1476 H 0.1023 0.80602 0.97933 0.0
H1477 H 0.90953 0.85541 0.96894 0.0
H1478 H 0.83651 0.90174 0.9583 0.0
H1479 H 0.89762 0.80365 0.93355 0.0
H1480 H 0.9716 0.75732 0.94402 0.0
H1481 H 0.94258 0.50776 0.97428 0.0
H1482 H 0.94392 0.61356 0.97456 0.0
H1483 H 0.12263 0.61323 0.96552 0.0
H1484 H 0.12107 0.50711 0.96475 0.0
H1485 H 0.96179 0.68964 0.95985 0.0
H1486 H 0.18949 0.73415 0.97678 0.0
H1487 H 0.25764 0.68965 0.98853 0.0
H1488 H 0.11636 0.60119 1.00243 0.0
H1489 H 0.04735 0.64576 0.99087 0.0
C1490 C 0.04964 0.9598 0.95835 0.0
C1491 C 0.0402 0.99581 0.96657 0.0
C1492 C 0.04675 0.89949 0.95916 0.0
C1493 C 0.0344 0.87351 0.96822 0.0
C1494 C 0.02497 0.9092 0.97645 0.0
C1495 C 0.02787 0.96966 0.97565 0.0
C1496 C 0.03144 0.80914 0.96904 0.0
C1497 C 0.07133 0.7806 0.97514 0.0
C1498 C 0.99106 0.77576 0.96356 0.0
C1499 C 0.94645 0.80329 0.95725 0.0
C1500 C 0.90771 0.84407 0.96122 0.0
C1501 C 0.86609 0.87026 0.95522 0.0
C1502 C 0.86252 0.85576 0.94525 0.0
C1503 C 0.90048 0.8149 0.94127 0.0
C1504 C 0.94223 0.78861 0.94724 0.0
C1505 C 0.98252 0.53004 0.97249 0.0
C1506 C 0.03191 0.4988 0.96955 0.0
C1507 C 0.98307 0.59064 0.97264 0.0
C1508 C 0.0334 0.62161 0.97021 0.0
C1509 C 0.08334 0.5905 0.96753 0.0
C1510 C 0.08242 0.52979 0.96711 0.0
C1511 C 0.03282 0.68632 0.97017 0.0
C1512 C 0.99248 0.71497 0.96415 0.0
C1513 C 0.07215 0.71983 0.97587 0.0
C1514 C 0.11335 0.69275 0.98286 0.0
C1515 C 0.17297 0.70527 0.98235 0.0
C1516 C 0.21175 0.68005 0.98898 0.0
C1517 C 0.19138 0.64243 0.9962 0.0
C1518 C 0.13214 0.63011 0.99681 0.0
C1519 C 0.09318 0.65527 0.99021 0.0
H1520 H 0.22148 0.62294 1.00132 0.0
H1521 H 0.83026 0.87609 0.94062 0.0
H1522 H 0.29368 0.82095 0.21748 0.0
H1523 H 0.40006 0.82232 0.21734 0.0
H1524 H 0.40273 0.6362 0.21856 0.0
H1525 H 0.29646 0.63435 0.21862 0.0
H1526 H 0.47942 0.6922 0.23235 0.0
H1527 H 0.43342 0.69549 0.19774 0.0
H1528 H 0.38505 0.73317 0.18291 0.0
H1529 H 0.46811 0.89772 0.18724 0.0
H1530 H 0.51634 0.86124 0.20219 0.0
H1531 H 0.78044 0.65075 0.22292 0.0
H1532 H 0.67426 0.64751 0.22326 0.0
H1533 H 0.66771 0.82719 0.21497 0.0
H1534 H 0.77341 0.83015 0.21433 0.0
H1535 H 0.5921 0.77297 0.20468 0.0
H1536 H 0.63626 0.77804 0.23882 0.0
H1537 H 0.68085 0.74973 0.25456 0.0
H1538 H 0.5997 0.58291 0.25247 0.0
H1539 H 0.55498 0.60998 0.23664 0.0
C1540 C 0.31682 0.78028 0.21776 0.0
C1541 C 0.28632 0.72753 0.21808 0.0
C1542 C 0.37771 0.78112 0.21759 0.0
C1543 C 0.40953 0.72931 0.21787 0.0
C1544 C 0.37923 0.67669 0.21831 0.0
C1545 C 0.31838 0.67577 0.21837 0.0
C1546 C 0.47432 0.73018 0.21798 0.0
C1547 C 0.50406 0.70928 0.22626 0.0
C1548 C 0.50668 0.75395 0.21016 0.0
C1549 C 0.47805 0.77579 0.20114 0.0
C1550 C 0.441 0.73985 0.19558 0.0
C1551 C 0.41368 0.76096 0.18714 0.0
C1552 C 0.42339 0.81785 0.18415 0.0
C1553 C 0.46058 0.85368 0.18957 0.0
C1554 C 0.48795 0.8328 0.19803 0.0
C1555 C 0.75638 0.68961 0.2212 0.0
C1556 C 0.78561 0.74059 0.21853 0.0
C1557 C 0.69551 0.68783 0.22145 0.0
C1558 C 0.66248 0.73723 0.2192 0.0
C1559 C 0.69182 0.78834 0.21669 0.0
C1560 C 0.7525 0.79 0.21636 0.0
C1561 C 0.59751 0.73547 0.21913 0.0
C1562 C 0.56761 0.75608 0.21082 0.0
C1563 C 0.56495 0.71279 0.22705 0.0
C1564 C 0.59274 0.69584 0.23648 0.0
C1565 C 0.62839 0.73508 0.24166 0.0
C1566 C 0.65357 0.71932 0.25061 0.0
C1567 C 0.64315 0.66454 0.25451 0.0
C1568 C 0.6077 0.62534 0.24944 0.0
C1569 C 0.58237 0.64088 0.24048 0.0
H1570 H 0.66238 0.65247 0.26146 0.0
H1571 H 0.40219 0.83412 0.17761 0.0
H1572 H 0.40498 0.53316 0.47378 0.0
H1573 H 0.41402 0.42811 0.47554 0.0
H1574 H 0.59932 0.44184 0.4721 0.0
H1575 H 0.59077 0.54731 0.47061 0.0
H1576 H 0.5403 0.35909 0.45914 0.0
H1577 H 0.55521 0.40995 0.49341 0.0
H1578 H 0.52543 0.4532 0.50916 0.0
H1579 H 0.36847 0.35311 0.50863 0.0
H1580 H 0.39702 0.30949 0.49279 0.0
H1581 H 0.60828 0.06587 0.46565 0.0
H1582 H 0.60697 0.17087 0.46758 0.0
H1583 H 0.43314 0.16171 0.47912 0.0
H1584 H 0.43516 0.05619 0.47757 0.0
H1585 H 0.48751 0.24344 0.48838 0.0
H1586 H 0.4635 0.1975 0.45441 0.0
H1587 H 0.48677 0.15184 0.43849 0.0
H1588 H 0.64921 0.24289 0.43778 0.0
H1589 H 0.62726 0.28849 0.45378 0.0
C1590 C 0.44774 0.51391 0.47347 0.0
C1591 C 0.49715 0.54865 0.47199 0.0
C1592 C 0.45285 0.45384 0.47453 0.0
C1593 C 0.50735 0.42698 0.47397 0.0
C1594 C 0.55683 0.46158 0.47258 0.0
C1595 C 0.55189 0.52186 0.47174 0.0
C1596 C 0.51215 0.36262 0.47418 0.0
C1597 C 0.52969 0.33384 0.46559 0.0
C1598 C 0.49604 0.32946 0.48246 0.0
C1599 C 0.47794 0.35702 0.49183 0.0
C1600 C 0.51392 0.39778 0.49656 0.0
C1601 C 0.49732 0.42225 0.50553 0.0
C1602 C 0.44489 0.40623 0.50987 0.0
C1603 C 0.40893 0.36568 0.50524 0.0
C1604 C 0.42536 0.34098 0.49627 0.0
C1605 C 0.56997 0.08606 0.46871 0.0
C1606 C 0.5216 0.05245 0.47135 0.0
C1607 C 0.56909 0.14635 0.46975 0.0
C1608 C 0.51932 0.17488 0.47324 0.0
C1609 C 0.47197 0.14115 0.47633 0.0
C1610 C 0.47314 0.08064 0.47542 0.0
C1611 C 0.51601 0.23965 0.47333 0.0
C1612 C 0.4984 0.26857 0.48193 0.0
C1613 C 0.5307 0.27308 0.46498 0.0
C1614 C 0.544 0.24594 0.45534 0.0
C1615 C 0.50437 0.20747 0.45089 0.0
C1616 C 0.5173 0.18164 0.44185 0.0
C1617 C 0.56951 0.19434 0.43714 0.0
C1618 C 0.60883 0.23302 0.44145 0.0
C1619 C 0.59616 0.2589 0.4505 0.0
H1620 H 0.57944 0.17431 0.43014 0.0
H1621 H 0.43232 0.42474 0.51685 0.0
H1622 H 0.79438 0.17734 0.72107 0.0
H1623 H 0.89977 0.18426 0.72284 0.0
H1624 H 0.88785 0.3702 0.72338 0.0
H1625 H 0.78201 0.36368 0.72173 0.0
H1626 H 0.97092 0.33274 0.71077 0.0
H1627 H 0.91071 0.28967 0.74312 0.0
H1628 H 0.86831 0.23891 0.75722 0.0
H1629 H 0.98458 0.09671 0.75256 0.0
H1630 H 0.02763 0.14678 0.73841 0.0
H1631 H 0.26878 0.38076 0.72036 0.0
H1632 H 0.16323 0.38064 0.72211 0.0
H1633 H 0.16481 0.19511 0.72514 0.0
H1634 H 0.27056 0.1952 0.72375 0.0
H1635 H 0.08637 0.23691 0.73682 0.0
H1636 H 0.13098 0.26616 0.70276 0.0
H1637 H 0.17661 0.31417 0.68861 0.0
H1638 H 0.08888 0.47236 0.69583 0.0
H1639 H 0.04328 0.42545 0.71011 0.0
C1640 C 0.81401 0.21982 0.72161 0.0
C1641 C 0.77951 0.26998 0.72117 0.0
C1642 C 0.87443 0.22365 0.72267 0.0
C1643 C 0.90202 0.27774 0.72331 0.0
C1644 C 0.86767 0.32795 0.72294 0.0
C1645 C 0.80709 0.32415 0.72198 0.0
C1646 C 0.96673 0.28197 0.72395 0.0
C1647 C 0.99598 0.31238 0.71656 0.0
C1648 C 0.99987 0.25385 0.73134 0.0
C1649 C 0.97232 0.22231 0.73963 0.0
C1650 C 0.92695 0.24751 0.74504 0.0
C1651 C 0.90271 0.21875 0.75304 0.0
C1652 C 0.92345 0.16442 0.75575 0.0
C1653 C 0.96845 0.13879 0.75044 0.0
C1654 C 0.99286 0.16749 0.74244 0.0
C1655 C 0.24678 0.33994 0.72148 0.0
C1656 C 0.27835 0.28793 0.72179 0.0
C1657 C 0.18618 0.33987 0.72243 0.0
C1658 C 0.15539 0.2877 0.72352 0.0
C1659 C 0.18713 0.23599 0.72425 0.0
C1660 C 0.24779 0.23609 0.72341 0.0
C1661 C 0.0903 0.28662 0.72353 0.0
C1662 C 0.06106 0.257 0.73103 0.0
C1663 C 0.05694 0.31419 0.71614 0.0
C1664 C 0.08425 0.34248 0.70756 0.0
C1665 C 0.12176 0.3113 0.70137 0.0
C1666 C 0.14756 0.33829 0.69332 0.0
C1667 C 0.13579 0.39633 0.69134 0.0
C1668 C 0.09805 0.42744 0.69739 0.0
C1669 C 0.07219 0.40068 0.70545 0.0
H1670 H 0.15579 0.41714 0.6851 0.0
H1671 H 0.90484 0.1423 0.76198 0.0
loop_
_geom_bond_atom_site_label_1
_geom_bond_atom_site_label_2
_geom_bond_distance
_geom_bond_site_symmetry_2
_ccdc_geom_bond_type
Zn0 N4 2.020 . S
Zn0 O8 2.019 . S
Zn0 N10 2.119 . S
Zn0 O18 1.975 . S
C1 N2 1.334 1_655 S
C1 N5 1.336 . S
N2 C1 1.334 1_455 S
N2 C3 1.334 . S
C3 N2 1.334 . S
C3 N4 1.336 . S
N4 Zn0 2.020 . S
N4 C3 1.336 . S
N4 N5 1.354 1_455 S
N5 C1 1.336 . S
N5 N4 1.354 1_655 S
N5 Zn9 2.020 . S
C6 O7 1.244 1_655 S
C6 O30 1.257 . S
O7 C6 1.244 1_455 S
O8 Zn0 2.019 . S
O8 C28 1.257 . S
Zn9 N5 2.020 . S
Zn9 O16 1.975 . S
Zn9 N25 2.119 . S
Zn9 O30 2.019 . S
N10 Zn0 2.119 . S
N10 C12 1.334 . S
N10 C13 1.328 . S
C11 C12 1.391 . S
C11 N14 1.329 . S
C11 H32 0.930 . S
C12 N10 1.334 . S
C12 C11 1.391 . S
C12 H19 0.930 . S
C13 N10 1.328 . S
C13 C15 1.392 . S
C13 H20 0.930 . S
N14 C11 1.329 . S
N14 C15 1.331 . S
C15 C13 1.392 . S
C15 N14 1.331 . S
O16 Zn9 1.975 . S
O16 C17 1.252 1_655 S
C17 O16 1.252 1_455 S
C17 O18 1.252 . S
O18 Zn0 1.975 . S
O18 C17 1.252 . S
H19 C12 0.930 . S
H20 C13 0.930 . S
C21 C22 1.392 . S
C21 N25 1.328 . S
C21 H27 0.930 . S
C22 C21 1.392 . S
C22 N26 1.331 . S
C23 C24 1.391 . S
C23 N26 1.329 . S
C23 H33 0.930 . S
C24 C23 1.391 . S
C24 N25 1.334 . S
C24 H31 0.930 . S
N25 Zn9 2.119 . S
N25 C21 1.328 . S
N25 C24 1.334 . S
N26 C22 1.331 . S
N26 C23 1.329 . S
H27 C21 0.930 . S
C28 O8 1.257 . S
C28 O29 1.244 1_455 S
O29 C28 1.244 1_655 S
O30 C6 1.257 . S
O30 Zn9 2.019 . S
H31 C24 0.930 . S
H32 C11 0.930 . S
H33 C23 0.930 . S
Zn34 N38 2.020 . S
Zn34 O42 2.019 . S
Zn34 N44 2.119 . S
Zn34 O52 1.975 . S
C35 N36 1.334 . S
C35 N39 1.336 . S
N36 C35 1.334 . S
N36 C37 1.334 . S
C37 N36 1.334 . S
C37 N38 1.336 . S
N38 Zn34 2.020 . S
N38 C37 1.336 . S
N38 N39 1.354 . S
N39 C35 1.336 . S
N39 N38 1.354 . S
N39 Zn43 2.020 . S
C40 O41 1.244 . S
C40 O64 1.257 . S
O41 C40 1.244 . S
O42 Zn34 2.019 . S
O42 C62 1.257 . S
Zn43 N39 2.020 . S
Zn43 O50 1.975 . S
Zn43 N59 2.119 . S
Zn43 O64 2.019 . S
N44 Zn34 2.119 . S
N44 C46 1.334 . S
N44 C47 1.328 . S
C45 C46 1.391 . S
C45 N48 1.329 . S
C45 H66 0.930 . S
C46 N44 1.334 . S
C46 C45 1.391 . S
C46 H53 0.930 . S
C47 N44 1.328 . S
C47 C49 1.392 . S
C47 H54 0.930 . S
N48 C45 1.329 . S
N48 C49 1.331 . S
C49 C47 1.392 . S
C49 N48 1.331 . S
O50 Zn43 1.975 . S
O50 C51 1.252 . S
C51 O50 1.252 . S
C51 O52 1.252 . S
O52 Zn34 1.975 . S
O52 C51 1.252 . S
H53 C46 0.930 . S
H54 C47 0.930 . S
C55 C56 1.392 . S
C55 N59 1.328 . S
C55 H61 0.930 . S
C56 C55 1.392 . S
C56 N60 1.331 . S
C57 C58 1.391 . S
C57 N60 1.329 . S
C57 H67 0.930 . S
C58 C57 1.391 . S
C58 N59 1.334 . S
C58 H65 0.930 . S
N59 Zn43 2.119 . S
N59 C55 1.328 . S
N59 C58 1.334 . S
N60 C56 1.331 . S
N60 C57 1.329 . S
H61 C55 0.930 . S
C62 O42 1.257 . S
C62 O63 1.244 . S
O63 C62 1.244 . S
O64 C40 1.257 . S
O64 Zn43 2.019 . S
H65 C58 0.930 . S
H66 C45 0.930 . S
H67 C57 0.930 . S
Zn68 N72 2.020 . S
Zn68 O76 2.019 . S
Zn68 N78 2.119 . S
Zn68 O86 1.975 . S
C69 N70 1.334 . S
C69 N73 1.336 . S
N70 C69 1.334 . S
N70 C71 1.334 . S
C71 N70 1.334 . S
C71 N72 1.336 . S
N72 Zn68 2.020 . S
N72 C71 1.336 . S
N72 N73 1.354 . S
N73 C69 1.336 . S
N73 N72 1.354 . S
N73 Zn77 2.020 . S
C74 O75 1.244 . S
C74 O98 1.257 . S
O75 C74 1.244 . S
O76 Zn68 2.019 . S
O76 C96 1.257 . S
Zn77 N73 2.020 . S
Zn77 O84 1.975 . S
Zn77 N93 2.119 . S
Zn77 O98 2.019 . S
N78 Zn68 2.119 . S
N78 C80 1.334 . S
N78 C81 1.328 . S
C79 C80 1.391 . S
C79 N82 1.329 . S
C79 H100 0.930 . S
C80 N78 1.334 . S
C80 C79 1.391 . S
C80 H87 0.930 . S
C81 N78 1.328 . S
C81 C83 1.392 . S
C81 H88 0.930 . S
N82 C79 1.329 . S
N82 C83 1.331 . S
C83 C81 1.392 . S
C83 N82 1.331 . S
O84 Zn77 1.975 . S
O84 C85 1.252 . S
C85 O84 1.252 . S
C85 O86 1.252 . S
O86 Zn68 1.975 . S
O86 C85 1.252 . S
H87 C80 0.930 . S
H88 C81 0.930 . S
C89 C90 1.392 . S
C89 N93 1.328 . S
C89 H95 0.930 . S
C90 C89 1.392 . S
C90 N94 1.331 . S
C91 C92 1.391 . S
C91 N94 1.329 . S
C91 H101 0.930 . S
C92 C91 1.391 . S
C92 N93 1.334 . S
C92 H99 0.930 . S
N93 Zn77 2.119 . S
N93 C89 1.328 . S
N93 C92 1.334 . S
N94 C90 1.331 . S
N94 C91 1.329 . S
H95 C89 0.930 . S
C96 O76 1.257 . S
C96 O97 1.244 . S
O97 C96 1.244 . S
O98 C74 1.257 . S
O98 Zn77 2.019 . S
H99 C92 0.930 . S
H100 C79 0.930 . S
H101 C91 0.930 . S
Zn102 N106 2.020 . S
Zn102 O110 2.019 . S
Zn102 N112 2.119 . S
Zn102 O120 1.975 . S
C103 N104 1.334 . S
C103 N107 1.336 . S
N104 C103 1.334 . S
N104 C105 1.334 1_455 S
C105 N104 1.334 1_655 S
C105 N106 1.336 . S
N106 Zn102 2.020 . S
N106 C105 1.336 . S
N106 N107 1.354 1_655 S
N107 C103 1.336 . S
N107 N106 1.354 1_455 S
N107 Zn111 2.020 . S
C108 O109 1.244 . S
C108 O132 1.257 . S
O109 C108 1.244 . S
O110 Zn102 2.019 . S
O110 C130 1.257 . S
Zn111 N107 2.020 . S
Zn111 O118 1.975 . S
Zn111 N127 2.119 . S
Zn111 O132 2.019 . S
N112 Zn102 2.119 . S
N112 C114 1.334 1_655 S
N112 C115 1.328 . S
C113 C114 1.391 . S
C113 N116 1.323 1_455 S
C113 H134 0.930 . S
C114 N112 1.334 1_455 S
C114 C113 1.391 . S
C114 H121 0.930 . S
C115 N112 1.328 . S
C115 C117 1.392 . S
C115 H122 0.930 . S
N116 C113 1.323 1_655 S
N116 C117 1.340 . S
C117 C115 1.392 . S
C117 N116 1.340 . S
O118 Zn111 1.975 . S
O118 C119 1.252 . S
C119 O118 1.252 . S
C119 O120 1.252 1_455 S
O120 Zn102 1.975 . S
O120 C119 1.252 1_655 S
H121 C114 0.930 . S
H122 C115 0.930 . S
C123 C124 1.392 . S
C123 N127 1.328 . S
C123 H129 0.930 . S
C124 C123 1.392 . S
C124 N128 1.345 . S
C125 C126 1.391 . S
C125 N128 1.320 1_655 S
C125 H135 0.930 . S
C126 C125 1.391 . S
C126 N127 1.334 1_655 S
C126 H133 0.930 . S
N127 Zn111 2.119 . S
N127 C123 1.328 . S
N127 C126 1.334 1_455 S
N128 C124 1.345 . S
N128 C125 1.320 1_455 S
H129 C123 0.930 . S
C130 O110 1.257 . S
C130 O131 1.244 . S
O131 C130 1.244 . S
O132 C108 1.257 . S
O132 Zn111 2.019 . S
H133 C126 0.930 . S
H134 C113 0.930 . S
H135 C125 0.930 . S
Zn136 N140 2.020 . S
Zn136 O144 2.019 . S
Zn136 N146 2.119 . S
Zn136 O154 1.975 . S
C137 N138 1.334 . S
C137 N141 1.336 . S
N138 C137 1.334 . S
N138 C139 1.334 1_455 S
C139 N138 1.334 1_655 S
C139 N140 1.336 . S
N140 Zn136 2.020 . S
N140 C139 1.336 . S
N140 N141 1.354 1_655 S
N141 C137 1.336 . S
N141 N140 1.354 1_455 S
N141 Zn145 2.020 . S
C142 O143 1.244 1_455 S
C142 O166 1.257 . S
O143 C142 1.244 1_655 S
O144 Zn136 2.019 . S
O144 C164 1.257 . S
Zn145 N141 2.020 . S
Zn145 O152 1.975 . S
Zn145 N161 2.119 . S
Zn145 O166 2.019 . S
N146 Zn136 2.119 . S
N146 C148 1.334 . S
N146 C149 1.328 . S
C147 C148 1.391 . S
C147 N150 1.329 . S
C147 H168 0.930 . S
C148 N146 1.334 . S
C148 C147 1.391 . S
C148 H155 0.930 . S
C149 N146 1.328 . S
C149 C151 1.392 . S
C149 H156 0.930 . S
N150 C147 1.329 . S
N150 C151 1.331 . S
C151 C149 1.392 . S
C151 N150 1.331 . S
O152 Zn145 1.975 . S
O152 C153 1.252 . S
C153 O152 1.252 . S
C153 O154 1.252 1_455 S
O154 Zn136 1.975 . S
O154 C153 1.252 1_655 S
H155 C148 0.930 . S
H156 C149 0.930 . S
C157 C158 1.392 . S
C157 N161 1.328 . S
C157 H163 0.930 . S
C158 C157 1.392 . S
C158 N162 1.331 . S
C159 C160 1.391 . S
C159 N162 1.329 . S
C159 H169 0.930 . S
C160 C159 1.391 . S
C160 N161 1.334 . S
C160 H167 0.930 . S
N161 Zn145 2.119 . S
N161 C157 1.328 . S
N161 C160 1.334 . S
N162 C158 1.331 . S
N162 C159 1.329 . S
H163 C157 0.930 . S
C164 O144 1.257 . S
C164 O165 1.244 1_655 S
O165 C164 1.244 1_455 S
O166 C142 1.257 . S
O166 Zn145 2.019 . S
H167 C160 0.930 . S
H168 C147 0.930 . S
H169 C159 0.930 . S
Zn170 N174 2.020 . S
Zn170 O178 2.019 . S
Zn170 N180 2.119 . S
Zn170 O188 1.975 . S
C171 N172 1.334 . S
C171 N175 1.336 . S
N172 C171 1.334 . S
N172 C173 1.334 1_455 S
C173 N172 1.334 1_655 S
C173 N174 1.336 . S
N174 Zn170 2.020 . S
N174 C173 1.336 . S
N174 N175 1.354 1_655 S
N175 C171 1.336 . S
N175 N174 1.354 1_455 S
N175 Zn179 2.020 . S
C176 O177 1.244 . S
C176 O200 1.257 . S
O177 C176 1.244 . S
O178 Zn170 2.019 . S
O178 C198 1.257 . S
Zn179 N175 2.020 . S
Zn179 O186 1.975 . S
Zn179 N195 2.119 . S
Zn179 O200 2.019 . S
N180 Zn170 2.119 . S
N180 C182 1.334 1_655 S
N180 C183 1.328 . S
C181 C182 1.391 . S
C181 N184 1.323 1_455 S
C181 H202 0.930 . S
C182 N180 1.334 1_455 S
C182 C181 1.391 . S
C182 H189 0.930 . S
C183 N180 1.328 . S
C183 C185 1.392 . S
C183 H190 0.930 . S
N184 C181 1.323 1_655 S
N184 C185 1.340 . S
C185 C183 1.392 . S
C185 N184 1.340 . S
O186 Zn179 1.975 . S
O186 C187 1.252 . S
C187 O186 1.252 . S
C187 O188 1.252 1_455 S
O188 Zn170 1.975 . S
O188 C187 1.252 1_655 S
H189 C182 0.930 . S
H190 C183 0.930 . S
C191 C192 1.392 . S
C191 N195 1.328 . S
C191 H197 0.930 . S
C192 C191 1.392 . S
C192 N196 1.345 . S
C193 C194 1.391 . S
C193 N196 1.320 1_655 S
C193 H203 0.930 . S
C194 C193 1.391 . S
C194 N195 1.334 1_655 S
C194 H201 0.930 . S
N195 Zn179 2.119 . S
N195 C191 1.328 . S
N195 C194 1.334 1_455 S
N196 C192 1.345 . S
N196 C193 1.320 1_455 S
H197 C191 0.930 . S
C198 O178 1.257 . S
C198 O199 1.244 . S
O199 C198 1.244 . S
O200 C176 1.257 . S
O200 Zn179 2.019 . S
H201 C194 0.930 . S
H202 C181 0.930 . S
H203 C193 0.930 . S
Zn204 N208 2.020 . S
Zn204 O212 2.019 . S
Zn204 N214 2.119 . S
Zn204 O222 1.975 . S
C205 N206 1.334 . S
C205 N209 1.336 . S
N206 C205 1.334 . S
N206 C207 1.334 . S
C207 N206 1.334 . S
C207 N208 1.336 . S
N208 Zn204 2.020 . S
N208 C207 1.336 . S
N208 N209 1.354 . S
N209 C205 1.336 . S
N209 N208 1.354 . S
N209 Zn213 2.020 . S
C210 O211 1.244 . S
C210 O234 1.257 . S
O211 C210 1.244 . S
O212 Zn204 2.019 . S
O212 C232 1.257 . S
Zn213 N209 2.020 . S
Zn213 O220 1.975 . S
Zn213 N229 2.119 . S
Zn213 O234 2.019 . S
N214 Zn204 2.119 . S
N214 C216 1.334 . S
N214 C217 1.328 . S
C215 C216 1.391 . S
C215 N218 1.329 . S
C215 H236 0.930 . S
C216 N214 1.334 . S
C216 C215 1.391 . S
C216 H223 0.930 . S
C217 N214 1.328 . S
C217 C219 1.392 . S
C217 H224 0.930 . S
N218 C215 1.329 . S
N218 C219 1.331 . S
C219 C217 1.392 . S
C219 N218 1.331 . S
O220 Zn213 1.975 . S
O220 C221 1.252 . S
C221 O220 1.252 . S
C221 O222 1.252 . S
O222 Zn204 1.975 . S
O222 C221 1.252 . S
H223 C216 0.930 . S
H224 C217 0.930 . S
C225 C226 1.392 . S
C225 N229 1.328 . S
C225 H231 0.930 . S
C226 C225 1.392 . S
C226 N230 1.331 . S
C227 C228 1.391 . S
C227 N230 1.329 . S
C227 H237 0.930 . S
C228 C227 1.391 . S
C228 N229 1.334 . S
C228 H235 0.930 . S
N229 Zn213 2.119 . S
N229 C225 1.328 . S
N229 C228 1.334 . S
N230 C226 1.331 . S
N230 C227 1.329 . S
H231 C225 0.930 . S
C232 O212 1.257 . S
C232 O233 1.244 . S
O233 C232 1.244 . S
O234 C210 1.257 . S
O234 Zn213 2.019 . S
H235 C228 0.930 . S
H236 C215 0.930 . S
H237 C227 0.930 . S
Zn238 N242 2.020 . S
Zn238 O246 2.019 . S
Zn238 N248 2.119 . S
Zn238 O256 1.975 . S
C239 N240 1.334 . S
C239 N243 1.336 . S
N240 C239 1.334 . S
N240 C241 1.334 . S
C241 N240 1.334 . S
C241 N242 1.336 . S
N242 Zn238 2.020 . S
N242 C241 1.336 . S
N242 N243 1.354 . S
N243 C239 1.336 . S
N243 N242 1.354 . S
N243 Zn247 2.020 . S
C244 O245 1.244 . S
C244 O268 1.257 . S
O245 C244 1.244 . S
O246 Zn238 2.019 . S
O246 C266 1.257 . S
Zn247 N243 2.020 . S
Zn247 O254 1.975 . S
Zn247 N263 2.119 . S
Zn247 O268 2.019 . S
N248 Zn238 2.119 . S
N248 C250 1.334 . S
N248 C251 1.328 . S
C249 C250 1.391 . S
C249 N252 1.329 . S
C249 H270 0.930 . S
C250 N248 1.334 . S
C250 C249 1.391 . S
C250 H257 0.930 . S
C251 N248 1.328 . S
C251 C253 1.392 . S
C251 H258 0.930 . S
N252 C249 1.329 . S
N252 C253 1.331 . S
C253 C251 1.392 . S
C253 N252 1.331 . S
O254 Zn247 1.975 . S
O254 C255 1.252 . S
C255 O254 1.252 . S
C255 O256 1.252 . S
O256 Zn238 1.975 . S
O256 C255 1.252 . S
H257 C250 0.930 . S
H258 C251 0.930 . S
C259 C260 1.392 . S
C259 N263 1.328 . S
C259 H265 0.930 . S
C260 C259 1.392 . S
C260 N264 1.331 . S
C261 C262 1.391 . S
C261 N264 1.329 . S
C261 H271 0.930 . S
C262 C261 1.391 . S
C262 N263 1.334 . S
C262 H269 0.930 . S
N263 Zn247 2.119 . S
N263 C259 1.328 . S
N263 C262 1.334 . S
N264 C260 1.331 . S
N264 C261 1.329 . S
H265 C259 0.930 . S
C266 O246 1.257 . S
C266 O267 1.244 . S
O267 C266 1.244 . S
O268 C244 1.257 . S
O268 Zn247 2.019 . S
H269 C262 0.930 . S
H270 C249 0.930 . S
H271 C261 0.930 . S
H272 C290 0.951 . S
H273 C292 0.951 . S
H274 C294 0.950 . S
H275 C295 0.950 . S
H276 C297 0.950 . S
H277 C300 0.950 . S
H278 C301 0.950 . S
H279 C303 0.950 . S
H280 C304 0.950 . S
H281 C305 0.951 . S
H282 C307 0.951 . S
H283 C309 0.950 . S
H284 C310 0.950 . S
H285 C312 0.950 . S
H286 C315 0.950 . S
H287 C316 0.950 . S
H288 C318 0.950 . S
H289 C319 0.950 . S
C290 H272 0.951 . S
C290 C291 1.365 1_655 S
C290 C292 1.388 . S
C291 C290 1.365 1_455 S
C291 C295 1.386 . S
C292 H273 0.951 . S
C292 C290 1.388 . S
C292 C293 1.379 . S
C293 C292 1.379 . S
C293 C294 1.400 1_655 S
C293 C296 1.498 1_655 S
C294 H274 0.950 . S
C294 C293 1.400 1_455 S
C294 C295 1.374 . S
C295 H275 0.950 . S
C295 C291 1.386 . S
C295 C294 1.374 . S
C296 C293 1.498 1_455 S
C296 C297 1.384 . S
C296 C298 1.378 1_455 S
C297 H276 0.950 . S
C297 C296 1.384 . S
C297 C313 1.377 . S
C298 C296 1.378 1_655 S
C298 C299 1.524 . S
C298 C312 1.377 . S
C299 C298 1.524 . S
C299 C300 1.397 . S
C299 C304 1.363 . S
C300 H277 0.950 . S
C300 C299 1.397 . S
C300 C301 1.334 . S
C301 H278 0.950 . S
C301 C300 1.334 . S
C301 C302 1.287 . S
C302 C301 1.287 . S
C302 C303 1.524 . S
C302 H321 0.913 . S
C303 H279 0.950 . S
C303 C302 1.524 . S
C303 C304 1.415 . S
C304 H280 0.950 . S
C304 C299 1.363 . S
C304 C303 1.415 . S
C305 H281 0.951 . S
C305 C306 1.365 . S
C305 C307 1.388 . S
C306 C305 1.365 . S
C306 C310 1.386 1_455 S
C307 H282 0.951 . S
C307 C305 1.388 . S
C307 C308 1.366 . S
C308 C307 1.366 . S
C308 C309 1.414 1_455 S
C308 C311 1.498 1_455 S
C309 H283 0.950 . S
C309 C308 1.414 1_655 S
C309 C310 1.374 . S
C310 H284 0.950 . S
C310 C306 1.386 1_655 S
C310 C309 1.374 . S
C311 C308 1.498 1_655 S
C311 C312 1.381 . S
C311 C313 1.382 1_655 S
C312 H285 0.950 . S
C312 C298 1.377 . S
C312 C311 1.381 . S
C313 C297 1.377 . S
C313 C311 1.382 1_455 S
C313 C314 1.524 . S
C314 C313 1.524 . S
C314 C315 1.397 . S
C314 C319 1.363 . S
C315 H286 0.950 . S
C315 C314 1.397 . S
C315 C316 1.334 . S
C316 H287 0.950 . S
C316 C315 1.334 . S
C316 C317 1.287 . S
C317 C316 1.287 . S
C317 C318 1.524 . S
C317 H320 0.999 . S
C318 H288 0.950 . S
C318 C317 1.524 . S
C318 C319 1.415 . S
C319 H289 0.950 . S
C319 C314 1.363 . S
C319 C318 1.415 . S
H320 C317 0.999 . S
H321 C302 0.913 . S
H322 C340 0.951 . S
H323 C342 0.951 . S
H324 C344 0.950 . S
H325 C345 0.950 . S
H326 C347 0.950 . S
H327 C350 0.950 . S
H328 C351 0.950 . S
H329 C353 0.950 . S
H330 C354 0.950 . S
H331 C355 0.951 . S
H332 C357 0.951 . S
H333 C359 0.950 . S
H334 C360 0.950 . S
H335 C362 0.950 . S
H336 C365 0.950 . S
H337 C366 0.950 . S
H338 C368 0.950 . S
H339 C369 0.950 . S
C340 H322 0.951 . S
C340 C341 1.366 . S
C340 C342 1.388 . S
C341 C340 1.366 . S
C341 C345 1.385 . S
C342 H323 0.951 . S
C342 C340 1.388 . S
C342 C343 1.366 . S
C343 C342 1.366 . S
C343 C344 1.414 . S
C343 C346 1.499 . S
C344 H324 0.950 . S
C344 C343 1.414 . S
C344 C345 1.374 . S
C345 H325 0.950 . S
C345 C341 1.385 . S
C345 C344 1.374 . S
C346 C343 1.499 . S
C346 C347 1.373 . S
C346 C348 1.389 . S
C347 H326 0.950 . S
C347 C346 1.373 . S
C347 C363 1.377 . S
C348 C346 1.389 . S
C348 C349 1.524 . S
C348 C362 1.377 . S
C349 C348 1.524 . S
C349 C350 1.397 . S
C349 C354 1.363 . S
C350 H327 0.950 . S
C350 C349 1.397 . S
C350 C351 1.334 . S
C351 H328 0.950 . S
C351 C350 1.334 . S
C351 C352 1.287 . S
C352 C351 1.287 . S
C352 C353 1.524 . S
C352 H371 0.913 . S
C353 H329 0.950 . S
C353 C352 1.524 . S
C353 C354 1.415 . S
C354 H330 0.950 . S
C354 C349 1.363 . S
C354 C353 1.415 . S
C355 H331 0.951 . S
C355 C356 1.366 . S
C355 C357 1.388 . S
C356 C355 1.366 . S
C356 C360 1.385 . S
C357 H332 0.951 . S
C357 C355 1.388 . S
C357 C358 1.366 . S
C358 C357 1.366 . S
C358 C359 1.414 . S
C358 C361 1.499 . S
C359 H333 0.950 . S
C359 C358 1.414 . S
C359 C360 1.374 . S
C360 H334 0.950 . S
C360 C356 1.385 . S
C360 C359 1.374 . S
C361 C358 1.499 . S
C361 C362 1.373 . S
C361 C363 1.389 . S
C362 H335 0.950 . S
C362 C348 1.377 . S
C362 C361 1.373 . S
C363 C347 1.377 . S
C363 C361 1.389 . S
C363 C364 1.524 . S
C364 C363 1.524 . S
C364 C365 1.397 . S
C364 C369 1.363 . S
C365 H336 0.950 . S
C365 C364 1.397 . S
C365 C366 1.334 . S
C366 H337 0.950 . S
C366 C365 1.334 . S
C366 C367 1.287 . S
C367 C366 1.287 . S
C367 C368 1.524 . S
C367 H370 0.999 . S
C368 H338 0.950 . S
C368 C367 1.524 . S
C368 C369 1.415 . S
C369 H339 0.950 . S
C369 C364 1.363 . S
C369 C368 1.415 . S
H370 C367 0.999 . S
H371 C352 0.913 . S
H372 C390 0.951 . S
H373 C392 0.951 . S
H374 C394 0.950 . S
H375 C395 0.950 . S
H376 C397 0.950 . S
H377 C400 0.950 . S
H378 C401 0.950 . S
H379 C403 0.950 . S
H380 C404 0.950 . S
H381 C405 0.951 . S
H382 C407 0.951 . S
H383 C409 0.950 . S
H384 C410 0.950 . S
H385 C412 0.950 . S
H386 C415 0.950 . S
H387 C416 0.950 . S
H388 C418 0.950 . S
H389 C419 0.950 . S
C390 H372 0.951 . S
C390 C391 1.366 . S
C390 C392 1.388 . S
C391 C390 1.366 . S
C391 C395 1.385 . S
C392 H373 0.951 . S
C392 C390 1.388 . S
C392 C393 1.366 . S
C393 C392 1.366 . S
C393 C394 1.414 . S
C393 C396 1.499 . S
C394 H374 0.950 . S
C394 C393 1.414 . S
C394 C395 1.374 . S
C395 H375 0.950 . S
C395 C391 1.385 . S
C395 C394 1.374 . S
C396 C393 1.499 . S
C396 C397 1.373 . S
C396 C398 1.389 . S
C397 H376 0.950 . S
C397 C396 1.373 . S
C397 C413 1.377 . S
C398 C396 1.389 . S
C398 C399 1.524 . S
C398 C412 1.377 . S
C399 C398 1.524 . S
C399 C400 1.397 . S
C399 C404 1.363 . S
C400 H377 0.950 . S
C400 C399 1.397 . S
C400 C401 1.334 . S
C401 H378 0.950 . S
C401 C400 1.334 . S
C401 C402 1.287 . S
C402 C401 1.287 . S
C402 C403 1.524 . S
C402 H421 0.913 . S
C403 H379 0.950 . S
C403 C402 1.524 . S
C403 C404 1.415 . S
C404 H380 0.950 . S
C404 C399 1.363 . S
C404 C403 1.415 . S
C405 H381 0.951 . S
C405 C406 1.366 . S
C405 C407 1.388 . S
C406 C405 1.366 . S
C406 C410 1.385 . S
C407 H382 0.951 . S
C407 C405 1.388 . S
C407 C408 1.366 . S
C408 C407 1.366 . S
C408 C409 1.414 . S
C408 C411 1.499 . S
C409 H383 0.950 . S
C409 C408 1.414 . S
C409 C410 1.374 . S
C410 H384 0.950 . S
C410 C406 1.385 . S
C410 C409 1.374 . S
C411 C408 1.499 . S
C411 C412 1.373 . S
C411 C413 1.389 . S
C412 H385 0.950 . S
C412 C398 1.377 . S
C412 C411 1.373 . S
C413 C397 1.377 . S
C413 C411 1.389 . S
C413 C414 1.524 . S
C414 C413 1.524 . S
C414 C415 1.397 . S
C414 C419 1.363 . S
C415 H386 0.950 . S
C415 C414 1.397 . S
C415 C416 1.334 . S
C416 H387 0.950 . S
C416 C415 1.334 . S
C416 C417 1.287 . S
C417 C416 1.287 . S
C417 C418 1.524 . S
C417 H420 0.999 . S
C418 H388 0.950 . S
C418 C417 1.524 . S
C418 C419 1.415 . S
C419 H389 0.950 . S
C419 C414 1.363 . S
C419 C418 1.415 . S
H420 C417 0.999 . S
H421 C402 0.913 . S
H422 C440 0.951 . S
H423 C442 0.951 . S
H424 C444 0.950 . S
H425 C445 0.950 . S
H426 C447 0.950 . S
H427 C450 0.950 . S
H428 C451 0.950 . S
H429 C453 0.950 . S
H430 C454 0.950 . S
H431 C455 0.951 . S
H432 C457 0.951 . S
H433 C459 0.950 . S
H434 C460 0.950 . S
H435 C462 0.950 . S
H436 C465 0.950 . S
H437 C466 0.950 . S
H438 C468 0.950 . S
H439 C469 0.950 . S
C440 H422 0.951 . S
C440 C441 1.365 1_655 S
C440 C442 1.388 . S
C441 C440 1.365 1_455 S
C441 C445 1.385 . S
C442 H423 0.951 . S
C442 C440 1.388 . S
C442 C443 1.366 . S
C443 C442 1.366 . S
C443 C444 1.414 1_655 S
C443 C446 1.499 . S
C444 H424 0.950 . S
C444 C443 1.414 1_455 S
C444 C445 1.374 . S
C445 H425 0.950 . S
C445 C441 1.385 . S
C445 C444 1.374 . S
C446 C443 1.499 . S
C446 C447 1.373 1_655 S
C446 C448 1.389 . S
C447 H426 0.950 . S
C447 C446 1.373 1_455 S
C447 C463 1.377 . S
C448 C446 1.389 . S
C448 C449 1.524 . S
C448 C462 1.377 . S
C449 C448 1.524 . S
C449 C450 1.397 . S
C449 C454 1.363 . S
C450 H427 0.950 . S
C450 C449 1.397 . S
C450 C451 1.334 . S
C451 H428 0.950 . S
C451 C450 1.334 . S
C451 C452 1.287 . S
C452 C451 1.287 . S
C452 C453 1.524 . S
C452 H471 0.913 . S
C453 H429 0.950 . S
C453 C452 1.524 . S
C453 C454 1.415 . S
C454 H430 0.950 . S
C454 C449 1.363 . S
C454 C453 1.415 . S
C455 H431 0.951 . S
C455 C456 1.365 . S
C455 C457 1.388 . S
C456 C455 1.365 . S
C456 C460 1.385 1_455 S
C457 H432 0.951 . S
C457 C455 1.388 . S
C457 C458 1.366 . S
C458 C457 1.366 . S
C458 C459 1.414 1_455 S
C458 C461 1.499 . S
C459 H433 0.950 . S
C459 C458 1.414 1_655 S
C459 C460 1.374 . S
C460 H434 0.950 . S
C460 C456 1.385 1_655 S
C460 C459 1.374 . S
C461 C458 1.499 . S
C461 C462 1.373 1_455 S
C461 C463 1.389 . S
C462 H435 0.950 . S
C462 C448 1.377 . S
C462 C461 1.373 1_655 S
C463 C447 1.377 . S
C463 C461 1.389 . S
C463 C464 1.524 . S
C464 C463 1.524 . S
C464 C465 1.397 . S
C464 C469 1.363 . S
C465 H436 0.950 . S
C465 C464 1.397 . S
C465 C466 1.334 . S
C466 H437 0.950 . S
C466 C465 1.334 . S
C466 C467 1.287 . S
C467 C466 1.287 . S
C467 C468 1.524 . S
C467 H470 0.999 . S
C468 H438 0.950 . S
C468 C467 1.524 . S
C468 C469 1.415 . S
C469 H439 0.950 . S
C469 C464 1.363 . S
C469 C468 1.415 . S
H470 C467 0.999 . S
H471 C452 0.913 . S
H472 C490 0.951 . S
H473 C492 0.951 . S
H474 C494 0.950 1_455 S
H475 C495 0.950 1_455 S
H476 C497 0.950 . S
H477 C500 0.950 . S
H478 C501 0.950 . S
H479 C503 0.950 . S
H480 C504 0.950 . S
H481 C505 0.951 1_455 S
H482 C507 0.951 1_455 S
H483 C509 0.950 . S
H484 C510 0.950 . S
H485 C512 0.950 . S
H486 C515 0.950 . S
H487 C516 0.950 . S
H488 C518 0.950 . S
H489 C519 0.950 . S
C490 H472 0.951 . S
C490 C491 1.366 . S
C490 C492 1.388 . S
C491 C490 1.366 . S
C491 C495 1.385 . S
C492 H473 0.951 . S
C492 C490 1.388 . S
C492 C493 1.366 . S
C493 C492 1.366 . S
C493 C494 1.414 . S
C493 C496 1.499 . S
C494 H474 0.950 1_655 S
C494 C493 1.414 . S
C494 C495 1.374 . S
C495 H475 0.950 1_655 S
C495 C491 1.385 . S
C495 C494 1.374 . S
C496 C493 1.499 . S
C496 C497 1.373 1_556 S
C496 C498 1.389 . S
C497 H476 0.950 . S
C497 C496 1.373 1_554 S
C497 C513 1.377 . S
C498 C496 1.389 . S
C498 C499 1.524 1_655 S
C498 C512 1.377 . S
C499 C498 1.524 1_455 S
C499 C500 1.398 . S
C499 C504 1.362 1_455 S
C500 H477 0.950 . S
C500 C499 1.398 . S
C500 C501 1.334 . S
C501 H478 0.950 . S
C501 C500 1.334 . S
C501 C502 1.287 . S
C502 C501 1.287 . S
C502 C503 1.524 1_455 S
C502 H521 0.913 . S
C503 H479 0.950 . S
C503 C502 1.524 1_655 S
C503 C504 1.415 . S
C504 H480 0.950 . S
C504 C499 1.362 1_655 S
C504 C503 1.415 . S
C505 H481 0.951 1_655 S
C505 C506 1.366 . S
C505 C507 1.388 . S
C506 C505 1.366 . S
C506 C510 1.385 . S
C507 H482 0.951 1_655 S
C507 C505 1.388 . S
C507 C508 1.366 . S
C508 C507 1.366 . S
C508 C509 1.414 . S
C508 C511 1.499 . S
C509 H483 0.950 . S
C509 C508 1.414 . S
C509 C510 1.374 . S
C510 H484 0.950 . S
C510 C506 1.385 . S
C510 C509 1.374 . S
C511 C508 1.499 . S
C511 C512 1.373 1_554 S
C511 C513 1.389 . S
C512 H485 0.950 . S
C512 C498 1.377 . S
C512 C511 1.373 1_556 S
C513 C497 1.377 . S
C513 C511 1.389 . S
C513 C514 1.524 . S
C514 C513 1.524 . S
C514 C515 1.397 . S
C514 C519 1.363 . S
C515 H486 0.950 . S
C515 C514 1.397 . S
C515 C516 1.334 . S
C516 H487 0.950 . S
C516 C515 1.334 . S
C516 C517 1.287 . S
C517 C516 1.287 . S
C517 C518 1.524 . S
C517 H520 0.999 . S
C518 H488 0.950 . S
C518 C517 1.524 . S
C518 C519 1.415 . S
C519 H489 0.950 . S
C519 C514 1.363 . S
C519 C518 1.415 . S
H520 C517 0.999 . S
H521 C502 0.913 . S
H522 C540 0.951 . S
H523 C542 0.951 . S
H524 C544 0.950 . S
H525 C545 0.950 . S
H526 C547 0.950 . S
H527 C550 0.950 . S
H528 C551 0.950 . S
H529 C553 0.950 . S
H530 C554 0.950 . S
H531 C555 0.951 . S
H532 C557 0.951 . S
H533 C559 0.950 . S
H534 C560 0.950 . S
H535 C562 0.950 . S
H536 C565 0.950 . S
H537 C566 0.950 . S
H538 C568 0.950 . S
H539 C569 0.950 . S
C540 H522 0.951 . S
C540 C541 1.366 . S
C540 C542 1.388 . S
C541 C540 1.366 . S
C541 C545 1.385 . S
C542 H523 0.951 . S
C542 C540 1.388 . S
C542 C543 1.366 . S
C543 C542 1.366 . S
C543 C544 1.414 . S
C543 C546 1.499 . S
C544 H524 0.950 . S
C544 C543 1.414 . S
C544 C545 1.374 . S
C545 H525 0.950 . S
C545 C541 1.385 . S
C545 C544 1.374 . S
C546 C543 1.499 . S
C546 C547 1.373 . S
C546 C548 1.389 . S
C547 H526 0.950 . S
C547 C546 1.373 . S
C547 C563 1.377 . S
C548 C546 1.389 . S
C548 C549 1.524 . S
C548 C562 1.377 . S
C549 C548 1.524 . S
C549 C550 1.397 . S
C549 C554 1.363 . S
C550 H527 0.950 . S
C550 C549 1.397 . S
C550 C551 1.334 . S
C551 H528 0.950 . S
C551 C550 1.334 . S
C551 C552 1.287 . S
C552 C551 1.287 . S
C552 C553 1.524 . S
C552 H571 0.913 . S
C553 H529 0.950 . S
C553 C552 1.524 . S
C553 C554 1.415 . S
C554 H530 0.950 . S
C554 C549 1.363 . S
C554 C553 1.415 . S
C555 H531 0.951 . S
C555 C556 1.366 . S
C555 C557 1.388 . S
C556 C555 1.366 . S
C556 C560 1.385 . S
C557 H532 0.951 . S
C557 C555 1.388 . S
C557 C558 1.366 . S
C558 C557 1.366 . S
C558 C559 1.414 . S
C558 C561 1.499 . S
C559 H533 0.950 . S
C559 C558 1.414 . S
C559 C560 1.374 . S
C560 H534 0.950 . S
C560 C556 1.385 . S
C560 C559 1.374 . S
C561 C558 1.499 . S
C561 C562 1.373 . S
C561 C563 1.389 . S
C562 H535 0.950 . S
C562 C548 1.377 . S
C562 C561 1.373 . S
C563 C547 1.377 . S
C563 C561 1.389 . S
C563 C564 1.524 . S
C564 C563 1.524 . S
C564 C565 1.397 . S
C564 C569 1.363 . S
C565 H536 0.950 . S
C565 C564 1.397 . S
C565 C566 1.334 . S
C566 H537 0.950 . S
C566 C565 1.334 . S
C566 C567 1.287 . S
C567 C566 1.287 . S
C567 C568 1.524 . S
C567 H570 0.999 . S
C568 H538 0.950 . S
C568 C567 1.524 . S
C568 C569 1.415 . S
C569 H539 0.950 . S
C569 C564 1.363 . S
C569 C568 1.415 . S
H570 C567 0.999 . S
H571 C552 0.913 . S
H572 C590 0.951 . S
H573 C592 0.951 . S
H574 C594 0.950 . S
H575 C595 0.950 . S
H576 C597 0.950 . S
H577 C600 0.950 . S
H578 C601 0.950 . S
H579 C603 0.950 . S
H580 C604 0.950 . S
H581 C605 0.951 . S
H582 C607 0.951 . S
H583 C609 0.950 . S
H584 C610 0.950 . S
H585 C612 0.950 . S
H586 C615 0.950 . S
H587 C616 0.950 . S
H588 C618 0.950 . S
H589 C619 0.950 . S
C590 H572 0.951 . S
C590 C591 1.366 . S
C590 C592 1.388 . S
C591 C590 1.366 . S
C591 C595 1.385 . S
C592 H573 0.951 . S
C592 C590 1.388 . S
C592 C593 1.366 . S
C593 C592 1.366 . S
C593 C594 1.414 . S
C593 C596 1.499 . S
C594 H574 0.950 . S
C594 C593 1.414 . S
C594 C595 1.374 . S
C595 H575 0.950 . S
C595 C591 1.385 . S
C595 C594 1.374 . S
C596 C593 1.499 . S
C596 C597 1.373 . S
C596 C598 1.389 . S
C597 H576 0.950 . S
C597 C596 1.373 . S
C597 C613 1.377 . S
C598 C596 1.389 . S
C598 C599 1.524 . S
C598 C612 1.377 . S
C599 C598 1.524 . S
C599 C600 1.397 . S
C599 C604 1.363 . S
C600 H577 0.950 . S
C600 C599 1.397 . S
C600 C601 1.334 . S
C601 H578 0.950 . S
C601 C600 1.334 . S
C601 C602 1.287 . S
C602 C601 1.287 . S
C602 C603 1.524 . S
C602 H621 0.913 . S
C603 H579 0.950 . S
C603 C602 1.524 . S
C603 C604 1.415 . S
C604 H580 0.950 . S
C604 C599 1.363 . S
C604 C603 1.415 . S
C605 H581 0.951 . S
C605 C606 1.366 . S
C605 C607 1.388 . S
C606 C605 1.366 . S
C606 C610 1.385 . S
C607 H582 0.951 . S
C607 C605 1.388 . S
C607 C608 1.366 . S
C608 C607 1.366 . S
C608 C609 1.414 . S
C608 C611 1.499 . S
C609 H583 0.950 . S
C609 C608 1.414 . S
C609 C610 1.374 . S
C610 H584 0.950 . S
C610 C606 1.385 . S
C610 C609 1.374 . S
C611 C608 1.499 . S
C611 C612 1.373 . S
C611 C613 1.389 . S
C612 H585 0.950 . S
C612 C598 1.377 . S
C612 C611 1.373 . S
C613 C597 1.377 . S
C613 C611 1.389 . S
C613 C614 1.524 . S
C614 C613 1.524 . S
C614 C615 1.397 . S
C614 C619 1.363 . S
C615 H586 0.950 . S
C615 C614 1.397 . S
C615 C616 1.334 . S
C616 H587 0.950 . S
C616 C615 1.334 . S
C616 C617 1.287 . S
C617 C616 1.287 . S
C617 C618 1.524 . S
C617 H620 0.999 . S
C618 H588 0.950 . S
C618 C617 1.524 . S
C618 C619 1.415 . S
C619 H589 0.950 . S
C619 C614 1.363 . S
C619 C618 1.415 . S
H620 C617 0.999 . S
H621 C602 0.913 . S
H622 C640 0.951 . S
H623 C642 0.951 . S
H624 C644 0.950 . S
H625 C645 0.950 . S
H626 C647 0.950 . S
H627 C650 0.950 . S
H628 C651 0.950 . S
H629 C653 0.950 . S
H630 C654 0.950 . S
H631 C655 0.951 . S
H632 C657 0.951 . S
H633 C659 0.950 . S
H634 C660 0.950 . S
H635 C662 0.950 . S
H636 C665 0.950 . S
H637 C666 0.950 . S
H638 C668 0.950 . S
H639 C669 0.950 . S
C640 H622 0.951 . S
C640 C641 1.366 . S
C640 C642 1.388 . S
C641 C640 1.366 . S
C641 C645 1.385 . S
C642 H623 0.951 . S
C642 C640 1.388 . S
C642 C643 1.366 . S
C643 C642 1.366 . S
C643 C644 1.414 . S
C643 C646 1.499 . S
C644 H624 0.950 . S
C644 C643 1.414 . S
C644 C645 1.374 . S
C645 H625 0.950 . S
C645 C641 1.385 . S
C645 C644 1.374 . S
C646 C643 1.499 . S
C646 C647 1.373 . S
C646 C648 1.389 . S
C647 H626 0.950 . S
C647 C646 1.373 . S
C647 C663 1.377 . S
C648 C646 1.389 . S
C648 C649 1.524 . S
C648 C662 1.377 . S
C649 C648 1.524 . S
C649 C650 1.397 . S
C649 C654 1.363 . S
C650 H627 0.950 . S
C650 C649 1.397 . S
C650 C651 1.334 . S
C651 H628 0.950 . S
C651 C650 1.334 . S
C651 C652 1.287 . S
C652 C651 1.287 . S
C652 C653 1.524 . S
C652 H671 0.913 . S
C653 H629 0.950 . S
C653 C652 1.524 . S
C653 C654 1.415 . S
C654 H630 0.950 . S
C654 C649 1.363 . S
C654 C653 1.415 . S
C655 H631 0.951 . S
C655 C656 1.366 . S
C655 C657 1.388 . S
C656 C655 1.366 . S
C656 C660 1.385 . S
C657 H632 0.951 . S
C657 C655 1.388 . S
C657 C658 1.366 . S
C658 C657 1.366 . S
C658 C659 1.414 . S
C658 C661 1.499 . S
C659 H633 0.950 . S
C659 C658 1.414 . S
C659 C660 1.374 . S
C660 H634 0.950 . S
C660 C656 1.385 . S
C660 C659 1.374 . S
C661 C658 1.499 . S
C661 C662 1.373 . S
C661 C663 1.389 . S
C662 H635 0.950 . S
C662 C648 1.377 . S
C662 C661 1.373 . S
C663 C647 1.377 . S
C663 C661 1.389 . S
C663 C664 1.524 . S
C664 C663 1.524 . S
C664 C665 1.397 . S
C664 C669 1.363 . S
C665 H636 0.950 . S
C665 C664 1.397 . S
C665 C666 1.334 . S
C666 H637 0.950 . S
C666 C665 1.334 . S
C666 C667 1.287 . S
C667 C666 1.287 . S
C667 C668 1.524 . S
C667 H670 0.999 . S
C668 H638 0.950 . S
C668 C667 1.524 . S
C668 C669 1.415 . S
C669 H639 0.950 . S
C669 C664 1.363 . S
C669 C668 1.415 . S
H670 C667 0.999 . S
H671 C652 0.913 . S
H672 C690 0.951 . S
H673 C692 0.951 . S
H674 C694 0.950 . S
H675 C695 0.950 . S
H676 C697 0.950 . S
H677 C700 0.950 . S
H678 C701 0.950 . S
H679 C703 0.950 . S
H680 C704 0.950 . S
H681 C705 0.951 . S
H682 C707 0.951 . S
H683 C709 0.950 . S
H684 C710 0.950 . S
H685 C712 0.950 . S
H686 C715 0.950 . S
H687 C716 0.950 . S
H688 C718 0.950 . S
H689 C719 0.950 . S
C690 H672 0.951 . S
C690 C691 1.366 . S
C690 C692 1.388 . S
C691 C690 1.366 . S
C691 C695 1.385 . S
C692 H673 0.951 . S
C692 C690 1.388 . S
C692 C693 1.366 . S
C693 C692 1.366 . S
C693 C694 1.414 . S
C693 C696 1.499 . S
C694 H674 0.950 . S
C694 C693 1.414 . S
C694 C695 1.374 . S
C695 H675 0.950 . S
C695 C691 1.385 . S
C695 C694 1.374 . S
C696 C693 1.499 . S
C696 C697 1.373 . S
C696 C698 1.389 . S
C697 H676 0.950 . S
C697 C696 1.373 . S
C697 C713 1.377 . S
C698 C696 1.389 . S
C698 C699 1.524 . S
C698 C712 1.377 . S
C699 C698 1.524 . S
C699 C700 1.397 . S
C699 C704 1.363 . S
C700 H677 0.950 . S
C700 C699 1.397 . S
C700 C701 1.334 . S
C701 H678 0.950 . S
C701 C700 1.334 . S
C701 C702 1.287 . S
C702 C701 1.287 . S
C702 C703 1.524 . S
C702 H721 0.913 . S
C703 H679 0.950 . S
C703 C702 1.524 . S
C703 C704 1.415 . S
C704 H680 0.950 . S
C704 C699 1.363 . S
C704 C703 1.415 . S
C705 H681 0.951 . S
C705 C706 1.366 . S
C705 C707 1.388 . S
C706 C705 1.366 . S
C706 C710 1.385 . S
C707 H682 0.951 . S
C707 C705 1.388 . S
C707 C708 1.366 . S
C708 C707 1.366 . S
C708 C709 1.414 . S
C708 C711 1.499 . S
C709 H683 0.950 . S
C709 C708 1.414 . S
C709 C710 1.374 . S
C710 H684 0.950 . S
C710 C706 1.385 . S
C710 C709 1.374 . S
C711 C708 1.499 . S
C711 C712 1.373 . S
C711 C713 1.389 . S
C712 H685 0.950 . S
C712 C698 1.377 . S
C712 C711 1.373 . S
C713 C697 1.377 . S
C713 C711 1.389 . S
C713 C714 1.524 . S
C714 C713 1.524 . S
C714 C715 1.397 . S
C714 C719 1.363 . S
C715 H686 0.950 . S
C715 C714 1.397 . S
C715 C716 1.334 . S
C716 H687 0.950 . S
C716 C715 1.334 . S
C716 C717 1.287 . S
C717 C716 1.287 . S
C717 C718 1.524 . S
C717 H720 0.999 1_545 S
C718 H688 0.950 . S
C718 C717 1.524 . S
C718 C719 1.415 . S
C719 H689 0.950 . S
C719 C714 1.363 . S
C719 C718 1.415 . S
H720 C717 0.999 1_565 S
H721 C702 0.913 . S
H722 C740 0.951 . S
H723 C742 0.951 . S
H724 C744 0.950 . S
H725 C745 0.950 . S
H726 C747 0.950 . S
H727 C750 0.950 . S
H728 C751 0.950 . S
H729 C753 0.950 . S
H730 C754 0.950 . S
H731 C755 0.951 . S
H732 C757 0.951 . S
H733 C759 0.950 . S
H734 C760 0.950 . S
H735 C762 0.950 . S
H736 C765 0.950 . S
H737 C766 0.950 . S
H738 C768 0.950 . S
H739 C769 0.950 . S
C740 H722 0.951 . S
C740 C741 1.366 . S
C740 C742 1.388 . S
C741 C740 1.366 . S
C741 C745 1.385 . S
C742 H723 0.951 . S
C742 C740 1.388 . S
C742 C743 1.366 . S
C743 C742 1.366 . S
C743 C744 1.414 . S
C743 C746 1.499 . S
C744 H724 0.950 . S
C744 C743 1.414 . S
C744 C745 1.374 . S
C745 H725 0.950 . S
C745 C741 1.385 . S
C745 C744 1.374 . S
C746 C743 1.499 . S
C746 C747 1.373 . S
C746 C748 1.389 . S
C747 H726 0.950 . S
C747 C746 1.373 . S
C747 C763 1.377 . S
C748 C746 1.389 . S
C748 C749 1.524 . S
C748 C762 1.377 . S
C749 C748 1.524 . S
C749 C750 1.397 . S
C749 C754 1.363 . S
C750 H727 0.950 . S
C750 C749 1.397 . S
C750 C751 1.334 . S
C751 H728 0.950 . S
C751 C750 1.334 . S
C751 C752 1.287 . S
C752 C751 1.287 . S
C752 C753 1.524 . S
C752 H771 0.913 . S
C753 H729 0.950 . S
C753 C752 1.524 . S
C753 C754 1.415 . S
C754 H730 0.950 . S
C754 C749 1.363 . S
C754 C753 1.415 . S
C755 H731 0.951 . S
C755 C756 1.366 . S
C755 C757 1.388 . S
C756 C755 1.366 . S
C756 C760 1.385 . S
C757 H732 0.951 . S
C757 C755 1.388 . S
C757 C758 1.366 . S
C758 C757 1.366 . S
C758 C759 1.414 . S
C758 C761 1.499 . S
C759 H733 0.950 . S
C759 C758 1.414 . S
C759 C760 1.374 . S
C760 H734 0.950 . S
C760 C756 1.385 . S
C760 C759 1.374 . S
C761 C758 1.499 . S
C761 C762 1.373 . S
C761 C763 1.389 . S
C762 H735 0.950 . S
C762 C748 1.377 . S
C762 C761 1.373 . S
C763 C747 1.377 . S
C763 C761 1.389 . S
C763 C764 1.524 . S
C764 C763 1.524 . S
C764 C765 1.397 . S
C764 C769 1.363 . S
C765 H736 0.950 . S
C765 C764 1.397 . S
C765 C766 1.334 . S
C766 H737 0.950 . S
C766 C765 1.334 . S
C766 C767 1.287 . S
C767 C766 1.287 . S
C767 C768 1.524 . S
C767 H770 0.999 . S
C768 H738 0.950 . S
C768 C767 1.524 . S
C768 C769 1.415 . S
C769 H739 0.950 . S
C769 C764 1.363 . S
C769 C768 1.415 . S
H770 C767 0.999 . S
H771 C752 0.913 . S
H772 C790 0.951 . S
H773 C792 0.951 . S
H774 C794 0.950 . S
H775 C795 0.950 . S
H776 C797 0.950 . S
H777 C800 0.950 . S
H778 C801 0.950 . S
H779 C803 0.950 . S
H780 C804 0.950 . S
H781 C805 0.951 . S
H782 C807 0.951 . S
H783 C809 0.950 . S
H784 C810 0.950 . S
H785 C812 0.950 . S
H786 C815 0.950 . S
H787 C816 0.950 . S
H788 C818 0.950 . S
H789 C819 0.950 . S
C790 H772 0.951 . S
C790 C791 1.366 . S
C790 C792 1.388 . S
C791 C790 1.366 . S
C791 C795 1.385 . S
C792 H773 0.951 . S
C792 C790 1.388 . S
C792 C793 1.366 . S
C793 C792 1.366 . S
C793 C794 1.414 . S
C793 C796 1.499 . S
C794 H774 0.950 . S
C794 C793 1.414 . S
C794 C795 1.374 . S
C795 H775 0.950 . S
C795 C791 1.385 . S
C795 C794 1.374 . S
C796 C793 1.499 . S
C796 C797 1.373 1_545 S
C796 C798 1.389 . S
C797 H776 0.950 . S
C797 C796 1.373 1_565 S
C797 C813 1.377 . S
C798 C796 1.389 . S
C798 C799 1.524 . S
C798 C812 1.377 . S
C799 C798 1.524 . S
C799 C800 1.397 . S
C799 C804 1.363 . S
C800 H777 0.950 . S
C800 C799 1.397 . S
C800 C801 1.334 . S
C801 H778 0.950 . S
C801 C800 1.334 . S
C801 C802 1.287 . S
C802 C801 1.287 . S
C802 C803 1.524 . S
C802 H821 0.913 . S
C803 H779 0.950 . S
C803 C802 1.524 . S
C803 C804 1.415 . S
C804 H780 0.950 . S
C804 C799 1.363 . S
C804 C803 1.415 . S
C805 H781 0.951 . S
C805 C806 1.366 . S
C805 C807 1.388 . S
C806 C805 1.366 . S
C806 C810 1.385 . S
C807 H782 0.951 . S
C807 C805 1.388 . S
C807 C808 1.366 . S
C808 C807 1.366 . S
C808 C809 1.414 . S
C808 C811 1.499 . S
C809 H783 0.950 . S
C809 C808 1.414 . S
C809 C810 1.374 . S
C810 H784 0.950 . S
C810 C806 1.385 . S
C810 C809 1.374 . S
C811 C808 1.499 . S
C811 C812 1.373 1_565 S
C811 C813 1.389 . S
C812 H785 0.950 . S
C812 C798 1.377 . S
C812 C811 1.373 1_545 S
C813 C797 1.377 . S
C813 C811 1.389 . S
C813 C814 1.524 . S
C814 C813 1.524 . S
C814 C815 1.397 . S
C814 C819 1.363 . S
C815 H786 0.950 . S
C815 C814 1.397 . S
C815 C816 1.334 . S
C816 H787 0.950 . S
C816 C815 1.334 . S
C816 C817 1.287 . S
C817 C816 1.287 . S
C817 C818 1.524 . S
C817 H820 0.999 . S
C818 H788 0.950 . S
C818 C817 1.524 . S
C818 C819 1.415 . S
C819 H789 0.950 . S
C819 C814 1.363 . S
C819 C818 1.415 . S
H820 C817 0.999 . S
H821 C802 0.913 . S
H822 C840 0.951 . S
H823 C842 0.951 . S
H824 C844 0.950 . S
H825 C845 0.950 . S
H826 C847 0.964 . S
H827 C850 0.950 1_565 S
H828 C851 0.950 1_565 S
H829 C853 0.950 . S
H830 C854 0.950 1_455 S
H831 C855 0.951 . S
H832 C857 0.951 . S
H833 C859 0.950 . S
H834 C860 0.950 . S
H835 C862 0.964 . S
H836 C865 0.950 1_545 S
H837 C866 0.950 1_545 S
H838 C868 0.950 . S
H839 C869 0.950 . S
C840 H822 0.951 . S
C840 C841 1.366 . S
C840 C842 1.388 . S
C841 C840 1.366 . S
C841 C845 1.385 . S
C842 H823 0.951 . S
C842 C840 1.388 . S
C842 C843 1.366 . S
C843 C842 1.366 . S
C843 C844 1.414 . S
C843 C846 1.499 . S
C844 H824 0.950 . S
C844 C843 1.414 . S
C844 C845 1.374 . S
C845 H825 0.950 . S
C845 C841 1.385 . S
C845 C844 1.374 . S
C846 C843 1.499 . S
C846 C847 1.294 1_554 S
C846 C848 1.389 1_565 S
C847 H826 0.964 . S
C847 C846 1.294 1_556 S
C847 C863 1.449 . S
C848 C846 1.389 1_545 S
C848 C849 1.524 1_455 S
C848 C862 1.449 . S
C849 C848 1.524 1_655 S
C849 C850 1.397 . S
C849 C854 1.363 . S
C850 H827 0.950 1_545 S
C850 C849 1.397 . S
C850 C851 1.334 . S
C851 H828 0.950 1_545 S
C851 C850 1.334 . S
C851 C852 1.287 . S
C852 C851 1.287 . S
C852 C853 1.524 . S
C852 H871 0.913 . S
C853 H829 0.950 . S
C853 C852 1.524 . S
C853 C854 1.415 . S
C854 H830 0.950 1_655 S
C854 C849 1.363 . S
C854 C853 1.415 . S
C855 H831 0.951 . S
C855 C856 1.366 . S
C855 C857 1.388 . S
C856 C855 1.366 . S
C856 C860 1.385 . S
C857 H832 0.951 . S
C857 C855 1.388 . S
C857 C858 1.366 . S
C858 C857 1.366 . S
C858 C859 1.414 . S
C858 C861 1.499 . S
C859 H833 0.950 . S
C859 C858 1.414 . S
C859 C860 1.374 . S
C860 H834 0.950 . S
C860 C856 1.385 . S
C860 C859 1.374 . S
C861 C858 1.499 . S
C861 C862 1.294 1_556 S
C861 C863 1.389 1_545 S
C862 H835 0.964 . S
C862 C848 1.449 . S
C862 C861 1.294 1_554 S
C863 C847 1.449 . S
C863 C861 1.389 1_565 S
C863 C864 1.524 . S
C864 C863 1.524 . S
C864 C865 1.397 . S
C864 C869 1.363 . S
C865 H836 0.950 1_565 S
C865 C864 1.397 . S
C865 C866 1.334 . S
C866 H837 0.950 1_565 S
C866 C865 1.334 . S
C866 C867 1.287 . S
C867 C866 1.287 . S
C867 C868 1.524 . S
C867 H870 0.999 . S
C868 H838 0.950 . S
C868 C867 1.524 . S
C868 C869 1.415 . S
C869 H839 0.950 . S
C869 C864 1.363 . S
C869 C868 1.415 . S
H870 C867 0.999 . S
H871 C852 0.913 . S
H872 C890 0.951 . S
H873 C892 0.951 . S
H874 C894 0.950 . S
H875 C895 0.950 . S
H876 C897 0.950 . S
H877 C900 0.950 . S
H878 C901 0.950 . S
H879 C903 0.959 . S
H880 C904 0.950 . S
H881 C905 0.951 . S
H882 C907 0.951 . S
H883 C909 0.950 . S
H884 C910 0.950 . S
H885 C912 0.950 . S
H886 C915 0.950 . S
H887 C916 0.950 . S
H888 C918 0.950 . S
H889 C919 0.950 . S
C890 H872 0.951 . S
C890 C891 1.366 . S
C890 C892 1.388 . S
C891 C890 1.366 . S
C891 C895 1.385 . S
C892 H873 0.951 . S
C892 C890 1.388 . S
C892 C893 1.366 . S
C893 C892 1.366 . S
C893 C894 1.414 . S
C893 C896 1.499 . S
C894 H874 0.950 . S
C894 C893 1.414 . S
C894 C895 1.374 . S
C895 H875 0.950 . S
C895 C891 1.385 . S
C895 C894 1.374 . S
C896 C893 1.499 . S
C896 C897 1.373 . S
C896 C898 1.389 . S
C897 H876 0.950 . S
C897 C896 1.373 . S
C897 C913 1.377 . S
C898 C896 1.389 . S
C898 C899 1.524 . S
C898 C912 1.377 . S
C899 C898 1.524 . S
C899 C900 1.397 . S
C899 C904 1.363 . S
C900 H877 0.950 . S
C900 C899 1.397 . S
C900 C901 1.334 . S
C901 H878 0.950 . S
C901 C900 1.334 . S
C901 C902 1.287 . S
C902 C901 1.287 . S
C902 C903 1.524 . S
C902 H921 0.913 1_565 S
C903 H879 0.959 . S
C903 C902 1.524 . S
C903 C904 1.415 . S
C904 H880 0.950 . S
C904 C899 1.363 . S
C904 C903 1.415 . S
C905 H881 0.951 . S
C905 C906 1.366 . S
C905 C907 1.388 . S
C906 C905 1.366 . S
C906 C910 1.385 . S
C907 H882 0.951 . S
C907 C905 1.388 . S
C907 C908 1.366 . S
C908 C907 1.366 . S
C908 C909 1.414 . S
C908 C911 1.499 . S
C909 H883 0.950 . S
C909 C908 1.414 . S
C909 C910 1.374 . S
C910 H884 0.950 . S
C910 C906 1.385 . S
C910 C909 1.374 . S
C911 C908 1.499 . S
C911 C912 1.373 . S
C911 C913 1.389 . S
C912 H885 0.950 . S
C912 C898 1.377 . S
C912 C911 1.373 . S
C913 C897 1.377 . S
C913 C911 1.389 . S
C913 C914 1.524 . S
C914 C913 1.524 . S
C914 C915 1.397 . S
C914 C919 1.363 . S
C915 H886 0.950 . S
C915 C914 1.397 . S
C915 C916 1.334 . S
C916 H887 0.950 . S
C916 C915 1.334 . S
C916 C917 1.287 . S
C917 C916 1.287 . S
C917 C918 1.524 . S
C917 H920 0.999 . S
C918 H888 0.950 . S
C918 C917 1.524 . S
C918 C919 1.415 . S
C919 H889 0.950 . S
C919 C914 1.363 . S
C919 C918 1.415 . S
H920 C917 0.999 . S
H921 C902 0.913 1_545 S
H922 C940 0.951 . S
H923 C942 0.951 . S
H924 C944 0.950 . S
H925 C945 0.950 . S
H926 C947 0.950 . S
H927 C950 0.950 . S
H928 C951 0.950 . S
H929 C953 0.950 . S
H930 C954 0.950 . S
H931 C955 0.951 . S
H932 C957 0.951 . S
H933 C959 0.950 . S
H934 C960 0.950 . S
H935 C962 0.950 . S
H936 C965 0.950 . S
H937 C966 0.950 . S
H938 C968 0.950 . S
H939 C969 0.950 . S
C940 H922 0.951 . S
C940 C941 1.366 . S
C940 C942 1.388 . S
C941 C940 1.366 . S
C941 C945 1.385 . S
C942 H923 0.951 . S
C942 C940 1.388 . S
C942 C943 1.366 . S
C943 C942 1.366 . S
C943 C944 1.414 . S
C943 C946 1.499 . S
C944 H924 0.950 . S
C944 C943 1.414 . S
C944 C945 1.374 . S
C945 H925 0.950 . S
C945 C941 1.385 . S
C945 C944 1.374 . S
C946 C943 1.499 . S
C946 C947 1.373 . S
C946 C948 1.389 . S
C947 H926 0.950 . S
C947 C946 1.373 . S
C947 C963 1.377 . S
C948 C946 1.389 . S
C948 C949 1.524 . S
C948 C962 1.377 . S
C949 C948 1.524 . S
C949 C950 1.397 . S
C949 C954 1.363 . S
C950 H927 0.950 . S
C950 C949 1.397 . S
C950 C951 1.334 . S
C951 H928 0.950 . S
C951 C950 1.334 . S
C951 C952 1.287 . S
C952 C951 1.287 . S
C952 C953 1.524 . S
C952 H971 0.913 . S
C953 H929 0.950 . S
C953 C952 1.524 . S
C953 C954 1.415 . S
C954 H930 0.950 . S
C954 C949 1.363 . S
C954 C953 1.415 . S
C955 H931 0.951 . S
C955 C956 1.366 . S
C955 C957 1.388 . S
C956 C955 1.366 . S
C956 C960 1.385 . S
C957 H932 0.951 . S
C957 C955 1.388 . S
C957 C958 1.366 . S
C958 C957 1.366 . S
C958 C959 1.414 . S
C958 C961 1.499 . S
C959 H933 0.950 . S
C959 C958 1.414 . S
C959 C960 1.374 . S
C960 H934 0.950 . S
C960 C956 1.385 . S
C960 C959 1.374 . S
C961 C958 1.499 . S
C961 C962 1.373 . S
C961 C963 1.389 . S
C962 H935 0.950 . S
C962 C948 1.377 . S
C962 C961 1.373 . S
C963 C947 1.377 . S
C963 C961 1.389 . S
C963 C964 1.524 . S
C964 C963 1.524 . S
C964 C965 1.397 . S
C964 C969 1.363 . S
C965 H936 0.950 . S
C965 C964 1.397 . S
C965 C966 1.334 . S
C966 H937 0.950 . S
C966 C965 1.334 . S
C966 C967 1.287 . S
C967 C966 1.287 . S
C967 C968 1.524 . S
C967 H970 0.999 . S
C968 H938 0.950 . S
C968 C967 1.524 . S
C968 C969 1.415 . S
C969 H939 0.950 . S
C969 C964 1.363 . S
C969 C968 1.415 . S
H970 C967 0.999 . S
H971 C952 0.913 . S
H972 C990 0.951 . S
H973 C992 0.951 . S
H974 C994 0.950 . S
H975 C995 0.950 . S
H976 C997 0.950 . S
H977 C1000 0.950 . S
H978 C1001 0.950 . S
H979 C1003 0.950 1_455 S
H980 C1004 0.950 . S
H981 C1005 0.951 . S
H982 C1007 0.951 . S
H983 C1009 0.950 . S
H984 C1010 0.950 . S
H985 C1012 0.950 . S
H986 C1015 0.950 . S
H987 C1016 0.950 . S
H988 C1018 0.950 1_655 S
H989 C1019 0.950 . S
C990 H972 0.951 . S
C990 C991 1.366 . S
C990 C992 1.388 . S
C991 C990 1.366 . S
C991 C995 1.385 . S
C992 H973 0.951 . S
C992 C990 1.388 . S
C992 C993 1.366 . S
C993 C992 1.366 . S
C993 C994 1.414 . S
C993 C996 1.499 . S
C994 H974 0.950 . S
C994 C993 1.414 . S
C994 C995 1.374 . S
C995 H975 0.950 . S
C995 C991 1.385 . S
C995 C994 1.374 . S
C996 C993 1.499 . S
C996 C997 1.373 . S
C996 C998 1.389 . S
C997 H976 0.950 . S
C997 C996 1.373 . S
C997 C1013 1.377 1_655 S
C998 C996 1.389 . S
C998 C999 1.524 . S
C998 C1012 1.377 1_655 S
C999 C998 1.524 . S
C999 C1000 1.397 . S
C999 C1004 1.363 1_655 S
C1000 H977 0.950 . S
C1000 C999 1.397 . S
C1000 C1001 1.334 . S
C1001 H978 0.950 . S
C1001 C1000 1.334 . S
C1001 C1002 1.287 . S
C1002 C1001 1.287 . S
C1002 C1003 1.524 . S
C1002 H1021 0.913 . S
C1003 H979 0.950 1_655 S
C1003 C1002 1.524 . S
C1003 C1004 1.415 1_655 S
C1004 H980 0.950 . S
C1004 C999 1.363 1_455 S
C1004 C1003 1.415 1_455 S
C1005 H981 0.951 . S
C1005 C1006 1.366 . S
C1005 C1007 1.388 . S
C1006 C1005 1.366 . S
C1006 C1010 1.385 . S
C1007 H982 0.951 . S
C1007 C1005 1.388 . S
C1007 C1008 1.366 . S
C1008 C1007 1.366 . S
C1008 C1009 1.414 . S
C1008 C1011 1.499 . S
C1009 H983 0.950 . S
C1009 C1008 1.414 . S
C1009 C1010 1.374 . S
C1010 H984 0.950 . S
C1010 C1006 1.385 . S
C1010 C1009 1.374 . S
C1011 C1008 1.499 . S
C1011 C1012 1.373 . S
C1011 C1013 1.389 . S
C1012 H985 0.950 . S
C1012 C998 1.377 1_455 S
C1012 C1011 1.373 . S
C1013 C997 1.377 1_455 S
C1013 C1011 1.389 . S
C1013 C1014 1.524 . S
C1014 C1013 1.524 . S
C1014 C1015 1.397 . S
C1014 C1019 1.363 1_455 S
C1015 H986 0.950 . S
C1015 C1014 1.397 . S
C1015 C1016 1.334 . S
C1016 H987 0.950 . S
C1016 C1015 1.334 . S
C1016 C1017 1.287 . S
C1017 C1016 1.287 . S
C1017 C1018 1.524 . S
C1017 H1020 0.999 1_545 S
C1018 H988 0.950 1_455 S
C1018 C1017 1.524 . S
C1018 C1019 1.415 1_455 S
C1019 H989 0.950 . S
C1019 C1014 1.363 1_655 S
C1019 C1018 1.415 1_655 S
H1020 C1017 0.999 1_565 S
H1021 C1002 0.913 . S
H1022 C1040 0.951 1_655 S
H1023 C1042 0.951 1_655 S
H1024 C1044 0.950 . S
H1025 C1045 0.950 . S
H1026 C1047 0.950 . S
H1027 C1050 0.950 . S
H1028 C1051 0.950 . S
H1029 C1053 0.950 . S
H1030 C1054 0.950 . S
H1031 C1055 0.951 1_455 S
H1032 C1057 0.951 1_455 S
H1033 C1059 0.950 . S
H1034 C1060 0.950 . S
H1035 C1062 0.950 . S
H1036 C1065 0.950 . S
H1037 C1066 0.950 . S
H1038 C1068 0.950 . S
H1039 C1069 0.950 . S
C1040 H1022 0.951 1_455 S
C1040 C1041 1.366 . S
C1040 C1042 1.388 . S
C1041 C1040 1.366 . S
C1041 C1045 1.385 . S
C1042 H1023 0.951 1_455 S
C1042 C1040 1.388 . S
C1042 C1043 1.366 . S
C1043 C1042 1.366 . S
C1043 C1044 1.414 . S
C1043 C1046 1.499 . S
C1044 H1024 0.950 . S
C1044 C1043 1.414 . S
C1044 C1045 1.374 . S
C1045 H1025 0.950 . S
C1045 C1041 1.385 . S
C1045 C1044 1.374 . S
C1046 C1043 1.499 . S
C1046 C1047 1.373 . S
C1046 C1048 1.389 1_455 S
C1047 H1026 0.950 . S
C1047 C1046 1.373 . S
C1047 C1063 1.377 . S
C1048 C1046 1.389 1_655 S
C1048 C1049 1.524 . S
C1048 C1062 1.377 . S
C1049 C1048 1.524 . S
C1049 C1050 1.397 . S
C1049 C1054 1.363 . S
C1050 H1027 0.950 . S
C1050 C1049 1.397 . S
C1050 C1051 1.334 . S
C1051 H1028 0.950 . S
C1051 C1050 1.334 . S
C1051 C1052 1.287 . S
C1052 C1051 1.287 . S
C1052 C1053 1.524 . S
C1052 H1071 0.913 . S
C1053 H1029 0.950 . S
C1053 C1052 1.524 . S
C1053 C1054 1.415 . S
C1054 H1030 0.950 . S
C1054 C1049 1.363 . S
C1054 C1053 1.415 . S
C1055 H1031 0.951 1_655 S
C1055 C1056 1.366 . S
C1055 C1057 1.388 . S
C1056 C1055 1.366 . S
C1056 C1060 1.385 . S
C1057 H1032 0.951 1_655 S
C1057 C1055 1.388 . S
C1057 C1058 1.366 . S
C1058 C1057 1.366 . S
C1058 C1059 1.414 . S
C1058 C1061 1.499 . S
C1059 H1033 0.950 . S
C1059 C1058 1.414 . S
C1059 C1060 1.374 . S
C1060 H1034 0.950 . S
C1060 C1056 1.385 . S
C1060 C1059 1.374 . S
C1061 C1058 1.499 . S
C1061 C1062 1.373 . S
C1061 C1063 1.389 1_655 S
C1062 H1035 0.950 . S
C1062 C1048 1.377 . S
C1062 C1061 1.373 . S
C1063 C1047 1.377 . S
C1063 C1061 1.389 1_455 S
C1063 C1064 1.524 . S
C1064 C1063 1.524 . S
C1064 C1065 1.397 . S
C1064 C1069 1.363 . S
C1065 H1036 0.950 . S
C1065 C1064 1.397 . S
C1065 C1066 1.334 . S
C1066 H1037 0.950 . S
C1066 C1065 1.334 . S
C1066 C1067 1.287 . S
C1067 C1066 1.287 . S
C1067 C1068 1.524 . S
C1067 H1070 0.999 . S
C1068 H1038 0.950 . S
C1068 C1067 1.524 . S
C1068 C1069 1.415 . S
C1069 H1039 0.950 . S
C1069 C1064 1.363 . S
C1069 C1068 1.415 . S
H1070 C1067 0.999 . S
H1071 C1052 0.913 . S
H1072 C1090 0.951 . S
H1073 C1092 0.951 . S
H1074 C1094 0.950 . S
H1075 C1095 0.950 . S
H1076 C1097 0.950 . S
H1077 C1100 0.950 . S
H1078 C1101 0.950 . S
H1079 C1103 0.950 . S
H1080 C1104 0.950 . S
H1081 C1105 0.951 . S
H1082 C1107 0.951 . S
H1083 C1109 0.950 . S
H1084 C1110 0.950 . S
H1085 C1112 0.950 . S
H1086 C1115 0.950 . S
H1087 C1116 0.950 . S
H1088 C1118 0.950 . S
H1089 C1119 0.950 . S
C1090 H1072 0.951 . S
C1090 C1091 1.366 . S
C1090 C1092 1.388 . S
C1091 C1090 1.366 . S
C1091 C1095 1.385 . S
C1092 H1073 0.951 . S
C1092 C1090 1.388 . S
C1092 C1093 1.366 . S
C1093 C1092 1.366 . S
C1093 C1094 1.414 . S
C1093 C1096 1.499 . S
C1094 H1074 0.950 . S
C1094 C1093 1.414 . S
C1094 C1095 1.374 . S
C1095 H1075 0.950 . S
C1095 C1091 1.385 . S
C1095 C1094 1.374 . S
C1096 C1093 1.499 . S
C1096 C1097 1.373 . S
C1096 C1098 1.389 . S
C1097 H1076 0.950 . S
C1097 C1096 1.373 . S
C1097 C1113 1.377 . S
C1098 C1096 1.389 . S
C1098 C1099 1.524 . S
C1098 C1112 1.377 . S
C1099 C1098 1.524 . S
C1099 C1100 1.397 . S
C1099 C1104 1.363 . S
C1100 H1077 0.950 . S
C1100 C1099 1.397 . S
C1100 C1101 1.334 . S
C1101 H1078 0.950 . S
C1101 C1100 1.334 . S
C1101 C1102 1.287 . S
C1102 C1101 1.287 . S
C1102 C1103 1.524 . S
C1102 H1121 0.913 . S
C1103 H1079 0.950 . S
C1103 C1102 1.524 . S
C1103 C1104 1.415 . S
C1104 H1080 0.950 . S
C1104 C1099 1.363 . S
C1104 C1103 1.415 . S
C1105 H1081 0.951 . S
C1105 C1106 1.366 . S
C1105 C1107 1.388 . S
C1106 C1105 1.366 . S
C1106 C1110 1.385 . S
C1107 H1082 0.951 . S
C1107 C1105 1.388 . S
C1107 C1108 1.366 . S
C1108 C1107 1.366 . S
C1108 C1109 1.414 . S
C1108 C1111 1.499 . S
C1109 H1083 0.950 . S
C1109 C1108 1.414 . S
C1109 C1110 1.374 . S
C1110 H1084 0.950 . S
C1110 C1106 1.385 . S
C1110 C1109 1.374 . S
C1111 C1108 1.499 . S
C1111 C1112 1.373 . S
C1111 C1113 1.389 . S
C1112 H1085 0.950 . S
C1112 C1098 1.377 . S
C1112 C1111 1.373 . S
C1113 C1097 1.377 . S
C1113 C1111 1.389 . S
C1113 C1114 1.524 . S
C1114 C1113 1.524 . S
C1114 C1115 1.397 . S
C1114 C1119 1.363 . S
C1115 H1086 0.950 . S
C1115 C1114 1.397 . S
C1115 C1116 1.334 . S
C1116 H1087 0.950 . S
C1116 C1115 1.334 . S
C1116 C1117 1.287 . S
C1117 C1116 1.287 . S
C1117 C1118 1.524 . S
C1117 H1120 0.999 . S
C1118 H1088 0.950 . S
C1118 C1117 1.524 . S
C1118 C1119 1.415 . S
C1119 H1089 0.950 . S
C1119 C1114 1.363 . S
C1119 C1118 1.415 . S
H1120 C1117 0.999 . S
H1121 C1102 0.913 . S
H1122 C1140 0.951 . S
H1123 C1142 0.951 . S
H1124 C1144 0.950 1_655 S
H1125 C1145 0.950 . S
H1126 C1147 0.950 . S
H1127 C1150 0.950 . S
H1128 C1151 0.950 . S
H1129 C1153 0.950 . S
H1130 C1154 0.950 1_455 S
H1131 C1155 0.951 . S
H1132 C1157 0.951 . S
H1133 C1159 0.950 1_455 S
H1134 C1160 0.950 . S
H1135 C1162 0.950 . S
H1136 C1165 0.950 . S
H1137 C1166 0.950 . S
H1138 C1168 0.950 . S
H1139 C1169 0.950 1_655 S
C1140 H1122 0.951 . S
C1140 C1141 1.366 . S
C1140 C1142 1.388 . S
C1141 C1140 1.366 . S
C1141 C1145 1.385 . S
C1142 H1123 0.951 . S
C1142 C1140 1.388 . S
C1142 C1143 1.366 . S
C1143 C1142 1.366 . S
C1143 C1144 1.414 . S
C1143 C1146 1.499 . S
C1144 H1124 0.950 1_455 S
C1144 C1143 1.414 . S
C1144 C1145 1.374 . S
C1145 H1125 0.950 . S
C1145 C1141 1.385 . S
C1145 C1144 1.374 . S
C1146 C1143 1.499 . S
C1146 C1147 1.373 . S
C1146 C1148 1.389 1_455 S
C1147 H1126 0.950 . S
C1147 C1146 1.373 . S
C1147 C1163 1.377 . S
C1148 C1146 1.389 1_655 S
C1148 C1149 1.524 . S
C1148 C1162 1.377 . S
C1149 C1148 1.524 . S
C1149 C1150 1.397 . S
C1149 C1154 1.363 . S
C1150 H1127 0.950 . S
C1150 C1149 1.397 . S
C1150 C1151 1.334 . S
C1151 H1128 0.950 . S
C1151 C1150 1.334 . S
C1151 C1152 1.287 . S
C1152 C1151 1.287 . S
C1152 C1153 1.524 . S
C1152 H1171 0.913 . S
C1153 H1129 0.950 . S
C1153 C1152 1.524 . S
C1153 C1154 1.415 . S
C1154 H1130 0.950 1_655 S
C1154 C1149 1.363 . S
C1154 C1153 1.415 . S
C1155 H1131 0.951 . S
C1155 C1156 1.366 . S
C1155 C1157 1.388 . S
C1156 C1155 1.366 . S
C1156 C1160 1.385 . S
C1157 H1132 0.951 . S
C1157 C1155 1.388 . S
C1157 C1158 1.366 . S
C1158 C1157 1.366 . S
C1158 C1159 1.414 . S
C1158 C1161 1.499 . S
C1159 H1133 0.950 1_655 S
C1159 C1158 1.414 . S
C1159 C1160 1.374 . S
C1160 H1134 0.950 . S
C1160 C1156 1.385 . S
C1160 C1159 1.374 . S
C1161 C1158 1.499 . S
C1161 C1162 1.373 . S
C1161 C1163 1.389 1_655 S
C1162 H1135 0.950 . S
C1162 C1148 1.377 . S
C1162 C1161 1.373 . S
C1163 C1147 1.377 . S
C1163 C1161 1.389 1_455 S
C1163 C1164 1.524 . S
C1164 C1163 1.524 . S
C1164 C1165 1.397 . S
C1164 C1169 1.363 . S
C1165 H1136 0.950 . S
C1165 C1164 1.397 . S
C1165 C1166 1.334 . S
C1166 H1137 0.950 . S
C1166 C1165 1.334 . S
C1166 C1167 1.287 . S
C1167 C1166 1.287 . S
C1167 C1168 1.524 . S
C1167 H1170 0.999 . S
C1168 H1138 0.950 . S
C1168 C1167 1.524 . S
C1168 C1169 1.415 . S
C1169 H1139 0.950 1_455 S
C1169 C1164 1.363 . S
C1169 C1168 1.415 . S
H1170 C1167 0.999 . S
H1171 C1152 0.913 . S
H1172 C1190 0.951 . S
H1173 C1192 0.951 . S
H1174 C1194 0.950 . S
H1175 C1195 0.950 . S
H1176 C1197 0.950 . S
H1177 C1200 0.950 . S
H1178 C1201 0.950 . S
H1179 C1203 0.950 . S
H1180 C1204 0.949 1_655 S
H1181 C1205 0.951 . S
H1182 C1207 0.951 . S
H1183 C1209 0.950 . S
H1184 C1210 0.950 . S
H1185 C1212 0.950 . S
H1186 C1215 0.950 . S
H1187 C1216 0.950 . S
H1188 C1218 0.950 . S
H1189 C1219 0.949 1_455 S
C1190 H1172 0.951 . S
C1190 C1191 1.366 . S
C1190 C1192 1.388 . S
C1191 C1190 1.366 . S
C1191 C1195 1.385 . S
C1192 H1173 0.951 . S
C1192 C1190 1.388 . S
C1192 C1193 1.366 . S
C1193 C1192 1.366 . S
C1193 C1194 1.414 . S
C1193 C1196 1.499 . S
C1194 H1174 0.950 . S
C1194 C1193 1.414 . S
C1194 C1195 1.374 . S
C1195 H1175 0.950 . S
C1195 C1191 1.385 . S
C1195 C1194 1.374 . S
C1196 C1193 1.499 . S
C1196 C1197 1.373 . S
C1196 C1198 1.389 . S
C1197 H1176 0.950 . S
C1197 C1196 1.373 . S
C1197 C1213 1.377 1_455 S
C1198 C1196 1.389 . S
C1198 C1199 1.524 . S
C1198 C1212 1.377 1_455 S
C1199 C1198 1.524 . S
C1199 C1200 1.397 . S
C1199 C1204 1.363 . S
C1200 H1177 0.950 . S
C1200 C1199 1.397 . S
C1200 C1201 1.334 . S
C1201 H1178 0.950 . S
C1201 C1200 1.334 . S
C1201 C1202 1.287 . S
C1202 C1201 1.287 . S
C1202 C1203 1.524 . S
C1202 H1221 0.913 . S
C1203 H1179 0.950 . S
C1203 C1202 1.524 . S
C1203 C1204 1.415 . S
C1204 H1180 0.949 1_455 S
C1204 C1199 1.363 . S
C1204 C1203 1.415 . S
C1205 H1181 0.951 . S
C1205 C1206 1.366 . S
C1205 C1207 1.388 . S
C1206 C1205 1.366 . S
C1206 C1210 1.385 . S
C1207 H1182 0.951 . S
C1207 C1205 1.388 . S
C1207 C1208 1.366 . S
C1208 C1207 1.366 . S
C1208 C1209 1.414 . S
C1208 C1211 1.499 . S
C1209 H1183 0.950 . S
C1209 C1208 1.414 . S
C1209 C1210 1.374 . S
C1210 H1184 0.950 . S
C1210 C1206 1.385 . S
C1210 C1209 1.374 . S
C1211 C1208 1.499 . S
C1211 C1212 1.373 . S
C1211 C1213 1.389 . S
C1212 H1185 0.950 . S
C1212 C1198 1.377 1_655 S
C1212 C1211 1.373 . S
C1213 C1197 1.377 1_655 S
C1213 C1211 1.389 . S
C1213 C1214 1.524 . S
C1214 C1213 1.524 . S
C1214 C1215 1.397 . S
C1214 C1219 1.363 . S
C1215 H1186 0.950 . S
C1215 C1214 1.397 . S
C1215 C1216 1.334 . S
C1216 H1187 0.950 . S
C1216 C1215 1.334 . S
C1216 C1217 1.287 . S
C1217 C1216 1.287 . S
C1217 C1218 1.524 . S
C1217 H1220 0.999 . S
C1218 H1188 0.950 . S
C1218 C1217 1.524 . S
C1218 C1219 1.415 . S
C1219 H1189 0.949 1_655 S
C1219 C1214 1.363 . S
C1219 C1218 1.415 . S
H1220 C1217 0.999 . S
H1221 C1202 0.913 . S
H1222 C1240 0.951 . S
H1223 C1242 0.951 . S
H1224 C1244 0.950 . S
H1225 C1245 0.950 . S
H1226 C1247 0.950 . S
H1227 C1250 0.950 . S
H1228 C1251 0.950 . S
H1229 C1253 0.950 . S
H1230 C1254 0.950 . S
H1231 C1255 0.951 . S
H1232 C1257 0.951 . S
H1233 C1259 0.950 . S
H1234 C1260 0.950 . S
H1235 C1262 0.950 . S
H1236 C1265 0.950 . S
H1237 C1266 0.950 . S
H1238 C1268 0.950 . S
H1239 C1269 0.950 . S
C1240 H1222 0.951 . S
C1240 C1241 1.366 . S
C1240 C1242 1.388 . S
C1241 C1240 1.366 . S
C1241 C1245 1.385 . S
C1242 H1223 0.951 . S
C1242 C1240 1.388 . S
C1242 C1243 1.366 . S
C1243 C1242 1.366 . S
C1243 C1244 1.414 . S
C1243 C1246 1.499 . S
C1244 H1224 0.950 . S
C1244 C1243 1.414 . S
C1244 C1245 1.374 . S
C1245 H1225 0.950 . S
C1245 C1241 1.385 . S
C1245 C1244 1.374 . S
C1246 C1243 1.499 . S
C1246 C1247 1.373 . S
C1246 C1248 1.389 . S
C1247 H1226 0.950 . S
C1247 C1246 1.373 . S
C1247 C1263 1.377 . S
C1248 C1246 1.389 . S
C1248 C1249 1.524 . S
C1248 C1262 1.377 . S
C1249 C1248 1.524 . S
C1249 C1250 1.397 . S
C1249 C1254 1.363 . S
C1250 H1227 0.950 . S
C1250 C1249 1.397 . S
C1250 C1251 1.334 . S
C1251 H1228 0.950 . S
C1251 C1250 1.334 . S
C1251 C1252 1.287 . S
C1252 C1251 1.287 . S
C1252 C1253 1.524 . S
C1252 H1271 0.913 . S
C1253 H1229 0.950 . S
C1253 C1252 1.524 . S
C1253 C1254 1.415 . S
C1254 H1230 0.950 . S
C1254 C1249 1.363 . S
C1254 C1253 1.415 . S
C1255 H1231 0.951 . S
C1255 C1256 1.366 . S
C1255 C1257 1.388 . S
C1256 C1255 1.366 . S
C1256 C1260 1.385 . S
C1257 H1232 0.951 . S
C1257 C1255 1.388 . S
C1257 C1258 1.366 . S
C1258 C1257 1.366 . S
C1258 C1259 1.414 . S
C1258 C1261 1.499 . S
C1259 H1233 0.950 . S
C1259 C1258 1.414 . S
C1259 C1260 1.374 . S
C1260 H1234 0.950 . S
C1260 C1256 1.385 . S
C1260 C1259 1.374 . S
C1261 C1258 1.499 . S
C1261 C1262 1.373 . S
C1261 C1263 1.389 . S
C1262 H1235 0.950 . S
C1262 C1248 1.377 . S
C1262 C1261 1.373 . S
C1263 C1247 1.377 . S
C1263 C1261 1.389 . S
C1263 C1264 1.524 . S
C1264 C1263 1.524 . S
C1264 C1265 1.397 . S
C1264 C1269 1.363 . S
C1265 H1236 0.950 . S
C1265 C1264 1.397 . S
C1265 C1266 1.334 . S
C1266 H1237 0.950 . S
C1266 C1265 1.334 . S
C1266 C1267 1.287 . S
C1267 C1266 1.287 . S
C1267 C1268 1.524 . S
C1267 H1270 0.999 . S
C1268 H1238 0.950 . S
C1268 C1267 1.524 . S
C1268 C1269 1.415 . S
C1269 H1239 0.950 . S
C1269 C1264 1.363 . S
C1269 C1268 1.415 . S
H1270 C1267 0.999 . S
H1271 C1252 0.913 . S
H1272 C1290 0.951 . S
H1273 C1292 0.951 . S
H1274 C1294 0.950 . S
H1275 C1295 0.950 . S
H1276 C1297 0.950 . S
H1277 C1300 0.950 . S
H1278 C1301 0.950 . S
H1279 C1303 0.950 . S
H1280 C1304 0.950 . S
H1281 C1305 0.951 . S
H1282 C1307 0.951 . S
H1283 C1309 0.950 . S
H1284 C1310 0.950 . S
H1285 C1312 0.950 . S
H1286 C1315 0.950 . S
H1287 C1316 0.950 . S
H1288 C1318 0.950 . S
H1289 C1319 0.950 . S
C1290 H1272 0.951 . S
C1290 C1291 1.366 1_455 S
C1290 C1292 1.388 . S
C1291 C1290 1.366 1_655 S
C1291 C1295 1.385 . S
C1292 H1273 0.951 . S
C1292 C1290 1.388 . S
C1292 C1293 1.366 1_455 S
C1293 C1292 1.366 1_655 S
C1293 C1294 1.414 . S
C1293 C1296 1.499 . S
C1294 H1274 0.950 . S
C1294 C1293 1.414 . S
C1294 C1295 1.374 . S
C1295 H1275 0.950 . S
C1295 C1291 1.385 . S
C1295 C1294 1.374 . S
C1296 C1293 1.499 . S
C1296 C1297 1.373 . S
C1296 C1298 1.389 1_655 S
C1297 H1276 0.950 . S
C1297 C1296 1.373 . S
C1297 C1313 1.377 . S
C1298 C1296 1.389 1_455 S
C1298 C1299 1.524 . S
C1298 C1312 1.377 . S
C1299 C1298 1.524 . S
C1299 C1300 1.397 1_455 S
C1299 C1304 1.363 . S
C1300 H1277 0.950 . S
C1300 C1299 1.397 1_655 S
C1300 C1301 1.334 . S
C1301 H1278 0.950 . S
C1301 C1300 1.334 . S
C1301 C1302 1.287 1_655 S
C1302 C1301 1.287 1_455 S
C1302 C1303 1.524 . S
C1302 H1321 0.913 . S
C1303 H1279 0.950 . S
C1303 C1302 1.524 . S
C1303 C1304 1.415 . S
C1304 H1280 0.950 . S
C1304 C1299 1.363 . S
C1304 C1303 1.415 . S
C1305 H1281 0.951 . S
C1305 C1306 1.366 1_655 S
C1305 C1307 1.388 . S
C1306 C1305 1.366 1_455 S
C1306 C1310 1.385 . S
C1307 H1282 0.951 . S
C1307 C1305 1.388 . S
C1307 C1308 1.366 1_655 S
C1308 C1307 1.366 1_455 S
C1308 C1309 1.414 . S
C1308 C1311 1.499 . S
C1309 H1283 0.950 . S
C1309 C1308 1.414 . S
C1309 C1310 1.374 . S
C1310 H1284 0.950 . S
C1310 C1306 1.385 . S
C1310 C1309 1.374 . S
C1311 C1308 1.499 . S
C1311 C1312 1.373 . S
C1311 C1313 1.389 1_455 S
C1312 H1285 0.950 . S
C1312 C1298 1.377 . S
C1312 C1311 1.373 . S
C1313 C1297 1.377 . S
C1313 C1311 1.389 1_655 S
C1313 C1314 1.524 . S
C1314 C1313 1.524 . S
C1314 C1315 1.397 1_655 S
C1314 C1319 1.363 . S
C1315 H1286 0.950 . S
C1315 C1314 1.397 1_455 S
C1315 C1316 1.334 . S
C1316 H1287 0.950 . S
C1316 C1315 1.334 . S
C1316 C1317 1.287 1_455 S
C1317 C1316 1.287 1_655 S
C1317 C1318 1.524 . S
C1317 H1320 0.999 . S
C1318 H1288 0.950 . S
C1318 C1317 1.524 . S
C1318 C1319 1.415 . S
C1319 H1289 0.950 . S
C1319 C1314 1.363 . S
C1319 C1318 1.415 . S
H1320 C1317 0.999 . S
H1321 C1302 0.913 . S
H1322 C1340 0.951 . S
H1323 C1342 0.951 . S
H1324 C1344 0.950 . S
H1325 C1345 0.950 . S
H1326 C1347 0.950 . S
H1327 C1350 0.950 . S
H1328 C1351 0.950 . S
H1329 C1353 0.950 . S
H1330 C1354 0.950 . S
H1331 C1355 0.951 . S
H1332 C1357 0.951 . S
H1333 C1359 0.950 . S
H1334 C1360 0.950 . S
H1335 C1362 0.950 . S
H1336 C1365 0.950 . S
H1337 C1366 0.950 . S
H1338 C1368 0.950 . S
H1339 C1369 0.950 . S
C1340 H1322 0.951 . S
C1340 C1341 1.366 . S
C1340 C1342 1.388 . S
C1341 C1340 1.366 . S
C1341 C1345 1.385 . S
C1342 H1323 0.951 . S
C1342 C1340 1.388 . S
C1342 C1343 1.366 . S
C1343 C1342 1.366 . S
C1343 C1344 1.414 . S
C1343 C1346 1.499 . S
C1344 H1324 0.950 . S
C1344 C1343 1.414 . S
C1344 C1345 1.374 . S
C1345 H1325 0.950 . S
C1345 C1341 1.385 . S
C1345 C1344 1.374 . S
C1346 C1343 1.499 . S
C1346 C1347 1.373 . S
C1346 C1348 1.389 . S
C1347 H1326 0.950 . S
C1347 C1346 1.373 . S
C1347 C1363 1.377 1_655 S
C1348 C1346 1.389 . S
C1348 C1349 1.524 . S
C1348 C1362 1.377 1_655 S
C1349 C1348 1.524 . S
C1349 C1350 1.397 . S
C1349 C1354 1.363 . S
C1350 H1327 0.950 . S
C1350 C1349 1.397 . S
C1350 C1351 1.334 . S
C1351 H1328 0.950 . S
C1351 C1350 1.334 . S
C1351 C1352 1.287 . S
C1352 C1351 1.287 . S
C1352 C1353 1.524 . S
C1352 H1371 0.913 . S
C1353 H1329 0.950 . S
C1353 C1352 1.524 . S
C1353 C1354 1.415 . S
C1354 H1330 0.950 . S
C1354 C1349 1.363 . S
C1354 C1353 1.415 . S
C1355 H1331 0.951 . S
C1355 C1356 1.366 . S
C1355 C1357 1.388 . S
C1356 C1355 1.366 . S
C1356 C1360 1.385 . S
C1357 H1332 0.951 . S
C1357 C1355 1.388 . S
C1357 C1358 1.366 . S
C1358 C1357 1.366 . S
C1358 C1359 1.414 . S
C1358 C1361 1.499 . S
C1359 H1333 0.950 . S
C1359 C1358 1.414 . S
C1359 C1360 1.374 . S
C1360 H1334 0.950 . S
C1360 C1356 1.385 . S
C1360 C1359 1.374 . S
C1361 C1358 1.499 . S
C1361 C1362 1.373 . S
C1361 C1363 1.389 . S
C1362 H1335 0.950 . S
C1362 C1348 1.377 1_455 S
C1362 C1361 1.373 . S
C1363 C1347 1.377 1_455 S
C1363 C1361 1.389 . S
C1363 C1364 1.524 . S
C1364 C1363 1.524 . S
C1364 C1365 1.397 . S
C1364 C1369 1.363 . S
C1365 H1336 0.950 . S
C1365 C1364 1.397 . S
C1365 C1366 1.334 . S
C1366 H1337 0.950 . S
C1366 C1365 1.334 . S
C1366 C1367 1.287 . S
C1367 C1366 1.287 . S
C1367 C1368 1.524 . S
C1367 H1370 0.999 . S
C1368 H1338 0.950 . S
C1368 C1367 1.524 . S
C1368 C1369 1.415 . S
C1369 H1339 0.950 . S
C1369 C1364 1.363 . S
C1369 C1368 1.415 . S
H1370 C1367 0.999 . S
H1371 C1352 0.913 . S
H1372 C1390 0.951 . S
H1373 C1392 0.951 . S
H1374 C1394 0.950 . S
H1375 C1395 0.950 . S
H1376 C1397 0.950 . S
H1377 C1400 0.950 . S
H1378 C1401 0.950 . S
H1379 C1403 0.950 . S
H1380 C1404 0.950 . S
H1381 C1405 0.951 . S
H1382 C1407 0.951 . S
H1383 C1409 0.950 . S
H1384 C1410 0.950 . S
H1385 C1412 0.950 . S
H1386 C1415 0.950 . S
H1387 C1416 0.950 . S
H1388 C1418 0.950 . S
H1389 C1419 0.950 . S
C1390 H1372 0.951 . S
C1390 C1391 1.366 . S
C1390 C1392 1.388 . S
C1391 C1390 1.366 . S
C1391 C1395 1.385 . S
C1392 H1373 0.951 . S
C1392 C1390 1.388 . S
C1392 C1393 1.366 . S
C1393 C1392 1.366 . S
C1393 C1394 1.414 . S
C1393 C1396 1.499 . S
C1394 H1374 0.950 . S
C1394 C1393 1.414 . S
C1394 C1395 1.374 . S
C1395 H1375 0.950 . S
C1395 C1391 1.385 . S
C1395 C1394 1.374 . S
C1396 C1393 1.499 . S
C1396 C1397 1.373 . S
C1396 C1398 1.389 . S
C1397 H1376 0.950 . S
C1397 C1396 1.373 . S
C1397 C1413 1.377 . S
C1398 C1396 1.389 . S
C1398 C1399 1.524 . S
C1398 C1412 1.377 . S
C1399 C1398 1.524 . S
C1399 C1400 1.397 . S
C1399 C1404 1.363 . S
C1400 H1377 0.950 . S
C1400 C1399 1.397 . S
C1400 C1401 1.334 . S
C1401 H1378 0.950 . S
C1401 C1400 1.334 . S
C1401 C1402 1.287 . S
C1402 C1401 1.287 . S
C1402 C1403 1.524 . S
C1402 H1421 0.913 . S
C1403 H1379 0.950 . S
C1403 C1402 1.524 . S
C1403 C1404 1.415 . S
C1404 H1380 0.950 . S
C1404 C1399 1.363 . S
C1404 C1403 1.415 . S
C1405 H1381 0.951 . S
C1405 C1406 1.366 . S
C1405 C1407 1.388 . S
C1406 C1405 1.366 . S
C1406 C1410 1.385 . S
C1407 H1382 0.951 . S
C1407 C1405 1.388 . S
C1407 C1408 1.366 . S
C1408 C1407 1.366 . S
C1408 C1409 1.414 . S
C1408 C1411 1.499 . S
C1409 H1383 0.950 . S
C1409 C1408 1.414 . S
C1409 C1410 1.374 . S
C1410 H1384 0.950 . S
C1410 C1406 1.385 . S
C1410 C1409 1.374 . S
C1411 C1408 1.499 . S
C1411 C1412 1.373 . S
C1411 C1413 1.389 . S
C1412 H1385 0.950 . S
C1412 C1398 1.377 . S
C1412 C1411 1.373 . S
C1413 C1397 1.377 . S
C1413 C1411 1.389 . S
C1413 C1414 1.524 . S
C1414 C1413 1.524 . S
C1414 C1415 1.397 . S
C1414 C1419 1.363 . S
C1415 H1386 0.950 . S
C1415 C1414 1.397 . S
C1415 C1416 1.334 . S
C1416 H1387 0.950 . S
C1416 C1415 1.334 . S
C1416 C1417 1.287 . S
C1417 C1416 1.287 . S
C1417 C1418 1.524 . S
C1417 H1420 0.999 . S
C1418 H1388 0.950 . S
C1418 C1417 1.524 . S
C1418 C1419 1.415 . S
C1419 H1389 0.950 . S
C1419 C1414 1.363 . S
C1419 C1418 1.415 . S
H1420 C1417 0.999 . S
H1421 C1402 0.913 . S
H1422 C1440 0.951 . S
H1423 C1442 0.951 . S
H1424 C1444 0.950 . S
H1425 C1445 0.950 . S
H1426 C1447 0.950 . S
H1427 C1450 0.950 . S
H1428 C1451 0.950 . S
H1429 C1453 0.950 . S
H1430 C1454 0.950 . S
H1431 C1455 0.951 . S
H1432 C1457 0.951 . S
H1433 C1459 0.950 . S
H1434 C1460 0.950 . S
H1435 C1462 0.950 . S
H1436 C1465 0.950 . S
H1437 C1466 0.950 . S
H1438 C1468 0.950 . S
H1439 C1469 0.950 . S
C1440 H1422 0.951 . S
C1440 C1441 1.366 . S
C1440 C1442 1.388 . S
C1441 C1440 1.366 . S
C1441 C1445 1.385 . S
C1442 H1423 0.951 . S
C1442 C1440 1.388 . S
C1442 C1443 1.366 . S
C1443 C1442 1.366 . S
C1443 C1444 1.414 . S
C1443 C1446 1.499 . S
C1444 H1424 0.950 . S
C1444 C1443 1.414 . S
C1444 C1445 1.374 . S
C1445 H1425 0.950 . S
C1445 C1441 1.385 . S
C1445 C1444 1.374 . S
C1446 C1443 1.499 . S
C1446 C1447 1.373 . S
C1446 C1448 1.389 . S
C1447 H1426 0.950 . S
C1447 C1446 1.373 . S
C1447 C1463 1.377 . S
C1448 C1446 1.389 . S
C1448 C1449 1.524 . S
C1448 C1462 1.377 . S
C1449 C1448 1.524 . S
C1449 C1450 1.397 . S
C1449 C1454 1.363 . S
C1450 H1427 0.950 . S
C1450 C1449 1.397 . S
C1450 C1451 1.334 . S
C1451 H1428 0.950 . S
C1451 C1450 1.334 . S
C1451 C1452 1.287 . S
C1452 C1451 1.287 . S
C1452 C1453 1.524 . S
C1452 H1471 0.913 . S
C1453 H1429 0.950 . S
C1453 C1452 1.524 . S
C1453 C1454 1.415 . S
C1454 H1430 0.950 . S
C1454 C1449 1.363 . S
C1454 C1453 1.415 . S
C1455 H1431 0.951 . S
C1455 C1456 1.366 . S
C1455 C1457 1.388 . S
C1456 C1455 1.366 . S
C1456 C1460 1.385 . S
C1457 H1432 0.951 . S
C1457 C1455 1.388 . S
C1457 C1458 1.366 . S
C1458 C1457 1.366 . S
C1458 C1459 1.414 . S
C1458 C1461 1.499 . S
C1459 H1433 0.950 . S
C1459 C1458 1.414 . S
C1459 C1460 1.374 . S
C1460 H1434 0.950 . S
C1460 C1456 1.385 . S
C1460 C1459 1.374 . S
C1461 C1458 1.499 . S
C1461 C1462 1.373 . S
C1461 C1463 1.389 . S
C1462 H1435 0.950 . S
C1462 C1448 1.377 . S
C1462 C1461 1.373 . S
C1463 C1447 1.377 . S
C1463 C1461 1.389 . S
C1463 C1464 1.524 . S
C1464 C1463 1.524 . S
C1464 C1465 1.397 . S
C1464 C1469 1.363 . S
C1465 H1436 0.950 . S
C1465 C1464 1.397 . S
C1465 C1466 1.334 . S
C1466 H1437 0.950 . S
C1466 C1465 1.334 . S
C1466 C1467 1.287 . S
C1467 C1466 1.287 . S
C1467 C1468 1.524 . S
C1467 H1470 0.999 . S
C1468 H1438 0.950 . S
C1468 C1467 1.524 . S
C1468 C1469 1.415 . S
C1469 H1439 0.950 . S
C1469 C1464 1.363 . S
C1469 C1468 1.415 . S
H1470 C1467 0.999 . S
H1471 C1452 0.913 . S
H1472 C1490 0.951 . S
H1473 C1492 0.951 . S
H1474 C1494 0.950 . S
H1475 C1495 0.950 . S
H1476 C1497 0.950 . S
H1477 C1500 0.950 . S
H1478 C1501 0.950 . S
H1479 C1503 0.950 . S
H1480 C1504 0.950 . S
H1481 C1505 0.951 . S
H1482 C1507 0.951 . S
H1483 C1509 0.950 . S
H1484 C1510 0.950 . S
H1485 C1512 0.950 . S
H1486 C1515 0.950 . S
H1487 C1516 0.950 . S
H1488 C1518 0.950 . S
H1489 C1519 0.950 . S
C1490 H1472 0.951 . S
C1490 C1491 1.366 . S
C1490 C1492 1.388 . S
C1491 C1490 1.366 . S
C1491 C1495 1.385 . S
C1492 H1473 0.951 . S
C1492 C1490 1.388 . S
C1492 C1493 1.366 . S
C1493 C1492 1.366 . S
C1493 C1494 1.414 . S
C1493 C1496 1.499 . S
C1494 H1474 0.950 . S
C1494 C1493 1.414 . S
C1494 C1495 1.374 . S
C1495 H1475 0.950 . S
C1495 C1491 1.385 . S
C1495 C1494 1.374 . S
C1496 C1493 1.499 . S
C1496 C1497 1.373 . S
C1496 C1498 1.389 1_455 S
C1497 H1476 0.950 . S
C1497 C1496 1.373 . S
C1497 C1513 1.377 . S
C1498 C1496 1.389 1_655 S
C1498 C1499 1.524 . S
C1498 C1512 1.377 . S
C1499 C1498 1.524 . S
C1499 C1500 1.397 . S
C1499 C1504 1.363 . S
C1500 H1477 0.950 . S
C1500 C1499 1.397 . S
C1500 C1501 1.334 . S
C1501 H1478 0.950 . S
C1501 C1500 1.334 . S
C1501 C1502 1.287 . S
C1502 C1501 1.287 . S
C1502 C1503 1.524 . S
C1502 H1521 0.913 . S
C1503 H1479 0.950 . S
C1503 C1502 1.524 . S
C1503 C1504 1.415 . S
C1504 H1480 0.950 . S
C1504 C1499 1.363 . S
C1504 C1503 1.415 . S
C1505 H1481 0.951 . S
C1505 C1506 1.366 . S
C1505 C1507 1.388 . S
C1506 C1505 1.366 . S
C1506 C1510 1.385 . S
C1507 H1482 0.951 . S
C1507 C1505 1.388 . S
C1507 C1508 1.366 . S
C1508 C1507 1.366 . S
C1508 C1509 1.414 . S
C1508 C1511 1.499 . S
C1509 H1483 0.950 . S
C1509 C1508 1.414 . S
C1509 C1510 1.374 . S
C1510 H1484 0.950 . S
C1510 C1506 1.385 . S
C1510 C1509 1.374 . S
C1511 C1508 1.499 . S
C1511 C1512 1.373 . S
C1511 C1513 1.389 1_655 S
C1512 H1485 0.950 . S
C1512 C1498 1.377 . S
C1512 C1511 1.373 . S
C1513 C1497 1.377 . S
C1513 C1511 1.389 1_455 S
C1513 C1514 1.524 . S
C1514 C1513 1.524 . S
C1514 C1515 1.397 . S
C1514 C1519 1.363 . S
C1515 H1486 0.950 . S
C1515 C1514 1.397 . S
C1515 C1516 1.334 . S
C1516 H1487 0.950 . S
C1516 C1515 1.334 . S
C1516 C1517 1.287 . S
C1517 C1516 1.287 . S
C1517 C1518 1.524 . S
C1517 H1520 0.999 . S
C1518 H1488 0.950 . S
C1518 C1517 1.524 . S
C1518 C1519 1.415 . S
C1519 H1489 0.950 . S
C1519 C1514 1.363 . S
C1519 C1518 1.415 . S
H1520 C1517 0.999 . S
H1521 C1502 0.913 . S
H1522 C1540 0.951 . S
H1523 C1542 0.951 . S
H1524 C1544 0.950 . S
H1525 C1545 0.950 . S
H1526 C1547 0.950 . S
H1527 C1550 0.950 . S
H1528 C1551 0.950 . S
H1529 C1553 0.950 . S
H1530 C1554 0.950 . S
H1531 C1555 0.951 . S
H1532 C1557 0.951 . S
H1533 C1559 0.950 . S
H1534 C1560 0.950 . S
H1535 C1562 0.950 . S
H1536 C1565 0.950 . S
H1537 C1566 0.950 . S
H1538 C1568 0.950 . S
H1539 C1569 0.950 . S
C1540 H1522 0.951 . S
C1540 C1541 1.366 . S
C1540 C1542 1.388 . S
C1541 C1540 1.366 . S
C1541 C1545 1.385 . S
C1542 H1523 0.951 . S
C1542 C1540 1.388 . S
C1542 C1543 1.366 . S
C1543 C1542 1.366 . S
C1543 C1544 1.414 . S
C1543 C1546 1.499 . S
C1544 H1524 0.950 . S
C1544 C1543 1.414 . S
C1544 C1545 1.374 . S
C1545 H1525 0.950 . S
C1545 C1541 1.385 . S
C1545 C1544 1.374 . S
C1546 C1543 1.499 . S
C1546 C1547 1.373 . S
C1546 C1548 1.389 . S
C1547 H1526 0.950 . S
C1547 C1546 1.373 . S
C1547 C1563 1.377 . S
C1548 C1546 1.389 . S
C1548 C1549 1.524 . S
C1548 C1562 1.377 . S
C1549 C1548 1.524 . S
C1549 C1550 1.397 . S
C1549 C1554 1.363 . S
C1550 H1527 0.950 . S
C1550 C1549 1.397 . S
C1550 C1551 1.334 . S
C1551 H1528 0.950 . S
C1551 C1550 1.334 . S
C1551 C1552 1.287 . S
C1552 C1551 1.287 . S
C1552 C1553 1.524 . S
C1552 H1571 0.913 . S
C1553 H1529 0.950 . S
C1553 C1552 1.524 . S
C1553 C1554 1.415 . S
C1554 H1530 0.950 . S
C1554 C1549 1.363 . S
C1554 C1553 1.415 . S
C1555 H1531 0.951 . S
C1555 C1556 1.366 . S
C1555 C1557 1.388 . S
C1556 C1555 1.366 . S
C1556 C1560 1.385 . S
C1557 H1532 0.951 . S
C1557 C1555 1.388 . S
C1557 C1558 1.366 . S
C1558 C1557 1.366 . S
C1558 C1559 1.414 . S
C1558 C1561 1.499 . S
C1559 H1533 0.950 . S
C1559 C1558 1.414 . S
C1559 C1560 1.374 . S
C1560 H1534 0.950 . S
C1560 C1556 1.385 . S
C1560 C1559 1.374 . S
C1561 C1558 1.499 . S
C1561 C1562 1.373 . S
C1561 C1563 1.389 . S
C1562 H1535 0.950 . S
C1562 C1548 1.377 . S
C1562 C1561 1.373 . S
C1563 C1547 1.377 . S
C1563 C1561 1.389 . S
C1563 C1564 1.524 . S
C1564 C1563 1.524 . S
C1564 C1565 1.397 . S
C1564 C1569 1.363 . S
C1565 H1536 0.950 . S
C1565 C1564 1.397 . S
C1565 C1566 1.334 . S
C1566 H1537 0.950 . S
C1566 C1565 1.334 . S
C1566 C1567 1.287 . S
C1567 C1566 1.287 . S
C1567 C1568 1.524 . S
C1567 H1570 0.999 . S
C1568 H1538 0.950 . S
C1568 C1567 1.524 . S
C1568 C1569 1.415 . S
C1569 H1539 0.950 . S
C1569 C1564 1.363 . S
C1569 C1568 1.415 . S
H1570 C1567 0.999 . S
H1571 C1552 0.913 . S
H1572 C1590 0.951 . S
H1573 C1592 0.951 . S
H1574 C1594 0.950 . S
H1575 C1595 0.950 . S
H1576 C1597 0.950 . S
H1577 C1600 0.950 . S
H1578 C1601 0.950 . S
H1579 C1603 0.950 . S
H1580 C1604 0.950 . S
H1581 C1605 0.951 . S
H1582 C1607 0.951 . S
H1583 C1609 0.950 . S
H1584 C1610 0.950 . S
H1585 C1612 0.950 . S
H1586 C1615 0.950 . S
H1587 C1616 0.950 . S
H1588 C1618 0.950 . S
H1589 C1619 0.950 . S
C1590 H1572 0.951 . S
C1590 C1591 1.366 . S
C1590 C1592 1.388 . S
C1591 C1590 1.366 . S
C1591 C1595 1.385 . S
C1592 H1573 0.951 . S
C1592 C1590 1.388 . S
C1592 C1593 1.366 . S
C1593 C1592 1.366 . S
C1593 C1594 1.414 . S
C1593 C1596 1.499 . S
C1594 H1574 0.950 . S
C1594 C1593 1.414 . S
C1594 C1595 1.374 . S
C1595 H1575 0.950 . S
C1595 C1591 1.385 . S
C1595 C1594 1.374 . S
C1596 C1593 1.499 . S
C1596 C1597 1.373 . S
C1596 C1598 1.389 . S
C1597 H1576 0.950 . S
C1597 C1596 1.373 . S
C1597 C1613 1.377 . S
C1598 C1596 1.389 . S
C1598 C1599 1.524 . S
C1598 C1612 1.377 . S
C1599 C1598 1.524 . S
C1599 C1600 1.397 . S
C1599 C1604 1.363 . S
C1600 H1577 0.950 . S
C1600 C1599 1.397 . S
C1600 C1601 1.334 . S
C1601 H1578 0.950 . S
C1601 C1600 1.334 . S
C1601 C1602 1.287 . S
C1602 C1601 1.287 . S
C1602 C1603 1.524 . S
C1602 H1621 0.913 . S
C1603 H1579 0.950 . S
C1603 C1602 1.524 . S
C1603 C1604 1.415 . S
C1604 H1580 0.950 . S
C1604 C1599 1.363 . S
C1604 C1603 1.415 . S
C1605 H1581 0.951 . S
C1605 C1606 1.366 . S
C1605 C1607 1.388 . S
C1606 C1605 1.366 . S
C1606 C1610 1.385 . S
C1607 H1582 0.951 . S
C1607 C1605 1.388 . S
C1607 C1608 1.366 . S
C1608 C1607 1.366 . S
C1608 C1609 1.414 . S
C1608 C1611 1.499 . S
C1609 H1583 0.950 . S
C1609 C1608 1.414 . S
C1609 C1610 1.374 . S
C1610 H1584 0.950 . S
C1610 C1606 1.385 . S
C1610 C1609 1.374 . S
C1611 C1608 1.499 . S
C1611 C1612 1.373 . S
C1611 C1613 1.389 . S
C1612 H1585 0.950 . S
C1612 C1598 1.377 . S
C1612 C1611 1.373 . S
C1613 C1597 1.377 . S
C1613 C1611 1.389 . S
C1613 C1614 1.524 . S
C1614 C1613 1.524 . S
C1614 C1615 1.397 . S
C1614 C1619 1.363 . S
C1615 H1586 0.950 . S
C1615 C1614 1.397 . S
C1615 C1616 1.334 . S
C1616 H1587 0.950 . S
C1616 C1615 1.334 . S
C1616 C1617 1.287 . S
C1617 C1616 1.287 . S
C1617 C1618 1.524 . S
C1617 H1620 0.999 . S
C1618 H1588 0.950 . S
C1618 C1617 1.524 . S
C1618 C1619 1.415 . S
C1619 H1589 0.950 . S
C1619 C1614 1.363 . S
C1619 C1618 1.415 . S
H1620 C1617 0.999 . S
H1621 C1602 0.913 . S
H1622 C1640 0.951 . S
H1623 C1642 0.951 . S
H1624 C1644 0.950 . S
H1625 C1645 0.950 . S
H1626 C1647 0.950 . S
H1627 C1650 0.950 . S
H1628 C1651 0.950 . S
H1629 C1653 0.950 . S
H1630 C1654 0.950 . S
H1631 C1655 0.951 . S
H1632 C1657 0.951 . S
H1633 C1659 0.950 . S
H1634 C1660 0.950 . S
H1635 C1662 0.950 . S
H1636 C1665 0.950 . S
H1637 C1666 0.950 . S
H1638 C1668 0.950 . S
H1639 C1669 0.950 . S
C1640 H1622 0.951 . S
C1640 C1641 1.366 . S
C1640 C1642 1.388 . S
C1641 C1640 1.366 . S
C1641 C1645 1.385 . S
C1642 H1623 0.951 . S
C1642 C1640 1.388 . S
C1642 C1643 1.366 . S
C1643 C1642 1.366 . S
C1643 C1644 1.414 . S
C1643 C1646 1.499 . S
C1644 H1624 0.950 . S
C1644 C1643 1.414 . S
C1644 C1645 1.374 . S
C1645 H1625 0.950 . S
C1645 C1641 1.385 . S
C1645 C1644 1.374 . S
C1646 C1643 1.499 . S
C1646 C1647 1.373 . S
C1646 C1648 1.389 . S
C1647 H1626 0.950 . S
C1647 C1646 1.373 . S
C1647 C1663 1.377 1_655 S
C1648 C1646 1.389 . S
C1648 C1649 1.524 . S
C1648 C1662 1.377 1_655 S
C1649 C1648 1.524 . S
C1649 C1650 1.397 . S
C1649 C1654 1.363 . S
C1650 H1627 0.950 . S
C1650 C1649 1.397 . S
C1650 C1651 1.334 . S
C1651 H1628 0.950 . S
C1651 C1650 1.334 . S
C1651 C1652 1.287 . S
C1652 C1651 1.287 . S
C1652 C1653 1.524 . S
C1652 H1671 0.913 . S
C1653 H1629 0.950 . S
C1653 C1652 1.524 . S
C1653 C1654 1.415 . S
C1654 H1630 0.950 . S
C1654 C1649 1.363 . S
C1654 C1653 1.415 . S
C1655 H1631 0.951 . S
C1655 C1656 1.366 . S
C1655 C1657 1.388 . S
C1656 C1655 1.366 . S
C1656 C1660 1.385 . S
C1657 H1632 0.951 . S
C1657 C1655 1.388 . S
C1657 C1658 1.366 . S
C1658 C1657 1.366 . S
C1658 C1659 1.414 . S
C1658 C1661 1.499 . S
C1659 H1633 0.950 . S
C1659 C1658 1.414 . S
C1659 C1660 1.374 . S
C1660 H1634 0.950 . S
C1660 C1656 1.385 . S
C1660 C1659 1.374 . S
C1661 C1658 1.499 . S
C1661 C1662 1.373 . S
C1661 C1663 1.389 . S
C1662 H1635 0.950 . S
C1662 C1648 1.377 1_455 S
C1662 C1661 1.373 . S
C1663 C1647 1.377 1_455 S
C1663 C1661 1.389 . S
C1663 C1664 1.524 . S
C1664 C1663 1.524 . S
C1664 C1665 1.397 . S
C1664 C1669 1.363 . S
C1665 H1636 0.950 . S
C1665 C1664 1.397 . S
C1665 C1666 1.334 . S
C1666 H1637 0.950 . S
C1666 C1665 1.334 . S
C1666 C1667 1.287 . S
C1667 C1666 1.287 . S
C1667 C1668 1.524 . S
C1667 H1670 0.999 . S
C1668 H1638 0.950 . S
C1668 C1667 1.524 . S
C1668 C1669 1.415 . S
C1669 H1639 0.950 . S
C1669 C1664 1.363 . S
C1669 C1668 1.415 . S
H1670 C1667 0.999 . S
H1671 C1652 0.913 . S
C291 C187 1.544 . S
C306 C17 1.544 . S
C341 C51 1.545 . S
C356 C221 1.545 . S
C391 C85 1.545 . S
C406 C255 1.545 . S
C441 C153 1.544 . S
C456 C119 1.544 . S
C491 C139 1.834 . S
C506 C1 1.834 . S
C541 C35 1.835 . S
C556 C173 1.836 . S
C591 C71 1.834 . S
C606 C205 1.835 . S
C641 C105 1.835 . S
C656 C239 1.836 . S
C691 C103 1.835 . S
C706 C241 1.832 . S
C741 C37 1.834 . S
C756 C171 1.832 . S
C791 C69 1.835 . S
C806 C207 1.835 . S
C841 C3 1.834 . S
C856 C137 1.834 . S
C891 C15 1.062 . S
C906 C22 1.062 . S
C941 C49 1.062 1_545 S
C956 C56 1.062 . S
C991 C83 1.062 . S
C1006 C90 1.062 . S
C1041 C124 1.065 1_565 S
C1056 C117 1.065 . S
C1091 C158 1.063 . S
C1106 C151 1.063 . S
C1141 C192 1.065 1_545 S
C1156 C185 1.064 . S
C1191 C219 1.062 . S
C1206 C226 1.062 . S
C1241 C260 1.063 . S
C1256 C253 1.063 1_565 S
C1291 C6 1.884 . S
C1306 C28 1.883 1_545 S
C1341 C40 1.884 . S
C1356 C62 1.883 . S
C1391 C96 1.883 . S
C1406 C74 1.883 1_565 S
C1441 C130 1.883 . S
C1456 C108 1.884 . S
C1491 C142 1.884 1_565 S
C1506 C164 1.884 . S
C1541 C176 1.883 . S
C1556 C198 1.884 . S
C1591 C210 1.884 . S
C1606 C232 1.883 1_545 S
C1641 C244 1.884 . S
C1656 C266 1.883 . S
