# Generated by pormake.
# Topology vcc, (6)-cn, num edge types: 1
# Building blocks:
#     Node 0, Type 0, BuildingBlock: JUFBIX_clean_sbu_0, # of connection points: 6
#     Node 1, Type 0, BuildingBlock: JUFBIX_clean_sbu_0, # of connection points: 6
#     Node 2, Type 0, BuildingBlock: JUFBIX_clean_sbu_0, # of connection points: 6
#     Node 3, Type 0, BuildingBlock: JUFBIX_clean_sbu_0, # of connection points: 6
#     Node 4, Type 0, BuildingBlock: JUFBIX_clean_sbu_0, # of connection points: 6
#     Node 5, Type 0, BuildingBlock: JUFBIX_clean_sbu_0, # of connection points: 6
#     Node 6, Type 0, BuildingBlock: JUFBIX_clean_sbu_0, # of connection points: 6
#     Node 7, Type 0, BuildingBlock: JUFBIX_clean_sbu_0, # of connection points: 6
#     Node 8, Type 0, BuildingBlock: JUFBIX_clean_sbu_0, # of connection points: 6
#     Node 9, Type 0, BuildingBlock: JUFBIX_clean_sbu_0, # of connection points: 6
#     Node 10, Type 0, BuildingBlock: JUFBIX_clean_sbu_0, # of connection points: 6
#     Node 11, Type 0, BuildingBlock: JUFBIX_clean_sbu_0, # of connection points: 6
#     Node 12, Type 0, BuildingBlock: JUFBIX_clean_sbu_0, # of connection points: 6
#     Node 13, Type 0, BuildingBlock: JUFBIX_clean_sbu_0, # of connection points: 6
#     Node 14, Type 0, BuildingBlock: JUFBIX_clean_sbu_0, # of connection points: 6
#     Node 15, Type 0, BuildingBlock: JUFBIX_clean_sbu_0, # of connection points: 6
#     Node 16, Type 0, BuildingBlock: JUFBIX_clean_sbu_0, # of connection points: 6
#     Node 17, Type 0, BuildingBlock: JUFBIX_clean_sbu_0, # of connection points: 6
#     Node 18, Type 0, BuildingBlock: JUFBIX_clean_sbu_0, # of connection points: 6
#     Node 19, Type 0, BuildingBlock: JUFBIX_clean_sbu_0, # of connection points: 6
#     Node 20, Type 0, BuildingBlock: JUFBIX_clean_sbu_0, # of connection points: 6
#     Node 21, Type 0, BuildingBlock: JUFBIX_clean_sbu_0, # of connection points: 6
#     Node 22, Type 0, BuildingBlock: JUFBIX_clean_sbu_0, # of connection points: 6
#     Node 23, Type 0, BuildingBlock: JUFBIX_clean_sbu_0, # of connection points: 6
#     Node 24, Type 0, BuildingBlock: JUFBIX_clean_sbu_0, # of connection points: 6
#     Node 25, Type 0, BuildingBlock: JUFBIX_clean_sbu_0, # of connection points: 6
#     Node 26, Type 0, BuildingBlock: JUFBIX_clean_sbu_0, # of connection points: 6
#     Node 27, Type 0, BuildingBlock: JUFBIX_clean_sbu_0, # of connection points: 6
#     Node 28, Type 0, BuildingBlock: JUFBIX_clean_sbu_0, # of connection points: 6
#     Node 29, Type 0, BuildingBlock: JUFBIX_clean_sbu_0, # of connection points: 6
#     Node 30, Type 0, BuildingBlock: JUFBIX_clean_sbu_0, # of connection points: 6
#     Node 31, Type 0, BuildingBlock: JUFBIX_clean_sbu_0, # of connection points: 6
#     Edge 32, Type (0, 0), BuildingBlock: CIFDUS_clean_linker_0, # of connection points: 2
#     Edge 33, Type (0, 0), BuildingBlock: CIFDUS_clean_linker_0, # of connection points: 2
#     Edge 34, Type (0, 0), BuildingBlock: CIFDUS_clean_linker_0, # of connection points: 2
#     Edge 35, Type (0, 0), BuildingBlock: CIFDUS_clean_linker_0, # of connection points: 2
#     Edge 36, Type (0, 0), BuildingBlock: CIFDUS_clean_linker_0, # of connection points: 2
#     Edge 37, Type (0, 0), BuildingBlock: CIFDUS_clean_linker_0, # of connection points: 2
#     Edge 38, Type (0, 0), BuildingBlock: CIFDUS_clean_linker_0, # of connection points: 2
#     Edge 39, Type (0, 0), BuildingBlock: CIFDUS_clean_linker_0, # of connection points: 2
#     Edge 40, Type (0, 0), BuildingBlock: CIFDUS_clean_linker_0, # of connection points: 2
#     Edge 41, Type (0, 0), BuildingBlock: CIFDUS_clean_linker_0, # of connection points: 2
#     Edge 42, Type (0, 0), BuildingBlock: CIFDUS_clean_linker_0, # of connection points: 2
#     Edge 43, Type (0, 0), BuildingBlock: CIFDUS_clean_linker_0, # of connection points: 2
#     Edge 44, Type (0, 0), BuildingBlock: CIFDUS_clean_linker_0, # of connection points: 2
#     Edge 45, Type (0, 0), BuildingBlock: CIFDUS_clean_linker_0, # of connection points: 2
#     Edge 46, Type (0, 0), BuildingBlock: CIFDUS_clean_linker_0, # of connection points: 2
#     Edge 47, Type (0, 0), BuildingBlock: CIFDUS_clean_linker_0, # of connection points: 2
#     Edge 48, Type (0, 0), BuildingBlock: CIFDUS_clean_linker_0, # of connection points: 2
#     Edge 49, Type (0, 0), BuildingBlock: CIFDUS_clean_linker_0, # of connection points: 2
#     Edge 50, Type (0, 0), BuildingBlock: CIFDUS_clean_linker_0, # of connection points: 2
#     Edge 51, Type (0, 0), BuildingBlock: CIFDUS_clean_linker_0, # of connection points: 2
#     Edge 52, Type (0, 0), BuildingBlock: CIFDUS_clean_linker_0, # of connection points: 2
#     Edge 53, Type (0, 0), BuildingBlock: CIFDUS_clean_linker_0, # of connection points: 2
#     Edge 54, Type (0, 0), BuildingBlock: CIFDUS_clean_linker_0, # of connection points: 2
#     Edge 55, Type (0, 0), BuildingBlock: CIFDUS_clean_linker_0, # of connection points: 2
#     Edge 56, Type (0, 0), BuildingBlock: CIFDUS_clean_linker_0, # of connection points: 2
#     Edge 57, Type (0, 0), BuildingBlock: CIFDUS_clean_linker_0, # of connection points: 2
#     Edge 58, Type (0, 0), BuildingBlock: CIFDUS_clean_linker_0, # of connection points: 2
#     Edge 59, Type (0, 0), BuildingBlock: CIFDUS_clean_linker_0, # of connection points: 2
#     Edge 60, Type (0, 0), BuildingBlock: CIFDUS_clean_linker_0, # of connection points: 2
#     Edge 61, Type (0, 0), BuildingBlock: CIFDUS_clean_linker_0, # of connection points: 2
#     Edge 62, Type (0, 0), BuildingBlock: CIFDUS_clean_linker_0, # of connection points: 2
#     Edge 63, Type (0, 0), BuildingBlock: CIFDUS_clean_linker_0, # of connection points: 2
#     Edge 64, Type (0, 0), BuildingBlock: CIFDUS_clean_linker_0, # of connection points: 2
#     Edge 65, Type (0, 0), BuildingBlock: CIFDUS_clean_linker_0, # of connection points: 2
#     Edge 66, Type (0, 0), BuildingBlock: CIFDUS_clean_linker_0, # of connection points: 2
#     Edge 67, Type (0, 0), BuildingBlock: CIFDUS_clean_linker_0, # of connection points: 2
#     Edge 68, Type (0, 0), BuildingBlock: CIFDUS_clean_linker_0, # of connection points: 2
#     Edge 69, Type (0, 0), BuildingBlock: CIFDUS_clean_linker_0, # of connection points: 2
#     Edge 70, Type (0, 0), BuildingBlock: CIFDUS_clean_linker_0, # of connection points: 2
#     Edge 71, Type (0, 0), BuildingBlock: CIFDUS_clean_linker_0, # of connection points: 2
#     Edge 72, Type (0, 0), BuildingBlock: CIFDUS_clean_linker_0, # of connection points: 2
#     Edge 73, Type (0, 0), BuildingBlock: CIFDUS_clean_linker_0, # of connection points: 2
#     Edge 74, Type (0, 0), BuildingBlock: CIFDUS_clean_linker_0, # of connection points: 2
#     Edge 75, Type (0, 0), BuildingBlock: CIFDUS_clean_linker_0, # of connection points: 2
#     Edge 76, Type (0, 0), BuildingBlock: CIFDUS_clean_linker_0, # of connection points: 2
#     Edge 77, Type (0, 0), BuildingBlock: CIFDUS_clean_linker_0, # of connection points: 2
#     Edge 78, Type (0, 0), BuildingBlock: CIFDUS_clean_linker_0, # of connection points: 2
#     Edge 79, Type (0, 0), BuildingBlock: CIFDUS_clean_linker_0, # of connection points: 2
#     Edge 80, Type (0, 0), BuildingBlock: CIFDUS_clean_linker_0, # of connection points: 2
#     Edge 81, Type (0, 0), BuildingBlock: CIFDUS_clean_linker_0, # of connection points: 2
#     Edge 82, Type (0, 0), BuildingBlock: CIFDUS_clean_linker_0, # of connection points: 2
#     Edge 83, Type (0, 0), BuildingBlock: CIFDUS_clean_linker_0, # of connection points: 2
#     Edge 84, Type (0, 0), BuildingBlock: CIFDUS_clean_linker_0, # of connection points: 2
#     Edge 85, Type (0, 0), BuildingBlock: CIFDUS_clean_linker_0, # of connection points: 2
#     Edge 86, Type (0, 0), BuildingBlock: CIFDUS_clean_linker_0, # of connection points: 2
#     Edge 87, Type (0, 0), BuildingBlock: CIFDUS_clean_linker_0, # of connection points: 2
#     Edge 88, Type (0, 0), BuildingBlock: CIFDUS_clean_linker_0, # of connection points: 2
#     Edge 89, Type (0, 0), BuildingBlock: CIFDUS_clean_linker_0, # of connection points: 2
#     Edge 90, Type (0, 0), BuildingBlock: CIFDUS_clean_linker_0, # of connection points: 2
#     Edge 91, Type (0, 0), BuildingBlock: CIFDUS_clean_linker_0, # of connection points: 2
#     Edge 92, Type (0, 0), BuildingBlock: CIFDUS_clean_linker_0, # of connection points: 2
#     Edge 93, Type (0, 0), BuildingBlock: CIFDUS_clean_linker_0, # of connection points: 2
#     Edge 94, Type (0, 0), BuildingBlock: CIFDUS_clean_linker_0, # of connection points: 2
#     Edge 95, Type (0, 0), BuildingBlock: CIFDUS_clean_linker_0, # of connection points: 2
#     Edge 96, Type (0, 0), BuildingBlock: CIFDUS_clean_linker_0, # of connection points: 2
#     Edge 97, Type (0, 0), BuildingBlock: CIFDUS_clean_linker_0, # of connection points: 2
#     Edge 98, Type (0, 0), BuildingBlock: CIFDUS_clean_linker_0, # of connection points: 2
#     Edge 99, Type (0, 0), BuildingBlock: CIFDUS_clean_linker_0, # of connection points: 2
#     Edge 100, Type (0, 0), BuildingBlock: CIFDUS_clean_linker_0, # of connection points: 2
#     Edge 101, Type (0, 0), BuildingBlock: CIFDUS_clean_linker_0, # of connection points: 2
#     Edge 102, Type (0, 0), BuildingBlock: CIFDUS_clean_linker_0, # of connection points: 2
#     Edge 103, Type (0, 0), BuildingBlock: CIFDUS_clean_linker_0, # of connection points: 2
#     Edge 104, Type (0, 0), BuildingBlock: CIFDUS_clean_linker_0, # of connection points: 2
#     Edge 105, Type (0, 0), BuildingBlock: CIFDUS_clean_linker_0, # of connection points: 2
#     Edge 106, Type (0, 0), BuildingBlock: CIFDUS_clean_linker_0, # of connection points: 2
#     Edge 107, Type (0, 0), BuildingBlock: CIFDUS_clean_linker_0, # of connection points: 2
#     Edge 108, Type (0, 0), BuildingBlock: CIFDUS_clean_linker_0, # of connection points: 2
#     Edge 109, Type (0, 0), BuildingBlock: CIFDUS_clean_linker_0, # of connection points: 2
#     Edge 110, Type (0, 0), BuildingBlock: CIFDUS_clean_linker_0, # of connection points: 2
#     Edge 111, Type (0, 0), BuildingBlock: CIFDUS_clean_linker_0, # of connection points: 2
#     Edge 112, Type (0, 0), BuildingBlock: CIFDUS_clean_linker_0, # of connection points: 2
#     Edge 113, Type (0, 0), BuildingBlock: CIFDUS_clean_linker_0, # of connection points: 2
#     Edge 114, Type (0, 0), BuildingBlock: CIFDUS_clean_linker_0, # of connection points: 2
#     Edge 115, Type (0, 0), BuildingBlock: CIFDUS_clean_linker_0, # of connection points: 2
#     Edge 116, Type (0, 0), BuildingBlock: CIFDUS_clean_linker_0, # of connection points: 2
#     Edge 117, Type (0, 0), BuildingBlock: CIFDUS_clean_linker_0, # of connection points: 2
#     Edge 118, Type (0, 0), BuildingBlock: CIFDUS_clean_linker_0, # of connection points: 2
#     Edge 119, Type (0, 0), BuildingBlock: CIFDUS_clean_linker_0, # of connection points: 2
#     Edge 120, Type (0, 0), BuildingBlock: CIFDUS_clean_linker_0, # of connection points: 2
#     Edge 121, Type (0, 0), BuildingBlock: CIFDUS_clean_linker_0, # of connection points: 2
#     Edge 122, Type (0, 0), BuildingBlock: CIFDUS_clean_linker_0, # of connection points: 2
#     Edge 123, Type (0, 0), BuildingBlock: CIFDUS_clean_linker_0, # of connection points: 2
#     Edge 124, Type (0, 0), BuildingBlock: CIFDUS_clean_linker_0, # of connection points: 2
#     Edge 125, Type (0, 0), BuildingBlock: CIFDUS_clean_linker_0, # of connection points: 2
#     Edge 126, Type (0, 0), BuildingBlock: CIFDUS_clean_linker_0, # of connection points: 2
#     Edge 127, Type (0, 0), BuildingBlock: CIFDUS_clean_linker_0, # of connection points: 2
# Relax obj value: 0.363
# Max RMSD: 0.189
# Mean RMSD: 0.189
data_MOF--net-vcc--node1-JUFBIX_clean_sbu_0--edge1-CIFDUS_clean_linker_0
_symmetry_space_group_name_H-M    P1
_symmetry_Int_Tables_number       1
_symmetry_cell_setting            triclinic
loop_
_symmetry_equiv_pos_as_xyz
'x, y, z'
_cell_length_a     58.008381
_cell_length_b     48.292049
_cell_length_c     30.866782
_cell_angle_alpha  89.766769
_cell_angle_beta   90.207515
_cell_angle_gamma 90.031216
loop_
_atom_site_label
_atom_site_type_symbol
_atom_site_fract_x
_atom_site_fract_y
_atom_site_fract_z
_atom_type_partial_charge
Co0 Co 0.34444 0.02687 0.15397 0.0
C1 C 0.3454 0.97033 0.137 0.0
Co2 Co 0.31594 1.01584 0.11197 0.0
C3 C 0.39092 0.03774 0.17723 0.0
C4 C 0.36728 0.05482 0.22305 0.0
N5 N 0.36846 0.03843 0.18787 0.0
N6 N 0.40377 0.05369 0.20351 0.0
C7 C 0.38903 0.06422 0.23282 0.0
H8 H 0.3976 0.02694 0.14933 0.0
H9 H 0.35149 0.06091 0.23892 0.0
C10 C 0.3176 0.07253 0.13148 0.0
N11 N 0.29239 1.00523 0.07627 0.0
C12 C 0.27699 0.98463 0.08171 0.0
C13 C 0.28782 1.01597 1.03683 0.0
N14 N 0.26307 0.98194 1.0469 0.0
C15 C 0.26988 1.00168 1.01868 0.0
C16 C 0.30159 1.01669 0.2022 0.0
O17 O 0.3354 0.06393 0.15065 0.0
O18 O 0.30566 0.05523 0.1095 0.0
O19 O 0.29562 1.01091 0.16333 0.0
O20 O 0.32305 1.02298 0.20756 0.0
O21 O 0.3271 0.97659 0.11558 0.0
H22 H 0.29673 0.03339 1.02244 0.0
H23 H 0.27573 0.97221 0.11088 0.0
O24 O 0.35507 0.98938 0.15864 0.0
O25 O 0.36448 0.03129 0.09921 0.0
O26 O 0.33501 1.02094 1.05943 0.0
C27 C 0.35622 0.02731 1.061 0.0
H28 H 0.39357 0.07802 0.25904 0.0
H29 H 0.2615 1.00662 0.98821 0.0
Co30 Co 0.92325 0.27382 0.15665 0.0
C31 C 0.9253 0.33126 0.1405 0.0
Co32 Co 0.95415 0.28478 0.12088 0.0
C33 C 0.89019 0.24175 0.20709 0.0
C34 C 0.87574 0.27603 0.172 0.0
N35 N 0.896 0.26431 0.18342 0.0
N36 N 0.8671 0.23874 0.20943 0.0
C37 C 0.85805 0.26048 0.188 0.0
H38 H 0.90247 0.22701 0.22013 0.0
H39 H 0.87382 0.29378 0.15084 0.0
C40 C 0.95027 0.2275 0.14029 0.0
N41 N 0.98016 0.29437 0.09132 0.0
C42 C 0.99561 0.31432 0.101 0.0
C43 C 0.98717 0.28362 1.05336 0.0
N44 N 0.01168 0.31665 0.07001 0.0
C45 C 1.00661 0.29736 1.04014 0.0
C46 C 0.96282 0.28282 0.21343 0.0
O47 O 0.93148 0.23603 0.15586 0.0
O48 O 0.96328 0.24495 0.12073 0.0
O49 O 0.9715 0.28851 0.17648 0.0
O50 O 0.94105 0.27702 0.21372 0.0
O51 O 0.94436 0.3247 0.12233 0.0
H52 H 0.97869 0.26688 1.03643 0.0
H53 H 0.99508 0.32687 0.12997 0.0
O54 O 0.91412 0.31204 0.15889 0.0
O55 O 0.90658 0.27013 0.09893 0.0
O56 O 0.93765 0.2806 0.0639 0.0
C57 C 0.91635 0.27421 0.06224 0.0
H58 H 0.83983 0.26468 0.18391 0.0
H59 H 0.01665 0.29316 1.01139 0.0
Co60 Co 0.35182 0.27037 0.21524 0.0
C61 C 0.34957 0.32757 0.23204 0.0
Co62 Co 0.32058 0.28104 0.2493 0.0
C63 C 0.3858 0.23756 0.16988 0.0
C64 C 0.39977 0.27248 0.20369 0.0
N65 N 0.37969 0.26079 0.19126 0.0
N66 N 0.40885 0.23403 0.17002 0.0
C67 C 0.41765 0.25619 0.19056 0.0
H68 H 0.37367 0.22269 0.15684 0.0
H69 H 0.40135 0.29066 0.22379 0.0
C70 C 0.3243 0.22413 0.22926 0.0
N71 N 0.29341 0.2897 0.27455 0.0
C72 C 0.28945 0.30233 0.31257 0.0
C73 C 0.27253 0.2817 0.25977 0.0
N74 N 0.2669 0.30229 0.32183 0.0
C75 C 0.25615 0.28947 0.28891 0.0
C76 C 0.31384 0.27937 0.15573 0.0
O77 O 0.34358 0.2325 0.21569 0.0
O78 O 0.31121 0.24153 0.24815 0.0
O79 O 0.3051 0.28553 0.1922 0.0
O80 O 0.33551 0.2732 0.15624 0.0
O81 O 0.33033 0.32079 0.24947 0.0
H82 H 0.26949 0.26966 0.23084 0.0
H83 H 0.30279 0.30991 0.33409 0.0
O84 O 0.36089 0.30867 0.21334 0.0
O85 O 0.36707 0.26713 0.27476 0.0
O86 O 0.33519 0.27634 0.30801 0.0
C87 C 0.35665 0.27089 0.31092 0.0
H88 H 0.43579 0.26019 0.19608 0.0
H89 H 0.23792 0.2847 0.28747 0.0
Co90 Co 0.92056 0.02965 0.22319 0.0
C91 C 0.92094 0.97157 0.2372 0.0
Co92 Co 0.95222 1.01596 0.25383 0.0
C93 C 0.88551 0.06248 0.17815 0.0
C94 C 0.8724 0.03027 0.2192 0.0
N95 N 0.89212 0.04064 0.20276 0.0
N96 N 0.86246 0.06633 0.17971 0.0
C97 C 0.85424 0.04588 0.20508 0.0
H98 H 0.89735 0.07585 0.16087 0.0
H99 H 0.87133 1.01305 0.24159 0.0
C100 C 0.94939 0.07414 0.23649 0.0
N101 N 0.98057 1.00488 0.27404 0.0
C102 C 0.98692 0.98374 0.30025 0.0
C103 C 1.00044 1.015 0.25788 0.0
N104 N 0.01 0.98002 0.30004 0.0
C105 C 0.01845 0.99983 0.27367 0.0
C106 C 0.95687 1.01974 0.15996 0.0
O107 O 0.92937 0.067 0.22505 0.0
O108 O 0.96276 0.05556 0.25235 0.0
O109 O 0.96498 1.01155 0.19603 0.0
O110 O 0.93569 0.02824 0.16108 0.0
O111 O 0.94076 0.97675 0.25391 0.0
H112 H 1.00175 0.03194 0.235 0.0
H113 H 0.97493 0.97113 0.31852 0.0
O114 O 0.91026 0.99163 0.21977 0.0
O115 O 0.9074 0.03171 0.28609 0.0
O116 O 0.94059 1.02021 0.31348 0.0
C117 C 0.91957 0.02669 0.32031 0.0
H118 H 0.83625 0.04219 0.21239 0.0
H119 H 0.03652 1.00372 0.26743 0.0
Co120 Co 0.70026 0.03774 1.00893 0.0
C121 C 0.6957 0.98066 0.98681 0.0
Co122 Co 0.67037 0.02798 0.96955 0.0
C123 C 0.73428 0.06849 1.05955 0.0
C124 C 0.74713 0.03188 1.02883 0.0
N125 N 0.7275 0.0459 1.03703 0.0
N126 N 0.75741 0.06915 0.0644 0.0
C127 C 0.7654 0.04601 1.04565 0.0
H128 H 0.72277 0.08471 0.07018 0.0
H129 H 0.7484 1.01341 1.00935 0.0
C130 C 0.67222 0.08497 0.98812 0.0
N131 N 0.64453 1.01935 0.93878 0.0
C132 C 0.62874 0.99976 0.94825 0.0
C133 C 0.63868 0.02913 0.8993 0.0
N134 N 0.61358 0.99669 0.91572 0.0
C135 C 0.61956 1.01511 0.88495 0.0
C136 C 0.66215 0.02769 0.06503 0.0
O137 O 0.69084 0.07793 1.00799 0.0
O138 O 0.66153 0.06625 0.9675 0.0
O139 O 0.65269 1.02442 1.02736 0.0
O140 O 0.68373 0.03312 0.06501 0.0
O141 O 0.6776 0.99012 0.96972 0.0
H142 H 0.64803 0.04495 0.88175 0.0
H143 H 0.62878 0.98745 0.97764 0.0
O144 O 0.7084 0.99733 1.00842 0.0
O145 O 0.71785 0.04224 0.9546 0.0
O146 O 0.68937 0.03091 0.91295 0.0
C147 C 0.71094 0.03675 0.91642 0.0
H148 H 0.78334 0.03987 1.044 0.0
H149 H 0.6107 1.01807 0.85435 0.0
Co150 Co 0.06979 0.77037 0.99698 0.0
C151 C 0.06995 0.82729 0.9792 0.0
Co152 Co 0.10042 0.78351 0.96245 0.0
C153 C 0.02239 0.76053 1.01413 0.0
C154 C 0.04441 0.73787 1.05735 0.0
N155 N 0.04462 0.75683 1.02524 0.0
N156 N 1.00822 0.74434 1.03761 0.0
C157 C 0.022 0.73022 0.06519 0.0
H158 H 0.01682 0.77431 0.98842 0.0
H159 H 0.0596 0.72967 0.07326 0.0
C160 C 0.10236 0.72671 0.97716 0.0
N161 N 0.12553 0.79707 0.9328 0.0
C162 C 0.14208 0.81453 0.94706 0.0
C163 C 0.12958 0.79416 0.89005 0.0
N164 N 0.15582 0.82307 0.91459 0.0
C165 C 0.14814 0.81016 0.8788 0.0
C166 C 0.10694 0.78274 1.05733 0.0
O167 O 0.08269 0.73195 0.99411 0.0
O168 O 0.11291 0.74661 0.95897 0.0
O169 O 0.1171 0.78774 1.02099 0.0
O170 O 0.08578 0.77555 1.05446 0.0
O171 O 0.08935 0.82019 0.96448 0.0
H172 H 0.11978 0.78121 0.86824 0.0
H173 H 0.14399 0.82108 0.98036 0.0
O174 O 0.0577 0.80891 0.99839 0.0
O175 O 0.05252 0.7655 0.94115 0.0
O176 O 0.08227 0.77947 0.90517 0.0
C177 C 0.06086 0.77245 0.90459 0.0
H178 H 0.01634 0.71574 0.08979 0.0
H179 H 0.15607 0.81133 0.84713 0.0
Co180 Co 0.69725 0.77033 0.87356 0.0
C181 C 0.69447 0.82745 0.89153 0.0
Co182 Co 0.66608 0.78192 0.90731 0.0
C183 C 0.72741 0.74234 0.81501 0.0
C184 C 0.74543 0.76599 0.86323 0.0
N185 N 0.72415 0.7595 0.84877 0.0
N186 N 0.74992 0.73747 0.80877 0.0
C187 C 0.76134 0.75241 0.8386 0.0
H188 H 0.71368 0.73383 0.7953 0.0
H189 H 0.74914 0.77984 0.8898 0.0
C190 C 0.66683 0.72471 0.89182 0.0
N191 N 0.63853 0.79287 0.93072 0.0
C192 C 0.63331 0.81537 0.95465 0.0
C193 C 0.61806 0.78295 0.91688 0.0
N194 N 0.61043 0.82021 0.95486 0.0
C195 C 0.60082 0.79961 0.93171 0.0
C196 C 0.66171 0.7808 0.81183 0.0
O197 O 0.6863 0.73091 0.87478 0.0
O198 O 0.65582 0.74401 0.91017 0.0
O199 O 0.65125 0.78507 0.84778 0.0
O200 O 0.68303 0.77469 0.81485 0.0
O201 O 0.67519 0.81944 0.90568 0.0
H202 H 0.61586 0.76553 0.89534 0.0
H203 H 0.64601 0.82864 0.96983 0.0
O204 O 0.70753 0.80965 0.87331 0.0
O205 O 0.71252 0.76629 0.93095 0.0
O206 O 0.6821 0.77924 0.96642 0.0
C207 C 0.70372 0.77288 0.96721 0.0
H208 H 0.77991 0.75416 0.84111 0.0
H209 H 0.58254 0.79671 0.92617 0.0
Co210 Co 0.06507 0.03749 0.86233 0.0
C211 C 0.06654 0.98058 0.88434 0.0
Co212 Co 0.0929 0.02667 0.90588 0.0
C213 C 0.02743 0.06859 0.82708 0.0
C214 C 0.0384 0.03587 0.78524 0.0
N215 N 0.04242 0.04739 0.82419 0.0
N216 N 0.01424 0.07087 0.79122 0.0
C217 C 0.02111 0.05026 0.76489 0.0
H218 H 0.026 0.0818 0.85519 0.0
H219 H 0.04729 1.01795 0.77267 0.0
C220 C 0.09389 0.0833 0.88703 0.0
N221 N 0.11552 1.01667 0.94396 0.0
C222 C 0.13045 0.99545 0.94078 0.0
C223 C 0.11898 0.02734 0.98367 0.0
N224 N 0.14308 0.99228 0.9772 0.0
C225 C 0.13597 1.01246 1.00415 0.0
C226 C 0.10675 1.02577 0.8141 0.0
O227 O 0.07598 0.0769 0.8647 0.0
O228 O 0.10309 0.06436 0.90972 0.0
O229 O 0.11468 1.02204 0.85291 0.0
O230 O 0.08545 0.03174 0.81166 0.0
O231 O 0.08422 0.98932 0.90379 0.0
H232 H 0.10969 0.04477 0.99686 0.0
H233 H 0.13185 0.98247 0.91241 0.0
O234 O 0.05496 0.99779 0.86121 0.0
O235 O 0.04341 0.04326 0.91171 0.0
O236 O 0.07008 0.0308 0.95718 0.0
C237 C 0.04882 0.03746 0.95089 0.0
H238 H 0.01324 0.04488 0.73419 0.0
H239 H 0.14315 1.0169 1.03578 0.0
Co240 Co 0.3456 0.53047 0.64974 0.0
C241 C 0.34531 0.47306 0.63507 0.0
Co242 Co 0.31442 0.51763 0.61699 0.0
C243 C 0.3787 0.56429 0.69656 0.0
C244 C 0.39358 0.53127 0.65981 0.0
N245 N 0.37322 0.5416 0.67317 0.0
N246 N 0.40165 0.56878 0.69699 0.0
C247 C 0.41101 0.54781 0.67446 0.0
H248 H 0.36614 0.57792 0.71116 0.0
H249 H 0.3956 0.51362 0.63873 0.0
C250 C 0.31684 0.57513 0.6346 0.0
N251 N 0.2874 0.50632 0.59207 0.0
C252 C 0.28407 0.48963 0.55763 0.0
C253 C 0.26619 0.51144 0.60782 0.0
N254 N 0.26161 0.48359 0.5523 0.0
C255 C 0.25032 0.4974 0.58351 0.0
C256 C 0.30789 0.51982 0.70966 0.0
O257 O 0.33673 0.56781 0.64658 0.0
O258 O 0.30337 0.55676 0.61864 0.0
O259 O 0.30018 0.5119 0.67321 0.0
O260 O 0.32897 0.5286 0.70978 0.0
O261 O 0.32606 0.47876 0.61666 0.0
H262 H 0.26249 0.52446 0.63536 0.0
H263 H 0.29774 0.48194 0.53716 0.0
O264 O 0.35575 0.4926 0.65413 0.0
O265 O 0.3606 0.53284 0.58909 0.0
O266 O 0.32766 0.52329 0.55932 0.0
C267 C 0.34891 0.52894 0.55416 0.0
H268 H 0.42925 0.54458 0.66919 0.0
H269 H 0.23178 0.498 0.58741 0.0
Co270 Co 0.91937 0.77106 0.65411 0.0
C271 C 0.9192 0.82775 0.63815 0.0
Co272 Co 0.94916 0.78226 0.61581 0.0
C273 C 0.87264 0.75963 0.6753 0.0
C274 C 0.89614 0.74343 0.72272 0.0
N275 N 0.89504 0.75934 0.68677 0.0
N276 N 0.85977 0.74397 0.702 0.0
C277 C 0.87442 0.73401 0.73226 0.0
H278 H 0.86603 0.77012 0.64683 0.0
H279 H 0.91185 0.73784 0.73957 0.0
C280 C 0.94721 0.72542 0.63536 0.0
N281 N 0.9731 0.79275 0.58117 0.0
C282 C 0.98801 0.814 0.58543 0.0
C283 C 0.97795 0.78131 0.54253 0.0
N284 N 1.00172 0.81649 0.55043 0.0
C285 C 0.99545 0.79587 0.52355 0.0
C286 C 0.96121 0.78114 0.70673 0.0
O287 O 0.92888 0.73388 0.6526 0.0
O288 O 0.95932 0.74281 0.61385 0.0
O289 O 0.96913 0.78647 0.66896 0.0
O290 O 0.93945 0.77564 0.70845 0.0
O291 O 0.93825 0.82168 0.61931 0.0
H292 H 0.96933 0.76342 0.52906 0.0
H293 H 0.98888 0.82722 0.61362 0.0
O294 O 0.90849 0.80836 0.65726 0.0
O295 O 0.90028 0.76631 0.59874 0.0
O296 O 0.93025 0.77785 0.56147 0.0
C297 C 0.90902 0.77115 0.56132 0.0
H298 H 0.86982 0.72077 0.75925 0.0
H299 H 1.00378 0.79077 0.49327 0.0
Co300 Co 0.34515 0.77451 0.71648 0.0
C301 C 0.34412 0.83096 0.73776 0.0
Co302 Co 0.31629 0.78358 0.75827 0.0
C303 C 0.38354 0.74471 0.6821 0.0
C304 C 0.37346 0.77932 0.64269 0.0
N305 N 0.36912 0.76654 0.68066 0.0
N306 N 0.39647 0.74309 0.64605 0.0
C307 C 0.39032 0.765 0.62139 0.0
H308 H 0.38411 0.72994 0.70857 0.0
H309 H 0.36457 0.79755 0.63091 0.0
C310 C 0.31958 0.72711 0.73339 0.0
N311 N 0.29138 0.79095 0.79247 0.0
C312 C 0.28946 0.80727 0.82772 0.0
C313 C 0.27036 0.77957 0.78678 0.0
N314 N 0.26801 0.8062 0.84403 0.0
C315 C 0.25595 0.78896 0.81845 0.0
C316 C 0.30267 0.78473 0.66763 0.0
O317 O 0.33744 0.73671 0.71569 0.0
O318 O 0.30752 0.74348 0.75659 0.0
O319 O 0.29636 0.78949 0.70646 0.0
O320 O 0.32413 0.77897 0.66286 0.0
O321 O 0.32593 0.82366 0.75855 0.0
H322 H 0.26581 0.76536 0.76113 0.0
H323 H 0.30336 0.8196 0.841 0.0
O324 O 0.35421 0.81263 0.71554 0.0
O325 O 0.36527 0.76956 0.77163 0.0
O326 O 0.33509 0.77758 0.81133 0.0
C327 C 0.35662 0.77236 0.80998 0.0
H328 H 0.39791 0.77073 0.59064 0.0
H329 H 0.23791 0.78378 0.82238 0.0
Co330 Co 0.92212 0.52581 0.71653 0.0
C331 C 0.92374 0.46923 0.73694 0.0
Co332 Co 0.95124 0.51643 0.75848 0.0
C333 C 0.89408 0.55483 0.65362 0.0
C334 C 0.87689 0.51984 0.6819 0.0
N335 N 0.89697 0.53394 0.6824 0.0
N336 N 0.87317 0.5538 0.63489 0.0
C337 C 0.86227 0.53197 0.6526 0.0
H338 H 0.90674 0.57079 0.6472 0.0
H339 H 0.87281 0.50235 0.70245 0.0
C340 C 0.94774 0.573 0.73518 0.0
N341 N 0.97619 0.50717 0.79246 0.0
C342 C 0.99386 0.49053 0.78131 0.0
C343 C 0.98043 0.51428 0.83394 0.0
N344 N 1.00887 0.48696 0.81408 0.0
C345 C 1.00055 0.50185 0.84731 0.0
C346 C 0.96426 0.51683 0.6672 0.0
O347 O 0.92967 0.56367 0.71759 0.0
O348 O 0.96021 0.55635 0.75772 0.0
O349 O 0.97056 0.51167 0.70606 0.0
O350 O 0.94272 0.52258 0.66215 0.0
O351 O 0.9417 0.47662 0.75819 0.0
H352 H 0.96994 0.52811 0.853 0.0
H353 H 0.99605 0.48153 0.74956 0.0
O354 O 0.91368 0.48749 0.71432 0.0
O355 O 0.90236 0.52962 0.77206 0.0
O356 O 0.93263 0.52168 0.81176 0.0
C357 C 0.9111 0.52676 0.8104 0.0
H358 H 0.84454 0.52617 0.6463 0.0
H359 H 0.00919 0.50495 0.87806 0.0
Co360 Co 0.70329 0.53544 0.50353 0.0
C361 C 0.7004 0.47785 0.48908 0.0
Co362 Co 0.67163 0.52269 0.47146 0.0
C363 C 0.74676 0.56295 0.51616 0.0
C364 C 0.73468 0.54392 0.57459 0.0
N365 N 0.72937 0.54746 0.53233 0.0
N366 N 0.76247 0.56934 0.54664 0.0
C367 C 0.75497 0.55739 0.58344 0.0
H368 H 0.74828 0.56905 0.48253 0.0
H369 H 0.72487 0.53172 0.59743 0.0
C370 C 0.67258 0.58016 0.48321 0.0
N371 N 0.64527 0.51152 0.44401 0.0
C372 C 0.642 0.49121 0.41465 0.0
C373 C 0.62399 0.52066 0.45402 0.0
N374 N 0.61945 0.48726 0.40676 0.0
C375 C 0.60807 0.50576 0.43108 0.0
C376 C 0.66601 0.52513 0.56547 0.0
O377 O 0.69234 0.57459 0.49974 0.0
O378 O 0.66125 0.56032 0.46693 0.0
O379 O 0.65493 0.51969 0.5304 0.0
O380 O 0.68714 0.53177 0.56039 0.0
O381 O 0.6809 0.48532 0.47496 0.0
H382 H 0.62027 0.5366 0.47751 0.0
H383 H 0.65572 0.47904 0.40056 0.0
O384 O 0.71362 0.49616 0.50603 0.0
O385 O 0.72003 0.53847 0.44775 0.0
O386 O 0.6893 0.52516 0.41322 0.0
C387 C 0.71097 0.53147 0.4118 0.0
H388 H 0.76434 0.55681 0.61384 0.0
H389 H 0.5895 0.50799 0.43242 0.0
Co390 Co 0.06226 0.26869 0.5068 0.0
C391 C 0.06164 0.32612 0.49379 0.0
Co392 Co 0.0945 0.28418 0.48039 0.0
C393 C 0.02964 0.23149 0.54914 0.0
C394 C 0.01429 0.26196 0.50746 0.0
N395 N 0.03466 0.25377 0.5243 0.0
N396 N 1.00694 0.22523 0.54748 0.0
C397 C 0.99735 0.24455 0.52148 0.0
H398 H 0.04233 0.22004 0.56777 0.0
H399 H 0.01193 0.27933 0.48566 0.0
C400 C 0.09696 0.22667 0.48951 0.0
N401 N 0.12185 0.30106 0.46451 0.0
C402 C 0.14152 0.28974 0.44982 0.0
C403 C 0.12821 0.32645 0.47885 0.0
N404 N 0.15965 0.30701 0.45489 0.0
C405 C 0.15123 0.33017 0.4727 0.0
C406 C 0.09416 0.27949 0.57592 0.0
O407 O 0.07626 0.23068 0.50282 0.0
O408 O 0.10823 0.24772 0.47667 0.0
O409 O 0.10618 0.28647 0.54279 0.0
O410 O 0.07354 0.27141 0.56794 0.0
O411 O 0.08167 0.31976 0.48246 0.0
H412 H 0.11746 0.34071 0.49653 0.0
H413 H 0.14275 0.26882 0.43765 0.0
O414 O 0.04886 0.30695 0.50923 0.0
O415 O 0.05034 0.26617 0.44746 0.0
O416 O 0.08156 0.28224 0.41784 0.0
C417 C 0.06031 0.2745 0.41327 0.0
H418 H 0.97912 0.24674 0.51463 0.0
H419 H 0.16121 0.3479 0.48313 0.0
Co420 Co 0.70546 0.26764 0.36996 0.0
C421 C 0.70122 0.32501 0.39247 0.0
Co422 Co 0.67467 0.27847 0.40547 0.0
C423 C 0.73995 0.23617 0.32277 0.0
C424 C 0.75301 0.27199 0.35557 0.0
N425 N 0.73324 0.2589 0.34483 0.0
N426 N 0.76314 0.23443 0.32068 0.0
C427 C 0.7713 0.2571 0.34073 0.0
H428 H 0.72826 0.2206 0.31038 0.0
H429 H 0.75425 0.29031 0.37544 0.0
C430 C 0.67616 0.22139 0.3871 0.0
N431 N 0.64761 0.28701 0.43247 0.0
C432 C 0.64348 0.30316 0.46721 0.0
C433 C 0.62667 0.27953 0.41746 0.0
N434 N 0.62071 0.3064 0.47349 0.0
C435 C 0.6101 0.29148 0.44258 0.0
C436 C 0.6696 0.2791 0.30891 0.0
O437 O 0.69526 0.22781 0.3687 0.0
O438 O 0.66553 0.24043 0.40671 0.0
O439 O 0.65857 0.28254 0.3448 0.0
O440 O 0.69099 0.2733 0.31284 0.0
O441 O 0.68214 0.31618 0.40617 0.0
H442 H 0.62364 0.26645 0.38966 0.0
H443 H 0.65677 0.31285 0.48667 0.0
O444 O 0.71444 0.30791 0.37295 0.0
O445 O 0.72115 0.26182 0.42501 0.0
O446 O 0.69244 0.2749 0.46451 0.0
C447 C 0.71385 0.26764 0.46255 0.0
H448 H 0.78932 0.26249 0.34442 0.0
H449 H 0.59162 0.28929 0.43881 0.0
Co450 Co 0.0682 0.53339 0.36659 0.0
C451 C 0.06995 0.4766 0.39006 0.0
Co452 Co 0.09719 0.52295 0.40739 0.0
C453 C 0.04132 0.55977 0.29975 0.0
C454 C 0.02162 0.53306 0.34146 0.0
N455 N 0.0431 0.54267 0.33428 0.0
N456 N 0.01947 0.56103 0.28546 0.0
C457 C 1.00703 0.54434 0.31138 0.0
H458 H 0.05566 0.57074 0.28528 0.0
H459 H 0.0169 0.5187 0.36691 0.0
C460 C 0.09724 0.5797 0.38787 0.0
N461 N 0.12174 0.51275 0.44076 0.0
C462 C 0.13734 0.49287 0.43197 0.0
C463 C 0.12586 0.52026 0.48208 0.0
N464 N 0.15054 0.48723 0.46667 0.0
C465 C 0.14363 0.50449 0.49815 0.0
C466 C 0.10754 0.52235 0.3131 0.0
O467 O 0.07885 0.5729 0.36721 0.0
O468 O 0.1073 0.56095 0.40981 0.0
O469 O 0.11638 0.51881 0.35124 0.0
O470 O 0.08602 0.52772 0.31221 0.0
O471 O 0.08844 0.48521 0.40693 0.0
H472 H 0.11621 0.53568 0.49968 0.0
H473 H 0.13847 0.48209 0.40137 0.0
O474 O 0.05811 0.49375 0.36749 0.0
O475 O 0.04923 0.53915 0.4191 0.0
O476 O 0.07683 0.52675 0.46226 0.0
C477 C 0.05547 0.53336 0.45771 0.0
H478 H 0.98871 0.54047 0.30828 0.0
H479 H 0.15114 0.50575 0.53026 0.0
Co480 Co 0.84323 0.02667 0.65452 0.0
C481 C 0.84289 0.9697 0.63884 0.0
Co482 Co 0.8132 1.01536 0.61706 0.0
C483 C 0.88194 0.05816 0.68419 0.0
C484 C 0.87157 1.02653 0.729 0.0
N485 N 0.86716 0.03689 0.68927 0.0
N486 N 0.89524 0.06174 0.71961 0.0
C487 C 0.88886 0.04173 0.74771 0.0
H488 H 0.88266 0.071 0.6554 0.0
H489 H 0.8626 1.00922 0.74356 0.0
C490 C 0.81596 0.07242 0.6358 0.0
N491 N 0.78899 1.00476 0.58295 0.0
C492 C 0.77438 0.9835 0.59007 0.0
C493 C 0.78367 1.01439 0.54311 0.0
N494 N 0.76062 0.97909 0.55571 0.0
C495 C 0.76619 0.99857 0.52625 0.0
C496 C 0.80066 1.01655 0.70611 0.0
O497 O 0.8347 0.06399 0.65183 0.0
O498 O 0.80301 0.05492 0.61623 0.0
O499 O 0.79389 1.01003 0.66827 0.0
O500 O 0.82211 1.02335 0.7093 0.0
O501 O 0.82411 0.97602 0.61918 0.0
H502 H 0.79202 0.0317 0.5273 0.0
H503 H 0.7739 0.97139 0.61965 0.0
O504 O 0.85334 0.9889 0.65871 0.0
O505 O 0.86304 0.03074 0.59816 0.0
O506 O 0.83135 1.02095 0.56415 0.0
C507 C 0.85266 0.02694 0.56153 0.0
H508 H 0.89669 0.03772 0.779 0.0
H509 H 0.75758 1.00173 0.49543 0.0
Co510 Co 0.42236 0.27619 0.65536 0.0
C511 C 0.42338 0.33283 0.63433 0.0
Co512 Co 0.45154 0.28615 0.61436 0.0
C513 C 0.39425 0.25223 0.72366 0.0
C514 C 0.37541 0.27672 0.67731 0.0
N515 N 0.39683 0.26811 0.68783 0.0
N516 N 0.37193 0.25049 0.73512 0.0
C517 C 0.36008 0.26588 0.7063 0.0
H518 H 0.40825 0.24182 0.74032 0.0
H519 H 0.37117 0.28988 0.64999 0.0
C520 C 0.44828 0.22938 0.63865 0.0
N521 N 0.47645 0.29482 0.58064 0.0
C522 C 0.49252 0.31458 0.58734 0.0
C523 C 0.48153 0.28378 0.54176 0.0
N524 N 0.50702 0.3166 0.55363 0.0
C525 C 0.50034 0.29723 0.52503 0.0
C526 C 0.46413 0.287 0.70538 0.0
O527 O 0.43017 0.23849 0.65612 0.0
O528 O 0.46059 0.24619 0.6162 0.0
O529 O 0.47065 0.29185 0.66664 0.0
O530 O 0.44266 0.28066 0.71006 0.0
O531 O 0.44167 0.32592 0.61383 0.0
H532 H 0.47217 0.26703 0.52656 0.0
H533 H 0.49355 0.32725 0.61612 0.0
O534 O 0.41332 0.31424 0.65621 0.0
O535 O 0.40323 0.27121 0.59919 0.0
O536 O 0.43342 0.28038 0.56066 0.0
C537 C 0.41209 0.27442 0.56127 0.0
H538 H 0.34159 0.269 0.70641 0.0
H539 H 0.50897 0.29261 0.49486 0.0
Co540 Co 0.84948 0.27068 0.71934 0.0
C541 C 0.84765 0.3275 0.73936 0.0
Co542 Co 0.82021 0.28041 0.7598 0.0
C543 C 0.88224 0.23906 0.66824 0.0
C544 C 0.8963 0.27556 0.6975 0.0
N545 N 0.8762 0.26232 0.68972 0.0
N546 N 0.9053 0.23714 0.66388 0.0
C547 C 0.91409 0.26026 0.68153 0.0
H548 H 0.87028 0.22294 0.65878 0.0
H549 H 0.89824 0.29403 0.71676 0.0
C550 C 0.82348 0.22371 0.73617 0.0
N551 N 0.79484 0.28821 0.79163 0.0
C552 C 0.77772 0.30603 0.78199 0.0
C553 C 0.78795 0.27456 0.8275 0.0
N554 N 0.76035 0.30367 0.81023 0.0
C555 C 0.76658 0.28399 0.83891 0.0
C556 C 0.80824 0.28062 0.66802 0.0
O557 O 0.84199 0.2327 0.71997 0.0
O558 O 0.81109 0.24057 0.75787 0.0
O559 O 0.80187 0.28592 0.7066 0.0
O560 O 0.82969 0.27399 0.66342 0.0
O561 O 0.82965 0.32022 0.76047 0.0
H562 H 0.79729 0.25776 0.84282 0.0
H563 H 0.77731 0.3191 0.75342 0.0
O564 O 0.85773 0.30917 0.7172 0.0
O565 O 0.86802 0.2671 0.7762 0.0
O566 O 0.83753 0.27498 0.81443 0.0
C567 C 0.85904 0.27013 0.81396 0.0
H568 H 0.93224 0.26537 0.68374 0.0
H569 H 0.75582 0.27599 0.86469 0.0
Co570 Co 0.41982 0.03003 0.71845 0.0
C571 C 0.42097 0.97278 0.73471 0.0
Co572 Co 0.45086 1.01868 0.75375 0.0
C573 C 0.38656 0.06283 0.66965 0.0
C574 C 0.37192 0.02965 0.70684 0.0
N575 N 0.39222 0.04042 0.69382 0.0
N576 N 0.36354 0.06671 0.66847 0.0
C577 C 0.35435 0.04566 0.69127 0.0
H578 H 0.39899 0.07674 0.6551 0.0
H579 H 0.37 1.01211 0.72841 0.0
C580 C 0.44766 0.07586 0.73467 0.0
N581 N 0.47781 1.00817 0.7801 0.0
C582 C 0.48106 0.99254 0.81598 0.0
C583 C 0.49912 1.01343 0.76484 0.0
N584 N 0.50356 0.98729 0.82271 0.0
C585 C 0.51495 1.00052 0.79085 0.0
C586 C 0.45802 1.02145 0.65979 0.0
O587 O 0.42854 0.06764 0.71987 0.0
O588 O 0.46072 0.05822 0.75376 0.0
O589 O 0.46665 1.01487 0.69648 0.0
O590 O 0.43634 0.02759 0.6599 0.0
O591 O 0.44026 0.97907 0.75259 0.0
H592 H 0.50298 1.02609 0.73681 0.0
H593 H 0.46731 0.98522 0.83671 0.0
O594 O 0.41004 0.99202 0.7157 0.0
O595 O 0.40446 0.033 0.77746 0.0
O596 O 0.43596 1.02293 0.81204 0.0
C597 C 0.41455 0.02885 0.81401 0.0
H598 H 0.33611 0.04207 0.69623 0.0
H599 H 0.53353 1.00176 0.78786 0.0
Co600 Co 0.20188 0.03693 0.50609 0.0
C601 C 0.19725 0.97958 0.48501 0.0
Co602 Co 0.17139 1.02665 0.46862 0.0
C603 C 0.23684 0.06843 0.55206 0.0
C604 C 0.2496 0.0327 0.51881 0.0
N605 N 0.22995 0.04569 0.53015 0.0
N606 N 0.26003 0.0703 0.55352 0.0
C607 C 0.26802 0.04769 0.53317 0.0
H608 H 0.22524 0.08387 0.56491 0.0
H609 H 0.25059 1.01434 0.49899 0.0
C610 C 0.17371 0.08413 0.48622 0.0
N611 N 0.14329 1.01798 0.44427 0.0
C612 C 0.13652 0.99558 0.42138 0.0
C613 C 0.12354 0.0302 0.45701 0.0
N614 N 0.11335 0.99315 0.42064 0.0
C615 C 0.1052 1.01512 0.44242 0.0
C616 C 0.16595 0.02733 0.56608 0.0
O617 O 0.19237 0.07708 0.50577 0.0
O618 O 0.16298 0.06533 0.46591 0.0
O619 O 0.15599 1.02401 0.52897 0.0
O620 O 0.18752 0.03266 0.56468 0.0
O621 O 0.17856 0.9886 0.46956 0.0
H622 H 0.12247 0.04794 0.47812 0.0
H623 H 0.14824 0.98052 0.4078 0.0
O624 O 0.21035 0.99662 0.50508 0.0
O625 O 0.21727 0.04105 0.4493 0.0
O626 O 0.18832 0.02862 0.40926 0.0
C627 C 0.20994 0.03497 0.41154 0.0
H628 H 0.28601 0.04234 0.52909 0.0
H629 H 0.08719 1.01983 0.44776 0.0
Co630 Co 0.56767 0.76783 0.50918 0.0
C631 C 0.57029 0.82482 0.48775 0.0
Co632 Co 0.59667 0.77864 0.46831 0.0
C633 C 0.52815 0.73725 0.5373 0.0
C634 C 0.53801 0.76916 0.5818 0.0
N635 N 0.54324 0.75815 0.54304 0.0
N636 N 0.51393 0.73452 0.57142 0.0
C637 C 0.52003 0.75464 0.59936 0.0
H638 H 0.52752 0.72442 0.50864 0.0
H639 H 0.54668 0.78667 0.59632 0.0
C640 C 0.59594 0.72161 0.48664 0.0
N641 N 0.62271 0.78822 0.43764 0.0
C642 C 0.62753 0.81096 0.41355 0.0
C643 C 0.64337 0.77649 0.44602 0.0
N644 N 0.65044 0.81403 0.4081 0.0
C645 C 0.66035 0.79219 0.42784 0.0
C646 C 0.60695 0.77889 0.56215 0.0
O647 O 0.57794 0.72828 0.50808 0.0
O648 O 0.60577 0.74049 0.46496 0.0
O649 O 0.61578 0.78237 0.52437 0.0
O650 O 0.58565 0.77304 0.56275 0.0
O651 O 0.58853 0.81625 0.47018 0.0
H652 H 0.64616 0.75871 0.46677 0.0
H653 H 0.61479 0.82584 0.40269 0.0
O654 O 0.55801 0.80749 0.50915 0.0
O655 O 0.54862 0.76274 0.45676 0.0
O656 O 0.57628 0.77541 0.41328 0.0
C657 C 0.55486 0.76858 0.41811 0.0
H658 H 0.51128 0.75943 0.62935 0.0
H659 H 0.67871 0.78821 0.42962 0.0
Co660 Co 0.20075 0.77012 0.3633 0.0
C661 C 0.1977 0.82674 0.38624 0.0
Co662 Co 0.17151 0.77965 0.40394 0.0
C663 C 0.24072 0.74082 0.33454 0.0
C664 C 0.22956 0.77164 0.28881 0.0
N665 N 0.22501 0.76106 0.32836 0.0
N666 N 0.25446 0.73802 0.29989 0.0
C667 C 0.24768 0.75742 0.27117 0.0
H668 H 0.24194 0.72822 0.36355 0.0
H669 H 0.22022 0.78849 0.27366 0.0
C670 C 0.17233 0.72303 0.38472 0.0
N671 N 0.14767 0.78837 0.43981 0.0
C672 C 0.13259 0.80952 0.43714 0.0
C673 C 0.14376 0.77638 0.47856 0.0
N674 N 0.11962 0.81144 0.47317 0.0
C675 C 0.12651 0.79047 0.4991 0.0
C676 C 0.16032 0.7814 0.31063 0.0
O677 O 0.19069 0.73017 0.36443 0.0
O678 O 0.16194 0.74162 0.40589 0.0
O679 O 0.15131 0.78456 0.3486 0.0
O680 O 0.18174 0.77573 0.31034 0.0
O681 O 0.17968 0.81732 0.4037 0.0
H682 H 0.15305 0.75869 0.49124 0.0
H683 H 0.13141 0.82346 0.40967 0.0
O684 O 0.21003 0.81014 0.3637 0.0
O685 O 0.22079 0.76477 0.41466 0.0
O686 O 0.19275 0.7753 0.4577 0.0
C687 C 0.21428 0.76961 0.45331 0.0
H688 H 0.25576 0.76147 0.24021 0.0
H689 H 0.11907 0.78508 0.53013 0.0
Co690 Co 0.56754 0.03546 0.37313 0.0
C691 C 0.57061 0.97843 0.39318 0.0
Co692 Co 0.59809 1.02444 0.40956 0.0
C693 C 0.5378 0.06217 0.31077 0.0
C694 C 0.51976 0.03781 0.35817 0.0
N695 N 0.54104 0.04543 0.34536 0.0
N696 N 0.51524 0.06562 0.30245 0.0
C697 C 0.50386 0.05026 0.33184 0.0
H698 H 0.55157 0.07132 0.29195 0.0
H699 H 0.51603 1.02389 0.38477 0.0
C700 C 0.5974 0.08133 0.39229 0.0
N701 N 0.62443 1.01426 0.43779 0.0
C702 C 0.62718 0.99634 0.47109 0.0
C703 C 0.64591 1.02131 0.42539 0.0
N704 N 0.64962 0.99156 0.47896 0.0
C705 C 0.66145 1.00731 0.45068 0.0
C706 C 0.60481 1.02503 0.31421 0.0
O707 O 0.5781 0.07511 0.37427 0.0
O708 O 0.60815 0.06214 0.41178 0.0
O709 O 0.61463 1.02076 0.35114 0.0
O710 O 0.58339 0.03104 0.31571 0.0
O711 O 0.58944 0.98688 0.40883 0.0
H712 H 0.64998 0.03528 0.39901 0.0
H713 H 0.61315 0.98637 0.48813 0.0
O714 O 0.55783 0.99585 0.37303 0.0
O715 O 0.55057 0.03964 0.42926 0.0
O716 O 0.58055 0.02767 0.46695 0.0
C717 C 0.55887 0.03353 0.46635 0.0
H718 H 0.48533 0.0475 0.33296 0.0
H719 H 0.68006 1.00853 0.44863 0.0
Co720 Co 0.8477 0.53103 0.15454 0.0
C721 C 0.84975 0.47411 0.14295 0.0
Co722 Co 0.81709 0.51746 0.12042 0.0
C723 C 0.89491 0.54492 0.16607 0.0
C724 C 0.87367 0.56318 0.2148 0.0
N725 N 0.87318 0.54551 0.18115 0.0
N726 N 0.90895 0.56193 0.18838 0.0
C727 C 0.89569 0.57324 0.21946 0.0
H728 H 0.90016 0.53289 0.13834 0.0
H729 H 0.8588 0.56922 0.23359 0.0
C730 C 0.81717 0.57455 0.13506 0.0
N731 N 0.7917 0.50317 0.09369 0.0
C732 C 0.76954 0.50688 0.10492 0.0
C733 C 0.79135 0.48373 0.06256 0.0
N734 N 0.75525 0.49029 0.08234 0.0
C735 C 0.76893 0.47585 1.05532 0.0
C736 C 0.80911 0.52095 0.21336 0.0
O737 O 0.83648 0.56754 0.15044 0.0
O738 O 0.8048 0.55594 0.11678 0.0
O739 O 0.80053 0.51375 0.17704 0.0
O740 O 0.8306 0.52783 0.21261 0.0
O741 O 0.83009 0.47915 0.12556 0.0
H742 H 0.80646 0.47545 1.04678 0.0
H743 H 0.7641 0.52108 0.12989 0.0
O744 O 0.86043 0.49429 0.15997 0.0
O745 O 0.86356 0.53451 0.09569 0.0
O746 O 0.83257 0.5215 0.06208 0.0
C747 C 0.85367 0.52889 1.05942 0.0
H748 H 0.90146 0.58756 0.24409 0.0
H749 H 0.76319 0.46108 1.03132 0.0
Co750 Co 0.42251 0.7728 0.15557 0.0
C751 C 0.42348 0.82978 0.13628 0.0
Co752 Co 0.45229 0.78338 0.11668 0.0
C753 C 0.39137 0.74669 0.21679 0.0
C754 C 0.37471 0.77208 0.16873 0.0
N755 N 0.39561 0.76386 0.18307 0.0
N756 N 0.36856 0.74357 0.22299 0.0
C757 C 0.35808 0.7596 0.19316 0.0
H758 H 0.40459 0.73619 0.23546 0.0
H759 H 0.37175 0.78597 0.1417 0.0
C760 C 0.44884 0.72619 0.13993 0.0
N761 N 0.47963 0.79271 0.09068 0.0
C762 C 0.48568 0.81636 0.07009 0.0
C763 C 0.4997 0.77981 0.09979 0.0
N764 N 0.50876 0.81889 0.06746 0.0
C765 C 0.51757 0.79578 0.08547 0.0
C766 C 0.46189 0.78283 0.21022 0.0
O767 O 0.43035 0.73509 0.15609 0.0
O768 O 0.46132 0.74321 0.11836 0.0
O769 O 0.46874 0.78829 0.17202 0.0
O770 O 0.44042 0.7762 0.21357 0.0
O771 O 0.44212 0.82318 0.11666 0.0
H772 H 0.50145 0.76092 0.11842 0.0
H773 H 0.47361 0.83205 1.05936 0.0
O774 O 0.41316 0.81085 0.15702 0.0
O775 O 0.40605 0.76895 0.09602 0.0
O776 O 0.437 0.77854 1.05934 0.0
C777 C 0.41556 0.77261 1.05861 0.0
H778 H 0.33961 0.76217 0.18963 0.0
H779 H 0.53573 0.79091 0.08835 0.0
Co780 Co 0.84338 0.77465 0.21795 0.0
C781 C 0.84138 0.83158 0.23659 0.0
Co782 Co 0.81257 0.78448 0.25423 0.0
C783 C 0.87398 0.75149 0.15475 0.0
C784 C 0.89128 0.77495 0.20416 0.0
N785 N 0.87026 0.76664 0.19065 0.0
N786 N 0.89657 0.75005 0.14585 0.0
C787 C 0.90753 0.76478 0.17649 0.0
H788 H 0.86052 0.74198 0.13552 0.0
H789 H 0.89455 0.78781 0.23213 0.0
C790 C 0.81739 0.72735 0.23169 0.0
N791 N 0.78483 0.79277 0.27996 0.0
C792 C 0.77768 0.81617 0.29975 0.0
C793 C 0.76534 0.77851 0.27127 0.0
N794 N 0.75449 0.81714 0.30235 0.0
C795 C 0.74678 0.79334 0.28508 0.0
C796 C 0.80441 0.78372 0.1609 0.0
O797 O 0.83593 0.73675 0.21632 0.0
O798 O 0.80447 0.74398 0.25283 0.0
O799 O 0.7959 0.78866 0.19801 0.0
O800 O 0.8262 0.77861 0.16032 0.0
O801 O 0.82208 0.82487 0.25406 0.0
H802 H 0.76438 0.75942 0.25321 0.0
H803 H 0.789 0.83277 0.30984 0.0
O804 O 0.85241 0.81266 0.21755 0.0
O805 O 0.85941 0.77024 0.27667 0.0
O806 O 0.82812 0.77996 0.31216 0.0
C807 C 0.8496 0.77395 0.31357 0.0
H808 H 0.92596 0.76825 0.17812 0.0
H809 H 0.72886 0.78725 0.28227 0.0
Co810 Co 0.42322 0.52834 0.22285 0.0
C811 C 0.42438 0.4707 0.23756 0.0
Co812 Co 0.45438 0.51595 0.25705 0.0
C813 C 0.3906 0.56158 0.17309 0.0
C814 C 0.37559 0.52782 0.20846 0.0
N815 N 0.39602 0.53885 0.19674 0.0
N816 N 0.36759 0.5654 0.17107 0.0
C817 C 0.35817 0.54399 0.19268 0.0
H818 H 0.40316 0.57582 0.15973 0.0
H819 H 0.37343 0.51005 0.22948 0.0
C820 C 0.45138 0.57354 0.23894 0.0
N821 N 0.4807 0.505 0.28593 0.0
C822 C 0.49739 0.48775 0.27187 0.0
C823 C 0.4869 0.51163 0.32675 0.0
N824 N 0.51339 0.48306 0.3026 0.0
C825 C 0.50695 0.4981 0.33709 0.0
C826 C 0.46248 0.5183 0.16548 0.0
O827 O 0.43191 0.56579 0.22522 0.0
O828 O 0.46466 0.55547 0.25661 0.0
O829 O 0.47038 0.51134 0.20241 0.0
O830 O 0.44108 0.52594 0.16442 0.0
O831 O 0.44355 0.4767 0.256 0.0
H832 H 0.47777 0.52585 0.34749 0.0
H833 H 0.49804 0.47899 0.23968 0.0
O834 O 0.4135 0.49024 0.21915 0.0
O835 O 0.40679 0.53137 0.28203 0.0
O836 O 0.43907 0.52077 0.31312 0.0
C837 C 0.41793 0.52704 0.31744 0.0
H838 H 0.33988 0.54038 0.19689 0.0
H839 H 0.5168 0.50032 0.36676 0.0
Co840 Co 0.20578 0.53726 1.01022 0.0
C841 C 0.20061 0.4799 0.98772 0.0
Co842 Co 0.17607 0.52747 0.97011 0.0
C843 C 0.24004 0.56813 1.05906 0.0
C844 C 0.25254 0.53035 1.03141 0.0
N845 N 0.23305 0.5449 1.03848 0.0
N846 N 0.26315 0.56872 0.06368 0.0
C847 C 0.27096 0.54486 1.04695 0.0
H848 H 0.22873 0.58493 0.06816 0.0
H849 H 0.25367 0.51134 1.01322 0.0
C850 C 0.17886 0.5848 0.98881 0.0
N851 N 0.14948 0.52017 0.93965 0.0
C852 C 0.14445 0.49892 0.91286 0.0
C853 C 0.12963 0.53449 0.94347 0.0
N854 N 0.12235 0.49986 0.89976 0.0
C855 C 0.11297 0.52211 0.91882 0.0
C856 C 0.16756 0.52717 0.06591 0.0
O857 O 0.19693 0.57758 1.01004 0.0
O858 O 0.16848 0.56615 0.9677 0.0
O859 O 0.15827 0.52432 1.02799 0.0
O860 O 0.18918 0.53236 0.06629 0.0
O861 O 0.18245 0.48933 0.97078 0.0
H862 H 0.12702 0.55197 0.9646 0.0
H863 H 0.15632 0.48249 0.90462 0.0
O864 O 0.21351 0.49665 1.00883 0.0
O865 O 0.22332 0.54211 0.95596 0.0
O866 O 0.1951 0.53005 0.91381 0.0
C867 C 0.21656 0.53653 0.91768 0.0
H868 H 0.28887 0.53858 1.0455 0.0
H869 H 0.09496 0.52792 0.91699 0.0
Co870 Co 0.56292 0.27049 1.00857 0.0
C871 C 0.56341 0.32824 0.99152 0.0
Co872 Co 0.59341 0.28443 0.97522 0.0
C873 C 0.53205 0.23407 1.05554 0.0
C874 C 0.51524 0.26737 1.0218 0.0
N875 N 0.53621 0.25756 1.03295 0.0
N876 N 0.50929 0.22857 1.05751 0.0
C877 C 0.49874 0.24968 1.03685 0.0
H878 H 0.54535 0.22077 0.06881 0.0
H879 H 0.51213 0.28547 1.0019 0.0
C880 C 0.59533 0.22708 0.98836 0.0
N881 N 0.61885 0.29852 0.94891 0.0
C882 C 0.62598 0.29492 0.90792 0.0
C883 C 0.63246 0.31854 0.96528 0.0
N884 N 0.64352 0.31209 0.89788 0.0
C885 C 0.64771 0.32682 0.93411 0.0
C886 C 0.59836 0.28192 0.0711 0.0
O887 O 0.57586 0.23203 1.00638 0.0
O888 O 0.60559 0.24728 0.97027 0.0
O889 O 0.60945 0.2871 1.03577 0.0
O890 O 0.57715 0.27533 0.06631 0.0
O891 O 0.58303 0.32125 0.97832 0.0
H892 H 0.63102 0.32707 0.99749 0.0
H893 H 0.61826 0.28024 0.88581 0.0
O894 O 0.5508 0.30954 1.00892 0.0
O895 O 0.5476 0.26534 0.9531 0.0
O896 O 0.57585 0.28194 0.9158 0.0
C897 C 0.55485 0.27315 0.91636 0.0
H898 H 0.48028 0.25229 1.03337 0.0
H899 H 0.66134 0.34189 0.93839 0.0
Co900 Co 0.20278 0.26921 0.87204 0.0
C901 C 0.19918 0.32635 0.89195 0.0
Co902 Co 0.17168 0.28011 0.90682 0.0
C903 C 0.24445 0.24043 0.8493 0.0
C904 C 0.23412 0.27036 0.80146 0.0
N905 N 0.22827 0.25975 0.84039 0.0
N906 N 0.25976 0.23829 0.81691 0.0
C907 C 0.25348 0.25711 0.78692 0.0
H908 H 0.24505 0.22828 0.87884 0.0
H909 H 0.22502 0.28683 0.78488 0.0
C910 C 0.17294 0.22317 0.89029 0.0
N911 N 0.14587 0.28957 0.93712 0.0
C912 C 0.14377 0.30508 0.97321 0.0
C913 C 0.12413 0.28375 0.92454 0.0
N914 N 0.12149 0.30959 0.98268 0.0
C915 C 0.1091 0.29611 0.95247 0.0
C916 C 0.16434 0.28041 0.81332 0.0
O917 O 0.19243 0.22941 0.87321 0.0
O918 O 0.16183 0.2424 0.90853 0.0
O919 O 0.15378 0.28475 0.84916 0.0
O920 O 0.18561 0.27418 0.8169 0.0
O921 O 0.18019 0.31773 0.90668 0.0
H922 H 0.11949 0.27141 0.89667 0.0
H923 H 0.15816 0.31326 0.99158 0.0
O924 O 0.21222 0.30906 0.87231 0.0
O925 O 0.22099 0.26461 0.92574 0.0
O926 O 0.19075 0.27586 0.96323 0.0
C927 C 0.21254 0.27016 0.9627 0.0
H928 H 0.26277 0.26157 0.75732 0.0
H929 H 0.09046 0.29495 0.9513 0.0
Co930 Co 0.56025 0.53718 0.86516 0.0
C931 C 0.56391 0.47934 0.88646 0.0
Co932 Co 0.59137 0.52527 0.89894 0.0
C933 C 0.5264 0.56957 0.81771 0.0
C934 C 0.51245 0.53468 0.85194 0.0
N935 N 0.53251 0.54677 0.84054 0.0
N936 N 0.50329 0.57238 0.81573 0.0
C937 C 0.49454 0.55028 0.8367 0.0
H938 H 0.53851 0.58437 0.80446 0.0
H939 H 0.51083 0.51652 0.87229 0.0
C940 C 0.5901 0.58284 0.88245 0.0
N941 N 0.61834 0.51602 0.92532 0.0
C942 C 0.62195 0.5005 0.96109 0.0
C943 C 0.63946 0.52335 0.91121 0.0
N944 N 0.64456 0.49776 0.96928 0.0
C945 C 0.65567 0.51215 0.93838 0.0
C946 C 0.5956 0.52587 0.80295 0.0
O947 O 0.57082 0.57681 0.86435 0.0
O948 O 0.60094 0.56334 0.90098 0.0
O949 O 0.60695 0.52184 0.83845 0.0
O950 O 0.57427 0.53182 0.80747 0.0
O951 O 0.58346 0.48747 0.89908 0.0
H952 H 0.64284 0.5363 0.88327 0.0
H953 H 0.60839 0.49166 0.9808 0.0
O954 O 0.55065 0.49707 0.86802 0.0
O955 O 0.54515 0.54275 0.92056 0.0
O956 O 0.57433 0.52819 0.95812 0.0
C957 C 0.55306 0.53598 0.95742 0.0
H958 H 0.47639 0.54566 0.84052 0.0
H959 H 0.67417 0.51483 0.9364 0.0
H960 H 0.37749 0.84322 0.13506 0.0
H961 H 0.44473 0.88113 0.13231 0.0
H962 H 0.42673 0.92722 0.13362 0.0
H963 H 0.39162 0.95716 0.13714 0.0
H964 H 0.32447 0.91908 0.13207 0.0
H965 H 0.34251 0.87308 0.13216 0.0
C966 C 0.38829 0.86155 0.13463 0.0
C967 C 0.41266 0.85837 0.13407 0.0
C968 C 0.37769 0.88816 0.13411 0.0
C969 C 0.4261 0.88261 0.13278 0.0
C970 C 0.41572 0.90908 0.13368 0.0
C971 C 0.38088 0.93879 0.13606 0.0
C972 C 0.35648 0.9419 0.13523 0.0
C973 C 0.39151 0.91219 0.13465 0.0
C974 C 0.3431 0.91765 0.13292 0.0
C975 C 0.3535 0.89122 0.13303 0.0
H976 H 0.89605 0.45981 0.14158 0.0
H977 H 0.82819 0.42338 0.14187 0.0
H978 H 0.84534 0.377 0.14204 0.0
H979 H 0.87963 0.34626 0.14266 0.0
H980 H 0.94755 0.38208 0.13542 0.0
H981 H 0.93055 0.42871 0.13715 0.0
C982 C 0.88496 0.44174 0.14179 0.0
C983 C 0.86061 0.44548 0.14231 0.0
C984 C 0.89507 0.41479 0.14051 0.0
C985 C 0.84679 0.42152 0.14168 0.0
C986 C 0.85668 0.39484 0.14179 0.0
C987 C 0.89082 0.36422 0.14145 0.0
C988 C 0.91508 0.36025 0.13937 0.0
C989 C 0.88079 0.39113 0.14131 0.0
C990 C 0.92899 0.38411 0.13708 0.0
C991 C 0.91918 0.41092 0.13819 0.0
H992 H 0.37847 0.45589 0.23601 0.0
H993 H 0.44649 0.42012 0.24109 0.0
H994 H 0.42955 0.37353 0.23892 0.0
H995 H 0.39531 0.34256 0.23436 0.0
H996 H 0.3272 0.3781 0.23619 0.0
H997 H 0.34412 0.42476 0.23704 0.0
C998 C 0.38967 0.43793 0.23667 0.0
C999 C 0.41396 0.44187 0.23823 0.0
C1000 C 0.37967 0.41096 0.23663 0.0
C1001 C 0.42791 0.41806 0.23981 0.0
C1002 C 0.41814 0.3913 0.23847 0.0
C1003 C 0.38408 0.36048 0.23494 0.0
C1004 C 0.35979 0.35646 0.23465 0.0
C1005 C 0.39404 0.38742 0.23666 0.0
C1006 C 0.34578 0.38021 0.23626 0.0
C1007 C 0.35554 0.40702 0.23666 0.0
H1008 H 0.88745 0.84475 0.23752 0.0
H1009 H 0.82054 0.88336 0.24221 0.0
H1010 H 0.83902 0.92925 0.24185 0.0
H1011 H 0.87444 0.95883 0.23845 0.0
H1012 H 0.94126 0.9198 0.24038 0.0
H1013 H 0.9227 0.87409 0.23996 0.0
C1014 C 0.87679 0.86317 0.23857 0.0
C1015 C 0.85235 0.86019 0.23942 0.0
C1016 C 0.88766 0.88964 0.23942 0.0
C1017 C 0.83918 0.8846 0.24149 0.0
C1018 C 0.84984 0.91098 0.24114 0.0
C1019 C 0.88503 0.94035 0.23881 0.0
C1020 C 0.90951 0.94319 0.2389 0.0
C1021 C 0.8741 0.91385 0.23979 0.0
C1022 C 0.92261 0.91868 0.24016 0.0
C1023 C 0.9119 0.89239 0.23985 0.0
H1024 H 0.6264 0.09945 0.98632 0.0
H1025 H 0.694 0.13604 0.99489 0.0
H1026 H 0.67656 0.18248 0.99423 0.0
H1027 H 0.64176 0.21323 0.99007 0.0
H1028 H 0.57422 0.176 0.98908 0.0
H1029 H 0.59179 0.12982 0.98796 0.0
C1030 C 0.63742 0.11755 0.98809 0.0
C1031 C 0.66174 0.11384 0.99014 0.0
C1032 C 0.62713 0.14435 0.98897 0.0
C1033 C 0.67541 0.13786 0.99319 0.0
C1034 C 0.66535 0.16456 0.99269 0.0
C1035 C 0.63083 0.19503 0.98958 0.0
C1036 C 0.60643 0.19852 0.98909 0.0
C1037 C 0.64119 0.16817 0.99036 0.0
C1038 C 0.59284 0.17436 0.9893 0.0
C1039 C 0.60297 0.14779 0.98861 0.0
H1040 H 0.14875 0.71303 0.98182 0.0
H1041 H 0.0812 0.67577 0.97974 0.0
H1042 H 0.09874 0.62963 0.98277 0.0
H1043 H 0.13323 0.59939 0.98516 0.0
H1044 H 0.20082 0.63591 0.99408 0.0
H1045 H 0.18348 0.68237 0.98973 0.0
C1046 C 0.13782 0.69482 0.98193 0.0
C1047 C 0.11344 0.69824 0.97988 0.0
C1048 C 0.14814 0.66803 0.9851 0.0
C1049 C 0.09982 0.67414 0.98102 0.0
C1050 C 0.10992 0.64761 0.98275 0.0
C1051 C 0.14429 0.61745 0.98617 0.0
C1052 C 0.16855 0.61373 0.98946 0.0
C1053 C 0.13405 0.64422 0.98466 0.0
C1054 C 0.18226 0.63775 0.99157 0.0
C1055 C 0.17226 0.66445 0.98889 0.0
H1056 H 0.62074 0.71069 0.88802 0.0
H1057 H 0.68835 0.67372 0.8881 0.0
H1058 H 0.67079 0.62745 0.88587 0.0
H1059 H 0.63607 0.59701 0.88513 0.0
H1060 H 0.56855 0.63397 0.87809 0.0
H1061 H 0.58606 0.68027 0.88154 0.0
C1062 C 0.63171 0.69254 0.88759 0.0
C1063 C 0.65608 0.69606 0.88886 0.0
C1064 C 0.62138 0.66577 0.88497 0.0
C1065 C 0.66973 0.67201 0.88737 0.0
C1066 C 0.6596 0.64541 0.88613 0.0
C1067 C 0.6251 0.61517 0.88424 0.0
C1068 C 0.60076 0.61161 0.88175 0.0
C1069 C 0.63544 0.64195 0.88512 0.0
C1070 C 0.58714 0.6357 0.87999 0.0
C1071 C 0.59724 0.66231 0.88211 0.0
H1072 H 0.12698 0.21011 0.88385 0.0
H1073 H 0.19388 0.17156 0.89083 0.0
H1074 H 0.17548 0.12567 0.89158 0.0
H1075 H 0.14009 0.09613 0.89192 0.0
H1076 H 0.07351 0.13471 0.87753 0.0
H1077 H 0.09191 0.18055 0.87794 0.0
C1078 C 0.13763 0.19168 0.88543 0.0
C1079 C 0.16201 0.19464 0.88776 0.0
C1080 C 0.12684 0.16518 0.88462 0.0
C1081 C 0.17527 0.17026 0.88904 0.0
C1082 C 0.16465 0.1439 0.88961 0.0
C1083 C 0.12953 0.11456 0.88885 0.0
C1084 C 0.10518 0.11165 0.88528 0.0
C1085 C 0.14042 0.14103 0.88773 0.0
C1086 C 0.09209 0.13599 0.88048 0.0
C1087 C 0.10269 0.16232 0.88079 0.0
H1088 H 0.37747 0.34614 0.63572 0.0
H1089 H 0.44456 0.38406 0.62676 0.0
H1090 H 0.42652 0.43014 0.62726 0.0
H1091 H 0.39149 0.46001 0.63193 0.0
H1092 H 0.32434 0.42179 0.63356 0.0
H1093 H 0.34244 0.37583 0.63413 0.0
C1094 C 0.38823 0.36447 0.63377 0.0
C1095 C 0.41257 0.36134 0.6317 0.0
C1096 C 0.3776 0.39102 0.63285 0.0
C1097 C 0.42595 0.38555 0.62844 0.0
C1098 C 0.41556 0.412 0.62886 0.0
C1099 C 0.38075 0.44164 0.63238 0.0
C1100 C 0.35637 0.44467 0.63328 0.0
C1101 C 0.39139 0.41507 0.63136 0.0
C1102 C 0.34297 0.42039 0.63301 0.0
C1103 C 0.3534 0.394 0.63341 0.0
H1104 H 0.88888 0.95557 0.63946 0.0
H1105 H 0.82121 0.91883 0.6341 0.0
H1106 H 0.83862 0.87247 0.6345 0.0
H1107 H 0.87324 0.8419 0.63744 0.0
H1108 H 0.94094 0.87869 0.6353 0.0
H1109 H 0.92352 0.92504 0.63658 0.0
C1110 C 0.87787 0.93743 0.63838 0.0
C1111 C 0.85353 0.94102 0.63731 0.0
C1112 C 0.88813 0.91064 0.63726 0.0
C1113 C 0.83981 0.91703 0.63509 0.0
C1114 C 0.84985 0.89039 0.63539 0.0
C1115 C 0.88426 0.86005 0.63723 0.0
C1116 C 0.9086 0.85646 0.6368 0.0
C1117 C 0.874 0.88686 0.63667 0.0
C1118 C 0.92233 0.88048 0.63573 0.0
C1119 C 0.91229 0.90711 0.63656 0.0
H1120 H 0.37497 0.95878 0.73964 0.0
H1121 H 0.44247 0.92167 0.73581 0.0
H1122 H 0.42481 0.87542 0.73578 0.0
H1123 H 0.39 0.84509 0.73509 0.0
H1124 H 0.32266 0.88196 0.74627 0.0
H1125 H 0.34027 0.92829 0.74539 0.0
C1126 C 0.3859 0.94059 0.73885 0.0
C1127 C 0.41026 0.94408 0.73715 0.0
C1128 C 0.37552 0.91381 0.74016 0.0
C1129 C 0.42387 0.91998 0.737 0.0
C1130 C 0.41368 0.8934 0.73688 0.0
C1131 C 0.37909 0.86324 0.73746 0.0
C1132 C 0.35478 0.85968 0.74026 0.0
C1133 C 0.38951 0.88999 0.73817 0.0
C1134 C 0.34124 0.8837 0.74403 0.0
C1135 C 0.35139 0.91033 0.74339 0.0
H1136 H 0.89346 0.34166 0.74177 0.0
H1137 H 0.82576 0.37831 0.74257 0.0
H1138 H 0.84322 0.42471 0.74112 0.0
H1139 H 0.87791 0.45514 0.73764 0.0
H1140 H 0.94556 0.4185 0.74385 0.0
H1141 H 0.92809 0.37211 0.74466 0.0
C1142 C 0.88245 0.35977 0.74166 0.0
C1143 C 0.85812 0.35619 0.74169 0.0
C1144 C 0.89273 0.38653 0.74201 0.0
C1145 C 0.84437 0.38015 0.74249 0.0
C1146 C 0.85444 0.40678 0.74151 0.0
C1147 C 0.8889 0.43702 0.73917 0.0
C1148 C 0.91323 0.44059 0.74003 0.0
C1149 C 0.8786 0.41028 0.7409 0.0
C1150 C 0.92695 0.41667 0.743 0.0
C1151 C 0.91689 0.39004 0.74336 0.0
H1152 H 0.62667 0.59399 0.48879 0.0
H1153 H 0.6941 0.63117 0.48113 0.0
H1154 H 0.67646 0.67739 0.48048 0.0
H1155 H 0.64173 0.70759 0.48112 0.0
H1156 H 0.57454 0.67072 0.49596 0.0
H1157 H 0.59208 0.6244 0.49497 0.0
C1158 C 0.63757 0.61219 0.48695 0.0
C1159 C 0.66188 0.60877 0.48444 0.0
C1160 C 0.62724 0.63893 0.48791 0.0
C1161 C 0.67552 0.63285 0.48293 0.0
C1162 C 0.66535 0.6594 0.4825 0.0
C1163 C 0.63084 0.68946 0.48413 0.0
C1164 C 0.6066 0.69296 0.48807 0.0
C1165 C 0.64122 0.66276 0.48478 0.0
C1166 C 0.59307 0.66896 0.49277 0.0
C1167 C 0.60318 0.64237 0.4921 0.0
H1168 H 0.12795 0.09909 0.48095 0.0
H1169 H 0.19541 0.13501 0.49719 0.0
H1170 H 0.1781 0.1815 0.49827 0.0
H1171 H 0.14345 0.21255 0.49393 0.0
H1172 H 0.07592 0.17564 0.4846 0.0
H1173 H 0.09344 0.12953 0.4816 0.0
C1174 C 0.13899 0.11702 0.4847 0.0
C1175 C 0.16325 0.11308 0.48845 0.0
C1176 C 0.12875 0.14384 0.48656 0.0
C1177 C 0.17688 0.13695 0.49407 0.0
C1178 C 0.16689 0.16371 0.49463 0.0
C1179 C 0.13249 0.19444 0.49125 0.0
C1180 C 0.10811 0.19807 0.48908 0.0
C1181 C 0.1428 0.16753 0.49077 0.0
C1182 C 0.09452 0.17396 0.48627 0.0
C1183 C 0.10463 0.14741 0.48448 0.0
H1184 H 0.63009 0.20826 0.38721 0.0
H1185 H 0.69707 0.16984 0.38236 0.0
H1186 H 0.67877 0.12391 0.38437 0.0
H1187 H 0.64357 0.0943 0.38947 0.0
H1188 H 0.57656 0.13281 0.38744 0.0
H1189 H 0.59489 0.17869 0.38606 0.0
C1190 C 0.64078 0.18986 0.38644 0.0
C1191 C 0.66518 0.19286 0.38508 0.0
C1192 C 0.63 0.16335 0.38651 0.0
C1193 C 0.67845 0.16852 0.38342 0.0
C1194 C 0.66789 0.14213 0.38473 0.0
C1195 C 0.63289 0.11272 0.38868 0.0
C1196 C 0.60847 0.10976 0.38916 0.0
C1197 C 0.64368 0.13922 0.38663 0.0
C1198 C 0.5952 0.1341 0.38727 0.0
C1199 C 0.60577 0.16046 0.38656 0.0
H1200 H 0.12655 0.708 0.38444 0.0
H1201 H 0.19458 0.67237 0.38086 0.0
H1202 H 0.17765 0.62569 0.38277 0.0
H1203 H 0.14325 0.5945 0.38705 0.0
H1204 H 0.07524 0.63028 0.38263 0.0
H1205 H 0.09223 0.67688 0.38216 0.0
C1206 C 0.13775 0.69004 0.38396 0.0
C1207 C 0.16205 0.69408 0.38298 0.0
C1208 C 0.12775 0.66305 0.38373 0.0
C1209 C 0.176 0.67027 0.38164 0.0
C1210 C 0.16623 0.64344 0.38288 0.0
C1211 C 0.13208 0.61248 0.38594 0.0
C1212 C 0.10776 0.60852 0.38546 0.0
C1213 C 0.14211 0.63948 0.38421 0.0
C1214 C 0.09384 0.63234 0.38318 0.0
C1215 C 0.10363 0.65913 0.38299 0.0
H1216 H 0.30095 0.04132 0.28708 0.0
H1217 H 0.258 0.99376 0.20093 0.0
H1218 H 0.22651 0.99534 0.25322 0.0
H1219 H 0.20967 1.01011 0.32552 0.0
H1220 H 0.25291 0.05833 0.41055 0.0
H1221 H 0.28411 0.05653 0.35831 0.0
C1222 C 0.28486 0.03098 0.27956 0.0
C1223 C 0.2828 1.01705 0.23877 0.0
C1224 C 0.26599 0.03227 0.31042 0.0
C1225 C 0.26101 1.00452 0.23114 0.0
C1226 C 0.24258 1.0055 0.2615 0.0
C1227 C 0.22573 1.0206 0.33273 0.0
C1228 C 0.22794 0.03467 0.37349 0.0
C1229 C 0.24456 1.01941 0.30155 0.0
C1230 C 0.24972 0.0474 0.38055 0.0
C1231 C 0.26804 0.04632 0.3502 0.0
H1232 H 0.01321 0.26486 0.40019 0.0
H1233 H 0.07335 0.29033 0.32881 0.0
H1234 H 0.04948 0.29547 0.26313 0.0
H1235 H 0.01085 0.29286 0.22432 0.0
H1236 H 0.95104 0.26812 0.29748 0.0
H1237 H 0.97507 0.26289 0.36236 0.0
C1238 C 0.0214 0.27142 0.37037 0.0
C1239 C 0.04576 0.27683 0.37076 0.0
C1240 C 1.00724 0.27471 0.33215 0.0
C1241 C 0.05513 0.28564 0.3308 0.0
C1242 C 0.04124 0.2887 0.29278 0.0
C1243 C 1.00286 0.28647 0.25442 0.0
C1244 C 0.97843 0.28114 0.25467 0.0
C1245 C 0.01716 0.28338 0.29275 0.0
C1246 C 0.96926 0.27269 0.29495 0.0
C1247 C 0.98323 0.26956 0.33257 0.0
H1248 H 0.26077 0.26248 0.9706 0.0
H1249 H 0.20157 0.28279 1.04825 0.0
H1250 H 0.22665 0.28791 0.1119 0.0
H1251 H 0.2658 0.28699 0.14735 0.0
H1252 H 0.32506 0.26651 0.07007 0.0
H1253 H 0.30002 0.26141 1.00625 0.0
C1254 C 0.25312 0.26787 1.0014 0.0
C1255 C 0.22858 0.27192 1.00334 0.0
C1256 C 0.26801 0.27103 1.0388 0.0
C1257 C 0.21988 0.27918 1.04447 0.0
C1258 C 0.23445 0.28226 0.08136 0.0
C1259 C 0.27348 0.28156 0.11661 0.0
C1260 C 0.29802 0.27749 0.11481 0.0
C1261 C 0.25863 0.27835 0.07923 0.0
C1262 C 0.30676 0.27014 0.07374 0.0
C1263 C 0.2922 0.26708 1.03676 0.0
H1264 H 0.9581 0.04954 0.07677 0.0
H1265 H 0.99652 0.99006 0.15269 0.0
H1266 H 0.02746 0.99096 0.10019 0.0
H1267 H 0.04567 1.00849 1.03176 0.0
H1268 H 1.00739 0.06597 0.95257 0.0
H1269 H 0.97596 0.06577 1.00541 0.0
C1270 C 0.97296 0.03634 0.08179 0.0
C1271 C 0.97393 1.01952 0.12037 0.0
C1272 C 0.99167 0.03676 1.05016 0.0
C1273 C 0.99428 1.0033 0.12458 0.0
C1274 C 0.01249 1.00381 0.09407 0.0
C1275 C 0.03063 1.02128 1.0259 0.0
C1276 C 0.02988 0.03766 0.98711 0.0
C1277 C 0.01175 1.02059 1.05669 0.0
C1278 C 0.00935 0.05327 0.98134 0.0
C1279 C 0.99098 0.05309 1.012 0.0
H1280 H 0.71026 1.01158 0.83183 0.0
H1281 H 0.75417 0.05981 0.91547 0.0
H1282 H 0.78514 0.05759 0.86241 0.0
H1283 H 0.80129 0.04195 0.79061 0.0
H1284 H 0.75742 0.99346 0.70722 0.0
H1285 H 0.72644 0.99582 0.76017 0.0
C1286 C 0.72643 1.02196 0.83854 0.0
C1287 C 0.72899 0.03624 0.87888 0.0
C1288 C 0.74501 1.02035 0.80718 0.0
C1289 C 0.75084 0.0488 0.88559 0.0
C1290 C 0.76896 0.04745 0.85483 0.0
C1291 C 0.78512 0.03156 0.78392 0.0
C1292 C 0.78258 1.01721 0.74363 0.0
C1293 C 0.76655 0.03316 0.8153 0.0
C1294 C 0.76075 1.00457 0.737 0.0
C1295 C 0.74261 1.00599 0.76771 0.0
H1296 H 0.01256 0.76503 0.89425 0.0
H1297 H 0.07288 0.78483 0.8192 0.0
H1298 H 0.04878 0.78966 0.75408 0.0
H1299 H 0.00992 0.78854 0.7162 0.0
H1300 H 0.94973 0.76912 0.79195 0.0
H1301 H 0.97389 0.76418 0.85671 0.0
C1302 C 0.02068 0.77023 0.86373 0.0
C1303 C 0.04526 0.77418 0.86308 0.0
C1304 C 1.00635 0.77332 0.8254 0.0
C1305 C 0.05451 0.7813 0.82215 0.0
C1306 C 0.04049 0.7842 0.78432 0.0
C1307 C 1.00187 0.78338 0.7468 0.0
C1308 C 0.97727 0.77951 0.74767 0.0
C1309 C 0.01627 0.78036 0.78515 0.0
C1310 C 0.96809 0.77256 0.78875 0.0
C1311 C 0.98215 0.76959 0.82641 0.0
H1312 H 0.75182 0.76628 0.97587 0.0
H1313 H 0.6921 0.78541 1.05277 0.0
H1314 H 0.7169 0.79087 0.11683 0.0
H1315 H 0.75609 0.79043 0.15283 0.0
H1316 H 0.81573 0.77172 0.0754 0.0
H1317 H 0.79089 0.7662 1.01156 0.0
C1318 C 0.74399 0.77149 1.00659 0.0
C1319 C 0.71941 0.77505 1.00823 0.0
C1320 C 0.75871 0.77495 1.04408 0.0
C1321 C 0.71046 0.78216 1.04924 0.0
C1322 C 0.72488 0.78543 0.08635 0.0
C1323 C 0.76387 0.78533 0.12202 0.0
C1324 C 0.78846 0.78184 0.12019 0.0
C1325 C 0.74912 0.78197 0.08448 0.0
C1326 C 0.79737 0.77491 0.07908 0.0
C1327 C 0.78293 0.7716 1.04208 0.0
H1328 H 0.21967 0.50616 0.83822 0.0
H1329 H 0.25611 0.5676 0.91253 0.0
H1330 H 0.28731 0.56781 0.85955 0.0
H1331 H 0.30559 0.55073 0.79005 0.0
H1332 H 0.26927 0.48808 0.71767 0.0
H1333 H 0.23824 0.48833 0.77034 0.0
C1334 C 0.23421 0.51996 0.8428 0.0
C1335 C 0.2346 0.53727 0.88028 0.0
C1336 C 0.25299 0.5196 0.81188 0.0
C1337 C 0.25449 0.55416 0.88467 0.0
C1338 C 0.27273 0.55422 0.85402 0.0
C1339 C 0.29117 0.53672 0.78592 0.0
C1340 C 0.29072 0.51913 0.74861 0.0
C1341 C 0.27249 0.53692 0.81727 0.0
C1342 C 0.27097 0.50187 0.74509 0.0
C1343 C 0.25277 0.50203 0.7756 0.0
H1344 H 0.21203 0.78898 0.54125 0.0
H1345 H 0.2592 0.75152 0.45124 0.0
H1346 H 0.28989 0.75329 0.50536 0.0
H1347 H 0.3048 0.76545 0.57982 0.0
H1348 H 0.25768 0.80277 0.67 0.0
H1349 H 0.22695 0.80108 0.61586 0.0
C1350 C 0.22891 0.78092 0.53328 0.0
C1351 C 0.23248 0.76984 0.49082 0.0
C1352 C 0.24724 0.78216 0.56538 0.0
C1353 C 0.25511 0.76007 0.48268 0.0
C1354 C 0.27305 0.76114 0.51408 0.0
C1355 C 0.28792 0.7735 0.58783 0.0
C1356 C 0.28437 0.78456 0.63031 0.0
C1357 C 0.26958 0.77225 0.55577 0.0
C1358 C 0.26174 0.79428 0.63853 0.0
C1359 C 0.24379 0.79324 0.60712 0.0
H1360 H 0.05605 0.51138 0.54484 0.0
H1361 H 0.01137 0.55403 0.45489 0.0
H1362 H 0.98003 0.55234 0.50723 0.0
H1363 H 0.96374 0.53879 0.58013 0.0
H1364 H 1.00845 0.49631 0.67023 0.0
H1365 H 0.03979 0.49795 0.61788 0.0
C1366 C 0.0396 0.52062 0.53652 0.0
C1367 C 0.03697 0.53315 0.49458 0.0
C1368 C 0.02084 0.51943 0.56758 0.0
C1369 C 0.01479 0.54436 0.48597 0.0
C1370 C 0.99645 0.54333 0.51634 0.0
C1371 C 0.9802 0.52958 0.58849 0.0
C1372 C 0.98283 0.5171 0.63045 0.0
C1373 C 0.99898 0.53081 0.55747 0.0
C1374 C 1.00502 0.50595 0.63913 0.0
C1375 C 0.02336 0.50695 0.60875 0.0
H1376 H 0.76098 0.51219 0.22438 0.0
H1377 H 0.82123 0.53564 0.29765 0.0
H1378 H 0.79736 0.54132 0.36241 0.0
H1379 H 0.75892 0.54001 0.40035 0.0
H1380 H 0.69857 0.51657 0.3274 0.0
H1381 H 0.72242 0.51084 0.2625 0.0
C1382 C 0.76912 0.51838 0.25446 0.0
C1383 C 0.79363 0.52311 0.25472 0.0
C1384 C 0.7549 0.52189 0.29263 0.0
C1385 C 0.80294 0.53146 0.29504 0.0
C1386 C 0.78905 0.53485 0.33263 0.0
C1387 C 0.75073 0.53377 0.37033 0.0
C1388 C 0.72623 0.52906 0.37019 0.0
C1389 C 0.76492 0.53024 0.33218 0.0
C1390 C 0.71687 0.52071 0.32992 0.0
C1391 C 0.73075 0.51729 0.29226 0.0
H1392 H 0.71697 0.29594 0.54515 0.0
H1393 H 0.7532 0.23685 0.46629 0.0
H1394 H 0.78506 0.23622 0.51771 0.0
H1395 H 0.8044 0.25234 0.58635 0.0
H1396 H 0.76818 0.31074 0.66627 0.0
H1397 H 0.73615 0.31153 0.61483 0.0
C1398 C 0.73156 0.28251 0.5393 0.0
C1399 C 0.7317 0.26617 0.50063 0.0
C1400 C 0.75076 0.28229 0.5698 0.0
C1401 C 0.7517 0.24965 0.49488 0.0
C1402 C 0.77038 0.24931 0.52465 0.0
C1403 C 0.78973 0.26561 0.5925 0.0
C1404 C 0.78967 0.28184 0.63121 0.0
C1405 C 0.77046 0.26569 0.56232 0.0
C1406 C 0.76959 0.2981 0.6375 0.0
C1407 C 0.75084 0.29851 0.60772 0.0
H1408 H 0.55393 0.3006 0.83241 0.0
H1409 H 0.51431 0.24467 0.9121 0.0
H1410 H 0.48337 0.24472 0.85893 0.0
H1411 H 0.46584 0.2604 0.78846 0.0
H1412 H 0.50539 0.31509 0.70698 0.0
H1413 H 0.53655 0.31559 0.76047 0.0
C1414 C 0.53875 0.28806 0.83816 0.0
C1415 C 0.53738 0.27243 0.87766 0.0
C1416 C 0.52014 0.28811 0.80643 0.0
C1417 C 0.51675 0.25695 0.88304 0.0
C1418 C 0.4986 0.25699 0.8522 0.0
C1419 C 0.48108 0.27276 0.78234 0.0
C1420 C 0.48238 0.28806 0.74265 0.0
C1421 C 0.49977 0.2726 0.81366 0.0
C1422 C 0.50309 0.3032 0.73647 0.0
C1423 C 0.5213 0.30343 0.76745 0.0
H1424 H 0.50631 1.01441 0.65124 0.0
H1425 H 0.44659 0.03497 0.57421 0.0
H1426 H 0.47129 0.04094 0.51043 0.0
H1427 H 0.51043 0.04062 0.4745 0.0
H1428 H 0.57009 1.02022 0.55184 0.0
H1429 H 0.54536 1.01424 0.61548 0.0
C1430 C 0.49845 1.02004 0.62056 0.0
C1431 C 0.47385 1.02386 0.61892 0.0
C1432 C 0.51314 1.02376 0.58309 0.0
C1433 C 0.46493 0.0315 0.57786 0.0
C1434 C 0.47931 0.03506 0.54086 0.0
C1435 C 0.51826 0.03504 0.50523 0.0
C1436 C 0.54286 0.03126 0.50699 0.0
C1437 C 0.50354 0.03137 0.54272 0.0
C1438 C 0.55175 1.02367 0.54809 0.0
C1439 C 0.53736 1.0201 0.58503 0.0
H1440 H 0.46311 0.75762 0.29546 0.0
H1441 H 0.50374 0.80894 0.21034 0.0
H1442 H 0.53537 0.80865 0.26235 0.0
H1443 H 0.55317 0.79388 0.33344 0.0
H1444 H 0.51265 0.74281 0.419 0.0
H1445 H 0.48089 0.74308 0.36703 0.0
C1446 C 0.47869 0.76912 0.28825 0.0
C1447 C 0.48011 0.7836 0.24771 0.0
C1448 C 0.4977 0.76873 0.31908 0.0
C1449 C 0.50126 0.79765 0.24035 0.0
C1450 C 0.51978 0.79744 0.2705 0.0
C1451 C 0.53757 0.78249 0.34082 0.0
C1452 C 0.53622 0.76804 0.38135 0.0
C1453 C 0.51853 0.78293 0.31014 0.0
C1454 C 0.51506 0.75408 0.38895 0.0
C1455 C 0.49648 0.75427 0.35882 0.0
H1456 H 0.46691 0.55264 0.08956 0.0
H1457 H 0.4985 0.48284 0.15362 0.0
H1458 H 0.52933 0.48248 0.10012 0.0
H1459 H 0.54874 0.50179 1.03347 0.0
H1460 H 0.51711 0.57153 0.9693 0.0
H1461 H 0.48633 0.57196 1.02291 0.0
C1462 C 0.48022 0.53696 0.09159 0.0
C1463 C 0.47944 0.51741 0.1265 0.0
C1464 C 0.49879 0.53705 1.06021 0.0
C1465 C 0.49783 0.49807 0.1278 0.0
C1466 C 0.51587 0.49791 0.0969 0.0
C1467 C 0.53544 0.51749 1.03147 0.0
C1468 C 0.53621 0.53702 0.99654 0.0
C1469 C 0.51688 0.51742 0.06287 0.0
C1470 C 0.51782 0.55636 0.99522 0.0
C1471 C 0.49979 0.55654 1.02616 0.0
H1472 H 0.34179 0.02845 0.97392 0.0
H1473 H 0.404 0.02946 1.05051 0.0
H1474 H 0.4271 0.0297 0.98392 0.0
H1475 H 0.43028 0.02892 0.90192 0.0
H1476 H 0.36757 0.03026 0.82651 0.0
H1477 H 0.34487 0.02984 0.89302 0.0
C1478 C 0.36042 0.02885 0.97645 0.0
C1479 C 0.37072 0.02891 1.01872 0.0
C1480 C 0.3739 0.02935 0.93723 0.0
C1481 C 0.3951 0.0295 1.01961 0.0
C1482 C 0.40848 0.02956 0.98098 0.0
C1483 C 0.41164 0.02923 0.89974 0.0
C1484 C 0.40108 0.02959 0.85758 0.0
C1485 C 0.39821 0.02939 0.93925 0.0
C1486 C 0.3767 0.03005 0.85718 0.0
C1487 C 0.3635 0.02976 0.89578 0.0
H1488 H 0.93219 0.27362 0.97504 0.0
H1489 H 0.86933 0.27085 1.04901 0.0
H1490 H 0.84683 0.26933 0.98188 0.0
H1491 H 0.84405 0.26937 0.90073 0.0
H1492 H 0.90666 0.2701 0.82606 0.0
H1493 H 0.9294 0.27168 0.89324 0.0
C1494 C 0.91356 0.27262 0.97678 0.0
C1495 C 0.90287 0.27245 1.01864 0.0
C1496 C 0.90031 0.27134 0.93701 0.0
C1497 C 0.87853 0.271 1.01853 0.0
C1498 C 0.86545 0.27016 0.97959 0.0
C1499 C 0.8627 0.26972 0.89878 0.0
C1500 C 0.87322 0.26956 0.85684 0.0
C1501 C 0.876 0.27037 0.93839 0.0
C1502 C 0.8976 0.27005 0.85668 0.0
C1503 C 0.91078 0.27105 0.89564 0.0
H1504 H 0.34 0.27146 0.39796 0.0
H1505 H 0.40355 0.26934 0.32605 0.0
H1506 H 0.42547 0.27025 0.39383 0.0
H1507 H 0.4276 0.27235 0.47493 0.0
H1508 H 0.36446 0.27236 0.54795 0.0
H1509 H 0.34221 0.27149 0.48009 0.0
C1510 C 0.35866 0.27107 0.3968 0.0
C1511 C 0.36969 0.27032 0.35521 0.0
C1512 C 0.37162 0.27124 0.43706 0.0
C1513 C 0.39407 0.26981 0.3562 0.0
C1514 C 0.40682 0.27039 0.39555 0.0
C1515 C 0.40894 0.27203 0.47642 0.0
C1516 C 0.39813 0.27244 0.51813 0.0
C1517 C 0.39594 0.2712 0.43642 0.0
C1518 C 0.37375 0.27196 0.51759 0.0
C1519 C 0.36085 0.27154 0.47821 0.0
H1520 H 0.87389 0.03408 0.3541 0.0
H1521 H 0.94382 1.02105 0.39697 0.0
H1522 H 0.93116 1.02098 0.47235 0.0
H1523 H 0.89976 1.02358 0.52941 0.0
H1524 H 0.82987 0.03564 0.48521 0.0
H1525 H 0.84284 0.03712 0.41053 0.0
C1526 C 0.88654 0.03134 0.37967 0.0
C1527 C 0.91019 0.02766 0.36785 0.0
C1528 C 0.879 0.03109 0.42449 0.0
C1529 C 0.92563 1.02401 0.40322 0.0
C1530 C 0.91831 1.02395 0.44721 0.0
C1531 C 0.88726 0.02682 0.50373 0.0
C1532 C 0.8634 0.02957 0.51511 0.0
C1533 C 0.89496 0.02738 0.45884 0.0
C1534 C 0.84816 0.03336 0.47946 0.0
C1535 C 0.85565 0.03422 0.43579 0.0
H1536 H 0.67738 1.0257 0.15267 0.0
H1537 H 0.61466 1.02657 0.07752 0.0
H1538 H 0.59201 1.02609 0.14446 0.0
H1539 H 0.58915 1.02601 0.22633 0.0
H1540 H 0.652 1.02284 0.30106 0.0
H1541 H 0.67453 1.02356 0.23415 0.0
C1542 C 0.65874 1.02569 0.15052 0.0
C1543 C 0.64821 1.02624 0.10832 0.0
C1544 C 0.64542 1.02501 0.19016 0.0
C1545 C 0.6238 1.0261 0.10816 0.0
C1546 C 0.61064 1.02588 0.14706 0.0
C1547 C 0.60779 1.02535 0.22835 0.0
C1548 C 0.6184 1.02435 0.2705 0.0
C1549 C 0.62109 1.0254 0.1886 0.0
C1550 C 0.64279 1.0235 0.27049 0.0
C1551 C 0.6559 1.02398 0.23161 0.0
H1552 H 0.08973 0.78126 0.14411 0.0
H1553 H 0.1538 0.78681 0.07431 0.0
H1554 H 0.17506 0.78684 0.14299 0.0
H1555 H 0.17648 0.78454 0.22444 0.0
H1556 H 0.11265 0.7815 0.29519 0.0
H1557 H 0.09112 0.78137 0.22644 0.0
C1558 C 0.10836 0.78261 0.14354 0.0
C1559 C 0.11972 0.78399 0.10215 0.0
C1560 C 0.12091 0.78306 0.18439 0.0
C1561 C 0.14405 0.78579 0.10413 0.0
C1562 C 0.15642 0.78575 0.14405 0.0
C1563 C 0.15781 0.784 0.22529 0.0
C1564 C 0.14664 0.78301 0.2668 0.0
C1565 C 0.1452 0.78431 0.18467 0.0
C1566 C 0.12226 0.78238 0.26521 0.0
C1567 C 0.10977 0.78222 0.22524 0.0
H1568 H 0.67863 0.78023 0.72536 0.0
H1569 H 0.61492 0.78301 0.79673 0.0
H1570 H 0.59315 0.78262 0.72881 0.0
H1571 H 0.59126 0.78083 0.64791 0.0
H1572 H 0.65454 0.78027 0.57533 0.0
H1573 H 0.67668 0.78056 0.64335 0.0
C1574 C 0.65997 0.78087 0.72633 0.0
C1575 C 0.6488 0.78163 0.76768 0.0
C1576 C 0.64714 0.78103 0.68606 0.0
C1577 C 0.62445 0.7825 0.76664 0.0
C1578 C 0.6118 0.78222 0.72727 0.0
C1579 C 0.60993 0.78089 0.64659 0.0
C1580 C 0.62086 0.7805 0.6051 0.0
C1581 C 0.62281 0.78141 0.68657 0.0
C1582 C 0.64522 0.78067 0.60565 0.0
C1583 C 0.65804 0.78076 0.64507 0.0
H1584 H 0.09274 1.02582 0.72643 0.0
H1585 H 0.15478 1.02338 0.80343 0.0
H1586 H 0.17797 1.02392 0.73686 0.0
H1587 H 0.18136 1.02582 0.65464 0.0
H1588 H 0.1188 1.02619 0.57882 0.0
H1589 H 0.09601 1.02572 0.64532 0.0
C1590 C 0.11136 1.02526 0.72914 0.0
C1591 C 0.12151 1.02453 0.7717 0.0
C1592 C 0.12492 1.02528 0.68982 0.0
C1593 C 0.1459 1.02381 0.77251 0.0
C1594 C 0.15936 1.02421 0.73381 0.0
C1595 C 0.16273 1.02571 0.65229 0.0
C1596 C 0.15229 1.0261 0.60985 0.0
C1597 C 0.14922 1.02505 0.6919 0.0
C1598 C 0.1279 1.02585 0.60952 0.0
C1599 C 0.11463 1.02562 0.64819 0.0
H1600 H 0.3954 0.53041 0.52381 0.0
H1601 H 0.32535 0.52981 0.47682 0.0
H1602 H 0.33907 0.53004 0.40222 0.0
H1603 H 0.3712 0.52947 0.3474 0.0
H1604 H 0.4412 0.52856 0.39479 0.0
H1605 H 0.42745 0.52989 0.46917 0.0
C1606 C 0.38302 0.53052 0.49745 0.0
C1607 C 0.35901 0.53024 0.50762 0.0
C1608 C 0.39115 0.53029 0.4532 0.0
C1609 C 0.3438 0.53008 0.47156 0.0
C1610 C 0.35171 0.53019 0.42814 0.0
C1611 C 0.38356 0.52973 0.37379 0.0
C1612 C 0.40759 0.52898 0.36375 0.0
C1613 C 0.3754 0.53017 0.41806 0.0
C1614 C 0.42275 0.52909 0.39989 0.0
C1615 C 0.41482 0.52986 0.44322 0.0
H1616 H 0.92345 0.77237 0.47362 0.0
H1617 H 0.86149 0.76847 0.5499 0.0
H1618 H 0.83819 0.76929 0.48343 0.0
H1619 H 0.83455 0.77176 0.40168 0.0
H1620 H 0.8968 0.77318 0.32587 0.0
H1621 H 0.9199 0.77266 0.3923 0.0
C1622 C 0.90484 0.77157 0.47609 0.0
C1623 C 0.8947 0.77036 0.5184 0.0
C1624 C 0.89116 0.77166 0.43676 0.0
C1625 C 0.87032 0.7693 0.51908 0.0
C1626 C 0.85678 0.76985 0.48048 0.0
C1627 C 0.85318 0.77186 0.39934 0.0
C1628 C 0.86345 0.77257 0.35706 0.0
C1629 C 0.86685 0.77111 0.43879 0.0
C1630 C 0.88785 0.77257 0.35658 0.0
C1631 C 0.9013 0.77232 0.39518 0.0
H1632 H 0.34218 0.77094 0.89749 0.0
H1633 H 0.40442 0.77113 0.82178 0.0
H1634 H 0.42746 0.77139 0.8887 0.0
H1635 H 0.43072 0.77235 0.97065 0.0
H1636 H 0.36825 0.77009 1.04575 0.0
H1637 H 0.34541 0.76981 0.97887 0.0
C1638 C 0.36081 0.77088 0.89519 0.0
C1639 C 0.37108 0.77099 0.85286 0.0
C1640 C 0.37432 0.77072 0.93476 0.0
C1641 C 0.39547 0.77091 0.85251 0.0
C1642 C 0.40885 0.77114 0.89139 0.0
C1643 C 0.41209 0.77167 0.97277 0.0
C1644 C 0.40169 0.77125 1.01503 0.0
C1645 C 0.39862 0.77115 0.93305 0.0
C1646 C 0.3773 0.77033 1.01514 0.0
C1647 C 0.36402 0.77024 0.97627 0.0
H1648 H 0.92585 0.53036 0.89762 0.0
H1649 H 0.86333 0.52593 0.82227 0.0
H1650 H 0.8406 0.52582 0.88928 0.0
H1651 H 0.83774 0.52631 0.97144 0.0
H1652 H 0.90057 0.53319 1.04565 0.0
H1653 H 0.92299 0.53303 0.97873 0.0
C1654 C 0.90722 0.52949 0.89541 0.0
C1655 C 0.89678 0.52814 0.8532 0.0
C1656 C 0.89389 0.52982 0.93498 0.0
C1657 C 0.87239 0.5271 0.85294 0.0
C1658 C 0.8592 0.52696 0.89188 0.0
C1659 C 0.85634 0.52788 0.97332 0.0
C1660 C 0.86699 0.52973 1.0154 0.0
C1661 C 0.86961 0.52822 0.93347 0.0
C1662 C 0.89133 0.53181 1.01519 0.0
C1663 C 0.90438 0.53166 0.9763 0.0
H1664 H 0.64255 0.52512 0.77275 0.0
H1665 H 0.5727 0.52321 0.72485 0.0
H1666 H 0.58676 0.52203 0.65049 0.0
H1667 H 0.61911 0.52228 0.59579 0.0
H1668 H 0.68891 0.52596 0.6437 0.0
H1669 H 0.67488 0.52565 0.71806 0.0
C1670 C 0.63025 0.52427 0.74629 0.0
C1671 C 0.60613 0.52411 0.75637 0.0
C1672 C 0.63862 0.52397 0.70196 0.0
C1673 C 0.59117 0.52332 0.71993 0.0
C1674 C 0.5993 0.52265 0.67655 0.0
C1675 C 0.63141 0.52287 0.62226 0.0
C1676 C 0.65551 0.52402 0.61216 0.0
C1677 C 0.62304 0.52306 0.6666 0.0
C1678 C 0.67046 0.52504 0.64861 0.0
C1679 C 0.66234 0.52487 0.69201 0.0
H1680 H 0.11723 0.27666 0.78359 0.0
H1681 H 0.18637 0.28829 0.73606 0.0
H1682 H 0.17197 0.28979 0.66187 0.0
H1683 H 0.13983 0.28702 0.60745 0.0
H1684 H 0.07075 0.27327 0.65348 0.0
H1685 H 0.08479 0.27344 0.7284 0.0
C1686 C 0.12924 0.27976 0.75722 0.0
C1687 C 0.1533 0.28254 0.76724 0.0
C1688 C 0.12071 0.28013 0.71292 0.0
C1689 C 0.16798 0.2861 0.73104 0.0
C1690 C 0.15966 0.28695 0.68782 0.0
C1691 C 0.12768 0.28416 0.63365 0.0
C1692 C 0.10385 0.28027 0.62312 0.0
C1693 C 0.13606 0.28387 0.67787 0.0
C1694 C 0.08901 0.27639 0.65901 0.0
C1695 C 0.09714 0.27648 0.70258 0.0
H1696 H 0.64538 0.28465 0.10172 0.0
H1697 H 0.57568 0.2808 0.14924 0.0
H1698 H 0.58989 0.28044 0.22369 0.0
H1699 H 0.62238 0.28028 0.27862 0.0
H1700 H 0.69209 0.28259 0.23089 0.0
H1701 H 0.67783 0.28447 0.15657 0.0
C1702 C 0.63314 0.28391 0.12812 0.0
C1703 C 0.60901 0.28291 0.11786 0.0
C1704 C 0.6416 0.28334 0.17252 0.0
C1705 C 0.59415 0.28166 0.15425 0.0
C1706 C 0.60237 0.28143 0.19771 0.0
C1707 C 0.6346 0.28138 0.25222 0.0
C1708 C 0.65876 0.28139 0.26239 0.0
C1709 C 0.62612 0.28214 0.20782 0.0
C1710 C 0.6736 0.28254 0.22596 0.0
C1711 C 0.66535 0.28363 0.18257 0.0
H1712 H 0.18216 0.52447 0.15427 0.0
H1713 H 0.12007 0.52592 0.07724 0.0
H1714 H 0.09687 0.52463 0.14341 0.0
H1715 H 0.09325 0.52368 0.22491 0.0
H1716 H 0.15521 0.52019 0.30212 0.0
H1717 H 0.17849 0.52157 0.23593 0.0
C1718 C 0.16354 0.52442 0.15155 0.0
C1719 C 0.15336 0.52537 0.10897 0.0
C1720 C 0.14985 0.52329 0.19083 0.0
C1721 C 0.12897 0.52517 0.10812 0.0
C1722 C 0.11548 0.52446 0.14659 0.0
C1723 C 0.11186 0.52305 0.22768 0.0
C1724 C 0.12197 0.52176 0.27027 0.0
C1725 C 0.12556 0.52357 0.18844 0.0
C1726 C 0.14636 0.52104 0.27119 0.0
C1727 C 0.15989 0.52191 0.23272 0.0
H1728 H 0.32476 0.2017 0.1491 0.0
H1729 H 0.3072 0.18227 0.28124 0.0
H1730 H 0.30042 0.1337 0.26088 0.0
H1731 H 0.30389 0.09582 0.20672 0.0
H1732 H 0.32024 0.11583 0.07429 0.0
H1733 H 0.32258 0.16511 0.09305 0.0
C1734 C 0.31907 0.1869 0.17333 0.0
C1735 C 0.31668 0.1956 0.21684 0.0
C1736 C 0.31488 0.15912 0.16112 0.0
C1737 C 0.30913 0.17622 0.24769 0.0
C1738 C 0.30534 0.14841 0.23597 0.0
C1739 C 0.30703 0.11114 0.18161 0.0
C1740 C 0.31132 0.10212 0.13876 0.0
C1741 C 0.30864 0.13949 0.19295 0.0
C1742 C 0.31615 0.12215 0.107 0.0
C1743 C 0.31786 0.15033 0.118 0.0
H1744 H 0.95139 0.09701 0.15641 0.0
H1745 H 0.96251 0.11659 0.29083 0.0
H1746 H 0.96608 0.16596 0.27198 0.0
H1747 H 0.96144 0.20413 0.21788 0.0
H1748 H 0.95133 0.18417 0.08332 0.0
H1749 H 0.95223 0.13457 0.10122 0.0
C1750 C 0.95525 0.11203 0.18146 0.0
C1751 C 0.95691 0.10297 0.22508 0.0
C1752 C 0.95728 0.14041 0.1702 0.0
C1753 C 0.96155 0.12278 0.25711 0.0
C1754 C 0.96337 0.1511 0.24626 0.0
C1755 C 0.9602 0.18887 0.1923 0.0
C1756 C 0.95674 0.19797 0.14903 0.0
C1757 C 0.96069 0.16026 0.20304 0.0
C1758 C 0.95457 0.17789 0.11652 0.0
C1759 C 0.95483 0.14947 0.12694 0.0
H1760 H 0.70417 0.85012 0.96996 0.0
H1761 H 0.69812 0.87085 0.83458 0.0
H1762 H 0.69981 0.92034 0.85241 0.0
H1763 H 0.6986 0.95768 0.90726 0.0
H1764 H 0.70594 0.93743 1.04261 0.0
H1765 H 0.70848 0.88796 1.02431 0.0
C1766 C 0.70397 0.86551 0.94426 0.0
C1767 C 0.70141 0.85669 0.90075 0.0
C1768 C 0.70491 0.89404 0.95495 0.0
C1769 C 0.70062 0.87692 0.86801 0.0
C1770 C 0.70133 0.90527 0.87837 0.0
C1771 C 0.7013 0.94247 0.93273 0.0
C1772 C 0.70213 0.95136 0.9764 0.0
C1773 C 0.70286 0.91408 0.92178 0.0
C1774 C 0.70552 0.93133 1.00889 0.0
C1775 C 0.70677 0.90298 0.99833 0.0
H1776 H 0.0648 0.8501 0.89939 0.0
H1777 H 0.05857 0.8696 1.03486 0.0
H1778 H 0.05435 0.91895 1.01649 0.0
H1779 H 0.05735 0.95705 0.96224 0.0
H1780 H 0.0626 0.93747 0.82665 0.0
H1781 H 0.06191 0.88779 0.84438 0.0
C1782 C 0.06185 0.8651 0.92485 0.0
C1783 C 0.06182 0.85601 0.9686 0.0
C1784 C 0.05943 0.89349 0.91385 0.0
C1785 C 0.05829 0.87579 1.0011 0.0
C1786 C 0.0561 0.9041 0.99049 0.0
C1787 C 0.05758 0.94187 0.93643 0.0
C1788 C 0.05972 0.95112 0.89294 0.0
C1789 C 0.05727 0.91328 0.94707 0.0
C1790 C 0.06044 0.93113 0.86009 0.0
C1791 C 0.06033 0.90266 0.8704 0.0
H1792 H 0.31891 0.70468 0.65335 0.0
H1793 H 0.30508 0.68416 0.78667 0.0
H1794 H 0.30011 0.63518 0.76661 0.0
H1795 H 0.30417 0.59743 0.71182 0.0
H1796 H 0.31718 0.61888 0.57859 0.0
H1797 H 0.31763 0.66814 0.59757 0.0
C1798 C 0.3144 0.68956 0.678 0.0
C1799 C 0.31251 0.69817 0.72166 0.0
C1800 C 0.31139 0.66153 0.66602 0.0
C1801 C 0.30653 0.67827 0.75297 0.0
C1802 C 0.30383 0.6502 0.74141 0.0
C1803 C 0.3062 0.61301 0.68669 0.0
C1804 C 0.31002 0.6044 0.64344 0.0
C1805 C 0.30671 0.64146 0.69815 0.0
C1806 C 0.31348 0.62482 0.61165 0.0
C1807 C 0.31407 0.65303 0.62272 0.0
H1808 H 0.95551 0.7033 0.71467 0.0
H1809 H 0.95293 0.68166 0.57953 0.0
H1810 H 0.95483 0.63229 0.59902 0.0
H1811 H 0.95259 0.59525 0.65505 0.0
H1812 H 0.95644 0.61676 0.79017 0.0
H1813 H 0.95898 0.66608 0.77041 0.0
C1814 C 0.9561 0.68777 0.68941 0.0
C1815 C 0.95438 0.6963 0.64549 0.0
C1816 C 0.95715 0.65936 0.70105 0.0
C1817 C 0.95472 0.67586 0.61331 0.0
C1818 C 0.95554 0.64757 0.62461 0.0
C1819 C 0.95457 0.61072 0.68018 0.0
C1820 C 0.95443 0.6022 0.72421 0.0
C1821 C 0.95612 0.63905 0.6684 0.0
C1822 C 0.95684 0.62255 0.75624 0.0
C1823 C 0.95807 0.65082 0.74482 0.0
H1824 H 0.69756 0.3481 0.47169 0.0
H1825 H 0.71945 0.3673 0.34182 0.0
H1826 H 0.72386 0.41636 0.36199 0.0
H1827 H 0.71714 0.45467 0.41504 0.0
H1828 H 0.69594 0.43442 0.54491 0.0
H1829 H 0.69593 0.38505 0.5267 0.0
C1830 C 0.70371 0.36294 0.44791 0.0
C1831 C 0.70807 0.35391 0.40509 0.0
C1832 C 0.70634 0.39102 0.45995 0.0
C1833 C 0.71611 0.37347 0.37491 0.0
C1834 C 0.71848 0.40161 0.38649 0.0
C1835 C 0.7134 0.43932 0.43979 0.0
C1836 C 0.70716 0.44832 0.48185 0.0
C1837 C 0.71316 0.41077 0.42872 0.0
C1838 C 0.70149 0.42817 0.51293 0.0
C1839 C 0.70118 0.3999 0.50224 0.0
H1840 H 0.04863 0.34817 0.41612 0.0
H1841 H 0.062 0.37005 0.5489 0.0
H1842 H 0.0645 0.41902 0.52824 0.0
H1843 H 0.06798 0.45491 0.47106 0.0
H1844 H 0.05393 0.43389 0.33809 0.0
H1845 H 0.04648 0.38558 0.35987 0.0
C1846 C 0.051 0.36382 0.44084 0.0
C1847 C 0.05431 0.3553 0.48452 0.0
C1848 C 0.0529 0.39212 0.42833 0.0
C1849 C 0.05847 0.37588 0.51561 0.0
C1850 C 0.06034 0.40393 0.50353 0.0
C1851 C 0.06289 0.43985 0.44684 0.0
C1852 C 0.06171 0.44814 0.40276 0.0
C1853 C 0.05836 0.41218 0.45982 0.0
C1854 C 0.05493 0.42831 0.37206 0.0
C1855 C 0.05076 0.40059 0.38463 0.0
H1856 H 0.80311 0.09519 0.71231 0.0
H1857 H 0.81818 0.11625 0.57973 0.0
H1858 H 0.82067 0.16536 0.59932 0.0
H1859 H 0.82318 0.20157 0.65577 0.0
H1860 H 0.80702 0.18129 0.78824 0.0
H1861 H 0.80018 0.1328 0.76735 0.0
C1862 C 0.806 0.11069 0.68739 0.0
C1863 C 0.80983 0.10199 0.64418 0.0
C1864 C 0.80771 0.139 0.69922 0.0
C1865 C 0.81441 0.1223 0.61271 0.0
C1866 C 0.8162 0.15039 0.62417 0.0
C1867 C 0.8178 0.18661 0.68003 0.0
C1868 C 0.81582 0.19511 0.72375 0.0
C1869 C 0.8136 0.15888 0.66752 0.0
C1870 C 0.80864 0.17547 0.75454 0.0
C1871 C 0.80483 0.14768 0.7425 0.0
H1872 H 0.45439 0.20624 0.718 0.0
H1873 H 0.45534 0.18618 0.5822 0.0
H1874 H 0.45729 0.1366 0.60043 0.0
H1875 H 0.45423 0.0988 0.6553 0.0
H1876 H 0.45478 0.11897 0.79107 0.0
H1877 H 0.45706 0.1685 0.77285 0.0
C1878 C 0.45567 0.19101 0.69237 0.0
C1879 C 0.4549 0.20003 0.64863 0.0
C1880 C 0.45688 0.16251 0.70327 0.0
C1881 C 0.45629 0.17999 0.61593 0.0
C1882 C 0.45718 0.15158 0.62647 0.0
C1883 C 0.45553 0.11404 0.68092 0.0
C1884 C 0.45459 0.10507 0.72467 0.0
C1885 C 0.4569 0.14255 0.67002 0.0
C1886 C 0.45591 0.12513 0.75736 0.0
C1887 C 0.45697 0.15351 0.74682 0.0
H1888 H 0.2014 0.84914 0.46627 0.0
H1889 H 0.20735 0.8706 0.33121 0.0
H1890 H 0.20971 0.91994 0.35054 0.0
H1891 H 0.20572 0.95732 0.40578 0.0
H1892 H 0.20127 0.93543 0.54088 0.0
H1893 H 0.2029 0.88609 0.52192 0.0
C1894 C 0.20379 0.86458 0.44106 0.0
C1895 C 0.20431 0.856 0.39717 0.0
C1896 C 0.20522 0.89293 0.4526 0.0
C1897 C 0.20723 0.87639 0.36508 0.0
C1898 C 0.20835 0.90468 0.37624 0.0
C1899 C 0.20579 0.94172 0.43117 0.0
C1900 C 0.20368 0.95021 0.47494 0.0
C1901 C 0.20681 0.91327 0.41983 0.0
C1902 C 0.20336 0.92967 0.50724 0.0
C1903 C 0.20406 0.90139 0.49624 0.0
H1904 H 0.56163 0.84815 0.4094 0.0
H1905 H 0.5656 0.8678 0.54518 0.0
H1906 H 0.56406 0.91746 0.52753 0.0
H1907 H 0.56622 0.95525 0.47274 0.0
H1908 H 0.56086 0.93573 0.33706 0.0
H1909 H 0.558 0.88619 0.35514 0.0
C1910 C 0.56144 0.86333 0.43522 0.0
C1911 C 0.56345 0.85417 0.47875 0.0
C1912 C 0.56054 0.89189 0.42464 0.0
C1913 C 0.5636 0.87412 0.51168 0.0
C1914 C 0.56297 0.90257 0.50143 0.0
C1915 C 0.56381 0.94017 0.44717 0.0
C1916 C 0.56362 0.94928 0.40347 0.0
C1917 C 0.56207 0.91171 0.45798 0.0
C1918 C 0.56071 0.92945 0.37079 0.0
C1919 C 0.55929 0.90107 0.38122 0.0
H1920 H 0.80258 0.59742 0.21066 0.0
H1921 H 0.81833 0.61797 0.07818 0.0
H1922 H 0.81841 0.66737 0.09643 0.0
H1923 H 0.81863 0.70435 0.15183 0.0
H1924 H 0.80176 0.68459 0.28417 0.0
H1925 H 0.79728 0.63551 0.26445 0.0
C1926 C 0.80509 0.61281 0.18542 0.0
C1927 C 0.8098 0.60386 0.14262 0.0
C1928 C 0.80537 0.64136 0.19648 0.0
C1929 C 0.81391 0.62412 0.11082 0.0
C1930 C 0.8143 0.65242 0.12152 0.0
C1931 C 0.81355 0.68937 0.17629 0.0
C1932 C 0.81066 0.69828 0.21965 0.0
C1933 C 0.81075 0.66124 0.16446 0.0
C1934 C 0.80398 0.67853 0.2507 0.0
C1935 C 0.80155 0.65037 0.23934 0.0
H1936 H 0.46342 0.59633 0.16143 0.0
H1937 H 0.4516 0.61716 0.29502 0.0
H1938 H 0.45141 0.66656 0.27603 0.0
H1939 H 0.45002 0.70348 0.22015 0.0
H1940 H 0.46286 0.68341 0.08658 0.0
H1941 H 0.4675 0.63429 0.10659 0.0
C1942 C 0.46167 0.61178 0.18662 0.0
C1943 C 0.4581 0.60294 0.22997 0.0
C1944 C 0.46138 0.6403 0.17519 0.0
C1945 C 0.45507 0.62324 0.26186 0.0
C1946 C 0.45464 0.65154 0.25078 0.0
C1947 C 0.45431 0.68842 0.19547 0.0
C1948 C 0.45604 0.69724 0.15174 0.0
C1949 C 0.45712 0.66027 0.20741 0.0
C1950 C 0.46161 0.6774 0.12034 0.0
C1951 C 0.4641 0.64923 0.13187 0.0
H1952 H 0.21032 0.45669 0.90974 0.0
H1953 H 0.20227 0.43619 1.04474 0.0
H1954 H 0.2028 0.38665 1.02689 0.0
H1955 H 0.20136 0.34928 0.97184 0.0
H1956 H 0.21109 0.36935 0.83707 0.0
H1957 H 0.21443 0.41872 0.85563 0.0
C1958 C 0.20939 0.44132 0.9354 0.0
C1959 C 0.20658 0.45026 0.97879 0.0
C1960 C 0.20978 0.41275 0.92472 0.0
C1961 C 0.20493 0.43004 1.01143 0.0
C1962 C 0.20499 0.40166 1.00104 0.0
C1963 C 0.20477 0.36441 0.94659 0.0
C1964 C 0.20607 0.35548 0.90297 0.0
C1965 C 0.20683 0.39277 0.95771 0.0
C1966 C 0.21032 0.37544 0.87077 0.0
C1967 C 0.21202 0.40375 0.88146 0.0
H1968 H 0.55263 0.34944 0.91225 0.0
H1969 H 0.5598 0.37276 1.04608 0.0
H1970 H 0.55864 0.42188 1.02519 0.0
H1971 H 0.56048 0.45818 0.96784 0.0
H1972 H 0.55263 0.43514 0.83398 0.0
H1973 H 0.54897 0.38623 0.85558 0.0
C1974 C 0.55305 0.3653 0.93702 0.0
C1975 C 0.55571 0.3572 0.98103 0.0
C1976 C 0.55264 0.39366 0.92449 0.0
C1977 C 0.55704 0.37815 1.01237 0.0
C1978 C 0.55671 0.40633 1.00022 0.0
C1979 C 0.55734 0.44251 0.94343 0.0
C1980 C 0.55663 0.45052 0.89917 0.0
C1981 C 0.55518 0.41435 0.95629 0.0
C1982 C 0.55287 0.42982 0.8681 0.0
C1983 C 0.55097 0.40175 0.88056 0.0
H1984 H 0.24414 0.9608 0.97535 0.0
H1985 H 0.23365 0.97047 0.11251 0.0
H1986 H 0.19219 0.96531 0.10264 0.0
H1987 H 0.15983 0.97359 1.05305 0.0
H1988 H 0.17113 0.97156 0.91507 0.0
H1989 H 0.21085 0.95729 0.9268 0.0
C1990 C 0.23274 0.96076 1.00312 0.0
C1991 C 0.24165 0.96726 1.04416 0.0
C1992 C 0.2089 0.95983 0.99674 0.0
C1993 C 0.22709 0.96609 0.08039 0.0
C1994 C 0.20332 0.96351 0.07467 0.0
C1995 C 0.17089 0.96941 1.02561 0.0
C1996 C 0.16296 0.97498 0.98343 0.0
C1997 C 0.19408 0.96291 1.03265 0.0
C1998 C 0.17696 0.96811 0.94797 0.0
C1999 C 0.19978 0.96014 0.95466 0.0
H2000 H 0.09569 0.35462 0.98037 0.0
H2001 H 0.12423 0.29308 0.06561 0.0
H2002 H 0.09148 0.29802 0.11465 0.0
H2003 H 0.04958 0.30627 0.11528 0.0
H2004 H 0.01943 0.36187 1.02219 0.0
H2005 H 0.05761 0.37406 0.99483 0.0
C2006 C 0.09527 0.34374 1.01119 0.0
C2007 C 0.11167 0.32307 1.01924 0.0
C2008 C 0.07556 0.3452 1.03697 0.0
C2009 C 0.11149 0.30894 1.05897 0.0
C2010 C 0.09255 0.31142 0.08646 0.0
C2011 C 0.05171 0.3223 0.09089 0.0
C2012 C 0.03213 0.33298 0.07008 0.0
C2013 C 0.07356 0.32744 0.07338 0.0
C2014 C 0.03454 0.3535 1.03824 0.0
C2015 C 0.05631 0.36012 1.02232 0.0
H2016 H 0.25079 0.26554 0.37685 0.0
H2017 H 0.25864 0.35277 0.35369 0.0
H2018 H 0.22686 0.36269 0.40347 0.0
H2019 H 0.19139 0.34527 0.43558 0.0
H2020 H 0.1812 0.2573 0.45218 0.0
H2021 H 0.21935 0.24847 0.42228 0.0
C2022 C 0.24605 0.28667 0.38463 0.0
C2023 C 0.25637 0.30848 0.36197 0.0
C2024 C 0.22692 0.29179 0.4104 0.0
C2025 C 0.25061 0.33591 0.3713 0.0
C2026 C 0.23229 0.34142 0.39902 0.0
C2027 C 0.19775 0.32422 0.43396 0.0
C2028 C 0.18328 0.30191 0.44461 0.0
C2029 C 0.21935 0.31937 0.41602 0.0
C2030 C 0.19175 0.27472 0.44247 0.0
C2031 C 0.2136 0.2697 0.42586 0.0
H2032 H 0.04971 0.95549 0.2797 0.0
H2033 H 1.00183 0.96746 0.38409 0.0
H2034 H 0.03291 0.96183 0.43685 0.0
H2035 H 0.07383 0.97164 0.44944 0.0
H2036 H 0.1215 0.96954 0.34299 0.0
H2037 H 0.09108 0.95245 0.29507 0.0
C2038 C 0.04607 0.95566 0.31415 0.0
C2039 C 0.02395 0.96328 0.32822 0.0
C2040 C 0.06433 0.95506 0.34377 0.0
C2041 C 0.0189 0.96232 0.3726 0.0
C2042 C 0.03677 0.95955 0.40272 0.0
C2043 C 0.07761 0.96648 0.41605 0.0
C2044 C 0.09937 0.97301 0.39894 0.0
C2045 C 0.05968 0.9588 0.38827 0.0
C2046 C 0.10465 0.96523 0.35641 0.0
C2047 C 0.08719 0.95575 0.32898 0.0
H2048 H 0.82365 0.09062 0.20642 0.0
H2049 H 0.86942 0.0839 0.09753 0.0
H2050 H 0.83808 0.09653 1.04828 0.0
H2051 H 0.79651 0.09148 1.03636 0.0
H2052 H 0.75043 0.08868 0.145 0.0
H2053 H 0.7824 0.09893 0.1943 0.0
C2054 C 0.82683 0.09299 0.172 0.0
C2055 C 0.84833 0.0851 0.15515 0.0
C2056 C 0.80834 0.09804 0.1439 0.0
C2057 C 0.85281 0.08928 0.11099 0.0
C2058 C 0.8348 0.09617 0.08283 0.0
C2059 C 0.79346 0.09454 0.07066 0.0
C2060 C 0.7716 0.08833 0.08759 0.0
C2061 C 0.8122 0.0979 0.09873 0.0
C2062 C 0.7673 0.09295 0.13161 0.0
C2063 C 0.78567 0.09832 0.15976 0.0
H2064 H 0.98025 0.70294 0.06299 0.0
H2065 H 0.98019 0.78565 1.00939 0.0
H2066 H 0.93954 0.79044 1.02593 0.0
H2067 H 0.90856 0.77678 0.07508 0.0
H2068 H 0.9107 0.69757 0.13842 0.0
H2069 H 0.94542 0.68509 0.09805 0.0
C2070 C 0.97123 0.72182 1.05436 0.0
C2071 C 0.98346 0.74431 1.03681 0.0
C2072 C 0.94812 0.72499 0.06598 0.0
C2073 C 0.97136 0.76817 1.02374 0.0
C2074 C 0.94806 0.77101 1.03338 0.0
C2075 C 0.91602 0.75624 0.07779 0.0
C2076 C 0.90763 0.73812 0.10944 0.0
C2077 C 0.93682 0.75036 1.05722 0.0
C2078 C 0.91712 0.71161 0.11382 0.0
C2079 C 0.93716 0.70479 0.09141 0.0
H2080 H 0.83654 0.69943 0.73026 0.0
H2081 H 0.82792 0.77897 0.66828 0.0
H2082 H 0.78675 0.77765 0.68285 0.0
H2083 H 0.75727 0.76137 0.73337 0.0
H2084 H 0.76821 0.68666 0.80621 0.0
H2085 H 0.80372 0.67754 0.76629 0.0
C2086 C 0.82553 0.7162 0.71932 0.0
C2087 C 0.83531 0.7398 0.70009 0.0
C2088 C 0.80215 0.71598 0.72991 0.0
C2089 C 0.82085 0.76083 0.68404 0.0
C2090 C 0.79728 0.76014 0.69251 0.0
C2091 C 0.76682 0.74229 0.73822 0.0
C2092 C 0.76074 0.72488 0.77264 0.0
C2093 C 0.78819 0.73886 0.71825 0.0
C2094 C 0.7729 0.70022 0.77963 0.0
C2095 C 0.7934 0.69541 0.75749 0.0
H2096 H 0.91137 0.0835 0.79333 0.0
H2097 H 0.92357 0.07975 0.65587 0.0
H2098 H 0.96361 0.09323 0.66704 0.0
H2099 H 0.99648 0.09002 0.71688 0.0
H2100 H 0.98464 0.08613 0.85448 0.0
H2101 H 0.9435 0.09278 0.84283 0.0
C2102 C 0.92271 0.08643 0.76584 0.0
C2103 C 0.915 0.07935 0.72419 0.0
C2104 C 0.94599 0.09238 0.77281 0.0
C2105 C 0.92931 0.08444 0.68841 0.0
C2106 C 0.95229 0.0919 0.69484 0.0
C2107 C 0.98489 0.09161 0.74425 0.0
C2108 C 0.99326 0.08626 0.78616 0.0
C2109 C 0.96114 0.09344 0.73707 0.0
C2110 C 0.97849 0.08954 0.82175 0.0
C2111 C 0.95489 0.09301 0.81506 0.0
H2112 H 0.23245 0.44172 0.55832 0.0
H2113 H 0.26507 0.49673 0.46783 0.0
H2114 H 0.23147 0.4944 0.41996 0.0
H2115 H 0.18905 0.4917 0.42104 0.0
H2116 H 0.15538 0.44381 0.51989 0.0
H2117 H 0.1926 0.42734 0.5469 0.0
C2118 C 0.23256 0.4517 0.52675 0.0
C2119 C 0.25047 0.47009 0.51693 0.0
C2120 C 0.21244 0.45215 0.50179 0.0
C2121 C 0.25111 0.48279 0.47603 0.0
C2122 C 0.2317 0.48186 0.44917 0.0
C2123 C 0.19005 0.47646 0.44689 0.0
C2124 C 0.16996 0.46925 0.4693 0.0
C2125 C 0.21154 0.46894 0.46408 0.0
C2126 C 0.17093 0.44967 0.50286 0.0
C2127 C 0.19217 0.44052 0.51839 0.0
H2128 H 0.10443 0.83017 0.5494 0.0
H2129 H 0.09007 0.83108 0.41234 0.0
H2130 H 0.05011 0.8436 0.42638 0.0
H2131 H 0.01808 0.83841 0.47729 0.0
H2132 H 0.03198 0.82993 0.61378 0.0
H2133 H 0.073 0.83729 0.60103 0.0
C2134 C 0.09263 0.83392 0.52269 0.0
C2135 C 0.09974 0.82847 0.48013 0.0
C2136 C 0.06943 0.83934 0.53117 0.0
C2137 C 0.08481 0.83456 0.44548 0.0
C2138 C 0.06188 0.84146 0.45353 0.0
C2139 C 0.03009 0.83928 0.50425 0.0
C2140 C 0.02239 0.83248 0.54601 0.0
C2141 C 0.05371 0.8415 0.49622 0.0
C2142 C 0.03767 0.83459 0.5812 0.0
C2143 C 0.06118 0.83841 0.57381 0.0
H2144 H 0.24601 0.85391 0.83879 0.0
H2145 H 0.26668 0.78958 0.92683 0.0
H2146 H 0.23233 0.79732 0.97077 0.0
H2147 H 0.19124 0.80925 0.96516 0.0
H2148 H 0.16869 0.86751 0.86837 0.0
H2149 H 0.20859 0.87651 0.84751 0.0
C2150 C 0.2436 0.84306 0.86929 0.0
C2151 C 0.25826 0.82093 0.87943 0.0
C2152 C 0.22285 0.84605 0.8918 0.0
C2153 C 0.25535 0.80665 0.91864 0.0
C2154 C 0.23547 0.81072 0.94315 0.0
C2155 C 0.19532 0.82506 0.94133 0.0
C2156 C 0.17739 0.83727 0.91746 0.0
C2157 C 0.21814 0.82839 0.92743 0.0
C2158 C 0.18248 0.85771 0.88653 0.0
C2159 C 0.20524 0.86257 0.87437 0.0
H2160 H 0.11181 0.49877 0.81624 0.0
H2161 H 0.10216 0.45634 0.93723 0.0
H2162 H 0.06413 0.44042 0.91388 0.0
H2163 H 0.03016 0.45366 0.87043 0.0
H2164 H 0.03928 0.49871 0.75121 0.0
H2165 H 0.08105 0.49808 0.76118 0.0
C2166 C 0.1019 0.48448 0.83599 0.0
C2167 C 0.10916 0.47909 0.87845 0.0
C2168 C 0.07965 0.47683 0.82307 0.0
C2169 C 0.09656 0.46066 0.90438 0.0
C2170 C 0.07467 0.45208 0.89133 0.0
C2171 C 0.04149 0.46209 0.84581 0.0
C2172 C 0.03198 0.47693 0.81102 0.0
C2173 C 0.06535 0.46229 0.85249 0.0
C2174 C 0.04645 0.4875 0.77856 0.0
C2175 C 0.07029 0.48735 0.78447 0.0
H2176 H 0.78517 0.60656 0.59393 0.0
H2177 H 0.79161 0.55195 0.48494 0.0
H2178 H 0.83331 0.55016 0.49504 0.0
H2179 H 0.86353 0.55028 0.55114 0.0
H2180 H 0.85623 0.60183 0.66316 0.0
H2181 H 0.81976 0.61997 0.63524 0.0
C2182 C 0.79598 0.59555 0.57116 0.0
C2183 C 0.78559 0.57864 0.53988 0.0
C2184 C 0.81976 0.59378 0.57839 0.0
C2185 C 0.79941 0.56476 0.50971 0.0
C2186 C 0.82321 0.56349 0.51582 0.0
C2187 C 0.85461 0.56688 0.56768 0.0
C2188 C 0.86188 0.57435 0.60931 0.0
C2189 C 0.83313 0.57586 0.55243 0.0
C2190 C 0.8506 0.59583 0.63104 0.0
C2191 C 0.82956 0.60575 0.61544 0.0
H2192 H 0.96843 0.19793 0.52631 0.0
H2193 H 0.01592 0.21212 0.6313 0.0
H2194 H 0.98503 0.20541 0.68359 0.0
H2195 H 0.94408 0.2152 0.69505 0.0
H2196 H 0.8966 0.21167 0.58791 0.0
H2197 H 0.9271 0.19393 0.54106 0.0
C2198 C 0.97207 0.1983 0.5608 0.0
C2199 C 0.99391 0.20712 0.57509 0.0
C2200 C 0.95378 0.19731 0.59014 0.0
C2201 C 0.99902 0.20623 0.61954 0.0
C2202 C 0.98122 0.20285 0.64943 0.0
C2203 C 0.94034 0.20934 0.66186 0.0
C2204 C 0.91867 0.21579 0.64404 0.0
C2205 C 0.95834 0.20148 0.63465 0.0
C2206 C 0.9134 0.20737 0.60177 0.0
C2207 C 0.93092 0.19757 0.57496 0.0
H2208 H 0.80194 0.2115 0.34991 0.0
H2209 H 0.75622 0.21461 0.24009 0.0
H2210 H 0.78823 0.20404 0.19165 0.0
H2211 H 0.82939 0.21316 0.18066 0.0
H2212 H 0.87484 0.21978 0.29048 0.0
H2213 H 0.84353 0.20625 0.33896 0.0
C2214 C 0.79896 0.20846 0.31554 0.0
C2215 C 0.77724 0.215 0.298 0.0
C2216 C 0.81777 0.20492 0.28793 0.0
C2217 C 0.77301 0.21022 0.25394 0.0
C2218 C 0.79141 0.20463 0.22626 0.0
C2219 C 0.83254 0.2103 0.21506 0.0
C2220 C 0.85383 0.21857 0.23258 0.0
C2221 C 0.81402 0.20487 0.24266 0.0
C2222 C 0.85834 0.21404 0.27666 0.0
C2223 C 0.84033 0.20671 0.30435 0.0
H2224 H 0.9347 0.60562 0.21279 0.0
H2225 H 0.93852 0.52589 0.15049 0.0
H2226 H 0.97998 0.52516 0.16057 0.0
H2227 H 0.01118 0.53908 0.20907 0.0
H2228 H 1.00544 0.61387 0.28259 0.0
H2229 H 0.96956 0.62565 0.24508 0.0
C2230 C 0.94468 0.58834 0.20077 0.0
C2231 C 0.9334 0.56524 0.183 0.0
C2232 C 0.9684 0.5873 0.20888 0.0
C2233 C 0.94662 0.54367 0.16534 0.0
C2234 C 0.97042 0.54316 0.17122 0.0
C2235 C 1.00273 0.5588 0.21446 0.0
C2236 C 0.0102 0.57525 0.24894 0.0
C2237 C 0.98108 0.56372 0.19606 0.0
C2238 C 0.99962 0.60088 0.2562 0.0
C2239 C 0.97883 0.60719 0.23552 0.0
H2240 H 0.72389 0.98302 0.60612 0.0
H2241 H 0.75242 0.93878 0.49846 0.0
H2242 H 0.71377 0.92771 0.47204 0.0
H2243 H 0.67516 0.94732 0.46502 0.0
H2244 H 0.64824 0.9995 0.56492 0.0
H2245 H 0.68199 0.9901 0.61039 0.0
C2246 C 0.7214 0.96957 0.57842 0.0
C2247 C 0.74054 0.96213 0.55347 0.0
C2248 C 0.6992 0.9655 0.56164 0.0
C2249 C 0.73764 0.94484 0.51755 0.0
C2250 C 0.71558 0.93885 0.50229 0.0
C2251 C 0.6762 0.95505 0.49793 0.0
C2252 C 0.66 0.97462 0.5115 0.0
C2253 C 0.69651 0.95149 0.52172 0.0
C2254 C 0.66089 0.98461 0.55401 0.0
C2255 C 0.68039 0.97963 0.57953 0.0
H2256 H 0.54476 0.30854 0.60077 0.0
H2257 H 0.51584 0.35751 0.49762 0.0
H2258 H 0.5544 0.36819 0.47055 0.0
H2259 H 0.59321 0.34937 0.4623 0.0
H2260 H 0.62083 0.29396 0.55831 0.0
H2261 H 0.58672 0.30059 0.60358 0.0
C2262 C 0.5472 0.32279 0.57392 0.0
C2263 C 0.52789 0.33207 0.55064 0.0
C2264 C 0.5693 0.32701 0.55691 0.0
C2265 C 0.53073 0.35023 0.51559 0.0
C2266 C 0.55271 0.35602 0.49996 0.0
C2267 C 0.59218 0.3402 0.49439 0.0
C2268 C 0.60891 0.32085 0.50694 0.0
C2269 C 0.57182 0.3425 0.51817 0.0
C2270 C 0.6079 0.30886 0.54829 0.0
C2271 C 0.58821 0.31228 0.57366 0.0
H2272 H 0.72361 0.2749 0.78816 0.0
H2273 H 0.74706 0.35613 0.82343 0.0
H2274 H 0.70755 0.36974 0.84186 0.0
H2275 H 0.67 0.35339 0.8673 0.0
H2276 H 0.64923 0.26908 0.84254 0.0
H2277 H 0.68316 0.26208 0.79814 0.0
C2278 C 0.71965 0.29588 0.79814 0.0
C2279 C 0.7377 0.31446 0.80555 0.0
C2280 C 0.69738 0.30272 0.81096 0.0
C2281 C 0.73306 0.34168 0.81806 0.0
C2282 C 0.71061 0.34926 0.82887 0.0
C2283 C 0.67271 0.33368 0.85145 0.0
C2284 C 0.65788 0.31134 0.86017 0.0
C2285 C 0.69309 0.32919 0.82864 0.0
C2286 C 0.66072 0.28642 0.83743 0.0
C2287 C 0.68027 0.28229 0.8123 0.0
H2288 H 0.53387 0.94641 0.82314 0.0
H2289 H 0.49866 1.00407 0.90508 0.0
H2290 H 0.53149 1.00483 0.95495 0.0
H2291 H 0.57398 1.00297 0.95712 0.0
H2292 H 0.61016 0.95123 0.86728 0.0
H2293 H 0.57366 0.93333 0.83906 0.0
C2294 C 0.53302 0.9577 0.85342 0.0
C2295 C 0.51456 0.97583 0.86012 0.0
C2296 C 0.55264 0.95967 0.8796 0.0
C2297 C 0.51302 0.99026 0.89932 0.0
C2298 C 0.53199 0.99108 0.9273 0.0
C2299 C 0.57363 0.98664 0.93311 0.0
C2300 C 0.59427 0.97854 0.91353 0.0
C2301 C 0.55259 0.97804 0.91525 0.0
C2302 C 0.59417 0.95763 0.88225 0.0
C2303 C 0.57336 0.94768 0.86597 0.0
H2304 H 0.29922 0.09251 0.52506 0.0
H2305 H 0.25292 0.09088 0.63351 0.0
H2306 H 0.28471 0.1019 0.68263 0.0
H2307 H 0.32577 0.09287 0.69522 0.0
H2308 H 0.37173 0.08464 0.58703 0.0
H2309 H 0.34075 0.09772 0.5372 0.0
C2310 C 0.29608 0.09591 0.55926 0.0
C2311 C 0.27425 0.08967 0.57629 0.0
C2312 C 0.31473 0.09973 0.58735 0.0
C2313 C 0.2698 0.095 0.62007 0.0
C2314 C 0.28806 0.10088 0.64815 0.0
C2315 C 0.3291 0.09522 0.66084 0.0
C2316 C 0.35042 0.08659 0.64425 0.0
C2317 C 0.31075 0.10035 0.63248 0.0
C2318 C 0.35519 0.09059 0.60018 0.0
C2319 C 0.33737 0.09768 0.57171 0.0
H2320 H 0.41128 0.72583 0.56864 0.0
H2321 H 0.42459 0.71941 0.70576 0.0
H2322 H 0.46402 0.70487 0.69157 0.0
H2323 H 0.49659 0.71054 0.64201 0.0
H2324 H 0.48405 0.72426 0.50611 0.0
H2325 H 0.44272 0.71844 0.51717 0.0
C2326 C 0.4227 0.72046 0.59527 0.0
C2327 C 0.41557 0.72502 0.63806 0.0
C2328 C 0.44569 0.71386 0.58685 0.0
C2329 C 0.42993 0.71674 0.67248 0.0
C2330 C 0.45256 0.70865 0.66437 0.0
C2331 C 0.48476 0.71104 0.61471 0.0
C2332 C 0.49297 0.71898 0.57384 0.0
C2333 C 0.46104 0.70964 0.62194 0.0
C2334 C 0.47794 0.7187 0.53809 0.0
C2335 C 0.45428 0.71576 0.54454 0.0
H2336 H 0.34004 0.70193 0.20912 0.0
H2337 H 0.36924 0.75297 0.30868 0.0
H2338 H 0.33454 0.74724 0.3527 0.0
H2339 H 0.29228 0.74238 0.34812 0.0
H2340 H 0.26205 0.69862 0.24113 0.0
H2341 H 0.30029 0.68582 0.21489 0.0
C2342 C 0.33917 0.71025 0.24168 0.0
C2343 C 0.35656 0.72832 0.25554 0.0
C2344 C 0.31847 0.7088 0.26458 0.0
C2345 C 0.35579 0.73913 0.29756 0.0
C2346 C 0.33576 0.73629 0.32221 0.0
C2347 C 0.29428 0.72879 0.32049 0.0
C2348 C 0.27479 0.72164 0.29599 0.0
C2349 C 0.31631 0.72341 0.30404 0.0
C2350 C 0.27709 0.70433 0.25997 0.0
C2351 C 0.2989 0.6973 0.24488 0.0
H2352 H 0.50772 0.04053 0.22825 0.0
H2353 H 0.49697 0.11644 0.29687 0.0
H2354 H 0.46008 0.1233 0.25984 0.0
H2355 H 0.4267 0.09921 0.22883 0.0
H2356 H 0.43574 1.01874 0.17116 0.0
H2357 H 0.47721 1.02189 0.18206 0.0
C2358 C 0.49786 0.0594 0.23263 0.0
C2359 C 0.50441 0.07764 0.26553 0.0
C2360 C 0.47576 0.06144 0.21477 0.0
C2361 C 0.49192 0.10213 0.27162 0.0
C2362 C 0.4706 0.1056 0.2513 0.0
C2363 C 0.43783 0.0826 0.2181 0.0
C2364 C 0.42816 0.05831 0.20098 0.0
C2365 C 0.46151 0.084 0.22629 0.0
C2366 C 0.44275 0.03744 0.18525 0.0
C2367 C 0.46649 0.03919 0.19154 0.0
H2368 H 0.65643 0.52427 1.04015 0.0
H2369 H 0.65847 0.44519 0.97741 0.0
H2370 H 0.6925 0.43202 1.01991 0.0
H2371 H 0.72703 0.44914 1.05696 0.0
H2372 H 0.72737 0.53184 0.10959 0.0
H2373 H 0.68697 0.53729 0.09098 0.0
C2374 C 0.66371 0.50363 1.03796 0.0
C2375 C 0.65549 0.4857 1.00601 0.0
C2376 C 0.68416 0.49734 1.05981 0.0
C2377 C 0.66477 0.45908 1.00225 0.0
C2378 C 0.6844 0.45185 1.02593 0.0
C2379 C 0.71816 0.46818 0.06492 0.0
C2380 C 0.73049 0.49048 0.0827 0.0
C2381 C 0.69525 0.47178 1.05193 0.0
C2382 C 0.71851 0.5145 0.095 0.0
C2383 C 0.69535 0.51774 0.08415 0.0
H2384 H 0.57302 0.8476 0.92833 0.0
H2385 H 0.61924 0.83735 1.03643 0.0
H2386 H 0.58839 0.84922 0.08654 0.0
H2387 H 0.54704 0.84219 0.09801 0.0
H2388 H 0.50058 0.84204 0.98924 0.0
H2389 H 0.53192 0.85577 0.94105 0.0
C2390 C 0.57643 0.84931 0.9628 0.0
C2391 C 0.59774 0.8402 0.97922 0.0
C2392 C 0.55811 0.85358 0.99125 0.0
C2393 C 0.60267 0.84353 1.02339 0.0
C2394 C 0.5849 0.84993 1.05202 0.0
C2395 C 0.54373 0.84659 0.06406 0.0
C2396 C 0.52211 0.83987 1.04642 0.0
C2397 C 0.56221 0.85189 1.03637 0.0
C2398 C 0.51736 0.84646 1.00304 0.0
C2399 C 0.53538 0.85389 0.97547 0.0
H2400 H 0.68652 0.84253 0.43692 0.0
H2401 H 0.64257 0.83092 0.32616 0.0
H2402 H 0.67418 0.84361 0.27782 0.0
H2403 H 0.71595 0.83838 0.26919 0.0
H2404 H 0.76033 0.84029 0.38093 0.0
H2405 H 0.72764 0.85235 0.42689 0.0
C2406 C 0.68372 0.84434 0.40225 0.0
C2407 C 0.66285 0.83477 0.3846 0.0
C2408 C 0.70249 0.84918 0.37499 0.0
C2409 C 0.65876 0.83773 0.34008 0.0
C2410 C 0.67697 0.84453 0.31253 0.0
C2411 C 0.71848 0.84291 0.30328 0.0
C2412 C 0.74002 0.83734 0.32235 0.0
C2413 C 0.69931 0.84733 0.32967 0.0
C2414 C 0.74368 0.84394 0.36599 0.0
C2415 C 0.7249 0.85039 0.39228 0.0
H2416 H 0.53122 0.44246 0.35015 0.0
H2417 H 0.54556 0.49842 0.24516 0.0
H2418 H 0.58682 0.49613 0.2612 0.0
H2419 H 0.61444 0.49233 0.32171 0.0
H2420 H 0.59859 0.4404 0.43075 0.0
H2421 H 0.56283 0.42544 0.39612 0.0
C2422 C 0.54365 0.45272 0.32939 0.0
C2423 C 0.53572 0.47114 0.29755 0.0
C2424 C 0.56707 0.45229 0.34031 0.0
C2425 C 0.55156 0.48435 0.27017 0.0
C2426 C 0.57508 0.48331 0.27977 0.0
C2427 C 0.60383 0.4763 0.3362 0.0
C2428 C 0.6085 0.46787 0.37878 0.0
C2429 C 0.58262 0.46944 0.31723 0.0
C2430 C 0.59495 0.44717 0.39794 0.0
C2431 C 0.57433 0.43907 0.37846 0.0
H2432 H 0.33095 0.59283 0.19985 0.0
H2433 H 0.37495 0.5829 0.08924 0.0
H2434 H 0.34327 0.59594 1.04094 0.0
H2435 H 0.30152 0.59062 1.03159 0.0
H2436 H 0.25713 0.59097 0.1427 0.0
H2437 H 0.2898 0.60251 0.18954 0.0
C2438 C 0.33373 0.59495 0.16526 0.0
C2439 C 0.35465 0.58577 0.14759 0.0
C2440 C 0.31495 0.60008 0.13789 0.0
C2441 C 0.35872 0.58932 0.1032 0.0
C2442 C 0.34048 0.59637 0.07563 0.0
C2443 C 0.29899 0.59475 0.06577 0.0
C2444 C 0.27746 0.58888 0.08435 0.0
C2445 C 0.31815 0.59886 0.09256 0.0
C2446 C 0.27378 0.59489 0.12814 0.0
C2447 C 0.29255 0.60102 0.15491 0.0
H2448 H 0.44715 0.21068 0.20138 0.0
H2449 H 0.40051 0.20989 0.09272 0.0
H2450 H 0.43132 0.19349 1.04569 0.0
H2451 H 0.47255 0.1997 1.03221 0.0
H2452 H 0.51916 0.21166 0.13901 0.0
H2453 H 0.48826 0.20173 0.19022 0.0
C2454 C 0.44366 0.20572 0.16774 0.0
C2455 C 0.4222 0.21283 0.14966 0.0
C2456 C 0.4619 0.19875 0.14047 0.0
C2457 C 0.4172 0.20528 0.10684 0.0
C2458 C 0.43491 0.19621 0.0799 0.0
C2459 C 0.47604 0.19859 0.06674 0.0
C2460 C 0.49745 0.2079 0.08228 0.0
C2461 C 0.45766 0.1959 0.09557 0.0
C2462 C 0.50249 0.20537 0.12657 0.0
C2463 C 0.48468 0.2002 0.15582 0.0
H2464 H 0.34662 0.20523 0.72944 0.0
H2465 H 0.3726 0.26574 0.81851 0.0
H2466 H 0.33888 0.25936 0.86491 0.0
H2467 H 0.29717 0.24964 0.86322 0.0
H2468 H 0.2696 0.19519 0.76633 0.0
H2469 H 0.30843 0.18497 0.74035 0.0
C2470 C 0.34543 0.21554 0.76052 0.0
C2471 C 0.36152 0.2362 0.77052 0.0
C2472 C 0.32517 0.21333 0.78472 0.0
C2473 C 0.3602 0.24977 0.81047 0.0
C2474 C 0.34069 0.2465 0.83642 0.0
C2475 C 0.3 0.23433 0.83818 0.0
C2476 C 0.28093 0.2233 0.81618 0.0
C2477 C 0.32221 0.23029 0.82158 0.0
C2478 C 0.28429 0.20378 0.78338 0.0
C2479 C 0.30643 0.19827 0.76829 0.0
H2480 H 0.46429 0.59606 0.84177 0.0
H2481 H 0.51182 0.59215 0.73542 0.0
H2482 H 0.48082 0.60327 0.68453 0.0
H2483 H 0.43985 0.59452 0.67058 0.0
H2484 H 0.39258 0.58804 0.7772 0.0
H2485 H 0.42299 0.6017 0.82763 0.0
C2486 C 0.46789 0.59898 0.80759 0.0
C2487 C 0.48978 0.59199 0.79174 0.0
C2488 C 0.44962 0.60274 0.77855 0.0
C2489 C 0.49486 0.59679 0.74798 0.0
C2490 C 0.47703 0.60272 0.71889 0.0
C2491 C 0.43612 0.59732 0.7047 0.0
C2492 C 0.41458 0.58894 0.72081 0.0
C2493 C 0.45415 0.60271 0.73358 0.0
C2494 C 0.4093 0.59368 0.76444 0.0
C2495 C 0.4268 0.60113 0.79329 0.0
loop_
_geom_bond_atom_site_label_1
_geom_bond_atom_site_label_2
_geom_bond_distance
_geom_bond_site_symmetry_2
_ccdc_geom_bond_type
Co0 N5 2.055 1_545 S
Co0 O17 2.021 . S
Co0 O20 2.062 . S
Co0 O24 2.117 1_545 S
Co0 O25 2.020 . S
C1 O21 1.259 . S
C1 O24 1.258 . S
Co2 N11 2.057 1_565 S
Co2 O18 2.117 1_565 S
Co2 O19 2.020 . S
Co2 O21 2.021 . S
Co2 O26 2.062 1_565 S
C3 N5 1.309 1_545 S
C3 N6 1.347 . S
C3 H8 0.931 . S
C4 N5 1.384 . S
C4 C7 1.350 . S
C4 H9 0.930 . S
N5 Co0 2.055 1_565 S
N5 C3 1.309 1_565 S
N5 C4 1.384 . S
N6 C3 1.347 . S
N6 C7 1.373 1_545 S
C7 C4 1.350 . S
C7 N6 1.373 1_565 S
C7 H28 0.931 . S
H8 C3 0.931 . S
H9 C4 0.930 . S
C10 O17 1.259 . S
C10 O18 1.258 . S
N11 Co2 2.057 1_545 S
N11 C12 1.316 1_545 S
N11 C13 1.375 . S
C12 N11 1.316 1_565 S
C12 N14 1.347 1_554 S
C12 H23 0.931 . S
C13 N11 1.375 . S
C13 C15 1.352 . S
C13 H22 0.930 . S
N14 C12 1.347 1_556 S
N14 C15 1.372 1_566 S
C15 C13 1.352 . S
C15 N14 1.372 1_544 S
C15 H29 0.930 1_554 S
C16 O19 1.256 . S
C16 O20 1.255 1_565 S
O17 Co0 2.021 . S
O17 C10 1.259 . S
O18 Co2 2.117 1_545 S
O18 C10 1.258 . S
O19 Co2 2.020 . S
O19 C16 1.256 . S
O20 Co0 2.062 . S
O20 C16 1.255 1_545 S
O21 C1 1.259 . S
O21 Co2 2.021 . S
H22 C13 0.930 . S
H23 C12 0.931 . S
O24 Co0 2.117 1_565 S
O24 C1 1.258 . S
O25 Co0 2.020 . S
O25 C27 1.256 . S
O26 Co2 2.062 1_545 S
O26 C27 1.255 . S
C27 O25 1.256 . S
C27 O26 1.255 . S
H28 C7 0.931 . S
H29 C15 0.930 1_556 S
Co30 N35 2.057 . S
Co30 O47 2.021 . S
Co30 O50 2.062 . S
Co30 O54 2.117 . S
Co30 O55 2.020 . S
C31 O51 1.259 . S
C31 O54 1.258 . S
Co32 N41 2.057 . S
Co32 O48 2.117 . S
Co32 O49 2.020 . S
Co32 O51 2.021 . S
Co32 O56 2.062 . S
C33 N35 1.316 . S
C33 N36 1.347 . S
C33 H38 0.931 . S
C34 N35 1.375 . S
C34 C37 1.350 . S
C34 H39 0.930 . S
N35 Co30 2.057 . S
N35 C33 1.316 . S
N35 C34 1.375 . S
N36 C33 1.347 . S
N36 C37 1.373 . S
C37 C34 1.350 . S
C37 N36 1.373 . S
C37 H58 0.931 . S
H38 C33 0.931 . S
H39 C34 0.930 . S
C40 O47 1.259 . S
C40 O48 1.258 . S
N41 Co32 2.057 . S
N41 C42 1.316 . S
N41 C43 1.375 . S
C42 N41 1.316 . S
C42 N44 1.347 1_554 S
C42 H53 0.931 . S
C43 N41 1.375 . S
C43 C45 1.352 . S
C43 H52 0.930 . S
N44 C42 1.347 1_556 S
N44 C45 1.372 1_556 S
C45 C43 1.352 . S
C45 N44 1.372 1_554 S
C45 H59 0.930 1_654 S
C46 O49 1.256 . S
C46 O50 1.255 . S
O47 Co30 2.021 . S
O47 C40 1.259 . S
O48 Co32 2.117 . S
O48 C40 1.258 . S
O49 Co32 2.020 . S
O49 C46 1.256 . S
O50 Co30 2.062 . S
O50 C46 1.255 . S
O51 C31 1.259 . S
O51 Co32 2.021 . S
H52 C43 0.930 . S
H53 C42 0.931 . S
O54 Co30 2.117 . S
O54 C31 1.258 . S
O55 Co30 2.020 . S
O55 C57 1.256 . S
O56 Co32 2.062 . S
O56 C57 1.255 . S
C57 O55 1.256 . S
C57 O56 1.255 . S
H58 C37 0.931 . S
H59 C45 0.930 1_456 S
Co60 N65 2.057 . S
Co60 O77 2.021 . S
Co60 O80 2.062 . S
Co60 O84 2.117 . S
Co60 O85 2.020 . S
C61 O81 1.259 . S
C61 O84 1.258 . S
Co62 N71 2.057 . S
Co62 O78 2.117 . S
Co62 O79 2.020 . S
Co62 O81 2.021 . S
Co62 O86 2.062 . S
C63 N65 1.316 . S
C63 N66 1.347 . S
C63 H68 0.931 . S
C64 N65 1.375 . S
C64 C67 1.350 . S
C64 H69 0.930 . S
N65 Co60 2.057 . S
N65 C63 1.316 . S
N65 C64 1.375 . S
N66 C63 1.347 . S
N66 C67 1.373 . S
C67 C64 1.350 . S
C67 N66 1.373 . S
C67 H88 0.931 . S
H68 C63 0.931 . S
H69 C64 0.930 . S
C70 O77 1.259 . S
C70 O78 1.258 . S
N71 Co62 2.057 . S
N71 C72 1.316 . S
N71 C73 1.375 . S
C72 N71 1.316 . S
C72 N74 1.347 . S
C72 H83 0.931 . S
C73 N71 1.375 . S
C73 C75 1.350 . S
C73 H82 0.930 . S
N74 C72 1.347 . S
N74 C75 1.373 . S
C75 C73 1.350 . S
C75 N74 1.373 . S
C75 H89 0.931 . S
C76 O79 1.256 . S
C76 O80 1.255 . S
O77 Co60 2.021 . S
O77 C70 1.259 . S
O78 Co62 2.117 . S
O78 C70 1.258 . S
O79 Co62 2.020 . S
O79 C76 1.256 . S
O80 Co60 2.062 . S
O80 C76 1.255 . S
O81 C61 1.259 . S
O81 Co62 2.021 . S
H82 C73 0.930 . S
H83 C72 0.931 . S
O84 Co60 2.117 . S
O84 C61 1.258 . S
O85 Co60 2.020 . S
O85 C87 1.256 . S
O86 Co62 2.062 . S
O86 C87 1.255 . S
C87 O85 1.256 . S
C87 O86 1.255 . S
H88 C67 0.931 . S
H89 C75 0.931 . S
Co90 N95 2.055 1_545 S
Co90 O107 2.021 . S
Co90 O110 2.062 . S
Co90 O114 2.117 1_545 S
Co90 O115 2.020 . S
C91 O111 1.259 . S
C91 O114 1.258 . S
Co92 N101 2.057 1_565 S
Co92 O108 2.117 1_565 S
Co92 O109 2.020 . S
Co92 O111 2.021 . S
Co92 O116 2.062 1_565 S
C93 N95 1.310 1_545 S
C93 N96 1.347 . S
C93 H98 0.931 . S
C94 N95 1.384 . S
C94 C97 1.350 . S
C94 H99 0.930 . S
N95 Co90 2.055 1_565 S
N95 C93 1.310 1_565 S
N95 C94 1.384 . S
N96 C93 1.347 . S
N96 C97 1.373 1_545 S
C97 C94 1.350 . S
C97 N96 1.373 1_565 S
C97 H118 0.931 . S
H98 C93 0.931 . S
H99 C94 0.930 . S
C100 O107 1.259 . S
C100 O108 1.258 . S
N101 Co92 2.057 1_545 S
N101 C102 1.316 1_545 S
N101 C103 1.375 . S
C102 N101 1.316 1_565 S
C102 N104 1.347 . S
C102 H113 0.931 . S
C103 N101 1.375 . S
C103 C105 1.350 . S
C103 H112 0.930 . S
N104 C102 1.347 . S
N104 C105 1.373 1_565 S
C105 C103 1.350 . S
C105 N104 1.373 1_545 S
C105 H119 0.931 1_655 S
C106 O109 1.256 . S
C106 O110 1.255 1_565 S
O107 Co90 2.021 . S
O107 C100 1.259 . S
O108 Co92 2.117 1_545 S
O108 C100 1.258 . S
O109 Co92 2.020 . S
O109 C106 1.256 . S
O110 Co90 2.062 . S
O110 C106 1.255 1_545 S
O111 C91 1.259 . S
O111 Co92 2.021 . S
H112 C103 0.930 . S
H113 C102 0.931 . S
O114 Co90 2.117 1_565 S
O114 C91 1.258 . S
O115 Co90 2.020 . S
O115 C117 1.256 . S
O116 Co92 2.062 1_545 S
O116 C117 1.255 . S
C117 O115 1.256 . S
C117 O116 1.255 . S
H118 C97 0.931 . S
H119 C105 0.931 1_455 S
Co120 N125 2.057 1_545 S
Co120 O137 2.021 . S
Co120 O140 2.062 1_545 S
Co120 O144 2.117 1_545 S
Co120 O145 2.020 . S
C121 O141 1.259 . S
C121 O144 1.258 . S
Co122 N131 2.055 1_565 S
Co122 O138 2.117 1_565 S
Co122 O139 2.020 . S
Co122 O141 2.021 . S
Co122 O146 2.062 . S
C123 N125 1.316 1_545 S
C123 N126 1.347 1_556 S
C123 H128 0.931 . S
C124 N125 1.375 . S
C124 C127 1.352 . S
C124 H129 0.930 . S
N125 Co120 2.057 1_565 S
N125 C123 1.316 1_565 S
N125 C124 1.375 . S
N126 C123 1.347 1_554 S
N126 C127 1.372 1_544 S
C127 C124 1.352 . S
C127 N126 1.372 1_566 S
C127 H148 0.930 1_556 S
H128 C123 0.931 . S
H129 C124 0.930 . S
C130 O137 1.259 . S
C130 O138 1.258 . S
N131 Co122 2.055 1_545 S
N131 C132 1.309 1_545 S
N131 C133 1.384 . S
C132 N131 1.309 1_565 S
C132 N134 1.347 . S
C132 H143 0.931 . S
C133 N131 1.384 . S
C133 C135 1.350 . S
C133 H142 0.930 . S
N134 C132 1.347 . S
N134 C135 1.373 1_565 S
C135 C133 1.350 . S
C135 N134 1.373 1_545 S
C135 H149 0.931 . S
C136 O139 1.256 . S
C136 O140 1.255 . S
O137 Co120 2.021 . S
O137 C130 1.259 . S
O138 Co122 2.117 1_545 S
O138 C130 1.258 . S
O139 Co122 2.020 . S
O139 C136 1.256 . S
O140 Co120 2.062 1_565 S
O140 C136 1.255 . S
O141 C121 1.259 . S
O141 Co122 2.021 . S
H142 C133 0.930 . S
H143 C132 0.931 . S
O144 Co120 2.117 1_565 S
O144 C121 1.258 . S
O145 Co120 2.020 . S
O145 C147 1.256 . S
O146 Co122 2.062 . S
O146 C147 1.255 1_565 S
C147 O145 1.256 . S
C147 O146 1.255 1_545 S
H148 C127 0.930 1_554 S
H149 C135 0.931 . S
Co150 N155 2.057 . S
Co150 O167 2.021 . S
Co150 O170 2.062 . S
Co150 O174 2.117 . S
Co150 O175 2.020 . S
C151 O171 1.259 . S
C151 O174 1.258 . S
Co152 N161 2.057 . S
Co152 O168 2.117 . S
Co152 O169 2.020 . S
Co152 O171 2.021 . S
Co152 O176 2.062 . S
C153 N155 1.316 . S
C153 N156 1.347 1_556 S
C153 H158 0.931 . S
C154 N155 1.375 . S
C154 C157 1.352 . S
C154 H159 0.930 . S
N155 Co150 2.057 . S
N155 C153 1.316 . S
N155 C154 1.375 . S
N156 C153 1.347 1_554 S
N156 C157 1.372 1_554 S
C157 C154 1.352 . S
C157 N156 1.372 1_556 S
C157 H178 0.930 1_456 S
H158 C153 0.931 . S
H159 C154 0.930 . S
C160 O167 1.259 . S
C160 O168 1.258 . S
N161 Co152 2.057 . S
N161 C162 1.316 . S
N161 C163 1.375 . S
C162 N161 1.316 . S
C162 N164 1.347 . S
C162 H173 0.931 . S
C163 N161 1.375 . S
C163 C165 1.350 . S
C163 H172 0.930 . S
N164 C162 1.347 . S
N164 C165 1.373 . S
C165 C163 1.350 . S
C165 N164 1.373 . S
C165 H179 0.931 . S
C166 O169 1.256 . S
C166 O170 1.255 . S
O167 Co150 2.021 . S
O167 C160 1.259 . S
O168 Co152 2.117 . S
O168 C160 1.258 . S
O169 Co152 2.020 . S
O169 C166 1.256 . S
O170 Co150 2.062 . S
O170 C166 1.255 . S
O171 C151 1.259 . S
O171 Co152 2.021 . S
H172 C163 0.930 . S
H173 C162 0.931 . S
O174 Co150 2.117 . S
O174 C151 1.258 . S
O175 Co150 2.020 . S
O175 C177 1.256 . S
O176 Co152 2.062 . S
O176 C177 1.255 . S
C177 O175 1.256 . S
C177 O176 1.255 . S
H178 C157 0.930 1_654 S
H179 C165 0.931 . S
Co180 N185 2.057 . S
Co180 O197 2.021 . S
Co180 O200 2.062 . S
Co180 O204 2.117 . S
Co180 O205 2.020 . S
C181 O201 1.259 . S
C181 O204 1.258 . S
Co182 N191 2.057 . S
Co182 O198 2.117 . S
Co182 O199 2.020 . S
Co182 O201 2.021 . S
Co182 O206 2.062 . S
C183 N185 1.316 . S
C183 N186 1.347 . S
C183 H188 0.931 . S
C184 N185 1.375 . S
C184 C187 1.350 . S
C184 H189 0.930 . S
N185 Co180 2.057 . S
N185 C183 1.316 . S
N185 C184 1.375 . S
N186 C183 1.347 . S
N186 C187 1.373 . S
C187 C184 1.350 . S
C187 N186 1.373 . S
C187 H208 0.931 . S
H188 C183 0.931 . S
H189 C184 0.930 . S
C190 O197 1.259 . S
C190 O198 1.258 . S
N191 Co182 2.057 . S
N191 C192 1.316 . S
N191 C193 1.375 . S
C192 N191 1.316 . S
C192 N194 1.347 . S
C192 H203 0.931 . S
C193 N191 1.375 . S
C193 C195 1.350 . S
C193 H202 0.930 . S
N194 C192 1.347 . S
N194 C195 1.373 . S
C195 C193 1.350 . S
C195 N194 1.373 . S
C195 H209 0.931 . S
C196 O199 1.256 . S
C196 O200 1.255 . S
O197 Co180 2.021 . S
O197 C190 1.259 . S
O198 Co182 2.117 . S
O198 C190 1.258 . S
O199 Co182 2.020 . S
O199 C196 1.256 . S
O200 Co180 2.062 . S
O200 C196 1.255 . S
O201 C181 1.259 . S
O201 Co182 2.021 . S
H202 C193 0.930 . S
H203 C192 0.931 . S
O204 Co180 2.117 . S
O204 C181 1.258 . S
O205 Co180 2.020 . S
O205 C207 1.256 . S
O206 Co182 2.062 . S
O206 C207 1.255 . S
C207 O205 1.256 . S
C207 O206 1.255 . S
H208 C187 0.931 . S
H209 C195 0.931 . S
Co210 N215 2.057 1_545 S
Co210 O227 2.021 . S
Co210 O230 2.062 1_545 S
Co210 O234 2.117 1_545 S
Co210 O235 2.020 . S
C211 O231 1.259 . S
C211 O234 1.258 . S
Co212 N221 2.055 1_565 S
Co212 O228 2.117 1_565 S
Co212 O229 2.020 . S
Co212 O231 2.021 . S
Co212 O236 2.062 . S
C213 N215 1.316 1_545 S
C213 N216 1.347 . S
C213 H218 0.931 . S
C214 N215 1.375 . S
C214 C217 1.350 . S
C214 H219 0.930 . S
N215 Co210 2.057 1_565 S
N215 C213 1.316 1_565 S
N215 C214 1.375 . S
N216 C213 1.347 . S
N216 C217 1.373 1_545 S
C217 C214 1.350 . S
C217 N216 1.373 1_565 S
C217 H238 0.931 1_455 S
H218 C213 0.931 . S
H219 C214 0.930 . S
C220 O227 1.259 . S
C220 O228 1.258 . S
N221 Co212 2.055 1_545 S
N221 C222 1.310 1_545 S
N221 C223 1.384 . S
C222 N221 1.310 1_565 S
C222 N224 1.347 . S
C222 H233 0.931 . S
C223 N221 1.384 . S
C223 C225 1.350 . S
C223 H232 0.930 . S
N224 C222 1.347 . S
N224 C225 1.373 1_565 S
C225 C223 1.350 . S
C225 N224 1.373 1_545 S
C225 H239 0.931 . S
C226 O229 1.256 . S
C226 O230 1.255 . S
O227 Co210 2.021 . S
O227 C220 1.259 . S
O228 Co212 2.117 1_545 S
O228 C220 1.258 . S
O229 Co212 2.020 . S
O229 C226 1.256 . S
O230 Co210 2.062 1_565 S
O230 C226 1.255 . S
O231 C211 1.259 . S
O231 Co212 2.021 . S
H232 C223 0.930 . S
H233 C222 0.931 . S
O234 Co210 2.117 1_565 S
O234 C211 1.258 . S
O235 Co210 2.020 . S
O235 C237 1.256 . S
O236 Co212 2.062 . S
O236 C237 1.255 1_565 S
C237 O235 1.256 . S
C237 O236 1.255 1_545 S
H238 C217 0.931 1_655 S
H239 C225 0.931 . S
Co240 N245 2.057 . S
Co240 O257 2.021 . S
Co240 O260 2.062 . S
Co240 O264 2.117 . S
Co240 O265 2.020 . S
C241 O261 1.259 . S
C241 O264 1.258 . S
Co242 N251 2.057 . S
Co242 O258 2.117 . S
Co242 O259 2.020 . S
Co242 O261 2.021 . S
Co242 O266 2.062 . S
C243 N245 1.316 . S
C243 N246 1.347 . S
C243 H248 0.931 . S
C244 N245 1.375 . S
C244 C247 1.350 . S
C244 H249 0.930 . S
N245 Co240 2.057 . S
N245 C243 1.316 . S
N245 C244 1.375 . S
N246 C243 1.347 . S
N246 C247 1.373 . S
C247 C244 1.350 . S
C247 N246 1.373 . S
C247 H268 0.931 . S
H248 C243 0.931 . S
H249 C244 0.930 . S
C250 O257 1.259 . S
C250 O258 1.258 . S
N251 Co242 2.057 . S
N251 C252 1.316 . S
N251 C253 1.375 . S
C252 N251 1.316 . S
C252 N254 1.347 . S
C252 H263 0.931 . S
C253 N251 1.375 . S
C253 C255 1.350 . S
C253 H262 0.930 . S
N254 C252 1.347 . S
N254 C255 1.373 . S
C255 C253 1.350 . S
C255 N254 1.373 . S
C255 H269 0.931 . S
C256 O259 1.256 . S
C256 O260 1.255 . S
O257 Co240 2.021 . S
O257 C250 1.259 . S
O258 Co242 2.117 . S
O258 C250 1.258 . S
O259 Co242 2.020 . S
O259 C256 1.256 . S
O260 Co240 2.062 . S
O260 C256 1.255 . S
O261 C241 1.259 . S
O261 Co242 2.021 . S
H262 C253 0.930 . S
H263 C252 0.931 . S
O264 Co240 2.117 . S
O264 C241 1.258 . S
O265 Co240 2.020 . S
O265 C267 1.256 . S
O266 Co242 2.062 . S
O266 C267 1.255 . S
C267 O265 1.256 . S
C267 O266 1.255 . S
H268 C247 0.931 . S
H269 C255 0.931 . S
Co270 N275 2.057 . S
Co270 O287 2.021 . S
Co270 O290 2.062 . S
Co270 O294 2.117 . S
Co270 O295 2.020 . S
C271 O291 1.259 . S
C271 O294 1.258 . S
Co272 N281 2.057 . S
Co272 O288 2.117 . S
Co272 O289 2.020 . S
Co272 O291 2.021 . S
Co272 O296 2.062 . S
C273 N275 1.316 . S
C273 N276 1.347 . S
C273 H278 0.931 . S
C274 N275 1.375 . S
C274 C277 1.350 . S
C274 H279 0.930 . S
N275 Co270 2.057 . S
N275 C273 1.316 . S
N275 C274 1.375 . S
N276 C273 1.347 . S
N276 C277 1.373 . S
C277 C274 1.350 . S
C277 N276 1.373 . S
C277 H298 0.931 . S
H278 C273 0.931 . S
H279 C274 0.930 . S
C280 O287 1.259 . S
C280 O288 1.258 . S
N281 Co272 2.057 . S
N281 C282 1.316 . S
N281 C283 1.375 . S
C282 N281 1.316 . S
C282 N284 1.347 . S
C282 H293 0.931 . S
C283 N281 1.375 . S
C283 C285 1.350 . S
C283 H292 0.930 . S
N284 C282 1.347 . S
N284 C285 1.373 . S
C285 C283 1.350 . S
C285 N284 1.373 . S
C285 H299 0.931 1_655 S
C286 O289 1.256 . S
C286 O290 1.255 . S
O287 Co270 2.021 . S
O287 C280 1.259 . S
O288 Co272 2.117 . S
O288 C280 1.258 . S
O289 Co272 2.020 . S
O289 C286 1.256 . S
O290 Co270 2.062 . S
O290 C286 1.255 . S
O291 C271 1.259 . S
O291 Co272 2.021 . S
H292 C283 0.930 . S
H293 C282 0.931 . S
O294 Co270 2.117 . S
O294 C271 1.258 . S
O295 Co270 2.020 . S
O295 C297 1.256 . S
O296 Co272 2.062 . S
O296 C297 1.255 . S
C297 O295 1.256 . S
C297 O296 1.255 . S
H298 C277 0.931 . S
H299 C285 0.931 1_455 S
Co300 N305 2.057 . S
Co300 O317 2.021 . S
Co300 O320 2.062 . S
Co300 O324 2.117 . S
Co300 O325 2.020 . S
C301 O321 1.259 . S
C301 O324 1.258 . S
Co302 N311 2.057 . S
Co302 O318 2.117 . S
Co302 O319 2.020 . S
Co302 O321 2.021 . S
Co302 O326 2.062 . S
C303 N305 1.316 . S
C303 N306 1.347 . S
C303 H308 0.931 . S
C304 N305 1.375 . S
C304 C307 1.350 . S
C304 H309 0.930 . S
N305 Co300 2.057 . S
N305 C303 1.316 . S
N305 C304 1.375 . S
N306 C303 1.347 . S
N306 C307 1.373 . S
C307 C304 1.350 . S
C307 N306 1.373 . S
C307 H328 0.931 . S
H308 C303 0.931 . S
H309 C304 0.930 . S
C310 O317 1.259 . S
C310 O318 1.258 . S
N311 Co302 2.057 . S
N311 C312 1.316 . S
N311 C313 1.375 . S
C312 N311 1.316 . S
C312 N314 1.347 . S
C312 H323 0.931 . S
C313 N311 1.375 . S
C313 C315 1.350 . S
C313 H322 0.930 . S
N314 C312 1.347 . S
N314 C315 1.373 . S
C315 C313 1.350 . S
C315 N314 1.373 . S
C315 H329 0.931 . S
C316 O319 1.256 . S
C316 O320 1.255 . S
O317 Co300 2.021 . S
O317 C310 1.259 . S
O318 Co302 2.117 . S
O318 C310 1.258 . S
O319 Co302 2.020 . S
O319 C316 1.256 . S
O320 Co300 2.062 . S
O320 C316 1.255 . S
O321 C301 1.259 . S
O321 Co302 2.021 . S
H322 C313 0.930 . S
H323 C312 0.931 . S
O324 Co300 2.117 . S
O324 C301 1.258 . S
O325 Co300 2.020 . S
O325 C327 1.256 . S
O326 Co302 2.062 . S
O326 C327 1.255 . S
C327 O325 1.256 . S
C327 O326 1.255 . S
H328 C307 0.931 . S
H329 C315 0.931 . S
Co330 N335 2.057 . S
Co330 O347 2.021 . S
Co330 O350 2.062 . S
Co330 O354 2.117 . S
Co330 O355 2.020 . S
C331 O351 1.259 . S
C331 O354 1.258 . S
Co332 N341 2.057 . S
Co332 O348 2.117 . S
Co332 O349 2.020 . S
Co332 O351 2.021 . S
Co332 O356 2.062 . S
C333 N335 1.316 . S
C333 N336 1.347 . S
C333 H338 0.931 . S
C334 N335 1.375 . S
C334 C337 1.350 . S
C334 H339 0.930 . S
N335 Co330 2.057 . S
N335 C333 1.316 . S
N335 C334 1.375 . S
N336 C333 1.347 . S
N336 C337 1.373 . S
C337 C334 1.350 . S
C337 N336 1.373 . S
C337 H358 0.931 . S
H338 C333 0.931 . S
H339 C334 0.930 . S
C340 O347 1.259 . S
C340 O348 1.258 . S
N341 Co332 2.057 . S
N341 C342 1.316 . S
N341 C343 1.375 . S
C342 N341 1.316 . S
C342 N344 1.347 . S
C342 H353 0.931 . S
C343 N341 1.375 . S
C343 C345 1.350 . S
C343 H352 0.930 . S
N344 C342 1.347 . S
N344 C345 1.373 . S
C345 C343 1.350 . S
C345 N344 1.373 . S
C345 H359 0.931 1_655 S
C346 O349 1.256 . S
C346 O350 1.255 . S
O347 Co330 2.021 . S
O347 C340 1.259 . S
O348 Co332 2.117 . S
O348 C340 1.258 . S
O349 Co332 2.020 . S
O349 C346 1.256 . S
O350 Co330 2.062 . S
O350 C346 1.255 . S
O351 C331 1.259 . S
O351 Co332 2.021 . S
H352 C343 0.930 . S
H353 C342 0.931 . S
O354 Co330 2.117 . S
O354 C331 1.258 . S
O355 Co330 2.020 . S
O355 C357 1.256 . S
O356 Co332 2.062 . S
O356 C357 1.255 . S
C357 O355 1.256 . S
C357 O356 1.255 . S
H358 C337 0.931 . S
H359 C345 0.931 1_455 S
Co360 N365 2.057 . S
Co360 O377 2.021 . S
Co360 O380 2.062 . S
Co360 O384 2.117 . S
Co360 O385 2.020 . S
C361 O381 1.259 . S
C361 O384 1.258 . S
Co362 N371 2.057 . S
Co362 O378 2.117 . S
Co362 O379 2.020 . S
Co362 O381 2.021 . S
Co362 O386 2.062 . S
C363 N365 1.316 . S
C363 N366 1.347 . S
C363 H368 0.931 . S
C364 N365 1.375 . S
C364 C367 1.350 . S
C364 H369 0.930 . S
N365 Co360 2.057 . S
N365 C363 1.316 . S
N365 C364 1.375 . S
N366 C363 1.347 . S
N366 C367 1.373 . S
C367 C364 1.350 . S
C367 N366 1.373 . S
C367 H388 0.931 . S
H368 C363 0.931 . S
H369 C364 0.930 . S
C370 O377 1.259 . S
C370 O378 1.258 . S
N371 Co362 2.057 . S
N371 C372 1.316 . S
N371 C373 1.375 . S
C372 N371 1.316 . S
C372 N374 1.347 . S
C372 H383 0.931 . S
C373 N371 1.375 . S
C373 C375 1.350 . S
C373 H382 0.930 . S
N374 C372 1.347 . S
N374 C375 1.373 . S
C375 C373 1.350 . S
C375 N374 1.373 . S
C375 H389 0.931 . S
C376 O379 1.256 . S
C376 O380 1.255 . S
O377 Co360 2.021 . S
O377 C370 1.259 . S
O378 Co362 2.117 . S
O378 C370 1.258 . S
O379 Co362 2.020 . S
O379 C376 1.256 . S
O380 Co360 2.062 . S
O380 C376 1.255 . S
O381 C361 1.259 . S
O381 Co362 2.021 . S
H382 C373 0.930 . S
H383 C372 0.931 . S
O384 Co360 2.117 . S
O384 C361 1.258 . S
O385 Co360 2.020 . S
O385 C387 1.256 . S
O386 Co362 2.062 . S
O386 C387 1.255 . S
C387 O385 1.256 . S
C387 O386 1.255 . S
H388 C367 0.931 . S
H389 C375 0.931 . S
Co390 N395 2.057 . S
Co390 O407 2.021 . S
Co390 O410 2.062 . S
Co390 O414 2.117 . S
Co390 O415 2.020 . S
C391 O411 1.259 . S
C391 O414 1.258 . S
Co392 N401 2.057 . S
Co392 O408 2.117 . S
Co392 O409 2.020 . S
Co392 O411 2.021 . S
Co392 O416 2.062 . S
C393 N395 1.316 . S
C393 N396 1.347 . S
C393 H398 0.931 . S
C394 N395 1.375 . S
C394 C397 1.350 . S
C394 H399 0.930 . S
N395 Co390 2.057 . S
N395 C393 1.316 . S
N395 C394 1.375 . S
N396 C393 1.347 . S
N396 C397 1.373 . S
C397 C394 1.350 . S
C397 N396 1.373 . S
C397 H418 0.931 1_455 S
H398 C393 0.931 . S
H399 C394 0.930 . S
C400 O407 1.259 . S
C400 O408 1.258 . S
N401 Co392 2.057 . S
N401 C402 1.316 . S
N401 C403 1.375 . S
C402 N401 1.316 . S
C402 N404 1.347 . S
C402 H413 0.931 . S
C403 N401 1.375 . S
C403 C405 1.350 . S
C403 H412 0.930 . S
N404 C402 1.347 . S
N404 C405 1.373 . S
C405 C403 1.350 . S
C405 N404 1.373 . S
C405 H419 0.931 . S
C406 O409 1.256 . S
C406 O410 1.255 . S
O407 Co390 2.021 . S
O407 C400 1.259 . S
O408 Co392 2.117 . S
O408 C400 1.258 . S
O409 Co392 2.020 . S
O409 C406 1.256 . S
O410 Co390 2.062 . S
O410 C406 1.255 . S
O411 C391 1.259 . S
O411 Co392 2.021 . S
H412 C403 0.930 . S
H413 C402 0.931 . S
O414 Co390 2.117 . S
O414 C391 1.258 . S
O415 Co390 2.020 . S
O415 C417 1.256 . S
O416 Co392 2.062 . S
O416 C417 1.255 . S
C417 O415 1.256 . S
C417 O416 1.255 . S
H418 C397 0.931 1_655 S
H419 C405 0.931 . S
Co420 N425 2.057 . S
Co420 O437 2.021 . S
Co420 O440 2.062 . S
Co420 O444 2.117 . S
Co420 O445 2.020 . S
C421 O441 1.259 . S
C421 O444 1.258 . S
Co422 N431 2.057 . S
Co422 O438 2.117 . S
Co422 O439 2.020 . S
Co422 O441 2.021 . S
Co422 O446 2.062 . S
C423 N425 1.316 . S
C423 N426 1.347 . S
C423 H428 0.931 . S
C424 N425 1.375 . S
C424 C427 1.350 . S
C424 H429 0.930 . S
N425 Co420 2.057 . S
N425 C423 1.316 . S
N425 C424 1.375 . S
N426 C423 1.347 . S
N426 C427 1.373 . S
C427 C424 1.350 . S
C427 N426 1.373 . S
C427 H448 0.931 . S
H428 C423 0.931 . S
H429 C424 0.930 . S
C430 O437 1.259 . S
C430 O438 1.258 . S
N431 Co422 2.057 . S
N431 C432 1.316 . S
N431 C433 1.375 . S
C432 N431 1.316 . S
C432 N434 1.347 . S
C432 H443 0.931 . S
C433 N431 1.375 . S
C433 C435 1.350 . S
C433 H442 0.930 . S
N434 C432 1.347 . S
N434 C435 1.373 . S
C435 C433 1.350 . S
C435 N434 1.373 . S
C435 H449 0.931 . S
C436 O439 1.256 . S
C436 O440 1.255 . S
O437 Co420 2.021 . S
O437 C430 1.259 . S
O438 Co422 2.117 . S
O438 C430 1.258 . S
O439 Co422 2.020 . S
O439 C436 1.256 . S
O440 Co420 2.062 . S
O440 C436 1.255 . S
O441 C421 1.259 . S
O441 Co422 2.021 . S
H442 C433 0.930 . S
H443 C432 0.931 . S
O444 Co420 2.117 . S
O444 C421 1.258 . S
O445 Co420 2.020 . S
O445 C447 1.256 . S
O446 Co422 2.062 . S
O446 C447 1.255 . S
C447 O445 1.256 . S
C447 O446 1.255 . S
H448 C427 0.931 . S
H449 C435 0.931 . S
Co450 N455 2.057 . S
Co450 O467 2.021 . S
Co450 O470 2.062 . S
Co450 O474 2.117 . S
Co450 O475 2.020 . S
C451 O471 1.259 . S
C451 O474 1.258 . S
Co452 N461 2.057 . S
Co452 O468 2.117 . S
Co452 O469 2.020 . S
Co452 O471 2.021 . S
Co452 O476 2.062 . S
C453 N455 1.316 . S
C453 N456 1.347 . S
C453 H458 0.931 . S
C454 N455 1.375 . S
C454 C457 1.350 . S
C454 H459 0.930 . S
N455 Co450 2.057 . S
N455 C453 1.316 . S
N455 C454 1.375 . S
N456 C453 1.347 . S
N456 C457 1.373 . S
C457 C454 1.350 . S
C457 N456 1.373 . S
C457 H478 0.931 1_455 S
H458 C453 0.931 . S
H459 C454 0.930 . S
C460 O467 1.259 . S
C460 O468 1.258 . S
N461 Co452 2.057 . S
N461 C462 1.316 . S
N461 C463 1.375 . S
C462 N461 1.316 . S
C462 N464 1.347 . S
C462 H473 0.931 . S
C463 N461 1.375 . S
C463 C465 1.350 . S
C463 H472 0.930 . S
N464 C462 1.347 . S
N464 C465 1.373 . S
C465 C463 1.350 . S
C465 N464 1.373 . S
C465 H479 0.931 . S
C466 O469 1.256 . S
C466 O470 1.255 . S
O467 Co450 2.021 . S
O467 C460 1.259 . S
O468 Co452 2.117 . S
O468 C460 1.258 . S
O469 Co452 2.020 . S
O469 C466 1.256 . S
O470 Co450 2.062 . S
O470 C466 1.255 . S
O471 C451 1.259 . S
O471 Co452 2.021 . S
H472 C463 0.930 . S
H473 C462 0.931 . S
O474 Co450 2.117 . S
O474 C451 1.258 . S
O475 Co450 2.020 . S
O475 C477 1.256 . S
O476 Co452 2.062 . S
O476 C477 1.255 . S
C477 O475 1.256 . S
C477 O476 1.255 . S
H478 C457 0.931 1_655 S
H479 C465 0.931 . S
Co480 N485 2.055 1_545 S
Co480 O497 2.021 . S
Co480 O500 2.062 . S
Co480 O504 2.117 1_545 S
Co480 O505 2.020 . S
C481 O501 1.259 . S
C481 O504 1.258 . S
Co482 N491 2.057 1_565 S
Co482 O498 2.117 1_565 S
Co482 O499 2.020 . S
Co482 O501 2.021 . S
Co482 O506 2.062 1_565 S
C483 N485 1.309 1_545 S
C483 N486 1.347 . S
C483 H488 0.931 . S
C484 N485 1.384 . S
C484 C487 1.350 . S
C484 H489 0.930 . S
N485 Co480 2.055 1_565 S
N485 C483 1.309 1_565 S
N485 C484 1.384 . S
N486 C483 1.347 . S
N486 C487 1.373 1_545 S
C487 C484 1.350 . S
C487 N486 1.373 1_565 S
C487 H508 0.931 . S
H488 C483 0.931 . S
H489 C484 0.930 . S
C490 O497 1.259 . S
C490 O498 1.258 . S
N491 Co482 2.057 1_545 S
N491 C492 1.316 1_545 S
N491 C493 1.375 . S
C492 N491 1.316 1_565 S
C492 N494 1.347 . S
C492 H503 0.931 . S
C493 N491 1.375 . S
C493 C495 1.350 . S
C493 H502 0.930 . S
N494 C492 1.347 . S
N494 C495 1.373 1_565 S
C495 C493 1.350 . S
C495 N494 1.373 1_545 S
C495 H509 0.931 . S
C496 O499 1.256 . S
C496 O500 1.255 1_565 S
O497 Co480 2.021 . S
O497 C490 1.259 . S
O498 Co482 2.117 1_545 S
O498 C490 1.258 . S
O499 Co482 2.020 . S
O499 C496 1.256 . S
O500 Co480 2.062 . S
O500 C496 1.255 1_545 S
O501 C481 1.259 . S
O501 Co482 2.021 . S
H502 C493 0.930 . S
H503 C492 0.931 . S
O504 Co480 2.117 1_565 S
O504 C481 1.258 . S
O505 Co480 2.020 . S
O505 C507 1.256 . S
O506 Co482 2.062 1_545 S
O506 C507 1.255 . S
C507 O505 1.256 . S
C507 O506 1.255 . S
H508 C487 0.931 . S
H509 C495 0.931 . S
Co510 N515 2.057 . S
Co510 O527 2.021 . S
Co510 O530 2.062 . S
Co510 O534 2.117 . S
Co510 O535 2.020 . S
C511 O531 1.259 . S
C511 O534 1.258 . S
Co512 N521 2.057 . S
Co512 O528 2.117 . S
Co512 O529 2.020 . S
Co512 O531 2.021 . S
Co512 O536 2.062 . S
C513 N515 1.316 . S
C513 N516 1.347 . S
C513 H518 0.931 . S
C514 N515 1.375 . S
C514 C517 1.350 . S
C514 H519 0.930 . S
N515 Co510 2.057 . S
N515 C513 1.316 . S
N515 C514 1.375 . S
N516 C513 1.347 . S
N516 C517 1.373 . S
C517 C514 1.350 . S
C517 N516 1.373 . S
C517 H538 0.931 . S
H518 C513 0.931 . S
H519 C514 0.930 . S
C520 O527 1.259 . S
C520 O528 1.258 . S
N521 Co512 2.057 . S
N521 C522 1.316 . S
N521 C523 1.375 . S
C522 N521 1.316 . S
C522 N524 1.347 . S
C522 H533 0.931 . S
C523 N521 1.375 . S
C523 C525 1.350 . S
C523 H532 0.930 . S
N524 C522 1.347 . S
N524 C525 1.373 . S
C525 C523 1.350 . S
C525 N524 1.373 . S
C525 H539 0.931 . S
C526 O529 1.256 . S
C526 O530 1.255 . S
O527 Co510 2.021 . S
O527 C520 1.259 . S
O528 Co512 2.117 . S
O528 C520 1.258 . S
O529 Co512 2.020 . S
O529 C526 1.256 . S
O530 Co510 2.062 . S
O530 C526 1.255 . S
O531 C511 1.259 . S
O531 Co512 2.021 . S
H532 C523 0.930 . S
H533 C522 0.931 . S
O534 Co510 2.117 . S
O534 C511 1.258 . S
O535 Co510 2.020 . S
O535 C537 1.256 . S
O536 Co512 2.062 . S
O536 C537 1.255 . S
C537 O535 1.256 . S
C537 O536 1.255 . S
H538 C517 0.931 . S
H539 C525 0.931 . S
Co540 N545 2.057 . S
Co540 O557 2.021 . S
Co540 O560 2.062 . S
Co540 O564 2.117 . S
Co540 O565 2.020 . S
C541 O561 1.259 . S
C541 O564 1.258 . S
Co542 N551 2.057 . S
Co542 O558 2.117 . S
Co542 O559 2.020 . S
Co542 O561 2.021 . S
Co542 O566 2.062 . S
C543 N545 1.316 . S
C543 N546 1.347 . S
C543 H548 0.931 . S
C544 N545 1.375 . S
C544 C547 1.350 . S
C544 H549 0.930 . S
N545 Co540 2.057 . S
N545 C543 1.316 . S
N545 C544 1.375 . S
N546 C543 1.347 . S
N546 C547 1.373 . S
C547 C544 1.350 . S
C547 N546 1.373 . S
C547 H568 0.931 . S
H548 C543 0.931 . S
H549 C544 0.930 . S
C550 O557 1.259 . S
C550 O558 1.258 . S
N551 Co542 2.057 . S
N551 C552 1.316 . S
N551 C553 1.375 . S
C552 N551 1.316 . S
C552 N554 1.347 . S
C552 H563 0.931 . S
C553 N551 1.375 . S
C553 C555 1.350 . S
C553 H562 0.930 . S
N554 C552 1.347 . S
N554 C555 1.373 . S
C555 C553 1.350 . S
C555 N554 1.373 . S
C555 H569 0.931 . S
C556 O559 1.256 . S
C556 O560 1.255 . S
O557 Co540 2.021 . S
O557 C550 1.259 . S
O558 Co542 2.117 . S
O558 C550 1.258 . S
O559 Co542 2.020 . S
O559 C556 1.256 . S
O560 Co540 2.062 . S
O560 C556 1.255 . S
O561 C541 1.259 . S
O561 Co542 2.021 . S
H562 C553 0.930 . S
H563 C552 0.931 . S
O564 Co540 2.117 . S
O564 C541 1.258 . S
O565 Co540 2.020 . S
O565 C567 1.256 . S
O566 Co542 2.062 . S
O566 C567 1.255 . S
C567 O565 1.256 . S
C567 O566 1.255 . S
H568 C547 0.931 . S
H569 C555 0.931 . S
Co570 N575 2.055 1_545 S
Co570 O587 2.021 . S
Co570 O590 2.062 . S
Co570 O594 2.117 1_545 S
Co570 O595 2.020 . S
C571 O591 1.259 . S
C571 O594 1.258 . S
Co572 N581 2.057 1_565 S
Co572 O588 2.117 1_565 S
Co572 O589 2.020 . S
Co572 O591 2.021 . S
Co572 O596 2.062 1_565 S
C573 N575 1.309 1_545 S
C573 N576 1.347 . S
C573 H578 0.931 . S
C574 N575 1.384 . S
C574 C577 1.350 . S
C574 H579 0.930 . S
N575 Co570 2.055 1_565 S
N575 C573 1.309 1_565 S
N575 C574 1.384 . S
N576 C573 1.347 . S
N576 C577 1.373 1_545 S
C577 C574 1.350 . S
C577 N576 1.373 1_565 S
C577 H598 0.931 . S
H578 C573 0.931 . S
H579 C574 0.930 . S
C580 O587 1.259 . S
C580 O588 1.258 . S
N581 Co572 2.057 1_545 S
N581 C582 1.316 1_545 S
N581 C583 1.375 . S
C582 N581 1.316 1_565 S
C582 N584 1.347 . S
C582 H593 0.931 . S
C583 N581 1.375 . S
C583 C585 1.350 . S
C583 H592 0.930 . S
N584 C582 1.347 . S
N584 C585 1.373 1_565 S
C585 C583 1.350 . S
C585 N584 1.373 1_545 S
C585 H599 0.931 . S
C586 O589 1.256 . S
C586 O590 1.255 1_565 S
O587 Co570 2.021 . S
O587 C580 1.259 . S
O588 Co572 2.117 1_545 S
O588 C580 1.258 . S
O589 Co572 2.020 . S
O589 C586 1.256 . S
O590 Co570 2.062 . S
O590 C586 1.255 1_545 S
O591 C571 1.259 . S
O591 Co572 2.021 . S
H592 C583 0.930 . S
H593 C582 0.931 . S
O594 Co570 2.117 1_565 S
O594 C571 1.258 . S
O595 Co570 2.020 . S
O595 C597 1.256 . S
O596 Co572 2.062 1_545 S
O596 C597 1.255 . S
C597 O595 1.256 . S
C597 O596 1.255 . S
H598 C577 0.931 . S
H599 C585 0.931 . S
Co600 N605 2.057 1_545 S
Co600 O617 2.021 . S
Co600 O620 2.062 1_545 S
Co600 O624 2.117 1_545 S
Co600 O625 2.020 . S
C601 O621 1.259 . S
C601 O624 1.258 . S
Co602 N611 2.055 1_565 S
Co602 O618 2.117 1_565 S
Co602 O619 2.020 . S
Co602 O621 2.021 . S
Co602 O626 2.062 . S
C603 N605 1.316 1_545 S
C603 N606 1.347 . S
C603 H608 0.931 . S
C604 N605 1.375 . S
C604 C607 1.350 . S
C604 H609 0.930 . S
N605 Co600 2.057 1_565 S
N605 C603 1.316 1_565 S
N605 C604 1.375 . S
N606 C603 1.347 . S
N606 C607 1.373 1_545 S
C607 C604 1.350 . S
C607 N606 1.373 1_565 S
C607 H628 0.931 . S
H608 C603 0.931 . S
H609 C604 0.930 . S
C610 O617 1.259 . S
C610 O618 1.258 . S
N611 Co602 2.055 1_545 S
N611 C612 1.309 1_545 S
N611 C613 1.384 . S
C612 N611 1.309 1_565 S
C612 N614 1.347 . S
C612 H623 0.931 . S
C613 N611 1.384 . S
C613 C615 1.350 . S
C613 H622 0.930 . S
N614 C612 1.347 . S
N614 C615 1.373 1_565 S
C615 C613 1.350 . S
C615 N614 1.373 1_545 S
C615 H629 0.931 . S
C616 O619 1.256 . S
C616 O620 1.255 . S
O617 Co600 2.021 . S
O617 C610 1.259 . S
O618 Co602 2.117 1_545 S
O618 C610 1.258 . S
O619 Co602 2.020 . S
O619 C616 1.256 . S
O620 Co600 2.062 1_565 S
O620 C616 1.255 . S
O621 C601 1.259 . S
O621 Co602 2.021 . S
H622 C613 0.930 . S
H623 C612 0.931 . S
O624 Co600 2.117 1_565 S
O624 C601 1.258 . S
O625 Co600 2.020 . S
O625 C627 1.256 . S
O626 Co602 2.062 . S
O626 C627 1.255 1_565 S
C627 O625 1.256 . S
C627 O626 1.255 1_545 S
H628 C607 0.931 . S
H629 C615 0.931 . S
Co630 N635 2.057 . S
Co630 O647 2.021 . S
Co630 O650 2.062 . S
Co630 O654 2.117 . S
Co630 O655 2.020 . S
C631 O651 1.259 . S
C631 O654 1.258 . S
Co632 N641 2.057 . S
Co632 O648 2.117 . S
Co632 O649 2.020 . S
Co632 O651 2.021 . S
Co632 O656 2.062 . S
C633 N635 1.316 . S
C633 N636 1.347 . S
C633 H638 0.931 . S
C634 N635 1.375 . S
C634 C637 1.350 . S
C634 H639 0.930 . S
N635 Co630 2.057 . S
N635 C633 1.316 . S
N635 C634 1.375 . S
N636 C633 1.347 . S
N636 C637 1.373 . S
C637 C634 1.350 . S
C637 N636 1.373 . S
C637 H658 0.931 . S
H638 C633 0.931 . S
H639 C634 0.930 . S
C640 O647 1.259 . S
C640 O648 1.258 . S
N641 Co632 2.057 . S
N641 C642 1.316 . S
N641 C643 1.375 . S
C642 N641 1.316 . S
C642 N644 1.347 . S
C642 H653 0.931 . S
C643 N641 1.375 . S
C643 C645 1.350 . S
C643 H652 0.930 . S
N644 C642 1.347 . S
N644 C645 1.373 . S
C645 C643 1.350 . S
C645 N644 1.373 . S
C645 H659 0.931 . S
C646 O649 1.256 . S
C646 O650 1.255 . S
O647 Co630 2.021 . S
O647 C640 1.259 . S
O648 Co632 2.117 . S
O648 C640 1.258 . S
O649 Co632 2.020 . S
O649 C646 1.256 . S
O650 Co630 2.062 . S
O650 C646 1.255 . S
O651 C631 1.259 . S
O651 Co632 2.021 . S
H652 C643 0.930 . S
H653 C642 0.931 . S
O654 Co630 2.117 . S
O654 C631 1.258 . S
O655 Co630 2.020 . S
O655 C657 1.256 . S
O656 Co632 2.062 . S
O656 C657 1.255 . S
C657 O655 1.256 . S
C657 O656 1.255 . S
H658 C637 0.931 . S
H659 C645 0.931 . S
Co660 N665 2.057 . S
Co660 O677 2.021 . S
Co660 O680 2.062 . S
Co660 O684 2.117 . S
Co660 O685 2.020 . S
C661 O681 1.259 . S
C661 O684 1.258 . S
Co662 N671 2.057 . S
Co662 O678 2.117 . S
Co662 O679 2.020 . S
Co662 O681 2.021 . S
Co662 O686 2.062 . S
C663 N665 1.316 . S
C663 N666 1.347 . S
C663 H668 0.931 . S
C664 N665 1.375 . S
C664 C667 1.350 . S
C664 H669 0.930 . S
N665 Co660 2.057 . S
N665 C663 1.316 . S
N665 C664 1.375 . S
N666 C663 1.347 . S
N666 C667 1.373 . S
C667 C664 1.350 . S
C667 N666 1.373 . S
C667 H688 0.931 . S
H668 C663 0.931 . S
H669 C664 0.930 . S
C670 O677 1.259 . S
C670 O678 1.258 . S
N671 Co662 2.057 . S
N671 C672 1.316 . S
N671 C673 1.375 . S
C672 N671 1.316 . S
C672 N674 1.347 . S
C672 H683 0.931 . S
C673 N671 1.375 . S
C673 C675 1.350 . S
C673 H682 0.930 . S
N674 C672 1.347 . S
N674 C675 1.373 . S
C675 C673 1.350 . S
C675 N674 1.373 . S
C675 H689 0.931 . S
C676 O679 1.256 . S
C676 O680 1.255 . S
O677 Co660 2.021 . S
O677 C670 1.259 . S
O678 Co662 2.117 . S
O678 C670 1.258 . S
O679 Co662 2.020 . S
O679 C676 1.256 . S
O680 Co660 2.062 . S
O680 C676 1.255 . S
O681 C661 1.259 . S
O681 Co662 2.021 . S
H682 C673 0.930 . S
H683 C672 0.931 . S
O684 Co660 2.117 . S
O684 C661 1.258 . S
O685 Co660 2.020 . S
O685 C687 1.256 . S
O686 Co662 2.062 . S
O686 C687 1.255 . S
C687 O685 1.256 . S
C687 O686 1.255 . S
H688 C667 0.931 . S
H689 C675 0.931 . S
Co690 N695 2.057 1_545 S
Co690 O707 2.021 . S
Co690 O710 2.062 1_545 S
Co690 O714 2.117 1_545 S
Co690 O715 2.020 . S
C691 O711 1.259 . S
C691 O714 1.258 . S
Co692 N701 2.055 1_565 S
Co692 O708 2.117 1_565 S
Co692 O709 2.020 . S
Co692 O711 2.021 . S
Co692 O716 2.062 . S
C693 N695 1.316 1_545 S
C693 N696 1.347 . S
C693 H698 0.931 . S
C694 N695 1.375 . S
C694 C697 1.350 . S
C694 H699 0.930 . S
N695 Co690 2.057 1_565 S
N695 C693 1.316 1_565 S
N695 C694 1.375 . S
N696 C693 1.347 . S
N696 C697 1.373 1_545 S
C697 C694 1.350 . S
C697 N696 1.373 1_565 S
C697 H718 0.931 . S
H698 C693 0.931 . S
H699 C694 0.930 . S
C700 O707 1.259 . S
C700 O708 1.258 . S
N701 Co692 2.055 1_545 S
N701 C702 1.309 1_545 S
N701 C703 1.384 . S
C702 N701 1.309 1_565 S
C702 N704 1.347 . S
C702 H713 0.931 . S
C703 N701 1.384 . S
C703 C705 1.350 . S
C703 H712 0.930 . S
N704 C702 1.347 . S
N704 C705 1.373 1_565 S
C705 C703 1.350 . S
C705 N704 1.373 1_545 S
C705 H719 0.931 . S
C706 O709 1.256 . S
C706 O710 1.255 . S
O707 Co690 2.021 . S
O707 C700 1.259 . S
O708 Co692 2.117 1_545 S
O708 C700 1.258 . S
O709 Co692 2.020 . S
O709 C706 1.256 . S
O710 Co690 2.062 1_565 S
O710 C706 1.255 . S
O711 C691 1.259 . S
O711 Co692 2.021 . S
H712 C703 0.930 . S
H713 C702 0.931 . S
O714 Co690 2.117 1_565 S
O714 C691 1.258 . S
O715 Co690 2.020 . S
O715 C717 1.256 . S
O716 Co692 2.062 . S
O716 C717 1.255 1_565 S
C717 O715 1.256 . S
C717 O716 1.255 1_545 S
H718 C697 0.931 . S
H719 C705 0.931 . S
Co720 N725 2.057 . S
Co720 O737 2.021 . S
Co720 O740 2.062 . S
Co720 O744 2.117 . S
Co720 O745 2.020 . S
C721 O741 1.259 . S
C721 O744 1.258 . S
Co722 N731 2.057 . S
Co722 O738 2.117 . S
Co722 O739 2.020 . S
Co722 O741 2.021 . S
Co722 O746 2.062 . S
C723 N725 1.316 . S
C723 N726 1.347 . S
C723 H728 0.931 . S
C724 N725 1.375 . S
C724 C727 1.350 . S
C724 H729 0.930 . S
N725 Co720 2.057 . S
N725 C723 1.316 . S
N725 C724 1.375 . S
N726 C723 1.347 . S
N726 C727 1.373 . S
C727 C724 1.350 . S
C727 N726 1.373 . S
C727 H748 0.931 . S
H728 C723 0.931 . S
H729 C724 0.930 . S
C730 O737 1.259 . S
C730 O738 1.258 . S
N731 Co722 2.057 . S
N731 C732 1.316 . S
N731 C733 1.375 . S
C732 N731 1.316 . S
C732 N734 1.347 1_554 S
C732 H743 0.931 . S
C733 N731 1.375 . S
C733 C735 1.352 . S
C733 H742 0.930 . S
N734 C732 1.347 1_556 S
N734 C735 1.372 1_556 S
C735 C733 1.352 . S
C735 N734 1.372 1_554 S
C735 H749 0.930 1_554 S
C736 O739 1.256 . S
C736 O740 1.255 . S
O737 Co720 2.021 . S
O737 C730 1.259 . S
O738 Co722 2.117 . S
O738 C730 1.258 . S
O739 Co722 2.020 . S
O739 C736 1.256 . S
O740 Co720 2.062 . S
O740 C736 1.255 . S
O741 C721 1.259 . S
O741 Co722 2.021 . S
H742 C733 0.930 . S
H743 C732 0.931 . S
O744 Co720 2.117 . S
O744 C721 1.258 . S
O745 Co720 2.020 . S
O745 C747 1.256 . S
O746 Co722 2.062 . S
O746 C747 1.255 . S
C747 O745 1.256 . S
C747 O746 1.255 . S
H748 C727 0.931 . S
H749 C735 0.930 1_556 S
Co750 N755 2.057 . S
Co750 O767 2.021 . S
Co750 O770 2.062 . S
Co750 O774 2.117 . S
Co750 O775 2.020 . S
C751 O771 1.259 . S
C751 O774 1.258 . S
Co752 N761 2.057 . S
Co752 O768 2.117 . S
Co752 O769 2.020 . S
Co752 O771 2.021 . S
Co752 O776 2.062 . S
C753 N755 1.316 . S
C753 N756 1.347 . S
C753 H758 0.931 . S
C754 N755 1.375 . S
C754 C757 1.350 . S
C754 H759 0.930 . S
N755 Co750 2.057 . S
N755 C753 1.316 . S
N755 C754 1.375 . S
N756 C753 1.347 . S
N756 C757 1.373 . S
C757 C754 1.350 . S
C757 N756 1.373 . S
C757 H778 0.931 . S
H758 C753 0.931 . S
H759 C754 0.930 . S
C760 O767 1.259 . S
C760 O768 1.258 . S
N761 Co752 2.057 . S
N761 C762 1.316 . S
N761 C763 1.375 . S
C762 N761 1.316 . S
C762 N764 1.347 1_554 S
C762 H773 0.931 . S
C763 N761 1.375 . S
C763 C765 1.352 . S
C763 H772 0.930 . S
N764 C762 1.347 1_556 S
N764 C765 1.372 1_556 S
C765 C763 1.352 . S
C765 N764 1.372 1_554 S
C765 H779 0.930 1_554 S
C766 O769 1.256 . S
C766 O770 1.255 . S
O767 Co750 2.021 . S
O767 C760 1.259 . S
O768 Co752 2.117 . S
O768 C760 1.258 . S
O769 Co752 2.020 . S
O769 C766 1.256 . S
O770 Co750 2.062 . S
O770 C766 1.255 . S
O771 C751 1.259 . S
O771 Co752 2.021 . S
H772 C763 0.930 . S
H773 C762 0.931 . S
O774 Co750 2.117 . S
O774 C751 1.258 . S
O775 Co750 2.020 . S
O775 C777 1.256 . S
O776 Co752 2.062 . S
O776 C777 1.255 . S
C777 O775 1.256 . S
C777 O776 1.255 . S
H778 C757 0.931 . S
H779 C765 0.930 1_556 S
Co780 N785 2.057 . S
Co780 O797 2.021 . S
Co780 O800 2.062 . S
Co780 O804 2.117 . S
Co780 O805 2.020 . S
C781 O801 1.259 . S
C781 O804 1.258 . S
Co782 N791 2.057 . S
Co782 O798 2.117 . S
Co782 O799 2.020 . S
Co782 O801 2.021 . S
Co782 O806 2.062 . S
C783 N785 1.316 . S
C783 N786 1.347 . S
C783 H788 0.931 . S
C784 N785 1.375 . S
C784 C787 1.350 . S
C784 H789 0.930 . S
N785 Co780 2.057 . S
N785 C783 1.316 . S
N785 C784 1.375 . S
N786 C783 1.347 . S
N786 C787 1.373 . S
C787 C784 1.350 . S
C787 N786 1.373 . S
C787 H808 0.931 . S
H788 C783 0.931 . S
H789 C784 0.930 . S
C790 O797 1.259 . S
C790 O798 1.258 . S
N791 Co782 2.057 . S
N791 C792 1.316 . S
N791 C793 1.375 . S
C792 N791 1.316 . S
C792 N794 1.347 . S
C792 H803 0.931 . S
C793 N791 1.375 . S
C793 C795 1.350 . S
C793 H802 0.930 . S
N794 C792 1.347 . S
N794 C795 1.373 . S
C795 C793 1.350 . S
C795 N794 1.373 . S
C795 H809 0.931 . S
C796 O799 1.256 . S
C796 O800 1.255 . S
O797 Co780 2.021 . S
O797 C790 1.259 . S
O798 Co782 2.117 . S
O798 C790 1.258 . S
O799 Co782 2.020 . S
O799 C796 1.256 . S
O800 Co780 2.062 . S
O800 C796 1.255 . S
O801 C781 1.259 . S
O801 Co782 2.021 . S
H802 C793 0.930 . S
H803 C792 0.931 . S
O804 Co780 2.117 . S
O804 C781 1.258 . S
O805 Co780 2.020 . S
O805 C807 1.256 . S
O806 Co782 2.062 . S
O806 C807 1.255 . S
C807 O805 1.256 . S
C807 O806 1.255 . S
H808 C787 0.931 . S
H809 C795 0.931 . S
Co810 N815 2.057 . S
Co810 O827 2.021 . S
Co810 O830 2.062 . S
Co810 O834 2.117 . S
Co810 O835 2.020 . S
C811 O831 1.259 . S
C811 O834 1.258 . S
Co812 N821 2.057 . S
Co812 O828 2.117 . S
Co812 O829 2.020 . S
Co812 O831 2.021 . S
Co812 O836 2.062 . S
C813 N815 1.316 . S
C813 N816 1.347 . S
C813 H818 0.931 . S
C814 N815 1.375 . S
C814 C817 1.350 . S
C814 H819 0.930 . S
N815 Co810 2.057 . S
N815 C813 1.316 . S
N815 C814 1.375 . S
N816 C813 1.347 . S
N816 C817 1.373 . S
C817 C814 1.350 . S
C817 N816 1.373 . S
C817 H838 0.931 . S
H818 C813 0.931 . S
H819 C814 0.930 . S
C820 O827 1.259 . S
C820 O828 1.258 . S
N821 Co812 2.057 . S
N821 C822 1.316 . S
N821 C823 1.375 . S
C822 N821 1.316 . S
C822 N824 1.347 . S
C822 H833 0.931 . S
C823 N821 1.375 . S
C823 C825 1.350 . S
C823 H832 0.930 . S
N824 C822 1.347 . S
N824 C825 1.373 . S
C825 C823 1.350 . S
C825 N824 1.373 . S
C825 H839 0.931 . S
C826 O829 1.256 . S
C826 O830 1.255 . S
O827 Co810 2.021 . S
O827 C820 1.259 . S
O828 Co812 2.117 . S
O828 C820 1.258 . S
O829 Co812 2.020 . S
O829 C826 1.256 . S
O830 Co810 2.062 . S
O830 C826 1.255 . S
O831 C811 1.259 . S
O831 Co812 2.021 . S
H832 C823 0.930 . S
H833 C822 0.931 . S
O834 Co810 2.117 . S
O834 C811 1.258 . S
O835 Co810 2.020 . S
O835 C837 1.256 . S
O836 Co812 2.062 . S
O836 C837 1.255 . S
C837 O835 1.256 . S
C837 O836 1.255 . S
H838 C817 0.931 . S
H839 C825 0.931 . S
Co840 N845 2.057 . S
Co840 O857 2.021 . S
Co840 O860 2.062 . S
Co840 O864 2.117 . S
Co840 O865 2.020 . S
C841 O861 1.259 . S
C841 O864 1.258 . S
Co842 N851 2.057 . S
Co842 O858 2.117 . S
Co842 O859 2.020 . S
Co842 O861 2.021 . S
Co842 O866 2.062 . S
C843 N845 1.316 . S
C843 N846 1.347 1_556 S
C843 H848 0.931 . S
C844 N845 1.375 . S
C844 C847 1.352 . S
C844 H849 0.930 . S
N845 Co840 2.057 . S
N845 C843 1.316 . S
N845 C844 1.375 . S
N846 C843 1.347 1_554 S
N846 C847 1.372 1_554 S
C847 C844 1.352 . S
C847 N846 1.372 1_556 S
C847 H868 0.930 1_556 S
H848 C843 0.931 . S
H849 C844 0.930 . S
C850 O857 1.259 . S
C850 O858 1.258 . S
N851 Co842 2.057 . S
N851 C852 1.316 . S
N851 C853 1.375 . S
C852 N851 1.316 . S
C852 N854 1.347 . S
C852 H863 0.931 . S
C853 N851 1.375 . S
C853 C855 1.350 . S
C853 H862 0.930 . S
N854 C852 1.347 . S
N854 C855 1.373 . S
C855 C853 1.350 . S
C855 N854 1.373 . S
C855 H869 0.931 . S
C856 O859 1.256 . S
C856 O860 1.255 . S
O857 Co840 2.021 . S
O857 C850 1.259 . S
O858 Co842 2.117 . S
O858 C850 1.258 . S
O859 Co842 2.020 . S
O859 C856 1.256 . S
O860 Co840 2.062 . S
O860 C856 1.255 . S
O861 C841 1.259 . S
O861 Co842 2.021 . S
H862 C853 0.930 . S
H863 C852 0.931 . S
O864 Co840 2.117 . S
O864 C841 1.258 . S
O865 Co840 2.020 . S
O865 C867 1.256 . S
O866 Co842 2.062 . S
O866 C867 1.255 . S
C867 O865 1.256 . S
C867 O866 1.255 . S
H868 C847 0.930 1_554 S
H869 C855 0.931 . S
Co870 N875 2.057 . S
Co870 O887 2.021 . S
Co870 O890 2.062 . S
Co870 O894 2.117 . S
Co870 O895 2.020 . S
C871 O891 1.259 . S
C871 O894 1.258 . S
Co872 N881 2.057 . S
Co872 O888 2.117 . S
Co872 O889 2.020 . S
Co872 O891 2.021 . S
Co872 O896 2.062 . S
C873 N875 1.316 . S
C873 N876 1.347 1_556 S
C873 H878 0.931 . S
C874 N875 1.375 . S
C874 C877 1.352 . S
C874 H879 0.930 . S
N875 Co870 2.057 . S
N875 C873 1.316 . S
N875 C874 1.375 . S
N876 C873 1.347 1_554 S
N876 C877 1.372 1_554 S
C877 C874 1.352 . S
C877 N876 1.372 1_556 S
C877 H898 0.930 1_556 S
H878 C873 0.931 . S
H879 C874 0.930 . S
C880 O887 1.259 . S
C880 O888 1.258 . S
N881 Co872 2.057 . S
N881 C882 1.316 . S
N881 C883 1.375 . S
C882 N881 1.316 . S
C882 N884 1.347 . S
C882 H893 0.931 . S
C883 N881 1.375 . S
C883 C885 1.350 . S
C883 H892 0.930 . S
N884 C882 1.347 . S
N884 C885 1.373 . S
C885 C883 1.350 . S
C885 N884 1.373 . S
C885 H899 0.931 . S
C886 O889 1.256 . S
C886 O890 1.255 . S
O887 Co870 2.021 . S
O887 C880 1.259 . S
O888 Co872 2.117 . S
O888 C880 1.258 . S
O889 Co872 2.020 . S
O889 C886 1.256 . S
O890 Co870 2.062 . S
O890 C886 1.255 . S
O891 C871 1.259 . S
O891 Co872 2.021 . S
H892 C883 0.930 . S
H893 C882 0.931 . S
O894 Co870 2.117 . S
O894 C871 1.258 . S
O895 Co870 2.020 . S
O895 C897 1.256 . S
O896 Co872 2.062 . S
O896 C897 1.255 . S
C897 O895 1.256 . S
C897 O896 1.255 . S
H898 C877 0.930 1_554 S
H899 C885 0.931 . S
Co900 N905 2.057 . S
Co900 O917 2.021 . S
Co900 O920 2.062 . S
Co900 O924 2.117 . S
Co900 O925 2.020 . S
C901 O921 1.259 . S
C901 O924 1.258 . S
Co902 N911 2.057 . S
Co902 O918 2.117 . S
Co902 O919 2.020 . S
Co902 O921 2.021 . S
Co902 O926 2.062 . S
C903 N905 1.316 . S
C903 N906 1.347 . S
C903 H908 0.931 . S
C904 N905 1.375 . S
C904 C907 1.350 . S
C904 H909 0.930 . S
N905 Co900 2.057 . S
N905 C903 1.316 . S
N905 C904 1.375 . S
N906 C903 1.347 . S
N906 C907 1.373 . S
C907 C904 1.350 . S
C907 N906 1.373 . S
C907 H928 0.931 . S
H908 C903 0.931 . S
H909 C904 0.930 . S
C910 O917 1.259 . S
C910 O918 1.258 . S
N911 Co902 2.057 . S
N911 C912 1.316 . S
N911 C913 1.375 . S
C912 N911 1.316 . S
C912 N914 1.347 . S
C912 H923 0.931 . S
C913 N911 1.375 . S
C913 C915 1.350 . S
C913 H922 0.930 . S
N914 C912 1.347 . S
N914 C915 1.373 . S
C915 C913 1.350 . S
C915 N914 1.373 . S
C915 H929 0.931 . S
C916 O919 1.256 . S
C916 O920 1.255 . S
O917 Co900 2.021 . S
O917 C910 1.259 . S
O918 Co902 2.117 . S
O918 C910 1.258 . S
O919 Co902 2.020 . S
O919 C916 1.256 . S
O920 Co900 2.062 . S
O920 C916 1.255 . S
O921 C901 1.259 . S
O921 Co902 2.021 . S
H922 C913 0.930 . S
H923 C912 0.931 . S
O924 Co900 2.117 . S
O924 C901 1.258 . S
O925 Co900 2.020 . S
O925 C927 1.256 . S
O926 Co902 2.062 . S
O926 C927 1.255 . S
C927 O925 1.256 . S
C927 O926 1.255 . S
H928 C907 0.931 . S
H929 C915 0.931 . S
Co930 N935 2.057 . S
Co930 O947 2.021 . S
Co930 O950 2.062 . S
Co930 O954 2.117 . S
Co930 O955 2.020 . S
C931 O951 1.259 . S
C931 O954 1.258 . S
Co932 N941 2.057 . S
Co932 O948 2.117 . S
Co932 O949 2.020 . S
Co932 O951 2.021 . S
Co932 O956 2.062 . S
C933 N935 1.316 . S
C933 N936 1.347 . S
C933 H938 0.931 . S
C934 N935 1.375 . S
C934 C937 1.350 . S
C934 H939 0.930 . S
N935 Co930 2.057 . S
N935 C933 1.316 . S
N935 C934 1.375 . S
N936 C933 1.347 . S
N936 C937 1.373 . S
C937 C934 1.350 . S
C937 N936 1.373 . S
C937 H958 0.931 . S
H938 C933 0.931 . S
H939 C934 0.930 . S
C940 O947 1.259 . S
C940 O948 1.258 . S
N941 Co932 2.057 . S
N941 C942 1.316 . S
N941 C943 1.375 . S
C942 N941 1.316 . S
C942 N944 1.347 . S
C942 H953 0.931 . S
C943 N941 1.375 . S
C943 C945 1.350 . S
C943 H952 0.930 . S
N944 C942 1.347 . S
N944 C945 1.373 . S
C945 C943 1.350 . S
C945 N944 1.373 . S
C945 H959 0.931 . S
C946 O949 1.256 . S
C946 O950 1.255 . S
O947 Co930 2.021 . S
O947 C940 1.259 . S
O948 Co932 2.117 . S
O948 C940 1.258 . S
O949 Co932 2.020 . S
O949 C946 1.256 . S
O950 Co930 2.062 . S
O950 C946 1.255 . S
O951 C931 1.259 . S
O951 Co932 2.021 . S
H952 C943 0.930 . S
H953 C942 0.931 . S
O954 Co930 2.117 . S
O954 C931 1.258 . S
O955 Co930 2.020 . S
O955 C957 1.256 . S
O956 Co932 2.062 . S
O956 C957 1.255 . S
C957 O955 1.256 . S
C957 O956 1.255 . S
H958 C937 0.931 . S
H959 C945 0.931 . S
H960 C966 0.930 . S
H961 C969 0.930 . S
H962 C970 0.930 . S
H963 C971 0.930 . S
H964 C974 0.930 . S
H965 C975 0.930 . S
C966 H960 0.930 . S
C966 C967 1.355 . S
C966 C968 1.415 . S
C967 C966 1.355 . S
C967 C969 1.419 . S
C968 C966 1.415 . S
C968 C973 1.425 . S
C968 C975 1.409 . S
C969 H961 0.930 . S
C969 C967 1.419 . S
C969 C970 1.362 . S
C970 H962 0.930 . S
C970 C969 1.362 . S
C970 C973 1.409 . S
C971 H963 0.930 . S
C971 C972 1.355 . S
C971 C973 1.415 . S
C972 C971 1.355 . S
C972 C974 1.419 . S
C973 C968 1.425 . S
C973 C970 1.409 . S
C973 C971 1.415 . S
C974 H964 0.930 . S
C974 C972 1.419 . S
C974 C975 1.362 . S
C975 H965 0.930 . S
C975 C968 1.409 . S
C975 C974 1.362 . S
H976 C982 0.930 . S
H977 C985 0.930 . S
H978 C986 0.930 . S
H979 C987 0.930 . S
H980 C990 0.930 . S
H981 C991 0.930 . S
C982 H976 0.930 . S
C982 C983 1.355 . S
C982 C984 1.415 . S
C983 C982 1.355 . S
C983 C985 1.419 . S
C984 C982 1.415 . S
C984 C989 1.425 . S
C984 C991 1.409 . S
C985 H977 0.930 . S
C985 C983 1.419 . S
C985 C986 1.362 . S
C986 H978 0.930 . S
C986 C985 1.362 . S
C986 C989 1.409 . S
C987 H979 0.930 . S
C987 C988 1.355 . S
C987 C989 1.415 . S
C988 C987 1.355 . S
C988 C990 1.419 . S
C989 C984 1.425 . S
C989 C986 1.409 . S
C989 C987 1.415 . S
C990 H980 0.930 . S
C990 C988 1.419 . S
C990 C991 1.362 . S
C991 H981 0.930 . S
C991 C984 1.409 . S
C991 C990 1.362 . S
H992 C998 0.930 . S
H993 C1001 0.930 . S
H994 C1002 0.930 . S
H995 C1003 0.930 . S
H996 C1006 0.930 . S
H997 C1007 0.930 . S
C998 H992 0.930 . S
C998 C999 1.355 . S
C998 C1000 1.415 . S
C999 C998 1.355 . S
C999 C1001 1.419 . S
C1000 C998 1.415 . S
C1000 C1005 1.425 . S
C1000 C1007 1.409 . S
C1001 H993 0.930 . S
C1001 C999 1.419 . S
C1001 C1002 1.362 . S
C1002 H994 0.930 . S
C1002 C1001 1.362 . S
C1002 C1005 1.409 . S
C1003 H995 0.930 . S
C1003 C1004 1.355 . S
C1003 C1005 1.415 . S
C1004 C1003 1.355 . S
C1004 C1006 1.419 . S
C1005 C1000 1.425 . S
C1005 C1002 1.409 . S
C1005 C1003 1.415 . S
C1006 H996 0.930 . S
C1006 C1004 1.419 . S
C1006 C1007 1.362 . S
C1007 H997 0.930 . S
C1007 C1000 1.409 . S
C1007 C1006 1.362 . S
H1008 C1014 0.930 . S
H1009 C1017 0.930 . S
H1010 C1018 0.930 . S
H1011 C1019 0.930 . S
H1012 C1022 0.930 . S
H1013 C1023 0.930 . S
C1014 H1008 0.930 . S
C1014 C1015 1.355 . S
C1014 C1016 1.415 . S
C1015 C1014 1.355 . S
C1015 C1017 1.419 . S
C1016 C1014 1.415 . S
C1016 C1021 1.425 . S
C1016 C1023 1.409 . S
C1017 H1009 0.930 . S
C1017 C1015 1.419 . S
C1017 C1018 1.362 . S
C1018 H1010 0.930 . S
C1018 C1017 1.362 . S
C1018 C1021 1.409 . S
C1019 H1011 0.930 . S
C1019 C1020 1.355 . S
C1019 C1021 1.415 . S
C1020 C1019 1.355 . S
C1020 C1022 1.419 . S
C1021 C1016 1.425 . S
C1021 C1018 1.409 . S
C1021 C1019 1.415 . S
C1022 H1012 0.930 . S
C1022 C1020 1.419 . S
C1022 C1023 1.362 . S
C1023 H1013 0.930 . S
C1023 C1016 1.409 . S
C1023 C1022 1.362 . S
H1024 C1030 0.930 . S
H1025 C1033 0.930 . S
H1026 C1034 0.934 . S
H1027 C1035 0.930 . S
H1028 C1038 0.930 . S
H1029 C1039 0.930 . S
C1030 H1024 0.930 . S
C1030 C1031 1.355 . S
C1030 C1032 1.415 . S
C1031 C1030 1.355 . S
C1031 C1033 1.419 . S
C1032 C1030 1.415 . S
C1032 C1037 1.425 . S
C1032 C1039 1.409 . S
C1033 H1025 0.930 . S
C1033 C1031 1.419 . S
C1033 C1034 1.362 . S
C1034 H1026 0.934 . S
C1034 C1033 1.362 . S
C1034 C1037 1.409 . S
C1035 H1027 0.930 . S
C1035 C1036 1.355 . S
C1035 C1037 1.415 . S
C1036 C1035 1.355 . S
C1036 C1038 1.419 . S
C1037 C1032 1.425 . S
C1037 C1034 1.409 . S
C1037 C1035 1.415 . S
C1038 H1028 0.930 . S
C1038 C1036 1.419 . S
C1038 C1039 1.362 . S
C1039 H1029 0.930 . S
C1039 C1032 1.409 . S
C1039 C1038 1.362 . S
H1040 C1046 0.930 . S
H1041 C1049 0.930 . S
H1042 C1050 0.930 . S
H1043 C1051 0.930 . S
H1044 C1054 0.930 . S
H1045 C1055 0.930 . S
C1046 H1040 0.930 . S
C1046 C1047 1.355 . S
C1046 C1048 1.415 . S
C1047 C1046 1.355 . S
C1047 C1049 1.419 . S
C1048 C1046 1.415 . S
C1048 C1053 1.425 . S
C1048 C1055 1.409 . S
C1049 H1041 0.930 . S
C1049 C1047 1.419 . S
C1049 C1050 1.362 . S
C1050 H1042 0.930 . S
C1050 C1049 1.362 . S
C1050 C1053 1.409 . S
C1051 H1043 0.930 . S
C1051 C1052 1.355 . S
C1051 C1053 1.415 . S
C1052 C1051 1.355 . S
C1052 C1054 1.419 . S
C1053 C1048 1.425 . S
C1053 C1050 1.409 . S
C1053 C1051 1.415 . S
C1054 H1044 0.930 . S
C1054 C1052 1.419 . S
C1054 C1055 1.362 . S
C1055 H1045 0.930 . S
C1055 C1048 1.409 . S
C1055 C1054 1.362 . S
H1056 C1062 0.930 . S
H1057 C1065 0.930 . S
H1058 C1066 0.930 . S
H1059 C1067 0.930 . S
H1060 C1070 0.930 . S
H1061 C1071 0.930 . S
C1062 H1056 0.930 . S
C1062 C1063 1.355 . S
C1062 C1064 1.415 . S
C1063 C1062 1.355 . S
C1063 C1065 1.419 . S
C1064 C1062 1.415 . S
C1064 C1069 1.425 . S
C1064 C1071 1.409 . S
C1065 H1057 0.930 . S
C1065 C1063 1.419 . S
C1065 C1066 1.362 . S
C1066 H1058 0.930 . S
C1066 C1065 1.362 . S
C1066 C1069 1.409 . S
C1067 H1059 0.930 . S
C1067 C1068 1.355 . S
C1067 C1069 1.415 . S
C1068 C1067 1.355 . S
C1068 C1070 1.419 . S
C1069 C1064 1.425 . S
C1069 C1066 1.409 . S
C1069 C1067 1.415 . S
C1070 H1060 0.930 . S
C1070 C1068 1.419 . S
C1070 C1071 1.362 . S
C1071 H1061 0.930 . S
C1071 C1064 1.409 . S
C1071 C1070 1.362 . S
H1072 C1078 0.930 . S
H1073 C1081 0.930 . S
H1074 C1082 0.930 . S
H1075 C1083 0.930 . S
H1076 C1086 0.930 . S
H1077 C1087 0.930 . S
C1078 H1072 0.930 . S
C1078 C1079 1.355 . S
C1078 C1080 1.415 . S
C1079 C1078 1.355 . S
C1079 C1081 1.419 . S
C1080 C1078 1.415 . S
C1080 C1085 1.425 . S
C1080 C1087 1.409 . S
C1081 H1073 0.930 . S
C1081 C1079 1.419 . S
C1081 C1082 1.362 . S
C1082 H1074 0.930 . S
C1082 C1081 1.362 . S
C1082 C1085 1.409 . S
C1083 H1075 0.930 . S
C1083 C1084 1.355 . S
C1083 C1085 1.415 . S
C1084 C1083 1.355 . S
C1084 C1086 1.419 . S
C1085 C1080 1.425 . S
C1085 C1082 1.409 . S
C1085 C1083 1.415 . S
C1086 H1076 0.930 . S
C1086 C1084 1.419 . S
C1086 C1087 1.362 . S
C1087 H1077 0.930 . S
C1087 C1080 1.409 . S
C1087 C1086 1.362 . S
H1088 C1094 0.930 . S
H1089 C1097 0.930 . S
H1090 C1098 0.930 . S
H1091 C1099 0.930 . S
H1092 C1102 0.930 . S
H1093 C1103 0.930 . S
C1094 H1088 0.930 . S
C1094 C1095 1.355 . S
C1094 C1096 1.415 . S
C1095 C1094 1.355 . S
C1095 C1097 1.419 . S
C1096 C1094 1.415 . S
C1096 C1101 1.425 . S
C1096 C1103 1.409 . S
C1097 H1089 0.930 . S
C1097 C1095 1.419 . S
C1097 C1098 1.362 . S
C1098 H1090 0.930 . S
C1098 C1097 1.362 . S
C1098 C1101 1.409 . S
C1099 H1091 0.930 . S
C1099 C1100 1.355 . S
C1099 C1101 1.415 . S
C1100 C1099 1.355 . S
C1100 C1102 1.419 . S
C1101 C1096 1.425 . S
C1101 C1098 1.409 . S
C1101 C1099 1.415 . S
C1102 H1092 0.930 . S
C1102 C1100 1.419 . S
C1102 C1103 1.362 . S
C1103 H1093 0.930 . S
C1103 C1096 1.409 . S
C1103 C1102 1.362 . S
H1104 C1110 0.930 . S
H1105 C1113 0.930 . S
H1106 C1114 0.930 . S
H1107 C1115 0.930 . S
H1108 C1118 0.930 . S
H1109 C1119 0.930 . S
C1110 H1104 0.930 . S
C1110 C1111 1.355 . S
C1110 C1112 1.415 . S
C1111 C1110 1.355 . S
C1111 C1113 1.419 . S
C1112 C1110 1.415 . S
C1112 C1117 1.425 . S
C1112 C1119 1.409 . S
C1113 H1105 0.930 . S
C1113 C1111 1.419 . S
C1113 C1114 1.362 . S
C1114 H1106 0.930 . S
C1114 C1113 1.362 . S
C1114 C1117 1.409 . S
C1115 H1107 0.930 . S
C1115 C1116 1.355 . S
C1115 C1117 1.415 . S
C1116 C1115 1.355 . S
C1116 C1118 1.419 . S
C1117 C1112 1.425 . S
C1117 C1114 1.409 . S
C1117 C1115 1.415 . S
C1118 H1108 0.930 . S
C1118 C1116 1.419 . S
C1118 C1119 1.362 . S
C1119 H1109 0.930 . S
C1119 C1112 1.409 . S
C1119 C1118 1.362 . S
H1120 C1126 0.930 . S
H1121 C1129 0.930 . S
H1122 C1130 0.930 . S
H1123 C1131 0.930 . S
H1124 C1134 0.930 . S
H1125 C1135 0.930 . S
C1126 H1120 0.930 . S
C1126 C1127 1.355 . S
C1126 C1128 1.415 . S
C1127 C1126 1.355 . S
C1127 C1129 1.419 . S
C1128 C1126 1.415 . S
C1128 C1133 1.425 . S
C1128 C1135 1.409 . S
C1129 H1121 0.930 . S
C1129 C1127 1.419 . S
C1129 C1130 1.362 . S
C1130 H1122 0.930 . S
C1130 C1129 1.362 . S
C1130 C1133 1.409 . S
C1131 H1123 0.930 . S
C1131 C1132 1.355 . S
C1131 C1133 1.415 . S
C1132 C1131 1.355 . S
C1132 C1134 1.419 . S
C1133 C1128 1.425 . S
C1133 C1130 1.409 . S
C1133 C1131 1.415 . S
C1134 H1124 0.930 . S
C1134 C1132 1.419 . S
C1134 C1135 1.362 . S
C1135 H1125 0.930 . S
C1135 C1128 1.409 . S
C1135 C1134 1.362 . S
H1136 C1142 0.930 . S
H1137 C1145 0.930 . S
H1138 C1146 0.930 . S
H1139 C1147 0.930 . S
H1140 C1150 0.930 . S
H1141 C1151 0.930 . S
C1142 H1136 0.930 . S
C1142 C1143 1.355 . S
C1142 C1144 1.415 . S
C1143 C1142 1.355 . S
C1143 C1145 1.419 . S
C1144 C1142 1.415 . S
C1144 C1149 1.425 . S
C1144 C1151 1.409 . S
C1145 H1137 0.930 . S
C1145 C1143 1.419 . S
C1145 C1146 1.362 . S
C1146 H1138 0.930 . S
C1146 C1145 1.362 . S
C1146 C1149 1.409 . S
C1147 H1139 0.930 . S
C1147 C1148 1.355 . S
C1147 C1149 1.415 . S
C1148 C1147 1.355 . S
C1148 C1150 1.419 . S
C1149 C1144 1.425 . S
C1149 C1146 1.409 . S
C1149 C1147 1.415 . S
C1150 H1140 0.930 . S
C1150 C1148 1.419 . S
C1150 C1151 1.362 . S
C1151 H1141 0.930 . S
C1151 C1144 1.409 . S
C1151 C1150 1.362 . S
H1152 C1158 0.930 . S
H1153 C1161 0.930 . S
H1154 C1162 0.930 . S
H1155 C1163 0.930 . S
H1156 C1166 0.930 . S
H1157 C1167 0.930 . S
C1158 H1152 0.930 . S
C1158 C1159 1.355 . S
C1158 C1160 1.415 . S
C1159 C1158 1.355 . S
C1159 C1161 1.419 . S
C1160 C1158 1.415 . S
C1160 C1165 1.425 . S
C1160 C1167 1.409 . S
C1161 H1153 0.930 . S
C1161 C1159 1.419 . S
C1161 C1162 1.362 . S
C1162 H1154 0.930 . S
C1162 C1161 1.362 . S
C1162 C1165 1.409 . S
C1163 H1155 0.930 . S
C1163 C1164 1.355 . S
C1163 C1165 1.415 . S
C1164 C1163 1.355 . S
C1164 C1166 1.419 . S
C1165 C1160 1.425 . S
C1165 C1162 1.409 . S
C1165 C1163 1.415 . S
C1166 H1156 0.930 . S
C1166 C1164 1.419 . S
C1166 C1167 1.362 . S
C1167 H1157 0.930 . S
C1167 C1160 1.409 . S
C1167 C1166 1.362 . S
H1168 C1174 0.930 . S
H1169 C1177 0.930 . S
H1170 C1178 0.930 . S
H1171 C1179 0.930 . S
H1172 C1182 0.930 . S
H1173 C1183 0.930 . S
C1174 H1168 0.930 . S
C1174 C1175 1.355 . S
C1174 C1176 1.415 . S
C1175 C1174 1.355 . S
C1175 C1177 1.419 . S
C1176 C1174 1.415 . S
C1176 C1181 1.425 . S
C1176 C1183 1.409 . S
C1177 H1169 0.930 . S
C1177 C1175 1.419 . S
C1177 C1178 1.362 . S
C1178 H1170 0.930 . S
C1178 C1177 1.362 . S
C1178 C1181 1.409 . S
C1179 H1171 0.930 . S
C1179 C1180 1.355 . S
C1179 C1181 1.415 . S
C1180 C1179 1.355 . S
C1180 C1182 1.419 . S
C1181 C1176 1.425 . S
C1181 C1178 1.409 . S
C1181 C1179 1.415 . S
C1182 H1172 0.930 . S
C1182 C1180 1.419 . S
C1182 C1183 1.362 . S
C1183 H1173 0.930 . S
C1183 C1176 1.409 . S
C1183 C1182 1.362 . S
H1184 C1190 0.930 . S
H1185 C1193 0.930 . S
H1186 C1194 0.930 . S
H1187 C1195 0.930 . S
H1188 C1198 0.930 . S
H1189 C1199 0.930 . S
C1190 H1184 0.930 . S
C1190 C1191 1.355 . S
C1190 C1192 1.415 . S
C1191 C1190 1.355 . S
C1191 C1193 1.419 . S
C1192 C1190 1.415 . S
C1192 C1197 1.425 . S
C1192 C1199 1.409 . S
C1193 H1185 0.930 . S
C1193 C1191 1.419 . S
C1193 C1194 1.362 . S
C1194 H1186 0.930 . S
C1194 C1193 1.362 . S
C1194 C1197 1.409 . S
C1195 H1187 0.930 . S
C1195 C1196 1.355 . S
C1195 C1197 1.415 . S
C1196 C1195 1.355 . S
C1196 C1198 1.419 . S
C1197 C1192 1.425 . S
C1197 C1194 1.409 . S
C1197 C1195 1.415 . S
C1198 H1188 0.930 . S
C1198 C1196 1.419 . S
C1198 C1199 1.362 . S
C1199 H1189 0.930 . S
C1199 C1192 1.409 . S
C1199 C1198 1.362 . S
H1200 C1206 0.930 . S
H1201 C1209 0.930 . S
H1202 C1210 0.930 . S
H1203 C1211 0.930 . S
H1204 C1214 0.930 . S
H1205 C1215 0.930 . S
C1206 H1200 0.930 . S
C1206 C1207 1.355 . S
C1206 C1208 1.415 . S
C1207 C1206 1.355 . S
C1207 C1209 1.419 . S
C1208 C1206 1.415 . S
C1208 C1213 1.425 . S
C1208 C1215 1.409 . S
C1209 H1201 0.930 . S
C1209 C1207 1.419 . S
C1209 C1210 1.362 . S
C1210 H1202 0.930 . S
C1210 C1209 1.362 . S
C1210 C1213 1.409 . S
C1211 H1203 0.930 . S
C1211 C1212 1.355 . S
C1211 C1213 1.415 . S
C1212 C1211 1.355 . S
C1212 C1214 1.419 . S
C1213 C1208 1.425 . S
C1213 C1210 1.409 . S
C1213 C1211 1.415 . S
C1214 H1204 0.930 . S
C1214 C1212 1.419 . S
C1214 C1215 1.362 . S
C1215 H1205 0.930 . S
C1215 C1208 1.409 . S
C1215 C1214 1.362 . S
H1216 C1222 0.930 . S
H1217 C1225 0.930 . S
H1218 C1226 0.930 . S
H1219 C1227 0.930 . S
H1220 C1230 0.930 . S
H1221 C1231 0.930 . S
C1222 H1216 0.930 . S
C1222 C1223 1.355 1_545 S
C1222 C1224 1.415 . S
C1223 C1222 1.355 1_565 S
C1223 C1225 1.419 . S
C1224 C1222 1.415 . S
C1224 C1229 1.425 1_545 S
C1224 C1231 1.409 . S
C1225 H1217 0.930 . S
C1225 C1223 1.419 . S
C1225 C1226 1.362 . S
C1226 H1218 0.930 . S
C1226 C1225 1.362 . S
C1226 C1229 1.409 . S
C1227 H1219 0.930 . S
C1227 C1228 1.355 1_565 S
C1227 C1229 1.415 . S
C1228 C1227 1.355 1_545 S
C1228 C1230 1.419 . S
C1229 C1224 1.425 1_565 S
C1229 C1226 1.409 . S
C1229 C1227 1.415 . S
C1230 H1220 0.930 . S
C1230 C1228 1.419 . S
C1230 C1231 1.362 . S
C1231 H1221 0.930 . S
C1231 C1224 1.409 . S
C1231 C1230 1.362 . S
H1232 C1238 0.930 . S
H1233 C1241 0.930 . S
H1234 C1242 0.930 . S
H1235 C1243 0.930 . S
H1236 C1246 0.930 . S
H1237 C1247 0.930 . S
C1238 H1232 0.930 . S
C1238 C1239 1.355 . S
C1238 C1240 1.415 1_455 S
C1239 C1238 1.355 . S
C1239 C1241 1.419 . S
C1240 C1238 1.415 1_655 S
C1240 C1245 1.425 1_655 S
C1240 C1247 1.409 . S
C1241 H1233 0.930 . S
C1241 C1239 1.419 . S
C1241 C1242 1.362 . S
C1242 H1234 0.930 . S
C1242 C1241 1.362 . S
C1242 C1245 1.409 . S
C1243 H1235 0.930 . S
C1243 C1244 1.355 . S
C1243 C1245 1.415 1_655 S
C1244 C1243 1.355 . S
C1244 C1246 1.419 . S
C1245 C1240 1.425 1_455 S
C1245 C1242 1.409 . S
C1245 C1243 1.415 1_455 S
C1246 H1236 0.930 . S
C1246 C1244 1.419 . S
C1246 C1247 1.362 . S
C1247 H1237 0.930 . S
C1247 C1240 1.409 . S
C1247 C1246 1.362 . S
H1248 C1254 0.930 . S
H1249 C1257 0.930 . S
H1250 C1258 0.930 . S
H1251 C1259 0.930 . S
H1252 C1262 0.930 . S
H1253 C1263 0.930 . S
C1254 H1248 0.930 . S
C1254 C1255 1.355 . S
C1254 C1256 1.415 . S
C1255 C1254 1.355 . S
C1255 C1257 1.419 . S
C1256 C1254 1.415 . S
C1256 C1261 1.425 1_556 S
C1256 C1263 1.409 . S
C1257 H1249 0.930 . S
C1257 C1255 1.419 . S
C1257 C1258 1.362 1_556 S
C1258 H1250 0.930 . S
C1258 C1257 1.362 1_554 S
C1258 C1261 1.409 . S
C1259 H1251 0.930 . S
C1259 C1260 1.355 . S
C1259 C1261 1.415 . S
C1260 C1259 1.355 . S
C1260 C1262 1.419 . S
C1261 C1256 1.425 1_554 S
C1261 C1258 1.409 . S
C1261 C1259 1.415 . S
C1262 H1252 0.930 . S
C1262 C1260 1.419 . S
C1262 C1263 1.362 1_554 S
C1263 H1253 0.930 . S
C1263 C1256 1.409 . S
C1263 C1262 1.362 1_556 S
H1264 C1270 0.915 1_556 S
H1265 C1273 0.930 . S
H1266 C1274 0.930 . S
H1267 C1275 0.915 1_554 S
H1268 C1278 0.930 . S
H1269 C1279 0.930 . S
C1270 H1264 0.915 1_554 S
C1270 C1271 1.355 . S
C1270 C1272 1.414 1_564 S
C1271 C1270 1.355 . S
C1271 C1273 1.419 . S
C1272 C1270 1.414 1_546 S
C1272 C1277 1.425 1_646 S
C1272 C1279 1.409 . S
C1273 H1265 0.930 . S
C1273 C1271 1.419 . S
C1273 C1274 1.362 1_655 S
C1274 H1266 0.930 . S
C1274 C1273 1.362 1_455 S
C1274 C1277 1.409 . S
C1275 H1267 0.915 1_556 S
C1275 C1276 1.355 . S
C1275 C1277 1.414 1_546 S
C1276 C1275 1.355 . S
C1276 C1278 1.419 . S
C1277 C1272 1.425 1_464 S
C1277 C1274 1.409 . S
C1277 C1275 1.414 1_564 S
C1278 H1268 0.930 . S
C1278 C1276 1.419 . S
C1278 C1279 1.362 1_455 S
C1279 H1269 0.930 . S
C1279 C1272 1.409 . S
C1279 C1278 1.362 1_655 S
H1280 C1286 0.930 . S
H1281 C1289 0.930 . S
H1282 C1290 0.930 . S
H1283 C1291 0.930 . S
H1284 C1294 0.930 . S
H1285 C1295 0.930 . S
C1286 H1280 0.930 . S
C1286 C1287 1.354 . S
C1286 C1288 1.415 . S
C1287 C1286 1.354 . S
C1287 C1289 1.420 1_545 S
C1288 C1286 1.415 . S
C1288 C1293 1.425 1_545 S
C1288 C1295 1.409 . S
C1289 H1281 0.930 . S
C1289 C1287 1.420 1_565 S
C1289 C1290 1.362 . S
C1290 H1282 0.930 . S
C1290 C1289 1.362 . S
C1290 C1293 1.409 . S
C1291 H1283 0.930 . S
C1291 C1292 1.354 . S
C1291 C1293 1.415 . S
C1292 C1291 1.354 . S
C1292 C1294 1.420 1_565 S
C1293 C1288 1.425 1_565 S
C1293 C1290 1.409 . S
C1293 C1291 1.415 . S
C1294 H1284 0.930 . S
C1294 C1292 1.420 1_545 S
C1294 C1295 1.362 . S
C1295 H1285 0.930 . S
C1295 C1288 1.409 . S
C1295 C1294 1.362 . S
H1296 C1302 0.930 . S
H1297 C1305 0.930 . S
H1298 C1306 0.930 . S
H1299 C1307 0.930 . S
H1300 C1310 0.930 . S
H1301 C1311 0.930 . S
C1302 H1296 0.930 . S
C1302 C1303 1.355 . S
C1302 C1304 1.415 1_455 S
C1303 C1302 1.355 . S
C1303 C1305 1.419 . S
C1304 C1302 1.415 1_655 S
C1304 C1309 1.425 1_655 S
C1304 C1311 1.409 . S
C1305 H1297 0.930 . S
C1305 C1303 1.419 . S
C1305 C1306 1.362 . S
C1306 H1298 0.930 . S
C1306 C1305 1.362 . S
C1306 C1309 1.409 . S
C1307 H1299 0.930 . S
C1307 C1308 1.355 . S
C1307 C1309 1.415 1_655 S
C1308 C1307 1.355 . S
C1308 C1310 1.419 . S
C1309 C1304 1.425 1_455 S
C1309 C1306 1.409 . S
C1309 C1307 1.415 1_455 S
C1310 H1300 0.930 . S
C1310 C1308 1.419 . S
C1310 C1311 1.362 . S
C1311 H1301 0.930 . S
C1311 C1304 1.409 . S
C1311 C1310 1.362 . S
H1312 C1318 0.930 . S
H1313 C1321 0.930 . S
H1314 C1322 0.933 . S
H1315 C1323 0.930 . S
H1316 C1326 0.930 . S
H1317 C1327 0.932 . S
C1318 H1312 0.930 . S
C1318 C1319 1.355 . S
C1318 C1320 1.415 . S
C1319 C1318 1.355 . S
C1319 C1321 1.419 . S
C1320 C1318 1.415 . S
C1320 C1325 1.425 1_556 S
C1320 C1327 1.410 . S
C1321 H1313 0.930 . S
C1321 C1319 1.419 . S
C1321 C1322 1.359 1_556 S
C1322 H1314 0.933 . S
C1322 C1321 1.359 1_554 S
C1322 C1325 1.410 . S
C1323 H1315 0.930 . S
C1323 C1324 1.355 . S
C1323 C1325 1.415 . S
C1324 C1323 1.355 . S
C1324 C1326 1.419 . S
C1325 C1320 1.425 1_554 S
C1325 C1322 1.410 . S
C1325 C1323 1.415 . S
C1326 H1316 0.930 . S
C1326 C1324 1.419 . S
C1326 C1327 1.359 1_554 S
C1327 H1317 0.932 . S
C1327 C1320 1.410 . S
C1327 C1326 1.359 1_556 S
H1328 C1334 0.930 . S
H1329 C1337 0.930 . S
H1330 C1338 0.930 . S
H1331 C1339 0.930 . S
H1332 C1342 0.930 . S
H1333 C1343 0.930 . S
C1334 H1328 0.930 . S
C1334 C1335 1.355 . S
C1334 C1336 1.415 . S
C1335 C1334 1.355 . S
C1335 C1337 1.419 . S
C1336 C1334 1.415 . S
C1336 C1341 1.425 . S
C1336 C1343 1.409 . S
C1337 H1329 0.930 . S
C1337 C1335 1.419 . S
C1337 C1338 1.362 . S
C1338 H1330 0.930 . S
C1338 C1337 1.362 . S
C1338 C1341 1.409 . S
C1339 H1331 0.930 . S
C1339 C1340 1.355 . S
C1339 C1341 1.415 . S
C1340 C1339 1.355 . S
C1340 C1342 1.419 . S
C1341 C1336 1.425 . S
C1341 C1338 1.409 . S
C1341 C1339 1.415 . S
C1342 H1332 0.930 . S
C1342 C1340 1.419 . S
C1342 C1343 1.362 . S
C1343 H1333 0.930 . S
C1343 C1336 1.409 . S
C1343 C1342 1.362 . S
H1344 C1350 0.930 . S
H1345 C1353 0.930 . S
H1346 C1354 0.930 . S
H1347 C1355 0.930 . S
H1348 C1358 0.930 . S
H1349 C1359 0.930 . S
C1350 H1344 0.930 . S
C1350 C1351 1.355 . S
C1350 C1352 1.415 . S
C1351 C1350 1.355 . S
C1351 C1353 1.419 . S
C1352 C1350 1.415 . S
C1352 C1357 1.425 . S
C1352 C1359 1.409 . S
C1353 H1345 0.930 . S
C1353 C1351 1.419 . S
C1353 C1354 1.362 . S
C1354 H1346 0.930 . S
C1354 C1353 1.362 . S
C1354 C1357 1.409 . S
C1355 H1347 0.930 . S
C1355 C1356 1.355 . S
C1355 C1357 1.415 . S
C1356 C1355 1.355 . S
C1356 C1358 1.419 . S
C1357 C1352 1.425 . S
C1357 C1354 1.409 . S
C1357 C1355 1.415 . S
C1358 H1348 0.930 . S
C1358 C1356 1.419 . S
C1358 C1359 1.362 . S
C1359 H1349 0.930 . S
C1359 C1352 1.409 . S
C1359 C1358 1.362 . S
H1360 C1366 0.930 . S
H1361 C1369 0.930 . S
H1362 C1370 0.930 . S
H1363 C1371 0.930 . S
H1364 C1374 0.930 . S
H1365 C1375 0.930 . S
C1366 H1360 0.930 . S
C1366 C1367 1.355 . S
C1366 C1368 1.415 . S
C1367 C1366 1.355 . S
C1367 C1369 1.419 . S
C1368 C1366 1.415 . S
C1368 C1373 1.425 1_455 S
C1368 C1375 1.409 . S
C1369 H1361 0.930 . S
C1369 C1367 1.419 . S
C1369 C1370 1.362 1_455 S
C1370 H1362 0.930 . S
C1370 C1369 1.362 1_655 S
C1370 C1373 1.409 . S
C1371 H1363 0.930 . S
C1371 C1372 1.355 . S
C1371 C1373 1.415 . S
C1372 C1371 1.355 . S
C1372 C1374 1.419 . S
C1373 C1368 1.425 1_655 S
C1373 C1370 1.409 . S
C1373 C1371 1.415 . S
C1374 H1364 0.930 . S
C1374 C1372 1.419 . S
C1374 C1375 1.362 1_655 S
C1375 H1365 0.930 . S
C1375 C1368 1.409 . S
C1375 C1374 1.362 1_455 S
H1376 C1382 0.930 . S
H1377 C1385 0.930 . S
H1378 C1386 0.930 . S
H1379 C1387 0.930 . S
H1380 C1390 0.930 . S
H1381 C1391 0.930 . S
C1382 H1376 0.930 . S
C1382 C1383 1.355 . S
C1382 C1384 1.415 . S
C1383 C1382 1.355 . S
C1383 C1385 1.419 . S
C1384 C1382 1.415 . S
C1384 C1389 1.425 . S
C1384 C1391 1.409 . S
C1385 H1377 0.930 . S
C1385 C1383 1.419 . S
C1385 C1386 1.362 . S
C1386 H1378 0.930 . S
C1386 C1385 1.362 . S
C1386 C1389 1.409 . S
C1387 H1379 0.930 . S
C1387 C1388 1.355 . S
C1387 C1389 1.415 . S
C1388 C1387 1.355 . S
C1388 C1390 1.419 . S
C1389 C1384 1.425 . S
C1389 C1386 1.409 . S
C1389 C1387 1.415 . S
C1390 H1380 0.930 . S
C1390 C1388 1.419 . S
C1390 C1391 1.362 . S
C1391 H1381 0.930 . S
C1391 C1384 1.409 . S
C1391 C1390 1.362 . S
H1392 C1398 0.930 . S
H1393 C1401 0.930 . S
H1394 C1402 0.930 . S
H1395 C1403 0.930 . S
H1396 C1406 0.930 . S
H1397 C1407 0.930 . S
C1398 H1392 0.930 . S
C1398 C1399 1.355 . S
C1398 C1400 1.415 . S
C1399 C1398 1.355 . S
C1399 C1401 1.419 . S
C1400 C1398 1.415 . S
C1400 C1405 1.425 . S
C1400 C1407 1.409 . S
C1401 H1393 0.930 . S
C1401 C1399 1.419 . S
C1401 C1402 1.362 . S
C1402 H1394 0.930 . S
C1402 C1401 1.362 . S
C1402 C1405 1.409 . S
C1403 H1395 0.930 . S
C1403 C1404 1.355 . S
C1403 C1405 1.415 . S
C1404 C1403 1.355 . S
C1404 C1406 1.419 . S
C1405 C1400 1.425 . S
C1405 C1402 1.409 . S
C1405 C1403 1.415 . S
C1406 H1396 0.930 . S
C1406 C1404 1.419 . S
C1406 C1407 1.362 . S
C1407 H1397 0.930 . S
C1407 C1400 1.409 . S
C1407 C1406 1.362 . S
H1408 C1414 0.930 . S
H1409 C1417 0.930 . S
H1410 C1418 0.930 . S
H1411 C1419 0.930 . S
H1412 C1422 0.930 . S
H1413 C1423 0.930 . S
C1414 H1408 0.930 . S
C1414 C1415 1.355 . S
C1414 C1416 1.415 . S
C1415 C1414 1.355 . S
C1415 C1417 1.419 . S
C1416 C1414 1.415 . S
C1416 C1421 1.425 . S
C1416 C1423 1.409 . S
C1417 H1409 0.930 . S
C1417 C1415 1.419 . S
C1417 C1418 1.362 . S
C1418 H1410 0.930 . S
C1418 C1417 1.362 . S
C1418 C1421 1.409 . S
C1419 H1411 0.930 . S
C1419 C1420 1.355 . S
C1419 C1421 1.415 . S
C1420 C1419 1.355 . S
C1420 C1422 1.419 . S
C1421 C1416 1.425 . S
C1421 C1418 1.409 . S
C1421 C1419 1.415 . S
C1422 H1412 0.930 . S
C1422 C1420 1.419 . S
C1422 C1423 1.362 . S
C1423 H1413 0.930 . S
C1423 C1416 1.409 . S
C1423 C1422 1.362 . S
H1424 C1430 0.930 . S
H1425 C1433 0.930 . S
H1426 C1434 0.930 . S
H1427 C1435 0.930 . S
H1428 C1438 0.930 . S
H1429 C1439 0.930 . S
C1430 H1424 0.930 . S
C1430 C1431 1.324 1_565 S
C1430 C1432 1.415 . S
C1431 C1430 1.324 1_545 S
C1431 C1433 1.460 . S
C1432 C1430 1.415 . S
C1432 C1437 1.425 1_565 S
C1432 C1439 1.409 . S
C1433 H1425 0.930 . S
C1433 C1431 1.460 . S
C1433 C1434 1.362 . S
C1434 H1426 0.930 . S
C1434 C1433 1.362 . S
C1434 C1437 1.409 . S
C1435 H1427 0.930 . S
C1435 C1436 1.324 1_545 S
C1435 C1437 1.415 . S
C1436 C1435 1.324 1_565 S
C1436 C1438 1.460 . S
C1437 C1432 1.425 1_545 S
C1437 C1434 1.409 . S
C1437 C1435 1.415 . S
C1438 H1428 0.930 . S
C1438 C1436 1.460 . S
C1438 C1439 1.362 . S
C1439 H1429 0.930 . S
C1439 C1432 1.409 . S
C1439 C1438 1.362 . S
H1440 C1446 0.930 . S
H1441 C1449 0.930 . S
H1442 C1450 0.930 . S
H1443 C1451 0.930 . S
H1444 C1454 0.930 . S
H1445 C1455 0.930 . S
C1446 H1440 0.930 . S
C1446 C1447 1.355 . S
C1446 C1448 1.415 . S
C1447 C1446 1.355 . S
C1447 C1449 1.419 . S
C1448 C1446 1.415 . S
C1448 C1453 1.425 . S
C1448 C1455 1.409 . S
C1449 H1441 0.930 . S
C1449 C1447 1.419 . S
C1449 C1450 1.362 . S
C1450 H1442 0.930 . S
C1450 C1449 1.362 . S
C1450 C1453 1.409 . S
C1451 H1443 0.930 . S
C1451 C1452 1.355 . S
C1451 C1453 1.415 . S
C1452 C1451 1.355 . S
C1452 C1454 1.419 . S
C1453 C1448 1.425 . S
C1453 C1450 1.409 . S
C1453 C1451 1.415 . S
C1454 H1444 0.930 . S
C1454 C1452 1.419 . S
C1454 C1455 1.362 . S
C1455 H1445 0.930 . S
C1455 C1448 1.409 . S
C1455 C1454 1.362 . S
H1456 C1462 0.916 1_556 S
H1457 C1465 0.930 . S
H1458 C1466 0.930 . S
H1459 C1467 0.916 1_554 S
H1460 C1470 0.930 . S
H1461 C1471 0.930 . S
C1462 H1456 0.916 1_554 S
C1462 C1463 1.355 . S
C1462 C1464 1.415 1_554 S
C1463 C1462 1.355 . S
C1463 C1465 1.419 . S
C1464 C1462 1.415 1_556 S
C1464 C1469 1.425 1_556 S
C1464 C1471 1.409 . S
C1465 H1457 0.930 . S
C1465 C1463 1.419 . S
C1465 C1466 1.362 . S
C1466 H1458 0.930 . S
C1466 C1465 1.362 . S
C1466 C1469 1.409 . S
C1467 H1459 0.916 1_556 S
C1467 C1468 1.355 . S
C1467 C1469 1.415 1_556 S
C1468 C1467 1.355 . S
C1468 C1470 1.419 . S
C1469 C1464 1.425 1_554 S
C1469 C1466 1.409 . S
C1469 C1467 1.415 1_554 S
C1470 H1460 0.930 . S
C1470 C1468 1.419 . S
C1470 C1471 1.362 . S
C1471 H1461 0.930 . S
C1471 C1464 1.409 . S
C1471 C1470 1.362 . S
H1472 C1478 0.930 . S
H1473 C1481 0.930 . S
H1474 C1482 0.930 . S
H1475 C1483 0.930 . S
H1476 C1486 0.930 . S
H1477 C1487 0.930 . S
C1478 H1472 0.930 . S
C1478 C1479 1.355 1_565 S
C1478 C1480 1.415 . S
C1479 C1478 1.355 1_545 S
C1479 C1481 1.419 . S
C1480 C1478 1.415 . S
C1480 C1485 1.425 1_565 S
C1480 C1487 1.409 . S
C1481 H1473 0.930 . S
C1481 C1479 1.419 . S
C1481 C1482 1.362 . S
C1482 H1474 0.930 . S
C1482 C1481 1.362 . S
C1482 C1485 1.409 . S
C1483 H1475 0.930 . S
C1483 C1484 1.355 . S
C1483 C1485 1.415 . S
C1484 C1483 1.355 . S
C1484 C1486 1.419 1_545 S
C1485 C1480 1.425 1_545 S
C1485 C1482 1.409 . S
C1485 C1483 1.415 . S
C1486 H1476 0.930 . S
C1486 C1484 1.419 1_565 S
C1486 C1487 1.362 . S
C1487 H1477 0.930 . S
C1487 C1480 1.409 . S
C1487 C1486 1.362 . S
H1488 C1494 0.930 . S
H1489 C1497 0.930 . S
H1490 C1498 0.930 . S
H1491 C1499 0.930 . S
H1492 C1502 0.930 . S
H1493 C1503 0.930 . S
C1494 H1488 0.930 . S
C1494 C1495 1.355 . S
C1494 C1496 1.415 . S
C1495 C1494 1.355 . S
C1495 C1497 1.419 . S
C1496 C1494 1.415 . S
C1496 C1501 1.425 . S
C1496 C1503 1.409 . S
C1497 H1489 0.930 . S
C1497 C1495 1.419 . S
C1497 C1498 1.362 . S
C1498 H1490 0.930 . S
C1498 C1497 1.362 . S
C1498 C1501 1.409 . S
C1499 H1491 0.930 . S
C1499 C1500 1.355 . S
C1499 C1501 1.415 . S
C1500 C1499 1.355 . S
C1500 C1502 1.419 . S
C1501 C1496 1.425 . S
C1501 C1498 1.409 . S
C1501 C1499 1.415 . S
C1502 H1492 0.930 . S
C1502 C1500 1.419 . S
C1502 C1503 1.362 . S
C1503 H1493 0.930 . S
C1503 C1496 1.409 . S
C1503 C1502 1.362 . S
H1504 C1510 0.930 . S
H1505 C1513 0.930 . S
H1506 C1514 0.930 . S
H1507 C1515 0.930 . S
H1508 C1518 0.930 . S
H1509 C1519 0.930 . S
C1510 H1504 0.930 . S
C1510 C1511 1.355 . S
C1510 C1512 1.415 . S
C1511 C1510 1.355 . S
C1511 C1513 1.419 . S
C1512 C1510 1.415 . S
C1512 C1517 1.425 . S
C1512 C1519 1.409 . S
C1513 H1505 0.930 . S
C1513 C1511 1.419 . S
C1513 C1514 1.362 . S
C1514 H1506 0.930 . S
C1514 C1513 1.362 . S
C1514 C1517 1.409 . S
C1515 H1507 0.930 . S
C1515 C1516 1.355 . S
C1515 C1517 1.415 . S
C1516 C1515 1.355 . S
C1516 C1518 1.419 . S
C1517 C1512 1.425 . S
C1517 C1514 1.409 . S
C1517 C1515 1.415 . S
C1518 H1508 0.930 . S
C1518 C1516 1.419 . S
C1518 C1519 1.362 . S
C1519 H1509 0.930 . S
C1519 C1512 1.409 . S
C1519 C1518 1.362 . S
H1520 C1526 0.930 . S
H1521 C1529 0.930 . S
H1522 C1530 0.930 . S
H1523 C1531 0.930 . S
H1524 C1534 0.930 . S
H1525 C1535 0.930 . S
C1526 H1520 0.930 . S
C1526 C1527 1.355 1_565 S
C1526 C1528 1.415 . S
C1527 C1526 1.355 1_545 S
C1527 C1529 1.419 . S
C1528 C1526 1.415 . S
C1528 C1533 1.425 1_565 S
C1528 C1535 1.409 . S
C1529 H1521 0.930 . S
C1529 C1527 1.419 . S
C1529 C1530 1.362 . S
C1530 H1522 0.930 . S
C1530 C1529 1.362 . S
C1530 C1533 1.409 . S
C1531 H1523 0.930 . S
C1531 C1532 1.355 . S
C1531 C1533 1.415 . S
C1532 C1531 1.355 . S
C1532 C1534 1.419 1_545 S
C1533 C1528 1.425 1_545 S
C1533 C1530 1.409 . S
C1533 C1531 1.415 . S
C1534 H1524 0.930 . S
C1534 C1532 1.419 1_565 S
C1534 C1535 1.362 . S
C1535 H1525 0.930 . S
C1535 C1528 1.409 . S
C1535 C1534 1.362 . S
H1536 C1542 0.930 . S
H1537 C1545 0.930 . S
H1538 C1546 0.930 . S
H1539 C1547 0.930 . S
H1540 C1550 0.930 . S
H1541 C1551 0.930 . S
C1542 H1536 0.930 . S
C1542 C1543 1.355 . S
C1542 C1544 1.415 . S
C1543 C1542 1.355 . S
C1543 C1545 1.419 . S
C1544 C1542 1.415 . S
C1544 C1549 1.425 . S
C1544 C1551 1.409 . S
C1545 H1537 0.930 . S
C1545 C1543 1.419 . S
C1545 C1546 1.362 . S
C1546 H1538 0.930 . S
C1546 C1545 1.362 . S
C1546 C1549 1.409 . S
C1547 H1539 0.930 . S
C1547 C1548 1.355 . S
C1547 C1549 1.415 . S
C1548 C1547 1.355 . S
C1548 C1550 1.419 . S
C1549 C1544 1.425 . S
C1549 C1546 1.409 . S
C1549 C1547 1.415 . S
C1550 H1540 0.930 . S
C1550 C1548 1.419 . S
C1550 C1551 1.362 . S
C1551 H1541 0.930 . S
C1551 C1544 1.409 . S
C1551 C1550 1.362 . S
H1552 C1558 0.930 . S
H1553 C1561 0.930 . S
H1554 C1562 0.930 . S
H1555 C1563 0.930 . S
H1556 C1566 0.930 . S
H1557 C1567 0.930 . S
C1558 H1552 0.930 . S
C1558 C1559 1.355 . S
C1558 C1560 1.415 . S
C1559 C1558 1.355 . S
C1559 C1561 1.419 . S
C1560 C1558 1.415 . S
C1560 C1565 1.425 . S
C1560 C1567 1.409 . S
C1561 H1553 0.930 . S
C1561 C1559 1.419 . S
C1561 C1562 1.362 . S
C1562 H1554 0.930 . S
C1562 C1561 1.362 . S
C1562 C1565 1.409 . S
C1563 H1555 0.930 . S
C1563 C1564 1.355 . S
C1563 C1565 1.415 . S
C1564 C1563 1.355 . S
C1564 C1566 1.419 . S
C1565 C1560 1.425 . S
C1565 C1562 1.409 . S
C1565 C1563 1.415 . S
C1566 H1556 0.930 . S
C1566 C1564 1.419 . S
C1566 C1567 1.362 . S
C1567 H1557 0.930 . S
C1567 C1560 1.409 . S
C1567 C1566 1.362 . S
H1568 C1574 0.930 . S
H1569 C1577 0.930 . S
H1570 C1578 0.930 . S
H1571 C1579 0.930 . S
H1572 C1582 0.930 . S
H1573 C1583 0.930 . S
C1574 H1568 0.930 . S
C1574 C1575 1.355 . S
C1574 C1576 1.415 . S
C1575 C1574 1.355 . S
C1575 C1577 1.419 . S
C1576 C1574 1.415 . S
C1576 C1581 1.425 . S
C1576 C1583 1.409 . S
C1577 H1569 0.930 . S
C1577 C1575 1.419 . S
C1577 C1578 1.362 . S
C1578 H1570 0.930 . S
C1578 C1577 1.362 . S
C1578 C1581 1.409 . S
C1579 H1571 0.930 . S
C1579 C1580 1.355 . S
C1579 C1581 1.415 . S
C1580 C1579 1.355 . S
C1580 C1582 1.419 . S
C1581 C1576 1.425 . S
C1581 C1578 1.409 . S
C1581 C1579 1.415 . S
C1582 H1572 0.930 . S
C1582 C1580 1.419 . S
C1582 C1583 1.362 . S
C1583 H1573 0.930 . S
C1583 C1576 1.409 . S
C1583 C1582 1.362 . S
H1584 C1590 0.930 . S
H1585 C1593 0.930 . S
H1586 C1594 0.930 . S
H1587 C1595 0.930 . S
H1588 C1598 0.930 . S
H1589 C1599 0.930 . S
C1590 H1584 0.930 . S
C1590 C1591 1.355 . S
C1590 C1592 1.415 . S
C1591 C1590 1.355 . S
C1591 C1593 1.419 1_565 S
C1592 C1590 1.415 . S
C1592 C1597 1.435 . S
C1592 C1599 1.409 . S
C1593 H1585 0.930 . S
C1593 C1591 1.419 1_545 S
C1593 C1594 1.362 . S
C1594 H1586 0.930 . S
C1594 C1593 1.362 . S
C1594 C1597 1.402 1_545 S
C1595 H1587 0.930 . S
C1595 C1596 1.355 1_545 S
C1595 C1597 1.413 1_545 S
C1596 C1595 1.355 1_565 S
C1596 C1598 1.419 . S
C1597 C1592 1.435 . S
C1597 C1594 1.402 1_565 S
C1597 C1595 1.413 1_565 S
C1598 H1588 0.930 . S
C1598 C1596 1.419 . S
C1598 C1599 1.362 . S
C1599 H1589 0.930 . S
C1599 C1592 1.409 . S
C1599 C1598 1.362 . S
H1600 C1606 0.930 . S
H1601 C1609 0.930 . S
H1602 C1610 0.930 . S
H1603 C1611 0.930 . S
H1604 C1614 0.930 . S
H1605 C1615 0.930 . S
C1606 H1600 0.930 . S
C1606 C1607 1.355 . S
C1606 C1608 1.415 . S
C1607 C1606 1.355 . S
C1607 C1609 1.419 . S
C1608 C1606 1.415 . S
C1608 C1613 1.425 . S
C1608 C1615 1.409 . S
C1609 H1601 0.930 . S
C1609 C1607 1.419 . S
C1609 C1610 1.362 . S
C1610 H1602 0.930 . S
C1610 C1609 1.362 . S
C1610 C1613 1.409 . S
C1611 H1603 0.930 . S
C1611 C1612 1.355 . S
C1611 C1613 1.415 . S
C1612 C1611 1.355 . S
C1612 C1614 1.419 . S
C1613 C1608 1.425 . S
C1613 C1610 1.409 . S
C1613 C1611 1.415 . S
C1614 H1604 0.930 . S
C1614 C1612 1.419 . S
C1614 C1615 1.362 . S
C1615 H1605 0.930 . S
C1615 C1608 1.409 . S
C1615 C1614 1.362 . S
H1616 C1622 0.930 . S
H1617 C1625 0.930 . S
H1618 C1626 0.930 . S
H1619 C1627 0.930 . S
H1620 C1630 0.930 . S
H1621 C1631 0.930 . S
C1622 H1616 0.930 . S
C1622 C1623 1.355 . S
C1622 C1624 1.415 . S
C1623 C1622 1.355 . S
C1623 C1625 1.419 . S
C1624 C1622 1.415 . S
C1624 C1629 1.425 . S
C1624 C1631 1.409 . S
C1625 H1617 0.930 . S
C1625 C1623 1.419 . S
C1625 C1626 1.362 . S
C1626 H1618 0.930 . S
C1626 C1625 1.362 . S
C1626 C1629 1.409 . S
C1627 H1619 0.930 . S
C1627 C1628 1.355 . S
C1627 C1629 1.415 . S
C1628 C1627 1.355 . S
C1628 C1630 1.419 . S
C1629 C1624 1.425 . S
C1629 C1626 1.409 . S
C1629 C1627 1.415 . S
C1630 H1620 0.930 . S
C1630 C1628 1.419 . S
C1630 C1631 1.362 . S
C1631 H1621 0.930 . S
C1631 C1624 1.409 . S
C1631 C1630 1.362 . S
H1632 C1638 0.930 . S
H1633 C1641 0.930 . S
H1634 C1642 0.930 . S
H1635 C1643 0.930 . S
H1636 C1646 0.930 . S
H1637 C1647 0.930 . S
C1638 H1632 0.930 . S
C1638 C1639 1.355 . S
C1638 C1640 1.415 . S
C1639 C1638 1.355 . S
C1639 C1641 1.419 . S
C1640 C1638 1.415 . S
C1640 C1645 1.425 . S
C1640 C1647 1.409 . S
C1641 H1633 0.930 . S
C1641 C1639 1.419 . S
C1641 C1642 1.362 . S
C1642 H1634 0.930 . S
C1642 C1641 1.362 . S
C1642 C1645 1.409 . S
C1643 H1635 0.930 . S
C1643 C1644 1.355 . S
C1643 C1645 1.415 . S
C1644 C1643 1.355 . S
C1644 C1646 1.419 . S
C1645 C1640 1.425 . S
C1645 C1642 1.409 . S
C1645 C1643 1.415 . S
C1646 H1636 0.930 . S
C1646 C1644 1.419 . S
C1646 C1647 1.362 . S
C1647 H1637 0.930 . S
C1647 C1640 1.409 . S
C1647 C1646 1.362 . S
H1648 C1654 0.930 . S
H1649 C1657 0.930 . S
H1650 C1658 0.930 . S
H1651 C1659 0.930 . S
H1652 C1662 0.930 . S
H1653 C1663 0.930 . S
C1654 H1648 0.930 . S
C1654 C1655 1.355 . S
C1654 C1656 1.415 . S
C1655 C1654 1.355 . S
C1655 C1657 1.419 . S
C1656 C1654 1.415 . S
C1656 C1661 1.425 . S
C1656 C1663 1.409 . S
C1657 H1649 0.930 . S
C1657 C1655 1.419 . S
C1657 C1658 1.362 . S
C1658 H1650 0.930 . S
C1658 C1657 1.362 . S
C1658 C1661 1.409 . S
C1659 H1651 0.930 . S
C1659 C1660 1.355 . S
C1659 C1661 1.415 . S
C1660 C1659 1.355 . S
C1660 C1662 1.419 . S
C1661 C1656 1.425 . S
C1661 C1658 1.409 . S
C1661 C1659 1.415 . S
C1662 H1652 0.930 . S
C1662 C1660 1.419 . S
C1662 C1663 1.362 . S
C1663 H1653 0.930 . S
C1663 C1656 1.409 . S
C1663 C1662 1.362 . S
H1664 C1670 0.930 . S
H1665 C1673 0.930 . S
H1666 C1674 0.930 . S
H1667 C1675 0.930 . S
H1668 C1678 0.930 . S
H1669 C1679 0.930 . S
C1670 H1664 0.930 . S
C1670 C1671 1.355 . S
C1670 C1672 1.415 . S
C1671 C1670 1.355 . S
C1671 C1673 1.419 . S
C1672 C1670 1.415 . S
C1672 C1677 1.425 . S
C1672 C1679 1.409 . S
C1673 H1665 0.930 . S
C1673 C1671 1.419 . S
C1673 C1674 1.362 . S
C1674 H1666 0.930 . S
C1674 C1673 1.362 . S
C1674 C1677 1.409 . S
C1675 H1667 0.930 . S
C1675 C1676 1.355 . S
C1675 C1677 1.415 . S
C1676 C1675 1.355 . S
C1676 C1678 1.419 . S
C1677 C1672 1.425 . S
C1677 C1674 1.409 . S
C1677 C1675 1.415 . S
C1678 H1668 0.930 . S
C1678 C1676 1.419 . S
C1678 C1679 1.362 . S
C1679 H1669 0.930 . S
C1679 C1672 1.409 . S
C1679 C1678 1.362 . S
H1680 C1686 0.930 . S
H1681 C1689 0.930 . S
H1682 C1690 0.930 . S
H1683 C1691 0.930 . S
H1684 C1694 0.930 . S
H1685 C1695 0.930 . S
C1686 H1680 0.930 . S
C1686 C1687 1.355 . S
C1686 C1688 1.415 . S
C1687 C1686 1.355 . S
C1687 C1689 1.419 . S
C1688 C1686 1.415 . S
C1688 C1693 1.425 . S
C1688 C1695 1.409 . S
C1689 H1681 0.930 . S
C1689 C1687 1.419 . S
C1689 C1690 1.362 . S
C1690 H1682 0.930 . S
C1690 C1689 1.362 . S
C1690 C1693 1.409 . S
C1691 H1683 0.930 . S
C1691 C1692 1.355 . S
C1691 C1693 1.415 . S
C1692 C1691 1.355 . S
C1692 C1694 1.419 . S
C1693 C1688 1.425 . S
C1693 C1690 1.409 . S
C1693 C1691 1.415 . S
C1694 H1684 0.930 . S
C1694 C1692 1.419 . S
C1694 C1695 1.362 . S
C1695 H1685 0.930 . S
C1695 C1688 1.409 . S
C1695 C1694 1.362 . S
H1696 C1702 0.930 . S
H1697 C1705 0.930 . S
H1698 C1706 0.930 . S
H1699 C1707 0.930 . S
H1700 C1710 0.930 . S
H1701 C1711 0.930 . S
C1702 H1696 0.930 . S
C1702 C1703 1.355 . S
C1702 C1704 1.415 . S
C1703 C1702 1.355 . S
C1703 C1705 1.419 . S
C1704 C1702 1.415 . S
C1704 C1709 1.425 . S
C1704 C1711 1.409 . S
C1705 H1697 0.930 . S
C1705 C1703 1.419 . S
C1705 C1706 1.362 . S
C1706 H1698 0.930 . S
C1706 C1705 1.362 . S
C1706 C1709 1.409 . S
C1707 H1699 0.930 . S
C1707 C1708 1.355 . S
C1707 C1709 1.415 . S
C1708 C1707 1.355 . S
C1708 C1710 1.419 . S
C1709 C1704 1.425 . S
C1709 C1706 1.409 . S
C1709 C1707 1.415 . S
C1710 H1700 0.930 . S
C1710 C1708 1.419 . S
C1710 C1711 1.362 . S
C1711 H1701 0.930 . S
C1711 C1704 1.409 . S
C1711 C1710 1.362 . S
H1712 C1718 0.930 . S
H1713 C1721 0.930 . S
H1714 C1722 0.930 . S
H1715 C1723 0.930 . S
H1716 C1726 0.930 . S
H1717 C1727 0.930 . S
C1718 H1712 0.930 . S
C1718 C1719 1.355 . S
C1718 C1720 1.415 . S
C1719 C1718 1.355 . S
C1719 C1721 1.419 . S
C1720 C1718 1.415 . S
C1720 C1725 1.425 . S
C1720 C1727 1.409 . S
C1721 H1713 0.930 . S
C1721 C1719 1.419 . S
C1721 C1722 1.362 . S
C1722 H1714 0.930 . S
C1722 C1721 1.362 . S
C1722 C1725 1.409 . S
C1723 H1715 0.930 . S
C1723 C1724 1.355 . S
C1723 C1725 1.415 . S
C1724 C1723 1.355 . S
C1724 C1726 1.419 . S
C1725 C1720 1.425 . S
C1725 C1722 1.409 . S
C1725 C1723 1.415 . S
C1726 H1716 0.930 . S
C1726 C1724 1.419 . S
C1726 C1727 1.362 . S
C1727 H1717 0.930 . S
C1727 C1720 1.409 . S
C1727 C1726 1.362 . S
H1728 C1734 0.930 . S
H1729 C1737 0.930 . S
H1730 C1738 0.930 . S
H1731 C1739 0.930 . S
H1732 C1742 0.930 . S
H1733 C1743 0.930 . S
C1734 H1728 0.930 . S
C1734 C1735 1.355 . S
C1734 C1736 1.415 . S
C1735 C1734 1.355 . S
C1735 C1737 1.419 . S
C1736 C1734 1.415 . S
C1736 C1741 1.425 . S
C1736 C1743 1.409 . S
C1737 H1729 0.930 . S
C1737 C1735 1.419 . S
C1737 C1738 1.362 . S
C1738 H1730 0.930 . S
C1738 C1737 1.362 . S
C1738 C1741 1.409 . S
C1739 H1731 0.930 . S
C1739 C1740 1.355 . S
C1739 C1741 1.415 . S
C1740 C1739 1.355 . S
C1740 C1742 1.419 . S
C1741 C1736 1.425 . S
C1741 C1738 1.409 . S
C1741 C1739 1.415 . S
C1742 H1732 0.930 . S
C1742 C1740 1.419 . S
C1742 C1743 1.362 . S
C1743 H1733 0.930 . S
C1743 C1736 1.409 . S
C1743 C1742 1.362 . S
H1744 C1750 0.930 . S
H1745 C1753 0.930 . S
H1746 C1754 0.930 . S
H1747 C1755 0.930 . S
H1748 C1758 0.930 . S
H1749 C1759 0.930 . S
C1750 H1744 0.930 . S
C1750 C1751 1.355 . S
C1750 C1752 1.415 . S
C1751 C1750 1.355 . S
C1751 C1753 1.419 . S
C1752 C1750 1.415 . S
C1752 C1757 1.425 . S
C1752 C1759 1.409 . S
C1753 H1745 0.930 . S
C1753 C1751 1.419 . S
C1753 C1754 1.362 . S
C1754 H1746 0.930 . S
C1754 C1753 1.362 . S
C1754 C1757 1.409 . S
C1755 H1747 0.930 . S
C1755 C1756 1.355 . S
C1755 C1757 1.415 . S
C1756 C1755 1.355 . S
C1756 C1758 1.419 . S
C1757 C1752 1.425 . S
C1757 C1754 1.409 . S
C1757 C1755 1.415 . S
C1758 H1748 0.930 . S
C1758 C1756 1.419 . S
C1758 C1759 1.362 . S
C1759 H1749 0.930 . S
C1759 C1752 1.409 . S
C1759 C1758 1.362 . S
H1760 C1766 0.930 . S
H1761 C1769 0.930 . S
H1762 C1770 0.930 . S
H1763 C1771 0.930 . S
H1764 C1774 0.930 . S
H1765 C1775 0.930 . S
C1766 H1760 0.930 . S
C1766 C1767 1.355 . S
C1766 C1768 1.415 . S
C1767 C1766 1.355 . S
C1767 C1769 1.419 . S
C1768 C1766 1.415 . S
C1768 C1773 1.425 . S
C1768 C1775 1.409 . S
C1769 H1761 0.930 . S
C1769 C1767 1.419 . S
C1769 C1770 1.362 . S
C1770 H1762 0.930 . S
C1770 C1769 1.362 . S
C1770 C1773 1.409 . S
C1771 H1763 0.930 . S
C1771 C1772 1.355 . S
C1771 C1773 1.415 . S
C1772 C1771 1.355 . S
C1772 C1774 1.419 . S
C1773 C1768 1.425 . S
C1773 C1770 1.409 . S
C1773 C1771 1.415 . S
C1774 H1764 0.930 . S
C1774 C1772 1.419 . S
C1774 C1775 1.362 . S
C1775 H1765 0.930 . S
C1775 C1768 1.409 . S
C1775 C1774 1.362 . S
H1776 C1782 0.930 . S
H1777 C1785 0.930 . S
H1778 C1786 0.930 . S
H1779 C1787 0.930 . S
H1780 C1790 0.930 . S
H1781 C1791 0.930 . S
C1782 H1776 0.930 . S
C1782 C1783 1.355 . S
C1782 C1784 1.415 . S
C1783 C1782 1.355 . S
C1783 C1785 1.419 . S
C1784 C1782 1.415 . S
C1784 C1789 1.425 . S
C1784 C1791 1.409 . S
C1785 H1777 0.930 . S
C1785 C1783 1.419 . S
C1785 C1786 1.362 . S
C1786 H1778 0.930 . S
C1786 C1785 1.362 . S
C1786 C1789 1.409 . S
C1787 H1779 0.930 . S
C1787 C1788 1.355 . S
C1787 C1789 1.415 . S
C1788 C1787 1.355 . S
C1788 C1790 1.419 . S
C1789 C1784 1.425 . S
C1789 C1786 1.409 . S
C1789 C1787 1.415 . S
C1790 H1780 0.930 . S
C1790 C1788 1.419 . S
C1790 C1791 1.362 . S
C1791 H1781 0.930 . S
C1791 C1784 1.409 . S
C1791 C1790 1.362 . S
H1792 C1798 0.930 . S
H1793 C1801 0.930 . S
H1794 C1802 0.930 . S
H1795 C1803 0.930 . S
H1796 C1806 0.930 . S
H1797 C1807 0.930 . S
C1798 H1792 0.930 . S
C1798 C1799 1.355 . S
C1798 C1800 1.415 . S
C1799 C1798 1.355 . S
C1799 C1801 1.419 . S
C1800 C1798 1.415 . S
C1800 C1805 1.425 . S
C1800 C1807 1.409 . S
C1801 H1793 0.930 . S
C1801 C1799 1.419 . S
C1801 C1802 1.362 . S
C1802 H1794 0.930 . S
C1802 C1801 1.362 . S
C1802 C1805 1.409 . S
C1803 H1795 0.930 . S
C1803 C1804 1.355 . S
C1803 C1805 1.415 . S
C1804 C1803 1.355 . S
C1804 C1806 1.419 . S
C1805 C1800 1.425 . S
C1805 C1802 1.409 . S
C1805 C1803 1.415 . S
C1806 H1796 0.930 . S
C1806 C1804 1.419 . S
C1806 C1807 1.362 . S
C1807 H1797 0.930 . S
C1807 C1800 1.409 . S
C1807 C1806 1.362 . S
H1808 C1814 0.930 . S
H1809 C1817 0.930 . S
H1810 C1818 0.930 . S
H1811 C1819 0.930 . S
H1812 C1822 0.930 . S
H1813 C1823 0.930 . S
C1814 H1808 0.930 . S
C1814 C1815 1.355 . S
C1814 C1816 1.415 . S
C1815 C1814 1.355 . S
C1815 C1817 1.419 . S
C1816 C1814 1.415 . S
C1816 C1821 1.425 . S
C1816 C1823 1.409 . S
C1817 H1809 0.930 . S
C1817 C1815 1.419 . S
C1817 C1818 1.362 . S
C1818 H1810 0.930 . S
C1818 C1817 1.362 . S
C1818 C1821 1.409 . S
C1819 H1811 0.930 . S
C1819 C1820 1.355 . S
C1819 C1821 1.415 . S
C1820 C1819 1.355 . S
C1820 C1822 1.419 . S
C1821 C1816 1.425 . S
C1821 C1818 1.409 . S
C1821 C1819 1.415 . S
C1822 H1812 0.930 . S
C1822 C1820 1.419 . S
C1822 C1823 1.362 . S
C1823 H1813 0.930 . S
C1823 C1816 1.409 . S
C1823 C1822 1.362 . S
H1824 C1830 0.930 . S
H1825 C1833 0.930 . S
H1826 C1834 0.930 . S
H1827 C1835 0.930 . S
H1828 C1838 0.930 . S
H1829 C1839 0.930 . S
C1830 H1824 0.930 . S
C1830 C1831 1.355 . S
C1830 C1832 1.415 . S
C1831 C1830 1.355 . S
C1831 C1833 1.419 . S
C1832 C1830 1.415 . S
C1832 C1837 1.425 . S
C1832 C1839 1.409 . S
C1833 H1825 0.930 . S
C1833 C1831 1.419 . S
C1833 C1834 1.362 . S
C1834 H1826 0.930 . S
C1834 C1833 1.362 . S
C1834 C1837 1.409 . S
C1835 H1827 0.930 . S
C1835 C1836 1.355 . S
C1835 C1837 1.415 . S
C1836 C1835 1.355 . S
C1836 C1838 1.419 . S
C1837 C1832 1.425 . S
C1837 C1834 1.409 . S
C1837 C1835 1.415 . S
C1838 H1828 0.930 . S
C1838 C1836 1.419 . S
C1838 C1839 1.362 . S
C1839 H1829 0.930 . S
C1839 C1832 1.409 . S
C1839 C1838 1.362 . S
H1840 C1846 0.930 . S
H1841 C1849 0.930 . S
H1842 C1850 0.930 . S
H1843 C1851 0.930 . S
H1844 C1854 0.930 . S
H1845 C1855 0.930 . S
C1846 H1840 0.930 . S
C1846 C1847 1.355 . S
C1846 C1848 1.415 . S
C1847 C1846 1.355 . S
C1847 C1849 1.419 . S
C1848 C1846 1.415 . S
C1848 C1853 1.425 . S
C1848 C1855 1.409 . S
C1849 H1841 0.930 . S
C1849 C1847 1.419 . S
C1849 C1850 1.362 . S
C1850 H1842 0.930 . S
C1850 C1849 1.362 . S
C1850 C1853 1.409 . S
C1851 H1843 0.930 . S
C1851 C1852 1.355 . S
C1851 C1853 1.415 . S
C1852 C1851 1.355 . S
C1852 C1854 1.419 . S
C1853 C1848 1.425 . S
C1853 C1850 1.409 . S
C1853 C1851 1.415 . S
C1854 H1844 0.930 . S
C1854 C1852 1.419 . S
C1854 C1855 1.362 . S
C1855 H1845 0.930 . S
C1855 C1848 1.409 . S
C1855 C1854 1.362 . S
H1856 C1862 0.930 . S
H1857 C1865 0.930 . S
H1858 C1866 0.930 . S
H1859 C1867 0.930 . S
H1860 C1870 0.930 . S
H1861 C1871 0.930 . S
C1862 H1856 0.930 . S
C1862 C1863 1.355 . S
C1862 C1864 1.415 . S
C1863 C1862 1.355 . S
C1863 C1865 1.419 . S
C1864 C1862 1.415 . S
C1864 C1869 1.425 . S
C1864 C1871 1.409 . S
C1865 H1857 0.930 . S
C1865 C1863 1.419 . S
C1865 C1866 1.362 . S
C1866 H1858 0.930 . S
C1866 C1865 1.362 . S
C1866 C1869 1.409 . S
C1867 H1859 0.930 . S
C1867 C1868 1.355 . S
C1867 C1869 1.415 . S
C1868 C1867 1.355 . S
C1868 C1870 1.419 . S
C1869 C1864 1.425 . S
C1869 C1866 1.409 . S
C1869 C1867 1.415 . S
C1870 H1860 0.930 . S
C1870 C1868 1.419 . S
C1870 C1871 1.362 . S
C1871 H1861 0.930 . S
C1871 C1864 1.409 . S
C1871 C1870 1.362 . S
H1872 C1878 0.930 . S
H1873 C1881 0.930 . S
H1874 C1882 0.930 . S
H1875 C1883 0.930 . S
H1876 C1886 0.930 . S
H1877 C1887 0.930 . S
C1878 H1872 0.930 . S
C1878 C1879 1.355 . S
C1878 C1880 1.415 . S
C1879 C1878 1.355 . S
C1879 C1881 1.419 . S
C1880 C1878 1.415 . S
C1880 C1885 1.425 . S
C1880 C1887 1.409 . S
C1881 H1873 0.930 . S
C1881 C1879 1.419 . S
C1881 C1882 1.362 . S
C1882 H1874 0.930 . S
C1882 C1881 1.362 . S
C1882 C1885 1.409 . S
C1883 H1875 0.930 . S
C1883 C1884 1.355 . S
C1883 C1885 1.415 . S
C1884 C1883 1.355 . S
C1884 C1886 1.419 . S
C1885 C1880 1.425 . S
C1885 C1882 1.409 . S
C1885 C1883 1.415 . S
C1886 H1876 0.930 . S
C1886 C1884 1.419 . S
C1886 C1887 1.362 . S
C1887 H1877 0.930 . S
C1887 C1880 1.409 . S
C1887 C1886 1.362 . S
H1888 C1894 0.930 . S
H1889 C1897 0.930 . S
H1890 C1898 0.930 . S
H1891 C1899 0.930 . S
H1892 C1902 0.930 . S
H1893 C1903 0.930 . S
C1894 H1888 0.930 . S
C1894 C1895 1.355 . S
C1894 C1896 1.415 . S
C1895 C1894 1.355 . S
C1895 C1897 1.419 . S
C1896 C1894 1.415 . S
C1896 C1901 1.425 . S
C1896 C1903 1.409 . S
C1897 H1889 0.930 . S
C1897 C1895 1.419 . S
C1897 C1898 1.362 . S
C1898 H1890 0.930 . S
C1898 C1897 1.362 . S
C1898 C1901 1.409 . S
C1899 H1891 0.930 . S
C1899 C1900 1.355 . S
C1899 C1901 1.415 . S
C1900 C1899 1.355 . S
C1900 C1902 1.419 . S
C1901 C1896 1.425 . S
C1901 C1898 1.409 . S
C1901 C1899 1.415 . S
C1902 H1892 0.930 . S
C1902 C1900 1.419 . S
C1902 C1903 1.362 . S
C1903 H1893 0.930 . S
C1903 C1896 1.409 . S
C1903 C1902 1.362 . S
H1904 C1910 0.930 . S
H1905 C1913 0.930 . S
H1906 C1914 0.930 . S
H1907 C1915 0.930 . S
H1908 C1918 0.930 . S
H1909 C1919 0.930 . S
C1910 H1904 0.930 . S
C1910 C1911 1.355 . S
C1910 C1912 1.415 . S
C1911 C1910 1.355 . S
C1911 C1913 1.419 . S
C1912 C1910 1.415 . S
C1912 C1917 1.425 . S
C1912 C1919 1.409 . S
C1913 H1905 0.930 . S
C1913 C1911 1.419 . S
C1913 C1914 1.362 . S
C1914 H1906 0.930 . S
C1914 C1913 1.362 . S
C1914 C1917 1.409 . S
C1915 H1907 0.930 . S
C1915 C1916 1.355 . S
C1915 C1917 1.415 . S
C1916 C1915 1.355 . S
C1916 C1918 1.419 . S
C1917 C1912 1.425 . S
C1917 C1914 1.409 . S
C1917 C1915 1.415 . S
C1918 H1908 0.930 . S
C1918 C1916 1.419 . S
C1918 C1919 1.362 . S
C1919 H1909 0.930 . S
C1919 C1912 1.409 . S
C1919 C1918 1.362 . S
H1920 C1926 0.930 . S
H1921 C1929 0.930 . S
H1922 C1930 0.930 . S
H1923 C1931 0.930 . S
H1924 C1934 0.930 . S
H1925 C1935 0.930 . S
C1926 H1920 0.930 . S
C1926 C1927 1.355 . S
C1926 C1928 1.415 . S
C1927 C1926 1.355 . S
C1927 C1929 1.419 . S
C1928 C1926 1.415 . S
C1928 C1933 1.425 . S
C1928 C1935 1.409 . S
C1929 H1921 0.930 . S
C1929 C1927 1.419 . S
C1929 C1930 1.362 . S
C1930 H1922 0.930 . S
C1930 C1929 1.362 . S
C1930 C1933 1.409 . S
C1931 H1923 0.930 . S
C1931 C1932 1.355 . S
C1931 C1933 1.415 . S
C1932 C1931 1.355 . S
C1932 C1934 1.419 . S
C1933 C1928 1.425 . S
C1933 C1930 1.409 . S
C1933 C1931 1.415 . S
C1934 H1924 0.930 . S
C1934 C1932 1.419 . S
C1934 C1935 1.362 . S
C1935 H1925 0.930 . S
C1935 C1928 1.409 . S
C1935 C1934 1.362 . S
H1936 C1942 0.930 . S
H1937 C1945 0.930 . S
H1938 C1946 0.930 . S
H1939 C1947 0.930 . S
H1940 C1950 0.930 . S
H1941 C1951 0.930 . S
C1942 H1936 0.930 . S
C1942 C1943 1.355 . S
C1942 C1944 1.415 . S
C1943 C1942 1.355 . S
C1943 C1945 1.419 . S
C1944 C1942 1.415 . S
C1944 C1949 1.425 . S
C1944 C1951 1.409 . S
C1945 H1937 0.930 . S
C1945 C1943 1.419 . S
C1945 C1946 1.362 . S
C1946 H1938 0.930 . S
C1946 C1945 1.362 . S
C1946 C1949 1.409 . S
C1947 H1939 0.930 . S
C1947 C1948 1.355 . S
C1947 C1949 1.415 . S
C1948 C1947 1.355 . S
C1948 C1950 1.419 . S
C1949 C1944 1.425 . S
C1949 C1946 1.409 . S
C1949 C1947 1.415 . S
C1950 H1940 0.930 . S
C1950 C1948 1.419 . S
C1950 C1951 1.362 . S
C1951 H1941 0.930 . S
C1951 C1944 1.409 . S
C1951 C1950 1.362 . S
H1952 C1958 0.930 . S
H1953 C1961 0.930 . S
H1954 C1962 0.930 . S
H1955 C1963 0.930 . S
H1956 C1966 0.930 . S
H1957 C1967 0.930 . S
C1958 H1952 0.930 . S
C1958 C1959 1.355 . S
C1958 C1960 1.415 . S
C1959 C1958 1.355 . S
C1959 C1961 1.419 . S
C1960 C1958 1.415 . S
C1960 C1965 1.425 . S
C1960 C1967 1.409 . S
C1961 H1953 0.930 . S
C1961 C1959 1.419 . S
C1961 C1962 1.362 . S
C1962 H1954 0.930 . S
C1962 C1961 1.362 . S
C1962 C1965 1.409 . S
C1963 H1955 0.930 . S
C1963 C1964 1.355 . S
C1963 C1965 1.415 . S
C1964 C1963 1.355 . S
C1964 C1966 1.419 . S
C1965 C1960 1.425 . S
C1965 C1962 1.409 . S
C1965 C1963 1.415 . S
C1966 H1956 0.930 . S
C1966 C1964 1.419 . S
C1966 C1967 1.362 . S
C1967 H1957 0.930 . S
C1967 C1960 1.409 . S
C1967 C1966 1.362 . S
H1968 C1974 0.930 . S
H1969 C1977 0.930 . S
H1970 C1978 0.930 . S
H1971 C1979 0.930 . S
H1972 C1982 0.930 . S
H1973 C1983 0.930 . S
C1974 H1968 0.930 . S
C1974 C1975 1.355 . S
C1974 C1976 1.415 . S
C1975 C1974 1.355 . S
C1975 C1977 1.419 . S
C1976 C1974 1.415 . S
C1976 C1981 1.425 . S
C1976 C1983 1.409 . S
C1977 H1969 0.930 . S
C1977 C1975 1.419 . S
C1977 C1978 1.362 . S
C1978 H1970 0.930 . S
C1978 C1977 1.362 . S
C1978 C1981 1.409 . S
C1979 H1971 0.930 . S
C1979 C1980 1.355 . S
C1979 C1981 1.415 . S
C1980 C1979 1.355 . S
C1980 C1982 1.419 . S
C1981 C1976 1.425 . S
C1981 C1978 1.409 . S
C1981 C1979 1.415 . S
C1982 H1972 0.930 . S
C1982 C1980 1.419 . S
C1982 C1983 1.362 . S
C1983 H1973 0.930 . S
C1983 C1976 1.409 . S
C1983 C1982 1.362 . S
H1984 C1990 0.930 . S
H1985 C1993 0.930 . S
H1986 C1994 0.930 1_554 S
H1987 C1995 0.932 1_545 S
H1988 C1998 0.930 . S
H1989 C1999 0.930 . S
C1990 H1984 0.930 . S
C1990 C1991 1.355 . S
C1990 C1992 1.415 . S
C1991 C1990 1.355 . S
C1991 C1993 1.419 1_566 S
C1992 C1990 1.415 . S
C1992 C1997 1.440 . S
C1992 C1999 1.409 . S
C1993 H1985 0.930 . S
C1993 C1991 1.419 1_544 S
C1993 C1994 1.362 1_554 S
C1994 H1986 0.930 1_556 S
C1994 C1993 1.362 1_556 S
C1994 C1997 1.396 1_545 S
C1995 H1987 0.932 1_565 S
C1995 C1996 1.353 . S
C1995 C1997 1.414 . S
C1996 C1995 1.353 . S
C1996 C1998 1.419 . S
C1997 C1992 1.440 . S
C1997 C1994 1.396 1_565 S
C1997 C1995 1.414 . S
C1998 H1988 0.930 . S
C1998 C1996 1.419 . S
C1998 C1999 1.362 . S
C1999 H1989 0.930 . S
C1999 C1992 1.409 . S
C1999 C1998 1.362 . S
H2000 C2006 0.930 . S
H2001 C2009 0.930 . S
H2002 C2010 0.930 . S
H2003 C2011 0.912 1_554 S
H2004 C2014 0.930 1_655 S
H2005 C2015 0.930 . S
C2006 H2000 0.930 . S
C2006 C2007 1.355 . S
C2006 C2008 1.415 . S
C2007 C2006 1.355 . S
C2007 C2009 1.419 . S
C2008 C2006 1.415 . S
C2008 C2013 1.425 . S
C2008 C2015 1.409 . S
C2009 H2001 0.930 . S
C2009 C2007 1.419 . S
C2009 C2010 1.362 . S
C2010 H2002 0.930 . S
C2010 C2009 1.362 . S
C2010 C2013 1.409 . S
C2011 H2003 0.912 1_556 S
C2011 C2012 1.355 . S
C2011 C2013 1.415 . S
C2012 C2011 1.355 . S
C2012 C2014 1.419 . S
C2013 C2008 1.425 . S
C2013 C2010 1.409 . S
C2013 C2011 1.415 . S
C2014 H2004 0.930 1_455 S
C2014 C2012 1.419 . S
C2014 C2015 1.362 . S
C2015 H2005 0.930 . S
C2015 C2008 1.409 . S
C2015 C2014 1.362 . S
H2016 C2022 0.930 . S
H2017 C2025 0.930 . S
H2018 C2026 0.930 . S
H2019 C2027 0.930 . S
H2020 C2030 0.930 . S
H2021 C2031 0.930 . S
C2022 H2016 0.930 . S
C2022 C2023 1.355 . S
C2022 C2024 1.415 . S
C2023 C2022 1.355 . S
C2023 C2025 1.419 . S
C2024 C2022 1.415 . S
C2024 C2029 1.425 . S
C2024 C2031 1.409 . S
C2025 H2017 0.930 . S
C2025 C2023 1.419 . S
C2025 C2026 1.362 . S
C2026 H2018 0.930 . S
C2026 C2025 1.362 . S
C2026 C2029 1.409 . S
C2027 H2019 0.930 . S
C2027 C2028 1.355 . S
C2027 C2029 1.415 . S
C2028 C2027 1.355 . S
C2028 C2030 1.419 . S
C2029 C2024 1.425 . S
C2029 C2026 1.409 . S
C2029 C2027 1.415 . S
C2030 H2020 0.930 . S
C2030 C2028 1.419 . S
C2030 C2031 1.362 . S
C2031 H2021 0.930 . S
C2031 C2024 1.409 . S
C2031 C2030 1.362 . S
H2032 C2038 0.930 . S
H2033 C2041 0.930 1_655 S
H2034 C2042 0.930 . S
H2035 C2043 0.930 . S
H2036 C2046 0.930 . S
H2037 C2047 0.930 . S
C2038 H2032 0.930 . S
C2038 C2039 1.355 . S
C2038 C2040 1.415 . S
C2039 C2038 1.355 . S
C2039 C2041 1.419 . S
C2040 C2038 1.415 . S
C2040 C2045 1.425 . S
C2040 C2047 1.409 . S
C2041 H2033 0.930 1_455 S
C2041 C2039 1.419 . S
C2041 C2042 1.362 . S
C2042 H2034 0.930 . S
C2042 C2041 1.362 . S
C2042 C2045 1.409 . S
C2043 H2035 0.930 . S
C2043 C2044 1.355 . S
C2043 C2045 1.415 . S
C2044 C2043 1.355 . S
C2044 C2046 1.419 . S
C2045 C2040 1.425 . S
C2045 C2042 1.409 . S
C2045 C2043 1.415 . S
C2046 H2036 0.930 . S
C2046 C2044 1.419 . S
C2046 C2047 1.362 . S
C2047 H2037 0.930 . S
C2047 C2040 1.409 . S
C2047 C2046 1.362 . S
H2048 C2054 0.930 . S
H2049 C2057 0.930 . S
H2050 C2058 0.930 . S
H2051 C2059 0.930 . S
H2052 C2062 0.930 . S
H2053 C2063 0.930 . S
C2054 H2048 0.930 . S
C2054 C2055 1.355 1_565 S
C2054 C2056 1.415 . S
C2055 C2054 1.355 1_545 S
C2055 C2057 1.419 . S
C2056 C2054 1.415 . S
C2056 C2061 1.425 1_565 S
C2056 C2063 1.409 . S
C2057 H2049 0.930 . S
C2057 C2055 1.419 . S
C2057 C2058 1.362 . S
C2058 H2050 0.930 . S
C2058 C2057 1.362 . S
C2058 C2061 1.409 . S
C2059 H2051 0.930 . S
C2059 C2060 1.355 . S
C2059 C2061 1.415 . S
C2060 C2059 1.355 . S
C2060 C2062 1.419 1_545 S
C2061 C2056 1.425 1_545 S
C2061 C2058 1.409 . S
C2061 C2059 1.415 . S
C2062 H2052 0.930 . S
C2062 C2060 1.419 1_565 S
C2062 C2063 1.362 . S
C2063 H2053 0.930 . S
C2063 C2056 1.409 . S
C2063 C2062 1.362 . S
H2064 C2070 0.930 . S
H2065 C2073 0.930 . S
H2066 C2074 0.930 . S
H2067 C2075 0.930 . S
H2068 C2078 0.930 . S
H2069 C2079 0.930 . S
C2070 H2064 0.930 . S
C2070 C2071 1.355 . S
C2070 C2072 1.415 . S
C2071 C2070 1.355 . S
C2071 C2073 1.419 1_554 S
C2072 C2070 1.415 . S
C2072 C2077 1.425 . S
C2072 C2079 1.409 . S
C2073 H2065 0.930 . S
C2073 C2071 1.419 1_556 S
C2073 C2074 1.362 . S
C2074 H2066 0.930 . S
C2074 C2073 1.362 . S
C2074 C2077 1.409 1_556 S
C2075 H2067 0.930 . S
C2075 C2076 1.355 . S
C2075 C2077 1.415 . S
C2076 C2075 1.355 . S
C2076 C2078 1.419 . S
C2077 C2072 1.425 . S
C2077 C2074 1.409 1_554 S
C2077 C2075 1.415 . S
C2078 H2068 0.930 . S
C2078 C2076 1.419 . S
C2078 C2079 1.362 . S
C2079 H2069 0.930 . S
C2079 C2072 1.409 . S
C2079 C2078 1.362 . S
H2080 C2086 0.930 . S
H2081 C2089 0.930 . S
H2082 C2090 0.930 . S
H2083 C2091 0.930 . S
H2084 C2094 0.930 . S
H2085 C2095 0.930 . S
C2086 H2080 0.930 . S
C2086 C2087 1.355 . S
C2086 C2088 1.415 . S
C2087 C2086 1.355 . S
C2087 C2089 1.419 . S
C2088 C2086 1.415 . S
C2088 C2093 1.425 . S
C2088 C2095 1.409 . S
C2089 H2081 0.930 . S
C2089 C2087 1.419 . S
C2089 C2090 1.362 . S
C2090 H2082 0.930 . S
C2090 C2089 1.362 . S
C2090 C2093 1.409 . S
C2091 H2083 0.930 . S
C2091 C2092 1.355 . S
C2091 C2093 1.415 . S
C2092 C2091 1.355 . S
C2092 C2094 1.419 . S
C2093 C2088 1.425 . S
C2093 C2090 1.409 . S
C2093 C2091 1.415 . S
C2094 H2084 0.930 . S
C2094 C2092 1.419 . S
C2094 C2095 1.362 . S
C2095 H2085 0.930 . S
C2095 C2088 1.409 . S
C2095 C2094 1.362 . S
H2096 C2102 0.940 . S
H2097 C2105 0.930 . S
H2098 C2106 0.930 . S
H2099 C2107 0.930 . S
H2100 C2110 0.930 . S
H2101 C2111 0.930 . S
C2102 H2096 0.940 . S
C2102 C2103 1.355 . S
C2102 C2104 1.415 . S
C2103 C2102 1.355 . S
C2103 C2105 1.419 . S
C2104 C2102 1.415 . S
C2104 C2109 1.425 . S
C2104 C2111 1.409 1_545 S
C2105 H2097 0.930 . S
C2105 C2103 1.419 . S
C2105 C2106 1.362 . S
C2106 H2098 0.930 . S
C2106 C2105 1.362 . S
C2106 C2109 1.409 . S
C2107 H2099 0.930 . S
C2107 C2108 1.355 . S
C2107 C2109 1.415 . S
C2108 C2107 1.355 . S
C2108 C2110 1.419 1_545 S
C2109 C2104 1.425 . S
C2109 C2106 1.409 . S
C2109 C2107 1.415 . S
C2110 H2100 0.930 . S
C2110 C2108 1.419 1_565 S
C2110 C2111 1.362 . S
C2111 H2101 0.930 . S
C2111 C2104 1.409 1_565 S
C2111 C2110 1.362 . S
H2112 C2118 0.930 . S
H2113 C2121 0.930 . S
H2114 C2122 0.930 . S
H2115 C2123 0.930 . S
H2116 C2126 0.930 . S
H2117 C2127 0.930 . S
C2118 H2112 0.930 . S
C2118 C2119 1.355 . S
C2118 C2120 1.415 . S
C2119 C2118 1.355 . S
C2119 C2121 1.419 . S
C2120 C2118 1.415 . S
C2120 C2125 1.425 . S
C2120 C2127 1.409 . S
C2121 H2113 0.930 . S
C2121 C2119 1.419 . S
C2121 C2122 1.362 . S
C2122 H2114 0.930 . S
C2122 C2121 1.362 . S
C2122 C2125 1.409 . S
C2123 H2115 0.930 . S
C2123 C2124 1.355 . S
C2123 C2125 1.415 . S
C2124 C2123 1.355 . S
C2124 C2126 1.419 . S
C2125 C2120 1.425 . S
C2125 C2122 1.409 . S
C2125 C2123 1.415 . S
C2126 H2116 0.930 . S
C2126 C2124 1.419 . S
C2126 C2127 1.362 . S
C2127 H2117 0.930 . S
C2127 C2120 1.409 . S
C2127 C2126 1.362 . S
H2128 C2134 0.930 . S
H2129 C2137 0.930 . S
H2130 C2138 0.930 . S
H2131 C2139 0.930 . S
H2132 C2142 0.930 . S
H2133 C2143 0.930 . S
C2134 H2128 0.930 . S
C2134 C2135 1.355 . S
C2134 C2136 1.415 . S
C2135 C2134 1.355 . S
C2135 C2137 1.419 . S
C2136 C2134 1.415 . S
C2136 C2141 1.425 . S
C2136 C2143 1.409 . S
C2137 H2129 0.930 . S
C2137 C2135 1.419 . S
C2137 C2138 1.362 . S
C2138 H2130 0.930 . S
C2138 C2137 1.362 . S
C2138 C2141 1.409 . S
C2139 H2131 0.930 . S
C2139 C2140 1.355 . S
C2139 C2141 1.415 . S
C2140 C2139 1.355 . S
C2140 C2142 1.419 . S
C2141 C2136 1.425 . S
C2141 C2138 1.409 . S
C2141 C2139 1.415 . S
C2142 H2132 0.930 . S
C2142 C2140 1.419 . S
C2142 C2143 1.362 . S
C2143 H2133 0.930 . S
C2143 C2136 1.409 . S
C2143 C2142 1.362 . S
H2144 C2150 0.930 . S
H2145 C2153 0.930 . S
H2146 C2154 0.930 . S
H2147 C2155 0.930 . S
H2148 C2158 0.930 . S
H2149 C2159 0.930 . S
C2150 H2144 0.930 . S
C2150 C2151 1.355 . S
C2150 C2152 1.415 . S
C2151 C2150 1.355 . S
C2151 C2153 1.419 . S
C2152 C2150 1.415 . S
C2152 C2157 1.425 . S
C2152 C2159 1.409 . S
C2153 H2145 0.930 . S
C2153 C2151 1.419 . S
C2153 C2154 1.362 . S
C2154 H2146 0.930 . S
C2154 C2153 1.362 . S
C2154 C2157 1.409 . S
C2155 H2147 0.930 . S
C2155 C2156 1.355 . S
C2155 C2157 1.415 . S
C2156 C2155 1.355 . S
C2156 C2158 1.419 . S
C2157 C2152 1.425 . S
C2157 C2154 1.409 . S
C2157 C2155 1.415 . S
C2158 H2148 0.930 . S
C2158 C2156 1.419 . S
C2158 C2159 1.362 . S
C2159 H2149 0.930 . S
C2159 C2152 1.409 . S
C2159 C2158 1.362 . S
H2160 C2166 0.930 . S
H2161 C2169 0.930 . S
H2162 C2170 0.930 . S
H2163 C2171 0.930 . S
H2164 C2174 0.930 . S
H2165 C2175 0.930 . S
C2166 H2160 0.930 . S
C2166 C2167 1.355 . S
C2166 C2168 1.415 . S
C2167 C2166 1.355 . S
C2167 C2169 1.419 . S
C2168 C2166 1.415 . S
C2168 C2173 1.425 . S
C2168 C2175 1.409 . S
C2169 H2161 0.930 . S
C2169 C2167 1.419 . S
C2169 C2170 1.362 . S
C2170 H2162 0.930 . S
C2170 C2169 1.362 . S
C2170 C2173 1.409 . S
C2171 H2163 0.930 . S
C2171 C2172 1.355 . S
C2171 C2173 1.415 . S
C2172 C2171 1.355 . S
C2172 C2174 1.419 . S
C2173 C2168 1.425 . S
C2173 C2170 1.409 . S
C2173 C2171 1.415 . S
C2174 H2164 0.930 . S
C2174 C2172 1.419 . S
C2174 C2175 1.362 . S
C2175 H2165 0.930 . S
C2175 C2168 1.409 . S
C2175 C2174 1.362 . S
H2176 C2182 0.930 . S
H2177 C2185 0.930 . S
H2178 C2186 0.930 . S
H2179 C2187 0.930 . S
H2180 C2190 0.930 . S
H2181 C2191 0.930 . S
C2182 H2176 0.930 . S
C2182 C2183 1.355 . S
C2182 C2184 1.415 . S
C2183 C2182 1.355 . S
C2183 C2185 1.419 . S
C2184 C2182 1.415 . S
C2184 C2189 1.425 . S
C2184 C2191 1.409 . S
C2185 H2177 0.930 . S
C2185 C2183 1.419 . S
C2185 C2186 1.362 . S
C2186 H2178 0.930 . S
C2186 C2185 1.362 . S
C2186 C2189 1.409 . S
C2187 H2179 0.930 . S
C2187 C2188 1.355 . S
C2187 C2189 1.415 . S
C2188 C2187 1.355 . S
C2188 C2190 1.419 . S
C2189 C2184 1.425 . S
C2189 C2186 1.409 . S
C2189 C2187 1.415 . S
C2190 H2180 0.930 . S
C2190 C2188 1.419 . S
C2190 C2191 1.362 . S
C2191 H2181 0.930 . S
C2191 C2184 1.409 . S
C2191 C2190 1.362 . S
H2192 C2198 0.930 . S
H2193 C2201 0.930 1_455 S
H2194 C2202 0.930 . S
H2195 C2203 0.930 . S
H2196 C2206 0.930 . S
H2197 C2207 0.930 . S
C2198 H2192 0.930 . S
C2198 C2199 1.355 . S
C2198 C2200 1.415 . S
C2199 C2198 1.355 . S
C2199 C2201 1.419 . S
C2200 C2198 1.415 . S
C2200 C2205 1.425 . S
C2200 C2207 1.409 . S
C2201 H2193 0.930 1_655 S
C2201 C2199 1.419 . S
C2201 C2202 1.362 . S
C2202 H2194 0.930 . S
C2202 C2201 1.362 . S
C2202 C2205 1.409 . S
C2203 H2195 0.930 . S
C2203 C2204 1.355 . S
C2203 C2205 1.415 . S
C2204 C2203 1.355 . S
C2204 C2206 1.419 . S
C2205 C2200 1.425 . S
C2205 C2202 1.409 . S
C2205 C2203 1.415 . S
C2206 H2196 0.930 . S
C2206 C2204 1.419 . S
C2206 C2207 1.362 . S
C2207 H2197 0.930 . S
C2207 C2200 1.409 . S
C2207 C2206 1.362 . S
H2208 C2214 0.930 . S
H2209 C2217 0.930 . S
H2210 C2218 0.930 . S
H2211 C2219 0.930 . S
H2212 C2222 0.930 . S
H2213 C2223 0.930 . S
C2214 H2208 0.930 . S
C2214 C2215 1.355 . S
C2214 C2216 1.415 . S
C2215 C2214 1.355 . S
C2215 C2217 1.419 . S
C2216 C2214 1.415 . S
C2216 C2221 1.425 . S
C2216 C2223 1.409 . S
C2217 H2209 0.930 . S
C2217 C2215 1.419 . S
C2217 C2218 1.362 . S
C2218 H2210 0.930 . S
C2218 C2217 1.362 . S
C2218 C2221 1.409 . S
C2219 H2211 0.930 . S
C2219 C2220 1.355 . S
C2219 C2221 1.415 . S
C2220 C2219 1.355 . S
C2220 C2222 1.419 . S
C2221 C2216 1.425 . S
C2221 C2218 1.409 . S
C2221 C2219 1.415 . S
C2222 H2212 0.930 . S
C2222 C2220 1.419 . S
C2222 C2223 1.362 . S
C2223 H2213 0.930 . S
C2223 C2216 1.409 . S
C2223 C2222 1.362 . S
H2224 C2230 0.930 . S
H2225 C2233 0.930 . S
H2226 C2234 0.930 . S
H2227 C2235 0.930 . S
H2228 C2238 0.930 . S
H2229 C2239 0.930 . S
C2230 H2224 0.930 . S
C2230 C2231 1.355 . S
C2230 C2232 1.415 . S
C2231 C2230 1.355 . S
C2231 C2233 1.419 . S
C2232 C2230 1.415 . S
C2232 C2237 1.425 . S
C2232 C2239 1.409 . S
C2233 H2225 0.930 . S
C2233 C2231 1.419 . S
C2233 C2234 1.362 . S
C2234 H2226 0.930 . S
C2234 C2233 1.362 . S
C2234 C2237 1.409 . S
C2235 H2227 0.930 . S
C2235 C2236 1.355 . S
C2235 C2237 1.415 . S
C2236 C2235 1.355 . S
C2236 C2238 1.419 . S
C2237 C2232 1.425 . S
C2237 C2234 1.409 . S
C2237 C2235 1.415 . S
C2238 H2228 0.930 . S
C2238 C2236 1.419 . S
C2238 C2239 1.362 . S
C2239 H2229 0.930 . S
C2239 C2232 1.409 . S
C2239 C2238 1.362 . S
H2240 C2246 0.930 . S
H2241 C2249 0.930 . S
H2242 C2250 0.930 . S
H2243 C2251 0.930 . S
H2244 C2254 0.930 . S
H2245 C2255 0.930 . S
C2246 H2240 0.930 . S
C2246 C2247 1.355 1_545 S
C2246 C2248 1.415 . S
C2247 C2246 1.355 1_565 S
C2247 C2249 1.419 . S
C2248 C2246 1.415 . S
C2248 C2253 1.425 1_545 S
C2248 C2255 1.409 . S
C2249 H2241 0.930 . S
C2249 C2247 1.419 . S
C2249 C2250 1.362 . S
C2250 H2242 0.930 . S
C2250 C2249 1.362 . S
C2250 C2253 1.409 . S
C2251 H2243 0.930 . S
C2251 C2252 1.355 . S
C2251 C2253 1.415 . S
C2252 C2251 1.355 . S
C2252 C2254 1.419 1_565 S
C2253 C2248 1.425 1_565 S
C2253 C2250 1.409 . S
C2253 C2251 1.415 . S
C2254 H2244 0.930 . S
C2254 C2252 1.419 1_545 S
C2254 C2255 1.362 . S
C2255 H2245 0.930 . S
C2255 C2248 1.409 . S
C2255 C2254 1.362 . S
H2256 C2262 0.930 . S
H2257 C2265 0.930 . S
H2258 C2266 0.930 . S
H2259 C2267 0.930 . S
H2260 C2270 0.930 . S
H2261 C2271 0.930 . S
C2262 H2256 0.930 . S
C2262 C2263 1.355 . S
C2262 C2264 1.415 . S
C2263 C2262 1.355 . S
C2263 C2265 1.419 . S
C2264 C2262 1.415 . S
C2264 C2269 1.425 . S
C2264 C2271 1.409 . S
C2265 H2257 0.930 . S
C2265 C2263 1.419 . S
C2265 C2266 1.362 . S
C2266 H2258 0.930 . S
C2266 C2265 1.362 . S
C2266 C2269 1.409 . S
C2267 H2259 0.930 . S
C2267 C2268 1.355 . S
C2267 C2269 1.415 . S
C2268 C2267 1.355 . S
C2268 C2270 1.419 . S
C2269 C2264 1.425 . S
C2269 C2266 1.409 . S
C2269 C2267 1.415 . S
C2270 H2260 0.930 . S
C2270 C2268 1.419 . S
C2270 C2271 1.362 . S
C2271 H2261 0.930 . S
C2271 C2264 1.409 . S
C2271 C2270 1.362 . S
H2272 C2278 0.930 . S
H2273 C2281 0.930 . S
H2274 C2282 0.930 . S
H2275 C2283 0.930 . S
H2276 C2286 0.930 . S
H2277 C2287 0.930 . S
C2278 H2272 0.930 . S
C2278 C2279 1.355 . S
C2278 C2280 1.415 . S
C2279 C2278 1.355 . S
C2279 C2281 1.419 . S
C2280 C2278 1.415 . S
C2280 C2285 1.425 . S
C2280 C2287 1.409 . S
C2281 H2273 0.930 . S
C2281 C2279 1.419 . S
C2281 C2282 1.362 . S
C2282 H2274 0.930 . S
C2282 C2281 1.362 . S
C2282 C2285 1.409 . S
C2283 H2275 0.930 . S
C2283 C2284 1.355 . S
C2283 C2285 1.415 . S
C2284 C2283 1.355 . S
C2284 C2286 1.419 . S
C2285 C2280 1.425 . S
C2285 C2282 1.409 . S
C2285 C2283 1.415 . S
C2286 H2276 0.930 . S
C2286 C2284 1.419 . S
C2286 C2287 1.362 . S
C2287 H2277 0.930 . S
C2287 C2280 1.409 . S
C2287 C2286 1.362 . S
H2288 C2294 0.930 . S
H2289 C2297 0.930 . S
H2290 C2298 0.930 . S
H2291 C2299 0.930 . S
H2292 C2302 0.930 . S
H2293 C2303 0.930 . S
C2294 H2288 0.930 . S
C2294 C2295 1.355 . S
C2294 C2296 1.415 . S
C2295 C2294 1.355 . S
C2295 C2297 1.419 1_565 S
C2296 C2294 1.415 . S
C2296 C2301 1.425 1_565 S
C2296 C2303 1.409 . S
C2297 H2289 0.930 . S
C2297 C2295 1.419 1_545 S
C2297 C2298 1.362 . S
C2298 H2290 0.930 . S
C2298 C2297 1.362 . S
C2298 C2301 1.409 . S
C2299 H2291 0.930 . S
C2299 C2300 1.355 1_545 S
C2299 C2301 1.415 . S
C2300 C2299 1.355 1_565 S
C2300 C2302 1.419 . S
C2301 C2296 1.425 1_545 S
C2301 C2298 1.409 . S
C2301 C2299 1.415 . S
C2302 H2292 0.930 . S
C2302 C2300 1.419 . S
C2302 C2303 1.362 . S
C2303 H2293 0.930 . S
C2303 C2296 1.409 . S
C2303 C2302 1.362 . S
H2304 C2310 0.930 . S
H2305 C2313 0.930 . S
H2306 C2314 0.930 . S
H2307 C2315 0.930 . S
H2308 C2318 0.930 . S
H2309 C2319 0.930 . S
C2310 H2304 0.930 . S
C2310 C2311 1.355 . S
C2310 C2312 1.415 . S
C2311 C2310 1.355 . S
C2311 C2313 1.419 . S
C2312 C2310 1.415 . S
C2312 C2317 1.425 . S
C2312 C2319 1.409 . S
C2313 H2305 0.930 . S
C2313 C2311 1.419 . S
C2313 C2314 1.362 . S
C2314 H2306 0.930 . S
C2314 C2313 1.362 . S
C2314 C2317 1.409 . S
C2315 H2307 0.930 . S
C2315 C2316 1.355 . S
C2315 C2317 1.415 . S
C2316 C2315 1.355 . S
C2316 C2318 1.419 . S
C2317 C2312 1.425 . S
C2317 C2314 1.409 . S
C2317 C2315 1.415 . S
C2318 H2308 0.930 . S
C2318 C2316 1.419 . S
C2318 C2319 1.362 . S
C2319 H2309 0.930 . S
C2319 C2312 1.409 . S
C2319 C2318 1.362 . S
H2320 C2326 0.930 . S
H2321 C2329 0.930 . S
H2322 C2330 0.930 . S
H2323 C2331 0.930 . S
H2324 C2334 0.930 . S
H2325 C2335 0.930 . S
C2326 H2320 0.930 . S
C2326 C2327 1.355 . S
C2326 C2328 1.415 . S
C2327 C2326 1.355 . S
C2327 C2329 1.419 . S
C2328 C2326 1.415 . S
C2328 C2333 1.425 . S
C2328 C2335 1.409 . S
C2329 H2321 0.930 . S
C2329 C2327 1.419 . S
C2329 C2330 1.362 . S
C2330 H2322 0.930 . S
C2330 C2329 1.362 . S
C2330 C2333 1.409 . S
C2331 H2323 0.930 . S
C2331 C2332 1.355 . S
C2331 C2333 1.415 . S
C2332 C2331 1.355 . S
C2332 C2334 1.419 . S
C2333 C2328 1.425 . S
C2333 C2330 1.409 . S
C2333 C2331 1.415 . S
C2334 H2324 0.930 . S
C2334 C2332 1.419 . S
C2334 C2335 1.362 . S
C2335 H2325 0.930 . S
C2335 C2328 1.409 . S
C2335 C2334 1.362 . S
H2336 C2342 0.930 . S
H2337 C2345 0.930 . S
H2338 C2346 0.930 . S
H2339 C2347 0.930 . S
H2340 C2350 0.930 . S
H2341 C2351 0.930 . S
C2342 H2336 0.930 . S
C2342 C2343 1.355 . S
C2342 C2344 1.415 . S
C2343 C2342 1.355 . S
C2343 C2345 1.419 . S
C2344 C2342 1.415 . S
C2344 C2349 1.425 . S
C2344 C2351 1.409 . S
C2345 H2337 0.930 . S
C2345 C2343 1.419 . S
C2345 C2346 1.362 . S
C2346 H2338 0.930 . S
C2346 C2345 1.362 . S
C2346 C2349 1.409 . S
C2347 H2339 0.930 . S
C2347 C2348 1.355 . S
C2347 C2349 1.415 . S
C2348 C2347 1.355 . S
C2348 C2350 1.419 . S
C2349 C2344 1.425 . S
C2349 C2346 1.409 . S
C2349 C2347 1.415 . S
C2350 H2340 0.930 . S
C2350 C2348 1.419 . S
C2350 C2351 1.362 . S
C2351 H2341 0.930 . S
C2351 C2344 1.409 . S
C2351 C2350 1.362 . S
H2352 C2358 0.930 . S
H2353 C2361 0.930 . S
H2354 C2362 0.930 . S
H2355 C2363 0.930 . S
H2356 C2366 0.930 . S
H2357 C2367 0.930 . S
C2358 H2352 0.930 . S
C2358 C2359 1.355 1_565 S
C2358 C2360 1.415 . S
C2359 C2358 1.355 1_545 S
C2359 C2361 1.419 . S
C2360 C2358 1.415 . S
C2360 C2365 1.425 1_565 S
C2360 C2367 1.409 . S
C2361 H2353 0.930 . S
C2361 C2359 1.419 . S
C2361 C2362 1.362 . S
C2362 H2354 0.930 . S
C2362 C2361 1.362 . S
C2362 C2365 1.409 . S
C2363 H2355 0.930 . S
C2363 C2364 1.355 . S
C2363 C2365 1.415 . S
C2364 C2363 1.355 . S
C2364 C2366 1.419 1_545 S
C2365 C2360 1.425 1_545 S
C2365 C2362 1.409 . S
C2365 C2363 1.415 . S
C2366 H2356 0.930 . S
C2366 C2364 1.419 1_565 S
C2366 C2367 1.362 . S
C2367 H2357 0.930 . S
C2367 C2360 1.409 . S
C2367 C2366 1.362 . S
H2368 C2374 0.930 . S
H2369 C2377 0.930 . S
H2370 C2378 0.930 . S
H2371 C2379 0.930 . S
H2372 C2382 0.930 . S
H2373 C2383 0.930 . S
C2374 H2368 0.930 . S
C2374 C2375 1.355 . S
C2374 C2376 1.415 . S
C2375 C2374 1.355 . S
C2375 C2377 1.419 . S
C2376 C2374 1.415 . S
C2376 C2381 1.425 . S
C2376 C2383 1.409 1_556 S
C2377 H2369 0.930 . S
C2377 C2375 1.419 . S
C2377 C2378 1.362 . S
C2378 H2370 0.930 . S
C2378 C2377 1.362 . S
C2378 C2381 1.409 . S
C2379 H2371 0.930 . S
C2379 C2380 1.355 . S
C2379 C2381 1.415 . S
C2380 C2379 1.355 . S
C2380 C2382 1.419 1_556 S
C2381 C2376 1.425 . S
C2381 C2378 1.409 . S
C2381 C2379 1.415 . S
C2382 H2372 0.930 . S
C2382 C2380 1.419 1_554 S
C2382 C2383 1.362 . S
C2383 H2373 0.930 . S
C2383 C2376 1.409 1_554 S
C2383 C2382 1.362 . S
H2384 C2390 0.930 . S
H2385 C2393 0.930 . S
H2386 C2394 0.930 . S
H2387 C2395 0.930 . S
H2388 C2398 0.930 . S
H2389 C2399 0.930 . S
C2390 H2384 0.930 . S
C2390 C2391 1.355 . S
C2390 C2392 1.415 . S
C2391 C2390 1.355 . S
C2391 C2393 1.419 . S
C2392 C2390 1.415 . S
C2392 C2397 1.425 . S
C2392 C2399 1.409 . S
C2393 H2385 0.930 . S
C2393 C2391 1.419 . S
C2393 C2394 1.362 . S
C2394 H2386 0.930 . S
C2394 C2393 1.362 . S
C2394 C2397 1.409 . S
C2395 H2387 0.930 . S
C2395 C2396 1.355 . S
C2395 C2397 1.415 . S
C2396 C2395 1.355 . S
C2396 C2398 1.419 . S
C2397 C2392 1.425 . S
C2397 C2394 1.409 . S
C2397 C2395 1.415 . S
C2398 H2388 0.930 . S
C2398 C2396 1.419 . S
C2398 C2399 1.362 . S
C2399 H2389 0.930 . S
C2399 C2392 1.409 . S
C2399 C2398 1.362 . S
H2400 C2406 0.930 . S
H2401 C2409 0.930 . S
H2402 C2410 0.930 . S
H2403 C2411 0.930 . S
H2404 C2414 0.930 . S
H2405 C2415 0.930 . S
C2406 H2400 0.930 . S
C2406 C2407 1.355 . S
C2406 C2408 1.415 . S
C2407 C2406 1.355 . S
C2407 C2409 1.419 . S
C2408 C2406 1.415 . S
C2408 C2413 1.425 . S
C2408 C2415 1.409 . S
C2409 H2401 0.930 . S
C2409 C2407 1.419 . S
C2409 C2410 1.362 . S
C2410 H2402 0.930 . S
C2410 C2409 1.362 . S
C2410 C2413 1.409 . S
C2411 H2403 0.930 . S
C2411 C2412 1.355 . S
C2411 C2413 1.415 . S
C2412 C2411 1.355 . S
C2412 C2414 1.419 . S
C2413 C2408 1.425 . S
C2413 C2410 1.409 . S
C2413 C2411 1.415 . S
C2414 H2404 0.930 . S
C2414 C2412 1.419 . S
C2414 C2415 1.362 . S
C2415 H2405 0.930 . S
C2415 C2408 1.409 . S
C2415 C2414 1.362 . S
H2416 C2422 0.930 . S
H2417 C2425 0.930 . S
H2418 C2426 0.930 . S
H2419 C2427 0.930 . S
H2420 C2430 0.930 . S
H2421 C2431 0.930 . S
C2422 H2416 0.930 . S
C2422 C2423 1.355 . S
C2422 C2424 1.415 . S
C2423 C2422 1.355 . S
C2423 C2425 1.419 . S
C2424 C2422 1.415 . S
C2424 C2429 1.425 . S
C2424 C2431 1.409 . S
C2425 H2417 0.930 . S
C2425 C2423 1.419 . S
C2425 C2426 1.362 . S
C2426 H2418 0.930 . S
C2426 C2425 1.362 . S
C2426 C2429 1.409 . S
C2427 H2419 0.930 . S
C2427 C2428 1.355 . S
C2427 C2429 1.415 . S
C2428 C2427 1.355 . S
C2428 C2430 1.419 . S
C2429 C2424 1.425 . S
C2429 C2426 1.409 . S
C2429 C2427 1.415 . S
C2430 H2420 0.930 . S
C2430 C2428 1.419 . S
C2430 C2431 1.362 . S
C2431 H2421 0.930 . S
C2431 C2424 1.409 . S
C2431 C2430 1.362 . S
H2432 C2438 0.930 . S
H2433 C2441 0.930 . S
H2434 C2442 0.930 1_556 S
H2435 C2443 0.930 1_556 S
H2436 C2446 0.930 . S
H2437 C2447 0.930 . S
C2438 H2432 0.930 . S
C2438 C2439 1.355 . S
C2438 C2440 1.415 . S
C2439 C2438 1.355 . S
C2439 C2441 1.419 . S
C2440 C2438 1.415 . S
C2440 C2445 1.425 . S
C2440 C2447 1.409 . S
C2441 H2433 0.930 . S
C2441 C2439 1.419 . S
C2441 C2442 1.362 . S
C2442 H2434 0.930 1_554 S
C2442 C2441 1.362 . S
C2442 C2445 1.409 . S
C2443 H2435 0.930 1_554 S
C2443 C2444 1.355 . S
C2443 C2445 1.415 . S
C2444 C2443 1.355 . S
C2444 C2446 1.419 . S
C2445 C2440 1.425 . S
C2445 C2442 1.409 . S
C2445 C2443 1.415 . S
C2446 H2436 0.930 . S
C2446 C2444 1.419 . S
C2446 C2447 1.362 . S
C2447 H2437 0.930 . S
C2447 C2440 1.409 . S
C2447 C2446 1.362 . S
H2448 C2454 0.930 . S
H2449 C2457 0.930 . S
H2450 C2458 0.930 . S
H2451 C2459 0.930 . S
H2452 C2462 0.930 . S
H2453 C2463 0.930 . S
C2454 H2448 0.930 . S
C2454 C2455 1.355 . S
C2454 C2456 1.415 . S
C2455 C2454 1.355 . S
C2455 C2457 1.419 . S
C2456 C2454 1.415 . S
C2456 C2461 1.425 . S
C2456 C2463 1.409 . S
C2457 H2449 0.930 . S
C2457 C2455 1.419 . S
C2457 C2458 1.362 . S
C2458 H2450 0.930 . S
C2458 C2457 1.362 . S
C2458 C2461 1.409 . S
C2459 H2451 0.930 . S
C2459 C2460 1.355 . S
C2459 C2461 1.415 . S
C2460 C2459 1.355 . S
C2460 C2462 1.419 . S
C2461 C2456 1.425 . S
C2461 C2458 1.409 . S
C2461 C2459 1.415 . S
C2462 H2452 0.930 . S
C2462 C2460 1.419 . S
C2462 C2463 1.362 . S
C2463 H2453 0.930 . S
C2463 C2456 1.409 . S
C2463 C2462 1.362 . S
H2464 C2470 0.930 . S
H2465 C2473 0.930 . S
H2466 C2474 0.930 . S
H2467 C2475 0.930 . S
H2468 C2478 0.930 . S
H2469 C2479 0.930 . S
C2470 H2464 0.930 . S
C2470 C2471 1.355 . S
C2470 C2472 1.415 . S
C2471 C2470 1.355 . S
C2471 C2473 1.419 . S
C2472 C2470 1.415 . S
C2472 C2477 1.425 . S
C2472 C2479 1.409 . S
C2473 H2465 0.930 . S
C2473 C2471 1.419 . S
C2473 C2474 1.362 . S
C2474 H2466 0.930 . S
C2474 C2473 1.362 . S
C2474 C2477 1.409 . S
C2475 H2467 0.930 . S
C2475 C2476 1.355 . S
C2475 C2477 1.415 . S
C2476 C2475 1.355 . S
C2476 C2478 1.419 . S
C2477 C2472 1.425 . S
C2477 C2474 1.409 . S
C2477 C2475 1.415 . S
C2478 H2468 0.930 . S
C2478 C2476 1.419 . S
C2478 C2479 1.362 . S
C2479 H2469 0.930 . S
C2479 C2472 1.409 . S
C2479 C2478 1.362 . S
H2480 C2486 0.930 . S
H2481 C2489 0.930 . S
H2482 C2490 0.930 . S
H2483 C2491 0.930 . S
H2484 C2494 0.930 . S
H2485 C2495 0.930 . S
C2486 H2480 0.930 . S
C2486 C2487 1.355 . S
C2486 C2488 1.415 . S
C2487 C2486 1.355 . S
C2487 C2489 1.419 . S
C2488 C2486 1.415 . S
C2488 C2493 1.425 . S
C2488 C2495 1.409 . S
C2489 H2481 0.930 . S
C2489 C2487 1.419 . S
C2489 C2490 1.362 . S
C2490 H2482 0.930 . S
C2490 C2489 1.362 . S
C2490 C2493 1.409 . S
C2491 H2483 0.930 . S
C2491 C2492 1.355 . S
C2491 C2493 1.415 . S
C2492 C2491 1.355 . S
C2492 C2494 1.419 . S
C2493 C2488 1.425 . S
C2493 C2490 1.409 . S
C2493 C2491 1.415 . S
C2494 H2484 0.930 . S
C2494 C2492 1.419 . S
C2494 C2495 1.362 . S
C2495 H2485 0.930 . S
C2495 C2488 1.409 . S
C2495 C2494 1.362 . S
C967 C751 2.089 . S
C972 C1 2.092 . S
C983 C721 2.086 . S
C988 C31 2.079 . S
C999 C811 2.090 . S
C1004 C61 2.092 . S
C1015 C781 2.073 . S
C1020 C91 2.065 . S
C1031 C130 2.075 . S
C1036 C880 2.066 . S
C1047 C160 2.088 . S
C1052 C850 2.091 . S
C1063 C190 2.077 . S
C1068 C940 2.085 . S
C1079 C910 2.059 . S
C1084 C220 2.056 . S
C1095 C511 2.061 . S
C1100 C241 2.056 . S
C1111 C481 2.062 . S
C1116 C271 2.057 . S
C1127 C571 2.087 . S
C1132 C301 2.080 . S
C1143 C541 2.057 . S
C1148 C331 2.056 . S
C1159 C370 2.090 . S
C1164 C640 2.092 . S
C1175 C610 2.065 . S
C1180 C400 2.058 . S
C1191 C430 2.091 . S
C1196 C700 2.092 . S
C1207 C670 2.062 . S
C1212 C460 2.057 . S
C1223 C16 2.747 . S
C1228 C627 2.747 . S
C1239 C417 2.768 . S
C1244 C46 2.768 . S
C1255 C927 2.771 . S
C1260 C76 2.771 . S
C1271 C106 2.744 . S
C1276 C237 2.744 . S
C1287 C147 2.741 . S
C1292 C496 2.741 . S
C1303 C177 2.770 . S
C1308 C286 2.770 . S
C1319 C207 2.762 . S
C1324 C796 2.762 . S
C1335 C867 2.750 . S
C1340 C256 2.750 . S
C1351 C687 2.741 . S
C1356 C316 2.741 . S
C1367 C477 2.741 . S
C1372 C346 2.741 . S
C1383 C736 2.762 . S
C1388 C387 2.762 . S
C1399 C447 2.744 . S
C1404 C556 2.744 . S
C1415 C897 2.742 . S
C1420 C526 2.742 . S
C1431 C586 2.749 1_545 S
C1436 C717 2.749 1_565 S
C1447 C766 2.752 . S
C1452 C657 2.752 . S
C1463 C826 2.745 . S
C1468 C957 2.745 . S
C1479 C27 2.362 1_556 S
C1484 C597 2.353 . S
C1495 C57 2.362 1_556 S
C1500 C567 2.364 . S
C1511 C87 2.365 . S
C1516 C537 2.358 . S
C1527 C117 2.360 . S
C1532 C507 2.351 . S
C1543 C136 2.364 1_554 S
C1548 C706 2.362 . S
C1559 C166 2.354 1_554 S
C1564 C676 2.363 . S
C1575 C196 2.361 . S
C1580 C646 2.364 . S
C1591 C226 2.362 . S
C1596 C616 2.364 . S
C1607 C267 2.349 . S
C1612 C837 2.349 . S
C1623 C297 2.361 . S
C1628 C807 2.352 . S
C1639 C327 2.363 . S
C1644 C777 2.363 1_556 S
C1655 C357 2.364 . S
C1660 C747 2.361 1_556 S
C1671 C946 2.348 . S
C1676 C376 2.350 . S
C1687 C916 2.352 . S
C1692 C406 2.361 . S
C1703 C886 2.349 1_554 S
C1708 C436 2.357 . S
C1719 C856 2.364 1_554 S
C1724 C466 2.361 . S
C1735 C70 1.405 . S
C1740 C10 1.437 . S
C1751 C100 1.455 . S
C1756 C40 1.424 . S
C1767 C181 1.411 . S
C1772 C121 1.403 . S
C1783 C151 1.417 . S
C1788 C211 1.451 . S
C1799 C310 1.436 . S
C1804 C250 1.405 . S
C1815 C280 1.440 . S
C1820 C340 1.407 . S
C1831 C421 1.453 . S
C1836 C361 1.420 . S
C1847 C391 1.411 . S
C1852 C451 1.445 . S
C1863 C490 1.450 . S
C1868 C550 1.455 . S
C1879 C520 1.452 . S
C1884 C580 1.454 . S
C1895 C661 1.453 . S
C1900 C601 1.453 . S
C1911 C631 1.426 . S
C1916 C691 1.401 . S
C1927 C730 1.401 . S
C1932 C790 1.424 . S
C1943 C820 1.404 . S
C1948 C760 1.433 . S
C1959 C841 1.432 . S
C1964 C901 1.458 . S
C1975 C871 1.412 . S
C1980 C931 1.403 . S
C1991 N14 0.551 . S
C1996 N224 0.668 . S
C2007 N914 0.690 . S
C2012 N44 0.734 1_455 S
C2023 N74 0.652 . S
C2028 N404 0.548 . S
C2039 N104 0.734 1_455 S
C2044 N614 0.691 . S
C2055 N96 0.747 . S
C2060 N126 0.650 . S
C2071 N156 0.592 1_655 S
C2076 N786 0.552 . S
C2087 N276 0.546 . S
C2092 N186 0.606 . S
C2103 N486 0.635 . S
C2108 N216 0.544 1_655 S
C2119 N254 0.732 . S
C2124 N464 0.700 . S
C2135 N674 0.555 . S
C2140 N284 0.587 1_455 S
C2151 N314 0.679 . S
C2156 N164 0.747 . S
C2167 N854 0.631 . S
C2172 N344 0.544 1_455 S
C2183 N366 0.546 . S
C2188 N336 0.614 . S
C2199 N396 0.686 1_655 S
C2204 N546 0.746 . S
C2215 N426 0.695 . S
C2220 N36 0.743 . S
C2231 N726 0.550 . S
C2236 N456 0.597 1_655 S
C2247 N494 0.706 . S
C2252 N704 0.591 . S
C2263 N524 0.734 . S
C2268 N434 0.661 . S
C2279 N554 0.719 . S
C2284 N884 0.612 . S
C2295 N584 0.681 . S
C2300 N134 0.747 . S
C2311 N606 0.696 . S
C2316 N576 0.743 . S
C2327 N306 0.619 . S
C2332 N636 0.545 . S
C2343 N756 0.744 . S
C2348 N666 0.639 . S
C2359 N696 0.682 . S
C2364 N6 0.565 . S
C2375 N944 0.546 . S
C2380 N734 0.607 . S
C2391 N194 0.679 . S
C2396 N764 0.556 . S
C2407 N644 0.732 . S
C2412 N794 0.712 . S
C2423 N824 0.546 . S
C2428 N374 0.651 . S
C2439 N816 0.687 . S
C2444 N846 0.734 . S
C2455 N66 0.571 . S
C2460 N876 0.689 . S
C2471 N516 0.655 . S
C2476 N906 0.733 . S
C2487 N936 0.730 . S
C2492 N246 0.641 . S
