# Generated by pormake.
# Topology fns, (5)-cn, num edge types: 1
# Building blocks:
#     Node 0, Type 0, BuildingBlock: XOMCOT_clean_sbu_0, # of connection points: 5
#     Node 1, Type 0, BuildingBlock: XOMCOT_clean_sbu_0, # of connection points: 5
#     Node 2, Type 0, BuildingBlock: XOMCOT_clean_sbu_0, # of connection points: 5
#     Node 3, Type 0, BuildingBlock: XOMCOT_clean_sbu_0, # of connection points: 5
#     Node 4, Type 0, BuildingBlock: XOMCOT_clean_sbu_0, # of connection points: 5
#     Node 5, Type 0, BuildingBlock: XOMCOT_clean_sbu_0, # of connection points: 5
#     Edge 6, Type (0, 0), BuildingBlock: FUNLAD_clean_linker_1, # of connection points: 2
#     Edge 7, Type (0, 0), BuildingBlock: FUNLAD_clean_linker_1, # of connection points: 2
#     Edge 8, Type (0, 0), BuildingBlock: FUNLAD_clean_linker_1, # of connection points: 2
#     Edge 9, Type (0, 0), BuildingBlock: FUNLAD_clean_linker_1, # of connection points: 2
#     Edge 10, Type (0, 0), BuildingBlock: FUNLAD_clean_linker_1, # of connection points: 2
#     Edge 11, Type (0, 0), BuildingBlock: FUNLAD_clean_linker_1, # of connection points: 2
#     Edge 12, Type (0, 0), BuildingBlock: FUNLAD_clean_linker_1, # of connection points: 2
#     Edge 13, Type (0, 0), BuildingBlock: FUNLAD_clean_linker_1, # of connection points: 2
#     Edge 14, Type (0, 0), BuildingBlock: FUNLAD_clean_linker_1, # of connection points: 2
#     Edge 15, Type (0, 0), BuildingBlock: FUNLAD_clean_linker_1, # of connection points: 2
#     Edge 16, Type (0, 0), BuildingBlock: FUNLAD_clean_linker_1, # of connection points: 2
#     Edge 17, Type (0, 0), BuildingBlock: FUNLAD_clean_linker_1, # of connection points: 2
#     Edge 18, Type (0, 0), BuildingBlock: FUNLAD_clean_linker_1, # of connection points: 2
#     Edge 19, Type (0, 0), BuildingBlock: FUNLAD_clean_linker_1, # of connection points: 2
#     Edge 20, Type (0, 0), BuildingBlock: FUNLAD_clean_linker_1, # of connection points: 2
# Relax obj value: 0.193
# Max RMSD: 0.296
# Mean RMSD: 0.296
data_MOF--net-fns--node1-XOMCOT_clean_sbu_0--edge1-FUNLAD_clean_linker_1
_symmetry_space_group_name_H-M    P1
_symmetry_Int_Tables_number       1
_symmetry_cell_setting            triclinic
loop_
_symmetry_equiv_pos_as_xyz
'x, y, z'
_cell_length_a     58.254607
_cell_length_b     57.974411
_cell_length_c     18.182664
_cell_angle_alpha  90.024466
_cell_angle_beta   90.139173
_cell_angle_gamma 120.35802
loop_
_atom_site_label
_atom_site_type_symbol
_atom_site_fract_x
_atom_site_fract_y
_atom_site_fract_z
_atom_type_partial_charge
Co0 Co 0.19013 0.61977 0.19195 0.0
C1 C 0.19294 0.61567 0.35834 0.0
C2 C 0.21566 0.60192 0.29994 0.0
C3 C 0.2204 0.6017 0.37402 0.0
N4 N 0.19801 0.61019 0.28914 0.0
N5 N 0.20604 0.61013 0.41104 0.0
H6 H 0.1819 0.62559 0.37004 0.0
H7 H 0.22595 0.59801 0.25674 0.0
C8 C 0.18744 0.56752 0.15503 0.0
O9 O 0.17009 0.5547 0.20731 0.0
N10 N 0.18296 0.62979 0.09541 0.0
C11 C 0.16662 0.63956 0.08384 0.0
C12 C 0.16308 0.64069 1.00928 0.0
C13 C 0.18938 0.62536 0.02696 0.0
N14 N 0.17738 0.63189 0.97333 0.0
C15 C 0.13797 0.59719 0.25855 0.0
C16 C 0.11185 0.55821 0.15257 0.0
C17 C 0.09729 0.55934 0.21197 0.0
C18 C 0.11055 0.5794 0.26517 0.0
C19 C 0.13897 0.57651 0.14766 0.0
N20 N 0.15207 0.59484 0.20213 0.0
H21 H 0.14762 0.61318 0.29782 0.0
H22 H 0.14944 0.57591 0.09948 0.0
H23 H 0.15687 0.64429 0.12687 0.0
H24 H 0.20121 0.61618 0.01665 0.0
O25 O 0.19307 0.65194 0.23478 0.0
O26 O 0.2262 0.64833 0.18683 0.0
O27 O 0.19622 0.59227 0.14283 0.0
C28 C 0.21832 0.66307 0.21902 0.0
H29 H 0.23432 0.5968 0.39881 0.0
H30 H 0.15025 0.64679 0.98327 0.0
H31 H 0.10223 0.54351 0.10928 0.0
H32 H 0.10007 0.58131 0.31167 0.0
Co33 Co 0.589 0.20029 0.54005 0.0
C34 C 0.58904 0.19744 0.70094 0.0
C35 C 0.62884 0.21873 0.65848 0.0
C36 C 0.63013 0.2193 0.7342 0.0
N37 N 0.60308 0.20497 0.63809 0.0
N38 N 0.60503 0.20595 0.76044 0.0
H39 H 0.56752 0.18664 0.70314 0.0
H40 H 0.64548 0.22842 0.62113 0.0
C41 C 0.62501 0.1883 0.44934 0.0
O42 O 0.60442 0.16802 0.41744 0.0
N43 N 0.57522 0.1964 0.44073 0.0
C44 C 0.54986 0.1826 0.41628 0.0
C45 C 0.54971 0.18562 0.34123 0.0
C46 C 0.58989 0.20858 0.38059 0.0
N47 N 0.57498 0.20183 0.3191 0.0
C48 C 0.54306 0.14851 0.56402 0.0
C49 C 0.56973 0.12059 0.57657 0.0
C50 C 0.54181 0.10639 0.57776 0.0
C51 C 0.52857 0.12085 0.57399 0.0
C52 C 0.58344 0.14832 0.56697 0.0
N53 N 0.57002 0.16171 0.55553 0.0
H54 H 0.53249 0.15932 0.564 0.0
H55 H 0.60487 0.15895 0.56988 0.0
H56 H 0.53244 0.17123 0.44957 0.0
H57 H 0.61125 0.22181 0.38138 0.0
O58 O 0.56242 0.20849 0.57487 0.0
O59 O 0.60261 0.23813 0.53409 0.0
O60 O 0.62181 0.20127 0.5011 0.0
C61 C 0.58005 0.23334 0.56135 0.0
H62 H 0.64811 0.22948 0.76683 0.0
H63 H 0.53234 0.17612 0.30603 0.0
H64 H 0.58102 0.11062 0.58434 0.0
H65 H 0.50709 0.11083 0.57812 0.0
Co66 Co 0.36775 0.57041 0.84483 0.0
C67 C 0.37171 0.57204 1.00586 0.0
C68 C 0.37957 0.60976 0.9623 0.0
C69 C 0.38 0.61123 0.03801 0.0
N70 N 0.37443 0.58521 0.94256 0.0
N71 N 0.37493 0.58741 0.06498 0.0
H72 H 0.36654 0.55131 1.00865 0.0
H73 H 0.38186 0.62517 0.92447 0.0
C74 C 0.41081 0.61428 0.75342 0.0
O75 O 0.41518 0.59694 0.7189 0.0
N76 N 0.36042 0.55585 0.74584 0.0
C77 C 0.35564 0.53189 0.72084 0.0
C78 C 0.35184 0.53084 0.64582 0.0
C79 C 0.35823 0.56843 0.68614 0.0
N80 N 0.35371 0.55399 0.6243 0.0
C81 C 0.38742 0.53473 0.87012 0.0
C82 C 0.44056 0.57309 0.88238 0.0
C83 C 0.43326 0.54609 0.88495 0.0
C84 C 0.4061 0.52678 0.8813 0.0
C85 C 0.42112 0.58014 0.87171 0.0
N86 N 0.3951 0.561 0.86063 0.0
H87 H 0.36664 0.51962 0.87025 0.0
H88 H 0.42712 0.60104 0.87358 0.0
H89 H 0.35481 0.51604 0.7536 0.0
H90 H 0.36064 0.5882 0.68753 0.0
O91 O 0.33719 0.53826 0.88181 0.0
O92 O 0.33653 0.57372 0.83855 0.0
O93 O 0.39383 0.60691 0.80527 0.0
C94 C 0.32373 0.55007 0.86795 0.0
H95 H 0.38292 0.62822 0.07013 0.0
H96 H 0.34862 0.51451 0.61022 0.0
H97 H 0.46117 0.58869 0.88855 0.0
H98 H 0.39899 0.50571 0.88816 0.0
Co99 Co 0.80367 0.36799 0.1509 0.0
C100 C 0.80021 0.37199 0.31802 0.0
C101 C 0.76903 0.37314 0.25848 0.0
C102 C 0.76457 0.37376 0.33246 0.0
N103 N 0.79177 0.37276 0.24837 0.0
N104 N 0.78402 0.37294 0.37026 0.0
H105 H 0.81712 0.36988 0.33084 0.0
H106 H 0.75603 0.37231 0.21471 0.0
C107 C 0.79524 0.41452 0.12861 0.0
O108 O 0.80719 0.42506 0.19142 0.0
N109 N 0.81467 0.36262 0.05397 0.0
C110 C 0.83405 0.35689 0.04218 0.0
C111 C 0.83707 0.35534 0.9676 0.0
C112 C 0.80611 0.36451 0.98569 0.0
N113 N 0.81964 0.36016 0.93176 0.0
C114 C 0.85521 0.39378 0.22048 0.0
C115 C 0.87733 0.43948 0.13544 0.0
C116 C 0.89273 0.43738 0.19125 0.0
C117 C 0.88146 0.414 0.23379 0.0
C118 C 0.85133 0.41871 0.12362 0.0
N119 N 0.84003 0.39682 0.16844 0.0
H120 H 0.84736 0.3754 0.25093 0.0
H121 H 0.84056 0.42014 0.07718 0.0
H122 H 0.84545 0.3543 0.08505 0.0
H123 H 0.7905 0.36906 0.97584 0.0
O124 O 0.80587 0.33795 0.18925 0.0
O125 O 0.76995 0.33576 0.13946 0.0
O126 O 0.79308 0.3928 0.10501 0.0
C127 C 0.78081 0.32358 0.17154 0.0
H128 H 0.74782 0.37411 0.3569 0.0
H129 H 0.85123 0.35112 0.94139 0.0
H130 H 0.88558 0.45681 0.0998 0.0
H131 H 0.8926 0.41121 0.27708 0.0
Co132 Co 0.41687 0.80773 0.48672 0.0
C133 C 0.4158 0.80711 0.64781 0.0
C134 C 0.37694 0.78114 0.60253 0.0
C135 C 0.37524 0.7796 0.67816 0.0
N136 N 0.40235 0.79847 0.58405 0.0
N137 N 0.39976 0.79597 0.70612 0.0
H138 H 0.43697 0.82114 0.6515 0.0
H139 H 0.36088 0.77025 0.56378 0.0
C140 C 0.37935 0.82102 0.40774 0.0
O141 O 0.39928 0.84286 0.37996 0.0
N142 N 0.43088 0.81618 0.38772 0.0
C143 C 0.45603 0.832 0.36381 0.0
C144 C 0.4563 0.83026 0.28828 0.0
C145 C 0.41649 0.8044 0.32667 0.0
N146 N 0.43132 0.81294 0.26538 0.0
C147 C 0.46129 0.85928 0.52308 0.0
C148 C 0.43264 0.88445 0.55049 0.0
C149 C 0.46055 0.89964 0.5519 0.0
C150 C 0.4748 0.88646 0.54064 0.0
C151 C 0.41994 0.85723 0.53306 0.0
N152 N 0.43432 0.8454 0.51439 0.0
H153 H 0.47263 0.84938 0.51698 0.0
H154 H 0.39852 0.8457 0.53558 0.0
H155 H 0.47333 0.84347 0.39773 0.0
H156 H 0.39547 0.78966 0.32706 0.0
O157 O 0.44426 0.79973 0.51513 0.0
O158 O 0.40494 0.77079 0.46695 0.0
O159 O 0.38345 0.80662 0.45293 0.0
C160 C 0.42758 0.77543 0.4935 0.0
H161 H 0.35738 0.76737 0.70959 0.0
H162 H 0.47363 0.84063 0.25355 0.0
H163 H 0.4206 0.89323 0.56374 0.0
H164 H 0.49631 0.89714 0.54454 0.0
Co165 Co 0.61769 0.43399 0.86349 0.0
C166 C 0.61196 0.43159 0.02406 0.0
C167 C 0.60468 0.39413 0.9798 0.0
C168 C 0.60411 0.39251 0.0555 0.0
N169 N 0.60959 0.41863 0.9605 0.0
N170 N 0.60882 0.41618 0.08292 0.0
H171 H 0.61717 0.45234 0.02723 0.0
H172 H 0.60284 0.37896 0.94167 0.0
C173 C 0.57385 0.3925 0.76902 0.0
O174 O 0.56978 0.41095 0.74062 0.0
N175 N 0.62646 0.44903 0.76506 0.0
C176 C 0.63318 0.47365 0.74074 0.0
C177 C 0.63683 0.47461 0.66573 0.0
C178 C 0.62752 0.43594 0.70492 0.0
N179 N 0.63295 0.45071 0.6435 0.0
C180 C 0.59966 0.47134 0.88459 0.0
C181 C 0.54635 0.43403 0.90025 0.0
C182 C 0.55423 0.46118 0.89936 0.0
C183 C 0.58146 0.48002 0.89402 0.0
C184 C 0.56528 0.42628 0.89056 0.0
N185 N 0.59133 0.44483 0.87744 0.0
H186 H 0.62057 0.48604 0.88485 0.0
H187 H 0.55892 0.40531 0.89426 0.0
H188 H 0.63568 0.49012 0.77398 0.0
H189 H 0.62362 0.41559 0.70558 0.0
O190 O 0.64871 0.46525 0.90305 0.0
O191 O 0.64782 0.42892 0.86039 0.0
O192 O 0.59093 0.39827 0.82046 0.0
C193 C 0.66119 0.45226 0.89167 0.0
H194 H 0.60131 0.37553 0.08735 0.0
H195 H 0.64184 0.49158 0.6307 0.0
H196 H 0.52567 0.41887 0.90791 0.0
H197 H 0.58885 0.50124 0.89862 0.0
H198 H 0.18154 0.5342 0.08281 0.0
C199 C 0.19623 0.55334 0.10596 0.0
H200 H 0.23586 0.58462 0.10992 0.0
H201 H 0.24709 0.49448 0.90837 0.0
H202 H 0.22334 0.46148 1.004 0.0
H203 H 0.20475 0.47264 0.11098 0.0
H204 H 0.20884 0.5162 0.12177 0.0
C205 C 0.22183 0.56546 0.08515 0.0
C206 C 0.2315 0.55701 0.02049 0.0
C207 C 0.22995 0.5318 0.01768 0.0
C208 C 0.2424 0.526 0.95905 0.0
C209 C 0.23916 0.50017 0.95419 0.0
C210 C 0.22547 0.48109 1.00826 0.0
C211 C 0.21489 0.48734 0.06828 0.0
C212 C 0.21716 0.5124 0.07342 0.0
H213 H 0.29377 0.53247 0.95399 0.0
C214 C 0.29696 0.53982 0.89784 0.0
H215 H 0.28295 0.55129 0.80752 0.0
H216 H 0.23466 0.60551 1.00257 0.0
H217 H 0.258 0.63782 0.90654 0.0
H218 H 0.28085 0.62828 0.80768 0.0
H219 H 0.28105 0.58689 0.8052 0.0
C220 C 0.27911 0.54436 0.86398 0.0
C221 C 0.25826 0.54611 0.90735 0.0
C222 C 0.25758 0.57024 0.90591 0.0
C223 C 0.24427 0.5757 0.96273 0.0
C224 C 0.24459 0.60033 0.96134 0.0
C225 C 0.25781 0.61906 0.90623 0.0
C226 C 0.27074 0.61372 0.85074 0.0
C227 C 0.27076 0.58973 0.85033 0.0
H228 H 0.66603 0.22064 0.43624 0.0
C229 C 0.65148 0.20102 0.41512 0.0
H230 H 0.64224 0.17275 0.33095 0.0
H231 H 0.70741 0.26454 0.10028 0.0
H232 H 0.66525 0.23635 0.03849 0.0
H233 H 0.62974 0.19609 0.09921 0.0
H234 H 0.63582 0.18388 0.22143 0.0
C235 C 0.65695 0.19202 0.35328 0.0
C236 C 0.68052 0.21079 0.30814 0.0
C237 C 0.67652 0.21745 0.23604 0.0
C238 C 0.69692 0.24087 0.20147 0.0
C239 C 0.69239 0.24725 0.12964 0.0
C240 C 0.66834 0.23122 0.09343 0.0
C241 C 0.64831 0.20859 0.12762 0.0
C242 C 0.65215 0.20177 0.19813 0.0
H243 H 0.77429 0.28384 0.20374 0.0
C244 C 0.76464 0.29544 0.1941 0.0
H245 H 0.72959 0.29732 0.2006 0.0
H246 H 0.6976 0.19806 0.43283 0.0
H247 H 0.73982 0.22591 0.49582 0.0
H248 H 0.77306 0.26963 0.44455 0.0
H249 H 0.7648 0.28544 0.33064 0.0
C250 C 0.73878 0.28527 0.21021 0.0
C251 C 0.72104 0.25784 0.23942 0.0
C252 C 0.7259 0.24984 0.30889 0.0
C253 C 0.70601 0.22557 0.34128 0.0
C254 C 0.71171 0.217 0.40816 0.0
C255 C 0.73581 0.23268 0.44448 0.0
C256 C 0.75455 0.25724 0.41553 0.0
C257 C 0.74966 0.26594 0.34905 0.0
H258 H 0.4228 0.73639 0.46628 0.0
C259 C 0.4324 0.75314 0.50425 0.0
H260 H 0.45165 0.76664 0.6068 0.0
H261 H 0.38491 0.63275 0.61692 0.0
H262 H 0.34522 0.63547 0.59601 0.0
H263 H 0.34832 0.67916 0.5783 0.0
H264 H 0.391 0.72003 0.57841 0.0
C265 C 0.44275 0.75032 0.56729 0.0
C266 C 0.44034 0.72425 0.58782 0.0
C267 C 0.41485 0.70077 0.59335 0.0
C268 C 0.41282 0.67586 0.60978 0.0
C269 C 0.3874 0.65236 0.6086 0.0
C270 C 0.36447 0.65361 0.59629 0.0
C271 C 0.36624 0.67817 0.58585 0.0
C272 C 0.39102 0.70152 0.58488 0.0
H273 H 0.41825 0.65523 0.75931 0.0
C274 C 0.42219 0.64185 0.72676 0.0
H275 H 0.43653 0.63671 0.62465 0.0
H276 H 0.4921 0.76513 0.58221 0.0
H277 H 0.53133 0.76234 0.61128 0.0
H278 H 0.52729 0.71955 0.64883 0.0
H279 H 0.48391 0.67911 0.65678 0.0
C280 C 0.4329 0.64971 0.65967 0.0
C281 C 0.43592 0.67481 0.62838 0.0
C282 C 0.46128 0.69816 0.62399 0.0
C283 C 0.46353 0.7229 0.60315 0.0
C284 C 0.48919 0.74588 0.59848 0.0
C285 C 0.51187 0.74455 0.61493 0.0
C286 C 0.5096 0.72044 0.63608 0.0
C287 C 0.48463 0.69743 0.6406 0.0
H288 H 0.69699 0.4801 0.95529 0.0
C289 C 0.68762 0.46155 0.92408 0.0
H290 H 0.68801 0.42628 0.89774 0.0
H291 H 0.80849 0.47871 0.01385 0.0
H292 H 0.82031 0.50062 0.89443 0.0
H293 H 0.7859 0.49975 0.81301 0.0
H294 H 0.73947 0.47698 0.8504 0.0
C295 C 0.69787 0.4454 0.9262 0.0
C296 C 0.71919 0.44996 0.97895 0.0
C297 C 0.74614 0.46372 0.95677 0.0
C298 C 0.76591 0.46404 1.0034 0.0
C299 C 0.7927 0.4776 0.97979 0.0
C300 C 0.79972 0.49032 0.91169 0.0
C301 C 0.78034 0.48985 0.86585 0.0
C302 C 0.7538 0.47671 0.88784 0.0
H303 H 0.77415 0.41733 0.03227 0.0
C304 C 0.78233 0.42628 0.08562 0.0
H305 H 0.78399 0.45313 0.16709 0.0
H306 H 0.66938 0.42336 0.04012 0.0
H307 H 0.65781 0.40182 0.15938 0.0
H308 H 0.69233 0.40346 0.24164 0.0
H309 H 0.73862 0.42596 0.20398 0.0
C310 C 0.77748 0.44498 0.11218 0.0
C311 C 0.75858 0.45053 0.07181 0.0
C312 C 0.73193 0.43855 0.09638 0.0
C313 C 0.71211 0.43797 0.04948 0.0
C314 C 0.68532 0.42454 0.07361 0.0
C315 C 0.67838 0.41211 0.14204 0.0
C316 C 0.69782 0.413 0.1883 0.0
C317 C 0.7243 0.42597 0.16599 0.0
H318 H 0.34765 0.8244 0.34927 0.0
C319 C 0.35204 0.81107 0.38026 0.0
H320 H 0.33812 0.77195 0.41892 0.0
H321 H 0.21842 0.70903 0.4083 0.0
H322 H 0.22563 0.7174 0.53944 0.0
H323 H 0.26935 0.75156 0.58793 0.0
H324 H 0.30638 0.77749 0.50527 0.0
C325 C 0.33353 0.78506 0.38743 0.0
C326 C 0.30618 0.77223 0.35602 0.0
C327 C 0.28436 0.7583 0.40443 0.0
C328 C 0.25899 0.73892 0.37644 0.0
C329 C 0.23804 0.72412 0.42653 0.0
C330 C 0.24188 0.72875 0.50196 0.0
C331 C 0.26653 0.748 0.52928 0.0
C332 C 0.2876 0.76263 0.48135 0.0
H333 H 0.2589 0.69637 0.22979 0.0
C334 C 0.23826 0.69055 0.23972 0.0
H335 H 0.21245 0.70234 0.2852 0.0
H336 H 0.3431 0.79652 0.24505 0.0
H337 H 0.33434 0.79149 0.11442 0.0
H338 H 0.28901 0.76154 0.06685 0.0
H339 H 0.25228 0.73567 0.15087 0.0
C340 C 0.23284 0.708 0.27261 0.0
C341 C 0.25548 0.73389 0.29989 0.0
C342 C 0.27613 0.75082 0.25101 0.0
C343 C 0.30187 0.7693 0.2788 0.0
C344 C 0.32283 0.78327 0.22795 0.0
C345 C 0.31811 0.78043 0.15238 0.0
C346 C 0.29262 0.7635 0.12557 0.0
C347 C 0.2718 0.74873 0.17411 0.0
H348 H 0.59356 0.27565 0.57904 0.0
C349 C 0.57617 0.25569 0.58134 0.0
H350 H 0.53566 0.23254 0.6099 0.0
H351 H 0.54682 0.31685 0.8506 0.0
H352 H 0.52952 0.2758 0.92074 0.0
H353 H 0.52246 0.23431 0.8622 0.0
H354 H 0.5323 0.23348 0.73326 0.0
C355 C 0.553 0.25245 0.60599 0.0
C356 C 0.55198 0.27574 0.6372 0.0
C357 C 0.54576 0.27569 0.71257 0.0
C358 C 0.55036 0.29974 0.74676 0.0
C359 C 0.54414 0.29923 0.82224 0.0
C360 C 0.53412 0.2758 0.86309 0.0
C361 C 0.53012 0.25244 0.8301 0.0
C362 C 0.53586 0.25226 0.75585 0.0
H363 H 0.54584 0.36058 0.69354 0.0
C364 C 0.56145 0.36588 0.73417 0.0
H365 H 0.5867 0.35471 0.78685 0.0
H366 H 0.55849 0.28073 0.48818 0.0
H367 H 0.57765 0.3221 0.41835 0.0
H368 H 0.59142 0.36499 0.48029 0.0
H369 H 0.58454 0.36673 0.61083 0.0
C370 C 0.57117 0.34952 0.74601 0.0
C371 C 0.56159 0.32386 0.70601 0.0
C372 C 0.56647 0.3236 0.62957 0.0
C373 C 0.56055 0.29923 0.59472 0.0
C374 C 0.56403 0.29903 0.51774 0.0
C375 C 0.5748 0.32255 0.47703 0.0
C376 C 0.58234 0.34668 0.51183 0.0
C377 C 0.57818 0.34734 0.58705 0.0
H378 H 0.15925 0.62609 0.8647 0.0
C379 C 0.17628 0.62779 0.89433 0.0
H380 H 0.21316 0.62981 0.88365 0.0
H381 H 0.19209 0.57274 0.5733 0.0
H382 H 0.19932 0.54345 0.65231 0.0
H383 H 0.20436 0.55082 0.78638 0.0
H384 H 0.20169 0.58723 0.84229 0.0
C385 C 0.196 0.62798 0.85489 0.0
C386 C 0.19467 0.62487 0.7719 0.0
C387 C 0.1966 0.60366 0.73899 0.0
C388 C 0.1944 0.59983 0.66083 0.0
C389 C 0.19492 0.57749 0.63125 0.0
C390 C 0.19873 0.56025 0.67621 0.0
C391 C 0.2015 0.56435 0.7517 0.0
C392 C 0.20011 0.58551 0.78305 0.0
H393 H 0.22599 0.61778 0.5176 0.0
C394 C 0.20822 0.61503 0.48982 0.0
H395 H 0.17058 0.61111 0.50483 0.0
H396 H 0.19524 0.67069 0.81258 0.0
H397 H 0.18791 0.69996 0.73388 0.0
H398 H 0.18144 0.69185 0.60041 0.0
H399 H 0.18341 0.65502 0.54425 0.0
C400 C 0.18854 0.614 0.53152 0.0
C401 C 0.19091 0.61765 0.61437 0.0
C402 C 0.18917 0.63896 0.64732 0.0
C403 C 0.19167 0.64295 0.72537 0.0
C404 C 0.19183 0.66565 0.75485 0.0
C405 C 0.18801 0.6829 0.71006 0.0
C406 C 0.1845 0.6784 0.63484 0.0
C407 C 0.18548 0.65701 0.60341 0.0
H408 H 0.57474 0.19326 0.84522 0.0
C409 C 0.59602 0.20265 0.83527 0.0
H410 H 0.6341 0.22078 0.88521 0.0
H411 H 0.59503 0.25285 0.17158 0.0
H412 H 0.62493 0.29625 0.11853 0.0
H413 H 0.64496 0.3 0.99654 0.0
H414 H 0.63508 0.26037 0.92676 0.0
C415 C 0.61275 0.21083 0.89299 0.0
C416 C 0.6025 0.20835 0.96906 0.0
C417 C 0.60891 0.23175 1.00965 0.0
C418 C 0.59773 0.22959 0.08047 0.0
C419 C 0.6036 0.25329 0.11856 0.0
C420 C 0.62059 0.27836 0.08848 0.0
C421 C 0.63182 0.28047 0.01976 0.0
C422 C 0.62601 0.25753 0.98035 0.0
H423 H 0.60676 0.21811 0.238 0.0
C424 C 0.58533 0.2083 0.24555 0.0
H425 H 0.54804 0.191 0.19174 0.0
H426 H 0.58928 0.15958 0.91029 0.0
H427 H 0.56025 0.11618 0.96448 0.0
H428 H 0.54006 0.11238 0.08622 0.0
H429 H 0.54891 0.15193 0.15457 0.0
C430 C 0.56949 0.20132 0.18607 0.0
C431 C 0.58059 0.20401 0.11104 0.0
C432 C 0.57452 0.18061 0.07092 0.0
C433 C 0.58576 0.18278 1.0002 0.0
C434 C 0.58051 0.15911 0.963 0.0
C435 C 0.56407 0.13404 0.99381 0.0
C436 C 0.55274 0.1319 0.06238 0.0
C437 C 0.55793 0.15482 0.1009 0.0
H438 H 0.36041 0.58466 0.54409 0.0
C439 C 0.35466 0.56377 0.55097 0.0
H440 H 0.34531 0.52794 0.49597 0.0
H441 H 0.33595 0.60162 0.22878 0.0
H442 H 0.29869 0.59844 0.29671 0.0
H443 H 0.28709 0.57743 0.41926 0.0
H444 H 0.31269 0.55951 0.47465 0.0
C445 C 0.35044 0.54863 0.49091 0.0
C446 C 0.35662 0.5607 0.41622 0.0
C447 C 0.34125 0.57085 0.38443 0.0
C448 C 0.34775 0.58267 0.31335 0.0
C449 C 0.33198 0.59252 0.28266 0.0
C450 C 0.31049 0.59077 0.32098 0.0
C451 C 0.30397 0.57897 0.39002 0.0
C452 C 0.31898 0.56894 0.42143 0.0
H453 H 0.36542 0.5577 0.15058 0.0
C454 C 0.37134 0.57845 0.14009 0.0
H455 H 0.37998 0.61513 0.18898 0.0
H456 H 0.39046 0.54363 0.46202 0.0
H457 H 0.42826 0.5477 0.39523 0.0
H458 H 0.44019 0.56923 0.27337 0.0
H459 H 0.41425 0.58663 0.21745 0.0
C460 C 0.37474 0.59453 0.19742 0.0
C461 C 0.3693 0.58391 0.27382 0.0
C462 C 0.38505 0.57433 0.30637 0.0
C463 C 0.37847 0.56239 0.37722 0.0
C464 C 0.39445 0.55283 0.40825 0.0
C465 C 0.4163 0.55512 0.37063 0.0
C466 C 0.42299 0.5672 0.302 0.0
C467 C 0.40774 0.57687 0.2702 0.0
H468 H 0.83043 0.35537 0.82029 0.0
C469 C 0.81762 0.36021 0.85204 0.0
H470 H 0.78883 0.37202 0.84408 0.0
H471 H 0.82102 0.41866 0.51999 0.0
H472 H 0.83436 0.45877 0.59148 0.0
H473 H 0.83254 0.45722 0.72695 0.0
H474 H 0.81753 0.41554 0.79201 0.0
C475 C 0.80115 0.36605 0.81448 0.0
C476 C 0.8009 0.3665 0.7312 0.0
C477 C 0.80926 0.3909 0.69323 0.0
C478 C 0.80996 0.39173 0.61449 0.0
C479 C 0.8194 0.41667 0.57915 0.0
C480 C 0.8273 0.43992 0.61958 0.0
C481 C 0.82631 0.43905 0.69588 0.0
C482 C 0.81756 0.41495 0.73254 0.0
H483 H 0.77108 0.37621 0.4804 0.0
C484 C 0.78528 0.37294 0.45015 0.0
H485 H 0.81609 0.36404 0.46158 0.0
H486 H 0.78044 0.31567 0.78384 0.0
H487 H 0.76642 0.27545 0.71237 0.0
H488 H 0.76854 0.27701 0.57715 0.0
H489 H 0.78462 0.31891 0.51188 0.0
C490 C 0.80248 0.36868 0.48958 0.0
C491 C 0.80186 0.36805 0.57279 0.0
C492 C 0.79315 0.34358 0.61073 0.0
C493 C 0.79238 0.34274 0.68946 0.0
C494 C 0.78235 0.31771 0.72474 0.0
C495 C 0.774 0.29438 0.6843 0.0
C496 C 0.77516 0.29527 0.60804 0.0
C497 C 0.78451 0.31947 0.57137 0.0
H498 H 0.40036 0.79001 0.1846 0.0
C499 C 0.42132 0.8048 0.19188 0.0
H500 H 0.45721 0.83113 0.13717 0.0
H501 H 0.38718 0.74432 0.87323 0.0
H502 H 0.39307 0.71223 0.94418 0.0
H503 H 0.41395 0.72393 0.0671 0.0
H504 H 0.42899 0.76773 0.1199 0.0
C505 C 0.43655 0.81548 0.13216 0.0
C506 C 0.4247 0.80843 0.05738 0.0
C507 C 0.41619 0.78276 0.02733 0.0
C508 C 0.40447 0.77613 0.95613 0.0
C509 C 0.39622 0.75041 0.92711 0.0
C510 C 0.39951 0.7318 0.96719 0.0
C511 C 0.41123 0.73838 0.03644 0.0
C512 C 0.41962 0.76355 0.0663 0.0
H513 H 0.42892 0.81608 0.79313 0.0
C514 C 0.40821 0.80138 0.7816 0.0
H515 H 0.37116 0.77367 0.82903 0.0
H516 H 0.43851 0.85921 0.09983 0.0
H517 H 0.43199 0.89101 0.0296 0.0
H518 H 0.41094 0.87921 0.90689 0.0
H519 H 0.3964 0.83559 0.85362 0.0
C520 C 0.39168 0.78913 0.8381 0.0
C521 C 0.40175 0.79534 0.91485 0.0
C522 C 0.40976 0.82081 0.94554 0.0
C523 C 0.42152 0.82746 0.01663 0.0
C524 C 0.42948 0.85309 0.04595 0.0
C525 C 0.4258 0.87153 1.00631 0.0
C526 C 0.41399 0.8649 0.9372 0.0
C527 C 0.40592 0.83985 0.90702 0.0
H528 H 0.61544 0.44483 0.16964 0.0
C529 C 0.6124 0.42505 0.15821 0.0
H530 H 0.61011 0.39054 0.20534 0.0
H531 H 0.67694 0.48435 0.45723 0.0
H532 H 0.71268 0.50309 0.36778 0.0
H533 H 0.70574 0.48438 0.24237 0.0
H534 H 0.66308 0.44707 0.20563 0.0
C535 C 0.61345 0.4105 0.21426 0.0
C536 C 0.61831 0.42098 0.29088 0.0
C537 C 0.64341 0.443 0.31127 0.0
C538 C 0.64747 0.45367 0.38368 0.0
C539 C 0.67275 0.47553 0.40285 0.0
C540 C 0.69346 0.48644 0.35211 0.0
C541 C 0.68956 0.47593 0.28152 0.0
C542 C 0.66489 0.45449 0.26107 0.0
H543 H 0.62973 0.42139 0.56283 0.0
C544 C 0.63181 0.44099 0.56994 0.0
H545 H 0.63273 0.47368 0.51528 0.0
H546 H 0.56851 0.37756 0.27102 0.0
H547 H 0.53292 0.35856 0.36079 0.0
H548 H 0.53936 0.37821 0.48481 0.0
H549 H 0.58147 0.41664 0.5202 0.0
C550 C 0.6307 0.4541 0.51038 0.0
C551 C 0.62653 0.44226 0.43556 0.0
C552 C 0.60151 0.42006 0.41544 0.0
C553 C 0.59758 0.40912 0.34337 0.0
C554 C 0.57254 0.38675 0.32491 0.0
C555 C 0.55191 0.37568 0.37583 0.0
C556 C 0.55553 0.38674 0.44565 0.0
C557 C 0.57993 0.40873 0.46542 0.0
H558 H 0.92523 0.4794 0.18236 0.0
C559 C 0.9204 0.45974 0.20209 0.0
H560 H 0.93633 0.43721 0.24814 0.0
H561 H 0.0407 0.5466 0.10965 0.0
H562 H 0.01952 0.53062 0.99086 0.0
H563 H 0.97526 0.49 0.98107 0.0
H564 H 0.95163 0.46568 0.08998 0.0
C565 C 0.94018 0.45656 0.22888 0.0
C566 C 0.96803 0.47943 0.23341 0.0
C567 C 0.9822 0.49243 0.16852 0.0
C568 C 0.00848 0.51471 0.1737 0.0
C569 C 0.02133 0.52865 0.10859 0.0
C570 C 0.0093 0.51983 0.04004 0.0
C571 C 0.98434 0.49706 0.03457 0.0
C572 C 0.97087 0.48341 0.09778 0.0
H573 H 0.06174 0.52059 0.18558 0.0
C574 C 0.06852 0.53921 0.21552 0.0
H575 H 0.05589 0.56175 0.27746 0.0
H576 H 0.94632 0.45961 0.3684 0.0
H577 H 0.96836 0.47455 0.48671 0.0
H578 H 0.01493 0.51141 0.49492 0.0
H579 H 0.03969 0.53375 0.38491 0.0
C580 C 0.05017 0.54338 0.24773 0.0
C581 C 0.02139 0.52264 0.24315 0.0
C582 C 0.00724 0.50973 0.30791 0.0
C583 C 0.9805 0.48819 0.30307 0.0
C584 C 0.96676 0.47585 0.36877 0.0
C585 C 0.97916 0.48425 0.43708 0.0
C586 C 0.00537 0.50502 0.4417 0.0
C587 C 0.01936 0.51767 0.3781 0.0
H588 H 0.50536 0.06787 0.60247 0.0
C589 C 0.52589 0.0768 0.58433 0.0
H590 H 0.55444 0.06854 0.5391 0.0
H591 H 0.47034 0.95204 0.69343 0.0
H592 H 0.48723 0.97502 0.8099 0.0
H593 H 0.51827 0.02373 0.81393 0.0
H594 H 0.53241 0.04981 0.70157 0.0
C595 C 0.53482 0.06051 0.56311 0.0
C596 C 0.51683 0.03098 0.56142 0.0
C597 C 0.50921 0.01599 0.62752 0.0
C598 C 0.4919 0.98777 0.62507 0.0
C599 C 0.48398 0.97339 0.69201 0.0
C600 C 0.49343 0.98635 0.75926 0.0
C601 C 0.51086 0.01379 0.76154 0.0
C602 C 0.51874 0.02854 0.69664 0.0
H603 H 0.49629 0.93811 0.5818 0.0
C604 C 0.47549 0.92894 0.56568 0.0
H605 H 0.44546 0.93691 0.53098 0.0
H606 H 0.52721 0.05386 0.42475 0.0
H607 H 0.51089 0.03081 0.30825 0.0
H608 H 0.48167 0.98181 0.30376 0.0
H609 H 0.46851 0.95557 0.41572 0.0
C610 C 0.46545 0.94497 0.55271 0.0
C611 C 0.48272 0.97458 0.55641 0.0
C612 C 0.49027 0.98961 0.49037 0.0
C613 C 0.50736 0.01783 0.49288 0.0
C614 C 0.51448 0.03235 0.42605 0.0
C615 C 0.50522 0.01938 0.35875 0.0
C616 C 0.48875 0.9918 0.35623 0.0
C617 C 0.48131 0.97698 0.42101 0.0
H618 H 0.47429 0.5548 0.90755 0.0
C619 C 0.45435 0.53896 0.89293 0.0
H620 H 0.43143 0.4985 0.85902 0.0
H621 H 0.52633 0.48698 0.74391 0.0
H622 H 0.50425 0.48619 0.6299 0.0
H623 H 0.46781 0.49619 0.62883 0.0
H624 H 0.45314 0.5069 0.74174 0.0
C625 C 0.45045 0.51443 0.8789 0.0
C626 C 0.47285 0.50906 0.8803 0.0
C627 C 0.48133 0.5031 0.81358 0.0
C628 C 0.50258 0.49772 0.81401 0.0
C629 C 0.51047 0.49152 0.74669 0.0
C630 C 0.49795 0.49095 0.68081 0.0
C631 C 0.47741 0.49655 0.68022 0.0
C632 C 0.46914 0.5026 0.74557 0.0
H633 H 0.51442 0.45462 0.92799 0.0
C634 C 0.53377 0.46913 0.90591 0.0
H635 H 0.55562 0.50664 0.85291 0.0
H636 H 0.45993 0.51738 0.01892 0.0
H637 H 0.4828 0.51929 0.13235 0.0
H638 H 0.52126 0.51237 0.13199 0.0
H639 H 0.53681 0.50311 0.01823 0.0
C640 C 0.53739 0.49255 0.88078 0.0
C641 C 0.51532 0.49837 0.88109 0.0
C642 C 0.507 0.50452 0.94777 0.0
C643 C 0.48544 0.50946 0.94758 0.0
C644 C 0.47677 0.51438 0.01542 0.0
C645 C 0.48962 0.51537 0.08106 0.0
C646 C 0.51122 0.5114 0.08089 0.0
C647 C 0.51989 0.50601 0.01522 0.0
loop_
_geom_bond_atom_site_label_1
_geom_bond_atom_site_label_2
_geom_bond_distance
_geom_bond_site_symmetry_2
_ccdc_geom_bond_type
Co0 N4 2.148 . S
Co0 N10 2.128 . S
Co0 N20 2.194 . S
Co0 O25 2.351 . S
Co0 O26 2.155 . S
Co0 O27 2.096 . S
C1 N4 1.301 . S
C1 N5 1.328 . S
C1 H6 0.930 . S
C2 C3 1.333 . S
C2 N4 1.317 . S
C2 H7 0.930 . S
C3 C2 1.333 . S
C3 N5 1.350 . S
C3 H29 0.931 . S
N4 Co0 2.148 . S
N4 C1 1.301 . S
N4 C2 1.317 . S
N5 C1 1.328 . S
N5 C3 1.350 . S
H6 C1 0.930 . S
H7 C2 0.930 . S
C8 O9 1.224 . S
C8 O27 1.247 . S
O9 C8 1.224 . S
N10 Co0 2.128 . S
N10 C11 1.355 . S
N10 C13 1.311 . S
C11 N10 1.355 . S
C11 C12 1.363 1_554 S
C11 H23 0.929 . S
C12 C11 1.363 1_556 S
C12 N14 1.375 . S
C12 H30 0.931 . S
C13 N10 1.311 . S
C13 N14 1.347 1_554 S
C13 H24 0.930 . S
N14 C12 1.375 . S
N14 C13 1.347 1_556 S
C15 C18 1.365 . S
C15 N20 1.328 . S
C15 H21 0.929 . S
C16 C17 1.362 . S
C16 C19 1.378 . S
C16 H31 0.929 . S
C17 C16 1.362 . S
C17 C18 1.366 . S
C18 C15 1.365 . S
C18 C17 1.366 . S
C18 H32 0.930 . S
C19 C16 1.378 . S
C19 N20 1.315 . S
C19 H22 0.930 . S
N20 Co0 2.194 . S
N20 C15 1.328 . S
N20 C19 1.315 . S
H21 C15 0.929 . S
H22 C19 0.930 . S
H23 C11 0.929 . S
H24 C13 0.930 . S
O25 Co0 2.351 . S
O25 C28 1.244 . S
O26 Co0 2.155 . S
O26 C28 1.240 . S
O27 Co0 2.096 . S
O27 C8 1.247 . S
C28 O25 1.244 . S
C28 O26 1.240 . S
H29 C3 0.931 . S
H30 C12 0.931 . S
H31 C16 0.929 . S
H32 C18 0.930 . S
Co33 N37 2.148 . S
Co33 N43 2.128 . S
Co33 N53 2.194 . S
Co33 O58 2.351 . S
Co33 O59 2.155 . S
Co33 O60 2.096 . S
C34 N37 1.301 . S
C34 N38 1.328 . S
C34 H39 0.930 . S
C35 C36 1.333 . S
C35 N37 1.317 . S
C35 H40 0.930 . S
C36 C35 1.333 . S
C36 N38 1.350 . S
C36 H62 0.931 . S
N37 Co33 2.148 . S
N37 C34 1.301 . S
N37 C35 1.317 . S
N38 C34 1.328 . S
N38 C36 1.350 . S
H39 C34 0.930 . S
H40 C35 0.930 . S
C41 O42 1.224 . S
C41 O60 1.247 . S
O42 C41 1.224 . S
N43 Co33 2.128 . S
N43 C44 1.355 . S
N43 C46 1.311 . S
C44 N43 1.355 . S
C44 C45 1.363 . S
C44 H56 0.929 . S
C45 C44 1.363 . S
C45 N47 1.375 . S
C45 H63 0.931 . S
C46 N43 1.311 . S
C46 N47 1.347 . S
C46 H57 0.929 . S
N47 C45 1.375 . S
N47 C46 1.347 . S
C48 C51 1.365 . S
C48 N53 1.328 . S
C48 H54 0.929 . S
C49 C50 1.362 . S
C49 C52 1.378 . S
C49 H64 0.929 . S
C50 C49 1.362 . S
C50 C51 1.366 . S
C51 C48 1.365 . S
C51 C50 1.366 . S
C51 H65 0.930 . S
C52 C49 1.378 . S
C52 N53 1.315 . S
C52 H55 0.930 . S
N53 Co33 2.194 . S
N53 C48 1.328 . S
N53 C52 1.315 . S
H54 C48 0.929 . S
H55 C52 0.930 . S
H56 C44 0.929 . S
H57 C46 0.929 . S
O58 Co33 2.351 . S
O58 C61 1.244 . S
O59 Co33 2.155 . S
O59 C61 1.240 . S
O60 Co33 2.096 . S
O60 C41 1.247 . S
C61 O58 1.244 . S
C61 O59 1.240 . S
H62 C36 0.931 . S
H63 C45 0.931 . S
H64 C49 0.929 . S
H65 C51 0.930 . S
Co66 N70 2.148 . S
Co66 N76 2.128 . S
Co66 N86 2.194 . S
Co66 O91 2.351 . S
Co66 O92 2.155 . S
Co66 O93 2.096 . S
C67 N70 1.301 1_554 S
C67 N71 1.328 . S
C67 H72 0.930 . S
C68 C69 1.333 1_556 S
C68 N70 1.317 . S
C68 H73 0.930 . S
C69 C68 1.333 1_554 S
C69 N71 1.350 . S
C69 H95 0.931 . S
N70 Co66 2.148 . S
N70 C67 1.301 1_556 S
N70 C68 1.317 . S
N71 C67 1.328 . S
N71 C69 1.350 . S
H72 C67 0.930 . S
H73 C68 0.930 . S
C74 O75 1.224 . S
C74 O93 1.247 . S
O75 C74 1.224 . S
N76 Co66 2.128 . S
N76 C77 1.355 . S
N76 C79 1.311 . S
C77 N76 1.355 . S
C77 C78 1.363 . S
C77 H89 0.929 . S
C78 C77 1.363 . S
C78 N80 1.375 . S
C78 H96 0.931 . S
C79 N76 1.311 . S
C79 N80 1.347 . S
C79 H90 0.929 . S
N80 C78 1.375 . S
N80 C79 1.347 . S
C81 C84 1.365 . S
C81 N86 1.328 . S
C81 H87 0.929 . S
C82 C83 1.362 . S
C82 C85 1.378 . S
C82 H97 0.929 . S
C83 C82 1.362 . S
C83 C84 1.366 . S
C84 C81 1.365 . S
C84 C83 1.366 . S
C84 H98 0.930 . S
C85 C82 1.378 . S
C85 N86 1.315 . S
C85 H88 0.930 . S
N86 Co66 2.194 . S
N86 C81 1.328 . S
N86 C85 1.315 . S
H87 C81 0.929 . S
H88 C85 0.930 . S
H89 C77 0.929 . S
H90 C79 0.929 . S
O91 Co66 2.351 . S
O91 C94 1.244 . S
O92 Co66 2.155 . S
O92 C94 1.240 . S
O93 Co66 2.096 . S
O93 C74 1.247 . S
C94 O91 1.244 . S
C94 O92 1.240 . S
H95 C69 0.931 . S
H96 C78 0.931 . S
H97 C82 0.929 . S
H98 C84 0.930 . S
Co99 N103 2.148 . S
Co99 N109 2.128 . S
Co99 N119 2.194 . S
Co99 O124 2.351 . S
Co99 O125 2.155 . S
Co99 O126 2.096 . S
C100 N103 1.301 . S
C100 N104 1.328 . S
C100 H105 0.930 . S
C101 C102 1.333 . S
C101 N103 1.317 . S
C101 H106 0.930 . S
C102 C101 1.333 . S
C102 N104 1.350 . S
C102 H128 0.931 . S
N103 Co99 2.148 . S
N103 C100 1.301 . S
N103 C101 1.317 . S
N104 C100 1.328 . S
N104 C102 1.350 . S
H105 C100 0.930 . S
H106 C101 0.930 . S
C107 O108 1.224 . S
C107 O126 1.247 . S
O108 C107 1.224 . S
N109 Co99 2.128 . S
N109 C110 1.355 . S
N109 C112 1.311 . S
C110 N109 1.355 . S
C110 C111 1.363 1_554 S
C110 H122 0.929 . S
C111 C110 1.363 1_556 S
C111 N113 1.375 . S
C111 H129 0.931 . S
C112 N109 1.311 . S
C112 N113 1.347 1_554 S
C112 H123 0.930 . S
N113 C111 1.375 . S
N113 C112 1.347 1_556 S
C114 C117 1.365 . S
C114 N119 1.328 . S
C114 H120 0.929 . S
C115 C116 1.362 . S
C115 C118 1.378 . S
C115 H130 0.929 . S
C116 C115 1.362 . S
C116 C117 1.366 . S
C117 C114 1.365 . S
C117 C116 1.366 . S
C117 H131 0.930 . S
C118 C115 1.378 . S
C118 N119 1.315 . S
C118 H121 0.930 . S
N119 Co99 2.194 . S
N119 C114 1.328 . S
N119 C118 1.315 . S
H120 C114 0.929 . S
H121 C118 0.930 . S
H122 C110 0.929 . S
H123 C112 0.930 . S
O124 Co99 2.351 . S
O124 C127 1.244 . S
O125 Co99 2.155 . S
O125 C127 1.240 . S
O126 Co99 2.096 . S
O126 C107 1.247 . S
C127 O124 1.244 . S
C127 O125 1.240 . S
H128 C102 0.931 . S
H129 C111 0.931 . S
H130 C115 0.929 . S
H131 C117 0.930 . S
Co132 N136 2.148 . S
Co132 N142 2.128 . S
Co132 N152 2.194 . S
Co132 O157 2.351 . S
Co132 O158 2.155 . S
Co132 O159 2.096 . S
C133 N136 1.301 . S
C133 N137 1.328 . S
C133 H138 0.930 . S
C134 C135 1.333 . S
C134 N136 1.317 . S
C134 H139 0.930 . S
C135 C134 1.333 . S
C135 N137 1.350 . S
C135 H161 0.931 . S
N136 Co132 2.148 . S
N136 C133 1.301 . S
N136 C134 1.317 . S
N137 C133 1.328 . S
N137 C135 1.350 . S
H138 C133 0.930 . S
H139 C134 0.930 . S
C140 O141 1.224 . S
C140 O159 1.247 . S
O141 C140 1.224 . S
N142 Co132 2.128 . S
N142 C143 1.355 . S
N142 C145 1.311 . S
C143 N142 1.355 . S
C143 C144 1.363 . S
C143 H155 0.929 . S
C144 C143 1.363 . S
C144 N146 1.375 . S
C144 H162 0.931 . S
C145 N142 1.311 . S
C145 N146 1.347 . S
C145 H156 0.929 . S
N146 C144 1.375 . S
N146 C145 1.347 . S
C147 C150 1.365 . S
C147 N152 1.328 . S
C147 H153 0.929 . S
C148 C149 1.362 . S
C148 C151 1.378 . S
C148 H163 0.929 . S
C149 C148 1.362 . S
C149 C150 1.366 . S
C150 C147 1.365 . S
C150 C149 1.366 . S
C150 H164 0.930 . S
C151 C148 1.378 . S
C151 N152 1.315 . S
C151 H154 0.930 . S
N152 Co132 2.194 . S
N152 C147 1.328 . S
N152 C151 1.315 . S
H153 C147 0.929 . S
H154 C151 0.930 . S
H155 C143 0.929 . S
H156 C145 0.929 . S
O157 Co132 2.351 . S
O157 C160 1.244 . S
O158 Co132 2.155 . S
O158 C160 1.240 . S
O159 Co132 2.096 . S
O159 C140 1.247 . S
C160 O157 1.244 . S
C160 O158 1.240 . S
H161 C135 0.931 . S
H162 C144 0.931 . S
H163 C148 0.929 . S
H164 C150 0.930 . S
Co165 N169 2.148 . S
Co165 N175 2.128 . S
Co165 N185 2.194 . S
Co165 O190 2.351 . S
Co165 O191 2.155 . S
Co165 O192 2.096 . S
C166 N169 1.301 1_554 S
C166 N170 1.328 . S
C166 H171 0.930 . S
C167 C168 1.333 1_556 S
C167 N169 1.317 . S
C167 H172 0.930 . S
C168 C167 1.333 1_554 S
C168 N170 1.350 . S
C168 H194 0.931 . S
N169 Co165 2.148 . S
N169 C166 1.301 1_556 S
N169 C167 1.317 . S
N170 C166 1.328 . S
N170 C168 1.350 . S
H171 C166 0.930 . S
H172 C167 0.930 . S
C173 O174 1.224 . S
C173 O192 1.247 . S
O174 C173 1.224 . S
N175 Co165 2.128 . S
N175 C176 1.355 . S
N175 C178 1.311 . S
C176 N175 1.355 . S
C176 C177 1.363 . S
C176 H188 0.929 . S
C177 C176 1.363 . S
C177 N179 1.375 . S
C177 H195 0.931 . S
C178 N175 1.311 . S
C178 N179 1.347 . S
C178 H189 0.929 . S
N179 C177 1.375 . S
N179 C178 1.347 . S
C180 C183 1.365 . S
C180 N185 1.328 . S
C180 H186 0.929 . S
C181 C182 1.362 . S
C181 C184 1.378 . S
C181 H196 0.929 . S
C182 C181 1.362 . S
C182 C183 1.366 . S
C183 C180 1.365 . S
C183 C182 1.366 . S
C183 H197 0.930 . S
C184 C181 1.378 . S
C184 N185 1.315 . S
C184 H187 0.930 . S
N185 Co165 2.194 . S
N185 C180 1.328 . S
N185 C184 1.315 . S
H186 C180 0.929 . S
H187 C184 0.930 . S
H188 C176 0.929 . S
H189 C178 0.929 . S
O190 Co165 2.351 . S
O190 C193 1.244 . S
O191 Co165 2.155 . S
O191 C193 1.240 . S
O192 Co165 2.096 . S
O192 C173 1.247 . S
C193 O190 1.244 . S
C193 O191 1.240 . S
H194 C168 0.931 . S
H195 C177 0.931 . S
H196 C181 0.929 . S
H197 C183 0.930 . S
H198 C199 0.951 . S
C199 H198 0.951 . S
C199 C205 1.265 . S
H200 C205 0.950 . S
H201 C209 0.949 . S
H202 C210 0.950 . S
H203 C211 0.951 . S
H204 C212 0.951 . S
C205 C199 1.265 . S
C205 H200 0.950 . S
C205 C206 1.478 . S
C206 C205 1.478 . S
C206 C207 1.397 . S
C206 C223 1.392 1_554 S
C207 C206 1.397 . S
C207 C208 1.438 1_554 S
C207 C212 1.429 . S
C208 C207 1.438 1_556 S
C208 C209 1.428 . S
C208 C221 1.394 . S
C209 H201 0.949 . S
C209 C208 1.428 . S
C209 C210 1.345 1_556 S
C210 H202 0.950 . S
C210 C209 1.345 1_554 S
C210 C211 1.424 . S
C211 H203 0.951 . S
C211 C210 1.424 . S
C211 C212 1.347 . S
C212 H204 0.951 . S
C212 C207 1.429 . S
C212 C211 1.347 . S
H213 C214 0.951 . S
C214 H213 0.951 . S
C214 C220 1.265 . S
H215 C220 0.950 . S
H216 C224 0.950 . S
H217 C225 0.950 . S
H218 C226 0.951 . S
H219 C227 0.951 . S
C220 C214 1.265 . S
C220 H215 0.950 . S
C220 C221 1.478 . S
C221 C208 1.394 . S
C221 C220 1.478 . S
C221 C222 1.397 . S
C222 C221 1.397 . S
C222 C223 1.440 . S
C222 C227 1.429 . S
C223 C206 1.392 1_556 S
C223 C222 1.440 . S
C223 C224 1.428 1_556 S
C224 H216 0.950 . S
C224 C223 1.428 1_554 S
C224 C225 1.344 1_554 S
C225 H217 0.950 . S
C225 C224 1.344 1_556 S
C225 C226 1.424 . S
C226 H218 0.951 . S
C226 C225 1.424 . S
C226 C227 1.347 . S
C227 H219 0.951 . S
C227 C222 1.429 . S
C227 C226 1.347 . S
H228 C229 0.951 . S
C229 H228 0.951 . S
C229 C235 1.265 . S
H230 C235 0.950 . S
H231 C239 0.949 . S
H232 C240 0.950 . S
H233 C241 0.951 . S
H234 C242 0.951 . S
C235 C229 1.265 . S
C235 H230 0.950 . S
C235 C236 1.478 . S
C236 C235 1.478 . S
C236 C237 1.397 . S
C236 C253 1.394 . S
C237 C236 1.397 . S
C237 C238 1.438 . S
C237 C242 1.429 . S
C238 C237 1.438 . S
C238 C239 1.428 . S
C238 C251 1.394 . S
C239 H231 0.949 . S
C239 C238 1.428 . S
C239 C240 1.345 . S
C240 H232 0.950 . S
C240 C239 1.345 . S
C240 C241 1.424 . S
C241 H233 0.951 . S
C241 C240 1.424 . S
C241 C242 1.347 . S
C242 H234 0.951 . S
C242 C237 1.429 . S
C242 C241 1.347 . S
H243 C244 0.951 . S
C244 H243 0.951 . S
C244 C250 1.265 . S
H245 C250 0.950 . S
H246 C254 0.949 . S
H247 C255 0.950 . S
H248 C256 0.951 . S
H249 C257 0.951 . S
C250 C244 1.265 . S
C250 H245 0.950 . S
C250 C251 1.478 . S
C251 C238 1.394 . S
C251 C250 1.478 . S
C251 C252 1.397 . S
C252 C251 1.397 . S
C252 C253 1.438 . S
C252 C257 1.429 . S
C253 C236 1.394 . S
C253 C252 1.438 . S
C253 C254 1.428 . S
C254 H246 0.949 . S
C254 C253 1.428 . S
C254 C255 1.345 . S
C255 H247 0.950 . S
C255 C254 1.345 . S
C255 C256 1.424 . S
C256 H248 0.951 . S
C256 C255 1.424 . S
C256 C257 1.347 . S
C257 H249 0.951 . S
C257 C252 1.429 . S
C257 C256 1.347 . S
H258 C259 0.951 . S
C259 H258 0.951 . S
C259 C265 1.265 . S
H260 C265 0.950 . S
H261 C269 0.949 . S
H262 C270 0.950 . S
H263 C271 0.951 . S
H264 C272 0.951 . S
C265 C259 1.265 . S
C265 H260 0.950 . S
C265 C266 1.478 . S
C266 C265 1.478 . S
C266 C267 1.397 . S
C266 C283 1.394 . S
C267 C266 1.397 . S
C267 C268 1.438 . S
C267 C272 1.429 . S
C268 C267 1.438 . S
C268 C269 1.428 . S
C268 C281 1.394 . S
C269 H261 0.949 . S
C269 C268 1.428 . S
C269 C270 1.345 . S
C270 H262 0.950 . S
C270 C269 1.345 . S
C270 C271 1.424 . S
C271 H263 0.951 . S
C271 C270 1.424 . S
C271 C272 1.347 . S
C272 H264 0.951 . S
C272 C267 1.429 . S
C272 C271 1.347 . S
H273 C274 0.951 . S
C274 H273 0.951 . S
C274 C280 1.265 . S
H275 C280 0.950 . S
H276 C284 0.949 . S
H277 C285 0.950 . S
H278 C286 0.951 . S
H279 C287 0.951 . S
C280 C274 1.265 . S
C280 H275 0.950 . S
C280 C281 1.478 . S
C281 C268 1.394 . S
C281 C280 1.478 . S
C281 C282 1.397 . S
C282 C281 1.397 . S
C282 C283 1.438 . S
C282 C287 1.429 . S
C283 C266 1.394 . S
C283 C282 1.438 . S
C283 C284 1.428 . S
C284 H276 0.949 . S
C284 C283 1.428 . S
C284 C285 1.345 . S
C285 H277 0.950 . S
C285 C284 1.345 . S
C285 C286 1.424 . S
C286 H278 0.951 . S
C286 C285 1.424 . S
C286 C287 1.347 . S
C287 H279 0.951 . S
C287 C282 1.429 . S
C287 C286 1.347 . S
H288 C289 0.951 . S
C289 H288 0.951 . S
C289 C295 1.265 . S
H290 C295 0.950 . S
H291 C299 0.949 . S
H292 C300 0.950 . S
H293 C301 0.951 . S
H294 C302 0.951 . S
C295 C289 1.265 . S
C295 H290 0.950 . S
C295 C296 1.478 . S
C296 C295 1.478 . S
C296 C297 1.397 . S
C296 C313 1.394 . S
C297 C296 1.397 . S
C297 C298 1.438 1_556 S
C297 C302 1.429 . S
C298 C297 1.438 1_554 S
C298 C299 1.428 . S
C298 C311 1.394 . S
C299 H291 0.949 . S
C299 C298 1.428 . S
C299 C300 1.345 1_554 S
C300 H292 0.950 . S
C300 C299 1.345 1_556 S
C300 C301 1.424 . S
C301 H293 0.951 . S
C301 C300 1.424 . S
C301 C302 1.347 . S
C302 H294 0.951 . S
C302 C297 1.429 . S
C302 C301 1.347 . S
H303 C304 0.951 . S
C304 H303 0.951 . S
C304 C310 1.265 . S
H305 C310 0.950 . S
H306 C314 0.949 . S
H307 C315 0.950 . S
H308 C316 0.951 . S
H309 C317 0.951 . S
C310 C304 1.265 . S
C310 H305 0.950 . S
C310 C311 1.478 . S
C311 C298 1.394 . S
C311 C310 1.478 . S
C311 C312 1.397 . S
C312 C311 1.397 . S
C312 C313 1.438 1_554 S
C312 C317 1.429 . S
C313 C296 1.394 . S
C313 C312 1.438 1_556 S
C313 C314 1.428 . S
C314 H306 0.949 . S
C314 C313 1.428 . S
C314 C315 1.345 1_556 S
C315 H307 0.950 . S
C315 C314 1.345 1_554 S
C315 C316 1.424 . S
C316 H308 0.951 . S
C316 C315 1.424 . S
C316 C317 1.347 . S
C317 H309 0.951 . S
C317 C312 1.429 . S
C317 C316 1.347 . S
H318 C319 0.951 . S
C319 H318 0.951 . S
C319 C325 1.265 . S
H320 C325 0.950 . S
H321 C329 0.949 . S
H322 C330 0.950 . S
H323 C331 0.951 . S
H324 C332 0.951 . S
C325 C319 1.265 . S
C325 H320 0.950 . S
C325 C326 1.478 . S
C326 C325 1.478 . S
C326 C327 1.397 . S
C326 C343 1.394 . S
C327 C326 1.397 . S
C327 C328 1.438 . S
C327 C332 1.429 . S
C328 C327 1.438 . S
C328 C329 1.428 . S
C328 C341 1.394 . S
C329 H321 0.949 . S
C329 C328 1.428 . S
C329 C330 1.345 . S
C330 H322 0.950 . S
C330 C329 1.345 . S
C330 C331 1.424 . S
C331 H323 0.951 . S
C331 C330 1.424 . S
C331 C332 1.347 . S
C332 H324 0.951 . S
C332 C327 1.429 . S
C332 C331 1.347 . S
H333 C334 0.951 . S
C334 H333 0.951 . S
C334 C340 1.265 . S
H335 C340 0.950 . S
H336 C344 0.949 . S
H337 C345 0.950 . S
H338 C346 0.951 . S
H339 C347 0.951 . S
C340 C334 1.265 . S
C340 H335 0.950 . S
C340 C341 1.478 . S
C341 C328 1.394 . S
C341 C340 1.478 . S
C341 C342 1.397 . S
C342 C341 1.397 . S
C342 C343 1.438 . S
C342 C347 1.429 . S
C343 C326 1.394 . S
C343 C342 1.438 . S
C343 C344 1.428 . S
C344 H336 0.949 . S
C344 C343 1.428 . S
C344 C345 1.345 . S
C345 H337 0.950 . S
C345 C344 1.345 . S
C345 C346 1.424 . S
C346 H338 0.951 . S
C346 C345 1.424 . S
C346 C347 1.347 . S
C347 H339 0.951 . S
C347 C342 1.429 . S
C347 C346 1.347 . S
H348 C349 0.951 . S
C349 H348 0.951 . S
C349 C355 1.265 . S
H350 C355 0.950 . S
H351 C359 0.949 . S
H352 C360 0.950 . S
H353 C361 0.951 . S
H354 C362 0.951 . S
C355 C349 1.265 . S
C355 H350 0.950 . S
C355 C356 1.478 . S
C356 C355 1.478 . S
C356 C357 1.397 . S
C356 C373 1.394 . S
C357 C356 1.397 . S
C357 C358 1.438 . S
C357 C362 1.429 . S
C358 C357 1.438 . S
C358 C359 1.428 . S
C358 C371 1.394 . S
C359 H351 0.949 . S
C359 C358 1.428 . S
C359 C360 1.345 . S
C360 H352 0.950 . S
C360 C359 1.345 . S
C360 C361 1.424 . S
C361 H353 0.951 . S
C361 C360 1.424 . S
C361 C362 1.347 . S
C362 H354 0.951 . S
C362 C357 1.429 . S
C362 C361 1.347 . S
H363 C364 0.951 . S
C364 H363 0.951 . S
C364 C370 1.265 . S
H365 C370 0.950 . S
H366 C374 0.949 . S
H367 C375 0.950 . S
H368 C376 0.951 . S
H369 C377 0.951 . S
C370 C364 1.265 . S
C370 H365 0.950 . S
C370 C371 1.478 . S
C371 C358 1.394 . S
C371 C370 1.478 . S
C371 C372 1.397 . S
C372 C371 1.397 . S
C372 C373 1.438 . S
C372 C377 1.429 . S
C373 C356 1.394 . S
C373 C372 1.438 . S
C373 C374 1.428 . S
C374 H366 0.949 . S
C374 C373 1.428 . S
C374 C375 1.345 . S
C375 H367 0.950 . S
C375 C374 1.345 . S
C375 C376 1.424 . S
C376 H368 0.951 . S
C376 C375 1.424 . S
C376 C377 1.347 . S
C377 H369 0.951 . S
C377 C372 1.429 . S
C377 C376 1.347 . S
H378 C379 0.951 . S
C379 H378 0.951 . S
C379 C385 1.265 . S
H380 C385 0.950 . S
H381 C389 0.949 . S
H382 C390 0.950 . S
H383 C391 0.951 . S
H384 C392 0.951 . S
C385 C379 1.265 . S
C385 H380 0.950 . S
C385 C386 1.478 . S
C386 C385 1.478 . S
C386 C387 1.397 . S
C386 C403 1.394 . S
C387 C386 1.397 . S
C387 C388 1.438 . S
C387 C392 1.429 . S
C388 C387 1.438 . S
C388 C389 1.428 . S
C388 C401 1.394 . S
C389 H381 0.949 . S
C389 C388 1.428 . S
C389 C390 1.345 . S
C390 H382 0.950 . S
C390 C389 1.345 . S
C390 C391 1.424 . S
C391 H383 0.951 . S
C391 C390 1.424 . S
C391 C392 1.347 . S
C392 H384 0.951 . S
C392 C387 1.429 . S
C392 C391 1.347 . S
H393 C394 0.951 . S
C394 H393 0.951 . S
C394 C400 1.265 . S
H395 C400 0.950 . S
H396 C404 0.949 . S
H397 C405 0.950 . S
H398 C406 0.951 . S
H399 C407 0.951 . S
C400 C394 1.265 . S
C400 H395 0.950 . S
C400 C401 1.478 . S
C401 C388 1.394 . S
C401 C400 1.478 . S
C401 C402 1.397 . S
C402 C401 1.397 . S
C402 C403 1.438 . S
C402 C407 1.429 . S
C403 C386 1.394 . S
C403 C402 1.438 . S
C403 C404 1.428 . S
C404 H396 0.949 . S
C404 C403 1.428 . S
C404 C405 1.345 . S
C405 H397 0.950 . S
C405 C404 1.345 . S
C405 C406 1.424 . S
C406 H398 0.951 . S
C406 C405 1.424 . S
C406 C407 1.347 . S
C407 H399 0.951 . S
C407 C402 1.429 . S
C407 C406 1.347 . S
H408 C409 0.951 . S
C409 H408 0.951 . S
C409 C415 1.265 . S
H410 C415 0.950 . S
H411 C419 0.949 . S
H412 C420 0.950 . S
H413 C421 0.951 . S
H414 C422 0.951 . S
C415 C409 1.265 . S
C415 H410 0.950 . S
C415 C416 1.478 . S
C416 C415 1.478 . S
C416 C417 1.397 . S
C416 C433 1.394 . S
C417 C416 1.397 . S
C417 C418 1.438 1_556 S
C417 C422 1.429 . S
C418 C417 1.438 1_554 S
C418 C419 1.428 . S
C418 C431 1.394 . S
C419 H411 0.949 . S
C419 C418 1.428 . S
C419 C420 1.345 . S
C420 H412 0.950 . S
C420 C419 1.345 . S
C420 C421 1.424 1_554 S
C421 H413 0.951 . S
C421 C420 1.424 1_556 S
C421 C422 1.347 . S
C422 H414 0.951 . S
C422 C417 1.429 . S
C422 C421 1.347 . S
H423 C424 0.951 . S
C424 H423 0.951 . S
C424 C430 1.265 . S
H425 C430 0.950 . S
H426 C434 0.949 . S
H427 C435 0.950 . S
H428 C436 0.951 . S
H429 C437 0.951 . S
C430 C424 1.265 . S
C430 H425 0.950 . S
C430 C431 1.478 . S
C431 C418 1.394 . S
C431 C430 1.478 . S
C431 C432 1.397 . S
C432 C431 1.397 . S
C432 C433 1.438 1_554 S
C432 C437 1.429 . S
C433 C416 1.394 . S
C433 C432 1.438 1_556 S
C433 C434 1.428 . S
C434 H426 0.949 . S
C434 C433 1.428 . S
C434 C435 1.345 . S
C435 H427 0.950 . S
C435 C434 1.345 . S
C435 C436 1.424 1_556 S
C436 H428 0.951 . S
C436 C435 1.424 1_554 S
C436 C437 1.347 . S
C437 H429 0.951 . S
C437 C432 1.429 . S
C437 C436 1.347 . S
H438 C439 0.951 . S
C439 H438 0.951 . S
C439 C445 1.265 . S
H440 C445 0.950 . S
H441 C449 0.949 . S
H442 C450 0.950 . S
H443 C451 0.951 . S
H444 C452 0.951 . S
C445 C439 1.265 . S
C445 H440 0.950 . S
C445 C446 1.478 . S
C446 C445 1.478 . S
C446 C447 1.397 . S
C446 C463 1.394 . S
C447 C446 1.397 . S
C447 C448 1.438 . S
C447 C452 1.429 . S
C448 C447 1.438 . S
C448 C449 1.428 . S
C448 C461 1.394 . S
C449 H441 0.949 . S
C449 C448 1.428 . S
C449 C450 1.345 . S
C450 H442 0.950 . S
C450 C449 1.345 . S
C450 C451 1.424 . S
C451 H443 0.951 . S
C451 C450 1.424 . S
C451 C452 1.347 . S
C452 H444 0.951 . S
C452 C447 1.429 . S
C452 C451 1.347 . S
H453 C454 0.951 . S
C454 H453 0.951 . S
C454 C460 1.265 . S
H455 C460 0.950 . S
H456 C464 0.949 . S
H457 C465 0.950 . S
H458 C466 0.951 . S
H459 C467 0.951 . S
C460 C454 1.265 . S
C460 H455 0.950 . S
C460 C461 1.478 . S
C461 C448 1.394 . S
C461 C460 1.478 . S
C461 C462 1.397 . S
C462 C461 1.397 . S
C462 C463 1.438 . S
C462 C467 1.429 . S
C463 C446 1.394 . S
C463 C462 1.438 . S
C463 C464 1.428 . S
C464 H456 0.949 . S
C464 C463 1.428 . S
C464 C465 1.345 . S
C465 H457 0.950 . S
C465 C464 1.345 . S
C465 C466 1.424 . S
C466 H458 0.951 . S
C466 C465 1.424 . S
C466 C467 1.347 . S
C467 H459 0.951 . S
C467 C462 1.429 . S
C467 C466 1.347 . S
H468 C469 0.951 . S
C469 H468 0.951 . S
C469 C475 1.265 . S
H470 C475 0.950 . S
H471 C479 0.949 . S
H472 C480 0.950 . S
H473 C481 0.951 . S
H474 C482 0.951 . S
C475 C469 1.265 . S
C475 H470 0.950 . S
C475 C476 1.478 . S
C476 C475 1.478 . S
C476 C477 1.397 . S
C476 C493 1.394 . S
C477 C476 1.397 . S
C477 C478 1.438 . S
C477 C482 1.429 . S
C478 C477 1.438 . S
C478 C479 1.428 . S
C478 C491 1.394 . S
C479 H471 0.949 . S
C479 C478 1.428 . S
C479 C480 1.345 . S
C480 H472 0.950 . S
C480 C479 1.345 . S
C480 C481 1.424 . S
C481 H473 0.951 . S
C481 C480 1.424 . S
C481 C482 1.347 . S
C482 H474 0.951 . S
C482 C477 1.429 . S
C482 C481 1.347 . S
H483 C484 0.951 . S
C484 H483 0.951 . S
C484 C490 1.265 . S
H485 C490 0.950 . S
H486 C494 0.949 . S
H487 C495 0.950 . S
H488 C496 0.951 . S
H489 C497 0.951 . S
C490 C484 1.265 . S
C490 H485 0.950 . S
C490 C491 1.478 . S
C491 C478 1.394 . S
C491 C490 1.478 . S
C491 C492 1.397 . S
C492 C491 1.397 . S
C492 C493 1.438 . S
C492 C497 1.429 . S
C493 C476 1.394 . S
C493 C492 1.438 . S
C493 C494 1.428 . S
C494 H486 0.949 . S
C494 C493 1.428 . S
C494 C495 1.345 . S
C495 H487 0.950 . S
C495 C494 1.345 . S
C495 C496 1.424 . S
C496 H488 0.951 . S
C496 C495 1.424 . S
C496 C497 1.347 . S
C497 H489 0.951 . S
C497 C492 1.429 . S
C497 C496 1.347 . S
H498 C499 0.951 . S
C499 H498 0.951 . S
C499 C505 1.265 . S
H500 C505 0.950 . S
H501 C509 0.949 . S
H502 C510 0.950 . S
H503 C511 0.951 . S
H504 C512 0.951 . S
C505 C499 1.265 . S
C505 H500 0.950 . S
C505 C506 1.478 . S
C506 C505 1.478 . S
C506 C507 1.397 . S
C506 C523 1.394 . S
C507 C506 1.397 . S
C507 C508 1.438 1_554 S
C507 C512 1.429 . S
C508 C507 1.438 1_556 S
C508 C509 1.428 . S
C508 C521 1.394 . S
C509 H501 0.949 . S
C509 C508 1.428 . S
C509 C510 1.345 . S
C510 H502 0.950 . S
C510 C509 1.345 . S
C510 C511 1.424 1_556 S
C511 H503 0.951 . S
C511 C510 1.424 1_554 S
C511 C512 1.347 . S
C512 H504 0.951 . S
C512 C507 1.429 . S
C512 C511 1.347 . S
H513 C514 0.951 . S
C514 H513 0.951 . S
C514 C520 1.265 . S
H515 C520 0.950 . S
H516 C524 0.949 . S
H517 C525 0.950 . S
H518 C526 0.951 1_556 S
H519 C527 0.951 . S
C520 C514 1.265 . S
C520 H515 0.950 . S
C520 C521 1.478 . S
C521 C508 1.394 . S
C521 C520 1.478 . S
C521 C522 1.397 . S
C522 C521 1.397 . S
C522 C523 1.438 1_556 S
C522 C527 1.429 . S
C523 C506 1.394 . S
C523 C522 1.438 1_554 S
C523 C524 1.428 . S
C524 H516 0.949 . S
C524 C523 1.428 . S
C524 C525 1.345 . S
C525 H517 0.950 . S
C525 C524 1.345 . S
C525 C526 1.424 . S
C526 H518 0.951 1_554 S
C526 C525 1.424 . S
C526 C527 1.347 1_554 S
C527 H519 0.951 . S
C527 C522 1.429 . S
C527 C526 1.347 1_556 S
H528 C529 0.951 . S
C529 H528 0.951 . S
C529 C535 1.265 . S
H530 C535 0.950 . S
H531 C539 0.949 . S
H532 C540 0.950 . S
H533 C541 0.951 . S
H534 C542 0.951 . S
C535 C529 1.265 . S
C535 H530 0.950 . S
C535 C536 1.478 . S
C536 C535 1.478 . S
C536 C537 1.397 . S
C536 C553 1.394 . S
C537 C536 1.397 . S
C537 C538 1.438 . S
C537 C542 1.429 . S
C538 C537 1.438 . S
C538 C539 1.428 . S
C538 C551 1.394 . S
C539 H531 0.949 . S
C539 C538 1.428 . S
C539 C540 1.345 . S
C540 H532 0.950 . S
C540 C539 1.345 . S
C540 C541 1.424 . S
C541 H533 0.951 . S
C541 C540 1.424 . S
C541 C542 1.347 . S
C542 H534 0.951 . S
C542 C537 1.429 . S
C542 C541 1.347 . S
H543 C544 0.951 . S
C544 H543 0.951 . S
C544 C550 1.265 . S
H545 C550 0.950 . S
H546 C554 0.949 . S
H547 C555 0.950 . S
H548 C556 0.951 . S
H549 C557 0.951 . S
C550 C544 1.265 . S
C550 H545 0.950 . S
C550 C551 1.478 . S
C551 C538 1.394 . S
C551 C550 1.478 . S
C551 C552 1.397 . S
C552 C551 1.397 . S
C552 C553 1.438 . S
C552 C557 1.429 . S
C553 C536 1.394 . S
C553 C552 1.438 . S
C553 C554 1.428 . S
C554 H546 0.949 . S
C554 C553 1.428 . S
C554 C555 1.345 . S
C555 H547 0.950 . S
C555 C554 1.345 . S
C555 C556 1.424 . S
C556 H548 0.951 . S
C556 C555 1.424 . S
C556 C557 1.347 . S
C557 H549 0.951 . S
C557 C552 1.429 . S
C557 C556 1.347 . S
H558 C559 0.951 . S
C559 H558 0.951 . S
C559 C565 1.265 . S
H560 C565 0.950 . S
H561 C569 0.949 . S
H562 C570 0.950 . S
H563 C571 0.951 . S
H564 C572 0.951 . S
C565 C559 1.265 . S
C565 H560 0.950 . S
C565 C566 1.478 . S
C566 C565 1.478 . S
C566 C567 1.397 . S
C566 C583 1.394 . S
C567 C566 1.397 . S
C567 C568 1.438 1_655 S
C567 C572 1.429 . S
C568 C567 1.438 1_455 S
C568 C569 1.428 . S
C568 C581 1.394 . S
C569 H561 0.949 . S
C569 C568 1.428 . S
C569 C570 1.345 1_554 S
C570 H562 0.950 . S
C570 C569 1.345 1_556 S
C570 C571 1.424 1_455 S
C571 H563 0.951 . S
C571 C570 1.424 1_655 S
C571 C572 1.347 1_556 S
C572 H564 0.951 . S
C572 C567 1.429 . S
C572 C571 1.347 1_554 S
H573 C574 0.951 . S
C574 H573 0.951 . S
C574 C580 1.265 . S
H575 C580 0.950 . S
H576 C584 0.949 . S
H577 C585 0.950 . S
H578 C586 0.951 . S
H579 C587 0.951 . S
C580 C574 1.265 . S
C580 H575 0.950 . S
C580 C581 1.478 . S
C581 C568 1.394 . S
C581 C580 1.478 . S
C581 C582 1.397 . S
C582 C581 1.397 . S
C582 C583 1.438 1_455 S
C582 C587 1.429 . S
C583 C566 1.394 . S
C583 C582 1.438 1_655 S
C583 C584 1.428 . S
C584 H576 0.949 . S
C584 C583 1.428 . S
C584 C585 1.345 . S
C585 H577 0.950 . S
C585 C584 1.345 . S
C585 C586 1.424 1_655 S
C586 H578 0.951 . S
C586 C585 1.424 1_455 S
C586 C587 1.347 . S
C587 H579 0.951 . S
C587 C582 1.429 . S
C587 C586 1.347 . S
H588 C589 0.951 . S
C589 H588 0.951 . S
C589 C595 1.265 . S
H590 C595 0.950 . S
H591 C599 0.949 . S
H592 C600 0.950 . S
H593 C601 0.951 . S
H594 C602 0.951 . S
C595 C589 1.265 . S
C595 H590 0.950 . S
C595 C596 1.478 . S
C596 C595 1.478 . S
C596 C597 1.397 . S
C596 C613 1.394 . S
C597 C596 1.397 . S
C597 C598 1.438 1_545 S
C597 C602 1.429 . S
C598 C597 1.438 1_565 S
C598 C599 1.428 . S
C598 C611 1.394 . S
C599 H591 0.949 . S
C599 C598 1.428 . S
C599 C600 1.345 . S
C600 H592 0.950 . S
C600 C599 1.345 . S
C600 C601 1.424 1_565 S
C601 H593 0.951 . S
C601 C600 1.424 1_545 S
C601 C602 1.347 . S
C602 H594 0.951 . S
C602 C597 1.429 . S
C602 C601 1.347 . S
H603 C604 0.951 . S
C604 H603 0.951 . S
C604 C610 1.265 . S
H605 C610 0.950 . S
H606 C614 0.949 . S
H607 C615 0.950 . S
H608 C616 0.951 . S
H609 C617 0.951 . S
C610 C604 1.265 . S
C610 H605 0.950 . S
C610 C611 1.478 . S
C611 C598 1.394 . S
C611 C610 1.478 . S
C611 C612 1.397 . S
C612 C611 1.397 . S
C612 C613 1.438 1_565 S
C612 C617 1.429 . S
C613 C596 1.394 . S
C613 C612 1.438 1_545 S
C613 C614 1.428 . S
C614 H606 0.949 . S
C614 C613 1.428 . S
C614 C615 1.345 . S
C615 H607 0.950 . S
C615 C614 1.345 . S
C615 C616 1.424 1_545 S
C616 H608 0.951 . S
C616 C615 1.424 1_565 S
C616 C617 1.347 . S
C617 H609 0.951 . S
C617 C612 1.429 . S
C617 C616 1.347 . S
H618 C619 0.951 . S
C619 H618 0.951 . S
C619 C625 1.265 . S
H620 C625 0.950 . S
H621 C629 0.949 . S
H622 C630 0.950 . S
H623 C631 0.951 . S
H624 C632 0.951 . S
C625 C619 1.265 . S
C625 H620 0.950 . S
C625 C626 1.478 . S
C626 C625 1.478 . S
C626 C627 1.397 . S
C626 C643 1.394 . S
C627 C626 1.397 . S
C627 C628 1.438 . S
C627 C632 1.429 . S
C628 C627 1.438 . S
C628 C629 1.428 . S
C628 C641 1.394 . S
C629 H621 0.949 . S
C629 C628 1.428 . S
C629 C630 1.345 . S
C630 H622 0.950 . S
C630 C629 1.345 . S
C630 C631 1.424 . S
C631 H623 0.951 . S
C631 C630 1.424 . S
C631 C632 1.347 . S
C632 H624 0.951 . S
C632 C627 1.429 . S
C632 C631 1.347 . S
H633 C634 0.951 . S
C634 H633 0.951 . S
C634 C640 1.265 . S
H635 C640 0.950 . S
H636 C644 0.949 . S
H637 C645 0.950 . S
H638 C646 0.951 . S
H639 C647 0.951 . S
C640 C634 1.265 . S
C640 H635 0.950 . S
C640 C641 1.478 . S
C641 C628 1.394 . S
C641 C640 1.478 . S
C641 C642 1.397 . S
C642 C641 1.397 . S
C642 C643 1.438 . S
C642 C647 1.429 . S
C643 C626 1.394 . S
C643 C642 1.438 . S
C643 C644 1.428 . S
C644 H636 0.949 . S
C644 C643 1.428 . S
C644 C645 1.345 1_556 S
C645 H637 0.950 . S
C645 C644 1.345 1_554 S
C645 C646 1.424 . S
C646 H638 0.951 . S
C646 C645 1.424 . S
C646 C647 1.347 1_554 S
C647 H639 0.951 . S
C647 C642 1.429 . S
C647 C646 1.347 1_556 S
C199 C8 0.744 . S
C214 C94 0.758 . S
C229 C41 0.715 . S
C244 C127 0.845 . S
C259 C160 0.851 . S
C274 C74 0.702 . S
C289 C193 0.763 . S
C304 C107 0.742 . S
C319 C140 0.819 . S
C334 C28 0.669 . S
C349 C61 0.684 . S
C364 C173 0.801 . S
C379 N14 1.461 . S
C394 N5 1.470 . S
C409 N38 1.481 . S
C424 N47 1.479 . S
C439 N80 1.459 . S
C454 N71 1.467 . S
C469 N113 1.463 . S
C484 N104 1.472 . S
C499 N146 1.475 . S
C514 N137 1.479 . S
C529 N170 1.502 . S
C544 N179 1.501 . S
C559 C116 1.162 . S
C574 C17 1.163 . S
C589 C50 1.181 . S
C604 C149 1.180 . S
C619 C83 1.161 . S
C634 C182 1.163 . S
