# Generated by pormake.
# Topology xbj, (5)-cn, num edge types: 1
# Building blocks:
#     Node 0, Type 0, BuildingBlock: XOMCOT_clean_sbu_1, # of connection points: 5
#     Node 1, Type 0, BuildingBlock: XOMCOT_clean_sbu_1, # of connection points: 5
#     Node 2, Type 0, BuildingBlock: XOMCOT_clean_sbu_1, # of connection points: 5
#     Node 3, Type 0, BuildingBlock: XOMCOT_clean_sbu_1, # of connection points: 5
#     Node 4, Type 0, BuildingBlock: XOMCOT_clean_sbu_1, # of connection points: 5
#     Node 5, Type 0, BuildingBlock: XOMCOT_clean_sbu_1, # of connection points: 5
#     Node 6, Type 0, BuildingBlock: XOMCOT_clean_sbu_1, # of connection points: 5
#     Node 7, Type 0, BuildingBlock: XOMCOT_clean_sbu_1, # of connection points: 5
#     Edge 8, Type (0, 0), BuildingBlock: CIFDUS_clean_linker_0, # of connection points: 2
#     Edge 9, Type (0, 0), BuildingBlock: CIFDUS_clean_linker_0, # of connection points: 2
#     Edge 10, Type (0, 0), BuildingBlock: CIFDUS_clean_linker_0, # of connection points: 2
#     Edge 11, Type (0, 0), BuildingBlock: CIFDUS_clean_linker_0, # of connection points: 2
#     Edge 12, Type (0, 0), BuildingBlock: CIFDUS_clean_linker_0, # of connection points: 2
#     Edge 13, Type (0, 0), BuildingBlock: CIFDUS_clean_linker_0, # of connection points: 2
#     Edge 14, Type (0, 0), BuildingBlock: CIFDUS_clean_linker_0, # of connection points: 2
#     Edge 15, Type (0, 0), BuildingBlock: CIFDUS_clean_linker_0, # of connection points: 2
#     Edge 16, Type (0, 0), BuildingBlock: CIFDUS_clean_linker_0, # of connection points: 2
#     Edge 17, Type (0, 0), BuildingBlock: CIFDUS_clean_linker_0, # of connection points: 2
#     Edge 18, Type (0, 0), BuildingBlock: CIFDUS_clean_linker_0, # of connection points: 2
#     Edge 19, Type (0, 0), BuildingBlock: CIFDUS_clean_linker_0, # of connection points: 2
#     Edge 20, Type (0, 0), BuildingBlock: CIFDUS_clean_linker_0, # of connection points: 2
#     Edge 21, Type (0, 0), BuildingBlock: CIFDUS_clean_linker_0, # of connection points: 2
#     Edge 22, Type (0, 0), BuildingBlock: CIFDUS_clean_linker_0, # of connection points: 2
#     Edge 23, Type (0, 0), BuildingBlock: CIFDUS_clean_linker_0, # of connection points: 2
#     Edge 24, Type (0, 0), BuildingBlock: CIFDUS_clean_linker_0, # of connection points: 2
#     Edge 25, Type (0, 0), BuildingBlock: CIFDUS_clean_linker_0, # of connection points: 2
#     Edge 26, Type (0, 0), BuildingBlock: CIFDUS_clean_linker_0, # of connection points: 2
#     Edge 27, Type (0, 0), BuildingBlock: CIFDUS_clean_linker_0, # of connection points: 2
# Relax obj value: 0.184
# Max RMSD: 0.166
# Mean RMSD: 0.158
data_MOF--net-xbj--node1-XOMCOT_clean_sbu_1--edge1-CIFDUS_clean_linker_0
_symmetry_space_group_name_H-M    P1
_symmetry_Int_Tables_number       1
_symmetry_cell_setting            triclinic
loop_
_symmetry_equiv_pos_as_xyz
'x, y, z'
_cell_length_a     16.160978
_cell_length_b     16.102917
_cell_length_c     95.912467
_cell_angle_alpha  96.126482
_cell_angle_beta   95.877411
_cell_angle_gamma 88.882524
loop_
_atom_site_label
_atom_site_type_symbol
_atom_site_fract_x
_atom_site_fract_y
_atom_site_fract_z
_atom_type_partial_charge
C0 C 0.14906 0.90642 0.06731 0.0
C1 C 0.23476 0.91139 0.06915 0.0
N2 N 0.2676 0.8499 0.06069 0.0
N3 N 0.1253 0.84131 0.05781 0.0
C4 C 0.19962 0.8082 0.05388 0.0
H5 H 0.10652 0.94848 0.07259 0.0
Co6 Co 1.008 0.81431 0.05243 0.0
C7 C 0.02039 0.62945 0.04691 0.0
O8 O 0.95551 0.61428 0.05341 0.0
N9 N 0.88991 0.78824 0.04696 0.0
C10 C 0.77899 0.73526 0.03333 0.0
C11 C 0.86431 0.73985 0.03501 0.0
C12 C 0.81644 0.81317 0.05232 0.0
N13 N 0.74718 0.78184 0.0441 0.0
O14 O 0.99912 0.77755 0.07035 0.0
H15 H 0.90531 0.71028 0.02769 0.0
H16 H 0.81365 0.85553 0.06181 0.0
O17 O 0.04171 0.70394 0.04595 0.0
C18 C 0.9771 0.82355 0.08096 0.0
O19 O 0.96159 0.90324 0.08002 0.0
N20 N 0.01608 0.85047 0.03465 0.0
C21 C 1.01522 0.90563 0.00803 0.0
C22 C 0.06268 0.83581 0.01156 0.0
C23 C 0.06268 0.80951 0.02491 0.0
C24 C 0.97027 0.91922 0.03153 0.0
C25 C 0.96857 0.94776 0.01822 0.0
H26 H 0.10002 0.75557 0.02722 0.0
H27 H 0.93402 0.95134 0.03936 0.0
H28 H 0.20419 0.75376 0.04635 0.0
H29 H 0.27038 0.95791 0.07614 0.0
H30 H 0.74314 0.69978 0.02463 0.0
H31 H 0.09904 0.80094 0.00401 0.0
H32 H 0.93198 1.00272 0.01599 0.0
C33 C 0.48155 0.984 0.2796 0.0
C34 C 0.47902 0.07001 0.28022 0.0
N35 N 0.55765 0.09882 0.28162 0.0
N36 N 0.56129 0.95762 0.28054 0.0
C37 C 0.60623 0.02901 0.28188 0.0
H38 H 0.42849 0.94303 0.27845 0.0
Co39 Co 0.59552 0.84424 0.2798 0.0
C40 C 0.7627 0.87991 0.26726 0.0
O41 O 0.82942 0.92217 0.27255 0.0
N42 N 0.63067 0.72848 0.27969 0.0
C43 C 0.71163 0.61499 0.28148 0.0
C44 C 0.71015 0.70024 0.28108 0.0
C45 C 0.58544 0.65836 0.28012 0.0
N46 N 0.63287 0.58805 0.28082 0.0
O47 O 0.63601 0.86095 0.2992 0.0
H48 H 0.76464 0.73886 0.2819 0.0
H49 H 0.51907 0.65896 0.28067 0.0
O50 O 0.70425 0.87541 0.27516 0.0
C51 C 0.59782 0.8291 0.30826 0.0
O52 O 0.5292 0.7872 0.30408 0.0
N53 N 0.55222 0.8286 0.26068 0.0
C54 C 0.48939 0.79052 0.23268 0.0
C55 C 0.54038 0.86014 0.23657 0.0
C56 C 0.57023 0.87903 0.25079 0.0
C57 C 0.49354 0.7685 0.2572 0.0
C58 C 0.46353 0.74645 0.24324 0.0
H59 H 0.60959 0.93277 0.25377 0.0
H60 H 0.46838 0.73827 0.26525 0.0
H61 H 0.67343 0.02962 0.28279 0.0
H62 H 0.42314 0.10813 0.27983 0.0
H63 H 0.76694 0.57612 0.28216 0.0
H64 H 0.55825 0.89812 0.22872 0.0
H65 H 0.41921 0.69607 0.24072 0.0
C66 C 0.63506 0.49894 0.53837 0.0
C67 C 0.72069 0.50013 0.53904 0.0
N68 N 0.74961 0.42086 0.5377 0.0
N69 N 0.60842 0.41937 0.53673 0.0
C70 C 0.67993 0.37314 0.53642 0.0
H71 H 0.59423 0.55298 0.53847 0.0
Co72 Co 0.49277 0.39221 0.53277 0.0
C73 C 0.50254 0.20597 0.52837 0.0
O74 O 0.44422 0.19345 0.53649 0.0
N75 N 0.37684 0.36707 0.52867 0.0
C76 C 0.25689 0.31652 0.51778 0.0
C77 C 0.34188 0.31802 0.5174 0.0
C78 C 0.31092 0.39548 0.53566 0.0
N79 N 0.23664 0.36529 0.52928 0.0
O80 O 0.48752 0.36044 0.55134 0.0
H81 H 0.37596 0.28624 0.50924 0.0
H82 H 0.31754 0.43774 0.54526 0.0
O83 O 0.52251 0.27981 0.52658 0.0
C84 C 0.51653 0.39444 0.56338 0.0
O85 O 0.56209 0.46183 0.56442 0.0
N86 N 0.4963 0.42316 0.51447 0.0
C87 C 0.49797 0.47239 0.48739 0.0
C88 C 0.54634 0.40451 0.49162 0.0
C89 C 0.54585 0.38199 0.50522 0.0
C90 C 0.44875 0.48942 0.51065 0.0
C91 C 0.44864 0.51519 0.49715 0.0
H92 H 0.58639 0.3317 0.50826 0.0
H93 H 0.41099 0.52261 0.51815 0.0
H94 H 0.68088 0.30579 0.53495 0.0
H95 H 0.75825 0.55557 0.53967 0.0
H96 H 0.21322 0.28383 0.50987 0.0
H97 H 0.58478 0.36865 0.48452 0.0
H98 H 0.41155 0.56908 0.49452 0.0
C99 C 0.94508 0.33834 0.80452 0.0
C100 C 0.94448 0.42433 0.80522 0.0
N101 N 1.01522 0.44937 0.80063 0.0
N102 N 0.01568 0.30797 0.79952 0.0
C103 C 0.05759 0.37722 0.79739 0.0
H104 H 0.89551 0.29996 0.807 0.0
Co105 Co 0.03584 0.19177 0.79521 0.0
C106 C 0.20979 0.23089 0.78789 0.0
O107 O 0.25047 0.23836 0.80053 0.0
N108 N 0.05482 0.07499 0.79099 0.0
C109 C 0.08986 0.95323 0.77971 0.0
C110 C 0.08879 0.03861 0.77956 0.0
C111 C 0.03511 1.00965 0.79788 0.0
N112 N 0.0562 0.93432 0.79127 0.0
O113 O 0.10082 0.1902 0.81282 0.0
H114 H 0.10975 0.07182 0.77137 0.0
H115 H 1.00535 1.01723 0.80752 0.0
O116 O 0.13265 0.21419 0.78629 0.0
C117 C 0.06423 0.17673 0.82346 0.0
O118 O 0.9839 0.16224 0.82179 0.0
N119 N 0.97053 0.19469 0.77786 0.0
C120 C 0.87893 0.19741 0.7515 0.0
C121 C 0.94999 0.24658 0.75528 0.0
C122 C 0.99192 0.24728 0.76861 0.0
C123 C 0.90237 0.14518 0.77451 0.0
C124 C 0.85502 0.14611 0.7614 0.0
H125 H 0.04261 0.29032 0.77133 0.0
H126 H 0.88439 0.10523 0.78205 0.0
H127 H 0.11691 0.37469 0.79312 0.0
H128 H 0.89366 0.46468 0.80826 0.0
H129 H 0.11164 0.90865 0.77161 0.0
H130 H 0.97383 0.28544 0.74811 0.0
H131 H 0.79978 0.10814 0.75922 0.0
C132 C 0.03557 0.31808 0.92045 0.0
C133 C 0.95074 0.32416 0.92097 0.0
N134 N 0.93053 0.28807 0.93221 0.0
N135 N 0.07032 0.2778 0.93123 0.0
C136 C 1.00472 0.26137 0.93835 0.0
H137 H 0.06972 0.34036 0.91249 0.0
Co138 Co 0.18703 0.25197 0.9339 0.0
C139 C 0.11122 0.09047 0.93825 0.0
O140 O 0.05604 0.08957 0.92719 0.0
N141 N 0.30371 0.22621 0.93623 0.0
C142 C 0.42192 0.15233 0.93781 0.0
C143 C 0.33662 0.14892 0.93701 0.0
C144 C 0.3714 0.27557 0.93635 0.0
N145 N 0.44459 0.23196 0.93736 0.0
O146 O 0.17939 0.1964 0.91533 0.0
H147 H 0.30112 0.09238 0.93649 0.0
H148 H 0.36685 0.34196 0.93545 0.0
O149 O 0.16247 0.15015 0.94127 0.0
C150 C 0.20884 0.22902 0.90541 0.0
O151 O 0.25156 0.29836 0.90838 0.0
N152 N 0.19313 0.30758 0.9521 0.0
C153 C 0.15478 0.37839 0.97827 0.0
C154 C 0.19855 0.30262 0.97708 0.0
C155 C 0.21756 0.26806 0.96379 0.0
C156 C 0.1599 0.38609 0.9534 0.0
C157 C 0.13853 0.42214 0.96643 0.0
H158 H 0.24689 0.2071 0.9628 0.0
H159 H 0.14316 0.41773 0.94411 0.0
H160 H 1.01135 0.22952 0.94778 0.0
H161 H 0.90717 0.3506 0.91328 0.0
H162 H 0.46383 0.09912 0.93801 0.0
H163 H 0.21289 0.26803 -0.01388 0.0
H164 H 0.10589 0.48163 0.96712 0.0
C165 C 0.06864 0.4067 0.15637 0.0
C166 C 0.06813 0.32078 0.15569 0.0
N167 N 0.03673 0.29853 0.16723 0.0
N168 N 0.03638 0.4405 0.16816 0.0
C169 C 0.01839 0.3724 0.17459 0.0
H170 H 0.09328 0.44246 0.14883 0.0
Co171 Co 0.0356 0.55911 0.17442 0.0
C172 C 0.20384 0.53075 0.17852 0.0
O173 O 0.18003 0.47478 0.18626 0.0
N174 N 0.03694 0.67543 0.18055 0.0
C175 C 0.02479 0.79676 0.19375 0.0
C176 C 0.0234 0.71097 0.1935 0.0
C177 C 0.04841 0.74128 0.17321 0.0
N178 N 0.04032 0.81624 0.18094 0.0
O179 O 1.00054 0.58532 0.15549 0.0
H180 H 1.01219 0.67673 0.20222 0.0
H181 H 0.06158 0.73433 0.16233 0.0
O182 O 0.14887 0.56742 0.17085 0.0
C183 C 0.95157 0.55334 0.14513 0.0
O184 O 0.90974 0.48551 0.14618 0.0
N185 N 0.92663 0.55509 0.17926 0.0
C186 C 0.79952 0.60213 0.19606 0.0
C187 C 0.86111 0.54539 0.20033 0.0
C188 C 0.92555 0.52521 0.192 0.0
C189 C 0.86269 0.60432 0.17428 0.0
C190 C 0.79841 0.62898 0.18261 0.0
H191 H 0.98076 0.4963 0.19673 0.0
H192 H 0.86632 0.63434 0.16483 0.0
H193 H 0.99602 0.37615 0.18481 0.0
H194 H 0.09046 0.27845 0.14734 0.0
H195 H 0.01577 0.84122 0.20276 0.0
H196 H 0.86637 0.52661 0.21091 0.0
H197 H 0.75332 0.67522 0.17921 0.0
C198 C 0.5468 0.90321 0.40728 0.0
C199 C 0.46184 0.90848 0.40758 0.0
N200 N 0.43899 0.85912 0.41703 0.0
N201 N 0.57927 0.85022 0.41638 0.0
C202 C 0.51217 0.82599 0.42242 0.0
H203 H 0.5825 0.93612 0.40072 0.0
Co204 Co 0.69495 0.82097 0.41896 0.0
C205 C 0.61487 0.65496 0.41881 0.0
O206 O 0.56183 0.66313 0.40771 0.0
N207 N 0.81126 0.79336 0.42165 0.0
C208 C 0.93048 0.73082 0.42871 0.0
C209 C 0.84521 0.72958 0.42842 0.0
C210 C 0.87847 0.83308 0.41807 0.0
N211 N 0.95219 0.79604 0.42221 0.0
O212 O 0.691 0.78049 0.3995 0.0
H213 H 0.81076 0.68491 0.4331 0.0
H214 H 0.87359 0.88928 0.4128 0.0
O215 O 0.66697 0.71222 0.42334 0.0
C216 C 0.71199 0.83013 0.39103 0.0
O217 O 0.74079 0.90404 0.39618 0.0
N218 N 0.69838 0.86359 0.4378 0.0
C219 C 0.689 0.94636 0.46455 0.0
C220 C 0.68729 0.85901 0.46245 0.0
C221 C 0.69279 0.8185 0.44897 0.0
C222 C 0.70294 0.9483 0.43973 0.0
C223 C 0.69849 0.99114 0.45304 0.0
H224 H 0.69103 0.7512 0.44764 0.0
H225 H 0.70754 0.98274 0.43075 0.0
H226 H 0.51714 0.78366 0.43048 0.0
H227 H 0.42062 0.94636 0.40123 0.0
H228 H 0.97297 0.686 0.43327 0.0
H229 H 0.681 0.82242 0.47112 0.0
H230 H 0.69926 0.05878 0.45422 0.0
C231 C 0.33171 0.17968 0.66548 0.0
C232 C 0.32874 0.0947 0.66572 0.0
N233 N 0.40634 0.06602 0.6692 0.0
N234 N 0.41063 0.20549 0.66872 0.0
C235 C 0.455 0.13499 0.6709 0.0
H236 H 0.27947 0.22054 0.66306 0.0
Co237 Co 0.43754 0.31832 0.66953 0.0
C238 C 0.5929 0.34693 0.68753 0.0
O239 O 0.55897 0.41754 0.6924 0.0
N240 N 0.46234 0.43407 0.66939 0.0
C241 C 0.53241 0.5426 0.66409 0.0
C242 C 0.53096 0.45761 0.66389 0.0
C243 C 0.42204 0.5075 0.67261 0.0
N244 N 0.46404 0.57471 0.66962 0.0
O245 O 0.4752 0.29914 0.65126 0.0
H246 H 0.57795 0.41524 0.65997 0.0
H247 H 0.36287 0.51216 0.67691 0.0
O248 O 0.55176 0.29762 0.67803 0.0
C249 C 0.42628 0.29842 0.64 0.0
O250 O 0.34563 0.30261 0.64081 0.0
N251 N 0.39823 0.33414 0.68766 0.0
C252 C 0.3301 0.33573 0.71334 0.0
C253 C 0.40399 0.29271 0.7111 0.0
C254 C 0.43505 0.29013 0.69812 0.0
C255 C 0.32434 0.37436 0.68946 0.0
C256 C 0.28921 0.37643 0.7023 0.0
H257 H 0.48637 0.24809 0.69638 0.0
H258 H 0.29007 0.40087 0.6807 0.0
H259 H 0.52138 0.13471 0.67383 0.0
H260 H 0.27334 0.05723 0.66327 0.0
H261 H 0.57945 0.57755 0.66003 0.0
H262 H 0.43464 0.25607 0.719 0.0
H263 H 0.22967 0.40708 0.70345 0.0
H264 H 0.94799 0.66161 0.08391 0.0
H265 H 0.98605 0.90339 0.1076 0.0
H266 H 0.97809 0.84114 0.1296 0.0
H267 H 0.96489 0.71726 0.14205 0.0
H268 H 0.92262 0.47619 0.11841 0.0
H269 H 0.92582 0.53915 0.09632 0.0
C270 C 0.9545 0.70062 0.0939 0.0
C271 C 0.96857 0.78675 0.09418 0.0
C272 C 0.94863 0.66463 0.10645 0.0
C273 C 0.97536 0.83691 0.10714 0.0
C274 C 0.97091 0.80136 0.11971 0.0
C275 C 0.95668 0.67856 0.13206 0.0
C276 C 0.94494 0.59213 0.13182 0.0
C277 C 0.95837 0.71521 0.11948 0.0
C278 C 0.93178 0.54291 0.11882 0.0
C279 C 0.93411 0.57878 0.10622 0.0
H280 H 0.76244 0.9146 0.37048 0.0
H281 H 0.6144 0.70463 0.37706 0.0
H282 H 0.56679 0.68527 0.35193 0.0
H283 H 0.56111 0.73304 0.32834 0.0
H284 H 0.71109 0.94146 0.32173 0.0
H285 H 0.76384 0.95658 0.34667 0.0
C286 C 0.72032 0.86412 0.36641 0.0
C287 C 0.69159 0.81151 0.37565 0.0
C288 C 0.6929 0.85363 0.35197 0.0
C289 C 0.63761 0.74594 0.37018 0.0
C290 C 0.60993 0.73514 0.35582 0.0
C291 C 0.60531 0.78181 0.33236 0.0
C292 C 0.63143 0.8367 0.32325 0.0
C293 C 0.63603 0.78955 0.34667 0.0
C294 C 0.6898 0.89864 0.32855 0.0
C295 C 0.71997 0.90732 0.3428 0.0
H296 H 0.60461 0.40129 0.58911 0.0
H297 H 0.37301 0.31559 0.56624 0.0
H298 H 0.32579 0.27363 0.58784 0.0
H299 H 0.34674 0.27025 0.61356 0.0
H300 H 0.58221 0.34749 0.63609 0.0
H301 H 0.63175 0.38277 0.61432 0.0
C302 C 0.54408 0.37291 0.58888 0.0
C303 C 0.49195 0.36245 0.57619 0.0
C304 C 0.51794 0.34752 0.60128 0.0
C305 C 0.41421 0.32434 0.57592 0.0
C306 C 0.38705 0.30058 0.58827 0.0
C307 C 0.40921 0.29393 0.61367 0.0
C308 C 0.46006 0.30751 0.62648 0.0
C309 C 0.43787 0.31311 0.60105 0.0
C310 C 0.54137 0.33701 0.62642 0.0
C311 C 0.56979 0.35752 0.61396 0.0
H312 H 0.27221 0.27092 0.88195 0.0
H313 H 0.08476 0.11913 0.89559 0.0
H314 H 0.0265 0.08539 0.87121 0.0
H315 H 0.02083 0.10941 0.8463 0.0
H316 H 0.20923 0.25881 0.83247 0.0
H317 H 0.2754 0.28267 0.85664 0.0
C318 C 0.21928 0.22959 0.87957 0.0
C319 C 0.18236 0.1984 0.89058 0.0
C320 C 0.18581 0.2106 0.86551 0.0
C321 C 0.11437 0.14414 0.88732 0.0
C322 C 0.08065 0.12514 0.87338 0.0
C323 C 0.07677 0.14663 0.84857 0.0
C324 C 0.1095 0.18325 0.83769 0.0
C325 C 0.11456 0.15974 0.86244 0.0
C326 C 0.18276 0.23015 0.8407 0.0
C327 C 0.22043 0.24405 0.85452 0.0
H328 H 0.94096 0.52568 0.02628 0.0
H329 H 0.1841 0.59378 0.04642 0.0
H330 H 0.24934 0.51289 0.02732 0.0
H331 H 0.23598 0.43841 0.00335 0.0
H332 H 0.99204 0.38397 -0.01781 0.0
H333 H 0.92782 0.44315 0.00312 0.0
C334 C 1.00817 0.52 0.02667 0.0
C335 C 0.05803 0.56387 0.03774 0.0
C336 C 0.04481 0.47733 0.0153 0.0
C337 C 0.14498 0.55908 0.03802 0.0
C338 C 0.18212 0.51367 0.02705 0.0
C339 C 0.16894 0.43876 0.00349 0.0
C340 C 0.11837 0.40789 -0.00863 0.0
C341 C 0.13259 0.47507 0.01539 0.0
C342 C 0.0316 0.40844 -0.00853 0.0
C343 C 0.99505 0.44198 0.0034 0.0
H344 H 0.6933 0.73124 0.25492 0.0
H345 H 0.82107 0.94865 0.24584 0.0
H346 H 0.82706 0.88784 0.22156 0.0
H347 H 0.8132 0.76582 0.20405 0.0
H348 H 0.69603 0.54363 0.21363 0.0
H349 H 0.6655 0.61443 0.2365 0.0
C350 C 0.72202 0.76558 0.2477 0.0
C351 C 0.75761 0.84401 0.25231 0.0
C352 C 0.72605 0.72969 0.23377 0.0
C353 C 0.79387 0.88779 0.24261 0.0
C354 C 0.7969 0.85332 0.2287 0.0
C355 C 0.77798 0.7341 0.21092 0.0
C356 C 0.75613 0.6501 0.20718 0.0
C357 C 0.76519 0.77344 0.22428 0.0
C358 C 0.71258 0.60867 0.21629 0.0
C359 C 0.69635 0.64872 0.22942 0.0
H360 H 0.46899 0.62501 0.42883 0.0
H361 H 0.72902 0.55746 0.4319 0.0
H362 H 0.71464 0.49155 0.4533 0.0
H363 H 0.6332 0.47008 0.47255 0.0
H364 H 0.3725 0.5375 0.46997 0.0
H365 H 0.38273 0.58925 0.44717 0.0
C366 C 0.52157 0.59313 0.43394 0.0
C367 C 0.59985 0.59518 0.4288 0.0
C368 C 0.51339 0.55806 0.44655 0.0
C369 C 0.66821 0.55591 0.43567 0.0
C370 C 0.66013 0.51907 0.44796 0.0
C371 C 0.57775 0.49389 0.46691 0.0
C372 C 0.5022 0.49988 0.4731 0.0
C373 C 0.58375 0.52238 0.45374 0.0
C374 C 0.43194 0.53338 0.46565 0.0
C375 C 0.43748 0.56224 0.45252 0.0
H376 H 0.86316 0.33352 0.73678 0.0
H377 H 0.77893 0.07897 0.73495 0.0
H378 H 0.69063 0.09774 0.71321 0.0
H379 H 0.62883 0.19209 0.69594 0.0
H380 H 0.72297 0.44246 0.69798 0.0
H381 H 0.82258 0.41632 0.71785 0.0
C382 C 0.82888 0.28013 0.73149 0.0
C383 C 0.8287 0.20469 0.73769 0.0
C384 C 0.78115 0.29008 0.71881 0.0
C385 C 0.77954 0.13855 0.7307 0.0
C386 C 0.7297 0.14881 0.71814 0.0
C387 C 0.67323 0.23965 0.70045 0.0
C388 C 0.66837 0.31942 0.69567 0.0
C389 C 0.72894 0.22498 0.71222 0.0
C390 C 0.72572 0.38079 0.70158 0.0
C391 C 0.78187 0.36624 0.71303 0.0
H392 H 0.14486 0.20696 0.76067 0.0
H393 H 0.36185 0.30387 0.78683 0.0
H394 H 0.4165 0.35063 0.76605 0.0
H395 H 0.4008 0.36406 0.74037 0.0
H396 H 0.17521 0.27972 0.71532 0.0
H397 H 0.12193 0.23369 0.73614 0.0
C398 C 0.20283 0.24065 0.76203 0.0
C399 C 0.24806 0.25354 0.77541 0.0
C400 C 0.23111 0.27136 0.7503 0.0
C401 C 0.32557 0.29314 0.77668 0.0
C402 C 0.35636 0.32064 0.76483 0.0
C403 C 0.33927 0.33714 0.73959 0.0
C404 C 0.29162 0.32555 0.72638 0.0
C405 C 0.30919 0.31067 0.75161 0.0
C406 C 0.21224 0.29043 0.72541 0.0
C407 C 0.18242 0.263 0.73725 0.0
H408 H 0.23934 0.69568 0.18079 0.0
H409 H 0.34866 0.45388 0.18669 0.0
H410 H 0.46418 0.5197 0.20206 0.0
H411 H 0.51149 0.64089 0.21831 0.0
H412 H 0.39381 0.88069 0.21449 0.0
H413 H 0.30489 0.82175 0.19368 0.0
C414 C 0.29037 0.65773 0.18495 0.0
C415 C 0.28531 0.57005 0.1828 0.0
C416 C 0.3539 0.69582 0.19444 0.0
C417 C 0.35129 0.52145 0.18831 0.0
C418 C 0.41682 0.55904 0.1972 0.0
C419 C 0.46845 0.68065 0.21256 0.0
C420 C 0.4579 0.76432 0.21792 0.0
C421 C 0.41553 0.64547 0.20106 0.0
C422 C 0.40255 0.81597 0.21048 0.0
C423 C 0.35127 0.78202 0.19869 0.0
H424 H 0.57058 0.91736 0.48157 0.0
H425 H 0.77791 0.07696 0.47845 0.0
H426 H 0.74429 0.16501 0.49948 0.0
H427 H 0.64725 0.2051 0.51673 0.0
H428 H 0.43532 0.0515 0.51959 0.0
H429 H 0.48098 0.95043 0.50087 0.0
C430 C 0.6094 0.97034 0.48571 0.0
C431 C 0.67604 0.99143 0.47842 0.0
C432 C 0.58873 0.02155 0.49766 0.0
C433 C 0.72559 0.06047 0.48378 0.0
C434 C 0.70651 0.1106 0.4958 0.0
C435 C 0.61146 0.1491 0.51344 0.0
C436 C 0.53731 0.13653 0.51938 0.0
C437 C 0.63675 0.09315 0.50251 0.0
C438 C 0.49257 0.06269 0.51515 0.0
C439 C 0.51831 1.00534 0.50438 0.0
H440 H 0.14951 0.91675 -0.00636 0.0
H441 H 0.88441 0.96065 -0.00928 0.0
H442 H 0.8888 1.01086 0.96758 0.0
H443 H 0.97016 0.04974 0.94882 0.0
H444 H 0.23601 1.01319 0.95289 0.0
H445 H 0.22885 0.94865 0.97462 0.0
C446 C 0.09237 0.93594 -0.01214 0.0
C447 C 0.01678 0.93493 -0.0061 0.0
C448 C 0.09546 0.96479 0.97466 0.0
C449 C 0.94361 0.96178 -0.01363 0.0
C450 C 0.94597 0.98979 0.9731 0.0
C451 C 0.02595 0.02563 0.95432 0.0
C452 C 0.10336 0.03516 0.94926 0.0
C453 C 0.02174 0.9923 0.9672 0.0
C454 C 0.17575 1.00555 0.95657 0.0
C455 C 0.17174 0.96948 0.96905 0.0
H456 H 0.66456 0.82104 0.06797 0.0
H457 H 0.62276 0.77512 0.02267 0.0
H458 H 0.47359 0.78477 0.02372 0.0
H459 H 0.35022 0.80713 0.03727 0.0
H460 H 0.38965 0.86096 0.08236 0.0
H461 H 0.54025 0.84749 0.08156 0.0
C462 C 0.6231 0.81372 0.05831 0.0
C463 C 0.65742 0.79562 0.04526 0.0
C464 C 0.5348 0.82036 0.05891 0.0
C465 C 0.6005 0.78674 0.03296 0.0
C466 C 0.51394 0.79274 0.0335 0.0
C467 C 0.39161 0.81491 0.04693 0.0
C468 C 0.35709 0.8345 0.05989 0.0
C469 C 0.47971 0.80886 0.04639 0.0
C470 C 0.41325 0.84589 0.07222 0.0
C471 C 0.50009 0.8383 0.07177 0.0
H472 H 0.72289 0.45568 0.28995 0.0
H473 H 0.48085 0.52407 0.27096 0.0
H474 H 0.43605 0.37942 0.26968 0.0
H475 H 0.46621 0.23223 0.27327 0.0
H476 H 0.70845 0.16381 0.29221 0.0
H477 H 0.75256 0.30871 0.29377 0.0
C478 C 0.66042 0.43936 0.28544 0.0
C479 C 0.60561 0.50209 0.28058 0.0
C480 C 0.63502 0.35526 0.28459 0.0
C481 C 0.52445 0.47845 0.27499 0.0
C482 C 0.49882 0.39515 0.27414 0.0
C483 C 0.52847 0.2486 0.27788 0.0
C484 C 0.58361 0.18565 0.28258 0.0
C485 C 0.5536 0.33284 0.27886 0.0
C486 C 0.66451 0.20948 0.2883 0.0
C487 C 0.68982 0.29295 0.2893 0.0
H488 H 0.09732 0.27086 0.52203 0.0
H489 H 0.18377 0.50225 0.54533 0.0
H490 H 0.04164 0.53792 0.55054 0.0
H491 H 0.89106 0.50671 0.54769 0.0
H492 H 0.80465 0.27626 0.52405 0.0
H493 H 0.9476 0.2374 0.51988 0.0
C494 C 0.08549 0.32938 0.52821 0.0
C495 C 0.15254 0.38394 0.53315 0.0
C496 C 1.00287 0.3499 0.53113 0.0
C497 C 0.13471 0.45851 0.54141 0.0
C498 C 0.05286 0.47927 0.54434 0.0
C499 C 0.90311 0.44794 0.5416 0.0
C500 C 0.83569 0.39492 0.53617 0.0
C501 C 0.98617 0.42597 0.53913 0.0
C502 C 0.8541 0.31835 0.52852 0.0
C503 C 0.93632 0.29623 0.52603 0.0
H504 H 0.13334 0.78938 0.78225 0.0
H505 H 0.94895 0.88831 0.80925 0.0
H506 H 0.92299 0.74782 0.81504 0.0
H507 H 0.94907 0.59579 0.81191 0.0
H508 H 0.12903 0.4973 0.78396 0.0
H509 H 0.15975 0.63818 0.7792 0.0
C510 C 0.08685 0.78081 0.78931 0.0
C511 C 0.04293 0.85082 0.79517 0.0
C512 C 0.07124 0.6992 0.79249 0.0
C513 C 0.98444 0.83692 0.80459 0.0
C514 C 0.9691 0.75601 0.80786 0.0
C515 C 0.99473 0.60451 0.8047 0.0
C516 C 0.03618 0.53426 0.79832 0.0
C517 C 1.01157 0.68647 0.80178 0.0
C518 C 0.09629 0.54873 0.78922 0.0
C519 C 0.1137 0.62987 0.78638 0.0
H520 H 0.78784 0.37278 0.92443 0.0
H521 H 0.88101 0.17211 0.94829 0.0
H522 H 0.73961 0.14041 0.95263 0.0
H523 H 0.58805 0.164 0.94862 0.0
H524 H 0.49387 0.36308 0.92455 0.0
H525 H 0.63639 0.40102 0.92145 0.0
C526 C 0.77772 0.32183 0.93055 0.0
C527 C 0.84654 0.27426 0.93582 0.0
C528 C 0.69533 0.30346 0.93298 0.0
C529 C 0.83068 0.21002 0.94404 0.0
C530 C 0.7492 0.1915 0.94649 0.0
C531 C 0.59839 0.21574 0.94267 0.0
C532 C 0.52925 0.25999 0.93672 0.0
C533 C 0.68087 0.23688 0.94084 0.0
C534 C 0.54499 0.32803 0.92933 0.0
C535 C 0.62683 0.3494 0.92747 0.0
H536 H 0.96878 0.95966 0.19186 0.0
H537 H 0.12477 0.86243 0.1599 0.0
H538 H 0.13681 1.00247 0.15274 0.0
H539 H 0.1063 0.15341 0.1559 0.0
H540 H 0.94704 0.24964 0.18754 0.0
H541 H 0.93514 0.11008 0.19458 0.0
C542 C 1.00605 0.96886 0.1834 0.0
C543 C 0.04619 0.89958 0.17653 0.0
C544 C 1.01281 0.05006 0.1793 0.0
C545 C 0.09262 0.91359 0.16537 0.0
C546 C 0.09992 0.99413 0.1613 0.0
C547 C 0.06828 0.14458 0.16426 0.0
C548 C 0.02834 0.21411 0.17118 0.0
C549 C 0.06054 0.06305 0.16821 0.0
C550 C 0.98004 0.1992 0.18208 0.0
C551 C 0.97263 0.11864 0.18611 0.0
H552 H 0.09771 0.75455 0.43704 0.0
H553 H 0.99951 0.8886 0.40225 0.0
H554 H 0.14082 0.92104 0.39778 0.0
H555 H 0.29202 0.90771 0.40314 0.0
H556 H 0.39052 0.77298 0.43793 0.0
H557 H 0.24964 0.74325 0.44266 0.0
C558 C 0.10665 0.79043 0.42839 0.0
C559 C 0.03656 0.81857 0.41997 0.0
C560 C 0.18872 0.80843 0.42578 0.0
C561 C 0.05104 0.86649 0.40903 0.0
C562 C 0.13233 0.88468 0.4064 0.0
C563 C 0.28381 0.87245 0.41187 0.0
C564 C 0.35419 0.84305 0.42011 0.0
C565 C 0.20176 0.85561 0.41465 0.0
C566 C 0.33942 0.79655 0.43125 0.0
C567 C 0.25812 0.77953 0.43403 0.0
H568 H 0.30616 0.93527 0.67165 0.0
H569 H 0.56291 0.99941 0.66971 0.0
H570 H 0.60342 0.85376 0.67078 0.0
H571 H 0.56609 0.70761 0.67122 0.0
H572 H 0.30867 0.64141 0.67145 0.0
H573 H 0.26883 0.78878 0.6722 0.0
C574 C 0.371 0.91802 0.67132 0.0
C575 C 0.43097 0.97964 0.67044 0.0
C576 C 0.39398 0.83337 0.67165 0.0
C577 C 0.51494 0.95468 0.67043 0.0
C578 C 0.53831 0.87085 0.67097 0.0
C579 C 0.50103 0.72479 0.67129 0.0
C580 C 0.44053 0.66238 0.67109 0.0
C581 C 0.47827 0.80958 0.67139 0.0
C582 C 0.35691 0.68728 0.67166 0.0
C583 C 0.33394 0.7718 0.67199 0.0
loop_
_geom_bond_atom_site_label_1
_geom_bond_atom_site_label_2
_geom_bond_distance
_geom_bond_site_symmetry_2
_ccdc_geom_bond_type
C0 C1 1.351 . S
C0 N3 1.368 . S
C0 H5 0.931 . S
C1 C0 1.351 . S
C1 N2 1.373 . S
C1 H29 0.930 . S
N2 C1 1.373 . S
N2 C4 1.340 . S
N3 C0 1.368 . S
N3 C4 1.321 . S
N3 Co6 2.135 . S
C4 N2 1.340 . S
C4 N3 1.321 . S
C4 H28 0.930 . S
H5 C0 0.931 . S
Co6 N3 2.135 . S
Co6 N9 2.121 1_455 S
Co6 O14 2.055 . S
Co6 O17 2.039 . S
Co6 N20 2.140 . S
C7 O8 1.227 . S
C7 O17 1.265 . S
O8 C7 1.227 . S
N9 Co6 2.121 1_655 S
N9 C11 1.375 . S
N9 C12 1.313 . S
C10 C11 1.338 . S
C10 N13 1.377 . S
C10 H30 0.930 . S
C11 N9 1.375 . S
C11 C10 1.338 . S
C11 H15 0.931 . S
C12 N9 1.313 . S
C12 N13 1.344 . S
C12 H16 0.930 . S
N13 C10 1.377 . S
N13 C12 1.344 . S
O14 Co6 2.055 . S
O14 C18 1.253 . S
H15 C11 0.931 . S
H16 C12 0.930 . S
O17 Co6 2.039 . S
O17 C7 1.265 . S
C18 O14 1.253 . S
C18 O19 1.227 . S
O19 C18 1.227 . S
N20 Co6 2.140 . S
N20 C23 1.346 . S
N20 C24 1.345 1_455 S
C21 C22 1.387 . S
C21 C25 1.391 1_455 S
C22 C21 1.387 . S
C22 C23 1.369 . S
C22 H31 0.929 . S
C23 N20 1.346 . S
C23 C22 1.369 . S
C23 H26 0.928 . S
C24 N20 1.345 1_655 S
C24 C25 1.371 . S
C24 H27 0.931 . S
C25 C21 1.391 1_655 S
C25 C24 1.371 . S
C25 H32 0.930 1_565 S
H26 C23 0.928 . S
H27 C24 0.931 . S
H28 C4 0.930 . S
H29 C1 0.930 . S
H30 C10 0.930 . S
H31 C22 0.929 . S
H32 C25 0.930 1_545 S
C33 C34 1.351 . S
C33 N36 1.368 . S
C33 H38 0.931 . S
C34 C33 1.351 . S
C34 N35 1.373 . S
C34 H62 0.930 1_565 S
N35 C34 1.373 . S
N35 C37 1.340 . S
N36 C33 1.368 . S
N36 C37 1.321 . S
N36 Co39 2.135 . S
C37 N35 1.340 . S
C37 N36 1.321 . S
C37 H61 0.930 . S
H38 C33 0.931 . S
Co39 N36 2.135 . S
Co39 N42 2.121 . S
Co39 O47 2.055 . S
Co39 O50 2.039 . S
Co39 N53 2.140 . S
C40 O41 1.227 . S
C40 O50 1.265 . S
O41 C40 1.227 . S
N42 Co39 2.121 . S
N42 C44 1.375 . S
N42 C45 1.313 . S
C43 C44 1.338 . S
C43 N46 1.377 . S
C43 H63 0.930 . S
C44 N42 1.375 . S
C44 C43 1.338 . S
C44 H48 0.931 . S
C45 N42 1.313 . S
C45 N46 1.344 . S
C45 H49 0.930 . S
N46 C43 1.377 . S
N46 C45 1.344 . S
O47 Co39 2.055 . S
O47 C51 1.253 . S
H48 C44 0.931 . S
H49 C45 0.930 . S
O50 Co39 2.039 . S
O50 C40 1.265 . S
C51 O47 1.253 . S
C51 O52 1.227 . S
O52 C51 1.227 . S
N53 Co39 2.140 . S
N53 C56 1.346 . S
N53 C57 1.345 . S
C54 C55 1.387 . S
C54 C58 1.391 . S
C55 C54 1.387 . S
C55 C56 1.369 . S
C55 H64 0.929 . S
C56 N53 1.346 . S
C56 C55 1.369 . S
C56 H59 0.928 . S
C57 N53 1.345 . S
C57 C58 1.371 . S
C57 H60 0.931 . S
C58 C54 1.391 . S
C58 C57 1.371 . S
C58 H65 0.930 . S
H59 C56 0.928 . S
H60 C57 0.931 . S
H61 C37 0.930 . S
H62 C34 0.930 1_545 S
H63 C43 0.930 . S
H64 C55 0.929 . S
H65 C58 0.930 . S
C66 C67 1.351 . S
C66 N69 1.368 . S
C66 H71 0.931 . S
C67 C66 1.351 . S
C67 N68 1.373 . S
C67 H95 0.930 . S
N68 C67 1.373 . S
N68 C70 1.340 . S
N69 C66 1.368 . S
N69 C70 1.321 . S
N69 Co72 2.135 . S
C70 N68 1.340 . S
C70 N69 1.321 . S
C70 H94 0.930 . S
H71 C66 0.931 . S
Co72 N69 2.135 . S
Co72 N75 2.121 . S
Co72 O80 2.055 . S
Co72 O83 2.039 . S
Co72 N86 2.140 . S
C73 O74 1.227 . S
C73 O83 1.265 . S
O74 C73 1.227 . S
N75 Co72 2.121 . S
N75 C77 1.375 . S
N75 C78 1.313 . S
C76 C77 1.338 . S
C76 N79 1.377 . S
C76 H96 0.930 . S
C77 N75 1.375 . S
C77 C76 1.338 . S
C77 H81 0.931 . S
C78 N75 1.313 . S
C78 N79 1.344 . S
C78 H82 0.930 . S
N79 C76 1.377 . S
N79 C78 1.344 . S
O80 Co72 2.055 . S
O80 C84 1.253 . S
H81 C77 0.931 . S
H82 C78 0.930 . S
O83 Co72 2.039 . S
O83 C73 1.265 . S
C84 O80 1.253 . S
C84 O85 1.227 . S
O85 C84 1.227 . S
N86 Co72 2.140 . S
N86 C89 1.346 . S
N86 C90 1.345 . S
C87 C88 1.387 . S
C87 C91 1.391 . S
C88 C87 1.387 . S
C88 C89 1.369 . S
C88 H97 0.929 . S
C89 N86 1.346 . S
C89 C88 1.369 . S
C89 H92 0.928 . S
C90 N86 1.345 . S
C90 C91 1.371 . S
C90 H93 0.931 . S
C91 C87 1.391 . S
C91 C90 1.371 . S
C91 H98 0.930 . S
H92 C89 0.928 . S
H93 C90 0.931 . S
H94 C70 0.930 . S
H95 C67 0.930 . S
H96 C76 0.930 . S
H97 C88 0.929 . S
H98 C91 0.930 . S
C99 C100 1.351 . S
C99 N102 1.368 . S
C99 H104 0.931 . S
C100 C99 1.351 . S
C100 N101 1.373 . S
C100 H128 0.930 . S
N101 C100 1.373 . S
N101 C103 1.340 . S
N102 C99 1.368 . S
N102 C103 1.321 . S
N102 Co105 2.135 . S
C103 N101 1.340 . S
C103 N102 1.321 . S
C103 H127 0.930 . S
H104 C99 0.931 . S
Co105 N102 2.135 . S
Co105 N108 2.121 . S
Co105 O113 2.055 . S
Co105 O116 2.039 . S
Co105 N119 2.140 . S
C106 O107 1.227 . S
C106 O116 1.265 . S
O107 C106 1.227 . S
N108 Co105 2.121 . S
N108 C110 1.375 . S
N108 C111 1.313 . S
C109 C110 1.338 . S
C109 N112 1.377 1_545 S
C109 H129 0.930 1_545 S
C110 N108 1.375 . S
C110 C109 1.338 . S
C110 H114 0.931 . S
C111 N108 1.313 . S
C111 N112 1.344 1_545 S
C111 H115 0.930 . S
N112 C109 1.377 1_565 S
N112 C111 1.344 1_565 S
O113 Co105 2.055 . S
O113 C117 1.253 . S
H114 C110 0.931 . S
H115 C111 0.930 . S
O116 Co105 2.039 . S
O116 C106 1.265 . S
C117 O113 1.253 . S
C117 O118 1.227 . S
O118 C117 1.227 . S
N119 Co105 2.140 . S
N119 C122 1.346 1_455 S
N119 C123 1.345 1_455 S
C120 C121 1.387 . S
C120 C124 1.391 . S
C121 C120 1.387 . S
C121 C122 1.369 . S
C121 H130 0.929 . S
C122 N119 1.346 1_655 S
C122 C121 1.369 . S
C122 H125 0.928 1_655 S
C123 N119 1.345 1_655 S
C123 C124 1.371 . S
C123 H126 0.931 . S
C124 C120 1.391 . S
C124 C123 1.371 . S
C124 H131 0.930 . S
H125 C122 0.928 1_455 S
H126 C123 0.931 . S
H127 C103 0.930 . S
H128 C100 0.930 . S
H129 C109 0.930 1_565 S
H130 C121 0.929 . S
H131 C124 0.930 . S
C132 C133 1.351 . S
C132 N135 1.368 . S
C132 H137 0.931 . S
C133 C132 1.351 . S
C133 N134 1.373 . S
C133 H161 0.930 . S
N134 C133 1.373 . S
N134 C136 1.340 . S
N135 C132 1.368 . S
N135 C136 1.321 . S
N135 Co138 2.135 1_655 S
C136 N134 1.340 . S
C136 N135 1.321 . S
C136 H160 0.930 . S
H137 C132 0.931 . S
Co138 N135 2.135 1_455 S
Co138 N141 2.121 . S
Co138 O146 2.055 . S
Co138 O149 2.039 . S
Co138 N152 2.140 . S
C139 O140 1.227 . S
C139 O149 1.265 . S
O140 C139 1.227 . S
N141 Co138 2.121 . S
N141 C143 1.375 . S
N141 C144 1.313 . S
C142 C143 1.338 . S
C142 N145 1.377 . S
C142 H162 0.930 . S
C143 N141 1.375 . S
C143 C142 1.338 . S
C143 H147 0.931 . S
C144 N141 1.313 . S
C144 N145 1.344 . S
C144 H148 0.930 . S
N145 C142 1.377 . S
N145 C144 1.344 . S
O146 Co138 2.055 . S
O146 C150 1.253 . S
H147 C143 0.931 . S
H148 C144 0.930 . S
O149 Co138 2.039 . S
O149 C139 1.265 . S
C150 O146 1.253 . S
C150 O151 1.227 . S
O151 C150 1.227 . S
N152 Co138 2.140 . S
N152 C155 1.346 1_455 S
N152 C156 1.345 . S
C153 C154 1.387 1_455 S
C153 C157 1.391 . S
C154 C153 1.387 1_655 S
C154 C155 1.369 . S
C154 H163 0.929 . S
C155 N152 1.346 1_655 S
C155 C154 1.369 . S
C155 H158 0.928 . S
C156 N152 1.345 . S
C156 C157 1.371 . S
C156 H159 0.931 . S
C157 C153 1.391 . S
C157 C156 1.371 . S
C157 H164 0.930 . S
H158 C155 0.928 . S
H159 C156 0.931 . S
H160 C136 0.930 . S
H161 C133 0.930 . S
H162 C142 0.930 . S
H163 C154 0.929 . S
H164 C157 0.930 . S
C165 C166 1.351 . S
C165 N168 1.368 1_655 S
C165 H170 0.931 . S
C166 C165 1.351 . S
C166 N167 1.373 1_655 S
C166 H194 0.930 . S
N167 C166 1.373 1_455 S
N167 C169 1.340 . S
N168 C165 1.368 1_455 S
N168 C169 1.321 . S
N168 Co171 2.135 . S
C169 N167 1.340 . S
C169 N168 1.321 . S
C169 H193 0.930 . S
H170 C165 0.931 . S
Co171 N168 2.135 . S
Co171 N174 2.121 . S
Co171 O179 2.055 . S
Co171 O182 2.039 . S
Co171 N185 2.140 1_455 S
C172 O173 1.227 . S
C172 O182 1.265 . S
O173 C172 1.227 . S
N174 Co171 2.121 . S
N174 C176 1.375 . S
N174 C177 1.313 . S
C175 C176 1.338 . S
C175 N178 1.377 1_565 S
C175 H195 0.930 1_565 S
C176 N174 1.375 . S
C176 C175 1.338 . S
C176 H180 0.931 . S
C177 N174 1.313 . S
C177 N178 1.344 1_565 S
C177 H181 0.930 . S
N178 C175 1.377 1_545 S
N178 C177 1.344 1_545 S
O179 Co171 2.055 . S
O179 C183 1.253 1_455 S
H180 C176 0.931 . S
H181 C177 0.930 . S
O182 Co171 2.039 . S
O182 C172 1.265 . S
C183 O179 1.253 1_655 S
C183 O184 1.227 . S
O184 C183 1.227 . S
N185 Co171 2.140 1_655 S
N185 C188 1.346 . S
N185 C189 1.345 . S
C186 C187 1.387 . S
C186 C190 1.391 . S
C187 C186 1.387 . S
C187 C188 1.369 . S
C187 H196 0.929 . S
C188 N185 1.346 . S
C188 C187 1.369 . S
C188 H191 0.928 . S
C189 N185 1.345 . S
C189 C190 1.371 . S
C189 H192 0.931 . S
C190 C186 1.391 . S
C190 C189 1.371 . S
C190 H197 0.930 . S
H191 C188 0.928 . S
H192 C189 0.931 . S
H193 C169 0.930 . S
H194 C166 0.930 . S
H195 C175 0.930 1_545 S
H196 C187 0.929 . S
H197 C190 0.930 . S
C198 C199 1.351 . S
C198 N201 1.368 . S
C198 H203 0.931 . S
C199 C198 1.351 . S
C199 N200 1.373 . S
C199 H227 0.930 . S
N200 C199 1.373 . S
N200 C202 1.340 . S
N201 C198 1.368 . S
N201 C202 1.321 . S
N201 Co204 2.135 . S
C202 N200 1.340 . S
C202 N201 1.321 . S
C202 H226 0.930 . S
H203 C198 0.931 . S
Co204 N201 2.135 . S
Co204 N207 2.121 . S
Co204 O212 2.055 . S
Co204 O215 2.039 . S
Co204 N218 2.140 . S
C205 O206 1.227 . S
C205 O215 1.265 . S
O206 C205 1.227 . S
N207 Co204 2.121 . S
N207 C209 1.375 . S
N207 C210 1.313 . S
C208 C209 1.338 . S
C208 N211 1.377 . S
C208 H228 0.930 . S
C209 N207 1.375 . S
C209 C208 1.338 . S
C209 H213 0.931 . S
C210 N207 1.313 . S
C210 N211 1.344 . S
C210 H214 0.930 . S
N211 C208 1.377 . S
N211 C210 1.344 . S
O212 Co204 2.055 . S
O212 C216 1.253 . S
H213 C209 0.931 . S
H214 C210 0.930 . S
O215 Co204 2.039 . S
O215 C205 1.265 . S
C216 O212 1.253 . S
C216 O217 1.227 . S
O217 C216 1.227 . S
N218 Co204 2.140 . S
N218 C221 1.346 . S
N218 C222 1.345 . S
C219 C220 1.387 . S
C219 C223 1.391 . S
C220 C219 1.387 . S
C220 C221 1.369 . S
C220 H229 0.929 . S
C221 N218 1.346 . S
C221 C220 1.369 . S
C221 H224 0.928 . S
C222 N218 1.345 . S
C222 C223 1.371 . S
C222 H225 0.931 . S
C223 C219 1.391 . S
C223 C222 1.371 . S
C223 H230 0.930 . S
H224 C221 0.928 . S
H225 C222 0.931 . S
H226 C202 0.930 . S
H227 C199 0.930 . S
H228 C208 0.930 . S
H229 C220 0.929 . S
H230 C223 0.930 . S
C231 C232 1.351 . S
C231 N234 1.368 . S
C231 H236 0.931 . S
C232 C231 1.351 . S
C232 N233 1.373 . S
C232 H260 0.930 1_545 S
N233 C232 1.373 . S
N233 C235 1.340 . S
N234 C231 1.368 . S
N234 C235 1.321 . S
N234 Co237 2.135 . S
C235 N233 1.340 . S
C235 N234 1.321 . S
C235 H259 0.930 . S
H236 C231 0.931 . S
Co237 N234 2.135 . S
Co237 N240 2.121 . S
Co237 O245 2.055 . S
Co237 O248 2.039 . S
Co237 N251 2.140 . S
C238 O239 1.227 . S
C238 O248 1.265 . S
O239 C238 1.227 . S
N240 Co237 2.121 . S
N240 C242 1.375 . S
N240 C243 1.313 . S
C241 C242 1.338 . S
C241 N244 1.377 . S
C241 H261 0.930 . S
C242 N240 1.375 . S
C242 C241 1.338 . S
C242 H246 0.931 . S
C243 N240 1.313 . S
C243 N244 1.344 . S
C243 H247 0.930 . S
N244 C241 1.377 . S
N244 C243 1.344 . S
O245 Co237 2.055 . S
O245 C249 1.253 . S
H246 C242 0.931 . S
H247 C243 0.930 . S
O248 Co237 2.039 . S
O248 C238 1.265 . S
C249 O245 1.253 . S
C249 O250 1.227 . S
O250 C249 1.227 . S
N251 Co237 2.140 . S
N251 C254 1.346 . S
N251 C255 1.345 . S
C252 C253 1.387 . S
C252 C256 1.391 . S
C253 C252 1.387 . S
C253 C254 1.369 . S
C253 H262 0.929 . S
C254 N251 1.346 . S
C254 C253 1.369 . S
C254 H257 0.928 . S
C255 N251 1.345 . S
C255 C256 1.371 . S
C255 H258 0.931 . S
C256 C252 1.391 . S
C256 C255 1.371 . S
C256 H263 0.930 . S
H257 C254 0.928 . S
H258 C255 0.931 . S
H259 C235 0.930 . S
H260 C232 0.930 1_565 S
H261 C241 0.930 . S
H262 C253 0.929 . S
H263 C256 0.930 . S
H264 C270 0.930 . S
H265 C273 0.930 . S
H266 C274 0.930 . S
H267 C275 0.930 . S
H268 C278 0.930 . S
H269 C279 0.930 . S
C270 H264 0.930 . S
C270 C271 1.355 1_655 S
C270 C272 1.415 . S
C271 C270 1.355 1_455 S
C271 C273 1.419 . S
C272 C270 1.415 . S
C272 C277 1.425 1_655 S
C272 C279 1.409 . S
C273 H265 0.930 . S
C273 C271 1.419 . S
C273 C274 1.362 . S
C274 H266 0.930 . S
C274 C273 1.362 . S
C274 C277 1.409 . S
C275 H267 0.930 . S
C275 C276 1.355 1_455 S
C275 C277 1.415 . S
C276 C275 1.355 1_655 S
C276 C278 1.419 . S
C277 C272 1.425 1_455 S
C277 C274 1.409 . S
C277 C275 1.415 . S
C278 H268 0.930 . S
C278 C276 1.419 . S
C278 C279 1.362 . S
C279 H269 0.930 . S
C279 C272 1.409 . S
C279 C278 1.362 . S
H280 C286 0.930 . S
H281 C289 0.930 . S
H282 C290 0.930 . S
H283 C291 0.930 . S
H284 C294 0.930 . S
H285 C295 0.930 . S
C286 H280 0.930 . S
C286 C287 1.355 . S
C286 C288 1.415 . S
C287 C286 1.355 . S
C287 C289 1.419 . S
C288 C286 1.415 . S
C288 C293 1.425 . S
C288 C295 1.409 . S
C289 H281 0.930 . S
C289 C287 1.419 . S
C289 C290 1.362 . S
C290 H282 0.930 . S
C290 C289 1.362 . S
C290 C293 1.409 . S
C291 H283 0.930 . S
C291 C292 1.355 . S
C291 C293 1.415 . S
C292 C291 1.355 . S
C292 C294 1.419 . S
C293 C288 1.425 . S
C293 C290 1.409 . S
C293 C291 1.415 . S
C294 H284 0.930 . S
C294 C292 1.419 . S
C294 C295 1.362 . S
C295 H285 0.930 . S
C295 C288 1.409 . S
C295 C294 1.362 . S
H296 C302 0.930 . S
H297 C305 0.930 . S
H298 C306 0.930 . S
H299 C307 0.930 . S
H300 C310 0.930 . S
H301 C311 0.930 . S
C302 H296 0.930 . S
C302 C303 1.355 . S
C302 C304 1.415 . S
C303 C302 1.355 . S
C303 C305 1.419 . S
C304 C302 1.415 . S
C304 C309 1.425 . S
C304 C311 1.409 . S
C305 H297 0.930 . S
C305 C303 1.419 . S
C305 C306 1.362 . S
C306 H298 0.930 . S
C306 C305 1.362 . S
C306 C309 1.409 . S
C307 H299 0.930 . S
C307 C308 1.355 . S
C307 C309 1.415 . S
C308 C307 1.355 . S
C308 C310 1.419 . S
C309 C304 1.425 . S
C309 C306 1.409 . S
C309 C307 1.415 . S
C310 H300 0.930 . S
C310 C308 1.419 . S
C310 C311 1.362 . S
C311 H301 0.930 . S
C311 C304 1.409 . S
C311 C310 1.362 . S
H312 C318 0.930 . S
H313 C321 0.930 . S
H314 C322 0.930 . S
H315 C323 0.930 . S
H316 C326 0.930 . S
H317 C327 0.930 . S
C318 H312 0.930 . S
C318 C319 1.355 . S
C318 C320 1.415 . S
C319 C318 1.355 . S
C319 C321 1.419 . S
C320 C318 1.415 . S
C320 C325 1.425 . S
C320 C327 1.409 . S
C321 H313 0.930 . S
C321 C319 1.419 . S
C321 C322 1.362 . S
C322 H314 0.930 . S
C322 C321 1.362 . S
C322 C325 1.409 . S
C323 H315 0.930 . S
C323 C324 1.355 . S
C323 C325 1.415 . S
C324 C323 1.355 . S
C324 C326 1.419 . S
C325 C320 1.425 . S
C325 C322 1.409 . S
C325 C323 1.415 . S
C326 H316 0.930 . S
C326 C324 1.419 . S
C326 C327 1.362 . S
C327 H317 0.930 . S
C327 C320 1.409 . S
C327 C326 1.362 . S
H328 C334 0.930 1_655 S
H329 C337 0.930 . S
H330 C338 0.930 . S
H331 C339 0.930 . S
H332 C342 0.930 . S
H333 C343 0.930 1_554 S
C334 H328 0.930 1_455 S
C334 C335 1.355 . S
C334 C336 1.415 . S
C335 C334 1.355 . S
C335 C337 1.419 . S
C336 C334 1.415 . S
C336 C341 1.454 . S
C336 C343 1.409 1_454 S
C337 H329 0.930 . S
C337 C335 1.419 . S
C337 C338 1.362 . S
C338 H330 0.930 . S
C338 C337 1.362 . S
C338 C341 1.430 . S
C339 H331 0.930 . S
C339 C340 1.355 . S
C339 C341 1.368 1_556 S
C340 C339 1.355 . S
C340 C342 1.419 1_455 S
C341 C336 1.454 . S
C341 C338 1.430 . S
C341 C339 1.368 1_554 S
C342 H332 0.930 . S
C342 C340 1.419 1_655 S
C342 C343 1.362 . S
C343 H333 0.930 1_556 S
C343 C336 1.409 1_656 S
C343 C342 1.362 . S
H344 C350 0.930 . S
H345 C353 0.930 . S
H346 C354 0.930 . S
H347 C355 0.930 . S
H348 C358 0.930 . S
H349 C359 0.930 . S
C350 H344 0.930 . S
C350 C351 1.355 . S
C350 C352 1.415 . S
C351 C350 1.355 . S
C351 C353 1.419 . S
C352 C350 1.415 . S
C352 C357 1.425 . S
C352 C359 1.409 . S
C353 H345 0.930 . S
C353 C351 1.419 . S
C353 C354 1.362 . S
C354 H346 0.930 . S
C354 C353 1.362 . S
C354 C357 1.409 . S
C355 H347 0.930 . S
C355 C356 1.355 . S
C355 C357 1.415 . S
C356 C355 1.355 . S
C356 C358 1.419 . S
C357 C352 1.425 . S
C357 C354 1.409 . S
C357 C355 1.415 . S
C358 H348 0.930 . S
C358 C356 1.419 . S
C358 C359 1.362 . S
C359 H349 0.930 . S
C359 C352 1.409 . S
C359 C358 1.362 . S
H360 C366 0.930 . S
H361 C369 0.930 . S
H362 C370 0.930 . S
H363 C371 0.930 . S
H364 C374 0.930 . S
H365 C375 0.930 . S
C366 H360 0.930 . S
C366 C367 1.355 . S
C366 C368 1.415 . S
C367 C366 1.355 . S
C367 C369 1.419 . S
C368 C366 1.415 . S
C368 C373 1.425 . S
C368 C375 1.409 . S
C369 H361 0.930 . S
C369 C367 1.419 . S
C369 C370 1.362 . S
C370 H362 0.930 . S
C370 C369 1.362 . S
C370 C373 1.409 . S
C371 H363 0.930 . S
C371 C372 1.355 . S
C371 C373 1.415 . S
C372 C371 1.355 . S
C372 C374 1.419 . S
C373 C368 1.425 . S
C373 C370 1.409 . S
C373 C371 1.415 . S
C374 H364 0.930 . S
C374 C372 1.419 . S
C374 C375 1.362 . S
C375 H365 0.930 . S
C375 C368 1.409 . S
C375 C374 1.362 . S
H376 C382 0.930 . S
H377 C385 0.930 . S
H378 C386 0.930 . S
H379 C387 0.930 . S
H380 C390 0.930 . S
H381 C391 0.930 . S
C382 H376 0.930 . S
C382 C383 1.355 . S
C382 C384 1.415 . S
C383 C382 1.355 . S
C383 C385 1.419 . S
C384 C382 1.415 . S
C384 C389 1.425 . S
C384 C391 1.409 . S
C385 H377 0.930 . S
C385 C383 1.419 . S
C385 C386 1.362 . S
C386 H378 0.930 . S
C386 C385 1.362 . S
C386 C389 1.409 . S
C387 H379 0.930 . S
C387 C388 1.355 . S
C387 C389 1.415 . S
C388 C387 1.355 . S
C388 C390 1.419 . S
C389 C384 1.425 . S
C389 C386 1.409 . S
C389 C387 1.415 . S
C390 H380 0.930 . S
C390 C388 1.419 . S
C390 C391 1.362 . S
C391 H381 0.930 . S
C391 C384 1.409 . S
C391 C390 1.362 . S
H392 C398 0.930 . S
H393 C401 0.930 . S
H394 C402 0.930 . S
H395 C403 0.930 . S
H396 C406 0.930 . S
H397 C407 0.930 . S
C398 H392 0.930 . S
C398 C399 1.355 . S
C398 C400 1.415 . S
C399 C398 1.355 . S
C399 C401 1.419 . S
C400 C398 1.415 . S
C400 C405 1.425 . S
C400 C407 1.409 . S
C401 H393 0.930 . S
C401 C399 1.419 . S
C401 C402 1.362 . S
C402 H394 0.930 . S
C402 C401 1.362 . S
C402 C405 1.409 . S
C403 H395 0.930 . S
C403 C404 1.355 . S
C403 C405 1.415 . S
C404 C403 1.355 . S
C404 C406 1.419 . S
C405 C400 1.425 . S
C405 C402 1.409 . S
C405 C403 1.415 . S
C406 H396 0.930 . S
C406 C404 1.419 . S
C406 C407 1.362 . S
C407 H397 0.930 . S
C407 C400 1.409 . S
C407 C406 1.362 . S
H408 C414 0.930 . S
H409 C417 0.930 . S
H410 C418 0.930 . S
H411 C419 0.930 . S
H412 C422 0.930 . S
H413 C423 0.930 . S
C414 H408 0.930 . S
C414 C415 1.355 . S
C414 C416 1.415 . S
C415 C414 1.355 . S
C415 C417 1.419 . S
C416 C414 1.415 . S
C416 C421 1.425 . S
C416 C423 1.409 . S
C417 H409 0.930 . S
C417 C415 1.419 . S
C417 C418 1.362 . S
C418 H410 0.930 . S
C418 C417 1.362 . S
C418 C421 1.409 . S
C419 H411 0.930 . S
C419 C420 1.355 . S
C419 C421 1.415 . S
C420 C419 1.355 . S
C420 C422 1.419 . S
C421 C416 1.425 . S
C421 C418 1.409 . S
C421 C419 1.415 . S
C422 H412 0.930 . S
C422 C420 1.419 . S
C422 C423 1.362 . S
C423 H413 0.930 . S
C423 C416 1.409 . S
C423 C422 1.362 . S
H424 C430 0.930 . S
H425 C433 0.930 . S
H426 C434 0.930 . S
H427 C435 0.930 . S
H428 C438 0.930 . S
H429 C439 0.930 . S
C430 H424 0.930 . S
C430 C431 1.355 . S
C430 C432 1.415 1_565 S
C431 C430 1.355 . S
C431 C433 1.419 1_565 S
C432 C430 1.415 1_545 S
C432 C437 1.425 . S
C432 C439 1.409 1_545 S
C433 H425 0.930 . S
C433 C431 1.419 1_545 S
C433 C434 1.362 . S
C434 H426 0.930 . S
C434 C433 1.362 . S
C434 C437 1.409 . S
C435 H427 0.930 . S
C435 C436 1.355 . S
C435 C437 1.415 . S
C436 C435 1.355 . S
C436 C438 1.419 . S
C437 C432 1.425 . S
C437 C434 1.409 . S
C437 C435 1.415 . S
C438 H428 0.930 . S
C438 C436 1.419 . S
C438 C439 1.362 1_545 S
C439 H429 0.930 . S
C439 C432 1.409 1_565 S
C439 C438 1.362 1_565 S
H440 C446 0.930 . S
H441 C449 0.930 . S
H442 C450 0.930 1_556 S
H443 C451 0.930 . S
H444 C454 0.930 . S
H445 C455 0.930 . S
C446 H440 0.930 . S
C446 C447 1.355 . S
C446 C448 1.449 . S
C447 C446 1.355 . S
C447 C449 1.419 1_445 S
C448 C446 1.449 . S
C448 C453 1.412 1_554 S
C448 C455 1.388 1_554 S
C449 H441 0.930 . S
C449 C447 1.419 1_665 S
C449 C450 1.364 . S
C450 H442 0.930 1_554 S
C450 C449 1.364 . S
C450 C453 1.408 1_664 S
C451 H443 0.930 . S
C451 C452 1.355 1_665 S
C451 C453 1.415 1_665 S
C452 C451 1.355 1_445 S
C452 C454 1.419 . S
C453 C448 1.412 1_556 S
C453 C450 1.408 1_446 S
C453 C451 1.415 1_445 S
C454 H444 0.930 . S
C454 C452 1.419 . S
C454 C455 1.362 . S
C455 H445 0.930 . S
C455 C448 1.388 1_556 S
C455 C454 1.362 . S
H456 C462 0.930 . S
H457 C465 0.930 . S
H458 C466 0.930 . S
H459 C467 0.930 . S
H460 C470 0.930 . S
H461 C471 0.930 . S
C462 H456 0.930 . S
C462 C463 1.355 . S
C462 C464 1.415 . S
C463 C462 1.355 . S
C463 C465 1.419 . S
C464 C462 1.415 . S
C464 C469 1.425 . S
C464 C471 1.409 . S
C465 H457 0.930 . S
C465 C463 1.419 . S
C465 C466 1.362 . S
C466 H458 0.930 . S
C466 C465 1.362 . S
C466 C469 1.409 . S
C467 H459 0.930 . S
C467 C468 1.355 . S
C467 C469 1.415 . S
C468 C467 1.355 . S
C468 C470 1.419 . S
C469 C464 1.425 . S
C469 C466 1.409 . S
C469 C467 1.415 . S
C470 H460 0.930 . S
C470 C468 1.419 . S
C470 C471 1.362 . S
C471 H461 0.930 . S
C471 C464 1.409 . S
C471 C470 1.362 . S
H472 C478 0.930 . S
H473 C481 0.930 . S
H474 C482 0.930 . S
H475 C483 0.930 . S
H476 C486 0.930 . S
H477 C487 0.930 . S
C478 H472 0.930 . S
C478 C479 1.355 . S
C478 C480 1.415 . S
C479 C478 1.355 . S
C479 C481 1.419 . S
C480 C478 1.415 . S
C480 C485 1.425 . S
C480 C487 1.409 . S
C481 H473 0.930 . S
C481 C479 1.419 . S
C481 C482 1.362 . S
C482 H474 0.930 . S
C482 C481 1.362 . S
C482 C485 1.409 . S
C483 H475 0.930 . S
C483 C484 1.355 . S
C483 C485 1.415 . S
C484 C483 1.355 . S
C484 C486 1.419 . S
C485 C480 1.425 . S
C485 C482 1.409 . S
C485 C483 1.415 . S
C486 H476 0.930 . S
C486 C484 1.419 . S
C486 C487 1.362 . S
C487 H477 0.930 . S
C487 C480 1.409 . S
C487 C486 1.362 . S
H488 C494 0.930 . S
H489 C497 0.930 . S
H490 C498 0.930 . S
H491 C499 0.930 . S
H492 C502 0.930 . S
H493 C503 0.930 1_455 S
C494 H488 0.930 . S
C494 C495 1.355 . S
C494 C496 1.415 . S
C495 C494 1.355 . S
C495 C497 1.419 . S
C496 C494 1.415 . S
C496 C501 1.425 . S
C496 C503 1.409 1_455 S
C497 H489 0.930 . S
C497 C495 1.419 . S
C497 C498 1.362 . S
C498 H490 0.930 . S
C498 C497 1.362 . S
C498 C501 1.409 . S
C499 H491 0.930 . S
C499 C500 1.355 . S
C499 C501 1.415 1_655 S
C500 C499 1.355 . S
C500 C502 1.419 . S
C501 C496 1.425 . S
C501 C498 1.409 . S
C501 C499 1.415 1_455 S
C502 H492 0.930 . S
C502 C500 1.419 . S
C502 C503 1.362 . S
C503 H493 0.930 1_655 S
C503 C496 1.409 1_655 S
C503 C502 1.362 . S
H504 C510 0.930 . S
H505 C513 0.930 . S
H506 C514 0.930 . S
H507 C515 0.930 . S
H508 C518 0.930 1_655 S
H509 C519 0.930 1_655 S
C510 H504 0.930 . S
C510 C511 1.355 . S
C510 C512 1.415 . S
C511 C510 1.355 . S
C511 C513 1.419 . S
C512 C510 1.415 . S
C512 C517 1.425 . S
C512 C519 1.409 . S
C513 H505 0.930 . S
C513 C511 1.419 . S
C513 C514 1.362 . S
C514 H506 0.930 . S
C514 C513 1.362 . S
C514 C517 1.409 . S
C515 H507 0.930 . S
C515 C516 1.355 . S
C515 C517 1.415 . S
C516 C515 1.355 . S
C516 C518 1.419 . S
C517 C512 1.425 . S
C517 C514 1.409 . S
C517 C515 1.415 . S
C518 H508 0.930 1_455 S
C518 C516 1.419 . S
C518 C519 1.362 . S
C519 H509 0.930 1_455 S
C519 C512 1.409 . S
C519 C518 1.362 . S
H520 C526 0.930 . S
H521 C529 0.930 . S
H522 C530 0.930 . S
H523 C531 0.930 . S
H524 C534 0.930 . S
H525 C535 0.930 . S
C526 H520 0.930 . S
C526 C527 1.355 . S
C526 C528 1.415 . S
C527 C526 1.355 . S
C527 C529 1.419 . S
C528 C526 1.415 . S
C528 C533 1.425 . S
C528 C535 1.409 . S
C529 H521 0.930 . S
C529 C527 1.419 . S
C529 C530 1.362 . S
C530 H522 0.930 . S
C530 C529 1.362 . S
C530 C533 1.409 . S
C531 H523 0.930 . S
C531 C532 1.355 . S
C531 C533 1.415 . S
C532 C531 1.355 . S
C532 C534 1.419 . S
C533 C528 1.425 . S
C533 C530 1.409 . S
C533 C531 1.415 . S
C534 H524 0.930 . S
C534 C532 1.419 . S
C534 C535 1.362 . S
C535 H525 0.930 . S
C535 C528 1.409 . S
C535 C534 1.362 . S
H536 C542 0.930 . S
H537 C545 0.930 . S
H538 C546 0.930 . S
H539 C547 0.930 . S
H540 C550 0.930 . S
H541 C551 0.930 . S
C542 H536 0.930 . S
C542 C543 1.355 1_655 S
C542 C544 1.415 1_655 S
C543 C542 1.355 1_455 S
C543 C545 1.419 . S
C544 C542 1.415 1_455 S
C544 C549 1.425 . S
C544 C551 1.409 1_455 S
C545 H537 0.930 . S
C545 C543 1.419 . S
C545 C546 1.362 . S
C546 H538 0.930 . S
C546 C545 1.362 . S
C546 C549 1.409 . S
C547 H539 0.930 . S
C547 C548 1.355 . S
C547 C549 1.415 . S
C548 C547 1.355 . S
C548 C550 1.419 1_455 S
C549 C544 1.425 . S
C549 C546 1.409 . S
C549 C547 1.415 . S
C550 H540 0.930 . S
C550 C548 1.419 1_655 S
C550 C551 1.362 . S
C551 H541 0.930 . S
C551 C544 1.409 1_655 S
C551 C550 1.362 . S
H552 C558 0.930 . S
H553 C561 0.930 . S
H554 C562 0.930 1_455 S
H555 C563 0.930 . S
H556 C566 0.930 . S
H557 C567 0.930 . S
C558 H552 0.930 . S
C558 C559 1.355 . S
C558 C560 1.415 1_655 S
C559 C558 1.355 . S
C559 C561 1.419 . S
C560 C558 1.415 1_455 S
C560 C565 1.425 . S
C560 C567 1.409 . S
C561 H553 0.930 . S
C561 C559 1.419 . S
C561 C562 1.362 . S
C562 H554 0.930 1_655 S
C562 C561 1.362 . S
C562 C565 1.409 1_655 S
C563 H555 0.930 . S
C563 C564 1.355 . S
C563 C565 1.415 . S
C564 C563 1.355 . S
C564 C566 1.419 . S
C565 C560 1.425 . S
C565 C562 1.409 1_455 S
C565 C563 1.415 . S
C566 H556 0.930 . S
C566 C564 1.419 . S
C566 C567 1.362 . S
C567 H557 0.930 . S
C567 C560 1.409 . S
C567 C566 1.362 . S
H568 C574 0.930 . S
H569 C577 0.930 . S
H570 C578 0.930 . S
H571 C579 0.930 . S
H572 C582 0.930 . S
H573 C583 0.930 . S
C574 H568 0.930 . S
C574 C575 1.355 . S
C574 C576 1.415 . S
C575 C574 1.355 . S
C575 C577 1.419 . S
C576 C574 1.415 . S
C576 C581 1.425 . S
C576 C583 1.409 . S
C577 H569 0.930 . S
C577 C575 1.419 . S
C577 C578 1.362 . S
C578 H570 0.930 . S
C578 C577 1.362 . S
C578 C581 1.409 . S
C579 H571 0.930 . S
C579 C580 1.355 . S
C579 C581 1.415 . S
C580 C579 1.355 . S
C580 C582 1.419 . S
C581 C576 1.425 . S
C581 C578 1.409 . S
C581 C579 1.415 . S
C582 H572 0.930 . S
C582 C580 1.419 . S
C582 C583 1.362 . S
C583 H573 0.930 . S
C583 C576 1.409 . S
C583 C582 1.362 . S
C271 C18 1.343 . S
C276 C183 1.349 . S
C287 C216 1.345 . S
C292 C51 1.347 . S
C303 C84 1.327 . S
C308 C249 1.327 . S
C319 C150 1.347 . S
C324 C117 1.345 . S
C335 C7 0.606 . S
C340 C153 0.613 . S
C351 C40 0.919 . S
C356 C186 0.918 . S
C367 C205 0.721 . S
C372 C87 0.733 . S
C383 C120 0.666 . S
C388 C238 0.688 . S
C399 C106 0.918 . S
C404 C252 0.919 . S
C415 C172 0.757 . S
C420 C54 0.736 . S
C431 C219 0.732 . S
C436 C73 0.754 . S
C447 C21 0.794 1_545 S
C452 C139 0.794 . S
C463 N13 1.732 . S
C468 N2 1.728 . S
C479 N46 1.733 . S
C484 N35 1.729 1_545 S
C495 N79 1.773 . S
C500 N68 1.770 . S
C511 N112 1.746 . S
C516 N101 1.743 . S
C527 N134 1.748 . S
C532 N145 1.752 . S
C543 N178 1.744 . S
C548 N167 1.741 . S
C559 N211 1.761 . S
C564 N200 1.758 . S
C575 N233 1.759 1_565 S
C580 N244 1.762 . S
