# Generated by pormake.
# Topology uno, (4)-cn, num edge types: 1
# Building blocks:
#     Node 0, Type 0, BuildingBlock: ESEHIV_clean_sbu_0, # of connection points: 4
#     Node 1, Type 0, BuildingBlock: ESEHIV_clean_sbu_0, # of connection points: 4
#     Node 2, Type 0, BuildingBlock: ESEHIV_clean_sbu_0, # of connection points: 4
#     Node 3, Type 0, BuildingBlock: ESEHIV_clean_sbu_0, # of connection points: 4
#     Node 4, Type 0, BuildingBlock: ESEHIV_clean_sbu_0, # of connection points: 4
#     Node 5, Type 0, BuildingBlock: ESEHIV_clean_sbu_0, # of connection points: 4
#     Node 6, Type 0, BuildingBlock: ESEHIV_clean_sbu_0, # of connection points: 4
#     Node 7, Type 0, BuildingBlock: ESEHIV_clean_sbu_0, # of connection points: 4
#     Node 8, Type 0, BuildingBlock: ESEHIV_clean_sbu_0, # of connection points: 4
#     Node 9, Type 0, BuildingBlock: ESEHIV_clean_sbu_0, # of connection points: 4
#     Node 10, Type 0, BuildingBlock: ESEHIV_clean_sbu_0, # of connection points: 4
#     Node 11, Type 0, BuildingBlock: ESEHIV_clean_sbu_0, # of connection points: 4
#     Node 12, Type 0, BuildingBlock: ESEHIV_clean_sbu_0, # of connection points: 4
#     Node 13, Type 0, BuildingBlock: ESEHIV_clean_sbu_0, # of connection points: 4
#     Node 14, Type 0, BuildingBlock: ESEHIV_clean_sbu_0, # of connection points: 4
#     Node 15, Type 0, BuildingBlock: ESEHIV_clean_sbu_0, # of connection points: 4
#     Node 16, Type 0, BuildingBlock: ESEHIV_clean_sbu_0, # of connection points: 4
#     Node 17, Type 0, BuildingBlock: ESEHIV_clean_sbu_0, # of connection points: 4
#     Node 18, Type 0, BuildingBlock: ESEHIV_clean_sbu_0, # of connection points: 4
#     Node 19, Type 0, BuildingBlock: ESEHIV_clean_sbu_0, # of connection points: 4
#     Node 20, Type 0, BuildingBlock: ESEHIV_clean_sbu_0, # of connection points: 4
#     Node 21, Type 0, BuildingBlock: ESEHIV_clean_sbu_0, # of connection points: 4
#     Node 22, Type 0, BuildingBlock: ESEHIV_clean_sbu_0, # of connection points: 4
#     Node 23, Type 0, BuildingBlock: ESEHIV_clean_sbu_0, # of connection points: 4
#     Edge 24, Type (0, 0), BuildingBlock: KIFKEQ_clean_linker_1, # of connection points: 2
#     Edge 25, Type (0, 0), BuildingBlock: KIFKEQ_clean_linker_1, # of connection points: 2
#     Edge 26, Type (0, 0), BuildingBlock: KIFKEQ_clean_linker_1, # of connection points: 2
#     Edge 27, Type (0, 0), BuildingBlock: KIFKEQ_clean_linker_1, # of connection points: 2
#     Edge 28, Type (0, 0), BuildingBlock: KIFKEQ_clean_linker_1, # of connection points: 2
#     Edge 29, Type (0, 0), BuildingBlock: KIFKEQ_clean_linker_1, # of connection points: 2
#     Edge 30, Type (0, 0), BuildingBlock: KIFKEQ_clean_linker_1, # of connection points: 2
#     Edge 31, Type (0, 0), BuildingBlock: KIFKEQ_clean_linker_1, # of connection points: 2
#     Edge 32, Type (0, 0), BuildingBlock: KIFKEQ_clean_linker_1, # of connection points: 2
#     Edge 33, Type (0, 0), BuildingBlock: KIFKEQ_clean_linker_1, # of connection points: 2
#     Edge 34, Type (0, 0), BuildingBlock: KIFKEQ_clean_linker_1, # of connection points: 2
#     Edge 35, Type (0, 0), BuildingBlock: KIFKEQ_clean_linker_1, # of connection points: 2
#     Edge 36, Type (0, 0), BuildingBlock: KIFKEQ_clean_linker_1, # of connection points: 2
#     Edge 37, Type (0, 0), BuildingBlock: KIFKEQ_clean_linker_1, # of connection points: 2
#     Edge 38, Type (0, 0), BuildingBlock: KIFKEQ_clean_linker_1, # of connection points: 2
#     Edge 39, Type (0, 0), BuildingBlock: KIFKEQ_clean_linker_1, # of connection points: 2
#     Edge 40, Type (0, 0), BuildingBlock: KIFKEQ_clean_linker_1, # of connection points: 2
#     Edge 41, Type (0, 0), BuildingBlock: KIFKEQ_clean_linker_1, # of connection points: 2
#     Edge 42, Type (0, 0), BuildingBlock: KIFKEQ_clean_linker_1, # of connection points: 2
#     Edge 43, Type (0, 0), BuildingBlock: KIFKEQ_clean_linker_1, # of connection points: 2
#     Edge 44, Type (0, 0), BuildingBlock: KIFKEQ_clean_linker_1, # of connection points: 2
#     Edge 45, Type (0, 0), BuildingBlock: KIFKEQ_clean_linker_1, # of connection points: 2
#     Edge 46, Type (0, 0), BuildingBlock: KIFKEQ_clean_linker_1, # of connection points: 2
#     Edge 47, Type (0, 0), BuildingBlock: KIFKEQ_clean_linker_1, # of connection points: 2
#     Edge 48, Type (0, 0), BuildingBlock: KIFKEQ_clean_linker_1, # of connection points: 2
#     Edge 49, Type (0, 0), BuildingBlock: KIFKEQ_clean_linker_1, # of connection points: 2
#     Edge 50, Type (0, 0), BuildingBlock: KIFKEQ_clean_linker_1, # of connection points: 2
#     Edge 51, Type (0, 0), BuildingBlock: KIFKEQ_clean_linker_1, # of connection points: 2
#     Edge 52, Type (0, 0), BuildingBlock: KIFKEQ_clean_linker_1, # of connection points: 2
#     Edge 53, Type (0, 0), BuildingBlock: KIFKEQ_clean_linker_1, # of connection points: 2
#     Edge 54, Type (0, 0), BuildingBlock: KIFKEQ_clean_linker_1, # of connection points: 2
#     Edge 55, Type (0, 0), BuildingBlock: KIFKEQ_clean_linker_1, # of connection points: 2
#     Edge 56, Type (0, 0), BuildingBlock: KIFKEQ_clean_linker_1, # of connection points: 2
#     Edge 57, Type (0, 0), BuildingBlock: KIFKEQ_clean_linker_1, # of connection points: 2
#     Edge 58, Type (0, 0), BuildingBlock: KIFKEQ_clean_linker_1, # of connection points: 2
#     Edge 59, Type (0, 0), BuildingBlock: KIFKEQ_clean_linker_1, # of connection points: 2
#     Edge 60, Type (0, 0), BuildingBlock: KIFKEQ_clean_linker_1, # of connection points: 2
#     Edge 61, Type (0, 0), BuildingBlock: KIFKEQ_clean_linker_1, # of connection points: 2
#     Edge 62, Type (0, 0), BuildingBlock: KIFKEQ_clean_linker_1, # of connection points: 2
#     Edge 63, Type (0, 0), BuildingBlock: KIFKEQ_clean_linker_1, # of connection points: 2
#     Edge 64, Type (0, 0), BuildingBlock: KIFKEQ_clean_linker_1, # of connection points: 2
#     Edge 65, Type (0, 0), BuildingBlock: KIFKEQ_clean_linker_1, # of connection points: 2
#     Edge 66, Type (0, 0), BuildingBlock: KIFKEQ_clean_linker_1, # of connection points: 2
#     Edge 67, Type (0, 0), BuildingBlock: KIFKEQ_clean_linker_1, # of connection points: 2
#     Edge 68, Type (0, 0), BuildingBlock: KIFKEQ_clean_linker_1, # of connection points: 2
#     Edge 69, Type (0, 0), BuildingBlock: KIFKEQ_clean_linker_1, # of connection points: 2
#     Edge 70, Type (0, 0), BuildingBlock: KIFKEQ_clean_linker_1, # of connection points: 2
#     Edge 71, Type (0, 0), BuildingBlock: KIFKEQ_clean_linker_1, # of connection points: 2
# Relax obj value: 0.382
# Max RMSD: 0.209
# Mean RMSD: 0.191
data_MOF--net-uno--node1-ESEHIV_clean_sbu_0--edge1-KIFKEQ_clean_linker_1
_symmetry_space_group_name_H-M    P1
_symmetry_Int_Tables_number       1
_symmetry_cell_setting            triclinic
loop_
_symmetry_equiv_pos_as_xyz
'x, y, z'
_cell_length_a     56.685521
_cell_length_b     58.699546
_cell_length_c     58.383627
_cell_angle_alpha  90.654097
_cell_angle_beta   89.89003
_cell_angle_gamma 92.686514
loop_
_atom_site_label
_atom_site_type_symbol
_atom_site_fract_x
_atom_site_fract_y
_atom_site_fract_z
_atom_type_partial_charge
Cu0 Cu 0.07102 0.23991 0.28641 0.0
N1 N 0.08632 0.22487 0.30947 0.0
N2 N 0.10395 0.1962 0.32614 0.0
C3 C 0.09 0.20244 0.30886 0.0
C4 C 0.10923 0.21556 0.33817 0.0
C5 C 0.09824 0.23327 0.32784 0.0
O6 O 0.04836 0.21744 0.27391 0.0
C7 C 0.0919 0.24835 0.24248 0.0
O8 O 0.07079 0.24313 0.23415 0.0
H9 H 0.08383 0.19122 0.29506 0.0
H10 H 0.09969 0.2511 0.33275 0.0
N11 N 0.05637 0.26522 0.29837 0.0
N12 N 0.04015 0.29907 0.30139 0.0
C13 C 0.05092 0.2843 0.28735 0.0
C14 C 0.04894 0.26804 0.32006 0.0
C15 C 0.03888 0.28886 0.32198 0.0
C16 C 0.03151 0.20988 0.28654 0.0
O17 O 0.02772 0.22016 0.30621 0.0
H18 H 0.05455 0.28712 0.26937 0.0
H19 H 0.05073 0.25576 0.33356 0.0
O20 O 0.095 0.24863 0.26405 0.0
H21 H 0.12086 0.21697 0.35286 0.0
H22 H 0.03156 0.29607 0.33743 0.0
Cu23 Cu 0.03774 0.8224 0.477 0.0
N24 N 0.03913 0.82792 0.44567 0.0
N25 N 0.03692 0.84653 0.41266 0.0
C26 C 0.03329 0.84732 0.43549 0.0
C27 C 0.04546 0.82583 0.40832 0.0
C28 C 0.04672 0.81433 0.42875 0.0
O29 O 0.00613 0.81024 0.48404 0.0
C30 C 0.05398 0.8543 0.51219 0.0
O31 O 0.05399 0.83689 0.52614 0.0
H32 H 0.02714 0.86197 0.44477 0.0
H33 H 0.05298 0.7974 0.43115 0.0
N34 N 0.05929 0.8005 0.48434 0.0
N35 N 0.09068 0.7835 0.49829 0.0
C36 C 0.08054 0.80354 0.49451 0.0
C37 C 0.05594 0.77786 0.48128 0.0
C38 C 0.07522 0.76733 0.48982 0.0
C39 C 0.98777 0.82054 0.47848 0.0
O40 O 0.99023 0.84117 0.47006 0.0
H41 H 0.0881 0.8201 0.49953 0.0
H42 H 0.0404 0.7696 0.47359 0.0
O43 O 0.04633 0.85136 0.49185 0.0
H44 H 0.05043 0.81946 0.39161 0.0
H45 H 0.07755 0.74915 0.48976 0.0
Cu46 Cu 0.42738 0.76683 0.80699 0.0
N47 N 0.41204 0.7847 0.82838 0.0
N48 N 0.39706 0.81626 0.84304 0.0
C49 C 0.41229 0.80759 0.82787 0.0
C50 C 0.38686 0.798 0.85369 0.0
C51 C 0.39623 0.7785 0.84464 0.0
O52 O 0.45215 0.78658 0.79399 0.0
C53 C 0.40984 0.74977 0.7641 0.0
O54 O 0.43222 0.74957 0.75823 0.0
H55 H 0.42218 0.81764 0.81543 0.0
H56 H 0.39103 0.76106 0.84876 0.0
N57 N 0.44092 0.74231 0.82087 0.0
N58 N 0.45867 0.70943 0.82456 0.0
C59 C 0.44694 0.72291 0.81039 0.0
C60 C 0.44901 0.7411 0.84244 0.0
C61 C 0.46004 0.72079 0.84478 0.0
C62 C 0.44765 0.80101 0.77871 0.0
O63 O 0.42641 0.80056 0.76969 0.0
H64 H 0.44369 0.71924 0.79243 0.0
H65 H 0.44758 0.75435 0.85533 0.0
O66 O 0.40437 0.75623 0.78421 0.0
H67 H 0.37296 0.79861 0.86639 0.0
H68 H 0.46863 0.71499 0.86005 0.0
Cu69 Cu 0.47194 0.19445 0.96813 0.0
N70 N 0.47305 0.18673 0.93713 0.0
N71 N 0.47958 0.16614 0.90545 0.0
C72 C 0.48076 0.16705 0.92856 0.0
C73 C 0.47073 0.18619 0.89934 0.0
C74 C 0.46673 0.19884 0.91893 0.0
O75 O 0.50291 0.20728 0.9766 0.0
C76 C 0.45609 0.16472 0.00451 0.0
O77 O 0.457 0.18284 0.01797 0.0
H78 H 0.48731 0.15377 0.9392 0.0
H79 H 0.45961 0.2156 0.91985 0.0
N80 N 0.44923 0.21598 0.97338 0.0
N81 N 0.41716 0.23267 0.98671 0.0
C82 C 0.42839 0.21295 0.98434 0.0
C83 C 0.45117 0.23827 0.96833 0.0
C84 C 0.43145 0.24861 0.9765 0.0
C85 C 0.52079 0.19499 0.97677 0.0
O86 O 0.51768 0.1729 0.97328 0.0
H87 H 0.42197 0.19674 0.99107 0.0
H88 H 0.46612 0.24648 0.9597 0.0
O89 O 0.46297 0.16647 0.98384 0.0
H90 H 0.46698 0.19127 0.88202 0.0
H91 H 0.42806 0.26653 0.97513 0.0
Cu92 Cu 0.04918 0.00935 0.27485 0.0
N93 N 0.07889 0.0229 0.28039 0.0
N94 N 0.10691 0.041 0.30142 0.0
C95 C 0.08355 0.03716 0.29813 0.0
C96 C 0.11744 0.02875 0.28492 0.0
C97 C 0.10004 0.01761 0.27188 0.0
O98 O 0.02746 0.03365 0.27279 0.0
C99 C 0.02425 0.97701 0.30414 0.0
O100 O 0.00553 0.97958 0.29136 0.0
H101 H 0.0701 0.04289 0.30972 0.0
H102 H 0.10262 1.00533 0.25826 0.0
N103 N 0.04868 0.99252 0.2477 0.0
N104 N 0.04142 0.96299 0.2239 0.0
C105 C 0.04306 0.9701 0.24593 0.0
C106 C 0.05102 0.99998 0.22608 0.0
C107 C 0.04661 0.98174 0.21131 0.0
C108 C 0.01952 0.0437 0.29038 0.0
O109 O 0.02348 0.03537 0.31074 0.0
H110 H 0.03981 0.95934 0.2606 0.0
H111 H 0.05477 0.01756 0.22143 0.0
O112 O 0.04316 0.98878 0.3001 0.0
H113 H 0.13626 0.02692 0.28325 0.0
H114 H 0.04621 0.98248 0.1928 0.0
Cu115 Cu 0.28805 0.78015 0.59809 0.0
N116 N 0.29498 0.80936 0.60973 0.0
N117 N 0.2938 0.83939 0.63344 0.0
C118 C 0.28178 0.82091 0.62468 0.0
C119 C 0.31523 0.83964 0.62331 0.0
C120 C 0.31589 0.8211 0.60866 0.0
O121 O 0.25495 0.77786 0.58969 0.0
C122 C 0.28893 0.76035 0.64189 0.0
O123 O 0.27129 0.77349 0.64616 0.0
H124 H 0.26441 0.81494 0.63034 0.0
H125 H 0.331 0.81575 0.59898 0.0
N126 N 0.30671 0.77517 0.5724 0.0
N127 N 0.33499 0.76174 0.54996 0.0
C128 C 0.32583 0.76243 0.57133 0.0
C129 C 0.30364 0.78289 0.55107 0.0
C130 C 0.32103 0.77461 0.53716 0.0
C131 C 0.24635 0.76238 0.57631 0.0
O132 O 0.25981 0.74606 0.5693 0.0
H133 H 0.33255 0.75349 0.58586 0.0
H134 H 0.28962 0.79365 0.54601 0.0
O135 O 0.29689 0.7591 0.62157 0.0
H136 H 0.32974 0.85177 0.62698 0.0
H137 H 0.32332 0.77796 0.51909 0.0
Cu138 Cu 0.48264 1.0006 0.77083 0.0
N139 N 0.4509 0.99311 0.77604 0.0
N140 N 0.41936 0.98129 0.79637 0.0
C141 C 0.44307 0.98184 0.79465 0.0
C142 C 0.4119 0.99271 0.77798 0.0
C143 C 0.43148 0.99993 0.76537 0.0
O144 O 0.49833 0.97213 0.76907 0.0
C145 C 0.50692 0.03733 0.7953 0.0
O146 O 0.51898 0.04099 0.77636 0.0
H147 H 0.45469 0.97567 0.80762 0.0
H148 H 0.43161 0.01039 0.75023 0.0
N149 N 0.48686 0.01601 0.7434 0.0
N150 N 0.49024 0.04497 0.71912 0.0
C151 C 0.48043 0.03724 0.73877 0.0
C152 C 0.50092 0.01001 0.72596 0.0
C153 C 0.50316 0.02795 0.71098 0.0
C154 C 0.50311 0.96064 0.78662 0.0
O155 O 0.50069 0.96986 0.80705 0.0
H156 H 0.47053 0.04752 0.75056 0.0
H157 H 0.51012 0.99429 0.72502 0.0
O158 O 0.49243 0.02016 0.79645 0.0
H159 H 0.39376 0.99639 0.77441 0.0
H160 H 0.51437 0.02891 0.69595 0.0
Cu161 Cu 0.23153 0.25197 0.1073 0.0
N162 N 0.22562 0.22884 0.12856 0.0
N163 N 0.2316 0.20131 0.15369 0.0
C164 C 0.24078 0.2204 0.14372 0.0
C165 C 0.20989 0.1977 0.14459 0.0
C166 C 0.20625 0.21469 0.12912 0.0
O167 O 0.26024 0.2454 0.09077 0.0
C168 C 0.22885 0.29226 0.13879 0.0
O169 O 0.23784 0.31279 0.14363 0.0
H170 H 0.25865 0.22726 0.14631 0.0
H171 H 0.19093 0.21612 0.11831 0.0
N172 N 0.2073 0.25189 0.08562 0.0
N173 N 0.17749 0.26197 0.06351 0.0
C174 C 0.19152 0.26785 0.08152 0.0
C175 C 0.20314 0.2355 0.06968 0.0
C176 C 0.1848 0.24165 0.05601 0.0
C177 C 0.26757 0.2589 0.07512 0.0
O178 O 0.25551 0.27692 0.07075 0.0
H179 H 0.19062 0.2836 0.09126 0.0
H180 H 0.21296 0.22019 0.06805 0.0
O181 O 0.23682 0.28205 0.12121 0.0
H182 H 0.1978 0.1834 0.14837 0.0
H183 H 0.17724 0.23181 0.04181 0.0
Cu184 Cu 0.26549 0.05006 0.2871 0.0
N185 N 0.23279 0.04923 0.28931 0.0
N186 N 0.19724 0.06145 0.29827 0.0
C187 C 0.22068 0.06407 0.30181 0.0
C188 C 0.19445 0.04421 0.28287 0.0
C189 C 0.21649 0.03659 0.27744 0.0
O190 O 0.277 0.04505 0.31767 0.0
C191 C 0.28902 0.08369 0.25849 0.0
O192 O 0.30256 0.06738 0.25166 0.0
H193 H 0.22904 0.07757 0.31212 0.0
H194 H 0.22043 0.02352 0.26499 0.0
N195 N 0.27466 0.0263 0.2682 0.0
N196 N 0.28247 1.0053 0.23723 0.0
C197 C 0.27306 0.02456 0.24525 0.0
C198 C 0.28508 0.00742 0.27499 0.0
C199 C 0.28993 0.99441 0.25594 0.0
C200 C 0.277 0.06009 0.33348 0.0
O201 O 0.2726 0.08119 0.32827 0.0
H202 H 0.26544 0.03734 0.2347 0.0
H203 H 0.28928 1.00363 0.29257 0.0
O204 O 0.27421 0.07988 0.27455 0.0
H205 H 0.17782 0.0381 0.27547 0.0
H206 H 0.29904 0.97861 0.25583 0.0
Cu207 Cu 0.17883 0.03796 0.51315 0.0
N208 N 0.16318 0.05751 0.49413 0.0
N209 N 0.15065 0.07269 0.4617 0.0
C210 C 0.16599 0.05879 0.4713 0.0
C211 C 0.13768 0.0806 0.47926 0.0
C212 C 0.14555 0.07126 0.4993 0.0
O213 O 0.2067 0.02963 0.49647 0.0
C214 C 0.16367 0.99294 0.52699 0.0
O215 O 0.18611 0.99007 0.5311 0.0
H216 H 0.17813 0.04868 0.46171 0.0
H217 H 0.13838 0.07362 0.5163 0.0
N218 N 0.1886 0.05356 0.53956 0.0
N219 N 0.20218 0.06067 0.57483 0.0
C220 C 0.19126 0.04518 0.56072 0.0
C221 C 0.19798 0.07503 0.54038 0.0
C222 C 0.20645 0.07947 0.56214 0.0
C223 C 0.20578 0.01546 0.47984 0.0
O224 O 0.186 1.00346 0.47603 0.0
H225 H 0.18654 0.02774 0.56531 0.0
H226 H 0.19945 0.08629 0.52586 0.0
O227 O 0.1574 0.01208 0.51973 0.0
H228 H 0.12312 0.09176 0.47765 0.0
H229 H 0.21557 0.09505 0.56805 0.0
Cu230 Cu 0.26858 0.98429 0.78144 0.0
N231 N 0.30044 0.97922 0.78552 0.0
N232 N 0.33192 0.96151 0.79807 0.0
C233 C 0.30899 0.9657 0.80165 0.0
C234 C 0.33816 0.97355 0.77922 0.0
C235 C 0.31869 0.98444 0.77151 0.0
O236 O 0.25588 0.99057 0.81146 0.0
C237 C 0.25925 0.93784 0.76871 0.0
O238 O 0.26975 0.93331 0.78804 0.0
H239 H 0.29797 0.95762 0.81465 0.0
H240 H 0.31753 0.99431 0.75605 0.0
N241 N 0.26508 0.00998 0.76376 0.0
N242 N 0.25619 0.03092 0.73369 0.0
C243 C 0.26258 0.01036 0.74088 0.0
C244 C 0.26031 0.03101 0.7713 0.0
C245 C 0.25471 0.044 0.75273 0.0
C246 C 0.24428 0.97754 0.82508 0.0
O247 O 0.23737 0.95687 0.81839 0.0
H248 H 0.26382 0.99545 0.72992 0.0
H249 H 0.25972 0.03614 0.78914 0.0
O250 O 0.25468 0.95836 0.76439 0.0
H251 H 0.35519 0.97362 0.77084 0.0
H252 H 0.24919 0.0614 0.75322 0.0
Cu253 Cu 0.32842 0.98387 0.00951 0.0
N254 N 0.34355 0.96592 0.98814 0.0
N255 N 0.3574 0.95629 0.9537 0.0
C256 C 0.3453 0.97148 0.96594 0.0
C257 C 0.3634 0.94036 0.96888 0.0
C258 C 0.35486 0.94641 0.99022 0.0
O259 O 0.29866 0.98996 0.99518 0.0
C260 C 0.34382 0.02938 0.02417 0.0
O261 O 0.32212 0.03199 0.03137 0.0
H262 H 0.33775 0.98649 0.95896 0.0
H263 H 0.35703 0.93742 0.00608 0.0
N264 N 0.32278 0.96857 0.03682 0.0
N265 N 0.3153 0.96315 0.07397 0.0
C266 C 0.32187 0.97834 0.05771 0.0
C267 C 0.31659 0.94641 0.03984 0.0
C268 C 0.31197 0.94299 0.06279 0.0
C269 C 0.29593 0.00668 0.98196 0.0
O270 O 0.3125 0.02302 0.98084 0.0
H271 H 0.32501 0.99643 0.06074 0.0
H272 H 0.31493 0.93378 0.02623 0.0
O273 O 0.34912 0.01069 0.01469 0.0
H274 H 0.37376 0.92577 0.96503 0.0
H275 H 0.30634 0.92698 0.07055 0.0
Cu276 Cu 0.71869 0.26982 0.91572 0.0
N277 N 0.71147 0.24791 0.89328 0.0
N278 N 0.69026 0.23224 0.8645 0.0
C279 C 0.68984 0.24462 0.88407 0.0
C280 C 0.7131 0.22739 0.86134 0.0
C281 C 0.72618 0.23707 0.8792 0.0
O282 O 0.69067 0.27072 0.93507 0.0
C283 C 0.72641 0.31805 0.90689 0.0
O284 O 0.72392 0.3217 0.92898 0.0
H285 H 0.67451 0.25308 0.89038 0.0
H286 H 0.7452 0.23771 0.88083 0.0
N287 N 0.74579 0.26282 0.932 0.0
N288 N 0.77983 0.26693 0.95117 0.0
C289 C 0.76284 0.27763 0.9399 0.0
C290 C 0.75248 0.24204 0.93815 0.0
C291 C 0.77336 0.24455 0.9502 0.0
C292 C 0.68629 0.25489 0.94943 0.0
O293 O 0.70228 0.23987 0.95295 0.0
H294 H 0.76274 0.29589 0.93759 0.0
H295 H 0.74286 0.22617 0.93409 0.0
O296 O 0.72456 0.2978 0.89893 0.0
H297 H 0.72002 0.2187 0.8465 0.0
H298 H 0.78328 0.23098 0.95727 0.0
Cu299 Cu 0.9815 0.50811 0.22323 0.0
N300 N 0.95097 0.51822 0.22153 0.0
N301 N 0.92067 0.53611 0.20692 0.0
C302 C 0.94408 0.53325 0.20601 0.0
C303 C 0.91242 0.52232 0.22378 0.0
C304 C 0.93126 0.51132 0.23286 0.0
O305 O 1.00209 0.53513 0.22694 0.0
C306 C 1.00323 0.47801 0.19121 0.0
O307 O 0.0197 0.47585 0.20674 0.0
H308 H 0.95585 0.54098 0.1934 0.0
H309 H 0.93053 0.49865 0.24618 0.0
N310 N 0.98471 0.48882 0.24799 0.0
N311 N 0.99122 0.4571 0.26734 0.0
C312 C 0.98505 0.46593 0.24707 0.0
C313 C 0.99042 0.49477 0.26964 0.0
C314 C 0.99442 0.47523 0.28166 0.0
C315 C 0.00791 0.54763 0.21002 0.0
O316 O 1.00268 0.54031 0.18921 0.0
H317 H 0.98158 0.45609 0.23158 0.0
H318 H 0.99265 0.51215 0.27591 0.0
O319 O 0.98675 0.49156 0.19492 0.0
H320 H 0.89408 0.51996 0.22878 0.0
H321 H 1.0005 0.47462 0.29918 0.0
Cu322 Cu 0.79159 0.73929 0.41517 0.0
N323 N 0.79653 0.75848 0.39021 0.0
N324 N 0.81603 0.77323 0.36012 0.0
C325 C 0.8178 0.76369 0.38093 0.0
C326 C 0.79263 0.77483 0.35656 0.0
C327 C 0.78063 0.76562 0.37515 0.0
O328 O 0.81801 0.74597 0.43581 0.0
C329 C 0.80254 0.70141 0.38749 0.0
O330 O 0.82095 0.71463 0.38201 0.0
H331 H 0.83421 0.7589 0.38856 0.0
H332 H 0.76171 0.76273 0.37675 0.0
N333 N 0.76373 0.74631 0.43016 0.0
N334 N 0.72928 0.74264 0.44886 0.0
C335 C 0.74679 0.73166 0.43826 0.0
C336 C 0.75681 0.76723 0.43577 0.0
C337 C 0.73559 0.76505 0.44726 0.0
C338 C 0.83643 0.73463 0.43805 0.0
O339 O 0.83775 0.71487 0.42748 0.0
H340 H 0.74733 0.71334 0.43626 0.0
H341 H 0.76668 0.78296 0.43195 0.0
O342 O 0.78851 0.7081 0.40299 0.0
H343 H 0.78472 0.78037 0.34083 0.0
H344 H 0.72586 0.77894 0.45429 0.0
Cu345 Cu 0.96653 0.7434 0.20622 0.0
N346 N 0.94548 0.72497 0.18905 0.0
N347 N 0.92344 0.69362 0.1803 0.0
C348 C 0.94114 0.70274 0.19328 0.0
C349 C 0.91627 0.71084 0.16727 0.0
C350 C 0.9301 0.73022 0.1726 0.0
O351 O 0.99135 0.7236 0.21485 0.0
C352 C 0.9308 0.76504 0.23017 0.0
O353 O 0.92358 0.76915 0.20932 0.0
H354 H 0.94983 0.69371 0.20666 0.0
H355 H 0.92843 0.74708 0.16568 0.0
N356 N 0.97894 0.76762 0.18913 0.0
N357 N 0.9916 0.803 0.18038 0.0
C358 C 0.97962 0.78969 0.19554 0.0
C359 C 0.99082 0.76684 0.16918 0.0
C360 C 0.99876 0.78872 0.16376 0.0
C361 C 0.98899 0.71102 0.23237 0.0
O362 O 0.97153 0.71448 0.24663 0.0
H363 H 0.97239 0.79571 0.21156 0.0
H364 H 0.99402 0.75139 0.15963 0.0
O365 O 0.94977 0.75461 0.23281 0.0
H366 H 0.9017 0.70967 0.15529 0.0
H367 H 0.00925 0.79368 0.14897 0.0
Cu368 Cu 0.54339 0.26867 0.71064 0.0
N369 N 0.56231 0.27997 0.68688 0.0
N370 N 0.58539 0.30716 0.67058 0.0
C371 C 0.56557 0.30236 0.68274 0.0
C372 C 0.59463 0.28673 0.66629 0.0
C373 C 0.58031 0.26997 0.67638 0.0
O374 O 0.52709 0.29448 0.72284 0.0
C375 C 0.55883 0.25422 0.75429 0.0
O376 O 0.53842 0.26112 0.76166 0.0
H377 H 0.55531 0.31518 0.69099 0.0
H378 H 0.58414 0.25218 0.67803 0.0
N379 N 0.52134 0.24661 0.70023 0.0
N380 N 0.50373 0.21245 0.69375 0.0
C381 C 0.52434 0.2241 0.69804 0.0
C382 C 0.49813 0.2493 0.69708 0.0
C383 C 0.48716 0.22817 0.69319 0.0
C384 C 0.53805 0.30991 0.73467 0.0
O385 O 0.5599 0.30677 0.74095 0.0
H386 H 0.54096 0.21628 0.70112 0.0
H387 H 0.48964 0.26537 0.69873 0.0
O388 O 0.56392 0.25578 0.73314 0.0
H389 H 0.61158 0.28426 0.65831 0.0
H390 H 0.46839 0.22451 0.69101 0.0
Cu391 Cu 0.54163 0.51586 0.72714 0.0
N392 N 0.57232 0.50686 0.72295 0.0
N393 N 0.60165 0.48822 0.70685 0.0
C394 C 0.57812 0.49038 0.70813 0.0
C395 C 0.61107 0.50417 0.72147 0.0
C396 C 0.59285 0.51561 0.73149 0.0
O397 O 0.52277 0.48804 0.732 0.0
C398 C 0.51638 0.54437 0.69625 0.0
O399 O 0.50046 0.54657 0.7124 0.0
H400 H 0.56529 0.48093 0.69765 0.0
H401 H 0.59448 0.52968 0.74359 0.0
N402 N 0.53953 0.53444 0.75303 0.0
N403 N 0.53087 0.56395 0.77556 0.0
C404 C 0.53491 0.5567 0.7539 0.0
C405 C 0.53889 0.52737 0.77484 0.0
C406 C 0.53357 0.54551 0.78879 0.0
C407 C 0.51602 0.47466 0.71579 0.0
O408 O 0.51855 0.48146 0.69453 0.0
H409 H 0.53382 0.5671 0.73882 0.0
H410 H 0.54093 0.50996 0.78006 0.0
O411 O 0.5337 0.53179 0.69949 0.0
H412 H 0.62973 0.50761 0.72449 0.0
H413 H 0.53057 0.54471 0.80707 0.0
Cu414 Cu 0.9726 0.36346 0.00733 0.0
N415 N 0.96336 0.386 0.98756 0.0
N416 N 0.94202 0.41502 0.97667 0.0
C417 C 0.95034 0.40336 0.99446 0.0
C418 C 0.95022 0.40458 0.95774 0.0
C419 C 0.9634 0.38662 0.96452 0.0
O420 O 0.94713 0.34032 0.00653 0.0
C421 C 0.9812 0.37015 0.05606 0.0
O422 O 0.98242 0.34796 0.05801 0.0
H423 H 0.94565 0.40629 0.01219 0.0
H424 H 0.97129 0.37421 0.95344 0.0
N425 N 1.00059 0.35067 0.99784 0.0
N426 N 0.03547 0.33446 0.99929 0.0
C427 C 0.01958 0.34669 0.01081 0.0
C428 C 1.00464 0.34076 0.97742 0.0
C429 C 0.02614 0.33079 0.97824 0.0
C430 C 0.92725 0.34313 0.01602 0.0
O431 O 0.9247 0.36089 0.02955 0.0
H432 H 0.02116 0.35162 0.02867 0.0
H433 H 0.99238 0.34002 0.96325 0.0
O434 O 0.97692 0.37867 0.03669 0.0
H435 H 0.94631 0.40908 0.94027 0.0
H436 H 0.03403 0.32114 0.96455 0.0
Cu437 Cu 0.53662 0.64594 0.50621 0.0
N438 N 0.5438 0.62175 0.48692 0.0
N439 N 0.56455 0.59283 0.47408 0.0
C440 C 0.56539 0.61344 0.48454 0.0
C441 C 0.5415 0.58803 0.46952 0.0
C442 C 0.52873 0.60598 0.47742 0.0
O443 O 0.56296 0.66821 0.50471 0.0
C444 C 0.52959 0.64231 0.55537 0.0
O445 O 0.53088 0.66468 0.55673 0.0
H446 H 0.58114 0.62129 0.49223 0.0
H447 H 0.5097 0.6067 0.4778 0.0
N448 N 0.50915 0.6591 0.49637 0.0
N449 N 0.47547 0.67746 0.49637 0.0
C450 C 0.49251 0.66869 0.50932 0.0
C451 C 0.50242 0.66179 0.47454 0.0
C452 C 0.48166 0.6731 0.47446 0.0
C453 C 0.58242 0.66584 0.51504 0.0
O454 O 0.58417 0.64893 0.5294 0.0
H455 H 0.49322 0.6697 0.52781 0.0
H456 H 0.51207 0.65606 0.45971 0.0
O457 O 0.53188 0.63244 0.53606 0.0
H458 H 0.53431 0.57214 0.46226 0.0
H459 H 0.47186 0.67765 0.45943 0.0
Cu460 Cu 0.71342 0.45095 0.52484 0.0
N461 N 0.69517 0.42972 0.54142 0.0
N462 N 0.67446 0.41769 0.57195 0.0
C463 C 0.69328 0.43032 0.56437 0.0
C464 C 0.66433 0.40831 0.55292 0.0
C465 C 0.6772 0.41575 0.53408 0.0
O466 O 0.73473 0.46596 0.54679 0.0
C467 C 0.6977 0.49197 0.50524 0.0
O468 O 0.71939 0.50018 0.50864 0.0
H469 H 0.7039 0.44182 0.57514 0.0
H470 H 0.67255 0.41287 0.51629 0.0
N471 N 0.73051 0.43695 0.50199 0.0
N472 N 0.74528 0.43021 0.46729 0.0
C473 C 0.72862 0.44074 0.47944 0.0
C474 C 0.74889 0.42347 0.50429 0.0
C475 C 0.75813 0.41933 0.48284 0.0
C476 C 0.72727 0.48071 0.56083 0.0
O477 O 0.70602 0.48822 0.55789 0.0
H478 H 0.71611 0.45204 0.47223 0.0
H479 H 0.75561 0.41782 0.52049 0.0
O480 O 0.69203 0.47163 0.51102 0.0
H481 H 0.64783 0.39826 0.55249 0.0
H482 H 0.7734 0.40955 0.47902 0.0
Cu483 Cu 0.71887 0.47559 0.76345 0.0
N484 N 0.6892 0.46838 0.75117 0.0
N485 N 0.66113 0.44866 0.73159 0.0
C486 C 0.68442 0.45132 0.73611 0.0
C487 C 0.65085 0.46475 0.74441 0.0
C488 C 0.66827 0.47698 0.75642 0.0
O489 O 0.73984 0.48078 0.73772 0.0
C490 C 0.74342 0.44868 0.79625 0.0
O491 O 0.75902 0.46585 0.79832 0.0
H492 H 0.69767 0.44034 0.72949 0.0
H493 H 0.66579 0.49068 0.76861 0.0
N494 N 0.71814 0.50234 0.78082 0.0
N495 N 0.72286 0.52716 0.80992 0.0
C496 C 0.72211 0.50497 0.80342 0.0
C497 C 0.71592 0.52349 0.77274 0.0
C498 C 0.71879 0.53885 0.79065 0.0
C499 C 0.74759 0.46469 0.72554 0.0
O500 O 0.74427 0.44357 0.73248 0.0
H501 H 0.72479 0.4909 0.81476 0.0
H502 H 0.71328 0.52747 0.75491 0.0
O503 O 0.7265 0.44984 0.7821 0.0
H504 H 0.63209 0.4672 0.74544 0.0
H505 H 0.719 0.55724 0.78934 0.0
Cu506 Cu 0.79887 0.56712 0.02525 0.0
N507 N 0.81714 0.58769 0.04282 0.0
N508 N 0.83874 0.59834 0.07336 0.0
C509 C 0.82073 0.58479 0.06531 0.0
C510 C 0.84674 0.61044 0.05516 0.0
C511 C 0.83329 0.60384 0.03628 0.0
O512 O 0.77444 0.55549 0.04587 0.0
C513 C 0.81506 0.5259 1.00389 0.0
O514 O 0.79289 0.52041 0.99901 0.0
H515 H 0.81187 0.57131 0.07503 0.0
H516 H 0.83627 0.6091 0.01877 0.0
N517 N 0.7854 0.5812 1.00043 0.0
N518 N 0.77153 0.58574 0.96511 0.0
C519 C 0.78523 0.57345 0.97868 0.0
C520 C 0.77152 0.59917 1.00069 0.0
C521 C 0.76285 0.60199 0.97887 0.0
C522 C 0.77553 0.53688 0.05665 0.0
O523 O 0.79224 0.52293 0.05152 0.0
H524 H 0.79395 0.55833 0.97318 0.0
H525 H 0.76728 0.60893 0.01585 0.0
O526 O 0.82026 0.54432 0.0148 0.0
H527 H 0.86209 0.62213 0.05517 0.0
H528 H 0.75068 0.61463 0.97369 0.0
Cu529 Cu 0.77912 0.52791 0.26184 0.0
N530 N 0.81083 0.53484 0.25585 0.0
N531 N 0.84226 0.55334 0.24051 0.0
C532 C 0.81859 0.54975 0.23995 0.0
C533 C 0.84969 0.53972 0.25731 0.0
C534 C 0.83021 0.5283 0.26674 0.0
O535 O 0.76462 0.52413 0.23201 0.0
C536 C 0.76941 0.57299 0.27508 0.0
O537 O 0.77533 0.57759 0.25382 0.0
H538 H 0.80684 0.55859 0.22893 0.0
H539 H 0.83009 0.51665 0.28096 0.0
N540 N 0.7759 0.50037 0.27709 0.0
N541 N 0.77215 0.47511 0.30523 0.0
C542 C 0.77662 0.49719 0.29984 0.0
C543 C 0.77095 0.47967 0.26772 0.0
C544 C 0.76854 0.46401 0.28508 0.0
C545 C 0.74776 0.53409 0.22268 0.0
O546 O 0.73605 0.54912 0.23438 0.0
H547 H 0.77953 0.51093 0.31219 0.0
H548 H 0.76879 0.47632 0.24957 0.0
O549 O 0.76791 0.55227 0.28133 0.0
H550 H 0.86778 0.53847 0.26285 0.0
H551 H 0.76431 0.44593 0.28305 0.0
H552 H 0.19201 0.26163 0.12812 0.0
H553 H 0.22284 0.30152 0.18379 0.0
H554 H 0.15961 0.24862 0.15303 0.0
H555 H 0.1901 0.28966 0.20837 0.0
H556 H 0.13862 0.25154 0.2538 0.0
H557 H 0.17229 0.25886 0.22869 0.0
H558 H 0.1252 0.26337 0.17095 0.0
H559 H 0.09144 0.25517 0.19607 0.0
C560 C 0.19212 0.26729 0.14573 0.0
C561 C 0.21022 0.28227 0.15399 0.0
C562 C 0.17332 0.26016 0.15997 0.0
C563 C 0.17214 0.26809 0.18279 0.0
C564 C 0.19052 0.28283 0.19108 0.0
C565 C 0.20927 0.28979 0.17689 0.0
C566 C 0.1354 0.25407 0.23575 0.0
C567 C 0.11229 0.25295 0.22699 0.0
C568 C 0.15475 0.25835 0.22132 0.0
C569 C 0.15153 0.26187 0.19776 0.0
C570 C 0.12841 0.26045 0.18893 0.0
C571 C 0.10901 0.25595 0.20337 0.0
H572 H 0.06269 0.85598 0.37464 0.0
H573 H 1.00354 0.87802 0.41445 0.0
H574 H 0.05829 0.88774 0.34855 0.0
H575 H 0.99918 0.90994 0.38836 0.0
H576 H 0.9872 0.94935 0.31959 0.0
H577 H 0.98909 0.91721 0.34589 0.0
H578 H 0.0642 0.93078 0.35328 0.0
H579 H 0.06242 0.96277 0.32736 0.0
C580 C 0.04861 0.86747 0.37767 0.0
C581 C 0.03354 0.86457 0.39663 0.0
C582 C 0.0462 0.88575 0.36286 0.0
C583 C 0.02848 0.90137 0.36653 0.0
C584 C 0.01295 0.89812 0.3851 0.0
C585 C 0.01557 0.87999 0.4001 0.0
C586 C 1.00406 0.94557 0.32699 0.0
C587 C 0.02464 0.95861 0.32131 0.0
C588 C 1.00512 0.92721 0.34204 0.0
C589 C 0.02684 0.92138 0.35141 0.0
C590 C 0.04728 0.93467 0.34605 0.0
C591 C 0.04619 0.95312 0.3313 0.0
H592 H 0.28495 0.77056 0.68742 0.0
H593 H 0.32527 0.73124 0.63962 0.0
H594 H 0.3131 0.7634 0.71741 0.0
H595 H 0.35305 0.72319 0.66998 0.0
H596 H 0.41474 0.74695 0.71761 0.0
H597 H 0.38357 0.74444 0.68905 0.0
H598 H 0.33119 0.73893 0.74289 0.0
H599 H 0.36246 0.74244 0.77148 0.0
C600 C 0.29945 0.75979 0.68346 0.0
C601 C 0.30301 0.75172 0.66103 0.0
C602 C 0.31563 0.75558 0.70076 0.0
C603 C 0.33565 0.74296 0.69613 0.0
C604 C 0.3382 0.73346 0.67406 0.0
C605 C 0.32214 0.73788 0.65669 0.0
C606 C 0.39659 0.74491 0.72336 0.0
C607 C 0.39107 0.74518 0.74682 0.0
C608 C 0.37864 0.7433 0.70694 0.0
C609 C 0.35472 0.74163 0.71358 0.0
C610 C 0.34933 0.74067 0.7371 0.0
C611 C 0.36728 0.74256 0.75352 0.0
H612 H 0.49001 0.16793 0.85996 0.0
H613 H 0.48381 0.12171 0.917 0.0
H614 H 0.49908 0.13627 0.83473 0.0
H615 H 0.4941 0.09037 0.89203 0.0
H616 H 0.48099 0.0367 0.83481 0.0
H617 H 0.47637 0.06775 0.86203 0.0
H618 H 0.52817 0.10923 0.82492 0.0
H619 H 0.53231 0.07826 0.79717 0.0
C620 C 0.49065 0.1511 0.8672 0.0
C621 C 0.48598 0.14751 0.8906 0.0
C622 C 0.49622 0.13294 0.85275 0.0
C623 C 0.49735 0.1107 0.8613 0.0
C624 C 0.49312 0.10719 0.88476 0.0
C625 C 0.48746 0.12531 0.89919 0.0
C626 C 0.49166 0.05231 0.83257 0.0
C627 C 0.50692 0.055 0.81368 0.0
C628 C 0.48907 0.07014 0.8483 0.0
C629 C 0.50176 0.09112 0.84562 0.0
C630 C 0.5178 0.09347 0.82727 0.0
C631 C 0.52034 0.07562 0.81147 0.0
H632 H 0.19671 0.08315 0.33925 0.0
H633 H 0.15867 0.07456 0.27557 0.0
H634 H 0.17098 0.11344 0.3508 0.0
H635 H 0.13326 0.10512 0.28674 0.0
H636 H 0.0838 0.15504 0.31457 0.0
H637 H 0.10345 0.11901 0.31175 0.0
H638 H 0.1673 0.15209 0.33895 0.0
H639 H 0.14753 0.18788 0.34198 0.0
C640 C 0.18275 0.08771 0.32778 0.0
C641 C 0.17988 0.07675 0.30638 0.0
C642 C 0.16808 0.10509 0.33434 0.0
C643 C 0.1503 0.112 0.31955 0.0
C644 C 0.14664 0.10015 0.29866 0.0
C645 C 0.16122 0.08263 0.2922 0.0
C646 C 0.10194 0.15447 0.32023 0.0
C647 C 0.11423 0.17435 0.32822 0.0
C648 C 0.11321 0.13385 0.31859 0.0
C649 C 0.13706 0.13269 0.32482 0.0
C650 C 0.14886 0.15226 0.33419 0.0
C651 C 0.13754 0.17285 0.33593 0.0
H652 H 0.05455 0.89416 0.48858 0.0
H653 H 0.08233 0.864 0.54945 0.0
H654 H 0.07964 0.92828 0.49524 0.0
H655 H 0.1073 0.89849 0.55634 0.0
H656 H 0.17109 0.94868 0.53849 0.0
H657 H 0.14241 0.91635 0.53812 0.0
H658 H 0.08735 0.96122 0.51989 0.0
H659 H 0.11604 0.99343 0.51982 0.0
C660 C 0.0657 0.89497 0.50364 0.0
C661 C 0.0665 0.87626 0.51841 0.0
C662 C 0.08004 0.91463 0.50753 0.0
C663 C 0.09562 0.91611 0.52627 0.0
C664 C 0.09572 0.89778 0.54159 0.0
C665 C 0.08126 0.87809 0.53774 0.0
C666 C 0.15283 0.95169 0.53462 0.0
C667 C 0.14595 0.97363 0.52895 0.0
C668 C 0.13634 0.93316 0.53456 0.0
C669 C 0.11258 0.93615 0.52883 0.0
C670 C 0.10557 0.95825 0.52402 0.0
C671 C 0.12203 0.97674 0.52408 0.0
H672 H 0.32419 0.94383 0.84044 0.0
H673 H 0.36929 0.93931 0.78092 0.0
H674 H 0.34215 0.91069 0.85655 0.0
H675 H 0.3874 0.90663 0.79721 0.0
H676 H 0.4248 0.85397 0.83457 0.0
H677 H 0.41163 0.89237 0.82813 0.0
H678 H 0.34047 0.86981 0.84621 0.0
H679 H 0.35366 0.83151 0.8527 0.0
C680 C 0.33794 0.93588 0.83078 0.0
C681 C 0.34488 0.94408 0.8091 0.0
C682 C 0.34831 0.91694 0.84011 0.0
C683 C 0.36607 0.90592 0.82811 0.0
C684 C 0.37392 0.91485 0.80704 0.0
C685 C 0.36344 0.93366 0.79764 0.0
C686 C 0.40641 0.85732 0.83748 0.0
C687 C 0.39019 0.8396 0.84376 0.0
C688 C 0.39888 0.87929 0.83378 0.0
C689 C 0.37495 0.88403 0.83627 0.0
C690 C 0.35906 0.86676 0.84426 0.0
C691 C 0.36662 0.84477 0.84799 0.0
H692 H 0.33763 0.07413 0.0359 0.0
H693 H 0.39104 0.02767 0.0158 0.0
H694 H 0.36703 0.10587 0.0346 0.0
H695 H 0.42044 0.05918 0.0151 0.0
H696 H 0.45403 0.12379 0.98202 0.0
H697 H 0.42826 0.09068 0.99002 0.0
H698 H 0.40293 0.12395 0.05109 0.0
H699 H 0.42854 0.15755 0.04275 0.0
C700 C 0.35569 0.07063 0.03155 0.0
C701 C 0.3619 0.04842 0.02564 0.0
C702 C 0.3726 0.08881 0.03096 0.0
C703 C 0.39608 0.08511 0.02454 0.0
C704 C 0.40244 0.06271 0.01967 0.0
C705 C 0.38556 0.04462 0.02014 0.0
C706 C 0.44325 0.12398 0.99735 0.0
C707 C 0.44326 0.14339 0.01166 0.0
C708 C 0.42852 0.10488 1.00202 0.0
C709 C 0.4134 0.10465 0.02115 0.0
C710 C 0.41413 0.12369 0.03605 0.0
C711 C 0.42898 0.14285 0.03139 0.0
H712 H 0.09171 0.07746 0.32464 0.0
H713 H 0.14551 0.02788 0.32413 0.0
H714 H 0.105 0.09112 0.3623 0.0
H715 H 0.1584 0.04089 0.362 0.0
H716 H 0.18331 0.0719 0.42789 0.0
H717 H 0.17574 0.06969 0.38674 0.0
H718 H 0.10116 0.07562 0.39975 0.0
H719 H 0.10889 0.07833 0.44064 0.0
C720 C 0.10653 0.06965 0.33255 0.0
C721 C 0.11741 0.05146 0.32159 0.0
C722 C 0.11407 0.07736 0.35415 0.0
C723 C 0.13249 0.06684 0.36542 0.0
C724 C 0.14427 0.04953 0.35382 0.0
C725 C 0.13688 0.04201 0.33209 0.0
C726 C 0.16536 0.07306 0.42185 0.0
C727 C 0.14665 0.07504 0.4375 0.0
C728 C 0.16101 0.07173 0.39831 0.0
C729 C 0.13781 0.07216 0.3899 0.0
C730 C 0.1193 0.0755 0.40552 0.0
C731 C 0.12369 0.07701 0.42904 0.0
H732 H 0.24982 0.85301 0.64291 0.0
H733 H 0.32165 0.85663 0.66752 0.0
H734 H 0.23757 0.87513 0.67651 0.0
H735 H 0.30952 0.87855 0.70089 0.0
H736 H 0.27711 0.89546 0.7689 0.0
H737 H 0.28325 0.87057 0.73597 0.0
H738 H 0.24627 0.91622 0.69283 0.0
H739 H 0.24017 0.94139 0.72578 0.0
C740 C 0.26294 0.85856 0.65548 0.0
C741 C 0.2867 0.85323 0.65255 0.0
C742 C 0.25597 0.87122 0.67462 0.0
C743 C 0.27257 0.87835 0.69137 0.0
C744 C 0.29629 0.87303 0.68838 0.0
C745 C 0.3033 0.86073 0.66914 0.0
C746 C 0.26981 0.90002 0.75254 0.0
C747 C 0.25837 0.92058 0.74995 0.0
C748 C 0.2735 0.88581 0.73364 0.0
C749 C 0.26556 0.89168 0.71181 0.0
C750 C 0.25258 0.91132 0.70948 0.0
C751 C 0.24911 0.92571 0.72836 0.0
H752 H 0.36675 0.92156 0.9243 0.0
H753 H 0.36242 0.99475 0.92871 0.0
H754 H 0.37799 0.92477 0.88395 0.0
H755 H 0.37354 0.99797 0.88884 0.0
H756 H 0.3797 0.9993 0.81344 0.0
H757 H 0.36118 0.99066 0.85025 0.0
H758 H 0.41104 0.9384 0.8614 0.0
H759 H 0.42885 0.9465 0.82423 0.0
C760 C 0.36818 0.9383 0.9167 0.0
C761 C 0.36359 0.95787 0.92977 0.0
C762 C 0.37453 0.94015 0.89356 0.0
C763 C 0.37644 0.96163 0.88305 0.0
C764 C 0.37164 0.9811 0.89613 0.0
C765 C 0.36531 0.97925 0.91913 0.0
C766 C 0.38634 0.98565 0.82352 0.0
C767 C 0.40599 0.97385 0.81613 0.0
C768 C 0.37594 0.98087 0.84477 0.0
C769 C 0.38498 0.9642 0.85906 0.0
C770 C 0.40362 0.95138 0.85092 0.0
C771 C 0.414 0.95616 0.82971 0.0
H772 H 0.30362 0.0901 0.21434 0.0
H773 H 0.26891 0.12366 0.27045 0.0
H774 H 0.293 0.12063 0.18878 0.0
H775 H 0.2587 0.15441 0.24482 0.0
H776 H 0.25926 0.21292 0.19013 0.0
H777 H 0.27775 0.1866 0.21655 0.0
H778 H 0.24927 0.12938 0.17671 0.0
H779 H 0.23054 0.15552 0.15085 0.0
C780 C 0.29433 0.10429 0.2214 0.0
C781 C 0.28697 0.10437 0.24441 0.0
C782 C 0.28816 0.1217 0.20671 0.0
C783 C 0.27491 0.13975 0.21482 0.0
C784 C 0.26902 0.14073 0.23817 0.0
C785 C 0.27481 0.1231 0.2528 0.0
C786 C 0.25717 0.19471 0.18706 0.0
C787 C 0.2434 0.18617 0.16861 0.0
C788 C 0.26764 0.17972 0.20212 0.0
C789 C 0.26503 0.156 0.19854 0.0
C790 C 0.25176 0.14758 0.17973 0.0
C791 C 0.24089 0.16249 0.16507 0.0
H792 H 0.76972 0.44419 0.8353 0.0
H793 H 0.71747 0.40859 0.79264 0.0
H794 H 0.76749 0.41255 0.86234 0.0
H795 H 0.71509 0.37735 0.8196 0.0
H796 H 0.7319 0.31562 0.86052 0.0
H797 H 0.73856 0.34675 0.83387 0.0
H798 H 0.73833 0.39522 0.89005 0.0
H799 H 0.73194 0.36388 0.917 0.0
C800 C 0.75795 0.42956 0.83157 0.0
C801 C 0.74379 0.42892 0.8118 0.0
C802 C 0.75653 0.41154 0.84715 0.0
C803 C 0.7411 0.39245 0.84313 0.0
C804 C 0.72736 0.39166 0.8231 0.0
C805 C 0.72865 0.40966 0.80768 0.0
C806 C 0.73334 0.33288 0.8673 0.0
C807 C 0.73119 0.33724 0.89094 0.0
C808 C 0.73709 0.35075 0.85196 0.0
C809 C 0.73882 0.37348 0.8598 0.0
C810 C 0.73726 0.37788 0.88349 0.0
C811 C 0.73343 0.35993 0.8989 0.0
H812 H 0.9348 0.57539 0.18634 0.0
H813 H 0.87672 0.52547 0.19092 0.0
H814 H 0.9144 0.59475 0.15598 0.0
H815 H 0.8565 0.54432 0.16018 0.0
H816 H 0.81754 0.58878 0.11371 0.0
H817 H 0.83664 0.57701 0.14878 0.0
H818 H 0.90491 0.58867 0.11675 0.0
H819 H 0.8857 0.6009 0.08203 0.0
C820 C 0.91764 0.56858 0.18081 0.0
C821 C 0.90741 0.54884 0.19088 0.0
C822 C 0.906 0.57958 0.16334 0.0
C823 C 0.88388 0.57102 0.15543 0.0
C824 C 0.87337 0.55162 0.166 0.0
C825 C 0.88493 0.54076 0.18364 0.0
C826 C 0.83664 0.5892 0.11441 0.0
C827 C 0.85012 0.5956 0.09511 0.0
C828 C 0.8476 0.58231 0.13441 0.0
C829 C 0.87233 0.58149 0.1355 0.0
C830 C 0.88585 0.58925 0.11664 0.0
C831 C 0.87486 0.59631 0.09669 0.0
H832 H 0.82723 0.68567 0.35111 0.0
H833 H 0.76455 0.67054 0.39149 0.0
H834 H 0.81604 0.65465 0.32492 0.0
H835 H 0.7534 0.63908 0.36498 0.0
H836 H 0.76221 0.56985 0.32159 0.0
H837 H 0.76855 0.60029 0.35029 0.0
H838 H 0.78276 0.64872 0.29635 0.0
H839 H 0.77645 0.61858 0.26777 0.0
C840 C 0.81114 0.67561 0.35456 0.0
C841 C 0.79672 0.68073 0.37337 0.0
C842 C 0.80464 0.6579 0.3394 0.0
C843 C 0.78364 0.64469 0.34269 0.0
C844 C 0.76965 0.64906 0.36202 0.0
C845 C 0.77605 0.66704 0.37717 0.0
C846 C 0.76624 0.58708 0.31584 0.0
C847 C 0.76909 0.59171 0.29236 0.0
C848 C 0.76985 0.60449 0.3323 0.0
C849 C 0.77655 0.62677 0.32555 0.0
C850 C 0.77805 0.6316 0.30206 0.0
C851 C 0.77429 0.61432 0.28567 0.0
H852 H 0.88528 0.57276 0.25176 0.0
H853 H 0.83014 0.57349 0.20076 0.0
H854 H 0.90552 0.60499 0.23346 0.0
H855 H 0.85032 0.60588 0.1826 0.0
H856 H 0.94539 0.65512 0.18982 0.0
H857 H 0.92678 0.61868 0.2011 0.0
H858 H 0.85806 0.64539 0.18946 0.0
H859 H 0.87687 0.68158 0.17767 0.0
C860 C 0.87759 0.5795 0.23647 0.0
C861 C 0.85578 0.57064 0.22808 0.0
C862 C 0.88925 0.59807 0.22591 0.0
C863 C 0.87944 0.60824 0.20663 0.0
C864 C 0.8581 0.59885 0.19773 0.0
C865 C 0.8465 0.58023 0.20821 0.0
C866 C 0.92631 0.653 0.18937 0.0
C867 C 0.91254 0.67121 0.1831 0.0
C868 C 0.91563 0.6322 0.19597 0.0
C869 C 0.89089 0.62918 0.19661 0.0
C870 C 0.87716 0.647 0.18902 0.0
C871 C 0.8879 0.66777 0.18224 0.0
H872 H 0.63254 0.3169 0.67418 0.0
H873 H 0.56537 0.34784 0.66714 0.0
H874 H 0.65106 0.35384 0.68431 0.0
H875 H 0.58393 0.38495 0.67736 0.0
H876 H 0.61656 0.43043 0.73628 0.0
H877 H 0.59866 0.39816 0.71515 0.0
H878 H 0.66205 0.39375 0.67446 0.0
H879 H 0.67995 0.42623 0.69557 0.0
C880 C 0.62188 0.3317 0.67395 0.0
C881 C 0.59738 0.32936 0.67022 0.0
C882 C 0.6325 0.35293 0.67985 0.0
C883 C 0.61883 0.37221 0.68212 0.0
C884 C 0.5948 0.37027 0.67627 0.0
C885 C 0.58421 0.34908 0.67031 0.0
C886 C 0.62657 0.42286 0.72261 0.0
C887 C 0.64979 0.43079 0.71782 0.0
C888 C 0.61628 0.40436 0.71043 0.0
C889 C 0.62898 0.39336 0.69314 0.0
C890 C 0.65195 0.40167 0.68789 0.0
C891 C 0.66222 0.42022 0.70005 0.0
H892 H 0.52636 0.59592 0.55754 0.0
H893 H 0.52356 0.65655 0.60001 0.0
H894 H 0.52081 0.57228 0.59114 0.0
H895 H 0.51829 0.63263 0.63391 0.0
H896 H 0.48868 0.58032 0.68684 0.0
H897 H 0.49021 0.6043 0.65273 0.0
H898 H 0.54482 0.56356 0.62424 0.0
H899 H 0.54314 0.5396 0.65789 0.0
C900 C 0.52457 0.60426 0.57406 0.0
C901 C 0.52561 0.62819 0.57607 0.0
C902 C 0.52146 0.59065 0.59335 0.0
C903 C 0.51928 0.60056 0.61522 0.0
C904 C 0.51975 0.62449 0.61726 0.0
C905 C 0.52293 0.63818 0.59787 0.0
C906 C 0.50081 0.57636 0.67315 0.0
C907 C 0.51575 0.55802 0.67507 0.0
C908 C 0.50182 0.59022 0.65373 0.0
C909 C 0.51763 0.58583 0.63578 0.0
C910 C 0.53224 0.56725 0.63761 0.0
C911 C 0.53134 0.55355 0.65699 0.0
H912 H 0.64417 0.22363 0.87387 0.0
H913 H 0.69329 0.23613 0.81849 0.0
H914 H 0.6112 0.2247 0.84711 0.0
H915 H 0.66058 0.23829 0.79179 0.0
H916 H 0.59826 0.23071 0.74488 0.0
H917 H 0.6292 0.22076 0.77137 0.0
H918 H 0.59135 0.25203 0.82695 0.0
H919 H 0.55999 0.26088 0.80064 0.0
C920 C 0.64784 0.22643 0.85589 0.0
C921 C 0.67122 0.2298 0.84824 0.0
C922 C 0.62899 0.22726 0.84055 0.0
C923 C 0.63308 0.2319 0.81723 0.0
C924 C 0.65661 0.23435 0.80949 0.0
C925 C 0.67545 0.23315 0.8248 0.0
C926 C 0.59646 0.23521 0.76283 0.0
C927 C 0.57673 0.24667 0.77065 0.0
C928 C 0.61429 0.22963 0.77803 0.0
C929 C 0.61301 0.23571 0.80138 0.0
C930 C 0.59289 0.24668 0.80923 0.0
C931 C 0.57491 0.25193 0.79409 0.0
H932 H 0.03067 0.44196 0.18073 0.0
H933 H 0.97249 0.47953 0.1555 0.0
H934 H 0.02634 0.41561 0.14807 0.0
H935 H 0.96791 0.4531 0.12337 0.0
H936 H 0.98071 0.41652 0.05658 0.0
H937 H 0.9879 0.44252 0.08864 0.0
H938 H 0.99839 0.38546 0.13297 0.0
H939 H 0.99166 0.35918 0.10051 0.0
C940 C 0.01709 0.4447 0.16817 0.0
C941 C 1.00199 0.46291 0.17069 0.0
C942 C 0.01446 0.42947 0.14959 0.0
C943 C 0.99677 0.43223 0.13312 0.0
C944 C 0.98193 0.45063 0.13555 0.0
C945 C 0.98451 0.46577 0.15406 0.0
C946 C 0.98456 0.4094 0.07312 0.0
C947 C 0.98548 0.3857 0.07598 0.0
C948 C 0.98859 0.42437 0.09156 0.0
C949 C 0.99358 0.41609 0.11341 0.0
C950 C 0.9948 0.3924 0.1163 0.0
C951 C 0.99076 0.37733 0.09775 0.0
H952 H 0.85447 0.74781 0.35588 0.0
H953 H 0.81921 0.80364 0.32555 0.0
H954 H 0.88353 0.74919 0.32546 0.0
H955 H 0.84887 0.80549 0.29503 0.0
H956 H 0.8856 0.77913 0.22975 0.0
H957 H 0.85938 0.78404 0.26222 0.0
H958 H 0.916 0.76902 0.30838 0.0
H959 H 0.94197 0.76317 0.27571 0.0
C960 C 0.85327 0.76083 0.34302 0.0
C961 C 0.83452 0.7757 0.3432 0.0
C962 C 0.87004 0.76165 0.32549 0.0
C963 C 0.86867 0.77747 0.30769 0.0
C964 C 0.85031 0.79284 0.30825 0.0
C965 C 0.83336 0.79187 0.32575 0.0
C966 C 0.89255 0.77708 0.24683 0.0
C967 C 0.91582 0.77051 0.25012 0.0
C968 C 0.87752 0.78007 0.26552 0.0
C969 C 0.88545 0.77678 0.28801 0.0
C970 C 0.9091 0.77124 0.29131 0.0
C971 C 0.92406 0.76801 0.27259 0.0
H972 H 0.58447 0.44844 0.68792 0.0
H973 H 0.64626 0.49438 0.6901 0.0
H974 H 0.60256 0.4262 0.65787 0.0
H975 H 0.66438 0.47214 0.65999 0.0
H976 H 0.69759 0.42377 0.61215 0.0
H977 H 0.68078 0.43686 0.64824 0.0
H978 H 0.6111 0.43143 0.61816 0.0
H979 H 0.62789 0.41813 0.58241 0.0
C980 C 0.60189 0.45388 0.68194 0.0
C981 C 0.61368 0.47355 0.69113 0.0
C982 C 0.61228 0.44108 0.6647 0.0
C983 C 0.63478 0.44752 0.65625 0.0
C984 C 0.64709 0.46652 0.66622 0.0
C985 C 0.63667 0.47935 0.68349 0.0
C986 C 0.67862 0.42493 0.61348 0.0
C987 C 0.6641 0.42016 0.59435 0.0
C988 C 0.66901 0.43257 0.63408 0.0
C989 C 0.64464 0.43564 0.63598 0.0
C990 C 0.62993 0.42915 0.6174 0.0
C991 C 0.63955 0.42144 0.59684 0.0
H992 H 0.93811 0.44592 0.01088 0.0
H993 H 0.90778 0.42417 0.94601 0.0
H994 H 0.90753 0.47326 0.01571 0.0
H995 H 0.87743 0.45219 0.95047 0.0
H996 H 0.81094 0.48352 0.98344 0.0
H997 H 0.84259 0.45784 0.97481 0.0
H998 H 0.89396 0.50843 1.00056 0.0
H999 H 0.86249 0.53379 0.00958 0.0
C1000 C 0.925 0.44713 0.99755 0.0
C1001 C 0.92532 0.43278 0.97814 0.0
C1002 C 0.90757 0.46297 1.0002 0.0
C1003 C 0.88998 0.46491 0.98349 0.0
C1004 C 0.89059 0.45095 0.96377 0.0
C1005 C 0.90814 0.4351 0.96108 0.0
C1006 C 0.829 0.48918 0.98716 0.0
C1007 C 0.83413 0.51062 0.99742 0.0
C1008 C 0.84716 0.47453 0.98207 0.0
C1009 C 0.8708 0.48103 0.98714 0.0
C1010 C 0.87592 0.50273 0.9968 0.0
C1011 C 0.85784 0.51731 1.0019 0.0
H1012 H 0.65643 0.4786 0.48413 0.0
H1013 H 0.69751 0.53846 0.50657 0.0
H1014 H 0.6249 0.50246 0.47197 0.0
H1015 H 0.66553 0.56235 0.4957 0.0
H1016 H 0.61012 0.60338 0.46396 0.0
H1017 H 0.64332 0.57858 0.4673 0.0
H1018 H 0.59499 0.52321 0.48771 0.0
H1019 H 0.56203 0.5478 0.48315 0.0
C1020 C 0.65868 0.4969 0.48649 0.0
C1021 C 0.67937 0.50667 0.49641 0.0
C1022 C 0.64052 0.51062 0.47966 0.0
C1023 C 0.64239 0.53442 0.48302 0.0
C1024 C 0.66346 0.54418 0.49244 0.0
C1025 C 0.68181 0.53047 0.49885 0.0
C1026 C 0.60673 0.58576 0.46874 0.0
C1027 C 0.58358 0.57747 0.47324 0.0
C1028 C 0.62572 0.57157 0.47089 0.0
C1029 C 0.62203 0.54885 0.47806 0.0
C1030 C 0.59866 0.54042 0.48178 0.0
C1031 C 0.57967 0.55452 0.47922 0.0
H1032 H 0.01124 0.07445 0.32461 0.0
H1033 H 0.00956 0.06615 0.25098 0.0
H1034 H 0.00692 0.11517 0.32056 0.0
H1035 H 1.0046 0.10694 0.24694 0.0
H1036 H 0.99599 0.18796 0.3106 0.0
H1037 H 0.98495 0.14732 0.3093 0.0
H1038 H 0.03256 0.13866 0.25229 0.0
H1039 H 0.04309 0.17922 0.25322 0.0
C1040 C 0.00921 0.08119 0.30757 0.0
C1041 C 0.01119 0.0671 0.28812 0.0
C1042 C 0.0066 0.1046 0.30523 0.0
C1043 C 0.00575 0.11442 0.28338 0.0
C1044 C 0.00568 0.09999 0.26399 0.0
C1045 C 0.0084 0.07659 0.26633 0.0
C1046 C 1.00361 0.17747 0.2974 0.0
C1047 C 0.02071 0.18677 0.28225 0.0
C1048 C 0.99738 0.15415 0.29675 0.0
C1049 C 0.00815 0.13963 0.28097 0.0
C1050 C 0.02375 0.1493 0.26459 0.0
C1051 C 0.0299 0.17263 0.26518 0.0
H1052 H 0.21631 0.79705 0.58274 0.0
H1053 H 0.22211 0.73222 0.54783 0.0
H1054 H 0.17826 0.80175 0.56441 0.0
H1055 H 0.18408 0.73706 0.52939 0.0
H1056 H 0.10442 0.74459 0.51829 0.0
H1057 H 0.14136 0.73887 0.53806 0.0
H1058 H 0.16413 0.80874 0.52508 0.0
H1059 H 0.12737 0.81448 0.50495 0.0
C1060 C 0.20941 0.78371 0.5713 0.0
C1061 C 0.22232 0.76427 0.56671 0.0
C1062 C 0.18768 0.7865 0.56066 0.0
C1063 C 0.17824 0.76987 0.54531 0.0
C1064 C 0.1908 0.75012 0.54124 0.0
C1065 C 0.21264 0.74738 0.55176 0.0
C1066 C 0.11733 0.75871 0.51934 0.0
C1067 C 0.11274 0.78003 0.50989 0.0
C1068 C 0.13853 0.75541 0.53078 0.0
C1069 C 0.15565 0.77336 0.53321 0.0
C1070 C 0.15113 0.79466 0.52382 0.0
C1071 C 0.12999 0.79794 0.51225 0.0
H1072 H 0.50756 0.93601 0.74693 0.0
H1073 H 0.50292 0.92871 0.8204 0.0
H1074 H 0.50132 0.89487 0.74213 0.0
H1075 H 0.49631 0.8877 0.81555 0.0
H1076 H 0.48785 0.81321 0.80276 0.0
H1077 H 0.50922 0.85029 0.8027 0.0
H1078 H 0.46475 0.87193 0.74781 0.0
H1079 H 0.44367 0.83492 0.74764 0.0
C1080 C 0.50576 0.9256 0.76209 0.0
C1081 C 0.5053 0.93569 0.78405 0.0
C1082 C 0.50208 0.90203 0.75931 0.0
C1083 C 0.4979 0.88806 0.77841 0.0
C1084 C 0.49958 0.89793 0.80046 0.0
C1085 C 0.50329 0.92151 0.80325 0.0
C1086 C 0.48306 0.82567 0.79026 0.0
C1087 C 0.46383 0.82123 0.77539 0.0
C1088 C 0.49522 0.84696 0.79034 0.0
C1089 C 0.48853 0.86415 0.77544 0.0
C1090 C 0.47052 0.85904 0.75939 0.0
C1091 C 0.45831 0.83783 0.75938 0.0
H1092 H 0.29614 0.22256 0.07838 0.0
H1093 H 0.28832 0.28542 0.04193 0.0
H1094 H 0.33222 0.21596 0.05679 0.0
H1095 H 0.32407 0.27866 0.02023 0.0
H1096 H 0.40274 0.27234 0.00533 0.0
H1097 H 0.36656 0.27821 0.02651 0.0
H1098 H 0.34576 0.20695 0.01771 0.0
H1099 H 0.38195 0.20103 0.99629 0.0
C1100 C 0.30206 0.23493 0.06574 0.0
C1101 C 0.28936 0.25456 0.06195 0.0
C1102 C 0.32266 0.23108 0.05326 0.0
C1103 C 0.33108 0.24681 0.03681 0.0
C1104 C 0.31828 0.26635 0.03299 0.0
C1105 C 0.29769 0.27016 0.04537 0.0
C1106 C 0.3904 0.25793 0.00759 0.0
C1107 C 0.39539 0.2362 0.99895 0.0
C1108 C 0.3696 0.26131 0.01982 0.0
C1109 C 0.35322 0.24306 0.02381 0.0
C1110 C 0.35815 0.22132 0.01521 0.0
C1111 C 0.37894 0.21794 1.0029 0.0
H1112 H 0.28682 0.03319 0.20063 0.0
H1113 H 0.28607 0.96243 0.22027 0.0
H1114 H 0.29431 0.0222 0.16106 0.0
H1115 H 0.29441 0.95148 0.18074 0.0
H1116 H 0.28516 0.94015 0.10269 0.0
H1117 H 0.27645 0.94996 0.14244 0.0
H1118 H 0.32702 0.00721 0.1391 0.0
H1119 H 0.33575 0.9974 0.09948 0.0
C1120 C 0.28805 0.01527 0.1965 0.0
C1121 C 0.28586 0.99869 0.21365 0.0
C1122 C 0.29266 0.00899 0.17385 0.0
C1123 C 0.29515 0.98598 0.1678 0.0
C1124 C 0.29247 0.96934 0.18483 0.0
C1125 C 0.28792 0.97563 0.20752 0.0
C1126 C 0.29463 0.95465 0.11051 0.0
C1127 C 0.31105 0.96807 0.09783 0.0
C1128 C 0.2896 0.9603 0.13329 0.0
C1129 C 0.30088 0.97949 0.14385 0.0
C1130 C 0.31765 0.99261 0.13131 0.0
C1131 C 0.32268 0.98696 0.10859 0.0
H1132 H 0.24519 0.04428 0.47878 0.0
H1133 H 0.20745 0.99141 0.43955 0.0
H1134 H 0.26969 0.05351 0.44549 0.0
H1135 H 0.23178 1.00081 0.4063 0.0
H1136 H 0.28153 0.01701 0.34983 0.0
H1137 H 0.27094 1.00336 0.38793 0.0
H1138 H 0.25882 0.07239 0.40975 0.0
H1139 H 0.26962 0.08611 0.3718 0.0
C1140 C 0.24247 0.03424 0.46324 0.0
C1141 C 0.22408 0.01732 0.46172 0.0
C1142 C 0.25644 0.03965 0.44414 0.0
C1143 C 0.25247 0.02813 0.42318 0.0
C1144 C 0.23541 0.00994 0.42223 0.0
C1145 C 0.22137 1.0046 0.44129 0.0
C1146 C 0.27718 0.02937 0.36291 0.0
C1147 C 0.27605 0.05264 0.35765 0.0
C1148 C 0.27101 0.0215 0.38471 0.0
C1149 C 0.26372 0.03672 0.40175 0.0
C1150 C 0.26449 0.0602 0.39705 0.0
C1151 C 0.27061 0.06808 0.37522 0.0
H1152 H 0.21856 0.05461 0.72177 0.0
H1153 H 0.27757 0.01932 0.6943 0.0
H1154 H 0.20515 0.06214 0.68277 0.0
H1155 H 0.26448 0.02733 0.65524 0.0
H1156 H 0.24401 0.07469 0.59326 0.0
H1157 H 0.25768 0.06787 0.63231 0.0
H1158 H 0.19143 0.03195 0.64744 0.0
H1159 H 0.17797 0.03833 0.60814 0.0
C1160 C 0.2288 0.04877 0.70735 0.0
C1161 C 0.24912 0.03647 0.7109 0.0
C1162 C 0.22106 0.05291 0.68515 0.0
C1163 C 0.23383 0.04527 0.66617 0.0
C1164 C 0.25443 0.03342 0.66969 0.0
C1165 C 0.26185 0.02881 0.6919 0.0
C1166 C 0.23238 0.06545 0.605 0.0
C1167 C 0.20994 0.05707 0.59785 0.0
C1168 C 0.24023 0.06145 0.62719 0.0
C1169 C 0.22554 0.04946 0.64272 0.0
C1170 C 0.20298 0.04133 0.63571 0.0
C1171 C 0.19535 0.04487 0.61333 0.0
H1172 H 0.22225 0.95467 0.86072 0.0
H1173 H 0.26287 0.01659 0.84471 0.0
H1174 H 0.22567 0.96401 0.90149 0.0
H1175 H 0.26755 0.02515 0.88487 0.0
H1176 H 0.27742 0.04041 0.95667 0.0
H1177 H 0.2557 0.03559 0.9208 0.0
H1178 H 0.25507 0.96233 0.92862 0.0
H1179 H 0.27505 0.96737 0.965 0.0
C1180 C 0.23166 0.97038 0.86587 0.0
C1181 C 0.24261 0.98465 0.84945 0.0
C1182 C 0.2338 0.97568 0.88927 0.0
C1183 C 0.24725 0.99519 0.89673 0.0
C1184 C 0.25678 0.01015 0.8801 0.0
C1185 C 0.25431 1.00506 0.85684 0.0
C1186 C 0.2719 0.02335 0.95099 0.0
C1187 C 0.2782 1.00429 0.96346 0.0
C1188 C 0.25967 0.02051 0.9303 0.0
C1189 C 0.25417 0.99852 0.92127 0.0
C1190 C 0.25875 0.97956 0.93485 0.0
C1191 C 0.27041 0.98244 0.9558 0.0
H1192 H 0.05462 0.29482 0.98686 0.0
H1193 H 0.0642 0.35293 0.03238 0.0
H1194 H 0.08964 0.27856 1.00252 0.0
H1195 H 0.09982 0.33695 0.04783 0.0
H1196 H 0.14747 0.28851 0.08666 0.0
H1197 H 0.11343 0.30715 0.07107 0.0
H1198 H 0.1311 0.28269 1.00333 0.0
H1199 H 0.1645 0.2636 0.01914 0.0
C1200 C 0.06446 0.30432 0.99998 0.0
C1201 C 0.05667 0.32523 0.00828 0.0
C1202 C 0.08464 0.29501 0.00897 0.0
C1203 C 0.09779 0.30647 0.02638 0.0
C1204 C 0.09003 0.32747 0.03466 0.0
C1205 C 0.06965 0.33669 0.02577 0.0
C1206 C 0.14412 0.28735 0.06843 0.0
C1207 C 0.15848 0.27442 0.05415 0.0
C1208 C 0.12465 0.29806 0.05944 0.0
C1209 C 0.11927 0.29627 0.03592 0.0
C1210 C 0.13424 0.28397 0.02159 0.0
C1211 C 0.15347 0.27308 0.03062 0.0
H1212 H 0.64517 0.27375 0.93604 0.0
H1213 H 0.67273 0.22583 0.98357 0.0
H1214 H 0.60499 0.26103 0.94646 0.0
H1215 H 0.63267 0.21349 0.99432 0.0
H1216 H 0.56252 0.17363 0.97751 0.0
H1217 H 0.60223 0.19083 0.97464 0.0
H1218 H 0.57394 0.25791 0.97553 0.0
H1219 H 0.53397 0.2406 0.97801 0.0
C1220 C 0.64267 0.26094 0.94914 0.0
C1221 C 0.66216 0.25062 0.95877 0.0
C1222 C 0.61961 0.25366 0.95516 0.0
C1223 C 0.61558 0.23597 0.97099 0.0
C1224 C 0.63513 0.22678 0.9817 0.0
C1225 C 0.65811 0.23397 0.97563 0.0
C1226 C 0.56472 0.19205 0.97739 0.0
C1227 C 0.54501 0.2057 0.97787 0.0
C1228 C 0.58756 0.20196 0.97588 0.0
C1229 C 0.59132 0.22579 0.97481 0.0
C1230 C 0.57165 0.2395 0.97606 0.0
C1231 C 0.54875 0.22957 0.97764 0.0
H1232 H 0.05782 0.3279 0.26904 0.0
H1233 H 1.00395 0.32055 0.32115 0.0
H1234 H 0.04484 0.36588 0.26054 0.0
H1235 H 0.99072 0.35839 0.3125 0.0
H1236 H 0.99187 0.43645 0.3087 0.0
H1237 H 1.00334 0.39788 0.31661 0.0
H1238 H 0.01294 0.38562 0.24415 0.0
H1239 H 1.00269 0.42444 0.23634 0.0
C1240 C 0.04301 0.33428 0.27848 0.0
C1241 C 0.03198 0.32123 0.29582 0.0
C1242 C 0.03553 0.35605 0.2736 0.0
C1243 C 0.01673 0.36524 0.28586 0.0
C1244 C 0.00551 0.35203 0.303 0.0
C1245 C 0.01308 0.33032 0.30795 0.0
C1246 C 0.99653 0.4256 0.29446 0.0
C1247 C 0.99638 0.43371 0.2719 0.0
C1248 C 1.00286 0.40335 0.29897 0.0
C1249 C 0.00913 0.38863 0.28101 0.0
C1250 C 0.00854 0.39659 0.25842 0.0
C1251 C 1.00229 0.41883 0.25392 0.0
H1252 H 0.9769 0.77638 0.49106 0.0
H1253 H 0.94561 0.83643 0.46465 0.0
H1254 H 0.93944 0.75475 0.48579 0.0
H1255 H 0.90845 0.81475 0.45892 0.0
H1256 H 0.83949 0.7749 0.46219 0.0
H1257 H 0.87503 0.7952 0.47649 0.0
H1258 H 0.91684 0.73964 0.45351 0.0
H1259 H 0.88123 0.7191 0.4397 0.0
C1260 C 0.96198 0.78505 0.48438 0.0
C1261 C 0.96433 0.80814 0.47815 0.0
C1262 C 0.94054 0.77259 0.4812 0.0
C1263 C 0.92093 0.78291 0.47176 0.0
C1264 C 0.92305 0.80625 0.46648 0.0
C1265 C 0.94445 0.8187 0.46966 0.0
C1266 C 0.85621 0.76683 0.4605 0.0
C1267 C 0.8575 0.74543 0.4496 0.0
C1268 C 0.87663 0.77856 0.46858 0.0
C1269 C 0.89888 0.76922 0.46592 0.0
C1270 C 0.90001 0.7473 0.45605 0.0
C1271 C 0.87956 0.73553 0.44802 0.0
H1272 H 0.3727 0.75058 0.57534 0.0
H1273 H 0.3431 0.74508 0.50731 0.0
H1274 H 0.40679 0.73008 0.56248 0.0
H1275 H 0.37703 0.72439 0.49446 0.0
H1276 H 0.45245 0.70967 0.47354 0.0
H1277 H 0.41847 0.73006 0.48667 0.0
H1278 H 0.41839 0.69292 0.55014 0.0
H1279 H 0.45259 0.67267 0.53703 0.0
C1280 C 0.37334 0.74482 0.55769 0.0
C1281 C 0.35515 0.74953 0.54236 0.0
C1282 C 0.3929 0.73302 0.55031 0.0
C1283 C 0.39472 0.72557 0.52741 0.0
C1284 C 0.37645 0.73021 0.51211 0.0
C1285 C 0.35696 0.74208 0.51948 0.0
C1286 C 0.44509 0.7057 0.49021 0.0
C1287 C 0.45526 0.68948 0.5042 0.0
C1288 C 0.42555 0.7174 0.49776 0.0
C1289 C 0.41561 0.71313 0.51946 0.0
C1290 C 0.42579 0.6969 0.53347 0.0
C1291 C 0.4454 0.68526 0.52594 0.0
H1292 H 0.05017 0.94361 0.18238 0.0
H1293 H 0.01467 0.93131 0.24696 0.0
H1294 H 0.03656 0.90567 0.16889 0.0
H1295 H 1.00225 0.89338 0.23404 0.0
H1296 H 0.96441 0.83439 0.19972 0.0
H1297 H 0.97552 0.87424 0.20794 0.0
H1298 H 0.04327 0.86571 0.17563 0.0
H1299 H 0.03178 0.82591 0.167 0.0
C1300 C 0.0395 0.93288 0.19369 0.0
C1301 C 0.03366 0.94056 0.21581 0.0
C1302 C 0.03188 0.91107 0.18604 0.0
C1303 C 0.01823 0.89651 0.20034 0.0
C1304 C 0.01239 0.90425 0.2224 0.0
C1305 C 0.01991 0.92597 0.22999 0.0
C1306 C 0.9816 0.84111 0.19426 0.0
C1307 C 0.99732 0.82702 0.18296 0.0
C1308 C 0.98802 0.8639 0.19901 0.0
C1309 C 0.01045 0.87309 0.19277 0.0
C1310 C 0.0258 0.85924 0.18053 0.0
C1311 C 0.01925 0.83644 0.1756 0.0
H1312 H 0.52879 0.07026 0.70671 0.0
H1313 H 0.4534 0.07189 0.71507 0.0
H1314 H 0.53093 0.11074 0.69819 0.0
H1315 H 0.45491 0.1122 0.70492 0.0
H1316 H 0.46956 0.18863 0.71636 0.0
H1317 H 0.46533 0.14742 0.72003 0.0
H1318 H 0.5245 0.14014 0.67389 0.0
H1319 H 0.52946 0.18161 0.67179 0.0
C1320 C 0.51258 0.07929 0.70604 0.0
C1321 C 0.49094 0.06813 0.7115 0.0
C1322 C 0.51371 0.10251 0.70104 0.0
C1323 C 0.4931 0.11501 0.70087 0.0
C1324 C 0.47127 0.10342 0.70541 0.0
C1325 C 0.47027 0.0803 0.711 0.0
C1326 C 0.48143 0.17809 0.70686 0.0
C1327 C 0.49985 0.18812 0.69385 0.0
C1328 C 0.47898 0.15441 0.7088 0.0
C1329 C 0.49461 0.14019 0.69732 0.0
C1330 C 0.51246 0.1504 0.68348 0.0
C1331 C 0.51525 0.17413 0.68206 0.0
H1332 H 0.4987 0.32558 0.71398 0.0
H1333 H 0.55632 0.34652 0.75904 0.0
H1334 H 0.4874 0.36512 0.71163 0.0
H1335 H 0.54509 0.38594 0.75655 0.0
H1336 H 0.51426 0.45419 0.75766 0.0
H1337 H 0.51427 0.41345 0.76527 0.0
H1338 H 0.50715 0.39893 0.69288 0.0
H1339 H 0.50697 0.43965 0.6852 0.0
C1340 C 0.50865 0.33851 0.72378 0.0
C1341 C 0.52853 0.33292 0.73659 0.0
C1342 C 0.50225 0.36118 0.7223 0.0
C1343 C 0.51542 0.37865 0.73378 0.0
C1344 C 0.53442 0.37284 0.74767 0.0
C1345 C 0.54093 0.35024 0.74902 0.0
C1346 C 0.51216 0.44232 0.74338 0.0
C1347 C 0.51093 0.45021 0.72076 0.0
C1348 C 0.51229 0.41898 0.74777 0.0
C1349 C 0.51102 0.40301 0.72967 0.0
C1350 C 0.50802 0.41081 0.70722 0.0
C1351 C 0.50799 0.43418 0.70281 0.0
H1352 H 0.79969 0.25532 0.99115 0.0
H1353 H 0.80745 0.30154 0.93444 0.0
H1354 H 0.83589 0.27251 0.0085 0.0
H1355 H 0.84389 0.31831 0.95146 0.0
H1356 H 0.92223 0.31775 0.97679 0.0
H1357 H 0.88618 0.29865 0.96181 0.0
H1358 H 0.84863 0.31741 0.02298 0.0
H1359 H 0.88462 0.33721 0.03788 0.0
C1360 C 0.80922 0.26908 0.9824 0.0
C1361 C 0.80085 0.27715 0.96149 0.0
C1362 C 0.82978 0.27893 0.99234 0.0
C1363 C 0.8426 0.29662 0.98122 0.0
C1364 C 0.8343 0.30461 0.96028 0.0
C1365 C 0.81347 0.29514 0.95064 0.0
C1366 C 0.90641 0.31756 0.98724 0.0
C1367 C 0.90627 0.32901 0.00854 0.0
C1368 C 0.88578 0.30675 0.97857 0.0
C1369 C 0.86472 0.30671 0.99123 0.0
C1370 C 0.86473 0.31722 0.01296 0.0
C1371 C 0.88527 0.32852 0.02144 0.0
H1372 H 0.98247 0.67664 0.26315 0.0
H1373 H 0.02252 0.69573 0.20273 0.0
H1374 H 0.99455 0.63774 0.25888 0.0
H1375 H 0.03526 0.65676 0.19884 0.0
H1376 H 0.01146 0.58178 0.17864 0.0
H1377 H 0.01421 0.62251 0.18644 0.0
H1378 H 0.0236 0.60955 0.2585 0.0
H1379 H 0.02008 0.56862 0.25073 0.0
C1380 C 0.99446 0.67272 0.24934 0.0
C1381 C 1.00116 0.68924 0.23305 0.0
C1382 C 1.00153 0.65034 0.24695 0.0
C1383 C 0.01562 0.64397 0.22829 0.0
C1384 C 0.024 0.66097 0.21313 0.0
C1385 C 0.01683 0.68336 0.21547 0.0
C1386 C 0.01467 0.58756 0.19608 0.0
C1387 C 0.01513 0.57192 0.2141 0.0
C1388 C 0.0164 0.61101 0.20057 0.0
C1389 C 0.0188 0.61938 0.22317 0.0
C1390 C 0.02125 0.6037 0.24095 0.0
C1391 C 0.01938 0.58022 0.23648 0.0
H1392 H 0.62758 0.66343 0.53119 0.0
H1393 H 0.58574 0.69929 0.48278 0.0
H1394 H 0.66327 0.68318 0.51671 0.0
H1395 H 0.6214 0.71855 0.46796 0.0
H1396 H 0.68798 0.76291 0.45752 0.0
H1397 H 0.6529 0.74619 0.47597 0.0
H1398 H 0.68736 0.68252 0.48265 0.0
H1399 H 0.72285 0.69955 0.46517 0.0
C1400 C 0.62595 0.67565 0.51759 0.0
C1401 C 0.60377 0.67969 0.50811 0.0
C1402 C 0.64646 0.68684 0.50915 0.0
C1403 C 0.64529 0.70232 0.491 0.0
C1404 C 0.623 0.70693 0.48208 0.0
C1405 C 0.60251 0.69579 0.49055 0.0
C1406 C 0.68826 0.74545 0.46317 0.0
C1407 C 0.70838 0.73264 0.45976 0.0
C1408 C 0.66799 0.73576 0.47356 0.0
C1409 C 0.66723 0.71297 0.48081 0.0
C1410 C 0.68738 0.7002 0.47757 0.0
C1411 C 0.70768 0.7099 0.4672 0.0
H1412 H 0.78791 0.43188 0.44624 0.0
H1413 H 0.71306 0.43457 0.4339 0.0
H1414 H 0.79578 0.44007 0.40587 0.0
H1415 H 0.72087 0.44296 0.39364 0.0
H1416 H 0.74297 0.43995 0.31867 0.0
H1417 H 0.73751 0.42574 0.3576 0.0
H1418 H 0.79066 0.47524 0.382 0.0
H1419 H 0.79628 0.48925 0.34304 0.0
C1420 C 0.77315 0.43384 0.43482 0.0
C1421 C 0.74987 0.4327 0.44319 0.0
C1422 C 0.77765 0.43872 0.41179 0.0
C1423 C 0.75894 0.44223 0.39668 0.0
C1424 C 0.73563 0.44017 0.40487 0.0
C1425 C 0.73116 0.43556 0.42791 0.0
C1426 C 0.75373 0.44754 0.33229 0.0
C1427 C 0.76998 0.46578 0.32786 0.0
C1428 C 0.75048 0.43952 0.35457 0.0
C1429 C 0.76364 0.44941 0.3728 0.0
C1430 C 0.78042 0.46717 0.36825 0.0
C1431 C 0.78347 0.47534 0.34602 0.0
H1432 H 0.71509 0.50926 0.59562 0.0
H1433 H 0.76551 0.45913 0.57729 0.0
H1434 H 0.72759 0.50778 0.63531 0.0
H1435 H 0.77831 0.45793 0.61712 0.0
H1436 H 0.75547 0.43385 0.69121 0.0
H1437 H 0.75767 0.44148 0.65038 0.0
H1438 H 0.75793 0.51388 0.66454 0.0
H1439 H 0.75528 0.50626 0.70544 0.0
C1440 C 0.72934 0.49842 0.59992 0.0
C1441 C 0.73902 0.48407 0.58333 0.0
C1442 C 0.73662 0.49765 0.62272 0.0
C1443 C 0.75376 0.48251 0.62945 0.0
C1444 C 0.76481 0.46951 0.61253 0.0
C1445 C 0.75757 0.47033 0.58967 0.0
C1446 C 0.75664 0.45143 0.6857 0.0
C1447 C 0.75477 0.46942 0.70158 0.0
C1448 C 0.75801 0.45582 0.66224 0.0
C1449 C 0.75764 0.4783 0.65419 0.0
C1450 C 0.75782 0.49637 0.67019 0.0
C1451 C 0.75641 0.49198 0.69364 0.0
H1452 H 0.73006 0.59312 0.94391 0.0
H1453 H 0.79878 0.56604 0.93326 0.0
H1454 H 0.71809 0.57999 0.90566 0.0
H1455 H 0.78696 0.55308 0.89501 0.0
H1456 H 0.74873 0.50737 0.8426 0.0
H1457 H 0.76044 0.52334 0.87958 0.0
H1458 H 0.72461 0.58476 0.86454 0.0
H1459 H 0.71195 0.56832 0.82772 0.0
C1460 C 0.74276 0.58476 0.93324 0.0
C1461 C 0.76529 0.5804 0.94169 0.0
C1462 C 0.73589 0.5772 0.91133 0.0
C1463 C 0.75146 0.56521 0.89741 0.0
C1464 C 0.77434 0.56177 0.90551 0.0
C1465 C 0.78115 0.56924 0.92739 0.0
C1466 C 0.743 0.52413 0.84722 0.0
C1467 C 0.7293 0.5365 0.83213 0.0
C1468 C 0.75005 0.53345 0.86834 0.0
C1469 C 0.74366 0.55543 0.87493 0.0
C1470 C 0.72974 0.56775 0.86001 0.0
C1471 C 0.72266 0.5584 0.83882 0.0
H1472 H 0.71815 0.55643 0.19402 0.0
H1473 H 0.76925 0.50407 0.1947 0.0
H1474 H 0.71704 0.55413 0.15216 0.0
H1475 H 0.76901 0.5025 0.15345 0.0
H1476 H 0.76562 0.49723 0.07947 0.0
H1477 H 0.75099 0.4934 0.1186 0.0
H1478 H 0.74251 0.56619 0.12226 0.0
H1479 H 0.75577 0.56968 0.08287 0.0
C1480 C 0.72889 0.54424 0.1853 0.0
C1481 C 0.744 0.53067 0.19772 0.0
C1482 C 0.72839 0.54302 0.16129 0.0
C1483 C 0.74309 0.52827 0.14927 0.0
C1484 C 0.75713 0.51383 0.16191 0.0
C1485 C 0.75748 0.51493 0.18574 0.0
C1486 C 0.75997 0.51227 0.08848 0.0
C1487 C 0.76211 0.53376 0.07821 0.0
C1488 C 0.75177 0.51015 0.11098 0.0
C1489 C 0.74609 0.52957 0.12391 0.0
C1490 C 0.74652 0.5508 0.11294 0.0
C1491 C 0.75427 0.55284 0.09029 0.0
H1492 H 0.44217 0.67801 0.79373 0.0
H1493 H 0.49871 0.6929 0.84178 0.0
H1494 H 0.46046 0.64295 0.78222 0.0
H1495 H 0.51742 0.65805 0.82996 0.0
H1496 H 0.53158 0.58241 0.81854 0.0
H1497 H 0.51378 0.61731 0.83113 0.0
H1498 H 0.49366 0.63057 0.76137 0.0
H1499 H 0.51011 0.59517 0.74899 0.0
C1500 C 0.45861 0.67383 0.80172 0.0
C1501 C 0.46904 0.68823 0.8186 0.0
C1502 C 0.46917 0.65378 0.79507 0.0
C1503 C 0.49057 0.64774 0.80499 0.0
C1504 C 0.50082 0.66201 0.82214 0.0
C1505 C 0.49012 0.682 0.82892 0.0
C1506 C 0.52324 0.59265 0.80587 0.0
C1507 C 0.5222 0.58569 0.78273 0.0
C1508 C 0.51324 0.61285 0.81308 0.0
C1509 C 0.50209 0.6267 0.79731 0.0
C1510 C 0.50168 0.62011 0.77408 0.0
C1511 C 0.51151 0.59987 0.7669 0.0
loop_
_geom_bond_atom_site_label_1
_geom_bond_atom_site_label_2
_geom_bond_distance
_geom_bond_site_symmetry_2
_ccdc_geom_bond_type
Cu0 N1 1.999 . S
Cu0 O6 1.974 . S
Cu0 N11 1.985 . S
Cu0 O20 1.959 . S
N1 Cu0 1.999 . S
N1 C3 1.263 . S
N1 C5 1.389 . S
N2 C3 1.358 . S
N2 C4 1.400 . S
C3 N1 1.263 . S
C3 N2 1.358 . S
C3 H9 0.930 . S
C4 N2 1.400 . S
C4 C5 1.351 . S
C4 H21 0.930 . S
C5 N1 1.389 . S
C5 C4 1.351 . S
C5 H10 0.930 . S
O6 Cu0 1.974 . S
O6 C16 1.282 . S
C7 O8 1.261 . S
C7 O20 1.251 . S
O8 C7 1.261 . S
H9 C3 0.930 . S
H10 C5 0.930 . S
N11 Cu0 1.985 . S
N11 C13 1.335 . S
N11 C14 1.390 . S
N12 C13 1.345 . S
N12 C15 1.336 . S
C13 N11 1.335 . S
C13 N12 1.345 . S
C13 H18 0.930 . S
C14 N11 1.390 . S
C14 C15 1.346 . S
C14 H19 0.930 . S
C15 N12 1.336 . S
C15 C14 1.346 . S
C15 H22 0.929 . S
C16 O6 1.282 . S
C16 O17 1.216 . S
O17 C16 1.216 . S
H18 C13 0.930 . S
H19 C14 0.930 . S
O20 Cu0 1.959 . S
O20 C7 1.251 . S
H21 C4 0.930 . S
H22 C15 0.929 . S
Cu23 N24 1.989 1_455 S
Cu23 O29 1.974 1_455 S
Cu23 N34 1.985 . S
Cu23 O43 1.959 . S
N24 Cu23 1.989 1_655 S
N24 C26 1.305 . S
N24 C28 1.359 1_655 S
N25 C26 1.358 . S
N25 C27 1.400 1_655 S
C26 N24 1.305 . S
C26 N25 1.358 . S
C26 H32 0.930 . S
C27 N25 1.400 1_455 S
C27 C28 1.351 . S
C27 H44 0.930 . S
C28 N24 1.359 1_455 S
C28 C27 1.351 . S
C28 H33 0.930 . S
O29 Cu23 1.974 1_655 S
O29 C39 1.282 . S
C30 O31 1.261 . S
C30 O43 1.251 . S
O31 C30 1.261 . S
H32 C26 0.930 . S
H33 C28 0.930 . S
N34 Cu23 1.985 . S
N34 C36 1.335 . S
N34 C37 1.390 1_455 S
N35 C36 1.345 . S
N35 C38 1.336 . S
C36 N34 1.335 . S
C36 N35 1.345 . S
C36 H41 0.930 . S
C37 N34 1.390 1_655 S
C37 C38 1.346 1_655 S
C37 H42 0.930 . S
C38 N35 1.336 . S
C38 C37 1.346 1_455 S
C38 H45 0.929 1_455 S
C39 O29 1.282 . S
C39 O40 1.216 . S
O40 C39 1.216 . S
H41 C36 0.930 . S
H42 C37 0.930 . S
O43 Cu23 1.959 . S
O43 C30 1.251 . S
H44 C27 0.930 . S
H45 C38 0.929 1_655 S
Cu46 N47 1.999 . S
Cu46 O52 1.974 . S
Cu46 N57 1.985 . S
Cu46 O66 1.959 . S
N47 Cu46 1.999 . S
N47 C49 1.263 . S
N47 C51 1.389 . S
N48 C49 1.358 . S
N48 C50 1.400 . S
C49 N47 1.263 . S
C49 N48 1.358 . S
C49 H55 0.930 . S
C50 N48 1.400 . S
C50 C51 1.351 . S
C50 H67 0.930 . S
C51 N47 1.389 . S
C51 C50 1.351 . S
C51 H56 0.930 . S
O52 Cu46 1.974 . S
O52 C62 1.282 . S
C53 O54 1.261 . S
C53 O66 1.251 . S
O54 C53 1.261 . S
H55 C49 0.930 . S
H56 C51 0.930 . S
N57 Cu46 1.985 . S
N57 C59 1.335 . S
N57 C60 1.390 . S
N58 C59 1.345 . S
N58 C61 1.336 . S
C59 N57 1.335 . S
C59 N58 1.345 . S
C59 H64 0.930 . S
C60 N57 1.390 . S
C60 C61 1.346 . S
C60 H65 0.930 . S
C61 N58 1.336 . S
C61 C60 1.346 . S
C61 H68 0.929 . S
C62 O52 1.282 . S
C62 O63 1.216 . S
O63 C62 1.216 . S
H64 C59 0.930 . S
H65 C60 0.930 . S
O66 Cu46 1.959 . S
O66 C53 1.251 . S
H67 C50 0.930 . S
H68 C61 0.929 . S
Cu69 N70 1.999 . S
Cu69 O75 1.974 . S
Cu69 N80 1.985 1_556 S
Cu69 O89 1.959 . S
N70 Cu69 1.999 . S
N70 C72 1.263 . S
N70 C74 1.389 . S
N71 C72 1.358 . S
N71 C73 1.400 . S
C72 N70 1.263 . S
C72 N71 1.358 . S
C72 H78 0.930 . S
C73 N71 1.400 . S
C73 C74 1.351 . S
C73 H90 0.930 . S
C74 N70 1.389 . S
C74 C73 1.351 . S
C74 H79 0.930 . S
O75 Cu69 1.974 . S
O75 C85 1.282 . S
C76 O77 1.261 . S
C76 O89 1.251 1_554 S
O77 C76 1.261 . S
H78 C72 0.930 . S
H79 C74 0.930 . S
N80 Cu69 1.985 1_554 S
N80 C82 1.335 . S
N80 C83 1.390 . S
N81 C82 1.345 . S
N81 C84 1.336 . S
C82 N80 1.335 . S
C82 N81 1.345 . S
C82 H87 0.930 . S
C83 N80 1.390 . S
C83 C84 1.346 . S
C83 H88 0.930 . S
C84 N81 1.336 . S
C84 C83 1.346 . S
C84 H91 0.929 . S
C85 O75 1.282 . S
C85 O86 1.216 1_556 S
O86 C85 1.216 1_554 S
H87 C82 0.930 . S
H88 C83 0.930 . S
O89 Cu69 1.959 . S
O89 C76 1.251 1_556 S
H90 C73 0.930 . S
H91 C84 0.929 . S
Cu92 N93 1.999 1_565 S
Cu92 O98 1.974 1_565 S
Cu92 N103 1.985 1_455 S
Cu92 O112 1.959 . S
N93 Cu92 1.999 1_545 S
N93 C95 1.263 . S
N93 C97 1.389 1_545 S
N94 C95 1.358 . S
N94 C96 1.400 . S
C95 N93 1.263 . S
C95 N94 1.358 . S
C95 H101 0.930 . S
C96 N94 1.400 . S
C96 C97 1.351 1_545 S
C96 H113 0.930 1_545 S
C97 N93 1.389 1_565 S
C97 C96 1.351 1_565 S
C97 H102 0.930 . S
O98 Cu92 1.974 1_545 S
O98 C108 1.282 . S
C99 O100 1.261 . S
C99 O112 1.251 1_655 S
O100 C99 1.261 . S
H101 C95 0.930 . S
H102 C97 0.930 . S
N103 Cu92 1.985 1_655 S
N103 C105 1.335 . S
N103 C106 1.390 1_565 S
N104 C105 1.345 . S
N104 C107 1.336 . S
C105 N103 1.335 . S
C105 N104 1.345 . S
C105 H110 0.930 . S
C106 N103 1.390 1_545 S
C106 C107 1.346 1_545 S
C106 H111 0.930 . S
C107 N104 1.336 . S
C107 C106 1.346 1_565 S
C107 H114 0.929 . S
C108 O98 1.282 . S
C108 O109 1.216 1_455 S
O109 C108 1.216 1_655 S
H110 C105 0.930 . S
H111 C106 0.930 . S
O112 Cu92 1.959 . S
O112 C99 1.251 1_455 S
H113 C96 0.930 1_565 S
H114 C107 0.929 . S
Cu115 N116 1.999 . S
Cu115 O121 1.974 . S
Cu115 N126 1.985 . S
Cu115 O135 1.959 . S
N116 Cu115 1.999 . S
N116 C118 1.263 . S
N116 C120 1.389 . S
N117 C118 1.358 . S
N117 C119 1.400 . S
C118 N116 1.263 . S
C118 N117 1.358 . S
C118 H124 0.930 . S
C119 N117 1.400 . S
C119 C120 1.351 . S
C119 H136 0.930 . S
C120 N116 1.389 . S
C120 C119 1.351 . S
C120 H125 0.930 . S
O121 Cu115 1.974 . S
O121 C131 1.282 . S
C122 O123 1.261 . S
C122 O135 1.251 . S
O123 C122 1.261 . S
H124 C118 0.930 . S
H125 C120 0.930 . S
N126 Cu115 1.985 . S
N126 C128 1.335 . S
N126 C129 1.390 . S
N127 C128 1.345 . S
N127 C130 1.336 . S
C128 N126 1.335 . S
C128 N127 1.345 . S
C128 H133 0.930 . S
C129 N126 1.390 . S
C129 C130 1.346 . S
C129 H134 0.930 . S
C130 N127 1.336 . S
C130 C129 1.346 . S
C130 H137 0.929 . S
C131 O121 1.282 . S
C131 O132 1.216 . S
O132 C131 1.216 . S
H133 C128 0.930 . S
H134 C129 0.930 . S
O135 Cu115 1.959 . S
O135 C122 1.251 . S
H136 C119 0.930 . S
H137 C130 0.929 . S
Cu138 N139 1.999 1_545 S
Cu138 O144 1.974 1_545 S
Cu138 N149 1.985 . S
Cu138 O158 1.959 . S
N139 Cu138 1.999 1_565 S
N139 C141 1.263 . S
N139 C143 1.389 1_565 S
N140 C141 1.358 . S
N140 C142 1.400 . S
C141 N139 1.263 . S
C141 N140 1.358 . S
C141 H147 0.930 . S
C142 N140 1.400 . S
C142 C143 1.351 1_565 S
C142 H159 0.930 1_565 S
C143 N139 1.389 1_545 S
C143 C142 1.351 1_545 S
C143 H148 0.930 . S
O144 Cu138 1.974 1_565 S
O144 C154 1.282 . S
C145 O146 1.261 . S
C145 O158 1.251 . S
O146 C145 1.261 . S
H147 C141 0.930 . S
H148 C143 0.930 . S
N149 Cu138 1.985 . S
N149 C151 1.335 . S
N149 C152 1.390 1_545 S
N150 C151 1.345 . S
N150 C153 1.336 . S
C151 N149 1.335 . S
C151 N150 1.345 . S
C151 H156 0.930 . S
C152 N149 1.390 1_565 S
C152 C153 1.346 1_565 S
C152 H157 0.930 . S
C153 N150 1.336 . S
C153 C152 1.346 1_545 S
C153 H160 0.929 . S
C154 O144 1.282 . S
C154 O155 1.216 . S
O155 C154 1.216 . S
H156 C151 0.930 . S
H157 C152 0.930 . S
O158 Cu138 1.959 . S
O158 C145 1.251 . S
H159 C142 0.930 1_545 S
H160 C153 0.929 . S
Cu161 N162 1.999 . S
Cu161 O167 1.974 . S
Cu161 N172 1.985 . S
Cu161 O181 1.959 . S
N162 Cu161 1.999 . S
N162 C164 1.263 . S
N162 C166 1.389 . S
N163 C164 1.358 . S
N163 C165 1.400 . S
C164 N162 1.263 . S
C164 N163 1.358 . S
C164 H170 0.930 . S
C165 N163 1.400 . S
C165 C166 1.351 . S
C165 H182 0.930 . S
C166 N162 1.389 . S
C166 C165 1.351 . S
C166 H171 0.930 . S
O167 Cu161 1.974 . S
O167 C177 1.282 . S
C168 O169 1.261 . S
C168 O181 1.251 . S
O169 C168 1.261 . S
H170 C164 0.930 . S
H171 C166 0.930 . S
N172 Cu161 1.985 . S
N172 C174 1.335 . S
N172 C175 1.390 . S
N173 C174 1.345 . S
N173 C176 1.336 . S
C174 N172 1.335 . S
C174 N173 1.345 . S
C174 H179 0.930 . S
C175 N172 1.390 . S
C175 C176 1.346 . S
C175 H180 0.930 . S
C176 N173 1.336 . S
C176 C175 1.346 . S
C176 H183 0.929 . S
C177 O167 1.282 . S
C177 O178 1.216 . S
O178 C177 1.216 . S
H179 C174 0.930 . S
H180 C175 0.930 . S
O181 Cu161 1.959 . S
O181 C168 1.251 . S
H182 C165 0.930 . S
H183 C176 0.929 . S
Cu184 N185 1.999 . S
Cu184 O190 1.974 . S
Cu184 N195 1.985 . S
Cu184 O204 1.959 . S
N185 Cu184 1.999 . S
N185 C187 1.263 . S
N185 C189 1.389 . S
N186 C187 1.358 . S
N186 C188 1.400 . S
C187 N185 1.263 . S
C187 N186 1.358 . S
C187 H193 0.930 . S
C188 N186 1.400 . S
C188 C189 1.351 . S
C188 H205 0.930 . S
C189 N185 1.389 . S
C189 C188 1.351 . S
C189 H194 0.930 . S
O190 Cu184 1.974 . S
O190 C200 1.282 . S
C191 O192 1.261 . S
C191 O204 1.251 . S
O192 C191 1.261 . S
H193 C187 0.930 . S
H194 C189 0.930 . S
N195 Cu184 1.985 . S
N195 C197 1.335 . S
N195 C198 1.390 . S
N196 C197 1.345 . S
N196 C199 1.336 . S
C197 N195 1.335 . S
C197 N196 1.345 . S
C197 H202 0.930 . S
C198 N195 1.390 . S
C198 C199 1.346 . S
C198 H203 0.930 . S
C199 N196 1.336 . S
C199 C198 1.346 . S
C199 H206 0.929 . S
C200 O190 1.282 . S
C200 O201 1.216 . S
O201 C200 1.216 . S
H202 C197 0.930 . S
H203 C198 0.930 . S
O204 Cu184 1.959 . S
O204 C191 1.251 . S
H205 C188 0.930 . S
H206 C199 0.929 . S
Cu207 N208 1.999 . S
Cu207 O213 1.974 . S
Cu207 N218 1.998 . S
Cu207 O227 1.959 1_545 S
N208 Cu207 1.999 . S
N208 C210 1.263 . S
N208 C212 1.389 . S
N209 C210 1.358 . S
N209 C211 1.400 . S
C210 N208 1.263 . S
C210 N209 1.358 . S
C210 H216 0.930 . S
C211 N209 1.400 . S
C211 C212 1.351 . S
C211 H228 0.930 . S
C212 N208 1.389 . S
C212 C211 1.351 . S
C212 H217 0.930 . S
O213 Cu207 1.974 . S
O213 C223 1.282 . S
C214 O215 1.261 . S
C214 O227 1.251 . S
O215 C214 1.261 . S
H216 C210 0.930 . S
H217 C212 0.930 . S
N218 Cu207 1.998 . S
N218 C220 1.320 1_545 S
N218 C221 1.396 . S
N219 C220 1.345 . S
N219 C222 1.336 . S
C220 N218 1.320 1_565 S
C220 N219 1.345 . S
C220 H225 0.930 . S
C221 N218 1.396 . S
C221 C222 1.346 1_545 S
C221 H226 0.930 . S
C222 N219 1.336 . S
C222 C221 1.346 1_565 S
C222 H229 0.929 . S
C223 O213 1.282 . S
C223 O224 1.216 . S
O224 C223 1.216 . S
H225 C220 0.930 . S
H226 C221 0.930 . S
O227 Cu207 1.959 1_565 S
O227 C214 1.251 . S
H228 C211 0.930 . S
H229 C222 0.929 . S
Cu230 N231 1.999 . S
Cu230 O236 1.974 . S
Cu230 N241 1.985 . S
Cu230 O250 1.959 . S
N231 Cu230 1.999 . S
N231 C233 1.263 . S
N231 C235 1.389 . S
N232 C233 1.358 . S
N232 C234 1.400 . S
C233 N231 1.263 . S
C233 N232 1.358 . S
C233 H239 0.930 . S
C234 N232 1.400 . S
C234 C235 1.351 . S
C234 H251 0.930 . S
C235 N231 1.389 . S
C235 C234 1.351 . S
C235 H240 0.930 . S
O236 Cu230 1.974 . S
O236 C246 1.282 . S
C237 O238 1.261 . S
C237 O250 1.251 . S
O238 C237 1.261 . S
H239 C233 0.930 . S
H240 C235 0.930 . S
N241 Cu230 1.985 . S
N241 C243 1.335 . S
N241 C244 1.390 . S
N242 C243 1.345 . S
N242 C245 1.336 . S
C243 N241 1.335 . S
C243 N242 1.345 . S
C243 H248 0.930 . S
C244 N241 1.390 . S
C244 C245 1.346 . S
C244 H249 0.930 . S
C245 N242 1.336 . S
C245 C244 1.346 . S
C245 H252 0.929 . S
C246 O236 1.282 . S
C246 O247 1.216 . S
O247 C246 1.216 . S
H248 C243 0.930 . S
H249 C244 0.930 . S
O250 Cu230 1.959 . S
O250 C237 1.251 . S
H251 C234 0.930 . S
H252 C245 0.929 . S
Cu253 N254 1.999 1_554 S
Cu253 O259 1.974 1_554 S
Cu253 N264 1.992 . S
Cu253 O273 1.959 1_565 S
N254 Cu253 1.999 1_556 S
N254 C256 1.263 . S
N254 C258 1.389 . S
N255 C256 1.358 . S
N255 C257 1.400 . S
C256 N254 1.263 . S
C256 N255 1.358 . S
C256 H262 0.930 . S
C257 N255 1.400 . S
C257 C258 1.351 . S
C257 H274 0.930 . S
C258 N254 1.389 . S
C258 C257 1.351 . S
C258 H263 0.930 . S
O259 Cu253 1.974 1_556 S
O259 C269 1.282 . S
C260 O261 1.226 1_554 S
C260 O273 1.251 . S
O261 C260 1.226 1_556 S
H262 C256 0.930 . S
H263 C258 0.930 . S
N264 Cu253 1.992 . S
N264 C266 1.326 1_565 S
N264 C267 1.394 . S
N265 C266 1.345 . S
N265 C268 1.336 . S
C266 N264 1.326 1_545 S
C266 N265 1.345 . S
C266 H271 0.930 . S
C267 N264 1.394 . S
C267 C268 1.346 1_565 S
C267 H272 0.930 . S
C268 N265 1.336 . S
C268 C267 1.346 1_545 S
C268 H275 0.929 . S
C269 O259 1.282 . S
C269 O270 1.216 . S
O270 C269 1.216 . S
H271 C266 0.930 . S
H272 C267 0.930 . S
O273 Cu253 1.959 1_545 S
O273 C260 1.251 . S
H274 C257 0.930 . S
H275 C268 0.929 . S
Cu276 N277 1.999 . S
Cu276 O282 1.974 . S
Cu276 N287 1.985 . S
Cu276 O296 1.959 . S
N277 Cu276 1.999 . S
N277 C279 1.263 . S
N277 C281 1.389 . S
N278 C279 1.358 . S
N278 C280 1.400 . S
C279 N277 1.263 . S
C279 N278 1.358 . S
C279 H285 0.930 . S
C280 N278 1.400 . S
C280 C281 1.351 . S
C280 H297 0.930 . S
C281 N277 1.389 . S
C281 C280 1.351 . S
C281 H286 0.930 . S
O282 Cu276 1.974 . S
O282 C292 1.282 . S
C283 O284 1.261 . S
C283 O296 1.251 . S
O284 C283 1.261 . S
H285 C279 0.930 . S
H286 C281 0.930 . S
N287 Cu276 1.985 . S
N287 C289 1.335 . S
N287 C290 1.390 . S
N288 C289 1.345 . S
N288 C291 1.336 . S
C289 N287 1.335 . S
C289 N288 1.345 . S
C289 H294 0.930 . S
C290 N287 1.390 . S
C290 C291 1.346 . S
C290 H295 0.930 . S
C291 N288 1.336 . S
C291 C290 1.346 . S
C291 H298 0.929 . S
C292 O282 1.282 . S
C292 O293 1.216 . S
O293 C292 1.216 . S
H294 C289 0.930 . S
H295 C290 0.930 . S
O296 Cu276 1.959 . S
O296 C283 1.251 . S
H297 C280 0.930 . S
H298 C291 0.929 . S
Cu299 N300 1.999 . S
Cu299 O305 1.974 . S
Cu299 N310 1.985 1_655 S
Cu299 O319 1.959 . S
N300 Cu299 1.999 . S
N300 C302 1.263 . S
N300 C304 1.389 . S
N301 C302 1.358 . S
N301 C303 1.400 . S
C302 N300 1.263 . S
C302 N301 1.358 . S
C302 H308 0.930 . S
C303 N301 1.400 . S
C303 C304 1.351 . S
C303 H320 0.930 . S
C304 N300 1.389 . S
C304 C303 1.351 . S
C304 H309 0.930 . S
O305 Cu299 1.974 . S
O305 C315 1.282 . S
C306 O307 1.261 . S
C306 O319 1.251 1_455 S
O307 C306 1.261 . S
H308 C302 0.930 . S
H309 C304 0.930 . S
N310 Cu299 1.985 1_455 S
N310 C312 1.335 . S
N310 C313 1.390 . S
N311 C312 1.345 . S
N311 C314 1.336 . S
C312 N310 1.335 . S
C312 N311 1.345 . S
C312 H317 0.930 . S
C313 N310 1.390 . S
C313 C314 1.346 . S
C313 H318 0.930 . S
C314 N311 1.336 . S
C314 C313 1.346 . S
C314 H321 0.929 . S
C315 O305 1.282 . S
C315 O316 1.216 1_655 S
O316 C315 1.216 1_455 S
H317 C312 0.930 . S
H318 C313 0.930 . S
O319 Cu299 1.959 . S
O319 C306 1.251 1_655 S
H320 C303 0.930 . S
H321 C314 0.929 . S
Cu322 N323 1.999 . S
Cu322 O328 1.974 . S
Cu322 N333 1.985 . S
Cu322 O342 1.959 . S
N323 Cu322 1.999 . S
N323 C325 1.263 . S
N323 C327 1.389 . S
N324 C325 1.358 . S
N324 C326 1.400 . S
C325 N323 1.263 . S
C325 N324 1.358 . S
C325 H331 0.930 . S
C326 N324 1.400 . S
C326 C327 1.351 . S
C326 H343 0.930 . S
C327 N323 1.389 . S
C327 C326 1.351 . S
C327 H332 0.930 . S
O328 Cu322 1.974 . S
O328 C338 1.282 . S
C329 O330 1.261 . S
C329 O342 1.251 . S
O330 C329 1.261 . S
H331 C325 0.930 . S
H332 C327 0.930 . S
N333 Cu322 1.985 . S
N333 C335 1.335 . S
N333 C336 1.390 . S
N334 C335 1.345 . S
N334 C337 1.336 . S
C335 N333 1.335 . S
C335 N334 1.345 . S
C335 H340 0.930 . S
C336 N333 1.390 . S
C336 C337 1.346 . S
C336 H341 0.930 . S
C337 N334 1.336 . S
C337 C336 1.346 . S
C337 H344 0.929 . S
C338 O328 1.282 . S
C338 O339 1.216 . S
O339 C338 1.216 . S
H340 C335 0.930 . S
H341 C336 0.930 . S
O342 Cu322 1.959 . S
O342 C329 1.251 . S
H343 C326 0.930 . S
H344 C337 0.929 . S
Cu345 N346 1.999 . S
Cu345 O351 1.974 . S
Cu345 N356 1.985 . S
Cu345 O365 1.959 . S
N346 Cu345 1.999 . S
N346 C348 1.263 . S
N346 C350 1.389 . S
N347 C348 1.358 . S
N347 C349 1.400 . S
C348 N346 1.263 . S
C348 N347 1.358 . S
C348 H354 0.930 . S
C349 N347 1.400 . S
C349 C350 1.351 . S
C349 H366 0.930 . S
C350 N346 1.389 . S
C350 C349 1.351 . S
C350 H355 0.930 . S
O351 Cu345 1.974 . S
O351 C361 1.282 . S
C352 O353 1.261 . S
C352 O365 1.251 . S
O353 C352 1.261 . S
H354 C348 0.930 . S
H355 C350 0.930 . S
N356 Cu345 1.985 . S
N356 C358 1.335 . S
N356 C359 1.390 . S
N357 C358 1.345 . S
N357 C360 1.336 . S
C358 N356 1.335 . S
C358 N357 1.345 . S
C358 H363 0.930 . S
C359 N356 1.390 . S
C359 C360 1.346 . S
C359 H364 0.930 . S
C360 N357 1.336 . S
C360 C359 1.346 . S
C360 H367 0.929 . S
C361 O351 1.282 . S
C361 O362 1.216 . S
O362 C361 1.216 . S
H363 C358 0.930 . S
H364 C359 0.930 . S
O365 Cu345 1.959 . S
O365 C352 1.251 . S
H366 C349 0.930 . S
H367 C360 0.929 . S
Cu368 N369 1.999 . S
Cu368 O374 1.974 . S
Cu368 N379 1.985 . S
Cu368 O388 1.959 . S
N369 Cu368 1.999 . S
N369 C371 1.263 . S
N369 C373 1.389 . S
N370 C371 1.358 . S
N370 C372 1.400 . S
C371 N369 1.263 . S
C371 N370 1.358 . S
C371 H377 0.930 . S
C372 N370 1.400 . S
C372 C373 1.351 . S
C372 H389 0.930 . S
C373 N369 1.389 . S
C373 C372 1.351 . S
C373 H378 0.930 . S
O374 Cu368 1.974 . S
O374 C384 1.282 . S
C375 O376 1.261 . S
C375 O388 1.251 . S
O376 C375 1.261 . S
H377 C371 0.930 . S
H378 C373 0.930 . S
N379 Cu368 1.985 . S
N379 C381 1.335 . S
N379 C382 1.390 . S
N380 C381 1.345 . S
N380 C383 1.336 . S
C381 N379 1.335 . S
C381 N380 1.345 . S
C381 H386 0.930 . S
C382 N379 1.390 . S
C382 C383 1.346 . S
C382 H387 0.930 . S
C383 N380 1.336 . S
C383 C382 1.346 . S
C383 H390 0.929 . S
C384 O374 1.282 . S
C384 O385 1.216 . S
O385 C384 1.216 . S
H386 C381 0.930 . S
H387 C382 0.930 . S
O388 Cu368 1.959 . S
O388 C375 1.251 . S
H389 C372 0.930 . S
H390 C383 0.929 . S
Cu391 N392 1.999 . S
Cu391 O397 1.974 . S
Cu391 N402 1.985 . S
Cu391 O411 1.959 . S
N392 Cu391 1.999 . S
N392 C394 1.263 . S
N392 C396 1.389 . S
N393 C394 1.358 . S
N393 C395 1.400 . S
C394 N392 1.263 . S
C394 N393 1.358 . S
C394 H400 0.930 . S
C395 N393 1.400 . S
C395 C396 1.351 . S
C395 H412 0.930 . S
C396 N392 1.389 . S
C396 C395 1.351 . S
C396 H401 0.930 . S
O397 Cu391 1.974 . S
O397 C407 1.282 . S
C398 O399 1.261 . S
C398 O411 1.251 . S
O399 C398 1.261 . S
H400 C394 0.930 . S
H401 C396 0.930 . S
N402 Cu391 1.985 . S
N402 C404 1.335 . S
N402 C405 1.390 . S
N403 C404 1.345 . S
N403 C406 1.336 . S
C404 N402 1.335 . S
C404 N403 1.345 . S
C404 H409 0.930 . S
C405 N402 1.390 . S
C405 C406 1.346 . S
C405 H410 0.930 . S
C406 N403 1.336 . S
C406 C405 1.346 . S
C406 H413 0.929 . S
C407 O397 1.282 . S
C407 O408 1.216 . S
O408 C407 1.216 . S
H409 C404 0.930 . S
H410 C405 0.930 . S
O411 Cu391 1.959 . S
O411 C398 1.251 . S
H412 C395 0.930 . S
H413 C406 0.929 . S
Cu414 N415 1.999 1_455 S
Cu414 O420 1.974 1_455 S
Cu414 N425 1.985 1_556 S
Cu414 O434 1.959 1_556 S
N415 Cu414 1.999 1_655 S
N415 C417 1.263 . S
N415 C419 1.389 . S
N416 C417 1.358 . S
N416 C418 1.400 . S
C417 N415 1.263 . S
C417 N416 1.358 . S
C417 H423 0.930 . S
C418 N416 1.400 . S
C418 C419 1.351 . S
C418 H435 0.930 . S
C419 N415 1.389 . S
C419 C418 1.351 . S
C419 H424 0.943 . S
O420 Cu414 1.974 1_655 S
O420 C430 1.282 . S
C421 O422 1.261 1_455 S
C421 O434 1.251 . S
O422 C421 1.261 1_655 S
H423 C417 0.930 . S
H424 C419 0.943 . S
N425 Cu414 1.985 1_554 S
N425 C427 1.335 . S
N425 C428 1.390 1_554 S
N426 C427 1.345 . S
N426 C429 1.336 . S
C427 N425 1.335 . S
C427 N426 1.345 . S
C427 H432 0.930 . S
C428 N425 1.390 1_556 S
C428 C429 1.346 1_556 S
C428 H433 0.930 . S
C429 N426 1.336 . S
C429 C428 1.346 1_554 S
C429 H436 0.929 . S
C430 O420 1.282 . S
C430 O431 1.216 . S
O431 C430 1.216 . S
H432 C427 0.930 . S
H433 C428 0.930 . S
O434 Cu414 1.959 1_554 S
O434 C421 1.251 . S
H435 C418 0.930 . S
H436 C429 0.929 . S
Cu437 N438 1.999 . S
Cu437 O443 1.974 . S
Cu437 N448 1.985 . S
Cu437 O457 1.959 . S
N438 Cu437 1.999 . S
N438 C440 1.263 . S
N438 C442 1.389 . S
N439 C440 1.358 . S
N439 C441 1.400 . S
C440 N438 1.263 . S
C440 N439 1.358 . S
C440 H446 0.930 . S
C441 N439 1.400 . S
C441 C442 1.351 . S
C441 H458 0.930 . S
C442 N438 1.389 . S
C442 C441 1.351 . S
C442 H447 0.930 . S
O443 Cu437 1.974 . S
O443 C453 1.282 . S
C444 O445 1.261 . S
C444 O457 1.251 . S
O445 C444 1.261 . S
H446 C440 0.930 . S
H447 C442 0.930 . S
N448 Cu437 1.985 . S
N448 C450 1.335 . S
N448 C451 1.390 . S
N449 C450 1.345 . S
N449 C452 1.336 . S
C450 N448 1.335 . S
C450 N449 1.345 . S
C450 H455 0.930 . S
C451 N448 1.390 . S
C451 C452 1.346 . S
C451 H456 0.930 . S
C452 N449 1.336 . S
C452 C451 1.346 . S
C452 H459 0.929 . S
C453 O443 1.282 . S
C453 O454 1.216 . S
O454 C453 1.216 . S
H455 C450 0.930 . S
H456 C451 0.930 . S
O457 Cu437 1.959 . S
O457 C444 1.251 . S
H458 C441 0.930 . S
H459 C452 0.929 . S
Cu460 N461 1.999 . S
Cu460 O466 1.974 . S
Cu460 N471 1.985 . S
Cu460 O480 1.959 . S
N461 Cu460 1.999 . S
N461 C463 1.263 . S
N461 C465 1.389 . S
N462 C463 1.358 . S
N462 C464 1.400 . S
C463 N461 1.263 . S
C463 N462 1.358 . S
C463 H469 0.930 . S
C464 N462 1.400 . S
C464 C465 1.351 . S
C464 H481 0.930 . S
C465 N461 1.389 . S
C465 C464 1.351 . S
C465 H470 0.930 . S
O466 Cu460 1.974 . S
O466 C476 1.282 . S
C467 O468 1.261 . S
C467 O480 1.251 . S
O468 C467 1.261 . S
H469 C463 0.930 . S
H470 C465 0.930 . S
N471 Cu460 1.985 . S
N471 C473 1.335 . S
N471 C474 1.390 . S
N472 C473 1.345 . S
N472 C475 1.336 . S
C473 N471 1.335 . S
C473 N472 1.345 . S
C473 H478 0.930 . S
C474 N471 1.390 . S
C474 C475 1.346 . S
C474 H479 0.930 . S
C475 N472 1.336 . S
C475 C474 1.346 . S
C475 H482 0.929 . S
C476 O466 1.282 . S
C476 O477 1.216 . S
O477 C476 1.216 . S
H478 C473 0.930 . S
H479 C474 0.930 . S
O480 Cu460 1.959 . S
O480 C467 1.251 . S
H481 C464 0.930 . S
H482 C475 0.929 . S
Cu483 N484 1.999 . S
Cu483 O489 1.974 . S
Cu483 N494 1.985 . S
Cu483 O503 1.959 . S
N484 Cu483 1.999 . S
N484 C486 1.263 . S
N484 C488 1.389 . S
N485 C486 1.358 . S
N485 C487 1.400 . S
C486 N484 1.263 . S
C486 N485 1.358 . S
C486 H492 0.930 . S
C487 N485 1.400 . S
C487 C488 1.351 . S
C487 H504 0.930 . S
C488 N484 1.389 . S
C488 C487 1.351 . S
C488 H493 0.930 . S
O489 Cu483 1.974 . S
O489 C499 1.282 . S
C490 O491 1.261 . S
C490 O503 1.251 . S
O491 C490 1.261 . S
H492 C486 0.930 . S
H493 C488 0.930 . S
N494 Cu483 1.985 . S
N494 C496 1.335 . S
N494 C497 1.390 . S
N495 C496 1.345 . S
N495 C498 1.336 . S
C496 N494 1.335 . S
C496 N495 1.345 . S
C496 H501 0.930 . S
C497 N494 1.390 . S
C497 C498 1.346 . S
C497 H502 0.930 . S
C498 N495 1.336 . S
C498 C497 1.346 . S
C498 H505 0.929 . S
C499 O489 1.282 . S
C499 O500 1.216 . S
O500 C499 1.216 . S
H501 C496 0.930 . S
H502 C497 0.930 . S
O503 Cu483 1.959 . S
O503 C490 1.251 . S
H504 C487 0.930 . S
H505 C498 0.929 . S
Cu506 N507 1.999 1_556 S
Cu506 O512 1.974 1_556 S
Cu506 N517 1.985 . S
Cu506 O526 1.959 . S
N507 Cu506 1.999 1_554 S
N507 C509 1.263 . S
N507 C511 1.389 . S
N508 C509 1.358 . S
N508 C510 1.400 . S
C509 N507 1.263 . S
C509 N508 1.358 . S
C509 H515 0.930 . S
C510 N508 1.400 . S
C510 C511 1.351 . S
C510 H527 0.930 . S
C511 N507 1.389 . S
C511 C510 1.351 . S
C511 H516 0.930 . S
O512 Cu506 1.974 1_554 S
O512 C522 1.282 . S
C513 O514 1.261 . S
C513 O526 1.251 . S
O514 C513 1.261 . S
H515 C509 0.930 . S
H516 C511 0.930 . S
N517 Cu506 1.985 . S
N517 C519 1.335 . S
N517 C520 1.390 . S
N518 C519 1.345 . S
N518 C521 1.336 . S
C519 N517 1.335 . S
C519 N518 1.345 . S
C519 H524 0.930 . S
C520 N517 1.390 . S
C520 C521 1.346 . S
C520 H525 0.930 . S
C521 N518 1.336 . S
C521 C520 1.346 . S
C521 H528 0.929 . S
C522 O512 1.282 . S
C522 O523 1.216 . S
O523 C522 1.216 . S
H524 C519 0.930 . S
H525 C520 0.930 . S
O526 Cu506 1.959 . S
O526 C513 1.251 . S
H527 C510 0.930 . S
H528 C521 0.929 . S
Cu529 N530 1.999 . S
Cu529 O535 1.974 . S
Cu529 N540 1.985 . S
Cu529 O549 1.959 . S
N530 Cu529 1.999 . S
N530 C532 1.263 . S
N530 C534 1.389 . S
N531 C532 1.358 . S
N531 C533 1.400 . S
C532 N530 1.263 . S
C532 N531 1.358 . S
C532 H538 0.930 . S
C533 N531 1.400 . S
C533 C534 1.351 . S
C533 H550 0.930 . S
C534 N530 1.389 . S
C534 C533 1.351 . S
C534 H539 0.930 . S
O535 Cu529 1.974 . S
O535 C545 1.282 . S
C536 O537 1.261 . S
C536 O549 1.251 . S
O537 C536 1.261 . S
H538 C532 0.930 . S
H539 C534 0.930 . S
N540 Cu529 1.985 . S
N540 C542 1.335 . S
N540 C543 1.390 . S
N541 C542 1.345 . S
N541 C544 1.336 . S
C542 N540 1.335 . S
C542 N541 1.345 . S
C542 H547 0.930 . S
C543 N540 1.390 . S
C543 C544 1.346 . S
C543 H548 0.930 . S
C544 N541 1.336 . S
C544 C543 1.346 . S
C544 H551 0.929 . S
C545 O535 1.282 . S
C545 O546 1.216 . S
O546 C545 1.216 . S
H547 C542 0.930 . S
H548 C543 0.930 . S
O549 Cu529 1.959 . S
O549 C536 1.251 . S
H550 C533 0.930 . S
H551 C544 0.929 . S
H552 C560 0.950 . S
H553 C565 0.950 . S
H554 C562 0.950 . S
H555 C564 0.950 . S
H556 C566 0.950 . S
H557 C568 0.950 . S
H558 C570 0.950 . S
H559 C571 0.950 . S
C560 H552 0.950 . S
C560 C561 1.386 . S
C560 C562 1.391 . S
C561 C560 1.386 . S
C561 C565 1.393 . S
C562 H554 0.950 . S
C562 C560 1.391 . S
C562 C563 1.400 . S
C563 C562 1.400 . S
C563 C564 1.398 . S
C563 C569 1.491 . S
C564 H555 0.950 . S
C564 C563 1.398 . S
C564 C565 1.391 . S
C565 H553 0.950 . S
C565 C561 1.393 . S
C565 C564 1.391 . S
C566 H556 0.950 . S
C566 C567 1.386 . S
C566 C568 1.391 . S
C567 C566 1.386 . S
C567 C571 1.393 . S
C568 H557 0.950 . S
C568 C566 1.391 . S
C568 C569 1.400 . S
C569 C563 1.491 . S
C569 C568 1.400 . S
C569 C570 1.398 . S
C570 H558 0.950 . S
C570 C569 1.398 . S
C570 C571 1.391 . S
C571 H559 0.950 . S
C571 C567 1.393 . S
C571 C570 1.391 . S
H572 C580 0.950 1_455 S
H573 C585 0.950 . S
H574 C582 0.950 1_455 S
H575 C584 0.950 . S
H576 C586 0.950 . S
H577 C588 0.950 . S
H578 C590 0.950 1_455 S
H579 C591 0.962 . S
C580 H572 0.950 1_655 S
C580 C581 1.386 . S
C580 C582 1.391 . S
C581 C580 1.386 . S
C581 C585 1.393 . S
C582 H574 0.950 1_655 S
C582 C580 1.391 . S
C582 C583 1.400 . S
C583 C582 1.400 . S
C583 C584 1.398 . S
C583 C589 1.491 . S
C584 H575 0.950 . S
C584 C583 1.398 . S
C584 C585 1.391 . S
C585 H573 0.950 . S
C585 C581 1.393 . S
C585 C584 1.391 . S
C586 H576 0.950 . S
C586 C587 1.386 . S
C586 C588 1.391 . S
C587 C586 1.386 . S
C587 C591 1.381 1_655 S
C588 H577 0.950 . S
C588 C586 1.391 . S
C588 C589 1.400 . S
C589 C583 1.491 . S
C589 C588 1.400 . S
C589 C590 1.398 . S
C590 H578 0.950 1_655 S
C590 C589 1.398 . S
C590 C591 1.390 1_655 S
C591 H579 0.962 . S
C591 C587 1.381 1_455 S
C591 C590 1.390 1_455 S
H592 C600 0.950 . S
H593 C605 0.950 . S
H594 C602 0.950 . S
H595 C604 0.950 . S
H596 C606 0.950 . S
H597 C608 0.950 . S
H598 C610 0.950 . S
H599 C611 0.950 . S
C600 H592 0.950 . S
C600 C601 1.386 . S
C600 C602 1.391 . S
C601 C600 1.386 . S
C601 C605 1.393 . S
C602 H594 0.950 . S
C602 C600 1.391 . S
C602 C603 1.400 . S
C603 C602 1.400 . S
C603 C604 1.398 . S
C603 C609 1.491 . S
C604 H595 0.950 . S
C604 C603 1.398 . S
C604 C605 1.391 . S
C605 H593 0.950 . S
C605 C601 1.393 . S
C605 C604 1.391 . S
C606 H596 0.950 . S
C606 C607 1.386 . S
C606 C608 1.391 . S
C607 C606 1.386 . S
C607 C611 1.393 . S
C608 H597 0.950 . S
C608 C606 1.391 . S
C608 C609 1.400 . S
C609 C603 1.491 . S
C609 C608 1.400 . S
C609 C610 1.398 . S
C610 H598 0.950 . S
C610 C609 1.398 . S
C610 C611 1.391 . S
C611 H599 0.950 . S
C611 C607 1.393 . S
C611 C610 1.391 . S
H612 C620 0.950 . S
H613 C625 0.950 . S
H614 C622 0.950 . S
H615 C624 0.950 . S
H616 C626 0.950 . S
H617 C628 0.950 . S
H618 C630 0.950 . S
H619 C631 0.950 . S
C620 H612 0.950 . S
C620 C621 1.386 . S
C620 C622 1.391 . S
C621 C620 1.386 . S
C621 C625 1.393 . S
C622 H614 0.950 . S
C622 C620 1.391 . S
C622 C623 1.400 . S
C623 C622 1.400 . S
C623 C624 1.398 . S
C623 C629 1.491 . S
C624 H615 0.950 . S
C624 C623 1.398 . S
C624 C625 1.391 . S
C625 H613 0.950 . S
C625 C621 1.393 . S
C625 C624 1.391 . S
C626 H616 0.950 . S
C626 C627 1.386 . S
C626 C628 1.391 . S
C627 C626 1.386 . S
C627 C631 1.393 . S
C628 H617 0.950 . S
C628 C626 1.391 . S
C628 C629 1.400 . S
C629 C623 1.491 . S
C629 C628 1.400 . S
C629 C630 1.398 . S
C630 H618 0.950 . S
C630 C629 1.398 . S
C630 C631 1.391 . S
C631 H619 0.950 . S
C631 C627 1.393 . S
C631 C630 1.391 . S
H632 C640 0.950 . S
H633 C645 0.950 . S
H634 C642 0.950 . S
H635 C644 0.950 . S
H636 C646 0.950 . S
H637 C648 0.950 . S
H638 C650 0.950 . S
H639 C651 0.950 . S
C640 H632 0.950 . S
C640 C641 1.386 . S
C640 C642 1.391 . S
C641 C640 1.386 . S
C641 C645 1.393 . S
C642 H634 0.950 . S
C642 C640 1.391 . S
C642 C643 1.400 . S
C643 C642 1.400 . S
C643 C644 1.398 . S
C643 C649 1.491 . S
C644 H635 0.950 . S
C644 C643 1.398 . S
C644 C645 1.391 . S
C645 H633 0.950 . S
C645 C641 1.393 . S
C645 C644 1.391 . S
C646 H636 0.950 . S
C646 C647 1.386 . S
C646 C648 1.391 . S
C647 C646 1.386 . S
C647 C651 1.393 . S
C648 H637 0.950 . S
C648 C646 1.391 . S
C648 C649 1.400 . S
C649 C643 1.491 . S
C649 C648 1.400 . S
C649 C650 1.398 . S
C650 H638 0.950 . S
C650 C649 1.398 . S
C650 C651 1.391 . S
C651 H639 0.950 . S
C651 C647 1.393 . S
C651 C650 1.391 . S
H652 C660 0.950 . S
H653 C665 0.950 . S
H654 C662 0.950 . S
H655 C664 0.950 . S
H656 C666 0.950 . S
H657 C668 0.950 . S
H658 C670 0.950 . S
H659 C671 0.950 . S
C660 H652 0.950 . S
C660 C661 1.386 . S
C660 C662 1.391 . S
C661 C660 1.386 . S
C661 C665 1.393 . S
C662 H654 0.950 . S
C662 C660 1.391 . S
C662 C663 1.400 . S
C663 C662 1.400 . S
C663 C664 1.398 . S
C663 C669 1.491 . S
C664 H655 0.950 . S
C664 C663 1.398 . S
C664 C665 1.391 . S
C665 H653 0.950 . S
C665 C661 1.393 . S
C665 C664 1.391 . S
C666 H656 0.950 . S
C666 C667 1.386 . S
C666 C668 1.391 . S
C667 C666 1.386 . S
C667 C671 1.393 . S
C668 H657 0.950 . S
C668 C666 1.391 . S
C668 C669 1.400 . S
C669 C663 1.491 . S
C669 C668 1.400 . S
C669 C670 1.398 . S
C670 H658 0.950 . S
C670 C669 1.398 . S
C670 C671 1.391 . S
C671 H659 0.950 . S
C671 C667 1.393 . S
C671 C670 1.391 . S
H672 C680 0.950 . S
H673 C685 0.950 . S
H674 C682 0.950 . S
H675 C684 0.950 . S
H676 C686 0.950 . S
H677 C688 0.950 . S
H678 C690 0.950 . S
H679 C691 0.950 . S
C680 H672 0.950 . S
C680 C681 1.386 . S
C680 C682 1.391 . S
C681 C680 1.386 . S
C681 C685 1.393 . S
C682 H674 0.950 . S
C682 C680 1.391 . S
C682 C683 1.400 . S
C683 C682 1.400 . S
C683 C684 1.398 . S
C683 C689 1.491 . S
C684 H675 0.950 . S
C684 C683 1.398 . S
C684 C685 1.391 . S
C685 H673 0.950 . S
C685 C681 1.393 . S
C685 C684 1.391 . S
C686 H676 0.950 . S
C686 C687 1.386 . S
C686 C688 1.391 . S
C687 C686 1.386 . S
C687 C691 1.393 . S
C688 H677 0.950 . S
C688 C686 1.391 . S
C688 C689 1.400 . S
C689 C683 1.491 . S
C689 C688 1.400 . S
C689 C690 1.398 . S
C690 H678 0.950 . S
C690 C689 1.398 . S
C690 C691 1.391 . S
C691 H679 0.950 . S
C691 C687 1.393 . S
C691 C690 1.391 . S
H692 C700 0.950 . S
H693 C705 0.950 . S
H694 C702 0.950 . S
H695 C704 0.950 . S
H696 C706 0.950 . S
H697 C708 0.950 . S
H698 C710 0.950 . S
H699 C711 0.950 . S
C700 H692 0.950 . S
C700 C701 1.386 . S
C700 C702 1.391 . S
C701 C700 1.386 . S
C701 C705 1.393 . S
C702 H694 0.950 . S
C702 C700 1.391 . S
C702 C703 1.400 . S
C703 C702 1.400 . S
C703 C704 1.398 . S
C703 C709 1.491 . S
C704 H695 0.950 . S
C704 C703 1.398 . S
C704 C705 1.391 . S
C705 H693 0.950 . S
C705 C701 1.393 . S
C705 C704 1.391 . S
C706 H696 0.950 . S
C706 C707 1.386 . S
C706 C708 1.391 . S
C707 C706 1.386 . S
C707 C711 1.393 . S
C708 H697 0.950 . S
C708 C706 1.391 . S
C708 C709 1.400 . S
C709 C703 1.491 . S
C709 C708 1.400 . S
C709 C710 1.398 . S
C710 H698 0.950 . S
C710 C709 1.398 . S
C710 C711 1.391 . S
C711 H699 0.950 . S
C711 C707 1.393 . S
C711 C710 1.391 . S
H712 C720 0.950 . S
H713 C725 0.950 . S
H714 C722 0.950 . S
H715 C724 0.950 . S
H716 C726 0.950 . S
H717 C728 0.950 . S
H718 C730 0.950 . S
H719 C731 0.950 . S
C720 H712 0.950 . S
C720 C721 1.386 . S
C720 C722 1.391 . S
C721 C720 1.386 . S
C721 C725 1.393 . S
C722 H714 0.950 . S
C722 C720 1.391 . S
C722 C723 1.400 . S
C723 C722 1.400 . S
C723 C724 1.398 . S
C723 C729 1.491 . S
C724 H715 0.950 . S
C724 C723 1.398 . S
C724 C725 1.391 . S
C725 H713 0.950 . S
C725 C721 1.393 . S
C725 C724 1.391 . S
C726 H716 0.950 . S
C726 C727 1.386 . S
C726 C728 1.391 . S
C727 C726 1.386 . S
C727 C731 1.393 . S
C728 H717 0.950 . S
C728 C726 1.391 . S
C728 C729 1.400 . S
C729 C723 1.491 . S
C729 C728 1.400 . S
C729 C730 1.398 . S
C730 H718 0.950 . S
C730 C729 1.398 . S
C730 C731 1.391 . S
C731 H719 0.950 . S
C731 C727 1.393 . S
C731 C730 1.391 . S
H732 C740 0.950 . S
H733 C745 0.950 . S
H734 C742 0.950 . S
H735 C744 0.950 . S
H736 C746 0.950 . S
H737 C748 0.950 . S
H738 C750 0.950 . S
H739 C751 0.950 . S
C740 H732 0.950 . S
C740 C741 1.386 . S
C740 C742 1.391 . S
C741 C740 1.386 . S
C741 C745 1.393 . S
C742 H734 0.950 . S
C742 C740 1.391 . S
C742 C743 1.400 . S
C743 C742 1.400 . S
C743 C744 1.398 . S
C743 C749 1.491 . S
C744 H735 0.950 . S
C744 C743 1.398 . S
C744 C745 1.391 . S
C745 H733 0.950 . S
C745 C741 1.393 . S
C745 C744 1.391 . S
C746 H736 0.950 . S
C746 C747 1.386 . S
C746 C748 1.391 . S
C747 C746 1.386 . S
C747 C751 1.393 . S
C748 H737 0.950 . S
C748 C746 1.391 . S
C748 C749 1.400 . S
C749 C743 1.491 . S
C749 C748 1.400 . S
C749 C750 1.398 . S
C750 H738 0.950 . S
C750 C749 1.398 . S
C750 C751 1.391 . S
C751 H739 0.950 . S
C751 C747 1.393 . S
C751 C750 1.391 . S
H752 C760 0.950 . S
H753 C765 0.950 . S
H754 C762 0.950 . S
H755 C764 0.950 . S
H756 C766 0.950 . S
H757 C768 0.950 . S
H758 C770 0.950 . S
H759 C771 0.950 . S
C760 H752 0.950 . S
C760 C761 1.386 . S
C760 C762 1.391 . S
C761 C760 1.386 . S
C761 C765 1.393 . S
C762 H754 0.950 . S
C762 C760 1.391 . S
C762 C763 1.400 . S
C763 C762 1.400 . S
C763 C764 1.398 . S
C763 C769 1.491 . S
C764 H755 0.950 . S
C764 C763 1.398 . S
C764 C765 1.391 . S
C765 H753 0.950 . S
C765 C761 1.393 . S
C765 C764 1.391 . S
C766 H756 0.950 . S
C766 C767 1.386 . S
C766 C768 1.391 . S
C767 C766 1.386 . S
C767 C771 1.393 . S
C768 H757 0.950 . S
C768 C766 1.391 . S
C768 C769 1.400 . S
C769 C763 1.491 . S
C769 C768 1.400 . S
C769 C770 1.398 . S
C770 H758 0.950 . S
C770 C769 1.398 . S
C770 C771 1.391 . S
C771 H759 0.950 . S
C771 C767 1.393 . S
C771 C770 1.391 . S
H772 C780 0.950 . S
H773 C785 0.950 . S
H774 C782 0.950 . S
H775 C784 0.950 . S
H776 C786 0.950 . S
H777 C788 0.950 . S
H778 C790 0.950 . S
H779 C791 0.950 . S
C780 H772 0.950 . S
C780 C781 1.386 . S
C780 C782 1.391 . S
C781 C780 1.386 . S
C781 C785 1.393 . S
C782 H774 0.950 . S
C782 C780 1.391 . S
C782 C783 1.400 . S
C783 C782 1.400 . S
C783 C784 1.398 . S
C783 C789 1.491 . S
C784 H775 0.950 . S
C784 C783 1.398 . S
C784 C785 1.391 . S
C785 H773 0.950 . S
C785 C781 1.393 . S
C785 C784 1.391 . S
C786 H776 0.950 . S
C786 C787 1.386 . S
C786 C788 1.391 . S
C787 C786 1.386 . S
C787 C791 1.393 . S
C788 H777 0.950 . S
C788 C786 1.391 . S
C788 C789 1.400 . S
C789 C783 1.491 . S
C789 C788 1.400 . S
C789 C790 1.398 . S
C790 H778 0.950 . S
C790 C789 1.398 . S
C790 C791 1.391 . S
C791 H779 0.950 . S
C791 C787 1.393 . S
C791 C790 1.391 . S
H792 C800 0.950 . S
H793 C805 0.950 . S
H794 C802 0.950 . S
H795 C804 0.950 . S
H796 C806 0.950 . S
H797 C808 0.950 . S
H798 C810 0.950 . S
H799 C811 0.950 . S
C800 H792 0.950 . S
C800 C801 1.386 . S
C800 C802 1.391 . S
C801 C800 1.386 . S
C801 C805 1.393 . S
C802 H794 0.950 . S
C802 C800 1.391 . S
C802 C803 1.400 . S
C803 C802 1.400 . S
C803 C804 1.398 . S
C803 C809 1.491 . S
C804 H795 0.950 . S
C804 C803 1.398 . S
C804 C805 1.391 . S
C805 H793 0.950 . S
C805 C801 1.393 . S
C805 C804 1.391 . S
C806 H796 0.950 . S
C806 C807 1.386 . S
C806 C808 1.391 . S
C807 C806 1.386 . S
C807 C811 1.393 . S
C808 H797 0.950 . S
C808 C806 1.391 . S
C808 C809 1.400 . S
C809 C803 1.491 . S
C809 C808 1.400 . S
C809 C810 1.398 . S
C810 H798 0.950 . S
C810 C809 1.398 . S
C810 C811 1.391 . S
C811 H799 0.950 . S
C811 C807 1.393 . S
C811 C810 1.391 . S
H812 C820 0.950 . S
H813 C825 0.950 . S
H814 C822 0.950 . S
H815 C824 0.950 . S
H816 C826 0.950 . S
H817 C828 0.950 . S
H818 C830 0.950 . S
H819 C831 0.950 . S
C820 H812 0.950 . S
C820 C821 1.386 . S
C820 C822 1.391 . S
C821 C820 1.386 . S
C821 C825 1.393 . S
C822 H814 0.950 . S
C822 C820 1.391 . S
C822 C823 1.400 . S
C823 C822 1.400 . S
C823 C824 1.398 . S
C823 C829 1.491 . S
C824 H815 0.950 . S
C824 C823 1.398 . S
C824 C825 1.391 . S
C825 H813 0.950 . S
C825 C821 1.393 . S
C825 C824 1.391 . S
C826 H816 0.950 . S
C826 C827 1.386 . S
C826 C828 1.391 . S
C827 C826 1.386 . S
C827 C831 1.393 . S
C828 H817 0.950 . S
C828 C826 1.391 . S
C828 C829 1.400 . S
C829 C823 1.491 . S
C829 C828 1.400 . S
C829 C830 1.398 . S
C830 H818 0.950 . S
C830 C829 1.398 . S
C830 C831 1.391 . S
C831 H819 0.950 . S
C831 C827 1.393 . S
C831 C830 1.391 . S
H832 C840 0.950 . S
H833 C845 0.950 . S
H834 C842 0.950 . S
H835 C844 0.950 . S
H836 C846 0.950 . S
H837 C848 0.950 . S
H838 C850 0.950 . S
H839 C851 0.950 . S
C840 H832 0.950 . S
C840 C841 1.386 . S
C840 C842 1.391 . S
C841 C840 1.386 . S
C841 C845 1.393 . S
C842 H834 0.950 . S
C842 C840 1.391 . S
C842 C843 1.400 . S
C843 C842 1.400 . S
C843 C844 1.398 . S
C843 C849 1.491 . S
C844 H835 0.950 . S
C844 C843 1.398 . S
C844 C845 1.391 . S
C845 H833 0.950 . S
C845 C841 1.393 . S
C845 C844 1.391 . S
C846 H836 0.950 . S
C846 C847 1.386 . S
C846 C848 1.391 . S
C847 C846 1.386 . S
C847 C851 1.393 . S
C848 H837 0.950 . S
C848 C846 1.391 . S
C848 C849 1.400 . S
C849 C843 1.491 . S
C849 C848 1.400 . S
C849 C850 1.398 . S
C850 H838 0.950 . S
C850 C849 1.398 . S
C850 C851 1.391 . S
C851 H839 0.950 . S
C851 C847 1.393 . S
C851 C850 1.391 . S
H852 C860 0.950 . S
H853 C865 0.950 . S
H854 C862 0.950 . S
H855 C864 0.950 . S
H856 C866 0.950 . S
H857 C868 0.950 . S
H858 C870 0.950 . S
H859 C871 0.950 . S
C860 H852 0.950 . S
C860 C861 1.386 . S
C860 C862 1.391 . S
C861 C860 1.386 . S
C861 C865 1.393 . S
C862 H854 0.950 . S
C862 C860 1.391 . S
C862 C863 1.400 . S
C863 C862 1.400 . S
C863 C864 1.398 . S
C863 C869 1.491 . S
C864 H855 0.950 . S
C864 C863 1.398 . S
C864 C865 1.391 . S
C865 H853 0.950 . S
C865 C861 1.393 . S
C865 C864 1.391 . S
C866 H856 0.950 . S
C866 C867 1.386 . S
C866 C868 1.391 . S
C867 C866 1.386 . S
C867 C871 1.393 . S
C868 H857 0.950 . S
C868 C866 1.391 . S
C868 C869 1.400 . S
C869 C863 1.491 . S
C869 C868 1.400 . S
C869 C870 1.398 . S
C870 H858 0.950 . S
C870 C869 1.398 . S
C870 C871 1.391 . S
C871 H859 0.950 . S
C871 C867 1.393 . S
C871 C870 1.391 . S
H872 C880 0.950 . S
H873 C885 0.950 . S
H874 C882 0.950 . S
H875 C884 0.950 . S
H876 C886 0.950 . S
H877 C888 0.950 . S
H878 C890 0.950 . S
H879 C891 0.950 . S
C880 H872 0.950 . S
C880 C881 1.386 . S
C880 C882 1.391 . S
C881 C880 1.386 . S
C881 C885 1.393 . S
C882 H874 0.950 . S
C882 C880 1.391 . S
C882 C883 1.400 . S
C883 C882 1.400 . S
C883 C884 1.398 . S
C883 C889 1.491 . S
C884 H875 0.950 . S
C884 C883 1.398 . S
C884 C885 1.391 . S
C885 H873 0.950 . S
C885 C881 1.393 . S
C885 C884 1.391 . S
C886 H876 0.950 . S
C886 C887 1.386 . S
C886 C888 1.391 . S
C887 C886 1.386 . S
C887 C891 1.393 . S
C888 H877 0.950 . S
C888 C886 1.391 . S
C888 C889 1.400 . S
C889 C883 1.491 . S
C889 C888 1.400 . S
C889 C890 1.398 . S
C890 H878 0.950 . S
C890 C889 1.398 . S
C890 C891 1.391 . S
C891 H879 0.950 . S
C891 C887 1.393 . S
C891 C890 1.391 . S
H892 C900 0.950 . S
H893 C905 0.950 . S
H894 C902 0.950 . S
H895 C904 0.950 . S
H896 C906 0.950 . S
H897 C908 0.950 . S
H898 C910 0.950 . S
H899 C911 0.950 . S
C900 H892 0.950 . S
C900 C901 1.386 . S
C900 C902 1.391 . S
C901 C900 1.386 . S
C901 C905 1.393 . S
C902 H894 0.950 . S
C902 C900 1.391 . S
C902 C903 1.400 . S
C903 C902 1.400 . S
C903 C904 1.398 . S
C903 C909 1.491 . S
C904 H895 0.950 . S
C904 C903 1.398 . S
C904 C905 1.391 . S
C905 H893 0.950 . S
C905 C901 1.393 . S
C905 C904 1.391 . S
C906 H896 0.950 . S
C906 C907 1.386 . S
C906 C908 1.391 . S
C907 C906 1.386 . S
C907 C911 1.393 . S
C908 H897 0.950 . S
C908 C906 1.391 . S
C908 C909 1.400 . S
C909 C903 1.491 . S
C909 C908 1.400 . S
C909 C910 1.398 . S
C910 H898 0.950 . S
C910 C909 1.398 . S
C910 C911 1.391 . S
C911 H899 0.950 . S
C911 C907 1.393 . S
C911 C910 1.391 . S
H912 C920 0.950 . S
H913 C925 0.950 . S
H914 C922 0.950 . S
H915 C924 0.950 . S
H916 C926 0.950 . S
H917 C928 0.950 . S
H918 C930 0.950 . S
H919 C931 0.950 . S
C920 H912 0.950 . S
C920 C921 1.386 . S
C920 C922 1.391 . S
C921 C920 1.386 . S
C921 C925 1.393 . S
C922 H914 0.950 . S
C922 C920 1.391 . S
C922 C923 1.400 . S
C923 C922 1.400 . S
C923 C924 1.398 . S
C923 C929 1.491 . S
C924 H915 0.950 . S
C924 C923 1.398 . S
C924 C925 1.391 . S
C925 H913 0.950 . S
C925 C921 1.393 . S
C925 C924 1.391 . S
C926 H916 0.950 . S
C926 C927 1.386 . S
C926 C928 1.391 . S
C927 C926 1.386 . S
C927 C931 1.393 . S
C928 H917 0.950 . S
C928 C926 1.391 . S
C928 C929 1.400 . S
C929 C923 1.491 . S
C929 C928 1.400 . S
C929 C930 1.398 . S
C930 H918 0.950 . S
C930 C929 1.398 . S
C930 C931 1.391 . S
C931 H919 0.950 . S
C931 C927 1.393 . S
C931 C930 1.391 . S
H932 C940 0.950 . S
H933 C945 0.950 . S
H934 C942 0.950 . S
H935 C944 0.950 . S
H936 C946 0.947 1_655 S
H937 C948 0.966 . S
H938 C950 0.950 . S
H939 C951 0.950 . S
C940 H932 0.950 . S
C940 C941 1.386 . S
C940 C942 1.391 . S
C941 C940 1.386 . S
C941 C945 1.393 1_455 S
C942 H934 0.950 . S
C942 C940 1.391 . S
C942 C943 1.400 . S
C943 C942 1.400 . S
C943 C944 1.398 1_455 S
C943 C949 1.491 . S
C944 H935 0.950 . S
C944 C943 1.398 1_655 S
C944 C945 1.391 . S
C945 H933 0.950 . S
C945 C941 1.393 1_655 S
C945 C944 1.391 . S
C946 H936 0.947 1_455 S
C946 C947 1.389 . S
C946 C948 1.390 1_455 S
C947 C946 1.389 . S
C947 C951 1.393 . S
C948 H937 0.966 . S
C948 C946 1.390 1_655 S
C948 C949 1.385 1_655 S
C949 C943 1.491 . S
C949 C948 1.385 1_455 S
C949 C950 1.398 . S
C950 H938 0.950 . S
C950 C949 1.398 . S
C950 C951 1.391 . S
C951 H939 0.950 . S
C951 C947 1.393 . S
C951 C950 1.391 . S
H952 C960 0.950 . S
H953 C965 0.950 . S
H954 C962 0.950 . S
H955 C964 0.950 . S
H956 C966 0.950 . S
H957 C968 0.950 . S
H958 C970 0.950 . S
H959 C971 0.950 . S
C960 H952 0.950 . S
C960 C961 1.386 . S
C960 C962 1.391 . S
C961 C960 1.386 . S
C961 C965 1.393 . S
C962 H954 0.950 . S
C962 C960 1.391 . S
C962 C963 1.400 . S
C963 C962 1.400 . S
C963 C964 1.398 . S
C963 C969 1.491 . S
C964 H955 0.950 . S
C964 C963 1.398 . S
C964 C965 1.391 . S
C965 H953 0.950 . S
C965 C961 1.393 . S
C965 C964 1.391 . S
C966 H956 0.950 . S
C966 C967 1.386 . S
C966 C968 1.391 . S
C967 C966 1.386 . S
C967 C971 1.393 . S
C968 H957 0.950 . S
C968 C966 1.391 . S
C968 C969 1.400 . S
C969 C963 1.491 . S
C969 C968 1.400 . S
C969 C970 1.398 . S
C970 H958 0.950 . S
C970 C969 1.398 . S
C970 C971 1.391 . S
C971 H959 0.950 . S
C971 C967 1.393 . S
C971 C970 1.391 . S
H972 C980 0.950 . S
H973 C985 0.950 . S
H974 C982 0.950 . S
H975 C984 0.950 . S
H976 C986 0.950 . S
H977 C988 0.950 . S
H978 C990 0.950 . S
H979 C991 0.950 . S
C980 H972 0.950 . S
C980 C981 1.386 . S
C980 C982 1.391 . S
C981 C980 1.386 . S
C981 C985 1.393 . S
C982 H974 0.950 . S
C982 C980 1.391 . S
C982 C983 1.400 . S
C983 C982 1.400 . S
C983 C984 1.398 . S
C983 C989 1.491 . S
C984 H975 0.950 . S
C984 C983 1.398 . S
C984 C985 1.391 . S
C985 H973 0.950 . S
C985 C981 1.393 . S
C985 C984 1.391 . S
C986 H976 0.950 . S
C986 C987 1.386 . S
C986 C988 1.391 . S
C987 C986 1.386 . S
C987 C991 1.393 . S
C988 H977 0.950 . S
C988 C986 1.391 . S
C988 C989 1.400 . S
C989 C983 1.491 . S
C989 C988 1.400 . S
C989 C990 1.398 . S
C990 H978 0.950 . S
C990 C989 1.398 . S
C990 C991 1.391 . S
C991 H979 0.950 . S
C991 C987 1.393 . S
C991 C990 1.391 . S
H992 C1000 0.950 1_554 S
H993 C1005 0.950 . S
H994 C1002 0.950 1_554 S
H995 C1004 0.950 . S
H996 C1006 0.950 . S
H997 C1008 0.950 . S
H998 C1010 0.950 1_554 S
H999 C1011 0.950 1_554 S
C1000 H992 0.950 1_556 S
C1000 C1001 1.386 . S
C1000 C1002 1.391 . S
C1001 C1000 1.386 . S
C1001 C1005 1.393 . S
C1002 H994 0.950 1_556 S
C1002 C1000 1.391 . S
C1002 C1003 1.400 . S
C1003 C1002 1.400 . S
C1003 C1004 1.398 . S
C1003 C1009 1.491 . S
C1004 H995 0.950 . S
C1004 C1003 1.398 . S
C1004 C1005 1.391 . S
C1005 H993 0.950 . S
C1005 C1001 1.393 . S
C1005 C1004 1.391 . S
C1006 H996 0.950 . S
C1006 C1007 1.386 . S
C1006 C1008 1.391 . S
C1007 C1006 1.386 . S
C1007 C1011 1.393 . S
C1008 H997 0.950 . S
C1008 C1006 1.391 . S
C1008 C1009 1.400 . S
C1009 C1003 1.491 . S
C1009 C1008 1.400 . S
C1009 C1010 1.398 . S
C1010 H998 0.950 1_556 S
C1010 C1009 1.398 . S
C1010 C1011 1.391 . S
C1011 H999 0.950 1_556 S
C1011 C1007 1.393 . S
C1011 C1010 1.391 . S
H1012 C1020 0.950 . S
H1013 C1025 0.950 . S
H1014 C1022 0.950 . S
H1015 C1024 0.950 . S
H1016 C1026 0.950 . S
H1017 C1028 0.950 . S
H1018 C1030 0.950 . S
H1019 C1031 0.950 . S
C1020 H1012 0.950 . S
C1020 C1021 1.386 . S
C1020 C1022 1.391 . S
C1021 C1020 1.386 . S
C1021 C1025 1.393 . S
C1022 H1014 0.950 . S
C1022 C1020 1.391 . S
C1022 C1023 1.400 . S
C1023 C1022 1.400 . S
C1023 C1024 1.398 . S
C1023 C1029 1.491 . S
C1024 H1015 0.950 . S
C1024 C1023 1.398 . S
C1024 C1025 1.391 . S
C1025 H1013 0.950 . S
C1025 C1021 1.393 . S
C1025 C1024 1.391 . S
C1026 H1016 0.950 . S
C1026 C1027 1.386 . S
C1026 C1028 1.391 . S
C1027 C1026 1.386 . S
C1027 C1031 1.393 . S
C1028 H1017 0.950 . S
C1028 C1026 1.391 . S
C1028 C1029 1.400 . S
C1029 C1023 1.491 . S
C1029 C1028 1.400 . S
C1029 C1030 1.398 . S
C1030 H1018 0.950 . S
C1030 C1029 1.398 . S
C1030 C1031 1.391 . S
C1031 H1019 0.950 . S
C1031 C1027 1.393 . S
C1031 C1030 1.391 . S
H1032 C1040 0.950 . S
H1033 C1045 0.950 . S
H1034 C1042 0.950 . S
H1035 C1044 0.950 . S
H1036 C1046 0.950 . S
H1037 C1048 0.950 . S
H1038 C1050 0.950 . S
H1039 C1051 0.950 . S
C1040 H1032 0.950 . S
C1040 C1041 1.386 . S
C1040 C1042 1.391 . S
C1041 C1040 1.386 . S
C1041 C1045 1.393 . S
C1042 H1034 0.950 . S
C1042 C1040 1.391 . S
C1042 C1043 1.400 . S
C1043 C1042 1.400 . S
C1043 C1044 1.398 . S
C1043 C1049 1.491 . S
C1044 H1035 0.950 . S
C1044 C1043 1.398 . S
C1044 C1045 1.391 . S
C1045 H1033 0.950 . S
C1045 C1041 1.393 . S
C1045 C1044 1.391 . S
C1046 H1036 0.950 . S
C1046 C1047 1.386 . S
C1046 C1048 1.391 . S
C1047 C1046 1.386 . S
C1047 C1051 1.393 . S
C1048 H1037 0.950 . S
C1048 C1046 1.391 . S
C1048 C1049 1.400 . S
C1049 C1043 1.491 . S
C1049 C1048 1.400 . S
C1049 C1050 1.398 . S
C1050 H1038 0.950 . S
C1050 C1049 1.398 . S
C1050 C1051 1.391 . S
C1051 H1039 0.950 . S
C1051 C1047 1.393 . S
C1051 C1050 1.391 . S
H1052 C1060 0.950 . S
H1053 C1065 0.950 . S
H1054 C1062 0.950 . S
H1055 C1064 0.950 . S
H1056 C1066 0.950 . S
H1057 C1068 0.950 . S
H1058 C1070 0.950 . S
H1059 C1071 0.950 . S
C1060 H1052 0.950 . S
C1060 C1061 1.386 . S
C1060 C1062 1.391 . S
C1061 C1060 1.386 . S
C1061 C1065 1.393 . S
C1062 H1054 0.950 . S
C1062 C1060 1.391 . S
C1062 C1063 1.400 . S
C1063 C1062 1.400 . S
C1063 C1064 1.398 . S
C1063 C1069 1.491 . S
C1064 H1055 0.950 . S
C1064 C1063 1.398 . S
C1064 C1065 1.391 . S
C1065 H1053 0.950 . S
C1065 C1061 1.393 . S
C1065 C1064 1.391 . S
C1066 H1056 0.950 . S
C1066 C1067 1.386 . S
C1066 C1068 1.391 . S
C1067 C1066 1.386 . S
C1067 C1071 1.393 . S
C1068 H1057 0.950 . S
C1068 C1066 1.391 . S
C1068 C1069 1.400 . S
C1069 C1063 1.491 . S
C1069 C1068 1.400 . S
C1069 C1070 1.398 . S
C1070 H1058 0.950 . S
C1070 C1069 1.398 . S
C1070 C1071 1.391 . S
C1071 H1059 0.950 . S
C1071 C1067 1.393 . S
C1071 C1070 1.391 . S
H1072 C1080 0.950 . S
H1073 C1085 0.950 . S
H1074 C1082 0.950 . S
H1075 C1084 0.950 . S
H1076 C1086 0.950 . S
H1077 C1088 0.950 . S
H1078 C1090 0.950 . S
H1079 C1091 0.950 . S
C1080 H1072 0.950 . S
C1080 C1081 1.386 . S
C1080 C1082 1.391 . S
C1081 C1080 1.386 . S
C1081 C1085 1.393 . S
C1082 H1074 0.950 . S
C1082 C1080 1.391 . S
C1082 C1083 1.400 . S
C1083 C1082 1.400 . S
C1083 C1084 1.398 . S
C1083 C1089 1.491 . S
C1084 H1075 0.950 . S
C1084 C1083 1.398 . S
C1084 C1085 1.391 . S
C1085 H1073 0.950 . S
C1085 C1081 1.393 . S
C1085 C1084 1.391 . S
C1086 H1076 0.950 . S
C1086 C1087 1.386 . S
C1086 C1088 1.391 . S
C1087 C1086 1.386 . S
C1087 C1091 1.393 . S
C1088 H1077 0.950 . S
C1088 C1086 1.391 . S
C1088 C1089 1.400 . S
C1089 C1083 1.491 . S
C1089 C1088 1.400 . S
C1089 C1090 1.398 . S
C1090 H1078 0.950 . S
C1090 C1089 1.398 . S
C1090 C1091 1.391 . S
C1091 H1079 0.950 . S
C1091 C1087 1.393 . S
C1091 C1090 1.391 . S
H1092 C1100 0.950 . S
H1093 C1105 0.950 . S
H1094 C1102 0.950 . S
H1095 C1104 0.950 . S
H1096 C1106 0.950 . S
H1097 C1108 0.950 . S
H1098 C1110 0.950 . S
H1099 C1111 0.950 . S
C1100 H1092 0.950 . S
C1100 C1101 1.386 . S
C1100 C1102 1.391 . S
C1101 C1100 1.386 . S
C1101 C1105 1.393 . S
C1102 H1094 0.950 . S
C1102 C1100 1.391 . S
C1102 C1103 1.400 . S
C1103 C1102 1.400 . S
C1103 C1104 1.398 . S
C1103 C1109 1.491 . S
C1104 H1095 0.950 . S
C1104 C1103 1.398 . S
C1104 C1105 1.391 . S
C1105 H1093 0.950 . S
C1105 C1101 1.393 . S
C1105 C1104 1.391 . S
C1106 H1096 0.950 . S
C1106 C1107 1.386 . S
C1106 C1108 1.391 . S
C1107 C1106 1.386 . S
C1107 C1111 1.393 . S
C1108 H1097 0.950 . S
C1108 C1106 1.391 . S
C1108 C1109 1.400 . S
C1109 C1103 1.491 . S
C1109 C1108 1.400 . S
C1109 C1110 1.398 . S
C1110 H1098 0.950 . S
C1110 C1109 1.398 . S
C1110 C1111 1.391 . S
C1111 H1099 0.950 . S
C1111 C1107 1.393 . S
C1111 C1110 1.391 . S
H1112 C1120 0.950 . S
H1113 C1125 0.950 . S
H1114 C1122 0.950 . S
H1115 C1124 0.950 . S
H1116 C1126 0.950 . S
H1117 C1128 0.950 . S
H1118 C1130 0.950 . S
H1119 C1131 0.950 . S
C1120 H1112 0.950 . S
C1120 C1121 1.386 . S
C1120 C1122 1.391 . S
C1121 C1120 1.386 . S
C1121 C1125 1.393 . S
C1122 H1114 0.950 . S
C1122 C1120 1.391 . S
C1122 C1123 1.400 . S
C1123 C1122 1.400 . S
C1123 C1124 1.398 . S
C1123 C1129 1.491 . S
C1124 H1115 0.950 . S
C1124 C1123 1.398 . S
C1124 C1125 1.391 . S
C1125 H1113 0.950 . S
C1125 C1121 1.393 . S
C1125 C1124 1.391 . S
C1126 H1116 0.950 . S
C1126 C1127 1.386 . S
C1126 C1128 1.391 . S
C1127 C1126 1.386 . S
C1127 C1131 1.393 . S
C1128 H1117 0.950 . S
C1128 C1126 1.391 . S
C1128 C1129 1.400 . S
C1129 C1123 1.491 . S
C1129 C1128 1.400 . S
C1129 C1130 1.398 . S
C1130 H1118 0.950 . S
C1130 C1129 1.398 . S
C1130 C1131 1.391 . S
C1131 H1119 0.950 . S
C1131 C1127 1.393 . S
C1131 C1130 1.391 . S
H1132 C1140 0.950 . S
H1133 C1145 0.950 . S
H1134 C1142 0.950 . S
H1135 C1144 0.950 . S
H1136 C1146 0.950 . S
H1137 C1148 0.950 . S
H1138 C1150 0.950 . S
H1139 C1151 0.950 . S
C1140 H1132 0.950 . S
C1140 C1141 1.386 . S
C1140 C1142 1.391 . S
C1141 C1140 1.386 . S
C1141 C1145 1.393 . S
C1142 H1134 0.950 . S
C1142 C1140 1.391 . S
C1142 C1143 1.400 . S
C1143 C1142 1.400 . S
C1143 C1144 1.398 . S
C1143 C1149 1.491 . S
C1144 H1135 0.950 . S
C1144 C1143 1.398 . S
C1144 C1145 1.391 . S
C1145 H1133 0.950 . S
C1145 C1141 1.393 . S
C1145 C1144 1.391 . S
C1146 H1136 0.950 . S
C1146 C1147 1.386 . S
C1146 C1148 1.391 . S
C1147 C1146 1.386 . S
C1147 C1151 1.393 . S
C1148 H1137 0.950 . S
C1148 C1146 1.391 . S
C1148 C1149 1.400 . S
C1149 C1143 1.491 . S
C1149 C1148 1.400 . S
C1149 C1150 1.398 . S
C1150 H1138 0.950 . S
C1150 C1149 1.398 . S
C1150 C1151 1.391 . S
C1151 H1139 0.950 . S
C1151 C1147 1.393 . S
C1151 C1150 1.391 . S
H1152 C1160 0.950 . S
H1153 C1165 0.950 . S
H1154 C1162 0.950 . S
H1155 C1164 0.950 . S
H1156 C1166 0.950 . S
H1157 C1168 0.950 . S
H1158 C1170 0.950 1_545 S
H1159 C1171 0.950 1_545 S
C1160 H1152 0.950 . S
C1160 C1161 1.386 . S
C1160 C1162 1.391 . S
C1161 C1160 1.386 . S
C1161 C1165 1.393 . S
C1162 H1154 0.950 . S
C1162 C1160 1.391 . S
C1162 C1163 1.400 . S
C1163 C1162 1.400 . S
C1163 C1164 1.398 . S
C1163 C1169 1.491 . S
C1164 H1155 0.950 . S
C1164 C1163 1.398 . S
C1164 C1165 1.391 . S
C1165 H1153 0.950 . S
C1165 C1161 1.393 . S
C1165 C1164 1.391 . S
C1166 H1156 0.950 . S
C1166 C1167 1.386 . S
C1166 C1168 1.391 . S
C1167 C1166 1.386 . S
C1167 C1171 1.393 . S
C1168 H1157 0.950 . S
C1168 C1166 1.391 . S
C1168 C1169 1.400 . S
C1169 C1163 1.491 . S
C1169 C1168 1.400 . S
C1169 C1170 1.398 . S
C1170 H1158 0.950 1_565 S
C1170 C1169 1.398 . S
C1170 C1171 1.391 . S
C1171 H1159 0.950 1_565 S
C1171 C1167 1.393 . S
C1171 C1170 1.391 . S
H1172 C1180 0.950 . S
H1173 C1185 0.950 . S
H1174 C1182 0.950 . S
H1175 C1184 0.950 . S
H1176 C1186 0.950 . S
H1177 C1188 0.950 . S
H1178 C1190 0.950 . S
H1179 C1191 0.950 . S
C1180 H1172 0.950 . S
C1180 C1181 1.386 . S
C1180 C1182 1.391 . S
C1181 C1180 1.386 . S
C1181 C1185 1.393 . S
C1182 H1174 0.950 . S
C1182 C1180 1.391 . S
C1182 C1183 1.400 . S
C1183 C1182 1.400 . S
C1183 C1184 1.398 . S
C1183 C1189 1.491 . S
C1184 H1175 0.950 . S
C1184 C1183 1.398 . S
C1184 C1185 1.391 . S
C1185 H1173 0.950 . S
C1185 C1181 1.393 . S
C1185 C1184 1.391 . S
C1186 H1176 0.950 . S
C1186 C1187 1.386 . S
C1186 C1188 1.391 . S
C1187 C1186 1.386 . S
C1187 C1191 1.393 . S
C1188 H1177 0.950 . S
C1188 C1186 1.391 . S
C1188 C1189 1.400 . S
C1189 C1183 1.491 . S
C1189 C1188 1.400 . S
C1189 C1190 1.398 . S
C1190 H1178 0.950 . S
C1190 C1189 1.398 . S
C1190 C1191 1.391 . S
C1191 H1179 0.950 . S
C1191 C1187 1.393 . S
C1191 C1190 1.391 . S
H1192 C1200 0.950 . S
H1193 C1205 0.950 . S
H1194 C1202 0.950 . S
H1195 C1204 0.950 . S
H1196 C1206 0.950 . S
H1197 C1208 0.950 . S
H1198 C1210 0.950 . S
H1199 C1211 0.950 . S
C1200 H1192 0.950 . S
C1200 C1201 1.386 . S
C1200 C1202 1.391 . S
C1201 C1200 1.386 . S
C1201 C1205 1.393 . S
C1202 H1194 0.950 . S
C1202 C1200 1.391 . S
C1202 C1203 1.400 . S
C1203 C1202 1.400 . S
C1203 C1204 1.398 . S
C1203 C1209 1.491 . S
C1204 H1195 0.950 . S
C1204 C1203 1.398 . S
C1204 C1205 1.391 . S
C1205 H1193 0.950 . S
C1205 C1201 1.393 . S
C1205 C1204 1.391 . S
C1206 H1196 0.950 . S
C1206 C1207 1.386 . S
C1206 C1208 1.391 . S
C1207 C1206 1.386 . S
C1207 C1211 1.393 . S
C1208 H1197 0.950 . S
C1208 C1206 1.391 . S
C1208 C1209 1.400 . S
C1209 C1203 1.491 . S
C1209 C1208 1.400 . S
C1209 C1210 1.398 . S
C1210 H1198 0.950 . S
C1210 C1209 1.398 . S
C1210 C1211 1.391 . S
C1211 H1199 0.950 . S
C1211 C1207 1.393 . S
C1211 C1210 1.391 . S
H1212 C1220 0.950 . S
H1213 C1225 0.950 . S
H1214 C1222 0.950 . S
H1215 C1224 0.950 . S
H1216 C1226 0.949 1_554 S
H1217 C1228 0.950 . S
H1218 C1230 0.950 . S
H1219 C1231 0.950 . S
C1220 H1212 0.950 . S
C1220 C1221 1.386 . S
C1220 C1222 1.391 . S
C1221 C1220 1.386 . S
C1221 C1225 1.393 . S
C1222 H1214 0.950 . S
C1222 C1220 1.391 . S
C1222 C1223 1.400 . S
C1223 C1222 1.400 . S
C1223 C1224 1.398 . S
C1223 C1229 1.491 . S
C1224 H1215 0.950 . S
C1224 C1223 1.398 . S
C1224 C1225 1.391 . S
C1225 H1213 0.950 . S
C1225 C1221 1.393 . S
C1225 C1224 1.391 . S
C1226 H1216 0.949 1_556 S
C1226 C1227 1.386 . S
C1226 C1228 1.391 . S
C1227 C1226 1.386 . S
C1227 C1231 1.393 . S
C1228 H1217 0.950 . S
C1228 C1226 1.391 . S
C1228 C1229 1.400 . S
C1229 C1223 1.491 . S
C1229 C1228 1.400 . S
C1229 C1230 1.398 . S
C1230 H1218 0.950 . S
C1230 C1229 1.398 . S
C1230 C1231 1.391 . S
C1231 H1219 0.950 . S
C1231 C1227 1.393 . S
C1231 C1230 1.391 . S
H1232 C1240 0.950 . S
H1233 C1245 0.950 . S
H1234 C1242 0.950 . S
H1235 C1244 0.950 . S
H1236 C1246 0.950 . S
H1237 C1248 0.950 . S
H1238 C1250 0.950 . S
H1239 C1251 0.950 . S
C1240 H1232 0.950 . S
C1240 C1241 1.386 . S
C1240 C1242 1.391 . S
C1241 C1240 1.386 . S
C1241 C1245 1.393 . S
C1242 H1234 0.950 . S
C1242 C1240 1.391 . S
C1242 C1243 1.400 . S
C1243 C1242 1.400 . S
C1243 C1244 1.398 . S
C1243 C1249 1.491 . S
C1244 H1235 0.950 . S
C1244 C1243 1.398 . S
C1244 C1245 1.391 . S
C1245 H1233 0.950 . S
C1245 C1241 1.393 . S
C1245 C1244 1.391 . S
C1246 H1236 0.950 . S
C1246 C1247 1.386 . S
C1246 C1248 1.391 . S
C1247 C1246 1.386 . S
C1247 C1251 1.393 . S
C1248 H1237 0.950 . S
C1248 C1246 1.391 . S
C1248 C1249 1.400 . S
C1249 C1243 1.491 . S
C1249 C1248 1.400 . S
C1249 C1250 1.398 . S
C1250 H1238 0.950 . S
C1250 C1249 1.398 . S
C1250 C1251 1.391 . S
C1251 H1239 0.950 . S
C1251 C1247 1.393 . S
C1251 C1250 1.391 . S
H1252 C1260 0.950 . S
H1253 C1265 0.950 . S
H1254 C1262 0.950 . S
H1255 C1264 0.950 . S
H1256 C1266 0.950 . S
H1257 C1268 0.950 . S
H1258 C1270 0.950 . S
H1259 C1271 0.950 . S
C1260 H1252 0.950 . S
C1260 C1261 1.386 . S
C1260 C1262 1.391 . S
C1261 C1260 1.386 . S
C1261 C1265 1.393 . S
C1262 H1254 0.950 . S
C1262 C1260 1.391 . S
C1262 C1263 1.400 . S
C1263 C1262 1.400 . S
C1263 C1264 1.398 . S
C1263 C1269 1.491 . S
C1264 H1255 0.950 . S
C1264 C1263 1.398 . S
C1264 C1265 1.391 . S
C1265 H1253 0.950 . S
C1265 C1261 1.393 . S
C1265 C1264 1.391 . S
C1266 H1256 0.950 . S
C1266 C1267 1.386 . S
C1266 C1268 1.391 . S
C1267 C1266 1.386 . S
C1267 C1271 1.393 . S
C1268 H1257 0.950 . S
C1268 C1266 1.391 . S
C1268 C1269 1.400 . S
C1269 C1263 1.491 . S
C1269 C1268 1.400 . S
C1269 C1270 1.398 . S
C1270 H1258 0.950 . S
C1270 C1269 1.398 . S
C1270 C1271 1.391 . S
C1271 H1259 0.950 . S
C1271 C1267 1.393 . S
C1271 C1270 1.391 . S
H1272 C1280 0.950 . S
H1273 C1285 0.950 . S
H1274 C1282 0.950 . S
H1275 C1284 0.950 . S
H1276 C1286 0.950 . S
H1277 C1288 0.950 . S
H1278 C1290 0.950 . S
H1279 C1291 0.950 . S
C1280 H1272 0.950 . S
C1280 C1281 1.386 . S
C1280 C1282 1.391 . S
C1281 C1280 1.386 . S
C1281 C1285 1.393 . S
C1282 H1274 0.950 . S
C1282 C1280 1.391 . S
C1282 C1283 1.400 . S
C1283 C1282 1.400 . S
C1283 C1284 1.398 . S
C1283 C1289 1.491 . S
C1284 H1275 0.950 . S
C1284 C1283 1.398 . S
C1284 C1285 1.391 . S
C1285 H1273 0.950 . S
C1285 C1281 1.393 . S
C1285 C1284 1.391 . S
C1286 H1276 0.950 . S
C1286 C1287 1.386 . S
C1286 C1288 1.391 . S
C1287 C1286 1.386 . S
C1287 C1291 1.393 . S
C1288 H1277 0.950 . S
C1288 C1286 1.391 . S
C1288 C1289 1.400 . S
C1289 C1283 1.491 . S
C1289 C1288 1.400 . S
C1289 C1290 1.398 . S
C1290 H1278 0.950 . S
C1290 C1289 1.398 . S
C1290 C1291 1.391 . S
C1291 H1279 0.950 . S
C1291 C1287 1.393 . S
C1291 C1290 1.391 . S
H1292 C1300 0.950 . S
H1293 C1305 0.950 . S
H1294 C1302 0.950 . S
H1295 C1304 0.950 . S
H1296 C1306 0.950 . S
H1297 C1308 0.950 . S
H1298 C1310 0.950 . S
H1299 C1311 0.950 . S
C1300 H1292 0.950 . S
C1300 C1301 1.386 . S
C1300 C1302 1.391 . S
C1301 C1300 1.386 . S
C1301 C1305 1.393 . S
C1302 H1294 0.950 . S
C1302 C1300 1.391 . S
C1302 C1303 1.400 . S
C1303 C1302 1.400 . S
C1303 C1304 1.398 . S
C1303 C1309 1.491 . S
C1304 H1295 0.950 . S
C1304 C1303 1.398 . S
C1304 C1305 1.391 . S
C1305 H1293 0.950 . S
C1305 C1301 1.393 . S
C1305 C1304 1.391 . S
C1306 H1296 0.950 . S
C1306 C1307 1.386 . S
C1306 C1308 1.391 . S
C1307 C1306 1.386 . S
C1307 C1311 1.393 . S
C1308 H1297 0.950 . S
C1308 C1306 1.391 . S
C1308 C1309 1.400 . S
C1309 C1303 1.491 . S
C1309 C1308 1.400 . S
C1309 C1310 1.398 . S
C1310 H1298 0.950 . S
C1310 C1309 1.398 . S
C1310 C1311 1.391 . S
C1311 H1299 0.950 . S
C1311 C1307 1.393 . S
C1311 C1310 1.391 . S
H1312 C1320 0.950 . S
H1313 C1325 0.950 . S
H1314 C1322 0.950 . S
H1315 C1324 0.950 . S
H1316 C1326 0.950 . S
H1317 C1328 0.950 . S
H1318 C1330 0.950 . S
H1319 C1331 0.950 . S
C1320 H1312 0.950 . S
C1320 C1321 1.386 . S
C1320 C1322 1.391 . S
C1321 C1320 1.386 . S
C1321 C1325 1.393 . S
C1322 H1314 0.950 . S
C1322 C1320 1.391 . S
C1322 C1323 1.400 . S
C1323 C1322 1.400 . S
C1323 C1324 1.398 . S
C1323 C1329 1.491 . S
C1324 H1315 0.950 . S
C1324 C1323 1.398 . S
C1324 C1325 1.391 . S
C1325 H1313 0.950 . S
C1325 C1321 1.393 . S
C1325 C1324 1.391 . S
C1326 H1316 0.950 . S
C1326 C1327 1.386 . S
C1326 C1328 1.391 . S
C1327 C1326 1.386 . S
C1327 C1331 1.393 . S
C1328 H1317 0.950 . S
C1328 C1326 1.391 . S
C1328 C1329 1.400 . S
C1329 C1323 1.491 . S
C1329 C1328 1.400 . S
C1329 C1330 1.398 . S
C1330 H1318 0.950 . S
C1330 C1329 1.398 . S
C1330 C1331 1.391 . S
C1331 H1319 0.950 . S
C1331 C1327 1.393 . S
C1331 C1330 1.391 . S
H1332 C1340 0.950 . S
H1333 C1345 0.950 . S
H1334 C1342 0.950 . S
H1335 C1344 0.950 . S
H1336 C1346 0.950 . S
H1337 C1348 0.950 . S
H1338 C1350 0.950 . S
H1339 C1351 0.950 . S
C1340 H1332 0.950 . S
C1340 C1341 1.386 . S
C1340 C1342 1.391 . S
C1341 C1340 1.386 . S
C1341 C1345 1.393 . S
C1342 H1334 0.950 . S
C1342 C1340 1.391 . S
C1342 C1343 1.400 . S
C1343 C1342 1.400 . S
C1343 C1344 1.398 . S
C1343 C1349 1.491 . S
C1344 H1335 0.950 . S
C1344 C1343 1.398 . S
C1344 C1345 1.391 . S
C1345 H1333 0.950 . S
C1345 C1341 1.393 . S
C1345 C1344 1.391 . S
C1346 H1336 0.950 . S
C1346 C1347 1.386 . S
C1346 C1348 1.391 . S
C1347 C1346 1.386 . S
C1347 C1351 1.393 . S
C1348 H1337 0.950 . S
C1348 C1346 1.391 . S
C1348 C1349 1.400 . S
C1349 C1343 1.491 . S
C1349 C1348 1.400 . S
C1349 C1350 1.398 . S
C1350 H1338 0.950 . S
C1350 C1349 1.398 . S
C1350 C1351 1.391 . S
C1351 H1339 0.950 . S
C1351 C1347 1.393 . S
C1351 C1350 1.391 . S
H1352 C1360 0.950 . S
H1353 C1365 0.950 . S
H1354 C1362 0.950 . S
H1355 C1364 0.950 . S
H1356 C1366 0.950 . S
H1357 C1368 0.950 . S
H1358 C1370 0.950 . S
H1359 C1371 0.950 . S
C1360 H1352 0.950 . S
C1360 C1361 1.386 . S
C1360 C1362 1.391 . S
C1361 C1360 1.386 . S
C1361 C1365 1.393 . S
C1362 H1354 0.950 . S
C1362 C1360 1.391 . S
C1362 C1363 1.400 . S
C1363 C1362 1.400 . S
C1363 C1364 1.398 . S
C1363 C1369 1.491 . S
C1364 H1355 0.950 . S
C1364 C1363 1.398 . S
C1364 C1365 1.391 . S
C1365 H1353 0.950 . S
C1365 C1361 1.393 . S
C1365 C1364 1.391 . S
C1366 H1356 0.950 . S
C1366 C1367 1.386 . S
C1366 C1368 1.391 . S
C1367 C1366 1.386 . S
C1367 C1371 1.393 . S
C1368 H1357 0.950 . S
C1368 C1366 1.391 . S
C1368 C1369 1.400 . S
C1369 C1363 1.491 . S
C1369 C1368 1.400 . S
C1369 C1370 1.398 . S
C1370 H1358 0.950 . S
C1370 C1369 1.398 . S
C1370 C1371 1.391 . S
C1371 H1359 0.950 . S
C1371 C1367 1.393 . S
C1371 C1370 1.391 . S
H1372 C1380 0.950 . S
H1373 C1385 0.950 . S
H1374 C1382 0.950 . S
H1375 C1384 0.950 . S
H1376 C1386 0.950 1_455 S
H1377 C1388 0.950 . S
H1378 C1390 0.950 . S
H1379 C1391 0.950 . S
C1380 H1372 0.950 . S
C1380 C1381 1.386 . S
C1380 C1382 1.391 . S
C1381 C1380 1.386 . S
C1381 C1385 1.393 . S
C1382 H1374 0.950 . S
C1382 C1380 1.391 . S
C1382 C1383 1.400 . S
C1383 C1382 1.400 . S
C1383 C1384 1.398 . S
C1383 C1389 1.491 . S
C1384 H1375 0.950 . S
C1384 C1383 1.398 . S
C1384 C1385 1.391 . S
C1385 H1373 0.950 . S
C1385 C1381 1.393 . S
C1385 C1384 1.391 . S
C1386 H1376 0.950 1_655 S
C1386 C1387 1.386 . S
C1386 C1388 1.391 . S
C1387 C1386 1.386 . S
C1387 C1391 1.393 . S
C1388 H1377 0.950 . S
C1388 C1386 1.391 . S
C1388 C1389 1.400 . S
C1389 C1383 1.491 . S
C1389 C1388 1.400 . S
C1389 C1390 1.398 . S
C1390 H1378 0.950 . S
C1390 C1389 1.398 . S
C1390 C1391 1.391 . S
C1391 H1379 0.950 . S
C1391 C1387 1.393 . S
C1391 C1390 1.391 . S
H1392 C1400 0.950 . S
H1393 C1405 0.950 . S
H1394 C1402 0.950 . S
H1395 C1404 0.950 . S
H1396 C1406 0.950 . S
H1397 C1408 0.950 . S
H1398 C1410 0.950 . S
H1399 C1411 0.950 . S
C1400 H1392 0.950 . S
C1400 C1401 1.386 . S
C1400 C1402 1.391 . S
C1401 C1400 1.386 . S
C1401 C1405 1.393 . S
C1402 H1394 0.950 . S
C1402 C1400 1.391 . S
C1402 C1403 1.400 . S
C1403 C1402 1.400 . S
C1403 C1404 1.398 . S
C1403 C1409 1.491 . S
C1404 H1395 0.950 . S
C1404 C1403 1.398 . S
C1404 C1405 1.391 . S
C1405 H1393 0.950 . S
C1405 C1401 1.393 . S
C1405 C1404 1.391 . S
C1406 H1396 0.950 . S
C1406 C1407 1.386 . S
C1406 C1408 1.391 . S
C1407 C1406 1.386 . S
C1407 C1411 1.393 . S
C1408 H1397 0.950 . S
C1408 C1406 1.391 . S
C1408 C1409 1.400 . S
C1409 C1403 1.491 . S
C1409 C1408 1.400 . S
C1409 C1410 1.398 . S
C1410 H1398 0.950 . S
C1410 C1409 1.398 . S
C1410 C1411 1.391 . S
C1411 H1399 0.950 . S
C1411 C1407 1.393 . S
C1411 C1410 1.391 . S
H1412 C1420 0.950 . S
H1413 C1425 0.950 . S
H1414 C1422 0.950 . S
H1415 C1424 0.950 . S
H1416 C1426 0.950 . S
H1417 C1428 0.950 . S
H1418 C1430 0.950 . S
H1419 C1431 0.950 . S
C1420 H1412 0.950 . S
C1420 C1421 1.386 . S
C1420 C1422 1.391 . S
C1421 C1420 1.386 . S
C1421 C1425 1.393 . S
C1422 H1414 0.950 . S
C1422 C1420 1.391 . S
C1422 C1423 1.400 . S
C1423 C1422 1.400 . S
C1423 C1424 1.398 . S
C1423 C1429 1.491 . S
C1424 H1415 0.950 . S
C1424 C1423 1.398 . S
C1424 C1425 1.391 . S
C1425 H1413 0.950 . S
C1425 C1421 1.393 . S
C1425 C1424 1.391 . S
C1426 H1416 0.950 . S
C1426 C1427 1.386 . S
C1426 C1428 1.391 . S
C1427 C1426 1.386 . S
C1427 C1431 1.393 . S
C1428 H1417 0.950 . S
C1428 C1426 1.391 . S
C1428 C1429 1.400 . S
C1429 C1423 1.491 . S
C1429 C1428 1.400 . S
C1429 C1430 1.398 . S
C1430 H1418 0.950 . S
C1430 C1429 1.398 . S
C1430 C1431 1.391 . S
C1431 H1419 0.950 . S
C1431 C1427 1.393 . S
C1431 C1430 1.391 . S
H1432 C1440 0.950 . S
H1433 C1445 0.950 . S
H1434 C1442 0.950 . S
H1435 C1444 0.950 . S
H1436 C1446 0.950 . S
H1437 C1448 0.950 . S
H1438 C1450 0.950 . S
H1439 C1451 0.950 . S
C1440 H1432 0.950 . S
C1440 C1441 1.386 . S
C1440 C1442 1.391 . S
C1441 C1440 1.386 . S
C1441 C1445 1.393 . S
C1442 H1434 0.950 . S
C1442 C1440 1.391 . S
C1442 C1443 1.400 . S
C1443 C1442 1.400 . S
C1443 C1444 1.398 . S
C1443 C1449 1.491 . S
C1444 H1435 0.950 . S
C1444 C1443 1.398 . S
C1444 C1445 1.391 . S
C1445 H1433 0.950 . S
C1445 C1441 1.393 . S
C1445 C1444 1.391 . S
C1446 H1436 0.950 . S
C1446 C1447 1.386 . S
C1446 C1448 1.391 . S
C1447 C1446 1.386 . S
C1447 C1451 1.393 . S
C1448 H1437 0.950 . S
C1448 C1446 1.391 . S
C1448 C1449 1.400 . S
C1449 C1443 1.491 . S
C1449 C1448 1.400 . S
C1449 C1450 1.398 . S
C1450 H1438 0.950 . S
C1450 C1449 1.398 . S
C1450 C1451 1.391 . S
C1451 H1439 0.950 . S
C1451 C1447 1.393 . S
C1451 C1450 1.391 . S
H1452 C1460 0.950 . S
H1453 C1465 0.950 . S
H1454 C1462 0.950 . S
H1455 C1464 0.950 . S
H1456 C1466 0.950 . S
H1457 C1468 0.950 . S
H1458 C1470 0.950 . S
H1459 C1471 0.950 . S
C1460 H1452 0.950 . S
C1460 C1461 1.386 . S
C1460 C1462 1.391 . S
C1461 C1460 1.386 . S
C1461 C1465 1.393 . S
C1462 H1454 0.950 . S
C1462 C1460 1.391 . S
C1462 C1463 1.400 . S
C1463 C1462 1.400 . S
C1463 C1464 1.398 . S
C1463 C1469 1.491 . S
C1464 H1455 0.950 . S
C1464 C1463 1.398 . S
C1464 C1465 1.391 . S
C1465 H1453 0.950 . S
C1465 C1461 1.393 . S
C1465 C1464 1.391 . S
C1466 H1456 0.950 . S
C1466 C1467 1.386 . S
C1466 C1468 1.391 . S
C1467 C1466 1.386 . S
C1467 C1471 1.393 . S
C1468 H1457 0.950 . S
C1468 C1466 1.391 . S
C1468 C1469 1.400 . S
C1469 C1463 1.491 . S
C1469 C1468 1.400 . S
C1469 C1470 1.398 . S
C1470 H1458 0.950 . S
C1470 C1469 1.398 . S
C1470 C1471 1.391 . S
C1471 H1459 0.950 . S
C1471 C1467 1.393 . S
C1471 C1470 1.391 . S
H1472 C1480 0.950 . S
H1473 C1485 0.950 . S
H1474 C1482 0.950 . S
H1475 C1484 0.950 . S
H1476 C1486 0.950 . S
H1477 C1488 0.950 . S
H1478 C1490 0.950 . S
H1479 C1491 0.950 . S
C1480 H1472 0.950 . S
C1480 C1481 1.386 . S
C1480 C1482 1.391 . S
C1481 C1480 1.386 . S
C1481 C1485 1.393 . S
C1482 H1474 0.950 . S
C1482 C1480 1.391 . S
C1482 C1483 1.400 . S
C1483 C1482 1.400 . S
C1483 C1484 1.398 . S
C1483 C1489 1.491 . S
C1484 H1475 0.950 . S
C1484 C1483 1.398 . S
C1484 C1485 1.391 . S
C1485 H1473 0.950 . S
C1485 C1481 1.393 . S
C1485 C1484 1.391 . S
C1486 H1476 0.950 . S
C1486 C1487 1.386 . S
C1486 C1488 1.391 . S
C1487 C1486 1.386 . S
C1487 C1491 1.393 . S
C1488 H1477 0.950 . S
C1488 C1486 1.391 . S
C1488 C1489 1.400 . S
C1489 C1483 1.491 . S
C1489 C1488 1.400 . S
C1489 C1490 1.398 . S
C1490 H1478 0.950 . S
C1490 C1489 1.398 . S
C1490 C1491 1.391 . S
C1491 H1479 0.950 . S
C1491 C1487 1.393 . S
C1491 C1490 1.391 . S
H1492 C1500 0.950 . S
H1493 C1505 0.950 . S
H1494 C1502 0.950 . S
H1495 C1504 0.950 . S
H1496 C1506 0.950 . S
H1497 C1508 0.950 . S
H1498 C1510 0.950 . S
H1499 C1511 0.950 . S
C1500 H1492 0.950 . S
C1500 C1501 1.386 . S
C1500 C1502 1.391 . S
C1501 C1500 1.386 . S
C1501 C1505 1.393 . S
C1502 H1494 0.950 . S
C1502 C1500 1.391 . S
C1502 C1503 1.400 . S
C1503 C1502 1.400 . S
C1503 C1504 1.398 . S
C1503 C1509 1.491 . S
C1504 H1495 0.950 . S
C1504 C1503 1.398 . S
C1504 C1505 1.391 . S
C1505 H1493 0.950 . S
C1505 C1501 1.393 . S
C1505 C1504 1.391 . S
C1506 H1496 0.950 . S
C1506 C1507 1.386 . S
C1506 C1508 1.391 . S
C1507 C1506 1.386 . S
C1507 C1511 1.393 . S
C1508 H1497 0.950 . S
C1508 C1506 1.391 . S
C1508 C1509 1.400 . S
C1509 C1503 1.491 . S
C1509 C1508 1.400 . S
C1509 C1510 1.398 . S
C1510 H1498 0.950 . S
C1510 C1509 1.398 . S
C1510 C1511 1.391 . S
C1511 H1499 0.950 . S
C1511 C1507 1.393 . S
C1511 C1510 1.391 . S
C561 C168 1.697 . S
C567 C7 1.677 . S
C581 N25 1.058 . S
C587 C99 1.102 . S
C601 C122 1.628 . S
C607 C53 1.587 . S
C621 N71 1.196 . S
C627 C145 1.284 . S
C641 N186 0.922 . S
C647 N2 0.995 . S
C661 C30 1.323 . S
C667 C214 1.316 . S
C681 N232 0.928 . S
C687 N48 1.039 . S
C701 C260 1.235 . S
C707 C76 1.204 . S
C721 N94 0.606 . S
C727 N209 0.577 . S
C741 N117 1.224 . S
C747 C237 1.328 . S
C761 N255 0.632 . S
C767 N140 0.615 . S
C781 C191 1.436 . S
C787 N163 1.312 . S
C801 C490 1.740 . S
C807 C283 1.735 . S
C821 N301 0.752 . S
C827 N508 0.763 . S
C841 C329 1.665 . S
C847 C536 1.680 . S
C861 N531 0.745 . S
C867 N347 0.800 . S
C881 N370 0.810 . S
C887 N485 0.754 . S
C901 C444 1.365 . S
C907 C398 1.344 . S
C921 N278 1.248 . S
C927 C375 1.319 . S
C941 C306 1.263 . S
C947 C421 1.268 . S
C961 N324 1.330 . S
C967 C352 1.408 . S
C981 N393 0.759 . S
C987 N462 0.787 . S
C1001 N416 0.949 . S
C1007 C513 1.002 . S
C1021 C467 1.038 . S
C1027 N439 0.996 . S
C1041 C108 2.547 . S
C1047 C16 2.428 . S
C1061 C131 1.852 . S
C1067 N35 1.846 . S
C1081 C154 2.729 . S
C1087 C62 2.614 . S
C1101 C177 2.251 . S
C1107 N81 2.257 . S
C1121 N196 2.329 . S
C1127 N265 2.421 . S
C1141 C223 2.129 . S
C1147 C200 2.217 . S
C1161 N242 2.038 . S
C1167 N219 2.156 . S
C1181 C246 1.668 . S
C1187 C269 1.589 . S
C1201 N426 2.286 . S
C1207 N173 2.222 . S
C1221 C292 2.139 . S
C1227 C85 2.240 . S
C1241 N12 2.277 . S
C1247 N311 2.257 . S
C1261 C39 2.549 . S
C1267 C338 2.465 . S
C1281 N127 2.067 . S
C1287 N449 2.137 . S
C1301 N104 1.376 . S
C1307 N357 1.400 . S
C1321 N150 1.443 . S
C1327 N380 1.473 . S
C1341 C384 2.064 . S
C1347 C407 2.205 . S
C1361 N288 1.774 . S
C1367 C430 1.666 . S
C1381 C361 2.008 . S
C1387 C315 2.145 . S
C1401 C453 2.210 . S
C1407 N334 2.348 . S
C1421 N472 2.234 . S
C1427 N541 2.150 . S
C1441 C476 2.261 . S
C1447 C499 2.381 . S
C1461 N518 2.489 . S
C1467 N495 2.413 . S
C1481 C545 1.672 . S
C1487 C522 1.570 . S
C1501 N58 2.514 . S
C1507 N403 2.460 . S
