# Generated by pormake.
# Topology zfl, (5)-cn, num edge types: 1
# Building blocks:
#     Node 0, Type 0, BuildingBlock: BEQFEK_clean_sbu_0, # of connection points: 5
#     Node 1, Type 0, BuildingBlock: BEQFEK_clean_sbu_0, # of connection points: 5
#     Node 2, Type 0, BuildingBlock: BEQFEK_clean_sbu_0, # of connection points: 5
#     Node 3, Type 0, BuildingBlock: BEQFEK_clean_sbu_0, # of connection points: 5
#     Node 4, Type 0, BuildingBlock: BEQFEK_clean_sbu_0, # of connection points: 5
#     Node 5, Type 0, BuildingBlock: BEQFEK_clean_sbu_0, # of connection points: 5
#     Node 6, Type 0, BuildingBlock: BEQFEK_clean_sbu_0, # of connection points: 5
#     Node 7, Type 0, BuildingBlock: BEQFEK_clean_sbu_0, # of connection points: 5
#     Node 8, Type 0, BuildingBlock: BEQFEK_clean_sbu_0, # of connection points: 5
#     Node 9, Type 0, BuildingBlock: BEQFEK_clean_sbu_0, # of connection points: 5
#     Node 10, Type 0, BuildingBlock: BEQFEK_clean_sbu_0, # of connection points: 5
#     Node 11, Type 0, BuildingBlock: BEQFEK_clean_sbu_0, # of connection points: 5
#     Node 12, Type 0, BuildingBlock: BEQFEK_clean_sbu_0, # of connection points: 5
#     Node 13, Type 0, BuildingBlock: BEQFEK_clean_sbu_0, # of connection points: 5
#     Node 14, Type 0, BuildingBlock: BEQFEK_clean_sbu_0, # of connection points: 5
#     Node 15, Type 0, BuildingBlock: BEQFEK_clean_sbu_0, # of connection points: 5
#     Edge 16, Type (0, 0), BuildingBlock: AJUNOK_clean_linker_0, # of connection points: 2
#     Edge 17, Type (0, 0), BuildingBlock: AJUNOK_clean_linker_0, # of connection points: 2
#     Edge 18, Type (0, 0), BuildingBlock: AJUNOK_clean_linker_0, # of connection points: 2
#     Edge 19, Type (0, 0), BuildingBlock: AJUNOK_clean_linker_0, # of connection points: 2
#     Edge 20, Type (0, 0), BuildingBlock: AJUNOK_clean_linker_0, # of connection points: 2
#     Edge 21, Type (0, 0), BuildingBlock: AJUNOK_clean_linker_0, # of connection points: 2
#     Edge 22, Type (0, 0), BuildingBlock: AJUNOK_clean_linker_0, # of connection points: 2
#     Edge 23, Type (0, 0), BuildingBlock: AJUNOK_clean_linker_0, # of connection points: 2
#     Edge 24, Type (0, 0), BuildingBlock: AJUNOK_clean_linker_0, # of connection points: 2
#     Edge 25, Type (0, 0), BuildingBlock: AJUNOK_clean_linker_0, # of connection points: 2
#     Edge 26, Type (0, 0), BuildingBlock: AJUNOK_clean_linker_0, # of connection points: 2
#     Edge 27, Type (0, 0), BuildingBlock: AJUNOK_clean_linker_0, # of connection points: 2
#     Edge 28, Type (0, 0), BuildingBlock: AJUNOK_clean_linker_0, # of connection points: 2
#     Edge 29, Type (0, 0), BuildingBlock: AJUNOK_clean_linker_0, # of connection points: 2
#     Edge 30, Type (0, 0), BuildingBlock: AJUNOK_clean_linker_0, # of connection points: 2
#     Edge 31, Type (0, 0), BuildingBlock: AJUNOK_clean_linker_0, # of connection points: 2
#     Edge 32, Type (0, 0), BuildingBlock: AJUNOK_clean_linker_0, # of connection points: 2
#     Edge 33, Type (0, 0), BuildingBlock: AJUNOK_clean_linker_0, # of connection points: 2
#     Edge 34, Type (0, 0), BuildingBlock: AJUNOK_clean_linker_0, # of connection points: 2
#     Edge 35, Type (0, 0), BuildingBlock: AJUNOK_clean_linker_0, # of connection points: 2
#     Edge 36, Type (0, 0), BuildingBlock: AJUNOK_clean_linker_0, # of connection points: 2
#     Edge 37, Type (0, 0), BuildingBlock: AJUNOK_clean_linker_0, # of connection points: 2
#     Edge 38, Type (0, 0), BuildingBlock: AJUNOK_clean_linker_0, # of connection points: 2
#     Edge 39, Type (0, 0), BuildingBlock: AJUNOK_clean_linker_0, # of connection points: 2
#     Edge 40, Type (0, 0), BuildingBlock: AJUNOK_clean_linker_0, # of connection points: 2
#     Edge 41, Type (0, 0), BuildingBlock: AJUNOK_clean_linker_0, # of connection points: 2
#     Edge 42, Type (0, 0), BuildingBlock: AJUNOK_clean_linker_0, # of connection points: 2
#     Edge 43, Type (0, 0), BuildingBlock: AJUNOK_clean_linker_0, # of connection points: 2
#     Edge 44, Type (0, 0), BuildingBlock: AJUNOK_clean_linker_0, # of connection points: 2
#     Edge 45, Type (0, 0), BuildingBlock: AJUNOK_clean_linker_0, # of connection points: 2
#     Edge 46, Type (0, 0), BuildingBlock: AJUNOK_clean_linker_0, # of connection points: 2
#     Edge 47, Type (0, 0), BuildingBlock: AJUNOK_clean_linker_0, # of connection points: 2
#     Edge 48, Type (0, 0), BuildingBlock: AJUNOK_clean_linker_0, # of connection points: 2
#     Edge 49, Type (0, 0), BuildingBlock: AJUNOK_clean_linker_0, # of connection points: 2
#     Edge 50, Type (0, 0), BuildingBlock: AJUNOK_clean_linker_0, # of connection points: 2
#     Edge 51, Type (0, 0), BuildingBlock: AJUNOK_clean_linker_0, # of connection points: 2
#     Edge 52, Type (0, 0), BuildingBlock: AJUNOK_clean_linker_0, # of connection points: 2
#     Edge 53, Type (0, 0), BuildingBlock: AJUNOK_clean_linker_0, # of connection points: 2
#     Edge 54, Type (0, 0), BuildingBlock: AJUNOK_clean_linker_0, # of connection points: 2
#     Edge 55, Type (0, 0), BuildingBlock: AJUNOK_clean_linker_0, # of connection points: 2
# Relax obj value: 0.172
# Max RMSD: 0.231
# Mean RMSD: 0.216
data_MOF--net-zfl--node1-BEQFEK_clean_sbu_0--edge1-AJUNOK_clean_linker_0
_symmetry_space_group_name_H-M    P1
_symmetry_Int_Tables_number       1
_symmetry_cell_setting            triclinic
loop_
_symmetry_equiv_pos_as_xyz
'x, y, z'
_cell_length_a     20.594884
_cell_length_b     20.581325
_cell_length_c     59.604775
_cell_angle_alpha  89.849865
_cell_angle_beta   90.055845
_cell_angle_gamma 90.206998
loop_
_atom_site_label
_atom_site_type_symbol
_atom_site_fract_x
_atom_site_fract_y
_atom_site_fract_z
_atom_type_partial_charge
Co0 Co 0.54255 0.04536 0.18165 0.0
Co1 Co 0.57487 0.03267 0.12932 0.0
C2 C 0.45412 0.09629 0.14559 0.0
O3 O 0.46594 0.08833 0.16645 0.0
O4 O 0.49134 0.07301 0.13083 0.0
C5 C 0.46466 0.02803 0.22196 0.0
O6 O 0.41706 0.02972 0.20729 0.0
C7 C 0.53981 0.99691 0.08344 0.0
C8 C 0.63195 0.00587 0.0648 0.0
C9 C 0.56672 0.99069 0.06226 0.0
N10 N 0.58699 0.01402 0.09796 0.0
N11 N 0.64204 0.01934 0.08669 0.0
C12 C 0.46934 0.99238 0.08952 0.0
H13 H 0.46374 0.96888 0.10618 0.0
H14 H 0.44073 0.96549 0.07681 0.0
H15 H 0.44922 0.0422 0.09056 0.0
C16 C 0.57038 0.90334 0.17815 0.0
N17 N 0.56599 0.96299 0.1689 0.0
N18 N 0.57806 0.95817 0.1473 0.0
C19 C 0.58872 0.89564 0.14198 0.0
C20 C 0.58401 0.85829 0.16136 0.0
C21 C 0.56155 0.88993 0.20265 0.0
H22 H 0.59186 0.9242 0.21251 0.0
H23 H 0.51012 0.89829 0.20731 0.0
H24 H 0.57524 0.83929 0.20696 0.0
O25 O 0.61465 0.1096 0.17703 0.0
O26 O 0.6356 0.10058 0.14039 0.0
H27 H 0.63562 0.89802 0.10996 0.0
H28 H 0.60338 0.81929 0.11708 0.0
C29 C 0.59495 0.87213 0.11829 0.0
H30 H 0.54965 0.88331 0.10905 0.0
H31 H 0.68624 0.03298 0.09386 0.0
O32 O 0.52282 0.03417 0.21487 0.0
C33 C 0.64523 0.12771 0.1594 0.0
Co34 Co 0.45672 0.56892 0.67993 0.0
Co35 Co 0.44879 0.58069 0.62643 0.0
C36 C 0.39875 0.4642 0.65128 0.0
O37 O 0.41638 0.48669 0.67024 0.0
O38 O 0.4115 0.49412 0.63308 0.0
C39 C 0.49567 0.51151 0.7226 0.0
O40 O 0.50964 0.46149 0.70986 0.0
C41 C 0.47391 0.54264 0.57936 0.0
C42 C 0.45818 0.63493 0.56123 0.0
C43 C 0.47507 0.57046 0.55805 0.0
N44 N 0.45693 0.58854 0.59432 0.0
N45 N 0.44699 0.64341 0.58329 0.0
C46 C 0.49388 0.47529 0.58578 0.0
H47 H 0.51422 0.4749 0.60304 0.0
H48 H 0.53011 0.45592 0.57377 0.0
H49 H 0.45053 0.4432 0.58559 0.0
C50 C 0.59681 0.59009 0.669 0.0
N51 N 0.5335 0.5878 0.66316 0.0
N52 N 0.52883 0.59632 0.64131 0.0
C53 C 0.58846 0.60685 0.63285 0.0
C54 C 0.63398 0.601 0.64989 0.0
C55 C 0.62188 0.57321 0.69183 0.0
H56 H 0.59267 0.59825 0.70478 0.0
H57 H 0.61751 0.52002 0.69445 0.0
H58 H 0.67357 0.58735 0.69379 0.0
O59 O 0.38725 0.63499 0.67412 0.0
O60 O 0.38238 0.64186 0.63688 0.0
H61 H 0.56973 0.65512 0.60165 0.0
H62 H 0.6538 0.63344 0.60595 0.0
C63 C 0.60275 0.61754 0.60848 0.0
H64 H 0.59462 0.57188 0.59909 0.0
H65 H 0.43366 0.68697 0.59089 0.0
O66 O 0.47306 0.56278 0.71344 0.0
C67 C 0.36137 0.65754 0.65623 0.0
Co68 Co 0.89823 0.45561 0.18 0.0
Co69 Co 0.88149 0.44569 0.12711 0.0
C70 C 0.99422 0.38621 0.15166 0.0
O71 O 0.97581 0.40733 0.17066 0.0
O72 O 0.96393 0.40027 0.1337 0.0
C73 C 0.96198 0.48775 0.22168 0.0
O74 O 0.01385 0.48597 0.20889 0.0
C75 C 0.92393 0.46998 0.08096 0.0
C76 C 0.83342 0.45841 0.06148 0.0
C77 C 0.89882 0.47342 0.05937 0.0
N78 N 0.87571 0.45351 0.09512 0.0
N79 N 0.82186 0.44587 0.08332 0.0
C80 C 0.99101 0.48775 0.08846 0.0
H81 H 0.98958 0.50862 0.10561 0.0
H82 H 0.0138 0.5229 0.07668 0.0
H83 H 0.02114 0.44319 0.08906 0.0
C84 C 0.89043 0.59654 0.16806 0.0
N85 N 0.88657 0.53294 0.16271 0.0
N86 N 0.8741 0.52772 0.14115 0.0
C87 C 0.8656 0.58742 0.13242 0.0
C88 C 0.8769 0.63355 0.14897 0.0
C89 C 0.91704 0.6202 0.18997 0.0
H90 H 0.88289 0.6071 0.20365 0.0
H91 H 0.96385 0.59572 0.19333 0.0
H92 H 0.92589 0.67323 0.19011 0.0
O93 O 0.8256 0.39086 0.17536 0.0
O94 O 0.8145 0.38598 0.13824 0.0
H95 H 0.81001 0.56543 0.10298 0.0
H96 H 0.82918 0.65056 0.10628 0.0
C97 C 0.84782 0.6004 0.10846 0.0
H98 H 0.89118 0.59421 0.09769 0.0
H99 H 0.7769 0.4337 0.09026 0.0
O100 O 0.90668 0.47601 0.21293 0.0
C101 C 0.79904 0.36655 0.15786 0.0
Co102 Co 0.04203 0.90387 0.68088 0.0
Co103 Co 0.03364 0.89093 0.62777 0.0
C104 C 0.10329 0.00012 0.64797 0.0
O105 O 0.09307 0.97792 0.66767 0.0
O106 O 0.07757 0.97418 0.63083 0.0
C107 C 0.00576 0.97004 0.72172 0.0
O108 O 0.98314 0.01354 0.70759 0.0
C109 C 0.02213 0.91581 0.57889 0.0
C110 C 0.97945 0.82386 0.56673 0.0
C111 C -0.00109 0.88513 0.55974 0.0
N112 N 0.0154 0.875 0.59648 0.0
N113 N 0.99033 0.81995 0.58899 0.0
C114 C 0.05393 0.98118 0.5803 0.0
H115 H 0.02325 0.01398 0.59051 0.0
H116 H 0.0619 0.00287 0.56347 0.0
H117 H 0.10164 0.97639 0.58878 0.0
C118 C 0.89961 0.88499 0.67526 0.0
N119 N 0.96009 0.88954 0.66681 0.0
N120 N 0.95647 0.89023 0.64478 0.0
C121 C 0.89363 0.89099 0.63854 0.0
C122 C 0.85511 0.8872 0.65765 0.0
C123 C 0.88503 0.8747 0.69963 0.0
H124 H 0.92236 0.8427 0.70724 0.0
H125 H 0.88652 0.92169 0.7086 0.0
H126 H 0.83613 0.85277 0.70188 0.0
O127 O 0.09933 0.82942 0.67603 0.0
O128 O 0.09791 0.82489 0.63875 0.0
H129 H 0.86619 0.85797 0.6059 0.0
H130 H 0.82404 0.92996 0.6148 0.0
C131 C 0.87143 0.90458 0.61505 0.0
H132 H 0.90749 0.9354 0.60621 0.0
H133 H 0.97975 0.77991 0.59917 0.0
O134 O 0.03263 0.91914 0.71401 0.0
C135 C 0.12016 0.80576 0.65769 0.0
Co136 Co 0.58632 0.46093 0.86344 0.0
Co137 Co 0.62766 0.4645 0.91499 0.0
C138 C 0.5068 0.39506 0.89711 0.0
O139 O 0.51077 0.41304 0.87666 0.0
O140 O 0.54753 0.41481 0.91156 0.0
C141 C 0.52093 0.48693 0.82012 0.0
O142 O 0.46846 0.49516 0.83228 0.0
C143 C 0.58851 0.50153 0.96018 0.0
C144 C 0.67201 0.47317 0.98124 0.0
C145 C 0.60998 0.49893 0.98224 0.0
N146 N 0.63574 0.47892 0.94674 0.0
N147 N 0.68565 0.46216 0.95943 0.0
C148 C 0.52207 0.51896 0.95201 0.0
H149 H 0.52499 0.54028 0.93491 0.0
H150 H 0.49756 0.5531 0.96355 0.0
H151 H 0.49227 0.47402 0.95103 0.0
C152 C 0.59787 0.60529 0.87157 0.0
N153 N 0.60423 0.54266 0.87803 0.0
N154 N 0.62772 0.54174 0.89855 0.0
C155 C 0.64058 0.60257 0.90527 0.0
C156 C 0.6207 0.64558 0.88873 0.0
C157 C 0.56232 0.62543 0.85079 0.0
H158 H 0.51445 0.60075 0.85038 0.0
H159 H 0.55437 0.67854 0.84995 0.0
H160 H 0.59018 0.60969 0.83585 0.0
O161 O 0.66057 0.39796 0.86797 0.0
O162 O 0.69363 0.40618 0.90347 0.0
H163 H 0.6926 0.6684 0.92701 0.0
H164 H 0.63157 0.61932 0.94058 0.0
C165 C 0.66985 0.61943 0.92753 0.0
H166 H 0.70689 0.58281 0.93222 0.0
H167 H 0.72839 0.44169 0.95327 0.0
O168 O 0.57424 0.47298 0.8299 0.0
C169 C 0.69779 0.38043 0.88409 0.0
Co170 Co 0.02836 0.59982 0.35869 0.0
Co171 Co 0.02389 0.59113 0.41175 0.0
C172 C 0.09338 0.49374 0.38769 0.0
O173 O 0.08104 0.52474 0.36962 0.0
O174 O 0.06624 0.50853 0.40608 0.0
C175 C 0.98788 0.53904 0.3176 0.0
O176 O 0.96304 0.49625 0.33159 0.0
C177 C 0.02222 0.56037 0.46046 0.0
C178 C 0.97524 0.64777 0.47431 0.0
C179 C 0.00142 0.58832 0.4804 0.0
N180 N 0.00848 0.60129 0.44341 0.0
N181 N 0.98053 0.65345 0.45187 0.0
C182 C 0.05838 0.49796 0.45771 0.0
H183 H 0.10256 0.50672 0.44749 0.0
H184 H 0.02727 0.46266 0.44859 0.0
H185 H 0.07311 0.47695 0.47408 0.0
C186 C 0.88663 0.61425 0.36579 0.0
N187 N 0.94759 0.60815 0.37368 0.0
N188 N 0.94535 0.59757 0.39541 0.0
C189 C 0.8829 0.59192 0.4018 0.0
C190 C 0.84311 0.6024 0.38323 0.0
C191 C 0.87076 0.63572 0.34239 0.0
H192 H 0.90717 0.67196 0.33662 0.0
H193 H 0.87285 0.59396 0.33077 0.0
H194 H 0.82134 0.65702 0.3416 0.0
O195 O 0.08587 0.6734 0.36526 0.0
O196 O 0.09002 0.65752 0.40216 0.0
H197 H 0.85152 0.61038 0.43533 0.0
H198 H 0.81841 0.53712 0.42339 0.0
C199 C 0.8625 0.56805 0.4245 0.0
H200 H 0.90188 0.53935 0.43237 0.0
H201 H 0.96483 0.69293 0.44229 0.0
O202 O 0.01687 0.5888 0.32548 0.0
C203 C 0.11077 0.68559 0.38439 0.0
Co204 Co 0.92203 0.03736 0.86136 0.0
Co205 Co 0.90166 0.03825 0.91359 0.0
C206 C 0.01955 0.09013 0.89399 0.0
O207 O -0.00184 0.08589 0.87398 0.0
O208 O 0.99447 0.0564 0.90956 0.0
C209 C 0.98611 0.00887 0.8186 0.0
O210 O 0.03877 0.00259 0.83086 0.0
C211 C 0.93195 0.99726 0.95921 0.0
C212 C 0.86437 0.05504 0.97972 0.0
C213 C 0.91615 0.01236 0.98116 0.0
N214 N 0.89141 0.02931 0.94538 0.0
N215 N 0.85069 0.06335 0.95776 0.0
C216 C 0.9893 0.95904 0.95143 0.0
H217 H 0.03412 0.98808 0.95416 0.0
H218 H 0.98483 0.94721 0.93334 0.0
H219 H 0.99378 0.91345 0.96125 0.0
C220 C 0.89503 0.89517 0.87105 0.0
N221 N 0.89787 0.95841 0.87701 0.0
N222 N 0.87856 0.96327 0.89794 0.0
C223 C 0.85884 0.90498 0.90547 0.0
C224 C 0.87032 0.85876 0.88901 0.0
C225 C 0.9241 0.86966 0.84983 0.0
H226 H 0.96698 0.89925 0.84514 0.0
H227 H 0.93934 0.81831 0.85157 0.0
H228 H 0.88776 0.87338 0.83614 0.0
O229 O 0.85317 0.10497 0.86505 0.0
O230 O 0.85311 0.11352 0.90228 0.0
H231 H 0.80069 0.84863 0.92853 0.0
H232 H 0.87032 0.8879 0.94078 0.0
C233 C 0.83081 0.89349 0.92833 0.0
H234 H 0.80081 0.93567 0.93338 0.0
H235 H 0.81568 0.09472 0.95122 0.0
O236 O 0.93261 0.02222 0.82822 0.0
C237 C 0.83608 0.13422 0.88298 0.0
Co238 Co 0.43952 0.92705 0.3623 0.0
Co239 Co 0.45114 0.90093 0.41487 0.0
C240 C 0.38643 0.01864 0.39763 0.0
O241 O 0.39528 0.00335 0.37709 0.0
O242 O 0.41111 0.98544 0.41339 0.0
C243 C 0.40995 0.97461 0.31706 0.0
O244 O 0.35462 0.9913 0.32632 0.0
C245 C 0.47762 0.92653 0.46233 0.0
C246 C 0.48947 0.82814 0.47659 0.0
C247 C 0.49053 0.8935 0.48215 0.0
N248 N 0.46874 0.88275 0.44586 0.0
N249 N 0.47548 0.82398 0.45453 0.0
C250 C 0.48037 -0.00152 0.4585 0.0
H251 H 0.43025 0.0181 0.4585 0.0
H252 H 0.50233 0.00932 0.44192 0.0
H253 H 0.50901 0.0232 0.47177 0.0
C254 C 0.58065 0.89558 0.36633 0.0
N255 N 0.52139 0.90374 0.37546 0.0
N256 N 0.52631 0.89675 0.39732 0.0
C257 C 0.58885 0.88714 0.40294 0.0
C258 C 0.62579 0.88471 0.38343 0.0
C259 C 0.59345 0.89862 0.34164 0.0
H260 H 0.55519 0.87124 0.33254 0.0
H261 H 0.59141 0.94999 0.33598 0.0
H262 H 0.64166 0.87802 0.33745 0.0
O263 O 0.37516 0.85585 0.36679 0.0
O264 O 0.38306 0.84079 0.40373 0.0
H265 H 0.60579 0.84321 0.435 0.0
H266 H 0.66523 0.90445 0.42753 0.0
C267 C 0.61325 0.89084 0.42662 0.0
H268 H 0.58589 0.92811 0.43591 0.0
H269 H 0.47149 0.78108 0.44532 0.0
O270 O 0.45233 0.94643 0.32923 0.0
C271 C 0.35627 0.82827 0.3849 0.0
Co272 Co 0.4038 0.9559 0.93172 0.0
Co273 Co 0.39673 0.95943 0.87872 0.0
C274 C 0.50584 0.89644 0.90036 0.0
O275 O 0.47958 0.90916 0.9192 0.0
O276 O 0.48185 0.91763 0.8821 0.0
C277 C 0.4396 0.92708 0.97771 0.0
O278 O 0.43399 0.8663 0.97129 0.0
C279 C 0.42008 0.98435 0.83061 0.0
C280 C 0.32294 0.01617 0.81947 0.0
C281 C 0.3867 0.01012 0.81238 0.0
N282 N 0.3783 0.97741 0.84781 0.0
N283 N 0.32008 0.99537 0.84088 0.0
C284 C 0.49014 0.96544 0.83173 0.0
H285 H 0.49411 0.91611 0.8391 0.0
H286 H 0.51677 -0.00041 0.84283 0.0
H287 H 0.51296 0.96502 0.81489 0.0
C288 C 0.38713 0.09696 0.92495 0.0
N289 N 0.38925 0.03597 0.91691 0.0
N290 N 0.39228 0.0382 0.89493 0.0
C291 C 0.39514 0.10081 0.88827 0.0
C292 C 0.39189 0.14056 0.90708 0.0
C293 C 0.38331 0.11272 0.94942 0.0
H294 H 0.34557 0.08187 0.95745 0.0
H295 H 0.43028 0.1012 0.9576 0.0
H296 H 0.37177 0.16478 0.95208 0.0
O297 O 0.33109 0.89411 0.92739 0.0
O298 O 0.33283 0.89358 0.89005 0.0
H299 H 0.36732 0.11831 0.85425 0.0
H300 H 0.43068 0.17172 0.86402 0.0
C301 C 0.41155 0.12141 0.86482 0.0
H302 H 0.44872 0.08848 0.85783 0.0
H303 H 0.279 0.9963 0.8511 0.0
O304 O 0.42594 0.97217 0.96387 0.0
C305 C 0.31128 0.87137 0.90866 0.0
Co306 Co 0.53194 0.40388 0.42734 0.0
Co307 Co 0.52424 0.36051 0.37633 0.0
C308 C 0.59306 0.48333 0.39185 0.0
O309 O 0.57747 0.47759 0.41244 0.0
O310 O 0.57383 0.44211 0.37746 0.0
C311 C 0.54682 0.47298 0.46949 0.0
O312 O 0.58985 0.50636 0.45794 0.0
C313 C 0.48462 0.39011 0.33067 0.0
C314 C 0.4868 0.29492 0.31367 0.0
C315 C 0.47127 0.35978 0.31044 0.0
N316 N 0.5053 0.34506 0.34537 0.0
N317 N 0.5071 0.28828 0.33508 0.0
C318 C 0.48051 0.46108 0.33597 0.0
H319 H 0.45552 0.46784 0.35228 0.0
H320 H 0.45551 0.48902 0.32264 0.0
H321 H 0.53042 0.48085 0.33772 0.0
C322 C 0.38823 0.39925 0.42042 0.0
N323 N 0.44954 0.3872 0.41365 0.0
N324 N 0.44752 0.36369 0.39318 0.0
C325 C 0.38527 0.35676 0.38681 0.0
C326 C 0.34541 0.38052 0.40352 0.0
C327 C 0.37195 0.43597 0.44128 0.0
H328 H 0.38357 0.40538 0.45609 0.0
H329 H 0.40243 0.48046 0.44227 0.0
H330 H 0.31981 0.44932 0.44183 0.0
O331 O 0.59361 0.32771 0.42407 0.0
O332 O 0.58303 0.29564 0.38854 0.0
H333 H 0.31132 0.32051 0.36444 0.0
H334 H 0.36962 0.37375 0.35181 0.0
C335 C 0.36349 0.33406 0.36418 0.0
H336 H 0.39268 0.29168 0.35888 0.0
H337 H 0.52119 0.24491 0.34275 0.0
O338 O 0.51777 0.42573 0.45997 0.0
C339 C 0.6092 0.29018 0.40783 0.0
Co340 Co 0.07347 0.54129 0.93165 0.0
Co341 Co 0.07701 0.54 0.87862 0.0
C342 C 0.96908 0.60139 0.90049 0.0
O343 O 0.99707 0.5882 0.91905 0.0
O344 O 0.9912 0.58004 0.88203 0.0
C345 C 0.01365 0.55764 0.97478 0.0
O346 O 0.98881 0.6088 0.96479 0.0
C347 C 0.0566 0.51985 0.83012 0.0
C348 C 0.15335 0.48494 0.81984 0.0
C349 C 0.09059 0.49411 0.81207 0.0
N350 N 0.09702 0.52381 0.84781 0.0
N351 N 0.15508 0.50411 0.84139 0.0
C352 C 0.98714 0.54095 0.83071 0.0
H353 H 0.98371 0.58865 0.83921 0.0
H354 H 0.95821 0.50525 0.84051 0.0
H355 H 0.96651 0.54576 0.81359 0.0
C356 C 0.09508 0.40088 0.92427 0.0
N357 N 0.08837 0.46203 0.91654 0.0
N358 N 0.08317 0.46072 0.89459 0.0
C359 C 0.08321 0.39844 0.88768 0.0
C360 C 0.09142 0.35802 0.90621 0.0
C361 C 0.10548 0.38474 0.9485 0.0
H362 H 0.14043 0.41977 0.95594 0.0
H363 H 0.05896 0.38985 0.95769 0.0
H364 H 0.12403 0.33451 0.95061 0.0
O365 O 0.14538 0.60413 0.92724 0.0
O366 O 0.13932 0.60691 0.89002 0.0
H367 H 0.11104 0.37711 0.85395 0.0
H368 H 0.04375 0.32899 0.86397 0.0
C369 C 0.06629 0.37798 0.86428 0.0
H370 H 0.03164 0.41284 0.85678 0.0
H371 H 0.19513 0.50072 0.85207 0.0
O372 O 0.05437 0.5231 0.96411 0.0
C373 C 0.16222 0.62879 0.90843 0.0
Co374 Co 0.93971 0.05732 0.43007 0.0
Co375 Co 0.94955 0.0758 0.37783 0.0
C376 C 0.88979 0.96044 0.39461 0.0
O377 O 0.89292 0.98323 0.41448 0.0
O378 O 0.92114 0.98659 0.3787 0.0
C379 C 0.97508 0.97779 0.46743 0.0
O380 O 0.99378 0.93921 0.45116 0.0
C381 C 0.97622 0.05791 0.32996 0.0
C382 C 0.0087 0.15565 0.31942 0.0
C383 C 0.00324 0.09198 0.31221 0.0
N384 N 0.96802 0.09893 0.34726 0.0
N385 N 0.98626 0.15763 0.34067 0.0
C386 C 0.95947 0.98704 0.33055 0.0
H387 H 0.99176 0.9617 0.34261 0.0
H388 H 0.96427 0.96434 0.31377 0.0
H389 H 0.90862 0.98091 0.33629 0.0
C390 C 0.08035 0.09343 0.42571 0.0
N391 N 0.02087 0.08249 0.41701 0.0
N392 N 0.02501 0.08458 0.39507 0.0
C393 C 0.0875 0.09118 0.38896 0.0
C394 C 0.12523 0.09946 0.40817 0.0
C395 C 0.09326 0.09767 0.45037 0.0
H396 H 0.05135 0.12051 0.45893 0.0
H397 H 0.09906 0.04798 0.45732 0.0
H398 H 0.13802 0.1262 0.45377 0.0
O399 O 0.87657 0.12825 0.42706 0.0
O400 O 0.87524 0.12901 0.38964 0.0
H401 H 0.11064 0.1187 0.35517 0.0
H402 H 0.16062 0.05394 0.36613 0.0
C403 C 0.11099 0.07454 0.36586 0.0
H404 H 0.07853 0.03769 0.35829 0.0
H405 H 0.98675 0.19835 0.35108 0.0
O406 O 0.9509 0.03272 0.46233 0.0
C407 C 0.85162 0.14656 0.40852 0.0
Co408 Co 0.42517 0.53809 0.10993 0.0
Co409 Co 0.40192 0.52726 0.16207 0.0
C410 C 0.5154 0.59134 0.14709 0.0
O411 O 0.49358 0.58854 0.12707 0.0
O412 O 0.49141 0.55593 0.16237 0.0
C413 C 0.47697 0.56696 0.0654 0.0
O414 O 0.47115 0.62772 0.07176 0.0
C415 C 0.41235 0.50195 0.2105 0.0
C416 C 0.31324 0.46931 0.21905 0.0
C417 C 0.37551 0.47506 0.22769 0.0
N418 N 0.37427 0.50962 0.19232 0.0
N419 N 0.31469 0.49141 0.19774 0.0
C420 C 0.4828 0.52007 0.21127 0.0
H421 H 0.48935 0.56969 0.20433 0.0
H422 H 0.51097 0.48572 0.20081 0.0
H423 H 0.50198 0.51958 0.22866 0.0
C424 C 0.38451 0.39865 0.11422 0.0
N425 N 0.39823 0.45722 0.12313 0.0
N426 N 0.39486 0.45241 0.14503 0.0
C427 C 0.38405 0.39037 0.15097 0.0
C428 C 0.37471 0.35376 0.13161 0.0
C429 C 0.38089 0.38678 0.0895 0.0
H430 H 0.35915 0.42954 0.08099 0.0
H431 H 0.43073 0.3806 0.08279 0.0
H432 H 0.3517 0.34267 0.08575 0.0
O433 O 0.35245 0.59989 0.11102 0.0
O434 O 0.3474 0.59756 0.14837 0.0
H435 H 0.35044 0.36602 0.18398 0.0
H436 H 0.41605 0.31556 0.17418 0.0
C437 C 0.39635 0.3656 0.17429 0.0
H438 H 0.43227 0.39706 0.18286 0.0
H439 H 0.27577 0.49059 0.1865 0.0
O440 O 0.45877 0.52209 0.07876 0.0
C441 C 0.33014 0.62178 0.12949 0.0
Co442 Co 0.96479 0.40965 0.60937 0.0
Co443 Co 0.95503 0.38001 0.66148 0.0
C444 C 0.89156 0.49579 0.6402 0.0
O445 O 0.91376 0.48266 0.6209 0.0
O446 O 0.90599 0.46146 0.65718 0.0
C447 C 0.99297 0.49159 0.57241 0.0
O448 O 0.99414 0.5335 0.58898 0.0
C449 C 0.9907 0.41306 0.70723 0.0
C450 C 0.96523 0.32469 0.72645 0.0
C451 C 0.99265 0.38601 0.72855 0.0
N452 N 0.96502 0.36916 0.69309 0.0
N453 N 0.94936 0.31658 0.70468 0.0
C454 C 0.01091 0.48021 0.70032 0.0
H455 H 0.97421 0.5015 0.68893 0.0
H456 H 0.05734 0.47762 0.69094 0.0
H457 H 0.01689 0.51263 0.71502 0.0
C458 C 0.10654 0.39465 0.62103 0.0
N459 N 0.04267 0.39446 0.62623 0.0
N460 N 0.03623 0.37563 0.6472 0.0
C461 C 0.09446 0.35829 0.65539 0.0
C462 C 0.14171 0.37118 0.63942 0.0
C463 C 0.1332 0.42339 0.59985 0.0
H464 H 0.10424 0.4662 0.59491 0.0
H465 H 0.18439 0.4391 0.60183 0.0
H466 H 0.1299 0.38688 0.58623 0.0
O467 O 0.90138 0.33428 0.61211 0.0
O468 O 0.89834 0.31431 0.64892 0.0
H469 H 0.15076 0.29811 0.67784 0.0
H470 H 0.10607 0.36238 0.6911 0.0
C471 C 0.10444 0.32554 0.6776 0.0
H472 H 0.06374 0.29155 0.68103 0.0
H473 H 0.92845 0.27499 0.69771 0.0
O474 O 0.98289 0.43183 0.57701 0.0
C475 C 0.87867 0.303 0.62902 0.0
Co476 Co 0.08816 0.95431 0.10997 0.0
Co477 Co 0.10286 0.94546 0.16282 0.0
C478 C 0.98925 0.88775 0.13928 0.0
O479 O 0.01141 0.90597 0.12036 0.0
O480 O 0.01731 0.90339 0.15752 0.0
C481 C 0.04276 0.93663 0.06472 0.0
O482 O 0.03327 0.87691 0.07188 0.0
C483 C 0.07301 0.97137 0.20993 0.0
C484 C 0.16984 0.96625 0.22578 0.0
C485 C 0.10548 0.98128 0.23007 0.0
N486 N 0.11657 0.95349 0.19435 0.0
N487 N 0.17415 0.94927 0.20403 0.0
C488 C 0.0018 0.97808 0.20533 0.0
H489 H 0.98381 0.93367 0.19688 0.0
H490 H 0.99358 0.01967 0.19381 0.0
H491 H 0.97339 0.98474 0.22094 0.0
C492 C 0.09655 0.09507 0.12156 0.0
N493 N 0.10127 0.03162 0.12707 0.0
N494 N 0.11242 0.02697 0.14872 0.0
C495 C 0.11916 0.087 0.15734 0.0
C496 C 0.1071 0.13243 0.14066 0.0
C497 C 0.07315 0.11845 0.09923 0.0
H498 H 0.02644 0.0941 0.09519 0.0
H499 H 0.06632 0.17184 0.09882 0.0
H500 H 0.10903 0.10459 0.08624 0.0
O501 O 0.16048 0.88867 0.1135 0.0
O502 O 0.16504 0.88403 0.15076 0.0
H503 H 0.14655 0.15362 0.18372 0.0
H504 H 0.0916 0.09018 0.19198 0.0
C505 C 0.13422 0.10155 0.1814 0.0
H506 H 0.1757 0.07151 0.18705 0.0
H507 H 0.21682 0.93733 0.19558 0.0
O508 O 0.06978 0.97729 0.07785 0.0
C509 C 0.18257 0.86342 0.13162 0.0
Co510 Co 0.54208 0.07017 0.61105 0.0
Co511 Co 0.53611 0.10415 0.66269 0.0
C512 C 0.59582 0.98318 0.64741 0.0
O513 O 0.5889 -0.00182 0.62682 0.0
O514 O 0.56809 0.01552 0.66266 0.0
C515 C 0.55977 -0.00066 0.56968 0.0
O516 O 0.60949 0.97419 0.5804 0.0
C517 C 0.50071 0.08224 0.70937 0.0
C518 C 0.506 0.17983 0.72456 0.0
C519 C 0.48972 0.11573 0.7291 0.0
N520 N 0.52102 0.12465 0.69363 0.0
N521 N 0.52481 0.18287 0.70288 0.0
C522 C 0.49522 0.01038 0.70574 0.0
H523 H 0.46736 0.0005 0.69017 0.0
H524 H 0.47233 0.98495 0.72011 0.0
H525 H 0.54466 0.99009 0.70366 0.0
C526 C 0.40079 0.09569 0.61634 0.0
N527 N 0.46175 0.09571 0.62451 0.0
N528 N 0.45958 0.1114 0.64585 0.0
C529 C 0.39738 0.1215 0.65187 0.0
C530 C 0.35758 0.11066 0.63349 0.0
C531 C 0.38343 0.07491 0.59308 0.0
H532 H 0.40922 0.10675 0.58097 0.0
H533 H 0.3998 0.02424 0.59035 0.0
H534 H 0.33034 0.07819 0.59004 0.0
O535 O 0.60656 0.14155 0.6124 0.0
O536 O 0.6079 0.15677 0.64949 0.0
H537 H 0.4045 0.16935 0.68365 0.0
H538 H 0.32333 0.14462 0.67637 0.0
C539 C 0.37523 0.13074 0.67556 0.0
H540 H 0.38176 0.08475 0.68498 0.0
H541 H 0.53889 0.2249 0.69429 0.0
O542 O 0.52605 0.04266 0.57938 0.0
C543 C 0.63111 0.16746 0.62991 0.0
C544 C 0.4989 0.9935 0.26093 0.0
C545 C 0.45032 0.01636 0.24626 0.0
C546 C 0.48548 0.97985 0.28366 0.0
C547 C 0.42303 0.98909 0.29281 0.0
H548 H 0.5476 0.9851 0.25476 0.0
H549 H 0.5246 0.96202 0.29413 0.0
S550 S 0.27899 0.05051 0.26175 0.0
N551 N 0.33731 0.049 0.24279 0.0
N552 N 0.31233 0.02399 0.28521 0.0
C553 C 0.3742 0.01271 0.27835 0.0
C554 C 0.38775 0.0261 0.25521 0.0
C555 C 0.46969 0.53452 0.78547 0.0
C556 C 0.51759 0.49461 0.79524 0.0
C557 C 0.46417 0.54138 0.76203 0.0
C558 C 0.50528 0.50734 0.74736 0.0
H559 H 0.43614 0.5609 0.79602 0.0
H560 H 0.42623 0.57224 0.75537 0.0
S561 S 0.63961 0.3976 0.76424 0.0
N562 N 0.60814 0.42203 0.78824 0.0
N563 N 0.5967 0.43345 0.74436 0.0
C564 C 0.5537 0.46768 0.75689 0.0
C565 C 0.56018 0.46176 0.78075 0.0
C566 C 0.92161 0.48128 0.26139 0.0
C567 C 0.96815 0.50384 0.24592 0.0
C568 C 0.9283 0.49314 0.28449 0.0
C569 C 0.98101 0.52931 0.29301 0.0
H570 H 0.8804 0.45292 0.25568 0.0
H571 H 0.89171 0.47391 0.29577 0.0
S572 S 0.11487 0.60172 0.25952 0.0
N573 N 0.06817 0.56544 0.24079 0.0
N574 N 0.07984 0.58877 0.28404 0.0
C575 C 0.02703 0.55355 0.27768 0.0
C576 C 0.02087 0.54048 0.2542 0.0
C577 C 0.04461 0.95267 0.7612 0.0
C578 C -0.00114 0.97959 0.74632 0.0
C579 C 0.04021 0.9627 0.78446 0.0
C580 C 0.98907 -0.00116 0.79387 0.0
H581 H 0.08489 0.92456 0.75479 0.0
H582 H 0.07705 0.94146 0.79517 0.0
S583 S 0.85509 0.07747 0.76223 0.0
N584 N 0.90002 0.04301 0.74269 0.0
N585 N 0.89091 0.06065 0.78634 0.0
C586 C 0.94229 0.02503 0.77919 0.0
C587 C 0.94745 0.01579 0.75546 0.0
C588 C 0.47132 0.07167 0.79058 0.0
C589 C 0.41296 0.03568 0.79093 0.0
C590 C 0.49552 0.09829 0.77055 0.0
C591 C 0.4621 0.09 0.75022 0.0
H592 H 0.498 0.08042 0.80595 0.0
H593 H 0.54097 0.12495 0.77092 0.0
S594 S 0.30375 0.00665 0.74244 0.0
N595 N 0.32037 0.99716 0.76936 0.0
N596 N 0.36494 0.0488 0.73189 0.0
C597 C 0.40249 0.05656 0.75046 0.0
C598 C 0.37808 0.02913 0.77079 0.0
C599 C 0.4789 0.38101 0.26938 0.0
C600 C 0.44519 0.38886 0.28963 0.0
C601 C 0.45611 0.4092 0.24946 0.0
C602 C 0.39883 0.44644 0.24908 0.0
H603 H 0.52355 0.35333 0.26898 0.0
H604 H 0.4832 0.40091 0.23418 0.0
S605 S 0.28826 0.4739 0.29714 0.0
N606 N 0.34827 0.43052 0.30777 0.0
N607 N 0.3061 0.4848 0.27037 0.0
C608 C 0.36327 0.45228 0.26906 0.0
C609 C 0.38641 0.4234 0.28935 0.0
C610 C 0.00487 0.43752 0.78937 0.0
C611 C 0.06519 0.46986 0.79034 0.0
C612 C 0.98185 0.41072 0.76927 0.0
C613 C 0.01845 0.4148 0.74946 0.0
H614 H 0.97583 0.43111 0.80433 0.0
H615 H 0.935 0.38657 0.76926 0.0
S616 S 0.18296 0.48692 0.74361 0.0
N617 N 0.1629 0.50058 0.77 0.0
N618 N 0.12078 0.44767 0.73249 0.0
C619 C 0.07985 0.44476 0.75033 0.0
C620 C 0.103 0.4727 0.77073 0.0
C621 C 0.03717 0.06238 0.25063 0.0
C622 C 0.08032 0.00939 0.25117 0.0
C623 C 0.01293 0.08955 0.27048 0.0
C624 C 0.03135 0.06487 0.29149 0.0
H625 H 0.0225 0.08357 0.23478 0.0
H626 H 0.97899 0.12954 0.26938 0.0
S627 S 0.15072 0.93381 0.30218 0.0
N628 N 0.14507 0.93758 0.27457 0.0
N629 N 0.10105 0.98997 0.31183 0.0
C630 C 0.07711 0.0144 0.29231 0.0
C631 C 0.1014 0.98648 0.27215 0.0
C632 C 0.69458 0.22345 0.14013 0.0
C633 C 0.68571 0.18766 0.16004 0.0
C634 C 0.72846 0.2824 0.13997 0.0
C635 C 0.75596 0.3084 0.15967 0.0
H636 H 0.67436 0.20637 0.12442 0.0
H637 H 0.73389 0.30719 0.12402 0.0
S638 S 0.74711 0.23357 0.21641 0.0
N639 N 0.70666 0.18264 0.20016 0.0
N640 N 0.77181 0.29315 0.19984 0.0
C641 C 0.74715 0.2734 0.17983 0.0
C642 C 0.71184 0.21322 0.18001 0.0
C643 C 0.20895 0.74659 0.63781 0.0
C644 C 0.17858 0.76333 0.65812 0.0
C645 C 0.26858 0.71426 0.63751 0.0
C646 C 0.30071 0.69656 0.65749 0.0
H647 H 0.18736 0.75983 0.62187 0.0
H648 H 0.28936 0.70287 0.62131 0.0
S649 S 0.24119 0.72695 0.71533 0.0
N650 N 0.1848 0.75836 0.69892 0.0
N651 N 0.29668 0.69716 0.6983 0.0
C652 C 0.2706 0.71213 0.67798 0.0
C653 C 0.20967 0.74533 0.67831 0.0
C654 C 0.80237 0.23779 0.90087 0.0
C655 C 0.80189 0.19757 0.88181 0.0
C656 C 0.77217 0.29832 0.90081 0.0
C657 C 0.73905 0.32161 0.88177 0.0
H658 H 0.82628 0.22256 0.91619 0.0
H659 H 0.77329 0.32603 0.91623 0.0
S660 S 0.72675 0.23727 0.82684 0.0
N661 N 0.76877 0.18689 0.8428 0.0
N662 N 0.71053 0.30076 0.84275 0.0
C663 C 0.73984 0.28298 0.86224 0.0
C664 C 0.77143 0.22104 0.86226 0.0
C665 C 0.19364 0.75848 0.3663 0.0
C666 C 0.17173 0.72456 0.38543 0.0
C667 C 0.25429 0.78971 0.36598 0.0
C668 C 0.2959 0.78829 0.38475 0.0
H669 H 0.16387 0.76075 0.35133 0.0
H670 H 0.26802 0.81614 0.35096 0.0
S671 S 0.26334 0.70354 0.43876 0.0
N672 N 0.19783 0.69 0.42351 0.0
N673 N 0.31155 0.74813 0.42283 0.0
C674 C 0.27498 0.7539 0.40392 0.0
C675 C 0.21305 0.72242 0.4043 0.0
C676 C 0.22646 0.71616 0.92805 0.0
C677 C 0.20215 0.68945 0.90797 0.0
C678 C 0.25947 0.77601 0.92826 0.0
C679 C 0.26955 0.81202 0.9084 0.0
H680 H 0.21982 0.69082 0.94383 0.0
H681 H 0.2782 0.79351 0.94412 0.0
S682 S 0.21347 0.76539 0.85134 0.0
N683 N 0.18951 0.70502 0.86763 0.0
N684 N 0.2506 0.81718 0.86812 0.0
C685 C 0.24476 0.78633 0.88823 0.0
C686 C 0.21153 0.72524 0.88798 0.0
C687 C 0.77391 0.22553 0.42602 0.0
C688 C 0.78871 0.18122 0.40885 0.0
C689 C 0.71397 0.25805 0.42644 0.0
C690 C 0.66632 0.24657 0.40989 0.0
H691 H 0.80952 0.23645 0.43886 0.0
H692 H 0.70606 0.29419 0.43931 0.0
S693 S 0.6772 0.12614 0.3637 0.0
N694 N 0.74822 0.12201 0.37645 0.0
N695 N 0.63557 0.18151 0.37748 0.0
C696 C 0.67925 0.19918 0.39349 0.0
C697 C 0.74043 0.16703 0.39288 0.0
C698 C 0.25139 0.78108 0.11125 0.0
C699 C 0.22119 0.80238 0.13107 0.0
C700 C 0.28488 0.72159 0.11055 0.0
C701 C 0.28876 0.68084 0.12958 0.0
H702 H 0.2496 0.81071 0.09622 0.0
H703 H 0.30889 0.70814 0.09509 0.0
S704 S 0.21281 0.71099 0.1851 0.0
N705 N 0.19463 0.77551 0.16995 0.0
N706 N 0.2558 0.66433 0.16837 0.0
C707 C 0.25711 0.70075 0.14928 0.0
C708 C 0.22392 0.76129 0.1501 0.0
C709 C 0.73699 0.19831 0.64669 0.0
C710 C 0.69454 0.20127 0.62825 0.0
C711 C 0.79841 0.2269 0.64593 0.0
C712 C 0.82018 0.26098 0.62681 0.0
H713 H 0.72294 0.1733 0.66196 0.0
H714 H 0.82815 0.22399 0.6609 0.0
S715 S 0.72947 0.27861 0.57326 0.0
N716 N 0.67994 0.23665 0.58963 0.0
N717 N 0.79545 0.2924 0.58832 0.0
C718 C 0.77937 0.26204 0.60781 0.0
C719 C 0.71655 0.23195 0.60853 0.0
C720 C 0.60081 0.67917 0.14762 0.0
C721 C 0.54044 0.65465 0.15456 0.0
C722 C 0.61773 0.74431 0.15186 0.0
C723 C 0.57339 0.78713 0.16208 0.0
H724 H 0.63399 0.64864 0.13834 0.0
H725 H 0.66406 0.76238 0.14586 0.0
S726 S 0.40942 0.74517 0.18345 0.0
N727 N 0.43831 0.67644 0.17349 0.0
N728 N 0.46726 0.79946 0.17929 0.0
C729 C 0.51396 0.76215 0.16972 0.0
C730 C 0.49807 0.69574 0.16634 0.0
C731 C 0.8179 0.58459 0.65398 0.0
C732 C 0.82877 0.52899 0.64089 0.0
C733 C 0.75466 0.60945 0.6565 0.0
C734 C 0.70111 0.57802 0.64654 0.0
H735 H 0.85806 0.60823 0.66245 0.0
H736 H 0.7474 0.65254 0.66657 0.0
S737 S 0.70428 0.42638 0.61308 0.0
N738 N 0.78113 0.44175 0.61889 0.0
N739 N 0.6629 0.48572 0.62479 0.0
C740 C 0.71178 0.5216 0.63393 0.0
C741 C 0.77556 0.49773 0.63083 0.0
C742 C 0.93733 0.71723 0.12735 0.0
C743 C 0.89423 0.70261 0.14491 0.0
C744 C 0.96208 0.77973 0.12443 0.0
C745 C 0.94678 0.82993 0.13946 0.0
H746 H 0.9553 0.67936 0.11645 0.0
H747 H -0.00209 0.78711 0.11135 0.0
S748 S 0.82926 0.81958 0.18634 0.0
N749 N 0.8298 0.74555 0.17563 0.0
N750 N 0.88137 0.86279 0.17133 0.0
C751 C 0.90132 0.81716 0.15647 0.0
C752 C 0.87388 0.75356 0.15891 0.0
C753 C 0.67711 0.89423 0.6413 0.0
C754 C 0.65465 0.94689 0.65405 0.0
C755 C 0.74081 0.87103 0.64397 0.0
C756 C 0.78464 0.90136 0.65884 0.0
H757 H 0.6464 0.87297 0.62848 0.0
H758 H 0.75717 0.8318 0.63332 0.0
S759 S 0.74996 0.04202 0.6957 0.0
N760 N 0.68072 0.02686 0.68284 0.0
N761 N 0.80092 0.98702 0.68624 0.0
C762 C 0.76195 0.9525 0.67218 0.0
C763 C 0.6968 0.97441 0.67015 0.0
C764 C 0.5668 0.72894 0.912 0.0
C765 C 0.60323 0.71423 0.89279 0.0
C766 C 0.54204 0.79092 0.91547 0.0
C767 C 0.55047 0.84045 0.89941 0.0
H768 H 0.55381 0.69134 0.92393 0.0
H769 H 0.51118 0.79802 0.92996 0.0
S770 S 0.65152 0.82993 0.84808 0.0
N771 N 0.65539 0.75639 0.85921 0.0
N772 N 0.60471 0.87302 0.8649 0.0
C773 C 0.59048 0.82781 0.8808 0.0
C774 C 0.6176 0.76461 0.87764 0.0
C775 C 0.66799 0.57642 0.40051 0.0
C776 C 0.64722 0.52767 0.38557 0.0
C777 C 0.72962 0.60521 0.39838 0.0
C778 C 0.77313 0.58529 0.38158 0.0
H779 H 0.63825 0.58945 0.41477 0.0
H780 H 0.74504 0.63989 0.41094 0.0
S781 S 0.73996 0.46454 0.33679 0.0
N782 N 0.67239 0.46717 0.35154 0.0
N783 N 0.78938 0.51696 0.34889 0.0
C784 C 0.75113 0.54029 0.36558 0.0
C785 C 0.68778 0.51263 0.36723 0.0
C786 C 0.91653 0.771 0.91266 0.0
C787 C 0.88106 0.78861 0.89346 0.0
C788 C 0.93731 0.70751 0.91607 0.0
C789 C 0.92623 0.659 0.89992 0.0
H790 H 0.93288 0.8073 0.92449 0.0
H791 H 0.96804 0.69849 0.9305 0.0
S792 S 0.82598 0.67703 0.84856 0.0
N793 N 0.82641 0.75036 0.85981 0.0
N794 N 0.87005 0.63073 0.86536 0.0
C795 C 0.88677 0.67452 0.88138 0.0
C796 C 0.86343 0.7394 0.87829 0.0
C797 C 0.72494 0.94045 0.3695 0.0
C798 C 0.6976 0.88962 0.38208 0.0
C799 C 0.78994 0.95778 0.37214 0.0
C800 C 0.82972 0.92654 0.38804 0.0
H801 H 0.69502 0.97073 0.35886 0.0
H802 H 0.80732 0.00017 0.3631 0.0
S803 S 0.78559 0.782 0.42178 0.0
N804 N 0.71868 0.79967 0.4077 0.0
N805 N 0.84016 0.83704 0.41432 0.0
C806 C 0.80484 0.87243 0.39946 0.0
C807 C 0.73897 0.85266 0.39598 0.0
C808 C 0.41206 0.3187 0.89138 0.0
C809 C 0.46886 0.33603 0.90308 0.0
C810 C 0.384 0.25666 0.89406 0.0
C811 C 0.41294 0.20951 0.908 0.0
H812 H 0.39064 0.35229 0.87949 0.0
H813 H 0.3415 0.24421 0.88422 0.0
S814 S 0.56302 0.22949 0.94176 0.0
N815 N 0.55182 0.30072 0.92972 0.0
N816 N 0.50191 0.18401 0.9332 0.0
C817 C 0.46861 0.22681 0.92017 0.0
C818 C 0.4959 0.2901 0.91807 0.0
C819 C 0.16311 0.40799 0.40539 0.0
C820 C 0.15476 0.45708 0.3891 0.0
C821 C 0.22503 0.38281 0.41018 0.0
C822 C 0.28025 0.40724 0.3992 0.0
H823 H 0.12179 0.3902 0.41485 0.0
H824 H 0.22988 0.34482 0.42268 0.0
S825 S 0.28602 0.53915 0.35681 0.0
N826 N 0.20821 0.53021 0.36262 0.0
N827 N 0.3238 0.48484 0.37241 0.0
C828 C 0.27271 0.45646 0.38312 0.0
C829 C 0.21011 0.4808 0.37782 0.0
C830 C 0.09766 0.18213 0.88714 0.0
C831 C 0.0502 0.15237 0.90065 0.0
C832 C 0.11489 0.24766 0.89032 0.0
C833 C 0.08342 0.28622 0.90651 0.0
H834 H 0.11948 0.15547 0.87346 0.0
H835 H 0.15034 0.26938 0.87915 0.0
S836 S 0.95513 0.23139 0.94599 0.0
N837 N 0.97423 0.16588 0.93162 0.0
N838 N 0.00248 0.28948 0.93608 0.0
C839 C 0.0375 0.25637 0.92057 0.0
C840 C 0.02181 0.18935 0.91796 0.0
C841 C 0.2923 0.038 0.42244 0.0
C842 C 0.32929 0.05833 0.40375 0.0
C843 C 0.22739 0.05574 0.42481 0.0
C844 C 0.19748 0.09728 0.40928 0.0
H845 H 0.31091 0.00208 0.43409 0.0
H846 H 0.19956 0.03158 0.43774 0.0
S847 S 0.27859 0.1798 0.36141 0.0
N848 N 0.33469 0.13069 0.37161 0.0
N849 N 0.21447 0.17113 0.37781 0.0
C850 C 0.23686 0.1262 0.39261 0.0
C851 C 0.30227 0.10502 0.38939 0.0
C852 C 0.43429 0.18626 0.11897 0.0
C853 C 0.41313 0.1511 0.13801 0.0
C854 C 0.41642 0.25072 0.11562 0.0
C855 C 0.37386 0.28165 0.13043 0.0
H856 H 0.47133 0.16709 0.10794 0.0
H857 H 0.44178 0.27766 0.10273 0.0
S858 S 0.28469 0.20312 0.17734 0.0
N859 N 0.33601 0.14688 0.16875 0.0
N860 N 0.29549 0.26635 0.16059 0.0
C861 C 0.34272 0.24327 0.1469 0.0
C862 C 0.36405 0.17839 0.1512 0.0
C863 C 0.29573 0.42689 0.66776 0.0
C864 C 0.34298 0.41892 0.65098 0.0
C865 C 0.23149 0.40836 0.66412 0.0
C866 C 0.21222 0.37814 0.64405 0.0
H867 H 0.30628 0.4545 0.68279 0.0
H868 H 0.19605 0.42273 0.67652 0.0
S869 S 0.32122 0.32865 0.59776 0.0
N870 N 0.36893 0.36893 0.61522 0.0
N871 N 0.24831 0.32815 0.60933 0.0
C872 C 0.26059 0.36175 0.62846 0.0
C873 C 0.32602 0.38319 0.63176 0.0
C874 C 0.08281 0.31548 0.13625 0.0
C875 C 0.03177 0.32565 0.15149 0.0
C876 C 0.10902 0.25301 0.1332 0.0
C877 C 0.0831 0.19904 0.1447 0.0
H878 H 0.10138 0.35559 0.12632 0.0
H879 H 0.14839 0.24651 0.12139 0.0
S880 S 0.94399 0.19947 0.18426 0.0
N881 N 0.95477 0.27644 0.17741 0.0
N882 N 0.00032 0.15937 0.17042 0.0
C883 C 0.03138 0.20882 0.15964 0.0
C884 C 0.00661 0.2721 0.16334 0.0
C885 C 0.23805 0.12543 0.64072 0.0
C886 C 0.29086 0.08496 0.63535 0.0
C887 C 0.17606 0.09884 0.64496 0.0
C888 C 0.16619 0.03136 0.64391 0.0
H889 H 0.24508 0.17749 0.64201 0.0
H890 H 0.13619 0.13077 0.64914 0.0
S891 S 0.28897 0.90527 0.6314 0.0
N892 N 0.32923 0.97459 0.63001 0.0
N893 N 0.21344 0.92516 0.63739 0.0
C894 C 0.21859 0.991 0.63847 0.0
C895 C 0.28089 0.01766 0.63432 0.0
C896 C 0.50241 0.00251 1.00268 0.0
C897 C 0.46903 0.94316 0.99981 0.0
C898 C 0.53452 0.01721 0.02285 0.0
C899 C 0.53338 0.97372 0.04104 0.0
H900 H 0.50499 0.03742 0.98907 0.0
H901 H 0.55997 0.06317 0.0243 0.0
S902 S 0.45203 0.81292 0.04264 0.0
N903 N 0.43631 0.84114 1.01724 0.0
N904 N 0.49678 0.86902 0.05505 0.0
C905 C 0.50004 0.91454 0.03853 0.0
C906 C 0.46778 0.89923 1.01796 0.0
C907 C 0.53845 0.57572 0.52245 0.0
C908 C 0.49482 0.54159 0.53628 0.0
C909 C 0.55592 0.55215 0.50125 0.0
C910 C 0.52973 0.49382 0.49273 0.0
H911 H 0.5593 0.62129 0.52806 0.0
H912 H 0.58949 0.58084 0.49132 0.0
S913 S 0.41124 0.38708 0.52218 0.0
N914 N 0.42449 0.44721 0.53991 0.0
N915 N 0.45714 0.40254 0.50008 0.0
C916 C 0.48598 0.45901 0.50648 0.0
C917 C 0.46859 0.48295 0.52822 0.0
C918 C 0.90285 0.5446 0.02556 0.0
C919 C 0.93134 0.49527 0.03851 0.0
C920 C 0.93107 0.56551 1.0054 0.0
C921 C 0.98838 0.53707 0.9971 0.0
H922 H 0.85831 0.56739 0.03109 0.0
H923 H 0.9067 0.60343 0.99602 0.0
S924 S 0.08107 0.40444 0.02464 0.0
N925 N 0.01946 0.41774 0.04172 0.0
N926 N 0.07254 0.45641 1.00368 0.0
C927 C 0.01745 0.48753 1.00998 0.0
C928 C 0.98895 0.46681 0.03071 0.0
C929 C 0.01086 0.89638 0.49629 0.0
C930 C 0.98153 0.95653 0.49126 0.0
C931 C 0.01641 0.87392 0.51846 0.0
C932 C 0.99357 0.91093 0.53655 0.0
H933 H 0.02956 0.86597 0.48299 0.0
H934 H 0.03918 0.82733 0.52148 0.0
S935 S 0.90885 0.06928 0.53279 0.0
N936 N 0.92704 0.05149 0.50654 0.0
N937 N 0.93689 0.00854 0.54808 0.0
C938 C 0.96342 0.97062 0.53189 0.0
C939 C 0.95767 0.99363 0.5093 0.0
C940 C 0.56201 0.47008 1.01954 0.0
C941 C 0.57441 0.51693 1.0029 0.0
C942 C 0.52916 0.48636 0.03941 0.0
C943 C 0.50853 0.5505 0.04359 0.0
H944 H 0.57757 0.42035 1.01713 0.0
H945 H 0.52094 0.44846 0.05173 0.0
S946 S 0.53175 0.69142 1.00521 0.0
N947 N 0.56515 0.62992 0.99182 0.0
N948 N 0.50379 0.66113 0.02903 0.0
C949 C 0.52111 0.59782 0.02696 0.0
C950 C 0.554 0.58091 1.00667 0.0
C951 C 0.98477 0.49822 0.50848 0.0
C952 C 0.00472 0.56222 0.50362 0.0
C953 C 0.98298 0.47488 0.53068 0.0
C954 C 0.00066 0.51486 0.54886 0.0
H955 H 0.96844 0.46657 0.49511 0.0
H956 H 0.96577 0.42581 0.53363 0.0
S957 S 0.06149 0.68484 0.5447 0.0
N958 N 0.0458 0.66393 0.51853 0.0
N959 N 0.04278 0.62072 0.56011 0.0
C960 C 0.02244 0.57846 0.54406 0.0
C961 C 0.02414 0.60203 0.52151 0.0
C962 C 0.9899 0.91037 0.02782 0.0
C963 C 0.01554 0.95734 0.04263 0.0
C964 C 0.9588 0.92837 1.00777 0.0
C965 C 0.95151 0.99401 1.00185 0.0
H966 H 0.99295 0.85914 0.03187 0.0
H967 H 0.93878 0.89067 0.99713 0.0
S968 S 0.01212 0.13617 0.03369 0.0
N969 N 0.03362 0.07287 0.04902 0.0
N970 N 0.97404 0.10611 1.01163 0.0
C971 C 0.97759 0.04144 1.01614 0.0
C972 C 0.01007 0.02327 0.0364 0.0
C973 C 0.56078 0.89813 0.51628 0.0
C974 C 0.50651 0.92103 0.50442 0.0
C975 C 0.57803 0.92444 0.53716 0.0
C976 C 0.54134 0.9744 0.5471 0.0
H977 H 0.5907 0.86011 0.50924 0.0
H978 H 0.62044 0.9051 0.54557 0.0
S979 S 0.39156 0.0478 0.52331 0.0
N980 N 0.41367 0.99335 0.50456 0.0
N981 N 0.44668 0.04426 0.54339 0.0
C982 C 0.48634 0.99713 0.5354 0.0
C983 C 0.46872 0.97002 0.5142 0.0
loop_
_geom_bond_atom_site_label_1
_geom_bond_atom_site_label_2
_geom_bond_distance
_geom_bond_site_symmetry_2
_ccdc_geom_bond_type
Co0 O3 1.970 . S
Co0 N17 1.989 1_545 S
Co0 O25 1.967 . S
Co0 O32 1.920 . S
Co1 O4 1.966 . S
Co1 N10 2.022 . S
Co1 N18 1.993 1_545 S
Co1 O26 1.941 . S
C2 O3 1.258 . S
C2 O4 1.263 . S
O3 Co0 1.970 . S
O3 C2 1.258 . S
O4 Co1 1.966 . S
O4 C2 1.263 . S
C5 O6 1.235 . S
C5 O32 1.289 . S
O6 C5 1.235 . S
C7 C9 1.400 . S
C7 N10 1.351 . S
C7 C12 1.501 . S
C8 C9 1.382 1_565 S
C8 N11 1.338 1_565 S
C9 C7 1.400 . S
C9 C8 1.382 1_545 S
N10 Co1 2.022 . S
N10 C7 1.351 . S
N10 N11 1.365 . S
N11 C8 1.338 1_545 S
N11 N10 1.365 . S
N11 H31 0.862 1_545 S
C12 C7 1.501 . S
C12 H13 0.961 . S
C12 H14 0.961 . S
C12 H15 0.960 . S
H13 C12 0.961 . S
H14 C12 0.961 . S
H15 C12 0.960 . S
C16 N17 1.342 . S
C16 C20 1.401 . S
C16 C21 1.499 . S
N17 Co0 1.989 1_565 S
N17 C16 1.342 . S
N17 N18 1.388 . S
N18 Co1 1.993 1_565 S
N18 N17 1.388 . S
N18 C19 1.346 . S
C19 N18 1.346 . S
C19 C20 1.396 . S
C19 C29 1.510 . S
C20 C16 1.401 . S
C20 C19 1.396 . S
C21 C16 1.499 . S
C21 H22 0.959 . S
C21 H23 0.960 . S
C21 H24 0.961 . S
H22 C21 0.959 . S
H23 C21 0.960 . S
H24 C21 0.961 . S
O25 Co0 1.967 . S
O25 C33 1.258 . S
O26 Co1 1.941 . S
O26 C33 1.266 . S
H27 C29 0.959 . S
H28 C29 0.961 . S
C29 C19 1.510 . S
C29 H27 0.959 . S
C29 H28 0.961 . S
C29 H30 0.960 . S
H30 C29 0.960 . S
H31 N11 0.862 1_565 S
O32 Co0 1.920 . S
O32 C5 1.289 . S
C33 O25 1.258 . S
C33 O26 1.266 . S
Co34 O37 1.970 . S
Co34 N51 1.989 . S
Co34 O59 1.967 . S
Co34 O66 1.920 . S
Co35 O38 1.966 . S
Co35 N44 2.022 . S
Co35 N52 1.993 . S
Co35 O60 1.941 . S
C36 O37 1.258 . S
C36 O38 1.263 . S
O37 Co34 1.970 . S
O37 C36 1.258 . S
O38 Co35 1.966 . S
O38 C36 1.263 . S
C39 O40 1.235 . S
C39 O66 1.289 . S
O40 C39 1.235 . S
C41 C43 1.400 . S
C41 N44 1.351 . S
C41 C46 1.501 . S
C42 C43 1.387 . S
C42 N45 1.341 . S
C43 C41 1.400 . S
C43 C42 1.387 . S
N44 Co35 2.022 . S
N44 C41 1.351 . S
N44 N45 1.365 . S
N45 C42 1.341 . S
N45 N44 1.365 . S
N45 H65 0.862 . S
C46 C41 1.501 . S
C46 H47 0.961 . S
C46 H48 0.961 . S
C46 H49 0.960 . S
H47 C46 0.961 . S
H48 C46 0.961 . S
H49 C46 0.960 . S
C50 N51 1.342 . S
C50 C54 1.401 . S
C50 C55 1.499 . S
N51 Co34 1.989 . S
N51 C50 1.342 . S
N51 N52 1.388 . S
N52 Co35 1.993 . S
N52 N51 1.388 . S
N52 C53 1.346 . S
C53 N52 1.346 . S
C53 C54 1.396 . S
C53 C63 1.510 . S
C54 C50 1.401 . S
C54 C53 1.396 . S
C55 C50 1.499 . S
C55 H56 0.959 . S
C55 H57 0.960 . S
C55 H58 0.961 . S
H56 C55 0.959 . S
H57 C55 0.960 . S
H58 C55 0.961 . S
O59 Co34 1.967 . S
O59 C67 1.258 . S
O60 Co35 1.941 . S
O60 C67 1.266 . S
H61 C63 0.959 . S
H62 C63 0.961 . S
C63 C53 1.510 . S
C63 H61 0.959 . S
C63 H62 0.961 . S
C63 H64 0.960 . S
H64 C63 0.960 . S
H65 N45 0.862 . S
O66 Co34 1.920 . S
O66 C39 1.289 . S
C67 O59 1.258 . S
C67 O60 1.266 . S
Co68 O71 1.970 1_655 S
Co68 N85 1.989 . S
Co68 O93 1.967 . S
Co68 O100 1.920 . S
Co69 O72 1.966 . S
Co69 N78 2.022 . S
Co69 N86 1.993 . S
Co69 O94 1.941 . S
C70 O71 1.258 . S
C70 O72 1.263 1_455 S
O71 Co68 1.970 1_455 S
O71 C70 1.258 . S
O72 Co69 1.966 . S
O72 C70 1.263 1_655 S
C73 O74 1.235 1_655 S
C73 O100 1.289 . S
O74 C73 1.235 1_455 S
C75 C77 1.400 . S
C75 N78 1.351 . S
C75 C80 1.501 1_655 S
C76 C77 1.387 . S
C76 N79 1.341 . S
C77 C75 1.400 . S
C77 C76 1.387 . S
N78 Co69 2.022 . S
N78 C75 1.351 . S
N78 N79 1.365 . S
N79 C76 1.341 . S
N79 N78 1.365 . S
N79 H99 0.862 . S
C80 C75 1.501 1_455 S
C80 H81 0.961 . S
C80 H82 0.961 . S
C80 H83 0.960 . S
H81 C80 0.961 . S
H82 C80 0.961 . S
H83 C80 0.960 . S
C84 N85 1.342 . S
C84 C88 1.401 . S
C84 C89 1.499 . S
N85 Co68 1.989 . S
N85 C84 1.342 . S
N85 N86 1.388 . S
N86 Co69 1.993 . S
N86 N85 1.388 . S
N86 C87 1.346 . S
C87 N86 1.346 . S
C87 C88 1.396 . S
C87 C97 1.510 . S
C88 C84 1.401 . S
C88 C87 1.396 . S
C89 C84 1.499 . S
C89 H90 0.959 . S
C89 H91 0.960 1_655 S
C89 H92 0.961 . S
H90 C89 0.959 . S
H91 C89 0.960 1_455 S
H92 C89 0.961 . S
O93 Co68 1.967 . S
O93 C101 1.258 . S
O94 Co69 1.941 . S
O94 C101 1.266 . S
H95 C97 0.959 . S
H96 C97 0.961 1_455 S
C97 C87 1.510 . S
C97 H95 0.959 . S
C97 H96 0.961 1_655 S
C97 H98 0.960 . S
H98 C97 0.960 . S
H99 N79 0.862 . S
O100 Co68 1.920 . S
O100 C73 1.289 . S
C101 O93 1.258 . S
C101 O94 1.266 . S
Co102 O105 1.970 1_565 S
Co102 N119 1.989 1_455 S
Co102 O127 1.967 . S
Co102 O134 1.920 . S
Co103 O106 1.966 . S
Co103 N112 2.022 . S
Co103 N120 1.993 1_455 S
Co103 O128 1.941 . S
C104 O105 1.258 . S
C104 O106 1.263 1_545 S
O105 Co102 1.970 1_545 S
O105 C104 1.258 . S
O106 Co103 1.966 . S
O106 C104 1.263 1_565 S
C107 O108 1.235 1_565 S
C107 O134 1.289 . S
O108 C107 1.235 1_545 S
C109 C111 1.400 . S
C109 N112 1.351 . S
C109 C114 1.501 1_565 S
C110 C111 1.381 1_655 S
C110 N113 1.338 1_655 S
C111 C109 1.400 . S
C111 C110 1.381 1_455 S
N112 Co103 2.022 . S
N112 C109 1.351 . S
N112 N113 1.365 . S
N113 C110 1.338 1_455 S
N113 N112 1.365 . S
N113 H133 0.862 1_455 S
C114 C109 1.501 1_545 S
C114 H115 0.961 . S
C114 H116 0.961 . S
C114 H117 0.960 . S
H115 C114 0.961 . S
H116 C114 0.961 . S
H117 C114 0.960 . S
C118 N119 1.342 . S
C118 C122 1.401 . S
C118 C123 1.499 . S
N119 Co102 1.989 1_655 S
N119 C118 1.342 . S
N119 N120 1.388 . S
N120 Co103 1.993 1_655 S
N120 N119 1.388 . S
N120 C121 1.346 . S
C121 N120 1.346 . S
C121 C122 1.396 . S
C121 C131 1.510 . S
C122 C118 1.401 . S
C122 C121 1.396 . S
C123 C118 1.499 . S
C123 H124 0.959 . S
C123 H125 0.960 1_565 S
C123 H126 0.961 . S
H124 C123 0.959 . S
H125 C123 0.960 1_545 S
H126 C123 0.961 . S
O127 Co102 1.967 . S
O127 C135 1.258 . S
O128 Co103 1.941 . S
O128 C135 1.266 . S
H129 C131 0.959 . S
H130 C131 0.961 1_545 S
C131 C121 1.510 . S
C131 H129 0.959 . S
C131 H130 0.961 1_565 S
C131 H132 0.960 . S
H132 C131 0.960 . S
H133 N113 0.862 1_655 S
O134 Co102 1.920 . S
O134 C107 1.289 . S
C135 O127 1.258 . S
C135 O128 1.266 . S
Co136 O139 1.970 . S
Co136 N153 1.989 . S
Co136 O161 1.967 . S
Co136 O168 1.920 . S
Co137 O140 1.966 . S
Co137 N146 2.022 . S
Co137 N154 1.993 . S
Co137 O162 1.941 . S
C138 O139 1.258 . S
C138 O140 1.263 . S
O139 Co136 1.970 . S
O139 C138 1.258 . S
O140 Co137 1.966 . S
O140 C138 1.263 . S
C141 O142 1.235 . S
C141 O168 1.289 . S
O142 C141 1.235 . S
C143 C145 1.400 . S
C143 N146 1.351 . S
C143 C148 1.501 . S
C144 C145 1.387 . S
C144 N147 1.341 . S
C145 C143 1.400 . S
C145 C144 1.387 . S
N146 Co137 2.022 . S
N146 C143 1.351 . S
N146 N147 1.365 . S
N147 C144 1.341 . S
N147 N146 1.365 . S
N147 H167 0.862 . S
C148 C143 1.501 . S
C148 H149 0.961 . S
C148 H150 0.961 . S
C148 H151 0.960 . S
H149 C148 0.961 . S
H150 C148 0.961 . S
H151 C148 0.960 . S
C152 N153 1.342 . S
C152 C156 1.401 . S
C152 C157 1.499 . S
N153 Co136 1.989 . S
N153 C152 1.342 . S
N153 N154 1.388 . S
N154 Co137 1.993 . S
N154 N153 1.388 . S
N154 C155 1.346 . S
C155 N154 1.346 . S
C155 C156 1.396 . S
C155 C165 1.510 . S
C156 C152 1.401 . S
C156 C155 1.396 . S
C157 C152 1.499 . S
C157 H158 0.959 . S
C157 H159 0.960 . S
C157 H160 0.961 . S
H158 C157 0.959 . S
H159 C157 0.960 . S
H160 C157 0.961 . S
O161 Co136 1.967 . S
O161 C169 1.258 . S
O162 Co137 1.941 . S
O162 C169 1.266 . S
H163 C165 0.959 . S
H164 C165 0.961 . S
C165 C155 1.510 . S
C165 H163 0.959 . S
C165 H164 0.961 . S
C165 H166 0.960 . S
H166 C165 0.960 . S
H167 N147 0.862 . S
O168 Co136 1.920 . S
O168 C141 1.289 . S
C169 O161 1.258 . S
C169 O162 1.266 . S
Co170 O173 1.970 . S
Co170 N187 1.989 1_455 S
Co170 O195 1.967 . S
Co170 O202 1.920 . S
Co171 O174 1.966 . S
Co171 N180 2.022 . S
Co171 N188 1.993 1_455 S
Co171 O196 1.941 . S
C172 O173 1.258 . S
C172 O174 1.263 . S
O173 Co170 1.970 . S
O173 C172 1.258 . S
O174 Co171 1.966 . S
O174 C172 1.263 . S
C175 O176 1.235 . S
C175 O202 1.289 . S
O176 C175 1.235 . S
C177 C179 1.400 . S
C177 N180 1.351 . S
C177 C182 1.501 . S
C178 C179 1.382 1_655 S
C178 N181 1.338 1_655 S
C179 C177 1.400 . S
C179 C178 1.382 1_455 S
N180 Co171 2.022 . S
N180 C177 1.351 . S
N180 N181 1.365 . S
N181 C178 1.338 1_455 S
N181 N180 1.365 . S
N181 H201 0.862 1_455 S
C182 C177 1.501 . S
C182 H183 0.961 . S
C182 H184 0.961 . S
C182 H185 0.960 . S
H183 C182 0.961 . S
H184 C182 0.961 . S
H185 C182 0.960 . S
C186 N187 1.342 . S
C186 C190 1.401 . S
C186 C191 1.499 . S
N187 Co170 1.989 1_655 S
N187 C186 1.342 . S
N187 N188 1.388 . S
N188 Co171 1.993 1_655 S
N188 N187 1.388 . S
N188 C189 1.346 . S
C189 N188 1.346 . S
C189 C190 1.396 . S
C189 C199 1.510 . S
C190 C186 1.401 . S
C190 C189 1.396 . S
C191 C186 1.499 . S
C191 H192 0.959 . S
C191 H193 0.960 . S
C191 H194 0.961 . S
H192 C191 0.959 . S
H193 C191 0.960 . S
H194 C191 0.961 . S
O195 Co170 1.967 . S
O195 C203 1.258 . S
O196 Co171 1.941 . S
O196 C203 1.266 . S
H197 C199 0.959 . S
H198 C199 0.961 . S
C199 C189 1.510 . S
C199 H197 0.959 . S
C199 H198 0.961 . S
C199 H200 0.960 . S
H200 C199 0.960 . S
H201 N181 0.862 1_655 S
O202 Co170 1.920 . S
O202 C175 1.289 . S
C203 O195 1.258 . S
C203 O196 1.266 . S
Co204 O207 1.970 1_655 S
Co204 N221 1.989 1_545 S
Co204 O229 1.967 . S
Co204 O236 1.920 . S
Co205 O208 1.966 . S
Co205 N214 2.022 . S
Co205 N222 1.993 1_545 S
Co205 O230 1.941 . S
C206 O207 1.258 . S
C206 O208 1.263 1_455 S
O207 Co204 1.970 1_455 S
O207 C206 1.258 . S
O208 Co205 1.966 . S
O208 C206 1.263 1_655 S
C209 O210 1.235 1_655 S
C209 O236 1.289 . S
O210 C209 1.235 1_455 S
C211 C213 1.400 . S
C211 N214 1.351 . S
C211 C216 1.501 1_655 S
C212 C213 1.381 1_565 S
C212 N215 1.338 1_565 S
C213 C211 1.400 . S
C213 C212 1.381 1_545 S
N214 Co205 2.022 . S
N214 C211 1.351 . S
N214 N215 1.365 . S
N215 C212 1.338 1_545 S
N215 N214 1.365 . S
N215 H235 0.862 1_545 S
C216 C211 1.501 1_455 S
C216 H217 0.961 . S
C216 H218 0.961 . S
C216 H219 0.960 . S
H217 C216 0.961 . S
H218 C216 0.961 . S
H219 C216 0.960 . S
C220 N221 1.342 . S
C220 C224 1.401 . S
C220 C225 1.499 . S
N221 Co204 1.989 1_565 S
N221 C220 1.342 . S
N221 N222 1.388 . S
N222 Co205 1.993 1_565 S
N222 N221 1.388 . S
N222 C223 1.346 . S
C223 N222 1.346 . S
C223 C224 1.396 . S
C223 C233 1.510 . S
C224 C220 1.401 . S
C224 C223 1.396 . S
C225 C220 1.499 . S
C225 H226 0.959 . S
C225 H227 0.960 1_655 S
C225 H228 0.961 . S
H226 C225 0.959 . S
H227 C225 0.960 1_455 S
H228 C225 0.961 . S
O229 Co204 1.967 . S
O229 C237 1.258 . S
O230 Co205 1.941 . S
O230 C237 1.266 . S
H231 C233 0.959 . S
H232 C233 0.961 1_455 S
C233 C223 1.510 . S
C233 H231 0.959 . S
C233 H232 0.961 1_655 S
C233 H234 0.960 . S
H234 C233 0.960 . S
H235 N215 0.862 1_565 S
O236 Co204 1.920 . S
O236 C209 1.289 . S
C237 O229 1.258 . S
C237 O230 1.266 . S
Co238 O241 1.970 1_565 S
Co238 N255 1.989 . S
Co238 O263 1.967 . S
Co238 O270 1.920 . S
Co239 O242 1.966 . S
Co239 N248 2.022 . S
Co239 N256 1.993 . S
Co239 O264 1.941 . S
C240 O241 1.258 . S
C240 O242 1.263 1_545 S
O241 Co238 1.970 1_545 S
O241 C240 1.258 . S
O242 Co239 1.966 . S
O242 C240 1.263 1_565 S
C243 O244 1.235 1_565 S
C243 O270 1.289 . S
O244 C243 1.235 1_545 S
C245 C247 1.400 . S
C245 N248 1.351 . S
C245 C250 1.501 1_565 S
C246 C247 1.387 . S
C246 N249 1.341 . S
C247 C245 1.400 . S
C247 C246 1.387 . S
N248 Co239 2.022 . S
N248 C245 1.351 . S
N248 N249 1.365 . S
N249 C246 1.341 . S
N249 N248 1.365 . S
N249 H269 0.862 . S
C250 C245 1.501 1_545 S
C250 H251 0.961 . S
C250 H252 0.961 . S
C250 H253 0.960 . S
H251 C250 0.961 . S
H252 C250 0.961 . S
H253 C250 0.960 . S
C254 N255 1.342 . S
C254 C258 1.401 . S
C254 C259 1.499 . S
N255 Co238 1.989 . S
N255 C254 1.342 . S
N255 N256 1.388 . S
N256 Co239 1.993 . S
N256 N255 1.388 . S
N256 C257 1.346 . S
C257 N256 1.346 . S
C257 C258 1.396 . S
C257 C267 1.510 . S
C258 C254 1.401 . S
C258 C257 1.396 . S
C259 C254 1.499 . S
C259 H260 0.959 . S
C259 H261 0.960 1_565 S
C259 H262 0.961 . S
H260 C259 0.959 . S
H261 C259 0.960 1_545 S
H262 C259 0.961 . S
O263 Co238 1.967 . S
O263 C271 1.258 . S
O264 Co239 1.941 . S
O264 C271 1.266 . S
H265 C267 0.959 . S
H266 C267 0.961 1_545 S
C267 C257 1.510 . S
C267 H265 0.959 . S
C267 H266 0.961 1_565 S
C267 H268 0.960 . S
H268 C267 0.960 . S
H269 N249 0.862 . S
O270 Co238 1.920 . S
O270 C243 1.289 . S
C271 O263 1.258 . S
C271 O264 1.266 . S
Co272 O275 1.970 . S
Co272 N289 1.989 1_565 S
Co272 O297 1.967 . S
Co272 O304 1.920 . S
Co273 O276 1.966 . S
Co273 N282 2.022 . S
Co273 N290 1.993 1_565 S
Co273 O298 1.941 . S
C274 O275 1.258 . S
C274 O276 1.263 . S
O275 Co272 1.970 . S
O275 C274 1.258 . S
O276 Co273 1.966 . S
O276 C274 1.263 . S
C277 O278 1.235 . S
C277 O304 1.289 . S
O278 C277 1.235 . S
C279 C281 1.400 . S
C279 N282 1.351 . S
C279 C284 1.501 . S
C280 C281 1.387 . S
C280 N283 1.341 . S
C281 C279 1.400 . S
C281 C280 1.387 . S
N282 Co273 2.022 . S
N282 C279 1.351 . S
N282 N283 1.365 . S
N283 C280 1.341 . S
N283 N282 1.365 . S
N283 H303 0.862 . S
C284 C279 1.501 . S
C284 H285 0.961 . S
C284 H286 0.961 . S
C284 H287 0.960 . S
H285 C284 0.961 . S
H286 C284 0.961 . S
H287 C284 0.960 . S
C288 N289 1.342 . S
C288 C292 1.401 . S
C288 C293 1.499 . S
N289 Co272 1.989 1_545 S
N289 C288 1.342 . S
N289 N290 1.388 . S
N290 Co273 1.993 1_545 S
N290 N289 1.388 . S
N290 C291 1.346 . S
C291 N290 1.346 . S
C291 C292 1.396 . S
C291 C301 1.510 . S
C292 C288 1.401 . S
C292 C291 1.396 . S
C293 C288 1.499 . S
C293 H294 0.959 . S
C293 H295 0.960 . S
C293 H296 0.961 . S
H294 C293 0.959 . S
H295 C293 0.960 . S
H296 C293 0.961 . S
O297 Co272 1.967 . S
O297 C305 1.258 . S
O298 Co273 1.941 . S
O298 C305 1.266 . S
H299 C301 0.959 . S
H300 C301 0.961 . S
C301 C291 1.510 . S
C301 H299 0.959 . S
C301 H300 0.961 . S
C301 H302 0.960 . S
H302 C301 0.960 . S
H303 N283 0.862 . S
O304 Co272 1.920 . S
O304 C277 1.289 . S
C305 O297 1.258 . S
C305 O298 1.266 . S
Co306 O309 1.970 . S
Co306 N323 1.989 . S
Co306 O331 1.967 . S
Co306 O338 1.920 . S
Co307 O310 1.966 . S
Co307 N316 2.022 . S
Co307 N324 1.993 . S
Co307 O332 1.941 . S
C308 O309 1.258 . S
C308 O310 1.263 . S
O309 Co306 1.970 . S
O309 C308 1.258 . S
O310 Co307 1.966 . S
O310 C308 1.263 . S
C311 O312 1.235 . S
C311 O338 1.289 . S
O312 C311 1.235 . S
C313 C315 1.400 . S
C313 N316 1.351 . S
C313 C318 1.501 . S
C314 C315 1.387 . S
C314 N317 1.341 . S
C315 C313 1.400 . S
C315 C314 1.387 . S
N316 Co307 2.022 . S
N316 C313 1.351 . S
N316 N317 1.365 . S
N317 C314 1.341 . S
N317 N316 1.365 . S
N317 H337 0.862 . S
C318 C313 1.501 . S
C318 H319 0.961 . S
C318 H320 0.961 . S
C318 H321 0.960 . S
H319 C318 0.961 . S
H320 C318 0.961 . S
H321 C318 0.960 . S
C322 N323 1.342 . S
C322 C326 1.401 . S
C322 C327 1.499 . S
N323 Co306 1.989 . S
N323 C322 1.342 . S
N323 N324 1.388 . S
N324 Co307 1.993 . S
N324 N323 1.388 . S
N324 C325 1.346 . S
C325 N324 1.346 . S
C325 C326 1.396 . S
C325 C335 1.510 . S
C326 C322 1.401 . S
C326 C325 1.396 . S
C327 C322 1.499 . S
C327 H328 0.959 . S
C327 H329 0.960 . S
C327 H330 0.961 . S
H328 C327 0.959 . S
H329 C327 0.960 . S
H330 C327 0.961 . S
O331 Co306 1.967 . S
O331 C339 1.258 . S
O332 Co307 1.941 . S
O332 C339 1.266 . S
H333 C335 0.959 . S
H334 C335 0.961 . S
C335 C325 1.510 . S
C335 H333 0.959 . S
C335 H334 0.961 . S
C335 H336 0.960 . S
H336 C335 0.960 . S
H337 N317 0.862 . S
O338 Co306 1.920 . S
O338 C311 1.289 . S
C339 O331 1.258 . S
C339 O332 1.266 . S
Co340 O343 1.970 . S
Co340 N357 1.989 . S
Co340 O365 1.967 . S
Co340 O372 1.920 . S
Co341 O344 1.966 . S
Co341 N350 2.022 . S
Co341 N358 1.993 . S
Co341 O366 1.941 . S
C342 O343 1.258 . S
C342 O344 1.263 . S
O343 Co340 1.970 . S
O343 C342 1.258 . S
O344 Co341 1.966 . S
O344 C342 1.263 . S
C345 O346 1.235 1_455 S
C345 O372 1.289 . S
O346 C345 1.235 1_655 S
C347 C349 1.400 . S
C347 N350 1.351 . S
C347 C352 1.501 1_455 S
C348 C349 1.387 . S
C348 N351 1.341 . S
C349 C347 1.400 . S
C349 C348 1.387 . S
N350 Co341 2.022 . S
N350 C347 1.351 . S
N350 N351 1.365 . S
N351 C348 1.341 . S
N351 N350 1.365 . S
N351 H371 0.862 . S
C352 C347 1.501 1_655 S
C352 H353 0.961 . S
C352 H354 0.961 . S
C352 H355 0.960 . S
H353 C352 0.961 . S
H354 C352 0.961 . S
H355 C352 0.960 . S
C356 N357 1.342 . S
C356 C360 1.401 . S
C356 C361 1.499 . S
N357 Co340 1.989 . S
N357 C356 1.342 . S
N357 N358 1.388 . S
N358 Co341 1.993 . S
N358 N357 1.388 . S
N358 C359 1.346 . S
C359 N358 1.346 . S
C359 C360 1.396 . S
C359 C369 1.510 . S
C360 C356 1.401 . S
C360 C359 1.396 . S
C361 C356 1.499 . S
C361 H362 0.959 . S
C361 H363 0.960 . S
C361 H364 0.961 . S
H362 C361 0.959 . S
H363 C361 0.960 . S
H364 C361 0.961 . S
O365 Co340 1.967 . S
O365 C373 1.258 . S
O366 Co341 1.941 . S
O366 C373 1.266 . S
H367 C369 0.959 . S
H368 C369 0.961 1_655 S
C369 C359 1.510 . S
C369 H367 0.959 . S
C369 H368 0.961 1_455 S
C369 H370 0.960 . S
H370 C369 0.960 . S
H371 N351 0.862 . S
O372 Co340 1.920 . S
O372 C345 1.289 . S
C373 O365 1.258 . S
C373 O366 1.266 . S
Co374 O377 1.970 . S
Co374 N391 1.989 1_655 S
Co374 O399 1.967 . S
Co374 O406 1.920 . S
Co375 O378 1.966 . S
Co375 N384 2.022 . S
Co375 N392 1.993 1_655 S
Co375 O400 1.941 . S
C376 O377 1.258 . S
C376 O378 1.263 . S
O377 Co374 1.970 . S
O377 C376 1.258 . S
O378 Co375 1.966 . S
O378 C376 1.263 . S
C379 O380 1.235 1_545 S
C379 O406 1.289 . S
O380 C379 1.235 1_565 S
C381 C383 1.400 . S
C381 N384 1.351 . S
C381 C386 1.501 1_545 S
C382 C383 1.387 . S
C382 N385 1.341 . S
C383 C381 1.400 . S
C383 C382 1.387 . S
N384 Co375 2.022 . S
N384 C381 1.351 . S
N384 N385 1.365 . S
N385 C382 1.341 . S
N385 N384 1.365 . S
N385 H405 0.862 . S
C386 C381 1.501 1_565 S
C386 H387 0.961 . S
C386 H388 0.961 . S
C386 H389 0.960 . S
H387 C386 0.961 . S
H388 C386 0.961 . S
H389 C386 0.960 . S
C390 N391 1.342 . S
C390 C394 1.401 . S
C390 C395 1.499 . S
N391 Co374 1.989 1_455 S
N391 C390 1.342 . S
N391 N392 1.388 . S
N392 Co375 1.993 1_455 S
N392 N391 1.388 . S
N392 C393 1.346 . S
C393 N392 1.346 . S
C393 C394 1.396 . S
C393 C403 1.510 . S
C394 C390 1.401 . S
C394 C393 1.396 . S
C395 C390 1.499 . S
C395 H396 0.959 . S
C395 H397 0.960 . S
C395 H398 0.961 . S
H396 C395 0.959 . S
H397 C395 0.960 . S
H398 C395 0.961 . S
O399 Co374 1.967 . S
O399 C407 1.258 . S
O400 Co375 1.941 . S
O400 C407 1.266 . S
H401 C403 0.959 . S
H402 C403 0.961 1_565 S
C403 C393 1.510 . S
C403 H401 0.959 . S
C403 H402 0.961 1_545 S
C403 H404 0.960 . S
H404 C403 0.960 . S
H405 N385 0.862 . S
O406 Co374 1.920 . S
O406 C379 1.289 . S
C407 O399 1.258 . S
C407 O400 1.266 . S
Co408 O411 1.970 . S
Co408 N425 1.989 . S
Co408 O433 1.967 . S
Co408 O440 1.920 . S
Co409 O412 1.966 . S
Co409 N418 2.022 . S
Co409 N426 1.993 . S
Co409 O434 1.941 . S
C410 O411 1.258 . S
C410 O412 1.263 . S
O411 Co408 1.970 . S
O411 C410 1.258 . S
O412 Co409 1.966 . S
O412 C410 1.263 . S
C413 O414 1.235 . S
C413 O440 1.289 . S
O414 C413 1.235 . S
C415 C417 1.400 . S
C415 N418 1.351 . S
C415 C420 1.501 . S
C416 C417 1.387 . S
C416 N419 1.341 . S
C417 C415 1.400 . S
C417 C416 1.387 . S
N418 Co409 2.022 . S
N418 C415 1.351 . S
N418 N419 1.365 . S
N419 C416 1.341 . S
N419 N418 1.365 . S
N419 H439 0.862 . S
C420 C415 1.501 . S
C420 H421 0.961 . S
C420 H422 0.961 . S
C420 H423 0.960 . S
H421 C420 0.961 . S
H422 C420 0.961 . S
H423 C420 0.960 . S
C424 N425 1.342 . S
C424 C428 1.401 . S
C424 C429 1.499 . S
N425 Co408 1.989 . S
N425 C424 1.342 . S
N425 N426 1.388 . S
N426 Co409 1.993 . S
N426 N425 1.388 . S
N426 C427 1.346 . S
C427 N426 1.346 . S
C427 C428 1.396 . S
C427 C437 1.510 . S
C428 C424 1.401 . S
C428 C427 1.396 . S
C429 C424 1.499 . S
C429 H430 0.959 . S
C429 H431 0.960 . S
C429 H432 0.961 . S
H430 C429 0.959 . S
H431 C429 0.960 . S
H432 C429 0.961 . S
O433 Co408 1.967 . S
O433 C441 1.258 . S
O434 Co409 1.941 . S
O434 C441 1.266 . S
H435 C437 0.959 . S
H436 C437 0.961 . S
C437 C427 1.510 . S
C437 H435 0.959 . S
C437 H436 0.961 . S
C437 H438 0.960 . S
H438 C437 0.960 . S
H439 N419 0.862 . S
O440 Co408 1.920 . S
O440 C413 1.289 . S
C441 O433 1.258 . S
C441 O434 1.266 . S
Co442 O445 1.970 . S
Co442 N459 1.989 1_655 S
Co442 O467 1.967 . S
Co442 O474 1.920 . S
Co443 O446 1.966 . S
Co443 N452 2.022 . S
Co443 N460 1.993 1_655 S
Co443 O468 1.941 . S
C444 O445 1.258 . S
C444 O446 1.263 . S
O445 Co442 1.970 . S
O445 C444 1.258 . S
O446 Co443 1.966 . S
O446 C444 1.263 . S
C447 O448 1.235 . S
C447 O474 1.289 . S
O448 C447 1.235 . S
C449 C451 1.400 . S
C449 N452 1.351 . S
C449 C454 1.501 . S
C450 C451 1.387 . S
C450 N453 1.341 . S
C451 C449 1.400 . S
C451 C450 1.387 . S
N452 Co443 2.022 . S
N452 C449 1.351 . S
N452 N453 1.365 . S
N453 C450 1.341 . S
N453 N452 1.365 . S
N453 H473 0.862 . S
C454 C449 1.501 . S
C454 H455 0.961 . S
C454 H456 0.961 . S
C454 H457 0.960 . S
H455 C454 0.961 . S
H456 C454 0.961 . S
H457 C454 0.960 . S
C458 N459 1.342 . S
C458 C462 1.401 . S
C458 C463 1.499 . S
N459 Co442 1.989 1_455 S
N459 C458 1.342 . S
N459 N460 1.388 . S
N460 Co443 1.993 1_455 S
N460 N459 1.388 . S
N460 C461 1.346 . S
C461 N460 1.346 . S
C461 C462 1.396 . S
C461 C471 1.510 . S
C462 C458 1.401 . S
C462 C461 1.396 . S
C463 C458 1.499 . S
C463 H464 0.959 . S
C463 H465 0.960 . S
C463 H466 0.961 . S
H464 C463 0.959 . S
H465 C463 0.960 . S
H466 C463 0.961 . S
O467 Co442 1.967 . S
O467 C475 1.258 . S
O468 Co443 1.941 . S
O468 C475 1.266 . S
H469 C471 0.959 . S
H470 C471 0.961 . S
C471 C461 1.510 . S
C471 H469 0.959 . S
C471 H470 0.961 . S
C471 H472 0.960 . S
H472 C471 0.960 . S
H473 N453 0.862 . S
O474 Co442 1.920 . S
O474 C447 1.289 . S
C475 O467 1.258 . S
C475 O468 1.266 . S
Co476 O479 1.970 . S
Co476 N493 1.989 1_565 S
Co476 O501 1.967 . S
Co476 O508 1.920 . S
Co477 O480 1.966 . S
Co477 N486 2.022 . S
Co477 N494 1.993 1_565 S
Co477 O502 1.941 . S
C478 O479 1.258 . S
C478 O480 1.263 . S
O479 Co476 1.970 . S
O479 C478 1.258 . S
O480 Co477 1.966 . S
O480 C478 1.263 . S
C481 O482 1.235 1_455 S
C481 O508 1.289 . S
O482 C481 1.235 1_655 S
C483 C485 1.400 . S
C483 N486 1.351 . S
C483 C488 1.501 1_455 S
C484 C485 1.387 . S
C484 N487 1.341 . S
C485 C483 1.400 . S
C485 C484 1.387 . S
N486 Co477 2.022 . S
N486 C483 1.351 . S
N486 N487 1.365 . S
N487 C484 1.341 . S
N487 N486 1.365 . S
N487 H507 0.862 . S
C488 C483 1.501 1_655 S
C488 H489 0.961 . S
C488 H490 0.961 . S
C488 H491 0.960 . S
H489 C488 0.961 . S
H490 C488 0.961 . S
H491 C488 0.960 . S
C492 N493 1.342 . S
C492 C496 1.401 . S
C492 C497 1.499 . S
N493 Co476 1.989 1_545 S
N493 C492 1.342 . S
N493 N494 1.388 . S
N494 Co477 1.993 1_545 S
N494 N493 1.388 . S
N494 C495 1.346 . S
C495 N494 1.346 . S
C495 C496 1.396 . S
C495 C505 1.510 . S
C496 C492 1.401 . S
C496 C495 1.396 . S
C497 C492 1.499 . S
C497 H498 0.959 . S
C497 H499 0.960 . S
C497 H500 0.961 . S
H498 C497 0.959 . S
H499 C497 0.960 . S
H500 C497 0.961 . S
O501 Co476 1.967 . S
O501 C509 1.258 . S
O502 Co477 1.941 . S
O502 C509 1.266 . S
H503 C505 0.959 . S
H504 C505 0.961 1_655 S
C505 C495 1.510 . S
C505 H503 0.959 . S
C505 H504 0.961 1_455 S
C505 H506 0.960 . S
H506 C505 0.960 . S
H507 N487 0.862 . S
O508 Co476 1.920 . S
O508 C481 1.289 . S
C509 O501 1.258 . S
C509 O502 1.266 . S
Co510 O513 1.970 . S
Co510 N527 1.989 . S
Co510 O535 1.967 . S
Co510 O542 1.920 . S
Co511 O514 1.966 . S
Co511 N520 2.022 . S
Co511 N528 1.993 . S
Co511 O536 1.941 . S
C512 O513 1.258 . S
C512 O514 1.263 . S
O513 Co510 1.970 . S
O513 C512 1.258 . S
O514 Co511 1.966 . S
O514 C512 1.263 . S
C515 O516 1.235 1_545 S
C515 O542 1.289 . S
O516 C515 1.235 1_565 S
C517 C519 1.400 . S
C517 N520 1.351 . S
C517 C522 1.501 1_545 S
C518 C519 1.387 . S
C518 N521 1.341 . S
C519 C517 1.400 . S
C519 C518 1.387 . S
N520 Co511 2.022 . S
N520 C517 1.351 . S
N520 N521 1.365 . S
N521 C518 1.341 . S
N521 N520 1.365 . S
N521 H541 0.862 . S
C522 C517 1.501 1_565 S
C522 H523 0.961 . S
C522 H524 0.961 . S
C522 H525 0.960 . S
H523 C522 0.961 . S
H524 C522 0.961 . S
H525 C522 0.960 . S
C526 N527 1.342 . S
C526 C530 1.401 . S
C526 C531 1.499 . S
N527 Co510 1.989 . S
N527 C526 1.342 . S
N527 N528 1.388 . S
N528 Co511 1.993 . S
N528 N527 1.388 . S
N528 C529 1.346 . S
C529 N528 1.346 . S
C529 C530 1.396 . S
C529 C539 1.510 . S
C530 C526 1.401 . S
C530 C529 1.396 . S
C531 C526 1.499 . S
C531 H532 0.959 . S
C531 H533 0.960 . S
C531 H534 0.961 . S
H532 C531 0.959 . S
H533 C531 0.960 . S
H534 C531 0.961 . S
O535 Co510 1.967 . S
O535 C543 1.258 . S
O536 Co511 1.941 . S
O536 C543 1.266 . S
H537 C539 0.959 . S
H538 C539 0.961 1_565 S
C539 C529 1.510 . S
C539 H537 0.959 . S
C539 H538 0.961 1_545 S
C539 H540 0.960 . S
H540 C539 0.960 . S
H541 N521 0.862 . S
O542 Co510 1.920 . S
O542 C515 1.289 . S
C543 O535 1.258 . S
C543 O536 1.266 . S
C544 C545 1.369 . S
C544 C546 1.419 1_545 S
C544 H548 0.930 1_545 S
C545 C544 1.369 . S
C545 C554 1.429 . S
C546 C544 1.419 1_565 S
C546 C547 1.363 1_565 S
C546 H549 0.929 . S
C547 C546 1.363 1_545 S
C547 C553 1.428 . S
H548 C544 0.930 1_565 S
H549 C546 0.929 . S
S550 N551 1.613 . S
S550 N552 1.610 . S
N551 S550 1.613 . S
N551 C554 1.350 . S
N552 S550 1.610 . S
N552 C553 1.351 . S
C553 C547 1.428 . S
C553 N552 1.351 . S
C553 C554 1.434 . S
C554 C545 1.429 . S
C554 N551 1.350 . S
C554 C553 1.434 . S
C555 C556 1.369 . S
C555 C557 1.419 . S
C555 H559 0.930 . S
C556 C555 1.369 . S
C556 C565 1.429 . S
C557 C555 1.419 . S
C557 C558 1.363 . S
C557 H560 0.929 . S
C558 C557 1.363 . S
C558 C564 1.428 . S
H559 C555 0.930 . S
H560 C557 0.929 . S
S561 N562 1.613 . S
S561 N563 1.610 . S
N562 S561 1.613 . S
N562 C565 1.350 . S
N563 S561 1.610 . S
N563 C564 1.351 . S
C564 C558 1.428 . S
C564 N563 1.351 . S
C564 C565 1.434 . S
C565 C556 1.429 . S
C565 N562 1.350 . S
C565 C564 1.434 . S
C566 C567 1.369 1_655 S
C566 C568 1.419 1_655 S
C566 H570 0.930 . S
C567 C566 1.369 1_455 S
C567 C576 1.429 . S
C568 C566 1.419 1_455 S
C568 C569 1.363 . S
C568 H571 0.929 1_455 S
C569 C568 1.363 . S
C569 C575 1.428 . S
H570 C566 0.930 . S
H571 C568 0.929 1_655 S
S572 N573 1.613 . S
S572 N574 1.610 . S
N573 S572 1.613 . S
N573 C576 1.350 . S
N574 S572 1.610 . S
N574 C575 1.351 . S
C575 C569 1.428 . S
C575 N574 1.351 . S
C575 C576 1.434 . S
C576 C567 1.429 . S
C576 N573 1.350 . S
C576 C575 1.434 . S
C577 C578 1.369 1_565 S
C577 C579 1.419 . S
C577 H581 0.930 . S
C578 C577 1.369 1_545 S
C578 C587 1.429 . S
C579 C577 1.419 . S
C579 C580 1.363 1_565 S
C579 H582 0.929 . S
C580 C579 1.363 1_545 S
C580 C586 1.428 1_455 S
H581 C577 0.930 . S
H582 C579 0.929 . S
S583 N584 1.613 . S
S583 N585 1.610 . S
N584 S583 1.613 . S
N584 C587 1.350 1_655 S
N585 S583 1.610 . S
N585 C586 1.351 . S
C586 C580 1.428 1_655 S
C586 N585 1.351 . S
C586 C587 1.434 1_655 S
C587 C578 1.429 . S
C587 N584 1.350 1_455 S
C587 C586 1.434 1_455 S
C588 C589 1.369 . S
C588 C590 1.419 1_565 S
C588 H592 0.930 1_565 S
C589 C588 1.369 . S
C589 C598 1.429 . S
C590 C588 1.419 1_545 S
C590 C591 1.363 . S
C590 H593 0.929 . S
C591 C590 1.363 . S
C591 C597 1.428 1_545 S
H592 C588 0.930 1_545 S
H593 C590 0.929 . S
S594 N595 1.613 . S
S594 N596 1.610 . S
N595 S594 1.613 . S
N595 C598 1.350 . S
N596 S594 1.610 . S
N596 C597 1.351 . S
C597 C591 1.428 1_565 S
C597 N596 1.351 . S
C597 C598 1.434 . S
C598 C589 1.429 . S
C598 N595 1.350 . S
C598 C597 1.434 . S
C599 C600 1.369 . S
C599 C601 1.419 . S
C599 H603 0.930 . S
C600 C599 1.369 . S
C600 C609 1.429 . S
C601 C599 1.419 . S
C601 C602 1.363 . S
C601 H604 0.929 . S
C602 C601 1.363 . S
C602 C608 1.428 . S
H603 C599 0.930 . S
H604 C601 0.929 . S
S605 N606 1.613 . S
S605 N607 1.610 . S
N606 S605 1.613 . S
N606 C609 1.350 . S
N607 S605 1.610 . S
N607 C608 1.351 . S
C608 C602 1.428 . S
C608 N607 1.351 . S
C608 C609 1.434 . S
C609 C600 1.429 . S
C609 N606 1.350 . S
C609 C608 1.434 . S
C610 C611 1.369 1_655 S
C610 C612 1.419 . S
C610 H614 0.930 . S
C611 C610 1.369 1_455 S
C611 C620 1.429 . S
C612 C610 1.419 . S
C612 C613 1.363 . S
C612 H615 0.929 . S
C613 C612 1.363 . S
C613 C619 1.428 1_655 S
H614 C610 0.930 . S
H615 C612 0.929 . S
S616 N617 1.613 . S
S616 N618 1.610 . S
N617 S616 1.613 . S
N617 C620 1.350 . S
N618 S616 1.610 . S
N618 C619 1.351 . S
C619 C613 1.428 1_455 S
C619 N618 1.351 . S
C619 C620 1.434 . S
C620 C611 1.429 . S
C620 N617 1.350 . S
C620 C619 1.434 . S
C621 C622 1.369 1_645 S
C621 C623 1.419 . S
C621 H625 0.930 . S
C622 C621 1.369 1_465 S
C622 C631 1.429 . S
C623 C621 1.419 . S
C623 C624 1.363 . S
C623 H626 0.929 . S
C624 C623 1.363 . S
C624 C630 1.428 1_545 S
H625 C621 0.930 . S
H626 C623 0.929 . S
S627 N628 1.613 . S
S627 N629 1.610 1_455 S
N628 S627 1.613 . S
N628 C631 1.350 . S
N629 S627 1.610 1_655 S
N629 C630 1.351 . S
C630 C624 1.428 1_565 S
C630 N629 1.351 . S
C630 C631 1.434 1_655 S
C631 C622 1.429 . S
C631 N628 1.350 . S
C631 C630 1.434 1_455 S
C632 C633 1.369 . S
C632 C634 1.419 . S
C632 H636 0.930 . S
C633 C632 1.369 . S
C633 C642 1.429 . S
C634 C632 1.419 . S
C634 C635 1.363 . S
C634 H637 0.929 . S
C635 C634 1.363 . S
C635 C641 1.428 . S
H636 C632 0.930 . S
H637 C634 0.929 . S
S638 N639 1.613 . S
S638 N640 1.610 . S
N639 S638 1.613 . S
N639 C642 1.350 . S
N640 S638 1.610 . S
N640 C641 1.351 . S
C641 C635 1.428 . S
C641 N640 1.351 . S
C641 C642 1.434 . S
C642 C633 1.429 . S
C642 N639 1.350 . S
C642 C641 1.434 . S
C643 C644 1.369 . S
C643 C645 1.419 . S
C643 H647 0.930 . S
C644 C643 1.369 . S
C644 C653 1.429 . S
C645 C643 1.419 . S
C645 C646 1.363 . S
C645 H648 0.929 . S
C646 C645 1.363 . S
C646 C652 1.428 . S
H647 C643 0.930 . S
H648 C645 0.929 . S
S649 N650 1.613 . S
S649 N651 1.610 . S
N650 S649 1.613 . S
N650 C653 1.350 . S
N651 S649 1.610 . S
N651 C652 1.351 . S
C652 C646 1.428 . S
C652 N651 1.351 . S
C652 C653 1.434 . S
C653 C644 1.429 . S
C653 N650 1.350 . S
C653 C652 1.434 . S
C654 C655 1.369 . S
C654 C656 1.419 . S
C654 H658 0.930 . S
C655 C654 1.369 . S
C655 C664 1.429 . S
C656 C654 1.419 . S
C656 C657 1.363 . S
C656 H659 0.929 . S
C657 C656 1.363 . S
C657 C663 1.428 . S
H658 C654 0.930 . S
H659 C656 0.929 . S
S660 N661 1.613 . S
S660 N662 1.610 . S
N661 S660 1.613 . S
N661 C664 1.350 . S
N662 S660 1.610 . S
N662 C663 1.351 . S
C663 C657 1.428 . S
C663 N662 1.351 . S
C663 C664 1.434 . S
C664 C655 1.429 . S
C664 N661 1.350 . S
C664 C663 1.434 . S
C665 C666 1.369 . S
C665 C667 1.419 . S
C665 H669 0.930 . S
C666 C665 1.369 . S
C666 C675 1.429 . S
C667 C665 1.419 . S
C667 C668 1.363 . S
C667 H670 0.929 . S
C668 C667 1.363 . S
C668 C674 1.428 . S
H669 C665 0.930 . S
H670 C667 0.929 . S
S671 N672 1.613 . S
S671 N673 1.610 . S
N672 S671 1.613 . S
N672 C675 1.350 . S
N673 S671 1.610 . S
N673 C674 1.351 . S
C674 C668 1.428 . S
C674 N673 1.351 . S
C674 C675 1.434 . S
C675 C666 1.429 . S
C675 N672 1.350 . S
C675 C674 1.434 . S
C676 C677 1.369 . S
C676 C678 1.419 . S
C676 H680 0.930 . S
C677 C676 1.369 . S
C677 C686 1.429 . S
C678 C676 1.419 . S
C678 C679 1.363 . S
C678 H681 0.929 . S
C679 C678 1.363 . S
C679 C685 1.428 . S
H680 C676 0.930 . S
H681 C678 0.929 . S
S682 N683 1.613 . S
S682 N684 1.610 . S
N683 S682 1.613 . S
N683 C686 1.350 . S
N684 S682 1.610 . S
N684 C685 1.351 . S
C685 C679 1.428 . S
C685 N684 1.351 . S
C685 C686 1.434 . S
C686 C677 1.429 . S
C686 N683 1.350 . S
C686 C685 1.434 . S
C687 C688 1.369 . S
C687 C689 1.419 . S
C687 H691 0.930 . S
C688 C687 1.369 . S
C688 C697 1.429 . S
C689 C687 1.419 . S
C689 C690 1.363 . S
C689 H692 0.929 . S
C690 C689 1.363 . S
C690 C696 1.428 . S
H691 C687 0.930 . S
H692 C689 0.929 . S
S693 N694 1.613 . S
S693 N695 1.610 . S
N694 S693 1.613 . S
N694 C697 1.350 . S
N695 S693 1.610 . S
N695 C696 1.351 . S
C696 C690 1.428 . S
C696 N695 1.351 . S
C696 C697 1.434 . S
C697 C688 1.429 . S
C697 N694 1.350 . S
C697 C696 1.434 . S
C698 C699 1.369 . S
C698 C700 1.419 . S
C698 H702 0.930 . S
C699 C698 1.369 . S
C699 C708 1.429 . S
C700 C698 1.419 . S
C700 C701 1.363 . S
C700 H703 0.929 . S
C701 C700 1.363 . S
C701 C707 1.428 . S
H702 C698 0.930 . S
H703 C700 0.929 . S
S704 N705 1.613 . S
S704 N706 1.610 . S
N705 S704 1.613 . S
N705 C708 1.350 . S
N706 S704 1.610 . S
N706 C707 1.351 . S
C707 C701 1.428 . S
C707 N706 1.351 . S
C707 C708 1.434 . S
C708 C699 1.429 . S
C708 N705 1.350 . S
C708 C707 1.434 . S
C709 C710 1.369 . S
C709 C711 1.419 . S
C709 H713 0.930 . S
C710 C709 1.369 . S
C710 C719 1.429 . S
C711 C709 1.419 . S
C711 C712 1.363 . S
C711 H714 0.929 . S
C712 C711 1.363 . S
C712 C718 1.428 . S
H713 C709 0.930 . S
H714 C711 0.929 . S
S715 N716 1.613 . S
S715 N717 1.610 . S
N716 S715 1.613 . S
N716 C719 1.350 . S
N717 S715 1.610 . S
N717 C718 1.351 . S
C718 C712 1.428 . S
C718 N717 1.351 . S
C718 C719 1.434 . S
C719 C710 1.429 . S
C719 N716 1.350 . S
C719 C718 1.434 . S
C720 C721 1.369 . S
C720 C722 1.419 . S
C720 H724 0.930 . S
C721 C720 1.369 . S
C721 C730 1.429 . S
C722 C720 1.419 . S
C722 C723 1.363 . S
C722 H725 0.929 . S
C723 C722 1.363 . S
C723 C729 1.428 . S
H724 C720 0.930 . S
H725 C722 0.929 . S
S726 N727 1.613 . S
S726 N728 1.610 . S
N727 S726 1.613 . S
N727 C730 1.350 . S
N728 S726 1.610 . S
N728 C729 1.351 . S
C729 C723 1.428 . S
C729 N728 1.351 . S
C729 C730 1.434 . S
C730 C721 1.429 . S
C730 N727 1.350 . S
C730 C729 1.434 . S
C731 C732 1.369 . S
C731 C733 1.419 . S
C731 H735 0.930 . S
C732 C731 1.369 . S
C732 C741 1.429 . S
C733 C731 1.419 . S
C733 C734 1.363 . S
C733 H736 0.929 . S
C734 C733 1.363 . S
C734 C740 1.428 . S
H735 C731 0.930 . S
H736 C733 0.929 . S
S737 N738 1.613 . S
S737 N739 1.610 . S
N738 S737 1.613 . S
N738 C741 1.350 . S
N739 S737 1.610 . S
N739 C740 1.351 . S
C740 C734 1.428 . S
C740 N739 1.351 . S
C740 C741 1.434 . S
C741 C732 1.429 . S
C741 N738 1.350 . S
C741 C740 1.434 . S
C742 C743 1.369 1_455 S
C742 C744 1.419 . S
C742 H746 0.930 . S
C743 C742 1.369 1_655 S
C743 C752 1.429 . S
C744 C742 1.419 . S
C744 C745 1.363 1_455 S
C744 H747 0.929 . S
C745 C744 1.363 1_655 S
C745 C751 1.428 . S
H746 C742 0.930 . S
H747 C744 0.929 . S
S748 N749 1.613 . S
S748 N750 1.610 . S
N749 S748 1.613 . S
N749 C752 1.350 . S
N750 S748 1.610 . S
N750 C751 1.351 . S
C751 C745 1.428 . S
C751 N750 1.351 . S
C751 C752 1.434 . S
C752 C743 1.429 . S
C752 N749 1.350 . S
C752 C751 1.434 . S
C753 C754 1.369 . S
C753 C755 1.419 . S
C753 H757 0.930 . S
C754 C753 1.369 . S
C754 C763 1.429 . S
C755 C753 1.419 . S
C755 C756 1.363 . S
C755 H758 0.929 . S
C756 C755 1.363 . S
C756 C762 1.428 . S
H757 C753 0.930 . S
H758 C755 0.929 . S
S759 N760 1.613 . S
S759 N761 1.610 . S
N760 S759 1.613 . S
N760 C763 1.350 1_545 S
N761 S759 1.610 . S
N761 C762 1.351 1_545 S
C762 C756 1.428 . S
C762 N761 1.351 1_565 S
C762 C763 1.434 . S
C763 C754 1.429 . S
C763 N760 1.350 1_565 S
C763 C762 1.434 . S
C764 C765 1.369 . S
C764 C766 1.419 . S
C764 H768 0.930 . S
C765 C764 1.369 . S
C765 C774 1.429 . S
C766 C764 1.419 . S
C766 C767 1.363 . S
C766 H769 0.929 . S
C767 C766 1.363 . S
C767 C773 1.428 . S
H768 C764 0.930 . S
H769 C766 0.929 . S
S770 N771 1.613 . S
S770 N772 1.610 . S
N771 S770 1.613 . S
N771 C774 1.350 . S
N772 S770 1.610 . S
N772 C773 1.351 . S
C773 C767 1.428 . S
C773 N772 1.351 . S
C773 C774 1.434 . S
C774 C765 1.429 . S
C774 N771 1.350 . S
C774 C773 1.434 . S
C775 C776 1.369 . S
C775 C777 1.419 . S
C775 H779 0.930 . S
C776 C775 1.369 . S
C776 C785 1.429 . S
C777 C775 1.419 . S
C777 C778 1.363 . S
C777 H780 0.929 . S
C778 C777 1.363 . S
C778 C784 1.428 . S
H779 C775 0.930 . S
H780 C777 0.929 . S
S781 N782 1.613 . S
S781 N783 1.610 . S
N782 S781 1.613 . S
N782 C785 1.350 . S
N783 S781 1.610 . S
N783 C784 1.351 . S
C784 C778 1.428 . S
C784 N783 1.351 . S
C784 C785 1.434 . S
C785 C776 1.429 . S
C785 N782 1.350 . S
C785 C784 1.434 . S
C786 C787 1.369 . S
C786 C788 1.419 . S
C786 H790 0.930 1_655 S
C787 C786 1.369 . S
C787 C796 1.429 . S
C788 C786 1.419 . S
C788 C789 1.363 . S
C788 H791 0.929 . S
C789 C788 1.363 . S
C789 C795 1.428 . S
H790 C786 0.930 1_455 S
H791 C788 0.929 . S
S792 N793 1.613 . S
S792 N794 1.610 . S
N793 S792 1.613 . S
N793 C796 1.350 . S
N794 S792 1.610 . S
N794 C795 1.351 . S
C795 C789 1.428 . S
C795 N794 1.351 . S
C795 C796 1.434 . S
C796 C787 1.429 . S
C796 N793 1.350 . S
C796 C795 1.434 . S
C797 C798 1.369 1_545 S
C797 C799 1.419 . S
C797 H801 0.930 . S
C798 C797 1.369 1_565 S
C798 C807 1.429 . S
C799 C797 1.419 . S
C799 C800 1.363 1_545 S
C799 H802 0.929 . S
C800 C799 1.363 1_565 S
C800 C806 1.428 . S
H801 C797 0.930 . S
H802 C799 0.929 . S
S803 N804 1.613 . S
S803 N805 1.610 . S
N804 S803 1.613 . S
N804 C807 1.350 . S
N805 S803 1.610 . S
N805 C806 1.351 . S
C806 C800 1.428 . S
C806 N805 1.351 . S
C806 C807 1.434 . S
C807 C798 1.429 . S
C807 N804 1.350 . S
C807 C806 1.434 . S
C808 C809 1.369 . S
C808 C810 1.419 . S
C808 H812 0.930 . S
C809 C808 1.369 . S
C809 C818 1.429 . S
C810 C808 1.419 . S
C810 C811 1.363 . S
C810 H813 0.929 . S
C811 C810 1.363 . S
C811 C817 1.428 . S
H812 C808 0.930 . S
H813 C810 0.929 . S
S814 N815 1.613 . S
S814 N816 1.610 . S
N815 S814 1.613 . S
N815 C818 1.350 . S
N816 S814 1.610 . S
N816 C817 1.351 . S
C817 C811 1.428 . S
C817 N816 1.351 . S
C817 C818 1.434 . S
C818 C809 1.429 . S
C818 N815 1.350 . S
C818 C817 1.434 . S
C819 C820 1.369 . S
C819 C821 1.419 . S
C819 H823 0.930 . S
C820 C819 1.369 . S
C820 C829 1.429 . S
C821 C819 1.419 . S
C821 C822 1.363 . S
C821 H824 0.929 . S
C822 C821 1.363 . S
C822 C828 1.428 . S
H823 C819 0.930 . S
H824 C821 0.929 . S
S825 N826 1.613 . S
S825 N827 1.610 . S
N826 S825 1.613 . S
N826 C829 1.350 . S
N827 S825 1.610 . S
N827 C828 1.351 . S
C828 C822 1.428 . S
C828 N827 1.351 . S
C828 C829 1.434 . S
C829 C820 1.429 . S
C829 N826 1.350 . S
C829 C828 1.434 . S
C830 C831 1.369 . S
C830 C832 1.419 . S
C830 H834 0.930 . S
C831 C830 1.369 . S
C831 C840 1.429 . S
C832 C830 1.419 . S
C832 C833 1.363 . S
C832 H835 0.929 . S
C833 C832 1.363 . S
C833 C839 1.428 . S
H834 C830 0.930 . S
H835 C832 0.929 . S
S836 N837 1.613 . S
S836 N838 1.610 . S
N837 S836 1.613 . S
N837 C840 1.350 . S
N838 S836 1.610 . S
N838 C839 1.351 . S
C839 C833 1.428 . S
C839 N838 1.351 . S
C839 C840 1.434 . S
C840 C831 1.429 . S
C840 N837 1.350 . S
C840 C839 1.434 . S
C841 C842 1.369 1_565 S
C841 C843 1.419 . S
C841 H845 0.930 . S
C842 C841 1.369 1_545 S
C842 C851 1.429 . S
C843 C841 1.419 . S
C843 C844 1.363 1_565 S
C843 H846 0.929 . S
C844 C843 1.363 1_545 S
C844 C850 1.428 . S
H845 C841 0.930 . S
H846 C843 0.929 . S
S847 N848 1.613 . S
S847 N849 1.610 . S
N848 S847 1.613 . S
N848 C851 1.350 . S
N849 S847 1.610 . S
N849 C850 1.351 . S
C850 C844 1.428 . S
C850 N849 1.351 . S
C850 C851 1.434 . S
C851 C842 1.429 . S
C851 N848 1.350 . S
C851 C850 1.434 . S
C852 C853 1.369 . S
C852 C854 1.419 . S
C852 H856 0.930 . S
C853 C852 1.369 . S
C853 C862 1.429 . S
C854 C852 1.419 . S
C854 C855 1.363 . S
C854 H857 0.929 . S
C855 C854 1.363 . S
C855 C861 1.428 . S
H856 C852 0.930 . S
H857 C854 0.929 . S
S858 N859 1.613 . S
S858 N860 1.610 . S
N859 S858 1.613 . S
N859 C862 1.350 . S
N860 S858 1.610 . S
N860 C861 1.351 . S
C861 C855 1.428 . S
C861 N860 1.351 . S
C861 C862 1.434 . S
C862 C853 1.429 . S
C862 N859 1.350 . S
C862 C861 1.434 . S
C863 C864 1.369 . S
C863 C865 1.419 . S
C863 H867 0.930 . S
C864 C863 1.369 . S
C864 C873 1.429 . S
C865 C863 1.419 . S
C865 C866 1.363 . S
C865 H868 0.929 . S
C866 C865 1.363 . S
C866 C872 1.428 . S
H867 C863 0.930 . S
H868 C865 0.929 . S
S869 N870 1.613 . S
S869 N871 1.610 . S
N870 S869 1.613 . S
N870 C873 1.350 . S
N871 S869 1.610 . S
N871 C872 1.351 . S
C872 C866 1.428 . S
C872 N871 1.351 . S
C872 C873 1.434 . S
C873 C864 1.429 . S
C873 N870 1.350 . S
C873 C872 1.434 . S
C874 C875 1.369 . S
C874 C876 1.419 . S
C874 H878 0.930 . S
C875 C874 1.369 . S
C875 C884 1.429 . S
C876 C874 1.419 . S
C876 C877 1.363 . S
C876 H879 0.929 . S
C877 C876 1.363 . S
C877 C883 1.428 . S
H878 C874 0.930 . S
H879 C876 0.929 . S
S880 N881 1.613 . S
S880 N882 1.610 . S
N881 S880 1.613 . S
N881 C884 1.350 . S
N882 S880 1.610 . S
N882 C883 1.351 . S
C883 C877 1.428 . S
C883 N882 1.351 . S
C883 C884 1.434 . S
C884 C875 1.429 . S
C884 N881 1.350 . S
C884 C883 1.434 . S
C885 C886 1.369 . S
C885 C887 1.419 . S
C885 H889 0.930 . S
C886 C885 1.369 . S
C886 C895 1.429 . S
C887 C885 1.419 . S
C887 C888 1.363 . S
C887 H890 0.929 . S
C888 C887 1.363 . S
C888 C894 1.428 . S
H889 C885 0.930 . S
H890 C887 0.929 . S
S891 N892 1.613 . S
S891 N893 1.610 . S
N892 S891 1.613 . S
N892 C895 1.350 1_565 S
N893 S891 1.610 . S
N893 C894 1.351 1_565 S
C894 C888 1.428 . S
C894 N893 1.351 1_545 S
C894 C895 1.434 . S
C895 C886 1.429 . S
C895 N892 1.350 1_545 S
C895 C894 1.434 . S
C896 C897 1.369 1_545 S
C896 C898 1.419 . S
C896 H900 0.930 . S
C897 C896 1.369 1_565 S
C897 C906 1.429 . S
C898 C896 1.419 . S
C898 C899 1.363 1_556 S
C898 H901 0.932 . S
C899 C898 1.363 1_554 S
C899 C905 1.428 1_545 S
H900 C896 0.930 . S
H901 C898 0.932 . S
S902 N903 1.613 1_554 S
S902 N904 1.610 . S
N903 S902 1.613 1_556 S
N903 C906 1.350 . S
N904 S902 1.610 . S
N904 C905 1.351 . S
C905 C899 1.428 1_565 S
C905 N904 1.351 . S
C905 C906 1.434 1_554 S
C906 C897 1.429 . S
C906 N903 1.350 . S
C906 C905 1.434 1_556 S
C907 C908 1.369 . S
C907 C909 1.419 . S
C907 H911 0.930 . S
C908 C907 1.369 . S
C908 C917 1.429 . S
C909 C907 1.419 . S
C909 C910 1.363 . S
C909 H912 0.929 . S
C910 C909 1.363 . S
C910 C916 1.428 . S
H911 C907 0.930 . S
H912 C909 0.929 . S
S913 N914 1.613 . S
S913 N915 1.610 . S
N914 S913 1.613 . S
N914 C917 1.350 . S
N915 S913 1.610 . S
N915 C916 1.351 . S
C916 C910 1.428 . S
C916 N915 1.351 . S
C916 C917 1.434 . S
C917 C908 1.429 . S
C917 N914 1.350 . S
C917 C916 1.434 . S
C918 C919 1.369 . S
C918 C920 1.419 1_554 S
C918 H922 0.930 1_455 S
C919 C918 1.369 . S
C919 C928 1.429 1_554 S
C920 C918 1.419 1_556 S
C920 C921 1.363 . S
C920 H923 0.929 . S
C921 C920 1.363 . S
C921 C927 1.428 . S
H922 C918 0.930 1_655 S
H923 C920 0.929 . S
S924 N925 1.650 . S
S924 N926 1.610 . S
N925 S924 1.650 . S
N925 C928 1.351 . S
N926 S924 1.610 . S
N926 C927 1.351 . S
C927 C921 1.428 . S
C927 N926 1.351 . S
C927 C928 1.434 . S
C928 C919 1.429 1_556 S
C928 N925 1.351 . S
C928 C927 1.434 . S
C929 C930 1.369 1_455 S
C929 C931 1.419 . S
C929 H933 0.930 . S
C930 C929 1.369 1_655 S
C930 C939 1.429 . S
C931 C929 1.419 . S
C931 C932 1.363 . S
C931 H934 0.929 1_545 S
C932 C931 1.363 . S
C932 C938 1.428 1_455 S
H933 C929 0.930 . S
H934 C931 0.929 1_565 S
S935 N936 1.613 . S
S935 N937 1.610 . S
N936 S935 1.613 . S
N936 C939 1.350 . S
N937 S935 1.610 . S
N937 C938 1.351 . S
C938 C932 1.428 1_655 S
C938 N937 1.351 . S
C938 C939 1.434 . S
C939 C930 1.429 . S
C939 N936 1.350 . S
C939 C938 1.434 . S
C940 C941 1.333 1_554 S
C940 C942 1.459 . S
C940 H944 0.926 1_554 S
C941 C940 1.333 1_556 S
C941 C950 1.429 . S
C942 C940 1.459 . S
C942 C943 1.363 . S
C942 H945 0.929 . S
C943 C942 1.363 . S
C943 C949 1.428 . S
H944 C940 0.926 1_556 S
H945 C942 0.929 . S
S946 N947 1.613 . S
S946 N948 1.610 1_556 S
N947 S946 1.613 . S
N947 C950 1.350 . S
N948 S946 1.610 1_554 S
N948 C949 1.351 . S
C949 C943 1.428 . S
C949 N948 1.351 . S
C949 C950 1.434 1_554 S
C950 C941 1.429 . S
C950 N947 1.350 . S
C950 C949 1.434 1_556 S
C951 C952 1.369 1_655 S
C951 C953 1.419 . S
C951 H955 0.932 . S
C952 C951 1.369 1_455 S
C952 C961 1.429 . S
C953 C951 1.419 . S
C953 C954 1.363 . S
C953 H956 0.929 . S
C954 C953 1.363 . S
C954 C960 1.428 . S
H955 C951 0.932 . S
H956 C953 0.929 . S
S957 N958 1.613 . S
S957 N959 1.610 1_455 S
N958 S957 1.613 . S
N958 C961 1.350 . S
N959 S957 1.610 1_655 S
N959 C960 1.351 . S
C960 C954 1.428 . S
C960 N959 1.351 . S
C960 C961 1.434 1_655 S
C961 C952 1.429 . S
C961 N958 1.350 . S
C961 C960 1.434 1_455 S
C962 C963 1.369 . S
C962 C964 1.419 1_554 S
C962 H966 0.930 . S
C963 C962 1.369 . S
C963 C972 1.429 1_455 S
C964 C962 1.419 1_556 S
C964 C965 1.363 1_565 S
C964 H967 0.929 . S
C965 C964 1.363 1_545 S
C965 C971 1.426 1_455 S
H966 C962 0.930 . S
H967 C964 0.929 . S
S968 N969 1.613 . S
S968 N970 1.610 1_554 S
N969 S968 1.613 . S
N969 C972 1.350 1_545 S
N970 S968 1.610 1_556 S
N970 C971 1.351 . S
C971 C965 1.426 1_655 S
C971 N970 1.351 . S
C971 C972 1.437 1_546 S
C972 C963 1.429 1_655 S
C972 N969 1.350 1_565 S
C972 C971 1.437 1_564 S
C973 C974 1.369 . S
C973 C975 1.419 . S
C973 H977 0.930 . S
C974 C973 1.369 . S
C974 C983 1.429 . S
C975 C973 1.419 . S
C975 C976 1.363 . S
C975 H978 0.929 . S
C976 C975 1.363 . S
C976 C982 1.428 . S
H977 C973 0.930 . S
H978 C975 0.929 . S
S979 N980 1.613 . S
S979 N981 1.610 . S
N980 S979 1.613 . S
N980 C983 1.350 . S
N981 S979 1.610 . S
N981 C982 1.351 . S
C982 C976 1.428 . S
C982 N981 1.351 . S
C982 C983 1.434 . S
C983 C974 1.429 . S
C983 N980 1.350 . S
C983 C982 1.434 . S
C545 C5 1.834 . S
C547 C243 1.834 1_545 S
C556 C141 1.838 . S
C558 C39 1.832 . S
C567 C73 1.831 1_455 S
C569 C175 1.837 . S
C578 C107 1.831 1_545 S
C580 C209 1.836 1_455 S
C589 C281 1.357 . S
C591 C519 1.359 . S
C600 C315 1.353 . S
C602 C417 1.354 . S
C611 C349 1.359 . S
C613 C451 1.360 . S
C622 C485 1.361 . S
C624 C383 1.361 . S
C633 C33 1.925 . S
C635 C101 1.922 . S
C644 C135 1.918 . S
C646 C67 1.926 . S
C655 C237 1.926 . S
C657 C169 1.921 . S
C666 C203 1.918 . S
C668 C271 1.926 . S
C677 C373 1.526 . S
C679 C305 1.525 . S
C688 C407 1.520 . S
C690 C339 1.530 . S
C699 C509 1.527 . S
C701 C441 1.525 . S
C710 C543 1.519 . S
C712 C475 1.532 . S
C721 C410 0.828 . S
C723 C20 0.847 . S
C732 C444 0.827 . S
C734 C54 0.845 . S
C743 C88 0.844 . S
C745 C478 0.839 1_655 S
C754 C512 0.827 1_565 S
C756 C122 0.847 . S
C765 C156 0.846 . S
C767 C274 0.836 . S
C776 C308 0.827 . S
C778 C190 0.847 . S
C787 C224 0.846 . S
C789 C342 0.835 1_655 S
C798 C258 0.842 . S
C800 C376 0.836 1_565 S
C809 C138 0.841 . S
C811 C292 0.859 . S
C820 C172 0.842 . S
C822 C326 0.857 . S
C831 C206 0.843 . S
C833 C360 0.859 . S
C842 C240 0.854 . S
C844 C394 0.857 . S
C853 C2 0.852 . S
C855 C428 0.856 . S
C864 C36 0.845 . S
C866 C462 0.859 . S
C875 C70 0.849 . S
C877 C496 0.856 . S
C886 C530 0.860 . S
C888 C104 0.845 . S
C897 C277 1.649 . S
C899 C9 1.593 . S
C908 C43 1.599 . S
C910 C311 1.646 . S
C919 C77 1.599 1_455 S
C921 C345 1.643 . S
C930 C379 1.648 . S
C932 C111 1.594 1_545 S
C941 C145 1.589 . S
C943 C413 1.646 . S
C952 C179 1.592 . S
C954 C447 1.642 . S
C963 C481 1.642 . S
C965 C213 1.591 1_455 S
C974 C247 1.599 1_545 S
C976 C515 1.643 . S
