# Generated by pormake.
# Topology wio, (6)-cn, num edge types: 1
# Building blocks:
#     Node 0, Type 0, BuildingBlock: BETFEN_clean_sbu_0, # of connection points: 6
#     Node 1, Type 0, BuildingBlock: BETFEN_clean_sbu_0, # of connection points: 6
#     Node 2, Type 0, BuildingBlock: BETFEN_clean_sbu_0, # of connection points: 6
#     Node 3, Type 0, BuildingBlock: BETFEN_clean_sbu_0, # of connection points: 6
#     Node 4, Type 0, BuildingBlock: BETFEN_clean_sbu_0, # of connection points: 6
#     Node 5, Type 0, BuildingBlock: BETFEN_clean_sbu_0, # of connection points: 6
#     Node 6, Type 0, BuildingBlock: BETFEN_clean_sbu_0, # of connection points: 6
#     Node 7, Type 0, BuildingBlock: BETFEN_clean_sbu_0, # of connection points: 6
#     Node 8, Type 0, BuildingBlock: BETFEN_clean_sbu_0, # of connection points: 6
#     Node 9, Type 0, BuildingBlock: BETFEN_clean_sbu_0, # of connection points: 6
#     Node 10, Type 0, BuildingBlock: BETFEN_clean_sbu_0, # of connection points: 6
#     Node 11, Type 0, BuildingBlock: BETFEN_clean_sbu_0, # of connection points: 6
#     Node 12, Type 0, BuildingBlock: BETFEN_clean_sbu_0, # of connection points: 6
#     Node 13, Type 0, BuildingBlock: BETFEN_clean_sbu_0, # of connection points: 6
#     Node 14, Type 0, BuildingBlock: BETFEN_clean_sbu_0, # of connection points: 6
#     Node 15, Type 0, BuildingBlock: BETFEN_clean_sbu_0, # of connection points: 6
#     Node 16, Type 0, BuildingBlock: BETFEN_clean_sbu_0, # of connection points: 6
#     Node 17, Type 0, BuildingBlock: BETFEN_clean_sbu_0, # of connection points: 6
#     Node 18, Type 0, BuildingBlock: BETFEN_clean_sbu_0, # of connection points: 6
#     Node 19, Type 0, BuildingBlock: BETFEN_clean_sbu_0, # of connection points: 6
#     Node 20, Type 0, BuildingBlock: BETFEN_clean_sbu_0, # of connection points: 6
#     Node 21, Type 0, BuildingBlock: BETFEN_clean_sbu_0, # of connection points: 6
#     Node 22, Type 0, BuildingBlock: BETFEN_clean_sbu_0, # of connection points: 6
#     Node 23, Type 0, BuildingBlock: BETFEN_clean_sbu_0, # of connection points: 6
#     Node 24, Type 0, BuildingBlock: BETFEN_clean_sbu_0, # of connection points: 6
#     Node 25, Type 0, BuildingBlock: BETFEN_clean_sbu_0, # of connection points: 6
#     Node 26, Type 0, BuildingBlock: BETFEN_clean_sbu_0, # of connection points: 6
#     Node 27, Type 0, BuildingBlock: BETFEN_clean_sbu_0, # of connection points: 6
#     Node 28, Type 0, BuildingBlock: BETFEN_clean_sbu_0, # of connection points: 6
#     Node 29, Type 0, BuildingBlock: BETFEN_clean_sbu_0, # of connection points: 6
#     Node 30, Type 0, BuildingBlock: BETFEN_clean_sbu_0, # of connection points: 6
#     Node 31, Type 0, BuildingBlock: BETFEN_clean_sbu_0, # of connection points: 6
#     Edge 32, Type (0, 0), BuildingBlock: ZUJKAS_clean_linker_0, # of connection points: 2
#     Edge 33, Type (0, 0), BuildingBlock: ZUJKAS_clean_linker_0, # of connection points: 2
#     Edge 34, Type (0, 0), BuildingBlock: ZUJKAS_clean_linker_0, # of connection points: 2
#     Edge 35, Type (0, 0), BuildingBlock: ZUJKAS_clean_linker_0, # of connection points: 2
#     Edge 36, Type (0, 0), BuildingBlock: ZUJKAS_clean_linker_0, # of connection points: 2
#     Edge 37, Type (0, 0), BuildingBlock: ZUJKAS_clean_linker_0, # of connection points: 2
#     Edge 38, Type (0, 0), BuildingBlock: ZUJKAS_clean_linker_0, # of connection points: 2
#     Edge 39, Type (0, 0), BuildingBlock: ZUJKAS_clean_linker_0, # of connection points: 2
#     Edge 40, Type (0, 0), BuildingBlock: ZUJKAS_clean_linker_0, # of connection points: 2
#     Edge 41, Type (0, 0), BuildingBlock: ZUJKAS_clean_linker_0, # of connection points: 2
#     Edge 42, Type (0, 0), BuildingBlock: ZUJKAS_clean_linker_0, # of connection points: 2
#     Edge 43, Type (0, 0), BuildingBlock: ZUJKAS_clean_linker_0, # of connection points: 2
#     Edge 44, Type (0, 0), BuildingBlock: ZUJKAS_clean_linker_0, # of connection points: 2
#     Edge 45, Type (0, 0), BuildingBlock: ZUJKAS_clean_linker_0, # of connection points: 2
#     Edge 46, Type (0, 0), BuildingBlock: ZUJKAS_clean_linker_0, # of connection points: 2
#     Edge 47, Type (0, 0), BuildingBlock: ZUJKAS_clean_linker_0, # of connection points: 2
#     Edge 48, Type (0, 0), BuildingBlock: ZUJKAS_clean_linker_0, # of connection points: 2
#     Edge 49, Type (0, 0), BuildingBlock: ZUJKAS_clean_linker_0, # of connection points: 2
#     Edge 50, Type (0, 0), BuildingBlock: ZUJKAS_clean_linker_0, # of connection points: 2
#     Edge 51, Type (0, 0), BuildingBlock: ZUJKAS_clean_linker_0, # of connection points: 2
#     Edge 52, Type (0, 0), BuildingBlock: ZUJKAS_clean_linker_0, # of connection points: 2
#     Edge 53, Type (0, 0), BuildingBlock: ZUJKAS_clean_linker_0, # of connection points: 2
#     Edge 54, Type (0, 0), BuildingBlock: ZUJKAS_clean_linker_0, # of connection points: 2
#     Edge 55, Type (0, 0), BuildingBlock: ZUJKAS_clean_linker_0, # of connection points: 2
#     Edge 56, Type (0, 0), BuildingBlock: ZUJKAS_clean_linker_0, # of connection points: 2
#     Edge 57, Type (0, 0), BuildingBlock: ZUJKAS_clean_linker_0, # of connection points: 2
#     Edge 58, Type (0, 0), BuildingBlock: ZUJKAS_clean_linker_0, # of connection points: 2
#     Edge 59, Type (0, 0), BuildingBlock: ZUJKAS_clean_linker_0, # of connection points: 2
#     Edge 60, Type (0, 0), BuildingBlock: ZUJKAS_clean_linker_0, # of connection points: 2
#     Edge 61, Type (0, 0), BuildingBlock: ZUJKAS_clean_linker_0, # of connection points: 2
#     Edge 62, Type (0, 0), BuildingBlock: ZUJKAS_clean_linker_0, # of connection points: 2
#     Edge 63, Type (0, 0), BuildingBlock: ZUJKAS_clean_linker_0, # of connection points: 2
#     Edge 64, Type (0, 0), BuildingBlock: ZUJKAS_clean_linker_0, # of connection points: 2
#     Edge 65, Type (0, 0), BuildingBlock: ZUJKAS_clean_linker_0, # of connection points: 2
#     Edge 66, Type (0, 0), BuildingBlock: ZUJKAS_clean_linker_0, # of connection points: 2
#     Edge 67, Type (0, 0), BuildingBlock: ZUJKAS_clean_linker_0, # of connection points: 2
#     Edge 68, Type (0, 0), BuildingBlock: ZUJKAS_clean_linker_0, # of connection points: 2
#     Edge 69, Type (0, 0), BuildingBlock: ZUJKAS_clean_linker_0, # of connection points: 2
#     Edge 70, Type (0, 0), BuildingBlock: ZUJKAS_clean_linker_0, # of connection points: 2
#     Edge 71, Type (0, 0), BuildingBlock: ZUJKAS_clean_linker_0, # of connection points: 2
#     Edge 72, Type (0, 0), BuildingBlock: ZUJKAS_clean_linker_0, # of connection points: 2
#     Edge 73, Type (0, 0), BuildingBlock: ZUJKAS_clean_linker_0, # of connection points: 2
#     Edge 74, Type (0, 0), BuildingBlock: ZUJKAS_clean_linker_0, # of connection points: 2
#     Edge 75, Type (0, 0), BuildingBlock: ZUJKAS_clean_linker_0, # of connection points: 2
#     Edge 76, Type (0, 0), BuildingBlock: ZUJKAS_clean_linker_0, # of connection points: 2
#     Edge 77, Type (0, 0), BuildingBlock: ZUJKAS_clean_linker_0, # of connection points: 2
#     Edge 78, Type (0, 0), BuildingBlock: ZUJKAS_clean_linker_0, # of connection points: 2
#     Edge 79, Type (0, 0), BuildingBlock: ZUJKAS_clean_linker_0, # of connection points: 2
#     Edge 80, Type (0, 0), BuildingBlock: ZUJKAS_clean_linker_0, # of connection points: 2
#     Edge 81, Type (0, 0), BuildingBlock: ZUJKAS_clean_linker_0, # of connection points: 2
#     Edge 82, Type (0, 0), BuildingBlock: ZUJKAS_clean_linker_0, # of connection points: 2
#     Edge 83, Type (0, 0), BuildingBlock: ZUJKAS_clean_linker_0, # of connection points: 2
#     Edge 84, Type (0, 0), BuildingBlock: ZUJKAS_clean_linker_0, # of connection points: 2
#     Edge 85, Type (0, 0), BuildingBlock: ZUJKAS_clean_linker_0, # of connection points: 2
#     Edge 86, Type (0, 0), BuildingBlock: ZUJKAS_clean_linker_0, # of connection points: 2
#     Edge 87, Type (0, 0), BuildingBlock: ZUJKAS_clean_linker_0, # of connection points: 2
#     Edge 88, Type (0, 0), BuildingBlock: ZUJKAS_clean_linker_0, # of connection points: 2
#     Edge 89, Type (0, 0), BuildingBlock: ZUJKAS_clean_linker_0, # of connection points: 2
#     Edge 90, Type (0, 0), BuildingBlock: ZUJKAS_clean_linker_0, # of connection points: 2
#     Edge 91, Type (0, 0), BuildingBlock: ZUJKAS_clean_linker_0, # of connection points: 2
#     Edge 92, Type (0, 0), BuildingBlock: ZUJKAS_clean_linker_0, # of connection points: 2
#     Edge 93, Type (0, 0), BuildingBlock: ZUJKAS_clean_linker_0, # of connection points: 2
#     Edge 94, Type (0, 0), BuildingBlock: ZUJKAS_clean_linker_0, # of connection points: 2
#     Edge 95, Type (0, 0), BuildingBlock: ZUJKAS_clean_linker_0, # of connection points: 2
#     Edge 96, Type (0, 0), BuildingBlock: ZUJKAS_clean_linker_0, # of connection points: 2
#     Edge 97, Type (0, 0), BuildingBlock: ZUJKAS_clean_linker_0, # of connection points: 2
#     Edge 98, Type (0, 0), BuildingBlock: ZUJKAS_clean_linker_0, # of connection points: 2
#     Edge 99, Type (0, 0), BuildingBlock: ZUJKAS_clean_linker_0, # of connection points: 2
#     Edge 100, Type (0, 0), BuildingBlock: ZUJKAS_clean_linker_0, # of connection points: 2
#     Edge 101, Type (0, 0), BuildingBlock: ZUJKAS_clean_linker_0, # of connection points: 2
#     Edge 102, Type (0, 0), BuildingBlock: ZUJKAS_clean_linker_0, # of connection points: 2
#     Edge 103, Type (0, 0), BuildingBlock: ZUJKAS_clean_linker_0, # of connection points: 2
#     Edge 104, Type (0, 0), BuildingBlock: ZUJKAS_clean_linker_0, # of connection points: 2
#     Edge 105, Type (0, 0), BuildingBlock: ZUJKAS_clean_linker_0, # of connection points: 2
#     Edge 106, Type (0, 0), BuildingBlock: ZUJKAS_clean_linker_0, # of connection points: 2
#     Edge 107, Type (0, 0), BuildingBlock: ZUJKAS_clean_linker_0, # of connection points: 2
#     Edge 108, Type (0, 0), BuildingBlock: ZUJKAS_clean_linker_0, # of connection points: 2
#     Edge 109, Type (0, 0), BuildingBlock: ZUJKAS_clean_linker_0, # of connection points: 2
#     Edge 110, Type (0, 0), BuildingBlock: ZUJKAS_clean_linker_0, # of connection points: 2
#     Edge 111, Type (0, 0), BuildingBlock: ZUJKAS_clean_linker_0, # of connection points: 2
#     Edge 112, Type (0, 0), BuildingBlock: ZUJKAS_clean_linker_0, # of connection points: 2
#     Edge 113, Type (0, 0), BuildingBlock: ZUJKAS_clean_linker_0, # of connection points: 2
#     Edge 114, Type (0, 0), BuildingBlock: ZUJKAS_clean_linker_0, # of connection points: 2
#     Edge 115, Type (0, 0), BuildingBlock: ZUJKAS_clean_linker_0, # of connection points: 2
#     Edge 116, Type (0, 0), BuildingBlock: ZUJKAS_clean_linker_0, # of connection points: 2
#     Edge 117, Type (0, 0), BuildingBlock: ZUJKAS_clean_linker_0, # of connection points: 2
#     Edge 118, Type (0, 0), BuildingBlock: ZUJKAS_clean_linker_0, # of connection points: 2
#     Edge 119, Type (0, 0), BuildingBlock: ZUJKAS_clean_linker_0, # of connection points: 2
#     Edge 120, Type (0, 0), BuildingBlock: ZUJKAS_clean_linker_0, # of connection points: 2
#     Edge 121, Type (0, 0), BuildingBlock: ZUJKAS_clean_linker_0, # of connection points: 2
#     Edge 122, Type (0, 0), BuildingBlock: ZUJKAS_clean_linker_0, # of connection points: 2
#     Edge 123, Type (0, 0), BuildingBlock: ZUJKAS_clean_linker_0, # of connection points: 2
#     Edge 124, Type (0, 0), BuildingBlock: ZUJKAS_clean_linker_0, # of connection points: 2
#     Edge 125, Type (0, 0), BuildingBlock: ZUJKAS_clean_linker_0, # of connection points: 2
#     Edge 126, Type (0, 0), BuildingBlock: ZUJKAS_clean_linker_0, # of connection points: 2
#     Edge 127, Type (0, 0), BuildingBlock: ZUJKAS_clean_linker_0, # of connection points: 2
# Relax obj value: 0.193
# Max RMSD: 0.229
# Mean RMSD: 0.229
data_MOF--net-wio--node1-BETFEN_clean_sbu_0--edge1-ZUJKAS_clean_linker_0
_symmetry_space_group_name_H-M    P1
_symmetry_Int_Tables_number       1
_symmetry_cell_setting            triclinic
loop_
_symmetry_equiv_pos_as_xyz
'x, y, z'
_cell_length_a     77.145826
_cell_length_b     77.160325
_cell_length_c     68.854111
_cell_angle_alpha  89.963037
_cell_angle_beta   90.012252
_cell_angle_gamma 89.989512
loop_
_atom_site_label
_atom_site_type_symbol
_atom_site_fract_x
_atom_site_fract_y
_atom_site_fract_z
_atom_type_partial_charge
Pr0 Pr 0.15174 0.11877 0.27859 0.0
Pr1 Pr 0.11275 0.12518 0.28684 0.0
C2 C 0.1836 0.11077 0.26473 0.0
C3 C 0.19585 0.11329 0.24834 0.0
C4 C 0.21261 0.11948 0.25222 0.0
C5 C 0.22495 0.12082 0.23738 0.0
C6 C 0.22087 0.11591 0.21823 0.0
C7 C 0.20396 0.10995 0.21429 0.0
C8 C 0.19158 0.10869 0.22916 0.0
C9 C 0.14443 0.14893 0.29936 0.0
C10 C 0.12615 0.13401 0.2428 0.0
C11 C 0.08239 0.13565 0.30264 0.0
C12 C 0.06976 0.13233 0.3185 0.0
C13 C 0.05263 0.12781 0.31378 0.0
C14 C 0.0401 0.12578 0.32831 0.0
C15 C 0.04433 0.12832 0.348 0.0
C16 C 0.06154 0.13271 0.35274 0.0
C17 C 0.07412 0.13468 0.33818 0.0
C18 C 0.11988 0.0933 0.26939 0.0
C19 C 0.13671 0.10265 0.3195 0.0
O20 O 0.16987 0.10112 0.2619 0.0
O21 O 0.18066 0.12398 0.27616 0.0
O22 O 0.13587 0.14372 0.28477 0.0
O23 O 0.15752 0.13887 0.30298 0.0
O24 O 0.11388 0.1375 0.25564 0.0
O25 O 0.14067 0.12615 0.2479 0.0
O26 O 0.09743 0.14241 0.30716 0.0
O27 O 0.08335 0.12432 0.28854 0.0
O28 O 0.12873 0.10048 0.28244 0.0
O29 O 0.10592 0.1022 0.26572 0.0
O30 O 0.14924 0.10155 0.30644 0.0
O31 O 0.12259 0.11206 0.31616 0.0
H32 H 0.21631 0.12297 0.26689 0.0
H33 H 0.23786 0.12523 0.24105 0.0
H34 H 0.20029 0.10626 0.19969 0.0
H35 H 0.17875 0.1039 0.22567 0.0
H36 H 0.04884 0.12614 0.29875 0.0
H37 H 0.02696 0.12265 0.32405 0.0
H38 H 0.06532 0.13457 0.36774 0.0
H39 H 0.08718 0.13821 0.34234 0.0
Pr40 Pr 0.13127 0.90418 0.53127 0.0
Pr41 Pr 0.12697 0.86501 0.53804 0.0
C42 C 0.13704 0.93701 0.519 0.0
C43 C 0.13582 0.94884 0.5021 0.0
C44 C 0.12921 0.96559 0.50489 0.0
C45 C 0.12859 0.97745 0.48953 0.0
C46 C 0.13462 0.97286 0.47094 0.0
C47 C 0.14109 0.95596 0.4681 0.0
C48 C 0.14164 0.94405 0.48352 0.0
C49 C 0.10181 0.89506 0.55245 0.0
C50 C 0.1189 0.87864 0.49402 0.0
C51 C 0.11762 0.83373 0.55244 0.0
C52 C 0.11975 0.82158 0.56894 0.0
C53 C 0.13612 0.81754 0.57668 0.0
C54 C 0.13777 0.80505 0.5914 0.0
C55 C 0.12308 0.79636 0.59873 0.0
C56 C 0.1067 0.80076 0.5912 0.0
C57 C 0.10508 0.81319 0.57648 0.0
C58 C 0.1584 0.87439 0.52079 0.0
C59 C 0.14818 0.88891 0.57169 0.0
O60 O 0.14887 0.92484 0.5187 0.0
O61 O 0.12254 0.93205 0.52708 0.0
O62 O 0.10698 0.88715 0.53735 0.0
O63 O 0.11171 0.90815 0.55655 0.0
O64 O 0.11553 0.86602 0.50646 0.0
O65 O 0.12586 0.89341 0.49983 0.0
O66 O 0.10871 0.8479 0.55548 0.0
O67 O 0.13076 0.83601 0.54071 0.0
O68 O 0.15084 0.88228 0.53431 0.0
O69 O 0.15015 0.86022 0.51631 0.0
O70 O 0.14847 0.90194 0.55918 0.0
O71 O 0.13952 0.87445 0.56781 0.0
H72 H 0.12474 0.96962 0.51911 0.0
H73 H 0.12375 0.99038 0.49236 0.0
H74 H 0.14565 0.95191 0.45394 0.0
H75 H 0.14673 0.93117 0.48093 0.0
H76 H 0.14767 0.82387 0.57123 0.0
H77 H 0.15056 0.80219 0.59703 0.0
H78 H 0.09512 0.79424 0.59627 0.0
H79 H 0.09232 0.81602 0.57069 0.0
Pr80 Pr 0.3492 0.88168 0.78069 0.0
Pr81 Pr 0.38803 0.87528 0.78814 0.0
C82 C 0.31669 0.8894 0.76854 0.0
C83 C 0.30431 0.88913 0.75219 0.0
C84 C 0.28687 0.89297 0.75588 0.0
C85 C 0.27469 0.89294 0.74083 0.0
C86 C 0.27966 0.88906 0.72164 0.0
C87 C 0.29721 0.88508 0.718 0.0
C88 C 0.30944 0.88514 0.73315 0.0
C89 C 0.35671 0.8518 0.80203 0.0
C90 C 0.37418 0.86691 0.74427 0.0
C91 C 0.4186 0.8648 0.80345 0.0
C92 C 0.43125 0.86806 0.81931 0.0
C93 C 0.44834 0.87272 0.81461 0.0
C94 C 0.46088 0.87469 0.82914 0.0
C95 C 0.45671 0.87194 0.84881 0.0
C96 C 0.43952 0.86743 0.85353 0.0
C97 C 0.42693 0.86553 0.83897 0.0
C98 C 0.38092 0.90702 0.77031 0.0
C99 C 0.36479 0.89811 0.82115 0.0
O100 O 0.32963 0.90033 0.76767 0.0
O101 O 0.32093 0.87455 0.77635 0.0
O102 O 0.36492 0.85661 0.78702 0.0
O103 O 0.34406 0.8623 0.80603 0.0
O104 O 0.38632 0.86281 0.75706 0.0
O105 O 0.35998 0.87524 0.74957 0.0
O106 O 0.40365 0.85783 0.80796 0.0
O107 O 0.41744 0.8763 0.78954 0.0
O108 O 0.37222 0.90013 0.7837 0.0
O109 O 0.39463 0.89783 0.76638 0.0
O110 O 0.35187 0.89878 0.80854 0.0
O111 O 0.37898 0.88893 0.81747 0.0
H112 H 0.28262 0.89599 0.77049 0.0
H113 H 0.26129 0.89574 0.74431 0.0
H114 H 0.30156 0.88216 0.70341 0.0
H115 H 0.32286 0.88213 0.73001 0.0
H116 H 0.45209 0.87455 0.79959 0.0
H117 H 0.474 0.87794 0.8249 0.0
H118 H 0.43577 0.86541 0.86852 0.0
H119 H 0.41389 0.8619 0.84313 0.0
Pr120 Pr 0.37035 0.10056 0.02943 0.0
Pr121 Pr 0.37669 0.13955 0.03741 0.0
C122 C 0.36264 0.06851 0.01595 0.0
C123 C 0.36329 0.05677 0.99886 0.0
C124 C 0.37908 0.05166 0.99039 0.0
C125 C 0.3794 0.03924 0.97552 0.0
C126 C 0.36395 0.03159 0.96876 0.0
C127 C 0.34815 0.0371 0.97694 0.0
C128 C 0.34784 0.04948 0.99181 0.0
C129 C 0.40036 0.10798 0.05047 0.0
C130 C 0.38447 0.12623 0.99309 0.0
C131 C 0.3877 0.16974 0.05317 0.0
C132 C 0.3852 0.18184 0.06963 0.0
C133 C 0.36866 0.18579 0.07694 0.0
C134 C 0.36669 0.19811 0.09178 0.0
C135 C 0.38121 0.20671 0.09966 0.0
C136 C 0.39775 0.2024 0.09251 0.0
C137 C 0.3997 0.19013 0.07768 0.0
C138 C 0.34488 0.13238 0.01986 0.0
C139 C 0.35396 0.11574 0.07014 0.0
O140 O 0.35162 0.0814 0.01563 0.0
O141 O 0.3772 0.07236 0.0247 0.0
O142 O 0.39531 0.1164 0.03569 0.0
O143 O 0.3901 0.09509 0.0543 0.0
O144 O 0.38827 0.13851 1.00582 0.0
O145 O 0.37673 0.11172 0.99847 0.0
O146 O 0.39496 0.15477 0.0569 0.0
O147 O 0.37544 0.16877 0.04008 0.0
O148 O 0.35205 0.12358 0.03299 0.0
O149 O 0.35375 0.14636 0.01617 0.0
O150 O 0.35333 0.10294 0.05739 0.0
O151 O 0.36311 0.13001 0.06663 0.0
H152 H 0.39124 0.05696 0.99553 0.0
H153 H 0.39183 0.03524 0.96975 0.0
H154 H 0.33596 0.03179 0.97192 0.0
H155 H 0.33549 0.05312 0.99809 0.0
H156 H 0.35726 0.17949 0.07108 0.0
H157 H 0.35377 0.20088 0.0971 0.0
H158 H 0.40922 0.20884 0.098 0.0
H159 H 0.41258 0.18733 0.07225 0.0
Pr160 Pr 0.15325 0.88278 0.24858 0.0
Pr161 Pr 0.11437 0.8765 0.241 0.0
C162 C 0.18544 0.89022 0.26193 0.0
C163 C 0.19726 0.88897 0.27894 0.0
C164 C 0.20317 0.87289 0.28598 0.0
C165 C 0.21562 0.8721 0.30081 0.0
C166 C 0.22251 0.88736 0.30898 0.0
C167 C 0.21624 0.90341 0.30221 0.0
C168 C 0.20383 0.90419 0.28736 0.0
C169 C 0.14571 0.85281 0.22749 0.0
C170 C 0.12794 0.86865 0.28517 0.0
C171 C 0.0839 0.86579 0.22568 0.0
C172 C 0.07093 0.86892 0.21013 0.0
C173 C 0.05356 0.87176 0.21527 0.0
C174 C 0.04076 0.87353 0.20101 0.0
C175 C 0.04497 0.87244 0.18115 0.0
C176 C 0.06244 0.86977 0.17599 0.0
C177 C 0.07529 0.86804 0.1903 0.0
C178 C 0.12152 0.90833 0.2585 0.0
C179 C 0.13783 0.8994 0.20807 0.0
O180 O 0.1725 0.90116 0.26282 0.0
O181 O 0.18157 0.87598 0.25259 0.0
O182 O 0.13741 0.85776 0.24238 0.0
O183 O 0.15853 0.86313 0.22359 0.0
O184 O 0.11567 0.8647 0.27248 0.0
O185 O 0.14237 0.87646 0.27967 0.0
O186 O 0.09894 0.85924 0.2208 0.0
O187 O 0.08494 0.87712 0.23976 0.0
O188 O 0.13028 0.90126 0.24529 0.0
O189 O 0.10767 0.89932 0.26232 0.0
O190 O 0.15076 0.89996 0.2207 0.0
O191 O 0.12356 0.89032 0.21175 0.0
H192 H 0.19847 0.86089 0.27976 0.0
H193 H 0.22022 0.8595 0.30545 0.0
H194 H 0.22096 0.91544 0.30833 0.0
H195 H 0.1996 0.91676 0.2822 0.0
H196 H 0.04981 0.87229 0.23043 0.0
H197 H 0.02745 0.87531 0.20559 0.0
H198 H 0.06621 0.86905 0.16086 0.0
H199 H 0.08857 0.86584 0.18584 0.0
Pr200 Pr 0.3665 0.89844 0.5027 0.0
Pr201 Pr 0.37455 0.85739 0.49063 0.0
C202 C 0.35257 0.92752 0.51813 0.0
C203 C 0.35559 0.94136 0.53276 0.0
C204 C 0.36989 0.95264 0.53176 0.0
C205 C 0.37196 0.96594 0.5455 0.0
C206 C 0.35983 0.96823 0.56059 0.0
C207 C 0.34561 0.95683 0.56155 0.0
C208 C 0.34352 0.94363 0.54781 0.0
C209 C 0.39931 0.89436 0.48473 0.0
C210 C 0.3827 0.87169 0.53647 0.0
C211 C 0.3881 0.82667 0.47975 0.0
C212 C 0.38626 0.81357 0.46412 0.0
C213 C 0.38413 0.79605 0.46906 0.0
C214 C 0.38263 0.78337 0.4546 0.0
C215 C 0.38332 0.7879 0.43481 0.0
C216 C 0.38547 0.80548 0.42988 0.0
C217 C 0.38686 0.81819 0.44436 0.0
C218 C 0.34034 0.86526 0.49879 0.0
C219 C 0.35335 0.88285 0.45965 0.0
O220 O 0.34945 0.91194 0.52478 0.0
O221 O 0.3618 0.92751 0.50214 0.0
O222 O 0.3883 0.88304 0.48899 0.0
O223 O 0.39371 0.90924 0.491 0.0
O224 O 0.3828 0.85855 0.52392 0.0
O225 O 0.37802 0.88762 0.53159 0.0
O226 O 0.39499 0.84164 0.4751 0.0
O227 O 0.37531 0.828 0.4922 0.0
O228 O 0.35334 0.87183 0.5073 0.0
O229 O 0.34491 0.85289 0.48698 0.0
O230 O 0.3508 0.89428 0.47381 0.0
O231 O 0.36419 0.86951 0.46138 0.0
H232 H 0.37945 0.95124 0.52035 0.0
H233 H 0.38317 0.97433 0.5444 0.0
H234 H 0.33584 0.95832 0.57271 0.0
H235 H 0.33229 0.93524 0.54884 0.0
H236 H 0.38372 0.79213 0.48417 0.0
H237 H 0.38119 0.76996 0.45895 0.0
H238 H 0.38583 0.80947 0.4148 0.0
H239 H 0.3884 0.83161 0.44006 0.0
Pr240 Pr 0.35081 0.11765 0.74854 0.0
Pr241 Pr 0.38957 0.12434 0.7407 0.0
C242 C 0.31892 0.10882 0.76165 0.0
C243 C 0.30627 0.11095 0.7776 0.0
C244 C 0.28858 0.10905 0.7735 0.0
C245 C 0.27623 0.11017 0.78833 0.0
C246 C 0.28129 0.11324 0.80767 0.0
C247 C 0.29907 0.11546 0.81169 0.0
C248 C 0.31146 0.11428 0.7968 0.0
C249 C 0.35783 0.14829 0.72842 0.0
C250 C 0.37598 0.1326 0.78485 0.0
C251 C 0.41994 0.13525 0.72533 0.0
C252 C 0.43285 0.13207 0.7097 0.0
C253 C 0.4498 0.12713 0.71471 0.0
C254 C 0.4626 0.12529 0.70044 0.0
C255 C 0.45882 0.12846 0.68075 0.0
C256 C 0.44178 0.13324 0.67572 0.0
C257 C 0.42894 0.13502 0.69001 0.0
C258 C 0.38266 0.09212 0.75753 0.0
C259 C 0.36611 0.10193 0.70752 0.0
O260 O 0.33291 0.09976 0.76519 0.0
O261 O 0.32173 0.12215 0.75035 0.0
O262 O 0.36642 0.14294 0.74293 0.0
O263 O 0.34491 0.13809 0.72453 0.0
O264 O 0.38832 0.13619 0.77212 0.0
O265 O 0.36147 0.12484 0.77952 0.0
O266 O 0.40486 0.14175 0.72051 0.0
O267 O 0.41899 0.12398 0.73949 0.0
O268 O 0.37383 0.09941 0.74453 0.0
O269 O 0.39647 0.10113 0.76151 0.0
O270 O 0.35344 0.10084 0.7204 0.0
O271 O 0.38026 0.1112 0.71114 0.0
H272 H 0.28429 0.10653 0.75879 0.0
H273 H 0.26267 0.10871 0.78459 0.0
H274 H 0.30346 0.11771 0.82641 0.0
H275 H 0.32506 0.11577 0.80029 0.0
H276 H 0.45326 0.12499 0.72977 0.0
H277 H 0.4756 0.12183 0.70493 0.0
H278 H 0.43834 0.1356 0.66069 0.0
H279 H 0.41603 0.1389 0.68562 0.0
Pr280 Pr 0.13424 0.1017 0.99928 0.0
Pr281 Pr 0.12845 0.14075 0.99136 0.0
C282 C 0.14151 0.06957 1.01295 0.0
C283 C 0.13928 0.05745 0.02955 0.0
C284 C 0.13194 0.04107 0.02621 0.0
C285 C 0.13081 0.0288 0.04116 0.0
C286 C 0.1371 0.03255 0.05988 0.0
C287 C 0.14424 0.04908 0.0633 0.0
C288 C 0.1453 0.0614 0.04832 0.0
C289 C 0.10434 0.10951 0.97819 0.0
C290 C 0.11926 0.12718 0.03519 0.0
C291 C 0.11836 0.17143 0.97599 0.0
C292 C 0.12218 0.18471 0.96105 0.0
C293 C 0.11961 0.20223 0.96562 0.0
C294 C 0.12207 0.21513 0.95158 0.0
C295 C 0.12715 0.21084 0.93254 0.0
C296 C 0.13007 0.19324 0.92809 0.0
C297 C 0.12759 0.1803 0.94219 0.0
C298 C 0.16015 0.1331 1.00903 0.0
C299 C 0.15101 0.11682 0.95872 0.0
O300 O 0.15187 0.08288 1.01509 0.0
O301 O 0.12791 0.07305 1.0023 0.0
O302 O 0.10946 0.1179 0.99294 0.0
O303 O 0.11439 0.09642 0.97451 0.0
O304 O 0.11574 0.13944 0.02233 0.0
O305 O 0.12719 0.11271 0.03008 0.0
O306 O 0.11237 0.15643 0.97017 0.0
O307 O 0.12892 0.17021 0.99079 0.0
O308 O 0.15292 0.12444 0.99586 0.0
O309 O 0.15145 0.14717 1.01267 0.0
O310 O 0.1516 0.10404 0.97153 0.0
O311 O 0.14195 0.13114 0.96218 0.0
H312 H 0.12736 0.0376 1.01185 0.0
H313 H 0.12546 0.01617 0.03786 0.0
H314 H 0.14902 0.05252 0.07758 0.0
H315 H 0.15102 0.07392 0.05141 0.0
H316 H 0.11548 0.20596 0.98006 0.0
H317 H 0.12001 0.22852 0.95571 0.0
H318 H 0.13387 0.1894 0.91358 0.0
H319 H 0.12968 0.16686 0.93828 0.0
Pr320 Pr 0.88753 0.87885 0.74304 0.0
Pr321 Pr 0.84807 0.88278 0.74993 0.0
C322 C 0.91892 0.87008 0.72843 0.0
C323 C 0.93142 0.87276 0.71227 0.0
C324 C 0.94834 0.87826 0.71655 0.0
C325 C 0.96085 0.87964 0.7019 0.0
C326 C 0.95682 0.87547 0.68251 0.0
C327 C 0.93977 0.87015 0.67818 0.0
C328 C 0.92721 0.86882 0.69288 0.0
C329 C 0.8779 0.9098 0.76101 0.0
C330 C 0.86336 0.90026 0.70978 0.0
C331 C 0.81529 0.88856 0.76239 0.0
C332 C 0.8032 0.88683 0.77903 0.0
C333 C 0.78671 0.8797 0.77586 0.0
C334 C 0.77451 0.87891 0.79088 0.0
C335 C 0.77847 0.88529 0.80951 0.0
C336 C 0.79513 0.89222 0.81275 0.0
C337 C 0.80738 0.89295 0.79769 0.0
C338 C 0.85767 0.85366 0.7285 0.0
C339 C 0.87375 0.86954 0.78676 0.0
O340 O 0.9047 0.86136 0.72493 0.0
O341 O 0.91668 0.88273 0.74082 0.0
O342 O 0.86994 0.90244 0.74739 0.0
O343 O 0.89226 0.90171 0.76507 0.0
O344 O 0.85031 0.90032 0.72226 0.0
O345 O 0.8779 0.89169 0.71355 0.0
O346 O 0.8277 0.90008 0.76354 0.0
O347 O 0.81999 0.87439 0.7534 0.0
O348 O 0.86544 0.85883 0.74367 0.0
O349 O 0.84434 0.8633 0.7245 0.0
O350 O 0.88665 0.86704 0.77442 0.0
O351 O 0.85876 0.87614 0.7811 0.0
H352 H 0.95201 0.88118 0.73138 0.0
H353 H 0.97386 0.88353 0.70589 0.0
H354 H 0.93611 0.86703 0.66341 0.0
H355 H 0.91429 0.86451 0.68907 0.0
H356 H 0.78312 0.87502 0.76158 0.0
H357 H 0.76178 0.87371 0.78772 0.0
H358 H 0.79872 0.89706 0.82695 0.0
H359 H 0.82002 0.89847 0.80061 0.0
Pr360 Pr 0.87713 0.13878 0.49135 0.0
Pr361 Pr 0.86958 0.09995 0.49918 0.0
C362 C 0.88915 0.16868 0.47585 0.0
C363 C 0.88667 0.1812 0.45979 0.0
C364 C 0.87015 0.18531 0.45255 0.0
C365 C 0.8682 0.19795 0.43804 0.0
C366 C 0.88274 0.2067 0.43043 0.0
C367 C 0.89927 0.20225 0.43751 0.0
C368 C 0.90119 0.18966 0.45201 0.0
C369 C 0.845 0.13252 0.50844 0.0
C370 C 0.85401 0.1158 0.45831 0.0
C371 C 0.86027 0.06814 0.51215 0.0
C372 C 0.86171 0.05554 0.52826 0.0
C373 C 0.85976 0.03785 0.52419 0.0
C374 C 0.86025 0.02556 0.53912 0.0
C375 C 0.86271 0.03066 0.55855 0.0
C376 C 0.86497 0.04844 0.56257 0.0
C377 C 0.86443 0.06077 0.54756 0.0
C378 C 0.90024 0.10667 0.47898 0.0
C379 C 0.88486 0.12488 0.53555 0.0
O380 O 0.89549 0.15345 0.47144 0.0
O381 O 0.87729 0.16806 0.48941 0.0
O382 O 0.85201 0.12347 0.49543 0.0
O383 O 0.85417 0.14629 0.51217 0.0
O384 O 0.85272 0.1031 0.47115 0.0
O385 O 0.86363 0.12972 0.46189 0.0
O386 O 0.85107 0.08214 0.51511 0.0
O387 O 0.87404 0.07089 0.50153 0.0
O388 O 0.89506 0.11513 0.49363 0.0
O389 O 0.88983 0.09396 0.47494 0.0
O390 O 0.88879 0.13717 0.52287 0.0
O391 O 0.8768 0.11055 0.53015 0.0
H392 H 0.85874 0.17887 0.45822 0.0
H393 H 0.85529 0.20084 0.43276 0.0
H394 H 0.91074 0.20881 0.43223 0.0
H395 H 0.91406 0.18672 0.4574 0.0
H396 H 0.8577 0.03353 0.5094 0.0
H397 H 0.85877 0.012 0.5354 0.0
H398 H 0.86677 0.05286 0.57735 0.0
H399 H 0.86593 0.07437 0.55104 0.0
Pr400 Pr 0.61324 0.12645 0.24194 0.0
Pr401 Pr 0.6522 0.11997 0.24964 0.0
C402 C 0.58285 0.13741 0.22658 0.0
C403 C 0.57066 0.13501 0.21017 0.0
C404 C 0.56656 0.11851 0.20288 0.0
C405 C 0.55409 0.11661 0.18818 0.0
C406 C 0.54549 0.13118 0.1804 0.0
C407 C 0.54996 0.14769 0.1875 0.0
C408 C 0.56237 0.14956 0.2022 0.0
C409 C 0.62045 0.09443 0.25889 0.0
C410 C 0.63687 0.10442 0.20858 0.0
C411 C 0.68415 0.11154 0.26294 0.0
C412 C 0.69609 0.11246 0.27979 0.0
C413 C 0.69826 0.12772 0.29067 0.0
C414 C 0.71062 0.12848 0.30563 0.0
C415 C 0.72103 0.11399 0.31008 0.0
C416 C 0.71852 0.09866 0.29935 0.0
C417 C 0.70623 0.09793 0.2844 0.0
C418 C 0.64475 0.15032 0.22928 0.0
C419 C 0.62683 0.1344 0.28609 0.0
O420 O 0.59771 0.14489 0.22291 0.0
O421 O 0.58402 0.12497 0.23944 0.0
O422 O 0.62918 0.10168 0.24576 0.0
O423 O 0.60671 0.10344 0.26317 0.0
O424 O 0.64968 0.10343 0.22131 0.0
O425 O 0.62266 0.11355 0.21235 0.0
O426 O 0.67083 0.1011 0.26416 0.0
O427 O 0.68073 0.12589 0.25357 0.0
O428 O 0.6364 0.14504 0.24399 0.0
O429 O 0.65769 0.14018 0.22524 0.0
O430 O 0.61424 0.1377 0.27358 0.0
O431 O 0.64149 0.12699 0.28064 0.0
H432 H 0.57284 0.10706 0.20867 0.0
H433 H 0.5512 0.10372 0.18289 0.0
H434 H 0.54352 0.15919 0.18208 0.0
H435 H 0.56528 0.16242 0.20762 0.0
H436 H 0.69056 0.13911 0.28748 0.0
H437 H 0.712 0.14043 0.31373 0.0
H438 H 0.72641 0.08732 0.30212 0.0
H439 H 0.70488 0.08606 0.27615 0.0
Pr440 Pr 0.62499 0.8644 0.99261 0.0
Pr441 Pr 0.63093 0.90321 0.99974 0.0
C442 C 0.61452 0.83368 0.97775 0.0
C443 C 0.61731 0.82097 0.96188 0.0
C444 C 0.63302 0.81188 0.95985 0.0
C445 C 0.63475 0.79881 0.94583 0.0
C446 C 0.62082 0.79449 0.93352 0.0
C447 C 0.60527 0.80393 0.9353 0.0
C448 C 0.60355 0.81694 0.94932 0.0
C449 C 0.6571 0.872 1.0092 0.0
C450 C 0.64678 0.88782 0.9589 0.0
C451 C 0.63871 0.93542 1.01265 0.0
C452 C 0.63673 0.94769 0.02908 0.0
C453 C 0.63039 0.96444 0.02541 0.0
C454 C 0.62952 0.97678 0.04027 0.0
C455 C 0.63505 0.97273 0.05922 0.0
C456 C 0.64115 0.95584 0.06296 0.0
C457 C 0.64195 0.94344 0.04807 0.0
C458 C 0.6006 0.89537 0.97948 0.0
C459 C 0.61676 0.87815 0.03656 0.0
O460 O 0.6072 0.84847 0.97331 0.0
O461 O 0.62642 0.83512 0.9912 0.0
O462 O 0.6497 0.88055 0.99602 0.0
O463 O 0.64814 0.85831 1.0138 0.0
O464 O 0.64769 0.90068 0.97156 0.0
O465 O 0.63776 0.87359 0.96281 0.0
O466 O 0.64891 0.92202 1.01494 0.0
O467 O 0.62497 0.93198 1.00221 0.0
O468 O 0.60589 0.88719 0.99433 0.0
O469 O 0.61073 0.90826 0.97527 0.0
O470 O 0.61353 0.8655 0.02413 0.0
O471 O 0.62405 0.89281 0.03094 0.0
H472 H 0.64388 0.81459 0.96935 0.0
H473 H 0.64686 0.79174 0.94507 0.0
H474 H 0.59436 0.8012 0.9259 0.0
H475 H 0.59127 0.82369 0.95059 0.0
H476 H 0.62642 0.9681 1.01088 0.0
H477 H 0.62497 0.98969 0.03675 0.0
H478 H 0.64531 0.95218 0.07742 0.0
H479 H 0.64685 0.93062 0.0514 0.0
Pr480 Pr 0.89222 0.12628 0.7898 0.0
Pr481 Pr 0.85379 0.11824 0.78046 0.0
C482 C 0.92212 0.14105 0.80173 0.0
C483 C 0.93588 0.13856 0.81641 0.0
C484 C 0.93914 0.12226 0.82473 0.0
C485 C 0.95208 0.12033 0.83891 0.0
C486 C 0.96193 0.13468 0.84515 0.0
C487 C 0.95851 0.15098 0.83676 0.0
C488 C 0.94564 0.15287 0.82257 0.0
C489 C 0.88684 0.09184 0.78044 0.0
C490 C 0.86934 0.1012 0.82004 0.0
C491 C 0.82122 0.11302 0.76712 0.0
C492 C 0.80936 0.11274 0.75016 0.0
C493 C 0.79431 0.12295 0.75087 0.0
C494 C 0.7824 0.12284 0.73558 0.0
C495 C 0.78516 0.11249 0.71906 0.0
C496 C 0.80028 0.10221 0.71832 0.0
C497 C 0.81229 0.10235 0.73371 0.0
C498 C 0.85989 0.14632 0.80541 0.0
C499 C 0.87924 0.13262 0.74425 0.0
O500 O 0.90686 0.14561 0.80832 0.0
O501 O 0.92131 0.12984 0.78745 0.0
O502 O 0.87919 0.10439 0.77216 0.0
O503 O 0.89861 0.09706 0.79263 0.0
O504 O 0.85802 0.09885 0.80588 0.0
O505 O 0.88158 0.11331 0.81884 0.0
O506 O 0.83235 0.10037 0.76967 0.0
O507 O 0.82716 0.12814 0.77247 0.0
O508 O 0.868 0.14332 0.78987 0.0
O509 O 0.84835 0.13447 0.80868 0.0
O510 O 0.89231 0.13411 0.75663 0.0
O511 O 0.86381 0.12717 0.74989 0.0
H512 H 0.93163 0.11107 0.82035 0.0
H513 H 0.95418 0.10764 0.8452 0.0
H514 H 0.96593 0.16227 0.84099 0.0
H515 H 0.94329 0.16557 0.81638 0.0
H516 H 0.79165 0.13094 0.76346 0.0
H517 H 0.7708 0.13067 0.73691 0.0
H518 H 0.80292 0.09418 0.70578 0.0
H519 H 0.82379 0.09435 0.73274 0.0
Pr520 Pr 0.62866 0.1386 0.53901 0.0
Pr521 Pr 0.63459 0.09976 0.5311 0.0
C522 C 0.6182 0.16909 0.55445 0.0
C523 C 0.62187 0.18239 0.56948 0.0
C524 C 0.62491 0.19957 0.5637 0.0
C525 C 0.62716 0.2127 0.57749 0.0
C526 C 0.62633 0.209 0.59749 0.0
C527 C 0.62347 0.19172 0.60329 0.0
C528 C 0.62128 0.17856 0.58945 0.0
C529 C 0.66035 0.13144 0.5213 0.0
C530 C 0.65146 0.11476 0.57166 0.0
C531 C 0.64231 0.06771 0.51769 0.0
C532 C 0.64124 0.0558 0.5008 0.0
C533 C 0.62525 0.0506 0.4929 0.0
C534 C 0.6246 0.03804 0.47819 0.0
C535 C 0.6399 0.03037 0.47105 0.0
C536 C 0.65588 0.03598 0.47865 0.0
C537 C 0.65652 0.04849 0.49336 0.0
C538 C 0.60462 0.10741 0.55213 0.0
C539 C 0.61988 0.1252 0.49499 0.0
O540 O 0.61216 0.15402 0.56002 0.0
O541 O 0.62882 0.16802 0.53969 0.0
O542 O 0.65327 0.12253 0.53441 0.0
O543 O 0.65144 0.1454 0.51772 0.0
O544 O 0.6516 0.10181 0.5591 0.0
O545 O 0.64277 0.12928 0.56802 0.0
O546 O 0.65307 0.08078 0.51664 0.0
O547 O 0.62804 0.0714 0.52707 0.0
O548 O 0.60968 0.11573 0.5373 0.0
O549 O 0.61483 0.09448 0.55601 0.0
O550 O 0.61661 0.13761 0.50771 0.0
O551 O 0.62746 0.11057 0.50019 0.0
H552 H 0.62523 0.20294 0.54842 0.0
H553 H 0.62909 0.22585 0.57244 0.0
H554 H 0.62295 0.18836 0.61855 0.0
H555 H 0.61893 0.16544 0.59441 0.0
H556 H 0.61322 0.05593 0.49835 0.0
H557 H 0.61204 0.03397 0.47285 0.0
H558 H 0.66795 0.03065 0.47332 0.0
H559 H 0.66902 0.05222 0.49921 0.0
Pr560 Pr 0.61172 0.8767 0.29007 0.0
Pr561 Pr 0.65061 0.88208 0.28171 0.0
C562 C 0.58108 0.86681 0.30576 0.0
C563 C 0.56858 0.86991 0.32179 0.0
C564 C 0.56229 0.88656 0.32618 0.0
C565 C 0.54943 0.88883 0.3404 0.0
C566 C 0.54254 0.87451 0.35053 0.0
C567 C 0.54924 0.85794 0.34637 0.0
C568 C 0.56205 0.85569 0.33218 0.0
C569 C 0.61964 0.90912 0.27435 0.0
C570 C 0.63648 0.89727 0.32348 0.0
C571 C 0.68242 0.8901 0.26771 0.0
C572 C 0.69477 0.88769 0.25136 0.0
C573 C 0.71143 0.8812 0.2552 0.0
C574 C 0.7239 0.88016 0.24046 0.0
C575 C 0.72007 0.88569 0.22145 0.0
C576 C 0.70325 0.89191 0.21753 0.0
C577 C 0.69074 0.89288 0.23229 0.0
C578 C 0.64287 0.85132 0.30115 0.0
C579 C 0.62443 0.86859 0.24557 0.0
O580 O 0.59585 0.85937 0.31005 0.0
O581 O 0.58249 0.87858 0.29217 0.0
O582 O 0.62837 0.9011 0.28688 0.0
O583 O 0.60563 0.90061 0.26994 0.0
O584 O 0.64897 0.8983 0.31036 0.0
O585 O 0.62202 0.88853 0.31986 0.0
O586 O 0.66864 0.89966 0.26481 0.0
O587 O 0.67956 0.87692 0.27923 0.0
O588 O 0.63417 0.85725 0.28699 0.0
O589 O 0.65629 0.8609 0.30488 0.0
O590 O 0.61185 0.86577 0.25823 0.0
O591 O 0.63944 0.87532 0.25088 0.0
H592 H 0.56706 0.89779 0.31841 0.0
H593 H 0.54454 0.90177 0.34305 0.0
H594 H 0.54455 0.84663 0.35407 0.0
H595 H 0.56668 0.84272 0.3291 0.0
H596 H 0.71496 0.87727 0.26979 0.0
H597 H 0.73674 0.87551 0.24412 0.0
H598 H 0.69974 0.89607 0.20303 0.0
H599 H 0.67801 0.89793 0.22882 0.0
Pr600 Pr 0.8749 0.86357 0.04028 0.0
Pr601 Pr 0.86909 0.90249 0.03245 0.0
C602 C 0.88561 0.83311 0.05569 0.0
C603 C 0.88341 0.82091 0.07216 0.0
C604 C 0.86698 0.81515 0.07819 0.0
C605 C 0.86544 0.80254 0.09279 0.0
C606 C 0.88027 0.79544 0.10173 0.0
C607 C 0.89666 0.80159 0.09594 0.0
C608 C 0.89819 0.81413 0.08132 0.0
C609 C 0.8426 0.87123 0.02414 0.0
C610 C 0.85345 0.88762 0.07372 0.0
C611 C 0.86128 0.93439 0.01857 0.0
C612 C 0.8642 0.9464 1.00205 0.0
C613 C 0.8676 0.96393 1.00587 0.0
C614 C 0.86944 0.97585 0.99066 0.0
C615 C 0.86786 0.97055 0.97118 0.0
C616 C 0.86468 0.95288 0.96736 0.0
C617 C 0.86292 0.94092 0.98262 0.0
C618 C 0.89966 0.89466 0.05222 0.0
C619 C 0.88284 0.87678 0.99594 0.0
O620 O 0.89334 0.84789 0.05916 0.0
O621 O 0.87305 0.83439 0.043 0.0
O622 O 0.85033 0.87993 0.03692 0.0
O623 O 0.85133 0.85734 0.01971 0.0
O624 O 0.85238 0.90025 0.06074 0.0
O625 O 0.86256 0.87337 0.07007 0.0
O626 O 0.85167 0.92068 1.01554 0.0
O627 O 0.8743 0.93145 0.03028 0.0
O628 O 0.89399 0.88629 0.03771 0.0
O629 O 0.88984 0.90783 0.05627 0.0
O630 O 0.88569 0.86405 1.0084 0.0
O631 O 0.87608 0.89171 1.00149 0.0
H632 H 0.85534 0.82019 0.07145 0.0
H633 H 0.8526 0.79833 0.09706 0.0
H634 H 0.90838 0.79632 0.10226 0.0
H635 H 0.911 0.81829 0.07687 0.0
H636 H 0.86855 0.9685 0.02071 0.0
H637 H 0.87165 0.98934 0.99422 0.0
H638 H 0.8636 0.94827 0.95255 0.0
H639 H 0.86039 0.92745 0.97922 0.0
Pr640 Pr 0.65044 0.61983 0.78108 0.0
Pr641 Pr 0.61158 0.62564 0.78976 0.0
C642 C 0.68342 0.61556 0.76868 0.0
C643 C 0.69559 0.61497 0.75212 0.0
C644 C 0.71262 0.62071 0.75511 0.0
C645 C 0.72459 0.62081 0.73989 0.0
C646 C 0.71984 0.61519 0.7212 0.0
C647 C 0.70274 0.60927 0.71823 0.0
C648 C 0.69068 0.60923 0.73356 0.0
C649 C 0.64272 0.64756 0.80585 0.0
C650 C 0.62482 0.63309 0.74456 0.0
C651 C 0.58067 0.63882 0.80077 0.0
C652 C 0.567 0.63628 0.81557 0.0
C653 C 0.56378 0.61998 0.82389 0.0
C654 C 0.5509 0.61803 0.83812 0.0
C655 C 0.54106 0.63237 0.84442 0.0
C656 C 0.54444 0.64867 0.83604 0.0
C657 C 0.55725 0.65058 0.82179 0.0
C658 C 0.61923 0.59158 0.78035 0.0
C659 C 0.63523 0.60254 0.82083 0.0
O660 O 0.67274 0.60257 0.77145 0.0
O661 O 0.67671 0.63063 0.77296 0.0
O662 O 0.63478 0.64407 0.79031 0.0
O663 O 0.65494 0.63643 0.80917 0.0
O664 O 0.61143 0.6332 0.75658 0.0
O665 O 0.64059 0.62894 0.75046 0.0
O666 O 0.59554 0.64477 0.80705 0.0
O667 O 0.58231 0.62699 0.78725 0.0
O668 O 0.62604 0.60461 0.77212 0.0
O669 O 0.60722 0.596 0.79265 0.0
O670 O 0.64678 0.60056 0.80684 0.0
O671 O 0.62238 0.61392 0.81922 0.0
H672 H 0.71669 0.62516 0.76932 0.0
H673 H 0.73767 0.62515 0.74285 0.0
H674 H 0.69859 0.60497 0.704 0.0
H675 H 0.67755 0.60485 0.73089 0.0
H676 H 0.57128 0.60878 0.81948 0.0
H677 H 0.54882 0.60533 0.8444 0.0
H678 H 0.53702 0.65996 0.84031 0.0
H679 H 0.55956 0.66329 0.8156 0.0
Pr680 Pr 0.63226 0.40288 0.03231 0.0
Pr681 Pr 0.62523 0.36405 0.04015 0.0
C682 C 0.64059 0.43465 0.01846 0.0
C683 C 0.63924 0.44628 1.0013 0.0
C684 C 0.62322 0.45301 0.99507 0.0
C685 C 0.62246 0.46518 0.97995 0.0
C686 C 0.63769 0.47098 0.97071 0.0
C687 C 0.65364 0.4639 0.9767 0.0
C688 C 0.6544 0.45177 0.99182 0.0
C689 C 0.60189 0.39592 0.0529 0.0
C690 C 0.61737 0.37767 0.99601 0.0
C691 C 0.61367 0.33398 0.05566 0.0
C692 C 0.61627 0.32157 0.07177 0.0
C693 C 0.63278 0.31805 0.07942 0.0
C694 C 0.63487 0.30554 0.09404 0.0
C695 C 0.62048 0.29635 0.10135 0.0
C696 C 0.60395 0.3002 0.09384 0.0
C697 C 0.6019 0.31265 0.07922 0.0
C698 C 0.65718 0.37067 0.02268 0.0
C699 C 0.64831 0.38736 0.07304 0.0
O700 O 0.65097 0.42128 0.01728 0.0
O701 O 0.62653 0.43145 0.02845 0.0
O702 O 0.60699 0.38745 0.0382 0.0
O703 O 0.61228 0.40867 0.05687 0.0
O704 O 0.61336 0.36545 1.00874 0.0
O705 O 0.62547 0.39197 1.00137 0.0
O706 O 0.60704 0.34911 0.05997 0.0
O707 O 0.62563 0.33478 0.04221 0.0
O708 O 0.65021 0.37956 0.03585 0.0
O709 O 0.64801 0.35691 0.0189 0.0
O710 O 0.64918 0.40019 0.06032 0.0
O711 O 0.63897 0.37324 0.06944 0.0
H712 H 0.61128 0.44916 1.00211 0.0
H713 H 0.60995 0.47045 0.97593 0.0
H714 H 0.66562 0.46778 0.96975 0.0
H715 H 0.66694 0.44688 0.99635 0.0
H716 H 0.64407 0.32486 0.074 0.0
H717 H 0.64775 0.3031 0.09965 0.0
H718 H 0.59261 0.29327 0.09889 0.0
H719 H 0.58904 0.31513 0.0735 0.0
Pr720 Pr 0.85118 0.38302 0.28145 0.0
Pr721 Pr 0.89013 0.37688 0.2898 0.0
C722 C 0.81925 0.39075 0.26755 0.0
C723 C 0.80746 0.38981 0.25049 0.0
C724 C 0.80226 0.37388 0.24243 0.0
C725 C 0.78978 0.37334 0.2276 0.0
C726 C 0.78217 0.38869 0.22048 0.0
C727 C 0.78778 0.40461 0.22826 0.0
C728 C 0.80021 0.40514 0.24308 0.0
C729 C 0.8586 0.3529 0.30231 0.0
C730 C 0.87704 0.36851 0.24561 0.0
C731 C 0.92045 0.36644 0.3058 0.0
C732 C 0.93298 0.36968 0.32174 0.0
C733 C 0.93893 0.38642 0.32624 0.0
C734 C 0.95175 0.38887 0.34046 0.0
C735 C 0.95893 0.37462 0.35048 0.0
C736 C 0.95258 0.35795 0.34621 0.0
C737 C 0.9398 0.35553 0.33202 0.0
C738 C 0.88291 0.40877 0.27239 0.0
C739 C 0.86591 0.3992 0.32242 0.0
O740 O 0.83229 0.40157 0.26684 0.0
O741 O 0.82289 0.37641 0.27683 0.0
O742 O 0.86714 0.3581 0.2877 0.0
O743 O 0.84558 0.36304 0.30604 0.0
O744 O 0.88918 0.36473 0.25852 0.0
O745 O 0.86258 0.37648 0.25071 0.0
O746 O 0.90546 0.3596 0.31037 0.0
O747 O 0.91941 0.37785 0.29178 0.0
O748 O 0.87405 0.40149 0.28537 0.0
O749 O 0.89693 0.39995 0.26876 0.0
O750 O 0.85324 0.39992 0.30951 0.0
O751 O 0.88023 0.39013 0.31902 0.0
H752 H 0.80752 0.3618 0.24786 0.0
H753 H 0.78572 0.36083 0.22214 0.0
H754 H 0.7825 0.41673 0.22296 0.0
H755 H 0.80392 0.41759 0.24904 0.0
H756 H 0.9339 0.3976 0.31856 0.0
H757 H 0.95638 0.40189 0.34321 0.0
H758 H 0.9575 0.34669 0.35382 0.0
H759 H 0.9354 0.34249 0.32885 0.0
Pr760 Pr 0.86866 0.60005 0.53168 0.0
Pr761 Pr 0.875 0.63872 0.5399 0.0
C762 C 0.86076 0.56815 0.51797 0.0
C763 C 0.86328 0.556 0.50153 0.0
C764 C 0.86916 0.53912 0.50536 0.0
C765 C 0.87052 0.52691 0.49042 0.0
C766 C 0.86594 0.53124 0.47124 0.0
C767 C 0.86031 0.54826 0.46735 0.0
C768 C 0.85902 0.56053 0.48232 0.0
C769 C 0.89908 0.60722 0.55212 0.0
C770 C 0.88343 0.62554 0.49568 0.0
C771 C 0.88587 0.66897 0.55558 0.0
C772 C 0.88269 0.68204 0.57101 0.0
C773 C 0.87899 0.69922 0.56568 0.0
C774 C 0.87729 0.71217 0.57977 0.0
C775 C 0.87933 0.70832 0.59963 0.0
C776 C 0.88284 0.69104 0.60499 0.0
C777 C 0.88449 0.67805 0.59085 0.0
C778 C 0.84296 0.63187 0.52263 0.0
C779 C 0.8522 0.6149 0.57245 0.0
O780 O 0.85099 0.5818 0.51521 0.0
O781 O 0.87405 0.57118 0.52926 0.0
O782 O 0.8938 0.61578 0.53756 0.0
O783 O 0.88884 0.59433 0.55603 0.0
O784 O 0.88704 0.63775 0.50855 0.0
O785 O 0.87562 0.61103 0.50084 0.0
O786 O 0.89206 0.65381 0.56064 0.0
O787 O 0.87485 0.66814 0.54117 0.0
O788 O 0.85017 0.62292 0.53559 0.0
O789 O 0.85193 0.64577 0.51897 0.0
O790 O 0.85139 0.60234 0.55943 0.0
O791 O 0.86151 0.6291 0.56918 0.0
H792 H 0.87239 0.53526 0.52006 0.0
H793 H 0.87469 0.5139 0.49404 0.0
H794 H 0.85688 0.55211 0.45272 0.0
H795 H 0.8545 0.57346 0.47888 0.0
H796 H 0.87777 0.70273 0.5505 0.0
H797 H 0.87486 0.72533 0.57503 0.0
H798 H 0.8843 0.68755 0.62014 0.0
H799 H 0.8874 0.66495 0.59547 0.0
Pr800 Pr 0.64997 0.38353 0.75137 0.0
Pr801 Pr 0.61124 0.37688 0.74198 0.0
C802 C 0.68231 0.38843 0.76546 0.0
C803 C 0.69306 0.38967 0.78329 0.0
C804 C 0.69305 0.37644 0.79736 0.0
C805 C 0.70506 0.37661 0.81264 0.0
C806 C 0.7173 0.39006 0.81429 0.0
C807 C 0.71679 0.40366 0.80066 0.0
C808 C 0.70486 0.40341 0.7853 0.0
C809 C 0.64317 0.35555 0.7266 0.0
C810 C 0.62397 0.36983 0.78747 0.0
C811 C 0.58071 0.36326 0.73032 0.0
C812 C 0.56708 0.36567 0.71542 0.0
C813 C 0.56292 0.38212 0.70802 0.0
C814 C 0.55001 0.38396 0.69379 0.0
C815 C 0.54108 0.36937 0.68658 0.0
C816 C 0.54542 0.35293 0.69401 0.0
C817 C 0.55826 0.35113 0.70826 0.0
C818 C 0.61823 0.41102 0.75191 0.0
C819 C 0.63496 0.40043 0.71132 0.0
O820 O 0.67201 0.40134 0.76095 0.0
O821 O 0.67585 0.37323 0.76115 0.0
O822 O 0.63488 0.35898 0.74192 0.0
O823 O 0.65538 0.36677 0.7236 0.0
O824 O 0.61091 0.36872 0.77504 0.0
O825 O 0.63955 0.37497 0.78192 0.0
O826 O 0.59576 0.35769 0.72412 0.0
O827 O 0.58198 0.37494 0.74407 0.0
O828 O 0.62508 0.39797 0.76001 0.0
O829 O 0.60641 0.40657 0.73939 0.0
O830 O 0.64629 0.40268 0.7255 0.0
O831 O 0.6223 0.38881 0.71275 0.0
H832 H 0.68409 0.36568 0.79629 0.0
H833 H 0.7049 0.36608 0.82304 0.0
H834 H 0.72609 0.41415 0.80138 0.0
H835 H 0.70524 0.4137 0.77458 0.0
H836 H 0.56969 0.39353 0.71316 0.0
H837 H 0.5472 0.39679 0.68824 0.0
H838 H 0.53871 0.34143 0.68903 0.0
H839 H 0.56129 0.33831 0.71373 0.0
Pr840 Pr 0.86758 0.40172 1.0019 0.0
Pr841 Pr 0.87411 0.3628 0.99346 0.0
C842 C 0.85947 0.43359 0.01556 0.0
C843 C 0.86037 0.44528 0.03258 0.0
C844 C 0.87532 0.44653 0.04418 0.0
C845 C 0.87622 0.45876 0.05924 0.0
C846 C 0.86217 0.46995 0.06305 0.0
C847 C 0.84712 0.46833 0.05163 0.0
C848 C 0.84626 0.45616 0.03659 0.0
C849 C 0.89772 0.39459 0.98102 0.0
C850 C 0.88246 0.37601 0.03767 0.0
C851 C 0.88525 0.3327 0.97768 0.0
C852 C 0.88234 0.31988 0.96202 0.0
C853 C 0.86568 0.31391 0.95718 0.0
C854 C 0.86353 0.30087 0.94317 0.0
C855 C 0.87798 0.29357 0.93368 0.0
C856 C 0.89459 0.29988 0.93835 0.0
C857 C 0.89671 0.31286 0.95235 0.0
C858 C 0.84217 0.36966 1.0109 0.0
C859 C 0.85139 0.38684 0.96092 0.0
O860 O 0.84879 0.42044 0.01637 0.0
O861 O 0.87392 0.43004 1.00647 0.0
O862 O 0.89258 0.38599 0.99561 0.0
O863 O 0.88752 0.40757 0.97735 0.0
O864 O 0.88634 0.36396 0.0247 0.0
O865 O 0.8743 0.39039 0.03265 0.0
O866 O 0.8915 0.34785 0.97276 0.0
O867 O 0.87392 0.33351 0.99179 0.0
O868 O 0.84938 0.37864 0.99797 0.0
O869 O 0.85109 0.35567 1.01442 0.0
O870 O 0.85078 0.39956 0.97376 0.0
O871 O 0.86041 0.37248 0.96435 0.0
H872 H 0.88638 0.43824 0.04145 0.0
H873 H 0.88792 0.45946 0.06789 0.0
H874 H 0.83614 0.47682 0.05393 0.0
H875 H 0.83464 0.45551 0.02777 0.0
H876 H 0.85435 0.31916 0.96435 0.0
H877 H 0.85054 0.29652 0.93977 0.0
H878 H 0.90603 0.29446 0.93158 0.0
H879 H 0.90969 0.31719 0.9559 0.0
Pr880 Pr 0.85131 0.61924 0.25129 0.0
Pr881 Pr 0.89029 0.62553 0.24391 0.0
C882 C 0.81904 0.61167 0.26421 0.0
C883 C 0.80738 0.61216 0.2813 0.0
C884 C 0.80594 0.62693 0.29313 0.0
C885 C 0.79372 0.62749 0.30823 0.0
C886 C 0.78273 0.61326 0.31187 0.0
C887 C 0.78454 0.59837 0.30025 0.0
C888 C 0.79668 0.59785 0.28514 0.0
C889 C 0.85894 0.6492 0.23025 0.0
C890 C 0.87635 0.63365 0.2878 0.0
C891 C 0.92089 0.63659 0.22926 0.0
C892 C 0.93437 0.63369 0.21437 0.0
C893 C 0.9511 0.6401 0.21771 0.0
C894 C 0.96404 0.63838 0.20361 0.0
C895 C 0.96057 0.63018 0.18577 0.0
C896 C 0.94381 0.62345 0.18259 0.0
C897 C 0.93081 0.62523 0.19675 0.0
C898 C 0.88295 0.59363 0.26128 0.0
C899 C 0.86689 0.60304 0.21067 0.0
O900 O 0.83174 0.60042 0.26427 0.0
O901 O 0.82321 0.62641 0.25608 0.0
O902 O 0.86719 0.64424 0.24519 0.0
O903 O 0.84615 0.63888 0.22625 0.0
O904 O 0.88852 0.63777 0.27508 0.0
O905 O 0.86213 0.62543 0.28243 0.0
O906 O 0.90583 0.64245 0.22345 0.0
O907 O 0.91974 0.62539 0.24346 0.0
O908 O 0.87429 0.60082 0.24806 0.0
O909 O 0.89688 0.60251 0.26514 0.0
O910 O 0.85386 0.60249 0.22315 0.0
O911 O 0.88124 0.61192 0.21454 0.0
H912 H 0.81407 0.63814 0.29056 0.0
H913 H 0.79287 0.63908 0.31704 0.0
H914 H 0.7762 0.58725 0.30243 0.0
H915 H 0.79747 0.58636 0.27616 0.0
H916 H 0.95414 0.64662 0.23122 0.0
H917 H 0.97684 0.64343 0.20676 0.0
H918 H 0.94063 0.61715 0.169 0.0
H919 H 0.91796 0.62019 0.19386 0.0
Pr920 Pr 0.63276 0.59923 0.49941 0.0
Pr921 Pr 0.62597 0.6381 0.49142 0.0
C922 C 0.64141 0.56752 0.51318 0.0
C923 C 0.64002 0.5558 0.53019 0.0
C924 C 0.62415 0.55276 0.53964 0.0
C925 C 0.62307 0.54066 0.55483 0.0
C926 C 0.63784 0.53139 0.56094 0.0
C927 C 0.65374 0.53476 0.55166 0.0
C928 C 0.65479 0.54678 0.53646 0.0
C929 C 0.60245 0.60621 0.47876 0.0
C930 C 0.61783 0.62457 0.5356 0.0
C931 C 0.61447 0.66834 0.47618 0.0
C932 C 0.61635 0.68053 0.45976 0.0
C933 C 0.60259 0.69174 0.45536 0.0
C934 C 0.60416 0.70402 0.4405 0.0
C935 C 0.61957 0.70541 0.42967 0.0
C936 C 0.63329 0.69392 0.43394 0.0
C937 C 0.63168 0.68158 0.44882 0.0
C938 C 0.65786 0.63128 0.50896 0.0
C939 C 0.64866 0.61466 0.45852 0.0
O940 O 0.65152 0.58106 0.51475 0.0
O941 O 0.62738 0.57058 0.50306 0.0
O942 O 0.60757 0.61478 0.49338 0.0
O943 O 0.61275 0.59333 0.47496 0.0
O944 O 0.61458 0.63712 0.52302 0.0
O945 O 0.62531 0.60993 0.53025 0.0
O946 O 0.60715 0.65338 0.47265 0.0
O947 O 0.62729 0.6673 0.48857 0.0
O948 O 0.65085 0.62243 0.49577 0.0
O949 O 0.64873 0.64506 0.51277 0.0
O950 O 0.64962 0.60191 0.47134 0.0
O951 O 0.63931 0.62877 0.46204 0.0
H952 H 0.61254 0.55959 0.53517 0.0
H953 H 0.61066 0.53858 0.5618 0.0
H954 H 0.66534 0.52775 0.55576 0.0
H955 H 0.66715 0.54881 0.52934 0.0
H956 H 0.59067 0.69118 0.46366 0.0
H957 H 0.59343 0.71276 0.43787 0.0
H958 H 0.64526 0.69446 0.42576 0.0
H959 H 0.64243 0.67297 0.45191 0.0
Pr960 Pr 0.38796 0.37482 0.24306 0.0
Pr961 Pr 0.34915 0.38108 0.25091 0.0
C962 C 0.41813 0.36385 0.22721 0.0
C963 C 0.43053 0.36659 0.211 0.0
C964 C 0.43912 0.38248 0.20824 0.0
C965 C 0.45186 0.38421 0.19382 0.0
C966 C 0.45634 0.37011 0.18183 0.0
C967 C 0.44738 0.35437 0.18435 0.0
C968 C 0.43469 0.35264 0.19876 0.0
C969 C 0.38095 0.40691 0.25996 0.0
C970 C 0.3642 0.39733 0.21013 0.0
C971 C 0.31701 0.38847 0.2644 0.0
C972 C 0.30484 0.3861 0.28096 0.0
C973 C 0.28976 0.37617 0.27837 0.0
C974 C 0.27731 0.37494 0.29311 0.0
C975 C 0.27952 0.38374 0.31085 0.0
C976 C 0.29483 0.39341 0.31359 0.0
C977 C 0.30732 0.3946 0.29883 0.0
C978 C 0.35672 0.35075 0.23047 0.0
C979 C 0.37472 0.36722 0.28743 0.0
O980 O 0.40309 0.35692 0.22308 0.0
O981 O 0.41724 0.3756 0.24088 0.0
O982 O 0.37198 0.3996 0.24707 0.0
O983 O 0.39489 0.39802 0.26375 0.0
O984 O 0.35154 0.39826 0.22304 0.0
O985 O 0.37837 0.38804 0.21363 0.0
O986 O 0.33035 0.39876 0.26667 0.0
O987 O 0.32046 0.37498 0.2536 0.0
O988 O 0.36502 0.356 0.24523 0.0
O989 O 0.34387 0.36097 0.22636 0.0
O990 O 0.38708 0.36349 0.27477 0.0
O991 O 0.36013 0.3747 0.28192 0.0
H992 H 0.43627 0.39348 0.21745 0.0
H993 H 0.45856 0.39649 0.19248 0.0
H994 H 0.45023 0.3433 0.17522 0.0
H995 H 0.42829 0.34023 0.20057 0.0
H996 H 0.28741 0.36956 0.26474 0.0
H997 H 0.26589 0.36713 0.29052 0.0
H998 H 0.29694 0.40052 0.32693 0.0
H999 H 0.31873 0.40247 0.3013 0.0
Pr1000 Pr 0.37392 0.63583 0.99108 0.0
Pr1001 Pr 0.36951 0.59656 0.99848 0.0
C1002 C 0.38313 0.66692 0.97601 0.0
C1003 C 0.38089 0.67912 0.95945 0.0
C1004 C 0.36534 0.6883 0.95655 0.0
C1005 C 0.36413 0.70103 0.94205 0.0
C1006 C 0.37845 0.70497 0.93013 0.0
C1007 C 0.39384 0.69545 0.93278 0.0
C1008 C 0.39505 0.68275 0.94727 0.0
C1009 C 0.34273 0.62676 1.00896 0.0
C1010 C 0.35268 0.61147 0.95793 0.0
C1011 C 0.36354 0.56394 1.01135 0.0
C1012 C 0.36515 0.55207 0.02819 0.0
C1013 C 0.37143 0.53523 0.02513 0.0
C1014 C 0.37224 0.5233 0.04041 0.0
C1015 C 0.36672 0.52789 0.05921 0.0
C1016 C 0.36063 0.54489 0.06232 0.0
C1017 C 0.35989 0.55688 0.04698 0.0
C1018 C 0.39883 0.60562 0.97703 0.0
C1019 C 0.38295 0.62243 0.03495 0.0
O1020 O 0.39188 0.65265 0.97296 0.0
O1021 O 0.37029 0.66487 0.98822 0.0
O1022 O 0.35006 0.61859 0.99547 0.0
O1023 O 0.35102 0.64102 1.01296 0.0
O1024 O 0.35219 0.59863 0.97068 0.0
O1025 O 0.36147 0.6259 0.96154 0.0
O1026 O 0.35204 0.57639 1.01223 0.0
O1027 O 0.37779 0.56851 1.00244 0.0
O1028 O 0.39369 0.61356 0.99209 0.0
O1029 O 0.38907 0.59236 0.97318 0.0
O1030 O 0.38608 0.63494 0.02229 0.0
O1031 O 0.37574 0.60765 0.02956 0.0
H1032 H 0.3542 0.68595 0.96575 0.0
H1033 H 0.35212 0.70818 0.94062 0.0
H1034 H 0.40506 0.69789 0.92373 0.0
H1035 H 0.40724 0.67598 0.9492 0.0
H1036 H 0.37547 0.53118 1.01075 0.0
H1037 H 0.37677 0.5103 0.03736 0.0
H1038 H 0.35648 0.54895 0.07663 0.0
H1039 H 0.35506 0.56982 0.04979 0.0
Pr1040 Pr 0.115 0.62465 0.7397 0.0
Pr1041 Pr 0.15418 0.61968 0.74657 0.0
C1042 C 0.08397 0.63465 0.72517 0.0
C1043 C 0.07161 0.63238 0.7089 0.0
C1044 C 0.06771 0.61597 0.7012 0.0
C1045 C 0.0551 0.6142 0.68663 0.0
C1046 C 0.04617 0.62879 0.6794 0.0
C1047 C 0.05042 0.64521 0.68692 0.0
C1048 C 0.06298 0.64696 0.70149 0.0
C1049 C 0.12373 0.59312 0.75701 0.0
C1050 C 0.13873 0.60311 0.7061 0.0
C1051 C 0.18689 0.61331 0.75882 0.0
C1052 C 0.19873 0.61432 0.7757 0.0
C1053 C 0.21559 0.62066 0.77292 0.0
C1054 C 0.22746 0.62102 0.78828 0.0
C1055 C 0.22278 0.61497 0.80683 0.0
C1056 C 0.20578 0.60878 0.80967 0.0
C1057 C 0.19385 0.6085 0.79427 0.0
C1058 C 0.14532 0.64936 0.72562 0.0
C1059 C 0.12891 0.63282 0.78365 0.0
O1060 O 0.09845 0.64288 0.72156 0.0
O1061 O 0.08585 0.62186 0.73747 0.0
O1062 O 0.13192 0.60052 0.74358 0.0
O1063 O 0.10959 0.60153 0.76126 0.0
O1064 O 0.15174 0.60266 0.71862 0.0
O1065 O 0.12432 0.61188 0.70997 0.0
O1066 O 0.17451 0.60173 0.75917 0.0
O1067 O 0.18221 0.6279 0.7507 0.0
O1068 O 0.13748 0.64418 0.74073 0.0
O1069 O 0.15831 0.63937 0.72135 0.0
O1070 O 0.11636 0.63638 0.77116 0.0
O1071 O 0.14349 0.62539 0.77794 0.0
H1072 H 0.07426 0.60451 0.70657 0.0
H1073 H 0.05237 0.60138 0.68101 0.0
H1074 H 0.04372 0.65671 0.68195 0.0
H1075 H 0.06572 0.65973 0.70724 0.0
H1076 H 0.21968 0.62513 0.75872 0.0
H1077 H 0.24047 0.62566 0.78546 0.0
H1078 H 0.20167 0.60422 0.82381 0.0
H1079 H 0.18089 0.60361 0.79685 0.0
Pr1080 Pr 0.12573 0.35657 0.49183 0.0
Pr1081 Pr 0.13453 0.39758 0.50359 0.0
C1082 C 0.1113 0.32635 0.48064 0.0
C1083 C 0.11336 0.31324 0.46515 0.0
C1084 C 0.12969 0.30937 0.45722 0.0
C1085 C 0.13133 0.29679 0.44264 0.0
C1086 C 0.11666 0.28792 0.43557 0.0
C1087 C 0.10032 0.29202 0.44344 0.0
C1088 C 0.09871 0.30452 0.45807 0.0
C1089 C 0.16002 0.36354 0.5004 0.0
C1090 C 0.14833 0.38132 0.4612 0.0
C1091 C 0.14845 0.42669 0.51894 0.0
C1092 C 0.1451 0.44069 0.53337 0.0
C1093 C 0.1401 0.45735 0.52722 0.0
C1094 C 0.13833 0.47093 0.54063 0.0
C1095 C 0.1417 0.46825 0.5605 0.0
C1096 C 0.14644 0.45151 0.56666 0.0
C1097 C 0.14813 0.43794 0.5533 0.0
C1098 C 0.10187 0.39394 0.48514 0.0
C1099 C 0.1174 0.37143 0.53741 0.0
O1100 O 0.10528 0.3415 0.4753 0.0
O1101 O 0.12364 0.32737 0.49372 0.0
O1102 O 0.14714 0.37072 0.50856 0.0
O1103 O 0.15521 0.35098 0.48897 0.0
O1104 O 0.15072 0.39288 0.47524 0.0
O1105 O 0.13723 0.36817 0.46278 0.0
O1106 O 0.15141 0.41109 0.52566 0.0
O1107 O 0.13957 0.42666 0.5027 0.0
O1108 O 0.11266 0.3825 0.48969 0.0
O1109 O 0.10764 0.40877 0.49132 0.0
O1110 O 0.11692 0.35822 0.52495 0.0
O1111 O 0.12269 0.38714 0.53245 0.0
H1112 H 0.14117 0.31607 0.46228 0.0
H1113 H 0.14407 0.29415 0.43675 0.0
H1114 H 0.08878 0.28534 0.43853 0.0
H1115 H 0.08599 0.30733 0.46395 0.0
H1116 H 0.13789 0.45999 0.51197 0.0
H1117 H 0.13483 0.48368 0.53532 0.0
H1118 H 0.14891 0.44889 0.58187 0.0
H1119 H 0.1521 0.42534 0.55862 0.0
Pr1120 Pr 0.38943 0.62365 0.28692 0.0
Pr1121 Pr 0.35047 0.61752 0.27894 0.0
C1122 C 0.41986 0.63412 0.30258 0.0
C1123 C 0.43249 0.631 0.31851 0.0
C1124 C 0.44942 0.62571 0.31393 0.0
C1125 C 0.462 0.6239 0.32846 0.0
C1126 C 0.45801 0.62743 0.34801 0.0
C1127 C 0.44099 0.63259 0.35263 0.0
C1128 C 0.42837 0.63435 0.33807 0.0
C1129 C 0.38216 0.59177 0.26963 0.0
C1130 C 0.3654 0.6015 0.31989 0.0
C1131 C 0.31847 0.61003 0.26515 0.0
C1132 C 0.30698 0.61161 0.24795 0.0
C1133 C 0.30419 0.62757 0.23857 0.0
C1134 C 0.29222 0.6289 0.2233 0.0
C1135 C 0.28282 0.61429 0.21699 0.0
C1136 C 0.28595 0.59828 0.22616 0.0
C1137 C 0.29785 0.59698 0.24146 0.0
C1138 C 0.35813 0.64753 0.29983 0.0
C1139 C 0.37609 0.63192 0.24279 0.0
O1140 O 0.40487 0.64108 0.30693 0.0
O1141 O 0.41882 0.62257 0.28872 0.0
O1142 O 0.37331 0.599 0.28266 0.0
O1143 O 0.39615 0.60059 0.2659 0.0
O1144 O 0.35267 0.60063 0.30703 0.0
O1145 O 0.37968 0.61057 0.31631 0.0
O1146 O 0.3315 0.59921 0.26411 0.0
O1147 O 0.32213 0.62413 0.27486 0.0
O1148 O 0.36644 0.64242 0.28502 0.0
O1149 O 0.34514 0.63739 0.30369 0.0
O1150 O 0.38835 0.63565 0.25557 0.0
O1151 O 0.36161 0.6241 0.24806 0.0
H1152 H 0.45306 0.62327 0.29898 0.0
H1153 H 0.475 0.62016 0.32427 0.0
H1154 H 0.43737 0.63523 0.36754 0.0
H1155 H 0.41547 0.63853 0.34213 0.0
H1156 H 0.31109 0.63908 0.24319 0.0
H1157 H 0.29032 0.64138 0.21642 0.0
H1158 H 0.27884 0.5868 0.22189 0.0
H1159 H 0.29967 0.58456 0.24851 0.0
Pr1160 Pr 0.1259 0.64149 0.03802 0.0
Pr1161 Pr 0.13297 0.60287 0.02919 0.0
C1162 C 0.11193 0.6719 0.04959 0.0
C1163 C 0.11465 0.68559 0.06432 0.0
C1164 C 0.13105 0.68877 0.07243 0.0
C1165 C 0.13319 0.70164 0.08664 0.0
C1166 C 0.11895 0.71151 0.09315 0.0
C1167 C 0.10255 0.70819 0.08498 0.0
C1168 C 0.10045 0.69539 0.07074 0.0
C1169 C 0.16039 0.63517 0.02957 0.0
C1170 C 0.14985 0.61816 0.06894 0.0
C1171 C 0.13757 0.56991 0.01684 0.0
C1172 C 0.13816 0.5574 1.00059 0.0
C1173 C 0.13326 0.54023 1.0043 0.0
C1174 C 0.13289 0.52796 0.98939 0.0
C1175 C 0.13742 0.53254 0.97027 0.0
C1176 C 0.14257 0.54979 0.96658 0.0
C1177 C 0.14286 0.56215 0.9816 0.0
C1178 C 0.10487 0.60982 0.05385 0.0
C1179 C 0.11985 0.62834 0.99244 0.0
O1180 O 0.10675 0.65681 0.0561 0.0
O1181 O 0.1233 0.67068 0.03549 0.0
O1182 O 0.14784 0.62777 0.02097 0.0
O1183 O 0.15518 0.64708 0.04157 0.0
O1184 O 0.15209 0.6067 0.05492 0.0
O1185 O 0.13814 0.63075 0.06739 0.0
O1186 O 0.15046 0.58077 0.01934 0.0
O1187 O 0.12245 0.57649 0.02115 0.0
O1188 O 0.10816 0.61778 0.03825 0.0
O1189 O 0.11642 0.59802 0.05728 0.0
O1190 O 0.1186 0.64156 1.00466 0.0
O1191 O 0.12474 0.6128 0.99835 0.0
H1192 H 0.14218 0.68123 0.06786 0.0
H1193 H 0.14597 0.70366 0.09275 0.0
H1194 H 0.09133 0.71563 0.0894 0.0
H1195 H 0.08766 0.69312 0.06473 0.0
H1196 H 0.12959 0.53628 0.01884 0.0
H1197 H 0.12916 0.51479 0.9929 0.0
H1198 H 0.14603 0.5538 0.95201 0.0
H1199 H 0.14656 0.57538 0.97837 0.0
Pr1200 Pr 0.10789 0.37756 0.79109 0.0
Pr1201 Pr 0.14885 0.3859 0.7788 0.0
C1202 C 0.07761 0.36328 0.80233 0.0
C1203 C 0.06442 0.36529 0.81773 0.0
C1204 C 0.06155 0.38133 0.82681 0.0
C1205 C 0.04888 0.38296 0.84129 0.0
C1206 C 0.0389 0.36856 0.84709 0.0
C1207 C 0.04199 0.35249 0.83805 0.0
C1208 C 0.0546 0.3509 0.82353 0.0
C1209 C 0.11516 0.41157 0.78163 0.0
C1210 C 0.133 0.40016 0.82131 0.0
C1211 C 0.17798 0.3997 0.76339 0.0
C1212 C 0.19157 0.3965 0.74846 0.0
C1213 C 0.2085 0.39198 0.7541 0.0
C1214 C 0.22173 0.39025 0.74025 0.0
C1215 C 0.21839 0.39319 0.72042 0.0
C1216 C 0.20139 0.39747 0.71477 0.0
C1217 C 0.18816 0.3991 0.72858 0.0
C1218 C 0.14507 0.35333 0.79738 0.0
C1219 C 0.12241 0.36874 0.7454 0.0
O1220 O 0.09274 0.35726 0.80775 0.0
O1221 O 0.07868 0.37565 0.78932 0.0
O1222 O 0.12203 0.39846 0.77363 0.0
O1223 O 0.10278 0.40717 0.79353 0.0
O1224 O 0.14453 0.4022 0.80717 0.0
O1225 O 0.11962 0.38931 0.81994 0.0
O1226 O 0.16234 0.40338 0.75728 0.0
O1227 O 0.17805 0.39016 0.77914 0.0
O1228 O 0.13371 0.36429 0.79313 0.0
O1229 O 0.15988 0.35888 0.79087 0.0
O1230 O 0.10932 0.3684 0.75805 0.0
O1231 O 0.13818 0.37405 0.75008 0.0
H1232 H 0.06911 0.39259 0.82271 0.0
H1233 H 0.04703 0.39547 0.84811 0.0
H1234 H 0.03445 0.34118 0.84196 0.0
H1235 H 0.05663 0.3384 0.81673 0.0
H1236 H 0.21162 0.3901 0.7693 0.0
H1237 H 0.23469 0.38712 0.74516 0.0
H1238 H 0.19828 0.3996 0.69961 0.0
H1239 H 0.17531 0.40266 0.72365 0.0
Pr1240 Pr 0.37301 0.36462 0.53982 0.0
Pr1241 Pr 0.36894 0.40376 0.53271 0.0
C1242 C 0.38188 0.33325 0.55441 0.0
C1243 C 0.37888 0.32039 0.57011 0.0
C1244 C 0.37426 0.30337 0.56511 0.0
C1245 C 0.37272 0.29051 0.57936 0.0
C1246 C 0.37583 0.29429 0.59906 0.0
C1247 C 0.38025 0.31144 0.6041 0.0
C1248 C 0.38174 0.32434 0.58981 0.0
C1249 C 0.34186 0.3739 0.52188 0.0
C1250 C 0.35168 0.38887 0.57305 0.0
C1251 C 0.3636 0.4366 0.52022 0.0
C1252 C 0.36489 0.44838 0.50328 0.0
C1253 C 0.37186 0.465 0.50596 0.0
C1254 C 0.37255 0.47683 0.49057 0.0
C1255 C 0.36624 0.47235 0.47206 0.0
C1256 C 0.35941 0.45558 0.46934 0.0
C1257 C 0.35878 0.44369 0.48477 0.0
C1258 C 0.39803 0.39445 0.55445 0.0
C1259 C 0.38197 0.3781 0.496 0.0
O1260 O 0.39002 0.34764 0.55871 0.0
O1261 O 0.36975 0.33536 0.54135 0.0
O1262 O 0.34918 0.38196 0.53546 0.0
O1263 O 0.35016 0.35967 0.51779 0.0
O1264 O 0.35152 0.4018 0.56043 0.0
O1265 O 0.36022 0.37429 0.56935 0.0
O1266 O 0.3516 0.42461 0.52005 0.0
O1267 O 0.37808 0.43145 0.52823 0.0
O1268 O 0.39307 0.38664 0.53922 0.0
O1269 O 0.38814 0.40759 0.5584 0.0
O1270 O 0.38539 0.36568 0.50869 0.0
O1271 O 0.37459 0.39276 0.50147 0.0
H1272 H 0.37219 0.2999 0.55004 0.0
H1273 H 0.36957 0.27745 0.57482 0.0
H1274 H 0.38254 0.3149 0.61912 0.0
H1275 H 0.38537 0.33733 0.59416 0.0
H1276 H 0.37656 0.46895 0.52011 0.0
H1277 H 0.37767 0.48966 0.49332 0.0
H1278 H 0.35462 0.45161 0.45524 0.0
H1279 H 0.35341 0.43092 0.48226 0.0
H1280 H 0.22713 0.09212 0.18937 0.0
H1281 H 0.25015 0.09255 0.16491 0.0
H1282 H 0.26829 0.14148 0.18723 0.0
H1283 H 0.24533 0.14115 0.21174 0.0
H1284 H 0.25772 0.11567 0.13576 0.0
H1285 H 0.31238 0.11289 0.18803 0.0
H1286 H 0.29025 0.10877 0.19514 0.0
H1287 H 0.29782 0.13065 0.19211 0.0
C1288 C 0.23591 0.10306 0.18899 0.0
C1289 C 0.2344 0.11654 0.20267 0.0
C1290 C 0.24915 0.10324 0.17504 0.0
C1291 C 0.26123 0.11686 0.17444 0.0
C1292 C 0.25947 0.13057 0.18771 0.0
H1293 H 0.34886 0.14065 0.09821 0.0
H1294 H 0.32657 0.14099 0.1236 0.0
C1295 C 0.24628 0.13038 0.20171 0.0
C1296 C 0.27552 0.11678 0.15981 0.0
H1297 H 0.31968 0.11766 0.15497 0.0
C1298 C 0.27126 0.11603 0.13999 0.0
C1299 C 0.29324 0.11729 0.16526 0.0
C1300 C 0.29875 0.11728 0.18629 0.0
C1301 C 0.28416 0.11601 0.12552 0.0
C1302 C 0.30185 0.11647 0.13099 0.0
C1303 C 0.30613 0.11733 0.15078 0.0
C1304 C 0.31607 0.11582 0.11634 0.0
C1305 C 0.27871 0.11579 0.10447 0.0
C1306 C 0.31798 0.10133 0.10422 0.0
C1307 C 0.33075 0.10103 0.08978 0.0
C1308 C 0.34198 0.11523 0.08712 0.0
C1309 C 0.34048 0.12947 0.0998 0.0
C1310 C 0.3277 0.12972 0.11431 0.0
H1311 H 0.26499 0.11989 0.10262 0.0
H1312 H 0.28708 0.12443 0.09561 0.0
H1313 H 0.27998 0.10242 0.09871 0.0
H1314 H 0.30942 0.09029 0.10577 0.0
H1315 H 0.3315 0.08981 0.08039 0.0
H1316 H 0.11189 0.09812 0.34771 0.0
H1317 H 0.11182 0.07677 0.37405 0.0
H1318 H 0.16239 0.05903 0.35635 0.0
H1319 H 0.16269 0.08039 0.33018 0.0
H1320 H 0.11389 0.04085 0.37019 0.0
H1321 H 0.16861 0.06519 0.41472 0.0
H1322 H 0.1583 0.07819 0.39622 0.0
H1323 H 0.17397 0.06197 0.38961 0.0
C1324 C 0.12314 0.08989 0.3496 0.0
C1325 C 0.13733 0.09108 0.33681 0.0
C1326 C 0.12304 0.07762 0.36464 0.0
C1327 C 0.13718 0.06639 0.36735 0.0
C1328 C 0.15147 0.06776 0.35483 0.0
H1329 H 0.15977 0.97891 0.4435 0.0
H1330 H 0.15992 0.00104 0.41795 0.0
C1331 C 0.15158 0.07998 0.33979 0.0
C1332 C 0.13662 0.05265 0.38258 0.0
H1333 H 0.15791 0.03713 0.42255 0.0
C1334 C 0.12344 0.04011 0.38173 0.0
C1335 C 0.14915 0.0516 0.39757 0.0
C1336 C 0.16322 0.06503 0.39976 0.0
C1337 C 0.12262 0.02641 0.3952 0.0
C1338 C 0.13516 0.02535 0.41018 0.0
C1339 C 0.14834 0.0379 0.41105 0.0
C1340 C 0.13472 0.01147 0.42525 0.0
C1341 C 0.10858 0.01295 0.393 0.0
C1342 C 0.12053 0.00996 0.43791 0.0
C1343 C 0.12037 0.99728 0.45247 0.0
C1344 C 0.13445 0.98583 0.45479 0.0
C1345 C 0.14861 0.98732 0.44199 0.0
C1346 C 0.14877 1.00006 0.42746 0.0
H1347 H 0.10302 0.01295 0.37811 0.0
H1348 H 0.11362 0.99978 0.39625 0.0
H1349 H 0.09795 0.01581 0.40336 0.0
H1350 H 0.10965 0.01877 0.43672 0.0
H1351 H 0.10919 0.99645 0.46193 0.0
H1352 H 0.25286 0.91195 0.71612 0.0
H1353 H 0.23037 0.91131 0.69117 0.0
H1354 H 0.25396 0.86606 0.66572 0.0
H1355 H 0.27651 0.8665 0.69082 0.0
H1356 H 0.2441 0.89071 0.63816 0.0
H1357 H 0.18992 0.87712 0.6888 0.0
H1358 H 0.20243 0.89586 0.69532 0.0
H1359 H 0.21236 0.87477 0.69574 0.0
C1360 C 0.25322 0.90173 0.70536 0.0
C1361 C 0.26645 0.88915 0.70569 0.0
C1362 C 0.24031 0.90139 0.69106 0.0
C1363 C 0.24022 0.88843 0.67677 0.0
C1364 C 0.25367 0.87613 0.67667 0.0
H1365 H 0.1538 0.86361 0.59916 0.0
H1366 H 0.176 0.86324 0.6246 0.0
C1367 C 0.26662 0.87646 0.69099 0.0
C1368 C 0.22617 0.88783 0.66189 0.0
H1369 H 0.18216 0.88492 0.65649 0.0
C1370 C 0.23057 0.88938 0.64217 0.0
C1371 C 0.2085 0.88582 0.66705 0.0
C1372 C 0.20298 0.88313 0.68786 0.0
C1373 C 0.21779 0.88944 0.62756 0.0
C1374 C 0.20007 0.88816 0.63281 0.0
C1375 C 0.1957 0.88614 0.65247 0.0
C1376 C 0.18592 0.88881 0.61806 0.0
C1377 C 0.22339 0.89065 0.6066 0.0
C1378 C 0.18368 0.90352 0.60631 0.0
C1379 C 0.17095 0.90382 0.59181 0.0
C1380 C 0.16007 0.88942 0.58875 0.0
C1381 C 0.16189 0.87495 0.60107 0.0
C1382 C 0.17463 0.87469 0.61561 0.0
H1383 H 0.23721 0.88696 0.60473 0.0
H1384 H 0.2153 0.88219 0.59722 0.0
H1385 H 0.22185 0.90421 0.60152 0.0
H1386 H 0.19195 0.91474 0.6082 0.0
H1387 H 0.16995 0.91521 0.58269 0.0
H1388 H 0.39058 0.90436 0.84787 0.0
H1389 H 0.39078 0.92625 0.87359 0.0
H1390 H 0.33844 0.94072 0.85882 0.0
H1391 H 0.33818 0.9191 0.83295 0.0
H1392 H 0.35967 0.96891 0.86189 0.0
H1393 H 0.3675 0.92675 0.92658 0.0
H1394 H 0.38372 0.92351 0.90824 0.0
H1395 H 0.36147 0.91834 0.90308 0.0
C1396 C 0.379 0.91199 0.85027 0.0
C1397 C 0.36434 0.90987 0.8383 0.0
C1398 C 0.37912 0.92451 0.86506 0.0
C1399 C 0.36457 0.93508 0.86831 0.0
C1400 C 0.34983 0.93274 0.85664 0.0
H1401 H 0.3439 0.0022 0.96695 0.0
H1402 H 0.34425 0.97943 0.94233 0.0
C1403 C 0.34969 0.92028 0.84187 0.0
C1404 C 0.36489 0.94915 0.88319 0.0
H1405 H 0.37004 0.95706 0.93173 0.0
C1406 C 0.36192 0.9663 0.87716 0.0
C1407 C 0.36766 0.94578 0.90317 0.0
C1408 C 0.37011 0.92759 0.91074 0.0
C1409 C 0.36173 0.98014 0.89048 0.0
C1410 C 0.36491 0.97683 0.9104 0.0
C1411 C 0.36777 0.95966 0.91645 0.0
C1412 C 0.3648 0.99091 0.92527 0.0
C1413 C 0.3577 0.99811 0.88311 0.0
C1414 C 0.37634 0.00497 0.92406 0.0
C1415 C 0.37605 0.01817 0.93805 0.0
C1416 C 0.36428 0.01759 0.95369 0.0
C1417 C 0.35291 0.00334 0.95496 0.0
C1418 C 0.3532 0.99018 0.94096 0.0
H1419 H 0.35112 0.99777 0.86875 0.0
H1420 H 0.34932 0.00525 0.8935 0.0
H1421 H 0.36997 0.00545 0.88138 0.0
H1422 H 0.38565 0.0057 0.91233 0.0
H1423 H 0.38494 0.02894 0.93649 0.0
H1424 H 0.33069 0.90881 0.44993 0.0
H1425 H 0.30949 0.9091 0.42364 0.0
H1426 H 0.32816 0.85952 0.40381 0.0
H1427 H 0.3497 0.85921 0.42996 0.0
H1428 H 0.32131 0.88172 0.37341 0.0
H1429 H 0.26553 0.88028 0.42402 0.0
H1430 H 0.27987 0.89819 0.42828 0.0
H1431 H 0.28749 0.87638 0.43193 0.0
C1432 C 0.33047 0.89801 0.4399 0.0
C1433 C 0.34193 0.88394 0.44221 0.0
C1434 C 0.31819 0.89814 0.42493 0.0
C1435 C 0.3169 0.88415 0.41198 0.0
C1436 C 0.32879 0.87042 0.4137 0.0
H1437 H 0.22605 0.86421 0.33923 0.0
H1438 H 0.24928 0.86269 0.36338 0.0
C1439 C 0.34115 0.87029 0.42866 0.0
C1440 C 0.30301 0.88376 0.39688 0.0
H1441 H 0.25904 0.88579 0.3908 0.0
C1442 C 0.30769 0.88255 0.37722 0.0
C1443 C 0.28519 0.88451 0.40181 0.0
C1444 C 0.27917 0.88473 0.42266 0.0
C1445 C 0.29511 0.8825 0.36238 0.0
C1446 C 0.27733 0.88403 0.36728 0.0
C1447 C 0.27264 0.88482 0.38697 0.0
C1448 C 0.26337 0.88482 0.35226 0.0
C1449 C 0.301 0.88053 0.34161 0.0
C1450 C 0.26335 0.89788 0.33804 0.0
C1451 C 0.25015 0.8987 0.32408 0.0
C1452 C 0.23649 0.88657 0.32408 0.0
C1453 C 0.23644 0.87362 0.33853 0.0
C1454 C 0.24968 0.8728 0.35246 0.0
H1455 H 0.31403 0.87444 0.34072 0.0
H1456 H 0.29173 0.87256 0.3331 0.0
H1457 H 0.30185 0.89352 0.33476 0.0
H1458 H 0.27351 0.90756 0.33778 0.0
H1459 H 0.25079 0.90875 0.31313 0.0
H1460 H 0.35358 0.96712 0.59987 0.0
H1461 H 0.35523 0.99086 0.62333 0.0
H1462 H 0.37254 0.02541 0.57811 0.0
H1463 H 0.37045 0.00185 0.5544 0.0
H1464 H 0.38302 0.01141 0.63483 0.0
H1465 H 0.33127 0.05155 0.60136 0.0
H1466 H 0.33466 0.02911 0.59499 0.0
H1467 H 0.3485 0.04565 0.58511 0.0
C1468 C 0.3576 0.9798 0.59483 0.0
C1469 C 0.36173 0.98254 0.57513 0.0
C1470 C 0.35865 0.99335 0.60832 0.0
C1471 C 0.36375 0.01003 0.60248 0.0
C1472 C 0.36827 0.01275 0.58294 0.0
H1473 H 0.39237 0.09448 0.68179 0.0
H1474 H 0.3922 0.07279 0.65578 0.0
C1475 C 0.36726 0.99918 0.56942 0.0
C1476 C 0.3643 0.0245 0.61687 0.0
H1477 H 0.34669 0.06408 0.62758 0.0
C1478 C 0.37512 0.02295 0.6332 0.0
C1479 C 0.3538 0.03948 0.61493 0.0
C1480 C 0.34127 0.04156 0.59826 0.0
C1481 C 0.37584 0.03598 0.6475 0.0
C1482 C 0.36562 0.0511 0.64533 0.0
C1483 C 0.35469 0.0526 0.62911 0.0
C1484 C 0.36552 0.06512 0.66024 0.0
C1485 C 0.38717 0.03326 0.66511 0.0
C1486 C 0.35043 0.06847 0.67098 0.0
C1487 C 0.35047 0.08087 0.68584 0.0
C1488 C 0.36557 0.09035 0.6902 0.0
C1489 C 0.38049 0.08746 0.67887 0.0
C1490 C 0.38047 0.07495 0.66407 0.0
H1491 H 0.39147 0.01958 0.66653 0.0
H1492 H 0.39888 0.04155 0.66386 0.0
H1493 H 0.3802 0.03704 0.67857 0.0
H1494 H 0.33872 0.06112 0.66824 0.0
H1495 H 0.33872 0.08273 0.6942 0.0
H1496 H 0.17253 0.09034 0.94771 0.0
H1497 H 0.1943 0.09051 0.92197 0.0
H1498 H 0.17878 0.14217 0.90562 0.0
H1499 H 0.15674 0.14206 0.93122 0.0
H1500 H 0.18436 0.12107 0.87384 0.0
H1501 H 0.23999 0.11699 0.92459 0.0
H1502 H 0.22452 0.09986 0.92779 0.0
H1503 H 0.21826 0.12189 0.93261 0.0
C1504 C 0.1736 0.10171 0.93856 0.0
C1505 C 0.16288 0.11623 0.94167 0.0
C1506 C 0.1862 0.10184 0.92393 0.0
C1507 C 0.18849 0.11651 0.91213 0.0
C1508 C 0.17737 0.13076 0.91466 0.0
H1509 H 0.27957 0.13548 0.83889 0.0
H1510 H 0.25715 0.13686 0.86408 0.0
C1511 C 0.16473 0.13065 0.9293 0.0
C1512 C 0.20247 0.11694 0.89717 0.0
H1513 H 0.24629 0.11291 0.89102 0.0
C1514 C 0.1979 0.11936 0.87761 0.0
C1515 C 0.22021 0.11503 0.90209 0.0
C1516 C 0.2261 0.11347 0.92292 0.0
C1517 C 0.21049 0.11943 0.86282 0.0
C1518 C 0.22815 0.1167 0.86764 0.0
C1519 C 0.23277 0.11478 0.88726 0.0
C1520 C 0.24196 0.11567 0.85252 0.0
C1521 C 0.20476 0.12266 0.84218 0.0
C1522 C 0.24115 0.10306 0.83785 0.0
C1523 C 0.25395 0.10222 0.82347 0.0
C1524 C 0.26799 0.11389 0.82346 0.0
C1525 C 0.26902 0.12623 0.83847 0.0
C1526 C 0.25616 0.12709 0.85285 0.0
H1527 H 0.19206 0.12942 0.84162 0.0
H1528 H 0.21445 0.13054 0.83416 0.0
H1529 H 0.2033 0.11006 0.8346 0.0
H1530 H 0.23063 0.09377 0.83757 0.0
H1531 H 0.25291 0.09228 0.81244 0.0
H1532 H 0.11242 0.9051 0.18071 0.0
H1533 H 0.11229 0.92685 0.15476 0.0
H1534 H 0.16371 0.94296 0.1713 0.0
H1535 H 0.16408 0.9212 0.19701 0.0
H1536 H 0.1152 0.9625 0.15871 0.0
H1537 H 0.16876 0.93764 0.11289 0.0
H1538 H 0.15861 0.92468 0.13152 0.0
H1539 H 0.17473 0.94053 0.13787 0.0
C1540 C 0.12384 0.91306 0.17864 0.0
C1541 C 0.1383 0.91126 0.19096 0.0
C1542 C 0.1237 0.92556 0.16382 0.0
C1543 C 0.13807 0.93646 0.16087 0.0
C1544 C 0.15261 0.93451 0.17296 0.0
H1545 H 0.16219 0.0249 0.08693 0.0
H1546 H 0.16183 0.00208 0.11167 0.0
C1547 C 0.15276 0.92204 0.18775 0.0
C1548 C 0.13757 0.95042 0.14583 0.0
H1549 H 0.15883 0.96621 0.10596 0.0
C1550 C 0.12466 0.96322 0.14707 0.0
C1551 C 0.14996 0.95146 0.13069 0.0
C1552 C 0.16371 0.93776 0.128 0.0
C1553 C 0.12401 0.97718 0.1339 0.0
C1554 C 0.13645 0.97827 0.11882 0.0
C1555 C 0.14933 0.96543 0.11753 0.0
C1556 C 0.13632 0.99255 0.10418 0.0
C1557 C 0.11028 0.9909 0.13655 0.0
C1558 C 0.12213 0.99483 0.09165 0.0
C1559 C 0.12226 0.00793 0.07752 0.0
C1560 C 0.13663 0.01906 0.07553 0.0
C1561 C 0.1508 0.01678 0.08819 0.0
C1562 C 0.15067 0.00363 0.10227 0.0
H1563 H 0.10474 0.99066 0.15145 0.0
H1564 H 0.11561 0.00402 0.13369 0.0
H1565 H 0.09958 0.98854 0.12612 0.0
H1566 H 0.11101 0.9863 0.0926 0.0
H1567 H 0.11107 0.00934 0.06816 0.0
H1568 H 0.77128 0.91066 0.83633 0.0
H1569 H 0.74859 0.91073 0.86121 0.0
H1570 H 0.73214 0.85997 0.84273 0.0
H1571 H 0.75504 0.8596 0.81818 0.0
H1572 H 0.71263 0.90807 0.85578 0.0
H1573 H 0.73691 0.85404 0.90154 0.0
H1574 H 0.75024 0.86466 0.88358 0.0
H1575 H 0.73455 0.84872 0.87629 0.0
C1576 C 0.76304 0.89938 0.83775 0.0
C1577 C 0.76508 0.8851 0.82523 0.0
C1578 C 0.74997 0.8995 0.8519 0.0
C1579 C 0.73874 0.88529 0.85402 0.0
C1580 C 0.74078 0.87098 0.84162 0.0
H1581 H 0.65188 0.86238 0.9315 0.0
H1582 H 0.67325 0.86209 0.9052 0.0
C1583 C 0.7538 0.87087 0.82743 0.0
C1584 C 0.72457 0.88566 0.86875 0.0
H1585 H 0.70886 0.86475 0.90887 0.0
C1586 C 0.71184 0.89863 0.86744 0.0
C1587 C 0.72347 0.87331 0.88392 0.0
C1588 C 0.73709 0.85947 0.8866 0.0
C1589 C 0.69796 0.89946 0.88067 0.0
C1590 C 0.6969 0.88716 0.89591 0.0
C1591 C 0.70959 0.87414 0.89717 0.0
C1592 C 0.68305 0.88784 0.91103 0.0
C1593 C 0.68435 0.9133 0.87797 0.0
C1594 C 0.68132 0.90243 0.92305 0.0
C1595 C 0.66906 0.90267 0.93805 0.0
C1596 C 0.65829 0.88826 0.94152 0.0
C1597 C 0.65983 0.87376 0.92923 0.0
C1598 C 0.67213 0.87354 0.91421 0.0
H1599 H 0.68417 0.91827 0.86282 0.0
H1600 H 0.67125 0.90834 0.88164 0.0
H1601 H 0.68729 0.92436 0.88773 0.0
H1602 H 0.68981 0.91348 0.92121 0.0
H1603 H 0.6684 0.91402 0.94728 0.0
H1604 H 0.88391 0.02883 0.59069 0.0
H1605 H 0.88436 0.00643 0.61596 0.0
H1606 H 0.84188 0.98024 0.58783 0.0
H1607 H 0.84134 0.00249 0.5626 0.0
H1608 H 0.85963 0.99563 0.64203 0.0
H1609 H 0.87716 0.94146 0.59305 0.0
H1610 H 0.87857 0.96386 0.58568 0.0
H1611 H 0.85803 0.95283 0.58544 0.0
C1612 C 0.87459 0.01836 0.58993 0.0
C1613 C 0.86272 0.01741 0.57443 0.0
C1614 C 0.87491 0.00551 0.60437 0.0
C1615 C 0.8634 0.9914 0.60361 0.0
C1616 C 0.85123 0.99069 0.58847 0.0
H1617 H 0.83672 0.92157 0.6985 0.0
H1618 H 0.83691 0.94338 0.67275 0.0
C1619 C 0.85093 0.00347 0.57403 0.0
C1620 C 0.86394 0.97754 0.61873 0.0
H1621 H 0.86816 0.93374 0.625 0.0
C1622 C 0.86156 0.98211 0.6383 0.0
C1623 C 0.86674 0.95989 0.61397 0.0
C1624 C 0.87045 0.9542 0.59342 0.0
C1625 C 0.86149 0.96952 0.65312 0.0
C1626 C 0.86354 0.9518 0.64824 0.0
C1627 C 0.86634 0.94728 0.62874 0.0
C1628 C 0.86304 0.9378 0.66319 0.0
C1629 C 0.85951 0.97537 0.67392 0.0
C1630 C 0.87735 0.9268 0.66587 0.0
C1631 C 0.87723 0.91414 0.6805 0.0
C1632 C 0.86273 0.91215 0.69272 0.0
C1633 C 0.84815 0.92274 0.68947 0.0
C1634 C 0.84829 0.93537 0.67484 0.0
H1635 H 0.86287 0.98929 0.67568 0.0
H1636 H 0.84582 0.97366 0.67848 0.0
H1637 H 0.86783 0.9676 0.6838 0.0
H1638 H 0.88883 0.9283 0.65697 0.0
H1639 H 0.8887 0.90625 0.68253 0.0
H1640 H 0.74327 0.1409 0.31828 0.0
H1641 H 0.7666 0.14168 0.3424 0.0
H1642 H 0.75333 0.08996 0.3608 0.0
H1643 H 0.72996 0.08909 0.33685 0.0
H1644 H 0.7661 0.13806 0.38264 0.0
H1645 H 0.80497 0.08546 0.34932 0.0
H1646 H 0.78728 0.09589 0.33675 0.0
H1647 H 0.78301 0.07936 0.35455 0.0
C1648 C 0.74519 0.12974 0.32757 0.0
C1649 C 0.73475 0.11487 0.32544 0.0
C1650 C 0.75862 0.13018 0.3413 0.0
C1651 C 0.762 0.11575 0.35318 0.0
C1652 C 0.75132 0.10109 0.35147 0.0
H1653 H 0.83235 0.0897 0.44658 0.0
H1654 H 0.81078 0.09041 0.42063 0.0
C1655 C 0.73792 0.10062 0.33774 0.0
C1656 C 0.77658 0.11606 0.36745 0.0
H1657 H 0.81373 0.0949 0.3807 0.0
C1658 C 0.77659 0.12871 0.38212 0.0
C1659 C 0.79031 0.10388 0.3668 0.0
C1660 C 0.79154 0.09047 0.35091 0.0
C1661 C 0.78961 0.12917 0.39646 0.0
C1662 C 0.80324 0.11686 0.39593 0.0
C1663 C 0.80332 0.10434 0.38113 0.0
C1664 C 0.81713 0.11633 0.41101 0.0
C1665 C 0.78834 0.14248 0.41245 0.0
C1666 C 0.82831 0.13048 0.41396 0.0
C1667 C 0.84076 0.13012 0.42883 0.0
C1668 C 0.84234 0.11555 0.44104 0.0
C1669 C 0.83154 0.10116 0.43754 0.0
C1670 C 0.81914 0.10154 0.42268 0.0
H1671 H 0.77514 0.14817 0.41342 0.0
H1672 H 0.79171 0.13669 0.42673 0.0
H1673 H 0.79761 0.15315 0.40948 0.0
H1674 H 0.82729 0.1419 0.40488 0.0
H1675 H 0.84884 0.14142 0.43104 0.0
H1676 H 0.60999 0.99715 0.06669 0.0
H1677 H 0.61051 0.02024 0.09106 0.0
H1678 H 0.66002 0.00196 0.11164 0.0
H1679 H 0.6598 0.97907 0.08703 0.0
H1680 H 0.61286 0.01798 0.13197 0.0
H1681 H 0.66892 0.05367 0.10109 0.0
H1682 H 0.65726 0.03734 0.08761 0.0
H1683 H 0.67286 0.0311 0.1057 0.0
C1684 C 0.62106 0.9981 0.0763 0.0
C1685 C 0.63491 0.98627 0.07476 0.0
C1686 C 0.62129 0.01127 0.0903 0.0
C1687 C 0.63543 0.01304 0.10299 0.0
C1688 C 0.64911 0.00106 0.10179 0.0
H1689 H 0.66269 0.08211 0.19751 0.0
H1690 H 0.66192 0.06058 0.17154 0.0
C1691 C 0.64886 0.98784 0.08784 0.0
C1692 C 0.63578 0.02732 0.11758 0.0
H1693 H 0.65864 0.06312 0.13177 0.0
C1694 C 0.6228 0.02791 0.13186 0.0
C1695 C 0.64878 0.04027 0.11747 0.0
C1696 C 0.66268 0.04073 0.10206 0.0
C1697 C 0.6227 0.04084 0.14629 0.0
C1698 C 0.63571 0.05381 0.14619 0.0
C1699 C 0.64864 0.05324 0.13184 0.0
C1700 C 0.63642 0.06774 0.1612 0.0
C1701 C 0.60896 0.04016 0.16186 0.0
C1702 C 0.62257 0.07936 0.16373 0.0
C1703 C 0.62296 0.09175 0.17862 0.0
C1704 C 0.63728 0.09287 0.19125 0.0
C1705 C 0.65143 0.08167 0.18813 0.0
C1706 C 0.65101 0.0693 0.17327 0.0
H1707 H 0.60283 0.02716 0.1628 0.0
H1708 H 0.61447 0.04348 0.17629 0.0
H1709 H 0.59865 0.04971 0.15842 0.0
H1710 H 0.61134 0.07871 0.15432 0.0
H1711 H 0.61184 0.10015 0.18051 0.0
H1712 H 0.7671 0.14002 0.70393 0.0
H1713 H 0.74414 0.13959 0.6795 0.0
H1714 H 0.75089 0.08447 0.67263 0.0
H1715 H 0.77351 0.08468 0.69761 0.0
H1716 H 0.74428 0.12984 0.64113 0.0
H1717 H 0.69907 0.0881 0.68292 0.0
H1718 H 0.71795 0.09793 0.69377 0.0
H1719 H 0.72011 0.07876 0.67913 0.0
C1720 C 0.76363 0.12775 0.69738 0.0
C1721 C 0.77207 0.11234 0.70299 0.0
C1722 C 0.75054 0.12755 0.68328 0.0
C1723 C 0.74549 0.11196 0.67445 0.0
C1724 C 0.75425 0.09662 0.67953 0.0
H1725 H 0.66979 0.08674 0.58495 0.0
H1726 H 0.69218 0.08621 0.61009 0.0
C1727 C 0.76737 0.0968 0.69366 0.0
C1728 C 0.73109 0.11186 0.65994 0.0
H1729 H 0.69089 0.09502 0.65063 0.0
C1730 C 0.73259 0.12227 0.64326 0.0
C1731 C 0.71579 0.102 0.66267 0.0
C1732 C 0.713 0.09118 0.68066 0.0
C1733 C 0.71936 0.12289 0.62918 0.0
C1734 C 0.70406 0.11307 0.63195 0.0
C1735 C 0.70259 0.10259 0.64855 0.0
C1736 C 0.68961 0.11329 0.61758 0.0
C1737 C 0.72202 0.13378 0.61121 0.0
C1738 C 0.68029 0.12858 0.61379 0.0
C1739 C 0.66734 0.12892 0.59949 0.0
C1740 C 0.66346 0.11396 0.58861 0.0
C1741 C 0.67241 0.09852 0.59296 0.0
C1742 C 0.68526 0.09818 0.60734 0.0
H1743 H 0.73585 0.1374 0.60918 0.0
H1744 H 0.71751 0.12679 0.59806 0.0
H1745 H 0.71435 0.14589 0.61252 0.0
H1746 H 0.6832 0.14033 0.62174 0.0
H1747 H 0.66076 0.14104 0.59656 0.0
H1748 H 0.6183 0.02751 0.43934 0.0
H1749 H 0.61696 0.00396 0.41556 0.0
H1750 H 0.65899 0.97795 0.4448 0.0
H1751 H 0.65998 0.00102 0.46901 0.0
H1752 H 0.64144 0.99235 0.39008 0.0
H1753 H 0.6235 0.9394 0.44059 0.0
H1754 H 0.62238 0.96197 0.44736 0.0
H1755 H 0.64279 0.95069 0.44779 0.0
C1756 C 0.62711 0.01668 0.44089 0.0
C1757 C 0.63921 0.01621 0.45621 0.0
C1758 C 0.6264 0.00326 0.42718 0.0
C1759 C 0.63768 0.989 0.42853 0.0
C1760 C 0.6499 0.9886 0.44364 0.0
H1761 H 0.66362 0.9176 0.33528 0.0
H1762 H 0.66375 0.9393 0.36108 0.0
C1763 C 0.6506 0.00197 0.45735 0.0
C1764 C 0.63698 0.97479 0.41386 0.0
H1765 H 0.63233 0.93092 0.40879 0.0
C1766 C 0.63937 0.97893 0.39418 0.0
C1767 C 0.63404 0.95727 0.41913 0.0
C1768 C 0.63035 0.95205 0.43984 0.0
C1769 C 0.63929 0.96606 0.37972 0.0
C1770 C 0.63709 0.94846 0.38508 0.0
C1771 C 0.63427 0.94435 0.4047 0.0
C1772 C 0.63748 0.93422 0.37047 0.0
C1773 C 0.6413 0.97147 0.35877 0.0
C1774 C 0.62297 0.92348 0.36774 0.0
C1775 C 0.6229 0.91088 0.35307 0.0
C1776 C 0.63738 0.9087 0.34086 0.0
C1777 C 0.65219 0.91893 0.34428 0.0
C1778 C 0.65225 0.93149 0.35895 0.0
H1779 H 0.63809 0.98539 0.35664 0.0
H1780 H 0.65496 0.96951 0.35423 0.0
H1781 H 0.63287 0.9636 0.34911 0.0
H1782 H 0.61147 0.92524 0.37655 0.0
H1783 H 0.61126 0.90327 0.35089 0.0
H1784 H 0.83106 0.91348 0.08441 0.0
H1785 H 0.80945 0.91294 0.11031 0.0
H1786 H 0.82708 0.86224 0.1277 0.0
H1787 H 0.84891 0.86271 0.1019 0.0
H1788 H 0.78264 0.88909 0.11403 0.0
H1789 H 0.82454 0.88792 0.17957 0.0
H1790 H 0.83263 0.89386 0.15588 0.0
H1791 H 0.82937 0.87144 0.16196 0.0
C1792 C 0.83061 0.90231 0.09392 0.0
C1793 C 0.84185 0.88816 0.09103 0.0
C1794 C 0.81814 0.90201 0.10871 0.0
C1795 C 0.81667 0.88762 0.12111 0.0
C1796 C 0.82813 0.87364 0.11859 0.0
H1797 H 0.74466 0.86065 0.21438 0.0
H1798 H 0.76764 0.86088 0.18986 0.0
C1799 C 0.84061 0.87391 0.10376 0.0
C1800 C 0.80251 0.88692 0.13586 0.0
H1801 H 0.79445 0.88355 0.18456 0.0
C1802 C 0.78523 0.88795 0.12946 0.0
C1803 C 0.80584 0.88531 0.156 0.0
C1804 C 0.82409 0.88471 0.16385 0.0
C1805 C 0.77125 0.88721 0.14257 0.0
C1806 C 0.77457 0.88579 0.16275 0.0
C1807 C 0.79185 0.88465 0.16913 0.0
C1808 C 0.76034 0.8856 0.17747 0.0
C1809 C 0.75303 0.88756 0.13459 0.0
C1810 C 0.74858 0.89946 0.17886 0.0
C1811 C 0.7354 0.89936 0.19287 0.0
C1812 C 0.73374 0.88547 0.20601 0.0
C1813 C 0.7456 0.87163 0.20464 0.0
C1814 C 0.75874 0.87172 0.19057 0.0
H1815 H 0.75266 0.88354 0.1191 0.0
H1816 H 0.74433 0.87892 0.14303 0.0
H1817 H 0.7479 0.90097 0.13549 0.0
H1818 H 0.74976 0.91054 0.16929 0.0
H1819 H 0.72676 0.9104 0.1937 0.0
H1820 H 0.84766 0.07359 0.82558 0.0
H1821 H 0.84843 0.05197 0.85139 0.0
H1822 H 0.89184 0.07822 0.87762 0.0
H1823 H 0.89107 0.10015 0.85184 0.0
H1824 H 0.87468 0.02953 0.86103 0.0
H1825 H 0.85932 0.07206 0.92371 0.0
H1826 H 0.85624 0.07888 0.89887 0.0
H1827 H 0.87753 0.07904 0.90947 0.0
C1828 C 0.85725 0.07499 0.83695 0.0
C1829 C 0.86919 0.08881 0.83668 0.0
C1830 C 0.85771 0.06251 0.85169 0.0
C1831 C 0.87003 0.06353 0.86665 0.0
C1832 C 0.88196 0.07732 0.86649 0.0
H1833 H 0.89044 0.99794 0.96771 0.0
H1834 H 0.89156 0.01989 0.94207 0.0
C1835 C 0.88153 0.08984 0.85169 0.0
C1836 C 0.87059 0.04984 0.88197 0.0
H1837 H 0.86692 0.04305 0.9309 0.0
C1838 C 0.87297 0.0325 0.87631 0.0
C1839 C 0.86838 0.05365 0.90193 0.0
C1840 C 0.86507 0.07188 0.90892 0.0
C1841 C 0.87337 0.01894 0.89001 0.0
C1842 C 0.87099 0.02273 0.90997 0.0
C1843 C 0.86876 0.04009 0.91564 0.0
C1844 C 0.87061 0.00893 0.9252 0.0
C1845 C 0.87668 1.00073 0.88296 0.0
C1846 C 0.85839 0.99542 0.92441 0.0
C1847 C 0.85772 0.98281 0.93908 0.0
C1848 C 0.86912 0.98351 0.95504 0.0
C1849 C 0.88134 0.99706 0.95577 0.0
C1850 C 0.88204 0.00961 0.94106 0.0
H1851 H 0.88319 1.00066 0.86857 0.0
H1852 H 0.88481 0.99338 0.89342 0.0
H1853 H 0.86411 0.99387 0.88137 0.0
H1854 H 0.84911 0.99481 0.91263 0.0
H1855 H 0.84793 0.97279 0.93817 0.0
H1856 H 0.72553 0.59074 0.69276 0.0
H1857 H 0.7482 0.59073 0.66777 0.0
H1858 H 0.76619 0.64039 0.68811 0.0
H1859 H 0.74363 0.64054 0.71299 0.0
H1860 H 0.75567 0.61398 0.63763 0.0
H1861 H 0.81025 0.61119 0.69003 0.0
H1862 H 0.78811 0.60698 0.69706 0.0
H1863 H 0.7956 0.6289 0.69409 0.0
C1864 C 0.7342 0.60173 0.6918 0.0
C1865 C 0.73285 0.61553 0.70509 0.0
C1866 C 0.74722 0.60168 0.67756 0.0
C1867 C 0.75919 0.61538 0.67632 0.0
C1868 C 0.75746 0.62944 0.6891 0.0
H1869 H 0.84699 0.63953 0.60081 0.0
H1870 H 0.82454 0.63961 0.62605 0.0
C1871 C 0.74451 0.6295 0.70333 0.0
C1872 C 0.77345 0.61503 0.6617 0.0
H1873 H 0.81761 0.61605 0.65699 0.0
C1874 C 0.76921 0.61433 0.64187 0.0
C1875 C 0.79115 0.61555 0.6672 0.0
C1876 C 0.79661 0.61554 0.68825 0.0
C1877 C 0.78214 0.61446 0.62744 0.0
C1878 C 0.79982 0.61497 0.63296 0.0
C1879 C 0.80407 0.61569 0.65277 0.0
C1880 C 0.81408 0.61452 0.61837 0.0
C1881 C 0.77674 0.61443 0.60637 0.0
C1882 C 0.81606 0.60016 0.60608 0.0
C1883 C 0.82891 0.60002 0.59174 0.0
C1884 C 0.84016 0.61425 0.58935 0.0
C1885 C 0.83859 0.62835 0.6022 0.0
C1886 C 0.82572 0.62845 0.61661 0.0
H1887 H 0.76302 0.61849 0.60453 0.0
H1888 H 0.7851 0.62319 0.59764 0.0
H1889 H 0.77808 0.60112 0.60044 0.0
H1890 H 0.8075 0.5891 0.60743 0.0
H1891 H 0.82971 0.58889 0.58221 0.0
H1892 H 0.65987 0.57813 0.82917 0.0
H1893 H 0.65943 0.55637 0.85489 0.0
H1894 H 0.61111 0.57706 0.87611 0.0
H1895 H 0.61154 0.59913 0.85048 0.0
H1896 H 0.63393 0.56922 0.90576 0.0
H1897 H 0.62852 0.51365 0.85519 0.0
H1898 H 0.64684 0.52728 0.85023 0.0
H1899 H 0.62527 0.53578 0.84749 0.0
C1900 C 0.64917 0.57819 0.83936 0.0
C1901 C 0.6357 0.59041 0.83765 0.0
C1902 C 0.64888 0.56559 0.85399 0.0
C1903 C 0.63504 0.56479 0.8672 0.0
C1904 C 0.62186 0.57732 0.86599 0.0
H1905 H 0.61348 0.47528 0.94167 0.0
H1906 H 0.61211 0.49827 0.91719 0.0
C1907 C 0.62215 0.58998 0.85134 0.0
C1908 C 0.6344 0.55088 0.88224 0.0
H1909 H 0.63476 0.50687 0.88825 0.0
C1910 C 0.63403 0.55559 0.90193 0.0
C1911 C 0.63423 0.53306 0.87727 0.0
C1912 C 0.63356 0.5271 0.8564 0.0
C1913 C 0.63396 0.54302 0.91676 0.0
C1914 C 0.63459 0.52521 0.9118 0.0
C1915 C 0.63449 0.5205 0.8921 0.0
C1916 C 0.63541 0.51127 0.92682 0.0
C1917 C 0.63299 0.54897 0.9376 0.0
C1918 C 0.64909 0.51073 0.94028 0.0
C1919 C 0.64984 0.49768 0.9544 0.0
C1920 C 0.637 0.48471 0.95534 0.0
C1921 C 0.62345 0.48515 0.94163 0.0
C1922 C 0.62271 0.49824 0.92751 0.0
H1923 H 0.62753 0.56226 0.93875 0.0
H1924 H 0.62491 0.54005 0.94645 0.0
H1925 H 0.64624 0.5492 0.94386 0.0
H1926 H 0.65926 0.52039 0.93983 0.0
H1927 H 0.66038 0.49792 0.96478 0.0
H1928 H 0.65446 0.36156 0.09983 0.0
H1929 H 0.67643 0.36125 0.12552 0.0
H1930 H 0.6912 0.41346 0.11057 0.0
H1931 H 0.6695 0.41383 0.08477 0.0
H1932 H 0.71929 0.3919 0.11363 0.0
H1933 H 0.67718 0.38479 0.17846 0.0
H1934 H 0.67377 0.36859 0.16014 0.0
H1935 H 0.66879 0.39087 0.15495 0.0
C1936 C 0.66217 0.3731 0.1022 0.0
C1937 C 0.6601 0.38774 0.0902 0.0
C1938 C 0.67474 0.37291 0.11696 0.0
C1939 C 0.68542 0.38739 0.12015 0.0
C1940 C 0.68314 0.40213 0.10844 0.0
H1941 H 0.75284 0.40881 0.2183 0.0
H1942 H 0.73001 0.40818 0.19373 0.0
C1943 C 0.67062 0.40233 0.0937 0.0
C1944 C 0.69952 0.38702 0.13501 0.0
H1945 H 0.70748 0.38226 0.1836 0.0
C1946 C 0.7167 0.3898 0.12893 0.0
C1947 C 0.69617 0.38444 0.15502 0.0
C1948 C 0.67797 0.38216 0.16262 0.0
C1949 C 0.73056 0.39001 0.14223 0.0
C1950 C 0.72726 0.38706 0.16221 0.0
C1951 C 0.71007 0.38437 0.1683 0.0
C1952 C 0.74136 0.3873 0.17708 0.0
C1953 C 0.74856 0.39383 0.13481 0.0
C1954 C 0.75536 0.37568 0.1761 0.0
C1955 C 0.7686 0.37612 0.19008 0.0
C1956 C 0.76811 0.38815 0.20546 0.0
C1957 C 0.75391 0.3996 0.20651 0.0
C1958 C 0.74071 0.39915 0.19254 0.0
H1959 H 0.74825 0.40018 0.12032 0.0
H1960 H 0.75573 0.40233 0.14504 0.0
H1961 H 0.75583 0.3815 0.13334 0.0
H1962 H 0.75603 0.36618 0.16455 0.0
H1963 H 0.77932 0.36714 0.18868 0.0
H1964 H 0.84231 0.52549 0.44212 0.0
H1965 H 0.84264 0.5026 0.41751 0.0
H1966 H 0.89124 0.4838 0.44016 0.0
H1967 H 0.89098 0.5066 0.46482 0.0
H1968 H 0.86595 0.49493 0.38856 0.0
H1969 H 0.862 0.4401 0.44052 0.0
H1970 H 0.8581 0.46225 0.44769 0.0
H1971 H 0.87992 0.45441 0.4449 0.0
C1972 C 0.85315 0.51658 0.44178 0.0
C1973 C 0.86656 0.51784 0.45558 0.0
C1974 C 0.85328 0.50343 0.42774 0.0
C1975 C 0.86678 0.49122 0.4272 0.0
C1976 C 0.88043 0.49274 0.4406 0.0
H1977 H 0.8905 0.40393 0.35089 0.0
H1978 H 0.89069 0.42604 0.37643 0.0
C1979 C 0.88028 0.50583 0.45468 0.0
C1980 C 0.86663 0.47701 0.41252 0.0
H1981 H 0.867 0.43288 0.40749 0.0
C1982 C 0.86611 0.48137 0.39272 0.0
C1983 C 0.86686 0.45927 0.4179 0.0
C1984 C 0.86659 0.45367 0.4389 0.0
C1985 C 0.86605 0.46855 0.37819 0.0
C1986 C 0.86625 0.45084 0.38359 0.0
C1987 C 0.86686 0.44645 0.40337 0.0
C1988 C 0.86565 0.43671 0.36889 0.0
C1989 C 0.8661 0.47408 0.35716 0.0
C1990 C 0.85126 0.43496 0.35657 0.0
C1991 C 0.85105 0.42229 0.34203 0.0
C1992 C 0.86524 0.41102 0.33949 0.0
C1993 C 0.87935 0.41235 0.35238 0.0
C1994 C 0.87951 0.42503 0.36698 0.0
H1995 H 0.8703 0.48777 0.35543 0.0
H1996 H 0.87477 0.46568 0.3484 0.0
H1997 H 0.85278 0.47292 0.35121 0.0
H1998 H 0.84025 0.44358 0.35802 0.0
H1999 H 0.83993 0.42166 0.33246 0.0
H2000 H 0.7293 0.41676 0.83704 0.0
H2001 H 0.75266 0.41589 0.86122 0.0
H2002 H 0.75972 0.36134 0.8504 0.0
H2003 H 0.73655 0.36212 0.82611 0.0
H2004 H 0.7552 0.39347 0.89578 0.0
H2005 H 0.80895 0.38328 0.84321 0.0
H2006 H 0.78803 0.39157 0.83597 0.0
H2007 H 0.79071 0.3689 0.84101 0.0
C2008 C 0.73587 0.40459 0.83975 0.0
C2009 C 0.73104 0.38951 0.82959 0.0
C2010 C 0.74917 0.4041 0.85363 0.0
C2011 C 0.75808 0.3886 0.85746 0.0
C2012 C 0.75317 0.37349 0.84753 0.0
H2013 H 0.84415 0.36122 0.9343 0.0
H2014 H 0.8217 0.36154 0.9091 0.0
C2015 C 0.73979 0.37393 0.83377 0.0
C2016 C 0.77242 0.38819 0.87194 0.0
H2017 H 0.81618 0.38228 0.87656 0.0
C2018 C 0.76854 0.39109 0.89159 0.0
C2019 C 0.7898 0.38492 0.86647 0.0
C2020 C 0.79475 0.38211 0.84551 0.0
C2021 C 0.78153 0.39062 0.90593 0.0
C2022 C 0.79899 0.38766 0.90043 0.0
C2023 C 0.80284 0.38462 0.88078 0.0
C2024 C 0.81341 0.38783 0.91486 0.0
C2025 C 0.77637 0.3929 0.92692 0.0
C2026 C 0.81667 0.40268 0.92604 0.0
C2027 C 0.82949 0.40256 0.94042 0.0
C2028 C 0.83949 0.3876 0.9439 0.0
C2029 C 0.83674 0.37297 0.93206 0.0
C2030 C 0.82386 0.37311 0.91767 0.0
H2031 H 0.76239 0.39009 0.92922 0.0
H2032 H 0.78409 0.38432 0.93656 0.0
H2033 H 0.77874 0.40652 0.93133 0.0
H2034 H 0.8091 0.41434 0.92384 0.0
H2035 H 0.83127 0.41411 0.94912 0.0
H2036 H 0.83996 0.58269 0.19836 0.0
H2037 H 0.84013 0.56101 0.17254 0.0
H2038 H 0.89269 0.5749 0.15808 0.0
H2039 H 0.89273 0.59656 0.18408 0.0
H2040 H 0.84584 0.56367 0.13251 0.0
H2041 H 0.89596 0.52245 0.16753 0.0
H2042 H 0.8849 0.53961 0.18031 0.0
H2043 H 0.90217 0.54463 0.16373 0.0
C2044 C 0.85154 0.58128 0.18962 0.0
C2045 C 0.86637 0.59137 0.19345 0.0
C2046 C 0.85161 0.56883 0.17485 0.0
C2047 C 0.86652 0.56605 0.16359 0.0
C2048 C 0.88114 0.57653 0.16684 0.0
H2049 H 0.88994 0.49072 0.0723 0.0
H2050 H 0.89118 0.51403 0.09638 0.0
C2051 C 0.88109 0.58904 0.18162 0.0
C2052 C 0.86672 0.55207 0.14865 0.0
H2053 H 0.88625 0.51378 0.13645 0.0
C2054 C 0.85468 0.55277 0.13337 0.0
C2055 C 0.87824 0.5378 0.14977 0.0
C2056 C 0.89097 0.53591 0.16629 0.0
C2057 C 0.85395 0.53973 0.11911 0.0
C2058 C 0.86535 0.52538 0.12033 0.0
C2059 C 0.87751 0.52476 0.1355 0.0
C2060 C 0.86472 0.5108 0.10611 0.0
C2061 C 0.84114 0.54161 0.10268 0.0
C2062 C 0.84958 0.5009 0.10385 0.0
C2063 C 0.84884 0.48751 0.09015 0.0
C2064 C 0.86329 0.48359 0.07844 0.0
C2065 C 0.87861 0.49323 0.08114 0.0
C2066 C 0.87932 0.50665 0.09484 0.0
H2067 H 0.83689 0.55527 0.10084 0.0
H2068 H 0.84677 0.53702 0.08876 0.0
H2069 H 0.82949 0.53368 0.10588 0.0
H2070 H 0.83829 0.50352 0.11272 0.0
H2071 H 0.83695 0.48016 0.08879 0.0
H2072 H 0.76135 0.6405 0.32121 0.0
H2073 H 0.73844 0.64136 0.34583 0.0
H2074 H 0.74987 0.58853 0.36166 0.0
H2075 H 0.77305 0.58769 0.33745 0.0
H2076 H 0.7088 0.62027 0.34859 0.0
H2077 H 0.75001 0.61345 0.41417 0.0
H2078 H 0.75875 0.61916 0.3907 0.0
H2079 H 0.75358 0.59697 0.3962 0.0
C2080 C 0.75919 0.62915 0.33014 0.0
C2081 C 0.76915 0.61404 0.32735 0.0
C2082 C 0.74599 0.62962 0.34412 0.0
C2083 C 0.74253 0.61508 0.35578 0.0
C2084 C 0.75245 0.60001 0.35308 0.0
H2085 H 0.66984 0.58817 0.44683 0.0
H2086 H 0.69167 0.58861 0.42117 0.0
C2087 C 0.76561 0.5995 0.33906 0.0
C2088 C 0.72825 0.61549 0.37037 0.0
H2089 H 0.71964 0.61054 0.41876 0.0
C2090 C 0.71117 0.61825 0.36395 0.0
C2091 C 0.73132 0.61286 0.39042 0.0
C2092 C 0.74941 0.6106 0.39836 0.0
C2093 C 0.69707 0.61799 0.37695 0.0
C2094 C 0.70014 0.61518 0.39699 0.0
C2095 C 0.71724 0.61261 0.40341 0.0
C2096 C 0.68585 0.61467 0.41158 0.0
C2097 C 0.67898 0.6202 0.36901 0.0
C2098 C 0.6751 0.62912 0.4147 0.0
C2099 C 0.66247 0.62889 0.42936 0.0
C2100 C 0.66041 0.61423 0.44135 0.0
C2101 C 0.67097 0.59967 0.43789 0.0
C2102 C 0.68354 0.59991 0.42324 0.0
H2103 H 0.67844 0.61764 0.35315 0.0
H2104 H 0.66972 0.6114 0.37646 0.0
H2105 H 0.67466 0.63374 0.37149 0.0
H2106 H 0.67681 0.64079 0.40618 0.0
H2107 H 0.65473 0.64041 0.4317 0.0
H2108 H 0.61177 0.40313 0.68106 0.0
H2109 H 0.61192 0.42438 0.65455 0.0
H2110 H 0.65928 0.44631 0.67686 0.0
H2111 H 0.65936 0.42514 0.70319 0.0
H2112 H 0.61115 0.46079 0.65785 0.0
H2113 H 0.67052 0.43942 0.61933 0.0
H2114 H 0.65955 0.42597 0.63693 0.0
H2115 H 0.67367 0.44312 0.64483 0.0
C2116 C 0.62237 0.4123 0.68017 0.0
C2117 C 0.63562 0.41228 0.69424 0.0
C2118 C 0.62239 0.4245 0.66504 0.0
C2119 C 0.63573 0.43683 0.66354 0.0
C2120 C 0.64903 0.43674 0.67745 0.0
H2121 H 0.66095 0.52493 0.59045 0.0
H2122 H 0.65966 0.50213 0.61511 0.0
C2123 C 0.64901 0.42461 0.69258 0.0
C2124 C 0.63543 0.45028 0.64797 0.0
H2125 H 0.65902 0.46688 0.61026 0.0
C2126 C 0.62153 0.46203 0.64732 0.0
C2127 C 0.64902 0.45197 0.63428 0.0
C2128 C 0.66396 0.43936 0.6337 0.0
C2129 C 0.62109 0.4757 0.63375 0.0
C2130 C 0.63477 0.47747 0.62015 0.0
C2131 C 0.64857 0.46559 0.62068 0.0
C2132 C 0.63515 0.49164 0.60537 0.0
C2133 C 0.60627 0.48843 0.63453 0.0
C2134 C 0.62184 0.49337 0.59156 0.0
C2135 C 0.62255 0.50642 0.5774 0.0
C2136 C 0.63667 0.51797 0.57659 0.0
C2137 C 0.64997 0.51619 0.59047 0.0
C2138 C 0.64922 0.50318 0.60465 0.0
H2139 H 0.59956 0.4881 0.64881 0.0
H2140 H 0.61085 0.50185 0.63178 0.0
H2141 H 0.59664 0.48505 0.62317 0.0
H2142 H 0.61105 0.4844 0.59148 0.0
H2143 H 0.61223 0.50717 0.56676 0.0
H2144 H 0.1516 0.35799 0.4311 0.0
H2145 H 0.17324 0.3582 0.40503 0.0
H2146 H 0.19394 0.40628 0.42686 0.0
H2147 H 0.17233 0.40634 0.4527 0.0
H2148 H 0.19061 0.40612 0.38672 0.0
H2149 H 0.22497 0.34726 0.41259 0.0
H2150 H 0.20213 0.34441 0.40861 0.0
H2151 H 0.20949 0.35882 0.42737 0.0
C2152 C 0.16061 0.36873 0.43024 0.0
C2153 C 0.16014 0.38215 0.44408 0.0
C2154 C 0.17311 0.36873 0.41542 0.0
C2155 C 0.18543 0.38211 0.41416 0.0
C2156 C 0.18464 0.39577 0.42756 0.0
H2157 H 0.28334 0.38212 0.35063 0.0
H2158 H 0.26057 0.38208 0.37541 0.0
C2159 C 0.1722 0.39578 0.44236 0.0
C2160 C 0.19922 0.38196 0.39898 0.0
H2161 H 0.23426 0.35906 0.38256 0.0
C2162 C 0.20013 0.39581 0.38578 0.0
C2163 C 0.21189 0.3687 0.398 0.0
C2164 C 0.21225 0.35402 0.41249 0.0
C2165 C 0.21315 0.39666 0.3715 0.0
C2166 C 0.22548 0.3831 0.37008 0.0
C2167 C 0.22473 0.36936 0.38347 0.0
C2168 C 0.23932 0.38302 0.35492 0.0
C2169 C 0.21381 0.41231 0.35836 0.0
C2170 C 0.23503 0.38335 0.3351 0.0
C2171 C 0.24802 0.38354 0.3209 0.0
C2172 C 0.26569 0.38324 0.32612 0.0
C2173 C 0.26993 0.38263 0.34601 0.0
C2174 C 0.25691 0.38247 0.36022 0.0
H2175 H 0.20682 0.42353 0.36477 0.0
H2176 H 0.2274 0.41623 0.35537 0.0
H2177 H 0.20749 0.40912 0.34434 0.0
H2178 H 0.22159 0.38344 0.33058 0.0
H2179 H 0.24418 0.3842 0.30579 0.0
H2180 H 0.38901 0.40184 0.18184 0.0
H2181 H 0.3895 0.42383 0.15615 0.0
H2182 H 0.33908 0.4418 0.17405 0.0
H2183 H 0.33848 0.42003 0.19979 0.0
H2184 H 0.36659 0.43052 0.1249 0.0
H2185 H 0.3687 0.486 0.17612 0.0
H2186 H 0.37293 0.46399 0.18366 0.0
H2187 H 0.35102 0.47129 0.18014 0.0
C2188 C 0.37793 0.41034 0.18022 0.0
C2189 C 0.36374 0.40916 0.19302 0.0
C2190 C 0.37826 0.42296 0.16553 0.0
C2191 C 0.36449 0.43473 0.16342 0.0
C2192 C 0.35004 0.43314 0.17566 0.0
H2193 H 0.34221 0.52237 0.08753 0.0
H2194 H 0.34199 0.49989 0.11266 0.0
C2195 C 0.34967 0.42054 0.1903 0.0
C2196 C 0.36525 0.44873 0.1485 0.0
H2197 H 0.36475 0.49278 0.14278 0.0
C2198 C 0.36628 0.44413 0.1288 0.0
C2199 C 0.36482 0.46651 0.15359 0.0
C2200 C 0.36447 0.47231 0.17452 0.0
C2201 C 0.3665 0.45679 0.11407 0.0
C2202 C 0.36605 0.47458 0.11915 0.0
C2203 C 0.36507 0.47917 0.13886 0.0
C2204 C 0.36654 0.48861 0.10422 0.0
C2205 C 0.36676 0.45096 0.09316 0.0
C2206 C 0.3806 0.49008 0.09137 0.0
C2207 C 0.38078 0.50296 0.07701 0.0
C2208 C 0.36696 0.51479 0.07524 0.0
C2209 C 0.35313 0.5136 0.08852 0.0
C2210 C 0.35295 0.50068 0.10286 0.0
H2211 H 0.36234 0.43732 0.09162 0.0
H2212 H 0.35839 0.45935 0.084 0.0
H2213 H 0.38021 0.45176 0.08753 0.0
H2214 H 0.39147 0.48126 0.09244 0.0
H2215 H 0.39182 0.50368 0.06733 0.0
H2216 H 0.2285 0.58953 0.83402 0.0
H2217 H 0.25063 0.58888 0.85955 0.0
H2218 H 0.26902 0.63904 0.84122 0.0
H2219 H 0.2467 0.63999 0.81601 0.0
H2220 H 0.28685 0.59056 0.85496 0.0
H2221 H 0.26298 0.64522 0.89992 0.0
H2222 H 0.24975 0.63486 0.88168 0.0
H2223 H 0.26588 0.65048 0.87471 0.0
C2224 C 0.23706 0.60056 0.83562 0.0
C2225 C 0.23576 0.61484 0.82295 0.0
C2226 C 0.24979 0.60011 0.85014 0.0
C2227 C 0.26139 0.61399 0.85246 0.0
C2228 C 0.26007 0.62829 0.83993 0.0
H2229 H 0.3479 0.63629 0.92982 0.0
H2230 H 0.32652 0.6363 0.90357 0.0
C2231 C 0.24739 0.62873 0.82538 0.0
C2232 C 0.27522 0.61328 0.86754 0.0
H2233 H 0.29084 0.63415 0.90769 0.0
C2234 C 0.28768 0.60003 0.86655 0.0
C2235 C 0.27634 0.62568 0.88264 0.0
C2236 C 0.26295 0.63978 0.88498 0.0
C2237 C 0.3014 0.59904 0.87999 0.0
C2238 C 0.30253 0.61146 0.89507 0.0
C2239 C 0.29004 0.62468 0.89608 0.0
C2240 C 0.31637 0.61084 0.91017 0.0
C2241 C 0.31477 0.58493 0.87764 0.0
C2242 C 0.3179 0.59647 0.92259 0.0
C2243 C 0.33018 0.59639 0.93759 0.0
C2244 C 0.34113 0.61073 0.94061 0.0
C2245 C 0.33978 0.62497 0.9279 0.0
C2246 C 0.32749 0.62504 0.91291 0.0
H2247 H 0.31485 0.57963 0.86264 0.0
H2248 H 0.32796 0.58978 0.88114 0.0
H2249 H 0.31171 0.57414 0.88774 0.0
H2250 H 0.30926 0.5855 0.92106 0.0
H2251 H 0.3307 0.58525 0.94715 0.0
H2252 H 0.11389 0.59835 0.67783 0.0
H2253 H 0.11366 0.57637 0.65209 0.0
H2254 H 0.16429 0.559 0.66998 0.0
H2255 H 0.16471 0.5808 0.69564 0.0
H2256 H 0.13848 0.56939 0.62058 0.0
H2257 H 0.13298 0.51502 0.6731 0.0
H2258 H 0.12824 0.53719 0.67961 0.0
H2259 H 0.15032 0.52997 0.67786 0.0
C2260 C 0.12508 0.59001 0.67616 0.0
C2261 C 0.13929 0.59136 0.68893 0.0
C2262 C 0.12491 0.57742 0.66144 0.0
C2263 C 0.13883 0.56584 0.65932 0.0
C2264 C 0.15328 0.56759 0.67155 0.0
H2265 H 0.16403 0.47552 0.5904 0.0
H2266 H 0.16266 0.49941 0.61363 0.0
C2267 C 0.15352 0.58019 0.68616 0.0
C2268 C 0.1382 0.55165 0.64468 0.0
H2269 H 0.13819 0.50752 0.64025 0.0
C2270 C 0.13829 0.55585 0.62484 0.0
C2271 C 0.13797 0.53399 0.65027 0.0
C2272 C 0.13722 0.52869 0.67135 0.0
C2273 C 0.13872 0.54288 0.61044 0.0
C2274 C 0.13864 0.52519 0.61603 0.0
C2275 C 0.13829 0.52104 0.63591 0.0
C2276 C 0.13935 0.51075 0.60159 0.0
C2277 C 0.13987 0.54828 0.58942 0.0
C2278 C 0.12661 0.50896 0.58713 0.0
C2279 C 0.12737 0.49526 0.57376 0.0
C2280 C 0.14078 0.4829 0.5747 0.0
C2281 C 0.1534 0.48464 0.58934 0.0
C2282 C 0.15268 0.49837 0.60261 0.0
H2283 H 0.14455 0.56183 0.58788 0.0
H2284 H 0.14869 0.53961 0.58118 0.0
H2285 H 0.1268 0.54752 0.58275 0.0
H2286 H 0.11593 0.51803 0.5863 0.0
H2287 H 0.11729 0.49419 0.56288 0.0
H2288 H 0.17501 0.59418 0.07663 0.0
H2289 H 0.19685 0.59476 0.1022 0.0
H2290 H 0.17515 0.64231 0.12431 0.0
H2291 H 0.15298 0.64173 0.09881 0.0
H2292 H 0.2217 0.61917 0.10857 0.0
H2293 H 0.17944 0.61358 0.17352 0.0
H2294 H 0.17169 0.60923 0.14927 0.0
H2295 H 0.17397 0.63119 0.1576 0.0
C2296 C 0.17465 0.60466 0.08707 0.0
C2297 C 0.16206 0.61784 0.0857 0.0
C2298 C 0.18725 0.605 0.10167 0.0
C2299 C 0.18759 0.61846 0.11537 0.0
C2300 C 0.17497 0.63158 0.11419 0.0
H2301 H 0.2589 0.64021 0.21136 0.0
H2302 H 0.23644 0.64207 0.18628 0.0
C2303 C 0.16229 0.63124 0.09955 0.0
C2304 C 0.20162 0.61897 0.13029 0.0
H2305 H 0.20926 0.61874 0.17924 0.0
C2306 C 0.21896 0.61905 0.12403 0.0
C2307 C 0.1981 0.61888 0.15048 0.0
C2308 C 0.17981 0.61806 0.15818 0.0
C2309 C 0.23282 0.6191 0.13732 0.0
C2310 C 0.2293 0.61882 0.1575 0.0
C2311 C 0.21197 0.61898 0.16379 0.0
C2312 C 0.24339 0.61795 0.17231 0.0
C2313 C 0.25112 0.61969 0.12962 0.0
C2314 C 0.25477 0.60374 0.17291 0.0
C2315 C 0.26767 0.60267 0.18719 0.0
C2316 C 0.26948 0.61576 0.20129 0.0
C2317 C 0.25808 0.63002 0.2006 0.0
C2318 C 0.24514 0.63104 0.18634 0.0
H2319 H 0.25156 0.62456 0.11443 0.0
H2320 H 0.25946 0.62806 0.13881 0.0
H2321 H 0.25663 0.60641 0.12973 0.0
H2322 H 0.25352 0.59332 0.16247 0.0
H2323 H 0.27625 0.59156 0.18717 0.0
H2324 H 0.10961 0.40472 0.85119 0.0
H2325 H 0.11033 0.42691 0.87669 0.0
H2326 H 0.1596 0.44502 0.85529 0.0
H2327 H 0.15897 0.42314 0.82979 0.0
H2328 H 0.13445 0.43418 0.9064 0.0
H2329 H 0.13026 0.48901 0.85449 0.0
H2330 H 0.12599 0.4669 0.84741 0.0
H2331 H 0.14794 0.47446 0.84986 0.0
C2332 C 0.1207 0.41328 0.85202 0.0
C2333 C 0.13419 0.4121 0.8383 0.0
C2334 C 0.12106 0.42602 0.86659 0.0
C2335 C 0.13484 0.43791 0.86768 0.0
C2336 C 0.14862 0.4363 0.8545 0.0
H2337 H 0.16061 0.52698 0.94048 0.0
H2338 H 0.15989 0.50403 0.91584 0.0
C2339 C 0.14828 0.42363 0.83997 0.0
C2340 C 0.13482 0.45208 0.88244 0.0
H2341 H 0.13609 0.4962 0.88738 0.0
C2342 C 0.1347 0.44774 0.90224 0.0
C2343 C 0.13522 0.46981 0.87705 0.0
C2344 C 0.13469 0.47538 0.85606 0.0
C2345 C 0.13535 0.46059 0.91676 0.0
C2346 C 0.13576 0.47833 0.91137 0.0
C2347 C 0.13583 0.48265 0.89156 0.0
C2348 C 0.13596 0.49258 0.92606 0.0
C2349 C 0.13608 0.45498 0.93775 0.0
C2350 C 0.12253 0.49413 0.93972 0.0
C2351 C 0.12291 0.50723 0.95378 0.0
C2352 C 0.13665 0.51924 0.95447 0.0
C2353 C 0.1498 0.51803 0.94036 0.0
C2354 C 0.14944 0.50484 0.92631 0.0
H2355 H 0.14066 0.44139 0.93923 0.0
H2356 H 0.14478 0.46353 0.94631 0.0
H2357 H 0.12289 0.45575 0.9441 0.0
H2358 H 0.1117 0.48521 0.9395 0.0
H2359 H 0.11235 0.50799 0.9641 0.0
H2360 H 0.32878 0.41463 0.58254 0.0
H2361 H 0.30739 0.41472 0.60868 0.0
H2362 H 0.32612 0.36514 0.62848 0.0
H2363 H 0.34767 0.3649 0.60233 0.0
H2364 H 0.28117 0.38887 0.61388 0.0
H2365 H 0.32364 0.39471 0.67878 0.0
H2366 H 0.33094 0.40025 0.65463 0.0
H2367 H 0.32928 0.37794 0.66179 0.0
C2368 C 0.3286 0.40383 0.5926 0.0
C2369 C 0.34004 0.38976 0.59029 0.0
C2370 C 0.31628 0.4039 0.60752 0.0
C2371 C 0.3152 0.39001 0.62064 0.0
C2372 C 0.32686 0.37613 0.61871 0.0
H2373 H 0.2447 0.36922 0.71768 0.0
H2374 H 0.26793 0.3679 0.69344 0.0
C2375 C 0.33916 0.37599 0.6037 0.0
C2376 C 0.30123 0.3897 0.63557 0.0
H2377 H 0.29373 0.3905 0.6845 0.0
C2378 C 0.28391 0.38925 0.62933 0.0
C2379 C 0.30481 0.39003 0.65572 0.0
C2380 C 0.32315 0.39089 0.66324 0.0
C2381 C 0.27008 0.38905 0.64264 0.0
C2382 C 0.27361 0.38978 0.66282 0.0
C2383 C 0.29097 0.39 0.66907 0.0
C2384 C 0.2595 0.39063 0.67763 0.0
C2385 C 0.25183 0.38769 0.6349 0.0
C2386 C 0.24713 0.40399 0.67707 0.0
C2387 C 0.2338 0.40474 0.69085 0.0
C2388 C 0.23263 0.39227 0.70572 0.0
C2389 C 0.24524 0.37909 0.7065 0.0
C2390 C 0.25852 0.37829 0.69261 0.0
H2391 H 0.25158 0.38189 0.62013 0.0
H2392 H 0.24354 0.37974 0.64461 0.0
H2393 H 0.24612 0.40086 0.63386 0.0
H2394 H 0.24785 0.41398 0.66604 0.0
H2395 H 0.22457 0.41529 0.69004 0.0
H2396 H 0.34096 0.47886 0.44488 0.0
H2397 H 0.341 0.50094 0.41929 0.0
H2398 H 0.39175 0.51774 0.43749 0.0
H2399 H 0.39201 0.49545 0.46275 0.0
H2400 H 0.34374 0.53701 0.42368 0.0
H2401 H 0.39781 0.51159 0.37887 0.0
H2402 H 0.38711 0.4987 0.39717 0.0
H2403 H 0.40313 0.51446 0.40405 0.0
C2404 C 0.35226 0.48705 0.44325 0.0
C2405 C 0.3665 0.4853 0.4559 0.0
C2406 C 0.35221 0.49976 0.42868 0.0
C2407 C 0.36646 0.5109 0.4263 0.0
C2408 C 0.38072 0.50914 0.43881 0.0
H2409 H 0.3904 0.59659 0.34783 0.0
H2410 H 0.39025 0.57545 0.37439 0.0
C2411 C 0.38077 0.49648 0.4534 0.0
C2412 C 0.36616 0.52474 0.41117 0.0
H2413 H 0.38742 0.53966 0.37091 0.0
C2414 C 0.35324 0.53754 0.41209 0.0
C2415 C 0.3786 0.5255 0.39607 0.0
C2416 C 0.39237 0.51176 0.3938 0.0
C2417 C 0.35258 0.55121 0.39855 0.0
C2418 C 0.36501 0.55196 0.38344 0.0
C2419 C 0.37794 0.53916 0.38254 0.0
C2420 C 0.36458 0.56562 0.36811 0.0
C2421 C 0.33879 0.56492 0.40081 0.0
C2422 C 0.35019 0.56725 0.35577 0.0
C2423 C 0.3502 0.57935 0.34061 0.0
C2424 C 0.36468 0.59008 0.33733 0.0
C2425 C 0.37898 0.58864 0.34995 0.0
C2426 C 0.37895 0.5765 0.36511 0.0
H2427 H 0.33357 0.56528 0.41584 0.0
H2428 H 0.34391 0.57796 0.39709 0.0
H2429 H 0.32787 0.56199 0.39084 0.0
H2430 H 0.33909 0.5588 0.3575 0.0
H2431 H 0.33901 0.57996 0.33114 0.0
H2432 H 0.14155 0.26267 0.43257 0.0
H2433 H 0.14408 0.23999 0.40788 0.0
H2434 H 0.09805 0.25916 0.3796 0.0
H2435 H 0.0956 0.28211 0.40403 0.0
H2436 H 0.11886 0.21404 0.39883 0.0
H2437 H 0.13379 0.25554 0.3349 0.0
H2438 H 0.13606 0.26317 0.35957 0.0
H2439 H 0.11495 0.26148 0.34876 0.0
C2440 C 0.13208 0.26223 0.42095 0.0
C2441 C 0.1184 0.27429 0.42028 0.0
C2442 C 0.13349 0.24918 0.40691 0.0
C2443 C 0.12137 0.24797 0.39176 0.0
C2444 C 0.10771 0.25997 0.39099 0.0
H2445 H 0.11763 0.17239 0.29521 0.0
H2446 H 0.11028 0.19647 0.31724 0.0
C2447 C 0.10623 0.27299 0.40509 0.0
C2448 C 0.1228 0.23378 0.37718 0.0
H2449 H 0.1308 0.22552 0.32919 0.0
C2450 C 0.12142 0.21656 0.3836 0.0
C2451 C 0.12595 0.23706 0.35726 0.0
C2452 C 0.12791 0.25529 0.34963 0.0
C2453 C 0.1233 0.20256 0.37072 0.0
C2454 C 0.12705 0.20581 0.35091 0.0
C2455 C 0.12793 0.22303 0.34436 0.0
C2456 C 0.13137 0.1915 0.33723 0.0
C2457 C 0.12124 0.18437 0.37845 0.0
C2458 C 0.14582 0.18096 0.34091 0.0
C2459 C 0.14999 0.16732 0.32844 0.0
C2460 C 0.13989 0.16391 0.31188 0.0
C2461 C 0.1256 0.17466 0.30791 0.0
C2462 C 0.12141 0.18841 0.32046 0.0
H2463 H 0.11338 0.18415 0.39196 0.0
H2464 H 0.11501 0.1758 0.36754 0.0
H2465 H 0.13422 0.17899 0.38192 0.0
H2466 H 0.15392 0.1833 0.35349 0.0
H2467 H 0.16115 0.15937 0.33189 0.0
H2468 H 0.07783 0.86875 0.54704 0.0
H2469 H 0.05142 0.86336 0.56634 0.0
H2470 H 0.06369 0.90715 0.60267 0.0
H2471 H 0.08977 0.91255 0.5837 0.0
H2472 H 0.04795 0.85751 0.6081 0.0
H2473 H 0.01361 0.91697 0.58458 0.0
H2474 H 0.03189 0.90818 0.57148 0.0
H2475 H 0.03528 0.92096 0.59298 0.0
C2476 C 0.07484 0.8772 0.55913 0.0
C2477 C 0.08585 0.89115 0.56373 0.0
C2478 C 0.05977 0.87412 0.57015 0.0
C2479 C 0.0554 0.88505 0.58577 0.0
C2480 C 0.06656 0.89876 0.59048 0.0
H2481 H 0.98213 0.90014 0.67775 0.0
H2482 H 0.00517 0.90105 0.65341 0.0
C2483 C 0.08154 0.90178 0.57962 0.0
C2484 C 0.03938 0.8823 0.59751 0.0
H2485 H 0.00283 0.90311 0.61319 0.0
C2486 C 0.03792 0.86732 0.609 0.0
C2487 C 0.0263 0.89513 0.59873 0.0
C2488 C 0.02671 0.91115 0.58615 0.0
C2489 C 0.0242 0.86525 0.62234 0.0
C2490 C 0.01143 0.87838 0.62401 0.0
C2491 C 0.01262 0.89307 0.61203 0.0
C2492 C 0.99721 0.87759 0.63871 0.0
C2493 C 0.02394 0.84939 0.63517 0.0
C2494 C 0.98483 0.86424 0.63847 0.0
C2495 C 0.97162 0.86364 0.65248 0.0
C2496 C 0.97046 0.87641 0.66706 0.0
C2497 C 0.98273 0.88992 0.667 0.0
C2498 C 0.99588 0.89053 0.65299 0.0
H2499 H 0.0366 0.84253 0.63516 0.0
H2500 H 0.02061 0.85292 0.65035 0.0
H2501 H 0.01392 0.84026 0.62979 0.0
H2502 H 0.98534 0.85428 0.62742 0.0
H2503 H 0.96251 0.85298 0.6521 0.0
H2504 H 0.38218 0.82712 0.79658 0.0
H2505 H 0.38797 0.80152 0.81696 0.0
H2506 H 0.34543 0.81564 0.85436 0.0
H2507 H 0.33979 0.84112 0.83438 0.0
H2508 H 0.37479 0.80707 0.87489 0.0
H2509 H 0.35972 0.75649 0.81999 0.0
H2510 H 0.37576 0.77214 0.81288 0.0
H2511 H 0.35376 0.77893 0.81675 0.0
C2512 C 0.37407 0.82469 0.80912 0.0
C2513 C 0.36049 0.83612 0.81382 0.0
C2514 C 0.37731 0.81001 0.8207 0.0
C2515 C 0.36699 0.8065 0.8371 0.0
C2516 C 0.35355 0.818 0.84179 0.0
H2517 H 0.35124 0.71386 0.90617 0.0
H2518 H 0.34946 0.73826 0.88349 0.0
C2519 C 0.35032 0.83258 0.8303 0.0
C2520 C 0.37019 0.79112 0.84978 0.0
H2521 H 0.36933 0.74678 0.85071 0.0
C2522 C 0.3737 0.79388 0.86956 0.0
C2523 C 0.36854 0.7739 0.84292 0.0
C2524 C 0.3641 0.77008 0.82202 0.0
C2525 C 0.37549 0.77999 0.88265 0.0
C2526 C 0.37402 0.76276 0.87578 0.0
C2527 C 0.37058 0.75996 0.85597 0.0
C2528 C 0.37545 0.74753 0.88906 0.0
C2529 C 0.37839 0.78393 0.90388 0.0
C2530 C 0.39074 0.7444 0.89957 0.0
C2531 C 0.39176 0.73053 0.91267 0.0
C2532 C 0.37754 0.71935 0.91553 0.0
C2533 C 0.36236 0.72231 0.90462 0.0
C2534 C 0.36136 0.73619 0.89151 0.0
H2535 H 0.37495 0.79753 0.90749 0.0
H2536 H 0.37064 0.77512 0.91323 0.0
H2537 H 0.39229 0.782 0.90742 0.0
H2538 H 0.40188 0.75277 0.89774 0.0
H2539 H 0.4036 0.72882 0.92089 0.0
H2540 H 0.41153 0.09066 0.08236 0.0
H2541 H 0.43714 0.09625 0.10215 0.0
H2542 H 0.45071 0.13923 0.0651 0.0
H2543 H 0.4248 0.13373 0.04515 0.0
H2544 H 0.47176 0.09589 0.09091 0.0
H2545 H 0.45307 0.16055 0.11976 0.0
H2546 H 0.43769 0.14628 0.10818 0.0
H2547 H 0.45284 0.15838 0.09377 0.0
C2548 C 0.41991 0.10136 0.07839 0.0
C2549 C 0.41609 0.11178 0.06218 0.0
C2550 C 0.43458 0.10452 0.08975 0.0
C2551 C 0.44581 0.11826 0.08529 0.0
C2552 C 0.4421 0.12873 0.06905 0.0
H2553 H 0.53909 0.1517 0.14844 0.0
H2554 H 0.51575 0.14883 0.12454 0.0
C2555 C 0.42735 0.12553 0.05759 0.0
C2556 C 0.4615 0.12114 0.09756 0.0
H2557 H 0.48023 0.14948 0.12948 0.0
C2558 C 0.47364 0.10765 0.09928 0.0
C2559 C 0.46402 0.1365 0.10844 0.0
C2560 C 0.45119 0.15124 0.10764 0.0
C2561 C 0.48809 0.109 0.11164 0.0
C2562 C 0.49036 0.12415 0.12297 0.0
C2563 C 0.47848 0.13784 0.12088 0.0
C2564 C 0.50469 0.12579 0.13745 0.0
C2565 C 0.50088 0.09422 0.11231 0.0
C2566 C 0.5062 0.11392 0.15285 0.0
C2567 C 0.51951 0.11554 0.16657 0.0
C2568 C 0.5316 0.12917 0.16536 0.0
C2569 C 0.52997 0.14112 0.14998 0.0
C2570 C 0.51665 0.13947 0.13623 0.0
H2571 H 0.50027 0.08622 0.09891 0.0
H2572 H 0.51435 0.09902 0.11414 0.0
H2573 H 0.49774 0.08569 0.1248 0.0
H2574 H 0.49689 0.10351 0.15444 0.0
H2575 H 0.52009 0.1063 0.17841 0.0
H2576 H 0.1633 0.84149 0.19588 0.0
H2577 H 0.15708 0.81655 0.1753 0.0
H2578 H 0.11291 0.80391 0.21094 0.0
H2579 H 0.1191 0.82912 0.23177 0.0
H2580 H 0.15542 0.78131 0.18586 0.0
H2581 H 0.09283 0.80445 0.1552 0.0
H2582 H 0.10776 0.81877 0.16745 0.0
H2583 H 0.0945 0.80415 0.18125 0.0
C2584 C 0.15223 0.83344 0.1994 0.0
C2585 C 0.14166 0.83734 0.21546 0.0
C2586 C 0.1487 0.81915 0.18758 0.0
C2587 C 0.13444 0.80841 0.19139 0.0
C2588 C 0.12385 0.81216 0.20751 0.0
H2589 H 0.09734 0.71925 0.12372 0.0
H2590 H 0.1008 0.74193 0.14826 0.0
C2591 C 0.12743 0.8265 0.21946 0.0
C2592 C 0.13107 0.79323 0.17851 0.0
H2593 H 0.10281 0.77713 0.14474 0.0
C2594 C 0.14387 0.78036 0.17694 0.0
C2595 C 0.11598 0.79193 0.1669 0.0
C2596 C 0.10199 0.80558 0.16759 0.0
C2597 C 0.14208 0.76633 0.16404 0.0
C2598 C 0.12725 0.76529 0.15197 0.0
C2599 C 0.11422 0.77793 0.15389 0.0
C2600 C 0.12519 0.75142 0.13699 0.0
C2601 C 0.15606 0.75266 0.16366 0.0
C2602 C 0.13761 0.74925 0.12225 0.0
C2603 C 0.13568 0.73627 0.10817 0.0
C2604 C 0.12115 0.72523 0.10833 0.0
C2605 C 0.10862 0.72758 0.12299 0.0
C2606 C 0.1106 0.74052 0.13711 0.0
H2607 H 0.1635 0.75238 0.17747 0.0
H2608 H 0.15052 0.73958 0.16107 0.0
H2609 H 0.1653 0.75561 0.15175 0.0
H2610 H 0.14876 0.75776 0.12147 0.0
H2611 H 0.14542 0.73511 0.09693 0.0
H2612 H 0.53792 0.90072 0.37728 0.0
H2613 H 0.51435 0.90408 0.40084 0.0
H2614 H 0.49101 0.85683 0.38016 0.0
H2615 H 0.51435 0.85343 0.35652 0.0
H2616 H 0.47878 0.90711 0.39497 0.0
H2617 H 0.49307 0.84838 0.43852 0.0
H2618 H 0.50828 0.85725 0.42125 0.0
H2619 H 0.49044 0.84413 0.41306 0.0
C2620 C 0.52775 0.89106 0.37766 0.0
C2621 C 0.52821 0.87671 0.36503 0.0
C2622 C 0.5143 0.89297 0.39123 0.0
C2623 C 0.50103 0.88054 0.39258 0.0
C2624 C 0.50131 0.86636 0.37981 0.0
H2625 H 0.40583 0.86829 0.45886 0.0
H2626 H 0.43084 0.86509 0.43722 0.0
C2627 C 0.51472 0.86443 0.36626 0.0
C2628 C 0.48668 0.8826 0.40697 0.0
H2629 H 0.46625 0.86248 0.44491 0.0
C2630 C 0.47613 0.89742 0.40599 0.0
C2631 C 0.48314 0.86993 0.42135 0.0
C2632 C 0.49441 0.8541 0.42379 0.0
C2633 C 0.46194 0.89971 0.4186 0.0
C2634 C 0.45834 0.88699 0.43291 0.0
C2635 C 0.46896 0.87222 0.43397 0.0
C2636 C 0.44349 0.88864 0.44671 0.0
C2637 C 0.4506 0.91549 0.4161 0.0
C2638 C 0.44234 0.90274 0.45957 0.0
C2639 C 0.42811 0.90443 0.47213 0.0
C2640 C 0.41486 0.89193 0.4723 0.0
C2641 C 0.41612 0.87774 0.45961 0.0
C2642 C 0.43033 0.87605 0.44704 0.0
H2643 H 0.4523 0.9215 0.40155 0.0
H2644 H 0.43671 0.91217 0.41806 0.0
H2645 H 0.45416 0.92529 0.42719 0.0
H2646 H 0.45244 0.91248 0.45989 0.0
H2647 H 0.42746 0.91556 0.48169 0.0
H2648 H 0.39722 0.28893 0.63056 0.0
H2649 H 0.39643 0.26497 0.65395 0.0
H2650 H 0.35165 0.24387 0.62497 0.0
H2651 H 0.35222 0.26777 0.60169 0.0
H2652 H 0.37044 0.25351 0.67977 0.0
H2653 H 0.38553 0.20303 0.62517 0.0
H2654 H 0.38843 0.22586 0.62041 0.0
H2655 H 0.36726 0.21621 0.61865 0.0
C2656 C 0.38707 0.27931 0.62927 0.0
C2657 C 0.37487 0.28026 0.61406 0.0
C2658 C 0.3867 0.26555 0.64262 0.0
C2659 C 0.3742 0.2524 0.64101 0.0
C2660 C 0.3617 0.2536 0.62623 0.0
H2661 H 0.34002 0.15997 0.69715 0.0
H2662 H 0.34565 0.18552 0.67733 0.0
C2663 C 0.36205 0.26731 0.61291 0.0
C2664 C 0.37416 0.23736 0.65465 0.0
H2665 H 0.37528 0.19307 0.65588 0.0
C2666 C 0.3717 0.2403 0.67461 0.0
C2667 C 0.37594 0.2201 0.64795 0.0
C2668 C 0.37961 0.21607 0.62691 0.0
C2669 C 0.37011 0.22643 0.68785 0.0
C2670 C 0.37127 0.20917 0.68101 0.0
C2671 C 0.37431 0.20629 0.66115 0.0
C2672 C 0.36803 0.19387 0.69377 0.0
C2673 C 0.36646 0.23035 0.70892 0.0
C2674 C 0.37878 0.18991 0.7097 0.0
C2675 C 0.37555 0.17517 0.7212 0.0
C2676 C 0.36155 0.16415 0.71689 0.0
C2677 C 0.35089 0.16819 0.70094 0.0
C2678 C 0.35411 0.18281 0.68953 0.0
H2679 H 0.36269 0.2441 0.71118 0.0
H2680 H 0.35594 0.22189 0.71451 0.0
H2681 H 0.37828 0.22774 0.71762 0.0
H2682 H 0.38979 0.19807 0.71309 0.0
H2683 H 0.38403 0.17235 0.73333 0.0
H2684 H 0.09247 0.09152 0.94715 0.0
H2685 H 0.06729 0.0976 0.92687 0.0
H2686 H 0.05554 0.1425 0.96173 0.0
H2687 H 0.08104 0.13648 0.98221 0.0
H2688 H 0.03236 0.09961 0.93792 0.0
H2689 H 0.05525 0.16167 0.90572 0.0
H2690 H 0.06967 0.14693 0.91813 0.0
H2691 H 0.0552 0.16044 0.93181 0.0
C2692 C 0.08458 0.10273 0.95055 0.0
C2693 C 0.08879 0.11354 0.9663 0.0
C2694 C 0.07014 0.10617 0.93892 0.0
C2695 C 0.05958 0.12059 0.94261 0.0
C2696 C 0.06365 0.13144 0.9584 0.0
H2697 H 0.96965 0.15663 0.87539 0.0
H2698 H 0.99249 0.15355 0.89984 0.0
C2699 C 0.07816 0.12795 0.97016 0.0
C2700 C 0.04423 0.12384 0.92994 0.0
H2701 H 0.02779 0.15161 0.89585 0.0
C2702 C 0.03132 0.11103 0.9288 0.0
C2703 C 0.04282 0.13875 0.91807 0.0
C2704 C 0.0565 0.15272 0.91829 0.0
C2705 C 0.01717 0.11264 0.91604 0.0
C2706 C 0.01602 0.12729 0.9037 0.0
C2707 C 0.02868 0.14033 0.90522 0.0
C2708 C 0.00205 0.1291 0.88883 0.0
C2709 C 0.00349 0.09866 0.91605 0.0
C2710 C 0.99988 0.11651 0.87428 0.0
C2711 C 0.98683 0.11824 0.86025 0.0
C2712 C 0.97571 0.13271 0.86029 0.0
C2713 C 0.97804 0.1454 0.87477 0.0
C2714 C 0.99108 0.14362 0.88883 0.0
H2715 H 0.00337 0.09139 0.92999 0.0
H2716 H 0.99039 0.10417 0.91353 0.0
H2717 H 0.00633 0.08928 0.90426 0.0
H2718 H 0.00845 0.10541 0.8736 0.0
H2719 H 0.98566 0.10838 0.84914 0.0
H2720 H 0.8417 0.84251 0.69585 0.0
H2721 H 0.84832 0.81717 0.67613 0.0
H2722 H 0.89068 0.80429 0.71438 0.0
H2723 H 0.88391 0.82981 0.73453 0.0
H2724 H 0.87897 0.80947 0.65646 0.0
H2725 H 0.86315 0.75852 0.7109 0.0
H2726 H 0.85641 0.78079 0.7138 0.0
H2727 H 0.87854 0.77476 0.71822 0.0
C2728 C 0.8524 0.83429 0.70018 0.0
C2729 C 0.86223 0.83814 0.71683 0.0
C2730 C 0.85619 0.81979 0.68883 0.0
C2731 C 0.86987 0.80868 0.69384 0.0
C2732 C 0.87986 0.8125 0.7104 0.0
H2733 H 0.89955 0.71305 0.63216 0.0
H2734 H 0.8985 0.73703 0.65548 0.0
C2735 C 0.87606 0.82713 0.72184 0.0
C2736 C 0.87356 0.79338 0.68128 0.0
H2737 H 0.87187 0.74908 0.67988 0.0
C2738 C 0.87754 0.79626 0.66164 0.0
C2739 C 0.87177 0.77613 0.68802 0.0
C2740 C 0.86712 0.77224 0.70884 0.0
C2741 C 0.87945 0.78246 0.6485 0.0
C2742 C 0.87699 0.76523 0.65504 0.0
C2743 C 0.87364 0.76228 0.67483 0.0
C2744 C 0.87722 0.75025 0.64138 0.0
C2745 C 0.88409 0.78648 0.62769 0.0
C2746 C 0.86532 0.74943 0.62596 0.0
C2747 C 0.86583 0.73572 0.61266 0.0
C2748 C 0.87819 0.7224 0.61451 0.0
C2749 C 0.88977 0.72298 0.63033 0.0
C2750 C 0.88925 0.73674 0.64364 0.0
H2751 H 0.89043 0.79935 0.62633 0.0
H2752 H 0.89289 0.77647 0.6216 0.0
H2753 H 0.87209 0.78673 0.61881 0.0
H2754 H 0.85561 0.75945 0.62418 0.0
H2755 H 0.85647 0.73555 0.60094 0.0
H2756 H 0.03921 0.14892 0.3801 0.0
H2757 H 0.01649 0.14641 0.40484 0.0
H2758 H 0.99555 0.10194 0.37512 0.0
H2759 H 0.01842 0.10406 0.35068 0.0
H2760 H 0.9803 0.1478 0.4002 0.0
H2761 H 1.00034 0.08455 0.43095 0.0
H2762 H 0.01438 0.09733 0.41562 0.0
H2763 H 0.99766 0.08408 0.40506 0.0
C2764 C 0.02993 0.13844 0.37898 0.0
C2765 C 0.03074 0.12665 0.36338 0.0
C2766 C 0.01686 0.13711 0.39307 0.0
C2767 C 0.00442 0.12386 0.39202 0.0
C2768 C 0.00516 0.1121 0.37646 0.0
H2769 H 0.91163 0.08924 0.44731 0.0
H2770 H 0.93738 0.09478 0.42775 0.0
C2771 C 0.01817 0.11345 0.36236 0.0
C2772 C 0.99039 0.12247 0.40684 0.0
H2773 H 0.97196 0.09442 0.43926 0.0
C2774 C 0.97858 0.13623 0.40893 0.0
C2775 C 0.98819 0.10741 0.41831 0.0
C2776 C 1.00091 0.09256 0.41755 0.0
C2777 C 0.9642 0.13497 0.42148 0.0
C2778 C 0.9617 0.11966 0.43247 0.0
C2779 C 0.97382 0.10614 0.43081 0.0
C2780 C 0.94599 0.11677 0.44466 0.0
C2781 C 0.95138 0.14973 0.42224 0.0
C2782 C 0.94221 0.12723 0.46086 0.0
C2783 C 0.92738 0.12406 0.47219 0.0
C2784 C 0.91611 0.11035 0.4675 0.0
C2785 C 0.92002 0.09991 0.45135 0.0
C2786 C 0.93477 0.10305 0.44013 0.0
H2787 H 0.95331 0.15907 0.41015 0.0
H2788 H 0.93788 0.14477 0.42164 0.0
H2789 H 0.95299 0.15683 0.43614 0.0
H2790 H 0.95081 0.13773 0.46486 0.0
H2791 H 0.92475 0.13227 0.48459 0.0
H2792 H 0.59965 0.2893 0.13281 0.0
H2793 H 0.60274 0.26593 0.15663 0.0
H2794 H 0.6491 0.24848 0.12767 0.0
H2795 H 0.6461 0.27175 0.1038 0.0
H2796 H 0.60302 0.23057 0.15124 0.0
H2797 H 0.66523 0.25165 0.18364 0.0
H2798 H 0.65241 0.2656 0.16824 0.0
H2799 H 0.66634 0.2494 0.15774 0.0
C2800 C 0.61051 0.28049 0.13148 0.0
C2801 C 0.62267 0.28251 0.11638 0.0
C2802 C 0.61229 0.26716 0.14518 0.0
C2803 C 0.6263 0.25558 0.14418 0.0
C2804 C 0.63842 0.2575 0.12909 0.0
H2805 H 0.6622 0.16226 0.19786 0.0
H2806 H 0.65644 0.18818 0.17862 0.0
C2807 C 0.63668 0.27084 0.11542 0.0
C2808 C 0.62801 0.24117 0.15851 0.0
H2809 H 0.65611 0.22279 0.19093 0.0
C2810 C 0.61454 0.22897 0.16009 0.0
C2811 C 0.64299 0.23911 0.17017 0.0
C2812 C 0.65749 0.25223 0.17004 0.0
C2813 C 0.61598 0.21441 0.17234 0.0
C2814 C 0.63121 0.21209 0.18352 0.0
C2815 C 0.64445 0.22453 0.18233 0.0
C2816 C 0.63424 0.19628 0.1955 0.0
C2817 C 0.60152 0.20125 0.17263 0.0
C2818 C 0.62372 0.19218 0.21156 0.0
C2819 C 0.62702 0.17727 0.2227 0.0
C2820 C 0.64091 0.16624 0.21796 0.0
C2821 C 0.6514 0.17046 0.20193 0.0
C2822 C 0.64814 0.1853 0.1909 0.0
H2823 H 0.59225 0.20319 0.16046 0.0
H2824 H 0.6068 0.18788 0.17179 0.0
H2825 H 0.59424 0.20243 0.18647 0.0
H2826 H 0.61308 0.2006 0.21559 0.0
H2827 H 0.61877 0.1744 0.23502 0.0
H2828 H 0.4824 0.89638 0.85189 0.0
H2829 H 0.50531 0.8983 0.87637 0.0
H2830 H 0.48466 0.85329 0.90536 0.0
H2831 H 0.46191 0.85101 0.88065 0.0
H2832 H 0.50216 0.9022 0.91696 0.0
H2833 H 0.5362 0.84091 0.89823 0.0
H2834 H 0.52059 0.85091 0.8822 0.0
H2835 H 0.51339 0.83901 0.90311 0.0
C2836 C 0.4828 0.88677 0.86336 0.0
C2837 C 0.47032 0.87347 0.86418 0.0
C2838 C 0.49586 0.88795 0.87742 0.0
C2839 C 0.49689 0.8758 0.89258 0.0
C2840 C 0.48434 0.86265 0.89364 0.0
H2841 H 0.57676 0.86903 0.9849 0.0
H2842 H 0.55052 0.86339 0.96543 0.0
C2843 C 0.4712 0.86149 0.8796 0.0
C2844 C 0.51097 0.87718 0.90734 0.0
H2845 H 0.54735 0.85693 0.9246 0.0
C2846 C 0.51198 0.89226 0.91868 0.0
C2847 C 0.52374 0.86414 0.90973 0.0
C2848 C 0.5236 0.84786 0.89761 0.0
C2849 C 0.52548 0.89477 0.93211 0.0
C2850 C 0.53859 0.88203 0.93403 0.0
C2851 C 0.5373 0.86669 0.92314 0.0
C2852 C 0.5544 0.88511 0.94599 0.0
C2853 C 0.52562 0.91113 0.9441 0.0
C2854 C 0.56543 0.89894 0.94135 0.0
C2855 C 0.58031 0.90213 0.95234 0.0
C2856 C 0.58463 0.89152 0.96824 0.0
C2857 C 0.57373 0.87748 0.9728 0.0
C2858 C 0.55877 0.87425 0.96168 0.0
H2859 H 0.51242 0.91678 0.94541 0.0
H2860 H 0.53079 0.90867 0.9589 0.0
H2861 H 0.53403 0.92089 0.93692 0.0
H2862 H 0.56259 0.90727 0.92908 0.0
H2863 H 0.58848 0.91296 0.94829 0.0
H2864 H 0.85581 0.26573 0.93558 0.0
H2865 H 0.8533 0.2415 0.91284 0.0
H2866 H 0.89287 0.26423 0.87672 0.0
H2867 H 0.89541 0.28856 0.8993 0.0
H2868 H 0.84489 0.2409 0.87361 0.0
H2869 H 0.91135 0.21526 0.88507 0.0
H2870 H 0.90166 0.23106 0.90104 0.0
H2871 H 0.91054 0.23766 0.87806 0.0
C2872 C 0.86388 0.26569 0.92271 0.0
C2873 C 0.87589 0.27911 0.91938 0.0
C2874 C 0.86249 0.25175 0.90976 0.0
C2875 C 0.87312 0.25083 0.89323 0.0
C2876 C 0.88484 0.26438 0.88961 0.0
H2877 H 0.88219 0.17368 0.80009 0.0
H2878 H 0.88547 0.19941 0.82081 0.0
C2879 C 0.88625 0.27832 0.90256 0.0
C2880 C 0.87177 0.23579 0.87971 0.0
H2881 H 0.89473 0.20207 0.86021 0.0
C2882 C 0.85579 0.2324 0.87072 0.0
C2883 C 0.88601 0.2247 0.87584 0.0
C2884 C 0.90333 0.22721 0.88562 0.0
C2885 C 0.85367 0.21836 0.85791 0.0
C2886 C 0.86784 0.20716 0.85421 0.0
C2887 C 0.88389 0.21065 0.86301 0.0
C2888 C 0.86609 0.19147 0.84172 0.0
C2889 C 0.83632 0.21581 0.84821 0.0
C2890 C 0.85439 0.17828 0.84676 0.0
C2891 C 0.85252 0.16362 0.835 0.0
C2892 C 0.8624 0.16174 0.81797 0.0
C2893 C 0.87438 0.17478 0.8131 0.0
C2894 C 0.87626 0.18948 0.82492 0.0
H2895 H 0.82856 0.22794 0.84815 0.0
H2896 H 0.8379 0.21129 0.833 0.0
H2897 H 0.82886 0.20584 0.85629 0.0
H2898 H 0.84669 0.1793 0.85987 0.0
H2899 H 0.84328 0.15375 0.83924 0.0
H2900 H 0.4844 0.10388 0.67773 0.0
H2901 H 0.5078 0.10228 0.65384 0.0
H2902 H 0.48802 0.14796 0.6254 0.0
H2903 H 0.46479 0.14993 0.64956 0.0
H2904 H 0.50564 0.0991 0.61324 0.0
H2905 H 0.53933 0.16 0.63414 0.0
H2906 H 0.52328 0.14984 0.64946 0.0
H2907 H 0.51666 0.16214 0.62858 0.0
C2908 C 0.48509 0.1137 0.66652 0.0
C2909 C 0.47272 0.1271 0.66569 0.0
C2910 C 0.49844 0.1127 0.65278 0.0
C2911 C 0.49985 0.12514 0.63796 0.0
C2912 C 0.4874 0.13839 0.63688 0.0
H2913 H 0.58072 0.1337 0.54721 0.0
H2914 H 0.55433 0.13884 0.56656 0.0
C2915 C 0.47399 0.13937 0.65059 0.0
C2916 C 0.51424 0.12398 0.62357 0.0
H2917 H 0.55086 0.14455 0.60754 0.0
C2918 C 0.51548 0.10908 0.61195 0.0
C2919 C 0.52704 0.13705 0.62175 0.0
C2920 C 0.52668 0.15312 0.63422 0.0
C2921 C 0.52922 0.1068 0.59878 0.0
C2922 C 0.54231 0.11961 0.5974 0.0
C2923 C 0.54083 0.13475 0.60858 0.0
C2924 C 0.55825 0.11683 0.58557 0.0
C2925 C 0.52961 0.09064 0.58646 0.0
C2926 C 0.56936 0.103 0.59003 0.0
C2927 C 0.58433 0.1001 0.57911 0.0
C2928 C 0.58864 0.11099 0.56346 0.0
C2929 C 0.57768 0.12504 0.5591 0.0
C2930 C 0.56263 0.12798 0.57016 0.0
H2931 H 0.51648 0.0849 0.58487 0.0
H2932 H 0.5349 0.09339 0.57178 0.0
H2933 H 0.53805 0.08084 0.59353 0.0
H2934 H 0.56649 0.09445 0.60209 0.0
H2935 H 0.59255 0.08925 0.58297 0.0
H2936 H 0.66311 0.8364 0.32852 0.0
H2937 H 0.6573 0.81075 0.34804 0.0
H2938 H 0.60814 0.8042 0.3191 0.0
H2939 H 0.61424 0.8298 0.29885 0.0
H2940 H 0.63186 0.80585 0.37375 0.0
H2941 H 0.6273 0.75545 0.31639 0.0
H2942 H 0.63571 0.77686 0.31163 0.0
H2943 H 0.61272 0.77341 0.31345 0.0
C2944 C 0.65111 0.82944 0.32611 0.0
C2945 C 0.63912 0.83517 0.31213 0.0
C2946 C 0.64779 0.81475 0.33735 0.0
C2947 C 0.63235 0.80537 0.33502 0.0
C2948 C 0.62031 0.81097 0.32096 0.0
H2949 H 0.59534 0.7164 0.40304 0.0
H2950 H 0.59773 0.74042 0.37991 0.0
C2951 C 0.62373 0.82569 0.30949 0.0
C2952 C 0.62887 0.79026 0.34803 0.0
H2953 H 0.62188 0.74645 0.34868 0.0
C2954 C 0.62966 0.79288 0.36822 0.0
C2955 C 0.62592 0.7733 0.34089 0.0
C2956 C 0.62549 0.76948 0.31942 0.0
C2957 C 0.6278 0.77909 0.38139 0.0
C2958 C 0.62523 0.76209 0.37427 0.0
C2959 C 0.62395 0.75947 0.35412 0.0
C2960 C 0.62412 0.7469 0.3876 0.0
C2961 C 0.62851 0.78286 0.40288 0.0
C2962 C 0.63828 0.74229 0.39934 0.0
C2963 C 0.63695 0.7286 0.41264 0.0
C2964 C 0.62141 0.71917 0.41449 0.0
C2965 C 0.60742 0.72352 0.40226 0.0
C2966 C 0.60879 0.73719 0.38892 0.0
H2967 H 0.62617 0.79679 0.40601 0.0
H2968 H 0.6188 0.77501 0.4109 0.0
H2969 H 0.64156 0.77946 0.40849 0.0
H2970 H 0.65034 0.74943 0.39839 0.0
H2971 H 0.64796 0.72573 0.42186 0.0
H2972 H 0.9238 0.86873 0.04603 0.0
H2973 H 0.94933 0.86201 0.06628 0.0
H2974 H 0.93621 0.90421 0.10454 0.0
H2975 H 0.91094 0.91089 0.08467 0.0
H2976 H 0.97811 0.88498 0.07731 0.0
H2977 H 0.94097 0.86182 0.14112 0.0
H2978 H 0.93162 0.8633 0.11712 0.0
H2979 H 0.9337 0.88237 0.13196 0.0
C2980 C 0.9264 0.87652 0.05879 0.0
C2981 C 0.91531 0.89029 0.06379 0.0
C2982 C 0.94097 0.87269 0.07031 0.0
C2983 C 0.94454 0.88247 0.08709 0.0
C2984 C 0.93358 0.89631 0.09188 0.0
H2985 H 0.01696 0.89438 0.18047 0.0
H2986 H 0.99345 0.89552 0.15671 0.0
C2987 C 0.91915 0.90016 0.08041 0.0
C2988 C 0.95975 0.87859 0.0997 0.0
H2989 H 0.97062 0.86919 0.14666 0.0
C2990 C 0.97653 0.88126 0.0924 0.0
C2991 C 0.95767 0.87377 0.1194 0.0
C2992 C 0.94003 0.86998 0.12786 0.0
C2993 C 0.99122 0.88005 0.10452 0.0
C2994 C 0.98907 0.8758 0.1244 0.0
C2995 C 0.9723 0.87257 0.13149 0.0
C2996 C 0.00387 0.87531 0.13834 0.0
C2997 C 0.00883 0.8841 0.09614 0.0
C2998 C 0.01761 0.86354 0.13601 0.0
C2999 C 0.03111 0.86282 0.14966 0.0
C3000 C 0.03109 0.87376 0.16604 0.0
C3001 C 0.01733 0.8856 0.16822 0.0
C3002 C 0.00389 0.88632 0.15458 0.0
H3003 H 0.00787 0.89092 0.08197 0.0
H3004 H 0.01649 0.89224 0.1063 0.0
H3005 H 0.01601 0.87182 0.0938 0.0
H3006 H 0.01773 0.85465 0.12385 0.0
H3007 H 0.04131 0.85335 0.14764 0.0
H3008 H 0.65869 0.65583 0.8398 0.0
H3009 H 0.65354 0.68095 0.86061 0.0
H3010 H 0.61364 0.69874 0.82152 0.0
H3011 H 0.61896 0.67365 0.80037 0.0
H3012 H 0.63616 0.72505 0.83288 0.0
H3013 H 0.61279 0.68876 0.89718 0.0
H3014 H 0.63346 0.68136 0.88858 0.0
H3015 H 0.61459 0.67899 0.87345 0.0
C3016 C 0.64876 0.66505 0.83565 0.0
C3017 C 0.63916 0.66271 0.81849 0.0
C3018 C 0.64575 0.67936 0.84764 0.0
C3019 C 0.633 0.69162 0.84284 0.0
C3020 C 0.62347 0.68941 0.8256 0.0
H3021 H 0.59614 0.77028 0.92407 0.0
H3022 H 0.59851 0.74621 0.9012 0.0
C3023 C 0.62649 0.67505 0.81356 0.0
C3024 C 0.62998 0.70691 0.85561 0.0
H3025 H 0.62006 0.71845 0.90223 0.0
C3026 C 0.63252 0.72362 0.84801 0.0
C3027 C 0.62502 0.70509 0.87531 0.0
C3028 C 0.62113 0.6876 0.88409 0.0
C3029 C 0.63069 0.73849 0.85967 0.0
C3030 C 0.62648 0.73661 0.87959 0.0
C3031 C 0.62349 0.71993 0.88704 0.0
C3032 C 0.62499 0.75175 0.89296 0.0
C3033 C 0.63308 0.75608 0.85047 0.0
C3034 C 0.63912 0.7629 0.8961 0.0
C3035 C 0.63776 0.77683 0.90908 0.0
C3036 C 0.62226 0.77987 0.91934 0.0
C3037 C 0.60817 0.76859 0.91621 0.0
C3038 C 0.60954 0.7547 0.90322 0.0
H3039 H 0.63132 0.75555 0.83447 0.0
H3040 H 0.62381 0.76565 0.85656 0.0
H3041 H 0.64643 0.76074 0.85342 0.0
H3042 H 0.6513 0.76071 0.88869 0.0
H3043 H 0.64884 0.78526 0.91099 0.0
H3044 H 0.57754 0.37015 0.04753 0.0
H3045 H 0.55215 0.36394 0.06806 0.0
H3046 H 0.56564 0.40682 0.10523 0.0
H3047 H 0.59094 0.41287 0.08511 0.0
H3048 H 0.55796 0.37723 0.12587 0.0
H3049 H 0.50652 0.3912 0.07156 0.0
H3050 H 0.52248 0.37554 0.06422 0.0
H3051 H 0.52879 0.39767 0.06809 0.0
C3052 C 0.57501 0.37825 0.06005 0.0
C3053 C 0.58623 0.39202 0.06467 0.0
C3054 C 0.56046 0.37477 0.07171 0.0
C3055 C 0.55684 0.38504 0.08811 0.0
C3056 C 0.5681 0.39873 0.09267 0.0
H3057 H 0.46421 0.39776 0.15808 0.0
H3058 H 0.48842 0.4005 0.13527 0.0
C3059 C 0.58256 0.4022 0.0811 0.0
C3060 C 0.54167 0.3815 0.10094 0.0
H3061 H 0.49733 0.38114 0.10232 0.0
C3062 C 0.5447 0.378 0.12068 0.0
C3063 C 0.52435 0.38271 0.09426 0.0
C3064 C 0.52023 0.38713 0.07342 0.0
C3065 C 0.53098 0.37577 0.1339 0.0
C3066 C 0.51365 0.37679 0.1272 0.0
C3067 C 0.51059 0.38024 0.10744 0.0
C3068 C 0.49859 0.3748 0.1406 0.0
C3069 C 0.53519 0.3729 0.15507 0.0
C3070 C 0.49604 0.35936 0.15103 0.0
C3071 C 0.4823 0.35781 0.16421 0.0
C3072 C 0.47065 0.37162 0.16722 0.0
C3073 C 0.47303 0.38695 0.15641 0.0
C3074 C 0.4868 0.38849 0.14322 0.0
H3075 H 0.5487 0.37677 0.15858 0.0
H3076 H 0.5262 0.38029 0.16455 0.0
H3077 H 0.53376 0.35892 0.15854 0.0
H3078 H 0.50477 0.34852 0.14906 0.0
H3079 H 0.48103 0.34586 0.17235 0.0
H3080 H 0.88482 0.32892 0.29741 0.0
H3081 H 0.89008 0.30268 0.31697 0.0
H3082 H 0.84601 0.31516 0.35281 0.0
H3083 H 0.84066 0.34107 0.33345 0.0
H3084 H 0.89636 0.29934 0.35748 0.0
H3085 H 0.83601 0.26517 0.33676 0.0
H3086 H 0.84421 0.28356 0.32338 0.0
H3087 H 0.83222 0.28674 0.34551 0.0
C3088 C 0.87625 0.32599 0.30942 0.0
C3089 C 0.86224 0.337 0.31378 0.0
C3090 C 0.87926 0.31102 0.32059 0.0
C3091 C 0.86823 0.30674 0.33615 0.0
C3092 C 0.85445 0.31791 0.34063 0.0
H3093 H 0.85763 0.23191 0.42844 0.0
H3094 H 0.85495 0.25542 0.40476 0.0
C3095 C 0.85147 0.3328 0.32957 0.0
C3096 C 0.87113 0.29089 0.34812 0.0
H3097 H 0.85091 0.25429 0.36464 0.0
C3098 C 0.88654 0.28936 0.35886 0.0
C3099 C 0.85829 0.27787 0.34997 0.0
C3100 C 0.84182 0.27829 0.33815 0.0
C3101 C 0.88913 0.27557 0.37197 0.0
C3102 C 0.87609 0.26278 0.37417 0.0
C3103 C 0.86087 0.26411 0.36307 0.0
C3104 C 0.87772 0.24819 0.3883 0.0
C3105 C 0.90552 0.2752 0.38393 0.0
C3106 C 0.89121 0.23605 0.38677 0.0
C3107 C 0.89273 0.22251 0.40026 0.0
C3108 C 0.88072 0.22072 0.41555 0.0
C3109 C 0.86702 0.23272 0.41678 0.0
C3110 C 0.86552 0.24626 0.4033 0.0
H3111 H 0.91217 0.28797 0.38399 0.0
H3112 H 0.90272 0.2714 0.39917 0.0
H3113 H 0.91457 0.26552 0.37769 0.0
H3114 H 0.90054 0.23697 0.37506 0.0
H3115 H 0.90327 0.21336 0.3986 0.0
H3116 H 0.9112 0.58907 0.58297 0.0
H3117 H 0.93719 0.59439 0.60221 0.0
H3118 H 0.94941 0.6386 0.5664 0.0
H3119 H 0.92309 0.63337 0.54701 0.0
H3120 H 0.9716 0.59486 0.59006 0.0
H3121 H 0.95252 0.65834 0.62176 0.0
H3122 H 0.93712 0.64417 0.61004 0.0
H3123 H 0.95181 0.65692 0.59572 0.0
C3124 C 0.91937 0.59997 0.57916 0.0
C3125 C 0.91506 0.61081 0.56346 0.0
C3126 C 0.93426 0.60298 0.5902 0.0
C3127 C 0.94521 0.61698 0.58593 0.0
C3128 C 0.94102 0.62787 0.57019 0.0
H3129 H 0.03908 0.64997 0.64819 0.0
H3130 H 0.01546 0.64738 0.62461 0.0
C3131 C 0.92604 0.62482 0.55905 0.0
C3132 C 0.9611 0.61974 0.59789 0.0
H3133 H 0.98 0.64739 0.63044 0.0
C3134 C 0.97346 0.60639 0.59882 0.0
C3135 C 0.9636 0.6348 0.6093 0.0
C3136 C 0.95053 0.64936 0.60936 0.0
C3137 C 0.98812 0.6076 0.6109 0.0
C3138 C 0.99037 0.62242 0.62274 0.0
C3139 C 0.97826 0.63599 0.62144 0.0
C3140 C 0.00491 0.62385 0.63696 0.0
C3141 C 0.00113 0.59299 0.61074 0.0
C3142 C 0.00682 0.6116 0.65192 0.0
C3143 C 0.0203 0.61306 0.66546 0.0
C3144 C 0.03215 0.62691 0.6645 0.0
C3145 C 0.03015 0.63922 0.64953 0.0
C3146 C 0.01666 0.63773 0.63597 0.0
H3147 H 1.00037 0.58537 0.59708 0.0
H3148 H 0.01456 0.59795 0.61243 0.0
H3149 H 0.99835 0.58407 0.623 0.0
H3150 H 0.99769 0.60101 0.65332 0.0
H3151 H 0.02117 0.60354 0.67698 0.0
H3152 H 0.66016 0.34717 0.69331 0.0
H3153 H 0.65614 0.32162 0.67282 0.0
H3154 H 0.61588 0.30334 0.71114 0.0
H3155 H 0.61976 0.32908 0.73168 0.0
H3156 H 0.6601 0.28705 0.68295 0.0
H3157 H 0.59288 0.29982 0.65772 0.0
H3158 H 0.60603 0.31625 0.66916 0.0
H3159 H 0.59573 0.29983 0.68361 0.0
C3160 C 0.65037 0.33777 0.69733 0.0
C3161 C 0.64024 0.34017 0.71409 0.0
C3162 C 0.6481 0.32315 0.68561 0.0
C3163 C 0.63558 0.31061 0.69027 0.0
C3164 C 0.6254 0.31297 0.70701 0.0
H3165 H 0.60769 0.21384 0.63109 0.0
H3166 H 0.61011 0.23765 0.65448 0.0
C3167 C 0.62768 0.32764 0.71879 0.0
C3168 C 0.6337 0.2949 0.67786 0.0
H3169 H 0.60552 0.27323 0.64817 0.0
C3170 C 0.64815 0.28404 0.67536 0.0
C3171 C 0.6181 0.29088 0.668 0.0
C3172 C 0.60232 0.30235 0.66957 0.0
C3173 C 0.64745 0.26934 0.66332 0.0
C3174 C 0.63196 0.2655 0.65317 0.0
C3175 C 0.6174 0.27617 0.65593 0.0
C3176 C 0.63078 0.25079 0.6392 0.0
C3177 C 0.66327 0.25792 0.66175 0.0
C3178 C 0.64152 0.25026 0.62273 0.0
C3179 C 0.64023 0.23663 0.60939 0.0
C3180 C 0.6281 0.22321 0.61212 0.0
C3181 C 0.61736 0.22379 0.62865 0.0
C3182 C 0.61863 0.23747 0.64197 0.0
H3183 H 0.6721 0.25967 0.67436 0.0
H3184 H 0.65959 0.24404 0.66079 0.0
H3185 H 0.67056 0.2614 0.64842 0.0
H3186 H 0.65079 0.26052 0.62007 0.0
H3187 H 0.6488 0.23659 0.59694 0.0
H3188 H 0.92099 0.36763 0.98494 0.0
H3189 H 0.94643 0.36163 0.96436 0.0
H3190 H 0.93479 0.40678 0.92982 0.0
H3191 H 0.90958 0.41277 0.95008 0.0
H3192 H 0.94749 0.35644 0.9226 0.0
H3193 H 0.98608 0.41358 0.9451 0.0
H3194 H 0.96794 0.4056 0.95906 0.0
H3195 H 0.96432 0.41875 0.93787 0.0
C3196 C 0.92393 0.37627 0.97298 0.0
C3197 C 0.91332 0.39071 0.96918 0.0
C3198 C 0.93843 0.37284 0.96125 0.0
C3199 C 0.94267 0.38392 0.94572 0.0
C3200 C 0.932 0.39824 0.94191 0.0
H3201 H 0.01556 0.39505 0.85197 0.0
H3202 H 0.99287 0.39767 0.87659 0.0
C3203 C 0.91753 0.4016 0.9535 0.0
C3204 C 0.95795 0.38052 0.93307 0.0
H3205 H 0.99527 0.3991 0.91629 0.0
C3206 C 0.95808 0.36562 0.92139 0.0
C3207 C 0.97171 0.39256 0.93145 0.0
C3208 C 0.97265 0.40845 0.94416 0.0
C3209 C 0.97122 0.36281 0.90753 0.0
C3210 C 0.98479 0.37508 0.90559 0.0
C3211 C 0.98486 0.38974 0.91767 0.0
C3212 C 0.99873 0.3733 0.89071 0.0
C3213 C 0.97002 0.34712 0.89454 0.0
C3214 C 0.0098 0.35885 0.89055 0.0
C3215 C 0.02283 0.35732 0.87646 0.0
C3216 C 0.0252 0.3703 0.86231 0.0
C3217 C 0.01425 0.38489 0.86272 0.0
C3218 C 0.0012 0.38637 0.87676 0.0
H3219 H 0.95677 0.34148 0.89449 0.0
H3220 H 0.97366 0.35041 0.87938 0.0
H3221 H 0.9791 0.33702 0.89987 0.0
H3222 H 0.00849 0.3488 0.90144 0.0
H3223 H 0.0312 0.34605 0.87681 0.0
H3224 H 0.85811 0.76761 0.1016 0.0
H3225 H 0.85636 0.74388 0.12508 0.0
H3226 H 0.89771 0.76684 0.15838 0.0
H3227 H 0.89923 0.79091 0.13525 0.0
H3228 H 0.88246 0.72038 0.13494 0.0
H3229 H 0.86103 0.75722 0.19997 0.0
H3230 H 0.85983 0.76606 0.17573 0.0
H3231 H 0.88022 0.76535 0.18832 0.0
C3232 C 0.86664 0.76782 0.11409 0.0
C3233 C 0.87876 0.78129 0.11652 0.0
C3234 C 0.86571 0.75414 0.12745 0.0
C3235 C 0.87677 0.75363 0.14365 0.0
C3236 C 0.88884 0.76706 0.1462 0.0
H3237 H 0.88419 0.67408 0.2361 0.0
H3238 H 0.89023 0.69955 0.21553 0.0
C3239 C 0.88981 0.78074 0.13281 0.0
C3240 C 0.87602 0.73868 0.15739 0.0
H3241 H 0.86721 0.72746 0.20448 0.0
C3242 C 0.87915 0.72196 0.15015 0.0
C3243 C 0.87188 0.74071 0.17731 0.0
C3244 C 0.8679 0.75827 0.18584 0.0
C3245 C 0.87808 0.70725 0.16216 0.0
C3246 C 0.87346 0.70921 0.18194 0.0
C3247 C 0.87078 0.72596 0.18935 0.0
C3248 C 0.87002 0.69394 0.19465 0.0
C3249 C 0.88193 0.68968 0.15355 0.0
C3250 C 0.85653 0.68251 0.18994 0.0
C3251 C 0.85307 0.6681 0.2016 0.0
C3252 C 0.86295 0.66476 0.21836 0.0
C3253 C 0.87638 0.67629 0.22326 0.0
C3254 C 0.87982 0.69083 0.21154 0.0
H3255 H 0.89007 0.69075 0.1403 0.0
H3256 H 0.88866 0.68122 0.1642 0.0
H3257 H 0.86956 0.68334 0.1494 0.0
H3258 H 0.84857 0.68478 0.17722 0.0
H3259 H 0.84258 0.65954 0.19742 0.0
H3260 H 0.57818 0.63217 0.48373 0.0
H3261 H 0.55198 0.63731 0.46405 0.0
H3262 H 0.56482 0.59332 0.42826 0.0
H3263 H 0.59074 0.58816 0.44766 0.0
H3264 H 0.54909 0.64332 0.42289 0.0
H3265 H 0.51457 0.58347 0.44469 0.0
H3266 H 0.53275 0.59198 0.45817 0.0
H3267 H 0.53629 0.57957 0.43643 0.0
C3268 C 0.57535 0.6236 0.47169 0.0
C3269 C 0.58649 0.6097 0.46733 0.0
C3270 C 0.5604 0.62655 0.46045 0.0
C3271 C 0.55626 0.61552 0.44486 0.0
C3272 C 0.56751 0.60179 0.44044 0.0
H3273 H 0.48328 0.60259 0.35179 0.0
H3274 H 0.50636 0.60094 0.37606 0.0
C3275 C 0.58239 0.5989 0.45153 0.0
C3276 C 0.54046 0.61833 0.4328 0.0
H3277 H 0.504 0.59786 0.41632 0.0
C3278 C 0.53908 0.63352 0.42165 0.0
C3279 C 0.5274 0.60551 0.43115 0.0
C3280 C 0.52769 0.58928 0.44338 0.0
C3281 C 0.52545 0.63587 0.40827 0.0
C3282 C 0.51267 0.6228 0.40621 0.0
C3283 C 0.5138 0.60785 0.41779 0.0
C3284 C 0.49845 0.62399 0.39158 0.0
C3285 C 0.52526 0.65198 0.39585 0.0
C3286 C 0.4861 0.63736 0.39232 0.0
C3287 C 0.47288 0.63839 0.37837 0.0
C3288 C 0.47169 0.62603 0.36336 0.0
C3289 C 0.48393 0.6125 0.3629 0.0
C3290 C 0.49709 0.61147 0.37687 0.0
H3291 H 0.53795 0.65878 0.39604 0.0
H3292 H 0.52192 0.64879 0.38058 0.0
H3293 H 0.51528 0.66105 0.40146 0.0
H3294 H 0.48666 0.64701 0.40372 0.0
H3295 H 0.46379 0.64906 0.37914 0.0
H3296 H 0.40175 0.21289 0.13165 0.0
H3297 H 0.39877 0.23593 0.15586 0.0
H3298 H 0.35323 0.25479 0.12638 0.0
H3299 H 0.35614 0.2319 0.10209 0.0
H3300 H 0.3991 0.27158 0.15132 0.0
H3301 H 0.33617 0.25057 0.18201 0.0
H3302 H 0.34909 0.23677 0.16657 0.0
H3303 H 0.33553 0.25332 0.15614 0.0
C3304 C 0.3911 0.22195 0.13026 0.0
C3305 C 0.37913 0.22041 0.11489 0.0
C3306 C 0.38939 0.2351 0.14419 0.0
C3307 C 0.37562 0.24697 0.14318 0.0
C3308 C 0.36372 0.24555 0.1278 0.0
H3309 H 0.33949 0.33924 0.19873 0.0
H3310 H 0.34541 0.31371 0.17901 0.0
C3311 C 0.3654 0.23241 0.11389 0.0
C3312 C 0.3739 0.26111 0.15786 0.0
H3313 H 0.34554 0.27912 0.19024 0.0
C3314 C 0.38747 0.27312 0.16 0.0
C3315 C 0.35878 0.2631 0.1693 0.0
C3316 C 0.34413 0.25016 0.16857 0.0
C3317 C 0.38601 0.28746 0.17258 0.0
C3318 C 0.37065 0.28972 0.18355 0.0
C3319 C 0.3573 0.27743 0.18181 0.0
C3320 C 0.36756 0.30535 0.19584 0.0
C3321 C 0.40059 0.30046 0.17342 0.0
C3322 C 0.37799 0.30921 0.21207 0.0
C3323 C 0.37459 0.32393 0.2235 0.0
C3324 C 0.36069 0.335 0.21889 0.0
C3325 C 0.3503 0.33101 0.20271 0.0
C3326 C 0.35366 0.31638 0.19139 0.0
H3327 H 0.40994 0.29872 0.16131 0.0
H3328 H 0.39546 0.3139 0.17292 0.0
H3329 H 0.40774 0.29885 0.1873 0.0
H3330 H 0.38862 0.30075 0.21601 0.0
H3331 H 0.38278 0.32663 0.23591 0.0
H3332 H 0.53343 0.65425 0.87476 0.0
H3333 H 0.51063 0.65112 0.89925 0.0
H3334 H 0.49453 0.60311 0.87281 0.0
H3335 H 0.51729 0.60612 0.84833 0.0
H3336 H 0.47536 0.64928 0.89555 0.0
H3337 H 0.49979 0.58879 0.92901 0.0
H3338 H 0.51271 0.60162 0.91256 0.0
H3339 H 0.49672 0.58678 0.90329 0.0
C3340 C 0.52501 0.64303 0.87411 0.0
C3341 C 0.5273 0.63038 0.85957 0.0
C3342 C 0.512 0.64124 0.88819 0.0
C3343 C 0.50101 0.62673 0.88814 0.0
C3344 C 0.50312 0.61419 0.87352 0.0
H3345 H 0.41044 0.58873 0.94514 0.0
H3346 H 0.43561 0.59531 0.92508 0.0
C3347 C 0.51616 0.61594 0.85949 0.0
C3348 C 0.48709 0.62486 0.90306 0.0
H3349 H 0.47071 0.59685 0.93691 0.0
C3350 C 0.47445 0.63792 0.90476 0.0
C3351 C 0.48594 0.6101 0.91524 0.0
C3352 C 0.49961 0.59611 0.91511 0.0
C3353 C 0.46033 0.63623 0.91761 0.0
C3354 C 0.45888 0.62117 0.92924 0.0
C3355 C 0.47178 0.60837 0.92795 0.0
C3356 C 0.44346 0.61773 0.9417 0.0
C3357 C 0.44667 0.65023 0.91809 0.0
C3358 C 0.43946 0.62812 0.9579 0.0
C3359 C 0.42497 0.62432 0.96956 0.0
C3360 C 0.41428 0.61009 0.96517 0.0
C3361 C 0.41839 0.59978 0.94897 0.0
C3362 C 0.4328 0.60352 0.93745 0.0
H3363 H 0.44811 0.65954 0.90588 0.0
H3364 H 0.4335 0.64446 0.91747 0.0
H3365 H 0.44776 0.65753 0.93191 0.0
H3366 H 0.44764 0.63902 0.96165 0.0
H3367 H 0.42219 0.63245 0.982 0.0
H3368 H 0.10202 0.78984 0.63018 0.0
H3369 H 0.10446 0.76635 0.65398 0.0
H3370 H 0.15025 0.7476 0.62493 0.0
H3371 H 0.1479 0.77096 0.6011 0.0
H3372 H 0.10378 0.73095 0.64877 0.0
H3373 H 0.16663 0.75044 0.6808 0.0
H3374 H 0.15413 0.7647 0.66542 0.0
H3375 H 0.16764 0.74816 0.6549 0.0
C3376 C 0.11262 0.78072 0.62883 0.0
C3377 C 0.12483 0.78241 0.61373 0.0
C3378 C 0.11402 0.76731 0.64251 0.0
C3379 C 0.1277 0.75534 0.64149 0.0
C3380 C 0.13983 0.75692 0.62637 0.0
H3381 H 0.16206 0.66112 0.69368 0.0
H3382 H 0.15633 0.68723 0.67482 0.0
C3383 C 0.13847 0.77033 0.61272 0.0
C3384 C 0.12908 0.7409 0.65585 0.0
H3385 H 0.15696 0.7217 0.6879 0.0
C3386 C 0.11531 0.72904 0.65752 0.0
C3387 C 0.14407 0.73844 0.66738 0.0
C3388 C 0.15889 0.7512 0.66721 0.0
C3389 C 0.1165 0.71438 0.66968 0.0
C3390 C 0.13176 0.71162 0.68066 0.0
C3391 C 0.14528 0.72377 0.67944 0.0
C3392 C 0.13462 0.69559 0.69233 0.0
C3393 C 0.10173 0.70157 0.67006 0.0
C3394 C 0.12433 0.69152 0.7086 0.0
C3395 C 0.12762 0.67646 0.71954 0.0
C3396 C 0.14127 0.66529 0.71439 0.0
C3397 C 0.15146 0.66944 0.6981 0.0
C3398 C 0.14821 0.6844 0.68727 0.0
H3399 H 0.09228 0.70393 0.65816 0.0
H3400 H 0.10668 0.6881 0.66883 0.0
H3401 H 0.09476 0.70269 0.6841 0.0
H3402 H 0.11392 0.70008 0.71297 0.0
H3403 H 0.11959 0.67364 0.73205 0.0
H3404 H 0.98757 0.3541 0.35618 0.0
H3405 H 0.01084 0.35774 0.3799 0.0
H3406 H 0.98672 0.40455 0.40076 0.0
H3407 H 0.96302 0.4007 0.37749 0.0
H3408 H 0.03412 0.38459 0.38384 0.0
H3409 H 0.99496 0.37795 0.45106 0.0
H3410 H 0.98677 0.37193 0.42745 0.0
H3411 H 0.98736 0.39433 0.43459 0.0
C3412 C 0.98701 0.36504 0.366 0.0
C3413 C 0.97324 0.37701 0.36496 0.0
C3414 C 1.00044 0.36718 0.37949 0.0
C3415 C 1.00046 0.38127 0.39237 0.0
C3416 C 0.98686 0.39337 0.39127 0.0
H3417 H 0.0736 0.41505 0.48207 0.0
H3418 H 0.049 0.41221 0.45963 0.0
C3419 C 0.9734 0.39125 0.37776 0.0
C3420 C 0.01497 0.38347 0.40654 0.0
H3421 H 0.02438 0.38607 0.45503 0.0
C3422 C 0.03197 0.38486 0.39941 0.0
C3423 C 0.01222 0.3839 0.42688 0.0
C3424 C 0.99437 0.3818 0.43552 0.0
C3425 C 0.04623 0.38684 0.41198 0.0
C3426 C 0.04352 0.38709 0.43233 0.0
C3427 C 0.0265 0.38586 0.43946 0.0
C3428 C 0.05818 0.38849 0.4464 0.0
C3429 C 0.06406 0.38898 0.40328 0.0
C3430 C 0.07144 0.37599 0.44671 0.0
C3431 C 0.08548 0.37763 0.4595 0.0
C3432 C 0.08647 0.39162 0.47248 0.0
C3433 C 0.07311 0.40403 0.47234 0.0
C3434 C 0.05905 0.40241 0.45954 0.0
H3435 H 0.0634 0.39341 0.38794 0.0
H3436 H 0.07189 0.39843 0.4117 0.0
H3437 H 0.07086 0.37632 0.40352 0.0
H3438 H 0.07103 0.36503 0.43691 0.0
H3439 H 0.09587 0.36829 0.45872 0.0
H3440 H 0.40201 0.7847 0.401 0.0
H3441 H 0.39919 0.76235 0.37585 0.0
H3442 H 0.35849 0.73789 0.40881 0.0
H3443 H 0.36102 0.76025 0.43381 0.0
H3444 H 0.40237 0.72505 0.37988 0.0
H3445 H 0.3372 0.74489 0.35407 0.0
H3446 H 0.35088 0.75894 0.36839 0.0
H3447 H 0.33872 0.74193 0.3799 0.0
C3448 C 0.39234 0.77466 0.40281 0.0
C3449 C 0.3817 0.77434 0.41943 0.0
C3450 C 0.39083 0.76183 0.38847 0.0
C3451 C 0.3785 0.74855 0.39033 0.0
C3452 C 0.36795 0.74813 0.40693 0.0
H3453 H 0.34173 0.658 0.33253 0.0
H3454 H 0.34811 0.68295 0.35297 0.0
C3455 C 0.36952 0.76086 0.42131 0.0
C3456 C 0.37667 0.735 0.37506 0.0
H3457 H 0.34744 0.71741 0.34344 0.0
C3458 C 0.39045 0.72347 0.37173 0.0
C3459 C 0.36114 0.733 0.36438 0.0
C3460 C 0.34618 0.74543 0.36668 0.0
C3461 C 0.38879 0.70949 0.35868 0.0
C3462 C 0.37305 0.70721 0.3484 0.0
C3463 C 0.3595 0.71911 0.35131 0.0
C3464 C 0.36976 0.69189 0.33571 0.0
C3465 C 0.40361 0.69686 0.35666 0.0
C3466 C 0.37977 0.68854 0.31904 0.0
C3467 C 0.37614 0.67412 0.30722 0.0
C3468 C 0.36238 0.66291 0.31186 0.0
C3469 C 0.35241 0.66638 0.3285 0.0
C3470 C 0.35603 0.68068 0.34023 0.0
H3471 H 0.41328 0.69833 0.36851 0.0
H3472 H 0.39879 0.6833 0.35668 0.0
H3473 H 0.41031 0.69918 0.34263 0.0
H3474 H 0.39025 0.69716 0.31503 0.0
H3475 H 0.38401 0.67181 0.29446 0.0
H3476 H 0.07833 0.63324 0.04881 0.0
H3477 H 0.05335 0.63809 0.07033 0.0
H3478 H 0.07185 0.59791 0.10864 0.0
H3479 H 0.09686 0.59328 0.08753 0.0
H3480 H 0.02717 0.61571 0.08204 0.0
H3481 H 0.06466 0.63803 0.1459 0.0
H3482 H 0.07407 0.63638 0.12198 0.0
H3483 H 0.0718 0.61739 0.13696 0.0
C3484 C 0.0771 0.62554 0.0619 0.0
C3485 C 0.08965 0.61298 0.06656 0.0
C3486 C 0.06281 0.62828 0.07415 0.0
C3487 C 0.06084 0.61857 0.09131 0.0
C3488 C 0.07325 0.60586 0.09576 0.0
H3489 H 0.96838 0.60253 0.16207 0.0
H3490 H 0.99197 0.60022 0.13839 0.0
C3491 C 0.08751 0.60315 0.08359 0.0
C3492 C 0.04575 0.62144 0.10447 0.0
H3493 H 0.03506 0.6307 0.15152 0.0
C3494 C 0.02888 0.6191 0.0972 0.0
C3495 C 0.04792 0.62609 0.12422 0.0
C3496 C 0.06557 0.62979 0.1327 0.0
C3497 C 0.01422 0.62084 0.10924 0.0
C3498 C 0.01645 0.62475 0.12919 0.0
C3499 C 0.0333 0.6275 0.13631 0.0
C3500 C 0.00156 0.62627 0.14294 0.0
C3501 C 0.99645 0.61872 0.10039 0.0
C3502 C 0.99918 0.64156 0.15368 0.0
C3503 C 0.98577 0.64287 0.16729 0.0
C3504 C 0.97441 0.62889 0.17062 0.0
C3505 C 0.97671 0.61363 0.15972 0.0
C3506 C 0.99019 0.61231 0.14612 0.0
H3507 H 0.99672 0.6207 0.08441 0.0
H3508 H 0.99174 0.60537 0.10321 0.0
H3509 H 0.98707 0.62798 0.10684 0.0
H3510 H 0.00774 0.65252 0.15153 0.0
H3511 H 0.98427 0.65491 0.17518 0.0
H3512 H 0.16577 0.32471 0.79928 0.0
H3513 H 0.16256 0.2994 0.82062 0.0
H3514 H 0.1164 0.32191 0.84532 0.0
H3515 H 0.11972 0.34717 0.82413 0.0
H3516 H 0.1626 0.29802 0.8603 0.0
H3517 H 0.09977 0.27332 0.83287 0.0
H3518 H 0.11239 0.28922 0.81982 0.0
H3519 H 0.09901 0.29568 0.83996 0.0
C3520 C 0.15481 0.32411 0.80908 0.0
C3521 C 0.14263 0.33766 0.80958 0.0
C3522 C 0.153 0.30966 0.8213 0.0
C3523 C 0.139 0.30848 0.83431 0.0
C3524 C 0.12697 0.32216 0.83498 0.0
H3525 H 0.1066 0.23943 0.92674 0.0
H3526 H 0.11016 0.26256 0.90282 0.0
C3527 C 0.12877 0.33657 0.82274 0.0
C3528 C 0.13744 0.29341 0.84782 0.0
H3529 H 0.10993 0.26122 0.86261 0.0
C3530 C 0.15115 0.28987 0.86068 0.0
C3531 C 0.12249 0.28277 0.84839 0.0
C3532 C 0.10764 0.2853 0.8344 0.0
C3533 C 0.15012 0.27637 0.8744 0.0
C3534 C 0.13509 0.26585 0.8751 0.0
C3535 C 0.12145 0.26927 0.86212 0.0
C3536 C 0.13304 0.25154 0.88954 0.0
C3537 C 0.16492 0.27385 0.88845 0.0
C3538 C 0.14457 0.23743 0.88994 0.0
C3539 C 0.14264 0.22418 0.90375 0.0
C3540 C 0.12909 0.2247 0.91745 0.0
C3541 C 0.11739 0.23871 0.91672 0.0
C3542 C 0.11932 0.25192 0.90292 0.0
H3543 H 0.17338 0.28549 0.88924 0.0
H3544 H 0.16004 0.2709 0.90325 0.0
H3545 H 0.17299 0.26278 0.88356 0.0
H3546 H 0.15507 0.23664 0.87955 0.0
H3547 H 0.15194 0.21367 0.90388 0.0
H3548 H 0.53465 0.34842 0.65507 0.0
H3549 H 0.5117 0.35131 0.63071 0.0
H3550 H 0.49304 0.39725 0.65954 0.0
H3551 H 0.5159 0.39445 0.68393 0.0
H3552 H 0.47616 0.35125 0.63467 0.0
H3553 H 0.49774 0.41395 0.60393 0.0
H3554 H 0.51131 0.40109 0.6197 0.0
H3555 H 0.49468 0.41478 0.62974 0.0
C3556 C 0.52564 0.35912 0.65629 0.0
C3557 C 0.52724 0.37125 0.67148 0.0
C3558 C 0.51254 0.36079 0.64228 0.0
C3559 C 0.50077 0.37466 0.64304 0.0
C3560 C 0.50221 0.38668 0.65829 0.0
H3561 H 0.40911 0.41103 0.58676 0.0
H3562 H 0.4344 0.40479 0.60675 0.0
C3563 C 0.51532 0.38505 0.67227 0.0
C3564 C 0.48677 0.3764 0.62819 0.0
H3565 H 0.46918 0.40473 0.59546 0.0
C3566 C 0.47474 0.36285 0.62592 0.0
C3567 C 0.48496 0.39149 0.61664 0.0
C3568 C 0.49796 0.40608 0.61745 0.0
C3569 C 0.46054 0.36433 0.61313 0.0
C3570 C 0.45843 0.37968 0.6021 0.0
C3571 C 0.47075 0.39298 0.60395 0.0
C3572 C 0.44288 0.38285 0.58971 0.0
C3573 C 0.44751 0.34979 0.61213 0.0
C3574 C 0.43915 0.3726 0.57331 0.0
C3575 C 0.42455 0.37618 0.56171 0.0
C3576 C 0.41351 0.39009 0.56632 0.0
C3577 C 0.41733 0.40024 0.58274 0.0
C3578 C 0.43183 0.39669 0.59422 0.0
H3579 H 0.44922 0.34033 0.62415 0.0
H3580 H 0.43409 0.35496 0.61266 0.0
H3581 H 0.4491 0.34277 0.59817 0.0
H3582 H 0.44762 0.36199 0.56934 0.0
H3583 H 0.42197 0.36816 0.54913 0.0
H3584 H 0.09667 0.0722 0.25084 0.0
H3585 H 0.0977 0.04046 0.24895 0.0
H3586 H 0.14775 0.04066 0.27688 0.0
H3587 H 0.14674 0.07226 0.279 0.0
H3588 H 0.12202 0.01701 0.23267 0.0
H3589 H 0.1175 0.01044 0.31284 0.0
H3590 H 0.11295 0.03051 0.30034 0.0
H3591 H 0.13498 0.02396 0.30463 0.0
C3592 C 0.10799 0.06547 0.25631 0.0
C3593 C 0.12152 0.07463 0.26528 0.0
C3594 C 0.10854 0.04737 0.25528 0.0
C3595 C 0.12261 0.03825 0.26321 0.0
C3596 C 0.1366 0.04747 0.2711 0.0
H3597 H 0.14777 0.92983 0.24806 0.0
H3598 H 0.14824 0.96146 0.25009 0.0
C3599 C 0.13605 0.06551 0.27217 0.0
C3600 C 0.12246 0.0191 0.26383 0.0
H3601 H 0.12299 0.98467 0.29502 0.0
C3602 C 0.1222 0.00991 0.24627 0.0
C3603 C 0.12242 0.00994 0.28165 0.0
C3604 C 0.12181 0.01918 0.30095 0.0
C3605 C 0.12227 0.99173 0.24605 0.0
C3606 C 0.12286 0.98258 0.26386 0.0
C3607 C 0.12274 0.99176 0.28142 0.0
C3608 C 0.12339 0.96343 0.26448 0.0
C3609 C 0.12147 0.98248 0.22676 0.0
C3610 C 0.10969 0.95407 0.27284 0.0
C3611 C 0.10945 0.93597 0.27186 0.0
C3612 C 0.12294 0.92703 0.26252 0.0
C3613 C 0.13712 0.93641 0.25519 0.0
C3614 C 0.13736 0.95446 0.25621 0.0
H3615 H 0.11674 0.99112 0.21498 0.0
H3616 H 0.13466 0.97798 0.22276 0.0
H3617 H 0.11287 0.97096 0.22758 0.0
H3618 H 0.09888 0.9608 0.27947 0.0
H3619 H 0.0984 0.92905 0.27769 0.0
H3620 H 0.17984 0.85539 0.49731 0.0
H3621 H 0.21124 0.85926 0.49313 0.0
H3622 H 0.20971 0.90447 0.52984 0.0
H3623 H 0.17844 0.90082 0.53397 0.0
H3624 H 0.23145 0.89434 0.48179 0.0
H3625 H 0.24419 0.86542 0.55469 0.0
H3626 H 0.22478 0.86031 0.54116 0.0
H3627 H 0.22719 0.88127 0.55202 0.0
C3628 C 0.18617 0.86629 0.50422 0.0
C3629 C 0.17675 0.87771 0.51608 0.0
C3630 C 0.20405 0.86848 0.50185 0.0
C3631 C 0.2127 0.88205 0.51134 0.0
C3632 C 0.20322 0.89388 0.52251 0.0
H3633 H 0.32588 0.8864 0.52661 0.0
H3634 H 0.2951 0.89435 0.52969 0.0
C3635 C 0.18538 0.89176 0.52481 0.0
C3636 C 0.23178 0.88327 0.51046 0.0
H3637 H 0.26835 0.87249 0.53555 0.0
C3638 C 0.23956 0.88972 0.49357 0.0
C3639 C 0.24222 0.87754 0.52604 0.0
C3640 C 0.23429 0.87069 0.54455 0.0
C3641 C 0.25767 0.8901 0.49161 0.0
C3642 C 0.26816 0.88334 0.50671 0.0
C3643 C 0.26032 0.87763 0.52397 0.0
C3644 C 0.28699 0.88022 0.50407 0.0
C3645 C 0.26533 0.89752 0.47326 0.0
C3646 C 0.29259 0.86966 0.48875 0.0
C3647 C 0.31001 0.86524 0.48696 0.0
C3648 C 0.32222 0.87112 0.50058 0.0
C3649 C 0.31675 0.88188 0.51582 0.0
C3650 C 0.2992 0.88635 0.5176 0.0
H3651 H 0.25678 0.90765 0.46695 0.0
H3652 H 0.27835 0.9032 0.47585 0.0
H3653 H 0.26657 0.88701 0.46237 0.0
H3654 H 0.28341 0.86436 0.47844 0.0
H3655 H 0.31386 0.85695 0.47502 0.0
H3656 H 0.40409 0.92743 0.75072 0.0
H3657 H 0.40369 0.95915 0.74833 0.0
H3658 H 0.35437 0.96037 0.77778 0.0
H3659 H 0.35479 0.92878 0.78046 0.0
H3660 H 0.37997 0.98297 0.73238 0.0
H3661 H 0.38564 0.99042 0.81234 0.0
H3662 H 0.38935 0.97004 0.80017 0.0
H3663 H 0.36761 0.97738 0.80471 0.0
C3664 C 0.39306 0.93446 0.75644 0.0
C3665 C 0.37957 0.92569 0.76599 0.0
C3666 C 0.39287 0.95255 0.7551 0.0
C3667 C 0.3792 0.96208 0.7633 0.0
C3668 C 0.36523 0.95326 0.77179 0.0
H3669 H 0.35623 0.0709 0.747 0.0
H3670 H 0.35535 0.0393 0.74904 0.0
C3671 C 0.36544 0.93522 0.77318 0.0
C3672 C 0.3798 0.98125 0.76358 0.0
H3673 H 0.38049 0.01608 0.79417 0.0
C3674 C 0.38011 0.99022 0.74586 0.0
C3675 C 0.38027 0.99064 0.78123 0.0
C3676 C 0.38087 0.98166 0.80071 0.0
C3677 C 0.38052 0.0084 0.74532 0.0
C3678 C 0.38036 0.0178 0.76298 0.0
C3679 C 0.38042 0.00882 0.78068 0.0
C3680 C 0.38024 0.03697 0.7633 0.0
C3681 C 0.38134 0.01739 0.72585 0.0
C3682 C 0.39412 0.04615 0.77155 0.0
C3683 C 0.3946 0.06425 0.77055 0.0
C3684 C 0.38116 0.07338 0.76134 0.0
C3685 C 0.36685 0.06418 0.75403 0.0
C3686 C 0.36638 0.04613 0.75505 0.0
H3687 H 0.38582 0.00851 0.71419 0.0
H3688 H 0.36822 0.0221 0.72189 0.0
H3689 H 0.39018 0.02875 0.72639 0.0
H3690 H 0.40486 0.03927 0.77816 0.0
H3691 H 0.40575 0.07103 0.77634 0.0
H3692 H 0.18091 0.10622 0.99885 0.0
H3693 H 0.21246 0.10465 1.00141 0.0
H3694 H 0.21312 0.15404 0.03072 0.0
H3695 H 0.18144 0.15563 0.02836 0.0
H3696 H 0.2347 0.12889 0.98449 0.0
H3697 H 0.2455 0.12381 0.06407 0.0
H3698 H 0.22477 0.11938 0.05292 0.0
H3699 H 0.23164 0.14136 0.05675 0.0
C3700 C 0.18774 0.1166 1.00618 0.0
C3701 C 0.17876 0.13109 1.01335 0.0
C3702 C 0.20575 0.1157 1.00757 0.0
C3703 C 0.21509 0.1292 0.01629 0.0
C3704 C 0.20611 0.14337 0.02418 0.0
H3705 H 0.32377 0.15511 1.00051 0.0
H3706 H 0.29207 0.15377 0.99817 0.0
C3707 C 0.18804 0.14429 0.02279 0.0
C3708 C 0.23426 0.12897 0.01578 0.0
H3709 H 0.2703 0.12887 0.04447 0.0
C3710 C 0.24251 0.12883 0.99759 0.0
C3711 C 0.24436 0.12875 0.0329 0.0
C3712 C 0.23616 0.12818 0.05278 0.0
C3713 C 0.26064 0.12867 0.99606 0.0
C3714 C 0.27073 0.12888 1.01318 0.0
C3715 C 0.26249 0.12882 0.03137 0.0
C3716 C 0.2899 0.12896 1.01267 0.0
C3717 C 0.26883 0.128 0.97618 0.0
C3718 C 0.29914 0.11539 0.02142 0.0
C3719 C 0.31715 0.11615 0.02279 0.0
C3720 C 0.32625 0.13056 0.01557 0.0
C3721 C 0.31707 0.14382 1.00611 0.0
C3722 C 0.29899 0.14306 1.00474 0.0
H3723 H 0.25947 0.12369 0.96491 0.0
H3724 H 0.27347 0.14114 0.97218 0.0
H3725 H 0.28015 0.11911 0.97608 0.0
H3726 H 0.29235 0.10441 0.02761 0.0
H3727 H 0.3239 0.10572 0.03014 0.0
H3728 H 0.86086 0.07721 0.75846 0.0
H3729 H 0.8532 0.04624 0.75686 0.0
H3730 H 0.895 0.03434 0.79632 0.0
H3731 H 0.90241 0.06488 0.79824 0.0
H3732 H 0.87329 0.01911 0.74455 0.0
H3733 H 0.85537 0.00861 0.82131 0.0
H3734 H 0.85736 0.03001 0.8109 0.0
H3735 H 0.87627 0.01859 0.81941 0.0
C3736 C 0.86831 0.06792 0.7668 0.0
C3737 C 0.88221 0.0734 0.77845 0.0
C3738 C 0.86391 0.05031 0.76595 0.0
C3739 C 0.87327 0.03806 0.77687 0.0
C3740 C 0.88726 0.04359 0.78826 0.0
H3741 H 0.89764 0.93131 0.78355 0.0
H3742 H 0.89351 0.96257 0.7882 0.0
C3743 C 0.89161 0.06106 0.78914 0.0
C3744 C 0.86946 0.01929 0.77552 0.0
H3745 H 0.86436 0.98303 0.80342 0.0
C3746 C 0.87094 0.01123 0.75734 0.0
C3747 C 0.86639 0.00907 0.79226 0.0
C3748 C 0.86357 0.01706 0.81202 0.0
C3749 C 0.87054 0.99312 0.7556 0.0
C3750 C 0.86843 0.98288 0.7725 0.0
C3751 C 0.86613 0.99095 0.79055 0.0
C3752 C 0.86964 0.96377 0.77174 0.0
C3753 C 0.87328 0.98505 0.73586 0.0
C3754 C 0.85725 0.95409 0.76157 0.0
C3755 C 0.85958 0.93632 0.75889 0.0
C3756 C 0.87433 0.92794 0.7664 0.0
C3757 C 0.88621 0.93747 0.77755 0.0
C3758 C 0.88386 0.95528 0.78021 0.0
H3759 H 0.87776 0.99466 0.72494 0.0
H3760 H 0.88295 0.97441 0.73671 0.0
H3761 H 0.86088 0.97943 0.73066 0.0
H3762 H 0.84605 0.96039 0.75519 0.0
H3763 H 0.85013 0.92926 0.75036 0.0
H3764 H 0.68102 0.15432 0.5017 0.0
H3765 H 0.71272 0.15347 0.49925 0.0
H3766 H 0.71335 0.10434 0.52916 0.0
H3767 H 0.68178 0.10516 0.53182 0.0
H3768 H 0.73528 0.12941 0.54552 0.0
H3769 H 0.74521 0.12342 0.46587 0.0
H3770 H 0.73108 0.14075 0.47315 0.0
H3771 H 0.72473 0.11868 0.47742 0.0
C3772 C 0.68791 0.14319 0.5074 0.0
C3773 C 0.67898 0.12985 0.51701 0.0
C3774 C 0.70599 0.14271 0.50597 0.0
C3775 C 0.71533 0.12882 0.51399 0.0
C3776 C 0.70635 0.11518 0.52291 0.0
H3777 H 0.82381 0.1058 0.49908 0.0
H3778 H 0.79231 0.10461 0.50217 0.0
C3779 C 0.68833 0.11564 0.52435 0.0
C3780 C 0.73448 0.12899 0.51425 0.0
H3781 H 0.77016 0.12892 0.48503 0.0
C3782 C 0.74294 0.12926 0.53231 0.0
C3783 C 0.74437 0.12868 0.49698 0.0
C3784 C 0.73594 0.12771 0.47724 0.0
C3785 C 0.76109 0.12935 0.53357 0.0
C3786 C 0.77096 0.12938 0.5163 0.0
C3787 C 0.76251 0.12899 0.49824 0.0
C3788 C 0.79013 0.12945 0.51651 0.0
C3789 C 0.76954 0.1291 0.55334 0.0
C3790 C 0.79934 0.14368 0.52393 0.0
C3791 C 0.8174 0.14437 0.52225 0.0
C3792 C 0.82642 0.1309 0.51298 0.0
C3793 C 0.81719 0.11639 0.50626 0.0
C3794 C 0.79921 0.1157 0.50796 0.0
H3795 H 0.76032 0.12506 0.56489 0.0
H3796 H 0.78084 0.12019 0.5535 0.0
H3797 H 0.77426 0.14231 0.55688 0.0
H3798 H 0.79252 0.15453 0.53035 0.0
H3799 H 0.82421 0.15573 0.52747 0.0
H3800 H 0.60414 0.07559 0.28716 0.0
H3801 H 0.60549 0.04407 0.29196 0.0
H3802 H 0.64066 0.03982 0.24343 0.0
H3803 H 0.6401 0.0711 0.23933 0.0
H3804 H 0.59537 0.01931 0.26915 0.0
H3805 H 0.66549 0.01023 0.28111 0.0
H3806 H 0.65557 0.03139 0.28125 0.0
H3807 H 0.66181 0.02135 0.25865 0.0
C3808 C 0.61241 0.0679 0.27782 0.0
C3809 C 0.6221 0.07576 0.263 0.0
C3810 C 0.61313 0.04992 0.2805 0.0
C3811 C 0.62343 0.03957 0.26828 0.0
C3812 C 0.63309 0.04751 0.25348 0.0
H3813 H 0.60431 0.92971 0.2469 0.0
H3814 H 0.60547 0.96146 0.24491 0.0
C3815 C 0.63265 0.06543 0.25106 0.0
C3816 C 0.62327 0.0204 0.27006 0.0
H3817 H 0.64964 0.98492 0.27111 0.0
C3818 C 0.60724 0.01179 0.26984 0.0
C3819 C 0.63873 0.01056 0.27122 0.0
C3820 C 0.65633 0.0189 0.27329 0.0
C3821 C 0.60623 0.99363 0.27034 0.0
C3822 C 0.62173 0.98378 0.2702 0.0
C3823 C 0.63775 0.99242 0.27082 0.0
C3824 C 0.62171 0.96453 0.27038 0.0
C3825 C 0.58856 0.98529 0.27147 0.0
C3826 C 0.63123 0.95566 0.28462 0.0
C3827 C 0.63108 0.93762 0.28531 0.0
C3828 C 0.62115 0.92804 0.27199 0.0
C3829 C 0.61194 0.93683 0.25743 0.0
C3830 C 0.61243 0.95495 0.25645 0.0
H3831 H 0.57876 0.99434 0.27754 0.0
H3832 H 0.58427 0.98166 0.25664 0.0
H3833 H 0.58882 0.97343 0.28061 0.0
H3834 H 0.63855 0.96271 0.29548 0.0
H3835 H 0.63829 0.93122 0.29675 0.0
H3836 H 0.67634 0.85618 0.0375 0.0
H3837 H 0.70796 0.85743 0.04156 0.0
H3838 H 0.71157 0.89138 0.99187 0.0
H3839 H 0.68023 0.89094 0.98849 0.0
H3840 H 0.73247 0.84674 0.01863 0.0
H3841 H 0.74157 0.91715 0.02824 0.0
H3842 H 0.72044 0.90721 0.02903 0.0
H3843 H 0.73021 0.91286 1.00608 0.0
C3844 C 0.68392 0.86415 0.02774 0.0
C3845 C 0.67585 0.87356 1.01281 0.0
C3846 C 0.70195 0.86482 0.02999 0.0
C3847 C 0.71215 0.87476 0.01723 0.0
C3848 C 0.70401 0.8841 1.00231 0.0
H3849 H 0.8224 0.85529 0.99673 0.0
H3850 H 0.79066 0.85634 0.99419 0.0
C3851 C 0.68605 0.88373 1.00031 0.0
C3852 C 0.73135 0.87465 0.01871 0.0
H3853 H 0.7668 0.90105 0.01871 0.0
C3854 C 0.73998 0.85862 0.01889 0.0
C3855 C 0.74118 0.89013 0.01928 0.0
C3856 C 0.73283 0.90778 0.02087 0.0
C3857 C 0.75815 0.85764 0.01931 0.0
C3858 C 0.76798 0.87314 0.0187 0.0
C3859 C 0.75932 0.88915 0.01881 0.0
C3860 C 0.78723 0.87316 0.01912 0.0
C3861 C 0.76652 0.84002 0.02093 0.0
C3862 C 0.79591 0.88302 0.0332 0.0
C3863 C 0.81394 0.8829 0.0342 0.0
C3864 C 0.82371 0.87268 0.02135 0.0
C3865 C 0.81513 0.86314 1.00691 0.0
C3866 C 0.79702 0.86358 1.00562 0.0
H3867 H 0.75745 0.8303 0.02715 0.0
H3868 H 0.77029 0.83548 1.00624 0.0
H3869 H 0.77831 0.84047 0.03018 0.0
H3870 H 0.78871 0.89057 0.04373 0.0
H3871 H 0.82015 0.89039 0.04553 0.0
H3872 H 0.64704 0.57863 0.75993 0.0
H3873 H 0.65476 0.54792 0.75567 0.0
H3874 H 0.60934 0.53305 0.78829 0.0
H3875 H 0.60212 0.56337 0.79324 0.0
H3876 H 0.63655 0.51441 0.7992 0.0
H3877 H 0.63227 0.51482 0.71846 0.0
H3878 H 0.64794 0.52923 0.72898 0.0
H3879 H 0.62521 0.53294 0.73295 0.0
C3880 C 0.63876 0.56874 0.76612 0.0
C3881 C 0.62392 0.57334 0.77678 0.0
C3882 C 0.64312 0.55123 0.76364 0.0
C3883 C 0.63251 0.53814 0.77146 0.0
C3884 C 0.61777 0.54286 0.78216 0.0
H3885 H 0.60126 0.43943 0.73917 0.0
H3886 H 0.60869 0.46971 0.74442 0.0
C3887 C 0.61358 0.56023 0.78487 0.0
C3888 C 0.63612 0.51943 0.76844 0.0
H3889 H 0.63615 0.48799 0.73362 0.0
C3890 C 0.6367 0.5086 0.78486 0.0
C3891 C 0.63638 0.51192 0.74971 0.0
C3892 C 0.6353 0.52276 0.73149 0.0
C3893 C 0.63615 0.49048 0.78311 0.0
C3894 C 0.63564 0.48298 0.76438 0.0
C3895 C 0.63646 0.49379 0.74797 0.0
C3896 C 0.63175 0.46432 0.76134 0.0
C3897 C 0.63484 0.47968 0.80135 0.0
C3898 C 0.64221 0.45111 0.76915 0.0
C3899 C 0.63772 0.43366 0.7665 0.0
C3900 C 0.62293 0.42923 0.75568 0.0
C3901 C 0.6127 0.44245 0.74765 0.0
C3902 C 0.61701 0.45978 0.75054 0.0
H3903 H 0.6319 0.48769 0.81434 0.0
H3904 H 0.6246 0.46966 0.79986 0.0
H3905 H 0.64738 0.47302 0.80393 0.0
H3906 H 0.65385 0.45426 0.77719 0.0
H3907 H 0.64589 0.42367 0.77269 0.0
H3908 H 0.82102 0.34617 0.02895 0.0
H3909 H 0.78926 0.34706 0.03057 0.0
H3910 H 0.78946 0.39736 1.00322 0.0
H3911 H 0.82108 0.39648 1.00132 0.0
H3912 H 0.76593 0.3708 0.04716 0.0
H3913 H 0.75902 0.36815 0.9669 0.0
H3914 H 0.77922 0.36353 0.97911 0.0
H3915 H 0.77238 0.38557 0.97553 0.0
C3916 C 0.81428 0.3575 0.02353 0.0
C3917 C 0.82346 0.37117 1.01482 0.0
C3918 C 0.79617 0.35797 0.0244 0.0
C3919 C 0.78705 0.37208 0.01656 0.0
C3920 C 0.79626 0.38617 1.0089 0.0
H3921 H 0.67875 0.39693 0.03279 0.0
H3922 H 0.71034 0.39749 0.03026 0.0
C3923 C 0.81432 0.3857 1.00798 0.0
C3924 C 0.76788 0.37194 0.01601 0.0
H3925 H 0.73328 0.37306 0.98506 0.0
C3926 C 0.75877 0.37125 0.0336 0.0
C3927 C 0.75863 0.37231 0.99824 0.0
C3928 C 0.76778 0.37227 0.97885 0.0
C3929 C 0.7406 0.37127 0.03395 0.0
C3930 C 0.73135 0.37219 0.01622 0.0
C3931 C 0.74045 0.37253 0.9986 0.0
C3932 C 0.7122 0.37268 0.01579 0.0
C3933 C 0.73143 0.3701 0.05328 0.0
C3934 C 0.70279 0.35894 1.00759 0.0
C3935 C 0.68469 0.35864 1.0089 0.0
C3936 C 0.67584 0.37209 0.01839 0.0
C3937 C 0.68527 0.38631 0.02555 0.0
C3938 C 0.7033 0.38661 0.02422 0.0
H3939 H 0.74016 0.36531 0.06493 0.0
H3940 H 0.72677 0.38317 0.05751 0.0
H3941 H 0.72001 0.36137 0.05235 0.0
H3942 H 0.70948 0.34816 1.00087 0.0
H3943 H 0.67773 0.34756 1.0032 0.0
H3944 H 0.85647 0.57256 0.2506 0.0
H3945 H 0.85514 0.54103 0.25333 0.0
H3946 H 0.90411 0.54091 0.28358 0.0
H3947 H 0.90545 0.57259 0.28106 0.0
H3948 H 0.87976 0.51888 0.23705 0.0
H3949 H 0.8737 0.50845 0.3166 0.0
H3950 H 0.86926 0.52909 0.30523 0.0
H3951 H 0.89124 0.52238 0.30947 0.0
C3952 C 0.86681 0.56586 0.25816 0.0
C3953 C 0.88111 0.575 0.26557 0.0
C3954 C 0.86604 0.54785 0.25965 0.0
C3955 C 0.87949 0.53866 0.2687 0.0
C3956 C 0.89348 0.54779 0.27678 0.0
H3957 H 0.90578 0.42997 0.25342 0.0
H3958 H 0.90451 0.46166 0.25125 0.0
C3959 C 0.89425 0.56587 0.2753 0.0
C3960 C 0.87941 0.51948 0.26833 0.0
H3961 H 0.87906 0.48358 0.29726 0.0
C3962 C 0.87955 0.51114 0.2502 0.0
C3963 C 0.87901 0.50947 0.28551 0.0
C3964 C 0.87814 0.51776 0.30533 0.0
C3965 C 0.87946 0.493 0.24879 0.0
C3966 C 0.87947 0.48299 0.26597 0.0
C3967 C 0.87915 0.49133 0.2841 0.0
C3968 C 0.87961 0.46381 0.26557 0.0
C3969 C 0.87907 0.48472 0.22895 0.0
C3970 C 0.866 0.45456 0.2742 0.0
C3971 C 0.86673 0.43653 0.27549 0.0
C3972 C 0.88115 0.42744 0.26829 0.0
C3973 C 0.89448 0.43665 0.259 0.0
C3974 C 0.89375 0.45473 0.25772 0.0
H3975 H 0.87478 0.494 0.21757 0.0
H3976 H 0.8923 0.48022 0.22513 0.0
H3977 H 0.87029 0.47332 0.22878 0.0
H3978 H 0.85498 0.46133 0.28032 0.0
H3979 H 0.85625 0.42977 0.28272 0.0
H3980 H 0.67838 0.65421 0.52875 0.0
H3981 H 0.7101 0.65351 0.53137 0.0
H3982 H 0.71105 0.60439 0.50153 0.0
H3983 H 0.67948 0.60508 0.49868 0.0
H3984 H 0.73362 0.62885 0.5473 0.0
H3985 H 0.74152 0.63619 0.46752 0.0
H3986 H 0.72118 0.64009 0.47972 0.0
H3987 H 0.72809 0.61829 0.47475 0.0
C3988 C 0.68535 0.64317 0.52299 0.0
C3989 C 0.67652 0.6298 0.51331 0.0
C3990 C 0.70344 0.6428 0.52446 0.0
C3991 C 0.71289 0.62909 0.51624 0.0
C3992 C 0.704 0.61526 0.50758 0.0
H3993 H 0.82169 0.60528 0.5326 0.0
H3994 H 0.79008 0.60445 0.53044 0.0
C3995 C 0.68597 0.61563 0.50608 0.0
C3996 C 0.73207 0.6295 0.5161 0.0
H3997 H 0.76704 0.63062 0.48572 0.0
C3998 C 0.74095 0.62927 0.53387 0.0
C3999 C 0.74154 0.63029 0.49852 0.0
C4000 C 0.73263 0.63139 0.47903 0.0
C4001 C 0.75914 0.62947 0.53452 0.0
C4002 C 0.76862 0.62971 0.51691 0.0
C4003 C 0.75972 0.63027 0.49917 0.0
C4004 C 0.7878 0.62956 0.51667 0.0
C4005 C 0.76803 0.62968 0.55406 0.0
C4006 C 0.79702 0.64355 0.50871 0.0
C4007 C 0.81512 0.64399 0.50974 0.0
C4008 C 0.82422 0.63041 0.51873 0.0
C4009 C 0.81499 0.616 0.52574 0.0
C4010 C 0.79694 0.61556 0.52467 0.0
H4011 H 0.75913 0.63397 0.5658 0.0
H4012 H 0.77253 0.6164 0.55764 0.0
H4013 H 0.7795 0.63837 0.55389 0.0
H4014 H 0.79017 0.6544 0.50228 0.0
H4015 H 0.82192 0.65523 0.50418 0.0
H4016 H 0.40482 0.5706 0.25031 0.0
H4017 H 0.40333 0.53892 0.24784 0.0
H4018 H 0.35388 0.53935 0.27707 0.0
H4019 H 0.35535 0.57088 0.27974 0.0
H4020 H 0.37836 0.51725 0.29404 0.0
H4021 H 0.37314 0.50639 0.21447 0.0
H4022 H 0.39058 0.52038 0.22181 0.0
H4023 H 0.36854 0.52707 0.22562 0.0
C4024 C 0.39349 0.56394 0.25585 0.0
C4025 C 0.38025 0.57316 0.2653 0.0
C4026 C 0.39263 0.54587 0.25439 0.0
C4027 C 0.37847 0.53683 0.26223 0.0
C4028 C 0.36492 0.54611 0.27095 0.0
H4029 H 0.35449 0.42806 0.24929 0.0
H4030 H 0.35353 0.45965 0.25124 0.0
C4031 C 0.36577 0.56411 0.27241 0.0
C4032 C 0.37832 0.51766 0.26275 0.0
H4033 H 0.37805 0.4816 0.23413 0.0
C4034 C 0.37825 0.50943 0.28095 0.0
C4035 C 0.37804 0.50756 0.24565 0.0
C4036 C 0.37743 0.51575 0.22576 0.0
C4037 C 0.37806 0.49131 0.28251 0.0
C4038 C 0.37817 0.4812 0.26542 0.0
C4039 C 0.37807 0.48943 0.24721 0.0
C4040 C 0.37817 0.46203 0.26601 0.0
C4041 C 0.37745 0.48314 0.30242 0.0
C4042 C 0.39221 0.4529 0.27401 0.0
C4043 C 0.39277 0.43481 0.27298 0.0
C4044 C 0.37936 0.42564 0.26379 0.0
C4045 C 0.36503 0.43479 0.25644 0.0
C4046 C 0.36448 0.45283 0.25747 0.0
H4047 H 0.37319 0.49252 0.31369 0.0
H4048 H 0.36853 0.47184 0.30259 0.0
H4049 H 0.39059 0.47849 0.30637 0.0
H4050 H 0.40301 0.4598 0.28043 0.0
H4051 H 0.404 0.42807 0.27868 0.0
H4052 H 0.32292 0.59924 0.99838 0.0
H4053 H 0.2918 0.59539 1.00351 0.0
H4054 H 0.29019 0.64278 0.03662 0.0
H4055 H 0.32146 0.64671 0.03162 0.0
H4056 H 0.26968 0.61316 0.05197 0.0
H4057 H 0.2574 0.62795 0.97394 0.0
H4058 H 0.27286 0.61114 0.97917 0.0
H4059 H 0.27767 0.63313 0.98569 0.0
C4060 C 0.31599 0.60873 1.00698 0.0
C4061 C 0.32454 0.6234 1.01442 0.0
C4062 C 0.29822 0.60652 1.00984 0.0
C4063 C 0.2887 0.61894 0.02016 0.0
C4064 C 0.29735 0.6331 0.02853 0.0
H4065 H 0.18717 0.65034 0.04806 0.0
H4066 H 0.21777 0.64323 0.04605 0.0
C4067 C 0.31517 0.63534 0.02566 0.0
C4068 C 0.26958 0.61781 0.02115 0.0
H4069 H 0.23311 0.62284 0.99363 0.0
C4070 C 0.26165 0.61513 0.03922 0.0
C4071 C 0.2592 0.62017 1.00441 0.0
C4072 C 0.26713 0.62337 0.98469 0.0
C4073 C 0.24353 0.61516 0.04109 0.0
C4074 C 0.23315 0.6184 0.0245 0.0
C4075 C 0.24109 0.62034 1.0063 0.0
C4076 C 0.21431 0.62188 0.02605 0.0
C4077 C 0.23571 0.61191 0.06085 0.0
C4078 C 0.20215 0.61262 1.0149 0.0
C4079 C 0.18448 0.61686 0.0158 0.0
C4080 C 0.17885 0.6305 0.02773 0.0
C4081 C 0.19109 0.63974 0.03872 0.0
C4082 C 0.20861 0.63556 0.0378 0.0
H4083 H 0.24432 0.60365 0.0699 0.0
H4084 H 0.23408 0.62445 0.06852 0.0
H4085 H 0.22282 0.60557 0.05972 0.0
H4086 H 0.20634 0.60215 1.00554 0.0
H4087 H 0.17528 0.60951 1.00724 0.0
H4088 H 0.13507 0.42579 0.75262 0.0
H4089 H 0.14276 0.45657 0.74877 0.0
H4090 H 0.11546 0.46855 0.80179 0.0
H4091 H 0.10811 0.4381 0.80582 0.0
H4092 H 0.11929 0.48327 0.74469 0.0
H4093 H 0.16009 0.49516 0.80935 0.0
H4094 H 0.15561 0.4736 0.8004 0.0
H4095 H 0.14011 0.48465 0.81551 0.0
C4096 C 0.13106 0.435 0.76359 0.0
C4097 C 0.121 0.42963 0.77948 0.0
C4098 C 0.1354 0.45253 0.76138 0.0
C4099 C 0.12992 0.4648 0.77517 0.0
C4100 C 0.12018 0.45929 0.79121 0.0
H4101 H 0.10345 0.57163 0.77904 0.0
H4102 H 0.10721 0.54026 0.78353 0.0
C4103 C 0.11581 0.4419 0.79337 0.0
C4104 C 0.13276 0.48358 0.7721 0.0
H4105 H 0.14609 0.52034 0.79537 0.0
C4106 C 0.12547 0.49134 0.75556 0.0
C4107 C 0.14087 0.49409 0.78629 0.0
C4108 C 0.14979 0.48641 0.80378 0.0
C4109 C 0.12522 0.50942 0.75341 0.0
C4110 C 0.13237 0.5199 0.76817 0.0
C4111 C 0.1404 0.51218 0.78424 0.0
C4112 C 0.13114 0.53894 0.76723 0.0
C4113 C 0.11681 0.51733 0.73572 0.0
C4114 C 0.14358 0.54845 0.75698 0.0
C4115 C 0.14149 0.56627 0.75442 0.0
C4116 C 0.12688 0.57482 0.76204 0.0
C4117 C 0.11481 0.56536 0.77302 0.0
C4118 C 0.11692 0.5475 0.77557 0.0
H4119 H 0.11197 0.50737 0.72542 0.0
H4120 H 0.10578 0.52565 0.74025 0.0
H4121 H 0.12627 0.52574 0.72804 0.0
H4122 H 0.15462 0.54199 0.75048 0.0
H4123 H 0.15103 0.57324 0.74594 0.0
H4124 H 0.1749 0.38615 0.52644 0.0
H4125 H 0.20568 0.39432 0.52831 0.0
H4126 H 0.21674 0.36112 0.47943 0.0
H4127 H 0.18626 0.35354 0.4771 0.0
H4128 H 0.23231 0.37313 0.53559 0.0
H4129 H 0.24342 0.40326 0.46397 0.0
H4130 H 0.22192 0.39942 0.47336 0.0
H4131 H 0.23363 0.38236 0.46121 0.0
C4132 C 0.18389 0.38097 0.51588 0.0
C4133 C 0.17821 0.36929 0.50161 0.0
C4134 C 0.20144 0.38557 0.51697 0.0
C4135 C 0.21348 0.37862 0.50374 0.0
C4136 C 0.20768 0.36708 0.48943 0.0
H4137 H 0.32103 0.35468 0.49797 0.0
H4138 H 0.28975 0.35843 0.49282 0.0
C4139 C 0.19025 0.36256 0.4883 0.0
C4140 C 0.23233 0.38188 0.50587 0.0
H4141 H 0.2689 0.39129 0.47989 0.0
C4142 C 0.24026 0.37747 0.52354 0.0
C4143 C 0.24272 0.38752 0.49013 0.0
C4144 C 0.23493 0.39358 0.47119 0.0
C4145 C 0.25835 0.37764 0.52556 0.0
C4146 C 0.26873 0.38239 0.50951 0.0
C4147 C 0.26085 0.38747 0.49208 0.0
C4148 C 0.28784 0.38149 0.51055 0.0
C4149 C 0.26633 0.37205 0.54458 0.0
C4150 C 0.29707 0.39353 0.52172 0.0
C4151 C 0.31485 0.39144 0.52462 0.0
C4152 C 0.32367 0.37724 0.51646 0.0
C4153 C 0.31455 0.36568 0.50448 0.0
C4154 C 0.29672 0.36782 0.50152 0.0
H4155 H 0.25655 0.36673 0.55482 0.0
H4156 H 0.27645 0.36207 0.54203 0.0
H4157 H 0.27267 0.38335 0.55157 0.0
H4158 H 0.29041 0.40421 0.52868 0.0
H4159 H 0.32157 0.40062 0.53384 0.0
H4160 H 0.12171 0.10339 0.06448 0.0
H4161 H 0.11907 0.10812 0.0993 0.0
H4162 H 0.10624 0.16174 0.08917 0.0
H4163 H 0.10911 0.15716 0.05399 0.0
H4164 H 0.13136 0.15802 0.11712 0.0
H4165 H 0.07708 0.11379 0.1339 0.0
H4166 H 0.09396 0.10304 0.12066 0.0
H4167 H 0.08212 0.12048 0.10941 0.0
C4168 C 0.11807 0.11618 0.06953 0.0
C4169 C 0.11557 0.12989 0.05628 0.0
C4170 C 0.11645 0.11883 0.08955 0.0
C4171 C 0.11219 0.13523 0.09699 0.0
C4172 C 0.10942 0.14893 0.08383 0.0
H4173 H 0.09611 0.14405 0.22398 0.0
H4174 H 0.0915 0.1469 0.1888 0.0
C4175 C 0.11098 0.14627 0.06369 0.0
C4176 C 0.11183 0.13813 0.11848 0.0
H4177 H 0.0953 0.12182 0.16085 0.0
C4178 C 0.12327 0.15028 0.12665 0.0
C4179 C 0.10113 0.12825 0.13105 0.0
C4180 C 0.08775 0.11579 0.1233 0.0
C4181 C 0.12495 0.15215 0.14692 0.0
C4182 C 0.11512 0.14142 0.15949 0.0
C4183 C 0.10301 0.12993 0.15132 0.0
C4184 C 0.11804 0.14105 0.18099 0.0
C4185 C 0.13737 0.16557 0.15467 0.0
C4186 C 0.13446 0.13685 0.18842 0.0
C4187 C 0.13712 0.13524 0.20845 0.0
C4188 C 0.12341 0.13769 0.2217 0.0
C4189 C 0.10701 0.14222 0.21428 0.0
C4190 C 0.10433 0.14377 0.19414 0.0
H4191 H 0.13933 0.17626 0.14407 0.0
H4192 H 0.13267 0.17117 0.16855 0.0
H4193 H 0.15015 0.15941 0.15731 0.0
H4194 H 0.14517 0.13428 0.17869 0.0
H4195 H 0.14993 0.13165 0.2135 0.0
H4196 H 0.10888 0.84889 0.47463 0.0
H4197 H 0.10738 0.8443 0.43939 0.0
H4198 H 0.12198 0.89753 0.42977 0.0
H4199 H 0.12324 0.90231 0.46474 0.0
H4200 H 0.0961 0.88735 0.40496 0.0
H4201 H 0.14956 0.83913 0.40428 0.0
H4202 H 0.1316 0.83373 0.41973 0.0
H4203 H 0.14478 0.85228 0.42526 0.0
C4204 C 0.11161 0.85968 0.46503 0.0
C4205 C 0.11627 0.87596 0.47268 0.0
C4206 C 0.11089 0.85698 0.44482 0.0
C4207 C 0.11488 0.87047 0.43179 0.0
C4208 C 0.11892 0.88686 0.43942 0.0
H4209 H 0.15181 0.87203 0.31428 0.0
H4210 H 0.14713 0.87092 0.34924 0.0
C4211 C 0.11965 0.88956 0.45953 0.0
C4212 C 0.11527 0.86765 0.41024 0.0
H4213 H 0.13642 0.84551 0.37423 0.0
C4214 C 0.10481 0.87808 0.39825 0.0
C4215 C 0.12678 0.85571 0.40137 0.0
C4216 C 0.13895 0.84466 0.41325 0.0
C4217 C 0.1057 0.87711 0.37781 0.0
C4218 C 0.11719 0.86515 0.36894 0.0
C4219 C 0.12747 0.85455 0.38093 0.0
C4220 C 0.11989 0.86455 0.34738 0.0
C4221 C 0.09485 0.88943 0.3659 0.0
C4222 C 0.10625 0.86087 0.33441 0.0
C4223 C 0.10889 0.86149 0.31418 0.0
C4224 C 0.12526 0.86577 0.30646 0.0
C4225 C 0.13899 0.86876 0.31954 0.0
C4226 C 0.13635 0.86812 0.33966 0.0
H4227 H 0.08962 0.90024 0.3748 0.0
H4228 H 0.10254 0.895 0.35377 0.0
H4229 H 0.08372 0.88229 0.35957 0.0
H4230 H 0.09349 0.85772 0.33992 0.0
H4231 H 0.09801 0.8591 0.30462 0.0
H4232 H 0.35153 0.87323 0.71454 0.0
H4233 H 0.3562 0.87002 0.67982 0.0
H4234 H 0.40728 0.8495 0.69058 0.0
H4235 H 0.40282 0.85302 0.7257 0.0
H4236 H 0.40798 0.87376 0.66219 0.0
H4237 H 0.35517 0.8278 0.64573 0.0
H4238 H 0.34714 0.84647 0.65833 0.0
H4239 H 0.36221 0.83214 0.67026 0.0
C4240 C 0.36372 0.86781 0.70967 0.0
C4241 C 0.37676 0.86331 0.72311 0.0
C4242 C 0.36633 0.86587 0.68967 0.0
C4243 C 0.38198 0.8592 0.68242 0.0
C4244 C 0.39502 0.85455 0.69575 0.0
H4245 H 0.38676 0.84042 0.55566 0.0
H4246 H 0.38915 0.83571 0.59084 0.0
C4247 C 0.39242 0.85651 0.71587 0.0
C4248 C 0.38489 0.85812 0.66093 0.0
H4249 H 0.36615 0.84427 0.61862 0.0
C4250 C 0.39896 0.86709 0.65271 0.0
C4251 C 0.37338 0.84917 0.64839 0.0
C4252 C 0.35875 0.8382 0.65615 0.0
C4253 C 0.40126 0.86812 0.63242 0.0
C4254 C 0.38899 0.86027 0.61986 0.0
C4255 C 0.37547 0.85051 0.62811 0.0
C4256 C 0.38923 0.86296 0.5983 0.0
C4257 C 0.41684 0.87771 0.62469 0.0
C4258 C 0.3886 0.8798 0.5906 0.0
C4259 C 0.38733 0.88253 0.57055 0.0
C4260 C 0.38649 0.86848 0.5575 0.0
C4261 C 0.38753 0.85157 0.56516 0.0
C4262 C 0.3888 0.84885 0.58533 0.0
H4263 H 0.42771 0.87747 0.63527 0.0
H4264 H 0.4214 0.8721 0.61076 0.0
H4265 H 0.4133 0.89148 0.62219 0.0
H4266 H 0.38846 0.89094 0.60017 0.0
H4267 H 0.38648 0.89575 0.56535 0.0
H4268 H 0.35213 0.13 0.81411 0.0
H4269 H 0.35678 0.13247 0.84897 0.0
H4270 H 0.41043 0.1453 0.83909 0.0
H4271 H 0.40593 0.14256 0.80389 0.0
H4272 H 0.40683 0.12034 0.86704 0.0
H4273 H 0.36217 0.17429 0.88373 0.0
H4274 H 0.35154 0.15728 0.87058 0.0
H4275 H 0.36884 0.16925 0.85924 0.0
C4276 C 0.36491 0.13357 0.81922 0.0
C4277 C 0.37864 0.13612 0.80602 0.0
C4278 C 0.36752 0.1351 0.83928 0.0
C4279 C 0.3839 0.13934 0.84682 0.0
C4280 C 0.39762 0.14213 0.8337 0.0
H4281 H 0.39372 0.15628 0.97371 0.0
H4282 H 0.39591 0.16064 0.93841 0.0
C4283 C 0.39501 0.14065 0.81353 0.0
C4284 C 0.38677 0.13971 0.86835 0.0
H4285 H 0.37056 0.15633 0.91073 0.0
C4286 C 0.39905 0.1284 0.87655 0.0
C4287 C 0.37686 0.15037 0.88092 0.0
C4288 C 0.36425 0.16361 0.87316 0.0
C4289 C 0.40107 0.12686 0.89683 0.0
C4290 C 0.39034 0.13668 0.90942 0.0
C4291 C 0.37868 0.14862 0.90121 0.0
C4292 C 0.39025 0.13398 0.93098 0.0
C4293 C 0.41467 0.11462 0.90458 0.0
C4294 C 0.38635 0.11759 0.93869 0.0
C4295 C 0.38512 0.11507 0.95879 0.0
C4296 C 0.38766 0.12889 0.97186 0.0
C4297 C 0.39184 0.14529 0.96416 0.0
C4298 C 0.39301 0.14782 0.94394 0.0
H4299 H 0.42527 0.11264 0.89389 0.0
H4300 H 0.42036 0.11949 0.91834 0.0
H4301 H 0.40864 0.10181 0.90744 0.0
H4302 H 0.38376 0.10676 0.92913 0.0
H4303 H 0.3818 0.10225 0.96404 0.0
H4304 H 0.84896 0.86345 0.81426 0.0
H4305 H 0.85253 0.86224 0.84948 0.0
H4306 H 0.90775 0.86857 0.84287 0.0
H4307 H 0.9043 0.86903 0.80743 0.0
H4308 H 0.9014 0.84708 0.87218 0.0
H4309 H 0.85941 0.90454 0.8815 0.0
H4310 H 0.8481 0.88717 0.86979 0.0
H4311 H 0.86636 0.89719 0.85793 0.0
C4312 C 0.86191 0.86436 0.82026 0.0
C4313 C 0.87633 0.86645 0.80796 0.0
C4314 C 0.86392 0.86384 0.84048 0.0
C4315 C 0.88035 0.86589 0.84903 0.0
C4316 C 0.89489 0.86712 0.83675 0.0
H4317 H 0.88932 0.90159 0.96865 0.0
H4318 H 0.89069 0.89824 0.93345 0.0
C4319 C 0.89292 0.86734 0.81643 0.0
C4320 C 0.88223 0.86732 0.87067 0.0
H4321 H 0.86678 0.88919 0.91025 0.0
C4322 C 0.89389 0.85636 0.88049 0.0
C4323 C 0.87275 0.87965 0.88165 0.0
C4324 C 0.86111 0.89292 0.87216 0.0
C4325 C 0.89608 0.85717 0.90084 0.0
C4326 C 0.88595 0.86894 0.9119 0.0
C4327 C 0.87448 0.88002 0.902 0.0
C4328 C 0.88714 0.8704 0.93363 0.0
C4329 C 0.90958 0.84571 0.91014 0.0
C4330 C 0.88507 0.85586 0.94583 0.0
C4331 C 0.8847 0.85773 0.96616 0.0
C4332 C 0.88595 0.87422 0.97475 0.0
C4333 C 0.88834 0.88868 0.96257 0.0
C4334 C 0.88904 0.88678 0.94235 0.0
H4335 H 0.91979 0.84195 0.89957 0.0
H4336 H 0.91585 0.85222 0.92268 0.0
H4337 H 0.9033 0.83364 0.91537 0.0
H4338 H 0.88306 0.84313 0.93966 0.0
H4339 H 0.88255 0.84636 0.97507 0.0
H4340 H 0.85501 0.13151 0.71524 0.0
H4341 H 0.85956 0.13305 0.68029 0.0
H4342 H 0.91408 0.14209 0.68949 0.0
H4343 H 0.9097 0.1402 0.72475 0.0
H4344 H 0.87165 0.15792 0.65593 0.0
H4345 H 0.91506 0.10052 0.65344 0.0
H4346 H 0.90279 0.10618 0.67481 0.0
H4347 H 0.92231 0.11777 0.66893 0.0
C4348 C 0.86801 0.13394 0.70996 0.0
C4349 C 0.88201 0.1356 0.72299 0.0
C4350 C 0.87058 0.13484 0.68985 0.0
C4351 C 0.88721 0.13737 0.68209 0.0
C4352 C 0.90116 0.13973 0.69502 0.0
H4353 H 0.89674 0.15412 0.55466 0.0
H4354 H 0.89939 0.15847 0.58989 0.0
C4355 C 0.8986 0.1388 0.71524 0.0
C4356 C 0.88973 0.13708 0.6605 0.0
H4357 H 0.90921 0.11444 0.62373 0.0
C4358 C 0.88 0.14851 0.6489 0.0
C4359 C 0.90046 0.12468 0.65121 0.0
C4360 C 0.91065 0.11147 0.66267 0.0
C4361 C 0.88041 0.14769 0.62844 0.0
C4362 C 0.89113 0.13527 0.61916 0.0
C4363 C 0.90112 0.12407 0.63075 0.0
C4364 C 0.89092 0.13261 0.59759 0.0
C4365 C 0.86873 0.1596 0.61699 0.0
C4366 C 0.88601 0.11645 0.59002 0.0
C4367 C 0.88467 0.11388 0.56995 0.0
C4368 C 0.88826 0.12739 0.55676 0.0
C4369 C 0.89383 0.14342 0.56431 0.0
C4370 C 0.89519 0.14598 0.5845 0.0
H4371 H 0.85858 0.16559 0.62625 0.0
H4372 H 0.8766 0.17018 0.61057 0.0
H4373 H 0.86229 0.1525 0.60496 0.0
H4374 H 0.88272 0.10587 0.59969 0.0
H4375 H 0.88043 0.10132 0.56482 0.0
H4376 H 0.61361 0.10063 0.4674 0.0
H4377 H 0.61226 0.10444 0.43222 0.0
H4378 H 0.61838 0.15963 0.43926 0.0
H4379 H 0.61894 0.15593 0.47469 0.0
H4380 H 0.59705 0.15336 0.40974 0.0
H4381 H 0.65473 0.11166 0.40053 0.0
H4382 H 0.63738 0.1002 0.41211 0.0
H4383 H 0.64724 0.11848 0.4241 0.0
C4384 C 0.61442 0.11363 0.4615 0.0
C4385 C 0.6165 0.12796 0.4739 0.0
C4386 C 0.61382 0.11578 0.4413 0.0
C4387 C 0.61583 0.13226 0.43288 0.0
C4388 C 0.61699 0.14673 0.44528 0.0
H4389 H 0.65168 0.14103 0.31324 0.0
H4390 H 0.64836 0.14264 0.34845 0.0
C4391 C 0.61725 0.14461 0.46558 0.0
C4392 C 0.61734 0.13424 0.41127 0.0
H4393 H 0.63936 0.11891 0.37174 0.0
C4394 C 0.60638 0.14589 0.40144 0.0
C4395 C 0.62975 0.12484 0.40032 0.0
C4396 C 0.64306 0.11325 0.40983 0.0
C4397 C 0.60724 0.14811 0.38109 0.0
C4398 C 0.61905 0.13802 0.37005 0.0
C4399 C 0.63016 0.12658 0.37998 0.0
C4400 C 0.6205 0.13915 0.34832 0.0
C4401 C 0.59576 0.16159 0.37178 0.0
C4402 C 0.60595 0.13705 0.33616 0.0
C4403 C 0.60781 0.13656 0.31584 0.0
C4404 C 0.62431 0.1377 0.30723 0.0
C4405 C 0.63878 0.14012 0.31936 0.0
C4406 C 0.63688 0.14097 0.33957 0.0
H4407 H 0.59203 0.17182 0.38233 0.0
H4408 H 0.60225 0.16783 0.35921 0.0
H4409 H 0.58367 0.15531 0.36662 0.0
H4410 H 0.59321 0.1351 0.34235 0.0
H4411 H 0.59644 0.13438 0.30695 0.0
H4412 H 0.61178 0.90307 0.06415 0.0
H4413 H 0.61049 0.89945 0.09935 0.0
H4414 H 0.61455 0.84404 0.09254 0.0
H4415 H 0.61506 0.84758 0.05711 0.0
H4416 H 0.59346 0.85116 0.12196 0.0
H4417 H 0.65259 0.89077 0.13119 0.0
H4418 H 0.63565 0.90282 0.11958 0.0
H4419 H 0.64488 0.8842 0.10762 0.0
C4420 C 0.61217 0.89008 0.0701 0.0
C4421 C 0.61364 0.87562 0.05775 0.0
C4422 C 0.61161 0.88803 0.09031 0.0
C4423 C 0.61302 0.8715 0.0988 0.0
C4424 C 0.61362 0.85696 0.08647 0.0
H4425 H 0.64881 0.86105 0.21822 0.0
H4426 H 0.64524 0.85975 0.18304 0.0
C4427 C 0.61386 0.85899 0.06616 0.0
C4428 C 0.61444 0.86951 0.12043 0.0
H4429 H 0.63703 0.884 0.15997 0.0
C4430 C 0.60306 0.85827 0.13026 0.0
C4431 C 0.62718 0.87846 0.13139 0.0
C4432 C 0.64088 0.88958 0.12188 0.0
C4433 C 0.60385 0.85601 0.1506 0.0
C4434 C 0.61605 0.86563 0.16164 0.0
C4435 C 0.62754 0.87668 0.15173 0.0
C4436 C 0.61755 0.86434 0.18336 0.0
C4437 C 0.5919 0.84296 0.15991 0.0
C4438 C 0.60315 0.86695 0.19563 0.0
C4439 C 0.60514 0.86726 0.21595 0.0
C4440 C 0.62163 0.86543 0.22444 0.0
C4441 C 0.63592 0.86249 0.21219 0.0
C4442 C 0.63389 0.86182 0.19199 0.0
H4443 H 0.58771 0.83292 0.14933 0.0
H4444 H 0.5982 0.83641 0.17241 0.0
H4445 H 0.5801 0.84969 0.16518 0.0
H4446 H 0.59047 0.86943 0.18953 0.0
H4447 H 0.59391 0.86986 0.22493 0.0
H4448 H 0.64904 0.64235 0.71749 0.0
H4449 H 0.64564 0.64393 0.68229 0.0
H4450 H 0.59151 0.6309 0.68805 0.0
H4451 H 0.59471 0.63004 0.72342 0.0
H4452 H 0.63868 0.61934 0.65861 0.0
H4453 H 0.58717 0.66838 0.64883 0.0
H4454 H 0.59784 0.66502 0.67183 0.0
H4455 H 0.58033 0.65106 0.66441 0.0
C4456 C 0.6363 0.64018 0.71132 0.0
C4457 C 0.62212 0.63615 0.72337 0.0
C4458 C 0.63438 0.64103 0.69111 0.0
C4459 C 0.61827 0.63771 0.68228 0.0
C4460 C 0.60399 0.634 0.69433 0.0
H4461 H 0.61298 0.59969 0.56323 0.0
H4462 H 0.61175 0.60334 0.59842 0.0
C4463 C 0.60585 0.63343 0.71464 0.0
C4464 C 0.61693 0.63676 0.66055 0.0
H4465 H 0.59367 0.65077 0.62113 0.0
C4466 C 0.62888 0.62634 0.65048 0.0
C4467 C 0.60432 0.64601 0.64968 0.0
C4468 C 0.59181 0.65839 0.65922 0.0
C4469 C 0.6285 0.62475 0.63013 0.0
C4470 C 0.61536 0.63329 0.61934 0.0
C4471 C 0.60358 0.64397 0.62932 0.0
C4472 C 0.61386 0.63131 0.59775 0.0
C4473 C 0.64253 0.61421 0.62042 0.0
C4474 C 0.61424 0.64585 0.58539 0.0
C4475 C 0.61452 0.6438 0.56509 0.0
C4476 C 0.61453 0.62715 0.55674 0.0
C4477 C 0.61321 0.6127 0.56913 0.0
C4478 C 0.61266 0.61476 0.58933 0.0
H4479 H 0.65431 0.61329 0.62965 0.0
H4480 H 0.63772 0.60084 0.61793 0.0
H4481 H 0.64628 0.6199 0.60621 0.0
H4482 H 0.61501 0.65878 0.59144 0.0
H4483 H 0.6156 0.65521 0.55599 0.0
H4484 H 0.59329 0.36283 0.80673 0.0
H4485 H 0.58869 0.36089 0.84194 0.0
H4486 H 0.64335 0.36865 0.85152 0.0
H4487 H 0.64812 0.37022 0.81661 0.0
H4488 H 0.63058 0.34408 0.87577 0.0
H4489 H 0.58843 0.40241 0.878 0.0
H4490 H 0.58085 0.38534 0.86246 0.0
H4491 H 0.60067 0.39648 0.85671 0.0
C4492 C 0.60436 0.36393 0.81631 0.0
C4493 C 0.62106 0.36681 0.80868 0.0
C4494 C 0.60168 0.36298 0.8365 0.0
C4495 C 0.61562 0.36498 0.84953 0.0
C4496 C 0.63235 0.36716 0.84189 0.0
H4497 H 0.62238 0.40102 0.96668 0.0
H4498 H 0.62019 0.39639 0.93182 0.0
C4499 C 0.63504 0.36808 0.8218 0.0
C4500 C 0.61297 0.3653 0.87109 0.0
H4501 H 0.59373 0.38831 0.90773 0.0
C4502 C 0.62239 0.35365 0.88275 0.0
C4503 C 0.60245 0.37792 0.88031 0.0
C4504 C 0.59262 0.39136 0.86879 0.0
C4505 C 0.62187 0.35447 0.90321 0.0
C4506 C 0.61136 0.3671 0.91242 0.0
C4507 C 0.60166 0.37852 0.90075 0.0
C4508 C 0.61152 0.3698 0.93397 0.0
C4509 C 0.63323 0.34231 0.91474 0.0
C4510 C 0.60697 0.35654 0.94709 0.0
C4511 C 0.60828 0.35914 0.96728 0.0
C4512 C 0.61407 0.3751 0.97479 0.0
C4513 C 0.61795 0.38851 0.96158 0.0
C4514 C 0.61668 0.3859 0.94151 0.0
H4515 H 0.6433 0.33611 0.90554 0.0
H4516 H 0.63975 0.34927 0.92681 0.0
H4517 H 0.6251 0.33189 0.92109 0.0
H4518 H 0.60258 0.34411 0.94172 0.0
H4519 H 0.60513 0.34853 0.97695 0.0
H4520 H 0.89376 0.34623 0.05617 0.0
H4521 H 0.89669 0.3414 0.0913 0.0
H4522 H 0.88177 0.39438 0.10202 0.0
H4523 H 0.87913 0.39939 0.06723 0.0
H4524 H 0.90867 0.38426 0.12551 0.0
H4525 H 0.85552 0.33567 0.12794 0.0
H4526 H 0.87314 0.33065 0.11183 0.0
H4527 H 0.85951 0.34902 0.10689 0.0
C4528 C 0.8913 0.35691 0.066 0.0
C4529 C 0.88609 0.37317 0.05876 0.0
C4530 C 0.89283 0.35408 0.08612 0.0
C4531 C 0.88914 0.36744 0.09943 0.0
C4532 C 0.88462 0.38382 0.09215 0.0
H4533 H 0.85333 0.37131 0.21632 0.0
H4534 H 0.85812 0.36912 0.18147 0.0
C4535 C 0.88307 0.38665 0.07215 0.0
C4536 C 0.88943 0.3645 0.12092 0.0
H4537 H 0.8688 0.34279 0.15761 0.0
C4538 C 0.9001 0.37504 0.13252 0.0
C4539 C 0.87811 0.35261 0.13015 0.0
C4540 C 0.86579 0.34141 0.11864 0.0
C4541 C 0.89946 0.37434 0.15297 0.0
C4542 C 0.88803 0.36255 0.1622 0.0
C4543 C 0.87767 0.35171 0.1506 0.0
C4544 C 0.88529 0.36254 0.18373 0.0
C4545 C 0.91043 0.38684 0.1645 0.0
C4546 C 0.89887 0.35913 0.19687 0.0
C4547 C 0.89617 0.3604 0.21704 0.0
C4548 C 0.87982 0.36507 0.22448 0.0
C4549 C 0.86615 0.36779 0.21125 0.0
C4550 C 0.86884 0.36651 0.19121 0.0
H4551 H 0.9158 0.39736 0.15527 0.0
H4552 H 0.90277 0.39279 0.17641 0.0
H4553 H 0.92146 0.37974 0.17111 0.0
H4554 H 0.91162 0.35571 0.19153 0.0
H4555 H 0.907 0.35819 0.22675 0.0
H4556 H 0.8525 0.63041 0.31693 0.0
H4557 H 0.85705 0.63268 0.35183 0.0
H4558 H 0.91052 0.64641 0.3422 0.0
H4559 H 0.90611 0.64393 0.30696 0.0
H4560 H 0.90698 0.62086 0.36986 0.0
H4561 H 0.86205 0.67452 0.38692 0.0
H4562 H 0.85162 0.6576 0.37341 0.0
H4563 H 0.86896 0.66978 0.36244 0.0
C4564 C 0.86521 0.63415 0.32212 0.0
C4565 C 0.87893 0.63703 0.30899 0.0
C4566 C 0.86776 0.63555 0.34219 0.0
C4567 C 0.88407 0.63997 0.34978 0.0
C4568 C 0.89777 0.6431 0.33675 0.0
H4569 H 0.89316 0.65566 0.47682 0.0
H4570 H 0.89575 0.66034 0.44162 0.0
C4571 C 0.89521 0.64176 0.31657 0.0
C4572 C 0.88689 0.64018 0.3713 0.0
H4573 H 0.87042 0.65635 0.41376 0.0
C4574 C 0.89915 0.62881 0.37942 0.0
C4575 C 0.87689 0.6507 0.38392 0.0
C4576 C 0.86427 0.66397 0.37623 0.0
C4577 C 0.90105 0.62706 0.39969 0.0
C4578 C 0.89023 0.63674 0.41231 0.0
C4579 C 0.8786 0.64876 0.40419 0.0
C4580 C 0.88998 0.6338 0.43381 0.0
C4581 C 0.91459 0.61473 0.40739 0.0
C4582 C 0.88591 0.61735 0.44126 0.0
C4583 C 0.88444 0.61464 0.4613 0.0
C4584 C 0.88692 0.62834 0.47455 0.0
C4585 C 0.89131 0.64477 0.46712 0.0
C4586 C 0.89271 0.64749 0.44696 0.0
H4587 H 0.92524 0.61283 0.39674 0.0
H4588 H 0.92022 0.61948 0.42124 0.0
H4589 H 0.90852 0.60192 0.41009 0.0
H4590 H 0.88334 0.60664 0.43152 0.0
H4591 H 0.88096 0.60181 0.46635 0.0
H4592 H 0.35078 0.37037 0.31647 0.0
H4593 H 0.3554 0.36931 0.35142 0.0
H4594 H 0.40921 0.35668 0.34227 0.0
H4595 H 0.40475 0.35802 0.30695 0.0
H4596 H 0.36635 0.34397 0.37638 0.0
H4597 H 0.41248 0.39926 0.37715 0.0
H4598 H 0.39967 0.39388 0.35608 0.0
H4599 H 0.41861 0.38137 0.36195 0.0
C4600 C 0.36363 0.36724 0.32176 0.0
C4601 C 0.37742 0.36439 0.30872 0.0
C4602 C 0.36623 0.36662 0.34188 0.0
C4603 C 0.38272 0.36322 0.34963 0.0
C4604 C 0.39643 0.35969 0.33671 0.0
H4605 H 0.39275 0.34834 0.47714 0.0
H4606 H 0.39483 0.34349 0.44197 0.0
C4607 C 0.39382 0.36029 0.31648 0.0
C4608 C 0.38534 0.36385 0.3712 0.0
H4609 H 0.4059 0.38643 0.40729 0.0
C4610 C 0.37514 0.35313 0.38313 0.0
C4611 C 0.39663 0.37597 0.38011 0.0
C4612 C 0.40739 0.3884 0.36823 0.0
C4613 C 0.37567 0.35438 0.40356 0.0
C4614 C 0.38695 0.3665 0.41247 0.0
C4615 C 0.39737 0.37702 0.40055 0.0
C4616 C 0.38706 0.3695 0.43398 0.0
C4617 C 0.36356 0.34322 0.41538 0.0
C4618 C 0.38268 0.38589 0.44136 0.0
C4619 C 0.38163 0.38873 0.46142 0.0
C4620 C 0.385 0.37528 0.47476 0.0
C4621 C 0.39002 0.35901 0.46738 0.0
C4622 C 0.39107 0.35617 0.44722 0.0
H4623 H 0.35312 0.33747 0.40632 0.0
H4624 H 0.37101 0.33246 0.42206 0.0
H4625 H 0.35748 0.35084 0.42724 0.0
H4626 H 0.37959 0.39643 0.43156 0.0
H4627 H 0.37777 0.40147 0.46644 0.0
H4628 H 0.40623 0.641 0.22358 0.0
H4629 H 0.41068 0.64318 0.1883 0.0
H4630 H 0.35667 0.63166 0.17884 0.0
H4631 H 0.35208 0.62973 0.21373 0.0
H4632 H 0.40612 0.61773 0.16089 0.0
H4633 H 0.36323 0.67291 0.14333 0.0
H4634 H 0.36993 0.66806 0.16787 0.0
H4635 H 0.35211 0.65652 0.15698 0.0
C4636 C 0.39524 0.63928 0.21399 0.0
C4637 C 0.37878 0.63525 0.22162 0.0
C4638 C 0.39782 0.64044 0.1938 0.0
C4639 C 0.38397 0.63782 0.1808 0.0
C4640 C 0.36751 0.63414 0.18844 0.0
H4641 H 0.37968 0.59886 0.06445 0.0
H4642 H 0.38209 0.60377 0.09927 0.0
C4643 C 0.36493 0.63292 0.20852 0.0
C4644 C 0.38674 0.63776 0.15928 0.0
H4645 H 0.37068 0.65412 0.11669 0.0
C4646 C 0.39854 0.62588 0.15125 0.0
C4647 C 0.37708 0.64853 0.14656 0.0
C4648 C 0.36502 0.66235 0.15413 0.0
C4649 C 0.40029 0.62386 0.131 0.0
C4650 C 0.38976 0.6338 0.11831 0.0
C4651 C 0.37862 0.64631 0.12632 0.0
C4652 C 0.38938 0.63076 0.09683 0.0
C4653 C 0.41338 0.61101 0.12342 0.0
C4654 C 0.39243 0.64434 0.0836 0.0
C4655 C 0.39098 0.64158 0.06347 0.0
C4656 C 0.38627 0.62521 0.05612 0.0
C4657 C 0.38344 0.61163 0.06944 0.0
C4658 C 0.38492 0.61438 0.08948 0.0
H4659 H 0.42401 0.60887 0.13404 0.0
H4660 H 0.40687 0.59838 0.12094 0.0
H4661 H 0.4191 0.61543 0.10947 0.0
H4662 H 0.39576 0.65713 0.08887 0.0
H4663 H 0.39312 0.65239 0.05373 0.0
H4664 H 0.09972 0.64449 0.80298 0.0
H4665 H 0.09559 0.64739 0.83821 0.0
H4666 H 0.14815 0.63043 0.84775 0.0
H4667 H 0.15247 0.62781 0.81286 0.0
H4668 H 0.09719 0.62272 0.86635 0.0
H4669 H 0.14657 0.67257 0.88222 0.0
H4670 H 0.13943 0.66788 0.85782 0.0
H4671 H 0.15565 0.65457 0.86929 0.0
C4672 C 0.11049 0.64165 0.81256 0.0
C4673 C 0.12647 0.63601 0.80492 0.0
C4674 C 0.10809 0.64325 0.83275 0.0
C4675 C 0.12164 0.63941 0.84578 0.0
C4676 C 0.1376 0.63392 0.83813 0.0
H4677 H 0.11995 0.60369 0.96388 0.0
H4678 H 0.11854 0.60776 0.92888 0.0
C4679 C 0.14001 0.63231 0.81805 0.0
C4680 C 0.11896 0.64016 0.86734 0.0
H4681 H 0.13677 0.65566 0.90945 0.0
C4682 C 0.10572 0.63011 0.87573 0.0
C4683 C 0.12984 0.64999 0.87975 0.0
C4684 C 0.14354 0.66201 0.8718 0.0
C4685 C 0.10362 0.62899 0.89604 0.0
C4686 C 0.11525 0.63792 0.90847 0.0
C4687 C 0.12795 0.64862 0.90006 0.0
C4688 C 0.11509 0.63557 0.93009 0.0
C4689 C 0.08892 0.61821 0.90396 0.0
C4690 C 0.11392 0.64986 0.94275 0.0
C4691 C 0.11482 0.64758 0.96302 0.0
C4692 C 0.1171 0.63095 0.97111 0.0
C4693 C 0.11807 0.6167 0.95835 0.0
C4694 C 0.11715 0.61898 0.93819 0.0
H4695 H 0.07814 0.61721 0.89333 0.0
H4696 H 0.09368 0.6049 0.90693 0.0
H4697 H 0.08378 0.62373 0.91769 0.0
H4698 H 0.11245 0.66282 0.93693 0.0
H4699 H 0.11416 0.65888 0.9723 0.0
H4700 H 0.14606 0.36883 0.7158 0.0
H4701 H 0.14098 0.36558 0.68122 0.0
H4702 H 0.0869 0.35539 0.69212 0.0
H4703 H 0.09178 0.35924 0.72711 0.0
H4704 H 0.13023 0.34028 0.65839 0.0
H4705 H 0.08296 0.39442 0.6538 0.0
H4706 H 0.09541 0.39016 0.67543 0.0
H4707 H 0.07672 0.37716 0.66982 0.0
C4708 C 0.13303 0.3658 0.71102 0.0
C4709 C 0.1193 0.36447 0.72446 0.0
C4710 C 0.13016 0.36391 0.69108 0.0
C4711 C 0.11349 0.36057 0.68382 0.0
C4712 C 0.09983 0.35842 0.6972 0.0
H4713 H 0.10824 0.34098 0.55628 0.0
H4714 H 0.10477 0.33649 0.59139 0.0
C4715 C 0.10267 0.36045 0.71729 0.0
C4716 C 0.1107 0.35989 0.66226 0.0
H4717 H 0.08973 0.38008 0.62469 0.0
C4718 C 0.12124 0.34888 0.65104 0.0
C4719 C 0.09911 0.37121 0.65252 0.0
C4720 C 0.088 0.38403 0.66344 0.0
C4721 C 0.12097 0.34926 0.63056 0.0
C4722 C 0.10944 0.36065 0.62082 0.0
C4723 C 0.09848 0.37125 0.63204 0.0
C4724 C 0.10986 0.3632 0.59921 0.0
C4725 C 0.13374 0.33812 0.61962 0.0
C4726 C 0.11301 0.3798 0.59166 0.0
C4727 C 0.11468 0.38245 0.57164 0.0
C4728 C 0.11331 0.36855 0.55844 0.0
C4729 C 0.10946 0.35199 0.56592 0.0
C4730 C 0.10766 0.34937 0.58607 0.0
H4731 H 0.14428 0.33326 0.62918 0.0
H4732 H 0.12688 0.32673 0.61351 0.0
H4733 H 0.13968 0.34544 0.60743 0.0
H4734 H 0.11471 0.39074 0.60133 0.0
H4735 H 0.11757 0.39544 0.56663 0.0
loop_
_geom_bond_atom_site_label_1
_geom_bond_atom_site_label_2
_geom_bond_distance
_geom_bond_site_symmetry_2
_ccdc_geom_bond_type
Pr0 C2 2.880 . S
Pr0 O20 2.562 . S
Pr0 O21 2.490 . S
Pr0 O22 2.695 . S
Pr0 O23 2.512 . S
Pr0 O25 2.437 . S
Pr0 O28 2.436 . S
Pr0 O30 2.438 . S
Pr1 C11 2.880 . S
Pr1 O22 2.436 . S
Pr1 O24 2.438 . S
Pr1 O26 2.562 . S
Pr1 O27 2.490 . S
Pr1 O28 2.695 . S
Pr1 O29 2.512 . S
Pr1 O31 2.437 . S
C2 Pr0 2.880 . S
C2 C3 1.491 . S
C2 O20 1.254 . S
C2 O21 1.225 . S
C3 C2 1.491 . S
C3 C4 1.392 . S
C3 C8 1.356 . S
C4 C3 1.392 . S
C4 C5 1.368 . S
C4 H32 0.929 . S
C5 C4 1.368 . S
C5 C6 1.386 . S
C5 H33 0.929 . S
C6 C5 1.386 . S
C6 C7 1.373 . S
C7 C6 1.373 . S
C7 C8 1.409 . S
C7 H34 0.931 . S
C8 C3 1.356 . S
C8 C7 1.409 . S
C8 H35 0.930 . S
C9 O22 1.270 . S
C9 O23 1.248 . S
C10 O24 1.267 . S
C10 O25 1.278 . S
C11 Pr1 2.880 . S
C11 C12 1.491 . S
C11 O26 1.254 . S
C11 O27 1.225 . S
C12 C11 1.491 . S
C12 C13 1.392 . S
C12 C17 1.356 . S
C13 C12 1.392 . S
C13 C14 1.368 . S
C13 H36 0.929 . S
C14 C13 1.368 . S
C14 C15 1.386 . S
C14 H37 0.929 . S
C15 C14 1.386 . S
C15 C16 1.373 . S
C16 C15 1.373 . S
C16 C17 1.409 . S
C16 H38 0.931 . S
C17 C12 1.356 . S
C17 C16 1.409 . S
C17 H39 0.930 . S
C18 O28 1.270 . S
C18 O29 1.248 . S
C19 O30 1.267 . S
C19 O31 1.278 . S
O20 Pr0 2.562 . S
O20 C2 1.254 . S
O21 Pr0 2.490 . S
O21 C2 1.225 . S
O22 Pr0 2.695 . S
O22 Pr1 2.436 . S
O22 C9 1.270 . S
O23 Pr0 2.512 . S
O23 C9 1.248 . S
O24 Pr1 2.438 . S
O24 C10 1.267 . S
O25 Pr0 2.437 . S
O25 C10 1.278 . S
O26 Pr1 2.562 . S
O26 C11 1.254 . S
O27 Pr1 2.490 . S
O27 C11 1.225 . S
O28 Pr0 2.436 . S
O28 Pr1 2.695 . S
O28 C18 1.270 . S
O29 Pr1 2.512 . S
O29 C18 1.248 . S
O30 Pr0 2.438 . S
O30 C19 1.267 . S
O31 Pr1 2.437 . S
O31 C19 1.278 . S
H32 C4 0.929 . S
H33 C5 0.929 . S
H34 C7 0.931 . S
H35 C8 0.930 . S
H36 C13 0.929 . S
H37 C14 0.929 . S
H38 C16 0.931 . S
H39 C17 0.930 . S
Pr40 C42 2.880 . S
Pr40 O60 2.562 . S
Pr40 O61 2.490 . S
Pr40 O62 2.695 . S
Pr40 O63 2.512 . S
Pr40 O65 2.437 . S
Pr40 O68 2.436 . S
Pr40 O70 2.438 . S
Pr41 C51 2.880 . S
Pr41 O62 2.436 . S
Pr41 O64 2.438 . S
Pr41 O66 2.562 . S
Pr41 O67 2.490 . S
Pr41 O68 2.695 . S
Pr41 O69 2.512 . S
Pr41 O71 2.437 . S
C42 Pr40 2.880 . S
C42 C43 1.491 . S
C42 O60 1.254 . S
C42 O61 1.225 . S
C43 C42 1.491 . S
C43 C44 1.392 . S
C43 C48 1.356 . S
C44 C43 1.392 . S
C44 C45 1.368 . S
C44 H72 0.929 . S
C45 C44 1.368 . S
C45 C46 1.386 . S
C45 H73 0.929 . S
C46 C45 1.386 . S
C46 C47 1.373 . S
C47 C46 1.373 . S
C47 C48 1.409 . S
C47 H74 0.931 . S
C48 C43 1.356 . S
C48 C47 1.409 . S
C48 H75 0.930 . S
C49 O62 1.270 . S
C49 O63 1.248 . S
C50 O64 1.267 . S
C50 O65 1.278 . S
C51 Pr41 2.880 . S
C51 C52 1.491 . S
C51 O66 1.254 . S
C51 O67 1.225 . S
C52 C51 1.491 . S
C52 C53 1.392 . S
C52 C57 1.356 . S
C53 C52 1.392 . S
C53 C54 1.368 . S
C53 H76 0.929 . S
C54 C53 1.368 . S
C54 C55 1.386 . S
C54 H77 0.929 . S
C55 C54 1.386 . S
C55 C56 1.373 . S
C56 C55 1.373 . S
C56 C57 1.409 . S
C56 H78 0.931 . S
C57 C52 1.356 . S
C57 C56 1.409 . S
C57 H79 0.930 . S
C58 O68 1.270 . S
C58 O69 1.248 . S
C59 O70 1.267 . S
C59 O71 1.278 . S
O60 Pr40 2.562 . S
O60 C42 1.254 . S
O61 Pr40 2.490 . S
O61 C42 1.225 . S
O62 Pr40 2.695 . S
O62 Pr41 2.436 . S
O62 C49 1.270 . S
O63 Pr40 2.512 . S
O63 C49 1.248 . S
O64 Pr41 2.438 . S
O64 C50 1.267 . S
O65 Pr40 2.437 . S
O65 C50 1.278 . S
O66 Pr41 2.562 . S
O66 C51 1.254 . S
O67 Pr41 2.490 . S
O67 C51 1.225 . S
O68 Pr40 2.436 . S
O68 Pr41 2.695 . S
O68 C58 1.270 . S
O69 Pr41 2.512 . S
O69 C58 1.248 . S
O70 Pr40 2.438 . S
O70 C59 1.267 . S
O71 Pr41 2.437 . S
O71 C59 1.278 . S
H72 C44 0.929 . S
H73 C45 0.929 . S
H74 C47 0.931 . S
H75 C48 0.930 . S
H76 C53 0.929 . S
H77 C54 0.929 . S
H78 C56 0.931 . S
H79 C57 0.930 . S
Pr80 C82 2.880 . S
Pr80 O100 2.562 . S
Pr80 O101 2.490 . S
Pr80 O102 2.695 . S
Pr80 O103 2.512 . S
Pr80 O105 2.437 . S
Pr80 O108 2.436 . S
Pr80 O110 2.438 . S
Pr81 C91 2.880 . S
Pr81 O102 2.436 . S
Pr81 O104 2.438 . S
Pr81 O106 2.562 . S
Pr81 O107 2.490 . S
Pr81 O108 2.695 . S
Pr81 O109 2.512 . S
Pr81 O111 2.437 . S
C82 Pr80 2.880 . S
C82 C83 1.491 . S
C82 O100 1.254 . S
C82 O101 1.225 . S
C83 C82 1.491 . S
C83 C84 1.392 . S
C83 C88 1.356 . S
C84 C83 1.392 . S
C84 C85 1.368 . S
C84 H112 0.929 . S
C85 C84 1.368 . S
C85 C86 1.386 . S
C85 H113 0.929 . S
C86 C85 1.386 . S
C86 C87 1.373 . S
C87 C86 1.373 . S
C87 C88 1.409 . S
C87 H114 0.931 . S
C88 C83 1.356 . S
C88 C87 1.409 . S
C88 H115 0.930 . S
C89 O102 1.270 . S
C89 O103 1.248 . S
C90 O104 1.267 . S
C90 O105 1.278 . S
C91 Pr81 2.880 . S
C91 C92 1.491 . S
C91 O106 1.254 . S
C91 O107 1.225 . S
C92 C91 1.491 . S
C92 C93 1.392 . S
C92 C97 1.356 . S
C93 C92 1.392 . S
C93 C94 1.368 . S
C93 H116 0.929 . S
C94 C93 1.368 . S
C94 C95 1.386 . S
C94 H117 0.929 . S
C95 C94 1.386 . S
C95 C96 1.373 . S
C96 C95 1.373 . S
C96 C97 1.409 . S
C96 H118 0.931 . S
C97 C92 1.356 . S
C97 C96 1.409 . S
C97 H119 0.930 . S
C98 O108 1.270 . S
C98 O109 1.248 . S
C99 O110 1.267 . S
C99 O111 1.278 . S
O100 Pr80 2.562 . S
O100 C82 1.254 . S
O101 Pr80 2.490 . S
O101 C82 1.225 . S
O102 Pr80 2.695 . S
O102 Pr81 2.436 . S
O102 C89 1.270 . S
O103 Pr80 2.512 . S
O103 C89 1.248 . S
O104 Pr81 2.438 . S
O104 C90 1.267 . S
O105 Pr80 2.437 . S
O105 C90 1.278 . S
O106 Pr81 2.562 . S
O106 C91 1.254 . S
O107 Pr81 2.490 . S
O107 C91 1.225 . S
O108 Pr80 2.436 . S
O108 Pr81 2.695 . S
O108 C98 1.270 . S
O109 Pr81 2.512 . S
O109 C98 1.248 . S
O110 Pr80 2.438 . S
O110 C99 1.267 . S
O111 Pr81 2.437 . S
O111 C99 1.278 . S
H112 C84 0.929 . S
H113 C85 0.929 . S
H114 C87 0.931 . S
H115 C88 0.930 . S
H116 C93 0.929 . S
H117 C94 0.929 . S
H118 C96 0.931 . S
H119 C97 0.930 . S
Pr120 C122 2.851 1_554 S
Pr120 O140 2.562 1_554 S
Pr120 O141 2.490 . S
Pr120 O142 2.695 . S
Pr120 O143 2.512 . S
Pr120 O145 2.437 . S
Pr120 O148 2.436 . S
Pr120 O150 2.438 . S
Pr121 C131 2.880 . S
Pr121 O142 2.436 . S
Pr121 O144 2.482 . S
Pr121 O146 2.562 . S
Pr121 O147 2.490 . S
Pr121 O148 2.695 . S
Pr121 O149 2.512 . S
Pr121 O151 2.437 . S
C122 Pr120 2.851 1_556 S
C122 C123 1.520 . S
C122 O140 1.258 . S
C122 O141 1.193 1_556 S
C123 C122 1.520 . S
C123 C124 1.392 . S
C123 C128 1.356 . S
C124 C123 1.392 . S
C124 C125 1.368 . S
C124 H152 0.929 . S
C125 C124 1.368 . S
C125 C126 1.386 . S
C125 H153 0.929 . S
C126 C125 1.386 . S
C126 C127 1.373 . S
C127 C126 1.373 . S
C127 C128 1.409 . S
C127 H154 0.931 . S
C128 C123 1.356 . S
C128 C127 1.409 . S
C128 H155 0.930 . S
C129 O142 1.270 . S
C129 O143 1.248 . S
C130 O144 1.248 1_556 S
C130 O145 1.278 1_556 S
C131 Pr121 2.880 . S
C131 C132 1.491 . S
C131 O146 1.254 . S
C131 O147 1.225 . S
C132 C131 1.491 . S
C132 C133 1.392 . S
C132 C137 1.356 . S
C133 C132 1.392 . S
C133 C134 1.368 . S
C133 H156 0.929 . S
C134 C133 1.368 . S
C134 C135 1.386 . S
C134 H157 0.929 . S
C135 C134 1.386 . S
C135 C136 1.373 . S
C136 C135 1.373 . S
C136 C137 1.409 . S
C136 H158 0.931 . S
C137 C132 1.356 . S
C137 C136 1.409 . S
C137 H159 0.930 . S
C138 O148 1.270 . S
C138 O149 1.248 . S
C139 O150 1.267 . S
C139 O151 1.278 . S
O140 Pr120 2.562 1_556 S
O140 C122 1.258 . S
O141 Pr120 2.490 . S
O141 C122 1.193 1_554 S
O142 Pr120 2.695 . S
O142 Pr121 2.436 . S
O142 C129 1.270 . S
O143 Pr120 2.512 . S
O143 C129 1.248 . S
O144 Pr121 2.482 . S
O144 C130 1.248 1_554 S
O145 Pr120 2.437 . S
O145 C130 1.278 1_554 S
O146 Pr121 2.562 . S
O146 C131 1.254 . S
O147 Pr121 2.490 . S
O147 C131 1.225 . S
O148 Pr120 2.436 . S
O148 Pr121 2.695 . S
O148 C138 1.270 . S
O149 Pr121 2.512 . S
O149 C138 1.248 . S
O150 Pr120 2.438 . S
O150 C139 1.267 . S
O151 Pr121 2.437 . S
O151 C139 1.278 . S
H152 C124 0.929 . S
H153 C125 0.929 . S
H154 C127 0.931 . S
H155 C128 0.930 . S
H156 C133 0.929 . S
H157 C134 0.929 . S
H158 C136 0.931 . S
H159 C137 0.930 . S
Pr160 C162 2.880 . S
Pr160 O180 2.562 . S
Pr160 O181 2.490 . S
Pr160 O182 2.695 . S
Pr160 O183 2.512 . S
Pr160 O185 2.437 . S
Pr160 O188 2.436 . S
Pr160 O190 2.438 . S
Pr161 C171 2.880 . S
Pr161 O182 2.436 . S
Pr161 O184 2.438 . S
Pr161 O186 2.562 . S
Pr161 O187 2.490 . S
Pr161 O188 2.695 . S
Pr161 O189 2.512 . S
Pr161 O191 2.437 . S
C162 Pr160 2.880 . S
C162 C163 1.491 . S
C162 O180 1.254 . S
C162 O181 1.225 . S
C163 C162 1.491 . S
C163 C164 1.392 . S
C163 C168 1.356 . S
C164 C163 1.392 . S
C164 C165 1.368 . S
C164 H192 0.929 . S
C165 C164 1.368 . S
C165 C166 1.386 . S
C165 H193 0.929 . S
C166 C165 1.386 . S
C166 C167 1.373 . S
C167 C166 1.373 . S
C167 C168 1.409 . S
C167 H194 0.931 . S
C168 C163 1.356 . S
C168 C167 1.409 . S
C168 H195 0.930 . S
C169 O182 1.270 . S
C169 O183 1.248 . S
C170 O184 1.267 . S
C170 O185 1.278 . S
C171 Pr161 2.880 . S
C171 C172 1.491 . S
C171 O186 1.254 . S
C171 O187 1.225 . S
C172 C171 1.491 . S
C172 C173 1.392 . S
C172 C177 1.356 . S
C173 C172 1.392 . S
C173 C174 1.368 . S
C173 H196 0.929 . S
C174 C173 1.368 . S
C174 C175 1.386 . S
C174 H197 0.929 . S
C175 C174 1.386 . S
C175 C176 1.373 . S
C176 C175 1.373 . S
C176 C177 1.409 . S
C176 H198 0.931 . S
C177 C172 1.356 . S
C177 C176 1.409 . S
C177 H199 0.930 . S
C178 O188 1.270 . S
C178 O189 1.248 . S
C179 O190 1.267 . S
C179 O191 1.278 . S
O180 Pr160 2.562 . S
O180 C162 1.254 . S
O181 Pr160 2.490 . S
O181 C162 1.225 . S
O182 Pr160 2.695 . S
O182 Pr161 2.436 . S
O182 C169 1.270 . S
O183 Pr160 2.512 . S
O183 C169 1.248 . S
O184 Pr161 2.438 . S
O184 C170 1.267 . S
O185 Pr160 2.437 . S
O185 C170 1.278 . S
O186 Pr161 2.562 . S
O186 C171 1.254 . S
O187 Pr161 2.490 . S
O187 C171 1.225 . S
O188 Pr160 2.436 . S
O188 Pr161 2.695 . S
O188 C178 1.270 . S
O189 Pr161 2.512 . S
O189 C178 1.248 . S
O190 Pr160 2.438 . S
O190 C179 1.267 . S
O191 Pr161 2.437 . S
O191 C179 1.278 . S
H192 C164 0.929 . S
H193 C165 0.929 . S
H194 C167 0.931 . S
H195 C168 0.930 . S
H196 C173 0.929 . S
H197 C174 0.929 . S
H198 C176 0.931 . S
H199 C177 0.930 . S
Pr200 C202 2.880 . S
Pr200 O220 2.562 . S
Pr200 O221 2.490 . S
Pr200 O222 2.695 . S
Pr200 O223 2.512 . S
Pr200 O225 2.437 . S
Pr200 O228 2.436 . S
Pr200 O230 2.438 . S
Pr201 C211 2.880 . S
Pr201 O222 2.436 . S
Pr201 O224 2.438 . S
Pr201 O226 2.562 . S
Pr201 O227 2.490 . S
Pr201 O228 2.695 . S
Pr201 O229 2.512 . S
Pr201 O231 2.437 . S
C202 Pr200 2.880 . S
C202 C203 1.491 . S
C202 O220 1.254 . S
C202 O221 1.225 . S
C203 C202 1.491 . S
C203 C204 1.392 . S
C203 C208 1.356 . S
C204 C203 1.392 . S
C204 C205 1.368 . S
C204 H232 0.929 . S
C205 C204 1.368 . S
C205 C206 1.386 . S
C205 H233 0.929 . S
C206 C205 1.386 . S
C206 C207 1.373 . S
C207 C206 1.373 . S
C207 C208 1.409 . S
C207 H234 0.931 . S
C208 C203 1.356 . S
C208 C207 1.409 . S
C208 H235 0.930 . S
C209 O222 1.270 . S
C209 O223 1.248 . S
C210 O224 1.267 . S
C210 O225 1.278 . S
C211 Pr201 2.880 . S
C211 C212 1.491 . S
C211 O226 1.254 . S
C211 O227 1.225 . S
C212 C211 1.491 . S
C212 C213 1.392 . S
C212 C217 1.356 . S
C213 C212 1.392 . S
C213 C214 1.368 . S
C213 H236 0.929 . S
C214 C213 1.368 . S
C214 C215 1.386 . S
C214 H237 0.929 . S
C215 C214 1.386 . S
C215 C216 1.373 . S
C216 C215 1.373 . S
C216 C217 1.409 . S
C216 H238 0.931 . S
C217 C212 1.356 . S
C217 C216 1.409 . S
C217 H239 0.930 . S
C218 O228 1.270 . S
C218 O229 1.248 . S
C219 O230 1.267 . S
C219 O231 1.278 . S
O220 Pr200 2.562 . S
O220 C202 1.254 . S
O221 Pr200 2.490 . S
O221 C202 1.225 . S
O222 Pr200 2.695 . S
O222 Pr201 2.436 . S
O222 C209 1.270 . S
O223 Pr200 2.512 . S
O223 C209 1.248 . S
O224 Pr201 2.438 . S
O224 C210 1.267 . S
O225 Pr200 2.437 . S
O225 C210 1.278 . S
O226 Pr201 2.562 . S
O226 C211 1.254 . S
O227 Pr201 2.490 . S
O227 C211 1.225 . S
O228 Pr200 2.436 . S
O228 Pr201 2.695 . S
O228 C218 1.270 . S
O229 Pr201 2.512 . S
O229 C218 1.248 . S
O230 Pr200 2.438 . S
O230 C219 1.267 . S
O231 Pr201 2.437 . S
O231 C219 1.278 . S
H232 C204 0.929 . S
H233 C205 0.929 . S
H234 C207 0.931 . S
H235 C208 0.930 . S
H236 C213 0.929 . S
H237 C214 0.929 . S
H238 C216 0.931 . S
H239 C217 0.930 . S
Pr240 C242 2.880 . S
Pr240 O260 2.562 . S
Pr240 O261 2.490 . S
Pr240 O262 2.695 . S
Pr240 O263 2.512 . S
Pr240 O265 2.437 . S
Pr240 O268 2.436 . S
Pr240 O270 2.438 . S
Pr241 C251 2.880 . S
Pr241 O262 2.436 . S
Pr241 O264 2.438 . S
Pr241 O266 2.562 . S
Pr241 O267 2.490 . S
Pr241 O268 2.695 . S
Pr241 O269 2.512 . S
Pr241 O271 2.437 . S
C242 Pr240 2.880 . S
C242 C243 1.491 . S
C242 O260 1.254 . S
C242 O261 1.225 . S
C243 C242 1.491 . S
C243 C244 1.392 . S
C243 C248 1.356 . S
C244 C243 1.392 . S
C244 C245 1.368 . S
C244 H272 0.929 . S
C245 C244 1.368 . S
C245 C246 1.386 . S
C245 H273 0.929 . S
C246 C245 1.386 . S
C246 C247 1.373 . S
C247 C246 1.373 . S
C247 C248 1.409 . S
C247 H274 0.931 . S
C248 C243 1.356 . S
C248 C247 1.409 . S
C248 H275 0.930 . S
C249 O262 1.270 . S
C249 O263 1.248 . S
C250 O264 1.267 . S
C250 O265 1.278 . S
C251 Pr241 2.880 . S
C251 C252 1.491 . S
C251 O266 1.254 . S
C251 O267 1.225 . S
C252 C251 1.491 . S
C252 C253 1.392 . S
C252 C257 1.356 . S
C253 C252 1.392 . S
C253 C254 1.368 . S
C253 H276 0.929 . S
C254 C253 1.368 . S
C254 C255 1.386 . S
C254 H277 0.929 . S
C255 C254 1.386 . S
C255 C256 1.373 . S
C256 C255 1.373 . S
C256 C257 1.409 . S
C256 H278 0.931 . S
C257 C252 1.356 . S
C257 C256 1.409 . S
C257 H279 0.930 . S
C258 O268 1.270 . S
C258 O269 1.248 . S
C259 O270 1.267 . S
C259 O271 1.278 . S
O260 Pr240 2.562 . S
O260 C242 1.254 . S
O261 Pr240 2.490 . S
O261 C242 1.225 . S
O262 Pr240 2.695 . S
O262 Pr241 2.436 . S
O262 C249 1.270 . S
O263 Pr240 2.512 . S
O263 C249 1.248 . S
O264 Pr241 2.438 . S
O264 C250 1.267 . S
O265 Pr240 2.437 . S
O265 C250 1.278 . S
O266 Pr241 2.562 . S
O266 C251 1.254 . S
O267 Pr241 2.490 . S
O267 C251 1.225 . S
O268 Pr240 2.436 . S
O268 Pr241 2.695 . S
O268 C258 1.270 . S
O269 Pr241 2.512 . S
O269 C258 1.248 . S
O270 Pr240 2.438 . S
O270 C259 1.267 . S
O271 Pr241 2.437 . S
O271 C259 1.278 . S
H272 C244 0.929 . S
H273 C245 0.929 . S
H274 C247 0.931 . S
H275 C248 0.930 . S
H276 C253 0.929 . S
H277 C254 0.929 . S
H278 C256 0.931 . S
H279 C257 0.930 . S
Pr280 C282 2.851 1_556 S
Pr280 O300 2.562 1_556 S
Pr280 O301 2.490 . S
Pr280 O302 2.695 . S
Pr280 O303 2.512 . S
Pr280 O305 2.437 . S
Pr280 O308 2.436 . S
Pr280 O310 2.438 . S
Pr281 C291 2.880 . S
Pr281 O302 2.436 . S
Pr281 O304 2.482 . S
Pr281 O306 2.562 . S
Pr281 O307 2.490 . S
Pr281 O308 2.695 . S
Pr281 O309 2.512 . S
Pr281 O311 2.437 . S
C282 Pr280 2.851 1_554 S
C282 C283 1.520 . S
C282 O300 1.258 . S
C282 O301 1.193 1_554 S
C283 C282 1.520 . S
C283 C284 1.392 . S
C283 C288 1.356 . S
C284 C283 1.392 . S
C284 C285 1.368 . S
C284 H312 0.929 . S
C285 C284 1.368 . S
C285 C286 1.386 . S
C285 H313 0.929 . S
C286 C285 1.386 . S
C286 C287 1.373 . S
C287 C286 1.373 . S
C287 C288 1.409 . S
C287 H314 0.931 . S
C288 C283 1.356 . S
C288 C287 1.409 . S
C288 H315 0.930 . S
C289 O302 1.270 . S
C289 O303 1.248 . S
C290 O304 1.248 1_554 S
C290 O305 1.278 1_554 S
C291 Pr281 2.880 . S
C291 C292 1.491 . S
C291 O306 1.254 . S
C291 O307 1.225 . S
C292 C291 1.491 . S
C292 C293 1.392 . S
C292 C297 1.356 . S
C293 C292 1.392 . S
C293 C294 1.368 . S
C293 H316 0.929 . S
C294 C293 1.368 . S
C294 C295 1.386 . S
C294 H317 0.929 . S
C295 C294 1.386 . S
C295 C296 1.373 . S
C296 C295 1.373 . S
C296 C297 1.409 . S
C296 H318 0.931 . S
C297 C292 1.356 . S
C297 C296 1.409 . S
C297 H319 0.930 . S
C298 O308 1.270 . S
C298 O309 1.248 . S
C299 O310 1.267 . S
C299 O311 1.278 . S
O300 Pr280 2.562 1_554 S
O300 C282 1.258 . S
O301 Pr280 2.490 . S
O301 C282 1.193 1_556 S
O302 Pr280 2.695 . S
O302 Pr281 2.436 . S
O302 C289 1.270 . S
O303 Pr280 2.512 . S
O303 C289 1.248 . S
O304 Pr281 2.482 . S
O304 C290 1.248 1_556 S
O305 Pr280 2.437 . S
O305 C290 1.278 1_556 S
O306 Pr281 2.562 . S
O306 C291 1.254 . S
O307 Pr281 2.490 . S
O307 C291 1.225 . S
O308 Pr280 2.436 . S
O308 Pr281 2.695 . S
O308 C298 1.270 . S
O309 Pr281 2.512 . S
O309 C298 1.248 . S
O310 Pr280 2.438 . S
O310 C299 1.267 . S
O311 Pr281 2.437 . S
O311 C299 1.278 . S
H312 C284 0.929 . S
H313 C285 0.929 . S
H314 C287 0.931 . S
H315 C288 0.930 . S
H316 C293 0.929 . S
H317 C294 0.929 . S
H318 C296 0.931 . S
H319 C297 0.930 . S
Pr320 C322 2.880 . S
Pr320 O340 2.562 . S
Pr320 O341 2.490 . S
Pr320 O342 2.695 . S
Pr320 O343 2.512 . S
Pr320 O345 2.437 . S
Pr320 O348 2.436 . S
Pr320 O350 2.438 . S
Pr321 C331 2.880 . S
Pr321 O342 2.436 . S
Pr321 O344 2.438 . S
Pr321 O346 2.562 . S
Pr321 O347 2.490 . S
Pr321 O348 2.695 . S
Pr321 O349 2.512 . S
Pr321 O351 2.437 . S
C322 Pr320 2.880 . S
C322 C323 1.491 . S
C322 O340 1.254 . S
C322 O341 1.225 . S
C323 C322 1.491 . S
C323 C324 1.392 . S
C323 C328 1.356 . S
C324 C323 1.392 . S
C324 C325 1.368 . S
C324 H352 0.929 . S
C325 C324 1.368 . S
C325 C326 1.386 . S
C325 H353 0.929 . S
C326 C325 1.386 . S
C326 C327 1.373 . S
C327 C326 1.373 . S
C327 C328 1.409 . S
C327 H354 0.931 . S
C328 C323 1.356 . S
C328 C327 1.409 . S
C328 H355 0.930 . S
C329 O342 1.270 . S
C329 O343 1.248 . S
C330 O344 1.267 . S
C330 O345 1.278 . S
C331 Pr321 2.880 . S
C331 C332 1.491 . S
C331 O346 1.254 . S
C331 O347 1.225 . S
C332 C331 1.491 . S
C332 C333 1.392 . S
C332 C337 1.356 . S
C333 C332 1.392 . S
C333 C334 1.368 . S
C333 H356 0.929 . S
C334 C333 1.368 . S
C334 C335 1.386 . S
C334 H357 0.929 . S
C335 C334 1.386 . S
C335 C336 1.373 . S
C336 C335 1.373 . S
C336 C337 1.409 . S
C336 H358 0.931 . S
C337 C332 1.356 . S
C337 C336 1.409 . S
C337 H359 0.930 . S
C338 O348 1.270 . S
C338 O349 1.248 . S
C339 O350 1.267 . S
C339 O351 1.278 . S
O340 Pr320 2.562 . S
O340 C322 1.254 . S
O341 Pr320 2.490 . S
O341 C322 1.225 . S
O342 Pr320 2.695 . S
O342 Pr321 2.436 . S
O342 C329 1.270 . S
O343 Pr320 2.512 . S
O343 C329 1.248 . S
O344 Pr321 2.438 . S
O344 C330 1.267 . S
O345 Pr320 2.437 . S
O345 C330 1.278 . S
O346 Pr321 2.562 . S
O346 C331 1.254 . S
O347 Pr321 2.490 . S
O347 C331 1.225 . S
O348 Pr320 2.436 . S
O348 Pr321 2.695 . S
O348 C338 1.270 . S
O349 Pr321 2.512 . S
O349 C338 1.248 . S
O350 Pr320 2.438 . S
O350 C339 1.267 . S
O351 Pr321 2.437 . S
O351 C339 1.278 . S
H352 C324 0.929 . S
H353 C325 0.929 . S
H354 C327 0.931 . S
H355 C328 0.930 . S
H356 C333 0.929 . S
H357 C334 0.929 . S
H358 C336 0.931 . S
H359 C337 0.930 . S
Pr360 C362 2.880 . S
Pr360 O380 2.562 . S
Pr360 O381 2.490 . S
Pr360 O382 2.695 . S
Pr360 O383 2.512 . S
Pr360 O385 2.437 . S
Pr360 O388 2.436 . S
Pr360 O390 2.438 . S
Pr361 C371 2.880 . S
Pr361 O382 2.436 . S
Pr361 O384 2.438 . S
Pr361 O386 2.562 . S
Pr361 O387 2.490 . S
Pr361 O388 2.695 . S
Pr361 O389 2.512 . S
Pr361 O391 2.437 . S
C362 Pr360 2.880 . S
C362 C363 1.491 . S
C362 O380 1.254 . S
C362 O381 1.225 . S
C363 C362 1.491 . S
C363 C364 1.392 . S
C363 C368 1.356 . S
C364 C363 1.392 . S
C364 C365 1.368 . S
C364 H392 0.929 . S
C365 C364 1.368 . S
C365 C366 1.386 . S
C365 H393 0.929 . S
C366 C365 1.386 . S
C366 C367 1.373 . S
C367 C366 1.373 . S
C367 C368 1.409 . S
C367 H394 0.931 . S
C368 C363 1.356 . S
C368 C367 1.409 . S
C368 H395 0.930 . S
C369 O382 1.270 . S
C369 O383 1.248 . S
C370 O384 1.267 . S
C370 O385 1.278 . S
C371 Pr361 2.880 . S
C371 C372 1.491 . S
C371 O386 1.254 . S
C371 O387 1.225 . S
C372 C371 1.491 . S
C372 C373 1.392 . S
C372 C377 1.356 . S
C373 C372 1.392 . S
C373 C374 1.368 . S
C373 H396 0.929 . S
C374 C373 1.368 . S
C374 C375 1.386 . S
C374 H397 0.929 . S
C375 C374 1.386 . S
C375 C376 1.373 . S
C376 C375 1.373 . S
C376 C377 1.409 . S
C376 H398 0.931 . S
C377 C372 1.356 . S
C377 C376 1.409 . S
C377 H399 0.930 . S
C378 O388 1.270 . S
C378 O389 1.248 . S
C379 O390 1.267 . S
C379 O391 1.278 . S
O380 Pr360 2.562 . S
O380 C362 1.254 . S
O381 Pr360 2.490 . S
O381 C362 1.225 . S
O382 Pr360 2.695 . S
O382 Pr361 2.436 . S
O382 C369 1.270 . S
O383 Pr360 2.512 . S
O383 C369 1.248 . S
O384 Pr361 2.438 . S
O384 C370 1.267 . S
O385 Pr360 2.437 . S
O385 C370 1.278 . S
O386 Pr361 2.562 . S
O386 C371 1.254 . S
O387 Pr361 2.490 . S
O387 C371 1.225 . S
O388 Pr360 2.436 . S
O388 Pr361 2.695 . S
O388 C378 1.270 . S
O389 Pr361 2.512 . S
O389 C378 1.248 . S
O390 Pr360 2.438 . S
O390 C379 1.267 . S
O391 Pr361 2.437 . S
O391 C379 1.278 . S
H392 C364 0.929 . S
H393 C365 0.929 . S
H394 C367 0.931 . S
H395 C368 0.930 . S
H396 C373 0.929 . S
H397 C374 0.929 . S
H398 C376 0.931 . S
H399 C377 0.930 . S
Pr400 C402 2.880 . S
Pr400 O420 2.562 . S
Pr400 O421 2.490 . S
Pr400 O422 2.695 . S
Pr400 O423 2.512 . S
Pr400 O425 2.437 . S
Pr400 O428 2.436 . S
Pr400 O430 2.438 . S
Pr401 C411 2.880 . S
Pr401 O422 2.436 . S
Pr401 O424 2.438 . S
Pr401 O426 2.562 . S
Pr401 O427 2.490 . S
Pr401 O428 2.695 . S
Pr401 O429 2.512 . S
Pr401 O431 2.437 . S
C402 Pr400 2.880 . S
C402 C403 1.491 . S
C402 O420 1.254 . S
C402 O421 1.225 . S
C403 C402 1.491 . S
C403 C404 1.392 . S
C403 C408 1.356 . S
C404 C403 1.392 . S
C404 C405 1.368 . S
C404 H432 0.929 . S
C405 C404 1.368 . S
C405 C406 1.386 . S
C405 H433 0.929 . S
C406 C405 1.386 . S
C406 C407 1.373 . S
C407 C406 1.373 . S
C407 C408 1.409 . S
C407 H434 0.931 . S
C408 C403 1.356 . S
C408 C407 1.409 . S
C408 H435 0.930 . S
C409 O422 1.270 . S
C409 O423 1.248 . S
C410 O424 1.267 . S
C410 O425 1.278 . S
C411 Pr401 2.880 . S
C411 C412 1.491 . S
C411 O426 1.254 . S
C411 O427 1.225 . S
C412 C411 1.491 . S
C412 C413 1.392 . S
C412 C417 1.356 . S
C413 C412 1.392 . S
C413 C414 1.368 . S
C413 H436 0.929 . S
C414 C413 1.368 . S
C414 C415 1.386 . S
C414 H437 0.929 . S
C415 C414 1.386 . S
C415 C416 1.373 . S
C416 C415 1.373 . S
C416 C417 1.409 . S
C416 H438 0.931 . S
C417 C412 1.356 . S
C417 C416 1.409 . S
C417 H439 0.930 . S
C418 O428 1.270 . S
C418 O429 1.248 . S
C419 O430 1.267 . S
C419 O431 1.278 . S
O420 Pr400 2.562 . S
O420 C402 1.254 . S
O421 Pr400 2.490 . S
O421 C402 1.225 . S
O422 Pr400 2.695 . S
O422 Pr401 2.436 . S
O422 C409 1.270 . S
O423 Pr400 2.512 . S
O423 C409 1.248 . S
O424 Pr401 2.438 . S
O424 C410 1.267 . S
O425 Pr400 2.437 . S
O425 C410 1.278 . S
O426 Pr401 2.562 . S
O426 C411 1.254 . S
O427 Pr401 2.490 . S
O427 C411 1.225 . S
O428 Pr400 2.436 . S
O428 Pr401 2.695 . S
O428 C418 1.270 . S
O429 Pr401 2.512 . S
O429 C418 1.248 . S
O430 Pr400 2.438 . S
O430 C419 1.267 . S
O431 Pr401 2.437 . S
O431 C419 1.278 . S
H432 C404 0.929 . S
H433 C405 0.929 . S
H434 C407 0.931 . S
H435 C408 0.930 . S
H436 C413 0.929 . S
H437 C414 0.929 . S
H438 C416 0.931 . S
H439 C417 0.930 . S
Pr440 C442 2.880 . S
Pr440 O460 2.562 . S
Pr440 O461 2.490 . S
Pr440 O462 2.695 . S
Pr440 O463 2.512 . S
Pr440 O465 2.437 . S
Pr440 O468 2.436 . S
Pr440 O470 2.482 . S
Pr441 C451 2.851 1_556 S
Pr441 O462 2.436 . S
Pr441 O464 2.438 . S
Pr441 O466 2.562 1_556 S
Pr441 O467 2.490 . S
Pr441 O468 2.695 . S
Pr441 O469 2.512 . S
Pr441 O471 2.437 . S
C442 Pr440 2.880 . S
C442 C443 1.491 . S
C442 O460 1.254 . S
C442 O461 1.225 . S
C443 C442 1.491 . S
C443 C444 1.392 . S
C443 C448 1.356 . S
C444 C443 1.392 . S
C444 C445 1.368 . S
C444 H472 0.929 . S
C445 C444 1.368 . S
C445 C446 1.386 . S
C445 H473 0.929 . S
C446 C445 1.386 . S
C446 C447 1.373 . S
C447 C446 1.373 . S
C447 C448 1.409 . S
C447 H474 0.931 . S
C448 C443 1.356 . S
C448 C447 1.409 . S
C448 H475 0.930 . S
C449 O462 1.270 . S
C449 O463 1.248 . S
C450 O464 1.267 . S
C450 O465 1.278 . S
C451 Pr441 2.851 1_554 S
C451 C452 1.520 . S
C451 O466 1.258 . S
C451 O467 1.193 1_554 S
C452 C451 1.520 . S
C452 C453 1.392 . S
C452 C457 1.356 . S
C453 C452 1.392 . S
C453 C454 1.368 . S
C453 H476 0.929 . S
C454 C453 1.368 . S
C454 C455 1.386 . S
C454 H477 0.929 . S
C455 C454 1.386 . S
C455 C456 1.373 . S
C456 C455 1.373 . S
C456 C457 1.409 . S
C456 H478 0.931 . S
C457 C452 1.356 . S
C457 C456 1.409 . S
C457 H479 0.930 . S
C458 O468 1.270 . S
C458 O469 1.248 . S
C459 O470 1.248 1_554 S
C459 O471 1.278 1_554 S
O460 Pr440 2.562 . S
O460 C442 1.254 . S
O461 Pr440 2.490 . S
O461 C442 1.225 . S
O462 Pr440 2.695 . S
O462 Pr441 2.436 . S
O462 C449 1.270 . S
O463 Pr440 2.512 . S
O463 C449 1.248 . S
O464 Pr441 2.438 . S
O464 C450 1.267 . S
O465 Pr440 2.437 . S
O465 C450 1.278 . S
O466 Pr441 2.562 1_554 S
O466 C451 1.258 . S
O467 Pr441 2.490 . S
O467 C451 1.193 1_556 S
O468 Pr440 2.436 . S
O468 Pr441 2.695 . S
O468 C458 1.270 . S
O469 Pr441 2.512 . S
O469 C458 1.248 . S
O470 Pr440 2.482 . S
O470 C459 1.248 1_556 S
O471 Pr441 2.437 . S
O471 C459 1.278 1_556 S
H472 C444 0.929 . S
H473 C445 0.929 . S
H474 C447 0.931 . S
H475 C448 0.930 . S
H476 C453 0.929 . S
H477 C454 0.929 . S
H478 C456 0.931 . S
H479 C457 0.930 . S
Pr480 C482 2.880 . S
Pr480 O500 2.562 . S
Pr480 O501 2.490 . S
Pr480 O502 2.695 . S
Pr480 O503 2.512 . S
Pr480 O505 2.437 . S
Pr480 O508 2.436 . S
Pr480 O510 2.438 . S
Pr481 C491 2.880 . S
Pr481 O502 2.436 . S
Pr481 O504 2.438 . S
Pr481 O506 2.562 . S
Pr481 O507 2.490 . S
Pr481 O508 2.695 . S
Pr481 O509 2.512 . S
Pr481 O511 2.437 . S
C482 Pr480 2.880 . S
C482 C483 1.491 . S
C482 O500 1.254 . S
C482 O501 1.225 . S
C483 C482 1.491 . S
C483 C484 1.392 . S
C483 C488 1.356 . S
C484 C483 1.392 . S
C484 C485 1.368 . S
C484 H512 0.929 . S
C485 C484 1.368 . S
C485 C486 1.386 . S
C485 H513 0.929 . S
C486 C485 1.386 . S
C486 C487 1.373 . S
C487 C486 1.373 . S
C487 C488 1.409 . S
C487 H514 0.931 . S
C488 C483 1.356 . S
C488 C487 1.409 . S
C488 H515 0.930 . S
C489 O502 1.270 . S
C489 O503 1.248 . S
C490 O504 1.267 . S
C490 O505 1.278 . S
C491 Pr481 2.880 . S
C491 C492 1.491 . S
C491 O506 1.254 . S
C491 O507 1.225 . S
C492 C491 1.491 . S
C492 C493 1.392 . S
C492 C497 1.356 . S
C493 C492 1.392 . S
C493 C494 1.368 . S
C493 H516 0.929 . S
C494 C493 1.368 . S
C494 C495 1.386 . S
C494 H517 0.929 . S
C495 C494 1.386 . S
C495 C496 1.373 . S
C496 C495 1.373 . S
C496 C497 1.409 . S
C496 H518 0.931 . S
C497 C492 1.356 . S
C497 C496 1.409 . S
C497 H519 0.930 . S
C498 O508 1.270 . S
C498 O509 1.248 . S
C499 O510 1.267 . S
C499 O511 1.278 . S
O500 Pr480 2.562 . S
O500 C482 1.254 . S
O501 Pr480 2.490 . S
O501 C482 1.225 . S
O502 Pr480 2.695 . S
O502 Pr481 2.436 . S
O502 C489 1.270 . S
O503 Pr480 2.512 . S
O503 C489 1.248 . S
O504 Pr481 2.438 . S
O504 C490 1.267 . S
O505 Pr480 2.437 . S
O505 C490 1.278 . S
O506 Pr481 2.562 . S
O506 C491 1.254 . S
O507 Pr481 2.490 . S
O507 C491 1.225 . S
O508 Pr480 2.436 . S
O508 Pr481 2.695 . S
O508 C498 1.270 . S
O509 Pr481 2.512 . S
O509 C498 1.248 . S
O510 Pr480 2.438 . S
O510 C499 1.267 . S
O511 Pr481 2.437 . S
O511 C499 1.278 . S
H512 C484 0.929 . S
H513 C485 0.929 . S
H514 C487 0.931 . S
H515 C488 0.930 . S
H516 C493 0.929 . S
H517 C494 0.929 . S
H518 C496 0.931 . S
H519 C497 0.930 . S
Pr520 C522 2.880 . S
Pr520 O540 2.562 . S
Pr520 O541 2.490 . S
Pr520 O542 2.695 . S
Pr520 O543 2.512 . S
Pr520 O545 2.437 . S
Pr520 O548 2.436 . S
Pr520 O550 2.438 . S
Pr521 C531 2.880 . S
Pr521 O542 2.436 . S
Pr521 O544 2.438 . S
Pr521 O546 2.562 . S
Pr521 O547 2.490 . S
Pr521 O548 2.695 . S
Pr521 O549 2.512 . S
Pr521 O551 2.437 . S
C522 Pr520 2.880 . S
C522 C523 1.491 . S
C522 O540 1.254 . S
C522 O541 1.225 . S
C523 C522 1.491 . S
C523 C524 1.392 . S
C523 C528 1.356 . S
C524 C523 1.392 . S
C524 C525 1.368 . S
C524 H552 0.929 . S
C525 C524 1.368 . S
C525 C526 1.386 . S
C525 H553 0.929 . S
C526 C525 1.386 . S
C526 C527 1.373 . S
C527 C526 1.373 . S
C527 C528 1.409 . S
C527 H554 0.931 . S
C528 C523 1.356 . S
C528 C527 1.409 . S
C528 H555 0.930 . S
C529 O542 1.270 . S
C529 O543 1.248 . S
C530 O544 1.267 . S
C530 O545 1.278 . S
C531 Pr521 2.880 . S
C531 C532 1.491 . S
C531 O546 1.254 . S
C531 O547 1.225 . S
C532 C531 1.491 . S
C532 C533 1.392 . S
C532 C537 1.356 . S
C533 C532 1.392 . S
C533 C534 1.368 . S
C533 H556 0.929 . S
C534 C533 1.368 . S
C534 C535 1.386 . S
C534 H557 0.929 . S
C535 C534 1.386 . S
C535 C536 1.373 . S
C536 C535 1.373 . S
C536 C537 1.409 . S
C536 H558 0.931 . S
C537 C532 1.356 . S
C537 C536 1.409 . S
C537 H559 0.930 . S
C538 O548 1.270 . S
C538 O549 1.248 . S
C539 O550 1.267 . S
C539 O551 1.278 . S
O540 Pr520 2.562 . S
O540 C522 1.254 . S
O541 Pr520 2.490 . S
O541 C522 1.225 . S
O542 Pr520 2.695 . S
O542 Pr521 2.436 . S
O542 C529 1.270 . S
O543 Pr520 2.512 . S
O543 C529 1.248 . S
O544 Pr521 2.438 . S
O544 C530 1.267 . S
O545 Pr520 2.437 . S
O545 C530 1.278 . S
O546 Pr521 2.562 . S
O546 C531 1.254 . S
O547 Pr521 2.490 . S
O547 C531 1.225 . S
O548 Pr520 2.436 . S
O548 Pr521 2.695 . S
O548 C538 1.270 . S
O549 Pr521 2.512 . S
O549 C538 1.248 . S
O550 Pr520 2.438 . S
O550 C539 1.267 . S
O551 Pr521 2.437 . S
O551 C539 1.278 . S
H552 C524 0.929 . S
H553 C525 0.929 . S
H554 C527 0.931 . S
H555 C528 0.930 . S
H556 C533 0.929 . S
H557 C534 0.929 . S
H558 C536 0.931 . S
H559 C537 0.930 . S
Pr560 C562 2.880 . S
Pr560 O580 2.562 . S
Pr560 O581 2.490 . S
Pr560 O582 2.695 . S
Pr560 O583 2.512 . S
Pr560 O585 2.437 . S
Pr560 O588 2.436 . S
Pr560 O590 2.438 . S
Pr561 C571 2.880 . S
Pr561 O582 2.436 . S
Pr561 O584 2.438 . S
Pr561 O586 2.562 . S
Pr561 O587 2.490 . S
Pr561 O588 2.695 . S
Pr561 O589 2.512 . S
Pr561 O591 2.437 . S
C562 Pr560 2.880 . S
C562 C563 1.491 . S
C562 O580 1.254 . S
C562 O581 1.225 . S
C563 C562 1.491 . S
C563 C564 1.392 . S
C563 C568 1.356 . S
C564 C563 1.392 . S
C564 C565 1.368 . S
C564 H592 0.929 . S
C565 C564 1.368 . S
C565 C566 1.386 . S
C565 H593 0.929 . S
C566 C565 1.386 . S
C566 C567 1.373 . S
C567 C566 1.373 . S
C567 C568 1.409 . S
C567 H594 0.931 . S
C568 C563 1.356 . S
C568 C567 1.409 . S
C568 H595 0.930 . S
C569 O582 1.270 . S
C569 O583 1.248 . S
C570 O584 1.267 . S
C570 O585 1.278 . S
C571 Pr561 2.880 . S
C571 C572 1.491 . S
C571 O586 1.254 . S
C571 O587 1.225 . S
C572 C571 1.491 . S
C572 C573 1.392 . S
C572 C577 1.356 . S
C573 C572 1.392 . S
C573 C574 1.368 . S
C573 H596 0.929 . S
C574 C573 1.368 . S
C574 C575 1.386 . S
C574 H597 0.929 . S
C575 C574 1.386 . S
C575 C576 1.373 . S
C576 C575 1.373 . S
C576 C577 1.409 . S
C576 H598 0.931 . S
C577 C572 1.356 . S
C577 C576 1.409 . S
C577 H599 0.930 . S
C578 O588 1.270 . S
C578 O589 1.248 . S
C579 O590 1.267 . S
C579 O591 1.278 . S
O580 Pr560 2.562 . S
O580 C562 1.254 . S
O581 Pr560 2.490 . S
O581 C562 1.225 . S
O582 Pr560 2.695 . S
O582 Pr561 2.436 . S
O582 C569 1.270 . S
O583 Pr560 2.512 . S
O583 C569 1.248 . S
O584 Pr561 2.438 . S
O584 C570 1.267 . S
O585 Pr560 2.437 . S
O585 C570 1.278 . S
O586 Pr561 2.562 . S
O586 C571 1.254 . S
O587 Pr561 2.490 . S
O587 C571 1.225 . S
O588 Pr560 2.436 . S
O588 Pr561 2.695 . S
O588 C578 1.270 . S
O589 Pr561 2.512 . S
O589 C578 1.248 . S
O590 Pr560 2.438 . S
O590 C579 1.267 . S
O591 Pr561 2.437 . S
O591 C579 1.278 . S
H592 C564 0.929 . S
H593 C565 0.929 . S
H594 C567 0.931 . S
H595 C568 0.930 . S
H596 C573 0.929 . S
H597 C574 0.929 . S
H598 C576 0.931 . S
H599 C577 0.930 . S
Pr600 C602 2.880 . S
Pr600 O620 2.562 . S
Pr600 O621 2.490 . S
Pr600 O622 2.695 . S
Pr600 O623 2.512 . S
Pr600 O625 2.437 . S
Pr600 O628 2.436 . S
Pr600 O630 2.482 . S
Pr601 C611 2.851 1_554 S
Pr601 O622 2.436 . S
Pr601 O624 2.438 . S
Pr601 O626 2.562 1_554 S
Pr601 O627 2.490 . S
Pr601 O628 2.695 . S
Pr601 O629 2.512 . S
Pr601 O631 2.437 . S
C602 Pr600 2.880 . S
C602 C603 1.491 . S
C602 O620 1.254 . S
C602 O621 1.225 . S
C603 C602 1.491 . S
C603 C604 1.392 . S
C603 C608 1.356 . S
C604 C603 1.392 . S
C604 C605 1.368 . S
C604 H632 0.929 . S
C605 C604 1.368 . S
C605 C606 1.386 . S
C605 H633 0.929 . S
C606 C605 1.386 . S
C606 C607 1.373 . S
C607 C606 1.373 . S
C607 C608 1.409 . S
C607 H634 0.931 . S
C608 C603 1.356 . S
C608 C607 1.409 . S
C608 H635 0.930 . S
C609 O622 1.270 . S
C609 O623 1.248 . S
C610 O624 1.267 . S
C610 O625 1.278 . S
C611 Pr601 2.851 1_556 S
C611 C612 1.520 . S
C611 O626 1.258 . S
C611 O627 1.193 1_556 S
C612 C611 1.520 . S
C612 C613 1.392 . S
C612 C617 1.356 . S
C613 C612 1.392 . S
C613 C614 1.368 . S
C613 H636 0.929 . S
C614 C613 1.368 . S
C614 C615 1.386 . S
C614 H637 0.929 . S
C615 C614 1.386 . S
C615 C616 1.373 . S
C616 C615 1.373 . S
C616 C617 1.409 . S
C616 H638 0.931 . S
C617 C612 1.356 . S
C617 C616 1.409 . S
C617 H639 0.930 . S
C618 O628 1.270 . S
C618 O629 1.248 . S
C619 O630 1.248 1_556 S
C619 O631 1.278 1_556 S
O620 Pr600 2.562 . S
O620 C602 1.254 . S
O621 Pr600 2.490 . S
O621 C602 1.225 . S
O622 Pr600 2.695 . S
O622 Pr601 2.436 . S
O622 C609 1.270 . S
O623 Pr600 2.512 . S
O623 C609 1.248 . S
O624 Pr601 2.438 . S
O624 C610 1.267 . S
O625 Pr600 2.437 . S
O625 C610 1.278 . S
O626 Pr601 2.562 1_556 S
O626 C611 1.258 . S
O627 Pr601 2.490 . S
O627 C611 1.193 1_554 S
O628 Pr600 2.436 . S
O628 Pr601 2.695 . S
O628 C618 1.270 . S
O629 Pr601 2.512 . S
O629 C618 1.248 . S
O630 Pr600 2.482 . S
O630 C619 1.248 1_554 S
O631 Pr601 2.437 . S
O631 C619 1.278 1_554 S
H632 C604 0.929 . S
H633 C605 0.929 . S
H634 C607 0.931 . S
H635 C608 0.930 . S
H636 C613 0.929 . S
H637 C614 0.929 . S
H638 C616 0.931 . S
H639 C617 0.930 . S
Pr640 C642 2.880 . S
Pr640 O660 2.562 . S
Pr640 O661 2.490 . S
Pr640 O662 2.695 . S
Pr640 O663 2.512 . S
Pr640 O665 2.437 . S
Pr640 O668 2.436 . S
Pr640 O670 2.438 . S
Pr641 C651 2.880 . S
Pr641 O662 2.436 . S
Pr641 O664 2.438 . S
Pr641 O666 2.562 . S
Pr641 O667 2.490 . S
Pr641 O668 2.695 . S
Pr641 O669 2.512 . S
Pr641 O671 2.437 . S
C642 Pr640 2.880 . S
C642 C643 1.491 . S
C642 O660 1.254 . S
C642 O661 1.225 . S
C643 C642 1.491 . S
C643 C644 1.392 . S
C643 C648 1.356 . S
C644 C643 1.392 . S
C644 C645 1.368 . S
C644 H672 0.929 . S
C645 C644 1.368 . S
C645 C646 1.386 . S
C645 H673 0.929 . S
C646 C645 1.386 . S
C646 C647 1.373 . S
C647 C646 1.373 . S
C647 C648 1.409 . S
C647 H674 0.931 . S
C648 C643 1.356 . S
C648 C647 1.409 . S
C648 H675 0.930 . S
C649 O662 1.270 . S
C649 O663 1.248 . S
C650 O664 1.267 . S
C650 O665 1.278 . S
C651 Pr641 2.880 . S
C651 C652 1.491 . S
C651 O666 1.254 . S
C651 O667 1.225 . S
C652 C651 1.491 . S
C652 C653 1.392 . S
C652 C657 1.356 . S
C653 C652 1.392 . S
C653 C654 1.368 . S
C653 H676 0.929 . S
C654 C653 1.368 . S
C654 C655 1.386 . S
C654 H677 0.929 . S
C655 C654 1.386 . S
C655 C656 1.373 . S
C656 C655 1.373 . S
C656 C657 1.409 . S
C656 H678 0.931 . S
C657 C652 1.356 . S
C657 C656 1.409 . S
C657 H679 0.930 . S
C658 O668 1.270 . S
C658 O669 1.248 . S
C659 O670 1.267 . S
C659 O671 1.278 . S
O660 Pr640 2.562 . S
O660 C642 1.254 . S
O661 Pr640 2.490 . S
O661 C642 1.225 . S
O662 Pr640 2.695 . S
O662 Pr641 2.436 . S
O662 C649 1.270 . S
O663 Pr640 2.512 . S
O663 C649 1.248 . S
O664 Pr641 2.438 . S
O664 C650 1.267 . S
O665 Pr640 2.437 . S
O665 C650 1.278 . S
O666 Pr641 2.562 . S
O666 C651 1.254 . S
O667 Pr641 2.490 . S
O667 C651 1.225 . S
O668 Pr640 2.436 . S
O668 Pr641 2.695 . S
O668 C658 1.270 . S
O669 Pr641 2.512 . S
O669 C658 1.248 . S
O670 Pr640 2.438 . S
O670 C659 1.267 . S
O671 Pr641 2.437 . S
O671 C659 1.278 . S
H672 C644 0.929 . S
H673 C645 0.929 . S
H674 C647 0.931 . S
H675 C648 0.930 . S
H676 C653 0.929 . S
H677 C654 0.929 . S
H678 C656 0.931 . S
H679 C657 0.930 . S
Pr680 C682 2.851 1_554 S
Pr680 O700 2.562 1_554 S
Pr680 O701 2.490 . S
Pr680 O702 2.695 . S
Pr680 O703 2.512 . S
Pr680 O705 2.437 . S
Pr680 O708 2.436 . S
Pr680 O710 2.438 . S
Pr681 C691 2.880 . S
Pr681 O702 2.436 . S
Pr681 O704 2.482 . S
Pr681 O706 2.562 . S
Pr681 O707 2.490 . S
Pr681 O708 2.695 . S
Pr681 O709 2.512 . S
Pr681 O711 2.437 . S
C682 Pr680 2.851 1_556 S
C682 C683 1.520 . S
C682 O700 1.258 . S
C682 O701 1.193 1_556 S
C683 C682 1.520 . S
C683 C684 1.392 . S
C683 C688 1.356 . S
C684 C683 1.392 . S
C684 C685 1.368 . S
C684 H712 0.929 . S
C685 C684 1.368 . S
C685 C686 1.386 . S
C685 H713 0.929 . S
C686 C685 1.386 . S
C686 C687 1.373 . S
C687 C686 1.373 . S
C687 C688 1.409 . S
C687 H714 0.931 . S
C688 C683 1.356 . S
C688 C687 1.409 . S
C688 H715 0.930 . S
C689 O702 1.270 . S
C689 O703 1.248 . S
C690 O704 1.248 1_556 S
C690 O705 1.278 1_556 S
C691 Pr681 2.880 . S
C691 C692 1.491 . S
C691 O706 1.254 . S
C691 O707 1.225 . S
C692 C691 1.491 . S
C692 C693 1.392 . S
C692 C697 1.356 . S
C693 C692 1.392 . S
C693 C694 1.368 . S
C693 H716 0.929 . S
C694 C693 1.368 . S
C694 C695 1.386 . S
C694 H717 0.929 . S
C695 C694 1.386 . S
C695 C696 1.373 . S
C696 C695 1.373 . S
C696 C697 1.409 . S
C696 H718 0.931 . S
C697 C692 1.356 . S
C697 C696 1.409 . S
C697 H719 0.930 . S
C698 O708 1.270 . S
C698 O709 1.248 . S
C699 O710 1.267 . S
C699 O711 1.278 . S
O700 Pr680 2.562 1_556 S
O700 C682 1.258 . S
O701 Pr680 2.490 . S
O701 C682 1.193 1_554 S
O702 Pr680 2.695 . S
O702 Pr681 2.436 . S
O702 C689 1.270 . S
O703 Pr680 2.512 . S
O703 C689 1.248 . S
O704 Pr681 2.482 . S
O704 C690 1.248 1_554 S
O705 Pr680 2.437 . S
O705 C690 1.278 1_554 S
O706 Pr681 2.562 . S
O706 C691 1.254 . S
O707 Pr681 2.490 . S
O707 C691 1.225 . S
O708 Pr680 2.436 . S
O708 Pr681 2.695 . S
O708 C698 1.270 . S
O709 Pr681 2.512 . S
O709 C698 1.248 . S
O710 Pr680 2.438 . S
O710 C699 1.267 . S
O711 Pr681 2.437 . S
O711 C699 1.278 . S
H712 C684 0.929 . S
H713 C685 0.929 . S
H714 C687 0.931 . S
H715 C688 0.930 . S
H716 C693 0.929 . S
H717 C694 0.929 . S
H718 C696 0.931 . S
H719 C697 0.930 . S
Pr720 C722 2.880 . S
Pr720 O740 2.562 . S
Pr720 O741 2.490 . S
Pr720 O742 2.695 . S
Pr720 O743 2.512 . S
Pr720 O745 2.437 . S
Pr720 O748 2.436 . S
Pr720 O750 2.438 . S
Pr721 C731 2.880 . S
Pr721 O742 2.436 . S
Pr721 O744 2.438 . S
Pr721 O746 2.562 . S
Pr721 O747 2.490 . S
Pr721 O748 2.695 . S
Pr721 O749 2.512 . S
Pr721 O751 2.437 . S
C722 Pr720 2.880 . S
C722 C723 1.491 . S
C722 O740 1.254 . S
C722 O741 1.225 . S
C723 C722 1.491 . S
C723 C724 1.392 . S
C723 C728 1.356 . S
C724 C723 1.392 . S
C724 C725 1.368 . S
C724 H752 0.929 . S
C725 C724 1.368 . S
C725 C726 1.386 . S
C725 H753 0.929 . S
C726 C725 1.386 . S
C726 C727 1.373 . S
C727 C726 1.373 . S
C727 C728 1.409 . S
C727 H754 0.931 . S
C728 C723 1.356 . S
C728 C727 1.409 . S
C728 H755 0.930 . S
C729 O742 1.270 . S
C729 O743 1.248 . S
C730 O744 1.267 . S
C730 O745 1.278 . S
C731 Pr721 2.880 . S
C731 C732 1.491 . S
C731 O746 1.254 . S
C731 O747 1.225 . S
C732 C731 1.491 . S
C732 C733 1.392 . S
C732 C737 1.356 . S
C733 C732 1.392 . S
C733 C734 1.368 . S
C733 H756 0.929 . S
C734 C733 1.368 . S
C734 C735 1.386 . S
C734 H757 0.929 . S
C735 C734 1.386 . S
C735 C736 1.373 . S
C736 C735 1.373 . S
C736 C737 1.409 . S
C736 H758 0.931 . S
C737 C732 1.356 . S
C737 C736 1.409 . S
C737 H759 0.930 . S
C738 O748 1.270 . S
C738 O749 1.248 . S
C739 O750 1.267 . S
C739 O751 1.278 . S
O740 Pr720 2.562 . S
O740 C722 1.254 . S
O741 Pr720 2.490 . S
O741 C722 1.225 . S
O742 Pr720 2.695 . S
O742 Pr721 2.436 . S
O742 C729 1.270 . S
O743 Pr720 2.512 . S
O743 C729 1.248 . S
O744 Pr721 2.438 . S
O744 C730 1.267 . S
O745 Pr720 2.437 . S
O745 C730 1.278 . S
O746 Pr721 2.562 . S
O746 C731 1.254 . S
O747 Pr721 2.490 . S
O747 C731 1.225 . S
O748 Pr720 2.436 . S
O748 Pr721 2.695 . S
O748 C738 1.270 . S
O749 Pr721 2.512 . S
O749 C738 1.248 . S
O750 Pr720 2.438 . S
O750 C739 1.267 . S
O751 Pr721 2.437 . S
O751 C739 1.278 . S
H752 C724 0.929 . S
H753 C725 0.929 . S
H754 C727 0.931 . S
H755 C728 0.930 . S
H756 C733 0.929 . S
H757 C734 0.929 . S
H758 C736 0.931 . S
H759 C737 0.930 . S
Pr760 C762 2.880 . S
Pr760 O780 2.562 . S
Pr760 O781 2.490 . S
Pr760 O782 2.695 . S
Pr760 O783 2.512 . S
Pr760 O785 2.437 . S
Pr760 O788 2.436 . S
Pr760 O790 2.438 . S
Pr761 C771 2.880 . S
Pr761 O782 2.436 . S
Pr761 O784 2.438 . S
Pr761 O786 2.562 . S
Pr761 O787 2.490 . S
Pr761 O788 2.695 . S
Pr761 O789 2.512 . S
Pr761 O791 2.437 . S
C762 Pr760 2.880 . S
C762 C763 1.491 . S
C762 O780 1.254 . S
C762 O781 1.225 . S
C763 C762 1.491 . S
C763 C764 1.392 . S
C763 C768 1.356 . S
C764 C763 1.392 . S
C764 C765 1.368 . S
C764 H792 0.929 . S
C765 C764 1.368 . S
C765 C766 1.386 . S
C765 H793 0.929 . S
C766 C765 1.386 . S
C766 C767 1.373 . S
C767 C766 1.373 . S
C767 C768 1.409 . S
C767 H794 0.931 . S
C768 C763 1.356 . S
C768 C767 1.409 . S
C768 H795 0.930 . S
C769 O782 1.270 . S
C769 O783 1.248 . S
C770 O784 1.267 . S
C770 O785 1.278 . S
C771 Pr761 2.880 . S
C771 C772 1.491 . S
C771 O786 1.254 . S
C771 O787 1.225 . S
C772 C771 1.491 . S
C772 C773 1.392 . S
C772 C777 1.356 . S
C773 C772 1.392 . S
C773 C774 1.368 . S
C773 H796 0.929 . S
C774 C773 1.368 . S
C774 C775 1.386 . S
C774 H797 0.929 . S
C775 C774 1.386 . S
C775 C776 1.373 . S
C776 C775 1.373 . S
C776 C777 1.409 . S
C776 H798 0.931 . S
C777 C772 1.356 . S
C777 C776 1.409 . S
C777 H799 0.930 . S
C778 O788 1.270 . S
C778 O789 1.248 . S
C779 O790 1.267 . S
C779 O791 1.278 . S
O780 Pr760 2.562 . S
O780 C762 1.254 . S
O781 Pr760 2.490 . S
O781 C762 1.225 . S
O782 Pr760 2.695 . S
O782 Pr761 2.436 . S
O782 C769 1.270 . S
O783 Pr760 2.512 . S
O783 C769 1.248 . S
O784 Pr761 2.438 . S
O784 C770 1.267 . S
O785 Pr760 2.437 . S
O785 C770 1.278 . S
O786 Pr761 2.562 . S
O786 C771 1.254 . S
O787 Pr761 2.490 . S
O787 C771 1.225 . S
O788 Pr760 2.436 . S
O788 Pr761 2.695 . S
O788 C778 1.270 . S
O789 Pr761 2.512 . S
O789 C778 1.248 . S
O790 Pr760 2.438 . S
O790 C779 1.267 . S
O791 Pr761 2.437 . S
O791 C779 1.278 . S
H792 C764 0.929 . S
H793 C765 0.929 . S
H794 C767 0.931 . S
H795 C768 0.930 . S
H796 C773 0.929 . S
H797 C774 0.929 . S
H798 C776 0.931 . S
H799 C777 0.930 . S
Pr800 C802 2.880 . S
Pr800 O820 2.562 . S
Pr800 O821 2.490 . S
Pr800 O822 2.695 . S
Pr800 O823 2.512 . S
Pr800 O825 2.437 . S
Pr800 O828 2.436 . S
Pr800 O830 2.438 . S
Pr801 C811 2.880 . S
Pr801 O822 2.436 . S
Pr801 O824 2.438 . S
Pr801 O826 2.562 . S
Pr801 O827 2.490 . S
Pr801 O828 2.695 . S
Pr801 O829 2.512 . S
Pr801 O831 2.437 . S
C802 Pr800 2.880 . S
C802 C803 1.491 . S
C802 O820 1.254 . S
C802 O821 1.225 . S
C803 C802 1.491 . S
C803 C804 1.392 . S
C803 C808 1.356 . S
C804 C803 1.392 . S
C804 C805 1.368 . S
C804 H832 0.929 . S
C805 C804 1.368 . S
C805 C806 1.386 . S
C805 H833 0.929 . S
C806 C805 1.386 . S
C806 C807 1.373 . S
C807 C806 1.373 . S
C807 C808 1.409 . S
C807 H834 0.931 . S
C808 C803 1.356 . S
C808 C807 1.409 . S
C808 H835 0.930 . S
C809 O822 1.270 . S
C809 O823 1.248 . S
C810 O824 1.267 . S
C810 O825 1.278 . S
C811 Pr801 2.880 . S
C811 C812 1.491 . S
C811 O826 1.254 . S
C811 O827 1.225 . S
C812 C811 1.491 . S
C812 C813 1.392 . S
C812 C817 1.356 . S
C813 C812 1.392 . S
C813 C814 1.368 . S
C813 H836 0.929 . S
C814 C813 1.368 . S
C814 C815 1.386 . S
C814 H837 0.929 . S
C815 C814 1.386 . S
C815 C816 1.373 . S
C816 C815 1.373 . S
C816 C817 1.409 . S
C816 H838 0.931 . S
C817 C812 1.356 . S
C817 C816 1.409 . S
C817 H839 0.930 . S
C818 O828 1.270 . S
C818 O829 1.248 . S
C819 O830 1.267 . S
C819 O831 1.278 . S
O820 Pr800 2.562 . S
O820 C802 1.254 . S
O821 Pr800 2.490 . S
O821 C802 1.225 . S
O822 Pr800 2.695 . S
O822 Pr801 2.436 . S
O822 C809 1.270 . S
O823 Pr800 2.512 . S
O823 C809 1.248 . S
O824 Pr801 2.438 . S
O824 C810 1.267 . S
O825 Pr800 2.437 . S
O825 C810 1.278 . S
O826 Pr801 2.562 . S
O826 C811 1.254 . S
O827 Pr801 2.490 . S
O827 C811 1.225 . S
O828 Pr800 2.436 . S
O828 Pr801 2.695 . S
O828 C818 1.270 . S
O829 Pr801 2.512 . S
O829 C818 1.248 . S
O830 Pr800 2.438 . S
O830 C819 1.267 . S
O831 Pr801 2.437 . S
O831 C819 1.278 . S
H832 C804 0.929 . S
H833 C805 0.929 . S
H834 C807 0.931 . S
H835 C808 0.930 . S
H836 C813 0.929 . S
H837 C814 0.929 . S
H838 C816 0.931 . S
H839 C817 0.930 . S
Pr840 C842 2.851 1_556 S
Pr840 O860 2.562 1_556 S
Pr840 O861 2.490 . S
Pr840 O862 2.695 . S
Pr840 O863 2.512 . S
Pr840 O865 2.437 . S
Pr840 O868 2.436 . S
Pr840 O870 2.438 . S
Pr841 C851 2.880 . S
Pr841 O862 2.436 . S
Pr841 O864 2.482 . S
Pr841 O866 2.562 . S
Pr841 O867 2.490 . S
Pr841 O868 2.695 . S
Pr841 O869 2.512 . S
Pr841 O871 2.437 . S
C842 Pr840 2.851 1_554 S
C842 C843 1.520 . S
C842 O860 1.258 . S
C842 O861 1.193 1_554 S
C843 C842 1.520 . S
C843 C844 1.392 . S
C843 C848 1.356 . S
C844 C843 1.392 . S
C844 C845 1.368 . S
C844 H872 0.929 . S
C845 C844 1.368 . S
C845 C846 1.386 . S
C845 H873 0.929 . S
C846 C845 1.386 . S
C846 C847 1.373 . S
C847 C846 1.373 . S
C847 C848 1.409 . S
C847 H874 0.931 . S
C848 C843 1.356 . S
C848 C847 1.409 . S
C848 H875 0.930 . S
C849 O862 1.270 . S
C849 O863 1.248 . S
C850 O864 1.248 1_554 S
C850 O865 1.278 1_554 S
C851 Pr841 2.880 . S
C851 C852 1.491 . S
C851 O866 1.254 . S
C851 O867 1.225 . S
C852 C851 1.491 . S
C852 C853 1.392 . S
C852 C857 1.356 . S
C853 C852 1.392 . S
C853 C854 1.368 . S
C853 H876 0.929 . S
C854 C853 1.368 . S
C854 C855 1.386 . S
C854 H877 0.929 . S
C855 C854 1.386 . S
C855 C856 1.373 . S
C856 C855 1.373 . S
C856 C857 1.409 . S
C856 H878 0.931 . S
C857 C852 1.356 . S
C857 C856 1.409 . S
C857 H879 0.930 . S
C858 O868 1.270 . S
C858 O869 1.248 . S
C859 O870 1.267 . S
C859 O871 1.278 . S
O860 Pr840 2.562 1_554 S
O860 C842 1.258 . S
O861 Pr840 2.490 . S
O861 C842 1.193 1_556 S
O862 Pr840 2.695 . S
O862 Pr841 2.436 . S
O862 C849 1.270 . S
O863 Pr840 2.512 . S
O863 C849 1.248 . S
O864 Pr841 2.482 . S
O864 C850 1.248 1_556 S
O865 Pr840 2.437 . S
O865 C850 1.278 1_556 S
O866 Pr841 2.562 . S
O866 C851 1.254 . S
O867 Pr841 2.490 . S
O867 C851 1.225 . S
O868 Pr840 2.436 . S
O868 Pr841 2.695 . S
O868 C858 1.270 . S
O869 Pr841 2.512 . S
O869 C858 1.248 . S
O870 Pr840 2.438 . S
O870 C859 1.267 . S
O871 Pr841 2.437 . S
O871 C859 1.278 . S
H872 C844 0.929 . S
H873 C845 0.929 . S
H874 C847 0.931 . S
H875 C848 0.930 . S
H876 C853 0.929 . S
H877 C854 0.929 . S
H878 C856 0.931 . S
H879 C857 0.930 . S
Pr880 C882 2.880 . S
Pr880 O900 2.562 . S
Pr880 O901 2.490 . S
Pr880 O902 2.695 . S
Pr880 O903 2.512 . S
Pr880 O905 2.437 . S
Pr880 O908 2.436 . S
Pr880 O910 2.438 . S
Pr881 C891 2.880 . S
Pr881 O902 2.436 . S
Pr881 O904 2.438 . S
Pr881 O906 2.562 . S
Pr881 O907 2.490 . S
Pr881 O908 2.695 . S
Pr881 O909 2.512 . S
Pr881 O911 2.437 . S
C882 Pr880 2.880 . S
C882 C883 1.491 . S
C882 O900 1.254 . S
C882 O901 1.225 . S
C883 C882 1.491 . S
C883 C884 1.392 . S
C883 C888 1.356 . S
C884 C883 1.392 . S
C884 C885 1.368 . S
C884 H912 0.929 . S
C885 C884 1.368 . S
C885 C886 1.386 . S
C885 H913 0.929 . S
C886 C885 1.386 . S
C886 C887 1.373 . S
C887 C886 1.373 . S
C887 C888 1.409 . S
C887 H914 0.931 . S
C888 C883 1.356 . S
C888 C887 1.409 . S
C888 H915 0.930 . S
C889 O902 1.270 . S
C889 O903 1.248 . S
C890 O904 1.267 . S
C890 O905 1.278 . S
C891 Pr881 2.880 . S
C891 C892 1.491 . S
C891 O906 1.254 . S
C891 O907 1.225 . S
C892 C891 1.491 . S
C892 C893 1.392 . S
C892 C897 1.356 . S
C893 C892 1.392 . S
C893 C894 1.368 . S
C893 H916 0.929 . S
C894 C893 1.368 . S
C894 C895 1.386 . S
C894 H917 0.929 . S
C895 C894 1.386 . S
C895 C896 1.373 . S
C896 C895 1.373 . S
C896 C897 1.409 . S
C896 H918 0.931 . S
C897 C892 1.356 . S
C897 C896 1.409 . S
C897 H919 0.930 . S
C898 O908 1.270 . S
C898 O909 1.248 . S
C899 O910 1.267 . S
C899 O911 1.278 . S
O900 Pr880 2.562 . S
O900 C882 1.254 . S
O901 Pr880 2.490 . S
O901 C882 1.225 . S
O902 Pr880 2.695 . S
O902 Pr881 2.436 . S
O902 C889 1.270 . S
O903 Pr880 2.512 . S
O903 C889 1.248 . S
O904 Pr881 2.438 . S
O904 C890 1.267 . S
O905 Pr880 2.437 . S
O905 C890 1.278 . S
O906 Pr881 2.562 . S
O906 C891 1.254 . S
O907 Pr881 2.490 . S
O907 C891 1.225 . S
O908 Pr880 2.436 . S
O908 Pr881 2.695 . S
O908 C898 1.270 . S
O909 Pr881 2.512 . S
O909 C898 1.248 . S
O910 Pr880 2.438 . S
O910 C899 1.267 . S
O911 Pr881 2.437 . S
O911 C899 1.278 . S
H912 C884 0.929 . S
H913 C885 0.929 . S
H914 C887 0.931 . S
H915 C888 0.930 . S
H916 C893 0.929 . S
H917 C894 0.929 . S
H918 C896 0.931 . S
H919 C897 0.930 . S
Pr920 C922 2.880 . S
Pr920 O940 2.562 . S
Pr920 O941 2.490 . S
Pr920 O942 2.695 . S
Pr920 O943 2.512 . S
Pr920 O945 2.437 . S
Pr920 O948 2.436 . S
Pr920 O950 2.438 . S
Pr921 C931 2.880 . S
Pr921 O942 2.436 . S
Pr921 O944 2.438 . S
Pr921 O946 2.562 . S
Pr921 O947 2.490 . S
Pr921 O948 2.695 . S
Pr921 O949 2.512 . S
Pr921 O951 2.437 . S
C922 Pr920 2.880 . S
C922 C923 1.491 . S
C922 O940 1.254 . S
C922 O941 1.225 . S
C923 C922 1.491 . S
C923 C924 1.392 . S
C923 C928 1.356 . S
C924 C923 1.392 . S
C924 C925 1.368 . S
C924 H952 0.929 . S
C925 C924 1.368 . S
C925 C926 1.386 . S
C925 H953 0.929 . S
C926 C925 1.386 . S
C926 C927 1.373 . S
C927 C926 1.373 . S
C927 C928 1.409 . S
C927 H954 0.931 . S
C928 C923 1.356 . S
C928 C927 1.409 . S
C928 H955 0.930 . S
C929 O942 1.270 . S
C929 O943 1.248 . S
C930 O944 1.267 . S
C930 O945 1.278 . S
C931 Pr921 2.880 . S
C931 C932 1.491 . S
C931 O946 1.254 . S
C931 O947 1.225 . S
C932 C931 1.491 . S
C932 C933 1.392 . S
C932 C937 1.356 . S
C933 C932 1.392 . S
C933 C934 1.368 . S
C933 H956 0.929 . S
C934 C933 1.368 . S
C934 C935 1.386 . S
C934 H957 0.929 . S
C935 C934 1.386 . S
C935 C936 1.373 . S
C936 C935 1.373 . S
C936 C937 1.409 . S
C936 H958 0.931 . S
C937 C932 1.356 . S
C937 C936 1.409 . S
C937 H959 0.930 . S
C938 O948 1.270 . S
C938 O949 1.248 . S
C939 O950 1.267 . S
C939 O951 1.278 . S
O940 Pr920 2.562 . S
O940 C922 1.254 . S
O941 Pr920 2.490 . S
O941 C922 1.225 . S
O942 Pr920 2.695 . S
O942 Pr921 2.436 . S
O942 C929 1.270 . S
O943 Pr920 2.512 . S
O943 C929 1.248 . S
O944 Pr921 2.438 . S
O944 C930 1.267 . S
O945 Pr920 2.437 . S
O945 C930 1.278 . S
O946 Pr921 2.562 . S
O946 C931 1.254 . S
O947 Pr921 2.490 . S
O947 C931 1.225 . S
O948 Pr920 2.436 . S
O948 Pr921 2.695 . S
O948 C938 1.270 . S
O949 Pr921 2.512 . S
O949 C938 1.248 . S
O950 Pr920 2.438 . S
O950 C939 1.267 . S
O951 Pr921 2.437 . S
O951 C939 1.278 . S
H952 C924 0.929 . S
H953 C925 0.929 . S
H954 C927 0.931 . S
H955 C928 0.930 . S
H956 C933 0.929 . S
H957 C934 0.929 . S
H958 C936 0.931 . S
H959 C937 0.930 . S
Pr960 C962 2.880 . S
Pr960 O980 2.562 . S
Pr960 O981 2.490 . S
Pr960 O982 2.695 . S
Pr960 O983 2.512 . S
Pr960 O985 2.437 . S
Pr960 O988 2.436 . S
Pr960 O990 2.438 . S
Pr961 C971 2.880 . S
Pr961 O982 2.436 . S
Pr961 O984 2.438 . S
Pr961 O986 2.562 . S
Pr961 O987 2.490 . S
Pr961 O988 2.695 . S
Pr961 O989 2.512 . S
Pr961 O991 2.437 . S
C962 Pr960 2.880 . S
C962 C963 1.491 . S
C962 O980 1.254 . S
C962 O981 1.225 . S
C963 C962 1.491 . S
C963 C964 1.392 . S
C963 C968 1.356 . S
C964 C963 1.392 . S
C964 C965 1.368 . S
C964 H992 0.929 . S
C965 C964 1.368 . S
C965 C966 1.386 . S
C965 H993 0.929 . S
C966 C965 1.386 . S
C966 C967 1.373 . S
C967 C966 1.373 . S
C967 C968 1.409 . S
C967 H994 0.931 . S
C968 C963 1.356 . S
C968 C967 1.409 . S
C968 H995 0.930 . S
C969 O982 1.270 . S
C969 O983 1.248 . S
C970 O984 1.267 . S
C970 O985 1.278 . S
C971 Pr961 2.880 . S
C971 C972 1.491 . S
C971 O986 1.254 . S
C971 O987 1.225 . S
C972 C971 1.491 . S
C972 C973 1.392 . S
C972 C977 1.356 . S
C973 C972 1.392 . S
C973 C974 1.368 . S
C973 H996 0.929 . S
C974 C973 1.368 . S
C974 C975 1.386 . S
C974 H997 0.929 . S
C975 C974 1.386 . S
C975 C976 1.373 . S
C976 C975 1.373 . S
C976 C977 1.409 . S
C976 H998 0.931 . S
C977 C972 1.356 . S
C977 C976 1.409 . S
C977 H999 0.930 . S
C978 O988 1.270 . S
C978 O989 1.248 . S
C979 O990 1.267 . S
C979 O991 1.278 . S
O980 Pr960 2.562 . S
O980 C962 1.254 . S
O981 Pr960 2.490 . S
O981 C962 1.225 . S
O982 Pr960 2.695 . S
O982 Pr961 2.436 . S
O982 C969 1.270 . S
O983 Pr960 2.512 . S
O983 C969 1.248 . S
O984 Pr961 2.438 . S
O984 C970 1.267 . S
O985 Pr960 2.437 . S
O985 C970 1.278 . S
O986 Pr961 2.562 . S
O986 C971 1.254 . S
O987 Pr961 2.490 . S
O987 C971 1.225 . S
O988 Pr960 2.436 . S
O988 Pr961 2.695 . S
O988 C978 1.270 . S
O989 Pr961 2.512 . S
O989 C978 1.248 . S
O990 Pr960 2.438 . S
O990 C979 1.267 . S
O991 Pr961 2.437 . S
O991 C979 1.278 . S
H992 C964 0.929 . S
H993 C965 0.929 . S
H994 C967 0.931 . S
H995 C968 0.930 . S
H996 C973 0.929 . S
H997 C974 0.929 . S
H998 C976 0.931 . S
H999 C977 0.930 . S
Pr1000 C1002 2.880 . S
Pr1000 O1020 2.562 . S
Pr1000 O1021 2.490 . S
Pr1000 O1022 2.695 . S
Pr1000 O1023 2.512 . S
Pr1000 O1025 2.437 . S
Pr1000 O1028 2.436 . S
Pr1000 O1030 2.482 . S
Pr1001 C1011 2.851 1_556 S
Pr1001 O1022 2.436 . S
Pr1001 O1024 2.438 . S
Pr1001 O1026 2.562 1_556 S
Pr1001 O1027 2.490 . S
Pr1001 O1028 2.695 . S
Pr1001 O1029 2.512 . S
Pr1001 O1031 2.437 . S
C1002 Pr1000 2.880 . S
C1002 C1003 1.491 . S
C1002 O1020 1.254 . S
C1002 O1021 1.225 . S
C1003 C1002 1.491 . S
C1003 C1004 1.392 . S
C1003 C1008 1.356 . S
C1004 C1003 1.392 . S
C1004 C1005 1.368 . S
C1004 H1032 0.929 . S
C1005 C1004 1.368 . S
C1005 C1006 1.386 . S
C1005 H1033 0.929 . S
C1006 C1005 1.386 . S
C1006 C1007 1.373 . S
C1007 C1006 1.373 . S
C1007 C1008 1.409 . S
C1007 H1034 0.931 . S
C1008 C1003 1.356 . S
C1008 C1007 1.409 . S
C1008 H1035 0.930 . S
C1009 O1022 1.270 . S
C1009 O1023 1.248 . S
C1010 O1024 1.267 . S
C1010 O1025 1.278 . S
C1011 Pr1001 2.851 1_554 S
C1011 C1012 1.520 . S
C1011 O1026 1.258 . S
C1011 O1027 1.193 1_554 S
C1012 C1011 1.520 . S
C1012 C1013 1.392 . S
C1012 C1017 1.356 . S
C1013 C1012 1.392 . S
C1013 C1014 1.368 . S
C1013 H1036 0.929 . S
C1014 C1013 1.368 . S
C1014 C1015 1.386 . S
C1014 H1037 0.929 . S
C1015 C1014 1.386 . S
C1015 C1016 1.373 . S
C1016 C1015 1.373 . S
C1016 C1017 1.409 . S
C1016 H1038 0.931 . S
C1017 C1012 1.356 . S
C1017 C1016 1.409 . S
C1017 H1039 0.930 . S
C1018 O1028 1.270 . S
C1018 O1029 1.248 . S
C1019 O1030 1.248 1_554 S
C1019 O1031 1.278 1_554 S
O1020 Pr1000 2.562 . S
O1020 C1002 1.254 . S
O1021 Pr1000 2.490 . S
O1021 C1002 1.225 . S
O1022 Pr1000 2.695 . S
O1022 Pr1001 2.436 . S
O1022 C1009 1.270 . S
O1023 Pr1000 2.512 . S
O1023 C1009 1.248 . S
O1024 Pr1001 2.438 . S
O1024 C1010 1.267 . S
O1025 Pr1000 2.437 . S
O1025 C1010 1.278 . S
O1026 Pr1001 2.562 1_554 S
O1026 C1011 1.258 . S
O1027 Pr1001 2.490 . S
O1027 C1011 1.193 1_556 S
O1028 Pr1000 2.436 . S
O1028 Pr1001 2.695 . S
O1028 C1018 1.270 . S
O1029 Pr1001 2.512 . S
O1029 C1018 1.248 . S
O1030 Pr1000 2.482 . S
O1030 C1019 1.248 1_556 S
O1031 Pr1001 2.437 . S
O1031 C1019 1.278 1_556 S
H1032 C1004 0.929 . S
H1033 C1005 0.929 . S
H1034 C1007 0.931 . S
H1035 C1008 0.930 . S
H1036 C1013 0.929 . S
H1037 C1014 0.929 . S
H1038 C1016 0.931 . S
H1039 C1017 0.930 . S
Pr1040 C1042 2.880 . S
Pr1040 O1060 2.562 . S
Pr1040 O1061 2.490 . S
Pr1040 O1062 2.695 . S
Pr1040 O1063 2.512 . S
Pr1040 O1065 2.437 . S
Pr1040 O1068 2.436 . S
Pr1040 O1070 2.438 . S
Pr1041 C1051 2.880 . S
Pr1041 O1062 2.436 . S
Pr1041 O1064 2.438 . S
Pr1041 O1066 2.562 . S
Pr1041 O1067 2.490 . S
Pr1041 O1068 2.695 . S
Pr1041 O1069 2.512 . S
Pr1041 O1071 2.437 . S
C1042 Pr1040 2.880 . S
C1042 C1043 1.491 . S
C1042 O1060 1.254 . S
C1042 O1061 1.225 . S
C1043 C1042 1.491 . S
C1043 C1044 1.392 . S
C1043 C1048 1.356 . S
C1044 C1043 1.392 . S
C1044 C1045 1.368 . S
C1044 H1072 0.929 . S
C1045 C1044 1.368 . S
C1045 C1046 1.386 . S
C1045 H1073 0.929 . S
C1046 C1045 1.386 . S
C1046 C1047 1.373 . S
C1047 C1046 1.373 . S
C1047 C1048 1.409 . S
C1047 H1074 0.931 . S
C1048 C1043 1.356 . S
C1048 C1047 1.409 . S
C1048 H1075 0.930 . S
C1049 O1062 1.270 . S
C1049 O1063 1.248 . S
C1050 O1064 1.267 . S
C1050 O1065 1.278 . S
C1051 Pr1041 2.880 . S
C1051 C1052 1.491 . S
C1051 O1066 1.254 . S
C1051 O1067 1.225 . S
C1052 C1051 1.491 . S
C1052 C1053 1.392 . S
C1052 C1057 1.356 . S
C1053 C1052 1.392 . S
C1053 C1054 1.368 . S
C1053 H1076 0.929 . S
C1054 C1053 1.368 . S
C1054 C1055 1.386 . S
C1054 H1077 0.929 . S
C1055 C1054 1.386 . S
C1055 C1056 1.373 . S
C1056 C1055 1.373 . S
C1056 C1057 1.409 . S
C1056 H1078 0.931 . S
C1057 C1052 1.356 . S
C1057 C1056 1.409 . S
C1057 H1079 0.930 . S
C1058 O1068 1.270 . S
C1058 O1069 1.248 . S
C1059 O1070 1.267 . S
C1059 O1071 1.278 . S
O1060 Pr1040 2.562 . S
O1060 C1042 1.254 . S
O1061 Pr1040 2.490 . S
O1061 C1042 1.225 . S
O1062 Pr1040 2.695 . S
O1062 Pr1041 2.436 . S
O1062 C1049 1.270 . S
O1063 Pr1040 2.512 . S
O1063 C1049 1.248 . S
O1064 Pr1041 2.438 . S
O1064 C1050 1.267 . S
O1065 Pr1040 2.437 . S
O1065 C1050 1.278 . S
O1066 Pr1041 2.562 . S
O1066 C1051 1.254 . S
O1067 Pr1041 2.490 . S
O1067 C1051 1.225 . S
O1068 Pr1040 2.436 . S
O1068 Pr1041 2.695 . S
O1068 C1058 1.270 . S
O1069 Pr1041 2.512 . S
O1069 C1058 1.248 . S
O1070 Pr1040 2.438 . S
O1070 C1059 1.267 . S
O1071 Pr1041 2.437 . S
O1071 C1059 1.278 . S
H1072 C1044 0.929 . S
H1073 C1045 0.929 . S
H1074 C1047 0.931 . S
H1075 C1048 0.930 . S
H1076 C1053 0.929 . S
H1077 C1054 0.929 . S
H1078 C1056 0.931 . S
H1079 C1057 0.930 . S
Pr1080 C1082 2.880 . S
Pr1080 O1100 2.562 . S
Pr1080 O1101 2.490 . S
Pr1080 O1102 2.695 . S
Pr1080 O1103 2.512 . S
Pr1080 O1105 2.437 . S
Pr1080 O1108 2.436 . S
Pr1080 O1110 2.438 . S
Pr1081 C1091 2.880 . S
Pr1081 O1102 2.436 . S
Pr1081 O1104 2.438 . S
Pr1081 O1106 2.562 . S
Pr1081 O1107 2.490 . S
Pr1081 O1108 2.695 . S
Pr1081 O1109 2.512 . S
Pr1081 O1111 2.437 . S
C1082 Pr1080 2.880 . S
C1082 C1083 1.491 . S
C1082 O1100 1.254 . S
C1082 O1101 1.225 . S
C1083 C1082 1.491 . S
C1083 C1084 1.392 . S
C1083 C1088 1.356 . S
C1084 C1083 1.392 . S
C1084 C1085 1.368 . S
C1084 H1112 0.929 . S
C1085 C1084 1.368 . S
C1085 C1086 1.386 . S
C1085 H1113 0.929 . S
C1086 C1085 1.386 . S
C1086 C1087 1.373 . S
C1087 C1086 1.373 . S
C1087 C1088 1.409 . S
C1087 H1114 0.931 . S
C1088 C1083 1.356 . S
C1088 C1087 1.409 . S
C1088 H1115 0.930 . S
C1089 O1102 1.270 . S
C1089 O1103 1.248 . S
C1090 O1104 1.267 . S
C1090 O1105 1.278 . S
C1091 Pr1081 2.880 . S
C1091 C1092 1.491 . S
C1091 O1106 1.254 . S
C1091 O1107 1.225 . S
C1092 C1091 1.491 . S
C1092 C1093 1.392 . S
C1092 C1097 1.356 . S
C1093 C1092 1.392 . S
C1093 C1094 1.368 . S
C1093 H1116 0.929 . S
C1094 C1093 1.368 . S
C1094 C1095 1.386 . S
C1094 H1117 0.929 . S
C1095 C1094 1.386 . S
C1095 C1096 1.373 . S
C1096 C1095 1.373 . S
C1096 C1097 1.409 . S
C1096 H1118 0.931 . S
C1097 C1092 1.356 . S
C1097 C1096 1.409 . S
C1097 H1119 0.930 . S
C1098 O1108 1.270 . S
C1098 O1109 1.248 . S
C1099 O1110 1.267 . S
C1099 O1111 1.278 . S
O1100 Pr1080 2.562 . S
O1100 C1082 1.254 . S
O1101 Pr1080 2.490 . S
O1101 C1082 1.225 . S
O1102 Pr1080 2.695 . S
O1102 Pr1081 2.436 . S
O1102 C1089 1.270 . S
O1103 Pr1080 2.512 . S
O1103 C1089 1.248 . S
O1104 Pr1081 2.438 . S
O1104 C1090 1.267 . S
O1105 Pr1080 2.437 . S
O1105 C1090 1.278 . S
O1106 Pr1081 2.562 . S
O1106 C1091 1.254 . S
O1107 Pr1081 2.490 . S
O1107 C1091 1.225 . S
O1108 Pr1080 2.436 . S
O1108 Pr1081 2.695 . S
O1108 C1098 1.270 . S
O1109 Pr1081 2.512 . S
O1109 C1098 1.248 . S
O1110 Pr1080 2.438 . S
O1110 C1099 1.267 . S
O1111 Pr1081 2.437 . S
O1111 C1099 1.278 . S
H1112 C1084 0.929 . S
H1113 C1085 0.929 . S
H1114 C1087 0.931 . S
H1115 C1088 0.930 . S
H1116 C1093 0.929 . S
H1117 C1094 0.929 . S
H1118 C1096 0.931 . S
H1119 C1097 0.930 . S
Pr1120 C1122 2.880 . S
Pr1120 O1140 2.562 . S
Pr1120 O1141 2.490 . S
Pr1120 O1142 2.695 . S
Pr1120 O1143 2.512 . S
Pr1120 O1145 2.437 . S
Pr1120 O1148 2.436 . S
Pr1120 O1150 2.438 . S
Pr1121 C1131 2.880 . S
Pr1121 O1142 2.436 . S
Pr1121 O1144 2.438 . S
Pr1121 O1146 2.562 . S
Pr1121 O1147 2.490 . S
Pr1121 O1148 2.695 . S
Pr1121 O1149 2.512 . S
Pr1121 O1151 2.437 . S
C1122 Pr1120 2.880 . S
C1122 C1123 1.491 . S
C1122 O1140 1.254 . S
C1122 O1141 1.225 . S
C1123 C1122 1.491 . S
C1123 C1124 1.392 . S
C1123 C1128 1.356 . S
C1124 C1123 1.392 . S
C1124 C1125 1.368 . S
C1124 H1152 0.929 . S
C1125 C1124 1.368 . S
C1125 C1126 1.386 . S
C1125 H1153 0.929 . S
C1126 C1125 1.386 . S
C1126 C1127 1.373 . S
C1127 C1126 1.373 . S
C1127 C1128 1.409 . S
C1127 H1154 0.931 . S
C1128 C1123 1.356 . S
C1128 C1127 1.409 . S
C1128 H1155 0.930 . S
C1129 O1142 1.270 . S
C1129 O1143 1.248 . S
C1130 O1144 1.267 . S
C1130 O1145 1.278 . S
C1131 Pr1121 2.880 . S
C1131 C1132 1.491 . S
C1131 O1146 1.254 . S
C1131 O1147 1.225 . S
C1132 C1131 1.491 . S
C1132 C1133 1.392 . S
C1132 C1137 1.356 . S
C1133 C1132 1.392 . S
C1133 C1134 1.368 . S
C1133 H1156 0.929 . S
C1134 C1133 1.368 . S
C1134 C1135 1.386 . S
C1134 H1157 0.929 . S
C1135 C1134 1.386 . S
C1135 C1136 1.373 . S
C1136 C1135 1.373 . S
C1136 C1137 1.409 . S
C1136 H1158 0.931 . S
C1137 C1132 1.356 . S
C1137 C1136 1.409 . S
C1137 H1159 0.930 . S
C1138 O1148 1.270 . S
C1138 O1149 1.248 . S
C1139 O1150 1.267 . S
C1139 O1151 1.278 . S
O1140 Pr1120 2.562 . S
O1140 C1122 1.254 . S
O1141 Pr1120 2.490 . S
O1141 C1122 1.225 . S
O1142 Pr1120 2.695 . S
O1142 Pr1121 2.436 . S
O1142 C1129 1.270 . S
O1143 Pr1120 2.512 . S
O1143 C1129 1.248 . S
O1144 Pr1121 2.438 . S
O1144 C1130 1.267 . S
O1145 Pr1120 2.437 . S
O1145 C1130 1.278 . S
O1146 Pr1121 2.562 . S
O1146 C1131 1.254 . S
O1147 Pr1121 2.490 . S
O1147 C1131 1.225 . S
O1148 Pr1120 2.436 . S
O1148 Pr1121 2.695 . S
O1148 C1138 1.270 . S
O1149 Pr1121 2.512 . S
O1149 C1138 1.248 . S
O1150 Pr1120 2.438 . S
O1150 C1139 1.267 . S
O1151 Pr1121 2.437 . S
O1151 C1139 1.278 . S
H1152 C1124 0.929 . S
H1153 C1125 0.929 . S
H1154 C1127 0.931 . S
H1155 C1128 0.930 . S
H1156 C1133 0.929 . S
H1157 C1134 0.929 . S
H1158 C1136 0.931 . S
H1159 C1137 0.930 . S
Pr1160 C1162 2.880 . S
Pr1160 O1180 2.562 . S
Pr1160 O1181 2.490 . S
Pr1160 O1182 2.695 . S
Pr1160 O1183 2.512 . S
Pr1160 O1185 2.437 . S
Pr1160 O1188 2.436 . S
Pr1160 O1190 2.482 . S
Pr1161 C1171 2.851 1_554 S
Pr1161 O1182 2.436 . S
Pr1161 O1184 2.438 . S
Pr1161 O1186 2.562 1_554 S
Pr1161 O1187 2.490 . S
Pr1161 O1188 2.695 . S
Pr1161 O1189 2.512 . S
Pr1161 O1191 2.437 . S
C1162 Pr1160 2.880 . S
C1162 C1163 1.491 . S
C1162 O1180 1.254 . S
C1162 O1181 1.225 . S
C1163 C1162 1.491 . S
C1163 C1164 1.392 . S
C1163 C1168 1.356 . S
C1164 C1163 1.392 . S
C1164 C1165 1.368 . S
C1164 H1192 0.929 . S
C1165 C1164 1.368 . S
C1165 C1166 1.386 . S
C1165 H1193 0.929 . S
C1166 C1165 1.386 . S
C1166 C1167 1.373 . S
C1167 C1166 1.373 . S
C1167 C1168 1.409 . S
C1167 H1194 0.931 . S
C1168 C1163 1.356 . S
C1168 C1167 1.409 . S
C1168 H1195 0.930 . S
C1169 O1182 1.270 . S
C1169 O1183 1.248 . S
C1170 O1184 1.267 . S
C1170 O1185 1.278 . S
C1171 Pr1161 2.851 1_556 S
C1171 C1172 1.520 . S
C1171 O1186 1.258 . S
C1171 O1187 1.193 1_556 S
C1172 C1171 1.520 . S
C1172 C1173 1.392 . S
C1172 C1177 1.356 . S
C1173 C1172 1.392 . S
C1173 C1174 1.368 . S
C1173 H1196 0.929 . S
C1174 C1173 1.368 . S
C1174 C1175 1.386 . S
C1174 H1197 0.929 . S
C1175 C1174 1.386 . S
C1175 C1176 1.373 . S
C1176 C1175 1.373 . S
C1176 C1177 1.409 . S
C1176 H1198 0.931 . S
C1177 C1172 1.356 . S
C1177 C1176 1.409 . S
C1177 H1199 0.930 . S
C1178 O1188 1.270 . S
C1178 O1189 1.248 . S
C1179 O1190 1.248 1_556 S
C1179 O1191 1.278 1_556 S
O1180 Pr1160 2.562 . S
O1180 C1162 1.254 . S
O1181 Pr1160 2.490 . S
O1181 C1162 1.225 . S
O1182 Pr1160 2.695 . S
O1182 Pr1161 2.436 . S
O1182 C1169 1.270 . S
O1183 Pr1160 2.512 . S
O1183 C1169 1.248 . S
O1184 Pr1161 2.438 . S
O1184 C1170 1.267 . S
O1185 Pr1160 2.437 . S
O1185 C1170 1.278 . S
O1186 Pr1161 2.562 1_556 S
O1186 C1171 1.258 . S
O1187 Pr1161 2.490 . S
O1187 C1171 1.193 1_554 S
O1188 Pr1160 2.436 . S
O1188 Pr1161 2.695 . S
O1188 C1178 1.270 . S
O1189 Pr1161 2.512 . S
O1189 C1178 1.248 . S
O1190 Pr1160 2.482 . S
O1190 C1179 1.248 1_554 S
O1191 Pr1161 2.437 . S
O1191 C1179 1.278 1_554 S
H1192 C1164 0.929 . S
H1193 C1165 0.929 . S
H1194 C1167 0.931 . S
H1195 C1168 0.930 . S
H1196 C1173 0.929 . S
H1197 C1174 0.929 . S
H1198 C1176 0.931 . S
H1199 C1177 0.930 . S
Pr1200 C1202 2.880 . S
Pr1200 O1220 2.562 . S
Pr1200 O1221 2.490 . S
Pr1200 O1222 2.695 . S
Pr1200 O1223 2.512 . S
Pr1200 O1225 2.437 . S
Pr1200 O1228 2.436 . S
Pr1200 O1230 2.438 . S
Pr1201 C1211 2.880 . S
Pr1201 O1222 2.436 . S
Pr1201 O1224 2.438 . S
Pr1201 O1226 2.562 . S
Pr1201 O1227 2.490 . S
Pr1201 O1228 2.695 . S
Pr1201 O1229 2.512 . S
Pr1201 O1231 2.437 . S
C1202 Pr1200 2.880 . S
C1202 C1203 1.491 . S
C1202 O1220 1.254 . S
C1202 O1221 1.225 . S
C1203 C1202 1.491 . S
C1203 C1204 1.392 . S
C1203 C1208 1.356 . S
C1204 C1203 1.392 . S
C1204 C1205 1.368 . S
C1204 H1232 0.929 . S
C1205 C1204 1.368 . S
C1205 C1206 1.386 . S
C1205 H1233 0.929 . S
C1206 C1205 1.386 . S
C1206 C1207 1.373 . S
C1207 C1206 1.373 . S
C1207 C1208 1.409 . S
C1207 H1234 0.931 . S
C1208 C1203 1.356 . S
C1208 C1207 1.409 . S
C1208 H1235 0.930 . S
C1209 O1222 1.270 . S
C1209 O1223 1.248 . S
C1210 O1224 1.267 . S
C1210 O1225 1.278 . S
C1211 Pr1201 2.880 . S
C1211 C1212 1.491 . S
C1211 O1226 1.254 . S
C1211 O1227 1.225 . S
C1212 C1211 1.491 . S
C1212 C1213 1.392 . S
C1212 C1217 1.356 . S
C1213 C1212 1.392 . S
C1213 C1214 1.368 . S
C1213 H1236 0.929 . S
C1214 C1213 1.368 . S
C1214 C1215 1.386 . S
C1214 H1237 0.929 . S
C1215 C1214 1.386 . S
C1215 C1216 1.373 . S
C1216 C1215 1.373 . S
C1216 C1217 1.409 . S
C1216 H1238 0.931 . S
C1217 C1212 1.356 . S
C1217 C1216 1.409 . S
C1217 H1239 0.930 . S
C1218 O1228 1.270 . S
C1218 O1229 1.248 . S
C1219 O1230 1.267 . S
C1219 O1231 1.278 . S
O1220 Pr1200 2.562 . S
O1220 C1202 1.254 . S
O1221 Pr1200 2.490 . S
O1221 C1202 1.225 . S
O1222 Pr1200 2.695 . S
O1222 Pr1201 2.436 . S
O1222 C1209 1.270 . S
O1223 Pr1200 2.512 . S
O1223 C1209 1.248 . S
O1224 Pr1201 2.438 . S
O1224 C1210 1.267 . S
O1225 Pr1200 2.437 . S
O1225 C1210 1.278 . S
O1226 Pr1201 2.562 . S
O1226 C1211 1.254 . S
O1227 Pr1201 2.490 . S
O1227 C1211 1.225 . S
O1228 Pr1200 2.436 . S
O1228 Pr1201 2.695 . S
O1228 C1218 1.270 . S
O1229 Pr1201 2.512 . S
O1229 C1218 1.248 . S
O1230 Pr1200 2.438 . S
O1230 C1219 1.267 . S
O1231 Pr1201 2.437 . S
O1231 C1219 1.278 . S
H1232 C1204 0.929 . S
H1233 C1205 0.929 . S
H1234 C1207 0.931 . S
H1235 C1208 0.930 . S
H1236 C1213 0.929 . S
H1237 C1214 0.929 . S
H1238 C1216 0.931 . S
H1239 C1217 0.930 . S
Pr1240 C1242 2.880 . S
Pr1240 O1260 2.562 . S
Pr1240 O1261 2.490 . S
Pr1240 O1262 2.695 . S
Pr1240 O1263 2.512 . S
Pr1240 O1265 2.437 . S
Pr1240 O1268 2.436 . S
Pr1240 O1270 2.438 . S
Pr1241 C1251 2.880 . S
Pr1241 O1262 2.436 . S
Pr1241 O1264 2.438 . S
Pr1241 O1266 2.562 . S
Pr1241 O1267 2.490 . S
Pr1241 O1268 2.695 . S
Pr1241 O1269 2.512 . S
Pr1241 O1271 2.437 . S
C1242 Pr1240 2.880 . S
C1242 C1243 1.491 . S
C1242 O1260 1.254 . S
C1242 O1261 1.225 . S
C1243 C1242 1.491 . S
C1243 C1244 1.392 . S
C1243 C1248 1.356 . S
C1244 C1243 1.392 . S
C1244 C1245 1.368 . S
C1244 H1272 0.929 . S
C1245 C1244 1.368 . S
C1245 C1246 1.386 . S
C1245 H1273 0.929 . S
C1246 C1245 1.386 . S
C1246 C1247 1.373 . S
C1247 C1246 1.373 . S
C1247 C1248 1.409 . S
C1247 H1274 0.931 . S
C1248 C1243 1.356 . S
C1248 C1247 1.409 . S
C1248 H1275 0.930 . S
C1249 O1262 1.270 . S
C1249 O1263 1.248 . S
C1250 O1264 1.267 . S
C1250 O1265 1.278 . S
C1251 Pr1241 2.880 . S
C1251 C1252 1.491 . S
C1251 O1266 1.254 . S
C1251 O1267 1.225 . S
C1252 C1251 1.491 . S
C1252 C1253 1.392 . S
C1252 C1257 1.356 . S
C1253 C1252 1.392 . S
C1253 C1254 1.368 . S
C1253 H1276 0.929 . S
C1254 C1253 1.368 . S
C1254 C1255 1.386 . S
C1254 H1277 0.929 . S
C1255 C1254 1.386 . S
C1255 C1256 1.373 . S
C1256 C1255 1.373 . S
C1256 C1257 1.409 . S
C1256 H1278 0.931 . S
C1257 C1252 1.356 . S
C1257 C1256 1.409 . S
C1257 H1279 0.930 . S
C1258 O1268 1.270 . S
C1258 O1269 1.248 . S
C1259 O1270 1.267 . S
C1259 O1271 1.278 . S
O1260 Pr1240 2.562 . S
O1260 C1242 1.254 . S
O1261 Pr1240 2.490 . S
O1261 C1242 1.225 . S
O1262 Pr1240 2.695 . S
O1262 Pr1241 2.436 . S
O1262 C1249 1.270 . S
O1263 Pr1240 2.512 . S
O1263 C1249 1.248 . S
O1264 Pr1241 2.438 . S
O1264 C1250 1.267 . S
O1265 Pr1240 2.437 . S
O1265 C1250 1.278 . S
O1266 Pr1241 2.562 . S
O1266 C1251 1.254 . S
O1267 Pr1241 2.490 . S
O1267 C1251 1.225 . S
O1268 Pr1240 2.436 . S
O1268 Pr1241 2.695 . S
O1268 C1258 1.270 . S
O1269 Pr1241 2.512 . S
O1269 C1258 1.248 . S
O1270 Pr1240 2.438 . S
O1270 C1259 1.267 . S
O1271 Pr1241 2.437 . S
O1271 C1259 1.278 . S
H1272 C1244 0.929 . S
H1273 C1245 0.929 . S
H1274 C1247 0.931 . S
H1275 C1248 0.930 . S
H1276 C1253 0.929 . S
H1277 C1254 0.929 . S
H1278 C1256 0.931 . S
H1279 C1257 0.930 . S
H1280 C1288 0.929 . S
H1281 C1290 0.930 . S
H1282 C1292 0.930 . S
H1283 C1295 0.929 . S
H1284 C1298 0.930 . S
H1285 C1300 0.960 . S
H1286 C1300 0.960 . S
H1287 C1300 0.960 . S
C1288 H1280 0.929 . S
C1288 C1289 1.377 . S
C1288 C1290 1.384 . S
C1289 C1288 1.377 . S
C1289 C1295 1.390 . S
C1290 H1281 0.930 . S
C1290 C1288 1.384 . S
C1290 C1291 1.372 . S
C1291 C1290 1.372 . S
C1291 C1292 1.400 . S
C1291 C1296 1.490 . S
C1292 H1282 0.930 . S
C1292 C1291 1.400 . S
C1292 C1295 1.386 . S
H1293 C1309 0.930 . S
H1294 C1310 0.931 . S
C1295 H1283 0.929 . S
C1295 C1289 1.390 . S
C1295 C1292 1.386 . S
C1296 C1291 1.490 . S
C1296 C1298 1.395 . S
C1296 C1299 1.403 . S
H1297 C1303 0.930 . S
C1298 H1284 0.930 . S
C1298 C1296 1.395 . S
C1298 C1301 1.403 . S
C1299 C1296 1.403 . S
C1299 C1300 1.524 . S
C1299 C1303 1.400 . S
C1300 H1285 0.960 . S
C1300 H1286 0.960 . S
C1300 H1287 0.960 . S
C1300 C1299 1.524 . S
C1301 C1298 1.403 . S
C1301 C1302 1.392 . S
C1301 C1305 1.495 . S
C1302 C1301 1.392 . S
C1302 C1303 1.385 . S
C1302 C1304 1.478 . S
C1303 H1297 0.930 . S
C1303 C1299 1.400 . S
C1303 C1302 1.385 . S
C1304 C1302 1.478 . S
C1304 C1306 1.381 . S
C1304 C1310 1.383 . S
C1305 C1301 1.495 . S
C1305 H1311 0.959 . S
C1305 H1312 0.961 . S
C1305 H1313 0.960 . S
C1306 C1304 1.381 . S
C1306 C1307 1.394 . S
C1306 H1314 0.930 . S
C1307 C1306 1.394 . S
C1307 C1308 1.383 . S
C1307 H1315 0.929 . S
C1308 C1307 1.383 . S
C1308 C1309 1.377 . S
C1309 H1293 0.930 . S
C1309 C1308 1.377 . S
C1309 C1310 1.379 . S
C1310 H1294 0.931 . S
C1310 C1304 1.383 . S
C1310 C1309 1.379 . S
H1311 C1305 0.959 . S
H1312 C1305 0.961 . S
H1313 C1305 0.960 . S
H1314 C1306 0.930 . S
H1315 C1307 0.929 . S
H1316 C1324 0.929 . S
H1317 C1326 0.930 . S
H1318 C1328 0.930 . S
H1319 C1331 0.929 . S
H1320 C1334 0.930 . S
H1321 C1336 0.960 . S
H1322 C1336 0.960 . S
H1323 C1336 0.960 . S
C1324 H1316 0.929 . S
C1324 C1325 1.377 . S
C1324 C1326 1.384 . S
C1325 C1324 1.377 . S
C1325 C1331 1.390 . S
C1326 H1317 0.930 . S
C1326 C1324 1.384 . S
C1326 C1327 1.372 . S
C1327 C1326 1.372 . S
C1327 C1328 1.400 . S
C1327 C1332 1.490 . S
C1328 H1318 0.930 . S
C1328 C1327 1.400 . S
C1328 C1331 1.386 . S
H1329 C1345 0.930 . S
H1330 C1346 0.920 1_545 S
C1331 H1319 0.929 . S
C1331 C1325 1.390 . S
C1331 C1328 1.386 . S
C1332 C1327 1.490 . S
C1332 C1334 1.395 . S
C1332 C1335 1.403 . S
H1333 C1339 0.930 . S
C1334 H1320 0.930 . S
C1334 C1332 1.395 . S
C1334 C1337 1.403 . S
C1335 C1332 1.403 . S
C1335 C1336 1.524 . S
C1335 C1339 1.400 . S
C1336 H1321 0.960 . S
C1336 H1322 0.960 . S
C1336 H1323 0.960 . S
C1336 C1335 1.524 . S
C1337 C1334 1.403 . S
C1337 C1338 1.392 . S
C1337 C1341 1.495 1_545 S
C1338 C1337 1.392 . S
C1338 C1339 1.385 . S
C1338 C1340 1.478 . S
C1339 H1333 0.930 . S
C1339 C1335 1.400 . S
C1339 C1338 1.385 . S
C1340 C1338 1.478 . S
C1340 C1342 1.381 1_545 S
C1340 C1346 1.377 1_545 S
C1341 C1337 1.495 1_565 S
C1341 H1347 0.959 . S
C1341 H1348 0.961 . S
C1341 H1349 0.960 . S
C1342 C1340 1.381 1_565 S
C1342 C1343 1.394 . S
C1342 H1350 0.930 . S
C1343 C1342 1.394 . S
C1343 C1344 1.383 . S
C1343 H1351 0.929 . S
C1344 C1343 1.383 . S
C1344 C1345 1.377 . S
C1345 H1329 0.930 . S
C1345 C1344 1.377 . S
C1345 C1346 1.396 . S
C1346 H1330 0.920 1_565 S
C1346 C1340 1.377 1_565 S
C1346 C1345 1.396 . S
H1347 C1341 0.959 . S
H1348 C1341 0.961 . S
H1349 C1341 0.960 . S
H1350 C1342 0.930 . S
H1351 C1343 0.929 . S
H1352 C1360 0.929 . S
H1353 C1362 0.930 . S
H1354 C1364 0.930 . S
H1355 C1367 0.929 . S
H1356 C1370 0.930 . S
H1357 C1372 0.960 . S
H1358 C1372 0.960 . S
H1359 C1372 0.960 . S
C1360 H1352 0.929 . S
C1360 C1361 1.377 . S
C1360 C1362 1.384 . S
C1361 C1360 1.377 . S
C1361 C1367 1.390 . S
C1362 H1353 0.930 . S
C1362 C1360 1.384 . S
C1362 C1363 1.372 . S
C1363 C1362 1.372 . S
C1363 C1364 1.400 . S
C1363 C1368 1.490 . S
C1364 H1354 0.930 . S
C1364 C1363 1.400 . S
C1364 C1367 1.386 . S
H1365 C1381 0.930 . S
H1366 C1382 0.931 . S
C1367 H1355 0.929 . S
C1367 C1361 1.390 . S
C1367 C1364 1.386 . S
C1368 C1363 1.490 . S
C1368 C1370 1.395 . S
C1368 C1371 1.403 . S
H1369 C1375 0.930 . S
C1370 H1356 0.930 . S
C1370 C1368 1.395 . S
C1370 C1373 1.403 . S
C1371 C1368 1.403 . S
C1371 C1372 1.524 . S
C1371 C1375 1.400 . S
C1372 H1357 0.960 . S
C1372 H1358 0.960 . S
C1372 H1359 0.960 . S
C1372 C1371 1.524 . S
C1373 C1370 1.403 . S
C1373 C1374 1.392 . S
C1373 C1377 1.495 . S
C1374 C1373 1.392 . S
C1374 C1375 1.385 . S
C1374 C1376 1.478 . S
C1375 H1369 0.930 . S
C1375 C1371 1.400 . S
C1375 C1374 1.385 . S
C1376 C1374 1.478 . S
C1376 C1378 1.381 . S
C1376 C1382 1.383 . S
C1377 C1373 1.495 . S
C1377 H1383 0.959 . S
C1377 H1384 0.961 . S
C1377 H1385 0.960 . S
C1378 C1376 1.381 . S
C1378 C1379 1.394 . S
C1378 H1386 0.930 . S
C1379 C1378 1.394 . S
C1379 C1380 1.383 . S
C1379 H1387 0.929 . S
C1380 C1379 1.383 . S
C1380 C1381 1.377 . S
C1381 H1365 0.930 . S
C1381 C1380 1.377 . S
C1381 C1382 1.379 . S
C1382 H1366 0.931 . S
C1382 C1376 1.383 . S
C1382 C1381 1.379 . S
H1383 C1377 0.959 . S
H1384 C1377 0.961 . S
H1385 C1377 0.960 . S
H1386 C1378 0.930 . S
H1387 C1379 0.929 . S
H1388 C1396 0.929 . S
H1389 C1398 0.930 . S
H1390 C1400 0.930 . S
H1391 C1403 0.929 . S
H1392 C1406 0.930 . S
H1393 C1408 0.960 . S
H1394 C1408 0.960 . S
H1395 C1408 0.960 . S
C1396 H1388 0.929 . S
C1396 C1397 1.377 . S
C1396 C1398 1.384 . S
C1397 C1396 1.377 . S
C1397 C1403 1.390 . S
C1398 H1389 0.930 . S
C1398 C1396 1.384 . S
C1398 C1399 1.372 . S
C1399 C1398 1.372 . S
C1399 C1400 1.400 . S
C1399 C1404 1.490 . S
C1400 H1390 0.930 . S
C1400 C1399 1.400 . S
C1400 C1403 1.386 . S
H1401 C1417 0.930 . S
H1402 C1418 0.931 . S
C1403 H1391 0.929 . S
C1403 C1397 1.390 . S
C1403 C1400 1.386 . S
C1404 C1399 1.490 . S
C1404 C1406 1.395 . S
C1404 C1407 1.403 . S
H1405 C1411 0.930 . S
C1406 H1392 0.930 . S
C1406 C1404 1.395 . S
C1406 C1409 1.403 . S
C1407 C1404 1.403 . S
C1407 C1408 1.524 . S
C1407 C1411 1.400 . S
C1408 H1393 0.960 . S
C1408 H1394 0.960 . S
C1408 H1395 0.960 . S
C1408 C1407 1.524 . S
C1409 C1406 1.403 . S
C1409 C1410 1.392 . S
C1409 C1413 1.495 1_565 S
C1410 C1409 1.392 . S
C1410 C1411 1.385 . S
C1410 C1412 1.478 . S
C1411 H1405 0.930 . S
C1411 C1407 1.400 . S
C1411 C1410 1.385 . S
C1412 C1410 1.478 . S
C1412 C1414 1.381 1_565 S
C1412 C1418 1.383 . S
C1413 C1409 1.495 1_545 S
C1413 H1419 0.959 . S
C1413 H1420 0.961 . S
C1413 H1421 0.960 . S
C1414 C1412 1.381 1_545 S
C1414 C1415 1.394 . S
C1414 H1422 0.930 . S
C1415 C1414 1.394 . S
C1415 C1416 1.383 . S
C1415 H1423 0.929 . S
C1416 C1415 1.383 . S
C1416 C1417 1.377 . S
C1417 H1401 0.930 . S
C1417 C1416 1.377 . S
C1417 C1418 1.379 1_545 S
C1418 H1402 0.931 . S
C1418 C1412 1.383 . S
C1418 C1417 1.379 1_565 S
H1419 C1413 0.959 . S
H1420 C1413 0.961 . S
H1421 C1413 0.960 . S
H1422 C1414 0.930 . S
H1423 C1415 0.929 . S
H1424 C1432 0.929 . S
H1425 C1434 0.930 . S
H1426 C1436 0.930 . S
H1427 C1439 0.929 . S
H1428 C1442 0.930 . S
H1429 C1444 0.960 . S
H1430 C1444 0.960 . S
H1431 C1444 0.960 . S
C1432 H1424 0.929 . S
C1432 C1433 1.377 . S
C1432 C1434 1.384 . S
C1433 C1432 1.377 . S
C1433 C1439 1.390 . S
C1434 H1425 0.930 . S
C1434 C1432 1.384 . S
C1434 C1435 1.372 . S
C1435 C1434 1.372 . S
C1435 C1436 1.400 . S
C1435 C1440 1.490 . S
C1436 H1426 0.930 . S
C1436 C1435 1.400 . S
C1436 C1439 1.386 . S
H1437 C1453 0.930 . S
H1438 C1454 0.931 . S
C1439 H1427 0.929 . S
C1439 C1433 1.390 . S
C1439 C1436 1.386 . S
C1440 C1435 1.490 . S
C1440 C1442 1.395 . S
C1440 C1443 1.403 . S
H1441 C1447 0.930 . S
C1442 H1428 0.930 . S
C1442 C1440 1.395 . S
C1442 C1445 1.403 . S
C1443 C1440 1.403 . S
C1443 C1444 1.524 . S
C1443 C1447 1.400 . S
C1444 H1429 0.960 . S
C1444 H1430 0.960 . S
C1444 H1431 0.960 . S
C1444 C1443 1.524 . S
C1445 C1442 1.403 . S
C1445 C1446 1.392 . S
C1445 C1449 1.495 . S
C1446 C1445 1.392 . S
C1446 C1447 1.385 . S
C1446 C1448 1.478 . S
C1447 H1441 0.930 . S
C1447 C1443 1.400 . S
C1447 C1446 1.385 . S
C1448 C1446 1.478 . S
C1448 C1450 1.381 . S
C1448 C1454 1.383 . S
C1449 C1445 1.495 . S
C1449 H1455 0.959 . S
C1449 H1456 0.961 . S
C1449 H1457 0.960 . S
C1450 C1448 1.381 . S
C1450 C1451 1.394 . S
C1450 H1458 0.930 . S
C1451 C1450 1.394 . S
C1451 C1452 1.383 . S
C1451 H1459 0.929 . S
C1452 C1451 1.383 . S
C1452 C1453 1.377 . S
C1453 H1437 0.930 . S
C1453 C1452 1.377 . S
C1453 C1454 1.379 . S
C1454 H1438 0.931 . S
C1454 C1448 1.383 . S
C1454 C1453 1.379 . S
H1455 C1449 0.959 . S
H1456 C1449 0.961 . S
H1457 C1449 0.960 . S
H1458 C1450 0.930 . S
H1459 C1451 0.929 . S
H1460 C1468 0.929 . S
H1461 C1470 0.930 . S
H1462 C1472 0.930 . S
H1463 C1475 0.927 1_545 S
H1464 C1478 0.930 . S
H1465 C1480 0.960 . S
H1466 C1480 0.960 . S
H1467 C1480 0.960 . S
C1468 H1460 0.929 . S
C1468 C1469 1.377 . S
C1468 C1470 1.384 . S
C1469 C1468 1.377 . S
C1469 C1475 1.390 . S
C1470 H1461 0.930 . S
C1470 C1468 1.384 . S
C1470 C1471 1.372 1_565 S
C1471 C1470 1.372 1_545 S
C1471 C1472 1.400 . S
C1471 C1476 1.490 . S
C1472 H1462 0.930 . S
C1472 C1471 1.400 . S
C1472 C1475 1.386 1_545 S
H1473 C1489 0.930 . S
H1474 C1490 0.931 . S
C1475 H1463 0.927 1_565 S
C1475 C1469 1.390 . S
C1475 C1472 1.386 1_565 S
C1476 C1471 1.490 . S
C1476 C1478 1.395 . S
C1476 C1479 1.403 . S
H1477 C1483 0.930 . S
C1478 H1464 0.930 . S
C1478 C1476 1.395 . S
C1478 C1481 1.403 . S
C1479 C1476 1.403 . S
C1479 C1480 1.524 . S
C1479 C1483 1.400 . S
C1480 H1465 0.960 . S
C1480 H1466 0.960 . S
C1480 H1467 0.960 . S
C1480 C1479 1.524 . S
C1481 C1478 1.403 . S
C1481 C1482 1.392 . S
C1481 C1485 1.495 . S
C1482 C1481 1.392 . S
C1482 C1483 1.385 . S
C1482 C1484 1.478 . S
C1483 H1477 0.930 . S
C1483 C1479 1.400 . S
C1483 C1482 1.385 . S
C1484 C1482 1.478 . S
C1484 C1486 1.381 . S
C1484 C1490 1.383 . S
C1485 C1481 1.495 . S
C1485 H1491 0.959 . S
C1485 H1492 0.961 . S
C1485 H1493 0.960 . S
C1486 C1484 1.381 . S
C1486 C1487 1.394 . S
C1486 H1494 0.930 . S
C1487 C1486 1.394 . S
C1487 C1488 1.383 . S
C1487 H1495 0.929 . S
C1488 C1487 1.383 . S
C1488 C1489 1.377 . S
C1489 H1473 0.930 . S
C1489 C1488 1.377 . S
C1489 C1490 1.379 . S
C1490 H1474 0.931 . S
C1490 C1484 1.383 . S
C1490 C1489 1.379 . S
H1491 C1485 0.959 . S
H1492 C1485 0.961 . S
H1493 C1485 0.960 . S
H1494 C1486 0.930 . S
H1495 C1487 0.929 . S
H1496 C1504 0.929 . S
H1497 C1506 0.930 . S
H1498 C1508 0.930 . S
H1499 C1511 0.929 . S
H1500 C1514 0.930 . S
H1501 C1516 0.960 . S
H1502 C1516 0.960 . S
H1503 C1516 0.960 . S
C1504 H1496 0.929 . S
C1504 C1505 1.377 . S
C1504 C1506 1.384 . S
C1505 C1504 1.377 . S
C1505 C1511 1.390 . S
C1506 H1497 0.930 . S
C1506 C1504 1.384 . S
C1506 C1507 1.372 . S
C1507 C1506 1.372 . S
C1507 C1508 1.400 . S
C1507 C1512 1.490 . S
C1508 H1498 0.930 . S
C1508 C1507 1.400 . S
C1508 C1511 1.386 . S
H1509 C1525 0.930 . S
H1510 C1526 0.931 . S
C1511 H1499 0.929 . S
C1511 C1505 1.390 . S
C1511 C1508 1.386 . S
C1512 C1507 1.490 . S
C1512 C1514 1.395 . S
C1512 C1515 1.403 . S
H1513 C1519 0.930 . S
C1514 H1500 0.930 . S
C1514 C1512 1.395 . S
C1514 C1517 1.403 . S
C1515 C1512 1.403 . S
C1515 C1516 1.524 . S
C1515 C1519 1.400 . S
C1516 H1501 0.960 . S
C1516 H1502 0.960 . S
C1516 H1503 0.960 . S
C1516 C1515 1.524 . S
C1517 C1514 1.403 . S
C1517 C1518 1.392 . S
C1517 C1521 1.495 . S
C1518 C1517 1.392 . S
C1518 C1519 1.385 . S
C1518 C1520 1.478 . S
C1519 H1513 0.930 . S
C1519 C1515 1.400 . S
C1519 C1518 1.385 . S
C1520 C1518 1.478 . S
C1520 C1522 1.381 . S
C1520 C1526 1.383 . S
C1521 C1517 1.495 . S
C1521 H1527 0.959 . S
C1521 H1528 0.961 . S
C1521 H1529 0.960 . S
C1522 C1520 1.381 . S
C1522 C1523 1.394 . S
C1522 H1530 0.930 . S
C1523 C1522 1.394 . S
C1523 C1524 1.383 . S
C1523 H1531 0.929 . S
C1524 C1523 1.383 . S
C1524 C1525 1.377 . S
C1525 H1509 0.930 . S
C1525 C1524 1.377 . S
C1525 C1526 1.379 . S
C1526 H1510 0.931 . S
C1526 C1520 1.383 . S
C1526 C1525 1.379 . S
H1527 C1521 0.959 . S
H1528 C1521 0.961 . S
H1529 C1521 0.960 . S
H1530 C1522 0.930 . S
H1531 C1523 0.929 . S
H1532 C1540 0.929 . S
H1533 C1542 0.930 . S
H1534 C1544 0.930 . S
H1535 C1547 0.929 . S
H1536 C1550 0.930 . S
H1537 C1552 0.960 . S
H1538 C1552 0.960 . S
H1539 C1552 0.960 . S
C1540 H1532 0.929 . S
C1540 C1541 1.377 . S
C1540 C1542 1.384 . S
C1541 C1540 1.377 . S
C1541 C1547 1.390 . S
C1542 H1533 0.930 . S
C1542 C1540 1.384 . S
C1542 C1543 1.372 . S
C1543 C1542 1.372 . S
C1543 C1544 1.400 . S
C1543 C1548 1.490 . S
C1544 H1534 0.930 . S
C1544 C1543 1.400 . S
C1544 C1547 1.386 . S
H1545 C1561 0.930 . S
H1546 C1562 0.931 . S
C1547 H1535 0.929 . S
C1547 C1541 1.390 . S
C1547 C1544 1.386 . S
C1548 C1543 1.490 . S
C1548 C1550 1.395 . S
C1548 C1551 1.403 . S
H1549 C1555 0.930 . S
C1550 H1536 0.930 . S
C1550 C1548 1.395 . S
C1550 C1553 1.403 . S
C1551 C1548 1.403 . S
C1551 C1552 1.524 . S
C1551 C1555 1.400 . S
C1552 H1537 0.960 . S
C1552 H1538 0.960 . S
C1552 H1539 0.960 . S
C1552 C1551 1.524 . S
C1553 C1550 1.403 . S
C1553 C1554 1.392 . S
C1553 C1557 1.495 . S
C1554 C1553 1.392 . S
C1554 C1555 1.385 . S
C1554 C1556 1.478 . S
C1555 H1549 0.930 . S
C1555 C1551 1.400 . S
C1555 C1554 1.385 . S
C1556 C1554 1.478 . S
C1556 C1558 1.381 . S
C1556 C1562 1.383 1_565 S
C1557 C1553 1.495 . S
C1557 H1563 0.959 . S
C1557 H1564 0.961 1_565 S
C1557 H1565 0.960 . S
C1558 C1556 1.381 . S
C1558 C1559 1.394 1_565 S
C1558 H1566 0.930 . S
C1559 C1558 1.394 1_545 S
C1559 C1560 1.383 . S
C1559 H1567 0.929 . S
C1560 C1559 1.383 . S
C1560 C1561 1.377 . S
C1561 H1545 0.930 . S
C1561 C1560 1.377 . S
C1561 C1562 1.379 . S
C1562 H1546 0.931 . S
C1562 C1556 1.383 1_545 S
C1562 C1561 1.379 . S
H1563 C1557 0.959 . S
H1564 C1557 0.961 1_545 S
H1565 C1557 0.960 . S
H1566 C1558 0.930 . S
H1567 C1559 0.929 . S
H1568 C1576 0.929 . S
H1569 C1578 0.930 . S
H1570 C1580 0.930 . S
H1571 C1583 0.929 . S
H1572 C1586 0.930 . S
H1573 C1588 0.960 . S
H1574 C1588 0.960 . S
H1575 C1588 0.960 . S
C1576 H1568 0.929 . S
C1576 C1577 1.377 . S
C1576 C1578 1.384 . S
C1577 C1576 1.377 . S
C1577 C1583 1.390 . S
C1578 H1569 0.930 . S
C1578 C1576 1.384 . S
C1578 C1579 1.372 . S
C1579 C1578 1.372 . S
C1579 C1580 1.400 . S
C1579 C1584 1.490 . S
C1580 H1570 0.930 . S
C1580 C1579 1.400 . S
C1580 C1583 1.386 . S
H1581 C1597 0.930 . S
H1582 C1598 0.931 . S
C1583 H1571 0.929 . S
C1583 C1577 1.390 . S
C1583 C1580 1.386 . S
C1584 C1579 1.490 . S
C1584 C1586 1.395 . S
C1584 C1587 1.403 . S
H1585 C1591 0.930 . S
C1586 H1572 0.930 . S
C1586 C1584 1.395 . S
C1586 C1589 1.403 . S
C1587 C1584 1.403 . S
C1587 C1588 1.524 . S
C1587 C1591 1.400 . S
C1588 H1573 0.960 . S
C1588 H1574 0.960 . S
C1588 H1575 0.960 . S
C1588 C1587 1.524 . S
C1589 C1586 1.403 . S
C1589 C1590 1.392 . S
C1589 C1593 1.495 . S
C1590 C1589 1.392 . S
C1590 C1591 1.385 . S
C1590 C1592 1.478 . S
C1591 H1585 0.930 . S
C1591 C1587 1.400 . S
C1591 C1590 1.385 . S
C1592 C1590 1.478 . S
C1592 C1594 1.381 . S
C1592 C1598 1.383 . S
C1593 C1589 1.495 . S
C1593 H1599 0.959 . S
C1593 H1600 0.961 . S
C1593 H1601 0.960 . S
C1594 C1592 1.381 . S
C1594 C1595 1.394 . S
C1594 H1602 0.930 . S
C1595 C1594 1.394 . S
C1595 C1596 1.383 . S
C1595 H1603 0.929 . S
C1596 C1595 1.383 . S
C1596 C1597 1.377 . S
C1597 H1581 0.930 . S
C1597 C1596 1.377 . S
C1597 C1598 1.379 . S
C1598 H1582 0.931 . S
C1598 C1592 1.383 . S
C1598 C1597 1.379 . S
H1599 C1593 0.959 . S
H1600 C1593 0.961 . S
H1601 C1593 0.960 . S
H1602 C1594 0.930 . S
H1603 C1595 0.929 . S
H1604 C1612 0.929 . S
H1605 C1614 0.930 . S
H1606 C1616 0.930 . S
H1607 C1619 0.929 1_565 S
H1608 C1622 0.930 . S
H1609 C1624 0.960 . S
H1610 C1624 0.960 . S
H1611 C1624 0.960 . S
C1612 H1604 0.929 . S
C1612 C1613 1.377 . S
C1612 C1614 1.384 . S
C1613 C1612 1.377 . S
C1613 C1619 1.390 . S
C1614 H1605 0.930 . S
C1614 C1612 1.384 . S
C1614 C1615 1.372 1_545 S
C1615 C1614 1.372 1_565 S
C1615 C1616 1.400 . S
C1615 C1620 1.490 . S
C1616 H1606 0.930 . S
C1616 C1615 1.400 . S
C1616 C1619 1.386 1_565 S
H1617 C1633 0.930 . S
H1618 C1634 0.931 . S
C1619 H1607 0.929 1_545 S
C1619 C1613 1.390 . S
C1619 C1616 1.386 1_545 S
C1620 C1615 1.490 . S
C1620 C1622 1.395 . S
C1620 C1623 1.403 . S
H1621 C1627 0.930 . S
C1622 H1608 0.930 . S
C1622 C1620 1.395 . S
C1622 C1625 1.403 . S
C1623 C1620 1.403 . S
C1623 C1624 1.524 . S
C1623 C1627 1.400 . S
C1624 H1609 0.960 . S
C1624 H1610 0.960 . S
C1624 H1611 0.960 . S
C1624 C1623 1.524 . S
C1625 C1622 1.403 . S
C1625 C1626 1.392 . S
C1625 C1629 1.495 . S
C1626 C1625 1.392 . S
C1626 C1627 1.385 . S
C1626 C1628 1.478 . S
C1627 H1621 0.930 . S
C1627 C1623 1.400 . S
C1627 C1626 1.385 . S
C1628 C1626 1.478 . S
C1628 C1630 1.381 . S
C1628 C1634 1.383 . S
C1629 C1625 1.495 . S
C1629 H1635 0.959 . S
C1629 H1636 0.961 . S
C1629 H1637 0.960 . S
C1630 C1628 1.381 . S
C1630 C1631 1.394 . S
C1630 H1638 0.930 . S
C1631 C1630 1.394 . S
C1631 C1632 1.383 . S
C1631 H1639 0.929 . S
C1632 C1631 1.383 . S
C1632 C1633 1.377 . S
C1633 H1617 0.930 . S
C1633 C1632 1.377 . S
C1633 C1634 1.379 . S
C1634 H1618 0.931 . S
C1634 C1628 1.383 . S
C1634 C1633 1.379 . S
H1635 C1629 0.959 . S
H1636 C1629 0.961 . S
H1637 C1629 0.960 . S
H1638 C1630 0.930 . S
H1639 C1631 0.929 . S
H1640 C1648 0.929 . S
H1641 C1650 0.930 . S
H1642 C1652 0.930 . S
H1643 C1655 0.929 . S
H1644 C1658 0.930 . S
H1645 C1660 0.960 . S
H1646 C1660 0.960 . S
H1647 C1660 0.960 . S
C1648 H1640 0.929 . S
C1648 C1649 1.377 . S
C1648 C1650 1.384 . S
C1649 C1648 1.377 . S
C1649 C1655 1.390 . S
C1650 H1641 0.930 . S
C1650 C1648 1.384 . S
C1650 C1651 1.372 . S
C1651 C1650 1.372 . S
C1651 C1652 1.400 . S
C1651 C1656 1.490 . S
C1652 H1642 0.930 . S
C1652 C1651 1.400 . S
C1652 C1655 1.386 . S
H1653 C1669 0.930 . S
H1654 C1670 0.931 . S
C1655 H1643 0.929 . S
C1655 C1649 1.390 . S
C1655 C1652 1.386 . S
C1656 C1651 1.490 . S
C1656 C1658 1.395 . S
C1656 C1659 1.403 . S
H1657 C1663 0.930 . S
C1658 H1644 0.930 . S
C1658 C1656 1.395 . S
C1658 C1661 1.403 . S
C1659 C1656 1.403 . S
C1659 C1660 1.524 . S
C1659 C1663 1.400 . S
C1660 H1645 0.960 . S
C1660 H1646 0.960 . S
C1660 H1647 0.960 . S
C1660 C1659 1.524 . S
C1661 C1658 1.403 . S
C1661 C1662 1.392 . S
C1661 C1665 1.495 . S
C1662 C1661 1.392 . S
C1662 C1663 1.385 . S
C1662 C1664 1.478 . S
C1663 H1657 0.930 . S
C1663 C1659 1.400 . S
C1663 C1662 1.385 . S
C1664 C1662 1.478 . S
C1664 C1666 1.381 . S
C1664 C1670 1.383 . S
C1665 C1661 1.495 . S
C1665 H1671 0.959 . S
C1665 H1672 0.961 . S
C1665 H1673 0.960 . S
C1666 C1664 1.381 . S
C1666 C1667 1.394 . S
C1666 H1674 0.930 . S
C1667 C1666 1.394 . S
C1667 C1668 1.383 . S
C1667 H1675 0.929 . S
C1668 C1667 1.383 . S
C1668 C1669 1.377 . S
C1669 H1653 0.930 . S
C1669 C1668 1.377 . S
C1669 C1670 1.379 . S
C1670 H1654 0.931 . S
C1670 C1664 1.383 . S
C1670 C1669 1.379 . S
H1671 C1665 0.959 . S
H1672 C1665 0.961 . S
H1673 C1665 0.960 . S
H1674 C1666 0.930 . S
H1675 C1667 0.929 . S
H1676 C1684 0.929 . S
H1677 C1686 0.940 . S
H1678 C1688 0.926 1_545 S
H1679 C1691 0.929 . S
H1680 C1694 0.930 . S
H1681 C1696 0.960 . S
H1682 C1696 0.960 . S
H1683 C1696 0.960 . S
C1684 H1676 0.929 . S
C1684 C1685 1.377 . S
C1684 C1686 1.365 1_565 S
C1685 C1684 1.377 . S
C1685 C1691 1.390 . S
C1686 H1677 0.940 . S
C1686 C1684 1.365 1_545 S
C1686 C1687 1.382 . S
C1687 C1686 1.382 . S
C1687 C1688 1.395 1_545 S
C1687 C1692 1.490 . S
C1688 H1678 0.926 1_565 S
C1688 C1687 1.395 1_565 S
C1688 C1691 1.395 . S
H1689 C1705 0.930 . S
H1690 C1706 0.931 . S
C1691 H1679 0.929 . S
C1691 C1685 1.390 . S
C1691 C1688 1.395 . S
C1692 C1687 1.490 . S
C1692 C1694 1.395 . S
C1692 C1695 1.403 . S
H1693 C1699 0.930 . S
C1694 H1680 0.930 . S
C1694 C1692 1.395 . S
C1694 C1697 1.403 . S
C1695 C1692 1.403 . S
C1695 C1696 1.524 . S
C1695 C1699 1.400 . S
C1696 H1681 0.960 . S
C1696 H1682 0.960 . S
C1696 H1683 0.960 . S
C1696 C1695 1.524 . S
C1697 C1694 1.403 . S
C1697 C1698 1.392 . S
C1697 C1701 1.495 . S
C1698 C1697 1.392 . S
C1698 C1699 1.385 . S
C1698 C1700 1.478 . S
C1699 H1693 0.930 . S
C1699 C1695 1.400 . S
C1699 C1698 1.385 . S
C1700 C1698 1.478 . S
C1700 C1702 1.381 . S
C1700 C1706 1.383 . S
C1701 C1697 1.495 . S
C1701 H1707 0.959 . S
C1701 H1708 0.961 . S
C1701 H1709 0.960 . S
C1702 C1700 1.381 . S
C1702 C1703 1.394 . S
C1702 H1710 0.930 . S
C1703 C1702 1.394 . S
C1703 C1704 1.383 . S
C1703 H1711 0.929 . S
C1704 C1703 1.383 . S
C1704 C1705 1.377 . S
C1705 H1689 0.930 . S
C1705 C1704 1.377 . S
C1705 C1706 1.379 . S
C1706 H1690 0.931 . S
C1706 C1700 1.383 . S
C1706 C1705 1.379 . S
H1707 C1701 0.959 . S
H1708 C1701 0.961 . S
H1709 C1701 0.960 . S
H1710 C1702 0.930 . S
H1711 C1703 0.929 . S
H1712 C1720 0.929 . S
H1713 C1722 0.930 . S
H1714 C1724 0.930 . S
H1715 C1727 0.929 . S
H1716 C1730 0.930 . S
H1717 C1732 0.960 . S
H1718 C1732 0.960 . S
H1719 C1732 0.960 . S
C1720 H1712 0.929 . S
C1720 C1721 1.377 . S
C1720 C1722 1.384 . S
C1721 C1720 1.377 . S
C1721 C1727 1.390 . S
C1722 H1713 0.930 . S
C1722 C1720 1.384 . S
C1722 C1723 1.372 . S
C1723 C1722 1.372 . S
C1723 C1724 1.400 . S
C1723 C1728 1.490 . S
C1724 H1714 0.930 . S
C1724 C1723 1.400 . S
C1724 C1727 1.386 . S
H1725 C1741 0.930 . S
H1726 C1742 0.931 . S
C1727 H1715 0.929 . S
C1727 C1721 1.390 . S
C1727 C1724 1.386 . S
C1728 C1723 1.490 . S
C1728 C1730 1.395 . S
C1728 C1731 1.403 . S
H1729 C1735 0.930 . S
C1730 H1716 0.930 . S
C1730 C1728 1.395 . S
C1730 C1733 1.403 . S
C1731 C1728 1.403 . S
C1731 C1732 1.524 . S
C1731 C1735 1.400 . S
C1732 H1717 0.960 . S
C1732 H1718 0.960 . S
C1732 H1719 0.960 . S
C1732 C1731 1.524 . S
C1733 C1730 1.403 . S
C1733 C1734 1.392 . S
C1733 C1737 1.495 . S
C1734 C1733 1.392 . S
C1734 C1735 1.385 . S
C1734 C1736 1.478 . S
C1735 H1729 0.930 . S
C1735 C1731 1.400 . S
C1735 C1734 1.385 . S
C1736 C1734 1.478 . S
C1736 C1738 1.381 . S
C1736 C1742 1.383 . S
C1737 C1733 1.495 . S
C1737 H1743 0.959 . S
C1737 H1744 0.961 . S
C1737 H1745 0.960 . S
C1738 C1736 1.381 . S
C1738 C1739 1.394 . S
C1738 H1746 0.930 . S
C1739 C1738 1.394 . S
C1739 C1740 1.383 . S
C1739 H1747 0.929 . S
C1740 C1739 1.383 . S
C1740 C1741 1.377 . S
C1741 H1725 0.930 . S
C1741 C1740 1.377 . S
C1741 C1742 1.379 . S
C1742 H1726 0.931 . S
C1742 C1736 1.383 . S
C1742 C1741 1.379 . S
H1743 C1737 0.959 . S
H1744 C1737 0.961 . S
H1745 C1737 0.960 . S
H1746 C1738 0.930 . S
H1747 C1739 0.929 . S
H1748 C1756 0.929 . S
H1749 C1758 0.930 . S
H1750 C1760 0.930 . S
H1751 C1763 0.929 . S
H1752 C1766 0.975 . S
H1753 C1768 0.960 . S
H1754 C1768 0.960 . S
H1755 C1768 0.960 . S
C1756 H1748 0.929 . S
C1756 C1757 1.377 . S
C1756 C1758 1.384 . S
C1757 C1756 1.377 . S
C1757 C1763 1.390 . S
C1758 H1749 0.930 . S
C1758 C1756 1.384 . S
C1758 C1759 1.372 1_545 S
C1759 C1758 1.372 1_565 S
C1759 C1760 1.400 . S
C1759 C1764 1.490 . S
C1760 H1750 0.930 . S
C1760 C1759 1.400 . S
C1760 C1763 1.386 1_565 S
H1761 C1777 0.930 . S
H1762 C1778 0.931 . S
C1763 H1751 0.929 . S
C1763 C1757 1.390 . S
C1763 C1760 1.386 1_545 S
C1764 C1759 1.490 . S
C1764 C1766 1.395 . S
C1764 C1767 1.403 . S
H1765 C1771 0.930 . S
C1766 H1752 0.975 . S
C1766 C1764 1.395 . S
C1766 C1769 1.403 . S
C1767 C1764 1.403 . S
C1767 C1768 1.524 . S
C1767 C1771 1.400 . S
C1768 H1753 0.960 . S
C1768 H1754 0.960 . S
C1768 H1755 0.960 . S
C1768 C1767 1.524 . S
C1769 C1766 1.403 . S
C1769 C1770 1.392 . S
C1769 C1773 1.495 . S
C1770 C1769 1.392 . S
C1770 C1771 1.385 . S
C1770 C1772 1.478 . S
C1771 H1765 0.930 . S
C1771 C1767 1.400 . S
C1771 C1770 1.385 . S
C1772 C1770 1.478 . S
C1772 C1774 1.381 . S
C1772 C1778 1.383 . S
C1773 C1769 1.495 . S
C1773 H1779 0.959 . S
C1773 H1780 0.961 . S
C1773 H1781 0.960 . S
C1774 C1772 1.381 . S
C1774 C1775 1.394 . S
C1774 H1782 0.930 . S
C1775 C1774 1.394 . S
C1775 C1776 1.383 . S
C1775 H1783 0.929 . S
C1776 C1775 1.383 . S
C1776 C1777 1.377 . S
C1777 H1761 0.930 . S
C1777 C1776 1.377 . S
C1777 C1778 1.379 . S
C1778 H1762 0.931 . S
C1778 C1772 1.383 . S
C1778 C1777 1.379 . S
H1779 C1773 0.959 . S
H1780 C1773 0.961 . S
H1781 C1773 0.960 . S
H1782 C1774 0.930 . S
H1783 C1775 0.929 . S
H1784 C1792 0.929 . S
H1785 C1794 0.930 . S
H1786 C1796 0.930 . S
H1787 C1799 0.929 . S
H1788 C1802 0.930 . S
H1789 C1804 0.960 . S
H1790 C1804 0.960 . S
H1791 C1804 0.960 . S
C1792 H1784 0.929 . S
C1792 C1793 1.377 . S
C1792 C1794 1.384 . S
C1793 C1792 1.377 . S
C1793 C1799 1.390 . S
C1794 H1785 0.930 . S
C1794 C1792 1.384 . S
C1794 C1795 1.372 . S
C1795 C1794 1.372 . S
C1795 C1796 1.400 . S
C1795 C1800 1.490 . S
C1796 H1786 0.930 . S
C1796 C1795 1.400 . S
C1796 C1799 1.386 . S
H1797 C1813 0.930 . S
H1798 C1814 0.931 . S
C1799 H1787 0.929 . S
C1799 C1793 1.390 . S
C1799 C1796 1.386 . S
C1800 C1795 1.490 . S
C1800 C1802 1.395 . S
C1800 C1803 1.403 . S
H1801 C1807 0.930 . S
C1802 H1788 0.930 . S
C1802 C1800 1.395 . S
C1802 C1805 1.403 . S
C1803 C1800 1.403 . S
C1803 C1804 1.524 . S
C1803 C1807 1.400 . S
C1804 H1789 0.960 . S
C1804 H1790 0.960 . S
C1804 H1791 0.960 . S
C1804 C1803 1.524 . S
C1805 C1802 1.403 . S
C1805 C1806 1.392 . S
C1805 C1809 1.495 . S
C1806 C1805 1.392 . S
C1806 C1807 1.385 . S
C1806 C1808 1.478 . S
C1807 H1801 0.930 . S
C1807 C1803 1.400 . S
C1807 C1806 1.385 . S
C1808 C1806 1.478 . S
C1808 C1810 1.381 . S
C1808 C1814 1.383 . S
C1809 C1805 1.495 . S
C1809 H1815 0.959 . S
C1809 H1816 0.961 . S
C1809 H1817 0.960 . S
C1810 C1808 1.381 . S
C1810 C1811 1.394 . S
C1810 H1818 0.930 . S
C1811 C1810 1.394 . S
C1811 C1812 1.383 . S
C1811 H1819 0.929 . S
C1812 C1811 1.383 . S
C1812 C1813 1.377 . S
C1813 H1797 0.930 . S
C1813 C1812 1.377 . S
C1813 C1814 1.379 . S
C1814 H1798 0.931 . S
C1814 C1808 1.383 . S
C1814 C1813 1.379 . S
H1815 C1809 0.959 . S
H1816 C1809 0.961 . S
H1817 C1809 0.960 . S
H1818 C1810 0.930 . S
H1819 C1811 0.929 . S
H1820 C1828 0.929 . S
H1821 C1830 0.930 . S
H1822 C1832 0.930 . S
H1823 C1835 0.929 . S
H1824 C1838 0.930 . S
H1825 C1840 0.960 . S
H1826 C1840 0.960 . S
H1827 C1840 0.960 . S
C1828 H1820 0.929 . S
C1828 C1829 1.377 . S
C1828 C1830 1.384 . S
C1829 C1828 1.377 . S
C1829 C1835 1.390 . S
C1830 H1821 0.930 . S
C1830 C1828 1.384 . S
C1830 C1831 1.372 . S
C1831 C1830 1.372 . S
C1831 C1832 1.400 . S
C1831 C1836 1.490 . S
C1832 H1822 0.930 . S
C1832 C1831 1.400 . S
C1832 C1835 1.386 . S
H1833 C1849 0.930 . S
H1834 C1850 0.924 1_545 S
C1835 H1823 0.929 . S
C1835 C1829 1.390 . S
C1835 C1832 1.386 . S
C1836 C1831 1.490 . S
C1836 C1838 1.395 . S
C1836 C1839 1.403 . S
H1837 C1843 0.930 . S
C1838 H1824 0.930 . S
C1838 C1836 1.395 . S
C1838 C1841 1.403 . S
C1839 C1836 1.403 . S
C1839 C1840 1.524 . S
C1839 C1843 1.400 . S
C1840 H1825 0.960 . S
C1840 H1826 0.960 . S
C1840 H1827 0.960 . S
C1840 C1839 1.524 . S
C1841 C1838 1.403 . S
C1841 C1842 1.392 . S
C1841 C1845 1.495 1_545 S
C1842 C1841 1.392 . S
C1842 C1843 1.385 . S
C1842 C1844 1.478 . S
C1843 H1837 0.930 . S
C1843 C1839 1.400 . S
C1843 C1842 1.385 . S
C1844 C1842 1.478 . S
C1844 C1846 1.381 1_545 S
C1844 C1850 1.383 1_545 S
C1845 C1841 1.495 1_565 S
C1845 H1851 0.959 . S
C1845 H1852 0.961 . S
C1845 H1853 0.960 . S
C1846 C1844 1.381 1_565 S
C1846 C1847 1.394 . S
C1846 H1854 0.930 1_565 S
C1847 C1846 1.394 . S
C1847 C1848 1.383 . S
C1847 H1855 0.929 . S
C1848 C1847 1.383 . S
C1848 C1849 1.377 . S
C1849 H1833 0.930 . S
C1849 C1848 1.377 . S
C1849 C1850 1.379 . S
C1850 H1834 0.924 1_565 S
C1850 C1844 1.383 1_565 S
C1850 C1849 1.379 . S
H1851 C1845 0.959 . S
H1852 C1845 0.961 . S
H1853 C1845 0.960 . S
H1854 C1846 0.930 1_545 S
H1855 C1847 0.929 . S
H1856 C1864 0.929 . S
H1857 C1866 0.930 . S
H1858 C1868 0.930 . S
H1859 C1871 0.929 . S
H1860 C1874 0.930 . S
H1861 C1876 0.960 . S
H1862 C1876 0.960 . S
H1863 C1876 0.960 . S
C1864 H1856 0.929 . S
C1864 C1865 1.377 . S
C1864 C1866 1.384 . S
C1865 C1864 1.377 . S
C1865 C1871 1.390 . S
C1866 H1857 0.930 . S
C1866 C1864 1.384 . S
C1866 C1867 1.372 . S
C1867 C1866 1.372 . S
C1867 C1868 1.400 . S
C1867 C1872 1.490 . S
C1868 H1858 0.930 . S
C1868 C1867 1.400 . S
C1868 C1871 1.386 . S
H1869 C1885 0.930 . S
H1870 C1886 0.931 . S
C1871 H1859 0.929 . S
C1871 C1865 1.390 . S
C1871 C1868 1.386 . S
C1872 C1867 1.490 . S
C1872 C1874 1.395 . S
C1872 C1875 1.403 . S
H1873 C1879 0.930 . S
C1874 H1860 0.930 . S
C1874 C1872 1.395 . S
C1874 C1877 1.403 . S
C1875 C1872 1.403 . S
C1875 C1876 1.524 . S
C1875 C1879 1.400 . S
C1876 H1861 0.960 . S
C1876 H1862 0.960 . S
C1876 H1863 0.960 . S
C1876 C1875 1.524 . S
C1877 C1874 1.403 . S
C1877 C1878 1.392 . S
C1877 C1881 1.495 . S
C1878 C1877 1.392 . S
C1878 C1879 1.385 . S
C1878 C1880 1.478 . S
C1879 H1873 0.930 . S
C1879 C1875 1.400 . S
C1879 C1878 1.385 . S
C1880 C1878 1.478 . S
C1880 C1882 1.381 . S
C1880 C1886 1.383 . S
C1881 C1877 1.495 . S
C1881 H1887 0.959 . S
C1881 H1888 0.961 . S
C1881 H1889 0.960 . S
C1882 C1880 1.381 . S
C1882 C1883 1.394 . S
C1882 H1890 0.930 . S
C1883 C1882 1.394 . S
C1883 C1884 1.383 . S
C1883 H1891 0.929 . S
C1884 C1883 1.383 . S
C1884 C1885 1.377 . S
C1885 H1869 0.930 . S
C1885 C1884 1.377 . S
C1885 C1886 1.379 . S
C1886 H1870 0.931 . S
C1886 C1880 1.383 . S
C1886 C1885 1.379 . S
H1887 C1881 0.959 . S
H1888 C1881 0.961 . S
H1889 C1881 0.960 . S
H1890 C1882 0.930 . S
H1891 C1883 0.929 . S
H1892 C1900 0.929 . S
H1893 C1902 0.930 . S
H1894 C1904 0.930 . S
H1895 C1907 0.929 . S
H1896 C1910 0.930 . S
H1897 C1912 0.960 . S
H1898 C1912 0.960 . S
H1899 C1912 0.960 . S
C1900 H1892 0.929 . S
C1900 C1901 1.377 . S
C1900 C1902 1.384 . S
C1901 C1900 1.377 . S
C1901 C1907 1.390 . S
C1902 H1893 0.930 . S
C1902 C1900 1.384 . S
C1902 C1903 1.372 . S
C1903 C1902 1.372 . S
C1903 C1904 1.400 . S
C1903 C1908 1.490 . S
C1904 H1894 0.930 . S
C1904 C1903 1.400 . S
C1904 C1907 1.386 . S
H1905 C1921 0.930 . S
H1906 C1922 0.931 . S
C1907 H1895 0.929 . S
C1907 C1901 1.390 . S
C1907 C1904 1.386 . S
C1908 C1903 1.490 . S
C1908 C1910 1.395 . S
C1908 C1911 1.403 . S
H1909 C1915 0.930 . S
C1910 H1896 0.930 . S
C1910 C1908 1.395 . S
C1910 C1913 1.403 . S
C1911 C1908 1.403 . S
C1911 C1912 1.524 . S
C1911 C1915 1.400 . S
C1912 H1897 0.960 . S
C1912 H1898 0.960 . S
C1912 H1899 0.960 . S
C1912 C1911 1.524 . S
C1913 C1910 1.403 . S
C1913 C1914 1.392 . S
C1913 C1917 1.495 . S
C1914 C1913 1.392 . S
C1914 C1915 1.385 . S
C1914 C1916 1.478 . S
C1915 H1909 0.930 . S
C1915 C1911 1.400 . S
C1915 C1914 1.385 . S
C1916 C1914 1.478 . S
C1916 C1918 1.381 . S
C1916 C1922 1.383 . S
C1917 C1913 1.495 . S
C1917 H1923 0.959 . S
C1917 H1924 0.961 . S
C1917 H1925 0.960 . S
C1918 C1916 1.381 . S
C1918 C1919 1.394 . S
C1918 H1926 0.930 . S
C1919 C1918 1.394 . S
C1919 C1920 1.383 . S
C1919 H1927 0.929 . S
C1920 C1919 1.383 . S
C1920 C1921 1.377 . S
C1921 H1905 0.930 . S
C1921 C1920 1.377 . S
C1921 C1922 1.379 . S
C1922 H1906 0.931 . S
C1922 C1916 1.383 . S
C1922 C1921 1.379 . S
H1923 C1917 0.959 . S
H1924 C1917 0.961 . S
H1925 C1917 0.960 . S
H1926 C1918 0.930 . S
H1927 C1919 0.929 . S
H1928 C1936 0.929 . S
H1929 C1938 0.930 . S
H1930 C1940 0.930 . S
H1931 C1943 0.929 . S
H1932 C1946 0.930 . S
H1933 C1948 0.960 . S
H1934 C1948 0.960 . S
H1935 C1948 0.960 . S
C1936 H1928 0.929 . S
C1936 C1937 1.377 . S
C1936 C1938 1.384 . S
C1937 C1936 1.377 . S
C1937 C1943 1.390 . S
C1938 H1929 0.930 . S
C1938 C1936 1.384 . S
C1938 C1939 1.372 . S
C1939 C1938 1.372 . S
C1939 C1940 1.400 . S
C1939 C1944 1.490 . S
C1940 H1930 0.930 . S
C1940 C1939 1.400 . S
C1940 C1943 1.386 . S
H1941 C1957 0.930 . S
H1942 C1958 0.931 . S
C1943 H1931 0.929 . S
C1943 C1937 1.390 . S
C1943 C1940 1.386 . S
C1944 C1939 1.490 . S
C1944 C1946 1.395 . S
C1944 C1947 1.403 . S
H1945 C1951 0.930 . S
C1946 H1932 0.930 . S
C1946 C1944 1.395 . S
C1946 C1949 1.403 . S
C1947 C1944 1.403 . S
C1947 C1948 1.524 . S
C1947 C1951 1.400 . S
C1948 H1933 0.960 . S
C1948 H1934 0.960 . S
C1948 H1935 0.960 . S
C1948 C1947 1.524 . S
C1949 C1946 1.403 . S
C1949 C1950 1.392 . S
C1949 C1953 1.495 . S
C1950 C1949 1.392 . S
C1950 C1951 1.385 . S
C1950 C1952 1.478 . S
C1951 H1945 0.930 . S
C1951 C1947 1.400 . S
C1951 C1950 1.385 . S
C1952 C1950 1.478 . S
C1952 C1954 1.381 . S
C1952 C1958 1.383 . S
C1953 C1949 1.495 . S
C1953 H1959 0.959 . S
C1953 H1960 0.961 . S
C1953 H1961 0.960 . S
C1954 C1952 1.381 . S
C1954 C1955 1.394 . S
C1954 H1962 0.930 . S
C1955 C1954 1.394 . S
C1955 C1956 1.383 . S
C1955 H1963 0.929 . S
C1956 C1955 1.383 . S
C1956 C1957 1.377 . S
C1957 H1941 0.930 . S
C1957 C1956 1.377 . S
C1957 C1958 1.379 . S
C1958 H1942 0.931 . S
C1958 C1952 1.383 . S
C1958 C1957 1.379 . S
H1959 C1953 0.959 . S
H1960 C1953 0.961 . S
H1961 C1953 0.960 . S
H1962 C1954 0.930 . S
H1963 C1955 0.929 . S
H1964 C1972 0.929 . S
H1965 C1974 0.930 . S
H1966 C1976 0.930 . S
H1967 C1979 0.929 . S
H1968 C1982 0.930 . S
H1969 C1984 0.960 . S
H1970 C1984 0.960 . S
H1971 C1984 0.960 . S
C1972 H1964 0.929 . S
C1972 C1973 1.377 . S
C1972 C1974 1.384 . S
C1973 C1972 1.377 . S
C1973 C1979 1.390 . S
C1974 H1965 0.930 . S
C1974 C1972 1.384 . S
C1974 C1975 1.372 . S
C1975 C1974 1.372 . S
C1975 C1976 1.400 . S
C1975 C1980 1.490 . S
C1976 H1966 0.930 . S
C1976 C1975 1.400 . S
C1976 C1979 1.386 . S
H1977 C1993 0.930 . S
H1978 C1994 0.931 . S
C1979 H1967 0.929 . S
C1979 C1973 1.390 . S
C1979 C1976 1.386 . S
C1980 C1975 1.490 . S
C1980 C1982 1.395 . S
C1980 C1983 1.403 . S
H1981 C1987 0.930 . S
C1982 H1968 0.930 . S
C1982 C1980 1.395 . S
C1982 C1985 1.403 . S
C1983 C1980 1.403 . S
C1983 C1984 1.524 . S
C1983 C1987 1.400 . S
C1984 H1969 0.960 . S
C1984 H1970 0.960 . S
C1984 H1971 0.960 . S
C1984 C1983 1.524 . S
C1985 C1982 1.403 . S
C1985 C1986 1.392 . S
C1985 C1989 1.495 . S
C1986 C1985 1.392 . S
C1986 C1987 1.385 . S
C1986 C1988 1.478 . S
C1987 H1981 0.930 . S
C1987 C1983 1.400 . S
C1987 C1986 1.385 . S
C1988 C1986 1.478 . S
C1988 C1990 1.381 . S
C1988 C1994 1.383 . S
C1989 C1985 1.495 . S
C1989 H1995 0.959 . S
C1989 H1996 0.961 . S
C1989 H1997 0.960 . S
C1990 C1988 1.381 . S
C1990 C1991 1.394 . S
C1990 H1998 0.930 . S
C1991 C1990 1.394 . S
C1991 C1992 1.383 . S
C1991 H1999 0.929 . S
C1992 C1991 1.383 . S
C1992 C1993 1.377 . S
C1993 H1977 0.930 . S
C1993 C1992 1.377 . S
C1993 C1994 1.379 . S
C1994 H1978 0.931 . S
C1994 C1988 1.383 . S
C1994 C1993 1.379 . S
H1995 C1989 0.959 . S
H1996 C1989 0.961 . S
H1997 C1989 0.960 . S
H1998 C1990 0.930 . S
H1999 C1991 0.929 . S
H2000 C2008 0.929 . S
H2001 C2010 0.930 . S
H2002 C2012 0.930 . S
H2003 C2015 0.929 . S
H2004 C2018 0.930 . S
H2005 C2020 0.960 . S
H2006 C2020 0.960 . S
H2007 C2020 0.960 . S
C2008 H2000 0.929 . S
C2008 C2009 1.377 . S
C2008 C2010 1.384 . S
C2009 C2008 1.377 . S
C2009 C2015 1.390 . S
C2010 H2001 0.930 . S
C2010 C2008 1.384 . S
C2010 C2011 1.372 . S
C2011 C2010 1.372 . S
C2011 C2012 1.400 . S
C2011 C2016 1.490 . S
C2012 H2002 0.930 . S
C2012 C2011 1.400 . S
C2012 C2015 1.386 . S
H2013 C2029 0.930 . S
H2014 C2030 0.931 . S
C2015 H2003 0.929 . S
C2015 C2009 1.390 . S
C2015 C2012 1.386 . S
C2016 C2011 1.490 . S
C2016 C2018 1.395 . S
C2016 C2019 1.403 . S
H2017 C2023 0.930 . S
C2018 H2004 0.930 . S
C2018 C2016 1.395 . S
C2018 C2021 1.403 . S
C2019 C2016 1.403 . S
C2019 C2020 1.524 . S
C2019 C2023 1.400 . S
C2020 H2005 0.960 . S
C2020 H2006 0.960 . S
C2020 H2007 0.960 . S
C2020 C2019 1.524 . S
C2021 C2018 1.403 . S
C2021 C2022 1.392 . S
C2021 C2025 1.495 . S
C2022 C2021 1.392 . S
C2022 C2023 1.385 . S
C2022 C2024 1.478 . S
C2023 H2017 0.930 . S
C2023 C2019 1.400 . S
C2023 C2022 1.385 . S
C2024 C2022 1.478 . S
C2024 C2026 1.381 . S
C2024 C2030 1.383 . S
C2025 C2021 1.495 . S
C2025 H2031 0.959 . S
C2025 H2032 0.961 . S
C2025 H2033 0.960 . S
C2026 C2024 1.381 . S
C2026 C2027 1.394 . S
C2026 H2034 0.930 . S
C2027 C2026 1.394 . S
C2027 C2028 1.383 . S
C2027 H2035 0.929 . S
C2028 C2027 1.383 . S
C2028 C2029 1.377 . S
C2029 H2013 0.930 . S
C2029 C2028 1.377 . S
C2029 C2030 1.379 . S
C2030 H2014 0.931 . S
C2030 C2024 1.383 . S
C2030 C2029 1.379 . S
H2031 C2025 0.959 . S
H2032 C2025 0.961 . S
H2033 C2025 0.960 . S
H2034 C2026 0.930 . S
H2035 C2027 0.929 . S
H2036 C2044 0.929 . S
H2037 C2046 0.930 . S
H2038 C2048 0.930 . S
H2039 C2051 0.929 . S
H2040 C2054 0.930 . S
H2041 C2056 0.960 . S
H2042 C2056 0.960 . S
H2043 C2056 0.960 . S
C2044 H2036 0.929 . S
C2044 C2045 1.377 . S
C2044 C2046 1.384 . S
C2045 C2044 1.377 . S
C2045 C2051 1.390 . S
C2046 H2037 0.930 . S
C2046 C2044 1.384 . S
C2046 C2047 1.372 . S
C2047 C2046 1.372 . S
C2047 C2048 1.400 . S
C2047 C2052 1.490 . S
C2048 H2038 0.930 . S
C2048 C2047 1.400 . S
C2048 C2051 1.386 . S
H2049 C2065 0.930 . S
H2050 C2066 0.931 . S
C2051 H2039 0.929 . S
C2051 C2045 1.390 . S
C2051 C2048 1.386 . S
C2052 C2047 1.490 . S
C2052 C2054 1.395 . S
C2052 C2055 1.403 . S
H2053 C2059 0.930 . S
C2054 H2040 0.930 . S
C2054 C2052 1.395 . S
C2054 C2057 1.403 . S
C2055 C2052 1.403 . S
C2055 C2056 1.524 . S
C2055 C2059 1.400 . S
C2056 H2041 0.960 . S
C2056 H2042 0.960 . S
C2056 H2043 0.960 . S
C2056 C2055 1.524 . S
C2057 C2054 1.403 . S
C2057 C2058 1.392 . S
C2057 C2061 1.495 . S
C2058 C2057 1.392 . S
C2058 C2059 1.385 . S
C2058 C2060 1.478 . S
C2059 H2053 0.930 . S
C2059 C2055 1.400 . S
C2059 C2058 1.385 . S
C2060 C2058 1.478 . S
C2060 C2062 1.381 . S
C2060 C2066 1.383 . S
C2061 C2057 1.495 . S
C2061 H2067 0.959 . S
C2061 H2068 0.961 . S
C2061 H2069 0.960 . S
C2062 C2060 1.381 . S
C2062 C2063 1.394 . S
C2062 H2070 0.930 . S
C2063 C2062 1.394 . S
C2063 C2064 1.383 . S
C2063 H2071 0.929 . S
C2064 C2063 1.383 . S
C2064 C2065 1.377 . S
C2065 H2049 0.930 . S
C2065 C2064 1.377 . S
C2065 C2066 1.379 . S
C2066 H2050 0.931 . S
C2066 C2060 1.383 . S
C2066 C2065 1.379 . S
H2067 C2061 0.959 . S
H2068 C2061 0.961 . S
H2069 C2061 0.960 . S
H2070 C2062 0.930 . S
H2071 C2063 0.929 . S
H2072 C2080 0.929 . S
H2073 C2082 0.930 . S
H2074 C2084 0.930 . S
H2075 C2087 0.929 . S
H2076 C2090 0.930 . S
H2077 C2092 0.960 . S
H2078 C2092 0.960 . S
H2079 C2092 0.960 . S
C2080 H2072 0.929 . S
C2080 C2081 1.377 . S
C2080 C2082 1.384 . S
C2081 C2080 1.377 . S
C2081 C2087 1.390 . S
C2082 H2073 0.930 . S
C2082 C2080 1.384 . S
C2082 C2083 1.372 . S
C2083 C2082 1.372 . S
C2083 C2084 1.400 . S
C2083 C2088 1.490 . S
C2084 H2074 0.930 . S
C2084 C2083 1.400 . S
C2084 C2087 1.386 . S
H2085 C2101 0.930 . S
H2086 C2102 0.931 . S
C2087 H2075 0.929 . S
C2087 C2081 1.390 . S
C2087 C2084 1.386 . S
C2088 C2083 1.490 . S
C2088 C2090 1.395 . S
C2088 C2091 1.403 . S
H2089 C2095 0.930 . S
C2090 H2076 0.930 . S
C2090 C2088 1.395 . S
C2090 C2093 1.403 . S
C2091 C2088 1.403 . S
C2091 C2092 1.524 . S
C2091 C2095 1.400 . S
C2092 H2077 0.960 . S
C2092 H2078 0.960 . S
C2092 H2079 0.960 . S
C2092 C2091 1.524 . S
C2093 C2090 1.403 . S
C2093 C2094 1.392 . S
C2093 C2097 1.495 . S
C2094 C2093 1.392 . S
C2094 C2095 1.385 . S
C2094 C2096 1.478 . S
C2095 H2089 0.930 . S
C2095 C2091 1.400 . S
C2095 C2094 1.385 . S
C2096 C2094 1.478 . S
C2096 C2098 1.381 . S
C2096 C2102 1.383 . S
C2097 C2093 1.495 . S
C2097 H2103 0.959 . S
C2097 H2104 0.961 . S
C2097 H2105 0.960 . S
C2098 C2096 1.381 . S
C2098 C2099 1.394 . S
C2098 H2106 0.930 . S
C2099 C2098 1.394 . S
C2099 C2100 1.383 . S
C2099 H2107 0.929 . S
C2100 C2099 1.383 . S
C2100 C2101 1.377 . S
C2101 H2085 0.930 . S
C2101 C2100 1.377 . S
C2101 C2102 1.379 . S
C2102 H2086 0.931 . S
C2102 C2096 1.383 . S
C2102 C2101 1.379 . S
H2103 C2097 0.959 . S
H2104 C2097 0.961 . S
H2105 C2097 0.960 . S
H2106 C2098 0.930 . S
H2107 C2099 0.929 . S
H2108 C2116 0.929 . S
H2109 C2118 0.930 . S
H2110 C2120 0.930 . S
H2111 C2123 0.929 . S
H2112 C2126 0.930 . S
H2113 C2128 0.960 . S
H2114 C2128 0.960 . S
H2115 C2128 0.960 . S
C2116 H2108 0.929 . S
C2116 C2117 1.377 . S
C2116 C2118 1.384 . S
C2117 C2116 1.377 . S
C2117 C2123 1.390 . S
C2118 H2109 0.930 . S
C2118 C2116 1.384 . S
C2118 C2119 1.372 . S
C2119 C2118 1.372 . S
C2119 C2120 1.400 . S
C2119 C2124 1.490 . S
C2120 H2110 0.930 . S
C2120 C2119 1.400 . S
C2120 C2123 1.386 . S
H2121 C2137 0.930 . S
H2122 C2138 0.931 . S
C2123 H2111 0.929 . S
C2123 C2117 1.390 . S
C2123 C2120 1.386 . S
C2124 C2119 1.490 . S
C2124 C2126 1.395 . S
C2124 C2127 1.403 . S
H2125 C2131 0.930 . S
C2126 H2112 0.930 . S
C2126 C2124 1.395 . S
C2126 C2129 1.403 . S
C2127 C2124 1.403 . S
C2127 C2128 1.524 . S
C2127 C2131 1.400 . S
C2128 H2113 0.960 . S
C2128 H2114 0.960 . S
C2128 H2115 0.960 . S
C2128 C2127 1.524 . S
C2129 C2126 1.403 . S
C2129 C2130 1.392 . S
C2129 C2133 1.495 . S
C2130 C2129 1.392 . S
C2130 C2131 1.385 . S
C2130 C2132 1.478 . S
C2131 H2125 0.930 . S
C2131 C2127 1.400 . S
C2131 C2130 1.385 . S
C2132 C2130 1.478 . S
C2132 C2134 1.381 . S
C2132 C2138 1.383 . S
C2133 C2129 1.495 . S
C2133 H2139 0.959 . S
C2133 H2140 0.961 . S
C2133 H2141 0.960 . S
C2134 C2132 1.381 . S
C2134 C2135 1.394 . S
C2134 H2142 0.930 . S
C2135 C2134 1.394 . S
C2135 C2136 1.383 . S
C2135 H2143 0.929 . S
C2136 C2135 1.383 . S
C2136 C2137 1.377 . S
C2137 H2121 0.930 . S
C2137 C2136 1.377 . S
C2137 C2138 1.379 . S
C2138 H2122 0.931 . S
C2138 C2132 1.383 . S
C2138 C2137 1.379 . S
H2139 C2133 0.959 . S
H2140 C2133 0.961 . S
H2141 C2133 0.960 . S
H2142 C2134 0.930 . S
H2143 C2135 0.929 . S
H2144 C2152 0.929 . S
H2145 C2154 0.930 . S
H2146 C2156 0.930 . S
H2147 C2159 0.929 . S
H2148 C2162 0.930 . S
H2149 C2164 0.960 . S
H2150 C2164 0.960 . S
H2151 C2164 0.960 . S
C2152 H2144 0.929 . S
C2152 C2153 1.377 . S
C2152 C2154 1.384 . S
C2153 C2152 1.377 . S
C2153 C2159 1.390 . S
C2154 H2145 0.930 . S
C2154 C2152 1.384 . S
C2154 C2155 1.372 . S
C2155 C2154 1.372 . S
C2155 C2156 1.400 . S
C2155 C2160 1.490 . S
C2156 H2146 0.930 . S
C2156 C2155 1.400 . S
C2156 C2159 1.386 . S
H2157 C2173 0.930 . S
H2158 C2174 0.931 . S
C2159 H2147 0.929 . S
C2159 C2153 1.390 . S
C2159 C2156 1.386 . S
C2160 C2155 1.490 . S
C2160 C2162 1.395 . S
C2160 C2163 1.403 . S
H2161 C2167 0.930 . S
C2162 H2148 0.930 . S
C2162 C2160 1.395 . S
C2162 C2165 1.403 . S
C2163 C2160 1.403 . S
C2163 C2164 1.524 . S
C2163 C2167 1.400 . S
C2164 H2149 0.960 . S
C2164 H2150 0.960 . S
C2164 H2151 0.960 . S
C2164 C2163 1.524 . S
C2165 C2162 1.403 . S
C2165 C2166 1.392 . S
C2165 C2169 1.495 . S
C2166 C2165 1.392 . S
C2166 C2167 1.385 . S
C2166 C2168 1.478 . S
C2167 H2161 0.930 . S
C2167 C2163 1.400 . S
C2167 C2166 1.385 . S
C2168 C2166 1.478 . S
C2168 C2170 1.381 . S
C2168 C2174 1.383 . S
C2169 C2165 1.495 . S
C2169 H2175 0.959 . S
C2169 H2176 0.961 . S
C2169 H2177 0.960 . S
C2170 C2168 1.381 . S
C2170 C2171 1.394 . S
C2170 H2178 0.930 . S
C2171 C2170 1.394 . S
C2171 C2172 1.383 . S
C2171 H2179 0.929 . S
C2172 C2171 1.383 . S
C2172 C2173 1.377 . S
C2173 H2157 0.930 . S
C2173 C2172 1.377 . S
C2173 C2174 1.379 . S
C2174 H2158 0.931 . S
C2174 C2168 1.383 . S
C2174 C2173 1.379 . S
H2175 C2169 0.959 . S
H2176 C2169 0.961 . S
H2177 C2169 0.960 . S
H2178 C2170 0.930 . S
H2179 C2171 0.929 . S
H2180 C2188 0.929 . S
H2181 C2190 0.930 . S
H2182 C2192 0.930 . S
H2183 C2195 0.929 . S
H2184 C2198 0.930 . S
H2185 C2200 0.960 . S
H2186 C2200 0.960 . S
H2187 C2200 0.960 . S
C2188 H2180 0.929 . S
C2188 C2189 1.377 . S
C2188 C2190 1.384 . S
C2189 C2188 1.377 . S
C2189 C2195 1.390 . S
C2190 H2181 0.930 . S
C2190 C2188 1.384 . S
C2190 C2191 1.372 . S
C2191 C2190 1.372 . S
C2191 C2192 1.400 . S
C2191 C2196 1.490 . S
C2192 H2182 0.930 . S
C2192 C2191 1.400 . S
C2192 C2195 1.386 . S
H2193 C2209 0.930 . S
H2194 C2210 0.931 . S
C2195 H2183 0.929 . S
C2195 C2189 1.390 . S
C2195 C2192 1.386 . S
C2196 C2191 1.490 . S
C2196 C2198 1.395 . S
C2196 C2199 1.403 . S
H2197 C2203 0.930 . S
C2198 H2184 0.930 . S
C2198 C2196 1.395 . S
C2198 C2201 1.403 . S
C2199 C2196 1.403 . S
C2199 C2200 1.524 . S
C2199 C2203 1.400 . S
C2200 H2185 0.960 . S
C2200 H2186 0.960 . S
C2200 H2187 0.960 . S
C2200 C2199 1.524 . S
C2201 C2198 1.403 . S
C2201 C2202 1.392 . S
C2201 C2205 1.495 . S
C2202 C2201 1.392 . S
C2202 C2203 1.385 . S
C2202 C2204 1.478 . S
C2203 H2197 0.930 . S
C2203 C2199 1.400 . S
C2203 C2202 1.385 . S
C2204 C2202 1.478 . S
C2204 C2206 1.381 . S
C2204 C2210 1.383 . S
C2205 C2201 1.495 . S
C2205 H2211 0.959 . S
C2205 H2212 0.961 . S
C2205 H2213 0.960 . S
C2206 C2204 1.381 . S
C2206 C2207 1.394 . S
C2206 H2214 0.930 . S
C2207 C2206 1.394 . S
C2207 C2208 1.383 . S
C2207 H2215 0.929 . S
C2208 C2207 1.383 . S
C2208 C2209 1.377 . S
C2209 H2193 0.930 . S
C2209 C2208 1.377 . S
C2209 C2210 1.379 . S
C2210 H2194 0.931 . S
C2210 C2204 1.383 . S
C2210 C2209 1.379 . S
H2211 C2205 0.959 . S
H2212 C2205 0.961 . S
H2213 C2205 0.960 . S
H2214 C2206 0.930 . S
H2215 C2207 0.929 . S
H2216 C2224 0.929 . S
H2217 C2226 0.930 . S
H2218 C2228 0.930 . S
H2219 C2231 0.929 . S
H2220 C2234 0.930 . S
H2221 C2236 0.960 . S
H2222 C2236 0.960 . S
H2223 C2236 0.960 . S
C2224 H2216 0.929 . S
C2224 C2225 1.377 . S
C2224 C2226 1.384 . S
C2225 C2224 1.377 . S
C2225 C2231 1.390 . S
C2226 H2217 0.930 . S
C2226 C2224 1.384 . S
C2226 C2227 1.372 . S
C2227 C2226 1.372 . S
C2227 C2228 1.400 . S
C2227 C2232 1.490 . S
C2228 H2218 0.930 . S
C2228 C2227 1.400 . S
C2228 C2231 1.386 . S
H2229 C2245 0.930 . S
H2230 C2246 0.931 . S
C2231 H2219 0.929 . S
C2231 C2225 1.390 . S
C2231 C2228 1.386 . S
C2232 C2227 1.490 . S
C2232 C2234 1.395 . S
C2232 C2235 1.403 . S
H2233 C2239 0.930 . S
C2234 H2220 0.930 . S
C2234 C2232 1.395 . S
C2234 C2237 1.403 . S
C2235 C2232 1.403 . S
C2235 C2236 1.524 . S
C2235 C2239 1.400 . S
C2236 H2221 0.960 . S
C2236 H2222 0.960 . S
C2236 H2223 0.960 . S
C2236 C2235 1.524 . S
C2237 C2234 1.403 . S
C2237 C2238 1.392 . S
C2237 C2241 1.495 . S
C2238 C2237 1.392 . S
C2238 C2239 1.385 . S
C2238 C2240 1.478 . S
C2239 H2233 0.930 . S
C2239 C2235 1.400 . S
C2239 C2238 1.385 . S
C2240 C2238 1.478 . S
C2240 C2242 1.381 . S
C2240 C2246 1.383 . S
C2241 C2237 1.495 . S
C2241 H2247 0.959 . S
C2241 H2248 0.961 . S
C2241 H2249 0.960 . S
C2242 C2240 1.381 . S
C2242 C2243 1.394 . S
C2242 H2250 0.930 . S
C2243 C2242 1.394 . S
C2243 C2244 1.383 . S
C2243 H2251 0.929 . S
C2244 C2243 1.383 . S
C2244 C2245 1.377 . S
C2245 H2229 0.930 . S
C2245 C2244 1.377 . S
C2245 C2246 1.379 . S
C2246 H2230 0.931 . S
C2246 C2240 1.383 . S
C2246 C2245 1.379 . S
H2247 C2241 0.959 . S
H2248 C2241 0.961 . S
H2249 C2241 0.960 . S
H2250 C2242 0.930 . S
H2251 C2243 0.929 . S
H2252 C2260 0.929 . S
H2253 C2262 0.930 . S
H2254 C2264 0.930 . S
H2255 C2267 0.929 . S
H2256 C2270 0.930 . S
H2257 C2272 0.960 . S
H2258 C2272 0.960 . S
H2259 C2272 0.960 . S
C2260 H2252 0.929 . S
C2260 C2261 1.377 . S
C2260 C2262 1.384 . S
C2261 C2260 1.377 . S
C2261 C2267 1.390 . S
C2262 H2253 0.930 . S
C2262 C2260 1.384 . S
C2262 C2263 1.372 . S
C2263 C2262 1.372 . S
C2263 C2264 1.400 . S
C2263 C2268 1.490 . S
C2264 H2254 0.930 . S
C2264 C2263 1.400 . S
C2264 C2267 1.386 . S
H2265 C2281 0.930 . S
H2266 C2282 0.931 . S
C2267 H2255 0.929 . S
C2267 C2261 1.390 . S
C2267 C2264 1.386 . S
C2268 C2263 1.490 . S
C2268 C2270 1.395 . S
C2268 C2271 1.403 . S
H2269 C2275 0.930 . S
C2270 H2256 0.930 . S
C2270 C2268 1.395 . S
C2270 C2273 1.403 . S
C2271 C2268 1.403 . S
C2271 C2272 1.524 . S
C2271 C2275 1.400 . S
C2272 H2257 0.960 . S
C2272 H2258 0.960 . S
C2272 H2259 0.960 . S
C2272 C2271 1.524 . S
C2273 C2270 1.403 . S
C2273 C2274 1.392 . S
C2273 C2277 1.495 . S
C2274 C2273 1.392 . S
C2274 C2275 1.385 . S
C2274 C2276 1.478 . S
C2275 H2269 0.930 . S
C2275 C2271 1.400 . S
C2275 C2274 1.385 . S
C2276 C2274 1.478 . S
C2276 C2278 1.381 . S
C2276 C2282 1.383 . S
C2277 C2273 1.495 . S
C2277 H2283 0.959 . S
C2277 H2284 0.961 . S
C2277 H2285 0.960 . S
C2278 C2276 1.381 . S
C2278 C2279 1.394 . S
C2278 H2286 0.930 . S
C2279 C2278 1.394 . S
C2279 C2280 1.383 . S
C2279 H2287 0.929 . S
C2280 C2279 1.383 . S
C2280 C2281 1.377 . S
C2281 H2265 0.930 . S
C2281 C2280 1.377 . S
C2281 C2282 1.379 . S
C2282 H2266 0.931 . S
C2282 C2276 1.383 . S
C2282 C2281 1.379 . S
H2283 C2277 0.959 . S
H2284 C2277 0.961 . S
H2285 C2277 0.960 . S
H2286 C2278 0.930 . S
H2287 C2279 0.929 . S
H2288 C2296 0.929 . S
H2289 C2298 0.930 . S
H2290 C2300 0.930 . S
H2291 C2303 0.929 . S
H2292 C2306 0.930 . S
H2293 C2308 0.960 . S
H2294 C2308 0.960 . S
H2295 C2308 0.960 . S
C2296 H2288 0.929 . S
C2296 C2297 1.377 . S
C2296 C2298 1.384 . S
C2297 C2296 1.377 . S
C2297 C2303 1.390 . S
C2298 H2289 0.930 . S
C2298 C2296 1.384 . S
C2298 C2299 1.372 . S
C2299 C2298 1.372 . S
C2299 C2300 1.400 . S
C2299 C2304 1.490 . S
C2300 H2290 0.930 . S
C2300 C2299 1.400 . S
C2300 C2303 1.386 . S
H2301 C2317 0.930 . S
H2302 C2318 0.931 . S
C2303 H2291 0.929 . S
C2303 C2297 1.390 . S
C2303 C2300 1.386 . S
C2304 C2299 1.490 . S
C2304 C2306 1.395 . S
C2304 C2307 1.403 . S
H2305 C2311 0.930 . S
C2306 H2292 0.930 . S
C2306 C2304 1.395 . S
C2306 C2309 1.403 . S
C2307 C2304 1.403 . S
C2307 C2308 1.524 . S
C2307 C2311 1.400 . S
C2308 H2293 0.960 . S
C2308 H2294 0.960 . S
C2308 H2295 0.960 . S
C2308 C2307 1.524 . S
C2309 C2306 1.403 . S
C2309 C2310 1.392 . S
C2309 C2313 1.495 . S
C2310 C2309 1.392 . S
C2310 C2311 1.385 . S
C2310 C2312 1.478 . S
C2311 H2305 0.930 . S
C2311 C2307 1.400 . S
C2311 C2310 1.385 . S
C2312 C2310 1.478 . S
C2312 C2314 1.381 . S
C2312 C2318 1.383 . S
C2313 C2309 1.495 . S
C2313 H2319 0.959 . S
C2313 H2320 0.961 . S
C2313 H2321 0.960 . S
C2314 C2312 1.381 . S
C2314 C2315 1.394 . S
C2314 H2322 0.930 . S
C2315 C2314 1.394 . S
C2315 C2316 1.383 . S
C2315 H2323 0.929 . S
C2316 C2315 1.383 . S
C2316 C2317 1.377 . S
C2317 H2301 0.930 . S
C2317 C2316 1.377 . S
C2317 C2318 1.379 . S
C2318 H2302 0.931 . S
C2318 C2312 1.383 . S
C2318 C2317 1.379 . S
H2319 C2313 0.959 . S
H2320 C2313 0.961 . S
H2321 C2313 0.960 . S
H2322 C2314 0.930 . S
H2323 C2315 0.929 . S
H2324 C2332 0.929 . S
H2325 C2334 0.930 . S
H2326 C2336 0.930 . S
H2327 C2339 0.929 . S
H2328 C2342 0.930 . S
H2329 C2344 0.960 . S
H2330 C2344 0.960 . S
H2331 C2344 0.960 . S
C2332 H2324 0.929 . S
C2332 C2333 1.377 . S
C2332 C2334 1.384 . S
C2333 C2332 1.377 . S
C2333 C2339 1.390 . S
C2334 H2325 0.930 . S
C2334 C2332 1.384 . S
C2334 C2335 1.372 . S
C2335 C2334 1.372 . S
C2335 C2336 1.400 . S
C2335 C2340 1.490 . S
C2336 H2326 0.930 . S
C2336 C2335 1.400 . S
C2336 C2339 1.386 . S
H2337 C2353 0.930 . S
H2338 C2354 0.931 . S
C2339 H2327 0.929 . S
C2339 C2333 1.390 . S
C2339 C2336 1.386 . S
C2340 C2335 1.490 . S
C2340 C2342 1.395 . S
C2340 C2343 1.403 . S
H2341 C2347 0.930 . S
C2342 H2328 0.930 . S
C2342 C2340 1.395 . S
C2342 C2345 1.403 . S
C2343 C2340 1.403 . S
C2343 C2344 1.524 . S
C2343 C2347 1.400 . S
C2344 H2329 0.960 . S
C2344 H2330 0.960 . S
C2344 H2331 0.960 . S
C2344 C2343 1.524 . S
C2345 C2342 1.403 . S
C2345 C2346 1.392 . S
C2345 C2349 1.495 . S
C2346 C2345 1.392 . S
C2346 C2347 1.385 . S
C2346 C2348 1.478 . S
C2347 H2341 0.930 . S
C2347 C2343 1.400 . S
C2347 C2346 1.385 . S
C2348 C2346 1.478 . S
C2348 C2350 1.381 . S
C2348 C2354 1.383 . S
C2349 C2345 1.495 . S
C2349 H2355 0.959 . S
C2349 H2356 0.961 . S
C2349 H2357 0.960 . S
C2350 C2348 1.381 . S
C2350 C2351 1.394 . S
C2350 H2358 0.930 . S
C2351 C2350 1.394 . S
C2351 C2352 1.383 . S
C2351 H2359 0.929 . S
C2352 C2351 1.383 . S
C2352 C2353 1.377 . S
C2353 H2337 0.930 . S
C2353 C2352 1.377 . S
C2353 C2354 1.379 . S
C2354 H2338 0.931 . S
C2354 C2348 1.383 . S
C2354 C2353 1.379 . S
H2355 C2349 0.959 . S
H2356 C2349 0.961 . S
H2357 C2349 0.960 . S
H2358 C2350 0.930 . S
H2359 C2351 0.929 . S
H2360 C2368 0.929 . S
H2361 C2370 0.930 . S
H2362 C2372 0.930 . S
H2363 C2375 0.929 . S
H2364 C2378 0.930 . S
H2365 C2380 0.960 . S
H2366 C2380 0.960 . S
H2367 C2380 0.960 . S
C2368 H2360 0.929 . S
C2368 C2369 1.377 . S
C2368 C2370 1.384 . S
C2369 C2368 1.377 . S
C2369 C2375 1.390 . S
C2370 H2361 0.930 . S
C2370 C2368 1.384 . S
C2370 C2371 1.372 . S
C2371 C2370 1.372 . S
C2371 C2372 1.400 . S
C2371 C2376 1.490 . S
C2372 H2362 0.930 . S
C2372 C2371 1.400 . S
C2372 C2375 1.386 . S
H2373 C2389 0.930 . S
H2374 C2390 0.931 . S
C2375 H2363 0.929 . S
C2375 C2369 1.390 . S
C2375 C2372 1.386 . S
C2376 C2371 1.490 . S
C2376 C2378 1.395 . S
C2376 C2379 1.403 . S
H2377 C2383 0.930 . S
C2378 H2364 0.930 . S
C2378 C2376 1.395 . S
C2378 C2381 1.403 . S
C2379 C2376 1.403 . S
C2379 C2380 1.524 . S
C2379 C2383 1.400 . S
C2380 H2365 0.960 . S
C2380 H2366 0.960 . S
C2380 H2367 0.960 . S
C2380 C2379 1.524 . S
C2381 C2378 1.403 . S
C2381 C2382 1.392 . S
C2381 C2385 1.495 . S
C2382 C2381 1.392 . S
C2382 C2383 1.385 . S
C2382 C2384 1.478 . S
C2383 H2377 0.930 . S
C2383 C2379 1.400 . S
C2383 C2382 1.385 . S
C2384 C2382 1.478 . S
C2384 C2386 1.381 . S
C2384 C2390 1.383 . S
C2385 C2381 1.495 . S
C2385 H2391 0.959 . S
C2385 H2392 0.961 . S
C2385 H2393 0.960 . S
C2386 C2384 1.381 . S
C2386 C2387 1.394 . S
C2386 H2394 0.930 . S
C2387 C2386 1.394 . S
C2387 C2388 1.383 . S
C2387 H2395 0.929 . S
C2388 C2387 1.383 . S
C2388 C2389 1.377 . S
C2389 H2373 0.930 . S
C2389 C2388 1.377 . S
C2389 C2390 1.379 . S
C2390 H2374 0.931 . S
C2390 C2384 1.383 . S
C2390 C2389 1.379 . S
H2391 C2385 0.959 . S
H2392 C2385 0.961 . S
H2393 C2385 0.960 . S
H2394 C2386 0.930 . S
H2395 C2387 0.929 . S
H2396 C2404 0.929 . S
H2397 C2406 0.930 . S
H2398 C2408 0.930 . S
H2399 C2411 0.929 . S
H2400 C2414 0.930 . S
H2401 C2416 0.960 . S
H2402 C2416 0.960 . S
H2403 C2416 0.960 . S
C2404 H2396 0.929 . S
C2404 C2405 1.377 . S
C2404 C2406 1.384 . S
C2405 C2404 1.377 . S
C2405 C2411 1.390 . S
C2406 H2397 0.930 . S
C2406 C2404 1.384 . S
C2406 C2407 1.372 . S
C2407 C2406 1.372 . S
C2407 C2408 1.400 . S
C2407 C2412 1.490 . S
C2408 H2398 0.930 . S
C2408 C2407 1.400 . S
C2408 C2411 1.386 . S
H2409 C2425 0.930 . S
H2410 C2426 0.931 . S
C2411 H2399 0.929 . S
C2411 C2405 1.390 . S
C2411 C2408 1.386 . S
C2412 C2407 1.490 . S
C2412 C2414 1.395 . S
C2412 C2415 1.403 . S
H2413 C2419 0.930 . S
C2414 H2400 0.930 . S
C2414 C2412 1.395 . S
C2414 C2417 1.403 . S
C2415 C2412 1.403 . S
C2415 C2416 1.524 . S
C2415 C2419 1.400 . S
C2416 H2401 0.960 . S
C2416 H2402 0.960 . S
C2416 H2403 0.960 . S
C2416 C2415 1.524 . S
C2417 C2414 1.403 . S
C2417 C2418 1.392 . S
C2417 C2421 1.495 . S
C2418 C2417 1.392 . S
C2418 C2419 1.385 . S
C2418 C2420 1.478 . S
C2419 H2413 0.930 . S
C2419 C2415 1.400 . S
C2419 C2418 1.385 . S
C2420 C2418 1.478 . S
C2420 C2422 1.381 . S
C2420 C2426 1.383 . S
C2421 C2417 1.495 . S
C2421 H2427 0.959 . S
C2421 H2428 0.961 . S
C2421 H2429 0.960 . S
C2422 C2420 1.381 . S
C2422 C2423 1.394 . S
C2422 H2430 0.930 . S
C2423 C2422 1.394 . S
C2423 C2424 1.383 . S
C2423 H2431 0.929 . S
C2424 C2423 1.383 . S
C2424 C2425 1.377 . S
C2425 H2409 0.930 . S
C2425 C2424 1.377 . S
C2425 C2426 1.379 . S
C2426 H2410 0.931 . S
C2426 C2420 1.383 . S
C2426 C2425 1.379 . S
H2427 C2421 0.959 . S
H2428 C2421 0.961 . S
H2429 C2421 0.960 . S
H2430 C2422 0.930 . S
H2431 C2423 0.929 . S
H2432 C2440 0.929 . S
H2433 C2442 0.930 . S
H2434 C2444 0.930 . S
H2435 C2447 0.929 . S
H2436 C2450 0.930 . S
H2437 C2452 0.960 . S
H2438 C2452 0.960 . S
H2439 C2452 0.960 . S
C2440 H2432 0.929 . S
C2440 C2441 1.377 . S
C2440 C2442 1.384 . S
C2441 C2440 1.377 . S
C2441 C2447 1.390 . S
C2442 H2433 0.930 . S
C2442 C2440 1.384 . S
C2442 C2443 1.372 . S
C2443 C2442 1.372 . S
C2443 C2444 1.400 . S
C2443 C2448 1.490 . S
C2444 H2434 0.930 . S
C2444 C2443 1.400 . S
C2444 C2447 1.386 . S
H2445 C2461 0.930 . S
H2446 C2462 0.931 . S
C2447 H2435 0.929 . S
C2447 C2441 1.390 . S
C2447 C2444 1.386 . S
C2448 C2443 1.490 . S
C2448 C2450 1.395 . S
C2448 C2451 1.403 . S
H2449 C2455 0.930 . S
C2450 H2436 0.930 . S
C2450 C2448 1.395 . S
C2450 C2453 1.403 . S
C2451 C2448 1.403 . S
C2451 C2452 1.524 . S
C2451 C2455 1.400 . S
C2452 H2437 0.960 . S
C2452 H2438 0.960 . S
C2452 H2439 0.960 . S
C2452 C2451 1.524 . S
C2453 C2450 1.403 . S
C2453 C2454 1.392 . S
C2453 C2457 1.495 . S
C2454 C2453 1.392 . S
C2454 C2455 1.385 . S
C2454 C2456 1.478 . S
C2455 H2449 0.930 . S
C2455 C2451 1.400 . S
C2455 C2454 1.385 . S
C2456 C2454 1.478 . S
C2456 C2458 1.381 . S
C2456 C2462 1.383 . S
C2457 C2453 1.495 . S
C2457 H2463 0.959 . S
C2457 H2464 0.961 . S
C2457 H2465 0.960 . S
C2458 C2456 1.381 . S
C2458 C2459 1.394 . S
C2458 H2466 0.930 . S
C2459 C2458 1.394 . S
C2459 C2460 1.383 . S
C2459 H2467 0.929 . S
C2460 C2459 1.383 . S
C2460 C2461 1.377 . S
C2461 H2445 0.930 . S
C2461 C2460 1.377 . S
C2461 C2462 1.379 . S
C2462 H2446 0.931 . S
C2462 C2456 1.383 . S
C2462 C2461 1.379 . S
H2463 C2457 0.959 . S
H2464 C2457 0.961 . S
H2465 C2457 0.960 . S
H2466 C2458 0.930 . S
H2467 C2459 0.929 . S
H2468 C2476 0.929 . S
H2469 C2478 0.930 . S
H2470 C2480 0.930 . S
H2471 C2483 0.929 . S
H2472 C2486 0.930 . S
H2473 C2488 0.960 . S
H2474 C2488 0.960 . S
H2475 C2488 0.960 . S
C2476 H2468 0.929 . S
C2476 C2477 1.377 . S
C2476 C2478 1.384 . S
C2477 C2476 1.377 . S
C2477 C2483 1.390 . S
C2478 H2469 0.930 . S
C2478 C2476 1.384 . S
C2478 C2479 1.372 . S
C2479 C2478 1.372 . S
C2479 C2480 1.400 . S
C2479 C2484 1.490 . S
C2480 H2470 0.930 . S
C2480 C2479 1.400 . S
C2480 C2483 1.386 . S
H2481 C2497 0.930 . S
H2482 C2498 0.931 . S
C2483 H2471 0.929 . S
C2483 C2477 1.390 . S
C2483 C2480 1.386 . S
C2484 C2479 1.490 . S
C2484 C2486 1.395 . S
C2484 C2487 1.403 . S
H2485 C2491 0.930 . S
C2486 H2472 0.930 . S
C2486 C2484 1.395 . S
C2486 C2489 1.403 . S
C2487 C2484 1.403 . S
C2487 C2488 1.524 . S
C2487 C2491 1.400 . S
C2488 H2473 0.960 . S
C2488 H2474 0.960 . S
C2488 H2475 0.960 . S
C2488 C2487 1.524 . S
C2489 C2486 1.403 . S
C2489 C2490 1.392 . S
C2489 C2493 1.495 . S
C2490 C2489 1.392 . S
C2490 C2491 1.385 . S
C2490 C2492 1.478 . S
C2491 H2485 0.930 . S
C2491 C2487 1.400 . S
C2491 C2490 1.385 . S
C2492 C2490 1.478 . S
C2492 C2494 1.381 1_455 S
C2492 C2498 1.383 . S
C2493 C2489 1.495 . S
C2493 H2499 0.959 . S
C2493 H2500 0.961 . S
C2493 H2501 0.960 . S
C2494 C2492 1.381 1_655 S
C2494 C2495 1.394 . S
C2494 H2502 0.930 . S
C2495 C2494 1.394 . S
C2495 C2496 1.383 . S
C2495 H2503 0.929 . S
C2496 C2495 1.383 . S
C2496 C2497 1.377 . S
C2497 H2481 0.930 . S
C2497 C2496 1.377 . S
C2497 C2498 1.379 1_655 S
C2498 H2482 0.931 . S
C2498 C2492 1.383 . S
C2498 C2497 1.379 1_455 S
H2499 C2493 0.959 . S
H2500 C2493 0.961 . S
H2501 C2493 0.960 . S
H2502 C2494 0.930 . S
H2503 C2495 0.929 . S
H2504 C2512 0.929 . S
H2505 C2514 0.930 . S
H2506 C2516 0.930 . S
H2507 C2519 0.929 . S
H2508 C2522 0.930 . S
H2509 C2524 0.960 . S
H2510 C2524 0.960 . S
H2511 C2524 0.960 . S
C2512 H2504 0.929 . S
C2512 C2513 1.377 . S
C2512 C2514 1.384 . S
C2513 C2512 1.377 . S
C2513 C2519 1.390 . S
C2514 H2505 0.930 . S
C2514 C2512 1.384 . S
C2514 C2515 1.372 . S
C2515 C2514 1.372 . S
C2515 C2516 1.400 . S
C2515 C2520 1.490 . S
C2516 H2506 0.930 . S
C2516 C2515 1.400 . S
C2516 C2519 1.386 . S
H2517 C2533 0.930 . S
H2518 C2534 0.931 . S
C2519 H2507 0.929 . S
C2519 C2513 1.390 . S
C2519 C2516 1.386 . S
C2520 C2515 1.490 . S
C2520 C2522 1.395 . S
C2520 C2523 1.403 . S
H2521 C2527 0.930 . S
C2522 H2508 0.930 . S
C2522 C2520 1.395 . S
C2522 C2525 1.403 . S
C2523 C2520 1.403 . S
C2523 C2524 1.524 . S
C2523 C2527 1.400 . S
C2524 H2509 0.960 . S
C2524 H2510 0.960 . S
C2524 H2511 0.960 . S
C2524 C2523 1.524 . S
C2525 C2522 1.403 . S
C2525 C2526 1.392 . S
C2525 C2529 1.495 . S
C2526 C2525 1.392 . S
C2526 C2527 1.385 . S
C2526 C2528 1.478 . S
C2527 H2521 0.930 . S
C2527 C2523 1.400 . S
C2527 C2526 1.385 . S
C2528 C2526 1.478 . S
C2528 C2530 1.381 . S
C2528 C2534 1.383 . S
C2529 C2525 1.495 . S
C2529 H2535 0.959 . S
C2529 H2536 0.961 . S
C2529 H2537 0.960 . S
C2530 C2528 1.381 . S
C2530 C2531 1.394 . S
C2530 H2538 0.930 . S
C2531 C2530 1.394 . S
C2531 C2532 1.383 . S
C2531 H2539 0.929 . S
C2532 C2531 1.383 . S
C2532 C2533 1.377 . S
C2533 H2517 0.930 . S
C2533 C2532 1.377 . S
C2533 C2534 1.379 . S
C2534 H2518 0.931 . S
C2534 C2528 1.383 . S
C2534 C2533 1.379 . S
H2535 C2529 0.959 . S
H2536 C2529 0.961 . S
H2537 C2529 0.960 . S
H2538 C2530 0.930 . S
H2539 C2531 0.929 . S
H2540 C2548 0.929 . S
H2541 C2550 0.930 . S
H2542 C2552 0.930 . S
H2543 C2555 0.929 . S
H2544 C2558 0.930 . S
H2545 C2560 0.960 . S
H2546 C2560 0.960 . S
H2547 C2560 0.960 . S
C2548 H2540 0.929 . S
C2548 C2549 1.377 . S
C2548 C2550 1.384 . S
C2549 C2548 1.377 . S
C2549 C2555 1.390 . S
C2550 H2541 0.930 . S
C2550 C2548 1.384 . S
C2550 C2551 1.372 . S
C2551 C2550 1.372 . S
C2551 C2552 1.400 . S
C2551 C2556 1.490 . S
C2552 H2542 0.930 . S
C2552 C2551 1.400 . S
C2552 C2555 1.386 . S
H2553 C2569 0.930 . S
H2554 C2570 0.931 . S
C2555 H2543 0.929 . S
C2555 C2549 1.390 . S
C2555 C2552 1.386 . S
C2556 C2551 1.490 . S
C2556 C2558 1.395 . S
C2556 C2559 1.403 . S
H2557 C2563 0.930 . S
C2558 H2544 0.930 . S
C2558 C2556 1.395 . S
C2558 C2561 1.403 . S
C2559 C2556 1.403 . S
C2559 C2560 1.524 . S
C2559 C2563 1.400 . S
C2560 H2545 0.960 . S
C2560 H2546 0.960 . S
C2560 H2547 0.960 . S
C2560 C2559 1.524 . S
C2561 C2558 1.403 . S
C2561 C2562 1.392 . S
C2561 C2565 1.495 . S
C2562 C2561 1.392 . S
C2562 C2563 1.385 . S
C2562 C2564 1.478 . S
C2563 H2557 0.930 . S
C2563 C2559 1.400 . S
C2563 C2562 1.385 . S
C2564 C2562 1.478 . S
C2564 C2566 1.381 . S
C2564 C2570 1.383 . S
C2565 C2561 1.495 . S
C2565 H2571 0.959 . S
C2565 H2572 0.961 . S
C2565 H2573 0.960 . S
C2566 C2564 1.381 . S
C2566 C2567 1.394 . S
C2566 H2574 0.930 . S
C2567 C2566 1.394 . S
C2567 C2568 1.383 . S
C2567 H2575 0.929 . S
C2568 C2567 1.383 . S
C2568 C2569 1.377 . S
C2569 H2553 0.930 . S
C2569 C2568 1.377 . S
C2569 C2570 1.379 . S
C2570 H2554 0.931 . S
C2570 C2564 1.383 . S
C2570 C2569 1.379 . S
H2571 C2565 0.959 . S
H2572 C2565 0.961 . S
H2573 C2565 0.960 . S
H2574 C2566 0.930 . S
H2575 C2567 0.929 . S
H2576 C2584 0.929 . S
H2577 C2586 0.930 . S
H2578 C2588 0.930 . S
H2579 C2591 0.929 . S
H2580 C2594 0.930 . S
H2581 C2596 0.960 . S
H2582 C2596 0.960 . S
H2583 C2596 0.960 . S
C2584 H2576 0.929 . S
C2584 C2585 1.377 . S
C2584 C2586 1.384 . S
C2585 C2584 1.377 . S
C2585 C2591 1.390 . S
C2586 H2577 0.930 . S
C2586 C2584 1.384 . S
C2586 C2587 1.372 . S
C2587 C2586 1.372 . S
C2587 C2588 1.400 . S
C2587 C2592 1.490 . S
C2588 H2578 0.930 . S
C2588 C2587 1.400 . S
C2588 C2591 1.386 . S
H2589 C2605 0.930 . S
H2590 C2606 0.931 . S
C2591 H2579 0.929 . S
C2591 C2585 1.390 . S
C2591 C2588 1.386 . S
C2592 C2587 1.490 . S
C2592 C2594 1.395 . S
C2592 C2595 1.403 . S
H2593 C2599 0.930 . S
C2594 H2580 0.930 . S
C2594 C2592 1.395 . S
C2594 C2597 1.403 . S
C2595 C2592 1.403 . S
C2595 C2596 1.524 . S
C2595 C2599 1.400 . S
C2596 H2581 0.960 . S
C2596 H2582 0.960 . S
C2596 H2583 0.960 . S
C2596 C2595 1.524 . S
C2597 C2594 1.403 . S
C2597 C2598 1.392 . S
C2597 C2601 1.495 . S
C2598 C2597 1.392 . S
C2598 C2599 1.385 . S
C2598 C2600 1.478 . S
C2599 H2593 0.930 . S
C2599 C2595 1.400 . S
C2599 C2598 1.385 . S
C2600 C2598 1.478 . S
C2600 C2602 1.381 . S
C2600 C2606 1.383 . S
C2601 C2597 1.495 . S
C2601 H2607 0.959 . S
C2601 H2608 0.961 . S
C2601 H2609 0.960 . S
C2602 C2600 1.381 . S
C2602 C2603 1.394 . S
C2602 H2610 0.930 . S
C2603 C2602 1.394 . S
C2603 C2604 1.383 . S
C2603 H2611 0.929 . S
C2604 C2603 1.383 . S
C2604 C2605 1.377 . S
C2605 H2589 0.930 . S
C2605 C2604 1.377 . S
C2605 C2606 1.379 . S
C2606 H2590 0.931 . S
C2606 C2600 1.383 . S
C2606 C2605 1.379 . S
H2607 C2601 0.959 . S
H2608 C2601 0.961 . S
H2609 C2601 0.960 . S
H2610 C2602 0.930 . S
H2611 C2603 0.929 . S
H2612 C2620 0.929 . S
H2613 C2622 0.930 . S
H2614 C2624 0.930 . S
H2615 C2627 0.929 . S
H2616 C2630 0.930 . S
H2617 C2632 0.960 . S
H2618 C2632 0.960 . S
H2619 C2632 0.960 . S
C2620 H2612 0.929 . S
C2620 C2621 1.377 . S
C2620 C2622 1.384 . S
C2621 C2620 1.377 . S
C2621 C2627 1.390 . S
C2622 H2613 0.930 . S
C2622 C2620 1.384 . S
C2622 C2623 1.372 . S
C2623 C2622 1.372 . S
C2623 C2624 1.400 . S
C2623 C2628 1.490 . S
C2624 H2614 0.930 . S
C2624 C2623 1.400 . S
C2624 C2627 1.386 . S
H2625 C2641 0.930 . S
H2626 C2642 0.931 . S
C2627 H2615 0.929 . S
C2627 C2621 1.390 . S
C2627 C2624 1.386 . S
C2628 C2623 1.490 . S
C2628 C2630 1.395 . S
C2628 C2631 1.403 . S
H2629 C2635 0.930 . S
C2630 H2616 0.930 . S
C2630 C2628 1.395 . S
C2630 C2633 1.403 . S
C2631 C2628 1.403 . S
C2631 C2632 1.524 . S
C2631 C2635 1.400 . S
C2632 H2617 0.960 . S
C2632 H2618 0.960 . S
C2632 H2619 0.960 . S
C2632 C2631 1.524 . S
C2633 C2630 1.403 . S
C2633 C2634 1.392 . S
C2633 C2637 1.495 . S
C2634 C2633 1.392 . S
C2634 C2635 1.385 . S
C2634 C2636 1.478 . S
C2635 H2629 0.930 . S
C2635 C2631 1.400 . S
C2635 C2634 1.385 . S
C2636 C2634 1.478 . S
C2636 C2638 1.381 . S
C2636 C2642 1.383 . S
C2637 C2633 1.495 . S
C2637 H2643 0.959 . S
C2637 H2644 0.961 . S
C2637 H2645 0.960 . S
C2638 C2636 1.381 . S
C2638 C2639 1.394 . S
C2638 H2646 0.930 . S
C2639 C2638 1.394 . S
C2639 C2640 1.383 . S
C2639 H2647 0.929 . S
C2640 C2639 1.383 . S
C2640 C2641 1.377 . S
C2641 H2625 0.930 . S
C2641 C2640 1.377 . S
C2641 C2642 1.379 . S
C2642 H2626 0.931 . S
C2642 C2636 1.383 . S
C2642 C2641 1.379 . S
H2643 C2637 0.959 . S
H2644 C2637 0.961 . S
H2645 C2637 0.960 . S
H2646 C2638 0.930 . S
H2647 C2639 0.929 . S
H2648 C2656 0.929 . S
H2649 C2658 0.930 . S
H2650 C2660 0.930 . S
H2651 C2663 0.929 . S
H2652 C2666 0.930 . S
H2653 C2668 0.960 . S
H2654 C2668 0.960 . S
H2655 C2668 0.960 . S
C2656 H2648 0.929 . S
C2656 C2657 1.377 . S
C2656 C2658 1.384 . S
C2657 C2656 1.377 . S
C2657 C2663 1.390 . S
C2658 H2649 0.930 . S
C2658 C2656 1.384 . S
C2658 C2659 1.372 . S
C2659 C2658 1.372 . S
C2659 C2660 1.400 . S
C2659 C2664 1.490 . S
C2660 H2650 0.930 . S
C2660 C2659 1.400 . S
C2660 C2663 1.386 . S
H2661 C2677 0.930 . S
H2662 C2678 0.931 . S
C2663 H2651 0.929 . S
C2663 C2657 1.390 . S
C2663 C2660 1.386 . S
C2664 C2659 1.490 . S
C2664 C2666 1.395 . S
C2664 C2667 1.403 . S
H2665 C2671 0.930 . S
C2666 H2652 0.930 . S
C2666 C2664 1.395 . S
C2666 C2669 1.403 . S
C2667 C2664 1.403 . S
C2667 C2668 1.524 . S
C2667 C2671 1.400 . S
C2668 H2653 0.960 . S
C2668 H2654 0.960 . S
C2668 H2655 0.960 . S
C2668 C2667 1.524 . S
C2669 C2666 1.403 . S
C2669 C2670 1.392 . S
C2669 C2673 1.495 . S
C2670 C2669 1.392 . S
C2670 C2671 1.385 . S
C2670 C2672 1.478 . S
C2671 H2665 0.930 . S
C2671 C2667 1.400 . S
C2671 C2670 1.385 . S
C2672 C2670 1.478 . S
C2672 C2674 1.381 . S
C2672 C2678 1.383 . S
C2673 C2669 1.495 . S
C2673 H2679 0.959 . S
C2673 H2680 0.961 . S
C2673 H2681 0.960 . S
C2674 C2672 1.381 . S
C2674 C2675 1.394 . S
C2674 H2682 0.930 . S
C2675 C2674 1.394 . S
C2675 C2676 1.383 . S
C2675 H2683 0.929 . S
C2676 C2675 1.383 . S
C2676 C2677 1.377 . S
C2677 H2661 0.930 . S
C2677 C2676 1.377 . S
C2677 C2678 1.379 . S
C2678 H2662 0.931 . S
C2678 C2672 1.383 . S
C2678 C2677 1.379 . S
H2679 C2673 0.959 . S
H2680 C2673 0.961 . S
H2681 C2673 0.960 . S
H2682 C2674 0.930 . S
H2683 C2675 0.929 . S
H2684 C2692 0.929 . S
H2685 C2694 0.930 . S
H2686 C2696 0.930 . S
H2687 C2699 0.929 . S
H2688 C2702 0.930 . S
H2689 C2704 0.960 . S
H2690 C2704 0.960 . S
H2691 C2704 0.960 . S
C2692 H2684 0.929 . S
C2692 C2693 1.377 . S
C2692 C2694 1.384 . S
C2693 C2692 1.377 . S
C2693 C2699 1.390 . S
C2694 H2685 0.930 . S
C2694 C2692 1.384 . S
C2694 C2695 1.372 . S
C2695 C2694 1.372 . S
C2695 C2696 1.400 . S
C2695 C2700 1.490 . S
C2696 H2686 0.930 . S
C2696 C2695 1.400 . S
C2696 C2699 1.386 . S
H2697 C2713 0.930 . S
H2698 C2714 0.931 . S
C2699 H2687 0.929 . S
C2699 C2693 1.390 . S
C2699 C2696 1.386 . S
C2700 C2695 1.490 . S
C2700 C2702 1.395 . S
C2700 C2703 1.403 . S
H2701 C2707 0.930 . S
C2702 H2688 0.930 . S
C2702 C2700 1.395 . S
C2702 C2705 1.403 . S
C2703 C2700 1.403 . S
C2703 C2704 1.524 . S
C2703 C2707 1.400 . S
C2704 H2689 0.960 . S
C2704 H2690 0.960 . S
C2704 H2691 0.960 . S
C2704 C2703 1.524 . S
C2705 C2702 1.403 . S
C2705 C2706 1.392 . S
C2705 C2709 1.495 . S
C2706 C2705 1.392 . S
C2706 C2707 1.385 . S
C2706 C2708 1.478 . S
C2707 H2701 0.930 . S
C2707 C2703 1.400 . S
C2707 C2706 1.385 . S
C2708 C2706 1.478 . S
C2708 C2710 1.381 . S
C2708 C2714 1.383 1_455 S
C2709 C2705 1.495 . S
C2709 H2715 0.959 . S
C2709 H2716 0.961 . S
C2709 H2717 0.960 . S
C2710 C2708 1.381 . S
C2710 C2711 1.394 1_455 S
C2710 H2718 0.930 . S
C2711 C2710 1.394 1_655 S
C2711 C2712 1.383 . S
C2711 H2719 0.929 . S
C2712 C2711 1.383 . S
C2712 C2713 1.377 . S
C2713 H2697 0.930 . S
C2713 C2712 1.377 . S
C2713 C2714 1.379 . S
C2714 H2698 0.931 . S
C2714 C2708 1.383 1_655 S
C2714 C2713 1.379 . S
H2715 C2709 0.959 . S
H2716 C2709 0.961 . S
H2717 C2709 0.960 . S
H2718 C2710 0.930 . S
H2719 C2711 0.929 . S
H2720 C2728 0.929 . S
H2721 C2730 0.930 . S
H2722 C2732 0.930 . S
H2723 C2735 0.929 . S
H2724 C2738 0.930 . S
H2725 C2740 0.960 . S
H2726 C2740 0.960 . S
H2727 C2740 0.960 . S
C2728 H2720 0.929 . S
C2728 C2729 1.377 . S
C2728 C2730 1.384 . S
C2729 C2728 1.377 . S
C2729 C2735 1.390 . S
C2730 H2721 0.930 . S
C2730 C2728 1.384 . S
C2730 C2731 1.372 . S
C2731 C2730 1.372 . S
C2731 C2732 1.400 . S
C2731 C2736 1.490 . S
C2732 H2722 0.930 . S
C2732 C2731 1.400 . S
C2732 C2735 1.386 . S
H2733 C2749 0.930 . S
H2734 C2750 0.931 . S
C2735 H2723 0.929 . S
C2735 C2729 1.390 . S
C2735 C2732 1.386 . S
C2736 C2731 1.490 . S
C2736 C2738 1.395 . S
C2736 C2739 1.403 . S
H2737 C2743 0.930 . S
C2738 H2724 0.930 . S
C2738 C2736 1.395 . S
C2738 C2741 1.403 . S
C2739 C2736 1.403 . S
C2739 C2740 1.524 . S
C2739 C2743 1.400 . S
C2740 H2725 0.960 . S
C2740 H2726 0.960 . S
C2740 H2727 0.960 . S
C2740 C2739 1.524 . S
C2741 C2738 1.403 . S
C2741 C2742 1.392 . S
C2741 C2745 1.495 . S
C2742 C2741 1.392 . S
C2742 C2743 1.385 . S
C2742 C2744 1.478 . S
C2743 H2737 0.930 . S
C2743 C2739 1.400 . S
C2743 C2742 1.385 . S
C2744 C2742 1.478 . S
C2744 C2746 1.381 . S
C2744 C2750 1.383 . S
C2745 C2741 1.495 . S
C2745 H2751 0.959 . S
C2745 H2752 0.961 . S
C2745 H2753 0.960 . S
C2746 C2744 1.381 . S
C2746 C2747 1.394 . S
C2746 H2754 0.930 . S
C2747 C2746 1.394 . S
C2747 C2748 1.383 . S
C2747 H2755 0.929 . S
C2748 C2747 1.383 . S
C2748 C2749 1.377 . S
C2749 H2733 0.930 . S
C2749 C2748 1.377 . S
C2749 C2750 1.379 . S
C2750 H2734 0.931 . S
C2750 C2744 1.383 . S
C2750 C2749 1.379 . S
H2751 C2745 0.959 . S
H2752 C2745 0.961 . S
H2753 C2745 0.960 . S
H2754 C2746 0.930 . S
H2755 C2747 0.929 . S
H2756 C2764 0.929 . S
H2757 C2766 0.911 1_655 S
H2758 C2768 0.949 . S
H2759 C2771 0.929 . S
H2760 C2774 0.930 . S
H2761 C2776 0.960 . S
H2762 C2776 0.960 . S
H2763 C2776 0.960 . S
C2764 H2756 0.929 . S
C2764 C2765 1.377 . S
C2764 C2766 1.384 . S
C2765 C2764 1.377 . S
C2765 C2771 1.390 . S
C2766 H2757 0.911 1_455 S
C2766 C2764 1.384 . S
C2766 C2767 1.372 1_455 S
C2767 C2766 1.372 1_655 S
C2767 C2768 1.412 . S
C2767 C2772 1.490 . S
C2768 H2758 0.949 . S
C2768 C2767 1.412 . S
C2768 C2771 1.355 1_655 S
H2769 C2785 0.930 . S
H2770 C2786 0.931 . S
C2771 H2759 0.929 . S
C2771 C2765 1.390 . S
C2771 C2768 1.355 1_455 S
C2772 C2767 1.490 . S
C2772 C2774 1.395 . S
C2772 C2775 1.403 . S
H2773 C2779 0.930 . S
C2774 H2760 0.930 . S
C2774 C2772 1.395 . S
C2774 C2777 1.403 . S
C2775 C2772 1.403 . S
C2775 C2776 1.524 . S
C2775 C2779 1.400 . S
C2776 H2761 0.960 . S
C2776 H2762 0.960 . S
C2776 H2763 0.960 . S
C2776 C2775 1.524 . S
C2777 C2774 1.403 . S
C2777 C2778 1.392 . S
C2777 C2781 1.495 . S
C2778 C2777 1.392 . S
C2778 C2779 1.385 . S
C2778 C2780 1.478 . S
C2779 H2773 0.930 . S
C2779 C2775 1.400 . S
C2779 C2778 1.385 . S
C2780 C2778 1.478 . S
C2780 C2782 1.381 . S
C2780 C2786 1.383 . S
C2781 C2777 1.495 . S
C2781 H2787 0.959 . S
C2781 H2788 0.961 . S
C2781 H2789 0.960 . S
C2782 C2780 1.381 . S
C2782 C2783 1.394 . S
C2782 H2790 0.930 . S
C2783 C2782 1.394 . S
C2783 C2784 1.383 . S
C2783 H2791 0.929 . S
C2784 C2783 1.383 . S
C2784 C2785 1.377 . S
C2785 H2769 0.930 . S
C2785 C2784 1.377 . S
C2785 C2786 1.379 . S
C2786 H2770 0.931 . S
C2786 C2780 1.383 . S
C2786 C2785 1.379 . S
H2787 C2781 0.959 . S
H2788 C2781 0.961 . S
H2789 C2781 0.960 . S
H2790 C2782 0.930 . S
H2791 C2783 0.929 . S
H2792 C2800 0.929 . S
H2793 C2802 0.930 . S
H2794 C2804 0.930 . S
H2795 C2807 0.929 . S
H2796 C2810 0.930 . S
H2797 C2812 0.960 . S
H2798 C2812 0.960 . S
H2799 C2812 0.960 . S
C2800 H2792 0.929 . S
C2800 C2801 1.377 . S
C2800 C2802 1.384 . S
C2801 C2800 1.377 . S
C2801 C2807 1.390 . S
C2802 H2793 0.930 . S
C2802 C2800 1.384 . S
C2802 C2803 1.372 . S
C2803 C2802 1.372 . S
C2803 C2804 1.400 . S
C2803 C2808 1.490 . S
C2804 H2794 0.930 . S
C2804 C2803 1.400 . S
C2804 C2807 1.386 . S
H2805 C2821 0.930 . S
H2806 C2822 0.931 . S
C2807 H2795 0.929 . S
C2807 C2801 1.390 . S
C2807 C2804 1.386 . S
C2808 C2803 1.490 . S
C2808 C2810 1.395 . S
C2808 C2811 1.403 . S
H2809 C2815 0.930 . S
C2810 H2796 0.930 . S
C2810 C2808 1.395 . S
C2810 C2813 1.403 . S
C2811 C2808 1.403 . S
C2811 C2812 1.524 . S
C2811 C2815 1.400 . S
C2812 H2797 0.960 . S
C2812 H2798 0.960 . S
C2812 H2799 0.960 . S
C2812 C2811 1.524 . S
C2813 C2810 1.403 . S
C2813 C2814 1.392 . S
C2813 C2817 1.495 . S
C2814 C2813 1.392 . S
C2814 C2815 1.385 . S
C2814 C2816 1.478 . S
C2815 H2809 0.930 . S
C2815 C2811 1.400 . S
C2815 C2814 1.385 . S
C2816 C2814 1.478 . S
C2816 C2818 1.381 . S
C2816 C2822 1.383 . S
C2817 C2813 1.495 . S
C2817 H2823 0.959 . S
C2817 H2824 0.961 . S
C2817 H2825 0.960 . S
C2818 C2816 1.381 . S
C2818 C2819 1.394 . S
C2818 H2826 0.930 . S
C2819 C2818 1.394 . S
C2819 C2820 1.383 . S
C2819 H2827 0.929 . S
C2820 C2819 1.383 . S
C2820 C2821 1.377 . S
C2821 H2805 0.930 . S
C2821 C2820 1.377 . S
C2821 C2822 1.379 . S
C2822 H2806 0.931 . S
C2822 C2816 1.383 . S
C2822 C2821 1.379 . S
H2823 C2817 0.959 . S
H2824 C2817 0.961 . S
H2825 C2817 0.960 . S
H2826 C2818 0.930 . S
H2827 C2819 0.929 . S
H2828 C2836 0.929 . S
H2829 C2838 0.930 . S
H2830 C2840 0.930 . S
H2831 C2843 0.929 . S
H2832 C2846 0.930 . S
H2833 C2848 0.960 . S
H2834 C2848 0.960 . S
H2835 C2848 0.960 . S
C2836 H2828 0.929 . S
C2836 C2837 1.377 . S
C2836 C2838 1.384 . S
C2837 C2836 1.377 . S
C2837 C2843 1.390 . S
C2838 H2829 0.930 . S
C2838 C2836 1.384 . S
C2838 C2839 1.372 . S
C2839 C2838 1.372 . S
C2839 C2840 1.400 . S
C2839 C2844 1.490 . S
C2840 H2830 0.930 . S
C2840 C2839 1.400 . S
C2840 C2843 1.386 . S
H2841 C2857 0.930 . S
H2842 C2858 0.931 . S
C2843 H2831 0.929 . S
C2843 C2837 1.390 . S
C2843 C2840 1.386 . S
C2844 C2839 1.490 . S
C2844 C2846 1.395 . S
C2844 C2847 1.403 . S
H2845 C2851 0.930 . S
C2846 H2832 0.930 . S
C2846 C2844 1.395 . S
C2846 C2849 1.403 . S
C2847 C2844 1.403 . S
C2847 C2848 1.524 . S
C2847 C2851 1.400 . S
C2848 H2833 0.960 . S
C2848 H2834 0.960 . S
C2848 H2835 0.960 . S
C2848 C2847 1.524 . S
C2849 C2846 1.403 . S
C2849 C2850 1.392 . S
C2849 C2853 1.495 . S
C2850 C2849 1.392 . S
C2850 C2851 1.385 . S
C2850 C2852 1.478 . S
C2851 H2845 0.930 . S
C2851 C2847 1.400 . S
C2851 C2850 1.385 . S
C2852 C2850 1.478 . S
C2852 C2854 1.381 . S
C2852 C2858 1.383 . S
C2853 C2849 1.495 . S
C2853 H2859 0.959 . S
C2853 H2860 0.961 . S
C2853 H2861 0.960 . S
C2854 C2852 1.381 . S
C2854 C2855 1.394 . S
C2854 H2862 0.930 . S
C2855 C2854 1.394 . S
C2855 C2856 1.383 . S
C2855 H2863 0.929 . S
C2856 C2855 1.383 . S
C2856 C2857 1.377 . S
C2857 H2841 0.930 . S
C2857 C2856 1.377 . S
C2857 C2858 1.379 . S
C2858 H2842 0.931 . S
C2858 C2852 1.383 . S
C2858 C2857 1.379 . S
H2859 C2853 0.959 . S
H2860 C2853 0.961 . S
H2861 C2853 0.960 . S
H2862 C2854 0.930 . S
H2863 C2855 0.929 . S
H2864 C2872 0.929 . S
H2865 C2874 0.930 . S
H2866 C2876 0.930 . S
H2867 C2879 0.929 . S
H2868 C2882 0.930 . S
H2869 C2884 0.960 . S
H2870 C2884 0.960 . S
H2871 C2884 0.960 . S
C2872 H2864 0.929 . S
C2872 C2873 1.377 . S
C2872 C2874 1.384 . S
C2873 C2872 1.377 . S
C2873 C2879 1.390 . S
C2874 H2865 0.930 . S
C2874 C2872 1.384 . S
C2874 C2875 1.372 . S
C2875 C2874 1.372 . S
C2875 C2876 1.400 . S
C2875 C2880 1.490 . S
C2876 H2866 0.930 . S
C2876 C2875 1.400 . S
C2876 C2879 1.386 . S
H2877 C2893 0.930 . S
H2878 C2894 0.931 . S
C2879 H2867 0.929 . S
C2879 C2873 1.390 . S
C2879 C2876 1.386 . S
C2880 C2875 1.490 . S
C2880 C2882 1.395 . S
C2880 C2883 1.403 . S
H2881 C2887 0.930 . S
C2882 H2868 0.930 . S
C2882 C2880 1.395 . S
C2882 C2885 1.403 . S
C2883 C2880 1.403 . S
C2883 C2884 1.524 . S
C2883 C2887 1.400 . S
C2884 H2869 0.960 . S
C2884 H2870 0.960 . S
C2884 H2871 0.960 . S
C2884 C2883 1.524 . S
C2885 C2882 1.403 . S
C2885 C2886 1.392 . S
C2885 C2889 1.495 . S
C2886 C2885 1.392 . S
C2886 C2887 1.385 . S
C2886 C2888 1.478 . S
C2887 H2881 0.930 . S
C2887 C2883 1.400 . S
C2887 C2886 1.385 . S
C2888 C2886 1.478 . S
C2888 C2890 1.381 . S
C2888 C2894 1.383 . S
C2889 C2885 1.495 . S
C2889 H2895 0.959 . S
C2889 H2896 0.961 . S
C2889 H2897 0.960 . S
C2890 C2888 1.381 . S
C2890 C2891 1.394 . S
C2890 H2898 0.930 . S
C2891 C2890 1.394 . S
C2891 C2892 1.383 . S
C2891 H2899 0.929 . S
C2892 C2891 1.383 . S
C2892 C2893 1.377 . S
C2893 H2877 0.930 . S
C2893 C2892 1.377 . S
C2893 C2894 1.379 . S
C2894 H2878 0.931 . S
C2894 C2888 1.383 . S
C2894 C2893 1.379 . S
H2895 C2889 0.959 . S
H2896 C2889 0.961 . S
H2897 C2889 0.960 . S
H2898 C2890 0.930 . S
H2899 C2891 0.929 . S
H2900 C2908 0.929 . S
H2901 C2910 0.930 . S
H2902 C2912 0.930 . S
H2903 C2915 0.929 . S
H2904 C2918 0.930 . S
H2905 C2920 0.960 . S
H2906 C2920 0.960 . S
H2907 C2920 0.960 . S
C2908 H2900 0.929 . S
C2908 C2909 1.377 . S
C2908 C2910 1.384 . S
C2909 C2908 1.377 . S
C2909 C2915 1.390 . S
C2910 H2901 0.930 . S
C2910 C2908 1.384 . S
C2910 C2911 1.372 . S
C2911 C2910 1.372 . S
C2911 C2912 1.400 . S
C2911 C2916 1.490 . S
C2912 H2902 0.930 . S
C2912 C2911 1.400 . S
C2912 C2915 1.386 . S
H2913 C2929 0.930 . S
H2914 C2930 0.931 . S
C2915 H2903 0.929 . S
C2915 C2909 1.390 . S
C2915 C2912 1.386 . S
C2916 C2911 1.490 . S
C2916 C2918 1.395 . S
C2916 C2919 1.403 . S
H2917 C2923 0.930 . S
C2918 H2904 0.930 . S
C2918 C2916 1.395 . S
C2918 C2921 1.403 . S
C2919 C2916 1.403 . S
C2919 C2920 1.524 . S
C2919 C2923 1.400 . S
C2920 H2905 0.960 . S
C2920 H2906 0.960 . S
C2920 H2907 0.960 . S
C2920 C2919 1.524 . S
C2921 C2918 1.403 . S
C2921 C2922 1.392 . S
C2921 C2925 1.495 . S
C2922 C2921 1.392 . S
C2922 C2923 1.385 . S
C2922 C2924 1.478 . S
C2923 H2917 0.930 . S
C2923 C2919 1.400 . S
C2923 C2922 1.385 . S
C2924 C2922 1.478 . S
C2924 C2926 1.381 . S
C2924 C2930 1.383 . S
C2925 C2921 1.495 . S
C2925 H2931 0.959 . S
C2925 H2932 0.961 . S
C2925 H2933 0.960 . S
C2926 C2924 1.381 . S
C2926 C2927 1.394 . S
C2926 H2934 0.930 . S
C2927 C2926 1.394 . S
C2927 C2928 1.383 . S
C2927 H2935 0.929 . S
C2928 C2927 1.383 . S
C2928 C2929 1.377 . S
C2929 H2913 0.930 . S
C2929 C2928 1.377 . S
C2929 C2930 1.379 . S
C2930 H2914 0.931 . S
C2930 C2924 1.383 . S
C2930 C2929 1.379 . S
H2931 C2925 0.959 . S
H2932 C2925 0.961 . S
H2933 C2925 0.960 . S
H2934 C2926 0.930 . S
H2935 C2927 0.929 . S
H2936 C2944 0.929 . S
H2937 C2946 0.930 . S
H2938 C2948 0.930 . S
H2939 C2951 0.929 . S
H2940 C2954 0.930 . S
H2941 C2956 0.960 . S
H2942 C2956 0.960 . S
H2943 C2956 0.960 . S
C2944 H2936 0.929 . S
C2944 C2945 1.377 . S
C2944 C2946 1.384 . S
C2945 C2944 1.377 . S
C2945 C2951 1.390 . S
C2946 H2937 0.930 . S
C2946 C2944 1.384 . S
C2946 C2947 1.372 . S
C2947 C2946 1.372 . S
C2947 C2948 1.400 . S
C2947 C2952 1.490 . S
C2948 H2938 0.930 . S
C2948 C2947 1.400 . S
C2948 C2951 1.386 . S
H2949 C2965 0.930 . S
H2950 C2966 0.931 . S
C2951 H2939 0.929 . S
C2951 C2945 1.390 . S
C2951 C2948 1.386 . S
C2952 C2947 1.490 . S
C2952 C2954 1.395 . S
C2952 C2955 1.403 . S
H2953 C2959 0.930 . S
C2954 H2940 0.930 . S
C2954 C2952 1.395 . S
C2954 C2957 1.403 . S
C2955 C2952 1.403 . S
C2955 C2956 1.524 . S
C2955 C2959 1.400 . S
C2956 H2941 0.960 . S
C2956 H2942 0.960 . S
C2956 H2943 0.960 . S
C2956 C2955 1.524 . S
C2957 C2954 1.403 . S
C2957 C2958 1.392 . S
C2957 C2961 1.495 . S
C2958 C2957 1.392 . S
C2958 C2959 1.385 . S
C2958 C2960 1.478 . S
C2959 H2953 0.930 . S
C2959 C2955 1.400 . S
C2959 C2958 1.385 . S
C2960 C2958 1.478 . S
C2960 C2962 1.381 . S
C2960 C2966 1.383 . S
C2961 C2957 1.495 . S
C2961 H2967 0.959 . S
C2961 H2968 0.961 . S
C2961 H2969 0.960 . S
C2962 C2960 1.381 . S
C2962 C2963 1.394 . S
C2962 H2970 0.930 . S
C2963 C2962 1.394 . S
C2963 C2964 1.383 . S
C2963 H2971 0.929 . S
C2964 C2963 1.383 . S
C2964 C2965 1.377 . S
C2965 H2949 0.930 . S
C2965 C2964 1.377 . S
C2965 C2966 1.379 . S
C2966 H2950 0.931 . S
C2966 C2960 1.383 . S
C2966 C2965 1.379 . S
H2967 C2961 0.959 . S
H2968 C2961 0.961 . S
H2969 C2961 0.960 . S
H2970 C2962 0.930 . S
H2971 C2963 0.929 . S
H2972 C2980 0.929 . S
H2973 C2982 0.930 . S
H2974 C2984 0.930 . S
H2975 C2987 0.929 . S
H2976 C2990 0.930 . S
H2977 C2992 0.960 . S
H2978 C2992 0.960 . S
H2979 C2992 0.960 . S
C2980 H2972 0.929 . S
C2980 C2981 1.377 . S
C2980 C2982 1.384 . S
C2981 C2980 1.377 . S
C2981 C2987 1.390 . S
C2982 H2973 0.930 . S
C2982 C2980 1.384 . S
C2982 C2983 1.372 . S
C2983 C2982 1.372 . S
C2983 C2984 1.400 . S
C2983 C2988 1.490 . S
C2984 H2974 0.930 . S
C2984 C2983 1.400 . S
C2984 C2987 1.386 . S
H2985 C3001 0.930 . S
H2986 C3002 0.931 . S
C2987 H2975 0.929 . S
C2987 C2981 1.390 . S
C2987 C2984 1.386 . S
C2988 C2983 1.490 . S
C2988 C2990 1.395 . S
C2988 C2991 1.403 . S
H2989 C2995 0.930 . S
C2990 H2976 0.930 . S
C2990 C2988 1.395 . S
C2990 C2993 1.403 . S
C2991 C2988 1.403 . S
C2991 C2992 1.524 . S
C2991 C2995 1.400 . S
C2992 H2977 0.960 . S
C2992 H2978 0.960 . S
C2992 H2979 0.960 . S
C2992 C2991 1.524 . S
C2993 C2990 1.403 . S
C2993 C2994 1.392 . S
C2993 C2997 1.495 . S
C2994 C2993 1.392 . S
C2994 C2995 1.385 . S
C2994 C2996 1.478 . S
C2995 H2989 0.930 . S
C2995 C2991 1.400 . S
C2995 C2994 1.385 . S
C2996 C2994 1.478 . S
C2996 C2998 1.381 1_655 S
C2996 C3002 1.383 . S
C2997 C2993 1.495 . S
C2997 H3003 0.959 . S
C2997 H3004 0.961 . S
C2997 H3005 0.960 1_655 S
C2998 C2996 1.381 1_455 S
C2998 C2999 1.394 . S
C2998 H3006 0.930 . S
C2999 C2998 1.394 . S
C2999 C3000 1.383 . S
C2999 H3007 0.929 . S
C3000 C2999 1.383 . S
C3000 C3001 1.377 . S
C3001 H2985 0.930 . S
C3001 C3000 1.377 . S
C3001 C3002 1.379 1_455 S
C3002 H2986 0.931 . S
C3002 C2996 1.383 . S
C3002 C3001 1.379 1_655 S
H3003 C2997 0.959 . S
H3004 C2997 0.961 . S
H3005 C2997 0.960 1_455 S
H3006 C2998 0.930 . S
H3007 C2999 0.929 . S
H3008 C3016 0.929 . S
H3009 C3018 0.930 . S
H3010 C3020 0.930 . S
H3011 C3023 0.929 . S
H3012 C3026 0.930 . S
H3013 C3028 0.960 . S
H3014 C3028 0.960 . S
H3015 C3028 0.960 . S
C3016 H3008 0.929 . S
C3016 C3017 1.377 . S
C3016 C3018 1.384 . S
C3017 C3016 1.377 . S
C3017 C3023 1.390 . S
C3018 H3009 0.930 . S
C3018 C3016 1.384 . S
C3018 C3019 1.372 . S
C3019 C3018 1.372 . S
C3019 C3020 1.400 . S
C3019 C3024 1.490 . S
C3020 H3010 0.930 . S
C3020 C3019 1.400 . S
C3020 C3023 1.386 . S
H3021 C3037 0.930 . S
H3022 C3038 0.931 . S
C3023 H3011 0.929 . S
C3023 C3017 1.390 . S
C3023 C3020 1.386 . S
C3024 C3019 1.490 . S
C3024 C3026 1.395 . S
C3024 C3027 1.403 . S
H3025 C3031 0.930 . S
C3026 H3012 0.930 . S
C3026 C3024 1.395 . S
C3026 C3029 1.403 . S
C3027 C3024 1.403 . S
C3027 C3028 1.524 . S
C3027 C3031 1.400 . S
C3028 H3013 0.960 . S
C3028 H3014 0.960 . S
C3028 H3015 0.960 . S
C3028 C3027 1.524 . S
C3029 C3026 1.403 . S
C3029 C3030 1.392 . S
C3029 C3033 1.495 . S
C3030 C3029 1.392 . S
C3030 C3031 1.385 . S
C3030 C3032 1.478 . S
C3031 H3025 0.930 . S
C3031 C3027 1.400 . S
C3031 C3030 1.385 . S
C3032 C3030 1.478 . S
C3032 C3034 1.381 . S
C3032 C3038 1.383 . S
C3033 C3029 1.495 . S
C3033 H3039 0.959 . S
C3033 H3040 0.961 . S
C3033 H3041 0.960 . S
C3034 C3032 1.381 . S
C3034 C3035 1.394 . S
C3034 H3042 0.930 . S
C3035 C3034 1.394 . S
C3035 C3036 1.383 . S
C3035 H3043 0.929 . S
C3036 C3035 1.383 . S
C3036 C3037 1.377 . S
C3037 H3021 0.930 . S
C3037 C3036 1.377 . S
C3037 C3038 1.379 . S
C3038 H3022 0.931 . S
C3038 C3032 1.383 . S
C3038 C3037 1.379 . S
H3039 C3033 0.959 . S
H3040 C3033 0.961 . S
H3041 C3033 0.960 . S
H3042 C3034 0.930 . S
H3043 C3035 0.929 . S
H3044 C3052 0.929 . S
H3045 C3054 0.930 . S
H3046 C3056 0.930 . S
H3047 C3059 0.929 . S
H3048 C3062 0.930 . S
H3049 C3064 0.960 . S
H3050 C3064 0.960 . S
H3051 C3064 0.960 . S
C3052 H3044 0.929 . S
C3052 C3053 1.377 . S
C3052 C3054 1.384 . S
C3053 C3052 1.377 . S
C3053 C3059 1.390 . S
C3054 H3045 0.930 . S
C3054 C3052 1.384 . S
C3054 C3055 1.372 . S
C3055 C3054 1.372 . S
C3055 C3056 1.400 . S
C3055 C3060 1.490 . S
C3056 H3046 0.930 . S
C3056 C3055 1.400 . S
C3056 C3059 1.386 . S
H3057 C3073 0.930 . S
H3058 C3074 0.931 . S
C3059 H3047 0.929 . S
C3059 C3053 1.390 . S
C3059 C3056 1.386 . S
C3060 C3055 1.490 . S
C3060 C3062 1.395 . S
C3060 C3063 1.403 . S
H3061 C3067 0.930 . S
C3062 H3048 0.930 . S
C3062 C3060 1.395 . S
C3062 C3065 1.403 . S
C3063 C3060 1.403 . S
C3063 C3064 1.524 . S
C3063 C3067 1.400 . S
C3064 H3049 0.960 . S
C3064 H3050 0.960 . S
C3064 H3051 0.960 . S
C3064 C3063 1.524 . S
C3065 C3062 1.403 . S
C3065 C3066 1.392 . S
C3065 C3069 1.495 . S
C3066 C3065 1.392 . S
C3066 C3067 1.385 . S
C3066 C3068 1.478 . S
C3067 H3061 0.930 . S
C3067 C3063 1.400 . S
C3067 C3066 1.385 . S
C3068 C3066 1.478 . S
C3068 C3070 1.381 . S
C3068 C3074 1.383 . S
C3069 C3065 1.495 . S
C3069 H3075 0.959 . S
C3069 H3076 0.961 . S
C3069 H3077 0.960 . S
C3070 C3068 1.381 . S
C3070 C3071 1.394 . S
C3070 H3078 0.930 . S
C3071 C3070 1.394 . S
C3071 C3072 1.383 . S
C3071 H3079 0.929 . S
C3072 C3071 1.383 . S
C3072 C3073 1.377 . S
C3073 H3057 0.930 . S
C3073 C3072 1.377 . S
C3073 C3074 1.379 . S
C3074 H3058 0.931 . S
C3074 C3068 1.383 . S
C3074 C3073 1.379 . S
H3075 C3069 0.959 . S
H3076 C3069 0.961 . S
H3077 C3069 0.960 . S
H3078 C3070 0.930 . S
H3079 C3071 0.929 . S
H3080 C3088 0.929 . S
H3081 C3090 0.930 . S
H3082 C3092 0.930 . S
H3083 C3095 0.929 . S
H3084 C3098 0.930 . S
H3085 C3100 0.960 . S
H3086 C3100 0.960 . S
H3087 C3100 0.960 . S
C3088 H3080 0.929 . S
C3088 C3089 1.377 . S
C3088 C3090 1.384 . S
C3089 C3088 1.377 . S
C3089 C3095 1.390 . S
C3090 H3081 0.930 . S
C3090 C3088 1.384 . S
C3090 C3091 1.372 . S
C3091 C3090 1.372 . S
C3091 C3092 1.400 . S
C3091 C3096 1.490 . S
C3092 H3082 0.930 . S
C3092 C3091 1.400 . S
C3092 C3095 1.386 . S
H3093 C3109 0.930 . S
H3094 C3110 0.931 . S
C3095 H3083 0.929 . S
C3095 C3089 1.390 . S
C3095 C3092 1.386 . S
C3096 C3091 1.490 . S
C3096 C3098 1.395 . S
C3096 C3099 1.403 . S
H3097 C3103 0.930 . S
C3098 H3084 0.930 . S
C3098 C3096 1.395 . S
C3098 C3101 1.403 . S
C3099 C3096 1.403 . S
C3099 C3100 1.524 . S
C3099 C3103 1.400 . S
C3100 H3085 0.960 . S
C3100 H3086 0.960 . S
C3100 H3087 0.960 . S
C3100 C3099 1.524 . S
C3101 C3098 1.403 . S
C3101 C3102 1.392 . S
C3101 C3105 1.495 . S
C3102 C3101 1.392 . S
C3102 C3103 1.385 . S
C3102 C3104 1.478 . S
C3103 H3097 0.930 . S
C3103 C3099 1.400 . S
C3103 C3102 1.385 . S
C3104 C3102 1.478 . S
C3104 C3106 1.381 . S
C3104 C3110 1.383 . S
C3105 C3101 1.495 . S
C3105 H3111 0.959 . S
C3105 H3112 0.961 . S
C3105 H3113 0.960 . S
C3106 C3104 1.381 . S
C3106 C3107 1.394 . S
C3106 H3114 0.930 . S
C3107 C3106 1.394 . S
C3107 C3108 1.383 . S
C3107 H3115 0.929 . S
C3108 C3107 1.383 . S
C3108 C3109 1.377 . S
C3109 H3093 0.930 . S
C3109 C3108 1.377 . S
C3109 C3110 1.379 . S
C3110 H3094 0.931 . S
C3110 C3104 1.383 . S
C3110 C3109 1.379 . S
H3111 C3105 0.959 . S
H3112 C3105 0.961 . S
H3113 C3105 0.960 . S
H3114 C3106 0.930 . S
H3115 C3107 0.929 . S
H3116 C3124 0.929 . S
H3117 C3126 0.930 . S
H3118 C3128 0.930 . S
H3119 C3131 0.929 . S
H3120 C3134 0.930 . S
H3121 C3136 0.960 . S
H3122 C3136 0.960 . S
H3123 C3136 0.960 . S
C3124 H3116 0.929 . S
C3124 C3125 1.377 . S
C3124 C3126 1.384 . S
C3125 C3124 1.377 . S
C3125 C3131 1.390 . S
C3126 H3117 0.930 . S
C3126 C3124 1.384 . S
C3126 C3127 1.372 . S
C3127 C3126 1.372 . S
C3127 C3128 1.400 . S
C3127 C3132 1.490 . S
C3128 H3118 0.930 . S
C3128 C3127 1.400 . S
C3128 C3131 1.386 . S
H3129 C3145 0.930 . S
H3130 C3146 0.931 . S
C3131 H3119 0.929 . S
C3131 C3125 1.390 . S
C3131 C3128 1.386 . S
C3132 C3127 1.490 . S
C3132 C3134 1.395 . S
C3132 C3135 1.403 . S
H3133 C3139 0.930 . S
C3134 H3120 0.930 . S
C3134 C3132 1.395 . S
C3134 C3137 1.403 . S
C3135 C3132 1.403 . S
C3135 C3136 1.524 . S
C3135 C3139 1.400 . S
C3136 H3121 0.960 . S
C3136 H3122 0.960 . S
C3136 H3123 0.960 . S
C3136 C3135 1.524 . S
C3137 C3134 1.403 . S
C3137 C3138 1.392 . S
C3137 C3141 1.495 . S
C3138 C3137 1.392 . S
C3138 C3139 1.385 . S
C3138 C3140 1.478 . S
C3139 H3133 0.930 . S
C3139 C3135 1.400 . S
C3139 C3138 1.385 . S
C3140 C3138 1.478 . S
C3140 C3142 1.381 . S
C3140 C3146 1.383 1_655 S
C3141 C3137 1.495 . S
C3141 H3147 0.959 . S
C3141 H3148 0.961 . S
C3141 H3149 0.960 . S
C3142 C3140 1.381 . S
C3142 C3143 1.394 1_655 S
C3142 H3150 0.930 . S
C3143 C3142 1.394 1_455 S
C3143 C3144 1.383 . S
C3143 H3151 0.929 . S
C3144 C3143 1.383 . S
C3144 C3145 1.377 . S
C3145 H3129 0.930 . S
C3145 C3144 1.377 . S
C3145 C3146 1.379 . S
C3146 H3130 0.931 . S
C3146 C3140 1.383 1_455 S
C3146 C3145 1.379 . S
H3147 C3141 0.959 . S
H3148 C3141 0.961 . S
H3149 C3141 0.960 . S
H3150 C3142 0.930 . S
H3151 C3143 0.929 . S
H3152 C3160 0.929 . S
H3153 C3162 0.930 . S
H3154 C3164 0.930 . S
H3155 C3167 0.929 . S
H3156 C3170 0.930 . S
H3157 C3172 0.960 . S
H3158 C3172 0.960 . S
H3159 C3172 0.960 . S
C3160 H3152 0.929 . S
C3160 C3161 1.377 . S
C3160 C3162 1.384 . S
C3161 C3160 1.377 . S
C3161 C3167 1.390 . S
C3162 H3153 0.930 . S
C3162 C3160 1.384 . S
C3162 C3163 1.372 . S
C3163 C3162 1.372 . S
C3163 C3164 1.400 . S
C3163 C3168 1.490 . S
C3164 H3154 0.930 . S
C3164 C3163 1.400 . S
C3164 C3167 1.386 . S
H3165 C3181 0.930 . S
H3166 C3182 0.931 . S
C3167 H3155 0.929 . S
C3167 C3161 1.390 . S
C3167 C3164 1.386 . S
C3168 C3163 1.490 . S
C3168 C3170 1.395 . S
C3168 C3171 1.403 . S
H3169 C3175 0.930 . S
C3170 H3156 0.930 . S
C3170 C3168 1.395 . S
C3170 C3173 1.403 . S
C3171 C3168 1.403 . S
C3171 C3172 1.524 . S
C3171 C3175 1.400 . S
C3172 H3157 0.960 . S
C3172 H3158 0.960 . S
C3172 H3159 0.960 . S
C3172 C3171 1.524 . S
C3173 C3170 1.403 . S
C3173 C3174 1.392 . S
C3173 C3177 1.495 . S
C3174 C3173 1.392 . S
C3174 C3175 1.385 . S
C3174 C3176 1.478 . S
C3175 H3169 0.930 . S
C3175 C3171 1.400 . S
C3175 C3174 1.385 . S
C3176 C3174 1.478 . S
C3176 C3178 1.381 . S
C3176 C3182 1.383 . S
C3177 C3173 1.495 . S
C3177 H3183 0.959 . S
C3177 H3184 0.961 . S
C3177 H3185 0.960 . S
C3178 C3176 1.381 . S
C3178 C3179 1.394 . S
C3178 H3186 0.930 . S
C3179 C3178 1.394 . S
C3179 C3180 1.383 . S
C3179 H3187 0.929 . S
C3180 C3179 1.383 . S
C3180 C3181 1.377 . S
C3181 H3165 0.930 . S
C3181 C3180 1.377 . S
C3181 C3182 1.379 . S
C3182 H3166 0.931 . S
C3182 C3176 1.383 . S
C3182 C3181 1.379 . S
H3183 C3177 0.959 . S
H3184 C3177 0.961 . S
H3185 C3177 0.960 . S
H3186 C3178 0.930 . S
H3187 C3179 0.929 . S
H3188 C3196 0.929 . S
H3189 C3198 0.930 . S
H3190 C3200 0.930 . S
H3191 C3203 0.929 . S
H3192 C3206 0.930 . S
H3193 C3208 0.960 . S
H3194 C3208 0.960 . S
H3195 C3208 0.960 . S
C3196 H3188 0.929 . S
C3196 C3197 1.377 . S
C3196 C3198 1.384 . S
C3197 C3196 1.377 . S
C3197 C3203 1.390 . S
C3198 H3189 0.930 . S
C3198 C3196 1.384 . S
C3198 C3199 1.372 . S
C3199 C3198 1.372 . S
C3199 C3200 1.400 . S
C3199 C3204 1.490 . S
C3200 H3190 0.930 . S
C3200 C3199 1.400 . S
C3200 C3203 1.386 . S
H3201 C3217 0.930 . S
H3202 C3218 0.931 . S
C3203 H3191 0.929 . S
C3203 C3197 1.390 . S
C3203 C3200 1.386 . S
C3204 C3199 1.490 . S
C3204 C3206 1.395 . S
C3204 C3207 1.403 . S
H3205 C3211 0.930 . S
C3206 H3192 0.930 . S
C3206 C3204 1.395 . S
C3206 C3209 1.403 . S
C3207 C3204 1.403 . S
C3207 C3208 1.524 . S
C3207 C3211 1.400 . S
C3208 H3193 0.960 . S
C3208 H3194 0.960 . S
C3208 H3195 0.960 . S
C3208 C3207 1.524 . S
C3209 C3206 1.403 . S
C3209 C3210 1.392 . S
C3209 C3213 1.495 . S
C3210 C3209 1.392 . S
C3210 C3211 1.385 . S
C3210 C3212 1.478 . S
C3211 H3205 0.930 . S
C3211 C3207 1.400 . S
C3211 C3210 1.385 . S
C3212 C3210 1.478 . S
C3212 C3214 1.381 1_655 S
C3212 C3218 1.383 . S
C3213 C3209 1.495 . S
C3213 H3219 0.959 . S
C3213 H3220 0.961 . S
C3213 H3221 0.961 1_655 S
C3214 C3212 1.381 1_455 S
C3214 C3215 1.394 . S
C3214 H3222 0.930 . S
C3215 C3214 1.394 . S
C3215 C3216 1.383 . S
C3215 H3223 0.929 . S
C3216 C3215 1.383 . S
C3216 C3217 1.377 . S
C3217 H3201 0.930 . S
C3217 C3216 1.377 . S
C3217 C3218 1.379 1_455 S
C3218 H3202 0.931 . S
C3218 C3212 1.383 . S
C3218 C3217 1.379 1_655 S
H3219 C3213 0.959 . S
H3220 C3213 0.961 . S
H3221 C3213 0.961 1_455 S
H3222 C3214 0.930 . S
H3223 C3215 0.929 . S
H3224 C3232 0.929 . S
H3225 C3234 0.930 . S
H3226 C3236 0.930 . S
H3227 C3239 0.929 . S
H3228 C3242 0.930 . S
H3229 C3244 0.960 . S
H3230 C3244 0.960 . S
H3231 C3244 0.960 . S
C3232 H3224 0.929 . S
C3232 C3233 1.377 . S
C3232 C3234 1.384 . S
C3233 C3232 1.377 . S
C3233 C3239 1.390 . S
C3234 H3225 0.930 . S
C3234 C3232 1.384 . S
C3234 C3235 1.372 . S
C3235 C3234 1.372 . S
C3235 C3236 1.400 . S
C3235 C3240 1.490 . S
C3236 H3226 0.930 . S
C3236 C3235 1.400 . S
C3236 C3239 1.386 . S
H3237 C3253 0.930 . S
H3238 C3254 0.931 . S
C3239 H3227 0.929 . S
C3239 C3233 1.390 . S
C3239 C3236 1.386 . S
C3240 C3235 1.490 . S
C3240 C3242 1.395 . S
C3240 C3243 1.403 . S
H3241 C3247 0.930 . S
C3242 H3228 0.930 . S
C3242 C3240 1.395 . S
C3242 C3245 1.403 . S
C3243 C3240 1.403 . S
C3243 C3244 1.524 . S
C3243 C3247 1.400 . S
C3244 H3229 0.960 . S
C3244 H3230 0.960 . S
C3244 H3231 0.960 . S
C3244 C3243 1.524 . S
C3245 C3242 1.403 . S
C3245 C3246 1.392 . S
C3245 C3249 1.495 . S
C3246 C3245 1.392 . S
C3246 C3247 1.385 . S
C3246 C3248 1.478 . S
C3247 H3241 0.930 . S
C3247 C3243 1.400 . S
C3247 C3246 1.385 . S
C3248 C3246 1.478 . S
C3248 C3250 1.381 . S
C3248 C3254 1.383 . S
C3249 C3245 1.495 . S
C3249 H3255 0.959 . S
C3249 H3256 0.961 . S
C3249 H3257 0.960 . S
C3250 C3248 1.381 . S
C3250 C3251 1.394 . S
C3250 H3258 0.930 . S
C3251 C3250 1.394 . S
C3251 C3252 1.383 . S
C3251 H3259 0.929 . S
C3252 C3251 1.383 . S
C3252 C3253 1.377 . S
C3253 H3237 0.930 . S
C3253 C3252 1.377 . S
C3253 C3254 1.379 . S
C3254 H3238 0.931 . S
C3254 C3248 1.383 . S
C3254 C3253 1.379 . S
H3255 C3249 0.959 . S
H3256 C3249 0.961 . S
H3257 C3249 0.960 . S
H3258 C3250 0.930 . S
H3259 C3251 0.929 . S
H3260 C3268 0.929 . S
H3261 C3270 0.930 . S
H3262 C3272 0.930 . S
H3263 C3275 0.929 . S
H3264 C3278 0.930 . S
H3265 C3280 0.960 . S
H3266 C3280 0.960 . S
H3267 C3280 0.960 . S
C3268 H3260 0.929 . S
C3268 C3269 1.377 . S
C3268 C3270 1.384 . S
C3269 C3268 1.377 . S
C3269 C3275 1.390 . S
C3270 H3261 0.930 . S
C3270 C3268 1.384 . S
C3270 C3271 1.372 . S
C3271 C3270 1.372 . S
C3271 C3272 1.400 . S
C3271 C3276 1.490 . S
C3272 H3262 0.930 . S
C3272 C3271 1.400 . S
C3272 C3275 1.386 . S
H3273 C3289 0.930 . S
H3274 C3290 0.931 . S
C3275 H3263 0.929 . S
C3275 C3269 1.390 . S
C3275 C3272 1.386 . S
C3276 C3271 1.490 . S
C3276 C3278 1.395 . S
C3276 C3279 1.403 . S
H3277 C3283 0.930 . S
C3278 H3264 0.930 . S
C3278 C3276 1.395 . S
C3278 C3281 1.403 . S
C3279 C3276 1.403 . S
C3279 C3280 1.524 . S
C3279 C3283 1.400 . S
C3280 H3265 0.960 . S
C3280 H3266 0.960 . S
C3280 H3267 0.960 . S
C3280 C3279 1.524 . S
C3281 C3278 1.403 . S
C3281 C3282 1.392 . S
C3281 C3285 1.495 . S
C3282 C3281 1.392 . S
C3282 C3283 1.385 . S
C3282 C3284 1.478 . S
C3283 H3277 0.930 . S
C3283 C3279 1.400 . S
C3283 C3282 1.385 . S
C3284 C3282 1.478 . S
C3284 C3286 1.381 . S
C3284 C3290 1.383 . S
C3285 C3281 1.495 . S
C3285 H3291 0.959 . S
C3285 H3292 0.961 . S
C3285 H3293 0.960 . S
C3286 C3284 1.381 . S
C3286 C3287 1.394 . S
C3286 H3294 0.930 . S
C3287 C3286 1.394 . S
C3287 C3288 1.383 . S
C3287 H3295 0.929 . S
C3288 C3287 1.383 . S
C3288 C3289 1.377 . S
C3289 H3273 0.930 . S
C3289 C3288 1.377 . S
C3289 C3290 1.379 . S
C3290 H3274 0.931 . S
C3290 C3284 1.383 . S
C3290 C3289 1.379 . S
H3291 C3285 0.959 . S
H3292 C3285 0.961 . S
H3293 C3285 0.960 . S
H3294 C3286 0.930 . S
H3295 C3287 0.929 . S
H3296 C3304 0.929 . S
H3297 C3306 0.930 . S
H3298 C3308 0.930 . S
H3299 C3311 0.929 . S
H3300 C3314 0.930 . S
H3301 C3316 0.960 . S
H3302 C3316 0.960 . S
H3303 C3316 0.960 . S
C3304 H3296 0.929 . S
C3304 C3305 1.377 . S
C3304 C3306 1.384 . S
C3305 C3304 1.377 . S
C3305 C3311 1.390 . S
C3306 H3297 0.930 . S
C3306 C3304 1.384 . S
C3306 C3307 1.372 . S
C3307 C3306 1.372 . S
C3307 C3308 1.400 . S
C3307 C3312 1.490 . S
C3308 H3298 0.930 . S
C3308 C3307 1.400 . S
C3308 C3311 1.386 . S
H3309 C3325 0.930 . S
H3310 C3326 0.931 . S
C3311 H3299 0.929 . S
C3311 C3305 1.390 . S
C3311 C3308 1.386 . S
C3312 C3307 1.490 . S
C3312 C3314 1.395 . S
C3312 C3315 1.403 . S
H3313 C3319 0.930 . S
C3314 H3300 0.930 . S
C3314 C3312 1.395 . S
C3314 C3317 1.403 . S
C3315 C3312 1.403 . S
C3315 C3316 1.524 . S
C3315 C3319 1.400 . S
C3316 H3301 0.960 . S
C3316 H3302 0.960 . S
C3316 H3303 0.960 . S
C3316 C3315 1.524 . S
C3317 C3314 1.403 . S
C3317 C3318 1.392 . S
C3317 C3321 1.495 . S
C3318 C3317 1.392 . S
C3318 C3319 1.385 . S
C3318 C3320 1.478 . S
C3319 H3313 0.930 . S
C3319 C3315 1.400 . S
C3319 C3318 1.385 . S
C3320 C3318 1.478 . S
C3320 C3322 1.381 . S
C3320 C3326 1.383 . S
C3321 C3317 1.495 . S
C3321 H3327 0.959 . S
C3321 H3328 0.961 . S
C3321 H3329 0.960 . S
C3322 C3320 1.381 . S
C3322 C3323 1.394 . S
C3322 H3330 0.930 . S
C3323 C3322 1.394 . S
C3323 C3324 1.383 . S
C3323 H3331 0.929 . S
C3324 C3323 1.383 . S
C3324 C3325 1.377 . S
C3325 H3309 0.930 . S
C3325 C3324 1.377 . S
C3325 C3326 1.379 . S
C3326 H3310 0.931 . S
C3326 C3320 1.383 . S
C3326 C3325 1.379 . S
H3327 C3321 0.959 . S
H3328 C3321 0.961 . S
H3329 C3321 0.960 . S
H3330 C3322 0.930 . S
H3331 C3323 0.929 . S
H3332 C3340 0.929 . S
H3333 C3342 0.930 . S
H3334 C3344 0.930 . S
H3335 C3347 0.929 . S
H3336 C3350 0.930 . S
H3337 C3352 0.960 . S
H3338 C3352 0.960 . S
H3339 C3352 0.960 . S
C3340 H3332 0.929 . S
C3340 C3341 1.377 . S
C3340 C3342 1.384 . S
C3341 C3340 1.377 . S
C3341 C3347 1.390 . S
C3342 H3333 0.930 . S
C3342 C3340 1.384 . S
C3342 C3343 1.372 . S
C3343 C3342 1.372 . S
C3343 C3344 1.400 . S
C3343 C3348 1.490 . S
C3344 H3334 0.930 . S
C3344 C3343 1.400 . S
C3344 C3347 1.386 . S
H3345 C3361 0.930 . S
H3346 C3362 0.931 . S
C3347 H3335 0.929 . S
C3347 C3341 1.390 . S
C3347 C3344 1.386 . S
C3348 C3343 1.490 . S
C3348 C3350 1.395 . S
C3348 C3351 1.403 . S
H3349 C3355 0.930 . S
C3350 H3336 0.930 . S
C3350 C3348 1.395 . S
C3350 C3353 1.403 . S
C3351 C3348 1.403 . S
C3351 C3352 1.524 . S
C3351 C3355 1.400 . S
C3352 H3337 0.960 . S
C3352 H3338 0.960 . S
C3352 H3339 0.960 . S
C3352 C3351 1.524 . S
C3353 C3350 1.403 . S
C3353 C3354 1.392 . S
C3353 C3357 1.495 . S
C3354 C3353 1.392 . S
C3354 C3355 1.385 . S
C3354 C3356 1.478 . S
C3355 H3349 0.930 . S
C3355 C3351 1.400 . S
C3355 C3354 1.385 . S
C3356 C3354 1.478 . S
C3356 C3358 1.381 . S
C3356 C3362 1.383 . S
C3357 C3353 1.495 . S
C3357 H3363 0.959 . S
C3357 H3364 0.961 . S
C3357 H3365 0.960 . S
C3358 C3356 1.381 . S
C3358 C3359 1.394 . S
C3358 H3366 0.930 . S
C3359 C3358 1.394 . S
C3359 C3360 1.383 . S
C3359 H3367 0.929 . S
C3360 C3359 1.383 . S
C3360 C3361 1.377 . S
C3361 H3345 0.930 . S
C3361 C3360 1.377 . S
C3361 C3362 1.379 . S
C3362 H3346 0.931 . S
C3362 C3356 1.383 . S
C3362 C3361 1.379 . S
H3363 C3357 0.959 . S
H3364 C3357 0.961 . S
H3365 C3357 0.960 . S
H3366 C3358 0.930 . S
H3367 C3359 0.929 . S
H3368 C3376 0.929 . S
H3369 C3378 0.930 . S
H3370 C3380 0.930 . S
H3371 C3383 0.929 . S
H3372 C3386 0.930 . S
H3373 C3388 0.960 . S
H3374 C3388 0.960 . S
H3375 C3388 0.960 . S
C3376 H3368 0.929 . S
C3376 C3377 1.377 . S
C3376 C3378 1.384 . S
C3377 C3376 1.377 . S
C3377 C3383 1.390 . S
C3378 H3369 0.930 . S
C3378 C3376 1.384 . S
C3378 C3379 1.372 . S
C3379 C3378 1.372 . S
C3379 C3380 1.400 . S
C3379 C3384 1.490 . S
C3380 H3370 0.930 . S
C3380 C3379 1.400 . S
C3380 C3383 1.386 . S
H3381 C3397 0.930 . S
H3382 C3398 0.931 . S
C3383 H3371 0.929 . S
C3383 C3377 1.390 . S
C3383 C3380 1.386 . S
C3384 C3379 1.490 . S
C3384 C3386 1.395 . S
C3384 C3387 1.403 . S
H3385 C3391 0.930 . S
C3386 H3372 0.930 . S
C3386 C3384 1.395 . S
C3386 C3389 1.403 . S
C3387 C3384 1.403 . S
C3387 C3388 1.524 . S
C3387 C3391 1.400 . S
C3388 H3373 0.960 . S
C3388 H3374 0.960 . S
C3388 H3375 0.960 . S
C3388 C3387 1.524 . S
C3389 C3386 1.403 . S
C3389 C3390 1.392 . S
C3389 C3393 1.495 . S
C3390 C3389 1.392 . S
C3390 C3391 1.385 . S
C3390 C3392 1.478 . S
C3391 H3385 0.930 . S
C3391 C3387 1.400 . S
C3391 C3390 1.385 . S
C3392 C3390 1.478 . S
C3392 C3394 1.381 . S
C3392 C3398 1.383 . S
C3393 C3389 1.495 . S
C3393 H3399 0.959 . S
C3393 H3400 0.961 . S
C3393 H3401 0.960 . S
C3394 C3392 1.381 . S
C3394 C3395 1.394 . S
C3394 H3402 0.930 . S
C3395 C3394 1.394 . S
C3395 C3396 1.383 . S
C3395 H3403 0.929 . S
C3396 C3395 1.383 . S
C3396 C3397 1.377 . S
C3397 H3381 0.930 . S
C3397 C3396 1.377 . S
C3397 C3398 1.379 . S
C3398 H3382 0.931 . S
C3398 C3392 1.383 . S
C3398 C3397 1.379 . S
H3399 C3393 0.959 . S
H3400 C3393 0.961 . S
H3401 C3393 0.960 . S
H3402 C3394 0.930 . S
H3403 C3395 0.929 . S
H3404 C3412 0.929 . S
H3405 C3414 0.933 1_455 S
H3406 C3416 0.930 1_455 S
H3407 C3419 0.929 . S
H3408 C3422 0.930 . S
H3409 C3424 0.960 . S
H3410 C3424 1.006 . S
H3411 C3424 0.960 . S
C3412 H3404 0.929 . S
C3412 C3413 1.377 . S
C3412 C3414 1.378 . S
C3413 C3412 1.377 . S
C3413 C3419 1.390 . S
C3414 H3405 0.933 1_655 S
C3414 C3412 1.378 . S
C3414 C3415 1.375 1_655 S
C3415 C3414 1.375 1_455 S
C3415 C3416 1.400 1_455 S
C3415 C3420 1.490 . S
C3416 H3406 0.930 1_655 S
C3416 C3415 1.400 1_655 S
C3416 C3419 1.386 . S
H3417 C3433 0.930 . S
H3418 C3434 0.931 . S
C3419 H3407 0.929 . S
C3419 C3413 1.390 . S
C3419 C3416 1.386 . S
C3420 C3415 1.490 . S
C3420 C3422 1.395 . S
C3420 C3423 1.403 . S
H3421 C3427 0.930 . S
C3422 H3408 0.930 . S
C3422 C3420 1.395 . S
C3422 C3425 1.403 . S
C3423 C3420 1.403 . S
C3423 C3424 1.524 . S
C3423 C3427 1.400 . S
C3424 H3409 0.960 . S
C3424 H3410 1.006 . S
C3424 H3411 0.960 . S
C3424 C3423 1.524 . S
C3425 C3422 1.403 . S
C3425 C3426 1.392 . S
C3425 C3429 1.495 . S
C3426 C3425 1.392 . S
C3426 C3427 1.385 . S
C3426 C3428 1.478 . S
C3427 H3421 0.930 . S
C3427 C3423 1.400 . S
C3427 C3426 1.385 . S
C3428 C3426 1.478 . S
C3428 C3430 1.381 . S
C3428 C3434 1.383 . S
C3429 C3425 1.495 . S
C3429 H3435 0.959 . S
C3429 H3436 0.961 . S
C3429 H3437 0.960 . S
C3430 C3428 1.381 . S
C3430 C3431 1.394 . S
C3430 H3438 0.930 . S
C3431 C3430 1.394 . S
C3431 C3432 1.383 . S
C3431 H3439 0.929 . S
C3432 C3431 1.383 . S
C3432 C3433 1.377 . S
C3433 H3417 0.930 . S
C3433 C3432 1.377 . S
C3433 C3434 1.379 . S
C3434 H3418 0.931 . S
C3434 C3428 1.383 . S
C3434 C3433 1.379 . S
H3435 C3429 0.959 . S
H3436 C3429 0.961 . S
H3437 C3429 0.960 . S
H3438 C3430 0.930 . S
H3439 C3431 0.929 . S
H3440 C3448 0.929 . S
H3441 C3450 0.930 . S
H3442 C3452 0.930 . S
H3443 C3455 0.929 . S
H3444 C3458 0.930 . S
H3445 C3460 0.960 . S
H3446 C3460 0.960 . S
H3447 C3460 0.960 . S
C3448 H3440 0.929 . S
C3448 C3449 1.377 . S
C3448 C3450 1.384 . S
C3449 C3448 1.377 . S
C3449 C3455 1.390 . S
C3450 H3441 0.930 . S
C3450 C3448 1.384 . S
C3450 C3451 1.372 . S
C3451 C3450 1.372 . S
C3451 C3452 1.400 . S
C3451 C3456 1.490 . S
C3452 H3442 0.930 . S
C3452 C3451 1.400 . S
C3452 C3455 1.386 . S
H3453 C3469 0.930 . S
H3454 C3470 0.931 . S
C3455 H3443 0.929 . S
C3455 C3449 1.390 . S
C3455 C3452 1.386 . S
C3456 C3451 1.490 . S
C3456 C3458 1.395 . S
C3456 C3459 1.403 . S
H3457 C3463 0.930 . S
C3458 H3444 0.930 . S
C3458 C3456 1.395 . S
C3458 C3461 1.403 . S
C3459 C3456 1.403 . S
C3459 C3460 1.524 . S
C3459 C3463 1.400 . S
C3460 H3445 0.960 . S
C3460 H3446 0.960 . S
C3460 H3447 0.960 . S
C3460 C3459 1.524 . S
C3461 C3458 1.403 . S
C3461 C3462 1.392 . S
C3461 C3465 1.495 . S
C3462 C3461 1.392 . S
C3462 C3463 1.385 . S
C3462 C3464 1.478 . S
C3463 H3457 0.930 . S
C3463 C3459 1.400 . S
C3463 C3462 1.385 . S
C3464 C3462 1.478 . S
C3464 C3466 1.381 . S
C3464 C3470 1.383 . S
C3465 C3461 1.495 . S
C3465 H3471 0.959 . S
C3465 H3472 0.961 . S
C3465 H3473 0.960 . S
C3466 C3464 1.381 . S
C3466 C3467 1.394 . S
C3466 H3474 0.930 . S
C3467 C3466 1.394 . S
C3467 C3468 1.383 . S
C3467 H3475 0.929 . S
C3468 C3467 1.383 . S
C3468 C3469 1.377 . S
C3469 H3453 0.930 . S
C3469 C3468 1.377 . S
C3469 C3470 1.379 . S
C3470 H3454 0.931 . S
C3470 C3464 1.383 . S
C3470 C3469 1.379 . S
H3471 C3465 0.959 . S
H3472 C3465 0.961 . S
H3473 C3465 0.960 . S
H3474 C3466 0.930 . S
H3475 C3467 0.929 . S
H3476 C3484 0.929 . S
H3477 C3486 0.930 . S
H3478 C3488 0.930 . S
H3479 C3491 0.929 . S
H3480 C3494 0.930 . S
H3481 C3496 0.960 . S
H3482 C3496 0.960 . S
H3483 C3496 0.960 . S
C3484 H3476 0.929 . S
C3484 C3485 1.377 . S
C3484 C3486 1.384 . S
C3485 C3484 1.377 . S
C3485 C3491 1.390 . S
C3486 H3477 0.930 . S
C3486 C3484 1.384 . S
C3486 C3487 1.372 . S
C3487 C3486 1.372 . S
C3487 C3488 1.400 . S
C3487 C3492 1.490 . S
C3488 H3478 0.930 . S
C3488 C3487 1.400 . S
C3488 C3491 1.386 . S
H3489 C3505 0.930 . S
H3490 C3506 0.931 . S
C3491 H3479 0.929 . S
C3491 C3485 1.390 . S
C3491 C3488 1.386 . S
C3492 C3487 1.490 . S
C3492 C3494 1.395 . S
C3492 C3495 1.403 . S
H3493 C3499 0.930 . S
C3494 H3480 0.930 . S
C3494 C3492 1.395 . S
C3494 C3497 1.403 . S
C3495 C3492 1.403 . S
C3495 C3496 1.524 . S
C3495 C3499 1.400 . S
C3496 H3481 0.960 . S
C3496 H3482 0.960 . S
C3496 H3483 0.960 . S
C3496 C3495 1.524 . S
C3497 C3494 1.403 . S
C3497 C3498 1.392 . S
C3497 C3501 1.495 . S
C3498 C3497 1.392 . S
C3498 C3499 1.385 . S
C3498 C3500 1.478 . S
C3499 H3493 0.930 . S
C3499 C3495 1.400 . S
C3499 C3498 1.385 . S
C3500 C3498 1.478 . S
C3500 C3502 1.381 . S
C3500 C3506 1.383 1_455 S
C3501 C3497 1.495 . S
C3501 H3507 0.959 . S
C3501 H3508 0.961 . S
C3501 H3509 0.960 . S
C3502 C3500 1.381 . S
C3502 C3503 1.394 1_455 S
C3502 H3510 0.930 . S
C3503 C3502 1.394 1_655 S
C3503 C3504 1.383 . S
C3503 H3511 0.929 . S
C3504 C3503 1.383 . S
C3504 C3505 1.377 . S
C3505 H3489 0.930 . S
C3505 C3504 1.377 . S
C3505 C3506 1.379 . S
C3506 H3490 0.931 . S
C3506 C3500 1.383 1_655 S
C3506 C3505 1.379 . S
H3507 C3501 0.959 . S
H3508 C3501 0.961 . S
H3509 C3501 0.960 . S
H3510 C3502 0.930 . S
H3511 C3503 0.929 . S
H3512 C3520 0.929 . S
H3513 C3522 0.930 . S
H3514 C3524 0.930 . S
H3515 C3527 0.929 . S
H3516 C3530 0.930 . S
H3517 C3532 0.960 . S
H3518 C3532 0.960 . S
H3519 C3532 0.960 . S
C3520 H3512 0.929 . S
C3520 C3521 1.377 . S
C3520 C3522 1.384 . S
C3521 C3520 1.377 . S
C3521 C3527 1.390 . S
C3522 H3513 0.930 . S
C3522 C3520 1.384 . S
C3522 C3523 1.372 . S
C3523 C3522 1.372 . S
C3523 C3524 1.400 . S
C3523 C3528 1.490 . S
C3524 H3514 0.930 . S
C3524 C3523 1.400 . S
C3524 C3527 1.386 . S
H3525 C3541 0.930 . S
H3526 C3542 0.931 . S
C3527 H3515 0.929 . S
C3527 C3521 1.390 . S
C3527 C3524 1.386 . S
C3528 C3523 1.490 . S
C3528 C3530 1.395 . S
C3528 C3531 1.403 . S
H3529 C3535 0.930 . S
C3530 H3516 0.930 . S
C3530 C3528 1.395 . S
C3530 C3533 1.403 . S
C3531 C3528 1.403 . S
C3531 C3532 1.524 . S
C3531 C3535 1.400 . S
C3532 H3517 0.960 . S
C3532 H3518 0.960 . S
C3532 H3519 0.960 . S
C3532 C3531 1.524 . S
C3533 C3530 1.403 . S
C3533 C3534 1.392 . S
C3533 C3537 1.495 . S
C3534 C3533 1.392 . S
C3534 C3535 1.385 . S
C3534 C3536 1.478 . S
C3535 H3529 0.930 . S
C3535 C3531 1.400 . S
C3535 C3534 1.385 . S
C3536 C3534 1.478 . S
C3536 C3538 1.381 . S
C3536 C3542 1.383 . S
C3537 C3533 1.495 . S
C3537 H3543 0.959 . S
C3537 H3544 0.961 . S
C3537 H3545 0.960 . S
C3538 C3536 1.381 . S
C3538 C3539 1.394 . S
C3538 H3546 0.930 . S
C3539 C3538 1.394 . S
C3539 C3540 1.383 . S
C3539 H3547 0.929 . S
C3540 C3539 1.383 . S
C3540 C3541 1.377 . S
C3541 H3525 0.930 . S
C3541 C3540 1.377 . S
C3541 C3542 1.379 . S
C3542 H3526 0.931 . S
C3542 C3536 1.383 . S
C3542 C3541 1.379 . S
H3543 C3537 0.959 . S
H3544 C3537 0.961 . S
H3545 C3537 0.960 . S
H3546 C3538 0.930 . S
H3547 C3539 0.929 . S
H3548 C3556 0.929 . S
H3549 C3558 0.930 . S
H3550 C3560 0.930 . S
H3551 C3563 0.929 . S
H3552 C3566 0.930 . S
H3553 C3568 0.960 . S
H3554 C3568 0.960 . S
H3555 C3568 0.960 . S
C3556 H3548 0.929 . S
C3556 C3557 1.377 . S
C3556 C3558 1.384 . S
C3557 C3556 1.377 . S
C3557 C3563 1.390 . S
C3558 H3549 0.930 . S
C3558 C3556 1.384 . S
C3558 C3559 1.372 . S
C3559 C3558 1.372 . S
C3559 C3560 1.400 . S
C3559 C3564 1.490 . S
C3560 H3550 0.930 . S
C3560 C3559 1.400 . S
C3560 C3563 1.386 . S
H3561 C3577 0.930 . S
H3562 C3578 0.931 . S
C3563 H3551 0.929 . S
C3563 C3557 1.390 . S
C3563 C3560 1.386 . S
C3564 C3559 1.490 . S
C3564 C3566 1.395 . S
C3564 C3567 1.403 . S
H3565 C3571 0.930 . S
C3566 H3552 0.930 . S
C3566 C3564 1.395 . S
C3566 C3569 1.403 . S
C3567 C3564 1.403 . S
C3567 C3568 1.524 . S
C3567 C3571 1.400 . S
C3568 H3553 0.960 . S
C3568 H3554 0.960 . S
C3568 H3555 0.960 . S
C3568 C3567 1.524 . S
C3569 C3566 1.403 . S
C3569 C3570 1.392 . S
C3569 C3573 1.495 . S
C3570 C3569 1.392 . S
C3570 C3571 1.385 . S
C3570 C3572 1.478 . S
C3571 H3565 0.930 . S
C3571 C3567 1.400 . S
C3571 C3570 1.385 . S
C3572 C3570 1.478 . S
C3572 C3574 1.381 . S
C3572 C3578 1.383 . S
C3573 C3569 1.495 . S
C3573 H3579 0.959 . S
C3573 H3580 0.961 . S
C3573 H3581 0.960 . S
C3574 C3572 1.381 . S
C3574 C3575 1.394 . S
C3574 H3582 0.930 . S
C3575 C3574 1.394 . S
C3575 C3576 1.383 . S
C3575 H3583 0.929 . S
C3576 C3575 1.383 . S
C3576 C3577 1.377 . S
C3577 H3561 0.930 . S
C3577 C3576 1.377 . S
C3577 C3578 1.379 . S
C3578 H3562 0.931 . S
C3578 C3572 1.383 . S
C3578 C3577 1.379 . S
H3579 C3573 0.959 . S
H3580 C3573 0.961 . S
H3581 C3573 0.960 . S
H3582 C3574 0.930 . S
H3583 C3575 0.929 . S
H3584 C3592 0.929 . S
H3585 C3594 0.930 . S
H3586 C3596 0.930 . S
H3587 C3599 0.929 . S
H3588 C3602 0.930 . S
H3589 C3604 0.960 . S
H3590 C3604 0.960 . S
H3591 C3604 0.960 . S
C3592 H3584 0.929 . S
C3592 C3593 1.377 . S
C3592 C3594 1.384 . S
C3593 C3592 1.377 . S
C3593 C3599 1.390 . S
C3594 H3585 0.930 . S
C3594 C3592 1.384 . S
C3594 C3595 1.372 . S
C3595 C3594 1.372 . S
C3595 C3596 1.400 . S
C3595 C3600 1.490 . S
C3596 H3586 0.930 . S
C3596 C3595 1.400 . S
C3596 C3599 1.386 . S
H3597 C3613 0.930 . S
H3598 C3614 0.931 . S
C3599 H3587 0.929 . S
C3599 C3593 1.390 . S
C3599 C3596 1.386 . S
C3600 C3595 1.490 . S
C3600 C3602 1.395 . S
C3600 C3603 1.403 . S
H3601 C3607 0.930 . S
C3602 H3588 0.930 . S
C3602 C3600 1.395 . S
C3602 C3605 1.403 1_545 S
C3603 C3600 1.403 . S
C3603 C3604 1.524 . S
C3603 C3607 1.400 1_545 S
C3604 H3589 0.960 . S
C3604 H3590 0.960 . S
C3604 H3591 0.960 . S
C3604 C3603 1.524 . S
C3605 C3602 1.403 1_565 S
C3605 C3606 1.392 . S
C3605 C3609 1.495 . S
C3606 C3605 1.392 . S
C3606 C3607 1.385 . S
C3606 C3608 1.478 . S
C3607 H3601 0.930 . S
C3607 C3603 1.400 1_565 S
C3607 C3606 1.385 . S
C3608 C3606 1.478 . S
C3608 C3610 1.381 . S
C3608 C3614 1.383 . S
C3609 C3605 1.495 . S
C3609 H3615 0.959 . S
C3609 H3616 0.961 . S
C3609 H3617 0.960 . S
C3610 C3608 1.381 . S
C3610 C3611 1.394 . S
C3610 H3618 0.930 . S
C3611 C3610 1.394 . S
C3611 C3612 1.383 . S
C3611 H3619 0.929 . S
C3612 C3611 1.383 . S
C3612 C3613 1.377 . S
C3613 H3597 0.930 . S
C3613 C3612 1.377 . S
C3613 C3614 1.379 . S
C3614 H3598 0.931 . S
C3614 C3608 1.383 . S
C3614 C3613 1.379 . S
H3615 C3609 0.959 . S
H3616 C3609 0.961 . S
H3617 C3609 0.960 . S
H3618 C3610 0.930 . S
H3619 C3611 0.929 . S
H3620 C3628 0.929 . S
H3621 C3630 0.930 . S
H3622 C3632 0.930 . S
H3623 C3635 0.929 . S
H3624 C3638 0.930 . S
H3625 C3640 0.960 . S
H3626 C3640 0.960 . S
H3627 C3640 0.960 . S
C3628 H3620 0.929 . S
C3628 C3629 1.377 . S
C3628 C3630 1.384 . S
C3629 C3628 1.377 . S
C3629 C3635 1.390 . S
C3630 H3621 0.930 . S
C3630 C3628 1.384 . S
C3630 C3631 1.372 . S
C3631 C3630 1.372 . S
C3631 C3632 1.400 . S
C3631 C3636 1.490 . S
C3632 H3622 0.930 . S
C3632 C3631 1.400 . S
C3632 C3635 1.386 . S
H3633 C3649 0.930 . S
H3634 C3650 0.931 . S
C3635 H3623 0.929 . S
C3635 C3629 1.390 . S
C3635 C3632 1.386 . S
C3636 C3631 1.490 . S
C3636 C3638 1.395 . S
C3636 C3639 1.403 . S
H3637 C3643 0.930 . S
C3638 H3624 0.930 . S
C3638 C3636 1.395 . S
C3638 C3641 1.403 . S
C3639 C3636 1.403 . S
C3639 C3640 1.524 . S
C3639 C3643 1.400 . S
C3640 H3625 0.960 . S
C3640 H3626 0.960 . S
C3640 H3627 0.960 . S
C3640 C3639 1.524 . S
C3641 C3638 1.403 . S
C3641 C3642 1.392 . S
C3641 C3645 1.495 . S
C3642 C3641 1.392 . S
C3642 C3643 1.385 . S
C3642 C3644 1.478 . S
C3643 H3637 0.930 . S
C3643 C3639 1.400 . S
C3643 C3642 1.385 . S
C3644 C3642 1.478 . S
C3644 C3646 1.381 . S
C3644 C3650 1.383 . S
C3645 C3641 1.495 . S
C3645 H3651 0.959 . S
C3645 H3652 0.961 . S
C3645 H3653 0.960 . S
C3646 C3644 1.381 . S
C3646 C3647 1.394 . S
C3646 H3654 0.930 . S
C3647 C3646 1.394 . S
C3647 C3648 1.383 . S
C3647 H3655 0.929 . S
C3648 C3647 1.383 . S
C3648 C3649 1.377 . S
C3649 H3633 0.930 . S
C3649 C3648 1.377 . S
C3649 C3650 1.379 . S
C3650 H3634 0.931 . S
C3650 C3644 1.383 . S
C3650 C3649 1.379 . S
H3651 C3645 0.959 . S
H3652 C3645 0.961 . S
H3653 C3645 0.960 . S
H3654 C3646 0.930 . S
H3655 C3647 0.929 . S
H3656 C3664 0.929 . S
H3657 C3666 0.930 . S
H3658 C3668 0.930 . S
H3659 C3671 0.929 . S
H3660 C3674 0.930 . S
H3661 C3676 0.960 . S
H3662 C3676 0.960 . S
H3663 C3676 0.960 . S
C3664 H3656 0.929 . S
C3664 C3665 1.377 . S
C3664 C3666 1.384 . S
C3665 C3664 1.377 . S
C3665 C3671 1.390 . S
C3666 H3657 0.930 . S
C3666 C3664 1.384 . S
C3666 C3667 1.372 . S
C3667 C3666 1.372 . S
C3667 C3668 1.400 . S
C3667 C3672 1.490 . S
C3668 H3658 0.930 . S
C3668 C3667 1.400 . S
C3668 C3671 1.386 . S
H3669 C3685 0.930 . S
H3670 C3686 0.931 . S
C3671 H3659 0.929 . S
C3671 C3665 1.390 . S
C3671 C3668 1.386 . S
C3672 C3667 1.490 . S
C3672 C3674 1.395 . S
C3672 C3675 1.403 . S
H3673 C3679 0.930 . S
C3674 H3660 0.930 . S
C3674 C3672 1.395 . S
C3674 C3677 1.403 1_565 S
C3675 C3672 1.403 . S
C3675 C3676 1.524 . S
C3675 C3679 1.400 1_565 S
C3676 H3661 0.960 . S
C3676 H3662 0.960 . S
C3676 H3663 0.960 . S
C3676 C3675 1.524 . S
C3677 C3674 1.403 1_545 S
C3677 C3678 1.392 . S
C3677 C3681 1.495 . S
C3678 C3677 1.392 . S
C3678 C3679 1.385 . S
C3678 C3680 1.478 . S
C3679 H3673 0.930 . S
C3679 C3675 1.400 1_545 S
C3679 C3678 1.385 . S
C3680 C3678 1.478 . S
C3680 C3682 1.381 . S
C3680 C3686 1.383 . S
C3681 C3677 1.495 . S
C3681 H3687 0.959 . S
C3681 H3688 0.961 . S
C3681 H3689 0.960 . S
C3682 C3680 1.381 . S
C3682 C3683 1.394 . S
C3682 H3690 0.930 . S
C3683 C3682 1.394 . S
C3683 C3684 1.383 . S
C3683 H3691 0.929 . S
C3684 C3683 1.383 . S
C3684 C3685 1.377 . S
C3685 H3669 0.930 . S
C3685 C3684 1.377 . S
C3685 C3686 1.379 . S
C3686 H3670 0.931 . S
C3686 C3680 1.383 . S
C3686 C3685 1.379 . S
H3687 C3681 0.959 . S
H3688 C3681 0.961 . S
H3689 C3681 0.960 . S
H3690 C3682 0.930 . S
H3691 C3683 0.929 . S
H3692 C3700 0.929 . S
H3693 C3702 0.930 . S
H3694 C3704 0.930 1_554 S
H3695 C3707 0.942 . S
H3696 C3710 0.930 . S
H3697 C3712 0.960 . S
H3698 C3712 0.960 . S
H3699 C3712 0.960 . S
C3700 H3692 0.929 . S
C3700 C3701 1.377 . S
C3700 C3702 1.384 . S
C3701 C3700 1.377 . S
C3701 C3707 1.390 . S
C3702 H3693 0.930 . S
C3702 C3700 1.384 . S
C3702 C3703 1.372 . S
C3703 C3702 1.372 . S
C3703 C3704 1.400 . S
C3703 C3708 1.490 . S
C3704 H3694 0.930 1_556 S
C3704 C3703 1.400 . S
C3704 C3707 1.386 . S
H3705 C3721 0.930 . S
H3706 C3722 0.931 . S
C3707 H3695 0.942 . S
C3707 C3701 1.390 . S
C3707 C3704 1.386 . S
C3708 C3703 1.490 . S
C3708 C3710 1.395 . S
C3708 C3711 1.403 1_556 S
H3709 C3715 0.930 . S
C3710 H3696 0.930 . S
C3710 C3708 1.395 . S
C3710 C3713 1.403 . S
C3711 C3708 1.403 1_554 S
C3711 C3712 1.524 . S
C3711 C3715 1.400 . S
C3712 H3697 0.960 . S
C3712 H3698 0.960 . S
C3712 H3699 0.960 . S
C3712 C3711 1.524 . S
C3713 C3710 1.403 . S
C3713 C3714 1.416 . S
C3713 C3717 1.495 . S
C3714 C3713 1.416 . S
C3714 C3715 1.364 1_556 S
C3714 C3716 1.474 1_556 S
C3715 H3709 0.930 . S
C3715 C3711 1.400 . S
C3715 C3714 1.364 1_554 S
C3716 C3714 1.474 1_554 S
C3716 C3718 1.381 1_554 S
C3716 C3722 1.383 . S
C3717 C3713 1.495 . S
C3717 H3723 0.959 . S
C3717 H3724 0.961 . S
C3717 H3725 0.960 . S
C3718 C3716 1.381 1_556 S
C3718 C3719 1.395 1_556 S
C3718 H3726 0.929 . S
C3719 C3718 1.395 1_554 S
C3719 C3720 1.383 . S
C3719 H3727 0.929 . S
C3720 C3719 1.383 . S
C3720 C3721 1.377 . S
C3721 H3705 0.930 . S
C3721 C3720 1.377 . S
C3721 C3722 1.379 . S
C3722 H3706 0.931 . S
C3722 C3716 1.383 . S
C3722 C3721 1.379 . S
H3723 C3717 0.959 . S
H3724 C3717 0.961 . S
H3725 C3717 0.960 . S
H3726 C3718 0.929 . S
H3727 C3719 0.929 . S
H3728 C3736 0.929 . S
H3729 C3738 0.930 . S
H3730 C3740 0.930 . S
H3731 C3743 0.929 . S
H3732 C3746 0.930 . S
H3733 C3748 0.960 . S
H3734 C3748 0.960 . S
H3735 C3748 0.960 . S
C3736 H3728 0.929 . S
C3736 C3737 1.377 . S
C3736 C3738 1.384 . S
C3737 C3736 1.377 . S
C3737 C3743 1.390 . S
C3738 H3729 0.930 . S
C3738 C3736 1.384 . S
C3738 C3739 1.372 . S
C3739 C3738 1.372 . S
C3739 C3740 1.400 . S
C3739 C3744 1.490 . S
C3740 H3730 0.930 . S
C3740 C3739 1.400 . S
C3740 C3743 1.386 . S
H3741 C3757 0.930 . S
H3742 C3758 0.931 . S
C3743 H3731 0.929 . S
C3743 C3737 1.390 . S
C3743 C3740 1.386 . S
C3744 C3739 1.490 . S
C3744 C3746 1.395 . S
C3744 C3747 1.403 . S
H3745 C3751 0.930 . S
C3746 H3732 0.930 . S
C3746 C3744 1.395 . S
C3746 C3749 1.403 1_545 S
C3747 C3744 1.403 . S
C3747 C3748 1.524 . S
C3747 C3751 1.400 1_545 S
C3748 H3733 0.960 . S
C3748 H3734 0.960 . S
C3748 H3735 0.960 . S
C3748 C3747 1.524 . S
C3749 C3746 1.403 1_565 S
C3749 C3750 1.392 . S
C3749 C3753 1.495 . S
C3750 C3749 1.392 . S
C3750 C3751 1.385 . S
C3750 C3752 1.478 . S
C3751 H3745 0.930 . S
C3751 C3747 1.400 1_565 S
C3751 C3750 1.385 . S
C3752 C3750 1.478 . S
C3752 C3754 1.381 . S
C3752 C3758 1.383 . S
C3753 C3749 1.495 . S
C3753 H3759 0.959 . S
C3753 H3760 0.961 . S
C3753 H3761 0.960 . S
C3754 C3752 1.381 . S
C3754 C3755 1.394 . S
C3754 H3762 0.930 . S
C3755 C3754 1.394 . S
C3755 C3756 1.383 . S
C3755 H3763 0.929 . S
C3756 C3755 1.383 . S
C3756 C3757 1.377 . S
C3757 H3741 0.930 . S
C3757 C3756 1.377 . S
C3757 C3758 1.379 . S
C3758 H3742 0.931 . S
C3758 C3752 1.383 . S
C3758 C3757 1.379 . S
H3759 C3753 0.959 . S
H3760 C3753 0.961 . S
H3761 C3753 0.960 . S
H3762 C3754 0.930 . S
H3763 C3755 0.929 . S
H3764 C3772 0.929 . S
H3765 C3774 0.930 . S
H3766 C3776 0.930 . S
H3767 C3779 0.929 . S
H3768 C3782 0.930 . S
H3769 C3784 0.960 . S
H3770 C3784 0.960 . S
H3771 C3784 0.960 . S
C3772 H3764 0.929 . S
C3772 C3773 1.377 . S
C3772 C3774 1.384 . S
C3773 C3772 1.377 . S
C3773 C3779 1.390 . S
C3774 H3765 0.930 . S
C3774 C3772 1.384 . S
C3774 C3775 1.372 . S
C3775 C3774 1.372 . S
C3775 C3776 1.400 . S
C3775 C3780 1.490 . S
C3776 H3766 0.930 . S
C3776 C3775 1.400 . S
C3776 C3779 1.386 . S
H3777 C3793 0.930 . S
H3778 C3794 0.931 . S
C3779 H3767 0.929 . S
C3779 C3773 1.390 . S
C3779 C3776 1.386 . S
C3780 C3775 1.490 . S
C3780 C3782 1.395 . S
C3780 C3783 1.403 . S
H3781 C3787 0.930 . S
C3782 H3768 0.930 . S
C3782 C3780 1.395 . S
C3782 C3785 1.403 . S
C3783 C3780 1.403 . S
C3783 C3784 1.524 . S
C3783 C3787 1.400 . S
C3784 H3769 0.960 . S
C3784 H3770 0.960 . S
C3784 H3771 0.960 . S
C3784 C3783 1.524 . S
C3785 C3782 1.403 . S
C3785 C3786 1.392 . S
C3785 C3789 1.495 . S
C3786 C3785 1.392 . S
C3786 C3787 1.385 . S
C3786 C3788 1.478 . S
C3787 H3781 0.930 . S
C3787 C3783 1.400 . S
C3787 C3786 1.385 . S
C3788 C3786 1.478 . S
C3788 C3790 1.381 . S
C3788 C3794 1.383 . S
C3789 C3785 1.495 . S
C3789 H3795 0.959 . S
C3789 H3796 0.961 . S
C3789 H3797 0.960 . S
C3790 C3788 1.381 . S
C3790 C3791 1.394 . S
C3790 H3798 0.930 . S
C3791 C3790 1.394 . S
C3791 C3792 1.383 . S
C3791 H3799 0.929 . S
C3792 C3791 1.383 . S
C3792 C3793 1.377 . S
C3793 H3777 0.930 . S
C3793 C3792 1.377 . S
C3793 C3794 1.379 . S
C3794 H3778 0.931 . S
C3794 C3788 1.383 . S
C3794 C3793 1.379 . S
H3795 C3789 0.959 . S
H3796 C3789 0.961 . S
H3797 C3789 0.960 . S
H3798 C3790 0.930 . S
H3799 C3791 0.929 . S
H3800 C3808 0.929 . S
H3801 C3810 0.930 . S
H3802 C3812 0.930 . S
H3803 C3815 0.929 . S
H3804 C3818 0.930 . S
H3805 C3820 0.960 . S
H3806 C3820 0.960 . S
H3807 C3820 0.960 . S
C3808 H3800 0.929 . S
C3808 C3809 1.377 . S
C3808 C3810 1.384 . S
C3809 C3808 1.377 . S
C3809 C3815 1.390 . S
C3810 H3801 0.930 . S
C3810 C3808 1.384 . S
C3810 C3811 1.372 . S
C3811 C3810 1.372 . S
C3811 C3812 1.400 . S
C3811 C3816 1.490 . S
C3812 H3802 0.930 . S
C3812 C3811 1.400 . S
C3812 C3815 1.386 . S
H3813 C3829 0.930 . S
H3814 C3830 0.931 . S
C3815 H3803 0.929 . S
C3815 C3809 1.390 . S
C3815 C3812 1.386 . S
C3816 C3811 1.490 . S
C3816 C3818 1.395 . S
C3816 C3819 1.403 . S
H3817 C3823 0.930 . S
C3818 H3804 0.930 . S
C3818 C3816 1.395 . S
C3818 C3821 1.403 1_545 S
C3819 C3816 1.403 . S
C3819 C3820 1.524 . S
C3819 C3823 1.400 1_545 S
C3820 H3805 0.960 . S
C3820 H3806 0.960 . S
C3820 H3807 0.960 . S
C3820 C3819 1.524 . S
C3821 C3818 1.403 1_565 S
C3821 C3822 1.392 . S
C3821 C3825 1.495 . S
C3822 C3821 1.392 . S
C3822 C3823 1.385 . S
C3822 C3824 1.478 . S
C3823 H3817 0.930 . S
C3823 C3819 1.400 1_565 S
C3823 C3822 1.385 . S
C3824 C3822 1.478 . S
C3824 C3826 1.381 . S
C3824 C3830 1.383 . S
C3825 C3821 1.495 . S
C3825 H3831 0.959 . S
C3825 H3832 0.961 . S
C3825 H3833 0.960 . S
C3826 C3824 1.381 . S
C3826 C3827 1.394 . S
C3826 H3834 0.930 . S
C3827 C3826 1.394 . S
C3827 C3828 1.383 . S
C3827 H3835 0.929 . S
C3828 C3827 1.383 . S
C3828 C3829 1.377 . S
C3829 H3813 0.930 . S
C3829 C3828 1.377 . S
C3829 C3830 1.379 . S
C3830 H3814 0.931 . S
C3830 C3824 1.383 . S
C3830 C3829 1.379 . S
H3831 C3825 0.959 . S
H3832 C3825 0.961 . S
H3833 C3825 0.960 . S
H3834 C3826 0.930 . S
H3835 C3827 0.929 . S
H3836 C3844 0.929 . S
H3837 C3846 0.930 . S
H3838 C3848 0.930 . S
H3839 C3851 0.929 . S
H3840 C3854 0.930 . S
H3841 C3856 0.960 . S
H3842 C3856 0.960 1_554 S
H3843 C3856 0.960 . S
C3844 H3836 0.929 . S
C3844 C3845 1.377 1_554 S
C3844 C3846 1.384 . S
C3845 C3844 1.377 1_556 S
C3845 C3851 1.390 . S
C3846 H3837 0.930 . S
C3846 C3844 1.384 . S
C3846 C3847 1.372 1_554 S
C3847 C3846 1.372 1_556 S
C3847 C3848 1.400 . S
C3847 C3852 1.490 . S
C3848 H3838 0.930 . S
C3848 C3847 1.400 . S
C3848 C3851 1.386 . S
H3849 C3865 0.930 . S
H3850 C3866 0.931 . S
C3851 H3839 0.929 . S
C3851 C3845 1.390 . S
C3851 C3848 1.386 . S
C3852 C3847 1.490 . S
C3852 C3854 1.395 1_556 S
C3852 C3855 1.403 . S
H3853 C3859 0.931 . S
C3854 H3840 0.930 . S
C3854 C3852 1.395 1_554 S
C3854 C3857 1.403 . S
C3855 C3852 1.403 . S
C3855 C3856 1.524 . S
C3855 C3859 1.401 . S
C3856 H3841 0.960 . S
C3856 H3842 0.960 1_556 S
C3856 H3843 0.960 . S
C3856 C3855 1.524 . S
C3857 C3854 1.403 . S
C3857 C3858 1.392 . S
C3857 C3861 1.495 . S
C3858 C3857 1.392 . S
C3858 C3859 1.384 1_554 S
C3858 C3860 1.478 . S
C3859 H3853 0.931 . S
C3859 C3855 1.401 . S
C3859 C3858 1.384 1_556 S
C3860 C3858 1.478 . S
C3860 C3862 1.381 . S
C3860 C3866 1.383 1_554 S
C3861 C3857 1.495 . S
C3861 H3867 0.959 . S
C3861 H3868 0.961 . S
C3861 H3869 0.960 . S
C3862 C3860 1.381 . S
C3862 C3863 1.394 . S
C3862 H3870 0.930 . S
C3863 C3862 1.394 . S
C3863 C3864 1.383 . S
C3863 H3871 0.929 . S
C3864 C3863 1.383 . S
C3864 C3865 1.377 1_554 S
C3865 H3849 0.930 . S
C3865 C3864 1.377 1_556 S
C3865 C3866 1.379 . S
C3866 H3850 0.931 . S
C3866 C3860 1.383 1_556 S
C3866 C3865 1.379 . S
H3867 C3861 0.959 . S
H3868 C3861 0.961 . S
H3869 C3861 0.960 . S
H3870 C3862 0.930 . S
H3871 C3863 0.929 . S
H3872 C3880 0.929 . S
H3873 C3882 0.930 . S
H3874 C3884 0.930 . S
H3875 C3887 0.929 . S
H3876 C3890 0.930 . S
H3877 C3892 0.960 . S
H3878 C3892 0.960 . S
H3879 C3892 0.960 . S
C3880 H3872 0.929 . S
C3880 C3881 1.377 . S
C3880 C3882 1.384 . S
C3881 C3880 1.377 . S
C3881 C3887 1.390 . S
C3882 H3873 0.930 . S
C3882 C3880 1.384 . S
C3882 C3883 1.372 . S
C3883 C3882 1.372 . S
C3883 C3884 1.400 . S
C3883 C3888 1.490 . S
C3884 H3874 0.930 . S
C3884 C3883 1.400 . S
C3884 C3887 1.386 . S
H3885 C3901 0.930 . S
H3886 C3902 0.931 . S
C3887 H3875 0.929 . S
C3887 C3881 1.390 . S
C3887 C3884 1.386 . S
C3888 C3883 1.490 . S
C3888 C3890 1.395 . S
C3888 C3891 1.403 . S
H3889 C3895 0.930 . S
C3890 H3876 0.930 . S
C3890 C3888 1.395 . S
C3890 C3893 1.403 . S
C3891 C3888 1.403 . S
C3891 C3892 1.524 . S
C3891 C3895 1.400 . S
C3892 H3877 0.960 . S
C3892 H3878 0.960 . S
C3892 H3879 0.960 . S
C3892 C3891 1.524 . S
C3893 C3890 1.403 . S
C3893 C3894 1.392 . S
C3893 C3897 1.495 . S
C3894 C3893 1.392 . S
C3894 C3895 1.385 . S
C3894 C3896 1.478 . S
C3895 H3889 0.930 . S
C3895 C3891 1.400 . S
C3895 C3894 1.385 . S
C3896 C3894 1.478 . S
C3896 C3898 1.381 . S
C3896 C3902 1.383 . S
C3897 C3893 1.495 . S
C3897 H3903 0.959 . S
C3897 H3904 0.961 . S
C3897 H3905 0.960 . S
C3898 C3896 1.381 . S
C3898 C3899 1.394 . S
C3898 H3906 0.930 . S
C3899 C3898 1.394 . S
C3899 C3900 1.383 . S
C3899 H3907 0.929 . S
C3900 C3899 1.383 . S
C3900 C3901 1.377 . S
C3901 H3885 0.930 . S
C3901 C3900 1.377 . S
C3901 C3902 1.379 . S
C3902 H3886 0.931 . S
C3902 C3896 1.383 . S
C3902 C3901 1.379 . S
H3903 C3897 0.959 . S
H3904 C3897 0.961 . S
H3905 C3897 0.960 . S
H3906 C3898 0.930 . S
H3907 C3899 0.929 . S
H3908 C3916 0.929 . S
H3909 C3918 0.930 . S
H3910 C3920 0.930 . S
H3911 C3923 0.929 . S
H3912 C3926 0.930 . S
H3913 C3928 0.960 . S
H3914 C3928 0.960 . S
H3915 C3928 0.960 . S
C3916 H3908 0.929 . S
C3916 C3917 1.377 . S
C3916 C3918 1.384 . S
C3917 C3916 1.377 . S
C3917 C3923 1.390 1_556 S
C3918 H3909 0.930 . S
C3918 C3916 1.384 . S
C3918 C3919 1.372 . S
C3919 C3918 1.372 . S
C3919 C3920 1.400 1_556 S
C3919 C3924 1.490 . S
C3920 H3910 0.930 . S
C3920 C3919 1.400 1_554 S
C3920 C3923 1.386 . S
H3921 C3937 0.930 . S
H3922 C3938 0.931 . S
C3923 H3911 0.929 . S
C3923 C3917 1.390 1_554 S
C3923 C3920 1.386 . S
C3924 C3919 1.490 . S
C3924 C3926 1.395 1_556 S
C3924 C3927 1.403 . S
H3925 C3931 0.930 . S
C3926 H3912 0.930 . S
C3926 C3924 1.395 1_554 S
C3926 C3929 1.403 . S
C3927 C3924 1.403 . S
C3927 C3928 1.524 . S
C3927 C3931 1.400 . S
C3928 H3913 0.960 . S
C3928 H3914 0.960 . S
C3928 H3915 0.960 . S
C3928 C3927 1.524 . S
C3929 C3926 1.403 . S
C3929 C3930 1.392 . S
C3929 C3933 1.495 . S
C3930 C3929 1.392 . S
C3930 C3931 1.385 1_554 S
C3930 C3932 1.478 . S
C3931 H3925 0.930 . S
C3931 C3927 1.400 . S
C3931 C3930 1.385 1_556 S
C3932 C3930 1.478 . S
C3932 C3934 1.381 1_554 S
C3932 C3938 1.383 . S
C3933 C3929 1.495 . S
C3933 H3939 0.959 . S
C3933 H3940 0.961 . S
C3933 H3941 0.960 . S
C3934 C3932 1.381 1_556 S
C3934 C3935 1.394 . S
C3934 H3942 0.930 . S
C3935 C3934 1.394 . S
C3935 C3936 1.383 1_556 S
C3935 H3943 0.929 . S
C3936 C3935 1.383 1_554 S
C3936 C3937 1.377 . S
C3937 H3921 0.930 . S
C3937 C3936 1.377 . S
C3937 C3938 1.379 . S
C3938 H3922 0.931 . S
C3938 C3932 1.383 . S
C3938 C3937 1.379 . S
H3939 C3933 0.959 . S
H3940 C3933 0.961 . S
H3941 C3933 0.960 . S
H3942 C3934 0.930 . S
H3943 C3935 0.929 . S
H3944 C3952 0.929 . S
H3945 C3954 0.930 . S
H3946 C3956 0.930 . S
H3947 C3959 0.929 . S
H3948 C3962 0.930 . S
H3949 C3964 0.960 . S
H3950 C3964 0.960 . S
H3951 C3964 0.960 . S
C3952 H3944 0.929 . S
C3952 C3953 1.377 . S
C3952 C3954 1.384 . S
C3953 C3952 1.377 . S
C3953 C3959 1.390 . S
C3954 H3945 0.930 . S
C3954 C3952 1.384 . S
C3954 C3955 1.372 . S
C3955 C3954 1.372 . S
C3955 C3956 1.400 . S
C3955 C3960 1.490 . S
C3956 H3946 0.930 . S
C3956 C3955 1.400 . S
C3956 C3959 1.386 . S
H3957 C3973 0.930 . S
H3958 C3974 0.931 . S
C3959 H3947 0.929 . S
C3959 C3953 1.390 . S
C3959 C3956 1.386 . S
C3960 C3955 1.490 . S
C3960 C3962 1.395 . S
C3960 C3963 1.403 . S
H3961 C3967 0.930 . S
C3962 H3948 0.930 . S
C3962 C3960 1.395 . S
C3962 C3965 1.403 . S
C3963 C3960 1.403 . S
C3963 C3964 1.524 . S
C3963 C3967 1.400 . S
C3964 H3949 0.960 . S
C3964 H3950 0.960 . S
C3964 H3951 0.960 . S
C3964 C3963 1.524 . S
C3965 C3962 1.403 . S
C3965 C3966 1.392 . S
C3965 C3969 1.495 . S
C3966 C3965 1.392 . S
C3966 C3967 1.385 . S
C3966 C3968 1.478 . S
C3967 H3961 0.930 . S
C3967 C3963 1.400 . S
C3967 C3966 1.385 . S
C3968 C3966 1.478 . S
C3968 C3970 1.381 . S
C3968 C3974 1.383 . S
C3969 C3965 1.495 . S
C3969 H3975 0.959 . S
C3969 H3976 0.961 . S
C3969 H3977 0.960 . S
C3970 C3968 1.381 . S
C3970 C3971 1.394 . S
C3970 H3978 0.930 . S
C3971 C3970 1.394 . S
C3971 C3972 1.383 . S
C3971 H3979 0.929 . S
C3972 C3971 1.383 . S
C3972 C3973 1.377 . S
C3973 H3957 0.930 . S
C3973 C3972 1.377 . S
C3973 C3974 1.379 . S
C3974 H3958 0.931 . S
C3974 C3968 1.383 . S
C3974 C3973 1.379 . S
H3975 C3969 0.959 . S
H3976 C3969 0.961 . S
H3977 C3969 0.960 . S
H3978 C3970 0.930 . S
H3979 C3971 0.929 . S
H3980 C3988 0.929 . S
H3981 C3990 0.930 . S
H3982 C3992 0.930 . S
H3983 C3995 0.929 . S
H3984 C3998 0.930 . S
H3985 C4000 0.960 . S
H3986 C4000 0.960 . S
H3987 C4000 0.960 . S
C3988 H3980 0.929 . S
C3988 C3989 1.377 . S
C3988 C3990 1.384 . S
C3989 C3988 1.377 . S
C3989 C3995 1.390 . S
C3990 H3981 0.930 . S
C3990 C3988 1.384 . S
C3990 C3991 1.372 . S
C3991 C3990 1.372 . S
C3991 C3992 1.400 . S
C3991 C3996 1.490 . S
C3992 H3982 0.930 . S
C3992 C3991 1.400 . S
C3992 C3995 1.386 . S
H3993 C4009 0.930 . S
H3994 C4010 0.931 . S
C3995 H3983 0.929 . S
C3995 C3989 1.390 . S
C3995 C3992 1.386 . S
C3996 C3991 1.490 . S
C3996 C3998 1.395 . S
C3996 C3999 1.403 . S
H3997 C4003 0.930 . S
C3998 H3984 0.930 . S
C3998 C3996 1.395 . S
C3998 C4001 1.403 . S
C3999 C3996 1.403 . S
C3999 C4000 1.524 . S
C3999 C4003 1.400 . S
C4000 H3985 0.960 . S
C4000 H3986 0.960 . S
C4000 H3987 0.960 . S
C4000 C3999 1.524 . S
C4001 C3998 1.403 . S
C4001 C4002 1.392 . S
C4001 C4005 1.495 . S
C4002 C4001 1.392 . S
C4002 C4003 1.385 . S
C4002 C4004 1.478 . S
C4003 H3997 0.930 . S
C4003 C3999 1.400 . S
C4003 C4002 1.385 . S
C4004 C4002 1.478 . S
C4004 C4006 1.381 . S
C4004 C4010 1.383 . S
C4005 C4001 1.495 . S
C4005 H4011 0.959 . S
C4005 H4012 0.961 . S
C4005 H4013 0.960 . S
C4006 C4004 1.381 . S
C4006 C4007 1.394 . S
C4006 H4014 0.930 . S
C4007 C4006 1.394 . S
C4007 C4008 1.383 . S
C4007 H4015 0.929 . S
C4008 C4007 1.383 . S
C4008 C4009 1.377 . S
C4009 H3993 0.930 . S
C4009 C4008 1.377 . S
C4009 C4010 1.379 . S
C4010 H3994 0.931 . S
C4010 C4004 1.383 . S
C4010 C4009 1.379 . S
H4011 C4005 0.959 . S
H4012 C4005 0.961 . S
H4013 C4005 0.960 . S
H4014 C4006 0.930 . S
H4015 C4007 0.929 . S
H4016 C4024 0.929 . S
H4017 C4026 0.930 . S
H4018 C4028 0.930 . S
H4019 C4031 0.929 . S
H4020 C4034 0.930 . S
H4021 C4036 0.960 . S
H4022 C4036 0.960 . S
H4023 C4036 0.960 . S
C4024 H4016 0.929 . S
C4024 C4025 1.377 . S
C4024 C4026 1.384 . S
C4025 C4024 1.377 . S
C4025 C4031 1.390 . S
C4026 H4017 0.930 . S
C4026 C4024 1.384 . S
C4026 C4027 1.372 . S
C4027 C4026 1.372 . S
C4027 C4028 1.400 . S
C4027 C4032 1.490 . S
C4028 H4018 0.930 . S
C4028 C4027 1.400 . S
C4028 C4031 1.386 . S
H4029 C4045 0.930 . S
H4030 C4046 0.931 . S
C4031 H4019 0.929 . S
C4031 C4025 1.390 . S
C4031 C4028 1.386 . S
C4032 C4027 1.490 . S
C4032 C4034 1.395 . S
C4032 C4035 1.403 . S
H4033 C4039 0.930 . S
C4034 H4020 0.930 . S
C4034 C4032 1.395 . S
C4034 C4037 1.403 . S
C4035 C4032 1.403 . S
C4035 C4036 1.524 . S
C4035 C4039 1.400 . S
C4036 H4021 0.960 . S
C4036 H4022 0.960 . S
C4036 H4023 0.960 . S
C4036 C4035 1.524 . S
C4037 C4034 1.403 . S
C4037 C4038 1.392 . S
C4037 C4041 1.495 . S
C4038 C4037 1.392 . S
C4038 C4039 1.385 . S
C4038 C4040 1.478 . S
C4039 H4033 0.930 . S
C4039 C4035 1.400 . S
C4039 C4038 1.385 . S
C4040 C4038 1.478 . S
C4040 C4042 1.381 . S
C4040 C4046 1.383 . S
C4041 C4037 1.495 . S
C4041 H4047 0.959 . S
C4041 H4048 0.961 . S
C4041 H4049 0.960 . S
C4042 C4040 1.381 . S
C4042 C4043 1.394 . S
C4042 H4050 0.930 . S
C4043 C4042 1.394 . S
C4043 C4044 1.383 . S
C4043 H4051 0.929 . S
C4044 C4043 1.383 . S
C4044 C4045 1.377 . S
C4045 H4029 0.930 . S
C4045 C4044 1.377 . S
C4045 C4046 1.379 . S
C4046 H4030 0.931 . S
C4046 C4040 1.383 . S
C4046 C4045 1.379 . S
H4047 C4041 0.959 . S
H4048 C4041 0.961 . S
H4049 C4041 0.960 . S
H4050 C4042 0.930 . S
H4051 C4043 0.929 . S
H4052 C4060 0.929 1_554 S
H4053 C4062 0.930 . S
H4054 C4064 0.930 . S
H4055 C4067 0.929 . S
H4056 C4070 0.930 . S
H4057 C4072 0.960 . S
H4058 C4072 0.960 . S
H4059 C4072 0.960 . S
C4060 H4052 0.929 1_556 S
C4060 C4061 1.377 . S
C4060 C4062 1.384 1_556 S
C4061 C4060 1.377 . S
C4061 C4067 1.390 . S
C4062 H4053 0.930 . S
C4062 C4060 1.384 1_554 S
C4062 C4063 1.372 1_554 S
C4063 C4062 1.372 1_556 S
C4063 C4064 1.400 . S
C4063 C4068 1.490 . S
C4064 H4054 0.930 . S
C4064 C4063 1.400 . S
C4064 C4067 1.386 . S
H4065 C4081 0.929 1_556 S
H4066 C4082 0.931 1_556 S
C4067 H4055 0.929 . S
C4067 C4061 1.390 . S
C4067 C4064 1.386 . S
C4068 C4063 1.490 . S
C4068 C4070 1.395 1_556 S
C4068 C4071 1.403 . S
H4069 C4075 0.930 . S
C4070 H4056 0.930 . S
C4070 C4068 1.395 1_554 S
C4070 C4073 1.403 . S
C4071 C4068 1.403 . S
C4071 C4072 1.524 . S
C4071 C4075 1.400 . S
C4072 H4057 0.960 . S
C4072 H4058 0.960 . S
C4072 H4059 0.960 . S
C4072 C4071 1.524 . S
C4073 C4070 1.403 . S
C4073 C4074 1.392 . S
C4073 C4077 1.495 . S
C4074 C4073 1.392 . S
C4074 C4075 1.385 1_554 S
C4074 C4076 1.478 . S
C4075 H4069 0.930 . S
C4075 C4071 1.400 . S
C4075 C4074 1.385 1_556 S
C4076 C4074 1.478 . S
C4076 C4078 1.381 . S
C4076 C4082 1.383 . S
C4077 C4073 1.495 . S
C4077 H4083 0.959 . S
C4077 H4084 0.961 . S
C4077 H4085 0.960 . S
C4078 C4076 1.381 . S
C4078 C4079 1.394 . S
C4078 H4086 0.930 . S
C4079 C4078 1.394 . S
C4079 C4080 1.383 . S
C4079 H4087 0.929 . S
C4080 C4079 1.383 . S
C4080 C4081 1.377 . S
C4081 H4065 0.929 1_554 S
C4081 C4080 1.377 . S
C4081 C4082 1.379 . S
C4082 H4066 0.931 1_554 S
C4082 C4076 1.383 . S
C4082 C4081 1.379 . S
H4083 C4077 0.959 . S
H4084 C4077 0.961 . S
H4085 C4077 0.960 . S
H4086 C4078 0.930 . S
H4087 C4079 0.929 . S
H4088 C4096 0.929 . S
H4089 C4098 0.930 . S
H4090 C4100 0.930 . S
H4091 C4103 0.929 . S
H4092 C4106 0.930 . S
H4093 C4108 0.960 . S
H4094 C4108 0.960 . S
H4095 C4108 0.960 . S
C4096 H4088 0.929 . S
C4096 C4097 1.377 . S
C4096 C4098 1.384 . S
C4097 C4096 1.377 . S
C4097 C4103 1.390 . S
C4098 H4089 0.930 . S
C4098 C4096 1.384 . S
C4098 C4099 1.372 . S
C4099 C4098 1.372 . S
C4099 C4100 1.400 . S
C4099 C4104 1.490 . S
C4100 H4090 0.930 . S
C4100 C4099 1.400 . S
C4100 C4103 1.386 . S
H4101 C4117 0.930 . S
H4102 C4118 0.931 . S
C4103 H4091 0.929 . S
C4103 C4097 1.390 . S
C4103 C4100 1.386 . S
C4104 C4099 1.490 . S
C4104 C4106 1.395 . S
C4104 C4107 1.403 . S
H4105 C4111 0.930 . S
C4106 H4092 0.930 . S
C4106 C4104 1.395 . S
C4106 C4109 1.403 . S
C4107 C4104 1.403 . S
C4107 C4108 1.524 . S
C4107 C4111 1.400 . S
C4108 H4093 0.960 . S
C4108 H4094 0.960 . S
C4108 H4095 0.960 . S
C4108 C4107 1.524 . S
C4109 C4106 1.403 . S
C4109 C4110 1.392 . S
C4109 C4113 1.495 . S
C4110 C4109 1.392 . S
C4110 C4111 1.385 . S
C4110 C4112 1.478 . S
C4111 H4105 0.930 . S
C4111 C4107 1.400 . S
C4111 C4110 1.385 . S
C4112 C4110 1.478 . S
C4112 C4114 1.381 . S
C4112 C4118 1.383 . S
C4113 C4109 1.495 . S
C4113 H4119 0.959 . S
C4113 H4120 0.961 . S
C4113 H4121 0.960 . S
C4114 C4112 1.381 . S
C4114 C4115 1.394 . S
C4114 H4122 0.930 . S
C4115 C4114 1.394 . S
C4115 C4116 1.383 . S
C4115 H4123 0.929 . S
C4116 C4115 1.383 . S
C4116 C4117 1.377 . S
C4117 H4101 0.930 . S
C4117 C4116 1.377 . S
C4117 C4118 1.379 . S
C4118 H4102 0.931 . S
C4118 C4112 1.383 . S
C4118 C4117 1.379 . S
H4119 C4113 0.959 . S
H4120 C4113 0.961 . S
H4121 C4113 0.960 . S
H4122 C4114 0.930 . S
H4123 C4115 0.929 . S
H4124 C4132 0.929 . S
H4125 C4134 0.930 . S
H4126 C4136 0.930 . S
H4127 C4139 0.929 . S
H4128 C4142 0.930 . S
H4129 C4144 0.960 . S
H4130 C4144 0.960 . S
H4131 C4144 0.960 . S
C4132 H4124 0.929 . S
C4132 C4133 1.377 . S
C4132 C4134 1.384 . S
C4133 C4132 1.377 . S
C4133 C4139 1.390 . S
C4134 H4125 0.930 . S
C4134 C4132 1.384 . S
C4134 C4135 1.372 . S
C4135 C4134 1.372 . S
C4135 C4136 1.400 . S
C4135 C4140 1.490 . S
C4136 H4126 0.930 . S
C4136 C4135 1.400 . S
C4136 C4139 1.386 . S
H4137 C4153 0.930 . S
H4138 C4154 0.931 . S
C4139 H4127 0.929 . S
C4139 C4133 1.390 . S
C4139 C4136 1.386 . S
C4140 C4135 1.490 . S
C4140 C4142 1.395 . S
C4140 C4143 1.403 . S
H4141 C4147 0.930 . S
C4142 H4128 0.930 . S
C4142 C4140 1.395 . S
C4142 C4145 1.403 . S
C4143 C4140 1.403 . S
C4143 C4144 1.524 . S
C4143 C4147 1.400 . S
C4144 H4129 0.960 . S
C4144 H4130 0.960 . S
C4144 H4131 0.960 . S
C4144 C4143 1.524 . S
C4145 C4142 1.403 . S
C4145 C4146 1.392 . S
C4145 C4149 1.495 . S
C4146 C4145 1.392 . S
C4146 C4147 1.385 . S
C4146 C4148 1.478 . S
C4147 H4141 0.930 . S
C4147 C4143 1.400 . S
C4147 C4146 1.385 . S
C4148 C4146 1.478 . S
C4148 C4150 1.381 . S
C4148 C4154 1.383 . S
C4149 C4145 1.495 . S
C4149 H4155 0.959 . S
C4149 H4156 0.961 . S
C4149 H4157 0.960 . S
C4150 C4148 1.381 . S
C4150 C4151 1.394 . S
C4150 H4158 0.930 . S
C4151 C4150 1.394 . S
C4151 C4152 1.383 . S
C4151 H4159 0.929 . S
C4152 C4151 1.383 . S
C4152 C4153 1.377 . S
C4153 H4137 0.930 . S
C4153 C4152 1.377 . S
C4153 C4154 1.379 . S
C4154 H4138 0.931 . S
C4154 C4148 1.383 . S
C4154 C4153 1.379 . S
H4155 C4149 0.959 . S
H4156 C4149 0.961 . S
H4157 C4149 0.960 . S
H4158 C4150 0.930 . S
H4159 C4151 0.929 . S
H4160 C4168 0.929 . S
H4161 C4170 0.930 . S
H4162 C4172 0.930 . S
H4163 C4175 0.929 . S
H4164 C4178 0.930 . S
H4165 C4180 0.960 . S
H4166 C4180 0.960 . S
H4167 C4180 0.960 . S
C4168 H4160 0.929 . S
C4168 C4169 1.377 . S
C4168 C4170 1.384 . S
C4169 C4168 1.377 . S
C4169 C4175 1.390 . S
C4170 H4161 0.930 . S
C4170 C4168 1.384 . S
C4170 C4171 1.372 . S
C4171 C4170 1.372 . S
C4171 C4172 1.400 . S
C4171 C4176 1.490 . S
C4172 H4162 0.930 . S
C4172 C4171 1.400 . S
C4172 C4175 1.386 . S
H4173 C4189 0.930 . S
H4174 C4190 0.931 . S
C4175 H4163 0.929 . S
C4175 C4169 1.390 . S
C4175 C4172 1.386 . S
C4176 C4171 1.490 . S
C4176 C4178 1.395 . S
C4176 C4179 1.403 . S
H4177 C4183 0.930 . S
C4178 H4164 0.930 . S
C4178 C4176 1.395 . S
C4178 C4181 1.403 . S
C4179 C4176 1.403 . S
C4179 C4180 1.524 . S
C4179 C4183 1.400 . S
C4180 H4165 0.960 . S
C4180 H4166 0.960 . S
C4180 H4167 0.960 . S
C4180 C4179 1.524 . S
C4181 C4178 1.403 . S
C4181 C4182 1.392 . S
C4181 C4185 1.495 . S
C4182 C4181 1.392 . S
C4182 C4183 1.385 . S
C4182 C4184 1.478 . S
C4183 H4177 0.930 . S
C4183 C4179 1.400 . S
C4183 C4182 1.385 . S
C4184 C4182 1.478 . S
C4184 C4186 1.381 . S
C4184 C4190 1.383 . S
C4185 C4181 1.495 . S
C4185 H4191 0.959 . S
C4185 H4192 0.961 . S
C4185 H4193 0.960 . S
C4186 C4184 1.381 . S
C4186 C4187 1.394 . S
C4186 H4194 0.930 . S
C4187 C4186 1.394 . S
C4187 C4188 1.383 . S
C4187 H4195 0.929 . S
C4188 C4187 1.383 . S
C4188 C4189 1.377 . S
C4189 H4173 0.930 . S
C4189 C4188 1.377 . S
C4189 C4190 1.379 . S
C4190 H4174 0.931 . S
C4190 C4184 1.383 . S
C4190 C4189 1.379 . S
H4191 C4185 0.959 . S
H4192 C4185 0.961 . S
H4193 C4185 0.960 . S
H4194 C4186 0.930 . S
H4195 C4187 0.929 . S
H4196 C4204 0.929 . S
H4197 C4206 0.930 . S
H4198 C4208 0.930 . S
H4199 C4211 0.929 . S
H4200 C4214 0.930 . S
H4201 C4216 0.960 . S
H4202 C4216 0.960 . S
H4203 C4216 0.960 . S
C4204 H4196 0.929 . S
C4204 C4205 1.377 . S
C4204 C4206 1.384 . S
C4205 C4204 1.377 . S
C4205 C4211 1.390 . S
C4206 H4197 0.930 . S
C4206 C4204 1.384 . S
C4206 C4207 1.372 . S
C4207 C4206 1.372 . S
C4207 C4208 1.400 . S
C4207 C4212 1.490 . S
C4208 H4198 0.930 . S
C4208 C4207 1.400 . S
C4208 C4211 1.386 . S
H4209 C4225 0.930 . S
H4210 C4226 0.931 . S
C4211 H4199 0.929 . S
C4211 C4205 1.390 . S
C4211 C4208 1.386 . S
C4212 C4207 1.490 . S
C4212 C4214 1.395 . S
C4212 C4215 1.403 . S
H4213 C4219 0.930 . S
C4214 H4200 0.930 . S
C4214 C4212 1.395 . S
C4214 C4217 1.403 . S
C4215 C4212 1.403 . S
C4215 C4216 1.524 . S
C4215 C4219 1.400 . S
C4216 H4201 0.960 . S
C4216 H4202 0.960 . S
C4216 H4203 0.960 . S
C4216 C4215 1.524 . S
C4217 C4214 1.403 . S
C4217 C4218 1.392 . S
C4217 C4221 1.495 . S
C4218 C4217 1.392 . S
C4218 C4219 1.385 . S
C4218 C4220 1.478 . S
C4219 H4213 0.930 . S
C4219 C4215 1.400 . S
C4219 C4218 1.385 . S
C4220 C4218 1.478 . S
C4220 C4222 1.381 . S
C4220 C4226 1.383 . S
C4221 C4217 1.495 . S
C4221 H4227 0.959 . S
C4221 H4228 0.961 . S
C4221 H4229 0.960 . S
C4222 C4220 1.381 . S
C4222 C4223 1.394 . S
C4222 H4230 0.930 . S
C4223 C4222 1.394 . S
C4223 C4224 1.383 . S
C4223 H4231 0.929 . S
C4224 C4223 1.383 . S
C4224 C4225 1.377 . S
C4225 H4209 0.930 . S
C4225 C4224 1.377 . S
C4225 C4226 1.379 . S
C4226 H4210 0.931 . S
C4226 C4220 1.383 . S
C4226 C4225 1.379 . S
H4227 C4221 0.959 . S
H4228 C4221 0.961 . S
H4229 C4221 0.960 . S
H4230 C4222 0.930 . S
H4231 C4223 0.929 . S
H4232 C4240 0.929 . S
H4233 C4242 0.930 . S
H4234 C4244 0.930 . S
H4235 C4247 0.929 . S
H4236 C4250 0.930 . S
H4237 C4252 0.960 . S
H4238 C4252 0.960 . S
H4239 C4252 0.960 . S
C4240 H4232 0.929 . S
C4240 C4241 1.377 . S
C4240 C4242 1.384 . S
C4241 C4240 1.377 . S
C4241 C4247 1.390 . S
C4242 H4233 0.930 . S
C4242 C4240 1.384 . S
C4242 C4243 1.372 . S
C4243 C4242 1.372 . S
C4243 C4244 1.400 . S
C4243 C4248 1.490 . S
C4244 H4234 0.930 . S
C4244 C4243 1.400 . S
C4244 C4247 1.386 . S
H4245 C4261 0.930 . S
H4246 C4262 0.931 . S
C4247 H4235 0.929 . S
C4247 C4241 1.390 . S
C4247 C4244 1.386 . S
C4248 C4243 1.490 . S
C4248 C4250 1.395 . S
C4248 C4251 1.403 . S
H4249 C4255 0.930 . S
C4250 H4236 0.930 . S
C4250 C4248 1.395 . S
C4250 C4253 1.403 . S
C4251 C4248 1.403 . S
C4251 C4252 1.524 . S
C4251 C4255 1.400 . S
C4252 H4237 0.960 . S
C4252 H4238 0.960 . S
C4252 H4239 0.960 . S
C4252 C4251 1.524 . S
C4253 C4250 1.403 . S
C4253 C4254 1.392 . S
C4253 C4257 1.495 . S
C4254 C4253 1.392 . S
C4254 C4255 1.385 . S
C4254 C4256 1.478 . S
C4255 H4249 0.930 . S
C4255 C4251 1.400 . S
C4255 C4254 1.385 . S
C4256 C4254 1.478 . S
C4256 C4258 1.381 . S
C4256 C4262 1.383 . S
C4257 C4253 1.495 . S
C4257 H4263 0.959 . S
C4257 H4264 0.961 . S
C4257 H4265 0.960 . S
C4258 C4256 1.381 . S
C4258 C4259 1.394 . S
C4258 H4266 0.930 . S
C4259 C4258 1.394 . S
C4259 C4260 1.383 . S
C4259 H4267 0.929 . S
C4260 C4259 1.383 . S
C4260 C4261 1.377 . S
C4261 H4245 0.930 . S
C4261 C4260 1.377 . S
C4261 C4262 1.379 . S
C4262 H4246 0.931 . S
C4262 C4256 1.383 . S
C4262 C4261 1.379 . S
H4263 C4257 0.959 . S
H4264 C4257 0.961 . S
H4265 C4257 0.960 . S
H4266 C4258 0.930 . S
H4267 C4259 0.929 . S
H4268 C4276 0.929 . S
H4269 C4278 0.930 . S
H4270 C4280 0.930 . S
H4271 C4283 0.929 . S
H4272 C4286 0.930 . S
H4273 C4288 0.960 . S
H4274 C4288 0.960 . S
H4275 C4288 0.960 . S
C4276 H4268 0.929 . S
C4276 C4277 1.377 . S
C4276 C4278 1.384 . S
C4277 C4276 1.377 . S
C4277 C4283 1.390 . S
C4278 H4269 0.930 . S
C4278 C4276 1.384 . S
C4278 C4279 1.372 . S
C4279 C4278 1.372 . S
C4279 C4280 1.400 . S
C4279 C4284 1.490 . S
C4280 H4270 0.930 . S
C4280 C4279 1.400 . S
C4280 C4283 1.386 . S
H4281 C4297 0.930 . S
H4282 C4298 0.931 . S
C4283 H4271 0.929 . S
C4283 C4277 1.390 . S
C4283 C4280 1.386 . S
C4284 C4279 1.490 . S
C4284 C4286 1.395 . S
C4284 C4287 1.403 . S
H4285 C4291 0.930 . S
C4286 H4272 0.930 . S
C4286 C4284 1.395 . S
C4286 C4289 1.403 . S
C4287 C4284 1.403 . S
C4287 C4288 1.524 . S
C4287 C4291 1.400 . S
C4288 H4273 0.960 . S
C4288 H4274 0.960 . S
C4288 H4275 0.960 . S
C4288 C4287 1.524 . S
C4289 C4286 1.403 . S
C4289 C4290 1.392 . S
C4289 C4293 1.495 . S
C4290 C4289 1.392 . S
C4290 C4291 1.385 . S
C4290 C4292 1.478 . S
C4291 H4285 0.930 . S
C4291 C4287 1.400 . S
C4291 C4290 1.385 . S
C4292 C4290 1.478 . S
C4292 C4294 1.381 . S
C4292 C4298 1.383 . S
C4293 C4289 1.495 . S
C4293 H4299 0.959 . S
C4293 H4300 0.961 . S
C4293 H4301 0.960 . S
C4294 C4292 1.381 . S
C4294 C4295 1.394 . S
C4294 H4302 0.930 . S
C4295 C4294 1.394 . S
C4295 C4296 1.383 . S
C4295 H4303 0.929 . S
C4296 C4295 1.383 . S
C4296 C4297 1.377 . S
C4297 H4281 0.930 . S
C4297 C4296 1.377 . S
C4297 C4298 1.379 . S
C4298 H4282 0.931 . S
C4298 C4292 1.383 . S
C4298 C4297 1.379 . S
H4299 C4293 0.959 . S
H4300 C4293 0.961 . S
H4301 C4293 0.960 . S
H4302 C4294 0.930 . S
H4303 C4295 0.929 . S
H4304 C4312 0.929 . S
H4305 C4314 0.930 . S
H4306 C4316 0.930 . S
H4307 C4319 0.929 . S
H4308 C4322 0.930 . S
H4309 C4324 0.960 . S
H4310 C4324 0.960 . S
H4311 C4324 0.960 . S
C4312 H4304 0.929 . S
C4312 C4313 1.377 . S
C4312 C4314 1.384 . S
C4313 C4312 1.377 . S
C4313 C4319 1.390 . S
C4314 H4305 0.930 . S
C4314 C4312 1.384 . S
C4314 C4315 1.372 . S
C4315 C4314 1.372 . S
C4315 C4316 1.400 . S
C4315 C4320 1.490 . S
C4316 H4306 0.930 . S
C4316 C4315 1.400 . S
C4316 C4319 1.386 . S
H4317 C4333 0.930 . S
H4318 C4334 0.931 . S
C4319 H4307 0.929 . S
C4319 C4313 1.390 . S
C4319 C4316 1.386 . S
C4320 C4315 1.490 . S
C4320 C4322 1.395 . S
C4320 C4323 1.403 . S
H4321 C4327 0.930 . S
C4322 H4308 0.930 . S
C4322 C4320 1.395 . S
C4322 C4325 1.403 . S
C4323 C4320 1.403 . S
C4323 C4324 1.524 . S
C4323 C4327 1.400 . S
C4324 H4309 0.960 . S
C4324 H4310 0.960 . S
C4324 H4311 0.960 . S
C4324 C4323 1.524 . S
C4325 C4322 1.403 . S
C4325 C4326 1.392 . S
C4325 C4329 1.495 . S
C4326 C4325 1.392 . S
C4326 C4327 1.385 . S
C4326 C4328 1.478 . S
C4327 H4321 0.930 . S
C4327 C4323 1.400 . S
C4327 C4326 1.385 . S
C4328 C4326 1.478 . S
C4328 C4330 1.381 . S
C4328 C4334 1.383 . S
C4329 C4325 1.495 . S
C4329 H4335 0.959 . S
C4329 H4336 0.961 . S
C4329 H4337 0.960 . S
C4330 C4328 1.381 . S
C4330 C4331 1.394 . S
C4330 H4338 0.930 . S
C4331 C4330 1.394 . S
C4331 C4332 1.383 . S
C4331 H4339 0.929 . S
C4332 C4331 1.383 . S
C4332 C4333 1.377 . S
C4333 H4317 0.930 . S
C4333 C4332 1.377 . S
C4333 C4334 1.379 . S
C4334 H4318 0.931 . S
C4334 C4328 1.383 . S
C4334 C4333 1.379 . S
H4335 C4329 0.959 . S
H4336 C4329 0.961 . S
H4337 C4329 0.960 . S
H4338 C4330 0.930 . S
H4339 C4331 0.929 . S
H4340 C4348 0.929 . S
H4341 C4350 0.930 . S
H4342 C4352 0.930 . S
H4343 C4355 0.929 . S
H4344 C4358 0.930 . S
H4345 C4360 0.960 . S
H4346 C4360 0.960 . S
H4347 C4360 0.960 . S
C4348 H4340 0.929 . S
C4348 C4349 1.377 . S
C4348 C4350 1.384 . S
C4349 C4348 1.377 . S
C4349 C4355 1.390 . S
C4350 H4341 0.930 . S
C4350 C4348 1.384 . S
C4350 C4351 1.372 . S
C4351 C4350 1.372 . S
C4351 C4352 1.400 . S
C4351 C4356 1.490 . S
C4352 H4342 0.930 . S
C4352 C4351 1.400 . S
C4352 C4355 1.386 . S
H4353 C4369 0.930 . S
H4354 C4370 0.931 . S
C4355 H4343 0.929 . S
C4355 C4349 1.390 . S
C4355 C4352 1.386 . S
C4356 C4351 1.490 . S
C4356 C4358 1.395 . S
C4356 C4359 1.403 . S
H4357 C4363 0.930 . S
C4358 H4344 0.930 . S
C4358 C4356 1.395 . S
C4358 C4361 1.403 . S
C4359 C4356 1.403 . S
C4359 C4360 1.524 . S
C4359 C4363 1.400 . S
C4360 H4345 0.960 . S
C4360 H4346 0.960 . S
C4360 H4347 0.960 . S
C4360 C4359 1.524 . S
C4361 C4358 1.403 . S
C4361 C4362 1.392 . S
C4361 C4365 1.495 . S
C4362 C4361 1.392 . S
C4362 C4363 1.385 . S
C4362 C4364 1.478 . S
C4363 H4357 0.930 . S
C4363 C4359 1.400 . S
C4363 C4362 1.385 . S
C4364 C4362 1.478 . S
C4364 C4366 1.381 . S
C4364 C4370 1.383 . S
C4365 C4361 1.495 . S
C4365 H4371 0.959 . S
C4365 H4372 0.961 . S
C4365 H4373 0.960 . S
C4366 C4364 1.381 . S
C4366 C4367 1.394 . S
C4366 H4374 0.930 . S
C4367 C4366 1.394 . S
C4367 C4368 1.383 . S
C4367 H4375 0.929 . S
C4368 C4367 1.383 . S
C4368 C4369 1.377 . S
C4369 H4353 0.930 . S
C4369 C4368 1.377 . S
C4369 C4370 1.379 . S
C4370 H4354 0.931 . S
C4370 C4364 1.383 . S
C4370 C4369 1.379 . S
H4371 C4365 0.959 . S
H4372 C4365 0.961 . S
H4373 C4365 0.960 . S
H4374 C4366 0.930 . S
H4375 C4367 0.929 . S
H4376 C4384 0.929 . S
H4377 C4386 0.930 . S
H4378 C4388 0.930 . S
H4379 C4391 0.929 . S
H4380 C4394 0.930 . S
H4381 C4396 0.960 . S
H4382 C4396 0.960 . S
H4383 C4396 0.960 . S
C4384 H4376 0.929 . S
C4384 C4385 1.377 . S
C4384 C4386 1.384 . S
C4385 C4384 1.377 . S
C4385 C4391 1.390 . S
C4386 H4377 0.930 . S
C4386 C4384 1.384 . S
C4386 C4387 1.372 . S
C4387 C4386 1.372 . S
C4387 C4388 1.400 . S
C4387 C4392 1.490 . S
C4388 H4378 0.930 . S
C4388 C4387 1.400 . S
C4388 C4391 1.386 . S
H4389 C4405 0.930 . S
H4390 C4406 0.931 . S
C4391 H4379 0.929 . S
C4391 C4385 1.390 . S
C4391 C4388 1.386 . S
C4392 C4387 1.490 . S
C4392 C4394 1.395 . S
C4392 C4395 1.403 . S
H4393 C4399 0.930 . S
C4394 H4380 0.930 . S
C4394 C4392 1.395 . S
C4394 C4397 1.403 . S
C4395 C4392 1.403 . S
C4395 C4396 1.524 . S
C4395 C4399 1.400 . S
C4396 H4381 0.960 . S
C4396 H4382 0.960 . S
C4396 H4383 0.960 . S
C4396 C4395 1.524 . S
C4397 C4394 1.403 . S
C4397 C4398 1.392 . S
C4397 C4401 1.495 . S
C4398 C4397 1.392 . S
C4398 C4399 1.385 . S
C4398 C4400 1.478 . S
C4399 H4393 0.930 . S
C4399 C4395 1.400 . S
C4399 C4398 1.385 . S
C4400 C4398 1.478 . S
C4400 C4402 1.381 . S
C4400 C4406 1.383 . S
C4401 C4397 1.495 . S
C4401 H4407 0.959 . S
C4401 H4408 0.961 . S
C4401 H4409 0.960 . S
C4402 C4400 1.381 . S
C4402 C4403 1.394 . S
C4402 H4410 0.930 . S
C4403 C4402 1.394 . S
C4403 C4404 1.383 . S
C4403 H4411 0.929 . S
C4404 C4403 1.383 . S
C4404 C4405 1.377 . S
C4405 H4389 0.930 . S
C4405 C4404 1.377 . S
C4405 C4406 1.379 . S
C4406 H4390 0.931 . S
C4406 C4400 1.383 . S
C4406 C4405 1.379 . S
H4407 C4401 0.959 . S
H4408 C4401 0.961 . S
H4409 C4401 0.960 . S
H4410 C4402 0.930 . S
H4411 C4403 0.929 . S
H4412 C4420 0.929 . S
H4413 C4422 0.930 . S
H4414 C4424 0.930 . S
H4415 C4427 0.929 . S
H4416 C4430 0.930 . S
H4417 C4432 0.960 . S
H4418 C4432 0.960 . S
H4419 C4432 0.960 . S
C4420 H4412 0.929 . S
C4420 C4421 1.377 . S
C4420 C4422 1.384 . S
C4421 C4420 1.377 . S
C4421 C4427 1.390 . S
C4422 H4413 0.930 . S
C4422 C4420 1.384 . S
C4422 C4423 1.372 . S
C4423 C4422 1.372 . S
C4423 C4424 1.400 . S
C4423 C4428 1.490 . S
C4424 H4414 0.930 . S
C4424 C4423 1.400 . S
C4424 C4427 1.386 . S
H4425 C4441 0.930 . S
H4426 C4442 0.931 . S
C4427 H4415 0.929 . S
C4427 C4421 1.390 . S
C4427 C4424 1.386 . S
C4428 C4423 1.490 . S
C4428 C4430 1.395 . S
C4428 C4431 1.403 . S
H4429 C4435 0.930 . S
C4430 H4416 0.930 . S
C4430 C4428 1.395 . S
C4430 C4433 1.403 . S
C4431 C4428 1.403 . S
C4431 C4432 1.524 . S
C4431 C4435 1.400 . S
C4432 H4417 0.960 . S
C4432 H4418 0.960 . S
C4432 H4419 0.960 . S
C4432 C4431 1.524 . S
C4433 C4430 1.403 . S
C4433 C4434 1.392 . S
C4433 C4437 1.495 . S
C4434 C4433 1.392 . S
C4434 C4435 1.385 . S
C4434 C4436 1.478 . S
C4435 H4429 0.930 . S
C4435 C4431 1.400 . S
C4435 C4434 1.385 . S
C4436 C4434 1.478 . S
C4436 C4438 1.381 . S
C4436 C4442 1.383 . S
C4437 C4433 1.495 . S
C4437 H4443 0.959 . S
C4437 H4444 0.961 . S
C4437 H4445 0.960 . S
C4438 C4436 1.381 . S
C4438 C4439 1.394 . S
C4438 H4446 0.930 . S
C4439 C4438 1.394 . S
C4439 C4440 1.383 . S
C4439 H4447 0.929 . S
C4440 C4439 1.383 . S
C4440 C4441 1.377 . S
C4441 H4425 0.930 . S
C4441 C4440 1.377 . S
C4441 C4442 1.379 . S
C4442 H4426 0.931 . S
C4442 C4436 1.383 . S
C4442 C4441 1.379 . S
H4443 C4437 0.959 . S
H4444 C4437 0.961 . S
H4445 C4437 0.960 . S
H4446 C4438 0.930 . S
H4447 C4439 0.929 . S
H4448 C4456 0.929 . S
H4449 C4458 0.930 . S
H4450 C4460 0.930 . S
H4451 C4463 0.929 . S
H4452 C4466 0.930 . S
H4453 C4468 0.960 . S
H4454 C4468 0.960 . S
H4455 C4468 0.960 . S
C4456 H4448 0.929 . S
C4456 C4457 1.377 . S
C4456 C4458 1.384 . S
C4457 C4456 1.377 . S
C4457 C4463 1.390 . S
C4458 H4449 0.930 . S
C4458 C4456 1.384 . S
C4458 C4459 1.372 . S
C4459 C4458 1.372 . S
C4459 C4460 1.400 . S
C4459 C4464 1.490 . S
C4460 H4450 0.930 . S
C4460 C4459 1.400 . S
C4460 C4463 1.386 . S
H4461 C4477 0.930 . S
H4462 C4478 0.931 . S
C4463 H4451 0.929 . S
C4463 C4457 1.390 . S
C4463 C4460 1.386 . S
C4464 C4459 1.490 . S
C4464 C4466 1.395 . S
C4464 C4467 1.403 . S
H4465 C4471 0.930 . S
C4466 H4452 0.930 . S
C4466 C4464 1.395 . S
C4466 C4469 1.403 . S
C4467 C4464 1.403 . S
C4467 C4468 1.524 . S
C4467 C4471 1.400 . S
C4468 H4453 0.960 . S
C4468 H4454 0.960 . S
C4468 H4455 0.960 . S
C4468 C4467 1.524 . S
C4469 C4466 1.403 . S
C4469 C4470 1.392 . S
C4469 C4473 1.495 . S
C4470 C4469 1.392 . S
C4470 C4471 1.385 . S
C4470 C4472 1.478 . S
C4471 H4465 0.930 . S
C4471 C4467 1.400 . S
C4471 C4470 1.385 . S
C4472 C4470 1.478 . S
C4472 C4474 1.381 . S
C4472 C4478 1.383 . S
C4473 C4469 1.495 . S
C4473 H4479 0.959 . S
C4473 H4480 0.961 . S
C4473 H4481 0.960 . S
C4474 C4472 1.381 . S
C4474 C4475 1.394 . S
C4474 H4482 0.930 . S
C4475 C4474 1.394 . S
C4475 C4476 1.383 . S
C4475 H4483 0.929 . S
C4476 C4475 1.383 . S
C4476 C4477 1.377 . S
C4477 H4461 0.930 . S
C4477 C4476 1.377 . S
C4477 C4478 1.379 . S
C4478 H4462 0.931 . S
C4478 C4472 1.383 . S
C4478 C4477 1.379 . S
H4479 C4473 0.959 . S
H4480 C4473 0.961 . S
H4481 C4473 0.960 . S
H4482 C4474 0.930 . S
H4483 C4475 0.929 . S
H4484 C4492 0.929 . S
H4485 C4494 0.930 . S
H4486 C4496 0.930 . S
H4487 C4499 0.929 . S
H4488 C4502 0.930 . S
H4489 C4504 0.960 . S
H4490 C4504 0.960 . S
H4491 C4504 0.960 . S
C4492 H4484 0.929 . S
C4492 C4493 1.377 . S
C4492 C4494 1.384 . S
C4493 C4492 1.377 . S
C4493 C4499 1.390 . S
C4494 H4485 0.930 . S
C4494 C4492 1.384 . S
C4494 C4495 1.372 . S
C4495 C4494 1.372 . S
C4495 C4496 1.400 . S
C4495 C4500 1.490 . S
C4496 H4486 0.930 . S
C4496 C4495 1.400 . S
C4496 C4499 1.386 . S
H4497 C4513 0.930 . S
H4498 C4514 0.931 . S
C4499 H4487 0.929 . S
C4499 C4493 1.390 . S
C4499 C4496 1.386 . S
C4500 C4495 1.490 . S
C4500 C4502 1.395 . S
C4500 C4503 1.403 . S
H4501 C4507 0.930 . S
C4502 H4488 0.930 . S
C4502 C4500 1.395 . S
C4502 C4505 1.403 . S
C4503 C4500 1.403 . S
C4503 C4504 1.524 . S
C4503 C4507 1.400 . S
C4504 H4489 0.960 . S
C4504 H4490 0.960 . S
C4504 H4491 0.960 . S
C4504 C4503 1.524 . S
C4505 C4502 1.403 . S
C4505 C4506 1.392 . S
C4505 C4509 1.495 . S
C4506 C4505 1.392 . S
C4506 C4507 1.385 . S
C4506 C4508 1.478 . S
C4507 H4501 0.930 . S
C4507 C4503 1.400 . S
C4507 C4506 1.385 . S
C4508 C4506 1.478 . S
C4508 C4510 1.381 . S
C4508 C4514 1.383 . S
C4509 C4505 1.495 . S
C4509 H4515 0.959 . S
C4509 H4516 0.961 . S
C4509 H4517 0.960 . S
C4510 C4508 1.381 . S
C4510 C4511 1.394 . S
C4510 H4518 0.930 . S
C4511 C4510 1.394 . S
C4511 C4512 1.383 . S
C4511 H4519 0.929 . S
C4512 C4511 1.383 . S
C4512 C4513 1.377 . S
C4513 H4497 0.930 . S
C4513 C4512 1.377 . S
C4513 C4514 1.379 . S
C4514 H4498 0.931 . S
C4514 C4508 1.383 . S
C4514 C4513 1.379 . S
H4515 C4509 0.959 . S
H4516 C4509 0.961 . S
H4517 C4509 0.960 . S
H4518 C4510 0.930 . S
H4519 C4511 0.929 . S
H4520 C4528 0.929 . S
H4521 C4530 0.930 . S
H4522 C4532 0.930 . S
H4523 C4535 0.929 . S
H4524 C4538 0.930 . S
H4525 C4540 0.960 . S
H4526 C4540 0.960 . S
H4527 C4540 0.960 . S
C4528 H4520 0.929 . S
C4528 C4529 1.377 . S
C4528 C4530 1.384 . S
C4529 C4528 1.377 . S
C4529 C4535 1.390 . S
C4530 H4521 0.930 . S
C4530 C4528 1.384 . S
C4530 C4531 1.372 . S
C4531 C4530 1.372 . S
C4531 C4532 1.400 . S
C4531 C4536 1.490 . S
C4532 H4522 0.930 . S
C4532 C4531 1.400 . S
C4532 C4535 1.386 . S
H4533 C4549 0.930 . S
H4534 C4550 0.931 . S
C4535 H4523 0.929 . S
C4535 C4529 1.390 . S
C4535 C4532 1.386 . S
C4536 C4531 1.490 . S
C4536 C4538 1.395 . S
C4536 C4539 1.403 . S
H4537 C4543 0.930 . S
C4538 H4524 0.930 . S
C4538 C4536 1.395 . S
C4538 C4541 1.403 . S
C4539 C4536 1.403 . S
C4539 C4540 1.524 . S
C4539 C4543 1.400 . S
C4540 H4525 0.960 . S
C4540 H4526 0.960 . S
C4540 H4527 0.960 . S
C4540 C4539 1.524 . S
C4541 C4538 1.403 . S
C4541 C4542 1.392 . S
C4541 C4545 1.495 . S
C4542 C4541 1.392 . S
C4542 C4543 1.385 . S
C4542 C4544 1.478 . S
C4543 H4537 0.930 . S
C4543 C4539 1.400 . S
C4543 C4542 1.385 . S
C4544 C4542 1.478 . S
C4544 C4546 1.381 . S
C4544 C4550 1.383 . S
C4545 C4541 1.495 . S
C4545 H4551 0.959 . S
C4545 H4552 0.961 . S
C4545 H4553 0.960 . S
C4546 C4544 1.381 . S
C4546 C4547 1.394 . S
C4546 H4554 0.930 . S
C4547 C4546 1.394 . S
C4547 C4548 1.383 . S
C4547 H4555 0.929 . S
C4548 C4547 1.383 . S
C4548 C4549 1.377 . S
C4549 H4533 0.930 . S
C4549 C4548 1.377 . S
C4549 C4550 1.379 . S
C4550 H4534 0.931 . S
C4550 C4544 1.383 . S
C4550 C4549 1.379 . S
H4551 C4545 0.959 . S
H4552 C4545 0.961 . S
H4553 C4545 0.960 . S
H4554 C4546 0.930 . S
H4555 C4547 0.929 . S
H4556 C4564 0.929 . S
H4557 C4566 0.930 . S
H4558 C4568 0.930 . S
H4559 C4571 0.929 . S
H4560 C4574 0.930 . S
H4561 C4576 0.960 . S
H4562 C4576 0.960 . S
H4563 C4576 0.960 . S
C4564 H4556 0.929 . S
C4564 C4565 1.377 . S
C4564 C4566 1.384 . S
C4565 C4564 1.377 . S
C4565 C4571 1.390 . S
C4566 H4557 0.930 . S
C4566 C4564 1.384 . S
C4566 C4567 1.372 . S
C4567 C4566 1.372 . S
C4567 C4568 1.400 . S
C4567 C4572 1.490 . S
C4568 H4558 0.930 . S
C4568 C4567 1.400 . S
C4568 C4571 1.386 . S
H4569 C4585 0.930 . S
H4570 C4586 0.931 . S
C4571 H4559 0.929 . S
C4571 C4565 1.390 . S
C4571 C4568 1.386 . S
C4572 C4567 1.490 . S
C4572 C4574 1.395 . S
C4572 C4575 1.403 . S
H4573 C4579 0.930 . S
C4574 H4560 0.930 . S
C4574 C4572 1.395 . S
C4574 C4577 1.403 . S
C4575 C4572 1.403 . S
C4575 C4576 1.524 . S
C4575 C4579 1.400 . S
C4576 H4561 0.960 . S
C4576 H4562 0.960 . S
C4576 H4563 0.960 . S
C4576 C4575 1.524 . S
C4577 C4574 1.403 . S
C4577 C4578 1.392 . S
C4577 C4581 1.495 . S
C4578 C4577 1.392 . S
C4578 C4579 1.385 . S
C4578 C4580 1.478 . S
C4579 H4573 0.930 . S
C4579 C4575 1.400 . S
C4579 C4578 1.385 . S
C4580 C4578 1.478 . S
C4580 C4582 1.381 . S
C4580 C4586 1.383 . S
C4581 C4577 1.495 . S
C4581 H4587 0.959 . S
C4581 H4588 0.961 . S
C4581 H4589 0.960 . S
C4582 C4580 1.381 . S
C4582 C4583 1.394 . S
C4582 H4590 0.930 . S
C4583 C4582 1.394 . S
C4583 C4584 1.383 . S
C4583 H4591 0.929 . S
C4584 C4583 1.383 . S
C4584 C4585 1.377 . S
C4585 H4569 0.930 . S
C4585 C4584 1.377 . S
C4585 C4586 1.379 . S
C4586 H4570 0.931 . S
C4586 C4580 1.383 . S
C4586 C4585 1.379 . S
H4587 C4581 0.959 . S
H4588 C4581 0.961 . S
H4589 C4581 0.960 . S
H4590 C4582 0.930 . S
H4591 C4583 0.929 . S
H4592 C4600 0.929 . S
H4593 C4602 0.930 . S
H4594 C4604 0.930 . S
H4595 C4607 0.929 . S
H4596 C4610 0.930 . S
H4597 C4612 0.960 . S
H4598 C4612 0.960 . S
H4599 C4612 0.960 . S
C4600 H4592 0.929 . S
C4600 C4601 1.377 . S
C4600 C4602 1.384 . S
C4601 C4600 1.377 . S
C4601 C4607 1.390 . S
C4602 H4593 0.930 . S
C4602 C4600 1.384 . S
C4602 C4603 1.372 . S
C4603 C4602 1.372 . S
C4603 C4604 1.400 . S
C4603 C4608 1.490 . S
C4604 H4594 0.930 . S
C4604 C4603 1.400 . S
C4604 C4607 1.386 . S
H4605 C4621 0.930 . S
H4606 C4622 0.931 . S
C4607 H4595 0.929 . S
C4607 C4601 1.390 . S
C4607 C4604 1.386 . S
C4608 C4603 1.490 . S
C4608 C4610 1.395 . S
C4608 C4611 1.403 . S
H4609 C4615 0.930 . S
C4610 H4596 0.930 . S
C4610 C4608 1.395 . S
C4610 C4613 1.403 . S
C4611 C4608 1.403 . S
C4611 C4612 1.524 . S
C4611 C4615 1.400 . S
C4612 H4597 0.960 . S
C4612 H4598 0.960 . S
C4612 H4599 0.960 . S
C4612 C4611 1.524 . S
C4613 C4610 1.403 . S
C4613 C4614 1.392 . S
C4613 C4617 1.495 . S
C4614 C4613 1.392 . S
C4614 C4615 1.385 . S
C4614 C4616 1.478 . S
C4615 H4609 0.930 . S
C4615 C4611 1.400 . S
C4615 C4614 1.385 . S
C4616 C4614 1.478 . S
C4616 C4618 1.381 . S
C4616 C4622 1.383 . S
C4617 C4613 1.495 . S
C4617 H4623 0.959 . S
C4617 H4624 0.961 . S
C4617 H4625 0.960 . S
C4618 C4616 1.381 . S
C4618 C4619 1.394 . S
C4618 H4626 0.930 . S
C4619 C4618 1.394 . S
C4619 C4620 1.383 . S
C4619 H4627 0.929 . S
C4620 C4619 1.383 . S
C4620 C4621 1.377 . S
C4621 H4605 0.930 . S
C4621 C4620 1.377 . S
C4621 C4622 1.379 . S
C4622 H4606 0.931 . S
C4622 C4616 1.383 . S
C4622 C4621 1.379 . S
H4623 C4617 0.959 . S
H4624 C4617 0.961 . S
H4625 C4617 0.960 . S
H4626 C4618 0.930 . S
H4627 C4619 0.929 . S
H4628 C4636 0.929 . S
H4629 C4638 0.930 . S
H4630 C4640 0.930 . S
H4631 C4643 0.929 . S
H4632 C4646 0.930 . S
H4633 C4648 0.960 . S
H4634 C4648 0.960 . S
H4635 C4648 0.960 . S
C4636 H4628 0.929 . S
C4636 C4637 1.377 . S
C4636 C4638 1.384 . S
C4637 C4636 1.377 . S
C4637 C4643 1.390 . S
C4638 H4629 0.930 . S
C4638 C4636 1.384 . S
C4638 C4639 1.372 . S
C4639 C4638 1.372 . S
C4639 C4640 1.400 . S
C4639 C4644 1.490 . S
C4640 H4630 0.930 . S
C4640 C4639 1.400 . S
C4640 C4643 1.386 . S
H4641 C4657 0.930 . S
H4642 C4658 0.931 . S
C4643 H4631 0.929 . S
C4643 C4637 1.390 . S
C4643 C4640 1.386 . S
C4644 C4639 1.490 . S
C4644 C4646 1.395 . S
C4644 C4647 1.403 . S
H4645 C4651 0.930 . S
C4646 H4632 0.930 . S
C4646 C4644 1.395 . S
C4646 C4649 1.403 . S
C4647 C4644 1.403 . S
C4647 C4648 1.524 . S
C4647 C4651 1.400 . S
C4648 H4633 0.960 . S
C4648 H4634 0.960 . S
C4648 H4635 0.960 . S
C4648 C4647 1.524 . S
C4649 C4646 1.403 . S
C4649 C4650 1.392 . S
C4649 C4653 1.495 . S
C4650 C4649 1.392 . S
C4650 C4651 1.385 . S
C4650 C4652 1.478 . S
C4651 H4645 0.930 . S
C4651 C4647 1.400 . S
C4651 C4650 1.385 . S
C4652 C4650 1.478 . S
C4652 C4654 1.381 . S
C4652 C4658 1.383 . S
C4653 C4649 1.495 . S
C4653 H4659 0.959 . S
C4653 H4660 0.961 . S
C4653 H4661 0.960 . S
C4654 C4652 1.381 . S
C4654 C4655 1.394 . S
C4654 H4662 0.930 . S
C4655 C4654 1.394 . S
C4655 C4656 1.383 . S
C4655 H4663 0.929 . S
C4656 C4655 1.383 . S
C4656 C4657 1.377 . S
C4657 H4641 0.930 . S
C4657 C4656 1.377 . S
C4657 C4658 1.379 . S
C4658 H4642 0.931 . S
C4658 C4652 1.383 . S
C4658 C4657 1.379 . S
H4659 C4653 0.959 . S
H4660 C4653 0.961 . S
H4661 C4653 0.960 . S
H4662 C4654 0.930 . S
H4663 C4655 0.929 . S
H4664 C4672 0.929 . S
H4665 C4674 0.930 . S
H4666 C4676 0.930 . S
H4667 C4679 0.929 . S
H4668 C4682 0.930 . S
H4669 C4684 0.960 . S
H4670 C4684 0.960 . S
H4671 C4684 0.960 . S
C4672 H4664 0.929 . S
C4672 C4673 1.377 . S
C4672 C4674 1.384 . S
C4673 C4672 1.377 . S
C4673 C4679 1.390 . S
C4674 H4665 0.930 . S
C4674 C4672 1.384 . S
C4674 C4675 1.372 . S
C4675 C4674 1.372 . S
C4675 C4676 1.400 . S
C4675 C4680 1.490 . S
C4676 H4666 0.930 . S
C4676 C4675 1.400 . S
C4676 C4679 1.386 . S
H4677 C4693 0.930 . S
H4678 C4694 0.931 . S
C4679 H4667 0.929 . S
C4679 C4673 1.390 . S
C4679 C4676 1.386 . S
C4680 C4675 1.490 . S
C4680 C4682 1.395 . S
C4680 C4683 1.403 . S
H4681 C4687 0.930 . S
C4682 H4668 0.930 . S
C4682 C4680 1.395 . S
C4682 C4685 1.403 . S
C4683 C4680 1.403 . S
C4683 C4684 1.524 . S
C4683 C4687 1.400 . S
C4684 H4669 0.960 . S
C4684 H4670 0.960 . S
C4684 H4671 0.960 . S
C4684 C4683 1.524 . S
C4685 C4682 1.403 . S
C4685 C4686 1.392 . S
C4685 C4689 1.495 . S
C4686 C4685 1.392 . S
C4686 C4687 1.385 . S
C4686 C4688 1.478 . S
C4687 H4681 0.930 . S
C4687 C4683 1.400 . S
C4687 C4686 1.385 . S
C4688 C4686 1.478 . S
C4688 C4690 1.381 . S
C4688 C4694 1.383 . S
C4689 C4685 1.495 . S
C4689 H4695 0.959 . S
C4689 H4696 0.961 . S
C4689 H4697 0.960 . S
C4690 C4688 1.381 . S
C4690 C4691 1.394 . S
C4690 H4698 0.930 . S
C4691 C4690 1.394 . S
C4691 C4692 1.383 . S
C4691 H4699 0.929 . S
C4692 C4691 1.383 . S
C4692 C4693 1.377 . S
C4693 H4677 0.930 . S
C4693 C4692 1.377 . S
C4693 C4694 1.379 . S
C4694 H4678 0.931 . S
C4694 C4688 1.383 . S
C4694 C4693 1.379 . S
H4695 C4689 0.959 . S
H4696 C4689 0.961 . S
H4697 C4689 0.960 . S
H4698 C4690 0.930 . S
H4699 C4691 0.929 . S
H4700 C4708 0.929 . S
H4701 C4710 0.930 . S
H4702 C4712 0.930 . S
H4703 C4715 0.929 . S
H4704 C4718 0.930 . S
H4705 C4720 0.960 . S
H4706 C4720 0.960 . S
H4707 C4720 0.960 . S
C4708 H4700 0.929 . S
C4708 C4709 1.377 . S
C4708 C4710 1.384 . S
C4709 C4708 1.377 . S
C4709 C4715 1.390 . S
C4710 H4701 0.930 . S
C4710 C4708 1.384 . S
C4710 C4711 1.372 . S
C4711 C4710 1.372 . S
C4711 C4712 1.400 . S
C4711 C4716 1.490 . S
C4712 H4702 0.930 . S
C4712 C4711 1.400 . S
C4712 C4715 1.386 . S
H4713 C4729 0.930 . S
H4714 C4730 0.931 . S
C4715 H4703 0.929 . S
C4715 C4709 1.390 . S
C4715 C4712 1.386 . S
C4716 C4711 1.490 . S
C4716 C4718 1.395 . S
C4716 C4719 1.403 . S
H4717 C4723 0.930 . S
C4718 H4704 0.930 . S
C4718 C4716 1.395 . S
C4718 C4721 1.403 . S
C4719 C4716 1.403 . S
C4719 C4720 1.524 . S
C4719 C4723 1.400 . S
C4720 H4705 0.960 . S
C4720 H4706 0.960 . S
C4720 H4707 0.960 . S
C4720 C4719 1.524 . S
C4721 C4718 1.403 . S
C4721 C4722 1.392 . S
C4721 C4725 1.495 . S
C4722 C4721 1.392 . S
C4722 C4723 1.385 . S
C4722 C4724 1.478 . S
C4723 H4717 0.930 . S
C4723 C4719 1.400 . S
C4723 C4722 1.385 . S
C4724 C4722 1.478 . S
C4724 C4726 1.381 . S
C4724 C4730 1.383 . S
C4725 C4721 1.495 . S
C4725 H4731 0.959 . S
C4725 H4732 0.961 . S
C4725 H4733 0.960 . S
C4726 C4724 1.381 . S
C4726 C4727 1.394 . S
C4726 H4734 0.930 . S
C4727 C4726 1.394 . S
C4727 C4728 1.383 . S
C4727 H4735 0.929 . S
C4728 C4727 1.383 . S
C4728 C4729 1.377 . S
C4729 H4713 0.930 . S
C4729 C4728 1.377 . S
C4729 C4730 1.379 . S
C4730 H4714 0.931 . S
C4730 C4724 1.383 . S
C4730 C4729 1.379 . S
H4731 C4725 0.959 . S
H4732 C4725 0.961 . S
H4733 C4725 0.960 . S
H4734 C4726 0.930 . S
H4735 C4727 0.929 . S
C1289 C6 1.113 . S
C1308 C139 1.032 . S
C1325 C19 1.075 . S
C1344 C46 1.104 . S
C1361 C86 1.115 . S
C1380 C59 1.050 . S
C1397 C99 1.073 . S
C1416 C126 1.103 . S
C1433 C219 1.063 . S
C1452 C166 1.118 . S
C1469 C206 1.112 . S
C1488 C259 1.041 . S
C1505 C299 1.067 . S
C1524 C246 1.119 . S
C1541 C179 1.077 . S
C1560 C286 1.108 . S
C1577 C335 1.112 . S
C1596 C450 1.105 . S
C1613 C375 1.113 . S
C1632 C330 1.032 . S
C1649 C415 1.113 . S
C1668 C370 1.099 . S
C1685 C455 1.115 . S
C1704 C410 1.036 . S
C1721 C495 1.115 . S
C1740 C530 1.028 . S
C1757 C535 1.114 . S
C1776 C570 1.026 . S
C1793 C610 1.074 . S
C1812 C575 1.104 . S
C1829 C490 1.074 . S
C1848 C615 1.103 . S
C1865 C646 1.114 . S
C1884 C779 1.027 . S
C1901 C659 1.062 . S
C1920 C686 1.118 . S
C1937 C699 1.074 . S
C1956 C726 1.104 . S
C1973 C766 1.114 . S
C1992 C739 1.025 . S
C2009 C806 1.113 . S
C2028 C859 1.037 . S
C2045 C899 1.066 . S
C2064 C846 1.105 . S
C2081 C886 1.114 . S
C2100 C939 1.099 . S
C2117 C819 1.076 . S
C2136 C926 1.111 . S
C2153 C1090 1.075 . S
C2172 C975 1.112 . S
C2189 C970 1.067 . S
C2208 C1015 1.118 . S
C2225 C1055 1.112 . S
C2244 C1010 1.106 . S
C2261 C1050 1.063 . S
C2280 C1095 1.119 . S
C2297 C1170 1.064 . S
C2316 C1135 1.108 . S
C2333 C1210 1.064 . S
C2352 C1175 1.119 . S
C2369 C1250 1.070 . S
C2388 C1215 1.104 . S
C2405 C1255 1.112 . S
C2424 C1130 1.103 . S
C2441 C1086 1.574 . S
C2460 C9 1.538 . S
C2477 C49 1.529 . S
C2496 C326 1.557 . S
C2513 C89 1.531 . S
C2532 C1006 1.565 . S
C2549 C129 1.531 . S
C2568 C406 1.572 . S
C2585 C169 1.527 . S
C2604 C1166 1.581 . S
C2621 C566 1.575 . S
C2640 C209 1.500 . S
C2657 C1246 1.570 . S
C2676 C249 1.526 . S
C2693 C289 1.531 . S
C2712 C486 1.573 . S
C2729 C338 1.522 . S
C2748 C775 1.564 . S
C2765 C15 1.573 . S
C2784 C378 1.528 . S
C2801 C695 1.575 . S
C2820 C418 1.547 . S
C2837 C95 1.572 . S
C2856 C458 1.510 . S
C2873 C855 1.570 . S
C2892 C498 1.496 . S
C2909 C255 1.573 . S
C2928 C538 1.517 . S
C2945 C578 1.527 . S
C2964 C935 1.576 . S
C2981 C618 1.531 . S
C3000 C175 1.581 . S
C3017 C649 1.520 . S
C3036 C446 1.576 . S
C3053 C689 1.531 . S
C3072 C966 1.562 . S
C3089 C729 1.523 . S
C3108 C366 1.561 . S
C3125 C769 1.527 . S
C3144 C1046 1.582 . S
C3161 C809 1.523 . S
C3180 C526 1.583 . S
C3197 C849 1.522 . S
C3216 C1206 1.565 . S
C3233 C606 1.574 . S
C3252 C889 1.542 . S
C3269 C929 1.529 . S
C3288 C1126 1.557 . S
C3305 C135 1.576 . S
C3324 C978 1.549 . S
C3341 C655 1.576 . S
C3360 C1018 1.549 . S
C3377 C55 1.576 . S
C3396 C1058 1.546 . S
C3413 C735 1.572 . S
C3432 C1098 1.519 . S
C3449 C215 1.574 . S
C3468 C1138 1.542 . S
C3485 C1178 1.524 . S
C3504 C895 1.563 . S
C3521 C1218 1.529 . S
C3540 C295 1.580 . S
C3557 C815 1.576 . S
C3576 C1258 1.540 . S
C3593 C18 0.352 . S
C3612 C178 0.268 . S
C3629 C58 0.348 . S
C3648 C218 0.396 . S
C3665 C98 0.348 . S
C3684 C258 0.271 . S
C3701 C298 0.383 . S
C3720 C138 0.423 . S
C3737 C489 0.362 . S
C3756 C329 0.382 . S
C3773 C529 0.345 . S
C3792 C369 0.450 . S
C3809 C409 0.382 . S
C3828 C569 0.270 . S
C3845 C449 0.381 . S
C3864 C609 0.280 . S
C3881 C658 0.383 . S
C3900 C818 0.435 . S
C3917 C858 0.355 . S
C3936 C698 0.269 . S
C3953 C898 0.380 . S
C3972 C738 0.379 . S
C3989 C938 0.344 . S
C4008 C778 0.365 . S
C4025 C1129 0.349 . S
C4044 C969 0.436 . S
C4061 C1009 0.376 . S
C4080 C1169 0.307 . S
C4097 C1209 0.381 . S
C4116 C1049 0.279 . S
C4133 C1089 0.381 . S
C4152 C1249 0.275 . S
C4169 C290 2.770 . S
C4188 C10 2.770 . S
C4205 C50 2.770 . S
C4224 C170 2.764 . S
C4241 C90 2.772 . S
C4260 C210 2.768 . S
C4277 C250 2.771 . S
C4296 C130 2.770 . S
C4313 C339 2.771 . S
C4332 C619 2.767 . S
C4349 C499 2.770 . S
C4368 C379 2.762 . S
C4385 C539 2.771 . S
C4404 C419 2.765 . S
C4421 C459 2.771 . S
C4440 C579 2.766 . S
C4457 C650 2.771 . S
C4476 C930 2.763 . S
C4493 C810 2.770 . S
C4512 C690 2.765 . S
C4529 C850 2.771 . S
C4548 C730 2.762 . S
C4565 C890 2.771 . S
C4584 C770 2.770 . S
C4601 C979 2.770 . S
C4620 C1259 2.763 . S
C4637 C1139 2.771 . S
C4656 C1019 2.769 . S
C4673 C1059 2.772 . S
C4692 C1179 2.770 . S
C4709 C1219 2.770 . S
C4728 C1099 2.763 . S
