# Generated by pormake.
# Topology gme, (4)-cn, num edge types: 1
# Building blocks:
#     Node 0, Type 0, BuildingBlock: CEKHIL_clean_sbu_0, # of connection points: 4
#     Node 1, Type 0, BuildingBlock: CEKHIL_clean_sbu_0, # of connection points: 4
#     Node 2, Type 0, BuildingBlock: CEKHIL_clean_sbu_0, # of connection points: 4
#     Node 3, Type 0, BuildingBlock: CEKHIL_clean_sbu_0, # of connection points: 4
#     Node 4, Type 0, BuildingBlock: CEKHIL_clean_sbu_0, # of connection points: 4
#     Node 5, Type 0, BuildingBlock: CEKHIL_clean_sbu_0, # of connection points: 4
#     Node 6, Type 0, BuildingBlock: CEKHIL_clean_sbu_0, # of connection points: 4
#     Node 7, Type 0, BuildingBlock: CEKHIL_clean_sbu_0, # of connection points: 4
#     Node 8, Type 0, BuildingBlock: CEKHIL_clean_sbu_0, # of connection points: 4
#     Node 9, Type 0, BuildingBlock: CEKHIL_clean_sbu_0, # of connection points: 4
#     Node 10, Type 0, BuildingBlock: CEKHIL_clean_sbu_0, # of connection points: 4
#     Node 11, Type 0, BuildingBlock: CEKHIL_clean_sbu_0, # of connection points: 4
#     Node 12, Type 0, BuildingBlock: CEKHIL_clean_sbu_0, # of connection points: 4
#     Node 13, Type 0, BuildingBlock: CEKHIL_clean_sbu_0, # of connection points: 4
#     Node 14, Type 0, BuildingBlock: CEKHIL_clean_sbu_0, # of connection points: 4
#     Node 15, Type 0, BuildingBlock: CEKHIL_clean_sbu_0, # of connection points: 4
#     Node 16, Type 0, BuildingBlock: CEKHIL_clean_sbu_0, # of connection points: 4
#     Node 17, Type 0, BuildingBlock: CEKHIL_clean_sbu_0, # of connection points: 4
#     Node 18, Type 0, BuildingBlock: CEKHIL_clean_sbu_0, # of connection points: 4
#     Node 19, Type 0, BuildingBlock: CEKHIL_clean_sbu_0, # of connection points: 4
#     Node 20, Type 0, BuildingBlock: CEKHIL_clean_sbu_0, # of connection points: 4
#     Node 21, Type 0, BuildingBlock: CEKHIL_clean_sbu_0, # of connection points: 4
#     Node 22, Type 0, BuildingBlock: CEKHIL_clean_sbu_0, # of connection points: 4
#     Node 23, Type 0, BuildingBlock: CEKHIL_clean_sbu_0, # of connection points: 4
#     Edge 24, Type (0, 0), BuildingBlock: XUDNAN_clean_linker_2, # of connection points: 2
#     Edge 25, Type (0, 0), BuildingBlock: XUDNAN_clean_linker_2, # of connection points: 2
#     Edge 26, Type (0, 0), BuildingBlock: XUDNAN_clean_linker_2, # of connection points: 2
#     Edge 27, Type (0, 0), BuildingBlock: XUDNAN_clean_linker_2, # of connection points: 2
#     Edge 28, Type (0, 0), BuildingBlock: XUDNAN_clean_linker_2, # of connection points: 2
#     Edge 29, Type (0, 0), BuildingBlock: XUDNAN_clean_linker_2, # of connection points: 2
#     Edge 30, Type (0, 0), BuildingBlock: XUDNAN_clean_linker_2, # of connection points: 2
#     Edge 31, Type (0, 0), BuildingBlock: XUDNAN_clean_linker_2, # of connection points: 2
#     Edge 32, Type (0, 0), BuildingBlock: XUDNAN_clean_linker_2, # of connection points: 2
#     Edge 33, Type (0, 0), BuildingBlock: XUDNAN_clean_linker_2, # of connection points: 2
#     Edge 34, Type (0, 0), BuildingBlock: XUDNAN_clean_linker_2, # of connection points: 2
#     Edge 35, Type (0, 0), BuildingBlock: XUDNAN_clean_linker_2, # of connection points: 2
#     Edge 36, Type (0, 0), BuildingBlock: XUDNAN_clean_linker_2, # of connection points: 2
#     Edge 37, Type (0, 0), BuildingBlock: XUDNAN_clean_linker_2, # of connection points: 2
#     Edge 38, Type (0, 0), BuildingBlock: XUDNAN_clean_linker_2, # of connection points: 2
#     Edge 39, Type (0, 0), BuildingBlock: XUDNAN_clean_linker_2, # of connection points: 2
#     Edge 40, Type (0, 0), BuildingBlock: XUDNAN_clean_linker_2, # of connection points: 2
#     Edge 41, Type (0, 0), BuildingBlock: XUDNAN_clean_linker_2, # of connection points: 2
#     Edge 42, Type (0, 0), BuildingBlock: XUDNAN_clean_linker_2, # of connection points: 2
#     Edge 43, Type (0, 0), BuildingBlock: XUDNAN_clean_linker_2, # of connection points: 2
#     Edge 44, Type (0, 0), BuildingBlock: XUDNAN_clean_linker_2, # of connection points: 2
#     Edge 45, Type (0, 0), BuildingBlock: XUDNAN_clean_linker_2, # of connection points: 2
#     Edge 46, Type (0, 0), BuildingBlock: XUDNAN_clean_linker_2, # of connection points: 2
#     Edge 47, Type (0, 0), BuildingBlock: XUDNAN_clean_linker_2, # of connection points: 2
#     Edge 48, Type (0, 0), BuildingBlock: XUDNAN_clean_linker_2, # of connection points: 2
#     Edge 49, Type (0, 0), BuildingBlock: XUDNAN_clean_linker_2, # of connection points: 2
#     Edge 50, Type (0, 0), BuildingBlock: XUDNAN_clean_linker_2, # of connection points: 2
#     Edge 51, Type (0, 0), BuildingBlock: XUDNAN_clean_linker_2, # of connection points: 2
#     Edge 52, Type (0, 0), BuildingBlock: XUDNAN_clean_linker_2, # of connection points: 2
#     Edge 53, Type (0, 0), BuildingBlock: XUDNAN_clean_linker_2, # of connection points: 2
#     Edge 54, Type (0, 0), BuildingBlock: XUDNAN_clean_linker_2, # of connection points: 2
#     Edge 55, Type (0, 0), BuildingBlock: XUDNAN_clean_linker_2, # of connection points: 2
#     Edge 56, Type (0, 0), BuildingBlock: XUDNAN_clean_linker_2, # of connection points: 2
#     Edge 57, Type (0, 0), BuildingBlock: XUDNAN_clean_linker_2, # of connection points: 2
#     Edge 58, Type (0, 0), BuildingBlock: XUDNAN_clean_linker_2, # of connection points: 2
#     Edge 59, Type (0, 0), BuildingBlock: XUDNAN_clean_linker_2, # of connection points: 2
#     Edge 60, Type (0, 0), BuildingBlock: XUDNAN_clean_linker_2, # of connection points: 2
#     Edge 61, Type (0, 0), BuildingBlock: XUDNAN_clean_linker_2, # of connection points: 2
#     Edge 62, Type (0, 0), BuildingBlock: XUDNAN_clean_linker_2, # of connection points: 2
#     Edge 63, Type (0, 0), BuildingBlock: XUDNAN_clean_linker_2, # of connection points: 2
#     Edge 64, Type (0, 0), BuildingBlock: XUDNAN_clean_linker_2, # of connection points: 2
#     Edge 65, Type (0, 0), BuildingBlock: XUDNAN_clean_linker_2, # of connection points: 2
#     Edge 66, Type (0, 0), BuildingBlock: XUDNAN_clean_linker_2, # of connection points: 2
#     Edge 67, Type (0, 0), BuildingBlock: XUDNAN_clean_linker_2, # of connection points: 2
#     Edge 68, Type (0, 0), BuildingBlock: XUDNAN_clean_linker_2, # of connection points: 2
#     Edge 69, Type (0, 0), BuildingBlock: XUDNAN_clean_linker_2, # of connection points: 2
#     Edge 70, Type (0, 0), BuildingBlock: XUDNAN_clean_linker_2, # of connection points: 2
#     Edge 71, Type (0, 0), BuildingBlock: XUDNAN_clean_linker_2, # of connection points: 2
# Relax obj value: 0.071
# Max RMSD: 0.095
# Mean RMSD: 0.095
data_MOF--net-gme--node1-CEKHIL_clean_sbu_0--edge1-XUDNAN_clean_linker_2
_symmetry_space_group_name_H-M    P1
_symmetry_Int_Tables_number       1
_symmetry_cell_setting            triclinic
loop_
_symmetry_equiv_pos_as_xyz
'x, y, z'
_cell_length_a     53.881613
_cell_length_b     53.820704
_cell_length_c     56.695779
_cell_angle_alpha  90.008715
_cell_angle_beta   89.992663
_cell_angle_gamma 119.99235
loop_
_atom_site_label
_atom_site_type_symbol
_atom_site_fract_x
_atom_site_fract_y
_atom_site_fract_z
_atom_type_partial_charge
Co0 Co 0.3911 0.06139 0.12157 0.0
O1 O 0.39106 0.06193 0.08739 0.0
O2 O 0.36898 0.02287 0.10939 0.0
C3 C 0.3823 0.09789 0.12701 0.0
O4 O 0.38496 0.05206 0.15703 0.0
Co5 Co 0.43612 0.11404 0.15047 0.0
O6 O 0.41075 0.09315 0.17736 0.0
C7 C 0.45377 0.07844 0.12378 0.0
C8 C 0.37526 0.03419 0.08842 0.0
C9 C 0.39192 0.06664 0.17639 0.0
O10 O 0.42737 0.05874 0.12109 0.0
O11 O 0.46123 0.10293 0.13293 0.0
O12 O 0.3612 0.07232 0.12238 0.0
O13 O 0.40748 0.1008 0.12596 0.0
Co14 Co 0.32208 0.3958 0.61694 0.0
O15 O 0.32273 0.40652 0.58473 0.0
O16 O 0.33543 0.37542 0.59674 0.0
C17 C 0.27813 0.38937 0.62456 0.0
O18 O 0.32269 0.37949 0.64965 0.0
Co19 Co 0.31782 0.43511 0.65556 0.0
O20 O 0.30633 0.40049 0.67488 0.0
C21 C 0.37315 0.45302 0.63194 0.0
C22 C 0.33159 0.38893 0.57929 0.0
C23 C 0.31306 0.38147 0.67005 0.0
O24 O 0.36269 0.42871 0.62123 0.0
O25 O 0.35816 0.46009 0.64484 0.0
O26 O 0.28054 0.3689 0.61472 0.0
O27 O 0.30174 0.41321 0.62729 0.0
Co28 Co 0.94337 0.32171 0.12328 0.0
O29 O 0.93325 0.3137 0.09079 0.0
O30 O 0.97781 0.33499 0.10404 0.0
C31 C 0.90972 0.27791 0.13605 0.0
O32 O 0.9605 0.33165 0.15654 0.0
Co33 Co 0.89675 0.32048 0.15647 0.0
O34 O 0.9248 0.32537 0.18116 0.0
C35 C 0.9272 0.36817 0.12333 0.0
C36 C 0.96024 0.32502 0.08617 0.0
C37 C 0.95041 0.331 0.17733 0.0
O38 O 0.94578 0.36022 0.11976 0.0
O39 O 0.90428 0.35336 0.13532 0.0
O40 O 0.93423 0.28207 0.12839 0.0
O41 O 0.90567 0.29945 0.13371 0.0
Co42 Co 0.59954 0.9256 0.61717 0.0
O43 O 0.59351 0.91514 0.58455 0.0
O44 O 0.61699 0.95989 0.5974 0.0
C45 C 0.61301 0.89368 0.62772 0.0
O46 O 0.61052 0.94331 0.65031 0.0
Co47 Co 0.5598 0.87831 0.65338 0.0
O48 O 0.58843 0.90612 0.67572 0.0
C49 C 0.53643 0.90493 0.62211 0.0
C50 C 0.60755 0.94222 0.57957 0.0
C51 C 0.60642 0.93231 0.6712 0.0
O52 O 0.56191 0.92558 0.61768 0.0
O53 O 0.53125 0.8825 0.63376 0.0
O54 O 0.63164 0.91795 0.61831 0.0
O55 O 0.587 0.88865 0.62799 0.0
Co56 Co 0.67139 0.60777 0.11861 0.0
O57 O 0.67115 0.60666 0.0847 0.0
O58 O 0.65992 0.63399 0.10621 0.0
C59 C 0.71411 0.61019 0.12321 0.0
O60 O 0.67034 0.61518 0.15409 0.0
Co61 Co 0.67196 0.55861 0.14732 0.0
O62 O 0.68363 0.58696 0.17313 0.0
C63 C 0.61795 0.54945 0.12614 0.0
C64 C 0.66308 0.62566 0.0854 0.0
C65 C 0.67833 0.60752 0.17287 0.0
O66 O 0.63004 0.57569 0.11916 0.0
O67 O 0.63131 0.53842 0.1364 0.0
O68 O 0.71315 0.63334 0.11859 0.0
O69 O 0.68986 0.58661 0.12261 0.0
Co70 Co 0.05538 0.6848 0.62101 0.0
O71 O 0.06673 0.68838 0.58872 0.0
O72 O 0.02172 0.66876 0.60049 0.0
C73 C 0.08869 0.73025 0.63061 0.0
O74 O 0.03695 0.6789 0.65373 0.0
Co75 Co 0.10063 0.69115 0.65826 0.0
O76 O 0.07233 0.69121 0.68049 0.0
C77 C 0.07094 0.63857 0.62972 0.0
C78 C 0.03993 0.67611 0.5831 0.0
C79 C 0.04658 0.6838 0.67509 0.0
O80 O 0.05311 0.64623 0.62257 0.0
O81 O 0.09308 0.6548 0.64215 0.0
O82 O 0.0644 0.72487 0.62144 0.0
O83 O 0.09269 0.70858 0.63178 0.0
Co84 Co 0.92692 0.60437 0.39242 0.0
O85 O 0.92765 0.6058 0.42627 0.0
O86 O 0.96619 0.6239 0.40354 0.0
C87 C 0.89402 0.61827 0.38811 0.0
O88 O 0.93393 0.6075 0.35674 0.0
Co89 Co 0.86978 0.56114 0.36744 0.0
O90 O 0.89141 0.58044 0.33855 0.0
C91 C 0.90579 0.5402 0.389 0.0
C92 C 0.95533 0.61952 0.42469 0.0
C93 C 0.91834 0.59789 0.33804 0.0
O94 O 0.92565 0.56615 0.39326 0.0
O95 O 0.88123 0.53383 0.38065 0.0
O96 O 0.92083 0.63734 0.39113 0.0
O97 O 0.88793 0.59194 0.38994 0.0
Co98 Co 0.32371 0.92408 0.89422 0.0
O99 O 0.32228 0.91559 0.92714 0.0
O100 O 0.33764 0.95911 0.91306 0.0
C101 C 0.27924 0.88742 0.886 0.0
O102 O 0.32663 0.93953 0.86044 0.0
Co103 Co 0.31898 0.87727 0.8586 0.0
O104 O 0.3111 0.90093 0.83658 0.0
C105 C 0.37369 0.91439 0.88313 0.0
C106 C 0.33203 0.94251 0.93141 0.0
C107 C 0.31826 0.92706 0.84014 0.0
O108 O 0.36384 0.92978 0.89207 0.0
O109 O 0.3584 0.89161 0.87109 0.0
O110 O 0.28242 0.91123 0.89456 0.0
O111 O 0.30226 0.88582 0.88503 0.0
Co112 Co 0.38243 0.32616 0.3879 0.0
O113 O 0.38184 0.32539 0.42189 0.0
O114 O 0.3636 0.34619 0.3997 0.0
C115 C 0.3688 0.2795 0.38291 0.0
O116 O 0.37779 0.33005 0.35248 0.0
Co117 Co 0.42487 0.31325 0.3606 0.0
O118 O 0.40492 0.31618 0.3323 0.0
C119 C 0.44614 0.36593 0.3885 0.0
C120 C 0.36868 0.34 0.4207 0.0
C121 C 0.38664 0.32461 0.33309 0.0
O122 O 0.42086 0.36281 0.38878 0.0
O123 O 0.45148 0.34682 0.38063 0.0
O124 O 0.34961 0.28694 0.38681 0.0
O125 O 0.39505 0.29992 0.38423 0.0
Co126 Co 0.06575 0.3897 0.89268 0.0
O127 O 0.06689 0.39208 0.92656 0.0
O128 O 0.02855 0.36306 0.9055 0.0
C129 C 0.1068 0.38844 0.88855 0.0
O130 O 0.05684 0.38067 0.85749 0.0
Co131 Co 0.11413 0.43788 0.8624 0.0
O132 O 0.09771 0.40819 0.83752 0.0
C133 C 0.06843 0.44664 0.88255 0.0
C134 C 0.04012 0.37222 0.92615 0.0
C135 C 0.07198 0.38751 0.83847 0.0
O136 O 0.05522 0.42094 0.89091 0.0
O137 O 0.09258 0.45752 0.87191 0.0
O138 O 0.08311 0.36511 0.89363 0.0
O139 O 0.1053 0.41161 0.88829 0.0
Co140 Co 0.67365 0.06125 0.39029 0.0
O141 O 0.6727 0.06084 0.42432 0.0
O142 O 0.65245 0.02223 0.40159 0.0
C143 C 0.72074 0.09343 0.38656 0.0
O144 O 0.67102 0.05301 0.35486 0.0
Co145 Co 0.68949 0.11732 0.36271 0.0
O146 O 0.68771 0.09448 0.33474 0.0
C147 C 0.63244 0.08421 0.38465 0.0
C148 C 0.65783 0.03308 0.42274 0.0
C149 C 0.67796 0.06751 0.33552 0.0
O150 O 0.63736 0.06367 0.38945 0.0
O151 O 0.65139 0.10822 0.3759 0.0
O152 O 0.71243 0.0666 0.39057 0.0
O153 O 0.70084 0.10007 0.38719 0.0
Co154 Co 0.62152 0.68054 0.88733 0.0
O155 O 0.61309 0.68316 0.91963 0.0
O156 O 0.63933 0.66451 0.90772 0.0
C157 C 0.63362 0.72627 0.87895 0.0
O158 O 0.63508 0.67592 0.85454 0.0
Co159 Co 0.58469 0.68819 0.84927 0.0
O160 O 0.61798 0.69611 0.82932 0.0
C161 C 0.56164 0.63256 0.87387 0.0
C162 C 0.62842 0.67173 0.92517 0.0
C163 C 0.63445 0.68615 0.83407 0.0
O164 O 0.5856 0.64177 0.88477 0.0
O165 O 0.55655 0.64826 0.85997 0.0
O166 O 0.6523 0.72046 0.88792 0.0
O167 O 0.60792 0.7047 0.87702 0.0
Co168 Co 0.62159 0.94093 0.88799 0.0
O169 O 0.62099 0.9402 0.92195 0.0
O170 O 0.64153 0.97962 0.90017 0.0
C171 C 0.634 0.90689 0.88371 0.0
O172 O 0.62732 0.94999 0.85261 0.0
Co173 Co 0.58032 0.88683 0.85894 0.0
O174 O 0.60757 0.90799 0.83312 0.0
C175 C 0.55886 0.92265 0.88067 0.0
C176 C 0.63556 0.96799 0.92105 0.0
C177 C 0.62324 0.93521 0.83365 0.0
O178 O 0.58425 0.94114 0.8876 0.0
O179 O 0.55287 0.89915 0.87028 0.0
O180 O 0.65352 0.93334 0.88776 0.0
O181 O 0.60789 0.90167 0.88424 0.0
Co182 Co 0.66741 0.60526 0.39383 0.0
O183 O 0.66714 0.60618 0.42764 0.0
O184 O 0.64717 0.62452 0.40464 0.0
C185 C 0.71425 0.61916 0.39046 0.0
O186 O 0.66508 0.6091 0.35802 0.0
Co187 Co 0.68204 0.56234 0.36917 0.0
O188 O 0.68716 0.58715 0.3416 0.0
C189 C 0.62685 0.54123 0.39348 0.0
C190 C 0.65307 0.61978 0.42589 0.0
C191 C 0.67637 0.60349 0.34019 0.0
O192 O 0.63074 0.56684 0.39424 0.0
O193 O 0.64595 0.53542 0.38644 0.0
O194 O 0.70652 0.63829 0.39335 0.0
O195 O 0.69391 0.59286 0.39188 0.0
Co196 Co 0.05698 0.67361 0.8869 0.0
O197 O 0.06862 0.67554 0.91908 0.0
O198 O 0.0245 0.66274 0.9079 0.0
C199 C 0.09477 0.71633 0.87656 0.0
O200 O 0.03812 0.67055 0.85468 0.0
Co201 Co 0.0973 0.67294 0.84747 0.0
O202 O 0.07087 0.67794 0.82655 0.0
C203 C 0.06054 0.62028 0.87476 0.0
C204 C 0.04252 0.66763 0.92503 0.0
C205 C 0.04655 0.67411 0.83297 0.0
O206 O 0.04794 0.63231 0.88504 0.0
O207 O 0.08182 0.63354 0.86073 0.0
O208 O 0.07268 0.71535 0.88671 0.0
O209 O 0.09418 0.69217 0.87497 0.0
Co210 Co 0.39041 0.07132 0.39497 0.0
O211 O 0.39674 0.07957 0.42784 0.0
O212 O 0.37405 0.03565 0.41337 0.0
C213 C 0.37538 0.10299 0.38796 0.0
O214 O 0.38017 0.05653 0.36084 0.0
Co215 Co 0.4288 0.12194 0.36132 0.0
O216 O 0.39896 0.09664 0.33853 0.0
C217 C 0.45323 0.09031 0.38497 0.0
C218 C 0.38368 0.05232 0.43184 0.0
C219 C 0.38296 0.06958 0.341 0.0
O220 O 0.42816 0.07205 0.3927 0.0
O221 O 0.45838 0.11294 0.37355 0.0
O222 O 0.35749 0.07744 0.39566 0.0
O223 O 0.40177 0.10913 0.38701 0.0
Co224 Co 0.33067 0.39225 0.88495 0.0
O225 O 0.3331 0.39573 0.91895 0.0
O226 O 0.34335 0.36738 0.89791 0.0
C227 C 0.28728 0.38893 0.88185 0.0
O228 O 0.32959 0.3815 0.85005 0.0
Co229 Co 0.32573 0.43618 0.85253 0.0
O230 O 0.312 0.40473 0.82917 0.0
C231 C 0.38188 0.45063 0.87329 0.0
C232 C 0.34097 0.37653 0.91855 0.0
C233 C 0.31899 0.38546 0.83098 0.0
O234 O 0.37163 0.42515 0.88188 0.0
O235 O 0.36658 0.45916 0.86255 0.0
O236 O 0.28894 0.36633 0.88723 0.0
O237 O 0.31138 0.41254 0.8803 0.0
Co238 Co 0.93281 0.31838 0.39135 0.0
O239 O 0.92198 0.31401 0.42383 0.0
O240 O 0.96685 0.33634 0.41136 0.0
C241 C 0.90158 0.27218 0.38191 0.0
O242 O 0.95123 0.32575 0.35854 0.0
Co243 Co 0.88634 0.3085 0.35409 0.0
O244 O 0.9157 0.31123 0.33166 0.0
C245 C 0.91366 0.362 0.38188 0.0
C246 C 0.94896 0.32776 0.42903 0.0
C247 C 0.94182 0.32059 0.33714 0.0
O248 O 0.93194 0.35547 0.39009 0.0
O249 O 0.89244 0.34499 0.3689 0.0
O250 O 0.92653 0.27923 0.39069 0.0
O251 O 0.89581 0.29269 0.38083 0.0
Co252 Co 0.06348 0.39912 0.61958 0.0
O253 O 0.06356 0.40043 0.58558 0.0
O254 O 0.025 0.37585 0.60779 0.0
C255 C 0.10125 0.39213 0.62344 0.0
O256 O 0.05509 0.39124 0.65494 0.0
Co257 Co 0.11585 0.44506 0.64814 0.0
O258 O 0.09646 0.41816 0.67453 0.0
C259 C 0.07709 0.46087 0.62448 0.0
C260 C 0.03607 0.38322 0.5868 0.0
C261 C 0.07041 0.39814 0.67386 0.0
O262 O 0.05864 0.43419 0.6209 0.0
O263 O 0.10208 0.46935 0.63293 0.0
O264 O 0.07607 0.3705 0.61872 0.0
O265 O 0.10306 0.41691 0.62326 0.0
Co266 Co 0.68406 0.07049 0.11709 0.0
O267 O 0.69153 0.08015 0.08456 0.0
O268 O 0.66917 0.03563 0.09789 0.0
C269 C 0.72857 0.10284 0.12941 0.0
O270 O 0.67426 0.05427 0.15066 0.0
Co271 Co 0.68837 0.11969 0.14911 0.0
O272 O 0.68326 0.09189 0.17414 0.0
C273 C 0.63773 0.08733 0.11914 0.0
C274 C 0.67916 0.05307 0.07991 0.0
C275 C 0.67609 0.06565 0.17111 0.0
O276 O 0.64613 0.06935 0.11431 0.0
O277 O 0.65299 0.1105 0.13075 0.0
O278 O 0.72319 0.07793 0.12166 0.0
O279 O 0.7079 0.10819 0.12703 0.0
Co280 Co 0.61572 0.67934 0.62345 0.0
O281 O 0.60457 0.68093 0.59166 0.0
O282 O 0.63372 0.66495 0.60179 0.0
C283 C 0.62508 0.72382 0.63324 0.0
O284 O 0.63232 0.67587 0.65519 0.0
Co285 Co 0.57933 0.68406 0.66436 0.0
O286 O 0.61363 0.69199 0.68284 0.0
C287 C 0.55736 0.62978 0.63784 0.0
C288 C 0.62047 0.67043 0.58512 0.0
C289 C 0.63145 0.68432 0.67637 0.0
O290 O 0.58143 0.6395 0.62695 0.0
O291 O 0.55186 0.64495 0.652 0.0
O292 O 0.64435 0.72048 0.62222 0.0
O293 O 0.60058 0.70092 0.63589 0.0
Co294 Co 0.92994 0.60236 0.11575 0.0
O295 O 0.93036 0.60581 0.082 0.0
O296 O 0.96877 0.6271 0.10486 0.0
C297 C 0.89218 0.60859 0.12239 0.0
O298 O 0.93705 0.60431 0.15141 0.0
Co299 Co 0.87613 0.55116 0.13918 0.0
O300 O 0.89674 0.5697 0.16867 0.0
C301 C 0.91656 0.54051 0.11259 0.0
C302 C 0.95788 0.6223 0.08371 0.0
C303 C 0.92226 0.59089 0.16978 0.0
O304 O 0.93495 0.56758 0.11257 0.0
O305 O 0.89077 0.53026 0.11979 0.0
O306 O 0.9174 0.63088 0.11915 0.0
O307 O 0.89041 0.58415 0.11888 0.0
Co308 Co 0.32185 0.93291 0.62118 0.0
O309 O 0.32159 0.9336 0.58719 0.0
O310 O 0.34482 0.97189 0.60994 0.0
C311 C 0.27434 0.90305 0.62556 0.0
O312 O 0.32581 0.94029 0.65687 0.0
Co313 Co 0.30309 0.87534 0.64743 0.0
O314 O 0.30108 0.8973 0.67478 0.0
C315 C 0.35788 0.90438 0.62168 0.0
C316 C 0.33803 0.96117 0.58876 0.0
C317 C 0.31423 0.92465 0.67532 0.0
O318 O 0.35634 0.92745 0.62044 0.0
O319 O 0.33757 0.88057 0.62959 0.0
O320 O 0.28416 0.93028 0.62212 0.0
O321 O 0.293 0.89483 0.62407 0.0
Co322 Co 0.38448 0.31758 0.1141 0.0
O323 O 0.38915 0.31362 0.08118 0.0
O324 O 0.36183 0.32986 0.09565 0.0
C325 C 0.37804 0.27409 0.12413 0.0
O326 O 0.37475 0.32334 0.14803 0.0
Co327 Co 0.43045 0.31671 0.1477 0.0
O328 O 0.40404 0.31608 0.17212 0.0
C329 C 0.4437 0.36987 0.12228 0.0
C330 C 0.37173 0.3231 0.07723 0.0
C331 C 0.38359 0.32114 0.16871 0.0
O332 O 0.41822 0.35812 0.11366 0.0
O333 O 0.45301 0.35642 0.13475 0.0
O334 O 0.35656 0.27622 0.11623 0.0
O335 O 0.40249 0.29735 0.12339 0.0
H336 H 0.36031 0.08608 0.30636 0.0
H337 H 0.37904 0.01927 0.32513 0.0
H338 H 0.37257 0.00357 0.28332 0.0
H339 H 0.31024 0.04809 0.25419 0.0
H340 H 0.32548 0.08162 0.23842 0.0
H341 H 0.32248 0.0812 0.27011 0.0
H342 H 0.37687 0.11753 0.2731 0.0
H343 H 0.38016 0.11779 0.24165 0.0
H344 H 0.40198 0.10879 0.25983 0.0
H345 H 0.37509 0.00288 0.2382 0.0
H346 H 0.38669 0.01758 0.19626 0.0
H347 H 0.36875 0.08647 0.20795 0.0
C348 C 0.36158 0.06718 0.30184 0.0
C349 C 0.36977 0.05362 0.31896 0.0
C350 C 0.37206 0.02949 0.31239 0.0
C351 C 0.3686 0.02059 0.28861 0.0
C352 C 0.3625 0.03584 0.27179 0.0
C353 C 0.35854 0.0584 0.27833 0.0
C354 C 0.35698 0.07458 0.25708 0.0
C355 C 0.327 0.07115 0.25482 0.0
C356 C 0.38039 0.10652 0.25798 0.0
C357 C 0.36248 0.05887 0.23753 0.0
C358 C 0.36475 0.03601 0.2461 0.0
C359 C 0.37261 0.02026 0.23131 0.0
C360 C 0.37907 0.02865 0.20749 0.0
C361 C 0.37824 0.05291 0.19896 0.0
C362 C 0.36902 0.06752 0.21403 0.0
H363 H 0.27052 0.35633 0.70151 0.0
H364 H 0.35507 0.37063 0.6854 0.0
H365 H 0.36058 0.3597 0.72685 0.0
H366 H 0.28885 0.39521 0.74811 0.0
H367 H 0.25717 0.37459 0.76574 0.0
H368 H 0.25485 0.37167 0.73429 0.0
H369 H 0.23376 0.31671 0.73694 0.0
H370 H 0.23548 0.31931 0.76868 0.0
H371 H 0.2525 0.30245 0.75336 0.0
H372 H 0.36214 0.36098 0.77139 0.0
H373 H 0.35986 0.37478 0.8127 0.0
H374 H 0.27553 0.36292 0.79959 0.0
C375 C 0.28942 0.35531 0.70646 0.0
C376 C 0.31215 0.36379 0.6903 0.0
C377 C 0.33708 0.36337 0.69737 0.0
C378 C 0.34042 0.35738 0.72098 0.0
C379 C 0.31849 0.35158 0.73711 0.0
C380 C 0.29315 0.34998 0.72992 0.0
C381 C 0.27532 0.34941 0.75078 0.0
C382 C 0.26872 0.3742 0.74965 0.0
C383 C 0.24762 0.32023 0.75255 0.0
C384 C 0.2955 0.35338 0.77079 0.0
C385 C 0.31981 0.35344 0.76279 0.0
C386 C 0.34284 0.36011 0.77789 0.0
C387 C 0.34138 0.36788 0.80136 0.0
C388 C 0.31739 0.36961 0.80923 0.0
C389 C 0.29386 0.36124 0.794 0.0
H390 H 0.96269 0.3715 0.21004 0.0
H391 H 0.97429 0.2997 0.19311 0.0
H392 H 0.98717 0.29754 0.23469 0.0
H393 H 0.01838 0.40233 0.26148 0.0
H394 H 0.99494 0.41141 0.27725 0.0
H395 H 0.99676 0.41356 0.24549 0.0
H396 H 0.94176 0.38006 0.24333 0.0
H397 H 0.93977 0.37755 0.27479 0.0
H398 H 0.92576 0.34533 0.25731 0.0
H399 H 0.98385 0.29393 0.27884 0.0
H400 H 0.9662 0.29039 0.31977 0.0
H401 H 0.95791 0.36521 0.30819 0.0
C402 C 0.96977 0.35657 0.21491 0.0
C403 C 0.96822 0.33623 0.19847 0.0
C404 C 0.97628 0.31604 0.20538 0.0
C405 C 0.98347 0.31461 0.22901 0.0
C406 C 0.98296 0.33388 0.24531 0.0
C407 C 0.97699 0.35501 0.23834 0.0
C408 C 0.97278 0.36984 0.25938 0.0
C409 C 0.99718 0.40114 0.26099 0.0
C410 C 0.94328 0.36803 0.25865 0.0
C411 C 0.97464 0.3521 0.27926 0.0
C412 C 0.98141 0.332 0.27098 0.0
C413 C 0.97975 0.31032 0.28566 0.0
C414 C 0.96986 0.30849 0.30894 0.0
C415 C 0.96172 0.32816 0.31717 0.0
C416 C 0.96527 0.35078 0.30246 0.0
H417 H 0.637 0.91868 0.69982 0.0
H418 H 0.61049 0.98157 0.68957 0.0
H419 H 0.62418 0.99807 0.73088 0.0
H420 H 0.60463 0.89464 0.74989 0.0
H421 H 0.63043 0.88755 0.764 0.0
H422 H 0.62869 0.88793 0.73248 0.0
H423 H 0.68238 0.92676 0.73035 0.0
H424 H 0.6845 0.92624 0.76208 0.0
H425 H 0.69538 0.95956 0.7469 0.0
H426 H 0.62929 0.99895 0.77544 0.0
H427 H 0.62391 0.98348 0.81721 0.0
H428 H 0.64453 0.91807 0.79803 0.0
C429 C 0.63573 0.93708 0.70595 0.0
C430 C 0.62338 0.94935 0.69155 0.0
C431 C 0.62077 0.97256 0.70019 0.0
C432 C 0.62836 0.98189 0.72369 0.0
C433 C 0.63871 0.9679 0.73806 0.0
C434 C 0.64281 0.94621 0.72927 0.0
C435 C 0.64886 0.93077 0.74876 0.0
C436 C 0.62683 0.89834 0.74877 0.0
C437 C 0.67962 0.93617 0.74691 0.0
C438 C 0.64546 0.9456 0.7701 0.0
C439 C 0.64063 0.96766 0.76372 0.0
C440 C 0.63382 0.98226 0.78059 0.0
C441 C 0.63088 0.97342 0.8043 0.0
C442 C 0.63406 0.94976 0.81074 0.0
C443 C 0.64244 0.93651 0.79354 0.0
H444 H 0.71526 0.61542 0.30562 0.0
H445 H 0.63739 0.61711 0.32113 0.0
H446 H 0.63435 0.62855 0.27915 0.0
H447 H 0.74335 0.67205 0.25827 0.0
H448 H 0.75679 0.65265 0.24172 0.0
H449 H 0.75577 0.65089 0.27349 0.0
H450 H 0.72596 0.59536 0.27144 0.0
H451 H 0.72694 0.59696 0.23985 0.0
H452 H 0.69296 0.57856 0.2549 0.0
H453 H 0.63559 0.63083 0.23384 0.0
H454 H 0.6403 0.62243 0.19141 0.0
H455 H 0.71759 0.61977 0.20688 0.0
C456 C 0.69796 0.61899 0.30036 0.0
C457 C 0.67654 0.61535 0.31657 0.0
C458 C 0.65419 0.62007 0.30901 0.0
C459 C 0.65234 0.62658 0.2852 0.0
C460 C 0.67334 0.62887 0.2694 0.0
C461 C 0.69595 0.62556 0.2769 0.0
C462 C 0.71396 0.62558 0.25648 0.0
C463 C 0.74427 0.65187 0.25756 0.0
C464 C 0.71497 0.59745 0.25562 0.0
C465 C 0.69716 0.62778 0.23608 0.0
C466 C 0.67413 0.63033 0.2437 0.0
C467 C 0.65396 0.62957 0.22773 0.0
C468 C 0.65686 0.62498 0.20364 0.0
C469 C 0.67947 0.62076 0.19596 0.0
C470 C 0.70036 0.62339 0.2123 0.0
H471 H 0.02288 0.6377 0.70323 0.0
H472 H 0.03207 0.72145 0.69361 0.0
H473 H 0.01785 0.72125 0.73511 0.0
H474 H 0.96411 0.61064 0.7527 0.0
H475 H 0.98123 0.59334 0.76716 0.0
H476 H 0.98112 0.59523 0.7354 0.0
H477 H 0.03643 0.61914 0.73522 0.0
H478 H 0.03675 0.61755 0.76671 0.0
H479 H 0.05744 0.65156 0.75198 0.0
H480 H 0.0178 0.71864 0.77902 0.0
H481 H 0.03201 0.71389 0.81955 0.0
H482 H 0.02264 0.63172 0.80134 0.0
C483 C 0.01981 0.65497 0.70954 0.0
C484 C 0.02744 0.67908 0.69516 0.0
C485 C 0.02513 0.70231 0.70416 0.0
C486 C 0.01722 0.70238 0.72779 0.0
C487 C 0.01157 0.67898 0.74212 0.0
C488 C 0.01222 0.65536 0.73312 0.0
C489 C 0.01109 0.63564 0.75268 0.0
C490 C 0.98269 0.60702 0.75194 0.0
C491 C 0.03697 0.63075 0.75157 0.0
C492 C 0.01238 0.65304 0.77412 0.0
C493 C 0.01163 0.6775 0.7678 0.0
C494 C 0.01722 0.69903 0.78428 0.0
C495 C 0.02508 0.69613 0.80736 0.0
C496 C 0.02741 0.67199 0.81361 0.0
C497 C 0.0197 0.64972 0.79712 0.0
H498 H 0.91398 0.55543 0.20611 0.0
H499 H 0.95683 0.6455 0.18759 0.0
H500 H 0.96824 0.6583 0.22992 0.0
H501 H 0.87905 0.5595 0.2536 0.0
H502 H 0.88176 0.53295 0.27103 0.0
H503 H 0.88281 0.53155 0.23946 0.0
H504 H 0.93165 0.53308 0.24152 0.0
H505 H 0.93067 0.53431 0.27326 0.0
H506 H 0.96105 0.56168 0.25738 0.0
H507 H 0.96729 0.66025 0.27557 0.0
H508 H 0.95386 0.65095 0.31802 0.0
H509 H 0.91125 0.5596 0.3048 0.0
C510 C 0.92655 0.57789 0.21087 0.0
C511 C 0.93461 0.59949 0.19369 0.0
C512 C 0.95082 0.62863 0.20053 0.0
C513 C 0.95731 0.63604 0.22452 0.0
C514 C 0.94787 0.61401 0.24123 0.0
C515 C 0.93319 0.58548 0.23448 0.0
C516 C 0.92247 0.56558 0.25546 0.0
C517 C 0.8896 0.5463 0.25484 0.0
C518 C 0.93736 0.54761 0.25699 0.0
C519 C 0.93196 0.5872 0.2752 0.0
C520 C 0.94716 0.61509 0.26693 0.0
C521 C 0.95593 0.63848 0.28219 0.0
C522 C 0.94833 0.63308 0.30624 0.0
C523 C 0.93173 0.60459 0.3145 0.0
C524 C 0.92422 0.58159 0.29887 0.0
H525 H 0.27558 0.90949 0.80887 0.0
H526 H 0.36219 0.97747 0.82236 0.0
H527 H 0.36746 0.99147 0.78017 0.0
H528 H 0.29078 0.88507 0.76173 0.0
H529 H 0.25856 0.87488 0.74513 0.0
H530 H 0.25792 0.87661 0.77666 0.0
H531 H 0.23912 0.91241 0.77447 0.0
H532 H 0.23902 0.91035 0.74272 0.0
H533 H 0.25824 0.9447 0.75719 0.0
H534 H 0.36672 0.99009 0.73506 0.0
H535 H 0.35999 0.97388 0.69335 0.0
H536 H 0.27473 0.90493 0.71022 0.0
C537 C 0.29502 0.92844 0.80316 0.0
C538 C 0.31825 0.94283 0.81885 0.0
C539 C 0.34385 0.96678 0.81073 0.0
C540 C 0.34705 0.97466 0.78672 0.0
C541 C 0.32434 0.95851 0.77124 0.0
C542 C 0.29856 0.93615 0.77936 0.0
C543 C 0.27921 0.91877 0.75923 0.0
C544 C 0.27119 0.887 0.76079 0.0
C545 C 0.25231 0.92175 0.75835 0.0
C546 C 0.29864 0.93361 0.73848 0.0
C547 C 0.32428 0.957 0.74552 0.0
C548 C 0.34645 0.97224 0.72938 0.0
C549 C 0.34248 0.96292 0.70571 0.0
C550 C 0.31683 0.93819 0.69863 0.0
C551 C 0.29449 0.92401 0.71515 0.0
H552 H 0.41796 0.36178 0.29885 0.0
H553 H 0.33208 0.29453 0.3157 0.0
H554 H 0.31765 0.2935 0.27396 0.0
H555 H 0.39672 0.3977 0.25068 0.0
H556 H 0.42815 0.40535 0.23386 0.0
H557 H 0.42926 0.4052 0.26565 0.0
H558 H 0.44639 0.36796 0.26431 0.0
H559 H 0.44534 0.36803 0.23274 0.0
H560 H 0.42525 0.33475 0.24859 0.0
H561 H 0.31656 0.29216 0.22904 0.0
H562 H 0.32891 0.29153 0.18691 0.0
H563 H 0.4144 0.36192 0.20009 0.0
C564 C 0.3958 0.34782 0.29387 0.0
C565 C 0.37595 0.32859 0.31033 0.0
C566 C 0.34734 0.30987 0.3033 0.0
C567 C 0.33904 0.30916 0.27964 0.0
C568 C 0.35949 0.32778 0.26347 0.0
C569 C 0.38718 0.34724 0.27051 0.0
C570 C 0.40619 0.36252 0.24964 0.0
C571 C 0.41562 0.3946 0.24998 0.0
C572 C 0.43229 0.35801 0.24878 0.0
C573 C 0.38556 0.34728 0.22961 0.0
C574 C 0.35851 0.32765 0.23776 0.0
C575 C 0.33732 0.30819 0.22242 0.0
C576 C 0.34435 0.30806 0.19847 0.0
C577 C 0.37233 0.32721 0.19029 0.0
C578 C 0.39257 0.34777 0.20586 0.0
H579 H 0.097 0.38221 0.70534 0.0
H580 H 0.01739 0.38157 0.69325 0.0
H581 H 0.00325 0.36683 0.73486 0.0
H582 H 0.06886 0.32236 0.75143 0.0
H583 H 0.1022 0.34114 0.76736 0.0
H584 H 0.10195 0.34369 0.73565 0.0
H585 H 0.12818 0.39915 0.73879 0.0
H586 H 0.12843 0.3968 0.77029 0.0
H587 H 0.11266 0.41578 0.75646 0.0
H588 H 0.00344 0.36312 0.7797 0.0
H589 H 0.01825 0.37183 0.82169 0.0
H590 H 0.09766 0.37469 0.80359 0.0
C591 C 0.07607 0.37784 0.71125 0.0
C592 C 0.0582 0.38286 0.69623 0.0
C593 C 0.03116 0.37739 0.70448 0.0
C594 C 0.02302 0.36903 0.72808 0.0
C595 C 0.04194 0.36568 0.74288 0.0
C596 C 0.06774 0.36947 0.73453 0.0
C597 C 0.0863 0.36883 0.75422 0.0
C598 C 0.09003 0.34243 0.75203 0.0
C599 C 0.11557 0.3968 0.75498 0.0
C600 C 0.06797 0.36623 0.77527 0.0
C601 C 0.04205 0.36357 0.76851 0.0
C602 C 0.02328 0.36436 0.78514 0.0
C603 C 0.03176 0.36916 0.80899 0.0
C604 C 0.05897 0.37364 0.81578 0.0
C605 C 0.07655 0.37085 0.79884 0.0
H606 H 0.64139 0.06479 0.30221 0.0
H607 H 0.70395 0.03903 0.31725 0.0
H608 H 0.70196 0.02421 0.27545 0.0
H609 H 0.6001 0.00823 0.25481 0.0
H610 H 0.59473 0.03379 0.23831 0.0
H611 H 0.59611 0.03541 0.27009 0.0
H612 H 0.63677 0.08853 0.26804 0.0
H613 H 0.63547 0.08707 0.23648 0.0
H614 H 0.66878 0.09759 0.2515 0.0
H615 H 0.701 0.02303 0.23052 0.0
H616 H 0.70137 0.03597 0.18844 0.0
H617 H 0.6378 0.06034 0.20357 0.0
C618 C 0.65369 0.05483 0.29683 0.0
C619 C 0.67247 0.05257 0.31275 0.0
C620 C 0.68899 0.0403 0.30524 0.0
C621 C 0.68795 0.03186 0.28157 0.0
C622 C 0.66983 0.03533 0.26592 0.0
C623 C 0.65258 0.04607 0.27347 0.0
C624 C 0.63781 0.05138 0.25305 0.0
C625 C 0.60525 0.03098 0.25414 0.0
C626 C 0.64519 0.083 0.25223 0.0
C627 C 0.65093 0.04395 0.23261 0.0
C628 C 0.66885 0.03406 0.24022 0.0
C629 C 0.68628 0.02978 0.22436 0.0
C630 C 0.68625 0.03694 0.20045 0.0
C631 C 0.66909 0.04846 0.19284 0.0
C632 C 0.65039 0.0507 0.20894 0.0
H633 H 0.66522 0.72723 0.70543 0.0
H634 H 0.63394 0.63748 0.69175 0.0
H635 H 0.64583 0.63127 0.73267 0.0
H636 H 0.72117 0.73771 0.75443 0.0
H637 H 0.71168 0.76091 0.77011 0.0
H638 H 0.7117 0.76064 0.7383 0.0
H639 H 0.65919 0.74989 0.7384 0.0
H640 H 0.65882 0.74974 0.76992 0.0
H641 H 0.63234 0.71878 0.75398 0.0
H642 H 0.64631 0.63165 0.77698 0.0
H643 H 0.63557 0.63866 0.81811 0.0
H644 H 0.66617 0.72812 0.80333 0.0
C645 C 0.66283 0.7068 0.7107 0.0
C646 C 0.64936 0.68301 0.69543 0.0
C647 C 0.64514 0.65615 0.70298 0.0
C648 C 0.65167 0.65246 0.72632 0.0
C649 C 0.66278 0.67595 0.74169 0.0
C650 C 0.66898 0.70287 0.73391 0.0
C651 C 0.67521 0.72327 0.75435 0.0
C652 C 0.70683 0.74704 0.75429 0.0
C653 C 0.65518 0.7361 0.75414 0.0
C654 C 0.66891 0.70308 0.77493 0.0
C655 C 0.6628 0.67611 0.76744 0.0
C656 C 0.65209 0.65291 0.7831 0.0
C657 C 0.6462 0.65707 0.80653 0.0
C658 C 0.6506 0.68407 0.81386 0.0
C659 C 0.66345 0.70751 0.7982 0.0
H660 H 0.3439 0.11352 0.11055 0.0
H661 H 0.41371 0.13775 0.15996 0.0
H662 H 0.41288 0.18143 0.16994 0.0
H663 H 0.37107 0.18036 0.08675 0.0
H664 H 0.33767 0.17981 0.08236 0.0
H665 H 0.33822 0.14671 0.08304 0.0
H666 H 0.30062 0.12796 0.11665 0.0
H667 H 0.29987 0.16109 0.116 0.0
H668 H 0.30752 0.14887 0.14319 0.0
H669 H 0.41137 0.22557 0.16976 0.0
H670 H 0.40973 0.26883 0.15864 0.0
H671 H 0.34164 0.21918 0.10874 0.0
C672 C 0.35814 0.12756 0.12413 0.0
C673 C 0.37841 0.12184 0.13492 0.0
C674 C 0.39764 0.14125 0.15181 0.0
C675 C 0.39728 0.16623 0.15768 0.0
C676 C 0.37777 0.17182 0.1463 0.0
C677 C 0.35849 0.15316 0.12986 0.0
C678 C 0.34292 0.16665 0.11775 0.0
C679 C 0.34778 0.16849 0.09089 0.0
C680 C 0.31082 0.15016 0.12376 0.0
C681 C 0.35766 0.1962 0.12908 0.0
C682 C 0.37718 0.1983 0.1459 0.0
C683 C 0.39568 0.22408 0.15707 0.0
C684 C 0.39471 0.2486 0.15055 0.0
C685 C 0.37536 0.2472 0.13307 0.0
C686 C 0.35606 0.22055 0.12263 0.0
H687 H 0.11792 0.35461 0.60676 0.0
H688 H 0.14099 0.4242 0.65629 0.0
H689 H 0.1838 0.42269 0.6676 0.0
H690 H 0.15213 0.31749 0.63968 0.0
H691 H 0.16553 0.31071 0.61275 0.0
H692 H 0.13238 0.31136 0.61258 0.0
H693 H 0.15242 0.35005 0.5798 0.0
H694 H 0.18552 0.34953 0.57989 0.0
H695 H 0.18584 0.38282 0.58459 0.0
H696 H 0.22699 0.42027 0.66935 0.0
H697 H 0.27073 0.41947 0.65933 0.0
H698 H 0.22404 0.35323 0.60711 0.0
C699 C 0.13156 0.36871 0.62058 0.0
C700 C 0.12555 0.38887 0.63124 0.0
C701 C 0.14451 0.40801 0.64839 0.0
C702 C 0.16901 0.40728 0.65501 0.0
C703 C 0.17478 0.38771 0.64394 0.0
C704 C 0.15687 0.36889 0.6269 0.0
C705 C 0.17089 0.3537 0.615 0.0
C706 C 0.15424 0.32139 0.62033 0.0
C707 C 0.17385 0.35939 0.58824 0.0
C708 C 0.19991 0.36817 0.62717 0.0
C709 C 0.20113 0.38704 0.64428 0.0
C710 C 0.22622 0.40514 0.65639 0.0
C711 C 0.25105 0.40462 0.65047 0.0
C712 C 0.2507 0.38611 0.63261 0.0
C713 C 0.22464 0.36707 0.62124 0.0
H714 H 0.85388 0.26212 0.14387 0.0
H715 H 0.91256 0.22902 0.14255 0.0
H716 H 0.87176 0.17977 0.14736 0.0
H717 H 0.79943 0.20705 0.18536 0.0
H718 H 0.77029 0.20606 0.16897 0.0
H719 H 0.80435 0.23884 0.17055 0.0
H720 H 0.80656 0.24124 0.12489 0.0
H721 H 0.77276 0.20849 0.12315 0.0
H722 H 0.80371 0.21122 0.10848 0.0
H723 H 0.82459 0.13421 0.14544 0.0
H724 H 0.77494 0.09608 0.13709 0.0
H725 H 0.7471 0.159 0.13941 0.0
C726 C 0.85825 0.24461 0.14543 0.0
C727 C 0.88633 0.24932 0.14299 0.0
C728 C 0.89117 0.22584 0.14454 0.0
C729 C 0.86815 0.19782 0.14734 0.0
C730 C 0.84052 0.19377 0.14875 0.0
C731 C 0.83552 0.21658 0.14806 0.0
C732 C 0.80379 0.20639 0.14694 0.0
C733 C 0.79388 0.2151 0.16929 0.0
C734 C 0.79629 0.21748 0.12453 0.0
C735 C 0.79175 0.1743 0.14598 0.0
C736 C 0.81321 0.1674 0.14748 0.0
C737 C 0.80754 0.13929 0.14476 0.0
C738 C 0.77931 0.1178 0.13994 0.0
C739 C 0.75723 0.12463 0.13772 0.0
C740 C 0.76348 0.15311 0.14138 0.0
H741 H 0.6577 0.77631 0.61247 0.0
H742 H 0.60131 0.7336 0.67162 0.0
H743 H 0.60112 0.77789 0.68155 0.0
H744 H 0.69664 0.85222 0.63963 0.0
H745 H 0.69705 0.8681 0.61154 0.0
H746 H 0.69958 0.83594 0.61277 0.0
H747 H 0.65583 0.81053 0.58489 0.0
H748 H 0.653 0.84236 0.58372 0.0
H749 H 0.62265 0.80887 0.59295 0.0
H750 H 0.59699 0.82062 0.67956 0.0
H751 H 0.59056 0.86053 0.66658 0.0
H752 H 0.65039 0.87844 0.60926 0.0
C753 C 0.64647 0.77686 0.62813 0.0
C754 C 0.62986 0.75177 0.64152 0.0
C755 C 0.61438 0.75268 0.6613 0.0
C756 C 0.61428 0.77783 0.66715 0.0
C757 C 0.62972 0.8019 0.653 0.0
C758 C 0.64581 0.80185 0.634 0.0
C759 C 0.65662 0.82911 0.61956 0.0
C760 C 0.68943 0.84743 0.62097 0.0
C761 C 0.64639 0.82229 0.59377 0.0
C762 C 0.64241 0.84339 0.63249 0.0
C763 C 0.62755 0.82754 0.65203 0.0
C764 C 0.60935 0.83384 0.66486 0.0
C765 C 0.60572 0.85652 0.65729 0.0
C766 C 0.62051 0.8729 0.6373 0.0
C767 C 0.63968 0.86679 0.62512 0.0
H768 H 0.76975 0.64882 0.11075 0.0
H769 H 0.71777 0.57127 0.15115 0.0
H770 H 0.7605 0.56849 0.16105 0.0
H771 H 0.81075 0.6242 0.08415 0.0
H772 H 0.8442 0.6577 0.08409 0.0
H773 H 0.81086 0.65777 0.08416 0.0
H774 H 0.82647 0.68909 0.1219 0.0
H775 H 0.85996 0.68913 0.12194 0.0
H776 H 0.83721 0.67712 0.14762 0.0
H777 H 0.80559 0.56902 0.16188 0.0
H778 H 0.85116 0.57171 0.15217 0.0
H779 H 0.87629 0.64828 0.11054 0.0
C780 C 0.76767 0.63184 0.12228 0.0
C781 C 0.74051 0.61054 0.13054 0.0
C782 C 0.73831 0.58801 0.14486 0.0
C783 C 0.76255 0.58632 0.15071 0.0
C784 C 0.78891 0.60717 0.14192 0.0
C785 C 0.79179 0.6295 0.12794 0.0
C786 C 0.82205 0.64658 0.1182 0.0
C787 C 0.82194 0.64654 0.09105 0.0
C788 C 0.83733 0.67731 0.12801 0.0
C789 C 0.83511 0.62942 0.128 0.0
C790 C 0.81565 0.60723 0.14207 0.0
C791 C 0.82129 0.58664 0.15133 0.0
C792 C 0.84722 0.58826 0.14559 0.0
C793 C 0.86727 0.61031 0.1308 0.0
C794 C 0.86153 0.63164 0.12238 0.0
H795 H 0.25189 0.84738 0.63869 0.0
H796 H 0.22829 0.91188 0.62363 0.0
H797 H 0.17704 0.87519 0.62854 0.0
H798 H 0.19839 0.79283 0.60675 0.0
H799 H 0.19262 0.76454 0.62692 0.0
H800 H 0.22706 0.79661 0.62556 0.0
H801 H 0.22472 0.80453 0.67044 0.0
H802 H 0.19017 0.77235 0.67195 0.0
H803 H 0.1944 0.80591 0.68234 0.0
H804 H 0.12831 0.82977 0.62993 0.0
H805 H 0.08699 0.78031 0.62788 0.0
H806 H 0.14353 0.74667 0.64303 0.0
C807 C 0.23603 0.85401 0.6369 0.0
C808 C 0.24399 0.88245 0.6308 0.0
C809 C 0.22259 0.89019 0.62842 0.0
C810 C 0.19348 0.86952 0.63123 0.0
C811 C 0.18632 0.84142 0.63674 0.0
C812 C 0.2071 0.8338 0.63978 0.0
C813 C 0.19407 0.80193 0.64381 0.0
C814 C 0.20359 0.78819 0.62461 0.0
C815 C 0.20126 0.79583 0.66861 0.0
C816 C 0.16264 0.79249 0.64165 0.0
C817 C 0.15847 0.81553 0.63786 0.0
C818 C 0.1313 0.81165 0.63334 0.0
C819 C 0.10797 0.78351 0.63219 0.0
C820 C 0.11207 0.75971 0.63544 0.0
C821 C 0.13965 0.76443 0.64082 0.0
H822 H 0.83765 0.58142 0.37967 0.0
H823 H 0.89945 0.67185 0.38829 0.0
H824 H 0.86017 0.68308 0.38579 0.0
H825 H 0.78879 0.59008 0.33909 0.0
H826 H 0.7576 0.56062 0.35247 0.0
H827 H 0.79102 0.56057 0.35186 0.0
H828 H 0.78881 0.5544 0.39732 0.0
H829 H 0.75556 0.55458 0.39809 0.0
H830 H 0.78545 0.57996 0.41562 0.0
H831 H 0.81297 0.68335 0.38655 0.0
H832 H 0.76269 0.67257 0.39038 0.0
H833 H 0.7332 0.58197 0.38133 0.0
C834 C 0.84306 0.60367 0.38056 0.0
C835 C 0.87154 0.62579 0.38412 0.0
C836 C 0.87772 0.6546 0.38543 0.0
C837 C 0.85557 0.66116 0.384 0.0
C838 C 0.82754 0.63867 0.38104 0.0
C839 C 0.82135 0.61052 0.37914 0.0
C840 C 0.78949 0.58995 0.37779 0.0
C841 C 0.78125 0.5744 0.35387 0.0
C842 C 0.77924 0.56848 0.39843 0.0
C843 C 0.77855 0.61075 0.37999 0.0
C844 C 0.80069 0.63881 0.38155 0.0
C845 C 0.79549 0.66149 0.38502 0.0
C846 C 0.76692 0.65519 0.38721 0.0
C847 C 0.74412 0.62646 0.38612 0.0
C848 C 0.75015 0.60417 0.3821 0.0
H849 H 0.11459 0.7703 0.8946 0.0
H850 H 0.13297 0.72234 0.84285 0.0
H851 H 0.18001 0.76483 0.83515 0.0
H852 H 0.15671 0.84339 0.86451 0.0
H853 H 0.16903 0.86135 0.89249 0.0
H854 H 0.13429 0.82947 0.89028 0.0
H855 H 0.14834 0.80584 0.92351 0.0
H856 H 0.18312 0.8374 0.92566 0.0
H857 H 0.18012 0.803 0.92022 0.0
H858 H 0.22722 0.80738 0.83866 0.0
H859 H 0.272 0.84918 0.85168 0.0
H860 H 0.22476 0.87212 0.90053 0.0
C861 C 0.12812 0.76924 0.88097 0.0
C862 C 0.12017 0.74322 0.86913 0.0
C863 C 0.13868 0.74214 0.85201 0.0
C864 C 0.16538 0.76621 0.84744 0.0
C865 C 0.17321 0.79124 0.86008 0.0
C866 C 0.1551 0.79316 0.87633 0.0
C867 C 0.17031 0.82147 0.88956 0.0
C868 C 0.15678 0.84002 0.88386 0.0
C869 C 0.17048 0.81662 0.91631 0.0
C870 C 0.20015 0.83433 0.87912 0.0
C871 C 0.20107 0.81662 0.86189 0.0
C872 C 0.22667 0.8219 0.85157 0.0
C873 C 0.25209 0.8457 0.8592 0.0
C874 C 0.2518 0.86419 0.8768 0.0
C875 C 0.22543 0.85875 0.88656 0.0
H876 H 0.40992 0.15832 0.37411 0.0
H877 H 0.32152 0.09626 0.39059 0.0
H878 H 0.30849 0.13407 0.38615 0.0
H879 H 0.41341 0.21359 0.40687 0.0
H880 H 0.43616 0.24179 0.38674 0.0
H881 H 0.43741 0.20906 0.3875 0.0
H882 H 0.4263 0.20182 0.34271 0.0
H883 H 0.42512 0.23469 0.34178 0.0
H884 H 0.39497 0.20172 0.33143 0.0
H885 H 0.30657 0.18025 0.38456 0.0
H886 H 0.31621 0.23034 0.3864 0.0
H887 H 0.40587 0.2612 0.37121 0.0
C888 C 0.38768 0.1525 0.37623 0.0
C889 C 0.36671 0.1244 0.38261 0.0
C890 C 0.33791 0.11769 0.38557 0.0
C891 C 0.33031 0.139 0.38303 0.0
C892 C 0.35172 0.16677 0.37733 0.0
C893 C 0.3798 0.17344 0.37381 0.0
C894 C 0.39933 0.20522 0.36994 0.0
C895 C 0.42295 0.21816 0.3889 0.0
C896 C 0.41218 0.2112 0.34498 0.0
C897 C 0.37812 0.21561 0.3727 0.0
C898 C 0.35066 0.19317 0.37658 0.0
C899 C 0.32791 0.19794 0.38116 0.0
C900 C 0.33356 0.22641 0.38219 0.0
C901 C 0.36175 0.24958 0.3789 0.0
C902 C 0.38404 0.24394 0.37363 0.0
H903 H 0.23223 0.35044 0.89688 0.0
H904 H 0.28153 0.42676 0.85428 0.0
H905 H 0.23867 0.43026 0.84745 0.0
H906 H 0.16274 0.32239 0.86288 0.0
H907 H 0.14138 0.31053 0.88934 0.0
H908 H 0.17477 0.31044 0.88782 0.0
H909 H 0.19236 0.34184 0.92545 0.0
H910 H 0.15919 0.34219 0.927 0.0
H911 H 0.19276 0.37554 0.92612 0.0
H912 H 0.19441 0.43101 0.84997 0.0
H913 H 0.14891 0.42776 0.86057 0.0
H914 H 0.12495 0.35044 0.90092 0.0
C915 C 0.23365 0.3673 0.88555 0.0
C916 C 0.26024 0.38817 0.87592 0.0
C917 C 0.26153 0.41043 0.86175 0.0
C918 C 0.23718 0.41258 0.85765 0.0
C919 C 0.21155 0.39234 0.86788 0.0
C920 C 0.20934 0.36997 0.88143 0.0
C921 C 0.17957 0.35304 0.89219 0.0
C922 C 0.16367 0.32227 0.88247 0.0
C923 C 0.18108 0.35318 0.91929 0.0
C924 C 0.1661 0.37028 0.88336 0.0
C925 C 0.18502 0.39259 0.86913 0.0
C926 C 0.17905 0.41323 0.86058 0.0
C927 C 0.15309 0.41125 0.86681 0.0
C928 C 0.13316 0.38861 0.88126 0.0
C929 C 0.13956 0.36758 0.88938 0.0
H930 H 0.74077 0.14865 0.37304 0.0
H931 H 0.76865 0.08784 0.38999 0.0
H932 H 0.81925 0.12644 0.38566 0.0
H933 H 0.79821 0.19171 0.32998 0.0
H934 H 0.80039 0.22463 0.33973 0.0
H935 H 0.76675 0.19142 0.3412 0.0
H936 H 0.7631 0.19958 0.38585 0.0
H937 H 0.79663 0.2327 0.38453 0.0
H938 H 0.79205 0.20525 0.40517 0.0
H939 H 0.86675 0.17338 0.38425 0.0
H940 H 0.90631 0.22381 0.38588 0.0
H941 H 0.84632 0.25268 0.3689 0.0
C942 C 0.75745 0.14325 0.37539 0.0
C943 C 0.75085 0.11529 0.38183 0.0
C944 C 0.7733 0.10915 0.38494 0.0
C945 C 0.80206 0.13091 0.38246 0.0
C946 C 0.80784 0.15848 0.37656 0.0
C947 C 0.78607 0.16456 0.37286 0.0
C948 C 0.79766 0.19615 0.36842 0.0
C949 C 0.79032 0.20127 0.34334 0.0
C950 C 0.78672 0.20917 0.38711 0.0
C951 C 0.82938 0.2072 0.37105 0.0
C952 C 0.83498 0.18521 0.37547 0.0
C953 C 0.86264 0.19068 0.38038 0.0
C954 C 0.88497 0.21937 0.38127 0.0
C955 C 0.87938 0.24211 0.37738 0.0
C956 C 0.85135 0.23577 0.37163 0.0
H957 H 0.59595 0.74511 0.87027 0.0
H958 H 0.68653 0.77455 0.87838 0.0
H959 H 0.69728 0.82484 0.8761 0.0
H960 H 0.60359 0.8037 0.83057 0.0
H961 H 0.57434 0.8051 0.8447 0.0
H962 H 0.57439 0.77167 0.84322 0.0
H963 H 0.56895 0.76679 0.88868 0.0
H964 H 0.5691 0.80022 0.89033 0.0
H965 H 0.59475 0.79534 0.90712 0.0
H966 H 0.69747 0.87177 0.87762 0.0
H967 H 0.68697 0.91128 0.8827 0.0
H968 H 0.59624 0.85069 0.87424 0.0
C969 C 0.61811 0.76212 0.87089 0.0
C970 C 0.64044 0.756 0.87435 0.0
C971 C 0.66912 0.77883 0.87562 0.0
C972 C 0.67544 0.80744 0.87429 0.0
C973 C 0.65282 0.81279 0.87162 0.0
C974 C 0.62473 0.79074 0.86978 0.0
C975 C 0.6041 0.80209 0.86922 0.0
C976 C 0.58817 0.79524 0.84551 0.0
C977 C 0.583 0.79042 0.89008 0.0
C978 C 0.62486 0.83388 0.87176 0.0
C979 C 0.6529 0.83973 0.87279 0.0
C980 C 0.67563 0.86749 0.87649 0.0
C981 C 0.66948 0.88977 0.87942 0.0
C982 C 0.64083 0.88404 0.87882 0.0
C983 C 0.61839 0.85579 0.87461 0.0
H984 H 0.36116 0.99836 0.94936 0.0
H985 H 0.30981 0.90888 0.96987 0.0
H986 H 0.3145 0.92297 0.01145 0.0
H987 H 0.41039 0.01916 0.99828 0.0
H988 H 0.41361 0.05389 1.00221 0.0
H989 H 0.40558 0.03733 0.9735 0.0
H990 H 0.36007 0.04196 0.97121 0.0
H991 H 0.36798 0.05857 0.99991 0.0
H992 H 0.33376 0.02702 0.99444 0.0
H993 H 0.3249 0.94553 0.05073 0.0
H994 H 0.34125 0.97608 0.08615 0.0
H995 H 0.38662 0.05157 0.04183 0.0
C996 C 0.3508 0.98183 0.96263 0.0
C997 C 0.33513 0.95247 0.95624 0.0
C998 C 0.32206 0.93148 0.97419 0.0
C999 C 0.3245 0.93924 0.99795 0.0
C1000 C 0.34019 0.96816 1.00373 0.0
C1001 C 0.3532 0.98923 0.98672 0.0
C1002 C 0.36945 0.01869 0.99818 0.0
C1003 C 0.40167 0.03311 0.99272 0.0
C1004 C 0.35707 0.03768 0.99048 0.0
C1005 C 0.36349 0.01067 0.02414 0.0
C1006 C 0.34647 0.98138 0.0268 0.0
C1007 C 0.3382 0.96855 0.04892 0.0
C1008 C 0.34763 0.9861 0.06897 0.0
C1009 C 0.3652 0.01622 0.06684 0.0
C1010 C 0.37314 0.02862 0.04405 0.0
H1011 H 0.37358 0.3269 0.46671 0.0
H1012 H 0.3458 0.37517 0.42358 0.0
H1013 H 0.33373 0.39266 0.4596 0.0
H1014 H 0.31859 0.30562 0.51146 0.0
H1015 H 0.34204 0.30896 0.53543 0.0
H1016 H 0.34846 0.30004 0.50629 0.0
H1017 H 0.4001 0.34349 0.50735 0.0
H1018 H 0.39381 0.3526 0.53646 0.0
H1019 H 0.40555 0.37882 0.51312 0.0
H1020 H 0.32579 0.40575 0.49959 0.0
H1021 H 0.32036 0.41268 0.5416 0.0
H1022 H 0.35233 0.35532 0.55989 0.0
C1023 C 0.36488 0.34109 0.46484 0.0
C1024 C 0.36064 0.34972 0.44231 0.0
C1025 C 0.34918 0.36826 0.44062 0.0
C1026 C 0.34231 0.37833 0.46098 0.0
C1027 C 0.3469 0.36956 0.48288 0.0
C1028 C 0.35776 0.35125 0.48501 0.0
C1029 C 0.36043 0.34511 0.51077 0.0
C1030 C 0.34123 0.31302 0.51631 0.0
C1031 C 0.39184 0.35564 0.5173 0.0
C1032 C 0.34948 0.36297 0.52277 0.0
C1033 C 0.34192 0.37691 0.50623 0.0
C1034 C 0.33153 0.3949 0.51271 0.0
C1035 C 0.32859 0.3987 0.53671 0.0
C1036 C 0.33589 0.38452 0.55414 0.0
C1037 C 0.34653 0.36641 0.54702 0.0
H1038 H 0.0585 0.38988 0.97142 0.0
H1039 H 0.98522 0.32772 0.93087 0.0
H1040 H 0.95841 0.3074 0.96782 0.0
H1041 H 0.05045 0.34291 0.02035 0.0
H1042 H 0.06087 0.3706 0.04231 0.0
H1043 H 0.07485 0.37982 0.01275 0.0
H1044 H 0.05585 0.41542 0.00953 0.0
H1045 H 0.04197 0.40644 0.0391 0.0
H1046 H 0.01848 0.40287 0.0151 0.0
H1047 H 0.93924 0.29469 0.00843 0.0
H1048 H 0.9275 0.29118 0.0506 0.0
H1049 H 0.01304 0.36146 0.06572 0.0
C1050 C 0.03684 0.37191 0.97032 0.0
C1051 C 0.02392 0.3603 0.94825 0.0
C1052 C 0.99551 0.33694 0.94755 0.0
C1053 C 0.98017 0.3252 0.96844 0.0
C1054 C 0.99356 0.33707 0.98986 0.0
C1055 C 0.02118 0.35996 0.99101 0.0
C1056 C 0.03014 0.36924 0.01636 0.0
C1057 C 0.05559 0.3654 0.02335 0.0
C1058 C 0.037 0.40033 0.02025 0.0
C1059 C 0.00307 0.34811 0.02929 0.0
C1060 C 0.98239 0.3297 0.01356 0.0
C1061 C 0.95527 0.30888 0.02092 0.0
C1062 C 0.94883 0.30712 0.04495 0.0
C1063 C 0.96939 0.32603 0.06145 0.0
C1064 C 0.99706 0.34651 0.05355 0.0
H1065 H 0.66698 0.05014 0.46921 0.0
H1066 H 0.62513 0.97468 0.42445 0.0
H1067 H 0.60764 0.94394 0.4598 0.0
H1068 H 0.68978 0.01876 0.51426 0.0
H1069 H 0.68341 0.03681 0.53827 0.0
H1070 H 0.69246 0.05314 0.50949 0.0
H1071 H 0.64634 0.05684 0.50945 0.0
H1072 H 0.63713 0.04051 0.53824 0.0
H1073 H 0.61211 0.025 0.51418 0.0
H1074 H 0.59493 0.92144 0.49934 0.0
H1075 H 0.58769 0.90778 0.54112 0.0
H1076 H 0.63771 0.99751 0.56129 0.0
C1077 C 0.65411 0.02714 0.46685 0.0
C1078 C 0.6474 0.01478 0.44403 0.0
C1079 C 0.63055 0.98462 0.44171 0.0
C1080 C 0.6205 0.96699 0.46169 0.0
C1081 C 0.62749 0.97984 0.48388 0.0
C1082 C 0.6439 0.00918 0.48665 0.0
C1083 C 0.64842 0.01735 0.5126 0.0
C1084 C 0.68042 0.0324 0.51903 0.0
C1085 C 0.63521 0.03603 0.51899 0.0
C1086 C 0.63202 0.98794 0.52396 0.0
C1087 C 0.62013 0.96671 0.50696 0.0
C1088 C 0.60411 0.93784 0.51282 0.0
C1089 C 0.60014 0.93033 0.53669 0.0
C1090 C 0.61213 0.95156 0.55458 0.0
C1091 C 0.62825 0.98081 0.54806 0.0
H1092 H 0.66896 0.6121 0.03986 0.0
H1093 H 0.64452 0.66439 0.08125 0.0
H1094 H 0.63437 0.68236 0.04453 0.0
H1095 H 0.70352 0.66316 0.99234 0.0
H1096 H 0.69087 0.63603 0.96969 0.0
H1097 H 0.69682 0.62762 0.99917 0.0
H1098 H 0.64453 0.58539 1.00083 0.0
H1099 H 0.63841 0.59367 0.97138 0.0
H1100 H 0.61545 0.59206 0.99516 0.0
H1101 H 0.62546 0.69337 0.00407 0.0
H1102 H 0.61871 0.69783 0.96184 0.0
H1103 H 0.64957 0.63904 0.94567 0.0
C1104 C 0.66158 0.62743 0.04121 0.0
C1105 C 0.65752 0.63688 0.06344 0.0
C1106 C 0.6478 0.65689 0.06445 0.0
C1107 C 0.64199 0.66721 0.04369 0.0
C1108 C 0.64612 0.65737 0.02211 0.0
C1109 C 0.65575 0.63801 0.02066 0.0
C1110 C 0.658 0.63068 0.99516 0.0
C1111 C 0.68916 0.63993 0.98872 0.0
C1112 C 0.6379 0.59854 0.99036 0.0
C1113 C 0.64793 0.64886 0.98248 0.0
C1114 C 0.6412 0.664 0.99848 0.0
C1115 C 0.63075 0.68172 0.99136 0.0
C1116 C 0.62692 0.68401 0.96726 0.0
C1117 C 0.6336 0.66876 0.95038 0.0
C1118 C 0.64446 0.65108 0.95812 0.0
H1119 H 0.98555 0.64492 0.56345 0.0
H1120 H 0.07589 0.69541 0.5456 0.0
H1121 H 0.06414 0.68609 0.50355 0.0
H1122 H 0.96748 0.59097 0.51874 0.0
H1123 H 0.93302 0.58716 0.51216 0.0
H1124 H 0.94815 0.59804 0.54122 0.0
H1125 H 0.9435 0.64359 0.53815 0.0
H1126 H 0.92823 0.63276 0.50913 0.0
H1127 H 0.95949 0.66754 0.51348 0.0
H1128 H 0.04334 0.67103 0.46339 0.0
H1129 H 0.01388 0.65192 0.42738 0.0
H1130 H 0.93708 0.61128 0.47059 0.0
C1131 C 0.00278 0.65411 0.55066 0.0
C1132 C 0.03163 0.67086 0.5579 0.0
C1133 C 0.05359 0.68242 0.54059 0.0
C1134 C 0.04719 0.67728 0.51658 0.0
C1135 C 0.01868 0.6605 0.51 0.0
C1136 C 0.99676 0.64914 0.52644 0.0
C1137 C 0.96796 0.63171 0.5144 0.0
C1138 C 0.9533 0.6001 0.52209 0.0
C1139 C 0.94866 0.64469 0.51907 0.0
C1140 C 0.97726 0.63519 0.48876 0.0
C1141 C 0.00662 0.65181 0.48665 0.0
C1142 C 0.02028 0.65798 0.46477 0.0
C1143 C 0.00341 0.64702 0.44442 0.0
C1144 C 0.97325 0.63015 0.44615 0.0
C1145 C 0.96012 0.62412 0.46866 0.0
H1146 H 0.62111 0.94943 0.9668 0.0
H1147 H 0.67218 0.02568 0.92455 0.0
H1148 H 0.68972 0.0546 0.96087 0.0
H1149 H 0.60028 0.98387 0.01081 0.0
H1150 H 0.60205 0.96306 0.03499 0.0
H1151 H 0.59383 0.94805 0.00572 0.0
H1152 H 0.63619 0.93825 0.00805 0.0
H1153 H 0.64463 0.95337 0.03728 0.0
H1154 H 0.67165 0.96739 0.01456 0.0
H1155 H 0.70186 0.07507 1.00087 0.0
H1156 H 0.70649 0.08742 0.0428 0.0
H1157 H 0.64698 0.99836 0.06046 0.0
C1158 C 0.63601 0.97222 0.96521 0.0
C1159 C 0.64538 0.98535 0.94283 0.0
C1160 C 0.66472 0.01521 0.94146 0.0
C1161 C 0.67486 0.03177 0.962 0.0
C1162 C 0.66535 0.01816 0.98373 0.0
C1163 C 0.64623 0.98914 0.98556 0.0
C1164 C 0.639 0.98015 0.01121 0.0
C1165 C 0.60688 0.96807 0.01595 0.0
C1166 C 0.64844 0.95851 0.01818 0.0
C1167 C 0.65707 0.00874 0.0235 0.0
C1168 C 0.67214 0.03021 0.00717 0.0
C1169 C 0.69014 0.0585 0.01383 0.0
C1170 C 0.69256 0.06524 0.03779 0.0
C1171 C 0.677 0.04387 0.05501 0.0
C1172 C 0.65921 0.01511 0.04775 0.0
H1173 H 0.66516 0.61356 0.47156 0.0
H1174 H 0.62261 0.64815 0.42887 0.0
H1175 H 0.60979 0.66482 0.46515 0.0
H1176 H 0.61486 0.58862 0.51967 0.0
H1177 H 0.64201 0.59804 0.54193 0.0
H1178 H 0.64753 0.58869 0.51266 0.0
H1179 H 0.6951 0.6371 0.50949 0.0
H1180 H 0.68971 0.64664 0.53872 0.0
H1181 H 0.69495 0.67014 0.51425 0.0
H1182 H 0.60175 0.67756 0.50592 0.0
H1183 H 0.5989 0.68591 0.54823 0.0
H1184 H 0.64732 0.64343 0.56457 0.0
C1185 C 0.65307 0.62459 0.46978 0.0
C1186 C 0.64481 0.62955 0.44736 0.0
C1187 C 0.62911 0.64411 0.44584 0.0
C1188 C 0.62176 0.65364 0.46635 0.0
C1189 C 0.63034 0.64844 0.48815 0.0
C1190 C 0.64565 0.63426 0.48999 0.0
C1191 C 0.65243 0.63153 0.51551 0.0
C1192 C 0.63836 0.59984 0.52287 0.0
C1193 C 0.68498 0.6473 0.51973 0.0
C1194 C 0.63857 0.64648 0.52782 0.0
C1195 C 0.62591 0.65599 0.51167 0.0
C1196 C 0.61159 0.67023 0.5187 0.0
C1197 C 0.6101 0.67484 0.54283 0.0
C1198 C 0.62291 0.66534 0.55977 0.0
C1199 C 0.63741 0.65102 0.55208 0.0
H1200 H 0.93962 0.61645 0.03793 0.0
H1201 H 0.01647 0.65403 0.08108 0.0
H1202 H 0.04616 0.67111 0.04501 0.0
H1203 H 0.96597 0.5914 0.99194 0.0
H1204 H 0.94833 0.59938 0.96859 0.0
H1205 H 0.93308 0.59141 0.99776 0.0
H1206 H 0.93333 0.63966 0.99857 0.0
H1207 H 0.9485 0.64776 0.96934 0.0
H1208 H 0.96633 0.67263 0.99314 0.0
H1209 H 0.06728 0.68169 0.00456 0.0
H1210 H 0.07902 0.68651 0.9623 0.0
H1211 H 0.98839 0.64267 0.94496 0.0
C1212 C 0.9627 0.6285 0.03983 0.0
C1213 C 0.97578 0.63396 0.06233 0.0
C1214 C 0.00602 0.64969 0.06405 0.0
C1215 C 0.02303 0.65945 0.04367 0.0
C1216 C 0.00943 0.65342 0.02177 0.0
C1217 C 0.97996 0.63846 0.0197 0.0
C1218 C 0.97075 0.63428 0.99404 0.0
C1219 C 0.95352 0.60221 0.98772 0.0
C1220 C 0.95372 0.6495 0.98845 0.0
C1221 C -0.00031 0.6489 0.98193 0.0
C1222 C 0.02166 0.65981 0.99832 0.0
C1223 C 0.05028 0.67344 0.99158 0.0
C1224 C 0.05669 0.67597 0.96748 0.0
C1225 C 0.03461 0.66501 0.95029 0.0
C1226 C 0.00571 0.65145 0.95767 0.0
H1227 H 0.32453 0.9443 0.54248 0.0
H1228 H 0.37534 0.01889 0.58654 0.0
H1229 H 0.39314 0.04916 0.55093 0.0
H1230 H 0.37586 0.96446 0.49467 0.0
H1231 H 0.34898 0.95108 0.47184 0.0
H1232 H 0.3405 0.93487 0.5007 0.0
H1233 H 0.29779 0.94404 0.50376 0.0
H1234 H 0.3061 0.96023 0.47491 0.0
H1235 H 0.30392 0.97992 0.49978 0.0
H1236 H 0.40499 0.07129 0.51146 0.0
H1237 H 0.40986 0.08526 0.46992 0.0
H1238 H 0.35122 0.99677 0.45 0.0
C1239 C 0.33948 0.967 0.54463 0.0
C1240 C 0.34861 0.97927 0.56734 0.0
C1241 C 0.36806 0.00904 0.56939 0.0
C1242 C 0.37832 0.02638 0.54925 0.0
C1243 C 0.36892 0.01363 0.5272 0.0
C1244 C 0.3499 0.98468 0.52468 0.0
C1245 C 0.34289 0.97667 0.49881 0.0
C1246 C 0.35265 0.95552 0.49105 0.0
C1247 C 0.31077 0.9645 0.49404 0.0
C1248 C 0.36085 0.00577 0.48721 0.0
C1249 C 0.37571 0.02661 0.50406 0.0
C1250 C 0.39349 0.05519 0.4981 0.0
C1251 C 0.39604 0.06286 0.47434 0.0
C1252 C 0.38086 0.04214 0.45656 0.0
C1253 C 0.36317 0.01308 0.46312 0.0
H1254 H 0.35463 0.35985 0.05822 0.0
H1255 H 0.3723 0.29173 0.04047 0.0
H1256 H 0.36512 0.29741 0.99848 0.0
H1257 H 0.29983 0.3428 0.01199 0.0
H1258 H 0.31174 0.37996 0.00588 0.0
H1259 H 0.31598 0.36925 0.03503 0.0
H1260 H 0.37033 0.40599 0.03338 0.0
H1261 H 0.36633 0.41662 0.00415 0.0
H1262 H 0.39147 0.40438 0.0094 0.0
H1263 H 0.35953 0.31192 0.95858 0.0
H1264 H 0.35327 0.33337 0.92231 0.0
H1265 H 0.33913 0.39254 0.96451 0.0
C1266 C 0.35637 0.34581 0.04548 0.0
C1267 C 0.36397 0.32531 0.05261 0.0
C1268 C 0.3666 0.30765 0.03541 0.0
C1269 C 0.36252 0.31065 0.01149 0.0
C1270 C 0.35585 0.33148 0.00489 0.0
C1271 C 0.35255 0.34868 0.02126 0.0
C1272 C 0.34645 0.37016 0.00899 0.0
C1273 C 0.31673 0.36524 0.01588 0.0
C1274 C 0.37006 0.40112 0.0143 0.0
C1275 C 0.34719 0.36243 0.9833 0.0
C1276 C 0.3526 0.34001 0.98147 0.0
C1277 C 0.35505 0.32937 0.95973 0.0
C1278 C 0.35157 0.34178 0.93921 0.0
C1279 C 0.34569 0.3646 0.94052 0.0
C1280 C 0.34355 0.37507 0.96292 0.0
H1281 H 0.05387 0.39401 0.54056 0.0
H1282 H 0.9782 0.34737 0.58438 0.0
H1283 H 0.94846 0.32814 0.54867 0.0
H1284 H 0.01999 0.41293 0.49453 0.0
H1285 H 0.03987 0.4084 0.47099 0.0
H1286 H 0.05543 0.41865 0.49997 0.0
H1287 H 0.0635 0.37507 0.50073 0.0
H1288 H 0.04789 0.36465 0.47177 0.0
H1289 H 0.03356 0.33954 0.49589 0.0
H1290 H 0.92699 0.31406 0.50895 0.0
H1291 H 0.91422 0.30581 0.46704 0.0
H1292 H 0.00354 0.36117 0.44786 0.0
C1293 C 0.03103 0.37979 0.54263 0.0
C1294 C 0.01832 0.37218 0.56528 0.0
C1295 C 0.98839 0.3535 0.56725 0.0
C1296 C 0.97133 0.34245 0.54706 0.0
C1297 C 0.98452 0.35028 0.52505 0.0
C1298 C 0.01364 0.36852 0.52263 0.0
C1299 C 0.02226 0.37343 0.49678 0.0
C1300 C 0.03514 0.40524 0.49019 0.0
C1301 C 0.04303 0.36251 0.49096 0.0
C1302 C 0.99336 0.35508 0.48508 0.0
C1303 C 0.972 0.34199 0.50184 0.0
C1304 C 0.9435 0.32417 0.49566 0.0
C1305 C 0.9365 0.31966 0.47173 0.0
C1306 C 0.95787 0.33285 0.45409 0.0
C1307 C 0.98676 0.35072 0.46091 0.0
H1308 H 0.50986 0.11839 0.11804 0.0
H1309 H 0.45103 0.02663 0.11421 0.0
H1310 H 0.49214 0.01893 0.10707 0.0
H1311 H 0.56216 0.12192 0.07391 0.0
H1312 H 0.59182 0.14902 0.09061 0.0
H1313 H 0.55747 0.1471 0.09161 0.0
H1314 H 0.55724 0.14335 0.13723 0.0
H1315 H 0.59143 0.14518 0.13639 0.0
H1316 H 0.56148 0.11533 0.15068 0.0
H1317 H 0.541 0.02163 0.10498 0.0
H1318 H 0.59164 0.03406 0.10938 0.0
H1319 H 0.61688 0.124 0.11541 0.0
C1320 C 0.50538 0.09662 0.11532 0.0
C1321 C 0.47719 0.07309 0.11679 0.0
C1322 C 0.47244 0.04501 0.11307 0.0
C1323 C 0.49566 0.04046 0.10897 0.0
C1324 C 0.52333 0.06425 0.10834 0.0
C1325 C 0.5281 0.09179 0.11126 0.0
C1326 C 0.55967 0.11369 0.11198 0.0
C1327 C 0.56828 0.13414 0.09076 0.0
C1328 C 0.56792 0.13034 0.13546 0.0
C1329 C 0.57216 0.09418 0.11005 0.0
C1330 C 0.55102 0.06578 0.10745 0.0
C1331 C 0.55767 0.04384 0.10667 0.0
C1332 C 0.5865 0.05112 0.10915 0.0
C1333 C 0.6082 0.08003 0.11278 0.0
C1334 C 0.60082 0.10173 0.11264 0.0
H1335 H 0.5107 0.59872 0.66544 0.0
H1336 H 0.55195 0.59296 0.60159 0.0
H1337 H 0.51078 0.54415 0.59435 0.0
H1338 H 0.47796 0.52329 0.68286 0.0
H1339 H 0.44626 0.52275 0.69373 0.0
H1340 H 0.48035 0.55548 0.69475 0.0
H1341 H 0.45882 0.58163 0.67125 0.0
H1342 H 0.42478 0.54905 0.6701 0.0
H1343 H 0.44196 0.56739 0.64317 0.0
H1344 H 0.46188 0.49702 0.59282 0.0
H1345 H 0.41138 0.45778 0.59714 0.0
H1346 H 0.40462 0.49671 0.66204 0.0
C1347 C 0.51139 0.58718 0.65003 0.0
C1348 C 0.5345 0.5997 0.63404 0.0
C1349 C 0.53449 0.58371 0.61416 0.0
C1350 C 0.51121 0.556 0.60992 0.0
C1351 C 0.48841 0.5446 0.62589 0.0
C1352 C 0.48861 0.55976 0.64564 0.0
C1353 C 0.46117 0.54398 0.65953 0.0
C1354 C 0.46678 0.53589 0.68417 0.0
C1355 C 0.44579 0.56156 0.66108 0.0
C1356 C 0.44496 0.51783 0.6442 0.0
C1357 C 0.46091 0.51815 0.62499 0.0
C1358 C 0.44938 0.49649 0.60795 0.0
C1359 C 0.42073 0.47429 0.61054 0.0
C1360 C 0.40402 0.47429 0.62984 0.0
C1361 C 0.41668 0.49612 0.64698 0.0
H1362 H 0.88771 0.383 0.11108 0.0
H1363 H 0.97933 0.41689 0.11623 0.0
H1364 H 0.98768 0.4656 0.10738 0.0
H1365 H 0.89084 0.43332 0.06351 0.0
H1366 H 0.86123 0.43506 0.07654 0.0
H1367 H 0.8632 0.40269 0.07898 0.0
H1368 H 0.85956 0.40444 0.12451 0.0
H1369 H 0.85769 0.43672 0.12224 0.0
H1370 H 0.88506 0.43622 0.14018 0.0
H1371 H 0.98498 0.51159 0.10498 0.0
H1372 H 0.9715 0.54925 0.10842 0.0
H1373 H 0.8818 0.48387 0.10322 0.0
C1374 C 0.90957 0.40056 0.10975 0.0
C1375 C 0.93286 0.3963 0.11439 0.0
C1376 C 0.96118 0.41974 0.11254 0.0
C1377 C 0.9661 0.44744 0.10752 0.0
C1378 C 0.94249 0.45108 0.10383 0.0
C1379 C 0.91479 0.42806 0.10447 0.0
C1380 C 0.8929 0.43759 0.10205 0.0
C1381 C 0.87606 0.42651 0.07889 0.0
C1382 C 0.87265 0.4282 0.12352 0.0
C1383 C 0.91244 0.4697 0.10138 0.0
C1384 C 0.94101 0.47725 0.10201 0.0
C1385 C 0.96269 0.5059 0.10392 0.0
C1386 C 0.95486 0.52716 0.10586 0.0
C1387 C 0.92559 0.51953 0.10612 0.0
C1388 C 0.90438 0.49051 0.103 0.0
H1389 H 0.41397 0.94482 0.63074 0.0
H1390 H 0.36024 0.86388 0.59529 0.0
H1391 H 0.40291 0.86041 0.58529 0.0
H1392 H 0.47953 0.97021 0.59171 0.0
H1393 H 0.50352 0.98482 0.61651 0.0
H1394 H 0.46983 0.98439 0.61663 0.0
H1395 H 0.45644 0.95677 0.65627 0.0
H1396 H 0.48995 0.95709 0.65625 0.0
H1397 H 0.45676 0.9235 0.6584 0.0
H1398 H 0.44857 0.86116 0.58465 0.0
H1399 H 0.49508 0.86536 0.5945 0.0
H1400 H 0.52092 0.94558 0.63064 0.0
C1401 C 0.41148 0.92696 0.62017 0.0
C1402 C 0.38399 0.90476 0.61348 0.0
C1403 C 0.38121 0.88112 0.60042 0.0
C1404 C 0.40532 0.87909 0.59453 0.0
C1405 C 0.43209 0.90082 0.60192 0.0
C1406 C 0.43545 0.92436 0.61446 0.0
C1407 C 0.46613 0.94255 0.623 0.0
C1408 C 0.48061 0.97226 0.61126 0.0
C1409 C 0.46737 0.94511 0.65008 0.0
C1410 C 0.47902 0.92478 0.61428 0.0
C1411 C 0.45906 0.90116 0.60171 0.0
C1412 C 0.46464 0.8799 0.59393 0.0
C1413 C 0.49103 0.88241 0.59962 0.0
C1414 C 0.51153 0.90601 0.61288 0.0
C1415 C 0.50582 0.92785 0.61982 0.0
H1416 H 0.58124 0.51212 0.15778 0.0
H1417 H 0.58561 0.54314 0.08661 0.0
H1418 H 0.53607 0.50329 0.07917 0.0
H1419 H 0.55121 0.44297 0.1451 0.0
H1420 H 0.52842 0.42929 0.17068 0.0
H1421 H 0.56055 0.46357 0.17201 0.0
H1422 H 0.53133 0.48767 0.1847 0.0
H1423 H 0.49893 0.45323 0.18376 0.0
H1424 H 0.50147 0.48285 0.16697 0.0
H1425 H 0.48951 0.45453 0.07784 0.0
H1426 H 0.45162 0.40349 0.08303 0.0
H1427 H 0.47981 0.40596 0.15497 0.0
C1428 C 0.57134 0.51106 0.14089 0.0
C1429 C 0.58695 0.53048 0.12276 0.0
C1430 C 0.57367 0.52851 0.10079 0.0
C1431 C 0.54561 0.50596 0.09645 0.0
C1432 C 0.53119 0.48617 0.11448 0.0
C1433 C 0.54356 0.489 0.13644 0.0
C1434 C 0.52556 0.46357 0.15209 0.0
C1435 C 0.54244 0.44901 0.16042 0.0
C1436 C 0.51361 0.47236 0.17312 0.0
C1437 C 0.50208 0.44492 0.13506 0.0
C1438 C 0.50502 0.4584 0.11363 0.0
C1439 C 0.48675 0.44404 0.09471 0.0
C1440 C 0.46538 0.41512 0.09774 0.0
C1441 C 0.46315 0.40093 0.11931 0.0
C1442 C 0.48124 0.41633 0.13824 0.0
H1443 H 0.11365 0.51838 0.62308 0.0
H1444 H 0.02362 0.45462 0.61561 0.0
H1445 H 0.01206 0.49372 0.61215 0.0
H1446 H 0.10446 0.56375 0.66 0.0
H1447 H 0.13334 0.59631 0.64774 0.0
H1448 H 0.13449 0.56356 0.64615 0.0
H1449 H 0.14011 0.56862 0.60069 0.0
H1450 H 0.13917 0.60158 0.60213 0.0
H1451 H 0.11421 0.5727 0.58351 0.0
H1452 H 0.01071 0.54096 0.61306 0.0
H1453 H 0.01945 0.59034 0.61919 0.0
H1454 H 0.11027 0.62106 0.62747 0.0
C1455 C 0.09145 0.51241 0.62038 0.0
C1456 C 0.06952 0.48336 0.6197 0.0
C1457 C 0.04082 0.47673 0.61608 0.0
C1458 C 0.03408 0.4988 0.6141 0.0
C1459 C 0.05633 0.52727 0.61556 0.0
C1460 C 0.08445 0.53395 0.61848 0.0
C1461 C 0.10441 0.5658 0.62132 0.0
C1462 C 0.12007 0.57274 0.64522 0.0
C1463 C 0.12573 0.57788 0.60068 0.0
C1464 C 0.08311 0.57616 0.62039 0.0
C1465 C 0.05552 0.55386 0.61661 0.0
C1466 C 0.03228 0.55854 0.61583 0.0
C1467 C 0.03744 0.58663 0.61932 0.0
C1468 C 0.06553 0.60947 0.62394 0.0
C1469 C 0.08854 0.60404 0.62412 0.0
H1470 H 0.87457 0.48556 0.37227 0.0
H1471 H 0.95088 0.54097 0.41291 0.0
H1472 H 0.96103 0.50101 0.41673 0.0
H1473 H 0.85336 0.4201 0.4038 0.0
H1474 H 0.84157 0.39841 0.3775 0.0
H1475 H 0.84011 0.43107 0.37904 0.0
H1476 H 0.87077 0.44943 0.34098 0.0
H1477 H 0.87238 0.41687 0.33934 0.0
H1478 H 0.90501 0.45111 0.3398 0.0
H1479 H 0.96277 0.45419 0.41516 0.0
H1480 H 0.95651 0.40603 0.40779 0.0
H1481 H 0.87939 0.38322 0.36759 0.0
C1482 C 0.89328 0.48937 0.38226 0.0
C1483 C 0.91179 0.51639 0.39247 0.0
C1484 C 0.93631 0.52042 0.405 0.0
C1485 C 0.94223 0.49785 0.40727 0.0
C1486 C 0.92351 0.47151 0.3968 0.0
C1487 C 0.89958 0.46733 0.3845 0.0
C1488 C 0.8833 0.43757 0.37406 0.0
C1489 C 0.85278 0.4208 0.38422 0.0
C1490 C 0.88285 0.43884 0.34694 0.0
C1491 C 0.90162 0.42542 0.3825 0.0
C1492 C 0.92473 0.44517 0.39561 0.0
C1493 C 0.94471 0.43859 0.40495 0.0
C1494 C 0.94096 0.41116 0.40066 0.0
C1495 C 0.91744 0.39072 0.38709 0.0
C1496 C 0.89759 0.39816 0.37806 0.0
H1497 H 0.50989 0.90105 0.85517 0.0
H1498 H 0.5544 0.95802 0.9137 0.0
H1499 H 0.51278 0.96524 0.91991 0.0
H1500 H 0.47593 0.94046 0.8331 0.0
H1501 H 0.44389 0.90797 0.82468 0.0
H1502 H 0.47798 0.90933 0.82435 0.0
H1503 H 0.45755 0.86504 0.85204 0.0
H1504 H 0.42349 0.86359 0.8525 0.0
H1505 H 0.44174 0.86606 0.8798 0.0
H1506 H 0.46344 0.96293 0.9208 0.0
H1507 H 0.41298 0.95166 0.91591 0.0
H1508 H 0.4038 0.897 0.85637 0.0
C1509 C 0.51106 0.91517 0.86928 0.0
C1510 C 0.53523 0.92877 0.88409 0.0
C1511 C 0.53601 0.94739 0.90212 0.0
C1512 C 0.5125 0.9516 0.90577 0.0
C1513 C 0.48872 0.93739 0.89096 0.0
C1514 C 0.48815 0.9198 0.87294 0.0
C1515 C 0.46018 0.90626 0.85969 0.0
C1516 C 0.46478 0.91664 0.83393 0.0
C1517 C 0.44485 0.8733 0.86112 0.0
C1518 C 0.44452 0.91809 0.87352 0.0
C1519 C 0.46118 0.93628 0.89136 0.0
C1520 C 0.45035 0.94888 0.90674 0.0
C1521 C 0.42172 0.94239 0.90385 0.0
C1522 C 0.40435 0.92327 0.88589 0.0
C1523 C 0.41629 0.91148 0.87045 0.0
H1524 H 0.46452 0.42167 0.37566 0.0
H1525 H 0.48344 0.36879 0.42139 0.0
H1526 H 0.52903 0.41123 0.43301 0.0
H1527 H 0.53174 0.46029 0.35278 0.0
H1528 H 0.53317 0.4944 0.35072 0.0
H1529 H 0.49915 0.46175 0.35001 0.0
H1530 H 0.48158 0.47929 0.3854 0.0
H1531 H 0.5156 0.51221 0.38614 0.0
H1532 H 0.50231 0.49028 0.41223 0.0
H1533 H 0.57516 0.45571 0.43406 0.0
H1534 H 0.61976 0.50058 0.4248 0.0
H1535 H 0.57271 0.52649 0.37858 0.0
C1536 C 0.47783 0.41947 0.38885 0.0
C1537 C 0.47046 0.39225 0.39803 0.0
C1538 C 0.48874 0.38963 0.41446 0.0
C1539 C 0.51457 0.41361 0.42121 0.0
C1540 C 0.52187 0.44006 0.41129 0.0
C1541 C 0.50405 0.44329 0.39555 0.0
C1542 C 0.51888 0.47332 0.38512 0.0
C1543 C 0.52085 0.47236 0.35807 0.0
C1544 C 0.50368 0.48975 0.39268 0.0
C1545 C 0.5482 0.48585 0.39656 0.0
C1546 C 0.54915 0.46637 0.41191 0.0
C1547 C 0.57454 0.47148 0.42262 0.0
C1548 C 0.59975 0.49691 0.4172 0.0
C1549 C 0.59939 0.51699 0.40136 0.0
C1550 C 0.57323 0.51176 0.39132 0.0
H1551 H 0.06868 0.48191 0.84896 0.0
H1552 H 0.04009 0.45347 0.92035 0.0
H1553 H 0.02716 0.49162 0.92464 0.0
H1554 H 0.10344 0.55253 0.85966 0.0
H1555 H 0.09416 0.56329 0.83248 0.0
H1556 H 0.09511 0.53047 0.83365 0.0
H1557 H 0.04252 0.50204 0.819 0.0
H1558 H 0.04145 0.53496 0.81755 0.0
H1559 H 0.01503 0.50516 0.83459 0.0
H1560 H 0.02556 0.53863 0.92269 0.0
H1561 H 0.03488 0.58796 0.91463 0.0
H1562 H 0.06439 0.58366 0.84444 0.0
C1563 C 0.0589 0.48319 0.86527 0.0
C1564 C 0.05537 0.46495 0.88434 0.0
C1565 C 0.04266 0.46718 0.90547 0.0
C1566 C 0.03531 0.48877 0.90802 0.0
C1567 C 0.04028 0.50733 0.88907 0.0
C1568 C 0.05134 0.50426 0.86795 0.0
C1569 C 0.05758 0.52828 0.85099 0.0
C1570 C 0.08945 0.54459 0.84381 0.0
C1571 C 0.03797 0.51692 0.82925 0.0
C1572 C 0.04995 0.54642 0.86624 0.0
C1573 C 0.03941 0.53392 0.88799 0.0
C1574 C 0.03324 0.54828 0.90554 0.0
C1575 C 0.03859 0.57625 0.90085 0.0
C1576 C 0.05046 0.58958 0.87895 0.0
C1577 C 0.05535 0.57403 0.86136 0.0
H1578 H 0.61217 0.11922 0.37024 0.0
H1579 H 0.5866 0.03947 0.40748 0.0
H1580 H 0.53794 0.03266 0.41276 0.0
H1581 H 0.57213 0.14271 0.4052 0.0
H1582 H 0.56315 0.15745 0.38025 0.0
H1583 H 0.59591 0.15617 0.38018 0.0
H1584 H 0.58097 0.12785 0.34081 0.0
H1585 H 0.54818 0.12904 0.34075 0.0
H1586 H 0.54699 0.09503 0.33896 0.0
H1587 H 0.49154 0.03462 0.41319 0.0
H1588 H 0.45179 0.04461 0.40819 0.0
H1589 H 0.50893 0.12289 0.37031 0.0
C1590 C 0.59652 0.10037 0.3797 0.0
C1591 C 0.60333 0.07994 0.38854 0.0
C1592 C 0.58194 0.05546 0.40056 0.0
C1593 C 0.55426 0.05143 0.40367 0.0
C1594 C 0.54835 0.07202 0.39461 0.0
C1595 C 0.56894 0.09597 0.38284 0.0
C1596 C 0.55721 0.11462 0.37416 0.0
C1597 C 0.57304 0.1445 0.38564 0.0
C1598 C 0.55841 0.11674 0.34707 0.0
C1599 C 0.52671 0.0975 0.38288 0.0
C1600 C 0.52192 0.07303 0.39468 0.0
C1601 C 0.49512 0.05377 0.40401 0.0
C1602 C 0.47266 0.05965 0.40107 0.0
C1603 C 0.47714 0.08457 0.38884 0.0
C1604 C 0.50466 0.10369 0.3798 0.0
H1605 H 0.51548 0.60162 0.84545 0.0
H1606 H 0.55621 0.59483 0.90922 0.0
H1607 H 0.51666 0.54475 0.91451 0.0
H1608 H 0.44516 0.5644 0.86552 0.0
H1609 H 0.43031 0.54726 0.83765 0.0
H1610 H 0.46297 0.58128 0.83833 0.0
H1611 H 0.4886 0.55955 0.81436 0.0
H1612 H 0.45596 0.52534 0.81374 0.0
H1613 H 0.48838 0.52796 0.8252 0.0
H1614 H 0.46948 0.49584 0.91395 0.0
H1615 H 0.42009 0.45491 0.90796 0.0
H1616 H 0.41302 0.49529 0.84411 0.0
C1617 C 0.5163 0.58965 0.8605 0.0
C1618 C 0.53887 0.60223 0.87699 0.0
C1619 C 0.53912 0.58562 0.89631 0.0
C1620 C 0.51679 0.55714 0.89943 0.0
C1621 C 0.49466 0.54551 0.88286 0.0
C1622 C 0.49451 0.56134 0.8637 0.0
C1623 C 0.46799 0.54479 0.84882 0.0
C1624 C 0.45059 0.56036 0.84753 0.0
C1625 C 0.47571 0.53907 0.82406 0.0
C1626 C 0.45262 0.51746 0.86298 0.0
C1627 C 0.46827 0.51787 0.88242 0.0
C1628 C 0.45724 0.49522 0.89861 0.0
C1629 C 0.42926 0.47202 0.89505 0.0
C1630 C 0.41272 0.47199 0.87563 0.0
C1631 C 0.42505 0.49469 0.85919 0.0
loop_
_geom_bond_atom_site_label_1
_geom_bond_atom_site_label_2
_geom_bond_distance
_geom_bond_site_symmetry_2
_ccdc_geom_bond_type
Co0 O1 2.216 . S
Co0 O2 2.091 . S
Co0 O4 2.004 . S
Co0 O10 2.021 . S
Co0 O12 2.137 . S
Co0 O13 2.244 . S
O1 Co0 2.216 . S
O1 C8 1.247 . S
O2 Co0 2.091 . S
O2 C8 1.261 . S
C3 O12 1.247 . S
C3 O13 1.272 . S
O4 Co0 2.004 . S
O4 C9 1.259 . S
Co5 O6 2.061 . S
Co5 O11 2.052 . S
Co5 O13 2.135 . S
O6 Co5 2.061 . S
O6 C9 1.235 . S
C7 O10 1.238 . S
C7 O11 1.241 . S
C8 O1 1.247 . S
C8 O2 1.261 . S
C9 O4 1.259 . S
C9 O6 1.235 . S
O10 Co0 2.021 . S
O10 C7 1.238 . S
O11 Co5 2.052 . S
O11 C7 1.241 . S
O12 Co0 2.137 . S
O12 C3 1.247 . S
O13 Co0 2.244 . S
O13 C3 1.272 . S
O13 Co5 2.135 . S
Co14 O15 2.216 . S
Co14 O16 2.091 . S
Co14 O18 2.004 . S
Co14 O24 2.021 . S
Co14 O26 2.137 . S
Co14 O27 2.244 . S
O15 Co14 2.216 . S
O15 C22 1.247 . S
O16 Co14 2.091 . S
O16 C22 1.261 . S
C17 O26 1.247 . S
C17 O27 1.272 . S
O18 Co14 2.004 . S
O18 C23 1.259 . S
Co19 O20 2.061 . S
Co19 O25 2.052 . S
Co19 O27 2.135 . S
O20 Co19 2.061 . S
O20 C23 1.235 . S
C21 O24 1.238 . S
C21 O25 1.241 . S
C22 O15 1.247 . S
C22 O16 1.261 . S
C23 O18 1.259 . S
C23 O20 1.235 . S
O24 Co14 2.021 . S
O24 C21 1.238 . S
O25 Co19 2.052 . S
O25 C21 1.241 . S
O26 Co14 2.137 . S
O26 C17 1.247 . S
O27 Co14 2.244 . S
O27 C17 1.272 . S
O27 Co19 2.135 . S
Co28 O29 2.216 . S
Co28 O30 2.091 . S
Co28 O32 2.004 . S
Co28 O38 2.021 . S
Co28 O40 2.137 . S
Co28 O41 2.244 . S
O29 Co28 2.216 . S
O29 C36 1.247 . S
O30 Co28 2.091 . S
O30 C36 1.261 . S
C31 O40 1.247 . S
C31 O41 1.272 . S
O32 Co28 2.004 . S
O32 C37 1.259 . S
Co33 O34 2.061 . S
Co33 O39 2.052 . S
Co33 O41 2.135 . S
O34 Co33 2.061 . S
O34 C37 1.235 . S
C35 O38 1.238 . S
C35 O39 1.241 . S
C36 O29 1.247 . S
C36 O30 1.261 . S
C37 O32 1.259 . S
C37 O34 1.235 . S
O38 Co28 2.021 . S
O38 C35 1.238 . S
O39 Co33 2.052 . S
O39 C35 1.241 . S
O40 Co28 2.137 . S
O40 C31 1.247 . S
O41 Co28 2.244 . S
O41 C31 1.272 . S
O41 Co33 2.135 . S
Co42 O43 2.216 . S
Co42 O44 2.091 . S
Co42 O46 2.004 . S
Co42 O52 2.021 . S
Co42 O54 2.137 . S
Co42 O55 2.244 . S
O43 Co42 2.216 . S
O43 C50 1.247 . S
O44 Co42 2.091 . S
O44 C50 1.261 . S
C45 O54 1.247 . S
C45 O55 1.272 . S
O46 Co42 2.004 . S
O46 C51 1.259 . S
Co47 O48 2.061 . S
Co47 O53 2.052 . S
Co47 O55 2.135 . S
O48 Co47 2.061 . S
O48 C51 1.235 . S
C49 O52 1.238 . S
C49 O53 1.241 . S
C50 O43 1.247 . S
C50 O44 1.261 . S
C51 O46 1.259 . S
C51 O48 1.235 . S
O52 Co42 2.021 . S
O52 C49 1.238 . S
O53 Co47 2.052 . S
O53 C49 1.241 . S
O54 Co42 2.137 . S
O54 C45 1.247 . S
O55 Co42 2.244 . S
O55 C45 1.272 . S
O55 Co47 2.135 . S
Co56 O57 2.216 . S
Co56 O58 2.091 . S
Co56 O60 2.004 . S
Co56 O66 2.021 . S
Co56 O68 2.137 . S
Co56 O69 2.244 . S
O57 Co56 2.216 . S
O57 C64 1.247 . S
O58 Co56 2.091 . S
O58 C64 1.261 . S
C59 O68 1.247 . S
C59 O69 1.272 . S
O60 Co56 2.004 . S
O60 C65 1.259 . S
Co61 O62 2.061 . S
Co61 O67 2.052 . S
Co61 O69 2.135 . S
O62 Co61 2.061 . S
O62 C65 1.235 . S
C63 O66 1.238 . S
C63 O67 1.241 . S
C64 O57 1.247 . S
C64 O58 1.261 . S
C65 O60 1.259 . S
C65 O62 1.235 . S
O66 Co56 2.021 . S
O66 C63 1.238 . S
O67 Co61 2.052 . S
O67 C63 1.241 . S
O68 Co56 2.137 . S
O68 C59 1.247 . S
O69 Co56 2.244 . S
O69 C59 1.272 . S
O69 Co61 2.135 . S
Co70 O71 2.216 . S
Co70 O72 2.091 . S
Co70 O74 2.004 . S
Co70 O80 2.021 . S
Co70 O82 2.137 . S
Co70 O83 2.244 . S
O71 Co70 2.216 . S
O71 C78 1.247 . S
O72 Co70 2.091 . S
O72 C78 1.261 . S
C73 O82 1.247 . S
C73 O83 1.272 . S
O74 Co70 2.004 . S
O74 C79 1.259 . S
Co75 O76 2.061 . S
Co75 O81 2.052 . S
Co75 O83 2.135 . S
O76 Co75 2.061 . S
O76 C79 1.235 . S
C77 O80 1.238 . S
C77 O81 1.241 . S
C78 O71 1.247 . S
C78 O72 1.261 . S
C79 O74 1.259 . S
C79 O76 1.235 . S
O80 Co70 2.021 . S
O80 C77 1.238 . S
O81 Co75 2.052 . S
O81 C77 1.241 . S
O82 Co70 2.137 . S
O82 C73 1.247 . S
O83 Co70 2.244 . S
O83 C73 1.272 . S
O83 Co75 2.135 . S
Co84 O85 2.216 . S
Co84 O86 2.091 . S
Co84 O88 2.004 . S
Co84 O94 2.021 . S
Co84 O96 2.137 . S
Co84 O97 2.244 . S
O85 Co84 2.216 . S
O85 C92 1.247 . S
O86 Co84 2.091 . S
O86 C92 1.261 . S
C87 O96 1.247 . S
C87 O97 1.272 . S
O88 Co84 2.004 . S
O88 C93 1.259 . S
Co89 O90 2.061 . S
Co89 O95 2.052 . S
Co89 O97 2.135 . S
O90 Co89 2.061 . S
O90 C93 1.235 . S
C91 O94 1.238 . S
C91 O95 1.241 . S
C92 O85 1.247 . S
C92 O86 1.261 . S
C93 O88 1.259 . S
C93 O90 1.235 . S
O94 Co84 2.021 . S
O94 C91 1.238 . S
O95 Co89 2.052 . S
O95 C91 1.241 . S
O96 Co84 2.137 . S
O96 C87 1.247 . S
O97 Co84 2.244 . S
O97 C87 1.272 . S
O97 Co89 2.135 . S
Co98 O99 2.216 . S
Co98 O100 2.091 . S
Co98 O102 2.004 . S
Co98 O108 2.021 . S
Co98 O110 2.137 . S
Co98 O111 2.244 . S
O99 Co98 2.216 . S
O99 C106 1.247 . S
O100 Co98 2.091 . S
O100 C106 1.261 . S
C101 O110 1.247 . S
C101 O111 1.272 . S
O102 Co98 2.004 . S
O102 C107 1.259 . S
Co103 O104 2.061 . S
Co103 O109 2.052 . S
Co103 O111 2.135 . S
O104 Co103 2.061 . S
O104 C107 1.235 . S
C105 O108 1.238 . S
C105 O109 1.241 . S
C106 O99 1.247 . S
C106 O100 1.261 . S
C107 O102 1.259 . S
C107 O104 1.235 . S
O108 Co98 2.021 . S
O108 C105 1.238 . S
O109 Co103 2.052 . S
O109 C105 1.241 . S
O110 Co98 2.137 . S
O110 C101 1.247 . S
O111 Co98 2.244 . S
O111 C101 1.272 . S
O111 Co103 2.135 . S
Co112 O113 2.216 . S
Co112 O114 2.091 . S
Co112 O116 2.004 . S
Co112 O122 2.021 . S
Co112 O124 2.137 . S
Co112 O125 2.244 . S
O113 Co112 2.216 . S
O113 C120 1.247 . S
O114 Co112 2.091 . S
O114 C120 1.261 . S
C115 O124 1.247 . S
C115 O125 1.272 . S
O116 Co112 2.004 . S
O116 C121 1.259 . S
Co117 O118 2.061 . S
Co117 O123 2.052 . S
Co117 O125 2.135 . S
O118 Co117 2.061 . S
O118 C121 1.235 . S
C119 O122 1.238 . S
C119 O123 1.241 . S
C120 O113 1.247 . S
C120 O114 1.261 . S
C121 O116 1.259 . S
C121 O118 1.235 . S
O122 Co112 2.021 . S
O122 C119 1.238 . S
O123 Co117 2.052 . S
O123 C119 1.241 . S
O124 Co112 2.137 . S
O124 C115 1.247 . S
O125 Co112 2.244 . S
O125 C115 1.272 . S
O125 Co117 2.135 . S
Co126 O127 2.216 . S
Co126 O128 2.091 . S
Co126 O130 2.004 . S
Co126 O136 2.021 . S
Co126 O138 2.137 . S
Co126 O139 2.244 . S
O127 Co126 2.216 . S
O127 C134 1.247 . S
O128 Co126 2.091 . S
O128 C134 1.261 . S
C129 O138 1.247 . S
C129 O139 1.272 . S
O130 Co126 2.004 . S
O130 C135 1.259 . S
Co131 O132 2.061 . S
Co131 O137 2.052 . S
Co131 O139 2.135 . S
O132 Co131 2.061 . S
O132 C135 1.235 . S
C133 O136 1.238 . S
C133 O137 1.241 . S
C134 O127 1.247 . S
C134 O128 1.261 . S
C135 O130 1.259 . S
C135 O132 1.235 . S
O136 Co126 2.021 . S
O136 C133 1.238 . S
O137 Co131 2.052 . S
O137 C133 1.241 . S
O138 Co126 2.137 . S
O138 C129 1.247 . S
O139 Co126 2.244 . S
O139 C129 1.272 . S
O139 Co131 2.135 . S
Co140 O141 2.216 . S
Co140 O142 2.091 . S
Co140 O144 2.004 . S
Co140 O150 2.021 . S
Co140 O152 2.137 . S
Co140 O153 2.244 . S
O141 Co140 2.216 . S
O141 C148 1.247 . S
O142 Co140 2.091 . S
O142 C148 1.261 . S
C143 O152 1.247 . S
C143 O153 1.272 . S
O144 Co140 2.004 . S
O144 C149 1.259 . S
Co145 O146 2.061 . S
Co145 O151 2.052 . S
Co145 O153 2.135 . S
O146 Co145 2.061 . S
O146 C149 1.235 . S
C147 O150 1.238 . S
C147 O151 1.241 . S
C148 O141 1.247 . S
C148 O142 1.261 . S
C149 O144 1.259 . S
C149 O146 1.235 . S
O150 Co140 2.021 . S
O150 C147 1.238 . S
O151 Co145 2.052 . S
O151 C147 1.241 . S
O152 Co140 2.137 . S
O152 C143 1.247 . S
O153 Co140 2.244 . S
O153 C143 1.272 . S
O153 Co145 2.135 . S
Co154 O155 2.216 . S
Co154 O156 2.091 . S
Co154 O158 2.004 . S
Co154 O164 2.021 . S
Co154 O166 2.137 . S
Co154 O167 2.244 . S
O155 Co154 2.216 . S
O155 C162 1.247 . S
O156 Co154 2.091 . S
O156 C162 1.261 . S
C157 O166 1.247 . S
C157 O167 1.272 . S
O158 Co154 2.004 . S
O158 C163 1.259 . S
Co159 O160 2.061 . S
Co159 O165 2.052 . S
Co159 O167 2.135 . S
O160 Co159 2.061 . S
O160 C163 1.235 . S
C161 O164 1.238 . S
C161 O165 1.241 . S
C162 O155 1.247 . S
C162 O156 1.261 . S
C163 O158 1.259 . S
C163 O160 1.235 . S
O164 Co154 2.021 . S
O164 C161 1.238 . S
O165 Co159 2.052 . S
O165 C161 1.241 . S
O166 Co154 2.137 . S
O166 C157 1.247 . S
O167 Co154 2.244 . S
O167 C157 1.272 . S
O167 Co159 2.135 . S
Co168 O169 2.216 . S
Co168 O170 2.091 . S
Co168 O172 2.004 . S
Co168 O178 2.021 . S
Co168 O180 2.137 . S
Co168 O181 2.244 . S
O169 Co168 2.216 . S
O169 C176 1.247 . S
O170 Co168 2.091 . S
O170 C176 1.261 . S
C171 O180 1.247 . S
C171 O181 1.272 . S
O172 Co168 2.004 . S
O172 C177 1.259 . S
Co173 O174 2.061 . S
Co173 O179 2.052 . S
Co173 O181 2.135 . S
O174 Co173 2.061 . S
O174 C177 1.235 . S
C175 O178 1.238 . S
C175 O179 1.241 . S
C176 O169 1.247 . S
C176 O170 1.261 . S
C177 O172 1.259 . S
C177 O174 1.235 . S
O178 Co168 2.021 . S
O178 C175 1.238 . S
O179 Co173 2.052 . S
O179 C175 1.241 . S
O180 Co168 2.137 . S
O180 C171 1.247 . S
O181 Co168 2.244 . S
O181 C171 1.272 . S
O181 Co173 2.135 . S
Co182 O183 2.216 . S
Co182 O184 2.091 . S
Co182 O186 2.004 . S
Co182 O192 2.021 . S
Co182 O194 2.137 . S
Co182 O195 2.244 . S
O183 Co182 2.216 . S
O183 C190 1.247 . S
O184 Co182 2.091 . S
O184 C190 1.261 . S
C185 O194 1.247 . S
C185 O195 1.272 . S
O186 Co182 2.004 . S
O186 C191 1.259 . S
Co187 O188 2.061 . S
Co187 O193 2.052 . S
Co187 O195 2.135 . S
O188 Co187 2.061 . S
O188 C191 1.235 . S
C189 O192 1.238 . S
C189 O193 1.241 . S
C190 O183 1.247 . S
C190 O184 1.261 . S
C191 O186 1.259 . S
C191 O188 1.235 . S
O192 Co182 2.021 . S
O192 C189 1.238 . S
O193 Co187 2.052 . S
O193 C189 1.241 . S
O194 Co182 2.137 . S
O194 C185 1.247 . S
O195 Co182 2.244 . S
O195 C185 1.272 . S
O195 Co187 2.135 . S
Co196 O197 2.216 . S
Co196 O198 2.091 . S
Co196 O200 2.004 . S
Co196 O206 2.021 . S
Co196 O208 2.137 . S
Co196 O209 2.244 . S
O197 Co196 2.216 . S
O197 C204 1.247 . S
O198 Co196 2.091 . S
O198 C204 1.261 . S
C199 O208 1.247 . S
C199 O209 1.272 . S
O200 Co196 2.004 . S
O200 C205 1.259 . S
Co201 O202 2.061 . S
Co201 O207 2.052 . S
Co201 O209 2.135 . S
O202 Co201 2.061 . S
O202 C205 1.235 . S
C203 O206 1.238 . S
C203 O207 1.241 . S
C204 O197 1.247 . S
C204 O198 1.261 . S
C205 O200 1.259 . S
C205 O202 1.235 . S
O206 Co196 2.021 . S
O206 C203 1.238 . S
O207 Co201 2.052 . S
O207 C203 1.241 . S
O208 Co196 2.137 . S
O208 C199 1.247 . S
O209 Co196 2.244 . S
O209 C199 1.272 . S
O209 Co201 2.135 . S
Co210 O211 2.216 . S
Co210 O212 2.091 . S
Co210 O214 2.004 . S
Co210 O220 2.021 . S
Co210 O222 2.137 . S
Co210 O223 2.244 . S
O211 Co210 2.216 . S
O211 C218 1.247 . S
O212 Co210 2.091 . S
O212 C218 1.261 . S
C213 O222 1.247 . S
C213 O223 1.272 . S
O214 Co210 2.004 . S
O214 C219 1.259 . S
Co215 O216 2.061 . S
Co215 O221 2.052 . S
Co215 O223 2.135 . S
O216 Co215 2.061 . S
O216 C219 1.235 . S
C217 O220 1.238 . S
C217 O221 1.241 . S
C218 O211 1.247 . S
C218 O212 1.261 . S
C219 O214 1.259 . S
C219 O216 1.235 . S
O220 Co210 2.021 . S
O220 C217 1.238 . S
O221 Co215 2.052 . S
O221 C217 1.241 . S
O222 Co210 2.137 . S
O222 C213 1.247 . S
O223 Co210 2.244 . S
O223 C213 1.272 . S
O223 Co215 2.135 . S
Co224 O225 2.216 . S
Co224 O226 2.091 . S
Co224 O228 2.004 . S
Co224 O234 2.021 . S
Co224 O236 2.137 . S
Co224 O237 2.244 . S
O225 Co224 2.216 . S
O225 C232 1.247 . S
O226 Co224 2.091 . S
O226 C232 1.261 . S
C227 O236 1.247 . S
C227 O237 1.272 . S
O228 Co224 2.004 . S
O228 C233 1.259 . S
Co229 O230 2.061 . S
Co229 O235 2.052 . S
Co229 O237 2.135 . S
O230 Co229 2.061 . S
O230 C233 1.235 . S
C231 O234 1.238 . S
C231 O235 1.241 . S
C232 O225 1.247 . S
C232 O226 1.261 . S
C233 O228 1.259 . S
C233 O230 1.235 . S
O234 Co224 2.021 . S
O234 C231 1.238 . S
O235 Co229 2.052 . S
O235 C231 1.241 . S
O236 Co224 2.137 . S
O236 C227 1.247 . S
O237 Co224 2.244 . S
O237 C227 1.272 . S
O237 Co229 2.135 . S
Co238 O239 2.216 . S
Co238 O240 2.091 . S
Co238 O242 2.004 . S
Co238 O248 2.021 . S
Co238 O250 2.137 . S
Co238 O251 2.244 . S
O239 Co238 2.216 . S
O239 C246 1.247 . S
O240 Co238 2.091 . S
O240 C246 1.261 . S
C241 O250 1.247 . S
C241 O251 1.272 . S
O242 Co238 2.004 . S
O242 C247 1.259 . S
Co243 O244 2.061 . S
Co243 O249 2.052 . S
Co243 O251 2.135 . S
O244 Co243 2.061 . S
O244 C247 1.235 . S
C245 O248 1.238 . S
C245 O249 1.241 . S
C246 O239 1.247 . S
C246 O240 1.261 . S
C247 O242 1.259 . S
C247 O244 1.235 . S
O248 Co238 2.021 . S
O248 C245 1.238 . S
O249 Co243 2.052 . S
O249 C245 1.241 . S
O250 Co238 2.137 . S
O250 C241 1.247 . S
O251 Co238 2.244 . S
O251 C241 1.272 . S
O251 Co243 2.135 . S
Co252 O253 2.216 . S
Co252 O254 2.091 . S
Co252 O256 2.004 . S
Co252 O262 2.021 . S
Co252 O264 2.137 . S
Co252 O265 2.244 . S
O253 Co252 2.216 . S
O253 C260 1.247 . S
O254 Co252 2.091 . S
O254 C260 1.261 . S
C255 O264 1.247 . S
C255 O265 1.272 . S
O256 Co252 2.004 . S
O256 C261 1.259 . S
Co257 O258 2.061 . S
Co257 O263 2.052 . S
Co257 O265 2.135 . S
O258 Co257 2.061 . S
O258 C261 1.235 . S
C259 O262 1.238 . S
C259 O263 1.241 . S
C260 O253 1.247 . S
C260 O254 1.261 . S
C261 O256 1.259 . S
C261 O258 1.235 . S
O262 Co252 2.021 . S
O262 C259 1.238 . S
O263 Co257 2.052 . S
O263 C259 1.241 . S
O264 Co252 2.137 . S
O264 C255 1.247 . S
O265 Co252 2.244 . S
O265 C255 1.272 . S
O265 Co257 2.135 . S
Co266 O267 2.216 . S
Co266 O268 2.091 . S
Co266 O270 2.004 . S
Co266 O276 2.021 . S
Co266 O278 2.137 . S
Co266 O279 2.244 . S
O267 Co266 2.216 . S
O267 C274 1.247 . S
O268 Co266 2.091 . S
O268 C274 1.261 . S
C269 O278 1.247 . S
C269 O279 1.272 . S
O270 Co266 2.004 . S
O270 C275 1.259 . S
Co271 O272 2.061 . S
Co271 O277 2.052 . S
Co271 O279 2.135 . S
O272 Co271 2.061 . S
O272 C275 1.235 . S
C273 O276 1.238 . S
C273 O277 1.241 . S
C274 O267 1.247 . S
C274 O268 1.261 . S
C275 O270 1.259 . S
C275 O272 1.235 . S
O276 Co266 2.021 . S
O276 C273 1.238 . S
O277 Co271 2.052 . S
O277 C273 1.241 . S
O278 Co266 2.137 . S
O278 C269 1.247 . S
O279 Co266 2.244 . S
O279 C269 1.272 . S
O279 Co271 2.135 . S
Co280 O281 2.216 . S
Co280 O282 2.091 . S
Co280 O284 2.004 . S
Co280 O290 2.021 . S
Co280 O292 2.137 . S
Co280 O293 2.244 . S
O281 Co280 2.216 . S
O281 C288 1.247 . S
O282 Co280 2.091 . S
O282 C288 1.261 . S
C283 O292 1.247 . S
C283 O293 1.272 . S
O284 Co280 2.004 . S
O284 C289 1.259 . S
Co285 O286 2.061 . S
Co285 O291 2.052 . S
Co285 O293 2.135 . S
O286 Co285 2.061 . S
O286 C289 1.235 . S
C287 O290 1.238 . S
C287 O291 1.241 . S
C288 O281 1.247 . S
C288 O282 1.261 . S
C289 O284 1.259 . S
C289 O286 1.235 . S
O290 Co280 2.021 . S
O290 C287 1.238 . S
O291 Co285 2.052 . S
O291 C287 1.241 . S
O292 Co280 2.137 . S
O292 C283 1.247 . S
O293 Co280 2.244 . S
O293 C283 1.272 . S
O293 Co285 2.135 . S
Co294 O295 2.216 . S
Co294 O296 2.091 . S
Co294 O298 2.004 . S
Co294 O304 2.021 . S
Co294 O306 2.137 . S
Co294 O307 2.244 . S
O295 Co294 2.216 . S
O295 C302 1.247 . S
O296 Co294 2.091 . S
O296 C302 1.261 . S
C297 O306 1.247 . S
C297 O307 1.272 . S
O298 Co294 2.004 . S
O298 C303 1.259 . S
Co299 O300 2.061 . S
Co299 O305 2.052 . S
Co299 O307 2.135 . S
O300 Co299 2.061 . S
O300 C303 1.235 . S
C301 O304 1.238 . S
C301 O305 1.241 . S
C302 O295 1.247 . S
C302 O296 1.261 . S
C303 O298 1.259 . S
C303 O300 1.235 . S
O304 Co294 2.021 . S
O304 C301 1.238 . S
O305 Co299 2.052 . S
O305 C301 1.241 . S
O306 Co294 2.137 . S
O306 C297 1.247 . S
O307 Co294 2.244 . S
O307 C297 1.272 . S
O307 Co299 2.135 . S
Co308 O309 2.216 . S
Co308 O310 2.091 . S
Co308 O312 2.004 . S
Co308 O318 2.021 . S
Co308 O320 2.137 . S
Co308 O321 2.244 . S
O309 Co308 2.216 . S
O309 C316 1.247 . S
O310 Co308 2.091 . S
O310 C316 1.261 . S
C311 O320 1.247 . S
C311 O321 1.272 . S
O312 Co308 2.004 . S
O312 C317 1.259 . S
Co313 O314 2.061 . S
Co313 O319 2.052 . S
Co313 O321 2.135 . S
O314 Co313 2.061 . S
O314 C317 1.235 . S
C315 O318 1.238 . S
C315 O319 1.241 . S
C316 O309 1.247 . S
C316 O310 1.261 . S
C317 O312 1.259 . S
C317 O314 1.235 . S
O318 Co308 2.021 . S
O318 C315 1.238 . S
O319 Co313 2.052 . S
O319 C315 1.241 . S
O320 Co308 2.137 . S
O320 C311 1.247 . S
O321 Co308 2.244 . S
O321 C311 1.272 . S
O321 Co313 2.135 . S
Co322 O323 2.216 . S
Co322 O324 2.091 . S
Co322 O326 2.004 . S
Co322 O332 2.021 . S
Co322 O334 2.137 . S
Co322 O335 2.244 . S
O323 Co322 2.216 . S
O323 C330 1.247 . S
O324 Co322 2.091 . S
O324 C330 1.261 . S
C325 O334 1.247 . S
C325 O335 1.272 . S
O326 Co322 2.004 . S
O326 C331 1.259 . S
Co327 O328 2.061 . S
Co327 O333 2.052 . S
Co327 O335 2.135 . S
O328 Co327 2.061 . S
O328 C331 1.235 . S
C329 O332 1.238 . S
C329 O333 1.241 . S
C330 O323 1.247 . S
C330 O324 1.261 . S
C331 O326 1.259 . S
C331 O328 1.235 . S
O332 Co322 2.021 . S
O332 C329 1.238 . S
O333 Co327 2.052 . S
O333 C329 1.241 . S
O334 Co322 2.137 . S
O334 C325 1.247 . S
O335 Co322 2.244 . S
O335 C325 1.272 . S
O335 Co327 2.135 . S
H336 C348 0.930 . S
H337 C350 0.930 1_565 S
H338 C351 0.930 1_565 S
H339 C355 0.959 . S
H340 C355 0.959 . S
H341 C355 0.961 . S
H342 C356 0.960 . S
H343 C356 0.961 . S
H344 C356 0.959 . S
H345 C359 0.929 1_565 S
H346 C360 0.931 1_565 S
H347 C362 0.930 . S
C348 H336 0.930 . S
C348 C349 1.399 . S
C348 C353 1.399 . S
C349 C348 1.399 . S
C349 C350 1.376 . S
C350 H337 0.930 1_545 S
C350 C349 1.376 . S
C350 C351 1.388 . S
C351 H338 0.930 1_545 S
C351 C350 1.388 . S
C351 C352 1.390 . S
C352 C351 1.390 . S
C352 C353 1.394 . S
C352 C358 1.465 . S
C353 C348 1.399 . S
C353 C352 1.394 . S
C353 C354 1.516 . S
C354 C353 1.516 . S
C354 C355 1.502 . S
C354 C356 1.561 . S
C354 C357 1.526 . S
C355 H339 0.959 . S
C355 H340 0.959 . S
C355 H341 0.961 . S
C355 C354 1.502 . S
C356 H342 0.960 . S
C356 H343 0.961 . S
C356 H344 0.959 . S
C356 C354 1.561 . S
C357 C354 1.526 . S
C357 C358 1.396 . S
C357 C362 1.390 . S
C358 C352 1.465 . S
C358 C357 1.396 . S
C358 C359 1.399 . S
C359 H345 0.929 1_545 S
C359 C358 1.399 . S
C359 C360 1.385 . S
C360 H346 0.931 1_545 S
C360 C359 1.385 . S
C360 C361 1.389 . S
C361 C360 1.389 . S
C361 C362 1.387 . S
C362 H347 0.930 . S
C362 C357 1.390 . S
C362 C361 1.387 . S
H363 C375 0.930 . S
H364 C377 0.930 . S
H365 C378 0.930 . S
H366 C382 0.959 . S
H367 C382 0.959 . S
H368 C382 0.961 . S
H369 C383 0.960 . S
H370 C383 0.961 . S
H371 C383 0.959 . S
H372 C386 0.929 . S
H373 C387 0.931 . S
H374 C389 0.930 . S
C375 H363 0.930 . S
C375 C376 1.399 . S
C375 C380 1.399 . S
C376 C375 1.399 . S
C376 C377 1.376 . S
C377 H364 0.930 . S
C377 C376 1.376 . S
C377 C378 1.388 . S
C378 H365 0.930 . S
C378 C377 1.388 . S
C378 C379 1.390 . S
C379 C378 1.390 . S
C379 C380 1.394 . S
C379 C385 1.465 . S
C380 C375 1.399 . S
C380 C379 1.394 . S
C380 C381 1.516 . S
C381 C380 1.516 . S
C381 C382 1.502 . S
C381 C383 1.561 . S
C381 C384 1.526 . S
C382 H366 0.959 . S
C382 H367 0.959 . S
C382 H368 0.961 . S
C382 C381 1.502 . S
C383 H369 0.960 . S
C383 H370 0.961 . S
C383 H371 0.959 . S
C383 C381 1.561 . S
C384 C381 1.526 . S
C384 C385 1.396 . S
C384 C389 1.390 . S
C385 C379 1.465 . S
C385 C384 1.396 . S
C385 C386 1.399 . S
C386 H372 0.929 . S
C386 C385 1.399 . S
C386 C387 1.385 . S
C387 H373 0.931 . S
C387 C386 1.385 . S
C387 C388 1.389 . S
C388 C387 1.389 . S
C388 C389 1.387 . S
C389 H374 0.930 . S
C389 C384 1.390 . S
C389 C388 1.387 . S
H390 C402 0.930 . S
H391 C404 0.930 . S
H392 C405 0.930 . S
H393 C409 0.959 . S
H394 C409 0.959 . S
H395 C409 0.961 . S
H396 C410 0.960 1_455 S
H397 C410 0.961 1_455 S
H398 C410 0.959 . S
H399 C413 0.929 . S
H400 C414 0.931 . S
H401 C416 0.930 . S
C402 H390 0.930 . S
C402 C403 1.399 . S
C402 C407 1.399 . S
C403 C402 1.399 . S
C403 C404 1.376 . S
C404 H391 0.930 . S
C404 C403 1.376 . S
C404 C405 1.388 . S
C405 H392 0.930 . S
C405 C404 1.388 . S
C405 C406 1.390 . S
C406 C405 1.390 . S
C406 C407 1.394 . S
C406 C412 1.465 . S
C407 C402 1.399 . S
C407 C406 1.394 . S
C407 C408 1.516 . S
C408 C407 1.516 . S
C408 C409 1.502 1_655 S
C408 C410 1.561 . S
C408 C411 1.526 . S
C409 H393 0.959 . S
C409 H394 0.959 . S
C409 H395 0.961 . S
C409 C408 1.502 1_455 S
C410 H396 0.960 1_655 S
C410 H397 0.961 1_655 S
C410 H398 0.959 . S
C410 C408 1.561 . S
C411 C408 1.526 . S
C411 C412 1.396 . S
C411 C416 1.390 . S
C412 C406 1.465 . S
C412 C411 1.396 . S
C412 C413 1.399 . S
C413 H399 0.929 . S
C413 C412 1.399 . S
C413 C414 1.385 . S
C414 H400 0.931 . S
C414 C413 1.385 . S
C414 C415 1.389 . S
C415 C414 1.389 . S
C415 C416 1.387 . S
C416 H401 0.930 . S
C416 C411 1.390 . S
C416 C415 1.387 . S
H417 C429 0.930 . S
H418 C431 0.930 . S
H419 C432 0.930 . S
H420 C436 0.959 1_565 S
H421 C436 0.959 . S
H422 C436 0.961 . S
H423 C437 0.960 . S
H424 C437 0.961 . S
H425 C437 0.959 . S
H426 C440 0.929 . S
H427 C441 0.931 . S
H428 C443 0.930 . S
C429 H417 0.930 . S
C429 C430 1.399 . S
C429 C434 1.399 . S
C430 C429 1.399 . S
C430 C431 1.376 . S
C431 H418 0.930 . S
C431 C430 1.376 . S
C431 C432 1.388 . S
C432 H419 0.930 . S
C432 C431 1.388 . S
C432 C433 1.390 . S
C433 C432 1.390 . S
C433 C434 1.394 . S
C433 C439 1.465 . S
C434 C429 1.399 . S
C434 C433 1.394 . S
C434 C435 1.516 . S
C435 C434 1.516 . S
C435 C436 1.502 1_565 S
C435 C437 1.561 1_565 S
C435 C438 1.526 . S
C436 H420 0.959 1_545 S
C436 H421 0.959 . S
C436 H422 0.961 . S
C436 C435 1.502 1_545 S
C437 H423 0.960 . S
C437 H424 0.961 . S
C437 H425 0.959 . S
C437 C435 1.561 1_545 S
C438 C435 1.526 . S
C438 C439 1.396 . S
C438 C443 1.390 . S
C439 C433 1.465 . S
C439 C438 1.396 . S
C439 C440 1.399 . S
C440 H426 0.929 . S
C440 C439 1.399 . S
C440 C441 1.385 . S
C441 H427 0.931 . S
C441 C440 1.385 . S
C441 C442 1.389 . S
C442 C441 1.389 . S
C442 C443 1.387 . S
C443 H428 0.930 . S
C443 C438 1.390 . S
C443 C442 1.387 . S
H444 C456 0.930 . S
H445 C458 0.930 . S
H446 C459 0.930 . S
H447 C463 0.959 . S
H448 C463 0.959 . S
H449 C463 0.961 . S
H450 C464 0.960 . S
H451 C464 0.961 . S
H452 C464 0.959 . S
H453 C467 0.929 . S
H454 C468 0.931 . S
H455 C470 0.930 . S
C456 H444 0.930 . S
C456 C457 1.399 . S
C456 C461 1.399 . S
C457 C456 1.399 . S
C457 C458 1.376 . S
C458 H445 0.930 . S
C458 C457 1.376 . S
C458 C459 1.388 . S
C459 H446 0.930 . S
C459 C458 1.388 . S
C459 C460 1.390 . S
C460 C459 1.390 . S
C460 C461 1.394 . S
C460 C466 1.465 . S
C461 C456 1.399 . S
C461 C460 1.394 . S
C461 C462 1.516 . S
C462 C461 1.516 . S
C462 C463 1.502 . S
C462 C464 1.561 . S
C462 C465 1.526 . S
C463 H447 0.959 . S
C463 H448 0.959 . S
C463 H449 0.961 . S
C463 C462 1.502 . S
C464 H450 0.960 . S
C464 H451 0.961 . S
C464 H452 0.959 . S
C464 C462 1.561 . S
C465 C462 1.526 . S
C465 C466 1.396 . S
C465 C470 1.390 . S
C466 C460 1.465 . S
C466 C465 1.396 . S
C466 C467 1.399 . S
C467 H453 0.929 . S
C467 C466 1.399 . S
C467 C468 1.385 . S
C468 H454 0.931 . S
C468 C467 1.385 . S
C468 C469 1.389 . S
C469 C468 1.389 . S
C469 C470 1.387 . S
C470 H455 0.930 . S
C470 C465 1.390 . S
C470 C469 1.387 . S
H471 C483 0.930 . S
H472 C485 0.930 . S
H473 C486 0.930 . S
H474 C490 0.959 . S
H475 C490 0.959 . S
H476 C490 0.961 . S
H477 C491 0.960 . S
H478 C491 0.961 . S
H479 C491 0.959 . S
H480 C494 0.929 . S
H481 C495 0.931 . S
H482 C497 0.930 . S
C483 H471 0.930 . S
C483 C484 1.399 . S
C483 C488 1.399 . S
C484 C483 1.399 . S
C484 C485 1.376 . S
C485 H472 0.930 . S
C485 C484 1.376 . S
C485 C486 1.388 . S
C486 H473 0.930 . S
C486 C485 1.388 . S
C486 C487 1.390 . S
C487 C486 1.390 . S
C487 C488 1.394 . S
C487 C493 1.465 . S
C488 C483 1.399 . S
C488 C487 1.394 . S
C488 C489 1.516 . S
C489 C488 1.516 . S
C489 C490 1.502 1_455 S
C489 C491 1.561 . S
C489 C492 1.526 . S
C490 H474 0.959 . S
C490 H475 0.959 . S
C490 H476 0.961 . S
C490 C489 1.502 1_655 S
C491 H477 0.960 . S
C491 H478 0.961 . S
C491 H479 0.959 . S
C491 C489 1.561 . S
C492 C489 1.526 . S
C492 C493 1.396 . S
C492 C497 1.390 . S
C493 C487 1.465 . S
C493 C492 1.396 . S
C493 C494 1.399 . S
C494 H480 0.929 . S
C494 C493 1.399 . S
C494 C495 1.385 . S
C495 H481 0.931 . S
C495 C494 1.385 . S
C495 C496 1.389 . S
C496 C495 1.389 . S
C496 C497 1.387 . S
C497 H482 0.930 . S
C497 C492 1.390 . S
C497 C496 1.387 . S
H498 C510 0.930 . S
H499 C512 0.930 . S
H500 C513 0.930 1_455 S
H501 C517 0.959 . S
H502 C517 0.959 . S
H503 C517 0.961 . S
H504 C518 0.960 . S
H505 C518 0.961 . S
H506 C518 0.959 . S
H507 C521 0.929 1_455 S
H508 C522 0.931 . S
H509 C524 0.930 . S
C510 H498 0.930 . S
C510 C511 1.399 . S
C510 C515 1.399 . S
C511 C510 1.399 . S
C511 C512 1.376 . S
C512 H499 0.930 . S
C512 C511 1.376 . S
C512 C513 1.388 . S
C513 H500 0.930 1_655 S
C513 C512 1.388 . S
C513 C514 1.390 . S
C514 C513 1.390 . S
C514 C515 1.394 . S
C514 C520 1.465 . S
C515 C510 1.399 . S
C515 C514 1.394 . S
C515 C516 1.516 . S
C516 C515 1.516 . S
C516 C517 1.502 . S
C516 C518 1.561 . S
C516 C519 1.526 . S
C517 H501 0.959 . S
C517 H502 0.959 . S
C517 H503 0.961 . S
C517 C516 1.502 . S
C518 H504 0.960 . S
C518 H505 0.961 . S
C518 H506 0.959 . S
C518 C516 1.561 . S
C519 C516 1.526 . S
C519 C520 1.396 . S
C519 C524 1.390 . S
C520 C514 1.465 . S
C520 C519 1.396 . S
C520 C521 1.399 . S
C521 H507 0.929 1_655 S
C521 C520 1.399 . S
C521 C522 1.385 . S
C522 H508 0.931 . S
C522 C521 1.385 . S
C522 C523 1.389 . S
C523 C522 1.389 . S
C523 C524 1.387 . S
C524 H509 0.930 . S
C524 C519 1.390 . S
C524 C523 1.387 . S
H525 C537 0.930 . S
H526 C539 0.930 1_545 S
H527 C540 0.930 1_545 S
H528 C544 0.959 . S
H529 C544 0.959 . S
H530 C544 0.961 . S
H531 C545 0.960 . S
H532 C545 0.961 . S
H533 C545 0.959 . S
H534 C548 0.929 1_545 S
H535 C549 0.931 1_545 S
H536 C551 0.930 . S
C537 H525 0.930 . S
C537 C538 1.399 . S
C537 C542 1.399 . S
C538 C537 1.399 . S
C538 C539 1.376 . S
C539 H526 0.930 1_565 S
C539 C538 1.376 . S
C539 C540 1.388 . S
C540 H527 0.930 1_565 S
C540 C539 1.388 . S
C540 C541 1.390 . S
C541 C540 1.390 . S
C541 C542 1.394 . S
C541 C547 1.465 . S
C542 C537 1.399 . S
C542 C541 1.394 . S
C542 C543 1.516 . S
C543 C542 1.516 . S
C543 C544 1.502 . S
C543 C545 1.561 . S
C543 C546 1.526 . S
C544 H528 0.959 . S
C544 H529 0.959 . S
C544 H530 0.961 . S
C544 C543 1.502 . S
C545 H531 0.960 . S
C545 H532 0.961 . S
C545 H533 0.959 . S
C545 C543 1.561 . S
C546 C543 1.526 . S
C546 C547 1.396 . S
C546 C551 1.390 . S
C547 C541 1.465 . S
C547 C546 1.396 . S
C547 C548 1.399 . S
C548 H534 0.929 1_565 S
C548 C547 1.399 . S
C548 C549 1.385 . S
C549 H535 0.931 1_565 S
C549 C548 1.385 . S
C549 C550 1.389 . S
C550 C549 1.389 . S
C550 C551 1.387 . S
C551 H536 0.930 . S
C551 C546 1.390 . S
C551 C550 1.387 . S
H552 C564 0.930 . S
H553 C566 0.930 . S
H554 C567 0.930 . S
H555 C571 0.959 . S
H556 C571 0.959 . S
H557 C571 0.961 . S
H558 C572 0.960 . S
H559 C572 0.961 . S
H560 C572 0.959 . S
H561 C575 0.929 . S
H562 C576 0.931 . S
H563 C578 0.930 . S
C564 H552 0.930 . S
C564 C565 1.399 . S
C564 C569 1.399 . S
C565 C564 1.399 . S
C565 C566 1.376 . S
C566 H553 0.930 . S
C566 C565 1.376 . S
C566 C567 1.388 . S
C567 H554 0.930 . S
C567 C566 1.388 . S
C567 C568 1.390 . S
C568 C567 1.390 . S
C568 C569 1.394 . S
C568 C574 1.465 . S
C569 C564 1.399 . S
C569 C568 1.394 . S
C569 C570 1.516 . S
C570 C569 1.516 . S
C570 C571 1.502 . S
C570 C572 1.561 . S
C570 C573 1.526 . S
C571 H555 0.959 . S
C571 H556 0.959 . S
C571 H557 0.961 . S
C571 C570 1.502 . S
C572 H558 0.960 . S
C572 H559 0.961 . S
C572 H560 0.959 . S
C572 C570 1.561 . S
C573 C570 1.526 . S
C573 C574 1.396 . S
C573 C578 1.390 . S
C574 C568 1.465 . S
C574 C573 1.396 . S
C574 C575 1.399 . S
C575 H561 0.929 . S
C575 C574 1.399 . S
C575 C576 1.385 . S
C576 H562 0.931 . S
C576 C575 1.385 . S
C576 C577 1.389 . S
C577 C576 1.389 . S
C577 C578 1.387 . S
C578 H563 0.930 . S
C578 C573 1.390 . S
C578 C577 1.387 . S
H579 C591 0.930 . S
H580 C593 0.930 . S
H581 C594 0.930 . S
H582 C598 0.959 . S
H583 C598 0.959 . S
H584 C598 0.961 . S
H585 C599 0.960 . S
H586 C599 0.961 . S
H587 C599 0.959 . S
H588 C602 0.929 . S
H589 C603 0.931 . S
H590 C605 0.930 . S
C591 H579 0.930 . S
C591 C592 1.399 . S
C591 C596 1.399 . S
C592 C591 1.399 . S
C592 C593 1.376 . S
C593 H580 0.930 . S
C593 C592 1.376 . S
C593 C594 1.388 . S
C594 H581 0.930 . S
C594 C593 1.388 . S
C594 C595 1.390 . S
C595 C594 1.390 . S
C595 C596 1.394 . S
C595 C601 1.465 . S
C596 C591 1.399 . S
C596 C595 1.394 . S
C596 C597 1.516 . S
C597 C596 1.516 . S
C597 C598 1.502 1_455 S
C597 C599 1.561 . S
C597 C600 1.526 . S
C598 H582 0.959 . S
C598 H583 0.959 . S
C598 H584 0.961 . S
C598 C597 1.502 1_655 S
C599 H585 0.960 . S
C599 H586 0.961 . S
C599 H587 0.959 . S
C599 C597 1.561 . S
C600 C597 1.526 . S
C600 C601 1.396 . S
C600 C605 1.390 . S
C601 C595 1.465 . S
C601 C600 1.396 . S
C601 C602 1.399 . S
C602 H588 0.929 . S
C602 C601 1.399 . S
C602 C603 1.385 . S
C603 H589 0.931 . S
C603 C602 1.385 . S
C603 C604 1.389 . S
C604 C603 1.389 . S
C604 C605 1.387 . S
C605 H590 0.930 . S
C605 C600 1.390 . S
C605 C604 1.387 . S
H606 C618 0.930 . S
H607 C620 0.930 . S
H608 C621 0.930 . S
H609 C625 0.959 . S
H610 C625 0.959 . S
H611 C625 0.961 . S
H612 C626 0.960 . S
H613 C626 0.961 . S
H614 C626 0.959 . S
H615 C629 0.929 . S
H616 C630 0.931 . S
H617 C632 0.930 . S
C618 H606 0.930 . S
C618 C619 1.399 . S
C618 C623 1.399 . S
C619 C618 1.399 . S
C619 C620 1.376 . S
C620 H607 0.930 . S
C620 C619 1.376 . S
C620 C621 1.388 . S
C621 H608 0.930 . S
C621 C620 1.388 . S
C621 C622 1.390 . S
C622 C621 1.390 . S
C622 C623 1.394 . S
C622 C628 1.465 . S
C623 C618 1.399 . S
C623 C622 1.394 . S
C623 C624 1.516 . S
C624 C623 1.516 . S
C624 C625 1.502 . S
C624 C626 1.561 . S
C624 C627 1.526 . S
C625 H609 0.959 . S
C625 H610 0.959 . S
C625 H611 0.961 . S
C625 C624 1.502 . S
C626 H612 0.960 . S
C626 H613 0.961 . S
C626 H614 0.959 . S
C626 C624 1.561 . S
C627 C624 1.526 . S
C627 C628 1.396 . S
C627 C632 1.390 . S
C628 C622 1.465 . S
C628 C627 1.396 . S
C628 C629 1.399 . S
C629 H615 0.929 . S
C629 C628 1.399 . S
C629 C630 1.385 . S
C630 H616 0.931 . S
C630 C629 1.385 . S
C630 C631 1.389 . S
C631 C630 1.389 . S
C631 C632 1.387 . S
C632 H617 0.930 . S
C632 C627 1.390 . S
C632 C631 1.387 . S
H633 C645 0.930 . S
H634 C647 0.930 . S
H635 C648 0.930 . S
H636 C652 0.959 . S
H637 C652 0.959 . S
H638 C652 0.961 . S
H639 C653 0.960 . S
H640 C653 0.961 . S
H641 C653 0.959 . S
H642 C656 0.929 . S
H643 C657 0.931 . S
H644 C659 0.930 . S
C645 H633 0.930 . S
C645 C646 1.399 . S
C645 C650 1.399 . S
C646 C645 1.399 . S
C646 C647 1.376 . S
C647 H634 0.930 . S
C647 C646 1.376 . S
C647 C648 1.388 . S
C648 H635 0.930 . S
C648 C647 1.388 . S
C648 C649 1.390 . S
C649 C648 1.390 . S
C649 C650 1.394 . S
C649 C655 1.465 . S
C650 C645 1.399 . S
C650 C649 1.394 . S
C650 C651 1.516 . S
C651 C650 1.516 . S
C651 C652 1.502 . S
C651 C653 1.561 . S
C651 C654 1.526 . S
C652 H636 0.959 . S
C652 H637 0.959 . S
C652 H638 0.961 . S
C652 C651 1.502 . S
C653 H639 0.960 . S
C653 H640 0.961 . S
C653 H641 0.959 . S
C653 C651 1.561 . S
C654 C651 1.526 . S
C654 C655 1.396 . S
C654 C659 1.390 . S
C655 C649 1.465 . S
C655 C654 1.396 . S
C655 C656 1.399 . S
C656 H642 0.929 . S
C656 C655 1.399 . S
C656 C657 1.385 . S
C657 H643 0.931 . S
C657 C656 1.385 . S
C657 C658 1.389 . S
C658 C657 1.389 . S
C658 C659 1.387 . S
C659 H644 0.930 . S
C659 C654 1.390 . S
C659 C658 1.387 . S
H660 C672 0.930 . S
H661 C674 0.930 . S
H662 C675 0.930 . S
H663 C679 0.959 . S
H664 C679 0.959 . S
H665 C679 0.961 . S
H666 C680 0.960 . S
H667 C680 0.961 . S
H668 C680 0.959 . S
H669 C683 0.929 . S
H670 C684 0.931 . S
H671 C686 0.930 . S
C672 H660 0.930 . S
C672 C673 1.399 . S
C672 C677 1.399 . S
C673 C672 1.399 . S
C673 C674 1.376 . S
C674 H661 0.930 . S
C674 C673 1.376 . S
C674 C675 1.388 . S
C675 H662 0.930 . S
C675 C674 1.388 . S
C675 C676 1.390 . S
C676 C675 1.390 . S
C676 C677 1.394 . S
C676 C682 1.465 . S
C677 C672 1.399 . S
C677 C676 1.394 . S
C677 C678 1.516 . S
C678 C677 1.516 . S
C678 C679 1.502 . S
C678 C680 1.561 . S
C678 C681 1.526 . S
C679 H663 0.959 . S
C679 H664 0.959 . S
C679 H665 0.961 . S
C679 C678 1.502 . S
C680 H666 0.960 . S
C680 H667 0.961 . S
C680 H668 0.959 . S
C680 C678 1.561 . S
C681 C678 1.526 . S
C681 C682 1.396 . S
C681 C686 1.390 . S
C682 C676 1.465 . S
C682 C681 1.396 . S
C682 C683 1.399 . S
C683 H669 0.929 . S
C683 C682 1.399 . S
C683 C684 1.385 . S
C684 H670 0.931 . S
C684 C683 1.385 . S
C684 C685 1.389 . S
C685 C684 1.389 . S
C685 C686 1.387 . S
C686 H671 0.930 . S
C686 C681 1.390 . S
C686 C685 1.387 . S
H687 C699 0.930 . S
H688 C701 0.930 . S
H689 C702 0.930 . S
H690 C706 0.959 . S
H691 C706 0.959 . S
H692 C706 0.961 . S
H693 C707 0.960 . S
H694 C707 0.961 . S
H695 C707 0.959 . S
H696 C710 0.929 . S
H697 C711 0.931 . S
H698 C713 0.930 . S
C699 H687 0.930 . S
C699 C700 1.399 . S
C699 C704 1.399 . S
C700 C699 1.399 . S
C700 C701 1.376 . S
C701 H688 0.930 . S
C701 C700 1.376 . S
C701 C702 1.388 . S
C702 H689 0.930 . S
C702 C701 1.388 . S
C702 C703 1.390 . S
C703 C702 1.390 . S
C703 C704 1.394 . S
C703 C709 1.465 . S
C704 C699 1.399 . S
C704 C703 1.394 . S
C704 C705 1.516 . S
C705 C704 1.516 . S
C705 C706 1.502 . S
C705 C707 1.561 . S
C705 C708 1.526 . S
C706 H690 0.959 . S
C706 H691 0.959 . S
C706 H692 0.961 . S
C706 C705 1.502 . S
C707 H693 0.960 . S
C707 H694 0.961 . S
C707 H695 0.959 . S
C707 C705 1.561 . S
C708 C705 1.526 . S
C708 C709 1.396 . S
C708 C713 1.390 . S
C709 C703 1.465 . S
C709 C708 1.396 . S
C709 C710 1.399 . S
C710 H696 0.929 . S
C710 C709 1.399 . S
C710 C711 1.385 . S
C711 H697 0.931 . S
C711 C710 1.385 . S
C711 C712 1.389 . S
C712 C711 1.389 . S
C712 C713 1.387 . S
C713 H698 0.930 . S
C713 C708 1.390 . S
C713 C712 1.387 . S
H714 C726 0.930 . S
H715 C728 0.930 . S
H716 C729 0.930 . S
H717 C733 0.959 . S
H718 C733 0.959 . S
H719 C733 0.961 . S
H720 C734 0.960 . S
H721 C734 0.961 . S
H722 C734 0.959 . S
H723 C737 0.929 . S
H724 C738 0.931 . S
H725 C740 0.930 . S
C726 H714 0.930 . S
C726 C727 1.399 . S
C726 C731 1.399 . S
C727 C726 1.399 . S
C727 C728 1.376 . S
C728 H715 0.930 . S
C728 C727 1.376 . S
C728 C729 1.388 . S
C729 H716 0.930 . S
C729 C728 1.388 . S
C729 C730 1.390 . S
C730 C729 1.390 . S
C730 C731 1.394 . S
C730 C736 1.465 . S
C731 C726 1.399 . S
C731 C730 1.394 . S
C731 C732 1.516 . S
C732 C731 1.516 . S
C732 C733 1.502 . S
C732 C734 1.561 . S
C732 C735 1.526 . S
C733 H717 0.959 . S
C733 H718 0.959 . S
C733 H719 0.961 . S
C733 C732 1.502 . S
C734 H720 0.960 . S
C734 H721 0.961 . S
C734 H722 0.959 . S
C734 C732 1.561 . S
C735 C732 1.526 . S
C735 C736 1.396 . S
C735 C740 1.390 . S
C736 C730 1.465 . S
C736 C735 1.396 . S
C736 C737 1.399 . S
C737 H723 0.929 . S
C737 C736 1.399 . S
C737 C738 1.385 . S
C738 H724 0.931 . S
C738 C737 1.385 . S
C738 C739 1.389 . S
C739 C738 1.389 . S
C739 C740 1.387 . S
C740 H725 0.930 . S
C740 C735 1.390 . S
C740 C739 1.387 . S
H741 C753 0.930 . S
H742 C755 0.930 . S
H743 C756 0.930 . S
H744 C760 0.959 . S
H745 C760 0.959 . S
H746 C760 0.961 . S
H747 C761 0.960 . S
H748 C761 0.961 . S
H749 C761 0.959 . S
H750 C764 0.929 . S
H751 C765 0.931 . S
H752 C767 0.930 . S
C753 H741 0.930 . S
C753 C754 1.399 . S
C753 C758 1.399 . S
C754 C753 1.399 . S
C754 C755 1.376 . S
C755 H742 0.930 . S
C755 C754 1.376 . S
C755 C756 1.388 . S
C756 H743 0.930 . S
C756 C755 1.388 . S
C756 C757 1.390 . S
C757 C756 1.390 . S
C757 C758 1.394 . S
C757 C763 1.465 . S
C758 C753 1.399 . S
C758 C757 1.394 . S
C758 C759 1.516 . S
C759 C758 1.516 . S
C759 C760 1.502 . S
C759 C761 1.561 . S
C759 C762 1.526 . S
C760 H744 0.959 . S
C760 H745 0.959 . S
C760 H746 0.961 . S
C760 C759 1.502 . S
C761 H747 0.960 . S
C761 H748 0.961 . S
C761 H749 0.959 . S
C761 C759 1.561 . S
C762 C759 1.526 . S
C762 C763 1.396 . S
C762 C767 1.390 . S
C763 C757 1.465 . S
C763 C762 1.396 . S
C763 C764 1.399 . S
C764 H750 0.929 . S
C764 C763 1.399 . S
C764 C765 1.385 . S
C765 H751 0.931 . S
C765 C764 1.385 . S
C765 C766 1.389 . S
C766 C765 1.389 . S
C766 C767 1.387 . S
C767 H752 0.930 . S
C767 C762 1.390 . S
C767 C766 1.387 . S
H768 C780 0.930 . S
H769 C782 0.930 . S
H770 C783 0.930 . S
H771 C787 0.959 . S
H772 C787 0.959 . S
H773 C787 0.961 . S
H774 C788 0.960 . S
H775 C788 0.961 . S
H776 C788 0.959 . S
H777 C791 0.929 . S
H778 C792 0.931 . S
H779 C794 0.930 . S
C780 H768 0.930 . S
C780 C781 1.399 . S
C780 C785 1.399 . S
C781 C780 1.399 . S
C781 C782 1.376 . S
C782 H769 0.930 . S
C782 C781 1.376 . S
C782 C783 1.388 . S
C783 H770 0.930 . S
C783 C782 1.388 . S
C783 C784 1.390 . S
C784 C783 1.390 . S
C784 C785 1.394 . S
C784 C790 1.465 . S
C785 C780 1.399 . S
C785 C784 1.394 . S
C785 C786 1.516 . S
C786 C785 1.516 . S
C786 C787 1.502 . S
C786 C788 1.561 . S
C786 C789 1.526 . S
C787 H771 0.959 . S
C787 H772 0.959 . S
C787 H773 0.961 . S
C787 C786 1.502 . S
C788 H774 0.960 . S
C788 H775 0.961 . S
C788 H776 0.959 . S
C788 C786 1.561 . S
C789 C786 1.526 . S
C789 C790 1.396 . S
C789 C794 1.390 . S
C790 C784 1.465 . S
C790 C789 1.396 . S
C790 C791 1.399 . S
C791 H777 0.929 . S
C791 C790 1.399 . S
C791 C792 1.385 . S
C792 H778 0.931 . S
C792 C791 1.385 . S
C792 C793 1.389 . S
C793 C792 1.389 . S
C793 C794 1.387 . S
C794 H779 0.930 . S
C794 C789 1.390 . S
C794 C793 1.387 . S
H795 C807 0.930 . S
H796 C809 0.930 . S
H797 C810 0.930 . S
H798 C814 0.959 . S
H799 C814 0.959 . S
H800 C814 0.961 . S
H801 C815 0.960 . S
H802 C815 0.961 . S
H803 C815 0.959 . S
H804 C818 0.929 . S
H805 C819 0.931 . S
H806 C821 0.930 . S
C807 H795 0.930 . S
C807 C808 1.399 . S
C807 C812 1.399 . S
C808 C807 1.399 . S
C808 C809 1.376 . S
C809 H796 0.930 . S
C809 C808 1.376 . S
C809 C810 1.388 . S
C810 H797 0.930 . S
C810 C809 1.388 . S
C810 C811 1.390 . S
C811 C810 1.390 . S
C811 C812 1.394 . S
C811 C817 1.465 . S
C812 C807 1.399 . S
C812 C811 1.394 . S
C812 C813 1.516 . S
C813 C812 1.516 . S
C813 C814 1.502 . S
C813 C815 1.561 . S
C813 C816 1.526 . S
C814 H798 0.959 . S
C814 H799 0.959 . S
C814 H800 0.961 . S
C814 C813 1.502 . S
C815 H801 0.960 . S
C815 H802 0.961 . S
C815 H803 0.959 . S
C815 C813 1.561 . S
C816 C813 1.526 . S
C816 C817 1.396 . S
C816 C821 1.390 . S
C817 C811 1.465 . S
C817 C816 1.396 . S
C817 C818 1.399 . S
C818 H804 0.929 . S
C818 C817 1.399 . S
C818 C819 1.385 . S
C819 H805 0.931 . S
C819 C818 1.385 . S
C819 C820 1.389 . S
C820 C819 1.389 . S
C820 C821 1.387 . S
C821 H806 0.930 . S
C821 C816 1.390 . S
C821 C820 1.387 . S
H822 C834 0.930 . S
H823 C836 0.930 . S
H824 C837 0.930 . S
H825 C841 0.959 . S
H826 C841 0.959 . S
H827 C841 0.961 . S
H828 C842 0.960 . S
H829 C842 0.961 . S
H830 C842 0.959 . S
H831 C845 0.929 . S
H832 C846 0.931 . S
H833 C848 0.930 . S
C834 H822 0.930 . S
C834 C835 1.399 . S
C834 C839 1.399 . S
C835 C834 1.399 . S
C835 C836 1.376 . S
C836 H823 0.930 . S
C836 C835 1.376 . S
C836 C837 1.388 . S
C837 H824 0.930 . S
C837 C836 1.388 . S
C837 C838 1.390 . S
C838 C837 1.390 . S
C838 C839 1.394 . S
C838 C844 1.465 . S
C839 C834 1.399 . S
C839 C838 1.394 . S
C839 C840 1.516 . S
C840 C839 1.516 . S
C840 C841 1.502 . S
C840 C842 1.561 . S
C840 C843 1.526 . S
C841 H825 0.959 . S
C841 H826 0.959 . S
C841 H827 0.961 . S
C841 C840 1.502 . S
C842 H828 0.960 . S
C842 H829 0.961 . S
C842 H830 0.959 . S
C842 C840 1.561 . S
C843 C840 1.526 . S
C843 C844 1.396 . S
C843 C848 1.390 . S
C844 C838 1.465 . S
C844 C843 1.396 . S
C844 C845 1.399 . S
C845 H831 0.929 . S
C845 C844 1.399 . S
C845 C846 1.385 . S
C846 H832 0.931 . S
C846 C845 1.385 . S
C846 C847 1.389 . S
C847 C846 1.389 . S
C847 C848 1.387 . S
C848 H833 0.930 . S
C848 C843 1.390 . S
C848 C847 1.387 . S
H849 C861 0.930 . S
H850 C863 0.930 . S
H851 C864 0.930 . S
H852 C868 0.959 . S
H853 C868 0.959 . S
H854 C868 0.961 . S
H855 C869 0.960 . S
H856 C869 0.961 . S
H857 C869 0.959 . S
H858 C872 0.929 . S
H859 C873 0.931 . S
H860 C875 0.930 . S
C861 H849 0.930 . S
C861 C862 1.399 . S
C861 C866 1.399 . S
C862 C861 1.399 . S
C862 C863 1.376 . S
C863 H850 0.930 . S
C863 C862 1.376 . S
C863 C864 1.388 . S
C864 H851 0.930 . S
C864 C863 1.388 . S
C864 C865 1.390 . S
C865 C864 1.390 . S
C865 C866 1.394 . S
C865 C871 1.465 . S
C866 C861 1.399 . S
C866 C865 1.394 . S
C866 C867 1.516 . S
C867 C866 1.516 . S
C867 C868 1.502 . S
C867 C869 1.561 . S
C867 C870 1.526 . S
C868 H852 0.959 . S
C868 H853 0.959 . S
C868 H854 0.961 . S
C868 C867 1.502 . S
C869 H855 0.960 . S
C869 H856 0.961 . S
C869 H857 0.959 . S
C869 C867 1.561 . S
C870 C867 1.526 . S
C870 C871 1.396 . S
C870 C875 1.390 . S
C871 C865 1.465 . S
C871 C870 1.396 . S
C871 C872 1.399 . S
C872 H858 0.929 . S
C872 C871 1.399 . S
C872 C873 1.385 . S
C873 H859 0.931 . S
C873 C872 1.385 . S
C873 C874 1.389 . S
C874 C873 1.389 . S
C874 C875 1.387 . S
C875 H860 0.930 . S
C875 C870 1.390 . S
C875 C874 1.387 . S
H876 C888 0.930 . S
H877 C890 0.930 . S
H878 C891 0.930 . S
H879 C895 0.959 . S
H880 C895 0.959 . S
H881 C895 0.961 . S
H882 C896 0.960 . S
H883 C896 0.961 . S
H884 C896 0.959 . S
H885 C899 0.929 . S
H886 C900 0.931 . S
H887 C902 0.930 . S
C888 H876 0.930 . S
C888 C889 1.399 . S
C888 C893 1.399 . S
C889 C888 1.399 . S
C889 C890 1.376 . S
C890 H877 0.930 . S
C890 C889 1.376 . S
C890 C891 1.388 . S
C891 H878 0.930 . S
C891 C890 1.388 . S
C891 C892 1.390 . S
C892 C891 1.390 . S
C892 C893 1.394 . S
C892 C898 1.465 . S
C893 C888 1.399 . S
C893 C892 1.394 . S
C893 C894 1.516 . S
C894 C893 1.516 . S
C894 C895 1.502 . S
C894 C896 1.561 . S
C894 C897 1.526 . S
C895 H879 0.959 . S
C895 H880 0.959 . S
C895 H881 0.961 . S
C895 C894 1.502 . S
C896 H882 0.960 . S
C896 H883 0.961 . S
C896 H884 0.959 . S
C896 C894 1.561 . S
C897 C894 1.526 . S
C897 C898 1.396 . S
C897 C902 1.390 . S
C898 C892 1.465 . S
C898 C897 1.396 . S
C898 C899 1.399 . S
C899 H885 0.929 . S
C899 C898 1.399 . S
C899 C900 1.385 . S
C900 H886 0.931 . S
C900 C899 1.385 . S
C900 C901 1.389 . S
C901 C900 1.389 . S
C901 C902 1.387 . S
C902 H887 0.930 . S
C902 C897 1.390 . S
C902 C901 1.387 . S
H903 C915 0.930 . S
H904 C917 0.930 . S
H905 C918 0.930 . S
H906 C922 0.959 . S
H907 C922 0.959 . S
H908 C922 0.961 . S
H909 C923 0.960 . S
H910 C923 0.961 . S
H911 C923 0.959 . S
H912 C926 0.929 . S
H913 C927 0.931 . S
H914 C929 0.930 . S
C915 H903 0.930 . S
C915 C916 1.399 . S
C915 C920 1.399 . S
C916 C915 1.399 . S
C916 C917 1.376 . S
C917 H904 0.930 . S
C917 C916 1.376 . S
C917 C918 1.388 . S
C918 H905 0.930 . S
C918 C917 1.388 . S
C918 C919 1.390 . S
C919 C918 1.390 . S
C919 C920 1.394 . S
C919 C925 1.465 . S
C920 C915 1.399 . S
C920 C919 1.394 . S
C920 C921 1.516 . S
C921 C920 1.516 . S
C921 C922 1.502 . S
C921 C923 1.561 . S
C921 C924 1.526 . S
C922 H906 0.959 . S
C922 H907 0.959 . S
C922 H908 0.961 . S
C922 C921 1.502 . S
C923 H909 0.960 . S
C923 H910 0.961 . S
C923 H911 0.959 . S
C923 C921 1.561 . S
C924 C921 1.526 . S
C924 C925 1.396 . S
C924 C929 1.390 . S
C925 C919 1.465 . S
C925 C924 1.396 . S
C925 C926 1.399 . S
C926 H912 0.929 . S
C926 C925 1.399 . S
C926 C927 1.385 . S
C927 H913 0.931 . S
C927 C926 1.385 . S
C927 C928 1.389 . S
C928 C927 1.389 . S
C928 C929 1.387 . S
C929 H914 0.930 . S
C929 C924 1.390 . S
C929 C928 1.387 . S
H930 C942 0.930 . S
H931 C944 0.930 . S
H932 C945 0.930 . S
H933 C949 0.959 . S
H934 C949 0.959 . S
H935 C949 0.961 . S
H936 C950 0.960 . S
H937 C950 0.961 . S
H938 C950 0.959 . S
H939 C953 0.929 . S
H940 C954 0.931 . S
H941 C956 0.930 . S
C942 H930 0.930 . S
C942 C943 1.399 . S
C942 C947 1.399 . S
C943 C942 1.399 . S
C943 C944 1.376 . S
C944 H931 0.930 . S
C944 C943 1.376 . S
C944 C945 1.388 . S
C945 H932 0.930 . S
C945 C944 1.388 . S
C945 C946 1.390 . S
C946 C945 1.390 . S
C946 C947 1.394 . S
C946 C952 1.465 . S
C947 C942 1.399 . S
C947 C946 1.394 . S
C947 C948 1.516 . S
C948 C947 1.516 . S
C948 C949 1.502 . S
C948 C950 1.561 . S
C948 C951 1.526 . S
C949 H933 0.959 . S
C949 H934 0.959 . S
C949 H935 0.961 . S
C949 C948 1.502 . S
C950 H936 0.960 . S
C950 H937 0.961 . S
C950 H938 0.959 . S
C950 C948 1.561 . S
C951 C948 1.526 . S
C951 C952 1.396 . S
C951 C956 1.390 . S
C952 C946 1.465 . S
C952 C951 1.396 . S
C952 C953 1.399 . S
C953 H939 0.929 . S
C953 C952 1.399 . S
C953 C954 1.385 . S
C954 H940 0.931 . S
C954 C953 1.385 . S
C954 C955 1.389 . S
C955 C954 1.389 . S
C955 C956 1.387 . S
C956 H941 0.930 . S
C956 C951 1.390 . S
C956 C955 1.387 . S
H957 C969 0.930 . S
H958 C971 0.930 . S
H959 C972 0.930 . S
H960 C976 0.959 . S
H961 C976 0.959 . S
H962 C976 0.961 . S
H963 C977 0.960 . S
H964 C977 0.961 . S
H965 C977 0.959 . S
H966 C980 0.929 . S
H967 C981 0.931 . S
H968 C983 0.930 . S
C969 H957 0.930 . S
C969 C970 1.399 . S
C969 C974 1.399 . S
C970 C969 1.399 . S
C970 C971 1.376 . S
C971 H958 0.930 . S
C971 C970 1.376 . S
C971 C972 1.388 . S
C972 H959 0.930 . S
C972 C971 1.388 . S
C972 C973 1.390 . S
C973 C972 1.390 . S
C973 C974 1.394 . S
C973 C979 1.465 . S
C974 C969 1.399 . S
C974 C973 1.394 . S
C974 C975 1.516 . S
C975 C974 1.516 . S
C975 C976 1.502 . S
C975 C977 1.561 . S
C975 C978 1.526 . S
C976 H960 0.959 . S
C976 H961 0.959 . S
C976 H962 0.961 . S
C976 C975 1.502 . S
C977 H963 0.960 . S
C977 H964 0.961 . S
C977 H965 0.959 . S
C977 C975 1.561 . S
C978 C975 1.526 . S
C978 C979 1.396 . S
C978 C983 1.390 . S
C979 C973 1.465 . S
C979 C978 1.396 . S
C979 C980 1.399 . S
C980 H966 0.929 . S
C980 C979 1.399 . S
C980 C981 1.385 . S
C981 H967 0.931 . S
C981 C980 1.385 . S
C981 C982 1.389 . S
C982 C981 1.389 . S
C982 C983 1.387 . S
C983 H968 0.930 . S
C983 C978 1.390 . S
C983 C982 1.387 . S
H984 C996 0.930 . S
H985 C998 0.930 . S
H986 C999 0.930 . S
H987 C1003 0.959 . S
H988 C1003 0.959 1_554 S
H989 C1003 0.961 . S
H990 C1004 0.960 . S
H991 C1004 0.961 1_554 S
H992 C1004 0.959 . S
H993 C1007 0.929 . S
H994 C1008 0.931 . S
H995 C1010 0.930 . S
C996 H984 0.930 . S
C996 C997 1.399 1_545 S
C996 C1001 1.399 . S
C997 C996 1.399 1_565 S
C997 C998 1.376 . S
C998 H985 0.930 . S
C998 C997 1.376 . S
C998 C999 1.388 . S
C999 H986 0.930 . S
C999 C998 1.388 . S
C999 C1000 1.390 . S
C1000 C999 1.390 . S
C1000 C1001 1.394 1_565 S
C1000 C1006 1.465 1_556 S
C1001 C996 1.399 . S
C1001 C1000 1.394 1_545 S
C1001 C1002 1.516 . S
C1002 C1001 1.516 . S
C1002 C1003 1.502 . S
C1002 C1004 1.561 . S
C1002 C1005 1.526 1_556 S
C1003 H987 0.959 . S
C1003 H988 0.959 1_556 S
C1003 H989 0.961 . S
C1003 C1002 1.502 . S
C1004 H990 0.960 . S
C1004 H991 0.961 1_556 S
C1004 H992 0.959 . S
C1004 C1002 1.561 . S
C1005 C1002 1.526 1_554 S
C1005 C1006 1.396 1_545 S
C1005 C1010 1.390 . S
C1006 C1000 1.465 1_554 S
C1006 C1005 1.396 1_565 S
C1006 C1007 1.399 . S
C1007 H993 0.929 . S
C1007 C1006 1.399 . S
C1007 C1008 1.385 . S
C1008 H994 0.931 . S
C1008 C1007 1.385 . S
C1008 C1009 1.389 1_565 S
C1009 C1008 1.389 1_545 S
C1009 C1010 1.387 . S
C1010 H995 0.930 . S
C1010 C1005 1.390 . S
C1010 C1009 1.387 . S
H1011 C1023 0.930 . S
H1012 C1025 0.930 . S
H1013 C1026 0.930 . S
H1014 C1030 0.959 . S
H1015 C1030 0.959 . S
H1016 C1030 0.961 . S
H1017 C1031 0.960 . S
H1018 C1031 0.961 . S
H1019 C1031 0.959 . S
H1020 C1034 0.929 . S
H1021 C1035 0.931 . S
H1022 C1037 0.930 . S
C1023 H1011 0.930 . S
C1023 C1024 1.399 . S
C1023 C1028 1.399 . S
C1024 C1023 1.399 . S
C1024 C1025 1.376 . S
C1025 H1012 0.930 . S
C1025 C1024 1.376 . S
C1025 C1026 1.388 . S
C1026 H1013 0.930 . S
C1026 C1025 1.388 . S
C1026 C1027 1.390 . S
C1027 C1026 1.390 . S
C1027 C1028 1.394 . S
C1027 C1033 1.465 . S
C1028 C1023 1.399 . S
C1028 C1027 1.394 . S
C1028 C1029 1.516 . S
C1029 C1028 1.516 . S
C1029 C1030 1.502 . S
C1029 C1031 1.561 . S
C1029 C1032 1.526 . S
C1030 H1014 0.959 . S
C1030 H1015 0.959 . S
C1030 H1016 0.961 . S
C1030 C1029 1.502 . S
C1031 H1017 0.960 . S
C1031 H1018 0.961 . S
C1031 H1019 0.959 . S
C1031 C1029 1.561 . S
C1032 C1029 1.526 . S
C1032 C1033 1.396 . S
C1032 C1037 1.390 . S
C1033 C1027 1.465 . S
C1033 C1032 1.396 . S
C1033 C1034 1.399 . S
C1034 H1020 0.929 . S
C1034 C1033 1.399 . S
C1034 C1035 1.385 . S
C1035 H1021 0.931 . S
C1035 C1034 1.385 . S
C1035 C1036 1.389 . S
C1036 C1035 1.389 . S
C1036 C1037 1.387 . S
C1037 H1022 0.930 . S
C1037 C1032 1.390 . S
C1037 C1036 1.387 . S
H1038 C1050 0.930 . S
H1039 C1052 0.930 . S
H1040 C1053 0.930 . S
H1041 C1057 0.959 . S
H1042 C1057 0.959 . S
H1043 C1057 0.961 1_556 S
H1044 C1058 0.960 1_556 S
H1045 C1058 0.961 . S
H1046 C1058 0.962 1_655 S
H1047 C1061 0.929 . S
H1048 C1062 0.931 . S
H1049 C1064 0.930 . S
C1050 H1038 0.930 . S
C1050 C1051 1.399 . S
C1050 C1055 1.399 . S
C1051 C1050 1.399 . S
C1051 C1052 1.376 1_455 S
C1052 H1039 0.930 . S
C1052 C1051 1.376 1_655 S
C1052 C1053 1.388 . S
C1053 H1040 0.930 . S
C1053 C1052 1.388 . S
C1053 C1054 1.390 . S
C1054 C1053 1.390 . S
C1054 C1055 1.394 1_655 S
C1054 C1060 1.465 1_556 S
C1055 C1050 1.399 . S
C1055 C1054 1.394 1_455 S
C1055 C1056 1.516 1_556 S
C1056 C1055 1.516 1_554 S
C1056 C1057 1.502 . S
C1056 C1058 1.561 . S
C1056 C1059 1.526 . S
C1057 H1041 0.959 . S
C1057 H1042 0.959 . S
C1057 H1043 0.961 1_554 S
C1057 C1056 1.502 . S
C1058 H1044 0.960 1_554 S
C1058 H1045 0.961 . S
C1058 H1046 0.962 1_455 S
C1058 C1056 1.561 . S
C1059 C1056 1.526 . S
C1059 C1060 1.396 1_455 S
C1059 C1064 1.390 . S
C1060 C1054 1.465 1_554 S
C1060 C1059 1.396 1_655 S
C1060 C1061 1.399 . S
C1061 H1047 0.929 . S
C1061 C1060 1.399 . S
C1061 C1062 1.385 . S
C1062 H1048 0.931 . S
C1062 C1061 1.385 . S
C1062 C1063 1.389 . S
C1063 C1062 1.389 . S
C1063 C1064 1.387 1_655 S
C1064 H1049 0.930 . S
C1064 C1059 1.390 . S
C1064 C1063 1.387 1_455 S
H1065 C1077 0.930 . S
H1066 C1079 0.930 . S
H1067 C1080 0.930 . S
H1068 C1084 0.959 . S
H1069 C1084 0.959 . S
H1070 C1084 0.961 . S
H1071 C1085 0.960 . S
H1072 C1085 0.961 . S
H1073 C1085 0.959 . S
H1074 C1088 0.929 . S
H1075 C1089 0.931 . S
H1076 C1091 0.930 . S
C1077 H1065 0.930 . S
C1077 C1078 1.399 . S
C1077 C1082 1.399 . S
C1078 C1077 1.399 . S
C1078 C1079 1.376 1_545 S
C1079 H1066 0.930 . S
C1079 C1078 1.376 1_565 S
C1079 C1080 1.388 . S
C1080 H1067 0.930 . S
C1080 C1079 1.388 . S
C1080 C1081 1.390 . S
C1081 C1080 1.390 . S
C1081 C1082 1.394 1_565 S
C1081 C1087 1.465 . S
C1082 C1077 1.399 . S
C1082 C1081 1.394 1_545 S
C1082 C1083 1.516 . S
C1083 C1082 1.516 . S
C1083 C1084 1.502 . S
C1083 C1085 1.561 . S
C1083 C1086 1.526 . S
C1084 H1068 0.959 . S
C1084 H1069 0.959 . S
C1084 H1070 0.961 . S
C1084 C1083 1.502 . S
C1085 H1071 0.960 . S
C1085 H1072 0.961 . S
C1085 H1073 0.959 . S
C1085 C1083 1.561 . S
C1086 C1083 1.526 . S
C1086 C1087 1.396 1_545 S
C1086 C1091 1.390 . S
C1087 C1081 1.465 . S
C1087 C1086 1.396 1_565 S
C1087 C1088 1.399 . S
C1088 H1074 0.929 . S
C1088 C1087 1.399 . S
C1088 C1089 1.385 . S
C1089 H1075 0.931 . S
C1089 C1088 1.385 . S
C1089 C1090 1.389 . S
C1090 C1089 1.389 . S
C1090 C1091 1.387 1_565 S
C1091 H1076 0.930 . S
C1091 C1086 1.390 . S
C1091 C1090 1.387 1_545 S
H1092 C1104 0.930 . S
H1093 C1106 0.930 . S
H1094 C1107 0.930 . S
H1095 C1111 0.959 . S
H1096 C1111 0.959 . S
H1097 C1111 0.961 1_554 S
H1098 C1112 0.960 1_554 S
H1099 C1112 0.961 . S
H1100 C1112 0.959 . S
H1101 C1115 0.929 . S
H1102 C1116 0.931 . S
H1103 C1118 0.930 . S
C1104 H1092 0.930 . S
C1104 C1105 1.399 . S
C1104 C1109 1.399 . S
C1105 C1104 1.399 . S
C1105 C1106 1.376 . S
C1106 H1093 0.930 . S
C1106 C1105 1.376 . S
C1106 C1107 1.388 . S
C1107 H1094 0.930 . S
C1107 C1106 1.388 . S
C1107 C1108 1.390 . S
C1108 C1107 1.390 . S
C1108 C1109 1.394 . S
C1108 C1114 1.465 1_554 S
C1109 C1104 1.399 . S
C1109 C1108 1.394 . S
C1109 C1110 1.516 1_554 S
C1110 C1109 1.516 1_556 S
C1110 C1111 1.502 . S
C1110 C1112 1.561 . S
C1110 C1113 1.526 . S
C1111 H1095 0.959 . S
C1111 H1096 0.959 . S
C1111 H1097 0.961 1_556 S
C1111 C1110 1.502 . S
C1112 H1098 0.960 1_556 S
C1112 H1099 0.961 . S
C1112 H1100 0.959 . S
C1112 C1110 1.561 . S
C1113 C1110 1.526 . S
C1113 C1114 1.396 . S
C1113 C1118 1.390 . S
C1114 C1108 1.465 1_556 S
C1114 C1113 1.396 . S
C1114 C1115 1.399 . S
C1115 H1101 0.929 . S
C1115 C1114 1.399 . S
C1115 C1116 1.385 . S
C1116 H1102 0.931 . S
C1116 C1115 1.385 . S
C1116 C1117 1.389 . S
C1117 C1116 1.389 . S
C1117 C1118 1.387 . S
C1118 H1103 0.930 . S
C1118 C1113 1.390 . S
C1118 C1117 1.387 . S
H1119 C1131 0.919 . S
H1120 C1133 0.930 . S
H1121 C1134 0.930 . S
H1122 C1138 0.990 . S
H1123 C1138 0.955 1_655 S
H1124 C1138 0.972 . S
H1125 C1139 0.960 . S
H1126 C1139 0.961 . S
H1127 C1139 0.959 . S
H1128 C1142 0.929 . S
H1129 C1143 0.931 . S
H1130 C1145 0.930 . S
C1131 H1119 0.919 . S
C1131 C1132 1.399 . S
C1131 C1136 1.399 1_455 S
C1132 C1131 1.399 . S
C1132 C1133 1.376 . S
C1133 H1120 0.930 . S
C1133 C1132 1.376 . S
C1133 C1134 1.388 . S
C1134 H1121 0.930 . S
C1134 C1133 1.388 . S
C1134 C1135 1.390 . S
C1135 C1134 1.390 . S
C1135 C1136 1.394 1_455 S
C1135 C1141 1.465 1_455 S
C1136 C1131 1.399 1_655 S
C1136 C1135 1.394 1_655 S
C1136 C1137 1.516 . S
C1137 C1136 1.516 . S
C1137 C1138 1.467 1_655 S
C1137 C1139 1.561 . S
C1137 C1140 1.526 . S
C1138 H1122 0.990 . S
C1138 H1123 0.955 1_455 S
C1138 H1124 0.972 . S
C1138 C1137 1.467 1_455 S
C1139 H1125 0.960 . S
C1139 H1126 0.961 . S
C1139 H1127 0.959 . S
C1139 C1137 1.561 . S
C1140 C1137 1.526 . S
C1140 C1141 1.396 . S
C1140 C1145 1.390 . S
C1141 C1135 1.465 1_655 S
C1141 C1140 1.396 . S
C1141 C1142 1.399 1_655 S
C1142 H1128 0.929 . S
C1142 C1141 1.399 1_455 S
C1142 C1143 1.385 1_455 S
C1143 H1129 0.931 . S
C1143 C1142 1.385 1_655 S
C1143 C1144 1.389 . S
C1144 C1143 1.389 . S
C1144 C1145 1.387 . S
C1145 H1130 0.930 . S
C1145 C1140 1.390 . S
C1145 C1144 1.387 . S
H1146 C1158 0.930 . S
H1147 C1160 0.930 . S
H1148 C1161 0.930 . S
H1149 C1165 0.959 . S
H1150 C1165 0.959 . S
H1151 C1165 0.961 1_556 S
H1152 C1166 0.960 1_556 S
H1153 C1166 0.961 . S
H1154 C1166 0.959 . S
H1155 C1169 0.929 . S
H1156 C1170 0.931 . S
H1157 C1172 0.930 . S
C1158 H1146 0.930 . S
C1158 C1159 1.399 . S
C1158 C1163 1.399 . S
C1159 C1158 1.399 . S
C1159 C1160 1.376 1_565 S
C1160 H1147 0.930 . S
C1160 C1159 1.376 1_545 S
C1160 C1161 1.388 . S
C1161 H1148 0.930 . S
C1161 C1160 1.388 . S
C1161 C1162 1.390 . S
C1162 C1161 1.390 . S
C1162 C1163 1.394 1_545 S
C1162 C1168 1.465 1_556 S
C1163 C1158 1.399 . S
C1163 C1162 1.394 1_565 S
C1163 C1164 1.516 1_556 S
C1164 C1163 1.516 1_554 S
C1164 C1165 1.502 . S
C1164 C1166 1.561 . S
C1164 C1167 1.526 . S
C1165 H1149 0.959 . S
C1165 H1150 0.959 . S
C1165 H1151 0.961 1_554 S
C1165 C1164 1.502 . S
C1166 H1152 0.960 1_554 S
C1166 H1153 0.961 . S
C1166 H1154 0.959 . S
C1166 C1164 1.561 . S
C1167 C1164 1.526 . S
C1167 C1168 1.396 1_565 S
C1167 C1172 1.390 . S
C1168 C1162 1.465 1_554 S
C1168 C1167 1.396 1_545 S
C1168 C1169 1.399 . S
C1169 H1155 0.929 . S
C1169 C1168 1.399 . S
C1169 C1170 1.385 . S
C1170 H1156 0.931 . S
C1170 C1169 1.385 . S
C1170 C1171 1.389 . S
C1171 C1170 1.389 . S
C1171 C1172 1.387 1_545 S
C1172 H1157 0.930 . S
C1172 C1167 1.390 . S
C1172 C1171 1.387 1_565 S
H1173 C1185 0.930 . S
H1174 C1187 0.930 . S
H1175 C1188 0.930 . S
H1176 C1192 0.959 . S
H1177 C1192 0.959 . S
H1178 C1192 0.961 . S
H1179 C1193 0.960 . S
H1180 C1193 0.961 . S
H1181 C1193 0.959 . S
H1182 C1196 0.929 . S
H1183 C1197 0.931 . S
H1184 C1199 0.930 . S
C1185 H1173 0.930 . S
C1185 C1186 1.399 . S
C1185 C1190 1.399 . S
C1186 C1185 1.399 . S
C1186 C1187 1.376 . S
C1187 H1174 0.930 . S
C1187 C1186 1.376 . S
C1187 C1188 1.388 . S
C1188 H1175 0.930 . S
C1188 C1187 1.388 . S
C1188 C1189 1.390 . S
C1189 C1188 1.390 . S
C1189 C1190 1.394 . S
C1189 C1195 1.465 . S
C1190 C1185 1.399 . S
C1190 C1189 1.394 . S
C1190 C1191 1.516 . S
C1191 C1190 1.516 . S
C1191 C1192 1.502 . S
C1191 C1193 1.561 . S
C1191 C1194 1.526 . S
C1192 H1176 0.959 . S
C1192 H1177 0.959 . S
C1192 H1178 0.961 . S
C1192 C1191 1.502 . S
C1193 H1179 0.960 . S
C1193 H1180 0.961 . S
C1193 H1181 0.959 . S
C1193 C1191 1.561 . S
C1194 C1191 1.526 . S
C1194 C1195 1.396 . S
C1194 C1199 1.390 . S
C1195 C1189 1.465 . S
C1195 C1194 1.396 . S
C1195 C1196 1.399 . S
C1196 H1182 0.929 . S
C1196 C1195 1.399 . S
C1196 C1197 1.385 . S
C1197 H1183 0.931 . S
C1197 C1196 1.385 . S
C1197 C1198 1.389 . S
C1198 C1197 1.389 . S
C1198 C1199 1.387 . S
C1199 H1184 0.930 . S
C1199 C1194 1.390 . S
C1199 C1198 1.387 . S
H1200 C1212 0.930 . S
H1201 C1214 0.930 . S
H1202 C1215 0.930 . S
H1203 C1219 0.959 . S
H1204 C1219 0.959 . S
H1205 C1219 0.961 1_554 S
H1206 C1220 0.960 . S
H1207 C1220 0.961 1_556 S
H1208 C1220 0.959 . S
H1209 C1223 0.929 . S
H1210 C1224 0.931 . S
H1211 C1226 0.930 . S
C1212 H1200 0.930 . S
C1212 C1213 1.399 . S
C1212 C1217 1.399 . S
C1213 C1212 1.399 . S
C1213 C1214 1.376 . S
C1214 H1201 0.930 . S
C1214 C1213 1.376 . S
C1214 C1215 1.388 . S
C1215 H1202 0.930 . S
C1215 C1214 1.388 . S
C1215 C1216 1.390 . S
C1216 C1215 1.390 . S
C1216 C1217 1.394 . S
C1216 C1222 1.465 1_654 S
C1217 C1212 1.399 . S
C1217 C1216 1.394 . S
C1217 C1218 1.554 1_655 S
C1218 C1217 1.554 1_455 S
C1218 C1219 1.495 1_454 S
C1218 C1220 1.571 . S
C1218 C1221 1.487 1_554 S
C1219 H1203 0.959 . S
C1219 H1204 0.959 . S
C1219 H1205 0.961 1_556 S
C1219 C1218 1.495 1_656 S
C1220 H1206 0.960 . S
C1220 H1207 0.961 1_554 S
C1220 H1208 0.959 . S
C1220 C1218 1.571 . S
C1221 C1218 1.487 1_556 S
C1221 C1222 1.396 . S
C1221 C1226 1.390 . S
C1222 C1216 1.465 1_456 S
C1222 C1221 1.396 . S
C1222 C1223 1.399 . S
C1223 H1209 0.929 . S
C1223 C1222 1.399 . S
C1223 C1224 1.385 . S
C1224 H1210 0.931 . S
C1224 C1223 1.385 . S
C1224 C1225 1.389 . S
C1225 C1224 1.389 . S
C1225 C1226 1.387 . S
C1226 H1211 0.930 . S
C1226 C1221 1.390 . S
C1226 C1225 1.387 . S
H1227 C1239 0.930 . S
H1228 C1241 0.930 . S
H1229 C1242 0.930 . S
H1230 C1246 0.959 . S
H1231 C1246 0.959 . S
H1232 C1246 0.961 . S
H1233 C1247 0.960 . S
H1234 C1247 0.961 . S
H1235 C1247 0.959 . S
H1236 C1250 0.929 . S
H1237 C1251 0.931 . S
H1238 C1253 0.930 . S
C1239 H1227 0.930 . S
C1239 C1240 1.399 . S
C1239 C1244 1.399 . S
C1240 C1239 1.399 . S
C1240 C1241 1.376 1_565 S
C1241 H1228 0.930 . S
C1241 C1240 1.376 1_545 S
C1241 C1242 1.388 . S
C1242 H1229 0.930 . S
C1242 C1241 1.388 . S
C1242 C1243 1.390 . S
C1243 C1242 1.390 . S
C1243 C1244 1.394 1_545 S
C1243 C1249 1.465 . S
C1244 C1239 1.399 . S
C1244 C1243 1.394 1_565 S
C1244 C1245 1.516 . S
C1245 C1244 1.516 . S
C1245 C1246 1.502 . S
C1245 C1247 1.561 . S
C1245 C1248 1.526 . S
C1246 H1230 0.959 . S
C1246 H1231 0.959 . S
C1246 H1232 0.961 . S
C1246 C1245 1.502 . S
C1247 H1233 0.960 . S
C1247 H1234 0.961 . S
C1247 H1235 0.959 . S
C1247 C1245 1.561 . S
C1248 C1245 1.526 . S
C1248 C1249 1.396 1_565 S
C1248 C1253 1.390 . S
C1249 C1243 1.465 . S
C1249 C1248 1.396 1_545 S
C1249 C1250 1.399 . S
C1250 H1236 0.929 . S
C1250 C1249 1.399 . S
C1250 C1251 1.385 . S
C1251 H1237 0.931 . S
C1251 C1250 1.385 . S
C1251 C1252 1.389 . S
C1252 C1251 1.389 . S
C1252 C1253 1.387 1_545 S
C1253 H1238 0.930 . S
C1253 C1248 1.390 . S
C1253 C1252 1.387 1_565 S
H1254 C1266 0.930 . S
H1255 C1268 0.930 . S
H1256 C1269 0.930 . S
H1257 C1273 0.959 . S
H1258 C1273 0.959 1_556 S
H1259 C1273 0.961 . S
H1260 C1274 0.960 . S
H1261 C1274 0.961 1_556 S
H1262 C1274 0.973 . S
H1263 C1277 0.929 . S
H1264 C1278 0.931 . S
H1265 C1280 0.930 . S
C1266 H1254 0.930 . S
C1266 C1267 1.399 . S
C1266 C1271 1.399 . S
C1267 C1266 1.399 . S
C1267 C1268 1.376 . S
C1268 H1255 0.930 . S
C1268 C1267 1.376 . S
C1268 C1269 1.388 . S
C1269 H1256 0.930 . S
C1269 C1268 1.388 . S
C1269 C1270 1.390 . S
C1270 C1269 1.390 . S
C1270 C1271 1.394 . S
C1270 C1276 1.465 1_554 S
C1271 C1266 1.399 . S
C1271 C1270 1.394 . S
C1271 C1272 1.516 . S
C1272 C1271 1.516 . S
C1272 C1273 1.502 . S
C1272 C1274 1.561 . S
C1272 C1275 1.526 1_554 S
C1273 H1257 0.959 . S
C1273 H1258 0.959 1_554 S
C1273 H1259 0.961 . S
C1273 C1272 1.502 . S
C1274 H1260 0.960 . S
C1274 H1261 0.961 1_554 S
C1274 H1262 0.973 . S
C1274 C1272 1.561 . S
C1275 C1272 1.526 1_556 S
C1275 C1276 1.396 . S
C1275 C1280 1.390 . S
C1276 C1270 1.465 1_556 S
C1276 C1275 1.396 . S
C1276 C1277 1.399 . S
C1277 H1263 0.929 . S
C1277 C1276 1.399 . S
C1277 C1278 1.385 . S
C1278 H1264 0.931 . S
C1278 C1277 1.385 . S
C1278 C1279 1.389 . S
C1279 C1278 1.389 . S
C1279 C1280 1.387 . S
C1280 H1265 0.930 . S
C1280 C1275 1.390 . S
C1280 C1279 1.387 . S
H1281 C1293 0.930 . S
H1282 C1295 0.930 . S
H1283 C1296 0.930 . S
H1284 C1300 0.959 1_655 S
H1285 C1300 0.959 . S
H1286 C1300 0.961 . S
H1287 C1301 0.960 . S
H1288 C1301 0.961 . S
H1289 C1301 0.959 . S
H1290 C1304 0.929 . S
H1291 C1305 0.931 . S
H1292 C1307 0.930 1_455 S
C1293 H1281 0.930 . S
C1293 C1294 1.399 . S
C1293 C1298 1.399 . S
C1294 C1293 1.399 . S
C1294 C1295 1.376 . S
C1295 H1282 0.930 . S
C1295 C1294 1.376 . S
C1295 C1296 1.388 1_455 S
C1296 H1283 0.930 . S
C1296 C1295 1.388 1_655 S
C1296 C1297 1.397 1_655 S
C1297 C1296 1.397 1_455 S
C1297 C1298 1.391 . S
C1297 C1303 1.459 1_455 S
C1298 C1293 1.399 . S
C1298 C1297 1.391 . S
C1298 C1299 1.516 . S
C1299 C1298 1.516 . S
C1299 C1300 1.502 . S
C1299 C1301 1.561 . S
C1299 C1302 1.526 . S
C1300 H1284 0.959 1_455 S
C1300 H1285 0.959 . S
C1300 H1286 0.961 . S
C1300 C1299 1.502 . S
C1301 H1287 0.960 . S
C1301 H1288 0.961 . S
C1301 H1289 0.959 . S
C1301 C1299 1.561 . S
C1302 C1299 1.526 . S
C1302 C1303 1.396 1_455 S
C1302 C1307 1.390 1_455 S
C1303 C1297 1.459 1_655 S
C1303 C1302 1.396 1_655 S
C1303 C1304 1.399 . S
C1304 H1290 0.929 . S
C1304 C1303 1.399 . S
C1304 C1305 1.385 . S
C1305 H1291 0.931 . S
C1305 C1304 1.385 . S
C1305 C1306 1.389 . S
C1306 C1305 1.389 . S
C1306 C1307 1.387 . S
C1307 H1292 0.930 1_655 S
C1307 C1302 1.390 1_655 S
C1307 C1306 1.387 . S
H1308 C1320 0.930 . S
H1309 C1322 0.930 . S
H1310 C1323 0.930 1_565 S
H1311 C1327 0.959 . S
H1312 C1327 0.959 . S
H1313 C1327 0.961 . S
H1314 C1328 0.960 . S
H1315 C1328 0.961 . S
H1316 C1328 0.959 . S
H1317 C1331 0.929 1_565 S
H1318 C1332 0.931 . S
H1319 C1334 0.930 . S
C1320 H1308 0.930 . S
C1320 C1321 1.399 . S
C1320 C1325 1.399 . S
C1321 C1320 1.399 . S
C1321 C1322 1.376 . S
C1322 H1309 0.930 . S
C1322 C1321 1.376 . S
C1322 C1323 1.388 . S
C1323 H1310 0.930 1_545 S
C1323 C1322 1.388 . S
C1323 C1324 1.390 . S
C1324 C1323 1.390 . S
C1324 C1325 1.394 . S
C1324 C1330 1.465 . S
C1325 C1320 1.399 . S
C1325 C1324 1.394 . S
C1325 C1326 1.516 . S
C1326 C1325 1.516 . S
C1326 C1327 1.502 . S
C1326 C1328 1.561 . S
C1326 C1329 1.526 . S
C1327 H1311 0.959 . S
C1327 H1312 0.959 . S
C1327 H1313 0.961 . S
C1327 C1326 1.502 . S
C1328 H1314 0.960 . S
C1328 H1315 0.961 . S
C1328 H1316 0.959 . S
C1328 C1326 1.561 . S
C1329 C1326 1.526 . S
C1329 C1330 1.396 . S
C1329 C1334 1.390 . S
C1330 C1324 1.465 . S
C1330 C1329 1.396 . S
C1330 C1331 1.399 . S
C1331 H1317 0.929 1_545 S
C1331 C1330 1.399 . S
C1331 C1332 1.385 . S
C1332 H1318 0.931 . S
C1332 C1331 1.385 . S
C1332 C1333 1.389 . S
C1333 C1332 1.389 . S
C1333 C1334 1.387 . S
C1334 H1319 0.930 . S
C1334 C1329 1.390 . S
C1334 C1333 1.387 . S
H1335 C1347 0.930 . S
H1336 C1349 0.930 . S
H1337 C1350 0.930 . S
H1338 C1354 0.959 . S
H1339 C1354 0.959 . S
H1340 C1354 0.961 . S
H1341 C1355 0.960 . S
H1342 C1355 0.961 . S
H1343 C1355 0.959 . S
H1344 C1358 0.929 . S
H1345 C1359 0.931 . S
H1346 C1361 0.930 . S
C1347 H1335 0.930 . S
C1347 C1348 1.399 . S
C1347 C1352 1.399 . S
C1348 C1347 1.399 . S
C1348 C1349 1.376 . S
C1349 H1336 0.930 . S
C1349 C1348 1.376 . S
C1349 C1350 1.388 . S
C1350 H1337 0.930 . S
C1350 C1349 1.388 . S
C1350 C1351 1.390 . S
C1351 C1350 1.390 . S
C1351 C1352 1.394 . S
C1351 C1357 1.465 . S
C1352 C1347 1.399 . S
C1352 C1351 1.394 . S
C1352 C1353 1.516 . S
C1353 C1352 1.516 . S
C1353 C1354 1.502 . S
C1353 C1355 1.561 . S
C1353 C1356 1.526 . S
C1354 H1338 0.959 . S
C1354 H1339 0.959 . S
C1354 H1340 0.961 . S
C1354 C1353 1.502 . S
C1355 H1341 0.960 . S
C1355 H1342 0.961 . S
C1355 H1343 0.959 . S
C1355 C1353 1.561 . S
C1356 C1353 1.526 . S
C1356 C1357 1.396 . S
C1356 C1361 1.390 . S
C1357 C1351 1.465 . S
C1357 C1356 1.396 . S
C1357 C1358 1.399 . S
C1358 H1344 0.929 . S
C1358 C1357 1.399 . S
C1358 C1359 1.385 . S
C1359 H1345 0.931 . S
C1359 C1358 1.385 . S
C1359 C1360 1.389 . S
C1360 C1359 1.389 . S
C1360 C1361 1.387 . S
C1361 H1346 0.930 . S
C1361 C1356 1.390 . S
C1361 C1360 1.387 . S
H1362 C1374 0.930 . S
H1363 C1376 0.930 . S
H1364 C1377 0.930 . S
H1365 C1381 0.959 . S
H1366 C1381 0.959 . S
H1367 C1381 0.961 . S
H1368 C1382 0.960 . S
H1369 C1382 0.961 . S
H1370 C1382 0.959 . S
H1371 C1385 0.929 . S
H1372 C1386 0.931 . S
H1373 C1388 0.930 . S
C1374 H1362 0.930 . S
C1374 C1375 1.399 . S
C1374 C1379 1.399 . S
C1375 C1374 1.399 . S
C1375 C1376 1.376 . S
C1376 H1363 0.930 . S
C1376 C1375 1.376 . S
C1376 C1377 1.388 . S
C1377 H1364 0.930 . S
C1377 C1376 1.388 . S
C1377 C1378 1.390 . S
C1378 C1377 1.390 . S
C1378 C1379 1.394 . S
C1378 C1384 1.465 . S
C1379 C1374 1.399 . S
C1379 C1378 1.394 . S
C1379 C1380 1.516 . S
C1380 C1379 1.516 . S
C1380 C1381 1.502 . S
C1380 C1382 1.561 . S
C1380 C1383 1.526 . S
C1381 H1365 0.959 . S
C1381 H1366 0.959 . S
C1381 H1367 0.961 . S
C1381 C1380 1.502 . S
C1382 H1368 0.960 . S
C1382 H1369 0.961 . S
C1382 H1370 0.959 . S
C1382 C1380 1.561 . S
C1383 C1380 1.526 . S
C1383 C1384 1.396 . S
C1383 C1388 1.390 . S
C1384 C1378 1.465 . S
C1384 C1383 1.396 . S
C1384 C1385 1.399 . S
C1385 H1371 0.929 . S
C1385 C1384 1.399 . S
C1385 C1386 1.385 . S
C1386 H1372 0.931 . S
C1386 C1385 1.385 . S
C1386 C1387 1.389 . S
C1387 C1386 1.389 . S
C1387 C1388 1.387 . S
C1388 H1373 0.930 . S
C1388 C1383 1.390 . S
C1388 C1387 1.387 . S
H1389 C1401 0.930 . S
H1390 C1403 0.930 . S
H1391 C1404 0.930 . S
H1392 C1408 0.959 1_565 S
H1393 C1408 0.959 . S
H1394 C1408 0.961 . S
H1395 C1409 0.960 1_545 S
H1396 C1409 0.961 1_545 S
H1397 C1409 0.959 . S
H1398 C1412 0.929 . S
H1399 C1413 0.931 . S
H1400 C1415 0.930 . S
C1401 H1389 0.930 . S
C1401 C1402 1.399 . S
C1401 C1406 1.399 . S
C1402 C1401 1.399 . S
C1402 C1403 1.376 . S
C1403 H1390 0.930 . S
C1403 C1402 1.376 . S
C1403 C1404 1.388 . S
C1404 H1391 0.930 . S
C1404 C1403 1.388 . S
C1404 C1405 1.390 . S
C1405 C1404 1.390 . S
C1405 C1406 1.394 . S
C1405 C1411 1.465 . S
C1406 C1401 1.399 . S
C1406 C1405 1.394 . S
C1406 C1407 1.516 . S
C1407 C1406 1.516 . S
C1407 C1408 1.502 1_565 S
C1407 C1409 1.561 . S
C1407 C1410 1.526 . S
C1408 H1392 0.959 1_545 S
C1408 H1393 0.959 . S
C1408 H1394 0.961 . S
C1408 C1407 1.502 1_545 S
C1409 H1395 0.960 1_565 S
C1409 H1396 0.961 1_565 S
C1409 H1397 0.959 . S
C1409 C1407 1.561 . S
C1410 C1407 1.526 . S
C1410 C1411 1.396 . S
C1410 C1415 1.390 . S
C1411 C1405 1.465 . S
C1411 C1410 1.396 . S
C1411 C1412 1.399 . S
C1412 H1398 0.929 . S
C1412 C1411 1.399 . S
C1412 C1413 1.385 . S
C1413 H1399 0.931 . S
C1413 C1412 1.385 . S
C1413 C1414 1.389 . S
C1414 C1413 1.389 . S
C1414 C1415 1.387 . S
C1415 H1400 0.930 . S
C1415 C1410 1.390 . S
C1415 C1414 1.387 . S
H1416 C1428 0.930 . S
H1417 C1430 0.930 . S
H1418 C1431 0.930 . S
H1419 C1435 0.959 . S
H1420 C1435 0.959 . S
H1421 C1435 0.961 . S
H1422 C1436 0.960 . S
H1423 C1436 0.961 . S
H1424 C1436 0.959 . S
H1425 C1439 0.929 . S
H1426 C1440 0.931 . S
H1427 C1442 0.930 . S
C1428 H1416 0.930 . S
C1428 C1429 1.399 . S
C1428 C1433 1.399 . S
C1429 C1428 1.399 . S
C1429 C1430 1.376 . S
C1430 H1417 0.930 . S
C1430 C1429 1.376 . S
C1430 C1431 1.388 . S
C1431 H1418 0.930 . S
C1431 C1430 1.388 . S
C1431 C1432 1.390 . S
C1432 C1431 1.390 . S
C1432 C1433 1.394 . S
C1432 C1438 1.465 . S
C1433 C1428 1.399 . S
C1433 C1432 1.394 . S
C1433 C1434 1.516 . S
C1434 C1433 1.516 . S
C1434 C1435 1.502 . S
C1434 C1436 1.561 . S
C1434 C1437 1.526 . S
C1435 H1419 0.959 . S
C1435 H1420 0.959 . S
C1435 H1421 0.961 . S
C1435 C1434 1.502 . S
C1436 H1422 0.960 . S
C1436 H1423 0.961 . S
C1436 H1424 0.959 . S
C1436 C1434 1.561 . S
C1437 C1434 1.526 . S
C1437 C1438 1.396 . S
C1437 C1442 1.390 . S
C1438 C1432 1.465 . S
C1438 C1437 1.396 . S
C1438 C1439 1.399 . S
C1439 H1425 0.929 . S
C1439 C1438 1.399 . S
C1439 C1440 1.385 . S
C1440 H1426 0.931 . S
C1440 C1439 1.385 . S
C1440 C1441 1.389 . S
C1441 C1440 1.389 . S
C1441 C1442 1.387 . S
C1442 H1427 0.930 . S
C1442 C1437 1.390 . S
C1442 C1441 1.387 . S
H1443 C1455 0.930 . S
H1444 C1457 0.930 . S
H1445 C1458 0.930 . S
H1446 C1462 0.959 . S
H1447 C1462 0.959 . S
H1448 C1462 0.961 . S
H1449 C1463 0.960 . S
H1450 C1463 0.961 . S
H1451 C1463 0.959 . S
H1452 C1466 0.929 . S
H1453 C1467 0.931 . S
H1454 C1469 0.930 . S
C1455 H1443 0.930 . S
C1455 C1456 1.399 . S
C1455 C1460 1.399 . S
C1456 C1455 1.399 . S
C1456 C1457 1.376 . S
C1457 H1444 0.930 . S
C1457 C1456 1.376 . S
C1457 C1458 1.388 . S
C1458 H1445 0.930 . S
C1458 C1457 1.388 . S
C1458 C1459 1.390 . S
C1459 C1458 1.390 . S
C1459 C1460 1.394 . S
C1459 C1465 1.465 . S
C1460 C1455 1.399 . S
C1460 C1459 1.394 . S
C1460 C1461 1.516 . S
C1461 C1460 1.516 . S
C1461 C1462 1.502 . S
C1461 C1463 1.561 . S
C1461 C1464 1.526 . S
C1462 H1446 0.959 . S
C1462 H1447 0.959 . S
C1462 H1448 0.961 . S
C1462 C1461 1.502 . S
C1463 H1449 0.960 . S
C1463 H1450 0.961 . S
C1463 H1451 0.959 . S
C1463 C1461 1.561 . S
C1464 C1461 1.526 . S
C1464 C1465 1.396 . S
C1464 C1469 1.390 . S
C1465 C1459 1.465 . S
C1465 C1464 1.396 . S
C1465 C1466 1.399 . S
C1466 H1452 0.929 . S
C1466 C1465 1.399 . S
C1466 C1467 1.385 . S
C1467 H1453 0.931 . S
C1467 C1466 1.385 . S
C1467 C1468 1.389 . S
C1468 C1467 1.389 . S
C1468 C1469 1.387 . S
C1469 H1454 0.930 . S
C1469 C1464 1.390 . S
C1469 C1468 1.387 . S
H1470 C1482 0.930 . S
H1471 C1484 0.930 . S
H1472 C1485 0.930 . S
H1473 C1489 0.959 . S
H1474 C1489 0.959 . S
H1475 C1489 0.961 . S
H1476 C1490 0.960 . S
H1477 C1490 0.961 . S
H1478 C1490 0.959 . S
H1479 C1493 0.929 . S
H1480 C1494 0.931 . S
H1481 C1496 0.930 . S
C1482 H1470 0.930 . S
C1482 C1483 1.399 . S
C1482 C1487 1.399 . S
C1483 C1482 1.399 . S
C1483 C1484 1.376 . S
C1484 H1471 0.930 . S
C1484 C1483 1.376 . S
C1484 C1485 1.388 . S
C1485 H1472 0.930 . S
C1485 C1484 1.388 . S
C1485 C1486 1.390 . S
C1486 C1485 1.390 . S
C1486 C1487 1.394 . S
C1486 C1492 1.465 . S
C1487 C1482 1.399 . S
C1487 C1486 1.394 . S
C1487 C1488 1.516 . S
C1488 C1487 1.516 . S
C1488 C1489 1.502 . S
C1488 C1490 1.561 . S
C1488 C1491 1.526 . S
C1489 H1473 0.959 . S
C1489 H1474 0.959 . S
C1489 H1475 0.961 . S
C1489 C1488 1.502 . S
C1490 H1476 0.960 . S
C1490 H1477 0.961 . S
C1490 H1478 0.959 . S
C1490 C1488 1.561 . S
C1491 C1488 1.526 . S
C1491 C1492 1.396 . S
C1491 C1496 1.390 . S
C1492 C1486 1.465 . S
C1492 C1491 1.396 . S
C1492 C1493 1.399 . S
C1493 H1479 0.929 . S
C1493 C1492 1.399 . S
C1493 C1494 1.385 . S
C1494 H1480 0.931 . S
C1494 C1493 1.385 . S
C1494 C1495 1.389 . S
C1495 C1494 1.389 . S
C1495 C1496 1.387 . S
C1496 H1481 0.930 . S
C1496 C1491 1.390 . S
C1496 C1495 1.387 . S
H1497 C1509 0.930 . S
H1498 C1511 0.930 . S
H1499 C1512 0.930 . S
H1500 C1516 0.986 . S
H1501 C1516 0.959 . S
H1502 C1516 0.961 . S
H1503 C1517 0.960 . S
H1504 C1517 0.961 . S
H1505 C1517 0.959 . S
H1506 C1520 0.929 . S
H1507 C1521 0.931 . S
H1508 C1523 0.930 . S
C1509 H1497 0.930 . S
C1509 C1510 1.399 . S
C1509 C1514 1.399 . S
C1510 C1509 1.399 . S
C1510 C1511 1.376 . S
C1511 H1498 0.930 . S
C1511 C1510 1.376 . S
C1511 C1512 1.388 . S
C1512 H1499 0.930 . S
C1512 C1511 1.388 . S
C1512 C1513 1.390 . S
C1513 C1512 1.390 . S
C1513 C1514 1.394 . S
C1513 C1519 1.465 . S
C1514 C1509 1.399 . S
C1514 C1513 1.394 . S
C1514 C1515 1.516 . S
C1515 C1514 1.516 . S
C1515 C1516 1.502 . S
C1515 C1517 1.561 . S
C1515 C1518 1.526 . S
C1516 H1500 0.986 . S
C1516 H1501 0.959 . S
C1516 H1502 0.961 . S
C1516 C1515 1.502 . S
C1517 H1503 0.960 . S
C1517 H1504 0.961 . S
C1517 H1505 0.959 . S
C1517 C1515 1.561 . S
C1518 C1515 1.526 . S
C1518 C1519 1.396 . S
C1518 C1523 1.390 . S
C1519 C1513 1.465 . S
C1519 C1518 1.396 . S
C1519 C1520 1.399 . S
C1520 H1506 0.929 . S
C1520 C1519 1.399 . S
C1520 C1521 1.385 . S
C1521 H1507 0.931 . S
C1521 C1520 1.385 . S
C1521 C1522 1.389 . S
C1522 C1521 1.389 . S
C1522 C1523 1.387 . S
C1523 H1508 0.930 . S
C1523 C1518 1.390 . S
C1523 C1522 1.387 . S
H1524 C1536 0.930 . S
H1525 C1538 0.930 . S
H1526 C1539 0.930 . S
H1527 C1543 0.959 . S
H1528 C1543 0.959 . S
H1529 C1543 0.961 . S
H1530 C1544 0.960 . S
H1531 C1544 0.961 . S
H1532 C1544 0.959 . S
H1533 C1547 0.929 . S
H1534 C1548 0.931 . S
H1535 C1550 0.930 . S
C1536 H1524 0.930 . S
C1536 C1537 1.399 . S
C1536 C1541 1.399 . S
C1537 C1536 1.399 . S
C1537 C1538 1.376 . S
C1538 H1525 0.930 . S
C1538 C1537 1.376 . S
C1538 C1539 1.388 . S
C1539 H1526 0.930 . S
C1539 C1538 1.388 . S
C1539 C1540 1.390 . S
C1540 C1539 1.390 . S
C1540 C1541 1.394 . S
C1540 C1546 1.465 . S
C1541 C1536 1.399 . S
C1541 C1540 1.394 . S
C1541 C1542 1.516 . S
C1542 C1541 1.516 . S
C1542 C1543 1.502 . S
C1542 C1544 1.561 . S
C1542 C1545 1.526 . S
C1543 H1527 0.959 . S
C1543 H1528 0.959 . S
C1543 H1529 0.961 . S
C1543 C1542 1.502 . S
C1544 H1530 0.960 . S
C1544 H1531 0.961 . S
C1544 H1532 0.959 . S
C1544 C1542 1.561 . S
C1545 C1542 1.526 . S
C1545 C1546 1.396 . S
C1545 C1550 1.390 . S
C1546 C1540 1.465 . S
C1546 C1545 1.396 . S
C1546 C1547 1.399 . S
C1547 H1533 0.929 . S
C1547 C1546 1.399 . S
C1547 C1548 1.385 . S
C1548 H1534 0.931 . S
C1548 C1547 1.385 . S
C1548 C1549 1.389 . S
C1549 C1548 1.389 . S
C1549 C1550 1.387 . S
C1550 H1535 0.930 . S
C1550 C1545 1.390 . S
C1550 C1549 1.387 . S
H1551 C1563 0.930 . S
H1552 C1565 0.930 . S
H1553 C1566 0.930 . S
H1554 C1570 0.959 . S
H1555 C1570 0.959 . S
H1556 C1570 0.961 . S
H1557 C1571 0.960 . S
H1558 C1571 0.961 . S
H1559 C1571 0.959 1_655 S
H1560 C1574 0.929 . S
H1561 C1575 0.931 . S
H1562 C1577 0.930 . S
C1563 H1551 0.930 . S
C1563 C1564 1.399 . S
C1563 C1568 1.399 . S
C1564 C1563 1.399 . S
C1564 C1565 1.376 . S
C1565 H1552 0.930 . S
C1565 C1564 1.376 . S
C1565 C1566 1.388 . S
C1566 H1553 0.930 . S
C1566 C1565 1.388 . S
C1566 C1567 1.390 . S
C1567 C1566 1.390 . S
C1567 C1568 1.394 . S
C1567 C1573 1.465 . S
C1568 C1563 1.399 . S
C1568 C1567 1.394 . S
C1568 C1569 1.516 . S
C1569 C1568 1.516 . S
C1569 C1570 1.502 . S
C1569 C1571 1.561 . S
C1569 C1572 1.526 . S
C1570 H1554 0.959 . S
C1570 H1555 0.959 . S
C1570 H1556 0.961 . S
C1570 C1569 1.502 . S
C1571 H1557 0.960 . S
C1571 H1558 0.961 . S
C1571 H1559 0.959 1_455 S
C1571 C1569 1.561 . S
C1572 C1569 1.526 . S
C1572 C1573 1.396 . S
C1572 C1577 1.390 . S
C1573 C1567 1.465 . S
C1573 C1572 1.396 . S
C1573 C1574 1.399 . S
C1574 H1560 0.929 . S
C1574 C1573 1.399 . S
C1574 C1575 1.385 . S
C1575 H1561 0.931 . S
C1575 C1574 1.385 . S
C1575 C1576 1.389 . S
C1576 C1575 1.389 . S
C1576 C1577 1.387 . S
C1577 H1562 0.930 . S
C1577 C1572 1.390 . S
C1577 C1576 1.387 . S
H1578 C1590 0.930 . S
H1579 C1592 0.930 . S
H1580 C1593 0.930 . S
H1581 C1597 0.959 . S
H1582 C1597 0.959 . S
H1583 C1597 0.961 . S
H1584 C1598 0.960 . S
H1585 C1598 0.961 . S
H1586 C1598 0.959 . S
H1587 C1601 0.929 . S
H1588 C1602 0.931 . S
H1589 C1604 0.930 . S
C1590 H1578 0.930 . S
C1590 C1591 1.399 . S
C1590 C1595 1.399 . S
C1591 C1590 1.399 . S
C1591 C1592 1.376 . S
C1592 H1579 0.930 . S
C1592 C1591 1.376 . S
C1592 C1593 1.388 . S
C1593 H1580 0.930 . S
C1593 C1592 1.388 . S
C1593 C1594 1.390 . S
C1594 C1593 1.390 . S
C1594 C1595 1.394 . S
C1594 C1600 1.465 . S
C1595 C1590 1.399 . S
C1595 C1594 1.394 . S
C1595 C1596 1.516 . S
C1596 C1595 1.516 . S
C1596 C1597 1.502 . S
C1596 C1598 1.561 . S
C1596 C1599 1.526 . S
C1597 H1581 0.959 . S
C1597 H1582 0.959 . S
C1597 H1583 0.961 . S
C1597 C1596 1.502 . S
C1598 H1584 0.960 . S
C1598 H1585 0.961 . S
C1598 H1586 0.959 . S
C1598 C1596 1.561 . S
C1599 C1596 1.526 . S
C1599 C1600 1.396 . S
C1599 C1604 1.390 . S
C1600 C1594 1.465 . S
C1600 C1599 1.396 . S
C1600 C1601 1.399 . S
C1601 H1587 0.929 . S
C1601 C1600 1.399 . S
C1601 C1602 1.385 . S
C1602 H1588 0.931 . S
C1602 C1601 1.385 . S
C1602 C1603 1.389 . S
C1603 C1602 1.389 . S
C1603 C1604 1.387 . S
C1604 H1589 0.930 . S
C1604 C1599 1.390 . S
C1604 C1603 1.387 . S
H1605 C1617 0.930 . S
H1606 C1619 0.930 . S
H1607 C1620 0.930 . S
H1608 C1624 0.959 . S
H1609 C1624 0.959 . S
H1610 C1624 0.961 . S
H1611 C1625 0.960 . S
H1612 C1625 0.961 . S
H1613 C1625 0.959 . S
H1614 C1628 0.929 . S
H1615 C1629 0.931 . S
H1616 C1631 0.930 . S
C1617 H1605 0.930 . S
C1617 C1618 1.399 . S
C1617 C1622 1.399 . S
C1618 C1617 1.399 . S
C1618 C1619 1.376 . S
C1619 H1606 0.930 . S
C1619 C1618 1.376 . S
C1619 C1620 1.388 . S
C1620 H1607 0.930 . S
C1620 C1619 1.388 . S
C1620 C1621 1.390 . S
C1621 C1620 1.390 . S
C1621 C1622 1.394 . S
C1621 C1627 1.465 . S
C1622 C1617 1.399 . S
C1622 C1621 1.394 . S
C1622 C1623 1.516 . S
C1623 C1622 1.516 . S
C1623 C1624 1.502 . S
C1623 C1625 1.561 . S
C1623 C1626 1.526 . S
C1624 H1608 0.959 . S
C1624 H1609 0.959 . S
C1624 H1610 0.961 . S
C1624 C1623 1.502 . S
C1625 H1611 0.960 . S
C1625 H1612 0.961 . S
C1625 H1613 0.959 . S
C1625 C1623 1.561 . S
C1626 C1623 1.526 . S
C1626 C1627 1.396 . S
C1626 C1631 1.390 . S
C1627 C1621 1.465 . S
C1627 C1626 1.396 . S
C1627 C1628 1.399 . S
C1628 H1614 0.929 . S
C1628 C1627 1.399 . S
C1628 C1629 1.385 . S
C1629 H1615 0.931 . S
C1629 C1628 1.385 . S
C1629 C1630 1.389 . S
C1630 C1629 1.389 . S
C1630 C1631 1.387 . S
C1631 H1616 0.930 . S
C1631 C1626 1.390 . S
C1631 C1630 1.387 . S
C349 C219 1.265 . S
C361 C9 1.277 . S
C376 C23 1.244 . S
C388 C233 1.231 . S
C403 C37 1.210 . S
C415 C247 1.219 . S
C430 C51 1.211 . S
C442 C177 1.208 . S
C457 C191 1.248 . S
C469 C65 1.262 . S
C484 C79 1.218 . S
C496 C205 1.230 . S
C511 C303 1.298 . S
C523 C93 1.298 . S
C538 C107 1.296 . S
C550 C317 1.298 . S
C565 C121 1.258 . S
C577 C331 1.272 . S
C592 C261 1.206 . S
C604 C135 1.210 . S
C619 C149 1.285 . S
C631 C275 1.293 . S
C646 C289 1.225 . S
C658 C163 1.238 . S
C673 C3 1.586 . S
C685 C325 1.587 . S
C700 C255 1.586 . S
C712 C17 1.586 . S
C727 C31 1.583 . S
C739 C269 1.582 . S
C754 C283 1.581 . S
C766 C45 1.581 . S
C781 C59 1.584 . S
C793 C297 1.585 . S
C808 C311 1.581 . S
C820 C73 1.582 . S
C835 C87 1.582 . S
C847 C185 1.582 . S
C862 C199 1.582 . S
C874 C101 1.582 . S
C889 C213 1.585 . S
C901 C115 1.586 . S
C916 C227 1.585 . S
C928 C129 1.584 . S
C943 C143 1.581 . S
C955 C241 1.581 . S
C970 C157 1.582 . S
C982 C171 1.582 . S
C997 C106 1.267 . S
C1009 C8 1.305 . S
C1024 C120 1.262 . S
C1036 C22 1.270 . S
C1051 C134 1.305 . S
C1063 C36 1.266 . S
C1078 C148 1.289 . S
C1090 C50 1.254 . S
C1105 C64 1.303 . S
C1117 C162 1.260 . S
C1132 C78 1.293 . S
C1144 C92 1.294 . S
C1159 C176 1.304 . S
C1171 C274 1.255 . S
C1186 C190 1.283 . S
C1198 C288 1.289 . S
C1213 C302 1.278 . S
C1225 C204 1.268 . S
C1240 C316 1.304 . S
C1252 C218 1.260 . S
C1267 C330 1.255 . S
C1279 C232 1.305 . S
C1294 C260 1.289 . S
C1306 C246 1.283 . S
C1321 C7 1.571 . S
C1333 C273 1.579 . S
C1348 C287 1.580 . S
C1360 C21 1.587 . S
C1375 C35 1.539 . S
C1387 C301 1.544 . S
C1402 C315 1.539 . S
C1414 C49 1.544 . S
C1429 C63 1.595 . S
C1441 C329 1.592 . S
C1456 C259 1.561 . S
C1468 C77 1.553 . S
C1483 C91 1.594 . S
C1495 C245 1.591 . S
C1510 C175 1.566 . S
C1522 C105 1.575 . S
C1537 C119 1.571 . S
C1549 C189 1.563 . S
C1564 C133 1.591 . S
C1576 C203 1.585 . S
C1591 C147 1.594 . S
C1603 C217 1.590 . S
C1618 C161 1.571 . S
C1630 C231 1.563 . S
