# Generated by pormake.
# Topology sou, (8)-cn, num edge types: 1
# Building blocks:
#     Node 0, Type 0, BuildingBlock: NUHRAL_clean_sbu_3, # of connection points: 8
#     Node 1, Type 0, BuildingBlock: NUHRAL_clean_sbu_3, # of connection points: 8
#     Node 2, Type 0, BuildingBlock: NUHRAL_clean_sbu_3, # of connection points: 8
#     Node 3, Type 0, BuildingBlock: NUHRAL_clean_sbu_3, # of connection points: 8
#     Node 4, Type 0, BuildingBlock: NUHRAL_clean_sbu_3, # of connection points: 8
#     Node 5, Type 0, BuildingBlock: NUHRAL_clean_sbu_3, # of connection points: 8
#     Node 6, Type 0, BuildingBlock: NUHRAL_clean_sbu_3, # of connection points: 8
#     Node 7, Type 0, BuildingBlock: NUHRAL_clean_sbu_3, # of connection points: 8
#     Node 8, Type 0, BuildingBlock: NUHRAL_clean_sbu_3, # of connection points: 8
#     Node 9, Type 0, BuildingBlock: NUHRAL_clean_sbu_3, # of connection points: 8
#     Node 10, Type 0, BuildingBlock: NUHRAL_clean_sbu_3, # of connection points: 8
#     Node 11, Type 0, BuildingBlock: NUHRAL_clean_sbu_3, # of connection points: 8
#     Node 12, Type 0, BuildingBlock: NUHRAL_clean_sbu_3, # of connection points: 8
#     Node 13, Type 0, BuildingBlock: NUHRAL_clean_sbu_3, # of connection points: 8
#     Node 14, Type 0, BuildingBlock: NUHRAL_clean_sbu_3, # of connection points: 8
#     Node 15, Type 0, BuildingBlock: NUHRAL_clean_sbu_3, # of connection points: 8
#     Node 16, Type 0, BuildingBlock: NUHRAL_clean_sbu_3, # of connection points: 8
#     Node 17, Type 0, BuildingBlock: NUHRAL_clean_sbu_3, # of connection points: 8
#     Node 18, Type 0, BuildingBlock: NUHRAL_clean_sbu_3, # of connection points: 8
#     Node 19, Type 0, BuildingBlock: NUHRAL_clean_sbu_3, # of connection points: 8
#     Node 20, Type 0, BuildingBlock: NUHRAL_clean_sbu_3, # of connection points: 8
#     Node 21, Type 0, BuildingBlock: NUHRAL_clean_sbu_3, # of connection points: 8
#     Node 22, Type 0, BuildingBlock: NUHRAL_clean_sbu_3, # of connection points: 8
#     Node 23, Type 0, BuildingBlock: NUHRAL_clean_sbu_3, # of connection points: 8
#     Node 24, Type 0, BuildingBlock: NUHRAL_clean_sbu_3, # of connection points: 8
#     Node 25, Type 0, BuildingBlock: NUHRAL_clean_sbu_3, # of connection points: 8
#     Node 26, Type 0, BuildingBlock: NUHRAL_clean_sbu_3, # of connection points: 8
#     Node 27, Type 0, BuildingBlock: NUHRAL_clean_sbu_3, # of connection points: 8
#     Node 28, Type 0, BuildingBlock: NUHRAL_clean_sbu_3, # of connection points: 8
#     Node 29, Type 0, BuildingBlock: NUHRAL_clean_sbu_3, # of connection points: 8
#     Node 30, Type 0, BuildingBlock: NUHRAL_clean_sbu_3, # of connection points: 8
#     Node 31, Type 0, BuildingBlock: NUHRAL_clean_sbu_3, # of connection points: 8
#     Edge 32, Type (0, 0), BuildingBlock: CIFDUS_clean_linker_0, # of connection points: 2
#     Edge 33, Type (0, 0), BuildingBlock: CIFDUS_clean_linker_0, # of connection points: 2
#     Edge 34, Type (0, 0), BuildingBlock: CIFDUS_clean_linker_0, # of connection points: 2
#     Edge 35, Type (0, 0), BuildingBlock: CIFDUS_clean_linker_0, # of connection points: 2
#     Edge 36, Type (0, 0), BuildingBlock: CIFDUS_clean_linker_0, # of connection points: 2
#     Edge 37, Type (0, 0), BuildingBlock: CIFDUS_clean_linker_0, # of connection points: 2
#     Edge 38, Type (0, 0), BuildingBlock: CIFDUS_clean_linker_0, # of connection points: 2
#     Edge 39, Type (0, 0), BuildingBlock: CIFDUS_clean_linker_0, # of connection points: 2
#     Edge 40, Type (0, 0), BuildingBlock: CIFDUS_clean_linker_0, # of connection points: 2
#     Edge 41, Type (0, 0), BuildingBlock: CIFDUS_clean_linker_0, # of connection points: 2
#     Edge 42, Type (0, 0), BuildingBlock: CIFDUS_clean_linker_0, # of connection points: 2
#     Edge 43, Type (0, 0), BuildingBlock: CIFDUS_clean_linker_0, # of connection points: 2
#     Edge 44, Type (0, 0), BuildingBlock: CIFDUS_clean_linker_0, # of connection points: 2
#     Edge 45, Type (0, 0), BuildingBlock: CIFDUS_clean_linker_0, # of connection points: 2
#     Edge 46, Type (0, 0), BuildingBlock: CIFDUS_clean_linker_0, # of connection points: 2
#     Edge 47, Type (0, 0), BuildingBlock: CIFDUS_clean_linker_0, # of connection points: 2
#     Edge 48, Type (0, 0), BuildingBlock: CIFDUS_clean_linker_0, # of connection points: 2
#     Edge 49, Type (0, 0), BuildingBlock: CIFDUS_clean_linker_0, # of connection points: 2
#     Edge 50, Type (0, 0), BuildingBlock: CIFDUS_clean_linker_0, # of connection points: 2
#     Edge 51, Type (0, 0), BuildingBlock: CIFDUS_clean_linker_0, # of connection points: 2
#     Edge 52, Type (0, 0), BuildingBlock: CIFDUS_clean_linker_0, # of connection points: 2
#     Edge 53, Type (0, 0), BuildingBlock: CIFDUS_clean_linker_0, # of connection points: 2
#     Edge 54, Type (0, 0), BuildingBlock: CIFDUS_clean_linker_0, # of connection points: 2
#     Edge 55, Type (0, 0), BuildingBlock: CIFDUS_clean_linker_0, # of connection points: 2
#     Edge 56, Type (0, 0), BuildingBlock: CIFDUS_clean_linker_0, # of connection points: 2
#     Edge 57, Type (0, 0), BuildingBlock: CIFDUS_clean_linker_0, # of connection points: 2
#     Edge 58, Type (0, 0), BuildingBlock: CIFDUS_clean_linker_0, # of connection points: 2
#     Edge 59, Type (0, 0), BuildingBlock: CIFDUS_clean_linker_0, # of connection points: 2
#     Edge 60, Type (0, 0), BuildingBlock: CIFDUS_clean_linker_0, # of connection points: 2
#     Edge 61, Type (0, 0), BuildingBlock: CIFDUS_clean_linker_0, # of connection points: 2
#     Edge 62, Type (0, 0), BuildingBlock: CIFDUS_clean_linker_0, # of connection points: 2
#     Edge 63, Type (0, 0), BuildingBlock: CIFDUS_clean_linker_0, # of connection points: 2
#     Edge 64, Type (0, 0), BuildingBlock: CIFDUS_clean_linker_0, # of connection points: 2
#     Edge 65, Type (0, 0), BuildingBlock: CIFDUS_clean_linker_0, # of connection points: 2
#     Edge 66, Type (0, 0), BuildingBlock: CIFDUS_clean_linker_0, # of connection points: 2
#     Edge 67, Type (0, 0), BuildingBlock: CIFDUS_clean_linker_0, # of connection points: 2
#     Edge 68, Type (0, 0), BuildingBlock: CIFDUS_clean_linker_0, # of connection points: 2
#     Edge 69, Type (0, 0), BuildingBlock: CIFDUS_clean_linker_0, # of connection points: 2
#     Edge 70, Type (0, 0), BuildingBlock: CIFDUS_clean_linker_0, # of connection points: 2
#     Edge 71, Type (0, 0), BuildingBlock: CIFDUS_clean_linker_0, # of connection points: 2
#     Edge 72, Type (0, 0), BuildingBlock: CIFDUS_clean_linker_0, # of connection points: 2
#     Edge 73, Type (0, 0), BuildingBlock: CIFDUS_clean_linker_0, # of connection points: 2
#     Edge 74, Type (0, 0), BuildingBlock: CIFDUS_clean_linker_0, # of connection points: 2
#     Edge 75, Type (0, 0), BuildingBlock: CIFDUS_clean_linker_0, # of connection points: 2
#     Edge 76, Type (0, 0), BuildingBlock: CIFDUS_clean_linker_0, # of connection points: 2
#     Edge 77, Type (0, 0), BuildingBlock: CIFDUS_clean_linker_0, # of connection points: 2
#     Edge 78, Type (0, 0), BuildingBlock: CIFDUS_clean_linker_0, # of connection points: 2
#     Edge 79, Type (0, 0), BuildingBlock: CIFDUS_clean_linker_0, # of connection points: 2
#     Edge 80, Type (0, 0), BuildingBlock: CIFDUS_clean_linker_0, # of connection points: 2
#     Edge 81, Type (0, 0), BuildingBlock: CIFDUS_clean_linker_0, # of connection points: 2
#     Edge 82, Type (0, 0), BuildingBlock: CIFDUS_clean_linker_0, # of connection points: 2
#     Edge 83, Type (0, 0), BuildingBlock: CIFDUS_clean_linker_0, # of connection points: 2
#     Edge 84, Type (0, 0), BuildingBlock: CIFDUS_clean_linker_0, # of connection points: 2
#     Edge 85, Type (0, 0), BuildingBlock: CIFDUS_clean_linker_0, # of connection points: 2
#     Edge 86, Type (0, 0), BuildingBlock: CIFDUS_clean_linker_0, # of connection points: 2
#     Edge 87, Type (0, 0), BuildingBlock: CIFDUS_clean_linker_0, # of connection points: 2
#     Edge 88, Type (0, 0), BuildingBlock: CIFDUS_clean_linker_0, # of connection points: 2
#     Edge 89, Type (0, 0), BuildingBlock: CIFDUS_clean_linker_0, # of connection points: 2
#     Edge 90, Type (0, 0), BuildingBlock: CIFDUS_clean_linker_0, # of connection points: 2
#     Edge 91, Type (0, 0), BuildingBlock: CIFDUS_clean_linker_0, # of connection points: 2
#     Edge 92, Type (0, 0), BuildingBlock: CIFDUS_clean_linker_0, # of connection points: 2
#     Edge 93, Type (0, 0), BuildingBlock: CIFDUS_clean_linker_0, # of connection points: 2
#     Edge 94, Type (0, 0), BuildingBlock: CIFDUS_clean_linker_0, # of connection points: 2
#     Edge 95, Type (0, 0), BuildingBlock: CIFDUS_clean_linker_0, # of connection points: 2
#     Edge 96, Type (0, 0), BuildingBlock: CIFDUS_clean_linker_0, # of connection points: 2
#     Edge 97, Type (0, 0), BuildingBlock: CIFDUS_clean_linker_0, # of connection points: 2
#     Edge 98, Type (0, 0), BuildingBlock: CIFDUS_clean_linker_0, # of connection points: 2
#     Edge 99, Type (0, 0), BuildingBlock: CIFDUS_clean_linker_0, # of connection points: 2
#     Edge 100, Type (0, 0), BuildingBlock: CIFDUS_clean_linker_0, # of connection points: 2
#     Edge 101, Type (0, 0), BuildingBlock: CIFDUS_clean_linker_0, # of connection points: 2
#     Edge 102, Type (0, 0), BuildingBlock: CIFDUS_clean_linker_0, # of connection points: 2
#     Edge 103, Type (0, 0), BuildingBlock: CIFDUS_clean_linker_0, # of connection points: 2
#     Edge 104, Type (0, 0), BuildingBlock: CIFDUS_clean_linker_0, # of connection points: 2
#     Edge 105, Type (0, 0), BuildingBlock: CIFDUS_clean_linker_0, # of connection points: 2
#     Edge 106, Type (0, 0), BuildingBlock: CIFDUS_clean_linker_0, # of connection points: 2
#     Edge 107, Type (0, 0), BuildingBlock: CIFDUS_clean_linker_0, # of connection points: 2
#     Edge 108, Type (0, 0), BuildingBlock: CIFDUS_clean_linker_0, # of connection points: 2
#     Edge 109, Type (0, 0), BuildingBlock: CIFDUS_clean_linker_0, # of connection points: 2
#     Edge 110, Type (0, 0), BuildingBlock: CIFDUS_clean_linker_0, # of connection points: 2
#     Edge 111, Type (0, 0), BuildingBlock: CIFDUS_clean_linker_0, # of connection points: 2
#     Edge 112, Type (0, 0), BuildingBlock: CIFDUS_clean_linker_0, # of connection points: 2
#     Edge 113, Type (0, 0), BuildingBlock: CIFDUS_clean_linker_0, # of connection points: 2
#     Edge 114, Type (0, 0), BuildingBlock: CIFDUS_clean_linker_0, # of connection points: 2
#     Edge 115, Type (0, 0), BuildingBlock: CIFDUS_clean_linker_0, # of connection points: 2
#     Edge 116, Type (0, 0), BuildingBlock: CIFDUS_clean_linker_0, # of connection points: 2
#     Edge 117, Type (0, 0), BuildingBlock: CIFDUS_clean_linker_0, # of connection points: 2
#     Edge 118, Type (0, 0), BuildingBlock: CIFDUS_clean_linker_0, # of connection points: 2
#     Edge 119, Type (0, 0), BuildingBlock: CIFDUS_clean_linker_0, # of connection points: 2
#     Edge 120, Type (0, 0), BuildingBlock: CIFDUS_clean_linker_0, # of connection points: 2
#     Edge 121, Type (0, 0), BuildingBlock: CIFDUS_clean_linker_0, # of connection points: 2
#     Edge 122, Type (0, 0), BuildingBlock: CIFDUS_clean_linker_0, # of connection points: 2
#     Edge 123, Type (0, 0), BuildingBlock: CIFDUS_clean_linker_0, # of connection points: 2
#     Edge 124, Type (0, 0), BuildingBlock: CIFDUS_clean_linker_0, # of connection points: 2
#     Edge 125, Type (0, 0), BuildingBlock: CIFDUS_clean_linker_0, # of connection points: 2
#     Edge 126, Type (0, 0), BuildingBlock: CIFDUS_clean_linker_0, # of connection points: 2
#     Edge 127, Type (0, 0), BuildingBlock: CIFDUS_clean_linker_0, # of connection points: 2
#     Edge 128, Type (0, 0), BuildingBlock: CIFDUS_clean_linker_0, # of connection points: 2
#     Edge 129, Type (0, 0), BuildingBlock: CIFDUS_clean_linker_0, # of connection points: 2
#     Edge 130, Type (0, 0), BuildingBlock: CIFDUS_clean_linker_0, # of connection points: 2
#     Edge 131, Type (0, 0), BuildingBlock: CIFDUS_clean_linker_0, # of connection points: 2
#     Edge 132, Type (0, 0), BuildingBlock: CIFDUS_clean_linker_0, # of connection points: 2
#     Edge 133, Type (0, 0), BuildingBlock: CIFDUS_clean_linker_0, # of connection points: 2
#     Edge 134, Type (0, 0), BuildingBlock: CIFDUS_clean_linker_0, # of connection points: 2
#     Edge 135, Type (0, 0), BuildingBlock: CIFDUS_clean_linker_0, # of connection points: 2
#     Edge 136, Type (0, 0), BuildingBlock: CIFDUS_clean_linker_0, # of connection points: 2
#     Edge 137, Type (0, 0), BuildingBlock: CIFDUS_clean_linker_0, # of connection points: 2
#     Edge 138, Type (0, 0), BuildingBlock: CIFDUS_clean_linker_0, # of connection points: 2
#     Edge 139, Type (0, 0), BuildingBlock: CIFDUS_clean_linker_0, # of connection points: 2
#     Edge 140, Type (0, 0), BuildingBlock: CIFDUS_clean_linker_0, # of connection points: 2
#     Edge 141, Type (0, 0), BuildingBlock: CIFDUS_clean_linker_0, # of connection points: 2
#     Edge 142, Type (0, 0), BuildingBlock: CIFDUS_clean_linker_0, # of connection points: 2
#     Edge 143, Type (0, 0), BuildingBlock: CIFDUS_clean_linker_0, # of connection points: 2
#     Edge 144, Type (0, 0), BuildingBlock: CIFDUS_clean_linker_0, # of connection points: 2
#     Edge 145, Type (0, 0), BuildingBlock: CIFDUS_clean_linker_0, # of connection points: 2
#     Edge 146, Type (0, 0), BuildingBlock: CIFDUS_clean_linker_0, # of connection points: 2
#     Edge 147, Type (0, 0), BuildingBlock: CIFDUS_clean_linker_0, # of connection points: 2
#     Edge 148, Type (0, 0), BuildingBlock: CIFDUS_clean_linker_0, # of connection points: 2
#     Edge 149, Type (0, 0), BuildingBlock: CIFDUS_clean_linker_0, # of connection points: 2
#     Edge 150, Type (0, 0), BuildingBlock: CIFDUS_clean_linker_0, # of connection points: 2
#     Edge 151, Type (0, 0), BuildingBlock: CIFDUS_clean_linker_0, # of connection points: 2
#     Edge 152, Type (0, 0), BuildingBlock: CIFDUS_clean_linker_0, # of connection points: 2
#     Edge 153, Type (0, 0), BuildingBlock: CIFDUS_clean_linker_0, # of connection points: 2
#     Edge 154, Type (0, 0), BuildingBlock: CIFDUS_clean_linker_0, # of connection points: 2
#     Edge 155, Type (0, 0), BuildingBlock: CIFDUS_clean_linker_0, # of connection points: 2
#     Edge 156, Type (0, 0), BuildingBlock: CIFDUS_clean_linker_0, # of connection points: 2
#     Edge 157, Type (0, 0), BuildingBlock: CIFDUS_clean_linker_0, # of connection points: 2
#     Edge 158, Type (0, 0), BuildingBlock: CIFDUS_clean_linker_0, # of connection points: 2
#     Edge 159, Type (0, 0), BuildingBlock: CIFDUS_clean_linker_0, # of connection points: 2
# Relax obj value: 0.058
# Max RMSD: 0.153
# Mean RMSD: 0.153
data_MOF--net-sou--node1-NUHRAL_clean_sbu_3--edge1-CIFDUS_clean_linker_0
_symmetry_space_group_name_H-M    P1
_symmetry_Int_Tables_number       1
_symmetry_cell_setting            triclinic
loop_
_symmetry_equiv_pos_as_xyz
'x, y, z'
_cell_length_a     77.704307
_cell_length_b     39.347029
_cell_length_c     35.626243
_cell_angle_alpha  90.128634
_cell_angle_beta   90.195741
_cell_angle_gamma 89.936059
loop_
_atom_site_label
_atom_site_type_symbol
_atom_site_fract_x
_atom_site_fract_y
_atom_site_fract_z
_atom_type_partial_charge
C0 C 0.0782 0.33784 0.03147 0.0
C1 C 0.08557 0.36882 0.01923 0.0
C2 C 0.10283 0.37615 0.02774 0.0
C3 C 0.11248 0.35328 0.04874 0.0
C4 C 0.10555 0.3226 0.06111 0.0
C5 C 0.08826 0.31508 0.05301 0.0
O6 O 0.01976 0.37357 0.05432 0.0
Tb7 Tb 0.03018 0.34231 0.00841 0.0
O8 O 0.02895 0.39284 0.98411 0.0
O9 O 1.01279 0.33444 0.09978 0.0
Eu10 Eu 1.00121 0.29441 0.06245 0.0
O11 O 0.05509 0.34118 0.98735 0.0
C12 C 0.9689 0.30592 0.04904 0.0
O13 O 0.04901 0.31938 0.04283 0.0
O14 O 0.0145 0.26374 0.01794 0.0
O15 O 0.01754 0.3039 0.97232 0.0
C16 C 0.06108 0.3265 0.01795 0.0
C17 C 0.02019 0.23335 0.09631 0.0
O18 O 0.03311 0.24995 0.08135 0.0
C19 C 0.01609 0.36579 0.08938 0.0
C20 C 0.01674 0.27169 0.98271 0.0
O21 O 1.00483 0.24731 0.09625 0.0
C22 C 0.95277 0.29742 0.02875 0.0
C23 C 0.92874 0.31889 0.99076 0.0
C24 C 0.94457 0.32407 0.00937 0.0
C25 C 0.94387 0.2663 0.03324 0.0
C26 C 0.92837 0.26102 0.01343 0.0
C27 C 0.9229 0.28539 0.98765 0.0
C28 C 0.01392 0.40745 0.97872 0.0
O29 O 0.99993 0.38883 0.98071 0.0
O30 O 0.97427 0.28594 0.07627 0.0
O31 O 0.98145 0.32016 0.02975 0.0
H32 H 0.07814 0.38662 0.00257 0.0
H33 H 0.12561 0.35998 0.05625 0.0
H34 H 0.08284 0.29119 0.06235 0.0
H35 H 0.95018 0.34911 0.01131 0.0
H36 H 0.94844 0.24731 0.05285 0.0
H37 H 0.91202 0.27914 0.96996 0.0
C38 C 0.19774 0.92436 0.02262 0.0
C39 C 0.18863 0.89449 0.01189 0.0
C40 C 0.17127 0.89043 0.02262 0.0
C41 C 0.16325 0.91601 0.04318 0.0
C42 C 0.17206 0.94522 0.05446 0.0
C43 C 0.18933 0.94918 0.0445 0.0
O44 O 0.25641 0.89317 0.05483 0.0
Tb45 Tb 0.24678 0.92104 0.00576 0.0
O46 O 0.25167 0.87275 0.97946 0.0
O47 O 0.26238 0.93559 0.09766 0.0
Eu48 Eu 0.27442 0.97373 0.05777 0.0
O49 O 0.22225 0.91257 0.98318 0.0
C50 C 0.3061 0.9589 0.04266 0.0
O51 O 0.22637 0.94698 0.03144 0.0
O52 O 0.26102 1.00112 0.01041 0.0
O53 O 0.25966 0.95709 0.96864 0.0
C54 C 0.21514 0.93282 0.00821 0.0
C55 C 0.26126 0.04098 0.09374 0.0
O56 O 0.24626 0.02696 0.08667 0.0
C57 C 0.25951 0.90335 0.08942 0.0
C58 C 0.26026 0.98995 0.97569 0.0
O59 O 0.27537 0.02383 0.08715 0.0
C60 C 0.32245 0.96635 0.02334 0.0
C61 C 0.34776 0.9416 0.99485 0.0
C62 C 0.33134 0.93799 0.0096 0.0
C63 C 0.33047 0.99891 0.02259 0.0
C64 C 0.34711 1.00246 0.00672 0.0
C65 C 0.35534 0.97339 0.99296 0.0
C66 C 0.26723 0.8601 0.9825 0.0
O67 O 0.27971 0.88012 0.99402 0.0
O68 O 0.3016 0.97795 0.07132 0.0
O69 O 0.29306 0.94686 0.02291 0.0
H70 H 0.19488 0.8748 0.99558 0.0
H71 H 0.15009 0.91208 0.05237 0.0
H72 H 0.19611 0.97195 0.05324 0.0
H73 H 0.32597 0.91269 0.01261 0.0
H74 H 0.32404 0.02078 0.03464 0.0
H75 H 0.36863 0.97474 0.9837 0.0
C76 C 0.07854 0.9289 0.23071 0.0
C77 C 0.08795 0.90179 0.24733 0.0
C78 C 0.10494 0.89455 0.23559 0.0
C79 C 0.11195 0.91394 0.20657 0.0
C80 C 0.10327 0.94189 0.19155 0.0
C81 C 0.08647 0.9489 0.20299 0.0
O82 O 0.02231 0.8965 0.19763 0.0
Tb83 Tb 0.03004 0.92707 0.24663 0.0
O84 O 0.02592 0.87779 0.27172 0.0
O85 O 1.00842 0.93223 0.15516 0.0
Eu86 Eu 0.99906 0.97443 0.19265 0.0
O87 O 0.05427 0.92206 0.27178 0.0
C88 C 0.96751 0.9636 0.21173 0.0
O89 O 0.05036 0.95243 0.22041 0.0
O90 O 0.01425 1.00433 0.23509 0.0
O91 O 0.01632 0.96465 0.28134 0.0
C92 C 0.06152 0.94012 0.24503 0.0
C93 C 1.01295 0.03898 0.15282 0.0
O94 O 0.0279 0.02476 0.16007 0.0
C95 C 0.01511 0.9027 0.16474 0.0
C96 C 0.01462 0.9966 0.27077 0.0
O97 O 0.99873 0.02236 0.15963 0.0
C98 C 0.95134 0.97282 0.23083 0.0
C99 C 0.92615 0.95052 0.26358 0.0
C100 C 0.94279 0.94613 0.24887 0.0
C101 C 0.94264 1.00409 0.22545 0.0
C102 C 0.92647 1.00905 0.24241 0.0
C103 C 0.91991 0.98383 0.26583 0.0
C104 C 1.01052 0.86415 0.26976 0.0
O105 O 0.99741 0.88352 0.26039 0.0
O106 O 0.97181 0.98003 0.18111 0.0
O107 O 0.98066 0.95248 0.23184 0.0
H108 H 0.08234 0.8872 0.26992 0.0
H109 H 0.12451 0.90742 0.19546 0.0
H110 H 0.07981 0.97067 0.19124 0.0
H111 H 0.94889 0.92149 0.24843 0.0
H112 H 0.94792 0.02342 0.20722 0.0
H113 H 0.90836 0.98973 0.28126 0.0
C114 C 0.2 0.35688 0.2267 0.0
C115 C 0.18733 0.3802 0.24003 0.0
C116 C 0.17153 0.38425 0.22053 0.0
C117 C 0.16964 0.36733 0.18626 0.0
C118 C 0.18012 0.33983 0.17712 0.0
C119 C 0.19567 0.33522 0.19634 0.0
O120 O 0.26026 0.3813 0.20626 0.0
Tb121 Tb 0.24822 0.35634 0.2549 0.0
O122 O 0.25492 0.38832 0.30329 0.0
O123 O 0.26039 0.33803 0.16217 0.0
Eu124 Eu 0.271 0.29526 0.19755 0.0
O125 O 0.22351 0.37615 0.26588 0.0
C126 C 0.30341 0.30108 0.2125 0.0
O127 O 0.22715 0.32804 0.23574 0.0
O128 O 0.25559 0.27033 0.2428 0.0
O129 O 0.25795 0.31207 0.28756 0.0
C130 C 0.216 0.3504 0.24886 0.0
C131 C 0.25258 0.23257 0.1631 0.0
O132 O 0.23931 0.24779 0.17855 0.0
C133 C 0.26046 0.37063 0.17096 0.0
C134 C 0.25578 0.27975 0.27797 0.0
O135 O 0.26759 0.24774 0.16366 0.0
C136 C 0.32107 0.29543 0.22656 0.0
C137 C 0.34845 0.32196 0.24112 0.0
C138 C 0.33144 0.32444 0.22888 0.0
C139 C 0.32836 0.26293 0.23415 0.0
C140 C 0.34549 0.2606 0.248 0.0
C141 C 0.35456 0.29079 0.25396 0.0
C142 C 0.2588 0.42084 0.309 0.0
O143 O 0.26269 0.42918 0.34375 0.0
O144 O 0.29758 0.28346 0.18381 0.0
O145 O 0.29152 0.31562 0.23348 0.0
H146 H 0.18941 0.39355 0.26627 0.0
H147 H 0.15839 0.37203 0.16891 0.0
H148 H 0.20384 0.31396 0.18883 0.0
H149 H 0.32642 0.3487 0.21947 0.0
H150 H 0.32091 0.2401 0.2292 0.0
H151 H 0.36742 0.28988 0.26553 0.0
C152 C 0.07189 0.72051 0.97972 0.0
C153 C 0.07904 0.75393 0.9803 0.0
C154 C 0.09614 0.75881 0.99353 0.0
C155 C 0.1057 0.73039 0.00411 0.0
C156 C 0.09903 0.69788 0.00167 0.0
C157 C 0.08206 0.69283 0.99077 0.0
O158 O 1.01076 0.75091 0.98913 0.0
Tb159 Tb 0.0248 0.72411 0.94501 0.0
O160 O 0.02599 0.77234 0.91574 0.0
O161 O 1.00784 0.71165 0.03647 0.0
Eu162 Eu 0.994 0.67235 1.00075 0.0
O163 O 0.05079 0.72711 0.93114 0.0
C164 C 0.96153 0.68542 0.9899 0.0
O165 O 0.04222 0.70195 0.98328 0.0
O166 O 1.00731 0.64382 0.95417 0.0
O167 O 0.01422 0.68352 0.90882 0.0
C168 C 0.05529 0.71134 0.96211 0.0
C169 C 1.012 0.60552 0.02681 0.0
O170 O 0.02557 0.62535 0.0254 0.0
C171 C 1.01115 0.74282 0.02496 0.0
C172 C 1.01189 0.65171 0.91984 0.0
O173 O 0.99661 0.61906 0.02297 0.0
C174 C 0.94504 0.67478 0.97168 0.0
C175 C 0.92403 0.68484 0.92209 0.0
C176 C 0.93961 0.69287 0.93952 0.0
C177 C 0.93331 0.65137 0.98857 0.0
C178 C 0.91742 0.64377 0.97063 0.0
C179 C 0.91455 0.65724 0.93488 0.0
C180 C 1.01226 0.79046 0.90797 0.0
O181 O 0.99693 0.77756 0.91394 0.0
O182 O 0.96727 0.6682 0.01907 0.0
O183 O 0.97393 0.69688 0.96793 0.0
H184 H 0.07161 0.77536 0.9702 0.0
H185 H 0.11916 0.73317 0.01198 0.0
H186 H 0.07722 0.66707 0.98805 0.0
H187 H 0.94704 0.71415 0.92914 0.0
H188 H 0.93613 0.64062 0.01587 0.0
H189 H 0.90311 0.64998 0.91923 0.0
C190 C 0.70513 0.04902 0.97987 0.0
C191 C 0.69686 0.0169 0.97649 0.0
C192 C 0.68004 0.01238 0.99108 0.0
C193 C 0.67235 0.03932 0.01045 0.0
C194 C 0.67977 0.0714 0.0109 0.0
C195 C 0.6962 0.07616 0.99633 0.0
O196 O 0.76744 0.02243 0.98467 0.0
Tb197 Tb 0.75193 0.04798 0.942 0.0
O198 O 0.75203 1.00168 0.90765 0.0
O199 O 0.76441 0.05922 0.03406 0.0
Eu200 Eu 0.77539 0.10625 0.0044 0.0
O201 O 0.72576 0.04131 0.93029 0.0
C202 C 0.80879 0.09921 1.00015 0.0
O203 O 0.7345 0.06945 0.98049 0.0
O204 O 0.76379 0.13327 0.95426 0.0
O205 O 0.76131 0.09102 0.9085 0.0
C206 C 0.72133 0.05815 0.96063 0.0
C207 C 0.76321 0.17309 0.05662 0.0
O208 O 0.75842 0.18281 0.09033 0.0
C209 C 0.76624 0.02795 0.02093 0.0
C210 C 0.7619 0.12339 0.91905 0.0
O211 O 0.76777 0.14066 0.05303 0.0
C212 C 0.82523 0.10533 0.9797 0.0
C213 C 0.84578 0.08811 0.93164 0.0
C214 C 0.82986 0.08394 0.94929 0.0
C215 C 0.83779 0.1282 0.99438 0.0
C216 C 0.85388 0.13181 0.97634 0.0
C217 C 0.85634 0.115 0.9423 0.0
C218 C 0.76474 0.97945 0.90876 0.0
O219 O 0.77894 0.98726 0.92687 0.0
O220 O 0.80136 0.12461 0.01787 0.0
O221 O 0.79768 0.07764 0.98549 0.0
H222 H 0.70301 0.99644 0.96118 0.0
H223 H 0.65951 0.0364 0.02193 0.0
H224 H 0.70148 0.10167 0.99532 0.0
H225 H 0.82158 0.06323 0.94053 0.0
H226 H 0.83543 0.14151 0.02051 0.0
H227 H 0.86807 0.11937 0.92653 0.0
C228 C 0.07208 0.04987 0.77959 0.0
C229 C 0.07898 0.01659 0.77523 0.0
C230 C 0.09581 0.01262 0.76069 0.0
C231 C 0.10518 0.04121 0.7505 0.0
C232 C 0.09858 0.07357 0.75558 0.0
C233 C 0.08211 0.07811 0.76985 0.0
O234 O 0.01402 0.0158 0.76153 0.0
Tb235 Tb 0.02434 0.04599 0.80848 0.0
O236 O 0.02117 0.99969 0.84093 0.0
O237 O 1.00926 0.05597 0.71594 0.0
Eu238 Eu 0.99464 0.09315 0.75165 0.0
O239 O 0.04994 0.03802 0.82487 0.0
C240 C 0.96303 0.07563 0.76472 0.0
O241 O 0.04312 0.07114 0.77696 0.0
O242 O 1.00729 0.12487 0.7961 0.0
O243 O 0.01358 0.08748 0.84366 0.0
C244 C 0.05548 0.05775 0.79771 0.0
C245 C 1.00873 0.16247 0.72472 0.0
O246 O 0.02328 0.14712 0.73309 0.0
C247 C 1.01229 0.02441 0.72597 0.0
C248 C 1.01055 0.11878 0.8315 0.0
O249 O 0.99443 0.14462 0.72444 0.0
C250 C 0.94589 0.08728 0.77787 0.0
C251 C 0.91887 0.07332 0.80921 0.0
C252 C 0.93613 0.06557 0.80107 0.0
C253 C 0.93829 0.11758 0.76407 0.0
C254 C 0.92103 0.12516 0.77242 0.0
C255 C 0.91167 0.10323 0.79506 0.0
C256 C 1.00644 0.98337 0.83874 0.0
O257 O 0.99347 0.99814 0.82149 0.0
O258 O 0.96839 0.08784 0.73241 0.0
O259 O 0.97549 0.07093 0.78952 0.0
H260 H 0.07161 0.99452 0.78352 0.0
H261 H 0.11822 0.03831 0.73991 0.0
H262 H 0.0774 0.10369 0.77487 0.0
H263 H 0.94175 0.04227 0.81174 0.0
H264 H 0.94554 0.13465 0.74632 0.0
H265 H 0.8986 0.11018 0.80258 0.0
C266 C 0.70279 0.71927 0.77389 0.0
C267 C 0.69491 0.75186 0.77192 0.0
C268 C 0.67755 0.75472 0.7597 0.0
C269 C 0.66898 0.72532 0.74793 0.0
C270 C 0.67613 0.69337 0.75349 0.0
C271 C 0.69308 0.69033 0.76553 0.0
O272 O 0.76439 0.74863 0.76017 0.0
Tb273 Tb 0.75072 0.72269 0.80536 0.0
O274 O 0.75216 0.77082 0.83567 0.0
O275 O 0.76327 0.70691 0.71529 0.0
Eu276 Eu 0.77495 0.66282 0.74835 0.0
O277 O 0.72497 0.73074 0.81946 0.0
C278 C 0.80825 0.67054 0.75172 0.0
O279 O 0.73234 0.70001 0.76981 0.0
O280 O 0.76371 0.63666 0.79914 0.0
O281 O 0.76028 0.68123 0.84172 0.0
C282 C 0.7198 0.71243 0.79067 0.0
C283 C 0.76365 0.59657 0.69372 0.0
O284 O 0.75932 0.58795 0.6593 0.0
C285 C 0.76384 0.73939 0.72466 0.0
C286 C 0.76129 0.64825 0.83355 0.0
O287 O 0.7677 0.629 0.69898 0.0
C288 C 0.82538 0.664 0.76927 0.0
C289 C 0.84991 0.68462 0.80581 0.0
C290 C 0.833 0.68897 0.79271 0.0
C291 C 0.83544 0.63563 0.75787 0.0
C292 C 0.85242 0.63141 0.77128 0.0
C293 C 0.85872 0.65469 0.79738 0.0
C294 C 0.76699 0.78363 0.8463 0.0
O295 O 0.78107 0.76572 0.84117 0.0
O296 O 0.80065 0.64561 0.73345 0.0
O297 O 0.79735 0.69151 0.76817 0.0
H298 H 0.70186 0.77418 0.78131 0.0
H299 H 0.65581 0.7269 0.73783 0.0
H300 H 0.69834 0.66518 0.77067 0.0
H301 H 0.82611 0.71211 0.79957 0.0
H302 H 0.83035 0.61774 0.73755 0.0
H303 H 0.8712 0.65038 0.81028 0.0
C304 C 0.08291 0.84115 0.52994 0.0
C305 C 0.093 0.87039 0.5218 0.0
C306 C 0.10679 0.87949 0.54612 0.0
C307 C 0.10765 0.8624 0.58062 0.0
C308 C 0.10222 0.8287 0.5819 0.0
C309 C 0.0891 0.81847 0.55752 0.0
O310 O 0.03013 0.86711 0.56109 0.0
Tb311 Tb 0.03568 0.8418 0.50746 0.0
O312 O 0.02836 0.89041 0.48417 0.0
O313 O 1.00987 0.83576 0.59463 0.0
Eu314 Eu 1.00442 0.79149 0.55651 0.0
O315 O 0.06012 0.85432 0.48615 0.0
C316 C 0.97285 0.79036 0.53468 0.0
O317 O 0.05626 0.81199 0.52535 0.0
O318 O 0.02198 0.76485 0.51613 0.0
O319 O 0.02259 0.80487 0.47066 0.0
C320 C 0.06752 0.83117 0.50755 0.0
C321 C 0.02359 0.73329 0.59723 0.0
O322 O 0.03694 0.74912 0.58301 0.0
C323 C 0.02 0.8622 0.59024 0.0
C324 C 0.02235 0.77266 0.48059 0.0
O325 O 1.0083 0.74716 0.59441 0.0
C326 C 0.95481 0.78961 0.52221 0.0
C327 C 0.92862 0.82061 0.50897 0.0
C328 C 0.94622 0.82061 0.51661 0.0
C329 C 0.94561 0.7586 0.5194 0.0
C330 C 0.92801 0.75891 0.50969 0.0
C331 C 0.91982 0.79011 0.50476 0.0
C332 C 0.01304 0.90228 0.49268 0.0
O333 O 1.00184 0.88149 0.5079 0.0
O334 O 0.9783 0.77233 0.56334 0.0
O335 O 0.98451 0.80934 0.51792 0.0
H336 H 0.0906 0.88445 0.49626 0.0
H337 H 0.11637 0.87099 0.60241 0.0
H338 H 0.08431 0.79265 0.55897 0.0
H339 H 0.95293 0.84454 0.52039 0.0
H340 H 0.95209 0.73465 0.52457 0.0
H341 H 0.90607 0.79094 0.49926 0.0
C342 C 0.19632 0.43191 0.51885 0.0
C343 C 0.18747 0.40179 0.50794 0.0
C344 C 0.17038 0.39619 0.52002 0.0
C345 C 0.16242 0.42131 0.5417 0.0
C346 C 0.17083 0.45107 0.55217 0.0
C347 C 0.18788 0.45615 0.5415 0.0
O348 O 0.25072 0.39523 0.5509 0.0
Tb349 Tb 0.24462 0.42599 0.50181 0.0
O350 O 0.24882 0.37681 0.47625 0.0
O351 O 0.26835 0.42506 0.59228 0.0
Eu352 Eu 0.27394 0.47306 0.5587 0.0
O353 O 0.22021 0.42238 0.47706 0.0
C354 C 0.30537 0.47497 0.53635 0.0
O355 O 0.22489 0.45304 0.52814 0.0
O356 O 0.25692 0.50144 0.51793 0.0
O357 O 0.25892 0.46414 0.4699 0.0
C358 C 0.21344 0.44129 0.50385 0.0
C359 C 0.25508 0.5304 0.60295 0.0
O360 O 0.2415 0.51353 0.59124 0.0
C361 C 0.25958 0.3976 0.58242 0.0
C362 C 0.2581 0.49574 0.48182 0.0
O363 O 0.27046 0.51789 0.59685 0.0
C364 C 0.32332 0.47609 0.52358 0.0
C365 C 0.34944 0.44555 0.50885 0.0
C366 C 0.33198 0.44524 0.51767 0.0
C367 C 0.3323 0.50728 0.52 0.0
C368 C 0.34977 0.50719 0.50929 0.0
C369 C 0.35805 0.47611 0.50421 0.0
C370 C 0.26419 0.36301 0.47875 0.0
O371 O 0.27725 0.38223 0.48873 0.0
O372 O 0.3004 0.48993 0.56747 0.0
O373 O 0.2934 0.45803 0.51782 0.0
H374 H 0.19369 0.38324 0.49003 0.0
H375 H 0.14905 0.41849 0.54977 0.0
H376 H 0.19428 0.47958 0.54942 0.0
H377 H 0.32544 0.4212 0.52176 0.0
H378 H 0.32575 0.53115 0.52523 0.0
H379 H 0.37173 0.47544 0.49808 0.0
C380 C 0.07948 0.42571 0.72827 0.0
C381 C 0.0879 0.3953 0.74003 0.0
C382 C 0.10383 0.38571 0.72371 0.0
C383 C 0.10975 0.40488 0.69342 0.0
C384 C 0.10386 0.43791 0.68795 0.0
C385 C 0.08831 0.44798 0.70408 0.0
O386 O 0.02313 0.39619 0.6989 0.0
Tb387 Tb 0.03133 0.42637 0.74826 0.0
O388 O 0.02715 0.37791 0.77556 0.0
O389 O 1.01258 0.43453 0.65525 0.0
Eu390 Eu 1.00142 0.47406 0.69365 0.0
O391 O 0.05591 0.41968 0.77155 0.0
C392 C 0.97065 0.45901 0.71515 0.0
O393 O 0.05165 0.45135 0.72148 0.0
O394 O 0.01739 0.5036 0.73458 0.0
O395 O 0.01845 0.46589 0.78261 0.0
C396 C 0.06303 0.43789 0.7448 0.0
C397 C 0.01377 0.53932 0.65407 0.0
O398 O 0.02877 0.52505 0.66069 0.0
C399 C 0.01773 0.40381 0.66469 0.0
C400 C 0.01694 0.49753 0.77058 0.0
O401 O 0.99967 0.52267 0.66199 0.0
C402 C 0.95428 0.46528 0.73477 0.0
C403 C 0.92863 0.4393 0.76039 0.0
C404 C 0.94497 0.43623 0.74474 0.0
C405 C 0.9462 0.49761 0.73727 0.0
C406 C 0.9296 0.50024 0.75352 0.0
C407 C 0.92247 0.47128 0.76998 0.0
C408 C 1.01295 0.36092 0.76833 0.0
O409 O 0.99996 0.37703 0.75268 0.0
O410 O 0.97388 0.47606 0.68429 0.0
O411 O 0.98443 0.44992 0.73446 0.0
H412 H 0.08253 0.38038 0.76262 0.0
H413 H 0.12099 0.39669 0.67786 0.0
H414 H 0.08354 0.4735 0.69925 0.0
H415 H 0.94972 0.4112 0.73711 0.0
H416 H 0.95222 0.51967 0.72483 0.0
H417 H 0.91008 0.47301 0.78382 0.0
C418 C 0.20089 0.85585 0.73116 0.0
C419 C 0.19099 0.88539 0.7395 0.0
C420 C 0.17383 0.88854 0.72645 0.0
C421 C 0.16697 0.86205 0.70497 0.0
C422 C 0.17606 0.83216 0.69811 0.0
C423 C 0.1931 0.82911 0.71059 0.0
O424 O 0.26105 0.88166 0.70482 0.0
Tb425 Tb 0.24996 0.85652 0.7542 0.0
O426 O 0.25714 0.88891 0.80214 0.0
O427 O 0.26038 0.83794 0.66115 0.0
Eu428 Eu 0.27124 0.79462 0.69587 0.0
O429 O 0.22537 0.87465 0.76802 0.0
C430 C 0.30376 0.80223 0.7093 0.0
O431 O 0.22882 0.82821 0.73452 0.0
O432 O 0.25693 0.77015 0.74353 0.0
O433 O 0.26096 0.81299 0.78617 0.0
C434 C 0.21779 0.84952 0.75003 0.0
C435 C 0.2572 0.7255 0.66356 0.0
O436 O 0.24396 0.73308 0.68481 0.0
C437 C 0.26094 0.87068 0.66962 0.0
C438 C 0.25863 0.78028 0.77842 0.0
O439 O 0.26974 0.74755 0.6601 0.0
C440 C 0.32095 0.79398 0.72475 0.0
C441 C 0.34809 0.81853 0.74474 0.0
C442 C 0.33061 0.82194 0.73682 0.0
C443 C 0.32894 0.76145 0.72218 0.0
C444 C 0.34648 0.75768 0.7326 0.0
C445 C 0.35572 0.78657 0.74319 0.0
C446 C 0.26062 0.92158 0.80831 0.0
O447 O 0.26518 0.92943 0.84281 0.0
O448 O 0.29781 0.78466 0.68077 0.0
O449 O 0.29185 0.81628 0.73058 0.0
H450 H 0.19636 0.90517 0.75715 0.0
H451 H 0.15362 0.86295 0.69609 0.0
H452 H 0.19987 0.80535 0.70619 0.0
H453 H 0.32483 0.84707 0.73716 0.0
H454 H 0.32178 0.7398 0.7117 0.0
H455 H 0.36952 0.78453 0.74731 0.0
C456 C 0.072 0.22495 0.47661 0.0
C457 C 0.07919 0.25809 0.47932 0.0
C458 C 0.09603 0.26221 0.49373 0.0
C459 C 0.10526 0.2339 0.50565 0.0
C460 C 0.09838 0.20152 0.50266 0.0
C461 C 0.08187 0.19688 0.48811 0.0
O462 O 1.01176 0.24752 0.49648 0.0
Tb463 Tb 0.02391 0.22406 0.44733 0.0
O464 O 0.01971 0.26672 0.40945 0.0
O465 O 1.01223 0.2052 0.53999 0.0
Eu466 Eu 0.99745 0.16879 0.50254 0.0
O467 O 0.04883 0.24073 0.43513 0.0
C468 C 0.96478 0.18211 0.49879 0.0
O469 O 0.04426 0.19749 0.47296 0.0
O470 O 1.00738 0.14169 0.45115 0.0
O471 O 0.01502 0.18373 0.40902 0.0
C472 C 0.0557 0.2173 0.45667 0.0
C473 C 0.01741 0.10317 0.51828 0.0
O474 O 0.02993 0.12378 0.50859 0.0
C475 C 0.01333 0.23765 0.53156 0.0
C476 C 1.01203 0.15161 0.4176 0.0
O477 O 1.00204 0.11609 0.52393 0.0
C478 C 0.94759 0.17305 0.48325 0.0
C479 C 0.9223 0.19214 0.44862 0.0
C480 C 0.93931 0.19717 0.46013 0.0
C481 C 0.93848 0.14332 0.49426 0.0
C482 C 0.92151 0.13762 0.48114 0.0
C483 C 0.91388 0.16218 0.45833 0.0
C484 C 1.0112 0.294 0.42011 0.0
O485 O 1.00327 0.29452 0.45247 0.0
O486 O 0.97162 0.16262 0.52495 0.0
O487 O 0.97619 0.19565 0.47582 0.0
H488 H 0.07203 0.28006 0.46967 0.0
H489 H 0.11835 0.23699 0.51599 0.0
H490 H 0.07705 0.17125 0.4841 0.0
H491 H 0.94581 0.22048 0.4524 0.0
H492 H 0.94442 0.12507 0.513 0.0
H493 H 0.90072 0.15865 0.44885 0.0
C494 C 0.70408 0.55477 0.47867 0.0
C495 C 0.6977 0.52108 0.48279 0.0
C496 C 0.68058 0.51618 0.49519 0.0
C497 C 0.67039 0.54425 0.50319 0.0
C498 C 0.67651 0.57702 0.49861 0.0
C499 C 0.69337 0.58247 0.48709 0.0
O500 O 0.76353 0.52048 0.4922 0.0
Tb501 Tb 0.75106 0.54821 0.44582 0.0
O502 O 0.74988 0.49937 0.41727 0.0
O503 O 0.76408 0.56244 0.53685 0.0
Eu504 Eu 0.77809 0.6003 0.50144 0.0
O505 O 0.72513 0.54652 0.43078 0.0
C506 C 0.80977 0.58354 0.48828 0.0
O507 O 0.73377 0.57243 0.48258 0.0
O508 O 0.76356 0.62778 0.45642 0.0
O509 O 0.76221 0.5884 0.4094 0.0
C510 C 0.72068 0.56337 0.46111 0.0
C511 C 0.76224 0.66749 0.52946 0.0
O512 O 0.74837 0.64844 0.52766 0.0
C513 C 0.76348 0.53008 0.52777 0.0
C514 C 0.76337 0.62052 0.42062 0.0
O515 O 0.77733 0.65293 0.52539 0.0
C516 C 0.82706 0.59271 0.47407 0.0
C517 C 0.85303 0.57415 0.44142 0.0
C518 C 0.83576 0.56896 0.45125 0.0
C519 C 0.83572 0.62261 0.48581 0.0
C520 C 0.85298 0.62778 0.47547 0.0
C521 C 0.8614 0.60351 0.45379 0.0
C522 C 0.76369 0.48165 0.40906 0.0
O523 O 0.77895 0.49531 0.41409 0.0
O524 O 0.80463 0.59794 0.51975 0.0
O525 O 0.79721 0.57727 0.46412 0.0
H526 H 0.70571 0.4994 0.47595 0.0
H527 H 0.65723 0.54055 0.51269 0.0
H528 H 0.69783 0.60828 0.48269 0.0
H529 H 0.82923 0.54614 0.44181 0.0
H530 H 0.82922 0.64142 0.50292 0.0
H531 H 0.87453 0.60848 0.44497 0.0
C532 C 0.07325 0.5514 0.28003 0.0
C533 C 0.08239 0.52005 0.28219 0.0
C534 C 0.09937 0.51793 0.26798 0.0
C535 C 0.10642 0.5461 0.25001 0.0
C536 C 0.09851 0.57766 0.25241 0.0
C537 C 0.08181 0.58021 0.26627 0.0
O538 O 0.01403 0.5222 0.25729 0.0
Tb539 Tb 0.02487 0.54866 0.30628 0.0
O540 O 0.021 0.50616 0.34437 0.0
O541 O 0.01309 0.56339 0.2122 0.0
Eu542 Eu 0.99726 0.5993 0.24755 0.0
O543 O 0.05005 0.5344 0.32094 0.0
C544 C 0.96515 0.58261 0.25499 0.0
O545 O 0.04489 0.57622 0.2815 0.0
O546 O 1.00773 0.62906 0.29608 0.0
O547 O 0.01439 0.58969 0.34189 0.0
C548 C 0.05661 0.55785 0.2991 0.0
C549 C 0.01487 0.66604 0.22468 0.0
O550 O 0.02837 0.64645 0.22996 0.0
C551 C 0.01507 0.53145 0.22194 0.0
C552 C 1.01099 0.62118 0.33107 0.0
O553 O 0.99952 0.65206 0.22467 0.0
C554 C 0.94789 0.59142 0.2702 0.0
C555 C 0.92264 0.57246 0.3051 0.0
C556 C 0.93969 0.56744 0.29354 0.0
C557 C 0.93887 0.62144 0.25976 0.0
C558 C 0.92183 0.62653 0.27212 0.0
C559 C 0.91397 0.60187 0.2941 0.0
C560 C 1.01131 0.48002 0.3351 0.0
O561 O 1.00186 0.48098 0.30457 0.0
O562 O 0.97102 0.60009 0.22622 0.0
O563 O 0.97726 0.57267 0.27872 0.0
H564 H 0.07687 0.49848 0.29662 0.0
H565 H 0.11958 0.54478 0.2398 0.0
H566 H 0.07608 0.60522 0.2694 0.0
H567 H 0.94644 0.54461 0.30214 0.0
H568 H 0.94498 0.64051 0.24246 0.0
H569 H 0.90101 0.60654 0.30429 0.0
C570 C 0.70498 0.22732 0.2773 0.0
C571 C 0.69668 0.25914 0.27304 0.0
C572 C 0.6789 0.26028 0.26534 0.0
C573 C 0.66972 0.23017 0.26213 0.0
C574 C 0.67787 0.19867 0.26476 0.0
C575 C 0.69555 0.19722 0.27247 0.0
O576 O 0.76997 0.24886 0.26734 0.0
Tb577 Tb 0.75368 0.22543 0.3098 0.0
O578 O 0.75704 0.27135 0.34336 0.0
O579 O 0.76635 0.21396 0.21723 0.0
Eu580 Eu 0.77967 0.17207 0.24978 0.0
O581 O 0.72841 0.2411 0.31957 0.0
C582 C 0.81186 0.18631 0.26152 0.0
O583 O 0.73498 0.20787 0.27092 0.0
O584 O 0.76707 0.14278 0.29656 0.0
O585 O 0.76039 0.18077 0.34421 0.0
C586 C 0.72307 0.22491 0.28944 0.0
C587 C 0.76245 0.10487 0.22283 0.0
O588 O 0.74858 0.12366 0.22672 0.0
C589 C 0.7672 0.24492 0.23123 0.0
C590 C 0.76266 0.14941 0.33142 0.0
O591 O 0.77763 0.11949 0.22516 0.0
C592 C 0.82833 0.17615 0.27964 0.0
C593 C 0.84938 0.18752 0.32868 0.0
C594 C 0.83366 0.19475 0.31153 0.0
C595 C 0.84006 0.15266 0.26297 0.0
C596 C 0.85604 0.14584 0.28066 0.0
C597 C 0.85916 0.16024 0.31588 0.0
C598 C 0.77183 0.28751 0.34371 0.0
O599 O 0.78543 0.27245 0.32949 0.0
O600 O 0.80647 0.16949 0.23169 0.0
O601 O 0.79928 0.19652 0.28377 0.0
H602 H 0.70391 0.28254 0.27579 0.0
H603 H 0.65594 0.23149 0.25718 0.0
H604 H 0.70186 0.17279 0.27564 0.0
H605 H 0.82606 0.2159 0.32183 0.0
H606 H 0.83719 0.14128 0.23597 0.0
H607 H 0.87085 0.15376 0.33104 0.0
C608 C 0.5828 0.3447 0.52952 0.0
C609 C 0.58998 0.37699 0.52079 0.0
C610 C 0.60678 0.38542 0.53301 0.0
C611 C 0.61602 0.36138 0.55372 0.0
C612 C 0.60982 0.32875 0.56013 0.0
C613 C 0.59299 0.32057 0.549 0.0
O614 O 0.52507 0.37307 0.55752 0.0
Tb615 Tb 0.53432 0.34535 0.50794 0.0
O616 O 0.5301 0.39606 0.48581 0.0
O617 O 0.51005 0.33541 0.59554 0.0
Eu618 Eu 0.50397 0.29241 0.55634 0.0
O619 O 0.5591 0.35109 0.48627 0.0
C620 C 0.47212 0.29159 0.53626 0.0
O621 O 0.55435 0.32096 0.53733 0.0
O622 O 0.52131 0.2667 0.51498 0.0
O623 O 0.522 0.30766 0.47035 0.0
C624 C 0.56593 0.33331 0.51391 0.0
C625 C 0.52377 0.23378 0.5947 0.0
O626 O 0.53685 0.24963 0.57941 0.0
C627 C 0.51696 0.36532 0.58888 0.0
C628 C 0.52195 0.27522 0.4797 0.0
O629 O 0.50843 0.24764 0.59337 0.0
C630 C 0.45394 0.29034 0.52472 0.0
C631 C 0.42673 0.31969 0.51587 0.0
C632 C 0.44437 0.32067 0.52391 0.0
C633 C 0.44567 0.25897 0.51737 0.0
C634 C 0.42795 0.25845 0.50925 0.0
C635 C 0.41873 0.28865 0.50886 0.0
C636 C 0.51443 0.40877 0.48502 0.0
O637 O 0.5013 0.3884 0.49065 0.0
O638 O 0.47804 0.27266 0.56375 0.0
O639 O 0.48348 0.31133 0.51957 0.0
H640 H 0.58279 0.39497 0.50392 0.0
H641 H 0.62911 0.36686 0.5624 0.0
H642 H 0.58819 0.2951 0.55371 0.0
H643 H 0.45049 0.34474 0.53037 0.0
H644 H 0.4529 0.23542 0.51803 0.0
H645 H 0.40496 0.2878 0.50347 0.0
C646 C 0.69802 0.92358 0.52632 0.0
C647 C 0.68621 0.89993 0.50992 0.0
C648 C 0.67063 0.89194 0.52872 0.0
C649 C 0.66825 0.90525 0.56477 0.0
C650 C 0.67784 0.933 0.57706 0.0
C651 C 0.69299 0.94142 0.55883 0.0
O652 O 0.75463 0.89575 0.55395 0.0
Tb653 Tb 0.74594 0.92531 0.50448 0.0
O654 O 0.75133 0.87779 0.4765 0.0
O655 O 0.76256 0.93551 0.59873 0.0
Eu656 Eu 0.77377 0.97579 0.56114 0.0
O657 O 0.72127 0.91478 0.48241 0.0
C658 C 0.80486 0.96245 0.54026 0.0
O659 O 0.7254 0.95112 0.52849 0.0
O660 O 0.75702 1.00307 0.51982 0.0
O661 O 0.75809 0.96607 0.47105 0.0
C662 C 0.71403 0.93499 0.50729 0.0
C663 C 0.76103 0.04293 0.59783 0.0
O664 O 0.74602 0.02921 0.59014 0.0
C665 C 0.75852 0.90419 0.58895 0.0
C666 C 0.75822 0.9977 0.48373 0.0
O667 O 0.77509 0.02546 0.59153 0.0
C668 C 0.82198 0.96934 0.52423 0.0
C669 C 0.85018 0.94511 0.51179 0.0
C670 C 0.8328 0.94101 0.52052 0.0
C671 C 0.8287 1.00245 0.51817 0.0
C672 C 0.84626 1.00621 0.50863 0.0
C673 C 0.85666 0.97755 0.50567 0.0
C674 C 0.76672 0.86438 0.48015 0.0
O675 O 0.77943 0.88381 0.49166 0.0
O676 O 0.80108 0.9763 0.57278 0.0
O677 O 0.79149 0.95563 0.51861 0.0
H678 H 0.68866 0.88947 0.48231 0.0
H679 H 0.65697 0.89816 0.58084 0.0
H680 H 0.70025 0.96316 0.5688 0.0
H681 H 0.82788 0.91577 0.52628 0.0
H682 H 0.8206 0.02464 0.52169 0.0
H683 H 0.87027 0.98089 0.49991 0.0
C684 C 0.57822 0.92829 0.72638 0.0
C685 C 0.58735 0.89948 0.74021 0.0
C686 C 0.60357 0.89065 0.725 0.0
C687 C 0.60961 0.90954 0.69467 0.0
C688 C 0.60201 0.94036 0.68473 0.0
C689 C 0.58607 0.94926 0.6995 0.0
O690 O 0.52063 0.89811 0.7025 0.0
Tb691 Tb 0.53056 0.92818 0.75017 0.0
O692 O 0.52807 0.88072 0.77967 0.0
O693 O 0.51474 0.93961 0.65912 0.0
Eu694 Eu 0.50207 0.9771 0.69857 0.0
O695 O 0.55552 0.92272 0.77124 0.0
C696 C 0.47081 0.96088 0.71449 0.0
O697 O 0.5501 0.95319 0.72071 0.0
O698 O 0.515 1.0081 0.7435 0.0
O699 O 0.51852 0.96599 0.78708 0.0
C700 C 0.56197 0.94051 0.74343 0.0
C701 C 0.51458 0.04168 0.65784 0.0
O702 O 0.52946 0.026 0.66091 0.0
C703 C 0.51772 0.90756 0.66757 0.0
C704 C 0.51703 0.99846 0.7784 0.0
O705 O 0.50052 0.02629 0.66838 0.0
C706 C 0.45391 0.96751 0.73162 0.0
C707 C 0.42692 0.94178 0.74883 0.0
C708 C 0.44411 0.93852 0.7392 0.0
C709 C 0.44637 1.0004 0.73527 0.0
C710 C 0.42901 1.00352 0.74719 0.0
C711 C 0.41966 0.97372 0.75323 0.0
C712 C 0.51374 0.86344 0.77622 0.0
O713 O 0.50012 0.87867 0.76213 0.0
O714 O 0.475 0.97819 0.6844 0.0
O715 O 0.48392 0.95145 0.73573 0.0
H716 H 0.58225 0.88511 0.76352 0.0
H717 H 0.62138 0.90207 0.68058 0.0
H718 H 0.58022 0.97321 0.69148 0.0
H719 H 0.44947 0.91334 0.73483 0.0
H720 H 0.45374 0.02287 0.72839 0.0
H721 H 0.40602 0.97492 0.75944 0.0
C722 C 0.70095 0.35494 0.73084 0.0
C723 C 0.69049 0.38338 0.74029 0.0
C724 C 0.67318 0.38532 0.72811 0.0
C725 C 0.66662 0.35844 0.70675 0.0
C726 C 0.67645 0.3301 0.69725 0.0
C727 C 0.69374 0.32842 0.70879 0.0
O728 O 0.76127 0.38413 0.70677 0.0
Tb729 Tb 0.74993 0.35878 0.75561 0.0
O730 O 0.75638 0.39033 0.80458 0.0
O731 O 0.76288 0.34001 0.66346 0.0
Eu732 Eu 0.77106 0.29635 0.70059 0.0
O733 O 0.72494 0.37516 0.76834 0.0
C734 C 0.80325 0.29592 0.71866 0.0
O735 O 0.72944 0.32922 0.73456 0.0
O736 O 0.75477 0.27437 0.74637 0.0
O737 O 0.76151 0.31623 0.78752 0.0
C738 C 0.71794 0.34966 0.74983 0.0
C739 C 0.75191 0.23563 0.66323 0.0
O740 O 0.73874 0.25023 0.67978 0.0
C741 C 0.76236 0.37273 0.67182 0.0
C742 C 0.75765 0.2841 0.78086 0.0
O743 O 0.76694 0.25062 0.66425 0.0
C744 C 0.82167 0.29515 0.72891 0.0
C745 C 0.84759 0.32639 0.74335 0.0
C746 C 0.82985 0.32591 0.73788 0.0
C747 C 0.83136 0.26446 0.72828 0.0
C748 C 0.84932 0.26507 0.73528 0.0
C749 C 0.85715 0.29668 0.74029 0.0
C750 C 0.76034 0.42275 0.8105 0.0
O751 O 0.76453 0.43092 0.84514 0.0
O752 O 0.79699 0.27661 0.69184 0.0
O753 O 0.79212 0.31649 0.73498 0.0
H754 H 0.69562 0.40336 0.75801 0.0
H755 H 0.65317 0.35835 0.69867 0.0
H756 H 0.70119 0.30586 0.70238 0.0
H757 H 0.82263 0.34947 0.73917 0.0
H758 H 0.82492 0.24055 0.72288 0.0
H759 H 0.87104 0.29866 0.7423 0.0
C760 C 0.57238 0.72547 0.47208 0.0
C761 C 0.58203 0.75577 0.46618 0.0
C762 C 0.5993 0.75771 0.479 0.0
C763 C 0.60639 0.72997 0.49788 0.0
C764 C 0.59755 0.6993 0.5007 0.0
C765 C 0.58035 0.69773 0.48964 0.0
O766 O 0.51334 0.75509 0.49286 0.0
Tb767 Tb 0.52413 0.72725 0.44464 0.0
O768 O 0.52034 0.77332 0.41242 0.0
O769 O 0.50934 0.71307 0.5367 0.0
Eu770 Eu 0.49529 0.67591 0.49891 0.0
O771 O 0.54941 0.73878 0.42833 0.0
C772 C 0.46336 0.69202 0.48611 0.0
O773 O 0.54382 0.70172 0.47313 0.0
O774 O 0.50833 0.64672 0.45295 0.0
O775 O 0.51355 0.68693 0.40762 0.0
C776 C 0.5557 0.7178 0.45356 0.0
C777 C 0.51203 0.60848 0.5255 0.0
O778 O 0.52563 0.62831 0.5246 0.0
C779 C 0.51206 0.74521 0.52812 0.0
C780 C 0.51081 0.65502 0.41785 0.0
O781 O 0.49675 0.62224 0.52068 0.0
C782 C 0.44643 0.68085 0.47096 0.0
C783 C 0.41902 0.69627 0.44142 0.0
C784 C 0.43595 0.7048 0.4519 0.0
C785 C 0.43965 0.64825 0.4792 0.0
C786 C 0.4228 0.63996 0.46802 0.0
C787 C 0.41296 0.66362 0.44858 0.0
C788 C 0.5056 0.78952 0.41464 0.0
O789 O 0.49276 0.77502 0.43234 0.0
O790 O 0.46878 0.67741 0.51727 0.0
O791 O 0.47586 0.6994 0.4624 0.0
H792 H 0.57657 0.7766 0.45028 0.0
H793 H 0.6198 0.73113 0.50633 0.0
H794 H 0.57369 0.67353 0.49122 0.0
H795 H 0.44068 0.73025 0.44667 0.0
H796 H 0.4472 0.6299 0.49482 0.0
H797 H 0.39998 0.65678 0.43993 0.0
C798 C 0.20205 0.04872 0.4699 0.0
C799 C 0.19399 0.01629 0.47081 0.0
C800 C 0.17665 0.0137 0.48258 0.0
C801 C 0.168 0.04281 0.49446 0.0
C802 C 0.1754 0.07465 0.49061 0.0
C803 C 0.19244 0.07769 0.47924 0.0
O804 O 0.2617 0.01865 0.49025 0.0
Tb805 Tb 0.25031 0.04547 0.44209 0.0
O806 O 0.25306 1.00083 0.4063 0.0
O807 O 0.26221 0.06156 0.53355 0.0
Eu808 Eu 0.27803 0.09748 0.49848 0.0
O809 O 0.22492 0.03366 0.42754 0.0
C810 C 0.31025 0.0807 0.49546 0.0
O811 O 0.23092 0.07156 0.47149 0.0
O812 O 0.26975 0.12649 0.44735 0.0
O813 O 0.25992 0.08619 0.40472 0.0
C814 C 0.2189 0.05537 0.45228 0.0
C815 C 0.26008 0.16455 0.52062 0.0
O816 O 0.24659 0.14551 0.51342 0.0
C817 C 0.26134 0.02895 0.52546 0.0
C818 C 0.26466 0.11761 0.4136 0.0
O819 O 0.27535 0.15025 0.52148 0.0
C820 C 0.32731 0.09014 0.48001 0.0
C821 C 0.3515 0.0742 0.44036 0.0
C822 C 0.33472 0.06857 0.45282 0.0
C823 C 0.33694 0.11819 0.49391 0.0
C824 C 0.35364 0.12454 0.48016 0.0
C825 C 0.36066 0.10212 0.45391 0.0
C826 C 0.26549 0.97858 0.41131 0.0
O827 O 0.27762 0.9843 0.43622 0.0
O828 O 0.30376 0.09957 0.52257 0.0
O829 O 0.29859 0.06895 0.47167 0.0
H830 H 0.20072 0.99393 0.46079 0.0
H831 H 0.15455 0.04107 0.50255 0.0
H832 H 0.19777 0.10285 0.47485 0.0
H833 H 0.32765 0.04683 0.44217 0.0
H834 H 0.33155 0.13486 0.51508 0.0
H835 H 0.37364 0.10633 0.44379 0.0
C836 C 0.57292 0.04983 0.27525 0.0
C837 C 0.57983 0.01624 0.27598 0.0
C838 C 0.5969 0.01046 0.26338 0.0
C839 C 0.60673 0.03814 0.25194 0.0
C840 C 0.6004 0.07105 0.25352 0.0
C841 C 0.58338 0.0769 0.26377 0.0
O842 O 0.51078 0.01897 0.26976 0.0
Tb843 Tb 0.52589 0.04795 0.31065 0.0
O844 O 0.52691 1.00068 0.34177 0.0
O845 O 0.51095 0.05475 0.21934 0.0
Eu846 Eu 0.49715 0.09701 0.25072 0.0
O847 O 0.55197 0.04596 0.32421 0.0
C848 C 0.46482 0.08329 0.25998 0.0
O849 O 0.54302 0.06743 0.27022 0.0
O850 O 0.50908 0.12755 0.29748 0.0
O851 O 0.51545 0.0897 0.34516 0.0
C852 C 0.55625 0.05974 0.292 0.0
C853 C 0.51404 0.16418 0.22198 0.0
O854 O 0.52811 0.14592 0.2255 0.0
C855 C 0.51119 0.02372 0.23324 0.0
C856 C 0.51203 0.1208 0.333 0.0
O857 O 0.499 0.14925 0.22538 0.0
C858 C 0.44728 0.093 0.27261 0.0
C859 C 0.42081 0.07455 0.3031 0.0
C860 C 0.43814 0.06908 0.29411 0.0
C861 C 0.43892 0.12344 0.26116 0.0
C862 C 0.42148 0.12888 0.27058 0.0
C863 C 0.41276 0.10438 0.2912 0.0
C864 C 0.51304 0.98268 0.34835 0.0
O865 O 0.49785 0.99562 0.3406 0.0
O866 O 0.47096 0.09749 0.22938 0.0
O867 O 0.47666 0.07564 0.28533 0.0
H868 H 0.57222 0.99531 0.28653 0.0
H869 H 0.6201 0.03438 0.24406 0.0
H870 H 0.57872 0.10286 0.26571 0.0
H871 H 0.4444 0.04589 0.30329 0.0
H872 H 0.44578 0.14238 0.24506 0.0
H873 H 0.39961 0.1096 0.2997 0.0
C874 C 0.20175 0.71852 0.27666 0.0
C875 C 0.194 0.75117 0.27975 0.0
C876 C 0.17803 0.75766 0.26181 0.0
C877 C 0.17077 0.73235 0.23916 0.0
C878 C 0.17741 0.69956 0.23905 0.0
C879 C 0.19299 0.69278 0.25711 0.0
O880 O 0.25785 0.74667 0.25683 0.0
Tb881 Tb 0.24883 0.71897 0.30613 0.0
O882 O 0.25181 0.76347 0.34243 0.0
O883 O 0.27065 0.70781 0.21578 0.0
Eu884 Eu 0.27656 0.65995 0.24971 0.0
O885 O 0.22355 0.72896 0.32338 0.0
C886 C 0.30887 0.65921 0.26861 0.0
O887 O 0.22928 0.69142 0.27935 0.0
O888 O 0.2598 0.63684 0.2942 0.0
O889 O 0.261 0.67837 0.33951 0.0
C890 C 0.21728 0.70802 0.29803 0.0
C891 C 0.26613 0.59478 0.19241 0.0
O892 O 0.26274 0.58664 0.15737 0.0
C893 C 0.26469 0.73851 0.22416 0.0
C894 C 0.26081 0.64592 0.32965 0.0
O895 O 0.27073 0.62687 0.19859 0.0
C896 C 0.32744 0.65855 0.27936 0.0
C897 C 0.35286 0.6873 0.30468 0.0
C898 C 0.33509 0.68708 0.29713 0.0
C899 C 0.33783 0.6299 0.27057 0.0
C900 C 0.35553 0.62971 0.27961 0.0
C901 C 0.36265 0.6586 0.29618 0.0
C902 C 0.26244 0.78843 0.33415 0.0
O903 O 0.27328 0.78469 0.30627 0.0
O904 O 0.30212 0.63687 0.24537 0.0
O905 O 0.29799 0.68206 0.28166 0.0
H906 H 0.19978 0.77055 0.29734 0.0
H907 H 0.15852 0.73689 0.22531 0.0
H908 H 0.19763 0.66678 0.25829 0.0
H909 H 0.32745 0.70926 0.30401 0.0
H910 H 0.33219 0.60791 0.25695 0.0
H911 H 0.37635 0.65924 0.30208 0.0
C912 C 0.57937 0.84215 0.01378 0.0
C913 C 0.58899 0.86973 0.99898 0.0
C914 C 0.60559 0.87717 0.0132 0.0
C915 C 0.61189 0.85769 0.04303 0.0
C916 C 0.60321 0.82894 0.05582 0.0
C917 C 0.58682 0.82164 0.04187 0.0
O918 O 0.52573 0.87674 0.04788 0.0
Tb919 Tb 0.53122 0.8463 0.9983 0.0
O920 O 0.52615 0.89599 0.97509 0.0
O921 O 0.51265 0.84282 0.09247 0.0
Eu922 Eu 0.50393 0.7984 0.05623 0.0
O923 O 0.55523 0.85104 0.97221 0.0
C924 C 0.4713 0.80426 0.04453 0.0
O925 O 0.55133 0.81813 0.02158 0.0
O926 O 0.51672 0.76921 0.00909 0.0
O927 O 0.51565 0.81089 0.96522 0.0
C928 C 0.56249 0.83151 0.99785 0.0
C929 C 0.52362 0.73813 0.09133 0.0
O930 O 0.53633 0.75316 0.07373 0.0
C931 C 0.51935 0.87199 0.0816 0.0
C932 C 0.51542 0.7784 0.97385 0.0
O933 O 0.50849 0.75285 0.09202 0.0
C934 C 0.45398 0.79658 0.03011 0.0
C935 C 0.4263 0.82023 0.01334 0.0
C936 C 0.44348 0.82477 0.02295 0.0
C937 C 0.44691 0.76335 0.02817 0.0
C938 C 0.42948 0.759 0.01744 0.0
C939 C 0.41956 0.7878 0.00968 0.0
C940 C 0.51074 0.90885 0.98054 0.0
O941 O 0.49843 0.88841 0.99176 0.0
O942 O 0.47775 0.78589 0.07192 0.0
O943 O 0.48275 0.81925 0.02293 0.0
H944 H 0.58385 0.88454 0.97593 0.0
H945 H 0.62404 0.86439 0.05615 0.0
H946 H 0.58012 0.79934 0.05205 0.0
H947 H 0.44839 0.85034 0.02698 0.0
H948 H 0.45469 0.74149 0.03556 0.0
H949 H 0.40587 0.78529 0.00405 0.0
C950 C 0.70076 0.41261 0.01964 0.0
C951 C 0.69016 0.38485 0.00843 0.0
C952 C 0.67332 0.38126 0.02285 0.0
C953 C 0.6672 0.40594 0.04758 0.0
C954 C 0.677 0.43403 0.05817 0.0
C955 C 0.69397 0.43701 0.04498 0.0
O956 O 0.76129 0.38437 0.04019 0.0
Tb957 Tb 0.74947 0.41111 0.99321 0.0
O958 O 0.75585 0.37893 0.94456 0.0
O959 O 0.76266 0.42485 0.0877 0.0
Eu960 Eu 0.77457 0.46826 0.05417 0.0
O961 O 0.7244 0.3955 0.9795 0.0
C962 C 0.80683 0.45697 0.04016 0.0
O963 O 0.72901 0.43933 0.01639 0.0
O964 O 0.75976 0.49564 0.0084 0.0
O965 O 0.76121 0.45432 0.96306 0.0
C966 C 0.71744 0.41964 1.00008 0.0
C967 C 0.76084 0.53614 0.0915 0.0
O968 O 0.74567 0.52191 0.08733 0.0
C969 C 0.76116 0.39291 0.07611 0.0
C970 C 0.76015 0.4867 0.9729 0.0
O971 O 0.77482 0.51897 0.0834 0.0
C972 C 0.82363 0.46771 0.02431 0.0
C973 C 0.84982 0.44892 0.99239 0.0
C974 C 0.83344 0.44203 0.0072 0.0
C975 C 0.83128 0.5001 0.03041 0.0
C976 C 0.84763 0.50703 0.01478 0.0
C977 C 0.85529 0.4827 0.99171 0.0
C978 C 0.75991 0.34641 0.939 0.0
O979 O 0.76455 0.33811 0.90474 0.0
O980 O 0.80141 0.47141 0.07124 0.0
O981 O 0.79437 0.4476 0.01706 0.0
H982 H 0.69481 0.36661 0.98802 0.0
H983 H 0.65414 0.40403 0.05801 0.0
H984 H 0.7015 0.45905 0.05298 0.0
H985 H 0.82853 0.41632 0.00774 0.0
H986 H 0.82498 0.51891 0.04785 0.0
H987 H 0.867 0.48955 0.97719 0.0
C988 C 0.579 0.42841 0.22103 0.0
C989 C 0.58761 0.39918 0.23514 0.0
C990 C 0.60479 0.39235 0.22469 0.0
C991 C 0.61323 0.41554 0.20151 0.0
C992 C 0.60512 0.44436 0.18721 0.0
C993 C 0.58782 0.45041 0.19633 0.0
O994 O 0.51826 0.39897 0.20092 0.0
Tb995 Tb 0.53081 0.4268 0.24694 0.0
O996 O 0.52879 0.37587 0.26993 0.0
O997 O 0.51733 0.43971 0.15542 0.0
Eu998 Eu 0.50464 0.4788 0.19253 0.0
O999 O 0.55615 0.42465 0.26625 0.0
C1000 C 0.47343 0.46264 0.20986 0.0
O1001 O 0.54968 0.44825 0.21181 0.0
O1002 O 0.51933 0.50761 0.23672 0.0
O1003 O 0.51914 0.46686 0.28237 0.0
C1004 C 0.56197 0.43956 0.23572 0.0
C1005 C 0.51668 0.5454 0.15519 0.0
O1006 O 0.53178 0.53255 0.16397 0.0
C1007 C 0.51809 0.40757 0.16528 0.0
C1008 C 0.51971 0.49921 0.27226 0.0
O1009 O 0.50279 0.52752 0.16121 0.0
C1010 C 0.45663 0.46954 0.22736 0.0
C1011 C 0.42914 0.44514 0.24593 0.0
C1012 C 0.44556 0.44162 0.23022 0.0
C1013 C 0.45051 0.50236 0.23692 0.0
C1014 C 0.43407 0.50555 0.25339 0.0
C1015 C 0.42459 0.47648 0.2613 0.0
C1016 C 0.51365 0.36142 0.27396 0.0
O1017 O 0.49973 0.38033 0.27221 0.0
O1018 O 0.47741 0.47922 0.17915 0.0
O1019 O 0.48671 0.45437 0.23116 0.0
H1020 H 0.58114 0.38221 0.25436 0.0
H1021 H 0.62659 0.41116 0.19435 0.0
H1022 H 0.58148 0.47295 0.18557 0.0
H1023 H 0.44964 0.41761 0.21834 0.0
H1024 H 0.45814 0.52473 0.23102 0.0
H1025 H 0.41263 0.47935 0.27655 0.0
C1026 C 0.69558 0.83831 0.2327 0.0
C1027 C 0.68655 0.86819 0.24368 0.0
C1028 C 0.66928 0.87286 0.2321 0.0
C1029 C 0.66127 0.8476 0.21087 0.0
C1030 C 0.67012 0.81869 0.1989 0.0
C1031 C 0.68727 0.8142 0.20966 0.0
O1032 O 0.75137 0.87415 0.19944 0.0
Tb1033 Tb 0.74446 0.8435 0.24834 0.0
O1034 O 0.74837 0.89334 0.27319 0.0
O1035 O 0.76489 0.8413 0.15367 0.0
Eu1036 Eu 0.77303 0.7948 0.18762 0.0
O1037 O 0.72014 0.84793 0.27329 0.0
C1038 C 0.80501 0.80019 0.20678 0.0
O1039 O 0.72428 0.81795 0.22156 0.0
O1040 O 0.75731 0.76701 0.23105 0.0
O1041 O 0.75842 0.80392 0.28 0.0
C1042 C 0.71309 0.82943 0.24645 0.0
C1043 C 0.75501 0.73056 0.15446 0.0
O1044 O 0.74157 0.74572 0.16928 0.0
C1045 C 0.75801 0.8702 0.16561 0.0
C1046 C 0.75825 0.77235 0.26729 0.0
O1047 O 0.76978 0.74683 0.15343 0.0
C1048 C 0.82217 0.79337 0.22308 0.0
C1049 C 0.84863 0.81849 0.24694 0.0
C1050 C 0.8321 0.82206 0.2319 0.0
C1051 C 0.82941 0.76041 0.2272 0.0
C1052 C 0.84594 0.75678 0.24368 0.0
C1053 C 0.85462 0.78603 0.25543 0.0
C1054 C 0.76371 0.90739 0.27259 0.0
O1055 O 0.77714 0.88836 0.26485 0.0
O1056 O 0.79999 0.78415 0.17625 0.0
O1057 O 0.7925 0.81292 0.22744 0.0
H1058 H 0.69285 0.88757 0.26039 0.0
H1059 H 0.64817 0.85185 0.20119 0.0
H1060 H 0.69411 0.79172 0.20023 0.0
H1061 H 0.82713 0.84715 0.22552 0.0
H1062 H 0.82238 0.73821 0.2178 0.0
H1063 H 0.86702 0.78359 0.26905 0.0
C1064 C 0.57275 0.21569 0.97644 0.0
C1065 C 0.57889 0.24906 0.98418 0.0
C1066 C 0.59642 0.25374 0.99408 0.0
C1067 C 0.60725 0.22565 0.99636 0.0
C1068 C 0.60136 0.19334 0.98787 0.0
C1069 C 0.5842 0.18814 0.97809 0.0
O1070 O 0.51289 0.25394 0.99496 0.0
Tb1071 Tb 0.52515 0.22608 0.94931 0.0
O1072 O 0.52692 0.2761 0.92534 0.0
O1073 O 0.5086 0.21176 0.0384 0.0
Eu1074 Eu 0.49557 0.17384 0.9996 0.0
O1075 O 0.55058 0.22495 0.93131 0.0
C1076 C 0.46286 0.18597 0.99145 0.0
O1077 O 0.54276 0.20041 0.98438 0.0
O1078 O 0.50793 0.14743 0.95017 0.0
O1079 O 0.51189 0.19203 0.90982 0.0
C1080 C 0.55546 0.208 0.96127 0.0
C1081 C 0.515 0.10808 0.02034 0.0
O1082 O 0.52801 0.12848 0.01367 0.0
C1083 C 0.51124 0.24396 0.03 0.0
C1084 C 0.51016 0.15921 0.9162 0.0
O1085 O 0.49943 0.12112 0.02186 0.0
C1086 C 0.44554 0.17586 0.9772 0.0
C1087 C 0.419 0.19284 0.94488 0.0
C1088 C 0.43624 0.19921 0.95477 0.0
C1089 C 0.43744 0.1452 0.98845 0.0
C1090 C 0.42023 0.13882 0.97804 0.0
C1091 C 0.41129 0.16276 0.95689 0.0
C1092 C 0.51414 0.28972 0.90672 0.0
O1093 O 0.50036 0.27154 0.89929 0.0
O1094 O 0.46941 0.16902 0.01999 0.0
O1095 O 0.47453 0.19732 0.96767 0.0
H1096 H 0.57039 0.27078 0.98171 0.0
H1097 H 0.62075 0.22916 0.00353 0.0
H1098 H 0.57993 0.16278 0.97051 0.0
H1099 H 0.44229 0.22257 0.94565 0.0
H1100 H 0.44437 0.12659 0.00502 0.0
H1101 H 0.39826 0.15679 0.94794 0.0
C1102 C 0.20261 0.54166 0.98114 0.0
C1103 C 0.19335 0.51078 0.98392 0.0
C1104 C 0.17564 0.5114 0.99235 0.0
C1105 C 0.16753 0.54285 0.99597 0.0
C1106 C 0.17667 0.57321 0.99453 0.0
C1107 C 0.19426 0.57273 0.98716 0.0
O1108 O 0.2663 0.51752 0.99104 0.0
Tb1109 Tb 0.25083 0.54199 0.9475 0.0
O1110 O 0.25367 0.49673 0.91356 0.0
O1111 O 0.26472 0.56021 0.03336 0.0
Eu1112 Eu 0.27992 0.59533 0.99619 0.0
O1113 O 0.22583 0.52322 0.94067 0.0
C1114 C 0.31239 0.58183 0.00378 0.0
O1115 O 0.23226 0.5621 0.98423 0.0
O1116 O 0.27417 0.62024 0.94026 0.0
O1117 O 0.25511 0.58468 0.90847 0.0
C1118 C 0.22054 0.54225 0.96867 0.0
C1119 C 0.25879 0.66038 0.00633 0.0
O1120 O 0.24713 0.64002 0.99179 0.0
C1121 C 0.26513 0.52752 0.02614 0.0
C1122 C 0.26388 0.61351 0.9117 0.0
O1123 O 0.27367 0.64751 0.01651 0.0
C1124 C 0.33055 0.5886 0.99342 0.0
C1125 C 0.35621 0.57094 0.95946 0.0
C1126 C 0.33857 0.56778 0.96644 0.0
C1127 C 0.34026 0.61483 0.01062 0.0
C1128 C 0.35808 0.61714 0.00398 0.0
C1129 C 0.3661 0.59245 0.98197 0.0
C1130 C 0.26882 0.48466 0.90461 0.0
O1131 O 0.28272 0.50214 0.91278 0.0
O1132 O 0.30425 0.60399 0.02507 0.0
O1133 O 0.30237 0.56634 0.97909 0.0
H1134 H 0.19986 0.48675 0.97947 0.0
H1135 H 0.15363 0.54392 0.99856 0.0
H1136 H 0.20122 0.59648 0.98446 0.0
H1137 H 0.33101 0.55064 0.94919 0.0
H1138 H 0.33403 0.6338 0.02799 0.0
H1139 H 0.37964 0.59568 0.97519 0.0
C1140 C 0.57119 0.54778 0.77622 0.0
C1141 C 0.57855 0.51478 0.77359 0.0
C1142 C 0.59525 0.51095 0.75847 0.0
C1143 C 0.60408 0.53938 0.74576 0.0
C1144 C 0.59705 0.57163 0.74906 0.0
C1145 C 0.58068 0.57599 0.76404 0.0
O1146 O 0.51196 0.51793 0.76013 0.0
Tb1147 Tb 0.52389 0.54392 0.80768 0.0
O1148 O 0.52084 0.49694 0.83825 0.0
O1149 O 0.513 0.56053 0.7174 0.0
Eu1150 Eu 0.49702 0.59604 0.753 0.0
O1151 O 0.54955 0.534 0.82178 0.0
C1152 C 0.46469 0.57985 0.75323 0.0
O1153 O 0.54256 0.57084 0.77754 0.0
O1154 O 0.50578 0.6244 0.8049 0.0
O1155 O 0.51354 0.58201 0.84645 0.0
C1156 C 0.55502 0.55544 0.7962 0.0
C1157 C 0.51308 0.66545 0.73442 0.0
O1158 O 0.52656 0.6501 0.74899 0.0
C1159 C 0.51342 0.52798 0.72525 0.0
C1160 C 0.51023 0.61421 0.83871 0.0
O1161 O 0.49913 0.6477 0.72777 0.0
C1162 C 0.44662 0.58951 0.76168 0.0
C1163 C 0.41885 0.57292 0.78722 0.0
C1164 C 0.43681 0.56895 0.78599 0.0
C1165 C 0.4384 0.61736 0.74366 0.0
C1166 C 0.4203 0.61983 0.744 0.0
C1167 C 0.41094 0.59375 0.7604 0.0
C1168 C 0.50624 0.48039 0.83527 0.0
O1169 O 0.49318 0.4948 0.818 0.0
O1170 O 0.47226 0.59566 0.72532 0.0
O1171 O 0.47525 0.57107 0.78069 0.0
H1172 H 0.57168 0.49279 0.78392 0.0
H1173 H 0.61707 0.53658 0.73491 0.0
H1174 H 0.57572 0.60154 0.76807 0.0
H1175 H 0.44312 0.55076 0.80423 0.0
H1176 H 0.44589 0.63671 0.7296 0.0
H1177 H 0.39698 0.59523 0.75949 0.0
C1178 C 0.20521 0.2196 0.7784 0.0
C1179 C 0.19702 0.25192 0.77579 0.0
C1180 C 0.17946 0.2539 0.76465 0.0
C1181 C 0.17096 0.22394 0.75473 0.0
C1182 C 0.17854 0.19235 0.76024 0.0
C1183 C 0.19565 0.19014 0.7714 0.0
O1184 O 0.26825 0.24884 0.7666 0.0
Tb1185 Tb 0.25352 0.22317 0.80975 0.0
O1186 O 0.25454 0.26816 0.84535 0.0
O1187 O 0.26426 0.21151 0.71802 0.0
Eu1188 Eu 0.27396 0.16375 0.74858 0.0
O1189 O 0.22771 0.23122 0.82338 0.0
C1190 C 0.30726 0.16945 0.75534 0.0
O1191 O 0.23515 0.20168 0.77295 0.0
O1192 O 0.26142 0.13826 0.79846 0.0
O1193 O 0.26429 0.18112 0.84235 0.0
C1194 C 0.22259 0.21373 0.79398 0.0
C1195 C 0.26227 0.09737 0.6942 0.0
O1196 O 0.25787 0.08872 0.65983 0.0
C1197 C 0.26696 0.24275 0.73052 0.0
C1198 C 0.26266 0.14857 0.83363 0.0
O1199 O 0.26651 0.12979 0.69928 0.0
C1200 C 0.32486 0.1641 0.77127 0.0
C1201 C 0.34974 0.18723 0.80532 0.0
C1202 C 0.33224 0.18905 0.79513 0.0
C1203 C 0.33521 0.13648 0.7592 0.0
C1204 C 0.3527 0.13483 0.76952 0.0
C1205 C 0.35972 0.16029 0.7919 0.0
C1206 C 0.26748 0.28962 0.84402 0.0
O1207 O 0.28125 0.28171 0.82461 0.0
O1208 O 0.2998 0.14533 0.73555 0.0
O1209 O 0.29633 0.19002 0.77215 0.0
H1210 H 0.20394 0.27475 0.78364 0.0
H1211 H 0.15766 0.22493 0.74544 0.0
H1212 H 0.20126 0.16528 0.7765 0.0
H1213 H 0.32454 0.21013 0.8052 0.0
H1214 H 0.32982 0.11662 0.74164 0.0
H1215 H 0.373 0.15769 0.80111 0.0
H1216 H 0.88524 0.45248 0.99438 0.0
H1217 H 0.84362 0.38141 0.97316 0.0
H1218 H 0.8644 0.33551 0.97077 0.0
H1219 H 0.89337 0.31603 0.97906 0.0
H1220 H 0.93545 0.38859 0.98524 0.0
H1221 H 0.91469 0.43421 0.98787 0.0
C1222 C 0.88036 0.42759 0.98713 0.0
C1223 C 0.86247 0.42121 0.98403 0.0
C1224 C 0.89239 0.40149 0.98325 0.0
C1225 C 0.85706 0.38768 0.97674 0.0
C1226 C 0.86901 0.36125 0.97489 0.0
C1227 C 0.89859 0.34141 0.97918 0.0
C1228 C 0.91652 0.34768 0.98269 0.0
C1229 C 0.88666 0.36794 0.9786 0.0
C1230 C 0.922 0.38184 0.98393 0.0
C1231 C 0.91006 0.40833 0.9851 0.0
H1232 H 0.36306 0.9097 0.0506 0.0
H1233 H 0.35956 0.9137 0.93011 0.0
H1234 H 0.38565 0.87878 0.92462 0.0
H1235 H 0.40983 0.84876 0.95501 0.0
H1236 H 0.41441 0.84997 0.07554 0.0
H1237 H 0.3877 0.88251 0.0806 0.0
C1238 C 0.36774 0.90173 0.02326 0.0
C1239 C 0.35926 0.91263 0.99077 0.0
C1240 C 0.38322 0.8841 0.02053 0.0
C1241 C 0.36567 0.90401 0.95529 0.0
C1242 C 0.38072 0.88489 0.95225 0.0
C1243 C 0.40518 0.85731 0.98213 0.0
C1244 C 0.41403 0.84812 0.01482 0.0
C1245 C 0.38977 0.87546 0.98472 0.0
C1246 C 0.4079 0.85808 0.05012 0.0
C1247 C 0.39252 0.8759 0.053 0.0
H1248 H 0.88331 0.8181 0.23738 0.0
H1249 H 0.84102 0.88525 0.26485 0.0
H1250 H 0.8614 0.93179 0.27357 0.0
H1251 H 0.89049 0.95183 0.274 0.0
H1252 H 0.9329 0.88038 0.26092 0.0
H1253 H 0.91254 0.836 0.24875 0.0
C1254 C 0.87837 0.84237 0.24696 0.0
C1255 C 0.86055 0.84766 0.25148 0.0
C1256 C 0.89009 0.86802 0.25507 0.0
C1257 C 0.8546 0.88024 0.26106 0.0
C1258 C 0.86627 0.90674 0.26661 0.0
C1259 C 0.89586 0.92691 0.2696 0.0
C1260 C 0.91387 0.92112 0.26711 0.0
C1261 C 0.88406 0.90066 0.26411 0.0
C1262 C 0.91948 0.88733 0.26148 0.0
C1263 C 0.90775 0.86135 0.25459 0.0
H1264 H 0.38214 0.31738 0.22283 0.0
H1265 H 0.34255 0.39091 0.2495 0.0
H1266 H 0.36412 0.43608 0.24813 0.0
H1267 H 0.39402 0.45301 0.24305 0.0
H1268 H 0.43388 0.37565 0.23901 0.0
H1269 H 0.41205 0.33288 0.22828 0.0
C1270 C 0.37812 0.343 0.22991 0.0
C1271 C 0.36076 0.35043 0.2377 0.0
C1272 C 0.39064 0.3679 0.23321 0.0
C1273 C 0.3558 0.38433 0.24363 0.0
C1274 C 0.36815 0.41005 0.24331 0.0
C1275 C 0.39824 0.42682 0.24171 0.0
C1276 C 0.4159 0.41807 0.2424 0.0
C1277 C 0.38564 0.40183 0.23919 0.0
C1278 C 0.4206 0.38377 0.23793 0.0
C1279 C 0.40808 0.35908 0.23213 0.0
H1280 H 0.15377 0.58995 0.0474 0.0
H1281 H 0.1766 0.62499 0.94431 0.0
H1282 H 0.15305 0.66561 0.93591 0.0
H1283 H 0.12474 0.68644 0.95478 0.0
H1284 H 0.10102 0.6495 0.05593 0.0
H1285 H 0.1257 0.61164 0.06698 0.0
C1286 C 0.15373 0.60717 0.02363 0.0
C1287 C 0.1667 0.60471 0.99641 0.0
C1288 C 0.13964 0.62832 0.01766 0.0
C1289 C 0.16679 0.62694 0.96575 0.0
C1290 C 0.15316 0.64944 0.9605 0.0
C1291 C 0.12495 0.66958 0.97888 0.0
C1292 C 0.11127 0.66996 0.0044 0.0
C1293 C 0.13926 0.64925 0.98551 0.0
C1294 C 0.11143 0.64871 0.03578 0.0
C1295 C 0.1256 0.62779 0.04237 0.0
H1296 H 0.66654 0.10696 0.95507 0.0
H1297 H 0.66532 0.09546 0.07519 0.0
H1298 H 0.63914 0.13033 0.07836 0.0
H1299 H 0.61601 0.1616 0.04599 0.0
H1300 H 0.61632 0.1692 0.92544 0.0
H1301 H 0.6433 0.13704 0.92277 0.0
C1302 C 0.6608 0.1132 0.98198 0.0
C1303 C 0.66794 0.09998 0.01503 0.0
C1304 C 0.64531 0.13105 0.98313 0.0
C1305 C 0.6602 0.10664 0.04973 0.0
C1306 C 0.64512 0.12583 0.05136 0.0
C1307 C 0.62181 0.15512 0.01923 0.0
C1308 C 0.61419 0.16644 0.98588 0.0
C1309 C 0.63735 0.13735 0.01813 0.0
C1310 C 0.62184 0.15934 0.9512 0.0
C1311 C 0.63736 0.14172 0.94979 0.0
H1312 H 0.15756 0.16957 0.70574 0.0
H1313 H 0.17289 0.15291 0.82063 0.0
H1314 H 0.14734 0.11811 0.83108 0.0
H1315 H 0.12007 0.09494 0.80806 0.0
H1316 H 0.10482 0.11047 0.6931 0.0
H1317 H 0.1306 0.145 0.68219 0.0
C1318 C 0.15548 0.15734 0.73262 0.0
C1319 C 0.16702 0.1631 0.76221 0.0
C1320 C 0.14048 0.13879 0.73876 0.0
C1321 C 0.1643 0.14785 0.79726 0.0
C1322 C 0.14954 0.12874 0.80346 0.0
C1323 C 0.12224 0.1069 0.78104 0.0
C1324 C 0.11057 0.1016 0.75166 0.0
C1325 C 0.13736 0.1249 0.7747 0.0
C1326 C 0.11352 0.11566 0.71623 0.0
C1327 C 0.12836 0.13459 0.70988 0.0
H1328 H 0.65584 0.66838 0.69864 0.0
H1329 H 0.66891 0.65796 0.81574 0.0
H1330 H 0.64329 0.62338 0.82605 0.0
H1331 H 0.6169 0.59764 0.80191 0.0
H1332 H 0.60444 0.60467 0.68438 0.0
H1333 H 0.62985 0.64043 0.67386 0.0
C1334 C 0.65325 0.65754 0.72602 0.0
C1335 C 0.66421 0.66484 0.75623 0.0
C1336 C 0.63836 0.6385 0.73184 0.0
C1337 C 0.66079 0.65156 0.79195 0.0
C1338 C 0.64601 0.63253 0.79801 0.0
C1339 C 0.61957 0.60802 0.77431 0.0
C1340 C 0.60876 0.60004 0.74412 0.0
C1341 C 0.63456 0.62651 0.76831 0.0
C1342 C 0.61243 0.61197 0.70804 0.0
C1343 C 0.62706 0.63164 0.702 0.0
H1344 H 0.90468 0.8366 0.55877 0.0
H1345 H 0.9284 0.87058 0.45642 0.0
H1346 H 0.90447 0.91026 0.44568 0.0
H1347 H 0.87597 0.93144 0.46344 0.0
H1348 H 0.85231 0.89664 0.56587 0.0
H1349 H 0.87653 0.85841 0.57709 0.0
C1350 C 0.90479 0.85357 0.53477 0.0
C1351 C 0.9182 0.85149 0.50865 0.0
C1352 C 0.89066 0.87442 0.52784 0.0
C1353 C 0.91829 0.87269 0.47717 0.0
C1354 C 0.90447 0.8946 0.47067 0.0
C1355 C 0.87613 0.91533 0.48812 0.0
C1356 C 0.86249 0.91681 0.51389 0.0
C1357 C 0.8904 0.89485 0.4953 0.0
C1358 C 0.86257 0.8955 0.5454 0.0
C1359 C 0.87656 0.87426 0.55224 0.0
H1360 H 0.37127 0.42577 0.56178 0.0
H1361 H 0.35238 0.40108 0.45128 0.0
H1362 H 0.37716 0.3636 0.44093 0.0
H1363 H 0.40459 0.34024 0.46277 0.0
H1364 H 0.42335 0.3643 0.57372 0.0
H1365 H 0.39873 0.4022 0.58376 0.0
C1366 C 0.37236 0.41107 0.53606 0.0
C1367 C 0.35998 0.41496 0.50767 0.0
C1368 C 0.38697 0.3913 0.52978 0.0
C1369 C 0.36157 0.39718 0.47381 0.0
C1370 C 0.3759 0.37662 0.46762 0.0
C1371 C 0.4034 0.35439 0.48884 0.0
C1372 C 0.41562 0.3498 0.5175 0.0
C1373 C 0.38882 0.37421 0.4951 0.0
C1374 C 0.41416 0.36806 0.55115 0.0
C1375 C 0.39993 0.38896 0.55718 0.0
H1376 H 0.86521 0.3634 0.69476 0.0
H1377 H 0.85329 0.35301 0.81199 0.0
H1378 H 0.87952 0.38398 0.82901 0.0
H1379 H 0.907 0.40989 0.81001 0.0
H1380 H 0.91957 0.41599 0.69245 0.0
H1381 H 0.89227 0.38948 0.6758 0.0
C1382 C 0.86803 0.36951 0.72388 0.0
C1383 C 0.85728 0.35712 0.75212 0.0
C1384 C 0.88367 0.38472 0.73331 0.0
C1385 C 0.86117 0.36369 0.78992 0.0
C1386 C 0.87638 0.38038 0.7996 0.0
C1387 C 0.90391 0.40426 0.78093 0.0
C1388 C 0.9154 0.4137 0.75259 0.0
C1389 C 0.88801 0.38984 0.77153 0.0
C1390 C 0.91118 0.40748 0.71479 0.0
C1391 C 0.8954 0.39323 0.7052 0.0
H1392 H 0.37485 0.8284 0.79236 0.0
H1393 H 0.3473 0.87396 0.69968 0.0
H1394 H 0.37075 0.91388 0.69014 0.0
H1395 H 0.39976 0.93264 0.70484 0.0
H1396 H 0.42779 0.88801 0.79694 0.0
H1397 H 0.40398 0.8482 0.80796 0.0
C1398 C 0.37393 0.84746 0.77047 0.0
C1399 C 0.35947 0.84826 0.74669 0.0
C1400 C 0.38783 0.86894 0.76377 0.0
C1401 C 0.3582 0.87321 0.71871 0.0
C1402 C 0.37175 0.89546 0.71264 0.0
C1403 C 0.40068 0.91376 0.72696 0.0
C1404 C 0.41529 0.91273 0.75007 0.0
C1405 C 0.38678 0.89272 0.7342 0.0
C1406 C 0.41662 0.88856 0.77867 0.0
C1407 C 0.40294 0.86649 0.78536 0.0
H1408 H 0.11333 0.16616 0.44856 0.0
H1409 H 0.1111 0.17801 0.56858 0.0
H1410 H 0.13672 0.14207 0.57594 0.0
H1411 H 0.15996 0.1081 0.54732 0.0
H1412 H 0.1632 0.10075 0.42691 0.0
H1413 H 0.13711 0.1349 0.42008 0.0
C1414 C 0.11821 0.15982 0.47628 0.0
C1415 C 0.11021 0.1732 0.50811 0.0
C1416 C 0.13338 0.14115 0.47996 0.0
C1417 C 0.11687 0.16653 0.54397 0.0
C1418 C 0.13163 0.1467 0.54804 0.0
C1419 C 0.15519 0.11516 0.51976 0.0
C1420 C 0.16351 0.10313 0.48764 0.0
C1421 C 0.14014 0.1344 0.51616 0.0
C1422 C 0.15715 0.11111 0.45184 0.0
C1423 C 0.14211 0.1299 0.44798 0.0
H1424 H 0.62325 0.68612 0.55043 0.0
H1425 H 0.59587 0.6439 0.45546 0.0
H1426 H 0.61911 0.60388 0.4446 0.0
H1427 H 0.64836 0.58525 0.4576 0.0
H1428 H 0.6767 0.62789 0.55049 0.0
H1429 H 0.65238 0.66565 0.56506 0.0
C1430 C 0.62225 0.66757 0.52795 0.0
C1431 C 0.60795 0.66811 0.50374 0.0
C1432 C 0.63616 0.64622 0.52023 0.0
C1433 C 0.60661 0.64375 0.47492 0.0
C1434 C 0.62009 0.62143 0.46802 0.0
C1435 C 0.64921 0.60326 0.48069 0.0
C1436 C 0.66412 0.60457 0.50276 0.0
C1437 C 0.63514 0.62351 0.48952 0.0
C1438 C 0.66533 0.62739 0.53283 0.0
C1439 C 0.65137 0.64828 0.54151 0.0
H1440 H 0.16148 0.66631 0.29245 0.0
H1441 H 0.16419 0.67656 0.17237 0.0
H1442 H 0.13794 0.64218 0.16526 0.0
H1443 H 0.11415 0.6096 0.19439 0.0
H1444 H 0.1103 0.60641 0.31499 0.0
H1445 H 0.1369 0.63872 0.32117 0.0
C1446 C 0.15654 0.66005 0.26472 0.0
C1447 C 0.16493 0.67236 0.23285 0.0
C1448 C 0.14097 0.64285 0.26121 0.0
C1449 C 0.15816 0.66588 0.19704 0.0
C1450 C 0.14304 0.64696 0.19312 0.0
C1451 C 0.11886 0.61733 0.22181 0.0
C1452 C 0.11022 0.60665 0.25417 0.0
C1453 C 0.13419 0.63581 0.22511 0.0
C1454 C 0.11653 0.61563 0.2898 0.0
C1455 C 0.1319 0.63332 0.29334 0.0
H1456 H 0.62793 0.07887 0.29697 0.0
H1457 H 0.6009 0.12355 0.20341 0.0
H1458 H 0.62455 0.16425 0.19469 0.0
H1459 H 0.6527 0.18621 0.21412 0.0
H1460 H 0.67855 0.14335 0.31055 0.0
H1461 H 0.65607 0.10033 0.31589 0.0
C1462 C 0.62725 0.09771 0.27478 0.0
C1463 C 0.61291 0.09864 0.25077 0.0
C1464 C 0.64085 0.1201 0.26969 0.0
C1465 C 0.61187 0.12294 0.22226 0.0
C1466 C 0.62542 0.14568 0.21704 0.0
C1467 C 0.65344 0.16727 0.23617 0.0
C1468 C 0.66708 0.16806 0.26223 0.0
C1469 C 0.64 0.14421 0.24047 0.0
C1470 C 0.66823 0.14301 0.29005 0.0
C1471 C 0.65523 0.11891 0.29354 0.0
H1472 H 0.14988 0.50151 0.04192 0.0
H1473 H 0.17623 0.45241 0.9501 0.0
H1474 H 0.15422 0.40766 0.94924 0.0
H1475 H 0.12712 0.38346 0.97449 0.0
H1476 H 0.09972 0.43726 0.06118 0.0
H1477 H 0.12183 0.48144 0.06181 0.0
C1478 C 0.15076 0.48132 0.02121 0.0
C1479 C 0.1646 0.48065 0.99569 0.0
C1480 C 0.13746 0.45759 0.01885 0.0
C1481 C 0.16584 0.45347 0.97023 0.0
C1482 C 0.15306 0.42832 0.96924 0.0
C1483 C 0.12567 0.40573 0.99221 0.0
C1484 C 0.11163 0.40776 0.01709 0.0
C1485 C 0.13864 0.43056 0.99292 0.0
C1486 C 0.1101 0.43591 0.041 0.0
C1487 C 0.12295 0.46061 0.04199 0.0
H1488 H 0.15155 0.87204 0.96193 0.0
H1489 H 0.16614 0.842 0.07386 0.0
H1490 H 0.14086 0.80561 0.07798 0.0
H1491 H 0.11415 0.78429 0.05135 0.0
H1492 H 0.10173 0.80388 0.93552 0.0
H1493 H 0.12587 0.84425 0.93183 0.0
C1494 C 0.14956 0.85627 0.98644 0.0
C1495 C 0.16095 0.85912 0.01726 0.0
C1496 C 0.13488 0.83513 0.98859 0.0
C1497 C 0.15792 0.83938 0.04938 0.0
C1498 C 0.14321 0.81929 0.05212 0.0
C1499 C 0.11649 0.79797 0.02543 0.0
C1500 C 0.10591 0.79147 0.99396 0.0
C1501 C 0.13141 0.81772 0.02232 0.0
C1502 C 0.10928 0.80907 0.96049 0.0
C1503 C 0.12341 0.83137 0.95812 0.0
H1504 H 0.13942 0.89736 0.25023 0.0
H1505 H 0.09559 0.8305 0.25939 0.0
H1506 H 0.11484 0.78354 0.2761 0.0
H1507 H 0.14409 0.76002 0.27908 0.0
H1508 H 0.18784 0.82477 0.25879 0.0
H1509 H 0.16864 0.87429 0.25561 0.0
C1510 C 0.13399 0.8725 0.25574 0.0
C1511 C 0.116 0.86742 0.25263 0.0
C1512 C 0.14518 0.84528 0.26308 0.0
C1513 C 0.10928 0.83531 0.26148 0.0
C1514 C 0.12032 0.80836 0.27068 0.0
C1515 C 0.14947 0.78506 0.27424 0.0
C1516 C 0.1674 0.78866 0.26848 0.0
C1517 C 0.13829 0.81284 0.2702 0.0
C1518 C 0.17418 0.8213 0.26332 0.0
C1519 C 0.16316 0.84949 0.26111 0.0
H1520 H 0.16909 0.44088 0.26757 0.0
H1521 H 0.13779 0.36535 0.21154 0.0
H1522 H 0.11216 0.39805 0.22371 0.0
H1523 H 0.0987 0.45204 0.24325 0.0
H1524 H 0.1285 0.52254 0.30924 0.0
H1525 H 0.15413 0.4873 0.30188 0.0
C1526 C 0.15669 0.43117 0.25865 0.0
C1527 C 0.15583 0.40183 0.23603 0.0
C1528 C 0.14146 0.44911 0.26791 0.0
C1529 C 0.13932 0.38924 0.22631 0.0
C1530 C 0.12441 0.4076 0.23387 0.0
C1531 C 0.11058 0.45883 0.25746 0.0
C1532 C 0.11172 0.49 0.27629 0.0
C1533 C 0.12533 0.4382 0.25355 0.0
C1534 C 0.12731 0.49854 0.29446 0.0
C1535 C 0.14208 0.47865 0.28983 0.0
H1536 H 0.84569 0.57426 0.99517 0.0
H1537 H 0.87649 0.50223 0.0565 0.0
H1538 H 0.90171 0.53877 0.05076 0.0
H1539 H 0.91615 0.58683 0.01768 0.0
H1540 H 0.88381 0.66312 0.96626 0.0
H1541 H 0.85845 0.62961 0.9786 0.0
C1542 C 0.85766 0.56744 0.00901 0.0
C1543 C 0.85917 0.53551 0.02605 0.0
C1544 C 0.87218 0.58883 0.00603 0.0
C1545 C 0.87494 0.5269 0.04342 0.0
C1546 C 0.8895 0.54754 0.03959 0.0
C1547 C 0.90355 0.59658 0.01012 0.0
C1548 C 0.90224 0.62652 0.9887 0.0
C1549 C 0.88851 0.57792 0.01929 0.0
C1550 C 0.88555 0.6391 0.98057 0.0
C1551 C 0.87084 0.62012 0.98799 0.0
H1552 H 0.92767 0.19256 1.00012 0.0
H1553 H 0.89863 0.27479 0.04855 0.0
H1554 H 0.87219 0.24158 0.04422 0.0
H1555 H 0.85663 0.19245 0.0162 0.0
H1556 H 0.88663 0.1073 0.97643 0.0
H1557 H 0.91305 0.13808 0.98778 0.0
C1558 C 0.91572 0.20248 0.01138 0.0
C1559 C 0.91508 0.23599 0.02445 0.0
C1560 C 0.9005 0.18311 0.00915 0.0
C1561 C 0.8994 0.2488 0.03853 0.0
C1562 C 0.88421 0.23002 0.03559 0.0
C1563 C 0.86893 0.1803 0.01104 0.0
C1564 C 0.86944 0.14835 0.99336 0.0
C1565 C 0.88444 0.19761 0.01933 0.0
C1566 C 0.88566 0.1327 0.98802 0.0
C1567 C 0.90093 0.15012 0.99483 0.0
H1568 H 0.87778 0.2566 0.77942 0.0
H1569 H 0.84644 0.20291 0.69827 0.0
H1570 H 0.86706 0.15562 0.6995 0.0
H1571 H 0.89424 0.13011 0.7239 0.0
H1572 H 0.92675 0.18886 0.79765 0.0
H1573 H 0.9061 0.23578 0.79582 0.0
C1574 C 0.87559 0.23538 0.76056 0.0
C1575 C 0.86063 0.23419 0.7378 0.0
C1576 C 0.88807 0.20985 0.75903 0.0
C1577 C 0.85771 0.20487 0.71607 0.0
C1578 C 0.86967 0.17804 0.71629 0.0
C1579 C 0.89707 0.15381 0.73823 0.0
C1580 C 0.91213 0.15647 0.76031 0.0
C1581 C 0.88502 0.18052 0.73728 0.0
C1582 C 0.91551 0.18673 0.77973 0.0
C1583 C 0.90352 0.21316 0.7793 0.0
H1584 H 0.88699 0.63672 0.75885 0.0
H1585 H 0.84505 0.56472 0.75352 0.0
H1586 H 0.86566 0.51906 0.7409 0.0
H1587 H 0.89533 0.49925 0.73746 0.0
H1588 H 0.93737 0.56889 0.75733 0.0
H1589 H 0.91683 0.6164 0.75754 0.0
C1590 C 0.88225 0.61098 0.75544 0.0
C1591 C 0.86438 0.60415 0.75805 0.0
C1592 C 0.89421 0.58463 0.75089 0.0
C1593 C 0.8586 0.57087 0.75165 0.0
C1594 C 0.87042 0.54472 0.7448 0.0
C1595 C 0.90014 0.5247 0.74272 0.0
C1596 C 0.91795 0.53024 0.74887 0.0
C1597 C 0.88823 0.55125 0.7455 0.0
C1598 C 0.92382 0.56374 0.753 0.0
C1599 C 0.91205 0.59081 0.7534 0.0
H1600 H 0.1777 0.95744 0.52609 0.0
H1601 H 0.15019 1.00353 0.43441 0.0
H1602 H 0.12529 0.96717 0.4462 0.0
H1603 H 0.11005 0.92726 0.48828 0.0
H1604 H 0.14011 0.87623 0.57413 0.0
H1605 H 0.16452 0.91006 0.55971 0.0
C1606 C 0.16658 0.95831 0.50758 0.0
C1607 C 0.16586 0.98282 0.47929 0.0
C1608 C 0.15222 0.9376 0.51475 0.0
C1609 C 0.15115 0.98426 0.45601 0.0
C1610 C 0.13675 0.96397 0.46325 0.0
C1611 C 0.12186 0.92321 0.50384 0.0
C1612 C 0.1222 0.90041 0.5344 0.0
C1613 C 0.13686 0.94138 0.49361 0.0
C1614 C 0.13825 0.89529 0.55277 0.0
C1615 C 0.15277 0.91412 0.54383 0.0
H1616 H 0.11829 0.29213 0.44509 0.0
H1617 H 0.09589 0.30122 0.55513 0.0
H1618 H 0.11969 0.3373 0.57533 0.0
H1619 H 0.14761 0.36227 0.56345 0.0
H1620 H 0.16819 0.3634 0.45115 0.0
H1621 H 0.14516 0.32466 0.43062 0.0
C1622 C 0.11821 0.30359 0.47281 0.0
C1623 C 0.10505 0.29492 0.49834 0.0
C1624 C 0.13208 0.32432 0.4843 0.0
C1625 C 0.10546 0.30865 0.53468 0.0
C1626 C 0.11932 0.32844 0.5465 0.0
C1627 C 0.147 0.35459 0.5342 0.0
C1628 C 0.1595 0.36647 0.50876 0.0
C1629 C 0.13286 0.33564 0.52186 0.0
C1630 C 0.15887 0.35468 0.47149 0.0
C1631 C 0.14545 0.33317 0.45956 0.0
H1632 H 0.13916 0.38692 0.72343 0.0
H1633 H 0.09648 0.32644 0.76322 0.0
H1634 H 0.117 0.28398 0.78649 0.0
H1635 H 0.14663 0.26195 0.79009 0.0
H1636 H 0.18799 0.31693 0.73711 0.0
H1637 H 0.16817 0.36401 0.72397 0.0
C1638 C 0.134 0.36403 0.73588 0.0
C1639 C 0.11594 0.35966 0.73998 0.0
C1640 C 0.14572 0.3389 0.74698 0.0
C1641 C 0.11011 0.33069 0.7591 0.0
C1642 C 0.12188 0.30629 0.77228 0.0
C1643 C 0.15138 0.28425 0.77561 0.0
C1644 C 0.16886 0.28567 0.76417 0.0
C1645 C 0.13965 0.30987 0.7656 0.0
C1646 C 0.17479 0.3152 0.74655 0.0
C1647 C 0.16337 0.34185 0.73858 0.0
H1648 H 0.1193 0.98376 0.80698 0.0
H1649 H 0.09475 0.97335 0.69902 0.0
H1650 H 0.11896 0.93945 0.67642 0.0
H1651 H 0.14804 0.91784 0.68539 0.0
H1652 H 0.1715 0.9207 0.7954 0.0
H1653 H 0.14747 0.95529 0.81838 0.0
C1654 C 0.11885 0.97238 0.77923 0.0
C1655 C 0.10495 0.98009 0.75504 0.0
C1656 C 0.13309 0.95355 0.76617 0.0
C1657 C 0.10491 0.96659 0.71856 0.0
C1658 C 0.11901 0.94812 0.70532 0.0
C1659 C 0.14787 0.92539 0.71468 0.0
C1660 C 0.16159 0.91594 0.73866 0.0
C1661 C 0.13335 0.94238 0.72854 0.0
C1662 C 0.16134 0.92766 0.776 0.0
C1663 C 0.14736 0.94679 0.78943 0.0
H1664 H 0.86628 0.04216 0.5567 0.0
H1665 H 0.84847 0.038 0.44219 0.0
H1666 H 0.87292 0.07247 0.42234 0.0
H1667 H 0.90016 0.10042 0.43681 0.0
H1668 H 0.91685 0.11085 0.55183 0.0
H1669 H 0.89277 0.07497 0.5721 0.0
C1670 C 0.8673 0.05043 0.52777 0.0
C1671 C 0.85518 0.03865 0.50112 0.0
C1672 C 0.88171 0.06956 0.51646 0.0
C1673 C 0.85712 0.04804 0.4634 0.0
C1674 C 0.8714 0.06685 0.45192 0.0
C1675 C 0.89857 0.09491 0.46643 0.0
C1676 C 0.91028 0.10867 0.49279 0.0
C1677 C 0.88396 0.07697 0.47807 0.0
C1678 C 0.90822 0.10039 0.53085 0.0
C1679 C 0.8942 0.08056 0.54251 0.0
H1680 H 0.87541 0.63868 0.5327 0.0
H1681 H 0.85408 0.68371 0.43272 0.0
H1682 H 0.87775 0.72445 0.43069 0.0
H1683 H 0.90512 0.7449 0.45506 0.0
H1684 H 0.92537 0.70543 0.559 0.0
H1685 H 0.90204 0.66329 0.56084 0.0
C1686 C 0.87561 0.65846 0.51155 0.0
C1687 C 0.86278 0.65902 0.48353 0.0
C1688 C 0.88945 0.6815 0.51032 0.0
C1689 C 0.86346 0.68376 0.4553 0.0
C1690 C 0.87721 0.70644 0.45364 0.0
C1691 C 0.90449 0.72694 0.47809 0.0
C1692 C 0.91699 0.72818 0.5068 0.0
C1693 C 0.89043 0.70494 0.48046 0.0
C1694 C 0.91612 0.70455 0.5362 0.0
C1695 C 0.90257 0.68103 0.53766 0.0
H1696 H 0.90119 0.64272 0.21252 0.0
H1697 H 0.91793 0.67728 0.32153 0.0
H1698 H 0.89268 0.7139 0.32636 0.0
H1699 H 0.86521 0.73336 0.30163 0.0
H1700 H 0.85081 0.70934 0.18769 0.0
H1701 H 0.87492 0.66897 0.18372 0.0
C1702 C 0.89968 0.65953 0.23644 0.0
C1703 C 0.91163 0.65788 0.2663 0.0
C1704 C 0.88504 0.68071 0.23901 0.0
C1705 C 0.90923 0.67895 0.29774 0.0
C1706 C 0.89455 0.69916 0.30094 0.0
C1707 C 0.86725 0.71919 0.27585 0.0
C1708 C 0.85615 0.72455 0.24498 0.0
C1709 C 0.88218 0.69948 0.27222 0.0
C1710 C 0.85887 0.7054 0.21216 0.0
C1711 C 0.87297 0.68305 0.20954 0.0
H1712 H 0.85698 0.08623 0.23855 0.0
H1713 H 0.88929 0.16706 0.28064 0.0
H1714 H 0.91484 0.1335 0.26898 0.0
H1715 H 0.92782 0.07741 0.25642 0.0
H1716 H 0.89654 0.99955 0.20564 0.0
H1717 H 0.87116 0.03594 0.20952 0.0
C1718 C 0.8696 0.09689 0.24404 0.0
C1719 C 0.87102 0.12837 0.26249 0.0
C1720 C 0.8846 0.07794 0.23567 0.0
C1721 C 0.88765 0.14208 0.26828 0.0
C1722 C 0.9024 0.12304 0.26139 0.0
C1723 C 0.91564 0.06912 0.2446 0.0
C1724 C 0.91401 0.03582 0.23124 0.0
C1725 C 0.90104 0.09034 0.24654 0.0
C1726 C 0.89806 0.02525 0.21618 0.0
C1727 C 0.88346 0.04586 0.21881 0.0
H1728 H 0.6289 0.42382 0.57437 0.0
H1729 H 0.60766 0.41503 0.46277 0.0
H1730 H 0.63082 0.45128 0.43867 0.0
H1731 H 0.65837 0.48252 0.4494 0.0
H1732 H 0.68159 0.48095 0.55935 0.0
H1733 H 0.65736 0.44829 0.58339 0.0
C1734 C 0.62932 0.42961 0.54461 0.0
C1735 C 0.61667 0.41596 0.52038 0.0
C1736 C 0.64369 0.44667 0.53032 0.0
C1737 C 0.61709 0.42512 0.48225 0.0
C1738 C 0.63063 0.44507 0.46828 0.0
C1739 C 0.65856 0.47326 0.47806 0.0
C1740 C 0.67208 0.48327 0.50234 0.0
C1741 C 0.64438 0.4548 0.49183 0.0
C1742 C 0.67177 0.47241 0.53982 0.0
C1743 C 0.65762 0.45475 0.55383 0.0
H1744 H 0.59834 0.82398 0.50214 0.0
H1745 H 0.62871 0.75281 0.43866 0.0
H1746 H 0.65418 0.78848 0.44634 0.0
H1747 H 0.66887 0.8357 0.48063 0.0
H1748 H 0.63703 0.911 0.53512 0.0
H1749 H 0.61151 0.87819 0.52166 0.0
C1750 C 0.6103 0.81713 0.48843 0.0
C1751 C 0.6116 0.78565 0.4702 0.0
C1752 C 0.62496 0.83798 0.4926 0.0
C1753 C 0.62735 0.77704 0.45288 0.0
C1754 C 0.64203 0.7972 0.45772 0.0
C1755 C 0.65635 0.84535 0.48871 0.0
C1756 C 0.65524 0.87484 0.51106 0.0
C1757 C 0.64121 0.82709 0.47905 0.0
C1758 C 0.63864 0.8873 0.52 0.0
C1759 C 0.62383 0.86876 0.51192 0.0
H1760 H 0.6444 0.76184 0.78313 0.0
H1761 H 0.68704 0.81961 0.7393 0.0
H1762 H 0.66785 0.86851 0.73021 0.0
H1763 H 0.6388 0.89224 0.72898 0.0
H1764 H 0.5953 0.82971 0.75943 0.0
H1765 H 0.61514 0.78504 0.78003 0.0
C1766 C 0.64957 0.78505 0.77131 0.0
C1767 C 0.66717 0.78672 0.76108 0.0
C1768 C 0.63826 0.81194 0.76358 0.0
C1769 C 0.67366 0.81752 0.74743 0.0
C1770 C 0.66263 0.8453 0.74184 0.0
C1771 C 0.63344 0.86862 0.73923 0.0
C1772 C 0.61534 0.86421 0.74138 0.0
C1773 C 0.64484 0.84231 0.74865 0.0
C1774 C 0.60901 0.83403 0.75715 0.0
C1775 C 0.62039 0.80836 0.76869 0.0
H1776 H 0.61992 0.48627 0.805 0.0
H1777 H 0.59337 0.46737 0.70069 0.0
H1778 H 0.61715 0.43169 0.67937 0.0
H1779 H 0.6464 0.41154 0.68752 0.0
H1780 H 0.67171 0.42142 0.79514 0.0
H1781 H 0.64819 0.45803 0.81688 0.0
C1782 C 0.61898 0.47275 0.77851 0.0
C1783 C 0.60466 0.47855 0.75482 0.0
C1784 C 0.63289 0.45262 0.76622 0.0
C1785 C 0.60391 0.46221 0.71986 0.0
C1786 C 0.61773 0.44264 0.70729 0.0
C1787 C 0.64669 0.42061 0.71627 0.0
C1788 C 0.66079 0.41267 0.73984 0.0
C1789 C 0.63245 0.43859 0.72979 0.0
C1790 C 0.6612 0.42697 0.77609 0.0
C1791 C 0.64754 0.44733 0.78886 0.0
H1792 H 0.4026 0.6276 0.52779 0.0
H1793 H 0.42144 0.5837 0.42496 0.0
H1794 H 0.39808 0.54213 0.42542 0.0
H1795 H 0.37142 0.52107 0.4526 0.0
H1796 H 0.3533 0.561 0.55811 0.0
H1797 H 0.37667 0.60308 0.55805 0.0
C1798 C 0.40199 0.60784 0.50655 0.0
C1799 C 0.41402 0.60784 0.47703 0.0
C1800 C 0.38819 0.58473 0.50646 0.0
C1801 C 0.41274 0.5832 0.44866 0.0
C1802 C 0.39913 0.5601 0.44843 0.0
C1803 C 0.3725 0.53918 0.47551 0.0
C1804 C 0.36061 0.53804 0.50526 0.0
C1805 C 0.38656 0.56132 0.4766 0.0
C1806 C 0.36207 0.56179 0.53455 0.0
C1807 C 0.37565 0.58526 0.53491 0.0
H1808 H 0.37235 0.16657 0.43671 0.0
H1809 H 0.36074 0.1452 0.55251 0.0
H1810 H 0.38463 0.18199 0.57249 0.0
H1811 H 0.40959 0.21868 0.55621 0.0
H1812 H 0.42225 0.23439 0.43995 0.0
H1813 H 0.39777 0.19952 0.42065 0.0
C1814 C 0.375 0.17001 0.46641 0.0
C1815 C 0.36484 0.15297 0.4931 0.0
C1816 C 0.38941 0.18888 0.47741 0.0
C1817 C 0.36821 0.15829 0.53142 0.0
C1818 C 0.3821 0.17873 0.54277 0.0
C1819 C 0.40739 0.213 0.52678 0.0
C1820 C 0.41809 0.22777 0.49947 0.0
C1821 C 0.39307 0.19337 0.51595 0.0
C1822 C 0.41466 0.22189 0.46133 0.0
C1823 C 0.40042 0.20273 0.45035 0.0
H1824 H 0.39695 0.1393 0.21731 0.0
H1825 H 0.42238 0.18634 0.31161 0.0
H1826 H 0.39837 0.22598 0.31874 0.0
H1827 H 0.36935 0.24392 0.30154 0.0
H1828 H 0.34588 0.20535 0.20013 0.0
H1829 H 0.36902 0.1631 0.19462 0.0
C1830 C 0.39756 0.15935 0.2382 0.0
C1831 C 0.41166 0.16048 0.26332 0.0
C1832 C 0.38356 0.18191 0.24233 0.0
C1833 C 0.41201 0.18573 0.2912 0.0
C1834 C 0.39804 0.20773 0.29591 0.0
C1835 C 0.36928 0.22657 0.27783 0.0
C1836 C 0.35586 0.22845 0.25093 0.0
C1837 C 0.38357 0.20533 0.27233 0.0
C1838 C 0.35579 0.20452 0.22155 0.0
C1839 C 0.36931 0.18096 0.2178 0.0
H1840 H 0.38149 0.60476 0.32289 0.0
H1841 H 0.35721 0.59154 0.21472 0.0
H1842 H 0.38144 0.55604 0.19435 0.0
H1843 H 0.41011 0.53078 0.20691 0.0
H1844 H 0.43472 0.54744 0.31385 0.0
H1845 H 0.41045 0.58276 0.33396 0.0
C1846 C 0.3815 0.59438 0.29464 0.0
C1847 C 0.36764 0.60147 0.2701 0.0
C1848 C 0.39598 0.57635 0.28229 0.0
C1849 C 0.3676 0.58653 0.23426 0.0
C1850 C 0.38166 0.56687 0.22234 0.0
C1851 C 0.4105 0.54365 0.23388 0.0
C1852 C 0.4245 0.53766 0.25843 0.0
C1853 C 0.39613 0.56254 0.24575 0.0
C1854 C 0.42449 0.55291 0.29401 0.0
C1855 C 0.41038 0.57221 0.30582 0.0
H1856 H 0.64635 0.00999 0.96981 0.0
H1857 H 0.68922 0.94529 0.99904 0.0
H1858 H 0.66972 0.89642 0.00226 0.0
H1859 H 0.6404 0.87398 0.00414 0.0
H1860 H 0.59707 0.94101 0.98654 0.0
H1861 H 0.61689 0.98717 0.97063 0.0
C1862 C 0.65149 0.98513 0.97676 0.0
C1863 C 0.66927 0.98142 0.98484 0.0
C1864 C 0.64007 0.95777 0.98084 0.0
C1865 C 0.67571 0.94889 0.9926 0.0
C1866 C 0.6645 0.92107 0.99485 0.0
C1867 C 0.63517 0.89874 0.99716 0.0
C1868 C 0.61714 0.90408 0.99751 0.0
C1869 C 0.64663 0.92554 0.99032 0.0
C1870 C 0.61077 0.93601 0.98662 0.0
C1871 C 0.62214 0.9625 0.97786 0.0
H1872 H 0.61562 0.29079 0.94622 0.0
H1873 H 0.59862 0.28546 0.06096 0.0
H1874 H 0.62321 0.31979 0.08092 0.0
H1875 H 0.65075 0.34649 0.06657 0.0
H1876 H 0.66703 0.35678 0.95149 0.0
H1877 H 0.64217 0.32301 0.93094 0.0
C1878 C 0.61682 0.29882 0.97526 0.0
C1879 C 0.60495 0.28657 0.00194 0.0
C1880 C 0.63139 0.31758 0.98665 0.0
C1881 C 0.60711 0.29575 0.03976 0.0
C1882 C 0.62148 0.31448 0.05128 0.0
C1883 C 0.64885 0.34163 0.03685 0.0
C1884 C 0.66078 0.35452 0.01061 0.0
C1885 C 0.63393 0.32456 0.02511 0.0
C1886 C 0.65829 0.34692 0.97241 0.0
C1887 C 0.64384 0.32826 0.9606 0.0
H1888 H 0.65604 0.29376 0.30955 0.0
H1889 H 0.67834 0.29198 0.19901 0.0
H1890 H 0.65457 0.32633 0.17496 0.0
H1891 H 0.62694 0.35375 0.18449 0.0
H1892 H 0.60653 0.36512 0.29627 0.0
H1893 H 0.62923 0.3274 0.32047 0.0
C1894 C 0.65605 0.30239 0.28066 0.0
C1895 C 0.6692 0.2914 0.25625 0.0
C1896 C 0.64223 0.32205 0.26701 0.0
C1897 C 0.66875 0.30134 0.2185 0.0
C1898 C 0.65492 0.32015 0.2046 0.0
C1899 C 0.6275 0.34839 0.21434 0.0
C1900 C 0.61521 0.36297 0.23861 0.0
C1901 C 0.64147 0.32998 0.22845 0.0
C1902 C 0.61573 0.3543 0.27685 0.0
C1903 C 0.62896 0.33338 0.2908 0.0
H1904 H 0.65235 0.89683 0.29465 0.0
H1905 H 0.66202 0.9174 0.17781 0.0
H1906 H 0.63713 0.95495 0.17525 0.0
H1907 H 0.61221 0.98056 0.20502 0.0
H1908 H 0.60469 0.96993 0.324 0.0
H1909 H 0.62856 0.92876 0.32693 0.0
C1910 C 0.6494 0.91073 0.26919 0.0
C1911 C 0.65922 0.90472 0.23658 0.0
C1912 C 0.63496 0.93271 0.26793 0.0
C1913 C 0.65497 0.9223 0.20347 0.0
C1914 C 0.64049 0.94312 0.20175 0.0
C1915 C 0.61547 0.9684 0.23144 0.0
C1916 C 0.60629 0.97744 0.26399 0.0
C1917 C 0.63017 0.9478 0.23349 0.0
C1918 C 0.61103 0.96237 0.29826 0.0
C1919 C 0.62502 0.93961 0.30006 0.0
H1920 H 0.40054 0.12083 0.03831 0.0
H1921 H 0.41757 0.08741 0.92929 0.0
H1922 H 0.39353 0.04783 0.92532 0.0
H1923 H 0.36683 0.02584 0.95037 0.0
H1924 H 0.35199 0.04937 0.06399 0.0
H1925 H 0.37526 0.09171 0.06785 0.0
C1926 C 0.3994 0.10363 0.01461 0.0
C1927 C 0.41105 0.10645 0.98445 0.0
C1928 C 0.38544 0.08071 0.01255 0.0
C1929 C 0.40913 0.08487 0.95328 0.0
C1930 C 0.39513 0.06292 0.95059 0.0
C1931 C 0.36864 0.04016 0.97616 0.0
C1932 C 0.35762 0.03429 0.00685 0.0
C1933 C 0.38299 0.06138 0.97955 0.0
C1934 C 0.36001 0.05368 0.03966 0.0
C1935 C 0.3736 0.07725 0.04217 0.0
H1936 H 0.38142 0.63535 0.05811 0.0
H1937 H 0.35771 0.66794 0.95474 0.0
H1938 H 0.38047 0.70963 0.94538 0.0
H1939 H 0.40746 0.73529 0.96514 0.0
H1940 H 0.42922 0.71075 0.07317 0.0
H1941 H 0.40744 0.66617 0.08153 0.0
C1942 C 0.38091 0.65267 0.0345 0.0
C1943 C 0.36769 0.6493 0.00768 0.0
C1944 C 0.39408 0.67684 0.02937 0.0
C1945 C 0.36742 0.67102 0.97642 0.0
C1946 C 0.38065 0.69425 0.97059 0.0
C1947 C 0.40757 0.7199 0.9904 0.0
C1948 C 0.42006 0.72612 0.01833 0.0
C1949 C 0.39419 0.69685 0.99649 0.0
C1950 C 0.42005 0.70594 0.05082 0.0
C1951 C 0.40733 0.68106 0.05598 0.0
H1952 H 0.39859 0.64084 0.68762 0.0
H1953 H 0.4188 0.66822 0.79633 0.0
H1954 H 0.39494 0.70749 0.80597 0.0
H1955 H 0.36787 0.73226 0.78498 0.0
H1956 H 0.34953 0.71359 0.67258 0.0
H1957 H 0.37263 0.67158 0.66323 0.0
C1958 C 0.39818 0.65671 0.71251 0.0
C1959 C 0.41078 0.65235 0.74072 0.0
C1960 C 0.38434 0.67956 0.71784 0.0
C1961 C 0.40972 0.67215 0.77355 0.0
C1962 C 0.39581 0.69391 0.77952 0.0
C1963 C 0.36876 0.71863 0.75853 0.0
C1964 C 0.35677 0.72569 0.72973 0.0
C1965 C 0.38289 0.69722 0.75222 0.0
C1966 C 0.35821 0.70798 0.69559 0.0
C1967 C 0.37169 0.68462 0.68997 0.0
H1968 H 0.37939 0.12885 0.72024 0.0
H1969 H 0.352 0.07637 0.80768 0.0
H1970 H 0.37592 0.03663 0.81487 0.0
H1971 H 0.40495 0.01929 0.7993 0.0
H1972 H 0.42998 0.06096 0.7018 0.0
H1973 H 0.40759 0.10517 0.698 0.0
C1974 C 0.37843 0.10778 0.73967 0.0
C1975 C 0.36379 0.10494 0.76287 0.0
C1976 C 0.39222 0.08464 0.74329 0.0
C1977 C 0.36287 0.07832 0.78883 0.0
C1978 C 0.37672 0.05618 0.79355 0.0
C1979 C 0.40548 0.03763 0.77663 0.0
C1980 C 0.419 0.03602 0.75025 0.0
C1981 C 0.39155 0.05964 0.77152 0.0
C1982 C 0.41983 0.06135 0.72254 0.0
C1983 C 0.40677 0.08609 0.71979 0.0
H1984 H 0.02495 0.12785 0.90294 0.0
H1985 H 0.99717 0.18084 0.8156 0.0
H1986 H 0.99827 0.23307 0.85136 0.0
H1987 H 1.00575 0.26459 0.90916 0.0
H1988 H 0.03286 0.21221 0.99751 0.0
H1989 H 0.03352 0.16027 0.96009 0.0
C1990 C 0.01901 0.1507 0.89191 0.0
C1991 C 1.01089 0.14972 0.85646 0.0
C1992 C 0.01962 0.18147 0.91291 0.0
C1993 C 1.00354 0.18018 0.84268 0.0
C1994 C 1.00414 0.21048 0.86317 0.0
C1995 C 1.01205 0.242 0.9199 0.0
C1996 C 0.01918 0.24252 0.95621 0.0
C1997 C 1.01204 0.21157 0.89845 0.0
C1998 C 0.02714 0.21266 0.96972 0.0
C1999 C 0.02748 0.18271 0.94836 0.0
H2000 H 0.26787 0.05734 0.97951 0.0
H2001 H 0.25167 0.97957 0.9015 0.0
H2002 H 0.2506 0.02166 0.85096 0.0
H2003 H 0.25439 0.08082 0.82888 0.0
H2004 H 0.27093 0.15788 0.90754 0.0
H2005 H 0.27168 0.11583 0.95767 0.0
C2006 C 0.2641 0.04947 0.95147 0.0
C2007 C 0.25989 0.01518 0.94446 0.0
C2008 C 0.26359 0.07377 0.92252 0.0
C2009 C 0.25511 1.00564 0.90778 0.0
C2010 C 0.25446 0.02976 0.87883 0.0
C2011 C 0.25825 0.08842 0.85693 0.0
C2012 C 0.26268 0.12265 0.86418 0.0
C2013 C 0.25872 0.06393 0.88584 0.0
C2014 C 0.2674 0.13192 0.90095 0.0
C2015 C 0.26788 0.1078 0.92972 0.0
H2016 H 0.99228 0.12977 0.3585 0.0
H2017 H 0.03945 0.10956 0.41807 0.0
H2018 H 0.04414 0.05817 0.38048 0.0
H2019 H 0.03459 0.01813 0.33029 0.0
H2020 H 0.98757 0.03928 0.2703 0.0
H2021 H 0.98289 0.09021 0.30834 0.0
C2022 C 1.00375 0.11446 0.36257 0.0
C2023 C 0.01575 0.12397 0.39027 0.0
C2024 C 1.0062 0.08449 0.34117 0.0
C2025 C 0.03026 0.10321 0.39622 0.0
C2026 C 0.03285 0.07359 0.37498 0.0
C2027 C 0.02321 0.03365 0.32608 0.0
C2028 C 1.01128 0.02462 0.29791 0.0
C2029 C 0.02083 0.06371 0.34751 0.0
C2030 C 0.99682 0.04549 0.29209 0.0
C2031 C 0.9942 0.0748 0.31367 0.0
H2032 H 0.23855 0.14685 0.37175 0.0
H2033 H 0.29295 0.15277 0.39428 0.0
H2034 H 0.29493 0.20505 0.35767 0.0
H2035 H 0.28125 0.25009 0.31943 0.0
H2036 H 0.22696 0.24475 0.29619 0.0
H2037 H 0.22477 0.19223 0.33288 0.0
C2038 C 0.25088 0.15915 0.36776 0.0
C2039 C 0.26571 0.1452 0.3849 0.0
C2040 C 0.25186 0.19007 0.34728 0.0
C2041 C 0.28145 0.16237 0.38064 0.0
C2042 C 0.28256 0.19258 0.36005 0.0
C2043 C 0.26888 0.23786 0.32328 0.0
C2044 C 0.25416 0.25206 0.30625 0.0
C2045 C 0.26784 0.207 0.34361 0.0
C2046 C 0.23837 0.235 0.31008 0.0
C2047 C 0.23717 0.20465 0.33066 0.0
H2048 H 0.03847 0.86526 0.12452 0.0
H2049 H 0.98449 0.87346 0.14992 0.0
H2050 H 0.97843 0.82289 0.11187 0.0
H2051 H 0.98841 0.77679 0.06961 0.0
H2052 H 0.04199 0.77145 0.03982 0.0
H2053 H 0.04833 0.82004 0.0808 0.0
C2054 C 0.0254 0.856 0.12142 0.0
C2055 C 1.0119 0.8732 0.13963 0.0
C2056 C 0.02196 0.82723 0.09872 0.0
C2057 C 0.99503 0.86089 0.13564 0.0
C2058 C 0.99157 0.83187 0.11406 0.0
C2059 C 1.00148 0.78609 0.07261 0.0
C2060 C 0.0148 0.77023 0.05244 0.0
C2061 C 1.00491 0.81483 0.09531 0.0
C2062 C 0.03161 0.78297 0.05566 0.0
C2063 C 0.03521 0.81086 0.07893 0.0
H2064 H 0.74844 0.01422 0.08594 0.0
H2065 H 0.78716 0.97306 0.01246 0.0
H2066 H 0.78829 0.92087 0.04955 0.0
H2067 H 0.77755 0.88539 0.10232 0.0
H2068 H 0.73763 0.92615 0.17341 0.0
H2069 H 0.73763 0.97885 0.13809 0.0
C2070 C 0.75727 0.994 0.07836 0.0
C2071 C 0.76778 0.99785 0.04649 0.0
C2072 C 0.75749 0.96334 0.09928 0.0
C2073 C 0.77891 0.97094 0.0368 0.0
C2074 C 0.77953 0.9409 0.05798 0.0
C2075 C 0.76875 0.90564 0.1099 0.0
C2076 C 0.75765 0.90129 0.14089 0.0
C2077 C 0.76869 0.93646 0.08906 0.0
C2078 C 0.74649 0.92837 0.15014 0.0
C2079 C 0.74644 0.95882 0.12985 0.0
H2080 H 1.00442 0.92373 0.58732 0.0
H2081 H 0.03546 0.86009 0.65869 0.0
H2082 H 0.03596 0.90464 0.70705 0.0
H2083 H 0.02749 0.96184 0.72904 0.0
H2084 H 0.99655 0.02567 0.65721 0.0
H2085 H 0.99584 0.981 0.60941 0.0
C2086 C 1.01125 0.91975 0.61354 0.0
C2087 C 0.01987 0.88878 0.61967 0.0
C2088 C 1.01141 0.94548 0.64118 0.0
C2089 C 0.02865 0.88369 0.65364 0.0
C2090 C 0.02895 0.90917 0.68119 0.0
C2091 C 0.0206 0.96597 0.70292 0.0
C2092 C 1.01219 0.99724 0.69673 0.0
C2093 C 0.02036 0.94018 0.67532 0.0
C2094 C 1.00335 1.00212 0.66261 0.0
C2095 C 1.00287 0.97649 0.63525 0.0
H2096 H 0.76106 0.80869 0.73307 0.0
H2097 H 0.76567 0.73096 0.64805 0.0
H2098 H 0.76425 0.77427 0.59899 0.0
H2099 H 0.76133 0.83464 0.57973 0.0
H2100 H 0.75728 0.9121 0.66522 0.0
H2101 H 0.7587 0.86872 0.714 0.0
C2102 C 0.76179 0.80109 0.70384 0.0
C2103 C 0.7634 0.76625 0.69462 0.0
C2104 C 0.76094 0.82627 0.67554 0.0
C2105 C 0.76433 0.75732 0.65633 0.0
C2106 C 0.76351 0.7822 0.6281 0.0
C2107 C 0.76066 0.84208 0.60901 0.0
C2108 C 0.75908 0.87692 0.61848 0.0
C2109 C 0.7617 0.8168 0.63729 0.0
C2110 C 0.75849 0.88574 0.65679 0.0
C2111 C 0.75931 0.86084 0.68486 0.0
H2112 H 1.00405 0.76255 0.41567 0.0
H2113 H 0.04313 0.71783 0.48591 0.0
H2114 H 0.04288 0.66613 0.44768 0.0
H2115 H 0.03078 0.6323 0.39483 0.0
H2116 H 0.99097 0.67709 0.32618 0.0
H2117 H 0.99207 0.72906 0.36308 0.0
C2118 C 1.01272 0.74172 0.42206 0.0
C2119 C 0.02376 0.74423 0.45324 0.0
C2120 C 1.01211 0.71146 0.4006 0.0
C2121 C 0.03462 0.71663 0.46179 0.0
C2122 C 0.03438 0.68689 0.44011 0.0
C2123 C 0.02217 0.65322 0.38842 0.0
C2124 C 1.01071 0.65044 0.35785 0.0
C2125 C 0.02296 0.68365 0.40975 0.0
C2126 C 0.9999 0.67828 0.34956 0.0
C2127 C 1.00056 0.70826 0.37057 0.0
H2128 H 0.24132 0.63106 0.39172 0.0
H2129 H 0.28596 0.59874 0.32993 0.0
H2130 H 0.28867 0.5483 0.36962 0.0
H2131 H 0.27775 0.51187 0.42078 0.0
H2132 H 0.2341 0.5456 0.48509 0.0
H2133 H 0.23129 0.59603 0.44538 0.0
C2134 C 0.25173 0.61314 0.38735 0.0
C2135 C 0.26336 0.61844 0.35771 0.0
C2136 C 0.25314 0.58387 0.41025 0.0
C2137 C 0.27673 0.59491 0.35222 0.0
C2138 C 0.27826 0.56601 0.37486 0.0
C2139 C 0.26754 0.53013 0.42576 0.0
C2140 C 0.25599 0.52475 0.45547 0.0
C2141 C 0.26636 0.5598 0.40353 0.0
C2142 C 0.24307 0.54906 0.46219 0.0
C2143 C 0.24151 0.57802 0.43959 0.0
H2144 H 0.02829 0.50891 0.8437 0.0
H2145 H 0.9991 0.55432 0.7536 0.0
H2146 H 0.99593 0.60655 0.78952 0.0
H2147 H 1.0015 0.64061 0.84669 0.0
H2148 H 0.0299 0.59524 0.93777 0.0
H2149 H 0.03354 0.54292 0.90164 0.0
C2150 C 0.0211 0.5301 0.83217 0.0
C2151 C 0.014 0.52745 0.79582 0.0
C2152 C 0.01942 0.56074 0.85303 0.0
C2153 C 1.00485 0.55551 0.78134 0.0
C2154 C 1.00304 0.58563 0.80185 0.0
C2155 C 1.00873 0.61948 0.85827 0.0
C2156 C 0.01561 0.62217 0.89471 0.0
C2157 C 1.01042 0.58884 0.83758 0.0
C2158 C 0.02457 0.59405 0.90964 0.0
C2159 C 0.02659 0.56392 0.88905 0.0
H2160 H 0.27414 0.68049 0.91533 0.0
H2161 H 0.24751 0.60971 0.84291 0.0
H2162 H 0.24307 0.65479 0.79665 0.0
H2163 H 0.24736 0.71415 0.77558 0.0
H2164 H 0.27293 0.78543 0.84904 0.0
H2165 H 0.27705 0.74051 0.89577 0.0
C2166 C 0.26751 0.67464 0.88929 0.0
C2167 C 0.26154 0.64106 0.88261 0.0
C2168 C 0.26474 0.701 0.86284 0.0
C2169 C 0.25254 0.6348 0.84891 0.0
C2170 C 0.24994 0.66074 0.82236 0.0
C2171 C 0.25381 0.71999 0.80185 0.0
C2172 C 0.25991 0.75344 0.80843 0.0
C2173 C 0.25608 0.6939 0.82884 0.0
C2174 C 0.26804 0.76024 0.84299 0.0
C2175 C 0.27049 0.73439 0.86973 0.0
H2176 H 1.00855 0.30599 0.52444 0.0
H2177 H 0.02028 0.2294 0.6071 0.0
H2178 H 0.02284 0.27362 0.65546 0.0
H2179 H 0.02229 0.33462 0.67397 0.0
H2180 H 1.00978 0.41006 0.5902 0.0
H2181 H 1.007 0.36571 0.54289 0.0
C2182 C 1.01171 0.29875 0.55294 0.0
C2183 C 0.01436 0.26417 0.56177 0.0
C2184 C 0.0131 0.32429 0.58057 0.0
C2185 C 0.01821 0.25566 0.59924 0.0
C2186 C 0.01972 0.28103 0.62696 0.0
C2187 C 0.01908 0.34146 0.64532 0.0
C2188 C 0.01653 0.37605 0.63586 0.0
C2189 C 0.01733 0.31554 0.6179 0.0
C2190 C 1.01204 0.38398 0.59856 0.0
C2191 C 1.0104 0.35852 0.57132 0.0
H2192 H 0.76614 0.4417 0.67615 0.0
H2193 H 0.76022 0.36013 0.59607 0.0
H2194 H 0.76026 0.40102 0.54462 0.0
H2195 H 0.76126 0.46045 0.52211 0.0
H2196 H 0.76693 0.54161 0.60297 0.0
H2197 H 0.76769 0.50048 0.65382 0.0
C2198 C 0.76469 0.43281 0.64753 0.0
C2199 C 0.76294 0.39777 0.64035 0.0
C2200 C 0.76461 0.45652 0.61795 0.0
C2201 C 0.76151 0.38687 0.60276 0.0
C2202 C 0.76149 0.4103 0.57317 0.0
C2203 C 0.76261 0.46918 0.55086 0.0
C2204 C 0.76391 0.50429 0.55845 0.0
C2205 C 0.7629 0.44527 0.5804 0.0
C2206 C 0.76573 0.51492 0.59603 0.0
C2207 C 0.76615 0.49137 0.62533 0.0
H2208 H 1.00096 0.46823 0.22314 0.0
H2209 H 0.03212 0.53424 0.15506 0.0
H2210 H 0.03559 0.48876 0.10856 0.0
H2211 H 0.02964 0.43013 0.08686 0.0
H2212 H 0.998 0.36476 0.15498 0.0
H2213 H 0.99447 0.41025 0.20102 0.0
C2214 C 1.00846 0.47271 0.19801 0.0
C2215 C 0.01632 0.50459 0.19262 0.0
C2216 C 1.01015 0.44662 0.17107 0.0
C2217 C 0.02582 0.51008 0.15973 0.0
C2218 C 0.02781 0.48405 0.13312 0.0
C2219 C 0.02199 0.4258 0.1118 0.0
C2220 C 0.0143 0.39375 0.11753 0.0
C2221 C 0.02003 0.45219 0.13842 0.0
C2222 C 1.00437 0.38881 0.15003 0.0
C2223 C 1.00226 0.41493 0.17638 0.0
H2224 H 0.77452 0.38735 0.14838 0.0
H2225 H 0.74392 0.33466 0.0662 0.0
H2226 H 0.7444 0.2831 0.104 0.0
H2227 H 0.75355 0.2525 0.16081 0.0
H2228 H 0.78135 0.30675 0.24702 0.0
H2229 H 0.7817 0.35778 0.20819 0.0
C2230 C 0.76782 0.3647 0.13901 0.0
C2231 C 0.75979 0.36435 0.10347 0.0
C2232 C 0.76763 0.33525 0.16189 0.0
C2233 C 0.75098 0.33485 0.09226 0.0
C2234 C 0.75105 0.30551 0.1142 0.0
C2235 C 0.75976 0.27542 0.17098 0.0
C2236 C 0.76758 0.2755 0.20661 0.0
C2237 C 0.75951 0.30518 0.1489 0.0
C2238 C 0.77529 0.30576 0.2196 0.0
C2239 C 0.77548 0.33512 0.1974 0.0
H2240 H 0.50386 0.26376 0.4144 0.0
H2241 H 0.54351 0.22172 0.48519 0.0
H2242 H 0.54372 0.16945 0.44806 0.0
H2243 H 0.53186 0.13416 0.39619 0.0
H2244 H 0.49163 0.17608 0.32661 0.0
H2245 H 0.49227 0.22889 0.36228 0.0
C2246 C 0.51282 0.24347 0.42104 0.0
C2247 C 0.52388 0.24697 0.45212 0.0
C2248 C 0.51251 0.21281 0.40012 0.0
C2249 C 0.53503 0.21989 0.46106 0.0
C2250 C 0.53505 0.18978 0.44003 0.0
C2251 C 0.52309 0.15468 0.38923 0.0
C2252 C 0.51165 0.15086 0.35875 0.0
C2253 C 0.52363 0.18557 0.40982 0.0
C2254 C 0.50061 0.17815 0.34983 0.0
C2255 C 0.50099 0.20858 0.37017 0.0
H2256 H 0.75357 1.00372 0.40649 0.0
H2257 H 0.76609 0.06176 0.50588 0.0
H2258 H 0.76759 0.11349 0.46924 0.0
H2259 H 0.76579 0.14346 0.40855 0.0
H2260 H 0.75348 0.08591 0.30888 0.0
H2261 H 0.75144 0.03399 0.34552 0.0
C2262 C 0.75669 0.02763 0.42005 0.0
C2263 C 0.75964 0.02841 0.4591 0.0
C2264 C 0.75752 0.05797 0.39864 0.0
C2265 C 0.7636 0.05997 0.47599 0.0
C2266 C 0.76449 0.08989 0.45502 0.0
C2267 C 0.76248 0.11966 0.39494 0.0
C2268 C 0.75993 0.11891 0.35584 0.0
C2269 C 0.76144 0.08938 0.4163 0.0
C2270 C 0.75576 0.08749 0.33884 0.0
C2271 C 0.75454 0.05755 0.35983 0.0
H2272 H 0.53016 0.10284 0.91162 0.0
H2273 H 0.49053 0.15793 0.85265 0.0
H2274 H 0.48869 0.1123 0.80572 0.0
H2275 H 0.49825 0.05652 0.78165 0.0
H2276 H 0.5379 1.00121 0.84043 0.0
H2277 H 0.5402 0.04734 0.8867 0.0
C2278 C 0.52132 0.10501 0.8881 0.0
C2279 C 0.51067 0.13397 0.88517 0.0
C2280 C 0.52039 0.07864 0.86123 0.0
C2281 C 0.49914 0.13636 0.85491 0.0
C2282 C 0.498 0.11011 0.82832 0.0
C2283 C 0.50735 0.05453 0.80471 0.0
C2284 C 0.51775 0.02527 0.80788 0.0
C2285 C 0.50852 0.08111 0.83122 0.0
C2286 C 0.52949 0.02307 0.83785 0.0
C2287 C 0.53089 0.04958 0.86412 0.0
H2288 H 0.7346 0.24086 0.81259 0.0
H2289 H 0.78857 0.26516 0.80974 0.0
H2290 H 0.79499 0.21633 0.85022 0.0
H2291 H 0.78512 0.1667 0.88744 0.0
H2292 H 0.73112 0.14259 0.8903 0.0
H2293 H 0.72473 0.19142 0.84988 0.0
C2294 C 0.74771 0.2357 0.82142 0.0
C2295 C 0.76106 0.25709 0.80904 0.0
C2296 C 0.75127 0.20747 0.84471 0.0
C2297 C 0.77804 0.24971 0.81992 0.0
C2298 C 0.78172 0.22158 0.84277 0.0
C2299 C 0.77201 0.17192 0.87861 0.0
C2300 C 0.75864 0.15056 0.89097 0.0
C2301 C 0.76845 0.20023 0.85539 0.0
C2302 C 0.74166 0.15805 0.88019 0.0
C2303 C 0.738 0.18617 0.85735 0.0
H2304 H 0.51373 0.83837 0.6749 0.0
H2305 H 0.51977 0.91678 0.59148 0.0
H2306 H 0.51859 0.87404 0.54166 0.0
H2307 H 0.51604 0.81431 0.52131 0.0
H2308 H 0.50915 0.73588 0.60442 0.0
H2309 H 0.5104 0.77856 0.65431 0.0
C2310 C 0.51487 0.84617 0.64584 0.0
C2311 C 0.51699 0.88102 0.63723 0.0
C2312 C 0.51397 0.82134 0.61704 0.0
C2313 C 0.51816 0.89037 0.59921 0.0
C2314 C 0.51749 0.86585 0.57058 0.0
C2315 C 0.51481 0.8064 0.55031 0.0
C2316 C 0.51264 0.77156 0.55875 0.0
C2317 C 0.51543 0.83123 0.57909 0.0
C2318 C 0.51095 0.76225 0.59673 0.0
C2319 C 0.51164 0.78675 0.62544 0.0
H2320 H 0.26201 0.95918 0.52006 0.0
H2321 H 0.26099 0.04075 0.60126 0.0
H2322 H 0.26142 0.99947 0.65222 0.0
H2323 H 0.26157 0.94027 0.67436 0.0
H2324 H 0.26214 0.85853 0.59359 0.0
H2325 H 0.26254 0.89968 0.54236 0.0
C2326 C 0.26178 0.96803 0.5489 0.0
C2327 C 0.26137 1.00331 0.55651 0.0
C2328 C 0.26189 0.94403 0.57842 0.0
C2329 C 0.26122 0.01397 0.59425 0.0
C2330 C 0.26143 0.99031 0.62358 0.0
C2331 C 0.26159 0.93137 0.64564 0.0
C2332 C 0.26152 0.89611 0.63826 0.0
C2333 C 0.26165 0.95528 0.6161 0.0
C2334 C 0.26199 0.88534 0.60051 0.0
C2335 C 0.26222 0.90895 0.57103 0.0
H2336 H 0.50417 0.88041 0.15158 0.0
H2337 H 0.53418 0.93352 0.06836 0.0
H2338 H 0.53332 0.98488 0.1058 0.0
H2339 H 0.52462 0.01569 0.16286 0.0
H2340 H 0.49581 0.96299 0.24786 0.0
H2341 H 0.49547 0.91151 0.20929 0.0
C2342 C 0.51065 0.90309 0.14178 0.0
C2343 C 0.51932 0.90249 0.10701 0.0
C2344 C 0.51024 0.93315 0.16381 0.0
C2345 C 0.52744 0.93261 0.09488 0.0
C2346 C 0.52695 0.96236 0.11632 0.0
C2347 C 0.51817 0.99301 0.17278 0.0
C2348 C 0.51026 0.99333 0.20821 0.0
C2349 C 0.51841 0.96304 0.15083 0.0
C2350 C 0.5021 0.9635 0.22078 0.0
C2351 C 0.50192 0.93393 0.19872 0.0
H2352 H 0.25617 0.80614 0.23157 0.0
H2353 H 0.2752 0.73362 0.15049 0.0
H2354 H 0.27541 0.77784 0.10242 0.0
H2355 H 0.26934 0.83689 0.08251 0.0
H2356 H 0.25161 0.90994 0.16413 0.0
H2357 H 0.25167 0.86578 0.21257 0.0
C2358 C 0.2604 0.79981 0.20344 0.0
C2359 C 0.26549 0.76607 0.19493 0.0
C2360 C 0.26062 0.82558 0.1758 0.0
C2361 C 0.27108 0.75899 0.15816 0.0
C2362 C 0.27119 0.78438 0.1305 0.0
C2363 C 0.26548 0.8432 0.11092 0.0
C2364 C 0.26031 0.87682 0.11949 0.0
C2365 C 0.26583 0.8177 0.13886 0.0
C2366 C 0.25566 0.88447 0.15665 0.0
C2367 C 0.25565 0.85912 0.18437 0.0
H2368 H 0.50054 0.68105 0.83543 0.0
H2369 H 0.52504 0.60817 0.90867 0.0
H2370 H 0.52925 0.65252 0.95609 0.0
H2371 H 0.52544 0.71189 0.97749 0.0
H2372 H 0.50168 0.78484 0.90337 0.0
H2373 H 0.4977 0.74057 0.85574 0.0
C2374 C 0.50671 0.67464 0.86184 0.0
C2375 C 0.51216 0.64087 0.86852 0.0
C2376 C 0.50919 0.70038 0.88896 0.0
C2377 C 0.52035 0.63356 0.90287 0.0
C2378 C 0.52285 0.65903 0.92999 0.0
C2379 C 0.51937 0.71812 0.95091 0.0
C2380 C 0.51377 0.75174 0.94417 0.0
C2381 C 0.51721 0.69248 0.92348 0.0
C2382 C 0.50617 0.75934 0.90934 0.0
C2383 C 0.50382 0.73395 0.88212 0.0
H2384 H 0.74083 0.54469 0.96356 0.0
H2385 H 0.7844 0.49077 0.91836 0.0
H2386 H 0.78921 0.53653 0.87314 0.0
H2387 H 0.78074 0.59155 0.84512 0.0
H2388 H 0.73695 0.64552 0.88901 0.0
H2389 H 0.73221 0.60009 0.93502 0.0
C2390 C 0.7513 0.54293 0.9436 0.0
C2391 C 0.76214 0.51403 0.9441 0.0
C2392 C 0.75387 0.56937 0.91716 0.0
C2393 C 0.77567 0.51225 0.91811 0.0
C2394 C 0.77848 0.53858 0.89235 0.0
C2395 C 0.77024 0.59347 0.86498 0.0
C2396 C 0.75937 0.62225 0.86391 0.0
C2397 C 0.76763 0.56719 0.89142 0.0
C2398 C 0.74578 0.6242 0.88978 0.0
C2399 C 0.74299 0.59802 0.91593 0.0
H2400 H 0.49903 0.51524 0.33212 0.0
H2401 H 0.54396 0.54836 0.27214 0.0
H2402 H 0.54501 0.60061 0.3095 0.0
H2403 H 0.53256 0.63838 0.35877 0.0
H2404 H 0.48724 0.60505 0.41755 0.0
H2405 H 0.48674 0.55254 0.38119 0.0
C2406 C 0.50924 0.53359 0.32786 0.0
C2407 C 0.52159 0.52754 0.29985 0.0
C2408 C 0.50944 0.5643 0.34874 0.0
C2409 C 0.53443 0.55215 0.29391 0.0
C2410 C 0.53494 0.58227 0.31505 0.0
C2411 C 0.5224 0.61993 0.36299 0.0
C2412 C 0.50977 0.62614 0.39051 0.0
C2413 C 0.52234 0.58904 0.34221 0.0
C2414 C 0.49701 0.60128 0.39629 0.0
C2415 C 0.49677 0.57097 0.37567 0.0
H2416 H 0.7683 0.76545 0.34171 0.0
H2417 H 0.74587 0.70973 0.24947 0.0
H2418 H 0.7457 0.65796 0.2867 0.0
H2419 H 0.75242 0.62703 0.34591 0.0
H2420 H 0.77538 0.68324 0.43742 0.0
H2421 H 0.77484 0.73491 0.40064 0.0
C2422 C 0.76326 0.74207 0.32986 0.0
C2423 C 0.7572 0.74186 0.29256 0.0
C2424 C 0.76342 0.71176 0.35143 0.0
C2425 C 0.7508 0.71096 0.27789 0.0
C2426 C 0.75069 0.68106 0.29925 0.0
C2427 C 0.75748 0.65045 0.35761 0.0
C2428 C 0.76395 0.65066 0.39465 0.0
C2429 C 0.75717 0.68086 0.33602 0.0
C2430 C 0.77022 0.68179 0.40918 0.0
C2431 C 0.76994 0.71171 0.38809 0.0
H2432 H 0.50863 0.34078 0.1732 0.0
H2433 H 0.52653 0.41316 0.09131 0.0
H2434 H 0.52622 0.36904 0.04299 0.0
H2435 H 0.52084 0.31024 0.02363 0.0
H2436 H 0.50242 0.23746 0.10454 0.0
H2437 H 0.50287 0.28138 0.15339 0.0
C2438 C 0.5125 0.3469 0.14479 0.0
C2439 C 0.51763 0.38041 0.136 0.0
C2440 C 0.51214 0.32133 0.11688 0.0
C2441 C 0.52243 0.3878 0.09891 0.0
C2442 C 0.5223 0.36251 0.07123 0.0
C2443 C 0.51689 0.30384 0.05191 0.0
C2444 C 0.51164 0.27037 0.06022 0.0
C2445 C 0.51715 0.32924 0.07983 0.0
C2446 C 0.50664 0.26282 0.09722 0.0
C2447 C 0.50686 0.288 0.12522 0.0
H2448 H 0.25926 0.45907 0.0218 0.0
H2449 H 0.27115 0.53889 0.10087 0.0
H2450 H 0.27133 0.49768 0.15212 0.0
H2451 H 0.26767 0.43891 0.17499 0.0
H2452 H 0.25504 0.35948 0.09595 0.0
H2453 H 0.25564 0.40038 0.04463 0.0
C2454 C 0.26186 0.46751 0.05026 0.0
C2455 C 0.26513 0.5022 0.05732 0.0
C2456 C 0.26169 0.44368 0.07986 0.0
C2457 C 0.26843 0.51252 0.0945 0.0
C2458 C 0.26852 0.48892 0.12393 0.0
C2459 C 0.26481 0.4306 0.14667 0.0
C2460 C 0.26107 0.39605 0.13976 0.0
C2461 C 0.26503 0.45445 0.11705 0.0
C2462 C 0.25791 0.38578 0.10245 0.0
C2463 C 0.25822 0.40924 0.07293 0.0
H2464 H 0.52385 0.43345 0.58276 0.0
H2465 H 0.50559 0.35808 0.66109 0.0
H2466 H 0.50262 0.40165 0.70935 0.0
H2467 H 0.50579 0.46074 0.73012 0.0
H2468 H 0.52313 0.53685 0.65188 0.0
H2469 H 0.52582 0.49337 0.60294 0.0
C2470 C 0.51929 0.42645 0.61041 0.0
C2471 C 0.51518 0.39223 0.61819 0.0
C2472 C 0.51744 0.45179 0.63816 0.0
C2473 C 0.509 0.38399 0.65414 0.0
C2474 C 0.50728 0.40895 0.68188 0.0
C2475 C 0.51018 0.46791 0.70237 0.0
C2476 C 0.51441 0.50205 0.69486 0.0
C2477 C 0.51157 0.44286 0.6743 0.0
C2478 C 0.51982 0.51082 0.65853 0.0
C2479 C 0.5214 0.48593 0.63052 0.0
H2480 H 0.25189 0.25306 0.66128 0.0
H2481 H 0.2856 0.30022 0.74235 0.0
H2482 H 0.28662 0.35187 0.70467 0.0
H2483 H 0.27711 0.38519 0.6493 0.0
H2484 H 0.24228 0.33821 0.56996 0.0
H2485 H 0.24261 0.28605 0.60586 0.0
C2486 C 0.25963 0.27447 0.67042 0.0
C2487 C 0.26867 0.27249 0.70466 0.0
C2488 C 0.25985 0.30474 0.64894 0.0
C2489 C 0.27844 0.30086 0.71621 0.0
C2490 C 0.27902 0.33061 0.69466 0.0
C2491 C 0.26953 0.36365 0.63992 0.0
C2492 C 0.25968 0.36627 0.60666 0.0
C2493 C 0.26957 0.33316 0.66116 0.0
C2494 C 0.25005 0.33758 0.59522 0.0
C2495 C 0.2502 0.30736 0.61583 0.0
H2496 H 0.15259 0.30278 0.1938 0.0
H2497 H 0.18899 0.32141 0.10544 0.0
H2498 H 0.16782 0.30251 0.05874 0.0
H2499 H 0.13717 0.29993 0.04329 0.0
H2500 H 0.09968 0.29948 0.13203 0.0
H2501 H 0.12256 0.291 0.17835 0.0
C2502 C 0.15609 0.301 0.16437 0.0
C2503 C 0.17218 0.31371 0.15279 0.0
C2504 C 0.14323 0.29426 0.13777 0.0
C2505 C 0.17671 0.31166 0.11486 0.0
C2506 C 0.16446 0.30146 0.08822 0.0
C2507 C 0.13403 0.29628 0.07267 0.0
C2508 C 0.11687 0.30087 0.08444 0.0
C2509 C 0.14736 0.29548 0.09924 0.0
C2510 C 0.11277 0.296 0.12235 0.0
C2511 C 0.12592 0.29182 0.14886 0.0
H2512 H 0.13483 0.96876 0.19917 0.0
H2513 H 0.0923 0.96112 0.1217 0.0
H2514 H 0.11128 0.97632 0.06973 0.0
H2515 H 0.14069 0.97347 0.04568 0.0
H2516 H 0.1833 0.96663 0.12295 0.0
H2517 H 0.16397 0.97708 0.17555 0.0
C2518 C 0.12967 0.97163 0.171 0.0
C2519 C 0.11241 0.96301 0.16383 0.0
C2520 C 0.1409 0.97746 0.14117 0.0
C2521 C 0.10561 0.96736 0.12766 0.0
C2522 C 0.11651 0.97568 0.09796 0.0
C2523 C 0.14576 0.97591 0.07398 0.0
C2524 C 0.1632 0.96837 0.08075 0.0
C2525 C 0.13434 0.97817 0.10414 0.0
C2526 C 0.16988 0.9721 0.11716 0.0
C2527 C 0.15875 0.9774 0.14729 0.0
H2528 H 0.89526 0.71899 0.93632 0.0
H2529 H 0.93212 0.69961 0.84892 0.0
H2530 H 0.91048 0.71416 0.80134 0.0
H2531 H 0.87983 0.71286 0.78599 0.0
H2532 H 0.84247 0.71125 0.87491 0.0
H2533 H 0.86491 0.72586 0.92048 0.0
C2534 C 0.89867 0.71948 0.9068 0.0
C2535 C 0.91508 0.70789 0.89583 0.0
C2536 C 0.88565 0.72347 0.87997 0.0
C2537 C 0.91958 0.70849 0.85783 0.0
C2538 C 0.90709 0.71625 0.83074 0.0
C2539 C 0.87655 0.71747 0.81516 0.0
C2540 C 0.85966 0.71044 0.82737 0.0
C2541 C 0.88983 0.72101 0.84153 0.0
C2542 C 0.85535 0.71649 0.86494 0.0
C2543 C 0.86829 0.72411 0.89104 0.0
H2544 H 0.88685 0.05084 0.79439 0.0
H2545 H 0.92593 0.05157 0.88045 0.0
H2546 H 0.90398 0.04206 0.92832 0.0
H2547 H 0.87403 0.0518 0.94595 0.0
H2548 H 0.83592 0.06991 0.86032 0.0
H2549 H 0.85648 0.05226 0.81202 0.0
C2550 C 0.89056 0.04745 0.82355 0.0
C2551 C 0.90788 0.05247 0.83408 0.0
C2552 C 0.87773 0.04594 0.85101 0.0
C2553 C 0.9127 0.04777 0.87169 0.0
C2554 C 0.90008 0.04292 0.89908 0.0
C2555 C 0.87007 0.05035 0.91674 0.0
C2556 C 0.85366 0.06261 0.9064 0.0
C2557 C 0.88255 0.04459 0.88921 0.0
C2558 C 0.84847 0.06064 0.8688 0.0
C2559 C 0.86037 0.05118 0.84123 0.0
H2560 H 0.17525 0.80984 0.62576 0.0
H2561 H 0.15267 0.79425 0.73443 0.0
H2562 H 0.12465 0.78427 0.70567 0.0
H2563 H 0.10605 0.79975 0.65138 0.0
H2564 H 0.12898 0.80696 0.54188 0.0
H2565 H 0.15753 0.7997 0.56893 0.0
C2566 C 0.16453 0.80161 0.64292 0.0
C2567 C 0.16582 0.80394 0.68214 0.0
C2568 C 0.1484 0.79561 0.62607 0.0
C2569 C 0.15187 0.7929 0.70408 0.0
C2570 C 0.13571 0.78798 0.68768 0.0
C2571 C 0.11716 0.79721 0.63325 0.0
C2572 C 0.11553 0.80463 0.59494 0.0
C2573 C 0.13362 0.79209 0.64892 0.0
C2574 C 0.13002 0.80129 0.57157 0.0
C2575 C 0.14642 0.79769 0.58709 0.0
H2576 H 0.17383 0.46626 0.62601 0.0
H2577 H 0.14414 0.48849 0.52693 0.0
H2578 H 0.11809 0.49374 0.56433 0.0
H2579 H 0.10338 0.4725 0.62137 0.0
H2580 H 0.13336 0.4557 0.72153 0.0
H2581 H 0.15976 0.46845 0.68791 0.0
C2582 C 0.16192 0.47478 0.61305 0.0
C2583 C 0.16066 0.47587 0.57383 0.0
C2584 C 0.14694 0.47743 0.63479 0.0
C2585 C 0.14525 0.4872 0.55723 0.0
C2586 C 0.13025 0.48945 0.57853 0.0
C2587 C 0.11556 0.47382 0.63627 0.0
C2588 C 0.11661 0.46219 0.67331 0.0
C2589 C 0.13077 0.48174 0.61684 0.0
C2590 C 0.13242 0.46417 0.69265 0.0
C2591 C 0.14755 0.47112 0.67338 0.0
H2592 H 0.87809 0.2218 0.31507 0.0
H2593 H 0.84047 0.20344 0.40106 0.0
H2594 H 0.86145 0.21981 0.44934 0.0
H2595 H 0.89189 0.21989 0.46625 0.0
H2596 H 0.9302 0.21694 0.37929 0.0
H2597 H 0.90818 0.22982 0.33222 0.0
C2598 C 0.87437 0.22288 0.3444 0.0
C2599 C 0.85798 0.21106 0.35489 0.0
C2600 C 0.88704 0.22792 0.37174 0.0
C2601 C 0.85303 0.21246 0.39258 0.0
C2602 C 0.86514 0.22128 0.42007 0.0
C2603 C 0.89544 0.2238 0.43713 0.0
C2604 C 0.91246 0.21686 0.42593 0.0
C2605 C 0.88245 0.2263 0.41001 0.0
C2606 C 0.91717 0.22211 0.38845 0.0
C2607 C 0.90449 0.22874 0.36151 0.0
H2608 H 0.89124 0.5444 0.29683 0.0
H2609 H 0.93369 0.5527 0.37434 0.0
H2610 H 0.91434 0.54166 0.42685 0.0
H2611 H 0.88493 0.54796 0.45041 0.0
H2612 H 0.84248 0.55253 0.37245 0.0
H2613 H 0.86188 0.5393 0.32062 0.0
C2614 C 0.89632 0.54212 0.32514 0.0
C2615 C 0.91373 0.54995 0.33195 0.0
C2616 C 0.88488 0.53899 0.35523 0.0
C2617 C 0.92033 0.5468 0.36848 0.0
C2618 C 0.90918 0.54111 0.39854 0.0
C2619 C 0.87988 0.54457 0.4222 0.0
C2620 C 0.86242 0.55183 0.41499 0.0
C2621 C 0.89133 0.53989 0.39234 0.0
C2622 C 0.85587 0.54709 0.37863 0.0
C2623 C 0.86703 0.54006 0.34892 0.0
H2624 H 0.60977 0.2965 0.62831 0.0
H2625 H 0.63913 0.30822 0.52692 0.0
H2626 H 0.66586 0.30176 0.56194 0.0
H2627 H 0.6798 0.31129 0.62387 0.0
H2628 H 0.65103 0.29031 0.72413 0.0
H2629 H 0.62516 0.28011 0.68699 0.0
C2630 C 0.62192 0.29515 0.61349 0.0
C2631 C 0.62254 0.30414 0.5754 0.0
C2632 C 0.63738 0.29049 0.63376 0.0
C2633 C 0.6384 0.30183 0.55646 0.0
C2634 C 0.65376 0.2987 0.57659 0.0
C2635 C 0.66825 0.30198 0.6374 0.0
C2636 C 0.66714 0.30282 0.67674 0.0
C2637 C 0.65338 0.29564 0.61571 0.0
C2638 C 0.6521 0.29026 0.69381 0.0
C2639 C 0.63715 0.28513 0.6726 0.0
H2640 H 0.63185 0.96616 0.70705 0.0
H2641 H 0.59641 0.96494 0.61395 0.0
H2642 H 0.61993 0.97808 0.57082 0.0
H2643 H 0.65042 0.96924 0.55876 0.0
H2644 H 0.6849 0.94818 0.65063 0.0
H2645 H 0.66267 0.9654 0.69545 0.0
C2646 C 0.62928 0.9705 0.67746 0.0
C2647 C 0.61268 0.96415 0.66325 0.0
C2648 C 0.64309 0.97312 0.65272 0.0
C2649 C 0.60915 0.96972 0.62522 0.0
C2650 C 0.62267 0.97659 0.60063 0.0
C2651 C 0.65319 0.97002 0.58865 0.0
C2652 C 0.66898 0.95716 0.60182 0.0
C2653 C 0.63974 0.97532 0.6138 0.0
C2654 C 0.67277 0.95802 0.6402 0.0
C2655 C 0.65996 0.96733 0.66566 0.0
H2656 H 0.41951 0.72399 0.37125 0.0
H2657 H 0.38969 0.71921 0.47269 0.0
H2658 H 0.36315 0.72524 0.43677 0.0
H2659 H 0.34933 0.71227 0.37563 0.0
H2660 H 0.37876 0.72399 0.27442 0.0
H2661 H 0.40454 0.73622 0.31101 0.0
C2662 C 0.40732 0.72671 0.38569 0.0
C2663 C 0.40647 0.7201 0.42435 0.0
C2664 C 0.392 0.73048 0.36477 0.0
C2665 C 0.39058 0.72388 0.44278 0.0
C2666 C 0.37534 0.72676 0.42217 0.0
C2667 C 0.36104 0.72001 0.36154 0.0
C2668 C 0.36236 0.71581 0.32252 0.0
C2669 C 0.37589 0.7273 0.38291 0.0
C2670 C 0.37756 0.72653 0.3046 0.0
C2671 C 0.39244 0.73284 0.32557 0.0
H2672 H 0.38846 0.05121 0.29294 0.0
H2673 H 0.43102 0.04917 0.3708 0.0
H2674 H 0.41137 0.03594 0.42204 0.0
H2675 H 0.38223 0.04329 0.44631 0.0
H2676 H 0.34006 0.05994 0.36974 0.0
H2677 H 0.35899 0.04849 0.31648 0.0
C2678 C 0.39344 0.04652 0.32096 0.0
C2679 C 0.41103 0.05198 0.32841 0.0
C2680 C 0.38191 0.04237 0.35068 0.0
C2681 C 0.41752 0.04526 0.36444 0.0
C2682 C 0.40622 0.03827 0.39385 0.0
C2683 C 0.37709 0.04283 0.41793 0.0
C2684 C 0.35994 0.05286 0.41167 0.0
C2685 C 0.38837 0.03945 0.38765 0.0
C2686 C 0.35323 0.05219 0.3751 0.0
C2687 C 0.36413 0.0462 0.34468 0.0
H2688 H 0.63866 0.78997 0.2029 0.0
H2689 H 0.6824 0.80157 0.13008 0.0
H2690 H 0.66392 0.79448 0.0752 0.0
H2691 H 0.63513 0.80368 0.04965 0.0
H2692 H 0.59134 0.80587 0.12347 0.0
H2693 H 0.60963 0.78809 0.17602 0.0
C2694 C 0.64417 0.78924 0.17495 0.0
C2695 C 0.66169 0.79712 0.1703 0.0
C2696 C 0.63322 0.78872 0.14368 0.0
C2697 C 0.66892 0.7957 0.13429 0.0
C2698 C 0.65827 0.79233 0.10288 0.0
C2699 C 0.62955 0.79914 0.07708 0.0
C2700 C 0.61211 0.8069 0.08321 0.0
C2701 C 0.64034 0.79174 0.10741 0.0
C2702 C 0.60479 0.80036 0.11836 0.0
C2703 C 0.61529 0.79055 0.14839 0.0
H2704 H 0.64701 0.46657 0.04585 0.0
H2705 H 0.68722 0.45446 0.1282 0.0
H2706 H 0.66713 0.47025 0.17805 0.0
H2707 H 0.63708 0.46967 0.19859 0.0
H2708 H 0.5964 0.46468 0.11633 0.0
H2709 H 0.61723 0.47463 0.06625 0.0
C2710 C 0.6515 0.46899 0.07461 0.0
C2711 C 0.66849 0.45892 0.08349 0.0
C2712 C 0.63944 0.47418 0.10327 0.0
C2713 C 0.67427 0.46213 0.12065 0.0
C2714 C 0.66265 0.47051 0.14921 0.0
C2715 C 0.63274 0.47212 0.16974 0.0
C2716 C 0.6153 0.46572 0.16102 0.0
C2717 C 0.64501 0.47396 0.14101 0.0
C2718 C 0.60971 0.46943 0.12378 0.0
C2719 C 0.62171 0.47449 0.09509 0.0
H2720 H 0.38618 0.21468 0.95323 0.0
H2721 H 0.42898 0.21751 0.8767 0.0
H2722 H 0.4093 0.22876 0.82454 0.0
H2723 H 0.38024 0.21987 0.79945 0.0
H2724 H 0.33802 0.20325 0.87527 0.0
H2725 H 0.35672 0.21615 0.9287 0.0
C2726 C 0.39121 0.2191 0.92528 0.0
C2727 C 0.40894 0.21446 0.91861 0.0
C2728 C 0.3797 0.22227 0.89508 0.0
C2729 C 0.41541 0.2208 0.88257 0.0
C2730 C 0.40409 0.22665 0.85262 0.0
C2731 C 0.37501 0.22056 0.82765 0.0
C2732 C 0.35789 0.20998 0.83354 0.0
C2733 C 0.38622 0.22481 0.85825 0.0
C2734 C 0.35112 0.21126 0.86999 0.0
C2735 C 0.36193 0.21805 0.9006 0.0
H2736 H 0.37745 0.52135 0.93003 0.0
H2737 H 0.35068 0.61494 0.90542 0.0
H2738 H 0.36988 0.62589 0.85346 0.0
H2739 H 0.39551 0.61248 0.82051 0.0
H2740 H 0.41929 0.51373 0.83087 0.0
H2741 H 0.40042 0.50143 0.88487 0.0
C2742 C 0.37535 0.54306 0.9119 0.0
C2743 C 0.36264 0.56721 0.92109 0.0
C2744 C 0.38613 0.5487 0.88081 0.0
C2745 C 0.36012 0.59571 0.89811 0.0
C2746 C 0.3713 0.60236 0.86898 0.0
C2747 C 0.3962 0.58739 0.83301 0.0
C2748 C 0.40838 0.56353 0.82049 0.0
C2749 C 0.38452 0.57948 0.86086 0.0
C2750 C 0.40988 0.53244 0.8396 0.0
C2751 C 0.39898 0.52531 0.8701 0.0
H2752 H 0.0345 0.45152 0.01669 0.0
H2753 H 0.9894 0.44702 0.94599 0.0
H2754 H 0.98448 0.50791 0.95559 0.0
H2755 H 0.99235 0.56189 0.98622 0.0
H2756 H 0.03742 0.56645 0.05694 0.0
H2757 H 0.04295 0.50601 0.04548 0.0
C2758 C 0.02376 0.46401 0.00288 0.0
C2759 C 1.01239 0.44491 0.98037 0.0
C2760 C 0.02076 0.4988 0.00936 0.0
C2761 C 0.99834 0.46127 0.96331 0.0
C2762 C 0.99547 0.49599 0.96902 0.0
C2763 C 1.00318 0.54945 0.99973 0.0
C2764 C 0.01428 0.56836 0.02306 0.0
C2765 C 1.00639 0.51485 0.9926 0.0
C2766 C 0.0286 0.55225 0.0393 0.0
C2767 C 0.03177 0.51776 0.03267 0.0
H2768 H 0.28191 0.70859 0.0266 0.0
H2769 H 0.23238 0.69504 0.97327 0.0
H2770 H 0.23139 0.7554 0.958 0.0
H2771 H 0.2445 0.81196 0.9601 0.0
H2772 H 0.29414 0.8252 0.01299 0.0
H2773 H 0.29528 0.76477 0.0275 0.0
C2774 C 0.2708 0.71887 0.01199 0.0
C2775 C 0.25717 0.69742 0.00146 0.0
C2776 C 0.27045 0.7534 0.00268 0.0
C2777 C 0.24295 0.7111 0.98221 0.0
C2778 C 0.24244 0.74554 0.97312 0.0
C2779 C 0.25568 0.80152 0.97431 0.0
C2780 C 0.26924 0.82298 0.98524 0.0
C2781 C 0.25615 0.76686 0.98306 0.0
C2782 C 0.28362 0.80915 0.00376 0.0
C2783 C 0.28421 0.77466 0.01247 0.0
H2784 H 0.98984 0.71128 0.2434 0.0
H2785 H 0.04407 0.70376 0.21878 0.0
H2786 H 0.04779 0.76389 0.2339 0.0
H2787 H 0.03565 0.81851 0.25378 0.0
H2788 H 0.98135 0.82646 0.27734 0.0
H2789 H 0.97772 0.76591 0.26378 0.0
C2790 C 1.00243 0.7229 0.24076 0.0
C2791 C 0.01662 0.70318 0.22944 0.0
C2792 C 1.00452 0.75734 0.25006 0.0
C2793 C 0.03291 0.71848 0.22703 0.0
C2794 C 0.03507 0.75278 0.23594 0.0
C2795 C 0.02306 0.8069 0.25659 0.0
C2796 C 1.0088 0.82685 0.26695 0.0
C2797 C 0.021 0.77238 0.24772 0.0
C2798 C 0.99254 0.81154 0.2697 0.0
C2799 C 0.99044 0.77702 0.26166 0.0
H2800 H 0.24795 0.53625 0.18655 0.0
H2801 H 0.2826 0.58911 0.26119 0.0
H2802 H 0.28449 0.5384 0.3007 0.0
H2803 H 0.27624 0.47977 0.31438 0.0
H2804 H 0.2411 0.42669 0.24089 0.0
H2805 H 0.23953 0.47699 0.20039 0.0
C2806 C 0.25574 0.53703 0.21185 0.0
C2807 C 0.26516 0.56689 0.22082 0.0
C2808 C 0.2567 0.50772 0.23451 0.0
C2809 C 0.27511 0.56707 0.25368 0.0
C2810 C 0.27621 0.53793 0.27625 0.0
C2811 C 0.26827 0.47887 0.28935 0.0
C2812 C 0.25896 0.44889 0.2806 0.0
C2813 C 0.26713 0.50814 0.26683 0.0
C2814 C 0.2487 0.44873 0.24809 0.0
C2815 C 0.24761 0.47782 0.22523 0.0
H2816 H 0.78038 0.29084 0.94171 0.0
H2817 H 0.73643 0.33615 0.99584 0.0
H2818 H 0.73239 0.28417 0.03264 0.0
H2819 H 0.74202 0.22709 0.05133 0.0
H2820 H 0.7855 0.18077 0.99636 0.0
H2821 H 0.78894 0.23185 0.95754 0.0
C2822 C 0.7701 0.2897 0.9622 0.0
C2823 C 0.75905 0.31813 0.96688 0.0
C2824 C 0.76774 0.25946 0.98282 0.0
C2825 C 0.74553 0.31556 0.99264 0.0
C2826 C 0.74309 0.28553 0.01328 0.0
C2827 C 0.75214 0.22785 0.03046 0.0
C2828 C 0.76346 0.1998 0.02679 0.0
C2829 C 0.75419 0.25752 0.00885 0.0
C2830 C 0.77644 0.20145 0.99953 0.0
C2831 C 0.77855 0.23098 0.97774 0.0
H2832 H 0.99086 0.31848 0.73217 0.0
H2833 H 0.03701 0.3191 0.79999 0.0
H2834 H 0.0403 0.25792 0.79045 0.0
H2835 H 0.03043 0.20466 0.76177 0.0
H2836 H 0.98408 0.20374 0.69478 0.0
H2837 H 0.98071 0.26502 0.7044 0.0
C2838 C 1.0015 0.3052 0.74539 0.0
C2839 C 0.0136 0.32334 0.76705 0.0
C2840 C 1.00349 0.27018 0.73921 0.0
C2841 C 0.02745 0.30573 0.78343 0.0
C2842 C 0.02942 0.2708 0.77773 0.0
C2843 C 0.01974 0.21796 0.74875 0.0
C2844 C 1.00766 0.19987 0.72701 0.0
C2845 C 0.01765 0.25289 0.75526 0.0
C2846 C 0.99362 0.21725 0.71124 0.0
C2847 C 0.99164 0.25219 0.71697 0.0
H2848 H 0.74558 0.53828 0.69125 0.0
H2849 H 0.78282 0.59144 0.75956 0.0
H2850 H 0.78559 0.54113 0.79986 0.0
H2851 H 0.77798 0.48176 0.8143 0.0
H2852 H 0.74121 0.42846 0.74487 0.0
H2853 H 0.73816 0.47902 0.70533 0.0
C2854 C 0.75425 0.53913 0.71516 0.0
C2855 C 0.76388 0.56898 0.72247 0.0
C2856 C 0.75611 0.50982 0.73737 0.0
C2857 C 0.77498 0.56936 0.75362 0.0
C2858 C 0.77672 0.54035 0.77634 0.0
C2859 C 0.76938 0.48094 0.79028 0.0
C2860 C 0.75997 0.45087 0.78239 0.0
C2861 C 0.7675 0.51035 0.76815 0.0
C2862 C 0.74887 0.45064 0.75128 0.0
C2863 C 0.74694 0.47984 0.72901 0.0
H2864 H 0.99437 0.05339 0.53457 0.0
H2865 H 0.04451 0.0703 0.4862 0.0
H2866 H 0.04681 0.01021 0.47049 0.0
H2867 H 0.03502 0.95254 0.47198 0.0
H2868 H 0.98495 0.93538 0.52056 0.0
H2869 H 0.98216 0.99585 0.53426 0.0
C2870 C 1.00587 0.04385 0.52094 0.0
C2871 C 0.01936 0.06622 0.51224 0.0
C2872 C 1.00708 1.00924 0.51167 0.0
C2873 C 0.03408 0.05355 0.49403 0.0
C2874 C 0.03535 0.0192 0.48467 0.0
C2875 C 0.02338 0.96206 0.48507 0.0
C2876 C 1.01023 0.9394 0.49517 0.0
C2877 C 0.02196 0.9968 0.49345 0.0
C2878 C 0.99525 0.95223 0.51221 0.0
C2879 C 0.99369 0.98681 0.52038 0.0
H2880 H 0.23967 0.31825 0.50009 0.0
H2881 H 0.29273 0.32463 0.46571 0.0
H2882 H 0.29648 0.26382 0.4778 0.0
H2883 H 0.28472 0.20918 0.49899 0.0
H2884 H 0.23176 0.20323 0.53437 0.0
H2885 H 0.22806 0.26396 0.52222 0.0
C2886 C 0.25198 0.30623 0.49469 0.0
C2887 C 0.26586 0.32573 0.48147 0.0
C2888 C 0.25416 0.27161 0.50281 0.0
C2889 C 0.28184 0.30999 0.47551 0.0
C2890 C 0.28401 0.27534 0.4827 0.0
C2891 C 0.27245 0.22129 0.50461 0.0
C2892 C 0.25856 0.20186 0.51791 0.0
C2893 C 0.27032 0.256 0.49677 0.0
C2894 C 0.24265 0.21774 0.52432 0.0
C2895 C 0.24049 0.25237 0.51712 0.0
H2896 H 0.27769 0.98118 0.81256 0.0
H2897 H 0.24059 0.92819 0.74367 0.0
H2898 H 0.23665 0.97963 0.70581 0.0
H2899 H 0.24387 0.03929 0.69223 0.0
H2900 H 0.2816 0.09179 0.75984 0.0
H2901 H 0.28471 0.04105 0.79935 0.0
C2902 C 0.26882 0.98058 0.78899 0.0
C2903 C 0.25957 0.95033 0.78086 0.0
C2904 C 0.26655 0.01039 0.76765 0.0
C2905 C 0.2481 0.9505 0.75037 0.0
C2906 C 0.2457 0.98018 0.72901 0.0
C2907 C 0.25276 0.03986 0.71575 0.0
C2908 C 0.2625 0.06965 0.72295 0.0
C2909 C 0.25485 0.01021 0.73744 0.0
C2910 C 0.27378 0.06971 0.75377 0.0
C2911 C 0.27573 0.04042 0.77601 0.0
H2912 H 0.78724 0.71199 0.50909 0.0
H2913 H 0.73341 0.70623 0.538 0.0
H2914 H 0.72973 0.76612 0.52201 0.0
H2915 H 0.74172 0.81981 0.49928 0.0
H2916 H 0.79566 0.82613 0.47184 0.0
H2917 H 0.79929 0.76586 0.48688 0.0
C2918 C 0.77475 0.72392 0.51246 0.0
C2919 C 0.76064 0.7047 0.525 0.0
C2920 C 0.77266 0.75818 0.50262 0.0
C2921 C 0.7445 0.7205 0.52865 0.0
C2922 C 0.74236 0.75466 0.51921 0.0
C2923 C 0.75421 0.80786 0.49589 0.0
C2924 C 0.76838 0.82719 0.48386 0.0
C2925 C 0.7563 0.77361 0.50575 0.0
C2926 C 0.78455 0.81159 0.48062 0.0
C2927 C 0.78665 0.77727 0.48953 0.0
H2928 H 0.74174 0.95056 0.23786 0.0
H2929 H 0.78961 0.94741 0.29919 0.0
H2930 H 0.7939 1.00826 0.2878 0.0
H2931 H 0.78434 0.06193 0.25877 0.0
H2932 H 0.73673 0.06457 0.19631 0.0
H2933 H 0.73233 1.00397 0.20842 0.0
C2934 C 0.753 0.96333 0.2491 0.0
C2935 C 0.76527 0.94473 0.26974 0.0
C2936 C 0.75565 0.99792 0.24124 0.0
C2937 C 0.77996 0.96136 0.28349 0.0
C2938 C 0.78246 0.99602 0.27672 0.0
C2939 C 0.77317 0.04907 0.24724 0.0
C2940 C 0.76098 0.06752 0.22615 0.0
C2941 C 0.77053 0.01444 0.25511 0.0
C2942 C 0.74633 0.05078 0.21232 0.0
C2943 C 0.74375 0.01624 0.21949 0.0
H2944 H 0.4898 0.56153 0.49648 0.0
H2945 H 0.53997 0.57188 0.54751 0.0
H2946 H 0.54562 0.51154 0.53705 0.0
H2947 H 0.53647 0.45588 0.51305 0.0
H2948 H 0.48612 0.44478 0.46329 0.0
H2949 H 0.48051 0.50546 0.47287 0.0
C2950 C 0.50186 0.55046 0.50588 0.0
C2951 C 0.51439 0.57115 0.52315 0.0
C2952 C 0.50513 0.51575 0.49929 0.0
C2953 C 0.53008 0.55651 0.53437 0.0
C2954 C 0.53337 0.52204 0.52816 0.0
C2955 C 0.52437 0.46685 0.50376 0.0
C2956 C 0.51181 0.446 0.48698 0.0
C2957 C 0.52106 0.50148 0.51036 0.0
C2958 C 0.49603 0.46041 0.476 0.0
C2959 C 0.49279 0.49503 0.4817 0.0
H2960 H 0.53385 0.70894 0.77228 0.0
H2961 H 0.48863 0.70519 0.70161 0.0
H2962 H 0.4839 0.76588 0.71148 0.0
H2963 H 0.49256 0.81969 0.74014 0.0
H2964 H 0.53798 0.8238 0.81012 0.0
H2965 H 0.54246 0.76283 0.80122 0.0
C2966 C 0.52312 0.72149 0.75853 0.0
C2967 C 0.5117 0.70272 0.73594 0.0
C2968 C 0.5203 0.75618 0.76486 0.0
C2969 C 0.49767 0.7192 0.7189 0.0
C2970 C 0.49487 0.7538 0.72479 0.0
C2971 C 0.50325 0.80716 0.75407 0.0
C2972 C 0.51481 0.82609 0.77612 0.0
C2973 C 0.50601 0.77243 0.74798 0.0
C2974 C 0.52881 0.80963 0.79331 0.0
C2975 C 0.53147 0.77489 0.78794 0.0
H2976 H 0.4938 0.20614 0.26298 0.0
H2977 H 0.5374 0.20563 0.18853 0.0
H2978 H 0.54151 0.26668 0.19912 0.0
H2979 H 0.53328 0.31965 0.23136 0.0
H2980 H 0.48982 0.32012 0.30623 0.0
H2981 H 0.4854 0.25926 0.29484 0.0
C2982 C 0.50405 0.21953 0.2487 0.0
C2983 C 0.5152 0.2016 0.22467 0.0
C2984 C 0.50664 0.25431 0.25592 0.0
C2985 C 0.52864 0.21904 0.20696 0.0
C2986 C 0.53105 0.25382 0.21324 0.0
C2987 C 0.52302 0.30628 0.24563 0.0
C2988 C 0.51205 0.32412 0.27015 0.0
C2989 C 0.52032 0.27158 0.23817 0.0
C2990 C 0.49849 0.30676 0.28756 0.0
C2991 C 0.49591 0.27208 0.28084 0.0
H2992 H 0.49004 0.05965 0.01923 0.0
H2993 H 0.54497 0.07331 0.0094 0.0
H2994 H 0.54839 0.01334 0.99357 0.0
H2995 H 0.53579 0.95717 0.98183 0.0
H2996 H 0.48087 0.94355 0.99181 0.0
H2997 H 0.47746 1.0035 0.00777 0.0
C2998 C 0.50279 0.04946 0.01411 0.0
C2999 C 0.51723 0.07095 0.0158 0.0
C3000 C 0.50466 0.01506 0.00444 0.0
C3001 C 0.53363 0.05731 0.00867 0.0
C3002 C 0.5356 0.02305 0.9993 0.0
C3003 C 0.52303 0.9674 0.9869 0.0
C3004 C 0.50858 0.94595 0.98515 0.0
C3005 C 0.52119 1.00178 0.99673 0.0
C3006 C 0.4922 0.95955 0.99254 0.0
C3007 C 0.49024 0.99379 0.00197 0.0
H3008 H 0.03613 0.07739 0.11528 0.0
H3009 H 0.98737 0.082 0.17272 0.0
H3010 H 0.98577 0.14305 0.16212 0.0
H3011 H 0.99799 0.19496 0.13598 0.0
H3012 H 0.04633 0.1907 0.07683 0.0
H3013 H 0.04828 0.12969 0.08842 0.0
C3014 C 0.02516 0.09186 0.12525 0.0
C3015 C 1.01184 0.07536 0.14431 0.0
C3016 C 0.02425 0.12695 0.11886 0.0
C3017 C 0.99765 0.09416 0.15727 0.0
C3018 C 0.99676 0.12908 0.1515 0.0
C3019 C 1.00902 0.18072 0.12593 0.0
C3020 C 0.0221 0.19729 0.10612 0.0
C3021 C 1.00996 0.1457 0.13228 0.0
C3022 C 0.03626 0.17856 0.09291 0.0
C3023 C 0.03733 0.14365 0.09923 0.0
H3024 H 0.27697 0.19501 0.12742 0.0
H3025 H 0.22536 0.18989 0.17162 0.0
H3026 H 0.22365 0.12994 0.15475 0.0
H3027 H 0.23673 0.0789 0.12757 0.0
H3028 H 0.28851 0.0835 0.08451 0.0
H3029 H 0.29021 0.14373 0.10067 0.0
C3030 C 0.2653 0.18085 0.13309 0.0
C3031 C 0.25124 0.19699 0.15037 0.0
C3032 C 0.26444 0.14628 0.12362 0.0
C3033 C 0.23627 0.17821 0.15783 0.0
C3034 C 0.23531 0.14387 0.14839 0.0
C3035 C 0.24838 0.09313 0.12182 0.0
C3036 C 0.26246 0.07687 0.10509 0.0
C3037 C 0.2493 0.12766 0.13131 0.0
C3038 C 0.27754 0.09544 0.09784 0.0
C3039 C 0.2785 0.12991 0.10687 0.0
H3040 H 0.98913 0.82935 0.8704 0.0
H3041 H 0.03976 0.83217 0.92022 0.0
H3042 H 0.04243 0.89236 0.90435 0.0
H3043 H 0.03019 0.94457 0.8764 0.0
H3044 H 0.97966 0.9406 0.82569 0.0
H3045 H 0.97728 0.88071 0.84146 0.0
C3046 C 1.00076 0.84314 0.87767 0.0
C3047 C 0.0142 0.82633 0.89635 0.0
C3048 C 1.00225 0.87767 0.86831 0.0
C3049 C 0.02926 0.84445 0.90543 0.0
C3050 C 0.03078 0.87894 0.89655 0.0
C3051 C 0.01861 0.93065 0.86906 0.0
C3052 C 1.00502 0.94732 0.85036 0.0
C3053 C 0.01731 0.89589 0.87806 0.0
C3054 C 0.99021 0.9287 0.84065 0.0
C3055 C 0.98884 0.89431 0.84948 0.0
H3056 H 0.78473 0.9243 0.92219 0.0
H3057 H 0.7395 0.95592 0.86096 0.0
H3058 H 0.73567 0.89784 0.83726 0.0
H3059 H 0.74548 0.83772 0.83371 0.0
H3060 H 0.79109 0.80764 0.89462 0.0
H3061 H 0.79426 0.86525 0.91915 0.0
C3062 C 0.77408 0.91866 0.90343 0.0
C3063 C 0.76253 0.94461 0.89311 0.0
C3064 C 0.77191 0.88527 0.89017 0.0
C3065 C 0.74865 0.93652 0.86926 0.0
C3066 C 0.74643 0.90326 0.85576 0.0
C3067 C 0.75603 0.8438 0.85258 0.0
C3068 C 0.76806 0.81839 0.86237 0.0
C3069 C 0.75798 0.87735 0.86608 0.0
C3070 C 0.78174 0.82673 0.8865 0.0
C3071 C 0.78357 0.85969 0.90052 0.0
H3072 H 0.03929 0.5788 0.62666 0.0
H3073 H 0.98582 0.58077 0.65919 0.0
H3074 H 0.98444 0.64154 0.64646 0.0
H3075 H 0.99841 0.69397 0.6263 0.0
H3076 H 0.05174 0.69206 0.59255 0.0
H3077 H 0.05319 0.63133 0.60583 0.0
C3078 C 0.02733 0.59254 0.63076 0.0
C3079 C 1.01269 0.57537 0.64359 0.0
C3080 C 0.02663 0.62747 0.62352 0.0
C3081 C 0.99724 0.59338 0.64884 0.0
C3082 C 0.99646 0.62817 0.64185 0.0
C3083 C 1.01041 0.68037 0.62221 0.0
C3084 C 0.02501 0.69756 0.60893 0.0
C3085 C 1.01109 0.64546 0.62933 0.0
C3086 C 0.0404 0.67951 0.60337 0.0
C3087 C 0.04121 0.64474 0.61066 0.0
H3088 H 0.2344 0.67358 0.66775 0.0
H3089 H 0.28454 0.69944 0.62458 0.0
H3090 H 0.28866 0.64089 0.60345 0.0
H3091 H 0.27811 0.58202 0.59817 0.0
H3092 H 0.22755 0.55704 0.63943 0.0
H3093 H 0.2236 0.61558 0.66087 0.0
C3094 C 0.24618 0.66652 0.65349 0.0
C3095 C 0.25911 0.69088 0.64779 0.0
C3096 C 0.24848 0.63286 0.64152 0.0
C3097 C 0.27433 0.68124 0.62926 0.0
C3098 C 0.27674 0.6477 0.61733 0.0
C3099 C 0.2663 0.58935 0.61223 0.0
C3100 C 0.25319 0.56522 0.61774 0.0
C3101 C 0.26396 0.62323 0.62364 0.0
C3102 C 0.23783 0.57518 0.63514 0.0
C3103 C 0.23555 0.60862 0.64727 0.0
H3104 H 0.0143 0.3572 0.44743 0.0
H3105 H 1.01036 0.3007 0.34393 0.0
H3106 H 1.00991 0.354 0.30825 0.0
H3107 H 1.00955 0.41651 0.30724 0.0
H3108 H 0.01599 0.47266 0.41044 0.0
H3109 H 0.01665 0.41936 0.44593 0.0
C3110 C 0.01332 0.35665 0.41703 0.0
C3111 C 1.01199 0.32541 0.39813 0.0
C3112 C 0.01348 0.38715 0.39694 0.0
C3113 C 1.01124 0.32467 0.35884 0.0
C3114 C 1.01095 0.35503 0.33858 0.0
C3115 C 1.01102 0.41699 0.33754 0.0
C3116 C 1.01231 0.44825 0.35652 0.0
C3117 C 1.01184 0.38638 0.35743 0.0
C3118 C 0.01477 0.44876 0.3955 0.0
C3119 C 0.01514 0.41839 0.41569 0.0
H3120 H 0.748 0.32552 0.38211 0.0
H3121 H 0.79723 0.33209 0.32678 0.0
H3122 H 0.79868 0.39259 0.34059 0.0
H3123 H 0.78653 0.44367 0.36967 0.0
H3124 H 0.73723 0.43829 0.42446 0.0
H3125 H 0.73533 0.37758 0.40997 0.0
C3126 C 0.75909 0.34017 0.37335 0.0
C3127 C 0.77266 0.32403 0.35409 0.0
C3128 C 0.75987 0.37526 0.38135 0.0
C3129 C 0.7868 0.34356 0.34244 0.0
C3130 C 0.78761 0.3783 0.3501 0.0
C3131 C 0.77534 0.42921 0.37829 0.0
C3132 C 0.76206 0.44546 0.39802 0.0
C3133 C 0.77431 0.39438 0.36978 0.0
C3134 C 0.74757 0.42645 0.40885 0.0
C3135 C 0.74652 0.39167 0.40075 0.0
H3136 H 0.53733 0.07755 0.61655 0.0
H3137 H 0.49013 0.0868 0.67926 0.0
H3138 H 0.48928 0.14767 0.66693 0.0
H3139 H 0.50184 0.19813 0.63797 0.0
H3140 H 0.54874 0.18904 0.57414 0.0
H3141 H 0.5498 0.12819 0.58712 0.0
C3142 C 0.52687 0.09298 0.62736 0.0
C3143 C 0.51379 0.07788 0.64847 0.0
C3144 C 0.52644 0.12792 0.62011 0.0
C3145 C 0.50023 0.0979 0.66237 0.0
C3146 C 0.49978 0.13271 0.65559 0.0
C3147 C 0.51239 0.18286 0.62728 0.0
C3148 C 0.52535 0.19801 0.60576 0.0
C3149 C 0.51282 0.14796 0.63451 0.0
C3150 C 0.53884 0.178 0.59163 0.0
C3151 C 0.53937 0.14319 0.59872 0.0
H3152 H 0.73511 0.08385 0.621 0.0
H3153 H 0.78972 0.08281 0.59918 0.0
H3154 H 0.79155 0.14303 0.61518 0.0
H3155 H 0.77768 0.1957 0.63633 0.0
H3156 H 0.72314 0.19626 0.65937 0.0
H3157 H 0.72126 0.1365 0.64162 0.0
C3158 C 0.74742 0.09678 0.61986 0.0
C3159 C 0.76224 0.07887 0.60923 0.0
C3160 C 0.74839 0.13136 0.62909 0.0
C3161 C 0.77812 0.09595 0.60776 0.0
C3162 C 0.77918 0.13044 0.61668 0.0
C3163 C 0.76534 0.18288 0.63712 0.0
C3164 C 0.75054 0.20048 0.649 0.0
C3165 C 0.76438 0.14837 0.62744 0.0
C3166 C 0.7347 0.18337 0.65012 0.0
C3167 C 0.73362 0.14915 0.64015 0.0
H3168 H 0.48857 0.94305 0.37994 0.0
H3169 H 0.54116 0.94146 0.34156 0.0
H3170 H 0.54336 0.8811 0.35694 0.0
H3171 H 0.53028 0.82869 0.38163 0.0
H3172 H 0.47782 0.8312 0.42121 0.0
H3173 H 0.4757 0.89116 0.40513 0.0
C3174 C 0.50053 0.92952 0.37511 0.0
C3175 C 0.51467 0.94675 0.35989 0.0
C3176 C 0.50173 0.89489 0.38412 0.0
C3177 C 0.53012 0.92889 0.35377 0.0
C3178 C 0.53136 0.8943 0.36232 0.0
C3179 C 0.51834 0.84228 0.38644 0.0
C3180 C 0.50417 0.8253 0.40227 0.0
C3181 C 0.51723 0.87701 0.3775 0.0
C3182 C 0.48887 0.84345 0.40868 0.0
C3183 C 0.48764 0.87784 0.39965 0.0
H3184 H 0.25173 0.91955 0.43503 0.0
H3185 H 0.27887 0.96534 0.34291 0.0
H3186 H 0.28041 0.91017 0.31089 0.0
H3187 H 0.27478 0.84893 0.31015 0.0
H3188 H 0.24689 0.8028 0.40131 0.0
H3189 H 0.24485 0.85807 0.43282 0.0
C3190 C 0.25785 0.91726 0.40781 0.0
C3191 C 0.26522 0.94607 0.39109 0.0
C3192 C 0.25866 0.8855 0.3897 0.0
C3193 C 0.27313 0.94327 0.35599 0.0
C3194 C 0.27405 0.9118 0.33785 0.0
C3195 C 0.26835 0.85085 0.33705 0.0
C3196 C 0.26125 0.82165 0.35367 0.0
C3197 C 0.26703 0.8827 0.35464 0.0
C3198 C 0.25261 0.82482 0.38809 0.0
C3199 C 0.25141 0.85641 0.40608 0.0
H3200 H 0.49857 0.69758 0.11933 0.0
H3201 H 0.55258 0.69908 0.09108 0.0
H3202 H 0.55506 0.63913 0.1075 0.0
H3203 H 0.5419 0.5863 0.12931 0.0
H3204 H 0.48774 0.58447 0.15585 0.0
H3205 H 0.48531 0.64463 0.14044 0.0
C3206 C 0.51094 0.68492 0.11711 0.0
C3207 C 0.52542 0.70283 0.10436 0.0
C3208 C 0.51222 0.65038 0.12598 0.0
C3209 C 0.54128 0.68594 0.1012 0.0
C3210 C 0.5427 0.65163 0.11039 0.0
C3211 C 0.52957 0.59908 0.13157 0.0
C3212 C 0.51505 0.58105 0.14352 0.0
C3213 C 0.52825 0.6336 0.12263 0.0
C3214 C 0.4991 0.59778 0.1463 0.0
C3215 C 0.49771 0.63222 0.13774 0.0
H3216 H 0.74292 0.57226 0.14314 0.0
H3217 H 0.78185 0.58175 0.05803 0.0
H3218 H 0.78362 0.64303 0.06943 0.0
H3219 H 0.7739 0.69424 0.10378 0.0
H3220 H 0.73496 0.68407 0.189 0.0
H3221 H 0.73382 0.62291 0.17845 0.0
C3222 C 0.7518 0.58784 0.12728 0.0
C3223 C 0.76226 0.57272 0.09997 0.0
C3224 C 0.75287 0.62294 0.13426 0.0
C3225 C 0.77383 0.59294 0.0796 0.0
C3226 C 0.7748 0.62796 0.08599 0.0
C3227 C 0.76511 0.67857 0.11978 0.0
C3228 C 0.75429 0.69371 0.14656 0.0
C3229 C 0.76436 0.64329 0.11325 0.0
C3230 C 0.74312 0.67313 0.16753 0.0
C3231 C 0.7425 0.6381 0.16166 0.0
H3232 H 0.52458 0.44765 0.88907 0.0
H3233 H 0.48669 0.43196 0.80197 0.0
H3234 H 0.48612 0.37123 0.81558 0.0
H3235 H 0.49602 0.32266 0.85286 0.0
H3236 H 0.53377 0.3382 0.94029 0.0
H3237 H 0.5346 0.39886 0.92635 0.0
C3238 C 0.51613 0.43088 0.87333 0.0
C3239 C 0.50547 0.44418 0.84509 0.0
C3240 C 0.51579 0.39602 0.88143 0.0
C3241 C 0.49469 0.42232 0.82453 0.0
C3242 C 0.49444 0.38759 0.83209 0.0
C3243 C 0.50441 0.33938 0.86878 0.0
C3244 C 0.51484 0.32607 0.89734 0.0
C3245 C 0.50484 0.3742 0.86063 0.0
C3246 C 0.52575 0.34787 0.91777 0.0
C3247 C 0.52619 0.38257 0.90996 0.0
H3248 H 0.28542 0.34573 0.82498 0.0
H3249 H 0.24509 0.311 0.89841 0.0
H3250 H 0.24148 0.36881 0.92289 0.0
H3251 H 0.24996 0.4294 0.9232 0.0
H3252 H 0.29082 0.46312 0.85073 0.0
H3253 H 0.29383 0.40556 0.82534 0.0
C3254 C 0.27595 0.3507 0.84662 0.0
C3255 C 0.26568 0.32408 0.86018 0.0
C3256 C 0.27389 0.38389 0.86027 0.0
C3257 C 0.25321 0.33108 0.88764 0.0
C3258 C 0.25112 0.36412 0.90156 0.0
C3259 C 0.25945 0.42405 0.90169 0.0
C3260 C 0.27018 0.45025 0.88864 0.0
C3261 C 0.26137 0.39075 0.88797 0.0
C3262 C 0.28255 0.44316 0.86121 0.0
C3263 C 0.28426 0.41033 0.84677 0.0
loop_
_geom_bond_atom_site_label_1
_geom_bond_atom_site_label_2
_geom_bond_distance
_geom_bond_site_symmetry_2
_ccdc_geom_bond_type
C0 C1 1.387 . S
C0 C5 1.380 . S
C0 C16 1.494 . S
C1 C0 1.387 . S
C1 C2 1.386 . S
C1 H32 0.930 . S
C2 C1 1.386 . S
C2 C3 1.397 . S
C3 C2 1.397 . S
C3 C4 1.393 . S
C3 H33 0.930 . S
C4 C3 1.393 . S
C4 C5 1.395 . S
C5 C0 1.380 . S
C5 C4 1.395 . S
C5 H34 0.930 . S
O6 Tb7 2.295 1_554 S
O6 C19 1.242 . S
Tb7 O6 2.295 1_556 S
Tb7 O8 2.312 . S
Tb7 O11 2.433 1_556 S
Tb7 O13 2.472 1_556 S
Tb7 O15 2.308 . S
Tb7 C16 2.821 1_556 S
O8 Tb7 2.312 . S
O8 C28 1.264 1_455 S
O9 Eu10 2.308 . S
O9 C19 1.244 1_655 S
Eu10 O9 2.308 . S
Eu10 C12 2.821 . S
Eu10 O14 2.288 1_655 S
Eu10 O21 2.312 1_655 S
Eu10 O30 2.438 . S
Eu10 O31 2.472 . S
O11 Tb7 2.433 1_554 S
O11 C16 1.269 . S
C12 Eu10 2.821 . S
C12 C22 1.494 . S
C12 O30 1.263 . S
C12 O31 1.264 . S
O13 Tb7 2.472 1_554 S
O13 C16 1.264 . S
O14 Eu10 2.288 1_455 S
O14 C20 1.248 1_554 S
O15 Tb7 2.308 . S
O15 C20 1.243 . S
C16 C0 1.494 . S
C16 Tb7 2.821 1_554 S
C16 O11 1.269 . S
C16 O13 1.264 . S
C17 O18 1.260 . S
C17 O21 1.264 . S
O18 C17 1.260 . S
C19 O6 1.242 . S
C19 O9 1.244 1_455 S
C20 O14 1.248 1_556 S
C20 O15 1.243 . S
O21 Eu10 2.312 1_455 S
O21 C17 1.264 . S
C22 C12 1.494 . S
C22 C24 1.380 . S
C22 C25 1.387 . S
C23 C24 1.382 1_556 S
C23 C27 1.395 . S
C24 C22 1.380 . S
C24 C23 1.382 1_554 S
C24 H35 0.930 . S
C25 C22 1.387 . S
C25 C26 1.386 . S
C25 H36 0.930 . S
C26 C25 1.386 . S
C26 C27 1.397 1_554 S
C27 C23 1.395 . S
C27 C26 1.397 1_556 S
C27 H37 0.930 . S
C28 O8 1.264 1_655 S
C28 O29 1.260 . S
O29 C28 1.260 . S
O30 Eu10 2.438 . S
O30 C12 1.263 . S
O31 Eu10 2.472 . S
O31 C12 1.264 . S
H32 C1 0.930 . S
H33 C3 0.930 . S
H34 C5 0.930 . S
H35 C24 0.930 . S
H36 C25 0.930 . S
H37 C27 0.930 . S
C38 C39 1.387 . S
C38 C43 1.380 . S
C38 C54 1.494 . S
C39 C38 1.387 . S
C39 C40 1.386 . S
C39 H70 0.930 . S
C40 C39 1.386 . S
C40 C41 1.397 . S
C41 C40 1.397 . S
C41 C42 1.393 . S
C41 H71 0.930 . S
C42 C41 1.393 . S
C42 C43 1.395 . S
C43 C38 1.380 . S
C43 C42 1.395 . S
C43 H72 0.930 . S
O44 Tb45 2.295 1_554 S
O44 C57 1.242 . S
Tb45 O44 2.295 1_556 S
Tb45 O46 2.312 . S
Tb45 O49 2.433 1_556 S
Tb45 O51 2.472 1_556 S
Tb45 O53 2.308 . S
Tb45 C54 2.821 1_556 S
O46 Tb45 2.312 . S
O46 C66 1.264 . S
O47 Eu48 2.308 . S
O47 C57 1.243 . S
Eu48 O47 2.308 . S
Eu48 C50 2.821 . S
Eu48 O52 2.295 . S
Eu48 O59 2.312 1_565 S
Eu48 O68 2.438 . S
Eu48 O69 2.472 . S
O49 Tb45 2.433 1_554 S
O49 C54 1.269 . S
C50 Eu48 2.821 . S
C50 C60 1.494 . S
C50 O68 1.263 . S
C50 O69 1.264 . S
O51 Tb45 2.472 1_554 S
O51 C54 1.264 . S
O52 Eu48 2.295 . S
O52 C58 1.242 1_554 S
O53 Tb45 2.308 . S
O53 C58 1.243 . S
C54 C38 1.494 . S
C54 Tb45 2.821 1_554 S
C54 O49 1.269 . S
C54 O51 1.264 . S
C55 O56 1.260 . S
C55 O59 1.264 . S
O56 C55 1.260 . S
C57 O44 1.242 . S
C57 O47 1.243 . S
C58 O52 1.242 1_556 S
C58 O53 1.243 . S
O59 Eu48 2.312 1_545 S
O59 C55 1.264 . S
C60 C50 1.494 . S
C60 C62 1.380 . S
C60 C63 1.387 . S
C61 C62 1.383 1_556 S
C61 C65 1.395 . S
C62 C60 1.380 . S
C62 C61 1.383 1_554 S
C62 H73 0.930 . S
C63 C60 1.387 . S
C63 C64 1.386 . S
C63 H74 0.930 1_565 S
C64 C63 1.386 . S
C64 C65 1.397 1_554 S
C65 C61 1.395 . S
C65 C64 1.397 1_556 S
C65 H75 0.930 . S
C66 O46 1.264 . S
C66 O67 1.260 . S
O67 C66 1.260 . S
O68 Eu48 2.438 . S
O68 C50 1.263 . S
O69 Eu48 2.472 . S
O69 C50 1.264 . S
H70 C39 0.930 . S
H71 C41 0.930 . S
H72 C43 0.930 . S
H73 C62 0.930 . S
H74 C63 0.930 1_545 S
H75 C65 0.930 . S
C76 C77 1.387 . S
C76 C81 1.380 . S
C76 C92 1.494 . S
C77 C76 1.387 . S
C77 C78 1.386 . S
C77 H108 0.930 . S
C78 C77 1.386 . S
C78 C79 1.397 . S
C79 C78 1.397 . S
C79 C80 1.393 . S
C79 H109 0.930 . S
C80 C79 1.393 . S
C80 C81 1.395 . S
C81 C76 1.380 . S
C81 C80 1.395 . S
C81 H110 0.930 . S
O82 Tb83 2.295 . S
O82 C95 1.242 . S
Tb83 O82 2.295 . S
Tb83 O84 2.312 . S
Tb83 O87 2.438 . S
Tb83 O89 2.472 . S
Tb83 O91 2.308 . S
Tb83 C92 2.821 . S
O84 Tb83 2.312 . S
O84 C104 1.264 1_455 S
O85 Eu86 2.308 . S
O85 C95 1.244 1_655 S
Eu86 O85 2.308 . S
Eu86 C88 2.821 . S
Eu86 O90 2.288 1_655 S
Eu86 O97 2.312 1_665 S
Eu86 O106 2.438 . S
Eu86 O107 2.472 . S
O87 Tb83 2.438 . S
O87 C92 1.263 . S
C88 Eu86 2.821 . S
C88 C98 1.494 . S
C88 O106 1.263 . S
C88 O107 1.264 . S
O89 Tb83 2.472 . S
O89 C92 1.264 . S
O90 Eu86 2.288 1_455 S
O90 C96 1.248 . S
O91 Tb83 2.308 . S
O91 C96 1.243 . S
C92 C76 1.494 . S
C92 Tb83 2.821 . S
C92 O87 1.263 . S
C92 O89 1.264 . S
C93 O94 1.260 . S
C93 O97 1.264 . S
O94 C93 1.260 . S
C95 O82 1.242 . S
C95 O85 1.244 1_455 S
C96 O90 1.248 . S
C96 O91 1.243 . S
O97 Eu86 2.312 1_445 S
O97 C93 1.264 . S
C98 C88 1.494 . S
C98 C100 1.380 . S
C98 C101 1.387 . S
C99 C100 1.395 . S
C99 C103 1.393 . S
C100 C98 1.380 . S
C100 C99 1.395 . S
C100 H111 0.930 . S
C101 C98 1.387 . S
C101 C102 1.386 . S
C101 H112 0.930 1_565 S
C102 C101 1.386 . S
C102 C103 1.397 . S
C103 C99 1.393 . S
C103 C102 1.397 . S
C103 H113 0.930 . S
C104 O84 1.264 1_655 S
C104 O105 1.260 . S
O105 C104 1.260 . S
O106 Eu86 2.438 . S
O106 C88 1.263 . S
O107 Eu86 2.472 . S
O107 C88 1.264 . S
H108 C77 0.930 . S
H109 C79 0.930 . S
H110 C81 0.930 . S
H111 C100 0.930 . S
H112 C101 0.930 1_545 S
H113 C103 0.930 . S
C114 C115 1.387 . S
C114 C119 1.380 . S
C114 C130 1.494 . S
C115 C114 1.387 . S
C115 C116 1.386 . S
C115 H146 0.930 . S
C116 C115 1.386 . S
C116 C117 1.397 . S
C117 C116 1.397 . S
C117 C118 1.393 . S
C117 H147 0.930 . S
C118 C117 1.393 . S
C118 C119 1.395 . S
C119 C114 1.380 . S
C119 C118 1.395 . S
C119 H148 0.930 . S
O120 Tb121 2.295 . S
O120 C133 1.242 . S
Tb121 O120 2.295 . S
Tb121 O122 2.312 . S
Tb121 O125 2.438 . S
Tb121 O127 2.472 . S
Tb121 O129 2.308 . S
Tb121 C130 2.821 . S
O122 Tb121 2.312 . S
O122 C142 1.264 . S
O123 Eu124 2.308 . S
O123 C133 1.243 . S
Eu124 O123 2.308 . S
Eu124 C126 2.821 . S
Eu124 O128 2.295 . S
Eu124 O135 2.312 . S
Eu124 O144 2.438 . S
Eu124 O145 2.472 . S
O125 Tb121 2.438 . S
O125 C130 1.263 . S
C126 Eu124 2.821 . S
C126 C136 1.494 . S
C126 O144 1.263 . S
C126 O145 1.264 . S
O127 Tb121 2.472 . S
O127 C130 1.264 . S
O128 Eu124 2.295 . S
O128 C134 1.242 . S
O129 Tb121 2.308 . S
O129 C134 1.243 . S
C130 C114 1.494 . S
C130 Tb121 2.821 . S
C130 O125 1.263 . S
C130 O127 1.264 . S
C131 O132 1.260 . S
C131 O135 1.264 . S
O132 C131 1.260 . S
C133 O120 1.242 . S
C133 O123 1.243 . S
C134 O128 1.242 . S
C134 O129 1.243 . S
O135 Eu124 2.312 . S
O135 C131 1.264 . S
C136 C126 1.494 . S
C136 C138 1.380 . S
C136 C139 1.387 . S
C137 C138 1.395 . S
C137 C141 1.393 . S
C138 C136 1.380 . S
C138 C137 1.395 . S
C138 H149 0.930 . S
C139 C136 1.387 . S
C139 C140 1.386 . S
C139 H150 0.930 . S
C140 C139 1.386 . S
C140 C141 1.397 . S
C141 C137 1.393 . S
C141 C140 1.397 . S
C141 H151 0.930 . S
C142 O122 1.264 . S
C142 O143 1.260 . S
O143 C142 1.260 . S
O144 Eu124 2.438 . S
O144 C126 1.263 . S
O145 Eu124 2.472 . S
O145 C126 1.264 . S
H146 C115 0.930 . S
H147 C117 0.930 . S
H148 C119 0.930 . S
H149 C138 0.930 . S
H150 C139 0.930 . S
H151 C141 0.930 . S
C152 C153 1.387 . S
C152 C157 1.380 . S
C152 C168 1.494 . S
C153 C152 1.387 . S
C153 C154 1.386 . S
C153 H184 0.930 . S
C154 C153 1.386 . S
C154 C155 1.397 1_556 S
C155 C154 1.397 1_554 S
C155 C156 1.395 . S
C155 H185 0.930 . S
C156 C155 1.395 . S
C156 C157 1.382 1_554 S
C157 C152 1.380 . S
C157 C156 1.382 1_556 S
C157 H186 0.930 . S
O158 Tb159 2.288 1_655 S
O158 C171 1.248 1_556 S
Tb159 O158 2.288 1_455 S
Tb159 O160 2.312 1_455 S
Tb159 O163 2.438 . S
Tb159 O165 2.472 . S
Tb159 O167 2.308 . S
Tb159 C168 2.821 . S
O160 Tb159 2.312 1_655 S
O160 C180 1.264 . S
O161 Eu162 2.308 . S
O161 C171 1.243 . S
Eu162 O161 2.308 . S
Eu162 C164 2.821 1_554 S
Eu162 O166 2.295 1_554 S
Eu162 O173 2.312 . S
Eu162 O182 2.433 1_554 S
Eu162 O183 2.472 1_554 S
O163 Tb159 2.438 . S
O163 C168 1.263 . S
C164 Eu162 2.821 1_556 S
C164 C174 1.494 . S
C164 O182 1.269 . S
C164 O183 1.264 . S
O165 Tb159 2.472 . S
O165 C168 1.264 . S
O166 Eu162 2.295 1_556 S
O166 C172 1.242 . S
O167 Tb159 2.308 . S
O167 C172 1.244 1_455 S
C168 C152 1.494 . S
C168 Tb159 2.821 . S
C168 O163 1.263 . S
C168 O165 1.264 . S
C169 O170 1.260 . S
C169 O173 1.264 1_455 S
O170 C169 1.260 . S
C171 O158 1.248 1_554 S
C171 O161 1.243 . S
C172 O166 1.242 . S
C172 O167 1.244 1_655 S
O173 Eu162 2.312 . S
O173 C169 1.264 1_655 S
C174 C164 1.494 . S
C174 C176 1.380 . S
C174 C177 1.387 . S
C175 C176 1.395 . S
C175 C179 1.393 . S
C176 C174 1.380 . S
C176 C175 1.395 . S
C176 H187 0.930 . S
C177 C174 1.387 . S
C177 C178 1.386 . S
C177 H188 0.930 . S
C178 C177 1.386 . S
C178 C179 1.397 . S
C179 C175 1.393 . S
C179 C178 1.397 . S
C179 H189 0.930 . S
C180 O160 1.264 . S
C180 O181 1.260 . S
O181 C180 1.260 . S
O182 Eu162 2.433 1_556 S
O182 C164 1.269 . S
O183 Eu162 2.472 1_556 S
O183 C164 1.264 . S
H184 C153 0.930 . S
H185 C155 0.930 . S
H186 C157 0.930 . S
H187 C176 0.930 . S
H188 C177 0.930 . S
H189 C179 0.930 . S
C190 C191 1.387 . S
C190 C195 1.380 . S
C190 C206 1.494 . S
C191 C190 1.387 . S
C191 C192 1.386 . S
C191 H222 0.930 1_545 S
C192 C191 1.386 . S
C192 C193 1.397 1_556 S
C193 C192 1.397 1_554 S
C193 C194 1.395 . S
C193 H223 0.930 . S
C194 C193 1.395 . S
C194 C195 1.383 1_554 S
C195 C190 1.380 . S
C195 C194 1.383 1_556 S
C195 H224 0.930 . S
O196 Tb197 2.295 . S
O196 C209 1.242 1_556 S
Tb197 O196 2.295 . S
Tb197 O198 2.312 1_545 S
Tb197 O201 2.438 . S
Tb197 O203 2.472 . S
Tb197 O205 2.308 . S
Tb197 C206 2.821 . S
O198 Tb197 2.312 1_565 S
O198 C218 1.264 . S
O199 Eu200 2.308 . S
O199 C209 1.243 . S
Eu200 O199 2.308 . S
Eu200 C202 2.821 1_554 S
Eu200 O204 2.295 1_554 S
Eu200 O211 2.312 . S
Eu200 O220 2.433 1_554 S
Eu200 O221 2.472 1_554 S
O201 Tb197 2.438 . S
O201 C206 1.263 . S
C202 Eu200 2.821 1_556 S
C202 C212 1.494 . S
C202 O220 1.269 . S
C202 O221 1.264 . S
O203 Tb197 2.472 . S
O203 C206 1.264 . S
O204 Eu200 2.295 1_556 S
O204 C210 1.242 . S
O205 Tb197 2.308 . S
O205 C210 1.243 . S
C206 C190 1.494 . S
C206 Tb197 2.821 . S
C206 O201 1.263 . S
C206 O203 1.264 . S
C207 O208 1.260 . S
C207 O211 1.264 . S
O208 C207 1.260 . S
C209 O196 1.242 1_554 S
C209 O199 1.243 . S
C210 O204 1.242 . S
C210 O205 1.243 . S
O211 Eu200 2.312 . S
O211 C207 1.264 . S
C212 C202 1.494 . S
C212 C214 1.380 . S
C212 C215 1.387 . S
C213 C214 1.395 . S
C213 C217 1.393 . S
C214 C212 1.380 . S
C214 C213 1.395 . S
C214 H225 0.930 . S
C215 C212 1.387 . S
C215 C216 1.386 . S
C215 H226 0.930 . S
C216 C215 1.386 . S
C216 C217 1.397 . S
C217 C213 1.393 . S
C217 C216 1.397 . S
C217 H227 0.930 . S
C218 O198 1.264 . S
C218 O219 1.260 . S
O219 C218 1.260 . S
O220 Eu200 2.433 1_556 S
O220 C202 1.269 . S
O221 Eu200 2.472 1_556 S
O221 C202 1.264 . S
H222 C191 0.930 1_565 S
H223 C193 0.930 . S
H224 C195 0.930 . S
H225 C214 0.930 . S
H226 C215 0.930 . S
H227 C217 0.930 . S
C228 C229 1.387 . S
C228 C233 1.380 . S
C228 C244 1.494 . S
C229 C228 1.387 . S
C229 C230 1.386 . S
C229 H260 0.930 1_545 S
C230 C229 1.386 . S
C230 C231 1.397 . S
C231 C230 1.397 . S
C231 C232 1.393 . S
C231 H261 0.930 . S
C232 C231 1.393 . S
C232 C233 1.395 . S
C233 C228 1.380 . S
C233 C232 1.395 . S
C233 H262 0.930 . S
O234 Tb235 2.288 1_655 S
O234 C247 1.248 . S
Tb235 O234 2.288 1_455 S
Tb235 O236 2.312 1_445 S
Tb235 O239 2.438 . S
Tb235 O241 2.472 . S
Tb235 O243 2.308 . S
Tb235 C244 2.821 . S
O236 Tb235 2.312 1_665 S
O236 C256 1.264 . S
O237 Eu238 2.308 . S
O237 C247 1.243 . S
Eu238 O237 2.308 . S
Eu238 C240 2.821 . S
Eu238 O242 2.295 . S
Eu238 O249 2.312 . S
Eu238 O258 2.438 . S
Eu238 O259 2.472 . S
O239 Tb235 2.438 . S
O239 C244 1.263 . S
C240 Eu238 2.821 . S
C240 C250 1.494 . S
C240 O258 1.263 . S
C240 O259 1.264 . S
O241 Tb235 2.472 . S
O241 C244 1.264 . S
O242 Eu238 2.295 . S
O242 C248 1.242 . S
O243 Tb235 2.308 . S
O243 C248 1.244 1_455 S
C244 C228 1.494 . S
C244 Tb235 2.821 . S
C244 O239 1.263 . S
C244 O241 1.264 . S
C245 O246 1.260 . S
C245 O249 1.264 1_455 S
O246 C245 1.260 . S
C247 O234 1.248 . S
C247 O237 1.243 . S
C248 O242 1.242 . S
C248 O243 1.244 1_655 S
O249 Eu238 2.312 . S
O249 C245 1.264 1_655 S
C250 C240 1.494 . S
C250 C252 1.380 . S
C250 C253 1.387 . S
C251 C252 1.395 . S
C251 C255 1.393 . S
C252 C250 1.380 . S
C252 C251 1.395 . S
C252 H263 0.930 . S
C253 C250 1.387 . S
C253 C254 1.386 . S
C253 H264 0.930 . S
C254 C253 1.386 . S
C254 C255 1.397 . S
C255 C251 1.393 . S
C255 C254 1.397 . S
C255 H265 0.930 . S
C256 O236 1.264 . S
C256 O257 1.260 . S
O257 C256 1.260 . S
O258 Eu238 2.438 . S
O258 C240 1.263 . S
O259 Eu238 2.472 . S
O259 C240 1.264 . S
H260 C229 0.930 1_565 S
H261 C231 0.930 . S
H262 C233 0.930 . S
H263 C252 0.930 . S
H264 C253 0.930 . S
H265 C255 0.930 . S
C266 C267 1.387 . S
C266 C271 1.380 . S
C266 C282 1.494 . S
C267 C266 1.387 . S
C267 C268 1.386 . S
C267 H298 0.930 . S
C268 C267 1.386 . S
C268 C269 1.397 . S
C269 C268 1.397 . S
C269 C270 1.393 . S
C269 H299 0.930 . S
C270 C269 1.393 . S
C270 C271 1.395 . S
C271 C266 1.380 . S
C271 C270 1.395 . S
C271 H300 0.930 . S
O272 Tb273 2.295 . S
O272 C285 1.242 . S
Tb273 O272 2.295 . S
Tb273 O274 2.312 . S
Tb273 O277 2.438 . S
Tb273 O279 2.472 . S
Tb273 O281 2.308 . S
Tb273 C282 2.821 . S
O274 Tb273 2.312 . S
O274 C294 1.264 . S
O275 Eu276 2.308 . S
O275 C285 1.243 . S
Eu276 O275 2.308 . S
Eu276 C278 2.821 . S
Eu276 O280 2.295 . S
Eu276 O287 2.312 . S
Eu276 O296 2.438 . S
Eu276 O297 2.472 . S
O277 Tb273 2.438 . S
O277 C282 1.263 . S
C278 Eu276 2.821 . S
C278 C288 1.494 . S
C278 O296 1.263 . S
C278 O297 1.264 . S
O279 Tb273 2.472 . S
O279 C282 1.264 . S
O280 Eu276 2.295 . S
O280 C286 1.242 . S
O281 Tb273 2.308 . S
O281 C286 1.243 . S
C282 C266 1.494 . S
C282 Tb273 2.821 . S
C282 O277 1.263 . S
C282 O279 1.264 . S
C283 O284 1.260 . S
C283 O287 1.264 . S
O284 C283 1.260 . S
C285 O272 1.242 . S
C285 O275 1.243 . S
C286 O280 1.242 . S
C286 O281 1.243 . S
O287 Eu276 2.312 . S
O287 C283 1.264 . S
C288 C278 1.494 . S
C288 C290 1.380 . S
C288 C291 1.387 . S
C289 C290 1.395 . S
C289 C293 1.393 . S
C290 C288 1.380 . S
C290 C289 1.395 . S
C290 H301 0.930 . S
C291 C288 1.387 . S
C291 C292 1.386 . S
C291 H302 0.930 . S
C292 C291 1.386 . S
C292 C293 1.397 . S
C293 C289 1.393 . S
C293 C292 1.397 . S
C293 H303 0.930 . S
C294 O274 1.264 . S
C294 O295 1.260 . S
O295 C294 1.260 . S
O296 Eu276 2.438 . S
O296 C278 1.263 . S
O297 Eu276 2.472 . S
O297 C278 1.264 . S
H298 C267 0.930 . S
H299 C269 0.930 . S
H300 C271 0.930 . S
H301 C290 0.930 . S
H302 C291 0.930 . S
H303 C293 0.930 . S
C304 C305 1.387 . S
C304 C309 1.380 . S
C304 C320 1.494 . S
C305 C304 1.387 . S
C305 C306 1.386 . S
C305 H336 0.930 . S
C306 C305 1.386 . S
C306 C307 1.397 . S
C307 C306 1.397 . S
C307 C308 1.393 . S
C307 H337 0.930 . S
C308 C307 1.393 . S
C308 C309 1.395 . S
C309 C304 1.380 . S
C309 C308 1.395 . S
C309 H338 0.930 . S
O310 Tb311 2.295 . S
O310 C323 1.242 . S
Tb311 O310 2.295 . S
Tb311 O312 2.312 . S
Tb311 O315 2.438 . S
Tb311 O317 2.472 . S
Tb311 O319 2.308 . S
Tb311 C320 2.821 . S
O312 Tb311 2.312 . S
O312 C332 1.264 1_455 S
O313 Eu314 2.308 . S
O313 C323 1.244 1_655 S
Eu314 O313 2.308 . S
Eu314 C316 2.821 . S
Eu314 O318 2.288 1_655 S
Eu314 O325 2.312 1_655 S
Eu314 O334 2.438 . S
Eu314 O335 2.472 . S
O315 Tb311 2.438 . S
O315 C320 1.263 . S
C316 Eu314 2.821 . S
C316 C326 1.494 . S
C316 O334 1.263 . S
C316 O335 1.264 . S
O317 Tb311 2.472 . S
O317 C320 1.264 . S
O318 Eu314 2.288 1_455 S
O318 C324 1.248 . S
O319 Tb311 2.308 . S
O319 C324 1.243 . S
C320 C304 1.494 . S
C320 Tb311 2.821 . S
C320 O315 1.263 . S
C320 O317 1.264 . S
C321 O322 1.260 . S
C321 O325 1.264 . S
O322 C321 1.260 . S
C323 O310 1.242 . S
C323 O313 1.244 1_455 S
C324 O318 1.248 . S
C324 O319 1.243 . S
O325 Eu314 2.312 1_455 S
O325 C321 1.264 . S
C326 C316 1.494 . S
C326 C328 1.380 . S
C326 C329 1.387 . S
C327 C328 1.395 . S
C327 C331 1.393 . S
C328 C326 1.380 . S
C328 C327 1.395 . S
C328 H339 0.930 . S
C329 C326 1.387 . S
C329 C330 1.386 . S
C329 H340 0.930 . S
C330 C329 1.386 . S
C330 C331 1.397 . S
C331 C327 1.393 . S
C331 C330 1.397 . S
C331 H341 0.930 . S
C332 O312 1.264 1_655 S
C332 O333 1.260 . S
O333 C332 1.260 . S
O334 Eu314 2.438 . S
O334 C316 1.263 . S
O335 Eu314 2.472 . S
O335 C316 1.264 . S
H336 C305 0.930 . S
H337 C307 0.930 . S
H338 C309 0.930 . S
H339 C328 0.930 . S
H340 C329 0.930 . S
H341 C331 0.930 . S
C342 C343 1.387 . S
C342 C347 1.380 . S
C342 C358 1.494 . S
C343 C342 1.387 . S
C343 C344 1.386 . S
C343 H374 0.930 . S
C344 C343 1.386 . S
C344 C345 1.397 . S
C345 C344 1.397 . S
C345 C346 1.393 . S
C345 H375 0.930 . S
C346 C345 1.393 . S
C346 C347 1.395 . S
C347 C342 1.380 . S
C347 C346 1.395 . S
C347 H376 0.930 . S
O348 Tb349 2.295 . S
O348 C361 1.242 . S
Tb349 O348 2.295 . S
Tb349 O350 2.312 . S
Tb349 O353 2.438 . S
Tb349 O355 2.472 . S
Tb349 O357 2.308 . S
Tb349 C358 2.821 . S
O350 Tb349 2.312 . S
O350 C370 1.264 . S
O351 Eu352 2.308 . S
O351 C361 1.243 . S
Eu352 O351 2.308 . S
Eu352 C354 2.821 . S
Eu352 O356 2.295 . S
Eu352 O363 2.312 . S
Eu352 O372 2.438 . S
Eu352 O373 2.472 . S
O353 Tb349 2.438 . S
O353 C358 1.263 . S
C354 Eu352 2.821 . S
C354 C364 1.494 . S
C354 O372 1.263 . S
C354 O373 1.264 . S
O355 Tb349 2.472 . S
O355 C358 1.264 . S
O356 Eu352 2.295 . S
O356 C362 1.242 . S
O357 Tb349 2.308 . S
O357 C362 1.243 . S
C358 C342 1.494 . S
C358 Tb349 2.821 . S
C358 O353 1.263 . S
C358 O355 1.264 . S
C359 O360 1.260 . S
C359 O363 1.264 . S
O360 C359 1.260 . S
C361 O348 1.242 . S
C361 O351 1.243 . S
C362 O356 1.242 . S
C362 O357 1.243 . S
O363 Eu352 2.312 . S
O363 C359 1.264 . S
C364 C354 1.494 . S
C364 C366 1.380 . S
C364 C367 1.387 . S
C365 C366 1.395 . S
C365 C369 1.393 . S
C366 C364 1.380 . S
C366 C365 1.395 . S
C366 H377 0.930 . S
C367 C364 1.387 . S
C367 C368 1.386 . S
C367 H378 0.930 . S
C368 C367 1.386 . S
C368 C369 1.397 . S
C369 C365 1.393 . S
C369 C368 1.397 . S
C369 H379 0.930 . S
C370 O350 1.264 . S
C370 O371 1.260 . S
O371 C370 1.260 . S
O372 Eu352 2.438 . S
O372 C354 1.263 . S
O373 Eu352 2.472 . S
O373 C354 1.264 . S
H374 C343 0.930 . S
H375 C345 0.930 . S
H376 C347 0.930 . S
H377 C366 0.930 . S
H378 C367 0.930 . S
H379 C369 0.930 . S
C380 C381 1.387 . S
C380 C385 1.380 . S
C380 C396 1.494 . S
C381 C380 1.387 . S
C381 C382 1.386 . S
C381 H412 0.930 . S
C382 C381 1.386 . S
C382 C383 1.397 . S
C383 C382 1.397 . S
C383 C384 1.393 . S
C383 H413 0.930 . S
C384 C383 1.393 . S
C384 C385 1.395 . S
C385 C380 1.380 . S
C385 C384 1.395 . S
C385 H414 0.930 . S
O386 Tb387 2.295 . S
O386 C399 1.242 . S
Tb387 O386 2.295 . S
Tb387 O388 2.312 . S
Tb387 O391 2.438 . S
Tb387 O393 2.472 . S
Tb387 O395 2.308 . S
Tb387 C396 2.821 . S
O388 Tb387 2.312 . S
O388 C408 1.264 1_455 S
O389 Eu390 2.308 . S
O389 C399 1.244 1_655 S
Eu390 O389 2.308 . S
Eu390 C392 2.821 . S
Eu390 O394 2.288 1_655 S
Eu390 O401 2.312 1_655 S
Eu390 O410 2.438 . S
Eu390 O411 2.472 . S
O391 Tb387 2.438 . S
O391 C396 1.263 . S
C392 Eu390 2.821 . S
C392 C402 1.494 . S
C392 O410 1.263 . S
C392 O411 1.264 . S
O393 Tb387 2.472 . S
O393 C396 1.264 . S
O394 Eu390 2.288 1_455 S
O394 C400 1.248 . S
O395 Tb387 2.308 . S
O395 C400 1.243 . S
C396 C380 1.494 . S
C396 Tb387 2.821 . S
C396 O391 1.263 . S
C396 O393 1.264 . S
C397 O398 1.260 . S
C397 O401 1.264 . S
O398 C397 1.260 . S
C399 O386 1.242 . S
C399 O389 1.244 1_455 S
C400 O394 1.248 . S
C400 O395 1.243 . S
O401 Eu390 2.312 1_455 S
O401 C397 1.264 . S
C402 C392 1.494 . S
C402 C404 1.380 . S
C402 C405 1.387 . S
C403 C404 1.395 . S
C403 C407 1.393 . S
C404 C402 1.380 . S
C404 C403 1.395 . S
C404 H415 0.930 . S
C405 C402 1.387 . S
C405 C406 1.386 . S
C405 H416 0.930 . S
C406 C405 1.386 . S
C406 C407 1.397 . S
C407 C403 1.393 . S
C407 C406 1.397 . S
C407 H417 0.930 . S
C408 O388 1.264 1_655 S
C408 O409 1.260 . S
O409 C408 1.260 . S
O410 Eu390 2.438 . S
O410 C392 1.263 . S
O411 Eu390 2.472 . S
O411 C392 1.264 . S
H412 C381 0.930 . S
H413 C383 0.930 . S
H414 C385 0.930 . S
H415 C404 0.930 . S
H416 C405 0.930 . S
H417 C407 0.930 . S
C418 C419 1.387 . S
C418 C423 1.380 . S
C418 C434 1.494 . S
C419 C418 1.387 . S
C419 C420 1.386 . S
C419 H450 0.930 . S
C420 C419 1.386 . S
C420 C421 1.397 . S
C421 C420 1.397 . S
C421 C422 1.393 . S
C421 H451 0.930 . S
C422 C421 1.393 . S
C422 C423 1.395 . S
C423 C418 1.380 . S
C423 C422 1.395 . S
C423 H452 0.930 . S
O424 Tb425 2.295 . S
O424 C437 1.242 . S
Tb425 O424 2.295 . S
Tb425 O426 2.312 . S
Tb425 O429 2.438 . S
Tb425 O431 2.472 . S
Tb425 O433 2.308 . S
Tb425 C434 2.821 . S
O426 Tb425 2.312 . S
O426 C446 1.264 . S
O427 Eu428 2.308 . S
O427 C437 1.243 . S
Eu428 O427 2.308 . S
Eu428 C430 2.821 . S
Eu428 O432 2.295 . S
Eu428 O439 2.312 . S
Eu428 O448 2.438 . S
Eu428 O449 2.472 . S
O429 Tb425 2.438 . S
O429 C434 1.263 . S
C430 Eu428 2.821 . S
C430 C440 1.494 . S
C430 O448 1.263 . S
C430 O449 1.264 . S
O431 Tb425 2.472 . S
O431 C434 1.264 . S
O432 Eu428 2.295 . S
O432 C438 1.242 . S
O433 Tb425 2.308 . S
O433 C438 1.243 . S
C434 C418 1.494 . S
C434 Tb425 2.821 . S
C434 O429 1.263 . S
C434 O431 1.264 . S
C435 O436 1.260 . S
C435 O439 1.264 . S
O436 C435 1.260 . S
C437 O424 1.242 . S
C437 O427 1.243 . S
C438 O432 1.242 . S
C438 O433 1.243 . S
O439 Eu428 2.312 . S
O439 C435 1.264 . S
C440 C430 1.494 . S
C440 C442 1.380 . S
C440 C443 1.387 . S
C441 C442 1.395 . S
C441 C445 1.393 . S
C442 C440 1.380 . S
C442 C441 1.395 . S
C442 H453 0.930 . S
C443 C440 1.387 . S
C443 C444 1.386 . S
C443 H454 0.930 . S
C444 C443 1.386 . S
C444 C445 1.397 . S
C445 C441 1.393 . S
C445 C444 1.397 . S
C445 H455 0.930 . S
C446 O426 1.264 . S
C446 O447 1.260 . S
O447 C446 1.260 . S
O448 Eu428 2.438 . S
O448 C430 1.263 . S
O449 Eu428 2.472 . S
O449 C430 1.264 . S
H450 C419 0.930 . S
H451 C421 0.930 . S
H452 C423 0.930 . S
H453 C442 0.930 . S
H454 C443 0.930 . S
H455 C445 0.930 . S
C456 C457 1.387 . S
C456 C461 1.380 . S
C456 C472 1.494 . S
C457 C456 1.387 . S
C457 C458 1.386 . S
C457 H488 0.930 . S
C458 C457 1.386 . S
C458 C459 1.397 . S
C459 C458 1.397 . S
C459 C460 1.393 . S
C459 H489 0.930 . S
C460 C459 1.393 . S
C460 C461 1.395 . S
C461 C456 1.380 . S
C461 C460 1.395 . S
C461 H490 0.930 . S
O462 Tb463 2.288 1_655 S
O462 C475 1.248 . S
Tb463 O462 2.288 1_455 S
Tb463 O464 2.312 1_455 S
Tb463 O467 2.438 . S
Tb463 O469 2.472 . S
Tb463 O471 2.308 . S
Tb463 C472 2.821 . S
O464 Tb463 2.312 1_655 S
O464 C484 1.264 . S
O465 Eu466 2.308 . S
O465 C475 1.243 . S
Eu466 O465 2.308 . S
Eu466 C468 2.821 . S
Eu466 O470 2.295 . S
Eu466 O477 2.312 . S
Eu466 O486 2.438 . S
Eu466 O487 2.472 . S
O467 Tb463 2.438 . S
O467 C472 1.263 . S
C468 Eu466 2.821 . S
C468 C478 1.494 . S
C468 O486 1.263 . S
C468 O487 1.264 . S
O469 Tb463 2.472 . S
O469 C472 1.264 . S
O470 Eu466 2.295 . S
O470 C476 1.242 . S
O471 Tb463 2.308 . S
O471 C476 1.244 1_455 S
C472 C456 1.494 . S
C472 Tb463 2.821 . S
C472 O467 1.263 . S
C472 O469 1.264 . S
C473 O474 1.260 . S
C473 O477 1.264 1_455 S
O474 C473 1.260 . S
C475 O462 1.248 . S
C475 O465 1.243 . S
C476 O470 1.242 . S
C476 O471 1.244 1_655 S
O477 Eu466 2.312 . S
O477 C473 1.264 1_655 S
C478 C468 1.494 . S
C478 C480 1.380 . S
C478 C481 1.387 . S
C479 C480 1.395 . S
C479 C483 1.393 . S
C480 C478 1.380 . S
C480 C479 1.395 . S
C480 H491 0.930 . S
C481 C478 1.387 . S
C481 C482 1.386 . S
C481 H492 0.930 . S
C482 C481 1.386 . S
C482 C483 1.397 . S
C483 C479 1.393 . S
C483 C482 1.397 . S
C483 H493 0.930 . S
C484 O464 1.264 . S
C484 O485 1.260 . S
O485 C484 1.260 . S
O486 Eu466 2.438 . S
O486 C468 1.263 . S
O487 Eu466 2.472 . S
O487 C468 1.264 . S
H488 C457 0.930 . S
H489 C459 0.930 . S
H490 C461 0.930 . S
H491 C480 0.930 . S
H492 C481 0.930 . S
H493 C483 0.930 . S
C494 C495 1.387 . S
C494 C499 1.380 . S
C494 C510 1.494 . S
C495 C494 1.387 . S
C495 C496 1.386 . S
C495 H526 0.930 . S
C496 C495 1.386 . S
C496 C497 1.397 . S
C497 C496 1.397 . S
C497 C498 1.393 . S
C497 H527 0.930 . S
C498 C497 1.393 . S
C498 C499 1.395 . S
C499 C494 1.380 . S
C499 C498 1.395 . S
C499 H528 0.930 . S
O500 Tb501 2.295 . S
O500 C513 1.242 . S
Tb501 O500 2.295 . S
Tb501 O502 2.312 . S
Tb501 O505 2.438 . S
Tb501 O507 2.472 . S
Tb501 O509 2.308 . S
Tb501 C510 2.821 . S
O502 Tb501 2.312 . S
O502 C522 1.264 . S
O503 Eu504 2.308 . S
O503 C513 1.243 . S
Eu504 O503 2.308 . S
Eu504 C506 2.821 . S
Eu504 O508 2.295 . S
Eu504 O515 2.312 . S
Eu504 O524 2.438 . S
Eu504 O525 2.472 . S
O505 Tb501 2.438 . S
O505 C510 1.263 . S
C506 Eu504 2.821 . S
C506 C516 1.494 . S
C506 O524 1.263 . S
C506 O525 1.264 . S
O507 Tb501 2.472 . S
O507 C510 1.264 . S
O508 Eu504 2.295 . S
O508 C514 1.242 . S
O509 Tb501 2.308 . S
O509 C514 1.243 . S
C510 C494 1.494 . S
C510 Tb501 2.821 . S
C510 O505 1.263 . S
C510 O507 1.264 . S
C511 O512 1.260 . S
C511 O515 1.264 . S
O512 C511 1.260 . S
C513 O500 1.242 . S
C513 O503 1.243 . S
C514 O508 1.242 . S
C514 O509 1.243 . S
O515 Eu504 2.312 . S
O515 C511 1.264 . S
C516 C506 1.494 . S
C516 C518 1.380 . S
C516 C519 1.387 . S
C517 C518 1.395 . S
C517 C521 1.393 . S
C518 C516 1.380 . S
C518 C517 1.395 . S
C518 H529 0.930 . S
C519 C516 1.387 . S
C519 C520 1.386 . S
C519 H530 0.930 . S
C520 C519 1.386 . S
C520 C521 1.397 . S
C521 C517 1.393 . S
C521 C520 1.397 . S
C521 H531 0.930 . S
C522 O502 1.264 . S
C522 O523 1.260 . S
O523 C522 1.260 . S
O524 Eu504 2.438 . S
O524 C506 1.263 . S
O525 Eu504 2.472 . S
O525 C506 1.264 . S
H526 C495 0.930 . S
H527 C497 0.930 . S
H528 C499 0.930 . S
H529 C518 0.930 . S
H530 C519 0.930 . S
H531 C521 0.930 . S
C532 C533 1.387 . S
C532 C537 1.380 . S
C532 C548 1.494 . S
C533 C532 1.387 . S
C533 C534 1.386 . S
C533 H564 0.930 . S
C534 C533 1.386 . S
C534 C535 1.397 . S
C535 C534 1.397 . S
C535 C536 1.393 . S
C535 H565 0.930 . S
C536 C535 1.393 . S
C536 C537 1.395 . S
C537 C532 1.380 . S
C537 C536 1.395 . S
C537 H566 0.930 . S
O538 Tb539 2.288 1_655 S
O538 C551 1.248 . S
Tb539 O538 2.288 1_455 S
Tb539 O540 2.312 1_455 S
Tb539 O543 2.438 . S
Tb539 O545 2.472 . S
Tb539 O547 2.308 . S
Tb539 C548 2.821 . S
O540 Tb539 2.312 1_655 S
O540 C560 1.264 . S
O541 Eu542 2.308 . S
O541 C551 1.243 . S
Eu542 O541 2.308 . S
Eu542 C544 2.821 . S
Eu542 O546 2.295 . S
Eu542 O553 2.312 . S
Eu542 O562 2.438 . S
Eu542 O563 2.472 . S
O543 Tb539 2.438 . S
O543 C548 1.263 . S
C544 Eu542 2.821 . S
C544 C554 1.494 . S
C544 O562 1.263 . S
C544 O563 1.264 . S
O545 Tb539 2.472 . S
O545 C548 1.264 . S
O546 Eu542 2.295 . S
O546 C552 1.242 . S
O547 Tb539 2.308 . S
O547 C552 1.244 1_455 S
C548 C532 1.494 . S
C548 Tb539 2.821 . S
C548 O543 1.263 . S
C548 O545 1.264 . S
C549 O550 1.260 . S
C549 O553 1.264 1_455 S
O550 C549 1.260 . S
C551 O538 1.248 . S
C551 O541 1.243 . S
C552 O546 1.242 . S
C552 O547 1.244 1_655 S
O553 Eu542 2.312 . S
O553 C549 1.264 1_655 S
C554 C544 1.494 . S
C554 C556 1.380 . S
C554 C557 1.387 . S
C555 C556 1.395 . S
C555 C559 1.393 . S
C556 C554 1.380 . S
C556 C555 1.395 . S
C556 H567 0.930 . S
C557 C554 1.387 . S
C557 C558 1.386 . S
C557 H568 0.930 . S
C558 C557 1.386 . S
C558 C559 1.397 . S
C559 C555 1.393 . S
C559 C558 1.397 . S
C559 H569 0.930 . S
C560 O540 1.264 . S
C560 O561 1.260 . S
O561 C560 1.260 . S
O562 Eu542 2.438 . S
O562 C544 1.263 . S
O563 Eu542 2.472 . S
O563 C544 1.264 . S
H564 C533 0.930 . S
H565 C535 0.930 . S
H566 C537 0.930 . S
H567 C556 0.930 . S
H568 C557 0.930 . S
H569 C559 0.930 . S
C570 C571 1.387 . S
C570 C575 1.380 . S
C570 C586 1.494 . S
C571 C570 1.387 . S
C571 C572 1.386 . S
C571 H602 0.930 . S
C572 C571 1.386 . S
C572 C573 1.397 . S
C573 C572 1.397 . S
C573 C574 1.393 . S
C573 H603 0.930 . S
C574 C573 1.393 . S
C574 C575 1.395 . S
C575 C570 1.380 . S
C575 C574 1.395 . S
C575 H604 0.930 . S
O576 Tb577 2.295 . S
O576 C589 1.242 . S
Tb577 O576 2.295 . S
Tb577 O578 2.312 . S
Tb577 O581 2.438 . S
Tb577 O583 2.472 . S
Tb577 O585 2.308 . S
Tb577 C586 2.821 . S
O578 Tb577 2.312 . S
O578 C598 1.264 . S
O579 Eu580 2.308 . S
O579 C589 1.243 . S
Eu580 O579 2.308 . S
Eu580 C582 2.821 . S
Eu580 O584 2.295 . S
Eu580 O591 2.312 . S
Eu580 O600 2.438 . S
Eu580 O601 2.472 . S
O581 Tb577 2.438 . S
O581 C586 1.263 . S
C582 Eu580 2.821 . S
C582 C592 1.494 . S
C582 O600 1.263 . S
C582 O601 1.264 . S
O583 Tb577 2.472 . S
O583 C586 1.264 . S
O584 Eu580 2.295 . S
O584 C590 1.242 . S
O585 Tb577 2.308 . S
O585 C590 1.243 . S
C586 C570 1.494 . S
C586 Tb577 2.821 . S
C586 O581 1.263 . S
C586 O583 1.264 . S
C587 O588 1.260 . S
C587 O591 1.264 . S
O588 C587 1.260 . S
C589 O576 1.242 . S
C589 O579 1.243 . S
C590 O584 1.242 . S
C590 O585 1.243 . S
O591 Eu580 2.312 . S
O591 C587 1.264 . S
C592 C582 1.494 . S
C592 C594 1.380 . S
C592 C595 1.387 . S
C593 C594 1.395 . S
C593 C597 1.393 . S
C594 C592 1.380 . S
C594 C593 1.395 . S
C594 H605 0.930 . S
C595 C592 1.387 . S
C595 C596 1.386 . S
C595 H606 0.930 . S
C596 C595 1.386 . S
C596 C597 1.397 . S
C597 C593 1.393 . S
C597 C596 1.397 . S
C597 H607 0.930 . S
C598 O578 1.264 . S
C598 O599 1.260 . S
O599 C598 1.260 . S
O600 Eu580 2.438 . S
O600 C582 1.263 . S
O601 Eu580 2.472 . S
O601 C582 1.264 . S
H602 C571 0.930 . S
H603 C573 0.930 . S
H604 C575 0.930 . S
H605 C594 0.930 . S
H606 C595 0.930 . S
H607 C597 0.930 . S
C608 C609 1.387 . S
C608 C613 1.380 . S
C608 C624 1.494 . S
C609 C608 1.387 . S
C609 C610 1.386 . S
C609 H640 0.930 . S
C610 C609 1.386 . S
C610 C611 1.397 . S
C611 C610 1.397 . S
C611 C612 1.393 . S
C611 H641 0.930 . S
C612 C611 1.393 . S
C612 C613 1.395 . S
C613 C608 1.380 . S
C613 C612 1.395 . S
C613 H642 0.930 . S
O614 Tb615 2.295 . S
O614 C627 1.242 . S
Tb615 O614 2.295 . S
Tb615 O616 2.312 . S
Tb615 O619 2.438 . S
Tb615 O621 2.472 . S
Tb615 O623 2.308 . S
Tb615 C624 2.821 . S
O616 Tb615 2.312 . S
O616 C636 1.264 . S
O617 Eu618 2.308 . S
O617 C627 1.243 . S
Eu618 O617 2.308 . S
Eu618 C620 2.821 . S
Eu618 O622 2.295 . S
Eu618 O629 2.312 . S
Eu618 O638 2.438 . S
Eu618 O639 2.472 . S
O619 Tb615 2.438 . S
O619 C624 1.263 . S
C620 Eu618 2.821 . S
C620 C630 1.494 . S
C620 O638 1.263 . S
C620 O639 1.264 . S
O621 Tb615 2.472 . S
O621 C624 1.264 . S
O622 Eu618 2.295 . S
O622 C628 1.242 . S
O623 Tb615 2.308 . S
O623 C628 1.243 . S
C624 C608 1.494 . S
C624 Tb615 2.821 . S
C624 O619 1.263 . S
C624 O621 1.264 . S
C625 O626 1.260 . S
C625 O629 1.264 . S
O626 C625 1.260 . S
C627 O614 1.242 . S
C627 O617 1.243 . S
C628 O622 1.242 . S
C628 O623 1.243 . S
O629 Eu618 2.312 . S
O629 C625 1.264 . S
C630 C620 1.494 . S
C630 C632 1.380 . S
C630 C633 1.387 . S
C631 C632 1.395 . S
C631 C635 1.393 . S
C632 C630 1.380 . S
C632 C631 1.395 . S
C632 H643 0.930 . S
C633 C630 1.387 . S
C633 C634 1.386 . S
C633 H644 0.930 . S
C634 C633 1.386 . S
C634 C635 1.397 . S
C635 C631 1.393 . S
C635 C634 1.397 . S
C635 H645 0.930 . S
C636 O616 1.264 . S
C636 O637 1.260 . S
O637 C636 1.260 . S
O638 Eu618 2.438 . S
O638 C620 1.263 . S
O639 Eu618 2.472 . S
O639 C620 1.264 . S
H640 C609 0.930 . S
H641 C611 0.930 . S
H642 C613 0.930 . S
H643 C632 0.930 . S
H644 C633 0.930 . S
H645 C635 0.930 . S
C646 C647 1.387 . S
C646 C651 1.380 . S
C646 C662 1.494 . S
C647 C646 1.387 . S
C647 C648 1.386 . S
C647 H678 0.930 . S
C648 C647 1.386 . S
C648 C649 1.397 . S
C649 C648 1.397 . S
C649 C650 1.393 . S
C649 H679 0.930 . S
C650 C649 1.393 . S
C650 C651 1.395 . S
C651 C646 1.380 . S
C651 C650 1.395 . S
C651 H680 0.930 . S
O652 Tb653 2.295 . S
O652 C665 1.242 . S
Tb653 O652 2.295 . S
Tb653 O654 2.312 . S
Tb653 O657 2.438 . S
Tb653 O659 2.472 . S
Tb653 O661 2.308 . S
Tb653 C662 2.821 . S
O654 Tb653 2.312 . S
O654 C674 1.264 . S
O655 Eu656 2.308 . S
O655 C665 1.243 . S
Eu656 O655 2.308 . S
Eu656 C658 2.821 . S
Eu656 O660 2.295 . S
Eu656 O667 2.312 1_565 S
Eu656 O676 2.438 . S
Eu656 O677 2.472 . S
O657 Tb653 2.438 . S
O657 C662 1.263 . S
C658 Eu656 2.821 . S
C658 C668 1.494 . S
C658 O676 1.263 . S
C658 O677 1.264 . S
O659 Tb653 2.472 . S
O659 C662 1.264 . S
O660 Eu656 2.295 . S
O660 C666 1.242 . S
O661 Tb653 2.308 . S
O661 C666 1.243 . S
C662 C646 1.494 . S
C662 Tb653 2.821 . S
C662 O657 1.263 . S
C662 O659 1.264 . S
C663 O664 1.260 . S
C663 O667 1.264 . S
O664 C663 1.260 . S
C665 O652 1.242 . S
C665 O655 1.243 . S
C666 O660 1.242 . S
C666 O661 1.243 . S
O667 Eu656 2.312 1_545 S
O667 C663 1.264 . S
C668 C658 1.494 . S
C668 C670 1.380 . S
C668 C671 1.387 . S
C669 C670 1.395 . S
C669 C673 1.393 . S
C670 C668 1.380 . S
C670 C669 1.395 . S
C670 H681 0.930 . S
C671 C668 1.387 . S
C671 C672 1.386 . S
C671 H682 0.930 1_565 S
C672 C671 1.386 . S
C672 C673 1.397 . S
C673 C669 1.393 . S
C673 C672 1.397 . S
C673 H683 0.930 . S
C674 O654 1.264 . S
C674 O675 1.260 . S
O675 C674 1.260 . S
O676 Eu656 2.438 . S
O676 C658 1.263 . S
O677 Eu656 2.472 . S
O677 C658 1.264 . S
H678 C647 0.930 . S
H679 C649 0.930 . S
H680 C651 0.930 . S
H681 C670 0.930 . S
H682 C671 0.930 1_545 S
H683 C673 0.930 . S
C684 C685 1.387 . S
C684 C689 1.380 . S
C684 C700 1.494 . S
C685 C684 1.387 . S
C685 C686 1.386 . S
C685 H716 0.930 . S
C686 C685 1.386 . S
C686 C687 1.397 . S
C687 C686 1.397 . S
C687 C688 1.393 . S
C687 H717 0.930 . S
C688 C687 1.393 . S
C688 C689 1.395 . S
C689 C684 1.380 . S
C689 C688 1.395 . S
C689 H718 0.930 . S
O690 Tb691 2.295 . S
O690 C703 1.242 . S
Tb691 O690 2.295 . S
Tb691 O692 2.312 . S
Tb691 O695 2.438 . S
Tb691 O697 2.472 . S
Tb691 O699 2.308 . S
Tb691 C700 2.821 . S
O692 Tb691 2.312 . S
O692 C712 1.264 . S
O693 Eu694 2.308 . S
O693 C703 1.243 . S
Eu694 O693 2.308 . S
Eu694 C696 2.821 . S
Eu694 O698 2.295 . S
Eu694 O705 2.312 1_565 S
Eu694 O714 2.438 . S
Eu694 O715 2.472 . S
O695 Tb691 2.438 . S
O695 C700 1.263 . S
C696 Eu694 2.821 . S
C696 C706 1.494 . S
C696 O714 1.263 . S
C696 O715 1.264 . S
O697 Tb691 2.472 . S
O697 C700 1.264 . S
O698 Eu694 2.295 . S
O698 C704 1.242 . S
O699 Tb691 2.308 . S
O699 C704 1.243 . S
C700 C684 1.494 . S
C700 Tb691 2.821 . S
C700 O695 1.263 . S
C700 O697 1.264 . S
C701 O702 1.260 . S
C701 O705 1.264 . S
O702 C701 1.260 . S
C703 O690 1.242 . S
C703 O693 1.243 . S
C704 O698 1.242 . S
C704 O699 1.243 . S
O705 Eu694 2.312 1_545 S
O705 C701 1.264 . S
C706 C696 1.494 . S
C706 C708 1.380 . S
C706 C709 1.387 . S
C707 C708 1.395 . S
C707 C711 1.393 . S
C708 C706 1.380 . S
C708 C707 1.395 . S
C708 H719 0.930 . S
C709 C706 1.387 . S
C709 C710 1.386 . S
C709 H720 0.930 1_565 S
C710 C709 1.386 . S
C710 C711 1.397 . S
C711 C707 1.393 . S
C711 C710 1.397 . S
C711 H721 0.930 . S
C712 O692 1.264 . S
C712 O713 1.260 . S
O713 C712 1.260 . S
O714 Eu694 2.438 . S
O714 C696 1.263 . S
O715 Eu694 2.472 . S
O715 C696 1.264 . S
H716 C685 0.930 . S
H717 C687 0.930 . S
H718 C689 0.930 . S
H719 C708 0.930 . S
H720 C709 0.930 1_545 S
H721 C711 0.930 . S
C722 C723 1.387 . S
C722 C727 1.380 . S
C722 C738 1.494 . S
C723 C722 1.387 . S
C723 C724 1.386 . S
C723 H754 0.930 . S
C724 C723 1.386 . S
C724 C725 1.397 . S
C725 C724 1.397 . S
C725 C726 1.393 . S
C725 H755 0.930 . S
C726 C725 1.393 . S
C726 C727 1.395 . S
C727 C722 1.380 . S
C727 C726 1.395 . S
C727 H756 0.930 . S
O728 Tb729 2.295 . S
O728 C741 1.242 . S
Tb729 O728 2.295 . S
Tb729 O730 2.312 . S
Tb729 O733 2.438 . S
Tb729 O735 2.472 . S
Tb729 O737 2.308 . S
Tb729 C738 2.821 . S
O730 Tb729 2.312 . S
O730 C750 1.264 . S
O731 Eu732 2.308 . S
O731 C741 1.243 . S
Eu732 O731 2.308 . S
Eu732 C734 2.821 . S
Eu732 O736 2.295 . S
Eu732 O743 2.312 . S
Eu732 O752 2.438 . S
Eu732 O753 2.472 . S
O733 Tb729 2.438 . S
O733 C738 1.263 . S
C734 Eu732 2.821 . S
C734 C744 1.494 . S
C734 O752 1.263 . S
C734 O753 1.264 . S
O735 Tb729 2.472 . S
O735 C738 1.264 . S
O736 Eu732 2.295 . S
O736 C742 1.242 . S
O737 Tb729 2.308 . S
O737 C742 1.243 . S
C738 C722 1.494 . S
C738 Tb729 2.821 . S
C738 O733 1.263 . S
C738 O735 1.264 . S
C739 O740 1.260 . S
C739 O743 1.264 . S
O740 C739 1.260 . S
C741 O728 1.242 . S
C741 O731 1.243 . S
C742 O736 1.242 . S
C742 O737 1.243 . S
O743 Eu732 2.312 . S
O743 C739 1.264 . S
C744 C734 1.494 . S
C744 C746 1.380 . S
C744 C747 1.387 . S
C745 C746 1.395 . S
C745 C749 1.393 . S
C746 C744 1.380 . S
C746 C745 1.395 . S
C746 H757 0.930 . S
C747 C744 1.387 . S
C747 C748 1.386 . S
C747 H758 0.930 . S
C748 C747 1.386 . S
C748 C749 1.397 . S
C749 C745 1.393 . S
C749 C748 1.397 . S
C749 H759 0.930 . S
C750 O730 1.264 . S
C750 O751 1.260 . S
O751 C750 1.260 . S
O752 Eu732 2.438 . S
O752 C734 1.263 . S
O753 Eu732 2.472 . S
O753 C734 1.264 . S
H754 C723 0.930 . S
H755 C725 0.930 . S
H756 C727 0.930 . S
H757 C746 0.930 . S
H758 C747 0.930 . S
H759 C749 0.930 . S
C760 C761 1.387 . S
C760 C765 1.380 . S
C760 C776 1.494 . S
C761 C760 1.387 . S
C761 C762 1.386 . S
C761 H792 0.930 . S
C762 C761 1.386 . S
C762 C763 1.397 . S
C763 C762 1.397 . S
C763 C764 1.393 . S
C763 H793 0.930 . S
C764 C763 1.393 . S
C764 C765 1.395 . S
C765 C760 1.380 . S
C765 C764 1.395 . S
C765 H794 0.930 . S
O766 Tb767 2.295 . S
O766 C779 1.242 . S
Tb767 O766 2.295 . S
Tb767 O768 2.312 . S
Tb767 O771 2.438 . S
Tb767 O773 2.472 . S
Tb767 O775 2.308 . S
Tb767 C776 2.821 . S
O768 Tb767 2.312 . S
O768 C788 1.264 . S
O769 Eu770 2.308 . S
O769 C779 1.243 . S
Eu770 O769 2.308 . S
Eu770 C772 2.821 . S
Eu770 O774 2.295 . S
Eu770 O781 2.312 . S
Eu770 O790 2.438 . S
Eu770 O791 2.472 . S
O771 Tb767 2.438 . S
O771 C776 1.263 . S
C772 Eu770 2.821 . S
C772 C782 1.494 . S
C772 O790 1.263 . S
C772 O791 1.264 . S
O773 Tb767 2.472 . S
O773 C776 1.264 . S
O774 Eu770 2.295 . S
O774 C780 1.242 . S
O775 Tb767 2.308 . S
O775 C780 1.243 . S
C776 C760 1.494 . S
C776 Tb767 2.821 . S
C776 O771 1.263 . S
C776 O773 1.264 . S
C777 O778 1.260 . S
C777 O781 1.264 . S
O778 C777 1.260 . S
C779 O766 1.242 . S
C779 O769 1.243 . S
C780 O774 1.242 . S
C780 O775 1.243 . S
O781 Eu770 2.312 . S
O781 C777 1.264 . S
C782 C772 1.494 . S
C782 C784 1.380 . S
C782 C785 1.387 . S
C783 C784 1.395 . S
C783 C787 1.393 . S
C784 C782 1.380 . S
C784 C783 1.395 . S
C784 H795 0.930 . S
C785 C782 1.387 . S
C785 C786 1.386 . S
C785 H796 0.930 . S
C786 C785 1.386 . S
C786 C787 1.397 . S
C787 C783 1.393 . S
C787 C786 1.397 . S
C787 H797 0.930 . S
C788 O768 1.264 . S
C788 O789 1.260 . S
O789 C788 1.260 . S
O790 Eu770 2.438 . S
O790 C772 1.263 . S
O791 Eu770 2.472 . S
O791 C772 1.264 . S
H792 C761 0.930 . S
H793 C763 0.930 . S
H794 C765 0.930 . S
H795 C784 0.930 . S
H796 C785 0.930 . S
H797 C787 0.930 . S
C798 C799 1.387 . S
C798 C803 1.380 . S
C798 C814 1.494 . S
C799 C798 1.387 . S
C799 C800 1.386 . S
C799 H830 0.930 1_545 S
C800 C799 1.386 . S
C800 C801 1.397 . S
C801 C800 1.397 . S
C801 C802 1.393 . S
C801 H831 0.930 . S
C802 C801 1.393 . S
C802 C803 1.395 . S
C803 C798 1.380 . S
C803 C802 1.395 . S
C803 H832 0.930 . S
O804 Tb805 2.295 . S
O804 C817 1.242 . S
Tb805 O804 2.295 . S
Tb805 O806 2.312 1_545 S
Tb805 O809 2.438 . S
Tb805 O811 2.472 . S
Tb805 O813 2.308 . S
Tb805 C814 2.821 . S
O806 Tb805 2.312 1_565 S
O806 C826 1.264 . S
O807 Eu808 2.308 . S
O807 C817 1.243 . S
Eu808 O807 2.308 . S
Eu808 C810 2.821 . S
Eu808 O812 2.295 . S
Eu808 O819 2.312 . S
Eu808 O828 2.438 . S
Eu808 O829 2.472 . S
O809 Tb805 2.438 . S
O809 C814 1.263 . S
C810 Eu808 2.821 . S
C810 C820 1.494 . S
C810 O828 1.263 . S
C810 O829 1.264 . S
O811 Tb805 2.472 . S
O811 C814 1.264 . S
O812 Eu808 2.295 . S
O812 C818 1.242 . S
O813 Tb805 2.308 . S
O813 C818 1.243 . S
C814 C798 1.494 . S
C814 Tb805 2.821 . S
C814 O809 1.263 . S
C814 O811 1.264 . S
C815 O816 1.260 . S
C815 O819 1.264 . S
O816 C815 1.260 . S
C817 O804 1.242 . S
C817 O807 1.243 . S
C818 O812 1.242 . S
C818 O813 1.243 . S
O819 Eu808 2.312 . S
O819 C815 1.264 . S
C820 C810 1.494 . S
C820 C822 1.380 . S
C820 C823 1.387 . S
C821 C822 1.395 . S
C821 C825 1.393 . S
C822 C820 1.380 . S
C822 C821 1.395 . S
C822 H833 0.930 . S
C823 C820 1.387 . S
C823 C824 1.386 . S
C823 H834 0.930 . S
C824 C823 1.386 . S
C824 C825 1.397 . S
C825 C821 1.393 . S
C825 C824 1.397 . S
C825 H835 0.930 . S
C826 O806 1.264 . S
C826 O827 1.260 . S
O827 C826 1.260 . S
O828 Eu808 2.438 . S
O828 C810 1.263 . S
O829 Eu808 2.472 . S
O829 C810 1.264 . S
H830 C799 0.930 1_565 S
H831 C801 0.930 . S
H832 C803 0.930 . S
H833 C822 0.930 . S
H834 C823 0.930 . S
H835 C825 0.930 . S
C836 C837 1.387 . S
C836 C841 1.380 . S
C836 C852 1.494 . S
C837 C836 1.387 . S
C837 C838 1.386 . S
C837 H868 0.930 1_545 S
C838 C837 1.386 . S
C838 C839 1.397 . S
C839 C838 1.397 . S
C839 C840 1.393 . S
C839 H869 0.930 . S
C840 C839 1.393 . S
C840 C841 1.395 . S
C841 C836 1.380 . S
C841 C840 1.395 . S
C841 H870 0.930 . S
O842 Tb843 2.295 . S
O842 C855 1.242 . S
Tb843 O842 2.295 . S
Tb843 O844 2.312 1_545 S
Tb843 O847 2.438 . S
Tb843 O849 2.472 . S
Tb843 O851 2.308 . S
Tb843 C852 2.821 . S
O844 Tb843 2.312 1_565 S
O844 C864 1.264 . S
O845 Eu846 2.308 . S
O845 C855 1.243 . S
Eu846 O845 2.308 . S
Eu846 C848 2.821 . S
Eu846 O850 2.295 . S
Eu846 O857 2.312 . S
Eu846 O866 2.438 . S
Eu846 O867 2.472 . S
O847 Tb843 2.438 . S
O847 C852 1.263 . S
C848 Eu846 2.821 . S
C848 C858 1.494 . S
C848 O866 1.263 . S
C848 O867 1.264 . S
O849 Tb843 2.472 . S
O849 C852 1.264 . S
O850 Eu846 2.295 . S
O850 C856 1.242 . S
O851 Tb843 2.308 . S
O851 C856 1.243 . S
C852 C836 1.494 . S
C852 Tb843 2.821 . S
C852 O847 1.263 . S
C852 O849 1.264 . S
C853 O854 1.260 . S
C853 O857 1.264 . S
O854 C853 1.260 . S
C855 O842 1.242 . S
C855 O845 1.243 . S
C856 O850 1.242 . S
C856 O851 1.243 . S
O857 Eu846 2.312 . S
O857 C853 1.264 . S
C858 C848 1.494 . S
C858 C860 1.380 . S
C858 C861 1.387 . S
C859 C860 1.395 . S
C859 C863 1.393 . S
C860 C858 1.380 . S
C860 C859 1.395 . S
C860 H871 0.930 . S
C861 C858 1.387 . S
C861 C862 1.386 . S
C861 H872 0.930 . S
C862 C861 1.386 . S
C862 C863 1.397 . S
C863 C859 1.393 . S
C863 C862 1.397 . S
C863 H873 0.930 . S
C864 O844 1.264 . S
C864 O865 1.260 . S
O865 C864 1.260 . S
O866 Eu846 2.438 . S
O866 C848 1.263 . S
O867 Eu846 2.472 . S
O867 C848 1.264 . S
H868 C837 0.930 1_565 S
H869 C839 0.930 . S
H870 C841 0.930 . S
H871 C860 0.930 . S
H872 C861 0.930 . S
H873 C863 0.930 . S
C874 C875 1.387 . S
C874 C879 1.380 . S
C874 C890 1.494 . S
C875 C874 1.387 . S
C875 C876 1.386 . S
C875 H906 0.930 . S
C876 C875 1.386 . S
C876 C877 1.397 . S
C877 C876 1.397 . S
C877 C878 1.393 . S
C877 H907 0.930 . S
C878 C877 1.393 . S
C878 C879 1.395 . S
C879 C874 1.380 . S
C879 C878 1.395 . S
C879 H908 0.930 . S
O880 Tb881 2.295 . S
O880 C893 1.242 . S
Tb881 O880 2.295 . S
Tb881 O882 2.312 . S
Tb881 O885 2.438 . S
Tb881 O887 2.472 . S
Tb881 O889 2.308 . S
Tb881 C890 2.821 . S
O882 Tb881 2.312 . S
O882 C902 1.264 . S
O883 Eu884 2.308 . S
O883 C893 1.243 . S
Eu884 O883 2.308 . S
Eu884 C886 2.821 . S
Eu884 O888 2.295 . S
Eu884 O895 2.312 . S
Eu884 O904 2.438 . S
Eu884 O905 2.472 . S
O885 Tb881 2.438 . S
O885 C890 1.263 . S
C886 Eu884 2.821 . S
C886 C896 1.494 . S
C886 O904 1.263 . S
C886 O905 1.264 . S
O887 Tb881 2.472 . S
O887 C890 1.264 . S
O888 Eu884 2.295 . S
O888 C894 1.242 . S
O889 Tb881 2.308 . S
O889 C894 1.243 . S
C890 C874 1.494 . S
C890 Tb881 2.821 . S
C890 O885 1.263 . S
C890 O887 1.264 . S
C891 O892 1.260 . S
C891 O895 1.264 . S
O892 C891 1.260 . S
C893 O880 1.242 . S
C893 O883 1.243 . S
C894 O888 1.242 . S
C894 O889 1.243 . S
O895 Eu884 2.312 . S
O895 C891 1.264 . S
C896 C886 1.494 . S
C896 C898 1.380 . S
C896 C899 1.387 . S
C897 C898 1.395 . S
C897 C901 1.393 . S
C898 C896 1.380 . S
C898 C897 1.395 . S
C898 H909 0.930 . S
C899 C896 1.387 . S
C899 C900 1.386 . S
C899 H910 0.930 . S
C900 C899 1.386 . S
C900 C901 1.397 . S
C901 C897 1.393 . S
C901 C900 1.397 . S
C901 H911 0.930 . S
C902 O882 1.264 . S
C902 O903 1.260 . S
O903 C902 1.260 . S
O904 Eu884 2.438 . S
O904 C886 1.263 . S
O905 Eu884 2.472 . S
O905 C886 1.264 . S
H906 C875 0.930 . S
H907 C877 0.930 . S
H908 C879 0.930 . S
H909 C898 0.930 . S
H910 C899 0.930 . S
H911 C901 0.930 . S
C912 C913 1.387 . S
C912 C917 1.380 . S
C912 C928 1.494 . S
C913 C912 1.387 . S
C913 C914 1.386 . S
C913 H944 0.930 . S
C914 C913 1.386 . S
C914 C915 1.397 . S
C915 C914 1.397 . S
C915 C916 1.393 . S
C915 H945 0.930 . S
C916 C915 1.393 . S
C916 C917 1.395 . S
C917 C912 1.380 . S
C917 C916 1.395 . S
C917 H946 0.930 . S
O918 Tb919 2.295 1_554 S
O918 C931 1.242 . S
Tb919 O918 2.295 1_556 S
Tb919 O920 2.312 . S
Tb919 O923 2.433 1_556 S
Tb919 O925 2.472 1_556 S
Tb919 O927 2.308 . S
Tb919 C928 2.821 1_556 S
O920 Tb919 2.312 . S
O920 C940 1.264 . S
O921 Eu922 2.308 . S
O921 C931 1.243 . S
Eu922 O921 2.308 . S
Eu922 C924 2.821 . S
Eu922 O926 2.295 . S
Eu922 O933 2.312 . S
Eu922 O942 2.438 . S
Eu922 O943 2.472 . S
O923 Tb919 2.433 1_554 S
O923 C928 1.269 . S
C924 Eu922 2.821 . S
C924 C934 1.494 . S
C924 O942 1.263 . S
C924 O943 1.264 . S
O925 Tb919 2.472 1_554 S
O925 C928 1.264 . S
O926 Eu922 2.295 . S
O926 C932 1.242 1_554 S
O927 Tb919 2.308 . S
O927 C932 1.243 . S
C928 C912 1.494 . S
C928 Tb919 2.821 1_554 S
C928 O923 1.269 . S
C928 O925 1.264 . S
C929 O930 1.260 . S
C929 O933 1.264 . S
O930 C929 1.260 . S
C931 O918 1.242 . S
C931 O921 1.243 . S
C932 O926 1.242 1_556 S
C932 O927 1.243 . S
O933 Eu922 2.312 . S
O933 C929 1.264 . S
C934 C924 1.494 . S
C934 C936 1.380 . S
C934 C937 1.387 . S
C935 C936 1.382 1_556 S
C935 C939 1.395 . S
C936 C934 1.380 . S
C936 C935 1.382 1_554 S
C936 H947 0.930 . S
C937 C934 1.387 . S
C937 C938 1.386 . S
C937 H948 0.930 . S
C938 C937 1.386 . S
C938 C939 1.397 1_554 S
C939 C935 1.395 . S
C939 C938 1.397 1_556 S
C939 H949 0.930 . S
C940 O920 1.264 . S
C940 O941 1.260 . S
O941 C940 1.260 . S
O942 Eu922 2.438 . S
O942 C924 1.263 . S
O943 Eu922 2.472 . S
O943 C924 1.264 . S
H944 C913 0.930 . S
H945 C915 0.930 . S
H946 C917 0.930 . S
H947 C936 0.930 . S
H948 C937 0.930 . S
H949 C939 0.930 . S
C950 C951 1.387 . S
C950 C955 1.380 . S
C950 C966 1.494 . S
C951 C950 1.387 . S
C951 C952 1.386 . S
C951 H982 0.930 . S
C952 C951 1.386 . S
C952 C953 1.397 . S
C953 C952 1.397 . S
C953 C954 1.393 . S
C953 H983 0.930 . S
C954 C953 1.393 . S
C954 C955 1.395 . S
C955 C950 1.380 . S
C955 C954 1.395 . S
C955 H984 0.930 . S
O956 Tb957 2.295 1_554 S
O956 C969 1.242 . S
Tb957 O956 2.295 1_556 S
Tb957 O958 2.312 . S
Tb957 O961 2.433 1_556 S
Tb957 O963 2.472 1_556 S
Tb957 O965 2.308 . S
Tb957 C966 2.821 1_556 S
O958 Tb957 2.312 . S
O958 C978 1.264 . S
O959 Eu960 2.308 . S
O959 C969 1.243 . S
Eu960 O959 2.308 . S
Eu960 C962 2.821 . S
Eu960 O964 2.295 . S
Eu960 O971 2.312 . S
Eu960 O980 2.438 . S
Eu960 O981 2.472 . S
O961 Tb957 2.433 1_554 S
O961 C966 1.269 . S
C962 Eu960 2.821 . S
C962 C972 1.494 . S
C962 O980 1.263 . S
C962 O981 1.264 . S
O963 Tb957 2.472 1_554 S
O963 C966 1.264 . S
O964 Eu960 2.295 . S
O964 C970 1.242 1_554 S
O965 Tb957 2.308 . S
O965 C970 1.243 . S
C966 C950 1.494 . S
C966 Tb957 2.821 1_554 S
C966 O961 1.269 . S
C966 O963 1.264 . S
C967 O968 1.260 . S
C967 O971 1.264 . S
O968 C967 1.260 . S
C969 O956 1.242 . S
C969 O959 1.243 . S
C970 O964 1.242 1_556 S
C970 O965 1.243 . S
O971 Eu960 2.312 . S
O971 C967 1.264 . S
C972 C962 1.494 . S
C972 C974 1.380 . S
C972 C975 1.387 . S
C973 C974 1.383 1_556 S
C973 C977 1.395 . S
C974 C972 1.380 . S
C974 C973 1.383 1_554 S
C974 H985 0.930 . S
C975 C972 1.387 . S
C975 C976 1.386 . S
C975 H986 0.930 . S
C976 C975 1.386 . S
C976 C977 1.397 1_554 S
C977 C973 1.395 . S
C977 C976 1.397 1_556 S
C977 H987 0.930 . S
C978 O958 1.264 . S
C978 O979 1.260 . S
O979 C978 1.260 . S
O980 Eu960 2.438 . S
O980 C962 1.263 . S
O981 Eu960 2.472 . S
O981 C962 1.264 . S
H982 C951 0.930 . S
H983 C953 0.930 . S
H984 C955 0.930 . S
H985 C974 0.930 . S
H986 C975 0.930 . S
H987 C977 0.930 . S
C988 C989 1.387 . S
C988 C993 1.380 . S
C988 C1004 1.494 . S
C989 C988 1.387 . S
C989 C990 1.386 . S
C989 H1020 0.930 . S
C990 C989 1.386 . S
C990 C991 1.397 . S
C991 C990 1.397 . S
C991 C992 1.393 . S
C991 H1021 0.930 . S
C992 C991 1.393 . S
C992 C993 1.395 . S
C993 C988 1.380 . S
C993 C992 1.395 . S
C993 H1022 0.930 . S
O994 Tb995 2.295 . S
O994 C1007 1.242 . S
Tb995 O994 2.295 . S
Tb995 O996 2.312 . S
Tb995 O999 2.438 . S
Tb995 O1001 2.472 . S
Tb995 O1003 2.308 . S
Tb995 C1004 2.821 . S
O996 Tb995 2.312 . S
O996 C1016 1.264 . S
O997 Eu998 2.308 . S
O997 C1007 1.243 . S
Eu998 O997 2.308 . S
Eu998 C1000 2.821 . S
Eu998 O1002 2.295 . S
Eu998 O1009 2.312 . S
Eu998 O1018 2.438 . S
Eu998 O1019 2.472 . S
O999 Tb995 2.438 . S
O999 C1004 1.263 . S
C1000 Eu998 2.821 . S
C1000 C1010 1.494 . S
C1000 O1018 1.263 . S
C1000 O1019 1.264 . S
O1001 Tb995 2.472 . S
O1001 C1004 1.264 . S
O1002 Eu998 2.295 . S
O1002 C1008 1.242 . S
O1003 Tb995 2.308 . S
O1003 C1008 1.243 . S
C1004 C988 1.494 . S
C1004 Tb995 2.821 . S
C1004 O999 1.263 . S
C1004 O1001 1.264 . S
C1005 O1006 1.260 . S
C1005 O1009 1.264 . S
O1006 C1005 1.260 . S
C1007 O994 1.242 . S
C1007 O997 1.243 . S
C1008 O1002 1.242 . S
C1008 O1003 1.243 . S
O1009 Eu998 2.312 . S
O1009 C1005 1.264 . S
C1010 C1000 1.494 . S
C1010 C1012 1.380 . S
C1010 C1013 1.387 . S
C1011 C1012 1.395 . S
C1011 C1015 1.393 . S
C1012 C1010 1.380 . S
C1012 C1011 1.395 . S
C1012 H1023 0.930 . S
C1013 C1010 1.387 . S
C1013 C1014 1.386 . S
C1013 H1024 0.930 . S
C1014 C1013 1.386 . S
C1014 C1015 1.397 . S
C1015 C1011 1.393 . S
C1015 C1014 1.397 . S
C1015 H1025 0.930 . S
C1016 O996 1.264 . S
C1016 O1017 1.260 . S
O1017 C1016 1.260 . S
O1018 Eu998 2.438 . S
O1018 C1000 1.263 . S
O1019 Eu998 2.472 . S
O1019 C1000 1.264 . S
H1020 C989 0.930 . S
H1021 C991 0.930 . S
H1022 C993 0.930 . S
H1023 C1012 0.930 . S
H1024 C1013 0.930 . S
H1025 C1015 0.930 . S
C1026 C1027 1.387 . S
C1026 C1031 1.380 . S
C1026 C1042 1.494 . S
C1027 C1026 1.387 . S
C1027 C1028 1.386 . S
C1027 H1058 0.930 . S
C1028 C1027 1.386 . S
C1028 C1029 1.397 . S
C1029 C1028 1.397 . S
C1029 C1030 1.393 . S
C1029 H1059 0.930 . S
C1030 C1029 1.393 . S
C1030 C1031 1.395 . S
C1031 C1026 1.380 . S
C1031 C1030 1.395 . S
C1031 H1060 0.930 . S
O1032 Tb1033 2.295 . S
O1032 C1045 1.242 . S
Tb1033 O1032 2.295 . S
Tb1033 O1034 2.312 . S
Tb1033 O1037 2.438 . S
Tb1033 O1039 2.472 . S
Tb1033 O1041 2.308 . S
Tb1033 C1042 2.821 . S
O1034 Tb1033 2.312 . S
O1034 C1054 1.264 . S
O1035 Eu1036 2.308 . S
O1035 C1045 1.243 . S
Eu1036 O1035 2.308 . S
Eu1036 C1038 2.821 . S
Eu1036 O1040 2.295 . S
Eu1036 O1047 2.312 . S
Eu1036 O1056 2.438 . S
Eu1036 O1057 2.472 . S
O1037 Tb1033 2.438 . S
O1037 C1042 1.263 . S
C1038 Eu1036 2.821 . S
C1038 C1048 1.494 . S
C1038 O1056 1.263 . S
C1038 O1057 1.264 . S
O1039 Tb1033 2.472 . S
O1039 C1042 1.264 . S
O1040 Eu1036 2.295 . S
O1040 C1046 1.242 . S
O1041 Tb1033 2.308 . S
O1041 C1046 1.243 . S
C1042 C1026 1.494 . S
C1042 Tb1033 2.821 . S
C1042 O1037 1.263 . S
C1042 O1039 1.264 . S
C1043 O1044 1.260 . S
C1043 O1047 1.264 . S
O1044 C1043 1.260 . S
C1045 O1032 1.242 . S
C1045 O1035 1.243 . S
C1046 O1040 1.242 . S
C1046 O1041 1.243 . S
O1047 Eu1036 2.312 . S
O1047 C1043 1.264 . S
C1048 C1038 1.494 . S
C1048 C1050 1.380 . S
C1048 C1051 1.387 . S
C1049 C1050 1.395 . S
C1049 C1053 1.393 . S
C1050 C1048 1.380 . S
C1050 C1049 1.395 . S
C1050 H1061 0.930 . S
C1051 C1048 1.387 . S
C1051 C1052 1.386 . S
C1051 H1062 0.930 . S
C1052 C1051 1.386 . S
C1052 C1053 1.397 . S
C1053 C1049 1.393 . S
C1053 C1052 1.397 . S
C1053 H1063 0.930 . S
C1054 O1034 1.264 . S
C1054 O1055 1.260 . S
O1055 C1054 1.260 . S
O1056 Eu1036 2.438 . S
O1056 C1038 1.263 . S
O1057 Eu1036 2.472 . S
O1057 C1038 1.264 . S
H1058 C1027 0.930 . S
H1059 C1029 0.930 . S
H1060 C1031 0.930 . S
H1061 C1050 0.930 . S
H1062 C1051 0.930 . S
H1063 C1053 0.930 . S
C1064 C1065 1.387 . S
C1064 C1069 1.380 . S
C1064 C1080 1.494 . S
C1065 C1064 1.387 . S
C1065 C1066 1.386 . S
C1065 H1096 0.930 . S
C1066 C1065 1.386 . S
C1066 C1067 1.397 1_556 S
C1067 C1066 1.397 1_554 S
C1067 C1068 1.395 . S
C1067 H1097 0.930 . S
C1068 C1067 1.395 . S
C1068 C1069 1.382 1_554 S
C1069 C1064 1.380 . S
C1069 C1068 1.382 1_556 S
C1069 H1098 0.930 . S
O1070 Tb1071 2.295 . S
O1070 C1083 1.242 1_556 S
Tb1071 O1070 2.295 . S
Tb1071 O1072 2.312 . S
Tb1071 O1075 2.438 . S
Tb1071 O1077 2.472 . S
Tb1071 O1079 2.308 . S
Tb1071 C1080 2.821 . S
O1072 Tb1071 2.312 . S
O1072 C1092 1.264 . S
O1073 Eu1074 2.308 . S
O1073 C1083 1.243 . S
Eu1074 O1073 2.308 . S
Eu1074 C1076 2.821 1_554 S
Eu1074 O1078 2.295 1_554 S
Eu1074 O1085 2.312 . S
Eu1074 O1094 2.433 1_554 S
Eu1074 O1095 2.472 1_554 S
O1075 Tb1071 2.438 . S
O1075 C1080 1.263 . S
C1076 Eu1074 2.821 1_556 S
C1076 C1086 1.494 . S
C1076 O1094 1.269 . S
C1076 O1095 1.264 . S
O1077 Tb1071 2.472 . S
O1077 C1080 1.264 . S
O1078 Eu1074 2.295 1_556 S
O1078 C1084 1.242 . S
O1079 Tb1071 2.308 . S
O1079 C1084 1.243 . S
C1080 C1064 1.494 . S
C1080 Tb1071 2.821 . S
C1080 O1075 1.263 . S
C1080 O1077 1.264 . S
C1081 O1082 1.260 . S
C1081 O1085 1.264 . S
O1082 C1081 1.260 . S
C1083 O1070 1.242 1_554 S
C1083 O1073 1.243 . S
C1084 O1078 1.242 . S
C1084 O1079 1.243 . S
O1085 Eu1074 2.312 . S
O1085 C1081 1.264 . S
C1086 C1076 1.494 . S
C1086 C1088 1.380 . S
C1086 C1089 1.387 . S
C1087 C1088 1.395 . S
C1087 C1091 1.393 . S
C1088 C1086 1.380 . S
C1088 C1087 1.395 . S
C1088 H1099 0.930 . S
C1089 C1086 1.387 . S
C1089 C1090 1.386 . S
C1089 H1100 0.930 . S
C1090 C1089 1.386 . S
C1090 C1091 1.397 . S
C1091 C1087 1.393 . S
C1091 C1090 1.397 . S
C1091 H1101 0.930 . S
C1092 O1072 1.264 . S
C1092 O1093 1.260 . S
O1093 C1092 1.260 . S
O1094 Eu1074 2.433 1_556 S
O1094 C1076 1.269 . S
O1095 Eu1074 2.472 1_556 S
O1095 C1076 1.264 . S
H1096 C1065 0.930 . S
H1097 C1067 0.930 . S
H1098 C1069 0.930 . S
H1099 C1088 0.930 . S
H1100 C1089 0.930 . S
H1101 C1091 0.930 . S
C1102 C1103 1.387 . S
C1102 C1107 1.380 . S
C1102 C1118 1.494 . S
C1103 C1102 1.387 . S
C1103 C1104 1.386 . S
C1103 H1134 0.930 . S
C1104 C1103 1.386 . S
C1104 C1105 1.397 1_556 S
C1105 C1104 1.397 1_554 S
C1105 C1106 1.395 . S
C1105 H1135 0.930 . S
C1106 C1105 1.395 . S
C1106 C1107 1.383 1_554 S
C1107 C1102 1.380 . S
C1107 C1106 1.383 1_556 S
C1107 H1136 0.930 . S
O1108 Tb1109 2.295 . S
O1108 C1121 1.242 1_556 S
Tb1109 O1108 2.295 . S
Tb1109 O1110 2.312 . S
Tb1109 O1113 2.438 . S
Tb1109 O1115 2.472 . S
Tb1109 O1117 2.308 . S
Tb1109 C1118 2.821 . S
O1110 Tb1109 2.312 . S
O1110 C1130 1.264 . S
O1111 Eu1112 2.308 . S
O1111 C1121 1.243 . S
Eu1112 O1111 2.308 . S
Eu1112 C1114 2.821 1_554 S
Eu1112 O1116 2.295 1_554 S
Eu1112 O1123 2.312 . S
Eu1112 O1132 2.433 1_554 S
Eu1112 O1133 2.472 1_554 S
O1113 Tb1109 2.438 . S
O1113 C1118 1.263 . S
C1114 Eu1112 2.821 1_556 S
C1114 C1124 1.494 . S
C1114 O1132 1.269 . S
C1114 O1133 1.264 . S
O1115 Tb1109 2.472 . S
O1115 C1118 1.264 . S
O1116 Eu1112 2.295 1_556 S
O1116 C1122 1.242 . S
O1117 Tb1109 2.308 . S
O1117 C1122 1.243 . S
C1118 C1102 1.494 . S
C1118 Tb1109 2.821 . S
C1118 O1113 1.263 . S
C1118 O1115 1.264 . S
C1119 O1120 1.260 . S
C1119 O1123 1.264 . S
O1120 C1119 1.260 . S
C1121 O1108 1.242 1_554 S
C1121 O1111 1.243 . S
C1122 O1116 1.242 . S
C1122 O1117 1.243 . S
O1123 Eu1112 2.312 . S
O1123 C1119 1.264 . S
C1124 C1114 1.494 . S
C1124 C1126 1.380 . S
C1124 C1127 1.387 . S
C1125 C1126 1.395 . S
C1125 C1129 1.393 . S
C1126 C1124 1.380 . S
C1126 C1125 1.395 . S
C1126 H1137 0.930 . S
C1127 C1124 1.387 . S
C1127 C1128 1.386 . S
C1127 H1138 0.930 . S
C1128 C1127 1.386 . S
C1128 C1129 1.397 . S
C1129 C1125 1.393 . S
C1129 C1128 1.397 . S
C1129 H1139 0.930 . S
C1130 O1110 1.264 . S
C1130 O1131 1.260 . S
O1131 C1130 1.260 . S
O1132 Eu1112 2.433 1_556 S
O1132 C1114 1.269 . S
O1133 Eu1112 2.472 1_556 S
O1133 C1114 1.264 . S
H1134 C1103 0.930 . S
H1135 C1105 0.930 . S
H1136 C1107 0.930 . S
H1137 C1126 0.930 . S
H1138 C1127 0.930 . S
H1139 C1129 0.930 . S
C1140 C1141 1.387 . S
C1140 C1145 1.380 . S
C1140 C1156 1.494 . S
C1141 C1140 1.387 . S
C1141 C1142 1.386 . S
C1141 H1172 0.930 . S
C1142 C1141 1.386 . S
C1142 C1143 1.397 . S
C1143 C1142 1.397 . S
C1143 C1144 1.393 . S
C1143 H1173 0.930 . S
C1144 C1143 1.393 . S
C1144 C1145 1.395 . S
C1145 C1140 1.380 . S
C1145 C1144 1.395 . S
C1145 H1174 0.930 . S
O1146 Tb1147 2.295 . S
O1146 C1159 1.242 . S
Tb1147 O1146 2.295 . S
Tb1147 O1148 2.312 . S
Tb1147 O1151 2.438 . S
Tb1147 O1153 2.472 . S
Tb1147 O1155 2.308 . S
Tb1147 C1156 2.821 . S
O1148 Tb1147 2.312 . S
O1148 C1168 1.264 . S
O1149 Eu1150 2.308 . S
O1149 C1159 1.243 . S
Eu1150 O1149 2.308 . S
Eu1150 C1152 2.821 . S
Eu1150 O1154 2.295 . S
Eu1150 O1161 2.312 . S
Eu1150 O1170 2.438 . S
Eu1150 O1171 2.472 . S
O1151 Tb1147 2.438 . S
O1151 C1156 1.263 . S
C1152 Eu1150 2.821 . S
C1152 C1162 1.494 . S
C1152 O1170 1.263 . S
C1152 O1171 1.264 . S
O1153 Tb1147 2.472 . S
O1153 C1156 1.264 . S
O1154 Eu1150 2.295 . S
O1154 C1160 1.242 . S
O1155 Tb1147 2.308 . S
O1155 C1160 1.243 . S
C1156 C1140 1.494 . S
C1156 Tb1147 2.821 . S
C1156 O1151 1.263 . S
C1156 O1153 1.264 . S
C1157 O1158 1.260 . S
C1157 O1161 1.264 . S
O1158 C1157 1.260 . S
C1159 O1146 1.242 . S
C1159 O1149 1.243 . S
C1160 O1154 1.242 . S
C1160 O1155 1.243 . S
O1161 Eu1150 2.312 . S
O1161 C1157 1.264 . S
C1162 C1152 1.494 . S
C1162 C1164 1.380 . S
C1162 C1165 1.387 . S
C1163 C1164 1.395 . S
C1163 C1167 1.393 . S
C1164 C1162 1.380 . S
C1164 C1163 1.395 . S
C1164 H1175 0.930 . S
C1165 C1162 1.387 . S
C1165 C1166 1.386 . S
C1165 H1176 0.930 . S
C1166 C1165 1.386 . S
C1166 C1167 1.397 . S
C1167 C1163 1.393 . S
C1167 C1166 1.397 . S
C1167 H1177 0.930 . S
C1168 O1148 1.264 . S
C1168 O1169 1.260 . S
O1169 C1168 1.260 . S
O1170 Eu1150 2.438 . S
O1170 C1152 1.263 . S
O1171 Eu1150 2.472 . S
O1171 C1152 1.264 . S
H1172 C1141 0.930 . S
H1173 C1143 0.930 . S
H1174 C1145 0.930 . S
H1175 C1164 0.930 . S
H1176 C1165 0.930 . S
H1177 C1167 0.930 . S
C1178 C1179 1.387 . S
C1178 C1183 1.380 . S
C1178 C1194 1.494 . S
C1179 C1178 1.387 . S
C1179 C1180 1.386 . S
C1179 H1210 0.930 . S
C1180 C1179 1.386 . S
C1180 C1181 1.397 . S
C1181 C1180 1.397 . S
C1181 C1182 1.393 . S
C1181 H1211 0.930 . S
C1182 C1181 1.393 . S
C1182 C1183 1.395 . S
C1183 C1178 1.380 . S
C1183 C1182 1.395 . S
C1183 H1212 0.930 . S
O1184 Tb1185 2.295 . S
O1184 C1197 1.242 . S
Tb1185 O1184 2.295 . S
Tb1185 O1186 2.312 . S
Tb1185 O1189 2.438 . S
Tb1185 O1191 2.472 . S
Tb1185 O1193 2.308 . S
Tb1185 C1194 2.821 . S
O1186 Tb1185 2.312 . S
O1186 C1206 1.264 . S
O1187 Eu1188 2.308 . S
O1187 C1197 1.243 . S
Eu1188 O1187 2.308 . S
Eu1188 C1190 2.821 . S
Eu1188 O1192 2.295 . S
Eu1188 O1199 2.312 . S
Eu1188 O1208 2.438 . S
Eu1188 O1209 2.472 . S
O1189 Tb1185 2.438 . S
O1189 C1194 1.263 . S
C1190 Eu1188 2.821 . S
C1190 C1200 1.494 . S
C1190 O1208 1.263 . S
C1190 O1209 1.264 . S
O1191 Tb1185 2.472 . S
O1191 C1194 1.264 . S
O1192 Eu1188 2.295 . S
O1192 C1198 1.242 . S
O1193 Tb1185 2.308 . S
O1193 C1198 1.243 . S
C1194 C1178 1.494 . S
C1194 Tb1185 2.821 . S
C1194 O1189 1.263 . S
C1194 O1191 1.264 . S
C1195 O1196 1.260 . S
C1195 O1199 1.264 . S
O1196 C1195 1.260 . S
C1197 O1184 1.242 . S
C1197 O1187 1.243 . S
C1198 O1192 1.242 . S
C1198 O1193 1.243 . S
O1199 Eu1188 2.312 . S
O1199 C1195 1.264 . S
C1200 C1190 1.494 . S
C1200 C1202 1.380 . S
C1200 C1203 1.387 . S
C1201 C1202 1.395 . S
C1201 C1205 1.393 . S
C1202 C1200 1.380 . S
C1202 C1201 1.395 . S
C1202 H1213 0.930 . S
C1203 C1200 1.387 . S
C1203 C1204 1.386 . S
C1203 H1214 0.930 . S
C1204 C1203 1.386 . S
C1204 C1205 1.397 . S
C1205 C1201 1.393 . S
C1205 C1204 1.397 . S
C1205 H1215 0.930 . S
C1206 O1186 1.264 . S
C1206 O1207 1.260 . S
O1207 C1206 1.260 . S
O1208 Eu1188 2.438 . S
O1208 C1190 1.263 . S
O1209 Eu1188 2.472 . S
O1209 C1190 1.264 . S
H1210 C1179 0.930 . S
H1211 C1181 0.930 . S
H1212 C1183 0.930 . S
H1213 C1202 0.930 . S
H1214 C1203 0.930 . S
H1215 C1205 0.930 . S
H1216 C1222 0.930 . S
H1217 C1225 0.930 . S
H1218 C1226 0.930 . S
H1219 C1227 0.930 . S
H1220 C1230 0.930 . S
H1221 C1231 0.931 . S
C1222 H1216 0.930 . S
C1222 C1223 1.355 . S
C1222 C1224 1.415 . S
C1223 C1222 1.355 . S
C1223 C1225 1.419 . S
C1224 C1222 1.415 . S
C1224 C1229 1.425 . S
C1224 C1231 1.409 . S
C1225 H1217 0.930 . S
C1225 C1223 1.419 . S
C1225 C1226 1.362 . S
C1226 H1218 0.930 . S
C1226 C1225 1.362 . S
C1226 C1229 1.409 . S
C1227 H1219 0.930 . S
C1227 C1228 1.355 . S
C1227 C1229 1.415 . S
C1228 C1227 1.355 . S
C1228 C1230 1.419 . S
C1229 C1224 1.425 . S
C1229 C1226 1.409 . S
C1229 C1227 1.415 . S
C1230 H1220 0.930 . S
C1230 C1228 1.419 . S
C1230 C1231 1.362 . S
C1231 H1221 0.931 . S
C1231 C1224 1.409 . S
C1231 C1230 1.362 . S
H1232 C1238 0.930 . S
H1233 C1241 0.930 . S
H1234 C1242 0.930 . S
H1235 C1243 0.930 . S
H1236 C1246 0.930 . S
H1237 C1247 0.930 . S
C1238 H1232 0.930 . S
C1238 C1239 1.355 1_554 S
C1238 C1240 1.415 . S
C1239 C1238 1.355 1_556 S
C1239 C1241 1.419 . S
C1240 C1238 1.415 . S
C1240 C1245 1.425 1_554 S
C1240 C1247 1.409 . S
C1241 H1233 0.930 . S
C1241 C1239 1.419 . S
C1241 C1242 1.362 . S
C1242 H1234 0.930 . S
C1242 C1241 1.362 . S
C1242 C1245 1.409 . S
C1243 H1235 0.930 . S
C1243 C1244 1.355 . S
C1243 C1245 1.415 . S
C1244 C1243 1.355 . S
C1244 C1246 1.419 1_556 S
C1245 C1240 1.425 1_556 S
C1245 C1242 1.409 . S
C1245 C1243 1.415 . S
C1246 H1236 0.930 . S
C1246 C1244 1.419 1_554 S
C1246 C1247 1.362 . S
C1247 H1237 0.930 . S
C1247 C1240 1.409 . S
C1247 C1246 1.362 . S
H1248 C1254 0.930 . S
H1249 C1257 0.930 . S
H1250 C1258 0.930 . S
H1251 C1259 0.930 . S
H1252 C1262 0.930 . S
H1253 C1263 0.930 . S
C1254 H1248 0.930 . S
C1254 C1255 1.355 . S
C1254 C1256 1.415 . S
C1255 C1254 1.355 . S
C1255 C1257 1.419 . S
C1256 C1254 1.415 . S
C1256 C1261 1.425 . S
C1256 C1263 1.409 . S
C1257 H1249 0.930 . S
C1257 C1255 1.419 . S
C1257 C1258 1.362 . S
C1258 H1250 0.930 . S
C1258 C1257 1.362 . S
C1258 C1261 1.409 . S
C1259 H1251 0.930 . S
C1259 C1260 1.355 . S
C1259 C1261 1.415 . S
C1260 C1259 1.355 . S
C1260 C1262 1.419 . S
C1261 C1256 1.425 . S
C1261 C1258 1.409 . S
C1261 C1259 1.415 . S
C1262 H1252 0.930 . S
C1262 C1260 1.419 . S
C1262 C1263 1.362 . S
C1263 H1253 0.930 . S
C1263 C1256 1.409 . S
C1263 C1262 1.362 . S
H1264 C1270 0.930 . S
H1265 C1273 0.930 . S
H1266 C1274 0.930 . S
H1267 C1275 0.930 . S
H1268 C1278 0.930 . S
H1269 C1279 0.930 . S
C1270 H1264 0.930 . S
C1270 C1271 1.355 . S
C1270 C1272 1.415 . S
C1271 C1270 1.355 . S
C1271 C1273 1.419 . S
C1272 C1270 1.415 . S
C1272 C1277 1.425 . S
C1272 C1279 1.409 . S
C1273 H1265 0.930 . S
C1273 C1271 1.419 . S
C1273 C1274 1.362 . S
C1274 H1266 0.930 . S
C1274 C1273 1.362 . S
C1274 C1277 1.409 . S
C1275 H1267 0.930 . S
C1275 C1276 1.355 . S
C1275 C1277 1.415 . S
C1276 C1275 1.355 . S
C1276 C1278 1.419 . S
C1277 C1272 1.425 . S
C1277 C1274 1.409 . S
C1277 C1275 1.415 . S
C1278 H1268 0.930 . S
C1278 C1276 1.419 . S
C1278 C1279 1.362 . S
C1279 H1269 0.930 . S
C1279 C1272 1.409 . S
C1279 C1278 1.362 . S
H1280 C1286 0.930 . S
H1281 C1289 0.930 . S
H1282 C1290 0.930 . S
H1283 C1291 0.930 . S
H1284 C1294 0.930 . S
H1285 C1295 0.930 . S
C1286 H1280 0.930 . S
C1286 C1287 1.355 . S
C1286 C1288 1.415 . S
C1287 C1286 1.355 . S
C1287 C1289 1.419 1_554 S
C1288 C1286 1.415 . S
C1288 C1293 1.425 1_554 S
C1288 C1295 1.409 . S
C1289 H1281 0.930 . S
C1289 C1287 1.419 1_556 S
C1289 C1290 1.362 . S
C1290 H1282 0.930 . S
C1290 C1289 1.362 . S
C1290 C1293 1.409 . S
C1291 H1283 0.930 . S
C1291 C1292 1.355 1_556 S
C1291 C1293 1.415 . S
C1292 C1291 1.355 1_554 S
C1292 C1294 1.419 . S
C1293 C1288 1.425 1_556 S
C1293 C1290 1.409 . S
C1293 C1291 1.415 . S
C1294 H1284 0.930 . S
C1294 C1292 1.419 . S
C1294 C1295 1.362 . S
C1295 H1285 0.930 . S
C1295 C1288 1.409 . S
C1295 C1294 1.362 . S
H1296 C1302 0.930 . S
H1297 C1305 0.930 . S
H1298 C1306 0.930 . S
H1299 C1307 0.930 . S
H1300 C1310 0.930 . S
H1301 C1311 0.930 . S
C1302 H1296 0.930 . S
C1302 C1303 1.355 1_556 S
C1302 C1304 1.415 . S
C1303 C1302 1.355 1_554 S
C1303 C1305 1.419 . S
C1304 C1302 1.415 . S
C1304 C1309 1.426 1_556 S
C1304 C1311 1.408 . S
C1305 H1297 0.930 . S
C1305 C1303 1.419 . S
C1305 C1306 1.362 . S
C1306 H1298 0.930 . S
C1306 C1305 1.362 . S
C1306 C1309 1.409 . S
C1307 H1299 0.930 . S
C1307 C1308 1.355 . S
C1307 C1309 1.415 . S
C1308 C1307 1.355 . S
C1308 C1310 1.419 1_554 S
C1309 C1304 1.426 1_554 S
C1309 C1306 1.409 . S
C1309 C1307 1.415 . S
C1310 H1300 0.930 . S
C1310 C1308 1.419 1_556 S
C1310 C1311 1.362 . S
C1311 H1301 0.930 . S
C1311 C1304 1.408 . S
C1311 C1310 1.362 . S
H1312 C1318 0.930 . S
H1313 C1321 0.930 . S
H1314 C1322 0.930 . S
H1315 C1323 0.930 . S
H1316 C1326 0.930 . S
H1317 C1327 0.930 . S
C1318 H1312 0.930 . S
C1318 C1319 1.355 . S
C1318 C1320 1.415 . S
C1319 C1318 1.355 . S
C1319 C1321 1.419 . S
C1320 C1318 1.415 . S
C1320 C1325 1.425 . S
C1320 C1327 1.409 . S
C1321 H1313 0.930 . S
C1321 C1319 1.419 . S
C1321 C1322 1.362 . S
C1322 H1314 0.930 . S
C1322 C1321 1.362 . S
C1322 C1325 1.409 . S
C1323 H1315 0.930 . S
C1323 C1324 1.355 . S
C1323 C1325 1.415 . S
C1324 C1323 1.355 . S
C1324 C1326 1.419 . S
C1325 C1320 1.425 . S
C1325 C1322 1.409 . S
C1325 C1323 1.415 . S
C1326 H1316 0.930 . S
C1326 C1324 1.419 . S
C1326 C1327 1.362 . S
C1327 H1317 0.930 . S
C1327 C1320 1.409 . S
C1327 C1326 1.362 . S
H1328 C1334 0.930 . S
H1329 C1337 0.930 . S
H1330 C1338 0.930 . S
H1331 C1339 0.930 . S
H1332 C1342 0.930 . S
H1333 C1343 0.930 . S
C1334 H1328 0.930 . S
C1334 C1335 1.355 . S
C1334 C1336 1.415 . S
C1335 C1334 1.355 . S
C1335 C1337 1.419 . S
C1336 C1334 1.415 . S
C1336 C1341 1.425 . S
C1336 C1343 1.409 . S
C1337 H1329 0.930 . S
C1337 C1335 1.419 . S
C1337 C1338 1.362 . S
C1338 H1330 0.930 . S
C1338 C1337 1.362 . S
C1338 C1341 1.409 . S
C1339 H1331 0.930 . S
C1339 C1340 1.355 . S
C1339 C1341 1.415 . S
C1340 C1339 1.355 . S
C1340 C1342 1.419 . S
C1341 C1336 1.425 . S
C1341 C1338 1.409 . S
C1341 C1339 1.415 . S
C1342 H1332 0.930 . S
C1342 C1340 1.419 . S
C1342 C1343 1.362 . S
C1343 H1333 0.930 . S
C1343 C1336 1.409 . S
C1343 C1342 1.362 . S
H1344 C1350 0.930 . S
H1345 C1353 0.930 . S
H1346 C1354 0.930 . S
H1347 C1355 0.930 . S
H1348 C1358 0.930 . S
H1349 C1359 0.930 . S
C1350 H1344 0.930 . S
C1350 C1351 1.355 . S
C1350 C1352 1.415 . S
C1351 C1350 1.355 . S
C1351 C1353 1.419 . S
C1352 C1350 1.415 . S
C1352 C1357 1.425 . S
C1352 C1359 1.409 . S
C1353 H1345 0.930 . S
C1353 C1351 1.419 . S
C1353 C1354 1.362 . S
C1354 H1346 0.930 . S
C1354 C1353 1.362 . S
C1354 C1357 1.409 . S
C1355 H1347 0.930 . S
C1355 C1356 1.355 . S
C1355 C1357 1.415 . S
C1356 C1355 1.355 . S
C1356 C1358 1.419 . S
C1357 C1352 1.425 . S
C1357 C1354 1.409 . S
C1357 C1355 1.415 . S
C1358 H1348 0.930 . S
C1358 C1356 1.419 . S
C1358 C1359 1.362 . S
C1359 H1349 0.930 . S
C1359 C1352 1.409 . S
C1359 C1358 1.362 . S
H1360 C1366 0.930 . S
H1361 C1369 0.930 . S
H1362 C1370 0.930 . S
H1363 C1371 0.930 . S
H1364 C1374 0.930 . S
H1365 C1375 0.930 . S
C1366 H1360 0.930 . S
C1366 C1367 1.355 . S
C1366 C1368 1.415 . S
C1367 C1366 1.355 . S
C1367 C1369 1.419 . S
C1368 C1366 1.415 . S
C1368 C1373 1.425 . S
C1368 C1375 1.409 . S
C1369 H1361 0.930 . S
C1369 C1367 1.419 . S
C1369 C1370 1.362 . S
C1370 H1362 0.930 . S
C1370 C1369 1.362 . S
C1370 C1373 1.409 . S
C1371 H1363 0.930 . S
C1371 C1372 1.355 . S
C1371 C1373 1.415 . S
C1372 C1371 1.355 . S
C1372 C1374 1.419 . S
C1373 C1368 1.425 . S
C1373 C1370 1.409 . S
C1373 C1371 1.415 . S
C1374 H1364 0.930 . S
C1374 C1372 1.419 . S
C1374 C1375 1.362 . S
C1375 H1365 0.930 . S
C1375 C1368 1.409 . S
C1375 C1374 1.362 . S
H1376 C1382 0.930 . S
H1377 C1385 0.930 . S
H1378 C1386 0.930 . S
H1379 C1387 0.930 . S
H1380 C1390 0.930 . S
H1381 C1391 0.930 . S
C1382 H1376 0.930 . S
C1382 C1383 1.355 . S
C1382 C1384 1.415 . S
C1383 C1382 1.355 . S
C1383 C1385 1.419 . S
C1384 C1382 1.415 . S
C1384 C1389 1.425 . S
C1384 C1391 1.409 . S
C1385 H1377 0.930 . S
C1385 C1383 1.419 . S
C1385 C1386 1.362 . S
C1386 H1378 0.930 . S
C1386 C1385 1.362 . S
C1386 C1389 1.409 . S
C1387 H1379 0.930 . S
C1387 C1388 1.355 . S
C1387 C1389 1.415 . S
C1388 C1387 1.355 . S
C1388 C1390 1.419 . S
C1389 C1384 1.425 . S
C1389 C1386 1.409 . S
C1389 C1387 1.415 . S
C1390 H1380 0.930 . S
C1390 C1388 1.419 . S
C1390 C1391 1.362 . S
C1391 H1381 0.930 . S
C1391 C1384 1.409 . S
C1391 C1390 1.362 . S
H1392 C1398 0.930 . S
H1393 C1401 0.930 . S
H1394 C1402 0.930 . S
H1395 C1403 0.930 . S
H1396 C1406 0.930 . S
H1397 C1407 0.930 . S
C1398 H1392 0.930 . S
C1398 C1399 1.355 . S
C1398 C1400 1.415 . S
C1399 C1398 1.355 . S
C1399 C1401 1.419 . S
C1400 C1398 1.415 . S
C1400 C1405 1.425 . S
C1400 C1407 1.409 . S
C1401 H1393 0.930 . S
C1401 C1399 1.419 . S
C1401 C1402 1.362 . S
C1402 H1394 0.930 . S
C1402 C1401 1.362 . S
C1402 C1405 1.409 . S
C1403 H1395 0.930 . S
C1403 C1404 1.355 . S
C1403 C1405 1.415 . S
C1404 C1403 1.355 . S
C1404 C1406 1.419 . S
C1405 C1400 1.425 . S
C1405 C1402 1.409 . S
C1405 C1403 1.415 . S
C1406 H1396 0.930 . S
C1406 C1404 1.419 . S
C1406 C1407 1.362 . S
C1407 H1397 0.930 . S
C1407 C1400 1.409 . S
C1407 C1406 1.362 . S
H1408 C1414 0.930 . S
H1409 C1417 0.930 . S
H1410 C1418 0.930 . S
H1411 C1419 0.930 . S
H1412 C1422 0.930 . S
H1413 C1423 0.930 . S
C1414 H1408 0.930 . S
C1414 C1415 1.355 . S
C1414 C1416 1.415 . S
C1415 C1414 1.355 . S
C1415 C1417 1.419 . S
C1416 C1414 1.415 . S
C1416 C1421 1.425 . S
C1416 C1423 1.409 . S
C1417 H1409 0.930 . S
C1417 C1415 1.419 . S
C1417 C1418 1.362 . S
C1418 H1410 0.930 . S
C1418 C1417 1.362 . S
C1418 C1421 1.409 . S
C1419 H1411 0.930 . S
C1419 C1420 1.355 . S
C1419 C1421 1.415 . S
C1420 C1419 1.355 . S
C1420 C1422 1.419 . S
C1421 C1416 1.425 . S
C1421 C1418 1.409 . S
C1421 C1419 1.415 . S
C1422 H1412 0.930 . S
C1422 C1420 1.419 . S
C1422 C1423 1.362 . S
C1423 H1413 0.930 . S
C1423 C1416 1.409 . S
C1423 C1422 1.362 . S
H1424 C1430 0.930 . S
H1425 C1433 0.930 . S
H1426 C1434 0.930 . S
H1427 C1435 0.930 . S
H1428 C1438 0.930 . S
H1429 C1439 0.930 . S
C1430 H1424 0.930 . S
C1430 C1431 1.355 . S
C1430 C1432 1.415 . S
C1431 C1430 1.355 . S
C1431 C1433 1.419 . S
C1432 C1430 1.415 . S
C1432 C1437 1.425 . S
C1432 C1439 1.409 . S
C1433 H1425 0.930 . S
C1433 C1431 1.419 . S
C1433 C1434 1.362 . S
C1434 H1426 0.930 . S
C1434 C1433 1.362 . S
C1434 C1437 1.409 . S
C1435 H1427 0.930 . S
C1435 C1436 1.355 . S
C1435 C1437 1.415 . S
C1436 C1435 1.355 . S
C1436 C1438 1.419 . S
C1437 C1432 1.425 . S
C1437 C1434 1.409 . S
C1437 C1435 1.415 . S
C1438 H1428 0.930 . S
C1438 C1436 1.419 . S
C1438 C1439 1.362 . S
C1439 H1429 0.930 . S
C1439 C1432 1.409 . S
C1439 C1438 1.362 . S
H1440 C1446 0.930 . S
H1441 C1449 0.930 . S
H1442 C1450 0.930 . S
H1443 C1451 0.930 . S
H1444 C1454 0.930 . S
H1445 C1455 0.930 . S
C1446 H1440 0.930 . S
C1446 C1447 1.355 . S
C1446 C1448 1.415 . S
C1447 C1446 1.355 . S
C1447 C1449 1.419 . S
C1448 C1446 1.415 . S
C1448 C1453 1.425 . S
C1448 C1455 1.409 . S
C1449 H1441 0.930 . S
C1449 C1447 1.419 . S
C1449 C1450 1.362 . S
C1450 H1442 0.930 . S
C1450 C1449 1.362 . S
C1450 C1453 1.409 . S
C1451 H1443 0.930 . S
C1451 C1452 1.355 . S
C1451 C1453 1.415 . S
C1452 C1451 1.355 . S
C1452 C1454 1.419 . S
C1453 C1448 1.425 . S
C1453 C1450 1.409 . S
C1453 C1451 1.415 . S
C1454 H1444 0.930 . S
C1454 C1452 1.419 . S
C1454 C1455 1.362 . S
C1455 H1445 0.930 . S
C1455 C1448 1.409 . S
C1455 C1454 1.362 . S
H1456 C1462 0.930 . S
H1457 C1465 0.930 . S
H1458 C1466 0.930 . S
H1459 C1467 0.930 . S
H1460 C1470 0.930 . S
H1461 C1471 0.930 . S
C1462 H1456 0.930 . S
C1462 C1463 1.355 . S
C1462 C1464 1.415 . S
C1463 C1462 1.355 . S
C1463 C1465 1.419 . S
C1464 C1462 1.415 . S
C1464 C1469 1.425 . S
C1464 C1471 1.409 . S
C1465 H1457 0.930 . S
C1465 C1463 1.419 . S
C1465 C1466 1.362 . S
C1466 H1458 0.930 . S
C1466 C1465 1.362 . S
C1466 C1469 1.409 . S
C1467 H1459 0.930 . S
C1467 C1468 1.355 . S
C1467 C1469 1.415 . S
C1468 C1467 1.355 . S
C1468 C1470 1.419 . S
C1469 C1464 1.425 . S
C1469 C1466 1.409 . S
C1469 C1467 1.415 . S
C1470 H1460 0.930 . S
C1470 C1468 1.419 . S
C1470 C1471 1.362 . S
C1471 H1461 0.930 . S
C1471 C1464 1.409 . S
C1471 C1470 1.362 . S
H1472 C1478 0.930 . S
H1473 C1481 0.930 . S
H1474 C1482 0.930 . S
H1475 C1483 0.922 1_556 S
H1476 C1486 0.930 . S
H1477 C1487 0.930 . S
C1478 H1472 0.930 . S
C1478 C1479 1.355 1_554 S
C1478 C1480 1.415 . S
C1479 C1478 1.355 1_556 S
C1479 C1481 1.419 . S
C1480 C1478 1.415 . S
C1480 C1485 1.425 . S
C1480 C1487 1.409 . S
C1481 H1473 0.930 . S
C1481 C1479 1.419 . S
C1481 C1482 1.362 . S
C1482 H1474 0.930 . S
C1482 C1481 1.362 . S
C1482 C1485 1.409 1_556 S
C1483 H1475 0.922 1_554 S
C1483 C1484 1.355 . S
C1483 C1485 1.415 . S
C1484 C1483 1.355 . S
C1484 C1486 1.419 . S
C1485 C1480 1.425 . S
C1485 C1482 1.409 1_554 S
C1485 C1483 1.415 . S
C1486 H1476 0.930 . S
C1486 C1484 1.419 . S
C1486 C1487 1.362 . S
C1487 H1477 0.930 . S
C1487 C1480 1.409 . S
C1487 C1486 1.362 . S
H1488 C1494 0.930 1_556 S
H1489 C1497 0.930 . S
H1490 C1498 0.930 . S
H1491 C1499 0.930 . S
H1492 C1502 0.930 . S
H1493 C1503 0.930 . S
C1494 H1488 0.930 1_554 S
C1494 C1495 1.355 . S
C1494 C1496 1.415 . S
C1495 C1494 1.355 . S
C1495 C1497 1.419 . S
C1496 C1494 1.415 . S
C1496 C1501 1.425 . S
C1496 C1503 1.409 1_554 S
C1497 H1489 0.930 . S
C1497 C1495 1.419 . S
C1497 C1498 1.362 . S
C1498 H1490 0.930 . S
C1498 C1497 1.362 . S
C1498 C1501 1.409 . S
C1499 H1491 0.930 . S
C1499 C1500 1.355 1_554 S
C1499 C1501 1.415 . S
C1500 C1499 1.355 1_556 S
C1500 C1502 1.419 . S
C1501 C1496 1.425 . S
C1501 C1498 1.409 . S
C1501 C1499 1.415 . S
C1502 H1492 0.930 . S
C1502 C1500 1.419 . S
C1502 C1503 1.362 . S
C1503 H1493 0.930 . S
C1503 C1496 1.409 1_556 S
C1503 C1502 1.362 . S
H1504 C1510 0.930 . S
H1505 C1513 0.930 . S
H1506 C1514 0.930 . S
H1507 C1515 0.930 . S
H1508 C1518 0.930 . S
H1509 C1519 0.930 . S
C1510 H1504 0.930 . S
C1510 C1511 1.355 . S
C1510 C1512 1.415 . S
C1511 C1510 1.355 . S
C1511 C1513 1.419 . S
C1512 C1510 1.415 . S
C1512 C1517 1.425 . S
C1512 C1519 1.409 . S
C1513 H1505 0.930 . S
C1513 C1511 1.419 . S
C1513 C1514 1.362 . S
C1514 H1506 0.930 . S
C1514 C1513 1.362 . S
C1514 C1517 1.409 . S
C1515 H1507 0.930 . S
C1515 C1516 1.355 . S
C1515 C1517 1.415 . S
C1516 C1515 1.355 . S
C1516 C1518 1.419 . S
C1517 C1512 1.425 . S
C1517 C1514 1.409 . S
C1517 C1515 1.415 . S
C1518 H1508 0.930 . S
C1518 C1516 1.419 . S
C1518 C1519 1.362 . S
C1519 H1509 0.930 . S
C1519 C1512 1.409 . S
C1519 C1518 1.362 . S
H1520 C1526 0.930 . S
H1521 C1529 0.930 . S
H1522 C1530 0.930 . S
H1523 C1531 0.930 . S
H1524 C1534 0.930 . S
H1525 C1535 0.930 . S
C1526 H1520 0.930 . S
C1526 C1527 1.355 . S
C1526 C1528 1.415 . S
C1527 C1526 1.355 . S
C1527 C1529 1.419 . S
C1528 C1526 1.415 . S
C1528 C1533 1.425 . S
C1528 C1535 1.409 . S
C1529 H1521 0.930 . S
C1529 C1527 1.419 . S
C1529 C1530 1.362 . S
C1530 H1522 0.930 . S
C1530 C1529 1.362 . S
C1530 C1533 1.409 . S
C1531 H1523 0.930 . S
C1531 C1532 1.355 . S
C1531 C1533 1.415 . S
C1532 C1531 1.355 . S
C1532 C1534 1.419 . S
C1533 C1528 1.425 . S
C1533 C1530 1.409 . S
C1533 C1531 1.415 . S
C1534 H1524 0.930 . S
C1534 C1532 1.419 . S
C1534 C1535 1.362 . S
C1535 H1525 0.930 . S
C1535 C1528 1.409 . S
C1535 C1534 1.362 . S
H1536 C1542 0.930 . S
H1537 C1545 0.930 . S
H1538 C1546 0.930 . S
H1539 C1547 0.930 . S
H1540 C1550 0.930 . S
H1541 C1551 0.930 . S
C1542 H1536 0.930 . S
C1542 C1543 1.345 1_556 S
C1542 C1544 1.415 . S
C1543 C1542 1.345 1_554 S
C1543 C1545 1.425 . S
C1544 C1542 1.415 . S
C1544 C1549 1.425 . S
C1544 C1551 1.409 . S
C1545 H1537 0.930 . S
C1545 C1543 1.425 . S
C1545 C1546 1.362 . S
C1546 H1538 0.930 . S
C1546 C1545 1.362 . S
C1546 C1549 1.409 1_554 S
C1547 H1539 0.930 . S
C1547 C1548 1.355 . S
C1547 C1549 1.415 . S
C1548 C1547 1.355 . S
C1548 C1550 1.419 . S
C1549 C1544 1.425 . S
C1549 C1546 1.409 1_556 S
C1549 C1547 1.415 . S
C1550 H1540 0.930 . S
C1550 C1548 1.419 . S
C1550 C1551 1.362 . S
C1551 H1541 0.930 . S
C1551 C1544 1.409 . S
C1551 C1550 1.362 . S
H1552 C1558 0.930 . S
H1553 C1561 0.930 . S
H1554 C1562 0.932 . S
H1555 C1563 0.930 . S
H1556 C1566 0.930 . S
H1557 C1567 0.930 . S
C1558 H1552 0.930 . S
C1558 C1559 1.358 . S
C1558 C1560 1.415 . S
C1559 C1558 1.358 . S
C1559 C1561 1.418 1_556 S
C1560 C1558 1.415 . S
C1560 C1565 1.425 . S
C1560 C1567 1.409 . S
C1561 H1553 0.930 . S
C1561 C1559 1.418 1_554 S
C1561 C1562 1.362 1_554 S
C1562 H1554 0.932 . S
C1562 C1561 1.362 1_556 S
C1562 C1565 1.409 . S
C1563 H1555 0.930 . S
C1563 C1564 1.355 . S
C1563 C1565 1.415 . S
C1564 C1563 1.355 . S
C1564 C1566 1.419 . S
C1565 C1560 1.425 . S
C1565 C1562 1.409 . S
C1565 C1563 1.415 . S
C1566 H1556 0.930 . S
C1566 C1564 1.419 . S
C1566 C1567 1.362 . S
C1567 H1557 0.930 . S
C1567 C1560 1.409 . S
C1567 C1566 1.362 . S
H1568 C1574 0.930 . S
H1569 C1577 0.930 . S
H1570 C1578 0.930 . S
H1571 C1579 0.930 . S
H1572 C1582 0.930 . S
H1573 C1583 0.930 . S
C1574 H1568 0.930 . S
C1574 C1575 1.355 . S
C1574 C1576 1.415 . S
C1575 C1574 1.355 . S
C1575 C1577 1.419 . S
C1576 C1574 1.415 . S
C1576 C1581 1.425 . S
C1576 C1583 1.409 . S
C1577 H1569 0.930 . S
C1577 C1575 1.419 . S
C1577 C1578 1.362 . S
C1578 H1570 0.930 . S
C1578 C1577 1.362 . S
C1578 C1581 1.409 . S
C1579 H1571 0.930 . S
C1579 C1580 1.355 . S
C1579 C1581 1.415 . S
C1580 C1579 1.355 . S
C1580 C1582 1.419 . S
C1581 C1576 1.425 . S
C1581 C1578 1.409 . S
C1581 C1579 1.415 . S
C1582 H1572 0.930 . S
C1582 C1580 1.419 . S
C1582 C1583 1.362 . S
C1583 H1573 0.930 . S
C1583 C1576 1.409 . S
C1583 C1582 1.362 . S
H1584 C1590 0.930 . S
H1585 C1593 0.930 . S
H1586 C1594 0.930 . S
H1587 C1595 0.930 . S
H1588 C1598 0.930 . S
H1589 C1599 0.930 . S
C1590 H1584 0.930 . S
C1590 C1591 1.355 . S
C1590 C1592 1.415 . S
C1591 C1590 1.355 . S
C1591 C1593 1.419 . S
C1592 C1590 1.415 . S
C1592 C1597 1.425 . S
C1592 C1599 1.409 . S
C1593 H1585 0.930 . S
C1593 C1591 1.419 . S
C1593 C1594 1.362 . S
C1594 H1586 0.930 . S
C1594 C1593 1.362 . S
C1594 C1597 1.409 . S
C1595 H1587 0.930 . S
C1595 C1596 1.355 . S
C1595 C1597 1.415 . S
C1596 C1595 1.355 . S
C1596 C1598 1.419 . S
C1597 C1592 1.425 . S
C1597 C1594 1.409 . S
C1597 C1595 1.415 . S
C1598 H1588 0.930 . S
C1598 C1596 1.419 . S
C1598 C1599 1.362 . S
C1599 H1589 0.930 . S
C1599 C1592 1.409 . S
C1599 C1598 1.362 . S
H1600 C1606 0.930 . S
H1601 C1609 0.901 1_545 S
H1602 C1610 0.929 . S
H1603 C1611 0.930 . S
H1604 C1614 0.930 . S
H1605 C1615 0.930 . S
C1606 H1600 0.930 . S
C1606 C1607 1.355 . S
C1606 C1608 1.415 . S
C1607 C1606 1.355 . S
C1607 C1609 1.437 . S
C1608 C1606 1.415 . S
C1608 C1613 1.425 . S
C1608 C1615 1.409 . S
C1609 H1601 0.901 1_565 S
C1609 C1607 1.437 . S
C1609 C1610 1.374 . S
C1610 H1602 0.929 . S
C1610 C1609 1.374 . S
C1610 C1613 1.409 . S
C1611 H1603 0.930 . S
C1611 C1612 1.355 . S
C1611 C1613 1.415 . S
C1612 C1611 1.355 . S
C1612 C1614 1.419 . S
C1613 C1608 1.425 . S
C1613 C1610 1.409 . S
C1613 C1611 1.415 . S
C1614 H1604 0.930 . S
C1614 C1612 1.419 . S
C1614 C1615 1.362 . S
C1615 H1605 0.930 . S
C1615 C1608 1.409 . S
C1615 C1614 1.362 . S
H1616 C1622 0.930 . S
H1617 C1625 0.930 . S
H1618 C1626 0.930 . S
H1619 C1627 0.930 . S
H1620 C1630 0.930 . S
H1621 C1631 0.930 . S
C1622 H1616 0.930 . S
C1622 C1623 1.355 . S
C1622 C1624 1.415 . S
C1623 C1622 1.355 . S
C1623 C1625 1.419 . S
C1624 C1622 1.415 . S
C1624 C1629 1.425 . S
C1624 C1631 1.409 . S
C1625 H1617 0.930 . S
C1625 C1623 1.419 . S
C1625 C1626 1.362 . S
C1626 H1618 0.930 . S
C1626 C1625 1.362 . S
C1626 C1629 1.409 . S
C1627 H1619 0.930 . S
C1627 C1628 1.355 . S
C1627 C1629 1.415 . S
C1628 C1627 1.355 . S
C1628 C1630 1.419 . S
C1629 C1624 1.425 . S
C1629 C1626 1.409 . S
C1629 C1627 1.415 . S
C1630 H1620 0.930 . S
C1630 C1628 1.419 . S
C1630 C1631 1.362 . S
C1631 H1621 0.930 . S
C1631 C1624 1.409 . S
C1631 C1630 1.362 . S
H1632 C1638 0.930 . S
H1633 C1641 0.930 . S
H1634 C1642 0.930 . S
H1635 C1643 0.930 . S
H1636 C1646 0.930 . S
H1637 C1647 0.930 . S
C1638 H1632 0.930 . S
C1638 C1639 1.355 . S
C1638 C1640 1.415 . S
C1639 C1638 1.355 . S
C1639 C1641 1.419 . S
C1640 C1638 1.415 . S
C1640 C1645 1.425 . S
C1640 C1647 1.409 . S
C1641 H1633 0.930 . S
C1641 C1639 1.419 . S
C1641 C1642 1.362 . S
C1642 H1634 0.930 . S
C1642 C1641 1.362 . S
C1642 C1645 1.409 . S
C1643 H1635 0.930 . S
C1643 C1644 1.355 . S
C1643 C1645 1.415 . S
C1644 C1643 1.355 . S
C1644 C1646 1.419 . S
C1645 C1640 1.425 . S
C1645 C1642 1.409 . S
C1645 C1643 1.415 . S
C1646 H1636 0.930 . S
C1646 C1644 1.419 . S
C1646 C1647 1.362 . S
C1647 H1637 0.930 . S
C1647 C1640 1.409 . S
C1647 C1646 1.362 . S
H1648 C1654 0.930 . S
H1649 C1657 0.930 . S
H1650 C1658 0.930 . S
H1651 C1659 0.930 . S
H1652 C1662 0.930 . S
H1653 C1663 0.930 . S
C1654 H1648 0.930 . S
C1654 C1655 1.355 . S
C1654 C1656 1.415 . S
C1655 C1654 1.355 . S
C1655 C1657 1.419 . S
C1656 C1654 1.415 . S
C1656 C1661 1.425 . S
C1656 C1663 1.409 . S
C1657 H1649 0.930 . S
C1657 C1655 1.419 . S
C1657 C1658 1.362 . S
C1658 H1650 0.930 . S
C1658 C1657 1.362 . S
C1658 C1661 1.409 . S
C1659 H1651 0.930 . S
C1659 C1660 1.355 . S
C1659 C1661 1.415 . S
C1660 C1659 1.355 . S
C1660 C1662 1.419 . S
C1661 C1656 1.425 . S
C1661 C1658 1.409 . S
C1661 C1659 1.415 . S
C1662 H1652 0.930 . S
C1662 C1660 1.419 . S
C1662 C1663 1.362 . S
C1663 H1653 0.930 . S
C1663 C1656 1.409 . S
C1663 C1662 1.362 . S
H1664 C1670 0.930 . S
H1665 C1673 0.930 1_565 S
H1666 C1674 0.930 . S
H1667 C1675 0.930 . S
H1668 C1678 0.930 . S
H1669 C1679 0.930 . S
C1670 H1664 0.930 . S
C1670 C1671 1.355 . S
C1670 C1672 1.415 . S
C1671 C1670 1.355 . S
C1671 C1673 1.419 . S
C1672 C1670 1.415 . S
C1672 C1677 1.425 . S
C1672 C1679 1.409 . S
C1673 H1665 0.930 1_545 S
C1673 C1671 1.419 . S
C1673 C1674 1.362 . S
C1674 H1666 0.930 . S
C1674 C1673 1.362 . S
C1674 C1677 1.409 . S
C1675 H1667 0.930 . S
C1675 C1676 1.355 . S
C1675 C1677 1.415 . S
C1676 C1675 1.355 . S
C1676 C1678 1.419 . S
C1677 C1672 1.425 . S
C1677 C1674 1.409 . S
C1677 C1675 1.415 . S
C1678 H1668 0.930 . S
C1678 C1676 1.419 . S
C1678 C1679 1.362 . S
C1679 H1669 0.930 . S
C1679 C1672 1.409 . S
C1679 C1678 1.362 . S
H1680 C1686 0.930 . S
H1681 C1689 0.930 . S
H1682 C1690 0.930 . S
H1683 C1691 0.930 . S
H1684 C1694 0.930 . S
H1685 C1695 0.930 . S
C1686 H1680 0.930 . S
C1686 C1687 1.355 . S
C1686 C1688 1.415 . S
C1687 C1686 1.355 . S
C1687 C1689 1.419 . S
C1688 C1686 1.415 . S
C1688 C1693 1.425 . S
C1688 C1695 1.409 . S
C1689 H1681 0.930 . S
C1689 C1687 1.419 . S
C1689 C1690 1.362 . S
C1690 H1682 0.930 . S
C1690 C1689 1.362 . S
C1690 C1693 1.409 . S
C1691 H1683 0.930 . S
C1691 C1692 1.355 . S
C1691 C1693 1.415 . S
C1692 C1691 1.355 . S
C1692 C1694 1.419 . S
C1693 C1688 1.425 . S
C1693 C1690 1.409 . S
C1693 C1691 1.415 . S
C1694 H1684 0.930 . S
C1694 C1692 1.419 . S
C1694 C1695 1.362 . S
C1695 H1685 0.930 . S
C1695 C1688 1.409 . S
C1695 C1694 1.362 . S
H1696 C1702 0.930 . S
H1697 C1705 0.930 . S
H1698 C1706 0.930 . S
H1699 C1707 0.930 . S
H1700 C1710 0.930 . S
H1701 C1711 0.930 . S
C1702 H1696 0.930 . S
C1702 C1703 1.355 . S
C1702 C1704 1.415 . S
C1703 C1702 1.355 . S
C1703 C1705 1.419 . S
C1704 C1702 1.415 . S
C1704 C1709 1.425 . S
C1704 C1711 1.409 . S
C1705 H1697 0.930 . S
C1705 C1703 1.419 . S
C1705 C1706 1.362 . S
C1706 H1698 0.930 . S
C1706 C1705 1.362 . S
C1706 C1709 1.409 . S
C1707 H1699 0.930 . S
C1707 C1708 1.355 . S
C1707 C1709 1.415 . S
C1708 C1707 1.355 . S
C1708 C1710 1.419 . S
C1709 C1704 1.425 . S
C1709 C1706 1.409 . S
C1709 C1707 1.415 . S
C1710 H1700 0.930 . S
C1710 C1708 1.419 . S
C1710 C1711 1.362 . S
C1711 H1701 0.930 . S
C1711 C1704 1.409 . S
C1711 C1710 1.362 . S
H1712 C1718 0.930 . S
H1713 C1721 0.930 . S
H1714 C1722 0.930 . S
H1715 C1723 0.930 . S
H1716 C1726 0.930 1_565 S
H1717 C1727 0.930 . S
C1718 H1712 0.930 . S
C1718 C1719 1.355 . S
C1718 C1720 1.415 . S
C1719 C1718 1.355 . S
C1719 C1721 1.419 . S
C1720 C1718 1.415 . S
C1720 C1725 1.425 . S
C1720 C1727 1.409 . S
C1721 H1713 0.930 . S
C1721 C1719 1.419 . S
C1721 C1722 1.362 . S
C1722 H1714 0.930 . S
C1722 C1721 1.362 . S
C1722 C1725 1.409 . S
C1723 H1715 0.930 . S
C1723 C1724 1.355 . S
C1723 C1725 1.415 . S
C1724 C1723 1.355 . S
C1724 C1726 1.419 . S
C1725 C1720 1.425 . S
C1725 C1722 1.409 . S
C1725 C1723 1.415 . S
C1726 H1716 0.930 1_545 S
C1726 C1724 1.419 . S
C1726 C1727 1.362 . S
C1727 H1717 0.930 . S
C1727 C1720 1.409 . S
C1727 C1726 1.362 . S
H1728 C1734 0.930 . S
H1729 C1737 0.930 . S
H1730 C1738 0.930 . S
H1731 C1739 0.930 . S
H1732 C1742 0.930 . S
H1733 C1743 0.930 . S
C1734 H1728 0.930 . S
C1734 C1735 1.355 . S
C1734 C1736 1.415 . S
C1735 C1734 1.355 . S
C1735 C1737 1.419 . S
C1736 C1734 1.415 . S
C1736 C1741 1.425 . S
C1736 C1743 1.409 . S
C1737 H1729 0.930 . S
C1737 C1735 1.419 . S
C1737 C1738 1.362 . S
C1738 H1730 0.930 . S
C1738 C1737 1.362 . S
C1738 C1741 1.409 . S
C1739 H1731 0.930 . S
C1739 C1740 1.355 . S
C1739 C1741 1.415 . S
C1740 C1739 1.355 . S
C1740 C1742 1.419 . S
C1741 C1736 1.425 . S
C1741 C1738 1.409 . S
C1741 C1739 1.415 . S
C1742 H1732 0.930 . S
C1742 C1740 1.419 . S
C1742 C1743 1.362 . S
C1743 H1733 0.930 . S
C1743 C1736 1.409 . S
C1743 C1742 1.362 . S
H1744 C1750 0.930 . S
H1745 C1753 0.930 . S
H1746 C1754 0.930 . S
H1747 C1755 0.930 . S
H1748 C1758 0.930 . S
H1749 C1759 0.930 . S
C1750 H1744 0.930 . S
C1750 C1751 1.355 . S
C1750 C1752 1.415 . S
C1751 C1750 1.355 . S
C1751 C1753 1.419 . S
C1752 C1750 1.415 . S
C1752 C1757 1.425 . S
C1752 C1759 1.409 . S
C1753 H1745 0.930 . S
C1753 C1751 1.419 . S
C1753 C1754 1.362 . S
C1754 H1746 0.930 . S
C1754 C1753 1.362 . S
C1754 C1757 1.409 . S
C1755 H1747 0.930 . S
C1755 C1756 1.355 . S
C1755 C1757 1.415 . S
C1756 C1755 1.355 . S
C1756 C1758 1.419 . S
C1757 C1752 1.425 . S
C1757 C1754 1.409 . S
C1757 C1755 1.415 . S
C1758 H1748 0.930 . S
C1758 C1756 1.419 . S
C1758 C1759 1.362 . S
C1759 H1749 0.930 . S
C1759 C1752 1.409 . S
C1759 C1758 1.362 . S
H1760 C1766 0.930 . S
H1761 C1769 0.930 . S
H1762 C1770 0.930 . S
H1763 C1771 0.930 . S
H1764 C1774 0.930 . S
H1765 C1775 0.930 . S
C1766 H1760 0.930 . S
C1766 C1767 1.355 . S
C1766 C1768 1.415 . S
C1767 C1766 1.355 . S
C1767 C1769 1.419 . S
C1768 C1766 1.415 . S
C1768 C1773 1.425 . S
C1768 C1775 1.409 . S
C1769 H1761 0.930 . S
C1769 C1767 1.419 . S
C1769 C1770 1.362 . S
C1770 H1762 0.930 . S
C1770 C1769 1.362 . S
C1770 C1773 1.409 . S
C1771 H1763 0.930 . S
C1771 C1772 1.355 . S
C1771 C1773 1.415 . S
C1772 C1771 1.355 . S
C1772 C1774 1.419 . S
C1773 C1768 1.425 . S
C1773 C1770 1.409 . S
C1773 C1771 1.415 . S
C1774 H1764 0.930 . S
C1774 C1772 1.419 . S
C1774 C1775 1.362 . S
C1775 H1765 0.930 . S
C1775 C1768 1.409 . S
C1775 C1774 1.362 . S
H1776 C1782 0.930 . S
H1777 C1785 0.930 . S
H1778 C1786 0.930 . S
H1779 C1787 0.930 . S
H1780 C1790 0.930 . S
H1781 C1791 0.930 . S
C1782 H1776 0.930 . S
C1782 C1783 1.355 . S
C1782 C1784 1.415 . S
C1783 C1782 1.355 . S
C1783 C1785 1.419 . S
C1784 C1782 1.415 . S
C1784 C1789 1.425 . S
C1784 C1791 1.409 . S
C1785 H1777 0.930 . S
C1785 C1783 1.419 . S
C1785 C1786 1.362 . S
C1786 H1778 0.930 . S
C1786 C1785 1.362 . S
C1786 C1789 1.409 . S
C1787 H1779 0.930 . S
C1787 C1788 1.355 . S
C1787 C1789 1.415 . S
C1788 C1787 1.355 . S
C1788 C1790 1.419 . S
C1789 C1784 1.425 . S
C1789 C1786 1.409 . S
C1789 C1787 1.415 . S
C1790 H1780 0.930 . S
C1790 C1788 1.419 . S
C1790 C1791 1.362 . S
C1791 H1781 0.930 . S
C1791 C1784 1.409 . S
C1791 C1790 1.362 . S
H1792 C1798 0.930 . S
H1793 C1801 0.930 . S
H1794 C1802 0.930 . S
H1795 C1803 0.930 . S
H1796 C1806 0.930 . S
H1797 C1807 0.930 . S
C1798 H1792 0.930 . S
C1798 C1799 1.355 . S
C1798 C1800 1.415 . S
C1799 C1798 1.355 . S
C1799 C1801 1.419 . S
C1800 C1798 1.415 . S
C1800 C1805 1.425 . S
C1800 C1807 1.409 . S
C1801 H1793 0.930 . S
C1801 C1799 1.419 . S
C1801 C1802 1.362 . S
C1802 H1794 0.930 . S
C1802 C1801 1.362 . S
C1802 C1805 1.409 . S
C1803 H1795 0.930 . S
C1803 C1804 1.355 . S
C1803 C1805 1.415 . S
C1804 C1803 1.355 . S
C1804 C1806 1.419 . S
C1805 C1800 1.425 . S
C1805 C1802 1.409 . S
C1805 C1803 1.415 . S
C1806 H1796 0.930 . S
C1806 C1804 1.419 . S
C1806 C1807 1.362 . S
C1807 H1797 0.930 . S
C1807 C1800 1.409 . S
C1807 C1806 1.362 . S
H1808 C1814 0.930 . S
H1809 C1817 0.930 . S
H1810 C1818 0.930 . S
H1811 C1819 0.930 . S
H1812 C1822 0.930 . S
H1813 C1823 0.930 . S
C1814 H1808 0.930 . S
C1814 C1815 1.355 . S
C1814 C1816 1.415 . S
C1815 C1814 1.355 . S
C1815 C1817 1.419 . S
C1816 C1814 1.415 . S
C1816 C1821 1.425 . S
C1816 C1823 1.409 . S
C1817 H1809 0.930 . S
C1817 C1815 1.419 . S
C1817 C1818 1.362 . S
C1818 H1810 0.930 . S
C1818 C1817 1.362 . S
C1818 C1821 1.409 . S
C1819 H1811 0.930 . S
C1819 C1820 1.355 . S
C1819 C1821 1.415 . S
C1820 C1819 1.355 . S
C1820 C1822 1.419 . S
C1821 C1816 1.425 . S
C1821 C1818 1.409 . S
C1821 C1819 1.415 . S
C1822 H1812 0.930 . S
C1822 C1820 1.419 . S
C1822 C1823 1.362 . S
C1823 H1813 0.930 . S
C1823 C1816 1.409 . S
C1823 C1822 1.362 . S
H1824 C1830 0.930 . S
H1825 C1833 0.930 . S
H1826 C1834 0.930 . S
H1827 C1835 0.930 . S
H1828 C1838 0.930 . S
H1829 C1839 0.930 . S
C1830 H1824 0.930 . S
C1830 C1831 1.355 . S
C1830 C1832 1.415 . S
C1831 C1830 1.355 . S
C1831 C1833 1.419 . S
C1832 C1830 1.415 . S
C1832 C1837 1.425 . S
C1832 C1839 1.409 . S
C1833 H1825 0.930 . S
C1833 C1831 1.419 . S
C1833 C1834 1.362 . S
C1834 H1826 0.930 . S
C1834 C1833 1.362 . S
C1834 C1837 1.409 . S
C1835 H1827 0.930 . S
C1835 C1836 1.355 . S
C1835 C1837 1.415 . S
C1836 C1835 1.355 . S
C1836 C1838 1.419 . S
C1837 C1832 1.425 . S
C1837 C1834 1.409 . S
C1837 C1835 1.415 . S
C1838 H1828 0.930 . S
C1838 C1836 1.419 . S
C1838 C1839 1.362 . S
C1839 H1829 0.930 . S
C1839 C1832 1.409 . S
C1839 C1838 1.362 . S
H1840 C1846 0.930 . S
H1841 C1849 0.930 . S
H1842 C1850 0.930 . S
H1843 C1851 0.930 . S
H1844 C1854 0.930 . S
H1845 C1855 0.930 . S
C1846 H1840 0.930 . S
C1846 C1847 1.355 . S
C1846 C1848 1.415 . S
C1847 C1846 1.355 . S
C1847 C1849 1.419 . S
C1848 C1846 1.415 . S
C1848 C1853 1.425 . S
C1848 C1855 1.409 . S
C1849 H1841 0.930 . S
C1849 C1847 1.419 . S
C1849 C1850 1.362 . S
C1850 H1842 0.930 . S
C1850 C1849 1.362 . S
C1850 C1853 1.409 . S
C1851 H1843 0.930 . S
C1851 C1852 1.355 . S
C1851 C1853 1.415 . S
C1852 C1851 1.355 . S
C1852 C1854 1.419 . S
C1853 C1848 1.425 . S
C1853 C1850 1.409 . S
C1853 C1851 1.415 . S
C1854 H1844 0.930 . S
C1854 C1852 1.419 . S
C1854 C1855 1.362 . S
C1855 H1845 0.930 . S
C1855 C1848 1.409 . S
C1855 C1854 1.362 . S
H1856 C1862 0.930 1_546 S
H1857 C1865 0.930 . S
H1858 C1866 0.930 . S
H1859 C1867 0.930 . S
H1860 C1870 0.930 . S
H1861 C1871 0.930 . S
C1862 H1856 0.930 1_564 S
C1862 C1863 1.355 . S
C1862 C1864 1.415 . S
C1863 C1862 1.355 . S
C1863 C1865 1.419 . S
C1864 C1862 1.415 . S
C1864 C1869 1.425 . S
C1864 C1871 1.409 . S
C1865 H1857 0.930 . S
C1865 C1863 1.419 . S
C1865 C1866 1.362 . S
C1866 H1858 0.930 . S
C1866 C1865 1.362 . S
C1866 C1869 1.409 . S
C1867 H1859 0.930 . S
C1867 C1868 1.355 . S
C1867 C1869 1.415 . S
C1868 C1867 1.355 . S
C1868 C1870 1.419 . S
C1869 C1864 1.425 . S
C1869 C1866 1.409 . S
C1869 C1867 1.415 . S
C1870 H1860 0.930 . S
C1870 C1868 1.419 . S
C1870 C1871 1.362 . S
C1871 H1861 0.930 . S
C1871 C1864 1.409 . S
C1871 C1870 1.362 . S
H1872 C1878 0.930 . S
H1873 C1881 0.930 . S
H1874 C1882 0.930 . S
H1875 C1883 0.930 . S
H1876 C1886 0.930 1_556 S
H1877 C1887 0.930 . S
C1878 H1872 0.930 . S
C1878 C1879 1.355 1_556 S
C1878 C1880 1.415 1_556 S
C1879 C1878 1.355 1_554 S
C1879 C1881 1.419 . S
C1880 C1878 1.415 1_554 S
C1880 C1885 1.425 . S
C1880 C1887 1.409 1_554 S
C1881 H1873 0.930 . S
C1881 C1879 1.419 . S
C1881 C1882 1.362 . S
C1882 H1874 0.930 . S
C1882 C1881 1.362 . S
C1882 C1885 1.409 . S
C1883 H1875 0.930 . S
C1883 C1884 1.355 . S
C1883 C1885 1.415 . S
C1884 C1883 1.355 . S
C1884 C1886 1.419 . S
C1885 C1880 1.425 . S
C1885 C1882 1.409 . S
C1885 C1883 1.415 . S
C1886 H1876 0.930 1_554 S
C1886 C1884 1.419 . S
C1886 C1887 1.362 1_554 S
C1887 H1877 0.930 . S
C1887 C1880 1.409 1_556 S
C1887 C1886 1.362 1_556 S
H1888 C1894 0.930 . S
H1889 C1897 0.930 . S
H1890 C1898 0.930 . S
H1891 C1899 0.930 . S
H1892 C1902 0.930 . S
H1893 C1903 0.930 . S
C1894 H1888 0.930 . S
C1894 C1895 1.355 . S
C1894 C1896 1.415 . S
C1895 C1894 1.355 . S
C1895 C1897 1.419 . S
C1896 C1894 1.415 . S
C1896 C1901 1.425 . S
C1896 C1903 1.409 . S
C1897 H1889 0.930 . S
C1897 C1895 1.419 . S
C1897 C1898 1.362 . S
C1898 H1890 0.930 . S
C1898 C1897 1.362 . S
C1898 C1901 1.409 . S
C1899 H1891 0.930 . S
C1899 C1900 1.355 . S
C1899 C1901 1.415 . S
C1900 C1899 1.355 . S
C1900 C1902 1.419 . S
C1901 C1896 1.425 . S
C1901 C1898 1.409 . S
C1901 C1899 1.415 . S
C1902 H1892 0.930 . S
C1902 C1900 1.419 . S
C1902 C1903 1.362 . S
C1903 H1893 0.930 . S
C1903 C1896 1.409 . S
C1903 C1902 1.362 . S
H1904 C1910 0.930 . S
H1905 C1913 0.930 . S
H1906 C1914 0.930 . S
H1907 C1915 0.930 . S
H1908 C1918 0.930 1_545 S
H1909 C1919 0.930 . S
C1910 H1904 0.930 . S
C1910 C1911 1.355 . S
C1910 C1912 1.415 . S
C1911 C1910 1.355 . S
C1911 C1913 1.419 . S
C1912 C1910 1.415 . S
C1912 C1917 1.425 . S
C1912 C1919 1.409 . S
C1913 H1905 0.930 . S
C1913 C1911 1.419 . S
C1913 C1914 1.362 . S
C1914 H1906 0.930 . S
C1914 C1913 1.362 . S
C1914 C1917 1.409 . S
C1915 H1907 0.930 . S
C1915 C1916 1.355 . S
C1915 C1917 1.415 . S
C1916 C1915 1.355 . S
C1916 C1918 1.419 . S
C1917 C1912 1.425 . S
C1917 C1914 1.409 . S
C1917 C1915 1.415 . S
C1918 H1908 0.930 1_565 S
C1918 C1916 1.419 . S
C1918 C1919 1.362 . S
C1919 H1909 0.930 . S
C1919 C1912 1.409 . S
C1919 C1918 1.362 . S
H1920 C1926 0.930 1_554 S
H1921 C1929 0.930 . S
H1922 C1930 0.930 . S
H1923 C1931 0.930 . S
H1924 C1934 0.930 . S
H1925 C1935 0.930 . S
C1926 H1920 0.930 1_556 S
C1926 C1927 1.355 . S
C1926 C1928 1.415 . S
C1927 C1926 1.355 . S
C1927 C1929 1.419 . S
C1928 C1926 1.415 . S
C1928 C1933 1.425 . S
C1928 C1935 1.409 1_556 S
C1929 H1921 0.930 . S
C1929 C1927 1.419 . S
C1929 C1930 1.362 . S
C1930 H1922 0.930 . S
C1930 C1929 1.362 . S
C1930 C1933 1.409 . S
C1931 H1923 0.930 . S
C1931 C1932 1.355 1_556 S
C1931 C1933 1.415 . S
C1932 C1931 1.355 1_554 S
C1932 C1934 1.419 . S
C1933 C1928 1.425 . S
C1933 C1930 1.409 . S
C1933 C1931 1.415 . S
C1934 H1924 0.930 . S
C1934 C1932 1.419 . S
C1934 C1935 1.362 . S
C1935 H1925 0.930 . S
C1935 C1928 1.409 1_554 S
C1935 C1934 1.362 . S
H1936 C1942 0.930 1_554 S
H1937 C1945 0.930 . S
H1938 C1946 0.930 . S
H1939 C1947 0.930 . S
H1940 C1950 0.930 . S
H1941 C1951 0.930 . S
C1942 H1936 0.930 1_556 S
C1942 C1943 1.355 . S
C1942 C1944 1.415 . S
C1943 C1942 1.355 . S
C1943 C1945 1.419 . S
C1944 C1942 1.415 . S
C1944 C1949 1.425 . S
C1944 C1951 1.409 1_556 S
C1945 H1937 0.930 . S
C1945 C1943 1.419 . S
C1945 C1946 1.362 . S
C1946 H1938 0.930 . S
C1946 C1945 1.362 . S
C1946 C1949 1.409 . S
C1947 H1939 0.930 . S
C1947 C1948 1.355 1_556 S
C1947 C1949 1.415 . S
C1948 C1947 1.355 1_554 S
C1948 C1950 1.419 . S
C1949 C1944 1.425 . S
C1949 C1946 1.409 . S
C1949 C1947 1.415 . S
C1950 H1940 0.930 . S
C1950 C1948 1.419 . S
C1950 C1951 1.362 . S
C1951 H1941 0.930 . S
C1951 C1944 1.409 1_554 S
C1951 C1950 1.362 . S
H1952 C1958 0.930 . S
H1953 C1961 0.930 . S
H1954 C1962 0.930 . S
H1955 C1963 0.930 . S
H1956 C1966 0.930 . S
H1957 C1967 0.930 . S
C1958 H1952 0.930 . S
C1958 C1959 1.355 . S
C1958 C1960 1.415 . S
C1959 C1958 1.355 . S
C1959 C1961 1.419 . S
C1960 C1958 1.415 . S
C1960 C1965 1.425 . S
C1960 C1967 1.409 . S
C1961 H1953 0.930 . S
C1961 C1959 1.419 . S
C1961 C1962 1.362 . S
C1962 H1954 0.930 . S
C1962 C1961 1.362 . S
C1962 C1965 1.409 . S
C1963 H1955 0.930 . S
C1963 C1964 1.355 . S
C1963 C1965 1.415 . S
C1964 C1963 1.355 . S
C1964 C1966 1.419 . S
C1965 C1960 1.425 . S
C1965 C1962 1.409 . S
C1965 C1963 1.415 . S
C1966 H1956 0.930 . S
C1966 C1964 1.419 . S
C1966 C1967 1.362 . S
C1967 H1957 0.930 . S
C1967 C1960 1.409 . S
C1967 C1966 1.362 . S
H1968 C1974 0.930 . S
H1969 C1977 0.930 . S
H1970 C1978 0.930 . S
H1971 C1979 0.930 1_565 S
H1972 C1982 0.930 . S
H1973 C1983 0.930 . S
C1974 H1968 0.930 . S
C1974 C1975 1.355 . S
C1974 C1976 1.415 . S
C1975 C1974 1.355 . S
C1975 C1977 1.419 . S
C1976 C1974 1.415 . S
C1976 C1981 1.425 . S
C1976 C1983 1.409 . S
C1977 H1969 0.930 . S
C1977 C1975 1.419 . S
C1977 C1978 1.362 . S
C1978 H1970 0.930 . S
C1978 C1977 1.362 . S
C1978 C1981 1.409 . S
C1979 H1971 0.930 1_545 S
C1979 C1980 1.355 . S
C1979 C1981 1.415 . S
C1980 C1979 1.355 . S
C1980 C1982 1.419 . S
C1981 C1976 1.425 . S
C1981 C1978 1.409 . S
C1981 C1979 1.415 . S
C1982 H1972 0.930 . S
C1982 C1980 1.419 . S
C1982 C1983 1.362 . S
C1983 H1973 0.930 . S
C1983 C1976 1.409 . S
C1983 C1982 1.362 . S
H1984 C1990 0.902 1_455 S
H1985 C1993 0.930 . S
H1986 C1994 0.930 . S
H1987 C1995 0.930 . S
H1988 C1998 0.930 . S
H1989 C1999 0.930 . S
C1990 H1984 0.902 1_655 S
C1990 C1991 1.388 . S
C1990 C1992 1.414 . S
C1991 C1990 1.388 . S
C1991 C1993 1.419 . S
C1992 C1990 1.414 . S
C1992 C1997 1.433 . S
C1992 C1999 1.401 1_655 S
C1993 H1985 0.930 . S
C1993 C1991 1.419 . S
C1993 C1994 1.362 . S
C1994 H1986 0.930 . S
C1994 C1993 1.362 . S
C1994 C1997 1.409 . S
C1995 H1987 0.930 . S
C1995 C1996 1.354 . S
C1995 C1997 1.415 . S
C1996 C1995 1.354 . S
C1996 C1998 1.420 1_655 S
C1997 C1992 1.433 . S
C1997 C1994 1.409 . S
C1997 C1995 1.415 . S
C1998 H1988 0.930 . S
C1998 C1996 1.420 1_455 S
C1998 C1999 1.362 . S
C1999 H1989 0.930 . S
C1999 C1992 1.401 1_455 S
C1999 C1998 1.362 . S
H2000 C2006 0.930 . S
H2001 C2009 0.930 1_565 S
H2002 C2010 0.930 . S
H2003 C2011 0.930 . S
H2004 C2014 0.930 . S
H2005 C2015 0.930 . S
C2006 H2000 0.930 . S
C2006 C2007 1.355 . S
C2006 C2008 1.415 . S
C2007 C2006 1.355 . S
C2007 C2009 1.419 . S
C2008 C2006 1.415 . S
C2008 C2013 1.425 . S
C2008 C2015 1.409 . S
C2009 H2001 0.930 1_545 S
C2009 C2007 1.419 . S
C2009 C2010 1.362 . S
C2010 H2002 0.930 . S
C2010 C2009 1.362 . S
C2010 C2013 1.409 . S
C2011 H2003 0.930 . S
C2011 C2012 1.355 . S
C2011 C2013 1.415 . S
C2012 C2011 1.355 . S
C2012 C2014 1.419 . S
C2013 C2008 1.425 . S
C2013 C2010 1.409 . S
C2013 C2011 1.415 . S
C2014 H2004 0.930 . S
C2014 C2012 1.419 . S
C2014 C2015 1.362 . S
C2015 H2005 0.930 . S
C2015 C2008 1.409 . S
C2015 C2014 1.362 . S
H2016 C2022 0.930 . S
H2017 C2025 0.930 . S
H2018 C2026 0.930 . S
H2019 C2027 0.930 . S
H2020 C2030 0.930 . S
H2021 C2031 0.930 . S
C2022 H2016 0.930 . S
C2022 C2023 1.355 . S
C2022 C2024 1.415 . S
C2023 C2022 1.355 . S
C2023 C2025 1.419 1_655 S
C2024 C2022 1.415 . S
C2024 C2029 1.425 1_655 S
C2024 C2031 1.409 . S
C2025 H2017 0.930 . S
C2025 C2023 1.419 1_455 S
C2025 C2026 1.362 . S
C2026 H2018 0.930 . S
C2026 C2025 1.362 . S
C2026 C2029 1.409 . S
C2027 H2019 0.930 . S
C2027 C2028 1.355 1_455 S
C2027 C2029 1.415 . S
C2028 C2027 1.355 1_655 S
C2028 C2030 1.419 . S
C2029 C2024 1.425 1_455 S
C2029 C2026 1.409 . S
C2029 C2027 1.415 . S
C2030 H2020 0.930 . S
C2030 C2028 1.419 . S
C2030 C2031 1.362 . S
C2031 H2021 0.930 . S
C2031 C2024 1.409 . S
C2031 C2030 1.362 . S
H2032 C2038 0.930 . S
H2033 C2041 0.930 . S
H2034 C2042 0.930 . S
H2035 C2043 0.930 . S
H2036 C2046 0.930 . S
H2037 C2047 0.930 . S
C2038 H2032 0.930 . S
C2038 C2039 1.355 . S
C2038 C2040 1.415 . S
C2039 C2038 1.355 . S
C2039 C2041 1.419 . S
C2040 C2038 1.415 . S
C2040 C2045 1.425 . S
C2040 C2047 1.409 . S
C2041 H2033 0.930 . S
C2041 C2039 1.419 . S
C2041 C2042 1.362 . S
C2042 H2034 0.930 . S
C2042 C2041 1.362 . S
C2042 C2045 1.409 . S
C2043 H2035 0.930 . S
C2043 C2044 1.355 . S
C2043 C2045 1.415 . S
C2044 C2043 1.355 . S
C2044 C2046 1.419 . S
C2045 C2040 1.425 . S
C2045 C2042 1.409 . S
C2045 C2043 1.415 . S
C2046 H2036 0.930 . S
C2046 C2044 1.419 . S
C2046 C2047 1.362 . S
C2047 H2037 0.930 . S
C2047 C2040 1.409 . S
C2047 C2046 1.362 . S
H2048 C2054 0.930 . S
H2049 C2057 0.930 . S
H2050 C2058 0.930 . S
H2051 C2059 0.930 . S
H2052 C2062 0.930 . S
H2053 C2063 0.930 . S
C2054 H2048 0.930 . S
C2054 C2055 1.355 . S
C2054 C2056 1.415 . S
C2055 C2054 1.355 . S
C2055 C2057 1.419 1_455 S
C2056 C2054 1.415 . S
C2056 C2061 1.425 1_455 S
C2056 C2063 1.409 . S
C2057 H2049 0.930 . S
C2057 C2055 1.419 1_655 S
C2057 C2058 1.362 . S
C2058 H2050 0.930 . S
C2058 C2057 1.362 . S
C2058 C2061 1.409 . S
C2059 H2051 0.930 . S
C2059 C2060 1.355 1_655 S
C2059 C2061 1.415 . S
C2060 C2059 1.355 1_455 S
C2060 C2062 1.419 . S
C2061 C2056 1.425 1_655 S
C2061 C2058 1.409 . S
C2061 C2059 1.415 . S
C2062 H2052 0.930 . S
C2062 C2060 1.419 . S
C2062 C2063 1.362 . S
C2063 H2053 0.930 . S
C2063 C2056 1.409 . S
C2063 C2062 1.362 . S
H2064 C2070 0.930 1_545 S
H2065 C2073 0.930 . S
H2066 C2074 0.930 . S
H2067 C2075 0.930 . S
H2068 C2078 0.930 . S
H2069 C2079 0.930 . S
C2070 H2064 0.930 1_565 S
C2070 C2071 1.355 . S
C2070 C2072 1.415 . S
C2071 C2070 1.355 . S
C2071 C2073 1.419 . S
C2072 C2070 1.415 . S
C2072 C2077 1.425 . S
C2072 C2079 1.409 . S
C2073 H2065 0.930 . S
C2073 C2071 1.419 . S
C2073 C2074 1.362 . S
C2074 H2066 0.930 . S
C2074 C2073 1.362 . S
C2074 C2077 1.409 . S
C2075 H2067 0.930 . S
C2075 C2076 1.355 . S
C2075 C2077 1.415 . S
C2076 C2075 1.355 . S
C2076 C2078 1.419 . S
C2077 C2072 1.425 . S
C2077 C2074 1.409 . S
C2077 C2075 1.415 . S
C2078 H2068 0.930 . S
C2078 C2076 1.419 . S
C2078 C2079 1.362 . S
C2079 H2069 0.930 . S
C2079 C2072 1.409 . S
C2079 C2078 1.362 . S
H2080 C2086 0.930 . S
H2081 C2089 0.930 . S
H2082 C2090 0.930 . S
H2083 C2091 0.930 . S
H2084 C2094 0.930 1_545 S
H2085 C2095 0.930 . S
C2086 H2080 0.930 . S
C2086 C2087 1.355 1_655 S
C2086 C2088 1.415 . S
C2087 C2086 1.355 1_455 S
C2087 C2089 1.419 . S
C2088 C2086 1.415 . S
C2088 C2093 1.425 1_655 S
C2088 C2095 1.409 . S
C2089 H2081 0.930 . S
C2089 C2087 1.419 . S
C2089 C2090 1.362 . S
C2090 H2082 0.930 . S
C2090 C2089 1.362 . S
C2090 C2093 1.409 . S
C2091 H2083 0.930 . S
C2091 C2092 1.349 1_455 S
C2091 C2093 1.415 . S
C2092 C2091 1.349 1_655 S
C2092 C2094 1.426 . S
C2093 C2088 1.425 1_455 S
C2093 C2090 1.409 . S
C2093 C2091 1.415 . S
C2094 H2084 0.930 1_565 S
C2094 C2092 1.426 . S
C2094 C2095 1.362 . S
C2095 H2085 0.930 . S
C2095 C2088 1.409 . S
C2095 C2094 1.362 . S
H2096 C2102 0.930 . S
H2097 C2105 0.930 . S
H2098 C2106 0.930 . S
H2099 C2107 0.930 . S
H2100 C2110 0.930 . S
H2101 C2111 0.930 . S
C2102 H2096 0.930 . S
C2102 C2103 1.355 . S
C2102 C2104 1.415 . S
C2103 C2102 1.355 . S
C2103 C2105 1.419 . S
C2104 C2102 1.415 . S
C2104 C2109 1.425 . S
C2104 C2111 1.409 . S
C2105 H2097 0.930 . S
C2105 C2103 1.419 . S
C2105 C2106 1.362 . S
C2106 H2098 0.930 . S
C2106 C2105 1.362 . S
C2106 C2109 1.409 . S
C2107 H2099 0.930 . S
C2107 C2108 1.355 . S
C2107 C2109 1.415 . S
C2108 C2107 1.355 . S
C2108 C2110 1.419 . S
C2109 C2104 1.425 . S
C2109 C2106 1.409 . S
C2109 C2107 1.415 . S
C2110 H2100 0.930 . S
C2110 C2108 1.419 . S
C2110 C2111 1.362 . S
C2111 H2101 0.930 . S
C2111 C2104 1.409 . S
C2111 C2110 1.362 . S
H2112 C2118 0.930 . S
H2113 C2121 0.930 . S
H2114 C2122 0.930 . S
H2115 C2123 0.930 . S
H2116 C2126 0.930 . S
H2117 C2127 0.930 . S
C2118 H2112 0.930 . S
C2118 C2119 1.379 . S
C2118 C2120 1.415 . S
C2119 C2118 1.379 . S
C2119 C2121 1.394 1_655 S
C2120 C2118 1.415 . S
C2120 C2125 1.425 1_655 S
C2120 C2127 1.409 . S
C2121 H2113 0.930 . S
C2121 C2119 1.394 1_455 S
C2121 C2122 1.362 . S
C2122 H2114 0.930 . S
C2122 C2121 1.362 . S
C2122 C2125 1.409 . S
C2123 H2115 0.930 . S
C2123 C2124 1.355 1_455 S
C2123 C2125 1.415 . S
C2124 C2123 1.355 1_655 S
C2124 C2126 1.419 . S
C2125 C2120 1.425 1_455 S
C2125 C2122 1.409 . S
C2125 C2123 1.415 . S
C2126 H2116 0.930 . S
C2126 C2124 1.419 . S
C2126 C2127 1.362 . S
C2127 H2117 0.930 . S
C2127 C2120 1.409 . S
C2127 C2126 1.362 . S
H2128 C2134 0.930 . S
H2129 C2137 0.930 . S
H2130 C2138 0.930 . S
H2131 C2139 0.930 . S
H2132 C2142 0.930 . S
H2133 C2143 0.930 . S
C2134 H2128 0.930 . S
C2134 C2135 1.355 . S
C2134 C2136 1.415 . S
C2135 C2134 1.355 . S
C2135 C2137 1.419 . S
C2136 C2134 1.415 . S
C2136 C2141 1.425 . S
C2136 C2143 1.409 . S
C2137 H2129 0.930 . S
C2137 C2135 1.419 . S
C2137 C2138 1.362 . S
C2138 H2130 0.930 . S
C2138 C2137 1.362 . S
C2138 C2141 1.409 . S
C2139 H2131 0.930 . S
C2139 C2140 1.355 . S
C2139 C2141 1.415 . S
C2140 C2139 1.355 . S
C2140 C2142 1.419 . S
C2141 C2136 1.425 . S
C2141 C2138 1.409 . S
C2141 C2139 1.415 . S
C2142 H2132 0.930 . S
C2142 C2140 1.419 . S
C2142 C2143 1.362 . S
C2143 H2133 0.930 . S
C2143 C2136 1.409 . S
C2143 C2142 1.362 . S
H2144 C2150 0.930 . S
H2145 C2153 0.930 . S
H2146 C2154 0.930 . S
H2147 C2155 0.930 . S
H2148 C2158 0.930 . S
H2149 C2159 0.930 . S
C2150 H2144 0.930 . S
C2150 C2151 1.355 1_455 S
C2150 C2152 1.415 . S
C2151 C2150 1.355 1_655 S
C2151 C2153 1.419 . S
C2152 C2150 1.415 . S
C2152 C2157 1.425 1_455 S
C2152 C2159 1.409 . S
C2153 H2145 0.930 . S
C2153 C2151 1.419 . S
C2153 C2154 1.362 . S
C2154 H2146 0.930 . S
C2154 C2153 1.362 . S
C2154 C2157 1.409 . S
C2155 H2147 0.930 . S
C2155 C2156 1.355 . S
C2155 C2157 1.415 . S
C2156 C2155 1.355 . S
C2156 C2158 1.419 1_655 S
C2157 C2152 1.425 1_655 S
C2157 C2154 1.409 . S
C2157 C2155 1.415 . S
C2158 H2148 0.930 . S
C2158 C2156 1.419 1_455 S
C2158 C2159 1.362 . S
C2159 H2149 0.930 . S
C2159 C2152 1.409 . S
C2159 C2158 1.362 . S
H2160 C2166 0.930 . S
H2161 C2169 0.930 . S
H2162 C2170 0.930 . S
H2163 C2171 0.930 . S
H2164 C2174 0.930 . S
H2165 C2175 0.930 . S
C2166 H2160 0.930 . S
C2166 C2167 1.355 . S
C2166 C2168 1.415 . S
C2167 C2166 1.355 . S
C2167 C2169 1.419 . S
C2168 C2166 1.415 . S
C2168 C2173 1.425 . S
C2168 C2175 1.409 . S
C2169 H2161 0.930 . S
C2169 C2167 1.419 . S
C2169 C2170 1.362 . S
C2170 H2162 0.930 . S
C2170 C2169 1.362 . S
C2170 C2173 1.409 . S
C2171 H2163 0.930 . S
C2171 C2172 1.355 . S
C2171 C2173 1.415 . S
C2172 C2171 1.355 . S
C2172 C2174 1.419 . S
C2173 C2168 1.425 . S
C2173 C2170 1.409 . S
C2173 C2171 1.415 . S
C2174 H2164 0.930 . S
C2174 C2172 1.419 . S
C2174 C2175 1.362 . S
C2175 H2165 0.930 . S
C2175 C2168 1.409 . S
C2175 C2174 1.362 . S
H2176 C2182 0.930 . S
H2177 C2185 0.930 . S
H2178 C2186 0.930 . S
H2179 C2187 0.930 . S
H2180 C2190 0.930 . S
H2181 C2191 0.930 . S
C2182 H2176 0.930 . S
C2182 C2183 1.355 1_655 S
C2182 C2184 1.426 . S
C2183 C2182 1.355 1_455 S
C2183 C2185 1.419 . S
C2184 C2182 1.426 . S
C2184 C2189 1.390 1_655 S
C2184 C2191 1.434 . S
C2185 H2177 0.930 . S
C2185 C2183 1.419 . S
C2185 C2186 1.362 . S
C2186 H2178 0.930 . S
C2186 C2185 1.362 . S
C2186 C2189 1.409 . S
C2187 H2179 0.930 . S
C2187 C2188 1.355 . S
C2187 C2189 1.415 . S
C2188 C2187 1.355 . S
C2188 C2190 1.419 1_455 S
C2189 C2184 1.390 1_455 S
C2189 C2186 1.409 . S
C2189 C2187 1.415 . S
C2190 H2180 0.930 . S
C2190 C2188 1.419 1_655 S
C2190 C2191 1.362 . S
C2191 H2181 0.930 . S
C2191 C2184 1.434 . S
C2191 C2190 1.362 . S
H2192 C2198 0.930 . S
H2193 C2201 0.930 . S
H2194 C2202 0.930 . S
H2195 C2203 0.930 . S
H2196 C2206 0.930 . S
H2197 C2207 0.930 . S
C2198 H2192 0.930 . S
C2198 C2199 1.355 . S
C2198 C2200 1.415 . S
C2199 C2198 1.355 . S
C2199 C2201 1.419 . S
C2200 C2198 1.415 . S
C2200 C2205 1.425 . S
C2200 C2207 1.409 . S
C2201 H2193 0.930 . S
C2201 C2199 1.419 . S
C2201 C2202 1.362 . S
C2202 H2194 0.930 . S
C2202 C2201 1.362 . S
C2202 C2205 1.409 . S
C2203 H2195 0.930 . S
C2203 C2204 1.355 . S
C2203 C2205 1.415 . S
C2204 C2203 1.355 . S
C2204 C2206 1.419 . S
C2205 C2200 1.425 . S
C2205 C2202 1.409 . S
C2205 C2203 1.415 . S
C2206 H2196 0.930 . S
C2206 C2204 1.419 . S
C2206 C2207 1.362 . S
C2207 H2197 0.930 . S
C2207 C2200 1.409 . S
C2207 C2206 1.362 . S
H2208 C2214 0.930 . S
H2209 C2217 0.930 . S
H2210 C2218 0.930 . S
H2211 C2219 0.930 . S
H2212 C2222 0.930 . S
H2213 C2223 0.930 . S
C2214 H2208 0.930 . S
C2214 C2215 1.355 1_655 S
C2214 C2216 1.415 . S
C2215 C2214 1.355 1_455 S
C2215 C2217 1.419 . S
C2216 C2214 1.415 . S
C2216 C2221 1.425 1_655 S
C2216 C2223 1.409 . S
C2217 H2209 0.930 . S
C2217 C2215 1.419 . S
C2217 C2218 1.362 . S
C2218 H2210 0.930 . S
C2218 C2217 1.362 . S
C2218 C2221 1.409 . S
C2219 H2211 0.930 . S
C2219 C2220 1.355 . S
C2219 C2221 1.415 . S
C2220 C2219 1.355 . S
C2220 C2222 1.419 1_455 S
C2221 C2216 1.425 1_455 S
C2221 C2218 1.409 . S
C2221 C2219 1.415 . S
C2222 H2212 0.930 . S
C2222 C2220 1.419 1_655 S
C2222 C2223 1.362 . S
C2223 H2213 0.930 . S
C2223 C2216 1.409 . S
C2223 C2222 1.362 . S
H2224 C2230 0.930 . S
H2225 C2233 0.930 . S
H2226 C2234 0.930 . S
H2227 C2235 0.930 . S
H2228 C2238 0.930 . S
H2229 C2239 0.930 . S
C2230 H2224 0.930 . S
C2230 C2231 1.355 . S
C2230 C2232 1.415 . S
C2231 C2230 1.355 . S
C2231 C2233 1.419 . S
C2232 C2230 1.415 . S
C2232 C2237 1.425 . S
C2232 C2239 1.409 . S
C2233 H2225 0.930 . S
C2233 C2231 1.419 . S
C2233 C2234 1.362 . S
C2234 H2226 0.930 . S
C2234 C2233 1.362 . S
C2234 C2237 1.409 . S
C2235 H2227 0.930 . S
C2235 C2236 1.355 . S
C2235 C2237 1.415 . S
C2236 C2235 1.355 . S
C2236 C2238 1.419 . S
C2237 C2232 1.425 . S
C2237 C2234 1.409 . S
C2237 C2235 1.415 . S
C2238 H2228 0.930 . S
C2238 C2236 1.419 . S
C2238 C2239 1.362 . S
C2239 H2229 0.930 . S
C2239 C2232 1.409 . S
C2239 C2238 1.362 . S
H2240 C2246 0.930 . S
H2241 C2249 0.930 . S
H2242 C2250 0.930 . S
H2243 C2251 0.930 . S
H2244 C2254 0.930 . S
H2245 C2255 0.930 . S
C2246 H2240 0.930 . S
C2246 C2247 1.355 . S
C2246 C2248 1.415 . S
C2247 C2246 1.355 . S
C2247 C2249 1.419 . S
C2248 C2246 1.415 . S
C2248 C2253 1.425 . S
C2248 C2255 1.409 . S
C2249 H2241 0.930 . S
C2249 C2247 1.419 . S
C2249 C2250 1.362 . S
C2250 H2242 0.930 . S
C2250 C2249 1.362 . S
C2250 C2253 1.409 . S
C2251 H2243 0.930 . S
C2251 C2252 1.355 . S
C2251 C2253 1.415 . S
C2252 C2251 1.355 . S
C2252 C2254 1.419 . S
C2253 C2248 1.425 . S
C2253 C2250 1.409 . S
C2253 C2251 1.415 . S
C2254 H2244 0.930 . S
C2254 C2252 1.419 . S
C2254 C2255 1.362 . S
C2255 H2245 0.930 . S
C2255 C2248 1.409 . S
C2255 C2254 1.362 . S
H2256 C2262 0.930 1_565 S
H2257 C2265 0.930 . S
H2258 C2266 0.930 . S
H2259 C2267 0.930 . S
H2260 C2270 0.930 . S
H2261 C2271 0.930 . S
C2262 H2256 0.930 1_545 S
C2262 C2263 1.355 . S
C2262 C2264 1.415 . S
C2263 C2262 1.355 . S
C2263 C2265 1.419 . S
C2264 C2262 1.415 . S
C2264 C2269 1.425 . S
C2264 C2271 1.409 . S
C2265 H2257 0.930 . S
C2265 C2263 1.419 . S
C2265 C2266 1.362 . S
C2266 H2258 0.930 . S
C2266 C2265 1.362 . S
C2266 C2269 1.409 . S
C2267 H2259 0.930 . S
C2267 C2268 1.355 . S
C2267 C2269 1.415 . S
C2268 C2267 1.355 . S
C2268 C2270 1.419 . S
C2269 C2264 1.425 . S
C2269 C2266 1.409 . S
C2269 C2267 1.415 . S
C2270 H2260 0.930 . S
C2270 C2268 1.419 . S
C2270 C2271 1.362 . S
C2271 H2261 0.930 . S
C2271 C2264 1.409 . S
C2271 C2270 1.362 . S
H2272 C2278 0.930 . S
H2273 C2281 0.930 . S
H2274 C2282 0.930 . S
H2275 C2283 0.930 . S
H2276 C2286 0.930 . S
H2277 C2287 0.930 . S
C2278 H2272 0.930 . S
C2278 C2279 1.355 . S
C2278 C2280 1.415 . S
C2279 C2278 1.355 . S
C2279 C2281 1.419 . S
C2280 C2278 1.415 . S
C2280 C2285 1.425 . S
C2280 C2287 1.409 . S
C2281 H2273 0.930 . S
C2281 C2279 1.419 . S
C2281 C2282 1.362 . S
C2282 H2274 0.930 . S
C2282 C2281 1.362 . S
C2282 C2285 1.409 . S
C2283 H2275 0.930 . S
C2283 C2284 1.355 . S
C2283 C2285 1.415 . S
C2284 C2283 1.355 . S
C2284 C2286 1.419 . S
C2285 C2280 1.425 . S
C2285 C2282 1.409 . S
C2285 C2283 1.415 . S
C2286 H2276 0.930 . S
C2286 C2284 1.419 . S
C2286 C2287 1.362 . S
C2287 H2277 0.930 . S
C2287 C2280 1.409 . S
C2287 C2286 1.362 . S
H2288 C2294 0.930 . S
H2289 C2297 0.930 . S
H2290 C2298 0.930 . S
H2291 C2299 0.930 . S
H2292 C2302 0.930 . S
H2293 C2303 0.930 . S
C2294 H2288 0.930 . S
C2294 C2295 1.355 . S
C2294 C2296 1.415 . S
C2295 C2294 1.355 . S
C2295 C2297 1.419 . S
C2296 C2294 1.415 . S
C2296 C2301 1.425 . S
C2296 C2303 1.409 . S
C2297 H2289 0.930 . S
C2297 C2295 1.419 . S
C2297 C2298 1.362 . S
C2298 H2290 0.930 . S
C2298 C2297 1.362 . S
C2298 C2301 1.409 . S
C2299 H2291 0.930 . S
C2299 C2300 1.355 . S
C2299 C2301 1.415 . S
C2300 C2299 1.355 . S
C2300 C2302 1.419 . S
C2301 C2296 1.425 . S
C2301 C2298 1.409 . S
C2301 C2299 1.415 . S
C2302 H2292 0.930 . S
C2302 C2300 1.419 . S
C2302 C2303 1.362 . S
C2303 H2293 0.930 . S
C2303 C2296 1.409 . S
C2303 C2302 1.362 . S
H2304 C2310 0.930 . S
H2305 C2313 0.930 . S
H2306 C2314 0.930 . S
H2307 C2315 0.930 . S
H2308 C2318 0.930 . S
H2309 C2319 0.930 . S
C2310 H2304 0.930 . S
C2310 C2311 1.355 . S
C2310 C2312 1.415 . S
C2311 C2310 1.355 . S
C2311 C2313 1.419 . S
C2312 C2310 1.415 . S
C2312 C2317 1.425 . S
C2312 C2319 1.409 . S
C2313 H2305 0.930 . S
C2313 C2311 1.419 . S
C2313 C2314 1.362 . S
C2314 H2306 0.930 . S
C2314 C2313 1.362 . S
C2314 C2317 1.409 . S
C2315 H2307 0.930 . S
C2315 C2316 1.355 . S
C2315 C2317 1.415 . S
C2316 C2315 1.355 . S
C2316 C2318 1.419 . S
C2317 C2312 1.425 . S
C2317 C2314 1.409 . S
C2317 C2315 1.415 . S
C2318 H2308 0.930 . S
C2318 C2316 1.419 . S
C2318 C2319 1.362 . S
C2319 H2309 0.930 . S
C2319 C2312 1.409 . S
C2319 C2318 1.362 . S
H2320 C2326 0.930 . S
H2321 C2329 0.930 . S
H2322 C2330 0.930 . S
H2323 C2331 0.930 . S
H2324 C2334 0.930 . S
H2325 C2335 0.930 . S
C2326 H2320 0.930 . S
C2326 C2327 1.355 . S
C2326 C2328 1.415 . S
C2327 C2326 1.355 . S
C2327 C2329 1.419 1_565 S
C2328 C2326 1.415 . S
C2328 C2333 1.425 . S
C2328 C2335 1.409 . S
C2329 H2321 0.930 . S
C2329 C2327 1.419 1_545 S
C2329 C2330 1.362 1_545 S
C2330 H2322 0.930 . S
C2330 C2329 1.362 1_565 S
C2330 C2333 1.409 . S
C2331 H2323 0.930 . S
C2331 C2332 1.355 . S
C2331 C2333 1.415 . S
C2332 C2331 1.355 . S
C2332 C2334 1.419 . S
C2333 C2328 1.425 . S
C2333 C2330 1.409 . S
C2333 C2331 1.415 . S
C2334 H2324 0.930 . S
C2334 C2332 1.419 . S
C2334 C2335 1.362 . S
C2335 H2325 0.930 . S
C2335 C2328 1.409 . S
C2335 C2334 1.362 . S
H2336 C2342 0.930 . S
H2337 C2345 0.930 . S
H2338 C2346 0.930 . S
H2339 C2347 0.930 1_545 S
H2340 C2350 0.930 . S
H2341 C2351 0.930 . S
C2342 H2336 0.930 . S
C2342 C2343 1.355 . S
C2342 C2344 1.415 . S
C2343 C2342 1.355 . S
C2343 C2345 1.419 . S
C2344 C2342 1.415 . S
C2344 C2349 1.425 . S
C2344 C2351 1.409 . S
C2345 H2337 0.930 . S
C2345 C2343 1.419 . S
C2345 C2346 1.362 . S
C2346 H2338 0.930 . S
C2346 C2345 1.362 . S
C2346 C2349 1.409 . S
C2347 H2339 0.930 1_565 S
C2347 C2348 1.355 . S
C2347 C2349 1.415 . S
C2348 C2347 1.355 . S
C2348 C2350 1.419 . S
C2349 C2344 1.425 . S
C2349 C2346 1.409 . S
C2349 C2347 1.415 . S
C2350 H2340 0.930 . S
C2350 C2348 1.419 . S
C2350 C2351 1.362 . S
C2351 H2341 0.930 . S
C2351 C2344 1.409 . S
C2351 C2350 1.362 . S
H2352 C2358 0.930 . S
H2353 C2361 0.930 . S
H2354 C2362 0.930 . S
H2355 C2363 0.930 . S
H2356 C2366 0.930 . S
H2357 C2367 0.930 . S
C2358 H2352 0.930 . S
C2358 C2359 1.355 . S
C2358 C2360 1.415 . S
C2359 C2358 1.355 . S
C2359 C2361 1.419 . S
C2360 C2358 1.415 . S
C2360 C2365 1.425 . S
C2360 C2367 1.409 . S
C2361 H2353 0.930 . S
C2361 C2359 1.419 . S
C2361 C2362 1.362 . S
C2362 H2354 0.930 . S
C2362 C2361 1.362 . S
C2362 C2365 1.409 . S
C2363 H2355 0.930 . S
C2363 C2364 1.355 . S
C2363 C2365 1.415 . S
C2364 C2363 1.355 . S
C2364 C2366 1.419 . S
C2365 C2360 1.425 . S
C2365 C2362 1.409 . S
C2365 C2363 1.415 . S
C2366 H2356 0.930 . S
C2366 C2364 1.419 . S
C2366 C2367 1.362 . S
C2367 H2357 0.930 . S
C2367 C2360 1.409 . S
C2367 C2366 1.362 . S
H2368 C2374 0.930 . S
H2369 C2377 0.930 . S
H2370 C2378 0.930 . S
H2371 C2379 0.930 . S
H2372 C2382 0.930 . S
H2373 C2383 0.930 . S
C2374 H2368 0.930 . S
C2374 C2375 1.355 . S
C2374 C2376 1.415 . S
C2375 C2374 1.355 . S
C2375 C2377 1.419 . S
C2376 C2374 1.415 . S
C2376 C2381 1.425 . S
C2376 C2383 1.409 . S
C2377 H2369 0.930 . S
C2377 C2375 1.419 . S
C2377 C2378 1.362 . S
C2378 H2370 0.930 . S
C2378 C2377 1.362 . S
C2378 C2381 1.409 . S
C2379 H2371 0.930 . S
C2379 C2380 1.355 . S
C2379 C2381 1.415 . S
C2380 C2379 1.355 . S
C2380 C2382 1.419 . S
C2381 C2376 1.425 . S
C2381 C2378 1.409 . S
C2381 C2379 1.415 . S
C2382 H2372 0.930 . S
C2382 C2380 1.419 . S
C2382 C2383 1.362 . S
C2383 H2373 0.930 . S
C2383 C2376 1.409 . S
C2383 C2382 1.362 . S
H2384 C2390 0.930 . S
H2385 C2393 0.930 . S
H2386 C2394 0.930 . S
H2387 C2395 0.930 . S
H2388 C2398 0.930 . S
H2389 C2399 0.930 . S
C2390 H2384 0.930 . S
C2390 C2391 1.355 . S
C2390 C2392 1.415 . S
C2391 C2390 1.355 . S
C2391 C2393 1.419 . S
C2392 C2390 1.415 . S
C2392 C2397 1.425 . S
C2392 C2399 1.409 . S
C2393 H2385 0.930 . S
C2393 C2391 1.419 . S
C2393 C2394 1.362 . S
C2394 H2386 0.930 . S
C2394 C2393 1.362 . S
C2394 C2397 1.409 . S
C2395 H2387 0.930 . S
C2395 C2396 1.355 . S
C2395 C2397 1.415 . S
C2396 C2395 1.355 . S
C2396 C2398 1.419 . S
C2397 C2392 1.425 . S
C2397 C2394 1.409 . S
C2397 C2395 1.415 . S
C2398 H2388 0.930 . S
C2398 C2396 1.419 . S
C2398 C2399 1.362 . S
C2399 H2389 0.930 . S
C2399 C2392 1.409 . S
C2399 C2398 1.362 . S
H2400 C2406 0.930 . S
H2401 C2409 0.930 . S
H2402 C2410 0.930 . S
H2403 C2411 0.930 . S
H2404 C2414 0.930 . S
H2405 C2415 0.930 . S
C2406 H2400 0.930 . S
C2406 C2407 1.355 . S
C2406 C2408 1.415 . S
C2407 C2406 1.355 . S
C2407 C2409 1.419 . S
C2408 C2406 1.415 . S
C2408 C2413 1.425 . S
C2408 C2415 1.409 . S
C2409 H2401 0.930 . S
C2409 C2407 1.419 . S
C2409 C2410 1.362 . S
C2410 H2402 0.930 . S
C2410 C2409 1.362 . S
C2410 C2413 1.409 . S
C2411 H2403 0.930 . S
C2411 C2412 1.355 . S
C2411 C2413 1.415 . S
C2412 C2411 1.355 . S
C2412 C2414 1.419 . S
C2413 C2408 1.425 . S
C2413 C2410 1.409 . S
C2413 C2411 1.415 . S
C2414 H2404 0.930 . S
C2414 C2412 1.419 . S
C2414 C2415 1.362 . S
C2415 H2405 0.930 . S
C2415 C2408 1.409 . S
C2415 C2414 1.362 . S
H2416 C2422 0.930 . S
H2417 C2425 0.930 . S
H2418 C2426 0.930 . S
H2419 C2427 0.930 . S
H2420 C2430 0.930 . S
H2421 C2431 0.930 . S
C2422 H2416 0.930 . S
C2422 C2423 1.355 . S
C2422 C2424 1.415 . S
C2423 C2422 1.355 . S
C2423 C2425 1.419 . S
C2424 C2422 1.415 . S
C2424 C2429 1.425 . S
C2424 C2431 1.409 . S
C2425 H2417 0.930 . S
C2425 C2423 1.419 . S
C2425 C2426 1.362 . S
C2426 H2418 0.930 . S
C2426 C2425 1.362 . S
C2426 C2429 1.409 . S
C2427 H2419 0.930 . S
C2427 C2428 1.355 . S
C2427 C2429 1.415 . S
C2428 C2427 1.355 . S
C2428 C2430 1.419 . S
C2429 C2424 1.425 . S
C2429 C2426 1.409 . S
C2429 C2427 1.415 . S
C2430 H2420 0.930 . S
C2430 C2428 1.419 . S
C2430 C2431 1.362 . S
C2431 H2421 0.930 . S
C2431 C2424 1.409 . S
C2431 C2430 1.362 . S
H2432 C2438 0.930 . S
H2433 C2441 0.930 . S
H2434 C2442 0.930 . S
H2435 C2443 0.930 . S
H2436 C2446 0.930 . S
H2437 C2447 0.930 . S
C2438 H2432 0.930 . S
C2438 C2439 1.355 . S
C2438 C2440 1.415 . S
C2439 C2438 1.355 . S
C2439 C2441 1.419 . S
C2440 C2438 1.415 . S
C2440 C2445 1.425 . S
C2440 C2447 1.409 . S
C2441 H2433 0.930 . S
C2441 C2439 1.419 . S
C2441 C2442 1.362 . S
C2442 H2434 0.930 . S
C2442 C2441 1.362 . S
C2442 C2445 1.409 . S
C2443 H2435 0.930 . S
C2443 C2444 1.355 . S
C2443 C2445 1.415 . S
C2444 C2443 1.355 . S
C2444 C2446 1.419 . S
C2445 C2440 1.425 . S
C2445 C2442 1.409 . S
C2445 C2443 1.415 . S
C2446 H2436 0.930 . S
C2446 C2444 1.419 . S
C2446 C2447 1.362 . S
C2447 H2437 0.930 . S
C2447 C2440 1.409 . S
C2447 C2446 1.362 . S
H2448 C2454 0.930 . S
H2449 C2457 0.930 . S
H2450 C2458 0.930 . S
H2451 C2459 0.930 . S
H2452 C2462 0.930 . S
H2453 C2463 0.930 . S
C2454 H2448 0.930 . S
C2454 C2455 1.355 . S
C2454 C2456 1.415 . S
C2455 C2454 1.355 . S
C2455 C2457 1.419 . S
C2456 C2454 1.415 . S
C2456 C2461 1.425 . S
C2456 C2463 1.409 . S
C2457 H2449 0.930 . S
C2457 C2455 1.419 . S
C2457 C2458 1.362 . S
C2458 H2450 0.930 . S
C2458 C2457 1.362 . S
C2458 C2461 1.409 . S
C2459 H2451 0.930 . S
C2459 C2460 1.355 . S
C2459 C2461 1.415 . S
C2460 C2459 1.355 . S
C2460 C2462 1.419 . S
C2461 C2456 1.425 . S
C2461 C2458 1.409 . S
C2461 C2459 1.415 . S
C2462 H2452 0.930 . S
C2462 C2460 1.419 . S
C2462 C2463 1.362 . S
C2463 H2453 0.930 . S
C2463 C2456 1.409 . S
C2463 C2462 1.362 . S
H2464 C2470 0.930 . S
H2465 C2473 0.930 . S
H2466 C2474 0.930 . S
H2467 C2475 0.930 . S
H2468 C2478 0.930 . S
H2469 C2479 0.930 . S
C2470 H2464 0.930 . S
C2470 C2471 1.355 . S
C2470 C2472 1.415 . S
C2471 C2470 1.355 . S
C2471 C2473 1.419 . S
C2472 C2470 1.415 . S
C2472 C2477 1.425 . S
C2472 C2479 1.409 . S
C2473 H2465 0.930 . S
C2473 C2471 1.419 . S
C2473 C2474 1.362 . S
C2474 H2466 0.930 . S
C2474 C2473 1.362 . S
C2474 C2477 1.409 . S
C2475 H2467 0.930 . S
C2475 C2476 1.355 . S
C2475 C2477 1.415 . S
C2476 C2475 1.355 . S
C2476 C2478 1.419 . S
C2477 C2472 1.425 . S
C2477 C2474 1.409 . S
C2477 C2475 1.415 . S
C2478 H2468 0.930 . S
C2478 C2476 1.419 . S
C2478 C2479 1.362 . S
C2479 H2469 0.930 . S
C2479 C2472 1.409 . S
C2479 C2478 1.362 . S
H2480 C2486 0.930 . S
H2481 C2489 0.930 . S
H2482 C2490 0.930 . S
H2483 C2491 0.930 . S
H2484 C2494 0.930 . S
H2485 C2495 0.930 . S
C2486 H2480 0.930 . S
C2486 C2487 1.355 . S
C2486 C2488 1.415 . S
C2487 C2486 1.355 . S
C2487 C2489 1.419 . S
C2488 C2486 1.415 . S
C2488 C2493 1.425 . S
C2488 C2495 1.409 . S
C2489 H2481 0.930 . S
C2489 C2487 1.419 . S
C2489 C2490 1.362 . S
C2490 H2482 0.930 . S
C2490 C2489 1.362 . S
C2490 C2493 1.409 . S
C2491 H2483 0.930 . S
C2491 C2492 1.355 . S
C2491 C2493 1.415 . S
C2492 C2491 1.355 . S
C2492 C2494 1.419 . S
C2493 C2488 1.425 . S
C2493 C2490 1.409 . S
C2493 C2491 1.415 . S
C2494 H2484 0.930 . S
C2494 C2492 1.419 . S
C2494 C2495 1.362 . S
C2495 H2485 0.930 . S
C2495 C2488 1.409 . S
C2495 C2494 1.362 . S
H2496 C2502 0.930 . S
H2497 C2505 0.930 . S
H2498 C2506 0.930 . S
H2499 C2507 0.930 . S
H2500 C2510 0.930 . S
H2501 C2511 0.930 . S
C2502 H2496 0.930 . S
C2502 C2503 1.355 . S
C2502 C2504 1.415 . S
C2503 C2502 1.355 . S
C2503 C2505 1.419 . S
C2504 C2502 1.415 . S
C2504 C2509 1.425 . S
C2504 C2511 1.409 . S
C2505 H2497 0.930 . S
C2505 C2503 1.419 . S
C2505 C2506 1.362 . S
C2506 H2498 0.930 . S
C2506 C2505 1.362 . S
C2506 C2509 1.409 . S
C2507 H2499 0.930 . S
C2507 C2508 1.355 . S
C2507 C2509 1.415 . S
C2508 C2507 1.355 . S
C2508 C2510 1.419 . S
C2509 C2504 1.425 . S
C2509 C2506 1.409 . S
C2509 C2507 1.415 . S
C2510 H2500 0.930 . S
C2510 C2508 1.419 . S
C2510 C2511 1.362 . S
C2511 H2501 0.930 . S
C2511 C2504 1.409 . S
C2511 C2510 1.362 . S
H2512 C2518 0.930 . S
H2513 C2521 0.930 . S
H2514 C2522 0.930 . S
H2515 C2523 0.930 . S
H2516 C2526 0.930 . S
H2517 C2527 0.930 . S
C2518 H2512 0.930 . S
C2518 C2519 1.355 . S
C2518 C2520 1.415 . S
C2519 C2518 1.355 . S
C2519 C2521 1.419 . S
C2520 C2518 1.415 . S
C2520 C2525 1.425 . S
C2520 C2527 1.409 . S
C2521 H2513 0.930 . S
C2521 C2519 1.419 . S
C2521 C2522 1.362 . S
C2522 H2514 0.930 . S
C2522 C2521 1.362 . S
C2522 C2525 1.409 . S
C2523 H2515 0.930 . S
C2523 C2524 1.355 . S
C2523 C2525 1.415 . S
C2524 C2523 1.355 . S
C2524 C2526 1.419 . S
C2525 C2520 1.425 . S
C2525 C2522 1.409 . S
C2525 C2523 1.415 . S
C2526 H2516 0.930 . S
C2526 C2524 1.419 . S
C2526 C2527 1.362 . S
C2527 H2517 0.930 . S
C2527 C2520 1.409 . S
C2527 C2526 1.362 . S
H2528 C2534 0.930 . S
H2529 C2537 0.930 . S
H2530 C2538 0.930 . S
H2531 C2539 0.930 . S
H2532 C2542 0.930 . S
H2533 C2543 0.930 . S
C2534 H2528 0.930 . S
C2534 C2535 1.355 . S
C2534 C2536 1.415 . S
C2535 C2534 1.355 . S
C2535 C2537 1.419 . S
C2536 C2534 1.415 . S
C2536 C2541 1.425 . S
C2536 C2543 1.409 . S
C2537 H2529 0.930 . S
C2537 C2535 1.419 . S
C2537 C2538 1.362 . S
C2538 H2530 0.930 . S
C2538 C2537 1.362 . S
C2538 C2541 1.409 . S
C2539 H2531 0.930 . S
C2539 C2540 1.355 . S
C2539 C2541 1.415 . S
C2540 C2539 1.355 . S
C2540 C2542 1.419 . S
C2541 C2536 1.425 . S
C2541 C2538 1.409 . S
C2541 C2539 1.415 . S
C2542 H2532 0.930 . S
C2542 C2540 1.419 . S
C2542 C2543 1.362 . S
C2543 H2533 0.930 . S
C2543 C2536 1.409 . S
C2543 C2542 1.362 . S
H2544 C2550 0.930 . S
H2545 C2553 0.930 . S
H2546 C2554 0.930 . S
H2547 C2555 0.930 . S
H2548 C2558 0.930 . S
H2549 C2559 0.930 . S
C2550 H2544 0.930 . S
C2550 C2551 1.355 . S
C2550 C2552 1.415 . S
C2551 C2550 1.355 . S
C2551 C2553 1.419 . S
C2552 C2550 1.415 . S
C2552 C2557 1.425 . S
C2552 C2559 1.409 . S
C2553 H2545 0.930 . S
C2553 C2551 1.419 . S
C2553 C2554 1.362 . S
C2554 H2546 0.930 . S
C2554 C2553 1.362 . S
C2554 C2557 1.409 . S
C2555 H2547 0.930 . S
C2555 C2556 1.355 . S
C2555 C2557 1.415 . S
C2556 C2555 1.355 . S
C2556 C2558 1.419 . S
C2557 C2552 1.425 . S
C2557 C2554 1.409 . S
C2557 C2555 1.415 . S
C2558 H2548 0.930 . S
C2558 C2556 1.419 . S
C2558 C2559 1.362 . S
C2559 H2549 0.930 . S
C2559 C2552 1.409 . S
C2559 C2558 1.362 . S
H2560 C2566 0.930 . S
H2561 C2569 0.930 . S
H2562 C2570 0.930 . S
H2563 C2571 0.930 . S
H2564 C2574 0.930 . S
H2565 C2575 0.930 . S
C2566 H2560 0.930 . S
C2566 C2567 1.355 . S
C2566 C2568 1.415 . S
C2567 C2566 1.355 . S
C2567 C2569 1.419 . S
C2568 C2566 1.415 . S
C2568 C2573 1.425 . S
C2568 C2575 1.409 . S
C2569 H2561 0.930 . S
C2569 C2567 1.419 . S
C2569 C2570 1.362 . S
C2570 H2562 0.930 . S
C2570 C2569 1.362 . S
C2570 C2573 1.409 . S
C2571 H2563 0.930 . S
C2571 C2572 1.355 . S
C2571 C2573 1.415 . S
C2572 C2571 1.355 . S
C2572 C2574 1.419 . S
C2573 C2568 1.425 . S
C2573 C2570 1.409 . S
C2573 C2571 1.415 . S
C2574 H2564 0.930 . S
C2574 C2572 1.419 . S
C2574 C2575 1.362 . S
C2575 H2565 0.930 . S
C2575 C2568 1.409 . S
C2575 C2574 1.362 . S
H2576 C2582 0.930 . S
H2577 C2585 0.930 . S
H2578 C2586 0.930 . S
H2579 C2587 0.930 . S
H2580 C2590 0.930 . S
H2581 C2591 0.930 . S
C2582 H2576 0.930 . S
C2582 C2583 1.355 . S
C2582 C2584 1.415 . S
C2583 C2582 1.355 . S
C2583 C2585 1.419 . S
C2584 C2582 1.415 . S
C2584 C2589 1.425 . S
C2584 C2591 1.409 . S
C2585 H2577 0.930 . S
C2585 C2583 1.419 . S
C2585 C2586 1.362 . S
C2586 H2578 0.930 . S
C2586 C2585 1.362 . S
C2586 C2589 1.409 . S
C2587 H2579 0.930 . S
C2587 C2588 1.355 . S
C2587 C2589 1.415 . S
C2588 C2587 1.355 . S
C2588 C2590 1.419 . S
C2589 C2584 1.425 . S
C2589 C2586 1.409 . S
C2589 C2587 1.415 . S
C2590 H2580 0.930 . S
C2590 C2588 1.419 . S
C2590 C2591 1.362 . S
C2591 H2581 0.930 . S
C2591 C2584 1.409 . S
C2591 C2590 1.362 . S
H2592 C2598 0.930 . S
H2593 C2601 0.930 . S
H2594 C2602 0.930 . S
H2595 C2603 0.930 . S
H2596 C2606 0.930 . S
H2597 C2607 0.930 . S
C2598 H2592 0.930 . S
C2598 C2599 1.355 . S
C2598 C2600 1.415 . S
C2599 C2598 1.355 . S
C2599 C2601 1.419 . S
C2600 C2598 1.415 . S
C2600 C2605 1.425 . S
C2600 C2607 1.409 . S
C2601 H2593 0.930 . S
C2601 C2599 1.419 . S
C2601 C2602 1.362 . S
C2602 H2594 0.930 . S
C2602 C2601 1.362 . S
C2602 C2605 1.409 . S
C2603 H2595 0.930 . S
C2603 C2604 1.355 . S
C2603 C2605 1.415 . S
C2604 C2603 1.355 . S
C2604 C2606 1.419 . S
C2605 C2600 1.425 . S
C2605 C2602 1.409 . S
C2605 C2603 1.415 . S
C2606 H2596 0.930 . S
C2606 C2604 1.419 . S
C2606 C2607 1.362 . S
C2607 H2597 0.930 . S
C2607 C2600 1.409 . S
C2607 C2606 1.362 . S
H2608 C2614 0.930 . S
H2609 C2617 0.930 . S
H2610 C2618 0.930 . S
H2611 C2619 0.930 . S
H2612 C2622 0.930 . S
H2613 C2623 0.930 . S
C2614 H2608 0.930 . S
C2614 C2615 1.355 . S
C2614 C2616 1.415 . S
C2615 C2614 1.355 . S
C2615 C2617 1.419 . S
C2616 C2614 1.415 . S
C2616 C2621 1.425 . S
C2616 C2623 1.409 . S
C2617 H2609 0.930 . S
C2617 C2615 1.419 . S
C2617 C2618 1.362 . S
C2618 H2610 0.930 . S
C2618 C2617 1.362 . S
C2618 C2621 1.409 . S
C2619 H2611 0.930 . S
C2619 C2620 1.355 . S
C2619 C2621 1.415 . S
C2620 C2619 1.355 . S
C2620 C2622 1.419 . S
C2621 C2616 1.425 . S
C2621 C2618 1.409 . S
C2621 C2619 1.415 . S
C2622 H2612 0.930 . S
C2622 C2620 1.419 . S
C2622 C2623 1.362 . S
C2623 H2613 0.930 . S
C2623 C2616 1.409 . S
C2623 C2622 1.362 . S
H2624 C2630 0.930 . S
H2625 C2633 0.930 . S
H2626 C2634 0.930 . S
H2627 C2635 0.930 . S
H2628 C2638 0.930 . S
H2629 C2639 0.930 . S
C2630 H2624 0.930 . S
C2630 C2631 1.355 . S
C2630 C2632 1.415 . S
C2631 C2630 1.355 . S
C2631 C2633 1.419 . S
C2632 C2630 1.415 . S
C2632 C2637 1.425 . S
C2632 C2639 1.409 . S
C2633 H2625 0.930 . S
C2633 C2631 1.419 . S
C2633 C2634 1.362 . S
C2634 H2626 0.930 . S
C2634 C2633 1.362 . S
C2634 C2637 1.409 . S
C2635 H2627 0.930 . S
C2635 C2636 1.355 . S
C2635 C2637 1.415 . S
C2636 C2635 1.355 . S
C2636 C2638 1.419 . S
C2637 C2632 1.425 . S
C2637 C2634 1.409 . S
C2637 C2635 1.415 . S
C2638 H2628 0.930 . S
C2638 C2636 1.419 . S
C2638 C2639 1.362 . S
C2639 H2629 0.930 . S
C2639 C2632 1.409 . S
C2639 C2638 1.362 . S
H2640 C2646 0.930 . S
H2641 C2649 0.930 . S
H2642 C2650 0.930 . S
H2643 C2651 0.930 . S
H2644 C2654 0.930 . S
H2645 C2655 0.930 . S
C2646 H2640 0.930 . S
C2646 C2647 1.355 . S
C2646 C2648 1.415 . S
C2647 C2646 1.355 . S
C2647 C2649 1.419 . S
C2648 C2646 1.415 . S
C2648 C2653 1.425 . S
C2648 C2655 1.409 . S
C2649 H2641 0.930 . S
C2649 C2647 1.419 . S
C2649 C2650 1.362 . S
C2650 H2642 0.930 . S
C2650 C2649 1.362 . S
C2650 C2653 1.409 . S
C2651 H2643 0.930 . S
C2651 C2652 1.355 . S
C2651 C2653 1.415 . S
C2652 C2651 1.355 . S
C2652 C2654 1.419 . S
C2653 C2648 1.425 . S
C2653 C2650 1.409 . S
C2653 C2651 1.415 . S
C2654 H2644 0.930 . S
C2654 C2652 1.419 . S
C2654 C2655 1.362 . S
C2655 H2645 0.930 . S
C2655 C2648 1.409 . S
C2655 C2654 1.362 . S
H2656 C2662 0.930 . S
H2657 C2665 0.930 . S
H2658 C2666 0.930 . S
H2659 C2667 0.930 . S
H2660 C2670 0.930 . S
H2661 C2671 0.930 . S
C2662 H2656 0.930 . S
C2662 C2663 1.355 . S
C2662 C2664 1.415 . S
C2663 C2662 1.355 . S
C2663 C2665 1.419 . S
C2664 C2662 1.415 . S
C2664 C2669 1.425 . S
C2664 C2671 1.409 . S
C2665 H2657 0.930 . S
C2665 C2663 1.419 . S
C2665 C2666 1.362 . S
C2666 H2658 0.930 . S
C2666 C2665 1.362 . S
C2666 C2669 1.409 . S
C2667 H2659 0.930 . S
C2667 C2668 1.355 . S
C2667 C2669 1.415 . S
C2668 C2667 1.355 . S
C2668 C2670 1.419 . S
C2669 C2664 1.425 . S
C2669 C2666 1.409 . S
C2669 C2667 1.415 . S
C2670 H2660 0.930 . S
C2670 C2668 1.419 . S
C2670 C2671 1.362 . S
C2671 H2661 0.930 . S
C2671 C2664 1.409 . S
C2671 C2670 1.362 . S
H2672 C2678 0.930 . S
H2673 C2681 0.930 . S
H2674 C2682 0.930 . S
H2675 C2683 0.930 . S
H2676 C2686 0.930 . S
H2677 C2687 0.930 . S
C2678 H2672 0.930 . S
C2678 C2679 1.355 . S
C2678 C2680 1.415 . S
C2679 C2678 1.355 . S
C2679 C2681 1.419 . S
C2680 C2678 1.415 . S
C2680 C2685 1.425 . S
C2680 C2687 1.409 . S
C2681 H2673 0.930 . S
C2681 C2679 1.419 . S
C2681 C2682 1.362 . S
C2682 H2674 0.930 . S
C2682 C2681 1.362 . S
C2682 C2685 1.409 . S
C2683 H2675 0.930 . S
C2683 C2684 1.355 . S
C2683 C2685 1.415 . S
C2684 C2683 1.355 . S
C2684 C2686 1.419 . S
C2685 C2680 1.425 . S
C2685 C2682 1.409 . S
C2685 C2683 1.415 . S
C2686 H2676 0.930 . S
C2686 C2684 1.419 . S
C2686 C2687 1.362 . S
C2687 H2677 0.930 . S
C2687 C2680 1.409 . S
C2687 C2686 1.362 . S
H2688 C2694 0.930 . S
H2689 C2697 0.930 . S
H2690 C2698 0.930 . S
H2691 C2699 0.930 . S
H2692 C2702 0.930 . S
H2693 C2703 0.930 . S
C2694 H2688 0.930 . S
C2694 C2695 1.355 . S
C2694 C2696 1.415 . S
C2695 C2694 1.355 . S
C2695 C2697 1.419 . S
C2696 C2694 1.415 . S
C2696 C2701 1.425 . S
C2696 C2703 1.409 . S
C2697 H2689 0.930 . S
C2697 C2695 1.419 . S
C2697 C2698 1.362 . S
C2698 H2690 0.930 . S
C2698 C2697 1.362 . S
C2698 C2701 1.409 . S
C2699 H2691 0.930 . S
C2699 C2700 1.355 . S
C2699 C2701 1.415 . S
C2700 C2699 1.355 . S
C2700 C2702 1.419 . S
C2701 C2696 1.425 . S
C2701 C2698 1.409 . S
C2701 C2699 1.415 . S
C2702 H2692 0.930 . S
C2702 C2700 1.419 . S
C2702 C2703 1.362 . S
C2703 H2693 0.930 . S
C2703 C2696 1.409 . S
C2703 C2702 1.362 . S
H2704 C2710 0.930 . S
H2705 C2713 0.930 . S
H2706 C2714 0.930 . S
H2707 C2715 0.930 . S
H2708 C2718 0.930 . S
H2709 C2719 0.930 . S
C2710 H2704 0.930 . S
C2710 C2711 1.355 . S
C2710 C2712 1.415 . S
C2711 C2710 1.355 . S
C2711 C2713 1.419 . S
C2712 C2710 1.415 . S
C2712 C2717 1.425 . S
C2712 C2719 1.409 . S
C2713 H2705 0.930 . S
C2713 C2711 1.419 . S
C2713 C2714 1.362 . S
C2714 H2706 0.930 . S
C2714 C2713 1.362 . S
C2714 C2717 1.409 . S
C2715 H2707 0.930 . S
C2715 C2716 1.355 . S
C2715 C2717 1.415 . S
C2716 C2715 1.355 . S
C2716 C2718 1.419 . S
C2717 C2712 1.425 . S
C2717 C2714 1.409 . S
C2717 C2715 1.415 . S
C2718 H2708 0.930 . S
C2718 C2716 1.419 . S
C2718 C2719 1.362 . S
C2719 H2709 0.930 . S
C2719 C2712 1.409 . S
C2719 C2718 1.362 . S
H2720 C2726 0.930 . S
H2721 C2729 0.930 . S
H2722 C2730 0.930 . S
H2723 C2731 0.930 . S
H2724 C2734 0.930 . S
H2725 C2735 0.930 . S
C2726 H2720 0.930 . S
C2726 C2727 1.355 . S
C2726 C2728 1.415 . S
C2727 C2726 1.355 . S
C2727 C2729 1.419 . S
C2728 C2726 1.415 . S
C2728 C2733 1.425 . S
C2728 C2735 1.409 . S
C2729 H2721 0.930 . S
C2729 C2727 1.419 . S
C2729 C2730 1.362 . S
C2730 H2722 0.930 . S
C2730 C2729 1.362 . S
C2730 C2733 1.409 . S
C2731 H2723 0.930 . S
C2731 C2732 1.355 . S
C2731 C2733 1.415 . S
C2732 C2731 1.355 . S
C2732 C2734 1.419 . S
C2733 C2728 1.425 . S
C2733 C2730 1.409 . S
C2733 C2731 1.415 . S
C2734 H2724 0.930 . S
C2734 C2732 1.419 . S
C2734 C2735 1.362 . S
C2735 H2725 0.930 . S
C2735 C2728 1.409 . S
C2735 C2734 1.362 . S
H2736 C2742 0.930 . S
H2737 C2745 0.930 . S
H2738 C2746 0.930 . S
H2739 C2747 0.930 . S
H2740 C2750 0.930 . S
H2741 C2751 0.930 . S
C2742 H2736 0.930 . S
C2742 C2743 1.355 . S
C2742 C2744 1.415 . S
C2743 C2742 1.355 . S
C2743 C2745 1.419 . S
C2744 C2742 1.415 . S
C2744 C2749 1.425 . S
C2744 C2751 1.409 . S
C2745 H2737 0.930 . S
C2745 C2743 1.419 . S
C2745 C2746 1.362 . S
C2746 H2738 0.930 . S
C2746 C2745 1.362 . S
C2746 C2749 1.409 . S
C2747 H2739 0.930 . S
C2747 C2748 1.355 . S
C2747 C2749 1.415 . S
C2748 C2747 1.355 . S
C2748 C2750 1.419 . S
C2749 C2744 1.425 . S
C2749 C2746 1.409 . S
C2749 C2747 1.415 . S
C2750 H2740 0.930 . S
C2750 C2748 1.419 . S
C2750 C2751 1.362 . S
C2751 H2741 0.930 . S
C2751 C2744 1.409 . S
C2751 C2750 1.362 . S
H2752 C2758 0.930 1_554 S
H2753 C2761 0.930 . S
H2754 C2762 0.930 . S
H2755 C2763 0.930 1_556 S
H2756 C2766 0.930 . S
H2757 C2767 0.930 . S
C2758 H2752 0.930 1_556 S
C2758 C2759 1.355 1_455 S
C2758 C2760 1.415 1_556 S
C2759 C2758 1.355 1_655 S
C2759 C2761 1.419 . S
C2760 C2758 1.415 1_554 S
C2760 C2765 1.425 1_454 S
C2760 C2767 1.409 . S
C2761 H2753 0.930 . S
C2761 C2759 1.419 . S
C2761 C2762 1.362 . S
C2762 H2754 0.930 . S
C2762 C2761 1.362 . S
C2762 C2765 1.409 . S
C2763 H2755 0.930 1_554 S
C2763 C2764 1.355 1_655 S
C2763 C2765 1.415 1_554 S
C2764 C2763 1.355 1_455 S
C2764 C2766 1.419 . S
C2765 C2760 1.425 1_656 S
C2765 C2762 1.409 . S
C2765 C2763 1.415 1_556 S
C2766 H2756 0.930 . S
C2766 C2764 1.419 . S
C2766 C2767 1.362 . S
C2767 H2757 0.930 . S
C2767 C2760 1.409 . S
C2767 C2766 1.362 . S
H2768 C2774 0.930 . S
H2769 C2777 0.930 . S
H2770 C2778 0.930 . S
H2771 C2779 0.930 . S
H2772 C2782 0.930 . S
H2773 C2783 0.930 . S
C2774 H2768 0.930 . S
C2774 C2775 1.355 . S
C2774 C2776 1.415 . S
C2775 C2774 1.355 . S
C2775 C2777 1.419 1_554 S
C2776 C2774 1.415 . S
C2776 C2781 1.425 1_554 S
C2776 C2783 1.409 . S
C2777 H2769 0.930 . S
C2777 C2775 1.419 1_556 S
C2777 C2778 1.362 . S
C2778 H2770 0.930 . S
C2778 C2777 1.362 . S
C2778 C2781 1.409 . S
C2779 H2771 0.930 . S
C2779 C2780 1.355 . S
C2779 C2781 1.415 . S
C2780 C2779 1.355 . S
C2780 C2782 1.419 1_556 S
C2781 C2776 1.425 1_556 S
C2781 C2778 1.409 . S
C2781 C2779 1.415 . S
C2782 H2772 0.930 . S
C2782 C2780 1.419 1_554 S
C2782 C2783 1.362 . S
C2783 H2773 0.930 . S
C2783 C2776 1.409 . S
C2783 C2782 1.362 . S
H2784 C2790 0.930 . S
H2785 C2793 0.930 . S
H2786 C2794 0.930 . S
H2787 C2795 0.930 . S
H2788 C2798 0.930 . S
H2789 C2799 0.930 . S
C2790 H2784 0.930 . S
C2790 C2791 1.355 1_655 S
C2790 C2792 1.415 . S
C2791 C2790 1.355 1_455 S
C2791 C2793 1.419 . S
C2792 C2790 1.415 . S
C2792 C2797 1.425 1_655 S
C2792 C2799 1.409 . S
C2793 H2785 0.930 . S
C2793 C2791 1.419 . S
C2793 C2794 1.362 . S
C2794 H2786 0.930 . S
C2794 C2793 1.362 . S
C2794 C2797 1.409 . S
C2795 H2787 0.930 . S
C2795 C2796 1.355 1_455 S
C2795 C2797 1.415 . S
C2796 C2795 1.355 1_655 S
C2796 C2798 1.419 . S
C2797 C2792 1.425 1_455 S
C2797 C2794 1.409 . S
C2797 C2795 1.415 . S
C2798 H2788 0.930 . S
C2798 C2796 1.419 . S
C2798 C2799 1.362 . S
C2799 H2789 0.930 . S
C2799 C2792 1.409 . S
C2799 C2798 1.362 . S
H2800 C2806 0.930 . S
H2801 C2809 0.930 . S
H2802 C2810 0.930 . S
H2803 C2811 0.930 . S
H2804 C2814 0.930 . S
H2805 C2815 0.930 . S
C2806 H2800 0.930 . S
C2806 C2807 1.355 . S
C2806 C2808 1.415 . S
C2807 C2806 1.355 . S
C2807 C2809 1.419 . S
C2808 C2806 1.415 . S
C2808 C2813 1.425 . S
C2808 C2815 1.409 . S
C2809 H2801 0.930 . S
C2809 C2807 1.419 . S
C2809 C2810 1.362 . S
C2810 H2802 0.930 . S
C2810 C2809 1.362 . S
C2810 C2813 1.409 . S
C2811 H2803 0.930 . S
C2811 C2812 1.355 . S
C2811 C2813 1.415 . S
C2812 C2811 1.355 . S
C2812 C2814 1.419 . S
C2813 C2808 1.425 . S
C2813 C2810 1.409 . S
C2813 C2811 1.415 . S
C2814 H2804 0.930 . S
C2814 C2812 1.419 . S
C2814 C2815 1.362 . S
C2815 H2805 0.930 . S
C2815 C2808 1.409 . S
C2815 C2814 1.362 . S
H2816 C2822 0.930 . S
H2817 C2825 0.930 . S
H2818 C2826 0.930 . S
H2819 C2827 0.930 . S
H2820 C2830 0.930 . S
H2821 C2831 0.930 . S
C2822 H2816 0.930 . S
C2822 C2823 1.355 . S
C2822 C2824 1.415 . S
C2823 C2822 1.355 . S
C2823 C2825 1.419 . S
C2824 C2822 1.415 . S
C2824 C2829 1.425 1_556 S
C2824 C2831 1.409 . S
C2825 H2817 0.930 . S
C2825 C2823 1.419 . S
C2825 C2826 1.362 1_556 S
C2826 H2818 0.930 . S
C2826 C2825 1.362 1_554 S
C2826 C2829 1.409 . S
C2827 H2819 0.930 . S
C2827 C2828 1.355 . S
C2827 C2829 1.415 . S
C2828 C2827 1.355 . S
C2828 C2830 1.419 . S
C2829 C2824 1.425 1_554 S
C2829 C2826 1.409 . S
C2829 C2827 1.415 . S
C2830 H2820 0.930 . S
C2830 C2828 1.419 . S
C2830 C2831 1.362 1_554 S
C2831 H2821 0.930 . S
C2831 C2824 1.409 . S
C2831 C2830 1.362 1_556 S
H2832 C2838 0.930 . S
H2833 C2841 0.930 . S
H2834 C2842 0.930 . S
H2835 C2843 0.930 . S
H2836 C2846 0.930 . S
H2837 C2847 0.930 . S
C2838 H2832 0.930 . S
C2838 C2839 1.355 . S
C2838 C2840 1.415 . S
C2839 C2838 1.355 . S
C2839 C2841 1.419 1_655 S
C2840 C2838 1.415 . S
C2840 C2845 1.425 1_655 S
C2840 C2847 1.409 . S
C2841 H2833 0.930 . S
C2841 C2839 1.419 1_455 S
C2841 C2842 1.362 . S
C2842 H2834 0.930 . S
C2842 C2841 1.362 . S
C2842 C2845 1.409 . S
C2843 H2835 0.930 . S
C2843 C2844 1.355 . S
C2843 C2845 1.415 . S
C2844 C2843 1.355 . S
C2844 C2846 1.419 1_455 S
C2845 C2840 1.425 1_455 S
C2845 C2842 1.409 . S
C2845 C2843 1.415 . S
C2846 H2836 0.930 . S
C2846 C2844 1.419 1_655 S
C2846 C2847 1.362 . S
C2847 H2837 0.930 . S
C2847 C2840 1.409 . S
C2847 C2846 1.362 . S
H2848 C2854 0.930 . S
H2849 C2857 0.930 . S
H2850 C2858 0.930 . S
H2851 C2859 0.930 . S
H2852 C2862 0.930 . S
H2853 C2863 0.930 . S
C2854 H2848 0.930 . S
C2854 C2855 1.355 . S
C2854 C2856 1.415 . S
C2855 C2854 1.355 . S
C2855 C2857 1.419 . S
C2856 C2854 1.415 . S
C2856 C2861 1.425 . S
C2856 C2863 1.409 . S
C2857 H2849 0.930 . S
C2857 C2855 1.419 . S
C2857 C2858 1.362 . S
C2858 H2850 0.930 . S
C2858 C2857 1.362 . S
C2858 C2861 1.409 . S
C2859 H2851 0.930 . S
C2859 C2860 1.355 . S
C2859 C2861 1.415 . S
C2860 C2859 1.355 . S
C2860 C2862 1.419 . S
C2861 C2856 1.425 . S
C2861 C2858 1.409 . S
C2861 C2859 1.415 . S
C2862 H2852 0.930 . S
C2862 C2860 1.419 . S
C2862 C2863 1.362 . S
C2863 H2853 0.930 . S
C2863 C2856 1.409 . S
C2863 C2862 1.362 . S
H2864 C2870 0.925 1_655 S
H2865 C2873 0.930 . S
H2866 C2874 0.930 . S
H2867 C2875 0.925 1_455 S
H2868 C2878 0.930 . S
H2869 C2879 0.930 . S
C2870 H2864 0.925 1_455 S
C2870 C2871 1.364 . S
C2870 C2872 1.411 1_445 S
C2871 C2870 1.364 . S
C2871 C2873 1.419 . S
C2872 C2870 1.411 1_665 S
C2872 C2877 1.425 1_665 S
C2872 C2879 1.409 . S
C2873 H2865 0.930 . S
C2873 C2871 1.419 . S
C2873 C2874 1.362 . S
C2874 H2866 0.930 . S
C2874 C2873 1.362 . S
C2874 C2877 1.409 . S
C2875 H2867 0.925 1_655 S
C2875 C2876 1.364 . S
C2875 C2877 1.411 1_665 S
C2876 C2875 1.364 . S
C2876 C2878 1.419 . S
C2877 C2872 1.425 1_445 S
C2877 C2874 1.409 . S
C2877 C2875 1.411 1_445 S
C2878 H2868 0.930 . S
C2878 C2876 1.419 . S
C2878 C2879 1.362 . S
C2879 H2869 0.930 . S
C2879 C2872 1.409 . S
C2879 C2878 1.362 . S
H2880 C2886 0.930 . S
H2881 C2889 0.930 . S
H2882 C2890 0.930 . S
H2883 C2891 0.930 . S
H2884 C2894 0.930 . S
H2885 C2895 0.930 . S
C2886 H2880 0.930 . S
C2886 C2887 1.355 . S
C2886 C2888 1.415 . S
C2887 C2886 1.355 . S
C2887 C2889 1.419 . S
C2888 C2886 1.415 . S
C2888 C2893 1.425 . S
C2888 C2895 1.409 . S
C2889 H2881 0.930 . S
C2889 C2887 1.419 . S
C2889 C2890 1.362 . S
C2890 H2882 0.930 . S
C2890 C2889 1.362 . S
C2890 C2893 1.409 . S
C2891 H2883 0.930 . S
C2891 C2892 1.355 . S
C2891 C2893 1.415 . S
C2892 C2891 1.355 . S
C2892 C2894 1.419 . S
C2893 C2888 1.425 . S
C2893 C2890 1.409 . S
C2893 C2891 1.415 . S
C2894 H2884 0.930 . S
C2894 C2892 1.419 . S
C2894 C2895 1.362 . S
C2895 H2885 0.930 . S
C2895 C2888 1.409 . S
C2895 C2894 1.362 . S
H2896 C2902 0.930 . S
H2897 C2905 0.930 . S
H2898 C2906 0.930 . S
H2899 C2907 0.930 . S
H2900 C2910 0.930 . S
H2901 C2911 0.930 . S
C2902 H2896 0.930 . S
C2902 C2903 1.355 . S
C2902 C2904 1.415 1_565 S
C2903 C2902 1.355 . S
C2903 C2905 1.419 . S
C2904 C2902 1.415 1_545 S
C2904 C2909 1.425 1_545 S
C2904 C2911 1.409 . S
C2905 H2897 0.930 . S
C2905 C2903 1.419 . S
C2905 C2906 1.362 . S
C2906 H2898 0.930 . S
C2906 C2905 1.362 . S
C2906 C2909 1.409 . S
C2907 H2899 0.930 . S
C2907 C2908 1.355 . S
C2907 C2909 1.415 1_545 S
C2908 C2907 1.355 . S
C2908 C2910 1.419 . S
C2909 C2904 1.425 1_565 S
C2909 C2906 1.409 . S
C2909 C2907 1.415 1_565 S
C2910 H2900 0.930 . S
C2910 C2908 1.419 . S
C2910 C2911 1.362 . S
C2911 H2901 0.930 . S
C2911 C2904 1.409 . S
C2911 C2910 1.362 . S
H2912 C2918 0.930 . S
H2913 C2921 0.930 . S
H2914 C2922 0.930 . S
H2915 C2923 0.930 . S
H2916 C2926 0.930 . S
H2917 C2927 0.930 . S
C2918 H2912 0.930 . S
C2918 C2919 1.355 . S
C2918 C2920 1.415 . S
C2919 C2918 1.355 . S
C2919 C2921 1.419 . S
C2920 C2918 1.415 . S
C2920 C2925 1.425 . S
C2920 C2927 1.409 . S
C2921 H2913 0.930 . S
C2921 C2919 1.419 . S
C2921 C2922 1.362 . S
C2922 H2914 0.930 . S
C2922 C2921 1.362 . S
C2922 C2925 1.409 . S
C2923 H2915 0.930 . S
C2923 C2924 1.355 . S
C2923 C2925 1.415 . S
C2924 C2923 1.355 . S
C2924 C2926 1.419 . S
C2925 C2920 1.425 . S
C2925 C2922 1.409 . S
C2925 C2923 1.415 . S
C2926 H2916 0.930 . S
C2926 C2924 1.419 . S
C2926 C2927 1.362 . S
C2927 H2917 0.930 . S
C2927 C2920 1.409 . S
C2927 C2926 1.362 . S
H2928 C2934 0.930 . S
H2929 C2937 0.930 . S
H2930 C2938 0.930 . S
H2931 C2939 0.930 . S
H2932 C2942 0.930 . S
H2933 C2943 0.930 . S
C2934 H2928 0.930 . S
C2934 C2935 1.355 . S
C2934 C2936 1.415 . S
C2935 C2934 1.355 . S
C2935 C2937 1.419 . S
C2936 C2934 1.415 . S
C2936 C2941 1.425 1_565 S
C2936 C2943 1.409 . S
C2937 H2929 0.930 . S
C2937 C2935 1.419 . S
C2937 C2938 1.362 1_565 S
C2938 H2930 0.930 . S
C2938 C2937 1.362 1_545 S
C2938 C2941 1.409 . S
C2939 H2931 0.930 . S
C2939 C2940 1.355 . S
C2939 C2941 1.415 . S
C2940 C2939 1.355 . S
C2940 C2942 1.419 . S
C2941 C2936 1.425 1_545 S
C2941 C2938 1.409 . S
C2941 C2939 1.415 . S
C2942 H2932 0.930 . S
C2942 C2940 1.419 . S
C2942 C2943 1.362 1_545 S
C2943 H2933 0.930 . S
C2943 C2936 1.409 . S
C2943 C2942 1.362 1_565 S
H2944 C2950 0.930 . S
H2945 C2953 0.930 . S
H2946 C2954 0.930 . S
H2947 C2955 0.930 . S
H2948 C2958 0.930 . S
H2949 C2959 0.930 . S
C2950 H2944 0.930 . S
C2950 C2951 1.355 . S
C2950 C2952 1.415 . S
C2951 C2950 1.355 . S
C2951 C2953 1.419 . S
C2952 C2950 1.415 . S
C2952 C2957 1.425 . S
C2952 C2959 1.409 . S
C2953 H2945 0.930 . S
C2953 C2951 1.419 . S
C2953 C2954 1.362 . S
C2954 H2946 0.930 . S
C2954 C2953 1.362 . S
C2954 C2957 1.409 . S
C2955 H2947 0.930 . S
C2955 C2956 1.355 . S
C2955 C2957 1.415 . S
C2956 C2955 1.355 . S
C2956 C2958 1.419 . S
C2957 C2952 1.425 . S
C2957 C2954 1.409 . S
C2957 C2955 1.415 . S
C2958 H2948 0.930 . S
C2958 C2956 1.419 . S
C2958 C2959 1.362 . S
C2959 H2949 0.930 . S
C2959 C2952 1.409 . S
C2959 C2958 1.362 . S
H2960 C2966 0.930 . S
H2961 C2969 0.930 . S
H2962 C2970 0.930 . S
H2963 C2971 0.930 . S
H2964 C2974 0.930 . S
H2965 C2975 0.930 . S
C2966 H2960 0.930 . S
C2966 C2967 1.355 . S
C2966 C2968 1.415 . S
C2967 C2966 1.355 . S
C2967 C2969 1.419 . S
C2968 C2966 1.415 . S
C2968 C2973 1.425 . S
C2968 C2975 1.409 . S
C2969 H2961 0.930 . S
C2969 C2967 1.419 . S
C2969 C2970 1.362 . S
C2970 H2962 0.930 . S
C2970 C2969 1.362 . S
C2970 C2973 1.409 . S
C2971 H2963 0.930 . S
C2971 C2972 1.355 . S
C2971 C2973 1.415 . S
C2972 C2971 1.355 . S
C2972 C2974 1.419 . S
C2973 C2968 1.425 . S
C2973 C2970 1.409 . S
C2973 C2971 1.415 . S
C2974 H2964 0.930 . S
C2974 C2972 1.419 . S
C2974 C2975 1.362 . S
C2975 H2965 0.930 . S
C2975 C2968 1.409 . S
C2975 C2974 1.362 . S
H2976 C2982 0.930 . S
H2977 C2985 0.930 . S
H2978 C2986 0.930 . S
H2979 C2987 0.930 . S
H2980 C2990 0.930 . S
H2981 C2991 0.930 . S
C2982 H2976 0.930 . S
C2982 C2983 1.355 . S
C2982 C2984 1.415 . S
C2983 C2982 1.355 . S
C2983 C2985 1.419 . S
C2984 C2982 1.415 . S
C2984 C2989 1.425 . S
C2984 C2991 1.409 . S
C2985 H2977 0.930 . S
C2985 C2983 1.419 . S
C2985 C2986 1.362 . S
C2986 H2978 0.930 . S
C2986 C2985 1.362 . S
C2986 C2989 1.409 . S
C2987 H2979 0.930 . S
C2987 C2988 1.355 . S
C2987 C2989 1.415 . S
C2988 C2987 1.355 . S
C2988 C2990 1.419 . S
C2989 C2984 1.425 . S
C2989 C2986 1.409 . S
C2989 C2987 1.415 . S
C2990 H2980 0.930 . S
C2990 C2988 1.419 . S
C2990 C2991 1.362 . S
C2991 H2981 0.930 . S
C2991 C2984 1.409 . S
C2991 C2990 1.362 . S
H2992 C2998 0.930 . S
H2993 C3001 0.930 . S
H2994 C3002 0.930 . S
H2995 C3003 0.930 . S
H2996 C3006 0.930 . S
H2997 C3007 0.930 . S
C2998 H2992 0.930 . S
C2998 C2999 1.355 . S
C2998 C3000 1.415 . S
C2999 C2998 1.355 . S
C2999 C3001 1.419 . S
C3000 C2998 1.415 . S
C3000 C3005 1.425 1_544 S
C3000 C3007 1.409 1_545 S
C3001 H2993 0.930 . S
C3001 C2999 1.419 . S
C3001 C3002 1.362 1_554 S
C3002 H2994 0.930 . S
C3002 C3001 1.362 1_556 S
C3002 C3005 1.409 1_545 S
C3003 H2995 0.930 . S
C3003 C3004 1.355 . S
C3003 C3005 1.415 . S
C3004 C3003 1.355 . S
C3004 C3006 1.419 . S
C3005 C3000 1.425 1_566 S
C3005 C3002 1.409 1_565 S
C3005 C3003 1.415 . S
C3006 H2996 0.930 . S
C3006 C3004 1.419 . S
C3006 C3007 1.362 1_556 S
C3007 H2997 0.930 . S
C3007 C3000 1.409 1_565 S
C3007 C3006 1.362 1_554 S
H3008 C3014 0.930 . S
H3009 C3017 0.930 1_655 S
H3010 C3018 0.930 1_655 S
H3011 C3019 0.930 1_655 S
H3012 C3022 0.930 . S
H3013 C3023 0.930 . S
C3014 H3008 0.930 . S
C3014 C3015 1.355 . S
C3014 C3016 1.415 . S
C3015 C3014 1.355 . S
C3015 C3017 1.419 . S
C3016 C3014 1.415 . S
C3016 C3021 1.425 . S
C3016 C3023 1.409 . S
C3017 H3009 0.930 1_455 S
C3017 C3015 1.419 . S
C3017 C3018 1.362 . S
C3018 H3010 0.930 1_455 S
C3018 C3017 1.362 . S
C3018 C3021 1.409 . S
C3019 H3011 0.930 1_455 S
C3019 C3020 1.355 . S
C3019 C3021 1.415 . S
C3020 C3019 1.355 . S
C3020 C3022 1.419 . S
C3021 C3016 1.425 . S
C3021 C3018 1.409 . S
C3021 C3019 1.415 . S
C3022 H3012 0.930 . S
C3022 C3020 1.419 . S
C3022 C3023 1.362 . S
C3023 H3013 0.930 . S
C3023 C3016 1.409 . S
C3023 C3022 1.362 . S
H3024 C3030 0.930 . S
H3025 C3033 0.930 . S
H3026 C3034 0.930 . S
H3027 C3035 0.930 . S
H3028 C3038 0.930 . S
H3029 C3039 0.930 . S
C3030 H3024 0.930 . S
C3030 C3031 1.355 . S
C3030 C3032 1.415 . S
C3031 C3030 1.355 . S
C3031 C3033 1.419 . S
C3032 C3030 1.415 . S
C3032 C3037 1.425 . S
C3032 C3039 1.409 . S
C3033 H3025 0.930 . S
C3033 C3031 1.419 . S
C3033 C3034 1.362 . S
C3034 H3026 0.930 . S
C3034 C3033 1.362 . S
C3034 C3037 1.409 . S
C3035 H3027 0.930 . S
C3035 C3036 1.355 . S
C3035 C3037 1.415 . S
C3036 C3035 1.355 . S
C3036 C3038 1.419 . S
C3037 C3032 1.425 . S
C3037 C3034 1.409 . S
C3037 C3035 1.415 . S
C3038 H3028 0.930 . S
C3038 C3036 1.419 . S
C3038 C3039 1.362 . S
C3039 H3029 0.930 . S
C3039 C3032 1.409 . S
C3039 C3038 1.362 . S
H3040 C3046 0.930 . S
H3041 C3049 0.936 . S
H3042 C3050 0.930 . S
H3043 C3051 0.930 1_455 S
H3044 C3054 0.930 . S
H3045 C3055 0.930 . S
C3046 H3040 0.930 . S
C3046 C3047 1.355 . S
C3046 C3048 1.415 . S
C3047 C3046 1.355 . S
C3047 C3049 1.411 1_655 S
C3048 C3046 1.415 . S
C3048 C3053 1.425 . S
C3048 C3055 1.409 . S
C3049 H3041 0.936 . S
C3049 C3047 1.411 1_455 S
C3049 C3050 1.364 . S
C3050 H3042 0.930 . S
C3050 C3049 1.364 . S
C3050 C3053 1.409 1_455 S
C3051 H3043 0.930 1_655 S
C3051 C3052 1.355 . S
C3051 C3053 1.415 . S
C3052 C3051 1.355 . S
C3052 C3054 1.419 . S
C3053 C3048 1.425 . S
C3053 C3050 1.409 1_655 S
C3053 C3051 1.415 . S
C3054 H3044 0.930 . S
C3054 C3052 1.419 . S
C3054 C3055 1.362 . S
C3055 H3045 0.930 . S
C3055 C3048 1.409 . S
C3055 C3054 1.362 . S
H3056 C3062 0.930 . S
H3057 C3065 0.930 . S
H3058 C3066 0.930 . S
H3059 C3067 0.930 . S
H3060 C3070 0.930 . S
H3061 C3071 0.930 . S
C3062 H3056 0.930 . S
C3062 C3063 1.355 . S
C3062 C3064 1.415 . S
C3063 C3062 1.355 . S
C3063 C3065 1.419 . S
C3064 C3062 1.415 . S
C3064 C3069 1.425 . S
C3064 C3071 1.409 . S
C3065 H3057 0.930 . S
C3065 C3063 1.419 . S
C3065 C3066 1.362 . S
C3066 H3058 0.930 . S
C3066 C3065 1.362 . S
C3066 C3069 1.409 . S
C3067 H3059 0.930 . S
C3067 C3068 1.355 . S
C3067 C3069 1.415 . S
C3068 C3067 1.355 . S
C3068 C3070 1.419 . S
C3069 C3064 1.425 . S
C3069 C3066 1.409 . S
C3069 C3067 1.415 . S
C3070 H3060 0.930 . S
C3070 C3068 1.419 . S
C3070 C3071 1.362 . S
C3071 H3061 0.930 . S
C3071 C3064 1.409 . S
C3071 C3070 1.362 . S
H3072 C3078 0.930 . S
H3073 C3081 0.930 . S
H3074 C3082 0.930 . S
H3075 C3083 0.930 1_655 S
H3076 C3086 0.930 . S
H3077 C3087 0.930 . S
C3078 H3072 0.930 . S
C3078 C3079 1.355 . S
C3078 C3080 1.415 . S
C3079 C3078 1.355 . S
C3079 C3081 1.419 1_455 S
C3080 C3078 1.415 . S
C3080 C3085 1.425 . S
C3080 C3087 1.409 . S
C3081 H3073 0.930 . S
C3081 C3079 1.419 1_655 S
C3081 C3082 1.362 . S
C3082 H3074 0.930 . S
C3082 C3081 1.362 . S
C3082 C3085 1.409 1_655 S
C3083 H3075 0.930 1_455 S
C3083 C3084 1.355 . S
C3083 C3085 1.415 . S
C3084 C3083 1.355 . S
C3084 C3086 1.419 . S
C3085 C3080 1.425 . S
C3085 C3082 1.409 1_455 S
C3085 C3083 1.415 . S
C3086 H3076 0.930 . S
C3086 C3084 1.419 . S
C3086 C3087 1.362 . S
C3087 H3077 0.930 . S
C3087 C3080 1.409 . S
C3087 C3086 1.362 . S
H3088 C3094 0.930 . S
H3089 C3097 0.930 . S
H3090 C3098 0.930 . S
H3091 C3099 0.930 . S
H3092 C3102 0.930 . S
H3093 C3103 0.930 . S
C3094 H3088 0.930 . S
C3094 C3095 1.355 . S
C3094 C3096 1.415 . S
C3095 C3094 1.355 . S
C3095 C3097 1.419 . S
C3096 C3094 1.415 . S
C3096 C3101 1.425 . S
C3096 C3103 1.409 . S
C3097 H3089 0.930 . S
C3097 C3095 1.419 . S
C3097 C3098 1.362 . S
C3098 H3090 0.930 . S
C3098 C3097 1.362 . S
C3098 C3101 1.409 . S
C3099 H3091 0.930 . S
C3099 C3100 1.355 . S
C3099 C3101 1.415 . S
C3100 C3099 1.355 . S
C3100 C3102 1.419 . S
C3101 C3096 1.425 . S
C3101 C3098 1.409 . S
C3101 C3099 1.415 . S
C3102 H3092 0.930 . S
C3102 C3100 1.419 . S
C3102 C3103 1.362 . S
C3103 H3093 0.930 . S
C3103 C3096 1.409 . S
C3103 C3102 1.362 . S
H3104 C3110 0.930 . S
H3105 C3113 0.930 . S
H3106 C3114 0.930 . S
H3107 C3115 0.930 . S
H3108 C3118 0.930 . S
H3109 C3119 0.930 . S
C3110 H3104 0.930 . S
C3110 C3111 1.355 . S
C3110 C3112 1.415 . S
C3111 C3110 1.355 . S
C3111 C3113 1.419 . S
C3112 C3110 1.415 . S
C3112 C3117 1.425 . S
C3112 C3119 1.409 . S
C3113 H3105 0.930 . S
C3113 C3111 1.419 . S
C3113 C3114 1.362 . S
C3114 H3106 0.930 . S
C3114 C3113 1.362 . S
C3114 C3117 1.409 . S
C3115 H3107 0.930 . S
C3115 C3116 1.355 . S
C3115 C3117 1.415 . S
C3116 C3115 1.355 . S
C3116 C3118 1.419 . S
C3117 C3112 1.425 . S
C3117 C3114 1.409 . S
C3117 C3115 1.415 . S
C3118 H3108 0.930 . S
C3118 C3116 1.419 . S
C3118 C3119 1.362 . S
C3119 H3109 0.930 . S
C3119 C3112 1.409 . S
C3119 C3118 1.362 . S
H3120 C3126 0.930 . S
H3121 C3129 0.930 . S
H3122 C3130 0.930 . S
H3123 C3131 0.930 . S
H3124 C3134 0.930 . S
H3125 C3135 0.930 . S
C3126 H3120 0.930 . S
C3126 C3127 1.355 . S
C3126 C3128 1.415 . S
C3127 C3126 1.355 . S
C3127 C3129 1.419 . S
C3128 C3126 1.415 . S
C3128 C3133 1.425 . S
C3128 C3135 1.409 . S
C3129 H3121 0.930 . S
C3129 C3127 1.419 . S
C3129 C3130 1.362 . S
C3130 H3122 0.930 . S
C3130 C3129 1.362 . S
C3130 C3133 1.409 . S
C3131 H3123 0.930 . S
C3131 C3132 1.355 . S
C3131 C3133 1.415 . S
C3132 C3131 1.355 . S
C3132 C3134 1.419 . S
C3133 C3128 1.425 . S
C3133 C3130 1.409 . S
C3133 C3131 1.415 . S
C3134 H3124 0.930 . S
C3134 C3132 1.419 . S
C3134 C3135 1.362 . S
C3135 H3125 0.930 . S
C3135 C3128 1.409 . S
C3135 C3134 1.362 . S
H3136 C3142 0.930 . S
H3137 C3145 0.930 . S
H3138 C3146 0.930 . S
H3139 C3147 0.930 . S
H3140 C3150 0.930 . S
H3141 C3151 0.930 . S
C3142 H3136 0.930 . S
C3142 C3143 1.355 . S
C3142 C3144 1.415 . S
C3143 C3142 1.355 . S
C3143 C3145 1.419 . S
C3144 C3142 1.415 . S
C3144 C3149 1.425 . S
C3144 C3151 1.409 . S
C3145 H3137 0.930 . S
C3145 C3143 1.419 . S
C3145 C3146 1.362 . S
C3146 H3138 0.930 . S
C3146 C3145 1.362 . S
C3146 C3149 1.409 . S
C3147 H3139 0.930 . S
C3147 C3148 1.355 . S
C3147 C3149 1.415 . S
C3148 C3147 1.355 . S
C3148 C3150 1.419 . S
C3149 C3144 1.425 . S
C3149 C3146 1.409 . S
C3149 C3147 1.415 . S
C3150 H3140 0.930 . S
C3150 C3148 1.419 . S
C3150 C3151 1.362 . S
C3151 H3141 0.930 . S
C3151 C3144 1.409 . S
C3151 C3150 1.362 . S
H3152 C3158 0.930 . S
H3153 C3161 0.930 . S
H3154 C3162 0.930 . S
H3155 C3163 0.930 . S
H3156 C3166 0.930 . S
H3157 C3167 0.930 . S
C3158 H3152 0.930 . S
C3158 C3159 1.355 . S
C3158 C3160 1.415 . S
C3159 C3158 1.355 . S
C3159 C3161 1.419 . S
C3160 C3158 1.415 . S
C3160 C3165 1.425 . S
C3160 C3167 1.409 . S
C3161 H3153 0.930 . S
C3161 C3159 1.419 . S
C3161 C3162 1.362 . S
C3162 H3154 0.930 . S
C3162 C3161 1.362 . S
C3162 C3165 1.409 . S
C3163 H3155 0.930 . S
C3163 C3164 1.355 . S
C3163 C3165 1.415 . S
C3164 C3163 1.355 . S
C3164 C3166 1.419 . S
C3165 C3160 1.425 . S
C3165 C3162 1.409 . S
C3165 C3163 1.415 . S
C3166 H3156 0.930 . S
C3166 C3164 1.419 . S
C3166 C3167 1.362 . S
C3167 H3157 0.930 . S
C3167 C3160 1.409 . S
C3167 C3166 1.362 . S
H3168 C3174 0.930 . S
H3169 C3177 0.930 . S
H3170 C3178 0.930 . S
H3171 C3179 0.930 . S
H3172 C3182 0.930 . S
H3173 C3183 0.930 . S
C3174 H3168 0.930 . S
C3174 C3175 1.355 . S
C3174 C3176 1.415 . S
C3175 C3174 1.355 . S
C3175 C3177 1.419 . S
C3176 C3174 1.415 . S
C3176 C3181 1.425 . S
C3176 C3183 1.409 . S
C3177 H3169 0.930 . S
C3177 C3175 1.419 . S
C3177 C3178 1.362 . S
C3178 H3170 0.930 . S
C3178 C3177 1.362 . S
C3178 C3181 1.409 . S
C3179 H3171 0.930 . S
C3179 C3180 1.355 . S
C3179 C3181 1.415 . S
C3180 C3179 1.355 . S
C3180 C3182 1.419 . S
C3181 C3176 1.425 . S
C3181 C3178 1.409 . S
C3181 C3179 1.415 . S
C3182 H3172 0.930 . S
C3182 C3180 1.419 . S
C3182 C3183 1.362 . S
C3183 H3173 0.930 . S
C3183 C3176 1.409 . S
C3183 C3182 1.362 . S
H3184 C3190 0.930 . S
H3185 C3193 0.930 . S
H3186 C3194 0.930 . S
H3187 C3195 0.930 . S
H3188 C3198 0.930 . S
H3189 C3199 0.930 . S
C3190 H3184 0.930 . S
C3190 C3191 1.355 . S
C3190 C3192 1.415 . S
C3191 C3190 1.355 . S
C3191 C3193 1.419 . S
C3192 C3190 1.415 . S
C3192 C3197 1.425 . S
C3192 C3199 1.409 . S
C3193 H3185 0.930 . S
C3193 C3191 1.419 . S
C3193 C3194 1.362 . S
C3194 H3186 0.930 . S
C3194 C3193 1.362 . S
C3194 C3197 1.409 . S
C3195 H3187 0.930 . S
C3195 C3196 1.355 . S
C3195 C3197 1.415 . S
C3196 C3195 1.355 . S
C3196 C3198 1.419 . S
C3197 C3192 1.425 . S
C3197 C3194 1.409 . S
C3197 C3195 1.415 . S
C3198 H3188 0.930 . S
C3198 C3196 1.419 . S
C3198 C3199 1.362 . S
C3199 H3189 0.930 . S
C3199 C3192 1.409 . S
C3199 C3198 1.362 . S
H3200 C3206 0.930 . S
H3201 C3209 0.930 . S
H3202 C3210 0.930 . S
H3203 C3211 0.930 . S
H3204 C3214 0.930 . S
H3205 C3215 0.930 . S
C3206 H3200 0.930 . S
C3206 C3207 1.355 . S
C3206 C3208 1.415 . S
C3207 C3206 1.355 . S
C3207 C3209 1.419 . S
C3208 C3206 1.415 . S
C3208 C3213 1.425 . S
C3208 C3215 1.409 . S
C3209 H3201 0.930 . S
C3209 C3207 1.419 . S
C3209 C3210 1.362 . S
C3210 H3202 0.930 . S
C3210 C3209 1.362 . S
C3210 C3213 1.409 . S
C3211 H3203 0.930 . S
C3211 C3212 1.355 . S
C3211 C3213 1.415 . S
C3212 C3211 1.355 . S
C3212 C3214 1.419 . S
C3213 C3208 1.425 . S
C3213 C3210 1.409 . S
C3213 C3211 1.415 . S
C3214 H3204 0.930 . S
C3214 C3212 1.419 . S
C3214 C3215 1.362 . S
C3215 H3205 0.930 . S
C3215 C3208 1.409 . S
C3215 C3214 1.362 . S
H3216 C3222 0.930 . S
H3217 C3225 0.930 . S
H3218 C3226 0.930 . S
H3219 C3227 0.930 . S
H3220 C3230 0.930 . S
H3221 C3231 0.930 . S
C3222 H3216 0.930 . S
C3222 C3223 1.355 . S
C3222 C3224 1.415 . S
C3223 C3222 1.355 . S
C3223 C3225 1.419 . S
C3224 C3222 1.415 . S
C3224 C3229 1.425 . S
C3224 C3231 1.409 . S
C3225 H3217 0.930 . S
C3225 C3223 1.419 . S
C3225 C3226 1.362 . S
C3226 H3218 0.930 . S
C3226 C3225 1.362 . S
C3226 C3229 1.409 . S
C3227 H3219 0.930 . S
C3227 C3228 1.355 . S
C3227 C3229 1.415 . S
C3228 C3227 1.355 . S
C3228 C3230 1.419 . S
C3229 C3224 1.425 . S
C3229 C3226 1.409 . S
C3229 C3227 1.415 . S
C3230 H3220 0.930 . S
C3230 C3228 1.419 . S
C3230 C3231 1.362 . S
C3231 H3221 0.930 . S
C3231 C3224 1.409 . S
C3231 C3230 1.362 . S
H3232 C3238 0.930 . S
H3233 C3241 0.930 . S
H3234 C3242 0.930 . S
H3235 C3243 0.930 . S
H3236 C3246 0.930 . S
H3237 C3247 0.930 . S
C3238 H3232 0.930 . S
C3238 C3239 1.355 . S
C3238 C3240 1.415 . S
C3239 C3238 1.355 . S
C3239 C3241 1.419 . S
C3240 C3238 1.415 . S
C3240 C3245 1.425 . S
C3240 C3247 1.409 . S
C3241 H3233 0.930 . S
C3241 C3239 1.419 . S
C3241 C3242 1.362 . S
C3242 H3234 0.930 . S
C3242 C3241 1.362 . S
C3242 C3245 1.409 . S
C3243 H3235 0.930 . S
C3243 C3244 1.355 . S
C3243 C3245 1.415 . S
C3244 C3243 1.355 . S
C3244 C3246 1.419 . S
C3245 C3240 1.425 . S
C3245 C3242 1.409 . S
C3245 C3243 1.415 . S
C3246 H3236 0.930 . S
C3246 C3244 1.419 . S
C3246 C3247 1.362 . S
C3247 H3237 0.930 . S
C3247 C3240 1.409 . S
C3247 C3246 1.362 . S
H3248 C3254 0.930 . S
H3249 C3257 0.930 . S
H3250 C3258 0.930 . S
H3251 C3259 0.930 . S
H3252 C3262 0.930 . S
H3253 C3263 0.930 . S
C3254 H3248 0.930 . S
C3254 C3255 1.355 . S
C3254 C3256 1.415 . S
C3255 C3254 1.355 . S
C3255 C3257 1.419 . S
C3256 C3254 1.415 . S
C3256 C3261 1.425 . S
C3256 C3263 1.409 . S
C3257 H3249 0.930 . S
C3257 C3255 1.419 . S
C3257 C3258 1.362 . S
C3258 H3250 0.930 . S
C3258 C3257 1.362 . S
C3258 C3261 1.409 . S
C3259 H3251 0.930 . S
C3259 C3260 1.355 . S
C3259 C3261 1.415 . S
C3260 C3259 1.355 . S
C3260 C3262 1.419 . S
C3261 C3256 1.425 . S
C3261 C3258 1.409 . S
C3261 C3259 1.415 . S
C3262 H3252 0.930 . S
C3262 C3260 1.419 . S
C3262 C3263 1.362 . S
C3263 H3253 0.930 . S
C3263 C3256 1.409 . S
C3263 C3262 1.362 . S
C1223 C973 2.113 . S
C1228 C23 2.096 . S
C1239 C61 2.058 . S
C1244 C935 2.043 . S
C1255 C1049 2.108 . S
C1260 C99 2.088 . S
C1271 C137 2.108 . S
C1276 C1011 2.088 . S
C1287 C1106 2.064 . S
C1292 C156 2.103 . S
C1303 C194 2.073 . S
C1308 C1068 2.043 . S
C1319 C1182 2.042 . S
C1324 C232 2.072 . S
C1335 C270 2.040 . S
C1340 C1144 2.064 . S
C1351 C327 2.097 . S
C1356 C669 2.062 . S
C1367 C365 2.085 . S
C1372 C631 2.050 . S
C1383 C745 2.045 . S
C1388 C403 2.042 . S
C1399 C441 2.095 . S
C1404 C707 2.108 . S
C1415 C460 2.059 . S
C1420 C802 2.039 . S
C1431 C764 2.062 . S
C1436 C498 2.097 . S
C1447 C878 2.059 . S
C1452 C536 2.039 . S
C1463 C840 2.108 . S
C1468 C574 2.095 . S
C1479 C1104 1.789 . S
C1484 C2 1.768 . S
C1495 C40 1.729 . S
C1500 C154 1.748 . S
C1511 C78 1.765 . S
C1516 C876 1.789 . S
C1527 C116 1.706 . S
C1532 C534 1.734 . S
C1543 C976 1.741 . S
C1548 C178 1.712 . S
C1559 C26 1.732 1_556 S
C1564 C216 1.707 . S
C1575 C748 1.788 . S
C1580 C254 1.769 . S
C1591 C292 1.761 . S
C1596 C406 1.787 . S
C1607 C800 1.745 1_565 S
C1612 C306 1.725 . S
C1623 C458 1.741 . S
C1628 C344 1.704 . S
C1639 C382 1.749 . S
C1644 C1180 1.780 . S
C1655 C230 1.746 1_565 S
C1660 C420 1.708 . S
C1671 C672 1.749 1_545 S
C1676 C482 1.710 . S
C1687 C520 1.766 . S
C1692 C330 1.782 . S
C1703 C558 1.759 . S
C1708 C1052 1.774 . S
C1719 C596 1.731 . S
C1724 C102 1.750 1_545 S
C1735 C610 1.726 . S
C1740 C496 1.763 . S
C1751 C762 1.750 . S
C1756 C648 1.731 . S
C1767 C268 1.772 . S
C1772 C686 1.737 . S
C1783 C1142 1.757 . S
C1788 C724 1.719 . S
C1799 C786 1.766 . S
C1804 C368 1.782 . S
C1815 C824 1.702 . S
C1820 C634 1.734 . S
C1831 C862 1.766 . S
C1836 C140 1.789 . S
C1847 C900 1.723 . S
C1852 C1014 1.760 . S
C1863 C192 1.779 1_564 S
C1868 C914 1.746 . S
C1879 C1066 1.736 1_554 S
C1884 C952 1.701 . S
C1895 C572 1.743 . S
C1900 C990 1.705 . S
C1911 C1028 1.712 . S
C1916 C838 1.737 1_565 S
C1927 C1090 1.758 . S
C1932 C64 1.773 1_545 S
C1943 C1128 1.747 . S
C1948 C938 1.762 . S
C1959 C1166 1.739 . S
C1964 C444 1.756 . S
C1975 C1204 1.764 . S
C1980 C710 1.788 1_545 S
C1991 C248 1.881 . S
C1996 C20 1.882 1_655 S
C2007 C58 1.879 1_545 S
C2012 C1198 1.882 . S
C2023 C476 1.857 . S
C2028 C96 1.895 1_645 S
C2039 C818 1.885 . S
C2044 C134 1.879 . S
C2055 C95 1.844 . S
C2060 C171 1.899 1_455 S
C2071 C209 1.880 1_565 S
C2076 C1045 1.884 . S
C2087 C323 1.883 . S
C2092 C247 1.880 1_565 S
C2103 C285 1.886 . S
C2108 C665 1.864 . S
C2119 C324 1.881 1_655 S
C2124 C552 1.876 . S
C2135 C894 1.884 . S
C2140 C362 1.880 . S
C2151 C400 1.899 1_655 S
C2156 C172 1.848 . S
C2167 C1122 1.844 . S
C2172 C438 1.898 . S
C2183 C475 1.896 1_455 S
C2188 C399 1.846 . S
C2199 C741 1.871 . S
C2204 C513 1.883 . S
C2215 C551 1.899 1_455 S
C2220 C19 1.845 . S
C2231 C969 1.868 . S
C2236 C589 1.890 . S
C2247 C628 1.887 . S
C2252 C856 1.872 . S
C2263 C666 1.895 1_545 S
C2268 C590 1.856 . S
C2279 C1084 1.882 . S
C2284 C704 1.879 1_545 S
C2295 C742 1.899 . S
C2300 C210 1.845 . S
C2311 C703 1.876 . S
C2316 C779 1.881 . S
C2327 C817 1.893 1_565 S
C2332 C437 1.852 . S
C2343 C931 1.876 . S
C2348 C855 1.886 1_565 S
C2359 C893 1.884 . S
C2364 C57 1.869 . S
C2375 C1160 1.844 . S
C2380 C932 1.898 . S
C2391 C970 1.898 . S
C2396 C286 1.845 . S
C2407 C1008 1.884 . S
C2412 C780 1.879 . S
C2423 C1046 1.890 . S
C2428 C514 1.866 . S
C2439 C1007 1.883 . S
C2444 C1083 1.879 . S
C2455 C1121 1.886 . S
C2460 C133 1.865 . S
C2471 C627 1.856 . S
C2476 C1159 1.891 . S
C2487 C1197 1.880 . S
C2492 C361 1.884 . S
C2503 C118 1.647 . S
C2508 C4 1.587 . S
C2519 C80 1.647 . S
C2524 C42 1.586 . S
C2535 C175 1.587 . S
C2540 C289 1.647 . S
C2551 C251 1.586 . S
C2556 C213 1.647 . S
C2567 C422 1.620 . S
C2572 C308 1.598 . S
C2583 C346 1.629 . S
C2588 C384 1.590 . S
C2599 C593 1.586 . S
C2604 C479 1.647 . S
C2615 C555 1.607 . S
C2620 C517 1.628 . S
C2631 C612 1.559 . S
C2636 C726 1.664 . S
C2647 C688 1.647 . S
C2652 C650 1.586 . S
C2663 C783 1.640 . S
C2668 C897 1.579 . S
C2679 C859 1.628 . S
C2684 C821 1.607 . S
C2695 C1030 1.598 . S
C2700 C916 1.637 . S
C2711 C954 1.628 . S
C2716 C992 1.607 . S
C2727 C1087 1.637 . S
C2732 C1201 1.598 . S
C2743 C1125 1.566 . S
C2748 C1163 1.655 . S
C2759 C28 0.521 . S
C2764 C169 0.521 . S
C2775 C1119 0.436 . S
C2780 C66 0.436 . S
C2791 C549 0.511 . S
C2796 C104 0.511 . S
C2807 C891 0.407 . S
C2812 C142 0.407 . S
C2823 C978 0.449 . S
C2828 C207 0.449 . S
C2839 C408 0.501 . S
C2844 C245 0.501 . S
C2855 C283 0.414 . S
C2860 C750 0.414 . S
C2871 C473 0.429 . S
C2876 C332 0.429 . S
C2887 C370 0.490 . S
C2892 C815 0.490 . S
C2903 C446 0.444 . S
C2908 C1195 0.444 . S
C2919 C511 0.514 . S
C2924 C674 0.514 . S
C2935 C1054 0.524 . S
C2940 C587 0.524 . S
C2951 C777 0.528 . S
C2956 C636 0.528 . S
C2967 C1157 0.463 . S
C2972 C712 0.463 . S
C2983 C853 0.534 . S
C2988 C1016 0.534 . S
C2999 C1081 0.478 . S
C3004 C940 0.478 . S
C3015 C93 1.106 . S
C3020 C17 1.103 . S
C3031 C131 1.062 . S
C3036 C55 1.073 . S
C3047 C180 1.080 . S
C3052 C256 1.070 . S
C3063 C218 0.980 . S
C3068 C294 0.977 . S
C3079 C397 1.097 . S
C3084 C321 1.089 . S
C3095 C435 1.030 . S
C3100 C359 1.018 . S
C3111 C484 0.981 . S
C3116 C560 0.987 . S
C3127 C598 1.102 . S
C3132 C522 1.106 . S
C3143 C701 1.107 . S
C3148 C625 1.104 . S
C3159 C663 1.090 . S
C3164 C739 1.081 . S
C3175 C864 1.071 . S
C3180 C788 1.060 . S
C3191 C826 0.989 . S
C3196 C902 0.998 . S
C3207 C929 1.047 . S
C3212 C1005 1.059 . S
C3223 C967 1.106 . S
C3228 C1043 1.108 . S
C3239 C1168 1.108 . S
C3244 C1092 1.107 . S
C3255 C1206 0.978 . S
C3260 C1130 0.977 . S
