# Generated by pormake.
# Topology cag, (4)-cn, num edge types: 1
# Building blocks:
#     Node 0, Type 0, BuildingBlock: CEKHIL_clean_sbu_0, # of connection points: 4
#     Node 1, Type 0, BuildingBlock: CEKHIL_clean_sbu_0, # of connection points: 4
#     Node 2, Type 0, BuildingBlock: CEKHIL_clean_sbu_0, # of connection points: 4
#     Node 3, Type 0, BuildingBlock: CEKHIL_clean_sbu_0, # of connection points: 4
#     Node 4, Type 0, BuildingBlock: CEKHIL_clean_sbu_0, # of connection points: 4
#     Node 5, Type 0, BuildingBlock: CEKHIL_clean_sbu_0, # of connection points: 4
#     Node 6, Type 0, BuildingBlock: CEKHIL_clean_sbu_0, # of connection points: 4
#     Node 7, Type 0, BuildingBlock: CEKHIL_clean_sbu_0, # of connection points: 4
#     Node 8, Type 0, BuildingBlock: CEKHIL_clean_sbu_0, # of connection points: 4
#     Node 9, Type 0, BuildingBlock: CEKHIL_clean_sbu_0, # of connection points: 4
#     Node 10, Type 0, BuildingBlock: CEKHIL_clean_sbu_0, # of connection points: 4
#     Node 11, Type 0, BuildingBlock: CEKHIL_clean_sbu_0, # of connection points: 4
#     Node 12, Type 0, BuildingBlock: CEKHIL_clean_sbu_0, # of connection points: 4
#     Node 13, Type 0, BuildingBlock: CEKHIL_clean_sbu_0, # of connection points: 4
#     Node 14, Type 0, BuildingBlock: CEKHIL_clean_sbu_0, # of connection points: 4
#     Node 15, Type 0, BuildingBlock: CEKHIL_clean_sbu_0, # of connection points: 4
#     Edge 16, Type (0, 0), BuildingBlock: EZIPEK_clean_linker_0, # of connection points: 2
#     Edge 17, Type (0, 0), BuildingBlock: EZIPEK_clean_linker_0, # of connection points: 2
#     Edge 18, Type (0, 0), BuildingBlock: EZIPEK_clean_linker_0, # of connection points: 2
#     Edge 19, Type (0, 0), BuildingBlock: EZIPEK_clean_linker_0, # of connection points: 2
#     Edge 20, Type (0, 0), BuildingBlock: EZIPEK_clean_linker_0, # of connection points: 2
#     Edge 21, Type (0, 0), BuildingBlock: EZIPEK_clean_linker_0, # of connection points: 2
#     Edge 22, Type (0, 0), BuildingBlock: EZIPEK_clean_linker_0, # of connection points: 2
#     Edge 23, Type (0, 0), BuildingBlock: EZIPEK_clean_linker_0, # of connection points: 2
#     Edge 24, Type (0, 0), BuildingBlock: EZIPEK_clean_linker_0, # of connection points: 2
#     Edge 25, Type (0, 0), BuildingBlock: EZIPEK_clean_linker_0, # of connection points: 2
#     Edge 26, Type (0, 0), BuildingBlock: EZIPEK_clean_linker_0, # of connection points: 2
#     Edge 27, Type (0, 0), BuildingBlock: EZIPEK_clean_linker_0, # of connection points: 2
#     Edge 28, Type (0, 0), BuildingBlock: EZIPEK_clean_linker_0, # of connection points: 2
#     Edge 29, Type (0, 0), BuildingBlock: EZIPEK_clean_linker_0, # of connection points: 2
#     Edge 30, Type (0, 0), BuildingBlock: EZIPEK_clean_linker_0, # of connection points: 2
#     Edge 31, Type (0, 0), BuildingBlock: EZIPEK_clean_linker_0, # of connection points: 2
#     Edge 32, Type (0, 0), BuildingBlock: EZIPEK_clean_linker_0, # of connection points: 2
#     Edge 33, Type (0, 0), BuildingBlock: EZIPEK_clean_linker_0, # of connection points: 2
#     Edge 34, Type (0, 0), BuildingBlock: EZIPEK_clean_linker_0, # of connection points: 2
#     Edge 35, Type (0, 0), BuildingBlock: EZIPEK_clean_linker_0, # of connection points: 2
#     Edge 36, Type (0, 0), BuildingBlock: EZIPEK_clean_linker_0, # of connection points: 2
#     Edge 37, Type (0, 0), BuildingBlock: EZIPEK_clean_linker_0, # of connection points: 2
#     Edge 38, Type (0, 0), BuildingBlock: EZIPEK_clean_linker_0, # of connection points: 2
#     Edge 39, Type (0, 0), BuildingBlock: EZIPEK_clean_linker_0, # of connection points: 2
#     Edge 40, Type (0, 0), BuildingBlock: EZIPEK_clean_linker_0, # of connection points: 2
#     Edge 41, Type (0, 0), BuildingBlock: EZIPEK_clean_linker_0, # of connection points: 2
#     Edge 42, Type (0, 0), BuildingBlock: EZIPEK_clean_linker_0, # of connection points: 2
#     Edge 43, Type (0, 0), BuildingBlock: EZIPEK_clean_linker_0, # of connection points: 2
#     Edge 44, Type (0, 0), BuildingBlock: EZIPEK_clean_linker_0, # of connection points: 2
#     Edge 45, Type (0, 0), BuildingBlock: EZIPEK_clean_linker_0, # of connection points: 2
#     Edge 46, Type (0, 0), BuildingBlock: EZIPEK_clean_linker_0, # of connection points: 2
#     Edge 47, Type (0, 0), BuildingBlock: EZIPEK_clean_linker_0, # of connection points: 2
# Relax obj value: 0.093
# Max RMSD: 0.131
# Mean RMSD: 0.130
data_MOF--net-cag--node1-CEKHIL_clean_sbu_0--edge1-EZIPEK_clean_linker_0
_symmetry_space_group_name_H-M    P1
_symmetry_Int_Tables_number       1
_symmetry_cell_setting            triclinic
loop_
_symmetry_equiv_pos_as_xyz
'x, y, z'
_cell_length_a     32.301178
_cell_length_b     35.422272
_cell_length_c     29.124912
_cell_angle_alpha  90.083862
_cell_angle_beta   89.868968
_cell_angle_gamma 89.852382
loop_
_atom_site_label
_atom_site_type_symbol
_atom_site_fract_x
_atom_site_fract_y
_atom_site_fract_z
_atom_type_partial_charge
Co0 Co 0.31799 0.13734 0.07424 0.0
O1 O 0.26283 0.14952 0.05217 0.0
O2 O 0.31626 0.18828 0.05059 0.0
C3 C 0.32112 0.07963 0.04071 0.0
O4 O 0.37995 0.13639 0.08926 0.0
Co5 Co 0.34056 0.07027 0.13678 0.0
O6 O 0.39826 0.0797 0.11665 0.0
C7 C 0.29698 0.13647 0.17603 0.0
C8 C 0.27761 0.18235 0.04092 0.0
C9 C 0.40766 0.11179 0.10009 0.0
O10 O 0.30227 0.15522 0.13847 0.0
O11 O 0.30771 0.10192 0.18092 0.0
O12 O 0.32915 0.10981 0.01697 0.0
O13 O 0.30964 0.08513 0.08262 0.0
Co14 Co 0.18438 0.86443 0.57349 0.0
O15 O 0.23921 0.84854 0.55339 0.0
O16 O 0.18269 0.81367 0.54976 0.0
C17 C 0.1859 0.92188 0.53952 0.0
O18 O 0.12239 0.8691 0.58732 0.0
Co19 Co 0.16529 0.9335 0.63482 0.0
O20 O 0.10704 0.92644 0.61519 0.0
C21 C 0.20326 0.86499 0.6755 0.0
C22 C 0.22206 0.81677 0.54164 0.0
C23 C 0.09598 0.89475 0.59867 0.0
O24 O 0.19695 0.84607 0.63822 0.0
O25 O 0.19516 0.90023 0.67956 0.0
O26 O 0.17647 0.89203 0.51578 0.0
O27 O 0.19618 0.91609 0.58168 0.0
Co28 Co 0.3079 0.86747 0.94226 0.0
O29 O 0.25381 0.85329 0.96579 0.0
O30 O 0.30934 0.81676 0.96665 0.0
C31 C 0.31008 0.92556 0.97447 0.0
O32 O 0.36956 0.87163 0.92661 0.0
Co33 Co 0.32372 0.93413 0.87606 0.0
O34 O 0.38319 0.92155 0.88187 0.0
C35 C 0.28197 0.86636 0.84173 0.0
C36 C 0.27056 0.82122 0.9772 0.0
C37 C 0.39521 0.89349 0.90564 0.0
O38 O 0.29207 0.84811 0.87848 0.0
O39 O 0.28845 0.90161 0.83631 0.0
O40 O 0.31873 0.8958 0.99877 0.0
O41 O 0.29724 0.91917 0.93325 0.0
Co42 Co 0.19408 0.13419 0.4429 0.0
O43 O 0.24829 0.15146 0.4628 0.0
O44 O 0.19018 0.18446 0.46736 0.0
C45 C 0.19605 0.07627 0.47503 0.0
O46 O 0.13237 0.12751 0.43032 0.0
Co47 Co 0.17866 0.06688 0.37773 0.0
O48 O 0.11897 0.07919 0.38317 0.0
C49 C 0.21633 0.13603 0.3416 0.0
C50 C 0.22971 0.18263 0.47483 0.0
C51 C 0.10677 0.10645 0.40831 0.0
O52 O 0.20602 0.15411 0.37847 0.0
O53 O 0.21159 0.10046 0.33674 0.0
O54 O 0.18697 0.1057 0.49988 0.0
O55 O 0.2071 0.08296 0.43321 0.0
Co56 Co 0.66229 0.88118 0.91633 0.0
O57 O 0.71899 0.88845 0.89425 0.0
O58 O 0.66651 0.86945 0.85167 0.0
C59 C 0.65796 0.936 0.95758 0.0
O60 O 0.59952 0.87323 0.91992 0.0
Co61 Co 0.63126 0.87376 0.01539 0.0
O62 O 0.57408 0.87127 0.99145 0.0
C63 C 0.68358 0.8141 0.97537 0.0
C64 C 0.70521 0.87843 0.85402 0.0
C65 C 0.569 0.87123 0.94824 0.0
O66 O 0.67673 0.82712 0.93461 0.0
O67 O 0.67101 0.83073 0.01179 0.0
O68 O 0.65279 0.93601 0.91326 0.0
O69 O 0.66717 0.90373 0.97539 0.0
Co70 Co 0.83968 0.12608 0.41414 0.0
O71 O 0.78297 0.12133 0.39146 0.0
O72 O 0.83713 0.13693 0.34919 0.0
C73 C 0.84022 0.07209 0.4569 0.0
O74 O 0.90255 0.13135 0.41864 0.0
Co75 Co 0.8687 0.13285 0.51462 0.0
O76 O 0.92604 0.12761 0.49081 0.0
C77 C 0.82329 0.19581 0.47132 0.0
C78 C 0.79787 0.13006 0.35124 0.0
C79 C 0.93229 0.12938 0.44774 0.0
O80 O 0.8291 0.18116 0.43108 0.0
O81 O 0.83367 0.17921 0.50854 0.0
O82 O 0.84595 0.07067 0.41266 0.0
O83 O 0.83243 0.10509 0.47341 0.0
Co84 Co 0.67292 0.12641 0.1105 0.0
O85 O 0.72722 0.11939 0.13837 0.0
O86 O 0.67212 0.14187 0.17434 0.0
C87 C 0.67116 0.06925 0.07443 0.0
O88 O 0.61143 0.13595 0.0981 0.0
Co89 Co 0.65281 0.12511 1.00655 0.0
O90 O 0.59512 0.11583 0.02762 0.0
C91 C 0.69429 0.19189 0.04763 0.0
C92 C 0.7106 0.13155 0.17639 0.0
C93 C 0.58452 0.12612 0.0679 0.0
O94 O 0.6883 0.1792 0.08877 0.0
O95 O 0.68485 0.17336 0.01134 0.0
O96 O 0.6619 0.07201 0.11781 0.0
O97 O 0.68292 0.10012 0.05519 0.0
Co98 Co 0.82969 0.8842 0.61216 0.0
O99 O 0.77548 0.89083 0.64078 0.0
O100 O 0.83064 0.8678 0.67561 0.0
C101 C 0.83086 0.94179 0.57773 0.0
O102 O 0.89133 0.87484 0.59915 0.0
Co103 Co 0.85115 0.88797 0.50842 0.0
O104 O 0.90836 0.8973 0.52986 0.0
C105 C 0.80818 0.82064 0.54681 0.0
C106 C 0.79224 0.87826 0.67842 0.0
C107 C 0.91851 0.88572 0.56961 0.0
O108 O 0.81331 0.83211 0.58864 0.0
O109 O 0.81923 0.83975 0.51157 0.0
O110 O 0.84055 0.93846 0.6209 0.0
O111 O 0.81967 0.91114 0.55762 0.0
Co112 Co 0.81817 0.64058 0.07381 0.0
O113 O 0.76325 0.65545 0.053 0.0
O114 O 0.81946 0.69064 0.04824 0.0
C115 C 0.81799 0.58197 0.04247 0.0
O116 O 0.88006 0.63705 0.08803 0.0
Co117 Co 0.83785 0.57378 0.13832 0.0
O118 O 0.89553 0.57989 0.11588 0.0
C119 C 0.79844 0.64303 0.17571 0.0
C120 C 0.78011 0.68718 0.04054 0.0
C121 C 0.90654 0.61138 0.09876 0.0
O122 O 0.80481 0.66076 0.13763 0.0
O123 O 0.80714 0.60809 0.18153 0.0
O124 O 0.82688 0.61118 0.01736 0.0
O125 O 0.80722 0.58909 0.08426 0.0
Co126 Co 0.69354 0.37038 0.57239 0.0
O127 O 0.74878 0.35886 0.54957 0.0
O128 O 0.69656 0.31885 0.55049 0.0
C129 C 0.68854 0.42705 0.5368 0.0
O130 O 0.63165 0.37034 0.58845 0.0
Co131 Co 0.66959 0.43877 0.63255 0.0
O132 O 0.61206 0.42753 0.61343 0.0
C133 C 0.7145 0.37442 0.67412 0.0
C134 C 0.73485 0.32544 0.53956 0.0
C135 C 0.60336 0.39473 0.59844 0.0
O136 O 0.71016 0.35464 0.6371 0.0
O137 O 0.7026 0.40876 0.67787 0.0
O138 O 0.68108 0.39608 0.5143 0.0
O139 O 0.70056 0.42295 0.57867 0.0
Co140 Co 0.81634 0.36972 0.94425 0.0
O141 O 0.76146 0.35655 0.96667 0.0
O142 O 0.81545 0.3182 0.96602 0.0
C143 C 0.81877 0.4266 0.97984 0.0
O144 O 0.87822 0.37129 0.92856 0.0
Co145 Co 0.83875 0.43895 0.88488 0.0
O146 O 0.89606 0.42953 0.90648 0.0
C147 C 0.79585 0.37369 0.84258 0.0
C148 C 0.77688 0.32362 0.97675 0.0
C149 C 0.90575 0.39667 0.92051 0.0
O150 O 0.80065 0.35372 0.87934 0.0
O151 O 0.8068 0.40827 0.8393 0.0
O152 O 0.82737 0.39595 1.00247 0.0
O153 O 0.80746 0.42198 0.93783 0.0
Co154 Co 0.69273 0.63949 0.43997 0.0
O155 O 0.74603 0.65698 0.46264 0.0
O156 O 0.68744 0.6893 0.46546 0.0
C157 C 0.69403 0.58105 0.47082 0.0
O158 O 0.63161 0.63263 0.42468 0.0
Co159 Co 0.67995 0.57315 0.37269 0.0
O160 O 0.6199 0.58424 0.37699 0.0
C161 C 0.71802 0.64312 0.33954 0.0
C162 C 0.72668 0.6878 0.47457 0.0
C163 C 0.60684 0.6113 0.40193 0.0
O164 O 0.70674 0.6605 0.37656 0.0
O165 O 0.71359 0.60764 0.33355 0.0
O166 O 0.68389 0.61004 0.49593 0.0
O167 O 0.70655 0.58845 0.42967 0.0
Co168 Co 0.17164 0.37983 0.91208 0.0
O169 O 0.22676 0.38509 0.88551 0.0
O170 O 0.17143 0.36603 0.84768 0.0
C171 C 0.17179 0.43585 0.95043 0.0
O172 O 0.10953 0.3726 0.92312 0.0
Co173 Co 0.15008 0.3789 0.0158 0.0
O174 O 0.09248 0.38868 0.99513 0.0
C175 C 0.19145 0.31283 0.97259 0.0
C176 C 0.21046 0.37445 0.84678 0.0
C177 C 0.08236 0.38081 0.95397 0.0
O178 O 0.18467 0.32605 0.93191 0.0
O179 O 0.18272 0.33097 0.00945 0.0
O180 O 0.16309 0.43484 0.90683 0.0
O181 O 0.18187 0.40404 0.96854 0.0
Co182 Co 0.33972 0.62369 0.41346 0.0
O183 O 0.28288 0.61571 0.39239 0.0
O184 O 0.33453 0.63573 0.34906 0.0
C185 C 0.34588 0.56888 0.4541 0.0
O186 O 0.40231 0.63251 0.4158 0.0
Co187 Co 0.37175 0.63097 0.51229 0.0
O188 O 0.42856 0.63261 0.48691 0.0
C189 C 0.31817 0.69022 0.47376 0.0
C190 C 0.29603 0.62618 0.35202 0.0
C191 C 0.43314 0.63355 0.4436 0.0
O192 O 0.32461 0.67744 0.43272 0.0
O193 O 0.33147 0.67363 0.50977 0.0
O194 O 0.35018 0.569 0.40964 0.0
O195 O 0.3361 0.60088 0.47233 0.0
Co196 Co 0.17197 0.62162 0.11055 0.0
O197 O 0.22617 0.61578 0.1391 0.0
O198 O 0.16992 0.63604 0.17474 0.0
C199 C 0.17254 0.56511 0.07317 0.0
O200 O 0.11043 0.62965 0.09757 0.0
Co201 Co 0.15298 0.62111 1.00618 0.0
O202 O 0.09488 0.61211 0.02577 0.0
C203 C 0.19204 0.68829 0.0492 0.0
C204 C 0.20871 0.62682 0.17718 0.0
C205 C 0.08392 0.6211 0.06638 0.0
O206 O 0.1858 0.67513 0.09008 0.0
O207 O 0.18383 0.66981 0.01251 0.0
O208 O 0.16264 0.56679 0.11646 0.0
O209 O 0.18347 0.59656 0.05482 0.0
Co210 Co 0.33741 0.37892 0.60647 0.0
O211 O 0.28268 0.38624 0.6336 0.0
O212 O 0.33694 0.36308 0.67014 0.0
C213 C 0.33961 0.43611 0.57118 0.0
O214 O 0.39928 0.369 0.59513 0.0
Co215 Co 0.36059 0.38097 0.50333 0.0
O216 O 0.41768 0.3898 0.52552 0.0
C217 C 0.31563 0.31498 0.54194 0.0
C218 C 0.2985 0.37354 0.67163 0.0
C219 C 0.42708 0.37908 0.56585 0.0
O220 O 0.32087 0.32676 0.58359 0.0
O221 O 0.32725 0.33353 0.50649 0.0
O222 O 0.34872 0.43315 0.61454 0.0
O223 O 0.32848 0.40534 0.55126 0.0
C224 C 0.21217 0.22167 0.03371 0.0
C225 C 0.25219 0.21175 0.01721 0.0
C226 C 0.24967 0.26516 0.96326 0.0
C227 C 0.20937 0.27441 0.9793 0.0
N228 N 0.14749 0.25389 0.01797 0.0
N229 N 0.30249 0.21677 0.95605 0.0
C230 C 0.18903 0.24989 0.01043 0.0
C231 C 0.2689 0.23121 0.9787 0.0
N232 N 0.19731 0.20649 0.07353 0.0
N233 N 0.27069 0.28955 0.93545 0.0
H234 H 0.31627 0.19117 0.96506 0.0
H235 H 0.31366 0.22793 0.92536 0.0
H236 H 0.25783 0.31445 0.9229 0.0
H237 H 0.30195 0.28629 0.92742 0.0
H238 H 0.17017 0.21576 0.08936 0.0
H239 H 0.21412 0.18761 0.09347 0.0
H240 H 0.13022 0.23478 0.03725 0.0
H241 H 0.12969 0.27399 1.0007 0.0
C242 C 0.29977 0.75999 0.4686 0.0
C243 C 0.28978 0.72271 0.48231 0.0
C244 C 0.23857 0.74749 0.53674 0.0
C245 C 0.246 0.78478 0.52098 0.0
N246 N 0.27681 0.82512 0.46336 0.0
N247 N 0.24063 0.681 0.51824 0.0
C248 C 0.27465 0.79073 0.48436 0.0
C249 C 0.25604 0.71659 0.51257 0.0
N250 N 0.33394 0.76628 0.44206 0.0
N251 N 0.21721 0.7414 0.57662 0.0
H252 H 0.2521 0.65777 0.50008 0.0
H253 H 0.21372 0.67546 0.53685 0.0
H254 H 0.2068 0.76316 0.59787 0.0
H255 H 0.21438 0.71479 0.59152 0.0
H256 H 0.34545 0.79317 0.43538 0.0
H257 H 0.35235 0.74443 0.42927 0.0
H258 H 0.29434 0.82995 0.43389 0.0
H259 H 0.25788 0.84782 0.47243 0.0
C260 C 0.20733 0.77957 0.98667 0.0
C261 C 0.24712 0.79103 1.00192 0.0
C262 C 0.24807 0.73804 0.05665 0.0
C263 C 0.20797 0.72729 0.04186 0.0
N264 N 0.14449 0.74539 1.0047 0.0
N265 N 0.2988 0.78819 0.06167 0.0
C266 C 0.18595 0.75085 0.01101 0.0
C267 C 0.26546 0.77245 0.04019 0.0
N268 N 0.1911 0.79374 0.94699 0.0
N269 N 0.27057 0.71466 0.08432 0.0
H270 H 0.3112 0.81415 0.05198 0.0
H271 H 0.31109 0.77766 0.09213 0.0
H272 H 0.2589 0.68958 0.0977 0.0
H273 H 0.30179 0.71897 0.0915 0.0
H274 H 0.16411 0.78339 0.93209 0.0
H275 H 0.20673 0.81282 0.92618 0.0
H276 H 0.12601 0.76372 0.98566 0.0
H277 H 0.12796 0.72488 0.02274 0.0
C278 C 0.25709 0.28443 0.50136 0.0
C279 C 0.29071 0.28059 0.53221 0.0
C280 C 0.28094 0.2118 0.53093 0.0
C281 C 0.25215 0.21578 0.49423 0.0
N282 N 0.22133 0.25669 0.43721 0.0
N283 N 0.338 0.23999 0.57293 0.0
C284 C 0.24242 0.25234 0.47752 0.0
C285 C 0.30353 0.24408 0.54634 0.0
N286 N 0.23883 0.31889 0.49507 0.0
N287 N 0.28559 0.17779 0.55235 0.0
H288 H 0.35487 0.26293 0.58521 0.0
H289 H 0.35144 0.21387 0.57998 0.0
H290 H 0.26871 0.15389 0.54328 0.0
H291 H 0.30316 0.17426 0.58199 0.0
H292 H 0.21187 0.32252 0.47594 0.0
H293 H 0.24789 0.34292 0.51319 0.0
H294 H 0.21687 0.2829 0.42171 0.0
H295 H 0.21287 0.23408 0.41631 0.0
C296 C 0.72653 0.7133 0.98465 0.0
C297 C 0.7558 0.71915 0.02055 0.0
C298 C 0.74607 0.78738 0.0125 0.0
C299 C 0.71187 0.78143 0.98301 0.0
N300 N 0.66684 0.7381 0.94369 0.0
N301 N 0.78521 0.76246 0.07591 0.0
C302 C 0.70142 0.74419 0.96949 0.0
C303 C 0.76357 0.75642 0.03629 0.0
N304 N 0.72374 0.67885 0.96378 0.0
N305 N 0.76187 0.82286 0.01786 0.0
H306 H 0.79547 0.74069 0.0971 0.0
H307 H 0.78834 0.7891 0.09076 0.0
H308 H 0.75038 0.84614 0.99995 0.0
H309 H 0.78907 0.82822 0.03591 0.0
H310 H 0.70572 0.67404 0.93475 0.0
H311 H 0.74255 0.65604 0.97255 0.0
H312 H 0.65504 0.71128 0.93718 0.0
H313 H 0.64846 0.76008 0.93133 0.0
C314 C 0.82508 0.26039 0.50515 0.0
C315 C 0.80417 0.23388 0.47711 0.0
C316 C 0.74271 0.27471 0.47913 0.0
C317 C 0.76056 0.29629 0.51527 0.0
N318 N 0.81859 0.30591 0.56645 0.0
N319 N 0.74081 0.21424 0.44037 0.0
C320 C 0.80201 0.28861 0.52884 0.0
C321 C 0.76249 0.24081 0.46428 0.0
N322 N 0.86712 0.2582 0.50951 0.0
N323 N 0.70745 0.28705 0.45804 0.0
H324 H 0.75389 0.189 0.42902 0.0
H325 H 0.709 0.21608 0.43485 0.0
H326 H 0.6933 0.3127 0.46619 0.0
H327 H 0.6952 0.27409 0.42896 0.0
H328 H 0.8846 0.27869 0.52625 0.0
H329 H 0.88473 0.23801 0.492 0.0
H330 H 0.84707 0.29829 0.58043 0.0
H331 H 0.80228 0.32501 0.5867 0.0
C332 C 0.71232 0.28345 0.98567 0.0
C333 C 0.7525 0.29373 1.00094 0.0
C334 C 0.75219 0.23992 0.05449 0.0
C335 C 0.71171 0.23032 0.03974 0.0
N336 N 0.64867 0.25027 1.00304 0.0
N337 N 0.80424 0.28884 0.06041 0.0
C338 C 0.69027 0.25472 0.00934 0.0
C339 C 0.77044 0.27417 0.0387 0.0
N340 N 0.69619 0.29892 0.94667 0.0
N341 N 0.77423 0.21562 0.08146 0.0
H342 H 0.81731 0.31467 0.05127 0.0
H343 H 0.8163 0.27761 0.09061 0.0
H344 H 0.76209 0.19049 0.09416 0.0
H345 H 0.80558 0.21916 0.08853 0.0
H346 H 0.66895 0.28941 0.93151 0.0
H347 H 0.71199 0.31848 0.92672 0.0
H348 H 0.63061 0.26927 0.98446 0.0
H349 H 0.63159 0.22989 0.02066 0.0
C350 C 0.75059 0.78954 0.50535 0.0
C351 C 0.78402 0.78588 0.53646 0.0
C352 C 0.77633 0.7169 0.53269 0.0
C353 C 0.74796 0.72099 0.49558 0.0
N354 N 0.71702 0.7626 0.43933 0.0
N355 N 0.83203 0.74554 0.5765 0.0
C356 C 0.73738 0.75771 0.48001 0.0
C357 C 0.79777 0.74937 0.54954 0.0
N358 N 0.73126 0.82362 0.50006 0.0
N359 N 0.78167 0.68256 0.55311 0.0
H360 H 0.84798 0.7686 0.58988 0.0
H361 H 0.84617 0.7196 0.58285 0.0
H362 H 0.76554 0.65849 0.54308 0.0
H363 H 0.79897 0.67882 0.58291 0.0
H364 H 0.70443 0.82699 0.48065 0.0
H365 H 0.73934 0.84741 0.51924 0.0
H366 H 0.71195 0.78909 0.42483 0.0
H367 H 0.70996 0.74037 0.41721 0.0
C368 C 0.35513 0.0192 0.01528 0.0
C369 C 0.31879 0.04134 0.02 0.0
C370 C 0.27667 0.98769 0.99409 0.0
C371 C 0.31283 0.96469 0.99286 0.0
N372 N 0.38537 0.95667 0.01035 0.0
N373 N 0.24442 0.04664 0.01769 0.0
C374 C 0.35172 0.97984 1.00602 0.0
C375 C 0.27939 0.02557 0.01033 0.0
N376 N 0.39302 0.03605 0.01815 0.0
N377 N 0.23956 0.97321 0.98001 0.0
H378 H 0.24519 0.07515 0.02663 0.0
H379 H 0.21458 0.03566 0.01718 0.0
H380 H 0.23512 0.9447 0.9726 0.0
H381 H 0.21335 0.98959 0.97393 0.0
H382 H 0.42075 0.02231 0.01054 0.0
H383 H 0.39639 0.06493 0.02354 0.0
H384 H 0.41312 0.96523 0.02516 0.0
H385 H 0.38497 0.92811 1.00185 0.0
C386 C 0.15162 0.9816 0.51227 0.0
C387 C 0.18829 0.96032 0.51933 0.0
C388 C 0.23016 0.01486 0.49576 0.0
C389 C 0.19354 0.03704 0.49275 0.0
N390 N 0.11994 0.04338 0.50524 0.0
N391 N 0.26279 0.95666 0.52107 0.0
C392 C 0.15442 0.02098 0.50323 0.0
C393 C 0.22769 0.97698 0.51193 0.0
N394 N 0.1141 0.96395 0.51295 0.0
N395 N 0.26737 0.03005 0.48307 0.0
H396 H 0.26234 0.92812 0.52984 0.0
H397 H 0.29231 0.96832 0.52213 0.0
H398 H 0.2711 0.05844 0.47465 0.0
H399 H 0.29432 0.01427 0.47875 0.0
H400 H 0.08647 0.97694 0.50346 0.0
H401 H 0.11116 0.9351 0.5186 0.0
H402 H 0.0915 0.03419 0.51782 0.0
H403 H 0.12027 0.07208 0.49765 0.0
C404 C 0.69702 0.99257 0.98663 0.0
C405 C 0.65984 0.97134 0.98572 0.0
C406 C 0.62946 0.01405 0.04377 0.0
C407 C 0.66768 0.03363 0.04703 0.0
N408 N 0.74036 0.03662 0.02839 0.0
N409 N 0.59198 0.95945 0.01658 0.0
C410 C 0.70211 0.0216 0.02015 0.0
C411 C 0.62655 0.98137 0.01535 0.0
N412 N 0.72749 0.98518 0.95519 0.0
N413 N 0.59522 0.02763 0.06596 0.0
H414 H 0.58727 0.93782 0.99325 0.0
H415 H 0.56908 0.96156 0.04169 0.0
H416 H 0.59612 0.05048 0.08827 0.0
H417 H 0.5653 0.01796 0.06001 0.0
H418 H 0.75328 1.00235 0.95055 0.0
H419 H 0.72545 0.96357 0.93096 0.0
H420 H 0.76752 0.02646 0.01349 0.0
H421 H 0.74571 0.0568 0.05381 0.0
C422 C 0.79891 0.02242 0.49812 0.0
C423 C 0.83812 0.03797 0.48696 0.0
C424 C 0.87138 0.99566 0.54312 0.0
C425 C 0.83278 0.9778 0.55124 0.0
N426 N 0.7596 0.97304 0.53601 0.0
N427 N 0.91219 0.03672 0.49457 0.0
C428 C 0.7965 0.99093 0.52856 0.0
C429 C 0.87445 0.02388 0.50844 0.0
N430 N 0.76381 0.03837 0.48035 0.0
N431 N 0.90515 0.98591 0.56869 0.0
H432 H 0.91511 0.05748 0.46982 0.0
H433 H 0.94032 0.02488 0.50441 0.0
H434 H 0.9045 0.96491 0.59353 0.0
H435 H 0.93301 1.00059 0.56817 0.0
H436 H 0.734 0.03168 0.49113 0.0
H437 H 0.76441 0.06009 0.45621 0.0
H438 H 0.73325 0.97737 0.51621 0.0
H439 H 0.75555 0.95259 0.56136 0.0
C440 C 0.85654 0.48405 1.00809 0.0
C441 C 0.81866 0.46494 1.00068 0.0
C442 C 0.7802 0.52253 0.02154 0.0
C443 C 0.81818 0.54253 0.02468 0.0
N444 N 0.89207 0.54404 0.01294 0.0
N445 N 0.7441 0.46586 0.99734 0.0
C446 C 0.85625 0.52379 0.01557 0.0
C447 C 0.78037 0.48418 1.00663 0.0
N448 N 0.89278 0.46413 1.00882 0.0
N449 N 0.7439 0.54022 0.03296 0.0
H450 H 0.74272 0.43708 0.98983 0.0
H451 H 0.71551 0.47931 0.99503 0.0
H452 H 0.74196 0.56899 0.04035 0.0
H453 H 0.71588 0.5262 0.03721 0.0
H454 H 0.92109 0.4757 0.01837 0.0
H455 H 0.89383 0.435 1.00436 0.0
H456 H 0.92019 0.53274 1.00195 0.0
H457 H 0.89286 0.57312 0.01746 0.0
C458 C 0.72777 0.48143 0.50363 0.0
C459 C 0.6891 0.46493 0.51498 0.0
C460 C 0.65358 0.52488 0.4992 0.0
C461 C 0.69226 0.54156 0.48793 0.0
N462 N 0.76675 0.53809 0.48528 0.0
N463 N 0.61477 0.46746 0.51362 0.0
C464 C 0.72953 0.52032 0.49125 0.0
C465 C 0.65185 0.4857 0.51002 0.0
N466 N 0.76258 0.45931 0.50314 0.0
N467 N 0.61865 0.54672 0.50086 0.0
H468 H 0.61279 0.43857 0.51973 0.0
H469 H 0.58632 0.47978 0.50609 0.0
H470 H 0.61817 0.5751 0.49164 0.0
H471 H 0.59051 0.53751 0.51416 0.0
H472 H 0.7913 0.46807 0.49106 0.0
H473 H 0.76219 0.43071 0.51161 0.0
H474 H 0.79537 0.52563 0.49149 0.0
H475 H 0.76931 0.56669 0.47733 0.0
C476 C 0.21034 0.51559 0.02756 0.0
C477 C 0.17228 0.5298 0.04517 0.0
C478 C 0.1341 0.48726 0.99372 0.0
C479 C 0.17198 0.47097 0.97874 0.0
N480 N 0.24636 0.46723 0.98364 0.0
N481 N 0.09821 0.52429 0.05157 0.0
C482 C 0.21017 0.48448 0.99639 0.0
C483 C 0.13423 0.51411 0.03024 0.0
N484 N 0.24674 0.53218 0.04035 0.0
N485 N 0.09803 0.47765 0.97239 0.0
H486 H 0.09743 0.54322 0.07887 0.0
H487 H 0.06986 0.51135 0.04542 0.0
H488 H 0.0971 0.45871 0.9451 0.0
H489 H 0.06984 0.49105 0.97854 0.0
H490 H 0.27505 0.52674 0.02451 0.0
H491 H 0.24849 0.55287 0.0658 0.0
H492 H 0.27468 0.47217 0.99949 0.0
H493 H 0.24789 0.44646 0.95825 0.0
C494 C 0.38096 0.52332 0.5087 0.0
C495 C 0.34574 0.53359 0.48223 0.0
C496 C 0.30533 0.48409 0.5207 0.0
C497 C 0.34133 0.47206 0.54464 0.0
N498 N 0.41452 0.47797 0.55869 0.0
N499 N 0.27595 0.52057 0.45814 0.0
C500 C 0.37938 0.4913 0.53824 0.0
C501 C 0.3084 0.51294 0.48678 0.0
N502 N 0.41604 0.54442 0.50574 0.0
N503 N 0.26771 0.46903 0.53203 0.0
H504 H 0.27677 0.54187 0.43348 0.0
H505 H 0.24953 0.50388 0.45607 0.0
H506 H 0.26407 0.44877 0.55768 0.0
H507 H 0.23965 0.4791 0.51945 0.0
H508 H 0.44083 0.54238 0.52837 0.0
H509 H 0.41954 0.56509 0.48098 0.0
H510 H 0.44422 0.48719 0.55063 0.0
H511 H 0.41436 0.456 0.58228 0.0
C512 C 0.511 0.14247 0.04694 0.0
C513 C 0.53933 0.12763 0.07957 0.0
C514 C 0.48045 0.1137 0.13047 0.0
C515 C 0.45248 0.12096 0.09402 0.0
N516 N 0.44253 0.1382 0.01431 0.0
N517 N 0.54951 0.09479 0.15191 0.0
C518 C 0.46802 0.13455 0.05142 0.0
C519 C 0.52376 0.11237 0.12147 0.0
N520 N 0.52488 0.16534 0.01247 0.0
N521 N 0.46576 0.10917 0.17416 0.0
H522 H 0.58136 0.09248 0.14762 0.0
H523 H 0.53862 0.07935 0.17985 0.0
H524 H 0.43441 0.11155 0.18242 0.0
H525 H 0.48499 0.1075 0.20277 0.0
H526 H 0.50504 0.17965 0.99028 0.0
H527 H 0.55573 0.17367 0.00962 0.0
H528 H 0.45355 0.14388 0.98138 0.0
H529 H 0.41104 0.13217 0.01516 0.0
C530 C 0.99095 0.86655 0.54789 0.0
C531 C 0.96359 0.88281 0.58067 0.0
C532 C 0.02334 0.89601 0.63019 0.0
C533 C 0.05071 0.88716 0.59344 0.0
N534 N 0.05925 0.86738 0.5142 0.0
N535 N 0.95486 0.91667 0.65245 0.0
C536 C 0.03426 0.87301 0.55152 0.0
C537 C 0.97998 0.89825 0.62192 0.0
N538 N 0.97571 0.84376 0.51403 0.0
N539 N 0.03858 0.90095 0.67353 0.0
H540 H 0.92297 0.91915 0.64855 0.0
H541 H 0.96626 0.93231 0.67997 0.0
H542 H 0.06988 0.89765 0.68142 0.0
H543 H 0.0197 0.90386 0.70238 0.0
H544 H 0.99463 0.82826 0.49188 0.0
H545 H 0.94443 0.83679 0.51163 0.0
H546 H 0.04771 0.86152 0.48158 0.0
H547 H 0.09107 0.87173 0.51438 0.0
C548 C 0.4677 0.91854 0.91915 0.0
C549 C 0.44077 0.88724 0.91185 0.0
C550 C 0.49928 0.84418 0.92676 0.0
C551 C 0.52617 0.87555 0.93043 0.0
N552 N 0.53783 0.94162 0.91508 0.0
N553 N 0.43468 0.82041 0.89609 0.0
C554 C 0.51101 0.91235 0.92149 0.0
C555 C 0.45762 0.84999 0.91205 0.0
N556 N 0.45237 0.95397 0.92716 0.0
N557 N 0.51342 0.80891 0.9374 0.0
H558 H 0.40526 0.82382 0.88201 0.0
H559 H 0.44663 0.79328 0.8919 0.0
H560 H 0.5442 0.8036 0.94615 0.0
H561 H 0.49406 0.78555 0.94026 0.0
H562 H 0.47095 0.97638 0.93771 0.0
H563 H 0.42102 0.96049 0.92886 0.0
H564 H 0.52828 0.96828 0.90418 0.0
H565 H 0.56985 0.93824 0.91546 0.0
C566 C 0.0328 0.08267 0.41459 0.0
C567 C 0.06121 0.11338 0.41402 0.0
C568 C 0.0037 0.15618 0.43411 0.0
C569 C 0.97549 0.12578 0.43047 0.0
N570 N 0.96262 0.06398 0.3985 0.0
N571 N 0.06939 0.18125 0.40844 0.0
C572 C 0.98977 0.09034 0.41442 0.0
C573 C 0.04549 0.15083 0.41956 0.0
N574 N 0.04611 0.04617 0.41863 0.0
N575 N 0.99064 0.19019 0.45091 0.0
H576 H 0.09858 0.17867 0.3934 0.0
H577 H 0.05816 0.20885 0.40861 0.0
H578 H 0.95979 0.19558 0.45951 0.0
H579 H 0.01093 0.21207 0.45881 0.0
H580 H 0.02569 0.02369 0.423 0.0
H581 H 0.07687 0.03859 0.42389 0.0
H582 H 0.97233 0.03872 0.38345 0.0
H583 H 0.93105 0.06937 0.39519 0.0
C584 C 0.01101 0.64031 0.04641 0.0
C585 C 0.03874 0.62269 0.07755 0.0
C586 C 0.97972 0.60852 0.12793 0.0
C587 C 0.95177 0.61877 0.09247 0.0
N588 N 0.94224 0.64094 0.01434 0.0
N589 N 0.04784 0.58522 0.14653 0.0
C590 C 0.9677 0.634 0.05078 0.0
C591 C 0.02275 0.60567 0.11813 0.0
N592 N 0.02582 0.66438 0.01365 0.0
N593 N 0.96544 0.60288 0.17159 0.0
H594 H 0.07942 0.58154 0.14115 0.0
H595 H 0.0364 0.56884 0.17339 0.0
H596 H 0.9345 0.6069 0.18081 0.0
H597 H 0.98501 0.59883 0.19956 0.0
H598 H 0.0066 0.68076 0.99295 0.0
H599 H 0.05706 0.67145 0.01092 0.0
H600 H 0.95341 0.64771 0.98178 0.0
H601 H 0.91039 0.63682 0.01496 0.0
C602 C 0.53037 0.39307 0.62885 0.0
C603 C 0.55869 0.38465 0.59288 0.0
C604 C 0.50059 0.36138 0.54659 0.0
C605 C 0.47199 0.37723 0.57837 0.0
N606 N 0.46086 0.41219 0.64904 0.0
N607 N 0.56931 0.36453 0.51413 0.0
C608 C 0.48709 0.39383 0.61962 0.0
C609 C 0.54353 0.36943 0.55093 0.0
N610 N 0.54472 0.39934 0.6723 0.0
N611 N 0.48688 0.33768 0.51286 0.0
H612 H 0.60079 0.37059 0.51476 0.0
H613 H 0.55858 0.35769 0.48144 0.0
H614 H 0.45593 0.32967 0.50997 0.0
H615 H 0.50679 0.32258 0.49139 0.0
H616 H 0.52528 0.40204 0.70072 0.0
H617 H 0.57603 0.39744 0.68075 0.0
H618 H 0.47128 0.42854 0.67643 0.0
H619 H 0.42904 0.41405 0.64425 0.0
C620 C 0.02234 0.39914 0.90192 0.0
C621 C 0.03735 0.38039 0.94182 0.0
C622 C 0.96563 0.37038 0.96743 0.0
C623 C 0.95066 0.38744 0.92643 0.0
N624 N 0.96553 0.40605 0.84849 0.0
N625 N 0.0224 0.33726 1.00373 0.0
C626 C 0.97929 0.3981 0.89176 0.0
C627 C 0.0087 0.36264 0.97187 0.0
N628 N 0.04842 0.41964 0.87469 0.0
N629 N 0.93949 0.36316 1.00329 0.0
H630 H 0.05342 0.32928 1.00644 0.0
H631 H 1.00248 0.32086 0.02356 0.0
H632 H 0.90785 0.3686 1.00254 0.0
H633 H 0.94997 0.3549 0.03557 0.0
H634 H 0.03787 0.43726 0.84856 0.0
H635 H 0.08006 0.42205 0.88043 0.0
H636 H 0.98543 0.41047 0.8208 0.0
H637 H 0.93449 0.40376 0.83908 0.0
C638 C 0.54491 0.65503 0.40933 0.0
C639 C 0.5612 0.61761 0.40687 0.0
C640 C 0.49042 0.59326 0.41266 0.0
C641 C 0.47575 0.62965 0.42483 0.0
N642 N 0.48959 0.69559 0.43734 0.0
N643 N 0.54815 0.55049 0.41681 0.0
C644 C 0.50321 0.66072 0.42405 0.0
C645 C 0.53363 0.58646 0.41102 0.0
N646 N 0.56842 0.68497 0.39555 0.0
N647 N 0.46328 0.56498 0.40255 0.0
H648 H 0.57935 0.54355 0.41934 0.0
H649 H 0.52883 0.52788 0.42477 0.0
H650 H 0.43137 0.56902 0.40194 0.0
H651 H 0.47274 0.53887 0.38962 0.0
H652 H 0.55689 0.71239 0.3932 0.0
H653 H 0.59784 0.68179 0.38121 0.0
H654 H 0.50938 0.71841 0.4423 0.0
H655 H 0.45876 0.70096 0.44605 0.0
C656 C 0.23096 0.15189 0.21743 0.0
C657 C 0.27483 0.15376 0.21562 0.0
C658 C 0.27752 0.1619 0.2993 0.0
C659 C 0.23421 0.15581 0.30127 0.0
N660 N 0.16847 0.1585 0.26366 0.0
N661 N 0.33873 0.1713 0.25157 0.0
C662 C 0.21056 0.15596 0.26051 0.0
C663 C 0.29766 0.16286 0.25564 0.0
N664 N 0.20923 0.14297 0.17874 0.0
N665 N 0.29942 0.16411 0.33925 0.0
H666 H 0.3536 0.172 0.21969 0.0
H667 H 0.35706 0.18046 0.27869 0.0
H668 H 0.28487 0.16494 0.37126 0.0
H669 H 0.3316 0.16431 0.3409 0.0
H670 H 0.17768 0.13705 0.17859 0.0
H671 H 0.22341 0.13942 0.14684 0.0
H672 H 0.14907 0.16147 0.2354 0.0
H673 H 0.15349 0.16121 0.29534 0.0
C674 C 0.21644 0.85024 0.8009 0.0
C675 C 0.26018 0.84739 0.80326 0.0
C676 C 0.26398 0.83929 0.71962 0.0
C677 C 0.22082 0.84652 0.71702 0.0
N678 N 0.15443 0.8456 0.75393 0.0
N679 N 0.32406 0.82802 0.76837 0.0
C680 C 0.19654 0.84701 0.75753 0.0
C681 C 0.28333 0.8376 0.76362 0.0
N682 N 0.19446 0.8591 0.83958 0.0
N683 N 0.2867 0.83684 0.68012 0.0
H684 H 0.33828 0.82694 0.80053 0.0
H685 H 0.34257 0.81823 0.7416 0.0
H686 H 0.27304 0.83669 0.64772 0.0
H687 H 0.31889 0.83593 0.67921 0.0
H688 H 0.16308 0.86584 0.83962 0.0
H689 H 0.20841 0.86141 0.87172 0.0
H690 H 0.13459 0.8432 0.78197 0.0
H691 H 0.13973 0.84332 0.72214 0.0
C692 C 0.74987 0.84571 0.79503 0.0
C693 C 0.731 0.87935 0.81143 0.0
C694 C 0.75471 0.91292 0.74222 0.0
C695 C 0.76996 0.8784 0.72362 0.0
N696 N 0.77732 0.81085 0.72973 0.0
N697 N 0.71097 0.94405 0.79871 0.0
C698 C 0.7665 0.8445 0.74951 0.0
C699 C 0.7322 0.91269 0.78446 0.0
N700 N 0.75229 0.81502 0.82331 0.0
N701 N 0.76345 0.94629 0.72077 0.0
H702 H 0.69587 0.94565 0.83035 0.0
H703 H 0.70605 0.96757 0.77801 0.0
H704 H 0.78027 0.94797 0.69028 0.0
H705 H 0.75733 0.97262 0.73522 0.0
H706 H 0.76929 0.79084 0.81551 0.0
H707 H 0.74007 0.81499 0.85652 0.0
H708 H 0.7717 0.78472 0.74477 0.0
H709 H 0.7887 0.80875 0.69628 0.0
C710 C 0.75916 0.16496 0.28929 0.0
C711 C 0.77247 0.13016 0.30847 0.0
C712 C 0.74361 0.09616 0.24205 0.0
C713 C 0.7332 0.13117 0.22114 0.0
N714 N 0.73517 0.1991 0.22192 0.0
N715 N 0.78217 0.06296 0.30109 0.0
C716 C 0.74189 0.16566 0.24413 0.0
C717 C 0.7659 0.09584 0.28432 0.0
N718 N 0.76249 0.1973 0.31467 0.0
N719 N 0.73072 0.06313 0.22244 0.0
H720 H 0.79719 0.06127 0.33268 0.0
H721 H 0.78323 0.03785 0.2825 0.0
H722 H 0.71475 0.06202 0.19141 0.0
H723 H 0.73292 0.03697 0.23851 0.0
H724 H 0.74947 0.22301 0.30515 0.0
H725 H 0.77578 0.19781 0.34727 0.0
H726 H 0.74468 0.22518 0.23448 0.0
H727 H 0.72289 0.20061 0.18887 0.0
C728 C 0.71475 0.66878 0.26036 0.0
C729 C 0.73801 0.66355 0.30096 0.0
C730 C 0.80233 0.66641 0.25629 0.0
C731 C 0.77882 0.66244 0.21556 0.0
N732 N 0.7132 0.66556 0.17689 0.0
N733 N 0.80335 0.66369 0.33987 0.0
C734 C 0.73512 0.66657 0.21692 0.0
C735 C 0.78178 0.66546 0.29966 0.0
N736 N 0.67305 0.67453 0.26393 0.0
N737 N 0.84432 0.66996 0.25293 0.0
H738 H 0.78853 0.66445 0.37176 0.0
H739 H 0.83537 0.661 0.34192 0.0
H740 H 0.85933 0.67084 0.22114 0.0
H741 H 0.86375 0.67484 0.28071 0.0
H742 H 0.65385 0.6806 0.23628 0.0
H743 H 0.65828 0.6761 0.29583 0.0
H744 H 0.68106 0.66436 0.17519 0.0
H745 H 0.72758 0.66527 0.1448 0.0
C746 C 0.77925 0.35736 0.71723 0.0
C747 C 0.73537 0.35828 0.71514 0.0
C748 C 0.7314 0.35647 0.79923 0.0
C749 C 0.77527 0.35762 0.80135 0.0
N750 N 0.84065 0.3475 0.76398 0.0
N751 N 0.67011 0.3471 0.75221 0.0
C752 C 0.79902 0.35366 0.76068 0.0
C753 C 0.71167 0.35345 0.75568 0.0
N754 N 0.80196 0.3632 0.67829 0.0
N755 N 0.70863 0.36143 0.83835 0.0
H756 H 0.65532 0.34501 0.72046 0.0
H757 H 0.65135 0.34039 0.78013 0.0
H758 H 0.72221 0.3641 0.87061 0.0
H759 H 0.67665 0.3652 0.8386 0.0
H760 H 0.83389 0.36711 0.67816 0.0
H761 H 0.78833 0.36649 0.64615 0.0
H762 H 0.85952 0.34143 0.73588 0.0
H763 H 0.85544 0.34494 0.79568 0.0
C764 C 0.27567 0.40677 0.74394 0.0
C765 C 0.27517 0.37389 0.71596 0.0
C766 C 0.23701 0.34004 0.77644 0.0
C767 C 0.23435 0.37388 0.80268 0.0
N768 N 0.24502 0.4412 0.80756 0.0
N769 N 0.25126 0.31058 0.70254 0.0
C770 C 0.25221 0.4077 0.7855 0.0
C771 C 0.25459 0.3409 0.73136 0.0
N772 N 0.29931 0.437 0.73127 0.0
N773 N 0.22433 0.30674 0.79545 0.0
H774 H 0.26442 0.31008 0.66978 0.0
H775 H 0.2329 0.28716 0.70953 0.0
H776 H 0.2122 0.30491 0.8286 0.0
H777 H 0.22919 0.2805 0.7802 0.0
H778 H 0.3051 0.4599 0.75274 0.0
H779 H 0.31582 0.43797 0.70049 0.0
H780 H 0.25307 0.46734 0.79395 0.0
H781 H 0.22769 0.44339 0.83768 0.0
C782 C 0.26844 0.59196 0.28274 0.0
C783 C 0.26981 0.62527 0.30989 0.0
C784 C 0.2343 0.66032 0.24843 0.0
C785 C 0.23085 0.62651 0.22231 0.0
N786 N 0.23759 0.55869 0.21853 0.0
N787 N 0.24879 0.68964 0.32229 0.0
C788 C 0.24608 0.59192 0.24051 0.0
C789 C 0.25104 0.65899 0.29381 0.0
N790 N 0.28947 0.56049 0.29677 0.0
N791 N 0.22336 0.694 0.22898 0.0
H792 H 0.26102 0.68955 0.35544 0.0
H793 H 0.23193 0.71393 0.31476 0.0
H794 H 0.21178 0.69614 0.19568 0.0
H795 H 0.22899 0.72011 0.24412 0.0
H796 H 0.29431 0.53695 0.27598 0.0
H797 H 0.30445 0.55877 0.3284 0.0
H798 H 0.24365 0.53226 0.2326 0.0
H799 H 0.22117 0.55724 0.18782 0.0
loop_
_geom_bond_atom_site_label_1
_geom_bond_atom_site_label_2
_geom_bond_distance
_geom_bond_site_symmetry_2
_ccdc_geom_bond_type
Co0 O1 2.216 . S
Co0 O2 2.091 . S
Co0 O4 2.004 . S
Co0 O10 2.021 . S
Co0 O12 2.137 . S
Co0 O13 2.244 . S
O1 Co0 2.216 . S
O1 C8 1.247 . S
O2 Co0 2.091 . S
O2 C8 1.261 . S
C3 O12 1.247 . S
C3 O13 1.272 . S
O4 Co0 2.004 . S
O4 C9 1.259 . S
Co5 O6 2.061 . S
Co5 O11 2.052 . S
Co5 O13 2.135 . S
O6 Co5 2.061 . S
O6 C9 1.235 . S
C7 O10 1.238 . S
C7 O11 1.241 . S
C8 O1 1.247 . S
C8 O2 1.261 . S
C9 O4 1.259 . S
C9 O6 1.235 . S
O10 Co0 2.021 . S
O10 C7 1.238 . S
O11 Co5 2.052 . S
O11 C7 1.241 . S
O12 Co0 2.137 . S
O12 C3 1.247 . S
O13 Co0 2.244 . S
O13 C3 1.272 . S
O13 Co5 2.135 . S
Co14 O15 2.216 . S
Co14 O16 2.091 . S
Co14 O18 2.004 . S
Co14 O24 2.021 . S
Co14 O26 2.137 . S
Co14 O27 2.244 . S
O15 Co14 2.216 . S
O15 C22 1.247 . S
O16 Co14 2.091 . S
O16 C22 1.261 . S
C17 O26 1.247 . S
C17 O27 1.272 . S
O18 Co14 2.004 . S
O18 C23 1.259 . S
Co19 O20 2.061 . S
Co19 O25 2.052 . S
Co19 O27 2.135 . S
O20 Co19 2.061 . S
O20 C23 1.235 . S
C21 O24 1.238 . S
C21 O25 1.241 . S
C22 O15 1.247 . S
C22 O16 1.261 . S
C23 O18 1.259 . S
C23 O20 1.235 . S
O24 Co14 2.021 . S
O24 C21 1.238 . S
O25 Co19 2.052 . S
O25 C21 1.241 . S
O26 Co14 2.137 . S
O26 C17 1.247 . S
O27 Co14 2.244 . S
O27 C17 1.272 . S
O27 Co19 2.135 . S
Co28 O29 2.216 . S
Co28 O30 2.091 . S
Co28 O32 2.004 . S
Co28 O38 2.021 . S
Co28 O40 2.137 . S
Co28 O41 2.244 . S
O29 Co28 2.216 . S
O29 C36 1.247 . S
O30 Co28 2.091 . S
O30 C36 1.261 . S
C31 O40 1.247 . S
C31 O41 1.272 . S
O32 Co28 2.004 . S
O32 C37 1.259 . S
Co33 O34 2.061 . S
Co33 O39 2.052 . S
Co33 O41 2.135 . S
O34 Co33 2.061 . S
O34 C37 1.235 . S
C35 O38 1.238 . S
C35 O39 1.241 . S
C36 O29 1.247 . S
C36 O30 1.261 . S
C37 O32 1.259 . S
C37 O34 1.235 . S
O38 Co28 2.021 . S
O38 C35 1.238 . S
O39 Co33 2.052 . S
O39 C35 1.241 . S
O40 Co28 2.137 . S
O40 C31 1.247 . S
O41 Co28 2.244 . S
O41 C31 1.272 . S
O41 Co33 2.135 . S
Co42 O43 2.216 . S
Co42 O44 2.091 . S
Co42 O46 2.004 . S
Co42 O52 2.021 . S
Co42 O54 2.137 . S
Co42 O55 2.244 . S
O43 Co42 2.216 . S
O43 C50 1.247 . S
O44 Co42 2.091 . S
O44 C50 1.261 . S
C45 O54 1.247 . S
C45 O55 1.272 . S
O46 Co42 2.004 . S
O46 C51 1.259 . S
Co47 O48 2.061 . S
Co47 O53 2.052 . S
Co47 O55 2.135 . S
O48 Co47 2.061 . S
O48 C51 1.235 . S
C49 O52 1.238 . S
C49 O53 1.241 . S
C50 O43 1.247 . S
C50 O44 1.261 . S
C51 O46 1.259 . S
C51 O48 1.235 . S
O52 Co42 2.021 . S
O52 C49 1.238 . S
O53 Co47 2.052 . S
O53 C49 1.241 . S
O54 Co42 2.137 . S
O54 C45 1.247 . S
O55 Co42 2.244 . S
O55 C45 1.272 . S
O55 Co47 2.135 . S
Co56 O57 2.216 . S
Co56 O58 2.091 . S
Co56 O60 2.004 . S
Co56 O66 2.021 . S
Co56 O68 2.137 . S
Co56 O69 2.244 . S
O57 Co56 2.216 . S
O57 C64 1.247 . S
O58 Co56 2.091 . S
O58 C64 1.261 . S
C59 O68 1.247 . S
C59 O69 1.272 . S
O60 Co56 2.004 . S
O60 C65 1.259 . S
Co61 O62 2.061 1_554 S
Co61 O67 2.052 1_554 S
Co61 O69 2.135 1_554 S
O62 Co61 2.061 1_556 S
O62 C65 1.235 . S
C63 O66 1.238 . S
C63 O67 1.241 . S
C64 O57 1.247 . S
C64 O58 1.261 . S
C65 O60 1.259 . S
C65 O62 1.235 . S
O66 Co56 2.021 . S
O66 C63 1.238 . S
O67 Co61 2.052 1_556 S
O67 C63 1.241 . S
O68 Co56 2.137 . S
O68 C59 1.247 . S
O69 Co56 2.244 . S
O69 C59 1.272 . S
O69 Co61 2.135 1_556 S
Co70 O71 2.216 . S
Co70 O72 2.091 . S
Co70 O74 2.004 . S
Co70 O80 2.021 . S
Co70 O82 2.137 . S
Co70 O83 2.244 . S
O71 Co70 2.216 . S
O71 C78 1.247 . S
O72 Co70 2.091 . S
O72 C78 1.261 . S
C73 O82 1.247 . S
C73 O83 1.272 . S
O74 Co70 2.004 . S
O74 C79 1.259 . S
Co75 O76 2.061 . S
Co75 O81 2.052 . S
Co75 O83 2.135 . S
O76 Co75 2.061 . S
O76 C79 1.235 . S
C77 O80 1.238 . S
C77 O81 1.241 . S
C78 O71 1.247 . S
C78 O72 1.261 . S
C79 O74 1.259 . S
C79 O76 1.235 . S
O80 Co70 2.021 . S
O80 C77 1.238 . S
O81 Co75 2.052 . S
O81 C77 1.241 . S
O82 Co70 2.137 . S
O82 C73 1.247 . S
O83 Co70 2.244 . S
O83 C73 1.272 . S
O83 Co75 2.135 . S
Co84 O85 2.216 . S
Co84 O86 2.091 . S
Co84 O88 2.004 . S
Co84 O94 2.021 . S
Co84 O96 2.137 . S
Co84 O97 2.244 . S
O85 Co84 2.216 . S
O85 C92 1.247 . S
O86 Co84 2.091 . S
O86 C92 1.261 . S
C87 O96 1.247 . S
C87 O97 1.272 . S
O88 Co84 2.004 . S
O88 C93 1.259 . S
Co89 O90 2.061 1_556 S
Co89 O95 2.052 1_556 S
Co89 O97 2.135 1_556 S
O90 Co89 2.061 1_554 S
O90 C93 1.235 . S
C91 O94 1.238 . S
C91 O95 1.241 . S
C92 O85 1.247 . S
C92 O86 1.261 . S
C93 O88 1.259 . S
C93 O90 1.235 . S
O94 Co84 2.021 . S
O94 C91 1.238 . S
O95 Co89 2.052 1_554 S
O95 C91 1.241 . S
O96 Co84 2.137 . S
O96 C87 1.247 . S
O97 Co84 2.244 . S
O97 C87 1.272 . S
O97 Co89 2.135 1_554 S
Co98 O99 2.216 . S
Co98 O100 2.091 . S
Co98 O102 2.004 . S
Co98 O108 2.021 . S
Co98 O110 2.137 . S
Co98 O111 2.244 . S
O99 Co98 2.216 . S
O99 C106 1.247 . S
O100 Co98 2.091 . S
O100 C106 1.261 . S
C101 O110 1.247 . S
C101 O111 1.272 . S
O102 Co98 2.004 . S
O102 C107 1.259 . S
Co103 O104 2.061 . S
Co103 O109 2.052 . S
Co103 O111 2.135 . S
O104 Co103 2.061 . S
O104 C107 1.235 . S
C105 O108 1.238 . S
C105 O109 1.241 . S
C106 O99 1.247 . S
C106 O100 1.261 . S
C107 O102 1.259 . S
C107 O104 1.235 . S
O108 Co98 2.021 . S
O108 C105 1.238 . S
O109 Co103 2.052 . S
O109 C105 1.241 . S
O110 Co98 2.137 . S
O110 C101 1.247 . S
O111 Co98 2.244 . S
O111 C101 1.272 . S
O111 Co103 2.135 . S
Co112 O113 2.216 . S
Co112 O114 2.091 . S
Co112 O116 2.004 . S
Co112 O122 2.021 . S
Co112 O124 2.137 . S
Co112 O125 2.244 . S
O113 Co112 2.216 . S
O113 C120 1.247 . S
O114 Co112 2.091 . S
O114 C120 1.261 . S
C115 O124 1.247 . S
C115 O125 1.272 . S
O116 Co112 2.004 . S
O116 C121 1.259 . S
Co117 O118 2.061 . S
Co117 O123 2.052 . S
Co117 O125 2.135 . S
O118 Co117 2.061 . S
O118 C121 1.235 . S
C119 O122 1.238 . S
C119 O123 1.241 . S
C120 O113 1.247 . S
C120 O114 1.261 . S
C121 O116 1.259 . S
C121 O118 1.235 . S
O122 Co112 2.021 . S
O122 C119 1.238 . S
O123 Co117 2.052 . S
O123 C119 1.241 . S
O124 Co112 2.137 . S
O124 C115 1.247 . S
O125 Co112 2.244 . S
O125 C115 1.272 . S
O125 Co117 2.135 . S
Co126 O127 2.216 . S
Co126 O128 2.091 . S
Co126 O130 2.004 . S
Co126 O136 2.021 . S
Co126 O138 2.137 . S
Co126 O139 2.244 . S
O127 Co126 2.216 . S
O127 C134 1.247 . S
O128 Co126 2.091 . S
O128 C134 1.261 . S
C129 O138 1.247 . S
C129 O139 1.272 . S
O130 Co126 2.004 . S
O130 C135 1.259 . S
Co131 O132 2.061 . S
Co131 O137 2.052 . S
Co131 O139 2.135 . S
O132 Co131 2.061 . S
O132 C135 1.235 . S
C133 O136 1.238 . S
C133 O137 1.241 . S
C134 O127 1.247 . S
C134 O128 1.261 . S
C135 O130 1.259 . S
C135 O132 1.235 . S
O136 Co126 2.021 . S
O136 C133 1.238 . S
O137 Co131 2.052 . S
O137 C133 1.241 . S
O138 Co126 2.137 . S
O138 C129 1.247 . S
O139 Co126 2.244 . S
O139 C129 1.272 . S
O139 Co131 2.135 . S
Co140 O141 2.216 . S
Co140 O142 2.091 . S
Co140 O144 2.004 . S
Co140 O150 2.021 . S
Co140 O152 2.137 . S
Co140 O153 2.244 . S
O141 Co140 2.216 . S
O141 C148 1.247 . S
O142 Co140 2.091 . S
O142 C148 1.261 . S
C143 O152 1.247 . S
C143 O153 1.272 . S
O144 Co140 2.004 . S
O144 C149 1.259 . S
Co145 O146 2.061 . S
Co145 O151 2.052 . S
Co145 O153 2.135 . S
O146 Co145 2.061 . S
O146 C149 1.235 . S
C147 O150 1.238 . S
C147 O151 1.241 . S
C148 O141 1.247 . S
C148 O142 1.261 . S
C149 O144 1.259 . S
C149 O146 1.235 . S
O150 Co140 2.021 . S
O150 C147 1.238 . S
O151 Co145 2.052 . S
O151 C147 1.241 . S
O152 Co140 2.137 . S
O152 C143 1.247 . S
O153 Co140 2.244 . S
O153 C143 1.272 . S
O153 Co145 2.135 . S
Co154 O155 2.216 . S
Co154 O156 2.091 . S
Co154 O158 2.004 . S
Co154 O164 2.021 . S
Co154 O166 2.137 . S
Co154 O167 2.244 . S
O155 Co154 2.216 . S
O155 C162 1.247 . S
O156 Co154 2.091 . S
O156 C162 1.261 . S
C157 O166 1.247 . S
C157 O167 1.272 . S
O158 Co154 2.004 . S
O158 C163 1.259 . S
Co159 O160 2.061 . S
Co159 O165 2.052 . S
Co159 O167 2.135 . S
O160 Co159 2.061 . S
O160 C163 1.235 . S
C161 O164 1.238 . S
C161 O165 1.241 . S
C162 O155 1.247 . S
C162 O156 1.261 . S
C163 O158 1.259 . S
C163 O160 1.235 . S
O164 Co154 2.021 . S
O164 C161 1.238 . S
O165 Co159 2.052 . S
O165 C161 1.241 . S
O166 Co154 2.137 . S
O166 C157 1.247 . S
O167 Co154 2.244 . S
O167 C157 1.272 . S
O167 Co159 2.135 . S
Co168 O169 2.216 . S
Co168 O170 2.091 . S
Co168 O172 2.004 . S
Co168 O178 2.021 . S
Co168 O180 2.137 . S
Co168 O181 2.244 . S
O169 Co168 2.216 . S
O169 C176 1.247 . S
O170 Co168 2.091 . S
O170 C176 1.261 . S
C171 O180 1.247 . S
C171 O181 1.272 . S
O172 Co168 2.004 . S
O172 C177 1.259 . S
Co173 O174 2.061 1_554 S
Co173 O179 2.052 1_554 S
Co173 O181 2.135 1_554 S
O174 Co173 2.061 1_556 S
O174 C177 1.235 . S
C175 O178 1.238 . S
C175 O179 1.241 . S
C176 O169 1.247 . S
C176 O170 1.261 . S
C177 O172 1.259 . S
C177 O174 1.235 . S
O178 Co168 2.021 . S
O178 C175 1.238 . S
O179 Co173 2.052 1_556 S
O179 C175 1.241 . S
O180 Co168 2.137 . S
O180 C171 1.247 . S
O181 Co168 2.244 . S
O181 C171 1.272 . S
O181 Co173 2.135 1_556 S
Co182 O183 2.216 . S
Co182 O184 2.091 . S
Co182 O186 2.004 . S
Co182 O192 2.021 . S
Co182 O194 2.137 . S
Co182 O195 2.244 . S
O183 Co182 2.216 . S
O183 C190 1.247 . S
O184 Co182 2.091 . S
O184 C190 1.261 . S
C185 O194 1.247 . S
C185 O195 1.272 . S
O186 Co182 2.004 . S
O186 C191 1.259 . S
Co187 O188 2.061 . S
Co187 O193 2.052 . S
Co187 O195 2.135 . S
O188 Co187 2.061 . S
O188 C191 1.235 . S
C189 O192 1.238 . S
C189 O193 1.241 . S
C190 O183 1.247 . S
C190 O184 1.261 . S
C191 O186 1.259 . S
C191 O188 1.235 . S
O192 Co182 2.021 . S
O192 C189 1.238 . S
O193 Co187 2.052 . S
O193 C189 1.241 . S
O194 Co182 2.137 . S
O194 C185 1.247 . S
O195 Co182 2.244 . S
O195 C185 1.272 . S
O195 Co187 2.135 . S
Co196 O197 2.216 . S
Co196 O198 2.091 . S
Co196 O200 2.004 . S
Co196 O206 2.021 . S
Co196 O208 2.137 . S
Co196 O209 2.244 . S
O197 Co196 2.216 . S
O197 C204 1.247 . S
O198 Co196 2.091 . S
O198 C204 1.261 . S
C199 O208 1.247 . S
C199 O209 1.272 . S
O200 Co196 2.004 . S
O200 C205 1.259 . S
Co201 O202 2.061 1_556 S
Co201 O207 2.052 1_556 S
Co201 O209 2.135 1_556 S
O202 Co201 2.061 1_554 S
O202 C205 1.235 . S
C203 O206 1.238 . S
C203 O207 1.241 . S
C204 O197 1.247 . S
C204 O198 1.261 . S
C205 O200 1.259 . S
C205 O202 1.235 . S
O206 Co196 2.021 . S
O206 C203 1.238 . S
O207 Co201 2.052 1_554 S
O207 C203 1.241 . S
O208 Co196 2.137 . S
O208 C199 1.247 . S
O209 Co196 2.244 . S
O209 C199 1.272 . S
O209 Co201 2.135 1_554 S
Co210 O211 2.216 . S
Co210 O212 2.091 . S
Co210 O214 2.004 . S
Co210 O220 2.021 . S
Co210 O222 2.137 . S
Co210 O223 2.244 . S
O211 Co210 2.216 . S
O211 C218 1.247 . S
O212 Co210 2.091 . S
O212 C218 1.261 . S
C213 O222 1.247 . S
C213 O223 1.272 . S
O214 Co210 2.004 . S
O214 C219 1.259 . S
Co215 O216 2.061 . S
Co215 O221 2.052 . S
Co215 O223 2.135 . S
O216 Co215 2.061 . S
O216 C219 1.235 . S
C217 O220 1.238 . S
C217 O221 1.241 . S
C218 O211 1.247 . S
C218 O212 1.261 . S
C219 O214 1.259 . S
C219 O216 1.235 . S
O220 Co210 2.021 . S
O220 C217 1.238 . S
O221 Co215 2.052 . S
O221 C217 1.241 . S
O222 Co210 2.137 . S
O222 C213 1.247 . S
O223 Co210 2.244 . S
O223 C213 1.272 . S
O223 Co215 2.135 . S
C224 C225 1.363 . S
C224 C230 1.379 . S
C224 N232 1.356 . S
C225 C224 1.363 . S
C225 C231 1.363 1_554 S
C226 C227 1.363 . S
C226 C231 1.379 . S
C226 N233 1.356 . S
C227 C226 1.363 . S
C227 C230 1.363 1_556 S
N228 C230 1.356 . S
N228 H240 0.984 . S
N228 H241 0.985 1_554 S
N229 C231 1.356 . S
N229 H234 0.984 . S
N229 H235 0.985 . S
C230 C224 1.379 . S
C230 C227 1.363 1_554 S
C230 N228 1.356 . S
C231 C225 1.363 1_556 S
C231 C226 1.379 . S
C231 N229 1.356 . S
N232 C224 1.356 . S
N232 H238 0.984 . S
N232 H239 0.984 . S
N233 C226 1.356 . S
N233 H236 0.984 . S
N233 H237 0.985 . S
H234 N229 0.984 . S
H235 N229 0.985 . S
H236 N233 0.984 . S
H237 N233 0.985 . S
H238 N232 0.984 . S
H239 N232 0.984 . S
H240 N228 0.984 . S
H241 N228 0.985 1_556 S
C242 C243 1.363 . S
C242 C248 1.379 . S
C242 N250 1.356 . S
C243 C242 1.363 . S
C243 C249 1.363 . S
C244 C245 1.363 . S
C244 C249 1.379 . S
C244 N251 1.356 . S
C245 C244 1.363 . S
C245 C248 1.363 . S
N246 C248 1.356 . S
N246 H258 0.984 . S
N246 H259 0.985 . S
N247 C249 1.356 . S
N247 H252 0.984 . S
N247 H253 0.985 . S
C248 C242 1.379 . S
C248 C245 1.363 . S
C248 N246 1.356 . S
C249 C243 1.363 . S
C249 C244 1.379 . S
C249 N247 1.356 . S
N250 C242 1.356 . S
N250 H256 0.984 . S
N250 H257 0.984 . S
N251 C244 1.356 . S
N251 H254 0.984 . S
N251 H255 0.985 . S
H252 N247 0.984 . S
H253 N247 0.985 . S
H254 N251 0.984 . S
H255 N251 0.985 . S
H256 N250 0.984 . S
H257 N250 0.984 . S
H258 N246 0.984 . S
H259 N246 0.985 . S
C260 C261 1.363 . S
C260 C266 1.379 . S
C260 N268 1.356 . S
C261 C260 1.363 . S
C261 C267 1.363 1_556 S
C262 C263 1.363 . S
C262 C267 1.379 . S
C262 N269 1.356 . S
C263 C262 1.363 . S
C263 C266 1.363 1_554 S
N264 C266 1.356 . S
N264 H276 0.984 . S
N264 H277 0.985 1_556 S
N265 C267 1.356 . S
N265 H270 0.984 . S
N265 H271 0.985 . S
C266 C260 1.379 . S
C266 C263 1.363 1_556 S
C266 N264 1.356 . S
C267 C261 1.363 1_554 S
C267 C262 1.379 . S
C267 N265 1.356 . S
N268 C260 1.356 . S
N268 H274 0.984 . S
N268 H275 0.984 . S
N269 C262 1.356 . S
N269 H272 0.984 . S
N269 H273 0.985 . S
H270 N265 0.984 . S
H271 N265 0.985 . S
H272 N269 0.984 . S
H273 N269 0.985 . S
H274 N268 0.984 . S
H275 N268 0.984 . S
H276 N264 0.984 . S
H277 N264 0.985 1_554 S
C278 C279 1.363 . S
C278 C284 1.379 . S
C278 N286 1.356 . S
C279 C278 1.363 . S
C279 C285 1.363 . S
C280 C281 1.363 . S
C280 C285 1.379 . S
C280 N287 1.356 . S
C281 C280 1.363 . S
C281 C284 1.363 . S
N282 C284 1.356 . S
N282 H294 0.984 . S
N282 H295 0.985 . S
N283 C285 1.356 . S
N283 H288 0.984 . S
N283 H289 0.985 . S
C284 C278 1.379 . S
C284 C281 1.363 . S
C284 N282 1.356 . S
C285 C279 1.363 . S
C285 C280 1.379 . S
C285 N283 1.356 . S
N286 C278 1.356 . S
N286 H292 0.984 . S
N286 H293 0.984 . S
N287 C280 1.356 . S
N287 H290 0.984 . S
N287 H291 0.985 . S
H288 N283 0.984 . S
H289 N283 0.985 . S
H290 N287 0.984 . S
H291 N287 0.985 . S
H292 N286 0.984 . S
H293 N286 0.984 . S
H294 N282 0.984 . S
H295 N282 0.985 . S
C296 C297 1.363 1_556 S
C296 C302 1.379 . S
C296 N304 1.356 1_556 S
C297 C296 1.363 1_554 S
C297 C303 1.363 . S
C298 C299 1.363 . S
C298 C303 1.379 1_556 S
C298 N305 1.356 . S
C299 C298 1.363 . S
C299 C302 1.363 . S
N300 C302 1.356 . S
N300 H312 0.984 . S
N300 H313 0.985 . S
N301 C303 1.356 . S
N301 H306 0.984 . S
N301 H307 0.985 . S
C302 C296 1.379 . S
C302 C299 1.363 . S
C302 N300 1.356 . S
C303 C297 1.363 . S
C303 C298 1.379 1_554 S
C303 N301 1.356 . S
N304 C296 1.356 1_554 S
N304 H310 0.984 1_554 S
N304 H311 0.984 . S
N305 C298 1.356 . S
N305 H308 0.984 . S
N305 H309 0.985 . S
H306 N301 0.984 . S
H307 N301 0.985 . S
H308 N305 0.984 . S
H309 N305 0.985 . S
H310 N304 0.984 1_556 S
H311 N304 0.984 . S
H312 N300 0.984 . S
H313 N300 0.985 . S
C314 C315 1.363 . S
C314 C320 1.379 . S
C314 N322 1.356 . S
C315 C314 1.363 . S
C315 C321 1.363 . S
C316 C317 1.363 . S
C316 C321 1.379 . S
C316 N323 1.356 . S
C317 C316 1.363 . S
C317 C320 1.363 . S
N318 C320 1.356 . S
N318 H330 0.984 . S
N318 H331 0.985 . S
N319 C321 1.356 . S
N319 H324 0.984 . S
N319 H325 0.985 . S
C320 C314 1.379 . S
C320 C317 1.363 . S
C320 N318 1.356 . S
C321 C315 1.363 . S
C321 C316 1.379 . S
C321 N319 1.356 . S
N322 C314 1.356 . S
N322 H328 0.984 . S
N322 H329 0.984 . S
N323 C316 1.356 . S
N323 H326 0.984 . S
N323 H327 0.985 . S
H324 N319 0.984 . S
H325 N319 0.985 . S
H326 N323 0.984 . S
H327 N323 0.985 . S
H328 N322 0.984 . S
H329 N322 0.984 . S
H330 N318 0.984 . S
H331 N318 0.985 . S
C332 C333 1.363 . S
C332 C338 1.379 1_556 S
C332 N340 1.356 . S
C333 C332 1.363 . S
C333 C339 1.363 1_556 S
C334 C335 1.363 . S
C334 C339 1.379 . S
C334 N341 1.356 . S
C335 C334 1.363 . S
C335 C338 1.363 . S
N336 C338 1.356 . S
N336 H348 0.984 1_554 S
N336 H349 0.985 . S
N337 C339 1.356 . S
N337 H342 0.984 1_554 S
N337 H343 0.985 . S
C338 C332 1.379 1_554 S
C338 C335 1.363 . S
C338 N336 1.356 . S
C339 C333 1.363 1_554 S
C339 C334 1.379 . S
C339 N337 1.356 . S
N340 C332 1.356 . S
N340 H346 0.984 . S
N340 H347 0.984 . S
N341 C334 1.356 . S
N341 H344 0.984 . S
N341 H345 0.985 . S
H342 N337 0.984 1_556 S
H343 N337 0.985 . S
H344 N341 0.984 . S
H345 N341 0.985 . S
H346 N340 0.984 . S
H347 N340 0.984 . S
H348 N336 0.984 1_556 S
H349 N336 0.985 . S
C350 C351 1.363 . S
C350 C356 1.379 . S
C350 N358 1.356 . S
C351 C350 1.363 . S
C351 C357 1.363 . S
C352 C353 1.363 . S
C352 C357 1.379 . S
C352 N359 1.356 . S
C353 C352 1.363 . S
C353 C356 1.363 . S
N354 C356 1.356 . S
N354 H366 0.984 . S
N354 H367 0.985 . S
N355 C357 1.356 . S
N355 H360 0.984 . S
N355 H361 0.985 . S
C356 C350 1.379 . S
C356 C353 1.363 . S
C356 N354 1.356 . S
C357 C351 1.363 . S
C357 C352 1.379 . S
C357 N355 1.356 . S
N358 C350 1.356 . S
N358 H364 0.984 . S
N358 H365 0.984 . S
N359 C352 1.356 . S
N359 H362 0.984 . S
N359 H363 0.985 . S
H360 N355 0.984 . S
H361 N355 0.985 . S
H362 N359 0.984 . S
H363 N359 0.985 . S
H364 N358 0.984 . S
H365 N358 0.984 . S
H366 N354 0.984 . S
H367 N354 0.985 . S
C368 C369 1.363 . S
C368 C374 1.379 1_545 S
C368 N376 1.356 . S
C369 C368 1.363 . S
C369 C375 1.363 1_554 S
C370 C371 1.363 . S
C370 C375 1.379 1_565 S
C370 N377 1.356 . S
C371 C370 1.363 . S
C371 C374 1.363 1_556 S
N372 C374 1.356 . S
N372 H384 0.984 . S
N372 H385 0.985 . S
N373 C375 1.356 . S
N373 H378 0.984 . S
N373 H379 0.985 . S
C374 C368 1.379 1_565 S
C374 C371 1.363 1_554 S
C374 N372 1.356 . S
C375 C369 1.363 1_556 S
C375 C370 1.379 1_545 S
C375 N373 1.356 . S
N376 C368 1.356 . S
N376 H382 0.984 . S
N376 H383 0.984 . S
N377 C370 1.356 . S
N377 H380 0.984 . S
N377 H381 0.985 . S
H378 N373 0.984 . S
H379 N373 0.985 . S
H380 N377 0.984 . S
H381 N377 0.985 . S
H382 N376 0.984 . S
H383 N376 0.984 . S
H384 N372 0.984 . S
H385 N372 0.985 . S
C386 C387 1.363 . S
C386 C392 1.379 1_565 S
C386 N394 1.356 . S
C387 C386 1.363 . S
C387 C393 1.363 . S
C388 C389 1.363 . S
C388 C393 1.379 1_545 S
C388 N395 1.356 . S
C389 C388 1.363 . S
C389 C392 1.363 . S
N390 C392 1.356 . S
N390 H402 0.984 . S
N390 H403 0.985 . S
N391 C393 1.356 . S
N391 H396 0.984 . S
N391 H397 0.985 . S
C392 C386 1.379 1_545 S
C392 C389 1.363 . S
C392 N390 1.356 . S
C393 C387 1.363 . S
C393 C388 1.379 1_565 S
C393 N391 1.356 . S
N394 C386 1.356 . S
N394 H400 0.984 . S
N394 H401 0.984 . S
N395 C388 1.356 . S
N395 H398 0.984 . S
N395 H399 0.985 . S
H396 N391 0.984 . S
H397 N391 0.985 . S
H398 N395 0.984 . S
H399 N395 0.985 . S
H400 N394 0.984 . S
H401 N394 0.984 . S
H402 N390 0.984 . S
H403 N390 0.985 . S
C404 C405 1.363 1_545 S
C404 C410 1.379 . S
C404 N412 1.356 1_545 S
C405 C404 1.363 1_565 S
C405 C411 1.363 1_556 S
C406 C407 1.363 1_565 S
C406 C411 1.379 . S
C406 N413 1.356 1_565 S
C407 C406 1.363 1_545 S
C407 C410 1.363 1_554 S
N408 C410 1.356 . S
N408 H420 0.984 . S
N408 H421 0.985 1_556 S
N409 C411 1.356 . S
N409 H414 0.984 1_554 S
N409 H415 0.985 . S
C410 C404 1.379 . S
C410 C407 1.363 1_556 S
C410 N408 1.356 . S
C411 C405 1.363 1_554 S
C411 C406 1.379 . S
C411 N409 1.356 . S
N412 C404 1.356 1_565 S
N412 H418 0.984 1_565 S
N412 H419 0.984 . S
N413 C406 1.356 1_545 S
N413 H416 0.984 . S
N413 H417 0.985 1_545 S
H414 N409 0.984 1_556 S
H415 N409 0.985 . S
H416 N413 0.984 . S
H417 N413 0.985 1_565 S
H418 N412 0.984 1_545 S
H419 N412 0.984 . S
H420 N408 0.984 . S
H421 N408 0.985 1_554 S
C422 C423 1.363 1_565 S
C422 C428 1.379 . S
C422 N430 1.356 . S
C423 C422 1.363 1_545 S
C423 C429 1.363 . S
C424 C425 1.363 1_545 S
C424 C429 1.379 . S
C424 N431 1.356 . S
C425 C424 1.363 1_565 S
C425 C428 1.363 . S
N426 C428 1.356 . S
N426 H438 0.984 . S
N426 H439 0.985 . S
N427 C429 1.356 . S
N427 H432 0.984 . S
N427 H433 0.985 . S
C428 C422 1.379 . S
C428 C425 1.363 . S
C428 N426 1.356 . S
C429 C423 1.363 . S
C429 C424 1.379 . S
C429 N427 1.356 . S
N430 C422 1.356 . S
N430 H436 0.984 . S
N430 H437 0.984 1_565 S
N431 C424 1.356 . S
N431 H434 0.984 1_545 S
N431 H435 0.985 . S
H432 N427 0.984 . S
H433 N427 0.985 . S
H434 N431 0.984 1_565 S
H435 N431 0.985 . S
H436 N430 0.984 . S
H437 N430 0.984 1_545 S
H438 N426 0.984 . S
H439 N426 0.985 . S
C440 C441 1.363 . S
C440 C446 1.379 . S
C440 N448 1.356 . S
C441 C440 1.363 . S
C441 C447 1.363 1_556 S
C442 C443 1.363 . S
C442 C447 1.379 . S
C442 N449 1.356 . S
C443 C442 1.363 . S
C443 C446 1.363 1_554 S
N444 C446 1.356 . S
N444 H456 0.984 . S
N444 H457 0.985 . S
N445 C447 1.356 . S
N445 H450 0.984 . S
N445 H451 0.985 . S
C446 C440 1.379 . S
C446 C443 1.363 1_556 S
C446 N444 1.356 . S
C447 C441 1.363 1_554 S
C447 C442 1.379 . S
C447 N445 1.356 . S
N448 C440 1.356 . S
N448 H454 0.984 . S
N448 H455 0.984 . S
N449 C442 1.356 . S
N449 H452 0.984 . S
N449 H453 0.985 . S
H450 N445 0.984 . S
H451 N445 0.985 . S
H452 N449 0.984 . S
H453 N449 0.985 . S
H454 N448 0.984 . S
H455 N448 0.984 . S
H456 N444 0.984 . S
H457 N444 0.985 . S
C458 C459 1.363 . S
C458 C464 1.379 . S
C458 N466 1.356 . S
C459 C458 1.363 . S
C459 C465 1.363 . S
C460 C461 1.363 . S
C460 C465 1.379 . S
C460 N467 1.356 . S
C461 C460 1.363 . S
C461 C464 1.363 . S
N462 C464 1.356 . S
N462 H474 0.984 . S
N462 H475 0.985 . S
N463 C465 1.356 . S
N463 H468 0.984 . S
N463 H469 0.985 . S
C464 C458 1.379 . S
C464 C461 1.363 . S
C464 N462 1.356 . S
C465 C459 1.363 . S
C465 C460 1.379 . S
C465 N463 1.356 . S
N466 C458 1.356 . S
N466 H472 0.984 . S
N466 H473 0.984 . S
N467 C460 1.356 . S
N467 H470 0.984 . S
N467 H471 0.985 . S
H468 N463 0.984 . S
H469 N463 0.985 . S
H470 N467 0.984 . S
H471 N467 0.985 . S
H472 N466 0.984 . S
H473 N466 0.984 . S
H474 N462 0.984 . S
H475 N462 0.985 . S
C476 C477 1.363 . S
C476 C482 1.379 . S
C476 N484 1.356 . S
C477 C476 1.363 . S
C477 C483 1.363 1_554 S
C478 C479 1.363 . S
C478 C483 1.379 . S
C478 N485 1.356 . S
C479 C478 1.363 . S
C479 C482 1.363 1_556 S
N480 C482 1.356 1_556 S
N480 H492 0.984 1_556 S
N480 H493 0.985 . S
N481 C483 1.356 1_554 S
N481 H486 0.984 . S
N481 H487 0.985 1_554 S
C482 C476 1.379 . S
C482 C479 1.363 1_554 S
C482 N480 1.356 1_554 S
C483 C477 1.363 1_556 S
C483 C478 1.379 . S
C483 N481 1.356 1_556 S
N484 C476 1.356 . S
N484 H490 0.984 . S
N484 H491 0.984 . S
N485 C478 1.356 . S
N485 H488 0.984 . S
N485 H489 0.985 . S
H486 N481 0.984 . S
H487 N481 0.985 1_556 S
H488 N485 0.984 . S
H489 N485 0.985 . S
H490 N484 0.984 . S
H491 N484 0.984 . S
H492 N480 0.984 1_554 S
H493 N480 0.985 . S
C494 C495 1.363 . S
C494 C500 1.379 . S
C494 N502 1.356 . S
C495 C494 1.363 . S
C495 C501 1.363 . S
C496 C497 1.363 . S
C496 C501 1.379 . S
C496 N503 1.356 . S
C497 C496 1.363 . S
C497 C500 1.363 . S
N498 C500 1.356 . S
N498 H510 0.984 . S
N498 H511 0.985 . S
N499 C501 1.356 . S
N499 H504 0.984 . S
N499 H505 0.985 . S
C500 C494 1.379 . S
C500 C497 1.363 . S
C500 N498 1.356 . S
C501 C495 1.363 . S
C501 C496 1.379 . S
C501 N499 1.356 . S
N502 C494 1.356 . S
N502 H508 0.984 . S
N502 H509 0.984 . S
N503 C496 1.356 . S
N503 H506 0.984 . S
N503 H507 0.985 . S
H504 N499 0.984 . S
H505 N499 0.985 . S
H506 N503 0.984 . S
H507 N503 0.985 . S
H508 N502 0.984 . S
H509 N502 0.984 . S
H510 N498 0.984 . S
H511 N498 0.985 . S
C512 C513 1.363 . S
C512 C518 1.379 . S
C512 N520 1.356 . S
C513 C512 1.363 . S
C513 C519 1.363 . S
C514 C515 1.363 . S
C514 C519 1.379 . S
C514 N521 1.356 . S
C515 C514 1.363 . S
C515 C518 1.363 . S
N516 C518 1.356 . S
N516 H528 0.984 1_554 S
N516 H529 0.985 . S
N517 C519 1.356 . S
N517 H522 0.984 . S
N517 H523 0.985 . S
C518 C512 1.379 . S
C518 C515 1.363 . S
C518 N516 1.356 . S
C519 C513 1.363 . S
C519 C514 1.379 . S
C519 N517 1.356 . S
N520 C512 1.356 . S
N520 H526 0.984 1_554 S
N520 H527 0.984 . S
N521 C514 1.356 . S
N521 H524 0.984 . S
N521 H525 0.985 . S
H522 N517 0.984 . S
H523 N517 0.985 . S
H524 N521 0.984 . S
H525 N521 0.985 . S
H526 N520 0.984 1_556 S
H527 N520 0.984 . S
H528 N516 0.984 1_556 S
H529 N516 0.985 . S
C530 C531 1.363 1_455 S
C530 C536 1.379 . S
C530 N538 1.356 1_455 S
C531 C530 1.363 1_655 S
C531 C537 1.363 1_655 S
C532 C533 1.363 . S
C532 C537 1.379 . S
C532 N539 1.356 . S
C533 C532 1.363 . S
C533 C536 1.363 . S
N534 C536 1.356 . S
N534 H546 0.984 . S
N534 H547 0.985 . S
N535 C537 1.356 1_655 S
N535 H540 0.984 . S
N535 H541 0.985 . S
C536 C530 1.379 . S
C536 C533 1.363 . S
C536 N534 1.356 . S
C537 C531 1.363 1_455 S
C537 C532 1.379 . S
C537 N535 1.356 1_455 S
N538 C530 1.356 1_655 S
N538 H544 0.984 . S
N538 H545 0.984 . S
N539 C532 1.356 . S
N539 H542 0.984 . S
N539 H543 0.985 . S
H540 N535 0.984 . S
H541 N535 0.985 . S
H542 N539 0.984 . S
H543 N539 0.985 . S
H544 N538 0.984 . S
H545 N538 0.984 . S
H546 N534 0.984 . S
H547 N534 0.985 . S
C548 C549 1.363 . S
C548 C554 1.379 . S
C548 N556 1.356 . S
C549 C548 1.363 . S
C549 C555 1.363 . S
C550 C551 1.363 . S
C550 C555 1.379 . S
C550 N557 1.356 . S
C551 C550 1.363 . S
C551 C554 1.363 . S
N552 C554 1.356 . S
N552 H564 0.984 . S
N552 H565 0.985 . S
N553 C555 1.356 . S
N553 H558 0.984 . S
N553 H559 0.985 . S
C554 C548 1.379 . S
C554 C551 1.363 . S
C554 N552 1.356 . S
C555 C549 1.363 . S
C555 C550 1.379 . S
C555 N553 1.356 . S
N556 C548 1.356 . S
N556 H562 0.984 . S
N556 H563 0.984 . S
N557 C550 1.356 . S
N557 H560 0.984 . S
N557 H561 0.985 . S
H558 N553 0.984 . S
H559 N553 0.985 . S
H560 N557 0.984 . S
H561 N557 0.985 . S
H562 N556 0.984 . S
H563 N556 0.984 . S
H564 N552 0.984 . S
H565 N552 0.985 . S
C566 C567 1.363 . S
C566 C572 1.379 . S
C566 N574 1.356 . S
C567 C566 1.363 . S
C567 C573 1.363 . S
C568 C569 1.363 1_455 S
C568 C573 1.379 . S
C568 N575 1.356 1_455 S
C569 C568 1.363 1_655 S
C569 C572 1.363 1_655 S
N570 C572 1.356 1_655 S
N570 H582 0.984 . S
N570 H583 0.985 . S
N571 C573 1.356 . S
N571 H576 0.984 . S
N571 H577 0.985 . S
C572 C566 1.379 . S
C572 C569 1.363 1_455 S
C572 N570 1.356 1_455 S
C573 C567 1.363 . S
C573 C568 1.379 . S
C573 N571 1.356 . S
N574 C566 1.356 . S
N574 H580 0.984 . S
N574 H581 0.984 . S
N575 C568 1.356 1_655 S
N575 H578 0.984 . S
N575 H579 0.985 . S
H576 N571 0.984 . S
H577 N571 0.985 . S
H578 N575 0.984 . S
H579 N575 0.985 . S
H580 N574 0.984 . S
H581 N574 0.984 . S
H582 N570 0.984 . S
H583 N570 0.985 . S
C584 C585 1.363 1_655 S
C584 C590 1.379 . S
C584 N592 1.356 1_655 S
C585 C584 1.363 1_455 S
C585 C591 1.363 1_455 S
C586 C587 1.363 . S
C586 C591 1.379 . S
C586 N593 1.356 . S
C587 C586 1.363 . S
C587 C590 1.363 . S
N588 C590 1.356 . S
N588 H600 0.984 1_554 S
N588 H601 0.985 . S
N589 C591 1.356 1_455 S
N589 H594 0.984 . S
N589 H595 0.985 . S
C590 C584 1.379 . S
C590 C587 1.363 . S
C590 N588 1.356 . S
C591 C585 1.363 1_655 S
C591 C586 1.379 . S
C591 N589 1.356 1_655 S
N592 C584 1.356 1_455 S
N592 H598 0.984 1_554 S
N592 H599 0.984 . S
N593 C586 1.356 . S
N593 H596 0.984 . S
N593 H597 0.985 . S
H594 N589 0.984 . S
H595 N589 0.985 . S
H596 N593 0.984 . S
H597 N593 0.985 . S
H598 N592 0.984 1_556 S
H599 N592 0.984 . S
H600 N588 0.984 1_556 S
H601 N588 0.985 . S
C602 C603 1.363 . S
C602 C608 1.379 . S
C602 N610 1.356 . S
C603 C602 1.363 . S
C603 C609 1.363 . S
C604 C605 1.363 . S
C604 C609 1.379 . S
C604 N611 1.356 . S
C605 C604 1.363 . S
C605 C608 1.363 . S
N606 C608 1.356 . S
N606 H618 0.984 . S
N606 H619 0.985 . S
N607 C609 1.356 . S
N607 H612 0.984 . S
N607 H613 0.985 . S
C608 C602 1.379 . S
C608 C605 1.363 . S
C608 N606 1.356 . S
C609 C603 1.363 . S
C609 C604 1.379 . S
C609 N607 1.356 . S
N610 C602 1.356 . S
N610 H616 0.984 . S
N610 H617 0.984 . S
N611 C604 1.356 . S
N611 H614 0.984 . S
N611 H615 0.985 . S
H612 N607 0.984 . S
H613 N607 0.985 . S
H614 N611 0.984 . S
H615 N611 0.985 . S
H616 N610 0.984 . S
H617 N610 0.984 . S
H618 N606 0.984 . S
H619 N606 0.985 . S
C620 C621 1.363 1_655 S
C620 C626 1.379 . S
C620 N628 1.356 1_655 S
C621 C620 1.363 1_455 S
C621 C627 1.363 1_455 S
C622 C623 1.363 . S
C622 C627 1.379 . S
C622 N629 1.356 . S
C623 C622 1.363 . S
C623 C626 1.363 . S
N624 C626 1.356 . S
N624 H636 0.984 . S
N624 H637 0.985 . S
N625 C627 1.356 1_455 S
N625 H630 0.984 . S
N625 H631 0.985 1_556 S
C626 C620 1.379 . S
C626 C623 1.363 . S
C626 N624 1.356 . S
C627 C621 1.363 1_655 S
C627 C622 1.379 . S
C627 N625 1.356 1_655 S
N628 C620 1.356 1_455 S
N628 H634 0.984 . S
N628 H635 0.984 . S
N629 C622 1.356 . S
N629 H632 0.984 . S
N629 H633 0.985 1_556 S
H630 N625 0.984 . S
H631 N625 0.985 1_554 S
H632 N629 0.984 . S
H633 N629 0.985 1_554 S
H634 N628 0.984 . S
H635 N628 0.984 . S
H636 N624 0.984 . S
H637 N624 0.985 . S
C638 C639 1.363 . S
C638 C644 1.379 . S
C638 N646 1.356 . S
C639 C638 1.363 . S
C639 C645 1.363 . S
C640 C641 1.363 . S
C640 C645 1.379 . S
C640 N647 1.356 . S
C641 C640 1.363 . S
C641 C644 1.363 . S
N642 C644 1.356 . S
N642 H654 0.984 . S
N642 H655 0.985 . S
N643 C645 1.356 . S
N643 H648 0.984 . S
N643 H649 0.985 . S
C644 C638 1.379 . S
C644 C641 1.363 . S
C644 N642 1.356 . S
C645 C639 1.363 . S
C645 C640 1.379 . S
C645 N643 1.356 . S
N646 C638 1.356 . S
N646 H652 0.984 . S
N646 H653 0.984 . S
N647 C640 1.356 . S
N647 H650 0.984 . S
N647 H651 0.985 . S
H648 N643 0.984 . S
H649 N643 0.985 . S
H650 N647 0.984 . S
H651 N647 0.985 . S
H652 N646 0.984 . S
H653 N646 0.984 . S
H654 N642 0.984 . S
H655 N642 0.985 . S
C656 C657 1.363 . S
C656 C662 1.379 . S
C656 N664 1.356 . S
C657 C656 1.363 . S
C657 C663 1.363 . S
C658 C659 1.363 . S
C658 C663 1.379 . S
C658 N665 1.356 . S
C659 C658 1.363 . S
C659 C662 1.363 . S
N660 C662 1.356 . S
N660 H672 0.984 . S
N660 H673 0.985 . S
N661 C663 1.356 . S
N661 H666 0.984 . S
N661 H667 0.985 . S
C662 C656 1.379 . S
C662 C659 1.363 . S
C662 N660 1.356 . S
C663 C657 1.363 . S
C663 C658 1.379 . S
C663 N661 1.356 . S
N664 C656 1.356 . S
N664 H670 0.984 . S
N664 H671 0.984 . S
N665 C658 1.356 . S
N665 H668 0.984 . S
N665 H669 0.985 . S
H666 N661 0.984 . S
H667 N661 0.985 . S
H668 N665 0.984 . S
H669 N665 0.985 . S
H670 N664 0.984 . S
H671 N664 0.984 . S
H672 N660 0.984 . S
H673 N660 0.985 . S
C674 C675 1.363 . S
C674 C680 1.379 . S
C674 N682 1.356 . S
C675 C674 1.363 . S
C675 C681 1.363 . S
C676 C677 1.363 . S
C676 C681 1.379 . S
C676 N683 1.356 . S
C677 C676 1.363 . S
C677 C680 1.363 . S
N678 C680 1.356 . S
N678 H690 0.984 . S
N678 H691 0.985 . S
N679 C681 1.356 . S
N679 H684 0.984 . S
N679 H685 0.985 . S
C680 C674 1.379 . S
C680 C677 1.363 . S
C680 N678 1.356 . S
C681 C675 1.363 . S
C681 C676 1.379 . S
C681 N679 1.356 . S
N682 C674 1.356 . S
N682 H688 0.984 . S
N682 H689 0.984 . S
N683 C676 1.356 . S
N683 H686 0.984 . S
N683 H687 0.985 . S
H684 N679 0.984 . S
H685 N679 0.985 . S
H686 N683 0.984 . S
H687 N683 0.985 . S
H688 N682 0.984 . S
H689 N682 0.984 . S
H690 N678 0.984 . S
H691 N678 0.985 . S
C692 C693 1.363 . S
C692 C698 1.379 . S
C692 N700 1.356 . S
C693 C692 1.363 . S
C693 C699 1.363 . S
C694 C695 1.363 . S
C694 C699 1.379 . S
C694 N701 1.356 . S
C695 C694 1.363 . S
C695 C698 1.363 . S
N696 C698 1.356 . S
N696 H708 0.984 . S
N696 H709 0.985 . S
N697 C699 1.356 . S
N697 H702 0.984 . S
N697 H703 0.985 . S
C698 C692 1.379 . S
C698 C695 1.363 . S
C698 N696 1.356 . S
C699 C693 1.363 . S
C699 C694 1.379 . S
C699 N697 1.356 . S
N700 C692 1.356 . S
N700 H706 0.984 . S
N700 H707 0.984 . S
N701 C694 1.356 . S
N701 H704 0.984 . S
N701 H705 0.985 . S
H702 N697 0.984 . S
H703 N697 0.985 . S
H704 N701 0.984 . S
H705 N701 0.985 . S
H706 N700 0.984 . S
H707 N700 0.984 . S
H708 N696 0.984 . S
H709 N696 0.985 . S
C710 C711 1.363 . S
C710 C716 1.379 . S
C710 N718 1.356 . S
C711 C710 1.363 . S
C711 C717 1.363 . S
C712 C713 1.363 . S
C712 C717 1.379 . S
C712 N719 1.356 . S
C713 C712 1.363 . S
C713 C716 1.363 . S
N714 C716 1.356 . S
N714 H726 0.984 . S
N714 H727 0.985 . S
N715 C717 1.356 . S
N715 H720 0.984 . S
N715 H721 0.985 . S
C716 C710 1.379 . S
C716 C713 1.363 . S
C716 N714 1.356 . S
C717 C711 1.363 . S
C717 C712 1.379 . S
C717 N715 1.356 . S
N718 C710 1.356 . S
N718 H724 0.984 . S
N718 H725 0.984 . S
N719 C712 1.356 . S
N719 H722 0.984 . S
N719 H723 0.985 . S
H720 N715 0.984 . S
H721 N715 0.985 . S
H722 N719 0.984 . S
H723 N719 0.985 . S
H724 N718 0.984 . S
H725 N718 0.984 . S
H726 N714 0.984 . S
H727 N714 0.985 . S
C728 C729 1.363 . S
C728 C734 1.379 . S
C728 N736 1.356 . S
C729 C728 1.363 . S
C729 C735 1.363 . S
C730 C731 1.363 . S
C730 C735 1.379 . S
C730 N737 1.356 . S
C731 C730 1.363 . S
C731 C734 1.363 . S
N732 C734 1.356 . S
N732 H744 0.984 . S
N732 H745 0.985 . S
N733 C735 1.356 . S
N733 H738 0.984 . S
N733 H739 0.985 . S
C734 C728 1.379 . S
C734 C731 1.363 . S
C734 N732 1.356 . S
C735 C729 1.363 . S
C735 C730 1.379 . S
C735 N733 1.356 . S
N736 C728 1.356 . S
N736 H742 0.984 . S
N736 H743 0.984 . S
N737 C730 1.356 . S
N737 H740 0.984 . S
N737 H741 0.985 . S
H738 N733 0.984 . S
H739 N733 0.985 . S
H740 N737 0.984 . S
H741 N737 0.985 . S
H742 N736 0.984 . S
H743 N736 0.984 . S
H744 N732 0.984 . S
H745 N732 0.985 . S
C746 C747 1.363 . S
C746 C752 1.379 . S
C746 N754 1.356 . S
C747 C746 1.363 . S
C747 C753 1.363 . S
C748 C749 1.363 . S
C748 C753 1.379 . S
C748 N755 1.356 . S
C749 C748 1.363 . S
C749 C752 1.363 . S
N750 C752 1.356 . S
N750 H762 0.984 . S
N750 H763 0.985 . S
N751 C753 1.356 . S
N751 H756 0.984 . S
N751 H757 0.985 . S
C752 C746 1.379 . S
C752 C749 1.363 . S
C752 N750 1.356 . S
C753 C747 1.363 . S
C753 C748 1.379 . S
C753 N751 1.356 . S
N754 C746 1.356 . S
N754 H760 0.984 . S
N754 H761 0.984 . S
N755 C748 1.356 . S
N755 H758 0.984 . S
N755 H759 0.985 . S
H756 N751 0.984 . S
H757 N751 0.985 . S
H758 N755 0.984 . S
H759 N755 0.985 . S
H760 N754 0.984 . S
H761 N754 0.984 . S
H762 N750 0.984 . S
H763 N750 0.985 . S
C764 C765 1.363 . S
C764 C770 1.379 . S
C764 N772 1.356 . S
C765 C764 1.363 . S
C765 C771 1.363 . S
C766 C767 1.363 . S
C766 C771 1.379 . S
C766 N773 1.356 . S
C767 C766 1.363 . S
C767 C770 1.363 . S
N768 C770 1.356 . S
N768 H780 0.984 . S
N768 H781 0.985 . S
N769 C771 1.356 . S
N769 H774 0.984 . S
N769 H775 0.985 . S
C770 C764 1.379 . S
C770 C767 1.363 . S
C770 N768 1.356 . S
C771 C765 1.363 . S
C771 C766 1.379 . S
C771 N769 1.356 . S
N772 C764 1.356 . S
N772 H778 0.984 . S
N772 H779 0.984 . S
N773 C766 1.356 . S
N773 H776 0.984 . S
N773 H777 0.985 . S
H774 N769 0.984 . S
H775 N769 0.985 . S
H776 N773 0.984 . S
H777 N773 0.985 . S
H778 N772 0.984 . S
H779 N772 0.984 . S
H780 N768 0.984 . S
H781 N768 0.985 . S
C782 C783 1.363 . S
C782 C788 1.379 . S
C782 N790 1.356 . S
C783 C782 1.363 . S
C783 C789 1.363 . S
C784 C785 1.363 . S
C784 C789 1.379 . S
C784 N791 1.356 . S
C785 C784 1.363 . S
C785 C788 1.363 . S
N786 C788 1.356 . S
N786 H798 0.984 . S
N786 H799 0.985 . S
N787 C789 1.356 . S
N787 H792 0.984 . S
N787 H793 0.985 . S
C788 C782 1.379 . S
C788 C785 1.363 . S
C788 N786 1.356 . S
C789 C783 1.363 . S
C789 C784 1.379 . S
C789 N787 1.356 . S
N790 C782 1.356 . S
N790 H796 0.984 . S
N790 H797 0.984 . S
N791 C784 1.356 . S
N791 H794 0.984 . S
N791 H795 0.985 . S
H792 N787 0.984 . S
H793 N787 0.985 . S
H794 N791 0.984 . S
H795 N791 0.985 . S
H796 N790 0.984 . S
H797 N790 0.984 . S
H798 N786 0.984 . S
H799 N786 0.985 . S
C225 C8 1.511 . S
C227 C175 1.482 . S
C243 C189 1.482 . S
C245 C22 1.511 . S
C261 C36 1.511 . S
C263 C203 1.482 . S
C279 C217 1.482 . S
C281 C50 1.511 . S
C297 C120 1.511 . S
C299 C63 1.482 . S
C315 C77 1.482 . S
C317 C134 1.511 . S
C333 C148 1.511 . S
C335 C91 1.482 . S
C351 C105 1.482 . S
C353 C162 1.511 . S
C369 C3 1.569 . S
C371 C31 1.569 . S
C387 C17 1.569 . S
C389 C45 1.569 . S
C405 C59 1.554 . S
C407 C87 1.554 . S
C423 C73 1.554 . S
C425 C101 1.554 . S
C441 C143 1.569 . S
C443 C115 1.569 . S
C459 C129 1.569 . S
C461 C157 1.569 . S
C477 C199 1.554 . S
C479 C171 1.554 . S
C495 C185 1.554 . S
C497 C213 1.554 . S
C513 C93 1.538 . S
C515 C9 1.553 . S
C531 C107 1.538 . S
C533 C23 1.553 . S
C549 C37 1.553 . S
C551 C65 1.538 . S
C567 C51 1.553 . S
C569 C79 1.538 . S
C585 C205 1.538 . S
C587 C121 1.553 . S
C603 C135 1.553 . S
C605 C219 1.538 . S
C621 C177 1.538 . S
C623 C149 1.553 . S
C639 C163 1.553 . S
C641 C191 1.538 . S
C657 C7 1.335 . S
C659 C49 1.335 . S
C675 C35 1.335 . S
C677 C21 1.335 . S
C693 C64 1.582 . S
C695 C106 1.582 . S
C711 C78 1.582 . S
C713 C92 1.582 . S
C729 C161 1.335 . S
C731 C119 1.335 . S
C747 C133 1.335 . S
C749 C147 1.335 . S
C765 C218 1.582 . S
C767 C176 1.582 . S
C783 C190 1.582 . S
C785 C204 1.582 . S
