# Generated by pormake.
# Topology smk, (6)-cn, num edge types: 1
# Building blocks:
#     Node 0, Type 0, BuildingBlock: MIDCAF_clean_sbu_0, # of connection points: 6
#     Node 1, Type 0, BuildingBlock: MIDCAF_clean_sbu_0, # of connection points: 6
#     Node 2, Type 0, BuildingBlock: MIDCAF_clean_sbu_0, # of connection points: 6
#     Node 3, Type 0, BuildingBlock: MIDCAF_clean_sbu_0, # of connection points: 6
#     Node 4, Type 0, BuildingBlock: MIDCAF_clean_sbu_0, # of connection points: 6
#     Node 5, Type 0, BuildingBlock: MIDCAF_clean_sbu_0, # of connection points: 6
#     Edge 6, Type (0, 0), BuildingBlock: ZUJKAS_clean_linker_0, # of connection points: 2
#     Edge 7, Type (0, 0), BuildingBlock: ZUJKAS_clean_linker_0, # of connection points: 2
#     Edge 8, Type (0, 0), BuildingBlock: ZUJKAS_clean_linker_0, # of connection points: 2
#     Edge 9, Type (0, 0), BuildingBlock: ZUJKAS_clean_linker_0, # of connection points: 2
#     Edge 10, Type (0, 0), BuildingBlock: ZUJKAS_clean_linker_0, # of connection points: 2
#     Edge 11, Type (0, 0), BuildingBlock: ZUJKAS_clean_linker_0, # of connection points: 2
#     Edge 12, Type (0, 0), BuildingBlock: ZUJKAS_clean_linker_0, # of connection points: 2
#     Edge 13, Type (0, 0), BuildingBlock: ZUJKAS_clean_linker_0, # of connection points: 2
#     Edge 14, Type (0, 0), BuildingBlock: ZUJKAS_clean_linker_0, # of connection points: 2
#     Edge 15, Type (0, 0), BuildingBlock: ZUJKAS_clean_linker_0, # of connection points: 2
#     Edge 16, Type (0, 0), BuildingBlock: ZUJKAS_clean_linker_0, # of connection points: 2
#     Edge 17, Type (0, 0), BuildingBlock: ZUJKAS_clean_linker_0, # of connection points: 2
#     Edge 18, Type (0, 0), BuildingBlock: ZUJKAS_clean_linker_0, # of connection points: 2
#     Edge 19, Type (0, 0), BuildingBlock: ZUJKAS_clean_linker_0, # of connection points: 2
#     Edge 20, Type (0, 0), BuildingBlock: ZUJKAS_clean_linker_0, # of connection points: 2
#     Edge 21, Type (0, 0), BuildingBlock: ZUJKAS_clean_linker_0, # of connection points: 2
#     Edge 22, Type (0, 0), BuildingBlock: ZUJKAS_clean_linker_0, # of connection points: 2
#     Edge 23, Type (0, 0), BuildingBlock: ZUJKAS_clean_linker_0, # of connection points: 2
# Relax obj value: 0.124
# Max RMSD: 0.126
# Mean RMSD: 0.126
data_MOF--net-smk--node1-MIDCAF_clean_sbu_0--edge1-ZUJKAS_clean_linker_0
_symmetry_space_group_name_H-M    P1
_symmetry_Int_Tables_number       1
_symmetry_cell_setting            triclinic
loop_
_symmetry_equiv_pos_as_xyz
'x, y, z'
_cell_length_a     53.517906
_cell_length_b     53.504011
_cell_length_c     18.933643
_cell_angle_alpha  90.065274
_cell_angle_beta   89.946761
_cell_angle_gamma 119.996
loop_
_atom_site_label
_atom_site_type_symbol
_atom_site_fract_x
_atom_site_fract_y
_atom_site_fract_z
_atom_type_partial_charge
Zn0 Zn 0.4325 0.25428 0.50648 0.0
Zn1 Zn 0.43537 0.18182 0.65374 0.0
Zn2 Zn 0.43356 0.21824 0.58098 0.0
C3 C 0.39912 0.19567 0.72427 0.0
C4 C 0.491 0.2252 0.65473 0.0
O5 O 0.4092 0.19604 0.48442 0.0
O6 O 0.39857 0.22866 0.44747 0.0
C7 C 0.41293 0.26327 0.62744 0.0
O8 O 0.41111 0.21675 0.68021 0.0
O9 O 0.40322 0.1745 0.71857 0.0
O10 O 0.47475 0.20385 0.69281 0.0
O11 O 0.48005 0.23292 0.60438 0.0
O12 O 0.42693 0.27865 0.57553 0.0
O13 O 0.41118 0.23857 0.63682 0.0
O14 O 0.47906 0.25005 0.55028 0.0
O15 O 0.47063 0.27094 0.4603 0.0
C16 C 0.48825 0.2674 0.49698 0.0
O17 O 0.40952 0.17465 0.52995 0.0
O18 O 0.42736 0.15083 0.5853 0.0
C19 C 0.39559 0.20383 0.4419 0.0
C20 C 0.41133 0.15166 0.53775 0.0
Zn21 Zn 0.18067 0.43108 0.68224 0.0
Zn22 Zn 0.25538 0.43282 0.83398 0.0
Zn23 Zn 0.2177 0.43038 0.75811 0.0
C24 C 0.20548 0.39554 0.90199 0.0
C25 C 0.26852 0.48811 0.83335 0.0
O26 O 0.21606 0.40667 0.66038 0.0
O27 O 0.1746 0.39942 0.61764 0.0
C28 C 0.15139 0.40808 0.80274 0.0
O29 O 0.19627 0.40704 0.85677 0.0
O30 O 0.23107 0.40048 0.89819 0.0
O31 O 0.27299 0.4721 0.87392 0.0
O32 O 0.24998 0.47672 0.78276 0.0
O33 O 0.14965 0.42201 0.75117 0.0
O34 O 0.17481 0.40722 0.81265 0.0
O35 O 0.23101 0.47616 0.73149 0.0
O36 O 0.20155 0.47066 0.64367 0.0
C37 C 0.22281 0.487 0.6819 0.0
O38 O 0.23795 0.40738 0.70521 0.0
O39 O 0.27859 0.42546 0.76517 0.0
C40 C 0.19556 0.39491 0.61466 0.0
C41 C 0.263 0.41001 0.71509 0.0
Zn42 Zn 0.74699 0.17484 0.87389 0.0
Zn43 Zn 0.82184 0.25852 0.01135 0.0
Zn44 Zn 0.78795 0.2166 0.93898 0.0
C45 C 0.79599 0.21241 0.10265 0.0
C46 C 0.78725 0.27708 0.96703 0.0
O47 O 0.80981 0.21315 0.84456 0.0
O48 O 0.77298 0.17345 0.8008 0.0
C49 C 0.74909 0.14904 0.99278 0.0
O50 O 0.78847 0.19901 0.04322 0.0
O51 O 0.8081 0.23958 0.1044 0.0
O52 O 0.81311 0.28909 0.98741 0.0
O53 O 0.77391 0.24996 0.95068 0.0
O54 O 0.73167 0.14355 0.94264 0.0
O55 O 0.77121 0.17464 0.99939 0.0
O56 O 0.75441 0.22792 0.90583 0.0
O57 O 0.72155 0.18976 0.84766 0.0
C58 C 0.7306 0.21496 0.87055 0.0
O59 O 0.83148 0.23338 0.88993 0.0
O60 O 0.85804 0.2619 0.97674 0.0
C61 C 0.79919 0.19295 0.79793 0.0
C62 C 0.8563 0.2496 0.91868 0.0
Zn63 Zn 0.57539 0.7538 0.00587 0.0
Zn64 Zn 0.56926 0.83134 0.13097 0.0
Zn65 Zn 0.57547 0.79226 0.0746 0.0
C66 C 0.60385 0.81682 0.21947 0.0
C67 C 0.5146 0.78761 0.12948 0.0
O68 O 0.60038 0.81237 0.97776 0.0
O69 O 0.60908 0.77794 0.94492 0.0
C70 C 0.59589 0.7486 0.13106 0.0
O71 O 0.59675 0.79619 0.17503 0.0
O72 O 0.59583 0.83514 0.2098 0.0
O73 O 0.52799 0.81313 0.15224 0.0
O74 O 0.52842 0.77685 0.09731 0.0
O75 O 0.5814 0.73192 0.08137 0.0
O76 O 0.59791 0.77359 0.13623 0.0
O77 O 0.53016 0.76004 0.04344 0.0
O78 O 0.53739 0.73607 0.95857 0.0
C79 C 0.52041 0.74146 0.99266 0.0
O80 O 0.60168 0.83548 0.02085 0.0
O81 O 0.58486 0.86282 0.06192 0.0
C82 C 0.61319 0.80311 0.93665 0.0
C83 C 0.60194 0.85975 0.02185 0.0
Zn84 Zn 0.81596 0.57026 0.13991 0.0
Zn85 Zn 0.75617 0.57298 0.31739 0.0
Zn86 Zn 0.78802 0.57588 0.22877 0.0
C87 C 0.80562 0.58988 0.38852 0.0
C88 C 0.72784 0.51961 0.2766 0.0
O89 O 0.78376 0.59775 0.13369 0.0
O90 O 0.79551 0.57423 0.05732 0.0
C91 C 0.85583 0.61236 0.22654 0.0
O92 O 0.81459 0.59662 0.32443 0.0
O93 O 0.77907 0.57366 0.40026 0.0
O94 O 0.71983 0.53653 0.30007 0.0
O95 O 0.75375 0.53006 0.25246 0.0
O96 O 0.85329 0.60464 0.16279 0.0
O97 O 0.83349 0.60101 0.26705 0.0
O98 O 0.77333 0.52906 0.20534 0.0
O99 O 0.81185 0.53186 0.15525 0.0
C100 C 0.78683 0.51663 0.18015 0.0
O101 O 0.77006 0.60335 0.19119 0.0
O102 O 0.75696 0.60951 0.29709 0.0
C103 C 0.7861 0.59122 0.06948 0.0
C104 C 0.76141 0.61656 0.23286 0.0
Zn105 Zn 0.2579 0.81403 0.32019 0.0
Zn106 Zn 0.18367 0.75232 0.48527 0.0
Zn107 Zn 0.21976 0.78603 0.40417 0.0
C108 C 0.19915 0.80539 0.5404 0.0
C109 C 0.22459 0.73817 0.49917 0.0
O110 O 0.19814 0.78315 0.30184 0.0
O111 O 0.23593 0.79772 0.23199 0.0
C112 C 0.25443 0.85452 0.40463 0.0
O113 O 0.21992 0.81233 0.49603 0.0
O114 O 0.17742 0.78036 0.5388 0.0
O115 O 0.20401 0.73563 0.53669 0.0
O116 O 0.23211 0.75421 0.44349 0.0
O117 O 0.26408 0.8521 0.34583 0.0
O118 O 0.23884 0.83171 0.44178 0.0
O119 O 0.25194 0.77027 0.39042 0.0
O120 O 0.28956 0.80656 0.33862 0.0
C121 C 0.27809 0.78196 0.36665 0.0
O122 O 0.17626 0.76477 0.35227 0.0
O123 O 0.15229 0.72681 0.42094 0.0
C124 C 0.20917 0.78763 0.23945 0.0
C125 C 0.15316 0.74072 0.36641 0.0
H126 H 0.41629 0.18007 0.34925 0.0
H127 H 0.40311 0.17146 0.22441 0.0
H128 H 0.3293 0.18163 0.26492 0.0
H129 H 0.34379 0.19237 0.38891 0.0
H130 H 0.36221 0.13948 0.13695 0.0
H131 H 0.37317 0.24832 0.13724 0.0
H132 H 0.38115 0.23365 0.21375 0.0
H133 H 0.34434 0.22274 0.19183 0.0
C134 C 0.39666 0.1794 0.33192 0.0
C135 C 0.38122 0.18721 0.37809 0.0
C136 C 0.38922 0.1747 0.2604 0.0
C137 C 0.36591 0.17719 0.23461 0.0
C138 C 0.3481 0.18088 0.28295 0.0
H139 H 0.3472 0.1548 0.77491 0.0
H140 H 0.3316 0.15007 0.89822 0.0
C141 C 0.35605 0.18647 0.35398 0.0
C142 C 0.36252 0.17918 0.15716 0.0
H143 H 0.36328 0.22436 0.02843 0.0
C144 C 0.36219 0.15791 0.11319 0.0
C145 C 0.36302 0.20357 0.12606 0.0
C146 C 0.36573 0.22851 0.16952 0.0
C147 C 0.36347 0.16077 0.03936 0.0
C148 C 0.3636 0.18498 0.00825 0.0
C149 C 0.36281 0.20569 0.05218 0.0
C150 C 0.36798 0.19085 0.9311 0.0
C151 C 0.36659 0.13874 0.99613 0.0
C152 C 0.39162 0.2168 0.90695 0.0
C153 C 0.3997 0.2201 0.8358 0.0
C154 C 0.38454 0.19729 0.78836 0.0
C155 C 0.3592 0.17265 0.81087 0.0
C156 C 0.35062 0.16973 0.8815 0.0
H157 H 0.37356 0.12611 0.02895 0.0
H158 H 0.34546 0.1233 0.97233 0.0
H159 H 0.38256 0.14923 0.95299 0.0
H160 H 0.40518 0.23362 0.94395 0.0
H161 H 0.41947 0.23917 0.81965 0.0
H162 H 0.15428 0.34361 0.5629 0.0
H163 H 0.15022 0.32787 0.4401 0.0
H164 H 0.23538 0.39963 0.39833 0.0
H165 H 0.24003 0.41412 0.52213 0.0
H166 H 0.14619 0.35726 0.34109 0.0
H167 H 0.23799 0.34287 0.27109 0.0
H168 H 0.22872 0.34471 0.36185 0.0
H169 H 0.25134 0.37727 0.31272 0.0
C170 C 0.17271 0.35499 0.52819 0.0
C171 C 0.19756 0.37988 0.55175 0.0
C172 C 0.17027 0.34621 0.45781 0.0
C173 C 0.1924 0.36255 0.40936 0.0
C174 C 0.21821 0.38615 0.43449 0.0
H175 H 0.17945 0.41375 0.99507 0.0
H176 H 0.16985 0.39904 0.11872 0.0
C177 C 0.22093 0.39448 0.50548 0.0
C178 C 0.18676 0.35794 0.33203 0.0
H179 H 0.21838 0.35836 0.17539 0.0
C180 C 0.16171 0.35681 0.30501 0.0
C181 C 0.20655 0.35682 0.28441 0.0
C182 C 0.23245 0.35515 0.30927 0.0
C183 C 0.15676 0.35624 0.23204 0.0
C184 C 0.17795 0.35798 0.18444 0.0
C185 C 0.20218 0.35743 0.21145 0.0
C186 C 0.17687 0.36265 0.10718 0.0
C187 C 0.12891 0.35394 0.20714 0.0
C188 C 0.18323 0.34677 0.05852 0.0
C189 C 0.18944 0.3557 0.98826 0.0
C190 C 0.18879 0.38028 0.96503 0.0
C191 C 0.17947 0.39436 0.01149 0.0
C192 C 0.17399 0.3859 0.08238 0.0
H193 H 0.11115 0.34129 0.24511 0.0
H194 H 0.13161 0.37587 0.20406 0.0
H195 H 0.12243 0.34357 0.15439 0.0
H196 H 0.18543 0.3287 0.07597 0.0
H197 H 0.19688 0.3447 0.95336 0.0
H198 H 0.80984 0.17062 0.12885 0.0
H199 H 0.81729 0.15583 0.24673 0.0
H200 H 0.78412 0.20641 0.34325 0.0
H201 H 0.77747 0.22174 0.2267 0.0
H202 H 0.85426 0.20797 0.35869 0.0
H203 H 0.74595 0.12023 0.44097 0.0
H204 H 0.75757 0.1265 0.34973 0.0
H205 H 0.7466 0.14946 0.39237 0.0
C206 C 0.80331 0.17772 0.17537 0.0
C207 C 0.79308 0.19724 0.16931 0.0
C208 C 0.8078 0.16951 0.24234 0.0
C209 C 0.80137 0.18023 0.30318 0.0
C210 C 0.78916 0.19795 0.29668 0.0
H211 H 0.83171 0.23742 0.70886 0.0
H212 H 0.84135 0.23144 0.58555 0.0
C213 C 0.78525 0.20657 0.23029 0.0
C214 C 0.80967 0.17571 0.37416 0.0
H215 H 0.77901 0.14732 0.53293 0.0
C216 C 0.83812 0.19406 0.39676 0.0
C217 C 0.78858 0.15753 0.42313 0.0
C218 C 0.75795 0.1371 0.40053 0.0
C219 C 0.84546 0.19633 0.46863 0.0
C220 C 0.82367 0.18006 0.51861 0.0
C221 C 0.79581 0.15992 0.49483 0.0
C222 C 0.82763 0.18599 0.59555 0.0
C223 C 0.87613 0.21695 0.49048 0.0
C224 C 0.81815 0.16291 0.64306 0.0
C225 C 0.81215 0.16625 0.71297 0.0
C226 C 0.81592 0.1928 0.73659 0.0
C227 C 0.82895 0.21685 0.69185 0.0
C228 C 0.83451 0.21339 0.62132 0.0
H229 H 0.89151 0.21893 0.44844 0.0
H230 H 0.87878 0.23868 0.49895 0.0
H231 H 0.8818 0.20995 0.54018 0.0
H232 H 0.81276 0.14163 0.62447 0.0
H233 H 0.80208 0.14741 0.74681 0.0
H234 H 0.60284 0.77294 0.29676 0.0
H235 H 0.61811 0.77639 0.42048 0.0
H236 H 0.65436 0.86872 0.41428 0.0
H237 H 0.63945 0.86548 0.29145 0.0
H238 H 0.6852 0.8488 0.50465 0.0
H239 H 0.56678 0.79574 0.55154 0.0
H240 H 0.57866 0.77645 0.49591 0.0
H241 H 0.58274 0.81022 0.46665 0.0
C242 C 0.61499 0.79402 0.32111 0.0
C243 C 0.61946 0.81888 0.28525 0.0
C244 C 0.6236 0.79597 0.39171 0.0
C245 C 0.63685 0.82278 0.42659 0.0
C246 C 0.64406 0.84786 0.38837 0.0
H247 H 0.60658 0.84346 0.86331 0.0
H248 H 0.61942 0.85599 0.73913 0.0
C249 C 0.63536 0.84592 0.31832 0.0
C250 C 0.63876 0.82452 0.50447 0.0
H251 H 0.5966 0.8086 0.6513 0.0
C252 C 0.6659 0.8399 0.537 0.0
C253 C 0.61348 0.81363 0.54602 0.0
C254 C 0.58372 0.79828 0.51353 0.0
C255 C 0.66838 0.84413 0.61057 0.0
C256 C 0.64306 0.83266 0.65211 0.0
C257 C 0.616 0.81763 0.61924 0.0
C258 C 0.64355 0.83354 0.73025 0.0
C259 C 0.69796 0.86107 0.64312 0.0
C260 C 0.65433 0.8183 0.76729 0.0
C261 C 0.64709 0.81122 0.83808 0.0
C262 C 0.62878 0.81908 0.87277 0.0
C263 C 0.62077 0.83717 0.83805 0.0
C264 C 0.62798 0.84422 0.76697 0.0
H265 H 0.71423 0.87551 0.60387 0.0
H266 H 0.69787 0.87427 0.68833 0.0
H267 H 0.70472 0.84585 0.66297 0.0
H268 H 0.66603 0.80952 0.73997 0.0
H269 H 0.65375 0.79741 0.86381 0.0
H270 H 0.83212 0.64703 0.41667 0.0
H271 H 0.84033 0.66703 0.53665 0.0
H272 H 0.82484 0.58556 0.62026 0.0
H273 H 0.81597 0.5655 0.50108 0.0
H274 H 0.79119 0.63776 0.62762 0.0
H275 H 0.88841 0.64565 0.7518 0.0
H276 H 0.88465 0.64715 0.65719 0.0
H277 H 0.868 0.61295 0.70213 0.0
C278 C 0.83226 0.63403 0.46036 0.0
C279 C 0.82375 0.60485 0.44988 0.0
C280 C 0.8366 0.64536 0.52894 0.0
C281 C 0.83319 0.62779 0.58741 0.0
C282 C 0.82803 0.59967 0.57598 0.0
H283 H 0.75043 0.56845 0.95778 0.0
H284 H 0.7623 0.58821 0.83847 0.0
C285 C 0.82316 0.58822 0.50777 0.0
C286 C 0.82899 0.63606 0.6594 0.0
H287 H 0.8488 0.63603 0.83045 0.0
C288 C 0.80429 0.63832 0.67193 0.0
C289 C 0.84609 0.63692 0.7171 0.0
C290 C 0.87344 0.63582 0.70645 0.0
C291 C 0.79488 0.63876 0.74097 0.0
C292 C 0.81056 0.6369 0.79871 0.0
C293 C 0.83667 0.63735 0.78614 0.0
C294 C 0.7981 0.62944 0.87083 0.0
C295 C 0.76741 0.63963 0.75162 0.0
C296 C 0.81318 0.64665 0.92909 0.0
C297 C 0.80585 0.63554 0.99774 0.0
C298 C 0.78384 0.60689 0.00851 0.0
C299 C 0.76701 0.59081 0.95088 0.0
C300 C 0.77396 0.60206 0.88258 0.0
H301 H 0.76314 0.65011 0.70623 0.0
H302 H 0.74903 0.61723 0.75591 0.0
H303 H 0.76832 0.65136 0.80085 0.0
H304 H 0.83201 0.66772 0.92112 0.0
H305 H 0.81959 0.64806 0.04121 0.0
H306 H 0.17842 0.81431 0.21131 0.0
H307 H 0.16743 0.82443 0.09209 0.0
H308 H 0.194 0.76704 0.00377 0.0
H309 H 0.20556 0.75754 0.12197 0.0
H310 H 0.21522 0.84945 0.98922 0.0
H311 H 0.12024 0.74981 0.88989 0.0
H312 H 0.12714 0.75788 0.98299 0.0
H313 H 0.14612 0.74349 0.93487 0.0
C314 C 0.18052 0.80283 0.1666 0.0
C315 C 0.19246 0.78488 0.17548 0.0
C316 C 0.17459 0.80888 0.0986 0.0
C317 C 0.17991 0.79647 0.03918 0.0
C318 C 0.18941 0.77657 0.04889 0.0
H319 H 0.24433 0.831 0.63122 0.0
H320 H 0.23899 0.83754 0.757 0.0
C321 C 0.19583 0.77099 0.11641 0.0
C322 C 0.17967 0.80694 0.96687 0.0
H323 H 0.15282 0.78226 0.80247 0.0
C324 C 0.20112 0.83505 0.94847 0.0
C325 C 0.16123 0.78822 0.91401 0.0
C326 C 0.13719 0.75823 0.93137 0.0
C327 C 0.20583 0.84424 0.87766 0.0
C328 C 0.18877 0.82471 0.82412 0.0
C329 C 0.16605 0.79729 0.84333 0.0
C330 C 0.19563 0.83063 0.7477 0.0
C331 C 0.22953 0.87442 0.86071 0.0
C332 C 0.1738 0.82631 0.69991 0.0
C333 C 0.17687 0.82252 0.62806 0.0
C334 C 0.20182 0.823 0.60284 0.0
C335 C 0.22512 0.83106 0.64904 0.0
C336 C 0.22197 0.83464 0.72122 0.0
H337 H 0.23358 0.88927 0.90583 0.0
H338 H 0.24978 0.87413 0.85018 0.0
H339 H 0.22422 0.88303 0.81325 0.0
H340 H 0.15334 0.82319 0.719 0.0
H341 H 0.1585 0.81607 0.59355 0.0
H342 H 0.35374 0.12981 0.51788 0.0
H343 H 0.31806 0.07846 0.50336 0.0
H344 H 0.38684 0.05995 0.46816 0.0
H345 H 0.4224 0.11083 0.48654 0.0
H346 H 0.30099 0.03612 0.41226 0.0
H347 H 0.34965 0.01075 0.63739 0.0
H348 H 0.36038 0.04735 0.61314 0.0
H349 H 0.37612 0.02847 0.56966 0.0
C350 C 0.36113 0.11486 0.50478 0.0
C351 C 0.39077 0.12415 0.50377 0.0
C352 C 0.34076 0.08547 0.49732 0.0
C353 C 0.34981 0.06513 0.48789 0.0
C354 C 0.37935 0.07502 0.47861 0.0
H355 H 0.27392 0.90105 0.31991 0.0
H356 H 0.29037 0.9505 0.35135 0.0
C357 C 0.39966 0.10417 0.48766 0.0
C358 C 0.32882 0.03359 0.49062 0.0
H359 H 0.31951 0.97065 0.56052 0.0
C360 C 0.30481 0.02187 0.44551 0.0
C361 C 0.3328 0.01488 0.53638 0.0
C362 C 0.35593 0.02609 0.59247 0.0
C363 C 0.28628 0.99189 0.4405 0.0
C364 C 0.29251 0.97309 0.47973 0.0
C365 C 0.31497 0.9849 0.52931 0.0
C366 C 0.27927 0.94191 0.46204 0.0
C367 C 0.26055 0.9807 0.39198 0.0
C368 C 0.26807 0.92019 0.51419 0.0
C369 C 0.25893 0.89132 0.49634 0.0
C370 C 0.26125 0.88395 0.42632 0.0
C371 C 0.27188 0.90576 0.37458 0.0
C372 C 0.28095 0.93423 0.39225 0.0
H373 H 0.25171 0.99559 0.39146 0.0
H374 H 0.26738 0.97961 0.33724 0.0
H375 H 0.24313 0.9589 0.40788 0.0
H376 H 0.26694 0.92566 0.56874 0.0
H377 H 0.25103 0.87511 0.53738 0.0
H378 H 0.42742 0.31725 0.66832 0.0
H379 H 0.39385 0.33443 0.69322 0.0
H380 H 0.32299 0.24675 0.69259 0.0
H381 H 0.35688 0.22936 0.66832 0.0
H382 H 0.31835 0.28448 0.59237 0.0
H383 H 0.34373 0.33323 0.85909 0.0
H384 H 0.37549 0.34383 0.80691 0.0
H385 H 0.35301 0.30656 0.83125 0.0
C386 C 0.40487 0.30155 0.67673 0.0
C387 C 0.39474 0.27201 0.66675 0.0
C388 C 0.38565 0.31138 0.69072 0.0
C389 C 0.3559 0.29188 0.69465 0.0
C390 C 0.34589 0.26214 0.68995 0.0
H391 H 0.22997 0.35285 0.68192 0.0
H392 H 0.24857 0.31935 0.66947 0.0
C393 C 0.36527 0.25221 0.67696 0.0
C394 C 0.33564 0.30324 0.69408 0.0
H395 H 0.32235 0.35186 0.77784 0.0
C396 C 0.31861 0.29868 0.63363 0.0
C397 C 0.33609 0.32178 0.74782 0.0
C398 C 0.35285 0.32644 0.81525 0.0
C399 C 0.30357 0.31374 0.62353 0.0
C400 C 0.30554 0.33363 0.6754 0.0
C401 C 0.32118 0.33686 0.73761 0.0
C402 C 0.29341 0.35296 0.6651 0.0
C403 C 0.28707 0.30962 0.55594 0.0
C404 C 0.3123 0.38287 0.663 0.0
C405 C 0.30177 0.40189 0.6701 0.0
C406 C 0.27212 0.39137 0.67937 0.0
C407 C 0.25289 0.36152 0.67382 0.0
C408 C 0.26351 0.34236 0.66728 0.0
H409 H 0.29041 0.2959 0.51738 0.0
H410 H 0.26368 0.29924 0.56793 0.0
H411 H 0.29372 0.33086 0.53119 0.0
H412 H 0.33542 0.39149 0.66093 0.0
H413 H 0.31706 0.42478 0.67452 0.0
H414 H 0.88652 0.28045 0.80306 0.0
H415 H 0.93855 0.29988 0.78527 0.0
H416 H 0.93944 0.24769 0.95759 0.0
H417 H 0.88777 0.22855 0.97544 0.0
H418 H 0.97525 0.30781 0.97666 0.0
H419 H 0.99474 0.27197 0.71727 0.0
H420 H 0.96959 0.285 0.71604 0.0
H421 H 0.96073 0.25258 0.76358 0.0
C422 C 0.89761 0.27209 0.83447 0.0
C423 C 0.88323 0.25275 0.88987 0.0
C424 C 0.92734 0.28329 0.82469 0.0
C425 C 0.94287 0.27522 0.87022 0.0
C426 C 0.9279 0.25413 0.92175 0.0
H427 H 0.13169 0.3529 0.84839 0.0
H428 H 0.08115 0.31763 0.87632 0.0
C429 C 0.89836 0.24301 0.93147 0.0
C430 C 0.9749 0.29184 0.87188 0.0
H431 H 0.03533 0.31135 0.77318 0.0
C432 C 0.9884 0.30828 0.9325 0.0
C433 C 0.99202 0.29232 0.8145 0.0
C434 C 0.97864 0.27436 0.74927 0.0
C435 C 0.01849 0.32603 0.93613 0.0
C436 C 0.03553 0.32742 0.87769 0.0
C437 C 0.02218 0.31016 0.81809 0.0
C438 C 0.06675 0.34889 0.87418 0.0
C439 C 0.03188 0.34368 0.00182 0.0
C440 C 0.07549 0.37819 0.8666 0.0
C441 C 0.10411 0.39819 0.85039 0.0
C442 C 0.12461 0.38931 0.84204 0.0
C443 C 0.11642 0.36038 0.85556 0.0
C444 C 0.08753 0.34019 0.87068 0.0
H445 H 0.01698 0.33527 0.04772 0.0
H446 H 0.05221 0.34397 0.01532 0.0
H447 H 0.03719 0.36627 0.99218 0.0
H448 H 0.05977 0.38531 0.86865 0.0
H449 H 0.10982 0.42032 0.83968 0.0
H450 H 0.59834 0.90248 0.95421 0.0
H451 H 0.63701 0.95283 0.94808 0.0
H452 H 0.6978 0.92843 0.02328 0.0
H453 H 0.65918 0.87772 0.02745 0.0
H454 H 0.6855 0.96885 0.11283 0.0
H455 H 0.71589 0.00405 0.83472 0.0
H456 H 0.67798 0.98066 0.85124 0.0
H457 H 0.70241 0.96719 0.86295 0.0
C458 C 0.62025 0.90764 0.96566 0.0
C459 C 0.62583 0.88623 0.99087 0.0
C460 C 0.6423 0.93644 0.96266 0.0
C461 C 0.67021 0.94436 0.98568 0.0
C462 C 0.67641 0.92271 0.00502 0.0
H463 H 0.78835 0.13135 0.00117 0.0
H464 H 0.77546 0.0806 0.01278 0.0
C465 C 0.65441 0.89372 0.00657 0.0
C466 C 0.69097 0.9752 0.0003 0.0
H467 H 0.72683 0.04104 0.9202 0.0
C468 C 0.69518 0.98464 0.07085 0.0
C469 C 0.70347 0.99569 0.94556 0.0
C470 C 0.69998 0.98651 0.86924 0.0
C471 C 0.71003 0.0142 0.08773 0.0
C472 C 0.72102 0.03474 0.03273 0.0
C473 C 0.71845 0.02524 0.96244 0.0
C474 C 0.73153 0.06582 0.04546 0.0
C475 C 0.71285 0.02333 0.164 0.0
C476 C 0.71158 0.07451 0.0637 0.0
C477 C 0.71885 0.10337 0.05664 0.0
C478 C 0.74628 0.12405 0.03207 0.0
C479 C 0.76728 0.11595 0.02181 0.0
C480 C 0.75982 0.0869 0.02748 0.0
H481 H 0.71002 0.00576 0.2002 0.0
H482 H 0.73422 0.04271 0.17398 0.0
H483 H 0.69598 0.02893 0.17652 0.0
H484 H 0.68955 0.05859 0.07688 0.0
H485 H 0.70213 0.10897 0.06341 0.0
H486 H 0.73048 0.61634 0.11681 0.0
H487 H 0.70817 0.64665 0.10252 0.0
H488 H 0.755 0.6969 0.28424 0.0
H489 H 0.77671 0.66657 0.29916 0.0
H490 H 0.69594 0.67155 0.29846 0.0
H491 H 0.73245 0.73005 0.04342 0.0
H492 H 0.7196 0.69196 0.03839 0.0
H493 H 0.75174 0.71489 0.08769 0.0
C494 C 0.73685 0.63461 0.15167 0.0
C495 C 0.75523 0.63916 0.20908 0.0
C496 C 0.72405 0.65186 0.14374 0.0
C497 C 0.72984 0.674 0.1926 0.0
C498 C 0.75012 0.67993 0.24614 0.0
H499 H 0.65165 0.78422 0.17202 0.0
H500 H 0.68676 0.76864 0.19841 0.0
C501 C 0.76263 0.66268 0.25434 0.0
C502 C 0.71217 0.68833 0.1946 0.0
H503 H 0.69249 0.72996 0.09963 0.0
C504 C 0.69542 0.68456 0.25519 0.0
C505 C 0.71167 0.70549 0.13855 0.0
C506 C 0.72999 0.71113 0.07349 0.0
C507 C 0.67758 0.69677 0.26037 0.0
C508 C 0.67624 0.71301 0.20328 0.0
C509 C 0.69362 0.71755 0.14351 0.0
C510 C 0.655 0.72314 0.20158 0.0
C511 C 0.66007 0.69196 0.32662 0.0
C512 C 0.62547 0.70285 0.19783 0.0
C513 C 0.60552 0.71166 0.1828 0.0
C514 C 0.6147 0.74096 0.17147 0.0
C515 C 0.64394 0.76155 0.18153 0.0
C516 C 0.66404 0.75265 0.19568 0.0
H517 H 0.66922 0.68609 0.37208 0.0
H518 H 0.65891 0.71153 0.34055 0.0
H519 H 0.63776 0.67398 0.31766 0.0
H520 H 0.61804 0.67998 0.20157 0.0
H521 H 0.58315 0.69534 0.17469 0.0
H522 H 0.88258 0.61346 0.35175 0.0
H523 H 0.93494 0.64173 0.37397 0.0
H524 H 0.94681 0.68691 0.17723 0.0
H525 H 0.89514 0.6587 0.15463 0.0
H526 H 0.9776 0.65749 0.1866 0.0
H527 H 0.99577 0.72693 0.42164 0.0
H528 H 0.96843 0.68962 0.43087 0.0
H529 H 0.96315 0.71212 0.36954 0.0
C530 C 0.89633 0.63017 0.31475 0.0
C531 C 0.88496 0.6338 0.25129 0.0
C532 C 0.9262 0.64626 0.3273 0.0
C533 C 0.94477 0.66634 0.27695 0.0
C534 C 0.93294 0.67148 0.21656 0.0
H535 H 0.13333 0.77378 0.30505 0.0
H536 H 0.08281 0.75732 0.27379 0.0
C537 C 0.9034 0.65539 0.20385 0.0
C538 C 0.97656 0.67924 0.2815 0.0
H539 H 0.0361 0.72414 0.37878 0.0
C540 C 0.9904 0.67221 0.22842 0.0
C541 C 0.99324 0.69861 0.33564 0.0
C542 C 0.97953 0.70754 0.3925 0.0
C543 C 0.02037 0.68354 0.22886 0.0
C544 C 0.03696 0.70227 0.284 0.0
C545 C 0.02329 0.70985 0.33632 0.0
C546 C 0.06809 0.71212 0.29177 0.0
C547 C 0.0341 0.67527 0.17056 0.0
C548 C 0.0766 0.69206 0.30958 0.0
C549 C 0.10521 0.70135 0.3274 0.0
C550 C 0.12593 0.7309 0.32746 0.0
C551 C 0.11788 0.75086 0.30449 0.0
C552 C 0.08902 0.74153 0.28749 0.0
H553 H 0.01981 0.66668 0.12362 0.0
H554 H 0.05498 0.69408 0.15415 0.0
H555 H 0.03843 0.65825 0.19009 0.0
H556 H 0.06078 0.66931 0.31362 0.0
H557 H 0.1108 0.68554 0.34533 0.0
H558 H 0.51146 0.28034 0.36627 0.0
H559 H 0.5604 0.31673 0.33413 0.0
H560 H 0.58393 0.33082 0.5546 0.0
H561 H 0.53411 0.29532 0.58694 0.0
H562 H 0.59724 0.379 0.49564 0.0
H563 H 0.63866 0.3266 0.31835 0.0
H564 H 0.60385 0.31884 0.28785 0.0
H565 H 0.60733 0.306 0.37336 0.0
C566 C 0.52729 0.29064 0.40783 0.0
C567 C 0.51917 0.2847 0.47908 0.0
C568 C 0.55544 0.31124 0.38935 0.0
C569 C 0.57621 0.32622 0.44171 0.0
C570 C 0.56844 0.31931 0.51311 0.0
H571 H 0.74162 0.47833 0.31202 0.0
H572 H 0.7078 0.42901 0.35256 0.0
C573 C 0.54007 0.29885 0.53164 0.0
C574 C 0.60399 0.35219 0.42188 0.0
H575 H 0.65696 0.37824 0.29592 0.0
C576 C 0.61066 0.3786 0.45318 0.0
C577 C 0.62195 0.35194 0.36706 0.0
C578 C 0.6177 0.32421 0.33543 0.0
C579 C 0.63326 0.40478 0.42782 0.0
C580 C 0.64922 0.4047 0.36829 0.0
C581 C 0.64418 0.37828 0.34036 0.0
C582 C 0.66959 0.43201 0.33227 0.0
C583 C 0.63928 0.43244 0.4638 0.0
C584 C 0.6592 0.44928 0.30391 0.0
C585 C 0.67832 0.47723 0.28096 0.0
C586 C 0.70822 0.48828 0.28477 0.0
C587 C 0.71864 0.47018 0.30774 0.0
C588 C 0.69938 0.44212 0.33131 0.0
H589 H 0.6317 0.42857 0.51948 0.0
H590 H 0.66268 0.44859 0.46309 0.0
H591 H 0.6276 0.4417 0.43561 0.0
H592 H 0.63625 0.44164 0.30292 0.0
H593 H 0.66975 0.4907 0.26327 0.0
H594 H 0.23598 0.5148 0.5565 0.0
H595 H 0.25029 0.56521 0.53502 0.0
H596 H 0.25383 0.58024 0.75967 0.0
H597 H 0.23867 0.52933 0.7812 0.0
H598 H 0.21846 0.59464 0.69152 0.0
H599 H 0.32245 0.64361 0.54897 0.0
H600 H 0.29633 0.60989 0.51052 0.0
H601 H 0.3089 0.61062 0.59912 0.0
C602 C 0.2406 0.52909 0.60127 0.0
C603 C 0.23667 0.51838 0.6705 0.0
C604 C 0.24905 0.55797 0.58897 0.0
C605 C 0.25368 0.57671 0.64568 0.0
C606 C 0.25077 0.56627 0.71511 0.0
H607 H 0.24587 0.73608 0.62722 0.0
H608 H 0.25951 0.70094 0.667 0.0
C609 C 0.24227 0.53728 0.72743 0.0
C610 C 0.2568 0.60544 0.63185 0.0
H611 H 0.29358 0.66643 0.53184 0.0
C612 C 0.23527 0.61064 0.65795 0.0
C613 C 0.27857 0.62617 0.58739 0.0
C614 C 0.30303 0.62243 0.56047 0.0
C615 C 0.23399 0.63519 0.63793 0.0
C616 C 0.2552 0.65548 0.5916 0.0
C617 C 0.27735 0.65084 0.56729 0.0
C618 C 0.25332 0.68051 0.56482 0.0
C619 C 0.20899 0.63837 0.66365 0.0
C620 C 0.24695 0.6817 0.49336 0.0
C621 C 0.23946 0.70197 0.47049 0.0
C622 C 0.2385 0.7214 0.51866 0.0
C623 C 0.24665 0.72136 0.5891 0.0
C624 C 0.25432 0.70128 0.61185 0.0
H625 H 0.19142 0.61798 0.6864 0.0
H626 H 0.21666 0.65516 0.7054 0.0
H627 H 0.19989 0.64519 0.61995 0.0
H628 H 0.2459 0.66576 0.45631 0.0
H629 H 0.23229 0.70098 0.41663 0.0
H630 H 0.74757 0.26943 0.82043 0.0
H631 H 0.71533 0.28626 0.77485 0.0
H632 H 0.64148 0.20673 0.8437 0.0
H633 H 0.67329 0.18988 0.88753 0.0
H634 H 0.64305 0.21884 0.69715 0.0
H635 H 0.65956 0.3114 0.86538 0.0
H636 H 0.69055 0.31095 0.82962 0.0
H637 H 0.66906 0.28522 0.89585 0.0
C638 C 0.72447 0.25605 0.8275 0.0
C639 C 0.71279 0.22837 0.8572 0.0
C640 C 0.70611 0.26562 0.80143 0.0
C641 C 0.67599 0.24764 0.8056 0.0
C642 C 0.66462 0.22087 0.83959 0.0
H643 H 0.5173 0.23665 0.78169 0.0
H644 H 0.56722 0.25018 0.80612 0.0
C645 C 0.68279 0.21128 0.86474 0.0
C646 C 0.65574 0.25447 0.76846 0.0
H647 H 0.62168 0.29379 0.78248 0.0
C648 C 0.63866 0.23559 0.71471 0.0
C649 C 0.65028 0.27639 0.79149 0.0
C650 C 0.66815 0.2972 0.84895 0.0
C651 C 0.61482 0.23647 0.6871 0.0
C652 C 0.60835 0.25753 0.71243 0.0
C653 C 0.62671 0.27776 0.76284 0.0
C654 C 0.58022 0.25559 0.69633 0.0
C655 C 0.59552 0.21327 0.63538 0.0
C656 C 0.57106 0.25527 0.62649 0.0
C657 C 0.54217 0.24686 0.61235 0.0
C658 C 0.52237 0.23964 0.66796 0.0
C659 C 0.53217 0.2422 0.73782 0.0
C660 C 0.56077 0.25012 0.75185 0.0
H661 H 0.60075 0.19566 0.63162 0.0
H662 H 0.57251 0.20361 0.6509 0.0
H663 H 0.59823 0.22287 0.58207 0.0
H664 H 0.58578 0.25991 0.58276 0.0
H665 H 0.535 0.24436 0.55803 0.0
H666 H 0.49686 0.73458 0.863 0.0
H667 H 0.44751 0.69938 0.82787 0.0
H668 H 0.42578 0.67429 0.04577 0.0
H669 H 0.47521 0.7096 0.08057 0.0
H670 H 0.42815 0.64312 0.84825 0.0
H671 H 0.35247 0.67125 0.97669 0.0
H672 H 0.39046 0.69693 0.96652 0.0
H673 H 0.37815 0.67091 0.03696 0.0
C674 C 0.48118 0.72224 0.90353 0.0
C675 C 0.48951 0.72517 0.9747 0.0
C676 C 0.45304 0.70215 0.88347 0.0
C677 C 0.43276 0.68437 0.93416 0.0
C678 C 0.44071 0.68829 0.00585 0.0
H679 H 0.28598 0.51735 0.95686 0.0
H680 H 0.32312 0.56779 0.97379 0.0
C681 C 0.46891 0.70859 0.02594 0.0
C682 C 0.40531 0.65884 0.91098 0.0
H683 H 0.33232 0.62219 0.9364 0.0
C684 C 0.40713 0.63882 0.86641 0.0
C685 C 0.37795 0.65313 0.9352 0.0
C686 C 0.37454 0.67432 0.98095 0.0
C687 C 0.3826 0.61268 0.84796 0.0
C688 C 0.35525 0.60658 0.87346 0.0
C689 C 0.35326 0.62697 0.91645 0.0
C690 C 0.32921 0.57787 0.86226 0.0
C691 C 0.38649 0.59115 0.80459 0.0
C692 C 0.31948 0.56701 0.79395 0.0
C693 C 0.29846 0.53799 0.78416 0.0
C694 C 0.28639 0.51966 0.84259 0.0
C695 C 0.29485 0.53109 0.91091 0.0
C696 C 0.31597 0.55993 0.92065 0.0
H697 H 0.40944 0.59669 0.80188 0.0
H698 H 0.37364 0.56908 0.82686 0.0
H699 H 0.37895 0.59083 0.74987 0.0
H700 H 0.32912 0.58059 0.74813 0.0
H701 H 0.2928 0.52957 0.73096 0.0
H702 H 0.73152 0.47838 0.13943 0.0
H703 H 0.71268 0.42773 0.10429 0.0
H704 H 0.79276 0.43365 0.1684 0.0
H705 H 0.81164 0.48399 0.20233 0.0
H706 H 0.74284 0.41372 0.99693 0.0
H707 H 0.72947 0.35371 0.24484 0.0
H708 H 0.72849 0.38701 0.24176 0.0
H709 H 0.76249 0.38778 0.2424 0.0
C710 C 0.74465 0.46848 0.14806 0.0
C711 C 0.77295 0.48494 0.17395 0.0
C712 C 0.73395 0.43966 0.12768 0.0
C713 C 0.75123 0.42686 0.13432 0.0
C714 C 0.77886 0.4429 0.16392 0.0
H715 H 0.81021 0.33345 0.93358 0.0
H716 H 0.79105 0.36492 0.96368 0.0
C717 C 0.78968 0.47169 0.1831 0.0
C718 C 0.74265 0.39836 0.10219 0.0
H719 H 0.74076 0.33512 0.14004 0.0
C720 C 0.74146 0.3961 0.02824 0.0
C721 C 0.74046 0.37522 0.14287 0.0
C722 C 0.74 0.37586 0.22245 0.0
C723 C 0.74106 0.3726 0.99394 0.0
C724 C 0.74205 0.35096 0.03468 0.0
C725 C 0.74025 0.3518 0.10861 0.0
C726 C 0.75026 0.33062 0.00317 0.0
C727 C 0.74128 0.37204 0.91435 0.0
C728 C 0.73344 0.30065 0.01365 0.0
C729 C 0.74438 0.28247 0.99575 0.0
C730 C 0.77248 0.29416 0.96849 0.0
C731 C 0.78846 0.32387 0.95428 0.0
C732 C 0.77745 0.34187 0.9712 0.0
H733 H 0.72898 0.3819 0.89228 0.0
H734 H 0.76387 0.38493 0.89541 0.0
H735 H 0.732 0.34973 0.89367 0.0
H736 H 0.71249 0.29155 0.03868 0.0
H737 H 0.73175 0.25968 0.00793 0.0
H738 H 0.48336 0.73555 0.19548 0.0
H739 H 0.43311 0.71387 0.23661 0.0
H740 H 0.42647 0.78273 0.13646 0.0
H741 H 0.47601 0.80377 0.09463 0.0
H742 H 0.41513 0.7394 0.32797 0.0
H743 H 0.34894 0.71533 0.08935 0.0
H744 H 0.38553 0.72208 0.08598 0.0
H745 H 0.37835 0.75161 0.08263 0.0
C746 C 0.47061 0.74521 0.17986 0.0
C747 C 0.48319 0.77092 0.14073 0.0
C748 C 0.44205 0.733 0.20381 0.0
C749 C 0.42575 0.74637 0.18875 0.0
C750 C 0.43815 0.77146 0.14713 0.0
H751 H 0.33344 0.80295 0.4064 0.0
H752 H 0.36467 0.78376 0.37417 0.0
C753 C 0.46654 0.7836 0.1235 0.0
C754 C 0.39762 0.73715 0.22407 0.0
H755 H 0.33266 0.73233 0.19224 0.0
C756 C 0.39673 0.73696 0.29826 0.0
C757 C 0.37315 0.73309 0.18588 0.0
C758 C 0.37148 0.73021 0.10654 0.0
C759 C 0.37341 0.73604 0.33477 0.0
C760 C 0.35081 0.73608 0.29608 0.0
C761 C 0.35022 0.73296 0.22227 0.0
C762 C 0.33051 0.74407 0.32907 0.0
C763 C 0.37386 0.7363 0.41441 0.0
C764 C 0.30071 0.72814 0.31533 0.0
C765 C 0.28281 0.73933 0.3335 0.0
C766 C 0.29444 0.76653 0.36576 0.0
C767 C 0.32387 0.78164 0.38295 0.0
C768 C 0.34171 0.77055 0.36483 0.0
H769 H 0.38432 0.7243 0.43477 0.0
H770 H 0.38675 0.7589 0.4333 0.0
H771 H 0.35178 0.7266 0.43689 0.0
H772 H 0.29161 0.70788 0.2869 0.0
H773 H 0.26042 0.72782 0.3172 0.0
loop_
_geom_bond_atom_site_label_1
_geom_bond_atom_site_label_2
_geom_bond_distance
_geom_bond_site_symmetry_2
_ccdc_geom_bond_type
Zn0 O6 1.920 . S
Zn0 O12 1.898 . S
Zn0 O15 1.905 . S
Zn1 O9 1.905 . S
Zn1 O10 1.898 . S
Zn1 O18 1.920 . S
Zn2 O5 2.080 . S
Zn2 O8 2.114 . S
Zn2 O11 2.120 . S
Zn2 O13 2.120 . S
Zn2 O14 2.114 . S
Zn2 O17 2.080 . S
C3 O8 1.166 . S
C3 O9 1.182 . S
C4 O10 1.167 . S
C4 O11 1.299 . S
O5 Zn2 2.080 . S
O5 C19 1.305 . S
O6 Zn0 1.920 . S
O6 C19 1.234 . S
C7 O12 1.167 . S
C7 O13 1.299 . S
O8 Zn2 2.114 . S
O8 C3 1.166 . S
O9 Zn1 1.905 . S
O9 C3 1.182 . S
O10 Zn1 1.898 . S
O10 C4 1.167 . S
O11 Zn2 2.120 . S
O11 C4 1.299 . S
O12 Zn0 1.898 . S
O12 C7 1.167 . S
O13 Zn2 2.120 . S
O13 C7 1.299 . S
O14 Zn2 2.114 . S
O14 C16 1.166 . S
O15 Zn0 1.905 . S
O15 C16 1.182 . S
C16 O14 1.166 . S
C16 O15 1.182 . S
O17 Zn2 2.080 . S
O17 C20 1.305 . S
O18 Zn1 1.920 . S
O18 C20 1.234 . S
C19 O5 1.305 . S
C19 O6 1.234 . S
C20 O17 1.305 . S
C20 O18 1.234 . S
Zn21 O27 1.920 . S
Zn21 O33 1.898 . S
Zn21 O36 1.905 . S
Zn22 O30 1.905 . S
Zn22 O31 1.898 . S
Zn22 O39 1.920 . S
Zn23 O26 2.080 . S
Zn23 O29 2.114 . S
Zn23 O32 2.120 . S
Zn23 O34 2.120 . S
Zn23 O35 2.114 . S
Zn23 O38 2.080 . S
C24 O29 1.166 . S
C24 O30 1.182 . S
C25 O31 1.167 . S
C25 O32 1.299 . S
O26 Zn23 2.080 . S
O26 C40 1.305 . S
O27 Zn21 1.920 . S
O27 C40 1.234 . S
C28 O33 1.167 . S
C28 O34 1.299 . S
O29 Zn23 2.114 . S
O29 C24 1.166 . S
O30 Zn22 1.905 . S
O30 C24 1.182 . S
O31 Zn22 1.898 . S
O31 C25 1.167 . S
O32 Zn23 2.120 . S
O32 C25 1.299 . S
O33 Zn21 1.898 . S
O33 C28 1.167 . S
O34 Zn23 2.120 . S
O34 C28 1.299 . S
O35 Zn23 2.114 . S
O35 C37 1.166 . S
O36 Zn21 1.905 . S
O36 C37 1.182 . S
C37 O35 1.166 . S
C37 O36 1.182 . S
O38 Zn23 2.080 . S
O38 C41 1.305 . S
O39 Zn22 1.920 . S
O39 C41 1.234 . S
C40 O26 1.305 . S
C40 O27 1.234 . S
C41 O38 1.305 . S
C41 O39 1.234 . S
Zn42 O48 1.920 . S
Zn42 O54 1.898 . S
Zn42 O57 1.905 . S
Zn43 O51 1.905 . S
Zn43 O52 1.898 . S
Zn43 O60 1.920 1_554 S
Zn44 O47 2.080 . S
Zn44 O50 2.114 1_556 S
Zn44 O53 2.120 . S
Zn44 O55 2.120 . S
Zn44 O56 2.114 . S
Zn44 O59 2.080 . S
C45 O50 1.166 . S
C45 O51 1.182 . S
C46 O52 1.167 1_556 S
C46 O53 1.299 . S
O47 Zn44 2.080 . S
O47 C61 1.305 . S
O48 Zn42 1.920 . S
O48 C61 1.234 . S
C49 O54 1.167 . S
C49 O55 1.299 . S
O50 Zn44 2.114 1_554 S
O50 C45 1.166 . S
O51 Zn43 1.905 . S
O51 C45 1.182 . S
O52 Zn43 1.898 . S
O52 C46 1.167 1_554 S
O53 Zn44 2.120 . S
O53 C46 1.299 . S
O54 Zn42 1.898 . S
O54 C49 1.167 . S
O55 Zn44 2.120 . S
O55 C49 1.299 . S
O56 Zn44 2.114 . S
O56 C58 1.166 . S
O57 Zn42 1.905 . S
O57 C58 1.182 . S
C58 O56 1.166 . S
C58 O57 1.182 . S
O59 Zn44 2.080 . S
O59 C62 1.305 . S
O60 Zn43 1.920 1_556 S
O60 C62 1.234 . S
C61 O47 1.305 . S
C61 O48 1.234 . S
C62 O59 1.305 . S
C62 O60 1.234 . S
Zn63 O69 1.920 . S
Zn63 O75 1.898 1_556 S
Zn63 O78 1.905 . S
Zn64 O72 1.905 . S
Zn64 O73 1.898 . S
Zn64 O81 1.920 . S
Zn65 O68 2.080 1_554 S
Zn65 O71 2.114 . S
Zn65 O74 2.120 . S
Zn65 O76 2.120 . S
Zn65 O77 2.114 . S
Zn65 O80 2.080 . S
C66 O71 1.166 . S
C66 O72 1.182 . S
C67 O73 1.167 . S
C67 O74 1.299 . S
O68 Zn65 2.080 1_556 S
O68 C82 1.305 . S
O69 Zn63 1.920 . S
O69 C82 1.234 . S
C70 O75 1.167 . S
C70 O76 1.299 . S
O71 Zn65 2.114 . S
O71 C66 1.166 . S
O72 Zn64 1.905 . S
O72 C66 1.182 . S
O73 Zn64 1.898 . S
O73 C67 1.167 . S
O74 Zn65 2.120 . S
O74 C67 1.299 . S
O75 Zn63 1.898 1_554 S
O75 C70 1.167 . S
O76 Zn65 2.120 . S
O76 C70 1.299 . S
O77 Zn65 2.114 . S
O77 C79 1.166 . S
O78 Zn63 1.905 . S
O78 C79 1.182 1_556 S
C79 O77 1.166 . S
C79 O78 1.182 1_554 S
O80 Zn65 2.080 . S
O80 C83 1.305 . S
O81 Zn64 1.920 . S
O81 C83 1.234 . S
C82 O68 1.305 . S
C82 O69 1.234 . S
C83 O80 1.305 . S
C83 O81 1.234 . S
Zn84 O90 1.920 . S
Zn84 O96 1.898 . S
Zn84 O99 1.905 . S
Zn85 O93 1.905 . S
Zn85 O94 1.898 . S
Zn85 O102 1.920 . S
Zn86 O89 2.080 . S
Zn86 O92 2.114 . S
Zn86 O95 2.120 . S
Zn86 O97 2.120 . S
Zn86 O98 2.114 . S
Zn86 O101 2.080 . S
C87 O92 1.166 . S
C87 O93 1.182 . S
C88 O94 1.167 . S
C88 O95 1.299 . S
O89 Zn86 2.080 . S
O89 C103 1.305 . S
O90 Zn84 1.920 . S
O90 C103 1.234 . S
C91 O96 1.167 . S
C91 O97 1.299 . S
O92 Zn86 2.114 . S
O92 C87 1.166 . S
O93 Zn85 1.905 . S
O93 C87 1.182 . S
O94 Zn85 1.898 . S
O94 C88 1.167 . S
O95 Zn86 2.120 . S
O95 C88 1.299 . S
O96 Zn84 1.898 . S
O96 C91 1.167 . S
O97 Zn86 2.120 . S
O97 C91 1.299 . S
O98 Zn86 2.114 . S
O98 C100 1.166 . S
O99 Zn84 1.905 . S
O99 C100 1.182 . S
C100 O98 1.166 . S
C100 O99 1.182 . S
O101 Zn86 2.080 . S
O101 C104 1.305 . S
O102 Zn85 1.920 . S
O102 C104 1.234 . S
C103 O89 1.305 . S
C103 O90 1.234 . S
C104 O101 1.305 . S
C104 O102 1.234 . S
Zn105 O111 1.920 . S
Zn105 O117 1.898 . S
Zn105 O120 1.905 . S
Zn106 O114 1.905 . S
Zn106 O115 1.898 . S
Zn106 O123 1.920 . S
Zn107 O110 2.080 . S
Zn107 O113 2.114 . S
Zn107 O116 2.120 . S
Zn107 O118 2.120 . S
Zn107 O119 2.114 . S
Zn107 O122 2.080 . S
C108 O113 1.166 . S
C108 O114 1.182 . S
C109 O115 1.167 . S
C109 O116 1.299 . S
O110 Zn107 2.080 . S
O110 C124 1.305 . S
O111 Zn105 1.920 . S
O111 C124 1.234 . S
C112 O117 1.167 . S
C112 O118 1.299 . S
O113 Zn107 2.114 . S
O113 C108 1.166 . S
O114 Zn106 1.905 . S
O114 C108 1.182 . S
O115 Zn106 1.898 . S
O115 C109 1.167 . S
O116 Zn107 2.120 . S
O116 C109 1.299 . S
O117 Zn105 1.898 . S
O117 C112 1.167 . S
O118 Zn107 2.120 . S
O118 C112 1.299 . S
O119 Zn107 2.114 . S
O119 C121 1.166 . S
O120 Zn105 1.905 . S
O120 C121 1.182 . S
C121 O119 1.166 . S
C121 O120 1.182 . S
O122 Zn107 2.080 . S
O122 C125 1.305 . S
O123 Zn106 1.920 . S
O123 C125 1.234 . S
C124 O110 1.305 . S
C124 O111 1.234 . S
C125 O122 1.305 . S
C125 O123 1.234 . S
H126 C134 0.929 . S
H127 C136 0.930 . S
H128 C138 0.930 . S
H129 C141 0.929 . S
H130 C144 0.930 . S
H131 C146 0.960 . S
H132 C146 0.960 . S
H133 C146 0.960 . S
C134 H126 0.929 . S
C134 C135 1.377 . S
C134 C136 1.384 . S
C135 C134 1.377 . S
C135 C141 1.390 . S
C136 H127 0.930 . S
C136 C134 1.384 . S
C136 C137 1.372 . S
C137 C136 1.372 . S
C137 C138 1.400 . S
C137 C142 1.490 . S
C138 H128 0.930 . S
C138 C137 1.400 . S
C138 C141 1.386 . S
H139 C155 0.930 . S
H140 C156 0.931 . S
C141 H129 0.929 . S
C141 C135 1.390 . S
C141 C138 1.386 . S
C142 C137 1.490 . S
C142 C144 1.395 . S
C142 C145 1.403 . S
H143 C149 0.930 . S
C144 H130 0.930 . S
C144 C142 1.395 . S
C144 C147 1.403 . S
C145 C142 1.403 . S
C145 C146 1.524 . S
C145 C149 1.400 . S
C146 H131 0.960 . S
C146 H132 0.960 . S
C146 H133 0.960 . S
C146 C145 1.524 . S
C147 C144 1.403 . S
C147 C148 1.392 . S
C147 C151 1.495 . S
C148 C147 1.392 . S
C148 C149 1.385 . S
C148 C150 1.478 1_554 S
C149 H143 0.930 . S
C149 C145 1.400 . S
C149 C148 1.385 . S
C150 C148 1.478 1_556 S
C150 C152 1.381 . S
C150 C156 1.383 . S
C151 C147 1.495 . S
C151 H157 0.959 . S
C151 H158 0.961 1_554 S
C151 H159 0.960 1_554 S
C152 C150 1.381 . S
C152 C153 1.394 . S
C152 H160 0.930 . S
C153 C152 1.394 . S
C153 C154 1.383 . S
C153 H161 0.929 . S
C154 C153 1.383 . S
C154 C155 1.377 . S
C155 H139 0.930 . S
C155 C154 1.377 . S
C155 C156 1.379 . S
C156 H140 0.931 . S
C156 C150 1.383 . S
C156 C155 1.379 . S
H157 C151 0.959 . S
H158 C151 0.961 1_556 S
H159 C151 0.960 1_556 S
H160 C152 0.930 . S
H161 C153 0.929 . S
H162 C170 0.929 . S
H163 C172 0.930 . S
H164 C174 0.930 . S
H165 C177 0.929 . S
H166 C180 0.930 . S
H167 C182 0.960 . S
H168 C182 0.960 . S
H169 C182 0.960 . S
C170 H162 0.929 . S
C170 C171 1.377 . S
C170 C172 1.384 . S
C171 C170 1.377 . S
C171 C177 1.390 . S
C172 H163 0.930 . S
C172 C170 1.384 . S
C172 C173 1.372 . S
C173 C172 1.372 . S
C173 C174 1.400 . S
C173 C178 1.490 . S
C174 H164 0.930 . S
C174 C173 1.400 . S
C174 C177 1.386 . S
H175 C191 0.930 . S
H176 C192 0.931 . S
C177 H165 0.929 . S
C177 C171 1.390 . S
C177 C174 1.386 . S
C178 C173 1.490 . S
C178 C180 1.395 . S
C178 C181 1.403 . S
H179 C185 0.930 . S
C180 H166 0.930 . S
C180 C178 1.395 . S
C180 C183 1.403 . S
C181 C178 1.403 . S
C181 C182 1.524 . S
C181 C185 1.400 . S
C182 H167 0.960 . S
C182 H168 0.960 . S
C182 H169 0.960 . S
C182 C181 1.524 . S
C183 C180 1.403 . S
C183 C184 1.392 . S
C183 C187 1.495 . S
C184 C183 1.392 . S
C184 C185 1.385 . S
C184 C186 1.478 . S
C185 H179 0.930 . S
C185 C181 1.400 . S
C185 C184 1.385 . S
C186 C184 1.478 . S
C186 C188 1.381 . S
C186 C192 1.383 . S
C187 C183 1.495 . S
C187 H193 0.959 . S
C187 H194 0.961 . S
C187 H195 0.960 . S
C188 C186 1.381 . S
C188 C189 1.394 1_554 S
C188 H196 0.930 . S
C189 C188 1.394 1_556 S
C189 C190 1.383 . S
C189 H197 0.929 . S
C190 C189 1.383 . S
C190 C191 1.377 . S
C191 H175 0.930 . S
C191 C190 1.377 . S
C191 C192 1.379 1_556 S
C192 H176 0.931 . S
C192 C186 1.383 . S
C192 C191 1.379 1_554 S
H193 C187 0.959 . S
H194 C187 0.961 . S
H195 C187 0.960 . S
H196 C188 0.930 . S
H197 C189 0.929 . S
H198 C206 0.929 . S
H199 C208 0.930 . S
H200 C210 0.930 . S
H201 C213 0.929 . S
H202 C216 0.930 . S
H203 C218 0.960 . S
H204 C218 0.960 . S
H205 C218 0.960 . S
C206 H198 0.929 . S
C206 C207 1.377 . S
C206 C208 1.384 . S
C207 C206 1.377 . S
C207 C213 1.390 . S
C208 H199 0.930 . S
C208 C206 1.384 . S
C208 C209 1.372 . S
C209 C208 1.372 . S
C209 C210 1.400 . S
C209 C214 1.490 . S
C210 H200 0.930 . S
C210 C209 1.400 . S
C210 C213 1.386 . S
H211 C227 0.930 . S
H212 C228 0.931 . S
C213 H201 0.929 . S
C213 C207 1.390 . S
C213 C210 1.386 . S
C214 C209 1.490 . S
C214 C216 1.395 . S
C214 C217 1.403 . S
H215 C221 0.930 . S
C216 H202 0.930 . S
C216 C214 1.395 . S
C216 C219 1.403 . S
C217 C214 1.403 . S
C217 C218 1.524 . S
C217 C221 1.400 . S
C218 H203 0.960 . S
C218 H204 0.960 . S
C218 H205 0.960 . S
C218 C217 1.524 . S
C219 C216 1.403 . S
C219 C220 1.392 . S
C219 C223 1.495 . S
C220 C219 1.392 . S
C220 C221 1.385 . S
C220 C222 1.478 . S
C221 H215 0.930 . S
C221 C217 1.400 . S
C221 C220 1.385 . S
C222 C220 1.478 . S
C222 C224 1.381 . S
C222 C228 1.383 . S
C223 C219 1.495 . S
C223 H229 0.959 . S
C223 H230 0.961 . S
C223 H231 0.960 . S
C224 C222 1.381 . S
C224 C225 1.394 . S
C224 H232 0.930 . S
C225 C224 1.394 . S
C225 C226 1.383 . S
C225 H233 0.929 . S
C226 C225 1.383 . S
C226 C227 1.377 . S
C227 H211 0.930 . S
C227 C226 1.377 . S
C227 C228 1.379 . S
C228 H212 0.931 . S
C228 C222 1.383 . S
C228 C227 1.379 . S
H229 C223 0.959 . S
H230 C223 0.961 . S
H231 C223 0.960 . S
H232 C224 0.930 . S
H233 C225 0.929 . S
H234 C242 0.929 . S
H235 C244 0.930 . S
H236 C246 0.930 . S
H237 C249 0.929 . S
H238 C252 0.930 . S
H239 C254 0.960 . S
H240 C254 0.960 . S
H241 C254 0.960 . S
C242 H234 0.929 . S
C242 C243 1.377 . S
C242 C244 1.384 . S
C243 C242 1.377 . S
C243 C249 1.390 . S
C244 H235 0.930 . S
C244 C242 1.384 . S
C244 C245 1.372 . S
C245 C244 1.372 . S
C245 C246 1.400 . S
C245 C250 1.490 . S
C246 H236 0.930 . S
C246 C245 1.400 . S
C246 C249 1.386 . S
H247 C263 0.930 . S
H248 C264 0.931 . S
C249 H237 0.929 . S
C249 C243 1.390 . S
C249 C246 1.386 . S
C250 C245 1.490 . S
C250 C252 1.395 . S
C250 C253 1.403 . S
H251 C257 0.930 . S
C252 H238 0.930 . S
C252 C250 1.395 . S
C252 C255 1.403 . S
C253 C250 1.403 . S
C253 C254 1.524 . S
C253 C257 1.400 . S
C254 H239 0.960 . S
C254 H240 0.960 . S
C254 H241 0.960 . S
C254 C253 1.524 . S
C255 C252 1.403 . S
C255 C256 1.392 . S
C255 C259 1.495 . S
C256 C255 1.392 . S
C256 C257 1.385 . S
C256 C258 1.478 . S
C257 H251 0.930 . S
C257 C253 1.400 . S
C257 C256 1.385 . S
C258 C256 1.478 . S
C258 C260 1.381 . S
C258 C264 1.383 . S
C259 C255 1.495 . S
C259 H265 0.959 . S
C259 H266 0.961 . S
C259 H267 0.960 . S
C260 C258 1.381 . S
C260 C261 1.394 . S
C260 H268 0.930 . S
C261 C260 1.394 . S
C261 C262 1.383 . S
C261 H269 0.929 . S
C262 C261 1.383 . S
C262 C263 1.377 . S
C263 H247 0.930 . S
C263 C262 1.377 . S
C263 C264 1.379 . S
C264 H248 0.931 . S
C264 C258 1.383 . S
C264 C263 1.379 . S
H265 C259 0.959 . S
H266 C259 0.961 . S
H267 C259 0.960 . S
H268 C260 0.930 . S
H269 C261 0.929 . S
H270 C278 0.929 . S
H271 C280 0.930 . S
H272 C282 0.930 . S
H273 C285 0.929 . S
H274 C288 0.930 . S
H275 C290 0.960 . S
H276 C290 0.960 . S
H277 C290 0.960 . S
C278 H270 0.929 . S
C278 C279 1.377 . S
C278 C280 1.384 . S
C279 C278 1.377 . S
C279 C285 1.390 . S
C280 H271 0.930 . S
C280 C278 1.384 . S
C280 C281 1.372 . S
C281 C280 1.372 . S
C281 C282 1.400 . S
C281 C286 1.490 . S
C282 H272 0.930 . S
C282 C281 1.400 . S
C282 C285 1.386 . S
H283 C299 0.930 . S
H284 C300 0.931 . S
C285 H273 0.929 . S
C285 C279 1.390 . S
C285 C282 1.386 . S
C286 C281 1.490 . S
C286 C288 1.395 . S
C286 C289 1.403 . S
H287 C293 0.930 . S
C288 H274 0.930 . S
C288 C286 1.395 . S
C288 C291 1.403 . S
C289 C286 1.403 . S
C289 C290 1.524 . S
C289 C293 1.400 . S
C290 H275 0.960 . S
C290 H276 0.960 . S
C290 H277 0.960 . S
C290 C289 1.524 . S
C291 C288 1.403 . S
C291 C292 1.392 . S
C291 C295 1.495 . S
C292 C291 1.392 . S
C292 C293 1.385 . S
C292 C294 1.478 . S
C293 H287 0.930 . S
C293 C289 1.400 . S
C293 C292 1.385 . S
C294 C292 1.478 . S
C294 C296 1.381 . S
C294 C300 1.383 . S
C295 C291 1.495 . S
C295 H301 0.959 . S
C295 H302 0.961 . S
C295 H303 0.960 . S
C296 C294 1.381 . S
C296 C297 1.394 1_556 S
C296 H304 0.930 . S
C297 C296 1.394 1_554 S
C297 C298 1.383 . S
C297 H305 0.929 . S
C298 C297 1.383 . S
C298 C299 1.377 . S
C299 H283 0.930 . S
C299 C298 1.377 . S
C299 C300 1.379 1_554 S
C300 H284 0.931 . S
C300 C294 1.383 . S
C300 C299 1.379 1_556 S
H301 C295 0.959 . S
H302 C295 0.961 . S
H303 C295 0.960 . S
H304 C296 0.930 . S
H305 C297 0.929 . S
H306 C314 0.929 . S
H307 C316 0.930 . S
H308 C318 0.930 . S
H309 C321 0.929 . S
H310 C324 0.930 . S
H311 C326 0.960 . S
H312 C326 0.960 . S
H313 C326 0.960 1_554 S
C314 H306 0.929 . S
C314 C315 1.377 . S
C314 C316 1.384 . S
C315 C314 1.377 . S
C315 C321 1.390 . S
C316 H307 0.930 . S
C316 C314 1.384 . S
C316 C317 1.372 . S
C317 C316 1.372 . S
C317 C318 1.400 . S
C317 C322 1.490 1_554 S
C318 H308 0.930 . S
C318 C317 1.400 . S
C318 C321 1.386 . S
H319 C335 0.930 . S
H320 C336 0.931 . S
C321 H309 0.929 . S
C321 C315 1.390 . S
C321 C318 1.386 . S
C322 C317 1.490 1_556 S
C322 C324 1.395 . S
C322 C325 1.403 . S
H323 C329 0.930 . S
C324 H310 0.930 . S
C324 C322 1.395 . S
C324 C327 1.403 . S
C325 C322 1.403 . S
C325 C326 1.524 . S
C325 C329 1.400 . S
C326 H311 0.960 . S
C326 H312 0.960 . S
C326 H313 0.960 1_556 S
C326 C325 1.524 . S
C327 C324 1.403 . S
C327 C328 1.392 . S
C327 C331 1.495 . S
C328 C327 1.392 . S
C328 C329 1.385 . S
C328 C330 1.478 . S
C329 H323 0.930 . S
C329 C325 1.400 . S
C329 C328 1.385 . S
C330 C328 1.478 . S
C330 C332 1.381 . S
C330 C336 1.383 . S
C331 C327 1.495 . S
C331 H337 0.959 . S
C331 H338 0.961 . S
C331 H339 0.960 . S
C332 C330 1.381 . S
C332 C333 1.394 . S
C332 H340 0.930 . S
C333 C332 1.394 . S
C333 C334 1.383 . S
C333 H341 0.929 . S
C334 C333 1.383 . S
C334 C335 1.377 . S
C335 H319 0.930 . S
C335 C334 1.377 . S
C335 C336 1.379 . S
C336 H320 0.931 . S
C336 C330 1.383 . S
C336 C335 1.379 . S
H337 C331 0.959 . S
H338 C331 0.961 . S
H339 C331 0.960 . S
H340 C332 0.930 . S
H341 C333 0.929 . S
H342 C350 0.929 . S
H343 C352 0.930 . S
H344 C354 0.930 . S
H345 C357 0.929 . S
H346 C360 0.930 . S
H347 C362 0.960 . S
H348 C362 0.960 . S
H349 C362 0.960 . S
C350 H342 0.929 . S
C350 C351 1.377 . S
C350 C352 1.384 . S
C351 C350 1.377 . S
C351 C357 1.390 . S
C352 H343 0.930 . S
C352 C350 1.384 . S
C352 C353 1.372 . S
C353 C352 1.372 . S
C353 C354 1.400 . S
C353 C358 1.490 . S
C354 H344 0.930 . S
C354 C353 1.400 . S
C354 C357 1.386 . S
H355 C371 0.930 . S
H356 C372 0.931 . S
C357 H345 0.929 . S
C357 C351 1.390 . S
C357 C354 1.386 . S
C358 C353 1.490 . S
C358 C360 1.395 . S
C358 C361 1.403 . S
H359 C365 0.930 . S
C360 H346 0.930 . S
C360 C358 1.395 . S
C360 C363 1.403 1_545 S
C361 C358 1.403 . S
C361 C362 1.524 . S
C361 C365 1.400 1_545 S
C362 H347 0.960 . S
C362 H348 0.960 . S
C362 H349 0.960 . S
C362 C361 1.524 . S
C363 C360 1.403 1_565 S
C363 C364 1.392 . S
C363 C367 1.495 . S
C364 C363 1.392 . S
C364 C365 1.385 . S
C364 C366 1.478 . S
C365 H359 0.930 . S
C365 C361 1.400 1_565 S
C365 C364 1.385 . S
C366 C364 1.478 . S
C366 C368 1.381 . S
C366 C372 1.383 . S
C367 C363 1.495 . S
C367 H373 0.959 . S
C367 H374 0.961 . S
C367 H375 0.960 . S
C368 C366 1.381 . S
C368 C369 1.394 . S
C368 H376 0.930 . S
C369 C368 1.394 . S
C369 C370 1.383 . S
C369 H377 0.929 . S
C370 C369 1.383 . S
C370 C371 1.377 . S
C371 H355 0.930 . S
C371 C370 1.377 . S
C371 C372 1.379 . S
C372 H356 0.931 . S
C372 C366 1.383 . S
C372 C371 1.379 . S
H373 C367 0.959 . S
H374 C367 0.961 . S
H375 C367 0.960 . S
H376 C368 0.930 . S
H377 C369 0.929 . S
H378 C386 0.929 . S
H379 C388 0.930 . S
H380 C390 0.930 . S
H381 C393 0.929 . S
H382 C396 0.930 . S
H383 C398 0.960 . S
H384 C398 0.960 . S
H385 C398 0.960 . S
C386 H378 0.929 . S
C386 C387 1.377 . S
C386 C388 1.384 . S
C387 C386 1.377 . S
C387 C393 1.390 . S
C388 H379 0.930 . S
C388 C386 1.384 . S
C388 C389 1.372 . S
C389 C388 1.372 . S
C389 C390 1.400 . S
C389 C394 1.490 . S
C390 H380 0.930 . S
C390 C389 1.400 . S
C390 C393 1.386 . S
H391 C407 0.930 . S
H392 C408 0.931 . S
C393 H381 0.929 . S
C393 C387 1.390 . S
C393 C390 1.386 . S
C394 C389 1.490 . S
C394 C396 1.395 . S
C394 C397 1.403 . S
H395 C401 0.930 . S
C396 H382 0.930 . S
C396 C394 1.395 . S
C396 C399 1.403 . S
C397 C394 1.403 . S
C397 C398 1.524 . S
C397 C401 1.400 . S
C398 H383 0.960 . S
C398 H384 0.960 . S
C398 H385 0.960 . S
C398 C397 1.524 . S
C399 C396 1.403 . S
C399 C400 1.392 . S
C399 C403 1.495 . S
C400 C399 1.392 . S
C400 C401 1.385 . S
C400 C402 1.478 . S
C401 H395 0.930 . S
C401 C397 1.400 . S
C401 C400 1.385 . S
C402 C400 1.478 . S
C402 C404 1.381 . S
C402 C408 1.383 . S
C403 C399 1.495 . S
C403 H409 0.959 . S
C403 H410 0.961 . S
C403 H411 0.960 . S
C404 C402 1.381 . S
C404 C405 1.394 . S
C404 H412 0.930 . S
C405 C404 1.394 . S
C405 C406 1.383 . S
C405 H413 0.929 . S
C406 C405 1.383 . S
C406 C407 1.377 . S
C407 H391 0.930 . S
C407 C406 1.377 . S
C407 C408 1.379 . S
C408 H392 0.931 . S
C408 C402 1.383 . S
C408 C407 1.379 . S
H409 C403 0.959 . S
H410 C403 0.961 . S
H411 C403 0.960 . S
H412 C404 0.930 . S
H413 C405 0.929 . S
H414 C422 0.929 . S
H415 C424 0.930 . S
H416 C426 0.930 . S
H417 C429 0.929 . S
H418 C432 0.930 . S
H419 C434 0.960 . S
H420 C434 0.960 . S
H421 C434 0.960 . S
C422 H414 0.929 . S
C422 C423 1.377 . S
C422 C424 1.384 . S
C423 C422 1.377 . S
C423 C429 1.390 . S
C424 H415 0.930 . S
C424 C422 1.384 . S
C424 C425 1.372 . S
C425 C424 1.372 . S
C425 C426 1.400 . S
C425 C430 1.490 . S
C426 H416 0.930 . S
C426 C425 1.400 . S
C426 C429 1.386 . S
H427 C443 0.930 . S
H428 C444 0.931 . S
C429 H417 0.929 . S
C429 C423 1.390 . S
C429 C426 1.386 . S
C430 C425 1.490 . S
C430 C432 1.395 . S
C430 C433 1.403 . S
H431 C437 0.930 . S
C432 H418 0.930 . S
C432 C430 1.395 . S
C432 C435 1.403 1_655 S
C433 C430 1.403 . S
C433 C434 1.524 . S
C433 C437 1.400 1_655 S
C434 H419 0.960 . S
C434 H420 0.960 . S
C434 H421 0.960 . S
C434 C433 1.524 . S
C435 C432 1.403 1_455 S
C435 C436 1.392 . S
C435 C439 1.495 . S
C436 C435 1.392 . S
C436 C437 1.385 . S
C436 C438 1.478 . S
C437 H431 0.930 . S
C437 C433 1.400 1_455 S
C437 C436 1.385 . S
C438 C436 1.478 . S
C438 C440 1.381 . S
C438 C444 1.383 . S
C439 C435 1.495 . S
C439 H445 0.959 . S
C439 H446 0.961 . S
C439 H447 0.960 . S
C440 C438 1.381 . S
C440 C441 1.394 . S
C440 H448 0.930 . S
C441 C440 1.394 . S
C441 C442 1.383 . S
C441 H449 0.929 . S
C442 C441 1.383 . S
C442 C443 1.377 . S
C443 H427 0.930 . S
C443 C442 1.377 . S
C443 C444 1.379 . S
C444 H428 0.931 . S
C444 C438 1.383 . S
C444 C443 1.379 . S
H445 C439 0.959 . S
H446 C439 0.961 . S
H447 C439 0.960 . S
H448 C440 0.930 . S
H449 C441 0.929 . S
H450 C458 0.929 . S
H451 C460 0.930 1_556 S
H452 C462 0.930 . S
H453 C465 0.929 . S
H454 C468 0.930 . S
H455 C470 0.960 . S
H456 C470 0.960 . S
H457 C470 0.960 . S
C458 H450 0.929 . S
C458 C459 1.377 . S
C458 C460 1.384 . S
C459 C458 1.377 . S
C459 C465 1.390 . S
C460 H451 0.930 1_554 S
C460 C458 1.384 . S
C460 C461 1.372 . S
C461 C460 1.372 . S
C461 C462 1.400 . S
C461 C466 1.490 . S
C462 H452 0.930 . S
C462 C461 1.400 . S
C462 C465 1.386 . S
H463 C479 0.930 . S
H464 C480 0.932 . S
C465 H453 0.929 . S
C465 C459 1.390 . S
C465 C462 1.386 . S
C466 C461 1.490 . S
C466 C468 1.395 . S
C466 C469 1.403 1_554 S
H467 C473 0.930 . S
C468 H454 0.930 . S
C468 C466 1.395 . S
C468 C471 1.403 1_565 S
C469 C466 1.403 1_556 S
C469 C470 1.524 . S
C469 C473 1.400 1_565 S
C470 H455 0.960 . S
C470 H456 0.960 . S
C470 H457 0.960 . S
C470 C469 1.524 . S
C471 C468 1.403 1_545 S
C471 C472 1.392 1_554 S
C471 C475 1.495 . S
C472 C471 1.392 1_556 S
C472 C473 1.385 . S
C472 C474 1.478 . S
C473 H467 0.930 . S
C473 C469 1.400 1_545 S
C473 C472 1.385 . S
C474 C472 1.478 . S
C474 C476 1.381 . S
C474 C480 1.382 1_556 S
C475 C471 1.495 . S
C475 H481 0.959 . S
C475 H482 0.961 . S
C475 H483 0.960 . S
C476 C474 1.381 . S
C476 C477 1.394 . S
C476 H484 0.930 . S
C477 C476 1.394 . S
C477 C478 1.383 . S
C477 H485 0.929 . S
C478 C477 1.383 . S
C478 C479 1.377 . S
C479 H463 0.930 . S
C479 C478 1.377 . S
C479 C480 1.379 1_556 S
C480 H464 0.932 . S
C480 C474 1.382 1_554 S
C480 C479 1.379 1_554 S
H481 C475 0.959 . S
H482 C475 0.961 . S
H483 C475 0.960 . S
H484 C476 0.930 . S
H485 C477 0.929 . S
H486 C494 0.929 . S
H487 C496 0.930 . S
H488 C498 0.930 . S
H489 C501 0.929 . S
H490 C504 0.930 . S
H491 C506 0.960 . S
H492 C506 0.960 . S
H493 C506 0.960 . S
C494 H486 0.929 . S
C494 C495 1.377 . S
C494 C496 1.384 . S
C495 C494 1.377 . S
C495 C501 1.390 . S
C496 H487 0.930 . S
C496 C494 1.384 . S
C496 C497 1.372 . S
C497 C496 1.372 . S
C497 C498 1.400 . S
C497 C502 1.490 . S
C498 H488 0.930 . S
C498 C497 1.400 . S
C498 C501 1.386 . S
H499 C515 0.930 . S
H500 C516 0.931 . S
C501 H489 0.929 . S
C501 C495 1.390 . S
C501 C498 1.386 . S
C502 C497 1.490 . S
C502 C504 1.395 . S
C502 C505 1.403 . S
H503 C509 0.930 . S
C504 H490 0.930 . S
C504 C502 1.395 . S
C504 C507 1.403 . S
C505 C502 1.403 . S
C505 C506 1.524 . S
C505 C509 1.400 . S
C506 H491 0.960 . S
C506 H492 0.960 . S
C506 H493 0.960 . S
C506 C505 1.524 . S
C507 C504 1.403 . S
C507 C508 1.392 . S
C507 C511 1.495 . S
C508 C507 1.392 . S
C508 C509 1.385 . S
C508 C510 1.478 . S
C509 H503 0.930 . S
C509 C505 1.400 . S
C509 C508 1.385 . S
C510 C508 1.478 . S
C510 C512 1.381 . S
C510 C516 1.383 . S
C511 C507 1.495 . S
C511 H517 0.959 . S
C511 H518 0.961 . S
C511 H519 0.960 . S
C512 C510 1.381 . S
C512 C513 1.394 . S
C512 H520 0.930 . S
C513 C512 1.394 . S
C513 C514 1.383 . S
C513 H521 0.929 . S
C514 C513 1.383 . S
C514 C515 1.377 . S
C515 H499 0.930 . S
C515 C514 1.377 . S
C515 C516 1.379 . S
C516 H500 0.931 . S
C516 C510 1.383 . S
C516 C515 1.379 . S
H517 C511 0.959 . S
H518 C511 0.961 . S
H519 C511 0.960 . S
H520 C512 0.930 . S
H521 C513 0.929 . S
H522 C530 0.929 . S
H523 C532 0.930 . S
H524 C534 0.930 . S
H525 C537 0.929 . S
H526 C540 0.930 . S
H527 C542 0.960 . S
H528 C542 0.960 . S
H529 C542 0.960 . S
C530 H522 0.929 . S
C530 C531 1.377 . S
C530 C532 1.384 . S
C531 C530 1.377 . S
C531 C537 1.390 . S
C532 H523 0.930 . S
C532 C530 1.384 . S
C532 C533 1.372 . S
C533 C532 1.372 . S
C533 C534 1.400 . S
C533 C538 1.490 . S
C534 H524 0.930 . S
C534 C533 1.400 . S
C534 C537 1.386 . S
H535 C551 0.930 . S
H536 C552 0.931 . S
C537 H525 0.929 . S
C537 C531 1.390 . S
C537 C534 1.386 . S
C538 C533 1.490 . S
C538 C540 1.395 . S
C538 C541 1.403 . S
H539 C545 0.930 . S
C540 H526 0.930 . S
C540 C538 1.395 . S
C540 C543 1.403 1_655 S
C541 C538 1.403 . S
C541 C542 1.524 . S
C541 C545 1.400 1_655 S
C542 H527 0.960 . S
C542 H528 0.960 . S
C542 H529 0.960 . S
C542 C541 1.524 . S
C543 C540 1.403 1_455 S
C543 C544 1.392 . S
C543 C547 1.495 . S
C544 C543 1.392 . S
C544 C545 1.385 . S
C544 C546 1.478 . S
C545 H539 0.930 . S
C545 C541 1.400 1_455 S
C545 C544 1.385 . S
C546 C544 1.478 . S
C546 C548 1.381 . S
C546 C552 1.383 . S
C547 C543 1.495 . S
C547 H553 0.959 . S
C547 H554 0.961 . S
C547 H555 0.960 . S
C548 C546 1.381 . S
C548 C549 1.394 . S
C548 H556 0.930 . S
C549 C548 1.394 . S
C549 C550 1.383 . S
C549 H557 0.929 . S
C550 C549 1.383 . S
C550 C551 1.377 . S
C551 H535 0.930 . S
C551 C550 1.377 . S
C551 C552 1.379 . S
C552 H536 0.931 . S
C552 C546 1.383 . S
C552 C551 1.379 . S
H553 C547 0.959 . S
H554 C547 0.961 . S
H555 C547 0.960 . S
H556 C548 0.930 . S
H557 C549 0.929 . S
H558 C566 0.929 . S
H559 C568 0.930 . S
H560 C570 0.930 . S
H561 C573 0.929 . S
H562 C576 0.930 . S
H563 C578 0.960 . S
H564 C578 0.960 . S
H565 C578 0.960 . S
C566 H558 0.929 . S
C566 C567 1.377 . S
C566 C568 1.384 . S
C567 C566 1.377 . S
C567 C573 1.390 . S
C568 H559 0.930 . S
C568 C566 1.384 . S
C568 C569 1.372 . S
C569 C568 1.372 . S
C569 C570 1.400 . S
C569 C574 1.490 . S
C570 H560 0.930 . S
C570 C569 1.400 . S
C570 C573 1.386 . S
H571 C587 0.930 . S
H572 C588 0.931 . S
C573 H561 0.929 . S
C573 C567 1.390 . S
C573 C570 1.386 . S
C574 C569 1.490 . S
C574 C576 1.395 . S
C574 C577 1.403 . S
H575 C581 0.930 . S
C576 H562 0.930 . S
C576 C574 1.395 . S
C576 C579 1.403 . S
C577 C574 1.403 . S
C577 C578 1.524 . S
C577 C581 1.400 . S
C578 H563 0.960 . S
C578 H564 0.960 . S
C578 H565 0.960 . S
C578 C577 1.524 . S
C579 C576 1.403 . S
C579 C580 1.392 . S
C579 C583 1.495 . S
C580 C579 1.392 . S
C580 C581 1.385 . S
C580 C582 1.478 . S
C581 H575 0.930 . S
C581 C577 1.400 . S
C581 C580 1.385 . S
C582 C580 1.478 . S
C582 C584 1.381 . S
C582 C588 1.383 . S
C583 C579 1.495 . S
C583 H589 0.959 . S
C583 H590 0.961 . S
C583 H591 0.960 . S
C584 C582 1.381 . S
C584 C585 1.394 . S
C584 H592 0.930 . S
C585 C584 1.394 . S
C585 C586 1.383 . S
C585 H593 0.929 . S
C586 C585 1.383 . S
C586 C587 1.377 . S
C587 H571 0.930 . S
C587 C586 1.377 . S
C587 C588 1.379 . S
C588 H572 0.931 . S
C588 C582 1.383 . S
C588 C587 1.379 . S
H589 C583 0.959 . S
H590 C583 0.961 . S
H591 C583 0.960 . S
H592 C584 0.930 . S
H593 C585 0.929 . S
H594 C602 0.929 . S
H595 C604 0.930 . S
H596 C606 0.930 . S
H597 C609 0.929 . S
H598 C612 0.930 . S
H599 C614 0.960 . S
H600 C614 0.960 . S
H601 C614 0.960 . S
C602 H594 0.929 . S
C602 C603 1.377 . S
C602 C604 1.384 . S
C603 C602 1.377 . S
C603 C609 1.390 . S
C604 H595 0.930 . S
C604 C602 1.384 . S
C604 C605 1.372 . S
C605 C604 1.372 . S
C605 C606 1.400 . S
C605 C610 1.490 . S
C606 H596 0.930 . S
C606 C605 1.400 . S
C606 C609 1.386 . S
H607 C623 0.930 . S
H608 C624 0.931 . S
C609 H597 0.929 . S
C609 C603 1.390 . S
C609 C606 1.386 . S
C610 C605 1.490 . S
C610 C612 1.395 . S
C610 C613 1.403 . S
H611 C617 0.930 . S
C612 H598 0.930 . S
C612 C610 1.395 . S
C612 C615 1.403 . S
C613 C610 1.403 . S
C613 C614 1.524 . S
C613 C617 1.400 . S
C614 H599 0.960 . S
C614 H600 0.960 . S
C614 H601 0.960 . S
C614 C613 1.524 . S
C615 C612 1.403 . S
C615 C616 1.392 . S
C615 C619 1.495 . S
C616 C615 1.392 . S
C616 C617 1.385 . S
C616 C618 1.478 . S
C617 H611 0.930 . S
C617 C613 1.400 . S
C617 C616 1.385 . S
C618 C616 1.478 . S
C618 C620 1.381 . S
C618 C624 1.383 . S
C619 C615 1.495 . S
C619 H625 0.959 . S
C619 H626 0.961 . S
C619 H627 0.960 . S
C620 C618 1.381 . S
C620 C621 1.394 . S
C620 H628 0.930 . S
C621 C620 1.394 . S
C621 C622 1.383 . S
C621 H629 0.929 . S
C622 C621 1.383 . S
C622 C623 1.377 . S
C623 H607 0.930 . S
C623 C622 1.377 . S
C623 C624 1.379 . S
C624 H608 0.931 . S
C624 C618 1.383 . S
C624 C623 1.379 . S
H625 C619 0.959 . S
H626 C619 0.961 . S
H627 C619 0.960 . S
H628 C620 0.930 . S
H629 C621 0.929 . S
H630 C638 0.929 . S
H631 C640 0.930 . S
H632 C642 0.930 . S
H633 C645 0.929 . S
H634 C648 0.930 . S
H635 C650 0.960 . S
H636 C650 0.960 . S
H637 C650 0.960 . S
C638 H630 0.929 . S
C638 C639 1.377 . S
C638 C640 1.384 . S
C639 C638 1.377 . S
C639 C645 1.390 . S
C640 H631 0.930 . S
C640 C638 1.384 . S
C640 C641 1.372 . S
C641 C640 1.372 . S
C641 C642 1.400 . S
C641 C646 1.490 . S
C642 H632 0.930 . S
C642 C641 1.400 . S
C642 C645 1.386 . S
H643 C659 0.930 . S
H644 C660 0.931 . S
C645 H633 0.929 . S
C645 C639 1.390 . S
C645 C642 1.386 . S
C646 C641 1.490 . S
C646 C648 1.395 . S
C646 C649 1.403 . S
H647 C653 0.930 . S
C648 H634 0.930 . S
C648 C646 1.395 . S
C648 C651 1.403 . S
C649 C646 1.403 . S
C649 C650 1.524 . S
C649 C653 1.400 . S
C650 H635 0.960 . S
C650 H636 0.960 . S
C650 H637 0.960 . S
C650 C649 1.524 . S
C651 C648 1.403 . S
C651 C652 1.392 . S
C651 C655 1.495 . S
C652 C651 1.392 . S
C652 C653 1.385 . S
C652 C654 1.478 . S
C653 H647 0.930 . S
C653 C649 1.400 . S
C653 C652 1.385 . S
C654 C652 1.478 . S
C654 C656 1.381 . S
C654 C660 1.383 . S
C655 C651 1.495 . S
C655 H661 0.959 . S
C655 H662 0.961 . S
C655 H663 0.960 . S
C656 C654 1.381 . S
C656 C657 1.394 . S
C656 H664 0.930 . S
C657 C656 1.394 . S
C657 C658 1.383 . S
C657 H665 0.929 . S
C658 C657 1.383 . S
C658 C659 1.377 . S
C659 H643 0.930 . S
C659 C658 1.377 . S
C659 C660 1.379 . S
C660 H644 0.931 . S
C660 C654 1.383 . S
C660 C659 1.379 . S
H661 C655 0.959 . S
H662 C655 0.961 . S
H663 C655 0.960 . S
H664 C656 0.930 . S
H665 C657 0.929 . S
H666 C674 0.929 . S
H667 C676 0.930 . S
H668 C678 0.930 . S
H669 C681 0.929 . S
H670 C684 0.930 . S
H671 C686 0.960 . S
H672 C686 0.960 1_556 S
H673 C686 0.960 . S
C674 H666 0.929 . S
C674 C675 1.377 1_556 S
C674 C676 1.384 . S
C675 C674 1.377 1_554 S
C675 C681 1.390 . S
C676 H667 0.930 . S
C676 C674 1.384 . S
C676 C677 1.372 . S
C677 C676 1.372 . S
C677 C678 1.400 1_556 S
C677 C682 1.490 . S
C678 H668 0.930 . S
C678 C677 1.400 1_554 S
C678 C681 1.386 . S
H679 C695 0.930 . S
H680 C696 0.931 . S
C681 H669 0.929 . S
C681 C675 1.390 . S
C681 C678 1.386 . S
C682 C677 1.490 . S
C682 C684 1.395 . S
C682 C685 1.403 . S
H683 C689 0.930 . S
C684 H670 0.930 . S
C684 C682 1.395 . S
C684 C687 1.403 . S
C685 C682 1.403 . S
C685 C686 1.524 1_556 S
C685 C689 1.400 . S
C686 H671 0.960 . S
C686 H672 0.960 1_554 S
C686 H673 0.960 . S
C686 C685 1.524 1_554 S
C687 C684 1.403 . S
C687 C688 1.392 . S
C687 C691 1.495 . S
C688 C687 1.392 . S
C688 C689 1.385 . S
C688 C690 1.478 . S
C689 H683 0.930 . S
C689 C685 1.400 . S
C689 C688 1.385 . S
C690 C688 1.478 . S
C690 C692 1.381 . S
C690 C696 1.383 . S
C691 C687 1.495 . S
C691 H697 0.959 . S
C691 H698 0.961 . S
C691 H699 0.960 . S
C692 C690 1.381 . S
C692 C693 1.394 . S
C692 H700 0.930 . S
C693 C692 1.394 . S
C693 C694 1.383 . S
C693 H701 0.929 . S
C694 C693 1.383 . S
C694 C695 1.377 . S
C695 H679 0.930 . S
C695 C694 1.377 . S
C695 C696 1.379 . S
C696 H680 0.931 . S
C696 C690 1.383 . S
C696 C695 1.379 . S
H697 C691 0.959 . S
H698 C691 0.961 . S
H699 C691 0.960 . S
H700 C692 0.930 . S
H701 C693 0.929 . S
H702 C710 0.929 . S
H703 C712 0.930 . S
H704 C714 0.930 . S
H705 C717 0.929 . S
H706 C720 0.930 . S
H707 C722 0.960 . S
H708 C722 0.960 . S
H709 C722 0.960 . S
C710 H702 0.929 . S
C710 C711 1.377 . S
C710 C712 1.384 . S
C711 C710 1.377 . S
C711 C717 1.390 . S
C712 H703 0.930 . S
C712 C710 1.384 . S
C712 C713 1.372 . S
C713 C712 1.372 . S
C713 C714 1.400 . S
C713 C718 1.490 . S
C714 H704 0.930 . S
C714 C713 1.400 . S
C714 C717 1.386 . S
H715 C731 0.930 . S
H716 C732 0.931 . S
C717 H705 0.929 . S
C717 C711 1.390 . S
C717 C714 1.386 . S
C718 C713 1.490 . S
C718 C720 1.395 . S
C718 C721 1.403 . S
H719 C725 0.930 . S
C720 H706 0.930 . S
C720 C718 1.395 . S
C720 C723 1.403 . S
C721 C718 1.403 . S
C721 C722 1.524 . S
C721 C725 1.400 . S
C722 H707 0.960 . S
C722 H708 0.960 . S
C722 H709 0.960 . S
C722 C721 1.524 . S
C723 C720 1.403 . S
C723 C724 1.392 . S
C723 C727 1.495 1_554 S
C724 C723 1.392 . S
C724 C725 1.385 . S
C724 C726 1.478 . S
C725 H719 0.930 . S
C725 C721 1.400 . S
C725 C724 1.385 . S
C726 C724 1.478 . S
C726 C728 1.381 1_554 S
C726 C732 1.383 . S
C727 C723 1.495 1_556 S
C727 H733 0.959 . S
C727 H734 0.961 . S
C727 H735 0.960 . S
C728 C726 1.381 1_556 S
C728 C729 1.394 . S
C728 H736 0.930 . S
C729 C728 1.394 . S
C729 C730 1.383 . S
C729 H737 0.929 . S
C730 C729 1.383 . S
C730 C731 1.377 . S
C731 H715 0.930 . S
C731 C730 1.377 . S
C731 C732 1.379 1_556 S
C732 H716 0.931 . S
C732 C726 1.383 . S
C732 C731 1.379 1_554 S
H733 C727 0.959 . S
H734 C727 0.961 . S
H735 C727 0.960 . S
H736 C728 0.930 . S
H737 C729 0.929 . S
H738 C746 0.929 . S
H739 C748 0.930 . S
H740 C750 0.930 . S
H741 C753 0.929 . S
H742 C756 0.930 . S
H743 C758 0.960 . S
H744 C758 0.960 . S
H745 C758 0.960 . S
C746 H738 0.929 . S
C746 C747 1.377 . S
C746 C748 1.384 . S
C747 C746 1.377 . S
C747 C753 1.390 . S
C748 H739 0.930 . S
C748 C746 1.384 . S
C748 C749 1.372 . S
C749 C748 1.372 . S
C749 C750 1.400 . S
C749 C754 1.490 . S
C750 H740 0.930 . S
C750 C749 1.400 . S
C750 C753 1.386 . S
H751 C767 0.930 . S
H752 C768 0.931 . S
C753 H741 0.929 . S
C753 C747 1.390 . S
C753 C750 1.386 . S
C754 C749 1.490 . S
C754 C756 1.395 . S
C754 C757 1.403 . S
H755 C761 0.930 . S
C756 H742 0.930 . S
C756 C754 1.395 . S
C756 C759 1.403 . S
C757 C754 1.403 . S
C757 C758 1.524 . S
C757 C761 1.400 . S
C758 H743 0.960 . S
C758 H744 0.960 . S
C758 H745 0.960 . S
C758 C757 1.524 . S
C759 C756 1.403 . S
C759 C760 1.392 . S
C759 C763 1.495 . S
C760 C759 1.392 . S
C760 C761 1.385 . S
C760 C762 1.478 . S
C761 H755 0.930 . S
C761 C757 1.400 . S
C761 C760 1.385 . S
C762 C760 1.478 . S
C762 C764 1.381 . S
C762 C768 1.383 . S
C763 C759 1.495 . S
C763 H769 0.959 . S
C763 H770 0.961 . S
C763 H771 0.960 . S
C764 C762 1.381 . S
C764 C765 1.394 . S
C764 H772 0.930 . S
C765 C764 1.394 . S
C765 C766 1.383 . S
C765 H773 0.929 . S
C766 C765 1.383 . S
C766 C767 1.377 . S
C767 H751 0.930 . S
C767 C766 1.377 . S
C767 C768 1.379 . S
C768 H752 0.931 . S
C768 C762 1.383 . S
C768 C767 1.379 . S
H769 C763 0.959 . S
H770 C763 0.961 . S
H771 C763 0.960 . S
H772 C764 0.930 . S
H773 C765 0.929 . S
C135 C19 0.924 . S
C154 C3 0.878 . S
C171 C40 0.944 . S
C190 C24 0.978 . S
C207 C45 0.948 . S
C226 C61 0.996 . S
C243 C66 0.943 . S
C262 C82 0.950 . S
C279 C87 0.944 . S
C298 C103 0.993 . S
C315 C124 0.945 . S
C334 C108 1.000 . S
C351 C20 1.393 . S
C370 C112 1.421 . S
C387 C7 1.387 . S
C406 C41 1.434 . S
C423 C62 1.409 . S
C442 C28 1.377 . S
C459 C83 1.406 . S
C478 C49 1.400 . S
C495 C104 1.410 . S
C514 C70 1.371 . S
C531 C91 1.403 . S
C550 C125 1.372 . S
C567 C16 1.589 . S
C586 C88 1.548 . S
C603 C37 1.591 . S
C622 C109 1.552 . S
C639 C58 1.602 . S
C658 C4 1.604 . S
C675 C79 1.597 . S
C694 C25 1.576 . S
C711 C100 1.603 . S
C730 C46 1.619 . S
C747 C67 1.596 . S
C766 C121 1.623 . S
