# Generated by pormake.
# Topology ulj, (4)-cn, num edge types: 1
# Building blocks:
#     Node 0, Type 0, BuildingBlock: KOZSID_clean_sbu_0, # of connection points: 4
#     Node 1, Type 0, BuildingBlock: KOZSID_clean_sbu_0, # of connection points: 4
#     Node 2, Type 0, BuildingBlock: KOZSID_clean_sbu_0, # of connection points: 4
#     Node 3, Type 0, BuildingBlock: KOZSID_clean_sbu_0, # of connection points: 4
#     Node 4, Type 0, BuildingBlock: KOZSID_clean_sbu_0, # of connection points: 4
#     Node 5, Type 0, BuildingBlock: KOZSID_clean_sbu_0, # of connection points: 4
#     Node 6, Type 0, BuildingBlock: KOZSID_clean_sbu_0, # of connection points: 4
#     Node 7, Type 0, BuildingBlock: KOZSID_clean_sbu_0, # of connection points: 4
#     Node 8, Type 0, BuildingBlock: KOZSID_clean_sbu_0, # of connection points: 4
#     Node 9, Type 0, BuildingBlock: KOZSID_clean_sbu_0, # of connection points: 4
#     Node 10, Type 0, BuildingBlock: KOZSID_clean_sbu_0, # of connection points: 4
#     Node 11, Type 0, BuildingBlock: KOZSID_clean_sbu_0, # of connection points: 4
#     Node 12, Type 0, BuildingBlock: KOZSID_clean_sbu_0, # of connection points: 4
#     Node 13, Type 0, BuildingBlock: KOZSID_clean_sbu_0, # of connection points: 4
#     Node 14, Type 0, BuildingBlock: KOZSID_clean_sbu_0, # of connection points: 4
#     Node 15, Type 0, BuildingBlock: KOZSID_clean_sbu_0, # of connection points: 4
#     Node 16, Type 0, BuildingBlock: KOZSID_clean_sbu_0, # of connection points: 4
#     Node 17, Type 0, BuildingBlock: KOZSID_clean_sbu_0, # of connection points: 4
#     Node 18, Type 0, BuildingBlock: KOZSID_clean_sbu_0, # of connection points: 4
#     Node 19, Type 0, BuildingBlock: KOZSID_clean_sbu_0, # of connection points: 4
#     Node 20, Type 0, BuildingBlock: KOZSID_clean_sbu_0, # of connection points: 4
#     Node 21, Type 0, BuildingBlock: KOZSID_clean_sbu_0, # of connection points: 4
#     Node 22, Type 0, BuildingBlock: KOZSID_clean_sbu_0, # of connection points: 4
#     Node 23, Type 0, BuildingBlock: KOZSID_clean_sbu_0, # of connection points: 4
#     Node 24, Type 0, BuildingBlock: KOZSID_clean_sbu_0, # of connection points: 4
#     Node 25, Type 0, BuildingBlock: KOZSID_clean_sbu_0, # of connection points: 4
#     Node 26, Type 0, BuildingBlock: KOZSID_clean_sbu_0, # of connection points: 4
#     Node 27, Type 0, BuildingBlock: KOZSID_clean_sbu_0, # of connection points: 4
#     Node 28, Type 0, BuildingBlock: KOZSID_clean_sbu_0, # of connection points: 4
#     Node 29, Type 0, BuildingBlock: KOZSID_clean_sbu_0, # of connection points: 4
#     Node 30, Type 0, BuildingBlock: KOZSID_clean_sbu_0, # of connection points: 4
#     Node 31, Type 0, BuildingBlock: KOZSID_clean_sbu_0, # of connection points: 4
#     Node 32, Type 0, BuildingBlock: KOZSID_clean_sbu_0, # of connection points: 4
#     Node 33, Type 0, BuildingBlock: KOZSID_clean_sbu_0, # of connection points: 4
#     Node 34, Type 0, BuildingBlock: KOZSID_clean_sbu_0, # of connection points: 4
#     Node 35, Type 0, BuildingBlock: KOZSID_clean_sbu_0, # of connection points: 4
#     Node 36, Type 0, BuildingBlock: KOZSID_clean_sbu_0, # of connection points: 4
#     Node 37, Type 0, BuildingBlock: KOZSID_clean_sbu_0, # of connection points: 4
#     Node 38, Type 0, BuildingBlock: KOZSID_clean_sbu_0, # of connection points: 4
#     Node 39, Type 0, BuildingBlock: KOZSID_clean_sbu_0, # of connection points: 4
#     Node 40, Type 0, BuildingBlock: KOZSID_clean_sbu_0, # of connection points: 4
#     Node 41, Type 0, BuildingBlock: KOZSID_clean_sbu_0, # of connection points: 4
#     Node 42, Type 0, BuildingBlock: KOZSID_clean_sbu_0, # of connection points: 4
#     Node 43, Type 0, BuildingBlock: KOZSID_clean_sbu_0, # of connection points: 4
#     Node 44, Type 0, BuildingBlock: KOZSID_clean_sbu_0, # of connection points: 4
#     Node 45, Type 0, BuildingBlock: KOZSID_clean_sbu_0, # of connection points: 4
#     Node 46, Type 0, BuildingBlock: KOZSID_clean_sbu_0, # of connection points: 4
#     Node 47, Type 0, BuildingBlock: KOZSID_clean_sbu_0, # of connection points: 4
#     Edge 48, Type (0, 0), BuildingBlock: EZIPEK_clean_linker_0, # of connection points: 2
#     Edge 49, Type (0, 0), BuildingBlock: EZIPEK_clean_linker_0, # of connection points: 2
#     Edge 50, Type (0, 0), BuildingBlock: EZIPEK_clean_linker_0, # of connection points: 2
#     Edge 51, Type (0, 0), BuildingBlock: EZIPEK_clean_linker_0, # of connection points: 2
#     Edge 52, Type (0, 0), BuildingBlock: EZIPEK_clean_linker_0, # of connection points: 2
#     Edge 53, Type (0, 0), BuildingBlock: EZIPEK_clean_linker_0, # of connection points: 2
#     Edge 54, Type (0, 0), BuildingBlock: EZIPEK_clean_linker_0, # of connection points: 2
#     Edge 55, Type (0, 0), BuildingBlock: EZIPEK_clean_linker_0, # of connection points: 2
#     Edge 56, Type (0, 0), BuildingBlock: EZIPEK_clean_linker_0, # of connection points: 2
#     Edge 57, Type (0, 0), BuildingBlock: EZIPEK_clean_linker_0, # of connection points: 2
#     Edge 58, Type (0, 0), BuildingBlock: EZIPEK_clean_linker_0, # of connection points: 2
#     Edge 59, Type (0, 0), BuildingBlock: EZIPEK_clean_linker_0, # of connection points: 2
#     Edge 60, Type (0, 0), BuildingBlock: EZIPEK_clean_linker_0, # of connection points: 2
#     Edge 61, Type (0, 0), BuildingBlock: EZIPEK_clean_linker_0, # of connection points: 2
#     Edge 62, Type (0, 0), BuildingBlock: EZIPEK_clean_linker_0, # of connection points: 2
#     Edge 63, Type (0, 0), BuildingBlock: EZIPEK_clean_linker_0, # of connection points: 2
#     Edge 64, Type (0, 0), BuildingBlock: EZIPEK_clean_linker_0, # of connection points: 2
#     Edge 65, Type (0, 0), BuildingBlock: EZIPEK_clean_linker_0, # of connection points: 2
#     Edge 66, Type (0, 0), BuildingBlock: EZIPEK_clean_linker_0, # of connection points: 2
#     Edge 67, Type (0, 0), BuildingBlock: EZIPEK_clean_linker_0, # of connection points: 2
#     Edge 68, Type (0, 0), BuildingBlock: EZIPEK_clean_linker_0, # of connection points: 2
#     Edge 69, Type (0, 0), BuildingBlock: EZIPEK_clean_linker_0, # of connection points: 2
#     Edge 70, Type (0, 0), BuildingBlock: EZIPEK_clean_linker_0, # of connection points: 2
#     Edge 71, Type (0, 0), BuildingBlock: EZIPEK_clean_linker_0, # of connection points: 2
#     Edge 72, Type (0, 0), BuildingBlock: EZIPEK_clean_linker_0, # of connection points: 2
#     Edge 73, Type (0, 0), BuildingBlock: EZIPEK_clean_linker_0, # of connection points: 2
#     Edge 74, Type (0, 0), BuildingBlock: EZIPEK_clean_linker_0, # of connection points: 2
#     Edge 75, Type (0, 0), BuildingBlock: EZIPEK_clean_linker_0, # of connection points: 2
#     Edge 76, Type (0, 0), BuildingBlock: EZIPEK_clean_linker_0, # of connection points: 2
#     Edge 77, Type (0, 0), BuildingBlock: EZIPEK_clean_linker_0, # of connection points: 2
#     Edge 78, Type (0, 0), BuildingBlock: EZIPEK_clean_linker_0, # of connection points: 2
#     Edge 79, Type (0, 0), BuildingBlock: EZIPEK_clean_linker_0, # of connection points: 2
#     Edge 80, Type (0, 0), BuildingBlock: EZIPEK_clean_linker_0, # of connection points: 2
#     Edge 81, Type (0, 0), BuildingBlock: EZIPEK_clean_linker_0, # of connection points: 2
#     Edge 82, Type (0, 0), BuildingBlock: EZIPEK_clean_linker_0, # of connection points: 2
#     Edge 83, Type (0, 0), BuildingBlock: EZIPEK_clean_linker_0, # of connection points: 2
#     Edge 84, Type (0, 0), BuildingBlock: EZIPEK_clean_linker_0, # of connection points: 2
#     Edge 85, Type (0, 0), BuildingBlock: EZIPEK_clean_linker_0, # of connection points: 2
#     Edge 86, Type (0, 0), BuildingBlock: EZIPEK_clean_linker_0, # of connection points: 2
#     Edge 87, Type (0, 0), BuildingBlock: EZIPEK_clean_linker_0, # of connection points: 2
#     Edge 88, Type (0, 0), BuildingBlock: EZIPEK_clean_linker_0, # of connection points: 2
#     Edge 89, Type (0, 0), BuildingBlock: EZIPEK_clean_linker_0, # of connection points: 2
#     Edge 90, Type (0, 0), BuildingBlock: EZIPEK_clean_linker_0, # of connection points: 2
#     Edge 91, Type (0, 0), BuildingBlock: EZIPEK_clean_linker_0, # of connection points: 2
#     Edge 92, Type (0, 0), BuildingBlock: EZIPEK_clean_linker_0, # of connection points: 2
#     Edge 93, Type (0, 0), BuildingBlock: EZIPEK_clean_linker_0, # of connection points: 2
#     Edge 94, Type (0, 0), BuildingBlock: EZIPEK_clean_linker_0, # of connection points: 2
#     Edge 95, Type (0, 0), BuildingBlock: EZIPEK_clean_linker_0, # of connection points: 2
#     Edge 96, Type (0, 0), BuildingBlock: EZIPEK_clean_linker_0, # of connection points: 2
#     Edge 97, Type (0, 0), BuildingBlock: EZIPEK_clean_linker_0, # of connection points: 2
#     Edge 98, Type (0, 0), BuildingBlock: EZIPEK_clean_linker_0, # of connection points: 2
#     Edge 99, Type (0, 0), BuildingBlock: EZIPEK_clean_linker_0, # of connection points: 2
#     Edge 100, Type (0, 0), BuildingBlock: EZIPEK_clean_linker_0, # of connection points: 2
#     Edge 101, Type (0, 0), BuildingBlock: EZIPEK_clean_linker_0, # of connection points: 2
#     Edge 102, Type (0, 0), BuildingBlock: EZIPEK_clean_linker_0, # of connection points: 2
#     Edge 103, Type (0, 0), BuildingBlock: EZIPEK_clean_linker_0, # of connection points: 2
#     Edge 104, Type (0, 0), BuildingBlock: EZIPEK_clean_linker_0, # of connection points: 2
#     Edge 105, Type (0, 0), BuildingBlock: EZIPEK_clean_linker_0, # of connection points: 2
#     Edge 106, Type (0, 0), BuildingBlock: EZIPEK_clean_linker_0, # of connection points: 2
#     Edge 107, Type (0, 0), BuildingBlock: EZIPEK_clean_linker_0, # of connection points: 2
#     Edge 108, Type (0, 0), BuildingBlock: EZIPEK_clean_linker_0, # of connection points: 2
#     Edge 109, Type (0, 0), BuildingBlock: EZIPEK_clean_linker_0, # of connection points: 2
#     Edge 110, Type (0, 0), BuildingBlock: EZIPEK_clean_linker_0, # of connection points: 2
#     Edge 111, Type (0, 0), BuildingBlock: EZIPEK_clean_linker_0, # of connection points: 2
#     Edge 112, Type (0, 0), BuildingBlock: EZIPEK_clean_linker_0, # of connection points: 2
#     Edge 113, Type (0, 0), BuildingBlock: EZIPEK_clean_linker_0, # of connection points: 2
#     Edge 114, Type (0, 0), BuildingBlock: EZIPEK_clean_linker_0, # of connection points: 2
#     Edge 115, Type (0, 0), BuildingBlock: EZIPEK_clean_linker_0, # of connection points: 2
#     Edge 116, Type (0, 0), BuildingBlock: EZIPEK_clean_linker_0, # of connection points: 2
#     Edge 117, Type (0, 0), BuildingBlock: EZIPEK_clean_linker_0, # of connection points: 2
#     Edge 118, Type (0, 0), BuildingBlock: EZIPEK_clean_linker_0, # of connection points: 2
#     Edge 119, Type (0, 0), BuildingBlock: EZIPEK_clean_linker_0, # of connection points: 2
#     Edge 120, Type (0, 0), BuildingBlock: EZIPEK_clean_linker_0, # of connection points: 2
#     Edge 121, Type (0, 0), BuildingBlock: EZIPEK_clean_linker_0, # of connection points: 2
#     Edge 122, Type (0, 0), BuildingBlock: EZIPEK_clean_linker_0, # of connection points: 2
#     Edge 123, Type (0, 0), BuildingBlock: EZIPEK_clean_linker_0, # of connection points: 2
#     Edge 124, Type (0, 0), BuildingBlock: EZIPEK_clean_linker_0, # of connection points: 2
#     Edge 125, Type (0, 0), BuildingBlock: EZIPEK_clean_linker_0, # of connection points: 2
#     Edge 126, Type (0, 0), BuildingBlock: EZIPEK_clean_linker_0, # of connection points: 2
#     Edge 127, Type (0, 0), BuildingBlock: EZIPEK_clean_linker_0, # of connection points: 2
#     Edge 128, Type (0, 0), BuildingBlock: EZIPEK_clean_linker_0, # of connection points: 2
#     Edge 129, Type (0, 0), BuildingBlock: EZIPEK_clean_linker_0, # of connection points: 2
#     Edge 130, Type (0, 0), BuildingBlock: EZIPEK_clean_linker_0, # of connection points: 2
#     Edge 131, Type (0, 0), BuildingBlock: EZIPEK_clean_linker_0, # of connection points: 2
#     Edge 132, Type (0, 0), BuildingBlock: EZIPEK_clean_linker_0, # of connection points: 2
#     Edge 133, Type (0, 0), BuildingBlock: EZIPEK_clean_linker_0, # of connection points: 2
#     Edge 134, Type (0, 0), BuildingBlock: EZIPEK_clean_linker_0, # of connection points: 2
#     Edge 135, Type (0, 0), BuildingBlock: EZIPEK_clean_linker_0, # of connection points: 2
#     Edge 136, Type (0, 0), BuildingBlock: EZIPEK_clean_linker_0, # of connection points: 2
#     Edge 137, Type (0, 0), BuildingBlock: EZIPEK_clean_linker_0, # of connection points: 2
#     Edge 138, Type (0, 0), BuildingBlock: EZIPEK_clean_linker_0, # of connection points: 2
#     Edge 139, Type (0, 0), BuildingBlock: EZIPEK_clean_linker_0, # of connection points: 2
#     Edge 140, Type (0, 0), BuildingBlock: EZIPEK_clean_linker_0, # of connection points: 2
#     Edge 141, Type (0, 0), BuildingBlock: EZIPEK_clean_linker_0, # of connection points: 2
#     Edge 142, Type (0, 0), BuildingBlock: EZIPEK_clean_linker_0, # of connection points: 2
#     Edge 143, Type (0, 0), BuildingBlock: EZIPEK_clean_linker_0, # of connection points: 2
# Relax obj value: 0.027
# Max RMSD: 0.196
# Mean RMSD: 0.196
data_MOF--net-ulj--node1-KOZSID_clean_sbu_0--edge1-EZIPEK_clean_linker_0
_symmetry_space_group_name_H-M    P1
_symmetry_Int_Tables_number       1
_symmetry_cell_setting            triclinic
loop_
_symmetry_equiv_pos_as_xyz
'x, y, z'
_cell_length_a     61.781197
_cell_length_b     61.932762
_cell_length_c     61.927793
_cell_angle_alpha  90.024339
_cell_angle_beta   90.011157
_cell_angle_gamma 90.048599
loop_
_atom_site_label
_atom_site_type_symbol
_atom_site_fract_x
_atom_site_fract_y
_atom_site_fract_z
_atom_type_partial_charge
C0 C 0.15455 0.28031 0.28192 0.0
C1 C 0.14592 0.27921 0.26125 0.0
C2 C 0.12724 0.26746 0.26277 0.0
C3 C 0.12561 0.26193 0.28415 0.0
N4 N 0.14201 0.26952 0.29628 0.0
Co5 Co 0.14655 0.26414 0.32766 0.0
N6 N 0.12559 0.23951 0.32772 0.0
C7 C 0.11145 0.23493 0.31176 0.0
C8 C 0.09788 0.2181 0.31636 0.0
C9 C 0.10333 0.21184 0.33674 0.0
C10 C 0.12009 0.22527 0.34354 0.0
N11 N 0.15102 0.25883 0.35919 0.0
C12 C 0.14372 0.24267 0.37227 0.0
C13 C 0.15064 0.2457 0.39336 0.0
C14 C 0.16177 0.26485 0.39374 0.0
C15 C 0.16129 0.27233 0.37287 0.0
N16 N 0.16736 0.28873 0.32721 0.0
C17 C 0.17484 0.29946 0.34455 0.0
C18 C 0.1894 0.31539 0.33919 0.0
C19 C 0.1912 0.31456 0.31709 0.0
C20 C 0.17765 0.29811 0.31022 0.0
N21 N 0.12279 0.28446 0.33491 0.0
C22 C 0.09416 0.3155 0.35223 0.0
C23 C 0.10831 0.32082 0.33526 0.0
C24 C 0.12244 0.30507 0.32681 0.0
C25 C 0.09352 0.29402 0.35903 0.0
C26 C 0.10767 0.27886 0.35006 0.0
N27 N 0.17081 0.24436 0.32078 0.0
C28 C 0.20884 0.23578 0.3247 0.0
C29 C 0.20764 0.22023 0.30836 0.0
C30 C 0.1873 0.21646 0.29884 0.0
C31 C 0.16919 0.22888 0.30506 0.0
C32 C 0.19034 0.24726 0.33089 0.0
H33 H 0.15402 0.22623 0.29686 0.0
H34 H 0.19213 0.25897 0.34357 0.0
H35 H 0.13363 0.30981 0.3143 0.0
H36 H 0.10677 0.26278 0.35612 0.0
C37 C 0.11177 0.24626 0.29235 0.0
C38 C 0.17428 0.29224 0.28744 0.0
C39 C 0.12755 0.22624 0.36616 0.0
C40 C 0.17126 0.29124 0.36531 0.0
H41 H 0.15252 0.28589 0.24652 0.0
H42 H 0.11683 0.26245 0.24963 0.0
H43 H 0.08522 0.21143 0.30626 0.0
H44 H 0.09494 0.19952 0.34582 0.0
H45 H 0.14692 0.23573 0.40722 0.0
H46 H 0.16913 0.27251 0.40763 0.0
H47 H 0.19851 0.32561 0.35008 0.0
H48 H 0.20145 0.32469 0.30717 0.0
H49 H 0.10904 0.33721 0.32922 0.0
H50 H 0.08259 0.28907 0.37179 0.0
H51 H 0.2241 0.23907 0.33268 0.0
H52 H 0.18558 0.20442 0.28627 0.0
C53 C 0.54137 0.59583 0.9657 0.0
C54 C 0.55325 0.57741 0.96105 0.0
C55 C 0.55145 0.574 0.93931 0.0
C56 C 0.53839 0.59029 0.93189 0.0
N57 N 0.53203 0.60414 0.94753 0.0
Co58 Co 0.50948 0.62727 0.94436 0.0
N59 N 0.50579 0.62173 0.91256 0.0
C60 C 0.51685 0.60712 0.90066 0.0
C61 C 0.51212 0.60795 0.87903 0.0
C62 C 0.49749 0.62438 0.87691 0.0
C63 C 0.49405 0.63261 0.89744 0.0
N64 N 0.48616 0.64966 0.94172 0.0
C65 C 0.47555 0.65733 0.92411 0.0
C66 C 0.4607 0.67321 0.92971 0.0
C67 C 0.46206 0.67573 0.95152 0.0
C68 C 0.4776 0.66139 0.95802 0.0
N69 N 0.51403 0.63399 0.97574 0.0
C70 C 0.50414 0.6497 0.98719 0.0
C71 C 0.51166 0.65178 1.0079 0.0
C72 C 0.52709 0.6362 1.00994 0.0
C73 C 0.52779 0.62523 0.99038 0.0
N74 N 0.532 0.64924 0.93672 0.0
C75 C 0.56165 0.68074 0.9213 0.0
C76 C 0.54578 0.68603 0.93662 0.0
C77 C 0.531 0.67023 0.94381 0.0
C78 C 0.56295 0.6592 0.91476 0.0
C79 C 0.54849 0.64385 0.9229 0.0
N80 N 0.48721 0.60469 0.95169 0.0
C81 C 0.46348 0.5871 0.97772 0.0
C82 C 0.46268 0.56827 0.96515 0.0
C83 C 0.47299 0.56863 0.94519 0.0
C84 C 0.4848 0.58679 0.93876 0.0
C85 C 0.47563 0.60512 0.97064 0.0
H86 H 0.49225 0.58553 0.92338 0.0
H87 H 0.47604 0.61893 0.98106 0.0
H88 H 0.51866 0.67535 0.95481 0.0
H89 H 0.55075 0.62773 0.91742 0.0
C90 C 0.53119 0.59263 0.91055 0.0
C91 C 0.53923 0.60475 0.98765 0.0
C92 C 0.47973 0.651 0.90173 0.0
C93 C 0.48684 0.66112 0.9785 0.0
H94 H 0.56208 0.56731 0.97224 0.0
H95 H 0.55838 0.56086 0.9301 0.0
H96 H 0.51868 0.59793 0.86629 0.0
H97 H 0.49029 0.62985 0.86195 0.0
H98 H 0.45046 0.68259 0.9191 0.0
H99 H 0.45358 0.68749 0.96131 0.0
H100 H 0.50609 0.66283 0.02025 0.0
H101 H 0.536 0.63257 0.02454 0.0
H102 H 0.54436 0.70245 0.94248 0.0
H103 H 0.57513 0.65418 0.90321 0.0
H104 H 0.45527 0.5877 0.99316 0.0
H105 H 0.47232 0.55465 0.93468 0.0
C106 C 0.87481 0.24417 0.28306 0.0
C107 C 0.88362 0.24652 0.26257 0.0
C108 C 0.90068 0.2603 0.26455 0.0
C109 C 0.90131 0.26561 0.28601 0.0
N110 N 0.88597 0.25573 0.29803 0.0
Co111 Co 0.88027 0.26024 0.32966 0.0
N112 N 0.90297 0.28338 0.3316 0.0
C113 C 0.91541 0.29084 0.31527 0.0
C114 C 0.92955 0.3068 0.32123 0.0
C115 C 0.92624 0.30953 0.3428 0.0
C116 C 0.91031 0.29486 0.34879 0.0
N117 N 0.87474 0.26481 0.36136 0.0
C118 C 0.88549 0.27726 0.37603 0.0
C119 C 0.8773 0.27445 0.39667 0.0
C120 C 0.86092 0.25966 0.39507 0.0
C121 C 0.86005 0.25419 0.37361 0.0
N122 N 0.8574 0.23722 0.32741 0.0
C123 C 0.84501 0.22955 0.34371 0.0
C124 C 0.82968 0.21495 0.33702 0.0
C125 C 0.83212 0.21356 0.3151 0.0
C126 C 0.84883 0.22744 0.30963 0.0
N127 N 0.9026 0.23788 0.33743 0.0
C128 C 0.93462 0.20857 0.35284 0.0
C129 C 0.9137 0.20875 0.36126 0.0
C130 C 0.89814 0.22296 0.35319 0.0
C131 C 0.93905 0.22288 0.33579 0.0
C132 C 0.923 0.2375 0.32857 0.0
N133 N 0.85767 0.28229 0.32233 0.0
C134 C 0.8206 0.29482 0.32603 0.0
C135 C 0.82331 0.30998 0.30964 0.0
C136 C 0.8439 0.31169 0.3002 0.0
C137 C 0.86071 0.29764 0.30662 0.0
C138 C 0.8378 0.28156 0.33222 0.0
H139 H 0.87593 0.29919 0.2985 0.0
H140 H 0.83438 0.27054 0.34487 0.0
H141 H 0.88266 0.22164 0.36036 0.0
H142 H 0.92747 0.2485 0.31602 0.0
C143 C 0.9142 0.28183 0.29473 0.0
C144 C 0.85508 0.23185 0.28719 0.0
C145 C 0.90381 0.29161 0.37124 0.0
C146 C 0.84676 0.23804 0.36469 0.0
H147 H 0.87785 0.23963 0.24757 0.0
H148 H 0.91072 0.26661 0.25168 0.0
H149 H 0.94123 0.3151 0.31119 0.0
H150 H 0.93498 0.32068 0.35305 0.0
H151 H 0.88283 0.28207 0.41141 0.0
H152 H 0.85123 0.25319 0.40811 0.0
H153 H 0.81752 0.207 0.34677 0.0
H154 H 0.82225 0.20402 0.30424 0.0
H155 H 0.90929 0.19784 0.37422 0.0
H156 H 0.95494 0.22313 0.32843 0.0
H157 H 0.80509 0.2931 0.33401 0.0
H158 H 0.84683 0.32343 0.28759 0.0
C159 C 0.48065 0.93072 0.96447 0.0
C160 C 0.46681 0.94743 0.95899 0.0
C161 C 0.46841 0.95007 0.93711 0.0
C162 C 0.4831 0.93486 0.93041 0.0
N163 N 0.49073 0.92244 0.94669 0.0
Co164 Co 0.51343 0.89931 0.9442 0.0
N165 N 0.51701 0.90392 0.91218 0.0
C166 C 0.50626 0.91852 0.89996 0.0
C167 C 0.51084 0.91695 0.87833 0.0
C168 C 0.52514 0.90019 0.87658 0.0
C169 C 0.5286 0.89248 0.8973 0.0
N170 N 0.53626 0.87633 0.94195 0.0
C171 C 0.54686 0.86821 0.9245 0.0
C172 C 0.56164 0.85239 0.9304 0.0
C173 C 0.55993 0.84998 0.95219 0.0
C174 C 0.54442 0.8645 0.95837 0.0
N175 N 0.50981 0.89432 0.9761 0.0
C176 C 0.52027 0.87943 0.98816 0.0
C177 C 0.51515 0.88004 1.00965 0.0
C178 C 0.50071 0.89652 1.0116 0.0
C179 C 0.49785 0.90505 0.99106 0.0
N180 N 0.49045 0.87736 0.93781 0.0
C181 C 0.45909 0.84623 0.92532 0.0
C182 C 0.47401 0.84189 0.9419 0.0
C183 C 0.48971 0.85749 0.94762 0.0
C184 C 0.45981 0.86657 0.91581 0.0
C185 C 0.47505 0.88175 0.92249 0.0
N186 N 0.53605 0.92176 0.9503 0.0
C187 C 0.56493 0.93668 0.9725 0.0
C188 C 0.56326 0.95674 0.96212 0.0
C189 C 0.54873 0.95851 0.94506 0.0
C190 C 0.53571 0.94101 0.93932 0.0
C191 C 0.55115 0.91951 0.96644 0.0
H192 H 0.52509 0.94379 0.9262 0.0
H193 H 0.55262 0.90473 0.97526 0.0
H194 H 0.5012 0.85314 0.95981 0.0
H195 H 0.47405 0.8969 0.91469 0.0
C196 C 0.49083 0.93244 0.90919 0.0
C197 C 0.48447 0.92403 0.98692 0.0
C198 C 0.54276 0.87399 0.90198 0.0
C199 C 0.53621 0.86637 0.97918 0.0
H200 H 0.45698 0.95703 0.96982 0.0
H201 H 0.46025 0.96203 0.92733 0.0
H202 H 0.50408 0.92645 0.86531 0.0
H203 H 0.53203 0.8941 0.86171 0.0
H204 H 0.57219 0.84314 0.91997 0.0
H205 H 0.56856 0.83858 0.96226 0.0
H206 H 0.52173 0.87018 0.0225 0.0
H207 H 0.49359 0.90201 0.02659 0.0
H208 H 0.4739 0.82638 0.94996 0.0
H209 H 0.44852 0.87082 0.9031 0.0
H210 H 0.57624 0.93453 0.98568 0.0
H211 H 0.54715 0.9736 0.93634 0.0
C212 C 0.15162 0.75206 0.241 0.0
C213 C 0.14203 0.75531 0.261 0.0
C214 C 0.12412 0.76777 0.25747 0.0
C215 C 0.12379 0.77135 0.23562 0.0
N216 N 0.14032 0.76192 0.22506 0.0
Co217 Co 0.14531 0.76251 0.19326 0.0
N218 N 0.12477 0.78715 0.18929 0.0
C219 C 0.11103 0.79485 0.20435 0.0
C220 C 0.09856 0.81169 0.19724 0.0
C221 C 0.10438 0.81463 0.17618 0.0
C222 C 0.12008 0.79923 0.17155 0.0
N223 N 0.14961 0.76261 0.16123 0.0
C224 C 0.14206 0.77628 0.14572 0.0
C225 C 0.14796 0.76933 0.12527 0.0
C226 C 0.15901 0.75035 0.12795 0.0
C227 C 0.15933 0.74681 0.14983 0.0
N228 N 0.16623 0.73839 0.19762 0.0
C229 C 0.17433 0.72553 0.1821 0.0
C230 C 0.18936 0.71112 0.1898 0.0
C231 C 0.19077 0.71512 0.21156 0.0
C232 C 0.17639 0.73172 0.21595 0.0
N233 N 0.12146 0.74135 0.18921 0.0
C234 C 0.09317 0.70809 0.17573 0.0
C235 C 0.10756 0.70493 0.19303 0.0
C236 C 0.12156 0.72174 0.1995 0.0
C237 C 0.09197 0.72877 0.1668 0.0
C238 C 0.10588 0.7451 0.17398 0.0
N239 N 0.16973 0.78303 0.19693 0.0
C240 C 0.20695 0.79239 0.18878 0.0
C241 C 0.20716 0.80812 0.20494 0.0
C242 C 0.18793 0.81167 0.21652 0.0
C243 C 0.16936 0.7991 0.21215 0.0
C244 C 0.18828 0.78006 0.18513 0.0
H245 H 0.15494 0.80196 0.22154 0.0
H246 H 0.18927 0.76758 0.17314 0.0
H247 H 0.13299 0.71855 0.21226 0.0
H248 H 0.10449 0.76053 0.16648 0.0
C249 C 0.11071 0.78635 0.22517 0.0
C250 C 0.17141 0.73953 0.23786 0.0
C251 C 0.1271 0.79439 0.1494 0.0
C252 C 0.17006 0.72987 0.16033 0.0
H253 H 0.14758 0.74954 0.27654 0.0
H254 H 0.11325 0.77429 0.26953 0.0
H255 H 0.08645 0.82058 0.2062 0.0
H256 H 0.09709 0.8261 0.16519 0.0
H257 H 0.14395 0.77679 0.10999 0.0
H258 H 0.16597 0.74033 0.11543 0.0
H259 H 0.19879 0.69963 0.1806 0.0
H260 H 0.20101 0.70668 0.22294 0.0
H261 H 0.10864 0.68932 0.20084 0.0
H262 H 0.08072 0.73217 0.15381 0.0
H263 H 0.22144 0.7891 0.1795 0.0
H264 H 0.18741 0.82373 0.22917 0.0
C265 C 0.97868 0.59493 0.06053 0.0
C266 C 0.96346 0.57941 0.06601 0.0
C267 C 0.96456 0.57692 0.08792 0.0
C268 C 0.98026 0.59109 0.09464 0.0
N269 N 0.98897 0.60279 0.07837 0.0
Co270 Co 1.01298 0.62456 0.08098 0.0
N271 N 0.01571 0.62008 0.11307 0.0
C272 C 1.00383 0.60636 0.12529 0.0
C273 C 1.00855 0.6075 0.14691 0.0
C274 C 0.02414 0.62309 0.14868 0.0
C275 C 0.02807 0.63062 0.12798 0.0
N276 N 0.03718 0.64616 0.08338 0.0
C277 C 0.04768 0.6541 0.10096 0.0
C278 C 0.06282 0.6697 0.09525 0.0
C279 C 0.06178 0.67181 0.07342 0.0
C280 C 0.04611 0.65754 0.06704 0.0
N281 N 1.01024 0.62939 0.04898 0.0
C282 C 0.02183 0.64351 0.03697 0.0
C283 C 0.01796 0.64218 0.01527 0.0
C284 C 1.00317 0.62606 0.01312 0.0
C285 C 0.9986 0.61858 0.0338 0.0
N286 N 0.99136 0.648 0.0868 0.0
C287 C 0.96221 0.68126 0.09907 0.0
C288 C 0.9781 0.68485 0.08325 0.0
C289 C 0.99258 0.66813 0.07752 0.0
C290 C 0.96079 0.66064 0.10787 0.0
C291 C 0.97505 0.64448 0.1014 0.0
N292 N 0.0342 0.60069 0.07544 0.0
C293 C 0.06172 0.58351 0.05322 0.0
C294 C 0.05889 0.56383 0.06405 0.0
C295 C 0.04451 0.56332 0.08131 0.0
C296 C 0.03267 0.58172 0.08679 0.0
C297 C 0.04928 0.60168 0.05916 0.0
H298 H 0.02198 0.57988 0.10003 0.0
H299 H 0.05175 0.61621 0.05015 0.0
H300 H 1.00474 0.67181 0.06578 0.0
H301 H 0.9726 0.62929 0.10881 0.0
C302 C 0.98774 0.59328 0.11597 0.0
C303 C 0.98368 0.60067 0.03803 0.0
C304 C 0.04329 0.64824 0.12338 0.0
C305 C 0.03822 0.65583 0.04613 0.0
H306 H 0.95311 0.57037 0.05518 0.0
H307 H 0.95537 0.56572 0.09772 0.0
H308 H 1.00118 0.59842 0.15991 0.0
H309 H 0.03154 0.62861 0.16354 0.0
H310 H 0.07317 0.67907 0.1058 0.0
H311 H 0.07081 0.683 0.06345 0.0
H312 H 0.02582 0.65109 1.00244 0.0
H313 H 0.99711 0.62012 0.99786 0.0
H314 H 0.97961 0.70055 0.07571 0.0
H315 H 0.94862 0.65697 0.11995 0.0
H316 H 0.07306 0.58471 0.03994 0.0
H317 H 0.04213 0.54856 0.0904 0.0
C318 C 0.87712 0.77673 0.23994 0.0
C319 C 0.88611 0.77309 0.26017 0.0
C320 C 0.90209 0.75822 0.25742 0.0
C321 C 0.90192 0.75361 0.23579 0.0
N322 N 0.88709 0.76491 0.22441 0.0
Co323 Co 0.88061 0.762 0.19274 0.0
N324 N 0.90207 0.73791 0.18949 0.0
C325 C 0.91402 0.72884 0.20534 0.0
C326 C 0.92735 0.7126 0.19842 0.0
C327 C 0.9241 0.71148 0.1767 0.0
C328 C 0.90904 0.72732 0.17161 0.0
N329 N 0.87448 0.75907 0.16094 0.0
C330 C 0.88514 0.74755 0.14549 0.0
C331 C 0.87704 0.75181 0.12506 0.0
C332 C 0.86082 0.7666 0.12762 0.0
C333 C 0.85997 0.77066 0.14939 0.0
N334 N 0.85901 0.78597 0.19624 0.0
C335 C 0.84655 0.79466 0.18052 0.0
C336 C 0.83228 0.80989 0.18801 0.0
C337 C 0.83551 0.81066 0.20986 0.0
C338 C 0.85161 0.7958 0.21448 0.0
N339 N 0.90386 0.78357 0.18556 0.0
C340 C 0.93665 0.81275 0.17153 0.0
C341 C 0.91579 0.81335 0.16299 0.0
C342 C 0.89986 0.79921 0.1704 0.0
C343 C 0.94069 0.79756 0.18792 0.0
C344 C 0.92427 0.78296 0.1944 0.0
N345 N 0.85693 0.74077 0.19963 0.0
C346 C 0.81911 0.73037 0.19612 0.0
C347 C 0.82097 0.715 0.21243 0.0
C348 C 0.84153 0.712 0.22163 0.0
C349 C 0.85914 0.72508 0.21515 0.0
C350 C 0.83705 0.74266 0.18987 0.0
H351 H 0.87429 0.72251 0.22312 0.0
H352 H 0.83418 0.75391 0.17731 0.0
H353 H 0.88443 0.80126 0.16331 0.0
H354 H 0.92838 0.77122 0.20642 0.0
C355 C 0.91363 0.73699 0.22625 0.0
C356 C 0.85827 0.7905 0.2366 0.0
C357 C 0.90332 0.73279 0.1494 0.0
C358 C 0.8475 0.78692 0.1592 0.0
H359 H 0.88115 0.77985 0.2755 0.0
H360 H 0.91192 0.75084 0.26986 0.0
H361 H 0.93866 0.70322 0.20791 0.0
H362 H 0.93246 0.70072 0.16574 0.0
H363 H 0.8826 0.74521 0.10986 0.0
H364 H 0.85139 0.77419 0.11499 0.0
H365 H 0.82035 0.81878 0.17881 0.0
H366 H 0.82656 0.82048 0.22123 0.0
H367 H 0.91167 0.82493 0.15053 0.0
H368 H 0.95653 0.79668 0.19536 0.0
H369 H 0.80367 0.73304 0.18825 0.0
H370 H 0.84386 0.7 0.23413 0.0
C371 C 0.0525 0.92561 0.05971 0.0
C372 C 0.06671 0.94186 0.06584 0.0
C373 C 0.0605 0.94843 0.08604 0.0
C374 C 0.04315 0.93562 0.09132 0.0
N375 N 0.03836 0.92095 0.07597 0.0
Co376 Co 0.01497 0.89871 0.07796 0.0
N377 N 1.00958 0.90466 0.10923 0.0
C378 C 0.0166 0.92205 0.12024 0.0
C379 C 1.01139 0.92123 0.14181 0.0
C380 C 1.0004 0.90216 0.14454 0.0
C381 C 0.9994 0.89241 0.12442 0.0
N382 N 0.99169 0.87648 0.07999 0.0
C383 C 0.98248 0.86707 0.09752 0.0
C384 C 0.96658 0.85239 0.09151 0.0
C385 C 0.96592 0.85249 0.06945 0.0
C386 C 0.98134 0.86718 0.06329 0.0
N387 N 0.02001 0.89256 0.04656 0.0
C388 C 1.00673 0.88079 0.03385 0.0
C389 C 1.01273 0.88044 0.01262 0.0
C390 C 0.03065 0.89321 1.01152 0.0
C391 C 0.03481 0.90065 0.03235 0.0
N392 N 0.0369 0.877 0.08618 0.0
C393 C 0.06826 0.84674 0.0997 0.0
C394 C 0.05471 0.84246 0.08193 0.0
C395 C 0.03886 0.85761 0.07571 0.0
C396 C 0.06594 0.86659 0.11015 0.0
C397 C 0.05063 0.88148 0.10296 0.0
N398 N 0.99336 0.92103 0.0702 0.0
C399 C 0.98588 0.95349 0.05003 0.0
C400 C 0.96744 0.95774 0.0623 0.0
C401 C 0.96153 0.94248 0.0781 0.0
C402 C 0.97488 0.92438 0.082 0.0
C403 C 0.99794 0.93492 0.05371 0.0
H404 H 0.97047 0.91335 0.09476 0.0
H405 H 1.0113 0.93225 0.04332 0.0
H406 H 0.0282 0.85362 0.0625 0.0
H407 H 0.05 0.89663 0.11129 0.0
C408 C 0.03192 0.93592 0.11099 0.0
C409 C 0.05032 0.91824 0.03711 0.0
C410 C 0.98769 0.87213 0.12003 0.0
C411 C 0.98887 0.87005 0.04236 0.0
H412 H 0.07926 0.9492 0.05609 0.0
H413 H 0.06766 0.96118 0.09564 0.0
H414 H 0.01611 0.93251 0.1543 0.0
H415 H 0.99395 0.89608 0.1596 0.0
H416 H 0.95656 0.84258 0.10196 0.0
H417 H 0.95602 0.84238 0.05915 0.0
H418 H 1.00465 0.87236 0.99937 0.0
H419 H 0.03873 0.89738 0.99666 0.0
H420 H 0.05605 0.82734 0.07325 0.0
H421 H 0.07607 0.87067 0.12384 0.0
H422 H 0.99093 0.96446 0.03736 0.0
H423 H 0.94704 0.9448 0.08766 0.0
C424 C 0.28151 0.15356 0.27097 0.0
C425 C 0.26087 0.14486 0.26901 0.0
C426 C 0.2632 0.12519 0.25917 0.0
C427 C 0.28501 0.12304 0.25561 0.0
N428 N 0.29656 0.14014 0.26245 0.0
Co429 Co 0.32853 0.14306 0.26059 0.0
N430 N 0.33039 0.12092 0.23739 0.0
C431 C 0.31547 0.10534 0.23422 0.0
C432 C 0.32252 0.08895 0.22122 0.0
C433 C 0.34326 0.09439 0.21589 0.0
C434 C 0.34755 0.11444 0.22523 0.0
N435 N 0.36066 0.14517 0.25936 0.0
C436 C 0.37503 0.13551 0.24568 0.0
C437 C 0.39511 0.13393 0.25579 0.0
C438 C 0.39375 0.14484 0.27502 0.0
C439 C 0.37265 0.15138 0.27645 0.0
N440 N 0.32616 0.16526 0.28357 0.0
C441 C 0.34236 0.17156 0.29657 0.0
C442 C 0.33604 0.18719 0.31102 0.0
C443 C 0.31444 0.19078 0.30685 0.0
C444 C 0.30874 0.17704 0.29011 0.0
N445 N 0.33219 0.12015 0.28278 0.0
C446 C 0.34669 0.09425 0.31736 0.0
C447 C 0.32963 0.10898 0.32021 0.0
C448 C 0.32255 0.12171 0.30267 0.0
C449 C 0.35486 0.09146 0.29655 0.0
C450 C 0.34733 0.10427 0.27961 0.0
N451 N 0.32572 0.16657 0.23917 0.0
C452 C 0.3371 0.20233 0.22842 0.0
C453 C 0.31877 0.20489 0.21543 0.0
C454 C 0.30464 0.18717 0.21342 0.0
C455 C 0.3086 0.16801 0.22516 0.0
C456 C 0.34001 0.18346 0.24038 0.0
H457 H 0.29735 0.15475 0.22359 0.0
H458 H 0.35339 0.18316 0.2515 0.0
H459 H 0.31008 0.13356 0.3055 0.0
H460 H 0.35505 0.10206 0.26429 0.0
C461 C 0.29484 0.10692 0.24333 0.0
C462 C 0.2863 0.17372 0.28247 0.0
C463 C 0.36906 0.12515 0.22473 0.0
C464 C 0.3634 0.16361 0.29325 0.0
H465 H 0.24575 0.15185 0.27436 0.0
H466 H 0.25045 0.11411 0.25458 0.0
H467 H 0.31387 0.07442 0.2167 0.0
H468 H 0.3542 0.08403 0.20707 0.0
H469 H 0.40903 0.1247 0.25078 0.0
H470 H 0.40641 0.14691 0.28692 0.0
H471 H 0.34597 0.19522 0.32299 0.0
H472 H 0.30394 0.20176 0.31551 0.0
H473 H 0.32247 0.11125 0.336 0.0
H474 H 0.36772 0.07997 0.29352 0.0
H475 H 0.34861 0.21542 0.23026 0.0
H476 H 0.29039 0.18832 0.2033 0.0
C477 C 0.42349 0.46679 0.98373 0.0
C478 C 0.43675 0.46281 0.96613 0.0
C479 C 0.43594 0.44096 0.96241 0.0
C480 C 0.42221 0.43282 0.97787 0.0
N481 N 0.41437 0.44817 0.99108 0.0
Co482 Co 0.394 0.44328 0.01555 0.0
N483 N 0.3999 0.41159 0.01633 0.0
C484 C 0.41013 0.40036 1.00074 0.0
C485 C 0.41206 0.37878 1.00545 0.0
C486 C 0.40201 0.37613 0.025 0.0
C487 C 0.39423 0.39625 0.03107 0.0
N488 N 0.37353 0.43874 0.04013 0.0
C489 C 0.36951 0.42101 0.05249 0.0
C490 C 0.35257 0.42488 0.06678 0.0
C491 C 0.34561 0.44546 0.0631 0.0
C492 C 0.35851 0.45305 0.04681 0.0
N493 N 0.38804 0.47489 0.01468 0.0
C494 C 0.37124 0.48499 0.0241 0.0
C495 C 0.37182 0.507 0.02173 0.0
C496 C 0.39016 0.51111 1.01006 0.0
C497 C 0.39968 0.49126 1.0058 0.0
N498 N 0.37026 0.4378 0.99465 0.0
C499 C 0.34217 0.42302 0.96182 0.0
C500 C 0.35528 0.44131 0.95864 0.0
C501 C 0.36917 0.44846 0.97527 0.0
C502 C 0.34222 0.41349 0.98226 0.0
C503 C 0.35608 0.42122 0.99835 0.0
N504 N 0.4181 0.44821 0.03592 0.0
C505 C 0.43406 0.46625 0.06673 0.0
C506 C 0.45432 0.45705 0.06215 0.0
C507 C 0.45584 0.44287 0.04469 0.0
C508 C 0.43765 0.43857 0.03197 0.0
C509 C 0.41616 0.46169 0.05336 0.0
H510 H 0.4397 0.42779 0.01854 0.0
H511 H 0.4009 0.4694 0.05684 0.0
H512 H 0.37963 0.46206 0.97212 0.0
H513 H 0.35585 0.41304 0.01352 0.0
C514 C 0.41941 0.41095 0.98297 0.0
C515 C 0.41909 0.48852 0.99239 0.0
C516 C 0.37895 0.39943 0.04912 0.0
C517 C 0.35786 0.4739 0.03839 0.0
H518 H 0.44607 0.47448 0.95703 0.0
H519 H 0.44503 0.43199 0.95046 0.0
H520 H 0.4199 0.36645 0.99586 0.0
H521 H 0.39974 0.36096 0.03337 0.0
H522 H 0.34527 0.41375 0.07809 0.0
H523 H 0.33258 0.45383 0.07124 0.0
H524 H 0.36087 0.51876 0.02864 0.0
H525 H 0.39589 0.52694 1.00541 0.0
H526 H 0.35541 0.44947 0.94317 0.0
H527 H 0.33206 0.39962 0.9856 0.0
H528 H 0.43227 0.47739 0.0801 0.0
H529 H 0.47118 0.43546 0.04061 0.0
C530 C 0.74882 0.37835 0.27301 0.0
C531 C 0.7689 0.38802 0.27031 0.0
C532 C 0.76579 0.40526 0.2569 0.0
C533 C 0.74407 0.40515 0.25228 0.0
N534 N 0.73319 0.38903 0.26201 0.0
Co535 Co 0.70141 0.38368 0.26023 0.0
N536 N 0.69848 0.40264 0.23422 0.0
C537 C 0.71397 0.4158 0.22628 0.0
C538 C 0.70748 0.42751 0.20869 0.0
C539 C 0.6864 0.42181 0.20545 0.0
C540 C 0.68112 0.40687 0.22138 0.0
N541 N 0.66942 0.37925 0.25911 0.0
C542 C 0.65438 0.38628 0.24465 0.0
C543 C 0.63365 0.38062 0.25113 0.0
C544 C 0.63567 0.37033 0.2706 0.0
C545 C 0.65746 0.37015 0.27491 0.0
N546 N 0.70504 0.36373 0.28531 0.0
C547 C 0.68905 0.35576 0.29772 0.0
C548 C 0.69634 0.34103 0.31263 0.0
C549 C 0.71829 0.33962 0.30939 0.0
C550 C 0.72323 0.35374 0.29274 0.0
N551 N 0.69593 0.40859 0.28007 0.0
C552 C 0.67354 0.43583 0.30962 0.0
C553 C 0.6887 0.42027 0.31672 0.0
C554 C 0.6997 0.40699 0.30183 0.0
C555 C 0.6751 0.44085 0.28746 0.0
C556 C 0.68536 0.42671 0.27306 0.0
N557 N 0.706 0.3584 0.24119 0.0
C558 C 0.69825 0.32078 0.2339 0.0
C559 C 0.7147 0.31986 0.21854 0.0
C560 C 0.7262 0.3389 0.21396 0.0
C561 C 0.72155 0.35805 0.22543 0.0
C562 C 0.69416 0.34004 0.2449 0.0
H563 H 0.73098 0.37232 0.22204 0.0
H564 H 0.68172 0.33965 0.25695 0.0
H565 H 0.71049 0.39492 0.30821 0.0
H566 H 0.68388 0.43057 0.25628 0.0
C567 C 0.73433 0.41699 0.23587 0.0
C568 C 0.74544 0.3586 0.28546 0.0
C569 C 0.65873 0.40029 0.22593 0.0
C570 C 0.66738 0.35991 0.29252 0.0
H571 H 0.78427 0.38279 0.27686 0.0
H572 H 0.77809 0.41582 0.25032 0.0
H573 H 0.71678 0.43927 0.19967 0.0
H574 H 0.67584 0.4289 0.19347 0.0
H575 H 0.61859 0.38421 0.24295 0.0
H576 H 0.62277 0.3637 0.2804 0.0
H577 H 0.68675 0.33174 0.32393 0.0
H578 H 0.72942 0.32953 0.31833 0.0
H579 H 0.69167 0.41774 0.33375 0.0
H580 H 0.66846 0.4553 0.28052 0.0
H581 H 0.68888 0.3065 0.23775 0.0
H582 H 0.739 0.33884 0.20201 0.0
C583 C 0.60194 0.05867 0.97967 0.0
C584 C 0.58845 0.06325 0.96239 0.0
C585 C 0.58928 0.0852 0.95942 0.0
C586 C 0.60322 0.09277 0.97498 0.0
N587 N 0.61115 0.07698 0.98763 0.0
Co588 Co 0.63202 0.08098 1.01192 0.0
N589 N 0.62705 0.11288 0.01318 0.0
C590 C 0.61672 0.12457 0.99799 0.0
C591 C 0.61589 0.1462 1.00274 0.0
C592 C 0.6268 0.14844 0.02188 0.0
C593 C 0.63391 0.12801 0.02767 0.0
N594 N 0.65298 0.08471 0.03632 0.0
C595 C 0.65791 0.10226 0.04863 0.0
C596 C 0.67464 0.09767 0.06294 0.0
C597 C 0.68062 0.0768 0.05931 0.0
C598 C 0.66736 0.06978 0.04305 0.0
N599 N 0.63726 0.04922 1.01058 0.0
C600 C 0.65372 0.03854 0.01999 0.0
C601 C 0.65293 0.01664 0.01687 0.0
C602 C 0.63483 0.01319 1.00468 0.0
C603 C 0.62566 0.03331 1.00093 0.0
N604 N 0.65544 0.08592 0.99062 0.0
C605 C 0.68227 0.10027 0.95674 0.0
C606 C 0.68354 0.10956 0.97728 0.0
C607 C 0.67023 0.10203 0.99393 0.0
C608 C 0.66863 0.08238 0.95396 0.0
C609 C 0.65548 0.07537 0.97114 0.0
N610 N 0.60793 0.07632 0.03249 0.0
C611 C 0.59122 0.05703 0.06216 0.0
C612 C 0.57102 0.06639 0.05752 0.0
C613 C 0.57001 0.08148 0.0408 0.0
C614 C 0.58853 0.08634 0.02874 0.0
C615 C 0.60944 0.06209 0.04936 0.0
H616 H 0.58679 0.09779 0.01584 0.0
H617 H 0.62455 0.05408 0.05275 0.0
H618 H 0.6714 0.10987 1.00925 0.0
H619 H 0.64472 0.06196 0.96832 0.0
C620 C 0.60666 0.11446 0.98038 0.0
C621 C 0.60662 0.03667 0.98727 0.0
C622 C 0.64957 0.12426 0.04527 0.0
C623 C 0.66731 0.04901 0.03449 0.0
H624 H 0.57909 0.05189 0.95294 0.0
H625 H 0.58022 0.09458 0.94777 0.0
H626 H 0.6083 0.15887 0.99339 0.0
H627 H 0.63006 0.16351 0.03013 0.0
H628 H 0.68246 0.10849 0.07423 0.0
H629 H 0.69331 0.06788 0.0674 0.0
H630 H 0.66367 1.00452 0.02349 0.0
H631 H 0.62904 0.99761 0.99925 0.0
H632 H 0.69433 0.12303 0.98029 0.0
H633 H 0.66764 0.07433 0.93846 0.0
H634 H 0.59271 0.04533 0.07507 0.0
H635 H 0.55481 0.08921 0.03678 0.0
C636 C 0.28275 0.87535 0.2408 0.0
C637 C 0.26235 0.8846 0.24273 0.0
C638 C 0.26405 0.90066 0.25768 0.0
C639 C 0.28525 0.90035 0.26408 0.0
N640 N 0.29743 0.88544 0.25384 0.0
Co641 Co 0.32894 0.87935 0.25955 0.0
N642 N 0.33136 0.9038 0.28061 0.0
C643 C 0.31479 0.91561 0.28844 0.0
C644 C 0.32101 0.9314 0.30265 0.0
C645 C 0.34295 0.92957 0.30404 0.0
C646 C 0.34887 0.91262 0.2906 0.0
N647 N 0.3607 0.87419 0.26436 0.0
C648 C 0.37579 0.88605 0.27527 0.0
C649 C 0.39595 0.87626 0.27459 0.0
C650 C 0.39348 0.85755 0.26305 0.0
C651 C 0.37202 0.85696 0.25734 0.0
N652 N 0.32615 0.85437 0.23911 0.0
C653 C 0.34154 0.83938 0.23534 0.0
C654 C 0.33488 0.82309 0.22186 0.0
C655 C 0.31377 0.82767 0.21713 0.0
C656 C 0.30867 0.8465 0.22812 0.0
N657 N 0.33702 0.89895 0.23537 0.0
C658 C 0.35317 0.92795 0.20375 0.0
C659 C 0.36128 0.90695 0.20565 0.0
C660 C 0.35274 0.89273 0.22104 0.0
C661 C 0.33598 0.93378 0.21745 0.0
C662 C 0.32843 0.91926 0.23331 0.0
N663 N 0.32145 0.859 0.28374 0.0
C664 C 0.33395 0.83102 0.30822 0.0
C665 C 0.31331 0.82182 0.30912 0.0
C666 C 0.29642 0.83296 0.2991 0.0
C667 C 0.30077 0.85129 0.28653 0.0
C668 C 0.33742 0.84997 0.29632 0.0
H669 H 0.28709 0.85823 0.2786 0.0
H670 H 0.35342 0.85658 0.29714 0.0
H671 H 0.35949 0.87684 0.22154 0.0
H672 H 0.31597 0.92475 0.2441 0.0
C673 C 0.29402 0.91319 0.28025 0.0
C674 C 0.28644 0.85498 0.22928 0.0
C675 C 0.37132 0.90543 0.2882 0.0
C676 C 0.36214 0.84125 0.24449 0.0
H677 H 0.24745 0.87955 0.23508 0.0
H678 H 0.25116 0.9108 0.26377 0.0
H679 H 0.31088 0.94329 0.31051 0.0
H680 H 0.3534 0.93972 0.31373 0.0
H681 H 0.41076 0.88184 0.28209 0.0
H682 H 0.40588 0.84582 0.25924 0.0
H683 H 0.34416 0.80931 0.21642 0.0
H684 H 0.30306 0.81785 0.20737 0.0
H685 H 0.37439 0.90156 0.19536 0.0
H686 H 0.32895 0.94976 0.21644 0.0
H687 H 0.34743 0.82346 0.31645 0.0
H688 H 0.28 0.82685 0.30001 0.0
C689 C 0.0957 0.46138 0.04535 0.0
C690 C 0.0791 0.45672 0.05965 0.0
C691 C 0.07625 0.43481 0.05911 0.0
C692 C 0.09124 0.42733 0.04457 0.0
N693 N 0.10376 0.44312 0.03609 0.0
Co694 Co 0.12641 0.43963 0.01306 0.0
N695 N 0.12061 0.40777 1.01011 0.0
C696 C 0.10572 0.39618 0.02121 0.0
C697 C 0.10665 0.37444 0.01707 0.0
C698 C 0.12327 0.37194 1.00271 0.0
C699 C 0.13154 0.39237 0.99879 0.0
N700 N 0.14899 0.43638 0.98999 0.0
C701 C 0.15634 0.41853 0.97962 0.0
C702 C 0.17214 0.42365 0.96449 0.0
C703 C 0.17541 0.44534 0.96584 0.0
C704 C 0.16138 0.45224 0.98149 0.0
N705 N 0.13241 0.4714 0.01591 0.0
C706 C 0.14759 0.48286 1.00513 0.0
C707 C 0.1474 0.50451 1.00961 0.0
C708 C 0.13081 0.50721 0.02381 0.0
C709 C 0.12183 0.48692 0.02721 0.0
N710 N 0.14871 0.43289 0.03568 0.0
C711 C 0.18058 0.41929 0.06591 0.0
C712 C 0.18481 0.43602 0.05116 0.0
C713 C 0.16886 0.44229 0.03603 0.0
C714 C 0.15993 0.41028 0.06568 0.0
C715 C 0.1444 0.41751 0.05104 0.0
N716 N 0.10373 0.446 0.99078 0.0
C717 C 0.08982 0.46687 0.96052 0.0
C718 C 0.06907 0.45802 0.96321 0.0
C719 C 0.06637 0.44239 0.97912 0.0
C720 C 0.08372 0.43647 0.99228 0.0
C721 C 0.10679 0.46082 0.97455 0.0
H722 H 0.08027 0.42441 1.0039 0.0
H723 H 0.12211 0.46857 0.97232 0.0
H724 H 0.17319 0.45452 0.02462 0.0
H725 H 0.12908 0.41004 0.0524 0.0
C726 C 0.09264 0.40597 0.03701 0.0
C727 C 0.10246 0.48352 0.04023 0.0
C728 C 0.1501 0.39632 0.98451 0.0
C729 C 0.1603 0.47325 0.9893 0.0
H730 H 0.06962 0.46808 0.06897 0.0
H731 H 0.0641 0.42555 0.06764 0.0
H732 H 0.09694 0.36179 0.02428 0.0
H733 H 0.12895 0.35677 0.99615 0.0
H734 H 0.18088 0.41273 0.95399 0.0
H735 H 0.18706 0.45487 0.9569 0.0
H736 H 0.15749 0.51698 1.00262 0.0
H737 H 0.12548 0.52252 0.03033 0.0
H738 H 0.20053 0.44378 0.05091 0.0
H739 H 0.15571 0.39751 0.07689 0.0
H740 H 0.0927 0.47891 0.94818 0.0
H741 H 0.05072 0.43487 0.98157 0.0
C742 C 0.74437 0.65023 0.2498 0.0
C743 C 0.76451 0.64071 0.25264 0.0
C744 C 0.76132 0.62304 0.26544 0.0
C745 C 0.73952 0.62274 0.26959 0.0
N746 N 0.72864 0.63907 0.26021 0.0
Co747 Co 0.69671 0.64376 0.26141 0.0
N748 N 0.69338 0.62335 0.28629 0.0
C749 C 0.70884 0.61005 0.29396 0.0
C750 C 0.70223 0.59769 0.31107 0.0
C751 C 0.68108 0.6031 0.31427 0.0
C752 C 0.67588 0.61845 0.29875 0.0
N753 N 0.66453 0.64748 0.26207 0.0
C754 C 0.64926 0.63949 0.27586 0.0
C755 C 0.62858 0.64479 0.26899 0.0
C756 C 0.63086 0.65592 0.25 0.0
C757 C 0.65276 0.65687 0.24632 0.0
N758 N 0.70054 0.6647 0.23721 0.0
C759 C 0.68464 0.67271 0.22475 0.0
C760 C 0.69196 0.68785 0.21025 0.0
C761 C 0.71387 0.68941 0.21377 0.0
C762 C 0.71875 0.67499 0.23017 0.0
N763 N 0.6924 0.61994 0.24033 0.0
C764 C 0.67615 0.59366 0.20682 0.0
C765 C 0.69311 0.60825 0.20298 0.0
C766 C 0.70116 0.62105 0.22 0.0
C767 C 0.66921 0.59093 0.22812 0.0
C768 C 0.67769 0.60396 0.24455 0.0
N769 N 0.70045 0.66837 0.28158 0.0
C770 C 0.69201 0.70569 0.28972 0.0
C771 C 0.70924 0.70702 0.3042 0.0
C772 C 0.72137 0.68822 0.30809 0.0
C773 C 0.71661 0.669 0.29673 0.0
C774 C 0.68796 0.68643 0.27865 0.0
H775 H 0.72653 0.65496 0.2996 0.0
H776 H 0.67517 0.6867 0.26695 0.0
H777 H 0.71373 0.63258 0.21636 0.0
H778 H 0.67143 0.6017 0.26046 0.0
C779 C 0.7295 0.60987 0.28502 0.0
C780 C 0.74099 0.66996 0.2373 0.0
C781 C 0.65345 0.62487 0.29418 0.0
C782 C 0.66294 0.66794 0.22935 0.0
H783 H 0.77994 0.64619 0.24643 0.0
H784 H 0.77359 0.61231 0.2718 0.0
H785 H 0.71158 0.58586 0.31993 0.0
H786 H 0.67039 0.59574 0.326 0.0
H787 H 0.61342 0.64038 0.27657 0.0
H788 H 0.61807 0.66252 0.24007 0.0
H789 H 0.68243 0.69718 0.19894 0.0
H790 H 0.72503 0.69969 0.20507 0.0
H791 H 0.69947 0.61034 0.18683 0.0
H792 H 0.65665 0.57932 0.23194 0.0
H793 H 0.68216 0.71977 0.28637 0.0
H794 H 0.73476 0.68855 0.31937 0.0
C795 C 0.93032 0.06055 0.04493 0.0
C796 C 0.94646 0.06554 0.05968 0.0
C797 C 0.94625 0.08757 0.06213 0.0
C798 C 0.93025 0.09487 0.04856 0.0
N799 N 0.92047 0.07882 0.03764 0.0
Co800 Co 0.89825 0.08245 0.01455 0.0
N801 N 0.90389 0.11413 1.01172 0.0
C802 C 0.91512 0.12621 0.02596 0.0
C803 C 0.91613 0.14762 0.02032 0.0
C804 C 0.90443 0.14929 1.0016 0.0
C805 C 0.89675 0.12877 0.9969 0.0
N806 N 0.87624 0.08563 0.99105 0.0
C807 C 0.87148 0.10262 0.97795 0.0
C808 C 0.85403 0.09785 0.96456 0.0
C809 C 0.84737 0.07749 0.96968 0.0
C810 C 0.86102 0.07092 0.9858 0.0
N811 N 0.89183 0.05109 0.01781 0.0
C812 C 0.87397 0.04088 1.01065 0.0
C813 C 0.87291 0.01961 0.01665 0.0
C814 C 0.89127 0.01609 0.02841 0.0
C815 C 0.90257 0.03548 0.02872 0.0
N816 N 0.87608 0.08894 0.03676 0.0
C817 C 0.84916 0.10352 0.07056 0.0
C818 C 0.86335 0.08614 0.07367 0.0
C819 C 0.87663 0.0791 0.0566 0.0
C820 C 0.84779 0.11248 0.04987 0.0
C821 C 0.86116 0.10486 0.03329 0.0
N822 N 0.92123 0.07626 0.993 0.0
C823 C 0.93758 0.05361 0.96553 0.0
C824 C 0.95734 0.06477 0.96735 0.0
C825 C 0.95828 0.08222 0.98155 0.0
C826 C 0.94028 0.08761 0.99414 0.0
C827 C 0.91965 0.05972 0.97837 0.0
H828 H 0.9423 0.10057 1.00542 0.0
H829 H 0.90481 0.05061 0.977 0.0
H830 H 0.88774 0.06605 0.0597 0.0
H831 H 0.85973 0.11231 0.01779 0.0
C832 C 0.92657 0.11645 0.04289 0.0
C833 C 0.92342 0.03835 0.03954 0.0
C834 C 0.88063 0.12447 0.97986 0.0
C835 C 0.86025 0.0509 0.99597 0.0
H836 H 0.95713 0.05446 0.06796 0.0
H837 H 0.95711 0.09716 0.07193 0.0
H838 H 0.92459 0.16046 0.02867 0.0
H839 H 0.90121 0.16405 0.99281 0.0
H840 H 0.84616 0.10832 0.953 0.0
H841 H 0.83393 0.06868 0.96273 0.0
H842 H 0.86063 1.00788 0.01239 0.0
H843 H 0.89589 1.00093 0.03577 0.0
H844 H 0.86454 0.07842 0.08932 0.0
H845 H 0.83668 0.12561 0.04662 0.0
H846 H 0.93616 0.03998 0.95466 0.0
H847 H 0.97318 0.09126 0.98348 0.0
C848 C 0.2755 0.28183 0.16266 0.0
C849 C 0.26758 0.26119 0.15872 0.0
C850 C 0.25605 0.26216 0.13999 0.0
C851 C 0.25658 0.28343 0.13401 0.0
N852 N 0.2675 0.29614 0.148 0.0
Co853 Co 0.26655 0.32845 0.14891 0.0
N854 N 0.2431 0.32988 0.12646 0.0
C855 C 0.23584 0.3132 0.11453 0.0
C856 C 0.21973 0.31865 0.10033 0.0
C857 C 0.21671 0.34029 0.10312 0.0
C858 C 0.23127 0.34685 0.1189 0.0
N859 N 0.26579 0.36085 0.14937 0.0
C860 C 0.25276 0.37523 0.13892 0.0
C861 C 0.25918 0.39632 0.14282 0.0
C862 C 0.27697 0.39523 0.15591 0.0
C863 C 0.28044 0.37361 0.15921 0.0
N864 N 0.28935 0.32677 0.17184 0.0
C865 C 0.29908 0.3439 0.18113 0.0
C866 C 0.30789 0.33913 0.20082 0.0
C867 C 0.30409 0.3176 0.20374 0.0
C868 C 0.29467 0.30985 0.18496 0.0
N869 N 0.2893 0.33032 0.12637 0.0
C870 C 0.32428 0.34387 0.10039 0.0
C871 C 0.32731 0.32849 0.1168 0.0
C872 C 0.30959 0.32191 0.12958 0.0
C873 C 0.30313 0.35046 0.09596 0.0
C874 C 0.28602 0.34329 0.10881 0.0
N875 N 0.24442 0.32702 0.17209 0.0
C876 C 0.23453 0.3365 0.2087 0.0
C877 C 0.22019 0.31912 0.20982 0.0
C878 C 0.21687 0.30677 0.19114 0.0
C879 C 0.22896 0.31113 0.1724 0.0
C880 C 0.24623 0.3403 0.18973 0.0
H881 H 0.22628 0.30105 0.15854 0.0
H882 H 0.25743 0.3535 0.1899 0.0
H883 H 0.31256 0.31078 0.14264 0.0
H884 H 0.27033 0.34928 0.10501 0.0
C885 C 0.24295 0.29233 0.11855 0.0
C886 C 0.29235 0.28659 0.17898 0.0
C887 C 0.2352 0.36968 0.12393 0.0
C888 C 0.29527 0.36483 0.1737 0.0
H889 H 0.26997 0.24678 0.1683 0.0
H890 H 0.24708 0.24916 0.13246 0.0
H891 H 0.21105 0.3081 0.08939 0.0
H892 H 0.2055 0.35024 0.0941 0.0
H893 H 0.25189 0.41094 0.1366 0.0
H894 H 0.28602 0.40864 0.16259 0.0
H895 H 0.31423 0.35037 0.21263 0.0
H896 H 0.30621 0.30934 0.21886 0.0
H897 H 0.34334 0.32234 0.12028 0.0
H898 H 0.29989 0.36176 0.08301 0.0
H899 H 0.23719 0.34671 0.22267 0.0
H900 H 0.2055 0.29345 0.19125 0.0
C901 C 0.27421 0.74626 0.37124 0.0
C902 C 0.27012 0.76672 0.37954 0.0
C903 C 0.2578 0.76393 0.39761 0.0
C904 C 0.25468 0.74209 0.39919 0.0
N905 N 0.26432 0.73081 0.38326 0.0
Co906 Co 0.26171 0.69912 0.3782 0.0
N907 N 0.23638 0.69666 0.39828 0.0
C908 C 0.22949 0.71213 0.41196 0.0
C909 C 0.21238 0.70594 0.42457 0.0
C910 C 0.20838 0.68503 0.41893 0.0
C911 C 0.22337 0.67957 0.4031 0.0
N912 N 0.25947 0.66725 0.37357 0.0
C913 C 0.24472 0.65262 0.38087 0.0
C914 C 0.25013 0.63184 0.37447 0.0
C915 C 0.26928 0.63334 0.36349 0.0
C916 C 0.27443 0.6549 0.36362 0.0
N917 N 0.28644 0.70193 0.35763 0.0
C918 C 0.29856 0.68563 0.34989 0.0
C919 C 0.31457 0.69246 0.33611 0.0
C920 C 0.31241 0.71448 0.33509 0.0
C921 C 0.2951 0.71983 0.34829 0.0
N922 N 0.28233 0.69333 0.40224 0.0
C923 C 0.31358 0.67183 0.42804 0.0
C924 C 0.31958 0.6881 0.41319 0.0
C925 C 0.30381 0.6986 0.40056 0.0
C926 C 0.29138 0.67175 0.43338 0.0
C927 C 0.27618 0.68162 0.41991 0.0
N928 N 0.24179 0.70449 0.35383 0.0
C929 C 0.23313 0.69914 0.31612 0.0
C930 C 0.21728 0.7152 0.31698 0.0
C931 C 0.21334 0.72527 0.3369 0.0
C932 C 0.22579 0.71973 0.35508 0.0
C933 C 0.24502 0.69394 0.33464 0.0
H934 H 0.22278 0.72816 0.36999 0.0
H935 H 0.25728 0.68174 0.33315 0.0
H936 H 0.30926 0.71035 0.38894 0.0
H937 H 0.25953 0.67898 0.42385 0.0
C938 C 0.23905 0.73246 0.41215 0.0
C939 C 0.28801 0.74212 0.35236 0.0
C940 C 0.22708 0.65719 0.39615 0.0
C941 C 0.29243 0.66421 0.35354 0.0
H942 H 0.27503 0.78217 0.37308 0.0
H943 H 0.25068 0.77647 0.40751 0.0
H944 H 0.20407 0.71538 0.43672 0.0
H945 H 0.19651 0.6747 0.42656 0.0
H946 H 0.24157 0.61704 0.37819 0.0
H947 H 0.27844 0.62025 0.35638 0.0
H948 H 0.32599 0.68258 0.32727 0.0
H949 H 0.32238 0.72536 0.3257 0.0
H950 H 0.33631 0.69266 0.41091 0.0
H951 H 0.28511 0.66399 0.44762 0.0
H952 H 0.23655 0.69087 0.30109 0.0
H953 H 0.20107 0.73768 0.33825 0.0
C954 C 0.96732 0.48071 0.92754 0.0
C955 C 0.96303 0.46907 0.94618 0.0
C956 C 0.94196 0.47322 0.95155 0.0
C957 C 0.93454 0.48705 0.93592 0.0
N958 N 0.94943 0.49157 0.92062 0.0
Co959 Co 0.94562 0.51283 0.89659 0.0
N960 N 0.91376 0.51585 0.90202 0.0
C961 C 0.9029 0.50803 0.91919 0.0
C962 C 0.881 0.51165 0.9181 0.0
C963 C 0.87779 0.52252 0.89909 0.0
C964 C 0.898 0.52507 0.88969 0.0
N965 N 0.94215 0.53474 0.87318 0.0
C966 C 0.92409 0.54364 0.86445 0.0
C967 C 0.92928 0.55911 0.84905 0.0
C968 C 0.95131 0.55974 0.84783 0.0
C969 C 0.95831 0.5448 0.86256 0.0
N970 N 0.97723 0.50898 0.89001 0.0
C971 C 0.98894 0.52081 0.87593 0.0
C972 C 1.0103 0.51503 0.87488 0.0
C973 C 1.01254 0.49881 0.88958 0.0
C974 C 0.99231 0.49566 0.89887 0.0
N975 N 0.93856 0.48915 0.87611 0.0
C976 C 0.92354 0.4577 0.84639 0.0
C977 C 0.94004 0.47235 0.84075 0.0
C978 C 0.94696 0.4882 0.85565 0.0
C979 C 0.9157 0.45854 0.86755 0.0
C980 C 0.9237 0.47384 0.88211 0.0
N981 N 0.95209 0.53642 0.91796 0.0
C982 C 0.9762 0.55113 0.94522 0.0
C983 C 0.95888 0.5603 0.95648 0.0
C984 C 0.93845 0.55935 0.94675 0.0
C985 C 0.93564 0.54825 0.92713 0.0
C986 C 0.97251 0.53922 0.9263 0.0
H987 H 0.91979 0.54893 0.92007 0.0
H988 H 0.98646 0.5317 0.91941 0.0
H989 H 0.95878 0.49987 0.85042 0.0
H990 H 0.91719 0.47349 0.89813 0.0
C991 C 0.91354 0.49541 0.93461 0.0
C992 C 0.98923 0.48281 0.91849 0.0
C993 C 0.9018 0.53798 0.8701 0.0
C994 C 0.97952 0.53762 0.86445 0.0
H995 H 0.97426 0.4593 0.95536 0.0
H996 H 0.93318 0.46708 0.96537 0.0
H997 H 0.86875 0.50655 0.92951 0.0
H998 H 0.86242 0.52828 0.89301 0.0
H999 H 0.9183 0.56875 0.83944 0.0
H1000 H 0.96103 0.56932 0.83688 0.0
H1001 H 0.02291 0.52225 0.86512 0.0
H1002 H 0.02765 0.49109 0.89386 0.0
H1003 H 0.94692 0.4721 0.82467 0.0
H1004 H 0.90321 0.44744 0.87284 0.0
H1005 H 0.99247 0.5521 0.9517 0.0
H1006 H 0.92461 0.5669 0.95439 0.0
C1007 C 0.74753 0.78334 0.3658 0.0
C1008 C 0.751 0.76263 0.37371 0.0
C1009 C 0.76465 0.76458 0.39084 0.0
C1010 C 0.76888 0.78621 0.39233 0.0
N1011 N 0.75852 0.79838 0.37745 0.0
Co1012 Co 0.76205 0.83035 0.37283 0.0
N1013 N 0.78458 0.83244 0.39616 0.0
C1014 C 0.79194 0.81609 0.40859 0.0
C1015 C 0.80672 0.82225 0.42387 0.0
C1016 C 0.80885 0.84395 0.42128 0.0
C1017 C 0.7952 0.8498 0.40443 0.0
N1018 N 0.76587 0.86233 0.36824 0.0
C1019 C 0.7783 0.87697 0.37909 0.0
C1020 C 0.77559 0.89762 0.37093 0.0
C1021 C 0.76079 0.89609 0.35456 0.0
C1022 C 0.75531 0.87464 0.35357 0.0
N1023 N 0.73946 0.82803 0.34958 0.0
C1024 C 0.73138 0.84449 0.3377 0.0
C1025 C 0.71677 0.83787 0.32235 0.0
C1026 C 0.71572 0.81589 0.32432 0.0
C1027 C 0.72983 0.81025 0.34076 0.0
N1028 N 0.73885 0.83668 0.3947 0.0
C1029 C 0.70747 0.84923 0.4259 0.0
C1030 C 0.70903 0.85957 0.40603 0.0
C1031 C 0.72423 0.85289 0.39081 0.0
C1032 C 0.72155 0.83181 0.4297 0.0
C1033 C 0.73723 0.82603 0.4141 0.0
N1034 N 0.7848 0.82447 0.35057 0.0
C1035 C 0.79742 0.82969 0.31384 0.0
C1036 C 0.8128 0.8135 0.31604 0.0
C1037 C 0.81478 0.80344 0.33627 0.0
C1038 C 0.80061 0.80912 0.35326 0.0
C1039 C 0.78397 0.83499 0.33109 0.0
H1040 H 0.80233 0.80067 0.36826 0.0
H1041 H 0.77263 0.84737 0.32791 0.0
H1042 H 0.7238 0.86143 0.37606 0.0
H1043 H 0.74798 0.81309 0.41808 0.0
C1044 C 0.78408 0.79524 0.40616 0.0
C1045 C 0.73434 0.78769 0.34669 0.0
C1046 C 0.79246 0.87217 0.39752 0.0
C1047 C 0.7394 0.86564 0.33999 0.0
H1048 H 0.74489 0.74751 0.36744 0.0
H1049 H 0.77144 0.75166 0.40046 0.0
H1050 H 0.81465 0.81221 0.43579 0.0
H1051 H 0.81901 0.85433 0.43103 0.0
H1052 H 0.78328 0.91231 0.37653 0.0
H1053 H 0.75443 0.90916 0.34485 0.0
H1054 H 0.70849 0.84777 0.31056 0.0
H1055 H 0.70616 0.80512 0.31437 0.0
H1056 H 0.69842 0.87296 0.40216 0.0
H1057 H 0.72078 0.82306 0.44482 0.0
H1058 H 0.79549 0.83804 0.29858 0.0
H1059 H 0.82669 0.79086 0.3387 0.0
C1060 C 0.56381 0.54956 0.42935 0.0
C1061 C 0.57081 0.56242 0.44632 0.0
C1062 C 0.59118 0.5555 0.45159 0.0
C1063 C 0.59564 0.53906 0.4374 0.0
N1064 N 0.57961 0.5355 0.42307 0.0
Co1065 Co 0.58002 0.51316 0.39966 0.0
N1066 N 0.61131 0.50625 0.40447 0.0
C1067 C 0.62325 0.5124 0.42159 0.0
C1068 C 0.64449 0.50601 0.42015 0.0
C1069 C 0.64606 0.49505 0.40097 0.0
C1070 C 0.62561 0.4953 0.39179 0.0
N1071 N 0.58027 0.4908 0.37646 0.0
C1072 C 0.59704 0.48045 0.36681 0.0
C1073 C 0.58974 0.46558 0.35165 0.0
C1074 C 0.56768 0.46671 0.35172 0.0
C1075 C 0.56277 0.48209 0.36686 0.0
N1076 N 0.54862 0.51997 0.3946 0.0
C1077 C 0.53502 0.50838 0.38209 0.0
C1078 C 0.51414 0.51567 0.38232 0.0
C1079 C 0.5142 0.53267 0.39627 0.0
C1080 C 0.5353 0.53493 0.40382 0.0
N1081 N 0.58871 0.53564 0.37853 0.0
C1082 C 0.60348 0.56682 0.34844 0.0
C1083 C 0.58521 0.55392 0.34408 0.0
C1084 C 0.57833 0.53824 0.35914 0.0
C1085 C 0.61373 0.564 0.36837 0.0
C1086 C 0.60598 0.54876 0.38314 0.0
N1087 N 0.57194 0.49082 0.42122 0.0
C1088 C 0.55185 0.48206 0.45347 0.0
C1089 C 0.56397 0.46335 0.45683 0.0
C1090 C 0.5796 0.45799 0.4412 0.0
C1091 C 0.5835 0.47206 0.42366 0.0
C1092 C 0.55555 0.49491 0.43541 0.0
H1093 H 0.59605 0.46788 0.4123 0.0
H1094 H 0.5452 0.50839 0.43331 0.0
H1095 H 0.56474 0.52813 0.35499 0.0
H1096 H 0.61435 0.54756 0.39825 0.0
C1097 C 0.615 0.52736 0.43639 0.0
C1098 C 0.54096 0.54865 0.42248 0.0
C1099 C 0.61998 0.48371 0.37185 0.0
C1100 C 0.54235 0.49077 0.37027 0.0
H1101 H 0.56155 0.57455 0.45487 0.0
H1102 H 0.6014 0.56154 0.46445 0.0
H1103 H 0.65752 0.50967 0.43126 0.0
H1104 H 0.66051 0.48759 0.39451 0.0
H1105 H 0.59933 0.45504 0.34152 0.0
H1106 H 0.55659 0.45792 0.34142 0.0
H1107 H 0.50034 0.509 0.37383 0.0
H1108 H 0.49992 0.54146 0.40112 0.0
H1109 H 0.57664 0.55562 0.32892 0.0
H1110 H 0.62779 0.57359 0.37256 0.0
H1111 H 0.53923 0.48663 0.46471 0.0
H1112 H 0.58902 0.44334 0.44278 0.0
C1113 C 0.24451 0.73862 0.6497 0.0
C1114 C 0.24398 0.75827 0.63889 0.0
C1115 C 0.25923 0.75718 0.62304 0.0
C1116 C 0.26787 0.73691 0.62483 0.0
N1117 N 0.25888 0.72483 0.64062 0.0
Co1118 Co 0.26468 0.69354 0.64669 0.0
N1119 N 0.28722 0.69214 0.62347 0.0
C1120 C 0.29501 0.70894 0.61192 0.0
C1121 C 0.31117 0.70344 0.59784 0.0
C1122 C 0.31376 0.68175 0.60035 0.0
C1123 C 0.2988 0.6752 0.61577 0.0
N1124 N 0.26969 0.66178 0.65153 0.0
C1125 C 0.28127 0.64723 0.63971 0.0
C1126 C 0.2785 0.6264 0.64739 0.0
C1127 C 0.26466 0.62776 0.6646 0.0
C1128 C 0.25962 0.64928 0.66636 0.0
N1129 N 0.2429 0.69554 0.67064 0.0
C1130 C 0.23759 0.6795 0.68447 0.0
C1131 C 0.22471 0.68624 0.70121 0.0
C1132 C 0.22191 0.70793 0.69808 0.0
C1133 C 0.23305 0.71323 0.67938 0.0
N1134 N 0.24151 0.68558 0.62558 0.0
C1135 C 0.20927 0.67188 0.59588 0.0
C1136 C 0.21047 0.66328 0.61666 0.0
C1137 C 0.22608 0.67068 0.63121 0.0
C1138 C 0.22429 0.68802 0.59039 0.0
C1139 C 0.24051 0.69419 0.60518 0.0
N1140 N 0.28751 0.70128 0.66853 0.0
C1141 C 0.30275 0.6951 0.70419 0.0
C1142 C 0.31256 0.71533 0.70435 0.0
C1143 C 0.31102 0.72787 0.68555 0.0
C1144 C 0.29864 0.72049 0.66783 0.0
C1145 C 0.29073 0.68837 0.68629 0.0
H1146 H 0.29758 0.73093 0.65408 0.0
H1147 H 0.28377 0.67277 0.68766 0.0
H1148 H 0.22537 0.66391 0.64694 0.0
H1149 H 0.25218 0.70581 0.59983 0.0
C1150 C 0.28512 0.72908 0.61274 0.0
C1151 C 0.23395 0.73528 0.67052 0.0
C1152 C 0.29523 0.65251 0.62129 0.0
C1153 C 0.24548 0.65844 0.68157 0.0
H1154 H 0.23439 0.77235 0.64284 0.0
H1155 H 0.2639 0.76986 0.61195 0.0
H1156 H 0.31948 0.71381 0.58647 0.0
H1157 H 0.32494 0.6718 0.59131 0.0
H1158 H 0.28576 0.61178 0.64115 0.0
H1159 H 0.25877 0.6146 0.67448 0.0
H1160 H 0.21849 0.67662 0.71442 0.0
H1161 H 0.21286 0.71866 0.70848 0.0
H1162 H 0.1992 0.65089 0.6218 0.0
H1163 H 0.2239 0.69537 0.57453 0.0
H1164 H 0.30397 0.68461 0.71814 0.0
H1165 H 0.31881 0.74352 0.68477 0.0
C1166 C 0.96966 0.54474 0.59917 0.0
C1167 C 0.96467 0.5622 0.5861 0.0
C1168 C 0.94281 0.56562 0.58815 0.0
C1169 C 0.93567 0.55013 0.60235 0.0
N1170 N 0.95165 0.53715 0.60934 0.0
Co1171 Co 0.94823 0.51267 0.62998 0.0
N1172 N 0.91609 0.51178 0.62633 0.0
C1173 C 0.90411 0.52744 0.61709 0.0
C1174 C 0.88229 0.52325 0.61766 0.0
C1175 C 0.88029 0.50396 0.62833 0.0
C1176 C 0.90105 0.49748 0.63379 0.0
N1177 N 0.94523 0.4879 0.65044 0.0
C1178 C 0.92796 0.4751 0.65512 0.0
C1179 C 0.93334 0.45983 0.67068 0.0
C1180 C 0.95435 0.46357 0.67638 0.0
C1181 C 0.96072 0.48075 0.66399 0.0
N1182 N 0.98026 0.51378 0.63392 0.0
C1183 C 0.99152 0.50425 0.6499 0.0
C1184 C 0.01347 0.50705 0.64813 0.0
C1185 C 0.01632 0.51911 0.62987 0.0
C1186 C 0.99583 0.52314 0.62158 0.0
N1187 N 0.94416 0.53358 0.65403 0.0
C1188 C 0.92923 0.56647 0.68201 0.0
C1189 C 0.9465 0.57023 0.66768 0.0
C1190 C 0.95373 0.55358 0.65387 0.0
C1191 C 0.92121 0.54541 0.68339 0.0
C1192 C 0.92907 0.52931 0.66962 0.0
N1193 N 0.95164 0.49228 0.60562 0.0
C1194 C 0.96843 0.4612 0.58881 0.0
C1195 C 0.95764 0.4654 0.56929 0.0
C1196 C 0.9434 0.4829 0.56859 0.0
C1197 C 0.94052 0.49594 0.58683 0.0
C1198 C 0.9653 0.47489 0.60674 0.0
H1199 H 0.92956 0.50933 0.58546 0.0
H1200 H 0.97422 0.47163 0.62133 0.0
H1201 H 0.9664 0.55721 0.64244 0.0
H1202 H 0.92206 0.51364 0.67102 0.0
C1203 C 0.91403 0.54505 0.60684 0.0
C1204 C 0.99182 0.5366 0.6025 0.0
C1205 C 0.90548 0.47916 0.64829 0.0
C1206 C 0.98152 0.48943 0.66352 0.0
H1207 H 0.9757 0.57146 0.57617 0.0
H1208 H 0.93317 0.57749 0.57967 0.0
H1209 H 0.86936 0.53308 0.61117 0.0
H1210 H 0.86525 0.49597 0.63241 0.0
H1211 H 0.92293 0.4478 0.67794 0.0
H1212 H 0.96383 0.45483 0.68819 0.0
H1213 H 0.02599 0.50015 0.65822 0.0
H1214 H 0.03176 0.52413 0.62334 0.0
H1215 H 0.95364 0.58616 0.66647 0.0
H1216 H 0.90831 0.54154 0.6946 0.0
H1217 H 0.97971 0.44789 0.58996 0.0
H1218 H 0.93483 0.48675 0.55382 0.0
C1219 C 0.05485 0.97993 0.60197 0.0
C1220 C 0.05922 0.96244 0.58871 0.0
C1221 C 0.08108 0.95865 0.59021 0.0
C1222 C 0.08885 0.97397 0.60431 0.0
N1223 N 0.07325 0.98714 0.61177 0.0
Co1224 Co 0.07766 1.01167 0.63221 0.0
N1225 N 0.10959 0.01238 0.62733 0.0
C1226 C 0.12109 0.99673 0.61748 0.0
C1227 C 0.14284 1.00119 0.61653 0.0
C1228 C 0.14532 0.02062 0.62687 0.0
C1229 C 0.12491 0.02687 0.6338 0.0
N1230 N 0.08157 0.03648 0.65255 0.0
C1231 C 0.09923 0.04887 0.65705 0.0
C1232 C 0.0947 0.06352 0.67348 0.0
C1233 C 0.0738 0.05999 0.67968 0.0
C1234 C 0.06667 0.04344 0.66685 0.0
N1235 N 0.04577 1.01075 0.6372 0.0
C1236 C 0.03515 0.02026 0.65361 0.0
C1237 C 1.01312 0.01774 0.65248 0.0
C1238 C 1.00953 1.00593 0.63416 0.0
C1239 C 0.02969 1.00176 0.62518 0.0
N1240 N 0.0826 0.99088 0.65622 0.0
C1241 C 0.09868 0.9584 0.68399 0.0
C1242 C 0.08117 0.95427 0.67005 0.0
C1243 C 0.0733 0.97076 0.65638 0.0
C1244 C 0.10645 0.97954 0.68508 0.0
C1245 C 0.09809 0.9954 0.6714 0.0
N1246 N 0.07352 0.03193 0.60794 0.0
C1247 C 0.0568 0.06325 0.59161 0.0
C1248 C 0.06663 0.05857 0.57169 0.0
C1249 C 0.08043 0.04078 0.57056 0.0
C1250 C 0.08379 0.02789 0.58876 0.0
C1251 C 0.06032 0.04962 0.6095 0.0
H1252 H 0.09444 0.0143 0.58702 0.0
H1253 H 0.05209 0.05317 0.62444 0.0
H1254 H 0.06038 0.9669 0.64529 0.0
H1255 H 0.10513 1.01107 0.67256 0.0
C1256 C 0.11068 0.97903 0.60782 0.0
C1257 C 0.03293 0.98857 0.60572 0.0
C1258 C 0.12133 0.04488 0.64902 0.0
C1259 C 0.0458 0.03487 0.66702 0.0
H1260 H 0.04781 0.95346 0.57894 0.0
H1261 H 0.09032 0.94677 0.58131 0.0
H1262 H 0.15542 0.99148 0.60921 0.0
H1263 H 0.16053 0.02876 0.62989 0.0
H1264 H 0.10561 0.0749 0.68104 0.0
H1265 H 0.06494 0.06833 0.69224 0.0
H1266 H 1.00101 0.0247 0.66302 0.0
H1267 H 0.99384 1.00118 0.62803 0.0
H1268 H 0.07428 0.93821 0.66906 0.0
H1269 H 0.1196 0.98364 0.69592 0.0
H1270 H 0.04592 0.07687 0.59311 0.0
H1271 H 0.08832 0.03662 0.5555 0.0
C1272 C 0.64832 0.77895 0.78035 0.0
C1273 C 0.63921 0.7762 0.76002 0.0
C1274 C 0.62444 0.75992 0.76179 0.0
C1275 C 0.62528 0.75373 0.78301 0.0
N1276 N 0.63927 0.76534 0.79507 0.0
Co1277 Co 0.64545 0.76097 0.82663 0.0
N1278 N 0.62244 0.73842 0.82926 0.0
C1279 C 0.61213 0.72862 0.81277 0.0
C1280 C 0.5978 0.71298 0.81917 0.0
C1281 C 0.59896 0.71287 0.84115 0.0
C1282 C 0.61389 0.72864 0.84692 0.0
N1283 N 0.6504 0.75753 0.85846 0.0
C1284 C 0.63811 0.74752 0.87377 0.0
C1285 C 0.64701 0.75011 0.89416 0.0
C1286 C 0.66568 0.7618 0.89155 0.0
C1287 C 0.66706 0.76584 0.86979 0.0
N1288 N 0.66921 0.7828 0.82357 0.0
C1289 C 0.68408 0.78752 0.83882 0.0
C1290 C 0.69976 0.80161 0.83187 0.0
C1291 C 0.69489 0.8057 0.81071 0.0
C1292 C 0.67649 0.7938 0.80592 0.0
N1293 N 0.6242 0.7841 0.83384 0.0
C1294 C 0.59348 0.81457 0.84928 0.0
C1295 C 0.61487 0.81449 0.8567 0.0
C1296 C 0.62986 0.79962 0.84859 0.0
C1297 C 0.58807 0.79957 0.83303 0.0
C1298 C 0.60349 0.78429 0.82584 0.0
N1299 N 0.66749 0.7379 0.82011 0.0
C1300 C 0.69642 0.71487 0.83353 0.0
C1301 C 0.70596 0.71368 0.81306 0.0
C1302 C 0.69465 0.72304 0.79588 0.0
C1303 C 0.67576 0.73508 0.79969 0.0
C1304 C 0.6769 0.72616 0.83649 0.0
H1305 H 0.66874 0.74258 0.78581 0.0
H1306 H 0.67005 0.72553 0.85238 0.0
H1307 H 0.64595 0.80051 0.85492 0.0
H1308 H 0.59847 0.77247 0.81411 0.0
C1309 C 0.61397 0.73649 0.79186 0.0
C1310 C 0.66795 0.79174 0.78385 0.0
C1311 C 0.6191 0.73388 0.86936 0.0
C1312 C 0.68243 0.77898 0.85968 0.0
H1313 H 0.64367 0.78421 0.74515 0.0
H1314 H 0.61485 0.75288 0.74896 0.0
H1315 H 0.58717 0.7034 0.8091 0.0
H1316 H 0.5896 0.70256 0.85173 0.0
H1317 H 0.64085 0.74384 0.90927 0.0
H1318 H 0.67669 0.76707 0.90408 0.0
H1319 H 0.7133 0.80791 0.841 0.0
H1320 H 0.70425 0.81564 0.79977 0.0
H1321 H 0.62002 0.82588 0.86895 0.0
H1322 H 0.57184 0.79922 0.82644 0.0
H1323 H 0.70409 0.70724 0.84727 0.0
H1324 H 0.70097 0.72195 0.77959 0.0
C1325 C 0.04796 0.09411 0.46848 0.0
C1326 C 0.0594 0.07552 0.46344 0.0
C1327 C 0.05278 0.06929 0.44328 0.0
C1328 C 0.03787 0.08448 0.43706 0.0
N1329 N 0.03507 0.10035 0.45173 0.0
Co1330 Co 0.01462 0.12532 0.44867 0.0
N1331 N 1.00859 0.1189 0.41757 0.0
C1332 C 0.01484 0.10108 0.40681 0.0
C1333 C 1.00963 0.10163 0.38526 0.0
C1334 C 0.9994 0.12101 0.38217 0.0
C1335 C 0.99878 0.13118 0.4021 0.0
N1336 N 0.99346 0.14961 0.44604 0.0
C1337 C 0.98366 0.15831 0.42845 0.0
C1338 C 0.96928 0.17452 0.43429 0.0
C1339 C 0.97029 0.17626 0.45624 0.0
C1340 C 0.98504 0.16099 0.46256 0.0
N1341 N 0.02124 0.13253 0.47961 0.0
C1342 C 1.01077 0.14729 0.49169 0.0
C1343 C 0.01803 0.14853 0.51255 0.0
C1344 C 0.03383 0.13324 0.51406 0.0
C1345 C 0.03535 0.12345 0.49393 0.0
N1346 N 0.0386 0.14438 0.43902 0.0
C1347 C 0.06849 0.17176 0.41699 0.0
C1348 C 0.05366 0.17989 0.43248 0.0
C1349 C 0.03873 0.16612 0.44291 0.0
C1350 C 0.07062 0.14911 0.4171 0.0
C1351 C 0.05515 0.13599 0.427 0.0
N1352 N 0.99076 0.10575 0.45757 0.0
C1353 C 0.98011 0.07552 0.47968 0.0
C1354 C 0.96304 0.07037 0.46585 0.0
C1355 C 0.95888 0.08465 0.44866 0.0
C1356 C 0.97307 0.10209 0.44467 0.0
C1357 C 0.99306 0.09348 0.47574 0.0
H1358 H 0.97001 0.11218 0.43083 0.0
H1359 H 1.00545 0.09666 0.48718 0.0
H1360 H 0.02711 0.1732 0.45378 0.0
H1361 H 0.05668 0.119 0.4243 0.0
C1362 C 0.02786 0.08561 0.41684 0.0
C1363 C 0.04718 0.10309 0.49047 0.0
C1364 C 0.98727 0.15165 0.40604 0.0
C1365 C 0.99375 0.15925 0.48317 0.0
H1366 H 0.07045 0.06677 0.47379 0.0
H1367 H 0.05817 0.05532 0.43427 0.0
H1368 H 0.0134 0.08966 0.37309 0.0
H1369 H 0.9929 0.12689 0.36705 0.0
H1370 H 0.95927 0.18426 0.42378 0.0
H1371 H 0.96191 0.18785 0.4663 0.0
H1372 H 1.01201 0.1588 0.52536 0.0
H1373 H 0.04229 0.12896 0.52873 0.0
H1374 H 0.0533 0.19678 0.43679 0.0
H1375 H 0.08401 0.14092 0.40956 0.0
H1376 H 0.98357 0.06554 0.49361 0.0
H1377 H 0.94528 0.08191 0.43797 0.0
C1378 C 0.37479 0.7571 0.78129 0.0
C1379 C 0.3838 0.76202 0.76136 0.0
C1380 C 0.40135 0.77485 0.76533 0.0
C1381 C 0.40205 0.77705 0.78736 0.0
N1382 N 0.38608 0.76639 0.79764 0.0
Co1383 Co 0.3815 0.76531 0.82954 0.0
N1384 N 0.40151 0.79027 0.83453 0.0
C1385 C 0.41461 0.79931 0.81965 0.0
C1386 C 0.42669 0.81615 0.82745 0.0
C1387 C 0.4213 0.81768 0.84877 0.0
C1388 C 0.40624 0.8015 0.85283 0.0
N1389 N 0.37775 0.76365 0.86161 0.0
C1390 C 0.38556 0.77645 0.87775 0.0
C1391 C 0.3803 0.76818 0.89788 0.0
C1392 C 0.36937 0.74927 0.89432 0.0
C1393 C 0.36849 0.74706 0.87229 0.0
N1394 N 0.36093 0.74102 0.82419 0.0
C1395 C 0.35327 0.72727 0.83915 0.0
C1396 C 0.33896 0.71245 0.83082 0.0
C1397 C 0.33754 0.71713 0.80921 0.0
C1398 C 0.35112 0.73457 0.80556 0.0
N1399 N 0.40581 0.74447 0.83237 0.0
C1400 C 0.43316 0.71081 0.84645 0.0
C1401 C 0.41865 0.70762 0.82926 0.0
C1402 C 0.40522 0.72469 0.82239 0.0
C1403 C 0.43535 0.73173 0.85458 0.0
C1404 C 0.42187 0.74825 0.84711 0.0
N1405 N 0.35667 0.78548 0.82722 0.0
C1406 C 0.31983 0.79435 0.83729 0.0
C1407 C 0.31858 0.81003 0.82111 0.0
C1408 C 0.3372 0.81395 0.8087 0.0
C1409 C 0.35614 0.80172 0.81219 0.0
C1410 C 0.33874 0.78216 0.83985 0.0
H1411 H 0.37008 0.805 0.80227 0.0
H1412 H 0.33837 0.76946 0.85164 0.0
H1413 H 0.39366 0.72149 0.80976 0.0
H1414 H 0.42387 0.7638 0.85425 0.0
C1415 C 0.41476 0.79196 0.79841 0.0
C1416 C 0.35573 0.74335 0.78395 0.0
C1417 C 0.40006 0.79506 0.87483 0.0
C1418 C 0.35781 0.73056 0.86105 0.0
H1419 H 0.37811 0.7571 0.74557 0.0
H1420 H 0.41169 0.78255 0.7535 0.0
H1421 H 0.4383 0.82594 0.81876 0.0
H1422 H 0.42849 0.82874 0.86026 0.0
H1423 H 0.38464 0.77477 0.91349 0.0
H1424 H 0.36289 0.7384 0.90638 0.0
H1425 H 0.33016 0.70008 0.83951 0.0
H1426 H 0.32787 0.70855 0.79742 0.0
H1427 H 0.41694 0.69182 0.82196 0.0
H1428 H 0.44686 0.73514 0.86733 0.0
H1429 H 0.30582 0.79076 0.84719 0.0
H1430 H 0.33694 0.82603 0.79606 0.0
C1431 C 0.97608 0.42546 0.46699 0.0
C1432 C 0.96291 0.44244 0.46066 0.0
C1433 C 0.96952 0.44833 0.44041 0.0
C1434 C 0.98609 0.43447 0.43537 0.0
N1435 N 0.99001 0.41971 0.45088 0.0
Co1436 Co 1.01269 0.39659 0.44955 0.0
N1437 N 0.01946 0.40266 0.41853 0.0
C1438 C 1.0131 0.42018 0.40734 0.0
C1439 C 0.02012 0.42008 0.38629 0.0
C1440 C 0.0317 0.40135 0.38404 0.0
C1441 C 0.03104 0.39102 0.40388 0.0
N1442 N 0.03537 0.37363 0.44831 0.0
C1443 C 0.04563 0.36455 0.43114 0.0
C1444 C 0.05999 0.34862 0.43772 0.0
C1445 C 0.05881 0.34775 0.45972 0.0
C1446 C 0.04381 0.36305 0.46534 0.0
N1447 N 1.0059 0.39034 0.48068 0.0
C1448 C 0.01739 0.37719 0.4937 0.0
C1449 C 1.01004 0.37665 0.51455 0.0
C1450 C 0.99313 0.39078 0.51507 0.0
C1451 C 0.99103 0.39919 0.49438 0.0
N1452 N 0.99054 0.37541 0.44017 0.0
C1453 C 0.96091 0.34478 0.42359 0.0
C1454 C 0.97415 0.33986 0.44137 0.0
C1455 C 0.98897 0.35529 0.44925 0.0
C1456 C 0.96244 0.36552 0.4148 0.0
C1457 C 0.97704 0.38051 0.42337 0.0
N1458 N 0.03482 0.41809 0.4583 0.0
C1459 C 0.04314 0.45002 0.47899 0.0
C1460 C 0.06124 0.45444 0.46627 0.0
C1461 C 0.06689 0.43924 0.45038 0.0
C1462 C 0.05335 0.4213 0.44652 0.0
C1463 C 0.0308 0.4316 0.47524 0.0
H1464 H 0.05763 0.41036 0.43372 0.0
H1465 H 0.01767 0.42882 0.48587 0.0
H1466 H 0.99934 0.35077 0.46247 0.0
H1467 H 0.97756 0.39614 0.41597 0.0
C1468 C 0.99784 0.43437 0.41605 0.0
C1469 C 0.97757 0.41824 0.4896 0.0
C1470 C 0.04282 0.37096 0.40853 0.0
C1471 C 0.03498 0.36558 0.48583 0.0
H1472 H 0.95088 0.45067 0.47034 0.0
H1473 H 0.9633 0.46147 0.43071 0.0
H1474 H 0.01659 0.43182 0.37384 0.0
H1475 H 0.03975 0.39591 0.3695 0.0
H1476 H 0.07015 0.33855 0.42767 0.0
H1477 H 0.06723 0.33664 0.47029 0.0
H1478 H 0.01662 0.36754 0.52794 0.0
H1479 H 0.98421 0.39522 0.52942 0.0
H1480 H 0.97337 0.32405 0.44879 0.0
H1481 H 0.95245 0.3701 0.40117 0.0
H1482 H 0.03854 0.46082 0.49195 0.0
H1483 H 0.08123 0.44155 0.4406 0.0
C1484 C 0.64921 0.24125 0.74431 0.0
C1485 C 0.64012 0.24386 0.76466 0.0
C1486 C 0.62508 0.25986 0.76292 0.0
C1487 C 0.62574 0.26606 0.74171 0.0
N1488 N 0.63987 0.25468 0.72961 0.0
Co1489 Co 0.64607 0.25934 0.69808 0.0
N1490 N 0.62277 0.28153 0.69548 0.0
C1491 C 0.61223 0.29106 0.71198 0.0
C1492 C 0.5977 0.30648 0.70559 0.0
C1493 C 0.59898 0.30675 0.68361 0.0
C1494 C 0.61419 0.29128 0.67783 0.0
N1495 N 0.65119 0.26308 0.66631 0.0
C1496 C 0.63886 0.27297 0.65099 0.0
C1497 C 0.6479 0.27066 0.63063 0.0
C1498 C 0.66673 0.2593 0.63328 0.0
C1499 C 0.66806 0.25516 0.65502 0.0
N1500 N 0.67006 0.23778 0.70106 0.0
C1501 C 0.68496 0.23322 0.6858 0.0
C1502 C 0.70067 0.21915 0.69266 0.0
C1503 C 0.69582 0.21492 0.71378 0.0
C1504 C 0.67741 0.22674 0.71864 0.0
N1505 N 0.62512 0.23605 0.69065 0.0
C1506 C 0.59436 0.20601 0.67449 0.0
C1507 C 0.61564 0.20652 0.66678 0.0
C1508 C 0.63069 0.22108 0.67533 0.0
C1509 C 0.58914 0.22022 0.69146 0.0
C1510 C 0.60455 0.23536 0.69896 0.0
N1511 N 0.66765 0.28271 0.70484 0.0
C1512 C 0.69559 0.30703 0.69167 0.0
C1513 C 0.70529 0.30799 0.71206 0.0
C1514 C 0.69454 0.29788 0.72915 0.0
C1515 C 0.67601 0.28535 0.72525 0.0
C1516 C 0.67645 0.29514 0.68864 0.0
H1517 H 0.6694 0.27734 0.73902 0.0
H1518 H 0.66937 0.2959 0.67284 0.0
H1519 H 0.64674 0.22049 0.66884 0.0
H1520 H 0.5996 0.24673 0.71115 0.0
C1521 C 0.61417 0.28315 0.73288 0.0
C1522 C 0.66913 0.22893 0.74078 0.0
C1523 C 0.61969 0.28631 0.65539 0.0
C1524 C 0.68342 0.24201 0.66505 0.0
H1525 H 0.64481 0.23598 0.77954 0.0
H1526 H 0.61544 0.26676 0.77579 0.0
H1527 H 0.58689 0.31585 0.71566 0.0
H1528 H 0.58954 0.31699 0.67304 0.0
H1529 H 0.64173 0.2769 0.61552 0.0
H1530 H 0.67787 0.25425 0.62078 0.0
H1531 H 0.71427 0.21301 0.68351 0.0
H1532 H 0.70526 0.20502 0.72468 0.0
H1533 H 0.62067 0.19571 0.65397 0.0
H1534 H 0.57303 0.22015 0.69835 0.0
H1535 H 0.70286 0.31527 0.67806 0.0
H1536 H 0.70104 0.29878 0.74537 0.0
C1537 C 0.47659 0.09963 0.55652 0.0
C1538 C 0.46546 0.08049 0.56027 0.0
C1539 C 0.47186 0.07309 0.5801 0.0
C1540 C 0.48674 0.08782 0.58738 0.0
N1541 N 0.48979 0.10444 0.57366 0.0
Co1542 Co 0.51317 0.12677 0.57676 0.0
N1543 N 0.52019 0.11812 0.60701 0.0
C1544 C 0.51382 0.09975 0.61668 0.0
C1545 C 0.52016 0.09858 0.63792 0.0
C1546 C 0.53126 0.11739 0.64185 0.0
C1547 C 0.53119 0.12897 0.6227 0.0
N1548 N 0.53631 0.14915 0.57961 0.0
C1549 C 0.54656 0.15684 0.59741 0.0
C1550 C 0.56192 0.1723 0.592 0.0
C1551 C 0.56105 0.17462 0.57008 0.0
C1552 C 0.54537 0.16044 0.56336 0.0
N1553 N 0.50643 0.13594 0.54654 0.0
C1554 C 0.51749 0.15054 0.53475 0.0
C1555 C 0.50756 0.15579 0.51566 0.0
C1556 C 0.48935 0.14328 0.51498 0.0
C1557 C 0.4895 0.13073 0.53357 0.0
N1558 N 0.49142 0.14737 0.58795 0.0
C1559 C 0.45977 0.17559 0.60493 0.0
C1560 C 0.4728 0.18174 0.58735 0.0
C1561 C 0.48883 0.16763 0.57948 0.0
C1562 C 0.46289 0.15499 0.61359 0.0
C1563 C 0.4783 0.14111 0.60466 0.0
N1564 N 0.53471 0.10524 0.56628 0.0
C1565 C 0.54095 0.07152 0.54757 0.0
C1566 C 0.56135 0.06925 0.55682 0.0
C1567 C 0.56868 0.08592 0.57046 0.0
C1568 C 0.55497 0.10357 0.57526 0.0
C1569 C 0.52836 0.08952 0.5521 0.0
H1570 H 0.56052 0.1154 0.5868 0.0
H1571 H 0.51303 0.08983 0.54454 0.0
H1572 H 0.49906 0.1732 0.56657 0.0
H1573 H 0.47951 0.12525 0.6115 0.0
C1574 C 0.49869 0.08626 0.60657 0.0
C1575 C 0.47753 0.11036 0.53505 0.0
C1576 C 0.54269 0.1496 0.61958 0.0
C1577 C 0.53596 0.16047 0.54294 0.0
H1578 H 0.45485 0.0719 0.54938 0.0
H1579 H 0.46696 0.05821 0.58784 0.0
H1580 H 0.5163 0.08605 0.64947 0.0
H1581 H 0.53858 0.12206 0.65703 0.0
H1582 H 0.57245 0.18118 0.60279 0.0
H1583 H 0.56998 0.1861 0.56037 0.0
H1584 H 0.51297 0.16724 0.50361 0.0
H1585 H 0.47824 0.14211 0.50151 0.0
H1586 H 0.47093 0.19752 0.58008 0.0
H1587 H 0.45325 0.14949 0.62713 0.0
H1588 H 0.53457 0.05921 0.53686 0.0
H1589 H 0.58452 0.08496 0.57788 0.0
C1590 C 0.37765 0.27058 0.7477 0.0
C1591 C 0.38676 0.26663 0.76781 0.0
C1592 C 0.40449 0.25392 0.76435 0.0
C1593 C 0.40515 0.25073 0.74244 0.0
N1594 N 0.38897 0.26066 0.73179 0.0
Co1595 Co 0.38346 0.25944 0.7001 0.0
N1596 N 0.40347 0.23429 0.69633 0.0
C1597 C 0.4174 0.22675 0.7113 0.0
C1598 C 0.42956 0.20963 0.70432 0.0
C1599 C 0.42337 0.20635 0.68342 0.0
C1600 C 0.40776 0.22181 0.67875 0.0
N1601 N 0.37829 0.25842 0.66821 0.0
C1602 C 0.38529 0.24422 0.6529 0.0
C1603 C 0.37879 0.25054 0.63243 0.0
C1604 C 0.36799 0.26968 0.63483 0.0
C1605 C 0.36836 0.27393 0.65658 0.0
N1606 N 0.36339 0.28434 0.70413 0.0
C1607 C 0.35567 0.2972 0.68842 0.0
C1608 C 0.34207 0.313 0.69606 0.0
C1609 C 0.34119 0.3099 0.71798 0.0
C1610 C 0.35432 0.29234 0.72245 0.0
N1611 N 0.40764 0.27996 0.69499 0.0
C1612 C 0.43536 0.31264 0.67938 0.0
C1613 C 0.42172 0.31644 0.69711 0.0
C1614 C 0.40807 0.29986 0.70472 0.0
C1615 C 0.43641 0.29162 0.67124 0.0
C1616 C 0.42276 0.27558 0.67947 0.0
N1617 N 0.35877 0.23956 0.70503 0.0
C1618 C 0.32055 0.23199 0.70062 0.0
C1619 C 0.32156 0.215 0.71547 0.0
C1620 C 0.34191 0.20994 0.7243 0.0
C1621 C 0.36021 0.22252 0.71906 0.0
C1622 C 0.33922 0.24381 0.69547 0.0
H1623 H 0.37538 0.21872 0.72675 0.0
H1624 H 0.33756 0.25684 0.68414 0.0
H1625 H 0.39722 0.3035 0.71786 0.0
H1626 H 0.42392 0.25988 0.67256 0.0
C1627 C 0.41794 0.23546 0.73203 0.0
C1628 C 0.3587 0.28434 0.74433 0.0
C1629 C 0.40048 0.22631 0.65661 0.0
C1630 C 0.35882 0.29176 0.66672 0.0
H1631 H 0.38108 0.27216 0.78339 0.0
H1632 H 0.41497 0.2469 0.77647 0.0
H1633 H 0.44168 0.20075 0.71328 0.0
H1634 H 0.43035 0.19458 0.67253 0.0
H1635 H 0.38239 0.24261 0.61727 0.0
H1636 H 0.36093 0.27946 0.62218 0.0
H1637 H 0.33319 0.32483 0.68674 0.0
H1638 H 0.33198 0.31943 0.72939 0.0
H1639 H 0.42089 0.33233 0.70436 0.0
H1640 H 0.44722 0.28776 0.65803 0.0
H1641 H 0.30527 0.23631 0.6932 0.0
H1642 H 0.3435 0.19677 0.73568 0.0
C1643 C 0.54405 0.42557 0.55844 0.0
C1644 C 0.55643 0.4437 0.56298 0.0
C1645 C 0.55545 0.44677 0.58482 0.0
C1646 C 0.54234 0.43058 0.59242 0.0
N1647 N 0.5352 0.4171 0.57678 0.0
Co1648 Co 0.51233 0.39426 0.58025 0.0
N1649 N 0.50924 0.39982 0.61211 0.0
C1650 C 0.52086 0.41411 0.6239 0.0
C1651 C 0.51638 0.41335 0.64559 0.0
C1652 C 0.50132 0.39731 0.64785 0.0
C1653 C 0.49741 0.38921 0.62734 0.0
N1654 N 0.48874 0.37216 0.58318 0.0
C1655 C 0.47814 0.36474 0.60092 0.0
C1656 C 0.46302 0.34902 0.59553 0.0
C1657 C 0.46419 0.34631 0.57374 0.0
C1658 C 0.47989 0.36041 0.56703 0.0
N1659 N 0.51618 0.38765 0.54875 0.0
C1660 C 0.50598 0.37204 0.53741 0.0
C1661 C 0.51305 0.37007 0.51654 0.0
C1662 C 0.52848 0.38564 0.51426 0.0
C1663 C 0.52966 0.39647 0.53387 0.0
N1664 N 0.53461 0.37195 0.58744 0.0
C1665 C 0.56356 0.33988 0.60279 0.0
C1666 C 0.54762 0.33491 0.58742 0.0
C1667 C 0.53316 0.351 0.58028 0.0
C1668 C 0.56537 0.36138 0.60931 0.0
C1669 C 0.55128 0.377 0.60115 0.0
N1670 N 0.49032 0.41709 0.57345 0.0
C1671 C 0.46529 0.43427 0.54849 0.0
C1672 C 0.46574 0.4535 0.56046 0.0
C1673 C 0.4774 0.45361 0.57967 0.0
C1674 C 0.4892 0.43543 0.5859 0.0
C1675 C 0.4775 0.41625 0.55534 0.0
H1676 H 0.49773 0.43702 0.60066 0.0
H1677 H 0.47703 0.4021 0.54538 0.0
H1678 H 0.52072 0.34612 0.5693 0.0
H1679 H 0.554 0.39305 0.60658 0.0
C1680 C 0.53551 0.42825 0.6139 0.0
C1681 C 0.54104 0.41701 0.53644 0.0
C1682 C 0.4826 0.37115 0.62321 0.0
C1683 C 0.48879 0.36063 0.54639 0.0
H1684 H 0.56506 0.45385 0.55167 0.0
H1685 H 0.56287 0.45969 0.59399 0.0
H1686 H 0.52338 0.42315 0.65827 0.0
H1687 H 0.49417 0.39197 0.66289 0.0
H1688 H 0.4527 0.33988 0.60628 0.0
H1689 H 0.45542 0.33464 0.56408 0.0
H1690 H 0.50713 0.35913 0.50424 0.0
H1691 H 0.53703 0.38941 0.49948 0.0
H1692 H 0.54586 0.31853 0.58152 0.0
H1693 H 0.57766 0.36616 0.62085 0.0
H1694 H 0.45608 0.43336 0.53364 0.0
H1695 H 0.47779 0.46795 0.58969 0.0
C1696 C 0.78343 0.65232 0.77566 0.0
C1697 C 0.76285 0.64449 0.77101 0.0
C1698 C 0.76538 0.62798 0.75676 0.0
C1699 C 0.7872 0.62679 0.75323 0.0
N1700 N 0.79893 0.64128 0.76465 0.0
Co1701 Co 0.83089 0.64684 0.76176 0.0
N1702 N 0.83378 0.62511 0.7378 0.0
C1703 C 0.81773 0.6129 0.72938 0.0
C1704 C 0.82445 0.59858 0.71394 0.0
C1705 C 0.84623 0.60154 0.71254 0.0
C1706 C 0.85156 0.61764 0.72725 0.0
N1707 N 0.86287 0.6524 0.75865 0.0
C1708 C 0.878 0.64242 0.7461 0.0
C1709 C 0.89849 0.65084 0.74961 0.0
C1710 C 0.89636 0.66641 0.76513 0.0
C1711 C 0.87474 0.6667 0.7702 0.0
N1712 N 0.82784 0.66854 0.78572 0.0
C1713 C 0.84399 0.68028 0.7947 0.0
C1714 C 0.83694 0.69441 0.81024 0.0
C1715 C 0.81495 0.69188 0.81092 0.0
C1716 C 0.80975 0.67638 0.79561 0.0
N1717 N 0.83755 0.62362 0.78341 0.0
C1718 C 0.85072 0.59059 0.81247 0.0
C1719 C 0.86006 0.61104 0.81298 0.0
C1720 C 0.85315 0.6271 0.7988 0.0
C1721 C 0.83399 0.58706 0.79752 0.0
C1722 C 0.82784 0.60364 0.78307 0.0
N1723 N 0.82449 0.6704 0.74054 0.0
C1724 C 0.82813 0.70816 0.7307 0.0
C1725 C 0.8117 0.70644 0.71544 0.0
C1726 C 0.80238 0.68606 0.71209 0.0
C1727 C 0.80899 0.66832 0.72478 0.0
C1728 C 0.83437 0.69014 0.74271 0.0
H1729 H 0.8011 0.65318 0.72193 0.0
H1730 H 0.84691 0.69286 0.75406 0.0
H1731 H 0.861 0.64216 0.80059 0.0
H1732 H 0.81537 0.59994 0.77166 0.0
C1733 C 0.79672 0.61428 0.73722 0.0
C1734 C 0.78729 0.67078 0.79001 0.0
C1735 C 0.87387 0.62445 0.73117 0.0
C1736 C 0.86527 0.67904 0.78676 0.0
H1737 H 0.74741 0.65046 0.77662 0.0
H1738 H 0.75272 0.61876 0.74893 0.0
H1739 H 0.81475 0.58691 0.70522 0.0
H1740 H 0.85701 0.59242 0.70222 0.0
H1741 H 0.91347 0.64586 0.74205 0.0
H1742 H 0.90916 0.67596 0.77231 0.0
H1743 H 0.84654 0.70585 0.81936 0.0
H1744 H 0.80389 0.701 0.82094 0.0
H1745 H 0.87287 0.61469 0.82439 0.0
H1746 H 0.82601 0.5715 0.79673 0.0
H1747 H 0.83602 0.72354 0.73355 0.0
H1748 H 0.78975 0.68398 0.70014 0.0
C1749 C 0.92535 0.96734 0.48136 0.0
C1750 C 0.94139 0.96256 0.46645 0.0
C1751 C 0.94125 0.94056 0.46381 0.0
C1752 C 0.92543 0.93304 0.47747 0.0
N1753 N 0.91566 0.94894 0.48861 0.0
Co1754 Co 0.8941 0.94499 0.51228 0.0
N1755 N 0.90015 0.91336 0.51489 0.0
C1756 C 0.91137 0.9015 0.50047 0.0
C1757 C 0.91272 0.88008 0.50598 0.0
C1758 C 0.9012 0.87813 0.52477 0.0
C1759 C 0.89327 0.8985 0.52963 0.0
N1760 N 0.87274 0.94149 0.53636 0.0
C1761 C 0.8682 0.92428 0.54929 0.0
C1762 C 0.85111 0.9289 0.56316 0.0
C1763 C 0.84442 0.94935 0.55852 0.0
C1764 C 0.85768 0.95614 0.54217 0.0
N1765 N 0.88732 0.97628 0.50925 0.0
C1766 C 0.8696 0.9863 0.51692 0.0
C1767 C 0.86819 1.00756 0.51095 0.0
C1768 C 0.8862 1.01128 0.49871 0.0
C1769 C 0.89767 0.99201 0.49812 0.0
N1770 N 0.87131 0.93828 0.49062 0.0
C1771 C 0.84344 0.92342 0.45755 0.0
C1772 C 0.84268 0.91457 0.47832 0.0
C1773 C 0.85645 0.92238 0.49454 0.0
C1774 C 0.85745 0.94094 0.45406 0.0
C1775 C 0.87124 0.94808 0.47074 0.0
N1776 N 0.91762 0.95147 0.53327 0.0
C1777 C 0.93403 0.97377 0.56109 0.0
C1778 C 0.95409 0.96332 0.55846 0.0
C1779 C 0.95518 0.94643 0.54359 0.0
C1780 C 0.93698 0.94079 0.53133 0.0
C1781 C 0.91598 0.96755 0.54841 0.0
H1782 H 0.93902 0.92811 0.51973 0.0
H1783 H 0.90094 0.97617 0.55039 0.0
H1784 H 0.85534 0.91507 0.5101 0.0
H1785 H 0.88225 0.96114 0.46729 0.0
C1786 C 0.92226 0.91143 0.48328 0.0
C1787 C 0.91845 0.98944 0.48709 0.0
C1788 C 0.87701 0.90237 0.54662 0.0
C1789 C 0.85647 0.97616 0.53205 0.0
H1790 H 0.95204 0.97373 0.45825 0.0
H1791 H 0.95216 0.9311 0.45394 0.0
H1792 H 0.92117 0.86739 0.49742 0.0
H1793 H 0.89817 0.86326 0.53345 0.0
H1794 H 0.84341 0.91826 0.57468 0.0
H1795 H 0.83111 0.95803 0.56584 0.0
H1796 H 0.85596 0.01918 0.51558 0.0
H1797 H 0.89055 0.0265 0.4913 0.0
H1798 H 0.83181 0.90132 0.48191 0.0
H1799 H 0.85826 0.94856 0.43835 0.0
H1800 H 0.93243 0.9869 0.57253 0.0
H1801 H 0.97024 0.93784 0.54111 0.0
C1802 C 0.24326 0.87341 0.78181 0.0
C1803 C 0.26407 0.88125 0.77839 0.0
C1804 C 0.26311 0.89461 0.76093 0.0
C1805 C 0.24191 0.8942 0.75452 0.0
N1806 N 0.2291 0.88184 0.7671 0.0
Co1807 Co 0.19758 0.8758 0.76163 0.0
N1808 N 0.19581 0.89795 0.73826 0.0
C1809 C 0.21271 0.90784 0.72874 0.0
C1810 C 0.20675 0.92282 0.71357 0.0
C1811 C 0.18464 0.92247 0.71346 0.0
C1812 C 0.17836 0.90713 0.72856 0.0
N1813 N 0.16618 0.86998 0.75619 0.0
C1814 C 0.15121 0.88159 0.74498 0.0
C1815 C 0.13116 0.87154 0.74535 0.0
C1816 C 0.13362 0.85303 0.75723 0.0
C1817 C 0.15498 0.85278 0.76339 0.0
N1818 N 0.19941 0.85346 0.78498 0.0
C1819 C 0.18385 0.83896 0.78979 0.0
C1820 C 0.18924 0.82558 0.8066 0.0
C1821 C 0.20977 0.83151 0.81245 0.0
C1822 C 0.2159 0.84803 0.79862 0.0
N1823 N 0.18926 0.89787 0.78325 0.0
C1824 C 0.17389 0.92982 0.81204 0.0
C1825 C 0.16475 0.90917 0.81152 0.0
C1826 C 0.17275 0.89351 0.79736 0.0
C1827 C 0.19145 0.93398 0.79822 0.0
C1828 C 0.1987 0.9179 0.7838 0.0
N1829 N 0.20526 0.85337 0.74004 0.0
C1830 C 0.19586 0.83087 0.70935 0.0
C1831 C 0.21231 0.81612 0.71465 0.0
C1832 C 0.22585 0.8213 0.73193 0.0
C1833 C 0.22249 0.8401 0.74376 0.0
C1834 C 0.19253 0.84931 0.72233 0.0
H1835 H 0.23379 0.84342 0.75622 0.0
H1836 H 0.17943 0.86001 0.71823 0.0
H1837 H 0.16513 0.87795 0.79766 0.0
H1838 H 0.21172 0.92183 0.77293 0.0
C1839 C 0.23354 0.90522 0.73681 0.0
C1840 C 0.2386 0.85512 0.79641 0.0
C1841 C 0.15569 0.90138 0.73267 0.0
C1842 C 0.1641 0.83893 0.7787 0.0
H1843 H 0.27879 0.87693 0.78676 0.0
H1844 H 0.27643 0.90311 0.75339 0.0
H1845 H 0.2172 0.93345 0.7044 0.0
H1846 H 0.17436 0.93252 0.70352 0.0
H1847 H 0.11636 0.87703 0.7378 0.0
H1848 H 0.12111 0.84158 0.76156 0.0
H1849 H 0.17957 0.81275 0.81352 0.0
H1850 H 0.21968 0.82362 0.8245 0.0
H1851 H 0.15131 0.90513 0.82201 0.0
H1852 H 0.19919 0.94968 0.79824 0.0
H1853 H 0.18542 0.82794 0.69561 0.0
H1854 H 0.23923 0.81084 0.73622 0.0
C1855 C 0.09888 0.55765 0.48032 0.0
C1856 C 0.0829 0.56234 0.46532 0.0
C1857 C 0.08334 0.58428 0.46227 0.0
C1858 C 0.09928 0.59184 0.47577 0.0
N1859 N 0.10883 0.57604 0.48721 0.0
Co1860 Co 0.13066 0.5801 0.51063 0.0
N1861 N 0.12545 0.61196 0.51234 0.0
C1862 C 0.11473 0.62369 0.49743 0.0
C1863 C 0.11495 0.64545 0.50164 0.0
C1864 C 0.12699 0.64775 0.52007 0.0
C1865 C 0.13349 0.62719 0.5261 0.0
N1866 N 0.15201 0.5837 0.53471 0.0
C1867 C 0.15657 0.60102 0.54745 0.0
C1868 C 0.17269 0.59615 0.56232 0.0
C1869 C 0.17901 0.57543 0.5583 0.0
C1870 C 0.16635 0.56873 0.54142 0.0
N1871 N 0.13686 0.54863 0.50832 0.0
C1872 C 0.15428 0.53841 0.51643 0.0
C1873 C 0.15535 0.51701 0.51085 0.0
C1874 C 0.13742 0.51342 0.49845 0.0
C1875 C 0.12634 0.5329 0.49737 0.0
N1876 N 0.15333 0.58579 0.48873 0.0
C1877 C 0.17914 0.60188 0.45486 0.0
C1878 C 0.18163 0.60946 0.47597 0.0
C1879 C 0.16889 0.601 0.4926 0.0
C1880 C 0.1649 0.58457 0.45138 0.0
C1881 C 0.1522 0.57673 0.46854 0.0
N1882 N 0.10717 0.57466 0.53178 0.0
C1883 C 0.0901 0.55263 0.55929 0.0
C1884 C 0.07033 0.5635 0.55645 0.0
C1885 C 0.06974 0.58061 0.54183 0.0
C1886 C 0.08816 0.58592 0.5298 0.0
C1887 C 0.10836 0.55853 0.54687 0.0
H1888 H 0.08654 0.59871 0.51826 0.0
H1889 H 0.12316 0.54953 0.54893 0.0
H1890 H 0.17117 0.6074 0.50842 0.0
H1891 H 0.14091 0.56388 0.46519 0.0
C1892 C 0.10324 0.61353 0.48076 0.0
C1893 C 0.10561 0.53559 0.48631 0.0
C1894 C 0.14913 0.6232 0.54356 0.0
C1895 C 0.16731 0.54848 0.53173 0.0
H1896 H 0.0722 0.55111 0.45724 0.0
H1897 H 0.07267 0.59368 0.45208 0.0
H1898 H 0.10729 0.65816 0.4924 0.0
H1899 H 0.13115 0.66285 0.52783 0.0
H1900 H 0.17998 0.60684 0.5741 0.0
H1901 H 0.19163 0.56646 0.56645 0.0
H1902 H 0.16724 0.50523 0.51591 0.0
H1903 H 0.13282 0.49813 0.49133 0.0
H1904 H 0.193 0.62231 0.47953 0.0
H1905 H 0.16303 0.57772 0.4354 0.0
H1906 H 0.09126 0.53936 0.5706 0.0
H1907 H 0.05488 0.58952 0.53926 0.0
C1908 C 0.781 0.37055 0.75068 0.0
C1909 C 0.76036 0.37796 0.75565 0.0
C1910 C 0.7629 0.39573 0.76843 0.0
C1911 C 0.78481 0.39802 0.77092 0.0
N1912 N 0.79639 0.38285 0.76042 0.0
Co1913 Co 0.82845 0.37909 0.7618 0.0
N1914 N 0.8311 0.399 0.78723 0.0
C1915 C 0.81518 0.41148 0.79535 0.0
C1916 C 0.82147 0.42381 0.81262 0.0
C1917 C 0.8429 0.4193 0.81543 0.0
C1918 C 0.84853 0.40451 0.79953 0.0
N1919 N 0.86069 0.37594 0.76277 0.0
C1920 C 0.8757 0.38457 0.77645 0.0
C1921 C 0.89657 0.3798 0.76976 0.0
C1922 C 0.89471 0.36828 0.751 0.0
C1923 C 0.87287 0.36662 0.74728 0.0
N1924 N 0.8255 0.35843 0.73714 0.0
C1925 C 0.84175 0.35109 0.72467 0.0
C1926 C 0.83491 0.33713 0.70883 0.0
C1927 C 0.81293 0.33554 0.71148 0.0
C1928 C 0.8076 0.34861 0.72887 0.0
N1929 N 0.83258 0.40354 0.74112 0.0
C1930 C 0.85333 0.43071 0.71046 0.0
C1931 C 0.83886 0.41426 0.70403 0.0
C1932 C 0.82858 0.40109 0.71947 0.0
C1933 C 0.85164 0.43651 0.73244 0.0
C1934 C 0.84215 0.42245 0.74741 0.0
N1935 N 0.82474 0.35433 0.78167 0.0
C1936 C 0.83119 0.31655 0.7892 0.0
C1937 C 0.81537 0.31655 0.80533 0.0
C1938 C 0.80501 0.33612 0.81011 0.0
C1939 C 0.80983 0.35476 0.79805 0.0
C1940 C 0.8358 0.33555 0.77782 0.0
H1941 H 0.80101 0.3693 0.80162 0.0
H1942 H 0.84787 0.33472 0.76537 0.0
H1943 H 0.81809 0.38852 0.71358 0.0
H1944 H 0.84328 0.42709 0.76403 0.0
C1945 C 0.79446 0.41089 0.78662 0.0
C1946 C 0.78526 0.35209 0.73635 0.0
C1947 C 0.8711 0.39912 0.79462 0.0
C1948 C 0.86324 0.35582 0.72989 0.0
H1949 H 0.74496 0.37106 0.75105 0.0
H1950 H 0.75023 0.40492 0.77624 0.0
H1951 H 0.81172 0.43504 0.82183 0.0
H1952 H 0.85345 0.42689 0.82716 0.0
H1953 H 0.91157 0.38478 0.77731 0.0
H1954 H 0.90774 0.36208 0.7411 0.0
H1955 H 0.84476 0.32868 0.69712 0.0
H1956 H 0.80204 0.32591 0.70173 0.0
H1957 H 0.83576 0.41108 0.68713 0.0
H1958 H 0.85751 0.45154 0.73881 0.0
H1959 H 0.83973 0.30182 0.78517 0.0
H1960 H 0.79277 0.33682 0.82261 0.0
C1961 C 0.59829 0.96661 0.53986 0.0
C1962 C 0.5826 0.96225 0.55527 0.0
C1963 C 0.58293 0.94036 0.55863 0.0
C1964 C 0.59858 0.93253 0.54497 0.0
N1965 N 0.60806 0.94808 0.53312 0.0
Co1966 Co 0.63018 0.94348 0.51006 0.0
N1967 N 0.62537 0.91148 0.50942 0.0
C1968 C 0.61456 0.90015 0.52457 0.0
C1969 C 0.61503 0.87826 0.52113 0.0
C1970 C 0.62731 0.87546 0.50294 0.0
C1971 C 0.63368 0.89586 0.49627 0.0
N1972 N 0.65186 0.93925 0.48636 0.0
C1973 C 0.65686 0.9215 0.47438 0.0
C1974 C 0.67314 0.92601 0.45957 0.0
C1975 C 0.67907 0.94699 0.4628 0.0
C1976 C 0.66604 0.95417 0.4792 0.0
N1977 N 0.63595 0.97516 0.5113 0.0
C1978 C 0.65316 0.98537 0.50267 0.0
C1979 C 0.65379 1.00703 0.50717 0.0
C1980 C 0.63583 1.01084 0.51943 0.0
C1981 C 0.62518 0.9912 0.52156 0.0
N1982 N 0.65271 0.93885 0.53242 0.0
C1983 C 0.67874 0.92482 0.56713 0.0
C1984 C 0.68131 0.91622 0.54641 0.0
C1985 C 0.66841 0.92361 0.52937 0.0
C1986 C 0.66416 0.94198 0.56974 0.0
C1987 C 0.6514 0.9488 0.55218 0.0
N1988 N 0.60683 0.9479 0.4884 0.0
C1989 C 0.58946 0.96931 0.46054 0.0
C1990 C 0.57005 0.95769 0.46291 0.0
C1991 C 0.56985 0.9405 0.4775 0.0
C1992 C 0.58818 0.93597 0.49003 0.0
C1993 C 0.60771 0.96403 0.47326 0.0
H1994 H 0.58671 0.92329 0.50172 0.0
H1995 H 0.62222 0.97352 0.47137 0.0
H1996 H 0.67074 0.9164 0.51391 0.0
H1997 H 0.63997 0.96165 0.5549 0.0
C1998 C 0.60277 0.91074 0.54072 0.0
C1999 C 0.6049 0.98857 0.53345 0.0
C2000 C 0.6494 0.89941 0.47878 0.0
C2001 C 0.66646 0.97485 0.48795 0.0
H2002 H 0.57226 0.97371 0.56347 0.0
H2003 H 0.57252 0.9312 0.5693 0.0
H2004 H 0.60736 0.8658 0.5307 0.0
H2005 H 0.63166 0.86014 0.49574 0.0
H2006 H 0.68072 0.91499 0.44831 0.0
H2007 H 0.69163 0.95585 0.45444 0.0
H2008 H 0.66546 0.0188 0.50154 0.0
H2009 H 0.63102 0.02636 0.52588 0.0
H2010 H 0.69289 0.90341 0.54351 0.0
H2011 H 0.66216 0.94957 0.58537 0.0
H2012 H 0.59033 0.98274 0.44938 0.0
H2013 H 0.55523 0.93113 0.47988 0.0
C2014 C 0.24434 0.14981 0.7507 0.0
C2015 C 0.26441 0.14005 0.75308 0.0
C2016 C 0.26117 0.12191 0.76521 0.0
C2017 C 0.23938 0.12159 0.76946 0.0
N2018 N 0.22859 0.13835 0.76078 0.0
Co2019 Co 0.1967 0.14319 0.76234 0.0
N2020 N 0.1933 0.12184 0.78642 0.0
C2021 C 0.20867 0.10808 0.79341 0.0
C2022 C 0.20204 0.09512 0.81008 0.0
C2023 C 0.18096 0.10065 0.81368 0.0
C2024 C 0.17583 0.11665 0.79882 0.0
N2025 N 0.16454 0.14714 0.76336 0.0
C2026 C 0.14928 0.13881 0.77696 0.0
C2027 C 0.1286 0.14448 0.77039 0.0
C2028 C 0.13087 0.15628 0.75181 0.0
C2029 C 0.15275 0.15721 0.74805 0.0
N2030 N 0.20054 0.16502 0.73893 0.0
C2031 C 0.18461 0.17361 0.7269 0.0
C2032 C 0.19193 0.18927 0.71296 0.0
C2033 C 0.21386 0.19055 0.71639 0.0
C2034 C 0.21876 0.17545 0.73215 0.0
N2035 N 0.19219 0.12025 0.7404 0.0
C2036 C 0.17687 0.09418 0.70626 0.0
C2037 C 0.19388 0.10886 0.70298 0.0
C2038 C 0.20136 0.12166 0.72027 0.0
C2039 C 0.16926 0.09144 0.72734 0.0
C2040 C 0.17731 0.10432 0.74407 0.0
N2041 N 0.20076 0.16687 0.7835 0.0
C2042 C 0.19278 0.20383 0.7935 0.0
C2043 C 0.20998 0.20417 0.80809 0.0
C2044 C 0.22187 0.18505 0.81102 0.0
C2045 C 0.21688 0.16652 0.79869 0.0
C2046 C 0.18852 0.18522 0.78141 0.0
H2047 H 0.22658 0.15222 0.8009 0.0
H2048 H 0.17578 0.1862 0.7697 0.0
H2049 H 0.21397 0.13328 0.71706 0.0
H2050 H 0.17074 0.10188 0.7598 0.0
C2051 C 0.2293 0.10814 0.78438 0.0
C2052 C 0.24102 0.16998 0.73887 0.0
C2053 C 0.15344 0.12361 0.79481 0.0
C2054 C 0.16291 0.16884 0.73146 0.0
H2055 H 0.27984 0.14564 0.74696 0.0
H2056 H 0.27338 0.11084 0.77105 0.0
H2057 H 0.21133 0.08288 0.81842 0.0
H2058 H 0.17029 0.093 0.82524 0.0
H2059 H 0.11344 0.13995 0.7779 0.0
H2060 H 0.11807 0.16336 0.74221 0.0
H2061 H 0.18238 0.1991 0.70211 0.0
H2062 H 0.22502 0.20111 0.70803 0.0
H2063 H 0.20078 0.11096 0.68704 0.0
H2064 H 0.15664 0.07977 0.73079 0.0
H2065 H 0.18314 0.21819 0.79085 0.0
H2066 H 0.23522 0.18462 0.82233 0.0
C2067 C 0.42609 0.55493 0.54053 0.0
C2068 C 0.43933 0.55992 0.5579 0.0
C2069 C 0.43687 0.58163 0.56171 0.0
C2070 C 0.42237 0.58868 0.54643 0.0
N2071 N 0.41554 0.57281 0.53324 0.0
Co2072 Co 0.39535 0.57622 0.50828 0.0
N2073 N 0.39706 0.60846 0.50914 0.0
C2074 C 0.40496 0.62014 0.52577 0.0
C2075 C 0.40229 0.64199 0.52316 0.0
C2076 C 0.39164 0.6443 0.5039 0.0
C2077 C 0.38843 0.62368 0.4958 0.0
N2078 N 0.37639 0.57919 0.48228 0.0
C2079 C 0.37148 0.59676 0.47011 0.0
C2080 C 0.35812 0.5912 0.45289 0.0
C2081 C 0.35387 0.56966 0.45478 0.0
C2082 C 0.36499 0.56322 0.47278 0.0
N2083 N 0.39241 0.54411 0.50813 0.0
C2084 C 0.37747 0.53263 0.49718 0.0
C2085 C 0.37894 0.51079 0.50043 0.0
C2086 C 0.39594 0.5082 0.51427 0.0
C2087 C 0.40388 0.52872 0.51865 0.0
N2088 N 0.37004 0.57849 0.52826 0.0
C2089 C 0.34241 0.59888 0.55866 0.0
C2090 C 0.33666 0.59703 0.53668 0.0
C2091 C 0.351 0.58772 0.52176 0.0
C2092 C 0.35867 0.58423 0.56522 0.0
C2093 C 0.37218 0.57424 0.54988 0.0
N2094 N 0.421 0.57477 0.48913 0.0
C2095 C 0.44271 0.55671 0.46205 0.0
C2096 C 0.46016 0.57067 0.46606 0.0
C2097 C 0.45729 0.5872 0.4811 0.0
C2098 C 0.43782 0.58884 0.49251 0.0
C2099 C 0.42318 0.55918 0.47357 0.0
H2100 H 0.4369 0.60114 0.50466 0.0
H2101 H 0.41016 0.54808 0.47029 0.0
H2102 H 0.34667 0.5889 0.50504 0.0
H2103 H 0.3849 0.56394 0.55581 0.0
C2104 C 0.41632 0.61012 0.54261 0.0
C2105 C 0.42245 0.53278 0.53266 0.0
C2106 C 0.37567 0.61928 0.47627 0.0
C2107 C 0.36532 0.54233 0.48098 0.0
H2108 H 0.44937 0.54893 0.56707 0.0
H2109 H 0.44501 0.59117 0.5739 0.0
H2110 H 0.40752 0.65473 0.53393 0.0
H2111 H 0.3864 0.65939 0.49679 0.0
H2112 H 0.35122 0.6018 0.44084 0.0
H2113 H 0.34362 0.55995 0.44445 0.0
H2114 H 0.36957 0.49818 0.49273 0.0
H2115 H 0.40207 0.49291 0.52008 0.0
H2116 H 0.32155 0.60294 0.53038 0.0
H2117 H 0.36161 0.58094 0.58211 0.0
H2118 H 0.44432 0.54369 0.45049 0.0
H2119 H 0.47041 0.59823 0.48473 0.0
C2120 C 0.7725 0.78235 0.65237 0.0
C2121 C 0.76935 0.76217 0.6431 0.0
C2122 C 0.75817 0.76547 0.62435 0.0
C2123 C 0.75501 0.78736 0.6233 0.0
N2124 N 0.76347 0.79815 0.64018 0.0
Co2125 Co 0.76167 0.82988 0.64528 0.0
N2126 N 0.73812 0.83331 0.62335 0.0
C2127 C 0.73229 0.81835 0.60862 0.0
C2128 C 0.71651 0.82519 0.5947 0.0
C2129 C 0.71227 0.84597 0.60064 0.0
C2130 C 0.72577 0.85069 0.618 0.0
N2131 N 0.75994 0.86174 0.65018 0.0
C2132 C 0.7455 0.87669 0.64284 0.0
C2133 C 0.75083 0.89719 0.65016 0.0
C2134 C 0.76963 0.89518 0.66173 0.0
C2135 C 0.77465 0.8736 0.66106 0.0
N2136 N 0.78513 0.82615 0.6671 0.0
C2137 C 0.79743 0.84203 0.67542 0.0
C2138 C 0.81236 0.83462 0.69011 0.0
C2139 C 0.80929 0.81268 0.69104 0.0
C2140 C 0.7926 0.80794 0.67685 0.0
N2141 N 0.78392 0.83505 0.62278 0.0
C2142 C 0.81851 0.84952 0.59683 0.0
C2143 C 0.8211 0.83184 0.61075 0.0
C2144 C 0.80358 0.82478 0.62348 0.0
C2145 C 0.79789 0.85858 0.59495 0.0
C2146 C 0.78091 0.85102 0.60783 0.0
N2147 N 0.74007 0.82511 0.66838 0.0
C2148 C 0.73011 0.83004 0.70584 0.0
C2149 C 0.71312 0.81527 0.70388 0.0
C2150 C 0.70921 0.80623 0.6834 0.0
C2151 C 0.72301 0.81117 0.66593 0.0
C2152 C 0.74309 0.83491 0.68799 0.0
H2153 H 0.72021 0.80333 0.65063 0.0
H2154 H 0.75605 0.84621 0.69041 0.0
H2155 H 0.80621 0.81154 0.63445 0.0
H2156 H 0.76555 0.85871 0.60615 0.0
C2157 C 0.74109 0.79767 0.60901 0.0
C2158 C 0.78511 0.78589 0.67209 0.0
C2159 C 0.72851 0.87269 0.62658 0.0
C2160 C 0.79201 0.86368 0.67175 0.0
H2161 H 0.77453 0.74665 0.64923 0.0
H2162 H 0.75217 0.75327 0.61335 0.0
H2163 H 0.7091 0.81621 0.58165 0.0
H2164 H 0.70116 0.85664 0.59241 0.0
H2165 H 0.74252 0.91215 0.64661 0.0
H2166 H 0.77858 0.90795 0.66965 0.0
H2167 H 0.82356 0.84411 0.69964 0.0
H2168 H 0.81828 0.80144 0.70096 0.0
H2169 H 0.83668 0.82397 0.61222 0.0
H2170 H 0.79503 0.87189 0.58396 0.0
H2171 H 0.73358 0.83754 0.72126 0.0
H2172 H 0.69611 0.79481 0.68116 0.0
C2173 C 0.778 0.24124 0.8695 0.0
C2174 C 0.77536 0.26164 0.87842 0.0
C2175 C 0.7643 0.25889 0.89734 0.0
C2176 C 0.76073 0.23708 0.89885 0.0
N2177 N 0.76881 0.22583 0.88209 0.0
Co2178 Co 0.76655 0.19402 0.87774 0.0
N2179 N 0.74321 0.19134 0.89999 0.0
C2180 C 0.73778 0.20666 0.91449 0.0
C2181 C 0.722 0.2003 0.92865 0.0
C2182 C 0.71735 0.17948 0.92312 0.0
C2183 C 0.73062 0.17425 0.90575 0.0
N2184 N 0.76436 0.1621 0.87356 0.0
C2185 C 0.74975 0.14751 0.88127 0.0
C2186 C 0.75471 0.12679 0.87435 0.0
C2187 C 0.77345 0.12831 0.86262 0.0
C2188 C 0.7788 0.14983 0.86281 0.0
N2189 N 0.78981 0.19699 0.8556 0.0
C2190 C 0.80183 0.18079 0.84752 0.0
C2191 C 0.81666 0.18768 0.83249 0.0
C2192 C 0.81386 0.20962 0.83108 0.0
C2193 C 0.7974 0.21488 0.84534 0.0
N2194 N 0.78894 0.18916 0.90015 0.0
C2195 C 0.82328 0.17559 0.9269 0.0
C2196 C 0.82604 0.19275 0.91237 0.0
C2197 C 0.80864 0.19935 0.89922 0.0
C2198 C 0.80266 0.16653 0.92883 0.0
C2199 C 0.78581 0.17364 0.91554 0.0
N2200 N 0.74469 0.19851 0.85485 0.0
C2201 C 0.73382 0.19272 0.81777 0.0
C2202 C 0.71679 0.20739 0.81987 0.0
C2203 C 0.71339 0.2169 0.84021 0.0
C2204 C 0.72767 0.21243 0.85741 0.0
C2205 C 0.74729 0.18832 0.83538 0.0
H2206 H 0.72522 0.2206 0.8726 0.0
H2207 H 0.76024 0.17702 0.83291 0.0
H2208 H 0.81138 0.21221 0.88783 0.0
H2209 H 0.77043 0.166 0.91735 0.0
C2210 C 0.74685 0.22723 0.91354 0.0
C2211 C 0.79027 0.2371 0.84968 0.0
C2212 C 0.73289 0.15207 0.89751 0.0
C2213 C 0.79617 0.1593 0.85173 0.0
H2214 H 0.78081 0.27693 0.87193 0.0
H2215 H 0.75869 0.2714 0.90818 0.0
H2216 H 0.71483 0.20964 0.94158 0.0
H2217 H 0.70612 0.1691 0.93159 0.0
H2218 H 0.7462 0.11201 0.87823 0.0
H2219 H 0.78213 0.11526 0.85487 0.0
H2220 H 0.82763 0.17785 0.82306 0.0
H2221 H 0.82287 0.22052 0.82079 0.0
H2222 H 0.84163 0.20059 0.91079 0.0
H2223 H 0.79967 0.15361 0.94024 0.0
H2224 H 0.73691 0.18489 0.80243 0.0
H2225 H 0.70031 0.22829 0.84254 0.0
C2226 C 0.4673 0.97935 0.42499 0.0
C2227 C 0.46198 0.96373 0.44011 0.0
C2228 C 0.43997 0.96435 0.44238 0.0
C2229 C 0.43308 0.98019 0.4285 0.0
N2230 N 0.44923 0.98965 0.4174 0.0
Co2231 Co 0.44574 0.01359 0.39568 0.0
N2232 N 0.41365 0.01591 0.40063 0.0
C2233 C 0.40196 1.00348 0.41412 0.0
C2234 C 0.38027 1.00824 0.41414 0.0
C2235 C 0.37792 0.02468 0.3996 0.0
C2236 C 0.39835 0.02891 0.39138 0.0
N2237 N 0.44263 0.03804 0.37452 0.0
C2238 C 0.42501 0.04985 0.36838 0.0
C2239 C 0.43052 0.06507 0.35283 0.0
C2240 C 0.45215 0.06285 0.3491 0.0
C2241 C 0.45865 0.04641 0.36238 0.0
N2242 N 0.47775 1.01061 0.3901 0.0
C2243 C 0.48913 0.02175 0.37528 0.0
C2244 C 0.51071 0.01673 0.37479 0.0
C2245 C 0.51341 1.00145 0.39041 0.0
C2246 C 0.49318 0.99783 0.39948 0.0
N2247 N 0.43977 0.99192 0.37243 0.0
C2248 C 0.42474 0.95967 0.34351 0.0
C2249 C 0.44103 0.95514 0.35869 0.0
C2250 C 0.44835 0.97146 0.37291 0.0
C2251 C 0.41742 0.98091 0.34214 0.0
C2252 C 0.42525 0.99661 0.35638 0.0
N2253 N 0.45099 0.03518 0.41918 0.0
C2254 C 0.4712 0.04621 0.45082 0.0
C2255 C 0.45598 0.06205 0.45598 0.0
C2256 C 0.43865 0.06497 0.44167 0.0
C2257 C 0.43641 0.05135 0.42356 0.0
C2258 C 0.46874 0.03361 0.43227 0.0
H2259 H 0.42284 0.05421 0.41324 0.0
H2260 H 0.48149 0.02275 0.4288 0.0
H2261 H 0.46059 0.96724 0.3845 0.0
H2262 H 0.41883 0.01238 0.35443 0.0
C2263 C 0.41184 0.98733 0.42625 0.0
C2264 C 0.48981 0.98386 0.41849 0.0
C2265 C 0.40245 0.04552 0.37484 0.0
C2266 C 0.47942 0.03799 0.36328 0.0
H2267 H 0.47295 0.95319 0.44873 0.0
H2268 H 0.43019 0.95464 0.45314 0.0
H2269 H 0.36764 1.00058 0.42352 0.0
H2270 H 0.36288 0.03255 0.39534 0.0
H2271 H 0.41995 0.07611 0.34439 0.0
H2272 H 0.46189 0.07179 0.33764 0.0
H2273 H 0.52316 0.0239 0.3648 0.0
H2274 H 0.52874 0.99441 0.395 0.0
H2275 H 0.44759 0.93899 0.35999 0.0
H2276 H 0.40523 0.98533 0.33036 0.0
H2277 H 0.48536 0.04389 0.46088 0.0
H2278 H 0.4269 0.07763 0.44447 0.0
C2279 C 0.24867 0.2791 0.87305 0.0
C2280 C 0.25254 0.25852 0.88109 0.0
C2281 C 0.26624 0.26084 0.89815 0.0
C2282 C 0.27012 0.28256 0.89949 0.0
N2283 N 0.25948 0.29441 0.88455 0.0
Co2284 Co 0.26249 0.32638 0.87961 0.0
N2285 N 0.2854 0.32904 0.90251 0.0
C2286 C 0.29332 0.3129 0.91488 0.0
C2287 C 0.30835 0.31945 0.92975 0.0
C2288 C 0.31005 0.34119 0.92693 0.0
C2289 C 0.2959 0.34666 0.91037 0.0
N2290 N 0.26561 0.35837 0.87472 0.0
C2291 C 0.27791 0.37332 0.88525 0.0
C2292 C 0.27462 0.39388 0.87705 0.0
C2293 C 0.25956 0.39195 0.86098 0.0
C2294 C 0.25451 0.37039 0.86022 0.0
N2295 N 0.23966 0.32351 0.85663 0.0
C2296 C 0.23125 0.3397 0.8446 0.0
C2297 C 0.21652 0.33276 0.82953 0.0
C2298 C 0.21575 0.31081 0.83178 0.0
C2299 C 0.23017 0.30553 0.8481 0.0
N2300 N 0.23963 0.33249 0.90181 0.0
C2301 C 0.20936 0.34543 0.93382 0.0
C2302 C 0.20913 0.35438 0.91321 0.0
C2303 C 0.22394 0.34758 0.89764 0.0
C2304 C 0.22451 0.32907 0.93797 0.0
C2305 C 0.23954 0.32302 0.92188 0.0
N2306 N 0.28504 0.32061 0.85717 0.0
C2307 C 0.29753 0.32558 0.82039 0.0
C2308 C 0.31297 0.30944 0.82275 0.0
C2309 C 0.31504 0.29959 0.84301 0.0
C2310 C 0.30094 0.30538 0.85995 0.0
C2311 C 0.28406 0.331 0.83763 0.0
H2312 H 0.30281 0.29707 0.87498 0.0
H2313 H 0.27261 0.34332 0.83446 0.0
H2314 H 0.22244 0.35516 0.88242 0.0
H2315 H 0.25108 0.31087 0.92608 0.0
C2316 C 0.28557 0.29191 0.91289 0.0
C2317 C 0.23529 0.28311 0.85395 0.0
C2318 C 0.29251 0.36893 0.9034 0.0
C2319 C 0.23879 0.361 0.84676 0.0
H2320 H 0.24668 0.24326 0.87492 0.0
H2321 H 0.27338 0.2481 0.90775 0.0
H2322 H 0.3167 0.30966 0.94159 0.0
H2323 H 0.32025 0.35185 0.93634 0.0
H2324 H 0.28212 0.40875 0.8824 0.0
H2325 H 0.2528 0.40482 0.85128 0.0
H2326 H 0.20793 0.34244 0.81777 0.0
H2327 H 0.20621 0.29983 0.82206 0.0
H2328 H 0.19754 0.36685 0.9091 0.0
H2329 H 0.22506 0.32139 0.95366 0.0
H2330 H 0.29556 0.33375 0.80504 0.0
H2331 H 0.32699 0.28705 0.84554 0.0
C2332 C 0.05883 0.03993 0.9301 0.0
C2333 C 0.06379 0.05072 0.9491 0.0
C2334 C 0.08507 0.0465 0.95347 0.0
C2335 C 0.09198 0.03349 0.93691 0.0
N2336 N 0.07656 0.02956 0.92197 0.0
Co2337 Co 0.07972 1.00949 0.89677 0.0
N2338 N 0.11178 1.00638 0.90099 0.0
C2339 C 0.12314 0.01351 0.91814 0.0
C2340 C 0.14496 1.00969 0.91645 0.0
C2341 C 0.14759 0.9993 0.89708 0.0
C2342 C 0.12714 0.99724 0.88807 0.0
N2343 N 0.08248 0.98872 0.87219 0.0
C2344 C 0.10021 0.97982 0.86278 0.0
C2345 C 0.09444 0.96516 0.84678 0.0
C2346 C 0.0724 0.96498 0.84594 0.0
C2347 C 0.06596 0.97936 0.86146 0.0
N2348 N 0.0478 0.01345 0.89159 0.0
C2349 C 0.03568 1.00223 0.87736 0.0
C2350 C 0.01423 1.00773 0.87742 0.0
C2351 C 1.01235 0.02314 0.89302 0.0
C2352 C 0.03289 0.02619 0.90166 0.0
N2353 N 0.08603 0.03416 0.8772 0.0
C2354 C 0.10111 0.06612 0.848 0.0
C2355 C 0.08423 0.05189 0.84231 0.0
C2356 C 0.07726 0.0358 0.85694 0.0
C2357 C 0.10922 0.06466 0.86904 0.0
C2358 C 0.10116 0.04915 0.88336 0.0
N2359 N 0.07426 0.98486 0.91707 0.0
C2360 C 0.05218 0.96927 0.94542 0.0
C2361 C 0.07022 0.95929 0.95476 0.0
C2362 C 0.08974 0.96021 0.94334 0.0
C2363 C 0.09108 0.97214 0.92411 0.0
C2364 C 0.05454 0.98207 0.9269 0.0
H2365 H 0.10623 0.97154 0.91571 0.0
H2366 H 0.04032 0.99031 0.92154 0.0
H2367 H 0.06518 0.02445 0.8516 0.0
H2368 H 0.10794 0.04899 0.89927 0.0
C2369 C 0.11296 0.02536 0.93445 0.0
C2370 C 0.03659 0.03839 0.92164 0.0
C2371 C 0.12273 0.98445 0.86852 0.0
C2372 C 0.04483 0.98627 0.86455 0.0
H2373 H 0.05292 0.06005 0.95912 0.0
H2374 H 0.09435 0.05207 0.96722 0.0
H2375 H 0.15752 0.01415 0.9278 0.0
H2376 H 0.16272 0.99337 0.89058 0.0
H2377 H 0.10503 0.95562 0.83665 0.0
H2378 H 0.06229 0.95591 0.8349 0.0
H2379 H 1.00135 1.00084 0.86777 0.0
H2380 H 0.99729 0.03036 0.89822 0.0
H2381 H 0.07711 0.05261 0.82635 0.0
H2382 H 0.12202 0.07537 0.87439 0.0
H2383 H 0.03653 0.96843 0.95328 0.0
H2384 H 0.10405 0.95222 0.94949 0.0
C2385 C 0.75171 0.24393 0.15524 0.0
C2386 C 0.75567 0.26437 0.14688 0.0
C2387 C 0.76716 0.2615 0.12825 0.0
C2388 C 0.76981 0.2396 0.1264 0.0
N2389 N 0.76071 0.2284 0.14267 0.0
Co2390 Co 0.7623 0.19656 0.14702 0.0
N2391 N 0.78665 0.19365 0.12591 0.0
C2392 C 0.79295 0.20892 0.11172 0.0
C2393 C 0.80926 0.20241 0.09826 0.0
C2394 C 0.81337 0.18154 0.10393 0.0
C2395 C 0.79926 0.17642 0.12067 0.0
N2396 N 0.76385 0.1646 0.15117 0.0
C2397 C 0.7786 0.14984 0.14407 0.0
C2398 C 0.77294 0.12916 0.15058 0.0
C2399 C 0.75364 0.1309 0.16136 0.0
C2400 C 0.74866 0.1525 0.16106 0.0
N2401 N 0.73808 0.1998 0.16801 0.0
C2402 C 0.72536 0.18376 0.17532 0.0
C2403 C 0.70985 0.19086 0.18955 0.0
C2404 C 0.713 0.21275 0.19125 0.0
C2405 C 0.73034 0.21778 0.17798 0.0
N2406 N 0.74089 0.19192 0.12358 0.0
C2407 C 0.70708 0.17751 0.09651 0.0
C2408 C 0.70404 0.19508 0.11052 0.0
C2409 C 0.72118 0.2021 0.12382 0.0
C2410 C 0.72783 0.16863 0.09507 0.0
C2411 C 0.74442 0.17619 0.10848 0.0
N2412 N 0.783 0.20078 0.17104 0.0
C2413 C 0.79173 0.19458 0.20862 0.0
C2414 C 0.80853 0.20966 0.2078 0.0
C2415 C 0.81288 0.21968 0.1879 0.0
C2416 C 0.79985 0.21511 0.16975 0.0
C2417 C 0.77941 0.19024 0.19016 0.0
H2418 H 0.80308 0.22353 0.15485 0.0
H2419 H 0.76649 0.17873 0.1917 0.0
H2420 H 0.71817 0.21518 0.13491 0.0
H2421 H 0.75987 0.1686 0.10714 0.0
C2422 C 0.78416 0.22959 0.11232 0.0
C2423 C 0.73841 0.23988 0.17444 0.0
C2424 C 0.79631 0.15425 0.12869 0.0
C2425 C 0.73087 0.16219 0.17127 0.0
H2426 H 0.75092 0.2798 0.15354 0.0
H2427 H 0.77383 0.27396 0.11797 0.0
H2428 H 0.81714 0.21169 0.0857 0.0
H2429 H 0.82483 0.17107 0.0959 0.0
H2430 H 0.78139 0.11428 0.147 0.0
H2431 H 0.74435 0.11794 0.16853 0.0
H2432 H 0.6982 0.18119 0.19832 0.0
H2433 H 0.70369 0.22376 0.20115 0.0
H2434 H 0.68838 0.20283 0.11168 0.0
H2435 H 0.73108 0.15544 0.08404 0.0
H2436 H 0.78792 0.18638 0.2236 0.0
H2437 H 0.82581 0.23141 0.18659 0.0
C2438 C 0.46765 0.04759 0.09458 0.0
C2439 C 0.46226 0.06401 0.08037 0.0
C2440 C 0.44021 0.06647 0.08159 0.0
C2441 C 0.43337 0.05146 0.09644 0.0
N2442 N 0.44969 0.03961 0.10456 0.0
Co2443 Co 0.44672 0.01625 0.12664 0.0
N2444 N 0.41458 0.01433 0.12292 0.0
C2445 C 0.40229 0.02915 0.11274 0.0
C2446 C 0.38053 0.02482 0.11393 0.0
C2447 C 0.37886 1.00634 0.12596 0.0
C2448 C 0.39976 1.0004 0.13153 0.0
N2449 N 0.44407 0.99252 0.1485 0.0
C2450 C 0.42698 0.97976 0.15402 0.0
C2451 C 0.43258 0.96533 0.17025 0.0
C2452 C 0.4536 0.96955 0.17557 0.0
C2453 C 0.45971 0.98614 0.16227 0.0
N2454 N 0.47867 0.01845 0.13095 0.0
C2455 C 0.49001 1.00975 0.14736 0.0
C2456 C 0.51182 0.01367 0.14617 0.0
C2457 C 0.51452 0.02563 0.12786 0.0
C2458 C 0.49409 0.02841 0.11893 0.0
N2459 N 0.44195 0.03854 0.14926 0.0
C2460 C 0.42458 0.07339 0.17295 0.0
C2461 C 0.41819 0.05213 0.17717 0.0
C2462 C 0.42717 0.03503 0.16534 0.0
C2463 C 0.44153 0.07662 0.15824 0.0
C2464 C 0.45034 0.05894 0.14699 0.0
N2465 N 0.45101 0.99475 0.10329 0.0
C2466 C 0.47044 0.96487 0.08707 0.0
C2467 C 0.46035 0.96853 0.06703 0.0
C2468 C 0.44476 0.98483 0.06596 0.0
C2469 C 0.44015 0.99743 0.08417 0.0
C2470 C 0.46572 0.97828 0.10491 0.0
H2471 H 0.42823 1.00991 0.0824 0.0
H2472 H 0.47439 0.97569 0.1198 0.0
H2473 H 0.42121 0.01915 0.16846 0.0
H2474 H 0.46304 0.06209 0.13552 0.0
C2475 C 0.41186 0.04617 0.10124 0.0
C2476 C 0.49006 0.04124 0.09949 0.0
C2477 C 0.40452 0.98283 0.14687 0.0
C2478 C 0.4803 0.99518 0.16143 0.0
H2479 H 0.47319 0.07338 0.07043 0.0
H2480 H 0.43032 0.07755 0.07237 0.0
H2481 H 0.36741 0.03406 0.10696 0.0
H2482 H 0.36395 0.9985 0.13075 0.0
H2483 H 0.4223 0.95353 0.17807 0.0
H2484 H 0.46325 0.96153 0.18774 0.0
H2485 H 0.52437 1.00774 0.15682 0.0
H2486 H 0.52983 0.03151 0.12174 0.0
H2487 H 0.40546 0.04884 0.18874 0.0
H2488 H 0.44729 0.09277 0.15478 0.0
H2489 H 0.48251 0.9523 0.08867 0.0
H2490 H 0.4364 0.9881 0.05093 0.0
C2491 C 0.55752 0.47782 0.09758 0.0
C2492 C 0.56308 0.46338 0.08142 0.0
C2493 C 0.58477 0.46596 0.07787 0.0
C2494 C 0.59123 0.4817 0.0921 0.0
N2495 N 0.57511 0.48924 0.1046 0.0
Co2496 Co 0.57794 0.51225 0.12737 0.0
N2497 N 0.60952 0.51716 0.12106 0.0
C2498 C 0.62127 0.50662 0.10609 0.0
C2499 C 0.64251 0.51304 0.10525 0.0
C2500 C 0.64453 0.52859 0.1208 0.0
C2501 C 0.62436 0.53066 0.13037 0.0
N2502 N 0.58051 0.53565 0.1498 0.0
C2503 C 0.59771 0.54801 0.15611 0.0
C2504 C 0.592 0.56195 0.17274 0.0
C2505 C 0.57066 0.55837 0.17701 0.0
C2506 C 0.56453 0.54242 0.16295 0.0
N2507 N 0.54654 0.50685 0.13428 0.0
C2508 C 0.53511 0.51653 0.15003 0.0
C2509 C 0.51402 0.50978 0.15134 0.0
C2510 C 0.51174 0.49487 0.13529 0.0
C2511 C 0.53171 0.49327 0.12514 0.0
N2512 N 0.58619 0.48978 0.14893 0.0
C2513 C 0.60331 0.45644 0.17512 0.0
C2514 C 0.58591 0.45249 0.16111 0.0
C2515 C 0.57765 0.4693 0.14818 0.0
C2516 C 0.61083 0.47765 0.1768 0.0
C2517 C 0.60187 0.49392 0.16398 0.0
N2518 N 0.57006 0.53445 0.10527 0.0
C2519 C 0.54834 0.54373 0.07412 0.0
C2520 C 0.56217 0.56061 0.06845 0.0
C2521 C 0.57937 0.56519 0.0826 0.0
C2522 C 0.58313 0.55183 0.10073 0.0
C2523 C 0.55209 0.53162 0.09271 0.0
H2524 H 0.59675 0.55562 0.11079 0.0
H2525 H 0.54031 0.51982 0.09639 0.0
H2526 H 0.56459 0.46544 0.13742 0.0
H2527 H 0.60807 0.50974 0.16623 0.0
C2528 C 0.61195 0.49045 0.09352 0.0
C2529 C 0.53521 0.48042 0.10544 0.0
C2530 C 0.62016 0.54553 0.14846 0.0
C2531 C 0.54426 0.53281 0.16242 0.0
H2532 H 0.55242 0.4524 0.07291 0.0
H2533 H 0.5946 0.4576 0.06606 0.0
H2534 H 0.65511 0.50698 0.09473 0.0
H2535 H 0.6592 0.53724 0.12488 0.0
H2536 H 0.60229 0.57305 0.18149 0.0
H2537 H 0.56092 0.56604 0.18935 0.0
H2538 H 0.5016 0.51549 0.16226 0.0
H2539 H 0.49686 0.48666 0.13115 0.0
H2540 H 0.5791 0.43643 0.15978 0.0
H2541 H 0.62379 0.48164 0.1879 0.0
H2542 H 0.53436 0.53999 0.06425 0.0
H2543 H 0.5901 0.57865 0.07944 0.0
C2544 C 0.2183 0.29702 0.24409 0.0
C2545 C 0.2094 0.31351 0.23077 0.0
C2546 C 0.18023 0.31927 0.2573 0.0
C2547 C 0.18801 0.30151 0.26956 0.0
N2548 N 0.21686 0.27693 0.27788 0.0
N2549 N 0.1815 0.33973 0.22379 0.0
C2550 C 0.2078 0.2914 0.26389 0.0
C2551 C 0.19039 0.32467 0.23729 0.0
N2552 N 0.23638 0.28619 0.23734 0.0
N2553 N 0.16336 0.33119 0.26515 0.0
H2554 H 0.18862 0.34426 0.20921 0.0
H2555 H 0.16645 0.34683 0.22622 0.0
H2556 H 0.15575 0.32765 0.27977 0.0
H2557 H 0.15796 0.34552 0.25827 0.0
H2558 H 0.24242 0.2724 0.24475 0.0
H2559 H 0.245 0.29044 0.22349 0.0
H2560 H 0.23241 0.27073 0.27627 0.0
H2561 H 0.20936 0.27221 0.2922 0.0
C2562 C 0.57332 0.57611 0.03157 0.0
C2563 C 0.55755 0.57336 0.04817 0.0
C2564 C 0.52983 0.58675 0.02314 0.0
C2565 C 0.54586 0.59232 1.00769 0.0
N2566 N 0.58389 0.5967 0.99995 0.0
N2567 N 0.52196 0.58307 0.06112 0.0
C2568 C 0.56796 0.58835 0.01272 0.0
C2569 C 0.53614 0.58082 0.04435 0.0
N2570 N 0.59299 0.56622 0.03309 0.0
N2571 N 0.50847 0.58689 0.01756 0.0
H2572 H 0.52641 0.58033 0.07714 0.0
H2573 H 0.50674 0.5901 0.05933 0.0
H2574 H 0.50334 0.59036 1.00193 0.0
H2575 H 0.49628 0.58124 0.02774 0.0
H2576 H 0.60416 0.56616 0.02048 0.0
H2577 H 0.59726 0.55622 0.04592 0.0
H2578 H 0.60023 0.596 1.00407 0.0
H2579 H 0.5806 0.60597 0.98627 0.0
C2580 C 0.84793 0.20605 0.25595 0.0
C2581 C 0.84155 0.22438 0.26822 0.0
C2582 C 0.815 0.23386 0.24014 0.0
C2583 C 0.82077 0.21518 0.22811 0.0
N2584 N 0.84096 0.18201 0.22559 0.0
N2585 N 0.81569 0.25269 0.27448 0.0
C2586 C 0.83669 0.20079 0.23639 0.0
C2587 C 0.82406 0.23733 0.26105 0.0
N2588 N 0.86515 0.19401 0.26277 0.0
N2589 N 0.80136 0.24878 0.23128 0.0
H2590 H 0.82235 0.25635 0.28951 0.0
H2591 H 0.80091 0.26024 0.27162 0.0
H2592 H 0.79439 0.24694 0.21607 0.0
H2593 H 0.79835 0.26381 0.23818 0.0
H2594 H 0.87248 0.18203 0.25354 0.0
H2595 H 0.87288 0.19672 0.27751 0.0
H2596 H 0.85044 0.16961 0.2318 0.0
H2597 H 0.83408 0.17829 0.21066 0.0
C2598 C 0.48889 0.95429 0.01397 0.0
C2599 C 0.47626 0.93696 1.00602 0.0
C2600 C 0.45216 0.9407 0.03771 0.0
C2601 C 0.46643 0.95635 0.04678 0.0
N2602 N 0.50095 0.97449 0.04506 0.0
N2603 N 0.44624 0.91268 1.01065 0.0
C2604 C 0.48548 0.96215 0.03531 0.0
C2605 C 0.45788 0.92996 0.01796 0.0
N2606 N 0.50388 0.9638 1.00091 0.0
N2607 N 0.43314 0.9361 0.04797 0.0
H2608 H 0.44937 0.90528 0.99584 0.0
H2609 H 0.43424 0.90501 0.01961 0.0
H2610 H 0.42914 0.94251 0.06303 0.0
H2611 H 0.42086 0.92679 0.04119 0.0
H2612 H 0.51067 0.97876 1.00458 0.0
H2613 H 0.5076 0.95812 0.9855 0.0
H2614 H 0.5162 0.97704 0.03833 0.0
H2615 H 0.49939 0.98046 0.06069 0.0
C2616 C 0.19001 0.7071 0.2875 0.0
C2617 C 0.20524 0.72156 0.29688 0.0
C2618 C 0.19781 0.74787 0.26798 0.0
C2619 C 0.18414 0.73266 0.25749 0.0
N2620 N 0.16743 0.69749 0.25677 0.0
N2621 N 0.22561 0.75473 0.29475 0.0
C2622 C 0.18041 0.71212 0.26708 0.0
C2623 C 0.20962 0.7417 0.28677 0.0
N2624 N 0.18395 0.68903 0.29868 0.0
N2625 N 0.19887 0.76857 0.26043 0.0
H2626 H 0.23415 0.75123 0.30882 0.0
H2627 H 0.23151 0.76823 0.28663 0.0
H2628 H 0.19122 0.77355 0.24629 0.0
H2629 H 0.20613 0.78119 0.26888 0.0
H2630 H 0.17139 0.67885 0.29404 0.0
H2631 H 0.19037 0.68505 0.31374 0.0
H2632 H 0.16602 0.68139 0.26134 0.0
H2633 H 0.15886 0.7011 0.24272 0.0
C2634 C 0.95989 0.59983 1.00463 0.0
C2635 C 0.97377 0.58868 0.01911 0.0
C2636 C 0.97194 0.55705 0.99516 0.0
C2637 C 0.96229 0.56984 0.97865 0.0
N2638 N 0.94973 0.60499 0.96725 0.0
N2639 N 0.9945 0.55666 0.02716 0.0
C2640 C 0.95669 0.59162 0.98334 0.0
C2641 C 0.98009 0.56719 0.01419 0.0
N2642 N 0.95016 0.61852 1.0111 0.0
N2643 N 0.97274 0.53511 0.99296 0.0
H2644 H 1.00108 0.56352 0.04107 0.0
H2645 H 1.00117 0.54175 0.02319 0.0
H2646 H 0.96595 0.52705 0.9798 0.0
H2647 H 0.97787 0.52483 1.00524 0.0
H2648 H 0.93848 0.62643 1.0019 0.0
H2649 H 0.95226 0.62486 0.02659 0.0
H2650 H 0.94752 0.62153 0.96942 0.0
H2651 H 0.9483 0.60009 0.95121 0.0
C2652 C 0.82731 0.78594 0.26286 0.0
C2653 C 0.84559 0.79798 0.25605 0.0
C2654 C 0.84272 0.82044 0.28887 0.0
C2655 C 0.82571 0.80698 0.29656 0.0
N2656 N 0.80411 0.77487 0.29235 0.0
N2657 N 0.87148 0.82627 0.2626 0.0
C2658 C 0.81867 0.78917 0.28394 0.0
C2659 C 0.85345 0.81522 0.26906 0.0
N2660 N 0.8177 0.77181 0.24891 0.0
N2661 N 0.8484 0.83838 0.30044 0.0
H2662 H 0.8789 0.82365 0.24769 0.0
H2663 H 0.87972 0.83728 0.27228 0.0
H2664 H 0.84189 0.84187 0.31559 0.0
H2665 H 0.8588 0.8503 0.29474 0.0
H2666 H 0.80234 0.76542 0.25158 0.0
H2667 H 0.82402 0.76812 0.23374 0.0
H2668 H 0.80019 0.7603 0.28494 0.0
H2669 H 0.79731 0.7766 0.30764 0.0
C2670 C 0.06055 0.96263 0.9942 0.0
C2671 C 0.06876 0.94974 0.97711 0.0
C2672 C 0.07321 0.92005 1.00315 0.0
C2673 C 0.05988 0.93098 0.01833 0.0
N2674 N 0.03986 0.96369 0.02705 0.0
N2675 N 0.08089 0.91461 0.9652 0.0
C2676 C 0.05343 0.95264 0.01365 0.0
C2677 C 0.07492 0.92808 0.9816 0.0
N2678 N 0.06017 0.98462 0.99219 0.0
N2679 N 0.08359 0.90155 1.00915 0.0
H2680 H 0.0811 0.91937 0.94906 0.0
H2681 H 0.08348 0.89813 0.96739 0.0
H2682 H 0.08248 0.89534 0.02478 0.0
H2683 H 0.09481 0.89376 0.99931 0.0
H2684 H 0.0562 0.99491 1.00491 0.0
H2685 H 0.06631 0.99264 0.97871 0.0
H2686 H 0.03232 0.97805 0.02254 0.0
H2687 H 0.03516 0.9583 0.04216 0.0
C2688 C 0.25844 0.20307 0.27642 0.0
C2689 C 0.2675 0.18727 0.29035 0.0
C2690 C 0.23754 0.19312 0.31614 0.0
C2691 C 0.22777 0.20809 0.30164 0.0
N2692 N 0.22776 0.22571 0.26689 0.0
N2693 N 0.2648 0.16547 0.3224 0.0
C2694 C 0.23793 0.2126 0.28146 0.0
C2695 C 0.25689 0.18197 0.31003 0.0
N2696 N 0.26974 0.20918 0.25845 0.0
N2697 N 0.22821 0.18948 0.33584 0.0
H2698 H 0.27922 0.15748 0.31889 0.0
H2699 H 0.25661 0.15877 0.33546 0.0
H2700 H 0.21306 0.19553 0.34012 0.0
H2701 H 0.23577 0.1812 0.34836 0.0
H2702 H 0.26553 0.22212 0.24862 0.0
H2703 H 0.28449 0.20221 0.25421 0.0
H2704 H 0.23288 0.22787 0.25104 0.0
H2705 H 0.21323 0.23357 0.27013 0.0
C2706 C 0.43079 0.54255 0.96393 0.0
C2707 C 0.45145 0.54794 0.97247 0.0
C2708 C 0.45206 0.51327 0.99232 0.0
C2709 C 0.43114 0.50823 0.98421 0.0
N2710 N 0.40315 0.51518 0.9581 0.0
N2711 N 0.48175 0.53907 0.99527 0.0
C2712 C 0.42126 0.52208 0.96877 0.0
C2713 C 0.46214 0.53337 0.98671 0.0
N2714 N 0.41986 0.55745 0.95183 0.0
N2715 N 0.46265 0.49834 1.00466 0.0
H2716 H 0.49003 0.55301 0.9907 0.0
H2717 H 0.48951 0.53069 1.00758 0.0
H2718 H 0.45555 0.48386 1.00956 0.0
H2719 H 0.47887 0.49944 1.00899 0.0
H2720 H 0.40379 0.55571 0.9471 0.0
H2721 H 0.42632 0.57252 0.9479 0.0
H2722 H 0.3963 0.52329 0.94508 0.0
H2723 H 0.39597 0.50021 0.96102 0.0
C2724 C 0.79456 0.3205 0.28218 0.0
C2725 C 0.80432 0.32364 0.30275 0.0
C2726 C 0.77453 0.34836 0.31279 0.0
C2727 C 0.76502 0.34548 0.29206 0.0
N2728 N 0.76857 0.3326 0.25552 0.0
N2729 N 0.80606 0.34381 0.33592 0.0
C2730 C 0.77583 0.33264 0.27635 0.0
C2731 C 0.7949 0.33844 0.31761 0.0
N2732 N 0.8027 0.30531 0.26841 0.0
N2733 N 0.7642 0.36084 0.32779 0.0
H2734 H 0.82124 0.3374 0.33959 0.0
H2735 H 0.80139 0.35594 0.34656 0.0
H2736 H 0.75026 0.36967 0.32436 0.0
H2737 H 0.76866 0.36159 0.34397 0.0
H2738 H 0.79475 0.30024 0.25448 0.0
H2739 H 0.81678 0.29665 0.27152 0.0
H2740 H 0.77729 0.32621 0.24263 0.0
H2741 H 0.7543 0.34017 0.25081 0.0
C2742 C 0.56784 0.98902 0.98653 0.0
C2743 C 0.5757 0.97641 0.96909 0.0
C2744 C 0.60343 1.00428 0.96206 0.0
C2745 C 0.59453 0.01727 0.9788 0.0
N2746 N 0.56447 0.02461 1.00222 0.0
N2747 N 0.59972 0.97288 0.93866 0.0
C2748 C 0.57561 1.01041 0.98959 0.0
C2749 C 0.59314 0.98435 0.95633 0.0
N2750 N 0.55347 0.98033 1.00081 0.0
N2751 N 0.62195 1.01087 0.95196 0.0
H2752 H 0.59353 0.95766 0.93488 0.0
H2753 H 0.61056 0.97875 0.92722 0.0
H2754 H 0.62904 0.02589 0.95488 0.0
H2755 H 0.63084 1.00121 0.94145 0.0
H2756 H 0.54906 0.98805 0.01509 0.0
H2757 H 0.54769 0.96459 0.99951 0.0
H2758 H 0.5488 0.02147 1.0076 0.0
H2759 H 0.56983 0.0403 1.00524 0.0
C2760 C 0.24227 0.8107 0.22591 0.0
C2761 C 0.22792 0.8197 0.21044 0.0
C2762 C 0.25431 0.84898 0.20398 0.0
C2763 C 0.26712 0.84168 0.22162 0.0
N2764 N 0.27176 0.81641 0.25092 0.0
N2765 N 0.21949 0.84834 0.18558 0.0
C2766 C 0.26069 0.82271 0.23294 0.0
C2767 C 0.23377 0.83911 0.19966 0.0
N2768 N 0.23876 0.79023 0.23337 0.0
N2769 N 0.26202 0.86517 0.19111 0.0
H2770 H 0.20465 0.8413 0.18168 0.0
H2771 H 0.22163 0.86364 0.17895 0.0
H2772 H 0.27694 0.87261 0.19382 0.0
H2773 H 0.25461 0.86995 0.1768 0.0
H2774 H 0.2498 0.78185 0.24292 0.0
H2775 H 0.22579 0.78075 0.22827 0.0
H2776 H 0.26605 0.80474 0.26161 0.0
H2777 H 0.28598 0.82382 0.25592 0.0
C2778 C 0.0973 0.51509 0.06582 0.0
C2779 C 0.08986 0.50298 0.04778 0.0
C2780 C 0.06281 0.53109 0.03986 0.0
C2781 C 0.07046 0.54347 0.05764 0.0
N2782 N 0.09621 0.54866 0.08634 0.0
N2783 N 0.06307 0.49707 0.02026 0.0
C2784 C 0.08797 0.53574 0.07041 0.0
C2785 C 0.07191 0.51034 0.03555 0.0
N2786 N 0.113 0.50645 0.07877 0.0
N2787 N 0.04736 0.53957 0.02653 0.0
H2788 H 0.06976 0.4822 0.01604 0.0
H2789 H 0.04811 0.49985 0.01308 0.0
H2790 H 0.04009 0.55449 0.02929 0.0
H2791 H 0.04279 0.53269 1.01189 0.0
H2792 H 0.11822 0.51327 0.0932 0.0
H2793 H 0.11997 0.49141 0.07579 0.0
H2794 H 0.11004 0.54516 0.09523 0.0
H2795 H 0.08995 0.5639 0.08988 0.0
C2796 C 0.79156 0.70631 0.23994 0.0
C2797 C 0.80119 0.70244 0.21943 0.0
C2798 C 0.77014 0.6791 0.20963 0.0
C2799 C 0.76073 0.68271 0.23029 0.0
N2800 N 0.76417 0.69671 0.2664 0.0
N2801 N 0.8018 0.68202 0.18638 0.0
C2802 C 0.77196 0.69549 0.24577 0.0
C2803 C 0.79097 0.68803 0.20468 0.0
N2804 N 0.80081 0.72086 0.25372 0.0
N2805 N 0.75925 0.66687 0.1948 0.0
H2806 H 0.81725 0.6877 0.18262 0.0
H2807 H 0.79651 0.67008 0.17581 0.0
H2808 H 0.74486 0.6588 0.1983 0.0
H2809 H 0.76369 0.66562 0.17864 0.0
H2810 H 0.7933 0.72654 0.26762 0.0
H2811 H 0.81562 0.72827 0.25071 0.0
H2812 H 0.77281 0.70312 0.27934 0.0
H2813 H 0.74934 0.69013 0.27096 0.0
C2814 C 0.94224 1.00352 0.02989 0.0
C2815 C 0.93576 0.01836 0.04614 0.0
C2816 C 0.95034 0.99365 0.07365 0.0
C2817 C 0.95461 0.97785 0.0575 0.0
N2818 N 0.9479 0.96596 0.02096 0.0
N2819 N 0.92772 0.02387 0.08392 0.0
C2820 C 0.94855 0.98228 0.0358 0.0
C2821 C 0.93805 0.01238 0.06819 0.0
N2822 N 0.94237 1.00967 1.00873 0.0
N2823 N 0.95871 0.99145 0.09393 0.0
H2824 H 0.91781 0.03707 0.08054 0.0
H2825 H 0.92731 0.01893 0.10001 0.0
H2826 H 0.96855 0.97857 0.09845 0.0
H2827 H 0.95762 1.00358 0.10555 0.0
H2828 H 0.94887 1.00014 0.99646 0.0
H2829 H 0.93797 0.02513 1.00377 0.0
H2830 H 0.94178 0.96796 1.0054 0.0
H2831 H 0.95107 0.94991 0.02498 0.0
C2832 C 0.312 0.24998 0.17289 0.0
C2833 C 0.30745 0.26804 0.18643 0.0
C2834 C 0.31341 0.24543 0.21793 0.0
C2835 C 0.31451 0.22647 0.20496 0.0
N2836 N 0.31945 0.21189 0.16898 0.0
N2837 N 0.32993 0.27981 0.21549 0.0
C2838 C 0.31528 0.22908 0.1821 0.0
C2839 C 0.31474 0.26587 0.20789 0.0
N2840 N 0.31423 0.2525 0.1512 0.0
N2841 N 0.31247 0.24437 0.23988 0.0
H2842 H 0.33659 0.29171 0.20554 0.0
H2843 H 0.33763 0.2775 0.23033 0.0
H2844 H 0.31116 0.22987 0.24831 0.0
H2845 H 0.3115 0.25836 0.24926 0.0
H2846 H 0.31353 0.26753 0.1436 0.0
H2847 H 0.31353 0.26753 0.1436 0.0
H2848 H 0.31987 0.21329 0.15218 0.0
H2849 H 0.32275 0.19648 0.1749 0.0
C2850 C 0.31434 0.79678 0.34175 0.0
C2851 C 0.30937 0.80027 0.31962 0.0
C2852 C 0.29219 0.7644 0.31804 0.0
C2853 C 0.29764 0.76083 0.34002 0.0
N2854 N 0.32082 0.77031 0.36984 0.0
N2855 N 0.30047 0.78414 0.28526 0.0
C2856 C 0.31116 0.7759 0.35082 0.0
C2857 C 0.30038 0.78305 0.30729 0.0
N2858 N 0.3208 0.81356 0.35453 0.0
N2859 N 0.27879 0.75034 0.30755 0.0
H2860 H 0.30749 0.79695 0.27686 0.0
H2861 H 0.29585 0.77133 0.27536 0.0
H2862 H 0.27254 0.73648 0.31479 0.0
H2863 H 0.27265 0.75325 0.29216 0.0
H2864 H 0.32255 0.81218 0.37121 0.0
H2865 H 0.32227 0.82935 0.34889 0.0
H2866 H 0.33224 0.78004 0.37752 0.0
H2867 H 0.31901 0.75501 0.37669 0.0
C2868 C 0.02059 0.45672 0.92412 0.0
C2869 C 1.00906 0.4754 0.93089 0.0
C2870 C 0.03896 0.48459 0.95566 0.0
C2871 C 0.04972 0.46507 0.95023 0.0
N2872 N 0.05031 0.43169 0.93026 0.0
N2873 N 1.00534 0.50458 0.95639 0.0
C2874 C 0.04035 0.45088 0.93472 0.0
C2875 C 0.01773 0.48861 0.94758 0.0
N2876 N 1.01281 0.44483 0.90721 0.0
N2877 N 0.04912 0.49953 0.96835 0.0
H2878 H 0.98954 0.50756 0.95149 0.0
H2879 H 1.00975 0.51329 0.97009 0.0
H2880 H 0.0644 0.49712 0.97503 0.0
H2881 H 0.04328 0.51512 0.97076 0.0
H2882 H 0.02147 0.43257 0.89966 0.0
H2883 H 0.99792 0.44798 0.89992 0.0
H2884 H 0.04324 0.41938 0.92125 0.0
H2885 H 0.06549 0.42764 0.93642 0.0
C2886 C 0.70917 0.75546 0.34309 0.0
C2887 C 0.72549 0.76877 0.33387 0.0
C2888 C 0.72846 0.74324 0.30341 0.0
C2889 C 0.71475 0.7284 0.31442 0.0
N2890 N 0.69262 0.7199 0.34527 0.0
N2891 N 0.75126 0.77521 0.30544 0.0
C2892 C 0.70517 0.73445 0.33438 0.0
C2893 C 0.73517 0.7627 0.31396 0.0
N2894 N 0.69739 0.7631 0.36012 0.0
N2895 N 0.73475 0.73889 0.28269 0.0
H2896 H 0.75652 0.78955 0.31257 0.0
H2897 H 0.76023 0.77091 0.29191 0.0
H2898 H 0.73023 0.72487 0.27455 0.0
H2899 H 0.74289 0.74984 0.27287 0.0
H2900 H 0.68394 0.75521 0.36646 0.0
H2901 H 0.69992 0.77842 0.3667 0.0
H2902 H 0.68711 0.72231 0.36097 0.0
H2903 H 0.68892 0.70463 0.33915 0.0
C2904 C 0.49759 0.55443 0.46724 0.0
C2905 C 0.48203 0.56705 0.45609 0.0
C2906 C 0.50881 0.57369 0.42734 0.0
C2907 C 0.52272 0.55778 0.43634 0.0
N2908 N 0.53038 0.5334 0.46601 0.0
N2909 N 0.47253 0.58883 0.42536 0.0
C2910 C 0.51724 0.54845 0.45673 0.0
C2911 C 0.48764 0.57689 0.43616 0.0
N2912 N 0.49389 0.54867 0.48824 0.0
N2913 N 0.51595 0.58569 0.41026 0.0
H2914 H 0.45717 0.59193 0.43162 0.0
H2915 H 0.47467 0.59448 0.40967 0.0
H2916 H 0.53137 0.5837 0.40367 0.0
H2917 H 0.50753 0.5988 0.40395 0.0
H2918 H 0.50554 0.54171 0.49818 0.0
H2919 H 0.47975 0.55264 0.49651 0.0
H2920 H 0.52545 0.52332 0.47854 0.0
H2921 H 0.54612 0.53048 0.46105 0.0
C2922 C 0.24392 0.77057 0.68841 0.0
C2923 C 0.22771 0.75506 0.68349 0.0
C2924 C 0.20066 0.77921 0.69993 0.0
C2925 C 0.21659 0.79573 0.70211 0.0
N2926 N 0.25209 0.80852 0.69198 0.0
N2927 N 0.18962 0.74702 0.68043 0.0
C2928 C 0.23784 0.7918 0.69439 0.0
C2929 C 0.20573 0.76006 0.68803 0.0
N2930 N 0.26524 0.76499 0.68748 0.0
N2931 N 0.18109 0.78119 0.70996 0.0
H2932 H 0.1927 0.73307 0.67151 0.0
H2933 H 0.17328 0.75109 0.68144 0.0
H2934 H 0.17696 0.79447 0.71943 0.0
H2935 H 0.16981 0.76868 0.71055 0.0
H2936 H 0.27768 0.77516 0.69261 0.0
H2937 H 0.27018 0.74934 0.68391 0.0
H2938 H 0.26717 0.80673 0.68465 0.0
H2939 H 0.24784 0.82455 0.69497 0.0
C2940 C 0.03518 0.54229 0.55808 0.0
C2941 C 0.04992 0.55693 0.56805 0.0
C2942 C 0.02477 0.56102 0.59874 0.0
C2943 C 1.01084 0.54515 0.5896 0.0
N2944 N 1.00036 0.52371 0.559 0.0
N2945 N 0.05974 0.57915 0.5984 0.0
C2946 C 0.0154 0.53663 0.56879 0.0
C2947 C 0.0449 0.56608 0.58849 0.0
N2948 N 0.04051 0.53329 0.53862 0.0
N2949 N 0.01827 0.57178 0.6169 0.0
H2950 H 0.07431 0.58364 0.59117 0.0
H2951 H 0.05841 0.58445 0.61429 0.0
H2952 H 1.00358 0.56864 0.62458 0.0
H2953 H 0.02639 0.58499 0.6234 0.0
H2954 H 0.03205 0.52072 0.53135 0.0
H2955 H 0.05421 0.53783 0.52992 0.0
H2956 H 1.00117 0.51878 0.54298 0.0
H2957 H 0.98607 0.5189 0.56656 0.0
C2958 C 0.97912 0.9603 0.59094 0.0
C2959 C 0.97426 0.96992 0.57066 0.0
C2960 C 1.00898 0.98995 0.57217 0.0
C2961 C 0.01346 0.98088 0.59277 0.0
N2962 N 1.00548 0.95384 0.61948 0.0
N2963 N 0.98376 0.99471 0.54227 0.0
C2964 C 0.99924 0.96502 0.60149 0.0
C2965 C 0.9891 0.98485 0.56129 0.0
N2966 N 0.96414 0.94709 0.60041 0.0
N2967 N 0.02421 1.00284 0.56265 0.0
H2968 H 0.96988 0.99078 0.53354 0.0
H2969 H 0.9923 1.00754 0.53557 0.0
H2970 H 0.03851 1.00739 0.57035 0.0
H2971 H 0.02354 1.0079 0.54666 0.0
H2972 H 0.96532 0.94137 0.61615 0.0
H2973 H 0.94958 0.94289 0.59297 0.0
H2974 H 0.99718 0.94061 0.62567 0.0
H2975 H 0.02013 0.9567 0.62737 0.0
C2976 C 0.70517 0.78926 0.73438 0.0
C2977 C 0.70041 0.80897 0.72368 0.0
C2978 C 0.67471 0.81811 0.75292 0.0
C2979 C 0.68084 0.79916 0.76433 0.0
N2980 N 0.70586 0.7696 0.76811 0.0
N2981 N 0.6819 0.8432 0.72352 0.0
C2982 C 0.6972 0.78559 0.75566 0.0
C2983 C 0.68555 0.82373 0.73324 0.0
N2984 N 0.71704 0.77375 0.7241 0.0
N2985 N 0.65813 0.83047 0.7607 0.0
H2986 H 0.68831 0.8472 0.70846 0.0
H2987 H 0.67338 0.85576 0.73073 0.0
H2988 H 0.65067 0.82741 0.7755 0.0
H2989 H 0.65101 0.84302 0.7521 0.0
H2990 H 0.71882 0.75811 0.73001 0.0
H2991 H 0.72355 0.77581 0.70874 0.0
H2992 H 0.7193 0.76053 0.76356 0.0
H2993 H 0.70125 0.7671 0.78404 0.0
C2994 C 0.07225 0.09641 0.52258 0.0
C2995 C 0.05406 0.08988 0.51004 0.0
C2996 C 0.04286 0.06554 0.53946 0.0
C2997 C 0.0616 0.07097 0.55145 0.0
N2998 N 0.09567 0.08975 0.55353 0.0
N2999 N 0.02674 0.0624 0.50425 0.0
C3000 C 0.07681 0.08585 0.54268 0.0
C3001 C 0.04071 0.07279 0.51779 0.0
N3002 N 0.08494 0.11299 0.51539 0.0
N3003 N 0.0268 0.05355 0.54878 0.0
H3004 H 0.02544 0.06589 0.48794 0.0
H3005 H 0.01846 0.04838 0.50855 0.0
H3006 H 0.02773 0.0476 0.56448 0.0
H3007 H 1.0117 0.05125 0.54163 0.0
H3008 H 0.09685 0.12038 0.5247 0.0
H3009 H 0.08283 0.12009 0.50025 0.0
H3010 H 0.10856 0.09844 0.54706 0.0
H3011 H 0.0989 0.0833 0.56875 0.0
C3012 C 0.32604 0.74733 0.75592 0.0
C3013 C 0.34394 0.7355 0.76406 0.0
C3014 C 0.34321 0.71263 0.73147 0.0
C3015 C 0.32395 0.72305 0.72443 0.0
N3016 N 0.29458 0.74738 0.73254 0.0
N3017 N 0.36805 0.70512 0.76095 0.0
C3018 C 0.31471 0.73964 0.73736 0.0
C3019 C 0.35201 0.71755 0.75225 0.0
N3020 N 0.3202 0.76627 0.76559 0.0
N3021 N 0.35355 0.6986 0.71792 0.0
H3022 H 0.37522 0.70854 0.77581 0.0
H3023 H 0.37306 0.6905 0.75433 0.0
H3024 H 0.3478 0.69489 0.70252 0.0
H3025 H 0.36878 0.69214 0.72108 0.0
H3026 H 0.3089 0.77686 0.75899 0.0
H3027 H 0.32795 0.77226 0.7793 0.0
H3028 H 0.28609 0.75791 0.74256 0.0
H3029 H 0.28547 0.74163 0.71961 0.0
C3030 C 0.98199 0.45095 0.51457 0.0
C3031 C 0.96991 0.43235 0.50829 0.0
C3032 C 0.94792 0.43662 0.54147 0.0
C3033 C 0.96233 0.45291 0.54898 0.0
N3034 N 0.99553 0.47275 0.544 0.0
N3035 N 0.94092 0.40753 0.51587 0.0
C3036 C 0.9801 0.45914 0.53594 0.0
C3037 C 0.9526 0.42532 0.52177 0.0
N3038 N 0.99441 0.46178 0.49994 0.0
N3039 N 0.92971 0.43206 0.55311 0.0
H3040 H 0.94308 0.3998 0.50105 0.0
H3041 H 0.92984 0.39986 0.52595 0.0
H3042 H 0.92642 0.43923 0.568 0.0
H3043 H 0.9173 0.42212 0.54756 0.0
H3044 H 1.00156 0.47667 0.50322 0.0
H3045 H 0.99542 0.45756 0.48378 0.0
H3046 H 1.0101 0.47583 0.53609 0.0
H3047 H 0.9948 0.47929 0.55949 0.0
C3048 C 0.67677 0.2034 0.77221 0.0
C3049 C 0.68251 0.22211 0.76018 0.0
C3050 C 0.7079 0.23264 0.78905 0.0
C3051 C 0.70348 0.21319 0.80033 0.0
N3052 N 0.68495 0.17898 0.80191 0.0
N3053 N 0.70758 0.25148 0.75488 0.0
C3054 C 0.68828 0.19822 0.79163 0.0
C3055 C 0.69922 0.23585 0.76797 0.0
N3056 N 0.65998 0.19082 0.76523 0.0
N3057 N 0.72018 0.24836 0.79855 0.0
H3058 H 0.70249 0.25366 0.73905 0.0
H3059 H 0.72124 0.26055 0.75877 0.0
H3060 H 0.72725 0.24663 0.81371 0.0
H3061 H 0.72177 0.26387 0.79225 0.0
H3062 H 0.65316 0.17844 0.77432 0.0
H3063 H 0.65204 0.19353 0.7506 0.0
H3064 H 0.67616 0.16626 0.79529 0.0
H3065 H 0.69191 0.1753 0.81681 0.0
C3066 C 0.47988 0.08734 0.47691 0.0
C3067 C 0.45982 0.07647 0.47521 0.0
C3068 C 0.44962 0.09193 0.51046 0.0
C3069 C 0.47134 0.0987 0.51416 0.0
N3070 N 0.50839 0.0992 0.50026 0.0
N3071 N 0.42622 0.06622 0.49233 0.0
C3072 C 0.48684 0.09535 0.49723 0.0
C3073 C 0.44475 0.07823 0.49248 0.0
N3074 N 0.49214 0.09076 0.45885 0.0
N3075 N 0.43345 0.09908 0.52366 0.0
H3076 H 0.42231 0.0556 0.47987 0.0
H3077 H 0.4158 0.06539 0.50554 0.0
H3078 H 0.43628 0.10955 0.53656 0.0
H3079 H 0.41712 0.09623 0.52051 0.0
H3080 H 0.50592 0.10049 0.45883 0.0
H3081 H 0.48711 0.08608 0.44345 0.0
H3082 H 0.52015 0.09411 0.48931 0.0
H3083 H 0.51496 0.10605 0.51401 0.0
C3084 C 0.35475 0.30918 0.77681 0.0
C3085 C 0.34622 0.29244 0.76357 0.0
C3086 C 0.31817 0.28516 0.79061 0.0
C3087 C 0.32583 0.30253 0.80345 0.0
N3088 N 0.34993 0.33279 0.80789 0.0
N3089 N 0.31652 0.26882 0.75514 0.0
C3090 C 0.34372 0.31508 0.79626 0.0
C3091 C 0.32695 0.28174 0.76967 0.0
N3092 N 0.37357 0.31918 0.77091 0.0
N3093 N 0.30291 0.27142 0.79869 0.0
H3094 H 0.32265 0.26551 0.7398 0.0
H3095 H 0.30078 0.26326 0.75756 0.0
H3096 H 0.29628 0.27314 0.81406 0.0
H3097 H 0.29833 0.25721 0.79094 0.0
H3098 H 0.38213 0.32969 0.78086 0.0
H3099 H 0.38124 0.31615 0.75621 0.0
H3100 H 0.36116 0.34409 0.80248 0.0
H3101 H 0.34299 0.33682 0.82272 0.0
C3102 C 0.5375 0.44319 0.4804 0.0
C3103 C 0.5592 0.44962 0.47638 0.0
C3104 C 0.56968 0.43294 0.51107 0.0
C3105 C 0.54753 0.42954 0.51638 0.0
N3106 N 0.50996 0.43441 0.50563 0.0
N3107 N 0.59544 0.45409 0.49047 0.0
C3108 C 0.53145 0.43568 0.50108 0.0
C3109 C 0.57523 0.44536 0.49238 0.0
N3110 N 0.52229 0.44431 0.46442 0.0
N3111 N 0.5855 0.42368 0.52337 0.0
H3112 H 0.60005 0.46385 0.47757 0.0
H3113 H 0.60694 0.45334 0.50276 0.0
H3114 H 0.58212 0.41422 0.53688 0.0
H3115 H 0.60178 0.42379 0.51898 0.0
H3116 H 0.50616 0.43992 0.4669 0.0
H3117 H 0.52614 0.44811 0.44846 0.0
H3118 H 0.50378 0.42995 0.52063 0.0
H3119 H 0.50378 0.42995 0.52063 0.0
C3120 C 0.73189 0.68155 0.81541 0.0
C3121 C 0.72788 0.7034 0.80953 0.0
C3122 C 0.76388 0.70478 0.79225 0.0
C3123 C 0.76814 0.68326 0.79897 0.0
N3124 N 0.75885 0.65408 0.82292 0.0
N3125 N 0.74331 0.73752 0.79864 0.0
C3126 C 0.75305 0.67273 0.8127 0.0
C3127 C 0.74491 0.71556 0.79987 0.0
N3128 N 0.71528 0.6687 0.82225 0.0
N3129 N 0.77749 0.71477 0.77805 0.0
H3130 H 0.73025 0.74604 0.80505 0.0
H3131 H 0.75596 0.74742 0.79354 0.0
H3132 H 0.79132 0.70741 0.77181 0.0
H3133 H 0.77417 0.72975 0.77118 0.0
H3134 H 0.71696 0.65213 0.82468 0.0
H3135 H 0.69932 0.67403 0.8233 0.0
H3136 H 0.7492 0.64665 0.83455 0.0
H3137 H 0.77424 0.64732 0.82129 0.0
C3138 C 0.93379 0.01564 0.45892 0.0
C3139 C 0.93079 1.0096 0.48086 0.0
C3140 C 0.94287 0.04581 0.49153 0.0
C3141 C 0.95 0.0502 0.47015 0.0
N3142 N 0.95613 0.03596 0.43418 0.0
N3143 N 0.93657 0.01831 0.51843 0.0
C3144 C 0.94653 0.03421 0.45395 0.0
C3145 C 0.93675 0.02448 0.49728 0.0
N3146 N 0.92378 1.00438 0.44282 0.0
N3147 N 0.94103 0.06219 0.50619 0.0
H3148 H 0.93258 1.00269 0.52325 0.0
H3149 H 0.94256 0.02805 0.53082 0.0
H3150 H 0.94384 0.07831 0.50214 0.0
H3151 H 0.93424 0.06005 0.52145 0.0
H3152 H 0.92406 1.00939 0.42675 0.0
H3153 H 0.91343 0.99141 0.44585 0.0
H3154 H 0.95537 0.02368 0.42267 0.0
H3155 H 0.96674 0.0484 0.43017 0.0
C3156 C 0.27184 0.85132 0.82056 0.0
C3157 C 0.25737 0.84176 0.80543 0.0
C3158 C 0.28136 0.80975 0.80402 0.0
C3159 C 0.29731 0.82089 0.81623 0.0
N3160 N 0.30815 0.85271 0.83576 0.0
N3161 N 0.24874 0.81104 0.78268 0.0
C3162 C 0.29261 0.84179 0.82447 0.0
C3163 C 0.26215 0.82067 0.79732 0.0
N3164 N 0.26551 0.86946 0.83142 0.0
N3165 N 0.28426 0.78837 0.79925 0.0
H3166 H 0.23324 0.81642 0.77933 0.0
H3167 H 0.25325 0.79784 0.7733 0.0
H3168 H 0.29821 0.77984 0.80323 0.0
H3169 H 0.27216 0.7785 0.79293 0.0
H3170 H 0.27426 0.87625 0.84408 0.0
H3171 H 0.25041 0.87661 0.82903 0.0
H3172 H 0.3068 0.86889 0.84012 0.0
H3173 H 0.32313 0.84594 0.83959 0.0
C3174 C 0.08652 0.50127 0.49715 0.0
C3175 C 0.09305 0.51553 0.48041 0.0
C3176 C 0.07803 0.49011 0.45382 0.0
C3177 C 0.07394 0.47477 0.47046 0.0
N3178 N 0.08111 0.464 0.50726 0.0
N3179 N 0.10089 0.51975 0.44242 0.0
C3180 C 0.08022 0.47985 0.49195 0.0
C3181 C 0.09056 0.50887 0.45858 0.0
N3182 N 0.0864 0.50812 0.51809 0.0
N3183 N 0.06927 0.48749 0.43376 0.0
H3184 H 0.111 0.53293 0.44531 0.0
H3185 H 0.10109 0.51428 0.4265 0.0
H3186 H 0.05904 0.47471 0.42978 0.0
H3187 H 0.07034 0.4993 0.42181 0.0
H3188 H 0.07993 0.49897 0.53066 0.0
H3189 H 0.0907 0.52378 0.5225 0.0
H3190 H 0.08736 0.46654 0.52269 0.0
H3191 H 0.07805 0.4478 0.50373 0.0
C3192 C 0.75092 0.35034 0.71391 0.0
C3193 C 0.76651 0.33954 0.72682 0.0
C3194 C 0.74452 0.3065 0.72408 0.0
C3195 C 0.72692 0.3187 0.71561 0.0
N3196 N 0.71295 0.35355 0.70495 0.0
N3197 N 0.77803 0.30685 0.74453 0.0
C3198 C 0.73006 0.34096 0.71093 0.0
C3199 C 0.76336 0.31739 0.73187 0.0
N3200 N 0.75602 0.36967 0.70459 0.0
N3201 N 0.74352 0.28446 0.72399 0.0
H3202 H 0.79203 0.31418 0.75045 0.0
H3203 H 0.7756 0.29128 0.75038 0.0
H3204 H 0.73047 0.27597 0.71749 0.0
H3205 H 0.75653 0.27461 0.72814 0.0
H3206 H 0.74594 0.37741 0.69355 0.0
H3207 H 0.77127 0.37675 0.70627 0.0
H3208 H 0.71403 0.37028 0.70348 0.0
H3209 H 0.6972 0.34767 0.70358 0.0
C3210 C 0.59271 0.01567 0.56212 0.0
C3211 C 0.59283 1.00865 0.54025 0.0
C3212 C 0.57772 0.04373 0.52955 0.0
C3213 C 0.5743 0.04932 0.55157 0.0
N3214 N 0.57495 0.03792 0.58893 0.0
N3215 N 0.58199 0.01499 0.50339 0.0
C3216 C 0.58085 0.03457 0.56794 0.0
C3217 C 0.58417 0.02238 0.52407 0.0
N3218 N 0.60455 1.00484 0.57725 0.0
N3219 N 0.57557 0.05909 0.51386 0.0
H3220 H 0.5865 0.99943 0.49879 0.0
H3221 H 0.57383 0.02353 0.49141 0.0
H3222 H 0.57195 0.07517 0.51734 0.0
H3223 H 0.57973 0.05642 0.49777 0.0
H3224 H 0.6067 1.01054 0.59294 0.0
H3225 H 0.61386 0.99129 0.57358 0.0
H3226 H 0.57751 0.02651 0.60102 0.0
H3227 H 0.56567 0.05105 0.59389 0.0
C3228 C 0.29046 0.1897 0.70623 0.0
C3229 C 0.30121 0.20291 0.72171 0.0
C3230 C 0.2723 0.19485 0.74814 0.0
C3231 C 0.26078 0.18293 0.7322 0.0
N3232 N 0.25856 0.16893 0.69597 0.0
N3233 N 0.30212 0.21874 0.75725 0.0
C3234 C 0.26975 0.18045 0.71117 0.0
C3235 C 0.29209 0.20555 0.74266 0.0
N3236 N 0.30071 0.18505 0.6872 0.0
N3237 N 0.26455 0.19536 0.76882 0.0
H3238 H 0.31706 0.22595 0.75442 0.0
H3239 H 0.29529 0.22349 0.77183 0.0
H3240 H 0.24957 0.18894 0.77312 0.0
H3241 H 0.2732 0.20111 0.78203 0.0
H3242 H 0.29505 0.17401 0.67588 0.0
H3243 H 0.31601 0.19102 0.68334 0.0
H3244 H 0.2626 0.16848 0.67968 0.0
H3245 H 0.24435 0.16053 0.69941 0.0
C3246 C 0.43614 0.48151 0.56448 0.0
C3247 C 0.45459 0.47379 0.55314 0.0
C3248 C 0.4523 0.50505 0.52864 0.0
C3249 C 0.43501 0.51365 0.54103 0.0
N3250 N 0.41202 0.51151 0.57236 0.0
N3251 N 0.48292 0.48061 0.52721 0.0
C3252 C 0.4275 0.50233 0.55954 0.0
C3253 C 0.46342 0.48624 0.53597 0.0
N3254 N 0.42635 0.46852 0.57942 0.0
N3255 N 0.45769 0.51446 0.50942 0.0
H3256 H 0.49175 0.46727 0.53243 0.0
H3257 H 0.49127 0.49025 0.51623 0.0
H3258 H 0.45022 0.52845 0.50375 0.0
H3259 H 0.46836 0.50754 0.4984 0.0
H3260 H 0.41159 0.4721 0.58668 0.0
H3261 H 0.43206 0.45314 0.58325 0.0
H3262 H 0.40744 0.50529 0.58729 0.0
H3263 H 0.40488 0.52635 0.56886 0.0
C3264 C 0.78642 0.7382 0.71115 0.0
C3265 C 0.80453 0.7263 0.70352 0.0
C3266 C 0.81121 0.7544 0.67607 0.0
C3267 C 0.79355 0.7666 0.68434 0.0
N3268 N 0.76784 0.77267 0.71279 0.0
N3269 N 0.83569 0.72392 0.68027 0.0
C3270 C 0.78221 0.75923 0.70279 0.0
C3271 C 0.81739 0.7347 0.68642 0.0
N3272 N 0.77283 0.72916 0.72602 0.0
N3273 N 0.82175 0.7615 0.658 0.0
H3274 H 0.83994 0.70886 0.68649 0.0
H3275 H 0.84723 0.73022 0.66978 0.0
H3276 H 0.81855 0.77642 0.65089 0.0
H3277 H 0.83294 0.75233 0.64944 0.0
H3278 H 0.75811 0.73601 0.73052 0.0
H3279 H 0.77536 0.71387 0.73257 0.0
H3280 H 0.76134 0.76947 0.72796 0.0
H3281 H 0.7641 0.78801 0.70692 0.0
C3282 C 0.82302 0.28737 0.83306 0.0
C3283 C 0.80941 0.2959 0.81661 0.0
C3284 C 0.78665 0.26327 0.81868 0.0
C3285 C 0.79863 0.25598 0.83674 0.0
N3286 N 0.82805 0.26096 0.86173 0.0
N3287 N 0.77653 0.29327 0.79574 0.0
C3288 C 0.81691 0.26793 0.84399 0.0
C3289 C 0.79078 0.28416 0.80994 0.0
N3290 N 0.84183 0.29783 0.83817 0.0
N3291 N 0.77166 0.24993 0.80947 0.0
H3292 H 0.77893 0.30844 0.78889 0.0
H3293 H 0.76148 0.28658 0.79212 0.0
H3294 H 0.76798 0.23469 0.81565 0.0
H3295 H 0.76454 0.25307 0.79455 0.0
H3296 H 0.85374 0.29138 0.84815 0.0
H3297 H 0.84617 0.31267 0.83147 0.0
H3298 H 0.83982 0.27004 0.86962 0.0
H3299 H 0.82477 0.24628 0.86931 0.0
C3300 C 0.53396 0.9772 0.4627 0.0
C3301 C 0.54937 0.96421 0.45165 0.0
C3302 C 0.52349 0.96011 0.42145 0.0
C3303 C 0.50919 0.97524 0.43123 0.0
N3304 N 0.50056 0.99767 0.46194 0.0
N3305 N 0.55953 0.94432 0.41987 0.0
C3306 C 0.51432 0.9835 0.45214 0.0
C3307 C 0.54428 0.95592 0.43085 0.0
N3308 N 0.53783 0.983 0.48368 0.0
N3309 N 0.51684 0.94928 0.40339 0.0
H3310 H 0.5746 0.94049 0.42645 0.0
H3311 H 0.55795 0.9398 0.40375 0.0
H3312 H 0.50168 0.95176 0.39638 0.0
H3313 H 0.52538 0.93655 0.39649 0.0
H3314 H 0.52637 0.9901 0.49372 0.0
H3315 H 0.55222 0.97946 0.49172 0.0
H3316 H 0.50478 1.00721 0.47513 0.0
H3317 H 0.48481 1.00019 0.45673 0.0
C3318 C 0.2112 0.25004 0.84992 0.0
C3319 C 0.22692 0.26414 0.84086 0.0
C3320 C 0.229 0.24048 0.80881 0.0
C3321 C 0.2158 0.22488 0.81941 0.0
N3322 N 0.19514 0.2142 0.85059 0.0
N3323 N 0.25126 0.27278 0.81174 0.0
C3324 C 0.20707 0.22955 0.84011 0.0
C3325 C 0.23583 0.25942 0.82021 0.0
N3326 N 0.19989 0.25651 0.86775 0.0
N3327 N 0.23479 0.23725 0.78774 0.0
H3328 H 0.25687 0.28656 0.81964 0.0
H3329 H 0.25938 0.26978 0.79737 0.0
H3330 H 0.23044 0.22349 0.77907 0.0
H3331 H 0.24246 0.24876 0.7782 0.0
H3332 H 0.18677 0.24805 0.87405 0.0
H3333 H 0.20241 0.27145 0.87513 0.0
H3334 H 0.19036 0.21555 0.86666 0.0
H3335 H 0.19124 0.19934 0.84367 0.0
C3336 C 1.01025 0.03505 0.95347 0.0
C3337 C 0.01719 0.04629 0.93462 0.0
C3338 C 0.98392 0.06843 0.93624 0.0
C3339 C 0.97756 0.05786 0.95559 0.0
N3340 N 0.98701 0.03434 0.98509 0.0
N3341 N 1.01268 0.07646 0.91058 0.0
C3342 C 0.99141 0.04207 0.96488 0.0
C3343 C 1.0046 0.06386 0.92681 0.0
N3344 N 0.02134 0.01725 0.96027 0.0
N3345 N 0.96995 0.08254 0.92658 0.0
H3346 H 0.0277 0.07357 0.90344 0.0
H3347 H 1.00548 0.09075 0.90547 0.0
H3348 H 0.9549 0.08644 0.93316 0.0
H3349 H 0.97246 0.0891 0.91131 0.0
H3350 H 0.01556 1.00662 0.97195 0.0
H3351 H 0.03586 0.01236 0.95338 0.0
H3352 H 0.99764 0.02468 0.99385 0.0
H3353 H 0.97351 0.03911 0.99397 0.0
C3354 C 0.71453 0.27314 0.17801 0.0
C3355 C 0.72992 0.25881 0.1873 0.0
C3356 C 0.73388 0.28364 0.21823 0.0
C3357 C 0.71987 0.2987 0.20788 0.0
N3358 N 0.69557 0.30708 0.17853 0.0
N3359 N 0.75055 0.24797 0.21835 0.0
C3360 C 0.70982 0.29317 0.18805 0.0
C3361 C 0.73851 0.26337 0.20808 0.0
N3362 N 0.70388 0.26805 0.15943 0.0
N3363 N 0.74314 0.28902 0.23754 0.0
H3364 H 0.75474 0.23334 0.21116 0.0
H3365 H 0.75527 0.2489 0.23444 0.0
H3366 H 0.73892 0.30291 0.24605 0.0
H3367 H 0.75549 0.2803 0.24489 0.0
H3368 H 0.70571 0.25344 0.15122 0.0
H3369 H 0.70571 0.25344 0.15122 0.0
H3370 H 0.68793 0.30363 0.16389 0.0
H3371 H 0.69145 0.32199 0.18521 0.0
C3372 C 0.53918 0.04123 0.06265 0.0
C3373 C 0.55055 0.06007 0.06914 0.0
C3374 C 0.52103 0.06817 0.09483 0.0
C3375 C 0.50922 0.05 0.0871 0.0
N3376 N 0.50445 0.02354 0.05922 0.0
N3377 N 0.55117 0.09303 0.08981 0.0
C3378 C 0.51752 0.03788 0.06967 0.0
C3379 C 0.54106 0.07408 0.08472 0.0
N3380 N 0.54931 0.02591 0.0505 0.0
N3381 N 0.51332 0.0794 0.11219 0.0
H3382 H 0.56636 0.0972 0.08374 0.0
H3383 H 0.54411 0.1051 0.09914 0.0
H3384 H 0.49829 0.07614 0.11914 0.0
H3385 H 0.52217 0.09116 0.12034 0.0
H3386 H 0.54247 1.01083 0.04743 0.0
H3387 H 0.56529 0.02739 0.04537 0.0
H3388 H 0.50869 0.01682 0.04438 0.0
H3389 H 0.48855 0.02046 0.06402 0.0
C3390 C 0.50331 0.45461 0.1006 0.0
C3391 C 0.51582 0.47225 0.09275 0.0
C3392 C 0.48651 0.48137 0.0675 0.0
C3393 C 0.47449 0.4631 0.07427 0.0
N3394 N 0.47248 0.43058 0.09547 0.0
N3395 N 0.52197 0.49698 0.06324 0.0
C3396 C 0.48325 0.44914 0.09029 0.0
C3397 C 0.50821 0.48406 0.07461 0.0
N3398 N 0.51053 0.4433 0.11811 0.0
N3399 N 0.47712 0.49646 0.05444 0.0
H3400 H 0.53842 0.49796 0.06658 0.0
H3401 H 0.51771 0.50437 0.04873 0.0
H3402 H 0.46123 0.49521 0.04896 0.0
H3403 H 0.4844 0.51123 0.05088 0.0
H3404 H 0.50123 0.43194 0.12632 0.0
H3405 H 0.52567 0.44604 0.12507 0.0
H3406 H 0.47894 0.4185 0.10519 0.0
H3407 H 0.45733 0.42673 0.08907 0.0
C3408 C 0.05776 0.33087 0.36335 0.0
C3409 C 0.08076 0.33216 0.36387 0.0
C3410 C 0.078 0.36284 0.38906 0.0
C3411 C 0.05539 0.35927 0.39114 0.0
N3412 N 0.02362 0.33912 0.3811 0.0
N3413 N 0.11292 0.34773 0.37975 0.0
C3414 C 0.04519 0.34317 0.37836 0.0
C3415 C 0.09093 0.34789 0.37721 0.0
N3416 N 0.04794 0.31816 0.3482 0.0
N3417 N 0.08715 0.38057 0.3985 0.0
H3418 H 0.12307 0.33688 0.37182 0.0
H3419 H 0.12098 0.35709 0.39118 0.0
H3420 H 0.07817 0.39174 0.40735 0.0
H3421 H 0.1031 0.38531 0.39583 0.0
H3422 H 0.0313 0.31796 0.34558 0.0
H3423 H 0.05667 0.30925 0.33685 0.0
H3424 H 0.01568 0.32597 0.37424 0.0
H3425 H 0.01385 0.34825 0.39139 0.0
C3426 C 0.58387 0.72949 0.88947 0.0
C3427 C 0.60584 0.72336 0.887 0.0
C3428 C 0.59963 0.69367 0.91265 0.0
C3429 C 0.57689 0.69721 0.91166 0.0
N3430 N 0.54722 0.71739 0.89607 0.0
N3431 N 0.63408 0.69749 0.89434 0.0
C3432 C 0.56893 0.71505 0.89951 0.0
C3433 C 0.61367 0.70498 0.89826 0.0
N3434 N 0.57719 0.74903 0.8818 0.0
N3435 N 0.60786 0.67964 0.92753 0.0
H3436 H 0.64477 0.70508 0.88375 0.0
H3437 H 0.63973 0.68279 0.90026 0.0
H3438 H 0.59811 0.67162 0.93872 0.0
H3439 H 0.6244 0.6778 0.93026 0.0
H3440 H 0.56184 0.75528 0.88485 0.0
H3441 H 0.58779 0.75984 0.87434 0.0
H3442 H 0.54078 0.72866 0.88536 0.0
H3443 H 0.53565 0.70682 0.90221 0.0
C3444 C 0.9461 0.17072 0.36323 0.0
C3445 C 0.95108 0.19314 0.36228 0.0
C3446 C 0.98389 0.18579 0.38379 0.0
C3447 C 0.97649 0.16453 0.3882 0.0
N3448 N 0.94836 0.13776 0.38413 0.0
N3449 N 0.97401 0.22243 0.3743 0.0
C3450 C 0.9571 0.15716 0.37828 0.0
C3451 C 0.97 0.20078 0.373 0.0
N3452 N 0.93087 0.16235 0.3496 0.0
N3453 N 1.00417 0.19175 0.39018 0.0
H3454 H 0.96414 0.23405 0.36721 0.0
H3455 H 0.98611 0.22899 0.38402 0.0
H3456 H 0.01461 0.18116 0.39813 0.0
H3457 H 1.01127 0.20631 0.38563 0.0
H3458 H 0.92788 0.14584 0.34823 0.0
H3459 H 0.92297 0.17172 0.33803 0.0
H3460 H 0.93303 0.13272 0.3792 0.0
H3461 H 0.95557 0.1275 0.39534 0.0
C3462 C 0.42036 0.83584 0.91681 0.0
C3463 C 0.44269 0.8301 0.91727 0.0
C3464 C 0.43337 0.79639 0.89858 0.0
C3465 C 0.41257 0.80464 0.89354 0.0
N3466 N 0.38581 0.83236 0.8983 0.0
N3467 N 0.47073 0.80534 0.90575 0.0
C3468 C 0.40583 0.82432 0.90303 0.0
C3469 C 0.44928 0.81032 0.90766 0.0
N3470 N 0.41305 0.85216 0.92972 0.0
N3471 N 0.43783 0.77515 0.89503 0.0
H3472 H 0.48311 0.81532 0.91129 0.0
H3473 H 0.47626 0.79221 0.89678 0.0
H3474 H 0.42585 0.76429 0.89036 0.0
H3475 H 0.45232 0.7679 0.89969 0.0
H3476 H 0.39673 0.85599 0.93141 0.0
H3477 H 0.42318 0.86039 0.94043 0.0
H3478 H 0.38085 0.84784 0.9026 0.0
H3479 H 0.37455 0.82377 0.8891 0.0
C3480 C 0.0569 0.69169 0.16568 0.0
C3481 C 0.07987 0.69003 0.16611 0.0
C3482 C 0.07713 0.65647 0.14482 0.0
C3483 C 0.05483 0.66045 0.14113 0.0
N3484 N 0.02343 0.68266 0.14712 0.0
N3485 N 0.11212 0.67185 0.15349 0.0
C3486 C 0.04462 0.67816 0.15153 0.0
C3487 C 0.09008 0.67247 0.15528 0.0
N3488 N 0.0468 0.70603 0.17907 0.0
N3489 N 0.086 0.6375 0.13789 0.0
H3490 H 0.1223 0.6835 0.16014 0.0
H3491 H 0.12027 0.66084 0.14372 0.0
H3492 H 0.07692 0.62566 0.13001 0.0
H3493 H 0.10167 0.63268 0.14178 0.0
H3494 H 0.03007 0.70672 0.18098 0.0
H3495 H 0.0553 0.7158 0.18988 0.0
H3496 H 0.01576 0.69679 0.15206 0.0
H3497 H 0.01382 0.67284 0.13732 0.0
C3498 C 0.90948 0.70547 0.11924 0.0
C3499 C 0.9169 0.72345 0.13138 0.0
C3500 C 0.95417 0.71627 0.11926 0.0
C3501 C 0.94674 0.69834 0.10694 0.0
N3502 N 0.91662 0.68031 0.09004 0.0
N3503 N 0.94494 0.74964 0.1377 0.0
C3504 C 0.9241 0.69452 0.10518 0.0
C3505 C 0.93879 0.73015 0.12942 0.0
N3506 N 0.88888 0.698 0.12209 0.0
N3507 N 0.97582 0.71919 0.12272 0.0
H3508 H 0.93403 0.76002 0.14532 0.0
H3509 H 0.96017 0.75632 0.13502 0.0
H3510 H 0.98766 0.70927 0.11604 0.0
H3511 H 0.98197 0.73041 0.13365 0.0
H3512 H 0.88336 0.68348 0.11561 0.0
H3513 H 0.87772 0.70556 0.13221 0.0
H3514 H 0.90024 0.67816 0.08669 0.0
H3515 H 0.92695 0.67236 0.07932 0.0
C3516 C 0.97199 0.82156 0.15163 0.0
C3517 C 0.95326 0.82859 0.16305 0.0
C3518 C 0.95863 0.86527 0.14852 0.0
C3519 C 0.97767 0.85844 0.13763 0.0
N3520 N 1.00539 0.83156 0.13337 0.0
N3521 N 0.93337 0.85863 0.17774 0.0
C3522 C 0.98535 0.83707 0.14085 0.0
C3523 C 0.94821 0.85099 0.1633 0.0
N3524 N 0.97633 0.80003 0.14975 0.0
N3525 N 0.9496 0.88483 0.14378 0.0
H3526 H 0.92588 0.84866 0.18909 0.0
H3527 H 0.93034 0.87504 0.17996 0.0
H3528 H 0.95634 0.89558 0.13272 0.0
H3529 H 0.93445 0.88955 0.14945 0.0
H3530 H 0.98816 0.79387 0.13947 0.0
H3531 H 0.96709 0.78813 0.1572 0.0
H3532 H 1.01283 0.81691 0.13697 0.0
H3533 H 0.01541 0.84253 0.12535 0.0
C3534 C 0.07864 0.81029 0.11575 0.0
C3535 C 0.08487 0.83095 0.1079 0.0
C3536 C 0.12128 0.82551 0.12336 0.0
C3537 C 0.11494 0.8049 0.13099 0.0
N3538 N 0.09077 0.77473 0.12642 0.0
N3539 N 0.11414 0.85502 0.09855 0.0
C3540 C 0.09465 0.79631 0.12452 0.0
C3541 C 0.10691 0.83751 0.10986 0.0
N3542 N 0.05734 0.80439 0.11623 0.0
N3543 N 0.14075 0.83391 0.12958 0.0
H3544 H 0.1042 0.86365 0.08801 0.0
H3545 H 0.13036 0.85957 0.09791 0.0
H3546 H 0.15196 0.82507 0.13856 0.0
H3547 H 0.14524 0.84987 0.12674 0.0
H3548 H 0.05189 0.79049 0.12402 0.0
H3549 H 0.04487 0.81425 0.11075 0.0
H3550 H 0.07676 0.76735 0.12062 0.0
H3551 H 0.10285 0.76393 0.1309 0.0
C3552 C 0.35557 0.05903 0.33578 0.0
C3553 C 0.35685 0.08191 0.33568 0.0
C3554 C 0.38204 0.08008 0.36649 0.0
C3555 C 0.3841 0.05741 0.36364 0.0
N3556 N 0.37256 0.02506 0.34505 0.0
N3557 N 0.3729 0.11442 0.3501 0.0
C3558 C 0.37055 0.04676 0.34834 0.0
C3559 C 0.37024 0.09254 0.35106 0.0
N3560 N 0.33977 0.04904 0.32399 0.0
N3561 N 0.39158 0.08971 0.3839 0.0
H3562 H 0.36479 0.12418 0.33904 0.0
H3563 H 0.38441 0.12273 0.35916 0.0
H3564 H 0.40023 0.08098 0.39542 0.0
H3565 H 0.38911 0.10583 0.38802 0.0
H3566 H 0.33651 0.03257 0.32491 0.0
H3567 H 0.32847 0.05763 0.31488 0.0
H3568 H 0.36548 0.01695 0.33211 0.0
H3569 H 0.38216 0.01519 0.35464 0.0
C3570 C 0.33923 0.40184 0.92671 0.0
C3571 C 0.32893 0.41295 0.94402 0.0
C3572 C 0.2938 0.39767 0.9327 0.0
C3573 C 0.30411 0.38684 0.9153 0.0
N3574 N 0.33534 0.38286 0.89253 0.0
N3575 N 0.29586 0.42567 0.96016 0.0
C3576 C 0.3264 0.3905 0.9112 0.0
C3577 C 0.30599 0.41222 0.94589 0.0
N3578 N 0.36131 0.4008 0.92586 0.0
N3579 N 0.27259 0.39332 0.93722 0.0
H3580 H 0.30432 0.43664 0.96978 0.0
H3581 H 0.27912 0.42741 0.961 0.0
H3582 H 0.26305 0.38329 0.92758 0.0
H3583 H 0.26482 0.39856 0.95118 0.0
H3584 H 0.3697 0.39088 0.91518 0.0
H3585 H 0.37138 0.40851 0.93695 0.0
H3586 H 0.35097 0.38669 0.8875 0.0
H3587 H 0.32637 0.37434 0.88106 0.0
C3588 C 0.64678 0.46663 0.32006 0.0
C3589 C 0.65784 0.44716 0.3254 0.0
C3590 C 0.64336 0.4512 0.3626 0.0
C3591 C 0.6365 0.47256 0.35773 0.0
N3592 N 0.63494 0.50173 0.33213 0.0
N3593 N 0.65308 0.41609 0.34838 0.0
C3594 C 0.63981 0.48074 0.3367 0.0
C3595 C 0.65272 0.43802 0.346 0.0
N3596 N 0.63783 0.4691 0.30011 0.0
N3597 N 0.64051 0.44329 0.38299 0.0
H3598 H 0.65537 0.40572 0.3353 0.0
H3599 H 0.64787 0.40805 0.36218 0.0
H3600 H 0.63257 0.45189 0.39509 0.0
H3601 H 0.64746 0.42896 0.38836 0.0
H3602 H 0.62852 0.48249 0.29585 0.0
H3603 H 0.63567 0.45587 0.28991 0.0
H3604 H 0.63834 0.50859 0.31712 0.0
H3605 H 0.62947 0.51251 0.34389 0.0
C3606 C 0.71808 0.10781 0.93873 0.0
C3607 C 0.69521 0.10967 0.93849 0.0
C3608 C 0.69789 0.13282 0.90622 0.0
C3609 C 0.72066 0.13418 0.90896 0.0
N3610 N 0.75267 0.12291 0.92839 0.0
N3611 N 0.66306 0.12505 0.92263 0.0
C3612 C 0.73087 0.1214 0.92518 0.0
C3613 C 0.68499 0.1222 0.92216 0.0
N3614 N 0.72757 0.09272 0.95175 0.0
N3615 N 0.68863 0.14198 0.88841 0.0
H3616 H 0.65305 0.11762 0.93396 0.0
H3617 H 0.65493 0.13599 0.91279 0.0
H3618 H 0.69774 0.14986 0.8766 0.0
H3619 H 0.6724 0.14002 0.88432 0.0
H3620 H 0.74397 0.08891 0.95115 0.0
H3621 H 0.71864 0.08247 0.96173 0.0
H3622 H 0.76052 0.11668 0.9419 0.0
H3623 H 0.76295 0.13111 0.91798 0.0
C3624 C 0.37192 0.9637 0.19516 0.0
C3625 C 0.36329 0.94364 0.18794 0.0
C3626 C 0.37911 0.95068 0.15192 0.0
C3627 C 0.38671 0.97109 0.15905 0.0
N3628 N 0.3826 0.99984 0.18482 0.0
N3629 N 0.35369 0.92126 0.15746 0.0
C3630 C 0.38055 0.97851 0.17982 0.0
C3631 C 0.36536 0.93811 0.16566 0.0
N3632 N 0.37327 0.96821 0.21671 0.0
N3633 N 0.38544 0.94306 0.13222 0.0
H3634 H 0.34281 0.91236 0.16677 0.0
H3635 H 0.3531 0.91761 0.14105 0.0
H3636 H 0.39464 0.95226 0.12149 0.0
H3637 H 0.38255 0.92729 0.12712 0.0
H3638 H 0.38133 0.98175 0.22268 0.0
H3639 H 0.36859 0.95737 0.2287 0.0
H3640 H 0.37709 1.00643 0.1993 0.0
H3641 H 0.38679 1.01123 0.1732 0.0
C3642 C 0.23116 0.39169 0.08959 0.0
C3643 C 0.2238 0.38687 0.11074 0.0
C3644 C 0.19211 0.40996 0.10411 0.0
C3645 C 0.19712 0.41066 0.08165 0.0
N3646 N 0.22087 0.39928 0.05273 0.0
N3647 N 0.19678 0.3913 0.13833 0.0
C3648 C 0.21664 0.40095 0.07431 0.0
C3649 C 0.20419 0.39614 0.11813 0.0
N3650 N 0.2522 0.38785 0.0842 0.0
N3651 N 0.17608 0.42286 0.1121 0.0
H3652 H 0.20565 0.38199 0.14923 0.0
H3653 H 0.18139 0.39549 0.14377 0.0
H3654 H 0.16752 0.43367 0.10241 0.0
H3655 H 0.17284 0.42446 0.12853 0.0
H3656 H 0.25893 0.39244 0.06947 0.0
H3657 H 0.26352 0.38295 0.09563 0.0
H3658 H 0.23369 0.39021 0.0466 0.0
H3659 H 0.21056 0.40518 0.04083 0.0
C3660 C 0.66726 0.5588 0.18743 0.0
C3661 C 0.66503 0.58156 0.18888 0.0
C3662 C 0.63911 0.58045 0.15862 0.0
C3663 C 0.63831 0.55757 0.15992 0.0
N3664 N 0.65232 0.52465 0.17547 0.0
N3665 N 0.64736 0.61414 0.17684 0.0
C3666 C 0.65279 0.54664 0.17411 0.0
C3667 C 0.65079 0.59247 0.17451 0.0
N3668 N 0.68361 0.54886 0.19849 0.0
N3669 N 0.62855 0.59067 0.14217 0.0
H3670 H 0.65539 0.62356 0.18827 0.0
H3671 H 0.63531 0.62251 0.16859 0.0
H3672 H 0.61997 0.58226 0.13034 0.0
H3673 H 0.63005 0.60713 0.13906 0.0
H3674 H 0.68764 0.53266 0.19654 0.0
H3675 H 0.69452 0.55733 0.20819 0.0
H3676 H 0.65989 0.51594 0.18769 0.0
H3677 H 0.64376 0.51501 0.16472 0.0
C3678 C 0.79934 0.12385 0.10078 0.0
C3679 C 0.80887 0.13632 0.11765 0.0
C3680 C 0.84506 0.12477 0.10555 0.0
C3681 C 0.83553 0.11255 0.08856 0.0
N3682 N 0.80372 0.09554 0.07397 0.0
N3683 N 0.84004 0.14362 0.13967 0.0
C3684 C 0.81268 0.11052 0.0875 0.0
C3685 C 0.83151 0.1349 0.12128 0.0
N3686 N 0.7777 0.12542 0.09668 0.0
N3687 N 0.86696 0.1279 0.10592 0.0
H3688 H 0.83042 0.15115 0.15131 0.0
H3689 H 0.8561 0.14158 0.14434 0.0
H3690 H 0.87743 0.12099 0.09468 0.0
H3691 H 0.87462 0.13864 0.11636 0.0
H3692 H 0.77044 0.11942 0.08273 0.0
H3693 H 0.76701 0.13349 0.10677 0.0
H3694 H 0.78732 0.09165 0.07395 0.0
H3695 H 0.81305 0.08541 0.06423 0.0
C3696 C 0.3727 0.37953 0.08422 0.0
C3697 C 0.36938 0.38058 0.06156 0.0
C3698 C 0.34268 0.35116 0.06487 0.0
C3699 C 0.3426 0.3536 0.08764 0.0
N3700 N 0.35683 0.37174 0.11915 0.0
N3701 N 0.34973 0.36765 0.03026 0.0
C3702 C 0.35773 0.36792 0.09744 0.0
C3703 C 0.35421 0.36622 0.05179 0.0
N3704 N 0.38992 0.39013 0.09312 0.0
N3705 N 0.3317 0.33431 0.05574 0.0
H3706 H 0.35811 0.37768 0.01976 0.0
H3707 H 0.33675 0.35973 0.02299 0.0
H3708 H 0.32339 0.32289 0.06497 0.0
H3709 H 0.33275 0.3304 0.03941 0.0
H3710 H 0.39437 0.38855 0.10927 0.0
H3711 H 0.40098 0.39881 0.08378 0.0
H3712 H 0.36571 0.38387 0.12674 0.0
H3713 H 0.34596 0.364 0.12942 0.0
C3714 C 0.3241 0.64344 0.4567 0.0
C3715 C 0.33013 0.65681 0.43904 0.0
C3716 C 0.36817 0.64598 0.44614 0.0
C3717 C 0.36173 0.63645 0.46594 0.0
N3718 N 0.33362 0.6316 0.49234 0.0
N3719 N 0.35683 0.65763 0.41058 0.0
C3720 C 0.33978 0.63745 0.47209 0.0
C3721 C 0.35211 0.65488 0.43193 0.0
N3722 N 0.30517 0.63214 0.45619 0.0
N3723 N 0.38962 0.64634 0.44092 0.0
H3724 H 0.34472 0.65909 0.39894 0.0
H3725 H 0.37207 0.65498 0.40393 0.0
H3726 H 0.40142 0.63974 0.45102 0.0
H3727 H 0.39581 0.65485 0.4278 0.0
H3728 H 0.30096 0.62098 0.46811 0.0
H3729 H 0.29596 0.63107 0.4421 0.0
H3730 H 0.31756 0.63266 0.49747 0.0
H3731 H 0.34497 0.62838 0.50435 0.0
C3732 C 0.91303 0.41931 0.83609 0.0
C3733 C 0.91385 0.44167 0.83064 0.0
C3734 C 0.89355 0.43327 0.79744 0.0
C3735 C 0.88889 0.41226 0.80524 0.0
N3736 N 0.89394 0.38513 0.83251 0.0
N3737 N 0.902 0.4702 0.80667 0.0
C3738 C 0.89872 0.40517 0.82466 0.0
C3739 C 0.90355 0.44871 0.8113 0.0
N3740 N 0.92636 0.4115 0.85185 0.0
N3741 N 0.88865 0.43842 0.77661 0.0
H3742 H 0.90848 0.48224 0.81642 0.0
H3743 H 0.89249 0.4762 0.79413 0.0
H3744 H 0.88257 0.42703 0.76583 0.0
H3745 H 0.8932 0.45294 0.76942 0.0
H3746 H 0.92789 0.39512 0.85533 0.0
H3747 H 0.93758 0.42122 0.85988 0.0
H3748 H 0.89852 0.37992 0.84784 0.0
H3749 H 0.8843 0.37415 0.82408 0.0
C3750 C 0.68191 0.87461 0.47658 0.0
C3751 C 0.66145 0.88085 0.46829 0.0
C3752 C 0.66891 0.85898 0.436 0.0
C3753 C 0.69111 0.85728 0.44209 0.0
N3754 N 0.71913 0.8665 0.46785 0.0
N3755 N 0.63511 0.87871 0.43983 0.0
C3756 C 0.69771 0.86565 0.46245 0.0
C3757 C 0.65474 0.87273 0.44798 0.0
N3758 N 0.68612 0.8769 0.49806 0.0
N3759 N 0.66137 0.84723 0.41892 0.0
H3760 H 0.62407 0.88791 0.44866 0.0
H3761 H 0.63031 0.87545 0.42403 0.0
H3762 H 0.67119 0.83654 0.41032 0.0
H3763 H 0.64506 0.8464 0.41473 0.0
H3764 H 0.70031 0.87139 0.50528 0.0
H3765 H 0.67406 0.88131 0.50893 0.0
H3766 H 0.72476 0.87455 0.48153 0.0
H3767 H 0.73146 0.86108 0.45774 0.0
C3768 C 0.61478 0.60515 0.33873 0.0
C3769 C 0.61237 0.58309 0.33253 0.0
C3770 C 0.62888 0.59215 0.29748 0.0
C3771 C 0.63539 0.61263 0.30548 0.0
N3772 N 0.63464 0.63877 0.33416 0.0
N3773 N 0.62024 0.55513 0.3064 0.0
C3774 C 0.62816 0.61925 0.32619 0.0
C3775 C 0.62004 0.5765 0.31189 0.0
N3776 N 0.60387 0.61272 0.35635 0.0
N3777 N 0.63083 0.58772 0.27601 0.0
H3778 H 0.6147 0.54295 0.31658 0.0
H3779 H 0.62786 0.54932 0.29256 0.0
H3780 H 0.63557 0.59942 0.26493 0.0
H3781 H 0.62492 0.57362 0.26894 0.0
H3782 H 0.60344 0.62897 0.36064 0.0
H3783 H 0.59343 0.60305 0.3654 0.0
H3784 H 0.63218 0.6435 0.35011 0.0
H3785 H 0.64349 0.64981 0.32497 0.0
C3786 C 0.18204 0.64733 0.54564 0.0
C3787 C 0.16159 0.64143 0.55411 0.0
C3788 C 0.17024 0.66245 0.58665 0.0
C3789 C 0.19243 0.66349 0.58031 0.0
N3790 N 0.21969 0.65297 0.55418 0.0
N3791 N 0.13592 0.64353 0.58317 0.0
C3792 C 0.19842 0.65507 0.55979 0.0
C3793 C 0.1555 0.64922 0.57473 0.0
N3794 N 0.18573 0.64591 0.52401 0.0
N3795 N 0.16315 0.67449 0.60372 0.0
H3796 H 0.12449 0.63473 0.57439 0.0
H3797 H 0.13156 0.64661 0.59913 0.0
H3798 H 0.17325 0.68509 0.61209 0.0
H3799 H 0.14689 0.67569 0.608 0.0
H3800 H 0.20005 0.65116 0.5168 0.0
H3801 H 0.17323 0.64265 0.5132 0.0
H3802 H 0.22462 0.64505 0.54017 0.0
H3803 H 0.23242 0.65688 0.56449 0.0
C3804 C 0.89542 0.61653 0.6973 0.0
C3805 C 0.89202 0.61274 0.71963 0.0
C3806 C 0.91825 0.58281 0.71798 0.0
C3807 C 0.91864 0.58419 0.69503 0.0
N3808 N 0.90505 0.60119 0.66261 0.0
N3809 N 0.89918 0.59128 0.75125 0.0
C3810 C 0.90681 0.60096 0.68461 0.0
C3811 C 0.90336 0.59573 0.73004 0.0
N3812 N 0.88742 0.63493 0.68815 0.0
N3813 N 0.93237 0.56932 0.72825 0.0
H3814 H 0.88884 0.60067 0.7607 0.0
H3815 H 0.90486 0.57753 0.75909 0.0
H3816 H 0.9437 0.56001 0.71991 0.0
H3817 H 0.93431 0.56894 0.74495 0.0
H3818 H 0.89103 0.63972 0.67243 0.0
H3819 H 0.87886 0.64644 0.69701 0.0
H3820 H 0.89465 0.61148 0.65431 0.0
H3821 H 0.91246 0.58985 0.65263 0.0
C3822 C 0.13479 0.90985 0.69842 0.0
C3823 C 0.13788 0.91332 0.72088 0.0
C3824 C 0.11032 0.94206 0.71971 0.0
C3825 C 0.10998 0.94099 0.69675 0.0
N3826 N 0.12433 0.92527 0.66402 0.0
N3827 N 0.12931 0.9334 0.75303 0.0
C3828 C 0.12264 0.92505 0.68603 0.0
C3829 C 0.12567 0.92949 0.73161 0.0
N3830 N 0.1436 0.89202 0.68888 0.0
N3831 N 0.09569 0.95488 0.73013 0.0
H3832 H 0.13991 0.92414 0.76232 0.0
H3833 H 0.1229 0.94658 0.76127 0.0
H3834 H 0.0841 0.96395 0.72189 0.0
H3835 H 0.09368 0.955 0.74683 0.0
H3836 H 0.1402 0.88739 0.67307 0.0
H3837 H 0.15269 0.88071 0.69745 0.0
H3838 H 0.1353 0.91576 0.65552 0.0
H3839 H 0.11615 0.93625 0.65424 0.0
C3840 C 0.55883 0.82338 0.87048 0.0
C3841 C 0.57747 0.8305 0.85888 0.0
C3842 C 0.57161 0.86733 0.87314 0.0
C3843 C 0.55284 0.86026 0.88433 0.0
N3844 N 0.52542 0.83309 0.88886 0.0
N3845 N 0.59723 0.86065 0.84417 0.0
C3846 C 0.54538 0.83879 0.88125 0.0
C3847 C 0.58241 0.85297 0.85862 0.0
N3848 N 0.55467 0.80183 0.87254 0.0
N3849 N 0.57979 0.88744 0.87712 0.0
H3850 H 0.60489 0.85071 0.83292 0.0
H3851 H 0.60016 0.87705 0.84182 0.0
H3852 H 0.57227 0.89846 0.88741 0.0
H3853 H 0.59479 0.89259 0.87143 0.0
H3854 H 0.54295 0.79563 0.88292 0.0
H3855 H 0.56402 0.78996 0.86523 0.0
H3856 H 0.51807 0.81834 0.88539 0.0
H3857 H 0.51531 0.84398 0.89686 0.0
C3858 C 0.09892 0.17759 0.38853 0.0
C3859 C 0.08271 0.18632 0.40245 0.0
C3860 C 0.09704 0.22262 0.39368 0.0
C3861 C 0.11502 0.21327 0.38277 0.0
N3862 N 0.13492 0.1812 0.37373 0.0
N3863 N 0.05959 0.21765 0.40321 0.0
C3864 C 0.11676 0.19053 0.38206 0.0
C3865 C 0.07986 0.20915 0.40129 0.0
N3866 N 0.0948 0.15917 0.37717 0.0
N3867 N 0.09609 0.2444 0.39678 0.0
H3868 H 0.04587 0.20788 0.40359 0.0
H3869 H 0.05603 0.23388 0.40054 0.0
H3870 H 0.1082 0.25489 0.39176 0.0
H3871 H 0.08442 0.25172 0.40648 0.0
H3872 H 0.10533 0.1531 0.36549 0.0
H3873 H 0.07932 0.15242 0.37659 0.0
H3874 H 0.13734 0.16452 0.374 0.0
H3875 H 0.14817 0.1903 0.36853 0.0
C3876 C 0.44616 0.66033 0.88029 0.0
C3877 C 0.46868 0.66321 0.8837 0.0
C3878 C 0.46841 0.69291 0.85725 0.0
C3879 C 0.44538 0.69257 0.85697 0.0
N3880 N 0.41214 0.67716 0.87069 0.0
N3881 N 0.5014 0.68298 0.87617 0.0
C3882 C 0.43417 0.67637 0.86888 0.0
C3883 C 0.47992 0.67956 0.87217 0.0
N3884 N 0.43618 0.64235 0.8883 0.0
N3885 N 0.47926 0.70583 0.84302 0.0
H3886 H 0.51042 0.67331 0.88662 0.0
H3887 H 0.50995 0.69618 0.8702 0.0
H3888 H 0.47127 0.71546 0.83172 0.0
H3889 H 0.49598 0.70545 0.841 0.0
H3890 H 0.42023 0.63824 0.88469 0.0
H3891 H 0.44455 0.63047 0.89686 0.0
H3892 H 0.40338 0.66731 0.88116 0.0
H3893 H 0.40264 0.68889 0.86326 0.0
C3894 C 0.92295 0.33338 0.41315 0.0
C3895 C 0.94548 0.32867 0.41375 0.0
C3896 C 0.93839 0.29566 0.39266 0.0
C3897 C 0.91683 0.30256 0.38879 0.0
N3898 N 0.88894 0.32922 0.39398 0.0
N3899 N 0.97508 0.30623 0.40162 0.0
C3900 C 0.90911 0.32166 0.39886 0.0
C3901 C 0.95331 0.30985 0.40311 0.0
N3902 N 0.91473 0.34891 0.42649 0.0
N3903 N 0.94465 0.27556 0.38607 0.0
H3904 H 0.98664 0.31639 0.40847 0.0
H3905 H 0.98177 0.29419 0.39197 0.0
H3906 H 0.93409 0.26489 0.37833 0.0
H3907 H 0.9595 0.26875 0.39017 0.0
H3908 H 0.89821 0.35175 0.42826 0.0
H3909 H 0.92433 0.35744 0.43744 0.0
H3910 H 0.88337 0.34435 0.39877 0.0
H3911 H 0.87827 0.32099 0.38383 0.0
C3912 C 0.58369 0.16821 0.66272 0.0
C3913 C 0.57824 0.19049 0.66441 0.0
C3914 C 0.54536 0.18295 0.64295 0.0
C3915 C 0.55322 0.16204 0.63784 0.0
N3916 N 0.58199 0.13588 0.64076 0.0
N3917 N 0.55434 0.21948 0.65356 0.0
C3918 C 0.57287 0.15486 0.64733 0.0
C3919 C 0.55898 0.19794 0.65411 0.0
N3920 N 0.59908 0.15972 0.67606 0.0
N3921 N 0.52488 0.18859 0.63683 0.0
H3922 H 0.56391 0.23115 0.66095 0.0
H3923 H 0.54199 0.226 0.64415 0.0
H3924 H 0.51464 0.17802 0.62856 0.0
H3925 H 0.51739 0.2028 0.64183 0.0
H3926 H 0.60242 0.14325 0.67684 0.0
H3927 H 0.60675 0.16885 0.68799 0.0
H3928 H 0.59747 0.13108 0.64538 0.0
H3929 H 0.57488 0.12581 0.62928 0.0
C3930 C 0.4068 0.19497 0.63083 0.0
C3931 C 0.4127 0.21583 0.63819 0.0
C3932 C 0.44894 0.21109 0.62272 0.0
C3933 C 0.44304 0.1904 0.61466 0.0
N3934 N 0.41402 0.16586 0.60558 0.0
N3935 N 0.43604 0.24651 0.63274 0.0
C3936 C 0.42119 0.18334 0.617 0.0
C3937 C 0.43269 0.2248 0.6314 0.0
N3938 N 0.38772 0.18606 0.63747 0.0
N3939 N 0.47015 0.2173 0.62343 0.0
H3940 H 0.42366 0.25711 0.63687 0.0
H3941 H 0.44987 0.25404 0.62672 0.0
H3942 H 0.48284 0.20743 0.61847 0.0
H3943 H 0.47525 0.23137 0.63116 0.0
H3944 H 0.38365 0.16996 0.63477 0.0
H3945 H 0.37647 0.19461 0.64669 0.0
H3946 H 0.39786 0.16105 0.60525 0.0
H3947 H 0.42381 0.15758 0.59464 0.0
C3948 C 0.48251 0.34245 0.65259 0.0
C3949 C 0.47153 0.35916 0.64137 0.0
C3950 C 0.43696 0.34693 0.65682 0.0
C3951 C 0.44793 0.33039 0.66844 0.0
N3952 N 0.48166 0.31602 0.68158 0.0
N3953 N 0.43956 0.38088 0.63734 0.0
C3954 C 0.47092 0.32935 0.66766 0.0
C3955 C 0.44917 0.36264 0.64517 0.0
N3956 N 0.50381 0.33847 0.64816 0.0
N3957 N 0.41487 0.34681 0.65556 0.0
H3958 H 0.4481 0.39253 0.62861 0.0
H3959 H 0.42381 0.38543 0.64124 0.0
H3960 H 0.4052 0.33537 0.66324 0.0
H3961 H 0.40616 0.35693 0.64532 0.0
H3962 H 0.51209 0.32501 0.65389 0.0
H3963 H 0.51291 0.34796 0.63761 0.0
H3964 H 0.49843 0.3159 0.68326 0.0
H3965 H 0.47363 0.30653 0.69298 0.0
C3966 C 0.57011 0.30541 0.62452 0.0
C3967 C 0.57841 0.32316 0.61246 0.0
C3968 C 0.61486 0.31531 0.62654 0.0
C3969 C 0.60671 0.29699 0.63769 0.0
N3970 N 0.57786 0.27137 0.64232 0.0
N3971 N 0.6098 0.34035 0.59691 0.0
C3972 C 0.58477 0.2909 0.63481 0.0
C3973 C 0.60119 0.32653 0.61179 0.0
N3974 N 0.54833 0.30321 0.62765 0.0
N3975 N 0.63517 0.32284 0.63091 0.0
H3976 H 0.60031 0.34827 0.58544 0.0
H3977 H 0.6264 0.34205 0.59448 0.0
H3978 H 0.64557 0.3154 0.64186 0.0
H3979 H 0.64098 0.33749 0.62498 0.0
H3980 H 0.54167 0.29198 0.63827 0.0
H3981 H 0.53694 0.31386 0.62136 0.0
H3982 H 0.56253 0.26518 0.63898 0.0
H3983 H 0.58827 0.26051 0.64995 0.0
C3984 C 0.8804 0.54103 0.83554 0.0
C3985 C 0.88368 0.54803 0.85711 0.0
C3986 C 0.85851 0.57804 0.85045 0.0
C3987 C 0.85893 0.57365 0.82791 0.0
N3988 N 0.8725 0.55159 0.7987 0.0
N3989 N 0.87741 0.57493 0.88459 0.0
C3990 C 0.87015 0.55507 0.82036 0.0
C3991 C 0.87291 0.56685 0.86456 0.0
N3992 N 0.88747 0.52107 0.82949 0.0
N3993 N 0.84435 0.593 0.85835 0.0
H3994 H 0.88801 0.56744 0.89533 0.0
H3995 H 0.87194 0.58993 0.88988 0.0
H3996 H 0.83337 0.60112 0.84846 0.0
H3997 H 0.84197 0.5956 0.87481 0.0
H3998 H 0.88383 0.51422 0.81456 0.0
H3999 H 0.89503 0.51058 0.84032 0.0
H4000 H 0.88264 0.53976 0.79234 0.0
H4001 H 0.8658 0.56162 0.78698 0.0
C4002 C 0.80697 0.91399 0.44112 0.0
C4003 C 0.82997 0.91369 0.43968 0.0
C4004 C 0.82696 0.89238 0.40613 0.0
C4005 C 0.80445 0.88964 0.40973 0.0
N4006 N 0.77291 0.89688 0.43136 0.0
N4007 N 0.86203 0.90031 0.42181 0.0
C4008 C 0.79437 0.9004 0.4273 0.0
C4009 C 0.84003 0.90254 0.42224 0.0
N4010 N 0.79718 0.92757 0.4555 0.0
N4011 N 0.83587 0.88491 0.38738 0.0
H4012 H 0.87224 0.90691 0.43347 0.0
H4013 H 0.8701 0.89032 0.41094 0.0
H4014 H 0.82668 0.87724 0.37548 0.0
H4015 H 0.85175 0.88812 0.38275 0.0
H4016 H 0.78053 0.93007 0.45603 0.0
H4017 H 0.80592 0.93792 0.46556 0.0
H4018 H 0.76517 0.90202 0.44538 0.0
H4019 H 0.76308 0.88764 0.42122 0.0
C4020 C 0.16431 0.94213 0.84979 0.0
C4021 C 0.16479 0.94653 0.82727 0.0
C4022 C 0.14439 0.98003 0.83421 0.0
C4023 C 0.14041 0.97334 0.85577 0.0
N4024 N 0.14484 0.94632 0.88348 0.0
N4025 N 0.15285 0.96895 0.79763 0.0
C4026 C 0.15011 0.95404 0.8635 0.0
C4027 C 0.15446 0.9655 0.81936 0.0
N4028 N 0.17761 0.92663 0.85814 0.0
N4029 N 0.13815 1.00019 0.82787 0.0
H4030 H 0.15936 0.95853 0.78614 0.0
H4031 H 0.14341 0.98116 0.79093 0.0
H4032 H 0.13074 1.01104 0.83845 0.0
H4033 H 0.14223 1.00683 0.81296 0.0
H4034 H 0.17943 0.92401 0.87466 0.0
H4035 H 0.18852 0.91797 0.84863 0.0
H4036 H 0.14941 0.93107 0.88892 0.0
H4037 H 0.13452 0.95443 0.89401 0.0
C4038 C 0.21445 0.61209 0.4372 0.0
C4039 C 0.1915 0.61245 0.43682 0.0
C4040 C 0.19299 0.63625 0.40497 0.0
C4041 C 0.21557 0.63916 0.40807 0.0
N4042 N 0.24778 0.6306 0.42854 0.0
N4043 N 0.15863 0.62683 0.42135 0.0
C4044 C 0.22636 0.62708 0.42441 0.0
C4045 C 0.18065 0.62479 0.42075 0.0
N4046 N 0.2249 0.59713 0.44963 0.0
N4047 N 0.18333 0.64476 0.38706 0.0
H4048 H 0.14895 0.61917 0.4328 0.0
H4049 H 0.15009 0.63755 0.4116 0.0
H4050 H 0.19199 0.65331 0.37538 0.0
H4051 H 0.16733 0.64159 0.3828 0.0
H4052 H 0.24156 0.59461 0.44902 0.0
H4053 H 0.21663 0.58572 0.45889 0.0
H4054 H 0.25564 0.62455 0.44212 0.0
H4055 H 0.25743 0.64065 0.41918 0.0
C4056 C 0.87348 0.43321 0.67359 0.0
C4057 C 0.86816 0.44239 0.69417 0.0
C4058 C 0.88267 0.47701 0.68176 0.0
C4059 C 0.8877 0.4684 0.66125 0.0
N4060 N 0.88513 0.43895 0.63632 0.0
N4061 N 0.88672 0.46674 0.71843 0.0
C4062 C 0.88208 0.44667 0.65674 0.0
C4063 C 0.87754 0.46284 0.69882 0.0
N4064 N 0.87393 0.41128 0.67138 0.0
N4065 N 0.88381 0.49864 0.68545 0.0
H4066 H 0.89018 0.45411 0.72902 0.0
H4067 H 0.89485 0.48111 0.72195 0.0
H4068 H 0.88598 0.50968 0.67296 0.0
H4069 H 0.87978 0.50535 0.70039 0.0
H4070 H 0.87913 0.40335 0.65751 0.0
H4071 H 0.87223 0.40094 0.68456 0.0
H4072 H 0.87957 0.42395 0.63112 0.0
H4073 H 0.89148 0.44859 0.62402 0.0
C4074 C 0.68103 0.90294 0.60185 0.0
C4075 C 0.69141 0.91555 0.58567 0.0
C4076 C 0.72693 0.90382 0.59936 0.0
C4077 C 0.71655 0.89094 0.61539 0.0
N4078 N 0.68434 0.88328 0.63571 0.0
N4079 N 0.72392 0.93285 0.57315 0.0
C4080 C 0.69377 0.89239 0.61797 0.0
C4081 C 0.71429 0.91754 0.58581 0.0
N4082 N 0.65915 0.8998 0.60104 0.0
N4083 N 0.74874 0.90228 0.59627 0.0
H4084 H 0.71508 0.94325 0.56326 0.0
H4085 H 0.74031 0.93668 0.57403 0.0
H4086 H 0.75892 0.8939 0.60664 0.0
H4087 H 0.75668 0.90863 0.58286 0.0
H4088 H 0.651 0.8888 0.61081 0.0
H4089 H 0.64924 0.90698 0.58947 0.0
H4090 H 0.66808 0.8853 0.63964 0.0
H4091 H 0.69336 0.87544 0.64761 0.0
C4092 C 0.153 0.04624 0.67586 0.0
C4093 C 0.14002 0.0566 0.65989 0.0
C4094 C 0.15372 0.09192 0.67223 0.0
C4095 C 0.16666 0.08153 0.68815 0.0
N4096 N 0.18344 0.0488 0.70056 0.0
N4097 N 0.13304 0.08852 0.63897 0.0
C4098 C 0.16785 0.05867 0.68842 0.0
C4099 C 0.14226 0.0792 0.6567 0.0
N4100 N 0.15053 0.02472 0.67992 0.0
N4101 N 0.15111 0.11382 0.67277 0.0
H4102 H 0.12452 0.07957 0.62747 0.0
H4103 H 0.13561 0.10456 0.63461 0.0
H4104 H 0.15884 0.12373 0.68398 0.0
H4105 H 0.13994 0.12201 0.66321 0.0
H4106 H 0.15713 0.01707 0.69337 0.0
H4107 H 0.14103 0.01459 0.67051 0.0
H4108 H 0.18662 0.0323 0.69985 0.0
H4109 H 0.19471 0.05747 0.70967 0.0
C4110 C 0.31194 0.62597 0.56926 0.0
C4111 C 0.33104 0.61426 0.57475 0.0
C4112 C 0.32645 0.62754 0.6123 0.0
C4113 C 0.3056 0.63557 0.6071 0.0
N4114 N 0.27704 0.63911 0.58094 0.0
N4115 N 0.36179 0.61825 0.59848 0.0
C4116 C 0.29775 0.63318 0.58579 0.0
C4117 C 0.33986 0.61862 0.59567 0.0
N4118 N 0.30995 0.63501 0.5493 0.0
N4119 N 0.33369 0.62885 0.63309 0.0
H4120 H 0.37244 0.6167 0.58551 0.0
H4121 H 0.36949 0.62298 0.61267 0.0
H4122 H 0.32466 0.63601 0.64539 0.0
H4123 H 0.34771 0.62119 0.63844 0.0
H4124 H 0.29699 0.64487 0.54495 0.0
H4125 H 0.32326 0.6364 0.53903 0.0
H4126 H 0.27025 0.63638 0.56575 0.0
H4127 H 0.26628 0.64479 0.59264 0.0
C4128 C 0.85029 0.8707 0.5485 0.0
C4129 C 0.86615 0.88398 0.55872 0.0
C4130 C 0.85311 0.87171 0.59429 0.0
C4131 C 0.83697 0.85889 0.58406 0.0
N4132 N 0.82426 0.84143 0.55179 0.0
N4133 N 0.88659 0.89213 0.5907 0.0
C4134 C 0.83693 0.85688 0.56125 0.0
C4135 C 0.86893 0.88262 0.58144 0.0
N4136 N 0.84724 0.87191 0.52671 0.0
N4137 N 0.85254 0.87459 0.61616 0.0
H4138 H 0.89828 0.90023 0.5816 0.0
H4139 H 0.89071 0.89026 0.60689 0.0
H4140 H 0.84131 0.86695 0.62612 0.0
H4141 H 0.86222 0.88571 0.62429 0.0
H4142 H 0.83386 0.86536 0.51883 0.0
H4143 H 0.85769 0.88007 0.51645 0.0
H4144 H 0.82502 0.83754 0.53545 0.0
H4145 H 0.81445 0.83101 0.56072 0.0
C4146 C 0.85404 0.15598 0.97646 0.0
C4147 C 0.87012 0.14248 0.96699 0.0
C4148 C 0.85784 0.15361 0.9308 0.0
C4149 C 0.84154 0.16675 0.94029 0.0
N4150 N 0.82822 0.18519 0.97175 0.0
N4151 N 0.89116 0.13325 0.93571 0.0
C4152 C 0.84103 0.16947 0.96302 0.0
C4153 C 0.87335 0.14309 0.9443 0.0
N4154 N 0.85037 0.15523 0.99818 0.0
N4155 N 0.8577 0.15003 0.90902 0.0
H4156 H 0.90263 0.12543 0.9453 0.0
H4157 H 0.89561 0.13459 0.91955 0.0
H4158 H 0.84669 0.15737 0.89859 0.0
H4159 H 0.86749 0.13864 0.90145 0.0
H4160 H 0.83688 0.16209 1.00555 0.0
H4161 H 0.86035 0.14701 1.00886 0.0
H4162 H 0.82864 0.18954 0.98799 0.0
H4163 H 0.81867 0.19538 0.96231 0.0
C4164 C 0.38946 0.91203 0.32434 0.0
C4165 C 0.38868 0.91612 0.30178 0.0
C4166 C 0.41657 0.94423 0.30644 0.0
C4167 C 0.41456 0.94264 0.32929 0.0
N4168 N 0.39708 0.92619 0.36005 0.0
N4169 N 0.4008 0.93679 0.2712 0.0
C4170 C 0.40071 0.92662 0.33828 0.0
C4171 C 0.40225 0.93227 0.29275 0.0
N4172 N 0.37922 0.89424 0.33244 0.0
N4173 N 0.43241 0.95701 0.29786 0.0
H4174 H 0.39104 0.92795 0.26067 0.0
H4175 H 0.40824 0.95006 0.26401 0.0
H4176 H 0.44329 0.96565 0.30745 0.0
H4177 H 0.43609 0.95745 0.28146 0.0
H4178 H 0.38087 0.8891 0.34837 0.0
H4179 H 0.37071 0.88344 0.32268 0.0
H4180 H 0.38523 0.91665 0.36725 0.0
H4181 H 0.40466 0.93664 0.37086 0.0
C4182 C 0.171 0.35255 0.94583 0.0
C4183 C 0.19354 0.35368 0.95037 0.0
C4184 C 0.18521 0.37571 0.98239 0.0
C4185 C 0.16357 0.37827 0.97514 0.0
N4186 N 0.13606 0.37013 0.94877 0.0
N4187 N 0.22237 0.36842 0.9723 0.0
C4188 C 0.1564 0.36669 0.9567 0.0
C4189 C 0.20074 0.36549 0.96873 0.0
N4190 N 0.16359 0.33791 0.93107 0.0
N4191 N 0.19098 0.3835 1.0022 0.0
H4192 H 0.23434 0.36174 0.96253 0.0
H4193 H 0.22844 0.37897 0.98393 0.0
H4194 H 0.17995 0.39116 0.01242 0.0
H4195 H 0.20597 0.38041 1.00926 0.0
H4196 H 0.1472 0.33499 0.92838 0.0
H4197 H 0.17387 0.32712 0.92317 0.0
H4198 H 0.13081 0.36411 0.93396 0.0
H4199 H 0.12489 0.38025 0.9563 0.0
C4200 C 0.11978 0.0753 0.81222 0.0
C4201 C 0.11095 0.08218 0.83232 0.0
C4202 C 0.12718 0.11822 0.82621 0.0
C4203 C 0.13522 0.11137 0.80589 0.0
N4204 N 0.13124 0.08627 0.77651 0.0
N4205 N 0.10095 0.11241 0.85484 0.0
C4206 C 0.12892 0.09084 0.7979 0.0
C4207 C 0.113 0.10438 0.83819 0.0
N4208 N 0.12086 0.05386 0.80718 0.0
N4209 N 0.13347 0.13773 0.83432 0.0
H4210 H 0.08973 0.10303 0.86324 0.0
H4211 H 0.10039 0.12876 0.85873 0.0
H4212 H 0.14298 0.14855 0.82553 0.0
H4213 H 0.13024 0.14259 0.8501 0.0
H4214 H 0.12916 0.04809 0.79372 0.0
H4215 H 0.11558 0.04169 0.81749 0.0
H4216 H 0.12562 0.07202 0.76951 0.0
H4217 H 0.13575 0.09807 0.76543 0.0
C4218 C 0.67675 0.15552 0.04753 0.0
C4219 C 0.66035 0.14269 0.05742 0.0
C4220 C 0.67242 0.15544 0.09319 0.0
C4221 C 0.68898 0.16799 0.08329 0.0
N4222 N 0.70281 0.18473 0.05112 0.0
N4223 N 0.6388 0.13539 0.08887 0.0
C4224 C 0.68976 0.16954 0.06045 0.0
C4225 C 0.65687 0.1445 0.08002 0.0
N4226 N 0.68069 0.15367 0.02592 0.0
N4227 N 0.67233 0.15278 0.11509 0.0
H4228 H 0.62729 0.12727 0.07955 0.0
H4229 H 0.6342 0.13764 0.10489 0.0
H4230 H 0.68341 0.16034 0.12531 0.0
H4231 H 0.66231 0.14184 0.12304 0.0
H4232 H 0.6944 0.15997 0.01843 0.0
H4233 H 0.67072 0.14509 0.0155 0.0
H4234 H 0.7026 0.18827 0.03468 0.0
H4235 H 0.71234 0.19532 0.06016 0.0
C4236 C 0.42103 0.10589 0.19815 0.0
C4237 C 0.41197 0.09196 0.18227 0.0
C4238 C 0.37748 0.11148 0.18626 0.0
C4239 C 0.38496 0.11999 0.20617 0.0
N4240 N 0.41645 0.14076 0.2151 0.0
N4241 N 0.38218 0.08464 0.15802 0.0
C4242 C 0.40768 0.12193 0.20787 0.0
C4243 C 0.39043 0.09599 0.17505 0.0
N4244 N 0.44202 0.10359 0.20453 0.0
N4245 N 0.35862 0.11912 0.17773 0.0
H4246 H 0.39158 0.07426 0.14862 0.0
H4247 H 0.36589 0.08496 0.15371 0.0
H4248 H 0.34997 0.13148 0.18529 0.0
H4249 H 0.35289 0.1149 0.16249 0.0
H4250 H 0.4485 0.1124 0.21736 0.0
H4251 H 0.45234 0.09203 0.19793 0.0
H4252 H 0.43305 0.14387 0.21467 0.0
H4253 H 0.40666 0.15388 0.2192 0.0
C4254 C 0.62892 0.4288 0.22373 0.0
C4255 C 0.64057 0.41156 0.21395 0.0
C4256 C 0.62576 0.42203 0.17853 0.0
C4257 C 0.61376 0.43898 0.18843 0.0
N4258 N 0.59898 0.45398 0.22111 0.0
N4259 N 0.64538 0.38833 0.18321 0.0
C4260 C 0.61374 0.44084 0.21127 0.0
C4261 C 0.63722 0.40696 0.19174 0.0
N4262 N 0.63309 0.43454 0.2446 0.0
N4263 N 0.62751 0.42113 0.15656 0.0
H4264 H 0.65393 0.37716 0.1925 0.0
H4265 H 0.6419 0.38304 0.16762 0.0
H4266 H 0.61987 0.43203 0.14627 0.0
H4267 H 0.63799 0.41067 0.14857 0.0
H4268 H 0.62721 0.44868 0.25155 0.0
H4269 H 0.64362 0.42604 0.25454 0.0
H4270 H 0.59677 0.45448 0.23778 0.0
H4271 H 0.58739 0.46267 0.21247 0.0
loop_
_geom_bond_atom_site_label_1
_geom_bond_atom_site_label_2
_geom_bond_distance
_geom_bond_site_symmetry_2
_ccdc_geom_bond_type
C0 C1 1.443 . S
C0 N4 1.376 . S
C0 C38 1.389 . S
C1 C0 1.443 . S
C1 C2 1.340 . S
C1 H41 0.951 . S
C2 C1 1.340 . S
C2 C3 1.439 . S
C2 H42 0.950 . S
C3 C2 1.439 . S
C3 N4 1.374 . S
C3 C37 1.395 . S
N4 C0 1.376 . S
N4 C3 1.374 . S
N4 Co5 2.008 . S
Co5 N4 2.008 . S
Co5 N6 1.995 . S
Co5 N11 2.008 . S
Co5 N16 1.995 . S
Co5 N21 2.282 . S
Co5 N27 2.282 . S
N6 Co5 1.995 . S
N6 C7 1.376 . S
N6 C10 1.383 . S
C7 N6 1.376 . S
C7 C8 1.446 . S
C7 C37 1.391 . S
C8 C7 1.446 . S
C8 C9 1.339 . S
C8 H43 0.949 . S
C9 C8 1.339 . S
C9 C10 1.439 . S
C9 H44 0.950 . S
C10 N6 1.383 . S
C10 C9 1.439 . S
C10 C39 1.392 . S
N11 Co5 2.008 . S
N11 C12 1.376 . S
N11 C15 1.374 . S
C12 N11 1.376 . S
C12 C13 1.443 . S
C12 C39 1.389 . S
C13 C12 1.443 . S
C13 C14 1.340 . S
C13 H45 0.951 . S
C14 C13 1.340 . S
C14 C15 1.439 . S
C14 H46 0.950 . S
C15 N11 1.374 . S
C15 C14 1.439 . S
C15 C40 1.395 . S
N16 Co5 1.995 . S
N16 C17 1.376 . S
N16 C20 1.383 . S
C17 N16 1.376 . S
C17 C18 1.446 . S
C17 C40 1.391 . S
C18 C17 1.446 . S
C18 C19 1.339 . S
C18 H47 0.949 . S
C19 C18 1.339 . S
C19 C20 1.439 . S
C19 H48 0.950 . S
C20 N16 1.383 . S
C20 C19 1.439 . S
C20 C38 1.392 . S
N21 Co5 2.282 . S
N21 C24 1.332 . S
N21 C26 1.332 . S
C22 C23 1.386 . S
C22 C25 1.388 . S
C23 C22 1.386 . S
C23 C24 1.382 . S
C23 H49 0.950 . S
C24 N21 1.332 . S
C24 C23 1.382 . S
C24 H35 0.952 . S
C25 C22 1.388 . S
C25 C26 1.382 . S
C25 H50 0.950 . S
C26 N21 1.332 . S
C26 C25 1.382 . S
C26 H36 0.948 . S
N27 Co5 2.282 . S
N27 C31 1.332 . S
N27 C32 1.332 . S
C28 C29 1.388 . S
C28 C32 1.382 . S
C28 H51 0.950 . S
C29 C28 1.388 . S
C29 C30 1.386 . S
C30 C29 1.386 . S
C30 C31 1.382 . S
C30 H52 0.950 . S
C31 N27 1.332 . S
C31 C30 1.382 . S
C31 H33 0.952 . S
C32 N27 1.332 . S
C32 C28 1.382 . S
C32 H34 0.948 . S
H33 C31 0.952 . S
H34 C32 0.948 . S
H35 C24 0.952 . S
H36 C26 0.948 . S
C37 C3 1.395 . S
C37 C7 1.391 . S
C38 C0 1.389 . S
C38 C20 1.392 . S
C39 C10 1.392 . S
C39 C12 1.389 . S
C40 C15 1.395 . S
C40 C17 1.391 . S
H41 C1 0.951 . S
H42 C2 0.950 . S
H43 C8 0.949 . S
H44 C9 0.950 . S
H45 C13 0.951 . S
H46 C14 0.950 . S
H47 C18 0.949 . S
H48 C19 0.950 . S
H49 C23 0.950 . S
H50 C25 0.950 . S
H51 C28 0.950 . S
H52 C30 0.950 . S
C53 C54 1.443 . S
C53 N57 1.376 . S
C53 C91 1.389 . S
C54 C53 1.443 . S
C54 C55 1.340 . S
C54 H94 0.951 . S
C55 C54 1.340 . S
C55 C56 1.439 . S
C55 H95 0.950 . S
C56 C55 1.439 . S
C56 N57 1.374 . S
C56 C90 1.395 . S
N57 C53 1.376 . S
N57 C56 1.374 . S
N57 Co58 2.008 . S
Co58 N57 2.008 . S
Co58 N59 1.995 . S
Co58 N64 2.008 . S
Co58 N69 1.995 . S
Co58 N74 2.282 . S
Co58 N80 2.282 . S
N59 Co58 1.995 . S
N59 C60 1.376 . S
N59 C63 1.383 . S
C60 N59 1.376 . S
C60 C61 1.446 . S
C60 C90 1.391 . S
C61 C60 1.446 . S
C61 C62 1.339 . S
C61 H96 0.949 . S
C62 C61 1.339 . S
C62 C63 1.439 . S
C62 H97 0.950 . S
C63 N59 1.383 . S
C63 C62 1.439 . S
C63 C92 1.392 . S
N64 Co58 2.008 . S
N64 C65 1.376 . S
N64 C68 1.374 . S
C65 N64 1.376 . S
C65 C66 1.443 . S
C65 C92 1.389 . S
C66 C65 1.443 . S
C66 C67 1.340 . S
C66 H98 0.951 . S
C67 C66 1.340 . S
C67 C68 1.439 . S
C67 H99 0.950 . S
C68 N64 1.374 . S
C68 C67 1.439 . S
C68 C93 1.395 . S
N69 Co58 1.995 . S
N69 C70 1.376 . S
N69 C73 1.383 . S
C70 N69 1.376 . S
C70 C71 1.446 . S
C70 C93 1.391 . S
C71 C70 1.446 . S
C71 C72 1.339 . S
C71 H100 0.949 1_556 S
C72 C71 1.339 . S
C72 C73 1.439 . S
C72 H101 0.926 1_556 S
C73 N69 1.383 . S
C73 C72 1.439 . S
C73 C91 1.392 . S
N74 Co58 2.282 . S
N74 C77 1.332 . S
N74 C79 1.332 . S
C75 C76 1.386 . S
C75 C78 1.388 . S
C76 C75 1.386 . S
C76 C77 1.382 . S
C76 H102 0.950 . S
C77 N74 1.332 . S
C77 C76 1.382 . S
C77 H88 0.952 . S
C78 C75 1.388 . S
C78 C79 1.382 . S
C78 H103 0.950 . S
C79 N74 1.332 . S
C79 C78 1.382 . S
C79 H89 0.948 . S
N80 Co58 2.282 . S
N80 C84 1.332 . S
N80 C85 1.332 . S
C81 C82 1.388 . S
C81 C85 1.382 . S
C81 H104 0.950 . S
C82 C81 1.388 . S
C82 C83 1.386 . S
C83 C82 1.386 . S
C83 C84 1.382 . S
C83 H105 0.950 . S
C84 N80 1.332 . S
C84 C83 1.382 . S
C84 H86 0.952 . S
C85 N80 1.332 . S
C85 C81 1.382 . S
C85 H87 0.948 . S
H86 C84 0.952 . S
H87 C85 0.948 . S
H88 C77 0.952 . S
H89 C79 0.948 . S
C90 C56 1.395 . S
C90 C60 1.391 . S
C91 C53 1.389 . S
C91 C73 1.392 . S
C92 C63 1.392 . S
C92 C65 1.389 . S
C93 C68 1.395 . S
C93 C70 1.391 . S
H94 C54 0.951 . S
H95 C55 0.950 . S
H96 C61 0.949 . S
H97 C62 0.950 . S
H98 C66 0.951 . S
H99 C67 0.950 . S
H100 C71 0.949 1_554 S
H101 C72 0.926 1_554 S
H102 C76 0.950 . S
H103 C78 0.950 . S
H104 C81 0.950 . S
H105 C83 0.950 . S
C106 C107 1.443 . S
C106 N110 1.376 . S
C106 C144 1.389 . S
C107 C106 1.443 . S
C107 C108 1.340 . S
C107 H147 0.951 . S
C108 C107 1.340 . S
C108 C109 1.439 . S
C108 H148 0.950 . S
C109 C108 1.439 . S
C109 N110 1.374 . S
C109 C143 1.395 . S
N110 C106 1.376 . S
N110 C109 1.374 . S
N110 Co111 2.008 . S
Co111 N110 2.008 . S
Co111 N112 1.995 . S
Co111 N117 2.008 . S
Co111 N122 1.995 . S
Co111 N127 2.282 . S
Co111 N133 2.282 . S
N112 Co111 1.995 . S
N112 C113 1.376 . S
N112 C116 1.383 . S
C113 N112 1.376 . S
C113 C114 1.446 . S
C113 C143 1.391 . S
C114 C113 1.446 . S
C114 C115 1.339 . S
C114 H149 0.949 . S
C115 C114 1.339 . S
C115 C116 1.439 . S
C115 H150 0.950 . S
C116 N112 1.383 . S
C116 C115 1.439 . S
C116 C145 1.392 . S
N117 Co111 2.008 . S
N117 C118 1.376 . S
N117 C121 1.374 . S
C118 N117 1.376 . S
C118 C119 1.443 . S
C118 C145 1.389 . S
C119 C118 1.443 . S
C119 C120 1.340 . S
C119 H151 0.951 . S
C120 C119 1.340 . S
C120 C121 1.439 . S
C120 H152 0.950 . S
C121 N117 1.374 . S
C121 C120 1.439 . S
C121 C146 1.395 . S
N122 Co111 1.995 . S
N122 C123 1.376 . S
N122 C126 1.383 . S
C123 N122 1.376 . S
C123 C124 1.446 . S
C123 C146 1.391 . S
C124 C123 1.446 . S
C124 C125 1.339 . S
C124 H153 0.949 . S
C125 C124 1.339 . S
C125 C126 1.439 . S
C125 H154 0.950 . S
C126 N122 1.383 . S
C126 C125 1.439 . S
C126 C144 1.392 . S
N127 Co111 2.282 . S
N127 C130 1.332 . S
N127 C132 1.332 . S
C128 C129 1.386 . S
C128 C131 1.388 . S
C129 C128 1.386 . S
C129 C130 1.382 . S
C129 H155 0.950 . S
C130 N127 1.332 . S
C130 C129 1.382 . S
C130 H141 0.952 . S
C131 C128 1.388 . S
C131 C132 1.382 . S
C131 H156 0.950 . S
C132 N127 1.332 . S
C132 C131 1.382 . S
C132 H142 0.948 . S
N133 Co111 2.282 . S
N133 C137 1.332 . S
N133 C138 1.332 . S
C134 C135 1.388 . S
C134 C138 1.382 . S
C134 H157 0.950 . S
C135 C134 1.388 . S
C135 C136 1.386 . S
C136 C135 1.386 . S
C136 C137 1.382 . S
C136 H158 0.950 . S
C137 N133 1.332 . S
C137 C136 1.382 . S
C137 H139 0.952 . S
C138 N133 1.332 . S
C138 C134 1.382 . S
C138 H140 0.948 . S
H139 C137 0.952 . S
H140 C138 0.948 . S
H141 C130 0.952 . S
H142 C132 0.948 . S
C143 C109 1.395 . S
C143 C113 1.391 . S
C144 C106 1.389 . S
C144 C126 1.392 . S
C145 C116 1.392 . S
C145 C118 1.389 . S
C146 C121 1.395 . S
C146 C123 1.391 . S
H147 C107 0.951 . S
H148 C108 0.950 . S
H149 C114 0.949 . S
H150 C115 0.950 . S
H151 C119 0.951 . S
H152 C120 0.950 . S
H153 C124 0.949 . S
H154 C125 0.950 . S
H155 C129 0.950 . S
H156 C131 0.950 . S
H157 C134 0.950 . S
H158 C136 0.950 . S
C159 C160 1.443 . S
C159 N163 1.376 . S
C159 C197 1.389 . S
C160 C159 1.443 . S
C160 C161 1.340 . S
C160 H200 0.951 . S
C161 C160 1.340 . S
C161 C162 1.439 . S
C161 H201 0.950 . S
C162 C161 1.439 . S
C162 N163 1.374 . S
C162 C196 1.395 . S
N163 C159 1.376 . S
N163 C162 1.374 . S
N163 Co164 2.008 . S
Co164 N163 2.008 . S
Co164 N165 1.995 . S
Co164 N170 2.008 . S
Co164 N175 1.995 . S
Co164 N180 2.282 . S
Co164 N186 2.282 . S
N165 Co164 1.995 . S
N165 C166 1.376 . S
N165 C169 1.383 . S
C166 N165 1.376 . S
C166 C167 1.446 . S
C166 C196 1.391 . S
C167 C166 1.446 . S
C167 C168 1.339 . S
C167 H202 0.949 . S
C168 C167 1.339 . S
C168 C169 1.439 . S
C168 H203 0.950 . S
C169 N165 1.383 . S
C169 C168 1.439 . S
C169 C198 1.392 . S
N170 Co164 2.008 . S
N170 C171 1.376 . S
N170 C174 1.374 . S
C171 N170 1.376 . S
C171 C172 1.443 . S
C171 C198 1.389 . S
C172 C171 1.443 . S
C172 C173 1.340 . S
C172 H204 0.951 . S
C173 C172 1.340 . S
C173 C174 1.439 . S
C173 H205 0.950 . S
C174 N170 1.374 . S
C174 C173 1.439 . S
C174 C199 1.395 . S
N175 Co164 1.995 . S
N175 C176 1.376 . S
N175 C179 1.383 . S
C176 N175 1.376 . S
C176 C177 1.446 . S
C176 C199 1.391 . S
C177 C176 1.446 . S
C177 C178 1.339 . S
C177 H206 0.949 1_556 S
C178 C177 1.339 . S
C178 C179 1.439 . S
C178 H207 0.927 1_556 S
C179 N175 1.383 . S
C179 C178 1.439 . S
C179 C197 1.392 . S
N180 Co164 2.282 . S
N180 C183 1.332 . S
N180 C185 1.332 . S
C181 C182 1.386 . S
C181 C184 1.388 . S
C182 C181 1.386 . S
C182 C183 1.382 . S
C182 H208 0.950 . S
C183 N180 1.332 . S
C183 C182 1.382 . S
C183 H194 0.952 . S
C184 C181 1.388 . S
C184 C185 1.382 . S
C184 H209 0.950 . S
C185 N180 1.332 . S
C185 C184 1.382 . S
C185 H195 0.948 . S
N186 Co164 2.282 . S
N186 C190 1.332 . S
N186 C191 1.332 . S
C187 C188 1.388 . S
C187 C191 1.382 . S
C187 H210 0.950 . S
C188 C187 1.388 . S
C188 C189 1.386 . S
C189 C188 1.386 . S
C189 C190 1.382 . S
C189 H211 0.950 . S
C190 N186 1.332 . S
C190 C189 1.382 . S
C190 H192 0.952 . S
C191 N186 1.332 . S
C191 C187 1.382 . S
C191 H193 0.948 . S
H192 C190 0.952 . S
H193 C191 0.948 . S
H194 C183 0.952 . S
H195 C185 0.948 . S
C196 C162 1.395 . S
C196 C166 1.391 . S
C197 C159 1.389 . S
C197 C179 1.392 . S
C198 C169 1.392 . S
C198 C171 1.389 . S
C199 C174 1.395 . S
C199 C176 1.391 . S
H200 C160 0.951 . S
H201 C161 0.950 . S
H202 C167 0.949 . S
H203 C168 0.950 . S
H204 C172 0.951 . S
H205 C173 0.950 . S
H206 C177 0.949 1_554 S
H207 C178 0.927 1_554 S
H208 C182 0.950 . S
H209 C184 0.950 . S
H210 C187 0.950 . S
H211 C189 0.950 . S
C212 C213 1.443 . S
C212 N216 1.376 . S
C212 C250 1.389 . S
C213 C212 1.443 . S
C213 C214 1.340 . S
C213 H253 0.951 . S
C214 C213 1.340 . S
C214 C215 1.439 . S
C214 H254 0.950 . S
C215 C214 1.439 . S
C215 N216 1.374 . S
C215 C249 1.395 . S
N216 C212 1.376 . S
N216 C215 1.374 . S
N216 Co217 2.008 . S
Co217 N216 2.008 . S
Co217 N218 1.995 . S
Co217 N223 2.008 . S
Co217 N228 1.995 . S
Co217 N233 2.282 . S
Co217 N239 2.282 . S
N218 Co217 1.995 . S
N218 C219 1.376 . S
N218 C222 1.383 . S
C219 N218 1.376 . S
C219 C220 1.446 . S
C219 C249 1.391 . S
C220 C219 1.446 . S
C220 C221 1.339 . S
C220 H255 0.949 . S
C221 C220 1.339 . S
C221 C222 1.439 . S
C221 H256 0.950 . S
C222 N218 1.383 . S
C222 C221 1.439 . S
C222 C251 1.392 . S
N223 Co217 2.008 . S
N223 C224 1.376 . S
N223 C227 1.374 . S
C224 N223 1.376 . S
C224 C225 1.443 . S
C224 C251 1.389 . S
C225 C224 1.443 . S
C225 C226 1.340 . S
C225 H257 0.951 . S
C226 C225 1.340 . S
C226 C227 1.439 . S
C226 H258 0.950 . S
C227 N223 1.374 . S
C227 C226 1.439 . S
C227 C252 1.395 . S
N228 Co217 1.995 . S
N228 C229 1.376 . S
N228 C232 1.383 . S
C229 N228 1.376 . S
C229 C230 1.446 . S
C229 C252 1.391 . S
C230 C229 1.446 . S
C230 C231 1.339 . S
C230 H259 0.949 . S
C231 C230 1.339 . S
C231 C232 1.439 . S
C231 H260 0.950 . S
C232 N228 1.383 . S
C232 C231 1.439 . S
C232 C250 1.392 . S
N233 Co217 2.282 . S
N233 C236 1.332 . S
N233 C238 1.332 . S
C234 C235 1.386 . S
C234 C237 1.388 . S
C235 C234 1.386 . S
C235 C236 1.382 . S
C235 H261 0.950 . S
C236 N233 1.332 . S
C236 C235 1.382 . S
C236 H247 0.952 . S
C237 C234 1.388 . S
C237 C238 1.382 . S
C237 H262 0.950 . S
C238 N233 1.332 . S
C238 C237 1.382 . S
C238 H248 0.948 . S
N239 Co217 2.282 . S
N239 C243 1.332 . S
N239 C244 1.332 . S
C240 C241 1.388 . S
C240 C244 1.382 . S
C240 H263 0.950 . S
C241 C240 1.388 . S
C241 C242 1.386 . S
C242 C241 1.386 . S
C242 C243 1.382 . S
C242 H264 0.950 . S
C243 N239 1.332 . S
C243 C242 1.382 . S
C243 H245 0.952 . S
C244 N239 1.332 . S
C244 C240 1.382 . S
C244 H246 0.948 . S
H245 C243 0.952 . S
H246 C244 0.948 . S
H247 C236 0.952 . S
H248 C238 0.948 . S
C249 C215 1.395 . S
C249 C219 1.391 . S
C250 C212 1.389 . S
C250 C232 1.392 . S
C251 C222 1.392 . S
C251 C224 1.389 . S
C252 C227 1.395 . S
C252 C229 1.391 . S
H253 C213 0.951 . S
H254 C214 0.950 . S
H255 C220 0.949 . S
H256 C221 0.950 . S
H257 C225 0.951 . S
H258 C226 0.950 . S
H259 C230 0.949 . S
H260 C231 0.950 . S
H261 C235 0.950 . S
H262 C237 0.950 . S
H263 C240 0.950 . S
H264 C242 0.950 . S
C265 C266 1.443 . S
C265 N269 1.376 . S
C265 C303 1.389 . S
C266 C265 1.443 . S
C266 C267 1.340 . S
C266 H306 0.951 . S
C267 C266 1.340 . S
C267 C268 1.439 . S
C267 H307 0.950 . S
C268 C267 1.439 . S
C268 N269 1.374 . S
C268 C302 1.395 . S
N269 C265 1.376 . S
N269 C268 1.374 . S
N269 Co270 2.008 1_655 S
Co270 N269 2.008 1_455 S
Co270 N271 1.995 . S
Co270 N276 2.008 . S
Co270 N281 1.995 1_455 S
Co270 N286 2.282 1_455 S
Co270 N292 2.282 . S
N271 Co270 1.995 . S
N271 C272 1.376 . S
N271 C275 1.383 . S
C272 N271 1.376 . S
C272 C273 1.446 . S
C272 C302 1.391 1_455 S
C273 C272 1.446 . S
C273 C274 1.339 . S
C273 H308 0.949 . S
C274 C273 1.339 . S
C274 C275 1.439 . S
C274 H309 0.950 . S
C275 N271 1.383 . S
C275 C274 1.439 . S
C275 C304 1.392 . S
N276 Co270 2.008 . S
N276 C277 1.376 . S
N276 C280 1.374 . S
C277 N276 1.376 . S
C277 C278 1.443 . S
C277 C304 1.389 . S
C278 C277 1.443 . S
C278 C279 1.340 . S
C278 H310 0.951 . S
C279 C278 1.340 . S
C279 C280 1.439 . S
C279 H311 0.950 . S
C280 N276 1.374 . S
C280 C279 1.439 . S
C280 C305 1.395 . S
N281 Co270 1.995 1_655 S
N281 C282 1.376 1_655 S
N281 C285 1.383 . S
C282 N281 1.376 1_455 S
C282 C283 1.446 1_455 S
C282 C305 1.391 . S
C283 C282 1.446 1_655 S
C283 C284 1.339 . S
C283 H312 0.949 1_554 S
C284 C283 1.339 . S
C284 C285 1.439 . S
C284 H313 0.928 1_554 S
C285 N281 1.383 . S
C285 C284 1.439 . S
C285 C303 1.392 . S
N286 Co270 2.282 1_655 S
N286 C289 1.332 . S
N286 C291 1.332 . S
C287 C288 1.386 . S
C287 C290 1.388 . S
C288 C287 1.386 . S
C288 C289 1.382 . S
C288 H314 0.950 . S
C289 N286 1.332 . S
C289 C288 1.382 . S
C289 H300 0.952 . S
C290 C287 1.388 . S
C290 C291 1.382 . S
C290 H315 0.950 . S
C291 N286 1.332 . S
C291 C290 1.382 . S
C291 H301 0.948 . S
N292 Co270 2.282 . S
N292 C296 1.332 . S
N292 C297 1.332 . S
C293 C294 1.388 . S
C293 C297 1.382 . S
C293 H316 0.950 . S
C294 C293 1.388 . S
C294 C295 1.386 . S
C295 C294 1.386 . S
C295 C296 1.382 . S
C295 H317 0.950 . S
C296 N292 1.332 . S
C296 C295 1.382 . S
C296 H298 0.952 . S
C297 N292 1.332 . S
C297 C293 1.382 . S
C297 H299 0.948 . S
H298 C296 0.952 . S
H299 C297 0.948 . S
H300 C289 0.952 . S
H301 C291 0.948 . S
C302 C268 1.395 . S
C302 C272 1.391 1_655 S
C303 C265 1.389 . S
C303 C285 1.392 . S
C304 C275 1.392 . S
C304 C277 1.389 . S
C305 C280 1.395 . S
C305 C282 1.391 . S
H306 C266 0.951 . S
H307 C267 0.950 . S
H308 C273 0.949 . S
H309 C274 0.950 . S
H310 C278 0.951 . S
H311 C279 0.950 . S
H312 C283 0.949 1_556 S
H313 C284 0.928 1_556 S
H314 C288 0.950 . S
H315 C290 0.950 . S
H316 C293 0.950 . S
H317 C295 0.950 . S
C318 C319 1.443 . S
C318 N322 1.376 . S
C318 C356 1.389 . S
C319 C318 1.443 . S
C319 C320 1.340 . S
C319 H359 0.951 . S
C320 C319 1.340 . S
C320 C321 1.439 . S
C320 H360 0.950 . S
C321 C320 1.439 . S
C321 N322 1.374 . S
C321 C355 1.395 . S
N322 C318 1.376 . S
N322 C321 1.374 . S
N322 Co323 2.008 . S
Co323 N322 2.008 . S
Co323 N324 1.995 . S
Co323 N329 2.008 . S
Co323 N334 1.995 . S
Co323 N339 2.282 . S
Co323 N345 2.282 . S
N324 Co323 1.995 . S
N324 C325 1.376 . S
N324 C328 1.383 . S
C325 N324 1.376 . S
C325 C326 1.446 . S
C325 C355 1.391 . S
C326 C325 1.446 . S
C326 C327 1.339 . S
C326 H361 0.949 . S
C327 C326 1.339 . S
C327 C328 1.439 . S
C327 H362 0.950 . S
C328 N324 1.383 . S
C328 C327 1.439 . S
C328 C357 1.392 . S
N329 Co323 2.008 . S
N329 C330 1.376 . S
N329 C333 1.374 . S
C330 N329 1.376 . S
C330 C331 1.443 . S
C330 C357 1.389 . S
C331 C330 1.443 . S
C331 C332 1.340 . S
C331 H363 0.951 . S
C332 C331 1.340 . S
C332 C333 1.439 . S
C332 H364 0.950 . S
C333 N329 1.374 . S
C333 C332 1.439 . S
C333 C358 1.395 . S
N334 Co323 1.995 . S
N334 C335 1.376 . S
N334 C338 1.383 . S
C335 N334 1.376 . S
C335 C336 1.446 . S
C335 C358 1.391 . S
C336 C335 1.446 . S
C336 C337 1.339 . S
C336 H365 0.949 . S
C337 C336 1.339 . S
C337 C338 1.439 . S
C337 H366 0.950 . S
C338 N334 1.383 . S
C338 C337 1.439 . S
C338 C356 1.392 . S
N339 Co323 2.282 . S
N339 C342 1.332 . S
N339 C344 1.332 . S
C340 C341 1.386 . S
C340 C343 1.388 . S
C341 C340 1.386 . S
C341 C342 1.382 . S
C341 H367 0.950 . S
C342 N339 1.332 . S
C342 C341 1.382 . S
C342 H353 0.952 . S
C343 C340 1.388 . S
C343 C344 1.382 . S
C343 H368 0.950 . S
C344 N339 1.332 . S
C344 C343 1.382 . S
C344 H354 0.948 . S
N345 Co323 2.282 . S
N345 C349 1.332 . S
N345 C350 1.332 . S
C346 C347 1.388 . S
C346 C350 1.382 . S
C346 H369 0.950 . S
C347 C346 1.388 . S
C347 C348 1.386 . S
C348 C347 1.386 . S
C348 C349 1.382 . S
C348 H370 0.950 . S
C349 N345 1.332 . S
C349 C348 1.382 . S
C349 H351 0.952 . S
C350 N345 1.332 . S
C350 C346 1.382 . S
C350 H352 0.948 . S
H351 C349 0.952 . S
H352 C350 0.948 . S
H353 C342 0.952 . S
H354 C344 0.948 . S
C355 C321 1.395 . S
C355 C325 1.391 . S
C356 C318 1.389 . S
C356 C338 1.392 . S
C357 C328 1.392 . S
C357 C330 1.389 . S
C358 C333 1.395 . S
C358 C335 1.391 . S
H359 C319 0.951 . S
H360 C320 0.950 . S
H361 C326 0.949 . S
H362 C327 0.950 . S
H363 C331 0.951 . S
H364 C332 0.950 . S
H365 C336 0.949 . S
H366 C337 0.950 . S
H367 C341 0.950 . S
H368 C343 0.950 . S
H369 C346 0.950 . S
H370 C348 0.950 . S
C371 C372 1.443 . S
C371 N375 1.376 . S
C371 C409 1.389 . S
C372 C371 1.443 . S
C372 C373 1.340 . S
C372 H412 0.951 . S
C373 C372 1.340 . S
C373 C374 1.439 . S
C373 H413 0.950 . S
C374 C373 1.439 . S
C374 N375 1.374 . S
C374 C408 1.395 . S
N375 C371 1.376 . S
N375 C374 1.374 . S
N375 Co376 2.008 1_455 S
Co376 N375 2.008 1_655 S
Co376 N377 1.995 . S
Co376 N382 2.008 . S
Co376 N387 1.995 1_655 S
Co376 N392 2.282 1_655 S
Co376 N398 2.282 . S
N377 Co376 1.995 . S
N377 C378 1.376 . S
N377 C381 1.383 . S
C378 N377 1.376 . S
C378 C379 1.446 . S
C378 C408 1.391 1_655 S
C379 C378 1.446 . S
C379 C380 1.339 . S
C379 H414 0.949 . S
C380 C379 1.339 . S
C380 C381 1.439 . S
C380 H415 0.950 . S
C381 N377 1.383 . S
C381 C380 1.439 . S
C381 C410 1.392 . S
N382 Co376 2.008 . S
N382 C383 1.376 . S
N382 C386 1.374 . S
C383 N382 1.376 . S
C383 C384 1.443 . S
C383 C410 1.389 . S
C384 C383 1.443 . S
C384 C385 1.340 . S
C384 H416 0.951 . S
C385 C384 1.340 . S
C385 C386 1.439 . S
C385 H417 0.950 . S
C386 N382 1.374 . S
C386 C385 1.439 . S
C386 C411 1.395 . S
N387 Co376 1.995 1_455 S
N387 C388 1.376 1_455 S
N387 C391 1.383 . S
C388 N387 1.376 1_655 S
C388 C389 1.446 1_655 S
C388 C411 1.391 . S
C389 C388 1.446 1_455 S
C389 C390 1.339 . S
C389 H418 0.949 1_554 S
C390 C389 1.339 . S
C390 C391 1.439 . S
C390 H419 0.928 1_554 S
C391 N387 1.383 . S
C391 C390 1.439 . S
C391 C409 1.392 . S
N392 Co376 2.282 1_455 S
N392 C395 1.332 . S
N392 C397 1.332 . S
C393 C394 1.386 . S
C393 C396 1.388 . S
C394 C393 1.386 . S
C394 C395 1.382 . S
C394 H420 0.950 . S
C395 N392 1.332 . S
C395 C394 1.382 . S
C395 H406 0.952 . S
C396 C393 1.388 . S
C396 C397 1.382 . S
C396 H421 0.950 . S
C397 N392 1.332 . S
C397 C396 1.382 . S
C397 H407 0.948 . S
N398 Co376 2.282 . S
N398 C402 1.332 . S
N398 C403 1.332 . S
C399 C400 1.388 . S
C399 C403 1.382 . S
C399 H422 0.950 . S
C400 C399 1.388 . S
C400 C401 1.386 . S
C401 C400 1.386 . S
C401 C402 1.382 . S
C401 H423 0.950 . S
C402 N398 1.332 . S
C402 C401 1.382 . S
C402 H404 0.952 . S
C403 N398 1.332 . S
C403 C399 1.382 . S
C403 H405 0.948 . S
H404 C402 0.952 . S
H405 C403 0.948 . S
H406 C395 0.952 . S
H407 C397 0.948 . S
C408 C374 1.395 . S
C408 C378 1.391 1_455 S
C409 C371 1.389 . S
C409 C391 1.392 . S
C410 C381 1.392 . S
C410 C383 1.389 . S
C411 C386 1.395 . S
C411 C388 1.391 . S
H412 C372 0.951 . S
H413 C373 0.950 . S
H414 C379 0.949 . S
H415 C380 0.950 . S
H416 C384 0.951 . S
H417 C385 0.950 . S
H418 C389 0.949 1_556 S
H419 C390 0.928 1_556 S
H420 C394 0.950 . S
H421 C396 0.950 . S
H422 C399 0.950 . S
H423 C401 0.950 . S
C424 C425 1.443 . S
C424 N428 1.376 . S
C424 C462 1.389 . S
C425 C424 1.443 . S
C425 C426 1.340 . S
C425 H465 0.951 . S
C426 C425 1.340 . S
C426 C427 1.439 . S
C426 H466 0.950 . S
C427 C426 1.439 . S
C427 N428 1.374 . S
C427 C461 1.395 . S
N428 C424 1.376 . S
N428 C427 1.374 . S
N428 Co429 2.008 . S
Co429 N428 2.008 . S
Co429 N430 1.995 . S
Co429 N435 2.008 . S
Co429 N440 1.995 . S
Co429 N445 2.282 . S
Co429 N451 2.282 . S
N430 Co429 1.995 . S
N430 C431 1.376 . S
N430 C434 1.383 . S
C431 N430 1.376 . S
C431 C432 1.446 . S
C431 C461 1.391 . S
C432 C431 1.446 . S
C432 C433 1.339 . S
C432 H467 0.949 . S
C433 C432 1.339 . S
C433 C434 1.439 . S
C433 H468 0.950 . S
C434 N430 1.383 . S
C434 C433 1.439 . S
C434 C463 1.392 . S
N435 Co429 2.008 . S
N435 C436 1.376 . S
N435 C439 1.374 . S
C436 N435 1.376 . S
C436 C437 1.443 . S
C436 C463 1.389 . S
C437 C436 1.443 . S
C437 C438 1.340 . S
C437 H469 0.951 . S
C438 C437 1.340 . S
C438 C439 1.439 . S
C438 H470 0.950 . S
C439 N435 1.374 . S
C439 C438 1.439 . S
C439 C464 1.395 . S
N440 Co429 1.995 . S
N440 C441 1.376 . S
N440 C444 1.383 . S
C441 N440 1.376 . S
C441 C442 1.446 . S
C441 C464 1.391 . S
C442 C441 1.446 . S
C442 C443 1.339 . S
C442 H471 0.949 . S
C443 C442 1.339 . S
C443 C444 1.439 . S
C443 H472 0.950 . S
C444 N440 1.383 . S
C444 C443 1.439 . S
C444 C462 1.392 . S
N445 Co429 2.282 . S
N445 C448 1.332 . S
N445 C450 1.332 . S
C446 C447 1.386 . S
C446 C449 1.388 . S
C447 C446 1.386 . S
C447 C448 1.382 . S
C447 H473 0.950 . S
C448 N445 1.332 . S
C448 C447 1.382 . S
C448 H459 0.952 . S
C449 C446 1.388 . S
C449 C450 1.382 . S
C449 H474 0.950 . S
C450 N445 1.332 . S
C450 C449 1.382 . S
C450 H460 0.948 . S
N451 Co429 2.282 . S
N451 C455 1.332 . S
N451 C456 1.332 . S
C452 C453 1.388 . S
C452 C456 1.382 . S
C452 H475 0.950 . S
C453 C452 1.388 . S
C453 C454 1.386 . S
C454 C453 1.386 . S
C454 C455 1.382 . S
C454 H476 0.950 . S
C455 N451 1.332 . S
C455 C454 1.382 . S
C455 H457 0.952 . S
C456 N451 1.332 . S
C456 C452 1.382 . S
C456 H458 0.948 . S
H457 C455 0.952 . S
H458 C456 0.948 . S
H459 C448 0.952 . S
H460 C450 0.948 . S
C461 C427 1.395 . S
C461 C431 1.391 . S
C462 C424 1.389 . S
C462 C444 1.392 . S
C463 C434 1.392 . S
C463 C436 1.389 . S
C464 C439 1.395 . S
C464 C441 1.391 . S
H465 C425 0.951 . S
H466 C426 0.950 . S
H467 C432 0.949 . S
H468 C433 0.950 . S
H469 C437 0.951 . S
H470 C438 0.950 . S
H471 C442 0.949 . S
H472 C443 0.950 . S
H473 C447 0.950 . S
H474 C449 0.950 . S
H475 C452 0.950 . S
H476 C454 0.950 . S
C477 C478 1.443 . S
C477 N481 1.376 . S
C477 C515 1.389 . S
C478 C477 1.443 . S
C478 C479 1.340 . S
C478 H518 0.951 . S
C479 C478 1.340 . S
C479 C480 1.439 . S
C479 H519 0.950 . S
C480 C479 1.439 . S
C480 N481 1.374 . S
C480 C514 1.395 . S
N481 C477 1.376 . S
N481 C480 1.374 . S
N481 Co482 2.008 1_556 S
Co482 N481 2.008 1_554 S
Co482 N483 1.995 . S
Co482 N488 2.008 . S
Co482 N493 1.995 1_554 S
Co482 N498 2.282 1_554 S
Co482 N504 2.282 . S
N483 Co482 1.995 . S
N483 C484 1.376 . S
N483 C487 1.383 . S
C484 N483 1.376 . S
C484 C485 1.446 . S
C484 C514 1.391 1_554 S
C485 C484 1.446 . S
C485 C486 1.339 . S
C485 H520 0.949 . S
C486 C485 1.339 . S
C486 C487 1.439 . S
C486 H521 0.950 . S
C487 N483 1.383 . S
C487 C486 1.439 . S
C487 C516 1.392 . S
N488 Co482 2.008 . S
N488 C489 1.376 . S
N488 C492 1.374 . S
C489 N488 1.376 . S
C489 C490 1.443 . S
C489 C516 1.389 . S
C490 C489 1.443 . S
C490 C491 1.340 . S
C490 H522 0.951 . S
C491 C490 1.340 . S
C491 C492 1.439 . S
C491 H523 0.950 . S
C492 N488 1.374 . S
C492 C491 1.439 . S
C492 C517 1.395 . S
N493 Co482 1.995 1_556 S
N493 C494 1.376 1_556 S
N493 C497 1.383 . S
C494 N493 1.376 1_554 S
C494 C495 1.446 1_554 S
C494 C517 1.391 . S
C495 C494 1.446 1_556 S
C495 C496 1.339 . S
C495 H524 0.949 . S
C496 C495 1.339 . S
C496 C497 1.439 . S
C496 H525 0.950 . S
C497 N493 1.383 . S
C497 C496 1.439 . S
C497 C515 1.392 . S
N498 Co482 2.282 1_556 S
N498 C501 1.332 . S
N498 C503 1.332 . S
C499 C500 1.386 . S
C499 C502 1.388 . S
C500 C499 1.386 . S
C500 C501 1.382 . S
C500 H526 0.950 . S
C501 N498 1.332 . S
C501 C500 1.382 . S
C501 H512 0.952 . S
C502 C499 1.388 . S
C502 C503 1.382 . S
C502 H527 0.950 . S
C503 N498 1.332 . S
C503 C502 1.382 . S
C503 H513 0.948 . S
N504 Co482 2.282 . S
N504 C508 1.332 . S
N504 C509 1.332 . S
C505 C506 1.388 . S
C505 C509 1.382 . S
C505 H528 0.950 . S
C506 C505 1.388 . S
C506 C507 1.386 . S
C507 C506 1.386 . S
C507 C508 1.382 . S
C507 H529 0.950 . S
C508 N504 1.332 . S
C508 C507 1.382 . S
C508 H510 0.952 . S
C509 N504 1.332 . S
C509 C505 1.382 . S
C509 H511 0.948 . S
H510 C508 0.952 . S
H511 C509 0.948 . S
H512 C501 0.952 . S
H513 C503 0.948 . S
C514 C480 1.395 . S
C514 C484 1.391 1_556 S
C515 C477 1.389 . S
C515 C497 1.392 . S
C516 C487 1.392 . S
C516 C489 1.389 . S
C517 C492 1.395 . S
C517 C494 1.391 . S
H518 C478 0.951 . S
H519 C479 0.950 . S
H520 C485 0.949 . S
H521 C486 0.950 . S
H522 C490 0.951 . S
H523 C491 0.950 . S
H524 C495 0.949 . S
H525 C496 0.950 . S
H526 C500 0.950 . S
H527 C502 0.950 . S
H528 C505 0.950 . S
H529 C507 0.950 . S
C530 C531 1.443 . S
C530 N534 1.376 . S
C530 C568 1.389 . S
C531 C530 1.443 . S
C531 C532 1.340 . S
C531 H571 0.951 . S
C532 C531 1.340 . S
C532 C533 1.439 . S
C532 H572 0.950 . S
C533 C532 1.439 . S
C533 N534 1.374 . S
C533 C567 1.395 . S
N534 C530 1.376 . S
N534 C533 1.374 . S
N534 Co535 2.008 . S
Co535 N534 2.008 . S
Co535 N536 1.995 . S
Co535 N541 2.008 . S
Co535 N546 1.995 . S
Co535 N551 2.282 . S
Co535 N557 2.282 . S
N536 Co535 1.995 . S
N536 C537 1.376 . S
N536 C540 1.383 . S
C537 N536 1.376 . S
C537 C538 1.446 . S
C537 C567 1.391 . S
C538 C537 1.446 . S
C538 C539 1.339 . S
C538 H573 0.949 . S
C539 C538 1.339 . S
C539 C540 1.439 . S
C539 H574 0.950 . S
C540 N536 1.383 . S
C540 C539 1.439 . S
C540 C569 1.392 . S
N541 Co535 2.008 . S
N541 C542 1.376 . S
N541 C545 1.374 . S
C542 N541 1.376 . S
C542 C543 1.443 . S
C542 C569 1.389 . S
C543 C542 1.443 . S
C543 C544 1.340 . S
C543 H575 0.951 . S
C544 C543 1.340 . S
C544 C545 1.439 . S
C544 H576 0.950 . S
C545 N541 1.374 . S
C545 C544 1.439 . S
C545 C570 1.395 . S
N546 Co535 1.995 . S
N546 C547 1.376 . S
N546 C550 1.383 . S
C547 N546 1.376 . S
C547 C548 1.446 . S
C547 C570 1.391 . S
C548 C547 1.446 . S
C548 C549 1.339 . S
C548 H577 0.949 . S
C549 C548 1.339 . S
C549 C550 1.439 . S
C549 H578 0.950 . S
C550 N546 1.383 . S
C550 C549 1.439 . S
C550 C568 1.392 . S
N551 Co535 2.282 . S
N551 C554 1.332 . S
N551 C556 1.332 . S
C552 C553 1.386 . S
C552 C555 1.388 . S
C553 C552 1.386 . S
C553 C554 1.382 . S
C553 H579 0.950 . S
C554 N551 1.332 . S
C554 C553 1.382 . S
C554 H565 0.952 . S
C555 C552 1.388 . S
C555 C556 1.382 . S
C555 H580 0.950 . S
C556 N551 1.332 . S
C556 C555 1.382 . S
C556 H566 0.948 . S
N557 Co535 2.282 . S
N557 C561 1.332 . S
N557 C562 1.332 . S
C558 C559 1.388 . S
C558 C562 1.382 . S
C558 H581 0.950 . S
C559 C558 1.388 . S
C559 C560 1.386 . S
C560 C559 1.386 . S
C560 C561 1.382 . S
C560 H582 0.950 . S
C561 N557 1.332 . S
C561 C560 1.382 . S
C561 H563 0.952 . S
C562 N557 1.332 . S
C562 C558 1.382 . S
C562 H564 0.948 . S
H563 C561 0.952 . S
H564 C562 0.948 . S
H565 C554 0.952 . S
H566 C556 0.948 . S
C567 C533 1.395 . S
C567 C537 1.391 . S
C568 C530 1.389 . S
C568 C550 1.392 . S
C569 C540 1.392 . S
C569 C542 1.389 . S
C570 C545 1.395 . S
C570 C547 1.391 . S
H571 C531 0.951 . S
H572 C532 0.950 . S
H573 C538 0.949 . S
H574 C539 0.950 . S
H575 C543 0.951 . S
H576 C544 0.950 . S
H577 C548 0.949 . S
H578 C549 0.950 . S
H579 C553 0.950 . S
H580 C555 0.950 . S
H581 C558 0.950 . S
H582 C560 0.950 . S
C583 C584 1.443 . S
C583 N587 1.376 . S
C583 C621 1.389 . S
C584 C583 1.443 . S
C584 C585 1.340 . S
C584 H624 0.951 . S
C585 C584 1.340 . S
C585 C586 1.439 . S
C585 H625 0.950 . S
C586 C585 1.439 . S
C586 N587 1.374 . S
C586 C620 1.395 . S
N587 C583 1.376 . S
N587 C586 1.374 . S
N587 Co588 2.008 1_556 S
Co588 N587 2.008 1_554 S
Co588 N589 1.995 . S
Co588 N594 2.008 . S
Co588 N599 1.995 1_554 S
Co588 N604 2.282 1_554 S
Co588 N610 2.282 . S
N589 Co588 1.995 . S
N589 C590 1.376 . S
N589 C593 1.383 . S
C590 N589 1.376 . S
C590 C591 1.446 . S
C590 C620 1.391 1_554 S
C591 C590 1.446 . S
C591 C592 1.339 . S
C591 H626 0.949 . S
C592 C591 1.339 . S
C592 C593 1.439 . S
C592 H627 0.950 . S
C593 N589 1.383 . S
C593 C592 1.439 . S
C593 C622 1.392 . S
N594 Co588 2.008 . S
N594 C595 1.376 . S
N594 C598 1.374 . S
C595 N594 1.376 . S
C595 C596 1.443 . S
C595 C622 1.389 . S
C596 C595 1.443 . S
C596 C597 1.340 . S
C596 H628 0.951 . S
C597 C596 1.340 . S
C597 C598 1.439 . S
C597 H629 0.950 . S
C598 N594 1.374 . S
C598 C597 1.439 . S
C598 C623 1.395 . S
N599 Co588 1.995 1_556 S
N599 C600 1.376 1_556 S
N599 C603 1.383 . S
C600 N599 1.376 1_554 S
C600 C601 1.446 1_554 S
C600 C623 1.391 . S
C601 C600 1.446 1_556 S
C601 C602 1.339 . S
C601 H630 0.949 1_545 S
C602 C601 1.339 . S
C602 C603 1.439 . S
C602 H631 0.928 1_545 S
C603 N599 1.383 . S
C603 C602 1.439 . S
C603 C621 1.392 . S
N604 Co588 2.282 1_556 S
N604 C607 1.332 . S
N604 C609 1.332 . S
C605 C606 1.386 . S
C605 C608 1.388 . S
C606 C605 1.386 . S
C606 C607 1.382 . S
C606 H632 0.950 . S
C607 N604 1.332 . S
C607 C606 1.382 . S
C607 H618 0.952 . S
C608 C605 1.388 . S
C608 C609 1.382 . S
C608 H633 0.950 . S
C609 N604 1.332 . S
C609 C608 1.382 . S
C609 H619 0.948 . S
N610 Co588 2.282 . S
N610 C614 1.332 . S
N610 C615 1.332 . S
C611 C612 1.388 . S
C611 C615 1.382 . S
C611 H634 0.950 . S
C612 C611 1.388 . S
C612 C613 1.386 . S
C613 C612 1.386 . S
C613 C614 1.382 . S
C613 H635 0.950 . S
C614 N610 1.332 . S
C614 C613 1.382 . S
C614 H616 0.952 . S
C615 N610 1.332 . S
C615 C611 1.382 . S
C615 H617 0.948 . S
H616 C614 0.952 . S
H617 C615 0.948 . S
H618 C607 0.952 . S
H619 C609 0.948 . S
C620 C586 1.395 . S
C620 C590 1.391 1_556 S
C621 C583 1.389 . S
C621 C603 1.392 . S
C622 C593 1.392 . S
C622 C595 1.389 . S
C623 C598 1.395 . S
C623 C600 1.391 . S
H624 C584 0.951 . S
H625 C585 0.950 . S
H626 C591 0.949 . S
H627 C592 0.950 . S
H628 C596 0.951 . S
H629 C597 0.950 . S
H630 C601 0.949 1_565 S
H631 C602 0.928 1_565 S
H632 C606 0.950 . S
H633 C608 0.950 . S
H634 C611 0.950 . S
H635 C613 0.950 . S
C636 C637 1.443 . S
C636 N640 1.376 . S
C636 C674 1.389 . S
C637 C636 1.443 . S
C637 C638 1.340 . S
C637 H677 0.951 . S
C638 C637 1.340 . S
C638 C639 1.439 . S
C638 H678 0.950 . S
C639 C638 1.439 . S
C639 N640 1.374 . S
C639 C673 1.395 . S
N640 C636 1.376 . S
N640 C639 1.374 . S
N640 Co641 2.008 . S
Co641 N640 2.008 . S
Co641 N642 1.995 . S
Co641 N647 2.008 . S
Co641 N652 1.995 . S
Co641 N657 2.282 . S
Co641 N663 2.282 . S
N642 Co641 1.995 . S
N642 C643 1.376 . S
N642 C646 1.383 . S
C643 N642 1.376 . S
C643 C644 1.446 . S
C643 C673 1.391 . S
C644 C643 1.446 . S
C644 C645 1.339 . S
C644 H679 0.949 . S
C645 C644 1.339 . S
C645 C646 1.439 . S
C645 H680 0.950 . S
C646 N642 1.383 . S
C646 C645 1.439 . S
C646 C675 1.392 . S
N647 Co641 2.008 . S
N647 C648 1.376 . S
N647 C651 1.374 . S
C648 N647 1.376 . S
C648 C649 1.443 . S
C648 C675 1.389 . S
C649 C648 1.443 . S
C649 C650 1.340 . S
C649 H681 0.951 . S
C650 C649 1.340 . S
C650 C651 1.439 . S
C650 H682 0.950 . S
C651 N647 1.374 . S
C651 C650 1.439 . S
C651 C676 1.395 . S
N652 Co641 1.995 . S
N652 C653 1.376 . S
N652 C656 1.383 . S
C653 N652 1.376 . S
C653 C654 1.446 . S
C653 C676 1.391 . S
C654 C653 1.446 . S
C654 C655 1.339 . S
C654 H683 0.949 . S
C655 C654 1.339 . S
C655 C656 1.439 . S
C655 H684 0.950 . S
C656 N652 1.383 . S
C656 C655 1.439 . S
C656 C674 1.392 . S
N657 Co641 2.282 . S
N657 C660 1.332 . S
N657 C662 1.332 . S
C658 C659 1.386 . S
C658 C661 1.388 . S
C659 C658 1.386 . S
C659 C660 1.382 . S
C659 H685 0.950 . S
C660 N657 1.332 . S
C660 C659 1.382 . S
C660 H671 0.952 . S
C661 C658 1.388 . S
C661 C662 1.382 . S
C661 H686 0.950 . S
C662 N657 1.332 . S
C662 C661 1.382 . S
C662 H672 0.948 . S
N663 Co641 2.282 . S
N663 C667 1.332 . S
N663 C668 1.332 . S
C664 C665 1.388 . S
C664 C668 1.382 . S
C664 H687 0.950 . S
C665 C664 1.388 . S
C665 C666 1.386 . S
C666 C665 1.386 . S
C666 C667 1.382 . S
C666 H688 0.950 . S
C667 N663 1.332 . S
C667 C666 1.382 . S
C667 H669 0.952 . S
C668 N663 1.332 . S
C668 C664 1.382 . S
C668 H670 0.948 . S
H669 C667 0.952 . S
H670 C668 0.948 . S
H671 C660 0.952 . S
H672 C662 0.948 . S
C673 C639 1.395 . S
C673 C643 1.391 . S
C674 C636 1.389 . S
C674 C656 1.392 . S
C675 C646 1.392 . S
C675 C648 1.389 . S
C676 C651 1.395 . S
C676 C653 1.391 . S
H677 C637 0.951 . S
H678 C638 0.950 . S
H679 C644 0.949 . S
H680 C645 0.950 . S
H681 C649 0.951 . S
H682 C650 0.950 . S
H683 C654 0.949 . S
H684 C655 0.950 . S
H685 C659 0.950 . S
H686 C661 0.950 . S
H687 C664 0.950 . S
H688 C666 0.950 . S
C689 C690 1.443 . S
C689 N693 1.376 . S
C689 C727 1.389 . S
C690 C689 1.443 . S
C690 C691 1.340 . S
C690 H730 0.951 . S
C691 C690 1.340 . S
C691 C692 1.439 . S
C691 H731 0.950 . S
C692 C691 1.439 . S
C692 N693 1.374 . S
C692 C726 1.395 . S
N693 C689 1.376 . S
N693 C692 1.374 . S
N693 Co694 2.008 1_554 S
Co694 N693 2.008 1_556 S
Co694 N695 1.995 . S
Co694 N700 2.008 . S
Co694 N705 1.995 1_556 S
Co694 N710 2.282 1_556 S
Co694 N716 2.282 . S
N695 Co694 1.995 . S
N695 C696 1.376 . S
N695 C699 1.383 . S
C696 N695 1.376 . S
C696 C697 1.446 . S
C696 C726 1.391 1_556 S
C697 C696 1.446 . S
C697 C698 1.339 . S
C697 H732 0.949 . S
C698 C697 1.339 . S
C698 C699 1.439 . S
C698 H733 0.950 . S
C699 N695 1.383 . S
C699 C698 1.439 . S
C699 C728 1.392 . S
N700 Co694 2.008 . S
N700 C701 1.376 . S
N700 C704 1.374 . S
C701 N700 1.376 . S
C701 C702 1.443 . S
C701 C728 1.389 . S
C702 C701 1.443 . S
C702 C703 1.340 . S
C702 H734 0.951 . S
C703 C702 1.340 . S
C703 C704 1.439 . S
C703 H735 0.950 . S
C704 N700 1.374 . S
C704 C703 1.439 . S
C704 C729 1.395 . S
N705 Co694 1.995 1_554 S
N705 C706 1.376 1_554 S
N705 C709 1.383 . S
C706 N705 1.376 1_556 S
C706 C707 1.446 1_556 S
C706 C729 1.391 . S
C707 C706 1.446 1_554 S
C707 C708 1.339 . S
C707 H736 0.949 . S
C708 C707 1.339 . S
C708 C709 1.439 . S
C708 H737 0.950 . S
C709 N705 1.383 . S
C709 C708 1.439 . S
C709 C727 1.392 . S
N710 Co694 2.282 1_554 S
N710 C713 1.332 . S
N710 C715 1.332 . S
C711 C712 1.386 . S
C711 C714 1.388 . S
C712 C711 1.386 . S
C712 C713 1.382 . S
C712 H738 0.950 . S
C713 N710 1.332 . S
C713 C712 1.382 . S
C713 H724 0.952 . S
C714 C711 1.388 . S
C714 C715 1.382 . S
C714 H739 0.950 . S
C715 N710 1.332 . S
C715 C714 1.382 . S
C715 H725 0.948 . S
N716 Co694 2.282 . S
N716 C720 1.332 . S
N716 C721 1.332 . S
C717 C718 1.388 . S
C717 C721 1.382 . S
C717 H740 0.950 . S
C718 C717 1.388 . S
C718 C719 1.386 . S
C719 C718 1.386 . S
C719 C720 1.382 . S
C719 H741 0.950 . S
C720 N716 1.332 . S
C720 C719 1.382 . S
C720 H722 0.952 . S
C721 N716 1.332 . S
C721 C717 1.382 . S
C721 H723 0.948 . S
H722 C720 0.952 . S
H723 C721 0.948 . S
H724 C713 0.952 . S
H725 C715 0.948 . S
C726 C692 1.395 . S
C726 C696 1.391 1_554 S
C727 C689 1.389 . S
C727 C709 1.392 . S
C728 C699 1.392 . S
C728 C701 1.389 . S
C729 C704 1.395 . S
C729 C706 1.391 . S
H730 C690 0.951 . S
H731 C691 0.950 . S
H732 C697 0.949 . S
H733 C698 0.950 . S
H734 C702 0.951 . S
H735 C703 0.950 . S
H736 C707 0.949 . S
H737 C708 0.950 . S
H738 C712 0.950 . S
H739 C714 0.950 . S
H740 C717 0.950 . S
H741 C719 0.950 . S
C742 C743 1.443 . S
C742 N746 1.376 . S
C742 C780 1.389 . S
C743 C742 1.443 . S
C743 C744 1.340 . S
C743 H783 0.951 . S
C744 C743 1.340 . S
C744 C745 1.439 . S
C744 H784 0.950 . S
C745 C744 1.439 . S
C745 N746 1.374 . S
C745 C779 1.395 . S
N746 C742 1.376 . S
N746 C745 1.374 . S
N746 Co747 2.008 . S
Co747 N746 2.008 . S
Co747 N748 1.995 . S
Co747 N753 2.008 . S
Co747 N758 1.995 . S
Co747 N763 2.282 . S
Co747 N769 2.282 . S
N748 Co747 1.995 . S
N748 C749 1.376 . S
N748 C752 1.383 . S
C749 N748 1.376 . S
C749 C750 1.446 . S
C749 C779 1.391 . S
C750 C749 1.446 . S
C750 C751 1.339 . S
C750 H785 0.949 . S
C751 C750 1.339 . S
C751 C752 1.439 . S
C751 H786 0.950 . S
C752 N748 1.383 . S
C752 C751 1.439 . S
C752 C781 1.392 . S
N753 Co747 2.008 . S
N753 C754 1.376 . S
N753 C757 1.374 . S
C754 N753 1.376 . S
C754 C755 1.443 . S
C754 C781 1.389 . S
C755 C754 1.443 . S
C755 C756 1.340 . S
C755 H787 0.951 . S
C756 C755 1.340 . S
C756 C757 1.439 . S
C756 H788 0.950 . S
C757 N753 1.374 . S
C757 C756 1.439 . S
C757 C782 1.395 . S
N758 Co747 1.995 . S
N758 C759 1.376 . S
N758 C762 1.383 . S
C759 N758 1.376 . S
C759 C760 1.446 . S
C759 C782 1.391 . S
C760 C759 1.446 . S
C760 C761 1.339 . S
C760 H789 0.949 . S
C761 C760 1.339 . S
C761 C762 1.439 . S
C761 H790 0.950 . S
C762 N758 1.383 . S
C762 C761 1.439 . S
C762 C780 1.392 . S
N763 Co747 2.282 . S
N763 C766 1.332 . S
N763 C768 1.332 . S
C764 C765 1.386 . S
C764 C767 1.388 . S
C765 C764 1.386 . S
C765 C766 1.382 . S
C765 H791 0.950 . S
C766 N763 1.332 . S
C766 C765 1.382 . S
C766 H777 0.952 . S
C767 C764 1.388 . S
C767 C768 1.382 . S
C767 H792 0.950 . S
C768 N763 1.332 . S
C768 C767 1.382 . S
C768 H778 0.948 . S
N769 Co747 2.282 . S
N769 C773 1.332 . S
N769 C774 1.332 . S
C770 C771 1.388 . S
C770 C774 1.382 . S
C770 H793 0.950 . S
C771 C770 1.388 . S
C771 C772 1.386 . S
C772 C771 1.386 . S
C772 C773 1.382 . S
C772 H794 0.950 . S
C773 N769 1.332 . S
C773 C772 1.382 . S
C773 H775 0.952 . S
C774 N769 1.332 . S
C774 C770 1.382 . S
C774 H776 0.948 . S
H775 C773 0.952 . S
H776 C774 0.948 . S
H777 C766 0.952 . S
H778 C768 0.948 . S
C779 C745 1.395 . S
C779 C749 1.391 . S
C780 C742 1.389 . S
C780 C762 1.392 . S
C781 C752 1.392 . S
C781 C754 1.389 . S
C782 C757 1.395 . S
C782 C759 1.391 . S
H783 C743 0.951 . S
H784 C744 0.950 . S
H785 C750 0.949 . S
H786 C751 0.950 . S
H787 C755 0.951 . S
H788 C756 0.950 . S
H789 C760 0.949 . S
H790 C761 0.950 . S
H791 C765 0.950 . S
H792 C767 0.950 . S
H793 C770 0.950 . S
H794 C772 0.950 . S
C795 C796 1.443 . S
C795 N799 1.376 . S
C795 C833 1.389 . S
C796 C795 1.443 . S
C796 C797 1.340 . S
C796 H836 0.951 . S
C797 C796 1.340 . S
C797 C798 1.439 . S
C797 H837 0.950 . S
C798 C797 1.439 . S
C798 N799 1.374 . S
C798 C832 1.395 . S
N799 C795 1.376 . S
N799 C798 1.374 . S
N799 Co800 2.008 1_554 S
Co800 N799 2.008 1_556 S
Co800 N801 1.995 . S
Co800 N806 2.008 . S
Co800 N811 1.995 1_556 S
Co800 N816 2.282 1_556 S
Co800 N822 2.282 . S
N801 Co800 1.995 . S
N801 C802 1.376 . S
N801 C805 1.383 . S
C802 N801 1.376 . S
C802 C803 1.446 . S
C802 C832 1.391 1_556 S
C803 C802 1.446 . S
C803 C804 1.339 . S
C803 H838 0.949 . S
C804 C803 1.339 . S
C804 C805 1.439 . S
C804 H839 0.950 . S
C805 N801 1.383 . S
C805 C804 1.439 . S
C805 C834 1.392 . S
N806 Co800 2.008 . S
N806 C807 1.376 . S
N806 C810 1.374 . S
C807 N806 1.376 . S
C807 C808 1.443 . S
C807 C834 1.389 . S
C808 C807 1.443 . S
C808 C809 1.340 . S
C808 H840 0.951 . S
C809 C808 1.340 . S
C809 C810 1.439 . S
C809 H841 0.950 . S
C810 N806 1.374 . S
C810 C809 1.439 . S
C810 C835 1.395 . S
N811 Co800 1.995 1_554 S
N811 C812 1.376 1_554 S
N811 C815 1.383 . S
C812 N811 1.376 1_556 S
C812 C813 1.446 1_556 S
C812 C835 1.391 . S
C813 C812 1.446 1_554 S
C813 C814 1.339 . S
C813 H842 0.949 1_545 S
C814 C813 1.339 . S
C814 C815 1.439 . S
C814 H843 0.928 1_545 S
C815 N811 1.383 . S
C815 C814 1.439 . S
C815 C833 1.392 . S
N816 Co800 2.282 1_554 S
N816 C819 1.332 . S
N816 C821 1.332 . S
C817 C818 1.386 . S
C817 C820 1.388 . S
C818 C817 1.386 . S
C818 C819 1.382 . S
C818 H844 0.950 . S
C819 N816 1.332 . S
C819 C818 1.382 . S
C819 H830 0.952 . S
C820 C817 1.388 . S
C820 C821 1.382 . S
C820 H845 0.950 . S
C821 N816 1.332 . S
C821 C820 1.382 . S
C821 H831 0.948 . S
N822 Co800 2.282 . S
N822 C826 1.332 . S
N822 C827 1.332 . S
C823 C824 1.388 . S
C823 C827 1.382 . S
C823 H846 0.950 . S
C824 C823 1.388 . S
C824 C825 1.386 . S
C825 C824 1.386 . S
C825 C826 1.382 . S
C825 H847 0.950 . S
C826 N822 1.332 . S
C826 C825 1.382 . S
C826 H828 0.952 . S
C827 N822 1.332 . S
C827 C823 1.382 . S
C827 H829 0.948 . S
H828 C826 0.952 . S
H829 C827 0.948 . S
H830 C819 0.952 . S
H831 C821 0.948 . S
C832 C798 1.395 . S
C832 C802 1.391 1_554 S
C833 C795 1.389 . S
C833 C815 1.392 . S
C834 C805 1.392 . S
C834 C807 1.389 . S
C835 C810 1.395 . S
C835 C812 1.391 . S
H836 C796 0.951 . S
H837 C797 0.950 . S
H838 C803 0.949 . S
H839 C804 0.950 . S
H840 C808 0.951 . S
H841 C809 0.950 . S
H842 C813 0.949 1_565 S
H843 C814 0.928 1_565 S
H844 C818 0.950 . S
H845 C820 0.950 . S
H846 C823 0.950 . S
H847 C825 0.950 . S
C848 C849 1.443 . S
C848 N852 1.376 . S
C848 C886 1.389 . S
C849 C848 1.443 . S
C849 C850 1.340 . S
C849 H889 0.951 . S
C850 C849 1.340 . S
C850 C851 1.439 . S
C850 H890 0.950 . S
C851 C850 1.439 . S
C851 N852 1.374 . S
C851 C885 1.395 . S
N852 C848 1.376 . S
N852 C851 1.374 . S
N852 Co853 2.008 . S
Co853 N852 2.008 . S
Co853 N854 1.995 . S
Co853 N859 2.008 . S
Co853 N864 1.995 . S
Co853 N869 2.282 . S
Co853 N875 2.282 . S
N854 Co853 1.995 . S
N854 C855 1.376 . S
N854 C858 1.383 . S
C855 N854 1.376 . S
C855 C856 1.446 . S
C855 C885 1.391 . S
C856 C855 1.446 . S
C856 C857 1.339 . S
C856 H891 0.949 . S
C857 C856 1.339 . S
C857 C858 1.439 . S
C857 H892 0.950 . S
C858 N854 1.383 . S
C858 C857 1.439 . S
C858 C887 1.392 . S
N859 Co853 2.008 . S
N859 C860 1.376 . S
N859 C863 1.374 . S
C860 N859 1.376 . S
C860 C861 1.443 . S
C860 C887 1.389 . S
C861 C860 1.443 . S
C861 C862 1.340 . S
C861 H893 0.951 . S
C862 C861 1.340 . S
C862 C863 1.439 . S
C862 H894 0.950 . S
C863 N859 1.374 . S
C863 C862 1.439 . S
C863 C888 1.395 . S
N864 Co853 1.995 . S
N864 C865 1.376 . S
N864 C868 1.383 . S
C865 N864 1.376 . S
C865 C866 1.446 . S
C865 C888 1.391 . S
C866 C865 1.446 . S
C866 C867 1.339 . S
C866 H895 0.949 . S
C867 C866 1.339 . S
C867 C868 1.439 . S
C867 H896 0.950 . S
C868 N864 1.383 . S
C868 C867 1.439 . S
C868 C886 1.392 . S
N869 Co853 2.282 . S
N869 C872 1.332 . S
N869 C874 1.332 . S
C870 C871 1.386 . S
C870 C873 1.388 . S
C871 C870 1.386 . S
C871 C872 1.382 . S
C871 H897 0.950 . S
C872 N869 1.332 . S
C872 C871 1.382 . S
C872 H883 0.952 . S
C873 C870 1.388 . S
C873 C874 1.382 . S
C873 H898 0.950 . S
C874 N869 1.332 . S
C874 C873 1.382 . S
C874 H884 0.948 . S
N875 Co853 2.282 . S
N875 C879 1.332 . S
N875 C880 1.332 . S
C876 C877 1.388 . S
C876 C880 1.382 . S
C876 H899 0.950 . S
C877 C876 1.388 . S
C877 C878 1.386 . S
C878 C877 1.386 . S
C878 C879 1.382 . S
C878 H900 0.950 . S
C879 N875 1.332 . S
C879 C878 1.382 . S
C879 H881 0.952 . S
C880 N875 1.332 . S
C880 C876 1.382 . S
C880 H882 0.948 . S
H881 C879 0.952 . S
H882 C880 0.948 . S
H883 C872 0.952 . S
H884 C874 0.948 . S
C885 C851 1.395 . S
C885 C855 1.391 . S
C886 C848 1.389 . S
C886 C868 1.392 . S
C887 C858 1.392 . S
C887 C860 1.389 . S
C888 C863 1.395 . S
C888 C865 1.391 . S
H889 C849 0.951 . S
H890 C850 0.950 . S
H891 C856 0.949 . S
H892 C857 0.950 . S
H893 C861 0.951 . S
H894 C862 0.950 . S
H895 C866 0.949 . S
H896 C867 0.950 . S
H897 C871 0.950 . S
H898 C873 0.950 . S
H899 C876 0.950 . S
H900 C878 0.950 . S
C901 C902 1.443 . S
C901 N905 1.376 . S
C901 C939 1.389 . S
C902 C901 1.443 . S
C902 C903 1.340 . S
C902 H942 0.951 . S
C903 C902 1.340 . S
C903 C904 1.439 . S
C903 H943 0.950 . S
C904 C903 1.439 . S
C904 N905 1.374 . S
C904 C938 1.395 . S
N905 C901 1.376 . S
N905 C904 1.374 . S
N905 Co906 2.008 . S
Co906 N905 2.008 . S
Co906 N907 1.995 . S
Co906 N912 2.008 . S
Co906 N917 1.995 . S
Co906 N922 2.282 . S
Co906 N928 2.282 . S
N907 Co906 1.995 . S
N907 C908 1.376 . S
N907 C911 1.383 . S
C908 N907 1.376 . S
C908 C909 1.446 . S
C908 C938 1.391 . S
C909 C908 1.446 . S
C909 C910 1.339 . S
C909 H944 0.949 . S
C910 C909 1.339 . S
C910 C911 1.439 . S
C910 H945 0.950 . S
C911 N907 1.383 . S
C911 C910 1.439 . S
C911 C940 1.392 . S
N912 Co906 2.008 . S
N912 C913 1.376 . S
N912 C916 1.374 . S
C913 N912 1.376 . S
C913 C914 1.443 . S
C913 C940 1.389 . S
C914 C913 1.443 . S
C914 C915 1.340 . S
C914 H946 0.951 . S
C915 C914 1.340 . S
C915 C916 1.439 . S
C915 H947 0.950 . S
C916 N912 1.374 . S
C916 C915 1.439 . S
C916 C941 1.395 . S
N917 Co906 1.995 . S
N917 C918 1.376 . S
N917 C921 1.383 . S
C918 N917 1.376 . S
C918 C919 1.446 . S
C918 C941 1.391 . S
C919 C918 1.446 . S
C919 C920 1.339 . S
C919 H948 0.949 . S
C920 C919 1.339 . S
C920 C921 1.439 . S
C920 H949 0.950 . S
C921 N917 1.383 . S
C921 C920 1.439 . S
C921 C939 1.392 . S
N922 Co906 2.282 . S
N922 C925 1.332 . S
N922 C927 1.332 . S
C923 C924 1.386 . S
C923 C926 1.388 . S
C924 C923 1.386 . S
C924 C925 1.382 . S
C924 H950 0.950 . S
C925 N922 1.332 . S
C925 C924 1.382 . S
C925 H936 0.952 . S
C926 C923 1.388 . S
C926 C927 1.382 . S
C926 H951 0.950 . S
C927 N922 1.332 . S
C927 C926 1.382 . S
C927 H937 0.948 . S
N928 Co906 2.282 . S
N928 C932 1.332 . S
N928 C933 1.332 . S
C929 C930 1.388 . S
C929 C933 1.382 . S
C929 H952 0.950 . S
C930 C929 1.388 . S
C930 C931 1.386 . S
C931 C930 1.386 . S
C931 C932 1.382 . S
C931 H953 0.950 . S
C932 N928 1.332 . S
C932 C931 1.382 . S
C932 H934 0.952 . S
C933 N928 1.332 . S
C933 C929 1.382 . S
C933 H935 0.948 . S
H934 C932 0.952 . S
H935 C933 0.948 . S
H936 C925 0.952 . S
H937 C927 0.948 . S
C938 C904 1.395 . S
C938 C908 1.391 . S
C939 C901 1.389 . S
C939 C921 1.392 . S
C940 C911 1.392 . S
C940 C913 1.389 . S
C941 C916 1.395 . S
C941 C918 1.391 . S
H942 C902 0.951 . S
H943 C903 0.950 . S
H944 C909 0.949 . S
H945 C910 0.950 . S
H946 C914 0.951 . S
H947 C915 0.950 . S
H948 C919 0.949 . S
H949 C920 0.950 . S
H950 C924 0.950 . S
H951 C926 0.950 . S
H952 C929 0.950 . S
H953 C931 0.950 . S
C954 C955 1.443 . S
C954 N958 1.376 . S
C954 C992 1.389 . S
C955 C954 1.443 . S
C955 C956 1.340 . S
C955 H995 0.951 . S
C956 C955 1.340 . S
C956 C957 1.439 . S
C956 H996 0.950 . S
C957 C956 1.439 . S
C957 N958 1.374 . S
C957 C991 1.395 . S
N958 C954 1.376 . S
N958 C957 1.374 . S
N958 Co959 2.008 . S
Co959 N958 2.008 . S
Co959 N960 1.995 . S
Co959 N965 2.008 . S
Co959 N970 1.995 . S
Co959 N975 2.282 . S
Co959 N981 2.282 . S
N960 Co959 1.995 . S
N960 C961 1.376 . S
N960 C964 1.383 . S
C961 N960 1.376 . S
C961 C962 1.446 . S
C961 C991 1.391 . S
C962 C961 1.446 . S
C962 C963 1.339 . S
C962 H997 0.949 . S
C963 C962 1.339 . S
C963 C964 1.439 . S
C963 H998 0.950 . S
C964 N960 1.383 . S
C964 C963 1.439 . S
C964 C993 1.392 . S
N965 Co959 2.008 . S
N965 C966 1.376 . S
N965 C969 1.374 . S
C966 N965 1.376 . S
C966 C967 1.443 . S
C966 C993 1.389 . S
C967 C966 1.443 . S
C967 C968 1.340 . S
C967 H999 0.951 . S
C968 C967 1.340 . S
C968 C969 1.439 . S
C968 H1000 0.950 . S
C969 N965 1.374 . S
C969 C968 1.439 . S
C969 C994 1.395 . S
N970 Co959 1.995 . S
N970 C971 1.376 . S
N970 C974 1.383 . S
C971 N970 1.376 . S
C971 C972 1.446 . S
C971 C994 1.391 . S
C972 C971 1.446 . S
C972 C973 1.339 . S
C972 H1001 0.949 1_655 S
C973 C972 1.339 . S
C973 C974 1.439 . S
C973 H1002 0.927 1_655 S
C974 N970 1.383 . S
C974 C973 1.439 . S
C974 C992 1.392 . S
N975 Co959 2.282 . S
N975 C978 1.332 . S
N975 C980 1.332 . S
C976 C977 1.386 . S
C976 C979 1.388 . S
C977 C976 1.386 . S
C977 C978 1.382 . S
C977 H1003 0.950 . S
C978 N975 1.332 . S
C978 C977 1.382 . S
C978 H989 0.952 . S
C979 C976 1.388 . S
C979 C980 1.382 . S
C979 H1004 0.950 . S
C980 N975 1.332 . S
C980 C979 1.382 . S
C980 H990 0.948 . S
N981 Co959 2.282 . S
N981 C985 1.332 . S
N981 C986 1.332 . S
C982 C983 1.388 . S
C982 C986 1.382 . S
C982 H1005 0.950 . S
C983 C982 1.388 . S
C983 C984 1.386 . S
C984 C983 1.386 . S
C984 C985 1.382 . S
C984 H1006 0.950 . S
C985 N981 1.332 . S
C985 C984 1.382 . S
C985 H987 0.952 . S
C986 N981 1.332 . S
C986 C982 1.382 . S
C986 H988 0.948 . S
H987 C985 0.952 . S
H988 C986 0.948 . S
H989 C978 0.952 . S
H990 C980 0.948 . S
C991 C957 1.395 . S
C991 C961 1.391 . S
C992 C954 1.389 . S
C992 C974 1.392 . S
C993 C964 1.392 . S
C993 C966 1.389 . S
C994 C969 1.395 . S
C994 C971 1.391 . S
H995 C955 0.951 . S
H996 C956 0.950 . S
H997 C962 0.949 . S
H998 C963 0.950 . S
H999 C967 0.951 . S
H1000 C968 0.950 . S
H1001 C972 0.949 1_455 S
H1002 C973 0.927 1_455 S
H1003 C977 0.950 . S
H1004 C979 0.950 . S
H1005 C982 0.950 . S
H1006 C984 0.950 . S
C1007 C1008 1.443 . S
C1007 N1011 1.376 . S
C1007 C1045 1.389 . S
C1008 C1007 1.443 . S
C1008 C1009 1.340 . S
C1008 H1048 0.951 . S
C1009 C1008 1.340 . S
C1009 C1010 1.439 . S
C1009 H1049 0.950 . S
C1010 C1009 1.439 . S
C1010 N1011 1.374 . S
C1010 C1044 1.395 . S
N1011 C1007 1.376 . S
N1011 C1010 1.374 . S
N1011 Co1012 2.008 . S
Co1012 N1011 2.008 . S
Co1012 N1013 1.995 . S
Co1012 N1018 2.008 . S
Co1012 N1023 1.995 . S
Co1012 N1028 2.282 . S
Co1012 N1034 2.282 . S
N1013 Co1012 1.995 . S
N1013 C1014 1.376 . S
N1013 C1017 1.383 . S
C1014 N1013 1.376 . S
C1014 C1015 1.446 . S
C1014 C1044 1.391 . S
C1015 C1014 1.446 . S
C1015 C1016 1.339 . S
C1015 H1050 0.949 . S
C1016 C1015 1.339 . S
C1016 C1017 1.439 . S
C1016 H1051 0.950 . S
C1017 N1013 1.383 . S
C1017 C1016 1.439 . S
C1017 C1046 1.392 . S
N1018 Co1012 2.008 . S
N1018 C1019 1.376 . S
N1018 C1022 1.374 . S
C1019 N1018 1.376 . S
C1019 C1020 1.443 . S
C1019 C1046 1.389 . S
C1020 C1019 1.443 . S
C1020 C1021 1.340 . S
C1020 H1052 0.951 . S
C1021 C1020 1.340 . S
C1021 C1022 1.439 . S
C1021 H1053 0.950 . S
C1022 N1018 1.374 . S
C1022 C1021 1.439 . S
C1022 C1047 1.395 . S
N1023 Co1012 1.995 . S
N1023 C1024 1.376 . S
N1023 C1027 1.383 . S
C1024 N1023 1.376 . S
C1024 C1025 1.446 . S
C1024 C1047 1.391 . S
C1025 C1024 1.446 . S
C1025 C1026 1.339 . S
C1025 H1054 0.949 . S
C1026 C1025 1.339 . S
C1026 C1027 1.439 . S
C1026 H1055 0.950 . S
C1027 N1023 1.383 . S
C1027 C1026 1.439 . S
C1027 C1045 1.392 . S
N1028 Co1012 2.282 . S
N1028 C1031 1.332 . S
N1028 C1033 1.332 . S
C1029 C1030 1.386 . S
C1029 C1032 1.388 . S
C1030 C1029 1.386 . S
C1030 C1031 1.382 . S
C1030 H1056 0.950 . S
C1031 N1028 1.332 . S
C1031 C1030 1.382 . S
C1031 H1042 0.952 . S
C1032 C1029 1.388 . S
C1032 C1033 1.382 . S
C1032 H1057 0.950 . S
C1033 N1028 1.332 . S
C1033 C1032 1.382 . S
C1033 H1043 0.948 . S
N1034 Co1012 2.282 . S
N1034 C1038 1.332 . S
N1034 C1039 1.332 . S
C1035 C1036 1.388 . S
C1035 C1039 1.382 . S
C1035 H1058 0.950 . S
C1036 C1035 1.388 . S
C1036 C1037 1.386 . S
C1037 C1036 1.386 . S
C1037 C1038 1.382 . S
C1037 H1059 0.950 . S
C1038 N1034 1.332 . S
C1038 C1037 1.382 . S
C1038 H1040 0.952 . S
C1039 N1034 1.332 . S
C1039 C1035 1.382 . S
C1039 H1041 0.948 . S
H1040 C1038 0.952 . S
H1041 C1039 0.948 . S
H1042 C1031 0.952 . S
H1043 C1033 0.948 . S
C1044 C1010 1.395 . S
C1044 C1014 1.391 . S
C1045 C1007 1.389 . S
C1045 C1027 1.392 . S
C1046 C1017 1.392 . S
C1046 C1019 1.389 . S
C1047 C1022 1.395 . S
C1047 C1024 1.391 . S
H1048 C1008 0.951 . S
H1049 C1009 0.950 . S
H1050 C1015 0.949 . S
H1051 C1016 0.950 . S
H1052 C1020 0.951 . S
H1053 C1021 0.950 . S
H1054 C1025 0.949 . S
H1055 C1026 0.950 . S
H1056 C1030 0.950 . S
H1057 C1032 0.950 . S
H1058 C1035 0.950 . S
H1059 C1037 0.950 . S
C1060 C1061 1.443 . S
C1060 N1064 1.376 . S
C1060 C1098 1.389 . S
C1061 C1060 1.443 . S
C1061 C1062 1.340 . S
C1061 H1101 0.951 . S
C1062 C1061 1.340 . S
C1062 C1063 1.439 . S
C1062 H1102 0.950 . S
C1063 C1062 1.439 . S
C1063 N1064 1.374 . S
C1063 C1097 1.395 . S
N1064 C1060 1.376 . S
N1064 C1063 1.374 . S
N1064 Co1065 2.008 . S
Co1065 N1064 2.008 . S
Co1065 N1066 1.995 . S
Co1065 N1071 2.008 . S
Co1065 N1076 1.995 . S
Co1065 N1081 2.282 . S
Co1065 N1087 2.282 . S
N1066 Co1065 1.995 . S
N1066 C1067 1.376 . S
N1066 C1070 1.383 . S
C1067 N1066 1.376 . S
C1067 C1068 1.446 . S
C1067 C1097 1.391 . S
C1068 C1067 1.446 . S
C1068 C1069 1.339 . S
C1068 H1103 0.949 . S
C1069 C1068 1.339 . S
C1069 C1070 1.439 . S
C1069 H1104 0.950 . S
C1070 N1066 1.383 . S
C1070 C1069 1.439 . S
C1070 C1099 1.392 . S
N1071 Co1065 2.008 . S
N1071 C1072 1.376 . S
N1071 C1075 1.374 . S
C1072 N1071 1.376 . S
C1072 C1073 1.443 . S
C1072 C1099 1.389 . S
C1073 C1072 1.443 . S
C1073 C1074 1.340 . S
C1073 H1105 0.951 . S
C1074 C1073 1.340 . S
C1074 C1075 1.439 . S
C1074 H1106 0.950 . S
C1075 N1071 1.374 . S
C1075 C1074 1.439 . S
C1075 C1100 1.395 . S
N1076 Co1065 1.995 . S
N1076 C1077 1.376 . S
N1076 C1080 1.383 . S
C1077 N1076 1.376 . S
C1077 C1078 1.446 . S
C1077 C1100 1.391 . S
C1078 C1077 1.446 . S
C1078 C1079 1.339 . S
C1078 H1107 0.949 . S
C1079 C1078 1.339 . S
C1079 C1080 1.439 . S
C1079 H1108 0.950 . S
C1080 N1076 1.383 . S
C1080 C1079 1.439 . S
C1080 C1098 1.392 . S
N1081 Co1065 2.282 . S
N1081 C1084 1.332 . S
N1081 C1086 1.332 . S
C1082 C1083 1.386 . S
C1082 C1085 1.388 . S
C1083 C1082 1.386 . S
C1083 C1084 1.382 . S
C1083 H1109 0.950 . S
C1084 N1081 1.332 . S
C1084 C1083 1.382 . S
C1084 H1095 0.952 . S
C1085 C1082 1.388 . S
C1085 C1086 1.382 . S
C1085 H1110 0.950 . S
C1086 N1081 1.332 . S
C1086 C1085 1.382 . S
C1086 H1096 0.948 . S
N1087 Co1065 2.282 . S
N1087 C1091 1.332 . S
N1087 C1092 1.332 . S
C1088 C1089 1.388 . S
C1088 C1092 1.382 . S
C1088 H1111 0.950 . S
C1089 C1088 1.388 . S
C1089 C1090 1.386 . S
C1090 C1089 1.386 . S
C1090 C1091 1.382 . S
C1090 H1112 0.950 . S
C1091 N1087 1.332 . S
C1091 C1090 1.382 . S
C1091 H1093 0.952 . S
C1092 N1087 1.332 . S
C1092 C1088 1.382 . S
C1092 H1094 0.948 . S
H1093 C1091 0.952 . S
H1094 C1092 0.948 . S
H1095 C1084 0.952 . S
H1096 C1086 0.948 . S
C1097 C1063 1.395 . S
C1097 C1067 1.391 . S
C1098 C1060 1.389 . S
C1098 C1080 1.392 . S
C1099 C1070 1.392 . S
C1099 C1072 1.389 . S
C1100 C1075 1.395 . S
C1100 C1077 1.391 . S
H1101 C1061 0.951 . S
H1102 C1062 0.950 . S
H1103 C1068 0.949 . S
H1104 C1069 0.950 . S
H1105 C1073 0.951 . S
H1106 C1074 0.950 . S
H1107 C1078 0.949 . S
H1108 C1079 0.950 . S
H1109 C1083 0.950 . S
H1110 C1085 0.950 . S
H1111 C1088 0.950 . S
H1112 C1090 0.950 . S
C1113 C1114 1.443 . S
C1113 N1117 1.376 . S
C1113 C1151 1.389 . S
C1114 C1113 1.443 . S
C1114 C1115 1.340 . S
C1114 H1154 0.951 . S
C1115 C1114 1.340 . S
C1115 C1116 1.439 . S
C1115 H1155 0.950 . S
C1116 C1115 1.439 . S
C1116 N1117 1.374 . S
C1116 C1150 1.395 . S
N1117 C1113 1.376 . S
N1117 C1116 1.374 . S
N1117 Co1118 2.008 . S
Co1118 N1117 2.008 . S
Co1118 N1119 1.995 . S
Co1118 N1124 2.008 . S
Co1118 N1129 1.995 . S
Co1118 N1134 2.282 . S
Co1118 N1140 2.282 . S
N1119 Co1118 1.995 . S
N1119 C1120 1.376 . S
N1119 C1123 1.383 . S
C1120 N1119 1.376 . S
C1120 C1121 1.446 . S
C1120 C1150 1.391 . S
C1121 C1120 1.446 . S
C1121 C1122 1.339 . S
C1121 H1156 0.949 . S
C1122 C1121 1.339 . S
C1122 C1123 1.439 . S
C1122 H1157 0.950 . S
C1123 N1119 1.383 . S
C1123 C1122 1.439 . S
C1123 C1152 1.392 . S
N1124 Co1118 2.008 . S
N1124 C1125 1.376 . S
N1124 C1128 1.374 . S
C1125 N1124 1.376 . S
C1125 C1126 1.443 . S
C1125 C1152 1.389 . S
C1126 C1125 1.443 . S
C1126 C1127 1.340 . S
C1126 H1158 0.951 . S
C1127 C1126 1.340 . S
C1127 C1128 1.439 . S
C1127 H1159 0.950 . S
C1128 N1124 1.374 . S
C1128 C1127 1.439 . S
C1128 C1153 1.395 . S
N1129 Co1118 1.995 . S
N1129 C1130 1.376 . S
N1129 C1133 1.383 . S
C1130 N1129 1.376 . S
C1130 C1131 1.446 . S
C1130 C1153 1.391 . S
C1131 C1130 1.446 . S
C1131 C1132 1.339 . S
C1131 H1160 0.949 . S
C1132 C1131 1.339 . S
C1132 C1133 1.439 . S
C1132 H1161 0.950 . S
C1133 N1129 1.383 . S
C1133 C1132 1.439 . S
C1133 C1151 1.392 . S
N1134 Co1118 2.282 . S
N1134 C1137 1.332 . S
N1134 C1139 1.332 . S
C1135 C1136 1.386 . S
C1135 C1138 1.388 . S
C1136 C1135 1.386 . S
C1136 C1137 1.382 . S
C1136 H1162 0.950 . S
C1137 N1134 1.332 . S
C1137 C1136 1.382 . S
C1137 H1148 0.952 . S
C1138 C1135 1.388 . S
C1138 C1139 1.382 . S
C1138 H1163 0.950 . S
C1139 N1134 1.332 . S
C1139 C1138 1.382 . S
C1139 H1149 0.948 . S
N1140 Co1118 2.282 . S
N1140 C1144 1.332 . S
N1140 C1145 1.332 . S
C1141 C1142 1.388 . S
C1141 C1145 1.382 . S
C1141 H1164 0.950 . S
C1142 C1141 1.388 . S
C1142 C1143 1.386 . S
C1143 C1142 1.386 . S
C1143 C1144 1.382 . S
C1143 H1165 0.950 . S
C1144 N1140 1.332 . S
C1144 C1143 1.382 . S
C1144 H1146 0.952 . S
C1145 N1140 1.332 . S
C1145 C1141 1.382 . S
C1145 H1147 0.948 . S
H1146 C1144 0.952 . S
H1147 C1145 0.948 . S
H1148 C1137 0.952 . S
H1149 C1139 0.948 . S
C1150 C1116 1.395 . S
C1150 C1120 1.391 . S
C1151 C1113 1.389 . S
C1151 C1133 1.392 . S
C1152 C1123 1.392 . S
C1152 C1125 1.389 . S
C1153 C1128 1.395 . S
C1153 C1130 1.391 . S
H1154 C1114 0.951 . S
H1155 C1115 0.950 . S
H1156 C1121 0.949 . S
H1157 C1122 0.950 . S
H1158 C1126 0.951 . S
H1159 C1127 0.950 . S
H1160 C1131 0.949 . S
H1161 C1132 0.950 . S
H1162 C1136 0.950 . S
H1163 C1138 0.950 . S
H1164 C1141 0.950 . S
H1165 C1143 0.950 . S
C1166 C1167 1.443 . S
C1166 N1170 1.376 . S
C1166 C1204 1.389 . S
C1167 C1166 1.443 . S
C1167 C1168 1.340 . S
C1167 H1207 0.951 . S
C1168 C1167 1.340 . S
C1168 C1169 1.439 . S
C1168 H1208 0.950 . S
C1169 C1168 1.439 . S
C1169 N1170 1.374 . S
C1169 C1203 1.395 . S
N1170 C1166 1.376 . S
N1170 C1169 1.374 . S
N1170 Co1171 2.008 . S
Co1171 N1170 2.008 . S
Co1171 N1172 1.995 . S
Co1171 N1177 2.008 . S
Co1171 N1182 1.995 . S
Co1171 N1187 2.282 . S
Co1171 N1193 2.282 . S
N1172 Co1171 1.995 . S
N1172 C1173 1.376 . S
N1172 C1176 1.383 . S
C1173 N1172 1.376 . S
C1173 C1174 1.446 . S
C1173 C1203 1.391 . S
C1174 C1173 1.446 . S
C1174 C1175 1.339 . S
C1174 H1209 0.949 . S
C1175 C1174 1.339 . S
C1175 C1176 1.439 . S
C1175 H1210 0.950 . S
C1176 N1172 1.383 . S
C1176 C1175 1.439 . S
C1176 C1205 1.392 . S
N1177 Co1171 2.008 . S
N1177 C1178 1.376 . S
N1177 C1181 1.374 . S
C1178 N1177 1.376 . S
C1178 C1179 1.443 . S
C1178 C1205 1.389 . S
C1179 C1178 1.443 . S
C1179 C1180 1.340 . S
C1179 H1211 0.951 . S
C1180 C1179 1.340 . S
C1180 C1181 1.439 . S
C1180 H1212 0.950 . S
C1181 N1177 1.374 . S
C1181 C1180 1.439 . S
C1181 C1206 1.395 . S
N1182 Co1171 1.995 . S
N1182 C1183 1.376 . S
N1182 C1186 1.383 . S
C1183 N1182 1.376 . S
C1183 C1184 1.446 . S
C1183 C1206 1.391 . S
C1184 C1183 1.446 . S
C1184 C1185 1.339 . S
C1184 H1213 0.949 1_655 S
C1185 C1184 1.339 . S
C1185 C1186 1.439 . S
C1185 H1214 0.926 1_655 S
C1186 N1182 1.383 . S
C1186 C1185 1.439 . S
C1186 C1204 1.392 . S
N1187 Co1171 2.282 . S
N1187 C1190 1.332 . S
N1187 C1192 1.332 . S
C1188 C1189 1.386 . S
C1188 C1191 1.388 . S
C1189 C1188 1.386 . S
C1189 C1190 1.382 . S
C1189 H1215 0.950 . S
C1190 N1187 1.332 . S
C1190 C1189 1.382 . S
C1190 H1201 0.952 . S
C1191 C1188 1.388 . S
C1191 C1192 1.382 . S
C1191 H1216 0.950 . S
C1192 N1187 1.332 . S
C1192 C1191 1.382 . S
C1192 H1202 0.948 . S
N1193 Co1171 2.282 . S
N1193 C1197 1.332 . S
N1193 C1198 1.332 . S
C1194 C1195 1.388 . S
C1194 C1198 1.382 . S
C1194 H1217 0.950 . S
C1195 C1194 1.388 . S
C1195 C1196 1.386 . S
C1196 C1195 1.386 . S
C1196 C1197 1.382 . S
C1196 H1218 0.950 . S
C1197 N1193 1.332 . S
C1197 C1196 1.382 . S
C1197 H1199 0.952 . S
C1198 N1193 1.332 . S
C1198 C1194 1.382 . S
C1198 H1200 0.948 . S
H1199 C1197 0.952 . S
H1200 C1198 0.948 . S
H1201 C1190 0.952 . S
H1202 C1192 0.948 . S
C1203 C1169 1.395 . S
C1203 C1173 1.391 . S
C1204 C1166 1.389 . S
C1204 C1186 1.392 . S
C1205 C1176 1.392 . S
C1205 C1178 1.389 . S
C1206 C1181 1.395 . S
C1206 C1183 1.391 . S
H1207 C1167 0.951 . S
H1208 C1168 0.950 . S
H1209 C1174 0.949 . S
H1210 C1175 0.950 . S
H1211 C1179 0.951 . S
H1212 C1180 0.950 . S
H1213 C1184 0.949 1_455 S
H1214 C1185 0.926 1_455 S
H1215 C1189 0.950 . S
H1216 C1191 0.950 . S
H1217 C1194 0.950 . S
H1218 C1196 0.950 . S
C1219 C1220 1.443 . S
C1219 N1223 1.376 . S
C1219 C1257 1.389 . S
C1220 C1219 1.443 . S
C1220 C1221 1.340 . S
C1220 H1260 0.951 . S
C1221 C1220 1.340 . S
C1221 C1222 1.439 . S
C1221 H1261 0.950 . S
C1222 C1221 1.439 . S
C1222 N1223 1.374 . S
C1222 C1256 1.395 . S
N1223 C1219 1.376 . S
N1223 C1222 1.374 . S
N1223 Co1224 2.008 1_565 S
Co1224 N1223 2.008 1_545 S
Co1224 N1225 1.995 . S
Co1224 N1230 2.008 . S
Co1224 N1235 1.995 1_545 S
Co1224 N1240 2.282 1_545 S
Co1224 N1246 2.282 . S
N1225 Co1224 1.995 . S
N1225 C1226 1.376 . S
N1225 C1229 1.383 . S
C1226 N1225 1.376 . S
C1226 C1227 1.446 . S
C1226 C1256 1.391 1_545 S
C1227 C1226 1.446 . S
C1227 C1228 1.339 . S
C1227 H1262 0.949 . S
C1228 C1227 1.339 . S
C1228 C1229 1.439 . S
C1228 H1263 0.950 . S
C1229 N1225 1.383 . S
C1229 C1228 1.439 . S
C1229 C1258 1.392 . S
N1230 Co1224 2.008 . S
N1230 C1231 1.376 . S
N1230 C1234 1.374 . S
C1231 N1230 1.376 . S
C1231 C1232 1.443 . S
C1231 C1258 1.389 . S
C1232 C1231 1.443 . S
C1232 C1233 1.340 . S
C1232 H1264 0.951 . S
C1233 C1232 1.340 . S
C1233 C1234 1.439 . S
C1233 H1265 0.950 . S
C1234 N1230 1.374 . S
C1234 C1233 1.439 . S
C1234 C1259 1.395 . S
N1235 Co1224 1.995 1_565 S
N1235 C1236 1.376 1_565 S
N1235 C1239 1.383 . S
C1236 N1235 1.376 1_545 S
C1236 C1237 1.446 1_545 S
C1236 C1259 1.391 . S
C1237 C1236 1.446 1_565 S
C1237 C1238 1.339 . S
C1237 H1266 0.949 1_455 S
C1238 C1237 1.339 . S
C1238 C1239 1.439 . S
C1238 H1267 0.928 1_455 S
C1239 N1235 1.383 . S
C1239 C1238 1.439 . S
C1239 C1257 1.392 . S
N1240 Co1224 2.282 1_565 S
N1240 C1243 1.332 . S
N1240 C1245 1.332 . S
C1241 C1242 1.386 . S
C1241 C1244 1.388 . S
C1242 C1241 1.386 . S
C1242 C1243 1.382 . S
C1242 H1268 0.950 . S
C1243 N1240 1.332 . S
C1243 C1242 1.382 . S
C1243 H1254 0.952 . S
C1244 C1241 1.388 . S
C1244 C1245 1.382 . S
C1244 H1269 0.950 . S
C1245 N1240 1.332 . S
C1245 C1244 1.382 . S
C1245 H1255 0.948 . S
N1246 Co1224 2.282 . S
N1246 C1250 1.332 . S
N1246 C1251 1.332 . S
C1247 C1248 1.388 . S
C1247 C1251 1.382 . S
C1247 H1270 0.950 . S
C1248 C1247 1.388 . S
C1248 C1249 1.386 . S
C1249 C1248 1.386 . S
C1249 C1250 1.382 . S
C1249 H1271 0.950 . S
C1250 N1246 1.332 . S
C1250 C1249 1.382 . S
C1250 H1252 0.952 . S
C1251 N1246 1.332 . S
C1251 C1247 1.382 . S
C1251 H1253 0.948 . S
H1252 C1250 0.952 . S
H1253 C1251 0.948 . S
H1254 C1243 0.952 . S
H1255 C1245 0.948 . S
C1256 C1222 1.395 . S
C1256 C1226 1.391 1_565 S
C1257 C1219 1.389 . S
C1257 C1239 1.392 . S
C1258 C1229 1.392 . S
C1258 C1231 1.389 . S
C1259 C1234 1.395 . S
C1259 C1236 1.391 . S
H1260 C1220 0.951 . S
H1261 C1221 0.950 . S
H1262 C1227 0.949 . S
H1263 C1228 0.950 . S
H1264 C1232 0.951 . S
H1265 C1233 0.950 . S
H1266 C1237 0.949 1_655 S
H1267 C1238 0.928 1_655 S
H1268 C1242 0.950 . S
H1269 C1244 0.950 . S
H1270 C1247 0.950 . S
H1271 C1249 0.950 . S
C1272 C1273 1.443 . S
C1272 N1276 1.376 . S
C1272 C1310 1.389 . S
C1273 C1272 1.443 . S
C1273 C1274 1.340 . S
C1273 H1313 0.951 . S
C1274 C1273 1.340 . S
C1274 C1275 1.439 . S
C1274 H1314 0.950 . S
C1275 C1274 1.439 . S
C1275 N1276 1.374 . S
C1275 C1309 1.395 . S
N1276 C1272 1.376 . S
N1276 C1275 1.374 . S
N1276 Co1277 2.008 . S
Co1277 N1276 2.008 . S
Co1277 N1278 1.995 . S
Co1277 N1283 2.008 . S
Co1277 N1288 1.995 . S
Co1277 N1293 2.282 . S
Co1277 N1299 2.282 . S
N1278 Co1277 1.995 . S
N1278 C1279 1.376 . S
N1278 C1282 1.383 . S
C1279 N1278 1.376 . S
C1279 C1280 1.446 . S
C1279 C1309 1.391 . S
C1280 C1279 1.446 . S
C1280 C1281 1.339 . S
C1280 H1315 0.949 . S
C1281 C1280 1.339 . S
C1281 C1282 1.439 . S
C1281 H1316 0.950 . S
C1282 N1278 1.383 . S
C1282 C1281 1.439 . S
C1282 C1311 1.392 . S
N1283 Co1277 2.008 . S
N1283 C1284 1.376 . S
N1283 C1287 1.374 . S
C1284 N1283 1.376 . S
C1284 C1285 1.443 . S
C1284 C1311 1.389 . S
C1285 C1284 1.443 . S
C1285 C1286 1.340 . S
C1285 H1317 0.951 . S
C1286 C1285 1.340 . S
C1286 C1287 1.439 . S
C1286 H1318 0.950 . S
C1287 N1283 1.374 . S
C1287 C1286 1.439 . S
C1287 C1312 1.395 . S
N1288 Co1277 1.995 . S
N1288 C1289 1.376 . S
N1288 C1292 1.383 . S
C1289 N1288 1.376 . S
C1289 C1290 1.446 . S
C1289 C1312 1.391 . S
C1290 C1289 1.446 . S
C1290 C1291 1.339 . S
C1290 H1319 0.949 . S
C1291 C1290 1.339 . S
C1291 C1292 1.439 . S
C1291 H1320 0.950 . S
C1292 N1288 1.383 . S
C1292 C1291 1.439 . S
C1292 C1310 1.392 . S
N1293 Co1277 2.282 . S
N1293 C1296 1.332 . S
N1293 C1298 1.332 . S
C1294 C1295 1.386 . S
C1294 C1297 1.388 . S
C1295 C1294 1.386 . S
C1295 C1296 1.382 . S
C1295 H1321 0.950 . S
C1296 N1293 1.332 . S
C1296 C1295 1.382 . S
C1296 H1307 0.952 . S
C1297 C1294 1.388 . S
C1297 C1298 1.382 . S
C1297 H1322 0.950 . S
C1298 N1293 1.332 . S
C1298 C1297 1.382 . S
C1298 H1308 0.948 . S
N1299 Co1277 2.282 . S
N1299 C1303 1.332 . S
N1299 C1304 1.332 . S
C1300 C1301 1.388 . S
C1300 C1304 1.382 . S
C1300 H1323 0.950 . S
C1301 C1300 1.388 . S
C1301 C1302 1.386 . S
C1302 C1301 1.386 . S
C1302 C1303 1.382 . S
C1302 H1324 0.950 . S
C1303 N1299 1.332 . S
C1303 C1302 1.382 . S
C1303 H1305 0.952 . S
C1304 N1299 1.332 . S
C1304 C1300 1.382 . S
C1304 H1306 0.948 . S
H1305 C1303 0.952 . S
H1306 C1304 0.948 . S
H1307 C1296 0.952 . S
H1308 C1298 0.948 . S
C1309 C1275 1.395 . S
C1309 C1279 1.391 . S
C1310 C1272 1.389 . S
C1310 C1292 1.392 . S
C1311 C1282 1.392 . S
C1311 C1284 1.389 . S
C1312 C1287 1.395 . S
C1312 C1289 1.391 . S
H1313 C1273 0.951 . S
H1314 C1274 0.950 . S
H1315 C1280 0.949 . S
H1316 C1281 0.950 . S
H1317 C1285 0.951 . S
H1318 C1286 0.950 . S
H1319 C1290 0.949 . S
H1320 C1291 0.950 . S
H1321 C1295 0.950 . S
H1322 C1297 0.950 . S
H1323 C1300 0.950 . S
H1324 C1302 0.950 . S
C1325 C1326 1.443 . S
C1325 N1329 1.376 . S
C1325 C1363 1.389 . S
C1326 C1325 1.443 . S
C1326 C1327 1.340 . S
C1326 H1366 0.951 . S
C1327 C1326 1.340 . S
C1327 C1328 1.439 . S
C1327 H1367 0.950 . S
C1328 C1327 1.439 . S
C1328 N1329 1.374 . S
C1328 C1362 1.395 . S
N1329 C1325 1.376 . S
N1329 C1328 1.374 . S
N1329 Co1330 2.008 1_455 S
Co1330 N1329 2.008 1_655 S
Co1330 N1331 1.995 . S
Co1330 N1336 2.008 . S
Co1330 N1341 1.995 1_655 S
Co1330 N1346 2.282 1_655 S
Co1330 N1352 2.282 . S
N1331 Co1330 1.995 . S
N1331 C1332 1.376 . S
N1331 C1335 1.383 . S
C1332 N1331 1.376 . S
C1332 C1333 1.446 . S
C1332 C1362 1.391 1_655 S
C1333 C1332 1.446 . S
C1333 C1334 1.339 . S
C1333 H1368 0.949 . S
C1334 C1333 1.339 . S
C1334 C1335 1.439 . S
C1334 H1369 0.950 . S
C1335 N1331 1.383 . S
C1335 C1334 1.439 . S
C1335 C1364 1.392 . S
N1336 Co1330 2.008 . S
N1336 C1337 1.376 . S
N1336 C1340 1.374 . S
C1337 N1336 1.376 . S
C1337 C1338 1.443 . S
C1337 C1364 1.389 . S
C1338 C1337 1.443 . S
C1338 C1339 1.340 . S
C1338 H1370 0.951 . S
C1339 C1338 1.340 . S
C1339 C1340 1.439 . S
C1339 H1371 0.950 . S
C1340 N1336 1.374 . S
C1340 C1339 1.439 . S
C1340 C1365 1.395 . S
N1341 Co1330 1.995 1_455 S
N1341 C1342 1.376 1_455 S
N1341 C1345 1.383 . S
C1342 N1341 1.376 1_655 S
C1342 C1343 1.446 1_655 S
C1342 C1365 1.391 . S
C1343 C1342 1.446 1_455 S
C1343 C1344 1.339 . S
C1343 H1372 0.949 . S
C1344 C1343 1.339 . S
C1344 C1345 1.439 . S
C1344 H1373 0.950 . S
C1345 N1341 1.383 . S
C1345 C1344 1.439 . S
C1345 C1363 1.392 . S
N1346 Co1330 2.282 1_455 S
N1346 C1349 1.332 . S
N1346 C1351 1.332 . S
C1347 C1348 1.386 . S
C1347 C1350 1.388 . S
C1348 C1347 1.386 . S
C1348 C1349 1.382 . S
C1348 H1374 0.950 . S
C1349 N1346 1.332 . S
C1349 C1348 1.382 . S
C1349 H1360 0.952 . S
C1350 C1347 1.388 . S
C1350 C1351 1.382 . S
C1350 H1375 0.950 . S
C1351 N1346 1.332 . S
C1351 C1350 1.382 . S
C1351 H1361 0.948 . S
N1352 Co1330 2.282 . S
N1352 C1356 1.332 . S
N1352 C1357 1.332 . S
C1353 C1354 1.388 . S
C1353 C1357 1.382 . S
C1353 H1376 0.950 . S
C1354 C1353 1.388 . S
C1354 C1355 1.386 . S
C1355 C1354 1.386 . S
C1355 C1356 1.382 . S
C1355 H1377 0.950 . S
C1356 N1352 1.332 . S
C1356 C1355 1.382 . S
C1356 H1358 0.952 . S
C1357 N1352 1.332 . S
C1357 C1353 1.382 . S
C1357 H1359 0.948 . S
H1358 C1356 0.952 . S
H1359 C1357 0.948 . S
H1360 C1349 0.952 . S
H1361 C1351 0.948 . S
C1362 C1328 1.395 . S
C1362 C1332 1.391 1_455 S
C1363 C1325 1.389 . S
C1363 C1345 1.392 . S
C1364 C1335 1.392 . S
C1364 C1337 1.389 . S
C1365 C1340 1.395 . S
C1365 C1342 1.391 . S
H1366 C1326 0.951 . S
H1367 C1327 0.950 . S
H1368 C1333 0.949 . S
H1369 C1334 0.950 . S
H1370 C1338 0.951 . S
H1371 C1339 0.950 . S
H1372 C1343 0.949 . S
H1373 C1344 0.950 . S
H1374 C1348 0.950 . S
H1375 C1350 0.950 . S
H1376 C1353 0.950 . S
H1377 C1355 0.950 . S
C1378 C1379 1.443 . S
C1378 N1382 1.376 . S
C1378 C1416 1.389 . S
C1379 C1378 1.443 . S
C1379 C1380 1.340 . S
C1379 H1419 0.951 . S
C1380 C1379 1.340 . S
C1380 C1381 1.439 . S
C1380 H1420 0.950 . S
C1381 C1380 1.439 . S
C1381 N1382 1.374 . S
C1381 C1415 1.395 . S
N1382 C1378 1.376 . S
N1382 C1381 1.374 . S
N1382 Co1383 2.008 . S
Co1383 N1382 2.008 . S
Co1383 N1384 1.995 . S
Co1383 N1389 2.008 . S
Co1383 N1394 1.995 . S
Co1383 N1399 2.282 . S
Co1383 N1405 2.282 . S
N1384 Co1383 1.995 . S
N1384 C1385 1.376 . S
N1384 C1388 1.383 . S
C1385 N1384 1.376 . S
C1385 C1386 1.446 . S
C1385 C1415 1.391 . S
C1386 C1385 1.446 . S
C1386 C1387 1.339 . S
C1386 H1421 0.949 . S
C1387 C1386 1.339 . S
C1387 C1388 1.439 . S
C1387 H1422 0.950 . S
C1388 N1384 1.383 . S
C1388 C1387 1.439 . S
C1388 C1417 1.392 . S
N1389 Co1383 2.008 . S
N1389 C1390 1.376 . S
N1389 C1393 1.374 . S
C1390 N1389 1.376 . S
C1390 C1391 1.443 . S
C1390 C1417 1.389 . S
C1391 C1390 1.443 . S
C1391 C1392 1.340 . S
C1391 H1423 0.951 . S
C1392 C1391 1.340 . S
C1392 C1393 1.439 . S
C1392 H1424 0.950 . S
C1393 N1389 1.374 . S
C1393 C1392 1.439 . S
C1393 C1418 1.395 . S
N1394 Co1383 1.995 . S
N1394 C1395 1.376 . S
N1394 C1398 1.383 . S
C1395 N1394 1.376 . S
C1395 C1396 1.446 . S
C1395 C1418 1.391 . S
C1396 C1395 1.446 . S
C1396 C1397 1.339 . S
C1396 H1425 0.949 . S
C1397 C1396 1.339 . S
C1397 C1398 1.439 . S
C1397 H1426 0.950 . S
C1398 N1394 1.383 . S
C1398 C1397 1.439 . S
C1398 C1416 1.392 . S
N1399 Co1383 2.282 . S
N1399 C1402 1.332 . S
N1399 C1404 1.332 . S
C1400 C1401 1.386 . S
C1400 C1403 1.388 . S
C1401 C1400 1.386 . S
C1401 C1402 1.382 . S
C1401 H1427 0.950 . S
C1402 N1399 1.332 . S
C1402 C1401 1.382 . S
C1402 H1413 0.952 . S
C1403 C1400 1.388 . S
C1403 C1404 1.382 . S
C1403 H1428 0.950 . S
C1404 N1399 1.332 . S
C1404 C1403 1.382 . S
C1404 H1414 0.948 . S
N1405 Co1383 2.282 . S
N1405 C1409 1.332 . S
N1405 C1410 1.332 . S
C1406 C1407 1.388 . S
C1406 C1410 1.382 . S
C1406 H1429 0.950 . S
C1407 C1406 1.388 . S
C1407 C1408 1.386 . S
C1408 C1407 1.386 . S
C1408 C1409 1.382 . S
C1408 H1430 0.950 . S
C1409 N1405 1.332 . S
C1409 C1408 1.382 . S
C1409 H1411 0.952 . S
C1410 N1405 1.332 . S
C1410 C1406 1.382 . S
C1410 H1412 0.948 . S
H1411 C1409 0.952 . S
H1412 C1410 0.948 . S
H1413 C1402 0.952 . S
H1414 C1404 0.948 . S
C1415 C1381 1.395 . S
C1415 C1385 1.391 . S
C1416 C1378 1.389 . S
C1416 C1398 1.392 . S
C1417 C1388 1.392 . S
C1417 C1390 1.389 . S
C1418 C1393 1.395 . S
C1418 C1395 1.391 . S
H1419 C1379 0.951 . S
H1420 C1380 0.950 . S
H1421 C1386 0.949 . S
H1422 C1387 0.950 . S
H1423 C1391 0.951 . S
H1424 C1392 0.950 . S
H1425 C1396 0.949 . S
H1426 C1397 0.950 . S
H1427 C1401 0.950 . S
H1428 C1403 0.950 . S
H1429 C1406 0.950 . S
H1430 C1408 0.950 . S
C1431 C1432 1.443 . S
C1431 N1435 1.376 . S
C1431 C1469 1.389 . S
C1432 C1431 1.443 . S
C1432 C1433 1.340 . S
C1432 H1472 0.951 . S
C1433 C1432 1.340 . S
C1433 C1434 1.439 . S
C1433 H1473 0.950 . S
C1434 C1433 1.439 . S
C1434 N1435 1.374 . S
C1434 C1468 1.395 . S
N1435 C1431 1.376 . S
N1435 C1434 1.374 . S
N1435 Co1436 2.008 1_655 S
Co1436 N1435 2.008 1_455 S
Co1436 N1437 1.995 . S
Co1436 N1442 2.008 . S
Co1436 N1447 1.995 1_455 S
Co1436 N1452 2.282 1_455 S
Co1436 N1458 2.282 . S
N1437 Co1436 1.995 . S
N1437 C1438 1.376 . S
N1437 C1441 1.383 . S
C1438 N1437 1.376 . S
C1438 C1439 1.446 . S
C1438 C1468 1.391 1_455 S
C1439 C1438 1.446 . S
C1439 C1440 1.339 . S
C1439 H1474 0.949 . S
C1440 C1439 1.339 . S
C1440 C1441 1.439 . S
C1440 H1475 0.950 . S
C1441 N1437 1.383 . S
C1441 C1440 1.439 . S
C1441 C1470 1.392 . S
N1442 Co1436 2.008 . S
N1442 C1443 1.376 . S
N1442 C1446 1.374 . S
C1443 N1442 1.376 . S
C1443 C1444 1.443 . S
C1443 C1470 1.389 . S
C1444 C1443 1.443 . S
C1444 C1445 1.340 . S
C1444 H1476 0.951 . S
C1445 C1444 1.340 . S
C1445 C1446 1.439 . S
C1445 H1477 0.950 . S
C1446 N1442 1.374 . S
C1446 C1445 1.439 . S
C1446 C1471 1.395 . S
N1447 Co1436 1.995 1_655 S
N1447 C1448 1.376 1_655 S
N1447 C1451 1.383 . S
C1448 N1447 1.376 1_455 S
C1448 C1449 1.446 1_455 S
C1448 C1471 1.391 . S
C1449 C1448 1.446 1_655 S
C1449 C1450 1.339 . S
C1449 H1478 0.949 . S
C1450 C1449 1.339 . S
C1450 C1451 1.439 . S
C1450 H1479 0.950 . S
C1451 N1447 1.383 . S
C1451 C1450 1.439 . S
C1451 C1469 1.392 . S
N1452 Co1436 2.282 1_655 S
N1452 C1455 1.332 . S
N1452 C1457 1.332 . S
C1453 C1454 1.386 . S
C1453 C1456 1.388 . S
C1454 C1453 1.386 . S
C1454 C1455 1.382 . S
C1454 H1480 0.950 . S
C1455 N1452 1.332 . S
C1455 C1454 1.382 . S
C1455 H1466 0.952 . S
C1456 C1453 1.388 . S
C1456 C1457 1.382 . S
C1456 H1481 0.950 . S
C1457 N1452 1.332 . S
C1457 C1456 1.382 . S
C1457 H1467 0.948 . S
N1458 Co1436 2.282 . S
N1458 C1462 1.332 . S
N1458 C1463 1.332 . S
C1459 C1460 1.388 . S
C1459 C1463 1.382 . S
C1459 H1482 0.950 . S
C1460 C1459 1.388 . S
C1460 C1461 1.386 . S
C1461 C1460 1.386 . S
C1461 C1462 1.382 . S
C1461 H1483 0.950 . S
C1462 N1458 1.332 . S
C1462 C1461 1.382 . S
C1462 H1464 0.952 . S
C1463 N1458 1.332 . S
C1463 C1459 1.382 . S
C1463 H1465 0.948 . S
H1464 C1462 0.952 . S
H1465 C1463 0.948 . S
H1466 C1455 0.952 . S
H1467 C1457 0.948 . S
C1468 C1434 1.395 . S
C1468 C1438 1.391 1_655 S
C1469 C1431 1.389 . S
C1469 C1451 1.392 . S
C1470 C1441 1.392 . S
C1470 C1443 1.389 . S
C1471 C1446 1.395 . S
C1471 C1448 1.391 . S
H1472 C1432 0.951 . S
H1473 C1433 0.950 . S
H1474 C1439 0.949 . S
H1475 C1440 0.950 . S
H1476 C1444 0.951 . S
H1477 C1445 0.950 . S
H1478 C1449 0.949 . S
H1479 C1450 0.950 . S
H1480 C1454 0.950 . S
H1481 C1456 0.950 . S
H1482 C1459 0.950 . S
H1483 C1461 0.950 . S
C1484 C1485 1.443 . S
C1484 N1488 1.376 . S
C1484 C1522 1.389 . S
C1485 C1484 1.443 . S
C1485 C1486 1.340 . S
C1485 H1525 0.951 . S
C1486 C1485 1.340 . S
C1486 C1487 1.439 . S
C1486 H1526 0.950 . S
C1487 C1486 1.439 . S
C1487 N1488 1.374 . S
C1487 C1521 1.395 . S
N1488 C1484 1.376 . S
N1488 C1487 1.374 . S
N1488 Co1489 2.008 . S
Co1489 N1488 2.008 . S
Co1489 N1490 1.995 . S
Co1489 N1495 2.008 . S
Co1489 N1500 1.995 . S
Co1489 N1505 2.282 . S
Co1489 N1511 2.282 . S
N1490 Co1489 1.995 . S
N1490 C1491 1.376 . S
N1490 C1494 1.383 . S
C1491 N1490 1.376 . S
C1491 C1492 1.446 . S
C1491 C1521 1.391 . S
C1492 C1491 1.446 . S
C1492 C1493 1.339 . S
C1492 H1527 0.949 . S
C1493 C1492 1.339 . S
C1493 C1494 1.439 . S
C1493 H1528 0.950 . S
C1494 N1490 1.383 . S
C1494 C1493 1.439 . S
C1494 C1523 1.392 . S
N1495 Co1489 2.008 . S
N1495 C1496 1.376 . S
N1495 C1499 1.374 . S
C1496 N1495 1.376 . S
C1496 C1497 1.443 . S
C1496 C1523 1.389 . S
C1497 C1496 1.443 . S
C1497 C1498 1.340 . S
C1497 H1529 0.951 . S
C1498 C1497 1.340 . S
C1498 C1499 1.439 . S
C1498 H1530 0.950 . S
C1499 N1495 1.374 . S
C1499 C1498 1.439 . S
C1499 C1524 1.395 . S
N1500 Co1489 1.995 . S
N1500 C1501 1.376 . S
N1500 C1504 1.383 . S
C1501 N1500 1.376 . S
C1501 C1502 1.446 . S
C1501 C1524 1.391 . S
C1502 C1501 1.446 . S
C1502 C1503 1.339 . S
C1502 H1531 0.949 . S
C1503 C1502 1.339 . S
C1503 C1504 1.439 . S
C1503 H1532 0.950 . S
C1504 N1500 1.383 . S
C1504 C1503 1.439 . S
C1504 C1522 1.392 . S
N1505 Co1489 2.282 . S
N1505 C1508 1.332 . S
N1505 C1510 1.332 . S
C1506 C1507 1.386 . S
C1506 C1509 1.388 . S
C1507 C1506 1.386 . S
C1507 C1508 1.382 . S
C1507 H1533 0.950 . S
C1508 N1505 1.332 . S
C1508 C1507 1.382 . S
C1508 H1519 0.952 . S
C1509 C1506 1.388 . S
C1509 C1510 1.382 . S
C1509 H1534 0.950 . S
C1510 N1505 1.332 . S
C1510 C1509 1.382 . S
C1510 H1520 0.948 . S
N1511 Co1489 2.282 . S
N1511 C1515 1.332 . S
N1511 C1516 1.332 . S
C1512 C1513 1.388 . S
C1512 C1516 1.382 . S
C1512 H1535 0.950 . S
C1513 C1512 1.388 . S
C1513 C1514 1.386 . S
C1514 C1513 1.386 . S
C1514 C1515 1.382 . S
C1514 H1536 0.950 . S
C1515 N1511 1.332 . S
C1515 C1514 1.382 . S
C1515 H1517 0.952 . S
C1516 N1511 1.332 . S
C1516 C1512 1.382 . S
C1516 H1518 0.948 . S
H1517 C1515 0.952 . S
H1518 C1516 0.948 . S
H1519 C1508 0.952 . S
H1520 C1510 0.948 . S
C1521 C1487 1.395 . S
C1521 C1491 1.391 . S
C1522 C1484 1.389 . S
C1522 C1504 1.392 . S
C1523 C1494 1.392 . S
C1523 C1496 1.389 . S
C1524 C1499 1.395 . S
C1524 C1501 1.391 . S
H1525 C1485 0.951 . S
H1526 C1486 0.950 . S
H1527 C1492 0.949 . S
H1528 C1493 0.950 . S
H1529 C1497 0.951 . S
H1530 C1498 0.950 . S
H1531 C1502 0.949 . S
H1532 C1503 0.950 . S
H1533 C1507 0.950 . S
H1534 C1509 0.950 . S
H1535 C1512 0.950 . S
H1536 C1514 0.950 . S
C1537 C1538 1.443 . S
C1537 N1541 1.376 . S
C1537 C1575 1.389 . S
C1538 C1537 1.443 . S
C1538 C1539 1.340 . S
C1538 H1578 0.951 . S
C1539 C1538 1.340 . S
C1539 C1540 1.439 . S
C1539 H1579 0.950 . S
C1540 C1539 1.439 . S
C1540 N1541 1.374 . S
C1540 C1574 1.395 . S
N1541 C1537 1.376 . S
N1541 C1540 1.374 . S
N1541 Co1542 2.008 . S
Co1542 N1541 2.008 . S
Co1542 N1543 1.995 . S
Co1542 N1548 2.008 . S
Co1542 N1553 1.995 . S
Co1542 N1558 2.282 . S
Co1542 N1564 2.282 . S
N1543 Co1542 1.995 . S
N1543 C1544 1.376 . S
N1543 C1547 1.383 . S
C1544 N1543 1.376 . S
C1544 C1545 1.446 . S
C1544 C1574 1.391 . S
C1545 C1544 1.446 . S
C1545 C1546 1.339 . S
C1545 H1580 0.949 . S
C1546 C1545 1.339 . S
C1546 C1547 1.439 . S
C1546 H1581 0.950 . S
C1547 N1543 1.383 . S
C1547 C1546 1.439 . S
C1547 C1576 1.392 . S
N1548 Co1542 2.008 . S
N1548 C1549 1.376 . S
N1548 C1552 1.374 . S
C1549 N1548 1.376 . S
C1549 C1550 1.443 . S
C1549 C1576 1.389 . S
C1550 C1549 1.443 . S
C1550 C1551 1.340 . S
C1550 H1582 0.951 . S
C1551 C1550 1.340 . S
C1551 C1552 1.439 . S
C1551 H1583 0.950 . S
C1552 N1548 1.374 . S
C1552 C1551 1.439 . S
C1552 C1577 1.395 . S
N1553 Co1542 1.995 . S
N1553 C1554 1.376 . S
N1553 C1557 1.383 . S
C1554 N1553 1.376 . S
C1554 C1555 1.446 . S
C1554 C1577 1.391 . S
C1555 C1554 1.446 . S
C1555 C1556 1.339 . S
C1555 H1584 0.949 . S
C1556 C1555 1.339 . S
C1556 C1557 1.439 . S
C1556 H1585 0.950 . S
C1557 N1553 1.383 . S
C1557 C1556 1.439 . S
C1557 C1575 1.392 . S
N1558 Co1542 2.282 . S
N1558 C1561 1.332 . S
N1558 C1563 1.332 . S
C1559 C1560 1.386 . S
C1559 C1562 1.388 . S
C1560 C1559 1.386 . S
C1560 C1561 1.382 . S
C1560 H1586 0.950 . S
C1561 N1558 1.332 . S
C1561 C1560 1.382 . S
C1561 H1572 0.952 . S
C1562 C1559 1.388 . S
C1562 C1563 1.382 . S
C1562 H1587 0.950 . S
C1563 N1558 1.332 . S
C1563 C1562 1.382 . S
C1563 H1573 0.948 . S
N1564 Co1542 2.282 . S
N1564 C1568 1.332 . S
N1564 C1569 1.332 . S
C1565 C1566 1.388 . S
C1565 C1569 1.382 . S
C1565 H1588 0.950 . S
C1566 C1565 1.388 . S
C1566 C1567 1.386 . S
C1567 C1566 1.386 . S
C1567 C1568 1.382 . S
C1567 H1589 0.950 . S
C1568 N1564 1.332 . S
C1568 C1567 1.382 . S
C1568 H1570 0.952 . S
C1569 N1564 1.332 . S
C1569 C1565 1.382 . S
C1569 H1571 0.948 . S
H1570 C1568 0.952 . S
H1571 C1569 0.948 . S
H1572 C1561 0.952 . S
H1573 C1563 0.948 . S
C1574 C1540 1.395 . S
C1574 C1544 1.391 . S
C1575 C1537 1.389 . S
C1575 C1557 1.392 . S
C1576 C1547 1.392 . S
C1576 C1549 1.389 . S
C1577 C1552 1.395 . S
C1577 C1554 1.391 . S
H1578 C1538 0.951 . S
H1579 C1539 0.950 . S
H1580 C1545 0.949 . S
H1581 C1546 0.950 . S
H1582 C1550 0.951 . S
H1583 C1551 0.950 . S
H1584 C1555 0.949 . S
H1585 C1556 0.950 . S
H1586 C1560 0.950 . S
H1587 C1562 0.950 . S
H1588 C1565 0.950 . S
H1589 C1567 0.950 . S
C1590 C1591 1.443 . S
C1590 N1594 1.376 . S
C1590 C1628 1.389 . S
C1591 C1590 1.443 . S
C1591 C1592 1.340 . S
C1591 H1631 0.951 . S
C1592 C1591 1.340 . S
C1592 C1593 1.439 . S
C1592 H1632 0.950 . S
C1593 C1592 1.439 . S
C1593 N1594 1.374 . S
C1593 C1627 1.395 . S
N1594 C1590 1.376 . S
N1594 C1593 1.374 . S
N1594 Co1595 2.008 . S
Co1595 N1594 2.008 . S
Co1595 N1596 1.995 . S
Co1595 N1601 2.008 . S
Co1595 N1606 1.995 . S
Co1595 N1611 2.282 . S
Co1595 N1617 2.282 . S
N1596 Co1595 1.995 . S
N1596 C1597 1.376 . S
N1596 C1600 1.383 . S
C1597 N1596 1.376 . S
C1597 C1598 1.446 . S
C1597 C1627 1.391 . S
C1598 C1597 1.446 . S
C1598 C1599 1.339 . S
C1598 H1633 0.949 . S
C1599 C1598 1.339 . S
C1599 C1600 1.439 . S
C1599 H1634 0.950 . S
C1600 N1596 1.383 . S
C1600 C1599 1.439 . S
C1600 C1629 1.392 . S
N1601 Co1595 2.008 . S
N1601 C1602 1.376 . S
N1601 C1605 1.374 . S
C1602 N1601 1.376 . S
C1602 C1603 1.443 . S
C1602 C1629 1.389 . S
C1603 C1602 1.443 . S
C1603 C1604 1.340 . S
C1603 H1635 0.951 . S
C1604 C1603 1.340 . S
C1604 C1605 1.439 . S
C1604 H1636 0.950 . S
C1605 N1601 1.374 . S
C1605 C1604 1.439 . S
C1605 C1630 1.395 . S
N1606 Co1595 1.995 . S
N1606 C1607 1.376 . S
N1606 C1610 1.383 . S
C1607 N1606 1.376 . S
C1607 C1608 1.446 . S
C1607 C1630 1.391 . S
C1608 C1607 1.446 . S
C1608 C1609 1.339 . S
C1608 H1637 0.949 . S
C1609 C1608 1.339 . S
C1609 C1610 1.439 . S
C1609 H1638 0.950 . S
C1610 N1606 1.383 . S
C1610 C1609 1.439 . S
C1610 C1628 1.392 . S
N1611 Co1595 2.282 . S
N1611 C1614 1.332 . S
N1611 C1616 1.332 . S
C1612 C1613 1.386 . S
C1612 C1615 1.388 . S
C1613 C1612 1.386 . S
C1613 C1614 1.382 . S
C1613 H1639 0.950 . S
C1614 N1611 1.332 . S
C1614 C1613 1.382 . S
C1614 H1625 0.952 . S
C1615 C1612 1.388 . S
C1615 C1616 1.382 . S
C1615 H1640 0.950 . S
C1616 N1611 1.332 . S
C1616 C1615 1.382 . S
C1616 H1626 0.948 . S
N1617 Co1595 2.282 . S
N1617 C1621 1.332 . S
N1617 C1622 1.332 . S
C1618 C1619 1.388 . S
C1618 C1622 1.382 . S
C1618 H1641 0.950 . S
C1619 C1618 1.388 . S
C1619 C1620 1.386 . S
C1620 C1619 1.386 . S
C1620 C1621 1.382 . S
C1620 H1642 0.950 . S
C1621 N1617 1.332 . S
C1621 C1620 1.382 . S
C1621 H1623 0.952 . S
C1622 N1617 1.332 . S
C1622 C1618 1.382 . S
C1622 H1624 0.948 . S
H1623 C1621 0.952 . S
H1624 C1622 0.948 . S
H1625 C1614 0.952 . S
H1626 C1616 0.948 . S
C1627 C1593 1.395 . S
C1627 C1597 1.391 . S
C1628 C1590 1.389 . S
C1628 C1610 1.392 . S
C1629 C1600 1.392 . S
C1629 C1602 1.389 . S
C1630 C1605 1.395 . S
C1630 C1607 1.391 . S
H1631 C1591 0.951 . S
H1632 C1592 0.950 . S
H1633 C1598 0.949 . S
H1634 C1599 0.950 . S
H1635 C1603 0.951 . S
H1636 C1604 0.950 . S
H1637 C1608 0.949 . S
H1638 C1609 0.950 . S
H1639 C1613 0.950 . S
H1640 C1615 0.950 . S
H1641 C1618 0.950 . S
H1642 C1620 0.950 . S
C1643 C1644 1.443 . S
C1643 N1647 1.376 . S
C1643 C1681 1.389 . S
C1644 C1643 1.443 . S
C1644 C1645 1.340 . S
C1644 H1684 0.951 . S
C1645 C1644 1.340 . S
C1645 C1646 1.439 . S
C1645 H1685 0.950 . S
C1646 C1645 1.439 . S
C1646 N1647 1.374 . S
C1646 C1680 1.395 . S
N1647 C1643 1.376 . S
N1647 C1646 1.374 . S
N1647 Co1648 2.008 . S
Co1648 N1647 2.008 . S
Co1648 N1649 1.995 . S
Co1648 N1654 2.008 . S
Co1648 N1659 1.995 . S
Co1648 N1664 2.282 . S
Co1648 N1670 2.282 . S
N1649 Co1648 1.995 . S
N1649 C1650 1.376 . S
N1649 C1653 1.383 . S
C1650 N1649 1.376 . S
C1650 C1651 1.446 . S
C1650 C1680 1.391 . S
C1651 C1650 1.446 . S
C1651 C1652 1.339 . S
C1651 H1686 0.949 . S
C1652 C1651 1.339 . S
C1652 C1653 1.439 . S
C1652 H1687 0.950 . S
C1653 N1649 1.383 . S
C1653 C1652 1.439 . S
C1653 C1682 1.392 . S
N1654 Co1648 2.008 . S
N1654 C1655 1.376 . S
N1654 C1658 1.374 . S
C1655 N1654 1.376 . S
C1655 C1656 1.443 . S
C1655 C1682 1.389 . S
C1656 C1655 1.443 . S
C1656 C1657 1.340 . S
C1656 H1688 0.951 . S
C1657 C1656 1.340 . S
C1657 C1658 1.439 . S
C1657 H1689 0.950 . S
C1658 N1654 1.374 . S
C1658 C1657 1.439 . S
C1658 C1683 1.395 . S
N1659 Co1648 1.995 . S
N1659 C1660 1.376 . S
N1659 C1663 1.383 . S
C1660 N1659 1.376 . S
C1660 C1661 1.446 . S
C1660 C1683 1.391 . S
C1661 C1660 1.446 . S
C1661 C1662 1.339 . S
C1661 H1690 0.949 . S
C1662 C1661 1.339 . S
C1662 C1663 1.439 . S
C1662 H1691 0.950 . S
C1663 N1659 1.383 . S
C1663 C1662 1.439 . S
C1663 C1681 1.392 . S
N1664 Co1648 2.282 . S
N1664 C1667 1.332 . S
N1664 C1669 1.332 . S
C1665 C1666 1.386 . S
C1665 C1668 1.388 . S
C1666 C1665 1.386 . S
C1666 C1667 1.382 . S
C1666 H1692 0.950 . S
C1667 N1664 1.332 . S
C1667 C1666 1.382 . S
C1667 H1678 0.952 . S
C1668 C1665 1.388 . S
C1668 C1669 1.382 . S
C1668 H1693 0.950 . S
C1669 N1664 1.332 . S
C1669 C1668 1.382 . S
C1669 H1679 0.948 . S
N1670 Co1648 2.282 . S
N1670 C1674 1.332 . S
N1670 C1675 1.332 . S
C1671 C1672 1.388 . S
C1671 C1675 1.382 . S
C1671 H1694 0.950 . S
C1672 C1671 1.388 . S
C1672 C1673 1.386 . S
C1673 C1672 1.386 . S
C1673 C1674 1.382 . S
C1673 H1695 0.950 . S
C1674 N1670 1.332 . S
C1674 C1673 1.382 . S
C1674 H1676 0.952 . S
C1675 N1670 1.332 . S
C1675 C1671 1.382 . S
C1675 H1677 0.948 . S
H1676 C1674 0.952 . S
H1677 C1675 0.948 . S
H1678 C1667 0.952 . S
H1679 C1669 0.948 . S
C1680 C1646 1.395 . S
C1680 C1650 1.391 . S
C1681 C1643 1.389 . S
C1681 C1663 1.392 . S
C1682 C1653 1.392 . S
C1682 C1655 1.389 . S
C1683 C1658 1.395 . S
C1683 C1660 1.391 . S
H1684 C1644 0.951 . S
H1685 C1645 0.950 . S
H1686 C1651 0.949 . S
H1687 C1652 0.950 . S
H1688 C1656 0.951 . S
H1689 C1657 0.950 . S
H1690 C1661 0.949 . S
H1691 C1662 0.950 . S
H1692 C1666 0.950 . S
H1693 C1668 0.950 . S
H1694 C1671 0.950 . S
H1695 C1673 0.950 . S
C1696 C1697 1.443 . S
C1696 N1700 1.376 . S
C1696 C1734 1.389 . S
C1697 C1696 1.443 . S
C1697 C1698 1.340 . S
C1697 H1737 0.951 . S
C1698 C1697 1.340 . S
C1698 C1699 1.439 . S
C1698 H1738 0.950 . S
C1699 C1698 1.439 . S
C1699 N1700 1.374 . S
C1699 C1733 1.395 . S
N1700 C1696 1.376 . S
N1700 C1699 1.374 . S
N1700 Co1701 2.008 . S
Co1701 N1700 2.008 . S
Co1701 N1702 1.995 . S
Co1701 N1707 2.008 . S
Co1701 N1712 1.995 . S
Co1701 N1717 2.282 . S
Co1701 N1723 2.282 . S
N1702 Co1701 1.995 . S
N1702 C1703 1.376 . S
N1702 C1706 1.383 . S
C1703 N1702 1.376 . S
C1703 C1704 1.446 . S
C1703 C1733 1.391 . S
C1704 C1703 1.446 . S
C1704 C1705 1.339 . S
C1704 H1739 0.949 . S
C1705 C1704 1.339 . S
C1705 C1706 1.439 . S
C1705 H1740 0.950 . S
C1706 N1702 1.383 . S
C1706 C1705 1.439 . S
C1706 C1735 1.392 . S
N1707 Co1701 2.008 . S
N1707 C1708 1.376 . S
N1707 C1711 1.374 . S
C1708 N1707 1.376 . S
C1708 C1709 1.443 . S
C1708 C1735 1.389 . S
C1709 C1708 1.443 . S
C1709 C1710 1.340 . S
C1709 H1741 0.951 . S
C1710 C1709 1.340 . S
C1710 C1711 1.439 . S
C1710 H1742 0.950 . S
C1711 N1707 1.374 . S
C1711 C1710 1.439 . S
C1711 C1736 1.395 . S
N1712 Co1701 1.995 . S
N1712 C1713 1.376 . S
N1712 C1716 1.383 . S
C1713 N1712 1.376 . S
C1713 C1714 1.446 . S
C1713 C1736 1.391 . S
C1714 C1713 1.446 . S
C1714 C1715 1.339 . S
C1714 H1743 0.949 . S
C1715 C1714 1.339 . S
C1715 C1716 1.439 . S
C1715 H1744 0.950 . S
C1716 N1712 1.383 . S
C1716 C1715 1.439 . S
C1716 C1734 1.392 . S
N1717 Co1701 2.282 . S
N1717 C1720 1.332 . S
N1717 C1722 1.332 . S
C1718 C1719 1.386 . S
C1718 C1721 1.388 . S
C1719 C1718 1.386 . S
C1719 C1720 1.382 . S
C1719 H1745 0.950 . S
C1720 N1717 1.332 . S
C1720 C1719 1.382 . S
C1720 H1731 0.952 . S
C1721 C1718 1.388 . S
C1721 C1722 1.382 . S
C1721 H1746 0.950 . S
C1722 N1717 1.332 . S
C1722 C1721 1.382 . S
C1722 H1732 0.948 . S
N1723 Co1701 2.282 . S
N1723 C1727 1.332 . S
N1723 C1728 1.332 . S
C1724 C1725 1.388 . S
C1724 C1728 1.382 . S
C1724 H1747 0.950 . S
C1725 C1724 1.388 . S
C1725 C1726 1.386 . S
C1726 C1725 1.386 . S
C1726 C1727 1.382 . S
C1726 H1748 0.950 . S
C1727 N1723 1.332 . S
C1727 C1726 1.382 . S
C1727 H1729 0.952 . S
C1728 N1723 1.332 . S
C1728 C1724 1.382 . S
C1728 H1730 0.948 . S
H1729 C1727 0.952 . S
H1730 C1728 0.948 . S
H1731 C1720 0.952 . S
H1732 C1722 0.948 . S
C1733 C1699 1.395 . S
C1733 C1703 1.391 . S
C1734 C1696 1.389 . S
C1734 C1716 1.392 . S
C1735 C1706 1.392 . S
C1735 C1708 1.389 . S
C1736 C1711 1.395 . S
C1736 C1713 1.391 . S
H1737 C1697 0.951 . S
H1738 C1698 0.950 . S
H1739 C1704 0.949 . S
H1740 C1705 0.950 . S
H1741 C1709 0.951 . S
H1742 C1710 0.950 . S
H1743 C1714 0.949 . S
H1744 C1715 0.950 . S
H1745 C1719 0.950 . S
H1746 C1721 0.950 . S
H1747 C1724 0.950 . S
H1748 C1726 0.950 . S
C1749 C1750 1.443 . S
C1749 N1753 1.376 . S
C1749 C1787 1.389 . S
C1750 C1749 1.443 . S
C1750 C1751 1.340 . S
C1750 H1790 0.951 . S
C1751 C1750 1.340 . S
C1751 C1752 1.439 . S
C1751 H1791 0.950 . S
C1752 C1751 1.439 . S
C1752 N1753 1.374 . S
C1752 C1786 1.395 . S
N1753 C1749 1.376 . S
N1753 C1752 1.374 . S
N1753 Co1754 2.008 . S
Co1754 N1753 2.008 . S
Co1754 N1755 1.995 . S
Co1754 N1760 2.008 . S
Co1754 N1765 1.995 . S
Co1754 N1770 2.282 . S
Co1754 N1776 2.282 . S
N1755 Co1754 1.995 . S
N1755 C1756 1.376 . S
N1755 C1759 1.383 . S
C1756 N1755 1.376 . S
C1756 C1757 1.446 . S
C1756 C1786 1.391 . S
C1757 C1756 1.446 . S
C1757 C1758 1.339 . S
C1757 H1792 0.949 . S
C1758 C1757 1.339 . S
C1758 C1759 1.439 . S
C1758 H1793 0.950 . S
C1759 N1755 1.383 . S
C1759 C1758 1.439 . S
C1759 C1788 1.392 . S
N1760 Co1754 2.008 . S
N1760 C1761 1.376 . S
N1760 C1764 1.374 . S
C1761 N1760 1.376 . S
C1761 C1762 1.443 . S
C1761 C1788 1.389 . S
C1762 C1761 1.443 . S
C1762 C1763 1.340 . S
C1762 H1794 0.951 . S
C1763 C1762 1.340 . S
C1763 C1764 1.439 . S
C1763 H1795 0.950 . S
C1764 N1760 1.374 . S
C1764 C1763 1.439 . S
C1764 C1789 1.395 . S
N1765 Co1754 1.995 . S
N1765 C1766 1.376 . S
N1765 C1769 1.383 . S
C1766 N1765 1.376 . S
C1766 C1767 1.446 . S
C1766 C1789 1.391 . S
C1767 C1766 1.446 . S
C1767 C1768 1.339 . S
C1767 H1796 0.949 1_565 S
C1768 C1767 1.339 . S
C1768 C1769 1.439 . S
C1768 H1797 0.927 1_565 S
C1769 N1765 1.383 . S
C1769 C1768 1.439 . S
C1769 C1787 1.392 . S
N1770 Co1754 2.282 . S
N1770 C1773 1.332 . S
N1770 C1775 1.332 . S
C1771 C1772 1.386 . S
C1771 C1774 1.388 . S
C1772 C1771 1.386 . S
C1772 C1773 1.382 . S
C1772 H1798 0.950 . S
C1773 N1770 1.332 . S
C1773 C1772 1.382 . S
C1773 H1784 0.952 . S
C1774 C1771 1.388 . S
C1774 C1775 1.382 . S
C1774 H1799 0.950 . S
C1775 N1770 1.332 . S
C1775 C1774 1.382 . S
C1775 H1785 0.948 . S
N1776 Co1754 2.282 . S
N1776 C1780 1.332 . S
N1776 C1781 1.332 . S
C1777 C1778 1.388 . S
C1777 C1781 1.382 . S
C1777 H1800 0.950 . S
C1778 C1777 1.388 . S
C1778 C1779 1.386 . S
C1779 C1778 1.386 . S
C1779 C1780 1.382 . S
C1779 H1801 0.950 . S
C1780 N1776 1.332 . S
C1780 C1779 1.382 . S
C1780 H1782 0.952 . S
C1781 N1776 1.332 . S
C1781 C1777 1.382 . S
C1781 H1783 0.948 . S
H1782 C1780 0.952 . S
H1783 C1781 0.948 . S
H1784 C1773 0.952 . S
H1785 C1775 0.948 . S
C1786 C1752 1.395 . S
C1786 C1756 1.391 . S
C1787 C1749 1.389 . S
C1787 C1769 1.392 . S
C1788 C1759 1.392 . S
C1788 C1761 1.389 . S
C1789 C1764 1.395 . S
C1789 C1766 1.391 . S
H1790 C1750 0.951 . S
H1791 C1751 0.950 . S
H1792 C1757 0.949 . S
H1793 C1758 0.950 . S
H1794 C1762 0.951 . S
H1795 C1763 0.950 . S
H1796 C1767 0.949 1_545 S
H1797 C1768 0.927 1_545 S
H1798 C1772 0.950 . S
H1799 C1774 0.950 . S
H1800 C1777 0.950 . S
H1801 C1779 0.950 . S
C1802 C1803 1.443 . S
C1802 N1806 1.376 . S
C1802 C1840 1.389 . S
C1803 C1802 1.443 . S
C1803 C1804 1.340 . S
C1803 H1843 0.951 . S
C1804 C1803 1.340 . S
C1804 C1805 1.439 . S
C1804 H1844 0.950 . S
C1805 C1804 1.439 . S
C1805 N1806 1.374 . S
C1805 C1839 1.395 . S
N1806 C1802 1.376 . S
N1806 C1805 1.374 . S
N1806 Co1807 2.008 . S
Co1807 N1806 2.008 . S
Co1807 N1808 1.995 . S
Co1807 N1813 2.008 . S
Co1807 N1818 1.995 . S
Co1807 N1823 2.282 . S
Co1807 N1829 2.282 . S
N1808 Co1807 1.995 . S
N1808 C1809 1.376 . S
N1808 C1812 1.383 . S
C1809 N1808 1.376 . S
C1809 C1810 1.446 . S
C1809 C1839 1.391 . S
C1810 C1809 1.446 . S
C1810 C1811 1.339 . S
C1810 H1845 0.949 . S
C1811 C1810 1.339 . S
C1811 C1812 1.439 . S
C1811 H1846 0.950 . S
C1812 N1808 1.383 . S
C1812 C1811 1.439 . S
C1812 C1841 1.392 . S
N1813 Co1807 2.008 . S
N1813 C1814 1.376 . S
N1813 C1817 1.374 . S
C1814 N1813 1.376 . S
C1814 C1815 1.443 . S
C1814 C1841 1.389 . S
C1815 C1814 1.443 . S
C1815 C1816 1.340 . S
C1815 H1847 0.951 . S
C1816 C1815 1.340 . S
C1816 C1817 1.439 . S
C1816 H1848 0.950 . S
C1817 N1813 1.374 . S
C1817 C1816 1.439 . S
C1817 C1842 1.395 . S
N1818 Co1807 1.995 . S
N1818 C1819 1.376 . S
N1818 C1822 1.383 . S
C1819 N1818 1.376 . S
C1819 C1820 1.446 . S
C1819 C1842 1.391 . S
C1820 C1819 1.446 . S
C1820 C1821 1.339 . S
C1820 H1849 0.949 . S
C1821 C1820 1.339 . S
C1821 C1822 1.439 . S
C1821 H1850 0.950 . S
C1822 N1818 1.383 . S
C1822 C1821 1.439 . S
C1822 C1840 1.392 . S
N1823 Co1807 2.282 . S
N1823 C1826 1.332 . S
N1823 C1828 1.332 . S
C1824 C1825 1.386 . S
C1824 C1827 1.388 . S
C1825 C1824 1.386 . S
C1825 C1826 1.382 . S
C1825 H1851 0.950 . S
C1826 N1823 1.332 . S
C1826 C1825 1.382 . S
C1826 H1837 0.952 . S
C1827 C1824 1.388 . S
C1827 C1828 1.382 . S
C1827 H1852 0.950 . S
C1828 N1823 1.332 . S
C1828 C1827 1.382 . S
C1828 H1838 0.948 . S
N1829 Co1807 2.282 . S
N1829 C1833 1.332 . S
N1829 C1834 1.332 . S
C1830 C1831 1.388 . S
C1830 C1834 1.382 . S
C1830 H1853 0.950 . S
C1831 C1830 1.388 . S
C1831 C1832 1.386 . S
C1832 C1831 1.386 . S
C1832 C1833 1.382 . S
C1832 H1854 0.950 . S
C1833 N1829 1.332 . S
C1833 C1832 1.382 . S
C1833 H1835 0.952 . S
C1834 N1829 1.332 . S
C1834 C1830 1.382 . S
C1834 H1836 0.948 . S
H1835 C1833 0.952 . S
H1836 C1834 0.948 . S
H1837 C1826 0.952 . S
H1838 C1828 0.948 . S
C1839 C1805 1.395 . S
C1839 C1809 1.391 . S
C1840 C1802 1.389 . S
C1840 C1822 1.392 . S
C1841 C1812 1.392 . S
C1841 C1814 1.389 . S
C1842 C1817 1.395 . S
C1842 C1819 1.391 . S
H1843 C1803 0.951 . S
H1844 C1804 0.950 . S
H1845 C1810 0.949 . S
H1846 C1811 0.950 . S
H1847 C1815 0.951 . S
H1848 C1816 0.950 . S
H1849 C1820 0.949 . S
H1850 C1821 0.950 . S
H1851 C1825 0.950 . S
H1852 C1827 0.950 . S
H1853 C1830 0.950 . S
H1854 C1832 0.950 . S
C1855 C1856 1.443 . S
C1855 N1859 1.376 . S
C1855 C1893 1.389 . S
C1856 C1855 1.443 . S
C1856 C1857 1.340 . S
C1856 H1896 0.951 . S
C1857 C1856 1.340 . S
C1857 C1858 1.439 . S
C1857 H1897 0.950 . S
C1858 C1857 1.439 . S
C1858 N1859 1.374 . S
C1858 C1892 1.395 . S
N1859 C1855 1.376 . S
N1859 C1858 1.374 . S
N1859 Co1860 2.008 . S
Co1860 N1859 2.008 . S
Co1860 N1861 1.995 . S
Co1860 N1866 2.008 . S
Co1860 N1871 1.995 . S
Co1860 N1876 2.282 . S
Co1860 N1882 2.282 . S
N1861 Co1860 1.995 . S
N1861 C1862 1.376 . S
N1861 C1865 1.383 . S
C1862 N1861 1.376 . S
C1862 C1863 1.446 . S
C1862 C1892 1.391 . S
C1863 C1862 1.446 . S
C1863 C1864 1.339 . S
C1863 H1898 0.949 . S
C1864 C1863 1.339 . S
C1864 C1865 1.439 . S
C1864 H1899 0.950 . S
C1865 N1861 1.383 . S
C1865 C1864 1.439 . S
C1865 C1894 1.392 . S
N1866 Co1860 2.008 . S
N1866 C1867 1.376 . S
N1866 C1870 1.374 . S
C1867 N1866 1.376 . S
C1867 C1868 1.443 . S
C1867 C1894 1.389 . S
C1868 C1867 1.443 . S
C1868 C1869 1.340 . S
C1868 H1900 0.951 . S
C1869 C1868 1.340 . S
C1869 C1870 1.439 . S
C1869 H1901 0.950 . S
C1870 N1866 1.374 . S
C1870 C1869 1.439 . S
C1870 C1895 1.395 . S
N1871 Co1860 1.995 . S
N1871 C1872 1.376 . S
N1871 C1875 1.383 . S
C1872 N1871 1.376 . S
C1872 C1873 1.446 . S
C1872 C1895 1.391 . S
C1873 C1872 1.446 . S
C1873 C1874 1.339 . S
C1873 H1902 0.949 . S
C1874 C1873 1.339 . S
C1874 C1875 1.439 . S
C1874 H1903 0.950 . S
C1875 N1871 1.383 . S
C1875 C1874 1.439 . S
C1875 C1893 1.392 . S
N1876 Co1860 2.282 . S
N1876 C1879 1.332 . S
N1876 C1881 1.332 . S
C1877 C1878 1.386 . S
C1877 C1880 1.388 . S
C1878 C1877 1.386 . S
C1878 C1879 1.382 . S
C1878 H1904 0.950 . S
C1879 N1876 1.332 . S
C1879 C1878 1.382 . S
C1879 H1890 0.952 . S
C1880 C1877 1.388 . S
C1880 C1881 1.382 . S
C1880 H1905 0.950 . S
C1881 N1876 1.332 . S
C1881 C1880 1.382 . S
C1881 H1891 0.948 . S
N1882 Co1860 2.282 . S
N1882 C1886 1.332 . S
N1882 C1887 1.332 . S
C1883 C1884 1.388 . S
C1883 C1887 1.382 . S
C1883 H1906 0.950 . S
C1884 C1883 1.388 . S
C1884 C1885 1.386 . S
C1885 C1884 1.386 . S
C1885 C1886 1.382 . S
C1885 H1907 0.950 . S
C1886 N1882 1.332 . S
C1886 C1885 1.382 . S
C1886 H1888 0.952 . S
C1887 N1882 1.332 . S
C1887 C1883 1.382 . S
C1887 H1889 0.948 . S
H1888 C1886 0.952 . S
H1889 C1887 0.948 . S
H1890 C1879 0.952 . S
H1891 C1881 0.948 . S
C1892 C1858 1.395 . S
C1892 C1862 1.391 . S
C1893 C1855 1.389 . S
C1893 C1875 1.392 . S
C1894 C1865 1.392 . S
C1894 C1867 1.389 . S
C1895 C1870 1.395 . S
C1895 C1872 1.391 . S
H1896 C1856 0.951 . S
H1897 C1857 0.950 . S
H1898 C1863 0.949 . S
H1899 C1864 0.950 . S
H1900 C1868 0.951 . S
H1901 C1869 0.950 . S
H1902 C1873 0.949 . S
H1903 C1874 0.950 . S
H1904 C1878 0.950 . S
H1905 C1880 0.950 . S
H1906 C1883 0.950 . S
H1907 C1885 0.950 . S
C1908 C1909 1.443 . S
C1908 N1912 1.376 . S
C1908 C1946 1.389 . S
C1909 C1908 1.443 . S
C1909 C1910 1.340 . S
C1909 H1949 0.951 . S
C1910 C1909 1.340 . S
C1910 C1911 1.439 . S
C1910 H1950 0.950 . S
C1911 C1910 1.439 . S
C1911 N1912 1.374 . S
C1911 C1945 1.395 . S
N1912 C1908 1.376 . S
N1912 C1911 1.374 . S
N1912 Co1913 2.008 . S
Co1913 N1912 2.008 . S
Co1913 N1914 1.995 . S
Co1913 N1919 2.008 . S
Co1913 N1924 1.995 . S
Co1913 N1929 2.282 . S
Co1913 N1935 2.282 . S
N1914 Co1913 1.995 . S
N1914 C1915 1.376 . S
N1914 C1918 1.383 . S
C1915 N1914 1.376 . S
C1915 C1916 1.446 . S
C1915 C1945 1.391 . S
C1916 C1915 1.446 . S
C1916 C1917 1.339 . S
C1916 H1951 0.949 . S
C1917 C1916 1.339 . S
C1917 C1918 1.439 . S
C1917 H1952 0.950 . S
C1918 N1914 1.383 . S
C1918 C1917 1.439 . S
C1918 C1947 1.392 . S
N1919 Co1913 2.008 . S
N1919 C1920 1.376 . S
N1919 C1923 1.374 . S
C1920 N1919 1.376 . S
C1920 C1921 1.443 . S
C1920 C1947 1.389 . S
C1921 C1920 1.443 . S
C1921 C1922 1.340 . S
C1921 H1953 0.951 . S
C1922 C1921 1.340 . S
C1922 C1923 1.439 . S
C1922 H1954 0.950 . S
C1923 N1919 1.374 . S
C1923 C1922 1.439 . S
C1923 C1948 1.395 . S
N1924 Co1913 1.995 . S
N1924 C1925 1.376 . S
N1924 C1928 1.383 . S
C1925 N1924 1.376 . S
C1925 C1926 1.446 . S
C1925 C1948 1.391 . S
C1926 C1925 1.446 . S
C1926 C1927 1.339 . S
C1926 H1955 0.949 . S
C1927 C1926 1.339 . S
C1927 C1928 1.439 . S
C1927 H1956 0.950 . S
C1928 N1924 1.383 . S
C1928 C1927 1.439 . S
C1928 C1946 1.392 . S
N1929 Co1913 2.282 . S
N1929 C1932 1.332 . S
N1929 C1934 1.332 . S
C1930 C1931 1.386 . S
C1930 C1933 1.388 . S
C1931 C1930 1.386 . S
C1931 C1932 1.382 . S
C1931 H1957 0.950 . S
C1932 N1929 1.332 . S
C1932 C1931 1.382 . S
C1932 H1943 0.952 . S
C1933 C1930 1.388 . S
C1933 C1934 1.382 . S
C1933 H1958 0.950 . S
C1934 N1929 1.332 . S
C1934 C1933 1.382 . S
C1934 H1944 0.948 . S
N1935 Co1913 2.282 . S
N1935 C1939 1.332 . S
N1935 C1940 1.332 . S
C1936 C1937 1.388 . S
C1936 C1940 1.382 . S
C1936 H1959 0.950 . S
C1937 C1936 1.388 . S
C1937 C1938 1.386 . S
C1938 C1937 1.386 . S
C1938 C1939 1.382 . S
C1938 H1960 0.950 . S
C1939 N1935 1.332 . S
C1939 C1938 1.382 . S
C1939 H1941 0.952 . S
C1940 N1935 1.332 . S
C1940 C1936 1.382 . S
C1940 H1942 0.948 . S
H1941 C1939 0.952 . S
H1942 C1940 0.948 . S
H1943 C1932 0.952 . S
H1944 C1934 0.948 . S
C1945 C1911 1.395 . S
C1945 C1915 1.391 . S
C1946 C1908 1.389 . S
C1946 C1928 1.392 . S
C1947 C1918 1.392 . S
C1947 C1920 1.389 . S
C1948 C1923 1.395 . S
C1948 C1925 1.391 . S
H1949 C1909 0.951 . S
H1950 C1910 0.950 . S
H1951 C1916 0.949 . S
H1952 C1917 0.950 . S
H1953 C1921 0.951 . S
H1954 C1922 0.950 . S
H1955 C1926 0.949 . S
H1956 C1927 0.950 . S
H1957 C1931 0.950 . S
H1958 C1933 0.950 . S
H1959 C1936 0.950 . S
H1960 C1938 0.950 . S
C1961 C1962 1.443 . S
C1961 N1965 1.376 . S
C1961 C1999 1.389 . S
C1962 C1961 1.443 . S
C1962 C1963 1.340 . S
C1962 H2002 0.951 . S
C1963 C1962 1.340 . S
C1963 C1964 1.439 . S
C1963 H2003 0.950 . S
C1964 C1963 1.439 . S
C1964 N1965 1.374 . S
C1964 C1998 1.395 . S
N1965 C1961 1.376 . S
N1965 C1964 1.374 . S
N1965 Co1966 2.008 . S
Co1966 N1965 2.008 . S
Co1966 N1967 1.995 . S
Co1966 N1972 2.008 . S
Co1966 N1977 1.995 . S
Co1966 N1982 2.282 . S
Co1966 N1988 2.282 . S
N1967 Co1966 1.995 . S
N1967 C1968 1.376 . S
N1967 C1971 1.383 . S
C1968 N1967 1.376 . S
C1968 C1969 1.446 . S
C1968 C1998 1.391 . S
C1969 C1968 1.446 . S
C1969 C1970 1.339 . S
C1969 H2004 0.949 . S
C1970 C1969 1.339 . S
C1970 C1971 1.439 . S
C1970 H2005 0.950 . S
C1971 N1967 1.383 . S
C1971 C1970 1.439 . S
C1971 C2000 1.392 . S
N1972 Co1966 2.008 . S
N1972 C1973 1.376 . S
N1972 C1976 1.374 . S
C1973 N1972 1.376 . S
C1973 C1974 1.443 . S
C1973 C2000 1.389 . S
C1974 C1973 1.443 . S
C1974 C1975 1.340 . S
C1974 H2006 0.951 . S
C1975 C1974 1.340 . S
C1975 C1976 1.439 . S
C1975 H2007 0.950 . S
C1976 N1972 1.374 . S
C1976 C1975 1.439 . S
C1976 C2001 1.395 . S
N1977 Co1966 1.995 . S
N1977 C1978 1.376 . S
N1977 C1981 1.383 . S
C1978 N1977 1.376 . S
C1978 C1979 1.446 . S
C1978 C2001 1.391 . S
C1979 C1978 1.446 . S
C1979 C1980 1.339 . S
C1979 H2008 0.949 1_565 S
C1980 C1979 1.339 . S
C1980 C1981 1.439 . S
C1980 H2009 0.926 1_565 S
C1981 N1977 1.383 . S
C1981 C1980 1.439 . S
C1981 C1999 1.392 . S
N1982 Co1966 2.282 . S
N1982 C1985 1.332 . S
N1982 C1987 1.332 . S
C1983 C1984 1.386 . S
C1983 C1986 1.388 . S
C1984 C1983 1.386 . S
C1984 C1985 1.382 . S
C1984 H2010 0.950 . S
C1985 N1982 1.332 . S
C1985 C1984 1.382 . S
C1985 H1996 0.952 . S
C1986 C1983 1.388 . S
C1986 C1987 1.382 . S
C1986 H2011 0.950 . S
C1987 N1982 1.332 . S
C1987 C1986 1.382 . S
C1987 H1997 0.948 . S
N1988 Co1966 2.282 . S
N1988 C1992 1.332 . S
N1988 C1993 1.332 . S
C1989 C1990 1.388 . S
C1989 C1993 1.382 . S
C1989 H2012 0.950 . S
C1990 C1989 1.388 . S
C1990 C1991 1.386 . S
C1991 C1990 1.386 . S
C1991 C1992 1.382 . S
C1991 H2013 0.950 . S
C1992 N1988 1.332 . S
C1992 C1991 1.382 . S
C1992 H1994 0.952 . S
C1993 N1988 1.332 . S
C1993 C1989 1.382 . S
C1993 H1995 0.948 . S
H1994 C1992 0.952 . S
H1995 C1993 0.948 . S
H1996 C1985 0.952 . S
H1997 C1987 0.948 . S
C1998 C1964 1.395 . S
C1998 C1968 1.391 . S
C1999 C1961 1.389 . S
C1999 C1981 1.392 . S
C2000 C1971 1.392 . S
C2000 C1973 1.389 . S
C2001 C1976 1.395 . S
C2001 C1978 1.391 . S
H2002 C1962 0.951 . S
H2003 C1963 0.950 . S
H2004 C1969 0.949 . S
H2005 C1970 0.950 . S
H2006 C1974 0.951 . S
H2007 C1975 0.950 . S
H2008 C1979 0.949 1_545 S
H2009 C1980 0.926 1_545 S
H2010 C1984 0.950 . S
H2011 C1986 0.950 . S
H2012 C1989 0.950 . S
H2013 C1991 0.950 . S
C2014 C2015 1.443 . S
C2014 N2018 1.376 . S
C2014 C2052 1.389 . S
C2015 C2014 1.443 . S
C2015 C2016 1.340 . S
C2015 H2055 0.951 . S
C2016 C2015 1.340 . S
C2016 C2017 1.439 . S
C2016 H2056 0.950 . S
C2017 C2016 1.439 . S
C2017 N2018 1.374 . S
C2017 C2051 1.395 . S
N2018 C2014 1.376 . S
N2018 C2017 1.374 . S
N2018 Co2019 2.008 . S
Co2019 N2018 2.008 . S
Co2019 N2020 1.995 . S
Co2019 N2025 2.008 . S
Co2019 N2030 1.995 . S
Co2019 N2035 2.282 . S
Co2019 N2041 2.282 . S
N2020 Co2019 1.995 . S
N2020 C2021 1.376 . S
N2020 C2024 1.383 . S
C2021 N2020 1.376 . S
C2021 C2022 1.446 . S
C2021 C2051 1.391 . S
C2022 C2021 1.446 . S
C2022 C2023 1.339 . S
C2022 H2057 0.949 . S
C2023 C2022 1.339 . S
C2023 C2024 1.439 . S
C2023 H2058 0.950 . S
C2024 N2020 1.383 . S
C2024 C2023 1.439 . S
C2024 C2053 1.392 . S
N2025 Co2019 2.008 . S
N2025 C2026 1.376 . S
N2025 C2029 1.374 . S
C2026 N2025 1.376 . S
C2026 C2027 1.443 . S
C2026 C2053 1.389 . S
C2027 C2026 1.443 . S
C2027 C2028 1.340 . S
C2027 H2059 0.951 . S
C2028 C2027 1.340 . S
C2028 C2029 1.439 . S
C2028 H2060 0.950 . S
C2029 N2025 1.374 . S
C2029 C2028 1.439 . S
C2029 C2054 1.395 . S
N2030 Co2019 1.995 . S
N2030 C2031 1.376 . S
N2030 C2034 1.383 . S
C2031 N2030 1.376 . S
C2031 C2032 1.446 . S
C2031 C2054 1.391 . S
C2032 C2031 1.446 . S
C2032 C2033 1.339 . S
C2032 H2061 0.949 . S
C2033 C2032 1.339 . S
C2033 C2034 1.439 . S
C2033 H2062 0.950 . S
C2034 N2030 1.383 . S
C2034 C2033 1.439 . S
C2034 C2052 1.392 . S
N2035 Co2019 2.282 . S
N2035 C2038 1.332 . S
N2035 C2040 1.332 . S
C2036 C2037 1.386 . S
C2036 C2039 1.388 . S
C2037 C2036 1.386 . S
C2037 C2038 1.382 . S
C2037 H2063 0.950 . S
C2038 N2035 1.332 . S
C2038 C2037 1.382 . S
C2038 H2049 0.952 . S
C2039 C2036 1.388 . S
C2039 C2040 1.382 . S
C2039 H2064 0.950 . S
C2040 N2035 1.332 . S
C2040 C2039 1.382 . S
C2040 H2050 0.948 . S
N2041 Co2019 2.282 . S
N2041 C2045 1.332 . S
N2041 C2046 1.332 . S
C2042 C2043 1.388 . S
C2042 C2046 1.382 . S
C2042 H2065 0.950 . S
C2043 C2042 1.388 . S
C2043 C2044 1.386 . S
C2044 C2043 1.386 . S
C2044 C2045 1.382 . S
C2044 H2066 0.950 . S
C2045 N2041 1.332 . S
C2045 C2044 1.382 . S
C2045 H2047 0.952 . S
C2046 N2041 1.332 . S
C2046 C2042 1.382 . S
C2046 H2048 0.948 . S
H2047 C2045 0.952 . S
H2048 C2046 0.948 . S
H2049 C2038 0.952 . S
H2050 C2040 0.948 . S
C2051 C2017 1.395 . S
C2051 C2021 1.391 . S
C2052 C2014 1.389 . S
C2052 C2034 1.392 . S
C2053 C2024 1.392 . S
C2053 C2026 1.389 . S
C2054 C2029 1.395 . S
C2054 C2031 1.391 . S
H2055 C2015 0.951 . S
H2056 C2016 0.950 . S
H2057 C2022 0.949 . S
H2058 C2023 0.950 . S
H2059 C2027 0.951 . S
H2060 C2028 0.950 . S
H2061 C2032 0.949 . S
H2062 C2033 0.950 . S
H2063 C2037 0.950 . S
H2064 C2039 0.950 . S
H2065 C2042 0.950 . S
H2066 C2044 0.950 . S
C2067 C2068 1.443 . S
C2067 N2071 1.376 . S
C2067 C2105 1.389 . S
C2068 C2067 1.443 . S
C2068 C2069 1.340 . S
C2068 H2108 0.951 . S
C2069 C2068 1.340 . S
C2069 C2070 1.439 . S
C2069 H2109 0.950 . S
C2070 C2069 1.439 . S
C2070 N2071 1.374 . S
C2070 C2104 1.395 . S
N2071 C2067 1.376 . S
N2071 C2070 1.374 . S
N2071 Co2072 2.008 . S
Co2072 N2071 2.008 . S
Co2072 N2073 1.995 . S
Co2072 N2078 2.008 . S
Co2072 N2083 1.995 . S
Co2072 N2088 2.282 . S
Co2072 N2094 2.282 . S
N2073 Co2072 1.995 . S
N2073 C2074 1.376 . S
N2073 C2077 1.383 . S
C2074 N2073 1.376 . S
C2074 C2075 1.446 . S
C2074 C2104 1.391 . S
C2075 C2074 1.446 . S
C2075 C2076 1.339 . S
C2075 H2110 0.949 . S
C2076 C2075 1.339 . S
C2076 C2077 1.439 . S
C2076 H2111 0.950 . S
C2077 N2073 1.383 . S
C2077 C2076 1.439 . S
C2077 C2106 1.392 . S
N2078 Co2072 2.008 . S
N2078 C2079 1.376 . S
N2078 C2082 1.374 . S
C2079 N2078 1.376 . S
C2079 C2080 1.443 . S
C2079 C2106 1.389 . S
C2080 C2079 1.443 . S
C2080 C2081 1.340 . S
C2080 H2112 0.951 . S
C2081 C2080 1.340 . S
C2081 C2082 1.439 . S
C2081 H2113 0.950 . S
C2082 N2078 1.374 . S
C2082 C2081 1.439 . S
C2082 C2107 1.395 . S
N2083 Co2072 1.995 . S
N2083 C2084 1.376 . S
N2083 C2087 1.383 . S
C2084 N2083 1.376 . S
C2084 C2085 1.446 . S
C2084 C2107 1.391 . S
C2085 C2084 1.446 . S
C2085 C2086 1.339 . S
C2085 H2114 0.949 . S
C2086 C2085 1.339 . S
C2086 C2087 1.439 . S
C2086 H2115 0.950 . S
C2087 N2083 1.383 . S
C2087 C2086 1.439 . S
C2087 C2105 1.392 . S
N2088 Co2072 2.282 . S
N2088 C2091 1.332 . S
N2088 C2093 1.332 . S
C2089 C2090 1.386 . S
C2089 C2092 1.388 . S
C2090 C2089 1.386 . S
C2090 C2091 1.382 . S
C2090 H2116 0.950 . S
C2091 N2088 1.332 . S
C2091 C2090 1.382 . S
C2091 H2102 0.952 . S
C2092 C2089 1.388 . S
C2092 C2093 1.382 . S
C2092 H2117 0.950 . S
C2093 N2088 1.332 . S
C2093 C2092 1.382 . S
C2093 H2103 0.948 . S
N2094 Co2072 2.282 . S
N2094 C2098 1.332 . S
N2094 C2099 1.332 . S
C2095 C2096 1.388 . S
C2095 C2099 1.382 . S
C2095 H2118 0.950 . S
C2096 C2095 1.388 . S
C2096 C2097 1.386 . S
C2097 C2096 1.386 . S
C2097 C2098 1.382 . S
C2097 H2119 0.950 . S
C2098 N2094 1.332 . S
C2098 C2097 1.382 . S
C2098 H2100 0.952 . S
C2099 N2094 1.332 . S
C2099 C2095 1.382 . S
C2099 H2101 0.948 . S
H2100 C2098 0.952 . S
H2101 C2099 0.948 . S
H2102 C2091 0.952 . S
H2103 C2093 0.948 . S
C2104 C2070 1.395 . S
C2104 C2074 1.391 . S
C2105 C2067 1.389 . S
C2105 C2087 1.392 . S
C2106 C2077 1.392 . S
C2106 C2079 1.389 . S
C2107 C2082 1.395 . S
C2107 C2084 1.391 . S
H2108 C2068 0.951 . S
H2109 C2069 0.950 . S
H2110 C2075 0.949 . S
H2111 C2076 0.950 . S
H2112 C2080 0.951 . S
H2113 C2081 0.950 . S
H2114 C2085 0.949 . S
H2115 C2086 0.950 . S
H2116 C2090 0.950 . S
H2117 C2092 0.950 . S
H2118 C2095 0.950 . S
H2119 C2097 0.950 . S
C2120 C2121 1.443 . S
C2120 N2124 1.376 . S
C2120 C2158 1.389 . S
C2121 C2120 1.443 . S
C2121 C2122 1.340 . S
C2121 H2161 0.951 . S
C2122 C2121 1.340 . S
C2122 C2123 1.439 . S
C2122 H2162 0.950 . S
C2123 C2122 1.439 . S
C2123 N2124 1.374 . S
C2123 C2157 1.395 . S
N2124 C2120 1.376 . S
N2124 C2123 1.374 . S
N2124 Co2125 2.008 . S
Co2125 N2124 2.008 . S
Co2125 N2126 1.995 . S
Co2125 N2131 2.008 . S
Co2125 N2136 1.995 . S
Co2125 N2141 2.282 . S
Co2125 N2147 2.282 . S
N2126 Co2125 1.995 . S
N2126 C2127 1.376 . S
N2126 C2130 1.383 . S
C2127 N2126 1.376 . S
C2127 C2128 1.446 . S
C2127 C2157 1.391 . S
C2128 C2127 1.446 . S
C2128 C2129 1.339 . S
C2128 H2163 0.949 . S
C2129 C2128 1.339 . S
C2129 C2130 1.439 . S
C2129 H2164 0.950 . S
C2130 N2126 1.383 . S
C2130 C2129 1.439 . S
C2130 C2159 1.392 . S
N2131 Co2125 2.008 . S
N2131 C2132 1.376 . S
N2131 C2135 1.374 . S
C2132 N2131 1.376 . S
C2132 C2133 1.443 . S
C2132 C2159 1.389 . S
C2133 C2132 1.443 . S
C2133 C2134 1.340 . S
C2133 H2165 0.951 . S
C2134 C2133 1.340 . S
C2134 C2135 1.439 . S
C2134 H2166 0.950 . S
C2135 N2131 1.374 . S
C2135 C2134 1.439 . S
C2135 C2160 1.395 . S
N2136 Co2125 1.995 . S
N2136 C2137 1.376 . S
N2136 C2140 1.383 . S
C2137 N2136 1.376 . S
C2137 C2138 1.446 . S
C2137 C2160 1.391 . S
C2138 C2137 1.446 . S
C2138 C2139 1.339 . S
C2138 H2167 0.949 . S
C2139 C2138 1.339 . S
C2139 C2140 1.439 . S
C2139 H2168 0.950 . S
C2140 N2136 1.383 . S
C2140 C2139 1.439 . S
C2140 C2158 1.392 . S
N2141 Co2125 2.282 . S
N2141 C2144 1.332 . S
N2141 C2146 1.332 . S
C2142 C2143 1.386 . S
C2142 C2145 1.388 . S
C2143 C2142 1.386 . S
C2143 C2144 1.382 . S
C2143 H2169 0.950 . S
C2144 N2141 1.332 . S
C2144 C2143 1.382 . S
C2144 H2155 0.952 . S
C2145 C2142 1.388 . S
C2145 C2146 1.382 . S
C2145 H2170 0.950 . S
C2146 N2141 1.332 . S
C2146 C2145 1.382 . S
C2146 H2156 0.948 . S
N2147 Co2125 2.282 . S
N2147 C2151 1.332 . S
N2147 C2152 1.332 . S
C2148 C2149 1.388 . S
C2148 C2152 1.382 . S
C2148 H2171 0.950 . S
C2149 C2148 1.388 . S
C2149 C2150 1.386 . S
C2150 C2149 1.386 . S
C2150 C2151 1.382 . S
C2150 H2172 0.950 . S
C2151 N2147 1.332 . S
C2151 C2150 1.382 . S
C2151 H2153 0.952 . S
C2152 N2147 1.332 . S
C2152 C2148 1.382 . S
C2152 H2154 0.948 . S
H2153 C2151 0.952 . S
H2154 C2152 0.948 . S
H2155 C2144 0.952 . S
H2156 C2146 0.948 . S
C2157 C2123 1.395 . S
C2157 C2127 1.391 . S
C2158 C2120 1.389 . S
C2158 C2140 1.392 . S
C2159 C2130 1.392 . S
C2159 C2132 1.389 . S
C2160 C2135 1.395 . S
C2160 C2137 1.391 . S
H2161 C2121 0.951 . S
H2162 C2122 0.950 . S
H2163 C2128 0.949 . S
H2164 C2129 0.950 . S
H2165 C2133 0.951 . S
H2166 C2134 0.950 . S
H2167 C2138 0.949 . S
H2168 C2139 0.950 . S
H2169 C2143 0.950 . S
H2170 C2145 0.950 . S
H2171 C2148 0.950 . S
H2172 C2150 0.950 . S
C2173 C2174 1.443 . S
C2173 N2177 1.376 . S
C2173 C2211 1.389 . S
C2174 C2173 1.443 . S
C2174 C2175 1.340 . S
C2174 H2214 0.951 . S
C2175 C2174 1.340 . S
C2175 C2176 1.439 . S
C2175 H2215 0.950 . S
C2176 C2175 1.439 . S
C2176 N2177 1.374 . S
C2176 C2210 1.395 . S
N2177 C2173 1.376 . S
N2177 C2176 1.374 . S
N2177 Co2178 2.008 . S
Co2178 N2177 2.008 . S
Co2178 N2179 1.995 . S
Co2178 N2184 2.008 . S
Co2178 N2189 1.995 . S
Co2178 N2194 2.282 . S
Co2178 N2200 2.282 . S
N2179 Co2178 1.995 . S
N2179 C2180 1.376 . S
N2179 C2183 1.383 . S
C2180 N2179 1.376 . S
C2180 C2181 1.446 . S
C2180 C2210 1.391 . S
C2181 C2180 1.446 . S
C2181 C2182 1.339 . S
C2181 H2216 0.949 . S
C2182 C2181 1.339 . S
C2182 C2183 1.439 . S
C2182 H2217 0.950 . S
C2183 N2179 1.383 . S
C2183 C2182 1.439 . S
C2183 C2212 1.392 . S
N2184 Co2178 2.008 . S
N2184 C2185 1.376 . S
N2184 C2188 1.374 . S
C2185 N2184 1.376 . S
C2185 C2186 1.443 . S
C2185 C2212 1.389 . S
C2186 C2185 1.443 . S
C2186 C2187 1.340 . S
C2186 H2218 0.951 . S
C2187 C2186 1.340 . S
C2187 C2188 1.439 . S
C2187 H2219 0.950 . S
C2188 N2184 1.374 . S
C2188 C2187 1.439 . S
C2188 C2213 1.395 . S
N2189 Co2178 1.995 . S
N2189 C2190 1.376 . S
N2189 C2193 1.383 . S
C2190 N2189 1.376 . S
C2190 C2191 1.446 . S
C2190 C2213 1.391 . S
C2191 C2190 1.446 . S
C2191 C2192 1.339 . S
C2191 H2220 0.949 . S
C2192 C2191 1.339 . S
C2192 C2193 1.439 . S
C2192 H2221 0.950 . S
C2193 N2189 1.383 . S
C2193 C2192 1.439 . S
C2193 C2211 1.392 . S
N2194 Co2178 2.282 . S
N2194 C2197 1.332 . S
N2194 C2199 1.332 . S
C2195 C2196 1.386 . S
C2195 C2198 1.388 . S
C2196 C2195 1.386 . S
C2196 C2197 1.382 . S
C2196 H2222 0.950 . S
C2197 N2194 1.332 . S
C2197 C2196 1.382 . S
C2197 H2208 0.952 . S
C2198 C2195 1.388 . S
C2198 C2199 1.382 . S
C2198 H2223 0.950 . S
C2199 N2194 1.332 . S
C2199 C2198 1.382 . S
C2199 H2209 0.948 . S
N2200 Co2178 2.282 . S
N2200 C2204 1.332 . S
N2200 C2205 1.332 . S
C2201 C2202 1.388 . S
C2201 C2205 1.382 . S
C2201 H2224 0.950 . S
C2202 C2201 1.388 . S
C2202 C2203 1.386 . S
C2203 C2202 1.386 . S
C2203 C2204 1.382 . S
C2203 H2225 0.950 . S
C2204 N2200 1.332 . S
C2204 C2203 1.382 . S
C2204 H2206 0.952 . S
C2205 N2200 1.332 . S
C2205 C2201 1.382 . S
C2205 H2207 0.948 . S
H2206 C2204 0.952 . S
H2207 C2205 0.948 . S
H2208 C2197 0.952 . S
H2209 C2199 0.948 . S
C2210 C2176 1.395 . S
C2210 C2180 1.391 . S
C2211 C2173 1.389 . S
C2211 C2193 1.392 . S
C2212 C2183 1.392 . S
C2212 C2185 1.389 . S
C2213 C2188 1.395 . S
C2213 C2190 1.391 . S
H2214 C2174 0.951 . S
H2215 C2175 0.950 . S
H2216 C2181 0.949 . S
H2217 C2182 0.950 . S
H2218 C2186 0.951 . S
H2219 C2187 0.950 . S
H2220 C2191 0.949 . S
H2221 C2192 0.950 . S
H2222 C2196 0.950 . S
H2223 C2198 0.950 . S
H2224 C2201 0.950 . S
H2225 C2203 0.950 . S
C2226 C2227 1.443 . S
C2226 N2230 1.376 . S
C2226 C2264 1.389 . S
C2227 C2226 1.443 . S
C2227 C2228 1.340 . S
C2227 H2267 0.951 . S
C2228 C2227 1.340 . S
C2228 C2229 1.439 . S
C2228 H2268 0.950 . S
C2229 C2228 1.439 . S
C2229 N2230 1.374 . S
C2229 C2263 1.395 . S
N2230 C2226 1.376 . S
N2230 C2229 1.374 . S
N2230 Co2231 2.008 1_565 S
Co2231 N2230 2.008 1_545 S
Co2231 N2232 1.995 . S
Co2231 N2237 2.008 . S
Co2231 N2242 1.995 1_545 S
Co2231 N2247 2.282 1_545 S
Co2231 N2253 2.282 . S
N2232 Co2231 1.995 . S
N2232 C2233 1.376 . S
N2232 C2236 1.383 . S
C2233 N2232 1.376 . S
C2233 C2234 1.446 . S
C2233 C2263 1.391 1_545 S
C2234 C2233 1.446 . S
C2234 C2235 1.339 . S
C2234 H2269 0.949 . S
C2235 C2234 1.339 . S
C2235 C2236 1.439 . S
C2235 H2270 0.950 . S
C2236 N2232 1.383 . S
C2236 C2235 1.439 . S
C2236 C2265 1.392 . S
N2237 Co2231 2.008 . S
N2237 C2238 1.376 . S
N2237 C2241 1.374 . S
C2238 N2237 1.376 . S
C2238 C2239 1.443 . S
C2238 C2265 1.389 . S
C2239 C2238 1.443 . S
C2239 C2240 1.340 . S
C2239 H2271 0.951 . S
C2240 C2239 1.340 . S
C2240 C2241 1.439 . S
C2240 H2272 0.950 . S
C2241 N2237 1.374 . S
C2241 C2240 1.439 . S
C2241 C2266 1.395 . S
N2242 Co2231 1.995 1_565 S
N2242 C2243 1.376 1_565 S
N2242 C2246 1.383 . S
C2243 N2242 1.376 1_545 S
C2243 C2244 1.446 1_545 S
C2243 C2266 1.391 . S
C2244 C2243 1.446 1_565 S
C2244 C2245 1.339 . S
C2244 H2273 0.949 . S
C2245 C2244 1.339 . S
C2245 C2246 1.439 . S
C2245 H2274 0.950 . S
C2246 N2242 1.383 . S
C2246 C2245 1.439 . S
C2246 C2264 1.392 . S
N2247 Co2231 2.282 1_565 S
N2247 C2250 1.332 . S
N2247 C2252 1.332 . S
C2248 C2249 1.386 . S
C2248 C2251 1.388 . S
C2249 C2248 1.386 . S
C2249 C2250 1.382 . S
C2249 H2275 0.950 . S
C2250 N2247 1.332 . S
C2250 C2249 1.382 . S
C2250 H2261 0.952 . S
C2251 C2248 1.388 . S
C2251 C2252 1.382 . S
C2251 H2276 0.950 . S
C2252 N2247 1.332 . S
C2252 C2251 1.382 . S
C2252 H2262 0.948 . S
N2253 Co2231 2.282 . S
N2253 C2257 1.332 . S
N2253 C2258 1.332 . S
C2254 C2255 1.388 . S
C2254 C2258 1.382 . S
C2254 H2277 0.950 . S
C2255 C2254 1.388 . S
C2255 C2256 1.386 . S
C2256 C2255 1.386 . S
C2256 C2257 1.382 . S
C2256 H2278 0.950 . S
C2257 N2253 1.332 . S
C2257 C2256 1.382 . S
C2257 H2259 0.952 . S
C2258 N2253 1.332 . S
C2258 C2254 1.382 . S
C2258 H2260 0.948 . S
H2259 C2257 0.952 . S
H2260 C2258 0.948 . S
H2261 C2250 0.952 . S
H2262 C2252 0.948 . S
C2263 C2229 1.395 . S
C2263 C2233 1.391 1_565 S
C2264 C2226 1.389 . S
C2264 C2246 1.392 . S
C2265 C2236 1.392 . S
C2265 C2238 1.389 . S
C2266 C2241 1.395 . S
C2266 C2243 1.391 . S
H2267 C2227 0.951 . S
H2268 C2228 0.950 . S
H2269 C2234 0.949 . S
H2270 C2235 0.950 . S
H2271 C2239 0.951 . S
H2272 C2240 0.950 . S
H2273 C2244 0.949 . S
H2274 C2245 0.950 . S
H2275 C2249 0.950 . S
H2276 C2251 0.950 . S
H2277 C2254 0.950 . S
H2278 C2256 0.950 . S
C2279 C2280 1.443 . S
C2279 N2283 1.376 . S
C2279 C2317 1.389 . S
C2280 C2279 1.443 . S
C2280 C2281 1.340 . S
C2280 H2320 0.951 . S
C2281 C2280 1.340 . S
C2281 C2282 1.439 . S
C2281 H2321 0.950 . S
C2282 C2281 1.439 . S
C2282 N2283 1.374 . S
C2282 C2316 1.395 . S
N2283 C2279 1.376 . S
N2283 C2282 1.374 . S
N2283 Co2284 2.008 . S
Co2284 N2283 2.008 . S
Co2284 N2285 1.995 . S
Co2284 N2290 2.008 . S
Co2284 N2295 1.995 . S
Co2284 N2300 2.282 . S
Co2284 N2306 2.282 . S
N2285 Co2284 1.995 . S
N2285 C2286 1.376 . S
N2285 C2289 1.383 . S
C2286 N2285 1.376 . S
C2286 C2287 1.446 . S
C2286 C2316 1.391 . S
C2287 C2286 1.446 . S
C2287 C2288 1.339 . S
C2287 H2322 0.949 . S
C2288 C2287 1.339 . S
C2288 C2289 1.439 . S
C2288 H2323 0.950 . S
C2289 N2285 1.383 . S
C2289 C2288 1.439 . S
C2289 C2318 1.392 . S
N2290 Co2284 2.008 . S
N2290 C2291 1.376 . S
N2290 C2294 1.374 . S
C2291 N2290 1.376 . S
C2291 C2292 1.443 . S
C2291 C2318 1.389 . S
C2292 C2291 1.443 . S
C2292 C2293 1.340 . S
C2292 H2324 0.951 . S
C2293 C2292 1.340 . S
C2293 C2294 1.439 . S
C2293 H2325 0.950 . S
C2294 N2290 1.374 . S
C2294 C2293 1.439 . S
C2294 C2319 1.395 . S
N2295 Co2284 1.995 . S
N2295 C2296 1.376 . S
N2295 C2299 1.383 . S
C2296 N2295 1.376 . S
C2296 C2297 1.446 . S
C2296 C2319 1.391 . S
C2297 C2296 1.446 . S
C2297 C2298 1.339 . S
C2297 H2326 0.949 . S
C2298 C2297 1.339 . S
C2298 C2299 1.439 . S
C2298 H2327 0.950 . S
C2299 N2295 1.383 . S
C2299 C2298 1.439 . S
C2299 C2317 1.392 . S
N2300 Co2284 2.282 . S
N2300 C2303 1.332 . S
N2300 C2305 1.332 . S
C2301 C2302 1.386 . S
C2301 C2304 1.388 . S
C2302 C2301 1.386 . S
C2302 C2303 1.382 . S
C2302 H2328 0.950 . S
C2303 N2300 1.332 . S
C2303 C2302 1.382 . S
C2303 H2314 0.952 . S
C2304 C2301 1.388 . S
C2304 C2305 1.382 . S
C2304 H2329 0.950 . S
C2305 N2300 1.332 . S
C2305 C2304 1.382 . S
C2305 H2315 0.948 . S
N2306 Co2284 2.282 . S
N2306 C2310 1.332 . S
N2306 C2311 1.332 . S
C2307 C2308 1.388 . S
C2307 C2311 1.382 . S
C2307 H2330 0.950 . S
C2308 C2307 1.388 . S
C2308 C2309 1.386 . S
C2309 C2308 1.386 . S
C2309 C2310 1.382 . S
C2309 H2331 0.950 . S
C2310 N2306 1.332 . S
C2310 C2309 1.382 . S
C2310 H2312 0.952 . S
C2311 N2306 1.332 . S
C2311 C2307 1.382 . S
C2311 H2313 0.948 . S
H2312 C2310 0.952 . S
H2313 C2311 0.948 . S
H2314 C2303 0.952 . S
H2315 C2305 0.948 . S
C2316 C2282 1.395 . S
C2316 C2286 1.391 . S
C2317 C2279 1.389 . S
C2317 C2299 1.392 . S
C2318 C2289 1.392 . S
C2318 C2291 1.389 . S
C2319 C2294 1.395 . S
C2319 C2296 1.391 . S
H2320 C2280 0.951 . S
H2321 C2281 0.950 . S
H2322 C2287 0.949 . S
H2323 C2288 0.950 . S
H2324 C2292 0.951 . S
H2325 C2293 0.950 . S
H2326 C2297 0.949 . S
H2327 C2298 0.950 . S
H2328 C2302 0.950 . S
H2329 C2304 0.950 . S
H2330 C2307 0.950 . S
H2331 C2309 0.950 . S
C2332 C2333 1.443 . S
C2332 N2336 1.376 . S
C2332 C2370 1.389 . S
C2333 C2332 1.443 . S
C2333 C2334 1.340 . S
C2333 H2373 0.951 . S
C2334 C2333 1.340 . S
C2334 C2335 1.439 . S
C2334 H2374 0.950 . S
C2335 C2334 1.439 . S
C2335 N2336 1.374 . S
C2335 C2369 1.395 . S
N2336 C2332 1.376 . S
N2336 C2335 1.374 . S
N2336 Co2337 2.008 1_545 S
Co2337 N2336 2.008 1_565 S
Co2337 N2338 1.995 . S
Co2337 N2343 2.008 . S
Co2337 N2348 1.995 1_565 S
Co2337 N2353 2.282 1_565 S
Co2337 N2359 2.282 . S
N2338 Co2337 1.995 . S
N2338 C2339 1.376 . S
N2338 C2342 1.383 . S
C2339 N2338 1.376 . S
C2339 C2340 1.446 . S
C2339 C2369 1.391 1_565 S
C2340 C2339 1.446 . S
C2340 C2341 1.339 . S
C2340 H2375 0.949 . S
C2341 C2340 1.339 . S
C2341 C2342 1.439 . S
C2341 H2376 0.950 . S
C2342 N2338 1.383 . S
C2342 C2341 1.439 . S
C2342 C2371 1.392 . S
N2343 Co2337 2.008 . S
N2343 C2344 1.376 . S
N2343 C2347 1.374 . S
C2344 N2343 1.376 . S
C2344 C2345 1.443 . S
C2344 C2371 1.389 . S
C2345 C2344 1.443 . S
C2345 C2346 1.340 . S
C2345 H2377 0.951 . S
C2346 C2345 1.340 . S
C2346 C2347 1.439 . S
C2346 H2378 0.950 . S
C2347 N2343 1.374 . S
C2347 C2346 1.439 . S
C2347 C2372 1.395 . S
N2348 Co2337 1.995 1_545 S
N2348 C2349 1.376 1_545 S
N2348 C2352 1.383 . S
C2349 N2348 1.376 1_565 S
C2349 C2350 1.446 1_565 S
C2349 C2372 1.391 . S
C2350 C2349 1.446 1_545 S
C2350 C2351 1.339 . S
C2350 H2379 0.949 1_455 S
C2351 C2350 1.339 . S
C2351 C2352 1.439 . S
C2351 H2380 0.928 1_455 S
C2352 N2348 1.383 . S
C2352 C2351 1.439 . S
C2352 C2370 1.392 . S
N2353 Co2337 2.282 1_545 S
N2353 C2356 1.332 . S
N2353 C2358 1.332 . S
C2354 C2355 1.386 . S
C2354 C2357 1.388 . S
C2355 C2354 1.386 . S
C2355 C2356 1.382 . S
C2355 H2381 0.950 . S
C2356 N2353 1.332 . S
C2356 C2355 1.382 . S
C2356 H2367 0.952 . S
C2357 C2354 1.388 . S
C2357 C2358 1.382 . S
C2357 H2382 0.950 . S
C2358 N2353 1.332 . S
C2358 C2357 1.382 . S
C2358 H2368 0.948 . S
N2359 Co2337 2.282 . S
N2359 C2363 1.332 . S
N2359 C2364 1.332 . S
C2360 C2361 1.388 . S
C2360 C2364 1.382 . S
C2360 H2383 0.950 . S
C2361 C2360 1.388 . S
C2361 C2362 1.386 . S
C2362 C2361 1.386 . S
C2362 C2363 1.382 . S
C2362 H2384 0.950 . S
C2363 N2359 1.332 . S
C2363 C2362 1.382 . S
C2363 H2365 0.952 . S
C2364 N2359 1.332 . S
C2364 C2360 1.382 . S
C2364 H2366 0.948 . S
H2365 C2363 0.952 . S
H2366 C2364 0.948 . S
H2367 C2356 0.952 . S
H2368 C2358 0.948 . S
C2369 C2335 1.395 . S
C2369 C2339 1.391 1_545 S
C2370 C2332 1.389 . S
C2370 C2352 1.392 . S
C2371 C2342 1.392 . S
C2371 C2344 1.389 . S
C2372 C2347 1.395 . S
C2372 C2349 1.391 . S
H2373 C2333 0.951 . S
H2374 C2334 0.950 . S
H2375 C2340 0.949 . S
H2376 C2341 0.950 . S
H2377 C2345 0.951 . S
H2378 C2346 0.950 . S
H2379 C2350 0.949 1_655 S
H2380 C2351 0.928 1_655 S
H2381 C2355 0.950 . S
H2382 C2357 0.950 . S
H2383 C2360 0.950 . S
H2384 C2362 0.950 . S
C2385 C2386 1.443 . S
C2385 N2389 1.376 . S
C2385 C2423 1.389 . S
C2386 C2385 1.443 . S
C2386 C2387 1.340 . S
C2386 H2426 0.951 . S
C2387 C2386 1.340 . S
C2387 C2388 1.439 . S
C2387 H2427 0.950 . S
C2388 C2387 1.439 . S
C2388 N2389 1.374 . S
C2388 C2422 1.395 . S
N2389 C2385 1.376 . S
N2389 C2388 1.374 . S
N2389 Co2390 2.008 . S
Co2390 N2389 2.008 . S
Co2390 N2391 1.995 . S
Co2390 N2396 2.008 . S
Co2390 N2401 1.995 . S
Co2390 N2406 2.282 . S
Co2390 N2412 2.282 . S
N2391 Co2390 1.995 . S
N2391 C2392 1.376 . S
N2391 C2395 1.383 . S
C2392 N2391 1.376 . S
C2392 C2393 1.446 . S
C2392 C2422 1.391 . S
C2393 C2392 1.446 . S
C2393 C2394 1.339 . S
C2393 H2428 0.949 . S
C2394 C2393 1.339 . S
C2394 C2395 1.439 . S
C2394 H2429 0.950 . S
C2395 N2391 1.383 . S
C2395 C2394 1.439 . S
C2395 C2424 1.392 . S
N2396 Co2390 2.008 . S
N2396 C2397 1.376 . S
N2396 C2400 1.374 . S
C2397 N2396 1.376 . S
C2397 C2398 1.443 . S
C2397 C2424 1.389 . S
C2398 C2397 1.443 . S
C2398 C2399 1.340 . S
C2398 H2430 0.951 . S
C2399 C2398 1.340 . S
C2399 C2400 1.439 . S
C2399 H2431 0.950 . S
C2400 N2396 1.374 . S
C2400 C2399 1.439 . S
C2400 C2425 1.395 . S
N2401 Co2390 1.995 . S
N2401 C2402 1.376 . S
N2401 C2405 1.383 . S
C2402 N2401 1.376 . S
C2402 C2403 1.446 . S
C2402 C2425 1.391 . S
C2403 C2402 1.446 . S
C2403 C2404 1.339 . S
C2403 H2432 0.949 . S
C2404 C2403 1.339 . S
C2404 C2405 1.439 . S
C2404 H2433 0.950 . S
C2405 N2401 1.383 . S
C2405 C2404 1.439 . S
C2405 C2423 1.392 . S
N2406 Co2390 2.282 . S
N2406 C2409 1.332 . S
N2406 C2411 1.332 . S
C2407 C2408 1.386 . S
C2407 C2410 1.388 . S
C2408 C2407 1.386 . S
C2408 C2409 1.382 . S
C2408 H2434 0.950 . S
C2409 N2406 1.332 . S
C2409 C2408 1.382 . S
C2409 H2420 0.952 . S
C2410 C2407 1.388 . S
C2410 C2411 1.382 . S
C2410 H2435 0.950 . S
C2411 N2406 1.332 . S
C2411 C2410 1.382 . S
C2411 H2421 0.948 . S
N2412 Co2390 2.282 . S
N2412 C2416 1.332 . S
N2412 C2417 1.332 . S
C2413 C2414 1.388 . S
C2413 C2417 1.382 . S
C2413 H2436 0.950 . S
C2414 C2413 1.388 . S
C2414 C2415 1.386 . S
C2415 C2414 1.386 . S
C2415 C2416 1.382 . S
C2415 H2437 0.950 . S
C2416 N2412 1.332 . S
C2416 C2415 1.382 . S
C2416 H2418 0.952 . S
C2417 N2412 1.332 . S
C2417 C2413 1.382 . S
C2417 H2419 0.948 . S
H2418 C2416 0.952 . S
H2419 C2417 0.948 . S
H2420 C2409 0.952 . S
H2421 C2411 0.948 . S
C2422 C2388 1.395 . S
C2422 C2392 1.391 . S
C2423 C2385 1.389 . S
C2423 C2405 1.392 . S
C2424 C2395 1.392 . S
C2424 C2397 1.389 . S
C2425 C2400 1.395 . S
C2425 C2402 1.391 . S
H2426 C2386 0.951 . S
H2427 C2387 0.950 . S
H2428 C2393 0.949 . S
H2429 C2394 0.950 . S
H2430 C2398 0.951 . S
H2431 C2399 0.950 . S
H2432 C2403 0.949 . S
H2433 C2404 0.950 . S
H2434 C2408 0.950 . S
H2435 C2410 0.950 . S
H2436 C2413 0.950 . S
H2437 C2415 0.950 . S
C2438 C2439 1.443 . S
C2438 N2442 1.376 . S
C2438 C2476 1.389 . S
C2439 C2438 1.443 . S
C2439 C2440 1.340 . S
C2439 H2479 0.951 . S
C2440 C2439 1.340 . S
C2440 C2441 1.439 . S
C2440 H2480 0.950 . S
C2441 C2440 1.439 . S
C2441 N2442 1.374 . S
C2441 C2475 1.395 . S
N2442 C2438 1.376 . S
N2442 C2441 1.374 . S
N2442 Co2443 2.008 1_545 S
Co2443 N2442 2.008 1_565 S
Co2443 N2444 1.995 . S
Co2443 N2449 2.008 . S
Co2443 N2454 1.995 1_565 S
Co2443 N2459 2.282 1_565 S
Co2443 N2465 2.282 . S
N2444 Co2443 1.995 . S
N2444 C2445 1.376 . S
N2444 C2448 1.383 . S
C2445 N2444 1.376 . S
C2445 C2446 1.446 . S
C2445 C2475 1.391 1_565 S
C2446 C2445 1.446 . S
C2446 C2447 1.339 . S
C2446 H2481 0.949 . S
C2447 C2446 1.339 . S
C2447 C2448 1.439 . S
C2447 H2482 0.950 . S
C2448 N2444 1.383 . S
C2448 C2447 1.439 . S
C2448 C2477 1.392 . S
N2449 Co2443 2.008 . S
N2449 C2450 1.376 . S
N2449 C2453 1.374 . S
C2450 N2449 1.376 . S
C2450 C2451 1.443 . S
C2450 C2477 1.389 . S
C2451 C2450 1.443 . S
C2451 C2452 1.340 . S
C2451 H2483 0.951 . S
C2452 C2451 1.340 . S
C2452 C2453 1.439 . S
C2452 H2484 0.950 . S
C2453 N2449 1.374 . S
C2453 C2452 1.439 . S
C2453 C2478 1.395 . S
N2454 Co2443 1.995 1_545 S
N2454 C2455 1.376 1_545 S
N2454 C2458 1.383 . S
C2455 N2454 1.376 1_565 S
C2455 C2456 1.446 1_565 S
C2455 C2478 1.391 . S
C2456 C2455 1.446 1_545 S
C2456 C2457 1.339 . S
C2456 H2485 0.949 . S
C2457 C2456 1.339 . S
C2457 C2458 1.439 . S
C2457 H2486 0.950 . S
C2458 N2454 1.383 . S
C2458 C2457 1.439 . S
C2458 C2476 1.392 . S
N2459 Co2443 2.282 1_545 S
N2459 C2462 1.332 . S
N2459 C2464 1.332 . S
C2460 C2461 1.386 . S
C2460 C2463 1.388 . S
C2461 C2460 1.386 . S
C2461 C2462 1.382 . S
C2461 H2487 0.950 . S
C2462 N2459 1.332 . S
C2462 C2461 1.382 . S
C2462 H2473 0.952 . S
C2463 C2460 1.388 . S
C2463 C2464 1.382 . S
C2463 H2488 0.950 . S
C2464 N2459 1.332 . S
C2464 C2463 1.382 . S
C2464 H2474 0.948 . S
N2465 Co2443 2.282 . S
N2465 C2469 1.332 . S
N2465 C2470 1.332 . S
C2466 C2467 1.388 . S
C2466 C2470 1.382 . S
C2466 H2489 0.950 . S
C2467 C2466 1.388 . S
C2467 C2468 1.386 . S
C2468 C2467 1.386 . S
C2468 C2469 1.382 . S
C2468 H2490 0.950 . S
C2469 N2465 1.332 . S
C2469 C2468 1.382 . S
C2469 H2471 0.952 . S
C2470 N2465 1.332 . S
C2470 C2466 1.382 . S
C2470 H2472 0.948 . S
H2471 C2469 0.952 . S
H2472 C2470 0.948 . S
H2473 C2462 0.952 . S
H2474 C2464 0.948 . S
C2475 C2441 1.395 . S
C2475 C2445 1.391 1_545 S
C2476 C2438 1.389 . S
C2476 C2458 1.392 . S
C2477 C2448 1.392 . S
C2477 C2450 1.389 . S
C2478 C2453 1.395 . S
C2478 C2455 1.391 . S
H2479 C2439 0.951 . S
H2480 C2440 0.950 . S
H2481 C2446 0.949 . S
H2482 C2447 0.950 . S
H2483 C2451 0.951 . S
H2484 C2452 0.950 . S
H2485 C2456 0.949 . S
H2486 C2457 0.950 . S
H2487 C2461 0.950 . S
H2488 C2463 0.950 . S
H2489 C2466 0.950 . S
H2490 C2468 0.950 . S
C2491 C2492 1.443 . S
C2491 N2495 1.376 . S
C2491 C2529 1.389 . S
C2492 C2491 1.443 . S
C2492 C2493 1.340 . S
C2492 H2532 0.951 . S
C2493 C2492 1.340 . S
C2493 C2494 1.439 . S
C2493 H2533 0.950 . S
C2494 C2493 1.439 . S
C2494 N2495 1.374 . S
C2494 C2528 1.395 . S
N2495 C2491 1.376 . S
N2495 C2494 1.374 . S
N2495 Co2496 2.008 . S
Co2496 N2495 2.008 . S
Co2496 N2497 1.995 . S
Co2496 N2502 2.008 . S
Co2496 N2507 1.995 . S
Co2496 N2512 2.282 . S
Co2496 N2518 2.282 . S
N2497 Co2496 1.995 . S
N2497 C2498 1.376 . S
N2497 C2501 1.383 . S
C2498 N2497 1.376 . S
C2498 C2499 1.446 . S
C2498 C2528 1.391 . S
C2499 C2498 1.446 . S
C2499 C2500 1.339 . S
C2499 H2534 0.949 . S
C2500 C2499 1.339 . S
C2500 C2501 1.439 . S
C2500 H2535 0.950 . S
C2501 N2497 1.383 . S
C2501 C2500 1.439 . S
C2501 C2530 1.392 . S
N2502 Co2496 2.008 . S
N2502 C2503 1.376 . S
N2502 C2506 1.374 . S
C2503 N2502 1.376 . S
C2503 C2504 1.443 . S
C2503 C2530 1.389 . S
C2504 C2503 1.443 . S
C2504 C2505 1.340 . S
C2504 H2536 0.951 . S
C2505 C2504 1.340 . S
C2505 C2506 1.439 . S
C2505 H2537 0.950 . S
C2506 N2502 1.374 . S
C2506 C2505 1.439 . S
C2506 C2531 1.395 . S
N2507 Co2496 1.995 . S
N2507 C2508 1.376 . S
N2507 C2511 1.383 . S
C2508 N2507 1.376 . S
C2508 C2509 1.446 . S
C2508 C2531 1.391 . S
C2509 C2508 1.446 . S
C2509 C2510 1.339 . S
C2509 H2538 0.949 . S
C2510 C2509 1.339 . S
C2510 C2511 1.439 . S
C2510 H2539 0.950 . S
C2511 N2507 1.383 . S
C2511 C2510 1.439 . S
C2511 C2529 1.392 . S
N2512 Co2496 2.282 . S
N2512 C2515 1.332 . S
N2512 C2517 1.332 . S
C2513 C2514 1.386 . S
C2513 C2516 1.388 . S
C2514 C2513 1.386 . S
C2514 C2515 1.382 . S
C2514 H2540 0.950 . S
C2515 N2512 1.332 . S
C2515 C2514 1.382 . S
C2515 H2526 0.952 . S
C2516 C2513 1.388 . S
C2516 C2517 1.382 . S
C2516 H2541 0.950 . S
C2517 N2512 1.332 . S
C2517 C2516 1.382 . S
C2517 H2527 0.948 . S
N2518 Co2496 2.282 . S
N2518 C2522 1.332 . S
N2518 C2523 1.332 . S
C2519 C2520 1.388 . S
C2519 C2523 1.382 . S
C2519 H2542 0.950 . S
C2520 C2519 1.388 . S
C2520 C2521 1.386 . S
C2521 C2520 1.386 . S
C2521 C2522 1.382 . S
C2521 H2543 0.950 . S
C2522 N2518 1.332 . S
C2522 C2521 1.382 . S
C2522 H2524 0.952 . S
C2523 N2518 1.332 . S
C2523 C2519 1.382 . S
C2523 H2525 0.948 . S
H2524 C2522 0.952 . S
H2525 C2523 0.948 . S
H2526 C2515 0.952 . S
H2527 C2517 0.948 . S
C2528 C2494 1.395 . S
C2528 C2498 1.391 . S
C2529 C2491 1.389 . S
C2529 C2511 1.392 . S
C2530 C2501 1.392 . S
C2530 C2503 1.389 . S
C2531 C2506 1.395 . S
C2531 C2508 1.391 . S
H2532 C2492 0.951 . S
H2533 C2493 0.950 . S
H2534 C2499 0.949 . S
H2535 C2500 0.950 . S
H2536 C2504 0.951 . S
H2537 C2505 0.950 . S
H2538 C2509 0.949 . S
H2539 C2510 0.950 . S
H2540 C2514 0.950 . S
H2541 C2516 0.950 . S
H2542 C2519 0.950 . S
H2543 C2521 0.950 . S
C2544 C2545 1.363 . S
C2544 C2550 1.379 . S
C2544 N2552 1.356 . S
C2545 C2544 1.363 . S
C2545 C2551 1.363 . S
C2546 C2547 1.363 . S
C2546 C2551 1.379 . S
C2546 N2553 1.356 . S
C2547 C2546 1.363 . S
C2547 C2550 1.363 . S
N2548 C2550 1.356 . S
N2548 H2560 0.984 . S
N2548 H2561 0.985 . S
N2549 C2551 1.356 . S
N2549 H2554 0.984 . S
N2549 H2555 0.985 . S
C2550 C2544 1.379 . S
C2550 C2547 1.363 . S
C2550 N2548 1.356 . S
C2551 C2545 1.363 . S
C2551 C2546 1.379 . S
C2551 N2549 1.356 . S
N2552 C2544 1.356 . S
N2552 H2558 0.984 . S
N2552 H2559 0.984 . S
N2553 C2546 1.356 . S
N2553 H2556 0.984 . S
N2553 H2557 0.985 . S
H2554 N2549 0.984 . S
H2555 N2549 0.985 . S
H2556 N2553 0.984 . S
H2557 N2553 0.985 . S
H2558 N2552 0.984 . S
H2559 N2552 0.984 . S
H2560 N2548 0.984 . S
H2561 N2548 0.985 . S
C2562 C2563 1.363 . S
C2562 C2568 1.379 1_554 S
C2562 N2570 1.356 . S
C2563 C2562 1.363 . S
C2563 C2569 1.363 . S
C2564 C2565 1.363 . S
C2564 C2569 1.379 1_556 S
C2564 N2571 1.356 . S
C2565 C2564 1.363 . S
C2565 C2568 1.363 . S
N2566 C2568 1.356 . S
N2566 H2578 0.984 . S
N2566 H2579 0.985 . S
N2567 C2569 1.356 . S
N2567 H2572 0.984 . S
N2567 H2573 0.985 . S
C2568 C2562 1.379 1_556 S
C2568 C2565 1.363 . S
C2568 N2566 1.356 . S
C2569 C2563 1.363 . S
C2569 C2564 1.379 1_554 S
C2569 N2567 1.356 . S
N2570 C2562 1.356 . S
N2570 H2576 0.984 . S
N2570 H2577 0.984 . S
N2571 C2564 1.356 . S
N2571 H2574 0.984 . S
N2571 H2575 0.985 . S
H2572 N2567 0.984 . S
H2573 N2567 0.985 . S
H2574 N2571 0.984 . S
H2575 N2571 0.985 . S
H2576 N2570 0.984 . S
H2577 N2570 0.984 . S
H2578 N2566 0.984 . S
H2579 N2566 0.985 . S
C2580 C2581 1.363 . S
C2580 C2586 1.379 . S
C2580 N2588 1.356 . S
C2581 C2580 1.363 . S
C2581 C2587 1.363 . S
C2582 C2583 1.363 . S
C2582 C2587 1.379 . S
C2582 N2589 1.356 . S
C2583 C2582 1.363 . S
C2583 C2586 1.363 . S
N2584 C2586 1.356 . S
N2584 H2596 0.984 . S
N2584 H2597 0.985 . S
N2585 C2587 1.356 . S
N2585 H2590 0.984 . S
N2585 H2591 0.985 . S
C2586 C2580 1.379 . S
C2586 C2583 1.363 . S
C2586 N2584 1.356 . S
C2587 C2581 1.363 . S
C2587 C2582 1.379 . S
C2587 N2585 1.356 . S
N2588 C2580 1.356 . S
N2588 H2594 0.984 . S
N2588 H2595 0.984 . S
N2589 C2582 1.356 . S
N2589 H2592 0.984 . S
N2589 H2593 0.985 . S
H2590 N2585 0.984 . S
H2591 N2585 0.985 . S
H2592 N2589 0.984 . S
H2593 N2589 0.985 . S
H2594 N2588 0.984 . S
H2595 N2588 0.984 . S
H2596 N2584 0.984 . S
H2597 N2584 0.985 . S
C2598 C2599 1.363 . S
C2598 C2604 1.379 1_556 S
C2598 N2606 1.356 . S
C2599 C2598 1.363 . S
C2599 C2605 1.363 . S
C2600 C2601 1.363 . S
C2600 C2605 1.379 1_554 S
C2600 N2607 1.356 . S
C2601 C2600 1.363 . S
C2601 C2604 1.363 . S
N2602 C2604 1.356 . S
N2602 H2614 0.984 . S
N2602 H2615 0.985 . S
N2603 C2605 1.356 . S
N2603 H2608 0.984 . S
N2603 H2609 0.985 . S
C2604 C2598 1.379 1_554 S
C2604 C2601 1.363 . S
C2604 N2602 1.356 . S
C2605 C2599 1.363 . S
C2605 C2600 1.379 1_556 S
C2605 N2603 1.356 . S
N2606 C2598 1.356 . S
N2606 H2612 0.984 . S
N2606 H2613 0.984 . S
N2607 C2600 1.356 . S
N2607 H2610 0.984 . S
N2607 H2611 0.985 . S
H2608 N2603 0.984 . S
H2609 N2603 0.985 . S
H2610 N2607 0.984 . S
H2611 N2607 0.985 . S
H2612 N2606 0.984 . S
H2613 N2606 0.984 . S
H2614 N2602 0.984 . S
H2615 N2602 0.985 . S
C2616 C2617 1.363 . S
C2616 C2622 1.379 . S
C2616 N2624 1.356 . S
C2617 C2616 1.363 . S
C2617 C2623 1.363 . S
C2618 C2619 1.363 . S
C2618 C2623 1.379 . S
C2618 N2625 1.356 . S
C2619 C2618 1.363 . S
C2619 C2622 1.363 . S
N2620 C2622 1.356 . S
N2620 H2632 0.984 . S
N2620 H2633 0.985 . S
N2621 C2623 1.356 . S
N2621 H2626 0.984 . S
N2621 H2627 0.985 . S
C2622 C2616 1.379 . S
C2622 C2619 1.363 . S
C2622 N2620 1.356 . S
C2623 C2617 1.363 . S
C2623 C2618 1.379 . S
C2623 N2621 1.356 . S
N2624 C2616 1.356 . S
N2624 H2630 0.984 . S
N2624 H2631 0.984 . S
N2625 C2618 1.356 . S
N2625 H2628 0.984 . S
N2625 H2629 0.985 . S
H2626 N2621 0.984 . S
H2627 N2621 0.985 . S
H2628 N2625 0.984 . S
H2629 N2625 0.985 . S
H2630 N2624 0.984 . S
H2631 N2624 0.984 . S
H2632 N2620 0.984 . S
H2633 N2620 0.985 . S
C2634 C2635 1.363 . S
C2634 C2640 1.379 1_554 S
C2634 N2642 1.356 . S
C2635 C2634 1.363 . S
C2635 C2641 1.363 . S
C2636 C2637 1.363 . S
C2636 C2641 1.379 1_556 S
C2636 N2643 1.356 . S
C2637 C2636 1.363 . S
C2637 C2640 1.363 . S
N2638 C2640 1.356 . S
N2638 H2650 0.984 . S
N2638 H2651 0.985 . S
N2639 C2641 1.356 . S
N2639 H2644 0.984 . S
N2639 H2645 0.985 . S
C2640 C2634 1.379 1_556 S
C2640 C2637 1.363 . S
C2640 N2638 1.356 . S
C2641 C2635 1.363 . S
C2641 C2636 1.379 1_554 S
C2641 N2639 1.356 . S
N2642 C2634 1.356 . S
N2642 H2648 0.984 . S
N2642 H2649 0.984 . S
N2643 C2636 1.356 . S
N2643 H2646 0.984 . S
N2643 H2647 0.985 . S
H2644 N2639 0.984 . S
H2645 N2639 0.985 . S
H2646 N2643 0.984 . S
H2647 N2643 0.985 . S
H2648 N2642 0.984 . S
H2649 N2642 0.984 . S
H2650 N2638 0.984 . S
H2651 N2638 0.985 . S
C2652 C2653 1.363 . S
C2652 C2658 1.379 . S
C2652 N2660 1.356 . S
C2653 C2652 1.363 . S
C2653 C2659 1.363 . S
C2654 C2655 1.363 . S
C2654 C2659 1.379 . S
C2654 N2661 1.356 . S
C2655 C2654 1.363 . S
C2655 C2658 1.363 . S
N2656 C2658 1.356 . S
N2656 H2668 0.984 . S
N2656 H2669 0.985 . S
N2657 C2659 1.356 . S
N2657 H2662 0.984 . S
N2657 H2663 0.985 . S
C2658 C2652 1.379 . S
C2658 C2655 1.363 . S
C2658 N2656 1.356 . S
C2659 C2653 1.363 . S
C2659 C2654 1.379 . S
C2659 N2657 1.356 . S
N2660 C2652 1.356 . S
N2660 H2666 0.984 . S
N2660 H2667 0.984 . S
N2661 C2654 1.356 . S
N2661 H2664 0.984 . S
N2661 H2665 0.985 . S
H2662 N2657 0.984 . S
H2663 N2657 0.985 . S
H2664 N2661 0.984 . S
H2665 N2661 0.985 . S
H2666 N2660 0.984 . S
H2667 N2660 0.984 . S
H2668 N2656 0.984 . S
H2669 N2656 0.985 . S
C2670 C2671 1.363 . S
C2670 C2676 1.379 1_556 S
C2670 N2678 1.356 . S
C2671 C2670 1.363 . S
C2671 C2677 1.363 . S
C2672 C2673 1.363 . S
C2672 C2677 1.379 1_554 S
C2672 N2679 1.356 . S
C2673 C2672 1.363 . S
C2673 C2676 1.363 . S
N2674 C2676 1.356 . S
N2674 H2686 0.984 . S
N2674 H2687 0.985 . S
N2675 C2677 1.356 . S
N2675 H2680 0.984 . S
N2675 H2681 0.985 . S
C2676 C2670 1.379 1_554 S
C2676 C2673 1.363 . S
C2676 N2674 1.356 . S
C2677 C2671 1.363 . S
C2677 C2672 1.379 1_556 S
C2677 N2675 1.356 . S
N2678 C2670 1.356 . S
N2678 H2684 0.984 . S
N2678 H2685 0.984 . S
N2679 C2672 1.356 . S
N2679 H2682 0.984 . S
N2679 H2683 0.985 . S
H2680 N2675 0.984 . S
H2681 N2675 0.985 . S
H2682 N2679 0.984 . S
H2683 N2679 0.985 . S
H2684 N2678 0.984 . S
H2685 N2678 0.984 . S
H2686 N2674 0.984 . S
H2687 N2674 0.985 . S
C2688 C2689 1.363 . S
C2688 C2694 1.379 . S
C2688 N2696 1.356 . S
C2689 C2688 1.363 . S
C2689 C2695 1.363 . S
C2690 C2691 1.363 . S
C2690 C2695 1.379 . S
C2690 N2697 1.356 . S
C2691 C2690 1.363 . S
C2691 C2694 1.363 . S
N2692 C2694 1.356 . S
N2692 H2704 0.984 . S
N2692 H2705 0.985 . S
N2693 C2695 1.356 . S
N2693 H2698 0.984 . S
N2693 H2699 0.985 . S
C2694 C2688 1.379 . S
C2694 C2691 1.363 . S
C2694 N2692 1.356 . S
C2695 C2689 1.363 . S
C2695 C2690 1.379 . S
C2695 N2693 1.356 . S
N2696 C2688 1.356 . S
N2696 H2702 0.984 . S
N2696 H2703 0.984 . S
N2697 C2690 1.356 . S
N2697 H2700 0.984 . S
N2697 H2701 0.985 . S
H2698 N2693 0.984 . S
H2699 N2693 0.985 . S
H2700 N2697 0.984 . S
H2701 N2697 0.985 . S
H2702 N2696 0.984 . S
H2703 N2696 0.984 . S
H2704 N2692 0.984 . S
H2705 N2692 0.985 . S
C2706 C2707 1.363 . S
C2706 C2712 1.379 . S
C2706 N2714 1.356 . S
C2707 C2706 1.363 . S
C2707 C2713 1.363 . S
C2708 C2709 1.363 . S
C2708 C2713 1.379 . S
C2708 N2715 1.356 . S
C2709 C2708 1.363 . S
C2709 C2712 1.363 . S
N2710 C2712 1.356 . S
N2710 H2722 0.984 . S
N2710 H2723 0.985 . S
N2711 C2713 1.356 . S
N2711 H2716 0.984 . S
N2711 H2717 0.985 1_556 S
C2712 C2706 1.379 . S
C2712 C2709 1.363 . S
C2712 N2710 1.356 . S
C2713 C2707 1.363 . S
C2713 C2708 1.379 . S
C2713 N2711 1.356 . S
N2714 C2706 1.356 . S
N2714 H2720 0.984 . S
N2714 H2721 0.984 . S
N2715 C2708 1.356 . S
N2715 H2718 0.984 . S
N2715 H2719 0.985 1_556 S
H2716 N2711 0.984 . S
H2717 N2711 0.985 1_554 S
H2718 N2715 0.984 . S
H2719 N2715 0.985 1_554 S
H2720 N2714 0.984 . S
H2721 N2714 0.984 . S
H2722 N2710 0.984 . S
H2723 N2710 0.985 . S
C2724 C2725 1.363 . S
C2724 C2730 1.379 . S
C2724 N2732 1.356 . S
C2725 C2724 1.363 . S
C2725 C2731 1.363 . S
C2726 C2727 1.363 . S
C2726 C2731 1.379 . S
C2726 N2733 1.356 . S
C2727 C2726 1.363 . S
C2727 C2730 1.363 . S
N2728 C2730 1.356 . S
N2728 H2740 0.984 . S
N2728 H2741 0.985 . S
N2729 C2731 1.356 . S
N2729 H2734 0.984 . S
N2729 H2735 0.985 . S
C2730 C2724 1.379 . S
C2730 C2727 1.363 . S
C2730 N2728 1.356 . S
C2731 C2725 1.363 . S
C2731 C2726 1.379 . S
C2731 N2729 1.356 . S
N2732 C2724 1.356 . S
N2732 H2738 0.984 . S
N2732 H2739 0.984 . S
N2733 C2726 1.356 . S
N2733 H2736 0.984 . S
N2733 H2737 0.985 . S
H2734 N2729 0.984 . S
H2735 N2729 0.985 . S
H2736 N2733 0.984 . S
H2737 N2733 0.985 . S
H2738 N2732 0.984 . S
H2739 N2732 0.984 . S
H2740 N2728 0.984 . S
H2741 N2728 0.985 . S
C2742 C2743 1.363 . S
C2742 C2748 1.379 1_565 S
C2742 N2750 1.356 . S
C2743 C2742 1.363 . S
C2743 C2749 1.363 . S
C2744 C2745 1.363 . S
C2744 C2749 1.379 1_545 S
C2744 N2751 1.356 . S
C2745 C2744 1.363 . S
C2745 C2748 1.363 . S
N2746 C2748 1.356 . S
N2746 H2758 0.976 1_556 S
N2746 H2759 0.985 . S
N2747 C2749 1.356 . S
N2747 H2752 0.984 . S
N2747 H2753 0.985 . S
C2748 C2742 1.379 1_545 S
C2748 C2745 1.363 . S
C2748 N2746 1.356 . S
C2749 C2743 1.363 . S
C2749 C2744 1.379 1_565 S
C2749 N2747 1.356 . S
N2750 C2742 1.356 . S
N2750 H2756 0.984 . S
N2750 H2757 0.984 . S
N2751 C2744 1.356 . S
N2751 H2754 0.984 . S
N2751 H2755 0.985 . S
H2752 N2747 0.984 . S
H2753 N2747 0.985 . S
H2754 N2751 0.984 . S
H2755 N2751 0.985 . S
H2756 N2750 0.984 . S
H2757 N2750 0.984 . S
H2758 N2746 0.976 1_554 S
H2759 N2746 0.985 . S
C2760 C2761 1.363 . S
C2760 C2766 1.379 . S
C2760 N2768 1.356 . S
C2761 C2760 1.363 . S
C2761 C2767 1.363 . S
C2762 C2763 1.363 . S
C2762 C2767 1.379 . S
C2762 N2769 1.356 . S
C2763 C2762 1.363 . S
C2763 C2766 1.363 . S
N2764 C2766 1.356 . S
N2764 H2776 0.984 . S
N2764 H2777 0.985 . S
N2765 C2767 1.356 . S
N2765 H2770 0.984 . S
N2765 H2771 0.985 . S
C2766 C2760 1.379 . S
C2766 C2763 1.363 . S
C2766 N2764 1.356 . S
C2767 C2761 1.363 . S
C2767 C2762 1.379 . S
C2767 N2765 1.356 . S
N2768 C2760 1.356 . S
N2768 H2774 0.984 . S
N2768 H2775 0.984 . S
N2769 C2762 1.356 . S
N2769 H2772 0.984 . S
N2769 H2773 0.985 . S
H2770 N2765 0.984 . S
H2771 N2765 0.985 . S
H2772 N2769 0.984 . S
H2773 N2769 0.985 . S
H2774 N2768 0.984 . S
H2775 N2768 0.984 . S
H2776 N2764 0.984 . S
H2777 N2764 0.985 . S
C2778 C2779 1.363 . S
C2778 C2784 1.379 . S
C2778 N2786 1.356 . S
C2779 C2778 1.363 . S
C2779 C2785 1.363 . S
C2780 C2781 1.363 . S
C2780 C2785 1.379 . S
C2780 N2787 1.356 . S
C2781 C2780 1.363 . S
C2781 C2784 1.363 . S
N2782 C2784 1.356 . S
N2782 H2794 0.984 . S
N2782 H2795 0.985 . S
N2783 C2785 1.356 . S
N2783 H2788 0.984 . S
N2783 H2789 0.985 1_554 S
C2784 C2778 1.379 . S
C2784 C2781 1.363 . S
C2784 N2782 1.356 . S
C2785 C2779 1.363 . S
C2785 C2780 1.379 . S
C2785 N2783 1.356 . S
N2786 C2778 1.356 . S
N2786 H2792 0.984 . S
N2786 H2793 0.984 . S
N2787 C2780 1.356 . S
N2787 H2790 0.984 . S
N2787 H2791 0.984 . S
H2788 N2783 0.984 . S
H2789 N2783 0.985 1_556 S
H2790 N2787 0.984 . S
H2791 N2787 0.984 . S
H2792 N2786 0.984 . S
H2793 N2786 0.984 . S
H2794 N2782 0.984 . S
H2795 N2782 0.985 . S
C2796 C2797 1.363 . S
C2796 C2802 1.379 . S
C2796 N2804 1.356 . S
C2797 C2796 1.363 . S
C2797 C2803 1.363 . S
C2798 C2799 1.363 . S
C2798 C2803 1.379 . S
C2798 N2805 1.356 . S
C2799 C2798 1.363 . S
C2799 C2802 1.363 . S
N2800 C2802 1.356 . S
N2800 H2812 0.984 . S
N2800 H2813 0.985 . S
N2801 C2803 1.356 . S
N2801 H2806 0.984 . S
N2801 H2807 0.985 . S
C2802 C2796 1.379 . S
C2802 C2799 1.363 . S
C2802 N2800 1.356 . S
C2803 C2797 1.363 . S
C2803 C2798 1.379 . S
C2803 N2801 1.356 . S
N2804 C2796 1.356 . S
N2804 H2810 0.984 . S
N2804 H2811 0.984 . S
N2805 C2798 1.356 . S
N2805 H2808 0.984 . S
N2805 H2809 0.985 . S
H2806 N2801 0.984 . S
H2807 N2801 0.985 . S
H2808 N2805 0.984 . S
H2809 N2805 0.985 . S
H2810 N2804 0.984 . S
H2811 N2804 0.984 . S
H2812 N2800 0.984 . S
H2813 N2800 0.985 . S
C2814 C2815 1.363 . S
C2814 C2820 1.379 1_545 S
C2814 N2822 1.356 . S
C2815 C2814 1.363 . S
C2815 C2821 1.363 . S
C2816 C2817 1.363 . S
C2816 C2821 1.379 1_565 S
C2816 N2823 1.356 . S
C2817 C2816 1.363 . S
C2817 C2820 1.363 . S
N2818 C2820 1.356 . S
N2818 H2830 0.984 1_554 S
N2818 H2831 0.985 . S
N2819 C2821 1.356 . S
N2819 H2824 0.984 . S
N2819 H2825 0.985 . S
C2820 C2814 1.379 1_565 S
C2820 C2817 1.363 . S
C2820 N2818 1.356 . S
C2821 C2815 1.363 . S
C2821 C2816 1.379 1_545 S
C2821 N2819 1.356 . S
N2822 C2814 1.356 . S
N2822 H2828 0.984 1_554 S
N2822 H2829 0.984 . S
N2823 C2816 1.356 . S
N2823 H2826 0.984 . S
N2823 H2827 0.985 . S
H2824 N2819 0.984 . S
H2825 N2819 0.985 . S
H2826 N2823 0.984 . S
H2827 N2823 0.985 . S
H2828 N2822 0.984 1_556 S
H2829 N2822 0.984 . S
H2830 N2818 0.984 1_556 S
H2831 N2818 0.985 . S
C2832 C2833 1.363 . S
C2832 C2838 1.379 . S
C2832 N2840 1.356 . S
C2833 C2832 1.363 . S
C2833 C2839 1.363 . S
C2834 C2835 1.363 . S
C2834 C2839 1.379 . S
C2834 N2841 1.356 . S
C2835 C2834 1.363 . S
C2835 C2838 1.363 . S
N2836 C2838 1.356 . S
N2836 H2848 0.984 . S
N2836 H2849 0.985 . S
N2837 C2839 1.356 . S
N2837 H2842 0.984 . S
N2837 H2843 0.985 . S
C2838 C2832 1.379 . S
C2838 C2835 1.363 . S
C2838 N2836 1.356 . S
C2839 C2833 1.363 . S
C2839 C2834 1.379 . S
C2839 N2837 1.356 . S
N2840 C2832 1.356 . S
N2840 H2846 0.984 . S
N2840 H2847 0.984 . S
N2841 C2834 1.356 . S
N2841 H2844 0.984 . S
N2841 H2845 0.985 . S
H2842 N2837 0.984 . S
H2843 N2837 0.985 . S
H2844 N2841 0.984 . S
H2845 N2841 0.985 . S
H2846 N2840 0.984 . S
H2847 N2840 0.984 . S
H2848 N2836 0.984 . S
H2849 N2836 0.985 . S
C2850 C2851 1.363 . S
C2850 C2856 1.379 . S
C2850 N2858 1.356 . S
C2851 C2850 1.363 . S
C2851 C2857 1.363 . S
C2852 C2853 1.363 . S
C2852 C2857 1.379 . S
C2852 N2859 1.356 . S
C2853 C2852 1.363 . S
C2853 C2856 1.363 . S
N2854 C2856 1.356 . S
N2854 H2866 0.984 . S
N2854 H2867 0.985 . S
N2855 C2857 1.356 . S
N2855 H2860 0.984 . S
N2855 H2861 0.985 . S
C2856 C2850 1.379 . S
C2856 C2853 1.363 . S
C2856 N2854 1.356 . S
C2857 C2851 1.363 . S
C2857 C2852 1.379 . S
C2857 N2855 1.356 . S
N2858 C2850 1.356 . S
N2858 H2864 0.984 . S
N2858 H2865 0.984 . S
N2859 C2852 1.356 . S
N2859 H2862 0.984 . S
N2859 H2863 0.985 . S
H2860 N2855 0.984 . S
H2861 N2855 0.985 . S
H2862 N2859 0.984 . S
H2863 N2859 0.985 . S
H2864 N2858 0.984 . S
H2865 N2858 0.984 . S
H2866 N2854 0.984 . S
H2867 N2854 0.985 . S
C2868 C2869 1.363 . S
C2868 C2874 1.379 1_655 S
C2868 N2876 1.356 . S
C2869 C2868 1.363 . S
C2869 C2875 1.363 . S
C2870 C2871 1.363 . S
C2870 C2875 1.379 1_455 S
C2870 N2877 1.356 . S
C2871 C2870 1.363 . S
C2871 C2874 1.363 . S
N2872 C2874 1.356 . S
N2872 H2884 0.984 . S
N2872 H2885 0.985 . S
N2873 C2875 1.356 . S
N2873 H2878 0.984 . S
N2873 H2879 0.985 . S
C2874 C2868 1.379 1_455 S
C2874 C2871 1.363 . S
C2874 N2872 1.356 . S
C2875 C2869 1.363 . S
C2875 C2870 1.379 1_655 S
C2875 N2873 1.356 . S
N2876 C2868 1.356 . S
N2876 H2882 0.984 . S
N2876 H2883 0.984 . S
N2877 C2870 1.356 . S
N2877 H2880 0.984 . S
N2877 H2881 0.985 . S
H2878 N2873 0.984 . S
H2879 N2873 0.985 . S
H2880 N2877 0.984 . S
H2881 N2877 0.985 . S
H2882 N2876 0.984 . S
H2883 N2876 0.984 . S
H2884 N2872 0.984 . S
H2885 N2872 0.985 . S
C2886 C2887 1.363 . S
C2886 C2892 1.379 . S
C2886 N2894 1.356 . S
C2887 C2886 1.363 . S
C2887 C2893 1.363 . S
C2888 C2889 1.363 . S
C2888 C2893 1.379 . S
C2888 N2895 1.356 . S
C2889 C2888 1.363 . S
C2889 C2892 1.363 . S
N2890 C2892 1.356 . S
N2890 H2902 0.984 . S
N2890 H2903 0.985 . S
N2891 C2893 1.356 . S
N2891 H2896 0.984 . S
N2891 H2897 0.985 . S
C2892 C2886 1.379 . S
C2892 C2889 1.363 . S
C2892 N2890 1.356 . S
C2893 C2887 1.363 . S
C2893 C2888 1.379 . S
C2893 N2891 1.356 . S
N2894 C2886 1.356 . S
N2894 H2900 0.984 . S
N2894 H2901 0.984 . S
N2895 C2888 1.356 . S
N2895 H2898 0.984 . S
N2895 H2899 0.985 . S
H2896 N2891 0.984 . S
H2897 N2891 0.985 . S
H2898 N2895 0.984 . S
H2899 N2895 0.985 . S
H2900 N2894 0.984 . S
H2901 N2894 0.984 . S
H2902 N2890 0.984 . S
H2903 N2890 0.985 . S
C2904 C2905 1.363 . S
C2904 C2910 1.379 . S
C2904 N2912 1.356 . S
C2905 C2904 1.363 . S
C2905 C2911 1.363 . S
C2906 C2907 1.363 . S
C2906 C2911 1.379 . S
C2906 N2913 1.356 . S
C2907 C2906 1.363 . S
C2907 C2910 1.363 . S
N2908 C2910 1.356 . S
N2908 H2920 0.984 . S
N2908 H2921 0.985 . S
N2909 C2911 1.356 . S
N2909 H2914 0.984 . S
N2909 H2915 0.985 . S
C2910 C2904 1.379 . S
C2910 C2907 1.363 . S
C2910 N2908 1.356 . S
C2911 C2905 1.363 . S
C2911 C2906 1.379 . S
C2911 N2909 1.356 . S
N2912 C2904 1.356 . S
N2912 H2918 0.984 . S
N2912 H2919 0.984 . S
N2913 C2906 1.356 . S
N2913 H2916 0.984 . S
N2913 H2917 0.985 . S
H2914 N2909 0.984 . S
H2915 N2909 0.985 . S
H2916 N2913 0.984 . S
H2917 N2913 0.985 . S
H2918 N2912 0.984 . S
H2919 N2912 0.984 . S
H2920 N2908 0.984 . S
H2921 N2908 0.985 . S
C2922 C2923 1.363 . S
C2922 C2928 1.379 . S
C2922 N2930 1.356 . S
C2923 C2922 1.363 . S
C2923 C2929 1.363 . S
C2924 C2925 1.363 . S
C2924 C2929 1.379 . S
C2924 N2931 1.356 . S
C2925 C2924 1.363 . S
C2925 C2928 1.363 . S
N2926 C2928 1.356 . S
N2926 H2938 0.984 . S
N2926 H2939 0.985 . S
N2927 C2929 1.356 . S
N2927 H2932 0.984 . S
N2927 H2933 0.985 . S
C2928 C2922 1.379 . S
C2928 C2925 1.363 . S
C2928 N2926 1.356 . S
C2929 C2923 1.363 . S
C2929 C2924 1.379 . S
C2929 N2927 1.356 . S
N2930 C2922 1.356 . S
N2930 H2936 0.984 . S
N2930 H2937 0.984 . S
N2931 C2924 1.356 . S
N2931 H2934 0.984 . S
N2931 H2935 0.985 . S
H2932 N2927 0.984 . S
H2933 N2927 0.985 . S
H2934 N2931 0.984 . S
H2935 N2931 0.985 . S
H2936 N2930 0.984 . S
H2937 N2930 0.984 . S
H2938 N2926 0.984 . S
H2939 N2926 0.985 . S
C2940 C2941 1.363 . S
C2940 C2946 1.379 1_455 S
C2940 N2948 1.356 . S
C2941 C2940 1.363 . S
C2941 C2947 1.363 . S
C2942 C2943 1.363 . S
C2942 C2947 1.379 1_655 S
C2942 N2949 1.356 . S
C2943 C2942 1.363 . S
C2943 C2946 1.363 . S
N2944 C2946 1.356 . S
N2944 H2956 0.984 . S
N2944 H2957 0.985 . S
N2945 C2947 1.356 . S
N2945 H2950 0.984 . S
N2945 H2951 0.985 . S
C2946 C2940 1.379 1_655 S
C2946 C2943 1.363 . S
C2946 N2944 1.356 . S
C2947 C2941 1.363 . S
C2947 C2942 1.379 1_455 S
C2947 N2945 1.356 . S
N2948 C2940 1.356 . S
N2948 H2954 0.984 . S
N2948 H2955 0.984 . S
N2949 C2942 1.356 . S
N2949 H2952 0.984 . S
N2949 H2953 0.985 . S
H2950 N2945 0.984 . S
H2951 N2945 0.985 . S
H2952 N2949 0.984 . S
H2953 N2949 0.985 . S
H2954 N2948 0.984 . S
H2955 N2948 0.984 . S
H2956 N2944 0.984 . S
H2957 N2944 0.985 . S
C2958 C2959 1.363 . S
C2958 C2964 1.379 1_655 S
C2958 N2966 1.356 . S
C2959 C2958 1.363 . S
C2959 C2965 1.363 . S
C2960 C2961 1.363 . S
C2960 C2965 1.379 1_455 S
C2960 N2967 1.356 . S
C2961 C2960 1.363 . S
C2961 C2964 1.363 . S
N2962 C2964 1.356 . S
N2962 H2974 0.984 . S
N2962 H2975 0.985 . S
N2963 C2965 1.356 . S
N2963 H2968 0.984 . S
N2963 H2969 0.985 . S
C2964 C2958 1.379 1_455 S
C2964 C2961 1.363 . S
C2964 N2962 1.356 . S
C2965 C2959 1.363 . S
C2965 C2960 1.379 1_655 S
C2965 N2963 1.356 . S
N2966 C2958 1.356 . S
N2966 H2972 0.984 . S
N2966 H2973 0.984 . S
N2967 C2960 1.356 . S
N2967 H2970 0.984 . S
N2967 H2971 0.985 . S
H2968 N2963 0.984 . S
H2969 N2963 0.985 . S
H2970 N2967 0.984 . S
H2971 N2967 0.985 . S
H2972 N2966 0.984 . S
H2973 N2966 0.984 . S
H2974 N2962 0.984 . S
H2975 N2962 0.985 . S
C2976 C2977 1.363 . S
C2976 C2982 1.379 . S
C2976 N2984 1.356 . S
C2977 C2976 1.363 . S
C2977 C2983 1.363 . S
C2978 C2979 1.363 . S
C2978 C2983 1.379 . S
C2978 N2985 1.356 . S
C2979 C2978 1.363 . S
C2979 C2982 1.363 . S
N2980 C2982 1.356 . S
N2980 H2992 0.984 . S
N2980 H2993 0.985 . S
N2981 C2983 1.356 . S
N2981 H2986 0.984 . S
N2981 H2987 0.985 . S
C2982 C2976 1.379 . S
C2982 C2979 1.363 . S
C2982 N2980 1.356 . S
C2983 C2977 1.363 . S
C2983 C2978 1.379 . S
C2983 N2981 1.356 . S
N2984 C2976 1.356 . S
N2984 H2990 0.984 . S
N2984 H2991 0.984 . S
N2985 C2978 1.356 . S
N2985 H2988 0.984 . S
N2985 H2989 0.985 . S
H2986 N2981 0.984 . S
H2987 N2981 0.985 . S
H2988 N2985 0.984 . S
H2989 N2985 0.985 . S
H2990 N2984 0.984 . S
H2991 N2984 0.984 . S
H2992 N2980 0.984 . S
H2993 N2980 0.985 . S
C2994 C2995 1.363 . S
C2994 C3000 1.379 . S
C2994 N3002 1.356 . S
C2995 C2994 1.363 . S
C2995 C3001 1.363 . S
C2996 C2997 1.363 . S
C2996 C3001 1.379 . S
C2996 N3003 1.356 . S
C2997 C2996 1.363 . S
C2997 C3000 1.363 . S
N2998 C3000 1.356 . S
N2998 H3010 0.984 . S
N2998 H3011 0.985 . S
N2999 C3001 1.356 . S
N2999 H3004 0.984 . S
N2999 H3005 0.985 . S
C3000 C2994 1.379 . S
C3000 C2997 1.363 . S
C3000 N2998 1.356 . S
C3001 C2995 1.363 . S
C3001 C2996 1.379 . S
C3001 N2999 1.356 . S
N3002 C2994 1.356 . S
N3002 H3008 0.984 . S
N3002 H3009 0.984 . S
N3003 C2996 1.356 . S
N3003 H3006 0.984 . S
N3003 H3007 0.985 . S
H3004 N2999 0.984 . S
H3005 N2999 0.985 . S
H3006 N3003 0.984 . S
H3007 N3003 0.985 . S
H3008 N3002 0.984 . S
H3009 N3002 0.984 . S
H3010 N2998 0.984 . S
H3011 N2998 0.985 . S
C3012 C3013 1.363 . S
C3012 C3018 1.379 . S
C3012 N3020 1.356 . S
C3013 C3012 1.363 . S
C3013 C3019 1.363 . S
C3014 C3015 1.363 . S
C3014 C3019 1.379 . S
C3014 N3021 1.356 . S
C3015 C3014 1.363 . S
C3015 C3018 1.363 . S
N3016 C3018 1.356 . S
N3016 H3028 0.984 . S
N3016 H3029 0.985 . S
N3017 C3019 1.356 . S
N3017 H3022 0.984 . S
N3017 H3023 0.985 . S
C3018 C3012 1.379 . S
C3018 C3015 1.363 . S
C3018 N3016 1.356 . S
C3019 C3013 1.363 . S
C3019 C3014 1.379 . S
C3019 N3017 1.356 . S
N3020 C3012 1.356 . S
N3020 H3026 0.984 . S
N3020 H3027 0.984 . S
N3021 C3014 1.356 . S
N3021 H3024 0.984 . S
N3021 H3025 0.985 . S
H3022 N3017 0.984 . S
H3023 N3017 0.985 . S
H3024 N3021 0.984 . S
H3025 N3021 0.985 . S
H3026 N3020 0.984 . S
H3027 N3020 0.984 . S
H3028 N3016 0.984 . S
H3029 N3016 0.985 . S
C3030 C3031 1.363 . S
C3030 C3036 1.379 . S
C3030 N3038 1.356 . S
C3031 C3030 1.363 . S
C3031 C3037 1.363 . S
C3032 C3033 1.363 . S
C3032 C3037 1.379 . S
C3032 N3039 1.356 . S
C3033 C3032 1.363 . S
C3033 C3036 1.363 . S
N3034 C3036 1.356 . S
N3034 H3046 0.984 . S
N3034 H3047 0.985 . S
N3035 C3037 1.356 . S
N3035 H3040 0.984 . S
N3035 H3041 0.985 . S
C3036 C3030 1.379 . S
C3036 C3033 1.363 . S
C3036 N3034 1.356 . S
C3037 C3031 1.363 . S
C3037 C3032 1.379 . S
C3037 N3035 1.356 . S
N3038 C3030 1.356 . S
N3038 H3044 0.984 . S
N3038 H3045 0.984 . S
N3039 C3032 1.356 . S
N3039 H3042 0.984 . S
N3039 H3043 0.985 . S
H3040 N3035 0.984 . S
H3041 N3035 0.985 . S
H3042 N3039 0.984 . S
H3043 N3039 0.985 . S
H3044 N3038 0.984 . S
H3045 N3038 0.984 . S
H3046 N3034 0.984 . S
H3047 N3034 0.985 . S
C3048 C3049 1.363 . S
C3048 C3054 1.379 . S
C3048 N3056 1.356 . S
C3049 C3048 1.363 . S
C3049 C3055 1.363 . S
C3050 C3051 1.363 . S
C3050 C3055 1.379 . S
C3050 N3057 1.356 . S
C3051 C3050 1.363 . S
C3051 C3054 1.363 . S
N3052 C3054 1.356 . S
N3052 H3064 0.984 . S
N3052 H3065 0.985 . S
N3053 C3055 1.356 . S
N3053 H3058 0.984 . S
N3053 H3059 0.985 . S
C3054 C3048 1.379 . S
C3054 C3051 1.363 . S
C3054 N3052 1.356 . S
C3055 C3049 1.363 . S
C3055 C3050 1.379 . S
C3055 N3053 1.356 . S
N3056 C3048 1.356 . S
N3056 H3062 0.984 . S
N3056 H3063 0.984 . S
N3057 C3050 1.356 . S
N3057 H3060 0.984 . S
N3057 H3061 0.985 . S
H3058 N3053 0.984 . S
H3059 N3053 0.985 . S
H3060 N3057 0.984 . S
H3061 N3057 0.985 . S
H3062 N3056 0.984 . S
H3063 N3056 0.984 . S
H3064 N3052 0.984 . S
H3065 N3052 0.985 . S
C3066 C3067 1.363 . S
C3066 C3072 1.379 . S
C3066 N3074 1.356 . S
C3067 C3066 1.363 . S
C3067 C3073 1.363 . S
C3068 C3069 1.363 . S
C3068 C3073 1.379 . S
C3068 N3075 1.356 . S
C3069 C3068 1.363 . S
C3069 C3072 1.363 . S
N3070 C3072 1.356 . S
N3070 H3082 0.984 . S
N3070 H3083 0.985 . S
N3071 C3073 1.356 . S
N3071 H3076 0.984 . S
N3071 H3077 0.985 . S
C3072 C3066 1.379 . S
C3072 C3069 1.363 . S
C3072 N3070 1.356 . S
C3073 C3067 1.363 . S
C3073 C3068 1.379 . S
C3073 N3071 1.356 . S
N3074 C3066 1.356 . S
N3074 H3080 0.984 . S
N3074 H3081 0.984 . S
N3075 C3068 1.356 . S
N3075 H3078 0.984 . S
N3075 H3079 0.985 . S
H3076 N3071 0.984 . S
H3077 N3071 0.985 . S
H3078 N3075 0.984 . S
H3079 N3075 0.985 . S
H3080 N3074 0.984 . S
H3081 N3074 0.984 . S
H3082 N3070 0.984 . S
H3083 N3070 0.985 . S
C3084 C3085 1.363 . S
C3084 C3090 1.379 . S
C3084 N3092 1.356 . S
C3085 C3084 1.363 . S
C3085 C3091 1.363 . S
C3086 C3087 1.363 . S
C3086 C3091 1.379 . S
C3086 N3093 1.356 . S
C3087 C3086 1.363 . S
C3087 C3090 1.363 . S
N3088 C3090 1.356 . S
N3088 H3100 0.984 . S
N3088 H3101 0.985 . S
N3089 C3091 1.356 . S
N3089 H3094 0.984 . S
N3089 H3095 0.985 . S
C3090 C3084 1.379 . S
C3090 C3087 1.363 . S
C3090 N3088 1.356 . S
C3091 C3085 1.363 . S
C3091 C3086 1.379 . S
C3091 N3089 1.356 . S
N3092 C3084 1.356 . S
N3092 H3098 0.984 . S
N3092 H3099 0.984 . S
N3093 C3086 1.356 . S
N3093 H3096 0.984 . S
N3093 H3097 0.985 . S
H3094 N3089 0.984 . S
H3095 N3089 0.985 . S
H3096 N3093 0.984 . S
H3097 N3093 0.985 . S
H3098 N3092 0.984 . S
H3099 N3092 0.984 . S
H3100 N3088 0.984 . S
H3101 N3088 0.985 . S
C3102 C3103 1.363 . S
C3102 C3108 1.379 . S
C3102 N3110 1.356 . S
C3103 C3102 1.363 . S
C3103 C3109 1.363 . S
C3104 C3105 1.363 . S
C3104 C3109 1.379 . S
C3104 N3111 1.356 . S
C3105 C3104 1.363 . S
C3105 C3108 1.363 . S
N3106 C3108 1.356 . S
N3106 H3118 0.984 . S
N3106 H3119 0.985 . S
N3107 C3109 1.356 . S
N3107 H3112 0.984 . S
N3107 H3113 0.985 . S
C3108 C3102 1.379 . S
C3108 C3105 1.363 . S
C3108 N3106 1.356 . S
C3109 C3103 1.363 . S
C3109 C3104 1.379 . S
C3109 N3107 1.356 . S
N3110 C3102 1.356 . S
N3110 H3116 0.984 . S
N3110 H3117 0.984 . S
N3111 C3104 1.356 . S
N3111 H3114 0.984 . S
N3111 H3115 0.985 . S
H3112 N3107 0.984 . S
H3113 N3107 0.985 . S
H3114 N3111 0.984 . S
H3115 N3111 0.985 . S
H3116 N3110 0.984 . S
H3117 N3110 0.984 . S
H3118 N3106 0.984 . S
H3119 N3106 0.985 . S
C3120 C3121 1.363 . S
C3120 C3126 1.379 . S
C3120 N3128 1.356 . S
C3121 C3120 1.363 . S
C3121 C3127 1.363 . S
C3122 C3123 1.363 . S
C3122 C3127 1.379 . S
C3122 N3129 1.356 . S
C3123 C3122 1.363 . S
C3123 C3126 1.363 . S
N3124 C3126 1.356 . S
N3124 H3136 0.984 . S
N3124 H3137 0.985 . S
N3125 C3127 1.356 . S
N3125 H3130 0.984 . S
N3125 H3131 0.985 . S
C3126 C3120 1.379 . S
C3126 C3123 1.363 . S
C3126 N3124 1.356 . S
C3127 C3121 1.363 . S
C3127 C3122 1.379 . S
C3127 N3125 1.356 . S
N3128 C3120 1.356 . S
N3128 H3134 0.984 . S
N3128 H3135 0.984 . S
N3129 C3122 1.356 . S
N3129 H3132 0.984 . S
N3129 H3133 0.985 . S
H3130 N3125 0.984 . S
H3131 N3125 0.985 . S
H3132 N3129 0.984 . S
H3133 N3129 0.985 . S
H3134 N3128 0.984 . S
H3135 N3128 0.984 . S
H3136 N3124 0.984 . S
H3137 N3124 0.985 . S
C3138 C3139 1.363 . S
C3138 C3144 1.379 1_565 S
C3138 N3146 1.356 . S
C3139 C3138 1.363 . S
C3139 C3145 1.363 . S
C3140 C3141 1.363 . S
C3140 C3145 1.379 1_545 S
C3140 N3147 1.356 . S
C3141 C3140 1.363 . S
C3141 C3144 1.363 . S
N3142 C3144 1.356 . S
N3142 H3154 0.984 . S
N3142 H3155 0.985 . S
N3143 C3145 1.356 . S
N3143 H3148 0.984 . S
N3143 H3149 0.985 . S
C3144 C3138 1.379 1_545 S
C3144 C3141 1.363 . S
C3144 N3142 1.356 . S
C3145 C3139 1.363 . S
C3145 C3140 1.379 1_565 S
C3145 N3143 1.356 . S
N3146 C3138 1.356 . S
N3146 H3152 0.984 . S
N3146 H3153 0.984 . S
N3147 C3140 1.356 . S
N3147 H3150 0.984 . S
N3147 H3151 0.985 . S
H3148 N3143 0.984 . S
H3149 N3143 0.985 . S
H3150 N3147 0.984 . S
H3151 N3147 0.985 . S
H3152 N3146 0.984 . S
H3153 N3146 0.984 . S
H3154 N3142 0.984 . S
H3155 N3142 0.985 . S
C3156 C3157 1.363 . S
C3156 C3162 1.379 . S
C3156 N3164 1.356 . S
C3157 C3156 1.363 . S
C3157 C3163 1.363 . S
C3158 C3159 1.363 . S
C3158 C3163 1.379 . S
C3158 N3165 1.356 . S
C3159 C3158 1.363 . S
C3159 C3162 1.363 . S
N3160 C3162 1.356 . S
N3160 H3172 0.984 . S
N3160 H3173 0.985 . S
N3161 C3163 1.356 . S
N3161 H3166 0.984 . S
N3161 H3167 0.985 . S
C3162 C3156 1.379 . S
C3162 C3159 1.363 . S
C3162 N3160 1.356 . S
C3163 C3157 1.363 . S
C3163 C3158 1.379 . S
C3163 N3161 1.356 . S
N3164 C3156 1.356 . S
N3164 H3170 0.984 . S
N3164 H3171 0.984 . S
N3165 C3158 1.356 . S
N3165 H3168 0.984 . S
N3165 H3169 0.985 . S
H3166 N3161 0.984 . S
H3167 N3161 0.985 . S
H3168 N3165 0.984 . S
H3169 N3165 0.985 . S
H3170 N3164 0.984 . S
H3171 N3164 0.984 . S
H3172 N3160 0.984 . S
H3173 N3160 0.985 . S
C3174 C3175 1.363 . S
C3174 C3180 1.379 . S
C3174 N3182 1.356 . S
C3175 C3174 1.363 . S
C3175 C3181 1.363 . S
C3176 C3177 1.363 . S
C3176 C3181 1.379 . S
C3176 N3183 1.356 . S
C3177 C3176 1.363 . S
C3177 C3180 1.363 . S
N3178 C3180 1.356 . S
N3178 H3190 0.984 . S
N3178 H3191 0.985 . S
N3179 C3181 1.356 . S
N3179 H3184 0.984 . S
N3179 H3185 0.985 . S
C3180 C3174 1.379 . S
C3180 C3177 1.363 . S
C3180 N3178 1.356 . S
C3181 C3175 1.363 . S
C3181 C3176 1.379 . S
C3181 N3179 1.356 . S
N3182 C3174 1.356 . S
N3182 H3188 0.984 . S
N3182 H3189 0.984 . S
N3183 C3176 1.356 . S
N3183 H3186 0.984 . S
N3183 H3187 0.985 . S
H3184 N3179 0.984 . S
H3185 N3179 0.985 . S
H3186 N3183 0.984 . S
H3187 N3183 0.985 . S
H3188 N3182 0.984 . S
H3189 N3182 0.984 . S
H3190 N3178 0.984 . S
H3191 N3178 0.985 . S
C3192 C3193 1.363 . S
C3192 C3198 1.379 . S
C3192 N3200 1.356 . S
C3193 C3192 1.363 . S
C3193 C3199 1.363 . S
C3194 C3195 1.363 . S
C3194 C3199 1.379 . S
C3194 N3201 1.356 . S
C3195 C3194 1.363 . S
C3195 C3198 1.363 . S
N3196 C3198 1.356 . S
N3196 H3208 0.984 . S
N3196 H3209 0.985 . S
N3197 C3199 1.356 . S
N3197 H3202 0.984 . S
N3197 H3203 0.985 . S
C3198 C3192 1.379 . S
C3198 C3195 1.363 . S
C3198 N3196 1.356 . S
C3199 C3193 1.363 . S
C3199 C3194 1.379 . S
C3199 N3197 1.356 . S
N3200 C3192 1.356 . S
N3200 H3206 0.984 . S
N3200 H3207 0.984 . S
N3201 C3194 1.356 . S
N3201 H3204 0.984 . S
N3201 H3205 0.985 . S
H3202 N3197 0.984 . S
H3203 N3197 0.985 . S
H3204 N3201 0.984 . S
H3205 N3201 0.985 . S
H3206 N3200 0.984 . S
H3207 N3200 0.984 . S
H3208 N3196 0.984 . S
H3209 N3196 0.985 . S
C3210 C3211 1.363 . S
C3210 C3216 1.379 1_565 S
C3210 N3218 1.356 . S
C3211 C3210 1.363 . S
C3211 C3217 1.363 . S
C3212 C3213 1.363 . S
C3212 C3217 1.379 1_545 S
C3212 N3219 1.356 . S
C3213 C3212 1.363 . S
C3213 C3216 1.363 . S
N3214 C3216 1.356 . S
N3214 H3226 0.984 . S
N3214 H3227 0.985 . S
N3215 C3217 1.356 . S
N3215 H3220 0.984 . S
N3215 H3221 0.985 . S
C3216 C3210 1.379 1_545 S
C3216 C3213 1.363 . S
C3216 N3214 1.356 . S
C3217 C3211 1.363 . S
C3217 C3212 1.379 1_565 S
C3217 N3215 1.356 . S
N3218 C3210 1.356 . S
N3218 H3224 0.984 . S
N3218 H3225 0.984 . S
N3219 C3212 1.356 . S
N3219 H3222 0.984 . S
N3219 H3223 0.985 . S
H3220 N3215 0.984 . S
H3221 N3215 0.985 . S
H3222 N3219 0.984 . S
H3223 N3219 0.985 . S
H3224 N3218 0.984 . S
H3225 N3218 0.984 . S
H3226 N3214 0.984 . S
H3227 N3214 0.985 . S
C3228 C3229 1.363 . S
C3228 C3234 1.379 . S
C3228 N3236 1.356 . S
C3229 C3228 1.363 . S
C3229 C3235 1.363 . S
C3230 C3231 1.363 . S
C3230 C3235 1.379 . S
C3230 N3237 1.356 . S
C3231 C3230 1.363 . S
C3231 C3234 1.363 . S
N3232 C3234 1.356 . S
N3232 H3244 0.984 . S
N3232 H3245 0.985 . S
N3233 C3235 1.356 . S
N3233 H3238 0.984 . S
N3233 H3239 0.985 . S
C3234 C3228 1.379 . S
C3234 C3231 1.363 . S
C3234 N3232 1.356 . S
C3235 C3229 1.363 . S
C3235 C3230 1.379 . S
C3235 N3233 1.356 . S
N3236 C3228 1.356 . S
N3236 H3242 0.984 . S
N3236 H3243 0.984 . S
N3237 C3230 1.356 . S
N3237 H3240 0.984 . S
N3237 H3241 0.985 . S
H3238 N3233 0.984 . S
H3239 N3233 0.985 . S
H3240 N3237 0.984 . S
H3241 N3237 0.985 . S
H3242 N3236 0.984 . S
H3243 N3236 0.984 . S
H3244 N3232 0.984 . S
H3245 N3232 0.985 . S
C3246 C3247 1.363 . S
C3246 C3252 1.379 . S
C3246 N3254 1.356 . S
C3247 C3246 1.363 . S
C3247 C3253 1.363 . S
C3248 C3249 1.363 . S
C3248 C3253 1.379 . S
C3248 N3255 1.356 . S
C3249 C3248 1.363 . S
C3249 C3252 1.363 . S
N3250 C3252 1.356 . S
N3250 H3262 0.984 . S
N3250 H3263 0.985 . S
N3251 C3253 1.356 . S
N3251 H3256 0.984 . S
N3251 H3257 0.985 . S
C3252 C3246 1.379 . S
C3252 C3249 1.363 . S
C3252 N3250 1.356 . S
C3253 C3247 1.363 . S
C3253 C3248 1.379 . S
C3253 N3251 1.356 . S
N3254 C3246 1.356 . S
N3254 H3260 0.984 . S
N3254 H3261 0.984 . S
N3255 C3248 1.356 . S
N3255 H3258 0.984 . S
N3255 H3259 0.985 . S
H3256 N3251 0.984 . S
H3257 N3251 0.985 . S
H3258 N3255 0.984 . S
H3259 N3255 0.985 . S
H3260 N3254 0.984 . S
H3261 N3254 0.984 . S
H3262 N3250 0.984 . S
H3263 N3250 0.985 . S
C3264 C3265 1.363 . S
C3264 C3270 1.379 . S
C3264 N3272 1.356 . S
C3265 C3264 1.363 . S
C3265 C3271 1.363 . S
C3266 C3267 1.363 . S
C3266 C3271 1.379 . S
C3266 N3273 1.356 . S
C3267 C3266 1.363 . S
C3267 C3270 1.363 . S
N3268 C3270 1.356 . S
N3268 H3280 0.984 . S
N3268 H3281 0.985 . S
N3269 C3271 1.356 . S
N3269 H3274 0.984 . S
N3269 H3275 0.985 . S
C3270 C3264 1.379 . S
C3270 C3267 1.363 . S
C3270 N3268 1.356 . S
C3271 C3265 1.363 . S
C3271 C3266 1.379 . S
C3271 N3269 1.356 . S
N3272 C3264 1.356 . S
N3272 H3278 0.984 . S
N3272 H3279 0.984 . S
N3273 C3266 1.356 . S
N3273 H3276 0.984 . S
N3273 H3277 0.985 . S
H3274 N3269 0.984 . S
H3275 N3269 0.985 . S
H3276 N3273 0.984 . S
H3277 N3273 0.985 . S
H3278 N3272 0.984 . S
H3279 N3272 0.984 . S
H3280 N3268 0.984 . S
H3281 N3268 0.985 . S
C3282 C3283 1.363 . S
C3282 C3288 1.379 . S
C3282 N3290 1.356 . S
C3283 C3282 1.363 . S
C3283 C3289 1.363 . S
C3284 C3285 1.363 . S
C3284 C3289 1.379 . S
C3284 N3291 1.356 . S
C3285 C3284 1.363 . S
C3285 C3288 1.363 . S
N3286 C3288 1.356 . S
N3286 H3298 0.984 . S
N3286 H3299 0.985 . S
N3287 C3289 1.356 . S
N3287 H3292 0.984 . S
N3287 H3293 0.985 . S
C3288 C3282 1.379 . S
C3288 C3285 1.363 . S
C3288 N3286 1.356 . S
C3289 C3283 1.363 . S
C3289 C3284 1.379 . S
C3289 N3287 1.356 . S
N3290 C3282 1.356 . S
N3290 H3296 0.984 . S
N3290 H3297 0.984 . S
N3291 C3284 1.356 . S
N3291 H3294 0.984 . S
N3291 H3295 0.985 . S
H3292 N3287 0.984 . S
H3293 N3287 0.985 . S
H3294 N3291 0.984 . S
H3295 N3291 0.985 . S
H3296 N3290 0.984 . S
H3297 N3290 0.984 . S
H3298 N3286 0.984 . S
H3299 N3286 0.985 . S
C3300 C3301 1.363 . S
C3300 C3306 1.379 . S
C3300 N3308 1.356 . S
C3301 C3300 1.363 . S
C3301 C3307 1.363 . S
C3302 C3303 1.363 . S
C3302 C3307 1.379 . S
C3302 N3309 1.356 . S
C3303 C3302 1.363 . S
C3303 C3306 1.363 . S
N3304 C3306 1.356 . S
N3304 H3316 0.984 . S
N3304 H3317 0.985 . S
N3305 C3307 1.356 . S
N3305 H3310 0.984 . S
N3305 H3311 0.985 . S
C3306 C3300 1.379 . S
C3306 C3303 1.363 . S
C3306 N3304 1.356 . S
C3307 C3301 1.363 . S
C3307 C3302 1.379 . S
C3307 N3305 1.356 . S
N3308 C3300 1.356 . S
N3308 H3314 0.984 . S
N3308 H3315 0.984 . S
N3309 C3302 1.356 . S
N3309 H3312 0.984 . S
N3309 H3313 0.985 . S
H3310 N3305 0.984 . S
H3311 N3305 0.985 . S
H3312 N3309 0.984 . S
H3313 N3309 0.985 . S
H3314 N3308 0.984 . S
H3315 N3308 0.984 . S
H3316 N3304 0.984 . S
H3317 N3304 0.985 . S
C3318 C3319 1.363 . S
C3318 C3324 1.379 . S
C3318 N3326 1.356 . S
C3319 C3318 1.363 . S
C3319 C3325 1.363 . S
C3320 C3321 1.363 . S
C3320 C3325 1.379 . S
C3320 N3327 1.356 . S
C3321 C3320 1.363 . S
C3321 C3324 1.363 . S
N3322 C3324 1.356 . S
N3322 H3334 0.984 . S
N3322 H3335 0.985 . S
N3323 C3325 1.356 . S
N3323 H3328 0.984 . S
N3323 H3329 0.985 . S
C3324 C3318 1.379 . S
C3324 C3321 1.363 . S
C3324 N3322 1.356 . S
C3325 C3319 1.363 . S
C3325 C3320 1.379 . S
C3325 N3323 1.356 . S
N3326 C3318 1.356 . S
N3326 H3332 0.984 . S
N3326 H3333 0.984 . S
N3327 C3320 1.356 . S
N3327 H3330 0.984 . S
N3327 H3331 0.985 . S
H3328 N3323 0.984 . S
H3329 N3323 0.985 . S
H3330 N3327 0.984 . S
H3331 N3327 0.985 . S
H3332 N3326 0.984 . S
H3333 N3326 0.984 . S
H3334 N3322 0.984 . S
H3335 N3322 0.985 . S
C3336 C3337 1.363 . S
C3336 C3342 1.379 1_455 S
C3336 N3344 1.353 . S
C3337 C3336 1.363 . S
C3337 C3343 1.363 . S
C3338 C3339 1.363 . S
C3338 C3343 1.379 1_655 S
C3338 N3345 1.356 . S
C3339 C3338 1.363 . S
C3339 C3342 1.363 . S
N3340 C3342 1.356 . S
N3340 H3352 0.984 1_545 S
N3340 H3353 0.985 . S
N3341 C3343 1.356 . S
N3341 H3346 0.984 . S
N3341 H3347 0.985 . S
C3342 C3336 1.379 1_655 S
C3342 C3339 1.363 . S
C3342 N3340 1.356 . S
C3343 C3337 1.363 . S
C3343 C3338 1.379 1_455 S
C3343 N3341 1.356 . S
N3344 C3336 1.353 . S
N3344 H3350 0.989 1_545 S
N3344 H3351 0.984 . S
N3345 C3338 1.356 . S
N3345 H3348 0.984 . S
N3345 H3349 0.985 . S
H3346 N3341 0.984 . S
H3347 N3341 0.985 . S
H3348 N3345 0.984 . S
H3349 N3345 0.985 . S
H3350 N3344 0.989 1_565 S
H3351 N3344 0.984 . S
H3352 N3340 0.984 1_565 S
H3353 N3340 0.985 . S
C3354 C3355 1.363 . S
C3354 C3360 1.379 . S
C3354 N3362 1.356 . S
C3355 C3354 1.363 . S
C3355 C3361 1.363 . S
C3356 C3357 1.363 . S
C3356 C3361 1.379 . S
C3356 N3363 1.356 . S
C3357 C3356 1.363 . S
C3357 C3360 1.363 . S
N3358 C3360 1.356 . S
N3358 H3370 0.984 . S
N3358 H3371 0.985 . S
N3359 C3361 1.356 . S
N3359 H3364 0.984 . S
N3359 H3365 0.985 . S
C3360 C3354 1.379 . S
C3360 C3357 1.363 . S
C3360 N3358 1.356 . S
C3361 C3355 1.363 . S
C3361 C3356 1.379 . S
C3361 N3359 1.356 . S
N3362 C3354 1.356 . S
N3362 H3368 0.984 . S
N3362 H3369 0.984 . S
N3363 C3356 1.356 . S
N3363 H3366 0.984 . S
N3363 H3367 0.985 . S
H3364 N3359 0.984 . S
H3365 N3359 0.985 . S
H3366 N3363 0.984 . S
H3367 N3363 0.985 . S
H3368 N3362 0.984 . S
H3369 N3362 0.984 . S
H3370 N3358 0.984 . S
H3371 N3358 0.985 . S
C3372 C3373 1.363 . S
C3372 C3378 1.379 . S
C3372 N3380 1.356 . S
C3373 C3372 1.363 . S
C3373 C3379 1.363 . S
C3374 C3375 1.363 . S
C3374 C3379 1.379 . S
C3374 N3381 1.356 . S
C3375 C3374 1.363 . S
C3375 C3378 1.363 . S
N3376 C3378 1.356 . S
N3376 H3388 0.984 . S
N3376 H3389 0.985 . S
N3377 C3379 1.356 . S
N3377 H3382 0.984 . S
N3377 H3383 0.985 . S
C3378 C3372 1.379 . S
C3378 C3375 1.363 . S
C3378 N3376 1.356 . S
C3379 C3373 1.363 . S
C3379 C3374 1.379 . S
C3379 N3377 1.356 . S
N3380 C3372 1.356 . S
N3380 H3386 0.984 . S
N3380 H3387 0.984 . S
N3381 C3374 1.356 . S
N3381 H3384 0.984 . S
N3381 H3385 0.985 . S
H3382 N3377 0.984 . S
H3383 N3377 0.985 . S
H3384 N3381 0.984 . S
H3385 N3381 0.985 . S
H3386 N3380 0.984 . S
H3387 N3380 0.984 . S
H3388 N3376 0.984 . S
H3389 N3376 0.985 . S
C3390 C3391 1.363 . S
C3390 C3396 1.379 . S
C3390 N3398 1.356 . S
C3391 C3390 1.363 . S
C3391 C3397 1.363 . S
C3392 C3393 1.363 . S
C3392 C3397 1.379 . S
C3392 N3399 1.356 . S
C3393 C3392 1.363 . S
C3393 C3396 1.363 . S
N3394 C3396 1.356 . S
N3394 H3406 0.984 . S
N3394 H3407 0.985 . S
N3395 C3397 1.356 . S
N3395 H3400 0.984 . S
N3395 H3401 0.985 . S
C3396 C3390 1.379 . S
C3396 C3393 1.363 . S
C3396 N3394 1.356 . S
C3397 C3391 1.363 . S
C3397 C3392 1.379 . S
C3397 N3395 1.356 . S
N3398 C3390 1.356 . S
N3398 H3404 0.984 . S
N3398 H3405 0.984 . S
N3399 C3392 1.356 . S
N3399 H3402 0.984 . S
N3399 H3403 0.985 . S
H3400 N3395 0.984 . S
H3401 N3395 0.985 . S
H3402 N3399 0.984 . S
H3403 N3399 0.985 . S
H3404 N3398 0.984 . S
H3405 N3398 0.984 . S
H3406 N3394 0.984 . S
H3407 N3394 0.985 . S
C3408 C3409 1.363 . S
C3408 C3414 1.379 . S
C3408 N3416 1.356 . S
C3409 C3408 1.363 . S
C3409 C3415 1.363 . S
C3410 C3411 1.363 . S
C3410 C3415 1.379 . S
C3410 N3417 1.356 . S
C3411 C3410 1.363 . S
C3411 C3414 1.363 . S
N3412 C3414 1.356 . S
N3412 H3424 0.984 . S
N3412 H3425 0.985 . S
N3413 C3415 1.356 . S
N3413 H3418 0.984 . S
N3413 H3419 0.985 . S
C3414 C3408 1.379 . S
C3414 C3411 1.363 . S
C3414 N3412 1.356 . S
C3415 C3409 1.363 . S
C3415 C3410 1.379 . S
C3415 N3413 1.356 . S
N3416 C3408 1.356 . S
N3416 H3422 0.984 . S
N3416 H3423 0.984 . S
N3417 C3410 1.356 . S
N3417 H3420 0.984 . S
N3417 H3421 0.985 . S
H3418 N3413 0.984 . S
H3419 N3413 0.985 . S
H3420 N3417 0.984 . S
H3421 N3417 0.985 . S
H3422 N3416 0.984 . S
H3423 N3416 0.984 . S
H3424 N3412 0.984 . S
H3425 N3412 0.985 . S
C3426 C3427 1.363 . S
C3426 C3432 1.379 . S
C3426 N3434 1.356 . S
C3427 C3426 1.363 . S
C3427 C3433 1.363 . S
C3428 C3429 1.363 . S
C3428 C3433 1.379 . S
C3428 N3435 1.356 . S
C3429 C3428 1.363 . S
C3429 C3432 1.363 . S
N3430 C3432 1.356 . S
N3430 H3442 0.984 . S
N3430 H3443 0.985 . S
N3431 C3433 1.356 . S
N3431 H3436 0.984 . S
N3431 H3437 0.985 . S
C3432 C3426 1.379 . S
C3432 C3429 1.363 . S
C3432 N3430 1.356 . S
C3433 C3427 1.363 . S
C3433 C3428 1.379 . S
C3433 N3431 1.356 . S
N3434 C3426 1.356 . S
N3434 H3440 0.984 . S
N3434 H3441 0.984 . S
N3435 C3428 1.356 . S
N3435 H3438 0.984 . S
N3435 H3439 0.985 . S
H3436 N3431 0.984 . S
H3437 N3431 0.985 . S
H3438 N3435 0.984 . S
H3439 N3435 0.985 . S
H3440 N3434 0.984 . S
H3441 N3434 0.984 . S
H3442 N3430 0.984 . S
H3443 N3430 0.985 . S
C3444 C3445 1.363 . S
C3444 C3450 1.379 . S
C3444 N3452 1.356 . S
C3445 C3444 1.363 . S
C3445 C3451 1.363 . S
C3446 C3447 1.363 . S
C3446 C3451 1.379 . S
C3446 N3453 1.356 . S
C3447 C3446 1.363 . S
C3447 C3450 1.363 . S
N3448 C3450 1.356 . S
N3448 H3460 0.984 . S
N3448 H3461 0.985 . S
N3449 C3451 1.356 . S
N3449 H3454 0.984 . S
N3449 H3455 0.985 . S
C3450 C3444 1.379 . S
C3450 C3447 1.363 . S
C3450 N3448 1.356 . S
C3451 C3445 1.363 . S
C3451 C3446 1.379 . S
C3451 N3449 1.356 . S
N3452 C3444 1.356 . S
N3452 H3458 0.984 . S
N3452 H3459 0.984 . S
N3453 C3446 1.356 . S
N3453 H3456 0.984 . S
N3453 H3457 0.985 . S
H3454 N3449 0.984 . S
H3455 N3449 0.985 . S
H3456 N3453 0.984 . S
H3457 N3453 0.985 . S
H3458 N3452 0.984 . S
H3459 N3452 0.984 . S
H3460 N3448 0.984 . S
H3461 N3448 0.985 . S
C3462 C3463 1.363 . S
C3462 C3468 1.379 . S
C3462 N3470 1.356 . S
C3463 C3462 1.363 . S
C3463 C3469 1.363 . S
C3464 C3465 1.363 . S
C3464 C3469 1.379 . S
C3464 N3471 1.356 . S
C3465 C3464 1.363 . S
C3465 C3468 1.363 . S
N3466 C3468 1.356 . S
N3466 H3478 0.984 . S
N3466 H3479 0.985 . S
N3467 C3469 1.356 . S
N3467 H3472 0.984 . S
N3467 H3473 0.985 . S
C3468 C3462 1.379 . S
C3468 C3465 1.363 . S
C3468 N3466 1.356 . S
C3469 C3463 1.363 . S
C3469 C3464 1.379 . S
C3469 N3467 1.356 . S
N3470 C3462 1.356 . S
N3470 H3476 0.984 . S
N3470 H3477 0.984 . S
N3471 C3464 1.356 . S
N3471 H3474 0.984 . S
N3471 H3475 0.985 . S
H3472 N3467 0.984 . S
H3473 N3467 0.985 . S
H3474 N3471 0.984 . S
H3475 N3471 0.985 . S
H3476 N3470 0.984 . S
H3477 N3470 0.984 . S
H3478 N3466 0.984 . S
H3479 N3466 0.985 . S
C3480 C3481 1.363 . S
C3480 C3486 1.379 . S
C3480 N3488 1.356 . S
C3481 C3480 1.363 . S
C3481 C3487 1.363 . S
C3482 C3483 1.363 . S
C3482 C3487 1.379 . S
C3482 N3489 1.356 . S
C3483 C3482 1.363 . S
C3483 C3486 1.363 . S
N3484 C3486 1.356 . S
N3484 H3496 0.984 . S
N3484 H3497 0.985 . S
N3485 C3487 1.356 . S
N3485 H3490 0.984 . S
N3485 H3491 0.985 . S
C3486 C3480 1.379 . S
C3486 C3483 1.363 . S
C3486 N3484 1.356 . S
C3487 C3481 1.363 . S
C3487 C3482 1.379 . S
C3487 N3485 1.356 . S
N3488 C3480 1.356 . S
N3488 H3494 0.984 . S
N3488 H3495 0.984 . S
N3489 C3482 1.356 . S
N3489 H3492 0.984 . S
N3489 H3493 0.985 . S
H3490 N3485 0.984 . S
H3491 N3485 0.985 . S
H3492 N3489 0.984 . S
H3493 N3489 0.985 . S
H3494 N3488 0.984 . S
H3495 N3488 0.984 . S
H3496 N3484 0.984 . S
H3497 N3484 0.985 . S
C3498 C3499 1.363 . S
C3498 C3504 1.379 . S
C3498 N3506 1.356 . S
C3499 C3498 1.363 . S
C3499 C3505 1.363 . S
C3500 C3501 1.363 . S
C3500 C3505 1.379 . S
C3500 N3507 1.356 . S
C3501 C3500 1.363 . S
C3501 C3504 1.363 . S
N3502 C3504 1.356 . S
N3502 H3514 0.984 . S
N3502 H3515 0.985 . S
N3503 C3505 1.356 . S
N3503 H3508 0.984 . S
N3503 H3509 0.985 . S
C3504 C3498 1.379 . S
C3504 C3501 1.363 . S
C3504 N3502 1.356 . S
C3505 C3499 1.363 . S
C3505 C3500 1.379 . S
C3505 N3503 1.356 . S
N3506 C3498 1.356 . S
N3506 H3512 0.984 . S
N3506 H3513 0.984 . S
N3507 C3500 1.356 . S
N3507 H3510 0.984 . S
N3507 H3511 0.985 . S
H3508 N3503 0.984 . S
H3509 N3503 0.985 . S
H3510 N3507 0.984 . S
H3511 N3507 0.985 . S
H3512 N3506 0.984 . S
H3513 N3506 0.984 . S
H3514 N3502 0.984 . S
H3515 N3502 0.985 . S
C3516 C3517 1.363 . S
C3516 C3522 1.379 . S
C3516 N3524 1.356 . S
C3517 C3516 1.363 . S
C3517 C3523 1.363 . S
C3518 C3519 1.363 . S
C3518 C3523 1.379 . S
C3518 N3525 1.356 . S
C3519 C3518 1.363 . S
C3519 C3522 1.363 . S
N3520 C3522 1.356 . S
N3520 H3532 0.984 . S
N3520 H3533 0.985 . S
N3521 C3523 1.356 . S
N3521 H3526 0.984 . S
N3521 H3527 0.985 . S
C3522 C3516 1.379 . S
C3522 C3519 1.363 . S
C3522 N3520 1.356 . S
C3523 C3517 1.363 . S
C3523 C3518 1.379 . S
C3523 N3521 1.356 . S
N3524 C3516 1.356 . S
N3524 H3530 0.984 . S
N3524 H3531 0.984 . S
N3525 C3518 1.356 . S
N3525 H3528 0.984 . S
N3525 H3529 0.985 . S
H3526 N3521 0.984 . S
H3527 N3521 0.985 . S
H3528 N3525 0.984 . S
H3529 N3525 0.985 . S
H3530 N3524 0.984 . S
H3531 N3524 0.984 . S
H3532 N3520 0.984 . S
H3533 N3520 0.985 . S
C3534 C3535 1.363 . S
C3534 C3540 1.379 . S
C3534 N3542 1.356 . S
C3535 C3534 1.363 . S
C3535 C3541 1.363 . S
C3536 C3537 1.363 . S
C3536 C3541 1.379 . S
C3536 N3543 1.356 . S
C3537 C3536 1.363 . S
C3537 C3540 1.363 . S
N3538 C3540 1.356 . S
N3538 H3550 0.984 . S
N3538 H3551 0.985 . S
N3539 C3541 1.356 . S
N3539 H3544 0.984 . S
N3539 H3545 0.985 . S
C3540 C3534 1.379 . S
C3540 C3537 1.363 . S
C3540 N3538 1.356 . S
C3541 C3535 1.363 . S
C3541 C3536 1.379 . S
C3541 N3539 1.356 . S
N3542 C3534 1.356 . S
N3542 H3548 0.984 . S
N3542 H3549 0.984 . S
N3543 C3536 1.356 . S
N3543 H3546 0.984 . S
N3543 H3547 0.985 . S
H3544 N3539 0.984 . S
H3545 N3539 0.985 . S
H3546 N3543 0.984 . S
H3547 N3543 0.985 . S
H3548 N3542 0.984 . S
H3549 N3542 0.984 . S
H3550 N3538 0.984 . S
H3551 N3538 0.985 . S
C3552 C3553 1.363 . S
C3552 C3558 1.379 . S
C3552 N3560 1.356 . S
C3553 C3552 1.363 . S
C3553 C3559 1.363 . S
C3554 C3555 1.363 . S
C3554 C3559 1.379 . S
C3554 N3561 1.356 . S
C3555 C3554 1.363 . S
C3555 C3558 1.363 . S
N3556 C3558 1.356 . S
N3556 H3568 0.984 . S
N3556 H3569 0.985 . S
N3557 C3559 1.356 . S
N3557 H3562 0.984 . S
N3557 H3563 0.985 . S
C3558 C3552 1.379 . S
C3558 C3555 1.363 . S
C3558 N3556 1.356 . S
C3559 C3553 1.363 . S
C3559 C3554 1.379 . S
C3559 N3557 1.356 . S
N3560 C3552 1.356 . S
N3560 H3566 0.984 . S
N3560 H3567 0.984 . S
N3561 C3554 1.356 . S
N3561 H3564 0.984 . S
N3561 H3565 0.985 . S
H3562 N3557 0.984 . S
H3563 N3557 0.985 . S
H3564 N3561 0.984 . S
H3565 N3561 0.985 . S
H3566 N3560 0.984 . S
H3567 N3560 0.984 . S
H3568 N3556 0.984 . S
H3569 N3556 0.985 . S
C3570 C3571 1.363 . S
C3570 C3576 1.379 . S
C3570 N3578 1.356 . S
C3571 C3570 1.363 . S
C3571 C3577 1.363 . S
C3572 C3573 1.363 . S
C3572 C3577 1.379 . S
C3572 N3579 1.356 . S
C3573 C3572 1.363 . S
C3573 C3576 1.363 . S
N3574 C3576 1.356 . S
N3574 H3586 0.984 . S
N3574 H3587 0.985 . S
N3575 C3577 1.356 . S
N3575 H3580 0.984 . S
N3575 H3581 0.985 . S
C3576 C3570 1.379 . S
C3576 C3573 1.363 . S
C3576 N3574 1.356 . S
C3577 C3571 1.363 . S
C3577 C3572 1.379 . S
C3577 N3575 1.356 . S
N3578 C3570 1.356 . S
N3578 H3584 0.984 . S
N3578 H3585 0.984 . S
N3579 C3572 1.356 . S
N3579 H3582 0.984 . S
N3579 H3583 0.985 . S
H3580 N3575 0.984 . S
H3581 N3575 0.985 . S
H3582 N3579 0.984 . S
H3583 N3579 0.985 . S
H3584 N3578 0.984 . S
H3585 N3578 0.984 . S
H3586 N3574 0.984 . S
H3587 N3574 0.985 . S
C3588 C3589 1.363 . S
C3588 C3594 1.379 . S
C3588 N3596 1.356 . S
C3589 C3588 1.363 . S
C3589 C3595 1.363 . S
C3590 C3591 1.363 . S
C3590 C3595 1.379 . S
C3590 N3597 1.356 . S
C3591 C3590 1.363 . S
C3591 C3594 1.363 . S
N3592 C3594 1.356 . S
N3592 H3604 0.984 . S
N3592 H3605 0.985 . S
N3593 C3595 1.356 . S
N3593 H3598 0.984 . S
N3593 H3599 0.985 . S
C3594 C3588 1.379 . S
C3594 C3591 1.363 . S
C3594 N3592 1.356 . S
C3595 C3589 1.363 . S
C3595 C3590 1.379 . S
C3595 N3593 1.356 . S
N3596 C3588 1.356 . S
N3596 H3602 0.984 . S
N3596 H3603 0.984 . S
N3597 C3590 1.356 . S
N3597 H3600 0.984 . S
N3597 H3601 0.985 . S
H3598 N3593 0.984 . S
H3599 N3593 0.985 . S
H3600 N3597 0.984 . S
H3601 N3597 0.985 . S
H3602 N3596 0.984 . S
H3603 N3596 0.984 . S
H3604 N3592 0.984 . S
H3605 N3592 0.985 . S
C3606 C3607 1.363 . S
C3606 C3612 1.379 . S
C3606 N3614 1.356 . S
C3607 C3606 1.363 . S
C3607 C3613 1.363 . S
C3608 C3609 1.363 . S
C3608 C3613 1.379 . S
C3608 N3615 1.356 . S
C3609 C3608 1.363 . S
C3609 C3612 1.363 . S
N3610 C3612 1.356 . S
N3610 H3622 0.984 . S
N3610 H3623 0.985 . S
N3611 C3613 1.356 . S
N3611 H3616 0.984 . S
N3611 H3617 0.985 . S
C3612 C3606 1.379 . S
C3612 C3609 1.363 . S
C3612 N3610 1.356 . S
C3613 C3607 1.363 . S
C3613 C3608 1.379 . S
C3613 N3611 1.356 . S
N3614 C3606 1.356 . S
N3614 H3620 0.984 . S
N3614 H3621 0.984 . S
N3615 C3608 1.356 . S
N3615 H3618 0.984 . S
N3615 H3619 0.985 . S
H3616 N3611 0.984 . S
H3617 N3611 0.985 . S
H3618 N3615 0.984 . S
H3619 N3615 0.985 . S
H3620 N3614 0.984 . S
H3621 N3614 0.984 . S
H3622 N3610 0.984 . S
H3623 N3610 0.985 . S
C3624 C3625 1.363 . S
C3624 C3630 1.379 . S
C3624 N3632 1.356 . S
C3625 C3624 1.363 . S
C3625 C3631 1.363 . S
C3626 C3627 1.363 . S
C3626 C3631 1.379 . S
C3626 N3633 1.356 . S
C3627 C3626 1.363 . S
C3627 C3630 1.363 . S
N3628 C3630 1.356 . S
N3628 H3640 0.984 . S
N3628 H3641 0.985 . S
N3629 C3631 1.356 . S
N3629 H3634 0.984 . S
N3629 H3635 0.985 . S
C3630 C3624 1.379 . S
C3630 C3627 1.363 . S
C3630 N3628 1.356 . S
C3631 C3625 1.363 . S
C3631 C3626 1.379 . S
C3631 N3629 1.356 . S
N3632 C3624 1.356 . S
N3632 H3638 0.984 . S
N3632 H3639 0.984 . S
N3633 C3626 1.356 . S
N3633 H3636 0.984 . S
N3633 H3637 0.985 . S
H3634 N3629 0.984 . S
H3635 N3629 0.985 . S
H3636 N3633 0.984 . S
H3637 N3633 0.985 . S
H3638 N3632 0.984 . S
H3639 N3632 0.984 . S
H3640 N3628 0.984 . S
H3641 N3628 0.985 . S
C3642 C3643 1.363 . S
C3642 C3648 1.379 . S
C3642 N3650 1.356 . S
C3643 C3642 1.363 . S
C3643 C3649 1.363 . S
C3644 C3645 1.363 . S
C3644 C3649 1.379 . S
C3644 N3651 1.356 . S
C3645 C3644 1.363 . S
C3645 C3648 1.363 . S
N3646 C3648 1.356 . S
N3646 H3658 0.984 . S
N3646 H3659 0.985 . S
N3647 C3649 1.356 . S
N3647 H3652 0.984 . S
N3647 H3653 0.985 . S
C3648 C3642 1.379 . S
C3648 C3645 1.363 . S
C3648 N3646 1.356 . S
C3649 C3643 1.363 . S
C3649 C3644 1.379 . S
C3649 N3647 1.356 . S
N3650 C3642 1.356 . S
N3650 H3656 0.984 . S
N3650 H3657 0.984 . S
N3651 C3644 1.356 . S
N3651 H3654 0.984 . S
N3651 H3655 0.985 . S
H3652 N3647 0.984 . S
H3653 N3647 0.985 . S
H3654 N3651 0.984 . S
H3655 N3651 0.985 . S
H3656 N3650 0.984 . S
H3657 N3650 0.984 . S
H3658 N3646 0.984 . S
H3659 N3646 0.985 . S
C3660 C3661 1.363 . S
C3660 C3666 1.379 . S
C3660 N3668 1.356 . S
C3661 C3660 1.363 . S
C3661 C3667 1.363 . S
C3662 C3663 1.363 . S
C3662 C3667 1.379 . S
C3662 N3669 1.356 . S
C3663 C3662 1.363 . S
C3663 C3666 1.363 . S
N3664 C3666 1.356 . S
N3664 H3676 0.984 . S
N3664 H3677 0.985 . S
N3665 C3667 1.356 . S
N3665 H3670 0.984 . S
N3665 H3671 0.985 . S
C3666 C3660 1.379 . S
C3666 C3663 1.363 . S
C3666 N3664 1.356 . S
C3667 C3661 1.363 . S
C3667 C3662 1.379 . S
C3667 N3665 1.356 . S
N3668 C3660 1.356 . S
N3668 H3674 0.984 . S
N3668 H3675 0.984 . S
N3669 C3662 1.356 . S
N3669 H3672 0.984 . S
N3669 H3673 0.985 . S
H3670 N3665 0.984 . S
H3671 N3665 0.985 . S
H3672 N3669 0.984 . S
H3673 N3669 0.985 . S
H3674 N3668 0.984 . S
H3675 N3668 0.984 . S
H3676 N3664 0.984 . S
H3677 N3664 0.985 . S
C3678 C3679 1.363 . S
C3678 C3684 1.379 . S
C3678 N3686 1.356 . S
C3679 C3678 1.363 . S
C3679 C3685 1.363 . S
C3680 C3681 1.363 . S
C3680 C3685 1.379 . S
C3680 N3687 1.356 . S
C3681 C3680 1.363 . S
C3681 C3684 1.363 . S
N3682 C3684 1.356 . S
N3682 H3694 0.984 . S
N3682 H3695 0.985 . S
N3683 C3685 1.356 . S
N3683 H3688 0.984 . S
N3683 H3689 0.985 . S
C3684 C3678 1.379 . S
C3684 C3681 1.363 . S
C3684 N3682 1.356 . S
C3685 C3679 1.363 . S
C3685 C3680 1.379 . S
C3685 N3683 1.356 . S
N3686 C3678 1.356 . S
N3686 H3692 0.984 . S
N3686 H3693 0.984 . S
N3687 C3680 1.356 . S
N3687 H3690 0.984 . S
N3687 H3691 0.985 . S
H3688 N3683 0.984 . S
H3689 N3683 0.985 . S
H3690 N3687 0.984 . S
H3691 N3687 0.985 . S
H3692 N3686 0.984 . S
H3693 N3686 0.984 . S
H3694 N3682 0.984 . S
H3695 N3682 0.985 . S
C3696 C3697 1.363 . S
C3696 C3702 1.379 . S
C3696 N3704 1.356 . S
C3697 C3696 1.363 . S
C3697 C3703 1.363 . S
C3698 C3699 1.363 . S
C3698 C3703 1.379 . S
C3698 N3705 1.356 . S
C3699 C3698 1.363 . S
C3699 C3702 1.363 . S
N3700 C3702 1.356 . S
N3700 H3712 0.984 . S
N3700 H3713 0.985 . S
N3701 C3703 1.356 . S
N3701 H3706 0.984 . S
N3701 H3707 0.985 . S
C3702 C3696 1.379 . S
C3702 C3699 1.363 . S
C3702 N3700 1.356 . S
C3703 C3697 1.363 . S
C3703 C3698 1.379 . S
C3703 N3701 1.356 . S
N3704 C3696 1.356 . S
N3704 H3710 0.984 . S
N3704 H3711 0.984 . S
N3705 C3698 1.356 . S
N3705 H3708 0.984 . S
N3705 H3709 0.985 . S
H3706 N3701 0.984 . S
H3707 N3701 0.985 . S
H3708 N3705 0.984 . S
H3709 N3705 0.985 . S
H3710 N3704 0.984 . S
H3711 N3704 0.984 . S
H3712 N3700 0.984 . S
H3713 N3700 0.985 . S
C3714 C3715 1.363 . S
C3714 C3720 1.379 . S
C3714 N3722 1.356 . S
C3715 C3714 1.363 . S
C3715 C3721 1.363 . S
C3716 C3717 1.363 . S
C3716 C3721 1.379 . S
C3716 N3723 1.356 . S
C3717 C3716 1.363 . S
C3717 C3720 1.363 . S
N3718 C3720 1.356 . S
N3718 H3730 0.984 . S
N3718 H3731 0.985 . S
N3719 C3721 1.356 . S
N3719 H3724 0.984 . S
N3719 H3725 0.985 . S
C3720 C3714 1.379 . S
C3720 C3717 1.363 . S
C3720 N3718 1.356 . S
C3721 C3715 1.363 . S
C3721 C3716 1.379 . S
C3721 N3719 1.356 . S
N3722 C3714 1.356 . S
N3722 H3728 0.984 . S
N3722 H3729 0.984 . S
N3723 C3716 1.356 . S
N3723 H3726 0.984 . S
N3723 H3727 0.985 . S
H3724 N3719 0.984 . S
H3725 N3719 0.985 . S
H3726 N3723 0.984 . S
H3727 N3723 0.985 . S
H3728 N3722 0.984 . S
H3729 N3722 0.984 . S
H3730 N3718 0.984 . S
H3731 N3718 0.985 . S
C3732 C3733 1.363 . S
C3732 C3738 1.379 . S
C3732 N3740 1.356 . S
C3733 C3732 1.363 . S
C3733 C3739 1.363 . S
C3734 C3735 1.363 . S
C3734 C3739 1.379 . S
C3734 N3741 1.356 . S
C3735 C3734 1.363 . S
C3735 C3738 1.363 . S
N3736 C3738 1.356 . S
N3736 H3748 0.984 . S
N3736 H3749 0.985 . S
N3737 C3739 1.356 . S
N3737 H3742 0.984 . S
N3737 H3743 0.985 . S
C3738 C3732 1.379 . S
C3738 C3735 1.363 . S
C3738 N3736 1.356 . S
C3739 C3733 1.363 . S
C3739 C3734 1.379 . S
C3739 N3737 1.356 . S
N3740 C3732 1.356 . S
N3740 H3746 0.984 . S
N3740 H3747 0.984 . S
N3741 C3734 1.356 . S
N3741 H3744 0.984 . S
N3741 H3745 0.985 . S
H3742 N3737 0.984 . S
H3743 N3737 0.985 . S
H3744 N3741 0.984 . S
H3745 N3741 0.985 . S
H3746 N3740 0.984 . S
H3747 N3740 0.984 . S
H3748 N3736 0.984 . S
H3749 N3736 0.985 . S
C3750 C3751 1.363 . S
C3750 C3756 1.379 . S
C3750 N3758 1.356 . S
C3751 C3750 1.363 . S
C3751 C3757 1.363 . S
C3752 C3753 1.363 . S
C3752 C3757 1.379 . S
C3752 N3759 1.356 . S
C3753 C3752 1.363 . S
C3753 C3756 1.363 . S
N3754 C3756 1.356 . S
N3754 H3766 0.984 . S
N3754 H3767 0.985 . S
N3755 C3757 1.356 . S
N3755 H3760 0.984 . S
N3755 H3761 0.985 . S
C3756 C3750 1.379 . S
C3756 C3753 1.363 . S
C3756 N3754 1.356 . S
C3757 C3751 1.363 . S
C3757 C3752 1.379 . S
C3757 N3755 1.356 . S
N3758 C3750 1.356 . S
N3758 H3764 0.984 . S
N3758 H3765 0.984 . S
N3759 C3752 1.356 . S
N3759 H3762 0.984 . S
N3759 H3763 0.985 . S
H3760 N3755 0.984 . S
H3761 N3755 0.985 . S
H3762 N3759 0.984 . S
H3763 N3759 0.985 . S
H3764 N3758 0.984 . S
H3765 N3758 0.984 . S
H3766 N3754 0.984 . S
H3767 N3754 0.985 . S
C3768 C3769 1.363 . S
C3768 C3774 1.379 . S
C3768 N3776 1.356 . S
C3769 C3768 1.363 . S
C3769 C3775 1.363 . S
C3770 C3771 1.363 . S
C3770 C3775 1.379 . S
C3770 N3777 1.356 . S
C3771 C3770 1.363 . S
C3771 C3774 1.363 . S
N3772 C3774 1.356 . S
N3772 H3784 0.984 . S
N3772 H3785 0.985 . S
N3773 C3775 1.356 . S
N3773 H3778 0.984 . S
N3773 H3779 0.985 . S
C3774 C3768 1.379 . S
C3774 C3771 1.363 . S
C3774 N3772 1.356 . S
C3775 C3769 1.363 . S
C3775 C3770 1.379 . S
C3775 N3773 1.356 . S
N3776 C3768 1.356 . S
N3776 H3782 0.984 . S
N3776 H3783 0.984 . S
N3777 C3770 1.356 . S
N3777 H3780 0.984 . S
N3777 H3781 0.985 . S
H3778 N3773 0.984 . S
H3779 N3773 0.985 . S
H3780 N3777 0.984 . S
H3781 N3777 0.985 . S
H3782 N3776 0.984 . S
H3783 N3776 0.984 . S
H3784 N3772 0.984 . S
H3785 N3772 0.985 . S
C3786 C3787 1.363 . S
C3786 C3792 1.379 . S
C3786 N3794 1.356 . S
C3787 C3786 1.363 . S
C3787 C3793 1.363 . S
C3788 C3789 1.363 . S
C3788 C3793 1.379 . S
C3788 N3795 1.356 . S
C3789 C3788 1.363 . S
C3789 C3792 1.363 . S
N3790 C3792 1.356 . S
N3790 H3802 0.984 . S
N3790 H3803 0.985 . S
N3791 C3793 1.356 . S
N3791 H3796 0.984 . S
N3791 H3797 0.985 . S
C3792 C3786 1.379 . S
C3792 C3789 1.363 . S
C3792 N3790 1.356 . S
C3793 C3787 1.363 . S
C3793 C3788 1.379 . S
C3793 N3791 1.356 . S
N3794 C3786 1.356 . S
N3794 H3800 0.984 . S
N3794 H3801 0.984 . S
N3795 C3788 1.356 . S
N3795 H3798 0.984 . S
N3795 H3799 0.985 . S
H3796 N3791 0.984 . S
H3797 N3791 0.985 . S
H3798 N3795 0.984 . S
H3799 N3795 0.985 . S
H3800 N3794 0.984 . S
H3801 N3794 0.984 . S
H3802 N3790 0.984 . S
H3803 N3790 0.985 . S
C3804 C3805 1.363 . S
C3804 C3810 1.379 . S
C3804 N3812 1.356 . S
C3805 C3804 1.363 . S
C3805 C3811 1.363 . S
C3806 C3807 1.363 . S
C3806 C3811 1.379 . S
C3806 N3813 1.356 . S
C3807 C3806 1.363 . S
C3807 C3810 1.363 . S
N3808 C3810 1.356 . S
N3808 H3820 0.984 . S
N3808 H3821 0.985 . S
N3809 C3811 1.356 . S
N3809 H3814 0.984 . S
N3809 H3815 0.985 . S
C3810 C3804 1.379 . S
C3810 C3807 1.363 . S
C3810 N3808 1.356 . S
C3811 C3805 1.363 . S
C3811 C3806 1.379 . S
C3811 N3809 1.356 . S
N3812 C3804 1.356 . S
N3812 H3818 0.984 . S
N3812 H3819 0.984 . S
N3813 C3806 1.356 . S
N3813 H3816 0.984 . S
N3813 H3817 0.985 . S
H3814 N3809 0.984 . S
H3815 N3809 0.985 . S
H3816 N3813 0.984 . S
H3817 N3813 0.985 . S
H3818 N3812 0.984 . S
H3819 N3812 0.984 . S
H3820 N3808 0.984 . S
H3821 N3808 0.985 . S
C3822 C3823 1.363 . S
C3822 C3828 1.379 . S
C3822 N3830 1.356 . S
C3823 C3822 1.363 . S
C3823 C3829 1.363 . S
C3824 C3825 1.363 . S
C3824 C3829 1.379 . S
C3824 N3831 1.356 . S
C3825 C3824 1.363 . S
C3825 C3828 1.363 . S
N3826 C3828 1.356 . S
N3826 H3838 0.984 . S
N3826 H3839 0.985 . S
N3827 C3829 1.356 . S
N3827 H3832 0.984 . S
N3827 H3833 0.985 . S
C3828 C3822 1.379 . S
C3828 C3825 1.363 . S
C3828 N3826 1.356 . S
C3829 C3823 1.363 . S
C3829 C3824 1.379 . S
C3829 N3827 1.356 . S
N3830 C3822 1.356 . S
N3830 H3836 0.984 . S
N3830 H3837 0.984 . S
N3831 C3824 1.356 . S
N3831 H3834 0.984 . S
N3831 H3835 0.985 . S
H3832 N3827 0.984 . S
H3833 N3827 0.985 . S
H3834 N3831 0.984 . S
H3835 N3831 0.985 . S
H3836 N3830 0.984 . S
H3837 N3830 0.984 . S
H3838 N3826 0.984 . S
H3839 N3826 0.985 . S
C3840 C3841 1.363 . S
C3840 C3846 1.379 . S
C3840 N3848 1.356 . S
C3841 C3840 1.363 . S
C3841 C3847 1.363 . S
C3842 C3843 1.363 . S
C3842 C3847 1.379 . S
C3842 N3849 1.356 . S
C3843 C3842 1.363 . S
C3843 C3846 1.363 . S
N3844 C3846 1.356 . S
N3844 H3856 0.984 . S
N3844 H3857 0.985 . S
N3845 C3847 1.356 . S
N3845 H3850 0.984 . S
N3845 H3851 0.985 . S
C3846 C3840 1.379 . S
C3846 C3843 1.363 . S
C3846 N3844 1.356 . S
C3847 C3841 1.363 . S
C3847 C3842 1.379 . S
C3847 N3845 1.356 . S
N3848 C3840 1.356 . S
N3848 H3854 0.984 . S
N3848 H3855 0.984 . S
N3849 C3842 1.356 . S
N3849 H3852 0.984 . S
N3849 H3853 0.985 . S
H3850 N3845 0.984 . S
H3851 N3845 0.985 . S
H3852 N3849 0.984 . S
H3853 N3849 0.985 . S
H3854 N3848 0.984 . S
H3855 N3848 0.984 . S
H3856 N3844 0.984 . S
H3857 N3844 0.985 . S
C3858 C3859 1.363 . S
C3858 C3864 1.379 . S
C3858 N3866 1.356 . S
C3859 C3858 1.363 . S
C3859 C3865 1.363 . S
C3860 C3861 1.363 . S
C3860 C3865 1.379 . S
C3860 N3867 1.356 . S
C3861 C3860 1.363 . S
C3861 C3864 1.363 . S
N3862 C3864 1.356 . S
N3862 H3874 0.984 . S
N3862 H3875 0.985 . S
N3863 C3865 1.356 . S
N3863 H3868 0.984 . S
N3863 H3869 0.985 . S
C3864 C3858 1.379 . S
C3864 C3861 1.363 . S
C3864 N3862 1.356 . S
C3865 C3859 1.363 . S
C3865 C3860 1.379 . S
C3865 N3863 1.356 . S
N3866 C3858 1.356 . S
N3866 H3872 0.984 . S
N3866 H3873 0.984 . S
N3867 C3860 1.356 . S
N3867 H3870 0.984 . S
N3867 H3871 0.985 . S
H3868 N3863 0.984 . S
H3869 N3863 0.985 . S
H3870 N3867 0.984 . S
H3871 N3867 0.985 . S
H3872 N3866 0.984 . S
H3873 N3866 0.984 . S
H3874 N3862 0.984 . S
H3875 N3862 0.985 . S
C3876 C3877 1.363 . S
C3876 C3882 1.379 . S
C3876 N3884 1.356 . S
C3877 C3876 1.363 . S
C3877 C3883 1.363 . S
C3878 C3879 1.363 . S
C3878 C3883 1.379 . S
C3878 N3885 1.356 . S
C3879 C3878 1.363 . S
C3879 C3882 1.363 . S
N3880 C3882 1.356 . S
N3880 H3892 0.984 . S
N3880 H3893 0.985 . S
N3881 C3883 1.356 . S
N3881 H3886 0.984 . S
N3881 H3887 0.985 . S
C3882 C3876 1.379 . S
C3882 C3879 1.363 . S
C3882 N3880 1.356 . S
C3883 C3877 1.363 . S
C3883 C3878 1.379 . S
C3883 N3881 1.356 . S
N3884 C3876 1.356 . S
N3884 H3890 0.984 . S
N3884 H3891 0.984 . S
N3885 C3878 1.356 . S
N3885 H3888 0.984 . S
N3885 H3889 0.985 . S
H3886 N3881 0.984 . S
H3887 N3881 0.985 . S
H3888 N3885 0.984 . S
H3889 N3885 0.985 . S
H3890 N3884 0.984 . S
H3891 N3884 0.984 . S
H3892 N3880 0.984 . S
H3893 N3880 0.985 . S
C3894 C3895 1.363 . S
C3894 C3900 1.379 . S
C3894 N3902 1.356 . S
C3895 C3894 1.363 . S
C3895 C3901 1.363 . S
C3896 C3897 1.363 . S
C3896 C3901 1.379 . S
C3896 N3903 1.356 . S
C3897 C3896 1.363 . S
C3897 C3900 1.363 . S
N3898 C3900 1.356 . S
N3898 H3910 0.984 . S
N3898 H3911 0.985 . S
N3899 C3901 1.356 . S
N3899 H3904 0.984 . S
N3899 H3905 0.985 . S
C3900 C3894 1.379 . S
C3900 C3897 1.363 . S
C3900 N3898 1.356 . S
C3901 C3895 1.363 . S
C3901 C3896 1.379 . S
C3901 N3899 1.356 . S
N3902 C3894 1.356 . S
N3902 H3908 0.984 . S
N3902 H3909 0.984 . S
N3903 C3896 1.356 . S
N3903 H3906 0.984 . S
N3903 H3907 0.985 . S
H3904 N3899 0.984 . S
H3905 N3899 0.985 . S
H3906 N3903 0.984 . S
H3907 N3903 0.985 . S
H3908 N3902 0.984 . S
H3909 N3902 0.984 . S
H3910 N3898 0.984 . S
H3911 N3898 0.985 . S
C3912 C3913 1.363 . S
C3912 C3918 1.379 . S
C3912 N3920 1.356 . S
C3913 C3912 1.363 . S
C3913 C3919 1.363 . S
C3914 C3915 1.363 . S
C3914 C3919 1.379 . S
C3914 N3921 1.356 . S
C3915 C3914 1.363 . S
C3915 C3918 1.363 . S
N3916 C3918 1.356 . S
N3916 H3928 0.984 . S
N3916 H3929 0.985 . S
N3917 C3919 1.356 . S
N3917 H3922 0.984 . S
N3917 H3923 0.985 . S
C3918 C3912 1.379 . S
C3918 C3915 1.363 . S
C3918 N3916 1.356 . S
C3919 C3913 1.363 . S
C3919 C3914 1.379 . S
C3919 N3917 1.356 . S
N3920 C3912 1.356 . S
N3920 H3926 0.984 . S
N3920 H3927 0.984 . S
N3921 C3914 1.356 . S
N3921 H3924 0.984 . S
N3921 H3925 0.985 . S
H3922 N3917 0.984 . S
H3923 N3917 0.985 . S
H3924 N3921 0.984 . S
H3925 N3921 0.985 . S
H3926 N3920 0.984 . S
H3927 N3920 0.984 . S
H3928 N3916 0.984 . S
H3929 N3916 0.985 . S
C3930 C3931 1.363 . S
C3930 C3936 1.379 . S
C3930 N3938 1.356 . S
C3931 C3930 1.363 . S
C3931 C3937 1.363 . S
C3932 C3933 1.363 . S
C3932 C3937 1.379 . S
C3932 N3939 1.356 . S
C3933 C3932 1.363 . S
C3933 C3936 1.363 . S
N3934 C3936 1.356 . S
N3934 H3946 0.984 . S
N3934 H3947 0.985 . S
N3935 C3937 1.356 . S
N3935 H3940 0.984 . S
N3935 H3941 0.985 . S
C3936 C3930 1.379 . S
C3936 C3933 1.363 . S
C3936 N3934 1.356 . S
C3937 C3931 1.363 . S
C3937 C3932 1.379 . S
C3937 N3935 1.356 . S
N3938 C3930 1.356 . S
N3938 H3944 0.984 . S
N3938 H3945 0.984 . S
N3939 C3932 1.356 . S
N3939 H3942 0.984 . S
N3939 H3943 0.985 . S
H3940 N3935 0.984 . S
H3941 N3935 0.985 . S
H3942 N3939 0.984 . S
H3943 N3939 0.985 . S
H3944 N3938 0.984 . S
H3945 N3938 0.984 . S
H3946 N3934 0.984 . S
H3947 N3934 0.985 . S
C3948 C3949 1.363 . S
C3948 C3954 1.379 . S
C3948 N3956 1.356 . S
C3949 C3948 1.363 . S
C3949 C3955 1.363 . S
C3950 C3951 1.363 . S
C3950 C3955 1.379 . S
C3950 N3957 1.356 . S
C3951 C3950 1.363 . S
C3951 C3954 1.363 . S
N3952 C3954 1.356 . S
N3952 H3964 0.984 . S
N3952 H3965 0.985 . S
N3953 C3955 1.356 . S
N3953 H3958 0.984 . S
N3953 H3959 0.985 . S
C3954 C3948 1.379 . S
C3954 C3951 1.363 . S
C3954 N3952 1.356 . S
C3955 C3949 1.363 . S
C3955 C3950 1.379 . S
C3955 N3953 1.356 . S
N3956 C3948 1.356 . S
N3956 H3962 0.984 . S
N3956 H3963 0.984 . S
N3957 C3950 1.356 . S
N3957 H3960 0.984 . S
N3957 H3961 0.985 . S
H3958 N3953 0.984 . S
H3959 N3953 0.985 . S
H3960 N3957 0.984 . S
H3961 N3957 0.985 . S
H3962 N3956 0.984 . S
H3963 N3956 0.984 . S
H3964 N3952 0.984 . S
H3965 N3952 0.985 . S
C3966 C3967 1.363 . S
C3966 C3972 1.379 . S
C3966 N3974 1.356 . S
C3967 C3966 1.363 . S
C3967 C3973 1.363 . S
C3968 C3969 1.363 . S
C3968 C3973 1.379 . S
C3968 N3975 1.356 . S
C3969 C3968 1.363 . S
C3969 C3972 1.363 . S
N3970 C3972 1.356 . S
N3970 H3982 0.984 . S
N3970 H3983 0.985 . S
N3971 C3973 1.356 . S
N3971 H3976 0.984 . S
N3971 H3977 0.985 . S
C3972 C3966 1.379 . S
C3972 C3969 1.363 . S
C3972 N3970 1.356 . S
C3973 C3967 1.363 . S
C3973 C3968 1.379 . S
C3973 N3971 1.356 . S
N3974 C3966 1.356 . S
N3974 H3980 0.984 . S
N3974 H3981 0.984 . S
N3975 C3968 1.356 . S
N3975 H3978 0.984 . S
N3975 H3979 0.985 . S
H3976 N3971 0.984 . S
H3977 N3971 0.985 . S
H3978 N3975 0.984 . S
H3979 N3975 0.985 . S
H3980 N3974 0.984 . S
H3981 N3974 0.984 . S
H3982 N3970 0.984 . S
H3983 N3970 0.985 . S
C3984 C3985 1.363 . S
C3984 C3990 1.379 . S
C3984 N3992 1.356 . S
C3985 C3984 1.363 . S
C3985 C3991 1.363 . S
C3986 C3987 1.363 . S
C3986 C3991 1.379 . S
C3986 N3993 1.356 . S
C3987 C3986 1.363 . S
C3987 C3990 1.363 . S
N3988 C3990 1.356 . S
N3988 H4000 0.984 . S
N3988 H4001 0.985 . S
N3989 C3991 1.356 . S
N3989 H3994 0.984 . S
N3989 H3995 0.985 . S
C3990 C3984 1.379 . S
C3990 C3987 1.363 . S
C3990 N3988 1.356 . S
C3991 C3985 1.363 . S
C3991 C3986 1.379 . S
C3991 N3989 1.356 . S
N3992 C3984 1.356 . S
N3992 H3998 0.984 . S
N3992 H3999 0.984 . S
N3993 C3986 1.356 . S
N3993 H3996 0.984 . S
N3993 H3997 0.985 . S
H3994 N3989 0.984 . S
H3995 N3989 0.985 . S
H3996 N3993 0.984 . S
H3997 N3993 0.985 . S
H3998 N3992 0.984 . S
H3999 N3992 0.984 . S
H4000 N3988 0.984 . S
H4001 N3988 0.985 . S
C4002 C4003 1.363 . S
C4002 C4008 1.379 . S
C4002 N4010 1.356 . S
C4003 C4002 1.363 . S
C4003 C4009 1.363 . S
C4004 C4005 1.363 . S
C4004 C4009 1.379 . S
C4004 N4011 1.356 . S
C4005 C4004 1.363 . S
C4005 C4008 1.363 . S
N4006 C4008 1.356 . S
N4006 H4018 0.984 . S
N4006 H4019 0.985 . S
N4007 C4009 1.356 . S
N4007 H4012 0.984 . S
N4007 H4013 0.985 . S
C4008 C4002 1.379 . S
C4008 C4005 1.363 . S
C4008 N4006 1.356 . S
C4009 C4003 1.363 . S
C4009 C4004 1.379 . S
C4009 N4007 1.356 . S
N4010 C4002 1.356 . S
N4010 H4016 0.984 . S
N4010 H4017 0.984 . S
N4011 C4004 1.356 . S
N4011 H4014 0.984 . S
N4011 H4015 0.985 . S
H4012 N4007 0.984 . S
H4013 N4007 0.985 . S
H4014 N4011 0.984 . S
H4015 N4011 0.985 . S
H4016 N4010 0.984 . S
H4017 N4010 0.984 . S
H4018 N4006 0.984 . S
H4019 N4006 0.985 . S
C4020 C4021 1.363 . S
C4020 C4026 1.379 . S
C4020 N4028 1.356 . S
C4021 C4020 1.363 . S
C4021 C4027 1.363 . S
C4022 C4023 1.363 . S
C4022 C4027 1.379 . S
C4022 N4029 1.356 . S
C4023 C4022 1.363 . S
C4023 C4026 1.363 . S
N4024 C4026 1.356 . S
N4024 H4036 0.984 . S
N4024 H4037 0.985 . S
N4025 C4027 1.356 . S
N4025 H4030 0.984 . S
N4025 H4031 0.985 . S
C4026 C4020 1.379 . S
C4026 C4023 1.363 . S
C4026 N4024 1.356 . S
C4027 C4021 1.363 . S
C4027 C4022 1.379 . S
C4027 N4025 1.356 . S
N4028 C4020 1.356 . S
N4028 H4034 0.984 . S
N4028 H4035 0.984 . S
N4029 C4022 1.356 . S
N4029 H4032 0.984 . S
N4029 H4033 0.985 . S
H4030 N4025 0.984 . S
H4031 N4025 0.985 . S
H4032 N4029 0.984 . S
H4033 N4029 0.985 . S
H4034 N4028 0.984 . S
H4035 N4028 0.984 . S
H4036 N4024 0.984 . S
H4037 N4024 0.985 . S
C4038 C4039 1.363 . S
C4038 C4044 1.379 . S
C4038 N4046 1.356 . S
C4039 C4038 1.363 . S
C4039 C4045 1.363 . S
C4040 C4041 1.363 . S
C4040 C4045 1.379 . S
C4040 N4047 1.356 . S
C4041 C4040 1.363 . S
C4041 C4044 1.363 . S
N4042 C4044 1.356 . S
N4042 H4054 0.984 . S
N4042 H4055 0.985 . S
N4043 C4045 1.356 . S
N4043 H4048 0.984 . S
N4043 H4049 0.985 . S
C4044 C4038 1.379 . S
C4044 C4041 1.363 . S
C4044 N4042 1.356 . S
C4045 C4039 1.363 . S
C4045 C4040 1.379 . S
C4045 N4043 1.356 . S
N4046 C4038 1.356 . S
N4046 H4052 0.984 . S
N4046 H4053 0.984 . S
N4047 C4040 1.356 . S
N4047 H4050 0.984 . S
N4047 H4051 0.985 . S
H4048 N4043 0.984 . S
H4049 N4043 0.985 . S
H4050 N4047 0.984 . S
H4051 N4047 0.985 . S
H4052 N4046 0.984 . S
H4053 N4046 0.984 . S
H4054 N4042 0.984 . S
H4055 N4042 0.985 . S
C4056 C4057 1.363 . S
C4056 C4062 1.379 . S
C4056 N4064 1.356 . S
C4057 C4056 1.363 . S
C4057 C4063 1.363 . S
C4058 C4059 1.363 . S
C4058 C4063 1.379 . S
C4058 N4065 1.356 . S
C4059 C4058 1.363 . S
C4059 C4062 1.363 . S
N4060 C4062 1.356 . S
N4060 H4072 0.984 . S
N4060 H4073 0.985 . S
N4061 C4063 1.356 . S
N4061 H4066 0.984 . S
N4061 H4067 0.985 . S
C4062 C4056 1.379 . S
C4062 C4059 1.363 . S
C4062 N4060 1.356 . S
C4063 C4057 1.363 . S
C4063 C4058 1.379 . S
C4063 N4061 1.356 . S
N4064 C4056 1.356 . S
N4064 H4070 0.984 . S
N4064 H4071 0.984 . S
N4065 C4058 1.356 . S
N4065 H4068 0.984 . S
N4065 H4069 0.985 . S
H4066 N4061 0.984 . S
H4067 N4061 0.985 . S
H4068 N4065 0.984 . S
H4069 N4065 0.985 . S
H4070 N4064 0.984 . S
H4071 N4064 0.984 . S
H4072 N4060 0.984 . S
H4073 N4060 0.985 . S
C4074 C4075 1.363 . S
C4074 C4080 1.379 . S
C4074 N4082 1.356 . S
C4075 C4074 1.363 . S
C4075 C4081 1.363 . S
C4076 C4077 1.363 . S
C4076 C4081 1.379 . S
C4076 N4083 1.356 . S
C4077 C4076 1.363 . S
C4077 C4080 1.363 . S
N4078 C4080 1.356 . S
N4078 H4090 0.984 . S
N4078 H4091 0.985 . S
N4079 C4081 1.356 . S
N4079 H4084 0.984 . S
N4079 H4085 0.985 . S
C4080 C4074 1.379 . S
C4080 C4077 1.363 . S
C4080 N4078 1.356 . S
C4081 C4075 1.363 . S
C4081 C4076 1.379 . S
C4081 N4079 1.356 . S
N4082 C4074 1.356 . S
N4082 H4088 0.984 . S
N4082 H4089 0.984 . S
N4083 C4076 1.356 . S
N4083 H4086 0.984 . S
N4083 H4087 0.985 . S
H4084 N4079 0.984 . S
H4085 N4079 0.985 . S
H4086 N4083 0.984 . S
H4087 N4083 0.985 . S
H4088 N4082 0.984 . S
H4089 N4082 0.984 . S
H4090 N4078 0.984 . S
H4091 N4078 0.985 . S
C4092 C4093 1.363 . S
C4092 C4098 1.379 . S
C4092 N4100 1.356 . S
C4093 C4092 1.363 . S
C4093 C4099 1.363 . S
C4094 C4095 1.363 . S
C4094 C4099 1.379 . S
C4094 N4101 1.356 . S
C4095 C4094 1.363 . S
C4095 C4098 1.363 . S
N4096 C4098 1.356 . S
N4096 H4108 0.984 . S
N4096 H4109 0.985 . S
N4097 C4099 1.356 . S
N4097 H4102 0.984 . S
N4097 H4103 0.985 . S
C4098 C4092 1.379 . S
C4098 C4095 1.363 . S
C4098 N4096 1.356 . S
C4099 C4093 1.363 . S
C4099 C4094 1.379 . S
C4099 N4097 1.356 . S
N4100 C4092 1.356 . S
N4100 H4106 0.984 . S
N4100 H4107 0.984 . S
N4101 C4094 1.356 . S
N4101 H4104 0.984 . S
N4101 H4105 0.985 . S
H4102 N4097 0.984 . S
H4103 N4097 0.985 . S
H4104 N4101 0.984 . S
H4105 N4101 0.985 . S
H4106 N4100 0.984 . S
H4107 N4100 0.984 . S
H4108 N4096 0.984 . S
H4109 N4096 0.985 . S
C4110 C4111 1.363 . S
C4110 C4116 1.379 . S
C4110 N4118 1.356 . S
C4111 C4110 1.363 . S
C4111 C4117 1.363 . S
C4112 C4113 1.363 . S
C4112 C4117 1.379 . S
C4112 N4119 1.356 . S
C4113 C4112 1.363 . S
C4113 C4116 1.363 . S
N4114 C4116 1.356 . S
N4114 H4126 0.984 . S
N4114 H4127 0.985 . S
N4115 C4117 1.356 . S
N4115 H4120 0.984 . S
N4115 H4121 0.985 . S
C4116 C4110 1.379 . S
C4116 C4113 1.363 . S
C4116 N4114 1.356 . S
C4117 C4111 1.363 . S
C4117 C4112 1.379 . S
C4117 N4115 1.356 . S
N4118 C4110 1.356 . S
N4118 H4124 0.984 . S
N4118 H4125 0.984 . S
N4119 C4112 1.356 . S
N4119 H4122 0.984 . S
N4119 H4123 0.985 . S
H4120 N4115 0.984 . S
H4121 N4115 0.985 . S
H4122 N4119 0.984 . S
H4123 N4119 0.985 . S
H4124 N4118 0.984 . S
H4125 N4118 0.984 . S
H4126 N4114 0.984 . S
H4127 N4114 0.985 . S
C4128 C4129 1.363 . S
C4128 C4134 1.379 . S
C4128 N4136 1.356 . S
C4129 C4128 1.363 . S
C4129 C4135 1.363 . S
C4130 C4131 1.363 . S
C4130 C4135 1.379 . S
C4130 N4137 1.356 . S
C4131 C4130 1.363 . S
C4131 C4134 1.363 . S
N4132 C4134 1.356 . S
N4132 H4144 0.984 . S
N4132 H4145 0.985 . S
N4133 C4135 1.356 . S
N4133 H4138 0.984 . S
N4133 H4139 0.985 . S
C4134 C4128 1.379 . S
C4134 C4131 1.363 . S
C4134 N4132 1.356 . S
C4135 C4129 1.363 . S
C4135 C4130 1.379 . S
C4135 N4133 1.356 . S
N4136 C4128 1.356 . S
N4136 H4142 0.984 . S
N4136 H4143 0.984 . S
N4137 C4130 1.356 . S
N4137 H4140 0.984 . S
N4137 H4141 0.985 . S
H4138 N4133 0.984 . S
H4139 N4133 0.985 . S
H4140 N4137 0.984 . S
H4141 N4137 0.985 . S
H4142 N4136 0.984 . S
H4143 N4136 0.984 . S
H4144 N4132 0.984 . S
H4145 N4132 0.985 . S
C4146 C4147 1.363 . S
C4146 C4152 1.379 . S
C4146 N4154 1.356 . S
C4147 C4146 1.363 . S
C4147 C4153 1.363 . S
C4148 C4149 1.363 . S
C4148 C4153 1.379 . S
C4148 N4155 1.356 . S
C4149 C4148 1.363 . S
C4149 C4152 1.363 . S
N4150 C4152 1.356 . S
N4150 H4162 0.984 . S
N4150 H4163 0.985 . S
N4151 C4153 1.356 . S
N4151 H4156 0.984 . S
N4151 H4157 0.985 . S
C4152 C4146 1.379 . S
C4152 C4149 1.363 . S
C4152 N4150 1.356 . S
C4153 C4147 1.363 . S
C4153 C4148 1.379 . S
C4153 N4151 1.356 . S
N4154 C4146 1.356 . S
N4154 H4160 0.984 . S
N4154 H4161 0.984 . S
N4155 C4148 1.356 . S
N4155 H4158 0.984 . S
N4155 H4159 0.985 . S
H4156 N4151 0.984 . S
H4157 N4151 0.985 . S
H4158 N4155 0.984 . S
H4159 N4155 0.985 . S
H4160 N4154 0.984 . S
H4161 N4154 0.984 . S
H4162 N4150 0.984 . S
H4163 N4150 0.985 . S
C4164 C4165 1.363 . S
C4164 C4170 1.379 . S
C4164 N4172 1.356 . S
C4165 C4164 1.363 . S
C4165 C4171 1.363 . S
C4166 C4167 1.363 . S
C4166 C4171 1.379 . S
C4166 N4173 1.356 . S
C4167 C4166 1.363 . S
C4167 C4170 1.363 . S
N4168 C4170 1.356 . S
N4168 H4180 0.984 . S
N4168 H4181 0.985 . S
N4169 C4171 1.356 . S
N4169 H4174 0.984 . S
N4169 H4175 0.985 . S
C4170 C4164 1.379 . S
C4170 C4167 1.363 . S
C4170 N4168 1.356 . S
C4171 C4165 1.363 . S
C4171 C4166 1.379 . S
C4171 N4169 1.356 . S
N4172 C4164 1.356 . S
N4172 H4178 0.984 . S
N4172 H4179 0.984 . S
N4173 C4166 1.356 . S
N4173 H4176 0.984 . S
N4173 H4177 0.985 . S
H4174 N4169 0.984 . S
H4175 N4169 0.985 . S
H4176 N4173 0.984 . S
H4177 N4173 0.985 . S
H4178 N4172 0.984 . S
H4179 N4172 0.984 . S
H4180 N4168 0.984 . S
H4181 N4168 0.985 . S
C4182 C4183 1.363 . S
C4182 C4188 1.379 . S
C4182 N4190 1.356 . S
C4183 C4182 1.363 . S
C4183 C4189 1.363 . S
C4184 C4185 1.363 . S
C4184 C4189 1.379 . S
C4184 N4191 1.356 . S
C4185 C4184 1.363 . S
C4185 C4188 1.363 . S
N4186 C4188 1.356 . S
N4186 H4198 0.984 . S
N4186 H4199 0.985 . S
N4187 C4189 1.356 . S
N4187 H4192 0.984 . S
N4187 H4193 0.985 . S
C4188 C4182 1.379 . S
C4188 C4185 1.363 . S
C4188 N4186 1.356 . S
C4189 C4183 1.363 . S
C4189 C4184 1.379 . S
C4189 N4187 1.356 . S
N4190 C4182 1.356 . S
N4190 H4196 0.984 . S
N4190 H4197 0.984 . S
N4191 C4184 1.356 . S
N4191 H4194 0.984 . S
N4191 H4195 0.985 . S
H4192 N4187 0.984 . S
H4193 N4187 0.985 . S
H4194 N4191 0.984 . S
H4195 N4191 0.985 . S
H4196 N4190 0.984 . S
H4197 N4190 0.984 . S
H4198 N4186 0.984 . S
H4199 N4186 0.985 . S
C4200 C4201 1.363 . S
C4200 C4206 1.379 . S
C4200 N4208 1.356 . S
C4201 C4200 1.363 . S
C4201 C4207 1.363 . S
C4202 C4203 1.363 . S
C4202 C4207 1.379 . S
C4202 N4209 1.356 . S
C4203 C4202 1.363 . S
C4203 C4206 1.363 . S
N4204 C4206 1.356 . S
N4204 H4216 0.984 . S
N4204 H4217 0.985 . S
N4205 C4207 1.356 . S
N4205 H4210 0.984 . S
N4205 H4211 0.985 . S
C4206 C4200 1.379 . S
C4206 C4203 1.363 . S
C4206 N4204 1.356 . S
C4207 C4201 1.363 . S
C4207 C4202 1.379 . S
C4207 N4205 1.356 . S
N4208 C4200 1.356 . S
N4208 H4214 0.984 . S
N4208 H4215 0.984 . S
N4209 C4202 1.356 . S
N4209 H4212 0.984 . S
N4209 H4213 0.985 . S
H4210 N4205 0.984 . S
H4211 N4205 0.985 . S
H4212 N4209 0.984 . S
H4213 N4209 0.985 . S
H4214 N4208 0.984 . S
H4215 N4208 0.984 . S
H4216 N4204 0.984 . S
H4217 N4204 0.985 . S
C4218 C4219 1.363 . S
C4218 C4224 1.379 . S
C4218 N4226 1.356 . S
C4219 C4218 1.363 . S
C4219 C4225 1.363 . S
C4220 C4221 1.363 . S
C4220 C4225 1.379 . S
C4220 N4227 1.356 . S
C4221 C4220 1.363 . S
C4221 C4224 1.363 . S
N4222 C4224 1.356 . S
N4222 H4234 0.984 . S
N4222 H4235 0.985 . S
N4223 C4225 1.356 . S
N4223 H4228 0.984 . S
N4223 H4229 0.985 . S
C4224 C4218 1.379 . S
C4224 C4221 1.363 . S
C4224 N4222 1.356 . S
C4225 C4219 1.363 . S
C4225 C4220 1.379 . S
C4225 N4223 1.356 . S
N4226 C4218 1.356 . S
N4226 H4232 0.984 . S
N4226 H4233 0.984 . S
N4227 C4220 1.356 . S
N4227 H4230 0.984 . S
N4227 H4231 0.985 . S
H4228 N4223 0.984 . S
H4229 N4223 0.985 . S
H4230 N4227 0.984 . S
H4231 N4227 0.985 . S
H4232 N4226 0.984 . S
H4233 N4226 0.984 . S
H4234 N4222 0.984 . S
H4235 N4222 0.985 . S
C4236 C4237 1.363 . S
C4236 C4242 1.379 . S
C4236 N4244 1.356 . S
C4237 C4236 1.363 . S
C4237 C4243 1.363 . S
C4238 C4239 1.363 . S
C4238 C4243 1.379 . S
C4238 N4245 1.356 . S
C4239 C4238 1.363 . S
C4239 C4242 1.363 . S
N4240 C4242 1.356 . S
N4240 H4252 0.984 . S
N4240 H4253 0.985 . S
N4241 C4243 1.356 . S
N4241 H4246 0.984 . S
N4241 H4247 0.985 . S
C4242 C4236 1.379 . S
C4242 C4239 1.363 . S
C4242 N4240 1.356 . S
C4243 C4237 1.363 . S
C4243 C4238 1.379 . S
C4243 N4241 1.356 . S
N4244 C4236 1.356 . S
N4244 H4250 0.984 . S
N4244 H4251 0.984 . S
N4245 C4238 1.356 . S
N4245 H4248 0.984 . S
N4245 H4249 0.985 . S
H4246 N4241 0.984 . S
H4247 N4241 0.985 . S
H4248 N4245 0.984 . S
H4249 N4245 0.985 . S
H4250 N4244 0.984 . S
H4251 N4244 0.984 . S
H4252 N4240 0.984 . S
H4253 N4240 0.985 . S
C4254 C4255 1.363 . S
C4254 C4260 1.379 . S
C4254 N4262 1.356 . S
C4255 C4254 1.363 . S
C4255 C4261 1.363 . S
C4256 C4257 1.363 . S
C4256 C4261 1.379 . S
C4256 N4263 1.356 . S
C4257 C4256 1.363 . S
C4257 C4260 1.363 . S
N4258 C4260 1.356 . S
N4258 H4270 0.984 . S
N4258 H4271 0.985 . S
N4259 C4261 1.356 . S
N4259 H4264 0.984 . S
N4259 H4265 0.985 . S
C4260 C4254 1.379 . S
C4260 C4257 1.363 . S
C4260 N4258 1.356 . S
C4261 C4255 1.363 . S
C4261 C4256 1.379 . S
C4261 N4259 1.356 . S
N4262 C4254 1.356 . S
N4262 H4268 0.984 . S
N4262 H4269 0.984 . S
N4263 C4256 1.356 . S
N4263 H4266 0.984 . S
N4263 H4267 0.985 . S
H4264 N4259 0.984 . S
H4265 N4259 0.985 . S
H4266 N4263 0.984 . S
H4267 N4263 0.985 . S
H4268 N4262 0.984 . S
H4269 N4262 0.984 . S
H4270 N4258 0.984 . S
H4271 N4258 0.985 . S
C2545 C877 1.636 . S
C2547 C38 1.611 . S
C2563 C2520 1.644 . S
C2565 C91 1.623 . S
C2581 C144 1.611 . S
C2583 C2414 1.636 . S
C2599 C197 1.623 . S
C2601 C2467 1.644 . S
C2617 C930 1.636 . S
C2619 C250 1.611 . S
C2635 C303 1.623 . S
C2637 C983 1.644 . S
C2653 C356 1.611 . S
C2655 C1036 1.636 . S
C2671 C2361 1.644 . S
C2673 C409 1.623 . S
C2689 C462 1.611 . S
C2691 C29 1.636 . S
C2707 C82 1.644 . S
C2709 C515 1.623 . S
C2725 C135 1.636 . S
C2727 C568 1.611 . S
C2743 C188 1.644 . S
C2745 C621 1.623 . S
C2761 C241 1.636 . S
C2763 C674 1.611 . S
C2779 C727 1.623 . S
C2781 C294 1.644 . S
C2797 C347 1.636 . S
C2799 C780 1.611 . S
C2815 C833 1.623 . S
C2817 C400 1.644 . S
C2833 C886 1.611 . S
C2835 C453 1.636 . S
C2851 C665 1.636 . S
C2853 C939 1.611 . S
C2869 C992 1.623 . S
C2871 C718 1.644 . S
C2887 C1045 1.611 . S
C2889 C771 1.636 . S
C2905 C2096 1.644 . S
C2907 C1098 1.623 . S
C2923 C1151 1.611 . S
C2925 C1831 1.636 . S
C2941 C1884 1.644 . S
C2943 C1204 1.623 . S
C2959 C1778 1.644 . S
C2961 C1257 1.623 . S
C2977 C2149 1.636 . S
C2979 C1310 1.611 . S
C2995 C1363 1.623 . S
C2997 C1248 1.644 . S
C3013 C1416 1.611 . S
C3015 C1142 1.636 . S
C3031 C1469 1.623 . S
C3033 C1195 1.644 . S
C3049 C1522 1.611 . S
C3051 C2202 1.636 . S
C3067 C2255 1.644 . S
C3069 C1575 1.623 . S
C3085 C1628 1.611 . S
C3087 C2308 1.636 . S
C3103 C1089 1.644 . S
C3105 C1681 1.623 . S
C3121 C1301 1.636 . S
C3123 C1734 1.611 . S
C3139 C1787 1.623 . S
C3141 C1354 1.644 . S
C3157 C1840 1.611 . S
C3159 C1407 1.636 . S
C3175 C1893 1.623 . S
C3177 C1460 1.644 . S
C3193 C1946 1.611 . S
C3195 C1513 1.636 . S
C3211 C1999 1.623 . S
C3213 C1566 1.644 . S
C3229 C1619 1.636 . S
C3231 C2052 1.611 . S
C3247 C1672 1.644 . S
C3249 C2105 1.623 . S
C3265 C1725 1.636 . S
C3267 C2158 1.611 . S
C3283 C1937 1.636 . S
C3285 C2211 1.611 . S
C3301 C1990 1.644 . S
C3303 C2264 1.623 . S
C3319 C2317 1.611 . S
C3321 C2043 1.636 . S
C3337 C2370 1.623 . S
C3339 C824 1.644 . S
C3355 C2423 1.611 . S
C3357 C559 1.636 . S
C3373 C612 1.644 . S
C3375 C2476 1.623 . S
C3391 C2529 1.623 . S
C3393 C506 1.644 . S
C3409 C22 1.686 . S
C3411 C1470 1.670 . S
C3427 C1311 1.677 . S
C3429 C75 1.683 . S
C3445 C128 1.686 . S
C3447 C1364 1.670 . S
C3463 C181 1.683 . S
C3465 C1417 1.677 . S
C3481 C234 1.686 . S
C3483 C304 1.670 . S
C3499 C357 1.677 . S
C3501 C287 1.684 . S
C3517 C340 1.686 . S
C3519 C410 1.670 . S
C3535 C393 1.684 . S
C3537 C251 1.677 . S
C3553 C446 1.686 . S
C3555 C2265 1.670 . S
C3571 C499 1.684 . S
C3573 C2318 1.677 . S
C3589 C552 1.686 . S
C3591 C1099 1.670 . S
C3607 C605 1.684 . S
C3609 C2212 1.677 . S
C3625 C658 1.686 . S
C3627 C2477 1.670 . S
C3643 C887 1.677 . S
C3645 C711 1.684 . S
C3661 C764 1.686 . S
C3663 C2530 1.670 . S
C3679 C2424 1.677 . S
C3681 C817 1.684 . S
C3697 C516 1.670 . S
C3699 C870 1.686 . S
C3715 C923 1.686 . S
C3717 C2106 1.670 . S
C3733 C976 1.683 . S
C3735 C1947 1.677 . S
C3751 C2000 1.670 . S
C3753 C1029 1.686 . S
C3769 C1082 1.683 . S
C3771 C781 1.677 . S
C3787 C1894 1.670 . S
C3789 C1135 1.686 . S
C3805 C1735 1.677 . S
C3807 C1188 1.683 . S
C3823 C1841 1.677 . S
C3825 C1241 1.684 . S
C3841 C1294 1.686 . S
C3843 C198 1.670 . S
C3859 C1347 1.684 . S
C3861 C39 1.677 . S
C3877 C92 1.670 . S
C3879 C1400 1.686 . S
C3895 C1453 1.684 . S
C3897 C145 1.677 . S
C3913 C1506 1.686 . S
C3915 C1576 1.670 . S
C3931 C1629 1.677 . S
C3933 C1559 1.683 . S
C3949 C1682 1.670 . S
C3951 C1612 1.686 . S
C3967 C1665 1.683 . S
C3969 C1523 1.677 . S
C3985 C993 1.670 . S
C3987 C1718 1.686 . S
C4003 C1771 1.683 . S
C4005 C1046 1.677 . S
C4021 C1824 1.686 . S
C4023 C2371 1.670 . S
C4039 C1877 1.683 . S
C4041 C940 1.677 . S
C4057 C1930 1.686 . S
C4059 C1205 1.670 . S
C4075 C1983 1.683 . S
C4077 C2159 1.677 . S
C4093 C1258 1.670 . S
C4095 C2036 1.686 . S
C4111 C2089 1.683 . S
C4113 C1152 1.677 . S
C4129 C1788 1.670 . S
C4131 C2142 1.686 . S
C4147 C834 1.670 . S
C4149 C2195 1.686 . S
C4165 C675 1.677 . S
C4167 C2248 1.684 . S
C4183 C2301 1.686 . S
C4185 C728 1.670 . S
C4201 C2354 1.684 . S
C4203 C2053 1.677 . S
C4219 C622 1.670 . S
C4221 C2407 1.686 . S
C4237 C2460 1.684 . S
C4239 C463 1.677 . S
C4255 C569 1.677 . S
C4257 C2513 1.683 . S
