# Generated by pormake.
# Topology xfu, (5)-cn, num edge types: 1
# Building blocks:
#     Node 0, Type 0, BuildingBlock: XOMCOT_clean_sbu_1, # of connection points: 5
#     Node 1, Type 0, BuildingBlock: XOMCOT_clean_sbu_1, # of connection points: 5
#     Node 2, Type 0, BuildingBlock: XOMCOT_clean_sbu_1, # of connection points: 5
#     Node 3, Type 0, BuildingBlock: XOMCOT_clean_sbu_1, # of connection points: 5
#     Node 4, Type 0, BuildingBlock: XOMCOT_clean_sbu_1, # of connection points: 5
#     Node 5, Type 0, BuildingBlock: XOMCOT_clean_sbu_1, # of connection points: 5
#     Node 6, Type 0, BuildingBlock: XOMCOT_clean_sbu_1, # of connection points: 5
#     Node 7, Type 0, BuildingBlock: XOMCOT_clean_sbu_1, # of connection points: 5
#     Edge 8, Type (0, 0), BuildingBlock: KIFKEQ_clean_linker_1, # of connection points: 2
#     Edge 9, Type (0, 0), BuildingBlock: KIFKEQ_clean_linker_1, # of connection points: 2
#     Edge 10, Type (0, 0), BuildingBlock: KIFKEQ_clean_linker_1, # of connection points: 2
#     Edge 11, Type (0, 0), BuildingBlock: KIFKEQ_clean_linker_1, # of connection points: 2
#     Edge 12, Type (0, 0), BuildingBlock: KIFKEQ_clean_linker_1, # of connection points: 2
#     Edge 13, Type (0, 0), BuildingBlock: KIFKEQ_clean_linker_1, # of connection points: 2
#     Edge 14, Type (0, 0), BuildingBlock: KIFKEQ_clean_linker_1, # of connection points: 2
#     Edge 15, Type (0, 0), BuildingBlock: KIFKEQ_clean_linker_1, # of connection points: 2
#     Edge 16, Type (0, 0), BuildingBlock: KIFKEQ_clean_linker_1, # of connection points: 2
#     Edge 17, Type (0, 0), BuildingBlock: KIFKEQ_clean_linker_1, # of connection points: 2
#     Edge 18, Type (0, 0), BuildingBlock: KIFKEQ_clean_linker_1, # of connection points: 2
#     Edge 19, Type (0, 0), BuildingBlock: KIFKEQ_clean_linker_1, # of connection points: 2
#     Edge 20, Type (0, 0), BuildingBlock: KIFKEQ_clean_linker_1, # of connection points: 2
#     Edge 21, Type (0, 0), BuildingBlock: KIFKEQ_clean_linker_1, # of connection points: 2
#     Edge 22, Type (0, 0), BuildingBlock: KIFKEQ_clean_linker_1, # of connection points: 2
#     Edge 23, Type (0, 0), BuildingBlock: KIFKEQ_clean_linker_1, # of connection points: 2
#     Edge 24, Type (0, 0), BuildingBlock: KIFKEQ_clean_linker_1, # of connection points: 2
#     Edge 25, Type (0, 0), BuildingBlock: KIFKEQ_clean_linker_1, # of connection points: 2
#     Edge 26, Type (0, 0), BuildingBlock: KIFKEQ_clean_linker_1, # of connection points: 2
#     Edge 27, Type (0, 0), BuildingBlock: KIFKEQ_clean_linker_1, # of connection points: 2
# Relax obj value: 0.496
# Max RMSD: 0.274
# Mean RMSD: 0.274
data_MOF--net-xfu--node1-XOMCOT_clean_sbu_1--edge1-KIFKEQ_clean_linker_1
_symmetry_space_group_name_H-M    P1
_symmetry_Int_Tables_number       1
_symmetry_cell_setting            triclinic
loop_
_symmetry_equiv_pos_as_xyz
'x, y, z'
_cell_length_a     27.832666
_cell_length_b     27.792392
_cell_length_c     56.107214
_cell_angle_alpha  90.183321
_cell_angle_beta   89.780352
_cell_angle_gamma 89.73308
loop_
_atom_site_label
_atom_site_type_symbol
_atom_site_fract_x
_atom_site_fract_y
_atom_site_fract_z
_atom_type_partial_charge
C0 C 1.0162 0.34965 0.59957 0.0
C1 C 1.02861 0.38642 0.61485 0.0
N2 N 0.073 0.37727 0.62318 0.0
N3 N 0.05278 0.3177 0.5983 0.0
C4 C 0.08717 0.33619 0.61244 0.0
H5 H 0.98143 0.3449 0.59142 0.0
Co6 Co 0.05279 0.25618 0.58504 0.0
C7 C 0.13339 0.30176 0.5578 0.0
O8 O 0.10593 0.33757 0.55082 0.0
N9 N 0.05304 0.19519 0.57178 0.0
C10 C 0.03727 0.11868 0.56395 0.0
C11 C 0.03783 0.15356 0.58143 0.0
C12 C 0.06183 0.18498 0.54874 0.0
N13 N 0.05191 0.13882 0.54335 0.0
O14 O 1.01671 0.27977 0.55805 0.0
H15 H 1.02549 0.14957 0.59961 0.0
H16 H 0.07319 0.21171 0.53595 0.0
O17 O 0.11547 0.26835 0.57055 0.0
C18 C 0.97402 0.26451 0.56174 0.0
O19 O 0.96575 0.23983 0.58128 0.0
N20 N 0.08195 0.23174 0.61234 0.0
C21 C 0.11559 0.19616 0.6555 0.0
C22 C 0.14347 0.19195 0.63466 0.0
C23 C 0.1257 0.20958 0.61313 0.0
C24 C 0.0538 0.23485 0.63219 0.0
C25 C 0.07007 0.21772 0.65401 0.0
H26 H 0.14654 0.2045 0.5971 0.0
H27 H 1.01842 0.25096 0.63102 0.0
H28 H 0.12062 0.31785 0.61633 0.0
H29 H 1.00517 0.41504 0.62108 0.0
H30 H 1.02425 0.08228 0.56594 0.0
H31 H 0.17868 0.17523 0.63495 0.0
H32 H 0.04677 0.22054 0.66946 0.0
C33 C 0.77707 0.49979 0.1045 0.0
C34 C 0.73858 0.51272 0.11876 0.0
N35 N 0.74591 0.55786 0.12665 0.0
N36 N 0.80819 0.53682 0.10352 0.0
C37 C 0.78759 0.57186 0.11674 0.0
H38 H 0.78359 0.4645 0.09698 0.0
Co39 Co 0.87105 0.53764 0.09224 0.0
C40 C 0.82773 0.61863 0.06433 0.0
O41 O 0.79341 0.59089 0.05614 0.0
N42 N 0.93355 0.53901 0.08106 0.0
C43 C 1.01202 0.52905 0.07605 0.0
C44 C 0.97431 0.52452 0.09185 0.0
C45 C 0.94698 0.55209 0.05901 0.0
N46 N 0.99454 0.54643 0.05541 0.0
O47 O 0.85177 0.50243 0.0641 0.0
H48 H 0.97626 0.51053 0.10978 0.0
H49 H 0.92173 0.56336 0.04548 0.0
O50 O 0.8597 0.60085 0.07801 0.0
C51 C 0.86704 0.45959 0.06774 0.0
O52 O 0.88933 0.45069 0.08788 0.0
N53 N 0.89127 0.56584 0.12063 0.0
C54 C 0.92305 0.59575 0.16512 0.0
C55 C 0.92585 0.62664 0.14544 0.0
C56 C 0.91031 0.61069 0.12315 0.0
C57 C 0.88864 0.53529 0.13952 0.0
C58 C 0.90423 0.54955 0.16198 0.0
H59 H 0.91467 0.63382 0.10795 0.0
H60 H 0.87451 0.49945 0.137 0.0
H61 H 0.80489 0.60573 0.12077 0.0
H62 H 0.71004 0.48925 0.12472 0.0
H63 H 0.04914 0.51961 0.07941 0.0
H64 H 0.9412 0.66223 0.14713 0.0
H65 H 0.90151 0.52472 0.17677 0.0
C66 C 0.623 0.28322 0.60176 0.0
C67 C 0.61421 0.24625 0.61752 0.0
N68 N 0.56729 0.24754 0.62339 0.0
N69 N 0.58165 0.30736 0.59784 0.0
C70 C 0.54832 0.28396 0.61077 0.0
H71 H 0.65795 0.29439 0.59545 0.0
Co72 Co 0.57316 0.36777 0.58454 0.0
C73 C 0.49547 0.33116 0.55062 0.0
O74 O 0.52241 0.32672 0.53147 0.0
N75 N 0.56446 0.42838 0.57148 0.0
C76 C 0.56349 0.50746 0.56617 0.0
C77 C 0.56987 0.47125 0.58249 0.0
C78 C 0.55526 0.43926 0.5486 0.0
N79 N 0.55432 0.48708 0.54487 0.0
O80 O 0.61286 0.34892 0.55776 0.0
H81 H 0.57904 0.47592 0.60105 0.0
H82 H 0.55196 0.41264 0.53467 0.0
O83 O 0.51369 0.34572 0.57015 0.0
C84 C 0.65333 0.36966 0.56075 0.0
O85 O 0.65814 0.39815 0.57934 0.0
N86 N 0.53947 0.38776 0.61163 0.0
C87 C 0.49994 0.42139 0.65422 0.0
C88 C 0.47121 0.41566 0.63386 0.0
C89 C 0.49183 0.39946 0.61259 0.0
C90 C 0.5679 0.39284 0.63115 0.0
C91 C 0.54894 0.40965 0.65262 0.0
H92 H 0.46956 0.39716 0.59692 0.0
H93 H 0.60582 0.38447 0.62983 0.0
H94 H 0.51172 0.29658 0.61297 0.0
H95 H 0.64103 0.22379 0.62598 0.0
H96 H 0.56607 0.54569 0.56964 0.0
H97 H 0.43316 0.42385 0.63425 0.0
H98 H 0.57287 0.41455 0.66758 0.0
C99 C 0.85406 0.1125 0.09963 0.0
C100 C 0.89338 0.1037 0.11384 0.0
N101 N 0.89173 0.05748 0.12107 0.0
N102 N 0.82785 0.072 0.09795 0.0
C103 C 0.85211 0.03909 0.11081 0.0
H104 H 0.84381 0.14695 0.09229 0.0
Co105 Co 0.76659 0.06435 0.08563 0.0
C106 C 0.79896 0.98157 0.05336 0.0
O107 O 0.80296 1.00667 0.03367 0.0
N108 N 0.70498 0.05652 0.07341 0.0
C109 C 0.62615 0.06267 0.06811 0.0
C110 C 0.6626 0.06433 0.08458 0.0
C111 C 0.69346 0.04997 0.05036 0.0
N112 N 0.64585 0.05419 0.04654 0.0
O113 O 0.78542 0.10022 0.05766 0.0
H114 H 0.65861 0.07358 0.10322 0.0
H115 H 0.71986 0.04496 0.03644 0.0
O116 O 0.78597 1.00208 0.07271 0.0
C117 C 0.76565 0.14163 0.06001 0.0
O118 O 0.73789 0.14908 0.07869 0.0
N119 N 0.74714 0.0354 0.11384 0.0
C120 C 0.7164 1.00505 0.15834 0.0
C121 C 0.72054 0.97212 0.13944 0.0
C122 C 0.73538 0.98823 0.11706 0.0
C123 C 0.74333 0.06773 0.13204 0.0
C124 C 0.72784 0.05334 0.15449 0.0
H125 H 0.73671 0.96298 0.1024 0.0
H126 H 0.75206 0.10508 0.12894 0.0
H127 H 0.83844 1.00346 0.11435 0.0
H128 H 0.91956 0.13005 0.11942 0.0
H129 H 0.58859 0.07037 0.07153 0.0
H130 H 0.71115 0.93465 0.14183 0.0
H131 H 0.72493 0.07965 0.16872 0.0
C132 C 0.11528 0.77371 0.33442 0.0
C133 C 0.10742 0.73239 0.3214 0.0
N134 N 0.06153 0.7329 0.31373 0.0
N135 N 0.07451 0.80004 0.33493 0.0
C136 C 0.04242 0.77397 0.32253 0.0
H137 H 0.1492 0.78491 0.34188 0.0
Co138 Co 0.06524 0.86245 0.34591 0.0
C139 C 0.98408 0.83123 0.37855 0.0
O140 O 1.0107 0.82751 0.39773 0.0
N141 N 0.05551 0.92504 0.35687 0.0
C142 C 0.05618 1.0046 0.36068 0.0
C143 C 0.06233 0.96674 0.34508 0.0
C144 C 0.04536 0.93832 0.37942 0.0
N145 N 0.04557 0.98642 0.38229 0.0
O146 O 0.1005 0.8468 0.37449 0.0
H147 H 0.07294 0.96946 0.32658 0.0
H148 H 0.04129 0.91311 0.39387 0.0
O149 O 1.00296 0.8437 0.35878 0.0
C150 C 0.1414 0.86713 0.37217 0.0
O151 O 0.14887 0.89346 0.35309 0.0
N152 N 0.03699 0.879 0.31707 0.0
C153 C 1.00924 0.9108 0.27228 0.0
C154 C 0.97566 0.90836 0.291 0.0
C155 C 0.99042 0.89267 0.31348 0.0
C156 C 0.06974 0.88041 0.29902 0.0
C157 C 0.05662 0.89604 0.27644 0.0
H158 H 0.96491 0.89304 0.32804 0.0
H159 H 0.10665 0.87022 0.3024 0.0
H160 H 1.00676 0.78702 0.31838 0.0
H161 H 0.13414 0.70535 0.317 0.0
H162 H 0.06055 0.04236 0.3566 0.0
H163 H 0.93889 0.92016 0.28851 0.0
H164 H 0.08348 0.89704 0.26243 0.0
C165 C 0.33581 0.62278 0.82781 0.0
C166 C 0.37077 0.61197 0.81111 0.0
N167 N 0.36361 0.56659 0.80354 0.0
N168 N 0.30726 0.58412 0.83075 0.0
C169 C 0.32553 0.55045 0.81589 0.0
H170 H 0.32975 0.65751 0.83602 0.0
Co171 Co 0.24932 0.58041 0.8472 0.0
C172 C 0.30732 0.49995 0.86819 0.0
O173 O 0.34698 0.52541 0.86824 0.0
N174 N 0.19152 0.57675 0.86324 0.0
C175 C 0.11535 0.58657 0.87377 0.0
C176 C 0.14788 0.59048 0.8554 0.0
C177 C 0.18489 0.56449 0.88618 0.0
N178 N 0.13884 0.57046 0.89318 0.0
O179 O 0.27654 0.61706 0.87314 0.0
H180 H 0.14064 0.60435 0.83779 0.0
H181 H 0.2138 0.55275 0.89764 0.0
O182 O 0.26812 0.5189 0.86108 0.0
C183 C 0.25763 0.65901 0.8743 0.0
O184 O 0.22325 0.67011 0.85929 0.0
N185 N 0.22177 0.54943 0.8212 0.0
C186 C 0.18788 0.51307 0.77821 0.0
C187 C 0.1934 0.48291 0.79809 0.0
C188 C 0.20987 0.50195 0.81961 0.0
C189 C 0.2148 0.5796 0.80247 0.0
C190 C 0.19786 0.56223 0.78081 0.0
H191 H 0.21392 0.47826 0.83469 0.0
H192 H 0.22348 0.61733 0.80431 0.0
H193 H 0.3096 0.51544 0.81314 0.0
H194 H 0.39685 0.63664 0.80375 0.0
H195 H 0.0779 0.59709 0.87314 0.0
H196 H 0.18622 0.44472 0.79696 0.0
H197 H 0.19279 0.5872 0.76625 0.0
C198 C 0.50879 0.85657 0.33033 0.0
C199 C 0.5248 0.89302 0.31572 0.0
N200 N 0.57049 0.883 0.3094 0.0
N201 N 0.54445 0.82406 0.33312 0.0
C202 C 0.58173 0.8418 0.32061 0.0
H203 H 0.4725 0.85231 0.33688 0.0
Co204 Co 0.54174 0.76243 0.3457 0.0
C205 C 0.62174 0.80613 0.37393 0.0
O206 O 0.59492 0.84318 0.3801 0.0
N207 N 0.53935 0.70112 0.35814 0.0
C208 C 0.5231 0.62423 0.36459 0.0
C209 C 0.52387 0.66021 0.34778 0.0
C210 C 0.54783 0.6895 0.38096 0.0
N211 N 0.53779 0.64308 0.38547 0.0
O212 O 0.50449 0.78599 0.37249 0.0
H213 H 0.5121 0.65727 0.32948 0.0
H214 H 0.55973 0.71522 0.39417 0.0
O215 O 0.60366 0.77254 0.3613 0.0
C216 C 0.46172 0.77225 0.36785 0.0
O217 O 0.45417 0.74977 0.34756 0.0
N218 N 0.57222 0.73805 0.31859 0.0
C219 C 0.6068 0.69988 0.27587 0.0
C220 C 0.63473 0.69818 0.29668 0.0
C221 C 0.61641 0.71676 0.31799 0.0
C222 C 0.54443 0.73987 0.2987 0.0
C223 C 0.56099 0.72106 0.27713 0.0
H224 H 0.63731 0.71308 0.33397 0.0
H225 H 0.50886 0.7556 0.29973 0.0
H226 H 0.61541 0.82278 0.31814 0.0
H227 H 0.50321 0.92197 0.3085 0.0
H228 H 0.51048 0.58783 0.36195 0.0
H229 H 0.67039 0.68247 0.29662 0.0
H230 H 0.53757 0.72218 0.26179 0.0
C231 C 0.28435 1.00806 0.83076 0.0
C232 C 0.24622 1.01512 0.81561 0.0
N233 N 0.24865 0.06028 0.80698 0.0
N234 N 0.31052 0.04867 0.83184 0.0
C235 C 0.28768 0.07983 0.81732 0.0
H236 H 0.29386 0.97456 0.83926 0.0
Co237 Co 0.37045 0.05613 0.84594 0.0
C238 C 0.31213 0.13581 0.86821 0.0
O239 O 0.27267 0.11011 0.86898 0.0
N240 N 0.43055 0.06334 0.85965 0.0
C241 C 0.50907 0.06048 0.86593 0.0
C242 C 0.4737 0.05692 0.84906 0.0
C243 C 0.44046 0.07089 0.88284 0.0
N244 N 0.48804 0.06876 0.88725 0.0
O245 O 0.34884 1.019 0.87303 0.0
H246 H 0.47916 0.04831 0.83045 0.0
H247 H 0.41295 0.07483 0.8964 0.0
O248 O 0.35103 0.11711 0.86036 0.0
C249 C 0.37016 0.9782 0.87402 0.0
O250 O 0.40418 0.96857 0.8584 0.0
N251 N 0.39244 0.08746 0.81878 0.0
C252 C 0.4286 0.12171 0.77576 0.0
C253 C 0.42068 0.15309 0.79512 0.0
C254 C 0.4031 0.13513 0.81665 0.0
C255 C 0.39962 0.05653 0.80024 0.0
C256 C 0.41786 0.07279 0.77862 0.0
H257 H 0.39854 0.15953 0.83151 0.0
H258 H 0.39181 1.01872 0.80251 0.0
H259 H 0.3015 0.11512 0.81315 0.0
H260 H 0.22015 0.98824 0.81055 0.0
H261 H 0.54719 0.05594 0.86277 0.0
H262 H 0.42792 0.19121 0.79372 0.0
H263 H 0.42442 0.04691 0.76451 0.0
H264 H 0.99537 0.95902 0.42118 0.0
H265 H 0.08832 0.07049 0.39415 0.0
H266 H 0.99635 0.99672 0.46045 0.0
H267 H 0.08897 0.10841 0.43339 0.0
H268 H 0.03816 0.18532 0.50152 0.0
H269 H 0.03448 0.14978 0.46197 0.0
H270 H 0.05739 1.00885 0.49223 0.0
H271 H 0.06163 0.04456 0.53199 0.0
C272 C 1.01594 0.99161 0.42363 0.0
C273 C 0.04206 1.01161 0.40463 0.0
C274 C 1.01656 1.01309 0.4461 0.0
C275 C 0.04313 0.05515 0.44999 0.0
C276 C 0.06791 0.07614 0.43082 0.0
C277 C 0.06738 0.05456 0.40834 0.0
C278 C 0.04322 0.14686 0.49979 0.0
C279 C 0.05062 0.11775 0.51992 0.0
C280 C 0.04087 0.12653 0.4771 0.0
C281 C 0.04561 0.07664 0.47406 0.0
C282 C 0.05296 0.04742 0.49413 0.0
C283 C 0.05547 0.06781 0.51686 0.0
H284 H 0.0754 0.50041 0.04038 0.0
H285 H 0.97022 0.6074 0.01999 0.0
H286 H 0.11259 0.50618 0.001 0.0
H287 H 1.0067 0.61218 -0.0194 0.0
H288 H 0.18863 0.57333 0.93476 0.0
H289 H 0.15588 0.56799 -0.0251 0.0
H290 H 1.01321 0.55273 0.94602 0.0
H291 H 0.04586 0.55673 0.90574 0.0
C292 C 0.06063 0.52559 0.02767 0.0
C293 C 1.01951 0.55302 0.0332 0.0
C294 C 0.08178 0.52871 0.00512 0.0
C295 C 0.06196 0.55909 -0.01223 0.0
C296 C 1.02198 0.58774 -0.00644 0.0
C297 C 1.00112 0.58492 0.01609 0.0
C298 C 0.1504 0.56797 0.93683 0.0
C299 C 0.11985 0.5655 0.91693 0.0
C300 C 0.13171 0.56515 0.95987 0.0
C301 C 0.08212 0.5603 0.96345 0.0
C302 C 0.05158 0.55723 0.94366 0.0
C303 C 0.07028 0.5596 0.92062 0.0
H304 H 0.50466 0.4547 0.50681 0.0
H305 H 0.59206 0.57253 0.53175 0.0
H306 H 0.4993 0.49231 0.4677 0.0
H307 H 0.58646 0.61023 0.49273 0.0
H308 H 0.52301 0.68589 0.42819 0.0
H309 H 0.52516 0.64805 0.46713 0.0
H310 H 0.55429 0.51053 0.43384 0.0
H311 H 0.55239 0.54868 0.39464 0.0
C312 C 0.52283 0.48854 0.50391 0.0
C313 C 0.5489 0.51064 0.52231 0.0
C314 C 0.51978 0.50999 0.48155 0.0
C315 C 0.5426 0.55403 0.47722 0.0
C316 C 0.56804 0.57651 0.4957 0.0
C317 C 0.57113 0.55503 0.51805 0.0
C318 C 0.53046 0.64771 0.42914 0.0
C319 C 0.53814 0.62028 0.40838 0.0
C320 C 0.53152 0.62605 0.45145 0.0
C321 C 0.54016 0.57649 0.45347 0.0
C322 C 0.54709 0.5488 0.43273 0.0
C323 C 0.54606 0.57054 0.41035 0.0
H324 H 0.57331 1.02754 0.89869 0.0
H325 H 0.45417 0.10879 0.92824 0.0
H326 H 0.61045 1.0247 0.93771 0.0
H327 H 0.49128 0.10491 -0.03245 0.0
H328 H 0.55239 0.0352 0.03701 0.0
H329 H 0.51273 0.04054 -0.00175 0.0
H330 H 0.64653 0.08442 0.96596 0.0
H331 H 0.68576 0.08014 0.00438 0.0
C332 C 0.55524 0.04534 0.91339 0.0
C333 C 0.51079 0.06864 0.91024 0.0
C334 C 0.57647 0.04344 0.93579 0.0
C335 C 0.55366 0.06456 0.95558 0.0
C336 C 0.50927 0.08785 0.95258 0.0
C337 C 0.48811 0.09006 0.93008 0.0
C338 C 0.57318 0.04625 0.02166 0.0
C339 C 0.62236 0.0566 0.02378 0.0
C340 C 0.5505 0.04935 -0.00047 0.0
C341 C 0.57675 0.0626 -0.02082 0.0
C342 C 0.62571 0.07331 -0.01867 0.0
C343 C 0.64823 0.07052 0.00337 0.0
H344 H 0.19941 1.01175 0.7728 0.0
H345 H 0.23729 0.15484 0.79636 0.0
H346 H 0.1631 0.04531 0.73726 0.0
H347 H 0.20342 0.18813 0.76007 0.0
H348 H 0.10585 0.23657 0.69982 0.0
H349 H 0.13163 0.20336 0.73785 0.0
H350 H 0.19263 0.08036 0.70114 0.0
H351 H 0.16454 0.11221 0.66334 0.0
C352 C 0.19961 0.05038 0.77061 0.0
C353 C 0.22194 0.08047 0.7874 0.0
C354 C 0.17936 0.0696 0.74999 0.0
C355 C 0.18113 0.11931 0.74559 0.0
C356 C 0.20134 0.14966 0.7629 0.0
C357 C 0.2213 0.13048 0.78361 0.0
C358 C 0.12426 0.20214 0.69992 0.0
C359 C 0.13303 0.17695 0.67855 0.0
C360 C 0.13947 0.18336 0.7217 0.0
C361 C 0.16398 0.13908 0.72257 0.0
C362 C 0.17308 0.11414 0.70117 0.0
C363 C 0.15768 0.13279 0.67942 0.0
H364 H 0.96646 0.71938 0.30586 0.0
H365 H 0.10764 0.67838 0.28031 0.0
H366 H 0.93052 0.68161 0.271 0.0
H367 H 0.07138 0.63951 0.24592 0.0
H368 H 0.9828 0.54619 0.19466 0.0
H369 H 1.01431 0.57234 0.23323 0.0
H370 H 0.93539 0.70586 0.22707 0.0
H371 H 0.9038 0.67966 0.18857 0.0
C372 C 0.98984 0.70194 0.29299 0.0
C373 C 0.04008 0.70285 0.29571 0.0
C374 C 0.96919 0.68025 0.27308 0.0
C375 C 0.99827 0.65829 0.25567 0.0
C376 C 0.04815 0.6561 0.25915 0.0
C377 C 0.0689 0.67829 0.27895 0.0
C378 C 0.97189 0.58091 0.20171 0.0
C379 C 0.941 0.61103 0.1887 0.0
C380 C 0.99006 0.59589 0.22366 0.0
C381 C 0.9771 0.64096 0.23311 0.0
C382 C 0.94549 0.67068 0.22029 0.0
C383 C 0.92783 0.65597 0.1982 0.0
H384 H 0.45734 0.56326 0.79119 0.0
H385 H 0.31557 0.52024 0.76902 0.0
H386 H 0.49161 0.52578 0.75506 0.0
H387 H 0.34941 0.48376 0.73297 0.0
H388 H 0.43029 0.49078 0.65932 0.0
H389 H 0.39756 0.52409 0.69619 0.0
H390 H 0.49226 0.43322 0.73704 0.0
H391 H 0.52345 0.39747 0.70024 0.0
C392 C 0.43377 0.54572 0.77859 0.0
C393 C 0.38412 0.54415 0.78282 0.0
C394 C 0.45319 0.52424 0.75811 0.0
C395 C 0.42295 0.50205 0.74142 0.0
C396 C 0.37331 0.50074 0.74563 0.0
C397 C 0.35409 0.52126 0.76626 0.0
C398 C 0.44359 0.47702 0.67609 0.0
C399 C 0.47949 0.44124 0.67672 0.0
C400 C 0.4251 0.49648 0.69716 0.0
C401 C 0.44272 0.48125 0.71927 0.0
C402 C 0.47863 0.4458 0.72009 0.0
C403 C 0.49653 0.42559 0.69901 0.0
H404 H 0.61727 0.83314 0.27532 0.0
H405 H 0.58006 0.97688 0.29822 0.0
H406 H 0.65571 0.86489 0.23996 0.0
H407 H 0.62069 1.00965 0.26304 0.0
H408 H 0.64181 0.04288 0.18348 0.0
H409 H 0.60987 1.01547 0.22156 0.0
H410 H 0.72142 0.90664 0.22466 0.0
H411 H 0.75147 0.93283 0.18591 0.0
C412 C 0.61852 0.87179 0.27303 0.0
C413 C 0.59615 0.90275 0.28953 0.0
C414 C 0.64071 0.89009 0.25276 0.0
C415 C 0.64164 0.93992 0.24863 0.0
C416 C 0.62007 0.97103 0.26547 0.0
C417 C 0.59709 0.95251 0.28565 0.0
C418 C 0.65943 1.01322 0.19245 0.0
C419 C 0.69869 0.98957 0.18184 0.0
C420 C 0.64147 0.99773 0.21435 0.0
C421 C 0.66294 0.95872 0.22622 0.0
C422 C 0.7033 0.93611 0.2158 0.0
C423 C 0.72068 0.95109 0.19369 0.0
H424 H 0.05864 0.97622 0.2459 0.0
H425 H 0.9296 0.89046 0.24581 0.0
H426 H 0.03679 1.00973 0.20724 0.0
H427 H 0.90735 0.9246 0.20723 0.0
H428 H 0.90478 0.96202 0.12857 0.0
H429 H 0.93669 0.92458 0.16446 0.0
H430 H 0.97154 0.06476 0.19268 0.0
H431 H 0.93875 0.10237 0.15717 0.0
C432 C 1.02578 0.9643 0.2375 0.0
C433 C 0.9958 0.93068 0.24879 0.0
C434 C 1.01317 0.98371 0.21549 0.0
C435 C 0.97052 0.96962 0.20424 0.0
C436 C 0.94076 0.93563 0.2154 0.0
C437 C 0.95317 0.91651 0.23754 0.0
C438 C 0.91944 0.98489 0.14236 0.0
C439 C 0.91845 0.03529 0.14009 0.0
C440 C 0.93767 0.9634 0.16289 0.0
C441 C 0.95593 0.99183 0.18144 0.0
C442 C 0.95782 0.04197 0.17859 0.0
C443 C 0.93918 0.06351 0.15815 0.0
H444 H 0.21815 0.54019 0.73367 0.0
H445 H 0.12257 0.44149 0.76961 0.0
H446 H 0.19154 0.50901 0.69524 0.0
H447 H 0.09809 0.409 0.73113 0.0
H448 H 0.11508 0.3293 0.6592 0.0
H449 H 0.14454 0.36324 0.6965 0.0
H450 H 0.10684 0.50577 0.67233 0.0
H451 H 0.0767 0.47147 0.63481 0.0
C452 C 0.19127 0.51216 0.73344 0.0
C453 C 0.17233 0.49354 0.75481 0.0
C454 C 0.17633 0.49422 0.71142 0.0
C455 C 0.14294 0.45672 0.71036 0.0
C456 C 0.12428 0.43771 0.73159 0.0
C457 C 0.13854 0.45616 0.75359 0.0
C458 C 0.11387 0.36795 0.66166 0.0
C459 C 0.09404 0.398 0.64411 0.0
C460 C 0.13024 0.38723 0.68306 0.0
C461 C 0.12772 0.43695 0.68719 0.0
C462 C 0.10925 0.46727 0.66942 0.0
C463 C 0.09201 0.44782 0.6481 0.0
H464 H 0.66227 0.61893 0.26994 0.0
H465 H 0.59184 0.73221 0.23021 0.0
H466 H 0.69408 0.58567 0.23285 0.0
H467 H 0.6217 0.6967 0.19305 0.0
H468 H 0.65079 0.56756 0.1353 0.0
H469 H 0.61352 0.60313 0.17128 0.0
H470 H 0.75436 0.6309 0.19999 0.0
H471 H 0.7912 0.59658 0.1642 0.0
C472 C 0.65359 0.63688 0.2534 0.0
C473 C 0.62479 0.67862 0.25317 0.0
C474 C 0.6714 0.61744 0.23219 0.0
C475 C 0.65999 0.63868 0.2103 0.0
C476 C 0.63039 0.67956 0.20982 0.0
C477 C 0.61327 0.69966 0.23109 0.0
C478 C 0.67341 0.58174 0.14929 0.0
C479 C 0.7236 0.57994 0.14701 0.0
C480 C 0.65231 0.60203 0.16969 0.0
C481 C 0.68133 0.61947 0.1882 0.0
C482 C 0.73143 0.61756 0.18589 0.0
C483 C 0.75238 0.59831 0.16541 0.0
H484 H 0.40783 0.09113 0.73034 0.0
H485 H 0.49586 0.19235 0.76922 0.0
H486 H 0.44323 0.11883 0.69299 0.0
H487 H 0.52886 0.2215 0.73168 0.0
H488 H 0.51898 0.2962 0.6573 0.0
H489 H 0.48569 0.26401 0.69422 0.0
H490 H 0.53529 0.12191 0.67448 0.0
H491 H 0.56965 0.1547 0.63737 0.0
C492 C 0.43485 0.11899 0.73102 0.0
C493 C 0.44895 0.13944 0.7529 0.0
C494 C 0.4549 0.13485 0.70961 0.0
C495 C 0.48865 0.17207 0.70963 0.0
C496 C 0.50261 0.19284 0.73133 0.0
C497 C 0.48331 0.17641 0.75277 0.0
C498 C 0.52232 0.25801 0.66074 0.0
C499 C 0.54631 0.2276 0.64451 0.0
C500 C 0.50369 0.23977 0.68189 0.0
C501 C 0.50808 0.19066 0.68703 0.0
C502 C 0.53143 0.15994 0.67071 0.0
C503 C 0.55104 0.17849 0.64966 0.0
H504 H 0.95618 0.34722 0.53601 0.0
H505 H 0.89673 0.20912 0.55425 0.0
H506 H 0.87682 0.374 0.52253 0.0
H507 H 0.81796 0.23585 0.54235 0.0
H508 H 0.67374 0.28865 0.53377 0.0
H509 H 0.75382 0.263 0.52055 0.0
H510 H 0.81162 0.39897 0.5446 0.0
H511 H 0.73221 0.42488 0.55619 0.0
C512 C 0.92652 0.32214 0.53641 0.0
C513 C 0.93228 0.27653 0.54664 0.0
C514 C 0.88076 0.33757 0.52903 0.0
C515 C 0.84008 0.30782 0.53206 0.0
C516 C 0.84767 0.26021 0.53963 0.0
C517 C 0.89313 0.24484 0.54673 0.0
C518 C 0.7034 0.31355 0.53529 0.0
C519 C 0.69695 0.35824 0.54657 0.0
C520 C 0.74955 0.29874 0.528 0.0
C521 C 0.79004 0.32813 0.53217 0.0
C522 C 0.78205 0.37494 0.54097 0.0
C523 C 0.73618 0.38976 0.54795 0.0
H524 H 0.92333 0.38173 0.06173 0.0
H525 H 0.78925 0.44344 0.03831 0.0
H526 H 0.89925 0.30381 0.04742 0.0
H527 H 0.76539 0.36494 0.02236 0.0
H528 H 0.70955 0.21892 0.05182 0.0
H529 H 0.73645 0.29849 0.04158 0.0
H530 H 0.87683 0.24082 0.02376 0.0
H531 H 0.84989 0.16073 0.03574 0.0
C532 C 0.88919 0.37884 0.05262 0.0
C533 C 0.85762 0.41835 0.05171 0.0
C534 C 0.8754 0.33387 0.04409 0.0
C535 C 0.82953 0.32704 0.03422 0.0
C536 C 0.80036 0.3682 0.03057 0.0
C537 C 0.81417 0.41348 0.03939 0.0
C538 C 0.74585 0.22297 0.04508 0.0
C539 C 0.77804 0.18388 0.04527 0.0
C540 C 0.76137 0.26894 0.03894 0.0
C541 C 0.80958 0.27706 0.03257 0.0
C542 C 0.83992 0.2365 0.02948 0.0
C543 C 0.8244 0.1903 0.03598 0.0
H544 H 0.4425 0.85097 0.39666 0.0
H545 H 0.38525 0.71492 0.37336 0.0
H546 H 0.36289 0.87405 0.41184 0.0
H547 H 0.30636 0.73806 0.38702 0.0
H548 H 0.16202 0.78479 0.39759 0.0
H549 H 0.24236 0.76019 0.41047 0.0
H550 H 0.29635 0.90086 0.39162 0.0
H551 H 0.21646 0.92552 0.38042 0.0
C552 C 0.41327 0.82549 0.39546 0.0
C553 C 0.41967 0.78169 0.38337 0.0
C554 C 0.3674 0.83881 0.40386 0.0
C555 C 0.32726 0.80869 0.40006 0.0
C556 C 0.33561 0.76259 0.39045 0.0
C557 C 0.38113 0.74935 0.38229 0.0
C558 C 0.19077 0.81093 0.39733 0.0
C559 C 0.18332 0.85663 0.38746 0.0
C560 C 0.23712 0.79673 0.40435 0.0
C561 C 0.27678 0.82778 0.40124 0.0
C562 C 0.26747 0.87549 0.3943 0.0
C563 C 0.22135 0.88969 0.38761 0.0
H564 H 0.42351 0.91289 0.89797 0.0
H565 H 0.27719 0.95132 0.88156 0.0
H566 H 0.39785 0.83281 0.90989 0.0
H567 H 0.25151 0.8705 0.89164 0.0
H568 H 0.2086 0.72292 0.90154 0.0
H569 H 0.23623 0.8025 0.91339 0.0
H570 H 0.3788 0.76599 0.88783 0.0
H571 H 0.35139 0.68563 0.87778 0.0
C572 C 0.38554 0.90446 0.89757 0.0
C573 C 0.35235 0.938 0.88864 0.0
C574 C 0.37085 0.85826 0.90403 0.0
C575 C 0.32278 0.84405 0.90099 0.0
C576 C 0.28885 0.87953 0.89438 0.0
C577 C 0.30348 0.92621 0.88852 0.0
C578 C 0.24636 0.73144 0.89955 0.0
C579 C 0.27789 0.69838 0.88869 0.0
C580 C 0.26212 0.77738 0.90595 0.0
C581 C 0.30948 0.79182 0.9009 0.0
C582 C 0.3421 0.75674 0.8922 0.0
C583 C 0.3265 0.71032 0.88637 0.0
H584 H 0.4356 0.30845 0.58739 0.0
H585 H 0.43582 0.33599 0.5117 0.0
H586 H 0.34853 0.29926 0.58671 0.0
H587 H 0.34798 0.32742 0.51113 0.0
H588 H 0.18642 0.36972 0.53366 0.0
H589 H 0.2741 0.37408 0.52984 0.0
H590 H 0.28792 0.24057 0.56821 0.0
H591 H 0.20102 0.23541 0.57149 0.0
C592 C 0.41708 0.31235 0.57056 0.0
C593 C 0.44276 0.32279 0.54958 0.0
C594 C 0.36715 0.30693 0.57017 0.0
C595 C 0.34134 0.3126 0.54886 0.0
C596 C 0.36688 0.32304 0.52782 0.0
C597 C 0.41716 0.32757 0.52813 0.0
C598 C 0.20808 0.34097 0.54103 0.0
C599 C 0.18631 0.30257 0.55327 0.0
C600 C 0.25834 0.34345 0.53878 0.0
C601 C 0.28795 0.30794 0.54897 0.0
C602 C 0.26615 0.26887 0.56048 0.0
C603 C 0.21611 0.26601 0.5624 0.0
H604 H 0.89302 0.68641 0.07867 0.0
H605 H 0.76087 0.67141 0.03931 0.0
H606 H 0.88784 0.77344 0.07483 0.0
H607 H 0.7565 0.75902 0.03494 0.0
H608 H 0.79378 0.91886 0.01545 0.0
H609 H 0.8023 0.8309 0.01615 0.0
H610 H 0.83031 0.8367 0.09169 0.0
H611 H 0.82128 0.92403 0.09109 0.0
C612 C 0.86282 0.70147 0.06919 0.0
C613 C 0.82689 0.67155 0.05974 0.0
C614 C 0.85996 0.75156 0.06694 0.0
C615 C 0.82154 0.77325 0.05478 0.0
C616 C 0.78664 0.74341 0.04437 0.0
C617 C 0.78913 0.69317 0.04694 0.0
C618 C 0.80208 0.90134 0.03216 0.0
C619 C 0.80683 0.92854 0.05321 0.0
C620 C 0.80662 0.85096 0.03258 0.0
C621 C 0.81702 0.8268 0.05397 0.0
C622 C 0.82267 0.85418 0.07489 0.0
C623 C 0.81727 0.90428 0.07455 0.0
H624 H 0.688 0.73569 0.3633 0.0
H625 H 0.67596 0.87692 0.39515 0.0
H626 H 0.77518 0.74037 0.36554 0.0
H627 H 0.7637 0.88055 0.39827 0.0
H628 H 0.92471 0.8412 0.41747 0.0
H629 H 0.83682 0.83379 0.41873 0.0
H630 H 0.83636 0.79754 0.34391 0.0
H631 H 0.92371 0.80596 0.34247 0.0
C632 C 0.70372 0.76774 0.37082 0.0
C633 C 0.67459 0.8064 0.37848 0.0
C634 C 0.75386 0.77027 0.3722 0.0
C635 C 0.77633 0.81102 0.38183 0.0
C636 C 0.74737 0.84865 0.39075 0.0
C637 C 0.69708 0.84652 0.38894 0.0
C638 C 0.90583 0.83135 0.40134 0.0
C639 C 0.93122 0.82407 0.37988 0.0
C640 C 0.85554 0.82743 0.40204 0.0
C641 C 0.82974 0.81501 0.38143 0.0
C642 C 0.85527 0.80684 0.36012 0.0
C643 C 0.90529 0.8118 0.35928 0.0
H644 H 0.38539 0.19457 0.88215 0.0
H645 H 0.23515 0.19642 0.86369 0.0
H646 H 0.38438 0.28185 0.8861 0.0
H647 H 0.23446 0.28375 0.8659 0.0
H648 H 0.23418 0.44147 0.88273 0.0
H649 H 0.23513 0.35423 0.88668 0.0
H650 H 0.38464 0.35184 0.86519 0.0
H651 H 0.38405 0.4391 0.86295 0.0
C652 C 0.35206 0.21376 0.87896 0.0
C653 C 0.31031 0.18852 0.87271 0.0
C654 C 0.35151 0.26407 0.88093 0.0
C655 C 0.30946 0.29082 0.87609 0.0
C656 C 0.26746 0.2651 0.87027 0.0
C657 C 0.26779 0.21471 0.86886 0.0
C658 C 0.26741 0.42218 0.87924 0.0
C659 C 0.30907 0.44726 0.87262 0.0
C660 C 0.26792 0.37189 0.88123 0.0
C661 C 0.30985 0.34502 0.87605 0.0
C662 C 0.35175 0.37059 0.86983 0.0
C663 C 0.35147 0.42095 0.8684 0.0
loop_
_geom_bond_atom_site_label_1
_geom_bond_atom_site_label_2
_geom_bond_distance
_geom_bond_site_symmetry_2
_ccdc_geom_bond_type
C0 C1 1.351 . S
C0 N3 1.368 . S
C0 H5 0.931 1_455 S
C1 C0 1.351 . S
C1 N2 1.373 . S
C1 H29 0.930 . S
N2 C1 1.373 . S
N2 C4 1.340 . S
N3 C0 1.368 . S
N3 C4 1.321 . S
N3 Co6 2.135 . S
C4 N2 1.340 . S
C4 N3 1.321 . S
C4 H28 0.930 . S
H5 C0 0.931 1_655 S
Co6 N3 2.135 . S
Co6 N9 2.121 . S
Co6 O14 2.055 1_455 S
Co6 O17 2.039 . S
Co6 N20 2.140 . S
C7 O8 1.227 . S
C7 O17 1.265 . S
O8 C7 1.227 . S
N9 Co6 2.121 . S
N9 C11 1.375 . S
N9 C12 1.313 . S
C10 C11 1.338 . S
C10 N13 1.377 . S
C10 H30 0.930 . S
C11 N9 1.375 . S
C11 C10 1.338 . S
C11 H15 0.931 . S
C12 N9 1.313 . S
C12 N13 1.344 . S
C12 H16 0.930 1_455 S
N13 C10 1.377 . S
N13 C12 1.344 . S
O14 Co6 2.055 1_655 S
O14 C18 1.253 . S
H15 C11 0.931 . S
H16 C12 0.930 1_655 S
O17 Co6 2.039 . S
O17 C7 1.265 . S
C18 O14 1.253 . S
C18 O19 1.227 . S
O19 C18 1.227 . S
N20 Co6 2.140 . S
N20 C23 1.346 . S
N20 C24 1.345 . S
C21 C22 1.387 . S
C21 C25 1.391 . S
C22 C21 1.387 . S
C22 C23 1.369 . S
C22 H31 0.929 . S
C23 N20 1.346 . S
C23 C22 1.369 . S
C23 H26 0.928 . S
C24 N20 1.345 . S
C24 C25 1.371 . S
C24 H27 0.931 . S
C25 C21 1.391 . S
C25 C24 1.371 . S
C25 H32 0.930 . S
H26 C23 0.928 . S
H27 C24 0.931 . S
H28 C4 0.930 . S
H29 C1 0.930 . S
H30 C10 0.930 . S
H31 C22 0.929 . S
H32 C25 0.930 . S
C33 C34 1.351 . S
C33 N36 1.368 . S
C33 H38 0.931 . S
C34 C33 1.351 . S
C34 N35 1.373 . S
C34 H62 0.930 . S
N35 C34 1.373 . S
N35 C37 1.340 . S
N36 C33 1.368 . S
N36 C37 1.321 . S
N36 Co39 2.135 . S
C37 N35 1.340 . S
C37 N36 1.321 . S
C37 H61 0.930 . S
H38 C33 0.931 . S
Co39 N36 2.135 . S
Co39 N42 2.121 . S
Co39 O47 2.055 . S
Co39 O50 2.039 . S
Co39 N53 2.140 . S
C40 O41 1.227 . S
C40 O50 1.265 . S
O41 C40 1.227 . S
N42 Co39 2.121 . S
N42 C44 1.375 . S
N42 C45 1.313 . S
C43 C44 1.338 . S
C43 N46 1.377 . S
C43 H63 0.930 . S
C44 N42 1.375 . S
C44 C43 1.338 . S
C44 H48 0.931 . S
C45 N42 1.313 . S
C45 N46 1.344 . S
C45 H49 0.930 . S
N46 C43 1.377 . S
N46 C45 1.344 . S
O47 Co39 2.055 . S
O47 C51 1.253 . S
H48 C44 0.931 . S
H49 C45 0.930 . S
O50 Co39 2.039 . S
O50 C40 1.265 . S
C51 O47 1.253 . S
C51 O52 1.227 . S
O52 C51 1.227 . S
N53 Co39 2.140 . S
N53 C56 1.346 . S
N53 C57 1.345 . S
C54 C55 1.387 . S
C54 C58 1.391 . S
C55 C54 1.387 . S
C55 C56 1.369 . S
C55 H64 0.929 . S
C56 N53 1.346 . S
C56 C55 1.369 . S
C56 H59 0.928 . S
C57 N53 1.345 . S
C57 C58 1.371 . S
C57 H60 0.931 . S
C58 C54 1.391 . S
C58 C57 1.371 . S
C58 H65 0.930 . S
H59 C56 0.928 . S
H60 C57 0.931 . S
H61 C37 0.930 . S
H62 C34 0.930 . S
H63 C43 0.930 . S
H64 C55 0.929 . S
H65 C58 0.930 . S
C66 C67 1.351 . S
C66 N69 1.368 . S
C66 H71 0.931 . S
C67 C66 1.351 . S
C67 N68 1.373 . S
C67 H95 0.930 . S
N68 C67 1.373 . S
N68 C70 1.340 . S
N69 C66 1.368 . S
N69 C70 1.321 . S
N69 Co72 2.135 . S
C70 N68 1.340 . S
C70 N69 1.321 . S
C70 H94 0.930 . S
H71 C66 0.931 . S
Co72 N69 2.135 . S
Co72 N75 2.121 . S
Co72 O80 2.055 . S
Co72 O83 2.039 . S
Co72 N86 2.140 . S
C73 O74 1.227 . S
C73 O83 1.265 . S
O74 C73 1.227 . S
N75 Co72 2.121 . S
N75 C77 1.375 . S
N75 C78 1.313 . S
C76 C77 1.338 . S
C76 N79 1.377 . S
C76 H96 0.930 . S
C77 N75 1.375 . S
C77 C76 1.338 . S
C77 H81 0.931 . S
C78 N75 1.313 . S
C78 N79 1.344 . S
C78 H82 0.930 . S
N79 C76 1.377 . S
N79 C78 1.344 . S
O80 Co72 2.055 . S
O80 C84 1.253 . S
H81 C77 0.931 . S
H82 C78 0.930 . S
O83 Co72 2.039 . S
O83 C73 1.265 . S
C84 O80 1.253 . S
C84 O85 1.227 . S
O85 C84 1.227 . S
N86 Co72 2.140 . S
N86 C89 1.346 . S
N86 C90 1.345 . S
C87 C88 1.387 . S
C87 C91 1.391 . S
C88 C87 1.387 . S
C88 C89 1.369 . S
C88 H97 0.929 . S
C89 N86 1.346 . S
C89 C88 1.369 . S
C89 H92 0.928 . S
C90 N86 1.345 . S
C90 C91 1.371 . S
C90 H93 0.931 . S
C91 C87 1.391 . S
C91 C90 1.371 . S
C91 H98 0.930 . S
H92 C89 0.928 . S
H93 C90 0.931 . S
H94 C70 0.930 . S
H95 C67 0.930 . S
H96 C76 0.930 . S
H97 C88 0.929 . S
H98 C91 0.930 . S
C99 C100 1.351 . S
C99 N102 1.368 . S
C99 H104 0.931 . S
C100 C99 1.351 . S
C100 N101 1.373 . S
C100 H128 0.930 . S
N101 C100 1.373 . S
N101 C103 1.340 1_545 S
N102 C99 1.368 . S
N102 C103 1.321 1_545 S
N102 Co105 2.135 . S
C103 N101 1.340 1_565 S
C103 N102 1.321 1_565 S
C103 H127 0.930 . S
H104 C99 0.931 . S
Co105 N102 2.135 . S
Co105 N108 2.121 . S
Co105 O113 2.055 . S
Co105 O116 2.039 1_545 S
Co105 N119 2.140 . S
C106 O107 1.227 . S
C106 O116 1.265 . S
O107 C106 1.227 . S
N108 Co105 2.121 . S
N108 C110 1.375 1_545 S
N108 C111 1.313 . S
C109 C110 1.338 . S
C109 N112 1.377 1_565 S
C109 H129 0.930 . S
C110 N108 1.375 1_565 S
C110 C109 1.338 . S
C110 H114 0.931 . S
C111 N108 1.313 . S
C111 N112 1.344 . S
C111 H115 0.930 . S
N112 C109 1.377 1_545 S
N112 C111 1.344 . S
O113 Co105 2.055 . S
O113 C117 1.253 . S
H114 C110 0.931 . S
H115 C111 0.930 . S
O116 Co105 2.039 1_565 S
O116 C106 1.265 . S
C117 O113 1.253 . S
C117 O118 1.227 . S
O118 C117 1.227 . S
N119 Co105 2.140 . S
N119 C122 1.346 1_545 S
N119 C123 1.345 . S
C120 C121 1.387 . S
C120 C124 1.391 1_565 S
C121 C120 1.387 . S
C121 C122 1.369 . S
C121 H130 0.929 . S
C122 N119 1.346 1_565 S
C122 C121 1.369 . S
C122 H125 0.928 . S
C123 N119 1.345 . S
C123 C124 1.371 . S
C123 H126 0.931 . S
C124 C120 1.391 1_545 S
C124 C123 1.371 . S
C124 H131 0.930 . S
H125 C122 0.928 . S
H126 C123 0.931 . S
H127 C103 0.930 . S
H128 C100 0.930 . S
H129 C109 0.930 . S
H130 C121 0.929 . S
H131 C124 0.930 . S
C132 C133 1.351 . S
C132 N135 1.368 . S
C132 H137 0.931 . S
C133 C132 1.351 . S
C133 N134 1.373 . S
C133 H161 0.930 . S
N134 C133 1.373 . S
N134 C136 1.340 1_455 S
N135 C132 1.368 . S
N135 C136 1.321 1_455 S
N135 Co138 2.135 . S
C136 N134 1.340 1_655 S
C136 N135 1.321 1_655 S
C136 H160 0.930 . S
H137 C132 0.931 . S
Co138 N135 2.135 . S
Co138 N141 2.121 . S
Co138 O146 2.055 . S
Co138 O149 2.039 1_455 S
Co138 N152 2.140 . S
C139 O140 1.227 . S
C139 O149 1.265 . S
O140 C139 1.227 . S
N141 Co138 2.121 . S
N141 C143 1.375 1_455 S
N141 C144 1.313 . S
C142 C143 1.338 . S
C142 N145 1.377 1_655 S
C142 H162 0.930 . S
C143 N141 1.375 1_655 S
C143 C142 1.338 . S
C143 H147 0.931 . S
C144 N141 1.313 . S
C144 N145 1.344 . S
C144 H148 0.930 . S
N145 C142 1.377 1_455 S
N145 C144 1.344 . S
O146 Co138 2.055 . S
O146 C150 1.253 . S
H147 C143 0.931 . S
H148 C144 0.930 . S
O149 Co138 2.039 1_655 S
O149 C139 1.265 . S
C150 O146 1.253 . S
C150 O151 1.227 . S
O151 C150 1.227 . S
N152 Co138 2.140 . S
N152 C155 1.346 1_455 S
N152 C156 1.345 . S
C153 C154 1.387 . S
C153 C157 1.391 1_655 S
C154 C153 1.387 . S
C154 C155 1.369 . S
C154 H163 0.929 . S
C155 N152 1.346 1_655 S
C155 C154 1.369 . S
C155 H158 0.928 . S
C156 N152 1.345 . S
C156 C157 1.371 . S
C156 H159 0.931 . S
C157 C153 1.391 1_455 S
C157 C156 1.371 . S
C157 H164 0.930 . S
H158 C155 0.928 . S
H159 C156 0.931 . S
H160 C136 0.930 . S
H161 C133 0.930 . S
H162 C142 0.930 . S
H163 C154 0.929 . S
H164 C157 0.930 . S
C165 C166 1.351 . S
C165 N168 1.368 . S
C165 H170 0.931 . S
C166 C165 1.351 . S
C166 N167 1.373 . S
C166 H194 0.930 . S
N167 C166 1.373 . S
N167 C169 1.340 . S
N168 C165 1.368 . S
N168 C169 1.321 . S
N168 Co171 2.135 . S
C169 N167 1.340 . S
C169 N168 1.321 . S
C169 H193 0.930 . S
H170 C165 0.931 . S
Co171 N168 2.135 . S
Co171 N174 2.121 . S
Co171 O179 2.055 . S
Co171 O182 2.039 . S
Co171 N185 2.140 . S
C172 O173 1.227 . S
C172 O182 1.265 . S
O173 C172 1.227 . S
N174 Co171 2.121 . S
N174 C176 1.375 . S
N174 C177 1.313 . S
C175 C176 1.338 . S
C175 N178 1.377 . S
C175 H195 0.930 . S
C176 N174 1.375 . S
C176 C175 1.338 . S
C176 H180 0.931 . S
C177 N174 1.313 . S
C177 N178 1.344 . S
C177 H181 0.930 . S
N178 C175 1.377 . S
N178 C177 1.344 . S
O179 Co171 2.055 . S
O179 C183 1.253 . S
H180 C176 0.931 . S
H181 C177 0.930 . S
O182 Co171 2.039 . S
O182 C172 1.265 . S
C183 O179 1.253 . S
C183 O184 1.227 . S
O184 C183 1.227 . S
N185 Co171 2.140 . S
N185 C188 1.346 . S
N185 C189 1.345 . S
C186 C187 1.387 . S
C186 C190 1.391 . S
C187 C186 1.387 . S
C187 C188 1.369 . S
C187 H196 0.929 . S
C188 N185 1.346 . S
C188 C187 1.369 . S
C188 H191 0.928 . S
C189 N185 1.345 . S
C189 C190 1.371 . S
C189 H192 0.931 . S
C190 C186 1.391 . S
C190 C189 1.371 . S
C190 H197 0.930 . S
H191 C188 0.928 . S
H192 C189 0.931 . S
H193 C169 0.930 . S
H194 C166 0.930 . S
H195 C175 0.930 . S
H196 C187 0.929 . S
H197 C190 0.930 . S
C198 C199 1.351 . S
C198 N201 1.368 . S
C198 H203 0.931 . S
C199 C198 1.351 . S
C199 N200 1.373 . S
C199 H227 0.930 . S
N200 C199 1.373 . S
N200 C202 1.340 . S
N201 C198 1.368 . S
N201 C202 1.321 . S
N201 Co204 2.135 . S
C202 N200 1.340 . S
C202 N201 1.321 . S
C202 H226 0.930 . S
H203 C198 0.931 . S
Co204 N201 2.135 . S
Co204 N207 2.121 . S
Co204 O212 2.055 . S
Co204 O215 2.039 . S
Co204 N218 2.140 . S
C205 O206 1.227 . S
C205 O215 1.265 . S
O206 C205 1.227 . S
N207 Co204 2.121 . S
N207 C209 1.375 . S
N207 C210 1.313 . S
C208 C209 1.338 . S
C208 N211 1.377 . S
C208 H228 0.930 . S
C209 N207 1.375 . S
C209 C208 1.338 . S
C209 H213 0.931 . S
C210 N207 1.313 . S
C210 N211 1.344 . S
C210 H214 0.930 . S
N211 C208 1.377 . S
N211 C210 1.344 . S
O212 Co204 2.055 . S
O212 C216 1.253 . S
H213 C209 0.931 . S
H214 C210 0.930 . S
O215 Co204 2.039 . S
O215 C205 1.265 . S
C216 O212 1.253 . S
C216 O217 1.227 . S
O217 C216 1.227 . S
N218 Co204 2.140 . S
N218 C221 1.346 . S
N218 C222 1.345 . S
C219 C220 1.387 . S
C219 C223 1.391 . S
C220 C219 1.387 . S
C220 C221 1.369 . S
C220 H229 0.929 . S
C221 N218 1.346 . S
C221 C220 1.369 . S
C221 H224 0.928 . S
C222 N218 1.345 . S
C222 C223 1.371 . S
C222 H225 0.931 . S
C223 C219 1.391 . S
C223 C222 1.371 . S
C223 H230 0.930 . S
H224 C221 0.928 . S
H225 C222 0.931 . S
H226 C202 0.930 . S
H227 C199 0.930 . S
H228 C208 0.930 . S
H229 C220 0.929 . S
H230 C223 0.930 . S
C231 C232 1.351 . S
C231 N234 1.368 . S
C231 H236 0.931 1_545 S
C232 C231 1.351 . S
C232 N233 1.373 . S
C232 H260 0.940 . S
N233 C232 1.373 . S
N233 C235 1.340 . S
N234 C231 1.368 . S
N234 C235 1.321 . S
N234 Co237 2.135 . S
C235 N233 1.340 . S
C235 N234 1.321 . S
C235 H259 0.930 . S
H236 C231 0.931 1_565 S
Co237 N234 2.135 . S
Co237 N240 2.121 . S
Co237 O245 2.055 1_545 S
Co237 O248 2.039 . S
Co237 N251 2.140 . S
C238 O239 1.227 . S
C238 O248 1.265 . S
O239 C238 1.227 . S
N240 Co237 2.121 . S
N240 C242 1.375 . S
N240 C243 1.313 . S
C241 C242 1.338 . S
C241 N244 1.377 . S
C241 H261 0.930 . S
C242 N240 1.375 . S
C242 C241 1.338 . S
C242 H246 0.931 . S
C243 N240 1.313 . S
C243 N244 1.344 . S
C243 H247 0.930 1_545 S
N244 C241 1.377 . S
N244 C243 1.344 . S
O245 Co237 2.055 1_565 S
O245 C249 1.253 . S
H246 C242 0.931 . S
H247 C243 0.930 1_565 S
O248 Co237 2.039 . S
O248 C238 1.265 . S
C249 O245 1.253 . S
C249 O250 1.227 . S
O250 C249 1.227 . S
N251 Co237 2.140 . S
N251 C254 1.346 . S
N251 C255 1.345 . S
C252 C253 1.387 . S
C252 C256 1.391 . S
C253 C252 1.387 . S
C253 C254 1.369 . S
C253 H262 0.929 . S
C254 N251 1.346 . S
C254 C253 1.369 . S
C254 H257 0.928 . S
C255 N251 1.345 . S
C255 C256 1.371 . S
C255 H258 0.931 . S
C256 C252 1.391 . S
C256 C255 1.371 . S
C256 H263 0.930 . S
H257 C254 0.928 . S
H258 C255 0.931 . S
H259 C235 0.930 . S
H260 C232 0.940 . S
H261 C241 0.930 . S
H262 C253 0.929 . S
H263 C256 0.930 . S
H264 C272 0.950 . S
H265 C277 0.950 1_655 S
H266 C274 0.944 1_545 S
H267 C276 0.950 1_545 S
H268 C278 0.950 . S
H269 C280 0.950 . S
H270 C282 0.950 . S
H271 C283 0.950 . S
C272 H264 0.950 . S
C272 C273 1.386 . S
C272 C274 1.400 . S
C273 C272 1.386 . S
C273 C277 1.393 . S
C274 H266 0.944 1_565 S
C274 C272 1.400 . S
C274 C275 1.397 1_565 S
C275 C274 1.397 1_545 S
C275 C276 1.398 1_445 S
C275 C281 1.491 . S
C276 H267 0.950 1_565 S
C276 C275 1.398 1_665 S
C276 C277 1.391 1_655 S
C277 H265 0.950 1_455 S
C277 C273 1.393 . S
C277 C276 1.391 1_455 S
C278 H268 0.950 . S
C278 C279 1.386 1_655 S
C278 C280 1.391 . S
C279 C278 1.386 1_455 S
C279 C283 1.393 . S
C280 H269 0.950 . S
C280 C278 1.391 . S
C280 C281 1.400 1_655 S
C281 C275 1.491 . S
C281 C280 1.400 1_455 S
C281 C282 1.398 . S
C282 H270 0.950 . S
C282 C281 1.398 . S
C282 C283 1.391 . S
C283 H271 0.950 . S
C283 C279 1.393 . S
C283 C282 1.391 . S
H284 C292 0.950 . S
H285 C297 0.950 . S
H286 C294 0.950 . S
H287 C296 0.950 1_556 S
H288 C298 0.950 . S
H289 C300 0.950 . S
H290 C302 0.950 1_554 S
H291 C303 0.950 . S
C292 H284 0.950 . S
C292 C293 1.386 . S
C292 C294 1.391 1_655 S
C293 C292 1.386 . S
C293 C297 1.393 . S
C294 H286 0.950 . S
C294 C292 1.391 1_455 S
C294 C295 1.400 . S
C295 C294 1.400 . S
C295 C296 1.398 1_455 S
C295 C301 1.491 1_554 S
C296 H287 0.950 1_554 S
C296 C295 1.398 1_655 S
C296 C297 1.391 . S
C297 H285 0.950 . S
C297 C293 1.393 . S
C297 C296 1.391 . S
C298 H288 0.950 . S
C298 C299 1.386 . S
C298 C300 1.391 . S
C299 C298 1.386 . S
C299 C303 1.393 . S
C300 H289 0.950 . S
C300 C298 1.391 . S
C300 C301 1.400 . S
C301 C295 1.491 1_556 S
C301 C300 1.400 . S
C301 C302 1.398 . S
C302 H290 0.950 1_556 S
C302 C301 1.398 . S
C302 C303 1.391 . S
C303 H291 0.950 . S
C303 C299 1.393 . S
C303 C302 1.391 . S
H304 C312 0.950 . S
H305 C317 0.950 . S
H306 C314 0.950 . S
H307 C316 0.950 . S
H308 C318 0.950 . S
H309 C320 0.950 . S
H310 C322 0.950 . S
H311 C323 0.950 . S
C312 H304 0.950 . S
C312 C313 1.386 . S
C312 C314 1.391 . S
C313 C312 1.386 . S
C313 C317 1.393 . S
C314 H306 0.950 . S
C314 C312 1.391 . S
C314 C315 1.400 . S
C315 C314 1.400 . S
C315 C316 1.398 . S
C315 C321 1.491 . S
C316 H307 0.950 . S
C316 C315 1.398 . S
C316 C317 1.391 . S
C317 H305 0.950 . S
C317 C313 1.393 . S
C317 C316 1.391 . S
C318 H308 0.950 . S
C318 C319 1.386 . S
C318 C320 1.391 . S
C319 C318 1.386 . S
C319 C323 1.393 . S
C320 H309 0.950 . S
C320 C318 1.391 . S
C320 C321 1.400 . S
C321 C315 1.491 . S
C321 C320 1.400 . S
C321 C322 1.398 . S
C322 H310 0.950 . S
C322 C321 1.398 . S
C322 C323 1.391 . S
C323 H311 0.950 . S
C323 C319 1.393 . S
C323 C322 1.391 . S
H324 C332 0.950 . S
H325 C337 0.950 . S
H326 C334 0.950 . S
H327 C336 0.950 1_554 S
H328 C338 0.950 1_565 S
H329 C340 0.969 . S
H330 C342 0.950 1_556 S
H331 C343 0.950 . S
C332 H324 0.950 . S
C332 C333 1.386 . S
C332 C334 1.391 . S
C333 C332 1.386 . S
C333 C337 1.393 1_545 S
C334 H326 0.950 . S
C334 C332 1.391 . S
C334 C335 1.400 . S
C335 C334 1.400 . S
C335 C336 1.398 1_545 S
C335 C341 1.491 1_556 S
C336 H327 0.950 1_556 S
C336 C335 1.398 1_565 S
C336 C337 1.391 . S
C337 H325 0.950 . S
C337 C333 1.393 1_565 S
C337 C336 1.391 . S
C338 H328 0.950 1_545 S
C338 C339 1.386 . S
C338 C340 1.389 1_545 S
C339 C338 1.386 . S
C339 C343 1.393 . S
C340 H329 0.969 . S
C340 C338 1.389 1_565 S
C340 C341 1.384 1_565 S
C341 C335 1.491 1_554 S
C341 C340 1.384 1_545 S
C341 C342 1.398 . S
C342 H330 0.950 1_554 S
C342 C341 1.398 . S
C342 C343 1.391 . S
C343 H331 0.950 . S
C343 C339 1.393 . S
C343 C342 1.391 . S
H344 C352 0.950 . S
H345 C357 0.950 . S
H346 C354 0.950 . S
H347 C356 0.950 . S
H348 C358 0.950 . S
H349 C360 0.950 . S
H350 C362 0.950 . S
H351 C363 0.950 . S
C352 H344 0.950 . S
C352 C353 1.386 . S
C352 C354 1.391 . S
C353 C352 1.386 . S
C353 C357 1.393 . S
C354 H346 0.950 . S
C354 C352 1.391 . S
C354 C355 1.400 . S
C355 C354 1.400 . S
C355 C356 1.398 . S
C355 C361 1.491 . S
C356 H347 0.950 . S
C356 C355 1.398 . S
C356 C357 1.391 . S
C357 H345 0.950 . S
C357 C353 1.393 . S
C357 C356 1.391 . S
C358 H348 0.950 . S
C358 C359 1.386 . S
C358 C360 1.391 . S
C359 C358 1.386 . S
C359 C363 1.393 . S
C360 H349 0.950 . S
C360 C358 1.391 . S
C360 C361 1.400 . S
C361 C355 1.491 . S
C361 C360 1.400 . S
C361 C362 1.398 . S
C362 H350 0.950 . S
C362 C361 1.398 . S
C362 C363 1.391 . S
C363 H351 0.950 . S
C363 C359 1.393 . S
C363 C362 1.391 . S
H364 C372 0.950 . S
H365 C377 0.950 . S
H366 C374 0.950 . S
H367 C376 0.950 1_455 S
H368 C378 0.950 . S
H369 C380 0.950 . S
H370 C382 0.950 . S
H371 C383 0.950 . S
C372 H364 0.950 . S
C372 C373 1.386 . S
C372 C374 1.391 . S
C373 C372 1.386 . S
C373 C377 1.393 1_655 S
C374 H366 0.950 . S
C374 C372 1.391 . S
C374 C375 1.400 . S
C375 C374 1.400 . S
C375 C376 1.398 . S
C375 C381 1.491 . S
C376 H367 0.950 1_655 S
C376 C375 1.398 . S
C376 C377 1.391 1_655 S
C377 H365 0.950 . S
C377 C373 1.393 1_455 S
C377 C376 1.391 1_455 S
C378 H368 0.950 . S
C378 C379 1.386 . S
C378 C380 1.391 . S
C379 C378 1.386 . S
C379 C383 1.393 . S
C380 H369 0.950 . S
C380 C378 1.391 . S
C380 C381 1.400 . S
C381 C375 1.491 . S
C381 C380 1.400 . S
C381 C382 1.398 . S
C382 H370 0.950 . S
C382 C381 1.398 . S
C382 C383 1.391 . S
C383 H371 0.950 . S
C383 C379 1.393 . S
C383 C382 1.391 . S
H384 C392 0.950 . S
H385 C397 0.950 . S
H386 C394 0.950 . S
H387 C396 0.950 . S
H388 C398 0.950 . S
H389 C400 0.950 . S
H390 C402 0.950 . S
H391 C403 0.950 . S
C392 H384 0.950 . S
C392 C393 1.386 . S
C392 C394 1.391 . S
C393 C392 1.386 . S
C393 C397 1.393 . S
C394 H386 0.950 . S
C394 C392 1.391 . S
C394 C395 1.400 . S
C395 C394 1.400 . S
C395 C396 1.398 . S
C395 C401 1.491 . S
C396 H387 0.950 . S
C396 C395 1.398 . S
C396 C397 1.391 . S
C397 H385 0.950 . S
C397 C393 1.393 . S
C397 C396 1.391 . S
C398 H388 0.950 . S
C398 C399 1.386 . S
C398 C400 1.391 . S
C399 C398 1.386 . S
C399 C403 1.393 . S
C400 H389 0.950 . S
C400 C398 1.391 . S
C400 C401 1.400 . S
C401 C395 1.491 . S
C401 C400 1.400 . S
C401 C402 1.398 . S
C402 H390 0.950 . S
C402 C401 1.398 . S
C402 C403 1.391 . S
C403 H391 0.950 . S
C403 C399 1.393 . S
C403 C402 1.391 . S
H404 C412 0.950 . S
H405 C417 0.950 . S
H406 C414 0.950 . S
H407 C416 0.950 . S
H408 C418 0.950 . S
H409 C420 0.950 . S
H410 C422 0.950 . S
H411 C423 0.950 . S
C412 H404 0.950 . S
C412 C413 1.386 . S
C412 C414 1.391 . S
C413 C412 1.386 . S
C413 C417 1.393 . S
C414 H406 0.950 . S
C414 C412 1.391 . S
C414 C415 1.400 . S
C415 C414 1.400 . S
C415 C416 1.398 . S
C415 C421 1.491 . S
C416 H407 0.950 . S
C416 C415 1.398 . S
C416 C417 1.391 . S
C417 H405 0.950 . S
C417 C413 1.393 . S
C417 C416 1.391 . S
C418 H408 0.950 . S
C418 C419 1.386 . S
C418 C420 1.391 . S
C419 C418 1.386 . S
C419 C423 1.393 . S
C420 H409 0.950 . S
C420 C418 1.391 . S
C420 C421 1.400 . S
C421 C415 1.491 . S
C421 C420 1.400 . S
C421 C422 1.398 . S
C422 H410 0.950 . S
C422 C421 1.398 . S
C422 C423 1.391 . S
C423 H411 0.950 . S
C423 C419 1.393 . S
C423 C422 1.391 . S
H424 C432 0.950 . S
H425 C437 0.948 1_455 S
H426 C434 0.950 . S
H427 C436 0.950 . S
H428 C438 0.950 . S
H429 C440 0.950 . S
H430 C442 0.950 . S
H431 C443 0.950 . S
C432 H424 0.950 . S
C432 C433 1.386 . S
C432 C434 1.391 . S
C433 C432 1.386 . S
C433 C437 1.394 . S
C434 H426 0.950 . S
C434 C432 1.391 . S
C434 C435 1.400 . S
C435 C434 1.400 . S
C435 C436 1.398 . S
C435 C441 1.491 . S
C436 H427 0.950 . S
C436 C435 1.398 . S
C436 C437 1.392 . S
C437 H425 0.948 1_655 S
C437 C433 1.394 . S
C437 C436 1.392 . S
C438 H428 0.950 . S
C438 C439 1.386 . S
C438 C440 1.391 . S
C439 C438 1.386 . S
C439 C443 1.393 1_565 S
C440 H429 0.950 . S
C440 C438 1.391 . S
C440 C441 1.400 . S
C441 C435 1.491 . S
C441 C440 1.400 . S
C441 C442 1.398 . S
C442 H430 0.950 . S
C442 C441 1.398 . S
C442 C443 1.391 1_565 S
C443 H431 0.950 . S
C443 C439 1.393 1_545 S
C443 C442 1.391 1_545 S
H444 C452 0.950 . S
H445 C457 0.950 . S
H446 C454 0.950 . S
H447 C456 0.950 . S
H448 C458 0.950 . S
H449 C460 0.950 . S
H450 C462 0.950 . S
H451 C463 0.950 . S
C452 H444 0.950 . S
C452 C453 1.386 . S
C452 C454 1.391 . S
C453 C452 1.386 . S
C453 C457 1.393 . S
C454 H446 0.950 . S
C454 C452 1.391 . S
C454 C455 1.400 . S
C455 C454 1.400 . S
C455 C456 1.398 . S
C455 C461 1.491 . S
C456 H447 0.950 . S
C456 C455 1.398 . S
C456 C457 1.391 . S
C457 H445 0.950 . S
C457 C453 1.393 . S
C457 C456 1.391 . S
C458 H448 0.950 . S
C458 C459 1.386 . S
C458 C460 1.391 . S
C459 C458 1.386 . S
C459 C463 1.393 . S
C460 H449 0.950 . S
C460 C458 1.391 . S
C460 C461 1.400 . S
C461 C455 1.491 . S
C461 C460 1.400 . S
C461 C462 1.398 . S
C462 H450 0.950 . S
C462 C461 1.398 . S
C462 C463 1.391 . S
C463 H451 0.950 . S
C463 C459 1.393 . S
C463 C462 1.391 . S
H464 C472 0.950 . S
H465 C477 0.950 . S
H466 C474 0.950 . S
H467 C476 0.950 . S
H468 C478 0.950 . S
H469 C480 0.950 . S
H470 C482 0.950 . S
H471 C483 0.950 . S
C472 H464 0.950 . S
C472 C473 1.386 . S
C472 C474 1.391 . S
C473 C472 1.386 . S
C473 C477 1.393 . S
C474 H466 0.950 . S
C474 C472 1.391 . S
C474 C475 1.400 . S
C475 C474 1.400 . S
C475 C476 1.398 . S
C475 C481 1.491 . S
C476 H467 0.950 . S
C476 C475 1.398 . S
C476 C477 1.391 . S
C477 H465 0.950 . S
C477 C473 1.393 . S
C477 C476 1.391 . S
C478 H468 0.950 . S
C478 C479 1.386 . S
C478 C480 1.391 . S
C479 C478 1.386 . S
C479 C483 1.393 . S
C480 H469 0.950 . S
C480 C478 1.391 . S
C480 C481 1.400 . S
C481 C475 1.491 . S
C481 C480 1.400 . S
C481 C482 1.398 . S
C482 H470 0.950 . S
C482 C481 1.398 . S
C482 C483 1.391 . S
C483 H471 0.950 . S
C483 C479 1.393 . S
C483 C482 1.391 . S
H484 C492 0.950 . S
H485 C497 0.950 . S
H486 C494 0.950 . S
H487 C496 0.950 . S
H488 C498 0.950 . S
H489 C500 0.950 . S
H490 C502 0.950 . S
H491 C503 0.950 . S
C492 H484 0.950 . S
C492 C493 1.386 . S
C492 C494 1.391 . S
C493 C492 1.386 . S
C493 C497 1.393 . S
C494 H486 0.950 . S
C494 C492 1.391 . S
C494 C495 1.400 . S
C495 C494 1.400 . S
C495 C496 1.398 . S
C495 C501 1.491 . S
C496 H487 0.950 . S
C496 C495 1.398 . S
C496 C497 1.391 . S
C497 H485 0.950 . S
C497 C493 1.393 . S
C497 C496 1.391 . S
C498 H488 0.950 . S
C498 C499 1.386 . S
C498 C500 1.391 . S
C499 C498 1.386 . S
C499 C503 1.393 . S
C500 H489 0.950 . S
C500 C498 1.391 . S
C500 C501 1.400 . S
C501 C495 1.491 . S
C501 C500 1.400 . S
C501 C502 1.398 . S
C502 H490 0.950 . S
C502 C501 1.398 . S
C502 C503 1.391 . S
C503 H491 0.950 . S
C503 C499 1.393 . S
C503 C502 1.391 . S
H504 C512 0.950 . S
H505 C517 0.950 . S
H506 C514 0.950 . S
H507 C516 0.950 . S
H508 C518 0.950 . S
H509 C520 0.950 . S
H510 C522 0.950 . S
H511 C523 0.950 . S
C512 H504 0.950 . S
C512 C513 1.386 . S
C512 C514 1.391 . S
C513 C512 1.386 . S
C513 C517 1.393 . S
C514 H506 0.950 . S
C514 C512 1.391 . S
C514 C515 1.400 . S
C515 C514 1.400 . S
C515 C516 1.398 . S
C515 C521 1.491 . S
C516 H507 0.950 . S
C516 C515 1.398 . S
C516 C517 1.391 . S
C517 H505 0.950 . S
C517 C513 1.393 . S
C517 C516 1.391 . S
C518 H508 0.950 . S
C518 C519 1.386 . S
C518 C520 1.391 . S
C519 C518 1.386 . S
C519 C523 1.393 . S
C520 H509 0.950 . S
C520 C518 1.391 . S
C520 C521 1.400 . S
C521 C515 1.491 . S
C521 C520 1.400 . S
C521 C522 1.398 . S
C522 H510 0.950 . S
C522 C521 1.398 . S
C522 C523 1.391 . S
C523 H511 0.950 . S
C523 C519 1.393 . S
C523 C522 1.391 . S
H524 C532 0.950 . S
H525 C537 0.950 . S
H526 C534 0.950 . S
H527 C536 0.950 . S
H528 C538 0.950 . S
H529 C540 0.950 . S
H530 C542 0.950 . S
H531 C543 0.950 . S
C532 H524 0.950 . S
C532 C533 1.386 . S
C532 C534 1.391 . S
C533 C532 1.386 . S
C533 C537 1.393 . S
C534 H526 0.950 . S
C534 C532 1.391 . S
C534 C535 1.400 . S
C535 C534 1.400 . S
C535 C536 1.398 . S
C535 C541 1.491 . S
C536 H527 0.950 . S
C536 C535 1.398 . S
C536 C537 1.391 . S
C537 H525 0.950 . S
C537 C533 1.393 . S
C537 C536 1.391 . S
C538 H528 0.950 . S
C538 C539 1.386 . S
C538 C540 1.391 . S
C539 C538 1.386 . S
C539 C543 1.393 . S
C540 H529 0.950 . S
C540 C538 1.391 . S
C540 C541 1.400 . S
C541 C535 1.491 . S
C541 C540 1.400 . S
C541 C542 1.398 . S
C542 H530 0.950 . S
C542 C541 1.398 . S
C542 C543 1.391 . S
C543 H531 0.950 . S
C543 C539 1.393 . S
C543 C542 1.391 . S
H544 C552 0.950 . S
H545 C557 0.950 . S
H546 C554 0.950 . S
H547 C556 0.950 . S
H548 C558 0.950 . S
H549 C560 0.950 . S
H550 C562 0.950 . S
H551 C563 0.950 . S
C552 H544 0.950 . S
C552 C553 1.386 . S
C552 C554 1.391 . S
C553 C552 1.386 . S
C553 C557 1.393 . S
C554 H546 0.950 . S
C554 C552 1.391 . S
C554 C555 1.400 . S
C555 C554 1.400 . S
C555 C556 1.398 . S
C555 C561 1.491 . S
C556 H547 0.950 . S
C556 C555 1.398 . S
C556 C557 1.391 . S
C557 H545 0.950 . S
C557 C553 1.393 . S
C557 C556 1.391 . S
C558 H548 0.950 . S
C558 C559 1.386 . S
C558 C560 1.391 . S
C559 C558 1.386 . S
C559 C563 1.393 . S
C560 H549 0.950 . S
C560 C558 1.391 . S
C560 C561 1.400 . S
C561 C555 1.491 . S
C561 C560 1.400 . S
C561 C562 1.398 . S
C562 H550 0.950 . S
C562 C561 1.398 . S
C562 C563 1.391 . S
C563 H551 0.950 . S
C563 C559 1.393 . S
C563 C562 1.391 . S
H564 C572 0.950 . S
H565 C577 0.950 . S
H566 C574 0.950 . S
H567 C576 0.950 . S
H568 C578 0.950 . S
H569 C580 0.950 . S
H570 C582 0.950 . S
H571 C583 0.950 . S
C572 H564 0.950 . S
C572 C573 1.386 . S
C572 C574 1.391 . S
C573 C572 1.386 . S
C573 C577 1.393 . S
C574 H566 0.950 . S
C574 C572 1.391 . S
C574 C575 1.400 . S
C575 C574 1.400 . S
C575 C576 1.398 . S
C575 C581 1.491 . S
C576 H567 0.950 . S
C576 C575 1.398 . S
C576 C577 1.391 . S
C577 H565 0.950 . S
C577 C573 1.393 . S
C577 C576 1.391 . S
C578 H568 0.950 . S
C578 C579 1.386 . S
C578 C580 1.391 . S
C579 C578 1.386 . S
C579 C583 1.393 . S
C580 H569 0.950 . S
C580 C578 1.391 . S
C580 C581 1.400 . S
C581 C575 1.491 . S
C581 C580 1.400 . S
C581 C582 1.398 . S
C582 H570 0.950 . S
C582 C581 1.398 . S
C582 C583 1.391 . S
C583 H571 0.950 . S
C583 C579 1.393 . S
C583 C582 1.391 . S
H584 C592 0.950 . S
H585 C597 0.950 . S
H586 C594 0.950 . S
H587 C596 0.950 . S
H588 C598 0.950 . S
H589 C600 0.950 . S
H590 C602 0.950 . S
H591 C603 0.950 . S
C592 H584 0.950 . S
C592 C593 1.386 . S
C592 C594 1.391 . S
C593 C592 1.386 . S
C593 C597 1.393 . S
C594 H586 0.950 . S
C594 C592 1.391 . S
C594 C595 1.400 . S
C595 C594 1.400 . S
C595 C596 1.398 . S
C595 C601 1.491 . S
C596 H587 0.950 . S
C596 C595 1.398 . S
C596 C597 1.391 . S
C597 H585 0.950 . S
C597 C593 1.393 . S
C597 C596 1.391 . S
C598 H588 0.950 . S
C598 C599 1.386 . S
C598 C600 1.391 . S
C599 C598 1.386 . S
C599 C603 1.393 . S
C600 H589 0.950 . S
C600 C598 1.391 . S
C600 C601 1.400 . S
C601 C595 1.491 . S
C601 C600 1.400 . S
C601 C602 1.398 . S
C602 H590 0.950 . S
C602 C601 1.398 . S
C602 C603 1.391 . S
C603 H591 0.950 . S
C603 C599 1.393 . S
C603 C602 1.391 . S
H604 C612 0.950 . S
H605 C617 0.950 . S
H606 C614 0.950 . S
H607 C616 0.950 . S
H608 C618 0.950 . S
H609 C620 0.950 . S
H610 C622 0.950 . S
H611 C623 0.950 . S
C612 H604 0.950 . S
C612 C613 1.386 . S
C612 C614 1.391 . S
C613 C612 1.386 . S
C613 C617 1.393 . S
C614 H606 0.950 . S
C614 C612 1.391 . S
C614 C615 1.400 . S
C615 C614 1.400 . S
C615 C616 1.398 . S
C615 C621 1.491 . S
C616 H607 0.950 . S
C616 C615 1.398 . S
C616 C617 1.391 . S
C617 H605 0.950 . S
C617 C613 1.393 . S
C617 C616 1.391 . S
C618 H608 0.950 . S
C618 C619 1.386 . S
C618 C620 1.391 . S
C619 C618 1.386 . S
C619 C623 1.393 . S
C620 H609 0.950 . S
C620 C618 1.391 . S
C620 C621 1.400 . S
C621 C615 1.491 . S
C621 C620 1.400 . S
C621 C622 1.398 . S
C622 H610 0.950 . S
C622 C621 1.398 . S
C622 C623 1.391 . S
C623 H611 0.950 . S
C623 C619 1.393 . S
C623 C622 1.391 . S
H624 C632 0.950 . S
H625 C637 0.950 . S
H626 C634 0.950 . S
H627 C636 0.950 . S
H628 C638 0.950 . S
H629 C640 0.950 . S
H630 C642 0.950 . S
H631 C643 0.950 . S
C632 H624 0.950 . S
C632 C633 1.386 . S
C632 C634 1.391 . S
C633 C632 1.386 . S
C633 C637 1.393 . S
C634 H626 0.950 . S
C634 C632 1.391 . S
C634 C635 1.400 . S
C635 C634 1.400 . S
C635 C636 1.398 . S
C635 C641 1.491 . S
C636 H627 0.950 . S
C636 C635 1.398 . S
C636 C637 1.391 . S
C637 H625 0.950 . S
C637 C633 1.393 . S
C637 C636 1.391 . S
C638 H628 0.950 . S
C638 C639 1.386 . S
C638 C640 1.391 . S
C639 C638 1.386 . S
C639 C643 1.393 . S
C640 H629 0.950 . S
C640 C638 1.391 . S
C640 C641 1.400 . S
C641 C635 1.491 . S
C641 C640 1.400 . S
C641 C642 1.398 . S
C642 H630 0.950 . S
C642 C641 1.398 . S
C642 C643 1.391 . S
C643 H631 0.950 . S
C643 C639 1.393 . S
C643 C642 1.391 . S
H644 C652 0.950 . S
H645 C657 0.950 . S
H646 C654 0.950 . S
H647 C656 0.950 . S
H648 C658 0.950 . S
H649 C660 0.950 . S
H650 C662 0.950 . S
H651 C663 0.950 . S
C652 H644 0.950 . S
C652 C653 1.386 . S
C652 C654 1.391 . S
C653 C652 1.386 . S
C653 C657 1.393 . S
C654 H646 0.950 . S
C654 C652 1.391 . S
C654 C655 1.400 . S
C655 C654 1.400 . S
C655 C656 1.398 . S
C655 C661 1.491 . S
C656 H647 0.950 . S
C656 C655 1.398 . S
C656 C657 1.391 . S
C657 H645 0.950 . S
C657 C653 1.393 . S
C657 C656 1.391 . S
C658 H648 0.950 . S
C658 C659 1.386 . S
C658 C660 1.391 . S
C659 C658 1.386 . S
C659 C663 1.393 . S
C660 H649 0.950 . S
C660 C658 1.391 . S
C660 C661 1.400 . S
C661 C655 1.491 . S
C661 C660 1.400 . S
C661 C662 1.398 . S
C662 H650 0.950 . S
C662 C661 1.398 . S
C662 C663 1.391 . S
C663 H651 0.950 . S
C663 C659 1.393 . S
C663 C662 1.391 . S
C273 N145 1.615 . S
C279 N13 1.615 . S
C293 N46 1.630 . S
C299 N178 1.630 . S
C313 N79 1.622 . S
C319 N211 1.622 . S
C333 N244 1.615 . S
C339 N112 1.615 . S
C353 N233 0.699 . S
C359 C21 0.680 . S
C373 N134 0.677 1_655 S
C379 C54 0.696 . S
C393 N167 0.699 . S
C399 C87 0.697 . S
C413 N200 0.659 . S
C419 C120 0.682 . S
C433 C153 0.696 . S
C439 N101 0.679 1_565 S
C453 C186 0.648 . S
C459 N2 0.656 . S
C473 C219 0.700 . S
C479 N35 0.690 . S
C493 C252 0.657 . S
C499 N68 0.648 . S
C513 C18 1.526 . S
C519 C84 1.520 . S
C533 C51 1.520 . S
C539 C117 1.527 . S
C553 C216 1.520 . S
C559 C150 1.525 . S
C573 C249 1.533 . S
C579 C183 1.523 . S
C593 C73 0.966 . S
C599 C7 0.995 . S
C613 C40 0.996 . S
C619 C106 0.966 . S
C633 C205 0.984 . S
C639 C139 1.022 . S
C653 C238 0.972 . S
C659 C172 1.016 . S
