# Generated by pormake.
# Topology rkf, (6)-cn, num edge types: 1
# Building blocks:
#     Node 0, Type 0, BuildingBlock: CUKXOW_clean_sbu_0, # of connection points: 6
#     Node 1, Type 0, BuildingBlock: CUKXOW_clean_sbu_0, # of connection points: 6
#     Node 2, Type 0, BuildingBlock: CUKXOW_clean_sbu_0, # of connection points: 6
#     Node 3, Type 0, BuildingBlock: CUKXOW_clean_sbu_0, # of connection points: 6
#     Node 4, Type 0, BuildingBlock: CUKXOW_clean_sbu_0, # of connection points: 6
#     Node 5, Type 0, BuildingBlock: CUKXOW_clean_sbu_0, # of connection points: 6
#     Edge 6, Type (0, 0), BuildingBlock: KIFKEQ_clean_linker_1, # of connection points: 2
#     Edge 7, Type (0, 0), BuildingBlock: KIFKEQ_clean_linker_1, # of connection points: 2
#     Edge 8, Type (0, 0), BuildingBlock: KIFKEQ_clean_linker_1, # of connection points: 2
#     Edge 9, Type (0, 0), BuildingBlock: KIFKEQ_clean_linker_1, # of connection points: 2
#     Edge 10, Type (0, 0), BuildingBlock: KIFKEQ_clean_linker_1, # of connection points: 2
#     Edge 11, Type (0, 0), BuildingBlock: KIFKEQ_clean_linker_1, # of connection points: 2
#     Edge 12, Type (0, 0), BuildingBlock: KIFKEQ_clean_linker_1, # of connection points: 2
#     Edge 13, Type (0, 0), BuildingBlock: KIFKEQ_clean_linker_1, # of connection points: 2
#     Edge 14, Type (0, 0), BuildingBlock: KIFKEQ_clean_linker_1, # of connection points: 2
#     Edge 15, Type (0, 0), BuildingBlock: KIFKEQ_clean_linker_1, # of connection points: 2
#     Edge 16, Type (0, 0), BuildingBlock: KIFKEQ_clean_linker_1, # of connection points: 2
#     Edge 17, Type (0, 0), BuildingBlock: KIFKEQ_clean_linker_1, # of connection points: 2
#     Edge 18, Type (0, 0), BuildingBlock: KIFKEQ_clean_linker_1, # of connection points: 2
#     Edge 19, Type (0, 0), BuildingBlock: KIFKEQ_clean_linker_1, # of connection points: 2
#     Edge 20, Type (0, 0), BuildingBlock: KIFKEQ_clean_linker_1, # of connection points: 2
#     Edge 21, Type (0, 0), BuildingBlock: KIFKEQ_clean_linker_1, # of connection points: 2
#     Edge 22, Type (0, 0), BuildingBlock: KIFKEQ_clean_linker_1, # of connection points: 2
#     Edge 23, Type (0, 0), BuildingBlock: KIFKEQ_clean_linker_1, # of connection points: 2
# Relax obj value: 0.318
# Max RMSD: 0.271
# Mean RMSD: 0.269
data_MOF--net-rkf--node1-CUKXOW_clean_sbu_0--edge1-KIFKEQ_clean_linker_1
_symmetry_space_group_name_H-M    P1
_symmetry_Int_Tables_number       1
_symmetry_cell_setting            triclinic
loop_
_symmetry_equiv_pos_as_xyz
'x, y, z'
_cell_length_a     24.231969
_cell_length_b     24.290558
_cell_length_c     40.137491
_cell_angle_alpha  89.798529
_cell_angle_beta   90.10525
_cell_angle_gamma 119.83097
loop_
_atom_site_label
_atom_site_type_symbol
_atom_site_fract_x
_atom_site_fract_y
_atom_site_fract_z
_atom_type_partial_charge
Tb0 Tb 0.30297 0.06987 1.03692 0.0
C1 C 0.41064 0.07396 0.0843 0.0
Tb2 Tb 0.26692 0.95554 0.08787 0.0
O3 O 0.3053 0.12516 0.08035 0.0
O4 O 0.24393 0.02771 0.07912 0.0
O5 O 0.39798 0.09673 1.05643 0.0
C6 C 0.20626 0.88454 0.14184 0.0
O7 O 0.36578 0.02492 0.10201 0.0
C8 C 0.31963 0.94773 1.03183 0.0
C9 C 0.18697 0.93282 1.02415 0.0
O10 O 0.24976 0.94431 0.14216 0.0
O11 O 0.20053 0.8643 0.11143 0.0
O12 O 0.29188 0.90043 1.05297 0.0
O13 O 0.32101 -0.00528 1.04556 0.0
O14 O 0.18385 0.92252 1.05665 0.0
O15 O 0.23164 0.98606 1.01033 0.0
C16 C 0.29212 0.14336 0.98984 0.0
O17 O 0.25031 0.10966 1.0123 0.0
O18 O 0.34191 0.13621 0.9938 0.0
C19 C 0.26301 0.07641 0.09682 0.0
Tb20 Tb 0.13771 0.17864 0.42869 0.0
C21 C 0.03427 0.0675 0.38852 0.0
Tb22 Tb 0.17317 0.09042 0.39332 0.0
O23 O 0.10802 0.2078 0.38307 0.0
O24 O 0.1707 0.17392 0.3802 0.0
O25 O 0.0443 0.09902 0.41683 0.0
C26 C 0.21176 0.04201 0.34476 0.0
O27 O 0.0801 0.06248 0.37366 0.0
C28 C 0.13029 0.05331 0.45506 0.0
C29 C 0.28361 0.21931 0.42282 0.0
O30 O 0.1535 0.02182 0.35372 0.0
O31 O 0.24861 0.08697 0.36495 0.0
O32 O 0.12956 0.01611 0.43169 0.0
O33 O 0.16296 0.10964 0.44431 0.0
O34 O 0.26882 0.16909 0.40385 0.0
O35 O 0.24021 0.2301 0.43663 0.0
C36 C 0.11599 0.24239 0.47571 0.0
O37 O 0.15377 0.26776 0.45041 0.0
O38 O 0.08979 0.18096 0.47432 0.0
C39 C 0.13687 0.18931 0.36245 0.0
Tb40 Tb 0.99008 0.25955 0.70081 0.0
C41 C 0.97235 0.35242 0.74928 0.0
Tb42 Tb 0.1006 0.34168 0.75207 0.0
O43 O 0.93828 0.20117 0.74381 0.0
O44 O 0.03713 0.24527 0.74157 0.0
O45 O 0.95276 0.31784 0.72131 0.0
C46 C 0.16559 0.35348 0.80893 0.0
O47 O 0.02403 0.36194 0.76659 0.0
C48 C 0.10447 0.4006 0.69628 0.0
C49 C 0.13061 0.28771 0.68858 0.0
O50 O 0.10536 0.33542 0.80679 0.0
O51 O 0.18971 0.36927 0.77919 0.0
O52 O 0.15276 0.4218 0.71693 0.0
O53 O 0.05802 0.35507 0.7105 0.0
O54 O 0.14275 0.29995 0.72076 0.0
O55 O 0.07545 0.27432 0.67491 0.0
C56 C 0.91506 0.17753 0.65391 0.0
O57 O 0.93891 0.1644 0.67958 0.0
O58 O 0.93323 0.238 0.65441 0.0
C59 C 0.98938 0.21055 0.75912 0.0
Tb60 Tb 0.84788 0.96064 0.09586 0.0
C61 C 0.95253 0.956 1.0546 0.0
Tb62 Tb 0.94371 0.08284 1.05725 0.0
O63 O 0.81254 0.90388 1.04997 0.0
O64 O 0.85398 0.00131 1.04797 0.0
O65 O 0.91681 0.93294 0.08161 0.0
C66 C 0.00377 0.15291 1.00419 0.0
O67 O 0.96651 0.01135 1.04123 0.0
C68 C 0.97972 0.09142 0.12101 0.0
C69 C 0.81999 0.07461 0.08768 0.0
O70 O 0.01078 0.10743 1.01648 0.0
O71 O 0.96456 0.16103 1.02285 0.0
O72 O 0.00821 0.13599 0.09881 0.0
O73 O 0.93322 0.04626 0.10609 0.0
O74 O 0.86478 0.10108 0.06439 0.0
O75 O 0.81126 0.02499 0.10578 0.0
C76 C 0.7824 0.87941 0.14425 0.0
O77 O 0.75747 0.89382 0.11938 0.0
O78 O 0.84404 0.91063 0.14178 0.0
C79 C 0.8341 0.95229 1.02976 0.0
Tb80 Tb 0.78324 0.73448 0.36713 0.0
C81 C 0.68879 0.63041 0.41813 0.0
Tb82 Tb 0.70948 0.77209 0.42018 0.0
O83 O 0.84081 0.73295 0.40913 0.0
O84 O 0.80286 0.79257 0.40922 0.0
O85 O 0.71806 0.6409 0.38841 0.0
C86 C 0.7284 0.85 0.47138 0.0
O87 O 0.68945 0.67684 0.43674 0.0
C88 C 0.64341 0.71666 0.36611 0.0
C89 C 0.75084 0.84598 0.35225 0.0
O90 O 0.67796 0.7935 0.46807 0.0
O91 O 0.76582 0.86063 0.44627 0.0
O92 O 0.62652 0.74684 0.38731 0.0
O93 O 0.69101 0.7163 0.37846 0.0
O94 O 0.73211 0.84538 0.38333 0.0
O95 O 0.7689 0.80597 0.34076 0.0
C96 C 0.8646 0.74633 0.31846 0.0
O97 O 0.87279 0.78845 0.34063 0.0
O98 O 0.80922 0.6954 0.32365 0.0
C99 C 0.83453 0.77464 0.42626 0.0
Tb100 Tb 0.05882 0.89801 0.76342 0.0
C101 C 0.0484 -1e-05 0.7239 0.0
Tb102 Tb 0.93621 0.85954 0.72586 0.0
O103 O 0.11933 0.93132 0.71857 0.0
O104 O 0.02423 0.86458 0.71454 0.0
O105 O 0.06682 0.98929 0.75306 0.0
C106 C 0.85372 0.8215 0.67485 0.0
O107 O 0.00049 0.95406 0.70744 0.0
C108 C 0.93662 0.89992 0.78763 0.0
C109 C 0.95778 0.75148 0.75734 0.0
O110 O 0.88936 0.87939 0.68467 0.0
O111 O 0.86173 0.7846 0.6953 0.0
O112 O 0.9008 0.90013 0.76353 0.0
O113 O 0.96292 0.86925 0.77738 0.0
O114 O 0.92088 0.76468 0.73818 0.0
O115 O 0.01121 0.79617 0.77097 0.0
C116 C 0.1439 0.92124 0.81115 0.0
O117 O 0.13325 0.8841 0.78586 0.0
O118 O 0.10697 0.94575 0.80943 0.0
C119 C 0.07346 0.90032 0.69743 0.0
H120 H 0.92156 0.83224 0.06667 0.0
H121 H -0.00256 0.97886 0.99123 0.0
H122 H 0.93903 0.76308 1.02997 0.0
H123 H 0.01168 0.9105 0.9544 0.0
H124 H 0.16254 0.93635 0.9568 0.0
H125 H 0.06141 0.86141 0.93011 0.0
H126 H 0.0111 0.73538 1.01189 0.0
H127 H 0.11109 0.80671 1.04011 0.0
C128 C 0.94273 0.85002 1.04245 0.0
C129 C 0.96308 0.91292 1.03309 0.0
C130 C 0.95156 0.80987 1.02091 0.0
C131 C 0.98289 0.83258 0.98994 0.0
C132 C 0.99232 0.89178 0.97876 0.0
C133 C 0.98526 0.93218 1.00043 0.0
C134 C 0.12994 0.89282 0.96958 0.0
C135 C 0.14005 0.88179 1.0029 0.0
C136 C 0.07245 0.84938 0.95429 0.0
C137 C 0.02318 0.8069 0.9756 0.0
C138 C 0.04427 0.77947 0.99975 0.0
C139 C 0.10093 0.82059 1.01622 0.0
H140 H 0.71378 0.9347 0.36481 0.0
H141 H 0.78552 0.86742 0.28552 0.0
H142 H 0.76608 0.03947 0.33891 0.0
H143 H 0.83488 0.9736 0.26063 0.0
H144 H 0.00547 0.01218 0.32767 0.0
H145 H 0.92694 0.00431 0.28918 0.0
H146 H 0.86506 0.09672 0.36025 0.0
H147 H 0.94729 0.10702 0.39841 0.0
C148 C 0.74029 0.94179 0.34198 0.0
C149 C 0.75362 0.89531 0.32976 0.0
C150 C 0.76999 0.00172 0.32692 0.0
C151 C 0.82073 0.01545 0.30514 0.0
C152 C 0.80786 0.96491 0.28342 0.0
C153 C 0.78003 0.90414 0.29765 0.0
C154 C 0.97455 0.03011 0.33541 0.0
C155 C 0.98017 0.05662 0.36713 0.0
C156 C 0.92938 0.02651 0.31286 0.0
C157 C 0.88494 0.04532 0.322 0.0
C158 C 0.89528 0.07806 0.35254 0.0
C159 C 0.94169 0.08282 0.37497 0.0
H160 H 0.17557 0.07655 0.73537 0.0
H161 H 0.0272 0.03815 0.66407 0.0
H162 H 0.25342 0.15599 0.69842 0.0
H163 H 0.10351 0.11608 0.62697 0.0
H164 H 0.12478 0.25979 0.62122 0.0
H165 H 0.17772 0.20503 0.59805 0.0
H166 H 0.30193 0.25826 0.68087 0.0
H167 H 0.25172 0.31387 0.70593 0.0
C168 C 0.15928 0.08639 0.71214 0.0
C169 C 0.0945 0.05412 0.70367 0.0
C170 C 0.2043 0.13109 0.69039 0.0
C171 C 0.18547 0.14688 0.66015 0.0
C172 C 0.12107 0.1091 0.65048 0.0
C173 C 0.0763 0.06468 0.67219 0.0
C174 C 0.16377 0.26052 0.63483 0.0
C175 C 0.17801 0.28297 0.66784 0.0
C176 C 0.19473 0.22985 0.62148 0.0
C177 C 0.22654 0.2112 0.64438 0.0
C178 C 0.26325 0.25884 0.66765 0.0
C179 C 0.23441 0.29044 0.68218 0.0
H180 H 0.37209 0.21987 0.93917 0.0
H181 H 0.1869 0.15402 0.98243 0.0
H182 H 0.34993 0.28088 0.89772 0.0
H183 H 0.16424 0.21261 0.94135 0.0
H184 H 0.13361 0.34096 0.87512 0.0
H185 H 0.17182 0.30056 0.91981 0.0
H186 H 0.29791 0.28198 0.8503 0.0
H187 H 0.26263 0.32707 0.80656 0.0
C188 C 0.32664 0.21827 0.93978 0.0
C189 C 0.28136 0.18185 0.96417 0.0
C190 C 0.31349 0.25301 0.91581 0.0
C191 C 0.25453 0.25208 0.91552 0.0
C192 C 0.21014 0.21582 0.94037 0.0
C193 C 0.22319 0.18151 0.96412 0.0
C194 C 0.17074 0.32981 0.86971 0.0
C195 C 0.19532 0.33779 0.83732 0.0
C196 C 0.19218 0.30533 0.89529 0.0
C197 C 0.23764 0.28611 0.8891 0.0
C198 C 0.26367 0.29645 0.85672 0.0
C199 C 0.24326 0.3224 0.83138 0.0
H200 H 0.06016 0.21973 0.32718 0.0
H201 H 0.16607 0.12159 0.31613 0.0
H202 H 0.01982 0.19068 0.27054 0.0
H203 H 0.12346 0.09025 0.2591 0.0
H204 H 0.96357 0.00081 0.1693 0.0
H205 H 0.00365 0.02114 0.22735 0.0
H206 H 0.07751 0.22149 0.21219 0.0
H207 H 0.03958 0.20168 0.15485 0.0
C208 C 0.07516 0.192 0.31265 0.0
C209 C 0.1168 0.17331 0.32652 0.0
C210 C 0.05157 0.17498 0.28008 0.0
C211 C 0.06778 0.13766 0.2601 0.0
C212 C 0.10922 0.11837 0.27383 0.0
C213 C 0.13406 0.13668 0.30647 0.0
C214 C 0.98786 0.04902 0.17854 0.0
C215 C -0.00235 0.09952 0.15732 0.0
C216 C 0.01151 0.06079 0.21169 0.0
C217 C 0.04411 0.12315 0.22458 0.0
C218 C 0.05267 0.17297 0.20335 0.0
C219 C 0.03063 0.16146 0.17035 0.0
H220 H 0.88746 0.19842 0.5901 0.0
H221 H 0.85671 0.0493 0.65912 0.0
H222 H 0.83275 0.11884 0.54646 0.0
H223 H 0.80189 0.9701 0.6159 0.0
H224 H 0.67308 0.83551 0.53389 0.0
H225 H 0.70928 0.91542 0.57858 0.0
H226 H 0.85891 0.05001 0.51442 0.0
H227 H 0.82296 0.97158 0.4705 0.0
C228 C 0.86818 0.14865 0.59606 0.0
C229 C 0.8766 0.13021 0.62799 0.0
C230 C 0.83713 0.10296 0.57106 0.0
C231 C 0.81313 0.03774 0.57754 0.0
C232 C 0.81933 0.01951 0.60996 0.0
C233 C 0.85109 0.06511 0.63472 0.0
C234 C 0.71304 0.88247 0.52936 0.0
C235 C 0.74487 0.89714 0.4986 0.0
C236 C 0.73408 0.92823 0.55494 0.0
C237 C 0.78687 0.98964 0.55009 0.0
C238 C 0.81749 0.00401 0.51902 0.0
C239 C 0.79699 0.95856 0.49381 0.0
H240 H 0.88299 0.04685 0.98095 0.0
H241 H 0.819 0.84839 0.99621 0.0
H242 H 0.91141 0.0381 0.92311 0.0
H243 H 0.84824 0.83989 0.93924 0.0
H244 H 0.96381 0.85571 0.84563 0.0
H245 H 0.94081 0.87127 0.90325 0.0
H246 H 0.86814 0.99119 0.8683 0.0
H247 H 0.89019 0.97463 0.81084 0.0
C248 C 0.87529 0.00153 0.97212 0.0
C249 C 0.84921 0.94863 0.99363 0.0
C250 C 0.89165 -0.00362 0.93886 0.0
C251 C 0.88368 0.9385 0.92628 0.0
C252 C 0.85654 0.88561 0.94781 0.0
C253 C 0.8391 0.89044 0.98063 0.0
C254 C 0.94332 0.88571 0.85025 0.0
C255 C 0.92848 0.91343 0.82336 0.0
C256 C 0.92973 0.89449 0.88341 0.0
C257 C 0.90194 0.93228 0.89089 0.0
C258 C 0.88959 0.96198 0.86394 0.0
C259 C 0.90206 0.95222 0.83081 0.0
H260 H 0.86611 0.66383 0.27078 0.0
H261 H 0.9721 0.85677 0.30596 0.0
H262 H 0.94973 0.68772 0.22899 0.0
H263 H 0.05303 0.88068 0.26433 0.0
H264 H 0.22124 0.90507 0.20918 0.0
H265 H 0.13872 0.86044 0.25219 0.0
H266 H -0.00103 0.7495 0.17768 0.0
H267 H 0.08263 0.79018 0.13522 0.0
C268 C 0.90703 0.71115 0.26961 0.0
C269 C 0.91259 0.7581 0.29201 0.0
C270 C 0.95495 0.72499 0.24564 0.0
C271 C 0.00944 0.78601 0.24365 0.0
C272 C 0.01357 0.83271 0.26573 0.0
C273 C 0.96636 0.81899 0.2895 0.0
C274 C 0.17322 0.86999 0.20215 0.0
C275 C 0.15861 0.85134 0.16878 0.0
C276 C 0.12558 0.84495 0.2267 0.0
C277 C 0.06143 0.80289 0.21839 0.0
C278 C 0.04751 0.78179 0.1852 0.0
C279 C 0.0956 0.80533 0.16079 0.0
H280 H 0.17703 0.9907 0.66428 0.0
H281 H 0.97927 0.85399 0.64853 0.0
H282 H 0.18562 0.02872 0.60731 0.0
H283 H 0.98747 0.89247 0.59093 0.0
H284 H 0.05454 0.9333 0.47888 0.0
H285 H 0.03617 0.89574 0.53657 0.0
H286 H 0.15376 0.08829 0.57057 0.0
H287 H 0.17176 0.1258 0.51256 0.0
C288 C 0.13515 0.96842 0.64859 0.0
C289 C 0.07729 0.91921 0.66132 0.0
C290 C 0.13998 0.99084 0.61579 0.0
C291 C 0.08726 0.96451 0.59414 0.0
C292 C 0.02938 0.91419 0.60662 0.0
C293 C 0.02446 0.89203 0.63975 0.0
C294 C 0.07612 0.96781 0.49866 0.0
C295 C 0.1152 0.03265 0.49086 0.0
C296 C 0.06526 0.94618 0.53191 0.0
C297 C 0.0939 0.98854 0.55864 0.0
C298 C 0.13158 0.05382 0.55083 0.0
C299 C 0.14169 0.07557 0.51749 0.0
H300 H 0.5192 0.16906 1.05487 0.0
H301 H 0.45564 0.02335 0.13065 0.0
H302 H 0.62691 0.18616 0.0599 0.0
H303 H 0.56121 0.03754 0.1343 0.0
H304 H 0.75634 0.07285 0.14395 0.0
H305 H 0.66652 0.09106 0.14837 0.0
H306 H 0.68305 0.1367 1.04325 0.0
H307 H 0.77547 0.12254 1.03969 0.0
C308 C 0.52823 0.14128 0.07295 0.0
C309 C 0.47824 0.09431 0.09206 0.0
C310 C 0.59005 0.15055 0.07557 0.0
C311 C 0.60331 0.11256 0.09708 0.0
C312 C 0.55391 0.06852 0.11768 0.0
C313 C 0.4926 0.05997 0.11542 0.0
C314 C 0.74152 0.08821 0.12201 0.0
C315 C 0.77266 0.09588 0.09144 0.0
C316 C 0.68948 0.09807 0.12439 0.0
C317 C 0.66594 0.11405 0.09603 0.0
C318 C 0.69961 0.12511 0.06582 0.0
C319 C 0.7527 0.11672 0.06366 0.0
H320 H 0.3797 0.26023 0.37729 0.0
H321 H 0.33937 0.29026 0.47803 0.0
H322 H 0.48482 0.354 0.38102 0.0
H323 H 0.44603 0.38115 0.48305 0.0
H324 H 0.59102 0.58923 0.46263 0.0
H325 H 0.4998 0.48427 0.46704 0.0
H326 H 0.58806 0.41319 0.39908 0.0
H327 H 0.67824 0.52028 0.39305 0.0
C328 C 0.39426 0.28584 0.40063 0.0
C329 C 0.35119 0.26841 0.42723 0.0
C330 C 0.45489 0.33969 0.40294 0.0
C331 C 0.4745 0.37662 0.43223 0.0
C332 C 0.43255 0.3558 0.45965 0.0
C333 C 0.37142 0.30311 0.45698 0.0
C334 C 0.59189 0.55114 0.44913 0.0
C335 C 0.64196 0.56369 0.42717 0.0
C336 C 0.53913 0.49018 0.45177 0.0
C337 C 0.53526 0.43934 0.43307 0.0
C338 C 0.58793 0.45103 0.41316 0.0
C339 C 0.6403 0.51249 0.41002 0.0
H340 H 0.90683 0.388 0.70729 0.0
H341 H 0.97911 0.41353 0.80782 0.0
H342 H 0.88902 0.47697 0.71401 0.0
H343 H 0.95768 0.50066 0.8154 0.0
H344 H 0.02316 0.70963 0.79506 0.0
H345 H 0.00991 0.60479 0.79766 0.0
H346 H 0.84286 0.53409 0.73517 0.0
H347 H 0.85836 0.64143 0.73117 0.0
C348 C 0.91672 0.41107 0.73135 0.0
C349 C 0.9455 0.39421 0.75685 0.0
C350 C 0.90623 0.46237 0.73526 0.0
C351 C 0.92328 0.49756 0.76501 0.0
C352 C 0.94598 0.47634 0.79168 0.0
C353 C 0.95768 0.42581 0.78752 0.0
C354 C 0.98302 0.6719 0.78205 0.0
C355 C 0.94233 0.68456 0.76249 0.0
C356 C 0.97491 0.61098 0.78391 0.0
C357 C 0.9253 0.56018 0.7666 0.0
C358 C 0.88233 0.57203 0.74842 0.0
C359 C 0.89087 0.63357 0.7463 0.0
H360 H 0.35998 0.12168 0.1412 0.0
H361 H 0.1556 0.02485 0.13379 0.0
H362 H 0.35249 0.10666 0.20126 0.0
H363 H 0.147 0.01602 0.1941 0.0
H364 H 0.32145 0.12192 0.31199 0.0
H365 H 0.33503 0.13322 0.25202 0.0
H366 H 0.15072 0.96551 0.23916 0.0
H367 H 0.13736 0.95563 0.29907 0.0
C368 C 0.31341 0.09857 0.15276 0.0
C369 C 0.25831 0.07423 0.13322 0.0
C370 C 0.30889 0.09022 0.18729 0.0
C371 C 0.24906 0.05954 0.20316 0.0
C372 C 0.19402 0.03774 0.18322 0.0
C373 C 0.19865 0.04376 0.14859 0.0
C374 C 0.285 0.08615 0.29623 0.0
C375 C 0.2285 0.03752 0.31008 0.0
C376 C 0.29251 0.09268 0.26163 0.0
C377 C 0.2439 0.0502 0.24014 0.0
C378 C 0.18912 -0.0005 0.25446 0.0
C379 C 0.18162 0.99313 0.28894 0.0
H380 H 0.03129 0.19547 0.52676 0.0
H381 H 0.18796 0.36895 0.48801 0.0
H382 H 0.02836 0.25212 0.57622 0.0
H383 H 0.18549 0.42575 0.53783 0.0
H384 H 0.21089 0.44302 0.6577 0.0
H385 H 0.211 0.41584 0.59911 0.0
H386 H 0.00791 0.34074 0.59456 0.0
H387 H 0.00808 0.36857 0.65297 0.0
C388 C 0.0644 0.24594 0.52863 0.0
C389 C 0.10985 0.27792 0.5037 0.0
C390 C 0.06252 0.27848 0.5568 0.0
C391 C 0.10658 0.34343 0.56071 0.0
C392 C 0.15106 0.37575 0.53536 0.0
C393 C 0.15231 0.34332 0.50691 0.0
C394 C 0.16691 0.42359 0.64371 0.0
C395 C 0.10928 0.40681 0.65979 0.0
C396 C 0.16685 0.4077 0.61023 0.0
C397 C 0.1092 0.37502 0.59261 0.0
C398 C 0.05279 0.36493 0.60779 0.0
C399 C 0.05295 0.38116 0.64108 0.0
H400 H 0.9053 0.19648 0.80748 0.0
H401 H 0.08148 0.19735 0.79018 0.0
H402 H 0.91746 0.18827 0.86737 0.0
H403 H 0.09412 0.18941 0.85014 0.0
H404 H 0.04952 0.10613 0.95748 0.0
H405 H 0.04845 0.11938 0.8975 0.0
H406 H 0.98644 0.25657 0.91166 0.0
H407 H 0.98587 0.24181 0.97199 0.0
C408 C 0.94626 0.19424 0.81658 0.0
C409 C 0.99281 0.19812 0.79455 0.0
C410 C 0.95375 0.19047 0.85081 0.0
C411 C 0.0076 0.18989 0.86347 0.0
C412 C 0.05238 0.19024 0.84114 0.0
C413 C 0.04517 0.19467 0.80692 0.0
C414 C 0.03718 0.14034 0.94783 0.0
C415 C 0.01774 0.17304 0.96926 0.0
C416 C 0.03652 0.14785 0.91343 0.0
C417 C 0.01623 0.18811 0.89988 0.0
C418 C 0.00082 0.224 0.92146 0.0
C419 C 0.00129 0.21629 0.95592 0.0
H420 H 0.82907 0.83663 0.19291 0.0
H421 H 0.6565 0.82967 0.15901 0.0
H422 H 0.77408 0.77638 0.24242 0.0
H423 H 0.60095 0.76917 0.20903 0.0
H424 H 0.59333 0.77594 0.3292 0.0
H425 H 0.61288 0.79982 0.26983 0.0
H426 H 0.68776 0.67186 0.26254 0.0
H427 H 0.6691 0.64891 0.32194 0.0
C428 C 0.77902 0.82126 0.19586 0.0
C429 C 0.74698 0.83783 0.17232 0.0
C430 C 0.74729 0.78625 0.22405 0.0
C431 C 0.683 0.76766 0.22945 0.0
C432 C 0.65044 0.78286 0.20542 0.0
C433 C 0.68213 0.81731 0.17689 0.0
C434 C 0.61104 0.75065 0.31454 0.0
C435 C 0.63096 0.71164 0.33006 0.0
C436 C 0.62245 0.76444 0.28055 0.0
C437 C 0.65328 0.73882 0.26182 0.0
C438 C 0.66517 0.69325 0.27659 0.0
C439 C 0.65403 0.67973 0.31048 0.0
H440 H 0.7902 0.67759 0.47077 0.0
H441 H 0.88732 0.88161 0.46371 0.0
H442 H 0.78236 0.68385 0.53087 0.0
H443 H 0.88493 0.88909 0.5242 0.0
H444 H 0.83117 0.89166 0.62983 0.0
H445 H 0.82305 0.87795 0.56957 0.0
H446 H 0.83294 0.70571 0.58076 0.0
H447 H 0.83621 0.71767 0.64078 0.0
C448 C 0.81105 0.7239 0.48233 0.0
C449 C 0.83863 0.7791 0.4628 0.0
C450 C 0.80692 0.7277 0.51688 0.0
C451 C 0.83241 0.78703 0.53283 0.0
C452 C 0.86283 0.8424 0.51306 0.0
C453 C 0.86522 0.83837 0.4784 0.0
C454 C 0.82912 0.84976 0.61926 0.0
C455 C 0.83351 0.80542 0.6399 0.0
C456 C 0.82583 0.8424 0.58464 0.0
C457 C 0.82848 0.79121 0.56984 0.0
C458 C 0.82985 0.74531 0.59087 0.0
C459 C 0.83161 0.752 0.62548 0.0
H460 H 0.18063 0.00772 0.86092 0.0
H461 H 0.20175 0.85206 0.82465 0.0
H462 H 0.24282 0.01492 0.91023 0.0
H463 H 0.26357 0.85867 0.87443 0.0
H464 H 0.38104 0.04256 0.98727 0.0
H465 H 0.35284 0.03893 0.9286 0.0
H466 H 0.2306 0.83586 0.93594 0.0
H467 H 0.25871 0.83966 0.99471 0.0
C468 C 0.19943 0.97569 0.86332 0.0
C469 C 0.18648 0.92934 0.83914 0.0
C470 C 0.23538 0.98004 0.89139 0.0
C471 C 0.25827 0.93749 0.89601 0.0
C472 C 0.24651 0.89201 0.8714 0.0
C473 C 0.21134 0.88835 0.843 0.0
C474 C 0.35015 -0.00311 0.97594 0.0
C475 C 0.32117 0.94153 0.99545 0.0
C476 C 0.33369 -0.00512 0.94249 0.0
C477 C 0.28862 0.93733 0.928 0.0
C478 C 0.26563 0.88084 0.9465 0.0
C479 C 0.28189 0.88293 0.9801 0.0
loop_
_geom_bond_atom_site_label_1
_geom_bond_atom_site_label_2
_geom_bond_distance
_geom_bond_site_symmetry_2
_ccdc_geom_bond_type
Tb0 O3 2.453 1_556 S
Tb0 O4 2.596 1_556 S
Tb0 O5 2.374 . S
Tb0 O13 2.343 . S
Tb0 O15 2.353 . S
Tb0 O17 2.427 . S
Tb0 O18 2.513 . S
C1 O5 1.251 1_554 S
C1 O7 1.263 1_545 S
Tb2 O4 2.343 1_565 S
Tb2 O7 2.353 . S
Tb2 O10 2.427 . S
Tb2 O11 2.513 . S
Tb2 O12 2.453 1_554 S
Tb2 O13 2.596 1_564 S
Tb2 O14 2.374 . S
O3 Tb0 2.453 1_554 S
O3 C19 1.245 . S
O4 Tb0 2.596 1_554 S
O4 Tb2 2.343 1_545 S
O4 C19 1.259 . S
O5 Tb0 2.374 . S
O5 C1 1.251 1_556 S
C6 O10 1.275 . S
C6 O11 1.246 . S
O7 C1 1.263 1_565 S
O7 Tb2 2.353 . S
C8 O12 1.245 . S
C8 O13 1.259 1_565 S
C9 O14 1.260 1_545 S
C9 O15 1.260 1_554 S
O10 Tb2 2.427 . S
O10 C6 1.275 . S
O11 Tb2 2.513 . S
O11 C6 1.246 . S
O12 Tb2 2.453 1_556 S
O12 C8 1.245 . S
O13 Tb0 2.343 . S
O13 Tb2 2.596 1_546 S
O13 C8 1.259 1_545 S
O14 Tb2 2.374 . S
O14 C9 1.260 1_565 S
O15 Tb0 2.353 . S
O15 C9 1.260 1_556 S
C16 O17 1.275 . S
C16 O18 1.246 . S
O17 Tb0 2.427 . S
O17 C16 1.275 . S
O18 Tb0 2.513 . S
O18 C16 1.246 . S
C19 O3 1.245 . S
C19 O4 1.259 . S
Tb20 O23 2.453 . S
Tb20 O24 2.596 . S
Tb20 O25 2.374 . S
Tb20 O33 2.343 . S
Tb20 O35 2.353 . S
Tb20 O37 2.427 . S
Tb20 O38 2.513 . S
C21 O25 1.251 . S
C21 O27 1.263 . S
Tb22 O24 2.343 . S
Tb22 O27 2.353 . S
Tb22 O30 2.427 . S
Tb22 O31 2.513 . S
Tb22 O32 2.453 . S
Tb22 O33 2.596 . S
Tb22 O34 2.374 . S
O23 Tb20 2.453 . S
O23 C39 1.245 . S
O24 Tb20 2.596 . S
O24 Tb22 2.343 . S
O24 C39 1.259 . S
O25 Tb20 2.374 . S
O25 C21 1.251 . S
C26 O30 1.275 . S
C26 O31 1.246 . S
O27 C21 1.263 . S
O27 Tb22 2.353 . S
C28 O32 1.245 . S
C28 O33 1.259 . S
C29 O34 1.250 . S
C29 O35 1.263 . S
O30 Tb22 2.427 . S
O30 C26 1.275 . S
O31 Tb22 2.513 . S
O31 C26 1.246 . S
O32 Tb22 2.453 . S
O32 C28 1.245 . S
O33 Tb20 2.343 . S
O33 Tb22 2.596 . S
O33 C28 1.259 . S
O34 Tb22 2.374 . S
O34 C29 1.250 . S
O35 Tb20 2.353 . S
O35 C29 1.263 . S
C36 O37 1.275 . S
C36 O38 1.246 . S
O37 Tb20 2.427 . S
O37 C36 1.275 . S
O38 Tb20 2.513 . S
O38 C36 1.246 . S
C39 O23 1.245 . S
C39 O24 1.259 . S
Tb40 O43 2.453 . S
Tb40 O44 2.596 1_655 S
Tb40 O45 2.374 . S
Tb40 O53 2.343 1_655 S
Tb40 O55 2.353 . S
Tb40 O57 2.427 . S
Tb40 O58 2.513 . S
C41 O45 1.251 1_455 S
C41 O47 1.263 . S
Tb42 O44 2.343 . S
Tb42 O47 2.353 . S
Tb42 O50 2.427 . S
Tb42 O51 2.513 . S
Tb42 O52 2.453 . S
Tb42 O53 2.596 . S
Tb42 O54 2.374 . S
O43 Tb40 2.453 . S
O43 C59 1.245 . S
O44 Tb40 2.596 1_455 S
O44 Tb42 2.343 . S
O44 C59 1.259 1_455 S
O45 Tb40 2.374 . S
O45 C41 1.251 1_655 S
C46 O50 1.275 . S
C46 O51 1.246 . S
O47 C41 1.263 . S
O47 Tb42 2.353 . S
C48 O52 1.245 . S
C48 O53 1.259 . S
C49 O54 1.250 . S
C49 O55 1.263 1_455 S
O50 Tb42 2.427 . S
O50 C46 1.275 . S
O51 Tb42 2.513 . S
O51 C46 1.246 . S
O52 Tb42 2.453 . S
O52 C48 1.245 . S
O53 Tb40 2.343 1_455 S
O53 Tb42 2.596 . S
O53 C48 1.259 . S
O54 Tb42 2.374 . S
O54 C49 1.250 . S
O55 Tb40 2.353 . S
O55 C49 1.263 1_655 S
C56 O57 1.275 . S
C56 O58 1.246 . S
O57 Tb40 2.427 . S
O57 C56 1.275 . S
O58 Tb40 2.513 . S
O58 C56 1.246 . S
C59 O43 1.245 . S
C59 O44 1.259 1_655 S
Tb60 O63 2.453 1_554 S
Tb60 O64 2.596 1_564 S
Tb60 O65 2.374 . S
Tb60 O73 2.343 1_565 S
Tb60 O75 2.353 . S
Tb60 O77 2.427 . S
Tb60 O78 2.513 . S
C61 O65 1.261 1_545 S
C61 O67 1.260 1_554 S
Tb62 O64 2.343 . S
Tb62 O67 2.353 . S
Tb62 O70 2.427 . S
Tb62 O71 2.513 . S
Tb62 O72 2.453 1_556 S
Tb62 O73 2.596 1_556 S
Tb62 O74 2.374 . S
O63 Tb60 2.453 1_556 S
O63 C79 1.245 . S
O64 Tb60 2.596 1_546 S
O64 Tb62 2.343 . S
O64 C79 1.259 1_545 S
O65 Tb60 2.374 . S
O65 C61 1.261 1_565 S
C66 O70 1.275 . S
C66 O71 1.246 . S
O67 C61 1.260 1_556 S
O67 Tb62 2.353 . S
C68 O72 1.245 . S
C68 O73 1.259 . S
C69 O74 1.250 1_554 S
C69 O75 1.263 1_545 S
O70 Tb62 2.427 . S
O70 C66 1.275 . S
O71 Tb62 2.513 . S
O71 C66 1.246 . S
O72 Tb62 2.453 1_554 S
O72 C68 1.245 . S
O73 Tb60 2.343 1_545 S
O73 Tb62 2.596 1_554 S
O73 C68 1.259 . S
O74 Tb62 2.374 . S
O74 C69 1.250 1_556 S
O75 Tb60 2.353 . S
O75 C69 1.263 1_565 S
C76 O77 1.275 . S
C76 O78 1.246 . S
O77 Tb60 2.427 . S
O77 C76 1.275 . S
O78 Tb60 2.513 . S
O78 C76 1.246 . S
C79 O63 1.245 . S
C79 O64 1.259 1_565 S
Tb80 O83 2.453 . S
Tb80 O84 2.596 . S
Tb80 O85 2.374 . S
Tb80 O93 2.343 . S
Tb80 O95 2.353 . S
Tb80 O97 2.427 . S
Tb80 O98 2.513 . S
C81 O85 1.251 . S
C81 O87 1.263 . S
Tb82 O84 2.343 . S
Tb82 O87 2.353 . S
Tb82 O90 2.427 . S
Tb82 O91 2.513 . S
Tb82 O92 2.453 . S
Tb82 O93 2.596 . S
Tb82 O94 2.374 . S
O83 Tb80 2.453 . S
O83 C99 1.245 . S
O84 Tb80 2.596 . S
O84 Tb82 2.343 . S
O84 C99 1.259 . S
O85 Tb80 2.374 . S
O85 C81 1.251 . S
C86 O90 1.275 . S
C86 O91 1.246 . S
O87 C81 1.263 . S
O87 Tb82 2.353 . S
C88 O92 1.245 . S
C88 O93 1.259 . S
C89 O94 1.250 . S
C89 O95 1.263 . S
O90 Tb82 2.427 . S
O90 C86 1.275 . S
O91 Tb82 2.513 . S
O91 C86 1.246 . S
O92 Tb82 2.453 . S
O92 C88 1.245 . S
O93 Tb80 2.343 . S
O93 Tb82 2.596 . S
O93 C88 1.259 . S
O94 Tb82 2.374 . S
O94 C89 1.250 . S
O95 Tb80 2.353 . S
O95 C89 1.263 . S
C96 O97 1.275 . S
C96 O98 1.246 . S
O97 Tb80 2.427 . S
O97 C96 1.275 . S
O98 Tb80 2.513 . S
O98 C96 1.246 . S
C99 O83 1.245 . S
C99 O84 1.259 . S
Tb100 O103 2.453 . S
Tb100 O104 2.596 . S
Tb100 O105 2.374 . S
Tb100 O113 2.348 . S
Tb100 O115 2.353 . S
Tb100 O117 2.427 . S
Tb100 O118 2.513 . S
C101 O105 1.251 . S
C101 O107 1.263 1_455 S
Tb102 O104 2.343 1_655 S
Tb102 O107 2.353 . S
Tb102 O110 2.427 . S
Tb102 O111 2.513 . S
Tb102 O112 2.453 . S
Tb102 O113 2.593 1_655 S
Tb102 O114 2.374 . S
O103 Tb100 2.453 . S
O103 C119 1.245 . S
O104 Tb100 2.596 . S
O104 Tb102 2.343 1_455 S
O104 C119 1.259 . S
O105 Tb100 2.374 . S
O105 C101 1.251 . S
C106 O110 1.275 . S
C106 O111 1.246 . S
O107 C101 1.263 1_655 S
O107 Tb102 2.353 . S
C108 O112 1.245 . S
C108 O113 1.255 1_655 S
C109 O114 1.250 1_455 S
C109 O115 1.263 . S
O110 Tb102 2.427 . S
O110 C106 1.275 . S
O111 Tb102 2.513 . S
O111 C106 1.246 . S
O112 Tb102 2.453 . S
O112 C108 1.245 . S
O113 Tb100 2.348 . S
O113 Tb102 2.593 1_455 S
O113 C108 1.255 1_455 S
O114 Tb102 2.374 . S
O114 C109 1.250 1_655 S
O115 Tb100 2.353 . S
O115 C109 1.263 . S
C116 O117 1.275 . S
C116 O118 1.246 . S
O117 Tb100 2.427 . S
O117 C116 1.275 . S
O118 Tb100 2.513 . S
O118 C116 1.246 . S
C119 O103 1.245 . S
C119 O104 1.259 . S
H120 C128 0.950 . S
H121 C133 0.950 . S
H122 C130 0.950 1_565 S
H123 C132 0.950 1_455 S
H124 C134 0.950 . S
H125 C136 0.950 . S
H126 C138 0.950 1_565 S
H127 C139 0.950 . S
C128 H120 0.950 . S
C128 C129 1.386 1_554 S
C128 C130 1.391 . S
C129 C128 1.386 1_556 S
C129 C133 1.393 . S
C130 H122 0.950 1_545 S
C130 C128 1.391 . S
C130 C131 1.400 1_654 S
C131 C130 1.400 1_456 S
C131 C132 1.398 1_455 S
C131 C137 1.491 . S
C132 H123 0.950 1_655 S
C132 C131 1.398 1_655 S
C132 C133 1.391 . S
C133 H121 0.950 . S
C133 C129 1.393 . S
C133 C132 1.391 . S
C134 H124 0.950 . S
C134 C135 1.386 . S
C134 C136 1.391 . S
C135 C134 1.386 . S
C135 C139 1.393 1_546 S
C136 H125 0.950 . S
C136 C134 1.391 . S
C136 C137 1.400 . S
C137 C131 1.491 . S
C137 C136 1.400 . S
C137 C138 1.398 1_556 S
C138 H126 0.950 1_545 S
C138 C137 1.398 1_554 S
C138 C139 1.391 1_545 S
C139 H127 0.950 . S
C139 C135 1.393 1_564 S
C139 C138 1.391 1_565 S
H140 C148 0.950 . S
H141 C153 0.950 . S
H142 C150 0.950 1_545 S
H143 C152 0.950 . S
H144 C154 0.950 . S
H145 C156 0.950 . S
H146 C158 0.950 . S
H147 C159 0.950 . S
C148 H140 0.950 . S
C148 C149 1.386 . S
C148 C150 1.391 . S
C149 C148 1.386 . S
C149 C153 1.393 . S
C150 H142 0.950 1_565 S
C150 C148 1.391 . S
C150 C151 1.400 . S
C151 C150 1.400 . S
C151 C152 1.398 . S
C151 C157 1.491 1_665 S
C152 H143 0.950 . S
C152 C151 1.398 . S
C152 C153 1.391 . S
C153 H141 0.950 . S
C153 C149 1.393 . S
C153 C152 1.391 . S
C154 H144 0.950 . S
C154 C155 1.386 . S
C154 C156 1.391 . S
C155 C154 1.386 . S
C155 C159 1.393 . S
C156 H145 0.950 . S
C156 C154 1.391 . S
C156 C157 1.400 . S
C157 C151 1.491 1_445 S
C157 C156 1.400 . S
C157 C158 1.398 . S
C158 H146 0.950 . S
C158 C157 1.398 . S
C158 C159 1.391 . S
C159 H147 0.950 . S
C159 C155 1.393 . S
C159 C158 1.391 . S
H160 C168 0.950 . S
H161 C173 0.950 . S
H162 C170 0.950 1_545 S
H163 C172 0.950 . S
H164 C174 0.950 . S
H165 C176 0.950 . S
H166 C178 0.950 . S
H167 C179 0.950 . S
C168 H160 0.950 . S
C168 C169 1.386 . S
C168 C170 1.391 . S
C169 C168 1.386 . S
C169 C173 1.393 . S
C170 H162 0.950 1_565 S
C170 C168 1.391 . S
C170 C171 1.400 1_565 S
C171 C170 1.400 1_545 S
C171 C172 1.398 1_545 S
C171 C177 1.491 . S
C172 H163 0.950 . S
C172 C171 1.398 1_565 S
C172 C173 1.391 . S
C173 H161 0.950 . S
C173 C169 1.393 . S
C173 C172 1.391 . S
C174 H164 0.950 . S
C174 C175 1.386 . S
C174 C176 1.391 . S
C175 C174 1.386 . S
C175 C179 1.393 . S
C176 H165 0.950 . S
C176 C174 1.391 . S
C176 C177 1.400 . S
C177 C171 1.491 . S
C177 C176 1.400 . S
C177 C178 1.398 . S
C178 H166 0.950 . S
C178 C177 1.398 . S
C178 C179 1.391 . S
C179 H167 0.950 . S
C179 C175 1.393 . S
C179 C178 1.391 . S
H180 C188 0.950 . S
H181 C193 0.950 . S
H182 C190 0.950 . S
H183 C192 0.950 . S
H184 C194 0.950 . S
H185 C196 0.950 . S
H186 C198 0.950 . S
H187 C199 0.950 . S
C188 H180 0.950 . S
C188 C189 1.386 . S
C188 C190 1.391 . S
C189 C188 1.386 . S
C189 C193 1.393 . S
C190 H182 0.950 . S
C190 C188 1.391 . S
C190 C191 1.400 . S
C191 C190 1.400 . S
C191 C192 1.398 . S
C191 C197 1.491 . S
C192 H183 0.950 . S
C192 C191 1.398 . S
C192 C193 1.391 . S
C193 H181 0.950 . S
C193 C189 1.393 . S
C193 C192 1.391 . S
C194 H184 0.950 . S
C194 C195 1.386 . S
C194 C196 1.391 . S
C195 C194 1.386 . S
C195 C199 1.393 . S
C196 H185 0.950 . S
C196 C194 1.391 . S
C196 C197 1.400 . S
C197 C191 1.491 . S
C197 C196 1.400 . S
C197 C198 1.398 . S
C198 H186 0.950 . S
C198 C197 1.398 . S
C198 C199 1.391 . S
C199 H187 0.950 . S
C199 C195 1.393 . S
C199 C198 1.391 . S
H200 C208 0.950 . S
H201 C213 0.950 . S
H202 C210 0.950 . S
H203 C212 0.950 . S
H204 C214 0.950 . S
H205 C216 0.950 1_455 S
H206 C218 0.950 . S
H207 C219 0.950 . S
C208 H200 0.950 . S
C208 C209 1.386 . S
C208 C210 1.391 . S
C209 C208 1.386 . S
C209 C213 1.393 . S
C210 H202 0.950 . S
C210 C208 1.391 . S
C210 C211 1.400 . S
C211 C210 1.400 . S
C211 C212 1.398 . S
C211 C217 1.491 1_455 S
C212 H203 0.950 . S
C212 C211 1.398 . S
C212 C213 1.391 . S
C213 H201 0.950 . S
C213 C209 1.393 . S
C213 C212 1.391 . S
C214 H204 0.950 . S
C214 C215 1.386 . S
C214 C216 1.391 . S
C215 C214 1.386 . S
C215 C219 1.393 . S
C216 H205 0.950 1_655 S
C216 C214 1.391 . S
C216 C217 1.400 . S
C217 C211 1.491 1_655 S
C217 C216 1.400 . S
C217 C218 1.398 . S
C218 H206 0.950 . S
C218 C217 1.398 . S
C218 C219 1.391 . S
C219 H207 0.950 . S
C219 C215 1.393 . S
C219 C218 1.391 . S
H220 C228 0.950 . S
H221 C233 0.950 . S
H222 C230 0.950 . S
H223 C232 0.951 1_565 S
H224 C234 0.950 . S
H225 C236 0.950 . S
H226 C238 0.950 . S
H227 C239 0.950 . S
C228 H220 0.950 . S
C228 C229 1.386 . S
C228 C230 1.391 . S
C229 C228 1.386 . S
C229 C233 1.393 . S
C230 H222 0.950 . S
C230 C228 1.391 . S
C230 C231 1.400 . S
C231 C230 1.400 . S
C231 C232 1.398 . S
C231 C237 1.489 . S
C232 H223 0.951 1_545 S
C232 C231 1.398 . S
C232 C233 1.391 . S
C233 H221 0.950 . S
C233 C229 1.393 . S
C233 C232 1.391 . S
C234 H224 0.950 . S
C234 C235 1.386 . S
C234 C236 1.391 . S
C235 C234 1.386 . S
C235 C239 1.393 . S
C236 H225 0.950 . S
C236 C234 1.391 . S
C236 C237 1.401 1_565 S
C237 C231 1.489 . S
C237 C236 1.401 1_545 S
C237 C238 1.399 . S
C238 H226 0.950 . S
C238 C237 1.399 . S
C238 C239 1.391 1_545 S
C239 H227 0.950 . S
C239 C235 1.393 . S
C239 C238 1.391 1_565 S
H240 C248 0.950 . S
H241 C253 0.950 . S
H242 C250 0.950 . S
H243 C252 0.950 . S
H244 C254 0.950 1_455 S
H245 C256 0.950 . S
H246 C258 0.950 . S
H247 C259 0.950 . S
C248 H240 0.950 . S
C248 C249 1.386 . S
C248 C250 1.391 . S
C249 C248 1.386 . S
C249 C253 1.393 . S
C250 H242 0.950 . S
C250 C248 1.391 . S
C250 C251 1.400 . S
C251 C250 1.400 . S
C251 C252 1.398 . S
C251 C257 1.491 . S
C252 H243 0.950 . S
C252 C251 1.398 . S
C252 C253 1.391 . S
C253 H241 0.950 . S
C253 C249 1.393 . S
C253 C252 1.391 . S
C254 H244 0.950 1_655 S
C254 C255 1.386 . S
C254 C256 1.391 . S
C255 C254 1.386 . S
C255 C259 1.393 . S
C256 H245 0.950 . S
C256 C254 1.391 . S
C256 C257 1.400 . S
C257 C251 1.491 . S
C257 C256 1.400 . S
C257 C258 1.398 . S
C258 H246 0.950 . S
C258 C257 1.398 . S
C258 C259 1.391 . S
C259 H247 0.950 . S
C259 C255 1.393 . S
C259 C258 1.391 . S
H260 C268 0.950 . S
H261 C273 0.950 . S
H262 C270 0.950 . S
H263 C272 0.950 . S
H264 C274 0.950 . S
H265 C276 0.950 . S
H266 C278 0.950 1_655 S
H267 C279 0.950 . S
C268 H260 0.950 . S
C268 C269 1.386 . S
C268 C270 1.391 . S
C269 C268 1.386 . S
C269 C273 1.393 . S
C270 H262 0.950 . S
C270 C268 1.391 . S
C270 C271 1.383 1_655 S
C271 C270 1.383 1_455 S
C271 C272 1.404 . S
C271 C277 1.502 . S
C272 H263 0.950 . S
C272 C271 1.404 . S
C272 C273 1.391 1_455 S
C273 H261 0.950 . S
C273 C269 1.393 . S
C273 C272 1.391 1_655 S
C274 H264 0.950 . S
C274 C275 1.386 . S
C274 C276 1.391 . S
C275 C274 1.386 . S
C275 C279 1.393 . S
C276 H265 0.950 . S
C276 C274 1.391 . S
C276 C277 1.400 . S
C277 C271 1.502 . S
C277 C276 1.400 . S
C277 C278 1.398 . S
C278 H266 0.950 1_455 S
C278 C277 1.398 . S
C278 C279 1.391 . S
C279 H267 0.950 . S
C279 C275 1.393 . S
C279 C278 1.391 . S
H280 C288 0.950 . S
H281 C293 0.950 . S
H282 C290 0.950 . S
H283 C292 0.950 . S
H284 C294 0.950 . S
H285 C296 0.950 1_565 S
H286 C298 0.950 . S
H287 C299 0.950 . S
C288 H280 0.950 . S
C288 C289 1.386 1_545 S
C288 C290 1.391 . S
C289 C288 1.386 1_565 S
C289 C293 1.393 . S
C290 H282 0.950 . S
C290 C288 1.391 . S
C290 C291 1.400 . S
C291 C290 1.400 . S
C291 C292 1.398 1_545 S
C291 C297 1.491 . S
C292 H283 0.950 . S
C292 C291 1.398 1_565 S
C292 C293 1.391 . S
C293 H281 0.950 . S
C293 C289 1.393 . S
C293 C292 1.391 . S
C294 H284 0.950 . S
C294 C295 1.386 . S
C294 C296 1.391 . S
C295 C294 1.386 . S
C295 C299 1.393 . S
C296 H285 0.950 1_545 S
C296 C294 1.391 . S
C296 C297 1.400 . S
C297 C291 1.491 . S
C297 C296 1.400 . S
C297 C298 1.398 . S
C298 H286 0.950 . S
C298 C297 1.398 . S
C298 C299 1.391 . S
C299 H287 0.950 . S
C299 C295 1.393 . S
C299 C298 1.391 . S
H300 C308 0.950 . S
H301 C313 0.950 1_565 S
H302 C310 0.950 . S
H303 C312 0.950 1_565 S
H304 C314 0.950 1_565 S
H305 C316 0.950 1_565 S
H306 C318 0.950 . S
H307 C319 0.950 . S
C308 H300 0.950 . S
C308 C309 1.386 1_556 S
C308 C310 1.391 . S
C309 C308 1.386 1_554 S
C309 C313 1.393 . S
C310 H302 0.950 . S
C310 C308 1.391 . S
C310 C311 1.400 1_556 S
C311 C310 1.400 1_554 S
C311 C312 1.398 . S
C311 C317 1.491 . S
C312 H303 0.950 1_545 S
C312 C311 1.398 . S
C312 C313 1.391 . S
C313 H301 0.950 1_545 S
C313 C309 1.393 . S
C313 C312 1.391 . S
C314 H304 0.950 1_545 S
C314 C315 1.386 . S
C314 C316 1.391 . S
C315 C314 1.386 . S
C315 C319 1.393 1_554 S
C316 H305 0.950 1_545 S
C316 C314 1.391 . S
C316 C317 1.400 . S
C317 C311 1.491 . S
C317 C316 1.400 . S
C317 C318 1.398 1_554 S
C318 H306 0.950 . S
C318 C317 1.398 1_556 S
C318 C319 1.391 . S
C319 H307 0.950 . S
C319 C315 1.393 1_556 S
C319 C318 1.391 . S
H320 C328 0.950 . S
H321 C333 0.950 . S
H322 C330 0.950 . S
H323 C332 0.950 . S
H324 C334 0.950 . S
H325 C336 0.950 . S
H326 C338 0.950 . S
H327 C339 0.950 . S
C328 H320 0.950 . S
C328 C329 1.386 . S
C328 C330 1.391 . S
C329 C328 1.386 . S
C329 C333 1.393 . S
C330 H322 0.950 . S
C330 C328 1.391 . S
C330 C331 1.400 . S
C331 C330 1.400 . S
C331 C332 1.398 . S
C331 C337 1.491 . S
C332 H323 0.950 . S
C332 C331 1.398 . S
C332 C333 1.391 . S
C333 H321 0.950 . S
C333 C329 1.393 . S
C333 C332 1.391 . S
C334 H324 0.950 . S
C334 C335 1.386 . S
C334 C336 1.391 . S
C335 C334 1.386 . S
C335 C339 1.393 . S
C336 H325 0.950 . S
C336 C334 1.391 . S
C336 C337 1.400 . S
C337 C331 1.491 . S
C337 C336 1.400 . S
C337 C338 1.398 . S
C338 H326 0.950 . S
C338 C337 1.398 . S
C338 C339 1.391 . S
C339 H327 0.950 . S
C339 C335 1.393 . S
C339 C338 1.391 . S
H340 C348 0.950 . S
H341 C353 0.950 . S
H342 C350 0.950 . S
H343 C352 0.950 . S
H344 C354 0.950 . S
H345 C356 0.950 . S
H346 C358 0.950 . S
H347 C359 0.950 . S
C348 H340 0.950 . S
C348 C349 1.386 1_655 S
C348 C350 1.391 . S
C349 C348 1.386 1_455 S
C349 C353 1.393 . S
C350 H342 0.950 . S
C350 C348 1.391 . S
C350 C351 1.400 1_655 S
C351 C350 1.400 1_455 S
C351 C352 1.398 . S
C351 C357 1.491 . S
C352 H343 0.950 . S
C352 C351 1.398 . S
C352 C353 1.391 . S
C353 H341 0.950 . S
C353 C349 1.393 . S
C353 C352 1.391 . S
C354 H344 0.950 . S
C354 C355 1.386 . S
C354 C356 1.391 . S
C355 C354 1.386 . S
C355 C359 1.393 1_455 S
C356 H345 0.950 . S
C356 C354 1.391 . S
C356 C357 1.400 . S
C357 C351 1.491 . S
C357 C356 1.400 . S
C357 C358 1.398 1_455 S
C358 H346 0.950 . S
C358 C357 1.398 1_655 S
C358 C359 1.391 . S
C359 H347 0.950 . S
C359 C355 1.393 1_655 S
C359 C358 1.391 . S
H360 C368 0.931 1_565 S
H361 C373 0.950 . S
H362 C370 0.950 . S
H363 C372 0.950 . S
H364 C374 0.950 . S
H365 C376 0.950 . S
H366 C378 0.950 . S
H367 C379 0.950 . S
C368 H360 0.931 1_545 S
C368 C369 1.386 . S
C368 C370 1.391 . S
C369 C368 1.386 . S
C369 C373 1.393 . S
C370 H362 0.950 . S
C370 C368 1.391 . S
C370 C371 1.400 . S
C371 C370 1.400 . S
C371 C372 1.398 . S
C371 C377 1.491 . S
C372 H363 0.950 . S
C372 C371 1.398 . S
C372 C373 1.391 . S
C373 H361 0.950 . S
C373 C369 1.393 . S
C373 C372 1.391 . S
C374 H364 0.950 . S
C374 C375 1.386 . S
C374 C376 1.391 . S
C375 C374 1.386 . S
C375 C379 1.393 . S
C376 H365 0.950 . S
C376 C374 1.391 . S
C376 C377 1.400 . S
C377 C371 1.491 . S
C377 C376 1.400 . S
C377 C378 1.398 . S
C378 H366 0.950 . S
C378 C377 1.398 . S
C378 C379 1.391 . S
C379 H367 0.950 . S
C379 C375 1.393 . S
C379 C378 1.391 . S
H380 C388 0.950 . S
H381 C393 0.950 . S
H382 C390 0.950 . S
H383 C392 0.950 . S
H384 C394 0.950 . S
H385 C396 0.950 . S
H386 C398 0.950 . S
H387 C399 0.950 . S
C388 H380 0.950 . S
C388 C389 1.386 . S
C388 C390 1.391 . S
C389 C388 1.386 . S
C389 C393 1.393 . S
C390 H382 0.950 . S
C390 C388 1.391 . S
C390 C391 1.400 . S
C391 C390 1.400 . S
C391 C392 1.398 . S
C391 C397 1.491 . S
C392 H383 0.950 . S
C392 C391 1.398 . S
C392 C393 1.391 . S
C393 H381 0.950 . S
C393 C389 1.393 . S
C393 C392 1.391 . S
C394 H384 0.950 . S
C394 C395 1.386 . S
C394 C396 1.391 . S
C395 C394 1.386 . S
C395 C399 1.393 . S
C396 H385 0.950 . S
C396 C394 1.391 . S
C396 C397 1.400 . S
C397 C391 1.491 . S
C397 C396 1.400 . S
C397 C398 1.398 . S
C398 H386 0.950 . S
C398 C397 1.398 . S
C398 C399 1.391 . S
C399 H387 0.950 . S
C399 C395 1.393 . S
C399 C398 1.391 . S
H400 C408 0.950 . S
H401 C413 0.950 1_455 S
H402 C410 0.950 . S
H403 C412 0.950 . S
H404 C414 0.950 . S
H405 C416 0.950 . S
H406 C418 0.950 . S
H407 C419 0.950 . S
C408 H400 0.950 . S
C408 C409 1.386 . S
C408 C410 1.391 . S
C409 C408 1.386 . S
C409 C413 1.393 . S
C410 H402 0.950 . S
C410 C408 1.391 . S
C410 C411 1.400 . S
C411 C410 1.400 . S
C411 C412 1.398 . S
C411 C417 1.491 . S
C412 H403 0.950 . S
C412 C411 1.398 . S
C412 C413 1.391 . S
C413 H401 0.950 1_655 S
C413 C409 1.393 . S
C413 C412 1.391 . S
C414 H404 0.950 . S
C414 C415 1.386 . S
C414 C416 1.391 . S
C415 C414 1.386 . S
C415 C419 1.393 . S
C416 H405 0.950 . S
C416 C414 1.391 . S
C416 C417 1.400 . S
C417 C411 1.491 . S
C417 C416 1.400 . S
C417 C418 1.398 . S
C418 H406 0.950 . S
C418 C417 1.398 . S
C418 C419 1.391 . S
C419 H407 0.950 . S
C419 C415 1.393 . S
C419 C418 1.391 . S
H420 C428 0.950 . S
H421 C433 0.950 . S
H422 C430 0.950 . S
H423 C432 0.950 . S
H424 C434 0.950 . S
H425 C436 0.950 . S
H426 C438 0.950 . S
H427 C439 0.950 . S
C428 H420 0.950 . S
C428 C429 1.386 . S
C428 C430 1.391 . S
C429 C428 1.386 . S
C429 C433 1.393 . S
C430 H422 0.950 . S
C430 C428 1.391 . S
C430 C431 1.400 . S
C431 C430 1.400 . S
C431 C432 1.398 . S
C431 C437 1.491 . S
C432 H423 0.950 . S
C432 C431 1.398 . S
C432 C433 1.391 . S
C433 H421 0.950 . S
C433 C429 1.393 . S
C433 C432 1.391 . S
C434 H424 0.950 . S
C434 C435 1.386 . S
C434 C436 1.391 . S
C435 C434 1.386 . S
C435 C439 1.393 . S
C436 H425 0.950 . S
C436 C434 1.391 . S
C436 C437 1.400 . S
C437 C431 1.491 . S
C437 C436 1.400 . S
C437 C438 1.398 . S
C438 H426 0.950 . S
C438 C437 1.398 . S
C438 C439 1.391 . S
C439 H427 0.950 . S
C439 C435 1.393 . S
C439 C438 1.391 . S
H440 C448 0.950 . S
H441 C453 0.950 . S
H442 C450 0.950 . S
H443 C452 0.950 . S
H444 C454 0.950 . S
H445 C456 0.950 . S
H446 C458 0.950 . S
H447 C459 0.950 . S
C448 H440 0.950 . S
C448 C449 1.386 . S
C448 C450 1.391 . S
C449 C448 1.386 . S
C449 C453 1.393 . S
C450 H442 0.950 . S
C450 C448 1.391 . S
C450 C451 1.400 . S
C451 C450 1.400 . S
C451 C452 1.398 . S
C451 C457 1.491 . S
C452 H443 0.950 . S
C452 C451 1.398 . S
C452 C453 1.391 . S
C453 H441 0.950 . S
C453 C449 1.393 . S
C453 C452 1.391 . S
C454 H444 0.950 . S
C454 C455 1.386 . S
C454 C456 1.391 . S
C455 C454 1.386 . S
C455 C459 1.393 . S
C456 H445 0.950 . S
C456 C454 1.391 . S
C456 C457 1.400 . S
C457 C451 1.491 . S
C457 C456 1.400 . S
C457 C458 1.398 . S
C458 H446 0.950 . S
C458 C457 1.398 . S
C458 C459 1.391 . S
C459 H447 0.950 . S
C459 C455 1.393 . S
C459 C458 1.391 . S
H460 C468 0.950 . S
H461 C473 0.950 . S
H462 C470 0.950 . S
H463 C472 0.950 . S
H464 C474 0.950 . S
H465 C476 0.950 . S
H466 C478 0.950 . S
H467 C479 0.950 . S
C468 H460 0.950 . S
C468 C469 1.386 . S
C468 C470 1.391 . S
C469 C468 1.386 . S
C469 C473 1.393 . S
C470 H462 0.950 . S
C470 C468 1.391 . S
C470 C471 1.400 . S
C471 C470 1.400 . S
C471 C472 1.398 . S
C471 C477 1.491 . S
C472 H463 0.950 . S
C472 C471 1.398 . S
C472 C473 1.391 . S
C473 H461 0.950 . S
C473 C469 1.393 . S
C473 C472 1.391 . S
C474 H464 0.950 . S
C474 C475 1.386 . S
C474 C476 1.391 . S
C475 C474 1.386 . S
C475 C479 1.393 . S
C476 H465 0.950 . S
C476 C474 1.391 . S
C476 C477 1.400 . S
C477 C471 1.491 . S
C477 C476 1.400 . S
C477 C478 1.398 . S
C478 H466 0.950 . S
C478 C477 1.398 . S
C478 C479 1.391 . S
C479 H467 0.950 . S
C479 C475 1.393 . S
C479 C478 1.391 . S
C129 C61 1.688 1_556 S
C135 C9 1.694 1_556 S
C149 C89 1.695 . S
C155 C21 1.693 . S
C169 C101 1.692 . S
C175 C49 1.697 . S
C189 C16 1.582 . S
C195 C46 1.552 . S
C209 C39 2.659 . S
C215 C68 2.515 . S
C229 C56 1.581 . S
C235 C86 1.551 . S
C249 C79 2.661 . S
C255 C108 2.513 . S
C269 C96 1.584 . S
C275 C6 1.555 . S
C289 C119 2.650 . S
C295 C28 2.499 . S
C309 C1 1.167 . S
C315 C69 1.146 . S
C329 C29 1.148 . S
C335 C81 1.164 . S
C349 C41 1.168 . S
C355 C109 1.146 . S
C369 C19 1.153 . S
C375 C26 1.178 . S
C389 C36 1.132 . S
C395 C48 1.118 . S
C409 C59 1.128 . S
C415 C66 1.175 . S
C429 C76 1.135 . S
C435 C88 1.125 . S
C449 C99 1.127 . S
C455 C106 1.175 . S
C469 C116 1.138 . S
C475 C8 1.130 . S
