# Generated by pormake.
# Topology umc, (4)-cn, num edge types: 1
# Building blocks:
#     Node 0, Type 0, BuildingBlock: NAWXER_clean_sbu_0, # of connection points: 4
#     Node 1, Type 0, BuildingBlock: NAWXER_clean_sbu_0, # of connection points: 4
#     Node 2, Type 0, BuildingBlock: NAWXER_clean_sbu_0, # of connection points: 4
#     Node 3, Type 0, BuildingBlock: NAWXER_clean_sbu_0, # of connection points: 4
#     Node 4, Type 0, BuildingBlock: NAWXER_clean_sbu_0, # of connection points: 4
#     Node 5, Type 0, BuildingBlock: NAWXER_clean_sbu_0, # of connection points: 4
#     Node 6, Type 0, BuildingBlock: NAWXER_clean_sbu_0, # of connection points: 4
#     Node 7, Type 0, BuildingBlock: NAWXER_clean_sbu_0, # of connection points: 4
#     Node 8, Type 0, BuildingBlock: NAWXER_clean_sbu_0, # of connection points: 4
#     Node 9, Type 0, BuildingBlock: NAWXER_clean_sbu_0, # of connection points: 4
#     Node 10, Type 0, BuildingBlock: NAWXER_clean_sbu_0, # of connection points: 4
#     Node 11, Type 0, BuildingBlock: NAWXER_clean_sbu_0, # of connection points: 4
#     Node 12, Type 0, BuildingBlock: NAWXER_clean_sbu_0, # of connection points: 4
#     Node 13, Type 0, BuildingBlock: NAWXER_clean_sbu_0, # of connection points: 4
#     Node 14, Type 0, BuildingBlock: NAWXER_clean_sbu_0, # of connection points: 4
#     Node 15, Type 0, BuildingBlock: NAWXER_clean_sbu_0, # of connection points: 4
#     Edge 16, Type (0, 0), BuildingBlock: TEMPAE_clean_linker_10, # of connection points: 2
#     Edge 17, Type (0, 0), BuildingBlock: TEMPAE_clean_linker_10, # of connection points: 2
#     Edge 18, Type (0, 0), BuildingBlock: TEMPAE_clean_linker_10, # of connection points: 2
#     Edge 19, Type (0, 0), BuildingBlock: TEMPAE_clean_linker_10, # of connection points: 2
#     Edge 20, Type (0, 0), BuildingBlock: TEMPAE_clean_linker_10, # of connection points: 2
#     Edge 21, Type (0, 0), BuildingBlock: TEMPAE_clean_linker_10, # of connection points: 2
#     Edge 22, Type (0, 0), BuildingBlock: TEMPAE_clean_linker_10, # of connection points: 2
#     Edge 23, Type (0, 0), BuildingBlock: TEMPAE_clean_linker_10, # of connection points: 2
#     Edge 24, Type (0, 0), BuildingBlock: TEMPAE_clean_linker_10, # of connection points: 2
#     Edge 25, Type (0, 0), BuildingBlock: TEMPAE_clean_linker_10, # of connection points: 2
#     Edge 26, Type (0, 0), BuildingBlock: TEMPAE_clean_linker_10, # of connection points: 2
#     Edge 27, Type (0, 0), BuildingBlock: TEMPAE_clean_linker_10, # of connection points: 2
#     Edge 28, Type (0, 0), BuildingBlock: TEMPAE_clean_linker_10, # of connection points: 2
#     Edge 29, Type (0, 0), BuildingBlock: TEMPAE_clean_linker_10, # of connection points: 2
#     Edge 30, Type (0, 0), BuildingBlock: TEMPAE_clean_linker_10, # of connection points: 2
#     Edge 31, Type (0, 0), BuildingBlock: TEMPAE_clean_linker_10, # of connection points: 2
#     Edge 32, Type (0, 0), BuildingBlock: TEMPAE_clean_linker_10, # of connection points: 2
#     Edge 33, Type (0, 0), BuildingBlock: TEMPAE_clean_linker_10, # of connection points: 2
#     Edge 34, Type (0, 0), BuildingBlock: TEMPAE_clean_linker_10, # of connection points: 2
#     Edge 35, Type (0, 0), BuildingBlock: TEMPAE_clean_linker_10, # of connection points: 2
#     Edge 36, Type (0, 0), BuildingBlock: TEMPAE_clean_linker_10, # of connection points: 2
#     Edge 37, Type (0, 0), BuildingBlock: TEMPAE_clean_linker_10, # of connection points: 2
#     Edge 38, Type (0, 0), BuildingBlock: TEMPAE_clean_linker_10, # of connection points: 2
#     Edge 39, Type (0, 0), BuildingBlock: TEMPAE_clean_linker_10, # of connection points: 2
#     Edge 40, Type (0, 0), BuildingBlock: TEMPAE_clean_linker_10, # of connection points: 2
#     Edge 41, Type (0, 0), BuildingBlock: TEMPAE_clean_linker_10, # of connection points: 2
#     Edge 42, Type (0, 0), BuildingBlock: TEMPAE_clean_linker_10, # of connection points: 2
#     Edge 43, Type (0, 0), BuildingBlock: TEMPAE_clean_linker_10, # of connection points: 2
#     Edge 44, Type (0, 0), BuildingBlock: TEMPAE_clean_linker_10, # of connection points: 2
#     Edge 45, Type (0, 0), BuildingBlock: TEMPAE_clean_linker_10, # of connection points: 2
#     Edge 46, Type (0, 0), BuildingBlock: TEMPAE_clean_linker_10, # of connection points: 2
#     Edge 47, Type (0, 0), BuildingBlock: TEMPAE_clean_linker_10, # of connection points: 2
# Relax obj value: 0.015
# Max RMSD: 0.104
# Mean RMSD: 0.104
data_MOF--net-umc--node1-NAWXER_clean_sbu_0--edge1-TEMPAE_clean_linker_10
_symmetry_space_group_name_H-M    P1
_symmetry_Int_Tables_number       1
_symmetry_cell_setting            triclinic
loop_
_symmetry_equiv_pos_as_xyz
'x, y, z'
_cell_length_a     55.178483
_cell_length_b     22.185409
_cell_length_c     59.096053
_cell_angle_alpha  89.986295
_cell_angle_beta   90.028938
_cell_angle_gamma 90.087732
loop_
_atom_site_label
_atom_site_type_symbol
_atom_site_fract_x
_atom_site_fract_y
_atom_site_fract_z
_atom_type_partial_charge
C0 C 0.38158 0.07667 0.41886 0.0
C1 C 0.38206 0.05258 0.33687 0.0
O2 O 0.38862 0.12438 0.40853 0.0
Zn3 Zn 0.39255 0.15492 0.37426 0.0
O4 O 0.37499 0.03066 0.40762 0.0
Zn5 Zn 0.38147 0.06356 0.37792 0.0
O6 O 0.42019 0.07892 0.37848 0.0
O7 O 0.42658 0.17625 0.37308 0.0
O8 O 0.37679 0.01311 0.35168 0.0
O9 O 0.38818 0.10583 0.34313 0.0
O10 O 0.36793 0.21766 0.37228 0.0
O11 O 0.35243 0.12605 0.37403 0.0
C12 C 0.43489 0.12353 0.37639 0.0
C13 C 0.34954 0.18306 0.37225 0.0
C14 C 0.69143 0.91089 0.38403 0.0
C15 C 0.60859 0.98869 0.37964 0.0
O16 O 0.68499 0.96585 0.38512 0.0
Zn17 Zn 0.6505 0.95111 0.38242 0.0
O18 O 0.67546 0.86934 0.38139 0.0
Zn19 Zn 0.63662 0.86227 0.37719 0.0
O20 O 0.6338 0.82998 0.34672 0.0
O21 O 0.64874 0.92232 0.34785 0.0
O22 O 0.60982 0.93157 0.37674 0.0
O23 O 0.62777 0.01831 0.38397 0.0
O24 O 0.64298 0.90115 0.41267 0.0
O25 O 0.62696 0.81351 0.40305 0.0
C26 C 0.64229 0.87579 0.33646 0.0
C27 C 0.63402 0.84994 0.4183 0.0
C28 C 0.36585 0.97213 0.08649 0.0
C29 C 0.36903 0.97689 0.16898 0.0
O30 O 0.3712 0.92082 0.09512 0.0
Zn31 Zn 0.37787 0.88373 0.12814 0.0
O32 O 0.36289 0.01758 0.09927 0.0
Zn33 Zn 0.36739 0.97555 0.12769 0.0
O34 O 0.40589 0.96 0.12811 0.0
O35 O 0.41168 0.86158 0.12632 0.0
O36 O 0.3623 0.01871 0.1557 0.0
O37 O 0.3753 0.92566 0.16084 0.0
O38 O 0.35391 0.82065 0.13022 0.0
O39 O 0.33791 0.91164 0.12765 0.0
C40 C 0.42026 0.91468 0.12732 0.0
C41 C 0.33534 0.85426 0.12885 0.0
C42 C 0.65174 0.94707 0.16861 0.0
C43 C 0.65345 0.97257 0.08664 0.0
O44 O 0.64363 0.99858 0.1623 0.0
Zn45 Zn 0.63968 0.04827 0.13123 0.0
O46 O 0.66046 0.91128 0.15395 0.0
Zn47 Zn 0.65412 0.9607 0.12761 0.0
O48 O 0.68089 0.03078 0.12994 0.0
O49 O 0.66131 0.11623 0.13498 0.0
O50 O 0.66096 0.92774 0.09803 0.0
O51 O 0.64524 0.01923 0.09687 0.0
O52 O 0.60548 0.06369 0.13065 0.0
O53 O 0.61476 0.96693 0.12788 0.0
C54 C 0.68117 0.08802 0.13284 0.0
C55 C 0.59882 0.00899 0.12898 0.0
C56 C 0.62815 0.85023 0.58613 0.0
C57 C 0.63984 0.87896 0.66755 0.0
O58 O 0.63623 0.90259 0.59137 0.0
Zn59 Zn 0.64664 0.95176 0.62091 0.0
O60 O 0.62439 0.81133 0.60154 0.0
Zn61 Zn 0.63381 0.86203 0.627 0.0
O62 O 0.60654 0.93106 0.62743 0.0
O63 O 0.62407 0.01857 0.62008 0.0
O64 O 0.6317 0.83183 0.65788 0.0
O65 O 0.64573 0.92492 0.65562 0.0
O66 O 0.68104 0.96623 0.61676 0.0
O67 O 0.67214 0.87003 0.62198 0.0
C68 C 0.60509 0.98825 0.62457 0.0
C69 C 0.6878 0.91166 0.61843 0.0
C70 C 0.37854 0.11015 0.58858 0.0
C71 C 0.37673 0.09191 0.67019 0.0
O72 O 0.37072 0.06743 0.60082 0.0
Zn73 Zn 0.37763 0.10375 0.62934 0.0
O74 O 0.38731 0.15779 0.59788 0.0
Zn75 Zn 0.39375 0.18829 0.63249 0.0
O76 O 0.42834 0.19842 0.63364 0.0
O77 O 0.41695 0.10379 0.62925 0.0
O78 O 0.38618 0.14258 0.66435 0.0
O79 O 0.36932 0.05598 0.65502 0.0
O80 O 0.35246 0.17892 0.63128 0.0
O81 O 0.37495 0.26089 0.63396 0.0
C82 C 0.43385 0.14336 0.63106 0.0
C83 C 0.35418 0.23653 0.63289 0.0
C84 C 0.65146 0.98699 0.91631 0.0
C85 C 0.6484 0.96627 0.83453 0.0
O86 O 0.65628 0.94144 0.90416 0.0
Zn87 Zn 0.65051 0.97867 0.87536 0.0
O88 O 0.64458 0.03627 0.90692 0.0
Zn89 Zn 0.6371 0.06645 0.87269 0.0
O90 O 0.60286 0.08344 0.87414 0.0
O91 O 0.61127 0.9862 0.87493 0.0
O92 O 0.64056 0.01806 0.8409 0.0
O93 O 0.65673 0.92993 0.84917 0.0
O94 O 0.67815 0.04858 0.87347 0.0
O95 O 0.65853 0.13418 0.86872 0.0
C96 C 0.59567 0.02908 0.87468 0.0
C97 C 0.67841 0.10601 0.87066 0.0
C98 C 0.36235 0.96058 0.91657 0.0
C99 C 0.36396 0.9707 0.83451 0.0
O100 O 0.35343 0.00051 0.90367 0.0
Zn101 Zn 0.36167 0.96259 0.87526 0.0
O102 O 0.37188 0.91322 0.90794 0.0
Zn103 Zn 0.37773 0.87726 0.87462 0.0
O104 O 0.41213 0.86526 0.87557 0.0
O105 O 0.40136 0.96126 0.87522 0.0
O106 O 0.3729 0.92069 0.84171 0.0
O107 O 0.35493 0.00772 0.84854 0.0
O108 O 0.33609 0.88928 0.87262 0.0
O109 O 0.35757 0.80577 0.87396 0.0
C110 C 0.41798 0.92068 0.87549 0.0
C111 C 0.33713 0.83155 0.87262 0.0
C112 C 0.87255 0.5756 0.42037 0.0
C113 C 0.86629 0.5563 0.3382 0.0
O114 O 0.88403 0.61718 0.40977 0.0
Zn115 Zn 0.8893 0.64588 0.37542 0.0
O116 O 0.8603 0.53696 0.40934 0.0
Zn117 Zn 0.86844 0.56606 0.37934 0.0
O118 O 0.90728 0.55318 0.37786 0.0
O119 O 0.92409 0.64258 0.3726 0.0
O120 O 0.85717 0.52187 0.35316 0.0
O121 O 0.87831 0.60306 0.34437 0.0
O122 O 0.87316 0.72382 0.37476 0.0
O123 O 0.8477 0.64727 0.37706 0.0
C124 C 0.92627 0.5859 0.37511 0.0
C125 C 0.85156 0.70409 0.37559 0.0
C126 C 0.14768 0.43827 0.4214 0.0
C127 C 0.14927 0.47678 0.34018 0.0
O128 O 0.13956 0.39427 0.4096 0.0
Zn129 Zn 0.13567 0.37037 0.37489 0.0
O130 O 0.1564 0.48453 0.41163 0.0
Zn131 Zn 0.15005 0.45896 0.38082 0.0
O132 O 0.11114 0.45209 0.38022 0.0
O133 O 0.10092 0.35772 0.37261 0.0
O134 O 0.15645 0.51265 0.3556 0.0
O135 O 0.14155 0.42412 0.34546 0.0
O136 O 0.15844 0.30365 0.37146 0.0
O137 O 0.17673 0.39153 0.37555 0.0
C138 C 0.0948 0.41189 0.37683 0.0
C139 C 0.17783 0.3346 0.37235 0.0
C140 C 0.86292 0.44766 0.08884 0.0
C141 C 0.86049 0.46015 0.17127 0.0
O142 O 0.87253 0.40154 0.09836 0.0
Zn143 Zn 0.87838 0.36904 0.1323 0.0
O144 O 0.85373 0.4891 0.10092 0.0
Zn145 Zn 0.86099 0.45365 0.12999 0.0
O146 O 0.90029 0.45655 0.13156 0.0
O147 O 0.91314 0.36223 0.13274 0.0
O148 O 0.85166 0.49687 0.15698 0.0
O149 O 0.87085 0.41192 0.16424 0.0
O150 O 0.85921 0.29587 0.13399 0.0
O151 O 0.83691 0.3777 0.13024 0.0
C152 C 0.91774 0.41837 0.1324 0.0
C153 C 0.83852 0.32028 0.132 0.0
C154 C 0.09044 0.56803 0.13128 0.0
C155 C 0.17059 0.65999 0.12595 0.0
O156 O 0.10751 0.52891 0.13259 0.0
Zn157 Zn 0.14669 0.52881 0.13105 0.0
O158 O 0.09559 0.62345 0.12871 0.0
Zn159 Zn 0.13032 0.61482 0.12872 0.0
O160 O 0.13615 0.56939 0.097 0.0
O161 O 0.15378 0.48216 0.10443 0.0
O162 O 0.15024 0.68666 0.12645 0.0
O163 O 0.17148 0.60244 0.12733 0.0
O164 O 0.15593 0.49619 0.15988 0.0
O165 O 0.13814 0.58488 0.16257 0.0
C166 C 0.14528 0.51945 0.0902 0.0
C167 C 0.14818 0.53924 0.17203 0.0
C168 C 0.13982 0.41273 0.5909 0.0
C169 C 0.14389 0.39749 0.67314 0.0
O170 O 0.14686 0.46144 0.60058 0.0
Zn171 Zn 0.15403 0.49395 0.63411 0.0
O172 O 0.13468 0.36629 0.60263 0.0
Zn173 Zn 0.14064 0.40281 0.63178 0.0
O174 O 0.11325 0.4707 0.63282 0.0
O175 O 0.13076 0.55953 0.63738 0.0
O176 O 0.13556 0.35752 0.65982 0.0
O177 O 0.15092 0.44827 0.66527 0.0
O178 O 0.1889 0.50873 0.63346 0.0
O179 O 0.17912 0.41238 0.63009 0.0
C180 C 0.11164 0.52797 0.6351 0.0
C181 C 0.19521 0.45397 0.63094 0.0
C182 C 0.85427 0.73308 0.63037 0.0
C183 C 0.9369 0.65705 0.63393 0.0
O184 O 0.87401 0.76251 0.63085 0.0
Zn185 Zn 0.89525 0.694 0.63192 0.0
O186 O 0.85471 0.67519 0.6307 0.0
Zn187 Zn 0.88239 0.6055 0.63144 0.0
O188 O 0.87398 0.56249 0.65816 0.0
O189 O 0.88786 0.65401 0.66515 0.0
O190 O 0.92143 0.61377 0.63402 0.0
O191 O 0.92951 0.711 0.63241 0.0
O192 O 0.88963 0.65662 0.59851 0.0
O193 O 0.87776 0.56266 0.60343 0.0
C194 C 0.87953 0.60323 0.67231 0.0
C195 C 0.883 0.60576 0.59021 0.0
C196 C 0.15165 0.48864 0.92102 0.0
C197 C 0.14802 0.45862 0.8398 0.0
O198 O 0.15725 0.44208 0.90971 0.0
Zn199 Zn 0.15066 0.4752 0.88035 0.0
O200 O 0.14427 0.5362 0.91078 0.0
Zn201 Zn 0.13752 0.56329 0.87627 0.0
O202 O 0.10328 0.58047 0.87604 0.0
O203 O 0.11154 0.48419 0.88134 0.0
O204 O 0.14129 0.51193 0.84543 0.0
O205 O 0.15539 0.4225 0.85496 0.0
O206 O 0.17855 0.54373 0.87599 0.0
O207 O 0.15927 0.6304 0.87278 0.0
C208 C 0.09599 0.52684 0.87929 0.0
C209 C 0.17902 0.60127 0.87353 0.0
C210 C 0.86273 0.45377 0.91827 0.0
C211 C 0.86547 0.48619 0.83684 0.0
O212 O 0.85687 0.50049 0.90713 0.0
Zn213 Zn 0.86304 0.46801 0.8777 0.0
O214 O 0.87014 0.40647 0.90779 0.0
Zn215 Zn 0.87699 0.38123 0.87266 0.0
O216 O 0.91133 0.36556 0.87249 0.0
O217 O 0.90228 0.46105 0.87868 0.0
O218 O 0.87332 0.43381 0.84229 0.0
O219 O 0.85702 0.52041 0.85211 0.0
O220 O 0.83581 0.39769 0.87481 0.0
O221 O 0.85565 0.3137 0.86757 0.0
C222 C 0.91817 0.4193 0.87633 0.0
C223 C 0.83571 0.34084 0.87069 0.0
C224 C 0.36086 0.05571 0.45552 0.0
C225 C 0.38125 0.07625 0.44374 0.0
C226 C 0.35962 0.06062 0.4792 0.0
C227 C 0.37966 0.08448 0.49129 0.0
C228 C 0.40065 0.10314 0.4794 0.0
C229 C 0.40098 0.09995 0.45571 0.0
C230 C 0.33665 0.04207 0.49121 0.0
C231 C 0.42272 0.12669 0.49169 0.0
C232 C 0.37211 0.1524 0.54992 0.0
C233 C 0.37839 0.10372 0.56378 0.0
C234 C 0.37166 0.14616 0.52627 0.0
C235 C 0.37865 0.09067 0.51634 0.0
C236 C 0.38537 0.04169 0.53035 0.0
C237 C 0.38468 0.04849 0.55394 0.0
C238 C 0.36364 0.19879 0.51192 0.0
C239 C 0.39382 0.98262 0.52044 0.0
H240 H 0.34552 0.03808 0.44613 0.0
H241 H 0.41678 0.11557 0.44649 0.0
H242 H 0.34059 0.00639 0.50382 0.0
H243 H 0.32913 0.08113 0.50058 0.0
H244 H 0.32262 0.02504 0.47932 0.0
H245 H 0.43816 0.13524 0.48005 0.0
H246 H 0.41825 0.16936 0.5005 0.0
H247 H 0.42857 0.0939 0.50478 0.0
H248 H 0.36706 0.19494 0.55761 0.0
H249 H 0.38976 0.01104 0.56474 0.0
H250 H 0.34884 0.18457 0.50036 0.0
H251 H 0.3789 0.21456 0.50123 0.0
H252 H 0.35717 0.23726 0.5223 0.0
H253 H 0.37942 0.96281 0.50966 0.0
H254 H 0.39879 0.94933 0.53369 0.0
H255 H 0.40983 0.99046 0.50945 0.0
C256 C 0.63177 0.78212 0.55251 0.0
C257 C 0.62389 0.83647 0.56203 0.0
C258 C 0.6318 0.77403 0.52887 0.0
C259 C 0.62323 0.82092 0.51466 0.0
C260 C 0.61349 0.87384 0.52446 0.0
C261 C 0.61429 0.8813 0.54799 0.0
C262 C 0.64267 0.71736 0.5191 0.0
C263 C 0.60363 0.9244 0.51003 0.0
C264 C 0.65047 0.85492 0.45732 0.0
C265 C 0.63239 0.83446 0.44255 0.0
C266 C 0.6484 0.84686 0.48075 0.0
C267 C 0.62737 0.81911 0.48974 0.0
C268 C 0.60946 0.79612 0.47484 0.0
C269 C 0.61233 0.80345 0.45131 0.0
C270 C 0.66824 0.87079 0.49593 0.0
C271 C 0.58663 0.76715 0.48375 0.0
H272 H 0.63936 0.74762 0.5634 0.0
H273 H 0.608 0.92317 0.55541 0.0
H274 H 0.63119 0.69935 0.50525 0.0
H275 H 0.66068 0.728 0.51177 0.0
H276 H 0.64504 0.68178 0.53215 0.0
H277 H 0.59378 0.95851 0.52025 0.0
H278 H 0.61879 0.94727 0.50116 0.0
H279 H 0.59116 0.90641 0.49694 0.0
H280 H 0.66615 0.87823 0.45052 0.0
H281 H 0.5983 0.78779 0.43987 0.0
H282 H 0.67361 0.83618 0.50852 0.0
H283 H 0.66149 0.9105 0.50542 0.0
H284 H 0.68458 0.88462 0.48624 0.0
H285 H 0.59095 0.73358 0.49706 0.0
H286 H 0.57608 0.74461 0.47014 0.0
H287 H 0.57503 0.80218 0.49163 0.0
C288 C 0.37119 0.02826 0.05009 0.0
C289 C 0.36304 0.97714 0.06174 0.0
C290 C 0.37059 0.03033 0.02631 0.0
C291 C 0.36091 0.98088 0.01408 0.0
C292 C 0.35158 0.93046 0.02593 0.0
C293 C 0.35313 0.9288 0.0496 0.0
C294 C 0.38129 0.08414 0.01427 0.0
C295 C 0.34049 0.87754 0.0136 0.0
C296 C 0.34332 0.99899 0.95217 0.0
C297 C 0.36232 0.96865 0.94136 0.0
C298 C 0.34268 0.00397 0.97588 0.0
C299 C 0.36188 0.97969 0.98892 0.0
C300 C 0.38155 0.95102 0.97794 0.0
C301 C 0.38132 0.94499 0.95432 0.0
C302 C 0.32108 0.03326 0.98701 0.0
C303 C 0.40269 0.92592 0.99115 0.0
H304 H 0.37899 0.06545 0.05952 0.0
H305 H 0.34659 0.8895 0.05866 0.0
H306 H 0.39732 0.06975 0.00431 0.0
H307 H 0.368 0.10325 1.00216 0.0
H308 H 0.38699 0.12014 0.02621 0.0
H309 H 0.33195 0.84473 0.02536 0.0
H310 H 0.32657 0.89341 1.00142 0.0
H311 H 0.35466 0.85378 0.00375 0.0
H312 H 0.32856 0.01704 0.94214 0.0
H313 H 0.39617 0.92214 0.94593 0.0
H314 H 0.32707 0.0703 0.99831 0.0
H315 H 0.31149 -0.0003 0.99769 0.0
H316 H 0.30806 0.05173 0.97446 0.0
H317 H 0.41013 0.96084 0.00267 0.0
H318 H 0.41747 0.90973 0.97995 0.0
H319 H 0.39651 0.88771 1.00181 0.0
C320 C 0.64615 0.92991 0.9523 0.0
C321 C 0.65317 0.98288 0.94117 0.0
C322 C 0.64645 0.92632 0.97602 0.0
C323 C 0.65484 0.97614 0.98881 0.0
C324 C 0.66272 0.02905 0.97755 0.0
C325 C 0.66133 0.0322 0.95385 0.0
C326 C 0.63708 0.86995 0.98739 0.0
C327 C 0.67251 0.08241 0.99054 0.0
C328 C 0.63431 0.99646 0.04965 0.0
C329 C 0.65369 0.97139 0.06171 0.0
C330 C 0.63421 0.99692 0.02592 0.0
C331 C 0.65443 0.97385 0.01399 0.0
C332 C 0.6742 0.94904 0.02615 0.0
C333 C 0.67338 0.94706 0.04992 0.0
C334 C 0.61242 0.0219 0.01362 0.0
C335 C 0.69641 0.92587 0.01407 0.0
H336 H 0.63963 0.89196 0.94246 0.0
H337 H 0.66695 0.07299 0.94519 0.0
H338 H 0.65132 0.85021 0.99836 0.0
H339 H 0.62149 0.88138 0.99844 0.0
H340 H 0.63117 0.83527 0.975 0.0
H341 H 0.67971 0.11808 0.97918 0.0
H342 H 0.65797 0.10223 1.00113 0.0
H343 H 0.68719 0.0677 1.00212 0.0
H344 H 0.61901 0.0149 0.05883 0.0
H345 H 0.68846 0.92825 0.05931 0.0
H346 H 0.60532 0.98798 1.0015 0.0
H347 H 0.61773 0.0622 0.00367 0.0
H348 H 0.59762 0.03483 0.02538 0.0
H349 H 0.69138 0.88864 0.00246 0.0
H350 H 0.71045 0.90924 0.02601 0.0
H351 H 0.7044 0.96233 0.00358 0.0
C352 C 0.8748 0.64719 0.55172 0.0
C353 C 0.88094 0.59802 0.56545 0.0
C354 C 0.87241 0.64059 0.5282 0.0
C355 C 0.87705 0.58387 0.51809 0.0
C356 C 0.88342 0.53412 0.53188 0.0
C357 C 0.88491 0.54158 0.55546 0.0
C358 C 0.86497 0.69438 0.51417 0.0
C359 C 0.88922 0.47343 0.5217 0.0
C360 C 0.85383 0.55612 0.45827 0.0
C361 C 0.87392 0.57336 0.44531 0.0
C362 C 0.85458 0.55892 0.48204 0.0
C363 C 0.87619 0.57753 0.49301 0.0
C364 C 0.89682 0.59255 0.47992 0.0
C365 C 0.8953 0.59123 0.45624 0.0
C366 C 0.83202 0.54409 0.49538 0.0
C367 C 0.92042 0.61088 0.49092 0.0
H368 H 0.87144 0.69071 0.55945 0.0
H369 H 0.88977 0.50357 0.56606 0.0
H370 H 0.87988 0.70713 0.50253 0.0
H371 H 0.849 0.6828 0.50359 0.0
H372 H 0.86039 0.7341 0.52478 0.0
H373 H 0.89373 0.43923 0.53476 0.0
H374 H 0.87362 0.45681 0.51163 0.0
H375 H 0.90482 0.47781 0.50996 0.0
H376 H 0.83724 0.54273 0.4498 0.0
H377 H 0.91094 0.60403 0.44621 0.0
H378 H 0.82608 0.58446 0.50496 0.0
H379 H 0.83588 0.50817 0.50792 0.0
H380 H 0.81687 0.529 0.48435 0.0
H381 H 0.91804 0.65417 0.50003 0.0
H382 H 0.93528 0.61637 0.47841 0.0
H383 H 0.92596 0.57666 0.5036 0.0
C384 C 0.14873 0.36457 0.55376 0.0
C385 C 0.13837 0.41173 0.5661 0.0
C386 C 0.15035 0.36778 0.53007 0.0
C387 C 0.14066 0.41848 0.51861 0.0
C388 C 0.12921 0.46488 0.53106 0.0
C389 C 0.1286 0.46142 0.55471 0.0
C390 C 0.16316 0.31813 0.51738 0.0
C391 C 0.11793 0.5186 0.51943 0.0
C392 C 0.16347 0.46155 0.46012 0.0
C393 C 0.14594 0.43477 0.44625 0.0
C394 C 0.16227 0.45548 0.48375 0.0
C395 C 0.14268 0.42351 0.49362 0.0
C396 C 0.12468 0.39752 0.47964 0.0
C397 C 0.12673 0.40274 0.4561 0.0
C398 C 0.18207 0.4827 0.49816 0.0
C399 C 0.10312 0.36479 0.48953 0.0
H400 H 0.15658 0.32664 0.56271 0.0
H401 H 0.12055 0.49778 0.56439 0.0
H402 H 0.1509 0.29819 0.50452 0.0
H403 H 0.179 0.33704 0.50822 0.0
H404 H 0.16957 0.28168 0.52879 0.0
H405 H 0.10827 0.54855 0.53148 0.0
H406 H 0.13216 0.5453 0.51075 0.0
H407 H 0.1049 0.50331 0.50631 0.0
H408 H 0.17842 0.48589 0.45246 0.0
H409 H 0.11302 0.38247 0.44535 0.0
H410 H 0.19029 0.44744 0.50904 0.0
H411 H 0.17434 0.51746 0.50953 0.0
H412 H 0.19659 0.50382 0.48781 0.0
H413 H 0.10929 0.32576 0.49973 0.0
H414 H 0.09046 0.34823 0.47628 0.0
H415 H 0.09305 0.39525 0.50107 0.0
C416 C 0.85484 0.4027 0.95519 0.0
C417 C 0.8617 0.45445 0.94322 0.0
C418 C 0.85398 0.4028 0.97895 0.0
C419 C 0.86106 0.45522 0.99098 0.0
C420 C 0.86823 0.50744 0.9789 0.0
C421 C 0.86804 0.50674 0.95514 0.0
C422 C 0.84549 0.34686 0.99118 0.0
C423 C 0.87672 0.56348 0.99107 0.0
C424 C 0.84242 0.47505 0.05256 0.0
C425 C 0.86263 0.45183 0.06392 0.0
C426 C 0.8415 0.47576 0.02878 0.0
C427 C 0.86165 0.45482 0.01619 0.0
C428 C 0.88239 0.43297 0.02768 0.0
C429 C 0.88243 0.43068 0.05142 0.0
C430 C 0.81878 0.49759 0.01715 0.0
C431 C 0.90456 0.41216 0.01493 0.0
H432 H 0.84977 0.3624 0.94594 0.0
H433 H 0.87357 0.54661 0.94586 0.0
H434 H 0.86051 0.328 1.00143 0.0
H435 H 0.83058 0.35832 0.00301 0.0
H436 H 0.83901 0.31145 0.97933 0.0
H437 H 0.88194 0.60005 0.97918 0.0
H438 H 0.86223 0.5805 1.00237 0.0
H439 H 0.89257 0.55258 1.00188 0.0
H440 H 0.82702 0.49083 0.06227 0.0
H441 H 0.89814 0.41311 0.06025 0.0
H442 H 0.81141 0.46142 0.00614 0.0
H443 H 0.82302 0.53662 0.00611 0.0
H444 H 0.80453 0.51123 0.02939 0.0
H445 H 0.9 0.37239 0.00438 0.0
H446 H 0.91969 0.39981 0.02643 0.0
H447 H 0.91088 0.44824 0.00333 0.0
C448 C 0.16705 0.48083 0.05622 0.0
C449 C 0.14634 0.50679 0.06579 0.0
C450 C 0.16913 0.47432 0.03266 0.0
C451 C 0.14968 0.49236 0.01857 0.0
C452 C 0.12828 0.51605 0.02833 0.0
C453 C 0.12707 0.52404 0.05182 0.0
C454 C 0.1925 0.45065 0.02282 0.0
C455 C 0.10685 0.53405 0.01394 0.0
C456 C 0.1595 0.54013 0.95767 0.0
C457 C 0.15286 0.48791 0.9459 0.0
C458 C 0.1596 0.54122 0.98139 0.0
C459 C 0.15201 0.4895 0.99354 0.0
C460 C 0.14546 0.43644 0.9817 0.0
C461 C 0.14636 0.43598 0.95795 0.0
C462 C 0.16743 0.59807 0.99342 0.0
C463 C 0.13655 0.38109 0.99403 0.0
H464 H 0.18203 0.46812 0.06709 0.0
H465 H 0.11099 0.54377 0.05932 0.0
H466 H 0.18884 0.41162 0.01161 0.0
H467 H 0.2011 0.48614 0.01229 0.0
H468 H 0.20555 0.43659 0.03613 0.0
H469 H 0.09081 0.54633 0.02432 0.0
H470 H 0.11175 0.57327 0.00323 0.0
H471 H 0.10174 0.49662 1.00243 0.0
H472 H 0.16471 0.58012 0.94829 0.0
H473 H 0.14101 0.39578 0.94878 0.0
H474 H 0.18134 0.58749 0.00639 0.0
H475 H 0.15172 0.61824 1.00234 0.0
H476 H 0.17496 0.63219 0.98158 0.0
H477 H 0.15003 0.36654 0.00682 0.0
H478 H 0.13293 0.34285 0.98237 0.0
H479 H 0.11957 0.39192 0.00324 0.0
C480 C 0.57853 0.06652 0.39227 0.0
C481 C 0.58472 0.01862 0.37795 0.0
C482 C 0.55482 0.08999 0.3924 0.0
C483 C 0.5372 0.06602 0.3774 0.0
C484 C 0.54385 0.01984 0.36208 0.0
C485 C 0.56738 0.99613 0.3628 0.0
C486 C 0.54832 0.13821 0.40933 0.0
C487 C 0.52587 0.99398 0.34541 0.0
C488 C 0.47002 0.06516 0.39124 0.0
C489 C 0.46131 0.11269 0.37792 0.0
C490 C 0.49484 0.05162 0.39209 0.0
C491 C 0.51134 0.08534 0.37877 0.0
C492 C 0.5027 0.1342 0.36559 0.0
C493 C 0.47779 0.14784 0.36556 0.0
C494 C 0.50329 0.0001 0.40681 0.0
C495 C 0.51959 0.17031 0.35075 0.0
H496 H 0.59188 0.08366 0.40411 0.0
H497 H 0.57221 0.95943 0.35155 0.0
H498 H 0.5393 0.17661 0.40078 0.0
H499 H 0.53527 0.11963 0.42181 0.0
H500 H 0.56445 0.15531 0.4186 0.0
H501 H 0.53456 0.96288 0.33313 0.0
H502 H 0.51157 0.9688 0.35463 0.0
H503 H 0.51683 0.03075 0.33588 0.0
H504 H 0.45736 0.03834 0.40104 0.0
H505 H 0.47108 0.18446 0.35516 0.0
H506 H 0.5186 0.01482 0.41769 0.0
H507 H 0.50998 0.96278 0.39601 0.0
H508 H 0.4886 0.98237 0.41781 0.0
H509 H 0.53523 0.18709 0.36073 0.0
H510 H 0.51037 0.20934 0.34273 0.0
H511 H 0.52694 0.14091 0.33721 0.0
C512 C 0.4562 0.96804 0.14285 0.0
C513 C 0.44663 0.92496 0.12801 0.0
C514 C 0.48118 0.97978 0.14352 0.0
C515 C 0.49679 0.94941 0.12831 0.0
C516 C 0.48712 0.90606 0.11316 0.0
C517 C 0.46214 0.89347 0.11351 0.0
C518 C 0.49085 0.02468 0.16049 0.0
C519 C 0.50304 0.87423 0.09619 0.0
C520 C 0.55655 0.02835 0.11602 0.0
C521 C 0.57286 0.9935 0.12858 0.0
C522 C 0.53182 0.01337 0.11524 0.0
C523 C 0.52314 0.96386 0.12807 0.0
C524 C 0.53958 0.92913 0.14106 0.0
C525 C 0.56435 0.94368 0.14079 0.0
C526 C 0.51503 0.05031 0.1006 0.0
C527 C 0.53093 0.87747 0.15563 0.0
H528 H 0.44414 0.992 0.15419 0.0
H529 H 0.45462 0.86053 0.1019 0.0
H530 H 0.50553 0.00386 0.17067 0.0
H531 H 0.49879 0.06396 0.15155 0.0
H532 H 0.47654 0.04118 0.17216 0.0
H533 H 0.49264 0.84246 0.08535 0.0
H534 H 0.5121 0.9079 0.08516 0.0
H535 H 0.51749 0.84876 0.10504 0.0
H536 H 0.56324 0.06656 0.10643 0.0
H537 H 0.57702 0.9171 0.15064 0.0
H538 H 0.50143 0.07348 0.11131 0.0
H539 H 0.50497 0.02041 0.08882 0.0
H540 H 0.5249 0.08481 0.09055 0.0
H541 H 0.51726 0.89391 0.16793 0.0
H542 H 0.54598 0.85585 0.16511 0.0
H543 H 0.52196 0.84281 0.145 0.0
C544 C 0.57467 0.0649 0.61201 0.0
C545 C 0.58121 0.01766 0.6265 0.0
C546 C 0.55107 0.0888 0.61242 0.0
C547 C 0.53397 0.06607 0.62818 0.0
C548 C 0.54093 0.02015 0.64349 0.0
C549 C 0.56433 0.99584 0.6422 0.0
C550 C 0.54416 0.13659 0.59543 0.0
C551 C 0.52352 0.99588 0.661 0.0
C552 C 0.4774 0.1572 0.64163 0.0
C553 C 0.45954 0.12485 0.62989 0.0
C554 C 0.50176 0.13884 0.64116 0.0
C555 C 0.50847 0.08806 0.62808 0.0
C556 C 0.49056 0.05637 0.61566 0.0
C557 C 0.46625 0.07458 0.61701 0.0
C558 C 0.52019 0.17271 0.65516 0.0
C559 C 0.49704 0.00293 0.60104 0.0
H560 H 0.58769 0.08139 0.59974 0.0
H561 H 0.56946 0.95959 0.65354 0.0
H562 H 0.52965 0.11906 0.58419 0.0
H563 H 0.53678 0.17675 0.6042 0.0
H564 H 0.55975 0.15083 0.58481 0.0
H565 H 0.53239 0.96395 0.67287 0.0
H566 H 0.5156 0.03347 0.67091 0.0
H567 H 0.50833 0.97215 0.65249 0.0
H568 H 0.47221 0.19593 0.6517 0.0
H569 H 0.4525 0.04991 0.60771 0.0
H570 H 0.53517 0.18908 0.64427 0.0
H571 H 0.52826 0.14195 0.66791 0.0
H572 H 0.51211 0.21187 0.66411 0.0
H573 H 0.51179 0.01528 0.58914 0.0
H574 H 0.48132 0.98612 0.59113 0.0
H575 H 0.50386 0.96564 0.61179 0.0
C576 C 0.55347 0.04801 0.88817 0.0
C577 C 0.56953 0.01495 0.87468 0.0
C578 C 0.52866 0.03354 0.88882 0.0
C579 C 0.51961 0.98653 0.87493 0.0
C580 C 0.53575 0.95415 0.86081 0.0
C581 C 0.5606 0.96794 0.86122 0.0
C582 C 0.51225 0.06767 0.90471 0.0
C583 C 0.52675 0.90524 0.84514 0.0
C584 C 0.46038 0.90708 0.88921 0.0
C585 C 0.44379 0.9383 0.87564 0.0
C586 C 0.48498 0.92344 0.88961 0.0
C587 C 0.49334 0.97053 0.87539 0.0
C588 C 0.47663 0.00163 0.86141 0.0
C589 C 0.45195 0.98591 0.86205 0.0
C590 C 0.502 0.89057 0.90535 0.0
C591 C 0.48491 0.05057 0.84541 0.0
H592 H 0.56046 0.08409 0.8987 0.0
H593 H 0.57304 0.94278 0.85063 0.0
H594 H 0.4978 0.09086 0.89502 0.0
H595 H 0.5032 0.03572 0.91646 0.0
H596 H 0.52224 0.10177 0.91485 0.0
H597 H 0.54139 0.88705 0.83421 0.0
H598 H 0.51895 0.86761 0.85513 0.0
H599 H 0.51208 0.92305 0.83415 0.0
H600 H 0.45399 0.87057 0.89986 0.0
H601 H 0.4391 0.00968 0.85141 0.0
H602 H 0.51169 0.92336 0.9163 0.0
H603 H 0.5159 0.86608 0.89542 0.0
H604 H 0.49237 0.85765 0.91632 0.0
H605 H 0.4934 0.08794 0.85503 0.0
H606 H 0.46975 0.06914 0.8352 0.0
H607 H 0.49887 0.03248 0.83374 0.0
C608 C 0.96979 0.58335 0.36323 0.0
C609 C 0.95047 0.5573 0.37512 0.0
C610 C 0.99276 0.55606 0.363 0.0
C611 C 0.99664 0.50241 0.37551 0.0
C612 C 0.9772 0.47613 0.38765 0.0
C613 C 0.95426 0.50346 0.38704 0.0
C614 C 0.01289 0.58479 0.34945 0.0
C615 C 0.98075 0.42001 0.40171 0.0
C616 C 0.05227 0.40718 0.36213 0.0
C617 C 0.0691 0.43014 0.37765 0.0
C618 C 0.0285 0.43004 0.36127 0.0
C619 C 0.02134 0.4755 0.37674 0.0
C620 C 0.03807 0.49675 0.39307 0.0
C621 C 0.06183 0.47449 0.39309 0.0
C622 C 0.01137 0.40724 0.34327 0.0
C623 C 0.031 0.54383 0.41031 0.0
H624 H 0.96686 0.62467 0.35382 0.0
H625 H 0.93939 0.48339 0.39639 0.0
H626 H 0.02753 0.60014 0.36097 0.0
H627 H 0.02092 0.55124 0.33773 0.0
H628 H 1.0065 0.62406 0.33944 0.0
H629 H 0.9637 0.40484 0.40995 0.0
H630 H 0.98773 0.38283 0.39101 0.0
H631 H 0.99449 0.42867 0.41505 0.0
H632 H 0.05799 0.37334 0.35004 0.0
H633 H 0.07485 0.49198 0.40519 0.0
H634 H 1.00618 0.44494 0.33192 0.0
H635 H 0.99448 0.39 0.35113 0.0
H636 H 0.01951 0.37077 0.3329 0.0
H637 H 0.02685 0.58694 0.40164 0.0
H638 H 0.04557 0.55212 0.42291 0.0
H639 H 0.01437 0.52958 0.41941 0.0
C640 C 0.05806 0.5021 0.14726 0.0
C641 C 0.06494 0.54808 0.13233 0.0
C642 C 0.03397 0.48172 0.14815 0.0
C643 C 0.0166 0.50625 0.13309 0.0
C644 C 0.02358 0.55236 0.11781 0.0
C645 C 0.04759 0.57355 0.11792 0.0
C646 C 0.02709 0.43409 0.16525 0.0
C647 C 1.00583 0.57828 0.10097 0.0
C648 C 0.96104 0.40996 0.12059 0.0
C649 C 0.94305 0.44001 0.13289 0.0
C650 C 0.98498 0.43163 0.1202 0.0
C651 C 0.99121 0.48317 0.13313 0.0
C652 C 0.97315 0.51273 0.14604 0.0
C653 C 0.94917 0.49147 0.14539 0.0
C654 C 1.00349 0.40001 0.10563 0.0
C655 C 0.97921 0.56646 0.16068 0.0
H656 H 0.0715 0.48271 0.1585 0.0
H657 H 0.05301 0.60869 0.10621 0.0
H658 H 0.01165 0.44999 0.17568 0.0
H659 H 0.0211 0.39256 0.15643 0.0
H660 H 0.04239 0.42243 0.17667 0.0
H661 H 0.0143 0.61276 0.08985 0.0
H662 H 0.99837 0.54167 0.09021 0.0
H663 H 0.99036 0.59921 0.10996 0.0
H664 H 0.95621 0.37048 0.11075 0.0
H665 H 0.93525 0.5144 0.15504 0.0
H666 H 0.0184 0.38232 0.11631 0.0
H667 H 0.01164 0.4325 0.09353 0.0
H668 H 0.99551 0.36197 0.09593 0.0
H669 H 0.99398 0.55469 0.17264 0.0
H670 H 0.96333 0.58244 0.17055 0.0
H671 H 0.98586 0.60414 0.15002 0.0
C672 C 0.98002 0.6822 0.62471 0.0
C673 C 0.96317 0.64399 0.63523 0.0
C674 C 1.00488 0.66845 0.62473 0.0
C675 C 0.01316 0.61622 0.63615 0.0
C676 C 0.99627 0.57878 0.64753 0.0
C677 C 0.97145 0.59259 0.64662 0.0
C678 C 0.02216 0.70851 0.61182 0.0
C679 C 1.00437 0.52351 0.66037 0.0
C680 C 0.07064 0.53567 0.61818 0.0
C681 C 0.0874 0.55588 0.63429 0.0
C682 C 0.04675 0.55709 0.61801 0.0
C683 C 0.03916 0.59819 0.63491 0.0
C684 C 0.05617 0.61951 0.65106 0.0
C685 C 0.08027 0.59875 0.65034 0.0
C686 C 0.02948 0.5346 0.60004 0.0
C687 C 0.04864 0.66207 0.66968 0.0
H688 H 0.97365 0.72181 0.61577 0.0
H689 H 0.95849 0.56329 0.65496 0.0
H690 H 0.03711 0.72378 0.62299 0.0
H691 H 0.03048 0.68258 0.59777 0.0
H692 H 0.01302 0.74876 0.60462 0.0
H693 H 0.98933 0.50246 0.67007 0.0
H694 H 0.01168 0.48963 0.6484 0.0
H695 H 0.01916 0.53538 0.67231 0.0
H696 H 0.07625 0.50272 0.60568 0.0
H697 H 0.09322 0.61383 0.66293 0.0
H698 H 0.02038 0.57315 0.59164 0.0
H699 H 0.01516 0.5065 0.60795 0.0
H700 H 0.0388 0.50721 0.58694 0.0
H701 H 0.03988 0.70268 0.66244 0.0
H702 H 0.06422 0.67651 0.6803 0.0
H703 H 0.03507 0.63963 0.6807 0.0
C704 C 0.06117 0.46573 0.89361 0.0
C705 C 0.06979 0.51292 0.88004 0.0
C706 C 0.03641 0.45088 0.89404 0.0
C707 C 0.02003 0.4826 0.87993 0.0
C708 C 0.02872 0.53012 0.86609 0.0
C709 C 0.05344 0.54538 0.86661 0.0
C710 C 0.02778 0.40125 0.90957 0.0
C711 C 0.012 0.56389 0.85033 0.0
C712 C 0.96111 0.40333 0.86434 0.0
C713 C 0.94425 0.43424 0.87771 0.0
C714 C 0.98579 0.41908 0.8647 0.0
C715 C 0.99389 0.46545 0.87937 0.0
C716 C 0.97697 0.49574 0.89334 0.0
C717 C 0.95229 0.48048 0.89204 0.0
C718 C 1.0031 0.3869 0.84906 0.0
C719 C 0.98496 0.54406 0.90972 0.0
H720 H 0.07379 0.44085 0.90412 0.0
H721 H 0.06013 0.5815 0.85593 0.0
H722 H 0.01301 0.41816 0.9206 0.0
H723 H 0.02025 0.36351 0.89946 0.0
H724 H 0.04257 0.38348 0.92044 0.0
H725 H 0.02167 0.59898 0.8404 0.0
H726 H 1.00329 0.53186 0.8384 0.0
H727 H 0.99731 0.58582 0.86011 0.0
H728 H 0.95488 0.36795 0.85309 0.0
H729 H 0.93928 0.50413 0.90252 0.0
H730 H 0.01735 0.36378 0.85904 0.0
H731 H 0.01233 0.42008 0.83794 0.0
H732 H 0.99381 0.353 0.83827 0.0
H733 H 0.99923 0.52615 0.92112 0.0
H734 H 0.96973 0.5611 0.9202 0.0
H735 H 0.99298 0.58252 0.90034 0.0
C736 C 0.21883 0.33313 0.35524 0.0
C737 C 0.20186 0.30666 0.3698 0.0
C738 C 0.24276 0.31205 0.35425 0.0
C739 C 0.25013 0.26494 0.36886 0.0
C740 C 0.23292 0.23761 0.38347 0.0
C741 C 0.20881 0.2582 0.38349 0.0
C742 C 0.26025 0.34092 0.33783 0.0
C743 C 0.2402 0.18839 0.39974 0.0
C744 C 0.30772 0.17684 0.35678 0.0
C745 C 0.32472 0.20707 0.37029 0.0
C746 C 0.28353 0.19608 0.35572 0.0
C747 C 0.27596 0.24531 0.36919 0.0
C748 C 0.29311 0.27594 0.38293 0.0
C749 C 0.31744 0.25708 0.38299 0.0
C750 C 0.26609 0.1637 0.3402 0.0
C751 C 0.28562 0.32758 0.398 0.0
H752 H 0.21336 0.37074 0.34469 0.0
H753 H 0.19571 0.23851 0.395 0.0
H754 H 0.27463 0.3652 0.34727 0.0
H755 H 0.26926 0.30582 0.32745 0.0
H756 H 0.25113 0.37339 0.32633 0.0
H757 H 0.22465 0.17162 0.40988 0.0
H758 H 0.24819 0.14993 0.39039 0.0
H759 H 0.25433 0.20559 0.41146 0.0
H760 H 0.31343 0.13819 0.3469 0.0
H761 H 0.33055 0.27988 0.39365 0.0
H762 H 0.25732 0.19642 0.3286 0.0
H763 H 0.2515 0.14211 0.35026 0.0
H764 H 0.27518 0.12845 0.32991 0.0
H765 H 0.2781 0.36482 0.38765 0.0
H766 H 0.30099 0.34543 0.40816 0.0
H767 H 0.2711 0.31255 0.40971 0.0
C768 C 0.73404 0.91965 0.37029 0.0
C769 C 0.71717 0.89368 0.38507 0.0
C770 C 0.75764 0.89615 0.3685 0.0
C771 C 0.76458 0.84685 0.38232 0.0
C772 C 0.74796 0.82337 0.39835 0.0
C773 C 0.7243 0.84629 0.39919 0.0
C774 C 0.77453 0.92134 0.35077 0.0
C775 C 0.75478 0.77207 0.41388 0.0
C776 C 0.80978 0.72901 0.36315 0.0
C777 C 0.83062 0.74538 0.37522 0.0
C778 C 0.78865 0.76389 0.36429 0.0
C779 C 0.78806 0.81527 0.3785 0.0
C780 C 0.80929 0.83292 0.3903 0.0
C781 C 0.83051 0.79815 0.38823 0.0
C782 C 0.76668 0.74437 0.35089 0.0
C783 C 0.80922 0.88639 0.40607 0.0
H784 H 0.72834 0.95585 0.35918 0.0
H785 H 0.71117 0.82642 0.41065 0.0
H786 H 0.79266 0.9305 0.3581 0.0
H787 H 0.77697 0.88755 0.33712 0.0
H788 H 0.76744 0.96355 0.34313 0.0
H789 H 0.74101 0.76456 0.42731 0.0
H790 H 0.75659 0.72993 0.40393 0.0
H791 H 0.77254 0.78106 0.42202 0.0
H792 H 0.80995 0.68835 0.35297 0.0
H793 H 0.84659 0.81042 0.39773 0.0
H794 H 0.75907 0.78312 0.34138 0.0
H795 H 0.75241 0.72797 0.36258 0.0
H796 H 0.77096 0.70774 0.33872 0.0
H797 H 0.80162 0.92661 0.39749 0.0
H798 H 0.82767 0.89747 0.41237 0.0
H799 H 0.79742 0.87644 0.42081 0.0
C800 C 0.19726 0.745 0.13804 0.0
C801 C 0.19344 0.69413 0.12449 0.0
C802 C 0.22011 0.77306 0.13882 0.0
C803 C 0.23918 0.75082 0.1251 0.0
C804 C 0.23495 0.70109 0.11061 0.0
C805 C 0.21225 0.6726 0.11082 0.0
C806 C 0.22412 0.82481 0.15498 0.0
C807 C 0.25451 0.67732 0.09515 0.0
C808 C 0.29311 0.85339 0.11406 0.0
C809 C 0.31083 0.82783 0.12806 0.0
C810 C 0.26976 0.82846 0.11274 0.0
C811 C 0.26379 0.77816 0.1264 0.0
C812 C 0.28154 0.75298 0.14094 0.0
C813 C 0.30503 0.77747 0.14127 0.0
C814 C 0.25165 0.85518 0.09642 0.0
C815 C 0.27569 0.70043 0.15624 0.0
H816 H 0.18274 0.76101 0.14882 0.0
H817 H 0.20918 0.63327 0.1003 0.0
H818 H 0.23826 0.81242 0.1675 0.0
H819 H 0.23079 0.86499 0.1457 0.0
H820 H 0.20734 0.83724 0.16424 0.0
H821 H 0.24764 0.64185 0.08352 0.0
H822 H 0.26225 0.71459 0.08489 0.0
H823 H 0.26949 0.65805 0.10535 0.0
H824 H 0.29772 0.89207 0.10368 0.0
H825 H 0.31872 0.75808 0.15223 0.0
H826 H 0.23543 0.87111 0.10571 0.0
H827 H 0.24549 0.82011 0.08432 0.0
H828 H 0.25932 0.89357 0.08669 0.0
H829 H 0.25968 0.71121 0.16686 0.0
H830 H 0.29107 0.68855 0.16752 0.0
H831 H 0.27096 0.66031 0.14594 0.0
C832 C 0.70756 0.17238 0.14644 0.0
C833 C 0.70453 0.12073 0.1331 0.0
C834 C 0.72982 0.20329 0.14689 0.0
C835 C 0.74917 0.18323 0.13305 0.0
C836 C 0.74604 0.13145 0.11934 0.0
C837 C 0.72389 0.10023 0.11984 0.0
C838 C 0.73265 0.25727 0.16223 0.0
C839 C 0.7659 0.10976 0.10379 0.0
C840 C 0.79678 0.30036 0.11783 0.0
C841 C 0.81621 0.28348 0.13171 0.0
C842 C 0.77509 0.26723 0.1177 0.0
C843 C 0.77246 0.21734 0.13246 0.0
C844 C 0.79201 0.20037 0.14665 0.0
C845 C 0.81385 0.23305 0.14581 0.0
C846 C 0.75503 0.2856 0.10175 0.0
C847 C 0.78966 0.14861 0.1631 0.0
H848 H 0.69266 0.18798 0.15684 0.0
H849 H 0.72149 0.06056 0.10935 0.0
H850 H 0.74862 0.25114 0.17342 0.0
H851 H 0.73594 0.29835 0.15198 0.0
H852 H 0.71639 0.26485 0.17292 0.0
H853 H 0.76044 0.06929 0.09395 0.0
H854 H 0.77092 0.14614 0.09177 0.0
H855 H 0.78236 0.09867 0.11371 0.0
H856 H 0.79868 0.33918 0.10681 0.0
H857 H 0.82881 0.22042 0.15671 0.0
H858 H 0.73886 0.29973 0.11153 0.0
H859 H 0.74955 0.24664 0.09112 0.0
H860 H 0.76049 0.3233 0.09046 0.0
H861 H 0.77429 0.15701 0.17479 0.0
H862 H 0.80637 0.1419 0.17327 0.0
H863 H 0.78561 0.10629 0.15386 0.0
C864 C 0.72098 0.84655 0.60415 0.0
C865 C 0.71362 0.89521 0.61754 0.0
C866 C 0.74482 0.82481 0.60522 0.0
C867 C 0.76135 0.85076 0.62078 0.0
C868 C 0.75407 0.9008 0.63405 0.0
C869 C 0.73033 0.92312 0.63198 0.0
C870 C 0.75205 0.77279 0.5902 0.0
C871 C 0.77087 0.92849 0.65134 0.0
C872 C 0.81072 0.74391 0.64072 0.0
C873 C 0.83091 0.76505 0.62878 0.0
C874 C 0.78821 0.77297 0.63895 0.0
C875 C 0.78564 0.82285 0.62414 0.0
C876 C 0.80603 0.84419 0.61196 0.0
C877 C 0.82856 0.81567 0.61476 0.0
C878 C 0.76713 0.74997 0.65279 0.0
C879 C 0.80385 0.89574 0.59541 0.0
H880 H 0.70794 0.82501 0.59303 0.0
H881 H 0.72441 0.96014 0.64259 0.0
H882 H 0.76939 0.78294 0.58148 0.0
H883 H 0.75495 0.73187 0.60064 0.0
H884 H 0.73804 0.76251 0.57725 0.0
H885 H 0.76293 0.96913 0.65941 0.0
H886 H 0.77491 0.89487 0.66473 0.0
H887 H 0.78835 0.94113 0.6434 0.0
H888 H 0.81262 0.70497 0.65167 0.0
H889 H 0.84417 0.83159 0.60535 0.0
H890 H 0.753 0.73127 0.64142 0.0
H891 H 0.75878 0.78755 0.6624 0.0
H892 H 0.77265 0.71424 0.66491 0.0
H893 H 0.79087 0.88349 0.58181 0.0
H894 H 0.82151 0.90754 0.58753 0.0
H895 H 0.79656 0.93627 0.604 0.0
C896 C 0.23698 0.4492 0.64699 0.0
C897 C 0.22082 0.43609 0.6294 0.0
C898 C 0.25988 0.4214 0.6479 0.0
C899 C 0.26682 0.38091 0.6305 0.0
C900 C 0.25102 0.37075 0.61199 0.0
C901 C 0.22804 0.39763 0.61189 0.0
C902 C 0.27594 0.43233 0.66816 0.0
C903 C 0.25792 0.32931 0.59278 0.0
C904 C 0.33273 0.33313 0.62434 0.0
C905 C 0.33213 0.27439 0.63311 0.0
C906 C 0.31168 0.36868 0.62354 0.0
C907 C 0.28969 0.34553 0.63234 0.0
C908 C 0.28921 0.28689 0.64188 0.0
C909 C 0.31034 0.25169 0.64182 0.0
C910 C 0.31279 0.43016 0.61263 0.0
C911 C 0.26628 0.26103 0.65193 0.0
H912 H 0.23112 0.47808 0.66073 0.0
H913 H 0.21539 0.38734 0.59837 0.0
H914 H 0.27734 0.39024 0.67823 0.0
H915 H 0.29453 0.44458 0.6627 0.0
H916 H 0.26883 0.46863 0.67927 0.0
H917 H 0.24485 0.33177 0.5785 0.0
H918 H 0.27626 0.34076 0.58637 0.0
H919 H 0.25852 0.2821 0.59893 0.0
H920 H 0.34953 0.35066 0.61745 0.0
H921 H 0.30988 0.2065 0.6488 0.0
H922 H 0.3061 0.46503 0.62452 0.0
H923 H 0.30076 0.43108 0.59757 0.0
H924 H 0.33144 0.44239 0.60724 0.0
H925 H 0.25858 0.29278 0.66452 0.0
H926 H 0.26941 0.2169 0.66031 0.0
H927 H 0.25251 0.25476 0.63845 0.0
C928 C 0.7214 0.12018 0.88312 0.0
C929 C 0.70167 0.13941 0.87005 0.0
C930 C 0.74323 0.15301 0.88344 0.0
C931 C 0.74567 0.20515 0.86975 0.0
C932 C 0.72594 0.22385 0.8561 0.0
C933 C 0.70405 0.19138 0.85673 0.0
C934 C 0.76353 0.13254 0.89875 0.0
C935 C 0.728 0.278 0.84073 0.0
C936 C 0.79327 0.32379 0.88415 0.0
C937 C 0.81258 0.30688 0.87012 0.0
C938 C 0.77156 0.29053 0.88446 0.0
C939 C 0.76877 0.24038 0.86983 0.0
C940 C 0.78807 0.22396 0.85528 0.0
C941 C 0.80989 0.25676 0.85589 0.0
C942 C 0.75174 0.3085 0.90072 0.0
C943 C 0.7856 0.17205 0.83891 0.0
H944 H 0.71953 0.08034 0.89361 0.0
H945 H 0.68887 0.20611 0.84648 0.0
H946 H 0.77986 0.12187 0.88859 0.0
H947 H 0.76854 0.1694 0.91056 0.0
H948 H 0.75852 0.09209 0.90881 0.0
H949 H 0.71142 0.28489 0.83038 0.0
H950 H 0.73127 0.3192 0.85091 0.0
H951 H 0.74371 0.27256 0.8292 0.0
H952 H 0.7954 0.36216 0.89534 0.0
H953 H 0.82474 0.24382 0.84493 0.0
H954 H 0.74704 0.26981 0.9118 0.0
H955 H 0.73513 0.32083 0.89123 0.0
H956 H 0.75708 0.34725 0.91154 0.0
H957 H 0.78254 0.12947 0.84833 0.0
H958 H 0.8019 0.16661 0.82809 0.0
H959 H 0.7696 0.17914 0.82784 0.0
C960 C 0.20525 0.68831 0.88429 0.0
C961 C 0.20241 0.63387 0.87256 0.0
C962 C 0.22751 0.71917 0.88424 0.0
C963 C 0.24713 0.69633 0.87139 0.0
C964 C 0.24414 0.64194 0.85909 0.0
C965 C 0.22195 0.61066 0.86022 0.0
C966 C 0.23014 0.7757 0.89827 0.0
C967 C 0.26425 0.61722 0.8445 0.0
C968 C 0.29604 0.81121 0.85657 0.0
C969 C 0.3146 0.79553 0.87163 0.0
C970 C 0.27437 0.77784 0.85569 0.0
C971 C 0.27075 0.72935 0.87096 0.0
C972 C 0.28944 0.7138 0.88636 0.0
C973 C 0.31135 0.7463 0.88616 0.0
C974 C 0.25533 0.79452 0.83844 0.0
C975 C 0.28603 0.66407 0.90351 0.0
H976 H 0.1902 0.70595 0.89403 0.0
H977 H 0.21969 0.56872 0.85104 0.0
H978 H 0.24558 0.77087 0.91017 0.0
H979 H 0.23417 0.81474 0.88717 0.0
H980 H 0.21353 0.78588 0.90816 0.0
H981 H 0.25863 0.57612 0.83512 0.0
H982 H 0.27016 0.65189 0.83213 0.0
H983 H 0.28019 0.60599 0.85512 0.0
H984 H 0.29866 0.84908 0.84522 0.0
H985 H 0.32565 0.73459 0.89796 0.0
H986 H 0.23886 0.81124 0.84713 0.0
H987 H 0.24998 0.75414 0.82853 0.0
H988 H 0.26176 0.82992 0.82656 0.0
H989 H 0.27015 0.67427 0.91438 0.0
H990 H 0.30218 0.65812 0.91451 0.0
H991 H 0.28222 0.62079 0.89483 0.0
C992 C 0.36483 0.99353 0.30453 0.0
C993 C 0.38052 0.03856 0.31246 0.0
C994 C 0.36218 0.98276 0.28122 0.0
C995 C 0.376 0.01686 0.26557 0.0
C996 C 0.39227 0.06144 0.27356 0.0
C997 C 0.39411 0.07223 0.29688 0.0
C998 C 0.34432 0.93563 0.27332 0.0
C999 C 0.40777 0.09772 0.25747 0.0
C1000 C 0.38624 0.95224 0.20688 0.0
C1001 C 0.3704 0.98699 0.19368 0.0
C1002 C 0.38826 0.96155 0.23027 0.0
C1003 C 0.37366 0.00574 0.24083 0.0
C1004 C 0.35731 0.0403 0.22766 0.0
C1005 C 0.3561 0.03104 0.20416 0.0
C1006 C 0.40632 0.92481 0.24362 0.0
C1007 C 0.34111 0.08701 0.23839 0.0
H1008 H 0.35412 0.96783 0.31651 0.0
H1009 H 0.40637 0.10686 0.30296 0.0
H1010 H 0.33073 0.95653 0.26191 0.0
H1011 H 0.35383 0.90034 0.26345 0.0
H1012 H 0.33465 0.91375 0.28762 0.0
H1013 H 0.42007 0.12937 0.26647 0.0
H1014 H 0.41889 0.06705 0.24689 0.0
H1015 H 0.39608 0.12406 0.24585 0.0
H1016 H 0.39749 0.91847 0.19881 0.0
H1017 H 0.34373 0.05769 0.19402 0.0
H1018 H 0.39691 0.89929 0.25717 0.0
H1019 H 0.41957 0.9552 0.25198 0.0
H1020 H 0.41639 0.89241 0.23283 0.0
H1021 H 0.3302 0.06611 0.25208 0.0
H1022 H 0.32861 0.10809 0.22596 0.0
H1023 H 0.35229 0.12296 0.24624 0.0
C1024 C 0.66402 0.88176 0.2014 0.0
C1025 C 0.65021 0.92956 0.19277 0.0
C1026 C 0.66307 0.86655 0.2245 0.0
C1027 C 0.64766 0.89936 0.23917 0.0
C1028 C 0.63314 0.9464 0.23037 0.0
C1029 C 0.63472 0.96118 0.20735 0.0
C1030 C 0.67906 0.81665 0.23332 0.0
C1031 C 0.61626 0.98207 0.24537 0.0
C1032 C 0.6303 0.84086 0.29759 0.0
C1033 C 0.64491 0.87683 0.31154 0.0
C1034 C 0.63144 0.84629 0.27388 0.0
C1035 C 0.64787 0.88786 0.26401 0.0
C1036 C 0.66341 0.92216 0.27806 0.0
C1037 C 0.6616 0.91659 0.30162 0.0
C1038 C 0.61438 0.8095 0.25944 0.0
C1039 C 0.68145 0.96631 0.26826 0.0
H1040 H 0.67601 0.85711 0.19021 0.0
H1041 H 0.62375 0.99769 0.20077 0.0
H1042 H 0.69249 0.83554 0.24537 0.0
H1043 H 0.66807 0.78307 0.24273 0.0
H1044 H 0.68895 0.79319 0.21954 0.0
H1045 H 0.60493 0.01426 0.23561 0.0
H1046 H 0.60413 0.95118 0.25486 0.0
H1047 H 0.62695 0.00786 0.258 0.0
H1048 H 0.61735 0.81017 0.3052 0.0
H1049 H 0.67318 0.94397 0.31232 0.0
H1050 H 0.62455 0.78549 0.24602 0.0
H1051 H 0.6013 0.8399 0.2509 0.0
H1052 H 0.60405 0.77593 0.26954 0.0
H1053 H 0.69271 0.94398 0.25518 0.0
H1054 H 0.69362 0.98561 0.28138 0.0
H1055 H 0.67165 0.00385 0.25989 0.0
C1056 C 0.6605 0.89927 0.80232 0.0
C1057 C 0.6471 0.94848 0.81039 0.0
C1058 C 0.65956 0.88242 0.77942 0.0
C1059 C 0.64456 0.91498 0.76431 0.0
C1060 C 0.63055 0.96379 0.77248 0.0
C1061 C 0.63214 0.98024 0.79537 0.0
C1062 C 0.67506 0.83078 0.77127 0.0
C1063 C 0.61412 -0.00077 0.75697 0.0
C1064 C 0.65922 0.92309 0.70175 0.0
C1065 C 0.64237 0.88271 0.69243 0.0
C1066 C 0.66071 0.93214 0.72516 0.0
C1067 C 0.64465 0.90085 0.73967 0.0
C1068 C 0.628 0.85873 0.73045 0.0
C1069 C 0.62722 0.8497 0.70688 0.0
C1070 C 0.67904 0.97657 0.7343 0.0
C1071 C 0.6104 0.82506 0.74538 0.0
H1072 H 0.67211 0.87452 0.81383 0.0
H1073 H 0.62151 0.01787 0.80153 0.0
H1074 H 0.66369 0.7967 0.76253 0.0
H1075 H 0.68849 0.84756 0.7588 0.0
H1076 H 0.68493 0.80839 0.78533 0.0
H1077 H 0.60323 0.03326 0.76626 0.0
H1078 H 0.6251 0.02283 0.74397 0.0
H1079 H 0.60159 0.96834 0.74794 0.0
H1080 H 0.67117 0.94826 0.69064 0.0
H1081 H 0.61409 0.8187 0.69972 0.0
H1082 H 0.69009 0.95524 0.74778 0.0
H1083 H 0.66952 0.01548 0.74202 0.0
H1084 H 0.6914 0.99377 0.72093 0.0
H1085 H 0.62023 0.80167 0.75919 0.0
H1086 H 0.59963 0.79132 0.73578 0.0
H1087 H 0.59776 0.85748 0.75341 0.0
C1088 C 0.35047 0.03281 0.80152 0.0
C1089 C 0.36512 0.9866 0.8102 0.0
C1090 C 0.35204 0.05022 0.77874 0.0
C1091 C 0.36894 0.02142 0.76435 0.0
C1092 C 0.38377 0.9747 0.77299 0.0
C1093 C 0.38153 0.95749 0.79578 0.0
C1094 C 0.33561 0.09947 0.77006 0.0
C1095 C 0.40221 0.94344 0.75825 0.0
C1096 C 0.35904 0.02775 0.70079 0.0
C1097 C 0.37457 0.07487 0.69435 0.0
C1098 C 0.35691 0.01024 0.72352 0.0
C1099 C 0.37094 0.03989 0.7402 0.0
C1100 C 0.38674 0.08734 0.73381 0.0
C1101 C 0.38821 0.10463 0.71097 0.0
C1102 C 0.33957 0.96011 0.72968 0.0
C1103 C 0.40223 0.1195 0.75109 0.0
H1104 H 0.33768 0.05535 0.81256 0.0
H1105 H 0.39305 0.92212 0.80242 0.0
H1106 H 0.34661 0.13778 0.7637 0.0
H1107 H 0.32468 0.08248 0.75564 0.0
H1108 H 0.3231 0.11648 0.78332 0.0
H1109 H 0.41257 0.90852 0.76762 0.0
H1110 H 0.39306 0.92174 0.74364 0.0
H1111 H 0.41517 0.97697 0.75131 0.0
H1112 H 0.34832 0.00475 0.68805 0.0
H1113 H 0.40035 0.14081 0.70609 0.0
H1114 H 0.32615 0.9766 0.7422 0.0
H1115 H 0.3496 0.92247 0.73773 0.0
H1116 H 0.32967 0.94231 0.71473 0.0
H1117 H 0.39055 0.14096 0.76406 0.0
H1118 H 0.41388 0.15475 0.74333 0.0
H1119 H 0.41399 0.08658 0.75998 0.0
C1120 C 0.87407 0.44022 0.21093 0.0
C1121 C 0.85953 0.47313 0.19587 0.0
C1122 C 0.87415 0.45299 0.23418 0.0
C1123 C 0.85906 0.49929 0.24268 0.0
C1124 C 0.84393 0.53183 0.22766 0.0
C1125 C 0.84448 0.51868 0.2044 0.0
C1126 C 0.89081 0.41783 0.24957 0.0
C1127 C 0.8274 0.58104 0.23615 0.0
C1128 C 0.84721 0.4988 0.30616 0.0
C1129 C 0.86373 0.54248 0.31376 0.0
C1130 C 0.84507 0.48519 0.283 0.0
C1131 C 0.86004 0.51535 0.26714 0.0
C1132 C 0.87665 0.55963 0.27472 0.0
C1133 C 0.87817 0.5729 0.29788 0.0
C1134 C 0.82695 0.43821 0.27551 0.0
C1135 C 0.89317 0.59224 0.25841 0.0
H1136 H 0.88584 0.40512 0.20449 0.0
H1137 H 0.83309 0.54406 0.19289 0.0
H1138 H 0.90402 0.44887 0.25764 0.0
H1139 H 0.88024 0.39625 0.26333 0.0
H1140 H 0.901 0.38231 0.24037 0.0
H1141 H 0.81579 0.5998 0.2225 0.0
H1142 H 0.81557 0.56342 0.24982 0.0
H1143 H 0.83834 0.61821 0.24348 0.0
H1144 H 0.8359 0.47534 0.3183 0.0
H1145 H 0.89106 0.60655 0.30359 0.0
H1146 H 0.83653 0.39975 0.26756 0.0
H1147 H 0.81463 0.45744 0.26255 0.0
H1148 H 0.81588 0.42087 0.28981 0.0
H1149 H 0.90498 0.5593 0.2496 0.0
H1150 H 0.90486 0.62604 0.267 0.0
H1151 H 0.8823 0.61554 0.24527 0.0
C1152 C 0.13335 0.46562 0.30116 0.0
C1153 C 0.14939 0.49432 0.3161 0.0
C1154 C 0.13385 0.47784 0.27796 0.0
C1155 C 0.15109 0.51914 0.26937 0.0
C1156 C 0.16709 0.54923 0.28438 0.0
C1157 C 0.1659 0.53682 0.3077 0.0
C1158 C 0.11617 0.44564 0.26258 0.0
C1159 C 0.18586 0.59306 0.27573 0.0
C1160 C 0.16513 0.49359 0.20736 0.0
C1161 C 0.15035 0.53684 0.19696 0.0
C1162 C 0.16655 0.48947 0.23101 0.0
C1163 C 0.15258 0.52899 0.24455 0.0
C1164 C 0.13816 0.57384 0.23416 0.0
C1165 C 0.13732 0.57744 0.21048 0.0
C1166 C 0.18233 0.44145 0.24151 0.0
C1167 C 0.12277 0.61625 0.24802 0.0
H1168 H 0.12036 0.43322 0.30764 0.0
H1169 H 0.17838 0.55882 0.31922 0.0
H1170 H 0.10582 0.47883 0.25241 0.0
H1171 H 0.12619 0.41644 0.25057 0.0
H1172 H 0.10312 0.41719 0.27213 0.0
H1173 H 0.19622 0.61465 0.28967 0.0
H1174 H 0.19877 0.56916 0.26449 0.0
H1175 H 0.17709 0.62879 0.26547 0.0
H1176 H 0.17546 0.46253 0.19702 0.0
H1177 H 0.12588 0.61107 0.20256 0.0
H1178 H 0.17077 0.40714 0.2499 0.0
H1179 H 0.1942 0.46142 0.25469 0.0
H1180 H 0.19387 0.4184 0.22878 0.0
H1181 H 0.10823 0.59038 0.25665 0.0
H1182 H 0.1142 0.65181 0.23748 0.0
H1183 H 0.13384 0.63818 0.26136 0.0
C1184 C 0.15636 0.38391 0.80887 0.0
C1185 C 0.14659 0.43927 0.81585 0.0
C1186 C 0.15554 0.36623 0.78605 0.0
C1187 C 0.14462 0.40471 0.76991 0.0
C1188 C 0.13401 0.45963 0.777 0.0
C1189 C 0.1352 0.4763 0.79984 0.0
C1190 C 0.16712 0.30749 0.7791 0.0
C1191 C 0.1221 0.50189 0.76032 0.0
C1192 C 0.16538 0.4142 0.70925 0.0
C1193 C 0.14593 0.38764 0.69771 0.0
C1194 C 0.16598 0.41606 0.73289 0.0
C1195 C 0.14642 0.39145 0.74531 0.0
C1196 C 0.12747 0.36094 0.7338 0.0
C1197 C 0.12752 0.35903 0.70998 0.0
C1198 C 0.18673 0.44821 0.74444 0.0
C1199 C 0.10633 0.33415 0.7465 0.0
H1200 H 0.16507 0.35485 0.82117 0.0
H1201 H 0.12734 0.5188 0.8051 0.0
H1202 H 0.15449 0.28081 0.76845 0.0
H1203 H 0.18347 0.31683 0.76874 0.0
H1204 H 0.17257 0.27982 0.79391 0.0
H1205 H 0.11302 0.54041 0.76881 0.0
H1206 H 0.13592 0.52002 0.7485 0.0
H1207 H 0.10846 0.47729 0.75006 0.0
H1208 H 0.17979 0.4357 0.6997 0.0
H1209 H 0.11244 0.33868 0.70102 0.0
H1210 H 0.19396 0.42056 0.75855 0.0
H1211 H 0.18015 0.49122 0.75177 0.0
H1212 H 0.20178 0.45853 0.73257 0.0
H1213 H 0.11272 0.30803 0.76136 0.0
H1214 H 0.09516 0.30428 0.73558 0.0
H1215 H 0.09464 0.37101 0.75293 0.0
C1216 C 0.88989 0.6236 0.71295 0.0
C1217 C 0.87643 0.59152 0.69682 0.0
C1218 C 0.88802 0.60983 0.73613 0.0
C1219 C 0.87194 0.56379 0.74332 0.0
C1220 C 0.85771 0.53274 0.72713 0.0
C1221 C 0.86032 0.54655 0.70409 0.0
C1222 C 0.9038 0.6432 0.75284 0.0
C1223 C 0.84003 0.48414 0.7341 0.0
C1224 C 0.88336 0.47893 0.79813 0.0
C1225 C 0.86714 0.50693 0.81305 0.0
C1226 C 0.88554 0.49813 0.77559 0.0
C1227 C 0.87077 0.54574 0.7676 0.0
C1228 C 0.85433 0.57423 0.78256 0.0
C1229 C 0.85289 0.55489 0.80519 0.0
C1230 C 0.90357 0.46718 0.7603 0.0
C1231 C 0.83796 0.62435 0.77456 0.0
H1232 H 0.90244 0.65822 0.70741 0.0
H1233 H 0.84967 0.52199 0.69172 0.0
H1234 H 0.89248 0.66379 0.76627 0.0
H1235 H 0.91631 0.61108 0.76123 0.0
H1236 H 0.91472 0.67922 0.74465 0.0
H1237 H 0.82913 0.46722 0.71961 0.0
H1238 H 0.84999 0.44565 0.74163 0.0
H1239 H 0.8275 0.50157 0.74724 0.0
H1240 H 0.89464 0.44228 0.80414 0.0
H1241 H 0.84029 0.57662 0.81664 0.0
H1242 H 0.91595 0.50095 0.75263 0.0
H1243 H 0.89391 0.44434 0.74624 0.0
H1244 H 0.91462 0.43315 0.76945 0.0
H1245 H 0.84891 0.66171 0.76739 0.0
H1246 H 0.82647 0.64252 0.78839 0.0
H1247 H 0.82599 0.60753 0.76084 0.0
loop_
_geom_bond_atom_site_label_1
_geom_bond_atom_site_label_2
_geom_bond_distance
_geom_bond_site_symmetry_2
_ccdc_geom_bond_type
C0 O2 1.247 . S
C0 O4 1.258 . S
C1 O8 1.247 . S
C1 O9 1.258 . S
O2 C0 1.247 . S
O2 Zn3 2.028 . S
Zn3 O2 2.028 . S
Zn3 O7 2.035 . S
Zn3 O9 2.035 . S
Zn3 O10 2.028 . S
O4 C0 1.258 . S
O4 Zn5 2.035 . S
Zn5 O4 2.035 . S
Zn5 O6 2.028 . S
Zn5 O8 2.028 . S
Zn5 O11 2.035 . S
O6 Zn5 2.028 . S
O6 C12 1.247 . S
O7 Zn3 2.035 . S
O7 C12 1.258 . S
O8 C1 1.247 . S
O8 Zn5 2.028 . S
O9 C1 1.258 . S
O9 Zn3 2.035 . S
O10 Zn3 2.028 . S
O10 C13 1.247 . S
O11 Zn5 2.035 . S
O11 C13 1.258 . S
C12 O6 1.247 . S
C12 O7 1.258 . S
C13 O10 1.247 . S
C13 O11 1.258 . S
C14 O16 1.247 . S
C14 O18 1.258 . S
C15 O22 1.247 . S
C15 O23 1.258 . S
O16 C14 1.247 . S
O16 Zn17 2.028 . S
Zn17 O16 2.028 . S
Zn17 O21 2.035 . S
Zn17 O23 2.035 . S
Zn17 O24 2.028 . S
O18 C14 1.258 . S
O18 Zn19 2.035 . S
Zn19 O18 2.035 . S
Zn19 O20 2.028 . S
Zn19 O22 2.028 . S
Zn19 O25 2.035 . S
O20 Zn19 2.028 . S
O20 C26 1.247 . S
O21 Zn17 2.035 . S
O21 C26 1.258 . S
O22 C15 1.247 . S
O22 Zn19 2.028 . S
O23 C15 1.258 . S
O23 Zn17 2.035 . S
O24 Zn17 2.028 . S
O24 C27 1.247 . S
O25 Zn19 2.035 . S
O25 C27 1.258 . S
C26 O20 1.247 . S
C26 O21 1.258 . S
C27 O24 1.247 . S
C27 O25 1.258 . S
C28 O30 1.247 . S
C28 O32 1.258 . S
C29 O36 1.247 . S
C29 O37 1.258 . S
O30 C28 1.247 . S
O30 Zn31 2.028 . S
Zn31 O30 2.028 . S
Zn31 O35 2.035 . S
Zn31 O37 2.035 . S
Zn31 O38 2.028 . S
O32 C28 1.258 . S
O32 Zn33 2.035 . S
Zn33 O32 2.035 . S
Zn33 O34 2.028 . S
Zn33 O36 2.028 . S
Zn33 O39 2.035 . S
O34 Zn33 2.028 . S
O34 C40 1.247 . S
O35 Zn31 2.035 . S
O35 C40 1.258 . S
O36 C29 1.247 . S
O36 Zn33 2.028 . S
O37 C29 1.258 . S
O37 Zn31 2.035 . S
O38 Zn31 2.028 . S
O38 C41 1.247 . S
O39 Zn33 2.035 . S
O39 C41 1.258 . S
C40 O34 1.247 . S
C40 O35 1.258 . S
C41 O38 1.247 . S
C41 O39 1.258 . S
C42 O44 1.247 . S
C42 O46 1.258 . S
C43 O50 1.247 . S
C43 O51 1.258 . S
O44 C42 1.247 . S
O44 Zn45 2.028 . S
Zn45 O44 2.028 . S
Zn45 O49 2.035 . S
Zn45 O51 2.035 . S
Zn45 O52 2.028 . S
O46 C42 1.258 . S
O46 Zn47 2.035 . S
Zn47 O46 2.035 . S
Zn47 O48 2.028 . S
Zn47 O50 2.028 . S
Zn47 O53 2.035 . S
O48 Zn47 2.028 . S
O48 C54 1.247 . S
O49 Zn45 2.035 . S
O49 C54 1.258 . S
O50 C43 1.247 . S
O50 Zn47 2.028 . S
O51 C43 1.258 . S
O51 Zn45 2.035 . S
O52 Zn45 2.028 . S
O52 C55 1.247 . S
O53 Zn47 2.035 . S
O53 C55 1.258 . S
C54 O48 1.247 . S
C54 O49 1.258 . S
C55 O52 1.247 . S
C55 O53 1.258 . S
C56 O58 1.247 . S
C56 O60 1.258 . S
C57 O64 1.247 . S
C57 O65 1.258 . S
O58 C56 1.247 . S
O58 Zn59 2.028 . S
Zn59 O58 2.028 . S
Zn59 O63 2.035 . S
Zn59 O65 2.035 . S
Zn59 O66 2.028 . S
O60 C56 1.258 . S
O60 Zn61 2.035 . S
Zn61 O60 2.035 . S
Zn61 O62 2.028 . S
Zn61 O64 2.028 . S
Zn61 O67 2.035 . S
O62 Zn61 2.028 . S
O62 C68 1.247 . S
O63 Zn59 2.035 . S
O63 C68 1.258 . S
O64 C57 1.247 . S
O64 Zn61 2.028 . S
O65 C57 1.258 . S
O65 Zn59 2.035 . S
O66 Zn59 2.028 . S
O66 C69 1.247 . S
O67 Zn61 2.035 . S
O67 C69 1.258 . S
C68 O62 1.247 . S
C68 O63 1.258 . S
C69 O66 1.247 . S
C69 O67 1.258 . S
C70 O72 1.247 . S
C70 O74 1.258 . S
C71 O78 1.247 . S
C71 O79 1.258 . S
O72 C70 1.247 . S
O72 Zn73 2.028 . S
Zn73 O72 2.028 . S
Zn73 O77 2.035 . S
Zn73 O79 2.035 . S
Zn73 O80 2.028 . S
O74 C70 1.258 . S
O74 Zn75 2.035 . S
Zn75 O74 2.035 . S
Zn75 O76 2.028 . S
Zn75 O78 2.028 . S
Zn75 O81 2.035 . S
O76 Zn75 2.028 . S
O76 C82 1.247 . S
O77 Zn73 2.035 . S
O77 C82 1.258 . S
O78 C71 1.247 . S
O78 Zn75 2.028 . S
O79 C71 1.258 . S
O79 Zn73 2.035 . S
O80 Zn73 2.028 . S
O80 C83 1.247 . S
O81 Zn75 2.035 . S
O81 C83 1.258 . S
C82 O76 1.247 . S
C82 O77 1.258 . S
C83 O80 1.247 . S
C83 O81 1.258 . S
C84 O86 1.247 . S
C84 O88 1.258 . S
C85 O92 1.247 . S
C85 O93 1.258 . S
O86 C84 1.247 . S
O86 Zn87 2.028 . S
Zn87 O86 2.028 . S
Zn87 O91 2.035 . S
Zn87 O93 2.035 . S
Zn87 O94 2.028 . S
O88 C84 1.258 . S
O88 Zn89 2.035 . S
Zn89 O88 2.035 . S
Zn89 O90 2.028 . S
Zn89 O92 2.028 . S
Zn89 O95 2.035 . S
O90 Zn89 2.028 . S
O90 C96 1.247 . S
O91 Zn87 2.035 . S
O91 C96 1.258 . S
O92 C85 1.247 . S
O92 Zn89 2.028 . S
O93 C85 1.258 . S
O93 Zn87 2.035 . S
O94 Zn87 2.028 . S
O94 C97 1.247 . S
O95 Zn89 2.035 . S
O95 C97 1.258 . S
C96 O90 1.247 . S
C96 O91 1.258 . S
C97 O94 1.247 . S
C97 O95 1.258 . S
C98 O100 1.247 . S
C98 O102 1.258 . S
C99 O106 1.247 . S
C99 O107 1.258 . S
O100 C98 1.247 . S
O100 Zn101 2.028 . S
Zn101 O100 2.028 . S
Zn101 O105 2.035 . S
Zn101 O107 2.035 . S
Zn101 O108 2.028 . S
O102 C98 1.258 . S
O102 Zn103 2.035 . S
Zn103 O102 2.035 . S
Zn103 O104 2.028 . S
Zn103 O106 2.028 . S
Zn103 O109 2.035 . S
O104 Zn103 2.028 . S
O104 C110 1.247 . S
O105 Zn101 2.035 . S
O105 C110 1.258 . S
O106 C99 1.247 . S
O106 Zn103 2.028 . S
O107 C99 1.258 . S
O107 Zn101 2.035 . S
O108 Zn101 2.028 . S
O108 C111 1.247 . S
O109 Zn103 2.035 . S
O109 C111 1.258 . S
C110 O104 1.247 . S
C110 O105 1.258 . S
C111 O108 1.247 . S
C111 O109 1.258 . S
C112 O114 1.247 . S
C112 O116 1.258 . S
C113 O120 1.247 . S
C113 O121 1.258 . S
O114 C112 1.247 . S
O114 Zn115 2.028 . S
Zn115 O114 2.028 . S
Zn115 O119 2.035 . S
Zn115 O121 2.035 . S
Zn115 O122 2.028 . S
O116 C112 1.258 . S
O116 Zn117 2.035 . S
Zn117 O116 2.035 . S
Zn117 O118 2.028 . S
Zn117 O120 2.028 . S
Zn117 O123 2.035 . S
O118 Zn117 2.028 . S
O118 C124 1.247 . S
O119 Zn115 2.035 . S
O119 C124 1.258 . S
O120 C113 1.247 . S
O120 Zn117 2.028 . S
O121 C113 1.258 . S
O121 Zn115 2.035 . S
O122 Zn115 2.028 . S
O122 C125 1.247 . S
O123 Zn117 2.035 . S
O123 C125 1.258 . S
C124 O118 1.247 . S
C124 O119 1.258 . S
C125 O122 1.247 . S
C125 O123 1.258 . S
C126 O128 1.247 . S
C126 O130 1.258 . S
C127 O134 1.247 . S
C127 O135 1.258 . S
O128 C126 1.247 . S
O128 Zn129 2.028 . S
Zn129 O128 2.028 . S
Zn129 O133 2.035 . S
Zn129 O135 2.035 . S
Zn129 O136 2.028 . S
O130 C126 1.258 . S
O130 Zn131 2.035 . S
Zn131 O130 2.035 . S
Zn131 O132 2.028 . S
Zn131 O134 2.028 . S
Zn131 O137 2.035 . S
O132 Zn131 2.028 . S
O132 C138 1.247 . S
O133 Zn129 2.035 . S
O133 C138 1.258 . S
O134 C127 1.247 . S
O134 Zn131 2.028 . S
O135 C127 1.258 . S
O135 Zn129 2.035 . S
O136 Zn129 2.028 . S
O136 C139 1.247 . S
O137 Zn131 2.035 . S
O137 C139 1.258 . S
C138 O132 1.247 . S
C138 O133 1.258 . S
C139 O136 1.247 . S
C139 O137 1.258 . S
C140 O142 1.247 . S
C140 O144 1.258 . S
C141 O148 1.247 . S
C141 O149 1.258 . S
O142 C140 1.247 . S
O142 Zn143 2.028 . S
Zn143 O142 2.028 . S
Zn143 O147 2.035 . S
Zn143 O149 2.035 . S
Zn143 O150 2.028 . S
O144 C140 1.258 . S
O144 Zn145 2.035 . S
Zn145 O144 2.035 . S
Zn145 O146 2.028 . S
Zn145 O148 2.028 . S
Zn145 O151 2.035 . S
O146 Zn145 2.028 . S
O146 C152 1.247 . S
O147 Zn143 2.035 . S
O147 C152 1.258 . S
O148 C141 1.247 . S
O148 Zn145 2.028 . S
O149 C141 1.258 . S
O149 Zn143 2.035 . S
O150 Zn143 2.028 . S
O150 C153 1.247 . S
O151 Zn145 2.035 . S
O151 C153 1.258 . S
C152 O146 1.247 . S
C152 O147 1.258 . S
C153 O150 1.247 . S
C153 O151 1.258 . S
C154 O156 1.247 . S
C154 O158 1.258 . S
C155 O162 1.247 . S
C155 O163 1.258 . S
O156 C154 1.247 . S
O156 Zn157 2.028 . S
Zn157 O156 2.028 . S
Zn157 O161 2.035 . S
Zn157 O163 2.035 . S
Zn157 O164 2.028 . S
O158 C154 1.258 . S
O158 Zn159 2.035 . S
Zn159 O158 2.035 . S
Zn159 O160 2.028 . S
Zn159 O162 2.028 . S
Zn159 O165 2.035 . S
O160 Zn159 2.028 . S
O160 C166 1.247 . S
O161 Zn157 2.035 . S
O161 C166 1.258 . S
O162 C155 1.247 . S
O162 Zn159 2.028 . S
O163 C155 1.258 . S
O163 Zn157 2.035 . S
O164 Zn157 2.028 . S
O164 C167 1.247 . S
O165 Zn159 2.035 . S
O165 C167 1.258 . S
C166 O160 1.247 . S
C166 O161 1.258 . S
C167 O164 1.247 . S
C167 O165 1.258 . S
C168 O170 1.247 . S
C168 O172 1.258 . S
C169 O176 1.247 . S
C169 O177 1.258 . S
O170 C168 1.247 . S
O170 Zn171 2.028 . S
Zn171 O170 2.028 . S
Zn171 O175 2.035 . S
Zn171 O177 2.035 . S
Zn171 O178 2.028 . S
O172 C168 1.258 . S
O172 Zn173 2.035 . S
Zn173 O172 2.035 . S
Zn173 O174 2.028 . S
Zn173 O176 2.028 . S
Zn173 O179 2.035 . S
O174 Zn173 2.028 . S
O174 C180 1.247 . S
O175 Zn171 2.035 . S
O175 C180 1.258 . S
O176 C169 1.247 . S
O176 Zn173 2.028 . S
O177 C169 1.258 . S
O177 Zn171 2.035 . S
O178 Zn171 2.028 . S
O178 C181 1.247 . S
O179 Zn173 2.035 . S
O179 C181 1.258 . S
C180 O174 1.247 . S
C180 O175 1.258 . S
C181 O178 1.247 . S
C181 O179 1.258 . S
C182 O184 1.247 . S
C182 O186 1.258 . S
C183 O190 1.247 . S
C183 O191 1.258 . S
O184 C182 1.247 . S
O184 Zn185 2.028 . S
Zn185 O184 2.028 . S
Zn185 O189 2.035 . S
Zn185 O191 2.035 . S
Zn185 O192 2.028 . S
O186 C182 1.258 . S
O186 Zn187 2.035 . S
Zn187 O186 2.035 . S
Zn187 O188 2.028 . S
Zn187 O190 2.028 . S
Zn187 O193 2.035 . S
O188 Zn187 2.028 . S
O188 C194 1.247 . S
O189 Zn185 2.035 . S
O189 C194 1.258 . S
O190 C183 1.247 . S
O190 Zn187 2.028 . S
O191 C183 1.258 . S
O191 Zn185 2.035 . S
O192 Zn185 2.028 . S
O192 C195 1.247 . S
O193 Zn187 2.035 . S
O193 C195 1.258 . S
C194 O188 1.247 . S
C194 O189 1.258 . S
C195 O192 1.247 . S
C195 O193 1.258 . S
C196 O198 1.247 . S
C196 O200 1.258 . S
C197 O204 1.247 . S
C197 O205 1.258 . S
O198 C196 1.247 . S
O198 Zn199 2.028 . S
Zn199 O198 2.028 . S
Zn199 O203 2.035 . S
Zn199 O205 2.035 . S
Zn199 O206 2.028 . S
O200 C196 1.258 . S
O200 Zn201 2.035 . S
Zn201 O200 2.035 . S
Zn201 O202 2.028 . S
Zn201 O204 2.028 . S
Zn201 O207 2.035 . S
O202 Zn201 2.028 . S
O202 C208 1.247 . S
O203 Zn199 2.035 . S
O203 C208 1.258 . S
O204 C197 1.247 . S
O204 Zn201 2.028 . S
O205 C197 1.258 . S
O205 Zn199 2.035 . S
O206 Zn199 2.028 . S
O206 C209 1.247 . S
O207 Zn201 2.035 . S
O207 C209 1.258 . S
C208 O202 1.247 . S
C208 O203 1.258 . S
C209 O206 1.247 . S
C209 O207 1.258 . S
C210 O212 1.247 . S
C210 O214 1.258 . S
C211 O218 1.247 . S
C211 O219 1.258 . S
O212 C210 1.247 . S
O212 Zn213 2.028 . S
Zn213 O212 2.028 . S
Zn213 O217 2.035 . S
Zn213 O219 2.035 . S
Zn213 O220 2.028 . S
O214 C210 1.258 . S
O214 Zn215 2.035 . S
Zn215 O214 2.035 . S
Zn215 O216 2.028 . S
Zn215 O218 2.028 . S
Zn215 O221 2.035 . S
O216 Zn215 2.028 . S
O216 C222 1.247 . S
O217 Zn213 2.035 . S
O217 C222 1.258 . S
O218 C211 1.247 . S
O218 Zn215 2.028 . S
O219 C211 1.258 . S
O219 Zn213 2.035 . S
O220 Zn213 2.028 . S
O220 C223 1.247 . S
O221 Zn215 2.035 . S
O221 C223 1.258 . S
C222 O216 1.247 . S
C222 O217 1.258 . S
C223 O220 1.247 . S
C223 O221 1.258 . S
C224 C225 1.391 . S
C224 C226 1.394 . S
C224 H240 0.931 . S
C225 C224 1.391 . S
C225 C229 1.376 . S
C226 C224 1.394 . S
C226 C227 1.369 . S
C226 C230 1.531 . S
C227 C226 1.369 . S
C227 C228 1.410 . S
C227 C235 1.503 . S
C228 C227 1.410 . S
C228 C229 1.392 . S
C228 C231 1.511 . S
C229 C225 1.376 . S
C229 C228 1.392 . S
C229 H241 0.929 . S
C230 C226 1.531 . S
C230 H242 0.960 . S
C230 H243 0.962 . S
C230 H244 0.960 . S
C231 C228 1.511 . S
C231 H245 0.961 . S
C231 H246 0.961 . S
C231 H247 0.961 . S
C232 C233 1.370 . S
C232 C234 1.363 . S
C232 H248 0.931 . S
C233 C232 1.370 . S
C233 C237 1.408 . S
C234 C232 1.363 . S
C234 C235 1.370 . S
C234 C238 1.524 . S
C235 C227 1.503 . S
C235 C234 1.370 . S
C235 C236 1.403 . S
C236 C235 1.403 . S
C236 C237 1.404 . S
C236 C239 1.539 . S
C237 C233 1.408 . S
C237 C236 1.404 . S
C237 H249 0.930 . S
C238 C234 1.524 . S
C238 H250 0.956 . S
C238 H251 0.961 . S
C238 H252 0.961 . S
C239 C236 1.539 . S
C239 H253 0.958 . S
C239 H254 0.961 . S
C239 H255 0.960 . S
H240 C224 0.931 . S
H241 C229 0.929 . S
H242 C230 0.960 . S
H243 C230 0.962 . S
H244 C230 0.960 . S
H245 C231 0.961 . S
H246 C231 0.961 . S
H247 C231 0.961 . S
H248 C232 0.931 . S
H249 C237 0.930 . S
H250 C238 0.956 . S
H251 C238 0.961 . S
H252 C238 0.961 . S
H253 C239 0.958 . S
H254 C239 0.961 . S
H255 C239 0.960 . S
C256 C257 1.391 . S
C256 C258 1.394 . S
C256 H272 0.931 . S
C257 C256 1.391 . S
C257 C261 1.376 . S
C258 C256 1.394 . S
C258 C259 1.369 . S
C258 C262 1.531 . S
C259 C258 1.369 . S
C259 C260 1.410 . S
C259 C267 1.503 . S
C260 C259 1.410 . S
C260 C261 1.392 . S
C260 C263 1.511 . S
C261 C257 1.376 . S
C261 C260 1.392 . S
C261 H273 0.929 . S
C262 C258 1.531 . S
C262 H274 0.960 . S
C262 H275 0.962 . S
C262 H276 0.960 . S
C263 C260 1.511 . S
C263 H277 0.961 . S
C263 H278 0.961 . S
C263 H279 0.961 . S
C264 C265 1.370 . S
C264 C266 1.363 . S
C264 H280 0.931 . S
C265 C264 1.370 . S
C265 C269 1.408 . S
C266 C264 1.363 . S
C266 C267 1.370 . S
C266 C270 1.524 . S
C267 C259 1.503 . S
C267 C266 1.370 . S
C267 C268 1.403 . S
C268 C267 1.403 . S
C268 C269 1.404 . S
C268 C271 1.539 . S
C269 C265 1.408 . S
C269 C268 1.404 . S
C269 H281 0.930 . S
C270 C266 1.524 . S
C270 H282 0.956 . S
C270 H283 0.961 . S
C270 H284 0.961 . S
C271 C268 1.539 . S
C271 H285 0.958 . S
C271 H286 0.961 . S
C271 H287 0.960 . S
H272 C256 0.931 . S
H273 C261 0.929 . S
H274 C262 0.960 . S
H275 C262 0.962 . S
H276 C262 0.960 . S
H277 C263 0.961 . S
H278 C263 0.961 . S
H279 C263 0.961 . S
H280 C264 0.931 . S
H281 C269 0.930 . S
H282 C270 0.956 . S
H283 C270 0.961 . S
H284 C270 0.961 . S
H285 C271 0.958 . S
H286 C271 0.961 . S
H287 C271 0.960 . S
C288 C289 1.391 . S
C288 C290 1.394 . S
C288 H304 0.931 . S
C289 C288 1.391 . S
C289 C293 1.376 . S
C290 C288 1.394 . S
C290 C291 1.369 . S
C290 C294 1.531 . S
C291 C290 1.369 . S
C291 C292 1.410 . S
C291 C299 1.503 1_554 S
C292 C291 1.410 . S
C292 C293 1.392 . S
C292 C295 1.511 . S
C293 C289 1.376 . S
C293 C292 1.392 . S
C293 H305 0.929 . S
C294 C290 1.531 . S
C294 H306 0.960 1_554 S
C294 H307 0.962 . S
C294 H308 0.960 1_565 S
C295 C292 1.511 . S
C295 H309 0.961 . S
C295 H310 0.961 1_554 S
C295 H311 0.961 . S
C296 C297 1.370 . S
C296 C298 1.363 . S
C296 H312 0.931 . S
C297 C296 1.370 . S
C297 C301 1.408 . S
C298 C296 1.363 . S
C298 C299 1.370 . S
C298 C302 1.524 . S
C299 C291 1.503 1_556 S
C299 C298 1.370 . S
C299 C300 1.403 . S
C300 C299 1.403 . S
C300 C301 1.404 . S
C300 C303 1.539 . S
C301 C297 1.408 . S
C301 C300 1.404 . S
C301 H313 0.930 . S
C302 C298 1.524 . S
C302 H314 0.956 . S
C302 H315 0.961 1_556 S
C302 H316 0.961 . S
C303 C300 1.539 . S
C303 H317 0.958 . S
C303 H318 0.961 . S
C303 H319 0.970 . S
H304 C288 0.931 . S
H305 C293 0.929 . S
H306 C294 0.960 1_556 S
H307 C294 0.962 . S
H308 C294 0.960 1_545 S
H309 C295 0.961 . S
H310 C295 0.961 1_556 S
H311 C295 0.961 . S
H312 C296 0.931 . S
H313 C301 0.930 . S
H314 C302 0.956 . S
H315 C302 0.961 1_554 S
H316 C302 0.961 . S
H317 C303 0.958 . S
H318 C303 0.961 . S
H319 C303 0.970 . S
C320 C321 1.391 . S
C320 C322 1.394 . S
C320 H336 0.931 . S
C321 C320 1.391 . S
C321 C325 1.376 . S
C322 C320 1.394 . S
C322 C323 1.369 . S
C322 C326 1.531 . S
C323 C322 1.369 . S
C323 C324 1.410 . S
C323 C331 1.503 1_556 S
C324 C323 1.410 . S
C324 C325 1.392 . S
C324 C327 1.511 . S
C325 C321 1.376 . S
C325 C324 1.392 . S
C325 H337 0.929 . S
C326 C322 1.531 . S
C326 H338 0.960 1_556 S
C326 H339 0.962 . S
C326 H340 0.960 1_545 S
C327 C324 1.511 . S
C327 H341 0.961 . S
C327 H342 0.961 1_556 S
C327 H343 0.961 . S
C328 C329 1.370 . S
C328 C330 1.363 . S
C328 H344 0.931 . S
C329 C328 1.370 . S
C329 C333 1.408 . S
C330 C328 1.363 . S
C330 C331 1.370 . S
C330 C334 1.524 . S
C331 C323 1.503 1_554 S
C331 C330 1.370 . S
C331 C332 1.403 . S
C332 C331 1.403 . S
C332 C333 1.404 . S
C332 C335 1.539 . S
C333 C329 1.408 . S
C333 C332 1.404 . S
C333 H345 0.930 . S
C334 C330 1.524 . S
C334 H346 0.984 . S
C334 H347 0.961 1_554 S
C334 H348 0.961 . S
C335 C332 1.539 . S
C335 H349 0.958 . S
C335 H350 0.961 . S
C335 H351 0.970 . S
H336 C320 0.931 . S
H337 C325 0.929 . S
H338 C326 0.960 1_554 S
H339 C326 0.962 . S
H340 C326 0.960 1_565 S
H341 C327 0.961 . S
H342 C327 0.961 1_554 S
H343 C327 0.961 . S
H344 C328 0.931 . S
H345 C333 0.930 . S
H346 C334 0.984 . S
H347 C334 0.961 1_556 S
H348 C334 0.961 . S
H349 C335 0.958 . S
H350 C335 0.961 . S
H351 C335 0.970 . S
C352 C353 1.391 . S
C352 C354 1.394 . S
C352 H368 0.931 . S
C353 C352 1.391 . S
C353 C357 1.376 . S
C354 C352 1.394 . S
C354 C355 1.369 . S
C354 C358 1.531 . S
C355 C354 1.369 . S
C355 C356 1.410 . S
C355 C363 1.503 . S
C356 C355 1.410 . S
C356 C357 1.392 . S
C356 C359 1.511 . S
C357 C353 1.376 . S
C357 C356 1.392 . S
C357 H369 0.929 . S
C358 C354 1.531 . S
C358 H370 0.960 . S
C358 H371 0.962 . S
C358 H372 0.960 . S
C359 C356 1.511 . S
C359 H373 0.961 . S
C359 H374 0.961 . S
C359 H375 0.961 . S
C360 C361 1.370 . S
C360 C362 1.363 . S
C360 H376 0.931 . S
C361 C360 1.370 . S
C361 C365 1.408 . S
C362 C360 1.363 . S
C362 C363 1.370 . S
C362 C366 1.524 . S
C363 C355 1.503 . S
C363 C362 1.370 . S
C363 C364 1.403 . S
C364 C363 1.403 . S
C364 C365 1.404 . S
C364 C367 1.539 . S
C365 C361 1.408 . S
C365 C364 1.404 . S
C365 H377 0.930 . S
C366 C362 1.524 . S
C366 H378 0.956 . S
C366 H379 0.961 . S
C366 H380 0.961 . S
C367 C364 1.539 . S
C367 H381 0.958 . S
C367 H382 0.961 . S
C367 H383 0.960 . S
H368 C352 0.931 . S
H369 C357 0.929 . S
H370 C358 0.960 . S
H371 C358 0.962 . S
H372 C358 0.960 . S
H373 C359 0.961 . S
H374 C359 0.961 . S
H375 C359 0.961 . S
H376 C360 0.931 . S
H377 C365 0.930 . S
H378 C366 0.956 . S
H379 C366 0.961 . S
H380 C366 0.961 . S
H381 C367 0.958 . S
H382 C367 0.961 . S
H383 C367 0.960 . S
C384 C385 1.391 . S
C384 C386 1.394 . S
C384 H400 0.931 . S
C385 C384 1.391 . S
C385 C389 1.376 . S
C386 C384 1.394 . S
C386 C387 1.369 . S
C386 C390 1.531 . S
C387 C386 1.369 . S
C387 C388 1.410 . S
C387 C395 1.503 . S
C388 C387 1.410 . S
C388 C389 1.392 . S
C388 C391 1.511 . S
C389 C385 1.376 . S
C389 C388 1.392 . S
C389 H401 0.929 . S
C390 C386 1.531 . S
C390 H402 0.960 . S
C390 H403 0.962 . S
C390 H404 0.960 . S
C391 C388 1.511 . S
C391 H405 0.961 . S
C391 H406 0.961 . S
C391 H407 0.961 . S
C392 C393 1.370 . S
C392 C394 1.363 . S
C392 H408 0.931 . S
C393 C392 1.370 . S
C393 C397 1.408 . S
C394 C392 1.363 . S
C394 C395 1.370 . S
C394 C398 1.524 . S
C395 C387 1.503 . S
C395 C394 1.370 . S
C395 C396 1.403 . S
C396 C395 1.403 . S
C396 C397 1.404 . S
C396 C399 1.539 . S
C397 C393 1.408 . S
C397 C396 1.404 . S
C397 H409 0.930 . S
C398 C394 1.524 . S
C398 H410 0.956 . S
C398 H411 0.961 . S
C398 H412 0.961 . S
C399 C396 1.539 . S
C399 H413 0.958 . S
C399 H414 0.961 . S
C399 H415 0.960 . S
H400 C384 0.931 . S
H401 C389 0.929 . S
H402 C390 0.960 . S
H403 C390 0.962 . S
H404 C390 0.960 . S
H405 C391 0.961 . S
H406 C391 0.961 . S
H407 C391 0.961 . S
H408 C392 0.931 . S
H409 C397 0.930 . S
H410 C398 0.956 . S
H411 C398 0.961 . S
H412 C398 0.961 . S
H413 C399 0.958 . S
H414 C399 0.961 . S
H415 C399 0.960 . S
C416 C417 1.391 . S
C416 C418 1.394 . S
C416 H432 0.931 . S
C417 C416 1.391 . S
C417 C421 1.376 . S
C418 C416 1.394 . S
C418 C419 1.369 . S
C418 C422 1.531 . S
C419 C418 1.369 . S
C419 C420 1.410 . S
C419 C427 1.503 1_556 S
C420 C419 1.410 . S
C420 C421 1.392 . S
C420 C423 1.511 . S
C421 C417 1.376 . S
C421 C420 1.392 . S
C421 H433 0.929 . S
C422 C418 1.531 . S
C422 H434 0.960 1_556 S
C422 H435 0.962 . S
C422 H436 0.960 . S
C423 C420 1.511 . S
C423 H437 0.961 . S
C423 H438 0.961 1_556 S
C423 H439 0.961 . S
C424 C425 1.370 . S
C424 C426 1.363 . S
C424 H440 0.931 . S
C425 C424 1.370 . S
C425 C429 1.408 . S
C426 C424 1.363 . S
C426 C427 1.370 . S
C426 C430 1.524 . S
C427 C419 1.503 1_554 S
C427 C426 1.370 . S
C427 C428 1.403 . S
C428 C427 1.403 . S
C428 C429 1.404 . S
C428 C431 1.539 . S
C429 C425 1.408 . S
C429 C428 1.404 . S
C429 H441 0.930 . S
C430 C426 1.524 . S
C430 H442 0.956 . S
C430 H443 0.961 1_554 S
C430 H444 0.961 . S
C431 C428 1.539 . S
C431 H445 0.958 . S
C431 H446 0.961 . S
C431 H447 0.970 . S
H432 C416 0.931 . S
H433 C421 0.929 . S
H434 C422 0.960 1_554 S
H435 C422 0.962 . S
H436 C422 0.960 . S
H437 C423 0.961 . S
H438 C423 0.961 1_554 S
H439 C423 0.961 . S
H440 C424 0.931 . S
H441 C429 0.930 . S
H442 C430 0.956 . S
H443 C430 0.961 1_556 S
H444 C430 0.961 . S
H445 C431 0.958 . S
H446 C431 0.961 . S
H447 C431 0.970 . S
C448 C449 1.391 . S
C448 C450 1.394 . S
C448 H464 0.931 . S
C449 C448 1.391 . S
C449 C453 1.376 . S
C450 C448 1.394 . S
C450 C451 1.369 . S
C450 C454 1.531 . S
C451 C450 1.369 . S
C451 C452 1.410 . S
C451 C459 1.503 1_554 S
C452 C451 1.410 . S
C452 C453 1.392 . S
C452 C455 1.511 . S
C453 C449 1.376 . S
C453 C452 1.392 . S
C453 H465 0.929 . S
C454 C450 1.531 . S
C454 H466 0.960 1_554 S
C454 H467 0.962 . S
C454 H468 0.960 . S
C455 C452 1.511 . S
C455 H469 0.961 . S
C455 H470 0.961 1_554 S
C455 H471 0.961 . S
C456 C457 1.370 . S
C456 C458 1.363 . S
C456 H472 0.931 . S
C457 C456 1.370 . S
C457 C461 1.408 . S
C458 C456 1.363 . S
C458 C459 1.370 . S
C458 C462 1.524 . S
C459 C451 1.503 1_556 S
C459 C458 1.370 . S
C459 C460 1.403 . S
C460 C459 1.403 . S
C460 C461 1.404 . S
C460 C463 1.539 . S
C461 C457 1.408 . S
C461 C460 1.404 . S
C461 H473 0.930 . S
C462 C458 1.524 . S
C462 H474 0.956 . S
C462 H475 0.961 1_556 S
C462 H476 0.961 . S
C463 C460 1.539 . S
C463 H477 0.958 . S
C463 H478 0.961 . S
C463 H479 0.970 . S
H464 C448 0.931 . S
H465 C453 0.929 . S
H466 C454 0.960 1_556 S
H467 C454 0.962 . S
H468 C454 0.960 . S
H469 C455 0.961 . S
H470 C455 0.961 1_556 S
H471 C455 0.961 . S
H472 C456 0.931 . S
H473 C461 0.930 . S
H474 C462 0.956 . S
H475 C462 0.961 1_554 S
H476 C462 0.961 . S
H477 C463 0.958 . S
H478 C463 0.961 . S
H479 C463 0.970 . S
C480 C481 1.391 . S
C480 C482 1.394 1_565 S
C480 H496 0.931 . S
C481 C480 1.391 . S
C481 C485 1.376 . S
C482 C480 1.394 1_545 S
C482 C483 1.369 . S
C482 C486 1.531 . S
C483 C482 1.369 . S
C483 C484 1.410 1_545 S
C483 C491 1.503 . S
C484 C483 1.410 1_565 S
C484 C485 1.392 . S
C484 C487 1.511 . S
C485 C481 1.376 . S
C485 C484 1.392 . S
C485 H497 0.929 . S
C486 C482 1.531 . S
C486 H498 0.960 . S
C486 H499 0.962 . S
C486 H500 0.960 . S
C487 C484 1.511 . S
C487 H501 0.961 . S
C487 H502 0.961 . S
C487 H503 0.961 1_565 S
C488 C489 1.370 1_565 S
C488 C490 1.363 . S
C488 H504 0.931 . S
C489 C488 1.370 1_545 S
C489 C493 1.408 . S
C490 C488 1.363 . S
C490 C491 1.370 1_565 S
C490 C494 1.524 . S
C491 C483 1.503 . S
C491 C490 1.370 1_545 S
C491 C492 1.403 . S
C492 C491 1.403 . S
C492 C493 1.404 . S
C492 C495 1.539 . S
C493 C489 1.408 . S
C493 C492 1.404 . S
C493 H505 0.930 . S
C494 C490 1.524 . S
C494 H506 0.956 . S
C494 H507 0.961 . S
C494 H508 0.961 . S
C495 C492 1.539 . S
C495 H509 0.958 . S
C495 H510 0.961 . S
C495 H511 0.960 . S
H496 C480 0.931 . S
H497 C485 0.929 . S
H498 C486 0.960 . S
H499 C486 0.962 . S
H500 C486 0.960 . S
H501 C487 0.961 . S
H502 C487 0.961 . S
H503 C487 0.961 1_545 S
H504 C488 0.931 . S
H505 C493 0.930 . S
H506 C494 0.956 . S
H507 C494 0.961 . S
H508 C494 0.961 . S
H509 C495 0.958 . S
H510 C495 0.961 . S
H511 C495 0.960 . S
C512 C513 1.391 . S
C512 C514 1.394 1_565 S
C512 H528 0.931 1_565 S
C513 C512 1.391 . S
C513 C517 1.376 . S
C514 C512 1.394 1_545 S
C514 C515 1.369 1_545 S
C514 C518 1.531 . S
C515 C514 1.369 1_565 S
C515 C516 1.410 . S
C515 C523 1.503 1_565 S
C516 C515 1.410 . S
C516 C517 1.392 . S
C516 C519 1.511 . S
C517 C513 1.376 . S
C517 C516 1.392 . S
C517 H529 0.929 . S
C518 C514 1.531 . S
C518 H530 0.960 . S
C518 H531 0.962 . S
C518 H532 0.960 . S
C519 C516 1.511 . S
C519 H533 0.961 . S
C519 H534 0.961 . S
C519 H535 0.961 . S
C520 C521 1.370 . S
C520 C522 1.363 . S
C520 H536 0.931 . S
C521 C520 1.370 . S
C521 C525 1.408 . S
C522 C520 1.363 . S
C522 C523 1.370 . S
C522 C526 1.524 . S
C523 C515 1.503 1_545 S
C523 C522 1.370 . S
C523 C524 1.403 1_545 S
C524 C523 1.403 1_565 S
C524 C525 1.404 1_565 S
C524 C527 1.539 . S
C525 C521 1.408 . S
C525 C524 1.404 1_545 S
C525 H537 0.930 1_545 S
C526 C522 1.524 . S
C526 H538 0.956 . S
C526 H539 0.961 . S
C526 H540 0.961 . S
C527 C524 1.539 . S
C527 H541 0.958 . S
C527 H542 0.961 . S
C527 H543 0.960 . S
H528 C512 0.931 1_545 S
H529 C517 0.929 . S
H530 C518 0.960 . S
H531 C518 0.962 . S
H532 C518 0.960 . S
H533 C519 0.961 . S
H534 C519 0.961 . S
H535 C519 0.961 . S
H536 C520 0.931 . S
H537 C525 0.930 1_565 S
H538 C526 0.956 . S
H539 C526 0.961 . S
H540 C526 0.961 . S
H541 C527 0.958 . S
H542 C527 0.961 . S
H543 C527 0.960 . S
C544 C545 1.391 1_545 S
C544 C546 1.394 . S
C544 H560 0.931 . S
C545 C544 1.391 1_565 S
C545 C549 1.376 . S
C546 C544 1.394 . S
C546 C547 1.369 1_545 S
C546 C550 1.531 . S
C547 C546 1.369 1_565 S
C547 C548 1.410 . S
C547 C555 1.503 1_565 S
C548 C547 1.410 . S
C548 C549 1.392 . S
C548 C551 1.511 . S
C549 C545 1.376 . S
C549 C548 1.392 . S
C549 H561 0.929 . S
C550 C546 1.531 . S
C550 H562 0.960 . S
C550 H563 0.962 . S
C550 H564 0.960 . S
C551 C548 1.511 . S
C551 H565 0.961 . S
C551 H566 0.961 . S
C551 H567 0.961 . S
C552 C553 1.370 . S
C552 C554 1.363 . S
C552 H568 0.931 . S
C553 C552 1.370 . S
C553 C557 1.408 . S
C554 C552 1.363 . S
C554 C555 1.370 . S
C554 C558 1.524 . S
C555 C547 1.503 1_545 S
C555 C554 1.370 . S
C555 C556 1.403 . S
C556 C555 1.403 . S
C556 C557 1.404 . S
C556 C559 1.539 . S
C557 C553 1.408 . S
C557 C556 1.404 . S
C557 H569 0.930 . S
C558 C554 1.524 . S
C558 H570 0.956 . S
C558 H571 0.961 1_545 S
C558 H572 0.961 . S
C559 C556 1.539 . S
C559 H573 0.958 . S
C559 H574 0.961 1_545 S
C559 H575 0.960 1_545 S
H560 C544 0.931 . S
H561 C549 0.929 . S
H562 C550 0.960 . S
H563 C550 0.962 . S
H564 C550 0.960 . S
H565 C551 0.961 . S
H566 C551 0.961 . S
H567 C551 0.961 . S
H568 C552 0.931 . S
H569 C557 0.930 . S
H570 C558 0.956 . S
H571 C558 0.961 1_565 S
H572 C558 0.961 . S
H573 C559 0.958 . S
H574 C559 0.961 1_565 S
H575 C559 0.960 1_565 S
C576 C577 1.391 . S
C576 C578 1.394 . S
C576 H592 0.931 . S
C577 C576 1.391 . S
C577 C581 1.376 . S
C578 C576 1.394 . S
C578 C579 1.369 . S
C578 C582 1.531 . S
C579 C578 1.369 . S
C579 C580 1.410 . S
C579 C587 1.503 1_545 S
C580 C579 1.410 . S
C580 C581 1.392 . S
C580 C583 1.511 1_545 S
C581 C577 1.376 . S
C581 C580 1.392 . S
C581 H593 0.929 . S
C582 C578 1.531 . S
C582 H594 0.960 . S
C582 H595 0.962 . S
C582 H596 0.960 . S
C583 C580 1.511 1_565 S
C583 H597 0.961 . S
C583 H598 0.961 . S
C583 H599 0.961 1_565 S
C584 C585 1.370 . S
C584 C586 1.363 . S
C584 H600 0.931 . S
C585 C584 1.370 . S
C585 C589 1.408 1_565 S
C586 C584 1.363 . S
C586 C587 1.370 . S
C586 C590 1.524 . S
C587 C579 1.503 1_565 S
C587 C586 1.370 . S
C587 C588 1.403 1_565 S
C588 C587 1.403 1_545 S
C588 C589 1.404 . S
C588 C591 1.539 . S
C589 C585 1.408 1_545 S
C589 C588 1.404 . S
C589 H601 0.930 . S
C590 C586 1.524 . S
C590 H602 0.956 . S
C590 H603 0.961 . S
C590 H604 0.961 . S
C591 C588 1.539 . S
C591 H605 0.958 . S
C591 H606 0.961 . S
C591 H607 0.960 . S
H592 C576 0.931 . S
H593 C581 0.929 . S
H594 C582 0.960 . S
H595 C582 0.962 . S
H596 C582 0.960 . S
H597 C583 0.961 . S
H598 C583 0.961 . S
H599 C583 0.961 1_545 S
H600 C584 0.931 . S
H601 C589 0.930 . S
H602 C590 0.956 . S
H603 C590 0.961 . S
H604 C590 0.961 . S
H605 C591 0.958 . S
H606 C591 0.961 . S
H607 C591 0.960 . S
C608 C609 1.391 . S
C608 C610 1.394 . S
C608 H624 0.931 . S
C609 C608 1.391 . S
C609 C613 1.376 . S
C610 C608 1.394 . S
C610 C611 1.369 . S
C610 C614 1.531 1_655 S
C611 C610 1.369 . S
C611 C612 1.410 . S
C611 C619 1.503 1_655 S
C612 C611 1.410 . S
C612 C613 1.392 . S
C612 C615 1.511 . S
C613 C609 1.376 . S
C613 C612 1.392 . S
C613 H625 0.929 . S
C614 C610 1.531 1_455 S
C614 H626 0.960 . S
C614 H627 0.962 . S
C614 H628 0.960 1_455 S
C615 C612 1.511 . S
C615 H629 0.961 . S
C615 H630 0.961 . S
C615 H631 0.961 . S
C616 C617 1.370 . S
C616 C618 1.363 . S
C616 H632 0.931 . S
C617 C616 1.370 . S
C617 C621 1.408 . S
C618 C616 1.363 . S
C618 C619 1.370 . S
C618 C622 1.524 . S
C619 C611 1.503 1_455 S
C619 C618 1.370 . S
C619 C620 1.403 . S
C620 C619 1.403 . S
C620 C621 1.404 . S
C620 C623 1.539 . S
C621 C617 1.408 . S
C621 C620 1.404 . S
C621 H633 0.930 . S
C622 C618 1.524 . S
C622 H634 0.956 . S
C622 H635 0.961 1_455 S
C622 H636 0.961 . S
C623 C620 1.539 . S
C623 H637 0.958 . S
C623 H638 0.961 . S
C623 H639 0.960 1_455 S
H624 C608 0.931 . S
H625 C613 0.929 . S
H626 C614 0.960 . S
H627 C614 0.962 . S
H628 C614 0.960 1_655 S
H629 C615 0.961 . S
H630 C615 0.961 . S
H631 C615 0.961 . S
H632 C616 0.931 . S
H633 C621 0.930 . S
H634 C622 0.956 . S
H635 C622 0.961 1_655 S
H636 C622 0.961 . S
H637 C623 0.958 . S
H638 C623 0.961 . S
H639 C623 0.960 1_655 S
C640 C641 1.391 . S
C640 C642 1.394 . S
C640 H656 0.931 . S
C641 C640 1.391 . S
C641 C645 1.376 . S
C642 C640 1.394 . S
C642 C643 1.369 . S
C642 C646 1.531 . S
C643 C642 1.369 . S
C643 C644 1.410 . S
C643 C651 1.503 1_455 S
C644 C643 1.410 . S
C644 C645 1.392 . S
C644 C647 1.511 . S
C645 C641 1.376 . S
C645 C644 1.392 . S
C645 H657 0.929 . S
C646 C642 1.531 . S
C646 H658 0.943 1_455 S
C646 H659 0.962 . S
C646 H660 0.960 . S
C647 C644 1.511 . S
C647 H661 0.961 . S
C647 H662 0.961 1_455 S
C647 H663 0.961 1_455 S
C648 C649 1.370 . S
C648 C650 1.363 . S
C648 H664 0.931 . S
C649 C648 1.370 . S
C649 C653 1.408 . S
C650 C648 1.363 . S
C650 C651 1.370 . S
C650 C654 1.524 1_655 S
C651 C643 1.503 1_655 S
C651 C650 1.370 . S
C651 C652 1.403 . S
C652 C651 1.403 . S
C652 C653 1.404 . S
C652 C655 1.539 . S
C653 C649 1.408 . S
C653 C652 1.404 . S
C653 H665 0.930 . S
C654 C650 1.524 1_455 S
C654 H666 0.956 . S
C654 H667 0.961 . S
C654 H668 0.961 1_455 S
C655 C652 1.539 . S
C655 H669 0.958 . S
C655 H670 0.961 . S
C655 H671 0.960 . S
H656 C640 0.931 . S
H657 C645 0.929 . S
H658 C646 0.943 1_655 S
H659 C646 0.962 . S
H660 C646 0.960 . S
H661 C647 0.961 . S
H662 C647 0.961 1_655 S
H663 C647 0.961 1_655 S
H664 C648 0.931 . S
H665 C653 0.930 . S
H666 C654 0.956 . S
H667 C654 0.961 . S
H668 C654 0.961 1_655 S
H669 C655 0.958 . S
H670 C655 0.961 . S
H671 C655 0.960 . S
C672 C673 1.391 . S
C672 C674 1.394 . S
C672 H688 0.931 . S
C673 C672 1.391 . S
C673 C677 1.376 . S
C674 C672 1.394 . S
C674 C675 1.369 . S
C674 C678 1.531 . S
C675 C674 1.369 . S
C675 C676 1.410 . S
C675 C683 1.503 1_655 S
C676 C675 1.410 . S
C676 C677 1.392 . S
C676 C679 1.511 . S
C677 C673 1.376 . S
C677 C676 1.392 . S
C677 H689 0.929 . S
C678 C674 1.531 . S
C678 H690 0.960 1_655 S
C678 H691 0.965 . S
C678 H692 0.960 . S
C679 C676 1.511 . S
C679 H693 0.961 . S
C679 H694 0.961 . S
C679 H695 0.961 . S
C680 C681 1.370 . S
C680 C682 1.363 . S
C680 H696 0.931 . S
C681 C680 1.370 . S
C681 C685 1.408 . S
C682 C680 1.363 . S
C682 C683 1.370 . S
C682 C686 1.498 1_455 S
C683 C675 1.503 1_455 S
C683 C682 1.370 . S
C683 C684 1.403 . S
C684 C683 1.403 . S
C684 C685 1.404 . S
C684 C687 1.539 . S
C685 C681 1.408 . S
C685 C684 1.404 . S
C685 H697 0.930 . S
C686 C682 1.498 1_655 S
C686 H698 0.969 . S
C686 H699 0.988 . S
C686 H700 0.948 1_655 S
C687 C684 1.539 . S
C687 H701 0.958 . S
C687 H702 0.961 . S
C687 H703 0.960 . S
H688 C672 0.931 . S
H689 C677 0.929 . S
H690 C678 0.960 1_455 S
H691 C678 0.965 . S
H692 C678 0.960 . S
H693 C679 0.961 . S
H694 C679 0.961 . S
H695 C679 0.961 . S
H696 C680 0.931 . S
H697 C685 0.930 . S
H698 C686 0.969 . S
H699 C686 0.988 . S
H700 C686 0.948 1_455 S
H701 C687 0.958 . S
H702 C687 0.961 . S
H703 C687 0.960 . S
C704 C705 1.391 . S
C704 C706 1.394 . S
C704 H720 0.931 . S
C705 C704 1.391 . S
C705 C709 1.376 . S
C706 C704 1.394 . S
C706 C707 1.369 . S
C706 C710 1.531 . S
C707 C706 1.369 . S
C707 C708 1.410 . S
C707 C715 1.503 1_455 S
C708 C707 1.410 . S
C708 C709 1.392 . S
C708 C711 1.511 1_455 S
C709 C705 1.376 . S
C709 C708 1.392 . S
C709 H721 0.929 . S
C710 C706 1.531 . S
C710 H722 0.960 . S
C710 H723 0.962 . S
C710 H724 0.960 . S
C711 C708 1.511 1_655 S
C711 H725 0.961 1_655 S
C711 H726 0.961 . S
C711 H727 0.961 . S
C712 C713 1.370 . S
C712 C714 1.363 . S
C712 H728 0.931 . S
C713 C712 1.370 . S
C713 C717 1.408 . S
C714 C712 1.363 . S
C714 C715 1.370 . S
C714 C718 1.524 . S
C715 C707 1.503 1_655 S
C715 C714 1.370 . S
C715 C716 1.403 . S
C716 C715 1.403 . S
C716 C717 1.404 . S
C716 C719 1.539 . S
C717 C713 1.408 . S
C717 C716 1.404 . S
C717 H729 0.930 . S
C718 C714 1.524 . S
C718 H730 0.956 1_655 S
C718 H731 0.961 1_655 S
C718 H732 0.961 . S
C719 C716 1.539 . S
C719 H733 0.958 . S
C719 H734 0.961 . S
C719 H735 0.960 . S
H720 C704 0.931 . S
H721 C709 0.929 . S
H722 C710 0.960 . S
H723 C710 0.962 . S
H724 C710 0.960 . S
H725 C711 0.961 1_455 S
H726 C711 0.961 . S
H727 C711 0.961 . S
H728 C712 0.931 . S
H729 C717 0.930 . S
H730 C718 0.956 1_455 S
H731 C718 0.961 1_455 S
H732 C718 0.961 . S
H733 C719 0.958 . S
H734 C719 0.961 . S
H735 C719 0.960 . S
C736 C737 1.391 . S
C736 C738 1.394 . S
C736 H752 0.931 . S
C737 C736 1.391 . S
C737 C741 1.376 . S
C738 C736 1.394 . S
C738 C739 1.369 . S
C738 C742 1.531 . S
C739 C738 1.369 . S
C739 C740 1.410 . S
C739 C747 1.503 . S
C740 C739 1.410 . S
C740 C741 1.392 . S
C740 C743 1.511 . S
C741 C737 1.376 . S
C741 C740 1.392 . S
C741 H753 0.929 . S
C742 C738 1.531 . S
C742 H754 0.960 . S
C742 H755 0.962 . S
C742 H756 0.960 . S
C743 C740 1.511 . S
C743 H757 0.961 . S
C743 H758 0.961 . S
C743 H759 0.961 . S
C744 C745 1.370 . S
C744 C746 1.363 . S
C744 H760 0.931 . S
C745 C744 1.370 . S
C745 C749 1.408 . S
C746 C744 1.363 . S
C746 C747 1.370 . S
C746 C750 1.524 . S
C747 C739 1.503 . S
C747 C746 1.370 . S
C747 C748 1.403 . S
C748 C747 1.403 . S
C748 C749 1.404 . S
C748 C751 1.539 . S
C749 C745 1.408 . S
C749 C748 1.404 . S
C749 H761 0.930 . S
C750 C746 1.524 . S
C750 H762 0.956 . S
C750 H763 0.961 . S
C750 H764 0.961 . S
C751 C748 1.539 . S
C751 H765 0.958 . S
C751 H766 0.961 . S
C751 H767 0.960 . S
H752 C736 0.931 . S
H753 C741 0.929 . S
H754 C742 0.960 . S
H755 C742 0.962 . S
H756 C742 0.960 . S
H757 C743 0.961 . S
H758 C743 0.961 . S
H759 C743 0.961 . S
H760 C744 0.931 . S
H761 C749 0.930 . S
H762 C750 0.956 . S
H763 C750 0.961 . S
H764 C750 0.961 . S
H765 C751 0.958 . S
H766 C751 0.961 . S
H767 C751 0.960 . S
C768 C769 1.391 . S
C768 C770 1.394 . S
C768 H784 0.931 . S
C769 C768 1.391 . S
C769 C773 1.376 . S
C770 C768 1.394 . S
C770 C771 1.369 . S
C770 C774 1.531 . S
C771 C770 1.369 . S
C771 C772 1.410 . S
C771 C779 1.503 . S
C772 C771 1.410 . S
C772 C773 1.392 . S
C772 C775 1.511 . S
C773 C769 1.376 . S
C773 C772 1.392 . S
C773 H785 0.929 . S
C774 C770 1.531 . S
C774 H786 0.960 . S
C774 H787 0.962 . S
C774 H788 0.960 . S
C775 C772 1.511 . S
C775 H789 0.961 . S
C775 H790 0.961 . S
C775 H791 0.961 . S
C776 C777 1.370 . S
C776 C778 1.363 . S
C776 H792 0.931 . S
C777 C776 1.370 . S
C777 C781 1.408 . S
C778 C776 1.363 . S
C778 C779 1.370 . S
C778 C782 1.524 . S
C779 C771 1.503 . S
C779 C778 1.370 . S
C779 C780 1.403 . S
C780 C779 1.403 . S
C780 C781 1.404 . S
C780 C783 1.539 . S
C781 C777 1.408 . S
C781 C780 1.404 . S
C781 H793 0.930 . S
C782 C778 1.524 . S
C782 H794 0.956 . S
C782 H795 0.961 . S
C782 H796 0.961 . S
C783 C780 1.539 . S
C783 H797 0.958 . S
C783 H798 0.961 . S
C783 H799 0.960 . S
H784 C768 0.931 . S
H785 C773 0.929 . S
H786 C774 0.960 . S
H787 C774 0.962 . S
H788 C774 0.960 . S
H789 C775 0.961 . S
H790 C775 0.961 . S
H791 C775 0.961 . S
H792 C776 0.931 . S
H793 C781 0.930 . S
H794 C782 0.956 . S
H795 C782 0.961 . S
H796 C782 0.961 . S
H797 C783 0.958 . S
H798 C783 0.961 . S
H799 C783 0.960 . S
C800 C801 1.391 . S
C800 C802 1.394 . S
C800 H816 0.931 . S
C801 C800 1.391 . S
C801 C805 1.376 . S
C802 C800 1.394 . S
C802 C803 1.369 . S
C802 C806 1.531 . S
C803 C802 1.369 . S
C803 C804 1.410 . S
C803 C811 1.503 . S
C804 C803 1.410 . S
C804 C805 1.392 . S
C804 C807 1.511 . S
C805 C801 1.376 . S
C805 C804 1.392 . S
C805 H817 0.929 . S
C806 C802 1.531 . S
C806 H818 0.960 . S
C806 H819 0.962 . S
C806 H820 0.960 . S
C807 C804 1.511 . S
C807 H821 0.961 . S
C807 H822 0.961 . S
C807 H823 0.961 . S
C808 C809 1.370 . S
C808 C810 1.363 . S
C808 H824 0.931 . S
C809 C808 1.370 . S
C809 C813 1.408 . S
C810 C808 1.363 . S
C810 C811 1.370 . S
C810 C814 1.524 . S
C811 C803 1.503 . S
C811 C810 1.370 . S
C811 C812 1.403 . S
C812 C811 1.403 . S
C812 C813 1.404 . S
C812 C815 1.539 . S
C813 C809 1.408 . S
C813 C812 1.404 . S
C813 H825 0.930 . S
C814 C810 1.524 . S
C814 H826 0.956 . S
C814 H827 0.961 . S
C814 H828 0.961 . S
C815 C812 1.539 . S
C815 H829 0.958 . S
C815 H830 0.961 . S
C815 H831 0.960 . S
H816 C800 0.931 . S
H817 C805 0.929 . S
H818 C806 0.960 . S
H819 C806 0.962 . S
H820 C806 0.960 . S
H821 C807 0.961 . S
H822 C807 0.961 . S
H823 C807 0.961 . S
H824 C808 0.931 . S
H825 C813 0.930 . S
H826 C814 0.956 . S
H827 C814 0.961 . S
H828 C814 0.961 . S
H829 C815 0.958 . S
H830 C815 0.961 . S
H831 C815 0.960 . S
C832 C833 1.391 . S
C832 C834 1.394 . S
C832 H848 0.931 . S
C833 C832 1.391 . S
C833 C837 1.376 . S
C834 C832 1.394 . S
C834 C835 1.369 . S
C834 C838 1.531 . S
C835 C834 1.369 . S
C835 C836 1.410 . S
C835 C843 1.503 . S
C836 C835 1.410 . S
C836 C837 1.392 . S
C836 C839 1.511 . S
C837 C833 1.376 . S
C837 C836 1.392 . S
C837 H849 0.929 . S
C838 C834 1.531 . S
C838 H850 0.960 . S
C838 H851 0.962 . S
C838 H852 0.960 . S
C839 C836 1.511 . S
C839 H853 0.961 . S
C839 H854 0.961 . S
C839 H855 0.961 . S
C840 C841 1.370 . S
C840 C842 1.363 . S
C840 H856 0.931 . S
C841 C840 1.370 . S
C841 C845 1.408 . S
C842 C840 1.363 . S
C842 C843 1.370 . S
C842 C846 1.524 . S
C843 C835 1.503 . S
C843 C842 1.370 . S
C843 C844 1.403 . S
C844 C843 1.403 . S
C844 C845 1.404 . S
C844 C847 1.539 . S
C845 C841 1.408 . S
C845 C844 1.404 . S
C845 H857 0.930 . S
C846 C842 1.524 . S
C846 H858 0.956 . S
C846 H859 0.961 . S
C846 H860 0.961 . S
C847 C844 1.539 . S
C847 H861 0.958 . S
C847 H862 0.961 . S
C847 H863 0.960 . S
H848 C832 0.931 . S
H849 C837 0.929 . S
H850 C838 0.960 . S
H851 C838 0.962 . S
H852 C838 0.960 . S
H853 C839 0.961 . S
H854 C839 0.961 . S
H855 C839 0.961 . S
H856 C840 0.931 . S
H857 C845 0.930 . S
H858 C846 0.956 . S
H859 C846 0.961 . S
H860 C846 0.961 . S
H861 C847 0.958 . S
H862 C847 0.961 . S
H863 C847 0.960 . S
C864 C865 1.391 . S
C864 C866 1.394 . S
C864 H880 0.931 . S
C865 C864 1.391 . S
C865 C869 1.376 . S
C866 C864 1.394 . S
C866 C867 1.369 . S
C866 C870 1.531 . S
C867 C866 1.369 . S
C867 C868 1.410 . S
C867 C875 1.503 . S
C868 C867 1.410 . S
C868 C869 1.392 . S
C868 C871 1.511 . S
C869 C865 1.376 . S
C869 C868 1.392 . S
C869 H881 0.929 . S
C870 C866 1.531 . S
C870 H882 0.960 . S
C870 H883 0.962 . S
C870 H884 0.960 . S
C871 C868 1.511 . S
C871 H885 0.961 . S
C871 H886 0.961 . S
C871 H887 0.961 . S
C872 C873 1.370 . S
C872 C874 1.363 . S
C872 H888 0.931 . S
C873 C872 1.370 . S
C873 C877 1.408 . S
C874 C872 1.363 . S
C874 C875 1.370 . S
C874 C878 1.524 . S
C875 C867 1.503 . S
C875 C874 1.370 . S
C875 C876 1.403 . S
C876 C875 1.403 . S
C876 C877 1.404 . S
C876 C879 1.539 . S
C877 C873 1.408 . S
C877 C876 1.404 . S
C877 H889 0.930 . S
C878 C874 1.524 . S
C878 H890 0.956 . S
C878 H891 0.961 . S
C878 H892 0.961 . S
C879 C876 1.539 . S
C879 H893 0.958 . S
C879 H894 0.961 . S
C879 H895 0.960 . S
H880 C864 0.931 . S
H881 C869 0.929 . S
H882 C870 0.960 . S
H883 C870 0.962 . S
H884 C870 0.960 . S
H885 C871 0.961 . S
H886 C871 0.961 . S
H887 C871 0.961 . S
H888 C872 0.931 . S
H889 C877 0.930 . S
H890 C878 0.956 . S
H891 C878 0.961 . S
H892 C878 0.961 . S
H893 C879 0.958 . S
H894 C879 0.961 . S
H895 C879 0.960 . S
C896 C897 1.391 . S
C896 C898 1.394 . S
C896 H912 0.931 . S
C897 C896 1.391 . S
C897 C901 1.376 . S
C898 C896 1.394 . S
C898 C899 1.369 . S
C898 C902 1.531 . S
C899 C898 1.369 . S
C899 C900 1.410 . S
C899 C907 1.503 . S
C900 C899 1.410 . S
C900 C901 1.392 . S
C900 C903 1.511 . S
C901 C897 1.376 . S
C901 C900 1.392 . S
C901 H913 0.929 . S
C902 C898 1.531 . S
C902 H914 0.960 . S
C902 H915 0.962 . S
C902 H916 0.960 . S
C903 C900 1.511 . S
C903 H917 0.961 . S
C903 H918 0.961 . S
C903 H919 0.961 . S
C904 C905 1.370 . S
C904 C906 1.363 . S
C904 H920 0.931 . S
C905 C904 1.370 . S
C905 C909 1.408 . S
C906 C904 1.363 . S
C906 C907 1.370 . S
C906 C910 1.524 . S
C907 C899 1.503 . S
C907 C906 1.370 . S
C907 C908 1.403 . S
C908 C907 1.403 . S
C908 C909 1.404 . S
C908 C911 1.539 . S
C909 C905 1.408 . S
C909 C908 1.404 . S
C909 H921 0.930 . S
C910 C906 1.524 . S
C910 H922 0.956 . S
C910 H923 0.961 . S
C910 H924 0.961 . S
C911 C908 1.539 . S
C911 H925 0.958 . S
C911 H926 0.961 . S
C911 H927 0.960 . S
H912 C896 0.931 . S
H913 C901 0.929 . S
H914 C902 0.960 . S
H915 C902 0.962 . S
H916 C902 0.960 . S
H917 C903 0.961 . S
H918 C903 0.961 . S
H919 C903 0.961 . S
H920 C904 0.931 . S
H921 C909 0.930 . S
H922 C910 0.956 . S
H923 C910 0.961 . S
H924 C910 0.961 . S
H925 C911 0.958 . S
H926 C911 0.961 . S
H927 C911 0.960 . S
C928 C929 1.391 . S
C928 C930 1.394 . S
C928 H944 0.931 . S
C929 C928 1.391 . S
C929 C933 1.376 . S
C930 C928 1.394 . S
C930 C931 1.369 . S
C930 C934 1.531 . S
C931 C930 1.369 . S
C931 C932 1.410 . S
C931 C939 1.503 . S
C932 C931 1.410 . S
C932 C933 1.392 . S
C932 C935 1.511 . S
C933 C929 1.376 . S
C933 C932 1.392 . S
C933 H945 0.929 . S
C934 C930 1.531 . S
C934 H946 0.960 . S
C934 H947 0.962 . S
C934 H948 0.960 . S
C935 C932 1.511 . S
C935 H949 0.961 . S
C935 H950 0.961 . S
C935 H951 0.961 . S
C936 C937 1.370 . S
C936 C938 1.363 . S
C936 H952 0.931 . S
C937 C936 1.370 . S
C937 C941 1.408 . S
C938 C936 1.363 . S
C938 C939 1.370 . S
C938 C942 1.524 . S
C939 C931 1.503 . S
C939 C938 1.370 . S
C939 C940 1.403 . S
C940 C939 1.403 . S
C940 C941 1.404 . S
C940 C943 1.539 . S
C941 C937 1.408 . S
C941 C940 1.404 . S
C941 H953 0.930 . S
C942 C938 1.524 . S
C942 H954 0.956 . S
C942 H955 0.961 . S
C942 H956 0.961 . S
C943 C940 1.539 . S
C943 H957 0.958 . S
C943 H958 0.961 . S
C943 H959 0.960 . S
H944 C928 0.931 . S
H945 C933 0.929 . S
H946 C934 0.960 . S
H947 C934 0.962 . S
H948 C934 0.960 . S
H949 C935 0.961 . S
H950 C935 0.961 . S
H951 C935 0.961 . S
H952 C936 0.931 . S
H953 C941 0.930 . S
H954 C942 0.956 . S
H955 C942 0.961 . S
H956 C942 0.961 . S
H957 C943 0.958 . S
H958 C943 0.961 . S
H959 C943 0.960 . S
C960 C961 1.391 . S
C960 C962 1.394 . S
C960 H976 0.931 . S
C961 C960 1.391 . S
C961 C965 1.376 . S
C962 C960 1.394 . S
C962 C963 1.369 . S
C962 C966 1.531 . S
C963 C962 1.369 . S
C963 C964 1.410 . S
C963 C971 1.503 . S
C964 C963 1.410 . S
C964 C965 1.392 . S
C964 C967 1.511 . S
C965 C961 1.376 . S
C965 C964 1.392 . S
C965 H977 0.929 . S
C966 C962 1.531 . S
C966 H978 0.960 . S
C966 H979 0.962 . S
C966 H980 0.960 . S
C967 C964 1.511 . S
C967 H981 0.961 . S
C967 H982 0.961 . S
C967 H983 0.961 . S
C968 C969 1.370 . S
C968 C970 1.363 . S
C968 H984 0.931 . S
C969 C968 1.370 . S
C969 C973 1.408 . S
C970 C968 1.363 . S
C970 C971 1.370 . S
C970 C974 1.524 . S
C971 C963 1.503 . S
C971 C970 1.370 . S
C971 C972 1.403 . S
C972 C971 1.403 . S
C972 C973 1.404 . S
C972 C975 1.539 . S
C973 C969 1.408 . S
C973 C972 1.404 . S
C973 H985 0.930 . S
C974 C970 1.524 . S
C974 H986 0.956 . S
C974 H987 0.961 . S
C974 H988 0.961 . S
C975 C972 1.539 . S
C975 H989 0.958 . S
C975 H990 0.961 . S
C975 H991 0.960 . S
H976 C960 0.931 . S
H977 C965 0.929 . S
H978 C966 0.960 . S
H979 C966 0.962 . S
H980 C966 0.960 . S
H981 C967 0.961 . S
H982 C967 0.961 . S
H983 C967 0.961 . S
H984 C968 0.931 . S
H985 C973 0.930 . S
H986 C974 0.956 . S
H987 C974 0.961 . S
H988 C974 0.961 . S
H989 C975 0.958 . S
H990 C975 0.961 . S
H991 C975 0.960 . S
C992 C993 1.391 . S
C992 C994 1.394 1_545 S
C992 H1008 0.931 1_545 S
C993 C992 1.391 . S
C993 C997 1.376 . S
C994 C992 1.394 1_565 S
C994 C995 1.369 1_565 S
C994 C998 1.531 . S
C995 C994 1.369 1_545 S
C995 C996 1.410 . S
C995 C1003 1.503 1_545 S
C996 C995 1.410 . S
C996 C997 1.392 . S
C996 C999 1.511 . S
C997 C993 1.376 . S
C997 C996 1.392 . S
C997 H1009 0.929 . S
C998 C994 1.531 . S
C998 H1010 0.960 . S
C998 H1011 0.962 . S
C998 H1012 0.960 . S
C999 C996 1.511 . S
C999 H1013 0.961 . S
C999 H1014 0.961 . S
C999 H1015 0.961 . S
C1000 C1001 1.370 . S
C1000 C1002 1.363 . S
C1000 H1016 0.931 . S
C1001 C1000 1.370 . S
C1001 C1005 1.408 . S
C1002 C1000 1.363 . S
C1002 C1003 1.370 . S
C1002 C1006 1.524 . S
C1003 C995 1.503 1_565 S
C1003 C1002 1.370 . S
C1003 C1004 1.403 . S
C1004 C1003 1.403 . S
C1004 C1005 1.404 . S
C1004 C1007 1.539 . S
C1005 C1001 1.408 . S
C1005 C1004 1.404 . S
C1005 H1017 0.930 . S
C1006 C1002 1.524 . S
C1006 H1018 0.956 . S
C1006 H1019 0.961 1_565 S
C1006 H1020 0.961 . S
C1007 C1004 1.539 . S
C1007 H1021 0.958 . S
C1007 H1022 0.961 1_565 S
C1007 H1023 0.960 1_565 S
H1008 C992 0.931 1_565 S
H1009 C997 0.929 . S
H1010 C998 0.960 . S
H1011 C998 0.962 . S
H1012 C998 0.960 . S
H1013 C999 0.961 . S
H1014 C999 0.961 . S
H1015 C999 0.961 . S
H1016 C1000 0.931 . S
H1017 C1005 0.930 . S
H1018 C1006 0.956 . S
H1019 C1006 0.961 1_545 S
H1020 C1006 0.961 . S
H1021 C1007 0.958 . S
H1022 C1007 0.961 1_545 S
H1023 C1007 0.960 1_545 S
C1024 C1025 1.391 . S
C1024 C1026 1.394 . S
C1024 H1040 0.931 . S
C1025 C1024 1.391 . S
C1025 C1029 1.376 . S
C1026 C1024 1.394 . S
C1026 C1027 1.369 . S
C1026 C1030 1.531 . S
C1027 C1026 1.369 . S
C1027 C1028 1.410 . S
C1027 C1035 1.503 1_545 S
C1028 C1027 1.410 . S
C1028 C1029 1.392 . S
C1028 C1031 1.511 . S
C1029 C1025 1.376 . S
C1029 C1028 1.392 . S
C1029 H1041 0.929 . S
C1030 C1026 1.531 . S
C1030 H1042 0.960 . S
C1030 H1043 0.947 1_545 S
C1030 H1044 0.960 . S
C1031 C1028 1.511 . S
C1031 H1045 0.961 . S
C1031 H1046 0.961 1_545 S
C1031 H1047 0.961 . S
C1032 C1033 1.370 . S
C1032 C1034 1.363 . S
C1032 H1048 0.931 . S
C1033 C1032 1.370 . S
C1033 C1037 1.408 . S
C1034 C1032 1.363 . S
C1034 C1035 1.370 . S
C1034 C1038 1.524 . S
C1035 C1027 1.503 1_565 S
C1035 C1034 1.370 . S
C1035 C1036 1.403 1_565 S
C1036 C1035 1.403 1_545 S
C1036 C1037 1.404 1_545 S
C1036 C1039 1.539 . S
C1037 C1033 1.408 . S
C1037 C1036 1.404 1_565 S
C1037 H1049 0.930 1_565 S
C1038 C1034 1.524 . S
C1038 H1050 0.956 . S
C1038 H1051 0.961 . S
C1038 H1052 0.961 . S
C1039 C1036 1.539 . S
C1039 H1053 0.958 . S
C1039 H1054 0.961 . S
C1039 H1055 0.960 . S
H1040 C1024 0.931 . S
H1041 C1029 0.929 . S
H1042 C1030 0.960 . S
H1043 C1030 0.947 1_565 S
H1044 C1030 0.960 . S
H1045 C1031 0.961 . S
H1046 C1031 0.961 1_565 S
H1047 C1031 0.961 . S
H1048 C1032 0.931 . S
H1049 C1037 0.930 1_545 S
H1050 C1038 0.956 . S
H1051 C1038 0.961 . S
H1052 C1038 0.961 . S
H1053 C1039 0.958 . S
H1054 C1039 0.961 . S
H1055 C1039 0.960 . S
C1056 C1057 1.391 . S
C1056 C1058 1.394 . S
C1056 H1072 0.931 . S
C1057 C1056 1.391 . S
C1057 C1061 1.376 . S
C1058 C1056 1.394 . S
C1058 C1059 1.369 . S
C1058 C1062 1.531 1_545 S
C1059 C1058 1.369 . S
C1059 C1060 1.410 . S
C1059 C1067 1.503 1_545 S
C1060 C1059 1.410 . S
C1060 C1061 1.392 . S
C1060 C1063 1.511 . S
C1061 C1057 1.376 . S
C1061 C1060 1.392 . S
C1061 H1073 0.929 . S
C1062 C1058 1.531 1_565 S
C1062 H1074 0.960 . S
C1062 H1075 0.962 1_565 S
C1062 H1076 0.960 . S
C1063 C1060 1.511 . S
C1063 H1077 0.961 . S
C1063 H1078 0.961 . S
C1063 H1079 0.961 1_545 S
C1064 C1065 1.370 . S
C1064 C1066 1.363 1_565 S
C1064 H1080 0.931 1_565 S
C1065 C1064 1.370 . S
C1065 C1069 1.408 . S
C1066 C1064 1.363 1_545 S
C1066 C1067 1.370 1_545 S
C1066 C1070 1.524 . S
C1067 C1059 1.503 1_565 S
C1067 C1066 1.370 1_565 S
C1067 C1068 1.403 . S
C1068 C1067 1.403 . S
C1068 C1069 1.404 . S
C1068 C1071 1.539 . S
C1069 C1065 1.408 . S
C1069 C1068 1.404 . S
C1069 H1081 0.930 . S
C1070 C1066 1.524 . S
C1070 H1082 0.956 . S
C1070 H1083 0.961 . S
C1070 H1084 0.961 . S
C1071 C1068 1.539 . S
C1071 H1085 0.958 . S
C1071 H1086 0.961 . S
C1071 H1087 0.960 . S
H1072 C1056 0.931 . S
H1073 C1061 0.929 . S
H1074 C1062 0.960 . S
H1075 C1062 0.962 1_545 S
H1076 C1062 0.960 . S
H1077 C1063 0.961 . S
H1078 C1063 0.961 . S
H1079 C1063 0.961 1_565 S
H1080 C1064 0.931 1_545 S
H1081 C1069 0.930 . S
H1082 C1070 0.956 . S
H1083 C1070 0.961 . S
H1084 C1070 0.961 . S
H1085 C1071 0.958 . S
H1086 C1071 0.961 . S
H1087 C1071 0.960 . S
C1088 C1089 1.391 . S
C1088 C1090 1.394 1_565 S
C1088 H1104 0.931 . S
C1089 C1088 1.391 . S
C1089 C1093 1.376 . S
C1090 C1088 1.394 1_545 S
C1090 C1091 1.369 1_545 S
C1090 C1094 1.531 . S
C1091 C1090 1.369 1_565 S
C1091 C1092 1.410 . S
C1091 C1099 1.503 1_565 S
C1092 C1091 1.410 . S
C1092 C1093 1.392 . S
C1092 C1095 1.511 . S
C1093 C1089 1.376 . S
C1093 C1092 1.392 . S
C1093 H1105 0.929 . S
C1094 C1090 1.531 . S
C1094 H1106 0.960 . S
C1094 H1107 0.962 . S
C1094 H1108 0.960 . S
C1095 C1092 1.511 . S
C1095 H1109 0.961 . S
C1095 H1110 0.961 . S
C1095 H1111 0.961 . S
C1096 C1097 1.370 . S
C1096 C1098 1.363 1_545 S
C1096 H1112 0.931 1_545 S
C1097 C1096 1.370 . S
C1097 C1101 1.408 . S
C1098 C1096 1.363 1_565 S
C1098 C1099 1.370 1_565 S
C1098 C1102 1.524 . S
C1099 C1091 1.503 1_545 S
C1099 C1098 1.370 1_545 S
C1099 C1100 1.403 . S
C1100 C1099 1.403 . S
C1100 C1101 1.404 . S
C1100 C1103 1.539 . S
C1101 C1097 1.408 . S
C1101 C1100 1.404 . S
C1101 H1113 0.930 . S
C1102 C1098 1.524 . S
C1102 H1114 0.956 . S
C1102 H1115 0.961 . S
C1102 H1116 0.961 . S
C1103 C1100 1.539 . S
C1103 H1117 0.958 . S
C1103 H1118 0.961 . S
C1103 H1119 0.960 . S
H1104 C1088 0.931 . S
H1105 C1093 0.929 . S
H1106 C1094 0.960 . S
H1107 C1094 0.962 . S
H1108 C1094 0.960 . S
H1109 C1095 0.961 . S
H1110 C1095 0.961 . S
H1111 C1095 0.961 . S
H1112 C1096 0.931 1_565 S
H1113 C1101 0.930 . S
H1114 C1102 0.956 . S
H1115 C1102 0.961 . S
H1116 C1102 0.961 . S
H1117 C1103 0.958 . S
H1118 C1103 0.961 . S
H1119 C1103 0.960 . S
C1120 C1121 1.391 . S
C1120 C1122 1.394 . S
C1120 H1136 0.931 . S
C1121 C1120 1.391 . S
C1121 C1125 1.376 . S
C1122 C1120 1.394 . S
C1122 C1123 1.369 . S
C1122 C1126 1.531 . S
C1123 C1122 1.369 . S
C1123 C1124 1.410 . S
C1123 C1131 1.503 . S
C1124 C1123 1.410 . S
C1124 C1125 1.392 . S
C1124 C1127 1.511 . S
C1125 C1121 1.376 . S
C1125 C1124 1.392 . S
C1125 H1137 0.929 . S
C1126 C1122 1.531 . S
C1126 H1138 0.960 . S
C1126 H1139 0.962 . S
C1126 H1140 0.960 . S
C1127 C1124 1.511 . S
C1127 H1141 0.961 . S
C1127 H1142 0.961 . S
C1127 H1143 0.961 . S
C1128 C1129 1.370 . S
C1128 C1130 1.363 . S
C1128 H1144 0.931 . S
C1129 C1128 1.370 . S
C1129 C1133 1.408 . S
C1130 C1128 1.363 . S
C1130 C1131 1.370 . S
C1130 C1134 1.524 . S
C1131 C1123 1.503 . S
C1131 C1130 1.370 . S
C1131 C1132 1.403 . S
C1132 C1131 1.403 . S
C1132 C1133 1.404 . S
C1132 C1135 1.539 . S
C1133 C1129 1.408 . S
C1133 C1132 1.404 . S
C1133 H1145 0.930 . S
C1134 C1130 1.524 . S
C1134 H1146 0.956 . S
C1134 H1147 0.961 . S
C1134 H1148 0.961 . S
C1135 C1132 1.539 . S
C1135 H1149 0.958 . S
C1135 H1150 0.961 . S
C1135 H1151 0.960 . S
H1136 C1120 0.931 . S
H1137 C1125 0.929 . S
H1138 C1126 0.960 . S
H1139 C1126 0.962 . S
H1140 C1126 0.960 . S
H1141 C1127 0.961 . S
H1142 C1127 0.961 . S
H1143 C1127 0.961 . S
H1144 C1128 0.931 . S
H1145 C1133 0.930 . S
H1146 C1134 0.956 . S
H1147 C1134 0.961 . S
H1148 C1134 0.961 . S
H1149 C1135 0.958 . S
H1150 C1135 0.961 . S
H1151 C1135 0.960 . S
C1152 C1153 1.391 . S
C1152 C1154 1.394 . S
C1152 H1168 0.931 . S
C1153 C1152 1.391 . S
C1153 C1157 1.376 . S
C1154 C1152 1.394 . S
C1154 C1155 1.369 . S
C1154 C1158 1.531 . S
C1155 C1154 1.369 . S
C1155 C1156 1.410 . S
C1155 C1163 1.503 . S
C1156 C1155 1.410 . S
C1156 C1157 1.392 . S
C1156 C1159 1.511 . S
C1157 C1153 1.376 . S
C1157 C1156 1.392 . S
C1157 H1169 0.929 . S
C1158 C1154 1.531 . S
C1158 H1170 0.960 . S
C1158 H1171 0.962 . S
C1158 H1172 0.960 . S
C1159 C1156 1.511 . S
C1159 H1173 0.961 . S
C1159 H1174 0.961 . S
C1159 H1175 0.961 . S
C1160 C1161 1.370 . S
C1160 C1162 1.363 . S
C1160 H1176 0.931 . S
C1161 C1160 1.370 . S
C1161 C1165 1.408 . S
C1162 C1160 1.363 . S
C1162 C1163 1.370 . S
C1162 C1166 1.524 . S
C1163 C1155 1.503 . S
C1163 C1162 1.370 . S
C1163 C1164 1.403 . S
C1164 C1163 1.403 . S
C1164 C1165 1.404 . S
C1164 C1167 1.539 . S
C1165 C1161 1.408 . S
C1165 C1164 1.404 . S
C1165 H1177 0.930 . S
C1166 C1162 1.524 . S
C1166 H1178 0.956 . S
C1166 H1179 0.961 . S
C1166 H1180 0.961 . S
C1167 C1164 1.539 . S
C1167 H1181 0.958 . S
C1167 H1182 0.961 . S
C1167 H1183 0.960 . S
H1168 C1152 0.931 . S
H1169 C1157 0.929 . S
H1170 C1158 0.960 . S
H1171 C1158 0.962 . S
H1172 C1158 0.960 . S
H1173 C1159 0.961 . S
H1174 C1159 0.961 . S
H1175 C1159 0.961 . S
H1176 C1160 0.931 . S
H1177 C1165 0.930 . S
H1178 C1166 0.956 . S
H1179 C1166 0.961 . S
H1180 C1166 0.961 . S
H1181 C1167 0.958 . S
H1182 C1167 0.961 . S
H1183 C1167 0.960 . S
C1184 C1185 1.391 . S
C1184 C1186 1.394 . S
C1184 H1200 0.931 . S
C1185 C1184 1.391 . S
C1185 C1189 1.376 . S
C1186 C1184 1.394 . S
C1186 C1187 1.369 . S
C1186 C1190 1.531 . S
C1187 C1186 1.369 . S
C1187 C1188 1.410 . S
C1187 C1195 1.503 . S
C1188 C1187 1.410 . S
C1188 C1189 1.392 . S
C1188 C1191 1.511 . S
C1189 C1185 1.376 . S
C1189 C1188 1.392 . S
C1189 H1201 0.929 . S
C1190 C1186 1.531 . S
C1190 H1202 0.960 . S
C1190 H1203 0.962 . S
C1190 H1204 0.960 . S
C1191 C1188 1.511 . S
C1191 H1205 0.961 . S
C1191 H1206 0.961 . S
C1191 H1207 0.961 . S
C1192 C1193 1.370 . S
C1192 C1194 1.363 . S
C1192 H1208 0.931 . S
C1193 C1192 1.370 . S
C1193 C1197 1.408 . S
C1194 C1192 1.363 . S
C1194 C1195 1.370 . S
C1194 C1198 1.524 . S
C1195 C1187 1.503 . S
C1195 C1194 1.370 . S
C1195 C1196 1.403 . S
C1196 C1195 1.403 . S
C1196 C1197 1.404 . S
C1196 C1199 1.539 . S
C1197 C1193 1.408 . S
C1197 C1196 1.404 . S
C1197 H1209 0.930 . S
C1198 C1194 1.524 . S
C1198 H1210 0.956 . S
C1198 H1211 0.961 . S
C1198 H1212 0.961 . S
C1199 C1196 1.539 . S
C1199 H1213 0.958 . S
C1199 H1214 0.961 . S
C1199 H1215 0.960 . S
H1200 C1184 0.931 . S
H1201 C1189 0.929 . S
H1202 C1190 0.960 . S
H1203 C1190 0.962 . S
H1204 C1190 0.960 . S
H1205 C1191 0.961 . S
H1206 C1191 0.961 . S
H1207 C1191 0.961 . S
H1208 C1192 0.931 . S
H1209 C1197 0.930 . S
H1210 C1198 0.956 . S
H1211 C1198 0.961 . S
H1212 C1198 0.961 . S
H1213 C1199 0.958 . S
H1214 C1199 0.961 . S
H1215 C1199 0.960 . S
C1216 C1217 1.391 . S
C1216 C1218 1.394 . S
C1216 H1232 0.931 . S
C1217 C1216 1.391 . S
C1217 C1221 1.376 . S
C1218 C1216 1.394 . S
C1218 C1219 1.369 . S
C1218 C1222 1.531 . S
C1219 C1218 1.369 . S
C1219 C1220 1.410 . S
C1219 C1227 1.503 . S
C1220 C1219 1.410 . S
C1220 C1221 1.392 . S
C1220 C1223 1.511 . S
C1221 C1217 1.376 . S
C1221 C1220 1.392 . S
C1221 H1233 0.929 . S
C1222 C1218 1.531 . S
C1222 H1234 0.960 . S
C1222 H1235 0.962 . S
C1222 H1236 0.960 . S
C1223 C1220 1.511 . S
C1223 H1237 0.961 . S
C1223 H1238 0.961 . S
C1223 H1239 0.961 . S
C1224 C1225 1.370 . S
C1224 C1226 1.363 . S
C1224 H1240 0.931 . S
C1225 C1224 1.370 . S
C1225 C1229 1.408 . S
C1226 C1224 1.363 . S
C1226 C1227 1.370 . S
C1226 C1230 1.524 . S
C1227 C1219 1.503 . S
C1227 C1226 1.370 . S
C1227 C1228 1.403 . S
C1228 C1227 1.403 . S
C1228 C1229 1.404 . S
C1228 C1231 1.539 . S
C1229 C1225 1.408 . S
C1229 C1228 1.404 . S
C1229 H1241 0.930 . S
C1230 C1226 1.524 . S
C1230 H1242 0.956 . S
C1230 H1243 0.961 . S
C1230 H1244 0.961 . S
C1231 C1228 1.539 . S
C1231 H1245 0.958 . S
C1231 H1246 0.961 . S
C1231 H1247 0.960 . S
H1232 C1216 0.931 . S
H1233 C1221 0.929 . S
H1234 C1222 0.960 . S
H1235 C1222 0.962 . S
H1236 C1222 0.960 . S
H1237 C1223 0.961 . S
H1238 C1223 0.961 . S
H1239 C1223 0.961 . S
H1240 C1224 0.931 . S
H1241 C1229 0.930 . S
H1242 C1230 0.956 . S
H1243 C1230 0.961 . S
H1244 C1230 0.961 . S
H1245 C1231 0.958 . S
H1246 C1231 0.961 . S
H1247 C1231 0.960 . S
C225 C0 1.597 . S
C233 C70 1.607 . S
C257 C56 1.615 . S
C265 C27 1.614 . S
C289 C28 1.600 . S
C297 C98 1.609 . S
C321 C84 1.609 . S
C329 C43 1.613 . S
C353 C195 1.606 . S
C361 C112 1.611 . S
C385 C168 1.611 . S
C393 C126 1.613 . S
C417 C210 1.611 . S
C425 C140 1.613 . S
C449 C166 1.596 . S
C457 C196 1.606 . S
C481 C15 1.506 . S
C489 C12 1.503 . S
C513 C40 1.502 . S
C521 C55 1.507 . S
C545 C68 1.492 . S
C553 C82 1.500 . S
C577 C96 1.498 . S
C585 C110 1.507 . S
C609 C124 1.492 . S
C617 C138 1.500 . S
C641 C154 1.499 . S
C649 C152 1.506 . S
C673 C183 1.501 . S
C681 C180 1.507 . S
C705 C208 1.491 . S
C713 C222 1.502 . S
C737 C139 1.507 . S
C745 C13 1.506 . S
C769 C14 1.505 . S
C777 C125 1.504 . S
C801 C155 1.494 . S
C809 C41 1.500 . S
C833 C54 1.492 . S
C841 C153 1.500 . S
C865 C69 1.507 . S
C873 C182 1.505 . S
C897 C181 1.492 . S
C905 C83 1.501 . S
C929 C97 1.494 . S
C937 C223 1.500 . S
C961 C209 1.507 . S
C969 C111 1.506 . S
C993 C1 1.624 . S
C1001 C29 1.630 . S
C1025 C42 1.644 . S
C1033 C26 1.631 . S
C1057 C85 1.619 . S
C1065 C57 1.641 . S
C1089 C99 1.624 . S
C1097 C71 1.641 . S
C1121 C141 1.616 . S
C1129 C113 1.639 . S
C1153 C127 1.616 . S
C1161 C167 1.638 . S
C1185 C197 1.625 . S
C1193 C169 1.640 . S
C1217 C194 1.619 . S
C1225 C211 1.636 . S
