# Generated by pormake.
# Topology whw, (6)-cn, num edge types: 1
# Building blocks:
#     Node 0, Type 0, BuildingBlock: PAMTOO_clean_sbu_0, # of connection points: 6
#     Node 1, Type 0, BuildingBlock: PAMTOO_clean_sbu_0, # of connection points: 6
#     Node 2, Type 0, BuildingBlock: PAMTOO_clean_sbu_0, # of connection points: 6
#     Node 3, Type 0, BuildingBlock: PAMTOO_clean_sbu_0, # of connection points: 6
#     Node 4, Type 0, BuildingBlock: PAMTOO_clean_sbu_0, # of connection points: 6
#     Node 5, Type 0, BuildingBlock: PAMTOO_clean_sbu_0, # of connection points: 6
#     Node 6, Type 0, BuildingBlock: PAMTOO_clean_sbu_0, # of connection points: 6
#     Node 7, Type 0, BuildingBlock: PAMTOO_clean_sbu_0, # of connection points: 6
#     Node 8, Type 0, BuildingBlock: PAMTOO_clean_sbu_0, # of connection points: 6
#     Node 9, Type 0, BuildingBlock: PAMTOO_clean_sbu_0, # of connection points: 6
#     Node 10, Type 0, BuildingBlock: PAMTOO_clean_sbu_0, # of connection points: 6
#     Node 11, Type 0, BuildingBlock: PAMTOO_clean_sbu_0, # of connection points: 6
#     Node 12, Type 0, BuildingBlock: PAMTOO_clean_sbu_0, # of connection points: 6
#     Node 13, Type 0, BuildingBlock: PAMTOO_clean_sbu_0, # of connection points: 6
#     Node 14, Type 0, BuildingBlock: PAMTOO_clean_sbu_0, # of connection points: 6
#     Node 15, Type 0, BuildingBlock: PAMTOO_clean_sbu_0, # of connection points: 6
#     Edge 16, Type (0, 0), BuildingBlock: KIFKEQ_clean_linker_1, # of connection points: 2
#     Edge 17, Type (0, 0), BuildingBlock: KIFKEQ_clean_linker_1, # of connection points: 2
#     Edge 18, Type (0, 0), BuildingBlock: KIFKEQ_clean_linker_1, # of connection points: 2
#     Edge 19, Type (0, 0), BuildingBlock: KIFKEQ_clean_linker_1, # of connection points: 2
#     Edge 20, Type (0, 0), BuildingBlock: KIFKEQ_clean_linker_1, # of connection points: 2
#     Edge 21, Type (0, 0), BuildingBlock: KIFKEQ_clean_linker_1, # of connection points: 2
#     Edge 22, Type (0, 0), BuildingBlock: KIFKEQ_clean_linker_1, # of connection points: 2
#     Edge 23, Type (0, 0), BuildingBlock: KIFKEQ_clean_linker_1, # of connection points: 2
#     Edge 24, Type (0, 0), BuildingBlock: KIFKEQ_clean_linker_1, # of connection points: 2
#     Edge 25, Type (0, 0), BuildingBlock: KIFKEQ_clean_linker_1, # of connection points: 2
#     Edge 26, Type (0, 0), BuildingBlock: KIFKEQ_clean_linker_1, # of connection points: 2
#     Edge 27, Type (0, 0), BuildingBlock: KIFKEQ_clean_linker_1, # of connection points: 2
#     Edge 28, Type (0, 0), BuildingBlock: KIFKEQ_clean_linker_1, # of connection points: 2
#     Edge 29, Type (0, 0), BuildingBlock: KIFKEQ_clean_linker_1, # of connection points: 2
#     Edge 30, Type (0, 0), BuildingBlock: KIFKEQ_clean_linker_1, # of connection points: 2
#     Edge 31, Type (0, 0), BuildingBlock: KIFKEQ_clean_linker_1, # of connection points: 2
#     Edge 32, Type (0, 0), BuildingBlock: KIFKEQ_clean_linker_1, # of connection points: 2
#     Edge 33, Type (0, 0), BuildingBlock: KIFKEQ_clean_linker_1, # of connection points: 2
#     Edge 34, Type (0, 0), BuildingBlock: KIFKEQ_clean_linker_1, # of connection points: 2
#     Edge 35, Type (0, 0), BuildingBlock: KIFKEQ_clean_linker_1, # of connection points: 2
#     Edge 36, Type (0, 0), BuildingBlock: KIFKEQ_clean_linker_1, # of connection points: 2
#     Edge 37, Type (0, 0), BuildingBlock: KIFKEQ_clean_linker_1, # of connection points: 2
#     Edge 38, Type (0, 0), BuildingBlock: KIFKEQ_clean_linker_1, # of connection points: 2
#     Edge 39, Type (0, 0), BuildingBlock: KIFKEQ_clean_linker_1, # of connection points: 2
#     Edge 40, Type (0, 0), BuildingBlock: KIFKEQ_clean_linker_1, # of connection points: 2
#     Edge 41, Type (0, 0), BuildingBlock: KIFKEQ_clean_linker_1, # of connection points: 2
#     Edge 42, Type (0, 0), BuildingBlock: KIFKEQ_clean_linker_1, # of connection points: 2
#     Edge 43, Type (0, 0), BuildingBlock: KIFKEQ_clean_linker_1, # of connection points: 2
#     Edge 44, Type (0, 0), BuildingBlock: KIFKEQ_clean_linker_1, # of connection points: 2
#     Edge 45, Type (0, 0), BuildingBlock: KIFKEQ_clean_linker_1, # of connection points: 2
#     Edge 46, Type (0, 0), BuildingBlock: KIFKEQ_clean_linker_1, # of connection points: 2
#     Edge 47, Type (0, 0), BuildingBlock: KIFKEQ_clean_linker_1, # of connection points: 2
#     Edge 48, Type (0, 0), BuildingBlock: KIFKEQ_clean_linker_1, # of connection points: 2
#     Edge 49, Type (0, 0), BuildingBlock: KIFKEQ_clean_linker_1, # of connection points: 2
#     Edge 50, Type (0, 0), BuildingBlock: KIFKEQ_clean_linker_1, # of connection points: 2
#     Edge 51, Type (0, 0), BuildingBlock: KIFKEQ_clean_linker_1, # of connection points: 2
#     Edge 52, Type (0, 0), BuildingBlock: KIFKEQ_clean_linker_1, # of connection points: 2
#     Edge 53, Type (0, 0), BuildingBlock: KIFKEQ_clean_linker_1, # of connection points: 2
#     Edge 54, Type (0, 0), BuildingBlock: KIFKEQ_clean_linker_1, # of connection points: 2
#     Edge 55, Type (0, 0), BuildingBlock: KIFKEQ_clean_linker_1, # of connection points: 2
#     Edge 56, Type (0, 0), BuildingBlock: KIFKEQ_clean_linker_1, # of connection points: 2
#     Edge 57, Type (0, 0), BuildingBlock: KIFKEQ_clean_linker_1, # of connection points: 2
#     Edge 58, Type (0, 0), BuildingBlock: KIFKEQ_clean_linker_1, # of connection points: 2
#     Edge 59, Type (0, 0), BuildingBlock: KIFKEQ_clean_linker_1, # of connection points: 2
#     Edge 60, Type (0, 0), BuildingBlock: KIFKEQ_clean_linker_1, # of connection points: 2
#     Edge 61, Type (0, 0), BuildingBlock: KIFKEQ_clean_linker_1, # of connection points: 2
#     Edge 62, Type (0, 0), BuildingBlock: KIFKEQ_clean_linker_1, # of connection points: 2
#     Edge 63, Type (0, 0), BuildingBlock: KIFKEQ_clean_linker_1, # of connection points: 2
# Relax obj value: 0.853
# Max RMSD: 0.196
# Mean RMSD: 0.196
data_MOF--net-whw--node1-PAMTOO_clean_sbu_0--edge1-KIFKEQ_clean_linker_1
_symmetry_space_group_name_H-M    P1
_symmetry_Int_Tables_number       1
_symmetry_cell_setting            triclinic
loop_
_symmetry_equiv_pos_as_xyz
'x, y, z'
_cell_length_a     48.307909
_cell_length_b     48.178722
_cell_length_c     29.659642
_cell_angle_alpha  89.853545
_cell_angle_beta   89.710238
_cell_angle_gamma 90.027575
loop_
_atom_site_label
_atom_site_type_symbol
_atom_site_fract_x
_atom_site_fract_y
_atom_site_fract_z
_atom_type_partial_charge
Dy0 Dy 0.00516 0.13539 0.24751 0.0
Dy1 Dy 0.06462 0.15908 0.21919 0.0
C2 C 0.01984 0.1956 0.26625 0.0
O3 O 0.00021 0.14871 0.1721 0.0
O4 O 0.03776 0.17736 0.16229 0.0
O5 O 0.96645 0.1376 0.28334 0.0
O6 O 0.97268 0.10584 0.23265 0.0
O7 O 0.0596 0.11617 0.18726 0.0
O8 O 0.03149 0.09745 0.24003 0.0
O9 O 0.06809 0.15653 0.29708 0.0
O10 O 0.02483 0.14186 0.31899 0.0
O11 O 0.10778 0.15227 0.23153 0.0
O12 O 0.0952 0.1829 0.18184 0.0
C13 C 0.01359 0.16782 0.14747 0.0
O14 O 0.00404 0.18089 0.2402 0.0
O15 O 0.04659 0.19222 0.2626 0.0
C16 C 0.94284 0.09534 0.29354 0.0
C17 C 0.91137 0.06442 0.35605 0.0
C18 C 0.9377 0.07483 0.36764 0.0
C19 C 0.95331 0.09003 0.33661 0.0
C20 C 0.91785 0.08309 0.28039 0.0
C21 C 0.90228 0.06755 0.3113 0.0
C22 C 0.9563 0.11565 0.2638 0.0
C23 C 0.04806 0.09405 0.20548 0.0
C24 C 0.05013 0.15093 0.33011 0.0
C25 C 0.13379 0.15393 0.16638 0.0
C26 C 0.1652 0.11489 1.11779 0.0
C27 C 0.17744 0.13016 0.15272 0.0
C28 C 0.16172 0.14945 0.1771 0.0
C29 C 0.12197 0.13961 0.13024 0.0
C30 C 0.13754 0.12042 1.10608 0.0
C31 C 0.11566 0.16828 0.19841 0.0
H32 H 0.94545 0.07331 0.40173 0.0
H33 H 0.97275 0.0991 0.3472 0.0
H34 H 0.90968 0.08672 0.24693 0.0
H35 H 0.88243 0.05941 0.30088 0.0
H36 H 0.19875 0.12648 0.16215 0.0
H37 H 0.17095 0.15988 0.20564 0.0
H38 H 0.10031 0.1423 1.12198 0.0
H39 H 0.12773 0.10962 1.07842 0.0
Dy40 Dy 0.1337 0.73315 0.50161 0.0
Dy41 Dy 0.10492 0.78736 0.47571 0.0
C42 C 0.07251 0.73308 0.52487 0.0
O43 O 0.11381 0.72036 0.43342 0.0
O44 O 0.09269 0.76139 0.41509 0.0
O45 O 0.14542 0.69022 0.50711 0.0
O46 O 0.17461 0.7228 0.52528 0.0
O47 O 0.15193 0.79378 0.46541 0.0
O48 O 0.15574 0.75049 0.44199 0.0
O49 O 0.09885 0.7937 0.54975 0.0
O50 O 0.12522 0.75699 0.57169 0.0
O51 O 0.09335 0.8293 0.49243 0.0
O52 O 0.08641 0.81402 0.4251 0.0
C53 C 0.09875 0.73542 0.40477 0.0
O54 O 0.09379 0.71695 0.52053 0.0
O55 O 0.0725 0.75939 0.51055 0.0
C56 C 0.18028 0.67846 0.55844 0.0
C57 C 0.19557 0.64037 0.6256 0.0
C58 C 0.17968 0.66397 0.63652 0.0
C59 C 0.172 0.68285 0.60311 0.0
C60 C 0.19705 0.65567 0.54765 0.0
C61 C 0.20463 0.63669 0.58098 0.0
C62 C 0.17013 0.69607 0.52198 0.0
C63 C 0.16618 0.7752 0.4427 0.0
C64 C 0.10944 0.77919 0.58274 0.0
C65 C 0.10428 0.85915 0.43258 0.0
C66 C 0.13903 0.89616 0.38551 0.0
C67 C 0.1493 0.88083 0.42205 0.0
C68 C 0.13209 0.86245 0.44534 0.0
C69 C 0.09337 0.87611 0.39866 0.0
C70 C 0.11061 0.89461 0.37537 0.0
C71 C 0.08799 0.83587 0.45084 0.0
H72 H 0.1719 0.66707 0.67046 0.0
H73 H 0.15886 0.70028 0.61179 0.0
H74 H 0.20354 0.65208 0.51312 0.0
H75 H 0.21686 0.61874 0.57168 0.0
H76 H 0.17108 0.88161 0.43053 0.0
H77 H 0.141 0.84965 0.47159 0.0
H78 H 0.07201 0.87383 0.38834 0.0
H79 H 0.10221 0.90587 0.3469 0.0
Dy80 Dy 0.52688 0.8663 0.75421 0.0
Dy81 Dy 0.47262 0.8354 0.72575 0.0
C82 C 0.5275 0.8032 0.76166 0.0
O83 O 0.53201 0.85552 0.67741 0.0
O84 O 0.50075 0.82022 0.67011 0.0
O85 O 0.56502 0.86995 0.79059 0.0
O86 O 0.5539 0.9014 0.74131 0.0
O87 O 0.47026 0.87964 0.69683 0.0
O88 O 0.49635 0.90086 0.74902 0.0
O89 O 0.4655 0.83644 0.80163 0.0
O90 O 0.50669 0.8547 0.82463 0.0
O91 O 0.43104 0.82423 0.74522 0.0
O92 O 0.44526 0.81556 0.67766 0.0
C93 C 0.5218 0.83439 0.65337 0.0
O94 O 0.54169 0.82365 0.74513 0.0
O95 O 0.50015 0.80402 0.76096 0.0
C96 C 0.5828 0.91499 0.80168 0.0
C97 C 0.61365 0.94643 0.86345 0.0
C98 C 0.58951 0.93223 0.87738 0.0
C99 C 0.57419 0.91671 0.84672 0.0
C100 C 0.605 0.93135 0.7866 0.0
C101 C 0.62023 0.94714 0.8172 0.0
C102 C 0.57163 0.89358 0.77179 0.0
C103 C 0.47945 0.90278 0.71498 0.0
C104 C 0.48245 0.84252 0.8349 0.0
C105 C 0.40112 0.83559 0.68643 0.0
C106 C 0.36504 0.87191 0.64116 0.0
C107 C 0.38111 0.88154 0.67713 0.0
C108 C 0.39907 0.8636 0.6994 0.0
C109 C 0.38351 0.82537 0.65303 0.0
C110 C 0.36548 0.8434 0.6306 0.0
C111 C 0.42382 0.81845 0.70414 0.0
H112 H 0.58375 0.93086 0.91263 0.0
H113 H 0.5569 0.90441 0.85891 0.0
H114 H 0.6117 0.93048 0.75171 0.0
H115 H 0.63828 0.95828 0.80512 0.0
H116 H 0.3812 0.90335 0.68594 0.0
H117 H 0.41251 0.87207 0.72506 0.0
H118 H 0.38486 0.8039 0.64248 0.0
H119 H 0.35365 0.83546 0.60252 0.0
Dy120 Dy 0.39958 0.24923 0.99589 0.0
Dy121 Dy 0.41763 0.18733 0.97146 0.0
C122 C 0.45771 0.22993 1.0206 0.0
O123 O 0.42075 0.25749 0.92765 0.0
O124 O 0.43446 0.21303 0.91018 0.0
O125 O 0.4049 0.29282 1.01109 0.0
O126 O 0.3638 0.27506 1.00585 0.0
O127 O 0.37073 0.18828 0.96126 0.0
O128 O 0.36842 0.23404 0.94596 0.0
O129 O 0.41815 0.18452 1.04891 0.0
O130 O 0.40083 0.22731 1.06745 0.0
O131 O 0.42134 0.14434 0.99032 0.0
O132 O 0.43167 0.15686 0.9225 0.0
C133 C 0.43327 0.24002 0.89962 0.0
O134 O 0.44502 0.24861 0.99669 0.0
O135 O 0.45289 0.20361 1.01272 0.0
C136 C 0.36839 0.31432 1.05115 0.0
C137 C 0.34644 0.34643 1.12159 0.0
C138 C 0.36231 0.32255 0.13089 0.0
C139 C 0.37313 0.30655 1.09589 0.0
C140 C 0.35263 0.338 1.04157 0.0
C141 C 0.34175 0.35402 1.07654 0.0
C142 C 0.37833 0.29727 1.01388 0.0
C143 C 0.35714 0.20946 0.94413 0.0
C144 C 0.41096 0.2026 1.08055 0.0
C145 C 0.40677 0.11512 0.93238 0.0
C146 C 0.36777 0.07996 0.89139 0.0
C147 C 0.35962 0.09794 0.92616 0.0
C148 C 0.37889 0.11545 0.94629 0.0
C149 C 0.41538 0.09587 0.89997 0.0
C150 C 0.39603 0.07837 0.87963 0.0
C151 C 0.42618 0.13611 0.94941 0.0
H152 H 0.36689 0.31652 0.16525 0.0
H153 H 0.38516 0.28819 1.10369 0.0
H154 H 0.34863 0.34402 1.00697 0.0
H155 H 0.32963 0.37224 1.06838 0.0
H156 H 0.33805 0.09958 0.93603 0.0
H157 H 0.37171 0.13007 0.97143 0.0
H158 H 0.43677 0.09529 0.88887 0.0
H159 H 0.40294 0.06509 0.8524 0.0
Dy160 Dy 0.99561 0.87296 0.99149 0.0
Dy161 Dy 0.04771 0.84136 1.01745 0.0
C162 C 0.9924 0.81186 0.96799 0.0
O163 O 0.98106 0.85326 1.0593 0.0
O164 O 0.0204 0.82914 1.07696 0.0
O165 O 0.95379 0.88762 0.98411 0.0
O166 O 0.98865 0.91515 0.97001 0.0
O167 O 0.05612 0.88814 1.02719 0.0
O168 O 0.01346 0.89276 1.05228 0.0
O169 O 0.05516 0.83625 0.94347 0.0
O170 O 0.0193 0.86363 0.92144 0.0
O171 O 0.0884 0.82564 1.00133 0.0
O172 O 0.07341 0.82365 1.06987 0.0
C173 C 0.9949 0.83675 1.08748 0.0
O174 O 0.97744 0.83406 0.97196 0.0
O175 O 0.01844 0.81038 0.98276 0.0
C176 C 0.94616 0.92477 0.93427 0.0
C177 C 0.91219 0.94536 0.86536 0.0
C178 C 0.93412 0.92704 0.85537 0.0
C179 C 0.95095 0.91677 0.88963 0.0
C180 C 0.92516 0.94389 0.94426 0.0
C181 C 0.90823 0.95411 0.91004 0.0
C182 C 0.96169 0.91237 0.97128 0.0
C183 C 0.03829 0.9027 1.05084 0.0
C184 C 0.04109 0.84732 0.91045 0.0
C185 C 0.11924 0.83818 1.05843 0.0
C186 C 0.15745 0.87338 1.10091 0.0
C187 C 0.14204 0.88301 1.0641 0.0
C188 C 0.12311 0.86555 1.04301 0.0
C189 C 0.13627 0.82778 1.09254 0.0
C190 C 0.15541 0.84524 1.11352 0.0
C191 C 0.095 0.82229 1.04343 0.0
H192 H 0.93735 0.91942 0.82143 0.0
H193 H 0.96705 0.9019 0.88155 0.0
H194 H 0.92133 0.95025 0.97875 0.0
H195 H 0.89155 0.96818 0.91867 0.0
H196 H 0.14318 0.90458 1.05383 0.0
H197 H 0.11024 0.87403 1.01656 0.0
H198 H 0.13351 0.80679 1.10495 0.0
H199 H 0.16673 0.83736 0.14227 0.0
Dy200 Dy 0.39321 0.72936 0.24351 0.0
Dy201 Dy 0.4238 0.78393 0.27299 0.0
C202 C 0.45596 0.72849 0.23834 0.0
O203 O 0.40375 0.72354 0.32031 0.0
O204 O 0.43805 0.75587 0.32912 0.0
O205 O 0.39089 0.69099 0.20705 0.0
O206 O 0.35755 0.70254 0.25251 0.0
O207 O 0.37972 0.78628 0.3021 0.0
O208 O 0.35859 0.75976 0.25023 0.0
O209 O 0.42244 0.79162 0.19729 0.0
O210 O 0.40529 0.75001 0.17367 0.0
O211 O 0.43532 0.82557 0.25394 0.0
O212 O 0.44362 0.81115 0.3214 0.0
C213 C 0.42422 0.73436 0.34511 0.0
O214 O 0.43545 0.71458 0.25515 0.0
O215 O 0.45511 0.75593 0.23823 0.0
C216 C 0.34617 0.67589 0.18841 0.0
C217 C 0.31507 0.65152 1.11885 0.0
C218 C 0.33111 0.67551 1.11071 0.0
C219 C 0.34636 0.68765 0.1452 0.0
C220 C 0.32863 0.65341 0.19778 0.0
C221 C 0.31301 0.64142 0.16334 0.0
C222 C 0.36623 0.68493 0.22229 0.0
C223 C 0.35669 0.77679 0.28425 0.0
C224 C 0.41691 0.7746 0.16378 0.0
C225 C 0.42405 0.85559 0.31292 0.0
C226 C 0.38812 0.89227 0.35805 0.0
C227 C 0.3784 0.87609 0.32223 0.0
C228 C 0.39615 0.85783 0.30003 0.0
C229 C 0.43437 0.87327 0.34623 0.0
C230 C 0.41653 0.89159 0.36858 0.0
C231 C 0.44101 0.83271 0.2951 0.0
H232 H 0.33373 0.68384 1.07704 0.0
H233 H 0.35963 0.70518 0.13741 0.0
H234 H 0.32804 0.64429 0.2312 0.0
H235 H 0.30048 0.62339 0.17116 0.0
H236 H 0.35666 0.87618 0.31342 0.0
H237 H 0.3876 0.84434 0.27445 0.0
H238 H 0.45577 0.87178 0.35672 0.0
H239 H 0.42454 0.90351 0.39656 0.0
Dy240 Dy 0.51001 0.13921 0.50752 0.0
Dy241 Dy 0.44767 0.15465 0.53184 0.0
C242 C 0.48878 0.19697 0.48296 0.0
O243 O 0.51725 0.16074 0.57544 0.0
O244 O 0.47225 0.172 0.59341 0.0
O245 O 0.55318 0.1459 0.49087 0.0
O246 O 0.53708 0.10417 0.49918 0.0
O247 O 0.45038 0.10761 0.54151 0.0
O248 O 0.49576 0.10749 0.55805 0.0
O249 O 0.44539 0.15616 0.45439 0.0
O250 O 0.48856 0.13999 0.4359 0.0
O251 O 0.40475 0.15606 0.51304 0.0
O252 O 0.41653 0.16803 0.58027 0.0
C253 C 0.49918 0.17218 0.60375 0.0
O254 O 0.50813 0.18471 0.50594 0.0
O255 O 0.46276 0.19092 0.49112 0.0
C256 C 0.57577 0.10933 0.45252 0.0
C257 C 0.60822 0.08732 0.38246 0.0
C258 C 0.58418 0.1028 0.3729 0.0
C259 C 0.56801 0.11365 0.4077 0.0
C260 C 0.59955 0.09386 0.46237 0.0
C261 C 0.61574 0.08295 0.42758 0.0
C262 C 0.55862 0.1194 0.48963 0.0
C263 C 0.47183 0.09492 0.55928 0.0
C264 C 0.46376 0.14961 0.42275 0.0
C265 C 0.37582 0.14146 0.57185 0.0
C266 C 0.34183 0.10191 0.61495 0.0
C267 C 0.3598 0.09386 0.58002 0.0
C268 C 0.37676 0.11341 0.55887 0.0
C269 C 0.35652 0.14992 0.60433 0.0
C270 C 0.33961 0.1303 0.62574 0.0
C271 C 0.39619 0.1613 0.55369 0.0
H272 H 0.57818 0.10715 0.33846 0.0
H273 H 0.54956 0.12543 0.3997 0.0
H274 H 0.60555 0.09015 0.49702 0.0
H275 H 0.63408 0.07114 0.43594 0.0
H276 H 0.36191 0.07221 0.57085 0.0
H277 H 0.39144 0.10633 0.53368 0.0
H278 H 0.35547 0.17144 0.61469 0.0
H279 H 0.32633 0.13715 0.65304 0.0
Dy280 Dy 0.12249 0.25225 0.75047 0.0
Dy281 Dy 0.10016 0.19165 0.77865 0.0
C282 C 0.06227 0.23615 0.73346 0.0
O283 O 0.10965 0.25647 0.82605 0.0
O284 O 0.08039 0.21922 0.83384 0.0
O285 O 0.11841 0.29108 0.71535 0.0
O286 O 0.15151 0.2856 0.76345 0.0
O287 O 0.14435 0.19479 0.80533 0.0
O288 O 0.16161 0.22771 0.75823 0.0
O289 O 0.10417 0.18796 0.70097 0.0
O290 O 0.11558 0.23234 0.67937 0.0
O291 O 0.09505 0.14908 0.75855 0.0
O292 O 0.0858 0.1608 0.82708 0.0
C293 C 0.09009 0.24317 0.84971 0.0
O294 O 0.07709 0.25272 0.75814 0.0
O295 O 0.06551 0.20943 0.73873 0.0
C296 C 0.15984 0.31526 0.70141 0.0
C297 C 0.18953 0.34623 0.63664 0.0
C298 C 0.17809 0.32017 0.62569 0.0
C299 C 0.16354 0.30479 0.65781 0.0
C300 C 0.17278 0.34015 0.7136 0.0
C301 C 0.18768 0.35547 0.68154 0.0
C302 C 0.14064 0.30172 0.733 0.0
C303 C 0.16565 0.20886 0.78943 0.0
C304 C 0.10787 0.20656 0.66817 0.0
C305 C 0.11092 0.11941 0.81506 0.0
C306 C 0.15153 0.0849 0.85357 0.0
C307 C 0.15851 0.10308 0.81826 0.0
C308 C 0.13847 0.1203 0.79945 0.0
C309 C 0.10342 0.09985 0.84787 0.0
C310 C 0.12357 0.08268 0.86699 0.0
C311 C 0.09095 0.14037 0.7995 0.0
H312 H 0.17854 0.31239 0.59149 0.0
H313 H 0.15387 0.28546 0.64786 0.0
H314 H 0.17034 0.34834 0.74738 0.0
H315 H 0.19658 0.37516 0.69141 0.0
H316 H 0.1798 0.10522 0.80713 0.0
H317 H 0.14485 0.13525 0.77409 0.0
H318 H 0.08232 0.09885 0.86033 0.0
H319 H 0.11756 0.06923 0.89468 0.0
Dy320 Dy 0.895 0.2435 0.74565 0.0
Dy321 Dy 0.91493 0.30448 0.77541 0.0
C322 C 0.95278 0.26754 0.71003 0.0
O323 O 0.9149 0.23571 0.81558 0.0
O324 O 0.93206 0.27844 0.83454 0.0
O325 O 0.90145 0.19908 0.74286 0.0
O326 O 0.86175 0.21689 0.72471 0.0
O327 O 0.87042 0.30356 0.80043 0.0
O328 O 0.85559 0.26254 0.77108 0.0
O329 O 0.9099 0.30985 0.69844 0.0
O330 O 0.89721 0.26619 0.67541 0.0
O331 O 0.92002 0.34729 0.75583 0.0
O332 O 0.93008 0.33469 0.82354 0.0
C333 C 0.92872 0.25168 0.84426 0.0
O334 O 0.93361 0.24845 0.70669 0.0
O335 O 0.95243 0.28649 0.74198 0.0
C336 C 0.87273 0.17363 0.69348 0.0
C337 C 0.86129 0.13491 0.62544 0.0
C338 C 0.87482 0.16008 0.61511 0.0
C339 C 0.88044 0.17935 0.6489 0.0
C340 C 0.85971 0.14844 0.70416 0.0
C341 C 0.85406 0.12914 0.6704 0.0
C342 C 0.87631 0.19427 0.72894 0.0
C343 C 0.85069 0.28524 0.79393 0.0
C344 C 0.90463 0.2923 0.66504 0.0
C345 C 0.90649 0.377 0.81415 0.0
C346 C 0.86877 0.41238 0.85823 0.0
C347 C 0.85959 0.39417 0.82458 0.0
C348 C 0.87825 0.37653 0.80292 0.0
C349 C 0.91607 0.39654 0.84521 0.0
C350 C 0.89736 0.41416 0.86706 0.0
C351 C 0.92521 0.3555 0.79659 0.0
H352 H 0.88119 0.16485 0.58088 0.0
H353 H 0.89048 0.19878 0.64024 0.0
H354 H 0.85347 0.14391 0.73855 0.0
H355 H 0.84359 0.11001 0.67932 0.0
H356 H 0.83776 0.39239 0.81691 0.0
H357 H 0.87035 0.36161 0.77893 0.0
H358 H 0.93775 0.39718 0.85429 0.0
H359 H 0.90509 0.42764 0.89333 0.0
Dy360 Dy 0.631 0.76954 0.23854 0.0
Dy361 Dy 0.60301 0.71367 0.26644 0.0
C362 C 0.56919 0.76574 0.21494 0.0
O363 O 0.61024 0.78179 0.30658 0.0
O364 O 0.59204 0.73974 0.32769 0.0
O365 O 0.63992 0.81329 0.23534 0.0
O366 O 0.67021 0.78324 0.21123 0.0
O367 O 0.64985 0.70716 0.27505 0.0
O368 O 0.65657 0.75145 0.29343 0.0
O369 O 0.59845 0.70756 0.19219 0.0
O370 O 0.62403 0.74491 0.16937 0.0
O371 O 0.59164 0.67159 0.25011 0.0
O372 O 0.58493 0.68685 0.31755 0.0
C373 C 0.59663 0.76618 0.3366 0.0
O374 O 0.59055 0.78206 0.21526 0.0
O375 O 0.56937 0.7404 0.23323 0.0
C376 C 0.67181 0.82866 0.18077 0.0
C377 C 0.68386 0.86821 1.11373 0.0
C378 C 0.66898 0.84393 1.10318 0.0
C379 C 0.66293 0.82431 0.13652 0.0
C380 C 0.68718 0.85245 0.19127 0.0
C381 C 0.69312 0.87215 0.15802 0.0
C382 C 0.66425 0.80949 0.21705 0.0
C383 C 0.66569 0.72612 0.29356 0.0
C384 C 0.60899 0.72217 0.15905 0.0
C385 C 0.60338 0.64201 0.30979 0.0
C386 C 0.63926 0.60668 0.35733 0.0
C387 C 0.64895 0.62159 0.31976 0.0
C388 C 0.63117 0.63912 0.2962 0.0
C389 C 0.59304 0.62526 0.34463 0.0
C390 C 0.61084 0.60757 0.36813 0.0
C391 C 0.58664 0.66499 0.29187 0.0
H392 H 0.66109 0.84058 1.0695 0.0
H393 H 0.65084 0.80612 0.12805 0.0
H394 H 0.69412 0.85604 0.22546 0.0
H395 H 0.70465 0.89059 0.16703 0.0
H396 H 0.67072 0.62129 0.31077 0.0
H397 H 0.63964 0.65173 0.26919 0.0
H398 H 0.57171 0.62723 0.35561 0.0
H399 H 0.60285 0.59661 0.39737 0.0
Dy400 Dy 0.61541 0.25088 0.99807 0.0
Dy401 Dy 0.59933 0.31209 0.97268 0.0
C402 C 0.55933 0.27553 1.03677 0.0
O403 O 0.58684 0.24206 0.93823 0.0
O404 O 0.58505 0.28633 0.91035 0.0
O405 O 0.61286 0.20618 1.00327 0.0
O406 O 0.65189 0.22774 1.0149 0.0
O407 O 0.64614 0.31039 0.96611 0.0
O408 O 0.64425 0.26629 0.94382 0.0
O409 O 0.60099 0.31681 1.04931 0.0
O410 O 0.61767 0.27388 1.06841 0.0
O411 O 0.59346 0.3553 0.98924 0.0
O412 O 0.58923 0.34192 0.92044 0.0
C413 C 0.5799 0.2593 0.90529 0.0
O414 O 0.57699 0.25493 1.03705 0.0
O415 O 0.56102 0.29628 1.00768 0.0
C416 C 0.64666 0.18365 1.04771 0.0
C417 C 0.66431 0.14519 1.11269 0.0
C418 C 0.65251 0.1707 0.12581 0.0
C419 C 0.64378 0.18982 1.09352 0.0
C420 C 0.65831 0.15832 1.03435 0.0
C421 C 0.66703 0.13914 1.06662 0.0
C422 C 0.6391 0.20384 1.01318 0.0
C423 C 0.65808 0.28948 0.94581 0.0
C424 C 0.60854 0.29906 1.08107 0.0
C425 C 0.61251 0.38389 0.93311 0.0
C426 C 0.6542 0.41659 0.89304 0.0
C427 C 0.66065 0.39834 0.92844 0.0
C428 C 0.63998 0.38207 0.94824 0.0
C429 C 0.60559 0.40369 0.90049 0.0
C430 C 0.62627 0.42002 0.88068 0.0
C431 C 0.59204 0.36303 0.94736 0.0
H432 H 0.64948 0.17567 0.16108 0.0
H433 H 0.63484 0.20937 1.10422 0.0
H434 H 0.66083 0.15346 0.99891 0.0
H435 H 0.67598 0.11968 1.0556 0.0
H436 H 0.68192 0.3953 0.93871 0.0
H437 H 0.64577 0.36698 0.9736 0.0
H438 H 0.58453 0.40533 0.88839 0.0
H439 H 0.62064 0.43357 0.85302 0.0
Dy440 Dy 0.8888 0.7681 0.50311 0.0
Dy441 Dy 0.91903 0.71354 0.47629 0.0
C442 C 0.95017 0.76797 0.52575 0.0
O443 O 0.90799 0.78033 0.43368 0.0
O444 O 0.92648 0.73856 0.41243 0.0
O445 O 0.87825 0.81144 0.50623 0.0
O446 O 0.84922 0.78027 0.53088 0.0
O447 O 0.87256 0.70558 0.46464 0.0
O448 O 0.86336 0.74993 0.4486 0.0
O449 O 0.92466 0.70792 0.55074 0.0
O450 O 0.89726 0.74401 0.57286 0.0
O451 O 0.92168 0.66931 0.4857 0.0
O452 O 0.94777 0.68956 0.43587 0.0
C453 C 0.9213 0.76487 0.40325 0.0
O454 O 0.92919 0.7842 0.51944 0.0
O455 O 0.95012 0.74136 0.51346 0.0
C456 C 0.84538 0.82595 0.55964 0.0
C457 C 0.83212 0.86636 0.62421 0.0
C458 C 0.84679 0.84226 0.6366 0.0
C459 C 0.85347 0.82221 0.60445 0.0
C460 C 0.82998 0.84942 0.5474 0.0
C461 C 0.82343 0.86956 0.57944 0.0
C462 C 0.85405 0.8067 0.52435 0.0
C463 C 0.85579 0.72415 0.4471 0.0
C464 C 0.91338 0.72205 0.58374 0.0
C465 C 0.925 0.6477 0.4162 0.0
C466 C 0.88829 0.61702 0.36236 0.0
C467 C 0.90039 0.60469 0.40039 0.0
C468 C 0.91855 0.62004 0.42734 0.0
C469 C 0.91423 0.65928 0.37657 0.0
C470 C 0.89619 0.64407 0.34991 0.0
C471 C 0.93731 0.66605 0.4502 0.0
H472 H 0.85427 0.83951 0.67069 0.0
H473 H 0.86558 0.80427 0.61424 0.0
H474 H 0.82366 0.85252 0.51275 0.0
H475 H 0.81213 0.88788 0.56903 0.0
H476 H 0.89486 0.58375 0.41032 0.0
H477 H 0.92629 0.61089 0.45821 0.0
H478 H 0.91847 0.68064 0.36735 0.0
H479 H 0.88783 0.65381 0.31996 0.0
Dy480 Dy 0.49568 0.62641 0.75923 0.0
Dy481 Dy 0.54499 0.66321 0.7289 0.0
C482 C 0.49163 0.68918 0.78536 0.0
O483 O 0.48831 0.64025 0.6839 0.0
O484 O 0.51338 0.68009 0.6814 0.0
O485 O 0.45549 0.6106 0.74161 0.0
O486 O 0.47802 0.59206 0.79692 0.0
O487 O 0.54828 0.62134 0.69194 0.0
O488 O 0.52942 0.59583 0.74707 0.0
O489 O 0.55676 0.65522 0.80185 0.0
O490 O 0.51483 0.64086 0.82832 0.0
O491 O 0.58465 0.68116 0.74553 0.0
O492 O 0.56997 0.683 0.67714 0.0
C493 C 0.49467 0.66407 0.66292 0.0
O494 O 0.47886 0.66538 0.78506 0.0
O495 O 0.51624 0.69296 0.76602 0.0
C496 C 0.42919 0.59024 0.80014 0.0
C497 C 0.38047 0.58511 0.85178 0.0
C498 C 0.3886 0.6111 0.8345 0.0
C499 C 0.41286 0.61367 0.80904 0.0
C500 C 0.42068 0.56416 0.81606 0.0
C501 C 0.39655 0.56161 0.84186 0.0
C502 C 0.45502 0.59241 0.77417 0.0
C503 C 0.54346 0.59672 0.70964 0.0
C504 C 0.54011 0.65112 0.83655 0.0
C505 C 0.61602 0.66979 0.68797 0.0
C506 C 0.65453 0.63562 0.64339 0.0
C507 C 0.639 0.62522 0.67979 0.0
C508 C 0.61983 0.64212 0.70178 0.0
C509 C 0.63318 0.68095 0.65435 0.0
C510 C 0.65244 0.66399 0.6323 0.0
C511 C 0.59137 0.68497 0.70345 0.0
H512 H 0.37689 0.62965 0.84242 0.0
H513 H 0.41911 0.63401 0.79706 0.0
H514 H 0.43298 0.54584 0.80918 0.0
H515 H 0.39077 0.54139 0.8549 0.0
H516 H 0.64018 0.60347 0.68899 0.0
H517 H 0.60665 0.63298 0.72749 0.0
H518 H 0.63036 0.70215 0.64303 0.0
H519 H 0.66385 0.67249 0.60391 0.0
Dy520 Dy 0.01371 0.36278 0.25036 0.0
Dy521 Dy 0.95264 0.344 0.22051 0.0
C522 C 0.98862 0.3051 0.28468 0.0
O523 O 0.02122 0.3426 0.18052 0.0
O524 O 0.97829 0.32648 0.16107 0.0
O525 O 0.05791 0.35549 0.25398 0.0
O526 O 0.04079 0.396 0.26973 0.0
O527 O 0.95443 0.38847 0.19515 0.0
O528 O 0.99498 0.40274 0.22632 0.0
O529 O 0.94752 0.34892 0.29772 0.0
O530 O 0.99129 0.36078 0.32075 0.0
O531 O 0.91001 0.33912 0.24086 0.0
O532 O 0.922 0.32985 0.17248 0.0
C533 C 0.0051 0.32917 0.15164 0.0
O534 O 0.00772 0.32418 0.28928 0.0
O535 O 0.97052 0.30577 0.25165 0.0
C536 C 0.08392 0.38529 0.30108 0.0
C537 C 0.12311 0.39858 0.36729 0.0
C538 C 0.09728 0.38707 0.37945 0.0
C539 C 0.07779 0.38054 0.34658 0.0
C540 C 0.10969 0.39635 0.28863 0.0
C541 C 0.12922 0.40292 0.32148 0.0
C542 C 0.06311 0.38095 0.26627 0.0
C543 C 0.97276 0.40804 0.20271 0.0
C544 C 0.96512 0.35379 0.33113 0.0
C545 C 0.88035 0.35413 0.18366 0.0
C546 C 0.84634 0.39336 0.14054 0.0
C547 C 0.86472 0.40174 0.17442 0.0
C548 C 0.88169 0.38232 0.19561 0.0
C549 C 0.86051 0.34536 0.15259 0.0
C550 C 0.84356 0.36482 0.13123 0.0
C551 C 0.90149 0.33468 0.20004 0.0
H552 H 0.0922 0.38285 0.41441 0.0
H553 H 0.05789 0.37209 0.35662 0.0
H554 H 0.11454 0.40036 0.2535 0.0
H555 H 0.14886 0.41178 0.31111 0.0
H556 H 0.86726 0.42351 0.18244 0.0
H557 H 0.89686 0.3896 0.21963 0.0
H558 H 0.85922 0.32372 0.14295 0.0
H559 H 0.82992 0.35769 1.1048 0.0
Dy560 Dy 0.50846 0.36323 0.50381 0.0
Dy561 Dy 0.56922 0.34372 0.52932 0.0
C562 C 0.53174 0.30587 0.4649 0.0
O563 O 0.50278 0.34221 0.57376 0.0
O564 O 0.54526 0.32311 0.5878 0.0
O565 O 0.46428 0.35591 0.50018 0.0
O566 O 0.48077 0.39748 0.49287 0.0
O567 O 0.56506 0.38642 0.5616 0.0
O568 O 0.52978 0.4034 0.51995 0.0
O569 O 0.57267 0.35 0.45206 0.0
O570 O 0.52838 0.36159 0.43164 0.0
O571 O 0.6117 0.344 0.50734 0.0
O572 O 0.60139 0.32715 0.57275 0.0
C573 C 0.51898 0.32667 0.5997 0.0
O574 O 0.51232 0.32484 0.46424 0.0
O575 O 0.55236 0.30642 0.49383 0.0
C576 C 0.43833 0.38849 0.45846 0.0
C577 C 0.39987 0.4045 0.39276 0.0
C578 C 0.42587 0.39366 0.38013 0.0
C579 C 0.44498 0.38575 0.41276 0.0
C580 C 0.41248 0.39909 0.47137 0.0
C581 C 0.39328 0.40698 0.43872 0.0
C582 C 0.45867 0.38202 0.4931 0.0
C583 C 0.54938 0.40739 0.54943 0.0
C584 C 0.55434 0.35495 0.41969 0.0
C585 C 0.64201 0.35428 0.56627 0.0
C586 C 0.67726 0.3908 0.61285 0.0
C587 C 0.65985 0.40082 0.57872 0.0
C588 C 0.64223 0.3828 0.55594 0.0
C589 C 0.66074 0.34389 0.59796 0.0
C590 C 0.67823 0.362 0.62112 0.0
C591 C 0.62114 0.33588 0.54613 0.0
H592 H 0.43127 0.3908 0.34496 0.0
H593 H 0.46494 0.37763 0.4024 0.0
H594 H 0.40724 0.40149 0.50671 0.0
H595 H 0.37343 0.41517 0.44936 0.0
H596 H 0.65874 0.42282 0.57134 0.0
H597 H 0.628 0.39142 0.53152 0.0
H598 H 0.66091 0.32199 0.60631 0.0
H599 H 0.69107 0.35362 0.64771 0.0
Dy600 Dy 0.0258 0.6302 0.99281 0.0
Dy601 Dy 0.97311 0.66193 1.01885 0.0
C602 C 0.02858 0.69148 0.96892 0.0
O603 O 0.03968 0.64938 1.06086 0.0
O604 O 0.00046 0.67399 1.07797 0.0
O605 O 0.06782 0.61587 0.98677 0.0
O606 O 0.03349 0.58837 0.97024 0.0
O607 O 0.96424 0.61521 1.02775 0.0
O608 O 0.00681 0.61 1.05263 0.0
O609 O 0.96514 0.66501 0.94481 0.0
O610 O 0.00264 0.63969 0.92284 0.0
O611 O 0.93371 0.68076 1.00316 0.0
O612 O 0.94651 0.67706 1.0724 0.0
C613 C 0.02575 0.66599 1.08882 0.0
O614 O 0.04364 0.66938 0.97314 0.0
O615 O 0.00248 0.69291 0.98381 0.0
C616 C 0.0769 0.57971 0.93598 0.0
C617 C 0.11299 0.56126 0.86795 0.0
C618 C 0.09055 0.57878 0.85749 0.0
C619 C 0.07266 0.58801 0.89133 0.0
C620 C 0.09843 0.56132 0.94635 0.0
C621 C 0.11642 0.55216 0.91257 0.0
C622 C 0.06039 0.59131 0.97273 0.0
C623 C 0.98199 0.60012 1.05049 0.0
C624 C 0.98013 0.6549 0.91188 0.0
C625 C 0.90063 0.66561 1.05588 0.0
C626 C 0.86081 0.62928 1.09247 0.0
C627 C 0.8772 0.62094 1.05574 0.0
C628 C 0.89696 0.63897 1.03758 0.0
C629 C 0.88253 0.67493 1.08955 0.0
C630 C 0.8626 0.65694 1.10756 0.0
C631 C 0.92588 0.68137 1.04514 0.0
H632 H 0.0877 0.58662 0.82357 0.0
H633 H 0.05618 0.60236 0.88296 0.0
H634 H 0.10186 0.55476 0.98085 0.0
H635 H 0.13348 0.53868 0.92153 0.0
H636 H 0.8763 0.59978 1.04354 0.0
H637 H 0.9107 0.63135 1.01144 0.0
H638 H 0.88514 0.69534 1.10418 0.0
H639 H 0.85054 0.66386 0.13629 0.0
H640 H 0.14802 0.06341 1.09281 0.0
H641 H 0.21844 0.11827 1.08489 0.0
H642 H 0.16378 0.0392 1.027 0.0
H643 H 0.23605 0.09236 1.02056 0.0
H644 H 0.15497 0.03276 0.89188 0.0
H645 H 0.17933 0.02255 0.9617 0.0
H646 H 0.22093 0.10199 0.95158 0.0
H647 H 0.19811 0.11103 0.88203 0.0
C648 C 0.16756 0.06962 1.07772 0.0
C649 C 0.18091 0.09396 1.09165 0.0
C650 C 0.17703 0.05539 1.0399 0.0
C651 C 0.20007 0.0654 1.01534 0.0
C652 C 0.21697 0.08547 1.03626 0.0
C653 C 0.20707 0.10022 1.07359 0.0
C654 C 0.17022 0.04742 0.90399 0.0
C655 C 0.17348 0.07335 0.88291 0.0
C656 C 0.18411 0.04172 0.94424 0.0
C657 C 0.20012 0.06255 0.96502 0.0
C658 C 0.20785 0.0857 0.93856 0.0
C659 C 0.19453 0.09109 0.89798 0.0
H660 H 0.13682 0.94714 0.34354 0.0
H661 H 0.18472 0.87173 0.35072 0.0
H662 H 0.15808 0.958 0.27088 0.0
H663 H 0.2042 0.881 0.27799 0.0
H664 H 0.20891 0.87175 0.14023 0.0
H665 H 0.22082 0.89424 0.21108 0.0
H666 H 0.14402 0.94052 0.2053 0.0
H667 H 0.13376 0.91989 0.13402 0.0
C668 C 0.15246 0.9333 0.33007 0.0
C669 C 0.15837 0.90813 0.35186 0.0
C670 C 0.16449 0.93929 0.28817 0.0
C671 C 0.18146 0.9195 0.2665 0.0
C672 C 0.19084 0.89673 0.29221 0.0
C673 C 0.17946 0.89119 0.33449 0.0
C674 C 0.19535 0.88771 0.15347 0.0
C675 C 0.16997 0.89336 0.13262 0.0
C676 C 0.20194 0.90044 0.19437 0.0
C677 C 0.18251 0.91779 0.21611 0.0
C678 C 0.15948 0.92687 0.19102 0.0
C679 C 0.15337 0.91484 0.14962 0.0
H680 H 0.38954 0.94383 0.39785 0.0
H681 H 0.34193 0.86813 0.3922 0.0
H682 H 0.36697 0.95572 0.46896 0.0
H683 H 0.32099 0.87859 0.46334 0.0
H684 H 0.38997 0.91779 0.60717 0.0
H685 H 0.38055 0.93833 0.53544 0.0
H686 H 0.30303 0.89329 0.52891 0.0
H687 H 0.31387 0.87107 0.60065 0.0
C688 C 0.37371 0.93013 0.41125 0.0
C689 C 0.36828 0.90458 0.3905 0.0
C690 C 0.36086 0.93677 0.4522 0.0
C691 C 0.34351 0.91728 0.47397 0.0
C692 C 0.33462 0.8941 0.44897 0.0
C693 C 0.34686 0.88787 0.40765 0.0
C694 C 0.37036 0.913 0.59138 0.0
C695 C 0.35324 0.89188 0.60848 0.0
C696 C 0.36474 0.92502 0.54971 0.0
C697 C 0.34178 0.91617 0.52433 0.0
C698 C 0.32185 0.89929 0.546 0.0
C699 C 0.32787 0.88666 0.58731 0.0
H700 H 0.32126 0.10461 0.85958 0.0
H701 H 0.36678 0.02759 0.85429 0.0
H702 H 0.29889 0.09354 0.79017 0.0
H703 H 0.34314 0.0155 0.78456 0.0
H704 H 0.29003 0.10011 0.65425 0.0
H705 H 0.27944 0.07711 0.72564 0.0
H706 H 0.3581 0.03431 0.71823 0.0
H707 H 0.36772 0.05605 0.64732 0.0
C708 C 0.32544 0.0845 0.84476 0.0
C709 C 0.34677 0.06757 0.86123 0.0
C710 C 0.31235 0.07793 0.80447 0.0
C711 C 0.32044 0.0543 0.77979 0.0
C712 C 0.33757 0.03467 0.80127 0.0
C713 C 0.3511 0.04151 0.84131 0.0
C714 C 0.30442 0.08486 0.66725 0.0
C715 C 0.33024 0.08085 0.64631 0.0
C716 C 0.29844 0.0717 0.70824 0.0
C717 C 0.3187 0.05527 0.72954 0.0
C718 C 0.34206 0.04729 0.70407 0.0
C719 C 0.34778 0.06 0.66288 0.0
H720 H 0.91188 0.81708 0.36153 0.0
H721 H 0.95347 0.73949 0.33744 0.0
H722 H 0.92806 0.8342 0.28761 0.0
H723 H 0.96933 0.75621 0.26434 0.0
H724 H 0.01647 0.79877 0.1485 0.0
H725 H -0.00084 0.78318 0.22143 0.0
H726 H 0.92745 0.83552 0.20638 0.0
H727 H 0.9452 0.85141 0.13274 0.0
C728 C 0.92446 0.80349 0.3408 0.0
C729 C 0.93112 0.77659 0.35699 0.0
C730 C 0.93376 0.81337 0.29762 0.0
C731 C 0.95053 0.79704 0.26831 0.0
C732 C 0.95706 0.77018 0.28481 0.0
C733 C 0.94763 0.76029 0.32752 0.0
C734 C 0.99687 0.80708 0.16018 0.0
C735 C 0.98252 0.82658 0.13308 0.0
C736 C 0.98666 0.79783 0.20279 0.0
C737 C 0.96139 0.80758 0.22157 0.0
C738 C 0.947 0.82726 0.19456 0.0
C739 C 0.95719 0.83639 0.15148 0.0
H740 H 0.95002 0.27808 0.92153 0.0
H741 H 0.93484 0.19578 0.87168 0.0
H742 H 0.96745 0.25826 0.99218 0.0
H743 H 0.95401 0.17604 0.94133 0.0
H744 H 0.97208 0.14591 1.09062 0.0
H745 H 0.95217 0.16474 1.02078 0.0
H746 H 0.00457 0.2366 1.03223 0.0
H747 H 0.02498 0.21737 1.10074 0.0
C748 C 0.95076 0.25571 0.9248 0.0
C749 C 0.94074 0.23904 0.88896 0.0
C750 C 0.96139 0.24414 0.9659 0.0
C751 C 0.96353 0.21511 0.97394 0.0
C752 C 0.95323 0.1984 0.93818 0.0
C753 C 0.94215 0.20995 0.89728 0.0
C754 C 0.97966 0.1657 1.07833 0.0
C755 C 0.00076 0.17958 1.10283 0.0
C756 C 0.9681 0.17669 1.03737 0.0
C757 C 0.97628 0.20271 1.01861 0.0
C758 C 0.99708 0.2167 1.04376 0.0
C759 C 0.00912 0.2054 1.08394 0.0
H760 H 0.58238 0.27934 0.81587 0.0
H761 H 0.54694 0.21194 0.89194 0.0
H762 H 0.56359 0.25945 0.74601 0.0
H763 H 0.527 0.19279 0.82248 0.0
H764 H 0.47354 0.17827 0.68917 0.0
H765 H 0.49177 0.19838 0.75937 0.0
H766 H 0.56758 0.21944 0.69073 0.0
H767 H 0.54996 0.19804 0.62143 0.0
C768 C 0.57035 0.26042 0.81824 0.0
C769 C 0.56664 0.24767 0.8611 0.0
C770 C 0.55948 0.24873 0.77746 0.0
C771 C 0.54329 0.22405 0.77694 0.0
C772 C 0.53898 0.21173 0.82002 0.0
C773 C 0.55068 0.22287 0.86055 0.0
C774 C 0.49416 0.1871 0.68866 0.0
C775 C 0.50991 0.18601 0.6481 0.0
C776 C 0.50483 0.19879 0.72961 0.0
C777 C 0.53154 0.21116 0.73233 0.0
C778 C 0.54697 0.21061 0.69141 0.0
C779 C 0.53672 0.19804 0.65099 0.0
H780 H 0.56682 0.85582 0.60231 0.0
H781 H 0.50359 0.79305 0.59564 0.0
H782 H 0.58468 0.84092 0.52842 0.0
H783 H 0.52064 0.77867 0.52223 0.0
H784 H 0.56692 0.73934 0.40409 0.0
H785 H 0.55061 0.75554 0.47685 0.0
H786 H 0.58506 0.83642 0.44914 0.0
H787 H 0.60207 0.81964 0.37574 0.0
C788 C 0.55654 0.83892 0.58538 0.0
C789 C 0.53352 0.82589 0.60652 0.0
C790 C 0.56679 0.83025 0.54214 0.0
C791 C 0.5547 0.80803 0.51753 0.0
C792 C 0.53153 0.79531 0.53887 0.0
C793 C 0.5214 0.80392 0.58179 0.0
C794 C 0.57113 0.76065 0.41294 0.0
C795 C 0.58607 0.77781 0.3824 0.0
C796 C 0.5614 0.7703 0.45551 0.0
C797 C 0.56585 0.79783 0.47077 0.0
C798 C 0.58097 0.81508 0.44026 0.0
C799 C 0.59073 0.80535 0.39734 0.0
H800 H 0.63908 0.55652 0.40197 0.0
H801 H 0.68373 0.63379 0.39037 0.0
H802 H 0.65979 0.54853 0.47567 0.0
H803 H 0.70254 0.62732 0.46412 0.0
H804 H 0.7058 0.63893 0.60273 0.0
H805 H 0.71884 0.61625 0.53233 0.0
H806 H 0.64336 0.56774 0.53902 0.0
H807 H 0.63188 0.58878 0.60962 0.0
C808 C 0.65396 0.57137 0.41467 0.0
C809 C 0.659 0.59624 0.39135 0.0
C810 C 0.66565 0.56703 0.45716 0.0
C811 C 0.68133 0.58818 0.47777 0.0
C812 C 0.69012 0.61064 0.45068 0.0
C813 C 0.67914 0.61453 0.40782 0.0
C814 C 0.69274 0.62255 0.58973 0.0
C815 C 0.66744 0.61625 0.61081 0.0
C816 C 0.70001 0.60966 0.54913 0.0
C817 C 0.68141 0.59128 0.52798 0.0
C818 C 0.65829 0.58199 0.55303 0.0
C819 C 0.65147 0.59428 0.59402 0.0
H820 H 0.69833 0.38765 0.86135 0.0
H821 H 0.65975 0.46833 0.85432 0.0
H822 H 0.72056 0.39562 0.79012 0.0
H823 H 0.68336 0.4772 0.78282 0.0
H824 H 0.65388 0.43726 0.64809 0.0
H825 H 0.66517 0.45791 0.71886 0.0
H826 H 0.7409 0.41003 0.72393 0.0
H827 H 0.72874 0.38839 0.6524 0.0
C828 C 0.6958 0.40784 0.84575 0.0
C829 C 0.67626 0.42686 0.86234 0.0
C830 C 0.70879 0.41258 0.80442 0.0
C831 C 0.70244 0.43646 0.77897 0.0
C832 C 0.6875 0.4579 0.8003 0.0
C833 C 0.67403 0.45292 0.84138 0.0
C834 C 0.67358 0.43192 0.66306 0.0
C835 C 0.68983 0.41028 0.64556 0.0
C836 C 0.68027 0.444 0.70415 0.0
C837 C 0.70334 0.43462 0.72875 0.0
C838 C 0.72224 0.41677 0.70704 0.0
C839 C 0.71533 0.40434 0.66602 0.0
H840 H 0.8731 0.43781 1.10454 0.0
H841 H 0.79434 0.39545 1.10287 0.0
H842 H 0.86343 0.45827 1.03273 0.0
H843 H 0.78377 0.41714 1.03055 0.0
H844 H 0.86902 0.46479 0.89526 0.0
H845 H 0.84733 0.47715 0.96691 0.0
H846 H 0.80275 0.3992 0.96592 0.0
H847 H 0.82329 0.38777 0.89475 0.0
C848 C 0.85294 0.43402 1.08993 0.0
C849 C 0.83501 0.414 1.10838 0.0
C850 C 0.84721 0.44598 1.04824 0.0
C851 C 0.82341 0.43812 1.02416 0.0
C852 C 0.803 0.42249 1.047 0.0
C853 C 0.80897 0.4101 1.08852 0.0
C854 C 0.85369 0.45093 0.90973 0.0
C855 C 0.84874 0.42483 0.89038 0.0
C856 C 0.84128 0.45793 0.95086 0.0
C857 C 0.82452 0.4385 0.97384 0.0
C858 C 0.81587 0.4147 0.95025 0.0
C859 C 0.82789 0.40794 0.90896 0.0
H860 H 0.83888 0.63684 0.33383 0.0
H861 H 0.89031 0.56382 0.32916 0.0
H862 H 0.81528 0.6223 0.26709 0.0
H863 H 0.86501 0.54746 0.26351 0.0
H864 H 0.88386 0.58135 1.12179 0.0
H865 H 0.87449 0.56066 0.1935 0.0
H866 H 0.79787 0.60702 0.20295 0.0
H867 H 0.8089 0.6296 0.13152 0.0
C868 C 0.84439 0.61699 0.31917 0.0
C869 C 0.86758 0.60238 0.33458 0.0
C870 C 0.83054 0.60825 0.28074 0.0
C871 C 0.83968 0.58461 0.25694 0.0
C872 C 0.85876 0.56689 0.27867 0.0
C873 C 0.87312 0.57603 0.31676 0.0
C874 C 0.86443 0.58641 0.13823 0.0
C875 C 0.84788 0.60823 1.12234 0.0
C876 C 0.85885 0.57437 0.18005 0.0
C877 C 0.83655 0.584 0.20664 0.0
C878 C 0.81652 0.60079 0.18535 0.0
C879 C 0.82257 0.61354 0.14403 0.0
H880 H 0.54378 0.31761 0.68436 0.0
H881 H 0.46637 0.304 0.61702 0.0
H882 H 0.52414 0.29766 0.75418 0.0
H883 H 0.44737 0.28237 0.68591 0.0
H884 H 0.43456 0.21808 0.81132 0.0
H885 H 0.45407 0.23803 0.74129 0.0
H886 H 0.48438 0.308 0.81597 0.0
H887 H 0.46333 0.289 0.88525 0.0
C888 C 0.52265 0.31014 0.68384 0.0
C889 C 0.50704 0.31296 0.64359 0.0
C890 C 0.5112 0.29851 0.72452 0.0
C891 C 0.4838 0.28779 0.72712 0.0
C892 C 0.46846 0.28997 0.68651 0.0
C893 C 0.47951 0.30264 0.6464 0.0
C894 C 0.44529 0.23777 0.81319 0.0
C895 C 0.44689 0.25155 0.8554 0.0
C896 C 0.4566 0.24944 0.7724 0.0
C897 C 0.47131 0.27502 0.77149 0.0
C898 C 0.47355 0.28837 0.81397 0.0
C899 C 0.46125 0.27731 0.85433 0.0
H900 H 0.51263 0.70589 0.60606 0.0
H901 H 0.44987 0.6426 0.6116 0.0
H902 H 0.49638 0.72073 0.53321 0.0
H903 H 0.43219 0.65838 0.5383 0.0
H904 H 0.4109 0.68359 0.38933 0.0
H905 H 0.42671 0.66616 0.46275 0.0
H906 H 0.47174 0.74254 0.48287 0.0
H907 H 0.4571 0.7588 0.40981 0.0
C908 C 0.49496 0.69513 0.59212 0.0
C909 C 0.48285 0.67281 0.6164 0.0
C910 C 0.48516 0.70402 0.54933 0.0
C911 C 0.4621 0.69158 0.52769 0.0
C912 C 0.44995 0.66902 0.55201 0.0
C913 C 0.46012 0.65982 0.59497 0.0
C914 C 0.42425 0.69667 0.40938 0.0
C915 C 0.43256 0.72286 0.39207 0.0
C916 C 0.43346 0.6866 0.45239 0.0
C917 C 0.45132 0.70224 0.48089 0.0
C918 C 0.45895 0.72868 0.46341 0.0
C919 C 0.45011 0.73846 0.42054 0.0
H920 H 0.06436 0.76027 0.34174 0.0
H921 H 0.10948 0.68421 0.36108 0.0
H922 H 0.0486 0.74417 0.26866 0.0
H923 H 0.09328 0.66761 0.28736 0.0
H924 H 0.07556 0.65161 0.13318 0.0
H925 H 0.09293 0.66689 0.20692 0.0
H926 H 0.02019 0.71762 0.2243 0.0
H927 H 0.00335 0.70275 0.15115 0.0
C928 C 0.07094 0.73988 0.33082 0.0
C929 C 0.08844 0.72385 0.35896 0.0
C930 C 0.06157 0.73035 0.2881 0.0
C931 C 0.06911 0.7041 0.27025 0.0
C932 C 0.08677 0.68799 0.29834 0.0
C933 C 0.09607 0.69754 0.34148 0.0
C934 C 0.06326 0.66616 0.15247 0.0
C935 C 0.03781 0.67577 0.1346 0.0
C936 C 0.07323 0.67493 0.19564 0.0
C937 C 0.05845 0.69398 0.22337 0.0
C938 C 0.03303 0.70349 0.20514 0.0
C939 C 0.02306 0.69465 0.16237 0.0
H940 H 0.03962 0.23282 0.89439 0.0
H941 H 0.11221 0.28367 0.9081 0.0
H942 H 0.02004 0.25348 0.96266 0.0
H943 H 0.09302 0.30378 0.97763 0.0
H944 H 0.06083 0.32127 0.1257 0.0
H945 H 0.08073 0.3017 1.05639 0.0
H946 H -0.00103 0.29116 1.00295 0.0
H947 H 0.97892 0.30895 1.07337 0.0
C948 C 0.05176 0.24825 0.91194 0.0
C949 C 0.07801 0.25599 0.89417 0.0
C950 C 0.04025 0.26044 0.95196 0.0
C951 C 0.05444 0.28072 0.978 0.0
C952 C 0.08088 0.28826 0.96032 0.0
C953 C 0.09209 0.27659 0.91956 0.0
C954 C 0.04678 0.31452 1.09961 0.0
C955 C 0.01775 0.31685 1.10711 0.0
C956 C 0.05843 0.3032 1.0589 0.0
C957 C 0.04189 0.2936 1.02251 0.0
C958 C 0.01291 0.29662 1.02975 0.0
C959 C 0.00123 0.30748 1.07069 0.0
H960 H 0.94073 0.27654 0.30431 0.0
H961 H 0.0173 0.30372 0.36447 0.0
H962 H 0.93165 0.24844 0.3713 0.0
H963 H 0.00715 0.27491 0.43013 0.0
H964 H 0.04792 0.21728 0.33817 0.0
H965 H 0.02827 0.23378 0.40845 0.0
H966 H 0.94808 0.2039 0.36901 0.0
H967 H 0.96702 0.18867 0.29784 0.0
C968 C 0.95627 0.27548 0.33045 0.0
C969 C 0.98205 0.28877 0.32554 0.0
C970 C 0.9507 0.26025 0.3697 0.0
C971 C 0.97323 0.25349 0.39781 0.0
C972 C 0.99251 0.27514 0.40261 0.0
C973 C -0.00103 0.29077 0.36416 0.0
C974 C 0.02592 0.21472 0.34403 0.0
C975 C 0.00856 0.20409 0.31041 0.0
C976 C 0.01464 0.22342 0.38502 0.0
C977 C 0.98554 0.22518 0.38962 0.0
C978 C 0.97006 0.20661 0.36318 0.0
C979 C 0.98083 0.19832 0.32169 0.0
H980 H 0.00374 0.78877 0.52311 0.0
H981 H 0.93635 0.77001 0.61384 0.0
H982 H 0.03581 0.7835 0.58581 0.0
H983 H 0.96934 0.75703 0.67228 0.0
H984 H 0.08562 0.73136 0.6129 0.0
H985 H 0.05253 0.74441 0.6715 0.0
H986 H 0.98617 0.71867 0.58541 0.0
H987 H 0.0185 0.71338 0.52244 0.0
C988 C 0.99579 0.78373 0.55635 0.0
C989 C 0.96811 0.77633 0.56283 0.0
C990 C 0.01391 0.78113 0.59281 0.0
C991 C 0.005 0.76494 0.63013 0.0
C992 C 0.97693 0.76639 0.64137 0.0
C993 C 0.9582 0.77234 0.60708 0.0
C994 C 0.06379 0.72922 0.60623 0.0
C995 C 0.05405 0.72538 0.56201 0.0
C996 C 0.04498 0.7352 0.64064 0.0
C997 C 0.01695 0.73671 0.62967 0.0
C998 C 0.00806 0.7209 0.59219 0.0
C999 C 0.02632 0.71832 0.55563 0.0
H1000 H 0.4721 0.74331 0.78054 0.0
H1001 H 0.49119 0.67788 0.87467 0.0
H1002 H 0.48402 0.7771 0.83808 0.0
H1003 H 0.51088 0.7119 0.92606 0.0
H1004 H 0.54171 0.82254 0.84461 0.0
H1005 H 0.53079 0.79435 0.91071 0.0
H1006 H 0.54421 0.72097 0.83213 0.0
H1007 H 0.54611 0.74875 0.76327 0.0
C1008 C 0.47821 0.73613 0.81366 0.0
C1009 C 0.48351 0.70805 0.82179 0.0
C1010 C 0.48497 0.75537 0.84715 0.0
C1011 C 0.50307 0.74651 0.88173 0.0
C1012 C 0.49989 0.71912 0.89656 0.0
C1013 C 0.48964 0.69961 0.86613 0.0
C1014 C 0.54152 0.8003 0.84122 0.0
C1015 C 0.54062 0.78768 0.79846 0.0
C1016 C 0.53674 0.78415 0.87964 0.0
C1017 C 0.53198 0.75576 0.87396 0.0
C1018 C 0.54413 0.74334 0.83542 0.0
C1019 C 0.54507 0.75907 0.79564 0.0
H1020 H 0.56771 0.24988 1.11797 0.0
H1021 H 0.51888 0.31437 1.05564 0.0
H1022 H 0.53776 0.25122 0.18368 0.0
H1023 H 0.48924 0.31497 1.12242 0.0
H1024 H 0.43588 0.27225 1.07044 0.0
H1025 H 0.45054 0.28808 0.14375 0.0
H1026 H 0.50564 0.21858 0.15401 0.0
H1027 H 0.49031 0.20164 1.0809 0.0
C1028 C 0.55014 0.26383 1.1176 0.0
C1029 C 0.54301 0.27911 1.07853 0.0
C1030 C 0.53371 0.26556 0.15631 0.0
C1031 C 0.50755 0.27783 0.15195 0.0
C1032 C 0.50656 0.30072 1.1219 0.0
C1033 C 0.52289 0.29989 1.08282 0.0
C1034 C 0.45153 0.26044 1.08782 0.0
C1035 C 0.46485 0.23767 1.06718 0.0
C1036 C 0.45908 0.26885 0.13096 0.0
C1037 C 0.48358 0.25799 0.14897 0.0
C1038 C 0.48996 0.23034 0.13636 0.0
C1039 C 0.48198 0.22094 1.09378 0.0
H1040 H 0.97245 0.75781 0.96997 0.0
H1041 H 0.9908 0.82601 0.8803 0.0
H1042 H 0.97843 0.72598 0.90691 0.0
H1043 H 0.00392 0.79334 0.82134 0.0
H1044 H 0.03044 0.67715 0.88141 0.0
H1045 H 0.01743 0.70964 0.8221 0.0
H1046 H 0.04247 0.77727 0.90653 0.0
H1047 H 0.04834 0.74558 0.97 0.0
C1048 C 0.9774 0.76598 0.93684 0.0
C1049 C 0.98422 0.7939 0.93075 0.0
C1050 C 0.98043 0.74799 0.90017 0.0
C1051 C 0.99645 0.75732 0.86294 0.0
C1052 C 0.99456 0.78548 0.85209 0.0
C1053 C 0.98834 0.80406 0.88664 0.0
C1054 C 0.03283 0.69912 0.88743 0.0
C1055 C 0.03681 0.70938 0.93136 0.0
C1056 C 0.02668 0.71759 0.85264 0.0
C1057 C 0.02481 0.74578 0.86307 0.0
C1058 C 0.04059 0.75524 0.90014 0.0
C1059 C 0.04354 0.73733 0.93702 0.0
H1060 H 0.51413 0.78269 0.22021 0.0
H1061 H 0.57974 0.76547 0.12563 0.0
H1062 H 0.48067 0.77112 0.16177 0.0
H1063 H 0.54622 0.74522 1.07365 0.0
H1064 H 0.4362 0.71339 0.15608 0.0
H1065 H 0.46402 0.72385 1.08938 0.0
H1066 H 0.53754 0.71101 0.16701 0.0
H1067 H 0.51018 0.70957 0.23625 0.0
C1068 C 0.5214 0.77656 0.1871 0.0
C1069 C 0.54944 0.77153 0.17884 0.0
C1070 C 0.50242 0.77009 0.15315 0.0
C1071 C 0.51148 0.75221 1.11821 0.0
C1072 C 0.5388 0.75578 1.10355 0.0
C1073 C 0.55804 0.76598 0.13435 0.0
C1074 C 0.4584 0.7136 0.1591 0.0
C1075 C 0.47119 0.71487 0.20162 0.0
C1076 C 0.47434 0.71808 1.12034 0.0
C1077 C 0.50265 0.72306 0.12561 0.0
C1078 C 0.51522 0.71098 0.164 0.0
C1079 C 0.49973 0.71033 0.20405 0.0
H1080 H 0.45851 0.22931 0.42507 0.0
H1081 H 0.53185 0.17848 0.43122 0.0
H1082 H 0.47388 0.24701 0.35221 0.0
H1083 H 0.54632 0.19568 0.35805 0.0
H1084 H 0.57079 0.26604 0.44493 0.0
H1085 H 0.57071 0.23543 0.37995 0.0
H1086 H 0.50374 0.28105 0.3216 0.0
H1087 H 0.50327 0.31203 0.38584 0.0
C1088 C 0.47811 0.22233 0.4113 0.0
C1089 C 0.49592 0.2056 0.43667 0.0
C1090 C 0.48666 0.23167 0.36881 0.0
C1091 C 0.51441 0.2271 0.35503 0.0
C1092 C 0.52681 0.20288 0.37184 0.0
C1093 C 0.51915 0.19391 0.41484 0.0
C1094 C 0.55552 0.26922 0.41882 0.0
C1095 C 0.53434 0.28887 0.4238 0.0
C1096 C 0.55592 0.2523 0.38063 0.0
C1097 C 0.5326 0.25233 0.35192 0.0
C1098 C 0.51891 0.27788 0.34789 0.0
C1099 C 0.51779 0.29491 0.38583 0.0
H1100 H 0.04048 0.20591 0.66394 0.0
H1101 H 0.06842 0.2883 0.69838 0.0
H1102 H 0.02387 0.22346 0.59247 0.0
H1103 H 0.05358 0.30507 0.62582 0.0
H1104 H 0.98125 0.31494 0.68652 0.0
H1105 H 0.00947 0.32181 0.61886 0.0
H1106 H 0.98351 0.24423 0.56649 0.0
H1107 H 0.95427 0.23631 0.63256 0.0
C1108 C 0.04289 0.22781 0.65652 0.0
C1109 C 0.05345 0.24622 0.68878 0.0
C1110 C 0.03415 0.23786 0.6148 0.0
C1111 C 0.03261 0.26685 0.60767 0.0
C1112 C 0.05086 0.28322 0.63326 0.0
C1113 C 0.05901 0.2737 0.67553 0.0
C1114 C 0.98243 0.2985 0.66176 0.0
C1115 C 0.96915 0.27283 0.66872 0.0
C1116 C 0.99774 0.30275 0.62215 0.0
C1117 C 0.00477 0.27915 0.59644 0.0
C1118 C 0.98311 0.2598 0.59276 0.0
C1119 C 0.96723 0.25466 0.63149 0.0
H1120 H 0.02528 0.0448 0.23437 0.0
H1121 H 0.07761 0.07766 0.12877 0.0
H1122 H 0.02645 0.9994 0.19904 0.0
H1123 H 0.07839 0.03179 1.09246 0.0
H1124 H 0.08652 0.93612 1.05414 0.0
H1125 H 0.09189 0.98159 1.09175 0.0
H1126 H 0.00688 0.97729 0.13646 0.0
H1127 H 0.00178 0.93284 1.10051 0.0
C1128 C 0.0372 0.04244 0.20359 0.0
C1129 C 0.05117 0.06542 0.18466 0.0
C1130 C 0.03771 0.01615 0.18287 0.0
C1131 C 0.05213 0.01146 0.142 0.0
C1132 C 0.06704 0.03418 0.12378 0.0
C1133 C 0.0665 0.06069 0.14465 0.0
C1134 C 0.06908 0.94487 1.07226 0.0
C1135 C 0.04373 0.93026 1.07407 0.0
C1136 C 0.07208 0.97114 1.09374 0.0
C1137 C 0.04991 0.9835 1.11803 0.0
C1138 C 0.02478 0.9687 1.1194 0.0
C1139 C 0.0218 0.94288 1.09815 0.0
H1140 H 0.19472 0.73796 0.39197 0.0
H1141 H 0.20134 0.82235 0.43904 0.0
H1142 H 0.2391 0.7417 0.35512 0.0
H1143 H 0.24682 0.82629 0.40062 0.0
H1144 H 0.3424 0.80691 0.36169 0.0
H1145 H 0.29681 0.80997 0.39901 0.0
H1146 H 0.26109 0.76176 0.29166 0.0
H1147 H 0.30605 0.75841 0.25527 0.0
C1148 C 0.20549 0.75762 0.39435 0.0
C1149 C 0.19379 0.77986 0.41887 0.0
C1150 C 0.23128 0.75981 0.37258 0.0
C1151 C 0.24701 0.7844 0.37389 0.0
C1152 C 0.23561 0.80688 0.39864 0.0
C1153 C 0.20933 0.8047 0.42058 0.0
C1154 C 0.32475 0.7972 0.34579 0.0
C1155 C 0.32841 0.78217 0.30528 0.0
C1156 C 0.29842 0.79903 0.36728 0.0
C1157 C 0.27484 0.78571 0.34919 0.0
C1158 C 0.27849 0.77179 0.30772 0.0
C1159 C 0.30456 0.77004 0.28639 0.0
H1160 H 0.51351 0.06596 0.60018 0.0
H1161 H 0.4266 0.05857 0.56983 0.0
H1162 H 0.51275 0.02093 0.63663 0.0
H1163 H 0.4258 0.01274 0.6072 0.0
H1164 H 0.44597 0.91747 0.64184 0.0
H1165 H 0.44184 0.96308 0.60476 0.0
H1166 H 0.49704 0.99815 0.70327 0.0
H1167 H 0.50123 0.95314 0.73966 0.0
C1168 C 0.49403 0.05484 0.6013 0.0
C1169 C 0.47009 0.06651 0.58175 0.0
C1170 C 0.49358 0.02873 0.62275 0.0
C1171 C 0.46917 0.01273 0.62577 0.0
C1172 C 0.44513 0.02409 0.60569 0.0
C1173 C 0.44554 0.05058 0.58429 0.0
C1174 C 0.45704 0.93497 0.65585 0.0
C1175 C 0.47408 0.93113 0.69401 0.0
C1176 C 0.45461 0.96132 0.63452 0.0
C1177 C 0.4694 0.98474 0.6502 0.0
C1178 C 0.4857 0.98088 0.68912 0.0
C1179 C 0.48793 0.9548 0.71049 0.0
H1180 H 0.32505 0.16199 0.92621 0.0
H1181 H 0.32443 0.25105 0.91094 0.0
H1182 H 0.2798 0.15958 0.88831 0.0
H1183 H 0.27985 0.24873 0.87431 0.0
H1184 H 0.21288 0.23886 0.7707 0.0
H1185 H 0.25799 0.23676 0.80644 0.0
H1186 H 0.22972 0.16954 0.89133 0.0
H1187 H 0.18422 0.17145 0.85474 0.0
C1188 C 0.31539 0.18107 0.91504 0.0
C1189 C 0.32895 0.20671 0.92181 0.0
C1190 C 0.28922 0.17972 0.8933 0.0
C1191 C 0.27576 0.20394 0.87728 0.0
C1192 C 0.28935 0.22943 0.88476 0.0
C1193 C 0.3152 0.23077 0.90636 0.0
C1194 C 0.21612 0.22339 0.79669 0.0
C1195 C 0.19437 0.20544 0.80954 0.0
C1196 C 0.24222 0.22234 0.81777 0.0
C1197 C 0.24798 0.20326 0.85277 0.0
C1198 C 0.22652 0.18457 0.86466 0.0
C1199 C 0.2002 0.18573 0.84362 0.0
H1200 H 0.68955 0.24687 0.9133 0.0
H1201 H 0.69175 0.33579 0.92906 0.0
H1202 H 0.73478 0.24783 0.8779 0.0
H1203 H 0.73736 0.33699 0.89173 0.0
H1204 H 0.83192 0.32437 0.85639 0.0
H1205 H 0.78625 0.32712 0.89292 0.0
H1206 H 0.75841 0.25812 0.81235 0.0
H1207 H 0.80375 0.25488 0.77751 0.0
C1208 C 0.69955 0.26681 0.90889 0.0
C1209 C 0.6865 0.29124 0.92413 0.0
C1210 C 0.72575 0.26742 0.88798 0.0
C1211 C 0.74019 0.29253 0.88076 0.0
C1212 C 0.72732 0.31711 0.89657 0.0
C1213 C 0.70095 0.31646 0.91793 0.0
C1214 C 0.81601 0.30985 0.84638 0.0
C1215 C 0.82203 0.28919 0.81404 0.0
C1216 C 0.78958 0.31147 0.86733 0.0
C1217 C 0.7682 0.29252 0.85666 0.0
C1218 C 0.77413 0.27264 0.82305 0.0
C1219 C 0.8004 0.27093 0.80249 0.0
H1220 H 0.83549 0.67882 0.39642 0.0
H1221 H 0.81066 0.75675 0.45506 0.0
H1222 H 0.78992 0.67557 0.35866 0.0
H1223 H 0.76598 0.75331 0.41924 0.0
H1224 H 0.70583 0.76426 0.30842 0.0
H1225 H 0.75014 0.75965 0.34464 0.0
H1226 H 0.73619 0.67188 0.36275 0.0
H1227 H 0.69087 0.67652 0.32464 0.0
C1228 C 0.82027 0.69495 0.40208 0.0
C1229 C 0.82717 0.71824 0.42866 0.0
C1230 C 0.79405 0.69314 0.38031 0.0
C1231 C 0.77404 0.71454 0.38463 0.0
C1232 C 0.78072 0.73677 0.41341 0.0
C1233 C 0.80659 0.73866 0.43449 0.0
C1234 C 0.71186 0.74378 0.31992 0.0
C1235 C 0.69408 0.72089 0.31374 0.0
C1236 C 0.73759 0.74115 0.3412 0.0
C1237 C 0.74704 0.7155 0.35808 0.0
C1238 C 0.72987 0.69209 0.35054 0.0
C1239 C 0.70375 0.69474 0.32867 0.0
H1240 H 0.5459 0.54398 0.74492 0.0
H1241 H 0.55397 0.58762 0.61851 0.0
H1242 H 0.55012 0.49966 0.7057 0.0
H1243 H 0.55785 0.54301 0.57891 0.0
H1244 H 0.5262 0.45713 0.52275 0.0
H1245 H 0.52815 0.50243 0.55952 0.0
H1246 H 0.58099 0.46826 0.66237 0.0
H1247 H 0.57931 0.42285 0.62516 0.0
C1248 C 0.54894 0.54423 0.70871 0.0
C1249 C 0.54966 0.56977 0.68522 0.0
C1250 C 0.55143 0.51859 0.68607 0.0
C1251 C 0.55422 0.51728 0.63875 0.0
C1252 C 0.55547 0.54286 0.61523 0.0
C1253 C 0.5535 0.56862 0.63807 0.0
C1254 C 0.53853 0.45919 0.55295 0.0
C1255 C 0.55258 0.43589 0.57065 0.0
C1256 C 0.53974 0.48542 0.5741 0.0
C1257 C 0.55466 0.48945 0.61434 0.0
C1258 C 0.56902 0.46623 0.63178 0.0
C1259 C 0.5682 0.44005 0.61017 0.0
H1260 H 0.93186 0.5711 1.06715 0.0
H1261 H 0.02042 0.56407 1.08171 0.0
H1262 H 0.92639 0.52545 1.10477 0.0
H1263 H 0.01513 0.51951 1.11738 0.0
H1264 H 0.00315 0.45459 0.22143 0.0
H1265 H 0.00173 0.50003 0.18643 0.0
H1266 H 0.93409 0.47374 1.10221 0.0
H1267 H 0.93505 0.42775 0.13872 0.0
C1268 C 0.95012 0.55997 1.07804 0.0
C1269 C 0.97659 0.57188 1.07156 0.0
C1270 C 0.94703 0.53366 1.09959 0.0
C1271 C 0.97029 0.51856 1.11534 0.0
C1272 C 0.99652 0.53039 1.10746 0.0
C1273 C -0.00044 0.55629 1.0864 0.0
C1274 C 0.98776 0.45827 0.19568 0.0
C1275 C 0.96947 0.43692 0.18291 0.0
C1276 C 0.98705 0.48459 0.17511 0.0
C1277 C 0.96822 0.49091 0.1403 0.0
C1278 C 0.94899 0.46998 0.12867 0.0
C1279 C 0.94961 0.44343 0.14962 0.0
H1280 H 0.09586 0.18057 0.36297 0.0
H1281 H 0.02365 0.13893 0.41461 0.0
H1282 H 0.10896 0.19384 0.43959 0.0
H1283 H 0.03712 0.15173 0.4919 0.0
H1284 H 0.08042 0.1594 0.63483 0.0
H1285 H 0.06648 0.1467 0.55826 0.0
H1286 H 0.10341 0.2218 0.5073 0.0
H1287 H 0.11684 0.23479 0.58445 0.0
C1288 C 0.08263 0.17381 0.39044 0.0
C1289 C 0.05849 0.15799 0.38037 0.0
C1290 C 0.09023 0.18182 0.43546 0.0
C1291 C 0.0746 0.17424 0.47442 0.0
C1292 C 0.05048 0.15821 0.46445 0.0
C1293 C 0.04254 0.15067 0.41914 0.0
C1294 C 0.08592 0.1734 0.60763 0.0
C1295 C 0.10053 0.1983 0.61799 0.0
C1296 C 0.07751 0.16605 0.56268 0.0
C1297 C 0.08345 0.18273 0.5241 0.0
C1298 C 0.09824 0.20761 0.53441 0.0
C1299 C 0.10616 0.21527 0.57964 0.0
H1300 H 0.12203 0.75737 0.67144 0.0
H1301 H 0.07551 0.82295 0.60904 0.0
H1302 H 0.1055 0.77297 0.74578 0.0
H1303 H 0.05946 0.83868 0.68211 0.0
H1304 H 0.01952 0.86018 0.82186 0.0
H1305 H 0.03513 0.84367 0.74752 0.0
H1306 H 0.10058 0.79738 0.81096 0.0
H1307 H 0.08485 0.81343 0.88404 0.0
C1308 C 0.10855 0.77528 0.67295 0.0
C1309 C 0.10084 0.78853 0.632 0.0
C1310 C 0.09878 0.78459 0.71662 0.0
C1311 C 0.08051 0.80781 0.72269 0.0
C1312 C 0.07294 0.82079 0.68149 0.0
C1313 C 0.08267 0.81159 0.63827 0.0
C1314 C 0.03738 0.84665 0.8203 0.0
C1315 C 0.05054 0.83883 0.86119 0.0
C1316 C 0.04669 0.83688 0.77663 0.0
C1317 C 0.06981 0.81853 0.7705 0.0
C1318 C 0.08274 0.81091 0.81164 0.0
C1319 C 0.07354 0.82064 0.85486 0.0
H1320 H 0.44789 0.8207 0.13634 0.0
H1321 H 0.40792 0.75007 1.07691 0.0
H1322 H 0.46368 0.83608 1.06213 0.0
H1323 H 0.42367 0.76562 1.00181 0.0
H1324 H 0.43707 0.81074 0.86277 0.0
H1325 H 0.42234 0.79443 0.93699 0.0
H1326 H 0.49216 0.8356 0.99673 0.0
H1327 H 0.50707 0.85187 0.92158 0.0
C1328 C 0.4421 0.80824 1.10758 0.0
C1329 C 0.42587 0.78387 1.11472 0.0
C1330 C 0.45162 0.81718 1.06394 0.0
C1331 C 0.44543 0.8027 1.02351 0.0
C1332 C 0.42912 0.77824 1.03054 0.0
C1333 C 0.41987 0.76903 1.07454 0.0
C1334 C 0.44953 0.81669 0.8914 0.0
C1335 C 0.47354 0.83338 0.88406 0.0
C1336 C 0.44097 0.80685 0.93504 0.0
C1337 C 0.45548 0.81317 0.97532 0.0
C1338 C 0.47955 0.82999 0.96812 0.0
C1339 C 0.48838 0.83956 0.9241 0.0
H1340 H 0.41856 0.1787 0.38708 0.0
H1341 H 0.4922 0.13796 0.33962 0.0
H1342 H 0.40666 0.19159 0.30979 0.0
H1343 H 0.48007 0.15056 0.26156 0.0
H1344 H 0.39844 0.23056 0.16363 0.0
H1345 H 0.41102 0.21841 0.24168 0.0
H1346 H 0.45361 0.14583 0.19357 0.0
H1347 H 0.44074 0.15773 1.11629 0.0
C1348 C 0.43238 0.17206 0.36038 0.0
C1349 C 0.45648 0.15651 0.37189 0.0
C1350 C 0.42549 0.17988 0.31492 0.0
C1351 C 0.44189 0.17247 0.27679 0.0
C1352 C 0.46607 0.15685 0.28822 0.0
C1353 C 0.47325 0.14942 0.33402 0.0
C1354 C 0.41023 0.21177 0.16926 0.0
C1355 C 0.41777 0.19523 0.13142 0.0
C1356 C 0.41766 0.20459 0.21505 0.0
C1357 C 0.43371 0.18064 0.22651 0.0
C1358 C 0.44155 0.16447 0.18842 0.0
C1359 C 0.43375 0.17137 0.14296 0.0
H1360 H 0.8157 0.86269 0.71203 0.0
H1361 H 0.84169 0.92161 0.61037 0.0
H1362 H 0.82468 0.89663 0.77022 0.0
H1363 H 0.84975 0.95623 0.66864 0.0
H1364 H 0.92165 0.95999 0.77764 0.0
H1365 H 0.88956 0.95309 0.71621 0.0
H1366 H 0.82326 0.93904 0.81206 0.0
H1367 H 0.85586 0.94471 0.87363 0.0
C1368 C 0.82237 0.88331 0.70209 0.0
C1369 C 0.8289 0.88922 0.65698 0.0
C1370 C 0.82716 0.90302 0.73541 0.0
C1371 C 0.83866 0.92901 0.72417 0.0
C1372 C 0.84145 0.93619 0.67841 0.0
C1373 C 0.83671 0.91638 0.64501 0.0
C1374 C 0.90004 0.9563 0.78555 0.0
C1375 C 0.89149 0.95176 0.83023 0.0
C1376 C 0.88144 0.9527 0.7503 0.0
C1377 C 0.85397 0.94453 0.75927 0.0
C1378 C 0.84448 0.94457 0.80414 0.0
C1379 C 0.86316 0.94799 0.83945 0.0
H1380 H 0.86772 0.07831 0.62732 0.0
H1381 H 0.84102 0.14578 0.54193 0.0
H1382 H 0.86619 0.04681 0.56308 0.0
H1383 H 0.84101 0.11521 0.47771 0.0
H1384 H 0.92265 0.03555 0.43411 0.0
H1385 H 0.89804 0.04272 0.50422 0.0
H1386 H 0.82947 0.07839 0.43111 0.0
H1387 H 0.8553 0.07386 0.36152 0.0
C1388 C 0.86095 0.08628 0.59503 0.0
C1389 C 0.85537 0.11469 0.5892 0.0
C1390 C 0.8602 0.06826 0.55814 0.0
C1391 C 0.85414 0.07843 0.51477 0.0
C1392 C 0.84572 0.1063 0.51031 0.0
C1393 C 0.84626 0.12414 0.54709 0.0
C1394 C 0.90207 0.04442 0.43283 0.0
C1395 C 0.89187 0.05588 0.39257 0.0
C1396 C 0.88763 0.04817 0.47321 0.0
C1397 C 0.8624 0.06277 0.47362 0.0
C1398 C 0.84956 0.06843 0.43217 0.0
C1399 C 0.86435 0.06545 0.39194 0.0
H1400 H 0.65392 0.0893 1.11218 0.0
H1401 H 0.69149 0.15404 0.19154 0.0
H1402 H 0.65332 0.0589 0.17789 0.0
H1403 H 0.68941 0.12467 0.2575 0.0
H1404 H 0.66485 0.08943 0.37773 0.0
H1405 H 0.6925 0.08812 0.309 0.0
H1406 H 0.61965 0.06458 0.23387 0.0
H1407 H 0.59279 0.0641 0.3027 0.0
C1408 C 0.66287 0.09674 0.1433 0.0
C1409 C 0.67164 0.12442 0.14744 0.0
C1410 C 0.6624 0.07936 0.18107 0.0
C1411 C 0.67011 0.08966 0.22355 0.0
C1412 C 0.6829 0.1159 0.22571 0.0
C1413 C 0.68368 0.13308 0.18794 0.0
C1414 C 0.65509 0.0827 0.34684 0.0
C1415 C 0.62638 0.0781 0.34506 0.0
C1416 C 0.67092 0.08211 0.30733 0.0
C1417 C 0.65811 0.0776 0.26549 0.0
C1418 C 0.63037 0.0686 0.26514 0.0
C1419 C 0.61469 0.06879 0.30464 0.0
H1420 H 0.67019 0.94174 0.85819 0.0
H1421 H 0.60471 0.96926 0.94729 0.0
H1422 H 0.70043 0.93551 0.92214 0.0
H1423 H 0.63423 0.96079 1.01153 0.0
H1424 H 0.6762 0.92416 0.12341 0.0
H1425 H 0.67142 0.9582 1.06291 0.0
H1426 H 0.69369 0.89508 0.96577 0.0
H1427 H 0.69957 0.86182 1.02612 0.0
C1428 C 0.66244 0.94758 0.89114 0.0
C1429 C 0.63443 0.95459 0.89783 0.0
C1430 C 0.67983 0.94365 0.92803 0.0
C1431 C 0.66929 0.94601 0.9721 0.0
C1432 C 0.643 0.95807 0.97818 0.0
C1433 C 0.62581 0.9626 0.94121 0.0
C1434 C 0.68112 0.91795 1.08923 0.0
C1435 C 0.68751 0.89017 1.0792 0.0
C1436 C 0.67823 0.93743 1.05453 0.0
C1437 C 0.68153 0.92936 1.00928 0.0
C1438 C 0.69102 0.9023 1.00004 0.0
C1439 C 0.69398 0.88296 1.03463 0.0
H1440 H 0.51762 0.64244 0.9249 0.0
H1441 H 0.58629 0.68286 0.85947 0.0
H1442 H 0.53374 0.65977 0.99793 0.0
H1443 H 0.60268 0.69986 0.93198 0.0
H1444 H 0.62184 0.74372 1.07027 0.0
H1445 H 0.60558 0.72752 0.99616 0.0
H1446 H 0.56041 0.66145 1.06132 0.0
H1447 H 0.57623 0.67756 0.13393 0.0
C1448 C 0.53634 0.65478 0.9256 0.0
C1449 C 0.55032 0.66058 0.88441 0.0
C1450 C 0.54595 0.66493 0.96844 0.0
C1451 C 0.57019 0.68173 0.97328 0.0
C1452 C 0.58398 0.68751 0.93185 0.0
C1453 C 0.57449 0.67725 0.88925 0.0
C1454 C 0.60864 0.72559 1.06906 0.0
C1455 C 0.60098 0.71234 1.11015 0.0
C1456 C 0.59904 0.71601 1.02569 0.0
C1457 C 0.58101 0.69263 1.02038 0.0
C1458 C 0.57361 0.67957 1.06165 0.0
C1459 C 0.58322 0.68896 1.10451 0.0
H1460 H 0.60121 0.32762 0.38575 0.0
H1461 H 0.52627 0.36481 0.33679 0.0
H1462 H 0.61387 0.31398 0.30895 0.0
H1463 H 0.53905 0.35142 0.25943 0.0
H1464 H 0.57855 0.34391 1.11516 0.0
H1465 H 0.56572 0.35665 0.19202 0.0
H1466 H 0.60987 0.28562 0.24251 0.0
H1467 H 0.62251 0.27261 0.16471 0.0
C1468 C 0.58733 0.33338 0.35877 0.0
C1469 C 0.56263 0.34817 0.36945 0.0
C1470 C 0.59463 0.3251 0.31374 0.0
C1471 C 0.57798 0.33128 0.27559 0.0
C1472 C 0.55323 0.34617 0.28625 0.0
C1473 C 0.5457 0.35407 0.33155 0.0
C1474 C 0.58597 0.33085 0.14227 0.0
C1475 C 0.60235 0.30714 0.13161 0.0
C1476 C 0.57816 0.33819 0.18743 0.0
C1477 C 0.58639 0.32265 0.22587 0.0
C1478 C 0.60294 0.2989 0.21536 0.0
C1479 C 0.61041 0.29125 0.16984 0.0
H1480 H 0.91743 0.32642 0.36231 0.0
H1481 H 0.99167 0.36261 0.41573 0.0
H1482 H 0.90354 0.31155 0.43811 0.0
H1483 H 0.97736 0.34832 0.49223 0.0
H1484 H 0.93248 0.33976 0.63407 0.0
H1485 H 0.94703 0.35387 0.55825 0.0
H1486 H 0.90901 0.28065 0.50359 0.0
H1487 H 0.89504 0.2661 0.58016 0.0
C1488 C 0.93088 0.33175 0.39006 0.0
C1489 C 0.95586 0.34652 0.38087 0.0
C1490 C 0.92284 0.32277 0.43449 0.0
C1491 C 0.93883 0.32837 0.47356 0.0
C1492 C 0.96374 0.34342 0.46452 0.0
C1493 C 0.97212 0.35187 0.41977 0.0
C1494 C 0.92682 0.32648 0.60622 0.0
C1495 C 0.9118 0.3016 0.61529 0.0
C1496 C 0.93561 0.33465 0.56176 0.0
C1497 C 0.92956 0.31891 0.52253 0.0
C1498 C 0.91426 0.29409 0.53144 0.0
C1499 C 0.90601 0.28556 0.57624 0.0
H1500 H 0.00282 0.64274 0.82366 0.0
H1501 H 0.93588 0.68789 0.88513 0.0
H1502 H 0.98755 0.65901 0.74913 0.0
H1503 H 0.92046 0.70367 0.81183 0.0
H1504 H 0.89973 0.74358 0.67208 0.0
H1505 H 0.91591 0.72823 0.7466 0.0
H1506 H 0.96346 0.66325 0.68367 0.0
H1507 H 0.94776 0.67875 0.61038 0.0
C1508 C 0.98467 0.65585 0.82189 0.0
C1509 C 0.97094 0.66329 0.8626 0.0
C1510 C 0.97556 0.66547 0.77812 0.0
C1511 C 0.95208 0.68328 0.77176 0.0
C1512 C 0.93859 0.69055 0.81273 0.0
C1513 C 0.9476 0.68098 0.85606 0.0
C1514 C 0.91347 0.72588 0.6738 0.0
C1515 C 0.92174 0.71276 0.63302 0.0
C1516 C 0.92304 0.71673 0.71756 0.0
C1517 C 0.94161 0.69381 0.72386 0.0
C1518 C 0.94972 0.68094 0.68282 0.0
C1519 C 0.9402 0.68999 0.63949 0.0
H1520 H 0.34457 0.39192 0.39218 0.0
H1521 H 0.40861 0.43231 0.31398 0.0
H1522 H 0.31519 0.39019 0.32576 0.0
H1523 H 0.38036 0.42909 0.24735 0.0
H1524 H 0.32369 0.33005 0.20161 0.0
H1525 H 0.32287 0.35679 0.27028 0.0
H1526 H 0.34465 0.43073 0.19489 0.0
H1527 H 0.34729 0.40323 0.12631 0.0
C1528 C 0.35204 0.40123 0.36115 0.0
C1529 C 0.37932 0.41114 0.35757 0.0
C1530 C 0.33526 0.4001 0.32297 0.0
C1531 C 0.3458 0.40828 0.28065 0.0
C1532 C 0.37144 0.42218 0.27899 0.0
C1533 C 0.388 0.42363 0.31716 0.0
C1534 C 0.32776 0.35214 0.19958 0.0
C1535 C 0.33689 0.36426 0.15913 0.0
C1536 C 0.3268 0.36774 0.23899 0.0
C1537 C 0.33482 0.39584 0.23854 0.0
C1538 C 0.33934 0.40891 0.19666 0.0
C1539 C 0.3407 0.39316 0.15724 0.0
H1540 H 0.31216 0.59463 1.11147 0.0
H1541 H 0.29508 0.67002 1.03737 0.0
H1542 H 0.31265 0.56876 1.04177 0.0
H1543 H 0.29881 0.64483 0.96747 0.0
H1544 H 0.38145 0.55962 0.93314 0.0
H1545 H 0.35053 0.56763 0.9956 0.0
H1546 H 0.29603 0.61451 0.90845 0.0
H1547 H 0.32836 0.60744 0.84597 0.0
C1548 C 0.30772 0.60571 1.08056 0.0
C1549 C 0.3051 0.63481 1.07996 0.0
C1550 C 0.30848 0.59082 1.04025 0.0
C1551 C 0.30765 0.60485 0.9986 0.0
C1552 C 0.30028 0.63313 0.99854 0.0
C1553 C 0.29862 0.64785 1.0389 0.0
C1554 C 0.36241 0.57085 0.92692 0.0
C1555 C 0.35763 0.5835 0.88508 0.0
C1556 C 0.34436 0.57537 0.9629 0.0
C1557 C 0.32089 0.59247 0.95776 0.0
C1558 C 0.31434 0.60209 0.91421 0.0
C1559 C 0.33277 0.59797 0.87831 0.0
H1560 H 0.21052 0.64602 0.71364 0.0
H1561 H 0.18839 0.58462 0.61433 0.0
H1562 H 0.20118 0.61285 0.77333 0.0
H1563 H 0.18001 0.55085 0.67413 0.0
H1564 H 0.10571 0.54668 0.77996 0.0
H1565 H 0.13882 0.55429 0.71956 0.0
H1566 H 0.20268 0.57098 0.81746 0.0
H1567 H 0.16905 0.56444 0.87798 0.0
C1568 C 0.20469 0.62505 0.70458 0.0
C1569 C 0.19926 0.61818 0.65958 0.0
C1570 C 0.19967 0.6058 0.73879 0.0
C1571 C 0.18908 0.57935 0.72852 0.0
C1572 C 0.18757 0.57127 0.6831 0.0
C1573 C 0.19252 0.59059 0.64883 0.0
C1574 C 0.12703 0.55113 0.78857 0.0
C1575 C 0.13457 0.55596 0.83346 0.0
C1576 C 0.14621 0.55514 0.75393 0.0
C1577 C 0.17327 0.56407 0.7637 0.0
C1578 C 0.18181 0.56474 0.80891 0.0
C1579 C 0.16255 0.56084 0.8436 0.0
H1580 H 0.17911 0.3889 0.36544 0.0
H1581 H 0.11398 0.42301 0.44864 0.0
H1582 H 0.21041 0.38967 0.42956 0.0
H1583 H 0.14414 0.42202 0.51303 0.0
H1584 H 0.18263 0.40281 0.63087 0.0
H1585 H 0.18033 0.42917 0.56148 0.0
H1586 H 0.21196 0.35835 0.48822 0.0
H1587 H 0.21707 0.33321 0.5581 0.0
C1588 C 0.17165 0.39715 0.39718 0.0
C1589 C 0.14378 0.40487 0.40258 0.0
C1590 C 0.18955 0.39741 0.43409 0.0
C1591 C 0.17971 0.4049 0.47715 0.0
C1592 C 0.15277 0.41591 0.48082 0.0
C1593 C 0.13509 0.41598 0.44392 0.0
C1594 C 0.19057 0.3933 0.60042 0.0
C1595 C 0.19854 0.36521 0.5997 0.0
C1596 C 0.18885 0.40839 0.56029 0.0
C1597 C 0.19409 0.39533 0.51874 0.0
C1598 C 0.20691 0.36909 0.51918 0.0
C1599 C 0.20943 0.35432 0.55945 0.0
loop_
_geom_bond_atom_site_label_1
_geom_bond_atom_site_label_2
_geom_bond_distance
_geom_bond_site_symmetry_2
_ccdc_geom_bond_type
Dy0 O3 2.307 . S
Dy0 O5 2.395 . S
Dy0 O6 2.379 . S
Dy0 O8 2.339 . S
Dy0 O10 2.298 1_655 S
Dy0 O14 2.275 1_655 S
Dy0 C22 2.738 . S
Dy1 O4 2.298 . S
Dy1 O7 2.275 . S
Dy1 O9 2.307 . S
Dy1 O11 2.395 . S
Dy1 O12 2.379 . S
Dy1 O15 2.339 . S
Dy1 C31 2.738 . S
C2 O14 1.254 . S
C2 O15 1.257 . S
O3 Dy0 2.307 . S
O3 C13 1.266 . S
O4 Dy1 2.298 . S
O4 C13 1.236 1_455 S
O5 Dy0 2.395 . S
O5 C22 1.255 . S
O6 Dy0 2.379 . S
O6 C22 1.249 . S
O7 Dy1 2.275 . S
O7 C23 1.254 . S
O8 Dy0 2.339 . S
O8 C23 1.257 1_655 S
O9 Dy1 2.307 . S
O9 C24 1.266 . S
O10 Dy0 2.298 1_455 S
O10 C24 1.236 . S
O11 Dy1 2.395 . S
O11 C31 1.255 . S
O12 Dy1 2.379 . S
O12 C31 1.249 . S
C13 O3 1.266 . S
C13 O4 1.236 1_655 S
O14 Dy0 2.275 1_455 S
O14 C2 1.254 . S
O15 Dy1 2.339 . S
O15 C2 1.257 . S
C16 C19 1.344 . S
C16 C20 1.328 . S
C16 C22 1.516 . S
C17 C18 1.304 . S
C17 C21 1.323 . S
C18 C17 1.304 . S
C18 C19 1.371 . S
C18 H32 0.930 . S
C19 C16 1.344 . S
C19 C18 1.371 . S
C19 H33 0.931 . S
C20 C16 1.328 . S
C20 C21 1.433 . S
C20 H34 0.931 . S
C21 C17 1.323 . S
C21 C20 1.433 . S
C21 H35 0.933 . S
C22 Dy0 2.738 . S
C22 O5 1.255 . S
C22 O6 1.249 . S
C22 C16 1.516 . S
C23 O7 1.254 . S
C23 O8 1.257 1_455 S
C24 O9 1.266 . S
C24 O10 1.236 . S
C25 C28 1.344 . S
C25 C29 1.328 . S
C25 C31 1.516 1_556 S
C26 C27 1.304 . S
C26 C30 1.323 . S
C27 C26 1.304 . S
C27 C28 1.371 . S
C27 H36 0.930 . S
C28 C25 1.344 . S
C28 C27 1.371 . S
C28 H37 0.931 . S
C29 C25 1.328 . S
C29 C30 1.433 . S
C29 H38 0.931 . S
C30 C26 1.323 . S
C30 C29 1.433 . S
C30 H39 0.933 . S
C31 Dy1 2.738 . S
C31 O11 1.255 . S
C31 O12 1.249 . S
C31 C25 1.516 1_554 S
H32 C18 0.930 . S
H33 C19 0.931 . S
H34 C20 0.931 . S
H35 C21 0.933 . S
H36 C27 0.930 . S
H37 C28 0.931 . S
H38 C29 0.931 . S
H39 C30 0.933 . S
Dy40 O43 2.307 . S
Dy40 O45 2.395 . S
Dy40 O46 2.379 . S
Dy40 O48 2.339 . S
Dy40 O50 2.298 . S
Dy40 O54 2.275 . S
Dy40 C62 2.738 . S
Dy41 O44 2.298 . S
Dy41 O47 2.275 . S
Dy41 O49 2.307 . S
Dy41 O51 2.395 . S
Dy41 O52 2.379 . S
Dy41 O55 2.339 . S
Dy41 C71 2.738 . S
C42 O54 1.254 . S
C42 O55 1.257 . S
O43 Dy40 2.307 . S
O43 C53 1.266 . S
O44 Dy41 2.298 . S
O44 C53 1.236 . S
O45 Dy40 2.395 . S
O45 C62 1.255 . S
O46 Dy40 2.379 . S
O46 C62 1.249 . S
O47 Dy41 2.275 . S
O47 C63 1.254 . S
O48 Dy40 2.339 . S
O48 C63 1.257 . S
O49 Dy41 2.307 . S
O49 C64 1.266 . S
O50 Dy40 2.298 . S
O50 C64 1.236 . S
O51 Dy41 2.395 . S
O51 C71 1.255 . S
O52 Dy41 2.379 . S
O52 C71 1.249 . S
C53 O43 1.266 . S
C53 O44 1.236 . S
O54 Dy40 2.275 . S
O54 C42 1.254 . S
O55 Dy41 2.339 . S
O55 C42 1.257 . S
C56 C59 1.344 . S
C56 C60 1.328 . S
C56 C62 1.516 . S
C57 C58 1.304 . S
C57 C61 1.323 . S
C58 C57 1.304 . S
C58 C59 1.371 . S
C58 H72 0.930 . S
C59 C56 1.344 . S
C59 C58 1.371 . S
C59 H73 0.931 . S
C60 C56 1.328 . S
C60 C61 1.433 . S
C60 H74 0.931 . S
C61 C57 1.323 . S
C61 C60 1.433 . S
C61 H75 0.933 . S
C62 Dy40 2.738 . S
C62 O45 1.255 . S
C62 O46 1.249 . S
C62 C56 1.516 . S
C63 O47 1.254 . S
C63 O48 1.257 . S
C64 O49 1.266 . S
C64 O50 1.236 . S
C65 C68 1.344 . S
C65 C69 1.328 . S
C65 C71 1.516 . S
C66 C67 1.304 . S
C66 C70 1.323 . S
C67 C66 1.304 . S
C67 C68 1.371 . S
C67 H76 0.930 . S
C68 C65 1.344 . S
C68 C67 1.371 . S
C68 H77 0.931 . S
C69 C65 1.328 . S
C69 C70 1.433 . S
C69 H78 0.931 . S
C70 C66 1.323 . S
C70 C69 1.433 . S
C70 H79 0.933 . S
C71 Dy41 2.738 . S
C71 O51 1.255 . S
C71 O52 1.249 . S
C71 C65 1.516 . S
H72 C58 0.930 . S
H73 C59 0.931 . S
H74 C60 0.931 . S
H75 C61 0.933 . S
H76 C67 0.930 . S
H77 C68 0.931 . S
H78 C69 0.931 . S
H79 C70 0.933 . S
Dy80 O83 2.307 . S
Dy80 O85 2.395 . S
Dy80 O86 2.379 . S
Dy80 O88 2.339 . S
Dy80 O90 2.298 . S
Dy80 O94 2.275 . S
Dy80 C102 2.738 . S
Dy81 O84 2.298 . S
Dy81 O87 2.275 . S
Dy81 O89 2.307 . S
Dy81 O91 2.395 . S
Dy81 O92 2.379 . S
Dy81 O95 2.339 . S
Dy81 C111 2.738 . S
C82 O94 1.254 . S
C82 O95 1.257 . S
O83 Dy80 2.307 . S
O83 C93 1.266 . S
O84 Dy81 2.298 . S
O84 C93 1.236 . S
O85 Dy80 2.395 . S
O85 C102 1.255 . S
O86 Dy80 2.379 . S
O86 C102 1.249 . S
O87 Dy81 2.275 . S
O87 C103 1.254 . S
O88 Dy80 2.339 . S
O88 C103 1.257 . S
O89 Dy81 2.307 . S
O89 C104 1.266 . S
O90 Dy80 2.298 . S
O90 C104 1.236 . S
O91 Dy81 2.395 . S
O91 C111 1.255 . S
O92 Dy81 2.379 . S
O92 C111 1.249 . S
C93 O83 1.266 . S
C93 O84 1.236 . S
O94 Dy80 2.275 . S
O94 C82 1.254 . S
O95 Dy81 2.339 . S
O95 C82 1.257 . S
C96 C99 1.344 . S
C96 C100 1.328 . S
C96 C102 1.516 . S
C97 C98 1.304 . S
C97 C101 1.323 . S
C98 C97 1.304 . S
C98 C99 1.371 . S
C98 H112 0.930 . S
C99 C96 1.344 . S
C99 C98 1.371 . S
C99 H113 0.931 . S
C100 C96 1.328 . S
C100 C101 1.433 . S
C100 H114 0.931 . S
C101 C97 1.323 . S
C101 C100 1.433 . S
C101 H115 0.933 . S
C102 Dy80 2.738 . S
C102 O85 1.255 . S
C102 O86 1.249 . S
C102 C96 1.516 . S
C103 O87 1.254 . S
C103 O88 1.257 . S
C104 O89 1.266 . S
C104 O90 1.236 . S
C105 C108 1.344 . S
C105 C109 1.328 . S
C105 C111 1.516 . S
C106 C107 1.304 . S
C106 C110 1.323 . S
C107 C106 1.304 . S
C107 C108 1.371 . S
C107 H116 0.930 . S
C108 C105 1.344 . S
C108 C107 1.371 . S
C108 H117 0.931 . S
C109 C105 1.328 . S
C109 C110 1.433 . S
C109 H118 0.931 . S
C110 C106 1.323 . S
C110 C109 1.433 . S
C110 H119 0.933 . S
C111 Dy81 2.738 . S
C111 O91 1.255 . S
C111 O92 1.249 . S
C111 C105 1.516 . S
H112 C98 0.930 . S
H113 C99 0.931 . S
H114 C100 0.931 . S
H115 C101 0.933 . S
H116 C107 0.930 . S
H117 C108 0.931 . S
H118 C109 0.931 . S
H119 C110 0.933 . S
Dy120 O123 2.307 . S
Dy120 O125 2.395 . S
Dy120 O126 2.379 . S
Dy120 O128 2.339 . S
Dy120 O130 2.298 . S
Dy120 O134 2.275 . S
Dy120 C142 2.738 . S
Dy121 O124 2.298 . S
Dy121 O127 2.275 . S
Dy121 O129 2.307 . S
Dy121 O131 2.395 . S
Dy121 O132 2.379 . S
Dy121 O135 2.339 . S
Dy121 C151 2.738 . S
C122 O134 1.254 . S
C122 O135 1.257 . S
O123 Dy120 2.307 . S
O123 C133 1.266 . S
O124 Dy121 2.298 . S
O124 C133 1.236 . S
O125 Dy120 2.395 . S
O125 C142 1.255 . S
O126 Dy120 2.379 . S
O126 C142 1.249 . S
O127 Dy121 2.275 . S
O127 C143 1.254 . S
O128 Dy120 2.339 . S
O128 C143 1.257 . S
O129 Dy121 2.307 . S
O129 C144 1.266 . S
O130 Dy120 2.298 . S
O130 C144 1.236 . S
O131 Dy121 2.395 . S
O131 C151 1.255 . S
O132 Dy121 2.379 . S
O132 C151 1.249 . S
C133 O123 1.266 . S
C133 O124 1.236 . S
O134 Dy120 2.275 . S
O134 C122 1.254 . S
O135 Dy121 2.339 . S
O135 C122 1.257 . S
C136 C139 1.344 . S
C136 C140 1.328 . S
C136 C142 1.516 1_554 S
C137 C138 1.304 . S
C137 C141 1.323 . S
C138 C137 1.304 . S
C138 C139 1.371 . S
C138 H152 0.930 . S
C139 C136 1.344 . S
C139 C138 1.371 . S
C139 H153 0.931 . S
C140 C136 1.328 . S
C140 C141 1.433 . S
C140 H154 0.944 . S
C141 C137 1.323 . S
C141 C140 1.433 . S
C141 H155 0.933 . S
C142 Dy120 2.738 . S
C142 O125 1.255 . S
C142 O126 1.249 . S
C142 C136 1.516 1_556 S
C143 O127 1.254 . S
C143 O128 1.257 . S
C144 O129 1.266 . S
C144 O130 1.236 . S
C145 C148 1.344 . S
C145 C149 1.328 . S
C145 C151 1.516 . S
C146 C147 1.304 . S
C146 C150 1.323 . S
C147 C146 1.304 . S
C147 C148 1.371 . S
C147 H156 0.930 . S
C148 C145 1.344 . S
C148 C147 1.371 . S
C148 H157 0.931 . S
C149 C145 1.328 . S
C149 C150 1.433 . S
C149 H158 0.931 . S
C150 C146 1.323 . S
C150 C149 1.433 . S
C150 H159 0.933 . S
C151 Dy121 2.738 . S
C151 O131 1.255 . S
C151 O132 1.249 . S
C151 C145 1.516 . S
H152 C138 0.930 . S
H153 C139 0.931 . S
H154 C140 0.944 . S
H155 C141 0.933 . S
H156 C147 0.930 . S
H157 C148 0.931 . S
H158 C149 0.931 . S
H159 C150 0.933 . S
Dy160 O163 2.307 . S
Dy160 O165 2.395 . S
Dy160 O166 2.379 . S
Dy160 O168 2.339 . S
Dy160 O170 2.298 1_655 S
Dy160 O174 2.275 1_655 S
Dy160 C182 2.738 . S
Dy161 O164 2.298 . S
Dy161 O167 2.275 . S
Dy161 O169 2.307 . S
Dy161 O171 2.395 . S
Dy161 O172 2.379 . S
Dy161 O175 2.339 . S
Dy161 C191 2.738 . S
C162 O174 1.254 . S
C162 O175 1.257 . S
O163 Dy160 2.307 . S
O163 C173 1.266 . S
O164 Dy161 2.298 . S
O164 C173 1.236 1_455 S
O165 Dy160 2.395 . S
O165 C182 1.255 . S
O166 Dy160 2.379 . S
O166 C182 1.249 . S
O167 Dy161 2.275 . S
O167 C183 1.254 . S
O168 Dy160 2.339 . S
O168 C183 1.257 1_655 S
O169 Dy161 2.307 . S
O169 C184 1.266 . S
O170 Dy160 2.298 1_455 S
O170 C184 1.236 . S
O171 Dy161 2.395 . S
O171 C191 1.255 . S
O172 Dy161 2.379 . S
O172 C191 1.249 . S
C173 O163 1.266 . S
C173 O164 1.236 1_655 S
O174 Dy160 2.275 1_455 S
O174 C162 1.254 . S
O175 Dy161 2.339 . S
O175 C162 1.257 . S
C176 C179 1.344 . S
C176 C180 1.328 . S
C176 C182 1.516 . S
C177 C178 1.304 . S
C177 C181 1.323 . S
C178 C177 1.304 . S
C178 C179 1.371 . S
C178 H192 0.930 . S
C179 C176 1.344 . S
C179 C178 1.371 . S
C179 H193 0.931 . S
C180 C176 1.328 . S
C180 C181 1.433 . S
C180 H194 0.931 . S
C181 C177 1.323 . S
C181 C180 1.433 . S
C181 H195 0.933 . S
C182 Dy160 2.738 . S
C182 O165 1.255 . S
C182 O166 1.249 . S
C182 C176 1.516 . S
C183 O167 1.254 . S
C183 O168 1.257 1_455 S
C184 O169 1.266 . S
C184 O170 1.236 . S
C185 C188 1.344 . S
C185 C189 1.328 . S
C185 C191 1.516 1_554 S
C186 C187 1.304 . S
C186 C190 1.323 . S
C187 C186 1.304 . S
C187 C188 1.371 . S
C187 H196 0.930 . S
C188 C185 1.344 . S
C188 C187 1.371 . S
C188 H197 0.931 . S
C189 C185 1.328 . S
C189 C190 1.433 . S
C189 H198 0.931 . S
C190 C186 1.323 . S
C190 C189 1.433 . S
C190 H199 0.933 . S
C191 Dy161 2.738 . S
C191 O171 1.255 . S
C191 O172 1.249 . S
C191 C185 1.516 1_556 S
H192 C178 0.930 . S
H193 C179 0.931 . S
H194 C180 0.931 . S
H195 C181 0.933 . S
H196 C187 0.930 . S
H197 C188 0.931 . S
H198 C189 0.931 . S
H199 C190 0.933 . S
Dy200 O203 2.307 . S
Dy200 O205 2.395 . S
Dy200 O206 2.379 . S
Dy200 O208 2.339 . S
Dy200 O210 2.298 . S
Dy200 O214 2.275 . S
Dy200 C222 2.738 . S
Dy201 O204 2.298 . S
Dy201 O207 2.275 . S
Dy201 O209 2.307 . S
Dy201 O211 2.395 . S
Dy201 O212 2.379 . S
Dy201 O215 2.339 . S
Dy201 C231 2.738 . S
C202 O214 1.254 . S
C202 O215 1.257 . S
O203 Dy200 2.307 . S
O203 C213 1.266 . S
O204 Dy201 2.298 . S
O204 C213 1.236 . S
O205 Dy200 2.395 . S
O205 C222 1.255 . S
O206 Dy200 2.379 . S
O206 C222 1.249 . S
O207 Dy201 2.275 . S
O207 C223 1.254 . S
O208 Dy200 2.339 . S
O208 C223 1.257 . S
O209 Dy201 2.307 . S
O209 C224 1.266 . S
O210 Dy200 2.298 . S
O210 C224 1.236 . S
O211 Dy201 2.395 . S
O211 C231 1.255 . S
O212 Dy201 2.379 . S
O212 C231 1.249 . S
C213 O203 1.266 . S
C213 O204 1.236 . S
O214 Dy200 2.275 . S
O214 C202 1.254 . S
O215 Dy201 2.339 . S
O215 C202 1.257 . S
C216 C219 1.344 . S
C216 C220 1.328 . S
C216 C222 1.516 1_556 S
C217 C218 1.304 . S
C217 C221 1.323 . S
C218 C217 1.304 . S
C218 C219 1.371 . S
C218 H232 0.930 . S
C219 C216 1.344 . S
C219 C218 1.371 . S
C219 H233 0.931 . S
C220 C216 1.328 . S
C220 C221 1.433 . S
C220 H234 0.944 . S
C221 C217 1.323 . S
C221 C220 1.433 . S
C221 H235 0.933 . S
C222 Dy200 2.738 . S
C222 O205 1.255 . S
C222 O206 1.249 . S
C222 C216 1.516 1_554 S
C223 O207 1.254 . S
C223 O208 1.257 . S
C224 O209 1.266 . S
C224 O210 1.236 . S
C225 C228 1.344 . S
C225 C229 1.328 . S
C225 C231 1.516 . S
C226 C227 1.304 . S
C226 C230 1.323 . S
C227 C226 1.304 . S
C227 C228 1.371 . S
C227 H236 0.930 . S
C228 C225 1.344 . S
C228 C227 1.371 . S
C228 H237 0.931 . S
C229 C225 1.328 . S
C229 C230 1.433 . S
C229 H238 0.931 . S
C230 C226 1.323 . S
C230 C229 1.433 . S
C230 H239 0.933 . S
C231 Dy201 2.738 . S
C231 O211 1.255 . S
C231 O212 1.249 . S
C231 C225 1.516 . S
H232 C218 0.930 . S
H233 C219 0.931 . S
H234 C220 0.944 . S
H235 C221 0.933 . S
H236 C227 0.930 . S
H237 C228 0.931 . S
H238 C229 0.931 . S
H239 C230 0.933 . S
Dy240 O243 2.307 . S
Dy240 O245 2.395 . S
Dy240 O246 2.379 . S
Dy240 O248 2.339 . S
Dy240 O250 2.298 . S
Dy240 O254 2.275 . S
Dy240 C262 2.738 . S
Dy241 O244 2.298 . S
Dy241 O247 2.275 . S
Dy241 O249 2.307 . S
Dy241 O251 2.395 . S
Dy241 O252 2.379 . S
Dy241 O255 2.339 . S
Dy241 C271 2.738 . S
C242 O254 1.254 . S
C242 O255 1.257 . S
O243 Dy240 2.307 . S
O243 C253 1.266 . S
O244 Dy241 2.298 . S
O244 C253 1.236 . S
O245 Dy240 2.395 . S
O245 C262 1.255 . S
O246 Dy240 2.379 . S
O246 C262 1.249 . S
O247 Dy241 2.275 . S
O247 C263 1.254 . S
O248 Dy240 2.339 . S
O248 C263 1.257 . S
O249 Dy241 2.307 . S
O249 C264 1.266 . S
O250 Dy240 2.298 . S
O250 C264 1.236 . S
O251 Dy241 2.395 . S
O251 C271 1.255 . S
O252 Dy241 2.379 . S
O252 C271 1.249 . S
C253 O243 1.266 . S
C253 O244 1.236 . S
O254 Dy240 2.275 . S
O254 C242 1.254 . S
O255 Dy241 2.339 . S
O255 C242 1.257 . S
C256 C259 1.344 . S
C256 C260 1.328 . S
C256 C262 1.516 . S
C257 C258 1.304 . S
C257 C261 1.323 . S
C258 C257 1.304 . S
C258 C259 1.371 . S
C258 H272 0.930 . S
C259 C256 1.344 . S
C259 C258 1.371 . S
C259 H273 0.931 . S
C260 C256 1.328 . S
C260 C261 1.433 . S
C260 H274 0.931 . S
C261 C257 1.323 . S
C261 C260 1.433 . S
C261 H275 0.933 . S
C262 Dy240 2.738 . S
C262 O245 1.255 . S
C262 O246 1.249 . S
C262 C256 1.516 . S
C263 O247 1.254 . S
C263 O248 1.257 . S
C264 O249 1.266 . S
C264 O250 1.236 . S
C265 C268 1.344 . S
C265 C269 1.328 . S
C265 C271 1.516 . S
C266 C267 1.304 . S
C266 C270 1.323 . S
C267 C266 1.304 . S
C267 C268 1.371 . S
C267 H276 0.930 . S
C268 C265 1.344 . S
C268 C267 1.371 . S
C268 H277 0.931 . S
C269 C265 1.328 . S
C269 C270 1.433 . S
C269 H278 0.931 . S
C270 C266 1.323 . S
C270 C269 1.433 . S
C270 H279 0.933 . S
C271 Dy241 2.738 . S
C271 O251 1.255 . S
C271 O252 1.249 . S
C271 C265 1.516 . S
H272 C258 0.930 . S
H273 C259 0.931 . S
H274 C260 0.931 . S
H275 C261 0.933 . S
H276 C267 0.930 . S
H277 C268 0.931 . S
H278 C269 0.931 . S
H279 C270 0.933 . S
Dy280 O283 2.307 . S
Dy280 O285 2.395 . S
Dy280 O286 2.379 . S
Dy280 O288 2.339 . S
Dy280 O290 2.298 . S
Dy280 O294 2.275 . S
Dy280 C302 2.738 . S
Dy281 O284 2.298 . S
Dy281 O287 2.275 . S
Dy281 O289 2.307 . S
Dy281 O291 2.395 . S
Dy281 O292 2.379 . S
Dy281 O295 2.339 . S
Dy281 C311 2.738 . S
C282 O294 1.254 . S
C282 O295 1.257 . S
O283 Dy280 2.307 . S
O283 C293 1.266 . S
O284 Dy281 2.298 . S
O284 C293 1.236 . S
O285 Dy280 2.395 . S
O285 C302 1.255 . S
O286 Dy280 2.379 . S
O286 C302 1.249 . S
O287 Dy281 2.275 . S
O287 C303 1.254 . S
O288 Dy280 2.339 . S
O288 C303 1.257 . S
O289 Dy281 2.307 . S
O289 C304 1.266 . S
O290 Dy280 2.298 . S
O290 C304 1.236 . S
O291 Dy281 2.395 . S
O291 C311 1.255 . S
O292 Dy281 2.379 . S
O292 C311 1.249 . S
C293 O283 1.266 . S
C293 O284 1.236 . S
O294 Dy280 2.275 . S
O294 C282 1.254 . S
O295 Dy281 2.339 . S
O295 C282 1.257 . S
C296 C299 1.344 . S
C296 C300 1.328 . S
C296 C302 1.516 . S
C297 C298 1.304 . S
C297 C301 1.323 . S
C298 C297 1.304 . S
C298 C299 1.371 . S
C298 H312 0.930 . S
C299 C296 1.344 . S
C299 C298 1.371 . S
C299 H313 0.931 . S
C300 C296 1.328 . S
C300 C301 1.433 . S
C300 H314 0.931 . S
C301 C297 1.323 . S
C301 C300 1.433 . S
C301 H315 0.933 . S
C302 Dy280 2.738 . S
C302 O285 1.255 . S
C302 O286 1.249 . S
C302 C296 1.516 . S
C303 O287 1.254 . S
C303 O288 1.257 . S
C304 O289 1.266 . S
C304 O290 1.236 . S
C305 C308 1.344 . S
C305 C309 1.328 . S
C305 C311 1.516 . S
C306 C307 1.304 . S
C306 C310 1.323 . S
C307 C306 1.304 . S
C307 C308 1.371 . S
C307 H316 0.930 . S
C308 C305 1.344 . S
C308 C307 1.371 . S
C308 H317 0.931 . S
C309 C305 1.328 . S
C309 C310 1.433 . S
C309 H318 0.931 . S
C310 C306 1.323 . S
C310 C309 1.433 . S
C310 H319 0.933 . S
C311 Dy281 2.738 . S
C311 O291 1.255 . S
C311 O292 1.249 . S
C311 C305 1.516 . S
H312 C298 0.930 . S
H313 C299 0.931 . S
H314 C300 0.931 . S
H315 C301 0.933 . S
H316 C307 0.930 . S
H317 C308 0.931 . S
H318 C309 0.931 . S
H319 C310 0.933 . S
Dy320 O323 2.307 . S
Dy320 O325 2.395 . S
Dy320 O326 2.379 . S
Dy320 O328 2.339 . S
Dy320 O330 2.298 . S
Dy320 O334 2.275 . S
Dy320 C342 2.738 . S
Dy321 O324 2.298 . S
Dy321 O327 2.275 . S
Dy321 O329 2.307 . S
Dy321 O331 2.395 . S
Dy321 O332 2.379 . S
Dy321 O335 2.339 . S
Dy321 C351 2.738 . S
C322 O334 1.254 . S
C322 O335 1.257 . S
O323 Dy320 2.307 . S
O323 C333 1.266 . S
O324 Dy321 2.298 . S
O324 C333 1.236 . S
O325 Dy320 2.395 . S
O325 C342 1.255 . S
O326 Dy320 2.379 . S
O326 C342 1.249 . S
O327 Dy321 2.275 . S
O327 C343 1.254 . S
O328 Dy320 2.339 . S
O328 C343 1.257 . S
O329 Dy321 2.307 . S
O329 C344 1.266 . S
O330 Dy320 2.298 . S
O330 C344 1.236 . S
O331 Dy321 2.395 . S
O331 C351 1.255 . S
O332 Dy321 2.379 . S
O332 C351 1.249 . S
C333 O323 1.266 . S
C333 O324 1.236 . S
O334 Dy320 2.275 . S
O334 C322 1.254 . S
O335 Dy321 2.339 . S
O335 C322 1.257 . S
C336 C339 1.344 . S
C336 C340 1.328 . S
C336 C342 1.516 . S
C337 C338 1.304 . S
C337 C341 1.323 . S
C338 C337 1.304 . S
C338 C339 1.371 . S
C338 H352 0.930 . S
C339 C336 1.344 . S
C339 C338 1.371 . S
C339 H353 0.931 . S
C340 C336 1.328 . S
C340 C341 1.433 . S
C340 H354 0.931 . S
C341 C337 1.323 . S
C341 C340 1.433 . S
C341 H355 0.933 . S
C342 Dy320 2.738 . S
C342 O325 1.255 . S
C342 O326 1.249 . S
C342 C336 1.516 . S
C343 O327 1.254 . S
C343 O328 1.257 . S
C344 O329 1.266 . S
C344 O330 1.236 . S
C345 C348 1.344 . S
C345 C349 1.328 . S
C345 C351 1.516 . S
C346 C347 1.304 . S
C346 C350 1.323 . S
C347 C346 1.304 . S
C347 C348 1.371 . S
C347 H356 0.930 . S
C348 C345 1.344 . S
C348 C347 1.371 . S
C348 H357 0.931 . S
C349 C345 1.328 . S
C349 C350 1.433 . S
C349 H358 0.931 . S
C350 C346 1.323 . S
C350 C349 1.433 . S
C350 H359 0.933 . S
C351 Dy321 2.738 . S
C351 O331 1.255 . S
C351 O332 1.249 . S
C351 C345 1.516 . S
H352 C338 0.930 . S
H353 C339 0.931 . S
H354 C340 0.931 . S
H355 C341 0.933 . S
H356 C347 0.930 . S
H357 C348 0.931 . S
H358 C349 0.931 . S
H359 C350 0.933 . S
Dy360 O363 2.307 . S
Dy360 O365 2.395 . S
Dy360 O366 2.379 . S
Dy360 O368 2.339 . S
Dy360 O370 2.298 . S
Dy360 O374 2.275 . S
Dy360 C382 2.738 . S
Dy361 O364 2.298 . S
Dy361 O367 2.275 . S
Dy361 O369 2.307 . S
Dy361 O371 2.395 . S
Dy361 O372 2.379 . S
Dy361 O375 2.339 . S
Dy361 C391 2.738 . S
C362 O374 1.254 . S
C362 O375 1.257 . S
O363 Dy360 2.307 . S
O363 C373 1.266 . S
O364 Dy361 2.298 . S
O364 C373 1.236 . S
O365 Dy360 2.395 . S
O365 C382 1.255 . S
O366 Dy360 2.379 . S
O366 C382 1.249 . S
O367 Dy361 2.275 . S
O367 C383 1.254 . S
O368 Dy360 2.339 . S
O368 C383 1.257 . S
O369 Dy361 2.307 . S
O369 C384 1.266 . S
O370 Dy360 2.298 . S
O370 C384 1.236 . S
O371 Dy361 2.395 . S
O371 C391 1.255 . S
O372 Dy361 2.379 . S
O372 C391 1.249 . S
C373 O363 1.266 . S
C373 O364 1.236 . S
O374 Dy360 2.275 . S
O374 C362 1.254 . S
O375 Dy361 2.339 . S
O375 C362 1.257 . S
C376 C379 1.344 . S
C376 C380 1.328 . S
C376 C382 1.516 1_556 S
C377 C378 1.304 . S
C377 C381 1.323 . S
C378 C377 1.304 . S
C378 C379 1.371 . S
C378 H392 0.930 . S
C379 C376 1.344 . S
C379 C378 1.371 . S
C379 H393 0.931 . S
C380 C376 1.328 . S
C380 C381 1.433 . S
C380 H394 0.944 . S
C381 C377 1.323 . S
C381 C380 1.433 . S
C381 H395 0.933 . S
C382 Dy360 2.738 . S
C382 O365 1.255 . S
C382 O366 1.249 . S
C382 C376 1.516 1_554 S
C383 O367 1.254 . S
C383 O368 1.257 . S
C384 O369 1.266 . S
C384 O370 1.236 . S
C385 C388 1.344 . S
C385 C389 1.328 . S
C385 C391 1.516 . S
C386 C387 1.304 . S
C386 C390 1.323 . S
C387 C386 1.304 . S
C387 C388 1.371 . S
C387 H396 0.930 . S
C388 C385 1.344 . S
C388 C387 1.371 . S
C388 H397 0.931 . S
C389 C385 1.328 . S
C389 C390 1.433 . S
C389 H398 0.931 . S
C390 C386 1.323 . S
C390 C389 1.433 . S
C390 H399 0.933 . S
C391 Dy361 2.738 . S
C391 O371 1.255 . S
C391 O372 1.249 . S
C391 C385 1.516 . S
H392 C378 0.930 . S
H393 C379 0.931 . S
H394 C380 0.944 . S
H395 C381 0.933 . S
H396 C387 0.930 . S
H397 C388 0.931 . S
H398 C389 0.931 . S
H399 C390 0.933 . S
Dy400 O403 2.307 . S
Dy400 O405 2.395 . S
Dy400 O406 2.379 . S
Dy400 O408 2.339 . S
Dy400 O410 2.298 . S
Dy400 O414 2.275 . S
Dy400 C422 2.738 . S
Dy401 O404 2.298 . S
Dy401 O407 2.275 . S
Dy401 O409 2.307 . S
Dy401 O411 2.395 . S
Dy401 O412 2.379 . S
Dy401 O415 2.339 . S
Dy401 C431 2.738 . S
C402 O414 1.254 . S
C402 O415 1.257 . S
O403 Dy400 2.307 . S
O403 C413 1.266 . S
O404 Dy401 2.298 . S
O404 C413 1.236 . S
O405 Dy400 2.395 . S
O405 C422 1.255 . S
O406 Dy400 2.379 . S
O406 C422 1.249 . S
O407 Dy401 2.275 . S
O407 C423 1.254 . S
O408 Dy400 2.339 . S
O408 C423 1.257 . S
O409 Dy401 2.307 . S
O409 C424 1.266 . S
O410 Dy400 2.298 . S
O410 C424 1.236 . S
O411 Dy401 2.395 . S
O411 C431 1.255 . S
O412 Dy401 2.379 . S
O412 C431 1.249 . S
C413 O403 1.266 . S
C413 O404 1.236 . S
O414 Dy400 2.275 . S
O414 C402 1.254 . S
O415 Dy401 2.339 . S
O415 C402 1.257 . S
C416 C419 1.344 . S
C416 C420 1.328 . S
C416 C422 1.516 1_554 S
C417 C418 1.304 . S
C417 C421 1.323 . S
C418 C417 1.304 . S
C418 C419 1.371 . S
C418 H432 0.930 . S
C419 C416 1.344 . S
C419 C418 1.371 . S
C419 H433 0.931 . S
C420 C416 1.328 . S
C420 C421 1.433 . S
C420 H434 0.944 . S
C421 C417 1.323 . S
C421 C420 1.433 . S
C421 H435 0.933 . S
C422 Dy400 2.738 . S
C422 O405 1.255 . S
C422 O406 1.249 . S
C422 C416 1.516 1_556 S
C423 O407 1.254 . S
C423 O408 1.257 . S
C424 O409 1.266 . S
C424 O410 1.236 . S
C425 C428 1.344 . S
C425 C429 1.328 . S
C425 C431 1.516 . S
C426 C427 1.304 . S
C426 C430 1.323 . S
C427 C426 1.304 . S
C427 C428 1.371 . S
C427 H436 0.930 . S
C428 C425 1.344 . S
C428 C427 1.371 . S
C428 H437 0.931 . S
C429 C425 1.328 . S
C429 C430 1.433 . S
C429 H438 0.931 . S
C430 C426 1.323 . S
C430 C429 1.433 . S
C430 H439 0.933 . S
C431 Dy401 2.738 . S
C431 O411 1.255 . S
C431 O412 1.249 . S
C431 C425 1.516 . S
H432 C418 0.930 . S
H433 C419 0.931 . S
H434 C420 0.944 . S
H435 C421 0.933 . S
H436 C427 0.930 . S
H437 C428 0.931 . S
H438 C429 0.931 . S
H439 C430 0.933 . S
Dy440 O443 2.307 . S
Dy440 O445 2.395 . S
Dy440 O446 2.379 . S
Dy440 O448 2.339 . S
Dy440 O450 2.298 . S
Dy440 O454 2.275 . S
Dy440 C462 2.738 . S
Dy441 O444 2.298 . S
Dy441 O447 2.275 . S
Dy441 O449 2.307 . S
Dy441 O451 2.395 . S
Dy441 O452 2.379 . S
Dy441 O455 2.339 . S
Dy441 C471 2.738 . S
C442 O454 1.254 . S
C442 O455 1.257 . S
O443 Dy440 2.307 . S
O443 C453 1.266 . S
O444 Dy441 2.298 . S
O444 C453 1.236 . S
O445 Dy440 2.395 . S
O445 C462 1.255 . S
O446 Dy440 2.379 . S
O446 C462 1.249 . S
O447 Dy441 2.275 . S
O447 C463 1.254 . S
O448 Dy440 2.339 . S
O448 C463 1.257 . S
O449 Dy441 2.307 . S
O449 C464 1.266 . S
O450 Dy440 2.298 . S
O450 C464 1.236 . S
O451 Dy441 2.395 . S
O451 C471 1.255 . S
O452 Dy441 2.379 . S
O452 C471 1.249 . S
C453 O443 1.266 . S
C453 O444 1.236 . S
O454 Dy440 2.275 . S
O454 C442 1.254 . S
O455 Dy441 2.339 . S
O455 C442 1.257 . S
C456 C459 1.344 . S
C456 C460 1.328 . S
C456 C462 1.516 . S
C457 C458 1.304 . S
C457 C461 1.323 . S
C458 C457 1.304 . S
C458 C459 1.371 . S
C458 H472 0.930 . S
C459 C456 1.344 . S
C459 C458 1.371 . S
C459 H473 0.931 . S
C460 C456 1.328 . S
C460 C461 1.433 . S
C460 H474 0.931 . S
C461 C457 1.323 . S
C461 C460 1.433 . S
C461 H475 0.933 . S
C462 Dy440 2.738 . S
C462 O445 1.255 . S
C462 O446 1.249 . S
C462 C456 1.516 . S
C463 O447 1.254 . S
C463 O448 1.257 . S
C464 O449 1.266 . S
C464 O450 1.236 . S
C465 C468 1.344 . S
C465 C469 1.328 . S
C465 C471 1.516 . S
C466 C467 1.304 . S
C466 C470 1.323 . S
C467 C466 1.304 . S
C467 C468 1.371 . S
C467 H476 0.930 . S
C468 C465 1.344 . S
C468 C467 1.371 . S
C468 H477 0.931 . S
C469 C465 1.328 . S
C469 C470 1.433 . S
C469 H478 0.931 . S
C470 C466 1.323 . S
C470 C469 1.433 . S
C470 H479 0.933 . S
C471 Dy441 2.738 . S
C471 O451 1.255 . S
C471 O452 1.249 . S
C471 C465 1.516 . S
H472 C458 0.930 . S
H473 C459 0.931 . S
H474 C460 0.931 . S
H475 C461 0.933 . S
H476 C467 0.930 . S
H477 C468 0.931 . S
H478 C469 0.931 . S
H479 C470 0.933 . S
Dy480 O483 2.307 . S
Dy480 O485 2.395 . S
Dy480 O486 2.379 . S
Dy480 O488 2.339 . S
Dy480 O490 2.298 . S
Dy480 O494 2.275 . S
Dy480 C502 2.738 . S
Dy481 O484 2.298 . S
Dy481 O487 2.275 . S
Dy481 O489 2.307 . S
Dy481 O491 2.395 . S
Dy481 O492 2.379 . S
Dy481 O495 2.339 . S
Dy481 C511 2.738 . S
C482 O494 1.254 . S
C482 O495 1.257 . S
O483 Dy480 2.307 . S
O483 C493 1.266 . S
O484 Dy481 2.298 . S
O484 C493 1.236 . S
O485 Dy480 2.395 . S
O485 C502 1.255 . S
O486 Dy480 2.379 . S
O486 C502 1.249 . S
O487 Dy481 2.275 . S
O487 C503 1.254 . S
O488 Dy480 2.339 . S
O488 C503 1.257 . S
O489 Dy481 2.307 . S
O489 C504 1.266 . S
O490 Dy480 2.298 . S
O490 C504 1.236 . S
O491 Dy481 2.395 . S
O491 C511 1.255 . S
O492 Dy481 2.379 . S
O492 C511 1.249 . S
C493 O483 1.266 . S
C493 O484 1.236 . S
O494 Dy480 2.275 . S
O494 C482 1.254 . S
O495 Dy481 2.339 . S
O495 C482 1.257 . S
C496 C499 1.344 . S
C496 C500 1.328 . S
C496 C502 1.516 . S
C497 C498 1.304 . S
C497 C501 1.323 . S
C498 C497 1.304 . S
C498 C499 1.371 . S
C498 H512 0.930 . S
C499 C496 1.344 . S
C499 C498 1.371 . S
C499 H513 0.931 . S
C500 C496 1.328 . S
C500 C501 1.433 . S
C500 H514 0.931 . S
C501 C497 1.323 . S
C501 C500 1.433 . S
C501 H515 0.933 . S
C502 Dy480 2.738 . S
C502 O485 1.255 . S
C502 O486 1.249 . S
C502 C496 1.516 . S
C503 O487 1.254 . S
C503 O488 1.257 . S
C504 O489 1.266 . S
C504 O490 1.236 . S
C505 C508 1.344 . S
C505 C509 1.328 . S
C505 C511 1.516 . S
C506 C507 1.304 . S
C506 C510 1.323 . S
C507 C506 1.304 . S
C507 C508 1.371 . S
C507 H516 0.930 . S
C508 C505 1.344 . S
C508 C507 1.371 . S
C508 H517 0.931 . S
C509 C505 1.328 . S
C509 C510 1.433 . S
C509 H518 0.931 . S
C510 C506 1.323 . S
C510 C509 1.433 . S
C510 H519 0.933 . S
C511 Dy481 2.738 . S
C511 O491 1.255 . S
C511 O492 1.249 . S
C511 C505 1.516 . S
H512 C498 0.930 . S
H513 C499 0.931 . S
H514 C500 0.931 . S
H515 C501 0.933 . S
H516 C507 0.930 . S
H517 C508 0.931 . S
H518 C509 0.931 . S
H519 C510 0.933 . S
Dy520 O523 2.307 . S
Dy520 O525 2.395 . S
Dy520 O526 2.379 . S
Dy520 O528 2.339 . S
Dy520 O530 2.286 1_455 S
Dy520 O534 2.275 . S
Dy520 C542 2.738 . S
Dy521 O524 2.298 1_655 S
Dy521 O527 2.275 . S
Dy521 O529 2.307 . S
Dy521 O531 2.395 . S
Dy521 O532 2.379 . S
Dy521 O535 2.339 . S
Dy521 C551 2.738 . S
C522 O534 1.263 . S
C522 O535 1.243 1_455 S
O523 Dy520 2.307 . S
O523 C533 1.266 . S
O524 Dy521 2.298 1_455 S
O524 C533 1.236 . S
O525 Dy520 2.395 . S
O525 C542 1.255 . S
O526 Dy520 2.379 . S
O526 C542 1.249 . S
O527 Dy521 2.275 . S
O527 C543 1.254 1_655 S
O528 Dy520 2.339 . S
O528 C543 1.257 . S
O529 Dy521 2.307 . S
O529 C544 1.266 . S
O530 Dy520 2.286 1_655 S
O530 C544 1.249 . S
O531 Dy521 2.395 . S
O531 C551 1.255 . S
O532 Dy521 2.379 . S
O532 C551 1.249 . S
C533 O523 1.266 . S
C533 O524 1.236 . S
O534 Dy520 2.275 . S
O534 C522 1.263 . S
O535 Dy521 2.339 . S
O535 C522 1.243 1_655 S
C536 C539 1.344 . S
C536 C540 1.328 . S
C536 C542 1.516 . S
C537 C538 1.304 . S
C537 C541 1.323 . S
C538 C537 1.304 . S
C538 C539 1.371 . S
C538 H552 0.930 . S
C539 C536 1.344 . S
C539 C538 1.371 . S
C539 H553 0.931 . S
C540 C536 1.328 . S
C540 C541 1.433 . S
C540 H554 0.931 . S
C541 C537 1.323 . S
C541 C540 1.433 . S
C541 H555 0.933 . S
C542 Dy520 2.738 . S
C542 O525 1.255 . S
C542 O526 1.249 . S
C542 C536 1.516 . S
C543 O527 1.254 1_455 S
C543 O528 1.257 . S
C544 O529 1.266 . S
C544 O530 1.249 . S
C545 C548 1.344 . S
C545 C549 1.328 . S
C545 C551 1.516 1_556 S
C546 C547 1.304 . S
C546 C550 1.323 . S
C547 C546 1.304 . S
C547 C548 1.371 . S
C547 H556 0.930 . S
C548 C545 1.344 . S
C548 C547 1.371 . S
C548 H557 0.931 . S
C549 C545 1.328 . S
C549 C550 1.433 . S
C549 H558 0.931 . S
C550 C546 1.323 . S
C550 C549 1.433 . S
C550 H559 0.933 . S
C551 Dy521 2.738 . S
C551 O531 1.255 . S
C551 O532 1.249 . S
C551 C545 1.516 1_554 S
H552 C538 0.930 . S
H553 C539 0.931 . S
H554 C540 0.931 . S
H555 C541 0.933 . S
H556 C547 0.930 . S
H557 C548 0.931 . S
H558 C549 0.931 . S
H559 C550 0.933 . S
Dy560 O563 2.307 . S
Dy560 O565 2.395 . S
Dy560 O566 2.379 . S
Dy560 O568 2.339 . S
Dy560 O570 2.298 . S
Dy560 O574 2.275 . S
Dy560 C582 2.738 . S
Dy561 O564 2.298 . S
Dy561 O567 2.275 . S
Dy561 O569 2.307 . S
Dy561 O571 2.395 . S
Dy561 O572 2.379 . S
Dy561 O575 2.339 . S
Dy561 C591 2.738 . S
C562 O574 1.254 . S
C562 O575 1.257 . S
O563 Dy560 2.307 . S
O563 C573 1.266 . S
O564 Dy561 2.298 . S
O564 C573 1.236 . S
O565 Dy560 2.395 . S
O565 C582 1.255 . S
O566 Dy560 2.379 . S
O566 C582 1.249 . S
O567 Dy561 2.275 . S
O567 C583 1.254 . S
O568 Dy560 2.339 . S
O568 C583 1.257 . S
O569 Dy561 2.307 . S
O569 C584 1.266 . S
O570 Dy560 2.298 . S
O570 C584 1.236 . S
O571 Dy561 2.395 . S
O571 C591 1.255 . S
O572 Dy561 2.379 . S
O572 C591 1.249 . S
C573 O563 1.266 . S
C573 O564 1.236 . S
O574 Dy560 2.275 . S
O574 C562 1.254 . S
O575 Dy561 2.339 . S
O575 C562 1.257 . S
C576 C579 1.344 . S
C576 C580 1.328 . S
C576 C582 1.516 . S
C577 C578 1.304 . S
C577 C581 1.323 . S
C578 C577 1.304 . S
C578 C579 1.371 . S
C578 H592 0.930 . S
C579 C576 1.344 . S
C579 C578 1.371 . S
C579 H593 0.931 . S
C580 C576 1.328 . S
C580 C581 1.433 . S
C580 H594 0.931 . S
C581 C577 1.323 . S
C581 C580 1.433 . S
C581 H595 0.933 . S
C582 Dy560 2.738 . S
C582 O565 1.255 . S
C582 O566 1.249 . S
C582 C576 1.516 . S
C583 O567 1.254 . S
C583 O568 1.257 . S
C584 O569 1.266 . S
C584 O570 1.236 . S
C585 C588 1.344 . S
C585 C589 1.328 . S
C585 C591 1.516 . S
C586 C587 1.304 . S
C586 C590 1.323 . S
C587 C586 1.304 . S
C587 C588 1.371 . S
C587 H596 0.930 . S
C588 C585 1.344 . S
C588 C587 1.371 . S
C588 H597 0.931 . S
C589 C585 1.328 . S
C589 C590 1.433 . S
C589 H598 0.931 . S
C590 C586 1.323 . S
C590 C589 1.433 . S
C590 H599 0.933 . S
C591 Dy561 2.738 . S
C591 O571 1.255 . S
C591 O572 1.249 . S
C591 C585 1.516 . S
H592 C578 0.930 . S
H593 C579 0.931 . S
H594 C580 0.931 . S
H595 C581 0.933 . S
H596 C587 0.930 . S
H597 C588 0.931 . S
H598 C589 0.931 . S
H599 C590 0.933 . S
Dy600 O603 2.307 . S
Dy600 O605 2.395 . S
Dy600 O606 2.379 . S
Dy600 O608 2.339 . S
Dy600 O610 2.286 1_455 S
Dy600 O614 2.275 . S
Dy600 C622 2.738 . S
Dy601 O604 2.298 1_655 S
Dy601 O607 2.275 . S
Dy601 O609 2.307 . S
Dy601 O611 2.395 . S
Dy601 O612 2.379 . S
Dy601 O615 2.339 . S
Dy601 C631 2.738 . S
C602 O614 1.263 . S
C602 O615 1.243 1_455 S
O603 Dy600 2.307 . S
O603 C613 1.266 . S
O604 Dy601 2.298 1_455 S
O604 C613 1.236 . S
O605 Dy600 2.395 . S
O605 C622 1.255 . S
O606 Dy600 2.379 . S
O606 C622 1.249 . S
O607 Dy601 2.275 . S
O607 C623 1.254 1_655 S
O608 Dy600 2.339 . S
O608 C623 1.257 . S
O609 Dy601 2.307 . S
O609 C624 1.266 . S
O610 Dy600 2.286 1_655 S
O610 C624 1.249 . S
O611 Dy601 2.395 . S
O611 C631 1.255 . S
O612 Dy601 2.379 . S
O612 C631 1.249 . S
C613 O603 1.266 . S
C613 O604 1.236 . S
O614 Dy600 2.275 . S
O614 C602 1.263 . S
O615 Dy601 2.339 . S
O615 C602 1.243 1_655 S
C616 C619 1.344 . S
C616 C620 1.328 . S
C616 C622 1.516 . S
C617 C618 1.304 . S
C617 C621 1.323 . S
C618 C617 1.304 . S
C618 C619 1.371 . S
C618 H632 0.930 . S
C619 C616 1.344 . S
C619 C618 1.371 . S
C619 H633 0.931 . S
C620 C616 1.328 . S
C620 C621 1.433 . S
C620 H634 0.931 . S
C621 C617 1.323 . S
C621 C620 1.433 . S
C621 H635 0.933 . S
C622 Dy600 2.738 . S
C622 O605 1.255 . S
C622 O606 1.249 . S
C622 C616 1.516 . S
C623 O607 1.254 1_455 S
C623 O608 1.257 . S
C624 O609 1.266 . S
C624 O610 1.249 . S
C625 C628 1.344 . S
C625 C629 1.328 . S
C625 C631 1.516 1_554 S
C626 C627 1.304 . S
C626 C630 1.323 . S
C627 C626 1.304 . S
C627 C628 1.371 . S
C627 H636 0.930 . S
C628 C625 1.344 . S
C628 C627 1.371 . S
C628 H637 0.931 . S
C629 C625 1.328 . S
C629 C630 1.433 . S
C629 H638 0.931 . S
C630 C626 1.323 . S
C630 C629 1.433 . S
C630 H639 0.933 . S
C631 Dy601 2.738 . S
C631 O611 1.255 . S
C631 O612 1.249 . S
C631 C625 1.516 1_556 S
H632 C618 0.930 . S
H633 C619 0.931 . S
H634 C620 0.931 . S
H635 C621 0.933 . S
H636 C627 0.930 . S
H637 C628 0.931 . S
H638 C629 0.931 . S
H639 C630 0.933 . S
H640 C648 0.950 . S
H641 C653 0.950 . S
H642 C650 0.950 . S
H643 C652 0.950 . S
H644 C654 0.950 . S
H645 C656 0.950 . S
H646 C658 0.950 . S
H647 C659 0.950 . S
C648 H640 0.950 . S
C648 C649 1.386 . S
C648 C650 1.391 . S
C649 C648 1.386 . S
C649 C653 1.393 . S
C650 H642 0.950 . S
C650 C648 1.391 . S
C650 C651 1.400 . S
C651 C650 1.400 . S
C651 C652 1.398 . S
C651 C657 1.491 . S
C652 H643 0.950 . S
C652 C651 1.398 . S
C652 C653 1.391 . S
C653 H641 0.950 . S
C653 C649 1.393 . S
C653 C652 1.391 . S
C654 H644 0.950 . S
C654 C655 1.386 . S
C654 C656 1.391 . S
C655 C654 1.386 . S
C655 C659 1.393 . S
C656 H645 0.950 . S
C656 C654 1.391 . S
C656 C657 1.400 . S
C657 C651 1.491 . S
C657 C656 1.400 . S
C657 C658 1.398 . S
C658 H646 0.950 . S
C658 C657 1.398 . S
C658 C659 1.391 . S
C659 H647 0.950 . S
C659 C655 1.393 . S
C659 C658 1.391 . S
H660 C668 0.950 . S
H661 C673 0.950 . S
H662 C670 0.950 . S
H663 C672 0.950 . S
H664 C674 0.950 . S
H665 C676 0.950 . S
H666 C678 0.950 . S
H667 C679 0.950 . S
C668 H660 0.950 . S
C668 C669 1.386 . S
C668 C670 1.391 . S
C669 C668 1.386 . S
C669 C673 1.393 . S
C670 H662 0.950 . S
C670 C668 1.391 . S
C670 C671 1.400 . S
C671 C670 1.400 . S
C671 C672 1.398 . S
C671 C677 1.491 . S
C672 H663 0.950 . S
C672 C671 1.398 . S
C672 C673 1.391 . S
C673 H661 0.950 . S
C673 C669 1.393 . S
C673 C672 1.391 . S
C674 H664 0.950 . S
C674 C675 1.386 . S
C674 C676 1.391 . S
C675 C674 1.386 . S
C675 C679 1.393 . S
C676 H665 0.950 . S
C676 C674 1.391 . S
C676 C677 1.400 . S
C677 C671 1.491 . S
C677 C676 1.400 . S
C677 C678 1.398 . S
C678 H666 0.950 . S
C678 C677 1.398 . S
C678 C679 1.391 . S
C679 H667 0.950 . S
C679 C675 1.393 . S
C679 C678 1.391 . S
H680 C688 0.950 . S
H681 C693 0.950 . S
H682 C690 0.950 . S
H683 C692 0.950 . S
H684 C694 0.950 . S
H685 C696 0.950 . S
H686 C698 0.950 . S
H687 C699 0.950 . S
C688 H680 0.950 . S
C688 C689 1.386 . S
C688 C690 1.391 . S
C689 C688 1.386 . S
C689 C693 1.393 . S
C690 H682 0.950 . S
C690 C688 1.391 . S
C690 C691 1.400 . S
C691 C690 1.400 . S
C691 C692 1.398 . S
C691 C697 1.491 . S
C692 H683 0.950 . S
C692 C691 1.398 . S
C692 C693 1.391 . S
C693 H681 0.950 . S
C693 C689 1.393 . S
C693 C692 1.391 . S
C694 H684 0.950 . S
C694 C695 1.386 . S
C694 C696 1.391 . S
C695 C694 1.386 . S
C695 C699 1.393 . S
C696 H685 0.950 . S
C696 C694 1.391 . S
C696 C697 1.400 . S
C697 C691 1.491 . S
C697 C696 1.400 . S
C697 C698 1.398 . S
C698 H686 0.950 . S
C698 C697 1.398 . S
C698 C699 1.391 . S
C699 H687 0.950 . S
C699 C695 1.393 . S
C699 C698 1.391 . S
H700 C708 0.950 . S
H701 C713 0.950 . S
H702 C710 0.950 . S
H703 C712 0.950 . S
H704 C714 0.950 . S
H705 C716 0.950 . S
H706 C718 0.950 . S
H707 C719 0.950 . S
C708 H700 0.950 . S
C708 C709 1.386 . S
C708 C710 1.391 . S
C709 C708 1.386 . S
C709 C713 1.393 . S
C710 H702 0.950 . S
C710 C708 1.391 . S
C710 C711 1.400 . S
C711 C710 1.400 . S
C711 C712 1.398 . S
C711 C717 1.491 . S
C712 H703 0.950 . S
C712 C711 1.398 . S
C712 C713 1.391 . S
C713 H701 0.950 . S
C713 C709 1.393 . S
C713 C712 1.391 . S
C714 H704 0.950 . S
C714 C715 1.386 . S
C714 C716 1.391 . S
C715 C714 1.386 . S
C715 C719 1.393 . S
C716 H705 0.950 . S
C716 C714 1.391 . S
C716 C717 1.400 . S
C717 C711 1.491 . S
C717 C716 1.400 . S
C717 C718 1.398 . S
C718 H706 0.950 . S
C718 C717 1.398 . S
C718 C719 1.391 . S
C719 H707 0.950 . S
C719 C715 1.393 . S
C719 C718 1.391 . S
H720 C728 0.950 . S
H721 C733 0.950 . S
H722 C730 0.950 . S
H723 C732 0.950 . S
H724 C734 0.950 . S
H725 C736 0.950 . S
H726 C738 0.950 . S
H727 C739 0.950 . S
C728 H720 0.950 . S
C728 C729 1.386 . S
C728 C730 1.391 . S
C729 C728 1.386 . S
C729 C733 1.393 . S
C730 H722 0.950 . S
C730 C728 1.391 . S
C730 C731 1.400 . S
C731 C730 1.400 . S
C731 C732 1.398 . S
C731 C737 1.491 . S
C732 H723 0.950 . S
C732 C731 1.398 . S
C732 C733 1.391 . S
C733 H721 0.950 . S
C733 C729 1.393 . S
C733 C732 1.391 . S
C734 H724 0.950 . S
C734 C735 1.386 . S
C734 C736 1.391 . S
C735 C734 1.386 . S
C735 C739 1.393 . S
C736 H725 0.950 . S
C736 C734 1.391 . S
C736 C737 1.400 . S
C737 C731 1.491 . S
C737 C736 1.400 . S
C737 C738 1.398 . S
C738 H726 0.950 . S
C738 C737 1.398 . S
C738 C739 1.391 . S
C739 H727 0.950 . S
C739 C735 1.393 . S
C739 C738 1.391 . S
H740 C748 0.950 . S
H741 C753 0.950 . S
H742 C750 0.950 . S
H743 C752 0.950 . S
H744 C754 0.950 . S
H745 C756 0.950 . S
H746 C758 0.950 . S
H747 C759 0.950 . S
C748 H740 0.950 . S
C748 C749 1.386 . S
C748 C750 1.391 . S
C749 C748 1.386 . S
C749 C753 1.393 . S
C750 H742 0.950 . S
C750 C748 1.391 . S
C750 C751 1.400 . S
C751 C750 1.400 . S
C751 C752 1.398 . S
C751 C757 1.491 . S
C752 H743 0.950 . S
C752 C751 1.398 . S
C752 C753 1.391 . S
C753 H741 0.950 . S
C753 C749 1.393 . S
C753 C752 1.391 . S
C754 H744 0.950 . S
C754 C755 1.386 . S
C754 C756 1.391 . S
C755 C754 1.386 . S
C755 C759 1.393 . S
C756 H745 0.950 . S
C756 C754 1.391 . S
C756 C757 1.400 . S
C757 C751 1.491 . S
C757 C756 1.400 . S
C757 C758 1.398 . S
C758 H746 0.950 . S
C758 C757 1.398 . S
C758 C759 1.391 . S
C759 H747 0.950 . S
C759 C755 1.393 . S
C759 C758 1.391 . S
H760 C768 0.950 . S
H761 C773 0.950 . S
H762 C770 0.950 . S
H763 C772 0.950 . S
H764 C774 0.950 . S
H765 C776 0.950 . S
H766 C778 0.950 . S
H767 C779 0.950 . S
C768 H760 0.950 . S
C768 C769 1.386 . S
C768 C770 1.391 . S
C769 C768 1.386 . S
C769 C773 1.393 . S
C770 H762 0.950 . S
C770 C768 1.391 . S
C770 C771 1.400 . S
C771 C770 1.400 . S
C771 C772 1.398 . S
C771 C777 1.491 . S
C772 H763 0.950 . S
C772 C771 1.398 . S
C772 C773 1.391 . S
C773 H761 0.950 . S
C773 C769 1.393 . S
C773 C772 1.391 . S
C774 H764 0.950 . S
C774 C775 1.386 . S
C774 C776 1.391 . S
C775 C774 1.386 . S
C775 C779 1.393 . S
C776 H765 0.950 . S
C776 C774 1.391 . S
C776 C777 1.400 . S
C777 C771 1.491 . S
C777 C776 1.400 . S
C777 C778 1.398 . S
C778 H766 0.950 . S
C778 C777 1.398 . S
C778 C779 1.391 . S
C779 H767 0.950 . S
C779 C775 1.393 . S
C779 C778 1.391 . S
H780 C788 0.950 . S
H781 C793 0.950 . S
H782 C790 0.950 . S
H783 C792 0.950 . S
H784 C794 0.950 . S
H785 C796 0.950 . S
H786 C798 0.950 . S
H787 C799 0.950 . S
C788 H780 0.950 . S
C788 C789 1.386 . S
C788 C790 1.391 . S
C789 C788 1.386 . S
C789 C793 1.393 . S
C790 H782 0.950 . S
C790 C788 1.391 . S
C790 C791 1.400 . S
C791 C790 1.400 . S
C791 C792 1.398 . S
C791 C797 1.491 . S
C792 H783 0.950 . S
C792 C791 1.398 . S
C792 C793 1.391 . S
C793 H781 0.950 . S
C793 C789 1.393 . S
C793 C792 1.391 . S
C794 H784 0.950 . S
C794 C795 1.386 . S
C794 C796 1.391 . S
C795 C794 1.386 . S
C795 C799 1.393 . S
C796 H785 0.950 . S
C796 C794 1.391 . S
C796 C797 1.400 . S
C797 C791 1.491 . S
C797 C796 1.400 . S
C797 C798 1.398 . S
C798 H786 0.950 . S
C798 C797 1.398 . S
C798 C799 1.391 . S
C799 H787 0.950 . S
C799 C795 1.393 . S
C799 C798 1.391 . S
H800 C808 0.950 . S
H801 C813 0.950 . S
H802 C810 0.950 . S
H803 C812 0.950 . S
H804 C814 0.950 . S
H805 C816 0.950 . S
H806 C818 0.950 . S
H807 C819 0.950 . S
C808 H800 0.950 . S
C808 C809 1.386 . S
C808 C810 1.391 . S
C809 C808 1.386 . S
C809 C813 1.393 . S
C810 H802 0.950 . S
C810 C808 1.391 . S
C810 C811 1.400 . S
C811 C810 1.400 . S
C811 C812 1.398 . S
C811 C817 1.491 . S
C812 H803 0.950 . S
C812 C811 1.398 . S
C812 C813 1.391 . S
C813 H801 0.950 . S
C813 C809 1.393 . S
C813 C812 1.391 . S
C814 H804 0.950 . S
C814 C815 1.386 . S
C814 C816 1.391 . S
C815 C814 1.386 . S
C815 C819 1.393 . S
C816 H805 0.950 . S
C816 C814 1.391 . S
C816 C817 1.400 . S
C817 C811 1.491 . S
C817 C816 1.400 . S
C817 C818 1.398 . S
C818 H806 0.950 . S
C818 C817 1.398 . S
C818 C819 1.391 . S
C819 H807 0.950 . S
C819 C815 1.393 . S
C819 C818 1.391 . S
H820 C828 0.950 . S
H821 C833 0.950 . S
H822 C830 0.950 . S
H823 C832 0.950 . S
H824 C834 0.950 . S
H825 C836 0.950 . S
H826 C838 0.950 . S
H827 C839 0.950 . S
C828 H820 0.950 . S
C828 C829 1.386 . S
C828 C830 1.391 . S
C829 C828 1.386 . S
C829 C833 1.393 . S
C830 H822 0.950 . S
C830 C828 1.391 . S
C830 C831 1.400 . S
C831 C830 1.400 . S
C831 C832 1.398 . S
C831 C837 1.491 . S
C832 H823 0.950 . S
C832 C831 1.398 . S
C832 C833 1.391 . S
C833 H821 0.950 . S
C833 C829 1.393 . S
C833 C832 1.391 . S
C834 H824 0.950 . S
C834 C835 1.386 . S
C834 C836 1.391 . S
C835 C834 1.386 . S
C835 C839 1.393 . S
C836 H825 0.950 . S
C836 C834 1.391 . S
C836 C837 1.400 . S
C837 C831 1.491 . S
C837 C836 1.400 . S
C837 C838 1.398 . S
C838 H826 0.950 . S
C838 C837 1.398 . S
C838 C839 1.391 . S
C839 H827 0.950 . S
C839 C835 1.393 . S
C839 C838 1.391 . S
H840 C848 0.950 . S
H841 C853 0.950 . S
H842 C850 0.950 . S
H843 C852 0.950 . S
H844 C854 0.950 . S
H845 C856 0.950 . S
H846 C858 0.950 . S
H847 C859 0.950 . S
C848 H840 0.950 . S
C848 C849 1.386 . S
C848 C850 1.391 . S
C849 C848 1.386 . S
C849 C853 1.393 . S
C850 H842 0.950 . S
C850 C848 1.391 . S
C850 C851 1.400 . S
C851 C850 1.400 . S
C851 C852 1.398 . S
C851 C857 1.491 . S
C852 H843 0.950 . S
C852 C851 1.398 . S
C852 C853 1.391 . S
C853 H841 0.950 . S
C853 C849 1.393 . S
C853 C852 1.391 . S
C854 H844 0.950 . S
C854 C855 1.386 . S
C854 C856 1.391 . S
C855 C854 1.386 . S
C855 C859 1.393 . S
C856 H845 0.950 . S
C856 C854 1.391 . S
C856 C857 1.400 . S
C857 C851 1.491 . S
C857 C856 1.400 . S
C857 C858 1.398 . S
C858 H846 0.950 . S
C858 C857 1.398 . S
C858 C859 1.391 . S
C859 H847 0.950 . S
C859 C855 1.393 . S
C859 C858 1.391 . S
H860 C868 0.950 . S
H861 C873 0.950 . S
H862 C870 0.950 . S
H863 C872 0.950 . S
H864 C874 0.950 . S
H865 C876 0.950 . S
H866 C878 0.950 . S
H867 C879 0.950 . S
C868 H860 0.950 . S
C868 C869 1.386 . S
C868 C870 1.391 . S
C869 C868 1.386 . S
C869 C873 1.393 . S
C870 H862 0.950 . S
C870 C868 1.391 . S
C870 C871 1.400 . S
C871 C870 1.400 . S
C871 C872 1.398 . S
C871 C877 1.491 . S
C872 H863 0.950 . S
C872 C871 1.398 . S
C872 C873 1.391 . S
C873 H861 0.950 . S
C873 C869 1.393 . S
C873 C872 1.391 . S
C874 H864 0.950 . S
C874 C875 1.386 . S
C874 C876 1.391 . S
C875 C874 1.386 . S
C875 C879 1.393 . S
C876 H865 0.950 . S
C876 C874 1.391 . S
C876 C877 1.400 . S
C877 C871 1.491 . S
C877 C876 1.400 . S
C877 C878 1.398 . S
C878 H866 0.950 . S
C878 C877 1.398 . S
C878 C879 1.391 . S
C879 H867 0.950 . S
C879 C875 1.393 . S
C879 C878 1.391 . S
H880 C888 0.950 . S
H881 C893 0.950 . S
H882 C890 0.950 . S
H883 C892 0.950 . S
H884 C894 0.950 . S
H885 C896 0.950 . S
H886 C898 0.950 . S
H887 C899 0.950 . S
C888 H880 0.950 . S
C888 C889 1.386 . S
C888 C890 1.391 . S
C889 C888 1.386 . S
C889 C893 1.393 . S
C890 H882 0.950 . S
C890 C888 1.391 . S
C890 C891 1.400 . S
C891 C890 1.400 . S
C891 C892 1.398 . S
C891 C897 1.491 . S
C892 H883 0.950 . S
C892 C891 1.398 . S
C892 C893 1.391 . S
C893 H881 0.950 . S
C893 C889 1.393 . S
C893 C892 1.391 . S
C894 H884 0.950 . S
C894 C895 1.386 . S
C894 C896 1.391 . S
C895 C894 1.386 . S
C895 C899 1.393 . S
C896 H885 0.950 . S
C896 C894 1.391 . S
C896 C897 1.400 . S
C897 C891 1.491 . S
C897 C896 1.400 . S
C897 C898 1.398 . S
C898 H886 0.950 . S
C898 C897 1.398 . S
C898 C899 1.391 . S
C899 H887 0.950 . S
C899 C895 1.393 . S
C899 C898 1.391 . S
H900 C908 0.950 . S
H901 C913 0.950 . S
H902 C910 0.950 . S
H903 C912 0.950 . S
H904 C914 0.950 . S
H905 C916 0.950 . S
H906 C918 0.950 . S
H907 C919 0.950 . S
C908 H900 0.950 . S
C908 C909 1.386 . S
C908 C910 1.391 . S
C909 C908 1.386 . S
C909 C913 1.393 . S
C910 H902 0.950 . S
C910 C908 1.391 . S
C910 C911 1.400 . S
C911 C910 1.400 . S
C911 C912 1.398 . S
C911 C917 1.491 . S
C912 H903 0.950 . S
C912 C911 1.398 . S
C912 C913 1.391 . S
C913 H901 0.950 . S
C913 C909 1.393 . S
C913 C912 1.391 . S
C914 H904 0.950 . S
C914 C915 1.386 . S
C914 C916 1.391 . S
C915 C914 1.386 . S
C915 C919 1.393 . S
C916 H905 0.950 . S
C916 C914 1.391 . S
C916 C917 1.400 . S
C917 C911 1.491 . S
C917 C916 1.400 . S
C917 C918 1.398 . S
C918 H906 0.950 . S
C918 C917 1.398 . S
C918 C919 1.391 . S
C919 H907 0.950 . S
C919 C915 1.393 . S
C919 C918 1.391 . S
H920 C928 0.950 . S
H921 C933 0.950 . S
H922 C930 0.950 . S
H923 C932 0.950 . S
H924 C934 0.950 . S
H925 C936 0.950 . S
H926 C938 0.950 . S
H927 C939 0.950 . S
C928 H920 0.950 . S
C928 C929 1.386 . S
C928 C930 1.391 . S
C929 C928 1.386 . S
C929 C933 1.393 . S
C930 H922 0.950 . S
C930 C928 1.391 . S
C930 C931 1.400 . S
C931 C930 1.400 . S
C931 C932 1.398 . S
C931 C937 1.491 . S
C932 H923 0.950 . S
C932 C931 1.398 . S
C932 C933 1.391 . S
C933 H921 0.950 . S
C933 C929 1.393 . S
C933 C932 1.391 . S
C934 H924 0.950 . S
C934 C935 1.386 . S
C934 C936 1.391 . S
C935 C934 1.386 . S
C935 C939 1.393 . S
C936 H925 0.950 . S
C936 C934 1.391 . S
C936 C937 1.400 . S
C937 C931 1.491 . S
C937 C936 1.400 . S
C937 C938 1.398 . S
C938 H926 0.950 . S
C938 C937 1.398 . S
C938 C939 1.391 . S
C939 H927 0.950 . S
C939 C935 1.393 . S
C939 C938 1.391 . S
H940 C948 0.950 . S
H941 C953 0.950 . S
H942 C950 0.950 . S
H943 C952 0.950 . S
H944 C954 0.950 . S
H945 C956 0.950 . S
H946 C958 0.950 . S
H947 C959 0.950 . S
C948 H940 0.950 . S
C948 C949 1.386 . S
C948 C950 1.391 . S
C949 C948 1.386 . S
C949 C953 1.393 . S
C950 H942 0.950 . S
C950 C948 1.391 . S
C950 C951 1.400 . S
C951 C950 1.400 . S
C951 C952 1.398 . S
C951 C957 1.491 . S
C952 H943 0.950 . S
C952 C951 1.398 . S
C952 C953 1.391 . S
C953 H941 0.950 . S
C953 C949 1.393 . S
C953 C952 1.391 . S
C954 H944 0.950 . S
C954 C955 1.386 . S
C954 C956 1.391 . S
C955 C954 1.386 . S
C955 C959 1.393 . S
C956 H945 0.950 . S
C956 C954 1.391 . S
C956 C957 1.400 . S
C957 C951 1.491 . S
C957 C956 1.400 . S
C957 C958 1.398 . S
C958 H946 0.950 . S
C958 C957 1.398 . S
C958 C959 1.391 . S
C959 H947 0.950 . S
C959 C955 1.393 . S
C959 C958 1.391 . S
H960 C968 0.950 . S
H961 C973 0.950 . S
H962 C970 0.950 . S
H963 C972 0.950 . S
H964 C974 0.950 . S
H965 C976 0.950 . S
H966 C978 0.950 . S
H967 C979 0.950 . S
C968 H960 0.950 . S
C968 C969 1.386 1_655 S
C968 C970 1.391 . S
C969 C968 1.386 1_455 S
C969 C973 1.393 . S
C970 H962 0.950 . S
C970 C968 1.391 . S
C970 C971 1.400 1_655 S
C971 C970 1.400 1_455 S
C971 C972 1.398 . S
C971 C977 1.491 . S
C972 H963 0.950 . S
C972 C971 1.398 . S
C972 C973 1.391 . S
C973 H961 0.950 . S
C973 C969 1.393 . S
C973 C972 1.391 . S
C974 H964 0.950 . S
C974 C975 1.386 . S
C974 C976 1.391 . S
C975 C974 1.386 . S
C975 C979 1.393 1_455 S
C976 H965 0.950 . S
C976 C974 1.391 . S
C976 C977 1.400 . S
C977 C971 1.491 . S
C977 C976 1.400 . S
C977 C978 1.398 1_455 S
C978 H966 0.950 . S
C978 C977 1.398 1_655 S
C978 C979 1.391 . S
C979 H967 0.950 . S
C979 C975 1.393 1_655 S
C979 C978 1.391 . S
H980 C988 0.950 . S
H981 C993 0.950 . S
H982 C990 0.950 . S
H983 C992 0.950 . S
H984 C994 0.950 . S
H985 C996 0.950 . S
H986 C998 0.950 . S
H987 C999 0.950 . S
C988 H980 0.950 . S
C988 C989 1.386 . S
C988 C990 1.391 . S
C989 C988 1.386 . S
C989 C993 1.393 . S
C990 H982 0.950 . S
C990 C988 1.391 . S
C990 C991 1.400 . S
C991 C990 1.400 . S
C991 C992 1.398 . S
C991 C997 1.491 1_655 S
C992 H983 0.950 . S
C992 C991 1.398 . S
C992 C993 1.391 . S
C993 H981 0.950 . S
C993 C989 1.393 . S
C993 C992 1.391 . S
C994 H984 0.950 . S
C994 C995 1.386 . S
C994 C996 1.391 . S
C995 C994 1.386 . S
C995 C999 1.393 . S
C996 H985 0.950 . S
C996 C994 1.391 . S
C996 C997 1.400 . S
C997 C991 1.491 1_455 S
C997 C996 1.400 . S
C997 C998 1.398 . S
C998 H986 0.950 . S
C998 C997 1.398 . S
C998 C999 1.391 . S
C999 H987 0.950 . S
C999 C995 1.393 . S
C999 C998 1.391 . S
H1000 C1008 0.950 . S
H1001 C1013 0.950 . S
H1002 C1010 0.950 . S
H1003 C1012 0.950 . S
H1004 C1014 0.950 . S
H1005 C1016 0.950 . S
H1006 C1018 0.950 . S
H1007 C1019 0.950 . S
C1008 H1000 0.950 . S
C1008 C1009 1.386 . S
C1008 C1010 1.391 . S
C1009 C1008 1.386 . S
C1009 C1013 1.393 . S
C1010 H1002 0.950 . S
C1010 C1008 1.391 . S
C1010 C1011 1.400 . S
C1011 C1010 1.400 . S
C1011 C1012 1.398 . S
C1011 C1017 1.491 . S
C1012 H1003 0.950 . S
C1012 C1011 1.398 . S
C1012 C1013 1.391 . S
C1013 H1001 0.950 . S
C1013 C1009 1.393 . S
C1013 C1012 1.391 . S
C1014 H1004 0.950 . S
C1014 C1015 1.386 . S
C1014 C1016 1.391 . S
C1015 C1014 1.386 . S
C1015 C1019 1.393 . S
C1016 H1005 0.950 . S
C1016 C1014 1.391 . S
C1016 C1017 1.400 . S
C1017 C1011 1.491 . S
C1017 C1016 1.400 . S
C1017 C1018 1.398 . S
C1018 H1006 0.950 . S
C1018 C1017 1.398 . S
C1018 C1019 1.391 . S
C1019 H1007 0.950 . S
C1019 C1015 1.393 . S
C1019 C1018 1.391 . S
H1020 C1028 0.950 . S
H1021 C1033 0.950 . S
H1022 C1030 0.950 . S
H1023 C1032 0.950 . S
H1024 C1034 0.950 . S
H1025 C1036 0.950 . S
H1026 C1038 0.950 . S
H1027 C1039 0.950 . S
C1028 H1020 0.950 . S
C1028 C1029 1.386 . S
C1028 C1030 1.391 . S
C1029 C1028 1.386 . S
C1029 C1033 1.393 . S
C1030 H1022 0.950 . S
C1030 C1028 1.391 . S
C1030 C1031 1.400 . S
C1031 C1030 1.400 . S
C1031 C1032 1.398 . S
C1031 C1037 1.491 . S
C1032 H1023 0.950 . S
C1032 C1031 1.398 . S
C1032 C1033 1.391 . S
C1033 H1021 0.950 . S
C1033 C1029 1.393 . S
C1033 C1032 1.391 . S
C1034 H1024 0.950 . S
C1034 C1035 1.386 . S
C1034 C1036 1.391 . S
C1035 C1034 1.386 . S
C1035 C1039 1.393 . S
C1036 H1025 0.950 . S
C1036 C1034 1.391 . S
C1036 C1037 1.400 . S
C1037 C1031 1.491 . S
C1037 C1036 1.400 . S
C1037 C1038 1.398 . S
C1038 H1026 0.950 . S
C1038 C1037 1.398 . S
C1038 C1039 1.391 . S
C1039 H1027 0.950 . S
C1039 C1035 1.393 . S
C1039 C1038 1.391 . S
H1040 C1048 0.950 . S
H1041 C1053 0.966 . S
H1042 C1050 0.950 . S
H1043 C1052 0.950 . S
H1044 C1054 0.950 . S
H1045 C1056 0.950 . S
H1046 C1058 0.950 . S
H1047 C1059 0.950 . S
C1048 H1040 0.950 . S
C1048 C1049 1.386 . S
C1048 C1050 1.391 . S
C1049 C1048 1.386 . S
C1049 C1053 1.375 1_455 S
C1050 H1042 0.950 . S
C1050 C1048 1.391 . S
C1050 C1051 1.400 . S
C1051 C1050 1.400 . S
C1051 C1052 1.398 1_455 S
C1051 C1057 1.491 . S
C1052 H1043 0.950 . S
C1052 C1051 1.398 1_655 S
C1052 C1053 1.394 . S
C1053 H1041 0.966 . S
C1053 C1049 1.375 1_655 S
C1053 C1052 1.394 . S
C1054 H1044 0.950 . S
C1054 C1055 1.386 1_655 S
C1054 C1056 1.391 . S
C1055 C1054 1.386 1_455 S
C1055 C1059 1.393 . S
C1056 H1045 0.950 . S
C1056 C1054 1.391 . S
C1056 C1057 1.400 1_655 S
C1057 C1051 1.491 . S
C1057 C1056 1.400 1_455 S
C1057 C1058 1.398 . S
C1058 H1046 0.950 . S
C1058 C1057 1.398 . S
C1058 C1059 1.391 . S
C1059 H1047 0.950 . S
C1059 C1055 1.393 . S
C1059 C1058 1.391 . S
H1060 C1068 0.950 . S
H1061 C1073 0.950 . S
H1062 C1070 0.950 . S
H1063 C1072 0.950 . S
H1064 C1074 0.950 . S
H1065 C1076 0.950 . S
H1066 C1078 0.950 . S
H1067 C1079 0.950 . S
C1068 H1060 0.950 . S
C1068 C1069 1.386 . S
C1068 C1070 1.391 . S
C1069 C1068 1.386 . S
C1069 C1073 1.393 . S
C1070 H1062 0.950 . S
C1070 C1068 1.391 . S
C1070 C1071 1.400 . S
C1071 C1070 1.400 . S
C1071 C1072 1.398 . S
C1071 C1077 1.491 . S
C1072 H1063 0.950 . S
C1072 C1071 1.398 . S
C1072 C1073 1.391 . S
C1073 H1061 0.950 . S
C1073 C1069 1.393 . S
C1073 C1072 1.391 . S
C1074 H1064 0.950 . S
C1074 C1075 1.386 . S
C1074 C1076 1.391 . S
C1075 C1074 1.386 . S
C1075 C1079 1.393 . S
C1076 H1065 0.950 . S
C1076 C1074 1.391 . S
C1076 C1077 1.400 . S
C1077 C1071 1.491 . S
C1077 C1076 1.400 . S
C1077 C1078 1.398 . S
C1078 H1066 0.950 . S
C1078 C1077 1.398 . S
C1078 C1079 1.391 . S
C1079 H1067 0.950 . S
C1079 C1075 1.393 . S
C1079 C1078 1.391 . S
H1080 C1088 0.950 . S
H1081 C1093 0.950 . S
H1082 C1090 0.950 . S
H1083 C1092 0.950 . S
H1084 C1094 0.950 . S
H1085 C1096 0.950 . S
H1086 C1098 0.950 . S
H1087 C1099 0.950 . S
C1088 H1080 0.950 . S
C1088 C1089 1.386 . S
C1088 C1090 1.391 . S
C1089 C1088 1.386 . S
C1089 C1093 1.393 . S
C1090 H1082 0.950 . S
C1090 C1088 1.391 . S
C1090 C1091 1.400 . S
C1091 C1090 1.400 . S
C1091 C1092 1.398 . S
C1091 C1097 1.491 . S
C1092 H1083 0.950 . S
C1092 C1091 1.398 . S
C1092 C1093 1.391 . S
C1093 H1081 0.950 . S
C1093 C1089 1.393 . S
C1093 C1092 1.391 . S
C1094 H1084 0.950 . S
C1094 C1095 1.386 . S
C1094 C1096 1.391 . S
C1095 C1094 1.386 . S
C1095 C1099 1.393 . S
C1096 H1085 0.950 . S
C1096 C1094 1.391 . S
C1096 C1097 1.400 . S
C1097 C1091 1.491 . S
C1097 C1096 1.400 . S
C1097 C1098 1.398 . S
C1098 H1086 0.950 . S
C1098 C1097 1.398 . S
C1098 C1099 1.391 . S
C1099 H1087 0.950 . S
C1099 C1095 1.393 . S
C1099 C1098 1.391 . S
H1100 C1108 0.950 . S
H1101 C1113 0.950 . S
H1102 C1110 0.950 . S
H1103 C1112 0.950 . S
H1104 C1114 0.950 . S
H1105 C1116 0.950 . S
H1106 C1118 0.950 . S
H1107 C1119 0.950 . S
C1108 H1100 0.950 . S
C1108 C1109 1.386 . S
C1108 C1110 1.391 . S
C1109 C1108 1.386 . S
C1109 C1113 1.393 . S
C1110 H1102 0.950 . S
C1110 C1108 1.391 . S
C1110 C1111 1.400 . S
C1111 C1110 1.400 . S
C1111 C1112 1.398 . S
C1111 C1117 1.491 1_455 S
C1112 H1103 0.950 . S
C1112 C1111 1.398 . S
C1112 C1113 1.391 . S
C1113 H1101 0.950 . S
C1113 C1109 1.393 . S
C1113 C1112 1.391 . S
C1114 H1104 0.950 . S
C1114 C1115 1.386 . S
C1114 C1116 1.391 . S
C1115 C1114 1.386 . S
C1115 C1119 1.393 . S
C1116 H1105 0.950 . S
C1116 C1114 1.391 . S
C1116 C1117 1.400 . S
C1117 C1111 1.491 1_655 S
C1117 C1116 1.400 . S
C1117 C1118 1.398 . S
C1118 H1106 0.950 . S
C1118 C1117 1.398 . S
C1118 C1119 1.391 . S
C1119 H1107 0.950 . S
C1119 C1115 1.393 . S
C1119 C1118 1.391 . S
H1120 C1128 0.950 . S
H1121 C1133 0.950 . S
H1122 C1130 0.950 1_565 S
H1123 C1132 0.950 . S
H1124 C1134 0.950 . S
H1125 C1136 0.950 1_545 S
H1126 C1138 0.950 . S
H1127 C1139 0.950 . S
C1128 H1120 0.950 . S
C1128 C1129 1.386 1_655 S
C1128 C1130 1.391 . S
C1129 C1128 1.386 1_455 S
C1129 C1133 1.393 . S
C1130 H1122 0.950 1_545 S
C1130 C1128 1.391 . S
C1130 C1131 1.400 1_655 S
C1131 C1130 1.400 1_455 S
C1131 C1132 1.398 . S
C1131 C1137 1.491 1_544 S
C1132 H1123 0.950 . S
C1132 C1131 1.398 . S
C1132 C1133 1.391 . S
C1133 H1121 0.950 . S
C1133 C1129 1.393 . S
C1133 C1132 1.391 . S
C1134 H1124 0.950 . S
C1134 C1135 1.386 . S
C1134 C1136 1.391 . S
C1135 C1134 1.386 . S
C1135 C1139 1.393 1_455 S
C1136 H1125 0.950 1_565 S
C1136 C1134 1.391 . S
C1136 C1137 1.400 . S
C1137 C1131 1.491 1_566 S
C1137 C1136 1.400 . S
C1137 C1138 1.398 1_455 S
C1138 H1126 0.950 . S
C1138 C1137 1.398 1_655 S
C1138 C1139 1.391 . S
C1139 H1127 0.950 . S
C1139 C1135 1.393 1_655 S
C1139 C1138 1.391 . S
H1140 C1148 0.950 . S
H1141 C1153 0.950 . S
H1142 C1150 0.950 . S
H1143 C1152 0.950 . S
H1144 C1154 0.950 . S
H1145 C1156 0.950 . S
H1146 C1158 0.950 . S
H1147 C1159 0.950 . S
C1148 H1140 0.950 . S
C1148 C1149 1.386 . S
C1148 C1150 1.391 . S
C1149 C1148 1.386 . S
C1149 C1153 1.393 . S
C1150 H1142 0.950 . S
C1150 C1148 1.391 . S
C1150 C1151 1.400 . S
C1151 C1150 1.400 . S
C1151 C1152 1.398 . S
C1151 C1157 1.491 . S
C1152 H1143 0.950 . S
C1152 C1151 1.398 . S
C1152 C1153 1.391 . S
C1153 H1141 0.950 . S
C1153 C1149 1.393 . S
C1153 C1152 1.391 . S
C1154 H1144 0.950 . S
C1154 C1155 1.386 . S
C1154 C1156 1.391 . S
C1155 C1154 1.386 . S
C1155 C1159 1.393 . S
C1156 H1145 0.950 . S
C1156 C1154 1.391 . S
C1156 C1157 1.400 . S
C1157 C1151 1.491 . S
C1157 C1156 1.400 . S
C1157 C1158 1.398 . S
C1158 H1146 0.950 . S
C1158 C1157 1.398 . S
C1158 C1159 1.391 . S
C1159 H1147 0.950 . S
C1159 C1155 1.393 . S
C1159 C1158 1.391 . S
H1160 C1168 0.950 . S
H1161 C1173 0.950 . S
H1162 C1170 0.950 . S
H1163 C1172 0.950 . S
H1164 C1174 0.950 . S
H1165 C1176 0.950 . S
H1166 C1178 0.950 . S
H1167 C1179 0.950 . S
C1168 H1160 0.950 . S
C1168 C1169 1.386 . S
C1168 C1170 1.391 . S
C1169 C1168 1.386 . S
C1169 C1173 1.393 . S
C1170 H1162 0.950 . S
C1170 C1168 1.391 . S
C1170 C1171 1.400 . S
C1171 C1170 1.400 . S
C1171 C1172 1.398 1_545 S
C1171 C1177 1.491 1_545 S
C1172 H1163 0.950 . S
C1172 C1171 1.398 1_565 S
C1172 C1173 1.391 1_565 S
C1173 H1161 0.950 . S
C1173 C1169 1.393 . S
C1173 C1172 1.391 1_545 S
C1174 H1164 0.950 . S
C1174 C1175 1.386 . S
C1174 C1176 1.391 . S
C1175 C1174 1.386 . S
C1175 C1179 1.393 . S
C1176 H1165 0.950 . S
C1176 C1174 1.391 . S
C1176 C1177 1.400 . S
C1177 C1171 1.491 1_565 S
C1177 C1176 1.400 . S
C1177 C1178 1.398 1_565 S
C1178 H1166 0.950 . S
C1178 C1177 1.398 1_545 S
C1178 C1179 1.391 1_545 S
C1179 H1167 0.950 . S
C1179 C1175 1.393 . S
C1179 C1178 1.391 1_565 S
H1180 C1188 0.950 . S
H1181 C1193 0.950 . S
H1182 C1190 0.950 . S
H1183 C1192 0.950 . S
H1184 C1194 0.950 . S
H1185 C1196 0.950 . S
H1186 C1198 0.950 . S
H1187 C1199 0.950 . S
C1188 H1180 0.950 . S
C1188 C1189 1.386 . S
C1188 C1190 1.391 . S
C1189 C1188 1.386 . S
C1189 C1193 1.393 . S
C1190 H1182 0.950 . S
C1190 C1188 1.391 . S
C1190 C1191 1.400 . S
C1191 C1190 1.400 . S
C1191 C1192 1.398 . S
C1191 C1197 1.491 . S
C1192 H1183 0.950 . S
C1192 C1191 1.398 . S
C1192 C1193 1.391 . S
C1193 H1181 0.950 . S
C1193 C1189 1.393 . S
C1193 C1192 1.391 . S
C1194 H1184 0.950 . S
C1194 C1195 1.386 . S
C1194 C1196 1.391 . S
C1195 C1194 1.386 . S
C1195 C1199 1.393 . S
C1196 H1185 0.950 . S
C1196 C1194 1.391 . S
C1196 C1197 1.400 . S
C1197 C1191 1.491 . S
C1197 C1196 1.400 . S
C1197 C1198 1.398 . S
C1198 H1186 0.950 . S
C1198 C1197 1.398 . S
C1198 C1199 1.391 . S
C1199 H1187 0.950 . S
C1199 C1195 1.393 . S
C1199 C1198 1.391 . S
H1200 C1208 0.950 . S
H1201 C1213 0.950 . S
H1202 C1210 0.950 . S
H1203 C1212 0.950 . S
H1204 C1214 0.950 . S
H1205 C1216 0.950 . S
H1206 C1218 0.950 . S
H1207 C1219 0.950 . S
C1208 H1200 0.950 . S
C1208 C1209 1.386 . S
C1208 C1210 1.391 . S
C1209 C1208 1.386 . S
C1209 C1213 1.393 . S
C1210 H1202 0.950 . S
C1210 C1208 1.391 . S
C1210 C1211 1.400 . S
C1211 C1210 1.400 . S
C1211 C1212 1.398 . S
C1211 C1217 1.491 . S
C1212 H1203 0.950 . S
C1212 C1211 1.398 . S
C1212 C1213 1.391 . S
C1213 H1201 0.950 . S
C1213 C1209 1.393 . S
C1213 C1212 1.391 . S
C1214 H1204 0.950 . S
C1214 C1215 1.386 . S
C1214 C1216 1.391 . S
C1215 C1214 1.386 . S
C1215 C1219 1.393 . S
C1216 H1205 0.950 . S
C1216 C1214 1.391 . S
C1216 C1217 1.400 . S
C1217 C1211 1.491 . S
C1217 C1216 1.400 . S
C1217 C1218 1.398 . S
C1218 H1206 0.950 . S
C1218 C1217 1.398 . S
C1218 C1219 1.391 . S
C1219 H1207 0.950 . S
C1219 C1215 1.393 . S
C1219 C1218 1.391 . S
H1220 C1228 0.950 . S
H1221 C1233 0.950 . S
H1222 C1230 0.950 . S
H1223 C1232 0.950 . S
H1224 C1234 0.950 . S
H1225 C1236 0.950 . S
H1226 C1238 0.950 . S
H1227 C1239 0.950 . S
C1228 H1220 0.950 . S
C1228 C1229 1.386 . S
C1228 C1230 1.391 . S
C1229 C1228 1.386 . S
C1229 C1233 1.393 . S
C1230 H1222 0.950 . S
C1230 C1228 1.391 . S
C1230 C1231 1.400 . S
C1231 C1230 1.400 . S
C1231 C1232 1.398 . S
C1231 C1237 1.491 . S
C1232 H1223 0.950 . S
C1232 C1231 1.398 . S
C1232 C1233 1.391 . S
C1233 H1221 0.950 . S
C1233 C1229 1.393 . S
C1233 C1232 1.391 . S
C1234 H1224 0.950 . S
C1234 C1235 1.386 . S
C1234 C1236 1.391 . S
C1235 C1234 1.386 . S
C1235 C1239 1.393 . S
C1236 H1225 0.950 . S
C1236 C1234 1.391 . S
C1236 C1237 1.400 . S
C1237 C1231 1.491 . S
C1237 C1236 1.400 . S
C1237 C1238 1.398 . S
C1238 H1226 0.950 . S
C1238 C1237 1.398 . S
C1238 C1239 1.391 . S
C1239 H1227 0.950 . S
C1239 C1235 1.393 . S
C1239 C1238 1.391 . S
H1240 C1248 0.950 . S
H1241 C1253 0.950 . S
H1242 C1250 0.950 . S
H1243 C1252 0.950 . S
H1244 C1254 0.950 . S
H1245 C1256 0.950 . S
H1246 C1258 0.950 . S
H1247 C1259 0.950 . S
C1248 H1240 0.950 . S
C1248 C1249 1.386 . S
C1248 C1250 1.391 . S
C1249 C1248 1.386 . S
C1249 C1253 1.393 . S
C1250 H1242 0.950 . S
C1250 C1248 1.391 . S
C1250 C1251 1.400 . S
C1251 C1250 1.400 . S
C1251 C1252 1.398 . S
C1251 C1257 1.491 . S
C1252 H1243 0.950 . S
C1252 C1251 1.398 . S
C1252 C1253 1.391 . S
C1253 H1241 0.950 . S
C1253 C1249 1.393 . S
C1253 C1252 1.391 . S
C1254 H1244 0.950 . S
C1254 C1255 1.386 . S
C1254 C1256 1.391 . S
C1255 C1254 1.386 . S
C1255 C1259 1.393 . S
C1256 H1245 0.950 . S
C1256 C1254 1.391 . S
C1256 C1257 1.400 . S
C1257 C1251 1.491 . S
C1257 C1256 1.400 . S
C1257 C1258 1.398 . S
C1258 H1246 0.950 . S
C1258 C1257 1.398 . S
C1258 C1259 1.391 . S
C1259 H1247 0.950 . S
C1259 C1255 1.393 . S
C1259 C1258 1.391 . S
H1260 C1268 0.950 . S
H1261 C1273 0.950 . S
H1262 C1270 0.950 . S
H1263 C1272 0.950 . S
H1264 C1274 0.950 . S
H1265 C1276 0.950 . S
H1266 C1278 0.950 . S
H1267 C1279 0.950 . S
C1268 H1260 0.950 . S
C1268 C1269 1.386 1_655 S
C1268 C1270 1.391 . S
C1269 C1268 1.386 1_455 S
C1269 C1273 1.393 . S
C1270 H1262 0.950 . S
C1270 C1268 1.391 . S
C1270 C1271 1.400 1_655 S
C1271 C1270 1.400 1_455 S
C1271 C1272 1.398 . S
C1271 C1277 1.491 1_556 S
C1272 H1263 0.950 . S
C1272 C1271 1.398 . S
C1272 C1273 1.391 . S
C1273 H1261 0.950 . S
C1273 C1269 1.393 . S
C1273 C1272 1.391 . S
C1274 H1264 0.950 . S
C1274 C1275 1.386 . S
C1274 C1276 1.391 . S
C1275 C1274 1.386 . S
C1275 C1279 1.393 1_455 S
C1276 H1265 0.950 . S
C1276 C1274 1.391 . S
C1276 C1277 1.400 . S
C1277 C1271 1.491 1_554 S
C1277 C1276 1.400 . S
C1277 C1278 1.398 1_455 S
C1278 H1266 0.950 . S
C1278 C1277 1.398 1_655 S
C1278 C1279 1.391 . S
C1279 H1267 0.950 . S
C1279 C1275 1.393 1_655 S
C1279 C1278 1.391 . S
H1280 C1288 0.950 . S
H1281 C1293 0.950 . S
H1282 C1290 0.950 . S
H1283 C1292 0.950 . S
H1284 C1294 0.950 . S
H1285 C1296 0.950 . S
H1286 C1298 0.950 . S
H1287 C1299 0.950 . S
C1288 H1280 0.950 . S
C1288 C1289 1.386 . S
C1288 C1290 1.391 . S
C1289 C1288 1.386 . S
C1289 C1293 1.393 . S
C1290 H1282 0.950 . S
C1290 C1288 1.391 . S
C1290 C1291 1.400 . S
C1291 C1290 1.400 . S
C1291 C1292 1.398 . S
C1291 C1297 1.491 . S
C1292 H1283 0.950 . S
C1292 C1291 1.398 . S
C1292 C1293 1.391 . S
C1293 H1281 0.950 . S
C1293 C1289 1.393 . S
C1293 C1292 1.391 . S
C1294 H1284 0.950 . S
C1294 C1295 1.386 . S
C1294 C1296 1.391 . S
C1295 C1294 1.386 . S
C1295 C1299 1.393 . S
C1296 H1285 0.950 . S
C1296 C1294 1.391 . S
C1296 C1297 1.400 . S
C1297 C1291 1.491 . S
C1297 C1296 1.400 . S
C1297 C1298 1.398 . S
C1298 H1286 0.950 . S
C1298 C1297 1.398 . S
C1298 C1299 1.391 . S
C1299 H1287 0.950 . S
C1299 C1295 1.393 . S
C1299 C1298 1.391 . S
H1300 C1308 0.950 . S
H1301 C1313 0.950 . S
H1302 C1310 0.950 . S
H1303 C1312 0.950 . S
H1304 C1314 0.950 . S
H1305 C1316 0.950 . S
H1306 C1318 0.950 . S
H1307 C1319 0.950 . S
C1308 H1300 0.950 . S
C1308 C1309 1.386 . S
C1308 C1310 1.391 . S
C1309 C1308 1.386 . S
C1309 C1313 1.393 . S
C1310 H1302 0.950 . S
C1310 C1308 1.391 . S
C1310 C1311 1.400 . S
C1311 C1310 1.400 . S
C1311 C1312 1.398 . S
C1311 C1317 1.491 . S
C1312 H1303 0.950 . S
C1312 C1311 1.398 . S
C1312 C1313 1.391 . S
C1313 H1301 0.950 . S
C1313 C1309 1.393 . S
C1313 C1312 1.391 . S
C1314 H1304 0.950 . S
C1314 C1315 1.386 . S
C1314 C1316 1.391 . S
C1315 C1314 1.386 . S
C1315 C1319 1.393 . S
C1316 H1305 0.950 . S
C1316 C1314 1.391 . S
C1316 C1317 1.400 . S
C1317 C1311 1.491 . S
C1317 C1316 1.400 . S
C1317 C1318 1.398 . S
C1318 H1306 0.950 . S
C1318 C1317 1.398 . S
C1318 C1319 1.391 . S
C1319 H1307 0.950 . S
C1319 C1315 1.393 . S
C1319 C1318 1.391 . S
H1320 C1328 0.950 . S
H1321 C1333 0.950 . S
H1322 C1330 0.950 . S
H1323 C1332 0.950 . S
H1324 C1334 0.950 . S
H1325 C1336 0.950 . S
H1326 C1338 0.950 . S
H1327 C1339 0.950 . S
C1328 H1320 0.950 . S
C1328 C1329 1.386 . S
C1328 C1330 1.391 . S
C1329 C1328 1.386 . S
C1329 C1333 1.393 . S
C1330 H1322 0.950 . S
C1330 C1328 1.391 . S
C1330 C1331 1.400 . S
C1331 C1330 1.400 . S
C1331 C1332 1.398 . S
C1331 C1337 1.491 . S
C1332 H1323 0.950 . S
C1332 C1331 1.398 . S
C1332 C1333 1.391 . S
C1333 H1321 0.950 . S
C1333 C1329 1.393 . S
C1333 C1332 1.391 . S
C1334 H1324 0.950 . S
C1334 C1335 1.386 . S
C1334 C1336 1.391 . S
C1335 C1334 1.386 . S
C1335 C1339 1.393 . S
C1336 H1325 0.950 . S
C1336 C1334 1.391 . S
C1336 C1337 1.400 . S
C1337 C1331 1.491 . S
C1337 C1336 1.400 . S
C1337 C1338 1.398 . S
C1338 H1326 0.950 . S
C1338 C1337 1.398 . S
C1338 C1339 1.391 . S
C1339 H1327 0.950 . S
C1339 C1335 1.393 . S
C1339 C1338 1.391 . S
H1340 C1348 0.950 . S
H1341 C1353 0.950 . S
H1342 C1350 0.950 . S
H1343 C1352 0.950 . S
H1344 C1354 0.950 . S
H1345 C1356 0.950 . S
H1346 C1358 0.950 . S
H1347 C1359 0.950 . S
C1348 H1340 0.950 . S
C1348 C1349 1.386 . S
C1348 C1350 1.391 . S
C1349 C1348 1.386 . S
C1349 C1353 1.393 . S
C1350 H1342 0.950 . S
C1350 C1348 1.391 . S
C1350 C1351 1.400 . S
C1351 C1350 1.400 . S
C1351 C1352 1.398 . S
C1351 C1357 1.491 . S
C1352 H1343 0.950 . S
C1352 C1351 1.398 . S
C1352 C1353 1.391 . S
C1353 H1341 0.950 . S
C1353 C1349 1.393 . S
C1353 C1352 1.391 . S
C1354 H1344 0.950 . S
C1354 C1355 1.386 . S
C1354 C1356 1.391 . S
C1355 C1354 1.386 . S
C1355 C1359 1.393 . S
C1356 H1345 0.950 . S
C1356 C1354 1.391 . S
C1356 C1357 1.400 . S
C1357 C1351 1.491 . S
C1357 C1356 1.400 . S
C1357 C1358 1.398 . S
C1358 H1346 0.950 . S
C1358 C1357 1.398 . S
C1358 C1359 1.391 . S
C1359 H1347 0.950 . S
C1359 C1355 1.393 . S
C1359 C1358 1.391 . S
H1360 C1368 0.950 . S
H1361 C1373 0.950 . S
H1362 C1370 0.950 . S
H1363 C1372 0.950 . S
H1364 C1374 0.950 . S
H1365 C1376 0.950 . S
H1366 C1378 0.950 . S
H1367 C1379 0.950 . S
C1368 H1360 0.950 . S
C1368 C1369 1.386 . S
C1368 C1370 1.391 . S
C1369 C1368 1.386 . S
C1369 C1373 1.393 . S
C1370 H1362 0.950 . S
C1370 C1368 1.391 . S
C1370 C1371 1.400 . S
C1371 C1370 1.400 . S
C1371 C1372 1.398 . S
C1371 C1377 1.491 . S
C1372 H1363 0.950 . S
C1372 C1371 1.398 . S
C1372 C1373 1.391 . S
C1373 H1361 0.950 . S
C1373 C1369 1.393 . S
C1373 C1372 1.391 . S
C1374 H1364 0.950 . S
C1374 C1375 1.386 . S
C1374 C1376 1.391 . S
C1375 C1374 1.386 . S
C1375 C1379 1.393 . S
C1376 H1365 0.950 . S
C1376 C1374 1.391 . S
C1376 C1377 1.400 . S
C1377 C1371 1.491 . S
C1377 C1376 1.400 . S
C1377 C1378 1.398 . S
C1378 H1366 0.950 . S
C1378 C1377 1.398 . S
C1378 C1379 1.391 . S
C1379 H1367 0.950 . S
C1379 C1375 1.393 . S
C1379 C1378 1.391 . S
H1380 C1388 0.950 . S
H1381 C1393 0.950 . S
H1382 C1390 0.950 . S
H1383 C1392 0.950 . S
H1384 C1394 0.950 . S
H1385 C1396 0.950 . S
H1386 C1398 0.950 . S
H1387 C1399 0.950 . S
C1388 H1380 0.950 . S
C1388 C1389 1.386 . S
C1388 C1390 1.391 . S
C1389 C1388 1.386 . S
C1389 C1393 1.393 . S
C1390 H1382 0.950 . S
C1390 C1388 1.391 . S
C1390 C1391 1.400 . S
C1391 C1390 1.400 . S
C1391 C1392 1.398 . S
C1391 C1397 1.491 . S
C1392 H1383 0.950 . S
C1392 C1391 1.398 . S
C1392 C1393 1.391 . S
C1393 H1381 0.950 . S
C1393 C1389 1.393 . S
C1393 C1392 1.391 . S
C1394 H1384 0.950 . S
C1394 C1395 1.386 . S
C1394 C1396 1.391 . S
C1395 C1394 1.386 . S
C1395 C1399 1.393 . S
C1396 H1385 0.950 . S
C1396 C1394 1.391 . S
C1396 C1397 1.400 . S
C1397 C1391 1.491 . S
C1397 C1396 1.400 . S
C1397 C1398 1.398 . S
C1398 H1386 0.950 . S
C1398 C1397 1.398 . S
C1398 C1399 1.391 . S
C1399 H1387 0.950 . S
C1399 C1395 1.393 . S
C1399 C1398 1.391 . S
H1400 C1408 0.950 . S
H1401 C1413 0.950 . S
H1402 C1410 0.950 . S
H1403 C1412 0.950 . S
H1404 C1414 0.950 . S
H1405 C1416 0.950 . S
H1406 C1418 0.950 . S
H1407 C1419 0.950 . S
C1408 H1400 0.950 . S
C1408 C1409 1.386 . S
C1408 C1410 1.391 . S
C1409 C1408 1.386 . S
C1409 C1413 1.393 . S
C1410 H1402 0.950 . S
C1410 C1408 1.391 . S
C1410 C1411 1.400 . S
C1411 C1410 1.400 . S
C1411 C1412 1.398 . S
C1411 C1417 1.491 . S
C1412 H1403 0.950 . S
C1412 C1411 1.398 . S
C1412 C1413 1.391 . S
C1413 H1401 0.950 . S
C1413 C1409 1.393 . S
C1413 C1412 1.391 . S
C1414 H1404 0.950 . S
C1414 C1415 1.386 . S
C1414 C1416 1.391 . S
C1415 C1414 1.386 . S
C1415 C1419 1.393 . S
C1416 H1405 0.950 . S
C1416 C1414 1.391 . S
C1416 C1417 1.400 . S
C1417 C1411 1.491 . S
C1417 C1416 1.400 . S
C1417 C1418 1.398 . S
C1418 H1406 0.950 . S
C1418 C1417 1.398 . S
C1418 C1419 1.391 . S
C1419 H1407 0.950 . S
C1419 C1415 1.393 . S
C1419 C1418 1.391 . S
H1420 C1428 0.950 . S
H1421 C1433 0.950 . S
H1422 C1430 0.950 . S
H1423 C1432 0.950 . S
H1424 C1434 0.950 . S
H1425 C1436 0.950 . S
H1426 C1438 0.950 . S
H1427 C1439 0.950 . S
C1428 H1420 0.950 . S
C1428 C1429 1.386 . S
C1428 C1430 1.391 . S
C1429 C1428 1.386 . S
C1429 C1433 1.393 . S
C1430 H1422 0.950 . S
C1430 C1428 1.391 . S
C1430 C1431 1.400 . S
C1431 C1430 1.400 . S
C1431 C1432 1.398 . S
C1431 C1437 1.491 . S
C1432 H1423 0.950 . S
C1432 C1431 1.398 . S
C1432 C1433 1.391 . S
C1433 H1421 0.950 . S
C1433 C1429 1.393 . S
C1433 C1432 1.391 . S
C1434 H1424 0.950 . S
C1434 C1435 1.386 . S
C1434 C1436 1.391 . S
C1435 C1434 1.386 . S
C1435 C1439 1.393 . S
C1436 H1425 0.950 . S
C1436 C1434 1.391 . S
C1436 C1437 1.400 . S
C1437 C1431 1.491 . S
C1437 C1436 1.400 . S
C1437 C1438 1.398 . S
C1438 H1426 0.950 . S
C1438 C1437 1.398 . S
C1438 C1439 1.391 . S
C1439 H1427 0.950 . S
C1439 C1435 1.393 . S
C1439 C1438 1.391 . S
H1440 C1448 0.950 . S
H1441 C1453 0.950 . S
H1442 C1450 0.950 . S
H1443 C1452 0.950 . S
H1444 C1454 0.950 . S
H1445 C1456 0.950 . S
H1446 C1458 0.950 . S
H1447 C1459 0.950 . S
C1448 H1440 0.950 . S
C1448 C1449 1.386 . S
C1448 C1450 1.391 . S
C1449 C1448 1.386 . S
C1449 C1453 1.393 . S
C1450 H1442 0.950 . S
C1450 C1448 1.391 . S
C1450 C1451 1.400 . S
C1451 C1450 1.400 . S
C1451 C1452 1.398 . S
C1451 C1457 1.491 . S
C1452 H1443 0.950 . S
C1452 C1451 1.398 . S
C1452 C1453 1.391 . S
C1453 H1441 0.950 . S
C1453 C1449 1.393 . S
C1453 C1452 1.391 . S
C1454 H1444 0.950 . S
C1454 C1455 1.386 . S
C1454 C1456 1.391 . S
C1455 C1454 1.386 . S
C1455 C1459 1.393 . S
C1456 H1445 0.950 . S
C1456 C1454 1.391 . S
C1456 C1457 1.400 . S
C1457 C1451 1.491 . S
C1457 C1456 1.400 . S
C1457 C1458 1.398 . S
C1458 H1446 0.950 . S
C1458 C1457 1.398 . S
C1458 C1459 1.391 . S
C1459 H1447 0.950 . S
C1459 C1455 1.393 . S
C1459 C1458 1.391 . S
H1460 C1468 0.950 . S
H1461 C1473 0.950 . S
H1462 C1470 0.950 . S
H1463 C1472 0.950 . S
H1464 C1474 0.950 . S
H1465 C1476 0.950 . S
H1466 C1478 0.950 . S
H1467 C1479 0.950 . S
C1468 H1460 0.950 . S
C1468 C1469 1.386 . S
C1468 C1470 1.391 . S
C1469 C1468 1.386 . S
C1469 C1473 1.393 . S
C1470 H1462 0.950 . S
C1470 C1468 1.391 . S
C1470 C1471 1.400 . S
C1471 C1470 1.400 . S
C1471 C1472 1.398 . S
C1471 C1477 1.491 . S
C1472 H1463 0.950 . S
C1472 C1471 1.398 . S
C1472 C1473 1.391 . S
C1473 H1461 0.950 . S
C1473 C1469 1.393 . S
C1473 C1472 1.391 . S
C1474 H1464 0.950 . S
C1474 C1475 1.386 . S
C1474 C1476 1.391 . S
C1475 C1474 1.386 . S
C1475 C1479 1.393 . S
C1476 H1465 0.950 . S
C1476 C1474 1.391 . S
C1476 C1477 1.400 . S
C1477 C1471 1.491 . S
C1477 C1476 1.400 . S
C1477 C1478 1.398 . S
C1478 H1466 0.950 . S
C1478 C1477 1.398 . S
C1478 C1479 1.391 . S
C1479 H1467 0.950 . S
C1479 C1475 1.393 . S
C1479 C1478 1.391 . S
H1480 C1488 0.950 . S
H1481 C1493 0.950 . S
H1482 C1490 0.950 . S
H1483 C1492 0.950 . S
H1484 C1494 0.950 . S
H1485 C1496 0.950 . S
H1486 C1498 0.950 . S
H1487 C1499 0.950 . S
C1488 H1480 0.950 . S
C1488 C1489 1.386 . S
C1488 C1490 1.391 . S
C1489 C1488 1.386 . S
C1489 C1493 1.393 . S
C1490 H1482 0.950 . S
C1490 C1488 1.391 . S
C1490 C1491 1.400 . S
C1491 C1490 1.400 . S
C1491 C1492 1.398 . S
C1491 C1497 1.491 . S
C1492 H1483 0.950 . S
C1492 C1491 1.398 . S
C1492 C1493 1.391 . S
C1493 H1481 0.950 . S
C1493 C1489 1.393 . S
C1493 C1492 1.391 . S
C1494 H1484 0.950 . S
C1494 C1495 1.386 . S
C1494 C1496 1.391 . S
C1495 C1494 1.386 . S
C1495 C1499 1.393 . S
C1496 H1485 0.950 . S
C1496 C1494 1.391 . S
C1496 C1497 1.400 . S
C1497 C1491 1.491 . S
C1497 C1496 1.400 . S
C1497 C1498 1.398 . S
C1498 H1486 0.950 . S
C1498 C1497 1.398 . S
C1498 C1499 1.391 . S
C1499 H1487 0.950 . S
C1499 C1495 1.393 . S
C1499 C1498 1.391 . S
H1500 C1508 0.950 . S
H1501 C1513 0.950 . S
H1502 C1510 0.950 . S
H1503 C1512 0.950 . S
H1504 C1514 0.950 . S
H1505 C1516 0.950 . S
H1506 C1518 0.950 . S
H1507 C1519 0.950 . S
C1508 H1500 0.950 . S
C1508 C1509 1.386 . S
C1508 C1510 1.391 . S
C1509 C1508 1.386 . S
C1509 C1513 1.393 . S
C1510 H1502 0.950 . S
C1510 C1508 1.391 . S
C1510 C1511 1.400 . S
C1511 C1510 1.400 . S
C1511 C1512 1.398 . S
C1511 C1517 1.491 . S
C1512 H1503 0.950 . S
C1512 C1511 1.398 . S
C1512 C1513 1.391 . S
C1513 H1501 0.950 . S
C1513 C1509 1.393 . S
C1513 C1512 1.391 . S
C1514 H1504 0.950 . S
C1514 C1515 1.386 . S
C1514 C1516 1.391 . S
C1515 C1514 1.386 . S
C1515 C1519 1.393 . S
C1516 H1505 0.950 . S
C1516 C1514 1.391 . S
C1516 C1517 1.400 . S
C1517 C1511 1.491 . S
C1517 C1516 1.400 . S
C1517 C1518 1.398 . S
C1518 H1506 0.950 . S
C1518 C1517 1.398 . S
C1518 C1519 1.391 . S
C1519 H1507 0.950 . S
C1519 C1515 1.393 . S
C1519 C1518 1.391 . S
H1520 C1528 0.950 . S
H1521 C1533 0.950 . S
H1522 C1530 0.950 . S
H1523 C1532 0.950 . S
H1524 C1534 0.950 . S
H1525 C1536 0.950 . S
H1526 C1538 0.950 . S
H1527 C1539 0.950 . S
C1528 H1520 0.950 . S
C1528 C1529 1.386 . S
C1528 C1530 1.391 . S
C1529 C1528 1.386 . S
C1529 C1533 1.393 . S
C1530 H1522 0.950 . S
C1530 C1528 1.391 . S
C1530 C1531 1.400 . S
C1531 C1530 1.400 . S
C1531 C1532 1.398 . S
C1531 C1537 1.491 . S
C1532 H1523 0.950 . S
C1532 C1531 1.398 . S
C1532 C1533 1.391 . S
C1533 H1521 0.950 . S
C1533 C1529 1.393 . S
C1533 C1532 1.391 . S
C1534 H1524 0.950 . S
C1534 C1535 1.386 . S
C1534 C1536 1.391 . S
C1535 C1534 1.386 . S
C1535 C1539 1.393 . S
C1536 H1525 0.950 . S
C1536 C1534 1.391 . S
C1536 C1537 1.400 . S
C1537 C1531 1.491 . S
C1537 C1536 1.400 . S
C1537 C1538 1.398 . S
C1538 H1526 0.950 . S
C1538 C1537 1.398 . S
C1538 C1539 1.391 . S
C1539 H1527 0.950 . S
C1539 C1535 1.393 . S
C1539 C1538 1.391 . S
H1540 C1548 0.950 . S
H1541 C1553 0.950 . S
H1542 C1550 0.950 . S
H1543 C1552 0.950 . S
H1544 C1554 0.950 . S
H1545 C1556 0.950 . S
H1546 C1558 0.950 . S
H1547 C1559 0.950 . S
C1548 H1540 0.950 . S
C1548 C1549 1.386 . S
C1548 C1550 1.391 . S
C1549 C1548 1.386 . S
C1549 C1553 1.393 . S
C1550 H1542 0.950 . S
C1550 C1548 1.391 . S
C1550 C1551 1.400 . S
C1551 C1550 1.400 . S
C1551 C1552 1.398 . S
C1551 C1557 1.491 . S
C1552 H1543 0.950 . S
C1552 C1551 1.398 . S
C1552 C1553 1.391 . S
C1553 H1541 0.950 . S
C1553 C1549 1.393 . S
C1553 C1552 1.391 . S
C1554 H1544 0.950 . S
C1554 C1555 1.386 . S
C1554 C1556 1.391 . S
C1555 C1554 1.386 . S
C1555 C1559 1.393 . S
C1556 H1545 0.950 . S
C1556 C1554 1.391 . S
C1556 C1557 1.400 . S
C1557 C1551 1.491 . S
C1557 C1556 1.400 . S
C1557 C1558 1.398 . S
C1558 H1546 0.950 . S
C1558 C1557 1.398 . S
C1558 C1559 1.391 . S
C1559 H1547 0.950 . S
C1559 C1555 1.393 . S
C1559 C1558 1.391 . S
H1560 C1568 0.950 . S
H1561 C1573 0.950 . S
H1562 C1570 0.950 . S
H1563 C1572 0.950 . S
H1564 C1574 0.950 . S
H1565 C1576 0.950 . S
H1566 C1578 0.950 . S
H1567 C1579 0.950 . S
C1568 H1560 0.950 . S
C1568 C1569 1.386 . S
C1568 C1570 1.391 . S
C1569 C1568 1.386 . S
C1569 C1573 1.393 . S
C1570 H1562 0.950 . S
C1570 C1568 1.391 . S
C1570 C1571 1.400 . S
C1571 C1570 1.400 . S
C1571 C1572 1.398 . S
C1571 C1577 1.491 . S
C1572 H1563 0.950 . S
C1572 C1571 1.398 . S
C1572 C1573 1.391 . S
C1573 H1561 0.950 . S
C1573 C1569 1.393 . S
C1573 C1572 1.391 . S
C1574 H1564 0.950 . S
C1574 C1575 1.386 . S
C1574 C1576 1.391 . S
C1575 C1574 1.386 . S
C1575 C1579 1.393 . S
C1576 H1565 0.950 . S
C1576 C1574 1.391 . S
C1576 C1577 1.400 . S
C1577 C1571 1.491 . S
C1577 C1576 1.400 . S
C1577 C1578 1.398 . S
C1578 H1566 0.950 . S
C1578 C1577 1.398 . S
C1578 C1579 1.391 . S
C1579 H1567 0.950 . S
C1579 C1575 1.393 . S
C1579 C1578 1.391 . S
H1580 C1588 0.950 . S
H1581 C1593 0.950 . S
H1582 C1590 0.950 . S
H1583 C1592 0.950 . S
H1584 C1594 0.950 . S
H1585 C1596 0.950 . S
H1586 C1598 0.950 . S
H1587 C1599 0.950 . S
C1588 H1580 0.950 . S
C1588 C1589 1.386 . S
C1588 C1590 1.391 . S
C1589 C1588 1.386 . S
C1589 C1593 1.393 . S
C1590 H1582 0.950 . S
C1590 C1588 1.391 . S
C1590 C1591 1.400 . S
C1591 C1590 1.400 . S
C1591 C1592 1.398 . S
C1591 C1597 1.491 . S
C1592 H1583 0.950 . S
C1592 C1591 1.398 . S
C1592 C1593 1.391 . S
C1593 H1581 0.950 . S
C1593 C1589 1.393 . S
C1593 C1592 1.391 . S
C1594 H1584 0.950 . S
C1594 C1595 1.386 . S
C1594 C1596 1.391 . S
C1595 C1594 1.386 . S
C1595 C1599 1.393 . S
C1596 H1585 0.950 . S
C1596 C1594 1.391 . S
C1596 C1597 1.400 . S
C1597 C1591 1.491 . S
C1597 C1596 1.400 . S
C1597 C1598 1.398 . S
C1598 H1586 0.950 . S
C1598 C1597 1.398 . S
C1598 C1599 1.391 . S
C1599 H1587 0.950 . S
C1599 C1595 1.393 . S
C1599 C1598 1.391 . S
C649 C26 1.667 . S
C655 C306 1.673 . S
C669 C66 1.682 . S
C675 C186 1.669 . S
C689 C226 1.683 . S
C695 C106 1.682 . S
C709 C146 1.671 . S
C715 C266 1.669 . S
C729 C453 4.185 . S
C735 C173 4.183 1_554 S
C749 C333 4.188 . S
C755 C13 4.187 1_556 S
C769 C413 4.190 . S
C775 C253 4.184 . S
C789 C93 4.188 . S
C795 C373 4.182 . S
C809 C386 1.680 . S
C815 C506 1.667 . S
C829 C426 1.672 . S
C835 C586 1.684 . S
C849 C546 1.668 . S
C855 C346 1.671 . S
C869 C466 1.667 . S
C875 C626 1.678 . S
C889 C573 4.187 . S
C895 C133 4.182 . S
C909 C493 4.189 . S
C915 C213 4.186 . S
C929 C53 4.185 . S
C935 C613 4.189 1_554 S
C949 C293 4.189 . S
C955 C533 4.185 1_556 S
C969 C522 0.800 . S
C975 C2 0.833 . S
C989 C442 0.809 . S
C995 C42 0.827 . S
C1009 C482 0.831 . S
C1015 C82 0.802 . S
C1029 C402 0.825 . S
C1035 C122 0.784 . S
C1049 C162 0.806 . S
C1055 C602 0.835 . S
C1069 C362 0.817 . S
C1075 C202 0.820 . S
C1089 C242 0.785 . S
C1095 C562 0.829 . S
C1109 C282 0.788 . S
C1115 C322 0.832 . S
C1129 C23 1.300 . S
C1135 C183 1.306 . S
C1149 C63 1.307 . S
C1155 C223 1.299 . S
C1169 C263 1.319 . S
C1175 C103 1.303 . S
C1189 C143 1.314 . S
C1195 C303 1.328 . S
C1209 C423 1.299 . S
C1215 C343 1.312 . S
C1229 C463 1.329 . S
C1235 C383 1.316 . S
C1249 C503 1.316 . S
C1255 C583 1.330 . S
C1269 C623 1.328 . S
C1275 C543 1.329 . S
C1289 C24 4.584 . S
C1295 C304 4.587 . S
C1309 C64 4.587 . S
C1315 C184 4.583 . S
C1329 C224 4.583 1_556 S
C1335 C104 4.586 . S
C1349 C264 4.584 . S
C1355 C144 4.584 1_554 S
C1369 C457 0.817 . S
C1375 C177 0.847 . S
C1389 C337 0.826 . S
C1395 C17 0.846 . S
C1409 C417 0.826 . S
C1415 C257 0.788 . S
C1429 C97 0.820 . S
C1435 C377 0.786 . S
C1449 C504 4.587 . S
C1455 C384 4.583 1_556 S
C1469 C584 4.584 . S
C1475 C424 4.586 1_554 S
C1489 C544 4.584 . S
C1495 C344 4.587 . S
C1509 C624 4.586 . S
C1515 C464 4.583 . S
C1529 C577 0.843 . S
C1535 C137 0.834 . S
C1549 C217 0.842 . S
C1555 C497 0.835 . S
C1569 C57 0.800 . S
C1575 C617 0.842 . S
C1589 C537 0.830 . S
C1595 C297 0.789 . S
