# Generated by pormake.
# Topology afw, (4)-cn, num edge types: 1
# Building blocks:
#     Node 0, Type 0, BuildingBlock: QUQFOY_clean_sbu_3, # of connection points: 4
#     Node 1, Type 0, BuildingBlock: QUQFOY_clean_sbu_3, # of connection points: 4
#     Node 2, Type 0, BuildingBlock: QUQFOY_clean_sbu_3, # of connection points: 4
#     Node 3, Type 0, BuildingBlock: QUQFOY_clean_sbu_3, # of connection points: 4
#     Node 4, Type 0, BuildingBlock: QUQFOY_clean_sbu_3, # of connection points: 4
#     Node 5, Type 0, BuildingBlock: QUQFOY_clean_sbu_3, # of connection points: 4
#     Node 6, Type 0, BuildingBlock: QUQFOY_clean_sbu_3, # of connection points: 4
#     Node 7, Type 0, BuildingBlock: QUQFOY_clean_sbu_3, # of connection points: 4
#     Node 8, Type 0, BuildingBlock: QUQFOY_clean_sbu_3, # of connection points: 4
#     Edge 9, Type (0, 0), BuildingBlock: XIVTED_clean_linker_0, # of connection points: 2
#     Edge 10, Type (0, 0), BuildingBlock: XIVTED_clean_linker_0, # of connection points: 2
#     Edge 11, Type (0, 0), BuildingBlock: XIVTED_clean_linker_0, # of connection points: 2
#     Edge 12, Type (0, 0), BuildingBlock: XIVTED_clean_linker_0, # of connection points: 2
#     Edge 13, Type (0, 0), BuildingBlock: XIVTED_clean_linker_0, # of connection points: 2
#     Edge 14, Type (0, 0), BuildingBlock: XIVTED_clean_linker_0, # of connection points: 2
#     Edge 15, Type (0, 0), BuildingBlock: XIVTED_clean_linker_0, # of connection points: 2
#     Edge 16, Type (0, 0), BuildingBlock: XIVTED_clean_linker_0, # of connection points: 2
#     Edge 17, Type (0, 0), BuildingBlock: XIVTED_clean_linker_0, # of connection points: 2
#     Edge 18, Type (0, 0), BuildingBlock: XIVTED_clean_linker_0, # of connection points: 2
#     Edge 19, Type (0, 0), BuildingBlock: XIVTED_clean_linker_0, # of connection points: 2
#     Edge 20, Type (0, 0), BuildingBlock: XIVTED_clean_linker_0, # of connection points: 2
#     Edge 21, Type (0, 0), BuildingBlock: XIVTED_clean_linker_0, # of connection points: 2
#     Edge 22, Type (0, 0), BuildingBlock: XIVTED_clean_linker_0, # of connection points: 2
#     Edge 23, Type (0, 0), BuildingBlock: XIVTED_clean_linker_0, # of connection points: 2
#     Edge 24, Type (0, 0), BuildingBlock: XIVTED_clean_linker_0, # of connection points: 2
#     Edge 25, Type (0, 0), BuildingBlock: XIVTED_clean_linker_0, # of connection points: 2
#     Edge 26, Type (0, 0), BuildingBlock: XIVTED_clean_linker_0, # of connection points: 2
# Relax obj value: 0.197
# Max RMSD: 0.207
# Mean RMSD: 0.200
data_MOF--net-afw--node1-QUQFOY_clean_sbu_3--edge1-XIVTED_clean_linker_0
_symmetry_space_group_name_H-M    P1
_symmetry_Int_Tables_number       1
_symmetry_cell_setting            triclinic
loop_
_symmetry_equiv_pos_as_xyz
'x, y, z'
_cell_length_a     46.669507
_cell_length_b     46.332383
_cell_length_c     33.249493
_cell_angle_alpha  91.044109
_cell_angle_beta   91.361509
_cell_angle_gamma 120.33868
loop_
_atom_site_label
_atom_site_type_symbol
_atom_site_fract_x
_atom_site_fract_y
_atom_site_fract_z
_atom_type_partial_charge
C0 C 0.04086 0.17826 0.07483 0.0
O1 O 0.03125 0.17756 0.11037 0.0
Cd2 Cd -0.01765 0.17995 0.12419 0.0
O3 O 0.02693 0.18443 0.04551 0.0
Cd4 Cd -0.0165 0.19983 0.03553 0.0
C5 C 0.92799 0.11975 0.05467 0.0
O6 O -0.01381 0.22952 0.09823 0.0
O7 O 0.93994 0.20742 0.06305 0.0
O8 O 0.0202 0.25088 0.0017 0.0
C9 C -0.04219 0.22647 0.09234 0.0
O10 O 0.93716 0.12868 0.09142 0.0
C11 C 0.00306 0.24294 0.96893 0.0
O12 O 0.94176 0.14037 0.02678 0.0
O13 O -0.02294 0.2141 0.96633 0.0
C14 C 0.84095 0.81123 0.96126 0.0
O15 O 0.8332 0.81681 0.92657 0.0
Cd16 Cd 0.78335 0.81771 0.91148 0.0
O17 O 0.82101 0.80376 -0.01004 0.0
Cd18 Cd 0.76443 0.79356 0.00178 0.0
C19 C 0.79279 0.87564 -0.01498 0.0
O20 O 0.73993 0.7673 0.93684 0.0
O21 O 0.70967 0.77961 0.97337 0.0
O22 O 0.75223 0.74272 0.03468 0.0
C23 C 0.71233 0.76563 0.94167 0.0
O24 O 0.79212 0.86782 0.94795 0.0
C25 C 0.74217 0.74904 0.06695 0.0
O26 O 0.78508 0.8538 0.01182 0.0
O27 O 0.74401 0.77733 0.07023 0.0
C28 C 0.08056 0.92061 0.02437 0.0
O29 O 0.09036 0.92687 0.0611 0.0
Cd30 Cd 0.14378 -0.02743 0.08239 0.0
O31 O 0.09992 0.93752 -0.00324 0.0
Cd32 Cd 0.15785 -0.01753 -0.01239 0.0
C33 C 0.14004 0.03639 0.03303 0.0
O34 O 0.18392 -0.03058 0.04298 0.0
O35 O 0.21246 0.01854 0.01887 0.0
O36 O 0.15621 0.94503 0.93486 0.0
C37 C 0.211 -0.00287 0.04316 0.0
O38 O 0.14139 0.02247 0.0652 0.0
C39 C 0.17323 0.96759 0.91041 0.0
O40 O 0.14276 0.02548 -0.00135 0.0
O41 O 0.18224 -0.00243 0.92105 0.0
C42 C 0.55735 0.43388 0.27141 0.0
O43 O 0.56725 0.44458 0.23659 0.0
Cd44 Cd 0.61224 0.50013 0.22401 0.0
O45 O 0.56867 0.45378 0.30217 0.0
Cd46 Cd 0.60691 0.51437 0.31784 0.0
C47 C 0.66942 0.50148 0.29342 0.0
O48 O 0.60457 0.54152 0.25653 0.0
O49 O 0.64587 0.57098 0.2987 0.0
O50 O 0.56419 0.52003 0.35032 0.0
C51 C 0.63048 0.56937 0.26601 0.0
O52 O 0.65991 0.50154 0.25719 0.0
C53 C 0.57884 0.52885 0.38477 0.0
O54 O 0.65351 0.50362 0.32296 0.0
O55 O 0.60647 0.52975 0.3889 0.0
C56 C 0.51053 0.1317 0.27237 0.0
O57 O 0.49716 0.12724 0.23739 0.0
Cd58 Cd 0.44312 0.11984 0.22542 0.0
O59 O 0.49397 0.12871 0.30351 0.0
Cd60 Cd 0.43655 0.11228 0.32125 0.0
C61 C 0.45316 0.18677 0.28626 0.0
O62 O 0.40494 0.07562 0.26447 0.0
O63 O 0.38079 0.09733 0.29772 0.0
O64 O 0.43207 0.06587 0.3575 0.0
C65 C 0.37898 0.07717 0.27008 0.0
O66 O 0.44918 0.17224 0.25193 0.0
C67 C 0.42379 0.07296 0.39064 0.0
O68 O 0.45197 0.17183 0.31866 0.0
O69 O 0.42317 0.10013 0.39286 0.0
C70 C 0.80735 0.39662 0.29194 0.0
O71 O 0.81222 0.38921 0.2568 0.0
Cd72 Cd 0.81996 0.34267 0.24264 0.0
O73 O 0.80981 0.38142 0.32216 0.0
Cd74 Cd 0.82605 0.33911 0.33583 0.0
C75 C 0.75365 0.28148 0.29278 0.0
O76 O 0.86526 0.34765 0.28303 0.0
O77 O 0.84191 0.29989 0.31133 0.0
O78 O 0.86365 0.37735 0.38822 0.0
C79 C 0.86319 0.3195 0.28727 0.0
O80 O 0.7677 0.29296 0.25971 0.0
C81 C 0.8555 0.35544 0.41472 0.0
O82 O 0.76847 0.29514 0.32638 0.0
O83 O 0.83267 0.32582 0.40497 0.0
C84 C 0.36094 0.83786 0.71769 0.0
O85 O 0.3519 0.8414 0.75225 0.0
Cd86 Cd 0.30222 0.84425 0.75931 0.0
O87 O 0.34705 0.84125 0.68617 0.0
Cd88 Cd 0.30559 0.85771 0.66807 0.0
C89 C 0.25094 0.77897 0.69268 0.0
O90 O 0.30409 0.89025 0.72574 0.0
O91 O 0.26006 0.86585 0.68625 0.0
O92 O 0.3471 0.90791 0.63772 0.0
C93 C 0.27582 0.88619 0.71557 0.0
O94 O 0.25929 0.79093 0.72864 0.0
C95 C 0.33362 0.90106 0.60263 0.0
O96 O 0.26474 0.79735 0.66284 0.0
O97 O 0.30713 0.87279 0.59692 0.0
C98 C 0.15807 0.45746 0.6377 0.0
O99 O 0.14842 0.45786 0.60181 0.0
Cd100 Cd 0.09938 0.46176 0.58952 0.0
O101 O 0.14025 0.45577 0.66692 0.0
Cd102 Cd 0.08639 0.44989 0.68223 0.0
C103 C 0.11953 0.5297 0.65356 0.0
O104 O 0.05257 0.41916 0.62299 0.0
O105 O 0.03455 0.4455 0.65953 0.0
O106 O 0.07242 0.39903 0.71527 0.0
C107 C 0.02953 0.4253 0.63028 0.0
O108 O 0.11534 0.51708 0.61802 0.0
C109 C 0.06853 0.40814 0.7499 0.0
O110 O 0.11248 0.5113 0.68412 0.0
O111 O 0.07356 0.43777 0.754 0.0
C112 C 0.39549 0.57185 0.71377 0.0
O113 O 0.40382 0.58144 0.75039 0.0
Cd114 Cd 0.45619 0.62975 0.77177 0.0
O115 O 0.4159 0.5864 0.68617 0.0
Cd116 Cd 0.47374 0.63077 0.67741 0.0
C117 C 0.4549 0.6887 0.70986 0.0
O118 O 0.4998 0.62731 0.73994 0.0
O119 O 0.52847 0.67085 0.70429 0.0
O120 O 0.48416 0.5916 0.6417 0.0
C121 C 0.5268 0.65453 0.73522 0.0
O122 O 0.45441 0.67717 0.74451 0.0
C123 C 0.49186 0.60676 0.60884 0.0
O124 O 0.45922 0.67536 0.67833 0.0
O125 O 0.49006 0.63323 0.60684 0.0
H126 H 0.12292 0.06543 0.97262 0.0
H127 H 0.07978 0.16893 0.12973 0.0
H128 H 0.1424 0.07147 0.10102 0.0
H129 H 0.05673 0.16205 0.00214 0.0
H130 H 0.11141 0.14112 0.11763 0.0
H131 H 0.10658 0.10779 0.98079 0.0
C132 C 0.12414 0.07591 0.00242 0.0
C133 C 0.13354 0.06447 0.03625 0.0
C134 C 0.0998 0.14603 0.09216 0.0
C135 C 0.11494 0.11287 0.04579 0.0
C136 C 0.08177 0.16202 0.09907 0.0
C137 C 0.06512 0.16738 0.06699 0.0
C138 C 0.10096 0.13495 0.05293 0.0
C139 C 0.06893 0.15818 0.02784 0.0
C140 C 0.1148 0.10007 0.00707 0.0
C141 C 0.13482 0.07909 0.07412 0.0
N142 N 0.08602 0.14193 0.02196 0.0
N143 N 0.12536 0.10225 0.07787 0.0
H144 H 0.80593 0.90474 0.06121 0.0
H145 H 0.90202 0.0906 0.97997 0.0
H146 H 0.8098 0.92801 0.93556 0.0
H147 H 0.89601 0.06822 0.10606 0.0
H148 H 0.86379 0.03135 0.96367 0.0
H149 H 0.83411 0.96461 0.07885 0.0
C150 C 0.8123 0.92235 0.03735 0.0
C151 C 0.80577 0.91126 -0.00319 0.0
C152 C 0.87062 0.03943 -0.00506 0.0
C153 C 0.8383 -0.02013 0.01678 0.0
C154 C 0.89248 0.07331 0.00427 0.0
C155 C 0.90255 0.08445 0.04443 0.0
C156 C 0.85881 0.01642 0.02594 0.0
C157 C 0.88917 0.06082 0.07464 0.0
C158 C 0.82848 0.95657 0.04744 0.0
C159 C 0.81458 0.93532 0.96722 0.0
N160 N 0.86824 0.02793 0.06475 0.0
N161 N 0.83062 0.96842 0.97777 0.0
H162 H 0.86869 0.80739 0.03314 0.0
H163 H 0.05113 0.89979 0.94907 0.0
H164 H 0.89033 0.82811 0.90787 0.0
H165 H 0.03023 0.88394 0.07518 0.0
H166 H -0.008 0.86417 0.93229 0.0
H167 H 0.92703 0.82563 0.04763 0.0
C168 C 0.88557 0.8153 0.00856 0.0
C169 C 0.8747 0.81683 0.96934 0.0
C170 C 0.00038 0.86816 0.96362 0.0
C171 C 0.94154 0.83794 -0.0142 0.0
C172 C 0.03417 0.88852 0.97325 0.0
C173 C 0.04561 0.89538 0.01365 0.0
C174 C -0.0222 0.85471 -0.00539 0.0
C175 C 0.0225 0.87971 0.04364 0.0
C176 C 0.91892 0.82576 0.01688 0.0
C177 C 0.89766 0.82698 0.93866 0.0
N178 N -0.01038 0.86046 0.03353 0.0
N179 N 0.93008 0.83757 0.94765 0.0
H180 H 0.8079 0.44023 0.23727 0.0
H181 H 0.68585 0.47838 0.36084 0.0
H182 H 0.78017 0.408 0.35839 0.0
H183 H 0.71709 0.51142 0.24085 0.0
H184 H 0.72689 0.4602 0.36545 0.0
H185 H 0.78162 0.47403 0.24281 0.0
C186 C 0.79659 0.44054 0.26522 0.0
C187 C 0.79582 0.42086 0.29718 0.0
C188 C 0.72507 0.47191 0.33838 0.0
C189 C 0.76521 0.45927 0.30362 0.0
C190 C 0.70175 0.48241 0.33582 0.0
C191 C 0.69765 0.49588 0.30015 0.0
C192 C 0.74433 0.47501 0.30505 0.0
C193 C 0.71895 0.50058 0.26867 0.0
C194 C 0.78156 0.45989 0.26841 0.0
C195 C 0.78113 0.4226 0.33287 0.0
N196 N 0.74104 0.48983 0.2717 0.0
N197 N 0.76594 0.44105 0.33492 0.0
H198 H 0.44674 0.22125 0.22459 0.0
H199 H 0.54196 0.39941 0.34155 0.0
H200 H 0.4784 0.23325 0.34987 0.0
H201 H 0.52244 0.38516 0.21301 0.0
H202 H 0.51107 0.33855 0.34802 0.0
H203 H 0.46626 0.28075 0.22316 0.0
C204 C 0.45761 0.23636 0.25199 0.0
C205 C 0.46133 0.22218 0.2873 0.0
C206 C 0.51328 0.34881 0.31849 0.0
C207 C 0.48405 0.29087 0.28572 0.0
C208 C 0.53078 0.38356 0.31474 0.0
C209 C 0.53507 0.39749 0.27658 0.0
C210 C 0.49979 0.32784 0.28387 0.0
C211 C 0.52006 0.37564 0.24298 0.0
C212 C 0.46879 0.27045 0.2511 0.0
C213 C 0.47519 0.2431 0.32194 0.0
N214 N 0.5033 0.342 0.24741 0.0
N215 N 0.48639 0.2765 0.32017 0.0
H216 H 0.55366 0.14045 0.21306 0.0
H217 H 0.71333 0.25299 0.35638 0.0
H218 H 0.54981 0.15249 0.34158 0.0
H219 H 0.7154 0.24464 0.22701 0.0
H220 H 0.65484 0.20908 0.35307 0.0
H221 H 0.61414 0.17064 0.2194 0.0
C222 C 0.56549 0.14901 0.24272 0.0
C223 C 0.54661 0.14443 0.27675 0.0
C224 C 0.6682 0.21665 0.32547 0.0
C225 C 0.61593 0.17939 0.28414 0.0
C226 C 0.7016 0.24175 0.32731 0.0
C227 C 0.71919 0.2529 0.29185 0.0
C228 C 0.65228 0.20264 0.2879 0.0
C229 C 0.70275 0.23719 0.25509 0.0
C230 C 0.60007 0.16633 0.2463 0.0
C231 C 0.56335 0.15576 0.31445 0.0
N232 N 0.67017 0.21309 0.25406 0.0
N233 N 0.59709 0.17315 0.31705 0.0
H234 H 0.39873 0.83174 0.77747 0.0
H235 H 0.43784 0.71201 0.64289 0.0
H236 H 0.37574 0.81425 0.64968 0.0
H237 H 0.45874 0.73054 0.77094 0.0
H238 H 0.42243 0.75546 0.64212 0.0
H239 H 0.42883 0.80156 0.77293 0.0
C240 C 0.40041 0.82199 0.74832 0.0
C241 C 0.38427 0.82517 0.71403 0.0
C242 C 0.43076 0.75021 0.67026 0.0
C243 C 0.41831 0.78997 0.70867 0.0
C244 C 0.43959 0.72546 0.67069 0.0
C245 C 0.44908 0.71723 0.70712 0.0
C246 C 0.43156 0.76683 0.7065 0.0
C247 C 0.45102 0.73557 0.74223 0.0
C248 C 0.41755 0.80463 0.74573 0.0
C249 C 0.38759 0.81221 0.67699 0.0
N250 N 0.4421 0.75922 0.74107 0.0
N251 N 0.40381 0.79473 0.67538 0.0
H252 H 0.21684 0.73339 0.74971 0.0
H253 H 0.13839 0.57589 0.59487 0.0
H254 H 0.22997 0.74158 0.62146 0.0
H255 H 0.13494 0.5676 0.72405 0.0
H256 H 0.16647 0.63657 0.60361 0.0
H257 H 0.18136 0.67301 0.74013 0.0
C258 C 0.21209 0.72257 0.71942 0.0
C259 C 0.22672 0.74271 0.68634 0.0
C260 C 0.15943 0.6215 0.63005 0.0
C261 C 0.18601 0.67323 0.67527 0.0
C262 C 0.14333 0.58676 0.62514 0.0
C263 C 0.13443 0.56647 0.65882 0.0
C264 C 0.16677 0.63627 0.66894 0.0
C265 C 0.14142 0.58216 0.69721 0.0
C266 C 0.19182 0.68799 0.71404 0.0
C267 C 0.21938 0.72711 0.64787 0.0
N268 N 0.15731 0.61612 0.70121 0.0
N269 N 0.19971 0.69329 0.64343 0.0
H270 H 0.20793 0.47268 0.58506 0.0
H271 H 0.34447 0.53495 0.76372 0.0
H272 H 0.18525 0.45552 0.71058 0.0
H273 H 0.36771 0.54893 0.63807 0.0
H274 H 0.28607 0.49776 0.74403 0.0
H275 H 0.26616 0.49216 0.60282 0.0
C276 C 0.21504 0.47241 0.61624 0.0
C277 C 0.19177 0.46306 0.64646 0.0
C278 C 0.304 0.50862 0.72074 0.0
C279 C 0.25839 0.48568 0.66704 0.0
C280 C 0.33739 0.52989 0.73199 0.0
C281 C 0.36098 0.54558 0.70254 0.0
C282 C 0.29407 0.50321 0.67975 0.0
C283 C 0.35035 0.53776 0.66187 0.0
C284 C 0.24833 0.48364 0.62639 0.0
C285 C 0.20241 0.46304 0.68633 0.0
N286 N 0.31762 0.51752 0.65169 0.0
N287 N 0.235 0.47466 0.69551 0.0
H288 H -0.02008 0.23026 0.89036 0.0
H289 H 0.07286 0.42213 0.83136 0.0
H290 H 0.04699 0.3102 0.97331 0.0
H291 H 0.04048 0.34057 0.74397 0.0
H292 H 0.05647 0.38177 0.88537 0.0
H293 H -0.00495 0.27096 0.83726 0.0
C294 C -0.00217 0.25634 0.89737 0.0
C295 C 0.01237 0.26686 0.93618 0.0
C296 C 0.053 0.37284 0.85431 0.0
C297 C 0.02937 0.31349 0.87593 0.0
C298 C 0.06219 0.39579 0.82357 0.0
C299 C 0.05816 0.38467 0.78321 0.0
C300 C 0.03916 0.33861 0.84443 0.0
C301 C 0.04425 0.35026 0.77471 0.0
C302 C 0.00647 0.27952 0.8671 0.0
C303 C 0.03539 0.30099 0.94368 0.0
N304 N 0.03513 0.32845 0.80502 0.0
N305 N 0.04306 0.32315 0.91388 0.0
H306 H 0.71707 0.75284 0.86275 0.0
H307 H 0.52301 0.64158 0.81542 0.0
H308 H 0.6459 0.74016 0.95145 0.0
H309 H 0.59195 0.69955 0.72501 0.0
H310 H 0.56839 0.66831 0.86676 0.0
H311 H 0.67155 0.72411 0.81236 0.0
C312 C 0.69183 0.74395 0.87158 0.0
C313 C 0.68511 0.74893 0.91116 0.0
C314 C 0.57345 0.675 0.83562 0.0
C315 C 0.63319 0.71574 0.85406 0.0
C316 C 0.54775 0.65967 0.80639 0.0
C317 C 0.55389 0.66851 0.76608 0.0
C318 C 0.60546 0.69868 0.82412 0.0
C319 C 0.58624 0.69222 0.75585 0.0
C320 C 0.66597 0.72768 0.84286 0.0
C321 C 0.65204 0.73699 0.9211 0.0
N322 N 0.61092 0.70639 0.7847 0.0
N323 N 0.62715 0.72066 0.89272 0.0
H324 H 0.30661 0.9404 0.76795 0.0
H325 H 0.14294 0.90879 0.86669 0.0
H326 H 0.21026 0.86761 0.71648 0.0
H327 H 0.23065 0.00697 0.87189 0.0
H328 H 0.1672 0.89186 0.81332 0.0
H329 H 0.28004 0.9641 0.80909 0.0
C330 C 0.27991 0.92953 0.76521 0.0
C331 C 0.26055 0.90188 0.73904 0.0
C332 C 0.18089 0.91729 0.82565 0.0
C333 C 0.23014 0.92859 0.78603 0.0
C334 C 0.16708 0.92693 0.85605 0.0
C335 C 0.18491 0.95927 0.87364 0.0
C336 C 0.2131 0.93985 0.81363 0.0
C337 C 0.21609 -0.01816 0.85889 0.0
C338 C 0.26483 0.94319 0.78842 0.0
C339 C 0.22609 0.88888 0.73637 0.0
N340 N 0.22955 -0.02849 0.83021 0.0
N341 N 0.2119 0.90205 0.76003 0.0
H342 H 0.33553 0.09839 0.2519 0.0
H343 H 0.2252 0.95673 0.08796 0.0
H344 H 0.35977 0.0227 0.21999 0.0
H345 H 0.2525 0.05989 0.07423 0.0
H346 H 0.26485 -0.02588 0.14599 0.0
H347 H 0.29347 0.07719 0.19676 0.0
C348 C 0.33163 0.07699 0.23367 0.0
C349 C 0.35117 0.06232 0.24018 0.0
C350 C 0.26207 -0.00721 0.13002 0.0
C351 C 0.30324 0.03803 0.1777 0.0
C352 C 0.23962 -0.01703 0.09711 0.0
C353 C 0.23586 0.00698 0.07632 0.0
C354 C 0.27994 0.02661 0.14264 0.0
C355 C 0.25493 0.04065 0.08926 0.0
C356 C 0.30788 0.06513 0.20216 0.0
C357 C 0.34528 0.03477 0.21561 0.0
N358 N 0.27593 0.04945 0.12193 0.0
N359 N 0.32168 0.02337 0.18534 0.0
H360 H 0.89295 0.20408 0.10703 0.0
H361 H 0.91996 0.35628 0.24575 0.0
H362 H -0.00748 0.28193 0.1422 0.0
H363 H 0.84292 0.25489 0.26631 0.0
H364 H -0.05531 0.3344 0.19816 0.0
H365 H 0.8711 0.22773 0.15555 0.0
C366 C 0.91019 0.22626 0.12483 0.0
C367 C -0.05544 0.24106 0.12086 0.0
C368 C 0.92247 0.31712 0.21339 0.0
C369 C 0.91976 0.26835 0.1757 0.0
C370 C 0.90836 0.32951 0.2403 0.0
C371 C 0.87946 0.30732 0.25994 0.0
C372 C 0.90692 0.2825 0.20544 0.0
C373 C 0.86533 0.27285 0.25196 0.0
C374 C 0.89773 0.2396 0.15255 0.0
C375 C -0.03416 0.26972 0.1447 0.0
N376 N 0.87898 0.26151 0.22494 0.0
N377 N -0.04693 0.28269 0.17102 0.0
H378 H 0.67442 0.63541 0.28374 0.0
H379 H 0.71816 0.68222 0.05719 0.0
H380 H 0.61988 0.56625 0.18447 0.0
H381 H 0.73026 0.75718 0.14582 0.0
H382 H 0.68931 0.63904 0.10608 0.0
H383 H 0.70152 0.68041 0.23593 0.0
C384 C 0.66802 0.62978 0.25191 0.0
C385 C 0.64491 0.59712 0.23794 0.0
C386 C 0.6983 0.66494 0.11481 0.0
C387 C 0.67619 0.6481 0.1834 0.0
C388 C 0.71501 0.68965 0.08709 0.0
C389 C 0.72665 0.72336 0.09752 0.0
C390 C 0.69372 0.674 0.15354 0.0
C391 C 0.72162 0.73147 0.1366 0.0
C392 C 0.68342 0.65542 0.22477 0.0
C393 C 0.63744 0.59112 0.19647 0.0
N394 N 0.70568 0.70693 0.1634 0.0
N395 N 0.65337 0.61631 0.17057 0.0
H396 H 0.00294 0.3699 0.58012 0.0
H397 H 0.88964 0.41621 0.45415 0.0
H398 H -0.01182 0.45042 0.62017 0.0
H399 H 0.86486 0.31336 0.46228 0.0
H400 H 0.92796 0.43098 0.51263 0.0
H401 H -0.04524 0.34994 0.53338 0.0
C402 C -0.01056 0.38325 0.57917 0.0
C403 C -0.00044 0.41192 0.60374 0.0
C404 C 0.91368 0.4051 0.502 0.0
C405 C -0.05503 0.38955 0.55037 0.0
C406 C 0.89192 0.39669 0.46868 0.0
C407 C 0.87427 0.36358 0.45344 0.0
C408 C 0.91842 0.38037 0.51933 0.0
C409 C 0.87802 0.33917 0.47327 0.0
C410 C -0.03811 0.37174 0.55279 0.0
C411 C -0.01886 0.42822 0.60164 0.0
N412 N 0.90025 0.34817 0.50481 0.0
N413 N -0.04502 0.4171 0.57488 0.0
H414 H 0.53216 0.54749 0.37845 0.0
H415 H 0.51557 0.56401 0.61335 0.0
H416 H 0.59414 0.53423 0.46574 0.0
H417 H 0.49564 0.62194 0.52888 0.0
H418 H 0.53664 0.54468 0.55885 0.0
H419 H 0.51065 0.5667 0.43275 0.0
C420 C 0.54108 0.5484 0.4091 0.0
C421 C 0.56494 0.53922 0.41769 0.0
C422 C 0.52766 0.56162 0.55228 0.0
C423 C 0.54026 0.56092 0.47973 0.0
C424 C 0.51545 0.57252 0.58325 0.0
C425 C 0.50381 0.5946 0.57555 0.0
C426 C 0.52766 0.57233 0.51315 0.0
C427 C 0.50446 0.60499 0.53606 0.0
C428 C 0.52894 0.55956 0.43994 0.0
C429 C 0.5758 0.54113 0.45785 0.0
N430 N 0.51599 0.59355 0.50617 0.0
N431 N 0.56319 0.55156 0.4875 0.0
H432 H 0.32224 0.89067 0.52078 0.0
H433 H 0.41606 0.08364 0.47039 0.0
H434 H 0.37638 0.96811 0.61246 0.0
H435 H 0.4056 0.00725 0.38508 0.0
H436 H 0.39458 0.04155 0.52259 0.0
H437 H 0.34541 0.93323 0.46938 0.0
C438 C 0.33898 0.91657 0.53005 0.0
C439 C 0.34757 0.92587 0.57084 0.0
C440 C 0.39721 0.03419 0.49242 0.0
C441 C 0.37358 -0.02548 0.51257 0.0
C442 C 0.40941 0.05813 0.46272 0.0
C443 C 0.41277 0.04896 0.42346 0.0
C444 C 0.38763 0.00082 0.48242 0.0
C445 C 0.40366 0.01549 0.41504 0.0
C446 C 0.35224 0.94077 0.50079 0.0
C447 C 0.36934 0.95982 0.58128 0.0
N448 N 0.39122 -0.00741 0.44416 0.0
N449 N 0.3814 -0.01703 0.55236 0.0
loop_
_geom_bond_atom_site_label_1
_geom_bond_atom_site_label_2
_geom_bond_distance
_geom_bond_site_symmetry_2
_ccdc_geom_bond_type
C0 O1 1.306 . S
C0 O3 1.160 . S
O1 C0 1.306 . S
O1 Cd2 2.228 . S
Cd2 O1 2.228 . S
Cd2 O6 2.273 . S
Cd2 O10 2.277 1_455 S
O3 C0 1.160 . S
O3 Cd4 2.203 . S
Cd4 O3 2.203 . S
Cd4 O6 2.411 . S
Cd4 O7 2.333 1_455 S
Cd4 O8 2.352 1_554 S
Cd4 O12 2.277 1_454 S
Cd4 O13 2.356 1_554 S
C5 O10 1.209 . S
C5 O12 1.226 1_554 S
O6 Cd2 2.273 . S
O6 Cd4 2.411 . S
O6 C9 1.320 1_455 S
O7 Cd4 2.333 1_655 S
O7 C9 1.214 . S
O8 Cd4 2.352 1_556 S
O8 C11 1.258 . S
C9 O6 1.320 1_655 S
C9 O7 1.214 . S
O10 Cd2 2.277 1_655 S
O10 C5 1.209 . S
C11 O8 1.258 . S
C11 O13 1.282 . S
O12 Cd4 2.277 1_656 S
O12 C5 1.226 1_556 S
O13 Cd4 2.356 1_556 S
O13 C11 1.282 . S
C14 O15 1.306 1_554 S
C14 O17 1.160 . S
O15 C14 1.306 1_556 S
O15 Cd16 2.228 . S
Cd16 O15 2.228 . S
Cd16 O20 2.273 . S
Cd16 O24 2.277 . S
O17 C14 1.160 . S
O17 Cd18 2.203 . S
Cd18 O17 2.203 . S
Cd18 O20 2.411 1_554 S
Cd18 O21 2.333 . S
Cd18 O22 2.352 . S
Cd18 O26 2.277 . S
Cd18 O27 2.356 . S
C19 O24 1.209 1_554 S
C19 O26 1.226 . S
O20 Cd16 2.273 . S
O20 Cd18 2.411 1_556 S
O20 C23 1.320 . S
O21 Cd18 2.333 . S
O21 C23 1.214 1_554 S
O22 Cd18 2.352 . S
O22 C25 1.258 . S
C23 O20 1.320 . S
C23 O21 1.214 1_556 S
O24 Cd16 2.277 . S
O24 C19 1.209 1_556 S
C25 O22 1.258 . S
C25 O27 1.282 . S
O26 Cd18 2.277 . S
O26 C19 1.226 . S
O27 Cd18 2.356 . S
O27 C25 1.282 . S
C28 O29 1.306 . S
C28 O31 1.160 1_554 S
O29 C28 1.306 . S
O29 Cd30 2.228 1_565 S
Cd30 O29 2.228 1_545 S
Cd30 O34 2.273 . S
Cd30 O38 2.277 . S
O31 C28 1.160 1_556 S
O31 Cd32 2.203 1_566 S
Cd32 O31 2.203 1_544 S
Cd32 O34 2.411 . S
Cd32 O35 2.333 . S
Cd32 O36 2.352 1_544 S
Cd32 O40 2.277 1_554 S
Cd32 O41 2.356 1_554 S
C33 O38 1.209 . S
C33 O40 1.226 1_554 S
O34 Cd30 2.273 . S
O34 Cd32 2.411 . S
O34 C37 1.320 . S
O35 Cd32 2.333 . S
O35 C37 1.214 . S
O36 Cd32 2.352 1_566 S
O36 C39 1.258 . S
C37 O34 1.320 . S
C37 O35 1.214 . S
O38 Cd30 2.277 . S
O38 C33 1.209 . S
C39 O36 1.258 . S
C39 O41 1.282 1_565 S
O40 Cd32 2.277 1_556 S
O40 C33 1.226 1_556 S
O41 Cd32 2.356 1_556 S
O41 C39 1.282 1_545 S
C42 O43 1.306 . S
C42 O45 1.160 . S
O43 C42 1.306 . S
O43 Cd44 2.228 . S
Cd44 O43 2.228 . S
Cd44 O48 2.273 . S
Cd44 O52 2.277 . S
O45 C42 1.160 . S
O45 Cd46 2.203 . S
Cd46 O45 2.203 . S
Cd46 O48 2.411 . S
Cd46 O49 2.333 . S
Cd46 O50 2.352 . S
Cd46 O54 2.277 . S
Cd46 O55 2.356 . S
C47 O52 1.209 . S
C47 O54 1.226 . S
O48 Cd44 2.273 . S
O48 Cd46 2.411 . S
O48 C51 1.320 . S
O49 Cd46 2.333 . S
O49 C51 1.214 . S
O50 Cd46 2.352 . S
O50 C53 1.258 . S
C51 O48 1.320 . S
C51 O49 1.214 . S
O52 Cd44 2.277 . S
O52 C47 1.209 . S
C53 O50 1.258 . S
C53 O55 1.282 . S
O54 Cd46 2.277 . S
O54 C47 1.226 . S
O55 Cd46 2.356 . S
O55 C53 1.282 . S
C56 O57 1.306 . S
C56 O59 1.160 . S
O57 C56 1.306 . S
O57 Cd58 2.228 . S
Cd58 O57 2.228 . S
Cd58 O62 2.273 . S
Cd58 O66 2.277 . S
O59 C56 1.160 . S
O59 Cd60 2.203 . S
Cd60 O59 2.203 . S
Cd60 O62 2.411 . S
Cd60 O63 2.333 . S
Cd60 O64 2.352 . S
Cd60 O68 2.277 . S
Cd60 O69 2.356 . S
C61 O66 1.209 . S
C61 O68 1.226 . S
O62 Cd58 2.273 . S
O62 Cd60 2.411 . S
O62 C65 1.320 . S
O63 Cd60 2.333 . S
O63 C65 1.214 . S
O64 Cd60 2.352 . S
O64 C67 1.258 . S
C65 O62 1.320 . S
C65 O63 1.214 . S
O66 Cd58 2.277 . S
O66 C61 1.209 . S
C67 O64 1.258 . S
C67 O69 1.282 . S
O68 Cd60 2.277 . S
O68 C61 1.226 . S
O69 Cd60 2.356 . S
O69 C67 1.282 . S
C70 O71 1.306 . S
C70 O73 1.160 . S
O71 C70 1.306 . S
O71 Cd72 2.228 . S
Cd72 O71 2.228 . S
Cd72 O76 2.273 . S
Cd72 O80 2.277 . S
O73 C70 1.160 . S
O73 Cd74 2.203 . S
Cd74 O73 2.203 . S
Cd74 O76 2.411 . S
Cd74 O77 2.333 . S
Cd74 O78 2.352 . S
Cd74 O82 2.277 . S
Cd74 O83 2.356 . S
C75 O80 1.209 . S
C75 O82 1.226 . S
O76 Cd72 2.273 . S
O76 Cd74 2.411 . S
O76 C79 1.320 . S
O77 Cd74 2.333 . S
O77 C79 1.214 . S
O78 Cd74 2.352 . S
O78 C81 1.258 . S
C79 O76 1.320 . S
C79 O77 1.214 . S
O80 Cd72 2.277 . S
O80 C75 1.209 . S
C81 O78 1.258 . S
C81 O83 1.282 . S
O82 Cd74 2.277 . S
O82 C75 1.226 . S
O83 Cd74 2.356 . S
O83 C81 1.282 . S
C84 O85 1.306 . S
C84 O87 1.160 . S
O85 C84 1.306 . S
O85 Cd86 2.228 . S
Cd86 O85 2.228 . S
Cd86 O90 2.273 . S
Cd86 O94 2.277 . S
O87 C84 1.160 . S
O87 Cd88 2.203 . S
Cd88 O87 2.203 . S
Cd88 O90 2.411 . S
Cd88 O91 2.333 . S
Cd88 O92 2.352 . S
Cd88 O96 2.277 . S
Cd88 O97 2.356 . S
C89 O94 1.209 . S
C89 O96 1.226 . S
O90 Cd86 2.273 . S
O90 Cd88 2.411 . S
O90 C93 1.320 . S
O91 Cd88 2.333 . S
O91 C93 1.214 . S
O92 Cd88 2.352 . S
O92 C95 1.258 . S
C93 O90 1.320 . S
C93 O91 1.214 . S
O94 Cd86 2.277 . S
O94 C89 1.209 . S
C95 O92 1.258 . S
C95 O97 1.282 . S
O96 Cd88 2.277 . S
O96 C89 1.226 . S
O97 Cd88 2.356 . S
O97 C95 1.282 . S
C98 O99 1.306 . S
C98 O101 1.160 . S
O99 C98 1.306 . S
O99 Cd100 2.228 . S
Cd100 O99 2.228 . S
Cd100 O104 2.273 . S
Cd100 O108 2.277 . S
O101 C98 1.160 . S
O101 Cd102 2.203 . S
Cd102 O101 2.203 . S
Cd102 O104 2.411 . S
Cd102 O105 2.333 . S
Cd102 O106 2.352 . S
Cd102 O110 2.277 . S
Cd102 O111 2.356 . S
C103 O108 1.209 . S
C103 O110 1.226 . S
O104 Cd100 2.273 . S
O104 Cd102 2.411 . S
O104 C107 1.320 . S
O105 Cd102 2.333 . S
O105 C107 1.214 . S
O106 Cd102 2.352 . S
O106 C109 1.258 . S
C107 O104 1.320 . S
C107 O105 1.214 . S
O108 Cd100 2.277 . S
O108 C103 1.209 . S
C109 O106 1.258 . S
C109 O111 1.282 . S
O110 Cd102 2.277 . S
O110 C103 1.226 . S
O111 Cd102 2.356 . S
O111 C109 1.282 . S
C112 O113 1.306 . S
C112 O115 1.160 . S
O113 C112 1.306 . S
O113 Cd114 2.228 . S
Cd114 O113 2.228 . S
Cd114 O118 2.273 . S
Cd114 O122 2.277 . S
O115 C112 1.160 . S
O115 Cd116 2.203 . S
Cd116 O115 2.203 . S
Cd116 O118 2.411 . S
Cd116 O119 2.333 . S
Cd116 O120 2.352 . S
Cd116 O124 2.277 . S
Cd116 O125 2.356 . S
C117 O122 1.209 . S
C117 O124 1.226 . S
O118 Cd114 2.273 . S
O118 Cd116 2.411 . S
O118 C121 1.320 . S
O119 Cd116 2.333 . S
O119 C121 1.214 . S
O120 Cd116 2.352 . S
O120 C123 1.258 . S
C121 O118 1.320 . S
C121 O119 1.214 . S
O122 Cd114 2.277 . S
O122 C117 1.209 . S
C123 O120 1.258 . S
C123 O125 1.282 . S
O124 Cd116 2.277 . S
O124 C117 1.226 . S
O125 Cd116 2.356 . S
O125 C123 1.282 . S
H126 C132 0.930 . S
H127 C136 0.930 . S
H128 C141 0.929 . S
H129 C139 0.929 . S
H130 C134 0.929 . S
H131 C140 0.929 . S
C132 H126 0.930 . S
C132 C133 1.367 1_556 S
C132 C140 1.378 . S
C133 C132 1.367 1_554 S
C133 C141 1.433 . S
C134 H130 0.929 . S
C134 C136 1.378 . S
C134 C138 1.350 . S
C135 C138 1.463 . S
C135 C140 1.350 1_554 S
C135 N143 1.427 . S
C136 H127 0.930 . S
C136 C134 1.378 . S
C136 C137 1.367 . S
C137 C136 1.367 . S
C137 C139 1.433 1_554 S
C138 C134 1.350 . S
C138 C135 1.463 . S
C138 N142 1.427 1_554 S
C139 H129 0.929 . S
C139 C137 1.433 1_556 S
C139 N142 1.384 . S
C140 H131 0.929 . S
C140 C132 1.378 . S
C140 C135 1.350 1_556 S
C141 H128 0.929 . S
C141 C133 1.433 . S
C141 N143 1.384 . S
N142 C138 1.427 1_556 S
N142 C139 1.384 . S
N143 C135 1.427 . S
N143 C141 1.384 . S
H144 C150 0.930 . S
H145 C154 0.930 . S
H146 C159 0.929 . S
H147 C157 0.929 . S
H148 C152 0.929 . S
H149 C158 0.929 . S
C150 H144 0.930 . S
C150 C151 1.367 . S
C150 C158 1.378 . S
C151 C150 1.367 . S
C151 C159 1.433 1_554 S
C152 H148 0.929 . S
C152 C154 1.378 . S
C152 C156 1.350 1_556 S
C153 C156 1.463 1_565 S
C153 C158 1.350 . S
C153 N161 1.427 1_554 S
C154 H145 0.930 . S
C154 C152 1.378 . S
C154 C155 1.367 1_556 S
C155 C154 1.367 1_554 S
C155 C157 1.433 . S
C156 C152 1.350 1_554 S
C156 C153 1.463 1_545 S
C156 N160 1.427 . S
C157 H147 0.929 . S
C157 C155 1.433 . S
C157 N160 1.384 . S
C158 H149 0.929 . S
C158 C150 1.378 . S
C158 C153 1.350 . S
C159 H146 0.929 . S
C159 C151 1.433 1_556 S
C159 N161 1.384 . S
N160 C156 1.427 . S
N160 C157 1.384 . S
N161 C153 1.427 1_556 S
N161 C159 1.384 . S
H162 C168 0.930 . S
H163 C172 0.930 . S
H164 C177 0.929 . S
H165 C175 0.929 . S
H166 C170 0.929 . S
H167 C176 0.929 . S
C168 H162 0.930 . S
C168 C169 1.367 . S
C168 C176 1.378 . S
C169 C168 1.367 . S
C169 C177 1.433 1_554 S
C170 H166 0.929 . S
C170 C172 1.378 . S
C170 C174 1.350 1_556 S
C171 C174 1.463 1_655 S
C171 C176 1.350 . S
C171 N179 1.427 1_554 S
C172 H163 0.930 . S
C172 C170 1.378 . S
C172 C173 1.367 1_556 S
C173 C172 1.367 1_554 S
C173 C175 1.433 . S
C174 C170 1.350 1_554 S
C174 C171 1.463 1_455 S
C174 N178 1.427 . S
C175 H165 0.929 . S
C175 C173 1.433 . S
C175 N178 1.384 . S
C176 H167 0.929 . S
C176 C168 1.378 . S
C176 C171 1.350 . S
C177 H164 0.929 . S
C177 C169 1.433 1_556 S
C177 N179 1.384 . S
N178 C174 1.427 . S
N178 C175 1.384 . S
N179 C171 1.427 1_556 S
N179 C177 1.384 . S
H180 C186 0.930 . S
H181 C190 0.930 . S
H182 C195 0.929 . S
H183 C193 0.929 . S
H184 C188 0.929 . S
H185 C194 0.929 . S
C186 H180 0.930 . S
C186 C187 1.367 . S
C186 C194 1.378 . S
C187 C186 1.367 . S
C187 C195 1.433 . S
C188 H184 0.929 . S
C188 C190 1.378 . S
C188 C192 1.350 . S
C189 C192 1.463 . S
C189 C194 1.350 . S
C189 N197 1.427 . S
C190 H181 0.930 . S
C190 C188 1.378 . S
C190 C191 1.367 . S
C191 C190 1.367 . S
C191 C193 1.433 . S
C192 C188 1.350 . S
C192 C189 1.463 . S
C192 N196 1.427 . S
C193 H183 0.929 . S
C193 C191 1.433 . S
C193 N196 1.384 . S
C194 H185 0.929 . S
C194 C186 1.378 . S
C194 C189 1.350 . S
C195 H182 0.929 . S
C195 C187 1.433 . S
C195 N197 1.384 . S
N196 C192 1.427 . S
N196 C193 1.384 . S
N197 C189 1.427 . S
N197 C195 1.384 . S
H198 C204 0.930 . S
H199 C208 0.930 . S
H200 C213 0.929 . S
H201 C211 0.929 . S
H202 C206 0.929 . S
H203 C212 0.929 . S
C204 H198 0.930 . S
C204 C205 1.367 . S
C204 C212 1.378 . S
C205 C204 1.367 . S
C205 C213 1.433 . S
C206 H202 0.929 . S
C206 C208 1.378 . S
C206 C210 1.350 . S
C207 C210 1.463 . S
C207 C212 1.350 . S
C207 N215 1.427 . S
C208 H199 0.930 . S
C208 C206 1.378 . S
C208 C209 1.367 . S
C209 C208 1.367 . S
C209 C211 1.433 . S
C210 C206 1.350 . S
C210 C207 1.463 . S
C210 N214 1.427 . S
C211 H201 0.929 . S
C211 C209 1.433 . S
C211 N214 1.384 . S
C212 H203 0.929 . S
C212 C204 1.378 . S
C212 C207 1.350 . S
C213 H200 0.929 . S
C213 C205 1.433 . S
C213 N215 1.384 . S
N214 C210 1.427 . S
N214 C211 1.384 . S
N215 C207 1.427 . S
N215 C213 1.384 . S
H216 C222 0.930 . S
H217 C226 0.930 . S
H218 C231 0.929 . S
H219 C229 0.929 . S
H220 C224 0.929 . S
H221 C230 0.929 . S
C222 H216 0.930 . S
C222 C223 1.367 . S
C222 C230 1.378 . S
C223 C222 1.367 . S
C223 C231 1.433 . S
C224 H220 0.929 . S
C224 C226 1.378 . S
C224 C228 1.350 . S
C225 C228 1.463 . S
C225 C230 1.350 . S
C225 N233 1.427 . S
C226 H217 0.930 . S
C226 C224 1.378 . S
C226 C227 1.367 . S
C227 C226 1.367 . S
C227 C229 1.433 . S
C228 C224 1.350 . S
C228 C225 1.463 . S
C228 N232 1.427 . S
C229 H219 0.929 . S
C229 C227 1.433 . S
C229 N232 1.384 . S
C230 H221 0.929 . S
C230 C222 1.378 . S
C230 C225 1.350 . S
C231 H218 0.929 . S
C231 C223 1.433 . S
C231 N233 1.384 . S
N232 C228 1.427 . S
N232 C229 1.384 . S
N233 C225 1.427 . S
N233 C231 1.384 . S
H234 C240 0.930 . S
H235 C244 0.930 . S
H236 C249 0.929 . S
H237 C247 0.929 . S
H238 C242 0.929 . S
H239 C248 0.929 . S
C240 H234 0.930 . S
C240 C241 1.367 . S
C240 C248 1.378 . S
C241 C240 1.367 . S
C241 C249 1.433 . S
C242 H238 0.929 . S
C242 C244 1.378 . S
C242 C246 1.350 . S
C243 C246 1.463 . S
C243 C248 1.350 . S
C243 N251 1.427 . S
C244 H235 0.930 . S
C244 C242 1.378 . S
C244 C245 1.367 . S
C245 C244 1.367 . S
C245 C247 1.433 . S
C246 C242 1.350 . S
C246 C243 1.463 . S
C246 N250 1.427 . S
C247 H237 0.929 . S
C247 C245 1.433 . S
C247 N250 1.384 . S
C248 H239 0.929 . S
C248 C240 1.378 . S
C248 C243 1.350 . S
C249 H236 0.929 . S
C249 C241 1.433 . S
C249 N251 1.384 . S
N250 C246 1.427 . S
N250 C247 1.384 . S
N251 C243 1.427 . S
N251 C249 1.384 . S
H252 C258 0.930 . S
H253 C262 0.930 . S
H254 C267 0.929 . S
H255 C265 0.929 . S
H256 C260 0.929 . S
H257 C266 0.929 . S
C258 H252 0.930 . S
C258 C259 1.367 . S
C258 C266 1.378 . S
C259 C258 1.367 . S
C259 C267 1.433 . S
C260 H256 0.929 . S
C260 C262 1.378 . S
C260 C264 1.350 . S
C261 C264 1.463 . S
C261 C266 1.350 . S
C261 N269 1.427 . S
C262 H253 0.930 . S
C262 C260 1.378 . S
C262 C263 1.367 . S
C263 C262 1.367 . S
C263 C265 1.433 . S
C264 C260 1.350 . S
C264 C261 1.463 . S
C264 N268 1.427 . S
C265 H255 0.929 . S
C265 C263 1.433 . S
C265 N268 1.384 . S
C266 H257 0.929 . S
C266 C258 1.378 . S
C266 C261 1.350 . S
C267 H254 0.929 . S
C267 C259 1.433 . S
C267 N269 1.384 . S
N268 C264 1.427 . S
N268 C265 1.384 . S
N269 C261 1.427 . S
N269 C267 1.384 . S
H270 C276 0.930 . S
H271 C280 0.930 . S
H272 C285 0.929 . S
H273 C283 0.929 . S
H274 C278 0.929 . S
H275 C284 0.929 . S
C276 H270 0.930 . S
C276 C277 1.367 . S
C276 C284 1.378 . S
C277 C276 1.367 . S
C277 C285 1.433 . S
C278 H274 0.929 . S
C278 C280 1.378 . S
C278 C282 1.350 . S
C279 C282 1.463 . S
C279 C284 1.350 . S
C279 N287 1.427 . S
C280 H271 0.930 . S
C280 C278 1.378 . S
C280 C281 1.367 . S
C281 C280 1.367 . S
C281 C283 1.433 . S
C282 C278 1.350 . S
C282 C279 1.463 . S
C282 N286 1.427 . S
C283 H273 0.929 . S
C283 C281 1.433 . S
C283 N286 1.384 . S
C284 H275 0.929 . S
C284 C276 1.378 . S
C284 C279 1.350 . S
C285 H272 0.929 . S
C285 C277 1.433 . S
C285 N287 1.384 . S
N286 C282 1.427 . S
N286 C283 1.384 . S
N287 C279 1.427 . S
N287 C285 1.384 . S
H288 C294 0.930 . S
H289 C298 0.930 . S
H290 C303 0.929 . S
H291 C301 0.929 . S
H292 C296 0.929 . S
H293 C302 0.929 . S
C294 H288 0.930 . S
C294 C295 1.367 . S
C294 C302 1.378 . S
C295 C294 1.367 . S
C295 C303 1.433 . S
C296 H292 0.929 . S
C296 C298 1.378 . S
C296 C300 1.350 . S
C297 C300 1.463 . S
C297 C302 1.350 . S
C297 N305 1.427 . S
C298 H289 0.930 . S
C298 C296 1.378 . S
C298 C299 1.367 . S
C299 C298 1.367 . S
C299 C301 1.433 . S
C300 C296 1.350 . S
C300 C297 1.463 . S
C300 N304 1.427 . S
C301 H291 0.929 . S
C301 C299 1.433 . S
C301 N304 1.384 . S
C302 H293 0.929 . S
C302 C294 1.378 . S
C302 C297 1.350 . S
C303 H290 0.929 . S
C303 C295 1.433 . S
C303 N305 1.384 . S
N304 C300 1.427 . S
N304 C301 1.384 . S
N305 C297 1.427 . S
N305 C303 1.384 . S
H306 C312 0.930 . S
H307 C316 0.930 . S
H308 C321 0.929 . S
H309 C319 0.929 . S
H310 C314 0.929 . S
H311 C320 0.929 . S
C312 H306 0.930 . S
C312 C313 1.367 . S
C312 C320 1.378 . S
C313 C312 1.367 . S
C313 C321 1.433 . S
C314 H310 0.929 . S
C314 C316 1.378 . S
C314 C318 1.350 . S
C315 C318 1.463 . S
C315 C320 1.350 . S
C315 N323 1.427 . S
C316 H307 0.930 . S
C316 C314 1.378 . S
C316 C317 1.367 . S
C317 C316 1.367 . S
C317 C319 1.433 . S
C318 C314 1.350 . S
C318 C315 1.463 . S
C318 N322 1.427 . S
C319 H309 0.929 . S
C319 C317 1.433 . S
C319 N322 1.384 . S
C320 H311 0.929 . S
C320 C312 1.378 . S
C320 C315 1.350 . S
C321 H308 0.929 . S
C321 C313 1.433 . S
C321 N323 1.384 . S
N322 C318 1.427 . S
N322 C319 1.384 . S
N323 C315 1.427 . S
N323 C321 1.384 . S
H324 C330 0.930 . S
H325 C334 0.930 . S
H326 C339 0.929 . S
H327 C337 0.929 . S
H328 C332 0.929 . S
H329 C338 0.929 . S
C330 H324 0.930 . S
C330 C331 1.367 . S
C330 C338 1.378 . S
C331 C330 1.367 . S
C331 C339 1.433 . S
C332 H328 0.929 . S
C332 C334 1.378 . S
C332 C336 1.350 . S
C333 C336 1.463 . S
C333 C338 1.350 . S
C333 N341 1.427 . S
C334 H325 0.930 . S
C334 C332 1.378 . S
C334 C335 1.367 . S
C335 C334 1.367 . S
C335 C337 1.433 1_565 S
C336 C332 1.350 . S
C336 C333 1.463 . S
C336 N340 1.427 . S
C337 H327 0.929 . S
C337 C335 1.433 1_545 S
C337 N340 1.384 1_545 S
C338 H329 0.929 . S
C338 C330 1.378 . S
C338 C333 1.350 . S
C339 H326 0.929 . S
C339 C331 1.433 . S
C339 N341 1.384 . S
N340 C336 1.427 . S
N340 C337 1.384 1_565 S
N341 C333 1.427 . S
N341 C339 1.384 . S
H342 C348 0.930 . S
H343 C352 0.930 . S
H344 C357 0.929 . S
H345 C355 0.929 . S
H346 C350 0.929 . S
H347 C356 0.929 . S
C348 H342 0.930 . S
C348 C349 1.367 . S
C348 C356 1.378 . S
C349 C348 1.367 . S
C349 C357 1.433 . S
C350 H346 0.929 . S
C350 C352 1.378 . S
C350 C354 1.350 . S
C351 C354 1.463 . S
C351 C356 1.350 . S
C351 N359 1.427 . S
C352 H343 0.930 . S
C352 C350 1.378 . S
C352 C353 1.367 . S
C353 C352 1.367 . S
C353 C355 1.433 . S
C354 C350 1.350 . S
C354 C351 1.463 . S
C354 N358 1.427 . S
C355 H345 0.929 . S
C355 C353 1.433 . S
C355 N358 1.384 . S
C356 H347 0.929 . S
C356 C348 1.378 . S
C356 C351 1.350 . S
C357 H344 0.929 . S
C357 C349 1.433 . S
C357 N359 1.384 . S
N358 C354 1.427 . S
N358 C355 1.384 . S
N359 C351 1.427 . S
N359 C357 1.384 . S
H360 C366 0.930 . S
H361 C370 0.930 . S
H362 C375 0.929 1_455 S
H363 C373 0.929 . S
H364 C368 0.929 . S
H365 C374 0.929 . S
C366 H360 0.930 . S
C366 C367 1.367 . S
C366 C374 1.378 . S
C367 C366 1.367 . S
C367 C375 1.433 . S
C368 H364 0.929 . S
C368 C370 1.378 . S
C368 C372 1.350 . S
C369 C372 1.463 . S
C369 C374 1.350 . S
C369 N377 1.427 . S
C370 H361 0.930 . S
C370 C368 1.378 . S
C370 C371 1.367 . S
C371 C370 1.367 . S
C371 C373 1.433 . S
C372 C368 1.350 . S
C372 C369 1.463 . S
C372 N376 1.427 . S
C373 H363 0.929 . S
C373 C371 1.433 . S
C373 N376 1.384 . S
C374 H365 0.929 . S
C374 C366 1.378 . S
C374 C369 1.350 . S
C375 H362 0.929 1_655 S
C375 C367 1.433 . S
C375 N377 1.384 . S
N376 C372 1.427 . S
N376 C373 1.384 . S
N377 C369 1.427 . S
N377 C375 1.384 . S
H378 C384 0.930 . S
H379 C388 0.930 . S
H380 C393 0.929 . S
H381 C391 0.929 . S
H382 C386 0.929 . S
H383 C392 0.929 . S
C384 H378 0.930 . S
C384 C385 1.367 . S
C384 C392 1.378 . S
C385 C384 1.367 . S
C385 C393 1.433 . S
C386 H382 0.929 . S
C386 C388 1.378 . S
C386 C390 1.350 . S
C387 C390 1.463 . S
C387 C392 1.350 . S
C387 N395 1.427 . S
C388 H379 0.930 . S
C388 C386 1.378 . S
C388 C389 1.367 . S
C389 C388 1.367 . S
C389 C391 1.433 . S
C390 C386 1.350 . S
C390 C387 1.463 . S
C390 N394 1.427 . S
C391 H381 0.929 . S
C391 C389 1.433 . S
C391 N394 1.384 . S
C392 H383 0.929 . S
C392 C384 1.378 . S
C392 C387 1.350 . S
C393 H380 0.929 . S
C393 C385 1.433 . S
C393 N395 1.384 . S
N394 C390 1.427 . S
N394 C391 1.384 . S
N395 C387 1.427 . S
N395 C393 1.384 . S
H396 C402 0.930 . S
H397 C406 0.930 . S
H398 C411 0.929 . S
H399 C409 0.929 . S
H400 C404 0.929 . S
H401 C410 0.929 . S
C402 H396 0.930 . S
C402 C403 1.367 . S
C402 C410 1.378 . S
C403 C402 1.367 . S
C403 C411 1.433 . S
C404 H400 0.929 . S
C404 C406 1.378 1_455 S
C404 C408 1.350 . S
C405 C408 1.463 . S
C405 C410 1.350 . S
C405 N413 1.427 . S
C406 H397 0.930 . S
C406 C404 1.378 1_655 S
C406 C407 1.367 . S
C407 C406 1.367 . S
C407 C409 1.433 . S
C408 C404 1.350 . S
C408 C405 1.463 . S
C408 N412 1.427 1_455 S
C409 H399 0.929 . S
C409 C407 1.433 . S
C409 N412 1.384 . S
C410 H401 0.929 . S
C410 C402 1.378 . S
C410 C405 1.350 . S
C411 H398 0.929 . S
C411 C403 1.433 . S
C411 N413 1.384 . S
N412 C408 1.427 1_655 S
N412 C409 1.384 . S
N413 C405 1.427 . S
N413 C411 1.384 . S
H414 C420 0.930 . S
H415 C424 0.930 . S
H416 C429 0.929 . S
H417 C427 0.929 . S
H418 C422 0.929 . S
H419 C428 0.929 . S
C420 H414 0.930 . S
C420 C421 1.367 . S
C420 C428 1.378 . S
C421 C420 1.367 . S
C421 C429 1.433 . S
C422 H418 0.929 . S
C422 C424 1.378 . S
C422 C426 1.350 . S
C423 C426 1.463 . S
C423 C428 1.350 . S
C423 N431 1.427 . S
C424 H415 0.930 . S
C424 C422 1.378 . S
C424 C425 1.367 . S
C425 C424 1.367 . S
C425 C427 1.433 . S
C426 C422 1.350 . S
C426 C423 1.463 . S
C426 N430 1.427 . S
C427 H417 0.929 . S
C427 C425 1.433 . S
C427 N430 1.384 . S
C428 H419 0.929 . S
C428 C420 1.378 . S
C428 C423 1.350 . S
C429 H416 0.929 . S
C429 C421 1.433 . S
C429 N431 1.384 . S
N430 C426 1.427 . S
N430 C427 1.384 . S
N431 C423 1.427 . S
N431 C429 1.384 . S
H432 C438 0.930 . S
H433 C442 0.930 . S
H434 C447 0.929 . S
H435 C445 0.929 . S
H436 C440 0.929 . S
H437 C446 0.929 . S
C438 H432 0.930 . S
C438 C439 1.367 . S
C438 C446 1.378 . S
C439 C438 1.367 . S
C439 C447 1.433 . S
C440 H436 0.929 . S
C440 C442 1.378 . S
C440 C444 1.350 . S
C441 C444 1.463 . S
C441 C446 1.350 1_545 S
C441 N449 1.427 . S
C442 H433 0.930 . S
C442 C440 1.378 . S
C442 C443 1.367 . S
C443 C442 1.367 . S
C443 C445 1.433 . S
C444 C440 1.350 . S
C444 C441 1.463 . S
C444 N448 1.427 . S
C445 H435 0.929 . S
C445 C443 1.433 . S
C445 N448 1.384 . S
C446 H437 0.929 . S
C446 C438 1.378 . S
C446 C441 1.350 1_565 S
C447 H434 0.929 . S
C447 C439 1.433 . S
C447 N449 1.384 1_565 S
N448 C444 1.427 . S
N448 C445 1.384 . S
N449 C441 1.427 . S
N449 C447 1.384 1_545 S
C133 C33 1.049 . S
C137 C0 1.045 . S
C151 C19 1.071 . S
C155 C5 1.075 . S
C169 C14 1.041 . S
C173 C28 1.030 . S
C187 C70 1.029 . S
C191 C47 1.026 . S
C205 C61 1.009 . S
C209 C42 0.994 . S
C223 C56 1.043 . S
C227 C75 1.054 . S
C241 C84 1.006 . S
C245 C117 1.001 . S
C259 C89 1.012 . S
C263 C103 1.004 . S
C277 C98 0.971 . S
C281 C112 0.978 . S
C295 C11 1.383 . S
C299 C109 1.383 . S
C313 C23 1.419 . S
C317 C121 1.419 . S
C331 C93 1.397 . S
C335 C39 1.400 . S
C349 C65 1.375 . S
C353 C37 1.376 . S
C367 C9 1.422 . S
C371 C79 1.423 . S
C385 C51 1.403 . S
C389 C25 1.412 . S
C403 C107 1.398 . S
C407 C81 1.399 . S
C421 C53 1.382 . S
C425 C123 1.383 . S
C439 C95 1.418 . S
C443 C67 1.418 . S
