# Generated by pormake.
# Topology soe, (5)-cn, num edge types: 1
# Building blocks:
#     Node 0, Type 0, BuildingBlock: BEQFEK_clean_sbu_0, # of connection points: 5
#     Node 1, Type 0, BuildingBlock: BEQFEK_clean_sbu_0, # of connection points: 5
#     Node 2, Type 0, BuildingBlock: BEQFEK_clean_sbu_0, # of connection points: 5
#     Node 3, Type 0, BuildingBlock: BEQFEK_clean_sbu_0, # of connection points: 5
#     Node 4, Type 0, BuildingBlock: BEQFEK_clean_sbu_0, # of connection points: 5
#     Node 5, Type 0, BuildingBlock: BEQFEK_clean_sbu_0, # of connection points: 5
#     Node 6, Type 0, BuildingBlock: BEQFEK_clean_sbu_0, # of connection points: 5
#     Node 7, Type 0, BuildingBlock: BEQFEK_clean_sbu_0, # of connection points: 5
#     Edge 8, Type (0, 0), BuildingBlock: XUDNAN_clean_linker_2, # of connection points: 2
#     Edge 9, Type (0, 0), BuildingBlock: XUDNAN_clean_linker_2, # of connection points: 2
#     Edge 10, Type (0, 0), BuildingBlock: XUDNAN_clean_linker_2, # of connection points: 2
#     Edge 11, Type (0, 0), BuildingBlock: XUDNAN_clean_linker_2, # of connection points: 2
#     Edge 12, Type (0, 0), BuildingBlock: XUDNAN_clean_linker_2, # of connection points: 2
#     Edge 13, Type (0, 0), BuildingBlock: XUDNAN_clean_linker_2, # of connection points: 2
#     Edge 14, Type (0, 0), BuildingBlock: XUDNAN_clean_linker_2, # of connection points: 2
#     Edge 15, Type (0, 0), BuildingBlock: XUDNAN_clean_linker_2, # of connection points: 2
#     Edge 16, Type (0, 0), BuildingBlock: XUDNAN_clean_linker_2, # of connection points: 2
#     Edge 17, Type (0, 0), BuildingBlock: XUDNAN_clean_linker_2, # of connection points: 2
#     Edge 18, Type (0, 0), BuildingBlock: XUDNAN_clean_linker_2, # of connection points: 2
#     Edge 19, Type (0, 0), BuildingBlock: XUDNAN_clean_linker_2, # of connection points: 2
#     Edge 20, Type (0, 0), BuildingBlock: XUDNAN_clean_linker_2, # of connection points: 2
#     Edge 21, Type (0, 0), BuildingBlock: XUDNAN_clean_linker_2, # of connection points: 2
#     Edge 22, Type (0, 0), BuildingBlock: XUDNAN_clean_linker_2, # of connection points: 2
#     Edge 23, Type (0, 0), BuildingBlock: XUDNAN_clean_linker_2, # of connection points: 2
#     Edge 24, Type (0, 0), BuildingBlock: XUDNAN_clean_linker_2, # of connection points: 2
#     Edge 25, Type (0, 0), BuildingBlock: XUDNAN_clean_linker_2, # of connection points: 2
#     Edge 26, Type (0, 0), BuildingBlock: XUDNAN_clean_linker_2, # of connection points: 2
#     Edge 27, Type (0, 0), BuildingBlock: XUDNAN_clean_linker_2, # of connection points: 2
# Relax obj value: 0.157
# Max RMSD: 0.230
# Mean RMSD: 0.172
data_MOF--net-soe--node1-BEQFEK_clean_sbu_0--edge1-XUDNAN_clean_linker_2
_symmetry_space_group_name_H-M    P1
_symmetry_Int_Tables_number       1
_symmetry_cell_setting            triclinic
loop_
_symmetry_equiv_pos_as_xyz
'x, y, z'
_cell_length_a     58.569411
_cell_length_b     39.430514
_cell_length_c     18.985203
_cell_angle_alpha  89.493511
_cell_angle_beta   90.626159
_cell_angle_gamma 92.943333
loop_
_atom_site_label
_atom_site_type_symbol
_atom_site_fract_x
_atom_site_fract_y
_atom_site_fract_z
_atom_type_partial_charge
Co0 Co 0.1203 0.99341 0.18401 0.0
Co1 Co 0.12526 0.02758 0.03303 0.0
C2 C 0.16375 0.99011 0.09915 0.0
O3 O 0.15213 0.98112 0.1534 0.0
O4 O 0.15499 0.00772 0.05028 0.0
C5 C 0.11014 0.95614 0.33654 0.0
O6 O 0.1074 0.92288 0.33883 0.0
C7 C 0.13008 0.03003 0.87608 0.0
C8 C 0.10927 0.07361 0.85013 0.0
C9 C 0.12083 0.04779 0.81941 0.0
N10 N 0.12338 0.04398 0.93676 0.0
N11 N 0.1114 0.07048 0.92048 0.0
C12 C 0.14517 0.00056 0.87312 0.0
H13 H 0.15672 0.0004 0.91959 0.0
H14 H 0.13454 0.97646 0.8734 0.0
H15 H 0.15561 0.00181 0.82464 0.0
C16 C 0.07408 0.97289 0.11954 0.0
N17 N 0.09626 0.9845 0.11523 0.0
N18 N 0.10007 0.99554 0.05054 0.0
C19 C 0.08116 0.98891 0.01091 0.0
C20 C 0.06359 0.97568 0.05329 0.0
C21 C 0.06247 0.96388 0.18742 0.0
H22 H 0.07163 0.9766 0.23212 0.0
H23 H 0.06259 0.936 0.19572 0.0
H24 H 0.04443 0.97123 0.18603 0.0
O25 O 0.12142 0.04214 0.20257 0.0
O26 O 0.12364 0.06787 0.09801 0.0
H27 H 0.07809 0.0206 0.91937 0.0
H28 H 0.06564 0.97813 0.90899 0.0
C29 C 0.08012 0.99351 0.93259 0.0
H30 H 0.09606 0.98515 0.90922 0.0
H31 H 0.10375 0.08552 0.95753 0.0
O32 O 0.11409 0.97068 0.27734 0.0
C33 C 0.12244 0.06909 0.16516 0.0
Co34 Co 0.36733 0.91143 0.20591 0.0
Co35 Co 0.36262 0.89448 0.04832 0.0
C36 C 0.32547 0.92909 0.12318 0.0
O37 O 0.33633 0.92918 0.18169 0.0
O38 O 0.33404 0.91701 0.06823 0.0
C39 C 0.37469 0.95151 0.33433 0.0
O40 O 0.37419 0.97963 0.2969 0.0
C41 C 0.36073 0.91107 0.89849 0.0
C42 C 0.37055 0.8632 0.85025 0.0
C43 C 0.36548 0.89639 0.83481 0.0
N44 N 0.36353 0.8879 0.94975 0.0
N45 N 0.36906 0.85918 0.92055 0.0
C46 C 0.35356 0.94651 0.91025 0.0
H47 H 0.34485 0.94849 0.96118 0.0
H48 H 0.36875 0.96443 0.91117 0.0
H49 H 0.34207 0.95437 0.86685 0.0
C50 C 0.41356 0.9402 0.15694 0.0
N51 N 0.39191 0.92746 0.1453 0.0
N52 N 0.38948 0.92037 0.07794 0.0
C53 C 0.40929 0.92871 0.04473 0.0
C54 C 0.4253 0.94161 0.09332 0.0
C55 C 0.42376 0.94628 0.22857 0.0
H56 H 0.41768 0.92584 0.26536 0.0
H57 H 0.41806 0.97075 0.2486 0.0
H58 H 0.44273 0.94753 0.22712 0.0
O59 O 0.36523 0.86092 0.20731 0.0
O60 O 0.36146 0.84888 0.09393 0.0
H61 H 0.40996 0.89426 0.9581 0.0
H62 H 0.43151 0.92868 0.95353 0.0
C63 C 0.41368 0.92158 0.96879 0.0
H64 H 0.40241 0.93669 0.93537 0.0
H65 H 0.37247 0.83716 0.9488 0.0
O66 O 0.37322 0.92287 0.30432 0.0
C67 C 0.36279 0.83934 0.15807 0.0
Co68 Co 0.1382 0.3725 0.29552 0.0
Co69 Co 0.14645 0.35771 0.45651 0.0
C70 C 0.1827 0.39093 0.36881 0.0
O71 O 0.16971 0.38871 0.3149 0.0
O72 O 0.17602 0.38047 0.42903 0.0
C73 C 0.14015 0.41324 0.17049 0.0
O74 O 0.15268 0.43408 0.21046 0.0
C75 C 0.15202 0.37625 0.60475 0.0
C76 C 0.13975 0.32917 0.65925 0.0
C77 C 0.14737 0.36256 0.67126 0.0
N78 N 0.14697 0.35221 0.55642 0.0
N79 N 0.14002 0.32397 0.58936 0.0
C80 C 0.1586 0.41235 0.58575 0.0
H81 H 0.15428 0.41757 0.52976 0.0
H82 H 0.14977 0.43008 0.62002 0.0
H83 H 0.17733 0.41682 0.59298 0.0
C84 C 0.09716 0.40191 0.35118 0.0
N85 N 0.11795 0.38958 0.36094 0.0
N86 N 0.12133 0.38362 0.42854 0.0
C87 C 0.10268 0.39214 0.4639 0.0
C88 C 0.08682 0.40385 0.41611 0.0
C89 C 0.08611 0.40612 0.28046 0.0
H90 H 0.08606 0.38174 0.25166 0.0
H91 H 0.09631 0.42532 0.24944 0.0
H92 H 0.06833 0.41428 0.28496 0.0
O93 O 0.13642 0.32261 0.29934 0.0
O94 O 0.14246 0.31167 0.413 0.0
H95 H 0.10124 0.3575 0.55164 0.0
H96 H 0.08101 0.39045 0.55627 0.0
C97 C 0.09854 0.38463 0.54036 0.0
H98 H 0.11066 0.4005 0.57261 0.0
H99 H 0.13462 0.30156 0.56396 0.0
O100 O 0.13107 0.38627 0.19759 0.0
C101 C 0.13847 0.30164 0.35006 0.0
Co102 Co 0.37693 0.53286 0.29592 0.0
Co103 Co 0.36633 0.55293 0.45123 0.0
C104 C 0.33535 0.50498 0.36662 0.0
O105 O 0.34899 0.50643 0.31512 0.0
O106 O 0.33951 0.52216 0.42229 0.0
C107 C 0.38268 0.4948 0.16747 0.0
O108 O 0.376 0.46742 0.20307 0.0
C109 C 0.36032 0.5358 0.60113 0.0
C110 C 0.37318 0.58322 0.65223 0.0
C111 C 0.36592 0.54985 0.66639 0.0
N112 N 0.36497 0.55942 0.55091 0.0
N113 N 0.37215 0.58791 0.58198 0.0
C114 C 0.3508 0.5006 0.58605 0.0
H115 H 0.33679 0.50164 0.54665 0.0
H116 H 0.36436 0.48544 0.56358 0.0
H117 H 0.34385 0.48787 0.63412 0.0
C118 C 0.42018 0.51338 0.36016 0.0
N119 N 0.39899 0.52471 0.36457 0.0
N120 N 0.39483 0.53299 0.43009 0.0
C121 C 0.41352 0.52704 0.46962 0.0
C122 C 0.43012 0.51458 0.4266 0.0
C123 C 0.4312 0.50478 0.29232 0.0
H124 H 0.42875 0.52538 0.25321 0.0
H125 H 0.42268 0.48118 0.27115 0.0
H126 H 0.44973 0.50103 0.29926 0.0
O127 O 0.37025 0.58075 0.2934 0.0
O128 O 0.36421 0.59845 0.40184 0.0
H129 H 0.41277 0.56045 0.55774 0.0
H130 H 0.4328 0.52735 0.56809 0.0
C131 C 0.41576 0.53348 0.54705 0.0
H132 H 0.40283 0.51723 0.57524 0.0
H133 H 0.37746 0.61006 0.55503 0.0
O134 O 0.38583 0.52295 0.19903 0.0
C135 C 0.36575 0.60418 0.33574 0.0
Co136 Co 0.8634 0.8716 0.95788 0.0
Co137 Co 0.8671 0.89444 0.8014 0.0
C138 C 0.8303 0.91928 0.89383 0.0
O139 O 0.8388 0.9031 0.9451 0.0
O140 O 0.83897 0.91815 0.83263 0.0
C141 C 0.84139 0.84739 0.08516 0.0
O142 O 0.82235 0.84621 0.04789 0.0
C143 C 0.8537 0.88906 0.65277 0.0
C144 C 0.88515 0.90815 0.59918 0.0
C145 C 0.86346 0.89348 0.58666 0.0
N146 N 0.86915 0.89978 0.70169 0.0
N147 N 0.88779 0.91159 0.66928 0.0
C148 C 0.83002 0.87559 0.66989 0.0
H149 H 0.82431 0.8865 0.71993 0.0
H150 H 0.82988 0.84764 0.67683 0.0
H151 H 0.81787 0.88162 0.62683 0.0
C152 C 0.86145 0.80325 0.89437 0.0
N153 N 0.86153 0.83729 0.88894 0.0
N154 N 0.86516 0.84653 0.82307 0.0
C155 C 0.86867 0.81845 0.78496 0.0
C156 C 0.86616 0.79001 0.8287 0.0
C157 C 0.85755 0.78412 0.96197 0.0
H158 H 0.84284 0.79426 0.98949 0.0
H159 H 0.85389 0.75663 0.95285 0.0
H160 H 0.87287 0.78781 0.99651 0.0
O161 O 0.8941 0.89534 0.95467 0.0
O162 O 0.89603 0.91538 0.84517 0.0
H163 H 0.88906 0.79699 0.70385 0.0
H164 H 0.86436 0.81787 0.67278 0.0
C165 C 0.87844 0.81907 0.71227 0.0
H166 H 0.88924 0.84257 0.70372 0.0
H167 H 0.9026 0.92091 0.69511 0.0
O168 O 0.86035 0.85479 0.05546 0.0
C169 C 0.90479 0.9121 0.90666 0.0
Co170 Co 0.63999 0.04267 0.84328 0.0
Co171 Co 0.64526 0.06406 0.99953 0.0
C172 C 0.68156 0.02575 0.92571 0.0
O173 O 0.67031 0.02407 0.86808 0.0
O174 O 0.67356 0.04032 0.97896 0.0
C175 C 0.64243 0.00592 0.71455 0.0
O176 O 0.65511 0.98569 0.75172 0.0
C177 C 0.65053 0.04967 0.14831 0.0
C178 C 0.64419 0.09876 0.19775 0.0
C179 C 0.64952 0.06558 0.21323 0.0
N180 N 0.64602 0.07236 0.09765 0.0
N181 N 0.64244 0.10176 0.12727 0.0
C182 C 0.65396 0.01306 0.13335 0.0
H183 H 0.64747 0.00636 0.07986 0.0
H184 H 0.64505 0.99643 0.17291 0.0
H185 H 0.6725 0.00856 0.13544 0.0
C186 C 0.59514 0.0128 0.89814 0.0
N187 N 0.61594 0.02869 0.90724 0.0
N188 N 0.61806 0.03843 0.97323 0.0
C189 C 0.59861 0.02952 0.00791 0.0
C190 C 0.58334 0.01283 0.96163 0.0
C191 C 0.58628 0.99996 0.82863 0.0
H192 H 0.58927 0.01991 0.78772 0.0
H193 H 0.59591 0.9777 0.81338 0.0
H194 H 0.56775 0.99258 0.83059 0.0
O195 O 0.643 0.09318 0.83863 0.0
O196 O 0.64552 0.10834 0.95081 0.0
H197 H 0.59958 0.06367 0.09518 0.0
H198 H 0.57707 0.03065 0.10048 0.0
C199 C 0.59493 0.0366 0.08422 0.0
H200 H 0.60616 0.0208 0.11661 0.0
H201 H 0.63857 0.12371 0.09945 0.0
O202 O 0.63277 0.02972 0.74524 0.0
C203 C 0.64467 0.11601 0.88563 0.0
Co204 Co 0.88454 0.4821 0.69728 0.0
Co205 Co 0.87649 0.50887 0.54229 0.0
C206 C 0.84127 0.46558 0.61774 0.0
O207 O 0.85431 0.46365 0.67133 0.0
O208 O 0.8474 0.48256 0.56319 0.0
C209 C 0.87686 0.45911 0.83694 0.0
O210 O 0.85558 0.46238 0.81666 0.0
C211 C 0.87167 0.49841 0.39049 0.0
C212 C 0.88875 0.54539 0.34824 0.0
C213 C 0.87951 0.51375 0.32878 0.0
N214 N 0.87651 0.51976 0.44414 0.0
N215 N 0.88606 0.54822 0.41822 0.0
C216 C 0.86281 0.46237 0.39985 0.0
H217 H 0.8674 0.45276 0.45298 0.0
H218 H 0.86959 0.44581 0.35884 0.0
H219 H 0.84389 0.46136 0.39493 0.0
C220 C 0.92431 0.45374 0.633 0.0
N221 N 0.90525 0.47118 0.62863 0.0
N222 N 0.90256 0.48277 0.56391 0.0
C223 C 0.9203 0.47332 0.52513 0.0
C224 C 0.93444 0.45459 0.56762 0.0
C225 C 0.93318 0.43858 0.69979 0.0
H226 H 0.9354 0.45869 0.74017 0.0
H227 H 0.92039 0.41922 0.71989 0.0
H228 H 0.94973 0.42675 0.69198 0.0
O229 O 0.88423 0.53156 0.70496 0.0
O230 O 0.878 0.55222 0.59757 0.0
H231 H 0.92171 0.50895 0.43923 0.0
H232 H 0.94069 0.47483 0.42987 0.0
C233 C 0.92368 0.48152 0.44864 0.0
H234 H 0.91076 0.4667 0.41715 0.0
H235 H 0.89232 0.56852 0.44895 0.0
O236 O 0.89274 0.46486 0.79255 0.0
C237 C 0.88151 0.55656 0.66343 0.0
Co238 Co 0.63198 0.41624 0.69072 0.0
Co239 Co 0.63797 0.38498 0.53967 0.0
C240 C 0.67602 0.42344 0.61569 0.0
O241 O 0.66334 0.42972 0.6674 0.0
O242 O 0.6685 0.40671 0.56245 0.0
C243 C 0.63898 0.44091 0.83148 0.0
O244 O 0.65958 0.45104 0.8111 0.0
C245 C 0.64546 0.3842 0.38416 0.0
C246 C 0.62261 0.33999 0.35637 0.0
C247 C 0.63662 0.36563 0.32682 0.0
N248 N 0.6365 0.37042 0.44374 0.0
N249 N 0.62316 0.34373 0.42651 0.0
C250 C 0.66212 0.41428 0.3831 0.0
H251 H 0.67103 0.41722 0.43444 0.0
H252 H 0.6528 0.43762 0.3725 0.0
H253 H 0.67501 0.41149 0.34141 0.0
C254 C 0.59313 0.44635 0.62133 0.0
N255 N 0.61161 0.42764 0.61958 0.0
N256 N 0.61383 0.41515 0.55607 0.0
C257 C 0.59677 0.42616 0.51476 0.0
C258 C 0.58315 0.44621 0.55488 0.0
C259 C 0.58436 0.46141 0.68726 0.0
H260 H 0.58406 0.44204 0.73 0.0
H261 H 0.59618 0.48283 0.70387 0.0
H262 H 0.56689 0.47054 0.68002 0.0
O263 O 0.63043 0.36742 0.70351 0.0
O264 O 0.63446 0.34279 0.6003 0.0
H265 H 0.58993 0.39121 0.43081 0.0
H266 H 0.58036 0.43332 0.41303 0.0
C267 C 0.59404 0.41874 0.43789 0.0
H268 H 0.6103 0.42554 0.41081 0.0
H269 H 0.61383 0.3287 0.46266 0.0
O270 O 0.62397 0.43206 0.78538 0.0
C271 C 0.63161 0.34091 0.66671 0.0
H272 H 0.28669 0.91722 0.20478 0.0
H273 H 0.31304 0.97376 0.02361 0.0
H274 H 0.27488 0.99507 0.00018 0.0
H275 H 0.23284 0.8918 0.12269 0.0
H276 H 0.21606 0.89492 0.20115 0.0
H277 H 0.24579 0.88551 0.20807 0.0
H278 H 0.25343 0.93698 0.29009 0.0
H279 H 0.22369 0.9464 0.28389 0.0
H280 H 0.24548 0.97849 0.26129 0.0
H281 H 0.23449 0.00809 0.99144 0.0
H282 H 0.19338 0.01496 -0.00011 0.0
H283 H 0.19077 0.95012 0.18647 0.0
C284 C 0.28441 0.93468 0.16122 0.0
C285 C 0.30289 0.94423 0.11631 0.0
C286 C 0.29917 0.96628 0.05864 0.0
C287 C 0.27754 0.97848 0.04491 0.0
C288 C 0.25958 0.96813 0.08886 0.0
C289 C 0.26262 0.94682 0.14598 0.0
C290 C 0.23985 0.93865 0.18228 0.0
C291 C 0.23325 0.90045 0.17831 0.0
C292 C 0.24067 0.95088 0.25895 0.0
C293 C 0.22376 0.95919 0.13716 0.0
C294 C 0.23569 0.97565 0.0834 0.0
C295 C 0.22495 0.99547 0.03347 0.0
C296 C 0.20141 0.99906 0.03872 0.0
C297 C 0.18854 0.98312 0.09386 0.0
C298 C 0.19999 0.96271 0.14372 0.0
H299 H 0.21116 0.42396 0.4658 0.0
H300 H 0.20723 0.38892 0.24944 0.0
H301 H 0.24639 0.41195 0.2294 0.0
H302 H 0.2418 0.50279 0.42592 0.0
H303 H 0.25924 0.50309 0.50476 0.0
H304 H 0.23124 0.48193 0.50486 0.0
H305 H 0.24888 0.4263 0.54702 0.0
H306 H 0.27696 0.44726 0.54688 0.0
H307 H 0.27145 0.40899 0.4969 0.0
H308 H 0.2848 0.43809 0.23063 0.0
H309 H 0.32101 0.47047 0.24982 0.0
H310 H 0.30093 0.49217 0.46415 0.0
C311 C 0.21873 0.42089 0.41459 0.0
C312 C 0.2063 0.40451 0.35922 0.0
C313 C 0.21648 0.40144 0.29247 0.0
C314 C 0.23873 0.41427 0.28062 0.0
C315 C 0.2505 0.43038 0.33586 0.0
C316 C 0.24094 0.43413 0.40135 0.0
C317 C 0.25719 0.45439 0.44983 0.0
C318 C 0.24674 0.48752 0.47266 0.0
C319 C 0.26402 0.43294 0.51395 0.0
C320 C 0.27724 0.46137 0.4009 0.0
C321 C 0.27293 0.44685 0.33585 0.0
C322 C 0.28848 0.44963 0.28126 0.0
C323 C 0.30905 0.46814 0.29292 0.0
C324 C 0.31388 0.48399 0.35857 0.0
C325 C 0.29777 0.48033 0.4135 0.0
H326 H 0.70884 0.00167 0.81967 0.0
H327 H 0.70637 0.01678 0.04592 0.0
H328 H 0.74438 0.99388 0.05911 0.0
H329 H 0.73744 0.92305 0.82536 0.0
H330 H 0.75517 0.93276 0.75007 0.0
H331 H 0.72771 0.951 0.75689 0.0
H332 H 0.74703 0.01117 0.74337 0.0
H333 H 0.77458 0.99311 0.73686 0.0
H334 H 0.7699 0.02454 0.80281 0.0
H335 H 0.78166 0.96873 0.05049 0.0
H336 H 0.81673 0.94091 0.02095 0.0
H337 H 0.79715 0.9416 0.79949 0.0
C338 C 0.7163 1.00009 0.87195 0.0
C339 C 0.70446 0.0111 0.93183 0.0
C340 C 0.71495 0.00869 0.99919 0.0
C341 C 0.73663 0.99573 0.00731 0.0
C342 C 0.74785 0.98537 0.9476 0.0
C343 C 0.73819 0.98733 0.88112 0.0
C344 C 0.75422 0.97405 0.8262 0.0
C345 C 0.74296 0.94339 0.78735 0.0
C346 C 0.76189 0.00241 0.77423 0.0
C347 C 0.77408 0.96368 0.87272 0.0
C348 C 0.76993 0.9708 0.94243 0.0
C349 C 0.78518 0.96311 0.99611 0.0
C350 C 0.8051 0.94721 0.97862 0.0
C351 C 0.80983 0.93898 0.90785 0.0
C352 C 0.79418 0.94783 0.85395 0.0
H353 H 0.80714 0.4619 0.51559 0.0
H354 H 0.82196 0.43649 0.73429 0.0
H355 H 0.78147 0.42251 0.75406 0.0
H356 H 0.75654 0.50038 0.53975 0.0
H357 H 0.74101 0.4824 0.46531 0.0
H358 H 0.77172 0.48726 0.46333 0.0
H359 H 0.77451 0.42316 0.43862 0.0
H360 H 0.74373 0.4182 0.43859 0.0
H361 H 0.76039 0.39237 0.49631 0.0
H362 H 0.74029 0.42179 0.75791 0.0
H363 H 0.69883 0.41989 0.73883 0.0
H364 H 0.70883 0.43905 0.51518 0.0
C365 C 0.80189 0.45263 0.56708 0.0
C366 C 0.8177 0.45104 0.62374 0.0
C367 C 0.81023 0.43849 0.69023 0.0
C368 C 0.78721 0.43042 0.70219 0.0
C369 C 0.77194 0.43402 0.64663 0.0
C370 C 0.77886 0.44353 0.57969 0.0
C371 C 0.75845 0.44521 0.52998 0.0
C372 C 0.75685 0.48095 0.49773 0.0
C373 C 0.75933 0.41811 0.47247 0.0
C374 C 0.73912 0.43697 0.58083 0.0
C375 C 0.7475 0.43093 0.6478 0.0
C376 C 0.73339 0.42552 0.70547 0.0
C377 C 0.70988 0.42497 0.69416 0.0
C378 C 0.70073 0.42923 0.62553 0.0
C379 C 0.7155 0.43547 0.56801 0.0
H380 H 0.93604 0.89105 0.00527 0.0
H381 H 0.92609 0.96773 0.84398 0.0
H382 H 0.96427 0.99414 0.87196 0.0
H383 H 0.96866 0.94536 0.12985 0.0
H384 H 0.98778 0.91292 0.15521 0.0
H385 H 0.95897 0.90126 0.12703 0.0
H386 H 0.97444 0.8625 0.03106 0.0
H387 H 0.00325 0.87381 0.05927 0.0
H388 H 0.9949 0.88003 0.96858 0.0
H389 H 0.00216 0.01423 0.92222 0.0
H390 H 0.04072 0.0209 0.97348 0.0
H391 H 0.02948 0.92652 0.09026 0.0
C392 C 0.94184 0.9136 0.97628 0.0
C393 C 0.9279 0.92766 0.92298 0.0
C394 C 0.93634 0.95667 0.8852 0.0
C395 C 0.95796 0.97194 0.90105 0.0
C396 C 0.97115 0.95762 0.95412 0.0
C397 C 0.96365 0.92873 0.99031 0.0
C398 C 0.982 0.91723 0.04142 0.0
C399 C 0.97386 0.91931 0.11791 0.0
C400 C 0.98907 0.88126 0.02399 0.0
C401 C 1.00121 0.94372 0.02695 0.0
C402 C 0.99414 0.96734 0.97814 0.0
C403 C 0.00811 0.99533 0.95882 0.0
C404 C 0.03016 0.99865 0.98781 0.0
C405 C 0.03874 0.97335 0.03316 0.0
C406 C 0.0237 0.94598 0.05471 0.0
H407 H 0.45363 0.99998 0.10244 0.0
H408 H 0.45326 0.89266 0.05503 0.0
H409 H 0.49334 0.89946 0.01613 0.0
H410 H 0.487 0.02974 0.9582 0.0
H411 H 0.50337 0.06222 0.00575 0.0
H412 H 0.47504 0.04902 0.0343 0.0
H413 H 0.49087 0.03503 0.15844 0.0
H414 H 0.51923 0.04853 0.13044 0.0
H415 H 0.5139 0.00663 0.16731 0.0
H416 H 0.53219 0.91824 0.97343 0.0
H417 H 0.56924 0.94693 0.94149 0.0
H418 H 0.54574 0.04221 0.01791 0.0
C419 C 0.46225 0.9779 0.08532 0.0
C420 C 0.4504 0.94574 0.08153 0.0
C421 C 0.46209 0.91744 0.05829 0.0
C422 C 0.48481 0.9211 0.03583 0.0
C423 C 0.49585 0.95321 0.03788 0.0
C424 C 0.48518 0.98108 0.06316 0.0
C425 C 0.50114 0.01273 0.05914 0.0
C426 C 0.49103 0.04003 0.0115 0.0
C427 C 0.50661 0.02655 0.13324 0.0
C428 C 0.52214 0.99836 0.02625 0.0
C429 C 0.51863 0.96396 0.01443 0.0
C430 C 0.53524 0.94509 0.98315 0.0
C431 C 0.55617 0.9616 0.96475 0.0
C432 C 0.56043 0.99661 0.9778 0.0
C433 C 0.54304 0.01527 0.00827 0.0
H434 H 0.06122 0.4594 0.42204 0.0
H435 H 0.05808 0.34976 0.44215 0.0
H436 H 0.01808 0.35054 0.48238 0.0
H437 H 0.03038 0.47601 0.57314 0.0
H438 H 0.01507 0.51057 0.53611 0.0
H439 H 0.04267 0.50146 0.5024 0.0
H440 H 0.02553 0.49534 0.37637 0.0
H441 H 0.9979 0.50496 0.40952 0.0
H442 H 1.00118 0.46637 0.36132 0.0
H443 H 0.98 0.36355 0.52942 0.0
H444 H 0.94439 0.38809 0.57064 0.0
H445 H 0.97247 0.48908 0.52029 0.0
C446 C 0.05178 0.43566 0.43332 0.0
C447 C 0.06228 0.40452 0.42901 0.0
C448 C 0.04991 0.37374 0.44497 0.0
C449 C 0.02735 0.37397 0.46798 0.0
C450 C 0.01754 0.4052 0.47391 0.0
C451 C 0.02919 0.43545 0.45608 0.0
C452 C 0.01488 0.46553 0.46933 0.0
C453 C 0.02645 0.48981 0.52348 0.0
C454 C 0.00956 0.48414 0.4 0.0
C455 C 0.99368 0.44747 0.49898 0.0
C456 C 0.99552 0.41269 0.50097 0.0
C457 C 0.97822 0.39072 0.52747 0.0
C458 C 0.95823 0.40476 0.55109 0.0
C459 C 0.95596 0.4402 0.54777 0.0
C460 C 0.97395 0.46181 0.52249 0.0
H461 H 0.45486 0.45791 0.41405 0.0
H462 H 0.45953 0.56312 0.47939 0.0
H463 H 0.49995 0.55754 0.51398 0.0
H464 H 0.48897 0.42554 0.5527 0.0
H465 H 0.50284 0.39545 0.4989 0.0
H466 H 0.47461 0.40805 0.47569 0.0
H467 H 0.48886 0.42648 0.35177 0.0
H468 H 0.51719 0.41401 0.37472 0.0
H469 H 0.51293 0.45661 0.34392 0.0
H470 H 0.53885 0.54058 0.54477 0.0
H471 H 0.57462 0.51243 0.57283 0.0
H472 H 0.54503 0.41783 0.4895 0.0
C473 C 0.46458 0.47971 0.43509 0.0
C474 C 0.45433 0.5109 0.44466 0.0
C475 C 0.46726 0.53901 0.47242 0.0
C476 C 0.49016 0.53612 0.49181 0.0
C477 C 0.49981 0.50499 0.48248 0.0
C478 C 0.48753 0.47723 0.45477 0.0
C479 C 0.50195 0.44645 0.45252 0.0
C480 C 0.49146 0.41715 0.49767 0.0
C481 C 0.50544 0.43523 0.37618 0.0
C482 C 0.52404 0.46116 0.48466 0.0
C483 C 0.52245 0.49506 0.50078 0.0
C484 C 0.54041 0.5141 0.53214 0.0
C485 C 0.56055 0.49797 0.54802 0.0
C486 C 0.56241 0.46319 0.53304 0.0
C487 C 0.54403 0.44462 0.5005 0.0
H488 H 0.12321 0.98536 0.7519 0.0
H489 H 0.11511 0.09268 0.7117 0.0
H490 H 0.11053 0.08098 0.58481 0.0
H491 H 0.15699 0.97163 0.59426 0.0
H492 H 0.14441 0.92944 0.58125 0.0
H493 H 0.14717 0.94651 0.66882 0.0
H494 H 0.10372 0.93488 0.68692 0.0
H495 H 0.10073 0.91825 0.5991 0.0
H496 H 0.08375 0.95269 0.62572 0.0
H497 H 0.10641 0.05755 0.46156 0.0
H498 H 0.10445 0.02413 0.35159 0.0
H499 H 0.11651 0.9327 0.47184 0.0
C500 C 0.12131 0.00671 0.71676 0.0
C501 C 0.12018 0.04022 0.74243 0.0
C502 C 0.11631 0.06685 0.69369 0.0
C503 C 0.11366 0.06047 0.62135 0.0
C504 C 0.11498 0.02726 0.59797 0.0
C505 C 0.11891 0.00085 0.64414 0.0
C506 C 0.1197 0.96747 0.60528 0.0
C507 C 0.14348 0.95291 0.61285 0.0
C508 C 0.10085 0.94182 0.63078 0.0
C509 C 0.11524 0.97917 0.53022 0.0
C510 C 0.11262 0.01377 0.52711 0.0
C511 C 0.1086 0.03046 0.46338 0.0
C512 C 0.1076 0.01136 0.40113 0.0
C513 C 0.11052 0.97595 0.40288 0.0
C514 C 0.11414 0.95972 0.46862 0.0
H515 H 0.35635 0.90239 0.41948 0.0
H516 H 0.39197 0.00161 0.42315 0.0
H517 H 0.39214 0.99971 0.55405 0.0
H518 H 0.32053 0.91594 0.57115 0.0
H519 H 0.32154 0.87241 0.60026 0.0
H520 H 0.32354 0.88271 0.50782 0.0
H521 H 0.36176 0.85249 0.50167 0.0
H522 H 0.35992 0.84218 0.59398 0.0
H523 H 0.38493 0.86526 0.56056 0.0
H524 H 0.39052 0.9844 0.68404 0.0
H525 H 0.38619 0.95833 0.80213 0.0
H526 H 0.35032 0.87024 0.71037 0.0
C527 C 0.36419 0.92381 0.44768 0.0
C528 C 0.37436 0.95205 0.41167 0.0
C529 C 0.3841 0.97979 0.45021 0.0
C530 C 0.38427 0.97888 0.52425 0.0
C531 C 0.37425 0.95034 0.55808 0.0
C532 C 0.36419 0.9235 0.52085 0.0
C533 C 0.35471 0.89562 0.56888 0.0
C534 C 0.32853 0.89144 0.56158 0.0
C535 C 0.36602 0.86192 0.55546 0.0
C536 C 0.36171 0.91031 0.63935 0.0
C537 C 0.37275 0.94202 0.63226 0.0
C538 C 0.38146 0.95996 0.69027 0.0
C539 C 0.37871 0.94511 0.75717 0.0
C540 C 0.36729 0.91279 0.76517 0.0
C541 C 0.35883 0.8952 0.7055 0.0
H542 H 0.1202 0.34581 0.78297 0.0
H543 H 0.17572 0.41616 0.71921 0.0
H544 H 0.17552 0.44283 0.83602 0.0
H545 H 0.09079 0.40347 0.8993 0.0
H546 H 0.08422 0.37032 0.96299 0.0
H547 H 0.08637 0.36008 0.87102 0.0
H548 H 0.11688 0.31664 0.9013 0.0
H549 H 0.11465 0.32656 0.99312 0.0
H550 H 0.14207 0.3304 0.95078 0.0
H551 H 0.17136 0.45883 0.9633 0.0
H552 H 0.16626 0.45897 0.09221 0.0
H553 H 0.11471 0.37634 0.07369 0.0
C554 C 0.13214 0.36715 0.79306 0.0
C555 C 0.14747 0.37954 0.74076 0.0
C556 C 0.16309 0.40708 0.75687 0.0
C557 C 0.16321 0.4223 0.82348 0.0
C558 C 0.14773 0.40954 0.87357 0.0
C559 C 0.13259 0.38239 0.85922 0.0
C560 C 0.11928 0.37119 0.92397 0.0
C561 C 0.09364 0.3766 0.91368 0.0
C562 C 0.12349 0.33401 0.94342 0.0
C563 C 0.12985 0.3955 0.97771 0.0
C564 C 0.14587 0.41794 0.94739 0.0
C565 C 0.15871 0.44159 0.98747 0.0
C566 C 0.15565 0.44152 0.06069 0.0
C567 C 0.14013 0.41759 0.09304 0.0
C568 C 0.12663 0.39504 0.05052 0.0
H569 H 0.3721 0.54761 0.08348 0.0
H570 H 0.39013 0.44239 0.07683 0.0
H571 H 0.38686 0.44386 0.94616 0.0
H572 H 0.3296 0.54041 0.94574 0.0
H573 H 0.33604 0.58276 0.9126 0.0
H574 H 0.3405 0.5732 0.00452 0.0
H575 H 0.38284 0.59524 0.99545 0.0
H576 H 0.37855 0.60506 0.90367 0.0
H577 H 0.40086 0.57765 0.93015 0.0
H578 H 0.38356 0.45902 0.81512 0.0
H579 H 0.3787 0.48479 0.6974 0.0
H580 H 0.3592 0.57818 0.79384 0.0
C581 C 0.37565 0.52493 0.05463 0.0
C582 C 0.38181 0.49505 0.08985 0.0
C583 C 0.38563 0.46562 0.05045 0.0
C584 C 0.38376 0.46625 0.97647 0.0
C585 C 0.37756 0.49627 0.94342 0.0
C586 C 0.37334 0.5249 0.98157 0.0
C587 C 0.36624 0.55371 0.93459 0.0
C588 C 0.34164 0.56306 0.95031 0.0
C589 C 0.38314 0.58473 0.94136 0.0
C590 C 0.3677 0.53727 0.8634 0.0
C591 C 0.37424 0.50414 0.86932 0.0
C592 C 0.37784 0.4846 0.81006 0.0
C593 C 0.37467 0.49934 0.74325 0.0
C594 C 0.36753 0.53306 0.73628 0.0
C595 C 0.36413 0.55211 0.79742 0.0
H596 H 0.86246 0.89417 0.16916 0.0
H597 H 0.81777 0.80319 0.17381 0.0
H598 H 0.81694 0.80582 0.30468 0.0
H599 H 0.89571 0.87904 0.32015 0.0
H600 H 0.89695 0.92255 0.34894 0.0
H601 H 0.89359 0.9131 0.25678 0.0
H602 H 0.85682 0.94697 0.25148 0.0
H603 H 0.86001 0.95652 0.34381 0.0
H604 H 0.83381 0.93611 0.31117 0.0
H605 H 0.82377 0.81702 0.43571 0.0
H606 H 0.83564 0.83683 0.55395 0.0
H607 H 0.87299 0.92345 0.46036 0.0
C608 C 0.85261 0.8747 0.19789 0.0
C609 C 0.84051 0.8481 0.16233 0.0
C610 C 0.82727 0.82355 0.20086 0.0
C611 C 0.8267 0.82493 0.27484 0.0
C612 C 0.83895 0.85158 0.30854 0.0
C613 C 0.85136 0.87626 0.27101 0.0
C614 C 0.86261 0.90274 0.31884 0.0
C615 C 0.88876 0.90442 0.3107 0.0
C616 C 0.85272 0.93765 0.30553 0.0
C617 C 0.85549 0.88838 0.38972 0.0
C618 C 0.84172 0.85902 0.38292 0.0
C619 C 0.83404 0.84045 0.44158 0.0
C620 C 0.84065 0.8522 0.50878 0.0
C621 C 0.8546 0.88242 0.51671 0.0
C622 C 0.862 0.9006 0.45612 0.0
H623 H 0.62343 0.05079 0.623 0.0
H624 H 0.66431 0.96195 0.63053 0.0
H625 H 0.67065 0.9674 0.50243 0.0
H626 H 0.5967 0.03505 0.45162 0.0
H627 H 0.59809 0.07943 0.42757 0.0
H628 H 0.59564 0.06698 0.51878 0.0
H629 H 0.63211 0.10448 0.54815 0.0
H630 H 0.63488 0.11658 0.45686 0.0
H631 H 0.65824 0.09758 0.50234 0.0
H632 H 0.67568 0.98605 0.37632 0.0
H633 H 0.67533 0.01234 0.25847 0.0
H634 H 0.62952 0.08718 0.33255 0.0
C635 C 0.63334 0.03201 0.59766 0.0
C636 C 0.64333 0.00585 0.63681 0.0
C637 C 0.65641 0.98211 0.60158 0.0
C638 C 0.6602 0.98509 0.52893 0.0
C639 C 0.65073 0.01187 0.49245 0.0
C640 C 0.63733 0.03466 0.52542 0.0
C641 C 0.62968 0.06175 0.47471 0.0
C642 C 0.60347 0.06071 0.46776 0.0
C643 C 0.6393 0.09718 0.49686 0.0
C644 C 0.64066 0.05038 0.4078 0.0
C645 C 0.65296 0.02186 0.4193 0.0
C646 C 0.66553 0.00778 0.36614 0.0
C647 C 0.66496 0.02267 0.29888 0.0
C648 C 0.65147 0.05085 0.28499 0.0
C649 C 0.63963 0.06523 0.34089 0.0
H650 H 0.84792 0.48558 0.23631 0.0
H651 H 0.9206 0.50568 0.26943 0.0
H652 H 0.92826 0.48235 0.15214 0.0
H653 H 0.85216 0.40711 0.12363 0.0
H654 H 0.82893 0.41929 0.06736 0.0
H655 H 0.82936 0.43053 0.15927 0.0
H656 H 0.82607 0.49391 0.12505 0.0
H657 H 0.8255 0.48279 0.03351 0.0
H658 H 0.84668 0.51378 0.06582 0.0
H659 H 0.92783 0.46494 0.02691 0.0
H660 H 0.91921 0.45928 0.89999 0.0
H661 H 0.84665 0.45167 0.94554 0.0
C662 C 0.86542 0.4841 0.21922 0.0
C663 C 0.88372 0.49715 0.26132 0.0
C664 C 0.90642 0.49575 0.23737 0.0
C665 C 0.91092 0.48224 0.17128 0.0
C666 C 0.8925 0.47029 0.12983 0.0
C667 C 0.87017 0.4711 0.15274 0.0
C668 C 0.85339 0.46112 0.0943 0.0
C669 C 0.84018 0.42751 0.11223 0.0
C670 C 0.83697 0.4896 0.07876 0.0
C671 C 0.86972 0.45666 0.03406 0.0
C672 C 0.89222 0.46097 0.05623 0.0
C673 C 0.9103 0.46096 0.00904 0.0
C674 C 0.90524 0.45779 0.93696 0.0
C675 C 0.88227 0.4552 0.9128 0.0
C676 C 0.86439 0.45335 0.96239 0.0
H677 H 0.64966 0.42528 0.25092 0.0
H678 H 0.62741 0.31905 0.22519 0.0
H679 H 0.62525 0.32784 0.09748 0.0
H680 H 0.61683 0.46035 0.1192 0.0
H681 H 0.63848 0.49044 0.08654 0.0
H682 H 0.63941 0.47647 0.17703 0.0
H683 H 0.68048 0.4567 0.16113 0.0
H684 H 0.6799 0.47132 0.07094 0.0
H685 H 0.68622 0.428 0.09084 0.0
H686 H 0.62087 0.34868 0.97631 0.0
H687 H 0.62141 0.37825 0.86185 0.0
H688 H 0.65145 0.46915 0.96022 0.0
C689 C 0.64522 0.40338 0.21915 0.0
C690 C 0.63885 0.37126 0.2494 0.0
C691 C 0.63224 0.34397 0.20412 0.0
C692 C 0.63097 0.34863 0.13122 0.0
C693 C 0.63685 0.38059 0.10366 0.0
C694 C 0.6445 0.4073 0.1456 0.0
C695 C 0.65007 0.43891 0.10127 0.0
C696 C 0.63531 0.46827 0.12229 0.0
C697 C 0.67569 0.44934 0.10634 0.0
C698 C 0.6436 0.42585 0.02834 0.0
C699 C 0.63574 0.39223 0.03163 0.0
C700 C 0.62735 0.37483 0.9727 0.0
C701 C 0.62749 0.39197 0.90808 0.0
C702 C 0.63637 0.42594 0.90243 0.0
C703 C 0.64458 0.44316 0.96334 0.0
H704 H 0.13292 0.1341 0.11307 0.0
H705 H 0.11213 0.07874 0.30258 0.0
H706 H 0.11416 0.1317 0.36929 0.0
H707 H 0.17301 0.19248 0.19925 0.0
H708 H 0.16634 0.22847 0.14504 0.0
H709 H 0.16279 0.18616 0.11017 0.0
H710 H 0.12043 0.1962 0.07961 0.0
H711 H 0.12391 0.2386 0.11402 0.0
H712 H 0.10174 0.20966 0.14766 0.0
H713 H 0.11995 0.18965 0.41795 0.0
H714 H 0.12689 0.25064 0.44341 0.0
H715 H 0.14295 0.26974 0.22336 0.0
C716 C 0.12859 0.13321 0.16838 0.0
C717 C 0.12246 0.10204 0.20243 0.0
C718 C 0.11705 0.10207 0.27513 0.0
C719 C 0.11812 0.13211 0.31373 0.0
C720 C 0.12458 0.16219 0.27914 0.0
C721 C 0.12958 0.16318 0.20809 0.0
C722 C 0.1363 0.19915 0.18453 0.0
C723 C 0.16108 0.2017 0.1582 0.0
C724 C 0.11959 0.21163 0.12813 0.0
C725 C 0.1341 0.21799 0.25331 0.0
C726 C 0.12753 0.19607 0.30728 0.0
C727 C 0.12499 0.20719 0.37611 0.0
C728 C 0.12907 0.24181 0.39015 0.0
C729 C 0.13538 0.26492 0.33543 0.0
C730 C 0.13796 0.25271 0.2662 0.0
H731 H 0.37349 0.80724 0.28378 0.0
H732 H 0.34779 0.78801 0.07147 0.0
H733 H 0.34387 0.72692 0.09849 0.0
H734 H 0.40676 0.73288 0.29512 0.0
H735 H 0.401 0.72467 0.38693 0.0
H736 H 0.40105 0.76745 0.35281 0.0
H737 H 0.36006 0.77312 0.39934 0.0
H738 H 0.35984 0.73028 0.43327 0.0
H739 H 0.33766 0.7426 0.37314 0.0
H740 H 0.34311 0.6689 0.14504 0.0
H741 H 0.34752 0.61489 0.20727 0.0
H742 H 0.37419 0.66902 0.39131 0.0
C743 C 0.36691 0.79016 0.24317 0.0
C744 C 0.36083 0.80254 0.17543 0.0
C745 C 0.35258 0.77928 0.12356 0.0
C746 C 0.35018 0.7445 0.1385 0.0
C747 C 0.35623 0.73318 0.20548 0.0
C748 C 0.36459 0.75509 0.25701 0.0
C749 C 0.37071 0.73559 0.32362 0.0
C750 C 0.39641 0.74044 0.34059 0.0
C751 C 0.35619 0.74603 0.38603 0.0
C752 C 0.3644 0.69936 0.30116 0.0
C753 C 0.356 0.6989 0.23277 0.0
C754 C 0.3496 0.66886 0.19862 0.0
C755 C 0.35223 0.63828 0.23455 0.0
C756 C 0.3612 0.63768 0.30419 0.0
C757 C 0.36702 0.66873 0.3385 0.0
H758 H 0.85273 0.75192 0.71284 0.0
H759 H 0.89302 0.74886 0.90579 0.0
H760 H 0.90149 0.68958 0.88226 0.0
H761 H 0.82886 0.6671 0.71722 0.0
H762 H 0.83158 0.65968 0.6242 0.0
H763 H 0.82841 0.70213 0.65558 0.0
H764 H 0.86576 0.72244 0.59283 0.0
H765 H 0.86902 0.68001 0.56114 0.0
H766 H 0.89174 0.70124 0.61125 0.0
H767 H 0.90414 0.6308 0.84268 0.0
H768 H 0.90279 0.57517 0.78547 0.0
H769 H 0.86327 0.61559 0.61184 0.0
C770 C 0.86342 0.73872 0.7498 0.0
C771 C 0.87169 0.75465 0.81227 0.0
C772 C 0.88581 0.73678 0.85904 0.0
C773 C 0.89094 0.70323 0.84571 0.0
C774 C 0.88229 0.68809 0.78441 0.0
C775 C 0.8691 0.70523 0.73656 0.0
C776 C 0.86239 0.6828 0.67417 0.0
C777 C 0.83626 0.67762 0.66745 0.0
C778 C 0.87285 0.69751 0.60579 0.0
C779 C 0.87333 0.65013 0.6958 0.0
C780 C 0.88474 0.65402 0.75957 0.0
C781 C 0.89549 0.62746 0.79237 0.0
C782 C 0.89454 0.59589 0.75944 0.0
C783 C 0.88299 0.59101 0.69401 0.0
C784 C 0.87245 0.61867 0.66138 0.0
H785 H 0.65798 0.14745 0.76094 0.0
H786 H 0.62714 0.16551 0.96335 0.0
H787 H 0.62004 0.22401 0.92646 0.0
H788 H 0.6859 0.23431 0.7481 0.0
H789 H 0.68219 0.23656 0.65385 0.0
H790 H 0.68568 0.19612 0.69657 0.0
H791 H 0.64777 0.1729 0.63936 0.0
H792 H 0.64399 0.21338 0.59736 0.0
H793 H 0.62191 0.19477 0.65314 0.0
H794 H 0.61306 0.27758 0.86651 0.0
H795 H 0.61139 0.3284 0.79196 0.0
H796 H 0.64902 0.27934 0.62884 0.0
C797 C 0.64994 0.16392 0.79753 0.0
C798 C 0.64298 0.15195 0.8649 0.0
C799 C 0.63271 0.17421 0.91173 0.0
C800 C 0.62848 0.20741 0.89113 0.0
C801 C 0.63506 0.21821 0.82407 0.0
C802 C 0.64608 0.19762 0.77841 0.0
C803 C 0.6519 0.21644 0.71013 0.0
C804 C 0.67796 0.22114 0.70168 0.0
C805 C 0.64071 0.19828 0.64624 0.0
C806 C 0.64136 0.25017 0.72357 0.0
C807 C 0.63183 0.25036 0.78986 0.0
C808 C 0.62075 0.27802 0.81492 0.0
C809 C 0.6199 0.30679 0.772 0.0
C810 C 0.63027 0.30803 0.70483 0.0
C811 C 0.64082 0.27905 0.67971 0.0
loop_
_geom_bond_atom_site_label_1
_geom_bond_atom_site_label_2
_geom_bond_distance
_geom_bond_site_symmetry_2
_ccdc_geom_bond_type
Co0 O3 1.970 1_545 S
Co0 N17 1.989 1_545 S
Co0 O25 1.967 . S
Co0 O32 1.920 . S
Co1 O4 1.966 . S
Co1 N10 2.022 1_554 S
Co1 N18 1.993 . S
Co1 O26 1.941 . S
C2 O3 1.258 1_545 S
C2 O4 1.263 . S
O3 Co0 1.970 1_565 S
O3 C2 1.258 1_565 S
O4 Co1 1.966 . S
O4 C2 1.263 . S
C5 O6 1.235 . S
C5 O32 1.289 1_565 S
O6 C5 1.235 . S
C7 C9 1.400 . S
C7 N10 1.351 . S
C7 C12 1.501 1_545 S
C8 C9 1.387 . S
C8 N11 1.341 . S
C9 C7 1.400 . S
C9 C8 1.387 . S
N10 Co1 2.022 1_556 S
N10 C7 1.351 . S
N10 N11 1.365 . S
N11 C8 1.341 . S
N11 N10 1.365 . S
N11 H31 0.862 . S
C12 C7 1.501 1_565 S
C12 H13 0.961 . S
C12 H14 0.961 . S
C12 H15 0.960 1_565 S
H13 C12 0.961 . S
H14 C12 0.961 . S
H15 C12 0.960 1_545 S
C16 N17 1.342 . S
C16 C20 1.401 . S
C16 C21 1.499 . S
N17 Co0 1.989 1_565 S
N17 C16 1.342 . S
N17 N18 1.388 1_565 S
N18 Co1 1.993 . S
N18 N17 1.388 1_545 S
N18 C19 1.346 1_545 S
C19 N18 1.346 1_565 S
C19 C20 1.396 . S
C19 C29 1.510 1_554 S
C20 C16 1.401 . S
C20 C19 1.396 . S
C21 C16 1.499 . S
C21 H22 0.959 . S
C21 H23 0.960 . S
C21 H24 0.961 . S
H22 C21 0.959 . S
H23 C21 0.960 . S
H24 C21 0.961 . S
O25 Co0 1.967 . S
O25 C33 1.258 . S
O26 Co1 1.941 . S
O26 C33 1.266 . S
H27 C29 0.959 1_545 S
H28 C29 0.961 . S
C29 C19 1.510 1_556 S
C29 H27 0.959 1_565 S
C29 H28 0.961 . S
C29 H30 0.971 . S
H30 C29 0.971 . S
H31 N11 0.862 . S
O32 Co0 1.920 . S
O32 C5 1.289 1_545 S
C33 O25 1.258 . S
C33 O26 1.266 . S
Co34 O37 1.970 . S
Co34 N51 1.989 . S
Co34 O59 1.967 . S
Co34 O66 1.920 . S
Co35 O38 1.966 . S
Co35 N44 2.022 1_554 S
Co35 N52 1.993 . S
Co35 O60 1.941 . S
C36 O37 1.258 . S
C36 O38 1.263 . S
O37 Co34 1.970 . S
O37 C36 1.258 . S
O38 Co35 1.966 . S
O38 C36 1.263 . S
C39 O40 1.235 . S
C39 O66 1.289 . S
O40 C39 1.235 . S
C41 C43 1.400 . S
C41 N44 1.351 . S
C41 C46 1.501 . S
C42 C43 1.387 . S
C42 N45 1.341 . S
C43 C41 1.400 . S
C43 C42 1.387 . S
N44 Co35 2.022 1_556 S
N44 C41 1.351 . S
N44 N45 1.365 . S
N45 C42 1.341 . S
N45 N44 1.365 . S
N45 H65 0.862 . S
C46 C41 1.501 . S
C46 H47 0.961 . S
C46 H48 0.961 . S
C46 H49 0.960 . S
H47 C46 0.961 . S
H48 C46 0.961 . S
H49 C46 0.960 . S
C50 N51 1.342 . S
C50 C54 1.401 . S
C50 C55 1.499 . S
N51 Co34 1.989 . S
N51 C50 1.342 . S
N51 N52 1.388 . S
N52 Co35 1.993 . S
N52 N51 1.388 . S
N52 C53 1.346 . S
C53 N52 1.346 . S
C53 C54 1.396 . S
C53 C63 1.510 1_554 S
C54 C50 1.401 . S
C54 C53 1.396 . S
C55 C50 1.499 . S
C55 H56 0.959 . S
C55 H57 0.960 . S
C55 H58 0.961 . S
H56 C55 0.959 . S
H57 C55 0.960 . S
H58 C55 0.961 . S
O59 Co34 1.967 . S
O59 C67 1.258 . S
O60 Co35 1.941 . S
O60 C67 1.266 . S
H61 C63 0.959 . S
H62 C63 0.961 . S
C63 C53 1.510 1_556 S
C63 H61 0.959 . S
C63 H62 0.961 . S
C63 H64 0.960 . S
H64 C63 0.960 . S
H65 N45 0.862 . S
O66 Co34 1.920 . S
O66 C39 1.289 . S
C67 O59 1.258 . S
C67 O60 1.266 . S
Co68 O71 1.970 . S
Co68 N85 1.989 . S
Co68 O93 1.967 . S
Co68 O100 1.920 . S
Co69 O72 1.966 . S
Co69 N78 2.022 . S
Co69 N86 1.993 . S
Co69 O94 1.941 . S
C70 O71 1.258 . S
C70 O72 1.263 . S
O71 Co68 1.970 . S
O71 C70 1.258 . S
O72 Co69 1.966 . S
O72 C70 1.263 . S
C73 O74 1.235 . S
C73 O100 1.289 . S
O74 C73 1.235 . S
C75 C77 1.400 . S
C75 N78 1.351 . S
C75 C80 1.501 . S
C76 C77 1.387 . S
C76 N79 1.341 . S
C77 C75 1.400 . S
C77 C76 1.387 . S
N78 Co69 2.022 . S
N78 C75 1.351 . S
N78 N79 1.365 . S
N79 C76 1.341 . S
N79 N78 1.365 . S
N79 H99 0.862 . S
C80 C75 1.501 . S
C80 H81 0.961 . S
C80 H82 0.961 . S
C80 H83 0.960 . S
H81 C80 0.961 . S
H82 C80 0.961 . S
H83 C80 0.960 . S
C84 N85 1.342 . S
C84 C88 1.401 . S
C84 C89 1.499 . S
N85 Co68 1.989 . S
N85 C84 1.342 . S
N85 N86 1.388 . S
N86 Co69 1.993 . S
N86 N85 1.388 . S
N86 C87 1.346 . S
C87 N86 1.346 . S
C87 C88 1.396 . S
C87 C97 1.510 . S
C88 C84 1.401 . S
C88 C87 1.396 . S
C89 C84 1.499 . S
C89 H90 0.959 . S
C89 H91 0.960 . S
C89 H92 0.961 . S
H90 C89 0.959 . S
H91 C89 0.960 . S
H92 C89 0.961 . S
O93 Co68 1.967 . S
O93 C101 1.258 . S
O94 Co69 1.941 . S
O94 C101 1.266 . S
H95 C97 0.959 . S
H96 C97 0.961 . S
C97 C87 1.510 . S
C97 H95 0.959 . S
C97 H96 0.961 . S
C97 H98 0.960 . S
H98 C97 0.960 . S
H99 N79 0.862 . S
O100 Co68 1.920 . S
O100 C73 1.289 . S
C101 O93 1.258 . S
C101 O94 1.266 . S
Co102 O105 1.970 . S
Co102 N119 1.989 . S
Co102 O127 1.967 . S
Co102 O134 1.920 . S
Co103 O106 1.966 . S
Co103 N112 2.022 . S
Co103 N120 1.993 . S
Co103 O128 1.941 . S
C104 O105 1.258 . S
C104 O106 1.263 . S
O105 Co102 1.970 . S
O105 C104 1.258 . S
O106 Co103 1.966 . S
O106 C104 1.263 . S
C107 O108 1.235 . S
C107 O134 1.289 . S
O108 C107 1.235 . S
C109 C111 1.400 . S
C109 N112 1.351 . S
C109 C114 1.501 . S
C110 C111 1.387 . S
C110 N113 1.341 . S
C111 C109 1.400 . S
C111 C110 1.387 . S
N112 Co103 2.022 . S
N112 C109 1.351 . S
N112 N113 1.365 . S
N113 C110 1.341 . S
N113 N112 1.365 . S
N113 H133 0.862 . S
C114 C109 1.501 . S
C114 H115 0.961 . S
C114 H116 0.961 . S
C114 H117 0.960 . S
H115 C114 0.961 . S
H116 C114 0.961 . S
H117 C114 0.960 . S
C118 N119 1.342 . S
C118 C122 1.401 . S
C118 C123 1.499 . S
N119 Co102 1.989 . S
N119 C118 1.342 . S
N119 N120 1.388 . S
N120 Co103 1.993 . S
N120 N119 1.388 . S
N120 C121 1.346 . S
C121 N120 1.346 . S
C121 C122 1.396 . S
C121 C131 1.510 . S
C122 C118 1.401 . S
C122 C121 1.396 . S
C123 C118 1.499 . S
C123 H124 0.959 . S
C123 H125 0.960 . S
C123 H126 0.961 . S
H124 C123 0.959 . S
H125 C123 0.960 . S
H126 C123 0.961 . S
O127 Co102 1.967 . S
O127 C135 1.258 . S
O128 Co103 1.941 . S
O128 C135 1.266 . S
H129 C131 0.959 . S
H130 C131 0.961 . S
C131 C121 1.510 . S
C131 H129 0.959 . S
C131 H130 0.961 . S
C131 H132 0.960 . S
H132 C131 0.960 . S
H133 N113 0.862 . S
O134 Co102 1.920 . S
O134 C107 1.289 . S
C135 O127 1.258 . S
C135 O128 1.266 . S
Co136 O139 1.970 . S
Co136 N153 1.989 . S
Co136 O161 1.967 . S
Co136 O168 1.920 1_556 S
Co137 O140 1.966 . S
Co137 N146 2.022 . S
Co137 N154 1.993 . S
Co137 O162 1.941 . S
C138 O139 1.258 . S
C138 O140 1.263 . S
O139 Co136 1.970 . S
O139 C138 1.258 . S
O140 Co137 1.966 . S
O140 C138 1.263 . S
C141 O142 1.235 . S
C141 O168 1.289 . S
O142 C141 1.235 . S
C143 C145 1.400 . S
C143 N146 1.351 . S
C143 C148 1.501 . S
C144 C145 1.387 . S
C144 N147 1.341 . S
C145 C143 1.400 . S
C145 C144 1.387 . S
N146 Co137 2.022 . S
N146 C143 1.351 . S
N146 N147 1.365 . S
N147 C144 1.341 . S
N147 N146 1.365 . S
N147 H167 0.862 . S
C148 C143 1.501 . S
C148 H149 0.961 . S
C148 H150 0.961 . S
C148 H151 0.960 . S
H149 C148 0.961 . S
H150 C148 0.961 . S
H151 C148 0.960 . S
C152 N153 1.342 . S
C152 C156 1.401 . S
C152 C157 1.499 . S
N153 Co136 1.989 . S
N153 C152 1.342 . S
N153 N154 1.388 . S
N154 Co137 1.993 . S
N154 N153 1.388 . S
N154 C155 1.346 . S
C155 N154 1.346 . S
C155 C156 1.396 . S
C155 C165 1.510 . S
C156 C152 1.401 . S
C156 C155 1.396 . S
C157 C152 1.499 . S
C157 H158 0.956 1_556 S
C157 H159 0.960 . S
C157 H160 0.961 . S
H158 C157 0.956 1_554 S
H159 C157 0.960 . S
H160 C157 0.961 . S
O161 Co136 1.967 . S
O161 C169 1.258 . S
O162 Co137 1.941 . S
O162 C169 1.266 . S
H163 C165 0.959 . S
H164 C165 0.961 . S
C165 C155 1.510 . S
C165 H163 0.959 . S
C165 H164 0.961 . S
C165 H166 0.960 . S
H166 C165 0.960 . S
H167 N147 0.862 . S
O168 Co136 1.920 1_554 S
O168 C141 1.289 . S
C169 O161 1.258 . S
C169 O162 1.266 . S
Co170 O173 1.970 . S
Co170 N187 1.989 . S
Co170 O195 1.967 . S
Co170 O202 1.920 . S
Co171 O174 1.968 . S
Co171 N180 2.016 1_556 S
Co171 N188 1.995 . S
Co171 O196 1.944 . S
C172 O173 1.258 . S
C172 O174 1.263 . S
O173 Co170 1.970 . S
O173 C172 1.258 . S
O174 Co171 1.968 . S
O174 C172 1.263 . S
C175 O176 1.235 1_545 S
C175 O202 1.289 . S
O176 C175 1.235 1_565 S
C177 C179 1.400 . S
C177 N180 1.351 . S
C177 C182 1.501 . S
C178 C179 1.387 . S
C178 N181 1.341 . S
C179 C177 1.400 . S
C179 C178 1.387 . S
N180 Co171 2.016 1_554 S
N180 C177 1.351 . S
N180 N181 1.365 . S
N181 C178 1.341 . S
N181 N180 1.365 . S
N181 H201 0.862 . S
C182 C177 1.501 . S
C182 H183 0.961 . S
C182 H184 0.961 . S
C182 H185 0.960 . S
H183 C182 0.961 . S
H184 C182 0.961 . S
H185 C182 0.960 . S
C186 N187 1.342 . S
C186 C190 1.401 . S
C186 C191 1.499 . S
N187 Co170 1.989 . S
N187 C186 1.342 . S
N187 N188 1.388 . S
N188 Co171 1.995 . S
N188 N187 1.388 . S
N188 C189 1.346 1_556 S
C189 N188 1.346 1_554 S
C189 C190 1.396 1_554 S
C189 C199 1.510 . S
C190 C186 1.401 . S
C190 C189 1.396 1_556 S
C191 C186 1.499 . S
C191 H192 0.959 . S
C191 H193 0.960 . S
C191 H194 0.961 . S
H192 C191 0.959 . S
H193 C191 0.960 . S
H194 C191 0.961 . S
O195 Co170 1.967 . S
O195 C203 1.258 . S
O196 Co171 1.944 . S
O196 C203 1.266 . S
H197 C199 0.959 . S
H198 C199 0.961 . S
C199 C189 1.510 . S
C199 H197 0.959 . S
C199 H198 0.961 . S
C199 H200 0.960 . S
H200 C199 0.960 . S
H201 N181 0.862 . S
O202 Co170 1.920 . S
O202 C175 1.289 . S
C203 O195 1.258 . S
C203 O196 1.266 . S
Co204 O207 1.970 . S
Co204 N221 1.989 . S
Co204 O229 1.967 . S
Co204 O236 1.920 . S
Co205 O208 1.966 . S
Co205 N214 2.022 . S
Co205 N222 1.993 . S
Co205 O230 1.941 . S
C206 O207 1.258 . S
C206 O208 1.263 . S
O207 Co204 1.970 . S
O207 C206 1.258 . S
O208 Co205 1.966 . S
O208 C206 1.263 . S
C209 O210 1.235 . S
C209 O236 1.289 . S
O210 C209 1.235 . S
C211 C213 1.400 . S
C211 N214 1.351 . S
C211 C216 1.501 . S
C212 C213 1.387 . S
C212 N215 1.341 . S
C213 C211 1.400 . S
C213 C212 1.387 . S
N214 Co205 2.022 . S
N214 C211 1.351 . S
N214 N215 1.365 . S
N215 C212 1.341 . S
N215 N214 1.365 . S
N215 H235 0.862 . S
C216 C211 1.501 . S
C216 H217 0.961 . S
C216 H218 0.961 . S
C216 H219 0.960 . S
H217 C216 0.961 . S
H218 C216 0.961 . S
H219 C216 0.960 . S
C220 N221 1.342 . S
C220 C224 1.401 . S
C220 C225 1.499 . S
N221 Co204 1.989 . S
N221 C220 1.342 . S
N221 N222 1.388 . S
N222 Co205 1.993 . S
N222 N221 1.388 . S
N222 C223 1.346 . S
C223 N222 1.346 . S
C223 C224 1.396 . S
C223 C233 1.510 . S
C224 C220 1.401 . S
C224 C223 1.396 . S
C225 C220 1.499 . S
C225 H226 0.959 . S
C225 H227 0.960 . S
C225 H228 0.961 . S
H226 C225 0.959 . S
H227 C225 0.960 . S
H228 C225 0.961 . S
O229 Co204 1.967 . S
O229 C237 1.258 . S
O230 Co205 1.941 . S
O230 C237 1.266 . S
H231 C233 0.959 . S
H232 C233 0.961 . S
C233 C223 1.510 . S
C233 H231 0.959 . S
C233 H232 0.961 . S
C233 H234 0.960 . S
H234 C233 0.960 . S
H235 N215 0.862 . S
O236 Co204 1.920 . S
O236 C209 1.289 . S
C237 O229 1.258 . S
C237 O230 1.266 . S
Co238 O241 1.970 . S
Co238 N255 1.989 . S
Co238 O263 1.967 . S
Co238 O270 1.920 . S
Co239 O242 1.966 . S
Co239 N248 2.022 . S
Co239 N256 1.993 . S
Co239 O264 1.941 . S
C240 O241 1.258 . S
C240 O242 1.263 . S
O241 Co238 1.970 . S
O241 C240 1.258 . S
O242 Co239 1.966 . S
O242 C240 1.263 . S
C243 O244 1.235 . S
C243 O270 1.289 . S
O244 C243 1.235 . S
C245 C247 1.400 . S
C245 N248 1.351 . S
C245 C250 1.501 . S
C246 C247 1.387 . S
C246 N249 1.341 . S
C247 C245 1.400 . S
C247 C246 1.387 . S
N248 Co239 2.022 . S
N248 C245 1.351 . S
N248 N249 1.365 . S
N249 C246 1.341 . S
N249 N248 1.365 . S
N249 H269 0.862 . S
C250 C245 1.501 . S
C250 H251 0.961 . S
C250 H252 0.961 . S
C250 H253 0.960 . S
H251 C250 0.961 . S
H252 C250 0.961 . S
H253 C250 0.960 . S
C254 N255 1.342 . S
C254 C258 1.401 . S
C254 C259 1.499 . S
N255 Co238 1.989 . S
N255 C254 1.342 . S
N255 N256 1.388 . S
N256 Co239 1.993 . S
N256 N255 1.388 . S
N256 C257 1.346 . S
C257 N256 1.346 . S
C257 C258 1.396 . S
C257 C267 1.510 . S
C258 C254 1.401 . S
C258 C257 1.396 . S
C259 C254 1.499 . S
C259 H260 0.959 . S
C259 H261 0.960 . S
C259 H262 0.961 . S
H260 C259 0.959 . S
H261 C259 0.960 . S
H262 C259 0.961 . S
O263 Co238 1.967 . S
O263 C271 1.258 . S
O264 Co239 1.941 . S
O264 C271 1.266 . S
H265 C267 0.959 . S
H266 C267 0.961 . S
C267 C257 1.510 . S
C267 H265 0.959 . S
C267 H266 0.961 . S
C267 H268 0.960 . S
H268 C267 0.960 . S
H269 N249 0.862 . S
O270 Co238 1.920 . S
O270 C243 1.289 . S
C271 O263 1.258 . S
C271 O264 1.266 . S
H272 C284 0.930 . S
H273 C286 0.930 . S
H274 C287 0.930 1_545 S
H275 C291 0.959 . S
H276 C291 0.959 . S
H277 C291 0.961 . S
H278 C292 0.960 . S
H279 C292 0.961 . S
H280 C292 0.959 . S
H281 C295 0.929 . S
H282 C296 0.931 . S
H283 C298 0.930 . S
C284 H272 0.930 . S
C284 C285 1.399 . S
C284 C289 1.399 . S
C285 C284 1.399 . S
C285 C286 1.376 . S
C286 H273 0.930 . S
C286 C285 1.376 . S
C286 C287 1.388 . S
C287 H274 0.930 1_565 S
C287 C286 1.388 . S
C287 C288 1.390 . S
C288 C287 1.390 . S
C288 C289 1.394 . S
C288 C294 1.465 . S
C289 C284 1.399 . S
C289 C288 1.394 . S
C289 C290 1.516 . S
C290 C289 1.516 . S
C290 C291 1.502 . S
C290 C292 1.561 . S
C290 C293 1.526 . S
C291 H275 0.959 . S
C291 H276 0.959 . S
C291 H277 0.961 . S
C291 C290 1.502 . S
C292 H278 0.960 . S
C292 H279 0.961 . S
C292 H280 0.959 . S
C292 C290 1.561 . S
C293 C290 1.526 . S
C293 C294 1.396 . S
C293 C298 1.390 . S
C294 C288 1.465 . S
C294 C293 1.396 . S
C294 C295 1.399 1_565 S
C295 H281 0.929 . S
C295 C294 1.399 1_545 S
C295 C296 1.385 . S
C296 H282 0.931 . S
C296 C295 1.385 . S
C296 C297 1.389 1_545 S
C297 C296 1.389 1_565 S
C297 C298 1.387 . S
C298 H283 0.930 . S
C298 C293 1.390 . S
C298 C297 1.387 . S
H299 C311 0.930 . S
H300 C313 0.930 . S
H301 C314 0.930 . S
H302 C318 0.959 . S
H303 C318 0.959 . S
H304 C318 0.961 . S
H305 C319 0.960 . S
H306 C319 0.961 . S
H307 C319 0.959 . S
H308 C322 0.929 . S
H309 C323 0.931 . S
H310 C325 0.930 . S
C311 H299 0.930 . S
C311 C312 1.399 . S
C311 C316 1.399 . S
C312 C311 1.399 . S
C312 C313 1.376 . S
C313 H300 0.930 . S
C313 C312 1.376 . S
C313 C314 1.388 . S
C314 H301 0.930 . S
C314 C313 1.388 . S
C314 C315 1.390 . S
C315 C314 1.390 . S
C315 C316 1.394 . S
C315 C321 1.465 . S
C316 C311 1.399 . S
C316 C315 1.394 . S
C316 C317 1.516 . S
C317 C316 1.516 . S
C317 C318 1.502 . S
C317 C319 1.561 . S
C317 C320 1.526 . S
C318 H302 0.959 . S
C318 H303 0.959 . S
C318 H304 0.961 . S
C318 C317 1.502 . S
C319 H305 0.960 . S
C319 H306 0.961 . S
C319 H307 0.959 . S
C319 C317 1.561 . S
C320 C317 1.526 . S
C320 C321 1.396 . S
C320 C325 1.390 . S
C321 C315 1.465 . S
C321 C320 1.396 . S
C321 C322 1.399 . S
C322 H308 0.929 . S
C322 C321 1.399 . S
C322 C323 1.385 . S
C323 H309 0.931 . S
C323 C322 1.385 . S
C323 C324 1.389 . S
C324 C323 1.389 . S
C324 C325 1.387 . S
C325 H310 0.930 . S
C325 C320 1.390 . S
C325 C324 1.387 . S
H326 C338 0.930 . S
H327 C340 0.930 1_554 S
H328 C341 0.930 1_554 S
H329 C345 0.959 . S
H330 C345 0.959 . S
H331 C345 0.961 . S
H332 C346 0.960 . S
H333 C346 0.961 . S
H334 C346 0.959 . S
H335 C349 0.929 1_554 S
H336 C350 0.931 . S
H337 C352 0.930 . S
C338 H326 0.930 . S
C338 C339 1.399 . S
C338 C343 1.399 1_545 S
C339 C338 1.399 . S
C339 C340 1.376 . S
C340 H327 0.930 1_556 S
C340 C339 1.376 . S
C340 C341 1.388 . S
C341 H328 0.930 1_556 S
C341 C340 1.388 . S
C341 C342 1.390 1_545 S
C342 C341 1.390 1_565 S
C342 C343 1.394 . S
C342 C348 1.465 . S
C343 C338 1.399 1_565 S
C343 C342 1.394 . S
C343 C344 1.516 . S
C344 C343 1.516 . S
C344 C345 1.502 . S
C344 C346 1.561 1_565 S
C344 C347 1.526 . S
C345 H329 0.959 . S
C345 H330 0.959 . S
C345 H331 0.961 . S
C345 C344 1.502 . S
C346 H332 0.960 . S
C346 H333 0.961 . S
C346 H334 0.959 . S
C346 C344 1.561 1_545 S
C347 C344 1.526 . S
C347 C348 1.396 . S
C347 C352 1.390 . S
C348 C342 1.465 . S
C348 C347 1.396 . S
C348 C349 1.399 . S
C349 H335 0.929 1_556 S
C349 C348 1.399 . S
C349 C350 1.385 . S
C350 H336 0.931 . S
C350 C349 1.385 . S
C350 C351 1.389 . S
C351 C350 1.389 . S
C351 C352 1.387 . S
C352 H337 0.930 . S
C352 C347 1.390 . S
C352 C351 1.387 . S
H353 C365 0.930 . S
H354 C367 0.930 . S
H355 C368 0.930 . S
H356 C372 0.959 . S
H357 C372 0.959 . S
H358 C372 0.961 . S
H359 C373 0.960 . S
H360 C373 0.961 . S
H361 C373 0.959 . S
H362 C376 0.929 . S
H363 C377 0.931 . S
H364 C379 0.930 . S
C365 H353 0.930 . S
C365 C366 1.399 . S
C365 C370 1.399 . S
C366 C365 1.399 . S
C366 C367 1.376 . S
C367 H354 0.930 . S
C367 C366 1.376 . S
C367 C368 1.388 . S
C368 H355 0.930 . S
C368 C367 1.388 . S
C368 C369 1.390 . S
C369 C368 1.390 . S
C369 C370 1.394 . S
C369 C375 1.465 . S
C370 C365 1.399 . S
C370 C369 1.394 . S
C370 C371 1.516 . S
C371 C370 1.516 . S
C371 C372 1.502 . S
C371 C373 1.561 . S
C371 C374 1.526 . S
C372 H356 0.959 . S
C372 H357 0.959 . S
C372 H358 0.961 . S
C372 C371 1.502 . S
C373 H359 0.960 . S
C373 H360 0.961 . S
C373 H361 0.959 . S
C373 C371 1.561 . S
C374 C371 1.526 . S
C374 C375 1.396 . S
C374 C379 1.390 . S
C375 C369 1.465 . S
C375 C374 1.396 . S
C375 C376 1.399 . S
C376 H362 0.929 . S
C376 C375 1.399 . S
C376 C377 1.385 . S
C377 H363 0.931 . S
C377 C376 1.385 . S
C377 C378 1.389 . S
C378 C377 1.389 . S
C378 C379 1.387 . S
C379 H364 0.930 . S
C379 C374 1.390 . S
C379 C378 1.387 . S
H380 C392 0.930 1_554 S
H381 C394 0.930 . S
H382 C395 0.930 . S
H383 C399 0.959 . S
H384 C399 0.959 . S
H385 C399 0.961 . S
H386 C400 0.960 . S
H387 C400 0.961 . S
H388 C400 0.959 1_556 S
H389 C403 0.929 . S
H390 C404 0.940 . S
H391 C406 0.930 . S
C392 H380 0.930 1_556 S
C392 C393 1.399 . S
C392 C397 1.399 . S
C393 C392 1.399 . S
C393 C394 1.376 . S
C394 H381 0.930 . S
C394 C393 1.376 . S
C394 C395 1.388 . S
C395 H382 0.930 . S
C395 C394 1.388 . S
C395 C396 1.390 . S
C396 C395 1.390 . S
C396 C397 1.394 . S
C396 C402 1.465 . S
C397 C392 1.399 . S
C397 C396 1.394 . S
C397 C398 1.516 1_556 S
C398 C397 1.516 1_554 S
C398 C399 1.502 . S
C398 C400 1.561 . S
C398 C401 1.526 . S
C399 H383 0.959 . S
C399 H384 0.959 . S
C399 H385 0.961 . S
C399 C398 1.502 . S
C400 H386 0.960 . S
C400 H387 0.961 . S
C400 H388 0.959 1_554 S
C400 C398 1.561 . S
C401 C398 1.526 . S
C401 C402 1.396 1_554 S
C401 C406 1.390 1_655 S
C402 C396 1.465 . S
C402 C401 1.396 1_556 S
C402 C403 1.399 1_655 S
C403 H389 0.929 . S
C403 C402 1.399 1_455 S
C403 C404 1.385 . S
C404 H390 0.940 . S
C404 C403 1.385 . S
C404 C405 1.389 1_556 S
C405 C404 1.389 1_554 S
C405 C406 1.387 . S
C406 H391 0.930 . S
C406 C401 1.390 1_455 S
C406 C405 1.387 . S
H407 C419 0.930 1_545 S
H408 C421 0.930 . S
H409 C422 0.930 . S
H410 C426 0.959 1_556 S
H411 C426 0.959 . S
H412 C426 0.961 . S
H413 C427 0.960 . S
H414 C427 0.961 . S
H415 C427 0.959 . S
H416 C430 0.929 . S
H417 C431 0.931 . S
H418 C433 0.932 . S
C419 H407 0.930 1_565 S
C419 C420 1.399 . S
C419 C424 1.399 . S
C420 C419 1.399 . S
C420 C421 1.376 . S
C421 H408 0.930 . S
C421 C420 1.376 . S
C421 C422 1.388 . S
C422 H409 0.930 . S
C422 C421 1.388 . S
C422 C423 1.390 . S
C423 C422 1.390 . S
C423 C424 1.394 . S
C423 C429 1.465 . S
C424 C419 1.399 . S
C424 C423 1.394 . S
C424 C425 1.516 1_565 S
C425 C424 1.516 1_545 S
C425 C426 1.502 . S
C425 C427 1.561 . S
C425 C428 1.526 . S
C426 H410 0.959 1_554 S
C426 H411 0.959 . S
C426 H412 0.961 . S
C426 C425 1.502 . S
C427 H413 0.960 . S
C427 H414 0.961 . S
C427 H415 0.959 . S
C427 C425 1.561 . S
C428 C425 1.526 . S
C428 C429 1.396 1_545 S
C428 C433 1.393 . S
C429 C423 1.465 . S
C429 C428 1.396 1_565 S
C429 C430 1.399 1_554 S
C430 H416 0.929 . S
C430 C429 1.399 1_556 S
C430 C431 1.385 . S
C431 H417 0.931 . S
C431 C430 1.385 . S
C431 C432 1.389 1_565 S
C432 C431 1.389 1_545 S
C432 C433 1.381 1_556 S
C433 H418 0.932 . S
C433 C428 1.393 . S
C433 C432 1.381 1_554 S
H434 C446 0.930 . S
H435 C448 0.930 . S
H436 C449 0.930 . S
H437 C453 0.959 . S
H438 C453 0.959 . S
H439 C453 0.961 . S
H440 C454 0.931 1_455 S
H441 C454 0.986 . S
H442 C454 0.976 . S
H443 C457 0.929 . S
H444 C458 0.931 . S
H445 C460 0.930 . S
C446 H434 0.930 . S
C446 C447 1.399 . S
C446 C451 1.399 . S
C447 C446 1.399 . S
C447 C448 1.376 . S
C448 H435 0.930 . S
C448 C447 1.376 . S
C448 C449 1.388 . S
C449 H436 0.930 . S
C449 C448 1.388 . S
C449 C450 1.390 . S
C450 C449 1.390 . S
C450 C451 1.394 . S
C450 C456 1.465 1_455 S
C451 C446 1.399 . S
C451 C450 1.394 . S
C451 C452 1.516 . S
C452 C451 1.516 . S
C452 C453 1.502 . S
C452 C454 1.549 1_455 S
C452 C455 1.526 1_455 S
C453 H437 0.959 . S
C453 H438 0.959 . S
C453 H439 0.961 . S
C453 C452 1.502 . S
C454 H440 0.931 1_655 S
C454 H441 0.986 . S
C454 H442 0.976 . S
C454 C452 1.549 1_655 S
C455 C452 1.526 1_655 S
C455 C456 1.396 . S
C455 C460 1.390 . S
C456 C450 1.465 1_655 S
C456 C455 1.396 . S
C456 C457 1.399 . S
C457 H443 0.929 . S
C457 C456 1.399 . S
C457 C458 1.385 . S
C458 H444 0.931 . S
C458 C457 1.385 . S
C458 C459 1.389 . S
C459 C458 1.389 . S
C459 C460 1.387 . S
C460 H445 0.930 . S
C460 C455 1.390 . S
C460 C459 1.387 . S
H461 C473 0.930 . S
H462 C475 0.930 . S
H463 C476 0.930 . S
H464 C480 0.959 . S
H465 C480 0.959 . S
H466 C480 0.961 . S
H467 C481 0.960 . S
H468 C481 0.961 . S
H469 C481 0.959 . S
H470 C484 0.929 . S
H471 C485 0.931 . S
H472 C487 0.930 . S
C473 H461 0.930 . S
C473 C474 1.399 . S
C473 C478 1.399 . S
C474 C473 1.399 . S
C474 C475 1.376 . S
C475 H462 0.930 . S
C475 C474 1.376 . S
C475 C476 1.388 . S
C476 H463 0.930 . S
C476 C475 1.388 . S
C476 C477 1.390 . S
C477 C476 1.390 . S
C477 C478 1.394 . S
C477 C483 1.465 . S
C478 C473 1.399 . S
C478 C477 1.394 . S
C478 C479 1.516 . S
C479 C478 1.516 . S
C479 C480 1.502 . S
C479 C481 1.561 . S
C479 C482 1.526 . S
C480 H464 0.959 . S
C480 H465 0.959 . S
C480 H466 0.961 . S
C480 C479 1.502 . S
C481 H467 0.960 . S
C481 H468 0.961 . S
C481 H469 0.959 . S
C481 C479 1.561 . S
C482 C479 1.526 . S
C482 C483 1.396 . S
C482 C487 1.390 . S
C483 C477 1.465 . S
C483 C482 1.396 . S
C483 C484 1.399 . S
C484 H470 0.929 . S
C484 C483 1.399 . S
C484 C485 1.385 . S
C485 H471 0.931 . S
C485 C484 1.385 . S
C485 C486 1.389 . S
C486 C485 1.389 . S
C486 C487 1.387 . S
C487 H472 0.930 . S
C487 C482 1.390 . S
C487 C486 1.387 . S
H488 C500 0.930 . S
H489 C502 0.930 . S
H490 C503 0.930 . S
H491 C507 0.959 . S
H492 C507 0.959 . S
H493 C507 0.961 . S
H494 C508 0.960 . S
H495 C508 0.961 . S
H496 C508 0.959 . S
H497 C511 0.929 . S
H498 C512 0.931 . S
H499 C514 0.930 . S
C500 H488 0.930 . S
C500 C501 1.399 1_565 S
C500 C505 1.399 . S
C501 C500 1.399 1_545 S
C501 C502 1.376 . S
C502 H489 0.930 . S
C502 C501 1.376 . S
C502 C503 1.388 . S
C503 H490 0.930 . S
C503 C502 1.388 . S
C503 C504 1.390 . S
C504 C503 1.390 . S
C504 C505 1.394 1_545 S
C504 C510 1.465 . S
C505 C500 1.399 . S
C505 C504 1.394 1_565 S
C505 C506 1.516 . S
C506 C505 1.516 . S
C506 C507 1.502 . S
C506 C508 1.561 . S
C506 C509 1.526 . S
C507 H491 0.959 . S
C507 H492 0.959 . S
C507 H493 0.961 . S
C507 C506 1.502 . S
C508 H494 0.960 . S
C508 H495 0.961 . S
C508 H496 0.959 . S
C508 C506 1.561 . S
C509 C506 1.526 . S
C509 C510 1.396 1_565 S
C509 C514 1.390 . S
C510 C504 1.465 . S
C510 C509 1.396 1_545 S
C510 C511 1.399 . S
C511 H497 0.929 . S
C511 C510 1.399 . S
C511 C512 1.385 . S
C512 H498 0.931 . S
C512 C511 1.385 . S
C512 C513 1.389 1_545 S
C513 C512 1.389 1_565 S
C513 C514 1.387 . S
C514 H499 0.930 . S
C514 C509 1.390 . S
C514 C513 1.387 . S
H515 C527 0.930 . S
H516 C529 0.930 . S
H517 C530 0.930 . S
H518 C534 0.959 . S
H519 C534 0.959 . S
H520 C534 0.961 . S
H521 C535 0.960 . S
H522 C535 0.961 . S
H523 C535 0.959 . S
H524 C538 0.929 . S
H525 C539 0.931 . S
H526 C541 0.930 . S
C527 H515 0.930 . S
C527 C528 1.399 . S
C527 C532 1.399 . S
C528 C527 1.399 . S
C528 C529 1.376 . S
C529 H516 0.930 . S
C529 C528 1.376 . S
C529 C530 1.388 . S
C530 H517 0.930 . S
C530 C529 1.388 . S
C530 C531 1.390 . S
C531 C530 1.390 . S
C531 C532 1.394 . S
C531 C537 1.465 . S
C532 C527 1.399 . S
C532 C531 1.394 . S
C532 C533 1.516 . S
C533 C532 1.516 . S
C533 C534 1.502 . S
C533 C535 1.561 . S
C533 C536 1.526 . S
C534 H518 0.959 . S
C534 H519 0.959 . S
C534 H520 0.961 . S
C534 C533 1.502 . S
C535 H521 0.960 . S
C535 H522 0.961 . S
C535 H523 0.959 . S
C535 C533 1.561 . S
C536 C533 1.526 . S
C536 C537 1.396 . S
C536 C541 1.390 . S
C537 C531 1.465 . S
C537 C536 1.396 . S
C537 C538 1.399 . S
C538 H524 0.929 . S
C538 C537 1.399 . S
C538 C539 1.385 . S
C539 H525 0.931 . S
C539 C538 1.385 . S
C539 C540 1.389 . S
C540 C539 1.389 . S
C540 C541 1.387 . S
C541 H526 0.930 . S
C541 C536 1.390 . S
C541 C540 1.387 . S
H542 C554 0.930 . S
H543 C556 0.930 . S
H544 C557 0.930 . S
H545 C561 0.959 . S
H546 C561 0.959 . S
H547 C561 0.961 . S
H548 C562 0.960 . S
H549 C562 0.961 . S
H550 C562 0.959 . S
H551 C565 0.929 1_556 S
H552 C566 0.931 . S
H553 C568 0.930 . S
C554 H542 0.930 . S
C554 C555 1.399 . S
C554 C559 1.399 . S
C555 C554 1.399 . S
C555 C556 1.376 . S
C556 H543 0.930 . S
C556 C555 1.376 . S
C556 C557 1.388 . S
C557 H544 0.930 . S
C557 C556 1.388 . S
C557 C558 1.390 . S
C558 C557 1.390 . S
C558 C559 1.394 . S
C558 C564 1.465 . S
C559 C554 1.399 . S
C559 C558 1.394 . S
C559 C560 1.516 . S
C560 C559 1.516 . S
C560 C561 1.502 . S
C560 C562 1.561 . S
C560 C563 1.526 . S
C561 H545 0.959 . S
C561 H546 0.959 . S
C561 H547 0.961 . S
C561 C560 1.502 . S
C562 H548 0.960 . S
C562 H549 0.961 . S
C562 H550 0.959 . S
C562 C560 1.561 . S
C563 C560 1.526 . S
C563 C564 1.396 . S
C563 C568 1.390 1_556 S
C564 C558 1.465 . S
C564 C563 1.396 . S
C564 C565 1.399 1_556 S
C565 H551 0.929 1_554 S
C565 C564 1.399 1_554 S
C565 C566 1.385 . S
C566 H552 0.931 . S
C566 C565 1.385 . S
C566 C567 1.389 . S
C567 C566 1.389 . S
C567 C568 1.387 . S
C568 H553 0.930 . S
C568 C563 1.390 1_554 S
C568 C567 1.387 . S
H569 C581 0.930 . S
H570 C583 0.930 . S
H571 C584 0.930 1_556 S
H572 C588 0.959 . S
H573 C588 0.959 . S
H574 C588 0.961 . S
H575 C589 0.960 . S
H576 C589 0.961 . S
H577 C589 0.959 . S
H578 C592 0.929 . S
H579 C593 0.931 . S
H580 C595 0.930 . S
C581 H569 0.930 . S
C581 C582 1.399 . S
C581 C586 1.399 1_554 S
C582 C581 1.399 . S
C582 C583 1.376 . S
C583 H570 0.930 . S
C583 C582 1.376 . S
C583 C584 1.388 . S
C584 H571 0.930 1_554 S
C584 C583 1.388 . S
C584 C585 1.390 1_554 S
C585 C584 1.390 1_556 S
C585 C586 1.394 . S
C585 C591 1.465 . S
C586 C581 1.399 1_556 S
C586 C585 1.394 . S
C586 C587 1.516 . S
C587 C586 1.516 . S
C587 C588 1.502 . S
C587 C589 1.561 . S
C587 C590 1.526 . S
C588 H572 0.959 . S
C588 H573 0.959 . S
C588 H574 0.961 . S
C588 C587 1.502 . S
C589 H575 0.960 . S
C589 H576 0.961 . S
C589 H577 0.959 . S
C589 C587 1.561 . S
C590 C587 1.526 . S
C590 C591 1.396 . S
C590 C595 1.390 . S
C591 C585 1.465 . S
C591 C590 1.396 . S
C591 C592 1.399 . S
C592 H578 0.929 . S
C592 C591 1.399 . S
C592 C593 1.385 . S
C593 H579 0.931 . S
C593 C592 1.385 . S
C593 C594 1.389 . S
C594 C593 1.389 . S
C594 C595 1.387 . S
C595 H580 0.930 . S
C595 C590 1.390 . S
C595 C594 1.387 . S
H596 C608 0.930 . S
H597 C610 0.930 . S
H598 C611 0.930 . S
H599 C615 0.959 . S
H600 C615 0.959 . S
H601 C615 0.961 . S
H602 C616 0.960 . S
H603 C616 0.961 . S
H604 C616 0.959 . S
H605 C619 0.929 . S
H606 C620 0.931 . S
H607 C622 0.930 . S
C608 H596 0.930 . S
C608 C609 1.399 . S
C608 C613 1.399 . S
C609 C608 1.399 . S
C609 C610 1.376 . S
C610 H597 0.930 . S
C610 C609 1.376 . S
C610 C611 1.388 . S
C611 H598 0.930 . S
C611 C610 1.388 . S
C611 C612 1.390 . S
C612 C611 1.390 . S
C612 C613 1.394 . S
C612 C618 1.465 . S
C613 C608 1.399 . S
C613 C612 1.394 . S
C613 C614 1.516 . S
C614 C613 1.516 . S
C614 C615 1.502 . S
C614 C616 1.561 . S
C614 C617 1.526 . S
C615 H599 0.959 . S
C615 H600 0.959 . S
C615 H601 0.961 . S
C615 C614 1.502 . S
C616 H602 0.960 . S
C616 H603 0.961 . S
C616 H604 0.959 . S
C616 C614 1.561 . S
C617 C614 1.526 . S
C617 C618 1.396 . S
C617 C622 1.390 . S
C618 C612 1.465 . S
C618 C617 1.396 . S
C618 C619 1.399 . S
C619 H605 0.929 . S
C619 C618 1.399 . S
C619 C620 1.385 . S
C620 H606 0.931 . S
C620 C619 1.385 . S
C620 C621 1.389 . S
C621 C620 1.389 . S
C621 C622 1.387 . S
C622 H607 0.930 . S
C622 C617 1.390 . S
C622 C621 1.387 . S
H623 C635 0.930 . S
H624 C637 0.930 1_565 S
H625 C638 0.933 . S
H626 C642 0.959 . S
H627 C642 0.959 . S
H628 C642 0.961 . S
H629 C643 0.960 . S
H630 C643 0.961 . S
H631 C643 0.959 . S
H632 C646 0.929 1_565 S
H633 C647 0.931 . S
H634 C649 0.930 . S
C635 H623 0.930 . S
C635 C636 1.399 . S
C635 C640 1.399 . S
C636 C635 1.399 . S
C636 C637 1.376 . S
C637 H624 0.930 1_545 S
C637 C636 1.376 . S
C637 C638 1.388 1_545 S
C638 H625 0.933 . S
C638 C637 1.388 1_565 S
C638 C639 1.387 1_565 S
C639 C638 1.387 1_545 S
C639 C640 1.394 . S
C639 C645 1.465 . S
C640 C635 1.399 . S
C640 C639 1.394 . S
C640 C641 1.516 . S
C641 C640 1.516 . S
C641 C642 1.502 . S
C641 C643 1.561 . S
C641 C644 1.526 . S
C642 H626 0.959 . S
C642 H627 0.959 . S
C642 H628 0.961 . S
C642 C641 1.502 . S
C643 H629 0.960 . S
C643 H630 0.961 . S
C643 H631 0.959 . S
C643 C641 1.561 . S
C644 C641 1.526 . S
C644 C645 1.396 . S
C644 C649 1.390 . S
C645 C639 1.465 . S
C645 C644 1.396 . S
C645 C646 1.399 . S
C646 H632 0.929 1_545 S
C646 C645 1.399 . S
C646 C647 1.385 . S
C647 H633 0.931 . S
C647 C646 1.385 . S
C647 C648 1.389 . S
C648 C647 1.389 . S
C648 C649 1.387 . S
C649 H634 0.930 . S
C649 C644 1.390 . S
C649 C648 1.387 . S
H650 C662 0.930 . S
H651 C664 0.930 . S
H652 C665 0.930 . S
H653 C669 0.959 . S
H654 C669 0.959 . S
H655 C669 0.961 . S
H656 C670 0.960 . S
H657 C670 0.961 . S
H658 C670 0.959 . S
H659 C673 0.929 1_554 S
H660 C674 0.931 . S
H661 C676 0.930 . S
C662 H650 0.930 . S
C662 C663 1.399 . S
C662 C667 1.399 . S
C663 C662 1.399 . S
C663 C664 1.376 . S
C664 H651 0.930 . S
C664 C663 1.376 . S
C664 C665 1.388 . S
C665 H652 0.930 . S
C665 C664 1.388 . S
C665 C666 1.390 . S
C666 C665 1.390 . S
C666 C667 1.394 . S
C666 C672 1.465 . S
C667 C662 1.399 . S
C667 C666 1.394 . S
C667 C668 1.516 . S
C668 C667 1.516 . S
C668 C669 1.502 . S
C668 C670 1.561 . S
C668 C671 1.526 . S
C669 H653 0.959 . S
C669 H654 0.959 . S
C669 H655 0.961 . S
C669 C668 1.502 . S
C670 H656 0.960 . S
C670 H657 0.961 . S
C670 H658 0.959 . S
C670 C668 1.561 . S
C671 C668 1.526 . S
C671 C672 1.396 . S
C671 C676 1.390 1_554 S
C672 C666 1.465 . S
C672 C671 1.396 . S
C672 C673 1.399 1_554 S
C673 H659 0.929 1_556 S
C673 C672 1.399 1_556 S
C673 C674 1.385 . S
C674 H660 0.931 . S
C674 C673 1.385 . S
C674 C675 1.389 . S
C675 C674 1.389 . S
C675 C676 1.387 . S
C676 H661 0.930 . S
C676 C671 1.390 1_556 S
C676 C675 1.387 . S
H677 C689 0.930 . S
H678 C691 0.930 . S
H679 C692 0.930 . S
H680 C696 0.959 . S
H681 C696 0.959 . S
H682 C696 0.961 . S
H683 C697 0.960 . S
H684 C697 0.961 . S
H685 C697 0.959 . S
H686 C700 0.929 . S
H687 C701 0.931 . S
H688 C703 0.930 . S
C689 H677 0.930 . S
C689 C690 1.399 . S
C689 C694 1.399 . S
C690 C689 1.399 . S
C690 C691 1.376 . S
C691 H678 0.930 . S
C691 C690 1.376 . S
C691 C692 1.388 . S
C692 H679 0.930 . S
C692 C691 1.388 . S
C692 C693 1.390 . S
C693 C692 1.390 . S
C693 C694 1.394 . S
C693 C699 1.465 . S
C694 C689 1.399 . S
C694 C693 1.394 . S
C694 C695 1.516 . S
C695 C694 1.516 . S
C695 C696 1.502 . S
C695 C697 1.561 . S
C695 C698 1.526 . S
C696 H680 0.959 . S
C696 H681 0.959 . S
C696 H682 0.961 . S
C696 C695 1.502 . S
C697 H683 0.960 . S
C697 H684 0.961 . S
C697 H685 0.959 . S
C697 C695 1.561 . S
C698 C695 1.526 . S
C698 C699 1.396 . S
C698 C703 1.390 1_554 S
C699 C693 1.465 . S
C699 C698 1.396 . S
C699 C700 1.399 1_554 S
C700 H686 0.929 . S
C700 C699 1.399 1_556 S
C700 C701 1.385 . S
C701 H687 0.931 . S
C701 C700 1.385 . S
C701 C702 1.389 . S
C702 C701 1.389 . S
C702 C703 1.387 . S
C703 H688 0.930 . S
C703 C698 1.390 1_556 S
C703 C702 1.387 . S
H704 C716 0.930 . S
H705 C718 0.930 . S
H706 C719 0.930 . S
H707 C723 0.959 . S
H708 C723 0.959 . S
H709 C723 0.961 . S
H710 C724 0.960 . S
H711 C724 0.961 . S
H712 C724 0.959 . S
H713 C727 0.929 . S
H714 C728 0.931 . S
H715 C730 0.930 . S
C716 H704 0.930 . S
C716 C717 1.399 . S
C716 C721 1.399 . S
C717 C716 1.399 . S
C717 C718 1.376 . S
C718 H705 0.930 . S
C718 C717 1.376 . S
C718 C719 1.388 . S
C719 H706 0.930 . S
C719 C718 1.388 . S
C719 C720 1.390 . S
C720 C719 1.390 . S
C720 C721 1.394 . S
C720 C726 1.465 . S
C721 C716 1.399 . S
C721 C720 1.394 . S
C721 C722 1.516 . S
C722 C721 1.516 . S
C722 C723 1.502 . S
C722 C724 1.561 . S
C722 C725 1.526 . S
C723 H707 0.959 . S
C723 H708 0.959 . S
C723 H709 0.961 . S
C723 C722 1.502 . S
C724 H710 0.960 . S
C724 H711 0.961 . S
C724 H712 0.959 . S
C724 C722 1.561 . S
C725 C722 1.526 . S
C725 C726 1.396 . S
C725 C730 1.390 . S
C726 C720 1.465 . S
C726 C725 1.396 . S
C726 C727 1.399 . S
C727 H713 0.929 . S
C727 C726 1.399 . S
C727 C728 1.385 . S
C728 H714 0.931 . S
C728 C727 1.385 . S
C728 C729 1.389 . S
C729 C728 1.389 . S
C729 C730 1.387 . S
C730 H715 0.930 . S
C730 C725 1.390 . S
C730 C729 1.387 . S
H731 C743 0.930 . S
H732 C745 0.930 . S
H733 C746 0.930 . S
H734 C750 0.959 . S
H735 C750 0.959 . S
H736 C750 0.961 . S
H737 C751 0.960 . S
H738 C751 0.961 . S
H739 C751 0.959 . S
H740 C754 0.929 . S
H741 C755 0.931 . S
H742 C757 0.930 . S
C743 H731 0.930 . S
C743 C744 1.399 . S
C743 C748 1.399 . S
C744 C743 1.399 . S
C744 C745 1.376 . S
C745 H732 0.930 . S
C745 C744 1.376 . S
C745 C746 1.388 . S
C746 H733 0.930 . S
C746 C745 1.388 . S
C746 C747 1.390 . S
C747 C746 1.390 . S
C747 C748 1.394 . S
C747 C753 1.465 . S
C748 C743 1.399 . S
C748 C747 1.394 . S
C748 C749 1.516 . S
C749 C748 1.516 . S
C749 C750 1.502 . S
C749 C751 1.561 . S
C749 C752 1.526 . S
C750 H734 0.959 . S
C750 H735 0.959 . S
C750 H736 0.961 . S
C750 C749 1.502 . S
C751 H737 0.960 . S
C751 H738 0.961 . S
C751 H739 0.959 . S
C751 C749 1.561 . S
C752 C749 1.526 . S
C752 C753 1.396 . S
C752 C757 1.390 . S
C753 C747 1.465 . S
C753 C752 1.396 . S
C753 C754 1.399 . S
C754 H740 0.929 . S
C754 C753 1.399 . S
C754 C755 1.385 . S
C755 H741 0.931 . S
C755 C754 1.385 . S
C755 C756 1.389 . S
C756 C755 1.389 . S
C756 C757 1.387 . S
C757 H742 0.930 . S
C757 C752 1.390 . S
C757 C756 1.387 . S
H758 C770 0.930 . S
H759 C772 0.930 . S
H760 C773 0.930 . S
H761 C777 0.959 . S
H762 C777 0.959 . S
H763 C777 0.961 . S
H764 C778 0.960 . S
H765 C778 0.961 . S
H766 C778 0.959 . S
H767 C781 0.929 . S
H768 C782 0.931 . S
H769 C784 0.930 . S
C770 H758 0.930 . S
C770 C771 1.399 . S
C770 C775 1.399 . S
C771 C770 1.399 . S
C771 C772 1.376 . S
C772 H759 0.930 . S
C772 C771 1.376 . S
C772 C773 1.388 . S
C773 H760 0.930 . S
C773 C772 1.388 . S
C773 C774 1.390 . S
C774 C773 1.390 . S
C774 C775 1.394 . S
C774 C780 1.465 . S
C775 C770 1.399 . S
C775 C774 1.394 . S
C775 C776 1.516 . S
C776 C775 1.516 . S
C776 C777 1.502 . S
C776 C778 1.561 . S
C776 C779 1.526 . S
C777 H761 0.959 . S
C777 H762 0.959 . S
C777 H763 0.961 . S
C777 C776 1.502 . S
C778 H764 0.960 . S
C778 H765 0.961 . S
C778 H766 0.959 . S
C778 C776 1.561 . S
C779 C776 1.526 . S
C779 C780 1.396 . S
C779 C784 1.390 . S
C780 C774 1.465 . S
C780 C779 1.396 . S
C780 C781 1.399 . S
C781 H767 0.929 . S
C781 C780 1.399 . S
C781 C782 1.385 . S
C782 H768 0.931 . S
C782 C781 1.385 . S
C782 C783 1.389 . S
C783 C782 1.389 . S
C783 C784 1.387 . S
C784 H769 0.930 . S
C784 C779 1.390 . S
C784 C783 1.387 . S
H785 C797 0.930 . S
H786 C799 0.930 . S
H787 C800 0.930 . S
H788 C804 0.959 . S
H789 C804 0.959 . S
H790 C804 0.961 . S
H791 C805 0.960 . S
H792 C805 0.961 . S
H793 C805 0.959 . S
H794 C808 0.929 . S
H795 C809 0.931 . S
H796 C811 0.930 . S
C797 H785 0.930 . S
C797 C798 1.399 . S
C797 C802 1.399 . S
C798 C797 1.399 . S
C798 C799 1.376 . S
C799 H786 0.930 . S
C799 C798 1.376 . S
C799 C800 1.388 . S
C800 H787 0.930 . S
C800 C799 1.388 . S
C800 C801 1.390 . S
C801 C800 1.390 . S
C801 C802 1.394 . S
C801 C807 1.465 . S
C802 C797 1.399 . S
C802 C801 1.394 . S
C802 C803 1.516 . S
C803 C802 1.516 . S
C803 C804 1.502 . S
C803 C805 1.561 . S
C803 C806 1.526 . S
C804 H788 0.959 . S
C804 H789 0.959 . S
C804 H790 0.961 . S
C804 C803 1.502 . S
C805 H791 0.960 . S
C805 H792 0.961 . S
C805 H793 0.959 . S
C805 C803 1.561 . S
C806 C803 1.526 . S
C806 C807 1.396 . S
C806 C811 1.390 . S
C807 C801 1.465 . S
C807 C806 1.396 . S
C807 C808 1.399 . S
C808 H794 0.929 . S
C808 C807 1.399 . S
C808 C809 1.385 . S
C809 H795 0.931 . S
C809 C808 1.385 . S
C809 C810 1.389 . S
C810 C809 1.389 . S
C810 C811 1.387 . S
C811 H796 0.930 . S
C811 C806 1.390 . S
C811 C810 1.387 . S
C285 C36 1.795 . S
C297 C2 1.808 1_565 S
C312 C70 1.443 . S
C324 C104 1.430 . S
C339 C172 1.733 . S
C351 C138 1.713 . S
C366 C206 1.133 . S
C378 C240 1.123 . S
C393 C169 1.777 . S
C405 C20 1.765 . S
C420 C54 1.733 . S
C432 C190 1.730 . S
C447 C88 1.215 . S
C459 C224 1.226 . S
C474 C122 1.569 . S
C486 C258 1.576 . S
C501 C9 1.212 . S
C513 C5 1.286 . S
C528 C39 1.272 . S
C540 C43 1.224 . S
C555 C77 1.288 . S
C567 C73 1.276 . S
C582 C107 1.268 . S
C594 C111 1.236 . S
C609 C141 1.308 . S
C621 C145 1.268 . S
C636 C175 1.274 . S
C648 C179 1.298 . S
C663 C213 1.168 . S
C675 C209 1.265 . S
C690 C247 1.229 . S
C702 C243 1.277 . S
C717 C33 1.615 . S
C729 C101 1.621 . S
C744 C67 1.854 . S
C756 C135 1.840 . S
C771 C156 1.431 . S
C783 C237 1.406 . S
C798 C203 1.361 . S
C810 C271 1.367 . S
