# Generated by pormake.
# Topology ull, (4)-cn, num edge types: 1
# Building blocks:
#     Node 0, Type 0, BuildingBlock: CEKHIL_clean_sbu_0, # of connection points: 4
#     Node 1, Type 0, BuildingBlock: CEKHIL_clean_sbu_0, # of connection points: 4
#     Node 2, Type 0, BuildingBlock: CEKHIL_clean_sbu_0, # of connection points: 4
#     Node 3, Type 0, BuildingBlock: CEKHIL_clean_sbu_0, # of connection points: 4
#     Node 4, Type 0, BuildingBlock: CEKHIL_clean_sbu_0, # of connection points: 4
#     Node 5, Type 0, BuildingBlock: CEKHIL_clean_sbu_0, # of connection points: 4
#     Node 6, Type 0, BuildingBlock: CEKHIL_clean_sbu_0, # of connection points: 4
#     Node 7, Type 0, BuildingBlock: CEKHIL_clean_sbu_0, # of connection points: 4
#     Node 8, Type 0, BuildingBlock: CEKHIL_clean_sbu_0, # of connection points: 4
#     Node 9, Type 0, BuildingBlock: CEKHIL_clean_sbu_0, # of connection points: 4
#     Node 10, Type 0, BuildingBlock: CEKHIL_clean_sbu_0, # of connection points: 4
#     Node 11, Type 0, BuildingBlock: CEKHIL_clean_sbu_0, # of connection points: 4
#     Node 12, Type 0, BuildingBlock: CEKHIL_clean_sbu_0, # of connection points: 4
#     Node 13, Type 0, BuildingBlock: CEKHIL_clean_sbu_0, # of connection points: 4
#     Node 14, Type 0, BuildingBlock: CEKHIL_clean_sbu_0, # of connection points: 4
#     Node 15, Type 0, BuildingBlock: CEKHIL_clean_sbu_0, # of connection points: 4
#     Node 16, Type 0, BuildingBlock: CEKHIL_clean_sbu_0, # of connection points: 4
#     Node 17, Type 0, BuildingBlock: CEKHIL_clean_sbu_0, # of connection points: 4
#     Node 18, Type 0, BuildingBlock: CEKHIL_clean_sbu_0, # of connection points: 4
#     Node 19, Type 0, BuildingBlock: CEKHIL_clean_sbu_0, # of connection points: 4
#     Node 20, Type 0, BuildingBlock: CEKHIL_clean_sbu_0, # of connection points: 4
#     Node 21, Type 0, BuildingBlock: CEKHIL_clean_sbu_0, # of connection points: 4
#     Node 22, Type 0, BuildingBlock: CEKHIL_clean_sbu_0, # of connection points: 4
#     Node 23, Type 0, BuildingBlock: CEKHIL_clean_sbu_0, # of connection points: 4
#     Node 24, Type 0, BuildingBlock: CEKHIL_clean_sbu_0, # of connection points: 4
#     Node 25, Type 0, BuildingBlock: CEKHIL_clean_sbu_0, # of connection points: 4
#     Node 26, Type 0, BuildingBlock: CEKHIL_clean_sbu_0, # of connection points: 4
#     Node 27, Type 0, BuildingBlock: CEKHIL_clean_sbu_0, # of connection points: 4
#     Node 28, Type 0, BuildingBlock: CEKHIL_clean_sbu_0, # of connection points: 4
#     Node 29, Type 0, BuildingBlock: CEKHIL_clean_sbu_0, # of connection points: 4
#     Node 30, Type 0, BuildingBlock: CEKHIL_clean_sbu_0, # of connection points: 4
#     Node 31, Type 0, BuildingBlock: CEKHIL_clean_sbu_0, # of connection points: 4
#     Node 32, Type 0, BuildingBlock: CEKHIL_clean_sbu_0, # of connection points: 4
#     Node 33, Type 0, BuildingBlock: CEKHIL_clean_sbu_0, # of connection points: 4
#     Node 34, Type 0, BuildingBlock: CEKHIL_clean_sbu_0, # of connection points: 4
#     Node 35, Type 0, BuildingBlock: CEKHIL_clean_sbu_0, # of connection points: 4
#     Node 36, Type 0, BuildingBlock: CEKHIL_clean_sbu_0, # of connection points: 4
#     Node 37, Type 0, BuildingBlock: CEKHIL_clean_sbu_0, # of connection points: 4
#     Node 38, Type 0, BuildingBlock: CEKHIL_clean_sbu_0, # of connection points: 4
#     Node 39, Type 0, BuildingBlock: CEKHIL_clean_sbu_0, # of connection points: 4
#     Node 40, Type 0, BuildingBlock: CEKHIL_clean_sbu_0, # of connection points: 4
#     Node 41, Type 0, BuildingBlock: CEKHIL_clean_sbu_0, # of connection points: 4
#     Node 42, Type 0, BuildingBlock: CEKHIL_clean_sbu_0, # of connection points: 4
#     Node 43, Type 0, BuildingBlock: CEKHIL_clean_sbu_0, # of connection points: 4
#     Node 44, Type 0, BuildingBlock: CEKHIL_clean_sbu_0, # of connection points: 4
#     Node 45, Type 0, BuildingBlock: CEKHIL_clean_sbu_0, # of connection points: 4
#     Node 46, Type 0, BuildingBlock: CEKHIL_clean_sbu_0, # of connection points: 4
#     Node 47, Type 0, BuildingBlock: CEKHIL_clean_sbu_0, # of connection points: 4
#     Edge 48, Type (0, 0), BuildingBlock: XIVTED_clean_linker_0, # of connection points: 2
#     Edge 49, Type (0, 0), BuildingBlock: XIVTED_clean_linker_0, # of connection points: 2
#     Edge 50, Type (0, 0), BuildingBlock: XIVTED_clean_linker_0, # of connection points: 2
#     Edge 51, Type (0, 0), BuildingBlock: XIVTED_clean_linker_0, # of connection points: 2
#     Edge 52, Type (0, 0), BuildingBlock: XIVTED_clean_linker_0, # of connection points: 2
#     Edge 53, Type (0, 0), BuildingBlock: XIVTED_clean_linker_0, # of connection points: 2
#     Edge 54, Type (0, 0), BuildingBlock: XIVTED_clean_linker_0, # of connection points: 2
#     Edge 55, Type (0, 0), BuildingBlock: XIVTED_clean_linker_0, # of connection points: 2
#     Edge 56, Type (0, 0), BuildingBlock: XIVTED_clean_linker_0, # of connection points: 2
#     Edge 57, Type (0, 0), BuildingBlock: XIVTED_clean_linker_0, # of connection points: 2
#     Edge 58, Type (0, 0), BuildingBlock: XIVTED_clean_linker_0, # of connection points: 2
#     Edge 59, Type (0, 0), BuildingBlock: XIVTED_clean_linker_0, # of connection points: 2
#     Edge 60, Type (0, 0), BuildingBlock: XIVTED_clean_linker_0, # of connection points: 2
#     Edge 61, Type (0, 0), BuildingBlock: XIVTED_clean_linker_0, # of connection points: 2
#     Edge 62, Type (0, 0), BuildingBlock: XIVTED_clean_linker_0, # of connection points: 2
#     Edge 63, Type (0, 0), BuildingBlock: XIVTED_clean_linker_0, # of connection points: 2
#     Edge 64, Type (0, 0), BuildingBlock: XIVTED_clean_linker_0, # of connection points: 2
#     Edge 65, Type (0, 0), BuildingBlock: XIVTED_clean_linker_0, # of connection points: 2
#     Edge 66, Type (0, 0), BuildingBlock: XIVTED_clean_linker_0, # of connection points: 2
#     Edge 67, Type (0, 0), BuildingBlock: XIVTED_clean_linker_0, # of connection points: 2
#     Edge 68, Type (0, 0), BuildingBlock: XIVTED_clean_linker_0, # of connection points: 2
#     Edge 69, Type (0, 0), BuildingBlock: XIVTED_clean_linker_0, # of connection points: 2
#     Edge 70, Type (0, 0), BuildingBlock: XIVTED_clean_linker_0, # of connection points: 2
#     Edge 71, Type (0, 0), BuildingBlock: XIVTED_clean_linker_0, # of connection points: 2
#     Edge 72, Type (0, 0), BuildingBlock: XIVTED_clean_linker_0, # of connection points: 2
#     Edge 73, Type (0, 0), BuildingBlock: XIVTED_clean_linker_0, # of connection points: 2
#     Edge 74, Type (0, 0), BuildingBlock: XIVTED_clean_linker_0, # of connection points: 2
#     Edge 75, Type (0, 0), BuildingBlock: XIVTED_clean_linker_0, # of connection points: 2
#     Edge 76, Type (0, 0), BuildingBlock: XIVTED_clean_linker_0, # of connection points: 2
#     Edge 77, Type (0, 0), BuildingBlock: XIVTED_clean_linker_0, # of connection points: 2
#     Edge 78, Type (0, 0), BuildingBlock: XIVTED_clean_linker_0, # of connection points: 2
#     Edge 79, Type (0, 0), BuildingBlock: XIVTED_clean_linker_0, # of connection points: 2
#     Edge 80, Type (0, 0), BuildingBlock: XIVTED_clean_linker_0, # of connection points: 2
#     Edge 81, Type (0, 0), BuildingBlock: XIVTED_clean_linker_0, # of connection points: 2
#     Edge 82, Type (0, 0), BuildingBlock: XIVTED_clean_linker_0, # of connection points: 2
#     Edge 83, Type (0, 0), BuildingBlock: XIVTED_clean_linker_0, # of connection points: 2
#     Edge 84, Type (0, 0), BuildingBlock: XIVTED_clean_linker_0, # of connection points: 2
#     Edge 85, Type (0, 0), BuildingBlock: XIVTED_clean_linker_0, # of connection points: 2
#     Edge 86, Type (0, 0), BuildingBlock: XIVTED_clean_linker_0, # of connection points: 2
#     Edge 87, Type (0, 0), BuildingBlock: XIVTED_clean_linker_0, # of connection points: 2
#     Edge 88, Type (0, 0), BuildingBlock: XIVTED_clean_linker_0, # of connection points: 2
#     Edge 89, Type (0, 0), BuildingBlock: XIVTED_clean_linker_0, # of connection points: 2
#     Edge 90, Type (0, 0), BuildingBlock: XIVTED_clean_linker_0, # of connection points: 2
#     Edge 91, Type (0, 0), BuildingBlock: XIVTED_clean_linker_0, # of connection points: 2
#     Edge 92, Type (0, 0), BuildingBlock: XIVTED_clean_linker_0, # of connection points: 2
#     Edge 93, Type (0, 0), BuildingBlock: XIVTED_clean_linker_0, # of connection points: 2
#     Edge 94, Type (0, 0), BuildingBlock: XIVTED_clean_linker_0, # of connection points: 2
#     Edge 95, Type (0, 0), BuildingBlock: XIVTED_clean_linker_0, # of connection points: 2
#     Edge 96, Type (0, 0), BuildingBlock: XIVTED_clean_linker_0, # of connection points: 2
#     Edge 97, Type (0, 0), BuildingBlock: XIVTED_clean_linker_0, # of connection points: 2
#     Edge 98, Type (0, 0), BuildingBlock: XIVTED_clean_linker_0, # of connection points: 2
#     Edge 99, Type (0, 0), BuildingBlock: XIVTED_clean_linker_0, # of connection points: 2
#     Edge 100, Type (0, 0), BuildingBlock: XIVTED_clean_linker_0, # of connection points: 2
#     Edge 101, Type (0, 0), BuildingBlock: XIVTED_clean_linker_0, # of connection points: 2
#     Edge 102, Type (0, 0), BuildingBlock: XIVTED_clean_linker_0, # of connection points: 2
#     Edge 103, Type (0, 0), BuildingBlock: XIVTED_clean_linker_0, # of connection points: 2
#     Edge 104, Type (0, 0), BuildingBlock: XIVTED_clean_linker_0, # of connection points: 2
#     Edge 105, Type (0, 0), BuildingBlock: XIVTED_clean_linker_0, # of connection points: 2
#     Edge 106, Type (0, 0), BuildingBlock: XIVTED_clean_linker_0, # of connection points: 2
#     Edge 107, Type (0, 0), BuildingBlock: XIVTED_clean_linker_0, # of connection points: 2
#     Edge 108, Type (0, 0), BuildingBlock: XIVTED_clean_linker_0, # of connection points: 2
#     Edge 109, Type (0, 0), BuildingBlock: XIVTED_clean_linker_0, # of connection points: 2
#     Edge 110, Type (0, 0), BuildingBlock: XIVTED_clean_linker_0, # of connection points: 2
#     Edge 111, Type (0, 0), BuildingBlock: XIVTED_clean_linker_0, # of connection points: 2
#     Edge 112, Type (0, 0), BuildingBlock: XIVTED_clean_linker_0, # of connection points: 2
#     Edge 113, Type (0, 0), BuildingBlock: XIVTED_clean_linker_0, # of connection points: 2
#     Edge 114, Type (0, 0), BuildingBlock: XIVTED_clean_linker_0, # of connection points: 2
#     Edge 115, Type (0, 0), BuildingBlock: XIVTED_clean_linker_0, # of connection points: 2
#     Edge 116, Type (0, 0), BuildingBlock: XIVTED_clean_linker_0, # of connection points: 2
#     Edge 117, Type (0, 0), BuildingBlock: XIVTED_clean_linker_0, # of connection points: 2
#     Edge 118, Type (0, 0), BuildingBlock: XIVTED_clean_linker_0, # of connection points: 2
#     Edge 119, Type (0, 0), BuildingBlock: XIVTED_clean_linker_0, # of connection points: 2
#     Edge 120, Type (0, 0), BuildingBlock: XIVTED_clean_linker_0, # of connection points: 2
#     Edge 121, Type (0, 0), BuildingBlock: XIVTED_clean_linker_0, # of connection points: 2
#     Edge 122, Type (0, 0), BuildingBlock: XIVTED_clean_linker_0, # of connection points: 2
#     Edge 123, Type (0, 0), BuildingBlock: XIVTED_clean_linker_0, # of connection points: 2
#     Edge 124, Type (0, 0), BuildingBlock: XIVTED_clean_linker_0, # of connection points: 2
#     Edge 125, Type (0, 0), BuildingBlock: XIVTED_clean_linker_0, # of connection points: 2
#     Edge 126, Type (0, 0), BuildingBlock: XIVTED_clean_linker_0, # of connection points: 2
#     Edge 127, Type (0, 0), BuildingBlock: XIVTED_clean_linker_0, # of connection points: 2
#     Edge 128, Type (0, 0), BuildingBlock: XIVTED_clean_linker_0, # of connection points: 2
#     Edge 129, Type (0, 0), BuildingBlock: XIVTED_clean_linker_0, # of connection points: 2
#     Edge 130, Type (0, 0), BuildingBlock: XIVTED_clean_linker_0, # of connection points: 2
#     Edge 131, Type (0, 0), BuildingBlock: XIVTED_clean_linker_0, # of connection points: 2
#     Edge 132, Type (0, 0), BuildingBlock: XIVTED_clean_linker_0, # of connection points: 2
#     Edge 133, Type (0, 0), BuildingBlock: XIVTED_clean_linker_0, # of connection points: 2
#     Edge 134, Type (0, 0), BuildingBlock: XIVTED_clean_linker_0, # of connection points: 2
#     Edge 135, Type (0, 0), BuildingBlock: XIVTED_clean_linker_0, # of connection points: 2
#     Edge 136, Type (0, 0), BuildingBlock: XIVTED_clean_linker_0, # of connection points: 2
#     Edge 137, Type (0, 0), BuildingBlock: XIVTED_clean_linker_0, # of connection points: 2
#     Edge 138, Type (0, 0), BuildingBlock: XIVTED_clean_linker_0, # of connection points: 2
#     Edge 139, Type (0, 0), BuildingBlock: XIVTED_clean_linker_0, # of connection points: 2
#     Edge 140, Type (0, 0), BuildingBlock: XIVTED_clean_linker_0, # of connection points: 2
#     Edge 141, Type (0, 0), BuildingBlock: XIVTED_clean_linker_0, # of connection points: 2
#     Edge 142, Type (0, 0), BuildingBlock: XIVTED_clean_linker_0, # of connection points: 2
#     Edge 143, Type (0, 0), BuildingBlock: XIVTED_clean_linker_0, # of connection points: 2
# Relax obj value: 0.022
# Max RMSD: 0.081
# Mean RMSD: 0.081
data_MOF--net-ull--node1-CEKHIL_clean_sbu_0--edge1-XIVTED_clean_linker_0
_symmetry_space_group_name_H-M    P1
_symmetry_Int_Tables_number       1
_symmetry_cell_setting            triclinic
loop_
_symmetry_equiv_pos_as_xyz
'x, y, z'
_cell_length_a     61.030474
_cell_length_b     61.015344
_cell_length_c     61.033082
_cell_angle_alpha  90.010913
_cell_angle_beta   89.968351
_cell_angle_gamma 89.998766
loop_
_atom_site_label
_atom_site_type_symbol
_atom_site_fract_x
_atom_site_fract_y
_atom_site_fract_z
_atom_type_partial_charge
Co0 Co 0.04295 0.33874 0.16948 0.0
O1 O 0.06481 0.34475 0.19104 0.0
O2 O 0.03233 0.36105 0.18958 0.0
C3 C 0.06577 0.34004 0.14032 0.0
O4 O 0.01656 0.33668 0.14902 0.0
Co5 Co 0.04712 0.29631 0.14117 0.0
O6 O 0.02246 0.30949 0.12475 0.0
C7 C 0.03153 0.29334 0.18703 0.0
C8 C 0.05126 0.35894 0.19915 0.0
C9 C 0.01104 0.32543 0.13201 0.0
O10 O 0.03071 0.3144 0.18858 0.0
O11 O 0.03934 0.28337 0.17028 0.0
O12 O 0.05773 0.35803 0.14837 0.0
O13 O 0.06143 0.32252 0.15127 0.0
Co14 Co 0.66374 0.04537 0.17007 0.0
O15 O 0.65757 0.06819 0.19053 0.0
O16 O 0.64258 0.03513 0.19175 0.0
C17 C 0.65993 0.06631 0.13991 0.0
O18 O 0.66632 0.0181 0.15078 0.0
Co19 Co 0.70491 0.05045 0.14032 0.0
O20 O 0.69189 0.02498 0.12504 0.0
C21 C 0.71019 0.03596 0.18629 0.0
C22 C 0.64418 0.05476 0.20001 0.0
C23 C 0.67698 0.01286 0.13329 0.0
O24 O 0.68923 0.03519 0.18879 0.0
O25 O 0.71939 0.04317 0.16885 0.0
O26 O 0.64286 0.05761 0.14912 0.0
O27 O 0.67818 0.06392 0.15028 0.0
Co28 Co 0.95689 0.66219 0.16871 0.0
O29 O 0.93211 0.65417 0.18598 0.0
O30 O 0.96475 0.6387 0.18896 0.0
C31 C 0.93858 0.66205 0.13654 0.0
O32 O 0.98585 0.6662 0.15225 0.0
Co33 Co 0.95474 0.70655 0.14323 0.0
O34 O 0.98161 0.69487 0.12931 0.0
C35 C 0.96251 0.70652 0.19098 0.0
C36 C 0.94425 0.63927 0.19493 0.0
C37 C 0.99271 0.67874 0.13665 0.0
O38 O 0.96533 0.68557 0.19086 0.0
O39 O 0.95604 0.7173 0.17417 0.0
O40 O 0.94607 0.64385 0.14461 0.0
O41 O 0.94066 0.67897 0.14899 0.0
Co42 Co 0.33625 0.95646 0.16998 0.0
O43 O 0.34425 0.93516 0.19145 0.0
O44 O 0.35917 0.96824 0.18867 0.0
C45 C 0.33681 0.93328 0.14111 0.0
O46 O 0.33214 0.9824 0.14926 0.0
Co47 Co 0.29244 0.95045 0.14449 0.0
O48 O 0.30362 0.97534 0.12692 0.0
C49 C 0.29168 0.96515 0.19065 0.0
C50 C 0.35826 0.9494 0.19862 0.0
C51 C 0.31972 0.98727 0.13288 0.0
O52 O 0.31261 0.96799 0.19035 0.0
O53 O 0.28115 0.95641 0.17474 0.0
O54 O 0.35489 0.94211 0.14803 0.0
O55 O 0.31976 0.93713 0.15297 0.0
Co56 Co 0.04182 0.65188 0.83037 0.0
O57 O 0.06248 0.64192 0.80896 0.0
O58 O 0.02749 0.63194 0.81017 0.0
C59 C 0.06357 0.64637 0.85968 0.0
O60 O 0.01606 0.65829 0.85058 0.0
Co61 Co 0.05256 0.6927 0.85884 0.0
O62 O 0.02566 0.68423 0.87498 0.0
C63 C 0.0385 0.69862 0.81285 0.0
C64 C 0.0466 0.63042 0.80084 0.0
C65 C 0.01211 0.67016 0.86758 0.0
O66 O 0.03418 0.678 0.81127 0.0
O67 O 0.04764 0.70709 0.82974 0.0
O68 O 0.05236 0.63024 0.85151 0.0
O69 O 0.06286 0.66451 0.84885 0.0
Co70 Co 0.34407 0.04274 0.82904 0.0
O71 O 0.35119 0.06421 0.80748 0.0
O72 O 0.36773 0.03196 0.81053 0.0
C73 C 0.34331 0.06582 0.85791 0.0
O74 O 0.34064 0.01699 0.85007 0.0
Co75 Co 0.29896 0.04767 0.85251 0.0
O76 O 0.31068 0.02341 0.87074 0.0
C77 C 0.30051 0.0323 0.807 0.0
C78 C 0.36589 0.05066 0.80041 0.0
C79 C 0.32757 0.01203 0.86593 0.0
O80 O 0.32138 0.02973 0.80864 0.0
O81 O 0.28884 0.04155 0.82177 0.0
O82 O 0.36184 0.05799 0.85099 0.0
O83 O 0.32658 0.06146 0.84573 0.0
Co84 Co 0.95567 0.33773 0.8313 0.0
O85 O 0.93183 0.34439 0.81232 0.0
O86 O 0.96452 0.36003 0.81023 0.0
C87 C 0.93609 0.33944 0.86265 0.0
O88 O 0.98378 0.33483 0.84924 0.0
Co89 Co 0.95263 0.2946 0.85867 0.0
O90 O 0.97887 0.30701 0.87309 0.0
C91 C 0.9624 0.29242 0.81138 0.0
C92 C 0.94454 0.35851 0.80287 0.0
C93 C 0.99009 0.32297 0.86557 0.0
O94 O 0.96525 0.31334 0.8108 0.0
O95 O 0.95526 0.28234 0.82835 0.0
O96 O 0.94362 0.35727 0.85383 0.0
O97 O 0.93871 0.32189 0.85118 0.0
Co98 Co 0.65908 0.95976 0.8321 0.0
O99 O 0.65335 0.93696 0.8115 0.0
O100 O 0.636 0.96892 0.81212 0.0
C101 C 0.65923 0.93832 0.86224 0.0
O102 O 0.66095 0.98675 0.85171 0.0
Co103 Co 0.70328 0.9574 0.85758 0.0
O104 O 0.69024 0.98243 0.87378 0.0
C105 C 0.7033 0.96979 0.81116 0.0
C106 C 0.63867 0.94976 0.8031 0.0
C107 C 0.67325 0.99301 0.86769 0.0
O108 O 0.68234 0.97215 0.81187 0.0
O109 O 0.71449 0.96165 0.82691 0.0
O110 O 0.6408 0.94525 0.85417 0.0
O111 O 0.67632 0.9425 0.85051 0.0
Co112 Co 0.16828 0.04409 0.34141 0.0
O113 O 0.18898 0.06559 0.3513 0.0
O114 O 0.18714 0.03134 0.36348 0.0
C115 C 0.13875 0.06644 0.34325 0.0
O116 O 0.14845 0.01775 0.33602 0.0
Co117 Co 0.14143 0.05108 0.29854 0.0
O118 O 0.12485 0.02509 0.30869 0.0
C119 C 0.18741 0.03546 0.296 0.0
C120 C 0.19611 0.05063 0.36458 0.0
C121 C 0.1319 0.01269 0.32394 0.0
O122 O 0.18877 0.03419 0.31706 0.0
O123 O 0.17073 0.04338 0.28603 0.0
O124 O 0.14593 0.05677 0.36079 0.0
O125 O 0.15058 0.06377 0.32595 0.0
Co126 Co 0.95559 0.16876 0.33794 0.0
O127 O 0.93178 0.1882 0.34359 0.0
O128 O 0.96419 0.19038 0.35979 0.0
C129 C 0.93562 0.13762 0.34004 0.0
O130 O 0.98371 0.15062 0.33607 0.0
Co131 Co 0.9533 0.1399 0.2957 0.0
O132 O 0.97957 0.1261 0.30872 0.0
C133 C 0.96394 0.18699 0.29215 0.0
C134 C 0.94437 0.19798 0.35758 0.0
C135 C 0.99046 0.13416 0.32463 0.0
O136 O 0.96585 0.18846 0.31314 0.0
O137 O 0.95703 0.16967 0.28251 0.0
O138 O 0.94289 0.1468 0.35779 0.0
O139 O 0.93879 0.1486 0.32229 0.0
Co140 Co 0.83259 0.95543 0.33731 0.0
O141 O 0.81243 0.93219 0.34264 0.0
O142 O 0.81133 0.96438 0.35942 0.0
C143 C 0.86308 0.93449 0.33913 0.0
O144 O 0.85177 0.98289 0.33576 0.0
Co145 Co 0.86117 0.95257 0.29493 0.0
O146 O 0.87678 0.97717 0.30916 0.0
C147 C 0.81463 0.96545 0.29169 0.0
C148 C 0.80318 0.94479 0.35698 0.0
C149 C 0.86905 0.98853 0.32493 0.0
O150 O 0.81322 0.96676 0.31274 0.0
O151 O 0.83167 0.95818 0.28181 0.0
O152 O 0.8541 0.9418 0.35697 0.0
O153 O 0.85216 0.93814 0.32143 0.0
Co154 Co 0.04558 0.83224 0.33669 0.0
O155 O 0.06844 0.8113 0.34088 0.0
O156 O 0.03724 0.81155 0.3595 0.0
C157 C 0.06735 0.86218 0.33689 0.0
O158 O 0.0186 0.85212 0.33666 0.0
Co159 Co 0.04622 0.86061 0.29412 0.0
O160 O 0.02353 0.87732 0.31015 0.0
C161 C 0.0299 0.81498 0.29231 0.0
C162 C 0.0563 0.80261 0.35597 0.0
C163 C 0.01284 0.86969 0.3264 0.0
O164 O 0.03203 0.81299 0.31322 0.0
O165 O 0.03594 0.83204 0.28168 0.0
O166 O 0.06095 0.85346 0.35521 0.0
O167 O 0.06241 0.85125 0.31949 0.0
Co168 Co 0.16925 0.9567 0.66259 0.0
O169 O 0.18684 0.932 0.65523 0.0
O170 O 0.18829 0.96378 0.63786 0.0
C171 C 0.13753 0.93779 0.6648 0.0
O172 O 0.15227 0.98533 0.66599 0.0
Co173 Co 0.14701 0.95591 0.70857 0.0
O174 O 0.13197 0.98219 0.69674 0.0
C175 C 0.19402 0.96547 0.70515 0.0
C176 C 0.19496 0.94354 0.63942 0.0
C177 C 0.13768 0.99256 0.67949 0.0
O178 O 0.19215 0.96716 0.6842 0.0
O179 O 0.17853 0.95877 0.71761 0.0
O180 O 0.14476 0.94443 0.64594 0.0
O181 O 0.15068 0.94083 0.68107 0.0
Co182 Co 0.04144 0.1676 0.66171 0.0
O183 O 0.06347 0.18917 0.65635 0.0
O184 O 0.03168 0.18769 0.63888 0.0
C185 C 0.06448 0.13855 0.66119 0.0
O186 O 0.01505 0.14691 0.66317 0.0
Co187 Co 0.04478 0.13962 0.70449 0.0
O188 O 0.0211 0.12263 0.69033 0.0
C189 C 0.02733 0.18489 0.70653 0.0
C190 C 0.05056 0.19726 0.6416 0.0
C191 C 0.00971 0.12972 0.67432 0.0
O192 O 0.02826 0.18676 0.6855 0.0
O193 O 0.03451 0.16816 0.71696 0.0
O194 O 0.05691 0.14648 0.64296 0.0
O195 O 0.05958 0.14957 0.67852 0.0
Co196 Co 0.83094 0.04024 0.66089 0.0
O197 O 0.81029 0.0622 0.6525 0.0
O198 O 0.81162 0.02872 0.63832 0.0
C199 C 0.86098 0.06178 0.65973 0.0
O200 O 0.85066 0.01372 0.66582 0.0
Co201 Co 0.85517 0.04685 0.70533 0.0
O202 O 0.87157 0.02051 0.69551 0.0
C203 C 0.80899 0.03364 0.70535 0.0
C204 C 0.80238 0.04795 0.63891 0.0
C205 C 0.86607 0.00849 0.6793 0.0
O206 O 0.81023 0.02981 0.68465 0.0
O207 O 0.82436 0.04283 0.71627 0.0
O208 O 0.85332 0.05314 0.64186 0.0
O209 O 0.84887 0.05921 0.6769 0.0
Co210 Co 0.95761 0.82988 0.67001 0.0
O211 O 0.93423 0.81002 0.66401 0.0
O212 O 0.9663 0.80938 0.64707 0.0
C213 C 0.93683 0.86052 0.66921 0.0
O214 O 0.98518 0.84885 0.67209 0.0
Co215 Co 0.95524 0.85698 0.71333 0.0
O216 O 0.98018 0.87271 0.69987 0.0
C217 C 0.9697 0.81075 0.71478 0.0
C218 C 0.94664 0.80131 0.64917 0.0
C219 C 0.99127 0.86546 0.6837 0.0
O220 O 0.96912 0.80959 0.69369 0.0
O221 O 0.96328 0.82759 0.72553 0.0
O222 O 0.94411 0.852 0.65114 0.0
O223 O 0.94038 0.8491 0.68665 0.0
Co224 Co 0.33425 0.16602 0.04222 0.0
O225 O 0.33957 0.18469 0.0667 0.0
O226 O 0.35738 0.18693 0.0352 0.0
C227 C 0.33444 0.13449 0.06168 0.0
O228 O 0.33292 0.14844 0.01368 0.0
Co229 Co 0.29092 0.13869 0.04228 0.0
O230 O 0.30489 0.12453 0.01671 0.0
C231 C 0.28991 0.18539 0.02917 0.0
C232 C 0.35476 0.19399 0.05519 0.0
C233 C 0.32129 0.13235 0.00637 0.0
O234 O 0.31091 0.18681 0.03091 0.0
O235 O 0.27903 0.16823 0.03443 0.0
O236 O 0.35272 0.14323 0.05526 0.0
O237 O 0.31714 0.14608 0.05807 0.0
Co238 Co 0.33687 0.83272 0.95611 0.0
O239 O 0.34432 0.81665 0.93035 0.0
O240 O 0.35974 0.81139 0.96271 0.0
C241 C 0.33788 0.86595 0.93977 0.0
O242 O 0.33343 0.84751 0.98598 0.0
Co243 Co 0.29314 0.85927 0.95572 0.0
O244 O 0.30469 0.87069 0.98378 0.0
C245 C 0.29201 0.81119 0.96064 0.0
C246 C 0.35886 0.80647 0.94195 0.0
C247 C 0.32092 0.86251 0.9941 0.0
O248 O 0.31296 0.81072 0.96337 0.0
O249 O 0.28157 0.82857 0.95522 0.0
O250 O 0.35584 0.85688 0.94663 0.0
O251 O 0.32059 0.85389 0.94115 0.0
Co252 Co 0.1681 0.34022 0.95716 0.0
O253 O 0.18567 0.34839 0.93267 0.0
O254 O 0.18794 0.36385 0.96541 0.0
C255 C 0.13626 0.33998 0.93825 0.0
O256 O 0.15135 0.33615 0.98586 0.0
Co257 Co 0.14292 0.29572 0.9549 0.0
O258 O 0.12883 0.30712 0.9818 0.0
C259 C 0.19064 0.29616 0.96298 0.0
C260 C 0.19427 0.36333 0.94502 0.0
C261 C 0.13595 0.32342 0.99279 0.0
O262 O 0.19033 0.31709 0.96595 0.0
O263 O 0.17398 0.28529 0.95628 0.0
O264 O 0.14396 0.35828 0.94589 0.0
O265 O 0.14883 0.32319 0.94066 0.0
Co266 Co 0.65825 0.17119 0.95872 0.0
O267 O 0.65211 0.19102 0.93524 0.0
O268 O 0.63591 0.19188 0.9678 0.0
C269 C 0.65722 0.14045 0.93812 0.0
O270 O 0.66013 0.15298 0.98664 0.0
Co271 Co 0.70016 0.14202 0.95797 0.0
O272 O 0.68472 0.12592 0.98165 0.0
C273 C 0.70354 0.18959 0.96761 0.0
C274 C 0.63787 0.20002 0.9482 0.0
C275 C 0.66947 0.13503 0.99262 0.0
O276 O 0.68255 0.1912 0.96931 0.0
O277 O 0.71323 0.17199 0.96146 0.0
O278 O 0.63913 0.14894 0.94547 0.0
O279 O 0.67471 0.15163 0.94196 0.0
Co280 Co 0.83263 0.66507 0.95676 0.0
O281 O 0.81219 0.65786 0.93422 0.0
O282 O 0.81205 0.64328 0.96754 0.0
C283 C 0.86301 0.66272 0.93582 0.0
O284 O 0.85195 0.66856 0.98383 0.0
Co285 Co 0.86019 0.70786 0.95159 0.0
O286 O 0.87567 0.6962 0.9776 0.0
C287 C 0.8134 0.71067 0.96341 0.0
C288 C 0.80338 0.64442 0.94809 0.0
C289 C 0.86851 0.68047 0.98935 0.0
O290 O 0.8128 0.68982 0.96673 0.0
O291 O 0.83012 0.72046 0.95533 0.0
O292 O 0.8544 0.64513 0.94414 0.0
O293 O 0.85176 0.68042 0.93845 0.0
Co294 Co 0.663 0.83369 0.04437 0.0
O295 O 0.65825 0.81335 0.06763 0.0
O296 O 0.64037 0.81266 0.03611 0.0
C297 C 0.66209 0.86395 0.06578 0.0
O298 O 0.66379 0.85304 0.01694 0.0
Co299 Co 0.70542 0.86238 0.04592 0.0
O300 O 0.6905 0.87808 0.02184 0.0
C301 C 0.70799 0.81637 0.03071 0.0
C302 C 0.64331 0.80437 0.05557 0.0
C303 C 0.67452 0.87025 0.01088 0.0
O304 O 0.68699 0.81429 0.03189 0.0
O305 O 0.71824 0.83354 0.03706 0.0
O306 O 0.64398 0.8552 0.05889 0.0
O307 O 0.67961 0.85303 0.06134 0.0
Co308 Co 0.16822 0.6615 0.03984 0.0
O309 O 0.18861 0.66047 0.06366 0.0
O310 O 0.18975 0.6387 0.03463 0.0
C311 C 0.13806 0.66281 0.06134 0.0
O312 O 0.1495 0.65733 0.01244 0.0
Co313 Co 0.13672 0.70097 0.03336 0.0
O314 O 0.12057 0.68006 0.01446 0.0
C315 C 0.18323 0.70433 0.01907 0.0
C316 C 0.19783 0.64417 0.05359 0.0
C317 C 0.13058 0.66393 0.00581 0.0
O318 O 0.18687 0.68419 0.02432 0.0
O319 O 0.16488 0.714 0.02242 0.0
O320 O 0.14727 0.64415 0.05691 0.0
O321 O 0.14809 0.67991 0.05398 0.0
Co322 Co 0.83154 0.33796 0.04403 0.0
O323 O 0.81088 0.34278 0.06698 0.0
O324 O 0.81104 0.36094 0.03557 0.0
C325 C 0.86149 0.33827 0.06579 0.0
O326 O 0.85134 0.33728 0.01698 0.0
Co327 Co 0.85972 0.29523 0.04538 0.0
O328 O 0.87653 0.31087 0.02251 0.0
C329 C 0.81395 0.29338 0.02941 0.0
C330 C 0.80239 0.35799 0.05487 0.0
C331 C 0.86895 0.32692 0.01148 0.0
O332 O 0.812 0.31436 0.03104 0.0
O333 O 0.831 0.28284 0.03563 0.0
O334 O 0.85302 0.35656 0.05902 0.0
O335 O 0.85041 0.3209 0.0611 0.0
Co336 Co 0.54563 0.83867 0.66636 0.0
O337 O 0.57063 0.8466 0.68331 0.0
O338 O 0.5379 0.86179 0.687 0.0
C339 C 0.5633 0.83915 0.63381 0.0
O340 O 0.51639 0.83467 0.65058 0.0
Co341 Co 0.54737 0.79451 0.64051 0.0
O342 O 0.51959 0.80558 0.62797 0.0
C343 C 0.54046 0.79417 0.68837 0.0
C344 C 0.55844 0.86114 0.69282 0.0
C345 C 0.50884 0.82182 0.63558 0.0
O346 O 0.53765 0.81511 0.68843 0.0
O347 O 0.54667 0.78348 0.6714 0.0
O348 O 0.55596 0.85726 0.64221 0.0
O349 O 0.56151 0.82211 0.64616 0.0
Co350 Co 0.16051 0.54342 0.66707 0.0
O351 O 0.14973 0.56718 0.68434 0.0
O352 O 0.13583 0.53363 0.68479 0.0
C353 C 0.16242 0.56283 0.63564 0.0
O354 O 0.16714 0.5153 0.65027 0.0
Co355 Co 0.20683 0.5475 0.6463 0.0
O356 O 0.19828 0.5201 0.631 0.0
C357 C 0.20266 0.53776 0.69328 0.0
C358 C 0.1348 0.55389 0.69146 0.0
C359 C 0.18156 0.50871 0.63628 0.0
O360 O 0.18191 0.53479 0.69087 0.0
O361 O 0.2151 0.54513 0.67808 0.0
O362 O 0.14399 0.55426 0.64191 0.0
O363 O 0.1784 0.56107 0.64941 0.0
Co364 Co 0.4555 0.16693 0.66781 0.0
O365 O 0.43202 0.15967 0.68719 0.0
O366 O 0.46436 0.14325 0.68723 0.0
C367 C 0.43484 0.16735 0.63711 0.0
O368 O 0.48318 0.1698 0.64923 0.0
Co369 Co 0.45361 0.211 0.64191 0.0
O370 O 0.47866 0.19805 0.6259 0.0
C371 C 0.46842 0.21083 0.68814 0.0
C372 C 0.44451 0.14439 0.69501 0.0
C373 C 0.48956 0.1817 0.63297 0.0
O374 O 0.46688 0.18978 0.68907 0.0
O375 O 0.46258 0.22211 0.67144 0.0
O376 O 0.44222 0.14898 0.64485 0.0
O377 O 0.43834 0.18436 0.6492 0.0
Co378 Co 0.83751 0.45838 0.66943 0.0
O379 O 0.84295 0.43562 0.69005 0.0
O380 O 0.86152 0.46683 0.68867 0.0
C381 C 0.83593 0.43654 0.63965 0.0
O382 O 0.83603 0.4851 0.64946 0.0
Co383 Co 0.79259 0.45707 0.64517 0.0
O384 O 0.80645 0.48081 0.62775 0.0
C385 C 0.79429 0.47073 0.69124 0.0
C386 C 0.85848 0.44779 0.69785 0.0
C387 C 0.82378 0.49112 0.63333 0.0
O388 O 0.81532 0.47191 0.69004 0.0
O389 O 0.78231 0.46288 0.67593 0.0
O390 O 0.85473 0.44303 0.64716 0.0
O391 O 0.81923 0.4414 0.65171 0.0
Co392 Co 0.54545 0.16681 0.33151 0.0
O393 O 0.56964 0.16073 0.31266 0.0
O394 O 0.53762 0.1439 0.3106 0.0
C395 C 0.56522 0.16592 0.36284 0.0
O396 O 0.51709 0.16894 0.34933 0.0
Co397 Co 0.54707 0.20989 0.35925 0.0
O398 O 0.5208 0.197 0.37316 0.0
C399 C 0.5352 0.21187 0.31225 0.0
C400 C 0.55768 0.14581 0.3035 0.0
C401 C 0.51008 0.18081 0.3654 0.0
O402 O 0.53488 0.19076 0.31093 0.0
O403 O 0.54156 0.22218 0.32939 0.0
O404 O 0.55811 0.14785 0.3542 0.0
O405 O 0.56194 0.18331 0.35132 0.0
Co406 Co 0.83906 0.54402 0.331 0.0
O407 O 0.84673 0.56553 0.30954 0.0
O408 O 0.86125 0.53223 0.31138 0.0
C409 C 0.8409 0.56685 0.36015 0.0
O410 O 0.83513 0.51782 0.35146 0.0
Co411 Co 0.79626 0.5505 0.35828 0.0
O412 O 0.80712 0.52464 0.37456 0.0
C413 C 0.79356 0.53584 0.31214 0.0
C414 C 0.86038 0.55126 0.30177 0.0
C415 C 0.82285 0.51262 0.36788 0.0
O416 O 0.81451 0.53305 0.31138 0.0
O417 O 0.78379 0.5446 0.32853 0.0
O418 O 0.85862 0.55784 0.35255 0.0
O419 O 0.82344 0.56336 0.34881 0.0
Co420 Co 0.45317 0.83833 0.33194 0.0
O421 O 0.42847 0.84612 0.31453 0.0
O422 O 0.46138 0.86094 0.31093 0.0
C423 C 0.43527 0.83995 0.36431 0.0
O424 O 0.48209 0.83445 0.34829 0.0
Co425 Co 0.45056 0.79486 0.3588 0.0
O426 O 0.47758 0.8067 0.37228 0.0
C427 C 0.45906 0.79317 0.31119 0.0
C428 C 0.44086 0.8605 0.30505 0.0
C429 C 0.48886 0.82238 0.36428 0.0
O430 O 0.46134 0.81417 0.31056 0.0
O431 O 0.45273 0.78285 0.32834 0.0
O432 O 0.44283 0.8577 0.35539 0.0
O433 O 0.43684 0.82251 0.35246 0.0
Co434 Co 0.16504 0.45249 0.33192 0.0
O435 O 0.15722 0.42821 0.31393 0.0
O436 O 0.1412 0.46069 0.31228 0.0
C437 C 0.1655 0.43314 0.36351 0.0
O438 O 0.16878 0.4809 0.34926 0.0
Co439 Co 0.20965 0.45026 0.35682 0.0
O440 O 0.19753 0.47624 0.37199 0.0
C441 C 0.209 0.46 0.30939 0.0
C442 C 0.14203 0.44041 0.30559 0.0
C443 C 0.18122 0.48735 0.3651 0.0
O444 O 0.18798 0.46213 0.30977 0.0
O445 O 0.22012 0.45328 0.32587 0.0
O446 O 0.14714 0.44061 0.35585 0.0
O447 O 0.18227 0.43584 0.35095 0.0
Co448 Co 0.66797 0.54769 0.83941 0.0
O449 O 0.68583 0.57221 0.84655 0.0
O450 O 0.68778 0.54016 0.86339 0.0
C451 C 0.63616 0.56648 0.83867 0.0
O452 O 0.6507 0.51926 0.83602 0.0
Co453 Co 0.64453 0.54965 0.79402 0.0
O454 O 0.62949 0.52343 0.806 0.0
C455 C 0.69141 0.53926 0.79592 0.0
C456 C 0.69439 0.56044 0.86195 0.0
C457 C 0.63556 0.51261 0.82284 0.0
O458 O 0.69011 0.53744 0.8169 0.0
O459 O 0.67569 0.5463 0.78397 0.0
O460 O 0.64414 0.55965 0.85714 0.0
O461 O 0.6488 0.56389 0.82189 0.0
Co462 Co 0.45572 0.67071 0.83509 0.0
O463 O 0.43368 0.69213 0.841 0.0
O464 O 0.46564 0.69034 0.85818 0.0
C465 C 0.43323 0.64135 0.83525 0.0
O466 O 0.48209 0.65014 0.83309 0.0
Co467 Co 0.4524 0.64393 0.79157 0.0
O468 O 0.47605 0.62655 0.8053 0.0
C469 C 0.47007 0.68907 0.79071 0.0
C470 C 0.44674 0.69995 0.85577 0.0
C471 C 0.48738 0.63321 0.82154 0.0
O472 O 0.46882 0.69037 0.81175 0.0
O473 O 0.46305 0.67262 0.77973 0.0
O474 O 0.4406 0.64927 0.85355 0.0
O475 O 0.43766 0.65278 0.81802 0.0
Co476 Co 0.32935 0.46043 0.84024 0.0
O477 O 0.30839 0.43854 0.848 0.0
O478 O 0.31128 0.471 0.86424 0.0
C479 C 0.35864 0.43791 0.83877 0.0
O480 O 0.34952 0.48671 0.8364 0.0
Co481 Co 0.35224 0.45647 0.79479 0.0
O482 O 0.36949 0.48181 0.80571 0.0
C483 C 0.30625 0.47037 0.7972 0.0
C484 C 0.30144 0.45212 0.86277 0.0
C485 C 0.36462 0.4927 0.8229 0.0
O486 O 0.30815 0.47292 0.81804 0.0
O487 O 0.32113 0.46163 0.78526 0.0
O488 O 0.35202 0.44568 0.85745 0.0
O489 O 0.34606 0.44208 0.82228 0.0
Co490 Co 0.54196 0.33531 0.83871 0.0
O491 O 0.56708 0.3188 0.84707 0.0
O492 O 0.53444 0.31539 0.86257 0.0
C493 C 0.55979 0.36775 0.83822 0.0
O494 O 0.51269 0.35099 0.83438 0.0
Co495 Co 0.54344 0.35994 0.79393 0.0
O496 O 0.51582 0.373 0.80484 0.0
C497 C 0.53694 0.312 0.79496 0.0
C498 C 0.55508 0.30993 0.86213 0.0
C499 C 0.50514 0.3658 0.82131 0.0
O500 O 0.53398 0.31251 0.81587 0.0
O501 O 0.5431 0.32871 0.78385 0.0
O502 O 0.55229 0.35998 0.85654 0.0
O503 O 0.55785 0.35497 0.82151 0.0
Co504 Co 0.66868 0.45577 0.16422 0.0
O505 O 0.68792 0.43216 0.15735 0.0
O506 O 0.69029 0.46524 0.1426 0.0
C507 C 0.63757 0.43606 0.16098 0.0
O508 O 0.65067 0.48382 0.16761 0.0
Co509 Co 0.64028 0.45146 0.20628 0.0
O510 O 0.62599 0.47807 0.19449 0.0
C511 C 0.68679 0.46434 0.21019 0.0
C512 C 0.69772 0.44525 0.14387 0.0
C513 C 0.63408 0.48987 0.17925 0.0
O514 O 0.68857 0.46496 0.18917 0.0
O515 O 0.66942 0.45784 0.22002 0.0
O516 O 0.64672 0.44462 0.14381 0.0
O517 O 0.6485 0.43783 0.179 0.0
Co518 Co 0.54608 0.66957 0.16523 0.0
O519 O 0.56908 0.69013 0.16018 0.0
O520 O 0.53762 0.69004 0.14216 0.0
C521 C 0.56784 0.63956 0.16493 0.0
O522 O 0.51893 0.64987 0.16637 0.0
Co523 Co 0.54793 0.64203 0.20834 0.0
O524 O 0.52423 0.62553 0.19364 0.0
C525 C 0.53157 0.68769 0.20971 0.0
C526 C 0.55694 0.69867 0.14505 0.0
C527 C 0.51316 0.63279 0.17748 0.0
O528 O 0.53317 0.68931 0.18871 0.0
O529 O 0.53802 0.67087 0.22047 0.0
O530 O 0.56089 0.64792 0.14667 0.0
O531 O 0.5633 0.65078 0.18227 0.0
Co532 Co 0.33296 0.54591 0.16333 0.0
O533 O 0.31314 0.56966 0.15889 0.0
O534 O 0.3118 0.53835 0.14064 0.0
C535 C 0.36367 0.56669 0.16255 0.0
O536 O 0.35179 0.51811 0.16379 0.0
Co537 Co 0.36133 0.54665 0.20592 0.0
O538 O 0.37672 0.52253 0.19069 0.0
C539 C 0.31528 0.53154 0.20805 0.0
C540 C 0.30398 0.55798 0.14375 0.0
C541 C 0.36885 0.51177 0.17459 0.0
O542 O 0.31327 0.53341 0.1871 0.0
O543 O 0.33249 0.53743 0.21852 0.0
O544 O 0.35471 0.56017 0.14443 0.0
O545 O 0.35266 0.56239 0.18008 0.0
Co546 Co 0.45544 0.33158 0.15893 0.0
O547 O 0.4314 0.31188 0.15517 0.0
O548 O 0.46282 0.30954 0.13711 0.0
C549 C 0.43493 0.36242 0.15738 0.0
O550 O 0.48364 0.34962 0.15848 0.0
Co551 Co 0.45683 0.36274 0.19938 0.0
O552 O 0.47945 0.37801 0.18172 0.0
C553 C 0.4675 0.31549 0.20449 0.0
C554 C 0.44319 0.30194 0.14057 0.0
C555 C 0.48986 0.36811 0.16657 0.0
O556 O 0.46727 0.31267 0.18355 0.0
O557 O 0.46214 0.33362 0.21367 0.0
O558 O 0.44134 0.35298 0.13942 0.0
O559 O 0.43964 0.3521 0.17519 0.0
Co560 Co 0.84002 0.66992 0.54394 0.0
O561 O 0.84551 0.68827 0.56861 0.0
O562 O 0.86275 0.69126 0.53681 0.0
C563 C 0.84073 0.63806 0.5628 0.0
O564 O 0.8383 0.65275 0.51517 0.0
Co565 Co 0.79676 0.64239 0.54462 0.0
O566 O 0.81013 0.62898 0.5183 0.0
C567 C 0.79501 0.68991 0.53581 0.0
C568 C 0.86017 0.69812 0.55688 0.0
C569 C 0.82648 0.6368 0.50786 0.0
O570 O 0.81604 0.69065 0.53378 0.0
O571 O 0.78474 0.67279 0.54228 0.0
O572 O 0.85893 0.64695 0.55631 0.0
O573 O 0.82342 0.64969 0.55963 0.0
Co574 Co 0.83608 0.33289 0.45709 0.0
O575 O 0.84265 0.31449 0.43278 0.0
O576 O 0.8602 0.31319 0.46447 0.0
C577 C 0.83474 0.36443 0.43785 0.0
O578 O 0.83315 0.35047 0.48538 0.0
Co579 Co 0.79053 0.35596 0.45593 0.0
O580 O 0.80257 0.37102 0.4821 0.0
C581 C 0.79303 0.30923 0.46682 0.0
C582 C 0.85795 0.30578 0.44456 0.0
C583 C 0.81977 0.36524 0.4925 0.0
O584 O 0.814 0.31082 0.46817 0.0
O585 O 0.78074 0.32473 0.45986 0.0
O586 O 0.8534 0.35661 0.44437 0.0
O587 O 0.81808 0.35175 0.44099 0.0
Co588 Co 0.66817 0.83483 0.45258 0.0
O589 O 0.68885 0.83984 0.42972 0.0
O590 O 0.68855 0.85784 0.46124 0.0
C591 C 0.63835 0.83508 0.43066 0.0
O592 O 0.64832 0.83386 0.47958 0.0
Co593 Co 0.64035 0.79187 0.45076 0.0
O594 O 0.62385 0.80667 0.47443 0.0
C595 C 0.6862 0.79022 0.46648 0.0
C596 C 0.69729 0.85497 0.44197 0.0
C597 C 0.63116 0.82291 0.48536 0.0
O598 O 0.68778 0.81128 0.46548 0.0
O599 O 0.66937 0.77961 0.4598 0.0
O600 O 0.64662 0.85339 0.43762 0.0
O601 O 0.64951 0.81776 0.43534 0.0
Co602 Co 0.16651 0.66739 0.45348 0.0
O603 O 0.1594 0.68462 0.42845 0.0
O604 O 0.14316 0.68807 0.46066 0.0
C605 C 0.16643 0.63502 0.43547 0.0
O606 O 0.16983 0.65119 0.48264 0.0
Co607 Co 0.21084 0.64176 0.45222 0.0
O608 O 0.19947 0.62919 0.47986 0.0
C609 C 0.21082 0.68951 0.45975 0.0
C610 C 0.14461 0.69419 0.44024 0.0
C611 C 0.18286 0.63639 0.49032 0.0
O612 O 0.18984 0.68938 0.46227 0.0
O613 O 0.22169 0.6727 0.45345 0.0
O614 O 0.14815 0.64338 0.44244 0.0
O615 O 0.18341 0.64735 0.43777 0.0
Co616 Co 0.33221 0.15687 0.45556 0.0
O617 O 0.31388 0.1461 0.43253 0.0
O618 O 0.31461 0.13263 0.4663 0.0
C619 C 0.36304 0.15849 0.43518 0.0
O620 O 0.35007 0.16333 0.48298 0.0
Co621 Co 0.35321 0.20304 0.45073 0.0
O622 O 0.36951 0.19422 0.47746 0.0
C623 C 0.3068 0.19942 0.46308 0.0
C624 C 0.30702 0.13157 0.4464 0.0
C625 C 0.36444 0.17756 0.48903 0.0
O626 O 0.30901 0.17854 0.46524 0.0
O627 O 0.32181 0.21185 0.45529 0.0
O628 O 0.3568 0.14006 0.44379 0.0
O629 O 0.34944 0.17458 0.43734 0.0
Co630 Co 0.16537 0.32944 0.54598 0.0
O631 O 0.15819 0.31165 0.57061 0.0
O632 O 0.14031 0.31071 0.53914 0.0
C633 C 0.16805 0.36106 0.56508 0.0
O634 O 0.1685 0.34674 0.51753 0.0
Co635 Co 0.21156 0.35116 0.54628 0.0
O636 O 0.19931 0.36694 0.52065 0.0
C637 C 0.20753 0.30445 0.53538 0.0
C638 C 0.14206 0.30386 0.5593 0.0
C639 C 0.18191 0.36147 0.51041 0.0
O640 O 0.18653 0.30646 0.53477 0.0
O641 O 0.22038 0.31972 0.54186 0.0
O642 O 0.1491 0.35389 0.55867 0.0
O643 O 0.18425 0.34781 0.56183 0.0
Co644 Co 0.6688 0.15995 0.54505 0.0
O645 O 0.68705 0.15202 0.56909 0.0
O646 O 0.68744 0.13524 0.53695 0.0
C647 C 0.6376 0.16205 0.56478 0.0
O648 O 0.65103 0.16388 0.51702 0.0
Co649 Co 0.64657 0.20599 0.54713 0.0
O650 O 0.63049 0.19431 0.52141 0.0
C651 C 0.69324 0.20261 0.53586 0.0
C652 C 0.69463 0.13632 0.55703 0.0
C653 C 0.63603 0.1773 0.51055 0.0
O654 O 0.69143 0.18164 0.53418 0.0
O655 O 0.67796 0.215 0.54313 0.0
O656 O 0.64457 0.14323 0.55775 0.0
O657 O 0.65078 0.17829 0.56167 0.0
Co658 Co 0.33191 0.83831 0.54454 0.0
O659 O 0.30941 0.84375 0.5656 0.0
O660 O 0.31243 0.86112 0.5338 0.0
C661 C 0.36007 0.83877 0.56856 0.0
O662 O 0.35358 0.83692 0.51905 0.0
Co663 Co 0.35974 0.79555 0.5486 0.0
O664 O 0.37774 0.80983 0.52572 0.0
C665 C 0.31523 0.79362 0.52936 0.0
C666 C 0.302 0.85847 0.55222 0.0
C667 C 0.37101 0.82595 0.51426 0.0
O668 O 0.31329 0.81462 0.53054 0.0
O669 O 0.33172 0.7831 0.53694 0.0
O670 O 0.35237 0.85701 0.56079 0.0
O671 O 0.34923 0.8214 0.56332 0.0
H672 H 0.10959 0.46039 0.28051 0.0
H673 H 0.07004 0.3435 0.2357 0.0
H674 H 0.13678 0.39732 0.29756 0.0
H675 H 0.04845 0.40353 0.20548 0.0
H676 H 0.08862 0.3646 0.26386 0.0
H677 H 0.0826 0.44151 0.25687 0.0
C678 C 0.10989 0.44268 0.2793 0.0
C679 C 0.12561 0.43044 0.29083 0.0
C680 C 0.07968 0.37333 0.25126 0.0
C681 C 0.09478 0.40893 0.26451 0.0
C682 C 0.06894 0.36122 0.2353 0.0
C683 C 0.05788 0.37185 0.21833 0.0
C684 C 0.07991 0.39633 0.24999 0.0
C685 C 0.05682 0.39484 0.21848 0.0
C686 C 0.0945 0.43196 0.26593 0.0
C687 C 0.12521 0.40755 0.28884 0.0
N688 N 0.06811 0.40644 0.23391 0.0
N689 N 0.11012 0.39765 0.27602 0.0
H690 H 0.65811 0.08153 0.23193 0.0
H691 H 0.5415 0.10701 0.28586 0.0
H692 H 0.60069 0.04677 0.20995 0.0
H693 H 0.59727 0.15052 0.28442 0.0
H694 H 0.56202 0.08108 0.26235 0.0
H695 H 0.63571 0.10177 0.25783 0.0
C696 C 0.64074 0.07791 0.23288 0.0
C697 C 0.63117 0.06262 0.21875 0.0
C698 C 0.56956 0.09639 0.26719 0.0
C699 C 0.60512 0.08633 0.24794 0.0
C700 C 0.55787 0.11121 0.28044 0.0
C701 C 0.56774 0.1309 0.28722 0.0
C702 C 0.59123 0.10135 0.26108 0.0
C703 C 0.58899 0.13551 0.27983 0.0
C704 C 0.62789 0.08961 0.24753 0.0
C705 C 0.60862 0.05843 0.22071 0.0
N706 N 0.59998 0.12084 0.26738 0.0
N707 N 0.59617 0.07052 0.23488 0.0
H708 H 0.96385 0.60901 0.22288 0.0
H709 H 0.84607 0.56763 0.26363 0.0
H710 H 0.90102 0.63193 0.19987 0.0
H711 H 0.90521 0.54932 0.29747 0.0
H712 H 0.86793 0.58529 0.2354 0.0
H713 H 0.9446 0.58251 0.24678 0.0
C714 C 0.94612 0.60845 0.22282 0.0
C715 C 0.93402 0.6229 0.20959 0.0
C716 C 0.87631 0.57724 0.24881 0.0
C717 C 0.91212 0.5926 0.23627 0.0
C718 C 0.86378 0.567 0.26481 0.0
C719 C 0.87392 0.5571 0.28276 0.0
C720 C 0.89922 0.57817 0.25104 0.0
C721 C 0.8969 0.55673 0.28367 0.0
C722 C 0.93518 0.59333 0.23636 0.0
C723 C 0.9111 0.6214 0.20998 0.0
N724 N 0.90888 0.56753 0.26817 0.0
N725 N 0.90101 0.60662 0.22303 0.0
H726 H 0.46104 0.89122 0.27811 0.0
H727 H 0.34418 0.93489 0.23755 0.0
H728 H 0.39771 0.86683 0.29815 0.0
H729 H 0.40318 0.94996 0.20183 0.0
H730 H 0.36601 0.9169 0.26561 0.0
H731 H 0.44233 0.91813 0.25426 0.0
C732 C 0.44331 0.89151 0.2775 0.0
C733 C 0.43092 0.87663 0.28997 0.0
C734 C 0.37435 0.92434 0.25182 0.0
C735 C 0.40965 0.90741 0.26345 0.0
C736 C 0.36187 0.93477 0.23594 0.0
C737 C 0.37198 0.94378 0.2175 0.0
C738 C 0.39712 0.92235 0.24898 0.0
C739 C 0.39492 0.94323 0.21601 0.0
C740 C 0.43269 0.90686 0.26401 0.0
C741 C 0.40802 0.87776 0.28872 0.0
N742 N 0.40682 0.93225 0.23143 0.0
N743 N 0.39822 0.89283 0.2758 0.0
H744 H 0.11783 0.59442 0.68922 0.0
H745 H 0.04966 0.58583 0.79965 0.0
H746 H 0.11042 0.53321 0.72374 0.0
H747 H 0.05483 0.64372 0.75966 0.0
H748 H 0.0668 0.56432 0.77009 0.0
H749 H 0.09022 0.6108 0.71258 0.0
C750 C 0.1103 0.5844 0.7018 0.0
C751 C 0.11666 0.56256 0.70484 0.0
C752 C 0.06362 0.58159 0.76755 0.0
C753 C 0.08499 0.58136 0.73205 0.0
C754 C 0.05369 0.59378 0.78429 0.0
C755 C 0.05078 0.61643 0.78181 0.0
C756 C 0.07072 0.59233 0.74844 0.0
C757 C 0.05672 0.62622 0.76201 0.0
C758 C 0.0944 0.59374 0.71511 0.0
C759 C 0.10603 0.55018 0.72104 0.0
N760 N 0.06656 0.61416 0.74617 0.0
N761 N 0.09092 0.55989 0.73438 0.0
H762 H 0.35093 0.06592 0.76214 0.0
H763 H 0.46565 0.11134 0.71807 0.0
H764 H 0.41084 0.05087 0.79628 0.0
H765 H 0.40196 0.13976 0.70618 0.0
H766 H 0.44802 0.08345 0.74162 0.0
H767 H 0.37187 0.08556 0.73448 0.0
C768 C 0.36864 0.06637 0.76346 0.0
C769 C 0.37924 0.05693 0.78141 0.0
C770 C 0.43807 0.09585 0.73376 0.0
C771 C 0.40332 0.08015 0.75036 0.0
C772 C 0.44807 0.11176 0.72044 0.0
C773 C 0.43527 0.12798 0.71025 0.0
C774 C 0.41519 0.09606 0.73637 0.0
C775 C 0.41257 0.12773 0.71375 0.0
C776 C 0.38059 0.07774 0.74781 0.0
C777 C 0.40219 0.05792 0.78249 0.0
N778 N 0.40333 0.11204 0.72637 0.0
N779 N 0.41356 0.06976 0.7673 0.0
H780 H 0.84551 0.41964 0.729 0.0
H781 H 0.96 0.39836 0.78721 0.0
H782 H 0.90213 0.45601 0.70735 0.0
H783 H 0.90807 0.35099 0.77933 0.0
H784 H 0.93999 0.42343 0.76237 0.0
H785 H 0.86839 0.39951 0.75442 0.0
C786 C 0.86281 0.42355 0.7298 0.0
C787 C 0.87203 0.43925 0.71588 0.0
C788 C 0.93324 0.40743 0.76603 0.0
C789 C 0.89856 0.41582 0.74471 0.0
C790 C 0.94465 0.39312 0.78002 0.0
C791 C 0.9355 0.37271 0.78553 0.0
C792 C 0.91263 0.40115 0.7579 0.0
C793 C 0.91558 0.36668 0.77587 0.0
C794 C 0.87592 0.41194 0.74422 0.0
C795 C 0.89449 0.44392 0.71785 0.0
N796 N 0.9048 0.38088 0.76276 0.0
N797 N 0.90719 0.43199 0.73189 0.0
H798 H 0.65482 0.92781 0.7687 0.0
H799 H 0.53868 0.89335 0.71829 0.0
H800 H 0.59446 0.95401 0.79439 0.0
H801 H 0.60141 0.86468 0.70247 0.0
H802 H 0.55751 0.91905 0.74331 0.0
H803 H 0.63443 0.90914 0.7402 0.0
C804 C 0.63718 0.92981 0.7681 0.0
C805 C 0.62624 0.94227 0.7839 0.0
C806 C 0.56701 0.90712 0.73424 0.0
C807 C 0.60248 0.92028 0.75166 0.0
C808 C 0.55631 0.89245 0.72007 0.0
C809 C 0.56847 0.87674 0.70839 0.0
C810 C 0.58994 0.90606 0.73642 0.0
C811 C 0.59126 0.87634 0.71118 0.0
C812 C 0.62547 0.91905 0.75189 0.0
C813 C 0.6034 0.94452 0.78236 0.0
N814 N 0.60114 0.8907 0.72481 0.0
N815 N 0.59213 0.93327 0.76665 0.0
H816 H 0.18962 0.07634 0.39988 0.0
H817 H 0.31237 0.10663 0.41046 0.0
H818 H 0.23911 0.0386 0.36661 0.0
H819 H 0.2686 0.11714 0.46487 0.0
H820 H 0.28598 0.08114 0.39444 0.0
H821 H 0.21775 0.09105 0.42452 0.0
C822 C 0.20641 0.07084 0.39816 0.0
C823 C 0.21225 0.0563 0.3814 0.0
C824 C 0.28227 0.08866 0.41009 0.0
C825 C 0.2444 0.07336 0.40892 0.0
C826 C 0.29725 0.10325 0.41916 0.0
C827 C 0.29247 0.11395 0.43889 0.0
C828 C 0.26205 0.08532 0.42047 0.0
C829 C 0.27279 0.10909 0.44963 0.0
C830 C 0.2224 0.07916 0.4122 0.0
C831 C 0.23411 0.04973 0.3795 0.0
N832 N 0.25798 0.09544 0.44001 0.0
N833 N 0.24955 0.05865 0.39287 0.0
H834 H 0.89884 0.29065 0.45796 0.0
H835 H 0.91231 0.22546 0.34523 0.0
H836 H 0.84925 0.28244 0.40823 0.0
H837 H 0.95596 0.21213 0.39917 0.0
H838 H 0.89298 0.25187 0.36763 0.0
H839 H 0.92288 0.26542 0.43713 0.0
C840 C 0.89294 0.28339 0.44289 0.0
C841 C 0.87213 0.28882 0.43467 0.0
C842 C 0.9068 0.24328 0.37472 0.0
C843 C 0.89937 0.26061 0.41087 0.0
C844 C 0.91794 0.22826 0.36184 0.0
C845 C 0.93556 0.21641 0.37047 0.0
C846 C 0.91307 0.24648 0.39661 0.0
C847 C 0.94237 0.22096 0.39199 0.0
C848 C 0.90666 0.26915 0.431 0.0
C849 C 0.86525 0.27904 0.41508 0.0
N850 N 0.93091 0.23555 0.40453 0.0
N851 N 0.87883 0.26562 0.40388 0.0
H852 H 0.72429 0.84466 0.40868 0.0
H853 H 0.79007 0.95647 0.39892 0.0
H854 H 0.71031 0.89672 0.45447 0.0
H855 H 0.77558 0.91246 0.34551 0.0
H856 H 0.76451 0.93541 0.42235 0.0
H857 H 0.74906 0.86872 0.38919 0.0
C858 C 0.7266 0.86118 0.41477 0.0
C859 C 0.715 0.8688 0.43304 0.0
C860 C 0.7668 0.93069 0.4054 0.0
C861 C 0.74327 0.89676 0.41043 0.0
C862 C 0.78119 0.94273 0.39203 0.0
C863 C 0.7851 0.93597 0.37036 0.0
C864 C 0.75662 0.91185 0.3969 0.0
C865 C 0.77335 0.91804 0.36222 0.0
C866 C 0.74066 0.875 0.40352 0.0
C867 C 0.71895 0.89029 0.44038 0.0
N868 N 0.75988 0.90653 0.37551 0.0
N869 N 0.73271 0.90371 0.42889 0.0
H870 H 0.08372 0.77147 0.34127 0.0
H871 H 0.10806 0.71544 0.45745 0.0
H872 H 0.04866 0.7915 0.39926 0.0
H873 H 0.14738 0.7095 0.39891 0.0
H874 H 0.08319 0.74035 0.43734 0.0
H875 H 0.10309 0.74419 0.36259 0.0
C876 C 0.07997 0.76993 0.35856 0.0
C877 C 0.06477 0.78385 0.36858 0.0
C878 C 0.09731 0.73351 0.42906 0.0
C879 C 0.08742 0.75287 0.39348 0.0
C880 C 0.11152 0.71943 0.44051 0.0
C881 C 0.12981 0.71033 0.42984 0.0
C882 C 0.1015 0.73823 0.40687 0.0
C883 C 0.13351 0.71596 0.40788 0.0
C884 C 0.09113 0.7544 0.37081 0.0
C885 C 0.06032 0.78099 0.39099 0.0
N886 N 0.11951 0.72939 0.39723 0.0
N887 N 0.07186 0.76594 0.40286 0.0
H888 H 0.21882 0.96192 0.60509 0.0
H889 H 0.26596 0.84375 0.57264 0.0
H890 H 0.20455 0.9005 0.63725 0.0
H891 H 0.29503 0.90284 0.5471 0.0
H892 H 0.23779 0.86551 0.59039 0.0
H893 H 0.24271 0.94189 0.57913 0.0
C894 C 0.22068 0.94434 0.60669 0.0
C895 C 0.20981 0.9329 0.62347 0.0
C896 C 0.25015 0.87387 0.58078 0.0
C897 C 0.23646 0.91009 0.59386 0.0
C898 C 0.26614 0.86139 0.57052 0.0
C899 C 0.28283 0.87158 0.55861 0.0
C900 C 0.25106 0.89685 0.5796 0.0
C901 C 0.2823 0.89446 0.5562 0.0
C902 C 0.23421 0.93296 0.59189 0.0
C903 C 0.21267 0.91014 0.62476 0.0
N904 N 0.26682 0.90648 0.56699 0.0
N905 N 0.22561 0.8996 0.61022 0.0
H906 H 0.04447 0.20581 0.59751 0.0
H907 H 0.13942 0.29539 0.60252 0.0
H908 H 0.07441 0.23117 0.65621 0.0
H909 H 0.10777 0.27961 0.54126 0.0
H910 H 0.11366 0.27251 0.62163 0.0
H911 H 0.06446 0.23368 0.57593 0.0
C912 C 0.05478 0.2176 0.60586 0.0
C913 C 0.05801 0.21618 0.6286 0.0
C914 C 0.11212 0.27393 0.60401 0.0
C915 C 0.08091 0.24759 0.60428 0.0
C916 C 0.12704 0.28699 0.59297 0.0
C917 C 0.12595 0.28932 0.57015 0.0
C918 C 0.09586 0.26266 0.59231 0.0
C919 C 0.10926 0.27814 0.55887 0.0
C920 C 0.06628 0.23333 0.59357 0.0
C921 C 0.07165 0.23157 0.63869 0.0
N922 N 0.09489 0.26508 0.57007 0.0
N923 N 0.08265 0.24645 0.62648 0.0
H924 H 0.76468 0.06456 0.6539 0.0
H925 H 0.72035 0.1044 0.53698 0.0
H926 H 0.7972 0.04576 0.59413 0.0
H927 H 0.70178 0.13034 0.60013 0.0
H928 H 0.74444 0.07775 0.55581 0.0
H929 H 0.73606 0.0822 0.63258 0.0
C930 C 0.76548 0.06383 0.63617 0.0
C931 C 0.7832 0.05383 0.62568 0.0
C932 C 0.73494 0.08927 0.56539 0.0
C933 C 0.75101 0.07483 0.60101 0.0
C934 C 0.72129 0.10445 0.55469 0.0
C935 C 0.70926 0.11977 0.56699 0.0
C936 C 0.73611 0.08935 0.58842 0.0
C937 C 0.71092 0.11909 0.58989 0.0
C938 C 0.74926 0.07405 0.62396 0.0
C939 C 0.78361 0.05329 0.6027 0.0
N940 N 0.72401 0.10422 0.59975 0.0
N941 N 0.76788 0.06406 0.59101 0.0
H942 H 0.84806 0.72381 0.5905 0.0
H943 H 0.96054 0.78788 0.60796 0.0
H944 H 0.90229 0.71204 0.54668 0.0
H945 H 0.91144 0.77604 0.65748 0.0
H946 H 0.94017 0.76343 0.58285 0.0
H947 H 0.87078 0.74837 0.61176 0.0
C948 C 0.8648 0.72656 0.58524 0.0
C949 C 0.87339 0.71568 0.56697 0.0
C950 C 0.93411 0.76611 0.59931 0.0
C951 C 0.89987 0.74366 0.59166 0.0
C952 C 0.94575 0.77988 0.61365 0.0
C953 C 0.93752 0.78415 0.63474 0.0
C954 C 0.91417 0.75685 0.60624 0.0
C955 C 0.91827 0.7735 0.64129 0.0
C956 C 0.87786 0.74051 0.5975 0.0
C957 C 0.89511 0.72015 0.56073 0.0
N958 N 0.90724 0.76058 0.62709 0.0
N959 N 0.90779 0.73373 0.57323 0.0
H960 H 0.41117 0.27479 0.15412 0.0
H961 H 0.39347 0.21253 0.03994 0.0
H962 H 0.45316 0.28761 0.09872 0.0
H963 H 0.34839 0.21322 0.09448 0.0
H964 H 0.4177 0.23761 0.06055 0.0
H965 H 0.39112 0.24822 0.13254 0.0
C966 C 0.41627 0.27185 0.13737 0.0
C967 C 0.43368 0.28355 0.12812 0.0
C968 C 0.40244 0.23224 0.06784 0.0
C969 C 0.41037 0.2533 0.1029 0.0
C970 C 0.38859 0.21808 0.05607 0.0
C971 C 0.36892 0.21071 0.06554 0.0
C972 C 0.3965 0.23881 0.08913 0.0
C973 C 0.36341 0.21829 0.08651 0.0
C974 C 0.40473 0.25671 0.12495 0.0
C975 C 0.43978 0.27886 0.10641 0.0
N976 N 0.37711 0.23176 0.09753 0.0
N977 N 0.42793 0.2642 0.09436 0.0
H978 H 0.39123 0.78002 0.96014 0.0
H979 H 0.42483 0.7352 0.84135 0.0
H980 H 0.362 0.79879 0.89852 0.0
H981 H 0.45154 0.70681 0.90021 0.0
H982 H 0.4063 0.76274 0.86325 0.0
H983 H 0.4168 0.75599 0.93986 0.0
C984 C 0.39016 0.77909 0.94245 0.0
C985 C 0.37434 0.79131 0.93103 0.0
C986 C 0.41631 0.75067 0.87155 0.0
C987 C 0.40354 0.76441 0.90792 0.0
C988 C 0.42701 0.73503 0.85898 0.0
C989 C 0.43957 0.71874 0.86904 0.0
C990 C 0.41771 0.74983 0.89452 0.0
C991 C 0.442 0.71925 0.89191 0.0
C992 C 0.40477 0.76548 0.93092 0.0
C993 C 0.37374 0.78961 0.90813 0.0
N994 N 0.43082 0.7344 0.90402 0.0
N995 N 0.38806 0.77651 0.89745 0.0
H996 H 0.26299 0.43674 0.84845 0.0
H997 H 0.22219 0.39312 0.96529 0.0
H998 H 0.29782 0.4526 0.90774 0.0
H999 H 0.19935 0.37138 0.90197 0.0
H1000 H 0.24631 0.41983 0.94662 0.0
H1001 H 0.23465 0.419 0.87006 0.0
C1002 C 0.26439 0.43677 0.86616 0.0
C1003 C 0.28264 0.44597 0.87641 0.0
C1004 C 0.23587 0.40922 0.93697 0.0
C1005 C 0.25076 0.42487 0.90137 0.0
C1006 C 0.2222 0.394 0.94757 0.0
C1007 C 0.20898 0.37982 0.93515 0.0
C1008 C 0.23588 0.41033 0.91393 0.0
C1009 C 0.20946 0.38169 0.91227 0.0
C1010 C 0.24831 0.42651 0.87853 0.0
C1011 C 0.28381 0.44568 0.89936 0.0
N1012 N 0.22262 0.39658 0.90251 0.0
N1013 N 0.26819 0.43486 0.91118 0.0
H1014 H 0.59451 0.20943 0.95665 0.0
H1015 H 0.59764 0.31029 0.87323 0.0
H1016 H 0.65139 0.2324 0.92159 0.0
H1017 H 0.5367 0.27812 0.88916 0.0
H1018 H 0.61672 0.28624 0.89823 0.0
H1019 H 0.57246 0.23832 0.93874 0.0
C1020 C 0.60238 0.22082 0.94553 0.0
C1021 C 0.6247 0.21862 0.94042 0.0
C1022 C 0.59917 0.28431 0.89634 0.0
C1023 C 0.59993 0.25135 0.92024 0.0
C1024 C 0.58823 0.29804 0.88198 0.0
C1025 C 0.56562 0.29586 0.87872 0.0
C1026 C 0.58759 0.26792 0.9075 0.0
C1027 C 0.55423 0.2801 0.89105 0.0
C1028 C 0.58981 0.23711 0.93525 0.0
C1029 C 0.63418 0.23348 0.92581 0.0
N1030 N 0.56543 0.26643 0.90478 0.0
N1031 N 0.62177 0.24916 0.91627 0.0
H1032 H 0.71996 0.54163 0.89479 0.0
H1033 H 0.76843 0.65952 0.92635 0.0
H1034 H 0.70285 0.6036 0.8652 0.0
H1035 H 0.7953 0.60032 0.95389 0.0
H1036 H 0.73993 0.63817 0.90872 0.0
H1037 H 0.74452 0.56147 0.92025 0.0
C1038 C 0.72134 0.55929 0.89365 0.0
C1039 C 0.70952 0.57094 0.87769 0.0
C1040 C 0.75187 0.62967 0.91872 0.0
C1041 C 0.73695 0.59354 0.90673 0.0
C1042 C 0.76805 0.64194 0.9289 0.0
C1043 C 0.78416 0.63159 0.94142 0.0
C1044 C 0.75202 0.6067 0.92056 0.0
C1045 C 0.78299 0.6088 0.94434 0.0
C1046 C 0.73524 0.57057 0.90818 0.0
C1047 C 0.71175 0.59379 0.877 0.0
N1048 N 0.76733 0.59695 0.93363 0.0
N1049 N 0.72511 0.60421 0.89122 0.0
H1050 H 0.5896 0.72614 0.15604 0.0
H1051 H 0.60189 0.79019 0.04312 0.0
H1052 H 0.54538 0.7114 0.10291 0.0
H1053 H 0.65368 0.77856 0.0898 0.0
H1054 H 0.57815 0.76491 0.06417 0.0
H1055 H 0.60938 0.7511 0.13241 0.0
C1056 C 0.58391 0.72832 0.13937 0.0
C1057 C 0.56599 0.71647 0.13136 0.0
C1058 C 0.59481 0.76781 0.06953 0.0
C1059 C 0.58897 0.74496 0.10385 0.0
C1060 C 0.60837 0.78206 0.0575 0.0
C1061 C 0.62969 0.78665 0.0649 0.0
C1062 C 0.60274 0.75844 0.08902 0.0
C1063 C 0.63728 0.7758 0.08365 0.0
C1064 C 0.59534 0.74251 0.12579 0.0
C1065 C 0.55918 0.72025 0.10967 0.0
N1066 N 0.6238 0.76245 0.09509 0.0
N1067 N 0.57085 0.73411 0.09649 0.0
H1068 H 0.22129 0.65639 0.08916 0.0
H1069 H 0.28769 0.54417 0.10364 0.0
H1070 H 0.21392 0.60314 0.04322 0.0
H1071 H 0.28126 0.5949 0.15253 0.0
H1072 H 0.26244 0.56491 0.07978 0.0
H1073 H 0.24653 0.63426 0.11035 0.0
C1074 C 0.22513 0.64003 0.08343 0.0
C1075 C 0.21536 0.63155 0.06449 0.0
C1076 C 0.26652 0.57131 0.09581 0.0
C1077 C 0.24419 0.60575 0.08901 0.0
C1078 C 0.28076 0.55945 0.10946 0.0
C1079 C 0.28668 0.5679 0.13003 0.0
C1080 C 0.25837 0.59169 0.10289 0.0
C1081 C 0.27736 0.58781 0.13674 0.0
C1082 C 0.23949 0.62729 0.09563 0.0
C1083 C 0.22113 0.61027 0.05776 0.0
N1084 N 0.26386 0.599 0.1232 0.0
N1085 N 0.23511 0.59797 0.07012 0.0
H1086 H 0.72545 0.4131 0.15517 0.0
H1087 H 0.78965 0.39989 0.0426 0.0
H1088 H 0.7108 0.45728 0.10199 0.0
H1089 H 0.77569 0.34795 0.08852 0.0
H1090 H 0.76493 0.42423 0.06362 0.0
H1091 H 0.75048 0.39328 0.13157 0.0
C1092 C 0.72773 0.41879 0.1385 0.0
C1093 C 0.71586 0.43666 0.13042 0.0
C1094 C 0.76718 0.40741 0.0688 0.0
C1095 C 0.74428 0.41363 0.10298 0.0
C1096 C 0.78111 0.39351 0.05679 0.0
C1097 C 0.78489 0.37197 0.06402 0.0
C1098 C 0.75736 0.39958 0.08811 0.0
C1099 C 0.77355 0.36452 0.08252 0.0
C1100 C 0.74191 0.40735 0.12495 0.0
C1101 C 0.7197 0.44352 0.10877 0.0
N1102 N 0.76054 0.37832 0.09398 0.0
N1103 N 0.7335 0.43179 0.09558 0.0
H1104 H 0.96067 0.1897 0.24774 0.0
H1105 H 0.01819 0.30498 0.22901 0.0
H1106 H 0.98412 0.22616 0.30374 0.0
H1107 H 0.02217 0.24986 0.18473 0.0
H1108 H 0.00028 0.28089 0.25621 0.0
H1109 H 0.97634 0.21709 0.22373 0.0
C1110 C 0.969 0.20354 0.2551 0.0
C1111 C 0.97134 0.20533 0.27792 0.0
C1112 C 0.00525 0.27424 0.24052 0.0
C1113 C 0.98948 0.23701 0.25012 0.0
C1114 C 0.0154 0.28792 0.22501 0.0
C1115 C 0.02171 0.27949 0.20448 0.0
C1116 C 0.00104 0.25225 0.23516 0.0
C1117 C 0.01772 0.25722 0.20024 0.0
C1118 C 0.97803 0.21918 0.24128 0.0
C1119 C 0.98209 0.22398 0.28626 0.0
N1120 N 0.00753 0.24454 0.2153 0.0
N1121 N 0.99092 0.23911 0.27232 0.0
H1122 H 0.77617 0.98644 0.30408 0.0
H1123 H 0.75357 0.02634 0.18257 0.0
H1124 H 0.812 0.96426 0.24715 0.0
H1125 H 0.70009 0.02369 0.22892 0.0
H1126 H 0.77706 0.00854 0.20909 0.0
H1127 H 0.74921 0.00379 0.27948 0.0
C1128 C 0.7783 0.98501 0.28652 0.0
C1129 C 0.79661 0.97405 0.27774 0.0
C1130 C 0.76019 0.01184 0.21354 0.0
C1131 C 0.76614 0.99405 0.24977 0.0
C1132 C 0.74672 0.0222 0.19842 0.0
C1133 C 0.72469 0.02653 0.20341 0.0
C1134 C 0.75183 0.00584 0.23408 0.0
C1135 C 0.71694 0.02059 0.22433 0.0
C1136 C 0.76293 0.99491 0.27255 0.0
C1137 C 0.79842 0.9727 0.25483 0.0
N1138 N 0.73054 0.01056 0.23899 0.0
N1139 N 0.78359 0.98275 0.24176 0.0
H1140 H 0.99028 0.69548 0.22513 0.0
H1141 H 0.00673 0.82012 0.25487 0.0
H1142 H 0.94904 0.74772 0.20115 0.0
H1143 H 0.02679 0.77051 0.30111 0.0
H1144 H 0.98788 0.79235 0.23364 0.0
H1145 H 0.00521 0.72086 0.2528 0.0
C1146 C 0.98404 0.71208 0.22595 0.0
C1147 C 0.96868 0.7196 0.21051 0.0
C1148 C 0.99628 0.78744 0.24848 0.0
C1149 C 0.98584 0.74855 0.24171 0.0
C1150 C 0.00725 0.8033 0.26054 0.0
C1151 C 0.0185 0.79763 0.27974 0.0
C1152 C 0.99674 0.7655 0.25532 0.0
C1153 C 0.0183 0.77555 0.28638 0.0
C1154 C 0.99261 0.72653 0.24168 0.0
C1155 C 0.96118 0.74127 0.21236 0.0
N1156 N 0.00778 0.76015 0.27401 0.0
N1157 N 0.97004 0.75498 0.22739 0.0
H1158 H 0.183 0.02222 0.2539 0.0
H1159 H 0.30492 0.99035 0.22622 0.0
H1160 H 0.23083 0.02534 0.30597 0.0
H1161 H 0.24813 0.95888 0.198 0.0
H1162 H 0.28088 0.00711 0.25414 0.0
H1163 H 0.20961 0.00416 0.23081 0.0
C1164 C 0.19922 0.01932 0.2605 0.0
C1165 C 0.20462 0.02543 0.282 0.0
C1166 C 0.27391 0.99629 0.24193 0.0
C1167 C 0.23543 0.00439 0.25528 0.0
C1168 C 0.28754 0.98674 0.22599 0.0
C1169 C 0.27853 0.97345 0.20942 0.0
C1170 C 0.2512 0.99266 0.24099 0.0
C1171 C 0.25591 0.96928 0.21008 0.0
C1172 C 0.21439 0.00877 0.24727 0.0
C1173 C 0.22595 0.02087 0.28952 0.0
N1174 N 0.2431 0.97903 0.22534 0.0
N1175 N 0.24073 0.01069 0.27608 0.0
H1176 H 0.04611 0.7426 0.81023 0.0
H1177 H 0.97748 0.76776 0.70217 0.0
H1178 H 0.01389 0.68987 0.77564 0.0
H1179 H 0.98537 0.81253 0.75642 0.0
H1180 H 0.9958 0.73907 0.72403 0.0
H1181 H 0.03018 0.76861 0.7848 0.0
C1182 C 0.03582 0.73638 0.79719 0.0
C1183 C 0.0311 0.71392 0.79539 0.0
C1184 C 0.99338 0.75521 0.73102 0.0
C1185 C 0.01266 0.74399 0.76602 0.0
C1186 C 0.98298 0.77156 0.71861 0.0
C1187 C 0.97977 0.7926 0.72748 0.0
C1188 C 0.00102 0.76019 0.75215 0.0
C1189 C 0.98726 0.79659 0.74886 0.0
C1190 C 0.02664 0.75134 0.78268 0.0
C1191 C 0.01784 0.70703 0.7778 0.0
N1192 N 0.99762 0.78065 0.76032 0.0
N1193 N 0.00893 0.72206 0.76382 0.0
H1194 H 0.21626 0.00309 0.69598 0.0
H1195 H 0.30617 0.99164 0.78932 0.0
H1196 H 0.2166 0.94713 0.73911 0.0
H1197 H 0.26833 0.05088 0.78224 0.0
H1198 H 0.28316 0.97413 0.76115 0.0
H1199 H 0.24564 0.01971 0.71806 0.0
C1200 C 0.22294 0.99407 0.70973 0.0
C1201 C 0.21406 0.97376 0.71583 0.0
C1202 C 0.28025 0.99108 0.76556 0.0
C1203 C 0.24763 0.9924 0.74068 0.0
C1204 C 0.29336 0.00108 0.78146 0.0
C1205 C 0.28901 0.02267 0.78806 0.0
C1206 C 0.26321 0.00302 0.7558 0.0
C1207 C 0.27208 0.03417 0.77761 0.0
C1208 C 0.23952 0.0036 0.72233 0.0
C1209 C 0.22302 0.96285 0.73397 0.0
N1210 N 0.2598 0.02422 0.76191 0.0
N1211 N 0.23939 0.97229 0.74577 0.0
H1212 H 0.00561 0.17881 0.74461 0.0
H1213 H 0.98772 0.30364 0.77536 0.0
H1214 H 0.02313 0.22947 0.69847 0.0
H1215 H 0.95186 0.24973 0.80395 0.0
H1216 H 0.00191 0.27842 0.74718 0.0
H1217 H 0.98767 0.20596 0.76731 0.0
C1218 C 0.00574 0.19575 0.73926 0.0
C1219 C 0.01607 0.20189 0.71968 0.0
C1220 C 0.9907 0.2723 0.7595 0.0
C1221 C 0.99534 0.23336 0.74584 0.0
C1222 C 0.98258 0.28665 0.77556 0.0
C1223 C 0.96886 0.27874 0.79232 0.0
C1224 C 0.98512 0.24997 0.76039 0.0
C1225 C 0.9627 0.25658 0.79169 0.0
C1226 C 0.9953 0.21127 0.7522 0.0
C1227 C 0.01536 0.22408 0.71348 0.0
N1228 N 0.97104 0.24303 0.77622 0.0
N1229 N 0.00536 0.23915 0.72668 0.0
H1230 H 0.78693 0.05402 0.73852 0.0
H1231 H 0.73618 0.94957 0.78874 0.0
H1232 H 0.78805 0.99443 0.70054 0.0
H1233 H 0.6985 0.0093 0.79076 0.0
H1234 H 0.75903 0.96546 0.75961 0.0
H1235 H 0.75774 0.03832 0.76146 0.0
C1236 C 0.78083 0.03774 0.73489 0.0
C1237 C 0.7898 0.02548 0.71763 0.0
C1238 C 0.74555 0.97492 0.76625 0.0
C1239 C 0.7571 0.00734 0.74405 0.0
C1240 C 0.7326 0.96593 0.78284 0.0
C1241 C 0.71544 0.97816 0.79201 0.0
C1242 C 0.74179 0.99654 0.75941 0.0
C1243 C 0.71149 0.99932 0.78392 0.0
C1244 C 0.7642 0.02886 0.74789 0.0
C1245 C 0.78142 0.00444 0.71361 0.0
N1246 N 0.72488 0.00807 0.76836 0.0
N1247 N 0.76583 0.99581 0.72703 0.0
H1248 H 0.22361 0.30653 0.99239 0.0
H1249 H 0.25214 0.18178 0.00637 0.0
H1250 H 0.20201 0.25587 0.948 0.0
H1251 H 0.29956 0.22985 0.02746 0.0
H1252 H 0.23165 0.21039 0.98804 0.0
H1253 H 0.25092 0.2808 0.00744 0.0
C1254 C 0.22492 0.29024 0.98547 0.0
C1255 C 0.21021 0.28319 0.9692 0.0
C1256 C 0.24656 0.21479 0.9966 0.0
C1257 C 0.24094 0.25386 0.98648 0.0
C1258 C 0.25819 0.19845 0.0073 0.0
C1259 C 0.27754 0.20342 0.01863 0.0
C1260 C 0.25397 0.23652 0.9974 0.0
C1261 C 0.28469 0.22535 0.01891 0.0
C1262 C 0.24043 0.27559 0.99411 0.0
C1263 C 0.21264 0.26191 0.96085 0.0
N1264 N 0.27273 0.24124 0.00862 0.0
N1265 N 0.2274 0.24797 0.96979 0.0
H1266 H 0.17747 0.73864 0.99148 0.0
H1267 H 0.30251 0.77514 0.98609 0.0
H1268 H 0.22833 0.69943 0.02105 0.0
H1269 H 0.25074 0.80239 0.9464 0.0
H1270 H 0.27716 0.74618 0.99824 0.0
H1271 H 0.2052 0.76143 0.9745 0.0
C1272 C 0.19456 0.7348 0.99441 0.0
C1273 C 0.20056 0.71721 0.00791 0.0
C1274 C 0.27153 0.75835 0.98663 0.0
C1275 C 0.23273 0.74353 0.9884 0.0
C1276 C 0.286 0.77482 0.97962 0.0
C1277 C 0.27865 0.79144 0.96546 0.0
C1278 C 0.24965 0.75862 0.9794 0.0
C1279 C 0.25707 0.79021 0.95763 0.0
C1280 C 0.21046 0.7478 0.98457 0.0
C1281 C 0.223 0.71288 0.01079 0.0
N1282 N 0.24337 0.7743 0.96485 0.0
N1283 N 0.23835 0.72615 0.00132 0.0
H1284 H 0.8192 0.25563 0.00686 0.0
H1285 H 0.6933 0.22634 0.99234 0.0
H1286 H 0.76927 0.30157 0.02687 0.0
H1287 H 0.74633 0.19565 0.95691 0.0
H1288 H 0.71925 0.25427 0.00574 0.0
H1289 H 0.79142 0.23316 0.98971 0.0
C1290 C 0.80229 0.26099 0.0077 0.0
C1291 C 0.79655 0.28043 0.01852 0.0
C1292 C 0.72502 0.24153 0.99481 0.0
C1293 C 0.7643 0.25452 0.99871 0.0
C1294 C 0.71026 0.22562 0.98715 0.0
C1295 C 0.71771 0.20836 0.9738 0.0
C1296 C 0.74729 0.24001 0.98909 0.0
C1297 C 0.73984 0.2083 0.96753 0.0
C1298 C 0.78638 0.24818 0.99772 0.0
C1299 C 0.77436 0.28666 0.01872 0.0
N1300 N 0.75377 0.22368 0.97537 0.0
N1301 N 0.75892 0.27357 0.00915 0.0
H1302 H 0.80642 0.75359 0.95339 0.0
H1303 H 0.69884 0.77207 0.02558 0.0
H1304 H 0.77759 0.69971 0.98915 0.0
H1305 H 0.74738 0.82144 0.01095 0.0
H1306 H 0.72226 0.74459 0.00717 0.0
H1307 H 0.77865 0.77785 0.96818 0.0
C1308 C 0.79417 0.74676 0.96429 0.0
C1309 C 0.79467 0.72458 0.97034 0.0
C1310 C 0.72763 0.76148 0.00809 0.0
C1311 C 0.76264 0.75258 0.9875 0.0
C1312 C 0.71432 0.77713 0.01851 0.0
C1313 C 0.72125 0.79906 0.01999 0.0
C1314 C 0.74762 0.76805 0.9987 0.0
C1315 C 0.74142 0.80473 0.01052 0.0
C1316 C 0.7783 0.7607 0.97277 0.0
C1317 C 0.77797 0.71674 0.98421 0.0
N1318 N 0.75375 0.78941 0.00026 0.0
N1319 N 0.76269 0.7308 0.99253 0.0
H1320 H 0.47512 0.73303 0.80092 0.0
H1321 H 0.55339 0.75263 0.69799 0.0
H1322 H 0.49208 0.6843 0.75251 0.0
H1323 H 0.51364 0.80551 0.72317 0.0
H1324 H 0.53824 0.72846 0.72576 0.0
H1325 H 0.49513 0.76071 0.77911 0.0
C1326 C 0.48306 0.72816 0.78581 0.0
C1327 C 0.48175 0.70639 0.77838 0.0
C1328 C 0.53296 0.74541 0.72537 0.0
C1329 C 0.50492 0.73755 0.75396 0.0
C1330 C 0.54165 0.75928 0.70954 0.0
C1331 C 0.53445 0.78105 0.70792 0.0
C1332 C 0.51687 0.75323 0.7398 0.0
C1333 C 0.51951 0.78877 0.72371 0.0
C1334 C 0.4944 0.74391 0.77344 0.0
C1335 C 0.49236 0.70091 0.75874 0.0
N1336 N 0.51094 0.77476 0.73888 0.0
N1337 N 0.50354 0.71632 0.74734 0.0
H1338 H 0.2819 0.45127 0.76504 0.0
H1339 H 0.23531 0.55759 0.71654 0.0
H1340 H 0.28712 0.51027 0.80354 0.0
H1341 H 0.19508 0.49953 0.71502 0.0
H1342 H 0.25716 0.54113 0.74609 0.0
H1343 H 0.25246 0.4684 0.74358 0.0
C1344 C 0.27662 0.46773 0.76911 0.0
C1345 C 0.28682 0.47941 0.78605 0.0
C1346 C 0.24327 0.53223 0.73955 0.0
C1347 C 0.25384 0.49919 0.76131 0.0
C1348 C 0.23086 0.54156 0.72274 0.0
C1349 C 0.21337 0.52989 0.71347 0.0
C1350 C 0.23863 0.5108 0.74648 0.0
C1351 C 0.20833 0.5091 0.72192 0.0
C1352 C 0.25984 0.47742 0.75697 0.0
C1353 C 0.2795 0.50072 0.79069 0.0
N1354 N 0.22125 0.49996 0.73762 0.0
N1355 N 0.26374 0.51016 0.77804 0.0
H1356 H 0.55235 0.30021 0.75494 0.0
H1357 H 0.47105 0.20041 0.73234 0.0
H1358 H 0.50824 0.27862 0.80586 0.0
H1359 H 0.49153 0.24843 0.6846 0.0
H1360 H 0.49053 0.22157 0.76095 0.0
H1361 H 0.53747 0.27234 0.73067 0.0
C1362 C 0.53972 0.28938 0.76115 0.0
C1363 C 0.5312 0.29208 0.78232 0.0
C1364 C 0.49066 0.2273 0.74415 0.0
C1365 C 0.51393 0.26015 0.75441 0.0
C1366 C 0.47961 0.21531 0.72789 0.0
C1367 C 0.47946 0.22282 0.70611 0.0
C1368 C 0.50208 0.24642 0.7383 0.0
C1369 C 0.49089 0.24215 0.70118 0.0
C1370 C 0.53119 0.27351 0.74724 0.0
C1371 C 0.51513 0.27721 0.78958 0.0
N1372 N 0.50177 0.25314 0.71706 0.0
N1373 N 0.50671 0.26201 0.77549 0.0
H1374 H 0.80191 0.51048 0.71012 0.0
H1375 H 0.71272 0.50093 0.80409 0.0
H1376 H 0.76096 0.45313 0.71522 0.0
H1377 H 0.71368 0.55734 0.76156 0.0
H1378 H 0.74106 0.4837 0.78111 0.0
H1379 H 0.77972 0.52829 0.7388 0.0
C1380 C 0.78857 0.5015 0.71764 0.0
C1381 C 0.78313 0.48038 0.71036 0.0
C1382 C 0.73531 0.50003 0.77716 0.0
C1383 C 0.75828 0.50032 0.7432 0.0
C1384 C 0.71934 0.5099 0.79027 0.0
C1385 C 0.71093 0.53054 0.78462 0.0
C1386 C 0.74332 0.5112 0.75875 0.0
C1387 C 0.71976 0.54138 0.76637 0.0
C1388 C 0.77593 0.51167 0.73383 0.0
C1389 C 0.76556 0.46948 0.72039 0.0
N1390 N 0.73557 0.53159 0.75407 0.0
N1391 N 0.75377 0.47954 0.73641 0.0
H1392 H 0.52297 0.19938 0.2701 0.0
H1393 H 0.46482 0.31397 0.24895 0.0
H1394 H 0.52619 0.25547 0.31324 0.0
H1395 H 0.48783 0.27618 0.19365 0.0
H1396 H 0.48084 0.28725 0.27348 0.0
H1397 H 0.50526 0.22282 0.24222 0.0
C1398 C 0.52012 0.21652 0.27369 0.0
C1399 C 0.5261 0.22538 0.29414 0.0
C1400 C 0.4824 0.28473 0.25598 0.0
C1401 C 0.50557 0.25189 0.2627 0.0
C1402 C 0.47319 0.3 0.24187 0.0
C1403 C 0.47528 0.29762 0.21909 0.0
C1404 C 0.49385 0.26672 0.24746 0.0
C1405 C 0.48599 0.27879 0.2111 0.0
C1406 C 0.51004 0.22983 0.2578 0.0
C1407 C 0.52199 0.24774 0.29784 0.0
N1408 N 0.49505 0.26405 0.2253 0.0
N1409 N 0.51187 0.26004 0.28243 0.0
H1410 H 0.74961 0.54174 0.30734 0.0
H1411 H 0.7298 0.47354 0.19871 0.0
H1412 H 0.8049 0.51035 0.2761 0.0
H1413 H 0.68448 0.47648 0.25302 0.0
H1414 H 0.7576 0.49175 0.22179 0.0
H1415 H 0.72534 0.52415 0.28135 0.0
C1416 C 0.75676 0.53125 0.29493 0.0
C1417 C 0.77942 0.52727 0.29425 0.0
C1418 C 0.74157 0.48818 0.22853 0.0
C1419 C 0.75133 0.50697 0.2642 0.0
C1420 C 0.72572 0.47784 0.21544 0.0
C1421 C 0.70471 0.47346 0.2239 0.0
C1422 C 0.73609 0.49459 0.24994 0.0
C1423 C 0.70037 0.47939 0.24571 0.0
C1424 C 0.74279 0.52113 0.28011 0.0
C1425 C 0.78754 0.51375 0.27739 0.0
N1426 N 0.71578 0.48982 0.2578 0.0
N1427 N 0.77345 0.50393 0.26302 0.0
H1428 H 0.52558 0.73156 0.19925 0.0
H1429 H 0.44839 0.75063 0.30311 0.0
H1430 H 0.51091 0.68319 0.24876 0.0
H1431 H 0.48535 0.80452 0.27594 0.0
H1432 H 0.46449 0.72634 0.27602 0.0
H1433 H 0.50548 0.7591 0.22117 0.0
C1434 C 0.51817 0.72674 0.21464 0.0
C1435 C 0.5201 0.70507 0.22227 0.0
C1436 C 0.46899 0.74352 0.27584 0.0
C1437 C 0.49682 0.73611 0.24688 0.0
C1438 C 0.45973 0.75746 0.29129 0.0
C1439 C 0.46582 0.77963 0.29213 0.0
C1440 C 0.48451 0.75163 0.26096 0.0
C1441 C 0.48031 0.78751 0.276 0.0
C1442 C 0.50676 0.74241 0.22708 0.0
C1443 C 0.51014 0.69969 0.24229 0.0
N1444 N 0.48942 0.77344 0.26117 0.0
N1445 N 0.49889 0.71501 0.25375 0.0
H1446 H 0.32062 0.50941 0.24607 0.0
H1447 H 0.19686 0.48857 0.2762 0.0
H1448 H 0.27075 0.52747 0.19929 0.0
H1449 H 0.25045 0.4481 0.29839 0.0
H1450 H 0.22152 0.50501 0.24868 0.0
H1451 H 0.29333 0.49004 0.26736 0.0
C1452 C 0.30383 0.50945 0.24031 0.0
C1453 C 0.29799 0.52024 0.22088 0.0
C1454 C 0.22764 0.49225 0.25938 0.0
C1455 C 0.26637 0.49778 0.24543 0.0
C1456 C 0.21361 0.48282 0.27502 0.0
C1457 C 0.2217 0.4672 0.28993 0.0
C1458 C 0.24983 0.48609 0.2589 0.0
C1459 C 0.24355 0.46038 0.28762 0.0
C1460 C 0.28825 0.49815 0.25242 0.0
C1461 C 0.27594 0.51936 0.21418 0.0
N1462 N 0.25684 0.47006 0.27271 0.0
N1463 N 0.26079 0.50847 0.22659 0.0
H1464 H 0.80638 0.7254 0.50976 0.0
H1465 H 0.6822 0.7499 0.48461 0.0
H1466 H 0.75226 0.69738 0.54576 0.0
H1467 H 0.72987 0.80102 0.47346 0.0
H1468 H 0.70986 0.7285 0.50328 0.0
H1469 H 0.78089 0.75244 0.4938 0.0
C1470 C 0.78931 0.72514 0.51461 0.0
C1471 C 0.78139 0.7088 0.52881 0.0
C1472 C 0.71435 0.74442 0.49684 0.0
C1473 C 0.75238 0.73927 0.51049 0.0
C1474 C 0.69857 0.75663 0.48596 0.0
C1475 C 0.70368 0.77732 0.47735 0.0
C1476 C 0.73568 0.75265 0.49902 0.0
C1477 C 0.72523 0.78515 0.4799 0.0
C1478 C 0.77482 0.74052 0.50547 0.0
C1479 C 0.75912 0.7093 0.53455 0.0
N1480 N 0.74058 0.77269 0.49038 0.0
N1481 N 0.74543 0.72402 0.52516 0.0
H1482 H 0.71161 0.19581 0.49584 0.0
H1483 H 0.80337 0.28738 0.5043 0.0
H1484 H 0.71807 0.23482 0.55437 0.0
H1485 H 0.75808 0.28677 0.45009 0.0
H1486 H 0.78223 0.25776 0.5217 0.0
H1487 H 0.73926 0.21906 0.47784 0.0
C1488 C 0.71935 0.20884 0.50508 0.0
C1489 C 0.71269 0.21347 0.52658 0.0
C1490 C 0.77726 0.2639 0.5058 0.0
C1491 C 0.74424 0.23965 0.50634 0.0
C1492 C 0.78929 0.28064 0.49584 0.0
C1493 C 0.78234 0.28949 0.47579 0.0
C1494 C 0.75864 0.25557 0.49527 0.0
C1495 C 0.76385 0.28041 0.46561 0.0
C1496 C 0.73491 0.22213 0.49478 0.0
C1497 C 0.72285 0.23078 0.53777 0.0
N1498 N 0.75263 0.26385 0.47544 0.0
N1499 N 0.73821 0.24327 0.52752 0.0
H1500 H 0.32198 0.75593 0.5071 0.0
H1501 H 0.19842 0.72454 0.48582 0.0
H1502 H 0.27089 0.80188 0.52389 0.0
H1503 H 0.25284 0.69907 0.44843 0.0
H1504 H 0.22288 0.75284 0.50101 0.0
H1505 H 0.2954 0.73384 0.48754 0.0
C1506 C 0.30508 0.76136 0.50673 0.0
C1507 C 0.29862 0.7807 0.5173 0.0
C1508 C 0.22926 0.74123 0.48919 0.0
C1509 C 0.26787 0.7553 0.49474 0.0
C1510 C 0.21533 0.72512 0.48048 0.0
C1511 C 0.22368 0.70912 0.46613 0.0
C1512 C 0.25159 0.74111 0.48358 0.0
C1513 C 0.24572 0.71072 0.45977 0.0
C1514 C 0.2899 0.7488 0.49536 0.0
C1515 C 0.27651 0.78704 0.51595 0.0
N1516 N 0.2589 0.72616 0.46874 0.0
N1517 N 0.26177 0.77419 0.50506 0.0
H1518 H 0.197 0.28414 0.49709 0.0
H1519 H 0.28772 0.19118 0.50254 0.0
H1520 H 0.24161 0.28046 0.55171 0.0
H1521 H 0.2825 0.23281 0.44571 0.0
H1522 H 0.26003 0.21386 0.52113 0.0
H1523 H 0.21798 0.25502 0.47859 0.0
C1524 C 0.21084 0.27677 0.50541 0.0
C1525 C 0.21765 0.28462 0.52592 0.0
C1526 C 0.26466 0.21765 0.50442 0.0
C1527 C 0.24123 0.25132 0.50515 0.0
C1528 C 0.28026 0.20469 0.49376 0.0
C1529 C 0.28732 0.21019 0.47258 0.0
C1530 C 0.25565 0.23576 0.49353 0.0
C1531 C 0.27746 0.22808 0.46205 0.0
C1532 C 0.22281 0.26035 0.49482 0.0
C1533 C 0.23589 0.27483 0.53589 0.0
N1534 N 0.26205 0.24025 0.47262 0.0
N1535 N 0.24705 0.25859 0.52543 0.0
H1536 H 0.07845 0.37416 0.11356 0.0
H1537 H 0.11358 0.29373 0.01722 0.0
H1538 H 0.07954 0.30362 0.11881 0.0
H1539 H 0.13645 0.3607 0.01867 0.0
H1540 H 0.09743 0.29873 0.05314 0.0
H1541 H 0.09669 0.37119 0.07766 0.0
C1542 C 0.08256 0.3581 0.1072 0.0
C1543 C 0.07735 0.33909 0.1191 0.0
C1544 C 0.10602 0.31236 0.0457 0.0
C1545 C 0.09792 0.33563 0.07829 0.0
C1546 C 0.11518 0.30957 0.02507 0.0
C1547 C 0.12639 0.32685 0.01483 0.0
C1548 C 0.10779 0.33267 0.05631 0.0
C1549 C 0.12801 0.34693 0.02601 0.0
C1550 C 0.09299 0.35644 0.08681 0.0
C1551 C 0.08309 0.31871 0.1102 0.0
N1552 N 0.11866 0.34936 0.04617 0.0
N1553 N 0.0929 0.31753 0.09032 0.0
H1554 H 0.63426 0.05494 0.10519 0.0
H1555 H 0.66287 0.15676 0.03099 0.0
H1556 H 0.68337 0.10141 0.12572 0.0
H1557 H 0.66442 0.09187 0.00298 0.0
H1558 H 0.65869 0.14035 0.06757 0.0
H1559 H 0.63399 0.07212 0.06865 0.0
C1560 C 0.64476 0.06891 0.10203 0.0
C1561 C 0.65889 0.07685 0.1183 0.0
C1562 C 0.65964 0.12982 0.05331 0.0
C1563 C 0.65818 0.09668 0.07722 0.0
C1564 C 0.66184 0.1391 0.03253 0.0
C1565 C 0.66399 0.12557 0.01409 0.0
C1566 C 0.65891 0.10696 0.05544 0.0
C1567 C 0.66287 0.10278 0.0169 0.0
C1568 C 0.64464 0.07857 0.0813 0.0
C1569 C 0.67234 0.09482 0.11348 0.0
N1570 N 0.66028 0.09412 0.03725 0.0
N1571 N 0.67152 0.10433 0.09338 0.0
H1572 H 0.92525 0.62852 0.1097 0.0
H1573 H 0.89535 0.70857 0.0112 0.0
H1574 H 0.92941 0.69903 0.11345 0.0
H1575 H 0.86652 0.64411 0.01625 0.0
H1576 H 0.91277 0.70323 0.04654 0.0
H1577 H 0.90814 0.63198 0.07337 0.0
C1578 C 0.92265 0.64469 0.10284 0.0
C1579 C 0.92875 0.66353 0.11454 0.0
C1580 C 0.90264 0.69023 0.03996 0.0
C1581 C 0.90948 0.66753 0.07324 0.0
C1582 C 0.89274 0.6932 0.01968 0.0
C1583 C 0.87939 0.67676 0.0107 0.0
C1584 C 0.89945 0.67057 0.05139 0.0
C1585 C 0.87659 0.65725 0.02262 0.0
C1586 C 0.91282 0.64663 0.08223 0.0
C1587 C 0.92496 0.68408 0.10502 0.0
N1588 N 0.88663 0.65464 0.04238 0.0
N1589 N 0.91567 0.68551 0.0849 0.0
H1590 H 0.35941 0.86365 0.01799 0.0
H1591 H 0.30008 0.91664 0.12228 0.0
H1592 H 0.29061 0.87968 0.02161 0.0
H1593 H 0.36999 0.92164 0.1128 0.0
H1594 H 0.29709 0.89736 0.08755 0.0
H1595 H 0.36434 0.87945 0.05488 0.0
C1596 C 0.34537 0.87031 0.02658 0.0
C1597 C 0.32461 0.87052 0.01667 0.0
C1598 C 0.31312 0.90263 0.09302 0.0
C1599 C 0.33006 0.8883 0.05859 0.0
C1600 C 0.31485 0.91365 0.11289 0.0
C1601 C 0.33529 0.92093 0.12035 0.0
C1602 C 0.33199 0.89872 0.08044 0.0
C1603 C 0.35389 0.91641 0.10753 0.0
C1604 C 0.34821 0.87939 0.04751 0.0
C1605 C 0.30696 0.87938 0.02847 0.0
N1606 N 0.35181 0.90559 0.08811 0.0
N1607 N 0.3101 0.88785 0.04872 0.0
H1608 H 0.10137 0.66652 0.87153 0.0
H1609 H 0.08761 0.65589 0.99658 0.0
H1610 H 0.05126 0.62305 0.89586 0.0
H1611 H 0.15244 0.65236 0.96865 0.0
H1612 H 0.07208 0.64711 0.9605 0.0
H1613 H 0.11907 0.66565 0.90762 0.0
C1614 C 0.09421 0.6567 0.88448 0.0
C1615 C 0.07493 0.6448 0.88085 0.0
C1616 C 0.08971 0.64783 0.96244 0.0
C1617 C 0.09469 0.64414 0.92201 0.0
C1618 C 0.09855 0.65284 0.98292 0.0
C1619 C 0.12131 0.65478 0.9855 0.0
C1620 C 0.10371 0.64554 0.94437 0.0
C1621 C 0.13482 0.65083 0.96733 0.0
C1622 C 0.10435 0.6561 0.90493 0.0
C1623 C 0.06623 0.63231 0.89808 0.0
N1624 N 0.12579 0.64688 0.94735 0.0
N1625 N 0.07596 0.63262 0.91813 0.0
H1626 H 0.37608 0.07948 0.88549 0.0
H1627 H 0.29304 0.10914 0.9811 0.0
H1628 H 0.30572 0.07812 0.87861 0.0
H1629 H 0.35901 0.13479 0.98113 0.0
H1630 H 0.29906 0.0943 0.94482 0.0
H1631 H 0.37172 0.09696 0.92153 0.0
C1632 C 0.35975 0.08293 0.89152 0.0
C1633 C 0.34121 0.07724 0.87912 0.0
C1634 C 0.31226 0.10319 0.95267 0.0
C1635 C 0.33618 0.09695 0.92017 0.0
C1636 C 0.30891 0.11158 0.97354 0.0
C1637 C 0.32561 0.12319 0.98431 0.0
C1638 C 0.33255 0.10611 0.94235 0.0
C1639 C 0.3457 0.12596 0.97342 0.0
C1640 C 0.3573 0.09294 0.91201 0.0
C1641 C 0.32045 0.08213 0.88762 0.0
N1642 N 0.3487 0.11733 0.95301 0.0
N1643 N 0.31851 0.09153 0.90767 0.0
H1644 H 0.86018 0.36013 0.98174 0.0
H1645 H 0.93028 0.30383 0.88871 0.0
H1646 H 0.90334 0.30514 0.9932 0.0
H1647 H 0.91994 0.37377 0.88688 0.0
H1648 H 0.91479 0.30286 0.92548 0.0
H1649 H 0.87722 0.36496 0.94542 0.0
C1650 C 0.87329 0.34924 0.97678 0.0
C1651 C 0.88015 0.33208 0.99054 0.0
C1652 C 0.91596 0.31845 0.91706 0.0
C1653 C 0.89924 0.33729 0.94918 0.0
C1654 C 0.92472 0.319 0.89604 0.0
C1655 C 0.9265 0.33892 0.88481 0.0
C1656 C 0.9085 0.33789 0.92683 0.0
C1657 C 0.91896 0.35809 0.89512 0.0
C1658 C 0.88297 0.35202 0.95613 0.0
C1659 C 0.89728 0.3185 0.98324 0.0
N1660 N 0.91009 0.35712 0.91559 0.0
N1661 N 0.90598 0.32124 0.96303 0.0
H1662 H 0.63978 0.86314 0.98242 0.0
H1663 H 0.69597 0.93106 0.88642 0.0
H1664 H 0.699 0.9012 0.99012 0.0
H1665 H 0.62593 0.92142 0.88733 0.0
H1666 H 0.69832 0.91449 0.92268 0.0
H1667 H 0.6349 0.87956 0.94582 0.0
C1668 C 0.65164 0.87496 0.97655 0.0
C1669 C 0.66984 0.88072 0.98943 0.0
C1670 C 0.68241 0.916 0.91497 0.0
C1671 C 0.66457 0.8991 0.94771 0.0
C1672 C 0.68108 0.92539 0.89423 0.0
C1673 C 0.66072 0.92773 0.88393 0.0
C1674 C 0.6633 0.90857 0.92542 0.0
C1675 C 0.64194 0.92003 0.89483 0.0
C1676 C 0.64883 0.8843 0.95573 0.0
C1677 C 0.68469 0.89617 0.98094 0.0
N1678 N 0.64366 0.91067 0.91502 0.0
N1679 N 0.68182 0.9046 0.96063 0.0
H1680 H 0.1106 0.07668 0.3771 0.0
H1681 H 0.01527 0.11096 0.296 0.0
H1682 H 0.11835 0.08215 0.30701 0.0
H1683 H 0.01583 0.13581 0.36227 0.0
H1684 H 0.05138 0.09551 0.30172 0.0
H1685 H 0.07441 0.09436 0.37391 0.0
C1686 C 0.10473 0.08162 0.36111 0.0
C1687 C 0.1174 0.07778 0.34226 0.0
C1688 C 0.04368 0.10436 0.31504 0.0
C1689 C 0.07629 0.09765 0.33855 0.0
C1690 C 0.02294 0.1131 0.31186 0.0
C1691 C 0.01243 0.12471 0.32871 0.0
C1692 C 0.05411 0.1069 0.33533 0.0
C1693 C 0.0234 0.12705 0.34883 0.0
C1694 C 0.08419 0.09175 0.35933 0.0
C1695 C 0.10913 0.08461 0.32196 0.0
N1696 N 0.04368 0.11806 0.35167 0.0
N1697 N 0.08906 0.094 0.32065 0.0
H1698 H 0.92009 0.11328 0.3747 0.0
H1699 H 0.90161 0.0077 0.30123 0.0
H1700 H 0.92869 0.11174 0.30452 0.0
H1701 H 0.86159 0.01798 0.35879 0.0
H1702 H 0.91794 0.04345 0.30654 0.0
H1703 H 0.90391 0.07627 0.37294 0.0
C1704 C 0.91863 0.10516 0.35899 0.0
C1705 C 0.92579 0.11553 0.33972 0.0
C1706 C 0.90562 0.03789 0.31806 0.0
C1707 C 0.90776 0.07349 0.33772 0.0
C1708 C 0.89629 0.01737 0.31514 0.0
C1709 C 0.87996 0.00977 0.32949 0.0
C1710 C 0.89887 0.05106 0.33559 0.0
C1711 C 0.87398 0.02323 0.34723 0.0
C1712 C 0.90935 0.08417 0.35802 0.0
C1713 C 0.92345 0.1044 0.31978 0.0
N1714 N 0.88346 0.04332 0.34981 0.0
N1715 N 0.91481 0.08395 0.31933 0.0
H1716 H 0.88885 0.92766 0.30346 0.0
H1717 H 0.98352 0.86042 0.35987 0.0
H1718 H 0.88756 0.91902 0.37365 0.0
H1719 H 0.99395 0.90397 0.30498 0.0
H1720 H 0.94686 0.87665 0.36485 0.0
H1721 H 0.92581 0.91276 0.30262 0.0
C1722 C 0.89632 0.92259 0.31872 0.0
C1723 C 0.88519 0.92475 0.33868 0.0
C1724 C 0.95742 0.88268 0.35192 0.0
C1725 C 0.92749 0.90741 0.33777 0.0
C1726 C 0.97828 0.87346 0.34905 0.0
C1727 C 0.99183 0.88064 0.33184 0.0
C1728 C 0.95008 0.89877 0.33721 0.0
C1729 C 0.98416 0.89767 0.31837 0.0
C1730 C 0.91746 0.91416 0.31823 0.0
C1731 C 0.8957 0.91774 0.35794 0.0
N1732 N 0.96376 0.90589 0.32116 0.0
N1733 N 0.91632 0.90922 0.35702 0.0
H1734 H 0.10397 0.99194 0.2958 0.0
H1735 H 0.08296 0.88714 0.37079 0.0
H1736 H 0.13595 0.98384 0.3584 0.0
H1737 H 0.07427 0.88738 0.30062 0.0
H1738 H 0.09842 0.92423 0.36851 0.0
H1739 H 0.0883 0.95542 0.2995 0.0
C1740 C 0.10759 0.98257 0.31043 0.0
C1741 C 0.12138 0.991 0.3268 0.0
C1742 C 0.09315 0.91608 0.35365 0.0
C1743 C 0.10341 0.94904 0.33108 0.0
C1744 C 0.08432 0.89498 0.35493 0.0
C1745 C 0.07731 0.8842 0.33586 0.0
C1746 C 0.09462 0.92653 0.33321 0.0
C1747 C 0.07945 0.89507 0.31573 0.0
C1748 C 0.09873 0.96164 0.31244 0.0
C1749 C 0.1255 0.97797 0.34533 0.0
N1750 N 0.08778 0.91568 0.31495 0.0
N1751 N 0.1165 0.95762 0.347 0.0
H1752 H 0.01776 0.86258 0.647 0.0
H1753 H 0.11544 0.92936 0.70273 0.0
H1754 H 0.01374 0.89258 0.711 0.0
H1755 H 0.11065 0.92211 0.63256 0.0
H1756 H 0.0798 0.91155 0.70659 0.0
H1757 H 0.05363 0.8803 0.6417 0.0
C1758 C 0.02435 0.87286 0.65988 0.0
C1759 C 0.01266 0.87612 0.67943 0.0
C1760 C 0.08652 0.9139 0.69033 0.0
C1761 C 0.05355 0.89608 0.67361 0.0
C1762 C 0.10687 0.92401 0.68814 0.0
C1763 C 0.11593 0.92727 0.66731 0.0
C1764 C 0.07525 0.90672 0.67158 0.0
C1765 C 0.10413 0.92 0.64893 0.0
C1766 C 0.04474 0.88298 0.65683 0.0
C1767 C 0.022 0.88964 0.69558 0.0
N1768 N 0.0844 0.90994 0.65148 0.0
N1769 N 0.04187 0.89897 0.69235 0.0
H1770 H 0.11498 0.01695 0.70905 0.0
H1771 H 0.07836 0.11195 0.62745 0.0
H1772 H 0.13685 0.01776 0.64172 0.0
H1773 H 0.07751 0.11718 0.69797 0.0
H1774 H 0.09709 0.07637 0.63085 0.0
H1775 H 0.09796 0.05237 0.70372 0.0
C1776 C 0.11618 0.02454 0.69305 0.0
C1777 C 0.12739 0.01425 0.67579 0.0
C1778 C 0.09285 0.08543 0.64551 0.0
C1779 C 0.10776 0.05523 0.66959 0.0
C1780 C 0.08214 0.10565 0.6436 0.0
C1781 C 0.07627 0.11746 0.66247 0.0
C1782 C 0.09742 0.07698 0.66642 0.0
C1783 C 0.0816 0.10863 0.68298 0.0
C1784 C 0.1065 0.04491 0.69006 0.0
C1785 C 0.12843 0.02512 0.6555 0.0
N1786 N 0.09173 0.08892 0.68439 0.0
N1787 N 0.11862 0.04504 0.6529 0.0
H1788 H 0.99017 0.09853 0.69958 0.0
H1789 H 0.88583 0.07686 0.62549 0.0
H1790 H 0.98057 0.13547 0.63993 0.0
H1791 H 0.88559 0.07069 0.69592 0.0
H1792 H 0.92251 0.09346 0.62753 0.0
H1793 H 0.95417 0.08238 0.69506 0.0
C1794 C 0.98062 0.10316 0.68536 0.0
C1795 C 0.9885 0.11856 0.67015 0.0
C1796 C 0.91431 0.08852 0.64247 0.0
C1797 C 0.94694 0.0999 0.66499 0.0
C1798 C 0.89348 0.079 0.64136 0.0
C1799 C 0.88271 0.07237 0.66059 0.0
C1800 C 0.92452 0.0909 0.66292 0.0
C1801 C 0.89327 0.07558 0.6807 0.0
C1802 C 0.95994 0.09398 0.68293 0.0
C1803 C 0.97515 0.12377 0.65211 0.0
N1804 N 0.91367 0.08442 0.68132 0.0
N1805 N 0.95496 0.11441 0.64999 0.0
H1806 H 0.92224 0.88512 0.63468 0.0
H1807 H 0.89262 0.98827 0.70902 0.0
H1808 H 0.92765 0.88548 0.70517 0.0
H1809 H 0.86518 0.97978 0.64433 0.0
H1810 H 0.90989 0.95251 0.70602 0.0
H1811 H 0.90518 0.92151 0.63626 0.0
C1812 C 0.91986 0.89286 0.65047 0.0
C1813 C 0.92636 0.88231 0.66984 0.0
C1814 C 0.9001 0.95845 0.69247 0.0
C1815 C 0.90712 0.92384 0.67171 0.0
C1816 C 0.8903 0.97896 0.69408 0.0
C1817 C 0.87734 0.9871 0.67689 0.0
C1818 C 0.8972 0.94592 0.67344 0.0
C1819 C 0.87495 0.97414 0.65802 0.0
C1820 C 0.91008 0.91356 0.65135 0.0
C1821 C 0.92286 0.89301 0.68985 0.0
N1822 N 0.88484 0.95416 0.65676 0.0
N1823 N 0.91359 0.91324 0.69025 0.0
H1824 H 0.29225 0.0067 0.10343 0.0
H1825 H 0.3683 0.10965 0.07752 0.0
H1826 H 0.35476 0.01578 0.13536 0.0
H1827 H 0.29819 0.10927 0.06841 0.0
H1828 H 0.36583 0.07314 0.09429 0.0
H1829 H 0.29665 0.042 0.08554 0.0
C1830 C 0.30702 0.01602 0.10661 0.0
C1831 C 0.32314 0.00822 0.12106 0.0
C1832 C 0.35104 0.08111 0.0886 0.0
C1833 C 0.3282 0.04887 0.10047 0.0
C1834 C 0.35242 0.10186 0.07899 0.0
C1835 C 0.3334 0.11247 0.0716 0.0
C1836 C 0.33054 0.07084 0.09047 0.0
C1837 C 0.31324 0.10171 0.07392 0.0
C1838 C 0.30943 0.03627 0.09643 0.0
C1839 C 0.34187 0.02118 0.12446 0.0
N1840 N 0.31236 0.08145 0.08306 0.0
N1841 N 0.34391 0.0409 0.11421 0.0
H1842 H 0.36318 0.98405 0.86503 0.0
H1843 H 0.30193 0.8915 0.9332 0.0
H1844 H 0.29995 0.99315 0.8956 0.0
H1845 H 0.37221 0.89116 0.92548 0.0
H1846 H 0.30066 0.92785 0.91666 0.0
H1847 H 0.36686 0.94902 0.88457 0.0
C1848 C 0.35016 0.9788 0.87589 0.0
C1849 C 0.33118 0.99157 0.87854 0.0
C1850 C 0.3164 0.91991 0.9187 0.0
C1851 C 0.33521 0.95157 0.90066 0.0
C1852 C 0.31712 0.89913 0.92808 0.0
C1853 C 0.3372 0.88834 0.9307 0.0
C1854 C 0.33587 0.92988 0.91153 0.0
C1855 C 0.35639 0.899 0.9238 0.0
C1856 C 0.3523 0.95886 0.88706 0.0
C1857 C 0.31487 0.98395 0.89292 0.0
N1858 N 0.35525 0.91916 0.91431 0.0
N1859 N 0.31719 0.96441 0.90323 0.0
H1860 H 0.01615 0.36006 0.86367 0.0
H1861 H 0.1143 0.30268 0.92797 0.0
H1862 H 0.01335 0.29479 0.89094 0.0
H1863 H 0.10917 0.37312 0.92422 0.0
H1864 H 0.07895 0.29945 0.90988 0.0
H1865 H 0.05199 0.36526 0.88152 0.0
C1866 C 0.02303 0.34686 0.87333 0.0
C1867 C 0.01169 0.32699 0.87585 0.0
C1868 C 0.08548 0.31565 0.91305 0.0
C1869 C 0.05246 0.33274 0.89599 0.0
C1870 C 0.1057 0.3175 0.92337 0.0
C1871 C 0.11461 0.3382 0.9277 0.0
C1872 C 0.07411 0.33462 0.90675 0.0
C1873 C 0.10274 0.35685 0.92128 0.0
C1874 C 0.04338 0.34988 0.88356 0.0
C1875 C 0.02134 0.31045 0.88861 0.0
N1876 N 0.08306 0.35464 0.91099 0.0
N1877 N 0.04114 0.31368 0.89806 0.0
H1878 H 0.6939 0.11758 0.92784 0.0
H1879 H 0.63629 0.0192 0.86515 0.0
H1880 H 0.62335 0.11373 0.92456 0.0
H1881 H 0.69999 0.01508 0.89574 0.0
H1882 H 0.63092 0.05517 0.8827 0.0
H1883 H 0.69638 0.08153 0.91123 0.0
C1884 C 0.67888 0.10913 0.92365 0.0
C1885 C 0.65838 0.11862 0.92775 0.0
C1886 C 0.64595 0.0462 0.8856 0.0
C1887 C 0.66113 0.07719 0.90847 0.0
C1888 C 0.64906 0.02575 0.87558 0.0
C1889 C 0.66866 0.01408 0.87889 0.0
C1890 C 0.66271 0.05508 0.89863 0.0
C1891 C 0.68461 0.02335 0.89264 0.0
C1892 C 0.68032 0.08847 0.9142 0.0
C1893 C 0.63948 0.1069 0.92178 0.0
N1894 N 0.68135 0.04329 0.90179 0.0
N1895 N 0.64129 0.08673 0.9123 0.0
H1896 H 0.99274 0.69974 0.89498 0.0
H1897 H 0.88761 0.62762 0.92243 0.0
H1898 H 0.98225 0.63651 0.86495 0.0
H1899 H 0.88836 0.69824 0.92627 0.0
H1900 H 0.92436 0.62863 0.90601 0.0
H1901 H 0.95657 0.69735 0.91178 0.0
C1902 C 0.9829 0.68527 0.89202 0.0
C1903 C 0.99053 0.66831 0.87847 0.0
C1904 C 0.91639 0.64386 0.91044 0.0
C1905 C 0.94909 0.6655 0.89776 0.0
C1906 C 0.89551 0.64331 0.91984 0.0
C1907 C 0.88496 0.66289 0.92571 0.0
C1908 C 0.92686 0.6641 0.9073 0.0
C1909 C 0.89587 0.68277 0.92198 0.0
C1910 C 0.9622 0.68399 0.90153 0.0
C1911 C 0.97696 0.65001 0.87518 0.0
N1912 N 0.91628 0.68285 0.91315 0.0
N1913 N 0.95688 0.64903 0.88484 0.0
H1914 H 0.70284 0.99272 0.10305 0.0
H1915 H 0.62794 0.88848 0.08193 0.0
H1916 H 0.64282 0.98365 0.13952 0.0
H1917 H 0.69816 0.88894 0.07354 0.0
H1918 H 0.63023 0.92513 0.09868 0.0
H1919 H 0.69816 0.95672 0.08691 0.0
C1920 C 0.68854 0.98324 0.1076 0.0
C1921 C 0.67322 0.99128 0.12279 0.0
C1922 C 0.64507 0.91708 0.09319 0.0
C1923 C 0.66784 0.94975 0.10418 0.0
C1924 C 0.64379 0.89628 0.0836 0.0
C1925 C 0.66289 0.88572 0.07627 0.0
C1926 C 0.66553 0.92742 0.09502 0.0
C1927 C 0.68302 0.89646 0.07889 0.0
C1928 C 0.68598 0.96257 0.09843 0.0
C1929 C 0.65509 0.97805 0.12799 0.0
N1930 N 0.68377 0.91676 0.08788 0.0
N1931 N 0.65284 0.95788 0.11863 0.0
H1932 H 0.01952 0.64214 0.13893 0.0
H1933 H 0.11433 0.69974 0.06879 0.0
H1934 H 0.01603 0.70745 0.11185 0.0
H1935 H 0.11388 0.63004 0.08081 0.0
H1936 H 0.07964 0.70299 0.08808 0.0
H1937 H 0.05549 0.63744 0.12117 0.0
C1938 C 0.02629 0.65547 0.12936 0.0
C1939 C 0.01465 0.67517 0.12681 0.0
C1940 C 0.08704 0.68693 0.08652 0.0
C1941 C 0.0556 0.66995 0.10666 0.0
C1942 C 0.10691 0.68508 0.07549 0.0
C1943 C 0.11696 0.66458 0.07309 0.0
C1944 C 0.07707 0.66817 0.09539 0.0
C1945 C 0.10659 0.64615 0.08222 0.0
C1946 C 0.04674 0.65274 0.11918 0.0
C1947 C 0.02421 0.69188 0.11419 0.0
N1948 N 0.08716 0.64837 0.09302 0.0
N1949 N 0.04403 0.68889 0.10468 0.0
H1950 H 0.98285 0.36047 0.13753 0.0
H1951 H 0.88598 0.30178 0.07341 0.0
H1952 H 0.99019 0.29952 0.10222 0.0
H1953 H 0.88677 0.37206 0.0814 0.0
H1954 H 0.92266 0.29995 0.089 0.0
H1955 H 0.94618 0.3647 0.12132 0.0
C1956 C 0.97687 0.34809 0.12632 0.0
C1957 C 0.98965 0.32959 0.1213 0.0
C1958 C 0.91484 0.31579 0.08731 0.0
C1959 C 0.94781 0.33416 0.10313 0.0
C1960 C 0.89386 0.31684 0.07849 0.0
C1961 C 0.88338 0.33712 0.07598 0.0
C1962 C 0.92538 0.33511 0.09401 0.0
C1963 C 0.89437 0.35611 0.08296 0.0
C1964 C 0.956 0.35053 0.11709 0.0
C1965 C 0.98105 0.31408 0.10662 0.0
N1966 N 0.91481 0.35466 0.09178 0.0
N1967 N 0.96065 0.31662 0.09826 0.0
H1968 H 0.63633 0.85878 0.51276 0.0
H1969 H 0.57083 0.80239 0.60987 0.0
H1970 H 0.60089 0.79779 0.50634 0.0
H1971 H 0.5773 0.87278 0.60734 0.0
H1972 H 0.58677 0.79995 0.57338 0.0
H1973 H 0.61908 0.86416 0.5489 0.0
C1974 C 0.6249 0.84663 0.51882 0.0
C1975 C 0.62013 0.82779 0.50646 0.0
C1976 C 0.58463 0.81596 0.58074 0.0
C1977 C 0.60079 0.83368 0.54763 0.0
C1978 C 0.57558 0.81736 0.6016 0.0
C1979 C 0.57264 0.83782 0.61157 0.0
C1980 C 0.59114 0.83513 0.56981 0.0
C1981 C 0.57918 0.85669 0.6001 0.0
C1982 C 0.61506 0.84974 0.53936 0.0
C1983 C 0.60514 0.8126 0.51513 0.0
N1984 N 0.5883 0.85491 0.5798 0.0
N1985 N 0.59622 0.81579 0.53519 0.0
H1986 H 0.13009 0.57376 0.60655 0.0
H1987 H 0.21368 0.61958 0.51752 0.0
H1988 H 0.19988 0.57845 0.61685 0.0
H1989 H 0.14428 0.63272 0.51381 0.0
H1990 H 0.20835 0.60274 0.55315 0.0
H1991 H 0.13434 0.5934 0.57175 0.0
C1992 C 0.1463 0.57889 0.60147 0.0
C1993 C 0.1647 0.5744 0.61453 0.0
C1994 C 0.19425 0.60936 0.54467 0.0
C1995 C 0.16962 0.59681 0.57487 0.0
C1996 C 0.19725 0.61893 0.52423 0.0
C1997 C 0.17935 0.62744 0.51257 0.0
C1998 C 0.17313 0.60796 0.55358 0.0
C1999 C 0.15851 0.62637 0.52226 0.0
C2000 C 0.14868 0.59019 0.58169 0.0
C2001 C 0.18528 0.58151 0.60726 0.0
N2002 N 0.15592 0.61657 0.54218 0.0
N2003 N 0.18719 0.59225 0.58788 0.0
H2004 H 0.36512 0.14144 0.51603 0.0
H2005 H 0.42465 0.20434 0.61409 0.0
H2006 H 0.38787 0.20833 0.5116 0.0
H2007 H 0.42115 0.13378 0.61077 0.0
H2008 H 0.40762 0.20648 0.57794 0.0
H2009 H 0.38227 0.13859 0.55225 0.0
C2010 C 0.37371 0.1555 0.52263 0.0
C2011 C 0.37507 0.17514 0.51071 0.0
C2012 C 0.41061 0.19052 0.5851 0.0
C2013 C 0.3945 0.17203 0.55212 0.0
C2014 C 0.42027 0.1893 0.60576 0.0
C2015 C 0.42436 0.16885 0.61539 0.0
C2016 C 0.40476 0.17117 0.57409 0.0
C2017 C 0.41834 0.14987 0.60386 0.0
C2018 C 0.38353 0.15383 0.54325 0.0
C2019 C 0.38646 0.19281 0.52009 0.0
N2020 N 0.40875 0.15148 0.58383 0.0
N2021 N 0.39561 0.19087 0.54025 0.0
H2022 H 0.85683 0.36408 0.51856 0.0
H2023 H 0.79832 0.42719 0.61742 0.0
H2024 H 0.79091 0.38979 0.51609 0.0
H2025 H 0.8686 0.42057 0.61337 0.0
H2026 H 0.79501 0.40944 0.58175 0.0
H2027 H 0.86134 0.38105 0.55484 0.0
C2028 C 0.84335 0.37326 0.52557 0.0
C2029 C 0.82349 0.37553 0.51418 0.0
C2030 C 0.81118 0.41187 0.58864 0.0
C2031 C 0.82846 0.39468 0.55558 0.0
C2032 C 0.81306 0.42195 0.60904 0.0
C2033 C 0.83376 0.42542 0.6183 0.0
C2034 C 0.83013 0.405 0.57749 0.0
C2035 C 0.85233 0.41827 0.60672 0.0
C2036 C 0.84595 0.38296 0.54622 0.0
C2037 C 0.80658 0.38764 0.5241 0.0
N2038 N 0.85009 0.40833 0.58689 0.0
N2039 N 0.80943 0.39663 0.54419 0.0
H2040 H 0.57454 0.2023 0.38679 0.0
H2041 H 0.63734 0.14095 0.48343 0.0
H2042 H 0.57935 0.13176 0.38853 0.0
H2043 H 0.60992 0.20605 0.4886 0.0
H2044 H 0.61975 0.13713 0.44734 0.0
H2045 H 0.59151 0.20404 0.42281 0.0
C2046 C 0.57915 0.18715 0.39478 0.0
C2047 C 0.57545 0.16685 0.38471 0.0
C2048 C 0.61758 0.15215 0.45654 0.0
C2049 C 0.59509 0.16871 0.426 0.0
C2050 C 0.62764 0.15438 0.47706 0.0
C2051 C 0.62517 0.17386 0.4891 0.0
C2052 C 0.60531 0.16965 0.44797 0.0
C2053 C 0.61234 0.19069 0.48005 0.0
C2054 C 0.58881 0.18814 0.41539 0.0
C2055 C 0.58185 0.14774 0.39583 0.0
N2056 N 0.60306 0.18823 0.46005 0.0
N2057 N 0.59149 0.14912 0.4159 0.0
H2058 H 0.8048 0.58317 0.38026 0.0
H2059 H 0.86454 0.63764 0.48291 0.0
H2060 H 0.87491 0.57781 0.38787 0.0
H2061 H 0.79745 0.61512 0.48229 0.0
H2062 H 0.86953 0.62154 0.44608 0.0
H2063 H 0.80265 0.60147 0.41551 0.0
C2064 C 0.8198 0.58587 0.38935 0.0
C2065 C 0.84004 0.57873 0.38122 0.0
C2066 C 0.8538 0.62018 0.45418 0.0
C2067 C 0.83768 0.59986 0.42176 0.0
C2068 C 0.85092 0.6294 0.47508 0.0
C2069 C 0.83059 0.62763 0.48576 0.0
C2070 C 0.83608 0.60965 0.44391 0.0
C2071 C 0.81349 0.61675 0.47488 0.0
C2072 C 0.81855 0.59631 0.40953 0.0
C2073 C 0.85895 0.58292 0.39368 0.0
N2074 N 0.8166 0.60833 0.45462 0.0
N2075 N 0.85734 0.59324 0.41345 0.0
H2076 H 0.40349 0.80156 0.4956 0.0
H2077 H 0.42134 0.87455 0.38931 0.0
H2078 H 0.36524 0.86026 0.48522 0.0
H2079 H 0.42937 0.80429 0.39047 0.0
H2080 H 0.40668 0.873 0.42685 0.0
H2081 H 0.41992 0.8063 0.45968 0.0
C2082 C 0.39867 0.81563 0.48591 0.0
C2083 C 0.38274 0.83045 0.49347 0.0
C2084 C 0.41169 0.858 0.4188 0.0
C2085 C 0.40169 0.83587 0.45211 0.0
C2086 C 0.4201 0.85884 0.39749 0.0
C2087 C 0.42655 0.8395 0.38683 0.0
C2088 C 0.41025 0.83773 0.42955 0.0
C2089 C 0.42455 0.81958 0.39806 0.0
C2090 C 0.40802 0.81821 0.46531 0.0
C2091 C 0.37732 0.84836 0.48002 0.0
N2092 N 0.41672 0.81923 0.41886 0.0
N2093 N 0.38677 0.85057 0.45991 0.0
H2094 H 0.20283 0.42275 0.38549 0.0
H2095 H 0.14424 0.36159 0.48516 0.0
H2096 H 0.13239 0.41984 0.39092 0.0
H2097 H 0.21078 0.38574 0.4866 0.0
H2098 H 0.13932 0.37933 0.44927 0.0
H2099 H 0.20594 0.40534 0.42124 0.0
C2100 C 0.18799 0.41846 0.39423 0.0
C2101 C 0.16733 0.42281 0.38528 0.0
C2102 C 0.15492 0.38073 0.4576 0.0
C2103 C 0.17075 0.40269 0.42625 0.0
C2104 C 0.15777 0.37058 0.478 0.0
C2105 C 0.17794 0.37216 0.48897 0.0
C2106 C 0.17248 0.3922 0.44806 0.0
C2107 C 0.19488 0.38409 0.47892 0.0
C2108 C 0.18977 0.40855 0.41469 0.0
C2109 C 0.14864 0.41684 0.39734 0.0
N2110 N 0.19179 0.3935 0.45907 0.0
N2111 N 0.15078 0.40696 0.41723 0.0
H2112 H 0.61058 0.58184 0.872 0.0
H2113 H 0.50714 0.60248 0.79581 0.0
H2114 H 0.61146 0.57267 0.8019 0.0
H2115 H 0.51582 0.63798 0.85647 0.0
H2116 H 0.54295 0.58589 0.80071 0.0
H2117 H 0.57367 0.59752 0.86909 0.0
C2118 C 0.60298 0.5831 0.85601 0.0
C2119 C 0.61404 0.57599 0.83712 0.0
C2120 C 0.53701 0.59727 0.81297 0.0
C2121 C 0.57195 0.59358 0.8338 0.0
C2122 C 0.51646 0.60669 0.81031 0.0
C2123 C 0.50841 0.62181 0.82572 0.0
C2124 C 0.54966 0.60271 0.83131 0.0
C2125 C 0.52139 0.62652 0.84413 0.0
C2126 C 0.58201 0.59209 0.85439 0.0
C2127 C 0.60353 0.57802 0.81683 0.0
N2128 N 0.54144 0.61696 0.84644 0.0
N2129 N 0.583 0.5865 0.81572 0.0
H2130 H 0.42346 0.61808 0.79841 0.0
H2131 H 0.36404 0.51923 0.85948 0.0
H2132 H 0.41936 0.61506 0.86894 0.0
H2133 H 0.39074 0.51477 0.79405 0.0
H2134 H 0.38095 0.55554 0.86327 0.0
H2135 H 0.40753 0.58151 0.79628 0.0
C2136 C 0.41916 0.60974 0.81347 0.0
C2137 C 0.42282 0.61958 0.83389 0.0
C2138 C 0.38317 0.54647 0.84818 0.0
C2139 C 0.40446 0.5777 0.83157 0.0
C2140 C 0.37352 0.52578 0.84598 0.0
C2141 C 0.3759 0.51391 0.8264 0.0
C2142 C 0.39495 0.55542 0.83055 0.0
C2143 C 0.38843 0.52322 0.80948 0.0
C2144 C 0.41015 0.58882 0.81225 0.0
C2145 C 0.41686 0.608 0.85287 0.0
N2146 N 0.39729 0.54345 0.81189 0.0
N2147 N 0.40788 0.58765 0.85126 0.0
H2148 H 0.37874 0.42536 0.80089 0.0
H2149 H 0.47992 0.36541 0.85891 0.0
H2150 H 0.38603 0.42325 0.87118 0.0
H2151 H 0.47953 0.3867 0.79144 0.0
H2152 H 0.44344 0.38192 0.86369 0.0
H2153 H 0.41371 0.40637 0.79705 0.0
C2154 C 0.38768 0.42085 0.81553 0.0
C2155 C 0.37955 0.42599 0.83637 0.0
C2156 C 0.45142 0.3829 0.84787 0.0
C2157 C 0.41958 0.40414 0.83213 0.0
C2158 C 0.47216 0.37343 0.84512 0.0
C2159 C 0.48287 0.3748 0.8248 0.0
C2160 C 0.4413 0.39346 0.83008 0.0
C2161 C 0.47206 0.38541 0.80747 0.0
C2162 C 0.40768 0.41004 0.81334 0.0
C2163 C 0.39182 0.41969 0.85479 0.0
N2164 N 0.45192 0.39426 0.81051 0.0
N2165 N 0.41126 0.40905 0.85226 0.0
H2166 H 0.57091 0.38954 0.80103 0.0
H2167 H 0.63456 0.48724 0.86043 0.0
H2168 H 0.57324 0.39486 0.87151 0.0
H2169 H 0.61203 0.48899 0.79336 0.0
H2170 H 0.6158 0.4518 0.8651 0.0
H2171 H 0.58974 0.42457 0.7981 0.0
C2172 C 0.57533 0.39814 0.81591 0.0
C2173 C 0.57043 0.38936 0.83653 0.0
C2174 C 0.615 0.46008 0.84943 0.0
C2175 C 0.59221 0.42947 0.83332 0.0
C2176 C 0.62575 0.4802 0.84673 0.0
C2177 C 0.62482 0.49116 0.82651 0.0
C2178 C 0.60359 0.45083 0.83168 0.0
C2179 C 0.61312 0.48131 0.80931 0.0
C2180 C 0.58607 0.41817 0.81424 0.0
C2181 C 0.57662 0.40119 0.85528 0.0
N2182 N 0.60309 0.46175 0.81228 0.0
N2183 N 0.58731 0.42067 0.85325 0.0
H2184 H 0.49944 0.41042 0.15629 0.0
H2185 H 0.62267 0.4024 0.18622 0.0
H2186 H 0.52887 0.34667 0.16412 0.0
H2187 H 0.60371 0.44527 0.13335 0.0
H2188 H 0.58673 0.38435 0.18388 0.0
H2189 H 0.53619 0.42645 0.15231 0.0
C2190 C 0.51366 0.3998 0.15674 0.0
C2191 C 0.51127 0.37723 0.16031 0.0
C2192 C 0.59057 0.39764 0.17275 0.0
C2193 C 0.55299 0.39545 0.15673 0.0
C2194 C 0.6109 0.40802 0.17419 0.0
C2195 C 0.61603 0.42527 0.15994 0.0
C2196 C 0.57513 0.40508 0.15744 0.0
C2197 C 0.60032 0.43193 0.14455 0.0
C2198 C 0.53451 0.40892 0.15452 0.0
C2199 C 0.53012 0.36412 0.16108 0.0
N2200 N 0.58037 0.42202 0.1439 0.0
N2201 N 0.55029 0.37349 0.15977 0.0
H2202 H 0.60804 0.51213 0.20775 0.0
H2203 H 0.58298 0.61426 0.13096 0.0
H2204 H 0.63824 0.51813 0.14401 0.0
H2205 H 0.57714 0.61559 0.20142 0.0
H2206 H 0.59988 0.57777 0.13353 0.0
H2207 H 0.59268 0.54855 0.20363 0.0
C2208 C 0.61139 0.52105 0.19277 0.0
C2209 C 0.62448 0.51196 0.17616 0.0
C2210 C 0.59497 0.58616 0.14837 0.0
C2211 C 0.6068 0.55399 0.17141 0.0
C2212 C 0.58528 0.6069 0.14694 0.0
C2213 C 0.57858 0.61791 0.16602 0.0
C2214 C 0.59762 0.57633 0.16899 0.0
C2215 C 0.58199 0.6077 0.1863 0.0
C2216 C 0.60268 0.54196 0.19052 0.0
C2217 C 0.6283 0.52451 0.15724 0.0
N2218 N 0.59112 0.58745 0.18722 0.0
N2219 N 0.61938 0.54492 0.1553 0.0
H2220 H 0.49356 0.60103 0.20194 0.0
H2221 H 0.38794 0.58303 0.12836 0.0
H2222 H 0.48393 0.63956 0.1433 0.0
H2223 H 0.38941 0.57328 0.19837 0.0
H2224 H 0.4249 0.59907 0.13031 0.0
H2225 H 0.45755 0.58514 0.19713 0.0
C2226 C 0.484 0.60609 0.18788 0.0
C2227 C 0.49188 0.62187 0.17305 0.0
C2228 C 0.41701 0.59345 0.14518 0.0
C2229 C 0.45024 0.60348 0.16755 0.0
C2230 C 0.39602 0.58426 0.14411 0.0
C2231 C 0.38565 0.57677 0.16325 0.0
C2232 C 0.42774 0.59471 0.16547 0.0
C2233 C 0.39678 0.5788 0.18322 0.0
C2234 C 0.4633 0.59703 0.18526 0.0
C2235 C 0.4785 0.62757 0.15519 0.0
N2236 N 0.41725 0.58741 0.18377 0.0
N2237 N 0.45826 0.61835 0.1529 0.0
H2238 H 0.42078 0.38798 0.12281 0.0
H2239 H 0.39755 0.4897 0.20039 0.0
H2240 H 0.42519 0.38656 0.19338 0.0
H2241 H 0.36356 0.48437 0.13851 0.0
H2242 H 0.41312 0.45379 0.19469 0.0
H2243 H 0.40417 0.4248 0.12521 0.0
C2244 C 0.41826 0.39537 0.13874 0.0
C2245 C 0.42452 0.38428 0.15793 0.0
C2246 C 0.40229 0.46041 0.18228 0.0
C2247 C 0.40587 0.42607 0.1607 0.0
C2248 C 0.39344 0.48109 0.18543 0.0
C2249 C 0.3791 0.49021 0.16991 0.0
C2250 C 0.39709 0.44853 0.16336 0.0
C2251 C 0.37445 0.47795 0.15095 0.0
C2252 C 0.40874 0.41626 0.14008 0.0
C2253 C 0.4208 0.3945 0.17815 0.0
N2254 N 0.38349 0.45766 0.14814 0.0
N2255 N 0.41189 0.41481 0.17896 0.0
H2256 H 0.85965 0.51849 0.63776 0.0
H2257 H 0.80431 0.61307 0.56811 0.0
H2258 H 0.79934 0.5107 0.6015 0.0
H2259 H 0.87419 0.6125 0.57884 0.0
H2260 H 0.80186 0.57662 0.58393 0.0
H2261 H 0.86537 0.55391 0.61937 0.0
C2262 C 0.84772 0.52409 0.62588 0.0
C2263 C 0.82888 0.51163 0.62135 0.0
C2264 C 0.81778 0.58437 0.58274 0.0
C2265 C 0.83524 0.55201 0.60058 0.0
C2266 C 0.81918 0.60525 0.57376 0.0
C2267 C 0.8395 0.61579 0.5721 0.0
C2268 C 0.83678 0.574 0.59049 0.0
C2269 C 0.85823 0.60484 0.57976 0.0
C2270 C 0.85103 0.54424 0.61539 0.0
C2271 C 0.81404 0.51968 0.60572 0.0
N2272 N 0.85641 0.58451 0.58883 0.0
N2273 N 0.81744 0.53939 0.59611 0.0
H2274 H 0.8581 0.48443 0.3653 0.0
H2275 H 0.79759 0.38827 0.43013 0.0
H2276 H 0.79426 0.49158 0.39505 0.0
H2277 H 0.86785 0.39018 0.42238 0.0
H2278 H 0.79523 0.42462 0.41331 0.0
H2279 H 0.86136 0.44819 0.38249 0.0
C2280 C 0.84483 0.47845 0.37547 0.0
C2281 C 0.82591 0.49113 0.37876 0.0
C2282 C 0.81117 0.41709 0.41534 0.0
C2283 C 0.82941 0.4497 0.39814 0.0
C2284 C 0.8125 0.39634 0.42485 0.0
C2285 C 0.83294 0.38627 0.42768 0.0
C2286 C 0.83038 0.42769 0.40832 0.0
C2287 C 0.85177 0.39744 0.42057 0.0
C2288 C 0.84672 0.45781 0.38528 0.0
C2289 C 0.80922 0.48252 0.39212 0.0
N2290 N 0.85004 0.41753 0.4111 0.0
N2291 N 0.81131 0.46233 0.40116 0.0
H2292 H 0.51649 0.85804 0.3596 0.0
H2293 H 0.615 0.79834 0.4212 0.0
H2294 H 0.51194 0.7942 0.38988 0.0
H2295 H 0.61269 0.86881 0.41548 0.0
H2296 H 0.57892 0.79613 0.40441 0.0
H2297 H 0.55349 0.86207 0.37522 0.0
C2298 C 0.52321 0.84492 0.36947 0.0
C2299 C 0.51105 0.82577 0.37345 0.0
C2300 C 0.58627 0.81211 0.40682 0.0
C2301 C 0.55316 0.83018 0.391 0.0
C2302 C 0.60691 0.81338 0.41636 0.0
C2303 C 0.61678 0.8338 0.41987 0.0
C2304 C 0.57543 0.83138 0.40047 0.0
C2305 C 0.60555 0.85274 0.41316 0.0
C2306 C 0.54424 0.84726 0.3784 0.0
C2307 C 0.52056 0.80931 0.38641 0.0
N2308 N 0.58541 0.85109 0.4037 0.0
N2309 N 0.54102 0.81185 0.39458 0.0
H2310 H 0.20332 0.61152 0.4272 0.0
H2311 H 0.14472 0.5142 0.36269 0.0
H2312 H 0.13294 0.60862 0.42109 0.0
H2313 H 0.20934 0.50992 0.39127 0.0
H2314 H 0.14007 0.55024 0.38029 0.0
H2315 H 0.20597 0.57559 0.4101 0.0
C2316 C 0.1884 0.60328 0.42229 0.0
C2317 C 0.16789 0.61301 0.42562 0.0
C2318 C 0.15518 0.54125 0.38269 0.0
C2319 C 0.17079 0.57185 0.4058 0.0
C2320 C 0.15788 0.52078 0.37261 0.0
C2321 C 0.17744 0.50897 0.37549 0.0
C2322 C 0.17229 0.55 0.39538 0.0
C2323 C 0.19392 0.51827 0.38859 0.0
C2324 C 0.18991 0.58273 0.41255 0.0
C2325 C 0.14908 0.60158 0.41889 0.0
N2326 N 0.191 0.5382 0.3979 0.0
N2327 N 0.15097 0.58158 0.40915 0.0
H2328 H 0.48465 0.20997 0.38731 0.0
H2329 H 0.39164 0.12614 0.42293 0.0
H2330 H 0.48527 0.14281 0.36499 0.0
H2331 H 0.3829 0.19631 0.42201 0.0
H2332 H 0.42723 0.13077 0.40473 0.0
H2333 H 0.44877 0.20407 0.40337 0.0
C2334 C 0.47727 0.19389 0.38583 0.0
C2335 C 0.48809 0.1768 0.37484 0.0
C2336 C 0.41744 0.1451 0.40844 0.0
C2337 C 0.44672 0.16997 0.39336 0.0
C2338 C 0.39721 0.14251 0.4189 0.0
C2339 C 0.38437 0.1609 0.42404 0.0
C2340 C 0.42494 0.16625 0.40343 0.0
C2341 C 0.39227 0.1817 0.41838 0.0
C2342 C 0.45666 0.1906 0.39493 0.0
C2343 C 0.4775 0.15643 0.37329 0.0
N2344 N 0.4121 0.18381 0.40852 0.0
N2345 N 0.4574 0.1535 0.38263 0.0
H2346 H 0.14525 0.482 0.63571 0.0
H2347 H 0.20601 0.38313 0.57457 0.0
H2348 H 0.21243 0.48535 0.61367 0.0
H2349 H 0.13566 0.38819 0.57949 0.0
H2350 H 0.20932 0.41908 0.59222 0.0
H2351 H 0.142 0.44586 0.61852 0.0
C2352 C 0.15931 0.47516 0.62731 0.0
C2353 C 0.17911 0.4868 0.62609 0.0
C2354 C 0.19317 0.41231 0.5894 0.0
C2355 C 0.17554 0.44543 0.60653 0.0
C2356 C 0.19129 0.3918 0.57938 0.0
C2357 C 0.17054 0.38272 0.57555 0.0
C2358 C 0.17417 0.42366 0.59584 0.0
C2359 C 0.15198 0.39464 0.58208 0.0
C2360 C 0.15742 0.45457 0.61744 0.0
C2361 C 0.19679 0.47708 0.61494 0.0
N2362 N 0.15423 0.41445 0.59198 0.0
N2363 N 0.1946 0.45697 0.60567 0.0
H2364 H 0.61586 0.20019 0.57319 0.0
H2365 H 0.5156 0.14485 0.63613 0.0
H2366 H 0.61 0.13 0.57956 0.0
H2367 H 0.51281 0.20906 0.60645 0.0
H2368 H 0.5519 0.13945 0.6195 0.0
H2369 H 0.57968 0.20431 0.58979 0.0
C2370 C 0.60696 0.18565 0.57811 0.0
C2371 C 0.61586 0.16473 0.57494 0.0
C2372 C 0.5432 0.15464 0.61662 0.0
C2373 C 0.57456 0.1693 0.59408 0.0
C2374 C 0.52255 0.15775 0.62612 0.0
C2375 C 0.5111 0.17741 0.62266 0.0
C2376 C 0.55252 0.17146 0.60394 0.0
C2377 C 0.5209 0.19358 0.60952 0.0
C2378 C 0.58629 0.18799 0.58753 0.0
C2379 C 0.60362 0.14642 0.58164 0.0
N2380 N 0.54105 0.19029 0.60079 0.0
N2381 N 0.58358 0.14912 0.59101 0.0
H2382 H 0.48319 0.79156 0.61548 0.0
H2383 H 0.38686 0.87253 0.58178 0.0
H2384 H 0.48315 0.85919 0.63638 0.0
H2385 H 0.38118 0.80202 0.58233 0.0
H2386 H 0.42277 0.86925 0.59975 0.0
H2387 H 0.44663 0.79635 0.60076 0.0
C2388 C 0.4755 0.8075 0.61695 0.0
C2389 C 0.48635 0.82505 0.62711 0.0
C2390 C 0.41353 0.85456 0.59604 0.0
C2391 C 0.44416 0.83063 0.61015 0.0
C2392 C 0.39311 0.8564 0.58576 0.0
C2393 C 0.38111 0.8375 0.58042 0.0
C2394 C 0.422 0.83368 0.60072 0.0
C2395 C 0.38989 0.81702 0.586 0.0
C2396 C 0.4545 0.81017 0.60862 0.0
C2397 C 0.47536 0.84522 0.62869 0.0
N2398 N 0.40983 0.81567 0.59567 0.0
N2399 N 0.45486 0.84754 0.62012 0.0
loop_
_geom_bond_atom_site_label_1
_geom_bond_atom_site_label_2
_geom_bond_distance
_geom_bond_site_symmetry_2
_ccdc_geom_bond_type
Co0 O1 2.216 . S
Co0 O2 2.091 . S
Co0 O4 2.004 . S
Co0 O10 2.021 . S
Co0 O12 2.137 . S
Co0 O13 2.244 . S
O1 Co0 2.216 . S
O1 C8 1.247 . S
O2 Co0 2.091 . S
O2 C8 1.261 . S
C3 O12 1.247 . S
C3 O13 1.272 . S
O4 Co0 2.004 . S
O4 C9 1.259 1_455 S
Co5 O6 2.061 1_455 S
Co5 O11 2.052 . S
Co5 O13 2.135 . S
O6 Co5 2.061 1_655 S
O6 C9 1.235 . S
C7 O10 1.238 . S
C7 O11 1.241 . S
C8 O1 1.247 . S
C8 O2 1.261 . S
C9 O4 1.259 1_655 S
C9 O6 1.235 . S
O10 Co0 2.021 . S
O10 C7 1.238 . S
O11 Co5 2.052 . S
O11 C7 1.241 . S
O12 Co0 2.137 . S
O12 C3 1.247 . S
O13 Co0 2.244 . S
O13 C3 1.272 . S
O13 Co5 2.135 . S
Co14 O15 2.216 . S
Co14 O16 2.091 . S
Co14 O18 2.004 . S
Co14 O24 2.021 . S
Co14 O26 2.137 . S
Co14 O27 2.244 . S
O15 Co14 2.216 . S
O15 C22 1.247 . S
O16 Co14 2.091 . S
O16 C22 1.261 . S
C17 O26 1.247 . S
C17 O27 1.272 . S
O18 Co14 2.004 . S
O18 C23 1.259 1_545 S
Co19 O20 2.061 1_545 S
Co19 O25 2.052 . S
Co19 O27 2.135 . S
O20 Co19 2.061 1_565 S
O20 C23 1.235 . S
C21 O24 1.238 . S
C21 O25 1.241 . S
C22 O15 1.247 . S
C22 O16 1.261 . S
C23 O18 1.259 1_565 S
C23 O20 1.235 . S
O24 Co14 2.021 . S
O24 C21 1.238 . S
O25 Co19 2.052 . S
O25 C21 1.241 . S
O26 Co14 2.137 . S
O26 C17 1.247 . S
O27 Co14 2.244 . S
O27 C17 1.272 . S
O27 Co19 2.135 . S
Co28 O29 2.216 . S
Co28 O30 2.091 . S
Co28 O32 2.004 . S
Co28 O38 2.021 . S
Co28 O40 2.137 . S
Co28 O41 2.244 . S
O29 Co28 2.216 . S
O29 C36 1.247 . S
O30 Co28 2.091 . S
O30 C36 1.261 . S
C31 O40 1.247 . S
C31 O41 1.272 . S
O32 Co28 2.004 . S
O32 C37 1.259 1_655 S
Co33 O34 2.061 1_655 S
Co33 O39 2.052 . S
Co33 O41 2.135 . S
O34 Co33 2.061 1_455 S
O34 C37 1.235 . S
C35 O38 1.238 . S
C35 O39 1.241 . S
C36 O29 1.247 . S
C36 O30 1.261 . S
C37 O32 1.259 1_455 S
C37 O34 1.235 . S
O38 Co28 2.021 . S
O38 C35 1.238 . S
O39 Co33 2.052 . S
O39 C35 1.241 . S
O40 Co28 2.137 . S
O40 C31 1.247 . S
O41 Co28 2.244 . S
O41 C31 1.272 . S
O41 Co33 2.135 . S
Co42 O43 2.216 . S
Co42 O44 2.091 . S
Co42 O46 2.004 . S
Co42 O52 2.021 . S
Co42 O54 2.137 . S
Co42 O55 2.244 . S
O43 Co42 2.216 . S
O43 C50 1.247 . S
O44 Co42 2.091 . S
O44 C50 1.261 . S
C45 O54 1.247 . S
C45 O55 1.272 . S
O46 Co42 2.004 . S
O46 C51 1.259 1_565 S
Co47 O48 2.061 1_565 S
Co47 O53 2.052 . S
Co47 O55 2.135 . S
O48 Co47 2.061 1_545 S
O48 C51 1.235 . S
C49 O52 1.238 . S
C49 O53 1.241 . S
C50 O43 1.247 . S
C50 O44 1.261 . S
C51 O46 1.259 1_545 S
C51 O48 1.235 . S
O52 Co42 2.021 . S
O52 C49 1.238 . S
O53 Co47 2.052 . S
O53 C49 1.241 . S
O54 Co42 2.137 . S
O54 C45 1.247 . S
O55 Co42 2.244 . S
O55 C45 1.272 . S
O55 Co47 2.135 . S
Co56 O57 2.216 . S
Co56 O58 2.091 . S
Co56 O60 2.004 . S
Co56 O66 2.021 . S
Co56 O68 2.137 . S
Co56 O69 2.244 . S
O57 Co56 2.216 . S
O57 C64 1.247 . S
O58 Co56 2.091 . S
O58 C64 1.261 . S
C59 O68 1.247 . S
C59 O69 1.272 . S
O60 Co56 2.004 . S
O60 C65 1.259 1_455 S
Co61 O62 2.061 1_455 S
Co61 O67 2.052 . S
Co61 O69 2.135 . S
O62 Co61 2.061 1_655 S
O62 C65 1.235 . S
C63 O66 1.238 . S
C63 O67 1.241 . S
C64 O57 1.247 . S
C64 O58 1.261 . S
C65 O60 1.259 1_655 S
C65 O62 1.235 . S
O66 Co56 2.021 . S
O66 C63 1.238 . S
O67 Co61 2.052 . S
O67 C63 1.241 . S
O68 Co56 2.137 . S
O68 C59 1.247 . S
O69 Co56 2.244 . S
O69 C59 1.272 . S
O69 Co61 2.135 . S
Co70 O71 2.216 . S
Co70 O72 2.091 . S
Co70 O74 2.004 . S
Co70 O80 2.021 . S
Co70 O82 2.137 . S
Co70 O83 2.244 . S
O71 Co70 2.216 . S
O71 C78 1.247 . S
O72 Co70 2.091 . S
O72 C78 1.261 . S
C73 O82 1.247 . S
C73 O83 1.272 . S
O74 Co70 2.004 . S
O74 C79 1.259 1_545 S
Co75 O76 2.061 1_545 S
Co75 O81 2.052 . S
Co75 O83 2.135 . S
O76 Co75 2.061 1_565 S
O76 C79 1.235 . S
C77 O80 1.238 . S
C77 O81 1.241 . S
C78 O71 1.247 . S
C78 O72 1.261 . S
C79 O74 1.259 1_565 S
C79 O76 1.235 . S
O80 Co70 2.021 . S
O80 C77 1.238 . S
O81 Co75 2.052 . S
O81 C77 1.241 . S
O82 Co70 2.137 . S
O82 C73 1.247 . S
O83 Co70 2.244 . S
O83 C73 1.272 . S
O83 Co75 2.135 . S
Co84 O85 2.216 . S
Co84 O86 2.091 . S
Co84 O88 2.004 . S
Co84 O94 2.021 . S
Co84 O96 2.137 . S
Co84 O97 2.244 . S
O85 Co84 2.216 . S
O85 C92 1.247 . S
O86 Co84 2.091 . S
O86 C92 1.261 . S
C87 O96 1.247 . S
C87 O97 1.272 . S
O88 Co84 2.004 . S
O88 C93 1.259 1_655 S
Co89 O90 2.061 1_655 S
Co89 O95 2.052 . S
Co89 O97 2.135 . S
O90 Co89 2.061 1_455 S
O90 C93 1.235 . S
C91 O94 1.238 . S
C91 O95 1.241 . S
C92 O85 1.247 . S
C92 O86 1.261 . S
C93 O88 1.259 1_455 S
C93 O90 1.235 . S
O94 Co84 2.021 . S
O94 C91 1.238 . S
O95 Co89 2.052 . S
O95 C91 1.241 . S
O96 Co84 2.137 . S
O96 C87 1.247 . S
O97 Co84 2.244 . S
O97 C87 1.272 . S
O97 Co89 2.135 . S
Co98 O99 2.216 . S
Co98 O100 2.091 . S
Co98 O102 2.004 . S
Co98 O108 2.021 . S
Co98 O110 2.137 . S
Co98 O111 2.244 . S
O99 Co98 2.216 . S
O99 C106 1.247 . S
O100 Co98 2.091 . S
O100 C106 1.261 . S
C101 O110 1.247 . S
C101 O111 1.272 . S
O102 Co98 2.004 . S
O102 C107 1.259 1_565 S
Co103 O104 2.061 1_565 S
Co103 O109 2.052 . S
Co103 O111 2.135 . S
O104 Co103 2.061 1_545 S
O104 C107 1.235 . S
C105 O108 1.238 . S
C105 O109 1.241 . S
C106 O99 1.247 . S
C106 O100 1.261 . S
C107 O102 1.259 1_545 S
C107 O104 1.235 . S
O108 Co98 2.021 . S
O108 C105 1.238 . S
O109 Co103 2.052 . S
O109 C105 1.241 . S
O110 Co98 2.137 . S
O110 C101 1.247 . S
O111 Co98 2.244 . S
O111 C101 1.272 . S
O111 Co103 2.135 . S
Co112 O113 2.216 . S
Co112 O114 2.091 . S
Co112 O116 2.004 . S
Co112 O122 2.021 . S
Co112 O124 2.137 . S
Co112 O125 2.244 . S
O113 Co112 2.216 . S
O113 C120 1.247 . S
O114 Co112 2.091 . S
O114 C120 1.261 . S
C115 O124 1.247 . S
C115 O125 1.272 . S
O116 Co112 2.004 . S
O116 C121 1.259 1_545 S
Co117 O118 2.061 1_545 S
Co117 O123 2.052 . S
Co117 O125 2.135 . S
O118 Co117 2.061 1_565 S
O118 C121 1.235 . S
C119 O122 1.238 . S
C119 O123 1.241 . S
C120 O113 1.247 . S
C120 O114 1.261 . S
C121 O116 1.259 1_565 S
C121 O118 1.235 . S
O122 Co112 2.021 . S
O122 C119 1.238 . S
O123 Co117 2.052 . S
O123 C119 1.241 . S
O124 Co112 2.137 . S
O124 C115 1.247 . S
O125 Co112 2.244 . S
O125 C115 1.272 . S
O125 Co117 2.135 . S
Co126 O127 2.216 . S
Co126 O128 2.091 . S
Co126 O130 2.004 . S
Co126 O136 2.021 . S
Co126 O138 2.137 . S
Co126 O139 2.244 . S
O127 Co126 2.216 . S
O127 C134 1.247 . S
O128 Co126 2.091 . S
O128 C134 1.261 . S
C129 O138 1.247 . S
C129 O139 1.272 . S
O130 Co126 2.004 . S
O130 C135 1.259 1_655 S
Co131 O132 2.061 1_655 S
Co131 O137 2.052 . S
Co131 O139 2.135 . S
O132 Co131 2.061 1_455 S
O132 C135 1.235 . S
C133 O136 1.238 . S
C133 O137 1.241 . S
C134 O127 1.247 . S
C134 O128 1.261 . S
C135 O130 1.259 1_455 S
C135 O132 1.235 . S
O136 Co126 2.021 . S
O136 C133 1.238 . S
O137 Co131 2.052 . S
O137 C133 1.241 . S
O138 Co126 2.137 . S
O138 C129 1.247 . S
O139 Co126 2.244 . S
O139 C129 1.272 . S
O139 Co131 2.135 . S
Co140 O141 2.216 . S
Co140 O142 2.091 . S
Co140 O144 2.004 . S
Co140 O150 2.021 . S
Co140 O152 2.137 . S
Co140 O153 2.244 . S
O141 Co140 2.216 . S
O141 C148 1.247 . S
O142 Co140 2.091 . S
O142 C148 1.261 . S
C143 O152 1.247 . S
C143 O153 1.272 . S
O144 Co140 2.004 . S
O144 C149 1.259 1_565 S
Co145 O146 2.061 1_565 S
Co145 O151 2.052 . S
Co145 O153 2.135 . S
O146 Co145 2.061 1_545 S
O146 C149 1.235 . S
C147 O150 1.238 . S
C147 O151 1.241 . S
C148 O141 1.247 . S
C148 O142 1.261 . S
C149 O144 1.259 1_545 S
C149 O146 1.235 . S
O150 Co140 2.021 . S
O150 C147 1.238 . S
O151 Co145 2.052 . S
O151 C147 1.241 . S
O152 Co140 2.137 . S
O152 C143 1.247 . S
O153 Co140 2.244 . S
O153 C143 1.272 . S
O153 Co145 2.135 . S
Co154 O155 2.216 . S
Co154 O156 2.091 . S
Co154 O158 2.004 . S
Co154 O164 2.021 . S
Co154 O166 2.137 . S
Co154 O167 2.244 . S
O155 Co154 2.216 . S
O155 C162 1.247 . S
O156 Co154 2.091 . S
O156 C162 1.261 . S
C157 O166 1.247 . S
C157 O167 1.272 . S
O158 Co154 2.004 . S
O158 C163 1.259 1_455 S
Co159 O160 2.061 1_455 S
Co159 O165 2.052 . S
Co159 O167 2.135 . S
O160 Co159 2.061 1_655 S
O160 C163 1.235 . S
C161 O164 1.238 . S
C161 O165 1.241 . S
C162 O155 1.247 . S
C162 O156 1.261 . S
C163 O158 1.259 1_655 S
C163 O160 1.235 . S
O164 Co154 2.021 . S
O164 C161 1.238 . S
O165 Co159 2.052 . S
O165 C161 1.241 . S
O166 Co154 2.137 . S
O166 C157 1.247 . S
O167 Co154 2.244 . S
O167 C157 1.272 . S
O167 Co159 2.135 . S
Co168 O169 2.216 . S
Co168 O170 2.091 . S
Co168 O172 2.004 . S
Co168 O178 2.021 . S
Co168 O180 2.137 . S
Co168 O181 2.244 . S
O169 Co168 2.216 . S
O169 C176 1.247 . S
O170 Co168 2.091 . S
O170 C176 1.261 . S
C171 O180 1.247 . S
C171 O181 1.272 . S
O172 Co168 2.004 . S
O172 C177 1.259 1_565 S
Co173 O174 2.061 1_565 S
Co173 O179 2.052 . S
Co173 O181 2.135 . S
O174 Co173 2.061 1_545 S
O174 C177 1.235 . S
C175 O178 1.238 . S
C175 O179 1.241 . S
C176 O169 1.247 . S
C176 O170 1.261 . S
C177 O172 1.259 1_545 S
C177 O174 1.235 . S
O178 Co168 2.021 . S
O178 C175 1.238 . S
O179 Co173 2.052 . S
O179 C175 1.241 . S
O180 Co168 2.137 . S
O180 C171 1.247 . S
O181 Co168 2.244 . S
O181 C171 1.272 . S
O181 Co173 2.135 . S
Co182 O183 2.216 . S
Co182 O184 2.091 . S
Co182 O186 2.004 . S
Co182 O192 2.021 . S
Co182 O194 2.137 . S
Co182 O195 2.244 . S
O183 Co182 2.216 . S
O183 C190 1.247 . S
O184 Co182 2.091 . S
O184 C190 1.261 . S
C185 O194 1.247 . S
C185 O195 1.272 . S
O186 Co182 2.004 . S
O186 C191 1.259 1_455 S
Co187 O188 2.061 1_455 S
Co187 O193 2.052 . S
Co187 O195 2.135 . S
O188 Co187 2.061 1_655 S
O188 C191 1.235 . S
C189 O192 1.238 . S
C189 O193 1.241 . S
C190 O183 1.247 . S
C190 O184 1.261 . S
C191 O186 1.259 1_655 S
C191 O188 1.235 . S
O192 Co182 2.021 . S
O192 C189 1.238 . S
O193 Co187 2.052 . S
O193 C189 1.241 . S
O194 Co182 2.137 . S
O194 C185 1.247 . S
O195 Co182 2.244 . S
O195 C185 1.272 . S
O195 Co187 2.135 . S
Co196 O197 2.216 . S
Co196 O198 2.091 . S
Co196 O200 2.004 . S
Co196 O206 2.021 . S
Co196 O208 2.137 . S
Co196 O209 2.244 . S
O197 Co196 2.216 . S
O197 C204 1.247 . S
O198 Co196 2.091 . S
O198 C204 1.261 . S
C199 O208 1.247 . S
C199 O209 1.272 . S
O200 Co196 2.004 . S
O200 C205 1.259 1_545 S
Co201 O202 2.061 1_545 S
Co201 O207 2.052 . S
Co201 O209 2.135 . S
O202 Co201 2.061 1_565 S
O202 C205 1.235 . S
C203 O206 1.238 . S
C203 O207 1.241 . S
C204 O197 1.247 . S
C204 O198 1.261 . S
C205 O200 1.259 1_565 S
C205 O202 1.235 . S
O206 Co196 2.021 . S
O206 C203 1.238 . S
O207 Co201 2.052 . S
O207 C203 1.241 . S
O208 Co196 2.137 . S
O208 C199 1.247 . S
O209 Co196 2.244 . S
O209 C199 1.272 . S
O209 Co201 2.135 . S
Co210 O211 2.216 . S
Co210 O212 2.091 . S
Co210 O214 2.004 . S
Co210 O220 2.021 . S
Co210 O222 2.137 . S
Co210 O223 2.244 . S
O211 Co210 2.216 . S
O211 C218 1.247 . S
O212 Co210 2.091 . S
O212 C218 1.261 . S
C213 O222 1.247 . S
C213 O223 1.272 . S
O214 Co210 2.004 . S
O214 C219 1.259 1_655 S
Co215 O216 2.061 1_655 S
Co215 O221 2.052 . S
Co215 O223 2.135 . S
O216 Co215 2.061 1_455 S
O216 C219 1.235 . S
C217 O220 1.238 . S
C217 O221 1.241 . S
C218 O211 1.247 . S
C218 O212 1.261 . S
C219 O214 1.259 1_455 S
C219 O216 1.235 . S
O220 Co210 2.021 . S
O220 C217 1.238 . S
O221 Co215 2.052 . S
O221 C217 1.241 . S
O222 Co210 2.137 . S
O222 C213 1.247 . S
O223 Co210 2.244 . S
O223 C213 1.272 . S
O223 Co215 2.135 . S
Co224 O225 2.216 . S
Co224 O226 2.091 . S
Co224 O228 2.004 . S
Co224 O234 2.021 . S
Co224 O236 2.137 . S
Co224 O237 2.244 . S
O225 Co224 2.216 . S
O225 C232 1.247 . S
O226 Co224 2.091 . S
O226 C232 1.261 . S
C227 O236 1.247 . S
C227 O237 1.272 . S
O228 Co224 2.004 . S
O228 C233 1.259 1_554 S
Co229 O230 2.061 1_554 S
Co229 O235 2.052 . S
Co229 O237 2.135 . S
O230 Co229 2.061 1_556 S
O230 C233 1.235 . S
C231 O234 1.238 . S
C231 O235 1.241 . S
C232 O225 1.247 . S
C232 O226 1.261 . S
C233 O228 1.259 1_556 S
C233 O230 1.235 . S
O234 Co224 2.021 . S
O234 C231 1.238 . S
O235 Co229 2.052 . S
O235 C231 1.241 . S
O236 Co224 2.137 . S
O236 C227 1.247 . S
O237 Co224 2.244 . S
O237 C227 1.272 . S
O237 Co229 2.135 . S
Co238 O239 2.216 . S
Co238 O240 2.091 . S
Co238 O242 2.004 . S
Co238 O248 2.021 . S
Co238 O250 2.137 . S
Co238 O251 2.244 . S
O239 Co238 2.216 . S
O239 C246 1.247 . S
O240 Co238 2.091 . S
O240 C246 1.261 . S
C241 O250 1.247 . S
C241 O251 1.272 . S
O242 Co238 2.004 . S
O242 C247 1.259 1_556 S
Co243 O244 2.061 1_556 S
Co243 O249 2.052 . S
Co243 O251 2.135 . S
O244 Co243 2.061 1_554 S
O244 C247 1.235 . S
C245 O248 1.238 . S
C245 O249 1.241 . S
C246 O239 1.247 . S
C246 O240 1.261 . S
C247 O242 1.259 1_554 S
C247 O244 1.235 . S
O248 Co238 2.021 . S
O248 C245 1.238 . S
O249 Co243 2.052 . S
O249 C245 1.241 . S
O250 Co238 2.137 . S
O250 C241 1.247 . S
O251 Co238 2.244 . S
O251 C241 1.272 . S
O251 Co243 2.135 . S
Co252 O253 2.216 . S
Co252 O254 2.091 . S
Co252 O256 2.004 . S
Co252 O262 2.021 . S
Co252 O264 2.137 . S
Co252 O265 2.244 . S
O253 Co252 2.216 . S
O253 C260 1.247 . S
O254 Co252 2.091 . S
O254 C260 1.261 . S
C255 O264 1.247 . S
C255 O265 1.272 . S
O256 Co252 2.004 . S
O256 C261 1.259 1_556 S
Co257 O258 2.061 1_556 S
Co257 O263 2.052 . S
Co257 O265 2.135 . S
O258 Co257 2.061 1_554 S
O258 C261 1.235 . S
C259 O262 1.238 . S
C259 O263 1.241 . S
C260 O253 1.247 . S
C260 O254 1.261 . S
C261 O256 1.259 1_554 S
C261 O258 1.235 . S
O262 Co252 2.021 . S
O262 C259 1.238 . S
O263 Co257 2.052 . S
O263 C259 1.241 . S
O264 Co252 2.137 . S
O264 C255 1.247 . S
O265 Co252 2.244 . S
O265 C255 1.272 . S
O265 Co257 2.135 . S
Co266 O267 2.216 . S
Co266 O268 2.091 . S
Co266 O270 2.004 . S
Co266 O276 2.021 . S
Co266 O278 2.137 . S
Co266 O279 2.244 . S
O267 Co266 2.216 . S
O267 C274 1.247 . S
O268 Co266 2.091 . S
O268 C274 1.261 . S
C269 O278 1.247 . S
C269 O279 1.272 . S
O270 Co266 2.004 . S
O270 C275 1.259 1_556 S
Co271 O272 2.061 1_556 S
Co271 O277 2.052 . S
Co271 O279 2.135 . S
O272 Co271 2.061 1_554 S
O272 C275 1.235 . S
C273 O276 1.238 . S
C273 O277 1.241 . S
C274 O267 1.247 . S
C274 O268 1.261 . S
C275 O270 1.259 1_554 S
C275 O272 1.235 . S
O276 Co266 2.021 . S
O276 C273 1.238 . S
O277 Co271 2.052 . S
O277 C273 1.241 . S
O278 Co266 2.137 . S
O278 C269 1.247 . S
O279 Co266 2.244 . S
O279 C269 1.272 . S
O279 Co271 2.135 . S
Co280 O281 2.216 . S
Co280 O282 2.091 . S
Co280 O284 2.004 . S
Co280 O290 2.021 . S
Co280 O292 2.137 . S
Co280 O293 2.244 . S
O281 Co280 2.216 . S
O281 C288 1.247 . S
O282 Co280 2.091 . S
O282 C288 1.261 . S
C283 O292 1.247 . S
C283 O293 1.272 . S
O284 Co280 2.004 . S
O284 C289 1.259 1_556 S
Co285 O286 2.061 1_556 S
Co285 O291 2.052 . S
Co285 O293 2.135 . S
O286 Co285 2.061 1_554 S
O286 C289 1.235 . S
C287 O290 1.238 . S
C287 O291 1.241 . S
C288 O281 1.247 . S
C288 O282 1.261 . S
C289 O284 1.259 1_554 S
C289 O286 1.235 . S
O290 Co280 2.021 . S
O290 C287 1.238 . S
O291 Co285 2.052 . S
O291 C287 1.241 . S
O292 Co280 2.137 . S
O292 C283 1.247 . S
O293 Co280 2.244 . S
O293 C283 1.272 . S
O293 Co285 2.135 . S
Co294 O295 2.216 . S
Co294 O296 2.091 . S
Co294 O298 2.004 . S
Co294 O304 2.021 . S
Co294 O306 2.137 . S
Co294 O307 2.244 . S
O295 Co294 2.216 . S
O295 C302 1.247 . S
O296 Co294 2.091 . S
O296 C302 1.261 . S
C297 O306 1.247 . S
C297 O307 1.272 . S
O298 Co294 2.004 . S
O298 C303 1.259 1_554 S
Co299 O300 2.061 1_554 S
Co299 O305 2.052 . S
Co299 O307 2.135 . S
O300 Co299 2.061 1_556 S
O300 C303 1.235 . S
C301 O304 1.238 . S
C301 O305 1.241 . S
C302 O295 1.247 . S
C302 O296 1.261 . S
C303 O298 1.259 1_556 S
C303 O300 1.235 . S
O304 Co294 2.021 . S
O304 C301 1.238 . S
O305 Co299 2.052 . S
O305 C301 1.241 . S
O306 Co294 2.137 . S
O306 C297 1.247 . S
O307 Co294 2.244 . S
O307 C297 1.272 . S
O307 Co299 2.135 . S
Co308 O309 2.216 . S
Co308 O310 2.091 . S
Co308 O312 2.004 . S
Co308 O318 2.021 . S
Co308 O320 2.137 . S
Co308 O321 2.244 . S
O309 Co308 2.216 . S
O309 C316 1.247 . S
O310 Co308 2.091 . S
O310 C316 1.261 . S
C311 O320 1.247 . S
C311 O321 1.272 . S
O312 Co308 2.004 . S
O312 C317 1.259 1_554 S
Co313 O314 2.061 1_554 S
Co313 O319 2.052 . S
Co313 O321 2.135 . S
O314 Co313 2.061 1_556 S
O314 C317 1.235 . S
C315 O318 1.238 . S
C315 O319 1.241 . S
C316 O309 1.247 . S
C316 O310 1.261 . S
C317 O312 1.259 1_556 S
C317 O314 1.235 . S
O318 Co308 2.021 . S
O318 C315 1.238 . S
O319 Co313 2.052 . S
O319 C315 1.241 . S
O320 Co308 2.137 . S
O320 C311 1.247 . S
O321 Co308 2.244 . S
O321 C311 1.272 . S
O321 Co313 2.135 . S
Co322 O323 2.216 . S
Co322 O324 2.091 . S
Co322 O326 2.004 . S
Co322 O332 2.021 . S
Co322 O334 2.137 . S
Co322 O335 2.244 . S
O323 Co322 2.216 . S
O323 C330 1.247 . S
O324 Co322 2.091 . S
O324 C330 1.261 . S
C325 O334 1.247 . S
C325 O335 1.272 . S
O326 Co322 2.004 . S
O326 C331 1.259 1_554 S
Co327 O328 2.061 1_554 S
Co327 O333 2.052 . S
Co327 O335 2.135 . S
O328 Co327 2.061 1_556 S
O328 C331 1.235 . S
C329 O332 1.238 . S
C329 O333 1.241 . S
C330 O323 1.247 . S
C330 O324 1.261 . S
C331 O326 1.259 1_556 S
C331 O328 1.235 . S
O332 Co322 2.021 . S
O332 C329 1.238 . S
O333 Co327 2.052 . S
O333 C329 1.241 . S
O334 Co322 2.137 . S
O334 C325 1.247 . S
O335 Co322 2.244 . S
O335 C325 1.272 . S
O335 Co327 2.135 . S
Co336 O337 2.216 . S
Co336 O338 2.091 . S
Co336 O340 2.004 . S
Co336 O346 2.021 . S
Co336 O348 2.137 . S
Co336 O349 2.244 . S
O337 Co336 2.216 . S
O337 C344 1.247 . S
O338 Co336 2.091 . S
O338 C344 1.261 . S
C339 O348 1.247 . S
C339 O349 1.272 . S
O340 Co336 2.004 . S
O340 C345 1.259 . S
Co341 O342 2.061 . S
Co341 O347 2.052 . S
Co341 O349 2.135 . S
O342 Co341 2.061 . S
O342 C345 1.235 . S
C343 O346 1.238 . S
C343 O347 1.241 . S
C344 O337 1.247 . S
C344 O338 1.261 . S
C345 O340 1.259 . S
C345 O342 1.235 . S
O346 Co336 2.021 . S
O346 C343 1.238 . S
O347 Co341 2.052 . S
O347 C343 1.241 . S
O348 Co336 2.137 . S
O348 C339 1.247 . S
O349 Co336 2.244 . S
O349 C339 1.272 . S
O349 Co341 2.135 . S
Co350 O351 2.216 . S
Co350 O352 2.091 . S
Co350 O354 2.004 . S
Co350 O360 2.021 . S
Co350 O362 2.137 . S
Co350 O363 2.244 . S
O351 Co350 2.216 . S
O351 C358 1.247 . S
O352 Co350 2.091 . S
O352 C358 1.261 . S
C353 O362 1.247 . S
C353 O363 1.272 . S
O354 Co350 2.004 . S
O354 C359 1.259 . S
Co355 O356 2.061 . S
Co355 O361 2.052 . S
Co355 O363 2.135 . S
O356 Co355 2.061 . S
O356 C359 1.235 . S
C357 O360 1.238 . S
C357 O361 1.241 . S
C358 O351 1.247 . S
C358 O352 1.261 . S
C359 O354 1.259 . S
C359 O356 1.235 . S
O360 Co350 2.021 . S
O360 C357 1.238 . S
O361 Co355 2.052 . S
O361 C357 1.241 . S
O362 Co350 2.137 . S
O362 C353 1.247 . S
O363 Co350 2.244 . S
O363 C353 1.272 . S
O363 Co355 2.135 . S
Co364 O365 2.216 . S
Co364 O366 2.091 . S
Co364 O368 2.004 . S
Co364 O374 2.021 . S
Co364 O376 2.137 . S
Co364 O377 2.244 . S
O365 Co364 2.216 . S
O365 C372 1.247 . S
O366 Co364 2.091 . S
O366 C372 1.261 . S
C367 O376 1.247 . S
C367 O377 1.272 . S
O368 Co364 2.004 . S
O368 C373 1.259 . S
Co369 O370 2.061 . S
Co369 O375 2.052 . S
Co369 O377 2.135 . S
O370 Co369 2.061 . S
O370 C373 1.235 . S
C371 O374 1.238 . S
C371 O375 1.241 . S
C372 O365 1.247 . S
C372 O366 1.261 . S
C373 O368 1.259 . S
C373 O370 1.235 . S
O374 Co364 2.021 . S
O374 C371 1.238 . S
O375 Co369 2.052 . S
O375 C371 1.241 . S
O376 Co364 2.137 . S
O376 C367 1.247 . S
O377 Co364 2.244 . S
O377 C367 1.272 . S
O377 Co369 2.135 . S
Co378 O379 2.216 . S
Co378 O380 2.091 . S
Co378 O382 2.004 . S
Co378 O388 2.021 . S
Co378 O390 2.137 . S
Co378 O391 2.244 . S
O379 Co378 2.216 . S
O379 C386 1.247 . S
O380 Co378 2.091 . S
O380 C386 1.261 . S
C381 O390 1.247 . S
C381 O391 1.272 . S
O382 Co378 2.004 . S
O382 C387 1.259 . S
Co383 O384 2.061 . S
Co383 O389 2.052 . S
Co383 O391 2.135 . S
O384 Co383 2.061 . S
O384 C387 1.235 . S
C385 O388 1.238 . S
C385 O389 1.241 . S
C386 O379 1.247 . S
C386 O380 1.261 . S
C387 O382 1.259 . S
C387 O384 1.235 . S
O388 Co378 2.021 . S
O388 C385 1.238 . S
O389 Co383 2.052 . S
O389 C385 1.241 . S
O390 Co378 2.137 . S
O390 C381 1.247 . S
O391 Co378 2.244 . S
O391 C381 1.272 . S
O391 Co383 2.135 . S
Co392 O393 2.216 . S
Co392 O394 2.091 . S
Co392 O396 2.004 . S
Co392 O402 2.021 . S
Co392 O404 2.137 . S
Co392 O405 2.244 . S
O393 Co392 2.216 . S
O393 C400 1.247 . S
O394 Co392 2.091 . S
O394 C400 1.261 . S
C395 O404 1.247 . S
C395 O405 1.272 . S
O396 Co392 2.004 . S
O396 C401 1.259 . S
Co397 O398 2.061 . S
Co397 O403 2.052 . S
Co397 O405 2.135 . S
O398 Co397 2.061 . S
O398 C401 1.235 . S
C399 O402 1.238 . S
C399 O403 1.241 . S
C400 O393 1.247 . S
C400 O394 1.261 . S
C401 O396 1.259 . S
C401 O398 1.235 . S
O402 Co392 2.021 . S
O402 C399 1.238 . S
O403 Co397 2.052 . S
O403 C399 1.241 . S
O404 Co392 2.137 . S
O404 C395 1.247 . S
O405 Co392 2.244 . S
O405 C395 1.272 . S
O405 Co397 2.135 . S
Co406 O407 2.216 . S
Co406 O408 2.091 . S
Co406 O410 2.004 . S
Co406 O416 2.021 . S
Co406 O418 2.137 . S
Co406 O419 2.244 . S
O407 Co406 2.216 . S
O407 C414 1.247 . S
O408 Co406 2.091 . S
O408 C414 1.261 . S
C409 O418 1.247 . S
C409 O419 1.272 . S
O410 Co406 2.004 . S
O410 C415 1.259 . S
Co411 O412 2.061 . S
Co411 O417 2.052 . S
Co411 O419 2.135 . S
O412 Co411 2.061 . S
O412 C415 1.235 . S
C413 O416 1.238 . S
C413 O417 1.241 . S
C414 O407 1.247 . S
C414 O408 1.261 . S
C415 O410 1.259 . S
C415 O412 1.235 . S
O416 Co406 2.021 . S
O416 C413 1.238 . S
O417 Co411 2.052 . S
O417 C413 1.241 . S
O418 Co406 2.137 . S
O418 C409 1.247 . S
O419 Co406 2.244 . S
O419 C409 1.272 . S
O419 Co411 2.135 . S
Co420 O421 2.216 . S
Co420 O422 2.091 . S
Co420 O424 2.004 . S
Co420 O430 2.021 . S
Co420 O432 2.137 . S
Co420 O433 2.244 . S
O421 Co420 2.216 . S
O421 C428 1.247 . S
O422 Co420 2.091 . S
O422 C428 1.261 . S
C423 O432 1.247 . S
C423 O433 1.272 . S
O424 Co420 2.004 . S
O424 C429 1.259 . S
Co425 O426 2.061 . S
Co425 O431 2.052 . S
Co425 O433 2.135 . S
O426 Co425 2.061 . S
O426 C429 1.235 . S
C427 O430 1.238 . S
C427 O431 1.241 . S
C428 O421 1.247 . S
C428 O422 1.261 . S
C429 O424 1.259 . S
C429 O426 1.235 . S
O430 Co420 2.021 . S
O430 C427 1.238 . S
O431 Co425 2.052 . S
O431 C427 1.241 . S
O432 Co420 2.137 . S
O432 C423 1.247 . S
O433 Co420 2.244 . S
O433 C423 1.272 . S
O433 Co425 2.135 . S
Co434 O435 2.216 . S
Co434 O436 2.091 . S
Co434 O438 2.004 . S
Co434 O444 2.021 . S
Co434 O446 2.137 . S
Co434 O447 2.244 . S
O435 Co434 2.216 . S
O435 C442 1.247 . S
O436 Co434 2.091 . S
O436 C442 1.261 . S
C437 O446 1.247 . S
C437 O447 1.272 . S
O438 Co434 2.004 . S
O438 C443 1.259 . S
Co439 O440 2.061 . S
Co439 O445 2.052 . S
Co439 O447 2.135 . S
O440 Co439 2.061 . S
O440 C443 1.235 . S
C441 O444 1.238 . S
C441 O445 1.241 . S
C442 O435 1.247 . S
C442 O436 1.261 . S
C443 O438 1.259 . S
C443 O440 1.235 . S
O444 Co434 2.021 . S
O444 C441 1.238 . S
O445 Co439 2.052 . S
O445 C441 1.241 . S
O446 Co434 2.137 . S
O446 C437 1.247 . S
O447 Co434 2.244 . S
O447 C437 1.272 . S
O447 Co439 2.135 . S
Co448 O449 2.216 . S
Co448 O450 2.091 . S
Co448 O452 2.004 . S
Co448 O458 2.021 . S
Co448 O460 2.137 . S
Co448 O461 2.244 . S
O449 Co448 2.216 . S
O449 C456 1.247 . S
O450 Co448 2.091 . S
O450 C456 1.261 . S
C451 O460 1.247 . S
C451 O461 1.272 . S
O452 Co448 2.004 . S
O452 C457 1.259 . S
Co453 O454 2.061 . S
Co453 O459 2.052 . S
Co453 O461 2.135 . S
O454 Co453 2.061 . S
O454 C457 1.235 . S
C455 O458 1.238 . S
C455 O459 1.241 . S
C456 O449 1.247 . S
C456 O450 1.261 . S
C457 O452 1.259 . S
C457 O454 1.235 . S
O458 Co448 2.021 . S
O458 C455 1.238 . S
O459 Co453 2.052 . S
O459 C455 1.241 . S
O460 Co448 2.137 . S
O460 C451 1.247 . S
O461 Co448 2.244 . S
O461 C451 1.272 . S
O461 Co453 2.135 . S
Co462 O463 2.216 . S
Co462 O464 2.091 . S
Co462 O466 2.004 . S
Co462 O472 2.021 . S
Co462 O474 2.137 . S
Co462 O475 2.244 . S
O463 Co462 2.216 . S
O463 C470 1.247 . S
O464 Co462 2.091 . S
O464 C470 1.261 . S
C465 O474 1.247 . S
C465 O475 1.272 . S
O466 Co462 2.004 . S
O466 C471 1.259 . S
Co467 O468 2.061 . S
Co467 O473 2.052 . S
Co467 O475 2.135 . S
O468 Co467 2.061 . S
O468 C471 1.235 . S
C469 O472 1.238 . S
C469 O473 1.241 . S
C470 O463 1.247 . S
C470 O464 1.261 . S
C471 O466 1.259 . S
C471 O468 1.235 . S
O472 Co462 2.021 . S
O472 C469 1.238 . S
O473 Co467 2.052 . S
O473 C469 1.241 . S
O474 Co462 2.137 . S
O474 C465 1.247 . S
O475 Co462 2.244 . S
O475 C465 1.272 . S
O475 Co467 2.135 . S
Co476 O477 2.216 . S
Co476 O478 2.091 . S
Co476 O480 2.004 . S
Co476 O486 2.021 . S
Co476 O488 2.137 . S
Co476 O489 2.244 . S
O477 Co476 2.216 . S
O477 C484 1.247 . S
O478 Co476 2.091 . S
O478 C484 1.261 . S
C479 O488 1.247 . S
C479 O489 1.272 . S
O480 Co476 2.004 . S
O480 C485 1.259 . S
Co481 O482 2.061 . S
Co481 O487 2.052 . S
Co481 O489 2.135 . S
O482 Co481 2.061 . S
O482 C485 1.235 . S
C483 O486 1.238 . S
C483 O487 1.241 . S
C484 O477 1.247 . S
C484 O478 1.261 . S
C485 O480 1.259 . S
C485 O482 1.235 . S
O486 Co476 2.021 . S
O486 C483 1.238 . S
O487 Co481 2.052 . S
O487 C483 1.241 . S
O488 Co476 2.137 . S
O488 C479 1.247 . S
O489 Co476 2.244 . S
O489 C479 1.272 . S
O489 Co481 2.135 . S
Co490 O491 2.216 . S
Co490 O492 2.091 . S
Co490 O494 2.004 . S
Co490 O500 2.021 . S
Co490 O502 2.137 . S
Co490 O503 2.244 . S
O491 Co490 2.216 . S
O491 C498 1.247 . S
O492 Co490 2.091 . S
O492 C498 1.261 . S
C493 O502 1.247 . S
C493 O503 1.272 . S
O494 Co490 2.004 . S
O494 C499 1.259 . S
Co495 O496 2.061 . S
Co495 O501 2.052 . S
Co495 O503 2.135 . S
O496 Co495 2.061 . S
O496 C499 1.235 . S
C497 O500 1.238 . S
C497 O501 1.241 . S
C498 O491 1.247 . S
C498 O492 1.261 . S
C499 O494 1.259 . S
C499 O496 1.235 . S
O500 Co490 2.021 . S
O500 C497 1.238 . S
O501 Co495 2.052 . S
O501 C497 1.241 . S
O502 Co490 2.137 . S
O502 C493 1.247 . S
O503 Co490 2.244 . S
O503 C493 1.272 . S
O503 Co495 2.135 . S
Co504 O505 2.216 . S
Co504 O506 2.091 . S
Co504 O508 2.004 . S
Co504 O514 2.021 . S
Co504 O516 2.137 . S
Co504 O517 2.244 . S
O505 Co504 2.216 . S
O505 C512 1.247 . S
O506 Co504 2.091 . S
O506 C512 1.261 . S
C507 O516 1.247 . S
C507 O517 1.272 . S
O508 Co504 2.004 . S
O508 C513 1.259 . S
Co509 O510 2.061 . S
Co509 O515 2.052 . S
Co509 O517 2.135 . S
O510 Co509 2.061 . S
O510 C513 1.235 . S
C511 O514 1.238 . S
C511 O515 1.241 . S
C512 O505 1.247 . S
C512 O506 1.261 . S
C513 O508 1.259 . S
C513 O510 1.235 . S
O514 Co504 2.021 . S
O514 C511 1.238 . S
O515 Co509 2.052 . S
O515 C511 1.241 . S
O516 Co504 2.137 . S
O516 C507 1.247 . S
O517 Co504 2.244 . S
O517 C507 1.272 . S
O517 Co509 2.135 . S
Co518 O519 2.216 . S
Co518 O520 2.091 . S
Co518 O522 2.004 . S
Co518 O528 2.021 . S
Co518 O530 2.137 . S
Co518 O531 2.244 . S
O519 Co518 2.216 . S
O519 C526 1.247 . S
O520 Co518 2.091 . S
O520 C526 1.261 . S
C521 O530 1.247 . S
C521 O531 1.272 . S
O522 Co518 2.004 . S
O522 C527 1.259 . S
Co523 O524 2.061 . S
Co523 O529 2.052 . S
Co523 O531 2.135 . S
O524 Co523 2.061 . S
O524 C527 1.235 . S
C525 O528 1.238 . S
C525 O529 1.241 . S
C526 O519 1.247 . S
C526 O520 1.261 . S
C527 O522 1.259 . S
C527 O524 1.235 . S
O528 Co518 2.021 . S
O528 C525 1.238 . S
O529 Co523 2.052 . S
O529 C525 1.241 . S
O530 Co518 2.137 . S
O530 C521 1.247 . S
O531 Co518 2.244 . S
O531 C521 1.272 . S
O531 Co523 2.135 . S
Co532 O533 2.216 . S
Co532 O534 2.091 . S
Co532 O536 2.004 . S
Co532 O542 2.021 . S
Co532 O544 2.137 . S
Co532 O545 2.244 . S
O533 Co532 2.216 . S
O533 C540 1.247 . S
O534 Co532 2.091 . S
O534 C540 1.261 . S
C535 O544 1.247 . S
C535 O545 1.272 . S
O536 Co532 2.004 . S
O536 C541 1.259 . S
Co537 O538 2.061 . S
Co537 O543 2.052 . S
Co537 O545 2.135 . S
O538 Co537 2.061 . S
O538 C541 1.235 . S
C539 O542 1.238 . S
C539 O543 1.241 . S
C540 O533 1.247 . S
C540 O534 1.261 . S
C541 O536 1.259 . S
C541 O538 1.235 . S
O542 Co532 2.021 . S
O542 C539 1.238 . S
O543 Co537 2.052 . S
O543 C539 1.241 . S
O544 Co532 2.137 . S
O544 C535 1.247 . S
O545 Co532 2.244 . S
O545 C535 1.272 . S
O545 Co537 2.135 . S
Co546 O547 2.216 . S
Co546 O548 2.091 . S
Co546 O550 2.004 . S
Co546 O556 2.021 . S
Co546 O558 2.137 . S
Co546 O559 2.244 . S
O547 Co546 2.216 . S
O547 C554 1.247 . S
O548 Co546 2.091 . S
O548 C554 1.261 . S
C549 O558 1.247 . S
C549 O559 1.272 . S
O550 Co546 2.004 . S
O550 C555 1.259 . S
Co551 O552 2.061 . S
Co551 O557 2.052 . S
Co551 O559 2.135 . S
O552 Co551 2.061 . S
O552 C555 1.235 . S
C553 O556 1.238 . S
C553 O557 1.241 . S
C554 O547 1.247 . S
C554 O548 1.261 . S
C555 O550 1.259 . S
C555 O552 1.235 . S
O556 Co546 2.021 . S
O556 C553 1.238 . S
O557 Co551 2.052 . S
O557 C553 1.241 . S
O558 Co546 2.137 . S
O558 C549 1.247 . S
O559 Co546 2.244 . S
O559 C549 1.272 . S
O559 Co551 2.135 . S
Co560 O561 2.216 . S
Co560 O562 2.091 . S
Co560 O564 2.004 . S
Co560 O570 2.021 . S
Co560 O572 2.137 . S
Co560 O573 2.244 . S
O561 Co560 2.216 . S
O561 C568 1.247 . S
O562 Co560 2.091 . S
O562 C568 1.261 . S
C563 O572 1.247 . S
C563 O573 1.272 . S
O564 Co560 2.004 . S
O564 C569 1.259 . S
Co565 O566 2.061 . S
Co565 O571 2.052 . S
Co565 O573 2.135 . S
O566 Co565 2.061 . S
O566 C569 1.235 . S
C567 O570 1.238 . S
C567 O571 1.241 . S
C568 O561 1.247 . S
C568 O562 1.261 . S
C569 O564 1.259 . S
C569 O566 1.235 . S
O570 Co560 2.021 . S
O570 C567 1.238 . S
O571 Co565 2.052 . S
O571 C567 1.241 . S
O572 Co560 2.137 . S
O572 C563 1.247 . S
O573 Co560 2.244 . S
O573 C563 1.272 . S
O573 Co565 2.135 . S
Co574 O575 2.216 . S
Co574 O576 2.091 . S
Co574 O578 2.004 . S
Co574 O584 2.021 . S
Co574 O586 2.137 . S
Co574 O587 2.244 . S
O575 Co574 2.216 . S
O575 C582 1.247 . S
O576 Co574 2.091 . S
O576 C582 1.261 . S
C577 O586 1.247 . S
C577 O587 1.272 . S
O578 Co574 2.004 . S
O578 C583 1.259 . S
Co579 O580 2.061 . S
Co579 O585 2.052 . S
Co579 O587 2.135 . S
O580 Co579 2.061 . S
O580 C583 1.235 . S
C581 O584 1.238 . S
C581 O585 1.241 . S
C582 O575 1.247 . S
C582 O576 1.261 . S
C583 O578 1.259 . S
C583 O580 1.235 . S
O584 Co574 2.021 . S
O584 C581 1.238 . S
O585 Co579 2.052 . S
O585 C581 1.241 . S
O586 Co574 2.137 . S
O586 C577 1.247 . S
O587 Co574 2.244 . S
O587 C577 1.272 . S
O587 Co579 2.135 . S
Co588 O589 2.216 . S
Co588 O590 2.091 . S
Co588 O592 2.004 . S
Co588 O598 2.021 . S
Co588 O600 2.137 . S
Co588 O601 2.244 . S
O589 Co588 2.216 . S
O589 C596 1.247 . S
O590 Co588 2.091 . S
O590 C596 1.261 . S
C591 O600 1.247 . S
C591 O601 1.272 . S
O592 Co588 2.004 . S
O592 C597 1.259 . S
Co593 O594 2.061 . S
Co593 O599 2.052 . S
Co593 O601 2.135 . S
O594 Co593 2.061 . S
O594 C597 1.235 . S
C595 O598 1.238 . S
C595 O599 1.241 . S
C596 O589 1.247 . S
C596 O590 1.261 . S
C597 O592 1.259 . S
C597 O594 1.235 . S
O598 Co588 2.021 . S
O598 C595 1.238 . S
O599 Co593 2.052 . S
O599 C595 1.241 . S
O600 Co588 2.137 . S
O600 C591 1.247 . S
O601 Co588 2.244 . S
O601 C591 1.272 . S
O601 Co593 2.135 . S
Co602 O603 2.216 . S
Co602 O604 2.091 . S
Co602 O606 2.004 . S
Co602 O612 2.021 . S
Co602 O614 2.137 . S
Co602 O615 2.244 . S
O603 Co602 2.216 . S
O603 C610 1.247 . S
O604 Co602 2.091 . S
O604 C610 1.261 . S
C605 O614 1.247 . S
C605 O615 1.272 . S
O606 Co602 2.004 . S
O606 C611 1.259 . S
Co607 O608 2.061 . S
Co607 O613 2.052 . S
Co607 O615 2.135 . S
O608 Co607 2.061 . S
O608 C611 1.235 . S
C609 O612 1.238 . S
C609 O613 1.241 . S
C610 O603 1.247 . S
C610 O604 1.261 . S
C611 O606 1.259 . S
C611 O608 1.235 . S
O612 Co602 2.021 . S
O612 C609 1.238 . S
O613 Co607 2.052 . S
O613 C609 1.241 . S
O614 Co602 2.137 . S
O614 C605 1.247 . S
O615 Co602 2.244 . S
O615 C605 1.272 . S
O615 Co607 2.135 . S
Co616 O617 2.216 . S
Co616 O618 2.091 . S
Co616 O620 2.004 . S
Co616 O626 2.021 . S
Co616 O628 2.137 . S
Co616 O629 2.244 . S
O617 Co616 2.216 . S
O617 C624 1.247 . S
O618 Co616 2.091 . S
O618 C624 1.261 . S
C619 O628 1.247 . S
C619 O629 1.272 . S
O620 Co616 2.004 . S
O620 C625 1.259 . S
Co621 O622 2.061 . S
Co621 O627 2.052 . S
Co621 O629 2.135 . S
O622 Co621 2.061 . S
O622 C625 1.235 . S
C623 O626 1.238 . S
C623 O627 1.241 . S
C624 O617 1.247 . S
C624 O618 1.261 . S
C625 O620 1.259 . S
C625 O622 1.235 . S
O626 Co616 2.021 . S
O626 C623 1.238 . S
O627 Co621 2.052 . S
O627 C623 1.241 . S
O628 Co616 2.137 . S
O628 C619 1.247 . S
O629 Co616 2.244 . S
O629 C619 1.272 . S
O629 Co621 2.135 . S
Co630 O631 2.216 . S
Co630 O632 2.091 . S
Co630 O634 2.004 . S
Co630 O640 2.021 . S
Co630 O642 2.137 . S
Co630 O643 2.244 . S
O631 Co630 2.216 . S
O631 C638 1.247 . S
O632 Co630 2.091 . S
O632 C638 1.261 . S
C633 O642 1.247 . S
C633 O643 1.272 . S
O634 Co630 2.004 . S
O634 C639 1.259 . S
Co635 O636 2.061 . S
Co635 O641 2.052 . S
Co635 O643 2.135 . S
O636 Co635 2.061 . S
O636 C639 1.235 . S
C637 O640 1.238 . S
C637 O641 1.241 . S
C638 O631 1.247 . S
C638 O632 1.261 . S
C639 O634 1.259 . S
C639 O636 1.235 . S
O640 Co630 2.021 . S
O640 C637 1.238 . S
O641 Co635 2.052 . S
O641 C637 1.241 . S
O642 Co630 2.137 . S
O642 C633 1.247 . S
O643 Co630 2.244 . S
O643 C633 1.272 . S
O643 Co635 2.135 . S
Co644 O645 2.216 . S
Co644 O646 2.091 . S
Co644 O648 2.004 . S
Co644 O654 2.021 . S
Co644 O656 2.137 . S
Co644 O657 2.244 . S
O645 Co644 2.216 . S
O645 C652 1.247 . S
O646 Co644 2.091 . S
O646 C652 1.261 . S
C647 O656 1.247 . S
C647 O657 1.272 . S
O648 Co644 2.004 . S
O648 C653 1.259 . S
Co649 O650 2.061 . S
Co649 O655 2.052 . S
Co649 O657 2.135 . S
O650 Co649 2.061 . S
O650 C653 1.235 . S
C651 O654 1.238 . S
C651 O655 1.241 . S
C652 O645 1.247 . S
C652 O646 1.261 . S
C653 O648 1.259 . S
C653 O650 1.235 . S
O654 Co644 2.021 . S
O654 C651 1.238 . S
O655 Co649 2.052 . S
O655 C651 1.241 . S
O656 Co644 2.137 . S
O656 C647 1.247 . S
O657 Co644 2.244 . S
O657 C647 1.272 . S
O657 Co649 2.135 . S
Co658 O659 2.216 . S
Co658 O660 2.091 . S
Co658 O662 2.004 . S
Co658 O668 2.021 . S
Co658 O670 2.137 . S
Co658 O671 2.244 . S
O659 Co658 2.216 . S
O659 C666 1.247 . S
O660 Co658 2.091 . S
O660 C666 1.261 . S
C661 O670 1.247 . S
C661 O671 1.272 . S
O662 Co658 2.004 . S
O662 C667 1.259 . S
Co663 O664 2.061 . S
Co663 O669 2.052 . S
Co663 O671 2.135 . S
O664 Co663 2.061 . S
O664 C667 1.235 . S
C665 O668 1.238 . S
C665 O669 1.241 . S
C666 O659 1.247 . S
C666 O660 1.261 . S
C667 O662 1.259 . S
C667 O664 1.235 . S
O668 Co658 2.021 . S
O668 C665 1.238 . S
O669 Co663 2.052 . S
O669 C665 1.241 . S
O670 Co658 2.137 . S
O670 C661 1.247 . S
O671 Co658 2.244 . S
O671 C661 1.272 . S
O671 Co663 2.135 . S
H672 C678 0.930 . S
H673 C682 0.930 . S
H674 C687 0.929 . S
H675 C685 0.929 . S
H676 C680 0.929 . S
H677 C686 0.929 . S
C678 H672 0.930 . S
C678 C679 1.367 . S
C678 C686 1.378 . S
C679 C678 1.367 . S
C679 C687 1.433 . S
C680 H676 0.929 . S
C680 C682 1.378 . S
C680 C684 1.350 . S
C681 C684 1.463 . S
C681 C686 1.350 . S
C681 N689 1.427 . S
C682 H673 0.930 . S
C682 C680 1.378 . S
C682 C683 1.367 . S
C683 C682 1.367 . S
C683 C685 1.433 . S
C684 C680 1.350 . S
C684 C681 1.463 . S
C684 N688 1.427 . S
C685 H675 0.929 . S
C685 C683 1.433 . S
C685 N688 1.384 . S
C686 H677 0.929 . S
C686 C678 1.378 . S
C686 C681 1.350 . S
C687 H674 0.929 . S
C687 C679 1.433 . S
C687 N689 1.384 . S
N688 C684 1.427 . S
N688 C685 1.384 . S
N689 C681 1.427 . S
N689 C687 1.384 . S
H690 C696 0.930 . S
H691 C700 0.930 . S
H692 C705 0.929 . S
H693 C703 0.929 . S
H694 C698 0.929 . S
H695 C704 0.929 . S
C696 H690 0.930 . S
C696 C697 1.367 . S
C696 C704 1.378 . S
C697 C696 1.367 . S
C697 C705 1.433 . S
C698 H694 0.929 . S
C698 C700 1.378 . S
C698 C702 1.350 . S
C699 C702 1.463 . S
C699 C704 1.350 . S
C699 N707 1.427 . S
C700 H691 0.930 . S
C700 C698 1.378 . S
C700 C701 1.367 . S
C701 C700 1.367 . S
C701 C703 1.433 . S
C702 C698 1.350 . S
C702 C699 1.463 . S
C702 N706 1.427 . S
C703 H693 0.929 . S
C703 C701 1.433 . S
C703 N706 1.384 . S
C704 H695 0.929 . S
C704 C696 1.378 . S
C704 C699 1.350 . S
C705 H692 0.929 . S
C705 C697 1.433 . S
C705 N707 1.384 . S
N706 C702 1.427 . S
N706 C703 1.384 . S
N707 C699 1.427 . S
N707 C705 1.384 . S
H708 C714 0.930 . S
H709 C718 0.930 . S
H710 C723 0.929 . S
H711 C721 0.929 . S
H712 C716 0.929 . S
H713 C722 0.929 . S
C714 H708 0.930 . S
C714 C715 1.367 . S
C714 C722 1.378 . S
C715 C714 1.367 . S
C715 C723 1.433 . S
C716 H712 0.929 . S
C716 C718 1.378 . S
C716 C720 1.350 . S
C717 C720 1.463 . S
C717 C722 1.350 . S
C717 N725 1.427 . S
C718 H709 0.930 . S
C718 C716 1.378 . S
C718 C719 1.367 . S
C719 C718 1.367 . S
C719 C721 1.433 . S
C720 C716 1.350 . S
C720 C717 1.463 . S
C720 N724 1.427 . S
C721 H711 0.929 . S
C721 C719 1.433 . S
C721 N724 1.384 . S
C722 H713 0.929 . S
C722 C714 1.378 . S
C722 C717 1.350 . S
C723 H710 0.929 . S
C723 C715 1.433 . S
C723 N725 1.384 . S
N724 C720 1.427 . S
N724 C721 1.384 . S
N725 C717 1.427 . S
N725 C723 1.384 . S
H726 C732 0.930 . S
H727 C736 0.930 . S
H728 C741 0.929 . S
H729 C739 0.929 . S
H730 C734 0.929 . S
H731 C740 0.929 . S
C732 H726 0.930 . S
C732 C733 1.367 . S
C732 C740 1.378 . S
C733 C732 1.367 . S
C733 C741 1.433 . S
C734 H730 0.929 . S
C734 C736 1.378 . S
C734 C738 1.350 . S
C735 C738 1.463 . S
C735 C740 1.350 . S
C735 N743 1.427 . S
C736 H727 0.930 . S
C736 C734 1.378 . S
C736 C737 1.367 . S
C737 C736 1.367 . S
C737 C739 1.433 . S
C738 C734 1.350 . S
C738 C735 1.463 . S
C738 N742 1.427 . S
C739 H729 0.929 . S
C739 C737 1.433 . S
C739 N742 1.384 . S
C740 H731 0.929 . S
C740 C732 1.378 . S
C740 C735 1.350 . S
C741 H728 0.929 . S
C741 C733 1.433 . S
C741 N743 1.384 . S
N742 C738 1.427 . S
N742 C739 1.384 . S
N743 C735 1.427 . S
N743 C741 1.384 . S
H744 C750 0.930 . S
H745 C754 0.930 . S
H746 C759 0.929 . S
H747 C757 0.929 . S
H748 C752 0.929 . S
H749 C758 0.929 . S
C750 H744 0.930 . S
C750 C751 1.367 . S
C750 C758 1.378 . S
C751 C750 1.367 . S
C751 C759 1.433 . S
C752 H748 0.929 . S
C752 C754 1.378 . S
C752 C756 1.350 . S
C753 C756 1.463 . S
C753 C758 1.350 . S
C753 N761 1.427 . S
C754 H745 0.930 . S
C754 C752 1.378 . S
C754 C755 1.367 . S
C755 C754 1.367 . S
C755 C757 1.433 . S
C756 C752 1.350 . S
C756 C753 1.463 . S
C756 N760 1.427 . S
C757 H747 0.929 . S
C757 C755 1.433 . S
C757 N760 1.384 . S
C758 H749 0.929 . S
C758 C750 1.378 . S
C758 C753 1.350 . S
C759 H746 0.929 . S
C759 C751 1.433 . S
C759 N761 1.384 . S
N760 C756 1.427 . S
N760 C757 1.384 . S
N761 C753 1.427 . S
N761 C759 1.384 . S
H762 C768 0.930 . S
H763 C772 0.930 . S
H764 C777 0.929 . S
H765 C775 0.929 . S
H766 C770 0.929 . S
H767 C776 0.929 . S
C768 H762 0.930 . S
C768 C769 1.367 . S
C768 C776 1.378 . S
C769 C768 1.367 . S
C769 C777 1.433 . S
C770 H766 0.929 . S
C770 C772 1.378 . S
C770 C774 1.350 . S
C771 C774 1.463 . S
C771 C776 1.350 . S
C771 N779 1.427 . S
C772 H763 0.930 . S
C772 C770 1.378 . S
C772 C773 1.367 . S
C773 C772 1.367 . S
C773 C775 1.433 . S
C774 C770 1.350 . S
C774 C771 1.463 . S
C774 N778 1.427 . S
C775 H765 0.929 . S
C775 C773 1.433 . S
C775 N778 1.384 . S
C776 H767 0.929 . S
C776 C768 1.378 . S
C776 C771 1.350 . S
C777 H764 0.929 . S
C777 C769 1.433 . S
C777 N779 1.384 . S
N778 C774 1.427 . S
N778 C775 1.384 . S
N779 C771 1.427 . S
N779 C777 1.384 . S
H780 C786 0.930 . S
H781 C790 0.930 . S
H782 C795 0.929 . S
H783 C793 0.929 . S
H784 C788 0.929 . S
H785 C794 0.929 . S
C786 H780 0.930 . S
C786 C787 1.367 . S
C786 C794 1.378 . S
C787 C786 1.367 . S
C787 C795 1.433 . S
C788 H784 0.929 . S
C788 C790 1.378 . S
C788 C792 1.350 . S
C789 C792 1.463 . S
C789 C794 1.350 . S
C789 N797 1.427 . S
C790 H781 0.930 . S
C790 C788 1.378 . S
C790 C791 1.367 . S
C791 C790 1.367 . S
C791 C793 1.433 . S
C792 C788 1.350 . S
C792 C789 1.463 . S
C792 N796 1.427 . S
C793 H783 0.929 . S
C793 C791 1.433 . S
C793 N796 1.384 . S
C794 H785 0.929 . S
C794 C786 1.378 . S
C794 C789 1.350 . S
C795 H782 0.929 . S
C795 C787 1.433 . S
C795 N797 1.384 . S
N796 C792 1.427 . S
N796 C793 1.384 . S
N797 C789 1.427 . S
N797 C795 1.384 . S
H798 C804 0.930 . S
H799 C808 0.930 . S
H800 C813 0.929 . S
H801 C811 0.929 . S
H802 C806 0.929 . S
H803 C812 0.929 . S
C804 H798 0.930 . S
C804 C805 1.367 . S
C804 C812 1.378 . S
C805 C804 1.367 . S
C805 C813 1.433 . S
C806 H802 0.929 . S
C806 C808 1.378 . S
C806 C810 1.350 . S
C807 C810 1.463 . S
C807 C812 1.350 . S
C807 N815 1.427 . S
C808 H799 0.930 . S
C808 C806 1.378 . S
C808 C809 1.367 . S
C809 C808 1.367 . S
C809 C811 1.433 . S
C810 C806 1.350 . S
C810 C807 1.463 . S
C810 N814 1.427 . S
C811 H801 0.929 . S
C811 C809 1.433 . S
C811 N814 1.384 . S
C812 H803 0.929 . S
C812 C804 1.378 . S
C812 C807 1.350 . S
C813 H800 0.929 . S
C813 C805 1.433 . S
C813 N815 1.384 . S
N814 C810 1.427 . S
N814 C811 1.384 . S
N815 C807 1.427 . S
N815 C813 1.384 . S
H816 C822 0.930 . S
H817 C826 0.930 . S
H818 C831 0.929 . S
H819 C829 0.929 . S
H820 C824 0.929 . S
H821 C830 0.929 . S
C822 H816 0.930 . S
C822 C823 1.367 . S
C822 C830 1.378 . S
C823 C822 1.367 . S
C823 C831 1.433 . S
C824 H820 0.929 . S
C824 C826 1.378 . S
C824 C828 1.350 . S
C825 C828 1.463 . S
C825 C830 1.350 . S
C825 N833 1.427 . S
C826 H817 0.930 . S
C826 C824 1.378 . S
C826 C827 1.367 . S
C827 C826 1.367 . S
C827 C829 1.433 . S
C828 C824 1.350 . S
C828 C825 1.463 . S
C828 N832 1.427 . S
C829 H819 0.929 . S
C829 C827 1.433 . S
C829 N832 1.384 . S
C830 H821 0.929 . S
C830 C822 1.378 . S
C830 C825 1.350 . S
C831 H818 0.929 . S
C831 C823 1.433 . S
C831 N833 1.384 . S
N832 C828 1.427 . S
N832 C829 1.384 . S
N833 C825 1.427 . S
N833 C831 1.384 . S
H834 C840 0.930 . S
H835 C844 0.930 . S
H836 C849 0.929 . S
H837 C847 0.929 . S
H838 C842 0.929 . S
H839 C848 0.929 . S
C840 H834 0.930 . S
C840 C841 1.367 . S
C840 C848 1.378 . S
C841 C840 1.367 . S
C841 C849 1.433 . S
C842 H838 0.929 . S
C842 C844 1.378 . S
C842 C846 1.350 . S
C843 C846 1.463 . S
C843 C848 1.350 . S
C843 N851 1.427 . S
C844 H835 0.930 . S
C844 C842 1.378 . S
C844 C845 1.367 . S
C845 C844 1.367 . S
C845 C847 1.433 . S
C846 C842 1.350 . S
C846 C843 1.463 . S
C846 N850 1.427 . S
C847 H837 0.929 . S
C847 C845 1.433 . S
C847 N850 1.384 . S
C848 H839 0.929 . S
C848 C840 1.378 . S
C848 C843 1.350 . S
C849 H836 0.929 . S
C849 C841 1.433 . S
C849 N851 1.384 . S
N850 C846 1.427 . S
N850 C847 1.384 . S
N851 C843 1.427 . S
N851 C849 1.384 . S
H852 C858 0.930 . S
H853 C862 0.930 . S
H854 C867 0.929 . S
H855 C865 0.929 . S
H856 C860 0.929 . S
H857 C866 0.929 . S
C858 H852 0.930 . S
C858 C859 1.367 . S
C858 C866 1.378 . S
C859 C858 1.367 . S
C859 C867 1.433 . S
C860 H856 0.929 . S
C860 C862 1.378 . S
C860 C864 1.350 . S
C861 C864 1.463 . S
C861 C866 1.350 . S
C861 N869 1.427 . S
C862 H853 0.930 . S
C862 C860 1.378 . S
C862 C863 1.367 . S
C863 C862 1.367 . S
C863 C865 1.433 . S
C864 C860 1.350 . S
C864 C861 1.463 . S
C864 N868 1.427 . S
C865 H855 0.929 . S
C865 C863 1.433 . S
C865 N868 1.384 . S
C866 H857 0.929 . S
C866 C858 1.378 . S
C866 C861 1.350 . S
C867 H854 0.929 . S
C867 C859 1.433 . S
C867 N869 1.384 . S
N868 C864 1.427 . S
N868 C865 1.384 . S
N869 C861 1.427 . S
N869 C867 1.384 . S
H870 C876 0.930 . S
H871 C880 0.930 . S
H872 C885 0.929 . S
H873 C883 0.929 . S
H874 C878 0.929 . S
H875 C884 0.929 . S
C876 H870 0.930 . S
C876 C877 1.367 . S
C876 C884 1.378 . S
C877 C876 1.367 . S
C877 C885 1.433 . S
C878 H874 0.929 . S
C878 C880 1.378 . S
C878 C882 1.350 . S
C879 C882 1.463 . S
C879 C884 1.350 . S
C879 N887 1.427 . S
C880 H871 0.930 . S
C880 C878 1.378 . S
C880 C881 1.367 . S
C881 C880 1.367 . S
C881 C883 1.433 . S
C882 C878 1.350 . S
C882 C879 1.463 . S
C882 N886 1.427 . S
C883 H873 0.929 . S
C883 C881 1.433 . S
C883 N886 1.384 . S
C884 H875 0.929 . S
C884 C876 1.378 . S
C884 C879 1.350 . S
C885 H872 0.929 . S
C885 C877 1.433 . S
C885 N887 1.384 . S
N886 C882 1.427 . S
N886 C883 1.384 . S
N887 C879 1.427 . S
N887 C885 1.384 . S
H888 C894 0.930 . S
H889 C898 0.930 . S
H890 C903 0.929 . S
H891 C901 0.929 . S
H892 C896 0.929 . S
H893 C902 0.929 . S
C894 H888 0.930 . S
C894 C895 1.367 . S
C894 C902 1.378 . S
C895 C894 1.367 . S
C895 C903 1.433 . S
C896 H892 0.929 . S
C896 C898 1.378 . S
C896 C900 1.350 . S
C897 C900 1.463 . S
C897 C902 1.350 . S
C897 N905 1.427 . S
C898 H889 0.930 . S
C898 C896 1.378 . S
C898 C899 1.367 . S
C899 C898 1.367 . S
C899 C901 1.433 . S
C900 C896 1.350 . S
C900 C897 1.463 . S
C900 N904 1.427 . S
C901 H891 0.929 . S
C901 C899 1.433 . S
C901 N904 1.384 . S
C902 H893 0.929 . S
C902 C894 1.378 . S
C902 C897 1.350 . S
C903 H890 0.929 . S
C903 C895 1.433 . S
C903 N905 1.384 . S
N904 C900 1.427 . S
N904 C901 1.384 . S
N905 C897 1.427 . S
N905 C903 1.384 . S
H906 C912 0.930 . S
H907 C916 0.930 . S
H908 C921 0.929 . S
H909 C919 0.929 . S
H910 C914 0.929 . S
H911 C920 0.929 . S
C912 H906 0.930 . S
C912 C913 1.367 . S
C912 C920 1.378 . S
C913 C912 1.367 . S
C913 C921 1.433 . S
C914 H910 0.929 . S
C914 C916 1.378 . S
C914 C918 1.350 . S
C915 C918 1.463 . S
C915 C920 1.350 . S
C915 N923 1.427 . S
C916 H907 0.930 . S
C916 C914 1.378 . S
C916 C917 1.367 . S
C917 C916 1.367 . S
C917 C919 1.433 . S
C918 C914 1.350 . S
C918 C915 1.463 . S
C918 N922 1.427 . S
C919 H909 0.929 . S
C919 C917 1.433 . S
C919 N922 1.384 . S
C920 H911 0.929 . S
C920 C912 1.378 . S
C920 C915 1.350 . S
C921 H908 0.929 . S
C921 C913 1.433 . S
C921 N923 1.384 . S
N922 C918 1.427 . S
N922 C919 1.384 . S
N923 C915 1.427 . S
N923 C921 1.384 . S
H924 C930 0.930 . S
H925 C934 0.930 . S
H926 C939 0.929 . S
H927 C937 0.929 . S
H928 C932 0.929 . S
H929 C938 0.929 . S
C930 H924 0.930 . S
C930 C931 1.367 . S
C930 C938 1.378 . S
C931 C930 1.367 . S
C931 C939 1.433 . S
C932 H928 0.929 . S
C932 C934 1.378 . S
C932 C936 1.350 . S
C933 C936 1.463 . S
C933 C938 1.350 . S
C933 N941 1.427 . S
C934 H925 0.930 . S
C934 C932 1.378 . S
C934 C935 1.367 . S
C935 C934 1.367 . S
C935 C937 1.433 . S
C936 C932 1.350 . S
C936 C933 1.463 . S
C936 N940 1.427 . S
C937 H927 0.929 . S
C937 C935 1.433 . S
C937 N940 1.384 . S
C938 H929 0.929 . S
C938 C930 1.378 . S
C938 C933 1.350 . S
C939 H926 0.929 . S
C939 C931 1.433 . S
C939 N941 1.384 . S
N940 C936 1.427 . S
N940 C937 1.384 . S
N941 C933 1.427 . S
N941 C939 1.384 . S
H942 C948 0.930 . S
H943 C952 0.930 . S
H944 C957 0.929 . S
H945 C955 0.929 . S
H946 C950 0.929 . S
H947 C956 0.929 . S
C948 H942 0.930 . S
C948 C949 1.367 . S
C948 C956 1.378 . S
C949 C948 1.367 . S
C949 C957 1.433 . S
C950 H946 0.929 . S
C950 C952 1.378 . S
C950 C954 1.350 . S
C951 C954 1.463 . S
C951 C956 1.350 . S
C951 N959 1.427 . S
C952 H943 0.930 . S
C952 C950 1.378 . S
C952 C953 1.367 . S
C953 C952 1.367 . S
C953 C955 1.433 . S
C954 C950 1.350 . S
C954 C951 1.463 . S
C954 N958 1.427 . S
C955 H945 0.929 . S
C955 C953 1.433 . S
C955 N958 1.384 . S
C956 H947 0.929 . S
C956 C948 1.378 . S
C956 C951 1.350 . S
C957 H944 0.929 . S
C957 C949 1.433 . S
C957 N959 1.384 . S
N958 C954 1.427 . S
N958 C955 1.384 . S
N959 C951 1.427 . S
N959 C957 1.384 . S
H960 C966 0.930 . S
H961 C970 0.930 . S
H962 C975 0.929 . S
H963 C973 0.929 . S
H964 C968 0.929 . S
H965 C974 0.929 . S
C966 H960 0.930 . S
C966 C967 1.367 . S
C966 C974 1.378 . S
C967 C966 1.367 . S
C967 C975 1.433 . S
C968 H964 0.929 . S
C968 C970 1.378 . S
C968 C972 1.350 . S
C969 C972 1.463 . S
C969 C974 1.350 . S
C969 N977 1.427 . S
C970 H961 0.930 . S
C970 C968 1.378 . S
C970 C971 1.367 . S
C971 C970 1.367 . S
C971 C973 1.433 . S
C972 C968 1.350 . S
C972 C969 1.463 . S
C972 N976 1.427 . S
C973 H963 0.929 . S
C973 C971 1.433 . S
C973 N976 1.384 . S
C974 H965 0.929 . S
C974 C966 1.378 . S
C974 C969 1.350 . S
C975 H962 0.929 . S
C975 C967 1.433 . S
C975 N977 1.384 . S
N976 C972 1.427 . S
N976 C973 1.384 . S
N977 C969 1.427 . S
N977 C975 1.384 . S
H978 C984 0.930 . S
H979 C988 0.930 . S
H980 C993 0.929 . S
H981 C991 0.929 . S
H982 C986 0.929 . S
H983 C992 0.929 . S
C984 H978 0.930 . S
C984 C985 1.367 . S
C984 C992 1.378 . S
C985 C984 1.367 . S
C985 C993 1.433 . S
C986 H982 0.929 . S
C986 C988 1.378 . S
C986 C990 1.350 . S
C987 C990 1.463 . S
C987 C992 1.350 . S
C987 N995 1.427 . S
C988 H979 0.930 . S
C988 C986 1.378 . S
C988 C989 1.367 . S
C989 C988 1.367 . S
C989 C991 1.433 . S
C990 C986 1.350 . S
C990 C987 1.463 . S
C990 N994 1.427 . S
C991 H981 0.929 . S
C991 C989 1.433 . S
C991 N994 1.384 . S
C992 H983 0.929 . S
C992 C984 1.378 . S
C992 C987 1.350 . S
C993 H980 0.929 . S
C993 C985 1.433 . S
C993 N995 1.384 . S
N994 C990 1.427 . S
N994 C991 1.384 . S
N995 C987 1.427 . S
N995 C993 1.384 . S
H996 C1002 0.930 . S
H997 C1006 0.930 . S
H998 C1011 0.929 . S
H999 C1009 0.929 . S
H1000 C1004 0.929 . S
H1001 C1010 0.929 . S
C1002 H996 0.930 . S
C1002 C1003 1.367 . S
C1002 C1010 1.378 . S
C1003 C1002 1.367 . S
C1003 C1011 1.433 . S
C1004 H1000 0.929 . S
C1004 C1006 1.378 . S
C1004 C1008 1.350 . S
C1005 C1008 1.463 . S
C1005 C1010 1.350 . S
C1005 N1013 1.427 . S
C1006 H997 0.930 . S
C1006 C1004 1.378 . S
C1006 C1007 1.367 . S
C1007 C1006 1.367 . S
C1007 C1009 1.433 . S
C1008 C1004 1.350 . S
C1008 C1005 1.463 . S
C1008 N1012 1.427 . S
C1009 H999 0.929 . S
C1009 C1007 1.433 . S
C1009 N1012 1.384 . S
C1010 H1001 0.929 . S
C1010 C1002 1.378 . S
C1010 C1005 1.350 . S
C1011 H998 0.929 . S
C1011 C1003 1.433 . S
C1011 N1013 1.384 . S
N1012 C1008 1.427 . S
N1012 C1009 1.384 . S
N1013 C1005 1.427 . S
N1013 C1011 1.384 . S
H1014 C1020 0.930 . S
H1015 C1024 0.930 . S
H1016 C1029 0.929 . S
H1017 C1027 0.929 . S
H1018 C1022 0.929 . S
H1019 C1028 0.929 . S
C1020 H1014 0.930 . S
C1020 C1021 1.367 . S
C1020 C1028 1.378 . S
C1021 C1020 1.367 . S
C1021 C1029 1.433 . S
C1022 H1018 0.929 . S
C1022 C1024 1.378 . S
C1022 C1026 1.350 . S
C1023 C1026 1.463 . S
C1023 C1028 1.350 . S
C1023 N1031 1.427 . S
C1024 H1015 0.930 . S
C1024 C1022 1.378 . S
C1024 C1025 1.367 . S
C1025 C1024 1.367 . S
C1025 C1027 1.433 . S
C1026 C1022 1.350 . S
C1026 C1023 1.463 . S
C1026 N1030 1.427 . S
C1027 H1017 0.929 . S
C1027 C1025 1.433 . S
C1027 N1030 1.384 . S
C1028 H1019 0.929 . S
C1028 C1020 1.378 . S
C1028 C1023 1.350 . S
C1029 H1016 0.929 . S
C1029 C1021 1.433 . S
C1029 N1031 1.384 . S
N1030 C1026 1.427 . S
N1030 C1027 1.384 . S
N1031 C1023 1.427 . S
N1031 C1029 1.384 . S
H1032 C1038 0.930 . S
H1033 C1042 0.930 . S
H1034 C1047 0.929 . S
H1035 C1045 0.929 . S
H1036 C1040 0.929 . S
H1037 C1046 0.929 . S
C1038 H1032 0.930 . S
C1038 C1039 1.367 . S
C1038 C1046 1.378 . S
C1039 C1038 1.367 . S
C1039 C1047 1.433 . S
C1040 H1036 0.929 . S
C1040 C1042 1.378 . S
C1040 C1044 1.350 . S
C1041 C1044 1.463 . S
C1041 C1046 1.350 . S
C1041 N1049 1.427 . S
C1042 H1033 0.930 . S
C1042 C1040 1.378 . S
C1042 C1043 1.367 . S
C1043 C1042 1.367 . S
C1043 C1045 1.433 . S
C1044 C1040 1.350 . S
C1044 C1041 1.463 . S
C1044 N1048 1.427 . S
C1045 H1035 0.929 . S
C1045 C1043 1.433 . S
C1045 N1048 1.384 . S
C1046 H1037 0.929 . S
C1046 C1038 1.378 . S
C1046 C1041 1.350 . S
C1047 H1034 0.929 . S
C1047 C1039 1.433 . S
C1047 N1049 1.384 . S
N1048 C1044 1.427 . S
N1048 C1045 1.384 . S
N1049 C1041 1.427 . S
N1049 C1047 1.384 . S
H1050 C1056 0.930 . S
H1051 C1060 0.930 . S
H1052 C1065 0.929 . S
H1053 C1063 0.929 . S
H1054 C1058 0.929 . S
H1055 C1064 0.929 . S
C1056 H1050 0.930 . S
C1056 C1057 1.367 . S
C1056 C1064 1.378 . S
C1057 C1056 1.367 . S
C1057 C1065 1.433 . S
C1058 H1054 0.929 . S
C1058 C1060 1.378 . S
C1058 C1062 1.350 . S
C1059 C1062 1.463 . S
C1059 C1064 1.350 . S
C1059 N1067 1.427 . S
C1060 H1051 0.930 . S
C1060 C1058 1.378 . S
C1060 C1061 1.367 . S
C1061 C1060 1.367 . S
C1061 C1063 1.433 . S
C1062 C1058 1.350 . S
C1062 C1059 1.463 . S
C1062 N1066 1.427 . S
C1063 H1053 0.929 . S
C1063 C1061 1.433 . S
C1063 N1066 1.384 . S
C1064 H1055 0.929 . S
C1064 C1056 1.378 . S
C1064 C1059 1.350 . S
C1065 H1052 0.929 . S
C1065 C1057 1.433 . S
C1065 N1067 1.384 . S
N1066 C1062 1.427 . S
N1066 C1063 1.384 . S
N1067 C1059 1.427 . S
N1067 C1065 1.384 . S
H1068 C1074 0.930 . S
H1069 C1078 0.930 . S
H1070 C1083 0.929 . S
H1071 C1081 0.929 . S
H1072 C1076 0.929 . S
H1073 C1082 0.929 . S
C1074 H1068 0.930 . S
C1074 C1075 1.367 . S
C1074 C1082 1.378 . S
C1075 C1074 1.367 . S
C1075 C1083 1.433 . S
C1076 H1072 0.929 . S
C1076 C1078 1.378 . S
C1076 C1080 1.350 . S
C1077 C1080 1.463 . S
C1077 C1082 1.350 . S
C1077 N1085 1.427 . S
C1078 H1069 0.930 . S
C1078 C1076 1.378 . S
C1078 C1079 1.367 . S
C1079 C1078 1.367 . S
C1079 C1081 1.433 . S
C1080 C1076 1.350 . S
C1080 C1077 1.463 . S
C1080 N1084 1.427 . S
C1081 H1071 0.929 . S
C1081 C1079 1.433 . S
C1081 N1084 1.384 . S
C1082 H1073 0.929 . S
C1082 C1074 1.378 . S
C1082 C1077 1.350 . S
C1083 H1070 0.929 . S
C1083 C1075 1.433 . S
C1083 N1085 1.384 . S
N1084 C1080 1.427 . S
N1084 C1081 1.384 . S
N1085 C1077 1.427 . S
N1085 C1083 1.384 . S
H1086 C1092 0.930 . S
H1087 C1096 0.930 . S
H1088 C1101 0.929 . S
H1089 C1099 0.929 . S
H1090 C1094 0.929 . S
H1091 C1100 0.929 . S
C1092 H1086 0.930 . S
C1092 C1093 1.367 . S
C1092 C1100 1.378 . S
C1093 C1092 1.367 . S
C1093 C1101 1.433 . S
C1094 H1090 0.929 . S
C1094 C1096 1.378 . S
C1094 C1098 1.350 . S
C1095 C1098 1.463 . S
C1095 C1100 1.350 . S
C1095 N1103 1.427 . S
C1096 H1087 0.930 . S
C1096 C1094 1.378 . S
C1096 C1097 1.367 . S
C1097 C1096 1.367 . S
C1097 C1099 1.433 . S
C1098 C1094 1.350 . S
C1098 C1095 1.463 . S
C1098 N1102 1.427 . S
C1099 H1089 0.929 . S
C1099 C1097 1.433 . S
C1099 N1102 1.384 . S
C1100 H1091 0.929 . S
C1100 C1092 1.378 . S
C1100 C1095 1.350 . S
C1101 H1088 0.929 . S
C1101 C1093 1.433 . S
C1101 N1103 1.384 . S
N1102 C1098 1.427 . S
N1102 C1099 1.384 . S
N1103 C1095 1.427 . S
N1103 C1101 1.384 . S
H1104 C1110 0.930 . S
H1105 C1114 0.930 . S
H1106 C1119 0.929 . S
H1107 C1117 0.929 . S
H1108 C1112 0.929 . S
H1109 C1118 0.929 . S
C1110 H1104 0.930 . S
C1110 C1111 1.367 . S
C1110 C1118 1.378 . S
C1111 C1110 1.367 . S
C1111 C1119 1.433 . S
C1112 H1108 0.929 . S
C1112 C1114 1.378 . S
C1112 C1116 1.350 . S
C1113 C1116 1.463 1_655 S
C1113 C1118 1.350 . S
C1113 N1121 1.427 . S
C1114 H1105 0.930 . S
C1114 C1112 1.378 . S
C1114 C1115 1.367 . S
C1115 C1114 1.367 . S
C1115 C1117 1.433 . S
C1116 C1112 1.350 . S
C1116 C1113 1.463 1_455 S
C1116 N1120 1.427 . S
C1117 H1107 0.929 . S
C1117 C1115 1.433 . S
C1117 N1120 1.384 . S
C1118 H1109 0.929 . S
C1118 C1110 1.378 . S
C1118 C1113 1.350 . S
C1119 H1106 0.929 . S
C1119 C1111 1.433 . S
C1119 N1121 1.384 . S
N1120 C1116 1.427 . S
N1120 C1117 1.384 . S
N1121 C1113 1.427 . S
N1121 C1119 1.384 . S
H1122 C1128 0.930 1_545 S
H1123 C1132 0.930 1_565 S
H1124 C1137 0.929 . S
H1125 C1135 0.929 . S
H1126 C1130 0.929 . S
H1127 C1136 0.929 . S
C1128 H1122 0.930 1_565 S
C1128 C1129 1.367 . S
C1128 C1136 1.378 1_565 S
C1129 C1128 1.367 . S
C1129 C1137 1.433 . S
C1130 H1126 0.929 . S
C1130 C1132 1.378 1_565 S
C1130 C1134 1.350 1_565 S
C1131 C1134 1.463 1_565 S
C1131 C1136 1.350 1_565 S
C1131 N1139 1.427 . S
C1132 H1123 0.930 1_545 S
C1132 C1130 1.378 1_545 S
C1132 C1133 1.367 . S
C1133 C1132 1.367 . S
C1133 C1135 1.433 . S
C1134 C1130 1.350 1_545 S
C1134 C1131 1.463 1_545 S
C1134 N1138 1.427 . S
C1135 H1125 0.929 . S
C1135 C1133 1.433 . S
C1135 N1138 1.384 . S
C1136 H1127 0.929 . S
C1136 C1128 1.378 1_545 S
C1136 C1131 1.350 1_545 S
C1137 H1124 0.929 . S
C1137 C1129 1.433 . S
C1137 N1139 1.384 . S
N1138 C1134 1.427 . S
N1138 C1135 1.384 . S
N1139 C1131 1.427 . S
N1139 C1137 1.384 . S
H1140 C1146 0.932 . S
H1141 C1150 0.932 . S
H1142 C1155 0.929 . S
H1143 C1153 0.929 . S
H1144 C1148 0.929 . S
H1145 C1154 0.929 . S
C1146 H1140 0.932 . S
C1146 C1147 1.364 1_455 S
C1146 C1154 1.379 . S
C1147 C1146 1.364 1_655 S
C1147 C1155 1.433 . S
C1148 H1144 0.929 . S
C1148 C1150 1.379 . S
C1148 C1152 1.350 1_655 S
C1149 C1152 1.463 1_655 S
C1149 C1154 1.350 1_655 S
C1149 N1157 1.427 . S
C1150 H1141 0.932 . S
C1150 C1148 1.379 . S
C1150 C1151 1.364 1_655 S
C1151 C1150 1.364 1_455 S
C1151 C1153 1.433 . S
C1152 C1148 1.350 1_455 S
C1152 C1149 1.463 1_455 S
C1152 N1156 1.427 . S
C1153 H1143 0.929 . S
C1153 C1151 1.433 . S
C1153 N1156 1.384 . S
C1154 H1145 0.929 . S
C1154 C1146 1.379 . S
C1154 C1149 1.350 1_455 S
C1155 H1142 0.929 . S
C1155 C1147 1.433 . S
C1155 N1157 1.384 . S
N1156 C1152 1.427 . S
N1156 C1153 1.384 . S
N1157 C1149 1.427 . S
N1157 C1155 1.384 . S
H1158 C1164 0.930 . S
H1159 C1168 0.930 . S
H1160 C1173 0.929 . S
H1161 C1171 0.929 . S
H1162 C1166 0.929 . S
H1163 C1172 0.929 . S
C1164 H1158 0.930 . S
C1164 C1165 1.367 1_565 S
C1164 C1172 1.378 . S
C1165 C1164 1.367 1_545 S
C1165 C1173 1.433 . S
C1166 H1162 0.929 . S
C1166 C1168 1.378 . S
C1166 C1170 1.350 1_545 S
C1167 C1170 1.463 1_545 S
C1167 C1172 1.350 1_545 S
C1167 N1175 1.427 . S
C1168 H1159 0.930 . S
C1168 C1166 1.378 . S
C1168 C1169 1.367 1_545 S
C1169 C1168 1.367 1_565 S
C1169 C1171 1.433 . S
C1170 C1166 1.350 1_565 S
C1170 C1167 1.463 1_565 S
C1170 N1174 1.427 . S
C1171 H1161 0.929 . S
C1171 C1169 1.433 . S
C1171 N1174 1.384 . S
C1172 H1163 0.929 . S
C1172 C1164 1.378 . S
C1172 C1167 1.350 1_565 S
C1173 H1160 0.929 . S
C1173 C1165 1.433 . S
C1173 N1175 1.384 . S
N1174 C1170 1.427 . S
N1174 C1171 1.384 . S
N1175 C1167 1.427 . S
N1175 C1173 1.384 . S
H1176 C1182 0.930 . S
H1177 C1186 0.930 . S
H1178 C1191 0.929 . S
H1179 C1189 0.929 . S
H1180 C1184 0.929 . S
H1181 C1190 0.929 . S
C1182 H1176 0.930 . S
C1182 C1183 1.367 . S
C1182 C1190 1.378 . S
C1183 C1182 1.367 . S
C1183 C1191 1.433 . S
C1184 H1180 0.929 . S
C1184 C1186 1.378 . S
C1184 C1188 1.350 . S
C1185 C1188 1.463 1_455 S
C1185 C1190 1.350 . S
C1185 N1193 1.427 . S
C1186 H1177 0.930 . S
C1186 C1184 1.378 . S
C1186 C1187 1.367 . S
C1187 C1186 1.367 . S
C1187 C1189 1.433 . S
C1188 C1184 1.350 . S
C1188 C1185 1.463 1_655 S
C1188 N1192 1.427 . S
C1189 H1179 0.929 . S
C1189 C1187 1.433 . S
C1189 N1192 1.384 . S
C1190 H1181 0.929 . S
C1190 C1182 1.378 . S
C1190 C1185 1.350 . S
C1191 H1178 0.929 . S
C1191 C1183 1.433 . S
C1191 N1193 1.384 . S
N1192 C1188 1.427 . S
N1192 C1189 1.384 . S
N1193 C1185 1.427 . S
N1193 C1191 1.384 . S
H1194 C1200 0.930 . S
H1195 C1204 0.930 . S
H1196 C1209 0.929 . S
H1197 C1207 0.929 . S
H1198 C1202 0.929 . S
H1199 C1208 0.929 . S
C1200 H1194 0.930 . S
C1200 C1201 1.367 1_545 S
C1200 C1208 1.378 . S
C1201 C1200 1.367 1_565 S
C1201 C1209 1.433 . S
C1202 H1198 0.929 . S
C1202 C1204 1.378 . S
C1202 C1206 1.350 1_565 S
C1203 C1206 1.463 1_565 S
C1203 C1208 1.350 1_565 S
C1203 N1211 1.427 . S
C1204 H1195 0.930 . S
C1204 C1202 1.378 . S
C1204 C1205 1.367 1_565 S
C1205 C1204 1.367 1_545 S
C1205 C1207 1.433 . S
C1206 C1202 1.350 1_545 S
C1206 C1203 1.463 1_545 S
C1206 N1210 1.427 . S
C1207 H1197 0.929 . S
C1207 C1205 1.433 . S
C1207 N1210 1.384 . S
C1208 H1199 0.929 . S
C1208 C1200 1.378 . S
C1208 C1203 1.350 1_545 S
C1209 H1196 0.929 . S
C1209 C1201 1.433 . S
C1209 N1211 1.384 . S
N1210 C1206 1.427 . S
N1210 C1207 1.384 . S
N1211 C1203 1.427 . S
N1211 C1209 1.384 . S
H1212 C1218 0.930 . S
H1213 C1222 0.930 . S
H1214 C1227 0.929 . S
H1215 C1225 0.929 . S
H1216 C1220 0.929 . S
H1217 C1226 0.929 . S
C1218 H1212 0.930 . S
C1218 C1219 1.367 1_655 S
C1218 C1226 1.378 . S
C1219 C1218 1.367 1_455 S
C1219 C1227 1.433 . S
C1220 H1216 0.929 . S
C1220 C1222 1.378 . S
C1220 C1224 1.350 1_455 S
C1221 C1224 1.463 1_455 S
C1221 C1226 1.350 1_455 S
C1221 N1229 1.427 . S
C1222 H1213 0.930 . S
C1222 C1220 1.378 . S
C1222 C1223 1.367 1_455 S
C1223 C1222 1.367 1_655 S
C1223 C1225 1.433 . S
C1224 C1220 1.350 1_655 S
C1224 C1221 1.463 1_655 S
C1224 N1228 1.427 . S
C1225 H1215 0.929 . S
C1225 C1223 1.433 . S
C1225 N1228 1.384 . S
C1226 H1217 0.929 . S
C1226 C1218 1.378 . S
C1226 C1221 1.350 1_655 S
C1227 H1214 0.929 . S
C1227 C1219 1.433 . S
C1227 N1229 1.384 . S
N1228 C1224 1.427 . S
N1228 C1225 1.384 . S
N1229 C1221 1.427 . S
N1229 C1227 1.384 . S
H1230 C1236 0.930 . S
H1231 C1240 0.930 . S
H1232 C1245 0.929 . S
H1233 C1243 0.929 . S
H1234 C1238 0.929 . S
H1235 C1244 0.929 . S
C1236 H1230 0.930 . S
C1236 C1237 1.367 . S
C1236 C1244 1.378 . S
C1237 C1236 1.367 . S
C1237 C1245 1.433 1_545 S
C1238 H1234 0.929 . S
C1238 C1240 1.378 . S
C1238 C1242 1.350 . S
C1239 C1242 1.463 1_545 S
C1239 C1244 1.350 . S
C1239 N1247 1.427 1_545 S
C1240 H1231 0.930 . S
C1240 C1238 1.378 . S
C1240 C1241 1.367 . S
C1241 C1240 1.367 . S
C1241 C1243 1.433 1_565 S
C1242 C1238 1.350 . S
C1242 C1239 1.463 1_565 S
C1242 N1246 1.427 1_565 S
C1243 H1233 0.929 . S
C1243 C1241 1.433 1_545 S
C1243 N1246 1.384 . S
C1244 H1235 0.929 . S
C1244 C1236 1.378 . S
C1244 C1239 1.350 . S
C1245 H1232 0.929 . S
C1245 C1237 1.433 1_565 S
C1245 N1247 1.384 . S
N1246 C1242 1.427 1_545 S
N1246 C1243 1.384 . S
N1247 C1239 1.427 1_565 S
N1247 C1245 1.384 . S
H1248 C1254 0.930 . S
H1249 C1258 0.930 . S
H1250 C1263 0.929 . S
H1251 C1261 0.929 . S
H1252 C1256 0.929 . S
H1253 C1262 0.929 . S
C1254 H1248 0.930 . S
C1254 C1255 1.367 1_554 S
C1254 C1262 1.378 . S
C1255 C1254 1.367 1_556 S
C1255 C1263 1.433 . S
C1256 H1252 0.929 . S
C1256 C1258 1.378 . S
C1256 C1260 1.350 1_556 S
C1257 C1260 1.463 1_556 S
C1257 C1262 1.350 1_556 S
C1257 N1265 1.427 . S
C1258 H1249 0.930 . S
C1258 C1256 1.378 . S
C1258 C1259 1.367 1_556 S
C1259 C1258 1.367 1_554 S
C1259 C1261 1.433 . S
C1260 C1256 1.350 1_554 S
C1260 C1257 1.463 1_554 S
C1260 N1264 1.427 . S
C1261 H1251 0.929 . S
C1261 C1259 1.433 . S
C1261 N1264 1.384 . S
C1262 H1253 0.929 . S
C1262 C1254 1.378 . S
C1262 C1257 1.350 1_554 S
C1263 H1250 0.929 . S
C1263 C1255 1.433 . S
C1263 N1265 1.384 . S
N1264 C1260 1.427 . S
N1264 C1261 1.384 . S
N1265 C1257 1.427 . S
N1265 C1263 1.384 . S
H1266 C1272 0.930 . S
H1267 C1276 0.930 . S
H1268 C1281 0.929 . S
H1269 C1279 0.929 . S
H1270 C1274 0.929 . S
H1271 C1280 0.929 . S
C1272 H1266 0.930 . S
C1272 C1273 1.367 1_556 S
C1272 C1280 1.378 . S
C1273 C1272 1.367 1_554 S
C1273 C1281 1.433 . S
C1274 H1270 0.929 . S
C1274 C1276 1.378 . S
C1274 C1278 1.350 1_554 S
C1275 C1278 1.463 1_554 S
C1275 C1280 1.350 1_554 S
C1275 N1283 1.427 . S
C1276 H1267 0.930 . S
C1276 C1274 1.378 . S
C1276 C1277 1.367 1_554 S
C1277 C1276 1.367 1_556 S
C1277 C1279 1.433 . S
C1278 C1274 1.350 1_556 S
C1278 C1275 1.463 1_556 S
C1278 N1282 1.427 . S
C1279 H1269 0.929 . S
C1279 C1277 1.433 . S
C1279 N1282 1.384 . S
C1280 H1271 0.929 . S
C1280 C1272 1.378 . S
C1280 C1275 1.350 1_556 S
C1281 H1268 0.929 . S
C1281 C1273 1.433 . S
C1281 N1283 1.384 . S
N1282 C1278 1.427 . S
N1282 C1279 1.384 . S
N1283 C1275 1.427 . S
N1283 C1281 1.384 . S
H1284 C1290 0.930 . S
H1285 C1294 0.930 . S
H1286 C1299 0.929 . S
H1287 C1297 0.929 . S
H1288 C1292 0.929 . S
H1289 C1298 0.929 . S
C1290 H1284 0.930 . S
C1290 C1291 1.367 1_556 S
C1290 C1298 1.378 . S
C1291 C1290 1.367 1_554 S
C1291 C1299 1.433 . S
C1292 H1288 0.929 . S
C1292 C1294 1.378 . S
C1292 C1296 1.350 1_554 S
C1293 C1296 1.463 1_554 S
C1293 C1298 1.350 1_554 S
C1293 N1301 1.427 . S
C1294 H1285 0.930 . S
C1294 C1292 1.378 . S
C1294 C1295 1.367 1_554 S
C1295 C1294 1.367 1_556 S
C1295 C1297 1.433 . S
C1296 C1292 1.350 1_556 S
C1296 C1293 1.463 1_556 S
C1296 N1300 1.427 . S
C1297 H1287 0.929 . S
C1297 C1295 1.433 . S
C1297 N1300 1.384 . S
C1298 H1289 0.929 . S
C1298 C1290 1.378 . S
C1298 C1293 1.350 1_556 S
C1299 H1286 0.929 . S
C1299 C1291 1.433 . S
C1299 N1301 1.384 . S
N1300 C1296 1.427 . S
N1300 C1297 1.384 . S
N1301 C1293 1.427 . S
N1301 C1299 1.384 . S
H1302 C1308 0.930 . S
H1303 C1312 0.930 . S
H1304 C1317 0.929 . S
H1305 C1315 0.929 . S
H1306 C1310 0.929 . S
H1307 C1316 0.929 . S
C1308 H1302 0.930 . S
C1308 C1309 1.367 . S
C1308 C1316 1.378 . S
C1309 C1308 1.367 . S
C1309 C1317 1.433 1_556 S
C1310 H1306 0.929 . S
C1310 C1312 1.378 . S
C1310 C1314 1.350 . S
C1311 C1314 1.463 1_556 S
C1311 C1316 1.350 . S
C1311 N1319 1.427 1_556 S
C1312 H1303 0.930 . S
C1312 C1310 1.378 . S
C1312 C1313 1.367 . S
C1313 C1312 1.367 . S
C1313 C1315 1.433 1_554 S
C1314 C1310 1.350 . S
C1314 C1311 1.463 1_554 S
C1314 N1318 1.427 1_554 S
C1315 H1305 0.929 . S
C1315 C1313 1.433 1_556 S
C1315 N1318 1.384 . S
C1316 H1307 0.929 . S
C1316 C1308 1.378 . S
C1316 C1311 1.350 . S
C1317 H1304 0.929 . S
C1317 C1309 1.433 1_554 S
C1317 N1319 1.384 . S
N1318 C1314 1.427 1_556 S
N1318 C1315 1.384 . S
N1319 C1311 1.427 1_554 S
N1319 C1317 1.384 . S
H1320 C1326 0.930 . S
H1321 C1330 0.930 . S
H1322 C1335 0.929 . S
H1323 C1333 0.929 . S
H1324 C1328 0.929 . S
H1325 C1334 0.929 . S
C1326 H1320 0.930 . S
C1326 C1327 1.367 . S
C1326 C1334 1.378 . S
C1327 C1326 1.367 . S
C1327 C1335 1.433 . S
C1328 H1324 0.929 . S
C1328 C1330 1.378 . S
C1328 C1332 1.350 . S
C1329 C1332 1.463 . S
C1329 C1334 1.350 . S
C1329 N1337 1.427 . S
C1330 H1321 0.930 . S
C1330 C1328 1.378 . S
C1330 C1331 1.367 . S
C1331 C1330 1.367 . S
C1331 C1333 1.433 . S
C1332 C1328 1.350 . S
C1332 C1329 1.463 . S
C1332 N1336 1.427 . S
C1333 H1323 0.929 . S
C1333 C1331 1.433 . S
C1333 N1336 1.384 . S
C1334 H1325 0.929 . S
C1334 C1326 1.378 . S
C1334 C1329 1.350 . S
C1335 H1322 0.929 . S
C1335 C1327 1.433 . S
C1335 N1337 1.384 . S
N1336 C1332 1.427 . S
N1336 C1333 1.384 . S
N1337 C1329 1.427 . S
N1337 C1335 1.384 . S
H1338 C1344 0.930 . S
H1339 C1348 0.930 . S
H1340 C1353 0.929 . S
H1341 C1351 0.929 . S
H1342 C1346 0.929 . S
H1343 C1352 0.929 . S
C1344 H1338 0.930 . S
C1344 C1345 1.367 . S
C1344 C1352 1.378 . S
C1345 C1344 1.367 . S
C1345 C1353 1.433 . S
C1346 H1342 0.929 . S
C1346 C1348 1.378 . S
C1346 C1350 1.350 . S
C1347 C1350 1.463 . S
C1347 C1352 1.350 . S
C1347 N1355 1.427 . S
C1348 H1339 0.930 . S
C1348 C1346 1.378 . S
C1348 C1349 1.367 . S
C1349 C1348 1.367 . S
C1349 C1351 1.433 . S
C1350 C1346 1.350 . S
C1350 C1347 1.463 . S
C1350 N1354 1.427 . S
C1351 H1341 0.929 . S
C1351 C1349 1.433 . S
C1351 N1354 1.384 . S
C1352 H1343 0.929 . S
C1352 C1344 1.378 . S
C1352 C1347 1.350 . S
C1353 H1340 0.929 . S
C1353 C1345 1.433 . S
C1353 N1355 1.384 . S
N1354 C1350 1.427 . S
N1354 C1351 1.384 . S
N1355 C1347 1.427 . S
N1355 C1353 1.384 . S
H1356 C1362 0.930 . S
H1357 C1366 0.930 . S
H1358 C1371 0.929 . S
H1359 C1369 0.929 . S
H1360 C1364 0.929 . S
H1361 C1370 0.929 . S
C1362 H1356 0.930 . S
C1362 C1363 1.367 . S
C1362 C1370 1.378 . S
C1363 C1362 1.367 . S
C1363 C1371 1.433 . S
C1364 H1360 0.929 . S
C1364 C1366 1.378 . S
C1364 C1368 1.350 . S
C1365 C1368 1.463 . S
C1365 C1370 1.350 . S
C1365 N1373 1.427 . S
C1366 H1357 0.930 . S
C1366 C1364 1.378 . S
C1366 C1367 1.367 . S
C1367 C1366 1.367 . S
C1367 C1369 1.433 . S
C1368 C1364 1.350 . S
C1368 C1365 1.463 . S
C1368 N1372 1.427 . S
C1369 H1359 0.929 . S
C1369 C1367 1.433 . S
C1369 N1372 1.384 . S
C1370 H1361 0.929 . S
C1370 C1362 1.378 . S
C1370 C1365 1.350 . S
C1371 H1358 0.929 . S
C1371 C1363 1.433 . S
C1371 N1373 1.384 . S
N1372 C1368 1.427 . S
N1372 C1369 1.384 . S
N1373 C1365 1.427 . S
N1373 C1371 1.384 . S
H1374 C1380 0.930 . S
H1375 C1384 0.930 . S
H1376 C1389 0.929 . S
H1377 C1387 0.929 . S
H1378 C1382 0.929 . S
H1379 C1388 0.929 . S
C1380 H1374 0.930 . S
C1380 C1381 1.367 . S
C1380 C1388 1.378 . S
C1381 C1380 1.367 . S
C1381 C1389 1.433 . S
C1382 H1378 0.929 . S
C1382 C1384 1.378 . S
C1382 C1386 1.350 . S
C1383 C1386 1.463 . S
C1383 C1388 1.350 . S
C1383 N1391 1.427 . S
C1384 H1375 0.930 . S
C1384 C1382 1.378 . S
C1384 C1385 1.367 . S
C1385 C1384 1.367 . S
C1385 C1387 1.433 . S
C1386 C1382 1.350 . S
C1386 C1383 1.463 . S
C1386 N1390 1.427 . S
C1387 H1377 0.929 . S
C1387 C1385 1.433 . S
C1387 N1390 1.384 . S
C1388 H1379 0.929 . S
C1388 C1380 1.378 . S
C1388 C1383 1.350 . S
C1389 H1376 0.929 . S
C1389 C1381 1.433 . S
C1389 N1391 1.384 . S
N1390 C1386 1.427 . S
N1390 C1387 1.384 . S
N1391 C1383 1.427 . S
N1391 C1389 1.384 . S
H1392 C1398 0.930 . S
H1393 C1402 0.930 . S
H1394 C1407 0.929 . S
H1395 C1405 0.929 . S
H1396 C1400 0.929 . S
H1397 C1406 0.929 . S
C1398 H1392 0.930 . S
C1398 C1399 1.367 . S
C1398 C1406 1.378 . S
C1399 C1398 1.367 . S
C1399 C1407 1.433 . S
C1400 H1396 0.929 . S
C1400 C1402 1.378 . S
C1400 C1404 1.350 . S
C1401 C1404 1.463 . S
C1401 C1406 1.350 . S
C1401 N1409 1.427 . S
C1402 H1393 0.930 . S
C1402 C1400 1.378 . S
C1402 C1403 1.367 . S
C1403 C1402 1.367 . S
C1403 C1405 1.433 . S
C1404 C1400 1.350 . S
C1404 C1401 1.463 . S
C1404 N1408 1.427 . S
C1405 H1395 0.929 . S
C1405 C1403 1.433 . S
C1405 N1408 1.384 . S
C1406 H1397 0.929 . S
C1406 C1398 1.378 . S
C1406 C1401 1.350 . S
C1407 H1394 0.929 . S
C1407 C1399 1.433 . S
C1407 N1409 1.384 . S
N1408 C1404 1.427 . S
N1408 C1405 1.384 . S
N1409 C1401 1.427 . S
N1409 C1407 1.384 . S
H1410 C1416 0.930 . S
H1411 C1420 0.930 . S
H1412 C1425 0.929 . S
H1413 C1423 0.929 . S
H1414 C1418 0.929 . S
H1415 C1424 0.929 . S
C1416 H1410 0.930 . S
C1416 C1417 1.367 . S
C1416 C1424 1.378 . S
C1417 C1416 1.367 . S
C1417 C1425 1.433 . S
C1418 H1414 0.929 . S
C1418 C1420 1.378 . S
C1418 C1422 1.350 . S
C1419 C1422 1.463 . S
C1419 C1424 1.350 . S
C1419 N1427 1.427 . S
C1420 H1411 0.930 . S
C1420 C1418 1.378 . S
C1420 C1421 1.367 . S
C1421 C1420 1.367 . S
C1421 C1423 1.433 . S
C1422 C1418 1.350 . S
C1422 C1419 1.463 . S
C1422 N1426 1.427 . S
C1423 H1413 0.929 . S
C1423 C1421 1.433 . S
C1423 N1426 1.384 . S
C1424 H1415 0.929 . S
C1424 C1416 1.378 . S
C1424 C1419 1.350 . S
C1425 H1412 0.929 . S
C1425 C1417 1.433 . S
C1425 N1427 1.384 . S
N1426 C1422 1.427 . S
N1426 C1423 1.384 . S
N1427 C1419 1.427 . S
N1427 C1425 1.384 . S
H1428 C1434 0.930 . S
H1429 C1438 0.930 . S
H1430 C1443 0.929 . S
H1431 C1441 0.929 . S
H1432 C1436 0.929 . S
H1433 C1442 0.929 . S
C1434 H1428 0.930 . S
C1434 C1435 1.367 . S
C1434 C1442 1.378 . S
C1435 C1434 1.367 . S
C1435 C1443 1.433 . S
C1436 H1432 0.929 . S
C1436 C1438 1.378 . S
C1436 C1440 1.350 . S
C1437 C1440 1.463 . S
C1437 C1442 1.350 . S
C1437 N1445 1.427 . S
C1438 H1429 0.930 . S
C1438 C1436 1.378 . S
C1438 C1439 1.367 . S
C1439 C1438 1.367 . S
C1439 C1441 1.433 . S
C1440 C1436 1.350 . S
C1440 C1437 1.463 . S
C1440 N1444 1.427 . S
C1441 H1431 0.929 . S
C1441 C1439 1.433 . S
C1441 N1444 1.384 . S
C1442 H1433 0.929 . S
C1442 C1434 1.378 . S
C1442 C1437 1.350 . S
C1443 H1430 0.929 . S
C1443 C1435 1.433 . S
C1443 N1445 1.384 . S
N1444 C1440 1.427 . S
N1444 C1441 1.384 . S
N1445 C1437 1.427 . S
N1445 C1443 1.384 . S
H1446 C1452 0.930 . S
H1447 C1456 0.930 . S
H1448 C1461 0.929 . S
H1449 C1459 0.929 . S
H1450 C1454 0.929 . S
H1451 C1460 0.929 . S
C1452 H1446 0.930 . S
C1452 C1453 1.367 . S
C1452 C1460 1.378 . S
C1453 C1452 1.367 . S
C1453 C1461 1.433 . S
C1454 H1450 0.929 . S
C1454 C1456 1.378 . S
C1454 C1458 1.350 . S
C1455 C1458 1.463 . S
C1455 C1460 1.350 . S
C1455 N1463 1.427 . S
C1456 H1447 0.930 . S
C1456 C1454 1.378 . S
C1456 C1457 1.367 . S
C1457 C1456 1.367 . S
C1457 C1459 1.433 . S
C1458 C1454 1.350 . S
C1458 C1455 1.463 . S
C1458 N1462 1.427 . S
C1459 H1449 0.929 . S
C1459 C1457 1.433 . S
C1459 N1462 1.384 . S
C1460 H1451 0.929 . S
C1460 C1452 1.378 . S
C1460 C1455 1.350 . S
C1461 H1448 0.929 . S
C1461 C1453 1.433 . S
C1461 N1463 1.384 . S
N1462 C1458 1.427 . S
N1462 C1459 1.384 . S
N1463 C1455 1.427 . S
N1463 C1461 1.384 . S
H1464 C1470 0.930 . S
H1465 C1474 0.930 . S
H1466 C1479 0.929 . S
H1467 C1477 0.929 . S
H1468 C1472 0.929 . S
H1469 C1478 0.929 . S
C1470 H1464 0.930 . S
C1470 C1471 1.367 . S
C1470 C1478 1.378 . S
C1471 C1470 1.367 . S
C1471 C1479 1.433 . S
C1472 H1468 0.929 . S
C1472 C1474 1.378 . S
C1472 C1476 1.350 . S
C1473 C1476 1.463 . S
C1473 C1478 1.350 . S
C1473 N1481 1.427 . S
C1474 H1465 0.930 . S
C1474 C1472 1.378 . S
C1474 C1475 1.367 . S
C1475 C1474 1.367 . S
C1475 C1477 1.433 . S
C1476 C1472 1.350 . S
C1476 C1473 1.463 . S
C1476 N1480 1.427 . S
C1477 H1467 0.929 . S
C1477 C1475 1.433 . S
C1477 N1480 1.384 . S
C1478 H1469 0.929 . S
C1478 C1470 1.378 . S
C1478 C1473 1.350 . S
C1479 H1466 0.929 . S
C1479 C1471 1.433 . S
C1479 N1481 1.384 . S
N1480 C1476 1.427 . S
N1480 C1477 1.384 . S
N1481 C1473 1.427 . S
N1481 C1479 1.384 . S
H1482 C1488 0.930 . S
H1483 C1492 0.930 . S
H1484 C1497 0.929 . S
H1485 C1495 0.929 . S
H1486 C1490 0.929 . S
H1487 C1496 0.929 . S
C1488 H1482 0.930 . S
C1488 C1489 1.367 . S
C1488 C1496 1.378 . S
C1489 C1488 1.367 . S
C1489 C1497 1.433 . S
C1490 H1486 0.929 . S
C1490 C1492 1.378 . S
C1490 C1494 1.350 . S
C1491 C1494 1.463 . S
C1491 C1496 1.350 . S
C1491 N1499 1.427 . S
C1492 H1483 0.930 . S
C1492 C1490 1.378 . S
C1492 C1493 1.367 . S
C1493 C1492 1.367 . S
C1493 C1495 1.433 . S
C1494 C1490 1.350 . S
C1494 C1491 1.463 . S
C1494 N1498 1.427 . S
C1495 H1485 0.929 . S
C1495 C1493 1.433 . S
C1495 N1498 1.384 . S
C1496 H1487 0.929 . S
C1496 C1488 1.378 . S
C1496 C1491 1.350 . S
C1497 H1484 0.929 . S
C1497 C1489 1.433 . S
C1497 N1499 1.384 . S
N1498 C1494 1.427 . S
N1498 C1495 1.384 . S
N1499 C1491 1.427 . S
N1499 C1497 1.384 . S
H1500 C1506 0.930 . S
H1501 C1510 0.930 . S
H1502 C1515 0.929 . S
H1503 C1513 0.929 . S
H1504 C1508 0.929 . S
H1505 C1514 0.929 . S
C1506 H1500 0.930 . S
C1506 C1507 1.367 . S
C1506 C1514 1.378 . S
C1507 C1506 1.367 . S
C1507 C1515 1.433 . S
C1508 H1504 0.929 . S
C1508 C1510 1.378 . S
C1508 C1512 1.350 . S
C1509 C1512 1.463 . S
C1509 C1514 1.350 . S
C1509 N1517 1.427 . S
C1510 H1501 0.930 . S
C1510 C1508 1.378 . S
C1510 C1511 1.367 . S
C1511 C1510 1.367 . S
C1511 C1513 1.433 . S
C1512 C1508 1.350 . S
C1512 C1509 1.463 . S
C1512 N1516 1.427 . S
C1513 H1503 0.929 . S
C1513 C1511 1.433 . S
C1513 N1516 1.384 . S
C1514 H1505 0.929 . S
C1514 C1506 1.378 . S
C1514 C1509 1.350 . S
C1515 H1502 0.929 . S
C1515 C1507 1.433 . S
C1515 N1517 1.384 . S
N1516 C1512 1.427 . S
N1516 C1513 1.384 . S
N1517 C1509 1.427 . S
N1517 C1515 1.384 . S
H1518 C1524 0.930 . S
H1519 C1528 0.930 . S
H1520 C1533 0.929 . S
H1521 C1531 0.929 . S
H1522 C1526 0.929 . S
H1523 C1532 0.929 . S
C1524 H1518 0.930 . S
C1524 C1525 1.367 . S
C1524 C1532 1.378 . S
C1525 C1524 1.367 . S
C1525 C1533 1.433 . S
C1526 H1522 0.929 . S
C1526 C1528 1.378 . S
C1526 C1530 1.350 . S
C1527 C1530 1.463 . S
C1527 C1532 1.350 . S
C1527 N1535 1.427 . S
C1528 H1519 0.930 . S
C1528 C1526 1.378 . S
C1528 C1529 1.367 . S
C1529 C1528 1.367 . S
C1529 C1531 1.433 . S
C1530 C1526 1.350 . S
C1530 C1527 1.463 . S
C1530 N1534 1.427 . S
C1531 H1521 0.929 . S
C1531 C1529 1.433 . S
C1531 N1534 1.384 . S
C1532 H1523 0.929 . S
C1532 C1524 1.378 . S
C1532 C1527 1.350 . S
C1533 H1520 0.929 . S
C1533 C1525 1.433 . S
C1533 N1535 1.384 . S
N1534 C1530 1.427 . S
N1534 C1531 1.384 . S
N1535 C1527 1.427 . S
N1535 C1533 1.384 . S
H1536 C1542 0.930 . S
H1537 C1546 0.930 . S
H1538 C1551 0.929 . S
H1539 C1549 0.929 . S
H1540 C1544 0.929 . S
H1541 C1550 0.929 . S
C1542 H1536 0.930 . S
C1542 C1543 1.367 . S
C1542 C1550 1.378 . S
C1543 C1542 1.367 . S
C1543 C1551 1.433 . S
C1544 H1540 0.929 . S
C1544 C1546 1.378 . S
C1544 C1548 1.350 . S
C1545 C1548 1.463 . S
C1545 C1550 1.350 . S
C1545 N1553 1.427 . S
C1546 H1537 0.930 . S
C1546 C1544 1.378 . S
C1546 C1547 1.367 . S
C1547 C1546 1.367 . S
C1547 C1549 1.433 . S
C1548 C1544 1.350 . S
C1548 C1545 1.463 . S
C1548 N1552 1.427 . S
C1549 H1539 0.929 . S
C1549 C1547 1.433 . S
C1549 N1552 1.384 . S
C1550 H1541 0.929 . S
C1550 C1542 1.378 . S
C1550 C1545 1.350 . S
C1551 H1538 0.929 . S
C1551 C1543 1.433 . S
C1551 N1553 1.384 . S
N1552 C1548 1.427 . S
N1552 C1549 1.384 . S
N1553 C1545 1.427 . S
N1553 C1551 1.384 . S
H1554 C1560 0.930 . S
H1555 C1564 0.930 . S
H1556 C1569 0.929 . S
H1557 C1567 0.929 . S
H1558 C1562 0.929 . S
H1559 C1568 0.929 . S
C1560 H1554 0.930 . S
C1560 C1561 1.367 . S
C1560 C1568 1.378 . S
C1561 C1560 1.367 . S
C1561 C1569 1.433 . S
C1562 H1558 0.929 . S
C1562 C1564 1.378 . S
C1562 C1566 1.350 . S
C1563 C1566 1.463 . S
C1563 C1568 1.350 . S
C1563 N1571 1.427 . S
C1564 H1555 0.930 . S
C1564 C1562 1.378 . S
C1564 C1565 1.367 . S
C1565 C1564 1.367 . S
C1565 C1567 1.433 . S
C1566 C1562 1.350 . S
C1566 C1563 1.463 . S
C1566 N1570 1.427 . S
C1567 H1557 0.929 . S
C1567 C1565 1.433 . S
C1567 N1570 1.384 . S
C1568 H1559 0.929 . S
C1568 C1560 1.378 . S
C1568 C1563 1.350 . S
C1569 H1556 0.929 . S
C1569 C1561 1.433 . S
C1569 N1571 1.384 . S
N1570 C1566 1.427 . S
N1570 C1567 1.384 . S
N1571 C1563 1.427 . S
N1571 C1569 1.384 . S
H1572 C1578 0.930 . S
H1573 C1582 0.930 . S
H1574 C1587 0.929 . S
H1575 C1585 0.929 . S
H1576 C1580 0.929 . S
H1577 C1586 0.929 . S
C1578 H1572 0.930 . S
C1578 C1579 1.367 . S
C1578 C1586 1.378 . S
C1579 C1578 1.367 . S
C1579 C1587 1.433 . S
C1580 H1576 0.929 . S
C1580 C1582 1.378 . S
C1580 C1584 1.350 . S
C1581 C1584 1.463 . S
C1581 C1586 1.350 . S
C1581 N1589 1.427 . S
C1582 H1573 0.930 . S
C1582 C1580 1.378 . S
C1582 C1583 1.367 . S
C1583 C1582 1.367 . S
C1583 C1585 1.433 . S
C1584 C1580 1.350 . S
C1584 C1581 1.463 . S
C1584 N1588 1.427 . S
C1585 H1575 0.929 . S
C1585 C1583 1.433 . S
C1585 N1588 1.384 . S
C1586 H1577 0.929 . S
C1586 C1578 1.378 . S
C1586 C1581 1.350 . S
C1587 H1574 0.929 . S
C1587 C1579 1.433 . S
C1587 N1589 1.384 . S
N1588 C1584 1.427 . S
N1588 C1585 1.384 . S
N1589 C1581 1.427 . S
N1589 C1587 1.384 . S
H1590 C1596 0.930 . S
H1591 C1600 0.930 . S
H1592 C1605 0.929 . S
H1593 C1603 0.929 . S
H1594 C1598 0.929 . S
H1595 C1604 0.929 . S
C1596 H1590 0.930 . S
C1596 C1597 1.367 . S
C1596 C1604 1.378 . S
C1597 C1596 1.367 . S
C1597 C1605 1.433 . S
C1598 H1594 0.929 . S
C1598 C1600 1.378 . S
C1598 C1602 1.350 . S
C1599 C1602 1.463 . S
C1599 C1604 1.350 . S
C1599 N1607 1.427 . S
C1600 H1591 0.930 . S
C1600 C1598 1.378 . S
C1600 C1601 1.367 . S
C1601 C1600 1.367 . S
C1601 C1603 1.433 . S
C1602 C1598 1.350 . S
C1602 C1599 1.463 . S
C1602 N1606 1.427 . S
C1603 H1593 0.929 . S
C1603 C1601 1.433 . S
C1603 N1606 1.384 . S
C1604 H1595 0.929 . S
C1604 C1596 1.378 . S
C1604 C1599 1.350 . S
C1605 H1592 0.929 . S
C1605 C1597 1.433 . S
C1605 N1607 1.384 . S
N1606 C1602 1.427 . S
N1606 C1603 1.384 . S
N1607 C1599 1.427 . S
N1607 C1605 1.384 . S
H1608 C1614 0.930 . S
H1609 C1618 0.930 . S
H1610 C1623 0.929 . S
H1611 C1621 0.929 . S
H1612 C1616 0.929 . S
H1613 C1622 0.929 . S
C1614 H1608 0.930 . S
C1614 C1615 1.367 . S
C1614 C1622 1.378 . S
C1615 C1614 1.367 . S
C1615 C1623 1.433 . S
C1616 H1612 0.929 . S
C1616 C1618 1.378 . S
C1616 C1620 1.350 . S
C1617 C1620 1.463 . S
C1617 C1622 1.350 . S
C1617 N1625 1.427 . S
C1618 H1609 0.930 . S
C1618 C1616 1.378 . S
C1618 C1619 1.367 . S
C1619 C1618 1.367 . S
C1619 C1621 1.433 . S
C1620 C1616 1.350 . S
C1620 C1617 1.463 . S
C1620 N1624 1.427 . S
C1621 H1611 0.929 . S
C1621 C1619 1.433 . S
C1621 N1624 1.384 . S
C1622 H1613 0.929 . S
C1622 C1614 1.378 . S
C1622 C1617 1.350 . S
C1623 H1610 0.929 . S
C1623 C1615 1.433 . S
C1623 N1625 1.384 . S
N1624 C1620 1.427 . S
N1624 C1621 1.384 . S
N1625 C1617 1.427 . S
N1625 C1623 1.384 . S
H1626 C1632 0.930 . S
H1627 C1636 0.930 . S
H1628 C1641 0.929 . S
H1629 C1639 0.929 . S
H1630 C1634 0.929 . S
H1631 C1640 0.929 . S
C1632 H1626 0.930 . S
C1632 C1633 1.367 . S
C1632 C1640 1.378 . S
C1633 C1632 1.367 . S
C1633 C1641 1.433 . S
C1634 H1630 0.929 . S
C1634 C1636 1.378 . S
C1634 C1638 1.350 . S
C1635 C1638 1.463 . S
C1635 C1640 1.350 . S
C1635 N1643 1.427 . S
C1636 H1627 0.930 . S
C1636 C1634 1.378 . S
C1636 C1637 1.367 . S
C1637 C1636 1.367 . S
C1637 C1639 1.433 . S
C1638 C1634 1.350 . S
C1638 C1635 1.463 . S
C1638 N1642 1.427 . S
C1639 H1629 0.929 . S
C1639 C1637 1.433 . S
C1639 N1642 1.384 . S
C1640 H1631 0.929 . S
C1640 C1632 1.378 . S
C1640 C1635 1.350 . S
C1641 H1628 0.929 . S
C1641 C1633 1.433 . S
C1641 N1643 1.384 . S
N1642 C1638 1.427 . S
N1642 C1639 1.384 . S
N1643 C1635 1.427 . S
N1643 C1641 1.384 . S
H1644 C1650 0.930 . S
H1645 C1654 0.930 . S
H1646 C1659 0.929 . S
H1647 C1657 0.929 . S
H1648 C1652 0.929 . S
H1649 C1658 0.929 . S
C1650 H1644 0.930 . S
C1650 C1651 1.367 . S
C1650 C1658 1.378 . S
C1651 C1650 1.367 . S
C1651 C1659 1.433 . S
C1652 H1648 0.929 . S
C1652 C1654 1.378 . S
C1652 C1656 1.350 . S
C1653 C1656 1.463 . S
C1653 C1658 1.350 . S
C1653 N1661 1.427 . S
C1654 H1645 0.930 . S
C1654 C1652 1.378 . S
C1654 C1655 1.367 . S
C1655 C1654 1.367 . S
C1655 C1657 1.433 . S
C1656 C1652 1.350 . S
C1656 C1653 1.463 . S
C1656 N1660 1.427 . S
C1657 H1647 0.929 . S
C1657 C1655 1.433 . S
C1657 N1660 1.384 . S
C1658 H1649 0.929 . S
C1658 C1650 1.378 . S
C1658 C1653 1.350 . S
C1659 H1646 0.929 . S
C1659 C1651 1.433 . S
C1659 N1661 1.384 . S
N1660 C1656 1.427 . S
N1660 C1657 1.384 . S
N1661 C1653 1.427 . S
N1661 C1659 1.384 . S
H1662 C1668 0.930 . S
H1663 C1672 0.930 . S
H1664 C1677 0.929 . S
H1665 C1675 0.929 . S
H1666 C1670 0.929 . S
H1667 C1676 0.929 . S
C1668 H1662 0.930 . S
C1668 C1669 1.367 . S
C1668 C1676 1.378 . S
C1669 C1668 1.367 . S
C1669 C1677 1.433 . S
C1670 H1666 0.929 . S
C1670 C1672 1.378 . S
C1670 C1674 1.350 . S
C1671 C1674 1.463 . S
C1671 C1676 1.350 . S
C1671 N1679 1.427 . S
C1672 H1663 0.930 . S
C1672 C1670 1.378 . S
C1672 C1673 1.367 . S
C1673 C1672 1.367 . S
C1673 C1675 1.433 . S
C1674 C1670 1.350 . S
C1674 C1671 1.463 . S
C1674 N1678 1.427 . S
C1675 H1665 0.929 . S
C1675 C1673 1.433 . S
C1675 N1678 1.384 . S
C1676 H1667 0.929 . S
C1676 C1668 1.378 . S
C1676 C1671 1.350 . S
C1677 H1664 0.929 . S
C1677 C1669 1.433 . S
C1677 N1679 1.384 . S
N1678 C1674 1.427 . S
N1678 C1675 1.384 . S
N1679 C1671 1.427 . S
N1679 C1677 1.384 . S
H1680 C1686 0.930 . S
H1681 C1690 0.930 . S
H1682 C1695 0.929 . S
H1683 C1693 0.929 . S
H1684 C1688 0.929 . S
H1685 C1694 0.929 . S
C1686 H1680 0.930 . S
C1686 C1687 1.367 . S
C1686 C1694 1.378 . S
C1687 C1686 1.367 . S
C1687 C1695 1.433 . S
C1688 H1684 0.929 . S
C1688 C1690 1.378 . S
C1688 C1692 1.350 . S
C1689 C1692 1.463 . S
C1689 C1694 1.350 . S
C1689 N1697 1.427 . S
C1690 H1681 0.930 . S
C1690 C1688 1.378 . S
C1690 C1691 1.367 . S
C1691 C1690 1.367 . S
C1691 C1693 1.433 . S
C1692 C1688 1.350 . S
C1692 C1689 1.463 . S
C1692 N1696 1.427 . S
C1693 H1683 0.929 . S
C1693 C1691 1.433 . S
C1693 N1696 1.384 . S
C1694 H1685 0.929 . S
C1694 C1686 1.378 . S
C1694 C1689 1.350 . S
C1695 H1682 0.929 . S
C1695 C1687 1.433 . S
C1695 N1697 1.384 . S
N1696 C1692 1.427 . S
N1696 C1693 1.384 . S
N1697 C1689 1.427 . S
N1697 C1695 1.384 . S
H1698 C1704 0.930 . S
H1699 C1708 0.930 . S
H1700 C1713 0.929 . S
H1701 C1711 0.929 . S
H1702 C1706 0.929 . S
H1703 C1712 0.929 . S
C1704 H1698 0.930 . S
C1704 C1705 1.367 . S
C1704 C1712 1.378 . S
C1705 C1704 1.367 . S
C1705 C1713 1.433 . S
C1706 H1702 0.929 . S
C1706 C1708 1.378 . S
C1706 C1710 1.350 . S
C1707 C1710 1.463 . S
C1707 C1712 1.350 . S
C1707 N1715 1.427 . S
C1708 H1699 0.930 . S
C1708 C1706 1.378 . S
C1708 C1709 1.367 . S
C1709 C1708 1.367 . S
C1709 C1711 1.433 . S
C1710 C1706 1.350 . S
C1710 C1707 1.463 . S
C1710 N1714 1.427 . S
C1711 H1701 0.929 . S
C1711 C1709 1.433 . S
C1711 N1714 1.384 . S
C1712 H1703 0.929 . S
C1712 C1704 1.378 . S
C1712 C1707 1.350 . S
C1713 H1700 0.929 . S
C1713 C1705 1.433 . S
C1713 N1715 1.384 . S
N1714 C1710 1.427 . S
N1714 C1711 1.384 . S
N1715 C1707 1.427 . S
N1715 C1713 1.384 . S
H1716 C1722 0.930 . S
H1717 C1726 0.930 . S
H1718 C1731 0.929 . S
H1719 C1729 0.929 . S
H1720 C1724 0.929 . S
H1721 C1730 0.929 . S
C1722 H1716 0.930 . S
C1722 C1723 1.367 . S
C1722 C1730 1.378 . S
C1723 C1722 1.367 . S
C1723 C1731 1.433 . S
C1724 H1720 0.929 . S
C1724 C1726 1.378 . S
C1724 C1728 1.350 . S
C1725 C1728 1.463 . S
C1725 C1730 1.350 . S
C1725 N1733 1.427 . S
C1726 H1717 0.930 . S
C1726 C1724 1.378 . S
C1726 C1727 1.367 . S
C1727 C1726 1.367 . S
C1727 C1729 1.433 . S
C1728 C1724 1.350 . S
C1728 C1725 1.463 . S
C1728 N1732 1.427 . S
C1729 H1719 0.929 . S
C1729 C1727 1.433 . S
C1729 N1732 1.384 . S
C1730 H1721 0.929 . S
C1730 C1722 1.378 . S
C1730 C1725 1.350 . S
C1731 H1718 0.929 . S
C1731 C1723 1.433 . S
C1731 N1733 1.384 . S
N1732 C1728 1.427 . S
N1732 C1729 1.384 . S
N1733 C1725 1.427 . S
N1733 C1731 1.384 . S
H1734 C1740 0.930 . S
H1735 C1744 0.930 . S
H1736 C1749 0.929 . S
H1737 C1747 0.929 . S
H1738 C1742 0.929 . S
H1739 C1748 0.929 . S
C1740 H1734 0.930 . S
C1740 C1741 1.367 . S
C1740 C1748 1.378 . S
C1741 C1740 1.367 . S
C1741 C1749 1.433 . S
C1742 H1738 0.929 . S
C1742 C1744 1.378 . S
C1742 C1746 1.350 . S
C1743 C1746 1.463 . S
C1743 C1748 1.350 . S
C1743 N1751 1.427 . S
C1744 H1735 0.930 . S
C1744 C1742 1.378 . S
C1744 C1745 1.367 . S
C1745 C1744 1.367 . S
C1745 C1747 1.433 . S
C1746 C1742 1.350 . S
C1746 C1743 1.463 . S
C1746 N1750 1.427 . S
C1747 H1737 0.929 . S
C1747 C1745 1.433 . S
C1747 N1750 1.384 . S
C1748 H1739 0.929 . S
C1748 C1740 1.378 . S
C1748 C1743 1.350 . S
C1749 H1736 0.929 . S
C1749 C1741 1.433 . S
C1749 N1751 1.384 . S
N1750 C1746 1.427 . S
N1750 C1747 1.384 . S
N1751 C1743 1.427 . S
N1751 C1749 1.384 . S
H1752 C1758 0.930 . S
H1753 C1762 0.930 . S
H1754 C1767 0.929 . S
H1755 C1765 0.929 . S
H1756 C1760 0.929 . S
H1757 C1766 0.929 . S
C1758 H1752 0.930 . S
C1758 C1759 1.367 . S
C1758 C1766 1.378 . S
C1759 C1758 1.367 . S
C1759 C1767 1.433 . S
C1760 H1756 0.929 . S
C1760 C1762 1.378 . S
C1760 C1764 1.350 . S
C1761 C1764 1.463 . S
C1761 C1766 1.350 . S
C1761 N1769 1.427 . S
C1762 H1753 0.930 . S
C1762 C1760 1.378 . S
C1762 C1763 1.367 . S
C1763 C1762 1.367 . S
C1763 C1765 1.433 . S
C1764 C1760 1.350 . S
C1764 C1761 1.463 . S
C1764 N1768 1.427 . S
C1765 H1755 0.929 . S
C1765 C1763 1.433 . S
C1765 N1768 1.384 . S
C1766 H1757 0.929 . S
C1766 C1758 1.378 . S
C1766 C1761 1.350 . S
C1767 H1754 0.929 . S
C1767 C1759 1.433 . S
C1767 N1769 1.384 . S
N1768 C1764 1.427 . S
N1768 C1765 1.384 . S
N1769 C1761 1.427 . S
N1769 C1767 1.384 . S
H1770 C1776 0.930 . S
H1771 C1780 0.930 . S
H1772 C1785 0.929 . S
H1773 C1783 0.929 . S
H1774 C1778 0.929 . S
H1775 C1784 0.929 . S
C1776 H1770 0.930 . S
C1776 C1777 1.367 . S
C1776 C1784 1.378 . S
C1777 C1776 1.367 . S
C1777 C1785 1.433 . S
C1778 H1774 0.929 . S
C1778 C1780 1.378 . S
C1778 C1782 1.350 . S
C1779 C1782 1.463 . S
C1779 C1784 1.350 . S
C1779 N1787 1.427 . S
C1780 H1771 0.930 . S
C1780 C1778 1.378 . S
C1780 C1781 1.367 . S
C1781 C1780 1.367 . S
C1781 C1783 1.433 . S
C1782 C1778 1.350 . S
C1782 C1779 1.463 . S
C1782 N1786 1.427 . S
C1783 H1773 0.929 . S
C1783 C1781 1.433 . S
C1783 N1786 1.384 . S
C1784 H1775 0.929 . S
C1784 C1776 1.378 . S
C1784 C1779 1.350 . S
C1785 H1772 0.929 . S
C1785 C1777 1.433 . S
C1785 N1787 1.384 . S
N1786 C1782 1.427 . S
N1786 C1783 1.384 . S
N1787 C1779 1.427 . S
N1787 C1785 1.384 . S
H1788 C1794 0.930 . S
H1789 C1798 0.930 . S
H1790 C1803 0.929 . S
H1791 C1801 0.929 . S
H1792 C1796 0.929 . S
H1793 C1802 0.929 . S
C1794 H1788 0.930 . S
C1794 C1795 1.367 . S
C1794 C1802 1.378 . S
C1795 C1794 1.367 . S
C1795 C1803 1.433 . S
C1796 H1792 0.929 . S
C1796 C1798 1.378 . S
C1796 C1800 1.350 . S
C1797 C1800 1.463 . S
C1797 C1802 1.350 . S
C1797 N1805 1.427 . S
C1798 H1789 0.930 . S
C1798 C1796 1.378 . S
C1798 C1799 1.367 . S
C1799 C1798 1.367 . S
C1799 C1801 1.433 . S
C1800 C1796 1.350 . S
C1800 C1797 1.463 . S
C1800 N1804 1.427 . S
C1801 H1791 0.929 . S
C1801 C1799 1.433 . S
C1801 N1804 1.384 . S
C1802 H1793 0.929 . S
C1802 C1794 1.378 . S
C1802 C1797 1.350 . S
C1803 H1790 0.929 . S
C1803 C1795 1.433 . S
C1803 N1805 1.384 . S
N1804 C1800 1.427 . S
N1804 C1801 1.384 . S
N1805 C1797 1.427 . S
N1805 C1803 1.384 . S
H1806 C1812 0.930 . S
H1807 C1816 0.930 . S
H1808 C1821 0.929 . S
H1809 C1819 0.929 . S
H1810 C1814 0.929 . S
H1811 C1820 0.929 . S
C1812 H1806 0.930 . S
C1812 C1813 1.367 . S
C1812 C1820 1.378 . S
C1813 C1812 1.367 . S
C1813 C1821 1.433 . S
C1814 H1810 0.929 . S
C1814 C1816 1.378 . S
C1814 C1818 1.350 . S
C1815 C1818 1.463 . S
C1815 C1820 1.350 . S
C1815 N1823 1.427 . S
C1816 H1807 0.930 . S
C1816 C1814 1.378 . S
C1816 C1817 1.367 . S
C1817 C1816 1.367 . S
C1817 C1819 1.433 . S
C1818 C1814 1.350 . S
C1818 C1815 1.463 . S
C1818 N1822 1.427 . S
C1819 H1809 0.929 . S
C1819 C1817 1.433 . S
C1819 N1822 1.384 . S
C1820 H1811 0.929 . S
C1820 C1812 1.378 . S
C1820 C1815 1.350 . S
C1821 H1808 0.929 . S
C1821 C1813 1.433 . S
C1821 N1823 1.384 . S
N1822 C1818 1.427 . S
N1822 C1819 1.384 . S
N1823 C1815 1.427 . S
N1823 C1821 1.384 . S
H1824 C1830 0.930 . S
H1825 C1834 0.930 . S
H1826 C1839 0.929 . S
H1827 C1837 0.929 . S
H1828 C1832 0.929 . S
H1829 C1838 0.929 . S
C1830 H1824 0.930 . S
C1830 C1831 1.367 . S
C1830 C1838 1.378 . S
C1831 C1830 1.367 . S
C1831 C1839 1.433 . S
C1832 H1828 0.929 . S
C1832 C1834 1.378 . S
C1832 C1836 1.350 . S
C1833 C1836 1.463 . S
C1833 C1838 1.350 . S
C1833 N1841 1.427 . S
C1834 H1825 0.930 . S
C1834 C1832 1.378 . S
C1834 C1835 1.367 . S
C1835 C1834 1.367 . S
C1835 C1837 1.433 . S
C1836 C1832 1.350 . S
C1836 C1833 1.463 . S
C1836 N1840 1.427 . S
C1837 H1827 0.929 . S
C1837 C1835 1.433 . S
C1837 N1840 1.384 . S
C1838 H1829 0.929 . S
C1838 C1830 1.378 . S
C1838 C1833 1.350 . S
C1839 H1826 0.929 . S
C1839 C1831 1.433 . S
C1839 N1841 1.384 . S
N1840 C1836 1.427 . S
N1840 C1837 1.384 . S
N1841 C1833 1.427 . S
N1841 C1839 1.384 . S
H1842 C1848 0.930 . S
H1843 C1852 0.930 . S
H1844 C1857 0.929 . S
H1845 C1855 0.929 . S
H1846 C1850 0.929 . S
H1847 C1856 0.929 . S
C1848 H1842 0.930 . S
C1848 C1849 1.367 . S
C1848 C1856 1.378 . S
C1849 C1848 1.367 . S
C1849 C1857 1.433 . S
C1850 H1846 0.929 . S
C1850 C1852 1.378 . S
C1850 C1854 1.350 . S
C1851 C1854 1.463 . S
C1851 C1856 1.350 . S
C1851 N1859 1.427 . S
C1852 H1843 0.930 . S
C1852 C1850 1.378 . S
C1852 C1853 1.367 . S
C1853 C1852 1.367 . S
C1853 C1855 1.433 . S
C1854 C1850 1.350 . S
C1854 C1851 1.463 . S
C1854 N1858 1.427 . S
C1855 H1845 0.929 . S
C1855 C1853 1.433 . S
C1855 N1858 1.384 . S
C1856 H1847 0.929 . S
C1856 C1848 1.378 . S
C1856 C1851 1.350 . S
C1857 H1844 0.929 . S
C1857 C1849 1.433 . S
C1857 N1859 1.384 . S
N1858 C1854 1.427 . S
N1858 C1855 1.384 . S
N1859 C1851 1.427 . S
N1859 C1857 1.384 . S
H1860 C1866 0.930 . S
H1861 C1870 0.930 . S
H1862 C1875 0.929 . S
H1863 C1873 0.929 . S
H1864 C1868 0.929 . S
H1865 C1874 0.929 . S
C1866 H1860 0.930 . S
C1866 C1867 1.367 . S
C1866 C1874 1.378 . S
C1867 C1866 1.367 . S
C1867 C1875 1.433 . S
C1868 H1864 0.929 . S
C1868 C1870 1.378 . S
C1868 C1872 1.350 . S
C1869 C1872 1.463 . S
C1869 C1874 1.350 . S
C1869 N1877 1.427 . S
C1870 H1861 0.930 . S
C1870 C1868 1.378 . S
C1870 C1871 1.367 . S
C1871 C1870 1.367 . S
C1871 C1873 1.433 . S
C1872 C1868 1.350 . S
C1872 C1869 1.463 . S
C1872 N1876 1.427 . S
C1873 H1863 0.929 . S
C1873 C1871 1.433 . S
C1873 N1876 1.384 . S
C1874 H1865 0.929 . S
C1874 C1866 1.378 . S
C1874 C1869 1.350 . S
C1875 H1862 0.929 . S
C1875 C1867 1.433 . S
C1875 N1877 1.384 . S
N1876 C1872 1.427 . S
N1876 C1873 1.384 . S
N1877 C1869 1.427 . S
N1877 C1875 1.384 . S
H1878 C1884 0.930 . S
H1879 C1888 0.930 . S
H1880 C1893 0.929 . S
H1881 C1891 0.929 . S
H1882 C1886 0.929 . S
H1883 C1892 0.929 . S
C1884 H1878 0.930 . S
C1884 C1885 1.367 . S
C1884 C1892 1.378 . S
C1885 C1884 1.367 . S
C1885 C1893 1.433 . S
C1886 H1882 0.929 . S
C1886 C1888 1.378 . S
C1886 C1890 1.350 . S
C1887 C1890 1.463 . S
C1887 C1892 1.350 . S
C1887 N1895 1.427 . S
C1888 H1879 0.930 . S
C1888 C1886 1.378 . S
C1888 C1889 1.367 . S
C1889 C1888 1.367 . S
C1889 C1891 1.433 . S
C1890 C1886 1.350 . S
C1890 C1887 1.463 . S
C1890 N1894 1.427 . S
C1891 H1881 0.929 . S
C1891 C1889 1.433 . S
C1891 N1894 1.384 . S
C1892 H1883 0.929 . S
C1892 C1884 1.378 . S
C1892 C1887 1.350 . S
C1893 H1880 0.929 . S
C1893 C1885 1.433 . S
C1893 N1895 1.384 . S
N1894 C1890 1.427 . S
N1894 C1891 1.384 . S
N1895 C1887 1.427 . S
N1895 C1893 1.384 . S
H1896 C1902 0.930 . S
H1897 C1906 0.930 . S
H1898 C1911 0.929 . S
H1899 C1909 0.929 . S
H1900 C1904 0.929 . S
H1901 C1910 0.929 . S
C1902 H1896 0.930 . S
C1902 C1903 1.367 . S
C1902 C1910 1.378 . S
C1903 C1902 1.367 . S
C1903 C1911 1.433 . S
C1904 H1900 0.929 . S
C1904 C1906 1.378 . S
C1904 C1908 1.350 . S
C1905 C1908 1.463 . S
C1905 C1910 1.350 . S
C1905 N1913 1.427 . S
C1906 H1897 0.930 . S
C1906 C1904 1.378 . S
C1906 C1907 1.367 . S
C1907 C1906 1.367 . S
C1907 C1909 1.433 . S
C1908 C1904 1.350 . S
C1908 C1905 1.463 . S
C1908 N1912 1.427 . S
C1909 H1899 0.929 . S
C1909 C1907 1.433 . S
C1909 N1912 1.384 . S
C1910 H1901 0.929 . S
C1910 C1902 1.378 . S
C1910 C1905 1.350 . S
C1911 H1898 0.929 . S
C1911 C1903 1.433 . S
C1911 N1913 1.384 . S
N1912 C1908 1.427 . S
N1912 C1909 1.384 . S
N1913 C1905 1.427 . S
N1913 C1911 1.384 . S
H1914 C1920 0.930 . S
H1915 C1924 0.930 . S
H1916 C1929 0.929 . S
H1917 C1927 0.929 . S
H1918 C1922 0.929 . S
H1919 C1928 0.929 . S
C1920 H1914 0.930 . S
C1920 C1921 1.367 . S
C1920 C1928 1.378 . S
C1921 C1920 1.367 . S
C1921 C1929 1.433 . S
C1922 H1918 0.929 . S
C1922 C1924 1.378 . S
C1922 C1926 1.350 . S
C1923 C1926 1.463 . S
C1923 C1928 1.350 . S
C1923 N1931 1.427 . S
C1924 H1915 0.930 . S
C1924 C1922 1.378 . S
C1924 C1925 1.367 . S
C1925 C1924 1.367 . S
C1925 C1927 1.433 . S
C1926 C1922 1.350 . S
C1926 C1923 1.463 . S
C1926 N1930 1.427 . S
C1927 H1917 0.929 . S
C1927 C1925 1.433 . S
C1927 N1930 1.384 . S
C1928 H1919 0.929 . S
C1928 C1920 1.378 . S
C1928 C1923 1.350 . S
C1929 H1916 0.929 . S
C1929 C1921 1.433 . S
C1929 N1931 1.384 . S
N1930 C1926 1.427 . S
N1930 C1927 1.384 . S
N1931 C1923 1.427 . S
N1931 C1929 1.384 . S
H1932 C1938 0.930 . S
H1933 C1942 0.930 . S
H1934 C1947 0.929 . S
H1935 C1945 0.929 . S
H1936 C1940 0.929 . S
H1937 C1946 0.929 . S
C1938 H1932 0.930 . S
C1938 C1939 1.367 . S
C1938 C1946 1.378 . S
C1939 C1938 1.367 . S
C1939 C1947 1.433 . S
C1940 H1936 0.929 . S
C1940 C1942 1.378 . S
C1940 C1944 1.350 . S
C1941 C1944 1.463 . S
C1941 C1946 1.350 . S
C1941 N1949 1.427 . S
C1942 H1933 0.930 . S
C1942 C1940 1.378 . S
C1942 C1943 1.367 . S
C1943 C1942 1.367 . S
C1943 C1945 1.433 . S
C1944 C1940 1.350 . S
C1944 C1941 1.463 . S
C1944 N1948 1.427 . S
C1945 H1935 0.929 . S
C1945 C1943 1.433 . S
C1945 N1948 1.384 . S
C1946 H1937 0.929 . S
C1946 C1938 1.378 . S
C1946 C1941 1.350 . S
C1947 H1934 0.929 . S
C1947 C1939 1.433 . S
C1947 N1949 1.384 . S
N1948 C1944 1.427 . S
N1948 C1945 1.384 . S
N1949 C1941 1.427 . S
N1949 C1947 1.384 . S
H1950 C1956 0.930 . S
H1951 C1960 0.930 . S
H1952 C1965 0.929 . S
H1953 C1963 0.929 . S
H1954 C1958 0.929 . S
H1955 C1964 0.929 . S
C1956 H1950 0.930 . S
C1956 C1957 1.367 . S
C1956 C1964 1.378 . S
C1957 C1956 1.367 . S
C1957 C1965 1.433 . S
C1958 H1954 0.929 . S
C1958 C1960 1.378 . S
C1958 C1962 1.350 . S
C1959 C1962 1.463 . S
C1959 C1964 1.350 . S
C1959 N1967 1.427 . S
C1960 H1951 0.930 . S
C1960 C1958 1.378 . S
C1960 C1961 1.367 . S
C1961 C1960 1.367 . S
C1961 C1963 1.433 . S
C1962 C1958 1.350 . S
C1962 C1959 1.463 . S
C1962 N1966 1.427 . S
C1963 H1953 0.929 . S
C1963 C1961 1.433 . S
C1963 N1966 1.384 . S
C1964 H1955 0.929 . S
C1964 C1956 1.378 . S
C1964 C1959 1.350 . S
C1965 H1952 0.929 . S
C1965 C1957 1.433 . S
C1965 N1967 1.384 . S
N1966 C1962 1.427 . S
N1966 C1963 1.384 . S
N1967 C1959 1.427 . S
N1967 C1965 1.384 . S
H1968 C1974 0.930 . S
H1969 C1978 0.930 . S
H1970 C1983 0.929 . S
H1971 C1981 0.929 . S
H1972 C1976 0.929 . S
H1973 C1982 0.929 . S
C1974 H1968 0.930 . S
C1974 C1975 1.367 . S
C1974 C1982 1.378 . S
C1975 C1974 1.367 . S
C1975 C1983 1.433 . S
C1976 H1972 0.929 . S
C1976 C1978 1.378 . S
C1976 C1980 1.350 . S
C1977 C1980 1.463 . S
C1977 C1982 1.350 . S
C1977 N1985 1.427 . S
C1978 H1969 0.930 . S
C1978 C1976 1.378 . S
C1978 C1979 1.367 . S
C1979 C1978 1.367 . S
C1979 C1981 1.433 . S
C1980 C1976 1.350 . S
C1980 C1977 1.463 . S
C1980 N1984 1.427 . S
C1981 H1971 0.929 . S
C1981 C1979 1.433 . S
C1981 N1984 1.384 . S
C1982 H1973 0.929 . S
C1982 C1974 1.378 . S
C1982 C1977 1.350 . S
C1983 H1970 0.929 . S
C1983 C1975 1.433 . S
C1983 N1985 1.384 . S
N1984 C1980 1.427 . S
N1984 C1981 1.384 . S
N1985 C1977 1.427 . S
N1985 C1983 1.384 . S
H1986 C1992 0.930 . S
H1987 C1996 0.930 . S
H1988 C2001 0.929 . S
H1989 C1999 0.929 . S
H1990 C1994 0.929 . S
H1991 C2000 0.929 . S
C1992 H1986 0.930 . S
C1992 C1993 1.367 . S
C1992 C2000 1.378 . S
C1993 C1992 1.367 . S
C1993 C2001 1.433 . S
C1994 H1990 0.929 . S
C1994 C1996 1.378 . S
C1994 C1998 1.350 . S
C1995 C1998 1.463 . S
C1995 C2000 1.350 . S
C1995 N2003 1.427 . S
C1996 H1987 0.930 . S
C1996 C1994 1.378 . S
C1996 C1997 1.367 . S
C1997 C1996 1.367 . S
C1997 C1999 1.433 . S
C1998 C1994 1.350 . S
C1998 C1995 1.463 . S
C1998 N2002 1.427 . S
C1999 H1989 0.929 . S
C1999 C1997 1.433 . S
C1999 N2002 1.384 . S
C2000 H1991 0.929 . S
C2000 C1992 1.378 . S
C2000 C1995 1.350 . S
C2001 H1988 0.929 . S
C2001 C1993 1.433 . S
C2001 N2003 1.384 . S
N2002 C1998 1.427 . S
N2002 C1999 1.384 . S
N2003 C1995 1.427 . S
N2003 C2001 1.384 . S
H2004 C2010 0.930 . S
H2005 C2014 0.930 . S
H2006 C2019 0.929 . S
H2007 C2017 0.929 . S
H2008 C2012 0.929 . S
H2009 C2018 0.929 . S
C2010 H2004 0.930 . S
C2010 C2011 1.367 . S
C2010 C2018 1.378 . S
C2011 C2010 1.367 . S
C2011 C2019 1.433 . S
C2012 H2008 0.929 . S
C2012 C2014 1.378 . S
C2012 C2016 1.350 . S
C2013 C2016 1.463 . S
C2013 C2018 1.350 . S
C2013 N2021 1.427 . S
C2014 H2005 0.930 . S
C2014 C2012 1.378 . S
C2014 C2015 1.367 . S
C2015 C2014 1.367 . S
C2015 C2017 1.433 . S
C2016 C2012 1.350 . S
C2016 C2013 1.463 . S
C2016 N2020 1.427 . S
C2017 H2007 0.929 . S
C2017 C2015 1.433 . S
C2017 N2020 1.384 . S
C2018 H2009 0.929 . S
C2018 C2010 1.378 . S
C2018 C2013 1.350 . S
C2019 H2006 0.929 . S
C2019 C2011 1.433 . S
C2019 N2021 1.384 . S
N2020 C2016 1.427 . S
N2020 C2017 1.384 . S
N2021 C2013 1.427 . S
N2021 C2019 1.384 . S
H2022 C2028 0.930 . S
H2023 C2032 0.930 . S
H2024 C2037 0.929 . S
H2025 C2035 0.929 . S
H2026 C2030 0.929 . S
H2027 C2036 0.929 . S
C2028 H2022 0.930 . S
C2028 C2029 1.367 . S
C2028 C2036 1.378 . S
C2029 C2028 1.367 . S
C2029 C2037 1.433 . S
C2030 H2026 0.929 . S
C2030 C2032 1.378 . S
C2030 C2034 1.350 . S
C2031 C2034 1.463 . S
C2031 C2036 1.350 . S
C2031 N2039 1.427 . S
C2032 H2023 0.930 . S
C2032 C2030 1.378 . S
C2032 C2033 1.367 . S
C2033 C2032 1.367 . S
C2033 C2035 1.433 . S
C2034 C2030 1.350 . S
C2034 C2031 1.463 . S
C2034 N2038 1.427 . S
C2035 H2025 0.929 . S
C2035 C2033 1.433 . S
C2035 N2038 1.384 . S
C2036 H2027 0.929 . S
C2036 C2028 1.378 . S
C2036 C2031 1.350 . S
C2037 H2024 0.929 . S
C2037 C2029 1.433 . S
C2037 N2039 1.384 . S
N2038 C2034 1.427 . S
N2038 C2035 1.384 . S
N2039 C2031 1.427 . S
N2039 C2037 1.384 . S
H2040 C2046 0.930 . S
H2041 C2050 0.930 . S
H2042 C2055 0.929 . S
H2043 C2053 0.929 . S
H2044 C2048 0.929 . S
H2045 C2054 0.929 . S
C2046 H2040 0.930 . S
C2046 C2047 1.367 . S
C2046 C2054 1.378 . S
C2047 C2046 1.367 . S
C2047 C2055 1.433 . S
C2048 H2044 0.929 . S
C2048 C2050 1.378 . S
C2048 C2052 1.350 . S
C2049 C2052 1.463 . S
C2049 C2054 1.350 . S
C2049 N2057 1.427 . S
C2050 H2041 0.930 . S
C2050 C2048 1.378 . S
C2050 C2051 1.367 . S
C2051 C2050 1.367 . S
C2051 C2053 1.433 . S
C2052 C2048 1.350 . S
C2052 C2049 1.463 . S
C2052 N2056 1.427 . S
C2053 H2043 0.929 . S
C2053 C2051 1.433 . S
C2053 N2056 1.384 . S
C2054 H2045 0.929 . S
C2054 C2046 1.378 . S
C2054 C2049 1.350 . S
C2055 H2042 0.929 . S
C2055 C2047 1.433 . S
C2055 N2057 1.384 . S
N2056 C2052 1.427 . S
N2056 C2053 1.384 . S
N2057 C2049 1.427 . S
N2057 C2055 1.384 . S
H2058 C2064 0.930 . S
H2059 C2068 0.930 . S
H2060 C2073 0.929 . S
H2061 C2071 0.929 . S
H2062 C2066 0.929 . S
H2063 C2072 0.929 . S
C2064 H2058 0.930 . S
C2064 C2065 1.367 . S
C2064 C2072 1.378 . S
C2065 C2064 1.367 . S
C2065 C2073 1.433 . S
C2066 H2062 0.929 . S
C2066 C2068 1.378 . S
C2066 C2070 1.350 . S
C2067 C2070 1.463 . S
C2067 C2072 1.350 . S
C2067 N2075 1.427 . S
C2068 H2059 0.930 . S
C2068 C2066 1.378 . S
C2068 C2069 1.367 . S
C2069 C2068 1.367 . S
C2069 C2071 1.433 . S
C2070 C2066 1.350 . S
C2070 C2067 1.463 . S
C2070 N2074 1.427 . S
C2071 H2061 0.929 . S
C2071 C2069 1.433 . S
C2071 N2074 1.384 . S
C2072 H2063 0.929 . S
C2072 C2064 1.378 . S
C2072 C2067 1.350 . S
C2073 H2060 0.929 . S
C2073 C2065 1.433 . S
C2073 N2075 1.384 . S
N2074 C2070 1.427 . S
N2074 C2071 1.384 . S
N2075 C2067 1.427 . S
N2075 C2073 1.384 . S
H2076 C2082 0.930 . S
H2077 C2086 0.930 . S
H2078 C2091 0.929 . S
H2079 C2089 0.929 . S
H2080 C2084 0.929 . S
H2081 C2090 0.929 . S
C2082 H2076 0.930 . S
C2082 C2083 1.367 . S
C2082 C2090 1.378 . S
C2083 C2082 1.367 . S
C2083 C2091 1.433 . S
C2084 H2080 0.929 . S
C2084 C2086 1.378 . S
C2084 C2088 1.350 . S
C2085 C2088 1.463 . S
C2085 C2090 1.350 . S
C2085 N2093 1.427 . S
C2086 H2077 0.930 . S
C2086 C2084 1.378 . S
C2086 C2087 1.367 . S
C2087 C2086 1.367 . S
C2087 C2089 1.433 . S
C2088 C2084 1.350 . S
C2088 C2085 1.463 . S
C2088 N2092 1.427 . S
C2089 H2079 0.929 . S
C2089 C2087 1.433 . S
C2089 N2092 1.384 . S
C2090 H2081 0.929 . S
C2090 C2082 1.378 . S
C2090 C2085 1.350 . S
C2091 H2078 0.929 . S
C2091 C2083 1.433 . S
C2091 N2093 1.384 . S
N2092 C2088 1.427 . S
N2092 C2089 1.384 . S
N2093 C2085 1.427 . S
N2093 C2091 1.384 . S
H2094 C2100 0.930 . S
H2095 C2104 0.930 . S
H2096 C2109 0.929 . S
H2097 C2107 0.929 . S
H2098 C2102 0.929 . S
H2099 C2108 0.929 . S
C2100 H2094 0.930 . S
C2100 C2101 1.367 . S
C2100 C2108 1.378 . S
C2101 C2100 1.367 . S
C2101 C2109 1.433 . S
C2102 H2098 0.929 . S
C2102 C2104 1.378 . S
C2102 C2106 1.350 . S
C2103 C2106 1.463 . S
C2103 C2108 1.350 . S
C2103 N2111 1.427 . S
C2104 H2095 0.930 . S
C2104 C2102 1.378 . S
C2104 C2105 1.367 . S
C2105 C2104 1.367 . S
C2105 C2107 1.433 . S
C2106 C2102 1.350 . S
C2106 C2103 1.463 . S
C2106 N2110 1.427 . S
C2107 H2097 0.929 . S
C2107 C2105 1.433 . S
C2107 N2110 1.384 . S
C2108 H2099 0.929 . S
C2108 C2100 1.378 . S
C2108 C2103 1.350 . S
C2109 H2096 0.929 . S
C2109 C2101 1.433 . S
C2109 N2111 1.384 . S
N2110 C2106 1.427 . S
N2110 C2107 1.384 . S
N2111 C2103 1.427 . S
N2111 C2109 1.384 . S
H2112 C2118 0.930 . S
H2113 C2122 0.930 . S
H2114 C2127 0.929 . S
H2115 C2125 0.929 . S
H2116 C2120 0.929 . S
H2117 C2126 0.929 . S
C2118 H2112 0.930 . S
C2118 C2119 1.367 . S
C2118 C2126 1.378 . S
C2119 C2118 1.367 . S
C2119 C2127 1.433 . S
C2120 H2116 0.929 . S
C2120 C2122 1.378 . S
C2120 C2124 1.350 . S
C2121 C2124 1.463 . S
C2121 C2126 1.350 . S
C2121 N2129 1.427 . S
C2122 H2113 0.930 . S
C2122 C2120 1.378 . S
C2122 C2123 1.367 . S
C2123 C2122 1.367 . S
C2123 C2125 1.433 . S
C2124 C2120 1.350 . S
C2124 C2121 1.463 . S
C2124 N2128 1.427 . S
C2125 H2115 0.929 . S
C2125 C2123 1.433 . S
C2125 N2128 1.384 . S
C2126 H2117 0.929 . S
C2126 C2118 1.378 . S
C2126 C2121 1.350 . S
C2127 H2114 0.929 . S
C2127 C2119 1.433 . S
C2127 N2129 1.384 . S
N2128 C2124 1.427 . S
N2128 C2125 1.384 . S
N2129 C2121 1.427 . S
N2129 C2127 1.384 . S
H2130 C2136 0.930 . S
H2131 C2140 0.930 . S
H2132 C2145 0.929 . S
H2133 C2143 0.929 . S
H2134 C2138 0.929 . S
H2135 C2144 0.929 . S
C2136 H2130 0.930 . S
C2136 C2137 1.367 . S
C2136 C2144 1.378 . S
C2137 C2136 1.367 . S
C2137 C2145 1.433 . S
C2138 H2134 0.929 . S
C2138 C2140 1.378 . S
C2138 C2142 1.350 . S
C2139 C2142 1.463 . S
C2139 C2144 1.350 . S
C2139 N2147 1.427 . S
C2140 H2131 0.930 . S
C2140 C2138 1.378 . S
C2140 C2141 1.367 . S
C2141 C2140 1.367 . S
C2141 C2143 1.433 . S
C2142 C2138 1.350 . S
C2142 C2139 1.463 . S
C2142 N2146 1.427 . S
C2143 H2133 0.929 . S
C2143 C2141 1.433 . S
C2143 N2146 1.384 . S
C2144 H2135 0.929 . S
C2144 C2136 1.378 . S
C2144 C2139 1.350 . S
C2145 H2132 0.929 . S
C2145 C2137 1.433 . S
C2145 N2147 1.384 . S
N2146 C2142 1.427 . S
N2146 C2143 1.384 . S
N2147 C2139 1.427 . S
N2147 C2145 1.384 . S
H2148 C2154 0.930 . S
H2149 C2158 0.930 . S
H2150 C2163 0.929 . S
H2151 C2161 0.929 . S
H2152 C2156 0.929 . S
H2153 C2162 0.929 . S
C2154 H2148 0.930 . S
C2154 C2155 1.367 . S
C2154 C2162 1.378 . S
C2155 C2154 1.367 . S
C2155 C2163 1.433 . S
C2156 H2152 0.929 . S
C2156 C2158 1.378 . S
C2156 C2160 1.350 . S
C2157 C2160 1.463 . S
C2157 C2162 1.350 . S
C2157 N2165 1.427 . S
C2158 H2149 0.930 . S
C2158 C2156 1.378 . S
C2158 C2159 1.367 . S
C2159 C2158 1.367 . S
C2159 C2161 1.433 . S
C2160 C2156 1.350 . S
C2160 C2157 1.463 . S
C2160 N2164 1.427 . S
C2161 H2151 0.929 . S
C2161 C2159 1.433 . S
C2161 N2164 1.384 . S
C2162 H2153 0.929 . S
C2162 C2154 1.378 . S
C2162 C2157 1.350 . S
C2163 H2150 0.929 . S
C2163 C2155 1.433 . S
C2163 N2165 1.384 . S
N2164 C2160 1.427 . S
N2164 C2161 1.384 . S
N2165 C2157 1.427 . S
N2165 C2163 1.384 . S
H2166 C2172 0.930 . S
H2167 C2176 0.930 . S
H2168 C2181 0.929 . S
H2169 C2179 0.929 . S
H2170 C2174 0.929 . S
H2171 C2180 0.929 . S
C2172 H2166 0.930 . S
C2172 C2173 1.367 . S
C2172 C2180 1.378 . S
C2173 C2172 1.367 . S
C2173 C2181 1.433 . S
C2174 H2170 0.929 . S
C2174 C2176 1.378 . S
C2174 C2178 1.350 . S
C2175 C2178 1.463 . S
C2175 C2180 1.350 . S
C2175 N2183 1.427 . S
C2176 H2167 0.930 . S
C2176 C2174 1.378 . S
C2176 C2177 1.367 . S
C2177 C2176 1.367 . S
C2177 C2179 1.433 . S
C2178 C2174 1.350 . S
C2178 C2175 1.463 . S
C2178 N2182 1.427 . S
C2179 H2169 0.929 . S
C2179 C2177 1.433 . S
C2179 N2182 1.384 . S
C2180 H2171 0.929 . S
C2180 C2172 1.378 . S
C2180 C2175 1.350 . S
C2181 H2168 0.929 . S
C2181 C2173 1.433 . S
C2181 N2183 1.384 . S
N2182 C2178 1.427 . S
N2182 C2179 1.384 . S
N2183 C2175 1.427 . S
N2183 C2181 1.384 . S
H2184 C2190 0.930 . S
H2185 C2194 0.930 . S
H2186 C2199 0.929 . S
H2187 C2197 0.929 . S
H2188 C2192 0.929 . S
H2189 C2198 0.929 . S
C2190 H2184 0.930 . S
C2190 C2191 1.367 . S
C2190 C2198 1.378 . S
C2191 C2190 1.367 . S
C2191 C2199 1.433 . S
C2192 H2188 0.929 . S
C2192 C2194 1.378 . S
C2192 C2196 1.350 . S
C2193 C2196 1.463 . S
C2193 C2198 1.350 . S
C2193 N2201 1.427 . S
C2194 H2185 0.930 . S
C2194 C2192 1.378 . S
C2194 C2195 1.367 . S
C2195 C2194 1.367 . S
C2195 C2197 1.433 . S
C2196 C2192 1.350 . S
C2196 C2193 1.463 . S
C2196 N2200 1.427 . S
C2197 H2187 0.929 . S
C2197 C2195 1.433 . S
C2197 N2200 1.384 . S
C2198 H2189 0.929 . S
C2198 C2190 1.378 . S
C2198 C2193 1.350 . S
C2199 H2186 0.929 . S
C2199 C2191 1.433 . S
C2199 N2201 1.384 . S
N2200 C2196 1.427 . S
N2200 C2197 1.384 . S
N2201 C2193 1.427 . S
N2201 C2199 1.384 . S
H2202 C2208 0.930 . S
H2203 C2212 0.930 . S
H2204 C2217 0.929 . S
H2205 C2215 0.929 . S
H2206 C2210 0.929 . S
H2207 C2216 0.929 . S
C2208 H2202 0.930 . S
C2208 C2209 1.367 . S
C2208 C2216 1.378 . S
C2209 C2208 1.367 . S
C2209 C2217 1.433 . S
C2210 H2206 0.929 . S
C2210 C2212 1.378 . S
C2210 C2214 1.350 . S
C2211 C2214 1.463 . S
C2211 C2216 1.350 . S
C2211 N2219 1.427 . S
C2212 H2203 0.930 . S
C2212 C2210 1.378 . S
C2212 C2213 1.367 . S
C2213 C2212 1.367 . S
C2213 C2215 1.433 . S
C2214 C2210 1.350 . S
C2214 C2211 1.463 . S
C2214 N2218 1.427 . S
C2215 H2205 0.929 . S
C2215 C2213 1.433 . S
C2215 N2218 1.384 . S
C2216 H2207 0.929 . S
C2216 C2208 1.378 . S
C2216 C2211 1.350 . S
C2217 H2204 0.929 . S
C2217 C2209 1.433 . S
C2217 N2219 1.384 . S
N2218 C2214 1.427 . S
N2218 C2215 1.384 . S
N2219 C2211 1.427 . S
N2219 C2217 1.384 . S
H2220 C2226 0.930 . S
H2221 C2230 0.930 . S
H2222 C2235 0.929 . S
H2223 C2233 0.929 . S
H2224 C2228 0.929 . S
H2225 C2234 0.929 . S
C2226 H2220 0.930 . S
C2226 C2227 1.367 . S
C2226 C2234 1.378 . S
C2227 C2226 1.367 . S
C2227 C2235 1.433 . S
C2228 H2224 0.929 . S
C2228 C2230 1.378 . S
C2228 C2232 1.350 . S
C2229 C2232 1.463 . S
C2229 C2234 1.350 . S
C2229 N2237 1.427 . S
C2230 H2221 0.930 . S
C2230 C2228 1.378 . S
C2230 C2231 1.367 . S
C2231 C2230 1.367 . S
C2231 C2233 1.433 . S
C2232 C2228 1.350 . S
C2232 C2229 1.463 . S
C2232 N2236 1.427 . S
C2233 H2223 0.929 . S
C2233 C2231 1.433 . S
C2233 N2236 1.384 . S
C2234 H2225 0.929 . S
C2234 C2226 1.378 . S
C2234 C2229 1.350 . S
C2235 H2222 0.929 . S
C2235 C2227 1.433 . S
C2235 N2237 1.384 . S
N2236 C2232 1.427 . S
N2236 C2233 1.384 . S
N2237 C2229 1.427 . S
N2237 C2235 1.384 . S
H2238 C2244 0.930 . S
H2239 C2248 0.930 . S
H2240 C2253 0.929 . S
H2241 C2251 0.929 . S
H2242 C2246 0.929 . S
H2243 C2252 0.929 . S
C2244 H2238 0.930 . S
C2244 C2245 1.367 . S
C2244 C2252 1.378 . S
C2245 C2244 1.367 . S
C2245 C2253 1.433 . S
C2246 H2242 0.929 . S
C2246 C2248 1.378 . S
C2246 C2250 1.350 . S
C2247 C2250 1.463 . S
C2247 C2252 1.350 . S
C2247 N2255 1.427 . S
C2248 H2239 0.930 . S
C2248 C2246 1.378 . S
C2248 C2249 1.367 . S
C2249 C2248 1.367 . S
C2249 C2251 1.433 . S
C2250 C2246 1.350 . S
C2250 C2247 1.463 . S
C2250 N2254 1.427 . S
C2251 H2241 0.929 . S
C2251 C2249 1.433 . S
C2251 N2254 1.384 . S
C2252 H2243 0.929 . S
C2252 C2244 1.378 . S
C2252 C2247 1.350 . S
C2253 H2240 0.929 . S
C2253 C2245 1.433 . S
C2253 N2255 1.384 . S
N2254 C2250 1.427 . S
N2254 C2251 1.384 . S
N2255 C2247 1.427 . S
N2255 C2253 1.384 . S
H2256 C2262 0.930 . S
H2257 C2266 0.930 . S
H2258 C2271 0.929 . S
H2259 C2269 0.929 . S
H2260 C2264 0.929 . S
H2261 C2270 0.929 . S
C2262 H2256 0.930 . S
C2262 C2263 1.367 . S
C2262 C2270 1.378 . S
C2263 C2262 1.367 . S
C2263 C2271 1.433 . S
C2264 H2260 0.929 . S
C2264 C2266 1.378 . S
C2264 C2268 1.350 . S
C2265 C2268 1.463 . S
C2265 C2270 1.350 . S
C2265 N2273 1.427 . S
C2266 H2257 0.930 . S
C2266 C2264 1.378 . S
C2266 C2267 1.367 . S
C2267 C2266 1.367 . S
C2267 C2269 1.433 . S
C2268 C2264 1.350 . S
C2268 C2265 1.463 . S
C2268 N2272 1.427 . S
C2269 H2259 0.929 . S
C2269 C2267 1.433 . S
C2269 N2272 1.384 . S
C2270 H2261 0.929 . S
C2270 C2262 1.378 . S
C2270 C2265 1.350 . S
C2271 H2258 0.929 . S
C2271 C2263 1.433 . S
C2271 N2273 1.384 . S
N2272 C2268 1.427 . S
N2272 C2269 1.384 . S
N2273 C2265 1.427 . S
N2273 C2271 1.384 . S
H2274 C2280 0.930 . S
H2275 C2284 0.930 . S
H2276 C2289 0.929 . S
H2277 C2287 0.929 . S
H2278 C2282 0.929 . S
H2279 C2288 0.929 . S
C2280 H2274 0.930 . S
C2280 C2281 1.367 . S
C2280 C2288 1.378 . S
C2281 C2280 1.367 . S
C2281 C2289 1.433 . S
C2282 H2278 0.929 . S
C2282 C2284 1.378 . S
C2282 C2286 1.350 . S
C2283 C2286 1.463 . S
C2283 C2288 1.350 . S
C2283 N2291 1.427 . S
C2284 H2275 0.930 . S
C2284 C2282 1.378 . S
C2284 C2285 1.367 . S
C2285 C2284 1.367 . S
C2285 C2287 1.433 . S
C2286 C2282 1.350 . S
C2286 C2283 1.463 . S
C2286 N2290 1.427 . S
C2287 H2277 0.929 . S
C2287 C2285 1.433 . S
C2287 N2290 1.384 . S
C2288 H2279 0.929 . S
C2288 C2280 1.378 . S
C2288 C2283 1.350 . S
C2289 H2276 0.929 . S
C2289 C2281 1.433 . S
C2289 N2291 1.384 . S
N2290 C2286 1.427 . S
N2290 C2287 1.384 . S
N2291 C2283 1.427 . S
N2291 C2289 1.384 . S
H2292 C2298 0.930 . S
H2293 C2302 0.930 . S
H2294 C2307 0.929 . S
H2295 C2305 0.929 . S
H2296 C2300 0.929 . S
H2297 C2306 0.929 . S
C2298 H2292 0.930 . S
C2298 C2299 1.367 . S
C2298 C2306 1.378 . S
C2299 C2298 1.367 . S
C2299 C2307 1.433 . S
C2300 H2296 0.929 . S
C2300 C2302 1.378 . S
C2300 C2304 1.350 . S
C2301 C2304 1.463 . S
C2301 C2306 1.350 . S
C2301 N2309 1.427 . S
C2302 H2293 0.930 . S
C2302 C2300 1.378 . S
C2302 C2303 1.367 . S
C2303 C2302 1.367 . S
C2303 C2305 1.433 . S
C2304 C2300 1.350 . S
C2304 C2301 1.463 . S
C2304 N2308 1.427 . S
C2305 H2295 0.929 . S
C2305 C2303 1.433 . S
C2305 N2308 1.384 . S
C2306 H2297 0.929 . S
C2306 C2298 1.378 . S
C2306 C2301 1.350 . S
C2307 H2294 0.929 . S
C2307 C2299 1.433 . S
C2307 N2309 1.384 . S
N2308 C2304 1.427 . S
N2308 C2305 1.384 . S
N2309 C2301 1.427 . S
N2309 C2307 1.384 . S
H2310 C2316 0.930 . S
H2311 C2320 0.930 . S
H2312 C2325 0.929 . S
H2313 C2323 0.929 . S
H2314 C2318 0.929 . S
H2315 C2324 0.929 . S
C2316 H2310 0.930 . S
C2316 C2317 1.367 . S
C2316 C2324 1.378 . S
C2317 C2316 1.367 . S
C2317 C2325 1.433 . S
C2318 H2314 0.929 . S
C2318 C2320 1.378 . S
C2318 C2322 1.350 . S
C2319 C2322 1.463 . S
C2319 C2324 1.350 . S
C2319 N2327 1.427 . S
C2320 H2311 0.930 . S
C2320 C2318 1.378 . S
C2320 C2321 1.367 . S
C2321 C2320 1.367 . S
C2321 C2323 1.433 . S
C2322 C2318 1.350 . S
C2322 C2319 1.463 . S
C2322 N2326 1.427 . S
C2323 H2313 0.929 . S
C2323 C2321 1.433 . S
C2323 N2326 1.384 . S
C2324 H2315 0.929 . S
C2324 C2316 1.378 . S
C2324 C2319 1.350 . S
C2325 H2312 0.929 . S
C2325 C2317 1.433 . S
C2325 N2327 1.384 . S
N2326 C2322 1.427 . S
N2326 C2323 1.384 . S
N2327 C2319 1.427 . S
N2327 C2325 1.384 . S
H2328 C2334 0.930 . S
H2329 C2338 0.930 . S
H2330 C2343 0.929 . S
H2331 C2341 0.929 . S
H2332 C2336 0.929 . S
H2333 C2342 0.929 . S
C2334 H2328 0.930 . S
C2334 C2335 1.367 . S
C2334 C2342 1.378 . S
C2335 C2334 1.367 . S
C2335 C2343 1.433 . S
C2336 H2332 0.929 . S
C2336 C2338 1.378 . S
C2336 C2340 1.350 . S
C2337 C2340 1.463 . S
C2337 C2342 1.350 . S
C2337 N2345 1.427 . S
C2338 H2329 0.930 . S
C2338 C2336 1.378 . S
C2338 C2339 1.367 . S
C2339 C2338 1.367 . S
C2339 C2341 1.433 . S
C2340 C2336 1.350 . S
C2340 C2337 1.463 . S
C2340 N2344 1.427 . S
C2341 H2331 0.929 . S
C2341 C2339 1.433 . S
C2341 N2344 1.384 . S
C2342 H2333 0.929 . S
C2342 C2334 1.378 . S
C2342 C2337 1.350 . S
C2343 H2330 0.929 . S
C2343 C2335 1.433 . S
C2343 N2345 1.384 . S
N2344 C2340 1.427 . S
N2344 C2341 1.384 . S
N2345 C2337 1.427 . S
N2345 C2343 1.384 . S
H2346 C2352 0.930 . S
H2347 C2356 0.930 . S
H2348 C2361 0.929 . S
H2349 C2359 0.929 . S
H2350 C2354 0.929 . S
H2351 C2360 0.929 . S
C2352 H2346 0.930 . S
C2352 C2353 1.367 . S
C2352 C2360 1.378 . S
C2353 C2352 1.367 . S
C2353 C2361 1.433 . S
C2354 H2350 0.929 . S
C2354 C2356 1.378 . S
C2354 C2358 1.350 . S
C2355 C2358 1.463 . S
C2355 C2360 1.350 . S
C2355 N2363 1.427 . S
C2356 H2347 0.930 . S
C2356 C2354 1.378 . S
C2356 C2357 1.367 . S
C2357 C2356 1.367 . S
C2357 C2359 1.433 . S
C2358 C2354 1.350 . S
C2358 C2355 1.463 . S
C2358 N2362 1.427 . S
C2359 H2349 0.929 . S
C2359 C2357 1.433 . S
C2359 N2362 1.384 . S
C2360 H2351 0.929 . S
C2360 C2352 1.378 . S
C2360 C2355 1.350 . S
C2361 H2348 0.929 . S
C2361 C2353 1.433 . S
C2361 N2363 1.384 . S
N2362 C2358 1.427 . S
N2362 C2359 1.384 . S
N2363 C2355 1.427 . S
N2363 C2361 1.384 . S
H2364 C2370 0.930 . S
H2365 C2374 0.930 . S
H2366 C2379 0.929 . S
H2367 C2377 0.929 . S
H2368 C2372 0.929 . S
H2369 C2378 0.929 . S
C2370 H2364 0.930 . S
C2370 C2371 1.367 . S
C2370 C2378 1.378 . S
C2371 C2370 1.367 . S
C2371 C2379 1.433 . S
C2372 H2368 0.929 . S
C2372 C2374 1.378 . S
C2372 C2376 1.350 . S
C2373 C2376 1.463 . S
C2373 C2378 1.350 . S
C2373 N2381 1.427 . S
C2374 H2365 0.930 . S
C2374 C2372 1.378 . S
C2374 C2375 1.367 . S
C2375 C2374 1.367 . S
C2375 C2377 1.433 . S
C2376 C2372 1.350 . S
C2376 C2373 1.463 . S
C2376 N2380 1.427 . S
C2377 H2367 0.929 . S
C2377 C2375 1.433 . S
C2377 N2380 1.384 . S
C2378 H2369 0.929 . S
C2378 C2370 1.378 . S
C2378 C2373 1.350 . S
C2379 H2366 0.929 . S
C2379 C2371 1.433 . S
C2379 N2381 1.384 . S
N2380 C2376 1.427 . S
N2380 C2377 1.384 . S
N2381 C2373 1.427 . S
N2381 C2379 1.384 . S
H2382 C2388 0.930 . S
H2383 C2392 0.930 . S
H2384 C2397 0.929 . S
H2385 C2395 0.929 . S
H2386 C2390 0.929 . S
H2387 C2396 0.929 . S
C2388 H2382 0.930 . S
C2388 C2389 1.367 . S
C2388 C2396 1.378 . S
C2389 C2388 1.367 . S
C2389 C2397 1.433 . S
C2390 H2386 0.929 . S
C2390 C2392 1.378 . S
C2390 C2394 1.350 . S
C2391 C2394 1.463 . S
C2391 C2396 1.350 . S
C2391 N2399 1.427 . S
C2392 H2383 0.930 . S
C2392 C2390 1.378 . S
C2392 C2393 1.367 . S
C2393 C2392 1.367 . S
C2393 C2395 1.433 . S
C2394 C2390 1.350 . S
C2394 C2391 1.463 . S
C2394 N2398 1.427 . S
C2395 H2385 0.929 . S
C2395 C2393 1.433 . S
C2395 N2398 1.384 . S
C2396 H2387 0.929 . S
C2396 C2388 1.378 . S
C2396 C2391 1.350 . S
C2397 H2384 0.929 . S
C2397 C2389 1.433 . S
C2397 N2399 1.384 . S
N2398 C2394 1.427 . S
N2398 C2395 1.384 . S
N2399 C2391 1.427 . S
N2399 C2397 1.384 . S
C679 C442 1.383 . S
C683 C8 1.383 . S
C697 C22 1.382 . S
C701 C400 1.383 . S
C715 C36 1.383 . S
C719 C414 1.383 . S
C733 C428 1.383 . S
C737 C50 1.383 . S
C751 C358 1.382 . S
C755 C64 1.382 . S
C769 C78 1.382 . S
C773 C372 1.383 . S
C787 C386 1.382 . S
C791 C92 1.383 . S
C805 C106 1.383 . S
C809 C344 1.383 . S
C823 C120 1.382 . S
C827 C624 1.382 . S
C841 C582 1.383 . S
C845 C134 1.382 . S
C859 C596 1.382 . S
C863 C148 1.383 . S
C877 C162 1.382 . S
C881 C610 1.383 . S
C895 C176 1.383 . S
C899 C666 1.382 . S
C913 C190 1.383 . S
C917 C638 1.382 . S
C931 C204 1.382 . S
C935 C652 1.383 . S
C949 C568 1.382 . S
C953 C218 1.383 . S
C967 C554 1.382 . S
C971 C232 1.383 . S
C985 C246 1.383 . S
C989 C470 1.383 . S
C1003 C484 1.383 . S
C1007 C260 1.383 . S
C1021 C274 1.382 . S
C1025 C498 1.382 . S
C1039 C456 1.383 . S
C1043 C288 1.383 . S
C1057 C526 1.382 . S
C1061 C302 1.383 . S
C1075 C316 1.383 . S
C1079 C540 1.383 . S
C1093 C512 1.382 . S
C1097 C330 1.383 . S
C1111 C133 1.309 . S
C1115 C7 1.319 . S
C1129 C147 1.318 . S
C1133 C21 1.309 . S
C1147 C35 1.317 . S
C1151 C161 1.309 . S
C1165 C119 1.310 . S
C1169 C49 1.315 . S
C1183 C63 1.309 . S
C1187 C217 1.319 . S
C1201 C175 1.313 . S
C1205 C77 1.311 . S
C1219 C189 1.310 . S
C1223 C91 1.315 . S
C1237 C203 1.317 . S
C1241 C105 1.315 . S
C1255 C259 1.314 . S
C1259 C231 1.311 . S
C1273 C315 1.310 . S
C1277 C245 1.314 . S
C1291 C329 1.310 . S
C1295 C273 1.315 . S
C1309 C287 1.313 . S
C1313 C301 1.318 . S
C1327 C469 1.320 . S
C1331 C343 1.310 . S
C1345 C483 1.318 . S
C1349 C357 1.314 . S
C1363 C497 1.311 . S
C1367 C371 1.319 . S
C1381 C385 1.313 . S
C1385 C455 1.312 . S
C1399 C399 1.320 . S
C1403 C553 1.310 . S
C1417 C413 1.314 . S
C1421 C511 1.318 . S
C1435 C525 1.318 . S
C1439 C427 1.314 . S
C1453 C539 1.310 . S
C1457 C441 1.315 . S
C1471 C567 1.318 . S
C1475 C595 1.309 . S
C1489 C651 1.312 . S
C1493 C581 1.312 . S
C1507 C665 1.310 . S
C1511 C609 1.315 . S
C1525 C637 1.313 . S
C1529 C623 1.311 . S
C1543 C3 1.433 . S
C1547 C261 1.403 . S
C1561 C17 1.433 . S
C1565 C275 1.410 . S
C1579 C31 1.433 . S
C1583 C289 1.409 . S
C1597 C247 1.412 . S
C1601 C45 1.438 . S
C1615 C59 1.435 . S
C1619 C317 1.404 . S
C1633 C73 1.433 . S
C1637 C233 1.408 . S
C1651 C331 1.415 . S
C1655 C87 1.437 . S
C1669 C303 1.415 . S
C1673 C101 1.437 . S
C1687 C115 1.432 . S
C1691 C135 1.404 . S
C1705 C129 1.433 . S
C1709 C149 1.403 . S
C1723 C143 1.438 . S
C1727 C163 1.415 . S
C1741 C121 1.408 . S
C1745 C157 1.433 . S
C1759 C219 1.411 . S
C1763 C171 1.438 . S
C1777 C177 1.405 . S
C1781 C185 1.432 . S
C1795 C191 1.404 . S
C1799 C199 1.435 . S
C1813 C213 1.432 . S
C1817 C205 1.405 . S
C1831 C51 1.405 . S
C1835 C227 1.436 . S
C1849 C79 1.410 . S
C1853 C241 1.438 . S
C1867 C93 1.412 . S
C1871 C255 1.438 . S
C1885 C269 1.437 . S
C1889 C107 1.408 . S
C1903 C65 1.403 . S
C1907 C283 1.434 . S
C1921 C23 1.403 . S
C1925 C297 1.433 . S
C1939 C37 1.414 . S
C1943 C311 1.438 . S
C1957 C9 1.410 . S
C1961 C325 1.438 . S
C1975 C597 1.410 . S
C1979 C339 1.438 . S
C1993 C353 1.433 . S
C1997 C611 1.409 . S
C2011 C625 1.408 . S
C2015 C367 1.437 . S
C2029 C583 1.414 . S
C2033 C381 1.438 . S
C2047 C395 1.438 . S
C2051 C653 1.415 . S
C2065 C409 1.438 . S
C2069 C569 1.415 . S
C2083 C667 1.407 . S
C2087 C423 1.432 . S
C2101 C437 1.438 . S
C2105 C639 1.414 . S
C2119 C451 1.435 . S
C2123 C471 1.404 . S
C2137 C465 1.438 . S
C2141 C485 1.415 . S
C2155 C479 1.438 . S
C2159 C499 1.415 . S
C2173 C493 1.438 . S
C2177 C457 1.415 . S
C2191 C555 1.407 . S
C2195 C507 1.437 . S
C2209 C513 1.404 . S
C2213 C521 1.432 . S
C2227 C527 1.405 . S
C2231 C535 1.432 . S
C2245 C549 1.433 . S
C2249 C541 1.408 . S
C2263 C387 1.415 . S
C2267 C563 1.436 . S
C2281 C415 1.414 . S
C2285 C577 1.436 . S
C2299 C429 1.413 . S
C2303 C591 1.435 . S
C2317 C605 1.437 . S
C2321 C443 1.415 . S
C2335 C401 1.408 . S
C2339 C619 1.433 . S
C2353 C359 1.414 . S
C2357 C633 1.436 . S
C2371 C647 1.438 . S
C2375 C373 1.413 . S
C2389 C345 1.404 . S
C2393 C661 1.432 . S
