# Generated by pormake.
# Topology vda, (6)-cn, num edge types: 1
# Building blocks:
#     Node 0, Type 0, BuildingBlock: OJICUG_clean_sbu_0, # of connection points: 6
#     Node 1, Type 0, BuildingBlock: OJICUG_clean_sbu_0, # of connection points: 6
#     Node 2, Type 0, BuildingBlock: OJICUG_clean_sbu_0, # of connection points: 6
#     Node 3, Type 0, BuildingBlock: OJICUG_clean_sbu_0, # of connection points: 6
#     Node 4, Type 0, BuildingBlock: OJICUG_clean_sbu_0, # of connection points: 6
#     Node 5, Type 0, BuildingBlock: OJICUG_clean_sbu_0, # of connection points: 6
#     Node 6, Type 0, BuildingBlock: OJICUG_clean_sbu_0, # of connection points: 6
#     Node 7, Type 0, BuildingBlock: OJICUG_clean_sbu_0, # of connection points: 6
#     Node 8, Type 0, BuildingBlock: OJICUG_clean_sbu_0, # of connection points: 6
#     Node 9, Type 0, BuildingBlock: OJICUG_clean_sbu_0, # of connection points: 6
#     Node 10, Type 0, BuildingBlock: OJICUG_clean_sbu_0, # of connection points: 6
#     Node 11, Type 0, BuildingBlock: OJICUG_clean_sbu_0, # of connection points: 6
#     Node 12, Type 0, BuildingBlock: OJICUG_clean_sbu_0, # of connection points: 6
#     Node 13, Type 0, BuildingBlock: OJICUG_clean_sbu_0, # of connection points: 6
#     Node 14, Type 0, BuildingBlock: OJICUG_clean_sbu_0, # of connection points: 6
#     Node 15, Type 0, BuildingBlock: OJICUG_clean_sbu_0, # of connection points: 6
#     Node 16, Type 0, BuildingBlock: OJICUG_clean_sbu_0, # of connection points: 6
#     Node 17, Type 0, BuildingBlock: OJICUG_clean_sbu_0, # of connection points: 6
#     Node 18, Type 0, BuildingBlock: OJICUG_clean_sbu_0, # of connection points: 6
#     Node 19, Type 0, BuildingBlock: OJICUG_clean_sbu_0, # of connection points: 6
#     Node 20, Type 0, BuildingBlock: OJICUG_clean_sbu_0, # of connection points: 6
#     Node 21, Type 0, BuildingBlock: OJICUG_clean_sbu_0, # of connection points: 6
#     Node 22, Type 0, BuildingBlock: OJICUG_clean_sbu_0, # of connection points: 6
#     Node 23, Type 0, BuildingBlock: OJICUG_clean_sbu_0, # of connection points: 6
#     Node 24, Type 0, BuildingBlock: OJICUG_clean_sbu_0, # of connection points: 6
#     Node 25, Type 0, BuildingBlock: OJICUG_clean_sbu_0, # of connection points: 6
#     Node 26, Type 0, BuildingBlock: OJICUG_clean_sbu_0, # of connection points: 6
#     Node 27, Type 0, BuildingBlock: OJICUG_clean_sbu_0, # of connection points: 6
#     Node 28, Type 0, BuildingBlock: OJICUG_clean_sbu_0, # of connection points: 6
#     Node 29, Type 0, BuildingBlock: OJICUG_clean_sbu_0, # of connection points: 6
#     Node 30, Type 0, BuildingBlock: OJICUG_clean_sbu_0, # of connection points: 6
#     Node 31, Type 0, BuildingBlock: OJICUG_clean_sbu_0, # of connection points: 6
#     Edge 32, Type (0, 0), None
#     Edge 33, Type (0, 0), None
#     Edge 34, Type (0, 0), None
#     Edge 35, Type (0, 0), None
#     Edge 36, Type (0, 0), None
#     Edge 37, Type (0, 0), None
#     Edge 38, Type (0, 0), None
#     Edge 39, Type (0, 0), None
#     Edge 40, Type (0, 0), None
#     Edge 41, Type (0, 0), None
#     Edge 42, Type (0, 0), None
#     Edge 43, Type (0, 0), None
#     Edge 44, Type (0, 0), None
#     Edge 45, Type (0, 0), None
#     Edge 46, Type (0, 0), None
#     Edge 47, Type (0, 0), None
#     Edge 48, Type (0, 0), None
#     Edge 49, Type (0, 0), None
#     Edge 50, Type (0, 0), None
#     Edge 51, Type (0, 0), None
#     Edge 52, Type (0, 0), None
#     Edge 53, Type (0, 0), None
#     Edge 54, Type (0, 0), None
#     Edge 55, Type (0, 0), None
#     Edge 56, Type (0, 0), None
#     Edge 57, Type (0, 0), None
#     Edge 58, Type (0, 0), None
#     Edge 59, Type (0, 0), None
#     Edge 60, Type (0, 0), None
#     Edge 61, Type (0, 0), None
#     Edge 62, Type (0, 0), None
#     Edge 63, Type (0, 0), None
#     Edge 64, Type (0, 0), None
#     Edge 65, Type (0, 0), None
#     Edge 66, Type (0, 0), None
#     Edge 67, Type (0, 0), None
#     Edge 68, Type (0, 0), None
#     Edge 69, Type (0, 0), None
#     Edge 70, Type (0, 0), None
#     Edge 71, Type (0, 0), None
#     Edge 72, Type (0, 0), None
#     Edge 73, Type (0, 0), None
#     Edge 74, Type (0, 0), None
#     Edge 75, Type (0, 0), None
#     Edge 76, Type (0, 0), None
#     Edge 77, Type (0, 0), None
#     Edge 78, Type (0, 0), None
#     Edge 79, Type (0, 0), None
#     Edge 80, Type (0, 0), None
#     Edge 81, Type (0, 0), None
#     Edge 82, Type (0, 0), None
#     Edge 83, Type (0, 0), None
#     Edge 84, Type (0, 0), None
#     Edge 85, Type (0, 0), None
#     Edge 86, Type (0, 0), None
#     Edge 87, Type (0, 0), None
#     Edge 88, Type (0, 0), None
#     Edge 89, Type (0, 0), None
#     Edge 90, Type (0, 0), None
#     Edge 91, Type (0, 0), None
#     Edge 92, Type (0, 0), None
#     Edge 93, Type (0, 0), None
#     Edge 94, Type (0, 0), None
#     Edge 95, Type (0, 0), None
#     Edge 96, Type (0, 0), None
#     Edge 97, Type (0, 0), None
#     Edge 98, Type (0, 0), None
#     Edge 99, Type (0, 0), None
#     Edge 100, Type (0, 0), None
#     Edge 101, Type (0, 0), None
#     Edge 102, Type (0, 0), None
#     Edge 103, Type (0, 0), None
#     Edge 104, Type (0, 0), None
#     Edge 105, Type (0, 0), None
#     Edge 106, Type (0, 0), None
#     Edge 107, Type (0, 0), None
#     Edge 108, Type (0, 0), None
#     Edge 109, Type (0, 0), None
#     Edge 110, Type (0, 0), None
#     Edge 111, Type (0, 0), None
#     Edge 112, Type (0, 0), None
#     Edge 113, Type (0, 0), None
#     Edge 114, Type (0, 0), None
#     Edge 115, Type (0, 0), None
#     Edge 116, Type (0, 0), None
#     Edge 117, Type (0, 0), None
#     Edge 118, Type (0, 0), None
#     Edge 119, Type (0, 0), None
#     Edge 120, Type (0, 0), None
#     Edge 121, Type (0, 0), None
#     Edge 122, Type (0, 0), None
#     Edge 123, Type (0, 0), None
#     Edge 124, Type (0, 0), None
#     Edge 125, Type (0, 0), None
#     Edge 126, Type (0, 0), None
#     Edge 127, Type (0, 0), None
# Relax obj value: 0.394
# Max RMSD: 0.262
# Mean RMSD: 0.262
data_MOF--net-vda--node1-OJICUG_clean_sbu_0--edge1-none
_symmetry_space_group_name_H-M    P1
_symmetry_Int_Tables_number       1
_symmetry_cell_setting            triclinic
loop_
_symmetry_equiv_pos_as_xyz
'x, y, z'
_cell_length_a     22.933559
_cell_length_b     19.057046
_cell_length_c     28.332866
_cell_angle_alpha  90.000669
_cell_angle_beta   89.997985
_cell_angle_gamma 89.985062
loop_
_atom_site_label
_atom_site_type_symbol
_atom_site_fract_x
_atom_site_fract_y
_atom_site_fract_z
_atom_type_partial_charge
Sc0 Sc 0.41436 0.88707 1.02687 0.0
Sc1 Sc 0.45763 -0.00434 0.11394 0.0
Sc2 Sc 0.36673 0.05843 1.02822 0.0
O3 O 0.41442 -0.01841 0.0536 0.0
C4 C 0.43392 -0.01354 0.93853 0.0
C5 C 0.54388 -0.06469 0.04751 0.0
C6 C 0.47043 0.14375 0.07152 0.0
C7 C 0.43608 0.83983 0.1237 0.0
C8 C 0.27998 0.92532 1.01186 0.0
C9 C 0.33933 0.03856 0.14147 0.0
O10 O 0.43645 0.92712 0.95905 0.0
O11 O 0.53352 -0.01104 0.07321 0.0
O12 O 0.44248 0.12893 1.03408 0.0
O13 O 0.39368 0.84928 0.09605 0.0
O14 O 0.28773 -0.00874 1.01879 0.0
O15 O 0.37294 -0.01338 0.14296 0.0
O16 O 0.32228 0.88231 1.01127 0.0
O17 O 0.47178 0.88861 0.13003 0.0
O18 O 0.33712 0.07758 0.10368 0.0
O19 O 0.50719 0.88639 1.03901 0.0
O20 O 0.40427 0.0384 0.95569 0.0
O21 O 0.45808 0.11003 0.10888 0.0
Sc22 Sc 1.02874 0.0531 1.02818 0.0
Sc23 Sc 0.93782 0.11586 0.1139 0.0
Sc24 Sc 0.98109 0.22445 1.02684 0.0
O25 O 0.98104 0.12993 0.05356 0.0
C26 C 0.11548 0.18622 1.01183 0.0
C27 C 1.05612 0.07297 0.14144 0.0
C28 C 0.95936 0.27168 0.12367 0.0
C29 C 0.92504 -0.03223 0.07148 0.0
C30 C 0.96156 0.12506 0.93849 0.0
C31 C 0.85158 0.17618 0.04746 0.0
O32 O 0.10773 0.12027 1.01876 0.0
O33 O 1.0225 0.12491 0.14292 0.0
O34 O 1.00177 0.26224 0.09602 0.0
O35 O 0.95299 -0.0174 1.03404 0.0
O36 O 0.95902 0.1844 0.95901 0.0
O37 O 0.86194 0.12253 0.07316 0.0
O38 O 0.9912 0.07313 0.95565 0.0
O39 O 0.93739 0.00148 0.10884 0.0
O40 O 0.88826 0.22511 1.03897 0.0
O41 O 1.05834 0.03395 0.10364 0.0
O42 O 0.07317 0.22922 1.01124 0.0
O43 O 0.92366 0.2229 0.12999 0.0
Sc44 Sc 0.41426 0.22404 0.30189 0.0
Sc45 Sc 0.45653 0.11537 0.21463 0.0
Sc46 Sc 0.36649 0.05271 0.30098 0.0
O47 O 0.41419 0.12943 0.27536 0.0
C48 C 0.43421 0.12496 0.39033 0.0
C49 C 0.54377 0.17599 0.28007 0.0
C50 C 0.46993 -0.03252 0.25739 0.0
C51 C 0.43482 0.2711 0.20479 0.0
C52 C 0.27989 0.18597 0.31733 0.0
C53 C 0.33842 0.072 0.18797 0.0
O54 O 0.43699 0.18413 0.36961 0.0
O55 O 0.53319 0.1223 0.25447 0.0
O56 O 0.44228 -0.01769 0.29499 0.0
O57 O 0.3928 0.26176 0.23283 0.0
O58 O 0.28755 0.12003 0.31027 0.0
O59 O 0.37114 0.12469 0.18686 0.0
O60 O 0.32228 0.22885 0.31804 0.0
O61 O 0.47044 0.2223 0.19822 0.0
O62 O 0.33665 0.03278 0.22567 0.0
O63 O 0.507 0.22466 0.28908 0.0
O64 O 0.4042 0.07315 0.37342 0.0
O65 O 0.45715 0.00102 0.22004 0.0
Sc66 Sc 1.02897 0.05881 0.30094 0.0
Sc67 Sc 0.93893 -0.00385 0.21459 0.0
Sc68 Sc 0.98119 0.88749 0.30185 0.0
O69 O 0.98127 -0.01791 0.27532 0.0
C70 C 0.11555 0.92555 0.3173 0.0
C71 C 1.05704 0.03954 0.18793 0.0
C72 C 0.96065 0.84042 0.20475 0.0
C73 C 0.92553 0.14404 0.25737 0.0
C74 C 0.96124 -0.01344 0.39029 0.0
C75 C 0.85168 -0.06446 0.28003 0.0
O76 O 0.10791 -0.00852 0.31023 0.0
O77 O 1.02433 -0.01317 0.18682 0.0
O78 O 1.00267 0.84976 0.2328 0.0
O79 O 0.95319 0.12922 0.29496 0.0
O80 O 0.95845 0.9274 0.36957 0.0
O81 O 0.86227 -0.01077 0.25443 0.0
O82 O 0.99126 0.03836 0.37339 0.0
O83 O 0.93831 0.11051 0.22001 0.0
O84 O 0.88846 0.88687 0.28903 0.0
O85 O 1.05881 0.07874 0.22563 0.0
O86 O 0.07317 0.88267 0.31802 0.0
O87 O 0.92504 0.88922 0.19818 0.0
Sc88 Sc 0.77875 0.80294 0.0504 0.0
Sc89 Sc 0.6885 0.86562 0.96417 0.0
Sc90 Sc 0.73098 -0.02573 0.0514 0.0
O91 O 0.73109 0.8797 1.02479 0.0
C92 C 0.71099 0.87502 0.13978 0.0
C93 C 0.67531 0.71761 1.00675 0.0
C94 C 0.60161 0.92607 1.02996 0.0
C95 C 0.80675 0.82247 0.93732 0.0
C96 C 0.86531 -0.06383 0.06697 0.0
C97 C 0.71007 0.02142 0.95441 0.0
O98 O 0.74091 0.82316 0.12281 0.0
O99 O 0.68793 0.75124 0.96941 0.0
O100 O 0.63829 -0.02509 1.03868 0.0
O101 O 0.80871 0.7834 0.97509 0.0
O102 O 0.82294 -0.02091 0.06751 0.0
O103 O 0.67448 -0.0274 0.94787 0.0
O104 O 0.85767 0.87023 0.05994 0.0
O105 O 0.77368 0.87487 0.93603 0.0
O106 O 0.75223 0.01203 0.98232 0.0
O107 O 0.70303 0.73245 0.04431 0.0
O108 O 0.70834 -0.06575 0.11913 0.0
O109 O 0.6121 0.87242 1.0043 0.0
Sc110 Sc 0.16415 0.63729 0.05185 0.0
Sc111 Sc 0.20726 0.74587 0.96479 0.0
Sc112 Sc 0.11649 0.80865 0.05058 0.0
O113 O 0.16426 0.73184 1.02522 0.0
C114 C 1.02971 0.67553 0.06667 0.0
C115 C 0.18551 0.59015 0.95492 0.0
C116 C 0.0892 0.78911 0.93734 0.0
C117 C 0.29381 0.68537 1.03093 0.0
C118 C 0.1836 0.73647 0.14027 0.0
C119 C 0.22021 0.89385 1.00741 0.0
O120 O 1.07204 0.63256 0.06747 0.0
O121 O 0.22128 0.63885 0.94859 0.0
O122 O 0.08705 0.82819 0.97511 0.0
O123 O 0.25704 0.6366 0.03966 0.0
O124 O 0.15388 0.78839 0.12316 0.0
O125 O 0.20781 0.86024 0.97001 0.0
O126 O 0.18629 0.6772 0.11967 0.0
O127 O 0.28338 0.73903 1.00526 0.0
O128 O 0.19228 0.87906 0.04486 0.0
O129 O 0.14324 0.59962 0.98269 0.0
O130 O 1.03746 0.74147 0.05972 0.0
O131 O 0.12236 0.73677 0.93613 0.0
Sc132 Sc 0.77872 0.80857 0.77783 0.0
Sc133 Sc 0.68853 0.74588 0.86409 0.0
Sc134 Sc 0.73099 0.63726 0.77684 0.0
O135 O 0.73109 0.73182 0.80345 0.0
C136 C 0.71096 0.73652 0.68846 0.0
C137 C 0.67531 0.8939 0.82153 0.0
C138 C 0.60161 0.68542 0.79836 0.0
C139 C 0.80681 0.78893 0.89086 0.0
C140 C 0.8653 0.67535 0.76123 0.0
C141 C 0.71011 0.59009 0.87383 0.0
O142 O 0.74087 0.78837 0.70543 0.0
O143 O 0.68796 0.86025 0.85886 0.0
O144 O 0.63832 0.63661 0.78958 0.0
O145 O 0.80871 0.8281 0.85314 0.0
O146 O 0.82295 0.63243 0.7607 0.0
O147 O 0.67452 0.63892 0.88039 0.0
O148 O 0.85764 0.74129 0.76826 0.0
O149 O 0.77373 0.73655 0.89219 0.0
O150 O 0.75226 0.59946 0.84591 0.0
O151 O 0.703 0.87908 0.78395 0.0
O152 O 0.70833 0.67728 0.70911 0.0
O153 O 0.6121 0.7391 0.82399 0.0
Sc154 Sc 0.16413 -0.02577 0.77638 0.0
Sc155 Sc 0.20723 0.86568 0.86347 0.0
Sc156 Sc 0.11651 0.80288 0.77766 0.0
O157 O 0.16426 0.87969 0.80303 0.0
C158 C 1.02972 -0.06401 0.76153 0.0
C159 C 0.18547 0.02139 0.87331 0.0
C160 C 0.08914 0.82256 0.89085 0.0
C161 C 0.2938 0.92614 0.79735 0.0
C162 C 0.18363 0.87503 0.68797 0.0
C163 C 0.22022 0.71768 0.82088 0.0
O164 O 1.07204 -0.02104 0.76075 0.0
O165 O 0.22124 -0.02732 0.87965 0.0
O166 O 0.08704 0.78337 0.85313 0.0
O167 O 0.25702 -0.02509 0.78859 0.0
O168 O 0.15392 0.82312 0.70509 0.0
O169 O 0.20775 0.75131 0.85826 0.0
O170 O 0.1863 -0.06571 0.70857 0.0
O171 O 0.28337 0.87248 0.82301 0.0
O172 O 0.19231 0.73247 0.78341 0.0
O173 O 0.1432 0.01194 0.84554 0.0
O174 O 1.03749 0.87006 0.76849 0.0
O175 O 0.12231 0.87486 0.8921 0.0
Sc176 Sc 0.41427 0.3875 0.52642 0.0
Sc177 Sc 0.45651 0.49616 0.61368 0.0
Sc178 Sc 0.36646 0.55883 0.52734 0.0
O179 O 0.41418 0.4821 0.55295 0.0
C180 C 0.43419 0.48657 0.43798 0.0
C181 C 0.54377 0.43552 0.54825 0.0
C182 C 0.46992 0.64405 0.57088 0.0
C183 C 0.4348 0.34042 0.62352 0.0
C184 C 0.27988 0.42557 0.51099 0.0
C185 C 0.33845 0.53969 0.64039 0.0
O186 O 0.437 0.42741 0.45871 0.0
O187 O 0.53318 0.4892 0.57385 0.0
O188 O 0.44225 0.62922 0.5333 0.0
O189 O 0.39279 0.34978 0.59547 0.0
O190 O 0.28751 0.49151 0.51806 0.0
O191 O 0.37111 0.48692 0.64144 0.0
O192 O 0.32229 0.3827 0.51026 0.0
O193 O 0.47041 0.38921 0.6301 0.0
O194 O 0.33663 0.5788 0.60265 0.0
O195 O 0.50701 0.38685 0.53924 0.0
O196 O 0.40415 0.53837 0.45489 0.0
O197 O 0.45717 0.61053 0.60824 0.0
Sc198 Sc 1.02901 0.5527 0.5273 0.0
Sc199 Sc 0.93893 0.61535 0.61364 0.0
Sc200 Sc 0.98118 0.72402 0.52639 0.0
O201 O 0.98127 0.62942 0.55292 0.0
C202 C 0.11557 0.68596 0.51096 0.0
C203 C 1.057 0.57185 0.64035 0.0
C204 C 0.96063 0.77109 0.62349 0.0
C205 C 0.92555 0.46747 0.57084 0.0
C206 C 0.96127 0.62496 0.43795 0.0
C207 C 0.85168 0.67597 0.5482 0.0
O208 O 0.10794 0.62002 0.51803 0.0
O209 O 1.02433 0.62461 0.64141 0.0
O210 O 1.00265 0.76173 0.59544 0.0
O211 O 0.95322 0.4823 0.53326 0.0
O212 O 0.95846 0.68412 0.45867 0.0
O213 O 0.86227 0.62229 0.5738 0.0
O214 O 0.99132 0.57316 0.45485 0.0
O215 O 0.9383 0.50099 0.6082 0.0
O216 O 0.88844 0.72465 0.5392 0.0
O217 O 1.05882 0.53274 0.60261 0.0
O218 O 0.07316 0.72884 0.51023 0.0
O219 O 0.92502 0.7223 0.63006 0.0
Sc220 Sc 0.41435 0.72446 0.80144 0.0
Sc221 Sc 0.45765 0.61588 0.71437 0.0
Sc222 Sc 0.36676 0.55311 0.8001 0.0
O223 O 0.41443 0.62995 0.77471 0.0
C224 C 0.43393 0.62506 0.88978 0.0
C225 C 0.54387 0.67618 0.78084 0.0
C226 C 0.47044 0.46778 0.75676 0.0
C227 C 0.4361 0.77169 0.70462 0.0
C228 C 0.27999 0.68622 0.81646 0.0
C229 C 0.33931 0.57312 0.68689 0.0
O230 O 0.43643 0.6844 0.86927 0.0
O231 O 0.53353 0.62253 0.75513 0.0
O232 O 0.44251 0.4826 0.79421 0.0
O233 O 0.39369 0.76227 0.73226 0.0
O234 O 0.28777 0.62028 0.80954 0.0
O235 O 0.37298 0.62499 0.68534 0.0
O236 O 0.32227 0.72923 0.81704 0.0
O237 O 0.47181 0.7229 0.6983 0.0
O238 O 0.33714 0.53401 0.72464 0.0
O239 O 0.50718 0.72512 0.78932 0.0
O240 O 0.40432 0.57312 0.87262 0.0
O241 O 0.45807 0.50151 0.71941 0.0
Sc242 Sc 1.0287 0.55841 0.80006 0.0
Sc243 Sc 0.93782 0.49565 0.71433 0.0
Sc244 Sc 0.98109 0.38707 0.8014 0.0
O245 O 0.98102 0.48158 0.77467 0.0
C246 C 0.11545 0.4253 0.81643 0.0
C247 C 1.05615 0.53842 0.68685 0.0
C248 C 0.95937 0.33983 0.70457 0.0
C249 C 0.92504 0.64374 0.75673 0.0
C250 C 0.96151 0.48646 0.88974 0.0
C251 C 0.85158 0.43534 0.78076 0.0
O252 O 0.10769 0.49124 0.8095 0.0
O253 O 1.0225 0.48654 0.68531 0.0
O254 O 1.00178 0.34926 0.73222 0.0
O255 O 0.95296 0.62893 0.79418 0.0
O256 O 0.959 0.42713 0.86922 0.0
O257 O 0.86192 0.48899 0.75506 0.0
O258 O 0.99114 0.5384 0.87259 0.0
O259 O 0.93737 0.61002 0.71936 0.0
O260 O 0.88827 0.38641 0.78926 0.0
O261 O 1.05832 0.57753 0.72461 0.0
O262 O 0.07317 0.38229 0.81701 0.0
O263 O 0.92367 0.38862 0.69824 0.0
Sc264 Sc 0.77897 0.30286 0.55058 0.0
Sc265 Sc 0.6882 0.36565 0.4648 0.0
Sc266 Sc 0.73132 0.47423 0.55186 0.0
O267 O 0.7312 0.37968 0.52522 0.0
C268 C 0.71186 0.37505 0.64028 0.0
C269 C 0.67524 0.21766 0.5074 0.0
C270 C 0.60167 0.42613 0.53096 0.0
C271 C 0.80626 0.32242 0.43734 0.0
C272 C 0.86576 0.43597 0.56667 0.0
C273 C 0.70994 0.52137 0.45493 0.0
O274 O 0.74157 0.32312 0.62316 0.0
O275 O 0.68768 0.25128 0.47002 0.0
O276 O 0.63842 0.47492 0.53967 0.0
O277 O 0.80841 0.28333 0.4751 0.0
O278 O 0.82343 0.47895 0.56746 0.0
O279 O 0.67417 0.47266 0.44861 0.0
O280 O 0.858 0.37003 0.55972 0.0
O281 O 0.7731 0.37476 0.43613 0.0
O282 O 0.75222 0.51191 0.48269 0.0
O283 O 0.70317 0.23247 0.54486 0.0
O284 O 0.70919 0.43431 0.61968 0.0
O285 O 0.61209 0.37249 0.50528 0.0
Sc286 Sc 0.16449 0.13726 0.5514 0.0
Sc287 Sc 0.20695 0.2459 0.46416 0.0
Sc288 Sc 0.11671 0.30857 0.55041 0.0
O289 O 0.16438 0.23183 0.5248 0.0
C290 C 1.03015 0.17533 0.56698 0.0
C291 C 0.18538 0.0901 0.4544 0.0
C292 C 0.0887 0.28906 0.43733 0.0
C293 C 0.29386 0.18543 0.52992 0.0
C294 C 0.18447 0.2365 0.63978 0.0
C295 C 0.22013 0.39391 0.50676 0.0
O296 O 1.07252 0.13242 0.56753 0.0
O297 O 0.22096 0.13892 0.44786 0.0
O298 O 0.08675 0.32813 0.4751 0.0
O299 O 0.25717 0.13661 0.53866 0.0
O300 O 0.15454 0.28835 0.62282 0.0
O301 O 0.20755 0.36028 0.46941 0.0
O302 O 0.18714 0.17727 0.61913 0.0
O303 O 0.28337 0.2391 0.50427 0.0
O304 O 0.19242 0.37908 0.54433 0.0
O305 O 0.14322 0.09949 0.48232 0.0
O306 O 1.03779 0.24128 0.55994 0.0
O307 O 0.12177 0.23665 0.43605 0.0
Sc308 Sc 0.77894 0.30865 0.27766 0.0
Sc309 Sc 0.68822 0.24585 0.36346 0.0
Sc310 Sc 0.73133 0.13729 0.27638 0.0
O311 O 0.7312 0.23184 0.30303 0.0
C312 C 0.71183 0.23649 0.18797 0.0
C313 C 0.67523 0.39385 0.32089 0.0
C314 C 0.60167 0.18538 0.29732 0.0
C315 C 0.80631 0.28897 0.39084 0.0
C316 C 0.86574 0.17554 0.26153 0.0
C317 C 0.70998 0.09014 0.37331 0.0
O318 O 0.74153 0.28841 0.20509 0.0
O319 O 0.6877 0.36021 0.35826 0.0
O320 O 0.63845 0.1366 0.28859 0.0
O321 O 0.80841 0.32816 0.35313 0.0
O322 O 0.82343 0.13257 0.26075 0.0
O323 O 0.67421 0.13885 0.37965 0.0
O324 O 0.85797 0.24148 0.26849 0.0
O325 O 0.77314 0.23667 0.3921 0.0
O326 O 0.75225 0.09959 0.34554 0.0
O327 O 0.70314 0.37906 0.28342 0.0
O328 O 0.70917 0.17723 0.20857 0.0
O329 O 0.61209 0.23904 0.323 0.0
Sc330 Sc 0.16448 0.47427 0.27684 0.0
Sc331 Sc 0.20694 0.36565 0.3641 0.0
Sc332 Sc 0.11674 0.30295 0.27784 0.0
O333 O 0.16438 0.3797 0.30346 0.0
C334 C 1.03017 0.43619 0.26123 0.0
C335 C 0.18535 0.52145 0.37384 0.0
C336 C 0.08866 0.3226 0.39087 0.0
C337 C 0.29386 0.42608 0.29835 0.0
C338 C 0.18451 0.375 0.18847 0.0
C339 C 0.22014 0.21763 0.32154 0.0
O340 O 1.07253 0.4791 0.26071 0.0
O341 O 0.22095 0.47261 0.38039 0.0
O342 O 0.08676 0.28344 0.35315 0.0
O343 O 0.25716 0.4749 0.28959 0.0
O344 O 0.15459 0.32315 0.20543 0.0
O345 O 0.20753 0.25127 0.35887 0.0
O346 O 0.18715 0.43423 0.20912 0.0
O347 O 0.28337 0.37241 0.324 0.0
O348 O 0.19246 0.23244 0.28396 0.0
O349 O 0.14321 0.51207 0.34592 0.0
O350 O 1.03783 0.37025 0.26828 0.0
O351 O 0.12174 0.37497 0.3922 0.0
Sc352 Sc 0.91437 0.88706 0.52683 0.0
Sc353 Sc 0.95763 -0.00436 0.61391 0.0
Sc354 Sc 0.86673 0.05841 0.52819 0.0
O355 O 0.91442 -0.01843 0.55357 0.0
C356 C 0.93395 -0.01354 0.43851 0.0
C357 C 1.04387 -0.0647 0.54748 0.0
C358 C 0.97042 0.14372 0.57149 0.0
C359 C 0.93599 0.83987 0.62369 0.0
C360 C 0.77999 0.9253 0.51182 0.0
C361 C 0.83934 0.03855 0.64144 0.0
O362 O 0.9365 0.92712 0.45902 0.0
O363 O 1.03352 -0.01106 0.57318 0.0
O364 O 0.94248 0.12891 0.53405 0.0
O365 O 0.89362 0.84925 0.596 0.0
O366 O 0.78774 -0.00876 0.51878 0.0
O367 O 0.87295 -0.01339 0.64293 0.0
O368 O 0.8223 0.8823 0.51119 0.0
O369 O 0.97175 0.88859 0.63 0.0
O370 O 0.83713 0.07757 0.60364 0.0
O371 O 1.0072 0.88637 0.539 0.0
O372 O 0.90427 0.03838 0.45565 0.0
O373 O 0.95811 0.11001 0.60886 0.0
Sc374 Sc 0.52872 0.05311 0.52821 0.0
Sc375 Sc 0.43781 0.11588 0.61394 0.0
Sc376 Sc 0.48109 0.22446 0.52687 0.0
O377 O 0.48103 0.12995 0.5536 0.0
C378 C 0.61547 0.1862 0.51184 0.0
C379 C 0.5561 0.07297 0.64147 0.0
C380 C 0.45944 0.27164 0.62373 0.0
C381 C 0.42501 -0.03221 0.57152 0.0
C382 C 0.46151 0.12506 0.43854 0.0
C383 C 0.35159 0.1762 0.54748 0.0
O384 O 0.60771 0.12026 0.51879 0.0
O385 O 0.52248 0.1249 0.64296 0.0
O386 O 0.50182 0.26226 0.59604 0.0
O387 O 0.45297 -0.01739 0.53408 0.0
O388 O 0.45897 0.1844 0.45905 0.0
O389 O 0.36193 0.12257 0.57319 0.0
O390 O 0.49117 0.07313 0.45568 0.0
O391 O 0.43736 0.0015 0.60888 0.0
O392 O 0.38827 0.22516 0.53903 0.0
O393 O 0.55832 0.03395 0.60367 0.0
O394 O 0.57316 0.22921 0.51123 0.0
O395 O 0.42368 0.22292 0.63003 0.0
Sc396 Sc 0.91428 0.22405 0.80185 0.0
Sc397 Sc 0.95654 0.11539 0.71458 0.0
Sc398 Sc 0.86651 0.05273 0.80094 0.0
O399 O 0.91421 0.12944 0.77532 0.0
C400 C 0.93427 0.12496 0.89028 0.0
C401 C 1.04378 0.17601 0.78001 0.0
C402 C 0.96993 -0.0325 0.75736 0.0
C403 C 0.93473 0.27107 0.70473 0.0
C404 C 0.77992 0.18598 0.81732 0.0
C405 C 0.83843 0.07199 0.68794 0.0
O406 O 0.93706 0.18412 0.86956 0.0
O407 O 1.0332 0.12232 0.75442 0.0
O408 O 0.94229 -0.01768 0.79496 0.0
O409 O 0.89275 0.26178 0.73282 0.0
O410 O 0.78756 0.12005 0.81023 0.0
O411 O 0.87114 0.12469 0.68682 0.0
O412 O 0.82231 0.22885 0.81805 0.0
O413 O 0.97041 0.22233 0.69817 0.0
O414 O 0.83666 0.03278 0.72564 0.0
O415 O 1.00701 0.2247 0.789 0.0
O416 O 0.90421 0.07318 0.87339 0.0
O417 O 0.9572 0.00103 0.72 0.0
Sc418 Sc 0.52896 0.0588 0.80097 0.0
Sc419 Sc 0.43893 -0.00387 0.71463 0.0
Sc420 Sc 0.4812 0.88747 0.80189 0.0
O421 O 0.48127 -0.01793 0.77535 0.0
C422 C 0.61556 0.92556 0.81734 0.0
C423 C 0.55703 0.03953 0.68797 0.0
C424 C 0.46074 0.84045 0.70477 0.0
C425 C 0.42552 0.14402 0.75739 0.0
C426 C 0.46121 -0.01344 0.89032 0.0
C427 C 0.3517 -0.06448 0.78008 0.0
O428 O 0.6079 -0.00851 0.81026 0.0
O429 O 0.52433 -0.01318 0.68686 0.0
O430 O 0.50272 0.84974 0.73285 0.0
O431 O 0.45316 0.1292 0.79498 0.0
O432 O 0.45843 0.9274 0.8696 0.0
O433 O 0.36227 -0.0108 0.75447 0.0
O434 O 0.49125 0.03836 0.87342 0.0
O435 O 0.43829 0.11048 0.72004 0.0
O436 O 0.38846 0.88682 0.78906 0.0
O437 O 0.5588 0.07874 0.72566 0.0
O438 O 0.57317 0.88268 0.81808 0.0
O439 O 0.42505 0.88919 0.69822 0.0
Sc440 Sc 0.27874 0.80295 0.5504 0.0
Sc441 Sc 0.18852 0.86564 0.46415 0.0
Sc442 Sc 0.23096 -0.02573 0.55141 0.0
O443 O 0.23108 0.8797 0.52479 0.0
C444 C 0.21094 0.875 0.63976 0.0
C445 C 0.17532 0.71763 0.50674 0.0
C446 C 0.10161 0.92609 0.52992 0.0
C447 C 0.30676 0.82246 0.43732 0.0
C448 C 0.36529 -0.06383 0.56701 0.0
C449 C 0.21019 0.02139 0.45438 0.0
O450 O 0.2409 0.82317 0.62281 0.0
O451 O 0.1879 0.75126 0.46939 0.0
O452 O 0.13828 -0.02506 0.53863 0.0
O453 O 0.3087 0.78339 0.47509 0.0
O454 O 0.32291 -0.02092 0.56758 0.0
O455 O 0.17453 -0.02737 0.44785 0.0
O456 O 0.35766 0.87024 0.55993 0.0
O457 O 0.27371 0.87489 0.43604 0.0
O458 O 0.2523 0.01206 0.48235 0.0
O459 O 0.20302 0.73245 0.54431 0.0
O460 O 0.20825 -0.06577 0.61911 0.0
O461 O 0.1121 0.87244 0.50425 0.0
Sc462 Sc 0.66414 0.63728 0.55186 0.0
Sc463 Sc 0.70724 0.74583 0.46477 0.0
Sc464 Sc 0.6165 0.80865 0.55058 0.0
O465 O 0.66426 0.73183 0.52521 0.0
C466 C 0.52971 0.67556 0.56671 0.0
C467 C 0.68538 0.59017 0.4549 0.0
C468 C 0.58919 0.78912 0.43735 0.0
C469 C 0.79379 0.68534 0.53091 0.0
C470 C 0.68364 0.73649 0.64026 0.0
C471 C 0.72022 0.89383 0.50738 0.0
O472 O 0.57204 0.63258 0.56753 0.0
O473 O 0.72122 0.63881 0.44858 0.0
O474 O 0.58705 0.8282 0.47511 0.0
O475 O 0.75703 0.63655 0.53962 0.0
O476 O 0.6539 0.78839 0.62316 0.0
O477 O 0.70782 0.86021 0.46999 0.0
O478 O 0.68634 0.67722 0.61966 0.0
O479 O 0.78336 0.73898 0.50523 0.0
O480 O 0.6923 0.87904 0.54484 0.0
O481 O 0.64315 0.59959 0.48272 0.0
O482 O 0.53747 0.74148 0.55972 0.0
O483 O 0.62232 0.73676 0.43614 0.0
Sc484 Sc 0.27871 0.80855 0.27783 0.0
Sc485 Sc 0.1885 0.74587 0.36409 0.0
Sc486 Sc 0.23098 0.63723 0.27684 0.0
O487 O 0.23107 0.7318 0.30345 0.0
C488 C 0.21093 0.7365 0.18848 0.0
C489 C 0.1753 0.89388 0.32152 0.0
C490 C 0.10161 0.68542 0.29834 0.0
C491 C 0.30678 0.78892 0.39086 0.0
C492 C 0.36529 0.67532 0.26123 0.0
C493 C 0.21016 0.59013 0.37386 0.0
O494 O 0.24085 0.78833 0.20543 0.0
O495 O 0.1879 0.86024 0.35886 0.0
O496 O 0.1383 0.63658 0.2896 0.0
O497 O 0.30868 0.82808 0.35314 0.0
O498 O 0.32293 0.63241 0.26069 0.0
O499 O 0.17451 0.6389 0.38038 0.0
O500 O 0.35763 0.74126 0.26828 0.0
O501 O 0.27368 0.73656 0.3922 0.0
O502 O 0.25229 0.59944 0.34591 0.0
O503 O 0.20299 0.87906 0.28394 0.0
O504 O 0.20828 0.67726 0.20913 0.0
O505 O 0.11209 0.73909 0.32398 0.0
Sc506 Sc 0.66413 -0.02574 0.27638 0.0
Sc507 Sc 0.70727 0.8657 0.36346 0.0
Sc508 Sc 0.61654 0.80289 0.27766 0.0
O509 O 0.66427 0.87971 0.30303 0.0
C510 C 0.52973 -0.06401 0.26154 0.0
C511 C 0.68542 0.02135 0.37334 0.0
C512 C 0.58917 0.82257 0.39085 0.0
C513 C 0.79379 0.92616 0.2973 0.0
C514 C 0.68366 0.87505 0.18798 0.0
C515 C 0.72025 0.7177 0.32088 0.0
O516 O 0.57203 -0.02103 0.26075 0.0
O517 O 0.72127 -0.0273 0.37964 0.0
O518 O 0.58707 0.78339 0.35313 0.0
O519 O 0.75702 -0.02504 0.28859 0.0
O520 O 0.65395 0.82314 0.20509 0.0
O521 O 0.70779 0.75133 0.35825 0.0
O522 O 0.68631 -0.06568 0.20857 0.0
O523 O 0.78337 0.87251 0.32297 0.0
O524 O 0.69234 0.73249 0.28341 0.0
O525 O 0.64318 0.01196 0.34554 0.0
O526 O 0.5375 0.87006 0.2685 0.0
O527 O 0.62237 0.87485 0.39212 0.0
Sc528 Sc 0.91428 0.38749 1.02638 0.0
Sc529 Sc 0.95652 0.49615 0.11365 0.0
Sc530 Sc 0.86646 0.55881 1.02731 0.0
O531 O 0.91419 0.48209 0.05292 0.0
C532 C 0.93423 0.48657 0.93796 0.0
C533 C 1.04378 0.43551 0.04821 0.0
C534 C 0.96992 0.64402 0.07085 0.0
C535 C 0.93472 0.34046 0.12351 0.0
C536 C 0.77989 0.42556 1.01095 0.0
C537 C 0.83846 0.53968 0.14036 0.0
O538 O 0.93705 0.4274 0.95868 0.0
O539 O 1.03319 0.48919 0.07382 0.0
O540 O 0.94225 0.62921 1.03326 0.0
O541 O 0.89274 0.34976 0.09542 0.0
O542 O 0.78752 0.49149 1.01805 0.0
O543 O 0.87112 0.48691 0.14141 0.0
O544 O 0.82231 0.38269 1.01019 0.0
O545 O 0.97039 0.38919 0.13007 0.0
O546 O 0.83665 0.57879 0.10262 0.0
O547 O 1.00702 0.38683 0.03923 0.0
O548 O 0.90415 0.53835 0.95485 0.0
O549 O 0.9572 0.61051 0.10822 0.0
Sc550 Sc 0.52899 0.5527 1.02733 0.0
Sc551 Sc 0.43893 0.61537 0.11368 0.0
Sc552 Sc 0.48118 0.72404 1.02642 0.0
O553 O 0.48127 0.62943 0.05295 0.0
C554 C 0.61556 0.68595 1.01097 0.0
C555 C 0.55699 0.57185 0.14039 0.0
C556 C 0.46072 0.77105 0.12355 0.0
C557 C 0.42552 0.46749 0.07088 0.0
C558 C 0.46122 0.62496 0.93799 0.0
C559 C 0.3517 0.676 0.04823 0.0
O560 O 0.60793 0.62002 1.01806 0.0
O561 O 0.52432 0.6246 0.14144 0.0
O562 O 0.50271 0.76176 0.09546 0.0
O563 O 0.4532 0.48232 1.0333 0.0
O564 O 0.45841 0.68412 0.95872 0.0
O565 O 0.36228 0.62233 0.07384 0.0
O566 O 0.49129 0.57317 0.95489 0.0
O567 O 0.43827 0.50101 0.10824 0.0
O568 O 0.38845 0.7247 0.03927 0.0
O569 O 0.55881 0.53273 0.10264 0.0
O570 O 0.57316 0.72882 1.01022 0.0
O571 O 0.42505 0.72232 0.1301 0.0
Sc572 Sc 0.91438 0.72447 0.30141 0.0
Sc573 Sc 0.95767 0.61589 0.21433 0.0
Sc574 Sc 0.86678 0.55313 0.30006 0.0
O575 O 0.91444 0.62996 0.27467 0.0
C576 C 0.93398 0.62506 0.38973 0.0
C577 C 1.04387 0.67619 0.28079 0.0
C578 C 0.97045 0.4678 0.25673 0.0
C579 C 0.93602 0.77165 0.20455 0.0
C580 C 0.78002 0.68623 0.31645 0.0
C581 C 0.83933 0.57311 0.18685 0.0
O582 O 0.9365 0.6844 0.36922 0.0
O583 O 1.03355 0.62255 0.25508 0.0
O584 O 0.94252 0.48261 0.29418 0.0
O585 O 0.89364 0.76229 0.23224 0.0
O586 O 0.78779 0.62029 0.3095 0.0
O587 O 0.87299 0.62499 0.1853 0.0
O588 O 0.82231 0.72923 0.31705 0.0
O589 O 0.97179 0.72292 0.19825 0.0
O590 O 0.83716 0.53401 0.22461 0.0
O591 O 1.00719 0.72515 0.28924 0.0
O592 O 0.90434 0.57314 0.37259 0.0
O593 O 0.95812 0.50152 0.21937 0.0
Sc594 Sc 0.52868 0.5584 0.30009 0.0
Sc595 Sc 0.43781 0.49562 0.21436 0.0
Sc596 Sc 0.4811 0.38705 0.30144 0.0
O597 O 0.48103 0.48156 0.2747 0.0
C598 C 0.61546 0.42531 0.31647 0.0
C599 C 0.55615 0.53841 0.18688 0.0
C600 C 0.45946 0.33986 0.20459 0.0
C601 C 0.42502 0.64372 0.25674 0.0
C602 C 0.46149 0.48646 0.38977 0.0
C603 C 0.3516 0.43532 0.28082 0.0
O604 O 0.60768 0.49124 0.30953 0.0
O605 O 0.5225 0.48652 0.18534 0.0
O606 O 0.50184 0.34923 0.23227 0.0
O607 O 0.45294 0.62891 0.2942 0.0
O608 O 0.45898 0.42712 0.36925 0.0
O609 O 0.36193 0.48895 0.25511 0.0
O610 O 0.49112 0.5384 0.37262 0.0
O611 O 0.43736 0.60999 0.21939 0.0
O612 O 0.38829 0.38637 0.28928 0.0
O613 O 0.55831 0.57752 0.22464 0.0
O614 O 0.57317 0.3823 0.31707 0.0
O615 O 0.42369 0.38859 0.19828 0.0
Sc616 Sc 0.27897 0.30287 0.05058 0.0
Sc617 Sc 0.18823 0.36568 0.96478 0.0
Sc618 Sc 0.23131 0.47423 0.05186 0.0
O619 O 0.2312 0.37968 1.02522 0.0
C620 C 0.21182 0.37503 0.14026 0.0
C621 C 0.17525 0.21769 1.00739 0.0
C622 C 0.10167 0.42615 1.03092 0.0
C623 C 0.30628 0.32241 0.93735 0.0
C624 C 0.36574 0.43597 0.06672 0.0
C625 C 0.21007 0.52134 0.9549 0.0
O626 O 0.24157 0.32313 0.12316 0.0
O627 O 0.18766 0.2513 0.97 0.0
O628 O 0.13842 0.47495 0.03962 0.0
O629 O 0.30841 0.28332 0.97511 0.0
O630 O 0.3234 0.47894 0.06754 0.0
O631 O 0.17424 0.4727 0.94859 0.0
O632 O 0.35799 0.37005 0.05972 0.0
O633 O 0.27314 0.37477 0.93615 0.0
O634 O 0.2523 0.51193 0.98272 0.0
O635 O 0.20317 0.23247 0.04485 0.0
O636 O 0.20911 0.43429 0.11967 0.0
O637 O 0.1121 0.37251 1.00523 0.0
Sc638 Sc 0.66448 0.13725 0.05141 0.0
Sc639 Sc 0.70694 0.24587 0.96415 0.0
Sc640 Sc 0.61672 0.30858 0.05041 0.0
O641 O 0.66438 0.23182 1.02479 0.0
C642 C 0.53016 0.17536 0.06702 0.0
C643 C 0.68526 0.09012 0.95439 0.0
C644 C 0.5887 0.28907 0.93733 0.0
C645 C 0.79384 0.1854 1.0299 0.0
C646 C 0.68452 0.23652 0.13977 0.0
C647 C 0.72015 0.39388 1.00674 0.0
O648 O 0.57253 0.13244 0.06759 0.0
O649 O 0.72091 0.13888 0.94785 0.0
O650 O 0.58676 0.32814 0.9751 0.0
O651 O 0.75716 0.13657 1.03863 0.0
O652 O 0.65456 0.28835 0.12282 0.0
O653 O 0.70756 0.36025 0.96939 0.0
O654 O 0.68719 0.17729 0.11912 0.0
O655 O 0.78336 0.23906 1.00424 0.0
O656 O 0.69244 0.37907 0.04431 0.0
O657 O 0.64315 0.09946 0.98235 0.0
O658 O 0.5378 0.24129 0.05994 0.0
O659 O 0.62174 0.23664 0.93606 0.0
Sc660 Sc 0.27892 0.30863 0.77766 0.0
Sc661 Sc 0.18818 0.24584 0.86346 0.0
Sc662 Sc 0.23132 0.13727 0.77639 0.0
O663 O 0.23118 0.23182 0.80303 0.0
C664 C 0.21179 0.23647 0.68798 0.0
C665 C 0.17522 0.39383 0.82087 0.0
C666 C 0.10166 0.18538 0.7973 0.0
C667 C 0.30628 0.28896 0.89085 0.0
C668 C 0.36572 0.17552 0.76154 0.0
C669 C 0.21003 0.09018 0.87334 0.0
O670 O 0.24151 0.28838 0.70509 0.0
O671 O 0.18764 0.3602 0.85826 0.0
O672 O 0.13843 0.13657 0.7886 0.0
O673 O 0.30838 0.32813 0.85313 0.0
O674 O 0.32341 0.13255 0.76074 0.0
O675 O 0.17418 0.13883 0.87964 0.0
O676 O 0.35795 0.24145 0.76851 0.0
O677 O 0.27308 0.23668 0.89213 0.0
O678 O 0.25227 0.09957 0.84554 0.0
O679 O 0.20313 0.37904 0.7834 0.0
O680 O 0.20913 0.1772 0.70858 0.0
O681 O 0.11207 0.23903 0.82298 0.0
Sc682 Sc 0.66448 0.47429 0.77684 0.0
Sc683 Sc 0.70697 0.36567 0.86409 0.0
Sc684 Sc 0.61676 0.30297 0.77784 0.0
O685 O 0.66439 0.37973 0.80346 0.0
C686 C 0.53017 0.43618 0.76124 0.0
C687 C 0.6853 0.5214 0.87386 0.0
C688 C 0.58869 0.32261 0.89088 0.0
C689 C 0.79384 0.4261 0.79831 0.0
C690 C 0.68454 0.37502 0.68848 0.0
C691 C 0.72017 0.21765 0.82153 0.0
O692 O 0.57252 0.47911 0.7607 0.0
O693 O 0.72096 0.47263 0.88038 0.0
O694 O 0.58678 0.28345 0.85315 0.0
O695 O 0.75715 0.47495 0.78959 0.0
O696 O 0.65462 0.32317 0.70544 0.0
O697 O 0.70757 0.25129 0.85887 0.0
O698 O 0.68717 0.43426 0.70913 0.0
O699 O 0.78337 0.37244 0.82396 0.0
O700 O 0.69248 0.23246 0.78395 0.0
O701 O 0.64317 0.51209 0.84591 0.0
O702 O 0.53784 0.37025 0.76829 0.0
O703 O 0.62179 0.37497 0.89222 0.0
loop_
_geom_bond_atom_site_label_1
_geom_bond_atom_site_label_2
_geom_bond_distance
_geom_bond_site_symmetry_2
_ccdc_geom_bond_type
Sc0 O3 2.025 1_556 S
Sc0 O10 2.105 . S
Sc0 O13 2.105 1_546 S
Sc0 O16 2.105 . S
Sc0 O19 2.105 1_545 S
Sc1 O3 2.025 . S
Sc1 O11 2.105 . S
Sc1 O15 2.105 . S
Sc1 O17 2.105 1_545 S
Sc1 O21 2.105 . S
Sc2 O3 2.025 . S
Sc2 O12 2.105 . S
Sc2 O14 2.105 1_554 S
Sc2 O18 2.105 . S
Sc2 O20 2.105 1_554 S
O3 Sc0 2.025 1_554 S
O3 Sc1 2.025 . S
O3 Sc2 2.025 . S
C4 O10 1.268 . S
C4 O20 1.268 . S
C5 O11 1.268 1_556 S
C5 O19 1.268 1_545 S
C6 O12 1.268 . S
C6 O21 1.268 . S
C7 O13 1.268 . S
C7 O17 1.268 . S
C8 O14 1.268 . S
C8 O16 1.268 . S
C9 O15 1.268 . S
C9 O18 1.268 . S
O10 Sc0 2.105 . S
O10 C4 1.268 . S
O11 Sc1 2.105 . S
O11 C5 1.268 1_554 S
O12 Sc2 2.105 . S
O12 C6 1.268 . S
O13 Sc0 2.105 1_564 S
O13 C7 1.268 . S
O14 Sc2 2.105 1_556 S
O14 C8 1.268 . S
O15 Sc1 2.105 . S
O15 C9 1.268 . S
O16 Sc0 2.105 . S
O16 C8 1.268 . S
O17 Sc1 2.105 1_565 S
O17 C7 1.268 . S
O18 Sc2 2.105 . S
O18 C9 1.268 . S
O19 Sc0 2.105 1_565 S
O19 C5 1.268 1_565 S
O20 Sc2 2.105 1_556 S
O20 C4 1.268 . S
O21 Sc1 2.105 . S
O21 C6 1.268 . S
Sc22 O25 2.025 . S
Sc22 O32 2.105 1_554 S
Sc22 O35 2.105 1_545 S
Sc22 O38 2.105 1_554 S
Sc22 O41 2.105 . S
Sc23 O25 2.025 . S
Sc23 O33 2.105 . S
Sc23 O37 2.105 . S
Sc23 O39 2.105 . S
Sc23 O43 2.105 . S
Sc24 O25 2.025 1_556 S
Sc24 O34 2.105 1_556 S
Sc24 O36 2.105 . S
Sc24 O40 2.105 . S
Sc24 O42 2.105 . S
O25 Sc22 2.025 . S
O25 Sc23 2.025 . S
O25 Sc24 2.025 1_554 S
C26 O32 1.266 1_455 S
C26 O42 1.262 1_455 S
C27 O33 1.268 . S
C27 O41 1.268 . S
C28 O34 1.268 . S
C28 O43 1.268 . S
C29 O35 1.268 . S
C29 O39 1.268 1_565 S
C30 O36 1.268 . S
C30 O38 1.268 . S
C31 O37 1.268 1_556 S
C31 O40 1.268 . S
O32 Sc22 2.105 1_556 S
O32 C26 1.266 1_655 S
O33 Sc23 2.105 . S
O33 C27 1.268 . S
O34 Sc24 2.105 1_554 S
O34 C28 1.268 . S
O35 Sc22 2.105 1_565 S
O35 C29 1.268 . S
O36 Sc24 2.105 . S
O36 C30 1.268 . S
O37 Sc23 2.105 . S
O37 C31 1.268 1_554 S
O38 Sc22 2.105 1_556 S
O38 C30 1.268 . S
O39 Sc23 2.105 . S
O39 C29 1.268 1_545 S
O40 Sc24 2.105 . S
O40 C31 1.268 . S
O41 Sc22 2.105 . S
O41 C27 1.268 . S
O42 Sc24 2.105 . S
O42 C26 1.262 1_655 S
O43 Sc23 2.105 . S
O43 C28 1.268 . S
Sc44 O47 2.025 . S
Sc44 O54 2.105 . S
Sc44 O57 2.105 . S
Sc44 O60 2.105 . S
Sc44 O63 2.105 . S
Sc45 O47 2.025 . S
Sc45 O55 2.105 . S
Sc45 O59 2.105 . S
Sc45 O61 2.105 . S
Sc45 O65 2.105 . S
Sc46 O47 2.025 . S
Sc46 O56 2.105 1_545 S
Sc46 O58 2.105 . S
Sc46 O62 2.105 . S
Sc46 O64 2.105 . S
O47 Sc44 2.025 . S
O47 Sc45 2.025 . S
O47 Sc46 2.025 . S
C48 O54 1.268 . S
C48 O64 1.268 . S
C49 O55 1.268 . S
C49 O63 1.268 . S
C50 O56 1.268 . S
C50 O65 1.268 1_565 S
C51 O57 1.268 . S
C51 O61 1.268 . S
C52 O58 1.268 . S
C52 O60 1.268 . S
C53 O59 1.268 . S
C53 O62 1.268 . S
O54 Sc44 2.105 . S
O54 C48 1.268 . S
O55 Sc45 2.105 . S
O55 C49 1.268 . S
O56 Sc46 2.105 1_565 S
O56 C50 1.268 . S
O57 Sc44 2.105 . S
O57 C51 1.268 . S
O58 Sc46 2.105 . S
O58 C52 1.268 . S
O59 Sc45 2.105 . S
O59 C53 1.268 . S
O60 Sc44 2.105 . S
O60 C52 1.268 . S
O61 Sc45 2.105 . S
O61 C51 1.268 . S
O62 Sc46 2.105 . S
O62 C53 1.268 . S
O63 Sc44 2.105 . S
O63 C49 1.268 . S
O64 Sc46 2.105 . S
O64 C48 1.268 . S
O65 Sc45 2.105 . S
O65 C50 1.268 1_545 S
Sc66 O69 2.025 . S
Sc66 O76 2.105 . S
Sc66 O79 2.105 . S
Sc66 O82 2.105 . S
Sc66 O85 2.105 . S
Sc67 O69 2.025 . S
Sc67 O77 2.105 . S
Sc67 O81 2.105 . S
Sc67 O83 2.105 . S
Sc67 O87 2.105 1_545 S
Sc68 O69 2.025 . S
Sc68 O78 2.105 1_545 S
Sc68 O80 2.105 . S
Sc68 O84 2.105 1_545 S
Sc68 O86 2.105 . S
O69 Sc66 2.025 . S
O69 Sc67 2.025 . S
O69 Sc68 2.025 . S
C70 O76 1.266 1_455 S
C70 O86 1.262 1_455 S
C71 O77 1.268 . S
C71 O85 1.268 . S
C72 O78 1.268 . S
C72 O87 1.268 . S
C73 O79 1.268 . S
C73 O83 1.268 . S
C74 O80 1.268 . S
C74 O82 1.268 . S
C75 O81 1.268 . S
C75 O84 1.268 1_545 S
O76 Sc66 2.105 . S
O76 C70 1.266 1_655 S
O77 Sc67 2.105 . S
O77 C71 1.268 . S
O78 Sc68 2.105 1_565 S
O78 C72 1.268 . S
O79 Sc66 2.105 . S
O79 C73 1.268 . S
O80 Sc68 2.105 . S
O80 C74 1.268 . S
O81 Sc67 2.105 . S
O81 C75 1.268 . S
O82 Sc66 2.105 . S
O82 C74 1.268 . S
O83 Sc67 2.105 . S
O83 C73 1.268 . S
O84 Sc68 2.105 1_565 S
O84 C75 1.268 1_565 S
O85 Sc66 2.105 . S
O85 C71 1.268 . S
O86 Sc68 2.105 . S
O86 C70 1.262 1_655 S
O87 Sc67 2.105 1_565 S
O87 C72 1.268 . S
Sc88 O91 2.025 . S
Sc88 O98 2.105 1_556 S
Sc88 O101 2.105 . S
Sc88 O104 2.105 1_556 S
Sc88 O107 2.105 . S
Sc89 O91 2.025 . S
Sc89 O99 2.105 . S
Sc89 O103 2.105 1_565 S
Sc89 O105 2.105 . S
Sc89 O109 2.105 . S
Sc90 O91 2.025 1_554 S
Sc90 O100 2.105 1_565 S
Sc90 O102 2.105 . S
Sc90 O106 2.105 1_564 S
Sc90 O108 2.105 . S
O91 Sc88 2.025 . S
O91 Sc89 2.025 . S
O91 Sc90 2.025 1_556 S
C92 O98 1.268 . S
C92 O108 1.268 . S
C93 O99 1.268 . S
C93 O107 1.268 . S
C94 O100 1.268 1_565 S
C94 O109 1.268 1_554 S
C95 O101 1.268 . S
C95 O105 1.268 . S
C96 O102 1.268 . S
C96 O104 1.268 . S
C97 O103 1.268 . S
C97 O106 1.268 . S
O98 Sc88 2.105 1_554 S
O98 C92 1.268 . S
O99 Sc89 2.105 . S
O99 C93 1.268 . S
O100 Sc90 2.105 1_545 S
O100 C94 1.268 1_545 S
O101 Sc88 2.105 . S
O101 C95 1.268 . S
O102 Sc90 2.105 . S
O102 C96 1.268 . S
O103 Sc89 2.105 1_545 S
O103 C97 1.268 . S
O104 Sc88 2.105 1_554 S
O104 C96 1.268 . S
O105 Sc89 2.105 . S
O105 C95 1.268 . S
O106 Sc90 2.105 1_546 S
O106 C97 1.268 . S
O107 Sc88 2.105 . S
O107 C93 1.268 . S
O108 Sc90 2.105 . S
O108 C92 1.268 . S
O109 Sc89 2.105 . S
O109 C94 1.268 1_556 S
Sc110 O113 2.025 1_554 S
Sc110 O120 2.105 . S
Sc110 O123 2.105 . S
Sc110 O126 2.105 . S
Sc110 O129 2.105 1_554 S
Sc111 O113 2.025 . S
Sc111 O121 2.105 . S
Sc111 O125 2.105 . S
Sc111 O127 2.105 . S
Sc111 O131 2.105 . S
Sc112 O113 2.025 . S
Sc112 O122 2.105 . S
Sc112 O124 2.105 1_556 S
Sc112 O128 2.105 1_565 S
Sc112 O130 2.105 1_556 S
O113 Sc110 2.025 1_556 S
O113 Sc111 2.025 . S
O113 Sc112 2.025 . S
C114 O120 1.262 1_655 S
C114 O130 1.266 1_655 S
C115 O121 1.268 . S
C115 O129 1.268 . S
C116 O122 1.268 . S
C116 O131 1.268 . S
C117 O123 1.268 . S
C117 O127 1.268 1_554 S
C118 O124 1.268 . S
C118 O126 1.268 . S
C119 O125 1.268 1_545 S
C119 O128 1.268 . S
O120 Sc110 2.105 . S
O120 C114 1.262 1_455 S
O121 Sc111 2.105 . S
O121 C115 1.268 . S
O122 Sc112 2.105 . S
O122 C116 1.268 . S
O123 Sc110 2.105 . S
O123 C117 1.268 . S
O124 Sc112 2.105 1_554 S
O124 C118 1.268 . S
O125 Sc111 2.105 . S
O125 C119 1.268 1_565 S
O126 Sc110 2.105 . S
O126 C118 1.268 . S
O127 Sc111 2.105 . S
O127 C117 1.268 1_556 S
O128 Sc112 2.105 1_545 S
O128 C119 1.268 . S
O129 Sc110 2.105 1_556 S
O129 C115 1.268 . S
O130 Sc112 2.105 1_554 S
O130 C114 1.266 1_455 S
O131 Sc111 2.105 . S
O131 C116 1.268 . S
Sc132 O135 2.025 . S
Sc132 O142 2.105 . S
Sc132 O145 2.105 . S
Sc132 O148 2.105 . S
Sc132 O151 2.105 1_565 S
Sc133 O135 2.025 . S
Sc133 O143 2.105 . S
Sc133 O147 2.105 . S
Sc133 O149 2.105 . S
Sc133 O153 2.105 . S
Sc134 O135 2.025 . S
Sc134 O144 2.105 . S
Sc134 O146 2.105 . S
Sc134 O150 2.105 . S
Sc134 O152 2.105 . S
O135 Sc132 2.025 . S
O135 Sc133 2.025 . S
O135 Sc134 2.025 . S
C136 O142 1.268 . S
C136 O152 1.268 . S
C137 O143 1.268 1_545 S
C137 O151 1.268 . S
C138 O144 1.268 . S
C138 O153 1.268 . S
C139 O145 1.268 . S
C139 O149 1.268 . S
C140 O146 1.268 . S
C140 O148 1.268 . S
C141 O147 1.268 . S
C141 O150 1.268 . S
O142 Sc132 2.105 . S
O142 C136 1.268 . S
O143 Sc133 2.105 . S
O143 C137 1.268 1_565 S
O144 Sc134 2.105 . S
O144 C138 1.268 . S
O145 Sc132 2.105 . S
O145 C139 1.268 . S
O146 Sc134 2.105 . S
O146 C140 1.268 . S
O147 Sc133 2.105 . S
O147 C141 1.268 . S
O148 Sc132 2.105 . S
O148 C140 1.268 . S
O149 Sc133 2.105 . S
O149 C139 1.268 . S
O150 Sc134 2.105 . S
O150 C141 1.268 . S
O151 Sc132 2.105 1_545 S
O151 C137 1.268 . S
O152 Sc134 2.105 . S
O152 C136 1.268 . S
O153 Sc133 2.105 . S
O153 C138 1.268 . S
Sc154 O157 2.025 . S
Sc154 O164 2.105 . S
Sc154 O167 2.105 1_565 S
Sc154 O170 2.105 . S
Sc154 O173 2.105 1_565 S
Sc155 O157 2.025 . S
Sc155 O165 2.105 1_565 S
Sc155 O169 2.105 . S
Sc155 O171 2.105 . S
Sc155 O175 2.105 . S
Sc156 O157 2.025 . S
Sc156 O166 2.105 . S
Sc156 O168 2.105 . S
Sc156 O172 2.105 . S
Sc156 O174 2.105 . S
O157 Sc154 2.025 . S
O157 Sc155 2.025 . S
O157 Sc156 2.025 . S
C158 O164 1.262 1_655 S
C158 O174 1.266 1_655 S
C159 O165 1.268 . S
C159 O173 1.268 . S
C160 O166 1.268 . S
C160 O175 1.268 . S
C161 O167 1.268 1_565 S
C161 O171 1.268 . S
C162 O168 1.268 . S
C162 O170 1.268 . S
C163 O169 1.268 . S
C163 O172 1.268 . S
O164 Sc154 2.105 . S
O164 C158 1.262 1_455 S
O165 Sc155 2.105 1_545 S
O165 C159 1.268 . S
O166 Sc156 2.105 . S
O166 C160 1.268 . S
O167 Sc154 2.105 1_545 S
O167 C161 1.268 1_545 S
O168 Sc156 2.105 . S
O168 C162 1.268 . S
O169 Sc155 2.105 . S
O169 C163 1.268 . S
O170 Sc154 2.105 . S
O170 C162 1.268 . S
O171 Sc155 2.105 . S
O171 C161 1.268 . S
O172 Sc156 2.105 . S
O172 C163 1.268 . S
O173 Sc154 2.105 1_545 S
O173 C159 1.268 . S
O174 Sc156 2.105 . S
O174 C158 1.266 1_455 S
O175 Sc155 2.105 . S
O175 C160 1.268 . S
Sc176 O179 2.025 . S
Sc176 O186 2.105 . S
Sc176 O189 2.105 . S
Sc176 O192 2.105 . S
Sc176 O195 2.105 . S
Sc177 O179 2.025 . S
Sc177 O187 2.105 . S
Sc177 O191 2.105 . S
Sc177 O193 2.105 . S
Sc177 O197 2.105 . S
Sc178 O179 2.025 . S
Sc178 O188 2.105 . S
Sc178 O190 2.105 . S
Sc178 O194 2.105 . S
Sc178 O196 2.105 . S
O179 Sc176 2.025 . S
O179 Sc177 2.025 . S
O179 Sc178 2.025 . S
C180 O186 1.268 . S
C180 O196 1.268 . S
C181 O187 1.268 . S
C181 O195 1.268 . S
C182 O188 1.268 . S
C182 O197 1.268 . S
C183 O189 1.268 . S
C183 O193 1.268 . S
C184 O190 1.268 . S
C184 O192 1.268 . S
C185 O191 1.268 . S
C185 O194 1.268 . S
O186 Sc176 2.105 . S
O186 C180 1.268 . S
O187 Sc177 2.105 . S
O187 C181 1.268 . S
O188 Sc178 2.105 . S
O188 C182 1.268 . S
O189 Sc176 2.105 . S
O189 C183 1.268 . S
O190 Sc178 2.105 . S
O190 C184 1.268 . S
O191 Sc177 2.105 . S
O191 C185 1.268 . S
O192 Sc176 2.105 . S
O192 C184 1.268 . S
O193 Sc177 2.105 . S
O193 C183 1.268 . S
O194 Sc178 2.105 . S
O194 C185 1.268 . S
O195 Sc176 2.105 . S
O195 C181 1.268 . S
O196 Sc178 2.105 . S
O196 C180 1.268 . S
O197 Sc177 2.105 . S
O197 C182 1.268 . S
Sc198 O201 2.025 . S
Sc198 O208 2.105 . S
Sc198 O211 2.105 . S
Sc198 O214 2.105 . S
Sc198 O217 2.105 . S
Sc199 O201 2.025 . S
Sc199 O209 2.105 . S
Sc199 O213 2.105 . S
Sc199 O215 2.105 . S
Sc199 O219 2.105 . S
Sc200 O201 2.025 . S
Sc200 O210 2.105 . S
Sc200 O212 2.105 . S
Sc200 O216 2.105 . S
Sc200 O218 2.105 . S
O201 Sc198 2.025 . S
O201 Sc199 2.025 . S
O201 Sc200 2.025 . S
C202 O208 1.266 1_455 S
C202 O218 1.262 1_455 S
C203 O209 1.268 . S
C203 O217 1.268 . S
C204 O210 1.268 . S
C204 O219 1.268 . S
C205 O211 1.268 . S
C205 O215 1.268 . S
C206 O212 1.268 . S
C206 O214 1.268 . S
C207 O213 1.268 . S
C207 O216 1.268 . S
O208 Sc198 2.105 . S
O208 C202 1.266 1_655 S
O209 Sc199 2.105 . S
O209 C203 1.268 . S
O210 Sc200 2.105 . S
O210 C204 1.268 . S
O211 Sc198 2.105 . S
O211 C205 1.268 . S
O212 Sc200 2.105 . S
O212 C206 1.268 . S
O213 Sc199 2.105 . S
O213 C207 1.268 . S
O214 Sc198 2.105 . S
O214 C206 1.268 . S
O215 Sc199 2.105 . S
O215 C205 1.268 . S
O216 Sc200 2.105 . S
O216 C207 1.268 . S
O217 Sc198 2.105 . S
O217 C203 1.268 . S
O218 Sc200 2.105 . S
O218 C202 1.262 1_655 S
O219 Sc199 2.105 . S
O219 C204 1.268 . S
Sc220 O223 2.025 . S
Sc220 O230 2.105 . S
Sc220 O233 2.105 . S
Sc220 O236 2.105 . S
Sc220 O239 2.105 . S
Sc221 O223 2.025 . S
Sc221 O231 2.105 . S
Sc221 O235 2.105 . S
Sc221 O237 2.105 . S
Sc221 O241 2.105 . S
Sc222 O223 2.025 . S
Sc222 O232 2.105 . S
Sc222 O234 2.105 . S
Sc222 O238 2.105 . S
Sc222 O240 2.105 . S
O223 Sc220 2.025 . S
O223 Sc221 2.025 . S
O223 Sc222 2.025 . S
C224 O230 1.268 . S
C224 O240 1.268 . S
C225 O231 1.268 . S
C225 O239 1.268 . S
C226 O232 1.268 . S
C226 O241 1.268 . S
C227 O233 1.268 . S
C227 O237 1.268 . S
C228 O234 1.268 . S
C228 O236 1.268 . S
C229 O235 1.268 . S
C229 O238 1.268 . S
O230 Sc220 2.105 . S
O230 C224 1.268 . S
O231 Sc221 2.105 . S
O231 C225 1.268 . S
O232 Sc222 2.105 . S
O232 C226 1.268 . S
O233 Sc220 2.105 . S
O233 C227 1.268 . S
O234 Sc222 2.105 . S
O234 C228 1.268 . S
O235 Sc221 2.105 . S
O235 C229 1.268 . S
O236 Sc220 2.105 . S
O236 C228 1.268 . S
O237 Sc221 2.105 . S
O237 C227 1.268 . S
O238 Sc222 2.105 . S
O238 C229 1.268 . S
O239 Sc220 2.105 . S
O239 C225 1.268 . S
O240 Sc222 2.105 . S
O240 C224 1.268 . S
O241 Sc221 2.105 . S
O241 C226 1.268 . S
Sc242 O245 2.025 . S
Sc242 O252 2.105 . S
Sc242 O255 2.105 . S
Sc242 O258 2.105 . S
Sc242 O261 2.105 . S
Sc243 O245 2.025 . S
Sc243 O253 2.105 . S
Sc243 O257 2.105 . S
Sc243 O259 2.105 . S
Sc243 O263 2.105 . S
Sc244 O245 2.025 . S
Sc244 O254 2.105 . S
Sc244 O256 2.105 . S
Sc244 O260 2.105 . S
Sc244 O262 2.105 . S
O245 Sc242 2.025 . S
O245 Sc243 2.025 . S
O245 Sc244 2.025 . S
C246 O252 1.266 1_455 S
C246 O262 1.262 1_455 S
C247 O253 1.268 . S
C247 O261 1.268 . S
C248 O254 1.268 . S
C248 O263 1.268 . S
C249 O255 1.268 . S
C249 O259 1.268 . S
C250 O256 1.268 . S
C250 O258 1.268 . S
C251 O257 1.268 . S
C251 O260 1.268 . S
O252 Sc242 2.105 . S
O252 C246 1.266 1_655 S
O253 Sc243 2.105 . S
O253 C247 1.268 . S
O254 Sc244 2.105 . S
O254 C248 1.268 . S
O255 Sc242 2.105 . S
O255 C249 1.268 . S
O256 Sc244 2.105 . S
O256 C250 1.268 . S
O257 Sc243 2.105 . S
O257 C251 1.268 . S
O258 Sc242 2.105 . S
O258 C250 1.268 . S
O259 Sc243 2.105 . S
O259 C249 1.268 . S
O260 Sc244 2.105 . S
O260 C251 1.268 . S
O261 Sc242 2.105 . S
O261 C247 1.268 . S
O262 Sc244 2.105 . S
O262 C246 1.262 1_655 S
O263 Sc243 2.105 . S
O263 C248 1.268 . S
Sc264 O267 2.025 . S
Sc264 O274 2.105 . S
Sc264 O277 2.105 . S
Sc264 O280 2.105 . S
Sc264 O283 2.105 . S
Sc265 O267 2.025 . S
Sc265 O275 2.105 . S
Sc265 O279 2.105 . S
Sc265 O281 2.105 . S
Sc265 O285 2.105 . S
Sc266 O267 2.025 . S
Sc266 O276 2.105 . S
Sc266 O278 2.105 . S
Sc266 O282 2.105 . S
Sc266 O284 2.105 . S
O267 Sc264 2.025 . S
O267 Sc265 2.025 . S
O267 Sc266 2.025 . S
C268 O274 1.268 . S
C268 O284 1.268 . S
C269 O275 1.268 . S
C269 O283 1.268 . S
C270 O276 1.268 . S
C270 O285 1.268 . S
C271 O277 1.268 . S
C271 O281 1.268 . S
C272 O278 1.268 . S
C272 O280 1.268 . S
C273 O279 1.268 . S
C273 O282 1.268 . S
O274 Sc264 2.105 . S
O274 C268 1.268 . S
O275 Sc265 2.105 . S
O275 C269 1.268 . S
O276 Sc266 2.105 . S
O276 C270 1.268 . S
O277 Sc264 2.105 . S
O277 C271 1.268 . S
O278 Sc266 2.105 . S
O278 C272 1.268 . S
O279 Sc265 2.105 . S
O279 C273 1.268 . S
O280 Sc264 2.105 . S
O280 C272 1.268 . S
O281 Sc265 2.105 . S
O281 C271 1.268 . S
O282 Sc266 2.105 . S
O282 C273 1.268 . S
O283 Sc264 2.105 . S
O283 C269 1.268 . S
O284 Sc266 2.105 . S
O284 C268 1.268 . S
O285 Sc265 2.105 . S
O285 C270 1.268 . S
Sc286 O289 2.025 . S
Sc286 O296 2.105 . S
Sc286 O299 2.105 . S
Sc286 O302 2.105 . S
Sc286 O305 2.105 . S
Sc287 O289 2.025 . S
Sc287 O297 2.105 . S
Sc287 O301 2.105 . S
Sc287 O303 2.105 . S
Sc287 O307 2.105 . S
Sc288 O289 2.025 . S
Sc288 O298 2.105 . S
Sc288 O300 2.105 . S
Sc288 O304 2.105 . S
Sc288 O306 2.105 . S
O289 Sc286 2.025 . S
O289 Sc287 2.025 . S
O289 Sc288 2.025 . S
C290 O296 1.262 1_655 S
C290 O306 1.266 1_655 S
C291 O297 1.268 . S
C291 O305 1.268 . S
C292 O298 1.268 . S
C292 O307 1.268 . S
C293 O299 1.268 . S
C293 O303 1.268 . S
C294 O300 1.268 . S
C294 O302 1.268 . S
C295 O301 1.268 . S
C295 O304 1.268 . S
O296 Sc286 2.105 . S
O296 C290 1.262 1_455 S
O297 Sc287 2.105 . S
O297 C291 1.268 . S
O298 Sc288 2.105 . S
O298 C292 1.268 . S
O299 Sc286 2.105 . S
O299 C293 1.268 . S
O300 Sc288 2.105 . S
O300 C294 1.268 . S
O301 Sc287 2.105 . S
O301 C295 1.268 . S
O302 Sc286 2.105 . S
O302 C294 1.268 . S
O303 Sc287 2.105 . S
O303 C293 1.268 . S
O304 Sc288 2.105 . S
O304 C295 1.268 . S
O305 Sc286 2.105 . S
O305 C291 1.268 . S
O306 Sc288 2.105 . S
O306 C290 1.266 1_455 S
O307 Sc287 2.105 . S
O307 C292 1.268 . S
Sc308 O311 2.025 . S
Sc308 O318 2.105 . S
Sc308 O321 2.105 . S
Sc308 O324 2.105 . S
Sc308 O327 2.105 . S
Sc309 O311 2.025 . S
Sc309 O319 2.105 . S
Sc309 O323 2.105 . S
Sc309 O325 2.105 . S
Sc309 O329 2.105 . S
Sc310 O311 2.025 . S
Sc310 O320 2.105 . S
Sc310 O322 2.105 . S
Sc310 O326 2.105 . S
Sc310 O328 2.105 . S
O311 Sc308 2.025 . S
O311 Sc309 2.025 . S
O311 Sc310 2.025 . S
C312 O318 1.268 . S
C312 O328 1.268 . S
C313 O319 1.268 . S
C313 O327 1.268 . S
C314 O320 1.268 . S
C314 O329 1.268 . S
C315 O321 1.268 . S
C315 O325 1.268 . S
C316 O322 1.268 . S
C316 O324 1.268 . S
C317 O323 1.268 . S
C317 O326 1.268 . S
O318 Sc308 2.105 . S
O318 C312 1.268 . S
O319 Sc309 2.105 . S
O319 C313 1.268 . S
O320 Sc310 2.105 . S
O320 C314 1.268 . S
O321 Sc308 2.105 . S
O321 C315 1.268 . S
O322 Sc310 2.105 . S
O322 C316 1.268 . S
O323 Sc309 2.105 . S
O323 C317 1.268 . S
O324 Sc308 2.105 . S
O324 C316 1.268 . S
O325 Sc309 2.105 . S
O325 C315 1.268 . S
O326 Sc310 2.105 . S
O326 C317 1.268 . S
O327 Sc308 2.105 . S
O327 C313 1.268 . S
O328 Sc310 2.105 . S
O328 C312 1.268 . S
O329 Sc309 2.105 . S
O329 C314 1.268 . S
Sc330 O333 2.025 . S
Sc330 O340 2.105 . S
Sc330 O343 2.105 . S
Sc330 O346 2.105 . S
Sc330 O349 2.105 . S
Sc331 O333 2.025 . S
Sc331 O341 2.105 . S
Sc331 O345 2.105 . S
Sc331 O347 2.105 . S
Sc331 O351 2.105 . S
Sc332 O333 2.025 . S
Sc332 O342 2.105 . S
Sc332 O344 2.105 . S
Sc332 O348 2.105 . S
Sc332 O350 2.105 . S
O333 Sc330 2.025 . S
O333 Sc331 2.025 . S
O333 Sc332 2.025 . S
C334 O340 1.262 1_655 S
C334 O350 1.266 1_655 S
C335 O341 1.268 . S
C335 O349 1.268 . S
C336 O342 1.268 . S
C336 O351 1.268 . S
C337 O343 1.268 . S
C337 O347 1.268 . S
C338 O344 1.268 . S
C338 O346 1.268 . S
C339 O345 1.268 . S
C339 O348 1.268 . S
O340 Sc330 2.105 . S
O340 C334 1.262 1_455 S
O341 Sc331 2.105 . S
O341 C335 1.268 . S
O342 Sc332 2.105 . S
O342 C336 1.268 . S
O343 Sc330 2.105 . S
O343 C337 1.268 . S
O344 Sc332 2.105 . S
O344 C338 1.268 . S
O345 Sc331 2.105 . S
O345 C339 1.268 . S
O346 Sc330 2.105 . S
O346 C338 1.268 . S
O347 Sc331 2.105 . S
O347 C337 1.268 . S
O348 Sc332 2.105 . S
O348 C339 1.268 . S
O349 Sc330 2.105 . S
O349 C335 1.268 . S
O350 Sc332 2.105 . S
O350 C334 1.266 1_455 S
O351 Sc331 2.105 . S
O351 C336 1.268 . S
Sc352 O355 2.025 . S
Sc352 O362 2.105 . S
Sc352 O365 2.105 1_545 S
Sc352 O368 2.105 . S
Sc352 O371 2.105 1_545 S
Sc353 O355 2.025 . S
Sc353 O363 2.105 . S
Sc353 O367 2.105 . S
Sc353 O369 2.105 1_545 S
Sc353 O373 2.105 . S
Sc354 O355 2.025 . S
Sc354 O364 2.105 . S
Sc354 O366 2.105 . S
Sc354 O370 2.105 . S
Sc354 O372 2.105 . S
O355 Sc352 2.025 . S
O355 Sc353 2.025 . S
O355 Sc354 2.025 . S
C356 O362 1.268 . S
C356 O372 1.268 . S
C357 O363 1.268 . S
C357 O371 1.268 1_545 S
C358 O364 1.268 . S
C358 O373 1.268 . S
C359 O365 1.268 . S
C359 O369 1.268 . S
C360 O366 1.268 . S
C360 O368 1.268 . S
C361 O367 1.268 . S
C361 O370 1.268 . S
O362 Sc352 2.105 . S
O362 C356 1.268 . S
O363 Sc353 2.105 . S
O363 C357 1.268 . S
O364 Sc354 2.105 . S
O364 C358 1.268 . S
O365 Sc352 2.105 1_565 S
O365 C359 1.268 . S
O366 Sc354 2.105 . S
O366 C360 1.268 . S
O367 Sc353 2.105 . S
O367 C361 1.268 . S
O368 Sc352 2.105 . S
O368 C360 1.268 . S
O369 Sc353 2.105 1_565 S
O369 C359 1.268 . S
O370 Sc354 2.105 . S
O370 C361 1.268 . S
O371 Sc352 2.105 1_565 S
O371 C357 1.268 1_565 S
O372 Sc354 2.105 . S
O372 C356 1.268 . S
O373 Sc353 2.105 . S
O373 C358 1.268 . S
Sc374 O377 2.025 . S
Sc374 O384 2.105 . S
Sc374 O387 2.105 1_545 S
Sc374 O390 2.105 . S
Sc374 O393 2.105 . S
Sc375 O377 2.025 . S
Sc375 O385 2.105 . S
Sc375 O389 2.105 . S
Sc375 O391 2.105 . S
Sc375 O395 2.105 . S
Sc376 O377 2.025 . S
Sc376 O386 2.105 . S
Sc376 O388 2.105 . S
Sc376 O392 2.105 . S
Sc376 O394 2.105 . S
O377 Sc374 2.025 . S
O377 Sc375 2.025 . S
O377 Sc376 2.025 . S
C378 O384 1.268 . S
C378 O394 1.268 . S
C379 O385 1.268 . S
C379 O393 1.268 . S
C380 O386 1.268 . S
C380 O395 1.268 . S
C381 O387 1.268 . S
C381 O391 1.268 1_565 S
C382 O388 1.268 . S
C382 O390 1.268 . S
C383 O389 1.268 . S
C383 O392 1.268 . S
O384 Sc374 2.105 . S
O384 C378 1.268 . S
O385 Sc375 2.105 . S
O385 C379 1.268 . S
O386 Sc376 2.105 . S
O386 C380 1.268 . S
O387 Sc374 2.105 1_565 S
O387 C381 1.268 . S
O388 Sc376 2.105 . S
O388 C382 1.268 . S
O389 Sc375 2.105 . S
O389 C383 1.268 . S
O390 Sc374 2.105 . S
O390 C382 1.268 . S
O391 Sc375 2.105 . S
O391 C381 1.268 1_545 S
O392 Sc376 2.105 . S
O392 C383 1.268 . S
O393 Sc374 2.105 . S
O393 C379 1.268 . S
O394 Sc376 2.105 . S
O394 C378 1.268 . S
O395 Sc375 2.105 . S
O395 C380 1.268 . S
Sc396 O399 2.025 . S
Sc396 O406 2.105 . S
Sc396 O409 2.105 . S
Sc396 O412 2.105 . S
Sc396 O415 2.105 . S
Sc397 O399 2.025 . S
Sc397 O407 2.105 . S
Sc397 O411 2.105 . S
Sc397 O413 2.105 . S
Sc397 O417 2.105 . S
Sc398 O399 2.025 . S
Sc398 O408 2.105 1_545 S
Sc398 O410 2.105 . S
Sc398 O414 2.105 . S
Sc398 O416 2.105 . S
O399 Sc396 2.025 . S
O399 Sc397 2.025 . S
O399 Sc398 2.025 . S
C400 O406 1.268 . S
C400 O416 1.268 . S
C401 O407 1.268 . S
C401 O415 1.268 . S
C402 O408 1.268 . S
C402 O417 1.268 1_565 S
C403 O409 1.268 . S
C403 O413 1.268 . S
C404 O410 1.268 . S
C404 O412 1.268 . S
C405 O411 1.268 . S
C405 O414 1.268 . S
O406 Sc396 2.105 . S
O406 C400 1.268 . S
O407 Sc397 2.105 . S
O407 C401 1.268 . S
O408 Sc398 2.105 1_565 S
O408 C402 1.268 . S
O409 Sc396 2.105 . S
O409 C403 1.268 . S
O410 Sc398 2.105 . S
O410 C404 1.268 . S
O411 Sc397 2.105 . S
O411 C405 1.268 . S
O412 Sc396 2.105 . S
O412 C404 1.268 . S
O413 Sc397 2.105 . S
O413 C403 1.268 . S
O414 Sc398 2.105 . S
O414 C405 1.268 . S
O415 Sc396 2.105 . S
O415 C401 1.268 . S
O416 Sc398 2.105 . S
O416 C400 1.268 . S
O417 Sc397 2.105 . S
O417 C402 1.268 1_545 S
Sc418 O421 2.025 . S
Sc418 O428 2.105 . S
Sc418 O431 2.105 . S
Sc418 O434 2.105 . S
Sc418 O437 2.105 . S
Sc419 O421 2.025 . S
Sc419 O429 2.105 . S
Sc419 O433 2.105 . S
Sc419 O435 2.105 . S
Sc419 O439 2.105 1_545 S
Sc420 O421 2.025 . S
Sc420 O430 2.105 1_545 S
Sc420 O432 2.105 . S
Sc420 O436 2.105 1_545 S
Sc420 O438 2.105 . S
O421 Sc418 2.025 . S
O421 Sc419 2.025 . S
O421 Sc420 2.025 . S
C422 O428 1.268 . S
C422 O438 1.268 . S
C423 O429 1.268 . S
C423 O437 1.268 . S
C424 O430 1.268 . S
C424 O439 1.268 . S
C425 O431 1.268 . S
C425 O435 1.268 . S
C426 O432 1.268 . S
C426 O434 1.268 . S
C427 O433 1.268 . S
C427 O436 1.268 1_545 S
O428 Sc418 2.105 . S
O428 C422 1.268 . S
O429 Sc419 2.105 . S
O429 C423 1.268 . S
O430 Sc420 2.105 1_565 S
O430 C424 1.268 . S
O431 Sc418 2.105 . S
O431 C425 1.268 . S
O432 Sc420 2.105 . S
O432 C426 1.268 . S
O433 Sc419 2.105 . S
O433 C427 1.268 . S
O434 Sc418 2.105 . S
O434 C426 1.268 . S
O435 Sc419 2.105 . S
O435 C425 1.268 . S
O436 Sc420 2.105 1_565 S
O436 C427 1.268 1_565 S
O437 Sc418 2.105 . S
O437 C423 1.268 . S
O438 Sc420 2.105 . S
O438 C422 1.268 . S
O439 Sc419 2.105 1_565 S
O439 C424 1.268 . S
Sc440 O443 2.025 . S
Sc440 O450 2.105 . S
Sc440 O453 2.105 . S
Sc440 O456 2.105 . S
Sc440 O459 2.105 . S
Sc441 O443 2.025 . S
Sc441 O451 2.105 . S
Sc441 O455 2.105 1_565 S
Sc441 O457 2.105 . S
Sc441 O461 2.105 . S
Sc442 O443 2.025 . S
Sc442 O452 2.105 1_565 S
Sc442 O454 2.105 . S
Sc442 O458 2.105 1_565 S
Sc442 O460 2.105 . S
O443 Sc440 2.025 . S
O443 Sc441 2.025 . S
O443 Sc442 2.025 . S
C444 O450 1.268 . S
C444 O460 1.268 . S
C445 O451 1.268 . S
C445 O459 1.268 . S
C446 O452 1.268 1_565 S
C446 O461 1.268 . S
C447 O453 1.268 . S
C447 O457 1.268 . S
C448 O454 1.268 . S
C448 O456 1.268 . S
C449 O455 1.268 . S
C449 O458 1.268 . S
O450 Sc440 2.105 . S
O450 C444 1.268 . S
O451 Sc441 2.105 . S
O451 C445 1.268 . S
O452 Sc442 2.105 1_545 S
O452 C446 1.268 1_545 S
O453 Sc440 2.105 . S
O453 C447 1.268 . S
O454 Sc442 2.105 . S
O454 C448 1.268 . S
O455 Sc441 2.105 1_545 S
O455 C449 1.268 . S
O456 Sc440 2.105 . S
O456 C448 1.268 . S
O457 Sc441 2.105 . S
O457 C447 1.268 . S
O458 Sc442 2.105 1_545 S
O458 C449 1.268 . S
O459 Sc440 2.105 . S
O459 C445 1.268 . S
O460 Sc442 2.105 . S
O460 C444 1.268 . S
O461 Sc441 2.105 . S
O461 C446 1.268 . S
Sc462 O465 2.025 . S
Sc462 O472 2.105 . S
Sc462 O475 2.105 . S
Sc462 O478 2.105 . S
Sc462 O481 2.105 . S
Sc463 O465 2.025 . S
Sc463 O473 2.105 . S
Sc463 O477 2.105 . S
Sc463 O479 2.105 . S
Sc463 O483 2.105 . S
Sc464 O465 2.025 . S
Sc464 O474 2.105 . S
Sc464 O476 2.105 . S
Sc464 O480 2.105 1_565 S
Sc464 O482 2.105 . S
O465 Sc462 2.025 . S
O465 Sc463 2.025 . S
O465 Sc464 2.025 . S
C466 O472 1.268 . S
C466 O482 1.268 . S
C467 O473 1.268 . S
C467 O481 1.268 . S
C468 O474 1.268 . S
C468 O483 1.268 . S
C469 O475 1.268 . S
C469 O479 1.268 . S
C470 O476 1.268 . S
C470 O478 1.268 . S
C471 O477 1.268 1_545 S
C471 O480 1.268 . S
O472 Sc462 2.105 . S
O472 C466 1.268 . S
O473 Sc463 2.105 . S
O473 C467 1.268 . S
O474 Sc464 2.105 . S
O474 C468 1.268 . S
O475 Sc462 2.105 . S
O475 C469 1.268 . S
O476 Sc464 2.105 . S
O476 C470 1.268 . S
O477 Sc463 2.105 . S
O477 C471 1.268 1_565 S
O478 Sc462 2.105 . S
O478 C470 1.268 . S
O479 Sc463 2.105 . S
O479 C469 1.268 . S
O480 Sc464 2.105 1_545 S
O480 C471 1.268 . S
O481 Sc462 2.105 . S
O481 C467 1.268 . S
O482 Sc464 2.105 . S
O482 C466 1.268 . S
O483 Sc463 2.105 . S
O483 C468 1.268 . S
Sc484 O487 2.025 . S
Sc484 O494 2.105 . S
Sc484 O497 2.105 . S
Sc484 O500 2.105 . S
Sc484 O503 2.105 1_565 S
Sc485 O487 2.025 . S
Sc485 O495 2.105 . S
Sc485 O499 2.105 . S
Sc485 O501 2.105 . S
Sc485 O505 2.105 . S
Sc486 O487 2.025 . S
Sc486 O496 2.105 . S
Sc486 O498 2.105 . S
Sc486 O502 2.105 . S
Sc486 O504 2.105 . S
O487 Sc484 2.025 . S
O487 Sc485 2.025 . S
O487 Sc486 2.025 . S
C488 O494 1.268 . S
C488 O504 1.268 . S
C489 O495 1.268 1_545 S
C489 O503 1.268 . S
C490 O496 1.268 . S
C490 O505 1.268 . S
C491 O497 1.268 . S
C491 O501 1.268 . S
C492 O498 1.268 . S
C492 O500 1.268 . S
C493 O499 1.268 . S
C493 O502 1.268 . S
O494 Sc484 2.105 . S
O494 C488 1.268 . S
O495 Sc485 2.105 . S
O495 C489 1.268 1_565 S
O496 Sc486 2.105 . S
O496 C490 1.268 . S
O497 Sc484 2.105 . S
O497 C491 1.268 . S
O498 Sc486 2.105 . S
O498 C492 1.268 . S
O499 Sc485 2.105 . S
O499 C493 1.268 . S
O500 Sc484 2.105 . S
O500 C492 1.268 . S
O501 Sc485 2.105 . S
O501 C491 1.268 . S
O502 Sc486 2.105 . S
O502 C493 1.268 . S
O503 Sc484 2.105 1_545 S
O503 C489 1.268 . S
O504 Sc486 2.105 . S
O504 C488 1.268 . S
O505 Sc485 2.105 . S
O505 C490 1.268 . S
Sc506 O509 2.025 . S
Sc506 O516 2.105 . S
Sc506 O519 2.105 1_565 S
Sc506 O522 2.105 . S
Sc506 O525 2.105 1_565 S
Sc507 O509 2.025 . S
Sc507 O517 2.105 1_565 S
Sc507 O521 2.105 . S
Sc507 O523 2.105 . S
Sc507 O527 2.105 . S
Sc508 O509 2.025 . S
Sc508 O518 2.105 . S
Sc508 O520 2.105 . S
Sc508 O524 2.105 . S
Sc508 O526 2.105 . S
O509 Sc506 2.025 . S
O509 Sc507 2.025 . S
O509 Sc508 2.025 . S
C510 O516 1.268 . S
C510 O526 1.268 . S
C511 O517 1.268 . S
C511 O525 1.268 . S
C512 O518 1.268 . S
C512 O527 1.268 . S
C513 O519 1.268 1_565 S
C513 O523 1.268 . S
C514 O520 1.268 . S
C514 O522 1.268 . S
C515 O521 1.268 . S
C515 O524 1.268 . S
O516 Sc506 2.105 . S
O516 C510 1.268 . S
O517 Sc507 2.105 1_545 S
O517 C511 1.268 . S
O518 Sc508 2.105 . S
O518 C512 1.268 . S
O519 Sc506 2.105 1_545 S
O519 C513 1.268 1_545 S
O520 Sc508 2.105 . S
O520 C514 1.268 . S
O521 Sc507 2.105 . S
O521 C515 1.268 . S
O522 Sc506 2.105 . S
O522 C514 1.268 . S
O523 Sc507 2.105 . S
O523 C513 1.268 . S
O524 Sc508 2.105 . S
O524 C515 1.268 . S
O525 Sc506 2.105 1_545 S
O525 C511 1.268 . S
O526 Sc508 2.105 . S
O526 C510 1.268 . S
O527 Sc507 2.105 . S
O527 C512 1.268 . S
Sc528 O531 2.025 1_556 S
Sc528 O538 2.105 . S
Sc528 O541 2.105 1_556 S
Sc528 O544 2.105 . S
Sc528 O547 2.105 . S
Sc529 O531 2.025 . S
Sc529 O539 2.105 . S
Sc529 O543 2.105 . S
Sc529 O545 2.105 . S
Sc529 O549 2.105 . S
Sc530 O531 2.025 . S
Sc530 O540 2.105 . S
Sc530 O542 2.105 1_554 S
Sc530 O546 2.105 . S
Sc530 O548 2.105 1_554 S
O531 Sc528 2.025 1_554 S
O531 Sc529 2.025 . S
O531 Sc530 2.025 . S
C532 O538 1.268 . S
C532 O548 1.268 . S
C533 O539 1.268 1_556 S
C533 O547 1.268 . S
C534 O540 1.268 . S
C534 O549 1.268 . S
C535 O541 1.268 . S
C535 O545 1.268 . S
C536 O542 1.268 . S
C536 O544 1.268 . S
C537 O543 1.268 . S
C537 O546 1.268 . S
O538 Sc528 2.105 . S
O538 C532 1.268 . S
O539 Sc529 2.105 . S
O539 C533 1.268 1_554 S
O540 Sc530 2.105 . S
O540 C534 1.268 . S
O541 Sc528 2.105 1_554 S
O541 C535 1.268 . S
O542 Sc530 2.105 1_556 S
O542 C536 1.268 . S
O543 Sc529 2.105 . S
O543 C537 1.268 . S
O544 Sc528 2.105 . S
O544 C536 1.268 . S
O545 Sc529 2.105 . S
O545 C535 1.268 . S
O546 Sc530 2.105 . S
O546 C537 1.268 . S
O547 Sc528 2.105 . S
O547 C533 1.268 . S
O548 Sc530 2.105 1_556 S
O548 C532 1.268 . S
O549 Sc529 2.105 . S
O549 C534 1.268 . S
Sc550 O553 2.025 . S
Sc550 O560 2.105 1_554 S
Sc550 O563 2.105 . S
Sc550 O566 2.105 1_554 S
Sc550 O569 2.105 . S
Sc551 O553 2.025 . S
Sc551 O561 2.105 . S
Sc551 O565 2.105 . S
Sc551 O567 2.105 . S
Sc551 O571 2.105 . S
Sc552 O553 2.025 1_556 S
Sc552 O562 2.105 1_556 S
Sc552 O564 2.105 . S
Sc552 O568 2.105 . S
Sc552 O570 2.105 . S
O553 Sc550 2.025 . S
O553 Sc551 2.025 . S
O553 Sc552 2.025 1_554 S
C554 O560 1.268 . S
C554 O570 1.268 . S
C555 O561 1.268 . S
C555 O569 1.268 . S
C556 O562 1.268 . S
C556 O571 1.268 . S
C557 O563 1.268 . S
C557 O567 1.268 . S
C558 O564 1.268 . S
C558 O566 1.268 . S
C559 O565 1.268 1_556 S
C559 O568 1.268 . S
O560 Sc550 2.105 1_556 S
O560 C554 1.268 . S
O561 Sc551 2.105 . S
O561 C555 1.268 . S
O562 Sc552 2.105 1_554 S
O562 C556 1.268 . S
O563 Sc550 2.105 . S
O563 C557 1.268 . S
O564 Sc552 2.105 . S
O564 C558 1.268 . S
O565 Sc551 2.105 . S
O565 C559 1.268 1_554 S
O566 Sc550 2.105 1_556 S
O566 C558 1.268 . S
O567 Sc551 2.105 . S
O567 C557 1.268 . S
O568 Sc552 2.105 . S
O568 C559 1.268 . S
O569 Sc550 2.105 . S
O569 C555 1.268 . S
O570 Sc552 2.105 . S
O570 C554 1.268 . S
O571 Sc551 2.105 . S
O571 C556 1.268 . S
Sc572 O575 2.025 . S
Sc572 O582 2.105 . S
Sc572 O585 2.105 . S
Sc572 O588 2.105 . S
Sc572 O591 2.105 . S
Sc573 O575 2.025 . S
Sc573 O583 2.105 . S
Sc573 O587 2.105 . S
Sc573 O589 2.105 . S
Sc573 O593 2.105 . S
Sc574 O575 2.025 . S
Sc574 O584 2.105 . S
Sc574 O586 2.105 . S
Sc574 O590 2.105 . S
Sc574 O592 2.105 . S
O575 Sc572 2.025 . S
O575 Sc573 2.025 . S
O575 Sc574 2.025 . S
C576 O582 1.268 . S
C576 O592 1.268 . S
C577 O583 1.268 . S
C577 O591 1.268 . S
C578 O584 1.268 . S
C578 O593 1.268 . S
C579 O585 1.268 . S
C579 O589 1.268 . S
C580 O586 1.268 . S
C580 O588 1.268 . S
C581 O587 1.268 . S
C581 O590 1.268 . S
O582 Sc572 2.105 . S
O582 C576 1.268 . S
O583 Sc573 2.105 . S
O583 C577 1.268 . S
O584 Sc574 2.105 . S
O584 C578 1.268 . S
O585 Sc572 2.105 . S
O585 C579 1.268 . S
O586 Sc574 2.105 . S
O586 C580 1.268 . S
O587 Sc573 2.105 . S
O587 C581 1.268 . S
O588 Sc572 2.105 . S
O588 C580 1.268 . S
O589 Sc573 2.105 . S
O589 C579 1.268 . S
O590 Sc574 2.105 . S
O590 C581 1.268 . S
O591 Sc572 2.105 . S
O591 C577 1.268 . S
O592 Sc574 2.105 . S
O592 C576 1.268 . S
O593 Sc573 2.105 . S
O593 C578 1.268 . S
Sc594 O597 2.025 . S
Sc594 O604 2.105 . S
Sc594 O607 2.105 . S
Sc594 O610 2.105 . S
Sc594 O613 2.105 . S
Sc595 O597 2.025 . S
Sc595 O605 2.105 . S
Sc595 O609 2.105 . S
Sc595 O611 2.105 . S
Sc595 O615 2.105 . S
Sc596 O597 2.025 . S
Sc596 O606 2.105 . S
Sc596 O608 2.105 . S
Sc596 O612 2.105 . S
Sc596 O614 2.105 . S
O597 Sc594 2.025 . S
O597 Sc595 2.025 . S
O597 Sc596 2.025 . S
C598 O604 1.268 . S
C598 O614 1.268 . S
C599 O605 1.268 . S
C599 O613 1.268 . S
C600 O606 1.268 . S
C600 O615 1.268 . S
C601 O607 1.268 . S
C601 O611 1.268 . S
C602 O608 1.268 . S
C602 O610 1.268 . S
C603 O609 1.268 . S
C603 O612 1.268 . S
O604 Sc594 2.105 . S
O604 C598 1.268 . S
O605 Sc595 2.105 . S
O605 C599 1.268 . S
O606 Sc596 2.105 . S
O606 C600 1.268 . S
O607 Sc594 2.105 . S
O607 C601 1.268 . S
O608 Sc596 2.105 . S
O608 C602 1.268 . S
O609 Sc595 2.105 . S
O609 C603 1.268 . S
O610 Sc594 2.105 . S
O610 C602 1.268 . S
O611 Sc595 2.105 . S
O611 C601 1.268 . S
O612 Sc596 2.105 . S
O612 C603 1.268 . S
O613 Sc594 2.105 . S
O613 C599 1.268 . S
O614 Sc596 2.105 . S
O614 C598 1.268 . S
O615 Sc595 2.105 . S
O615 C600 1.268 . S
Sc616 O619 2.025 . S
Sc616 O626 2.105 1_556 S
Sc616 O629 2.105 . S
Sc616 O632 2.105 1_556 S
Sc616 O635 2.105 . S
Sc617 O619 2.025 . S
Sc617 O627 2.105 . S
Sc617 O631 2.105 . S
Sc617 O633 2.105 . S
Sc617 O637 2.105 . S
Sc618 O619 2.025 1_554 S
Sc618 O628 2.105 . S
Sc618 O630 2.105 . S
Sc618 O634 2.105 1_554 S
Sc618 O636 2.105 . S
O619 Sc616 2.025 . S
O619 Sc617 2.025 . S
O619 Sc618 2.025 1_556 S
C620 O626 1.268 . S
C620 O636 1.268 . S
C621 O627 1.268 . S
C621 O635 1.268 . S
C622 O628 1.268 . S
C622 O637 1.268 1_554 S
C623 O629 1.268 . S
C623 O633 1.268 . S
C624 O630 1.268 . S
C624 O632 1.268 . S
C625 O631 1.268 . S
C625 O634 1.268 . S
O626 Sc616 2.105 1_554 S
O626 C620 1.268 . S
O627 Sc617 2.105 . S
O627 C621 1.268 . S
O628 Sc618 2.105 . S
O628 C622 1.268 . S
O629 Sc616 2.105 . S
O629 C623 1.268 . S
O630 Sc618 2.105 . S
O630 C624 1.268 . S
O631 Sc617 2.105 . S
O631 C625 1.268 . S
O632 Sc616 2.105 1_554 S
O632 C624 1.268 . S
O633 Sc617 2.105 . S
O633 C623 1.268 . S
O634 Sc618 2.105 1_556 S
O634 C625 1.268 . S
O635 Sc616 2.105 . S
O635 C621 1.268 . S
O636 Sc618 2.105 . S
O636 C620 1.268 . S
O637 Sc617 2.105 . S
O637 C622 1.268 1_556 S
Sc638 O641 2.025 1_554 S
Sc638 O648 2.105 . S
Sc638 O651 2.105 . S
Sc638 O654 2.105 . S
Sc638 O657 2.105 1_554 S
Sc639 O641 2.025 . S
Sc639 O649 2.105 . S
Sc639 O653 2.105 . S
Sc639 O655 2.105 . S
Sc639 O659 2.105 . S
Sc640 O641 2.025 . S
Sc640 O650 2.105 . S
Sc640 O652 2.105 1_556 S
Sc640 O656 2.105 . S
Sc640 O658 2.105 1_556 S
O641 Sc638 2.025 1_556 S
O641 Sc639 2.025 . S
O641 Sc640 2.025 . S
C642 O648 1.268 . S
C642 O658 1.268 . S
C643 O649 1.268 . S
C643 O657 1.268 . S
C644 O650 1.268 . S
C644 O659 1.268 . S
C645 O651 1.268 . S
C645 O655 1.268 1_554 S
C646 O652 1.268 . S
C646 O654 1.268 . S
C647 O653 1.268 . S
C647 O656 1.268 . S
O648 Sc638 2.105 . S
O648 C642 1.268 . S
O649 Sc639 2.105 . S
O649 C643 1.268 . S
O650 Sc640 2.105 . S
O650 C644 1.268 . S
O651 Sc638 2.105 . S
O651 C645 1.268 . S
O652 Sc640 2.105 1_554 S
O652 C646 1.268 . S
O653 Sc639 2.105 . S
O653 C647 1.268 . S
O654 Sc638 2.105 . S
O654 C646 1.268 . S
O655 Sc639 2.105 . S
O655 C645 1.268 1_556 S
O656 Sc640 2.105 . S
O656 C647 1.268 . S
O657 Sc638 2.105 1_556 S
O657 C643 1.268 . S
O658 Sc640 2.105 1_554 S
O658 C642 1.268 . S
O659 Sc639 2.105 . S
O659 C644 1.268 . S
Sc660 O663 2.025 . S
Sc660 O670 2.105 . S
Sc660 O673 2.105 . S
Sc660 O676 2.105 . S
Sc660 O679 2.105 . S
Sc661 O663 2.025 . S
Sc661 O671 2.105 . S
Sc661 O675 2.105 . S
Sc661 O677 2.105 . S
Sc661 O681 2.105 . S
Sc662 O663 2.025 . S
Sc662 O672 2.105 . S
Sc662 O674 2.105 . S
Sc662 O678 2.105 . S
Sc662 O680 2.105 . S
O663 Sc660 2.025 . S
O663 Sc661 2.025 . S
O663 Sc662 2.025 . S
C664 O670 1.268 . S
C664 O680 1.268 . S
C665 O671 1.268 . S
C665 O679 1.268 . S
C666 O672 1.268 . S
C666 O681 1.268 . S
C667 O673 1.268 . S
C667 O677 1.268 . S
C668 O674 1.268 . S
C668 O676 1.268 . S
C669 O675 1.268 . S
C669 O678 1.268 . S
O670 Sc660 2.105 . S
O670 C664 1.268 . S
O671 Sc661 2.105 . S
O671 C665 1.268 . S
O672 Sc662 2.105 . S
O672 C666 1.268 . S
O673 Sc660 2.105 . S
O673 C667 1.268 . S
O674 Sc662 2.105 . S
O674 C668 1.268 . S
O675 Sc661 2.105 . S
O675 C669 1.268 . S
O676 Sc660 2.105 . S
O676 C668 1.268 . S
O677 Sc661 2.105 . S
O677 C667 1.268 . S
O678 Sc662 2.105 . S
O678 C669 1.268 . S
O679 Sc660 2.105 . S
O679 C665 1.268 . S
O680 Sc662 2.105 . S
O680 C664 1.268 . S
O681 Sc661 2.105 . S
O681 C666 1.268 . S
Sc682 O685 2.025 . S
Sc682 O692 2.105 . S
Sc682 O695 2.105 . S
Sc682 O698 2.105 . S
Sc682 O701 2.105 . S
Sc683 O685 2.025 . S
Sc683 O693 2.105 . S
Sc683 O697 2.105 . S
Sc683 O699 2.105 . S
Sc683 O703 2.105 . S
Sc684 O685 2.025 . S
Sc684 O694 2.105 . S
Sc684 O696 2.105 . S
Sc684 O700 2.105 . S
Sc684 O702 2.105 . S
O685 Sc682 2.025 . S
O685 Sc683 2.025 . S
O685 Sc684 2.025 . S
C686 O692 1.268 . S
C686 O702 1.268 . S
C687 O693 1.268 . S
C687 O701 1.268 . S
C688 O694 1.268 . S
C688 O703 1.268 . S
C689 O695 1.268 . S
C689 O699 1.268 . S
C690 O696 1.268 . S
C690 O698 1.268 . S
C691 O697 1.268 . S
C691 O700 1.268 . S
O692 Sc682 2.105 . S
O692 C686 1.268 . S
O693 Sc683 2.105 . S
O693 C687 1.268 . S
O694 Sc684 2.105 . S
O694 C688 1.268 . S
O695 Sc682 2.105 . S
O695 C689 1.268 . S
O696 Sc684 2.105 . S
O696 C690 1.268 . S
O697 Sc683 2.105 . S
O697 C691 1.268 . S
O698 Sc682 2.105 . S
O698 C690 1.268 . S
O699 Sc683 2.105 . S
O699 C689 1.268 . S
O700 Sc684 2.105 . S
O700 C691 1.268 . S
O701 Sc682 2.105 . S
O701 C687 1.268 . S
O702 Sc684 2.105 . S
O702 C686 1.268 . S
O703 Sc683 2.105 . S
O703 C688 1.268 . S
C556 C7 1.419 . S
C535 C28 1.419 . S
C600 C51 1.419 . S
C579 C72 1.419 . S
C97 C643 1.419 . S
C115 C625 1.419 . S
C141 C687 1.419 . S
C669 C159 1.419 . S
C380 C183 1.419 . S
C359 C204 1.419 . S
C424 C227 1.419 . S
C403 C248 1.419 . S
C273 C467 1.419 . S
C449 C291 1.419 . S
C317 C511 1.419 . S
C493 C335 1.419 . S
C4 C426 2.240 . S
C400 C30 2.240 . S
C382 C48 2.240 . S
C74 C356 2.240 . S
C514 C92 2.240 . S
C488 C118 2.240 . S
C470 C136 2.240 . S
C444 C162 2.240 . S
C602 C180 2.240 . S
C206 C576 2.240 . S
C224 C558 2.240 . S
C250 C532 2.240 . S
C690 C268 2.240 . S
C664 C294 2.240 . S
C312 C646 2.240 . S
C338 C620 2.240 . S
C94 C5 2.113 1_564 S
C31 C645 2.113 1_556 S
C49 C314 2.113 . S
C513 C75 2.113 1_565 S
C117 C559 2.113 1_554 S
C138 C225 2.113 . S
C427 C161 2.113 1_545 S
C270 C181 2.113 . S
C207 C469 2.113 . S
C251 C689 2.113 . S
C383 C293 2.113 . S
C337 C603 2.113 . S
C446 C357 2.113 1_465 S
C666 C401 2.113 1_455 S
C577 C490 2.113 1_655 S
C533 C622 2.113 1_656 S
C53 C9 1.921 . S
C71 C27 1.921 . S
C139 C95 1.921 . S
C116 C160 1.921 . S
C229 C185 1.921 . S
C203 C247 1.921 . S
C315 C271 1.921 . S
C292 C336 1.921 . S
C361 C405 1.921 . S
C379 C423 1.921 . S
C491 C447 1.921 . S
C468 C512 1.921 . S
C537 C581 1.921 . S
C599 C555 1.921 . S
C623 C667 1.921 . S
C644 C688 1.921 . S
C119 C8 1.813 . S
C621 C26 1.820 . S
C52 C339 1.813 . S
C70 C489 1.820 . S
C96 C29 1.813 . S
C114 C534 1.820 . S
C249 C140 1.813 . S
C402 C158 1.820 . S
C184 C295 1.813 . S
C445 C202 1.820 . S
C228 C163 1.813 . S
C665 C246 1.820 . S
C272 C205 1.813 . S
C290 C358 1.820 . S
C316 C73 1.813 . S
C578 C334 1.820 . S
C360 C471 1.813 . S
C378 C269 1.813 . S
C691 C404 1.813 . S
C137 C422 1.813 . S
C448 C381 1.813 . S
C182 C466 1.813 . S
C601 C492 1.813 . S
C510 C50 1.813 . S
C647 C536 1.813 . S
C554 C93 1.813 . S
C515 C580 1.813 . S
C313 C598 1.813 . S
C557 C624 1.813 . S
C642 C6 1.813 . S
C425 C668 1.813 . S
C686 C226 1.813 . S
