# Generated by pormake.
# Topology smw, (6)-cn, num edge types: 1
# Building blocks:
#     Node 0, Type 0, BuildingBlock: MIDCAF_clean_sbu_0, # of connection points: 6
#     Node 1, Type 0, BuildingBlock: MIDCAF_clean_sbu_0, # of connection points: 6
#     Node 2, Type 0, BuildingBlock: MIDCAF_clean_sbu_0, # of connection points: 6
#     Node 3, Type 0, BuildingBlock: MIDCAF_clean_sbu_0, # of connection points: 6
#     Node 4, Type 0, BuildingBlock: MIDCAF_clean_sbu_0, # of connection points: 6
#     Node 5, Type 0, BuildingBlock: MIDCAF_clean_sbu_0, # of connection points: 6
#     Node 6, Type 0, BuildingBlock: MIDCAF_clean_sbu_0, # of connection points: 6
#     Node 7, Type 0, BuildingBlock: MIDCAF_clean_sbu_0, # of connection points: 6
#     Node 8, Type 0, BuildingBlock: MIDCAF_clean_sbu_0, # of connection points: 6
#     Node 9, Type 0, BuildingBlock: MIDCAF_clean_sbu_0, # of connection points: 6
#     Node 10, Type 0, BuildingBlock: MIDCAF_clean_sbu_0, # of connection points: 6
#     Node 11, Type 0, BuildingBlock: MIDCAF_clean_sbu_0, # of connection points: 6
#     Edge 12, Type (0, 0), BuildingBlock: EYOCIG_clean_linker_4, # of connection points: 2
#     Edge 13, Type (0, 0), BuildingBlock: EYOCIG_clean_linker_4, # of connection points: 2
#     Edge 14, Type (0, 0), BuildingBlock: EYOCIG_clean_linker_4, # of connection points: 2
#     Edge 15, Type (0, 0), BuildingBlock: EYOCIG_clean_linker_4, # of connection points: 2
#     Edge 16, Type (0, 0), BuildingBlock: EYOCIG_clean_linker_4, # of connection points: 2
#     Edge 17, Type (0, 0), BuildingBlock: EYOCIG_clean_linker_4, # of connection points: 2
#     Edge 18, Type (0, 0), BuildingBlock: EYOCIG_clean_linker_4, # of connection points: 2
#     Edge 19, Type (0, 0), BuildingBlock: EYOCIG_clean_linker_4, # of connection points: 2
#     Edge 20, Type (0, 0), BuildingBlock: EYOCIG_clean_linker_4, # of connection points: 2
#     Edge 21, Type (0, 0), BuildingBlock: EYOCIG_clean_linker_4, # of connection points: 2
#     Edge 22, Type (0, 0), BuildingBlock: EYOCIG_clean_linker_4, # of connection points: 2
#     Edge 23, Type (0, 0), BuildingBlock: EYOCIG_clean_linker_4, # of connection points: 2
#     Edge 24, Type (0, 0), BuildingBlock: EYOCIG_clean_linker_4, # of connection points: 2
#     Edge 25, Type (0, 0), BuildingBlock: EYOCIG_clean_linker_4, # of connection points: 2
#     Edge 26, Type (0, 0), BuildingBlock: EYOCIG_clean_linker_4, # of connection points: 2
#     Edge 27, Type (0, 0), BuildingBlock: EYOCIG_clean_linker_4, # of connection points: 2
#     Edge 28, Type (0, 0), BuildingBlock: EYOCIG_clean_linker_4, # of connection points: 2
#     Edge 29, Type (0, 0), BuildingBlock: EYOCIG_clean_linker_4, # of connection points: 2
#     Edge 30, Type (0, 0), BuildingBlock: EYOCIG_clean_linker_4, # of connection points: 2
#     Edge 31, Type (0, 0), BuildingBlock: EYOCIG_clean_linker_4, # of connection points: 2
#     Edge 32, Type (0, 0), BuildingBlock: EYOCIG_clean_linker_4, # of connection points: 2
#     Edge 33, Type (0, 0), BuildingBlock: EYOCIG_clean_linker_4, # of connection points: 2
#     Edge 34, Type (0, 0), BuildingBlock: EYOCIG_clean_linker_4, # of connection points: 2
#     Edge 35, Type (0, 0), BuildingBlock: EYOCIG_clean_linker_4, # of connection points: 2
#     Edge 36, Type (0, 0), BuildingBlock: EYOCIG_clean_linker_4, # of connection points: 2
#     Edge 37, Type (0, 0), BuildingBlock: EYOCIG_clean_linker_4, # of connection points: 2
#     Edge 38, Type (0, 0), BuildingBlock: EYOCIG_clean_linker_4, # of connection points: 2
#     Edge 39, Type (0, 0), BuildingBlock: EYOCIG_clean_linker_4, # of connection points: 2
#     Edge 40, Type (0, 0), BuildingBlock: EYOCIG_clean_linker_4, # of connection points: 2
#     Edge 41, Type (0, 0), BuildingBlock: EYOCIG_clean_linker_4, # of connection points: 2
#     Edge 42, Type (0, 0), BuildingBlock: EYOCIG_clean_linker_4, # of connection points: 2
#     Edge 43, Type (0, 0), BuildingBlock: EYOCIG_clean_linker_4, # of connection points: 2
#     Edge 44, Type (0, 0), BuildingBlock: EYOCIG_clean_linker_4, # of connection points: 2
#     Edge 45, Type (0, 0), BuildingBlock: EYOCIG_clean_linker_4, # of connection points: 2
#     Edge 46, Type (0, 0), BuildingBlock: EYOCIG_clean_linker_4, # of connection points: 2
#     Edge 47, Type (0, 0), BuildingBlock: EYOCIG_clean_linker_4, # of connection points: 2
# Relax obj value: 0.362
# Max RMSD: 0.258
# Mean RMSD: 0.258
data_MOF--net-smw--node1-MIDCAF_clean_sbu_0--edge1-EYOCIG_clean_linker_4
_symmetry_space_group_name_H-M    P1
_symmetry_Int_Tables_number       1
_symmetry_cell_setting            triclinic
loop_
_symmetry_equiv_pos_as_xyz
'x, y, z'
_cell_length_a     51.238178
_cell_length_b     51.256027
_cell_length_c     10.248537
_cell_angle_alpha  89.978424
_cell_angle_beta   90.081818
_cell_angle_gamma 119.99056
loop_
_atom_site_label
_atom_site_type_symbol
_atom_site_fract_x
_atom_site_fract_y
_atom_site_fract_z
_atom_type_partial_charge
Zn0 Zn 0.34905 0.04883 0.91545 0.0
Zn1 Zn 0.3483 0.04516 0.44875 0.0
Zn2 Zn 0.34983 0.04804 0.18243 0.0
C3 C 0.39352 0.03415 0.36151 0.0
C4 C 0.2919 0.00264 0.35769 0.0
O5 O 0.35977 0.09292 1.12007 0.0
O6 O 0.35856 0.09098 0.90341 0.0
C7 C 0.39384 0.03632 0.99588 0.0
O8 O 0.3849 0.03812 0.2488 0.0
O9 O 0.38105 0.03568 0.46489 0.0
O10 O 0.30605 0.01258 0.46339 0.0
O11 O 0.30486 0.01295 0.24707 0.0
O12 O 0.38192 0.03962 0.89419 0.0
O13 O 0.38489 0.03873 1.11029 0.0
O14 O 0.30522 0.01362 1.11036 0.0
O15 O 0.30695 0.01621 0.89423 0.0
C16 C 0.2926 0.00466 0.99798 0.0
O17 O 0.35972 0.09199 0.25823 0.0
O18 O 0.35806 0.08711 0.47401 0.0
C19 C 0.3623 0.10531 1.00814 0.0
C20 C 0.36212 0.10287 0.37357 0.0
Zn21 Zn 0.2422 0.37842 0.4501 0.0
Zn22 Zn 0.24038 0.3811 0.91664 0.0
Zn23 Zn 0.24142 0.38095 0.18359 0.0
C24 C 0.22677 0.32403 0.99584 0.0
C25 C 0.29783 0.42489 1.00002 0.0
O26 O 0.2077 0.39131 0.25961 0.0
O27 O 0.2103 0.38865 0.47528 0.0
C28 C 0.22779 0.32215 0.35529 0.0
O29 O 0.23051 0.33634 1.10891 0.0
O30 O 0.23008 0.33882 0.89289 0.0
O31 O 0.28274 0.41345 0.89757 0.0
O32 O 0.28616 0.41574 1.11384 0.0
O33 O 0.23202 0.33596 0.46188 0.0
O34 O 0.23076 0.33555 0.24553 0.0
O35 O 0.28648 0.41527 0.25236 0.0
O36 O 0.28459 0.41075 0.46824 0.0
C37 C 0.29887 0.42339 0.36565 0.0
O38 O 0.20711 0.39185 1.12146 0.0
O39 O 0.20832 0.39146 0.90477 0.0
C40 C 0.19905 0.39341 0.37497 0.0
C41 C 0.19765 0.39504 1.00957 0.0
Zn42 Zn 0.80088 0.27084 0.91635 0.0
Zn43 Zn 0.80374 0.27278 0.44997 0.0
Zn44 Zn 0.8012 0.27191 0.18323 0.0
C45 C 0.81517 0.32927 0.36371 0.0
C46 C 0.84621 0.2588 0.35936 0.0
O47 O 0.75626 0.23748 1.1188 0.0
O48 O 0.75853 0.23873 0.9022 0.0
C49 C 0.81396 0.32817 0.998 0.0
O50 O 0.81139 0.3169 0.25067 0.0
O51 O 0.8133 0.31503 0.46684 0.0
O52 O 0.83628 0.263 0.46496 0.0
O53 O 0.83597 0.26158 0.24865 0.0
O54 O 0.81078 0.31312 0.89597 0.0
O55 O 0.81109 0.31652 1.11214 0.0
O56 O 0.83534 0.26125 1.11198 0.0
O57 O 0.83304 0.26069 0.89579 0.0
C58 C 0.84429 0.25753 0.99985 0.0
O59 O 0.757 0.23799 0.25701 0.0
O60 O 0.76166 0.2406 0.47295 0.0
C61 C 0.74398 0.22803 1.00627 0.0
C62 C 0.74597 0.22927 0.3719 0.0
Zn63 Zn 0.46899 0.83192 0.44884 0.0
Zn64 Zn 0.46832 0.83055 0.91528 0.0
Zn65 Zn 0.4675 0.83019 1.18213 0.0
C66 C 0.52481 0.87422 1.00044 0.0
C67 C 0.42337 0.84246 0.99815 0.0
O68 O 0.45775 0.78596 0.25353 0.0
O69 O 0.4595 0.78993 0.46969 0.0
C70 C 0.52526 0.87519 0.36024 0.0
O71 O 0.51217 0.86485 1.11236 0.0
O72 O 0.51045 0.86319 0.89607 0.0
O73 O 0.43543 0.83977 0.89578 0.0
O74 O 0.4323 0.83957 1.11201 0.0
O75 O 0.51114 0.86469 0.46544 0.0
O76 O 0.51235 0.86523 0.24909 0.0
O77 O 0.43238 0.83978 0.25055 0.0
O78 O 0.43607 0.84113 0.46675 0.0
C79 C 0.42369 0.84319 0.36395 0.0
O80 O 0.4577 0.78563 1.1153 0.0
O81 O 0.45882 0.78847 0.89882 0.0
C82 C 0.45546 0.77462 0.36778 0.0
C83 C 0.45515 0.77372 1.00219 0.0
Zn84 Zn 0.57706 0.49751 0.91524 0.0
Zn85 Zn 0.57448 0.49825 0.44883 0.0
Zn86 Zn 0.57563 0.49669 0.1823 0.0
C87 C 0.51787 0.45372 0.36106 0.0
C88 C 0.58916 0.5549 0.35812 0.0
O89 O 0.60988 0.48582 1.11962 0.0
O90 O 0.60901 0.487 0.90297 0.0
C91 C 0.51945 0.45354 0.9954 0.0
O92 O 0.53042 0.46223 0.24839 0.0
O93 O 0.53205 0.46594 0.46456 0.0
O94 O 0.58473 0.54068 0.46368 0.0
O95 O 0.58632 0.5419 0.2474 0.0
O96 O 0.53469 0.46532 0.8938 0.0
O97 O 0.53097 0.46226 1.10988 0.0
O98 O 0.58669 0.54157 1.11073 0.0
O99 O 0.58749 0.5399 0.89458 0.0
C100 C 0.59061 0.5543 0.99855 0.0
O101 O 0.60922 0.48604 0.25778 0.0
O102 O 0.6063 0.4879 0.47359 0.0
C103 C 0.61945 0.48295 1.00759 0.0
C104 C 0.61771 0.48353 0.37301 0.0
Zn105 Zn 0.01424 0.60557 0.4464 0.0
Zn106 Zn 0.0153 0.60703 0.91268 0.0
Zn107 Zn 0.01589 0.6062 1.17961 0.0
C108 C -0.02778 0.62047 0.99929 0.0
C109 C 0.00277 0.54987 0.99408 0.0
O110 O 0.06028 0.64033 0.25118 0.0
O111 O 0.05631 0.63796 0.46731 0.0
C112 C -0.02881 0.61907 0.35881 0.0
O113 O -0.01848 0.6168 1.1108 0.0
O114 O -0.01693 0.61716 0.8945 0.0
O115 O 0.00544 0.56476 0.89211 0.0
O116 O 0.006 0.56162 1.10822 0.0
O117 O -0.01845 0.61507 0.46375 0.0
O118 O -0.01886 0.6163 0.24746 0.0
O119 O 0.00604 0.56129 0.24677 0.0
O120 O 0.00496 0.5634 0.46307 0.0
C121 C 0.00272 0.54905 0.35985 0.0
O122 O 0.06057 0.64068 1.11294 0.0
O123 O 0.05758 0.63917 0.89647 0.0
C124 C 0.07165 0.64924 0.36555 0.0
C125 C 0.07247 0.65002 0.99983 0.0
Zn126 Zn 0.79925 0.49787 0.41754 0.0
Zn127 Zn 0.80244 0.49872 0.9512 0.0
Zn128 Zn 0.79976 0.49707 0.68459 0.0
C129 C 0.84415 0.55543 0.8607 0.0
C130 C 0.81476 0.45432 0.86439 0.0
O131 O 0.75463 0.48615 0.62095 0.0
O132 O 0.75683 0.4875 0.40435 0.0
C133 C 0.84254 0.55465 0.50116 0.0
O134 O 0.83411 0.54234 0.74998 0.0
O135 O 0.83438 0.54125 0.96631 0.0
O136 O 0.81284 0.46661 0.96764 0.0
O137 O 0.81059 0.4627 0.75152 0.0
O138 O 0.83135 0.54021 0.39712 0.0
O139 O 0.83361 0.54196 0.61331 0.0
O140 O 0.81003 0.46263 0.61299 0.0
O141 O 0.80929 0.46556 0.39685 0.0
C142 C 0.81277 0.45384 0.49871 0.0
O143 O 0.75545 0.48627 0.75914 0.0
O144 O 0.76016 0.48805 0.97503 0.0
C145 C 0.74228 0.48337 0.50864 0.0
C146 C 0.74439 0.48364 0.87418 0.0
Zn147 Zn 0.24119 0.832 0.94681 0.0
Zn148 Zn 0.2405 0.83049 0.41326 0.0
Zn149 Zn 0.24096 0.83019 0.68009 0.0
C150 C 0.29741 0.84259 0.49701 0.0
C151 C 0.22746 0.87402 0.49747 0.0
O152 O 0.2065 0.78596 0.75143 0.0
O153 O 0.20864 0.79003 0.96756 0.0
C154 C 0.29776 0.8432 0.86283 0.0
O155 O 0.28556 0.83963 0.61069 0.0
O156 O 0.28267 0.8399 0.39441 0.0
O157 O 0.23081 0.86297 0.39331 0.0
O158 O 0.23084 0.86475 0.60956 0.0
O159 O 0.28329 0.84113 0.96539 0.0
O160 O 0.28568 0.83981 0.74924 0.0
O161 O 0.23114 0.86524 0.74628 0.0
O162 O 0.23188 0.86483 0.96266 0.0
C163 C 0.22824 0.87527 0.85722 0.0
O164 O 0.20628 0.78559 0.61321 0.0
O165 O 0.20807 0.78835 0.39672 0.0
C166 C 0.19741 0.77467 0.86568 0.0
C167 C 0.19699 0.77362 0.50008 0.0
Zn168 Zn 0.3481 0.27025 0.41368 0.0
Zn169 Zn 0.34668 0.27313 0.94699 0.0
Zn170 Zn 0.34861 0.27179 0.68058 0.0
C171 C 0.2904 0.25928 0.85376 0.0
C172 C 0.39205 0.32936 0.86006 0.0
O173 O 0.35905 0.23716 0.61919 0.0
O174 O 0.35833 0.2381 0.40248 0.0
C175 C 0.29135 0.25719 0.49439 0.0
O176 O 0.30348 0.26177 0.74364 0.0
O177 O 0.30444 0.26364 0.9599 0.0
O178 O 0.37954 0.31532 0.96331 0.0
O179 O 0.38349 0.31682 0.74726 0.0
O180 O 0.30582 0.26008 0.39099 0.0
O181 O 0.30394 0.26115 0.60702 0.0
O182 O 0.38349 0.31623 0.60875 0.0
O183 O 0.38054 0.3125 0.39263 0.0
C184 C 0.39237 0.32769 0.49441 0.0
O185 O 0.35865 0.23789 0.75735 0.0
O186 O 0.35632 0.24084 0.97296 0.0
C187 C 0.36201 0.22754 0.50745 0.0
C188 C 0.36076 0.22931 0.87292 0.0
Zn189 Zn 0.01442 0.37928 0.94998 0.0
Zn190 Zn 0.01804 0.38005 0.41641 0.0
Zn191 Zn 0.01733 0.38088 0.68349 0.0
C192 C 0.00469 0.42426 0.49621 0.0
C193 C -0.0253 0.32329 0.49949 0.0
O194 O 0.06152 0.39151 0.75961 0.0
O195 O 0.05661 0.3897 0.97536 0.0
C196 C 0.00244 0.42384 0.86182 0.0
O197 O 0.00733 0.41546 0.61073 0.0
O198 O 0.00813 0.41244 0.39467 0.0
O199 O -0.01405 0.33771 0.39558 0.0
O200 O -0.01648 0.33601 0.61172 0.0
O201 O 0.00426 0.41156 0.96537 0.0
O202 O 0.00661 0.41538 0.74925 0.0
O203 O -0.01729 0.33568 0.74835 0.0
O204 O -0.01773 0.33684 0.96464 0.0
C205 C -0.0275 0.32265 0.85894 0.0
O206 O 0.06245 0.39158 0.62145 0.0
O207 O 0.06044 0.3903 0.40479 0.0
C208 C 0.07245 0.39406 0.87502 0.0
C209 C 0.07488 0.39432 0.50953 0.0
Zn210 Zn 0.57752 0.0483 0.41572 0.0
Zn211 Zn 0.57528 0.04585 0.94915 0.0
Zn212 Zn 0.57626 0.04811 0.68262 0.0
C213 C 0.58891 0.00304 0.86022 0.0
C214 C 0.51893 0.03469 0.86179 0.0
O215 O 0.61103 0.09288 0.61828 0.0
O216 O 0.60996 0.09048 0.4017 0.0
C217 C 0.59012 0.00448 0.50049 0.0
O218 O 0.5862 0.01316 0.74911 0.0
O219 O 0.58483 0.0132 0.96542 0.0
O220 O 0.53309 0.03653 0.96523 0.0
O221 O 0.53134 0.03832 0.74899 0.0
O222 O 0.58719 0.01579 0.39616 0.0
O223 O 0.58649 0.01361 0.61238 0.0
O224 O 0.53181 0.03859 0.61047 0.0
O225 O 0.53536 0.03884 0.39438 0.0
C226 C 0.52028 0.03582 0.49603 0.0
O227 O 0.61043 0.09225 0.75647 0.0
O228 O 0.6076 0.08784 0.97243 0.0
C229 C 0.62067 0.10505 0.50584 0.0
C230 C 0.61912 0.10338 0.87134 0.0
Zn231 Zn 0.47035 0.60593 0.94885 0.0
Zn232 Zn 0.46911 0.60642 0.41518 0.0
Zn233 Zn 0.46851 0.60608 0.68203 0.0
C234 C 0.42459 0.54946 0.49913 0.0
C235 C 0.52582 0.61974 0.4992 0.0
O236 O 0.45856 0.64041 0.75346 0.0
O237 O 0.46078 0.6384 0.96955 0.0
C238 C 0.42495 0.54933 0.86491 0.0
O239 O 0.4335 0.5614 0.61278 0.0
O240 O 0.43651 0.56418 0.3965 0.0
O241 O 0.51134 0.61631 0.39505 0.0
O242 O 0.51322 0.61635 0.6113 0.0
O243 O 0.43743 0.56382 0.96746 0.0
O244 O 0.43354 0.56137 0.75133 0.0
O245 O 0.51353 0.61617 0.74798 0.0
O246 O 0.51255 0.61538 0.96434 0.0
C247 C 0.52658 0.61913 0.85877 0.0
O248 O 0.45832 0.64058 0.61521 0.0
O249 O 0.45915 0.63868 0.39872 0.0
C250 C 0.45644 0.64951 0.86779 0.0
C251 C 0.4555 0.64977 0.50208 0.0
C252 C 0.37156 0.15686 0.42457 0.0
C253 C 0.36749 0.13267 0.39159 0.0
C254 C 0.37157 0.18267 0.46939 0.0
C255 C 0.36747 0.20299 0.49838 0.0
C256 C 0.1293 0.40386 0.47092 0.0
C257 C 0.10491 0.39981 0.50013 0.0
C258 C 0.15499 0.40362 0.42604 0.0
C259 C 0.17491 0.39924 0.393 0.0
C260 C 0.69175 0.18494 0.42098 0.0
C261 C 0.71604 0.20497 0.38868 0.0
C262 C 0.6658 0.15925 0.46563 0.0
C263 C 0.64536 0.13496 0.49524 0.0
C264 C 0.44623 0.69472 0.45929 0.0
C265 C 0.45022 0.6744 0.48968 0.0
C266 C 0.44623 0.72054 0.41455 0.0
C267 C 0.45019 0.74477 0.38294 0.0
C268 C 0.66194 0.4735 0.42364 0.0
C269 C 0.64196 0.47782 0.39072 0.0
C270 C 0.68773 0.47344 0.46869 0.0
C271 C 0.71218 0.47767 0.49834 0.0
C272 C 0.15182 0.71953 0.45738 0.0
C273 C 0.17225 0.74379 0.48772 0.0
C274 C 0.12588 0.69381 0.41266 0.0
C275 C 0.10158 0.67367 0.38098 0.0
C276 C 0.44673 0.69404 0.91481 0.0
C277 C 0.45089 0.67391 0.88313 0.0
C278 C 0.44644 0.71971 0.95953 0.0
C279 C 0.45016 0.74392 0.98989 0.0
C280 C 0.66412 0.4731 0.96869 0.0
C281 C 0.64388 0.4773 0.99795 0.0
C282 C 0.69003 0.47329 0.924 0.0
C283 C 0.71438 0.47776 0.89141 0.0
C284 C 0.15259 0.7206 0.91241 0.0
C285 C 0.17285 0.74482 0.88078 0.0
C286 C 0.12676 0.6948 0.95715 0.0
C287 C 0.10243 0.67454 0.98756 0.0
C288 C 0.37065 0.18506 0.92471 0.0
C289 C 0.36639 0.20505 0.89154 0.0
C290 C 0.37103 0.15944 0.96956 0.0
C291 C 0.36733 0.13517 0.9987 0.0
C292 C 0.12675 0.40427 0.92619 0.0
C293 C 0.10242 0.39985 0.89319 0.0
C294 C 0.15271 0.40451 0.971 0.0
C295 C 0.17306 0.40044 1.00012 0.0
C296 C 0.68959 0.18324 0.96553 0.0
C297 C 0.71398 0.20352 0.9954 0.0
C298 C 0.66377 0.15743 0.92057 0.0
C299 C 0.64361 0.13321 0.88813 0.0
C300 C 0.22706 0.92377 0.45126 0.0
C301 C 0.2262 0.90111 0.48795 0.0
C302 C 0.24156 -0.04712 0.39836 0.0
C303 C 0.26334 -0.02431 0.36307 0.0
C304 C 0.24126 0.25685 0.44565 0.0
C305 C 0.26307 0.25607 0.48291 0.0
C306 C 0.22671 0.27148 0.39307 0.0
C307 C 0.22587 0.29343 0.35879 0.0
C308 C -0.07483 0.27292 0.45263 0.0
C309 C -0.0523 0.29487 0.48923 0.0
C310 C 0.89599 0.25817 0.40007 0.0
C311 C 0.87316 0.25716 0.36489 0.0
C312 C 0.57536 0.92524 0.40249 0.0
C313 C 0.55361 0.90237 0.36716 0.0
C314 C 0.58996 -0.04558 0.45483 0.0
C315 C 0.59101 -0.02282 0.491 0.0
C316 C 0.59042 0.60555 0.39938 0.0
C317 C 0.59119 0.58365 0.36367 0.0
C318 C 0.57596 0.62017 0.45271 0.0
C319 C 0.55421 0.62106 0.48969 0.0
C320 C 0.89222 0.60483 0.45453 0.0
C321 C 0.86961 0.58302 0.49128 0.0
C322 C -0.07866 0.61945 0.40167 0.0
C323 C -0.05587 0.62049 0.36592 0.0
C324 C 0.58941 -0.04675 0.90233 0.0
C325 C 0.59042 -0.02396 0.86672 0.0
C326 C 0.57485 0.92412 0.95506 0.0
C327 C 0.55311 0.90139 0.99139 0.0
C328 C 0.59126 0.60458 0.95188 0.0
C329 C 0.59194 0.58268 0.98838 0.0
C330 C 0.5768 0.61933 0.89962 0.0
C331 C 0.55501 0.62043 0.8647 0.0
C332 C 0.89335 0.6063 0.90182 0.0
C333 C 0.87076 0.58427 0.8663 0.0
C334 C -0.07751 0.62103 0.95472 0.0
C335 C -0.05483 0.62187 0.99103 0.0
C336 C 0.22822 0.92536 0.89853 0.0
C337 C 0.22709 0.90247 0.86359 0.0
C338 C 0.2428 -0.04545 0.95077 0.0
C339 C 0.2645 -0.02269 0.98731 0.0
C340 C 0.22584 0.27374 0.94587 0.0
C341 C 0.2253 0.29561 0.98368 0.0
C342 C 0.24011 0.25892 0.89272 0.0
C343 C 0.26183 0.25771 0.85785 0.0
C344 C 0.89406 0.25723 0.95279 0.0
C345 C 0.87142 0.25631 0.98992 0.0
C346 C -0.07686 0.27193 0.89958 0.0
C347 C -0.0542 0.29388 0.86419 0.0
C348 C 0.4402 0.0273 0.40426 0.0
C349 C 0.4192 0.03036 0.37428 0.0
C350 C 0.46638 0.02764 0.44838 0.0
C351 C 0.49056 0.03121 0.47996 0.0
C352 C 0.35265 0.46954 0.41046 0.0
C353 C 0.32847 0.44879 0.37999 0.0
C354 C 0.37864 0.49559 0.4543 0.0
C355 C 0.39936 0.51977 0.48494 0.0
C356 C 0.82163 0.40854 0.45158 0.0
C357 C 0.81778 0.42897 0.48308 0.0
C358 C 0.82212 0.38281 0.40735 0.0
C359 C 0.81904 0.35876 0.37702 0.0
C360 C 0.35118 0.85024 0.45209 0.0
C361 C 0.32706 0.84689 0.48275 0.0
C362 C 0.37725 0.85035 0.40828 0.0
C363 C 0.39815 0.84719 0.37786 0.0
C364 C 0.46399 0.40762 0.40339 0.0
C365 C 0.4882 0.42837 0.37359 0.0
C366 C 0.43804 0.38158 0.44729 0.0
C367 C 0.41744 0.35742 0.47871 0.0
C368 C -0.00386 0.46972 0.44803 0.0
C369 C -0.00015 0.44922 0.47996 0.0
C370 C -0.00427 0.49549 0.40347 0.0
C371 C -0.00121 0.51953 0.37298 0.0
C372 C 0.37724 0.85009 0.95237 0.0
C373 C 0.39802 0.84675 0.98342 0.0
C374 C 0.35131 0.85024 0.9081 0.0
C375 C 0.32726 0.84713 0.87726 0.0
C376 C 0.46523 0.40839 0.94757 0.0
C377 C 0.48954 0.42875 0.97928 0.0
C378 C 0.4389 0.38274 0.90329 0.0
C379 C 0.41783 0.35875 0.87312 0.0
C380 C -0.00532 0.46997 0.90386 0.0
C381 C -0.00185 0.44921 0.87425 0.0
C382 C -0.00525 0.49602 0.94748 0.0
C383 C -0.00172 0.52019 0.97856 0.0
C384 C 0.46541 0.02786 0.90442 0.0
C385 C 0.48945 0.03088 0.87445 0.0
C386 C 0.43959 0.0282 0.94844 0.0
C387 C 0.41895 0.03172 0.97996 0.0
C388 C 0.37827 0.49596 0.91028 0.0
C389 C 0.39927 0.51992 0.87939 0.0
C390 C 0.35202 0.47025 0.95457 0.0
C391 C 0.32773 0.44978 0.98562 0.0
C392 C 0.82254 0.40824 0.90748 0.0
C393 C 0.81907 0.42898 0.87743 0.0
C394 C 0.82237 0.38215 0.95145 0.0
C395 C 0.81871 0.35794 0.98267 0.0
loop_
_geom_bond_atom_site_label_1
_geom_bond_atom_site_label_2
_geom_bond_distance
_geom_bond_site_symmetry_2
_ccdc_geom_bond_type
Zn0 O6 1.920 . S
Zn0 O12 1.898 . S
Zn0 O15 1.905 . S
Zn1 O9 1.905 . S
Zn1 O10 1.898 . S
Zn1 O18 1.920 . S
Zn2 O5 2.080 1_554 S
Zn2 O8 2.114 . S
Zn2 O11 2.120 . S
Zn2 O13 2.120 1_554 S
Zn2 O14 2.114 1_554 S
Zn2 O17 2.080 . S
C3 O8 1.166 . S
C3 O9 1.182 . S
C4 O10 1.167 . S
C4 O11 1.299 . S
O5 Zn2 2.080 1_556 S
O5 C19 1.305 . S
O6 Zn0 1.920 . S
O6 C19 1.234 . S
C7 O12 1.167 . S
C7 O13 1.299 . S
O8 Zn2 2.114 . S
O8 C3 1.166 . S
O9 Zn1 1.905 . S
O9 C3 1.182 . S
O10 Zn1 1.898 . S
O10 C4 1.167 . S
O11 Zn2 2.120 . S
O11 C4 1.299 . S
O12 Zn0 1.898 . S
O12 C7 1.167 . S
O13 Zn2 2.120 1_556 S
O13 C7 1.299 . S
O14 Zn2 2.114 1_556 S
O14 C16 1.166 . S
O15 Zn0 1.905 . S
O15 C16 1.182 . S
C16 O14 1.166 . S
C16 O15 1.182 . S
O17 Zn2 2.080 . S
O17 C20 1.305 . S
O18 Zn1 1.920 . S
O18 C20 1.234 . S
C19 O5 1.305 . S
C19 O6 1.234 . S
C20 O17 1.305 . S
C20 O18 1.234 . S
Zn21 O27 1.920 . S
Zn21 O33 1.898 . S
Zn21 O36 1.905 . S
Zn22 O30 1.905 . S
Zn22 O31 1.898 . S
Zn22 O39 1.920 . S
Zn23 O26 2.080 . S
Zn23 O29 2.114 1_554 S
Zn23 O32 2.120 1_554 S
Zn23 O34 2.120 . S
Zn23 O35 2.114 . S
Zn23 O38 2.080 1_554 S
C24 O29 1.166 . S
C24 O30 1.182 . S
C25 O31 1.167 . S
C25 O32 1.299 . S
O26 Zn23 2.080 . S
O26 C40 1.305 . S
O27 Zn21 1.920 . S
O27 C40 1.234 . S
C28 O33 1.167 . S
C28 O34 1.299 . S
O29 Zn23 2.114 1_556 S
O29 C24 1.166 . S
O30 Zn22 1.905 . S
O30 C24 1.182 . S
O31 Zn22 1.898 . S
O31 C25 1.167 . S
O32 Zn23 2.120 1_556 S
O32 C25 1.299 . S
O33 Zn21 1.898 . S
O33 C28 1.167 . S
O34 Zn23 2.120 . S
O34 C28 1.299 . S
O35 Zn23 2.114 . S
O35 C37 1.166 . S
O36 Zn21 1.905 . S
O36 C37 1.182 . S
C37 O35 1.166 . S
C37 O36 1.182 . S
O38 Zn23 2.080 1_556 S
O38 C41 1.305 . S
O39 Zn22 1.920 . S
O39 C41 1.234 . S
C40 O26 1.305 . S
C40 O27 1.234 . S
C41 O38 1.305 . S
C41 O39 1.234 . S
Zn42 O48 1.920 . S
Zn42 O54 1.898 . S
Zn42 O57 1.905 . S
Zn43 O51 1.905 . S
Zn43 O52 1.898 . S
Zn43 O60 1.920 . S
Zn44 O47 2.080 1_554 S
Zn44 O50 2.114 . S
Zn44 O53 2.120 . S
Zn44 O55 2.120 1_554 S
Zn44 O56 2.114 1_554 S
Zn44 O59 2.080 . S
C45 O50 1.166 . S
C45 O51 1.182 . S
C46 O52 1.167 . S
C46 O53 1.299 . S
O47 Zn44 2.080 1_556 S
O47 C61 1.305 . S
O48 Zn42 1.920 . S
O48 C61 1.234 . S
C49 O54 1.167 . S
C49 O55 1.299 . S
O50 Zn44 2.114 . S
O50 C45 1.166 . S
O51 Zn43 1.905 . S
O51 C45 1.182 . S
O52 Zn43 1.898 . S
O52 C46 1.167 . S
O53 Zn44 2.120 . S
O53 C46 1.299 . S
O54 Zn42 1.898 . S
O54 C49 1.167 . S
O55 Zn44 2.120 1_556 S
O55 C49 1.299 . S
O56 Zn44 2.114 1_556 S
O56 C58 1.166 . S
O57 Zn42 1.905 . S
O57 C58 1.182 . S
C58 O56 1.166 . S
C58 O57 1.182 . S
O59 Zn44 2.080 . S
O59 C62 1.305 . S
O60 Zn43 1.920 . S
O60 C62 1.234 . S
C61 O47 1.305 . S
C61 O48 1.234 . S
C62 O59 1.305 . S
C62 O60 1.234 . S
Zn63 O69 1.920 . S
Zn63 O75 1.898 . S
Zn63 O78 1.905 . S
Zn64 O72 1.905 . S
Zn64 O73 1.898 . S
Zn64 O81 1.920 . S
Zn65 O68 2.080 . S
Zn65 O71 2.114 1_554 S
Zn65 O74 2.120 1_554 S
Zn65 O76 2.120 . S
Zn65 O77 2.114 . S
Zn65 O80 2.080 1_554 S
C66 O71 1.166 . S
C66 O72 1.182 . S
C67 O73 1.167 . S
C67 O74 1.299 . S
O68 Zn65 2.080 . S
O68 C82 1.305 . S
O69 Zn63 1.920 . S
O69 C82 1.234 . S
C70 O75 1.167 . S
C70 O76 1.299 . S
O71 Zn65 2.114 1_556 S
O71 C66 1.166 . S
O72 Zn64 1.905 . S
O72 C66 1.182 . S
O73 Zn64 1.898 . S
O73 C67 1.167 . S
O74 Zn65 2.120 1_556 S
O74 C67 1.299 . S
O75 Zn63 1.898 . S
O75 C70 1.167 . S
O76 Zn65 2.120 . S
O76 C70 1.299 . S
O77 Zn65 2.114 . S
O77 C79 1.166 . S
O78 Zn63 1.905 . S
O78 C79 1.182 . S
C79 O77 1.166 . S
C79 O78 1.182 . S
O80 Zn65 2.080 1_556 S
O80 C83 1.305 . S
O81 Zn64 1.920 . S
O81 C83 1.234 . S
C82 O68 1.305 . S
C82 O69 1.234 . S
C83 O80 1.305 . S
C83 O81 1.234 . S
Zn84 O90 1.920 . S
Zn84 O96 1.898 . S
Zn84 O99 1.905 . S
Zn85 O93 1.905 . S
Zn85 O94 1.898 . S
Zn85 O102 1.920 . S
Zn86 O89 2.080 1_554 S
Zn86 O92 2.114 . S
Zn86 O95 2.120 . S
Zn86 O97 2.120 1_554 S
Zn86 O98 2.114 1_554 S
Zn86 O101 2.080 . S
C87 O92 1.166 . S
C87 O93 1.182 . S
C88 O94 1.167 . S
C88 O95 1.299 . S
O89 Zn86 2.080 1_556 S
O89 C103 1.305 . S
O90 Zn84 1.920 . S
O90 C103 1.234 . S
C91 O96 1.167 . S
C91 O97 1.299 . S
O92 Zn86 2.114 . S
O92 C87 1.166 . S
O93 Zn85 1.905 . S
O93 C87 1.182 . S
O94 Zn85 1.898 . S
O94 C88 1.167 . S
O95 Zn86 2.120 . S
O95 C88 1.299 . S
O96 Zn84 1.898 . S
O96 C91 1.167 . S
O97 Zn86 2.120 1_556 S
O97 C91 1.299 . S
O98 Zn86 2.114 1_556 S
O98 C100 1.166 . S
O99 Zn84 1.905 . S
O99 C100 1.182 . S
C100 O98 1.166 . S
C100 O99 1.182 . S
O101 Zn86 2.080 . S
O101 C104 1.305 . S
O102 Zn85 1.920 . S
O102 C104 1.234 . S
C103 O89 1.305 . S
C103 O90 1.234 . S
C104 O101 1.305 . S
C104 O102 1.234 . S
Zn105 O111 1.920 . S
Zn105 O117 1.898 . S
Zn105 O120 1.905 . S
Zn106 O114 1.905 . S
Zn106 O115 1.898 . S
Zn106 O123 1.920 . S
Zn107 O110 2.080 . S
Zn107 O113 2.114 1_554 S
Zn107 O116 2.120 1_554 S
Zn107 O118 2.120 . S
Zn107 O119 2.114 . S
Zn107 O122 2.080 1_554 S
C108 O113 1.166 . S
C108 O114 1.182 . S
C109 O115 1.167 . S
C109 O116 1.299 . S
O110 Zn107 2.080 . S
O110 C124 1.305 . S
O111 Zn105 1.920 . S
O111 C124 1.234 . S
C112 O117 1.167 . S
C112 O118 1.299 . S
O113 Zn107 2.114 1_556 S
O113 C108 1.166 . S
O114 Zn106 1.905 . S
O114 C108 1.182 . S
O115 Zn106 1.898 . S
O115 C109 1.167 . S
O116 Zn107 2.120 1_556 S
O116 C109 1.299 . S
O117 Zn105 1.898 . S
O117 C112 1.167 . S
O118 Zn107 2.120 . S
O118 C112 1.299 . S
O119 Zn107 2.114 . S
O119 C121 1.166 . S
O120 Zn105 1.905 . S
O120 C121 1.182 . S
C121 O119 1.166 . S
C121 O120 1.182 . S
O122 Zn107 2.080 1_556 S
O122 C125 1.305 . S
O123 Zn106 1.920 . S
O123 C125 1.234 . S
C124 O110 1.305 . S
C124 O111 1.234 . S
C125 O122 1.305 . S
C125 O123 1.234 . S
Zn126 O132 1.920 . S
Zn126 O138 1.898 . S
Zn126 O141 1.905 . S
Zn127 O135 1.905 . S
Zn127 O136 1.898 . S
Zn127 O144 1.920 . S
Zn128 O131 2.080 . S
Zn128 O134 2.114 . S
Zn128 O137 2.120 . S
Zn128 O139 2.120 . S
Zn128 O140 2.114 . S
Zn128 O143 2.080 . S
C129 O134 1.166 . S
C129 O135 1.182 . S
C130 O136 1.167 . S
C130 O137 1.299 . S
O131 Zn128 2.080 . S
O131 C145 1.305 . S
O132 Zn126 1.920 . S
O132 C145 1.234 . S
C133 O138 1.167 . S
C133 O139 1.299 . S
O134 Zn128 2.114 . S
O134 C129 1.166 . S
O135 Zn127 1.905 . S
O135 C129 1.182 . S
O136 Zn127 1.898 . S
O136 C130 1.167 . S
O137 Zn128 2.120 . S
O137 C130 1.299 . S
O138 Zn126 1.898 . S
O138 C133 1.167 . S
O139 Zn128 2.120 . S
O139 C133 1.299 . S
O140 Zn128 2.114 . S
O140 C142 1.166 . S
O141 Zn126 1.905 . S
O141 C142 1.182 . S
C142 O140 1.166 . S
C142 O141 1.182 . S
O143 Zn128 2.080 . S
O143 C146 1.305 . S
O144 Zn127 1.920 . S
O144 C146 1.234 . S
C145 O131 1.305 . S
C145 O132 1.234 . S
C146 O143 1.305 . S
C146 O144 1.234 . S
Zn147 O153 1.920 . S
Zn147 O159 1.898 . S
Zn147 O162 1.905 . S
Zn148 O156 1.905 . S
Zn148 O157 1.898 . S
Zn148 O165 1.920 . S
Zn149 O152 2.080 . S
Zn149 O155 2.114 . S
Zn149 O158 2.120 . S
Zn149 O160 2.120 . S
Zn149 O161 2.114 . S
Zn149 O164 2.080 . S
C150 O155 1.166 . S
C150 O156 1.182 . S
C151 O157 1.167 . S
C151 O158 1.299 . S
O152 Zn149 2.080 . S
O152 C166 1.305 . S
O153 Zn147 1.920 . S
O153 C166 1.234 . S
C154 O159 1.167 . S
C154 O160 1.299 . S
O155 Zn149 2.114 . S
O155 C150 1.166 . S
O156 Zn148 1.905 . S
O156 C150 1.182 . S
O157 Zn148 1.898 . S
O157 C151 1.167 . S
O158 Zn149 2.120 . S
O158 C151 1.299 . S
O159 Zn147 1.898 . S
O159 C154 1.167 . S
O160 Zn149 2.120 . S
O160 C154 1.299 . S
O161 Zn149 2.114 . S
O161 C163 1.166 . S
O162 Zn147 1.905 . S
O162 C163 1.182 . S
C163 O161 1.166 . S
C163 O162 1.182 . S
O164 Zn149 2.080 . S
O164 C167 1.305 . S
O165 Zn148 1.920 . S
O165 C167 1.234 . S
C166 O152 1.305 . S
C166 O153 1.234 . S
C167 O164 1.305 . S
C167 O165 1.234 . S
Zn168 O174 1.920 . S
Zn168 O180 1.898 . S
Zn168 O183 1.905 . S
Zn169 O177 1.905 . S
Zn169 O178 1.898 . S
Zn169 O186 1.920 . S
Zn170 O173 2.080 . S
Zn170 O176 2.114 . S
Zn170 O179 2.120 . S
Zn170 O181 2.120 . S
Zn170 O182 2.114 . S
Zn170 O185 2.080 . S
C171 O176 1.166 . S
C171 O177 1.182 . S
C172 O178 1.167 . S
C172 O179 1.299 . S
O173 Zn170 2.080 . S
O173 C187 1.305 . S
O174 Zn168 1.920 . S
O174 C187 1.234 . S
C175 O180 1.167 . S
C175 O181 1.299 . S
O176 Zn170 2.114 . S
O176 C171 1.166 . S
O177 Zn169 1.905 . S
O177 C171 1.182 . S
O178 Zn169 1.898 . S
O178 C172 1.167 . S
O179 Zn170 2.120 . S
O179 C172 1.299 . S
O180 Zn168 1.898 . S
O180 C175 1.167 . S
O181 Zn170 2.120 . S
O181 C175 1.299 . S
O182 Zn170 2.114 . S
O182 C184 1.166 . S
O183 Zn168 1.905 . S
O183 C184 1.182 . S
C184 O182 1.166 . S
C184 O183 1.182 . S
O185 Zn170 2.080 . S
O185 C188 1.305 . S
O186 Zn169 1.920 . S
O186 C188 1.234 . S
C187 O173 1.305 . S
C187 O174 1.234 . S
C188 O185 1.305 . S
C188 O186 1.234 . S
Zn189 O195 1.920 . S
Zn189 O201 1.898 . S
Zn189 O204 1.905 . S
Zn190 O198 1.905 . S
Zn190 O199 1.898 . S
Zn190 O207 1.920 . S
Zn191 O194 2.080 . S
Zn191 O197 2.114 . S
Zn191 O200 2.120 . S
Zn191 O202 2.120 . S
Zn191 O203 2.114 . S
Zn191 O206 2.080 . S
C192 O197 1.166 . S
C192 O198 1.182 . S
C193 O199 1.167 . S
C193 O200 1.299 . S
O194 Zn191 2.080 . S
O194 C208 1.305 . S
O195 Zn189 1.920 . S
O195 C208 1.234 . S
C196 O201 1.167 . S
C196 O202 1.299 . S
O197 Zn191 2.114 . S
O197 C192 1.166 . S
O198 Zn190 1.905 . S
O198 C192 1.182 . S
O199 Zn190 1.898 . S
O199 C193 1.167 . S
O200 Zn191 2.120 . S
O200 C193 1.299 . S
O201 Zn189 1.898 . S
O201 C196 1.167 . S
O202 Zn191 2.120 . S
O202 C196 1.299 . S
O203 Zn191 2.114 . S
O203 C205 1.166 . S
O204 Zn189 1.905 . S
O204 C205 1.182 . S
C205 O203 1.166 . S
C205 O204 1.182 . S
O206 Zn191 2.080 . S
O206 C209 1.305 . S
O207 Zn190 1.920 . S
O207 C209 1.234 . S
C208 O194 1.305 . S
C208 O195 1.234 . S
C209 O206 1.305 . S
C209 O207 1.234 . S
Zn210 O216 1.920 . S
Zn210 O222 1.898 . S
Zn210 O225 1.905 . S
Zn211 O219 1.905 . S
Zn211 O220 1.898 . S
Zn211 O228 1.920 . S
Zn212 O215 2.080 . S
Zn212 O218 2.114 . S
Zn212 O221 2.120 . S
Zn212 O223 2.120 . S
Zn212 O224 2.114 . S
Zn212 O227 2.080 . S
C213 O218 1.166 . S
C213 O219 1.182 . S
C214 O220 1.167 . S
C214 O221 1.299 . S
O215 Zn212 2.080 . S
O215 C229 1.305 . S
O216 Zn210 1.920 . S
O216 C229 1.234 . S
C217 O222 1.167 . S
C217 O223 1.299 . S
O218 Zn212 2.114 . S
O218 C213 1.166 . S
O219 Zn211 1.905 . S
O219 C213 1.182 . S
O220 Zn211 1.898 . S
O220 C214 1.167 . S
O221 Zn212 2.120 . S
O221 C214 1.299 . S
O222 Zn210 1.898 . S
O222 C217 1.167 . S
O223 Zn212 2.120 . S
O223 C217 1.299 . S
O224 Zn212 2.114 . S
O224 C226 1.166 . S
O225 Zn210 1.905 . S
O225 C226 1.182 . S
C226 O224 1.166 . S
C226 O225 1.182 . S
O227 Zn212 2.080 . S
O227 C230 1.305 . S
O228 Zn211 1.920 . S
O228 C230 1.234 . S
C229 O215 1.305 . S
C229 O216 1.234 . S
C230 O227 1.305 . S
C230 O228 1.234 . S
Zn231 O237 1.920 . S
Zn231 O243 1.898 . S
Zn231 O246 1.905 . S
Zn232 O240 1.905 . S
Zn232 O241 1.898 . S
Zn232 O249 1.920 . S
Zn233 O236 2.080 . S
Zn233 O239 2.114 . S
Zn233 O242 2.120 . S
Zn233 O244 2.120 . S
Zn233 O245 2.114 . S
Zn233 O248 2.080 . S
C234 O239 1.166 . S
C234 O240 1.182 . S
C235 O241 1.167 . S
C235 O242 1.299 . S
O236 Zn233 2.080 . S
O236 C250 1.305 . S
O237 Zn231 1.920 . S
O237 C250 1.234 . S
C238 O243 1.167 . S
C238 O244 1.299 . S
O239 Zn233 2.114 . S
O239 C234 1.166 . S
O240 Zn232 1.905 . S
O240 C234 1.182 . S
O241 Zn232 1.898 . S
O241 C235 1.167 . S
O242 Zn233 2.120 . S
O242 C235 1.299 . S
O243 Zn231 1.898 . S
O243 C238 1.167 . S
O244 Zn233 2.120 . S
O244 C238 1.299 . S
O245 Zn233 2.114 . S
O245 C247 1.166 . S
O246 Zn231 1.905 . S
O246 C247 1.182 . S
C247 O245 1.166 . S
C247 O246 1.182 . S
O248 Zn233 2.080 . S
O248 C251 1.305 . S
O249 Zn232 1.920 . S
O249 C251 1.234 . S
C250 O236 1.305 . S
C250 O237 1.234 . S
C251 O248 1.305 . S
C251 O249 1.234 . S
C252 C253 1.170 . S
C252 C254 1.380 . S
C253 C252 1.170 . S
C254 C252 1.380 . S
C254 C255 1.170 . S
C255 C254 1.170 . S
C256 C257 1.170 . S
C256 C258 1.380 . S
C257 C256 1.170 . S
C258 C256 1.380 . S
C258 C259 1.170 . S
C259 C258 1.170 . S
C260 C261 1.170 . S
C260 C262 1.380 . S
C261 C260 1.170 . S
C262 C260 1.380 . S
C262 C263 1.170 . S
C263 C262 1.170 . S
C264 C265 1.170 . S
C264 C266 1.380 . S
C265 C264 1.170 . S
C266 C264 1.380 . S
C266 C267 1.170 . S
C267 C266 1.170 . S
C268 C269 1.170 . S
C268 C270 1.380 . S
C269 C268 1.170 . S
C270 C268 1.380 . S
C270 C271 1.170 . S
C271 C270 1.170 . S
C272 C273 1.170 . S
C272 C274 1.380 . S
C273 C272 1.170 . S
C274 C272 1.380 . S
C274 C275 1.170 . S
C275 C274 1.170 . S
C276 C277 1.170 . S
C276 C278 1.380 . S
C277 C276 1.170 . S
C278 C276 1.380 . S
C278 C279 1.170 . S
C279 C278 1.170 . S
C280 C281 1.170 . S
C280 C282 1.380 . S
C281 C280 1.170 . S
C282 C280 1.380 . S
C282 C283 1.170 . S
C283 C282 1.170 . S
C284 C285 1.170 . S
C284 C286 1.380 . S
C285 C284 1.170 . S
C286 C284 1.380 . S
C286 C287 1.170 . S
C287 C286 1.170 . S
C288 C289 1.170 . S
C288 C290 1.380 . S
C289 C288 1.170 . S
C290 C288 1.380 . S
C290 C291 1.170 . S
C291 C290 1.170 . S
C292 C293 1.170 . S
C292 C294 1.380 . S
C293 C292 1.170 . S
C294 C292 1.380 . S
C294 C295 1.170 . S
C295 C294 1.170 . S
C296 C297 1.170 . S
C296 C298 1.380 . S
C297 C296 1.170 . S
C298 C296 1.380 . S
C298 C299 1.170 . S
C299 C298 1.170 . S
C300 C301 1.170 . S
C300 C302 1.380 1_565 S
C301 C300 1.170 . S
C302 C300 1.380 1_545 S
C302 C303 1.170 . S
C303 C302 1.170 . S
C304 C305 1.170 . S
C304 C306 1.380 . S
C305 C304 1.170 . S
C306 C304 1.380 . S
C306 C307 1.170 . S
C307 C306 1.170 . S
C308 C309 1.170 . S
C308 C310 1.380 1_455 S
C309 C308 1.170 . S
C310 C308 1.380 1_655 S
C310 C311 1.170 . S
C311 C310 1.170 . S
C312 C313 1.170 . S
C312 C314 1.380 1_565 S
C313 C312 1.170 . S
C314 C312 1.380 1_545 S
C314 C315 1.170 . S
C315 C314 1.170 . S
C316 C317 1.170 . S
C316 C318 1.380 . S
C317 C316 1.170 . S
C318 C316 1.380 . S
C318 C319 1.170 . S
C319 C318 1.170 . S
C320 C321 1.170 . S
C320 C322 1.380 1_655 S
C321 C320 1.170 . S
C322 C320 1.380 1_455 S
C322 C323 1.170 . S
C323 C322 1.170 . S
C324 C325 1.170 . S
C324 C326 1.380 1_545 S
C325 C324 1.170 . S
C326 C324 1.380 1_565 S
C326 C327 1.170 . S
C327 C326 1.170 . S
C328 C329 1.170 . S
C328 C330 1.380 . S
C329 C328 1.170 . S
C330 C328 1.380 . S
C330 C331 1.170 . S
C331 C330 1.170 . S
C332 C333 1.170 . S
C332 C334 1.380 1_655 S
C333 C332 1.170 . S
C334 C332 1.380 1_455 S
C334 C335 1.170 . S
C335 C334 1.170 . S
C336 C337 1.170 . S
C336 C338 1.380 1_565 S
C337 C336 1.170 . S
C338 C336 1.380 1_545 S
C338 C339 1.170 . S
C339 C338 1.170 . S
C340 C341 1.170 . S
C340 C342 1.380 . S
C341 C340 1.170 . S
C342 C340 1.380 . S
C342 C343 1.170 . S
C343 C342 1.170 . S
C344 C345 1.170 . S
C344 C346 1.380 1_655 S
C345 C344 1.170 . S
C346 C344 1.380 1_455 S
C346 C347 1.170 . S
C347 C346 1.170 . S
C348 C349 1.170 . S
C348 C350 1.380 . S
C349 C348 1.170 . S
C350 C348 1.380 . S
C350 C351 1.170 . S
C351 C350 1.170 . S
C352 C353 1.170 . S
C352 C354 1.380 . S
C353 C352 1.170 . S
C354 C352 1.380 . S
C354 C355 1.170 . S
C355 C354 1.170 . S
C356 C357 1.170 . S
C356 C358 1.380 . S
C357 C356 1.170 . S
C358 C356 1.380 . S
C358 C359 1.170 . S
C359 C358 1.170 . S
C360 C361 1.170 . S
C360 C362 1.380 . S
C361 C360 1.170 . S
C362 C360 1.380 . S
C362 C363 1.170 . S
C363 C362 1.170 . S
C364 C365 1.170 . S
C364 C366 1.380 . S
C365 C364 1.170 . S
C366 C364 1.380 . S
C366 C367 1.170 . S
C367 C366 1.170 . S
C368 C369 1.170 . S
C368 C370 1.380 . S
C369 C368 1.170 . S
C370 C368 1.380 . S
C370 C371 1.170 . S
C371 C370 1.170 . S
C372 C373 1.170 . S
C372 C374 1.380 . S
C373 C372 1.170 . S
C374 C372 1.380 . S
C374 C375 1.170 . S
C375 C374 1.170 . S
C376 C377 1.170 . S
C376 C378 1.380 . S
C377 C376 1.170 . S
C378 C376 1.380 . S
C378 C379 1.170 . S
C379 C378 1.170 . S
C380 C381 1.170 . S
C380 C382 1.380 . S
C381 C380 1.170 . S
C382 C380 1.380 . S
C382 C383 1.170 . S
C383 C382 1.170 . S
C384 C385 1.170 . S
C384 C386 1.380 . S
C385 C384 1.170 . S
C386 C384 1.380 . S
C386 C387 1.170 . S
C387 C386 1.170 . S
C388 C389 1.170 . S
C388 C390 1.380 . S
C389 C388 1.170 . S
C390 C388 1.380 . S
C390 C391 1.170 . S
C391 C390 1.170 . S
C392 C393 1.170 . S
C392 C394 1.380 . S
C393 C392 1.170 . S
C394 C392 1.380 . S
C394 C395 1.170 . S
C395 C394 1.170 . S
C253 C20 1.082 . S
C255 C187 1.040 . S
C257 C209 1.083 . S
C259 C40 1.040 . S
C261 C62 1.045 . S
C263 C229 1.079 . S
C265 C251 1.008 . S
C267 C82 1.058 . S
C269 C104 1.004 . S
C271 C145 1.087 . S
C273 C167 1.023 . S
C275 C124 1.037 . S
C277 C250 1.268 . S
C279 C83 1.259 . S
C281 C103 1.272 . S
C283 C146 1.224 . S
C285 C166 1.273 . S
C287 C125 1.249 . S
C289 C188 1.220 . S
C291 C19 1.271 . S
C293 C208 1.214 . S
C295 C41 1.267 . S
C297 C61 1.273 . S
C299 C230 1.250 . S
C301 C151 1.374 . S
C303 C4 1.349 . S
C305 C175 1.325 . S
C307 C28 1.364 . S
C309 C193 1.373 . S
C311 C46 1.344 . S
C313 C70 1.304 . S
C315 C217 1.318 . S
C317 C88 1.304 . S
C319 C235 1.319 . S
C321 C133 1.314 . S
C323 C112 1.353 . S
C325 C213 1.071 . S
C327 C66 1.021 . S
C329 C100 1.031 . S
C331 C247 1.063 . S
C333 C129 0.996 . S
C335 C108 1.077 . S
C337 C163 1.074 . S
C339 C16 1.017 . S
C341 C24 1.005 . S
C343 C171 1.082 . S
C345 C58 1.085 . S
C347 C205 0.999 . S
C349 C3 1.321 . S
C351 C226 1.372 . S
C353 C37 1.382 . S
C355 C234 1.343 . S
C357 C142 1.322 . S
C359 C45 1.370 . S
C361 C150 1.323 . S
C363 C79 1.383 . S
C365 C87 1.372 . S
C367 C184 1.358 . S
C369 C192 1.329 . S
C371 C121 1.385 . S
C373 C67 1.462 . S
C375 C154 1.431 . S
C377 C91 1.476 . S
C379 C172 1.488 . S
C381 C196 1.483 . S
C383 C109 1.441 . S
C385 C214 1.442 . S
C387 C7 1.438 . S
C389 C238 1.458 . S
C391 C25 1.491 . S
C393 C130 1.445 . S
C395 C49 1.436 . S
