# Generated by pormake.
# Topology wkw, (8)-cn, num edge types: 1
# Building blocks:
#     Node 0, Type 0, BuildingBlock: TAGTUT_clean_sbu_1, # of connection points: 8
#     Node 1, Type 0, BuildingBlock: TAGTUT_clean_sbu_1, # of connection points: 8
#     Node 2, Type 0, BuildingBlock: TAGTUT_clean_sbu_1, # of connection points: 8
#     Node 3, Type 0, BuildingBlock: TAGTUT_clean_sbu_1, # of connection points: 8
#     Node 4, Type 0, BuildingBlock: TAGTUT_clean_sbu_1, # of connection points: 8
#     Node 5, Type 0, BuildingBlock: TAGTUT_clean_sbu_1, # of connection points: 8
#     Edge 6, Type (0, 0), BuildingBlock: UVAHIK_clean_linker_0, # of connection points: 2
#     Edge 7, Type (0, 0), BuildingBlock: UVAHIK_clean_linker_0, # of connection points: 2
#     Edge 8, Type (0, 0), BuildingBlock: UVAHIK_clean_linker_0, # of connection points: 2
#     Edge 9, Type (0, 0), BuildingBlock: UVAHIK_clean_linker_0, # of connection points: 2
#     Edge 10, Type (0, 0), BuildingBlock: UVAHIK_clean_linker_0, # of connection points: 2
#     Edge 11, Type (0, 0), BuildingBlock: UVAHIK_clean_linker_0, # of connection points: 2
#     Edge 12, Type (0, 0), BuildingBlock: UVAHIK_clean_linker_0, # of connection points: 2
#     Edge 13, Type (0, 0), BuildingBlock: UVAHIK_clean_linker_0, # of connection points: 2
#     Edge 14, Type (0, 0), BuildingBlock: UVAHIK_clean_linker_0, # of connection points: 2
#     Edge 15, Type (0, 0), BuildingBlock: UVAHIK_clean_linker_0, # of connection points: 2
#     Edge 16, Type (0, 0), BuildingBlock: UVAHIK_clean_linker_0, # of connection points: 2
#     Edge 17, Type (0, 0), BuildingBlock: UVAHIK_clean_linker_0, # of connection points: 2
#     Edge 18, Type (0, 0), BuildingBlock: UVAHIK_clean_linker_0, # of connection points: 2
#     Edge 19, Type (0, 0), BuildingBlock: UVAHIK_clean_linker_0, # of connection points: 2
#     Edge 20, Type (0, 0), BuildingBlock: UVAHIK_clean_linker_0, # of connection points: 2
#     Edge 21, Type (0, 0), BuildingBlock: UVAHIK_clean_linker_0, # of connection points: 2
#     Edge 22, Type (0, 0), BuildingBlock: UVAHIK_clean_linker_0, # of connection points: 2
#     Edge 23, Type (0, 0), BuildingBlock: UVAHIK_clean_linker_0, # of connection points: 2
#     Edge 24, Type (0, 0), BuildingBlock: UVAHIK_clean_linker_0, # of connection points: 2
#     Edge 25, Type (0, 0), BuildingBlock: UVAHIK_clean_linker_0, # of connection points: 2
#     Edge 26, Type (0, 0), BuildingBlock: UVAHIK_clean_linker_0, # of connection points: 2
#     Edge 27, Type (0, 0), BuildingBlock: UVAHIK_clean_linker_0, # of connection points: 2
#     Edge 28, Type (0, 0), BuildingBlock: UVAHIK_clean_linker_0, # of connection points: 2
#     Edge 29, Type (0, 0), BuildingBlock: UVAHIK_clean_linker_0, # of connection points: 2
# Relax obj value: 0.239
# Max RMSD: 0.271
# Mean RMSD: 0.271
data_MOF--net-wkw--node1-TAGTUT_clean_sbu_1--edge1-UVAHIK_clean_linker_0
_symmetry_space_group_name_H-M    P1
_symmetry_Int_Tables_number       1
_symmetry_cell_setting            triclinic
loop_
_symmetry_equiv_pos_as_xyz
'x, y, z'
_cell_length_a     50.181429
_cell_length_b     50.263542
_cell_length_c     23.269096
_cell_angle_alpha  89.939092
_cell_angle_beta   89.977262
_cell_angle_gamma 120.43982
loop_
_atom_site_label
_atom_site_type_symbol
_atom_site_fract_x
_atom_site_fract_y
_atom_site_fract_z
_atom_type_partial_charge
C0 C 0.7884 0.21661 0.84345 0.0
C1 C 0.87074 0.29875 0.79171 0.0
C2 C 0.93105 0.27564 0.96059 0.0
Mg3 Mg 0.82473 0.28265 0.8909 0.0
O4 O 0.84209 0.26351 0.934 0.0
Mg5 Mg 0.86292 0.24514 0.88919 0.0
Mg6 Mg 0.87622 0.29127 0.98543 0.0
O7 O 0.91059 0.32065 0.03635 0.0
Mg8 Mg 0.93391 0.30917 0.08172 0.0
Mg9 Mg 0.89011 0.34103 0.07552 0.0
C10 C 0.82763 0.31526 0.00959 0.0
C11 C 0.89697 0.36073 0.94162 0.0
O12 O 0.81248 0.21359 0.84769 0.0
O13 O 0.78816 0.24084 0.85925 0.0
O14 O 0.87556 0.27804 0.8124 0.0
O15 O 0.85315 0.30646 0.81717 0.0
O16 O 0.81766 0.30883 0.95769 0.0
O17 O 0.84474 0.30558 0.03145 0.0
C18 C 0.85251 0.21953 0.02019 0.0
O19 O 0.86074 0.24641 0.04105 0.0
O20 O 0.85157 0.21461 0.96614 0.0
O21 O 0.9382 0.37601 0.10992 0.0
O22 O 0.96906 0.35562 0.1075 0.0
O23 O 0.88113 0.31207 0.15768 0.0
C24 C 0.96459 0.37822 0.11708 0.0
O25 O 0.90709 0.28686 0.15779 0.0
O26 O 0.94157 0.28444 0.01189 0.0
C27 C 0.88856 0.29387 0.1818 0.0
O28 O 0.90917 0.27914 0.93943 0.0
O29 O 0.89015 0.33342 0.92716 0.0
O30 O 0.89864 0.36873 -0.00582 0.0
C31 C 0.56905 0.77757 0.04687 0.0
C32 C 0.56921 0.85829 0.9863 0.0
C33 C 0.6488 0.91973 0.16226 0.0
Mg34 Mg 0.5361 0.81209 0.08516 0.0
O35 O 0.57135 0.83156 0.13153 0.0
Mg36 Mg 0.61255 0.85232 0.09147 0.0
Mg37 Mg 0.57614 0.86629 0.1787 0.0
O38 O 0.57994 0.90124 0.22512 0.0
Mg39 Mg 0.61336 0.92471 0.27374 0.0
Mg40 Mg 0.53748 0.88194 0.25881 0.0
C41 C 0.50182 0.81858 0.19457 0.0
C42 C 0.5306 0.88728 0.12147 0.0
O43 O 0.59562 0.80255 0.05171 0.0
O44 O 0.54348 0.77593 0.05992 0.0
O45 O 0.59479 0.86439 0.00955 0.0
O46 O 0.54332 0.83998 0.01005 0.0
O47 O 0.50021 0.8067 0.14492 0.0
O48 O 0.5279 0.83579 0.21964 0.0
C49 C 0.62085 0.84184 0.22684 0.0
O50 O 0.60168 0.85048 0.24217 0.0
O51 O 0.62782 0.84104 0.17415 0.0
O52 O 0.55103 0.93098 0.28706 0.0
O53 O 0.6029 0.96073 0.2909 0.0
O54 O 0.55398 0.87376 0.34678 0.0
C55 C 0.57577 0.95714 0.29455 0.0
O56 O 0.60547 0.89866 0.35135 0.0
O57 O 0.64863 0.93102 0.21181 0.0
C58 C 0.57898 0.881 0.37377 0.0
O59 O 0.62383 0.89839 0.13828 0.0
O60 O 0.55134 0.88008 0.11262 0.0
O61 O 0.52205 0.88954 0.17209 0.0
C62 C 0.7647 0.53688 0.23206 0.0
C63 C 0.70124 0.56444 0.16404 0.0
C64 C 0.74523 0.65132 0.33174 0.0
Mg65 Mg 0.70112 0.52708 0.26742 0.0
O66 O 0.72698 0.56278 0.30883 0.0
Mg67 Mg 0.75768 0.59903 0.26364 0.0
Mg68 Mg 0.70847 0.58173 0.35666 0.0
O69 O 0.68957 0.60032 0.40953 0.0
Mg70 Mg 0.72109 0.64023 0.44882 0.0
Mg71 Mg 0.65342 0.55847 0.44909 0.0
C72 C 0.66338 0.50946 0.38508 0.0
C73 C 0.63622 0.54884 0.31307 0.0
O74 O 0.77643 0.56643 0.23255 0.0
O75 O 0.73645 0.518 0.24495 0.0
O76 O 0.72657 0.58617 0.18442 0.0
O77 O 0.68547 0.53891 0.19064 0.0
O78 O 0.66867 0.50202 0.33538 0.0
O79 O 0.6796 0.53702 0.40546 0.0
C80 C 0.78072 0.60943 0.39553 0.0
O81 O 0.75312 0.59936 0.41445 0.0
O82 O 0.78677 0.6112 0.34204 0.0
O83 O 0.67142 0.60909 0.42526 0.0
O84 O 0.68701 0.65594 0.45273 0.0
O85 O 0.68319 0.57354 0.531 0.0
C86 C 0.66429 0.62883 0.44423 0.0
O87 O 0.7243 0.62184 0.53187 0.0
O88 O 0.75567 0.6514 0.38159 0.0
C89 C 0.70688 0.59557 0.55587 0.0
O90 O 0.73483 0.62663 0.30169 0.0
O91 O 0.66494 0.5629 0.29923 0.0
O92 O 0.62723 0.5453 0.36541 0.0
C93 C 0.2285 0.79463 0.34697 0.0
C94 C 0.14713 0.71181 0.29587 0.0
C95 C 0.08822 0.73433 0.46889 0.0
Mg96 Mg 0.19397 0.72803 0.39316 0.0
O97 O 0.1761 0.74578 0.4383 0.0
Mg98 Mg 0.15464 0.76435 0.39554 0.0
Mg99 Mg 0.14204 0.71694 0.48913 0.0
O100 O 0.10772 0.68706 0.53938 0.0
Mg101 Mg 0.08559 0.69907 0.58689 0.0
Mg102 Mg 0.12789 0.66597 0.57676 0.0
C103 C 0.19125 0.69292 0.5091 0.0
C104 C 0.12068 0.64779 0.44207 0.0
O105 O 0.20429 0.79711 0.35397 0.0
O106 O 0.22951 0.77051 0.36063 0.0
O107 O 0.14217 0.73233 0.31712 0.0
O108 O 0.16484 0.70411 0.32086 0.0
O109 O 0.20169 0.70132 0.45781 0.0
O110 O 0.17358 0.70151 0.53278 0.0
C111 C 0.16537 0.78815 0.52754 0.0
O112 O 0.15757 0.76108 0.54703 0.0
O113 O 0.16592 0.79376 0.47383 0.0
O114 O 0.07961 0.63124 0.61129 0.0
O115 O 0.04987 0.65293 0.61188 0.0
O116 O 0.13769 0.6941 0.66038 0.0
C117 C 0.05361 0.62974 0.6197 0.0
O118 O 0.11303 0.72055 0.6622 0.0
O119 O 0.07814 0.72527 0.52032 0.0
C120 C 0.13104 0.71264 0.68542 0.0
O121 O 0.10901 0.72985 0.44559 0.0
O122 O 0.12787 0.67539 0.42864 0.0
O123 O 0.11883 0.6392 0.49432 0.0
C124 C 0.4401 0.23431 0.5501 0.0
C125 C 0.44131 0.15587 0.47654 0.0
C126 C 0.36454 0.09027 0.65568 0.0
Mg127 Mg 0.47518 0.20019 0.57684 0.0
O128 O 0.4407 0.1788 0.62482 0.0
Mg129 Mg 0.39876 0.15829 0.58763 0.0
Mg130 Mg 0.43716 0.14408 0.67056 0.0
O131 O 0.43436 0.10917 0.71575 0.0
Mg132 Mg 0.40147 0.08681 0.76589 0.0
Mg133 Mg 0.47705 0.12916 0.74879 0.0
C134 C 0.51152 0.19203 0.68146 0.0
C135 C 0.4824 0.12339 0.61086 0.0
O136 O 0.41396 0.20893 0.55552 0.0
O137 O 0.46627 0.23623 0.55794 0.0
O138 O 0.41589 0.14872 0.50183 0.0
O139 O 0.46738 0.17402 0.49963 0.0
O140 O 0.51199 0.20446 0.63289 0.0
O141 O 0.48607 0.17496 0.70878 0.0
C142 C 0.39149 0.16648 0.7237 0.0
O143 O 0.41164 0.15881 0.7371 0.0
O144 O 0.38371 0.16731 0.6718 0.0
O145 O 0.46394 0.08048 0.78038 0.0
O146 O 0.41213 0.05126 0.7856 0.0
O147 O 0.46129 0.13842 0.8368 0.0
C148 C 0.43913 0.05457 0.78979 0.0
O149 O 0.40983 0.11421 0.84138 0.0
O150 O 0.36543 0.07947 0.70535 0.0
C151 C 0.43635 0.13184 0.86349 0.0
O152 O 0.38913 0.11166 0.63058 0.0
O153 O 0.46196 0.13117 0.60334 0.0
O154 O 0.4912 0.12064 0.66108 0.0
C155 C 0.23343 0.45092 0.65932 0.0
C156 C 0.30791 0.44033 0.59162 0.0
C157 C 0.2835 0.36126 0.77289 0.0
Mg158 Mg 0.30216 0.47777 0.6897 0.0
O159 O 0.28322 0.4431 0.73769 0.0
Mg160 Mg 0.25788 0.40174 0.70042 0.0
Mg161 Mg 0.31002 0.43519 0.78781 0.0
O162 O 0.3377 0.42778 0.8384 0.0
Mg163 Mg 0.32051 0.39446 0.88948 0.0
Mg164 Mg 0.36247 0.46985 0.87312 0.0
C165 C 0.34362 0.50992 0.79953 0.0
C166 C 0.38025 0.47451 0.73795 0.0
O167 O 0.22805 0.42303 0.66485 0.0
O168 O 0.25996 0.47484 0.66798 0.0
O169 O 0.28662 0.4162 0.61658 0.0
O170 O 0.31927 0.46694 0.61439 0.0
O171 O 0.33538 0.51235 0.74847 0.0
O172 O 0.33132 0.48388 0.82601 0.0
C173 C 0.23868 0.39526 0.83468 0.0
O174 O 0.26703 0.41264 0.85027 0.0
O175 O 0.23093 0.38858 0.78219 0.0
O176 O 0.39188 0.45187 0.91338 0.0
O177 O 0.36394 0.40012 0.92122 0.0
O178 O 0.33313 0.45629 0.95635 0.0
C179 C 0.3893 0.42594 0.92699 0.0
O180 O 0.29991 0.40561 0.95895 0.0
O181 O 0.29188 0.36048 0.8249 0.0
C182 C 0.31122 0.43242 0.98096 0.0
O183 O 0.29052 0.38688 0.74735 0.0
O184 O 0.35151 0.45777 0.72521 0.0
O185 O 0.38963 0.48138 0.78988 0.0
C186 C 0.86041 0.29434 0.27025 0.0
C187 C 0.88056 0.2864 0.2434 0.0
C188 C 0.85894 0.29526 0.33012 0.0
C189 C 0.88126 0.27302 0.46607 0.0
H190 H 0.88415 0.34665 0.52499 0.0
C191 C 0.90179 0.30208 0.70525 0.0
C192 C 0.8807 0.30883 0.73172 0.0
C193 C 0.90461 0.30279 0.64549 0.0
C194 C 0.88317 0.3259 0.50928 0.0
H195 H 0.91303 0.2707 0.25882 0.0
H196 H 0.91038 0.27223 0.36317 0.0
H197 H 0.87981 0.33695 0.42175 0.0
H198 H 0.84841 0.32473 0.71636 0.0
H199 H 0.85331 0.32595 0.61204 0.0
H200 H 0.88453 0.2619 0.55351 0.0
C201 C 0.89576 0.27783 0.33791 0.0
C202 C 0.88051 0.32021 0.45011 0.0
C203 C 0.89721 0.27686 0.27793 0.0
C204 C 0.86484 0.31936 0.6974 0.0
C205 C 0.86759 0.31996 0.63746 0.0
C206 C 0.88393 0.2787 0.52519 0.0
C207 C 0.87753 0.28822 0.36464 0.0
C208 C 0.87945 0.29366 0.42778 0.0
C209 C 0.8864 0.31026 0.61079 0.0
C210 C 0.88495 0.30522 0.54755 0.0
H211 H 0.84701 0.30154 0.24505 0.0
H212 H 0.844 0.30253 0.34936 0.0
H213 H 0.88017 0.2522 0.45045 0.0
H214 H 0.91471 0.29431 0.73049 0.0
H215 H 0.92003 0.29611 0.62636 0.0
C216 C 0.54844 0.85812 0.46408 0.0
C217 C 0.57718 0.87316 0.43572 0.0
C218 C 0.54694 0.8565 0.52409 0.0
C219 C 0.59361 0.89844 0.65032 0.0
H220 H 0.53151 0.82777 0.7355 0.0
C221 C 0.59758 0.88461 0.896 0.0
C222 C 0.56952 0.86852 0.92635 0.0
C223 C 0.59769 0.88806 0.8364 0.0
C224 C 0.54867 0.84791 0.71229 0.0
H225 H 0.62684 0.89621 0.44841 0.0
H226 H 0.62412 0.89284 0.55286 0.0
H227 H 0.53375 0.82495 0.63117 0.0
H228 H 0.51964 0.8462 0.91835 0.0
H229 H 0.51994 0.8526 0.81441 0.0
H230 H 0.60867 0.92132 0.73149 0.0
C231 C 0.60277 0.88302 0.52868 0.0
C232 C 0.55004 0.84621 0.65248 0.0
C233 C 0.6043 0.88464 0.4687 0.0
C234 C 0.54168 0.85834 0.89631 0.0
C235 C 0.54181 0.86177 0.83663 0.0
C236 C 0.59223 0.90014 0.71011 0.0
C237 C 0.57412 0.86982 0.55712 0.0
C238 C 0.57267 0.87138 0.62081 0.0
C239 C 0.56977 0.87561 0.80577 0.0
C240 C 0.56986 0.87483 0.74187 0.0
H241 H 0.52706 0.84899 0.44017 0.0
H242 H 0.52449 0.84618 0.54458 0.0
H243 H 0.6109 0.9185 0.62712 0.0
H244 H 0.61949 0.89295 0.91769 0.0
H245 H 0.61966 0.89884 0.81404 0.0
C246 C 0.70731 0.59732 0.0793 0.0
C247 C 0.69292 0.56791 0.10478 0.0
C248 C 0.70614 0.60046 0.02001 0.0
C249 C 0.66978 0.55986 0.88449 0.0
H250 H 0.75158 0.61452 0.82203 0.0
C251 C 0.69426 0.56226 0.64308 0.0
C252 C 0.71107 0.59163 0.61758 0.0
C253 C 0.69286 0.55903 0.70272 0.0
C254 C 0.72855 0.59941 0.83872 0.0
H255 H 0.66335 0.51891 0.08891 0.0
H256 H 0.66148 0.5244 0.98494 0.0
H257 H 0.74392 0.61031 0.92564 0.0
H258 H 0.74121 0.64043 0.63479 0.0
H259 H 0.73868 0.63479 0.73893 0.0
H260 H 0.65445 0.54896 0.7974 0.0
C261 C 0.67375 0.54502 0.01088 0.0
C262 C 0.7241 0.59707 0.8981 0.0
C263 C 0.6748 0.54187 0.07046 0.0
C264 C 0.72814 0.61747 0.65299 0.0
C265 C 0.72664 0.61423 0.71275 0.0
C266 C 0.67422 0.56226 0.82499 0.0
C267 C 0.69064 0.57427 0.98491 0.0
C268 C 0.69467 0.57733 0.92166 0.0
C269 C 0.70819 0.58508 0.73825 0.0
C270 C 0.70368 0.58204 0.80147 0.0
H271 H 0.72098 0.61789 0.1048 0.0
H272 H 0.7186 0.62336 0.00135 0.0
H273 H 0.64683 0.5446 0.90138 0.0
H274 H 0.68108 0.54181 0.61703 0.0
H275 H 0.67911 0.53617 0.72104 0.0
C276 C 0.11875 0.71122 0.20713 0.0
C277 C 0.13714 0.70169 0.23594 0.0
C278 C 0.11621 0.7095 0.14731 0.0
C279 C 0.16241 0.71225 0.0231 0.0
H280 H 0.09053 0.69787 0.93587 0.0
C281 C 0.157 0.70896 0.77448 0.0
C282 C 0.13923 0.71969 0.74701 0.0
C283 C 0.15828 0.70824 0.83441 0.0
C284 C 0.11093 0.70241 0.95972 0.0
H285 H 0.16453 0.67973 0.22479 0.0
H286 H 0.15968 0.67634 0.12037 0.0
H287 H 0.08597 0.68841 0.03921 0.0
H288 H 0.11116 0.74067 0.76133 0.0
H289 H 0.11393 0.73993 0.86584 0.0
H290 H 0.18742 0.72643 0.9437 0.0
C291 C 0.14794 0.68594 0.14407 0.0
C292 C 0.10825 0.69677 0.01889 0.0
C293 C 0.15042 0.68758 0.20401 0.0
C294 C 0.12493 0.73208 0.78091 0.0
C295 C 0.12618 0.7313 0.8409 0.0
C296 C 0.16509 0.71789 0.96393 0.0
C297 C 0.13194 0.69813 0.11493 0.0
C298 C 0.13399 0.70173 0.05135 0.0
C299 C 0.14188 0.71828 0.86831 0.0
C300 C 0.13943 0.7132 0.93156 0.0
H301 H 0.10796 0.72196 0.23036 0.0
H302 H 0.10363 0.71904 0.12633 0.0
H303 H 0.18286 0.71694 0.04698 0.0
H304 H 0.16843 0.69935 0.74983 0.0
H305 H 0.17062 0.69808 0.85406 0.0
C306 C 0.41081 0.13137 0.95637 0.0
C307 C 0.43805 0.14054 0.92484 0.0
C308 C 0.41164 0.13365 0.01625 0.0
C309 C 0.4634 0.16857 0.1416 0.0
H310 H 0.40026 0.09581 0.22088 0.0
C311 C 0.41271 0.13248 0.38495 0.0
C312 C 0.44062 0.14659 0.41583 0.0
C313 C 0.41273 0.12944 0.32526 0.0
C314 C 0.41793 0.11637 0.19944 0.0
H315 H 0.48784 0.1614 0.93157 0.0
H316 H 0.48924 0.16537 0.03591 0.0
H317 H 0.39958 0.09827 0.11629 0.0
H318 H 0.49023 0.16602 0.40861 0.0
H319 H 0.49016 0.16026 0.30463 0.0
H320 H 0.48168 0.18672 0.22478 0.0
C321 C 0.46721 0.15635 0.01432 0.0
C322 C 0.41747 0.11786 0.1395 0.0
C323 C 0.46639 0.15407 0.95437 0.0
C324 C 0.46833 0.15544 0.38614 0.0
C325 C 0.46834 0.15237 0.32645 0.0
C326 C 0.46386 0.16708 0.20157 0.0
C327 C 0.43973 0.14523 0.04604 0.0
C328 C 0.44011 0.14404 0.10987 0.0
C329 C 0.44066 0.14031 0.29512 0.0
C330 C 0.44107 0.141 0.23122 0.0
H331 H 0.38857 0.12109 0.9351 0.0
H332 H 0.39015 0.12558 0.03936 0.0
H333 H 0.48101 0.18916 0.12016 0.0
H334 H 0.39091 0.12531 0.40636 0.0
H335 H 0.391 0.12009 0.30249 0.0
C336 C 0.32043 0.46311 0.07099 0.0
C337 C 0.30347 0.43498 0.04142 0.0
C338 C 0.31953 0.46394 0.13094 0.0
C339 C 0.30704 0.41268 0.25294 0.0
H340 H 0.31282 0.47992 0.34397 0.0
C341 C 0.29817 0.41022 0.5007 0.0
C342 C 0.31517 0.4382 0.53066 0.0
C343 C 0.29902 0.40965 0.44073 0.0
C344 C 0.31173 0.46121 0.31904 0.0
H345 H 0.26965 0.38628 0.05149 0.0
H346 H 0.26772 0.38793 0.15593 0.0
H347 H 0.30542 0.47945 0.24032 0.0
H348 H 0.34894 0.48696 0.52125 0.0
H349 H 0.35074 0.48578 0.41668 0.0
H350 H 0.31337 0.39444 0.33162 0.0
C351 C 0.28244 0.40915 0.13277 0.0
C352 C 0.30727 0.46085 0.25971 0.0
C353 C 0.28332 0.4083 0.07283 0.0
C354 C 0.33521 0.46506 0.49956 0.0
C355 C 0.33604 0.46447 0.43957 0.0
C356 C 0.3115 0.41304 0.31225 0.0
C357 C 0.30156 0.4367 0.16256 0.0
C358 C 0.30481 0.43655 0.22599 0.0
C359 C 0.31698 0.43701 0.40945 0.0
C360 C 0.3139 0.43731 0.346 0.0
H361 H 0.33609 0.48416 0.04826 0.0
H362 H 0.3345 0.48557 0.15255 0.0
H363 H 0.30595 0.39396 0.22803 0.0
H364 H 0.2826 0.38905 0.52318 0.0
H365 H 0.28408 0.38809 0.41888 0.0
C366 C 0.56265 0.1977 0.65632 0.0
C367 C 0.53979 0.19126 0.69798 0.0
C368 C 0.58781 0.19404 0.66863 0.0
C369 C 0.61574 0.15604 0.76926 0.0
H370 H 0.69582 0.21721 0.70923 0.0
C371 C 0.73335 0.17838 0.85534 0.0
C372 C 0.75912 0.1925 0.81865 0.0
C373 C 0.70382 0.16966 0.8348 0.0
C374 C 0.67357 0.19943 0.72527 0.0
H375 H 0.52614 0.17655 0.78603 0.0
H376 H 0.57064 0.17068 0.80804 0.0
H377 H 0.65097 0.22174 0.68858 0.0
H378 H 0.77384 0.20531 0.73065 0.0
H379 H 0.72215 0.18882 0.69392 0.0
H380 H 0.63885 0.13431 0.80742 0.0
C381 C 0.56858 0.17797 0.76528 0.0
C382 C 0.64775 0.20216 0.71366 0.0
C383 C 0.54317 0.18155 0.75283 0.0
C384 C 0.75429 0.19393 0.75964 0.0
C385 C 0.72474 0.18514 0.73895 0.0
C386 C 0.6417 0.15334 0.78105 0.0
C387 C 0.59118 0.18408 0.72317 0.0
C388 C 0.61849 0.18064 0.73569 0.0
C389 C 0.69958 0.17497 0.77707 0.0
C390 C 0.67103 0.17513 0.75943 0.0
H391 H 0.5607 0.20471 0.61323 0.0
H392 H 0.60435 0.19844 0.63474 0.0
H393 H 0.59349 0.13879 0.78626 0.0
H394 H 0.73657 0.17769 0.90127 0.0
H395 H 0.68511 0.16192 0.86552 0.0
C396 C 0.57026 0.74813 0.96268 0.0
C397 C 0.56614 0.7494 0.02199 0.0
C398 C 0.55463 0.71982 0.93382 0.0
C399 C 0.50125 0.63474 0.95344 0.0
H400 H 0.45509 0.64634 0.83226 0.0
C401 C 0.37978 0.53816 0.88145 0.0
C402 C 0.3722 0.5365 0.82292 0.0
C403 C 0.40768 0.56265 0.90217 0.0
C404 C 0.46803 0.64251 0.86519 0.0
H405 H 0.54552 0.72231 0.09868 0.0
H406 H 0.51878 0.67305 0.04902 0.0
H407 H 0.50025 0.69077 0.8723 0.0
H408 H 0.38844 0.55891 0.74004 0.0
H409 H 0.43686 0.60113 0.77587 0.0
H410 H 0.46821 0.58637 0.94724 0.0
C411 C 0.53392 0.69353 0.02432 0.0
C412 C 0.49414 0.66808 0.88804 0.0
C413 C 0.54937 0.72177 0.05296 0.0
C414 C 0.3932 0.55973 0.78561 0.0
C415 C 0.42108 0.58399 0.80616 0.0
C416 C 0.47509 0.60905 0.93038 0.0
C417 C 0.53471 0.69248 0.96402 0.0
C418 C 0.51073 0.66464 0.93325 0.0
C419 C 0.42867 0.58591 0.86473 0.0
C420 C 0.4578 0.61271 0.88672 0.0
H421 H 0.58267 0.7692 0.93783 0.0
H422 H 0.55613 0.71967 0.88739 0.0
H423 H 0.51362 0.63128 0.98804 0.0
H424 H 0.36409 0.52066 0.9113 0.0
H425 H 0.41254 0.56362 0.9477 0.0
C426 C 0.81417 0.35693 0.00962 0.0
C427 C 0.82549 0.34027 0.03917 0.0
C428 C 0.8157 0.38298 0.03419 0.0
C429 C 0.82807 0.4237 0.1743 0.0
H430 H 0.82902 0.48587 0.07413 0.0
C431 C 0.77493 0.49396 0.24284 0.0
C432 C 0.78381 0.52296 0.21898 0.0
C433 C 0.78921 0.47772 0.2262 0.0
C434 C 0.82955 0.46923 0.10299 0.0
H435 H 0.84521 0.3369 0.11983 0.0
H436 H 0.85021 0.38349 0.16079 0.0
H437 H 0.83635 0.44554 0.03359 0.0
H438 H 0.81623 0.55875 0.16168 0.0
H439 H 0.84192 0.53019 0.13245 0.0
H440 H 0.8226 0.44813 0.24388 0.0
C441 C 0.83964 0.37632 0.11887 0.0
C442 C 0.83302 0.44555 0.07955 0.0
C443 C 0.83725 0.3497 0.09491 0.0
C444 C 0.80884 0.53635 0.18052 0.0
C445 C 0.82334 0.5199 0.16359 0.0
C446 C 0.82551 0.44782 0.19781 0.0
C447 C 0.82912 0.39355 0.08867 0.0
C448 C 0.83072 0.42154 0.11453 0.0
C449 C 0.81314 0.49003 0.1854 0.0
C450 C 0.82442 0.46989 0.16219 0.0
H451 H 0.80459 0.35025 0.96684 0.0
H452 H 0.80617 0.39468 0.0102 0.0
H453 H 0.82624 0.40595 0.20313 0.0
H454 H 0.756 0.48313 0.27327 0.0
H455 H 0.78015 0.45468 0.24332 0.0
C456 C 0.44954 0.81186 0.17707 0.0
C457 C 0.47413 0.81927 0.21512 0.0
C458 C 0.42588 0.81745 0.19197 0.0
C459 C 0.38978 0.84924 0.2176 0.0
H460 H 0.35167 0.82771 0.36821 0.0
C461 C 0.26509 0.81671 0.26684 0.0
C462 C 0.25734 0.81989 0.32331 0.0
C463 C 0.29596 0.82801 0.25165 0.0
C464 C 0.36251 0.83465 0.32635 0.0
H465 H 0.49158 0.83608 0.30068 0.0
H466 H 0.45042 0.8463 0.32646 0.0
H467 H 0.3959 0.82179 0.34802 0.0
H468 H 0.27559 0.84036 0.40622 0.0
H469 H 0.32965 0.86108 0.37939 0.0
H470 H 0.35543 0.86084 0.19531 0.0
C471 C 0.44969 0.83643 0.28475 0.0
C472 C 0.38785 0.83108 0.3147 0.0
C473 C 0.47339 0.83071 0.26987 0.0
C474 C 0.28106 0.83812 0.36207 0.0
C475 C 0.31197 0.84942 0.34699 0.0
C476 C 0.36435 0.85273 0.2292 0.0
C477 C 0.42603 0.83053 0.24538 0.0
C478 C 0.40127 0.83751 0.25972 0.0
C479 C 0.31952 0.84253 0.29293 0.0
C480 C 0.34993 0.84475 0.28331 0.0
H481 H 0.44911 0.80289 0.13457 0.0
H482 H 0.40757 0.81177 0.16121 0.0
H483 H 0.40007 0.85516 0.17516 0.0
H484 H 0.24715 0.8021 0.23665 0.0
H485 H 0.30086 0.82222 0.20965 0.0
C486 C 0.44821 0.27586 0.48306 0.0
C487 C 0.44134 0.2636 0.53876 0.0
C488 C 0.4625 0.30774 0.47459 0.0
C489 C 0.5203 0.37487 0.5499 0.0
H490 H 0.51751 0.41743 0.41319 0.0
C491 C 0.62714 0.48872 0.47063 0.0
C492 C 0.63353 0.48702 0.41233 0.0
C493 C 0.59842 0.46693 0.49427 0.0
C494 C 0.51852 0.40597 0.45189 0.0
H495 H 0.44168 0.27426 0.62888 0.0
H496 H 0.46646 0.33004 0.61421 0.0
H497 H 0.47269 0.36773 0.43911 0.0
H498 H 0.61418 0.46169 0.33289 0.0
H499 H 0.56525 0.42421 0.37372 0.0
H500 H 0.56691 0.4119 0.56035 0.0
C501 C 0.46076 0.31516 0.57705 0.0
C502 C 0.49282 0.37758 0.46675 0.0
C503 C 0.44623 0.28325 0.58538 0.0
C504 C 0.61043 0.46362 0.37818 0.0
C505 C 0.58196 0.44229 0.40141 0.0
C506 C 0.54611 0.40318 0.5348 0.0
C507 C 0.47058 0.32783 0.5219 0.0
C508 C 0.49395 0.36106 0.51446 0.0
C509 C 0.57554 0.44344 0.45973 0.0
C510 C 0.54603 0.41827 0.48403 0.0
H511 H 0.44538 0.26117 0.44674 0.0
H512 H 0.47 0.31674 0.4316 0.0
H513 H 0.52205 0.36264 0.58672 0.0
H514 H 0.64441 0.5065 0.49803 0.0
H515 H 0.59416 0.46836 0.53947 0.0
C516 C 0.1778 0.65185 0.58473 0.0
C517 C 0.19337 0.66671 0.53392 0.0
C518 C 0.17352 0.62292 0.59956 0.0
C519 C 0.18433 0.55928 0.53672 0.0
H520 H 0.16351 0.52759 0.69165 0.0
C521 C 0.19564 0.45542 0.59624 0.0
C522 C 0.20822 0.4573 0.6508 0.0
C523 C 0.18203 0.47319 0.58333 0.0
C524 C 0.16996 0.53612 0.64821 0.0
H525 H 0.22134 0.66508 0.46431 0.0
H526 H 0.21738 0.61733 0.49358 0.0
H527 H 0.16952 0.57695 0.66988 0.0
H528 H 0.21394 0.47637 0.73608 0.0
H529 H 0.19223 0.50802 0.71402 0.0
H530 H 0.18844 0.52033 0.51662 0.0
C531 C 0.20516 0.62579 0.51892 0.0
C532 C 0.17275 0.5646 0.63517 0.0
C533 C 0.20813 0.6539 0.50267 0.0
C534 C 0.20413 0.47443 0.6937 0.0
C535 C 0.19147 0.49275 0.68062 0.0
C536 C 0.18304 0.53158 0.55041 0.0
C537 C 0.18643 0.6089 0.5659 0.0
C538 C 0.18091 0.57721 0.57947 0.0
C539 C 0.1819 0.49397 0.62422 0.0
C540 C 0.17684 0.51993 0.60694 0.0
H541 H 0.16802 0.66195 0.61234 0.0
H542 H 0.15929 0.61148 0.63663 0.0
H543 H 0.18883 0.5668 0.49242 0.0
H544 H 0.19872 0.44245 0.56236 0.0
H545 H 0.17363 0.47208 0.5401 0.0
C546 C 0.81597 0.1802 0.09034 0.0
C547 C 0.84282 0.19211 0.05662 0.0
C548 C 0.79988 0.14881 0.10563 0.0
C549 C 0.78415 0.07637 0.0423 0.0
H550 H 0.74719 0.03848 0.18824 0.0
C551 C 0.70564 0.94999 0.15984 0.0
C552 C 0.67766 0.93819 0.12956 0.0
C553 C 0.73072 0.97902 0.14631 0.0
C554 C 0.75763 0.04874 0.14728 0.0
H555 H 0.8754 0.18157 0.01681 0.0
H556 H 0.84763 0.12719 0.04384 0.0
H557 H 0.78131 0.09456 0.18242 0.0
H558 H 0.65556 0.94532 0.05612 0.0
H559 H 0.69998 0.99563 0.0308 0.0
H560 H 0.75945 0.03067 0.00669 0.0
C561 C 0.83876 0.14177 0.05799 0.0
C562 C 0.77692 0.08082 0.14398 0.0
C563 C 0.85486 0.17297 0.04326 0.0
C564 C 0.67693 0.95364 0.07977 0.0
C565 C 0.70224 0.98271 0.06584 0.0
C566 C 0.76435 0.04436 0.04537 0.0
C567 C 0.81037 0.12903 0.08687 0.0
C568 C 0.79044 0.09495 0.09148 0.0
C569 C 0.72848 0.99651 0.10155 0.0
C570 C 0.75096 0.03019 0.09794 0.0
H571 H 0.80588 0.1943 0.10007 0.0
H572 H 0.77802 0.13953 0.12804 0.0
H573 H 0.79398 0.08673 0.00107 0.0
H574 H 0.70677 0.93859 0.19855 0.0
H575 H 0.75092 0.98886 0.1738 0.0
C576 C 0.61407 0.80229 0.29908 0.0
C577 C 0.63381 0.82931 0.26827 0.0
C578 C 0.62475 0.78273 0.3176 0.0
C579 C 0.6635 0.75226 0.36202 0.0
H580 H 0.69421 0.73259 0.22476 0.0
C581 C 0.73823 0.69492 0.36315 0.0
C582 C 0.72982 0.66983 0.32587 0.0
C583 C 0.72329 0.71192 0.36071 0.0
C584 C 0.68541 0.7376 0.26327 0.0
H585 H 0.68067 0.85887 0.23821 0.0
H586 H 0.69931 0.82511 0.27104 0.0
H587 H 0.67576 0.76914 0.21906 0.0
H588 H 0.69964 0.64376 0.25517 0.0
H589 H 0.67417 0.67441 0.24974 0.0
H590 H 0.67423 0.72137 0.40654 0.0
C591 C 0.67565 0.81878 0.28036 0.0
C592 C 0.67514 0.75869 0.26017 0.0
C593 C 0.66509 0.83825 0.26223 0.0
C594 C 0.70661 0.66278 0.28476 0.0
C595 C 0.69195 0.68022 0.28175 0.0
C596 C 0.67436 0.73151 0.36536 0.0
C597 C 0.65516 0.79008 0.30519 0.0
C598 C 0.6645 0.76654 0.30958 0.0
C599 C 0.70001 0.70476 0.32012 0.0
C600 C 0.68569 0.72426 0.31604 0.0
H601 H 0.58972 0.79465 0.30329 0.0
H602 H 0.60857 0.76068 0.33679 0.0
H603 H 0.65524 0.75786 0.40055 0.0
H604 H 0.75629 0.70134 0.39483 0.0
H605 H 0.73038 0.7311 0.38999 0.0
C606 C 0.04876 0.71703 0.39358 0.0
C607 C 0.06728 0.73993 0.43343 0.0
C608 C 0.01802 0.70923 0.3851 0.0
C609 C 0.95787 0.71232 0.47297 0.0
H610 H 0.90478 0.66165 0.3494 0.0
C611 C 0.82197 0.6525 0.45097 0.0
C612 C 0.80785 0.62157 0.43321 0.0
C613 C 0.85419 0.67008 0.4576 0.0
C614 C 0.9194 0.67576 0.38427 0.0
H615 H 0.0703 0.77633 0.4874 0.0
H616 H 0.01763 0.7646 0.46901 0.0
H617 H 0.9605 0.69154 0.33443 0.0
H618 H 0.81569 0.58397 0.41419 0.0
H619 H 0.87163 0.61438 0.42652 0.0
H620 H 0.91619 0.69665 0.52211 0.0
C621 C 0.02591 0.75118 0.44709 0.0
C622 C 0.95138 0.69289 0.37578 0.0
C623 C 0.05645 0.75854 0.45641 0.0
C624 C 0.82592 0.60758 0.42905 0.0
C625 C 0.85799 0.62513 0.43499 0.0
C626 C 0.92575 0.69562 0.48099 0.0
C627 C 1.00555 0.72479 0.41522 0.0
C628 C 0.97124 0.7108 0.4205 0.0
C629 C 0.87252 0.6569 0.446 0.0
C630 C 0.90635 0.67653 0.43724 0.0
H631 H 0.05638 0.70208 0.37576 0.0
H632 H 1.0034 0.68889 0.35984 0.0
H633 H 0.97216 0.72528 0.50902 0.0
H634 H 0.80868 0.66403 0.45295 0.0
H635 H 0.86492 0.69455 0.46629 0.0
C636 C 0.20302 0.8281 0.59498 0.0
C637 C 0.17486 0.81506 0.56514 0.0
C638 C 0.21871 0.85961 0.6093 0.0
C639 C 0.23031 0.93033 0.54604 0.0
H640 H 0.27015 0.97087 0.68833 0.0
C641 C 0.33628 0.05497 0.5751 0.0
C642 C 0.33552 0.07091 0.62408 0.0
C643 C 0.31139 0.02535 0.56303 0.0
C644 C 0.25892 0.95984 0.64838 0.0
H645 H 0.13978 0.82373 0.53131 0.0
H646 H 0.16694 0.87835 0.5565 0.0
H647 H 0.23728 0.91452 0.68591 0.0
H648 H 0.30661 0.0706 0.69343 0.0
H649 H 0.26324 0.01931 0.67201 0.0
H650 H 0.25305 0.97555 0.50792 0.0
C651 C 0.17702 0.86452 0.56857 0.0
C652 C 0.24033 0.92764 0.64703 0.0
C653 C 0.16129 0.83317 0.55497 0.0
C654 C 0.30776 0.05885 0.65529 0.0
C655 C 0.28313 0.02926 0.64369 0.0
C656 C 0.24947 0.96248 0.54709 0.0
C657 C 0.20654 0.87838 0.59328 0.0
C658 C 0.22576 0.91257 0.59588 0.0
C659 C 0.28556 0.01147 0.59982 0.0
C660 C 0.26386 0.97758 0.59835 0.0
H661 H 0.2143 0.81485 0.60203 0.0
H662 H 0.24146 0.86978 0.62845 0.0
H663 H 0.21961 0.91922 0.50582 0.0
H664 H 0.3575 0.06346 0.55079 0.0
H665 H 0.31376 0.01218 0.52865 0.0
C666 C 0.34724 0.16406 0.77376 0.0
C667 C 0.37937 0.17957 0.76541 0.0
C668 C 0.332 0.18067 0.78152 0.0
C669 C 0.34536 0.26148 0.79182 0.0
H670 H 0.27048 0.22656 0.70017 0.0
C671 C 0.30133 0.33735 0.70289 0.0
C672 C 0.2775 0.33392 0.73948 0.0
C673 C 0.30878 0.31405 0.69973 0.0
C674 C 0.29138 0.23649 0.72572 0.0
H675 H 0.42107 0.22426 0.76487 0.0
H676 H 0.39502 0.25329 0.77779 0.0
H677 H 0.29436 0.19563 0.72111 0.0
H678 H 0.23936 0.30158 0.7927 0.0
H679 H 0.25118 0.26014 0.78411 0.0
H680 H 0.34294 0.30285 0.79363 0.0
C681 C 0.38116 0.22837 0.77923 0.0
C682 C 0.30492 0.2187 0.73866 0.0
C683 C 0.39636 0.21167 0.77261 0.0
C684 C 0.25765 0.30471 0.76374 0.0
C685 C 0.26472 0.28116 0.75962 0.0
C686 C 0.3322 0.27938 0.77781 0.0
C687 C 0.34859 0.21318 0.77999 0.0
C688 C 0.33231 0.231 0.77159 0.0
C689 C 0.29169 0.28662 0.7312 0.0
C690 C 0.30531 0.26716 0.74422 0.0
H691 H 0.33354 0.13932 0.76742 0.0
H692 H 0.30702 0.168 0.78419 0.0
H693 H 0.36594 0.27172 0.81822 0.0
H694 H 0.31723 0.35966 0.68421 0.0
H695 H 0.32959 0.31862 0.67724 0.0
C696 C 0.9651 0.25431 0.94227 0.0
C697 C 0.95258 0.27211 0.92267 0.0
C698 C 0.99545 0.2625 0.92814 0.0
C699 C 0.06624 0.32142 0.84681 0.0
H700 H 0.10859 0.31432 0.98034 0.0
C701 C 0.19658 0.4004 0.87589 0.0
C702 C 0.21265 0.38427 0.87499 0.0
C703 C 0.1648 0.38489 0.88697 0.0
C704 C 0.09702 0.31638 0.94276 0.0
H705 H 0.9606 0.31011 0.86753 0.0
H706 H 0.01332 0.32487 0.84369 0.0
H707 H 0.05228 0.28755 0.97908 0.0
H708 H 0.20869 0.33988 0.88918 0.0
H709 H 0.15333 0.31304 0.91217 0.0
H710 H 0.1114 0.35171 0.81226 0.0
C711 C 1.00005 0.30433 0.86945 0.0
C712 C 0.06463 0.3007 0.94146 0.0
C713 C 0.96944 0.29564 0.88255 0.0
C714 C 0.19706 0.35307 0.8915 0.0
C715 C 0.1653 0.33761 0.90367 0.0
C716 C 0.09858 0.3376 0.84875 0.0
C717 C 0.01417 0.28911 0.89512 0.0
C718 C 0.04865 0.30316 0.89361 0.0
C719 C 0.14861 0.35304 0.89822 0.0
C720 C 0.11428 0.3355 0.89695 0.0
H721 H 0.95265 0.23615 0.97358 0.0
H722 H 1.00487 0.24927 0.94678 0.0
H723 H 0.05513 0.32352 0.80864 0.0
H724 H 0.20782 0.4242 0.86157 0.0
H725 H 0.1525 0.39735 0.88294 0.0
C726 C 0.98908 0.43516 0.1275 0.0
C727 C 0.99033 0.40818 0.13698 0.0
C728 C 0.01146 0.46325 0.15068 0.0
C729 C 0.06017 0.49231 0.27564 0.0
H730 H 0.09248 0.57179 0.20064 0.0
C731 C 0.12348 0.6026 0.40774 0.0
C732 C 0.11542 0.62511 0.397 0.0
C733 C 0.11583 0.57884 0.36865 0.0
C734 C 0.08353 0.5498 0.22228 0.0
H735 H 0.0168 0.38972 0.17592 0.0
H736 H 0.05586 0.43905 0.21776 0.0
H737 H 0.06545 0.52443 0.14401 0.0
H738 H 0.09484 0.64175 0.33555 0.0
H739 H 0.07999 0.59928 0.26795 0.0
H740 H 0.07627 0.51705 0.35424 0.0
C741 C 0.03749 0.43828 0.19206 0.0
C742 C 0.06826 0.52272 0.18978 0.0
C743 C 0.01524 0.41013 0.16806 0.0
C744 C 0.10108 0.62448 0.34489 0.0
C745 C 0.09281 0.60024 0.30608 0.0
C746 C 0.07509 0.51926 0.30816 0.0
C747 C 0.03545 0.46497 0.18441 0.0
C748 C 0.0559 0.49371 0.2164 0.0
C749 C 0.09929 0.57661 0.3184 0.0
C750 C 0.08648 0.54837 0.28215 0.0
H751 H 0.97034 0.43448 0.10317 0.0
H752 H 0.00908 0.48331 0.14456 0.0
H753 H 0.05041 0.47028 0.2975 0.0
H754 H 0.13531 0.60305 0.44703 0.0
H755 H 0.12216 0.56172 0.37872 0.0
C756 C 0.52489 0.11853 0.56649 0.0
C757 C 0.49665 0.11774 0.56054 0.0
C758 C 0.53732 0.1107 0.52047 0.0
C759 C 0.50964 0.05865 0.40075 0.0
H760 H 0.59695 0.09151 0.37176 0.0
C761 C 0.54789 0.98562 0.28011 0.0
C762 C 0.57231 0.98398 0.30581 0.0
C763 C 0.54233 0.00926 0.29443 0.0
C764 C 0.57249 0.08207 0.37933 0.0
H765 H 0.4602 0.11002 0.50094 0.0
H766 H 0.48193 0.0961 0.42027 0.0
H767 H 0.5803 0.12158 0.42801 0.0
H768 H 0.61118 0.00648 0.36393 0.0
H769 H 0.60052 0.04701 0.39176 0.0
H770 H 0.50162 0.01834 0.35622 0.0
C771 C 0.49432 0.1027 0.4607 0.0
C772 C 0.56298 0.09936 0.41118 0.0
C773 C 0.48194 0.11069 0.50677 0.0
C774 C 0.59213 0.00727 0.3438 0.0
C775 C 0.58613 0.03061 0.35923 0.0
C776 C 0.5191 0.0413 0.36948 0.0
C777 C 0.52168 0.1018 0.46767 0.0
C778 C 0.53153 0.0873 0.42378 0.0
C779 C 0.56058 0.03132 0.33594 0.0
C780 C 0.55071 0.05233 0.36 0.0
H781 H 0.53703 0.12441 0.60719 0.0
H782 H 0.55826 0.10991 0.52733 0.0
H783 H 0.48527 0.04854 0.41046 0.0
H784 H 0.53271 0.96825 0.24959 0.0
H785 H 0.52302 0.00959 0.27442 0.0
C786 C 0.61455 0.62874 0.45469 0.0
C787 C 0.6341 0.61777 0.47161 0.0
C788 C 0.58372 0.61372 0.47366 0.0
C789 C 0.52416 0.53715 0.52791 0.0
H790 H 0.48312 0.57859 0.59018 0.0
C791 C 0.4308 0.48554 0.69955 0.0
C792 C 0.40372 0.48677 0.69234 0.0
C793 C 0.45503 0.50014 0.66046 0.0
C794 C 0.4941 0.56676 0.5717 0.0
H795 H 0.63794 0.58446 0.52442 0.0
H796 H 0.58492 0.55877 0.55815 0.0
H797 H 0.53455 0.60912 0.54658 0.0
H798 H 0.38047 0.50415 0.63918 0.0
H799 H 0.42364 0.53067 0.57077 0.0
H800 H 0.48467 0.49504 0.556 0.0
C801 C 0.59267 0.57811 0.52893 0.0
C802 C 0.52349 0.58419 0.5469 0.0
C803 C 0.62312 0.59292 0.50996 0.0
C804 C 0.40098 0.50247 0.64482 0.0
C805 C 0.42566 0.5178 0.60619 0.0
C806 C 0.49506 0.51987 0.55299 0.0
C807 C 0.57229 0.58763 0.50961 0.0
C808 C 0.53928 0.56957 0.52685 0.0
C809 C 0.45293 0.51687 0.61407 0.0
C810 C 0.48025 0.53457 0.57683 0.0
H811 H 0.62263 0.64782 0.42474 0.0
H812 H 0.56856 0.62168 0.4584 0.0
H813 H 0.53539 0.52515 0.51138 0.0
H814 H 0.43344 0.47371 0.73615 0.0
H815 H 0.47595 0.49937 0.66777 0.0
C816 C 1.00254 0.59852 0.66965 0.0
C817 C 0.02737 0.59997 0.63904 0.0
C818 C 0.97961 0.57048 0.69289 0.0
C819 C 0.94704 0.48583 0.69002 0.0
H820 H 0.93998 0.49141 0.85479 0.0
C821 C 0.91578 0.38438 0.84445 0.0
C822 C 0.90193 0.38365 0.89724 0.0
C823 C 0.92343 0.40853 0.80572 0.0
C824 C 0.94086 0.48924 0.80864 0.0
H825 H 0.04653 0.57295 0.60516 0.0
H826 H 1.00662 0.52427 0.64542 0.0
H827 H 0.96604 0.53822 0.79801 0.0
H828 H 0.88229 0.40542 0.94874 0.0
H829 H 0.8944 0.44666 0.88053 0.0
H830 H 0.9224 0.43675 0.70088 0.0
C831 C 1.00482 0.54466 0.65166 0.0
C832 C 0.95589 0.51621 0.7761 0.0
C833 C 0.02787 0.57264 0.62919 0.0
C834 C 0.89376 0.40599 0.90889 0.0
C835 C 0.90078 0.42966 0.86984 0.0
C836 C 0.93165 0.45874 0.72255 0.0
C837 C 0.98091 0.54342 0.68499 0.0
C838 C 0.95992 0.5148 0.71678 0.0
C839 C 0.9168 0.43196 0.81879 0.0
C840 C 0.92914 0.46016 0.78254 0.0
H841 H 1.00153 0.61921 0.6777 0.0
H842 H 0.96132 0.57006 0.71833 0.0
H843 H 0.94967 0.48416 0.64418 0.0
H844 H 0.92208 0.36724 0.83443 0.0
H845 H 0.93591 0.4096 0.767 0.0
C846 C 0.48398 0.88365 0.07742 0.0
C847 C 0.5152 0.89232 0.07258 0.0
C848 C 0.46974 0.89128 0.03444 0.0
C849 C 0.48177 0.92832 0.88953 0.0
H850 H 0.4324 0.95944 0.95794 0.0
C851 C 0.47062 0.02918 0.8017 0.0
C852 C 0.44206 0.02787 0.80692 0.0
C853 C 0.47426 1.00515 0.82232 0.0
C854 C 0.44553 0.95028 0.93779 0.0
H855 H 0.55561 0.91377 0.01771 0.0
H856 H 0.53141 0.92907 0.94384 0.0
H857 H 0.44868 0.93053 0.01638 0.0
H858 H 0.39443 0.99949 0.83484 0.0
H859 H 0.40102 0.9577 0.87181 0.0
H860 H 0.48021 0.95047 0.81172 0.0
C861 C 0.51751 0.91559 0.97997 0.0
C862 C 0.45486 0.93353 0.9713 0.0
C863 C 0.53153 0.90712 0.02246 0.0
C864 C 0.41679 1.00132 0.83059 0.0
C865 C 0.42052 0.97739 0.85169 0.0
C866 C 0.47274 0.94556 0.8561 0.0
C867 C 0.48673 0.90872 0.98655 0.0
C868 C 0.47362 0.92282 0.94803 0.0
C869 C 0.44948 0.97945 0.84894 0.0
C870 C 0.45506 0.95718 0.88039 0.0
H871 H 0.4707 0.87157 0.11518 0.0
H872 H 0.44571 0.88455 0.04002 0.0
H873 H 0.49576 0.92002 0.86993 0.0
H874 H 0.49047 0.04915 0.78304 0.0
H875 H 0.49691 0.00747 0.82019 0.0
C876 C 0.44615 0.451 0.93861 0.0
C877 C 0.41645 0.42696 0.9534 0.0
C878 C 0.47167 0.4568 0.9717 0.0
C879 C 0.48662 0.4536 0.12084 0.0
H880 H 0.57135 0.48462 0.07255 0.0
C881 C 0.58446 0.50608 0.28482 0.0
C882 C 0.61248 0.53228 0.26874 0.0
C883 C 0.5621 0.48889 0.24394 0.0
C884 C 0.54784 0.47627 0.08661 0.0
H885 H 0.39035 0.38845 0.01112 0.0
H886 H 0.43514 0.39894 0.06999 0.0
H887 H 0.52933 0.45912 0.00274 0.0
H888 H 0.63928 0.56081 0.197 0.0
H889 H 0.59927 0.53157 0.1252 0.0
H890 H 0.50466 0.47221 0.20332 0.0
C891 C 0.43857 0.41322 0.03264 0.0
C892 C 0.52382 0.4614 0.04681 0.0
C893 C 0.41302 0.40713 -0.00109 0.0
C894 C 0.61778 0.54083 0.21056 0.0
C895 C 0.59498 0.52386 0.16948 0.0
C896 C 0.51052 0.46877 0.16026 0.0
C897 C 0.46786 0.43889 0.02064 0.0
C898 C 0.49302 0.45021 0.06353 0.0
C899 C 0.56673 0.49779 0.18588 0.0
C900 C 0.54148 0.48056 0.14366 0.0
H901 H 0.44942 0.46644 0.90328 0.0
H902 H 0.4939 0.47681 0.96161 0.0
H903 H 0.46319 0.44595 0.13461 0.0
H904 H 0.57993 0.49837 0.32911 0.0
H905 H 0.54114 0.46848 0.25807 0.0
loop_
_geom_bond_atom_site_label_1
_geom_bond_atom_site_label_2
_geom_bond_distance
_geom_bond_site_symmetry_2
_ccdc_geom_bond_type
C0 O12 1.241 . S
C0 O13 1.280 . S
C1 O14 1.277 . S
C1 O15 1.245 . S
C2 O26 1.247 1_556 S
C2 O28 1.289 . S
Mg3 O4 1.926 . S
Mg3 O13 1.984 . S
Mg3 O15 1.988 . S
Mg3 O16 2.061 . S
O4 Mg3 1.926 . S
O4 Mg5 1.986 . S
O4 Mg6 1.912 1_556 S
Mg5 O4 1.986 . S
Mg5 O12 2.042 . S
Mg5 O14 2.041 . S
Mg5 O20 2.038 . S
Mg5 O28 2.238 . S
Mg6 O4 1.912 1_554 S
Mg6 O7 1.922 . S
Mg6 O17 2.110 . S
Mg6 O19 2.083 . S
Mg6 O28 2.103 1_554 S
Mg6 O29 2.075 1_554 S
O7 Mg6 1.922 . S
O7 Mg8 1.926 . S
O7 Mg9 1.986 . S
Mg8 O7 1.926 . S
Mg8 O22 1.984 . S
Mg8 O25 1.988 . S
Mg8 O26 2.061 . S
Mg9 O7 1.986 . S
Mg9 O17 2.238 . S
Mg9 O21 2.042 . S
Mg9 O23 2.041 . S
Mg9 O30 2.038 . S
C10 O16 1.247 1_554 S
C10 O17 1.289 . S
C11 O29 1.245 . S
C11 O30 1.274 1_556 S
O12 C0 1.241 . S
O12 Mg5 2.042 . S
O13 C0 1.280 . S
O13 Mg3 1.984 . S
O14 C1 1.277 . S
O14 Mg5 2.041 . S
O15 C1 1.245 . S
O15 Mg3 1.988 . S
O16 Mg3 2.061 . S
O16 C10 1.247 1_556 S
O17 Mg6 2.110 . S
O17 Mg9 2.238 . S
O17 C10 1.289 . S
C18 O19 1.245 . S
C18 O20 1.274 1_554 S
O19 Mg6 2.083 . S
O19 C18 1.245 . S
O20 Mg5 2.038 . S
O20 C18 1.274 1_556 S
O21 Mg9 2.042 . S
O21 C24 1.241 . S
O22 Mg8 1.984 . S
O22 C24 1.280 . S
O23 Mg9 2.041 . S
O23 C27 1.277 . S
C24 O21 1.241 . S
C24 O22 1.280 . S
O25 Mg8 1.988 . S
O25 C27 1.245 . S
O26 C2 1.247 1_554 S
O26 Mg8 2.061 . S
C27 O23 1.277 . S
C27 O25 1.245 . S
O28 C2 1.289 . S
O28 Mg5 2.238 . S
O28 Mg6 2.103 1_556 S
O29 Mg6 2.075 1_556 S
O29 C11 1.245 . S
O30 Mg9 2.038 . S
O30 C11 1.274 1_554 S
C31 O43 1.241 . S
C31 O44 1.280 . S
C32 O45 1.277 1_556 S
C32 O46 1.245 . S
C33 O57 1.247 . S
C33 O59 1.289 . S
Mg34 O35 1.926 . S
Mg34 O44 1.984 . S
Mg34 O46 1.988 1_554 S
Mg34 O47 2.061 . S
O35 Mg34 1.926 . S
O35 Mg36 1.986 . S
O35 Mg37 1.917 . S
Mg36 O35 1.986 . S
Mg36 O43 2.042 . S
Mg36 O45 2.041 . S
Mg36 O51 2.038 . S
Mg36 O59 2.238 . S
Mg37 O35 1.917 . S
Mg37 O38 1.917 . S
Mg37 O48 2.106 . S
Mg37 O50 2.079 . S
Mg37 O59 2.106 . S
Mg37 O60 2.079 . S
O38 Mg37 1.917 . S
O38 Mg39 1.926 . S
O38 Mg40 1.986 . S
Mg39 O38 1.926 . S
Mg39 O53 1.984 . S
Mg39 O56 1.988 . S
Mg39 O57 2.061 . S
Mg40 O38 1.986 . S
Mg40 O48 2.238 . S
Mg40 O52 2.042 . S
Mg40 O54 2.041 . S
Mg40 O61 2.038 . S
C41 O47 1.247 . S
C41 O48 1.289 . S
C42 O60 1.245 . S
C42 O61 1.274 . S
O43 C31 1.241 . S
O43 Mg36 2.042 . S
O44 C31 1.280 . S
O44 Mg34 1.984 . S
O45 C32 1.277 1_554 S
O45 Mg36 2.041 . S
O46 C32 1.245 . S
O46 Mg34 1.988 1_556 S
O47 Mg34 2.061 . S
O47 C41 1.247 . S
O48 Mg37 2.106 . S
O48 Mg40 2.238 . S
O48 C41 1.289 . S
C49 O50 1.245 . S
C49 O51 1.274 . S
O50 Mg37 2.079 . S
O50 C49 1.245 . S
O51 Mg36 2.038 . S
O51 C49 1.274 . S
O52 Mg40 2.042 . S
O52 C55 1.241 . S
O53 Mg39 1.984 . S
O53 C55 1.280 . S
O54 Mg40 2.041 . S
O54 C58 1.277 . S
C55 O52 1.241 . S
C55 O53 1.280 . S
O56 Mg39 1.988 . S
O56 C58 1.245 . S
O57 C33 1.247 . S
O57 Mg39 2.061 . S
C58 O54 1.277 . S
C58 O56 1.245 . S
O59 C33 1.289 . S
O59 Mg36 2.238 . S
O59 Mg37 2.106 . S
O60 Mg37 2.079 . S
O60 C42 1.245 . S
O61 Mg40 2.038 . S
O61 C42 1.274 . S
C62 O74 1.241 . S
C62 O75 1.280 . S
C63 O76 1.277 . S
C63 O77 1.245 . S
C64 O88 1.247 . S
C64 O90 1.289 . S
Mg65 O66 1.926 . S
Mg65 O75 1.984 . S
Mg65 O77 1.988 . S
Mg65 O78 2.061 . S
O66 Mg65 1.926 . S
O66 Mg67 1.986 . S
O66 Mg68 1.917 . S
Mg67 O66 1.986 . S
Mg67 O74 2.042 . S
Mg67 O76 2.041 . S
Mg67 O82 2.038 . S
Mg67 O90 2.238 . S
Mg68 O66 1.917 . S
Mg68 O69 1.917 . S
Mg68 O79 2.106 . S
Mg68 O81 2.079 . S
Mg68 O90 2.106 . S
Mg68 O91 2.079 . S
O69 Mg68 1.917 . S
O69 Mg70 1.926 . S
O69 Mg71 1.986 . S
Mg70 O69 1.926 . S
Mg70 O84 1.984 . S
Mg70 O87 1.988 . S
Mg70 O88 2.061 . S
Mg71 O69 1.986 . S
Mg71 O79 2.238 . S
Mg71 O83 2.042 . S
Mg71 O85 2.041 . S
Mg71 O92 2.038 . S
C72 O78 1.247 . S
C72 O79 1.289 . S
C73 O91 1.245 . S
C73 O92 1.274 . S
O74 C62 1.241 . S
O74 Mg67 2.042 . S
O75 C62 1.280 . S
O75 Mg65 1.984 . S
O76 C63 1.277 . S
O76 Mg67 2.041 . S
O77 C63 1.245 . S
O77 Mg65 1.988 . S
O78 Mg65 2.061 . S
O78 C72 1.247 . S
O79 Mg68 2.106 . S
O79 Mg71 2.238 . S
O79 C72 1.289 . S
C80 O81 1.245 . S
C80 O82 1.274 . S
O81 Mg68 2.079 . S
O81 C80 1.245 . S
O82 Mg67 2.038 . S
O82 C80 1.274 . S
O83 Mg71 2.042 . S
O83 C86 1.241 . S
O84 Mg70 1.984 . S
O84 C86 1.280 . S
O85 Mg71 2.041 . S
O85 C89 1.277 . S
C86 O83 1.241 . S
C86 O84 1.280 . S
O87 Mg70 1.988 . S
O87 C89 1.245 . S
O88 C64 1.247 . S
O88 Mg70 2.061 . S
C89 O85 1.277 . S
C89 O87 1.245 . S
O90 C64 1.289 . S
O90 Mg67 2.238 . S
O90 Mg68 2.106 . S
O91 Mg68 2.079 . S
O91 C73 1.245 . S
O92 Mg71 2.038 . S
O92 C73 1.274 . S
C93 O105 1.241 . S
C93 O106 1.280 . S
C94 O107 1.277 . S
C94 O108 1.245 . S
C95 O119 1.247 . S
C95 O121 1.289 . S
Mg96 O97 1.926 . S
Mg96 O106 1.984 . S
Mg96 O108 1.988 . S
Mg96 O109 2.061 . S
O97 Mg96 1.926 . S
O97 Mg98 1.986 . S
O97 Mg99 1.917 . S
Mg98 O97 1.986 . S
Mg98 O105 2.042 . S
Mg98 O107 2.041 . S
Mg98 O113 2.038 . S
Mg98 O121 2.238 . S
Mg99 O97 1.917 . S
Mg99 O100 1.917 . S
Mg99 O110 2.106 . S
Mg99 O112 2.079 . S
Mg99 O121 2.106 . S
Mg99 O122 2.079 . S
O100 Mg99 1.917 . S
O100 Mg101 1.926 . S
O100 Mg102 1.986 . S
Mg101 O100 1.926 . S
Mg101 O115 1.984 . S
Mg101 O118 1.988 . S
Mg101 O119 2.061 . S
Mg102 O100 1.986 . S
Mg102 O110 2.238 . S
Mg102 O114 2.042 . S
Mg102 O116 2.041 . S
Mg102 O123 2.038 . S
C103 O109 1.247 . S
C103 O110 1.289 . S
C104 O122 1.245 . S
C104 O123 1.274 . S
O105 C93 1.241 . S
O105 Mg98 2.042 . S
O106 C93 1.280 . S
O106 Mg96 1.984 . S
O107 C94 1.277 . S
O107 Mg98 2.041 . S
O108 C94 1.245 . S
O108 Mg96 1.988 . S
O109 Mg96 2.061 . S
O109 C103 1.247 . S
O110 Mg99 2.106 . S
O110 Mg102 2.238 . S
O110 C103 1.289 . S
C111 O112 1.245 . S
C111 O113 1.274 . S
O112 Mg99 2.079 . S
O112 C111 1.245 . S
O113 Mg98 2.038 . S
O113 C111 1.274 . S
O114 Mg102 2.042 . S
O114 C117 1.241 . S
O115 Mg101 1.984 . S
O115 C117 1.280 . S
O116 Mg102 2.041 . S
O116 C120 1.277 . S
C117 O114 1.241 . S
C117 O115 1.280 . S
O118 Mg101 1.988 . S
O118 C120 1.245 . S
O119 C95 1.247 . S
O119 Mg101 2.061 . S
C120 O116 1.277 . S
C120 O118 1.245 . S
O121 C95 1.289 . S
O121 Mg98 2.238 . S
O121 Mg99 2.106 . S
O122 Mg99 2.079 . S
O122 C104 1.245 . S
O123 Mg102 2.038 . S
O123 C104 1.274 . S
C124 O136 1.241 . S
C124 O137 1.280 . S
C125 O138 1.277 . S
C125 O139 1.245 . S
C126 O150 1.247 . S
C126 O152 1.289 . S
Mg127 O128 1.926 . S
Mg127 O137 1.984 . S
Mg127 O139 1.988 . S
Mg127 O140 2.061 . S
O128 Mg127 1.926 . S
O128 Mg129 1.986 . S
O128 Mg130 1.917 . S
Mg129 O128 1.986 . S
Mg129 O136 2.042 . S
Mg129 O138 2.041 . S
Mg129 O144 2.038 . S
Mg129 O152 2.238 . S
Mg130 O128 1.917 . S
Mg130 O131 1.917 . S
Mg130 O141 2.106 . S
Mg130 O143 2.079 . S
Mg130 O152 2.106 . S
Mg130 O153 2.079 . S
O131 Mg130 1.917 . S
O131 Mg132 1.926 . S
O131 Mg133 1.986 . S
Mg132 O131 1.926 . S
Mg132 O146 1.984 . S
Mg132 O149 1.988 . S
Mg132 O150 2.061 . S
Mg133 O131 1.986 . S
Mg133 O141 2.238 . S
Mg133 O145 2.042 . S
Mg133 O147 2.041 . S
Mg133 O154 2.038 . S
C134 O140 1.247 . S
C134 O141 1.289 . S
C135 O153 1.245 . S
C135 O154 1.274 . S
O136 C124 1.241 . S
O136 Mg129 2.042 . S
O137 C124 1.280 . S
O137 Mg127 1.984 . S
O138 C125 1.277 . S
O138 Mg129 2.041 . S
O139 C125 1.245 . S
O139 Mg127 1.988 . S
O140 Mg127 2.061 . S
O140 C134 1.247 . S
O141 Mg130 2.106 . S
O141 Mg133 2.238 . S
O141 C134 1.289 . S
C142 O143 1.245 . S
C142 O144 1.274 . S
O143 Mg130 2.079 . S
O143 C142 1.245 . S
O144 Mg129 2.038 . S
O144 C142 1.274 . S
O145 Mg133 2.042 . S
O145 C148 1.241 . S
O146 Mg132 1.984 . S
O146 C148 1.280 . S
O147 Mg133 2.041 . S
O147 C151 1.277 . S
C148 O145 1.241 . S
C148 O146 1.280 . S
O149 Mg132 1.988 . S
O149 C151 1.245 . S
O150 C126 1.247 . S
O150 Mg132 2.061 . S
C151 O147 1.277 . S
C151 O149 1.245 . S
O152 C126 1.289 . S
O152 Mg129 2.238 . S
O152 Mg130 2.106 . S
O153 Mg130 2.079 . S
O153 C135 1.245 . S
O154 Mg133 2.038 . S
O154 C135 1.274 . S
C155 O167 1.241 . S
C155 O168 1.280 . S
C156 O169 1.277 . S
C156 O170 1.245 . S
C157 O181 1.247 . S
C157 O183 1.289 . S
Mg158 O159 1.926 . S
Mg158 O168 1.984 . S
Mg158 O170 1.988 . S
Mg158 O171 2.061 . S
O159 Mg158 1.926 . S
O159 Mg160 1.986 . S
O159 Mg161 1.917 . S
Mg160 O159 1.986 . S
Mg160 O167 2.042 . S
Mg160 O169 2.041 . S
Mg160 O175 2.038 . S
Mg160 O183 2.238 . S
Mg161 O159 1.917 . S
Mg161 O162 1.917 . S
Mg161 O172 2.106 . S
Mg161 O174 2.079 . S
Mg161 O183 2.106 . S
Mg161 O184 2.079 . S
O162 Mg161 1.917 . S
O162 Mg163 1.926 . S
O162 Mg164 1.986 . S
Mg163 O162 1.926 . S
Mg163 O177 1.984 . S
Mg163 O180 1.988 1_556 S
Mg163 O181 2.061 . S
Mg164 O162 1.986 . S
Mg164 O172 2.238 . S
Mg164 O176 2.042 . S
Mg164 O178 2.044 . S
Mg164 O185 2.038 . S
C165 O171 1.247 . S
C165 O172 1.289 . S
C166 O184 1.245 . S
C166 O185 1.274 . S
O167 C155 1.241 . S
O167 Mg160 2.042 . S
O168 C155 1.280 . S
O168 Mg158 1.984 . S
O169 C156 1.277 . S
O169 Mg160 2.041 . S
O170 C156 1.245 . S
O170 Mg158 1.988 . S
O171 Mg158 2.061 . S
O171 C165 1.247 . S
O172 Mg161 2.106 . S
O172 Mg164 2.238 . S
O172 C165 1.289 . S
C173 O174 1.245 . S
C173 O175 1.274 . S
O174 Mg161 2.079 . S
O174 C173 1.245 . S
O175 Mg160 2.038 . S
O175 C173 1.274 . S
O176 Mg164 2.042 . S
O176 C179 1.241 . S
O177 Mg163 1.984 . S
O177 C179 1.280 . S
O178 Mg164 2.044 . S
O178 C182 1.275 1_556 S
C179 O176 1.241 . S
C179 O177 1.280 . S
O180 Mg163 1.988 1_554 S
O180 C182 1.245 . S
O181 C157 1.247 . S
O181 Mg163 2.061 . S
C182 O178 1.275 1_554 S
C182 O180 1.245 . S
O183 C157 1.289 . S
O183 Mg160 2.238 . S
O183 Mg161 2.106 . S
O184 Mg161 2.079 . S
O184 C166 1.245 . S
O185 Mg164 2.038 . S
O185 C166 1.274 . S
C186 C187 1.349 . S
C186 C188 1.327 . S
C186 H211 0.950 . S
C187 C186 1.349 . S
C187 C203 1.349 . S
C188 C186 1.327 . S
C188 C207 1.429 . S
C188 H212 0.950 . S
C189 C206 1.574 . S
C189 C208 1.368 . S
C189 H213 0.949 . S
H190 C194 0.949 . S
C191 C192 1.349 . S
C191 C193 1.327 . S
C191 H214 0.950 . S
C192 C191 1.349 . S
C192 C204 1.349 . S
C193 C191 1.327 . S
C193 C209 1.429 . S
C193 H215 0.950 . S
C194 H190 0.949 . S
C194 C202 1.574 . S
C194 C210 1.368 . S
H195 C203 0.950 . S
H196 C201 0.950 . S
H197 C202 0.949 . S
H198 C204 0.950 . S
H199 C205 0.950 . S
H200 C206 0.949 . S
C201 H196 0.950 . S
C201 C203 1.327 . S
C201 C207 1.429 . S
C202 C194 1.574 . S
C202 H197 0.949 . S
C202 C208 1.368 . S
C203 C187 1.349 . S
C203 H195 0.950 . S
C203 C201 1.327 . S
C204 C192 1.349 . S
C204 H198 0.950 . S
C204 C205 1.327 . S
C205 H199 0.950 . S
C205 C204 1.327 . S
C205 C209 1.429 . S
C206 C189 1.574 . S
C206 H200 0.949 . S
C206 C210 1.368 . S
C207 C188 1.429 . S
C207 C201 1.429 . S
C207 C208 1.523 . S
C208 C189 1.368 . S
C208 C202 1.368 . S
C208 C207 1.523 . S
C209 C193 1.429 . S
C209 C205 1.429 . S
C209 C210 1.523 . S
C210 C194 1.368 . S
C210 C206 1.368 . S
C210 C209 1.523 . S
H211 C186 0.950 . S
H212 C188 0.950 . S
H213 C189 0.949 . S
H214 C191 0.950 . S
H215 C193 0.950 . S
C216 C217 1.349 . S
C216 C218 1.327 . S
C216 H241 0.950 . S
C217 C216 1.349 . S
C217 C233 1.349 . S
C218 C216 1.327 . S
C218 C237 1.429 . S
C218 H242 0.950 . S
C219 C236 1.574 . S
C219 C238 1.368 . S
C219 H243 0.949 . S
H220 C224 0.949 . S
C221 C222 1.349 . S
C221 C223 1.327 . S
C221 H244 0.950 . S
C222 C221 1.349 . S
C222 C234 1.349 . S
C223 C221 1.327 . S
C223 C239 1.429 . S
C223 H245 0.950 . S
C224 H220 0.949 . S
C224 C232 1.574 . S
C224 C240 1.368 . S
H225 C233 0.950 . S
H226 C231 0.950 . S
H227 C232 0.949 . S
H228 C234 0.950 . S
H229 C235 0.950 . S
H230 C236 0.949 . S
C231 H226 0.950 . S
C231 C233 1.327 . S
C231 C237 1.429 . S
C232 C224 1.574 . S
C232 H227 0.949 . S
C232 C238 1.368 . S
C233 C217 1.349 . S
C233 H225 0.950 . S
C233 C231 1.327 . S
C234 C222 1.349 . S
C234 H228 0.950 . S
C234 C235 1.327 . S
C235 H229 0.950 . S
C235 C234 1.327 . S
C235 C239 1.429 . S
C236 C219 1.574 . S
C236 H230 0.949 . S
C236 C240 1.368 . S
C237 C218 1.429 . S
C237 C231 1.429 . S
C237 C238 1.523 . S
C238 C219 1.368 . S
C238 C232 1.368 . S
C238 C237 1.523 . S
C239 C223 1.429 . S
C239 C235 1.429 . S
C239 C240 1.523 . S
C240 C224 1.368 . S
C240 C236 1.368 . S
C240 C239 1.523 . S
H241 C216 0.950 . S
H242 C218 0.950 . S
H243 C219 0.949 . S
H244 C221 0.950 . S
H245 C223 0.950 . S
C246 C247 1.349 . S
C246 C248 1.327 1_554 S
C246 H271 0.950 . S
C247 C246 1.349 . S
C247 C263 1.349 . S
C248 C246 1.327 1_556 S
C248 C267 1.429 . S
C248 H272 0.950 . S
C249 C266 1.574 . S
C249 C268 1.368 . S
C249 H273 0.949 . S
H250 C254 0.949 . S
C251 C252 1.349 . S
C251 C253 1.327 . S
C251 H274 0.950 . S
C252 C251 1.349 . S
C252 C264 1.349 . S
C253 C251 1.327 . S
C253 C269 1.429 . S
C253 H275 0.950 . S
C254 H250 0.949 . S
C254 C262 1.574 . S
C254 C270 1.368 . S
H255 C263 0.950 . S
H256 C261 0.950 . S
H257 C262 0.949 . S
H258 C264 0.950 . S
H259 C265 0.950 . S
H260 C266 0.949 . S
C261 H256 0.950 . S
C261 C263 1.327 1_556 S
C261 C267 1.429 . S
C262 C254 1.574 . S
C262 H257 0.949 . S
C262 C268 1.368 . S
C263 C247 1.349 . S
C263 H255 0.950 . S
C263 C261 1.327 1_554 S
C264 C252 1.349 . S
C264 H258 0.950 . S
C264 C265 1.327 . S
C265 H259 0.950 . S
C265 C264 1.327 . S
C265 C269 1.429 . S
C266 C249 1.574 . S
C266 H260 0.949 . S
C266 C270 1.368 . S
C267 C248 1.429 . S
C267 C261 1.429 . S
C267 C268 1.523 . S
C268 C249 1.368 . S
C268 C262 1.368 . S
C268 C267 1.523 . S
C269 C253 1.429 . S
C269 C265 1.429 . S
C269 C270 1.523 . S
C270 C254 1.368 . S
C270 C266 1.368 . S
C270 C269 1.523 . S
H271 C246 0.950 . S
H272 C248 0.950 . S
H273 C249 0.949 . S
H274 C251 0.950 . S
H275 C253 0.950 . S
C276 C277 1.349 . S
C276 C278 1.327 . S
C276 H301 0.950 . S
C277 C276 1.349 . S
C277 C293 1.349 . S
C278 C276 1.327 . S
C278 C297 1.429 . S
C278 H302 0.950 . S
C279 C296 1.574 1_554 S
C279 C298 1.368 . S
C279 H303 0.949 . S
H280 C284 0.949 . S
C281 C282 1.349 . S
C281 C283 1.327 . S
C281 H304 0.950 . S
C282 C281 1.349 . S
C282 C294 1.349 . S
C283 C281 1.327 . S
C283 C299 1.429 . S
C283 H305 0.950 . S
C284 H280 0.949 . S
C284 C292 1.574 1_556 S
C284 C300 1.368 . S
H285 C293 0.950 . S
H286 C291 0.950 . S
H287 C292 0.949 . S
H288 C294 0.950 . S
H289 C295 0.950 . S
H290 C296 0.949 . S
C291 H286 0.950 . S
C291 C293 1.327 . S
C291 C297 1.429 . S
C292 C284 1.574 1_554 S
C292 H287 0.949 . S
C292 C298 1.368 . S
C293 C277 1.349 . S
C293 H285 0.950 . S
C293 C291 1.327 . S
C294 C282 1.349 . S
C294 H288 0.950 . S
C294 C295 1.327 . S
C295 H289 0.950 . S
C295 C294 1.327 . S
C295 C299 1.429 . S
C296 C279 1.574 1_556 S
C296 H290 0.949 . S
C296 C300 1.368 . S
C297 C278 1.429 . S
C297 C291 1.429 . S
C297 C298 1.523 . S
C298 C279 1.368 . S
C298 C292 1.368 . S
C298 C297 1.523 . S
C299 C283 1.429 . S
C299 C295 1.429 . S
C299 C300 1.523 . S
C300 C284 1.368 . S
C300 C296 1.368 . S
C300 C299 1.523 . S
H301 C276 0.950 . S
H302 C278 0.950 . S
H303 C279 0.949 . S
H304 C281 0.950 . S
H305 C283 0.950 . S
C306 C307 1.349 . S
C306 C308 1.327 1_556 S
C306 H331 0.950 . S
C307 C306 1.349 . S
C307 C323 1.349 . S
C308 C306 1.327 1_554 S
C308 C327 1.429 . S
C308 H332 0.950 . S
C309 C326 1.574 . S
C309 C328 1.368 . S
C309 H333 0.949 . S
H310 C314 0.949 . S
C311 C312 1.349 . S
C311 C313 1.327 . S
C311 H334 0.950 . S
C312 C311 1.349 . S
C312 C324 1.349 . S
C313 C311 1.327 . S
C313 C329 1.429 . S
C313 H335 0.950 . S
C314 H310 0.949 . S
C314 C322 1.574 . S
C314 C330 1.368 . S
H315 C323 0.950 . S
H316 C321 0.950 . S
H317 C322 0.949 . S
H318 C324 0.950 . S
H319 C325 0.950 . S
H320 C326 0.949 . S
C321 H316 0.950 . S
C321 C323 1.327 1_554 S
C321 C327 1.429 . S
C322 C314 1.574 . S
C322 H317 0.949 . S
C322 C328 1.368 . S
C323 C307 1.349 . S
C323 H315 0.950 . S
C323 C321 1.327 1_556 S
C324 C312 1.349 . S
C324 H318 0.950 . S
C324 C325 1.327 . S
C325 H319 0.950 . S
C325 C324 1.327 . S
C325 C329 1.429 . S
C326 C309 1.574 . S
C326 H320 0.949 . S
C326 C330 1.368 . S
C327 C308 1.429 . S
C327 C321 1.429 . S
C327 C328 1.523 . S
C328 C309 1.368 . S
C328 C322 1.368 . S
C328 C327 1.523 . S
C329 C313 1.429 . S
C329 C325 1.429 . S
C329 C330 1.523 . S
C330 C314 1.368 . S
C330 C326 1.368 . S
C330 C329 1.523 . S
H331 C306 0.950 . S
H332 C308 0.950 . S
H333 C309 0.949 . S
H334 C311 0.950 . S
H335 C313 0.950 . S
C336 C337 1.349 . S
C336 C338 1.327 . S
C336 H361 0.950 . S
C337 C336 1.349 . S
C337 C353 1.349 . S
C338 C336 1.327 . S
C338 C357 1.429 . S
C338 H362 0.950 . S
C339 C356 1.574 . S
C339 C358 1.368 . S
C339 H363 0.949 . S
H340 C344 0.949 . S
C341 C342 1.349 . S
C341 C343 1.327 . S
C341 H364 0.950 . S
C342 C341 1.349 . S
C342 C354 1.349 . S
C343 C341 1.327 . S
C343 C359 1.429 . S
C343 H365 0.950 . S
C344 H340 0.949 . S
C344 C352 1.574 . S
C344 C360 1.368 . S
H345 C353 0.950 . S
H346 C351 0.950 . S
H347 C352 0.949 . S
H348 C354 0.950 . S
H349 C355 0.950 . S
H350 C356 0.949 . S
C351 H346 0.950 . S
C351 C353 1.327 . S
C351 C357 1.429 . S
C352 C344 1.574 . S
C352 H347 0.949 . S
C352 C358 1.368 . S
C353 C337 1.349 . S
C353 H345 0.950 . S
C353 C351 1.327 . S
C354 C342 1.349 . S
C354 H348 0.950 . S
C354 C355 1.327 . S
C355 H349 0.950 . S
C355 C354 1.327 . S
C355 C359 1.429 . S
C356 C339 1.574 . S
C356 H350 0.949 . S
C356 C360 1.368 . S
C357 C338 1.429 . S
C357 C351 1.429 . S
C357 C358 1.523 . S
C358 C339 1.368 . S
C358 C352 1.368 . S
C358 C357 1.523 . S
C359 C343 1.429 . S
C359 C355 1.429 . S
C359 C360 1.523 . S
C360 C344 1.368 . S
C360 C356 1.368 . S
C360 C359 1.523 . S
H361 C336 0.950 . S
H362 C338 0.950 . S
H363 C339 0.949 . S
H364 C341 0.950 . S
H365 C343 0.950 . S
C366 C367 1.349 . S
C366 C368 1.327 . S
C366 H391 0.950 . S
C367 C366 1.349 . S
C367 C383 1.349 . S
C368 C366 1.327 . S
C368 C387 1.429 . S
C368 H392 0.950 . S
C369 C386 1.574 . S
C369 C388 1.368 . S
C369 H393 0.949 . S
H370 C374 0.949 . S
C371 C372 1.349 . S
C371 C373 1.327 . S
C371 H394 0.950 . S
C372 C371 1.349 . S
C372 C384 1.349 . S
C373 C371 1.327 . S
C373 C389 1.429 . S
C373 H395 0.950 . S
C374 H370 0.949 . S
C374 C382 1.574 . S
C374 C390 1.368 . S
H375 C383 0.950 . S
H376 C381 0.950 . S
H377 C382 0.949 . S
H378 C384 0.950 . S
H379 C385 0.950 . S
H380 C386 0.949 . S
C381 H376 0.950 . S
C381 C383 1.327 . S
C381 C387 1.429 . S
C382 C374 1.574 . S
C382 H377 0.949 . S
C382 C388 1.368 . S
C383 C367 1.349 . S
C383 H375 0.950 . S
C383 C381 1.327 . S
C384 C372 1.349 . S
C384 H378 0.950 . S
C384 C385 1.327 . S
C385 H379 0.950 . S
C385 C384 1.327 . S
C385 C389 1.429 . S
C386 C369 1.574 . S
C386 H380 0.949 . S
C386 C390 1.368 . S
C387 C368 1.429 . S
C387 C381 1.429 . S
C387 C388 1.523 . S
C388 C369 1.368 . S
C388 C382 1.368 . S
C388 C387 1.523 . S
C389 C373 1.429 . S
C389 C385 1.429 . S
C389 C390 1.523 . S
C390 C374 1.368 . S
C390 C386 1.368 . S
C390 C389 1.523 . S
H391 C366 0.950 . S
H392 C368 0.950 . S
H393 C369 0.949 . S
H394 C371 0.950 . S
H395 C373 0.950 . S
C396 C397 1.349 1_556 S
C396 C398 1.327 . S
C396 H421 0.950 . S
C397 C396 1.349 1_554 S
C397 C413 1.349 . S
C398 C396 1.327 . S
C398 C417 1.429 1_556 S
C398 H422 0.950 . S
C399 C416 1.573 1_554 S
C399 C418 1.368 1_554 S
C399 H423 0.949 . S
H400 C404 0.949 . S
C401 C402 1.349 . S
C401 C403 1.327 . S
C401 H424 0.950 . S
C402 C401 1.349 . S
C402 C414 1.349 . S
C403 C401 1.327 . S
C403 C419 1.429 . S
C403 H425 0.950 . S
C404 H400 0.949 . S
C404 C412 1.574 . S
C404 C420 1.368 . S
H405 C413 0.950 . S
H406 C411 0.950 . S
H407 C412 0.949 . S
H408 C414 0.950 . S
H409 C415 0.950 . S
H410 C416 0.948 1_554 S
C411 H406 0.950 . S
C411 C413 1.327 . S
C411 C417 1.429 . S
C412 C404 1.574 . S
C412 H407 0.949 . S
C412 C418 1.368 . S
C413 C397 1.349 . S
C413 H405 0.950 . S
C413 C411 1.327 . S
C414 C402 1.349 . S
C414 H408 0.950 . S
C414 C415 1.327 . S
C415 H409 0.950 . S
C415 C414 1.327 . S
C415 C419 1.429 . S
C416 C399 1.573 1_556 S
C416 H410 0.948 1_556 S
C416 C420 1.371 . S
C417 C398 1.429 1_554 S
C417 C411 1.429 . S
C417 C418 1.523 1_554 S
C418 C399 1.368 1_556 S
C418 C412 1.368 . S
C418 C417 1.523 1_556 S
C419 C403 1.429 . S
C419 C415 1.429 . S
C419 C420 1.523 . S
C420 C404 1.368 . S
C420 C416 1.371 . S
C420 C419 1.523 . S
H421 C396 0.950 . S
H422 C398 0.950 . S
H423 C399 0.949 . S
H424 C401 0.950 . S
H425 C403 0.950 . S
C426 C427 1.349 . S
C426 C428 1.327 . S
C426 H451 0.950 1_554 S
C427 C426 1.349 . S
C427 C443 1.349 . S
C428 C426 1.327 . S
C428 C447 1.429 . S
C428 H452 0.950 . S
C429 C446 1.574 . S
C429 C448 1.368 . S
C429 H453 0.949 . S
H430 C434 0.949 . S
C431 C432 1.349 . S
C431 C433 1.327 . S
C431 H454 0.950 . S
C432 C431 1.349 . S
C432 C444 1.349 . S
C433 C431 1.327 . S
C433 C449 1.429 . S
C433 H455 0.950 . S
C434 H430 0.949 . S
C434 C442 1.574 . S
C434 C450 1.368 . S
H435 C443 0.950 . S
H436 C441 0.950 . S
H437 C442 0.949 . S
H438 C444 0.950 . S
H439 C445 0.950 . S
H440 C446 0.949 . S
C441 H436 0.950 . S
C441 C443 1.327 . S
C441 C447 1.429 . S
C442 C434 1.574 . S
C442 H437 0.949 . S
C442 C448 1.368 . S
C443 C427 1.349 . S
C443 H435 0.950 . S
C443 C441 1.327 . S
C444 C432 1.349 . S
C444 H438 0.950 . S
C444 C445 1.327 . S
C445 H439 0.950 . S
C445 C444 1.327 . S
C445 C449 1.429 . S
C446 C429 1.574 . S
C446 H440 0.949 . S
C446 C450 1.368 . S
C447 C428 1.429 . S
C447 C441 1.429 . S
C447 C448 1.523 . S
C448 C429 1.368 . S
C448 C442 1.368 . S
C448 C447 1.523 . S
C449 C433 1.429 . S
C449 C445 1.429 . S
C449 C450 1.523 . S
C450 C434 1.368 . S
C450 C446 1.368 . S
C450 C449 1.523 . S
H451 C426 0.950 1_556 S
H452 C428 0.950 . S
H453 C429 0.949 . S
H454 C431 0.950 . S
H455 C433 0.950 . S
C456 C457 1.349 . S
C456 C458 1.327 . S
C456 H481 0.950 . S
C457 C456 1.349 . S
C457 C473 1.349 . S
C458 C456 1.327 . S
C458 C477 1.429 . S
C458 H482 0.950 . S
C459 C476 1.574 . S
C459 C478 1.368 . S
C459 H483 0.949 . S
H460 C464 0.949 . S
C461 C462 1.349 . S
C461 C463 1.327 . S
C461 H484 0.950 . S
C462 C461 1.349 . S
C462 C474 1.349 . S
C463 C461 1.327 . S
C463 C479 1.429 . S
C463 H485 0.950 . S
C464 H460 0.949 . S
C464 C472 1.574 . S
C464 C480 1.368 . S
H465 C473 0.950 . S
H466 C471 0.950 . S
H467 C472 0.949 . S
H468 C474 0.950 . S
H469 C475 0.950 . S
H470 C476 0.949 . S
C471 H466 0.950 . S
C471 C473 1.327 . S
C471 C477 1.429 . S
C472 C464 1.574 . S
C472 H467 0.949 . S
C472 C478 1.368 . S
C473 C457 1.349 . S
C473 H465 0.950 . S
C473 C471 1.327 . S
C474 C462 1.349 . S
C474 H468 0.950 . S
C474 C475 1.327 . S
C475 H469 0.950 . S
C475 C474 1.327 . S
C475 C479 1.429 . S
C476 C459 1.574 . S
C476 H470 0.949 . S
C476 C480 1.368 . S
C477 C458 1.429 . S
C477 C471 1.429 . S
C477 C478 1.523 . S
C478 C459 1.368 . S
C478 C472 1.368 . S
C478 C477 1.523 . S
C479 C463 1.429 . S
C479 C475 1.429 . S
C479 C480 1.523 . S
C480 C464 1.368 . S
C480 C476 1.368 . S
C480 C479 1.523 . S
H481 C456 0.950 . S
H482 C458 0.950 . S
H483 C459 0.949 . S
H484 C461 0.950 . S
H485 C463 0.950 . S
C486 C487 1.349 . S
C486 C488 1.327 . S
C486 H511 0.950 . S
C487 C486 1.349 . S
C487 C503 1.349 . S
C488 C486 1.327 . S
C488 C507 1.429 . S
C488 H512 0.950 . S
C489 C506 1.574 . S
C489 C508 1.368 . S
C489 H513 0.949 . S
H490 C494 0.949 . S
C491 C492 1.349 . S
C491 C493 1.327 . S
C491 H514 0.950 . S
C492 C491 1.349 . S
C492 C504 1.349 . S
C493 C491 1.327 . S
C493 C509 1.429 . S
C493 H515 0.950 . S
C494 H490 0.949 . S
C494 C502 1.574 . S
C494 C510 1.368 . S
H495 C503 0.950 . S
H496 C501 0.950 . S
H497 C502 0.949 . S
H498 C504 0.950 . S
H499 C505 0.950 . S
H500 C506 0.949 . S
C501 H496 0.950 . S
C501 C503 1.327 . S
C501 C507 1.429 . S
C502 C494 1.574 . S
C502 H497 0.949 . S
C502 C508 1.368 . S
C503 C487 1.349 . S
C503 H495 0.950 . S
C503 C501 1.327 . S
C504 C492 1.349 . S
C504 H498 0.950 . S
C504 C505 1.327 . S
C505 H499 0.950 . S
C505 C504 1.327 . S
C505 C509 1.429 . S
C506 C489 1.574 . S
C506 H500 0.949 . S
C506 C510 1.368 . S
C507 C488 1.429 . S
C507 C501 1.429 . S
C507 C508 1.523 . S
C508 C489 1.368 . S
C508 C502 1.368 . S
C508 C507 1.523 . S
C509 C493 1.429 . S
C509 C505 1.429 . S
C509 C510 1.523 . S
C510 C494 1.368 . S
C510 C506 1.368 . S
C510 C509 1.523 . S
H511 C486 0.950 . S
H512 C488 0.950 . S
H513 C489 0.949 . S
H514 C491 0.950 . S
H515 C493 0.950 . S
C516 C517 1.349 . S
C516 C518 1.327 . S
C516 H541 0.950 . S
C517 C516 1.349 . S
C517 C533 1.349 . S
C518 C516 1.327 . S
C518 C537 1.429 . S
C518 H542 0.950 . S
C519 C536 1.574 . S
C519 C538 1.368 . S
C519 H543 0.949 . S
H520 C524 0.949 . S
C521 C522 1.349 . S
C521 C523 1.327 . S
C521 H544 0.950 . S
C522 C521 1.349 . S
C522 C534 1.349 . S
C523 C521 1.327 . S
C523 C539 1.429 . S
C523 H545 0.950 . S
C524 H520 0.949 . S
C524 C532 1.574 . S
C524 C540 1.368 . S
H525 C533 0.950 . S
H526 C531 0.950 . S
H527 C532 0.949 . S
H528 C534 0.950 . S
H529 C535 0.950 . S
H530 C536 0.949 . S
C531 H526 0.950 . S
C531 C533 1.327 . S
C531 C537 1.429 . S
C532 C524 1.574 . S
C532 H527 0.949 . S
C532 C538 1.368 . S
C533 C517 1.349 . S
C533 H525 0.950 . S
C533 C531 1.327 . S
C534 C522 1.349 . S
C534 H528 0.950 . S
C534 C535 1.327 . S
C535 H529 0.950 . S
C535 C534 1.327 . S
C535 C539 1.429 . S
C536 C519 1.574 . S
C536 H530 0.949 . S
C536 C540 1.368 . S
C537 C518 1.429 . S
C537 C531 1.429 . S
C537 C538 1.523 . S
C538 C519 1.368 . S
C538 C532 1.368 . S
C538 C537 1.523 . S
C539 C523 1.429 . S
C539 C535 1.429 . S
C539 C540 1.523 . S
C540 C524 1.368 . S
C540 C536 1.368 . S
C540 C539 1.523 . S
H541 C516 0.950 . S
H542 C518 0.950 . S
H543 C519 0.949 . S
H544 C521 0.950 . S
H545 C523 0.950 . S
C546 C547 1.349 . S
C546 C548 1.327 . S
C546 H571 0.950 . S
C547 C546 1.349 . S
C547 C563 1.349 . S
C548 C546 1.327 . S
C548 C567 1.429 . S
C548 H572 0.950 . S
C549 C566 1.574 . S
C549 C568 1.368 . S
C549 H573 0.949 . S
H550 C554 0.949 . S
C551 C552 1.349 . S
C551 C553 1.327 1_565 S
C551 H574 0.950 . S
C552 C551 1.349 . S
C552 C564 1.349 . S
C553 C551 1.327 1_545 S
C553 C569 1.429 . S
C553 H575 0.950 . S
C554 H550 0.949 . S
C554 C562 1.574 . S
C554 C570 1.368 . S
H555 C563 0.950 1_556 S
H556 C561 0.950 . S
H557 C562 0.949 . S
H558 C564 0.950 . S
H559 C565 0.950 . S
H560 C566 0.949 . S
C561 H556 0.950 . S
C561 C563 1.327 . S
C561 C567 1.429 . S
C562 C554 1.574 . S
C562 H557 0.949 . S
C562 C568 1.368 . S
C563 C547 1.349 . S
C563 H555 0.950 1_554 S
C563 C561 1.327 . S
C564 C552 1.349 . S
C564 H558 0.950 . S
C564 C565 1.327 1_565 S
C565 H559 0.950 . S
C565 C564 1.327 1_545 S
C565 C569 1.429 . S
C566 C549 1.574 . S
C566 H560 0.949 . S
C566 C570 1.368 . S
C567 C548 1.429 . S
C567 C561 1.429 . S
C567 C568 1.523 . S
C568 C549 1.368 . S
C568 C562 1.368 . S
C568 C567 1.523 . S
C569 C553 1.429 . S
C569 C565 1.429 . S
C569 C570 1.523 . S
C570 C554 1.368 . S
C570 C566 1.368 . S
C570 C569 1.523 . S
H571 C546 0.950 . S
H572 C548 0.950 . S
H573 C549 0.949 . S
H574 C551 0.950 . S
H575 C553 0.950 . S
C576 C577 1.349 . S
C576 C578 1.327 . S
C576 H601 0.950 . S
C577 C576 1.349 . S
C577 C593 1.349 . S
C578 C576 1.327 . S
C578 C597 1.429 . S
C578 H602 0.950 . S
C579 C596 1.574 . S
C579 C598 1.368 . S
C579 H603 0.949 . S
H580 C584 0.949 . S
C581 C582 1.349 . S
C581 C583 1.327 . S
C581 H604 0.950 . S
C582 C581 1.349 . S
C582 C594 1.349 . S
C583 C581 1.327 . S
C583 C599 1.429 . S
C583 H605 0.950 . S
C584 H580 0.949 . S
C584 C592 1.574 . S
C584 C600 1.368 . S
H585 C593 0.950 . S
H586 C591 0.950 . S
H587 C592 0.949 . S
H588 C594 0.950 . S
H589 C595 0.950 . S
H590 C596 0.949 . S
C591 H586 0.950 . S
C591 C593 1.327 . S
C591 C597 1.429 . S
C592 C584 1.574 . S
C592 H587 0.949 . S
C592 C598 1.368 . S
C593 C577 1.349 . S
C593 H585 0.950 . S
C593 C591 1.327 . S
C594 C582 1.349 . S
C594 H588 0.950 . S
C594 C595 1.327 . S
C595 H589 0.950 . S
C595 C594 1.327 . S
C595 C599 1.429 . S
C596 C579 1.574 . S
C596 H590 0.949 . S
C596 C600 1.368 . S
C597 C578 1.429 . S
C597 C591 1.429 . S
C597 C598 1.523 . S
C598 C579 1.368 . S
C598 C592 1.368 . S
C598 C597 1.523 . S
C599 C583 1.429 . S
C599 C595 1.429 . S
C599 C600 1.523 . S
C600 C584 1.368 . S
C600 C596 1.368 . S
C600 C599 1.523 . S
H601 C576 0.950 . S
H602 C578 0.950 . S
H603 C579 0.949 . S
H604 C581 0.950 . S
H605 C583 0.950 . S
C606 C607 1.349 . S
C606 C608 1.327 1_455 S
C606 H631 0.950 . S
C607 C606 1.349 . S
C607 C623 1.349 . S
C608 C606 1.327 1_655 S
C608 C627 1.429 . S
C608 H632 0.950 . S
C609 C626 1.574 . S
C609 C628 1.368 . S
C609 H633 0.949 . S
H610 C614 0.949 . S
C611 C612 1.349 . S
C611 C613 1.327 . S
C611 H634 0.950 . S
C612 C611 1.349 . S
C612 C624 1.349 . S
C613 C611 1.327 . S
C613 C629 1.429 . S
C613 H635 0.950 . S
C614 H610 0.949 . S
C614 C622 1.574 . S
C614 C630 1.368 . S
H615 C623 0.950 . S
H616 C621 0.950 . S
H617 C622 0.949 . S
H618 C624 0.950 . S
H619 C625 0.950 . S
H620 C626 0.949 . S
C621 H616 0.950 . S
C621 C623 1.327 1_655 S
C621 C627 1.429 . S
C622 C614 1.574 . S
C622 H617 0.949 . S
C622 C628 1.368 . S
C623 C607 1.349 . S
C623 H615 0.950 . S
C623 C621 1.327 1_455 S
C624 C612 1.349 . S
C624 H618 0.950 . S
C624 C625 1.327 . S
C625 H619 0.950 . S
C625 C624 1.327 . S
C625 C629 1.429 . S
C626 C609 1.574 . S
C626 H620 0.949 . S
C626 C630 1.368 . S
C627 C608 1.429 . S
C627 C621 1.429 . S
C627 C628 1.523 . S
C628 C609 1.368 . S
C628 C622 1.368 . S
C628 C627 1.523 . S
C629 C613 1.429 . S
C629 C625 1.429 . S
C629 C630 1.523 . S
C630 C614 1.368 . S
C630 C626 1.368 . S
C630 C629 1.523 . S
H631 C606 0.950 . S
H632 C608 0.950 . S
H633 C609 0.949 . S
H634 C611 0.950 . S
H635 C613 0.950 . S
C636 C637 1.349 . S
C636 C638 1.327 . S
C636 H661 0.950 . S
C637 C636 1.349 . S
C637 C653 1.349 . S
C638 C636 1.327 . S
C638 C657 1.429 . S
C638 H662 0.950 . S
C639 C656 1.574 . S
C639 C658 1.368 . S
C639 H663 0.949 . S
H640 C644 0.949 . S
C641 C642 1.349 . S
C641 C643 1.327 1_545 S
C641 H664 0.950 . S
C642 C641 1.349 . S
C642 C654 1.349 . S
C643 C641 1.327 1_565 S
C643 C659 1.429 . S
C643 H665 0.950 . S
C644 H640 0.949 . S
C644 C652 1.574 . S
C644 C660 1.368 . S
H645 C653 0.950 . S
H646 C651 0.950 . S
H647 C652 0.949 . S
H648 C654 0.950 . S
H649 C655 0.950 . S
H650 C656 0.949 . S
C651 H646 0.950 . S
C651 C653 1.327 . S
C651 C657 1.429 . S
C652 C644 1.574 . S
C652 H647 0.949 . S
C652 C658 1.368 . S
C653 C637 1.349 . S
C653 H645 0.950 . S
C653 C651 1.327 . S
C654 C642 1.349 . S
C654 H648 0.950 . S
C654 C655 1.327 1_545 S
C655 H649 0.950 . S
C655 C654 1.327 1_565 S
C655 C659 1.429 . S
C656 C639 1.574 . S
C656 H650 0.949 . S
C656 C660 1.368 . S
C657 C638 1.429 . S
C657 C651 1.429 . S
C657 C658 1.523 . S
C658 C639 1.368 . S
C658 C652 1.368 . S
C658 C657 1.523 . S
C659 C643 1.429 . S
C659 C655 1.429 . S
C659 C660 1.523 . S
C660 C644 1.368 . S
C660 C656 1.368 . S
C660 C659 1.523 . S
H661 C636 0.950 . S
H662 C638 0.950 . S
H663 C639 0.949 . S
H664 C641 0.950 . S
H665 C643 0.950 . S
C666 C667 1.349 . S
C666 C668 1.327 . S
C666 H691 0.950 . S
C667 C666 1.349 . S
C667 C683 1.349 . S
C668 C666 1.327 . S
C668 C687 1.429 . S
C668 H692 0.950 . S
C669 C686 1.574 . S
C669 C688 1.368 . S
C669 H693 0.949 . S
H670 C674 0.949 . S
C671 C672 1.349 . S
C671 C673 1.327 . S
C671 H694 0.950 . S
C672 C671 1.349 . S
C672 C684 1.349 . S
C673 C671 1.327 . S
C673 C689 1.429 . S
C673 H695 0.950 . S
C674 H670 0.949 . S
C674 C682 1.574 . S
C674 C690 1.368 . S
H675 C683 0.950 . S
H676 C681 0.950 . S
H677 C682 0.949 . S
H678 C684 0.950 . S
H679 C685 0.950 . S
H680 C686 0.949 . S
C681 H676 0.950 . S
C681 C683 1.327 . S
C681 C687 1.429 . S
C682 C674 1.574 . S
C682 H677 0.949 . S
C682 C688 1.368 . S
C683 C667 1.349 . S
C683 H675 0.950 . S
C683 C681 1.327 . S
C684 C672 1.349 . S
C684 H678 0.950 . S
C684 C685 1.327 . S
C685 H679 0.950 . S
C685 C684 1.327 . S
C685 C689 1.429 . S
C686 C669 1.574 . S
C686 H680 0.949 . S
C686 C690 1.368 . S
C687 C668 1.429 . S
C687 C681 1.429 . S
C687 C688 1.523 . S
C688 C669 1.368 . S
C688 C682 1.368 . S
C688 C687 1.523 . S
C689 C673 1.429 . S
C689 C685 1.429 . S
C689 C690 1.523 . S
C690 C674 1.368 . S
C690 C686 1.368 . S
C690 C689 1.523 . S
H691 C666 0.950 . S
H692 C668 0.950 . S
H693 C669 0.949 . S
H694 C671 0.950 . S
H695 C673 0.950 . S
C696 C697 1.349 . S
C696 C698 1.327 1_655 S
C696 H721 0.950 1_556 S
C697 C696 1.349 . S
C697 C713 1.349 . S
C698 C696 1.327 1_455 S
C698 C717 1.429 . S
C698 H722 0.950 1_556 S
C699 C716 1.574 . S
C699 C718 1.368 . S
C699 H723 0.949 . S
H700 C704 0.949 1_554 S
C701 C702 1.349 . S
C701 C703 1.327 . S
C701 H724 0.950 . S
C702 C701 1.349 . S
C702 C714 1.349 . S
C703 C701 1.327 . S
C703 C719 1.429 . S
C703 H725 0.950 . S
C704 H700 0.949 1_556 S
C704 C712 1.574 . S
C704 C720 1.368 . S
H705 C713 0.950 . S
H706 C711 0.950 . S
H707 C712 0.949 1_554 S
H708 C714 0.950 . S
H709 C715 0.950 . S
H710 C716 0.949 . S
C711 H706 0.950 . S
C711 C713 1.327 1_455 S
C711 C717 1.429 . S
C712 C704 1.574 . S
C712 H707 0.949 1_556 S
C712 C718 1.368 . S
C713 C697 1.349 . S
C713 H705 0.950 . S
C713 C711 1.327 1_655 S
C714 C702 1.349 . S
C714 H708 0.950 . S
C714 C715 1.327 . S
C715 H709 0.950 . S
C715 C714 1.327 . S
C715 C719 1.429 . S
C716 C699 1.574 . S
C716 H710 0.949 . S
C716 C720 1.368 . S
C717 C698 1.429 . S
C717 C711 1.429 . S
C717 C718 1.523 . S
C718 C699 1.368 . S
C718 C712 1.368 . S
C718 C717 1.523 . S
C719 C703 1.429 . S
C719 C715 1.429 . S
C719 C720 1.523 . S
C720 C704 1.368 . S
C720 C716 1.368 . S
C720 C719 1.523 . S
H721 C696 0.950 1_554 S
H722 C698 0.950 1_554 S
H723 C699 0.949 . S
H724 C701 0.950 . S
H725 C703 0.950 . S
C726 C727 1.349 . S
C726 C728 1.327 . S
C726 H751 0.950 . S
C727 C726 1.349 . S
C727 C743 1.349 . S
C728 C726 1.327 . S
C728 C747 1.429 1_655 S
C728 H752 0.950 . S
C729 C746 1.574 . S
C729 C748 1.368 . S
C729 H753 0.949 . S
H730 C734 0.949 . S
C731 C732 1.349 . S
C731 C733 1.327 . S
C731 H754 0.950 . S
C732 C731 1.349 . S
C732 C744 1.349 . S
C733 C731 1.327 . S
C733 C749 1.429 . S
C733 H755 0.950 . S
C734 H730 0.949 . S
C734 C742 1.574 . S
C734 C750 1.368 . S
H735 C743 0.950 . S
H736 C741 0.970 . S
H737 C742 0.949 . S
H738 C744 0.950 . S
H739 C745 0.950 . S
H740 C746 0.949 . S
C741 H736 0.970 . S
C741 C743 1.328 1_455 S
C741 C747 1.410 . S
C742 C734 1.574 . S
C742 H737 0.949 . S
C742 C748 1.368 . S
C743 C727 1.349 . S
C743 H735 0.950 . S
C743 C741 1.328 1_655 S
C744 C732 1.349 . S
C744 H738 0.950 . S
C744 C745 1.327 . S
C745 H739 0.950 . S
C745 C744 1.327 . S
C745 C749 1.429 . S
C746 C729 1.574 . S
C746 H740 0.949 . S
C746 C750 1.368 . S
C747 C728 1.429 1_455 S
C747 C741 1.410 . S
C747 C748 1.523 . S
C748 C729 1.368 . S
C748 C742 1.368 . S
C748 C747 1.523 . S
C749 C733 1.429 . S
C749 C745 1.429 . S
C749 C750 1.523 . S
C750 C734 1.368 . S
C750 C746 1.368 . S
C750 C749 1.523 . S
H751 C726 0.950 . S
H752 C728 0.950 . S
H753 C729 0.949 . S
H754 C731 0.950 . S
H755 C733 0.950 . S
C756 C757 1.349 . S
C756 C758 1.327 . S
C756 H781 0.950 . S
C757 C756 1.349 . S
C757 C773 1.349 . S
C758 C756 1.327 . S
C758 C777 1.429 . S
C758 H782 0.950 . S
C759 C776 1.574 1_545 S
C759 C778 1.368 . S
C759 H783 0.949 . S
H760 C764 0.949 . S
C761 C762 1.349 . S
C761 C763 1.327 . S
C761 H784 0.950 . S
C762 C761 1.349 . S
C762 C774 1.349 1_565 S
C763 C761 1.327 . S
C763 C779 1.429 1_565 S
C763 H785 0.950 . S
C764 H760 0.949 . S
C764 C772 1.574 . S
C764 C780 1.368 . S
H765 C773 0.950 . S
H766 C771 0.950 . S
H767 C772 0.949 . S
H768 C774 0.950 . S
H769 C775 0.950 . S
H770 C776 0.949 . S
C771 H766 0.950 . S
C771 C773 1.327 . S
C771 C777 1.429 . S
C772 C764 1.574 . S
C772 H767 0.949 . S
C772 C778 1.368 . S
C773 C757 1.349 . S
C773 H765 0.950 . S
C773 C771 1.327 . S
C774 C762 1.349 1_545 S
C774 H768 0.950 . S
C774 C775 1.327 . S
C775 H769 0.950 . S
C775 C774 1.327 . S
C775 C779 1.429 . S
C776 C759 1.574 1_565 S
C776 H770 0.949 . S
C776 C780 1.368 1_565 S
C777 C758 1.429 . S
C777 C771 1.429 . S
C777 C778 1.523 . S
C778 C759 1.368 . S
C778 C772 1.368 . S
C778 C777 1.523 . S
C779 C763 1.429 1_545 S
C779 C775 1.429 . S
C779 C780 1.523 . S
C780 C764 1.368 . S
C780 C776 1.368 1_545 S
C780 C779 1.523 . S
H781 C756 0.950 . S
H782 C758 0.950 . S
H783 C759 0.949 . S
H784 C761 0.950 . S
H785 C763 0.950 . S
C786 C787 1.349 . S
C786 C788 1.327 . S
C786 H811 0.950 . S
C787 C786 1.349 . S
C787 C803 1.349 . S
C788 C786 1.327 . S
C788 C807 1.429 . S
C788 H812 0.950 . S
C789 C806 1.574 . S
C789 C808 1.368 . S
C789 H813 0.949 . S
H790 C794 0.949 . S
C791 C792 1.349 . S
C791 C793 1.327 . S
C791 H814 0.950 . S
C792 C791 1.349 . S
C792 C804 1.349 . S
C793 C791 1.327 . S
C793 C809 1.429 . S
C793 H815 0.950 . S
C794 H790 0.949 . S
C794 C802 1.574 . S
C794 C810 1.368 . S
H795 C803 0.950 . S
H796 C801 0.950 . S
H797 C802 0.949 . S
H798 C804 0.950 . S
H799 C805 0.950 . S
H800 C806 0.949 . S
C801 H796 0.950 . S
C801 C803 1.327 . S
C801 C807 1.429 . S
C802 C794 1.574 . S
C802 H797 0.949 . S
C802 C808 1.368 . S
C803 C787 1.349 . S
C803 H795 0.950 . S
C803 C801 1.327 . S
C804 C792 1.349 . S
C804 H798 0.950 . S
C804 C805 1.327 . S
C805 H799 0.950 . S
C805 C804 1.327 . S
C805 C809 1.429 . S
C806 C789 1.574 . S
C806 H800 0.949 . S
C806 C810 1.368 . S
C807 C788 1.429 . S
C807 C801 1.429 . S
C807 C808 1.523 . S
C808 C789 1.368 . S
C808 C802 1.368 . S
C808 C807 1.523 . S
C809 C793 1.429 . S
C809 C805 1.429 . S
C809 C810 1.523 . S
C810 C794 1.368 . S
C810 C806 1.368 . S
C810 C809 1.523 . S
H811 C786 0.950 . S
H812 C788 0.950 . S
H813 C789 0.949 . S
H814 C791 0.950 . S
H815 C793 0.950 . S
C816 C817 1.349 . S
C816 C818 1.327 1_455 S
C816 H841 0.950 . S
C817 C816 1.349 . S
C817 C833 1.349 . S
C818 C816 1.327 1_655 S
C818 C837 1.429 . S
C818 H842 0.950 . S
C819 C836 1.574 . S
C819 C838 1.368 . S
C819 H843 0.961 . S
H820 C824 0.949 . S
C821 C822 1.349 . S
C821 C823 1.327 . S
C821 H844 0.950 . S
C822 C821 1.349 . S
C822 C834 1.349 . S
C823 C821 1.327 . S
C823 C839 1.429 . S
C823 H845 0.950 . S
C824 H820 0.949 . S
C824 C832 1.574 . S
C824 C840 1.368 . S
H825 C833 0.950 . S
H826 C831 0.950 . S
H827 C832 0.949 . S
H828 C834 0.950 . S
H829 C835 0.950 . S
H830 C836 0.949 . S
C831 H826 0.950 . S
C831 C833 1.327 . S
C831 C837 1.429 1_455 S
C832 C824 1.574 . S
C832 H827 0.949 . S
C832 C838 1.368 . S
C833 C817 1.349 . S
C833 H825 0.950 . S
C833 C831 1.327 . S
C834 C822 1.349 . S
C834 H828 0.950 . S
C834 C835 1.327 . S
C835 H829 0.950 . S
C835 C834 1.327 . S
C835 C839 1.429 . S
C836 C819 1.574 . S
C836 H830 0.949 . S
C836 C840 1.368 . S
C837 C818 1.429 . S
C837 C831 1.429 1_655 S
C837 C838 1.523 . S
C838 C819 1.368 . S
C838 C832 1.368 . S
C838 C837 1.523 . S
C839 C823 1.429 . S
C839 C835 1.429 . S
C839 C840 1.523 . S
C840 C824 1.368 . S
C840 C836 1.368 . S
C840 C839 1.523 . S
H841 C816 0.950 . S
H842 C818 0.950 . S
H843 C819 0.961 . S
H844 C821 0.950 . S
H845 C823 0.950 . S
C846 C847 1.349 . S
C846 C848 1.327 . S
C846 H871 0.950 . S
C847 C846 1.349 . S
C847 C863 1.349 . S
C848 C846 1.327 . S
C848 C867 1.429 . S
C848 H872 0.950 . S
C849 C866 1.574 . S
C849 C868 1.368 . S
C849 H873 0.949 . S
H850 C854 0.949 . S
C851 C852 1.349 . S
C851 C853 1.327 . S
C851 H874 0.950 . S
C852 C851 1.349 . S
C852 C864 1.349 . S
C853 C851 1.327 . S
C853 C869 1.429 1_545 S
C853 H875 0.938 1_545 S
C854 H850 0.949 . S
C854 C862 1.574 1_556 S
C854 C870 1.368 . S
H855 C863 0.950 . S
H856 C861 0.950 1_556 S
H857 C862 0.949 . S
H858 C864 0.950 . S
H859 C865 0.950 1_565 S
H860 C866 0.949 . S
C861 H856 0.950 1_554 S
C861 C863 1.327 . S
C861 C867 1.429 . S
C862 C854 1.574 1_554 S
C862 H857 0.949 . S
C862 C868 1.368 1_554 S
C863 C847 1.349 . S
C863 H855 0.950 . S
C863 C861 1.327 . S
C864 C852 1.349 . S
C864 H858 0.950 . S
C864 C865 1.327 . S
C865 H859 0.950 1_545 S
C865 C864 1.327 . S
C865 C869 1.429 1_545 S
C866 C849 1.574 . S
C866 H860 0.949 . S
C866 C870 1.368 . S
C867 C848 1.429 . S
C867 C861 1.429 . S
C867 C868 1.523 1_554 S
C868 C849 1.368 . S
C868 C862 1.368 1_556 S
C868 C867 1.523 1_556 S
C869 C853 1.429 1_565 S
C869 C865 1.429 1_565 S
C869 C870 1.523 . S
C870 C854 1.368 . S
C870 C866 1.368 . S
C870 C869 1.523 . S
H871 C846 0.950 . S
H872 C848 0.950 . S
H873 C849 0.949 . S
H874 C851 0.950 . S
H875 C853 0.938 1_565 S
C876 C877 1.349 . S
C876 C878 1.327 . S
C876 H901 0.950 . S
C877 C876 1.349 . S
C877 C893 1.349 1_556 S
C878 C876 1.327 . S
C878 C897 1.429 1_556 S
C878 H902 0.950 . S
C879 C896 1.574 . S
C879 C898 1.368 . S
C879 H903 0.949 . S
H880 C884 0.949 . S
C881 C882 1.349 . S
C881 C883 1.327 . S
C881 H904 0.950 . S
C882 C881 1.349 . S
C882 C894 1.349 . S
C883 C881 1.327 . S
C883 C899 1.429 . S
C883 H905 0.950 . S
C884 H880 0.949 . S
C884 C892 1.574 . S
C884 C900 1.368 . S
H885 C893 0.950 . S
H886 C891 0.950 . S
H887 C892 0.949 . S
H888 C894 0.950 . S
H889 C895 0.950 . S
H890 C896 0.949 . S
C891 H886 0.950 . S
C891 C893 1.327 . S
C891 C897 1.429 . S
C892 C884 1.574 . S
C892 H887 0.949 . S
C892 C898 1.368 . S
C893 C877 1.349 1_554 S
C893 H885 0.950 . S
C893 C891 1.327 . S
C894 C882 1.349 . S
C894 H888 0.950 . S
C894 C895 1.327 . S
C895 H889 0.950 . S
C895 C894 1.327 . S
C895 C899 1.429 . S
C896 C879 1.574 . S
C896 H890 0.949 . S
C896 C900 1.368 . S
C897 C878 1.429 1_554 S
C897 C891 1.429 . S
C897 C898 1.523 . S
C898 C879 1.368 . S
C898 C892 1.368 . S
C898 C897 1.523 . S
C899 C883 1.429 . S
C899 C895 1.429 . S
C899 C900 1.523 . S
C900 C884 1.368 . S
C900 C896 1.368 . S
C900 C899 1.523 . S
H901 C876 0.950 . S
H902 C878 0.950 . S
H903 C879 0.949 . S
H904 C881 0.950 . S
H905 C883 0.950 . S
C187 C27 1.515 . S
C192 C1 1.515 . S
C217 C58 1.515 . S
C222 C32 1.515 . S
C247 C63 1.515 . S
C252 C89 1.515 . S
C277 C94 1.515 . S
C282 C120 1.515 . S
C307 C151 1.515 . S
C312 C125 1.515 . S
C337 C182 1.515 . S
C342 C156 1.515 . S
C367 C134 1.111 . S
C372 C0 1.121 . S
C397 C31 1.121 . S
C402 C165 1.111 . S
C427 C10 1.111 . S
C432 C62 1.121 . S
C457 C41 1.111 . S
C462 C93 1.121 . S
C487 C124 1.121 . S
C492 C72 1.111 . S
C517 C103 1.111 . S
C522 C155 1.121 . S
C547 C18 2.040 . S
C552 C33 2.034 . S
C577 C49 2.040 . S
C582 C64 2.034 . S
C607 C95 2.034 . S
C612 C80 2.040 . S
C637 C111 2.040 . S
C642 C126 2.034 . S
C667 C142 2.040 . S
C672 C157 2.034 . S
C697 C2 2.034 . S
C702 C173 2.040 . S
C727 C24 0.668 . S
C732 C104 0.584 . S
C757 C135 0.584 . S
C762 C55 0.668 . S
C787 C86 0.668 . S
C792 C166 0.584 . S
C817 C117 0.668 . S
C822 C11 0.584 . S
C847 C42 0.584 . S
C852 C148 0.668 . S
C877 C179 0.668 . S
C882 C73 0.584 . S
