# Generated by pormake.
# Topology zfy, (5)-cn, num edge types: 1
# Building blocks:
#     Node 0, Type 0, BuildingBlock: XOMCOT_clean_sbu_1, # of connection points: 5
#     Node 1, Type 0, BuildingBlock: XOMCOT_clean_sbu_1, # of connection points: 5
#     Node 2, Type 0, BuildingBlock: XOMCOT_clean_sbu_1, # of connection points: 5
#     Node 3, Type 0, BuildingBlock: XOMCOT_clean_sbu_1, # of connection points: 5
#     Node 4, Type 0, BuildingBlock: XOMCOT_clean_sbu_1, # of connection points: 5
#     Node 5, Type 0, BuildingBlock: XOMCOT_clean_sbu_1, # of connection points: 5
#     Node 6, Type 0, BuildingBlock: XOMCOT_clean_sbu_1, # of connection points: 5
#     Node 7, Type 0, BuildingBlock: XOMCOT_clean_sbu_1, # of connection points: 5
#     Node 8, Type 0, BuildingBlock: XOMCOT_clean_sbu_1, # of connection points: 5
#     Node 9, Type 0, BuildingBlock: XOMCOT_clean_sbu_1, # of connection points: 5
#     Node 10, Type 0, BuildingBlock: XOMCOT_clean_sbu_1, # of connection points: 5
#     Node 11, Type 0, BuildingBlock: XOMCOT_clean_sbu_1, # of connection points: 5
#     Node 12, Type 0, BuildingBlock: XOMCOT_clean_sbu_1, # of connection points: 5
#     Node 13, Type 0, BuildingBlock: XOMCOT_clean_sbu_1, # of connection points: 5
#     Node 14, Type 0, BuildingBlock: XOMCOT_clean_sbu_1, # of connection points: 5
#     Node 15, Type 0, BuildingBlock: XOMCOT_clean_sbu_1, # of connection points: 5
#     Edge 16, Type (0, 0), BuildingBlock: ZUJKAS_clean_linker_0, # of connection points: 2
#     Edge 17, Type (0, 0), BuildingBlock: ZUJKAS_clean_linker_0, # of connection points: 2
#     Edge 18, Type (0, 0), BuildingBlock: ZUJKAS_clean_linker_0, # of connection points: 2
#     Edge 19, Type (0, 0), BuildingBlock: ZUJKAS_clean_linker_0, # of connection points: 2
#     Edge 20, Type (0, 0), BuildingBlock: ZUJKAS_clean_linker_0, # of connection points: 2
#     Edge 21, Type (0, 0), BuildingBlock: ZUJKAS_clean_linker_0, # of connection points: 2
#     Edge 22, Type (0, 0), BuildingBlock: ZUJKAS_clean_linker_0, # of connection points: 2
#     Edge 23, Type (0, 0), BuildingBlock: ZUJKAS_clean_linker_0, # of connection points: 2
#     Edge 24, Type (0, 0), BuildingBlock: ZUJKAS_clean_linker_0, # of connection points: 2
#     Edge 25, Type (0, 0), BuildingBlock: ZUJKAS_clean_linker_0, # of connection points: 2
#     Edge 26, Type (0, 0), BuildingBlock: ZUJKAS_clean_linker_0, # of connection points: 2
#     Edge 27, Type (0, 0), BuildingBlock: ZUJKAS_clean_linker_0, # of connection points: 2
#     Edge 28, Type (0, 0), BuildingBlock: ZUJKAS_clean_linker_0, # of connection points: 2
#     Edge 29, Type (0, 0), BuildingBlock: ZUJKAS_clean_linker_0, # of connection points: 2
#     Edge 30, Type (0, 0), BuildingBlock: ZUJKAS_clean_linker_0, # of connection points: 2
#     Edge 31, Type (0, 0), BuildingBlock: ZUJKAS_clean_linker_0, # of connection points: 2
#     Edge 32, Type (0, 0), BuildingBlock: ZUJKAS_clean_linker_0, # of connection points: 2
#     Edge 33, Type (0, 0), BuildingBlock: ZUJKAS_clean_linker_0, # of connection points: 2
#     Edge 34, Type (0, 0), BuildingBlock: ZUJKAS_clean_linker_0, # of connection points: 2
#     Edge 35, Type (0, 0), BuildingBlock: ZUJKAS_clean_linker_0, # of connection points: 2
#     Edge 36, Type (0, 0), BuildingBlock: ZUJKAS_clean_linker_0, # of connection points: 2
#     Edge 37, Type (0, 0), BuildingBlock: ZUJKAS_clean_linker_0, # of connection points: 2
#     Edge 38, Type (0, 0), BuildingBlock: ZUJKAS_clean_linker_0, # of connection points: 2
#     Edge 39, Type (0, 0), BuildingBlock: ZUJKAS_clean_linker_0, # of connection points: 2
#     Edge 40, Type (0, 0), BuildingBlock: ZUJKAS_clean_linker_0, # of connection points: 2
#     Edge 41, Type (0, 0), BuildingBlock: ZUJKAS_clean_linker_0, # of connection points: 2
#     Edge 42, Type (0, 0), BuildingBlock: ZUJKAS_clean_linker_0, # of connection points: 2
#     Edge 43, Type (0, 0), BuildingBlock: ZUJKAS_clean_linker_0, # of connection points: 2
#     Edge 44, Type (0, 0), BuildingBlock: ZUJKAS_clean_linker_0, # of connection points: 2
#     Edge 45, Type (0, 0), BuildingBlock: ZUJKAS_clean_linker_0, # of connection points: 2
#     Edge 46, Type (0, 0), BuildingBlock: ZUJKAS_clean_linker_0, # of connection points: 2
#     Edge 47, Type (0, 0), BuildingBlock: ZUJKAS_clean_linker_0, # of connection points: 2
#     Edge 48, Type (0, 0), BuildingBlock: ZUJKAS_clean_linker_0, # of connection points: 2
#     Edge 49, Type (0, 0), BuildingBlock: ZUJKAS_clean_linker_0, # of connection points: 2
#     Edge 50, Type (0, 0), BuildingBlock: ZUJKAS_clean_linker_0, # of connection points: 2
#     Edge 51, Type (0, 0), BuildingBlock: ZUJKAS_clean_linker_0, # of connection points: 2
#     Edge 52, Type (0, 0), BuildingBlock: ZUJKAS_clean_linker_0, # of connection points: 2
#     Edge 53, Type (0, 0), BuildingBlock: ZUJKAS_clean_linker_0, # of connection points: 2
#     Edge 54, Type (0, 0), BuildingBlock: ZUJKAS_clean_linker_0, # of connection points: 2
#     Edge 55, Type (0, 0), BuildingBlock: ZUJKAS_clean_linker_0, # of connection points: 2
# Relax obj value: 0.141
# Max RMSD: 0.185
# Mean RMSD: 0.185
data_MOF--net-zfy--node1-XOMCOT_clean_sbu_1--edge1-ZUJKAS_clean_linker_0
_symmetry_space_group_name_H-M    P1
_symmetry_Int_Tables_number       1
_symmetry_cell_setting            triclinic
loop_
_symmetry_equiv_pos_as_xyz
'x, y, z'
_cell_length_a     64.12888
_cell_length_b     64.176794
_cell_length_c     40.229906
_cell_angle_alpha  90.011181
_cell_angle_beta   89.934232
_cell_angle_gamma 90.041596
loop_
_atom_site_label
_atom_site_type_symbol
_atom_site_fract_x
_atom_site_fract_y
_atom_site_fract_z
_atom_type_partial_charge
C0 C 0.28534 0.2306 0.03992 0.0
C1 C 0.27753 0.24161 0.06643 0.0
N2 N 0.29184 0.24164 0.0909 0.0
N3 N 0.3045 0.22331 0.04738 0.0
C4 C 0.30827 0.23086 0.07837 0.0
H5 H 0.2773 0.22792 0.01674 0.0
Co6 Co 0.32088 0.20676 0.01801 0.0
C7 C 0.32544 0.18254 0.08351 0.0
O8 O 0.30796 0.18927 0.0967 0.0
N9 N 0.33711 0.19038 0.98891 0.0
C10 C 0.35092 0.16207 0.9659 0.0
C11 C 0.33708 0.16935 0.98911 0.0
C12 C 0.35138 0.19554 0.96534 0.0
N13 N 0.35998 0.17849 0.95087 0.0
O14 O 0.34414 0.22576 0.02331 0.0
H15 H 0.32785 0.15978 1.00564 0.0
H16 H 0.35542 0.2114 0.95892 0.0
O17 O 0.33092 0.18866 0.05448 0.0
C18 C 0.34048 0.24214 1.00616 0.0
O19 O 0.32239 0.2437 0.99106 0.0
N20 N 0.29742 0.18975 1.00845 0.0
C21 C 0.26197 0.17008 0.9821 0.0
C22 C 0.27001 0.16423 1.01326 0.0
C23 C 0.28784 0.17419 0.02598 0.0
C24 C 0.28989 0.19544 0.97813 0.0
C25 C 0.27226 0.18596 0.96461 0.0
H26 H 0.29383 0.16903 0.04946 0.0
H27 H 0.29757 0.20778 0.96448 0.0
H28 H 0.32262 0.2281 0.0918 0.0
H29 H 0.26211 0.2484 0.06795 0.0
H30 H 0.35453 0.14586 0.96119 0.0
H31 H 0.26279 0.15184 0.02748 0.0
H32 H 0.26657 0.19136 0.94079 0.0
C33 C 0.52556 0.54665 0.29515 0.0
C34 C 0.51715 0.53972 0.32447 0.0
N35 N 0.53044 0.54426 0.34935 0.0
N36 N 0.54413 0.55576 0.30095 0.0
C37 C 0.54686 0.55387 0.33437 0.0
H38 H 0.51859 0.54487 0.27089 0.0
Co39 Co 0.55974 0.56684 0.26527 0.0
C40 C 0.59771 0.58698 0.29329 0.0
O41 O 0.60783 0.58166 0.26618 0.0
N42 N 0.57463 0.57802 0.22798 0.0
C43 C 0.59197 0.5815 0.18025 0.0
C44 C 0.58387 0.56758 0.20277 0.0
C45 C 0.5771 0.59842 0.21959 0.0
N46 N 0.58776 0.60096 0.19076 0.0
O47 O 0.54099 0.59046 0.26304 0.0
H48 H 0.58468 0.55089 0.20025 0.0
H49 H 0.57142 0.61119 0.23464 0.0
O50 O 0.57855 0.5816 0.29682 0.0
C51 C 0.52817 0.58657 0.23951 0.0
O52 O 0.53038 0.56894 0.22325 0.0
N53 N 0.57595 0.54224 0.26479 0.0
C54 C 0.59542 0.50423 0.25037 0.0
C55 C 0.60427 0.51826 0.27325 0.0
C56 C 0.59404 0.53705 0.28071 0.0
C57 C 0.56641 0.52805 0.24468 0.0
C58 C 0.5759 0.50914 0.23686 0.0
H59 H 0.60083 0.5472 0.29905 0.0
H60 H 0.55172 0.532 0.2331 0.0
H61 H 0.56049 0.55951 0.34744 0.0
H62 H 0.50249 0.53151 0.32713 0.0
H63 H 0.59997 0.5775 0.15743 0.0
H64 H 0.61898 0.51476 0.28521 0.0
H65 H 0.56836 0.49889 0.21917 0.0
C66 C 0.2211 0.7726 0.5452 0.0
C67 C 0.22809 0.76437 0.57455 0.0
N68 N 0.22256 0.77721 0.59953 0.0
N69 N 0.21097 0.7906 0.55112 0.0
C70 C 0.21228 0.79319 0.5846 0.0
H71 H 0.22363 0.76599 0.52084 0.0
Co72 Co 0.19986 0.80587 0.51543 0.0
C73 C 0.18254 0.84527 0.54246 0.0
O74 O 0.18883 0.85454 0.51512 0.0
N75 N 0.18861 0.8204 0.47805 0.0
C76 C 0.18461 0.83679 0.42963 0.0
C77 C 0.19875 0.82862 0.45162 0.0
C78 C 0.16813 0.82358 0.47093 0.0
N79 N 0.16529 0.83364 0.44171 0.0
O80 O 0.1755 0.78815 0.51525 0.0
H81 H 0.21537 0.82867 0.44781 0.0
H82 H 0.15551 0.8188 0.48712 0.0
O83 O 0.18625 0.82578 0.54653 0.0
C84 C 0.17834 0.77387 0.49359 0.0
O85 O 0.19592 0.77387 0.47677 0.0
N86 N 0.22505 0.8212 0.51344 0.0
C87 C 0.26367 0.83955 0.49926 0.0
C88 C 0.25055 0.84791 0.52389 0.0
C89 C 0.23148 0.83816 0.53126 0.0
C90 C 0.23846 0.81187 0.49176 0.0
C91 C 0.25764 0.82089 0.48391 0.0
H92 H 0.22217 0.84435 0.55124 0.0
H93 H 0.23368 0.7978 0.47906 0.0
H94 H 0.20583 0.80642 0.59775 0.0
H95 H 0.2371 0.7502 0.57716 0.0
H96 H 0.18831 0.84407 0.40609 0.0
H97 H 0.255 0.86181 0.53741 0.0
H98 H 0.26724 0.81369 0.46496 0.0
C99 C 0.99437 0.47492 0.79038 0.0
C100 C 1.0013 0.48339 0.81957 0.0
N101 N 0.98762 0.47862 0.84384 0.0
N102 N 0.97638 0.46459 0.79568 0.0
C103 C 0.9726 0.46705 0.82872 0.0
H104 H 1.0018 0.47668 0.76644 0.0
Co105 Co 0.9623 0.45287 0.75925 0.0
C106 C 0.92149 0.43718 0.78316 0.0
O107 O 0.91351 0.44381 0.75501 0.0
N108 N 0.9491 0.44103 0.72114 0.0
C109 C 0.93585 0.43597 0.67059 0.0
C110 C 0.94367 0.45044 0.69237 0.0
C111 C 0.94474 0.42057 0.71566 0.0
N112 N 0.93647 0.41712 0.68517 0.0
O113 O 0.97964 0.42833 0.76188 0.0
H114 H 0.94554 0.46672 0.68665 0.0
H115 H 0.94743 0.40847 0.73387 0.0
O116 O 0.94096 0.44011 0.789 0.0
C117 C 0.99491 0.43054 0.74177 0.0
O118 O 0.99612 0.44775 0.7242 0.0
N119 N 0.94741 0.47819 0.75464 0.0
C120 C 0.93015 0.51662 0.73664 0.0
C121 C 0.92113 0.50456 0.76206 0.0
C122 C 0.93031 0.48554 0.77127 0.0
C123 C 0.95759 0.49084 0.7328 0.0
C124 C 0.94913 0.50987 0.72306 0.0
H125 H 0.92354 0.47692 0.79158 0.0
H126 H 0.97199 0.48558 0.72159 0.0
H127 H 0.95885 0.46111 0.84116 0.0
H128 H 0.01541 0.49245 0.82262 0.0
H129 H 0.93062 0.43908 0.64551 0.0
H130 H 0.90688 0.50948 0.77418 0.0
H131 H 0.95729 0.51906 0.70458 0.0
C132 C 0.73204 0.78332 0.99165 0.0
C133 C 0.73969 0.77265 0.96468 0.0
N134 N 0.72592 0.77423 0.93959 0.0
N135 N 0.71352 0.79205 0.98394 0.0
C136 C 0.70993 0.78562 0.95222 0.0
H137 H 0.73976 0.78463 0.01537 0.0
Co138 Co 0.69738 0.80896 1.01349 0.0
C139 C 0.69413 0.83329 0.94867 0.0
O140 O 0.71292 0.82809 0.93862 0.0
N141 N 0.68126 0.82559 0.04261 0.0
C142 C 0.66709 0.85396 0.06503 0.0
C143 C 0.68088 0.84663 0.04178 0.0
C144 C 0.66716 0.82051 0.06653 0.0
N145 N 0.65837 0.83759 0.08065 0.0
O146 O 0.67407 0.79001 1.00873 0.0
H147 H 0.68961 0.85619 0.02462 0.0
H148 H 0.6633 0.80466 0.07334 0.0
O149 O 0.68726 0.82658 0.9766 0.0
C150 C 0.67778 0.77372 0.02609 0.0
O151 O 0.69583 0.77233 0.04134 0.0
N152 N 0.72104 0.82597 0.02251 0.0
C153 C 0.75755 0.84461 0.0469 0.0
C154 C 0.74702 0.85308 0.01944 0.0
C155 C 0.72873 0.84355 1.0076 0.0
C156 C 0.73054 0.81831 0.05021 0.0
C157 C 0.74888 0.82712 0.06249 0.0
H158 H 0.72072 0.85083 0.98726 0.0
H159 H 0.72394 0.80488 0.06261 0.0
H160 H 0.69602 0.78957 0.9384 0.0
H161 H 0.75467 0.76493 0.96339 0.0
H162 H 0.66318 0.87015 0.06925 0.0
H163 H 0.75293 0.86685 1.00705 0.0
H164 H 0.75608 0.82038 0.08432 0.0
C165 C 0.49387 0.46926 0.73601 0.0
C166 C 0.50212 0.47632 0.70667 0.0
N167 N 0.48888 0.47158 0.68184 0.0
N168 N 0.47541 0.45988 0.7303 0.0
C169 C 0.47262 0.46171 0.69689 0.0
H170 H 0.50089 0.47109 0.76022 0.0
Co171 Co 0.46026 0.44825 0.76612 0.0
C172 C 0.42158 0.4287 0.73853 0.0
O173 O 0.41202 0.43204 0.76691 0.0
N174 N 0.44598 0.43659 0.80358 0.0
C175 C 0.4292 0.43298 0.8518 0.0
C176 C 0.43717 0.44695 0.82926 0.0
C177 C 0.44347 0.41615 0.81179 0.0
N178 N 0.43308 0.41355 0.84088 0.0
O179 O 0.47816 0.42399 0.76526 0.0
H180 H 0.43653 0.46363 0.83203 0.0
H181 H 0.4488 0.40339 0.79638 0.0
O182 O 0.44044 0.43494 0.73457 0.0
C183 C 0.49266 0.42643 0.78666 0.0
O184 O 0.49277 0.44359 0.80447 0.0
N185 N 0.4447 0.47331 0.76925 0.0
C186 C 0.42642 0.51141 0.78709 0.0
C187 C 0.41613 0.49752 0.76558 0.0
C188 C 0.42571 0.47866 0.75642 0.0
C189 C 0.4554 0.48722 0.78837 0.0
C190 C 0.44657 0.50621 0.79771 0.0
H191 H 0.41764 0.46857 0.7394 0.0
H192 H 0.47056 0.483 0.79798 0.0
H193 H 0.45912 0.4558 0.68382 0.0
H194 H 0.51668 0.4847 0.70394 0.0
H195 H 0.42146 0.43692 0.87487 0.0
H196 H 0.40078 0.50116 0.756 0.0
H197 H 0.45515 0.5163 0.8144 0.0
C198 C 0.79911 0.24494 0.47579 0.0
C199 C 0.7923 0.25134 0.44515 0.0
N200 N 0.79448 0.23545 0.42357 0.0
N201 N 0.80585 0.22509 0.47394 0.0
C202 C 0.80259 0.21957 0.44174 0.0
H203 H 0.79888 0.25423 0.49817 0.0
Co204 Co 0.81615 0.21096 0.5115 0.0
C205 C 0.83771 0.1725 0.48722 0.0
O206 O 0.83307 0.16316 0.51532 0.0
N207 N 0.8265 0.19756 0.55036 0.0
C208 C 0.82945 0.18283 0.60027 0.0
C209 C 0.81574 0.19002 0.57661 0.0
C210 C 0.84679 0.19506 0.55912 0.0
N211 N 0.84904 0.18597 0.58927 0.0
O212 O 0.83974 0.22985 0.51337 0.0
H213 H 0.79897 0.18976 0.57888 0.0
H214 H 0.85969 0.19987 0.54354 0.0
O215 O 0.83152 0.19125 0.48215 0.0
C216 C 0.83556 0.24338 0.53575 0.0
O217 O 0.81754 0.24189 0.5512 0.0
N218 N 0.79165 0.19463 0.51221 0.0
C219 C 0.75343 0.17572 0.52704 0.0
C220 C 0.76837 0.16538 0.50747 0.0
C221 C 0.78729 0.17531 0.4997 0.0
C222 C 0.77673 0.20534 0.52924 0.0
C223 C 0.75762 0.19621 0.53705 0.0
H224 H 0.7982 0.16724 0.48399 0.0
H225 H 0.78016 0.22083 0.5383 0.0
H226 H 0.80616 0.20431 0.43178 0.0
H227 H 0.78581 0.26647 0.43936 0.0
H228 H 0.82521 0.17557 0.62359 0.0
H229 H 0.76549 0.14975 0.49844 0.0
H230 H 0.74663 0.20483 0.55219 0.0
C231 C 0.01968 0.54831 0.23348 0.0
C232 C 0.01274 0.53972 0.20437 0.0
N233 N 0.027 0.54335 0.18048 0.0
N234 N 0.03829 0.55756 0.22848 0.0
C235 C 0.0424 0.55435 0.19571 0.0
H236 H 0.01179 0.54735 0.25715 0.0
Co237 Co 0.05281 0.56914 0.26467 0.0
C238 C 0.0917 0.58922 0.23871 0.0
O239 O 0.10084 0.58545 0.26727 0.0
N240 N 0.06643 0.58063 0.3026 0.0
C241 C 0.08208 0.58425 0.35166 0.0
C242 C 0.07452 0.57028 0.32884 0.0
C243 C 0.06893 0.60106 0.31071 0.0
N244 N 0.07866 0.60366 0.34029 0.0
O245 O 0.03448 0.59312 0.26408 0.0
H246 H 0.07488 0.5536 0.33186 0.0
H247 H 0.06409 0.61378 0.29485 0.0
O248 O 0.07291 0.58302 0.23382 0.0
C249 C 0.02004 0.59026 0.28555 0.0
O250 O 0.02029 0.573 0.30312 0.0
N251 N 0.06869 0.54438 0.26757 0.0
C252 C 0.08752 0.50682 0.28627 0.0
C253 C 0.09752 0.52047 0.264 0.0
C254 C 0.0877 0.53915 0.25459 0.0
C255 C 0.05804 0.53036 0.28657 0.0
C256 C 0.06718 0.51166 0.29642 0.0
H257 H 0.09563 0.54928 0.23742 0.0
H258 H 0.04271 0.53434 0.29579 0.0
H259 H 0.05663 0.55929 0.18357 0.0
H260 H 0.99822 0.53136 0.20109 0.0
H261 H 0.08924 0.58034 0.37519 0.0
H262 H 0.11305 0.51715 0.25487 0.0
H263 H 0.05851 0.50132 0.31263 0.0
C264 C 0.79868 0.74745 0.55237 0.0
C265 C 0.79026 0.75352 0.58219 0.0
N266 N 0.79015 0.73707 0.60297 0.0
N267 N 0.80416 0.72721 0.5539 0.0
C268 C 0.79879 0.72124 0.58521 0.0
H269 H 0.80018 0.7572 0.53063 0.0
Co270 Co 0.81428 0.7126 0.51652 0.0
C271 C 0.83715 0.67511 0.54189 0.0
O272 O 0.83334 0.66519 0.514 0.0
N273 N 0.82438 0.69863 0.47789 0.0
C274 C 0.82649 0.68208 0.42932 0.0
C275 C 0.81319 0.68978 0.4532 0.0
C276 C 0.84451 0.69652 0.46779 0.0
N277 N 0.84624 0.68626 0.4385 0.0
O278 O 0.8378 0.73155 0.51336 0.0
H279 H 0.7964 0.68899 0.45216 0.0
H280 H 0.8577 0.70192 0.48216 0.0
O281 O 0.82999 0.69357 0.54633 0.0
C282 C 0.83367 0.74461 0.49025 0.0
O283 O 0.81555 0.74296 0.4752 0.0
N284 N 0.78988 0.69609 0.51697 0.0
C285 C 0.7517 0.6768 0.503 0.0
C286 C 0.76728 0.66625 0.52089 0.0
C287 C 0.78621 0.67631 0.52816 0.0
C288 C 0.77442 0.70691 0.50144 0.0
C289 C 0.7553 0.69761 0.49416 0.0
H290 H 0.79772 0.66794 0.54221 0.0
H291 H 0.7774 0.72265 0.4931 0.0
H292 H 0.80044 0.70546 0.59432 0.0
H293 H 0.78456 0.76897 0.588 0.0
H294 H 0.82187 0.67428 0.40664 0.0
H295 H 0.76495 0.6503 0.52889 0.0
H296 H 0.74384 0.70639 0.48023 0.0
C297 C 0.022 0.05031 0.79142 0.0
C298 C 0.01368 0.0433 0.82075 0.0
N299 N 0.02795 0.04574 0.845 0.0
N300 N 0.04151 0.05732 0.79664 0.0
C301 C 0.04487 0.05418 0.82962 0.0
H302 H 0.01433 0.05014 0.76752 0.0
Co303 Co 0.0569 0.0679 0.76068 0.0
C304 C 0.09676 0.08523 0.78656 0.0
O305 O 0.10575 0.07915 0.75886 0.0
N306 N 0.07151 0.07869 0.72292 0.0
C307 C 0.0861 0.08232 0.67294 0.0
C308 C 0.07835 0.06836 0.69574 0.0
C309 C 0.07523 0.09905 0.71565 0.0
N310 N 0.08408 0.10169 0.68535 0.0
O311 O 0.03955 0.09261 0.76059 0.0
H312 H 0.07755 0.05175 0.69198 0.0
H313 H 0.07104 0.11174 0.73205 0.0
O314 O 0.07738 0.08114 0.79147 0.0
C315 C 0.02691 0.09134 0.73611 0.0
O316 O 0.02769 0.07474 0.71703 0.0
N317 N 0.0716 0.04241 0.75835 0.0
C318 C 0.08875 1.0039 0.74024 0.0
C319 C 0.09874 0.01675 0.76371 0.0
C320 C 0.08967 0.03585 0.77297 0.0
C321 C 0.06074 0.02917 0.73832 0.0
C322 C 0.06902 0.01001 0.7288 0.0
H323 H 0.09744 0.0452 0.7914 0.0
H324 H 0.04593 0.0341 0.72818 0.0
H325 H 0.05929 0.05812 0.8421 0.0
H326 H 0.99835 0.0365 0.82378 0.0
H327 H 0.09272 0.0784 0.64899 0.0
H328 H 0.11372 0.01249 0.77403 0.0
H329 H 0.06018 1.0003 0.71189 0.0
C330 C 0.7345 0.28412 0.03783 0.0
C331 C 0.74215 0.27302 0.06432 0.0
N332 N 0.72838 0.27421 0.08951 0.0
N333 N 0.71598 0.29271 0.04599 0.0
C334 C 0.7124 0.28581 0.07745 0.0
H335 H 0.74221 0.28578 1.01413 0.0
Co336 Co 0.69965 0.30987 0.01727 0.0
C337 C 0.69698 0.33352 0.08275 0.0
O338 O 0.71588 0.32819 0.09202 0.0
N339 N 0.68337 0.32672 0.98899 0.0
C340 C 0.66855 0.35511 0.9679 0.0
C341 C 0.68252 0.34771 0.99078 0.0
C342 C 0.66946 0.32171 0.96484 0.0
N343 N 0.66026 0.3388 0.95153 0.0
O344 O 0.67638 0.29086 0.02193 0.0
H345 H 0.69104 0.35716 1.00834 0.0
H346 H 0.66602 0.3059 0.95731 0.0
O347 O 0.68979 0.32711 0.05488 0.0
C348 C 0.68011 0.27481 1.004 0.0
O349 O 0.69819 0.27364 0.98872 0.0
N350 N 0.72319 0.32701 1.00818 0.0
C351 C 0.7593 0.34603 0.98291 0.0
C352 C 0.74899 0.35431 1.01078 0.0
C353 C 0.73089 0.34459 0.02305 0.0
C354 C 0.73247 0.31954 0.98011 0.0
C355 C 0.75061 0.32853 0.96741 0.0
H356 H 0.72301 0.35172 0.0437 0.0
H357 H 0.72582 0.30614 0.96772 0.0
H358 H 0.69849 0.28954 0.0915 0.0
H359 H 0.75712 0.26527 0.06524 0.0
H360 H 0.66425 0.37127 0.96446 0.0
H361 H 0.75491 0.3681 0.02311 0.0
H362 H 0.75762 0.32194 0.94526 0.0
C363 C 0.48657 0.97938 0.29189 0.0
C364 C 0.49747 0.98758 0.31822 0.0
N365 N 0.49542 0.97469 0.3444 0.0
N366 N 0.47729 0.96139 0.3011 0.0
C367 C 0.48358 0.95866 0.3331 0.0
H368 H 0.48546 0.98635 0.26755 0.0
Co369 Co 0.45996 0.94497 0.27264 0.0
C370 C 0.43604 0.94237 0.33825 0.0
O371 O 0.44121 0.96121 0.34806 0.0
N372 N 0.44294 0.92866 0.24454 0.0
C373 C 0.4143 0.9142 0.22358 0.0
C374 C 0.42194 0.92797 0.24656 0.0
C375 C 0.44772 0.91481 0.22014 0.0
N376 N 0.43045 0.90585 0.20689 0.0
O377 O 0.47861 0.92151 0.27794 0.0
H378 H 0.41262 0.93654 0.26426 0.0
H379 H 0.46348 0.91131 0.21232 0.0
O380 O 0.44261 0.93546 0.31027 0.0
C381 C 0.49512 0.92434 0.26069 0.0
O382 O 0.4974 0.94212 0.2449 0.0
N383 N 0.44303 0.9686 0.2632 0.0
C384 C 0.42349 1.00435 0.23771 0.0
C385 C 0.41562 0.99422 0.26605 0.0
C386 C 0.42554 0.9763 0.27834 0.0
C387 C 0.45028 0.97779 0.23489 0.0
C388 C 0.44098 0.99571 0.22199 0.0
H389 H 0.41858 0.96855 0.29923 0.0
H390 H 0.46363 0.97114 0.22231 0.0
H391 H 0.47929 0.94532 0.34808 0.0
H392 H 0.50564 1.00234 0.31837 0.0
H393 H 0.39806 0.91012 0.22018 0.0
H394 H 0.40195 1.00012 0.27876 0.0
H395 H 0.44731 1.00256 0.19953 0.0
C396 C 0.21619 0.27421 0.47536 0.0
C397 C 0.2248 0.26757 0.44597 0.0
N398 N 0.22563 0.28381 0.42475 0.0
N399 N 0.21136 0.29457 0.47306 0.0
C400 C 0.21727 0.30006 0.44182 0.0
H401 H 0.21391 0.26479 0.49734 0.0
Co402 Co 0.20085 0.30946 0.50961 0.0
C403 C 0.18139 0.34853 0.48346 0.0
O404 O 0.18565 0.35799 0.5116 0.0
N405 N 0.19021 0.32377 0.54764 0.0
C406 C 0.18727 0.33978 0.59657 0.0
C407 C 0.20096 0.33189 0.57347 0.0
C408 C 0.1699 0.32666 0.55618 0.0
N409 N 0.16769 0.33649 0.58573 0.0
O410 O 0.17633 0.29172 0.51018 0.0
H411 H 0.2177 0.33194 0.57597 0.0
H412 H 0.15695 0.3219 0.54071 0.0
O413 O 0.18714 0.32958 0.47901 0.0
C414 C 0.17789 0.27909 0.53465 0.0
O415 O 0.19469 0.27995 0.55327 0.0
N416 N 0.22608 0.32456 0.51167 0.0
C417 C 0.26414 0.34186 0.5316 0.0
C418 C 0.25061 0.35294 0.5105 0.0
C419 C 0.23165 0.34389 0.50045 0.0
C420 C 0.23992 0.31295 0.52942 0.0
C421 C 0.25891 0.32127 0.53973 0.0
H422 H 0.22152 0.35271 0.48447 0.0
H423 H 0.23558 0.29743 0.53731 0.0
H424 H 0.21607 0.31577 0.4322 0.0
H425 H 0.23001 0.25188 0.44068 0.0
H426 H 0.19146 0.34697 0.61997 0.0
H427 H 0.2542 0.36874 0.50295 0.0
H428 H 0.26913 0.31179 0.5549 0.0
C429 C 0.99472 0.97287 0.23186 0.0
C430 C 1.00255 0.97929 0.20187 0.0
N431 N 0.98948 0.97306 0.17768 0.0
N432 N 0.97677 0.96237 0.22712 0.0
C433 C 0.97377 0.96292 0.19366 0.0
H434 H 1.00165 0.97591 0.25583 0.0
Co435 Co 0.96257 0.95136 0.26414 0.0
C436 C 0.92159 0.9357 0.24106 0.0
O437 O 0.91365 0.94286 0.26894 0.0
N438 N 0.94927 0.94014 0.30275 0.0
C439 C 0.93596 0.93569 0.35347 0.0
C440 C 0.94392 0.94989 0.33131 0.0
C441 C 0.94473 0.91978 0.30877 0.0
N442 N 0.93642 0.9167 0.33936 0.0
O443 O 0.97962 0.92659 0.26232 0.0
H444 H 0.94592 0.9662 0.33665 0.0
H445 H 0.94732 0.90747 0.29085 0.0
O446 O 0.94107 0.9384 0.23503 0.0
C447 C 0.99508 0.92903 0.28195 0.0
O448 O 0.99675 0.94666 0.29829 0.0
N449 N 0.94794 0.97689 0.26803 0.0
C450 C 0.93029 0.01505 0.28637 0.0
C451 C 0.92147 1.00306 0.26071 0.0
C452 C 0.93084 0.98414 0.25137 0.0
C453 C 0.95804 0.98963 0.2898 0.0
C454 C 0.94935 1.00851 0.29981 0.0
H455 H 0.92411 0.97542 0.23114 0.0
H456 H 0.97243 0.98443 0.30108 0.0
H457 H 0.96054 0.9559 0.18126 0.0
H458 H 0.01666 0.98829 0.1982 0.0
H459 H 0.93077 0.93909 0.3785 0.0
H460 H 0.90716 1.00789 0.24873 0.0
H461 H 0.95726 0.01767 0.31859 0.0
C462 C 0.29394 0.74165 0.98726 0.0
C463 C 0.28696 0.74982 0.95786 0.0
N464 N 0.29356 0.73757 0.9328 0.0
N465 N 0.30512 0.72429 0.98127 0.0
C466 C 0.30447 0.722 0.94769 0.0
H467 H 0.29079 0.74788 1.0117 0.0
Co468 Co 0.3168 0.70963 0.01713 0.0
C469 C 0.33309 0.66949 0.99134 0.0
O470 O 0.32651 0.66084 0.01903 0.0
N471 N 0.32867 0.69578 0.05466 0.0
C472 C 0.33382 0.68085 0.104 0.0
C473 C 0.31919 0.68859 0.08244 0.0
C474 C 0.34928 0.6924 0.0605 0.0
N475 N 0.3528 0.68323 0.09028 0.0
O476 O 0.34132 0.72724 0.01535 0.0
H477 H 0.30273 0.68904 0.08761 0.0
H478 H 0.36148 0.69645 0.04305 0.0
O479 O 0.32981 0.68899 0.98644 0.0
C480 C 0.33895 0.74243 0.03556 0.0
O481 O 0.32147 0.74355 0.05254 0.0
N482 N 0.2915 0.69445 0.02096 0.0
C483 C 0.2526 0.6768 0.03657 0.0
C484 C 0.26503 0.66858 1.01083 0.0
C485 C 0.28426 0.67791 1.00291 0.0
C486 C 0.27877 0.70375 0.04368 0.0
C487 C 0.25962 0.69499 0.05243 0.0
H488 H 0.29305 0.67182 0.98222 0.0
H489 H 0.28409 0.7176 0.05645 0.0
H490 H 0.31191 0.70935 0.93443 0.0
H491 H 0.2773 0.76355 0.95522 0.0
H492 H 0.33068 0.67442 0.12838 0.0
H493 H 0.25991 0.65514 0.99674 0.0
H494 H 0.2508 0.70213 0.07235 0.0
C495 C 0.52794 0.04571 0.7321 0.0
C496 C 0.5212 0.03788 0.7023 0.0
N497 N 0.53449 0.04398 0.67823 0.0
N498 N 0.54547 0.0569 0.72745 0.0
C499 C 0.54926 0.05544 0.69424 0.0
H500 H 0.52069 0.04296 0.75595 0.0
Co501 Co 0.55911 0.06906 0.76416 0.0
C502 C 0.59835 0.08844 0.73928 0.0
O503 O 0.60728 0.08419 0.76786 0.0
N504 N 0.57198 0.08126 0.80243 0.0
C505 C 0.58642 0.08586 0.85227 0.0
C506 C 0.57983 0.07145 0.82937 0.0
C507 C 0.57392 0.10184 0.81003 0.0
N508 N 0.58264 0.10507 0.84031 0.0
O509 O 0.54074 0.09287 0.76182 0.0
H510 H 0.58082 0.05484 0.83281 0.0
H511 H 0.56878 0.11423 0.79376 0.0
O512 O 0.57943 0.08281 0.7342 0.0
C513 C 0.52533 0.09008 0.78146 0.0
O514 O 0.5244 0.0726 0.79839 0.0
N515 N 0.57515 0.04447 0.76844 0.0
C516 C 0.59386 1.00653 0.78568 0.0
C517 C 0.60343 0.02009 0.76281 0.0
C518 C 0.5936 0.03884 0.75394 0.0
C519 C 0.56499 0.03076 0.78866 0.0
C520 C 0.5741 0.01191 0.79792 0.0
H521 H 0.60092 0.04854 0.73549 0.0
H522 H 0.55004 0.03505 0.7991 0.0
H523 H 0.56253 0.06256 0.68209 0.0
H524 H 0.50777 0.02789 0.69889 0.0
H525 H 0.59366 0.08231 0.87587 0.0
H526 H 0.61833 0.01621 0.75176 0.0
H527 H 0.56602 1.00205 0.81556 0.0
H528 H 0.52936 0.1329 0.78404 0.0
H529 H 0.50295 0.15777 0.80465 0.0
H530 H 0.45863 0.10758 0.8142 0.0
H531 H 0.48472 0.08293 0.79421 0.0
H532 H 0.44317 0.14835 0.78476 0.0
H533 H 0.48386 0.15453 0.90683 0.0
H534 H 0.49835 0.1581 0.86882 0.0
H535 H 0.48856 0.13278 0.87935 0.0
C536 C 0.51381 0.12735 0.78978 0.0
C537 C 0.50906 0.106 0.78753 0.0
C538 C 0.49881 0.1415 0.80179 0.0
C539 C 0.47887 0.13446 0.8112 0.0
C540 C 0.47389 0.11336 0.80713 0.0
H541 H 0.36416 0.1489 0.9038 0.0
H542 H 0.39372 0.14347 0.86685 0.0
C543 C 0.48883 0.09928 0.79569 0.0
C544 C 0.46333 0.14833 0.82748 0.0
H545 H 0.44941 0.16661 0.90415 0.0
C546 C 0.44471 0.15281 0.81065 0.0
C547 C 0.46537 0.15425 0.86119 0.0
C548 C 0.48504 0.14971 0.88037 0.0
C549 C 0.4277 0.16204 0.82711 0.0
C550 C 0.4291 0.16636 0.86158 0.0
C551 C 0.44824 0.16323 0.87781 0.0
C552 C 0.41029 0.17128 0.88202 0.0
C553 C 0.40817 0.16652 0.80753 0.0
C554 C 0.40968 0.18866 0.90336 0.0
C555 C 0.39267 0.19172 0.92495 0.0
C556 C 0.37618 0.17724 0.92593 0.0
C557 C 0.37666 0.16024 0.90388 0.0
C558 C 0.39349 0.15725 0.88238 0.0
H559 H 0.41193 0.17005 0.78116 0.0
H560 H 0.39799 0.15253 0.8078 0.0
H561 H 0.39936 0.17983 0.81819 0.0
H562 H 0.42254 0.19961 0.90381 0.0
H563 H 0.39285 0.20486 0.94183 0.0
H564 H 0.62111 0.60724 0.15065 0.0
H565 H 0.63004 0.6387 0.11984 0.0
H566 H 0.57647 0.66994 0.16119 0.0
H567 H 0.56743 0.63828 0.19241 0.0
H568 H 0.60749 0.65902 0.07203 0.0
H569 H 0.62255 0.71211 0.17867 0.0
H570 H 0.62031 0.68426 0.18369 0.0
H571 H 0.59735 0.69987 0.17811 0.0
C572 C 0.61115 0.62074 0.15323 0.0
C573 C 0.59348 0.62013 0.17401 0.0
C574 C 0.61633 0.6388 0.1356 0.0
C575 C 0.60406 0.65683 0.13823 0.0
C576 C 0.58644 0.6564 0.15914 0.0
H577 H 0.63648 0.77772 0.0437 0.0
H578 H 0.61435 0.75014 0.06794 0.0
C579 C 0.58127 0.63827 0.177 0.0
C580 C 0.60976 0.6757 0.11837 0.0
H581 H 0.6271 0.72599 0.12502 0.0
C582 C 0.61157 0.67372 0.08367 0.0
C583 C 0.61495 0.69501 0.13335 0.0
C584 C 0.61388 0.69802 0.1705 0.0
C585 C 0.61906 0.69015 0.0638 0.0
C586 C 0.62514 0.7091 0.07893 0.0
C587 C 0.62237 0.71149 0.11339 0.0
C588 C 0.63685 0.72546 0.06027 0.0
C589 C 0.6208 0.68694 0.02676 0.0
C590 C 0.65663 0.72074 0.04737 0.0
C591 C 0.66918 0.73638 0.0338 0.0
C592 C 0.66224 0.75711 0.03241 0.0
C593 C 0.64201 0.76178 0.04372 0.0
C594 C 0.62948 0.74608 0.05788 0.0
H595 H 0.60981 0.67475 0.01795 0.0
H596 H 0.61767 0.70162 1.01305 0.0
H597 H 0.63686 0.68175 0.02064 0.0
H598 H 0.66285 0.70511 0.0494 0.0
H599 H 0.68483 0.73241 0.02578 0.0
H600 H 0.15924 0.86665 0.40115 0.0
H601 H 0.12748 0.876 0.37148 0.0
H602 H 0.09552 0.82379 0.41582 0.0
H603 H 0.1275 0.81435 0.44591 0.0
H604 H 0.10587 0.85289 0.3253 0.0
H605 H 0.05502 0.87151 0.43352 0.0
H606 H 0.08291 0.86871 0.43742 0.0
H607 H 0.06667 0.84605 0.43337 0.0
C608 C 0.14549 0.8571 0.40464 0.0
C609 C 0.14598 0.8397 0.42587 0.0
C610 C 0.12729 0.86251 0.38767 0.0
C611 C 0.10901 0.8507 0.39145 0.0
C612 C 0.10929 0.83338 0.41288 0.0
H613 H 0.98883 0.88809 0.2994 0.0
H614 H 0.01527 0.86443 0.32308 0.0
C615 C 0.12758 0.82799 0.43009 0.0
C616 C 0.09003 0.85661 0.37219 0.0
H617 H 0.04078 0.87644 0.3803 0.0
C618 C 0.09155 0.85778 0.33737 0.0
C619 C 0.07123 0.86285 0.38778 0.0
C620 C 0.06877 0.8624 0.42508 0.0
C621 C 0.07521 0.86581 0.31795 0.0
C622 C 0.05687 0.87305 0.33366 0.0
C623 C 0.05483 0.87082 0.36826 0.0
C624 C 0.0411 0.88565 0.31543 0.0
C625 C 0.07794 0.86703 0.28076 0.0
C626 C 0.04687 0.9052 0.30285 0.0
C627 C 0.03189 0.91863 0.28967 0.0
C628 C 0.01082 0.91274 0.28834 0.0
C629 C 1.00506 0.89277 0.29939 0.0
C630 C 0.0201 0.87937 0.3132 0.0
H631 H 0.08952 0.85545 0.27174 0.0
H632 H 0.06291 0.86438 0.26774 0.0
H633 H 0.0837 0.88278 0.27401 0.0
H634 H 0.06285 0.91056 0.30479 0.0
H635 H 0.03665 0.93407 0.28183 0.0
H636 H 0.90659 0.41187 0.63845 0.0
H637 H 0.89577 0.37946 0.61205 0.0
H638 H 0.94005 0.34542 0.67153 0.0
H639 H 0.95104 0.37806 0.69825 0.0
H640 H 0.91845 0.35084 0.57488 0.0
H641 H 0.88558 0.3142 0.68888 0.0
H642 H 0.89226 0.34149 0.68706 0.0
H643 H 0.91239 0.32222 0.69112 0.0
C644 C 0.91418 0.39755 0.64586 0.0
C645 C 0.92974 0.39764 0.67052 0.0
C646 C 0.90793 0.37898 0.63071 0.0
C647 C 0.91699 0.35993 0.63982 0.0
C648 C 0.93259 0.35987 0.66439 0.0
H649 H 0.87836 0.24647 0.52592 0.0
H650 H 0.90184 0.27308 0.54982 0.0
C651 C 0.93884 0.37853 0.67972 0.0
C652 C 0.90958 0.34034 0.62372 0.0
H653 H 0.88196 0.29578 0.63888 0.0
C654 C 0.91075 0.33862 0.5889 0.0
C655 C 0.89947 0.32443 0.64201 0.0
C656 C 0.89715 0.32562 0.6793 0.0
C657 C 0.90135 0.32191 0.57183 0.0
C658 C 0.89065 0.3064 0.59006 0.0
C659 C 0.8903 0.30763 0.62495 0.0
C660 C 0.87712 0.2906 0.57362 0.0
C661 C 0.90187 0.32156 0.53436 0.0
C662 C 0.85555 0.29171 0.57873 0.0
C663 C 0.8423 0.27673 0.56526 0.0
C664 C 0.85019 0.26009 0.54626 0.0
C665 C 0.87179 0.25918 0.54022 0.0
C666 C 0.88519 0.27434 0.55391 0.0
H667 H 0.90893 0.33592 0.5238 0.0
H668 H 0.91114 0.30797 0.52583 0.0
H669 H 0.88584 0.3198 0.52432 0.0
H670 H 0.84892 0.30415 0.59358 0.0
H671 H 0.82575 0.27807 0.57027 0.0
H672 H 0.62506 0.8117 0.08923 0.0
H673 H 0.59524 0.81742 0.12687 0.0
H674 H 0.62503 0.87267 0.16518 0.0
H675 H 0.65468 0.86687 0.12826 0.0
H676 H 0.60605 0.84826 0.21498 0.0
H677 H 0.55194 0.8638 0.10963 0.0
H678 H 0.56544 0.83925 0.10948 0.0
H679 H 0.57986 0.86299 0.10416 0.0
C680 C 0.62535 0.82482 0.10615 0.0
C681 C 0.64213 0.83896 0.10553 0.0
C682 C 0.60823 0.82821 0.1274 0.0
C683 C 0.60769 0.84571 0.14851 0.0
C684 C 0.62496 0.85915 0.14905 0.0
H685 H 0.53685 0.92911 0.26049 0.0
H686 H 0.56284 0.9053 0.23762 0.0
C687 C 0.64189 0.85586 0.1278 0.0
C688 C 0.58902 0.85095 0.16909 0.0
H689 H 0.53936 0.87012 0.16338 0.0
C690 C 0.59134 0.85268 0.20372 0.0
C691 C 0.56976 0.85672 0.15452 0.0
C692 C 0.56648 0.85577 0.11741 0.0
C693 C 0.57533 0.86079 0.22389 0.0
C694 C 0.55654 0.86764 0.2091 0.0
C695 C 0.55373 0.86481 0.17476 0.0
C696 C 0.54098 0.88037 0.22778 0.0
C697 C 0.57888 0.86249 0.26083 0.0
C698 C 0.51995 0.87423 0.23046 0.0
C699 C 0.50502 0.88782 0.2442 0.0
C700 C 0.51086 0.90788 0.25472 0.0
C701 C 0.53198 0.91362 0.25306 0.0
C702 C 0.54686 0.9 0.23995 0.0
H703 H 0.59056 0.85093 0.26951 0.0
H704 H 0.58492 0.87827 0.26669 0.0
H705 H 0.56413 0.86012 0.27484 0.0
H706 H 0.51499 0.85926 0.22089 0.0
H707 H 0.48877 0.8832 0.24445 0.0
H708 H 0.38185 0.23766 0.98905 0.0
H709 H 0.40433 0.26484 0.96448 0.0
H710 H 0.35616 0.31045 0.98145 0.0
H711 H 0.33381 0.28354 1.00537 0.0
H712 H 0.39207 0.2889 0.90665 0.0
H713 H 0.40945 0.34035 1.01346 0.0
H714 H 0.40134 0.31356 0.0185 0.0
H715 H 0.38236 0.33355 1.01049 0.0
C716 C 0.37644 0.25364 0.98859 0.0
C717 C 0.3562 0.25857 0.99956 0.0
C718 C 0.38918 0.26911 0.97423 0.0
C719 C 0.38202 0.28978 0.97132 0.0
C720 C 0.36222 0.29477 0.98386 0.0
H721 H 0.39957 0.40757 0.88067 0.0
H722 H 0.39021 0.37621 0.91137 0.0
C723 C 0.34945 0.27936 0.99762 0.0
C724 C 0.39403 0.30592 0.95261 0.0
H725 H 0.41232 0.35578 0.95928 0.0
C726 C 0.39693 0.30338 0.91821 0.0
C727 C 0.40029 0.32484 0.96764 0.0
C728 C 0.3984 0.32822 1.00462 0.0
C729 C 0.40468 0.3197 0.89819 0.0
C730 C 0.41006 0.33899 0.91305 0.0
C731 C 0.40811 0.3411 0.94772 0.0
C732 C 0.41601 0.35776 0.89309 0.0
C733 C 0.40588 0.31654 0.86107 0.0
C734 C 0.43365 0.358 0.87221 0.0
C735 C 0.43906 0.37609 0.85437 0.0
C736 C 0.42708 0.39438 0.8574 0.0
C737 C 0.40937 0.39394 0.87809 0.0
C738 C 0.40394 0.37594 0.89566 0.0
H739 H 0.39709 0.30251 0.85294 0.0
H740 H 0.39966 0.33032 0.84769 0.0
H741 H 0.42242 0.31448 0.85368 0.0
H742 H 0.44347 0.34435 0.87017 0.0
H743 H 0.45292 0.37594 0.839 0.0
H744 H 0.02343 0.10837 0.67546 0.0
H745 H 0.99461 0.12931 0.65422 0.0
H746 H 0.96779 0.13177 0.75253 0.0
H747 H 0.99716 0.11105 0.77407 0.0
H748 H 0.95497 0.1142 0.65603 0.0
H749 H 0.95789 0.19119 0.71897 0.0
H750 H 0.97999 0.17377 0.71774 0.0
H751 H 0.9589 0.16899 0.74615 0.0
C752 C 0.01175 0.114 0.69276 0.0
C753 C 0.01255 0.10826 0.72641 0.0
C754 C 0.99522 0.12588 0.68057 0.0
C755 C 0.97896 0.13216 0.70167 0.0
C756 C 0.98031 0.12745 0.73581 0.0
H757 H 0.8551 0.18079 0.65569 0.0
H758 H 0.88669 0.16844 0.68335 0.0
C759 C 0.9971 0.11566 0.74817 0.0
C760 C 0.95969 0.14124 0.68684 0.0
H761 H 0.92796 0.18409 0.68611 0.0
C762 C 0.94915 0.12954 0.66255 0.0
C763 C 0.95191 0.16115 0.69553 0.0
C764 C 0.96281 0.17463 0.72083 0.0
C765 C 0.93118 0.1371 0.64675 0.0
C766 C 0.92359 0.15716 0.65493 0.0
C767 C 0.93387 0.16878 0.67964 0.0
C768 C 0.90488 0.16608 0.63823 0.0
C769 C 0.92023 0.12334 0.62181 0.0
C770 C 0.90467 0.16932 0.60368 0.0
C771 C 0.88654 0.17623 0.58769 0.0
C772 C 0.8682 0.18013 0.60591 0.0
C773 C 0.86874 0.17757 0.6407 0.0
C774 C 0.88688 0.17067 0.65666 0.0
H775 H 0.92472 0.10672 0.62469 0.0
H776 H 0.90303 0.12462 0.62429 0.0
H777 H 0.92461 0.12831 0.59632 0.0
H778 H 0.91847 0.1662 0.58897 0.0
H779 H 0.88677 0.17792 0.56094 0.0
H780 H 0.11119 0.60938 0.38198 0.0
H781 H 0.12062 0.64099 0.41182 0.0
H782 H 0.06946 0.67359 0.36585 0.0
H783 H 0.05983 0.64166 0.33563 0.0
H784 H 0.10592 0.69659 0.36579 0.0
H785 H 0.09184 0.66601 0.49212 0.0
H786 H 0.10869 0.64911 0.46891 0.0
H787 H 0.08221 0.65305 0.45535 0.0
C788 C 0.10173 0.62314 0.37845 0.0
C789 C 0.08455 0.62284 0.35671 0.0
C790 C 0.10712 0.64125 0.39565 0.0
C791 C 0.09541 0.65956 0.3919 0.0
C792 C 0.07857 0.65958 0.36951 0.0
H793 H 0.13533 0.77696 0.49383 0.0
H794 H 0.11053 0.75103 0.4713 0.0
C795 C 0.07316 0.64136 0.3521 0.0
C796 C 0.10156 0.67869 0.41053 0.0
H797 H 0.11573 0.69527 0.48812 0.0
C798 C 0.10752 0.69652 0.39262 0.0
C799 C 0.1035 0.67875 0.44564 0.0
C800 C 0.096 0.66077 0.46663 0.0
C801 C 0.11685 0.71366 0.40862 0.0
C802 C 0.12028 0.71296 0.4433 0.0
C803 C 0.11311 0.69576 0.4615 0.0
C804 C 0.13427 0.72818 0.45981 0.0
C805 C 0.12421 0.73195 0.38821 0.0
C806 C 0.1556 0.72367 0.46143 0.0
C807 C 0.1696 0.7383 0.47401 0.0
C808 C 0.16261 0.75774 0.48561 0.0
C809 C 0.14109 0.76199 0.48545 0.0
C810 C 0.12698 0.74729 0.47241 0.0
H811 H 0.11882 0.73102 0.36201 0.0
H812 H 0.11848 0.74671 0.39933 0.0
H813 H 0.14151 0.73249 0.3884 0.0
H814 H 0.16151 0.70901 0.45194 0.0
H815 H 0.18608 0.73456 0.47387 0.0
H816 H 0.88397 0.70589 0.43945 0.0
H817 H 0.91544 0.69602 0.40834 0.0
H818 H 0.88275 0.64332 0.36709 0.0
H819 H 0.85146 0.65311 0.39768 0.0
H820 H 0.93923 0.66121 0.41 0.0
H821 H 0.9063 0.66885 0.28391 0.0
H822 H 0.89327 0.6791 0.32019 0.0
H823 H 0.89055 0.65202 0.3091 0.0
C824 C 0.88351 0.6922 0.42376 0.0
C825 C 0.86505 0.68045 0.42081 0.0
C826 C 0.9015 0.68662 0.40585 0.0
C827 C 0.90138 0.66922 0.38458 0.0
C828 C 0.88311 0.65723 0.38231 0.0
H829 H 0.97975 0.58125 0.29723 0.0
H830 H 0.95254 0.60443 0.31808 0.0
C831 C 0.86517 0.66283 0.39998 0.0
C832 C 0.92045 0.66287 0.36575 0.0
H833 H 0.93685 0.6469 0.28886 0.0
C834 C 0.93886 0.65856 0.38339 0.0
C835 C 0.92015 0.65955 0.33089 0.0
C836 C 0.90156 0.66535 0.30989 0.0
C837 C 0.95636 0.64973 0.36755 0.0
C838 C 0.95547 0.64511 0.3332 0.0
C839 C 0.93751 0.65041 0.31522 0.0
C840 C 0.97171 0.63213 0.31682 0.0
C841 C 0.9753 0.64422 0.3879 0.0
C842 C 0.99142 0.64015 0.30813 0.0
C843 C 1.00703 0.62687 0.29556 0.0
C844 C 1.00314 0.60542 0.29203 0.0
C845 C 0.98317 0.59773 0.29961 0.0
C846 C 0.9676 0.61094 0.31159 0.0
H847 H 0.97342 0.64843 0.41452 0.0
H848 H 0.9784 0.62723 0.38605 0.0
H849 H 0.98916 0.65249 0.37787 0.0
H850 H 0.99488 0.65649 0.31197 0.0
H851 H 0.02239 0.63313 0.2904 0.0
H852 H 0.09447 0.13854 0.71455 0.0
H853 H 0.10569 0.17061 0.68669 0.0
H854 H 0.09878 0.14063 0.59144 0.0
H855 H 0.087 0.10886 0.61892 0.0
H856 H 0.14022 0.17526 0.64663 0.0
H857 H 0.06919 0.19568 0.57532 0.0
H858 H 0.06892 0.17704 0.60894 0.0
H859 H 0.07809 0.16952 0.56842 0.0
C860 C 0.09496 0.13887 0.68767 0.0
C861 C 0.08985 0.121 0.66908 0.0
C862 C 0.10149 0.15721 0.67174 0.0
C863 C 0.10283 0.15819 0.63688 0.0
C864 C 0.0975 0.14047 0.61828 0.0
H865 H 0.15929 0.24767 0.49891 0.0
H866 H 0.1389 0.21861 0.5226 0.0
C867 C 0.09102 0.12215 0.63414 0.0
C868 C 0.11118 0.17719 0.6201 0.0
H869 H 0.1002 0.21435 0.56153 0.0
C870 C 0.13138 0.18387 0.62822 0.0
C871 C 0.09976 0.18836 0.59576 0.0
C872 C 0.07772 0.18243 0.58675 0.0
C873 C 0.14057 0.20116 0.61252 0.0
C874 C 0.12913 0.21243 0.58837 0.0
C875 C 0.10896 0.20573 0.58002 0.0
C876 C 0.13795 0.23144 0.57235 0.0
C877 C 0.16267 0.20697 0.62151 0.0
C878 C 0.14318 0.24875 0.59196 0.0
C879 C 0.15475 0.26517 0.57855 0.0
C880 C 0.16101 0.26486 0.54508 0.0
C881 C 0.15434 0.24841 0.52464 0.0
C882 C 0.14286 0.23177 0.53823 0.0
H883 H 0.17102 0.19385 0.63364 0.0
H884 H 0.17161 0.21182 0.59915 0.0
H885 H 0.16241 0.22024 0.63919 0.0
H886 H 0.13924 0.24905 0.61815 0.0
H887 H 0.15977 0.27766 0.59482 0.0
H888 H 0.48999 0.38341 0.78589 0.0
H889 H 0.5169 0.35875 0.80556 0.0
H890 H 0.55914 0.41003 0.82176 0.0
H891 H 0.53258 0.43443 0.80275 0.0
H892 H 0.57598 0.37032 0.78781 0.0
H893 H 0.53535 0.35948 0.90923 0.0
H894 H 0.52104 0.35745 0.87078 0.0
H895 H 0.53056 0.38232 0.88417 0.0
C896 C 0.50519 0.38927 0.79296 0.0
C897 C 0.50922 0.41081 0.79279 0.0
C898 C 0.52047 0.37523 0.80441 0.0
C899 C 0.53998 0.38261 0.81531 0.0
C900 C 0.54423 0.40399 0.81351 0.0
H901 H 0.65505 0.36941 0.9065 0.0
H902 H 0.62527 0.37482 0.87007 0.0
C903 C 0.52901 0.41792 0.80264 0.0
C904 C 0.55586 0.36872 0.83057 0.0
H905 H 0.57038 0.34907 0.90603 0.0
C906 C 0.57459 0.36518 0.8134 0.0
C907 C 0.55402 0.36193 0.86389 0.0
C908 C 0.53422 0.36542 0.88336 0.0
C909 C 0.59189 0.35608 0.82923 0.0
C910 C 0.59065 0.35093 0.86343 0.0
C911 C 0.57143 0.35309 0.8799 0.0
C912 C 0.60963 0.34611 0.88347 0.0
C913 C 0.61153 0.35267 0.80932 0.0
C914 C 0.61085 0.32822 0.90363 0.0
C915 C 0.628 0.32516 0.92488 0.0
C916 C 0.64401 0.34013 0.92674 0.0
C917 C 0.64293 0.35767 0.90586 0.0
C918 C 0.62597 0.36066 0.88467 0.0
H919 H 0.60786 0.34969 0.78276 0.0
H920 H 0.6213 0.36693 0.81047 0.0
H921 H 0.62073 0.33936 0.81911 0.0
H922 H 0.59836 0.31686 0.90342 0.0
H923 H 0.62827 0.3116 0.94088 0.0
H924 H 0.45677 0.87325 0.19547 0.0
H925 H 0.45069 0.84386 0.15717 0.0
H926 H 0.39366 0.87277 0.12421 0.0
H927 H 0.39986 0.90198 0.16152 0.0
H928 H 0.41735 0.81683 0.15869 0.0
H929 H 0.41882 0.85564 0.03655 0.0
H930 H 0.42941 0.8677 0.07344 0.0
H931 H 0.4019 0.86928 0.06456 0.0
C932 C 0.44325 0.87351 0.17938 0.0
C933 C 0.42876 0.88992 0.18159 0.0
C934 C 0.43971 0.85667 0.15766 0.0
C935 C 0.42183 0.85617 0.13736 0.0
C936 C 0.40779 0.87291 0.13892 0.0
H937 H 0.33244 0.78313 0.0478 0.0
H938 H 0.35734 0.80886 0.06818 0.0
C939 C 0.41124 0.88955 0.1606 0.0
C940 C 0.41651 0.83757 0.11668 0.0
H941 H 0.39741 0.82429 0.0402 0.0
C942 C 0.41358 0.81827 0.13252 0.0
C943 C 0.41167 0.83933 0.08243 0.0
C944 C 0.41584 0.85907 0.06321 0.0
C945 C 0.40432 0.80131 0.11583 0.0
C946 C 0.39795 0.80367 0.08236 0.0
C947 C 0.40221 0.82248 0.06588 0.0
C948 C 0.38394 0.78823 0.06603 0.0
C949 C 0.40001 0.78147 0.13473 0.0
C950 C 0.39071 0.76814 0.05692 0.0
C951 C 0.37641 0.75335 0.04468 0.0
C952 C 0.35515 0.75843 0.04184 0.0
C953 C 0.34871 0.77877 0.04971 0.0
C954 C 0.36294 0.79351 0.06139 0.0
H955 H 0.4047 0.7826 0.16125 0.0
H956 H 0.38314 0.77763 0.13352 0.0
H957 H 0.4087 0.76841 0.12311 0.0
H958 H 0.40689 0.76376 0.06013 0.0
H959 H 0.38173 0.7377 0.0392 0.0
H960 H 0.13002 0.31698 0.58276 0.0
H961 H 0.09818 0.32646 0.61315 0.0
H962 H 0.13036 0.37854 0.65738 0.0
H963 H 0.16207 0.36909 0.62744 0.0
H964 H 0.10811 0.35655 0.70343 0.0
H965 H 0.05821 0.37388 0.59386 0.0
H966 H 0.06941 0.34824 0.59478 0.0
H967 H 0.08607 0.37061 0.59046 0.0
C968 C 0.13021 0.33059 0.59867 0.0
C969 C 0.14862 0.34228 0.60262 0.0
C970 C 0.11198 0.336 0.61604 0.0
C971 C 0.11175 0.35338 0.63737 0.0
C972 C 0.13011 0.36505 0.64121 0.0
H973 H 0.03632 0.4366 0.74372 0.0
H974 H 0.06347 0.41355 0.7223 0.0
C975 C 0.14829 0.35959 0.62409 0.0
C976 C 0.09263 0.35953 0.65617 0.0
H977 H 0.04312 0.37845 0.64666 0.0
C978 C 0.09384 0.36112 0.69097 0.0
C979 C 0.07388 0.36538 0.64007 0.0
C980 C 0.07175 0.36463 0.60273 0.0
C981 C 0.07719 0.36906 0.70989 0.0
C982 C 0.05883 0.37575 0.69367 0.0
C983 C 0.05717 0.3732 0.65909 0.0
C984 C 0.04252 0.38803 0.71131 0.0
C985 C 0.07955 0.37067 0.7471 0.0
C986 C 0.02166 0.38126 0.71284 0.0
C987 C 1.00606 0.39439 0.72576 0.0
C988 C 0.01115 0.41458 0.73662 0.0
C989 C 0.03208 0.42097 0.73605 0.0
C990 C 0.04761 0.40781 0.72376 0.0
H991 H 0.09131 0.35946 0.7566 0.0
H992 H 0.08487 0.38662 0.75358 0.0
H993 H 0.06446 0.36779 0.75989 0.0
H994 H 0.01735 0.36614 0.70303 0.0
H995 H 0.98995 0.38934 0.72515 0.0
H996 H 0.90651 0.91207 0.38629 0.0
H997 H 0.89564 0.88004 0.41373 0.0
H998 H 0.93957 0.8451 0.35474 0.0
H999 H 0.95059 0.87738 0.32692 0.0
H1000 H 0.90196 0.82601 0.35736 0.0
H1001 H 0.92498 0.8471 0.48516 0.0
H1002 H 0.90861 0.86674 0.46728 0.0
H1003 H 0.93381 0.86154 0.44928 0.0
C1004 C 0.91411 0.89766 0.37938 0.0
C1005 C 0.92962 0.89741 0.35459 0.0
C1006 C 0.90792 0.8793 0.39526 0.0
C1007 C 0.91717 0.86016 0.38708 0.0
C1008 C 0.93236 0.8597 0.36182 0.0
H1009 H 0.87597 0.74909 0.50363 0.0
H1010 H 0.8999 0.7751 0.4791 0.0
C1011 C 0.93856 0.87815 0.34576 0.0
C1012 C 0.90997 0.84066 0.40378 0.0
H1013 H 0.89857 0.8202 0.48027 0.0
C1014 C 0.90161 0.82459 0.38422 0.0
C1015 C 0.90984 0.83846 0.43887 0.0
C1016 C 0.92002 0.85429 0.46133 0.0
C1017 C 0.89183 0.80721 0.39875 0.0
C1018 C 0.89002 0.80598 0.4338 0.0
C1019 C 0.89969 0.82125 0.45342 0.0
C1020 C 0.87604 0.79044 0.44999 0.0
C1021 C 0.88296 0.79057 0.37636 0.0
C1022 C 0.85471 0.79086 0.44266 0.0
C1023 C 0.84118 0.77628 0.4566 0.0
C1024 C 0.84852 0.76083 0.4785 0.0
C1025 C 0.86983 0.76077 0.48688 0.0
C1026 C 0.88349 0.77555 0.47278 0.0
H1027 H 0.89125 0.7901 0.3521 0.0
H1028 H 0.88393 0.77495 0.38813 0.0
H1029 H 0.86631 0.79406 0.37135 0.0
H1030 H 0.84847 0.80249 0.42588 0.0
H1031 H 0.82486 0.77705 0.4498 0.0
H1032 H 0.52318 0.62874 0.25338 0.0
H1033 H 0.49634 0.65215 0.23005 0.0
H1034 H 0.46902 0.60024 0.17777 0.0
H1035 H 0.4953 0.57716 0.20047 0.0
H1036 H 0.47693 0.6359 0.13734 0.0
H1037 H 0.4325 0.65466 0.25263 0.0
H1038 H 0.46036 0.65833 0.25265 0.0
H1039 H 0.44979 0.6325 0.25033 0.0
C1040 C 0.51126 0.62237 0.23724 0.0
C1041 C 0.51145 0.60109 0.22874 0.0
C1042 C 0.49598 0.63573 0.22389 0.0
C1043 C 0.48068 0.62793 0.20205 0.0
C1044 C 0.48071 0.60667 0.1943 0.0
H1045 H 0.35941 0.65179 0.13376 0.0
H1046 H 0.39206 0.6423 0.1607 0.0
C1047 C 0.49581 0.59346 0.20744 0.0
C1048 C 0.46461 0.64143 0.18631 0.0
H1049 H 0.41802 0.66532 0.20188 0.0
C1050 C 0.46424 0.64274 0.15144 0.0
C1051 C 0.448 0.65017 0.20475 0.0
C1052 C 0.44746 0.64887 0.24217 0.0
C1053 C 0.44723 0.65154 0.13444 0.0
C1054 C 0.43021 0.65957 0.15284 0.0
C1055 C 0.43107 0.6592 0.18778 0.0
C1056 C 0.41043 0.66616 0.13645 0.0
C1057 C 0.44704 0.65095 0.09694 0.0
C1058 C 0.40978 0.68278 0.11368 0.0
C1059 C 0.39098 0.68824 0.09802 0.0
C1060 C 0.37246 0.67731 0.10513 0.0
C1061 C 0.37326 0.66074 0.128 0.0
C1062 C 0.39196 0.65527 0.14345 0.0
H1063 H 0.45954 0.6408 0.08675 0.0
H1064 H 0.43177 0.64526 0.08763 0.0
H1065 H 0.4495 0.66693 0.08716 0.0
H1066 H 0.42374 0.69163 0.10821 0.0
H1067 H 0.39086 0.70126 0.08092 0.0
H1068 H 0.58697 0.11157 0.90671 0.0
H1069 H 0.59802 0.14332 0.93445 0.0
H1070 H 0.59922 0.17548 0.84039 0.0
H1071 H 0.589 0.14323 0.812 0.0
H1072 H 0.63383 0.18289 0.87367 0.0
H1073 H 0.56846 0.19553 0.96051 0.0
H1074 H 0.57882 0.16979 0.96522 0.0
H1075 H 0.56687 0.17727 0.92648 0.0
C1076 C 0.58956 0.12532 0.89172 0.0
C1077 C 0.58725 0.12463 0.85689 0.0
C1078 C 0.59556 0.14368 0.90783 0.0
C1079 C 0.59912 0.16205 0.88976 0.0
C1080 C 0.5964 0.1616 0.85503 0.0
H1081 H 0.63853 0.2796 0.98835 0.0
H1082 H 0.61643 0.25338 0.96058 0.0
C1083 C 0.59045 0.14314 0.83879 0.0
C1084 C 0.60753 0.18098 0.90687 0.0
H1085 H 0.60118 0.21207 0.97543 0.0
C1086 C 0.62646 0.18944 0.89559 0.0
C1087 C 0.59788 0.1899 0.93528 0.0
C1088 C 0.57677 0.18278 0.94733 0.0
C1089 C 0.63649 0.20567 0.91278 0.0
C1090 C 0.62767 0.21345 0.94263 0.0
C1091 C 0.60818 0.20586 0.95296 0.0
C1092 C 0.63921 0.22858 0.96397 0.0
C1093 C 0.65664 0.21419 0.89892 0.0
C1094 C 0.6588 0.22309 0.97673 0.0
C1095 C 0.67131 0.23793 0.99241 0.0
C1096 C 0.66442 0.25856 0.99634 0.0
C1097 C 0.6441 0.26373 0.98612 0.0
C1098 C 0.63157 0.24881 0.96998 0.0
H1099 H 0.65793 0.21133 0.87175 0.0
H1100 H 0.65802 0.2312 0.90352 0.0
H1101 H 0.66996 0.20629 0.91119 0.0
H1102 H 0.66486 0.20749 0.97313 0.0
H1103 H 0.68691 0.23353 0.99998 0.0
H1104 H 0.26757 0.27418 0.1096 0.0
H1105 H 0.25847 0.28467 0.16617 0.0
H1106 H 0.299 0.23705 0.20523 0.0
H1107 H 0.30823 0.22652 0.14849 0.0
H1108 H 0.23881 0.26136 0.21261 0.0
H1109 H 0.31537 0.28643 0.26217 0.0
H1110 H 0.31084 0.28247 0.21834 0.0
H1111 H 0.31569 0.26058 0.24516 0.0
C1112 C 0.27472 0.26604 0.1302 0.0
C1113 C 0.28863 0.24945 0.12436 0.0
C1114 C 0.26951 0.27209 0.16262 0.0
C1115 C 0.27811 0.26182 0.1902 0.0
C1116 C 0.29244 0.24558 0.18452 0.0
H1117 H 0.25606 0.25832 0.40157 0.0
H1118 H 0.26835 0.25483 0.34453 0.0
C1119 C 0.29774 0.23954 0.15198 0.0
C1120 C 0.27099 0.26725 0.2246 0.0
H1121 H 0.28802 0.28192 0.30176 0.0
C1122 C 0.24957 0.26606 0.232 0.0
C1123 C 0.28495 0.2734 0.25006 0.0
C1124 C 0.30797 0.27601 0.24353 0.0
C1125 C 0.24185 0.27016 0.26415 0.0
C1126 C 0.25584 0.27603 0.28973 0.0
C1127 C 0.27723 0.27749 0.28225 0.0
C1128 C 0.24879 0.27931 0.32484 0.0
C1129 C 0.21884 0.2674 0.27072 0.0
C1130 C 0.23397 0.29462 0.33329 0.0
C1131 C 0.22673 0.2966 0.36619 0.0
C1132 C 0.23416 0.28328 0.39132 0.0
C1133 C 0.24958 0.26855 0.38288 0.0
C1134 C 0.25679 0.26663 0.35018 0.0
H1135 H 0.21107 0.25834 0.25072 0.0
H1136 H 0.21618 0.25934 0.29478 0.0
H1137 H 0.2113 0.28293 0.27204 0.0
H1138 H 0.22783 0.30493 0.31438 0.0
H1139 H 0.21491 0.30812 0.37175 0.0
H1140 H 0.4597 0.48153 0.63504 0.0
H1141 H 0.46642 0.49344 0.57774 0.0
H1142 H 0.53245 0.48556 0.59318 0.0
H1143 H 0.52584 0.47338 0.64957 0.0
H1144 H 0.49011 0.52821 0.55779 0.0
H1145 H 0.52426 0.4563 0.50467 0.0
H1146 H 0.50977 0.45636 0.54316 0.0
H1147 H 0.53665 0.46439 0.54251 0.0
C1148 C 0.47558 0.48196 0.62593 0.0
C1149 C 0.49221 0.47655 0.64704 0.0
C1150 C 0.47945 0.48891 0.59325 0.0
C1151 C 0.49998 0.49025 0.58084 0.0
C1152 C 0.51647 0.48439 0.60173 0.0
H1153 H 0.55953 0.53403 0.39614 0.0
H1154 H 0.55273 0.52207 0.45338 0.0
C1155 C 0.51265 0.4776 0.63423 0.0
C1156 C 0.50446 0.4987 0.54683 0.0
H1157 H 0.52901 0.48745 0.47329 0.0
C1158 C 0.49845 0.51921 0.53924 0.0
C1159 C 0.51558 0.48713 0.52256 0.0
C1160 C 0.52178 0.46476 0.52845 0.0
C1161 C 0.50355 0.52853 0.50852 0.0
C1162 C 0.51466 0.51696 0.48425 0.0
C1163 C 0.52066 0.49644 0.49184 0.0
C1164 C 0.51919 0.52543 0.45026 0.0
C1165 C 0.49736 0.55091 0.50266 0.0
C1166 C 0.50273 0.53139 0.42937 0.0
C1167 C 0.5066 0.53823 0.39691 0.0
C1168 C 0.52706 0.5392 0.38412 0.0
C1169 C 0.54364 0.53366 0.40523 0.0
C1170 C 0.53973 0.52668 0.43787 0.0
H1171 H 0.49491 0.55937 0.52645 0.0
H1172 H 0.50937 0.5593 0.48793 0.0
H1173 H 0.48248 0.5513 0.48864 0.0
H1174 H 0.48675 0.53029 0.4379 0.0
H1175 H 0.49344 0.54255 0.38158 0.0
H1176 H 0.22646 0.74028 0.63125 0.0
H1177 H 0.2386 0.73421 0.68781 0.0
H1178 H 0.24259 0.8005 0.70392 0.0
H1179 H 0.23035 0.8067 0.64682 0.0
H1180 H 0.2762 0.74547 0.71473 0.0
H1181 H 0.21147 0.78102 0.7867 0.0
H1182 H 0.2093 0.77515 0.74295 0.0
H1183 H 0.22315 0.79799 0.75645 0.0
C1184 C 0.22984 0.75363 0.64677 0.0
C1185 C 0.22755 0.77401 0.63429 0.0
C1186 C 0.23676 0.7501 0.67924 0.0
C1187 C 0.2415 0.76684 0.70037 0.0
C1188 C 0.23875 0.78728 0.68837 0.0
H1189 H 0.28941 0.77466 0.90182 0.0
H1190 H 0.27778 0.78101 0.84503 0.0
C1191 C 0.23173 0.79084 0.65571 0.0
C1192 C 0.25006 0.76261 0.73429 0.0
H1193 H 0.24096 0.76992 0.81727 0.0
C1194 C 0.26845 0.75079 0.73716 0.0
C1195 C 0.24001 0.76948 0.76365 0.0
C1196 C 0.21979 0.78146 0.76247 0.0
C1197 C 0.2772 0.74596 0.76835 0.0
C1198 C 0.26712 0.75279 0.79773 0.0
C1199 C 0.24873 0.76463 0.79485 0.0
C1200 C 0.27558 0.74844 0.83169 0.0
C1201 C 0.29745 0.73405 0.76948 0.0
C1202 C 0.2786 0.72795 0.84334 0.0
C1203 C 0.2854 0.72425 0.87608 0.0
C1204 C 0.28903 0.74097 0.89794 0.0
C1205 C 0.28648 0.76141 0.88586 0.0
C1206 C 0.27983 0.76508 0.85329 0.0
H1207 H 0.3059 0.73482 0.74538 0.0
H1208 H 0.30782 0.74014 0.78933 0.0
H1209 H 0.29412 0.71742 0.77489 0.0
H1210 H 0.2751 0.71478 0.82746 0.0
H1211 H 0.28698 0.70835 0.8847 0.0
H1212 H 1.00507 0.51437 0.86616 0.0
H1213 H 0.0117 0.52439 0.92353 0.0
H1214 H 0.97998 0.46911 0.95761 0.0
H1215 H 0.97384 0.45857 0.89956 0.0
H1216 H 0.98623 0.53298 0.97545 0.0
H1217 H 0.03563 0.46454 1.00559 0.0
H1218 H 0.02803 0.4708 0.96359 0.0
H1219 H 0.00991 0.45819 0.99116 0.0
C1220 C 0.99959 0.50419 0.88575 0.0
C1221 C 0.98925 0.48541 0.87811 0.0
C1222 C 1.00329 0.51006 0.91868 0.0
C1223 C 0.99679 0.49734 0.94508 0.0
C1224 C 0.98563 0.47897 0.93772 0.0
H1225 H 1.00873 0.50786 0.15895 0.0
H1226 H 1.00226 0.49735 0.10166 0.0
C1227 C 0.98189 0.47307 0.90454 0.0
C1228 C 1.00196 0.5035 0.97999 0.0
H1229 H 0.0285 0.488 0.0495 0.0
C1230 C 0.9955 0.52313 0.9916 0.0
C1231 C 0.0142 0.49077 1.00113 0.0
C1232 C 0.02254 0.46998 0.98975 0.0
C1233 C 1.00059 0.53021 0.02375 0.0
C1234 C 0.01281 0.51749 0.04487 0.0
C1235 C 0.01925 0.49784 0.03331 0.0
C1236 C 0.01805 0.52375 0.07969 0.0
C1237 C 0.99235 0.55105 0.03512 0.0
C1238 C 0.02967 0.54187 0.08673 0.0
C1239 C 0.03339 0.54801 0.1198 0.0
C1240 C 0.0255 0.53617 0.14642 0.0
C1241 C 0.01466 0.51761 0.13914 0.0
C1242 C 0.01104 0.51148 0.1063 0.0
H1243 H 0.97942 0.55665 0.0191 0.0
H1244 H 0.98668 0.55019 0.06118 0.0
H1245 H 1.0051 0.56272 0.03406 0.0
H1246 H 0.03565 0.55139 0.06666 0.0
H1247 H 0.0418 0.56234 0.12453 0.0
H1248 H 0.80234 0.71315 0.65562 0.0
H1249 H 0.78953 0.71553 0.71325 0.0
H1250 H 0.74657 0.76375 0.68391 0.0
H1251 H 0.75874 0.76105 0.62679 0.0
H1252 H 0.79088 0.74967 0.75508 0.0
H1253 H 0.70862 0.72636 0.73732 0.0
H1254 H 0.72836 0.72186 0.70612 0.0
H1255 H 0.71622 0.74704 0.70987 0.0
C1256 C 0.7899 0.72396 0.6614 0.0
C1257 C 0.78171 0.73698 0.63647 0.0
C1258 C 0.78265 0.72541 0.6944 0.0
C1259 C 0.76684 0.73966 0.70304 0.0
C1260 C 0.75844 0.75234 0.678 0.0
H1261 H 0.71071 0.79132 0.88245 0.0
H1262 H 0.72015 0.78172 0.82527 0.0
C1263 C 0.76567 0.75096 0.64526 0.0
C1264 C 0.75988 0.74236 0.73835 0.0
H1265 H 0.71652 0.74418 0.78817 0.0
C1266 C 0.77466 0.74819 0.76238 0.0
C1267 C 0.73867 0.74061 0.74803 0.0
C1268 C 0.72209 0.73342 0.72405 0.0
C1269 C 0.76879 0.75293 0.7953 0.0
C1270 C 0.74754 0.7515 0.80484 0.0
C1271 C 0.73278 0.7454 0.78095 0.0
C1272 C 0.74044 0.75631 0.83947 0.0
C1273 C 0.78535 0.76014 0.81932 0.0
C1274 C 0.74803 0.74481 0.86654 0.0
C1275 C 0.74258 0.75019 0.89917 0.0
C1276 C 0.72928 0.76719 0.90571 0.0
C1277 C 0.72086 0.77809 0.87846 0.0
C1278 C 0.72636 0.77268 0.84571 0.0
H1279 H 0.79965 0.76549 0.80624 0.0
H1280 H 0.7795 0.77305 0.83516 0.0
H1281 H 0.78974 0.74699 0.83579 0.0
H1282 H 0.75844 0.73177 0.86247 0.0
H1283 H 0.74904 0.74116 0.91939 0.0
H1284 H 0.75125 0.24068 0.1081 0.0
H1285 H 0.76095 0.23053 0.16451 0.0
H1286 H 0.72338 0.28043 0.20399 0.0
H1287 H 0.71365 0.29073 0.14737 0.0
H1288 H 0.78262 0.25445 0.20855 0.0
H1289 H 0.7067 0.23181 0.26383 0.0
H1290 H 0.71044 0.23463 0.21955 0.0
H1291 H 0.70666 0.25725 0.24524 0.0
C1292 C 0.74488 0.24942 0.12875 0.0
C1293 C 0.73172 0.26661 0.12304 0.0
C1294 C 0.75041 0.24354 0.16108 0.0
C1295 C 0.74284 0.25458 0.1887 0.0
C1296 C 0.72914 0.27136 0.18323 0.0
H1297 H 0.79738 0.26858 0.38251 0.0
H1298 H 0.78517 0.27123 0.32525 0.0
C1299 C 0.72356 0.27726 0.15077 0.0
C1300 C 0.75062 0.24946 0.2228 0.0
H1301 H 0.73517 0.23612 0.30151 0.0
C1302 C 0.77221 0.25029 0.22875 0.0
C1303 C 0.73716 0.24377 0.24925 0.0
C1304 C 0.71396 0.24159 0.24419 0.0
C1305 C 0.78059 0.24625 0.26042 0.0
C1306 C 0.76708 0.24139 0.28716 0.0
C1307 C 0.74555 0.23991 0.28108 0.0
C1308 C 0.77496 0.23918 0.32191 0.0
C1309 C 0.80391 0.24726 0.26504 0.0
C1310 C 0.77328 0.22025 0.33939 0.0
C1311 C 0.78038 0.21866 0.37241 0.0
C1312 C 0.78892 0.2361 0.38869 0.0
C1313 C 0.79073 0.2549 0.37088 0.0
C1314 C 0.78385 0.25642 0.338 0.0
H1315 H 0.81233 0.24561 0.24103 0.0
H1316 H 0.80813 0.26259 0.2759 0.0
H1317 H 0.80934 0.2349 0.28228 0.0
H1318 H 0.76642 0.20674 0.32752 0.0
H1319 H 0.7786 0.20404 0.38552 0.0
H1320 H 0.95982 0.98245 0.13157 0.0
H1321 H 0.96601 0.99387 0.07384 0.0
H1322 H 0.0321 0.98518 0.08738 0.0
H1323 H 0.02599 0.97366 0.14437 0.0
H1324 H 0.99086 0.02872 0.05436 0.0
H1325 H 0.0216 0.95599 0.99852 0.0
H1326 H 1.00722 0.95624 0.03713 0.0
H1327 H 0.03433 0.96337 0.03646 0.0
C1328 C 0.97558 0.98256 0.1219 0.0
C1329 C 0.99241 0.97718 0.14259 0.0
C1330 C 0.97915 0.98922 0.08901 0.0
C1331 C 0.99954 0.99025 0.07604 0.0
C1332 C 0.01622 0.98426 0.09645 0.0
H1333 H 0.05736 0.0328 0.88954 0.0
H1334 H 0.05112 0.02036 0.94662 0.0
C1335 C 0.0127 0.97781 0.12919 0.0
C1336 C 1.00374 0.99875 0.04206 0.0
H1337 H 0.02646 0.98711 0.96726 0.0
C1338 C 0.99847 0.01956 0.03522 0.0
C1339 C 0.01396 0.98694 0.01714 0.0
C1340 C 0.01946 0.96434 0.02248 0.0
C1341 C 1.00342 0.02894 1.00453 0.0
C1342 C 0.01355 0.0171 0.9795 0.0
C1343 C 0.01884 0.99628 0.98637 0.0
C1344 C 0.01779 0.02567 0.94554 0.0
C1345 C 0.99819 0.05164 0.99955 0.0
C1346 C 1.00125 0.03285 0.92584 0.0
C1347 C 1.0048 0.04002 0.89349 0.0
C1348 C 0.02499 0.04005 0.87959 0.0
C1349 C 0.04167 0.03318 0.89948 0.0
C1350 C 0.03808 0.02592 0.93204 0.0
H1351 H 0.99679 0.05998 0.02366 0.0
H1352 H 0.01019 0.0596 0.98419 0.0
H1353 H 0.98297 0.05288 0.98661 0.0
H1354 H 0.98542 0.03252 0.93523 0.0
H1355 H 0.99158 0.04541 0.87919 0.0
H1356 H 0.47634 0.96383 0.40239 0.0
H1357 H 0.48581 0.97541 0.45858 0.0
H1358 H 0.53973 1.00697 0.41893 0.0
H1359 H 0.53017 0.99574 0.3629 0.0
H1360 H 0.51957 0.97048 0.49895 0.0
H1361 H 0.51157 0.05417 0.46725 0.0
H1362 H 0.50287 0.03372 0.43981 0.0
H1363 H 0.53003 0.04072 0.44152 0.0
C1364 C 0.49037 0.97299 0.40572 0.0
C1365 C 0.50236 0.97903 0.37801 0.0
C1366 C 0.49573 0.97971 0.43788 0.0
C1367 C 0.51321 0.9926 0.44309 0.0
C1368 C 0.52581 0.99766 0.41564 0.0
H1369 H 0.56585 0.0405 0.63229 0.0
H1370 H 0.5625 0.02828 0.57441 0.0
C1371 C 0.52037 0.9911 0.38355 0.0
C1372 C 0.51806 1.00103 0.47699 0.0
H1373 H 0.525 0.04641 0.52071 0.0
C1374 C 0.5208 0.98708 0.50358 0.0
C1375 C 0.51959 0.02275 0.48337 0.0
C1376 C 0.51567 0.03873 0.45658 0.0
C1377 C 0.52507 0.99421 0.53604 0.0
C1378 C 0.52668 0.01584 0.54226 0.0
C1379 C 0.52409 0.02981 0.51579 0.0
C1380 C 0.52905 0.02417 0.57667 0.0
C1381 C 0.52755 0.97864 0.5638 0.0
C1382 C 0.51137 0.02636 0.59684 0.0
C1383 C 0.51321 0.03345 0.62959 0.0
C1384 C 0.53282 0.03848 0.64329 0.0
C1385 C 0.55052 0.03687 0.62266 0.0
C1386 C 0.54864 0.02977 0.58964 0.0
H1387 H 0.52788 0.96233 0.55455 0.0
H1388 H 0.54217 0.9818 0.57771 0.0
H1389 H 0.51437 0.98029 0.58153 0.0
H1390 H 0.49609 0.02236 0.58729 0.0
H1391 H 0.49913 0.0349 0.64426 0.0
H1392 H 0.08931 0.09053 0.85398 0.0
H1393 H 0.11319 0.10607 0.89522 0.0
H1394 H 0.15789 0.11835 0.81755 0.0
H1395 H 0.13448 0.10318 0.77677 0.0
H1396 H 0.15604 0.09344 0.90959 0.0
H1397 H 0.15217 0.17489 0.86512 0.0
H1398 H 0.13257 0.15572 0.85483 0.0
H1399 H 0.15673 0.15667 0.83206 0.0
C1400 C 0.10413 0.09678 0.84576 0.0
C1401 C 0.10995 0.09561 0.81205 0.0
C1402 C 0.11778 0.10556 0.86933 0.0
C1403 C 0.13725 0.11361 0.8594 0.0
C1404 C 0.14287 0.11258 0.82577 0.0
H1405 H 0.25507 0.15936 0.91712 0.0
H1406 H 0.22322 0.1457 0.89219 0.0
C1407 C 0.12943 0.10375 0.80246 0.0
C1408 C 0.15234 0.12253 0.88368 0.0
H1409 H 0.18267 0.16558 0.8966 0.0
C1410 C 0.16156 0.10935 0.90736 0.0
C1411 C 0.15956 0.1433 0.88075 0.0
C1412 C 0.1496 0.15853 0.85704 0.0
C1413 C 0.17868 0.11602 0.92662 0.0
C1414 C 0.18663 0.13641 0.92222 0.0
C1415 C 0.17669 0.14988 0.89978 0.0
C1416 C 0.20619 0.14365 0.93849 0.0
C1417 C 0.18889 0.10088 0.95019 0.0
C1418 C 0.20734 0.14692 0.97298 0.0
C1419 C 0.2256 0.15495 0.98741 0.0
C1420 C 0.24303 0.15996 0.96758 0.0
C1421 C 0.24189 0.15612 0.93315 0.0
C1422 C 0.22369 0.14818 0.91883 0.0
H1423 H 0.18262 0.08483 0.94746 0.0
H1424 H 0.206 0.10053 0.94595 0.0
H1425 H 0.18619 0.10607 0.97615 0.0
H1426 H 0.19394 0.14377 0.98862 0.0
H1427 H 0.22581 0.15789 1.01391 0.0
H1428 H 0.57928 0.46519 0.23939 0.0
H1429 H 0.5967 0.43522 0.21417 0.0
H1430 H 0.65435 0.46973 0.21042 0.0
H1431 H 0.63688 0.50002 0.23494 0.0
H1432 H 0.64407 0.45119 0.15014 0.0
H1433 H 0.63845 0.39362 0.25252 0.0
H1434 H 0.61399 0.40537 0.24165 0.0
H1435 H 0.63444 0.42118 0.25891 0.0
C1436 C 0.59571 0.46638 0.23345 0.0
C1437 C 0.60665 0.48508 0.23916 0.0
C1438 C 0.6057 0.44913 0.21928 0.0
C1439 C 0.6269 0.45011 0.21063 0.0
C1440 C 0.638 0.46856 0.21702 0.0
H1441 H 0.70691 0.34895 0.14411 0.0
H1442 H 0.68951 0.37682 0.17487 0.0
C1443 C 0.62803 0.48582 0.23131 0.0
C1444 C 0.63709 0.43239 0.19304 0.0
H1445 H 0.64876 0.38055 0.19958 0.0
C1446 C 0.64517 0.43577 0.16101 0.0
C1447 C 0.63865 0.41227 0.20727 0.0
C1448 C 0.63111 0.40786 0.2421 0.0
C1449 C 0.65447 0.41957 0.14269 0.0
C1450 C 0.6555 0.39932 0.15654 0.0
C1451 C 0.64774 0.396 0.18879 0.0
C1452 C 0.66525 0.38158 0.13836 0.0
C1453 C 0.66346 0.42439 0.10887 0.0
C1454 C 0.65714 0.37458 0.10789 0.0
C1455 C 0.66706 0.35858 0.09017 0.0
C1456 C 0.6853 0.34923 0.10261 0.0
C1457 C 0.69297 0.35585 0.13365 0.0
C1458 C 0.68302 0.37179 0.15135 0.0
H1459 H 0.66591 0.44138 0.10527 0.0
H1460 H 0.67858 0.41627 0.10518 0.0
H1461 H 0.6525 0.41889 0.08943 0.0
H1462 H 0.64322 0.38164 0.09765 0.0
H1463 H 0.66067 0.35386 0.06642 0.0
H1464 H 0.30184 0.8224 0.48479 0.0
H1465 H 0.3323 0.8398 0.46079 0.0
H1466 H 0.30006 0.89867 0.46489 0.0
H1467 H 0.26934 0.8813 0.4883 0.0
H1468 H 0.31774 0.88974 0.40245 0.0
H1469 H 0.37559 0.87884 0.50345 0.0
H1470 H 0.36259 0.85537 0.4906 0.0
H1471 H 0.34787 0.87587 0.50998 0.0
C1472 C 0.30126 0.83908 0.48081 0.0
C1473 C 0.2831 0.85044 0.48844 0.0
C1474 C 0.31878 0.84904 0.46735 0.0
C1475 C 0.31856 0.87057 0.46129 0.0
C1476 C 0.30063 0.88205 0.46952 0.0
H1477 H 0.42049 0.95129 0.39998 0.0
H1478 H 0.39246 0.93338 0.42978 0.0
C1479 C 0.28313 0.87212 0.48314 0.0
C1480 C 0.33649 0.88088 0.44446 0.0
H1481 H 0.38861 0.89124 0.45171 0.0
C1482 C 0.33322 0.89012 0.41327 0.0
C1483 C 0.35666 0.88149 0.45867 0.0
C1484 C 0.36094 0.87254 0.49265 0.0
C1485 C 0.3496 0.89969 0.39571 0.0
C1486 C 0.36988 0.89984 0.40953 0.0
C1487 C 0.37311 0.8909 0.44097 0.0
C1488 C 0.38777 0.90982 0.39209 0.0
C1489 C 0.34498 0.90987 0.36272 0.0
C1490 C 0.39482 0.90223 0.36131 0.0
C1491 C 0.41091 0.91241 0.34418 0.0
C1492 C 0.42027 0.93041 0.35752 0.0
C1493 C 0.41358 0.93756 0.38886 0.0
C1494 C 0.39757 0.92732 0.40599 0.0
H1495 H 0.32801 0.91251 0.35915 0.0
H1496 H 0.35321 0.92504 0.36053 0.0
H1497 H 0.35055 0.89961 0.34235 0.0
H1498 H 0.38771 0.88855 0.35035 0.0
H1499 H 0.41568 0.90643 0.32017 0.0
H1500 H 0.83574 0.6815 0.60982 0.0
H1501 H 0.85206 0.65967 0.65305 0.0
H1502 H 0.87949 0.62109 0.57697 0.0
H1503 H 0.86338 0.64248 0.53416 0.0
H1504 H 0.84609 0.61403 0.65992 0.0
H1505 H 0.92876 0.63562 0.64009 0.0
H1506 H 0.90737 0.652 0.627 0.0
H1507 H 0.91513 0.63002 0.60215 0.0
C1508 C 0.84552 0.66854 0.60243 0.0
C1509 C 0.84828 0.66371 0.56858 0.0
C1510 C 0.85473 0.65605 0.6271 0.0
C1511 C 0.86715 0.63887 0.61819 0.0
C1512 C 0.87022 0.63441 0.58444 0.0
H1513 H 0.92757 0.52884 0.67187 0.0
H1514 H 0.91199 0.56036 0.64921 0.0
C1515 C 0.86089 0.64663 0.55997 0.0
C1516 C 0.87622 0.62466 0.64351 0.0
H1517 H 0.92246 0.60234 0.66576 0.0
C1518 C 0.8628 0.61177 0.66196 0.0
C1519 C 0.89801 0.62175 0.64607 0.0
C1520 C 0.91318 0.63571 0.62801 0.0
C1521 C 0.87059 0.59507 0.68098 0.0
C1522 C 0.89234 0.59138 0.6818 0.0
C1523 C 0.90577 0.60509 0.66498 0.0
C1524 C 0.90138 0.57217 0.69664 0.0
C1525 C 0.85546 0.58068 0.69827 0.0
C1526 C 0.90059 0.56822 0.73099 0.0
C1527 C 0.90968 0.55011 0.7442 0.0
C1528 C 0.91984 0.53572 0.72327 0.0
C1529 C 0.92031 0.53973 0.68888 0.0
C1530 C 0.91129 0.55773 0.6758 0.0
H1531 H 0.83901 0.58404 0.69149 0.0
H1532 H 0.85896 0.5642 0.69199 0.0
H1533 H 0.8571 0.58249 0.72557 0.0
H1534 H 0.89323 0.57928 0.74761 0.0
H1535 H 0.90915 0.54762 0.7708 0.0
H1536 H 0.76637 0.88587 0.05858 0.0
H1537 H 0.79747 0.90047 0.08524 0.0
H1538 H 0.82436 0.83899 0.09117 0.0
H1539 H 0.79315 0.82434 0.06528 0.0
H1540 H 0.82699 0.85741 0.14886 0.0
H1541 H 0.85554 0.91298 0.05418 0.0
H1542 H 0.82882 0.91774 0.06493 0.0
H1543 H 0.83594 0.89361 0.0451 0.0
C1544 C 0.77909 0.87554 0.06502 0.0
C1545 C 0.77724 0.85394 0.05992 0.0
C1546 C 0.79694 0.88392 0.08013 0.0
C1547 C 0.8135 0.87092 0.08991 0.0
C1548 C 0.81188 0.8494 0.0839 0.0
H1549 H 0.93064 0.9191 0.17906 0.0
H1550 H 0.90607 0.90228 0.14032 0.0
C1551 C 0.79398 0.84102 0.06916 0.0
C1552 C 0.83164 0.87934 0.10898 0.0
H1553 H 0.86897 0.91753 0.10961 0.0
C1554 C 0.83629 0.87039 0.13998 0.0
C1555 C 0.84412 0.89609 0.09738 0.0
C1556 C 0.84101 0.90551 0.06342 0.0
C1557 C 0.85238 0.87817 0.16014 0.0
C1558 C 0.86395 0.89575 0.14952 0.0
C1559 C 0.85997 0.9042 0.11795 0.0
C1560 C 0.87907 0.90635 0.17201 0.0
C1561 C 0.85675 0.8675 0.19283 0.0
C1562 C 0.87204 0.91457 0.20228 0.0
C1563 C 0.88592 0.92402 0.2243 0.0
C1564 C 0.90728 0.92574 0.21661 0.0
C1565 C 0.91433 0.91793 0.18588 0.0
C1566 C 0.90031 0.90837 0.1637 0.0
H1567 H 0.8515 0.851 0.1925 0.0
H1568 H 0.87364 0.86792 0.1989 0.0
H1569 H 0.84811 0.87562 0.21293 0.0
H1570 H 0.8557 0.91364 0.20898 0.0
H1571 H 0.87978 0.92997 0.24752 0.0
H1572 H 0.44335 0.55041 0.79514 0.0
H1573 H 0.42789 0.58046 0.82331 0.0
H1574 H 0.37075 0.54613 0.83727 0.0
H1575 H 0.38609 0.516 0.8089 0.0
H1576 H 0.36387 0.58814 0.8211 0.0
H1577 H 0.42101 0.58069 0.92407 0.0
H1578 H 0.43247 0.58395 0.88367 0.0
H1579 H 0.41774 0.5608 0.89283 0.0
C1580 C 0.42745 0.54927 0.80401 0.0
C1581 C 0.41607 0.53065 0.80007 0.0
C1582 C 0.41863 0.56649 0.82018 0.0
C1583 C 0.39829 0.56546 0.8331 0.0
C1584 C 0.3865 0.54731 0.82765 0.0
H1585 H 0.34306 0.62852 0.99749 0.0
H1586 H 0.35887 0.60548 0.95676 0.0
C1587 C 0.39527 0.53009 0.8113 0.0
C1588 C 0.38977 0.58273 0.85394 0.0
H1589 H 0.39745 0.60872 0.92714 0.0
C1590 C 0.37127 0.59275 0.84419 0.0
C1591 C 0.39931 0.58864 0.88428 0.0
C1592 C 0.41862 0.57787 0.89709 0.0
C1593 C 0.36199 0.60832 0.86404 0.0
C1594 C 0.37157 0.61421 0.89433 0.0
C1595 C 0.39021 0.60439 0.90379 0.0
C1596 C 0.36156 0.62888 0.91833 0.0
C1597 C 0.3416 0.61779 0.85312 0.0
C1598 C 0.35782 0.64994 0.91052 0.0
C1599 C 0.34864 0.66337 0.93405 0.0
C1600 C 0.34309 0.65594 0.96579 0.0
C1601 C 0.34701 0.63488 0.97336 0.0
C1602 C 0.35613 0.6216 0.95003 0.0
H1603 H 0.33437 0.60893 0.83238 0.0
H1604 H 0.33041 0.61841 0.87418 0.0
H1605 H 0.34438 0.63398 0.84453 0.0
H1606 H 0.36217 0.65604 0.8864 0.0
H1607 H 0.34589 0.67948 0.92739 0.0
H1608 H 0.74982 0.13658 0.55339 0.0
H1609 H 0.71946 0.12146 0.58128 0.0
H1610 H 0.68319 0.1758 0.55628 0.0
H1611 H 0.71361 0.19112 0.52882 0.0
H1612 H 0.68042 0.16774 0.62045 0.0
H1613 H 0.66597 0.09432 0.55244 0.0
H1614 H 0.69249 0.09622 0.56618 0.0
H1615 H 0.68265 0.11459 0.53623 0.0
C1616 C 0.73522 0.14505 0.55303 0.0
C1617 C 0.73415 0.16508 0.53895 0.0
C1618 C 0.71781 0.13635 0.56895 0.0
C1619 C 0.69888 0.14735 0.57066 0.0
C1620 C 0.69757 0.16697 0.5553 0.0
H1621 H 0.58835 0.09459 0.67317 0.0
H1622 H 0.61071 0.10978 0.62968 0.0
C1623 C 0.71499 0.17573 0.53964 0.0
C1624 C 0.68128 0.1395 0.59147 0.0
H1625 H 0.6511 0.09667 0.60748 0.0
C1626 C 0.67383 0.15231 0.61721 0.0
C1627 C 0.67237 0.11947 0.58716 0.0
C1628 C 0.67863 0.10545 0.55877 0.0
C1629 C 0.65851 0.14532 0.63957 0.0
C1630 C 0.65064 0.12481 0.63662 0.0
C1631 C 0.65729 0.11232 0.60997 0.0
C1632 C 0.63679 0.11564 0.66248 0.0
C1633 C 0.65107 0.15995 0.66646 0.0
C1634 C 0.64408 0.11369 0.69516 0.0
C1635 C 0.63144 0.10509 0.71987 0.0
C1636 C 0.61116 0.09808 0.71255 0.0
C1637 C 0.60383 0.09993 0.6797 0.0
C1638 C 0.61661 0.10854 0.65482 0.0
H1639 H 0.65351 0.1765 0.65935 0.0
H1640 H 0.63427 0.15752 0.67197 0.0
H1641 H 0.66007 0.15699 0.68952 0.0
H1642 H 0.65971 0.11869 0.70156 0.0
H1643 H 0.6377 0.10389 0.74479 0.0
H1644 H 0.08686 0.49347 0.35055 0.0
H1645 H 0.10335 0.46277 0.37444 0.0
H1646 H 0.12932 0.44712 0.27874 0.0
H1647 H 0.11275 0.47812 0.25444 0.0
H1648 H 0.09727 0.4215 0.35821 0.0
H1649 H 0.18031 0.44404 0.33947 0.0
H1650 H 0.15924 0.46249 0.3353 0.0
H1651 H 0.16413 0.4438 0.30302 0.0
C1652 C 0.09596 0.48348 0.33441 0.0
C1653 C 0.09831 0.48822 0.30045 0.0
C1654 C 0.10547 0.46593 0.34819 0.0
C1655 C 0.11769 0.45263 0.32852 0.0
C1656 C 0.12025 0.45731 0.29459 0.0
H1657 H 0.18157 0.34188 0.41548 0.0
H1658 H 0.16594 0.36443 0.37251 0.0
C1659 C 0.11074 0.47502 0.28071 0.0
C1660 C 0.12725 0.43382 0.34403 0.0
H1661 H 0.17386 0.41271 0.36803 0.0
C1662 C 0.11403 0.41944 0.3599 0.0
C1663 C 0.14912 0.43102 0.34618 0.0
C1664 C 0.16411 0.44618 0.33033 0.0
C1665 C 0.12204 0.40295 0.37895 0.0
C1666 C 0.14385 0.40075 0.38242 0.0
C1667 C 0.15713 0.41439 0.36516 0.0
C1668 C 0.1529 0.38643 0.40758 0.0
C1669 C 0.10713 0.38838 0.39633 0.0
C1670 C 0.15073 0.39134 0.44134 0.0
C1671 C 0.15968 0.37871 0.46565 0.0
C1672 C 0.17097 0.36074 0.45689 0.0
C1673 C 0.17286 0.35554 0.42302 0.0
C1674 C 0.16404 0.36844 0.39849 0.0
H1675 H 0.09131 0.38893 0.38513 0.0
H1676 H 0.11297 0.3721 0.39542 0.0
H1677 H 0.10581 0.393 0.42285 0.0
H1678 H 0.1423 0.40519 0.44889 0.0
H1679 H 0.15783 0.38315 0.49147 0.0
H1680 H 0.58692 0.59248 0.35942 0.0
H1681 H 0.60842 0.60851 0.40333 0.0
H1682 H 0.65686 0.62079 0.33158 0.0
H1683 H 0.63575 0.60519 0.28809 0.0
H1684 H 0.64963 0.5968 0.42451 0.0
H1685 H 0.64838 0.67753 0.37648 0.0
H1686 H 0.62981 0.65802 0.36339 0.0
H1687 H 0.65542 0.65895 0.34509 0.0
C1688 C 0.60205 0.59883 0.35303 0.0
C1689 C 0.60956 0.59758 0.32019 0.0
C1690 C 0.61435 0.60789 0.37813 0.0
C1691 C 0.63416 0.6161 0.37065 0.0
C1692 C 0.64152 0.61492 0.33789 0.0
H1693 H 0.74821 0.63812 0.47482 0.0
H1694 H 0.71756 0.6229 0.44804 0.0
C1695 C 0.6294 0.60585 0.31303 0.0
C1696 C 0.64774 0.62541 0.39673 0.0
H1697 H 0.67648 0.66897 0.41344 0.0
C1698 C 0.65524 0.6127 0.4225 0.0
C1699 C 0.65489 0.64622 0.39442 0.0
C1700 C 0.64655 0.66104 0.36855 0.0
C1701 C 0.67053 0.61992 0.44487 0.0
C1702 C 0.67879 0.64027 0.441 0.0
C1703 C 0.67041 0.6533 0.41632 0.0
C1704 C 0.69673 0.64819 0.461 0.0
C1705 C 0.67773 0.60561 0.47227 0.0
C1706 C 0.69541 0.66753 0.47726 0.0
C1707 C 0.713 0.67636 0.49231 0.0
C1708 C 0.73237 0.66606 0.49148 0.0
C1709 C 0.73348 0.64631 0.4764 0.0
C1710 C 0.7159 0.63756 0.46111 0.0
H1711 H 0.66544 0.59412 0.47891 0.0
H1712 H 0.69158 0.59677 0.46362 0.0
H1713 H 0.68208 0.61448 0.49492 0.0
H1714 H 0.68086 0.67609 0.47753 0.0
H1715 H 0.71157 0.69152 0.50392 0.0
H1716 H 0.11358 0.97487 0.77227 0.0
H1717 H 0.13025 0.94392 0.74803 0.0
H1718 H 0.10356 0.95876 0.65269 0.0
H1719 H 0.08736 0.98972 0.67619 0.0
H1720 H 0.09909 0.91557 0.67305 0.0
H1721 H 0.1806 0.94518 0.68172 0.0
H1722 H 0.16491 0.94562 0.71884 0.0
H1723 H 0.15834 0.9623 0.68466 0.0
C1724 C 0.11137 0.97163 0.7461 0.0
C1725 C 0.09894 0.98481 0.72633 0.0
C1726 C 0.12087 0.95388 0.73231 0.0
C1727 C 0.11814 0.94902 0.69852 0.0
C1728 C 0.10573 0.96208 0.67887 0.0
H1729 H 0.17697 0.88724 0.5418 0.0
H1730 H 0.16193 0.90935 0.58454 0.0
C1731 C 0.09636 0.97977 0.69249 0.0
C1732 C 0.12841 0.93066 0.6829 0.0
H1733 H 0.17544 0.91352 0.65372 0.0
C1734 C 0.11583 0.91486 0.66936 0.0
C1735 C 0.15024 0.92987 0.67794 0.0
C1736 C 0.16442 0.94665 0.69132 0.0
C1737 C 0.1244 0.89875 0.64994 0.0
C1738 C 0.14613 0.89841 0.64395 0.0
C1739 C 0.15881 0.91373 0.65859 0.0
C1740 C 0.15556 0.88422 0.61883 0.0
C1741 C 0.11008 0.88289 0.63431 0.0
C1742 C 0.15706 0.86258 0.62387 0.0
C1743 C 0.16582 0.84969 0.59923 0.0
C1744 C 0.17309 0.85828 0.56916 0.0
C1745 C 0.17152 0.87997 0.5645 0.0
C1746 C 0.16296 0.89273 0.58902 0.0
H1747 H 0.09337 0.88641 0.63902 0.0
H1748 H 0.11272 0.88226 0.60704 0.0
H1749 H 0.11358 0.86723 0.64456 0.0
H1750 H 0.15155 0.8557 0.64683 0.0
H1751 H 0.16685 0.83308 0.60369 0.0
H1752 H 0.76761 0.38746 0.97146 0.0
H1753 H 0.79802 0.40236 0.9429 0.0
H1754 H 0.82532 0.34117 0.93535 0.0
H1755 H 0.79491 0.3262 0.96326 0.0
H1756 H 0.84084 0.40293 0.95388 0.0
H1757 H 0.82238 0.35892 0.83885 0.0
H1758 H 0.80448 0.36057 0.87333 0.0
H1759 H 0.82605 0.34269 0.87467 0.0
C1760 C 0.78023 0.37723 0.96409 0.0
C1761 C 0.7787 0.3556 0.96919 0.0
C1762 C 0.7976 0.38576 0.94772 0.0
C1763 C 0.81379 0.37284 0.93626 0.0
C1764 C 0.81281 0.35141 0.9431 0.0
H1765 H 0.93087 0.41968 0.84437 0.0
H1766 H 0.90629 0.40365 0.88393 0.0
C1767 C 0.79541 0.34287 0.95912 0.0
C1768 C 0.8311 0.38156 0.91568 0.0
H1769 H 0.8537 0.3782 0.83888 0.0
C1770 C 0.84371 0.39751 0.92876 0.0
C1771 C 0.83474 0.37462 0.88274 0.0
C1772 C 0.8211 0.35841 0.86639 0.0
C1773 C 0.85974 0.40674 0.90976 0.0
C1774 C 0.86348 0.39962 0.87696 0.0
C1775 C 0.851 0.38353 0.86411 0.0
C1776 C 0.87882 0.4098 0.85421 0.0
C1777 C 0.87204 0.4245 0.92451 0.0
C1778 C 0.87171 0.41831 0.8242 0.0
C1779 C 0.88564 0.42717 0.8016 0.0
C1780 C 0.90718 0.42784 0.80826 0.0
C1781 C 0.91439 0.41947 0.83848 0.0
C1782 C 0.90033 0.41044 0.86121 0.0
H1783 H 0.86442 0.43096 0.94709 0.0
H1784 H 0.88776 0.41883 0.93163 0.0
H1785 H 0.87406 0.43724 0.90611 0.0
H1786 H 0.85525 0.41805 0.81815 0.0
H1787 H 0.87938 0.43348 0.77873 0.0
H1788 H 0.44267 0.03939 0.21355 0.0
H1789 H 0.42651 0.0702 0.18879 0.0
H1790 H 0.3656 0.04393 0.20622 0.0
H1791 H 0.38168 0.01281 0.23059 0.0
H1792 H 0.37171 0.05987 0.14064 0.0
H1793 H 0.39474 0.11745 0.23688 0.0
H1794 H 0.41578 0.10196 0.22074 0.0
H1795 H 0.3953 0.08968 0.24411 0.0
C1796 C 0.42583 0.04012 0.21212 0.0
C1797 C 0.41349 0.02357 0.2241 0.0
C1798 C 0.4166 0.05786 0.19821 0.0
C1799 C 0.39483 0.05951 0.19594 0.0
C1800 C 0.38243 0.04306 0.20788 0.0
H1801 H 0.3197 0.16778 0.14665 0.0
H1802 H 0.33697 0.13826 0.17334 0.0
C1803 C 0.39165 0.02534 0.22201 0.0
C1804 C 0.38505 0.0781 0.18016 0.0
H1805 H 0.3798 0.13095 0.18741 0.0
C1806 C 0.37345 0.07541 0.15088 0.0
C1807 C 0.38718 0.09836 0.19367 0.0
C1808 C 0.39876 0.10212 0.22574 0.0
C1809 C 0.36419 0.09243 0.13452 0.0
C1810 C 0.36673 0.11276 0.1476 0.0
C1811 C 0.37806 0.11541 0.17717 0.0
C1812 C 0.35708 0.13134 0.1316 0.0
C1813 C 0.35143 0.08848 0.10367 0.0
C1814 C 0.36295 0.13764 0.09946 0.0
C1815 C 0.35315 0.15463 0.0841 0.0
C1816 C 0.33722 0.16565 0.10057 0.0
C1817 C 0.33181 0.15963 0.13311 0.0
C1818 C 0.34169 0.14273 0.14848 0.0
H1819 H 0.34719 0.07178 0.10103 0.0
H1820 H 0.33691 0.0979 0.10398 0.0
H1821 H 0.36063 0.0931 0.08148 0.0
H1822 H 0.37504 0.1293 0.08614 0.0
H1823 H 0.35776 0.15883 0.05908 0.0
H1824 H 0.29294 0.36855 0.50288 0.0
H1825 H 0.32416 0.38369 0.52903 0.0
H1826 H 0.3086 0.35299 0.62107 0.0
H1827 H 0.27765 0.33806 0.59551 0.0
H1828 H 0.32834 0.40951 0.58505 0.0
H1829 H 0.36872 0.33469 0.60651 0.0
H1830 H 0.34687 0.33707 0.57848 0.0
H1831 H 0.34262 0.33431 0.62252 0.0
C1832 C 0.29618 0.36508 0.5287 0.0
C1833 C 0.28295 0.35174 0.54687 0.0
C1834 C 0.31407 0.37367 0.54357 0.0
C1835 C 0.31906 0.36903 0.57679 0.0
C1836 C 0.30551 0.35626 0.59512 0.0
H1837 H 0.38571 0.40654 0.74373 0.0
H1838 H 0.3639 0.39271 0.69935 0.0
C1839 C 0.28776 0.34771 0.58039 0.0
C1840 C 0.33798 0.37779 0.59312 0.0
H1841 H 0.37958 0.36353 0.64109 0.0
C1842 C 0.33985 0.3995 0.59661 0.0
C1843 C 0.35314 0.36475 0.60804 0.0
C1844 C 0.35288 0.34142 0.60341 0.0
C1845 C 0.35558 0.40836 0.61657 0.0
C1846 C 0.36977 0.39519 0.63332 0.0
C1847 C 0.36864 0.3736 0.62829 0.0
C1848 C 0.38392 0.40326 0.65953 0.0
C1849 C 0.35624 0.43165 0.62134 0.0
C1850 C 0.40269 0.41354 0.65186 0.0
C1851 C 0.41543 0.4214 0.67741 0.0
C1852 C 0.40943 0.41925 0.71092 0.0
C1853 C 0.39078 0.40863 0.71825 0.0
C1854 C 0.37826 0.40067 0.6929 0.0
H1855 H 0.34412 0.4398 0.60655 0.0
H1856 H 0.35395 0.43544 0.64803 0.0
H1857 H 0.3718 0.43767 0.61395 0.0
H1858 H 0.40736 0.4156 0.6262 0.0
H1859 H 0.42966 0.42954 0.67092 0.0
H1860 H 0.8404 0.18059 0.41969 0.0
H1861 H 0.85413 0.15706 0.37641 0.0
H1862 H 0.87151 0.11272 0.45189 0.0
H1863 H 0.85797 0.13576 0.49477 0.0
H1864 H 0.89552 0.13717 0.36833 0.0
H1865 H 0.83225 0.07983 0.38877 0.0
H1866 H 0.83051 0.10652 0.40278 0.0
H1867 H 0.84487 0.08764 0.42659 0.0
C1868 C 0.84736 0.16592 0.427 0.0
C1869 C 0.84783 0.15995 0.46068 0.0
C1870 C 0.85514 0.15248 0.40227 0.0
C1871 C 0.86343 0.13294 0.41091 0.0
C1872 C 0.86477 0.1275 0.44457 0.0
H1873 H 0.92588 0.02499 0.35174 0.0
H1874 H 0.90855 0.05515 0.37617 0.0
C1875 C 0.85704 0.14077 0.4691 0.0
C1876 C 0.87036 0.11768 0.38535 0.0
H1877 H 0.86315 0.06702 0.36177 0.0
C1878 C 0.88819 0.122 0.36622 0.0
C1879 C 0.86071 0.09791 0.3825 0.0
C1880 C 0.8409 0.09273 0.401 0.0
C1881 C 0.89739 0.10654 0.34608 0.0
C1882 C 0.88847 0.08638 0.34506 0.0
C1883 C 0.87002 0.08247 0.36271 0.0
C1884 C 0.89928 0.06851 0.32914 0.0
C1885 C 0.91724 0.11138 0.32753 0.0
C1886 C 0.89969 0.0659 0.29446 0.0
C1887 C 0.90963 0.04852 0.28028 0.0
C1888 C 0.91945 0.03359 0.3006 0.0
C1889 C 0.91884 0.03634 0.3353 0.0
C1890 C 0.90884 0.05353 0.34936 0.0
H1891 H 0.92263 0.12761 0.33179 0.0
H1892 H 0.92973 0.10046 0.33537 0.0
H1893 H 0.91472 0.10909 0.30048 0.0
H1894 H 0.89224 0.07722 0.27844 0.0
H1895 H 0.90985 0.04688 0.25349 0.0
H1896 H 0.08768 0.58548 0.17042 0.0
H1897 H 0.11243 0.5981 0.12798 0.0
H1898 H 0.14894 0.62764 0.20462 0.0
H1899 H 0.12485 0.6148 0.24669 0.0
H1900 H 0.12736 0.63686 0.10842 0.0
H1901 H 0.19177 0.59035 0.161 0.0
H1902 H 0.16496 0.58648 0.1732 0.0
H1903 H 0.18028 0.60689 0.1919 0.0
C1904 C 0.10088 0.59485 0.17807 0.0
C1905 C 0.10446 0.59888 0.21197 0.0
C1906 C 0.11505 0.602 0.15384 0.0
C1907 C 0.13293 0.61332 0.16318 0.0
C1908 C 0.1357 0.61838 0.19681 0.0
H1909 H 0.21639 0.695 0.05948 0.0
H1910 H 0.18666 0.67806 0.08557 0.0
C1911 C 0.12179 0.61111 0.22087 0.0
C1912 C 0.14911 0.61963 0.13842 0.0
H1913 H 0.20175 0.6186 0.12525 0.0
C1914 C 0.14359 0.63265 0.11179 0.0
C1915 C 0.17028 0.61374 0.14216 0.0
C1916 C 0.17715 0.59841 0.16839 0.0
C1917 C 0.15879 0.64084 0.09003 0.0
C1918 C 0.18018 0.63633 0.09554 0.0
C1919 C 0.18548 0.6224 0.12109 0.0
C1920 C 0.19744 0.6466 0.07652 0.0
C1921 C 0.15168 0.65418 0.06135 0.0
C1922 C 0.21382 0.63473 0.06298 0.0
C1923 C 0.23131 0.64446 0.04883 0.0
C1924 C 0.23289 0.66635 0.04785 0.0
C1925 C 0.21604 0.67815 0.06023 0.0
C1926 C 0.19871 0.66842 0.07469 0.0
H1927 H 0.13573 0.64974 0.05321 0.0
H1928 H 0.15111 0.6707 0.06942 0.0
H1929 H 0.1624 0.65288 0.03976 0.0
H1930 H 0.21336 0.61788 0.06416 0.0
H1931 H 0.24397 0.63478 0.03998 0.0
H1932 H 0.57674 0.96794 0.79712 0.0
H1933 H 0.59329 0.93771 0.82303 0.0
H1934 H 0.65163 0.97098 0.82741 0.0
H1935 H 0.63506 1.00153 0.80227 0.0
H1936 H 0.62759 0.91326 0.8045 0.0
H1937 H 0.64168 0.95361 0.92447 0.0
H1938 H 0.62457 0.96399 0.89297 0.0
H1939 H 0.65234 0.96669 0.88882 0.0
C1940 C 0.59309 0.96887 0.80362 0.0
C1941 C 0.6045 0.9873 0.7979 0.0
C1942 C 0.60256 0.95151 0.81829 0.0
C1943 C 0.62361 0.95218 0.82777 0.0
C1944 C 0.63527 0.97022 0.82089 0.0
H1945 H 0.7034 0.84944 0.88751 0.0
H1946 H 0.68548 0.87738 0.85789 0.0
C1947 C 0.62582 0.9876 0.80614 0.0
C1948 C 0.63316 0.93415 0.8454 0.0
H1949 H 0.65626 0.91989 0.9185 0.0
C1950 C 0.63385 0.9147 0.82943 0.0
C1951 C 0.641 0.93593 0.87818 0.0
C1952 C 0.63973 0.95611 0.89732 0.0
C1953 C 0.64253 0.89711 0.84507 0.0
C1954 C 0.65097 0.89905 0.87744 0.0
C1955 C 0.64992 0.91841 0.89363 0.0
C1956 C 0.66124 0.88131 0.89481 0.0
C1957 C 0.64231 0.87652 0.82697 0.0
C1958 C 0.65377 0.8743 0.92571 0.0
C1959 C 0.66405 0.8583 0.94285 0.0
C1960 C 0.68217 0.84912 0.92957 0.0
C1961 C 0.68947 0.85607 0.89847 0.0
C1962 C 0.67916 0.872 0.88135 0.0
H1963 H 0.63041 0.87628 0.80691 0.0
H1964 H 0.65779 0.87387 0.81538 0.0
H1965 H 0.63913 0.86345 0.84434 0.0
H1966 H 0.64003 0.88132 0.93669 0.0
H1967 H 0.65805 0.85345 0.96681 0.0
loop_
_geom_bond_atom_site_label_1
_geom_bond_atom_site_label_2
_geom_bond_distance
_geom_bond_site_symmetry_2
_ccdc_geom_bond_type
C0 C1 1.351 . S
C0 N3 1.368 . S
C0 H5 0.931 . S
C1 C0 1.351 . S
C1 N2 1.373 . S
C1 H29 0.930 . S
N2 C1 1.373 . S
N2 C4 1.340 . S
N3 C0 1.368 . S
N3 C4 1.321 . S
N3 Co6 2.135 . S
C4 N2 1.340 . S
C4 N3 1.321 . S
C4 H28 0.930 . S
H5 C0 0.931 . S
Co6 N3 2.135 . S
Co6 N9 2.121 1_554 S
Co6 O14 2.055 . S
Co6 O17 2.039 . S
Co6 N20 2.142 . S
C7 O8 1.227 . S
C7 O17 1.265 . S
O8 C7 1.227 . S
N9 Co6 2.121 1_556 S
N9 C11 1.375 . S
N9 C12 1.313 . S
C10 C11 1.338 . S
C10 N13 1.377 . S
C10 H30 0.930 . S
C11 N9 1.375 . S
C11 C10 1.338 . S
C11 H15 0.931 1_556 S
C12 N9 1.313 . S
C12 N13 1.344 . S
C12 H16 0.930 . S
N13 C10 1.377 . S
N13 C12 1.344 . S
O14 Co6 2.055 . S
O14 C18 1.253 1_554 S
H15 C11 0.931 1_554 S
H16 C12 0.930 . S
O17 Co6 2.039 . S
O17 C7 1.265 . S
C18 O14 1.253 1_556 S
C18 O19 1.227 . S
O19 C18 1.227 . S
N20 Co6 2.142 . S
N20 C23 1.349 . S
N20 C24 1.340 1_554 S
C21 C22 1.387 1_556 S
C21 C25 1.391 . S
C22 C21 1.387 1_554 S
C22 C23 1.369 . S
C22 H31 0.929 . S
C23 N20 1.349 . S
C23 C22 1.369 . S
C23 H26 0.928 . S
C24 N20 1.340 1_556 S
C24 C25 1.371 . S
C24 H27 0.931 . S
C25 C21 1.391 . S
C25 C24 1.371 . S
C25 H32 0.930 . S
H26 C23 0.928 . S
H27 C24 0.931 . S
H28 C4 0.930 . S
H29 C1 0.930 . S
H30 C10 0.930 . S
H31 C22 0.929 . S
H32 C25 0.930 . S
C33 C34 1.351 . S
C33 N36 1.368 . S
C33 H38 0.931 . S
C34 C33 1.351 . S
C34 N35 1.373 . S
C34 H62 0.930 . S
N35 C34 1.373 . S
N35 C37 1.340 . S
N36 C33 1.368 . S
N36 C37 1.321 . S
N36 Co39 2.135 . S
C37 N35 1.340 . S
C37 N36 1.321 . S
C37 H61 0.930 . S
H38 C33 0.931 . S
Co39 N36 2.135 . S
Co39 N42 2.121 . S
Co39 O47 2.055 . S
Co39 O50 2.039 . S
Co39 N53 2.140 . S
C40 O41 1.227 . S
C40 O50 1.265 . S
O41 C40 1.227 . S
N42 Co39 2.121 . S
N42 C44 1.375 . S
N42 C45 1.313 . S
C43 C44 1.338 . S
C43 N46 1.377 . S
C43 H63 0.930 . S
C44 N42 1.375 . S
C44 C43 1.338 . S
C44 H48 0.931 . S
C45 N42 1.313 . S
C45 N46 1.344 . S
C45 H49 0.930 . S
N46 C43 1.377 . S
N46 C45 1.344 . S
O47 Co39 2.055 . S
O47 C51 1.253 . S
H48 C44 0.931 . S
H49 C45 0.930 . S
O50 Co39 2.039 . S
O50 C40 1.265 . S
C51 O47 1.253 . S
C51 O52 1.227 . S
O52 C51 1.227 . S
N53 Co39 2.140 . S
N53 C56 1.346 . S
N53 C57 1.345 . S
C54 C55 1.387 . S
C54 C58 1.391 . S
C55 C54 1.387 . S
C55 C56 1.369 . S
C55 H64 0.929 . S
C56 N53 1.346 . S
C56 C55 1.369 . S
C56 H59 0.928 . S
C57 N53 1.345 . S
C57 C58 1.371 . S
C57 H60 0.931 . S
C58 C54 1.391 . S
C58 C57 1.371 . S
C58 H65 0.930 . S
H59 C56 0.928 . S
H60 C57 0.931 . S
H61 C37 0.930 . S
H62 C34 0.930 . S
H63 C43 0.930 . S
H64 C55 0.929 . S
H65 C58 0.930 . S
C66 C67 1.351 . S
C66 N69 1.368 . S
C66 H71 0.931 . S
C67 C66 1.351 . S
C67 N68 1.373 . S
C67 H95 0.930 . S
N68 C67 1.373 . S
N68 C70 1.340 . S
N69 C66 1.368 . S
N69 C70 1.321 . S
N69 Co72 2.135 . S
C70 N68 1.340 . S
C70 N69 1.321 . S
C70 H94 0.930 . S
H71 C66 0.931 . S
Co72 N69 2.135 . S
Co72 N75 2.121 . S
Co72 O80 2.055 . S
Co72 O83 2.039 . S
Co72 N86 2.140 . S
C73 O74 1.227 . S
C73 O83 1.265 . S
O74 C73 1.227 . S
N75 Co72 2.121 . S
N75 C77 1.375 . S
N75 C78 1.313 . S
C76 C77 1.338 . S
C76 N79 1.377 . S
C76 H96 0.930 . S
C77 N75 1.375 . S
C77 C76 1.338 . S
C77 H81 0.931 . S
C78 N75 1.313 . S
C78 N79 1.344 . S
C78 H82 0.930 . S
N79 C76 1.377 . S
N79 C78 1.344 . S
O80 Co72 2.055 . S
O80 C84 1.253 . S
H81 C77 0.931 . S
H82 C78 0.930 . S
O83 Co72 2.039 . S
O83 C73 1.265 . S
C84 O80 1.253 . S
C84 O85 1.227 . S
O85 C84 1.227 . S
N86 Co72 2.140 . S
N86 C89 1.346 . S
N86 C90 1.345 . S
C87 C88 1.387 . S
C87 C91 1.391 . S
C88 C87 1.387 . S
C88 C89 1.369 . S
C88 H97 0.929 . S
C89 N86 1.346 . S
C89 C88 1.369 . S
C89 H92 0.928 . S
C90 N86 1.345 . S
C90 C91 1.371 . S
C90 H93 0.931 . S
C91 C87 1.391 . S
C91 C90 1.371 . S
C91 H98 0.930 . S
H92 C89 0.928 . S
H93 C90 0.931 . S
H94 C70 0.930 . S
H95 C67 0.930 . S
H96 C76 0.930 . S
H97 C88 0.929 . S
H98 C91 0.930 . S
C99 C100 1.351 . S
C99 N102 1.368 . S
C99 H104 0.931 . S
C100 C99 1.351 . S
C100 N101 1.373 . S
C100 H128 0.930 . S
N101 C100 1.373 . S
N101 C103 1.340 . S
N102 C99 1.368 . S
N102 C103 1.321 . S
N102 Co105 2.135 . S
C103 N101 1.340 . S
C103 N102 1.321 . S
C103 H127 0.930 . S
H104 C99 0.931 . S
Co105 N102 2.135 . S
Co105 N108 2.121 . S
Co105 O113 2.055 . S
Co105 O116 2.039 . S
Co105 N119 2.140 . S
C106 O107 1.227 . S
C106 O116 1.265 . S
O107 C106 1.227 . S
N108 Co105 2.121 . S
N108 C110 1.375 . S
N108 C111 1.313 . S
C109 C110 1.338 . S
C109 N112 1.377 . S
C109 H129 0.930 . S
C110 N108 1.375 . S
C110 C109 1.338 . S
C110 H114 0.931 . S
C111 N108 1.313 . S
C111 N112 1.344 . S
C111 H115 0.930 . S
N112 C109 1.377 . S
N112 C111 1.344 . S
O113 Co105 2.055 . S
O113 C117 1.253 . S
H114 C110 0.931 . S
H115 C111 0.930 . S
O116 Co105 2.039 . S
O116 C106 1.265 . S
C117 O113 1.253 . S
C117 O118 1.227 . S
O118 C117 1.227 . S
N119 Co105 2.140 . S
N119 C122 1.346 . S
N119 C123 1.345 . S
C120 C121 1.387 . S
C120 C124 1.391 . S
C121 C120 1.387 . S
C121 C122 1.369 . S
C121 H130 0.929 . S
C122 N119 1.346 . S
C122 C121 1.369 . S
C122 H125 0.928 . S
C123 N119 1.345 . S
C123 C124 1.371 . S
C123 H126 0.931 . S
C124 C120 1.391 . S
C124 C123 1.371 . S
C124 H131 0.930 . S
H125 C122 0.928 . S
H126 C123 0.931 . S
H127 C103 0.930 . S
H128 C100 0.930 . S
H129 C109 0.930 . S
H130 C121 0.929 . S
H131 C124 0.930 . S
C132 C133 1.351 . S
C132 N135 1.368 . S
C132 H137 0.931 . S
C133 C132 1.351 . S
C133 N134 1.373 . S
C133 H161 0.930 . S
N134 C133 1.373 . S
N134 C136 1.340 . S
N135 C132 1.368 . S
N135 C136 1.321 . S
N135 Co138 2.135 . S
C136 N134 1.340 . S
C136 N135 1.321 . S
C136 H160 0.930 . S
H137 C132 0.931 . S
Co138 N135 2.135 . S
Co138 N141 2.121 1_556 S
Co138 O146 2.055 . S
Co138 O149 2.039 . S
Co138 N152 2.142 . S
C139 O140 1.227 . S
C139 O149 1.265 . S
O140 C139 1.227 . S
N141 Co138 2.121 1_554 S
N141 C143 1.375 . S
N141 C144 1.313 . S
C142 C143 1.338 . S
C142 N145 1.377 . S
C142 H162 0.930 . S
C143 N141 1.375 . S
C143 C142 1.338 . S
C143 H147 0.931 1_554 S
C144 N141 1.313 . S
C144 N145 1.344 . S
C144 H148 0.930 . S
N145 C142 1.377 . S
N145 C144 1.344 . S
O146 Co138 2.055 . S
O146 C150 1.253 1_556 S
H147 C143 0.931 1_556 S
H148 C144 0.930 . S
O149 Co138 2.039 . S
O149 C139 1.265 . S
C150 O146 1.253 1_554 S
C150 O151 1.227 . S
O151 C150 1.227 . S
N152 Co138 2.142 . S
N152 C155 1.349 . S
N152 C156 1.340 1_556 S
C153 C154 1.387 1_554 S
C153 C157 1.391 . S
C154 C153 1.387 1_556 S
C154 C155 1.369 . S
C154 H163 0.929 . S
C155 N152 1.349 . S
C155 C154 1.369 . S
C155 H158 0.928 . S
C156 N152 1.340 1_554 S
C156 C157 1.371 . S
C156 H159 0.931 . S
C157 C153 1.391 . S
C157 C156 1.371 . S
C157 H164 0.930 . S
H158 C155 0.928 . S
H159 C156 0.931 . S
H160 C136 0.930 . S
H161 C133 0.930 . S
H162 C142 0.930 . S
H163 C154 0.929 . S
H164 C157 0.930 . S
C165 C166 1.351 . S
C165 N168 1.368 . S
C165 H170 0.931 . S
C166 C165 1.351 . S
C166 N167 1.373 . S
C166 H194 0.930 . S
N167 C166 1.373 . S
N167 C169 1.340 . S
N168 C165 1.368 . S
N168 C169 1.321 . S
N168 Co171 2.135 . S
C169 N167 1.340 . S
C169 N168 1.321 . S
C169 H193 0.930 . S
H170 C165 0.931 . S
Co171 N168 2.135 . S
Co171 N174 2.121 . S
Co171 O179 2.055 . S
Co171 O182 2.039 . S
Co171 N185 2.140 . S
C172 O173 1.227 . S
C172 O182 1.265 . S
O173 C172 1.227 . S
N174 Co171 2.121 . S
N174 C176 1.375 . S
N174 C177 1.313 . S
C175 C176 1.338 . S
C175 N178 1.377 . S
C175 H195 0.930 . S
C176 N174 1.375 . S
C176 C175 1.338 . S
C176 H180 0.931 . S
C177 N174 1.313 . S
C177 N178 1.344 . S
C177 H181 0.930 . S
N178 C175 1.377 . S
N178 C177 1.344 . S
O179 Co171 2.055 . S
O179 C183 1.253 . S
H180 C176 0.931 . S
H181 C177 0.930 . S
O182 Co171 2.039 . S
O182 C172 1.265 . S
C183 O179 1.253 . S
C183 O184 1.227 . S
O184 C183 1.227 . S
N185 Co171 2.140 . S
N185 C188 1.346 . S
N185 C189 1.345 . S
C186 C187 1.387 . S
C186 C190 1.391 . S
C187 C186 1.387 . S
C187 C188 1.369 . S
C187 H196 0.929 . S
C188 N185 1.346 . S
C188 C187 1.369 . S
C188 H191 0.928 . S
C189 N185 1.345 . S
C189 C190 1.371 . S
C189 H192 0.931 . S
C190 C186 1.391 . S
C190 C189 1.371 . S
C190 H197 0.930 . S
H191 C188 0.928 . S
H192 C189 0.931 . S
H193 C169 0.930 . S
H194 C166 0.930 . S
H195 C175 0.930 . S
H196 C187 0.929 . S
H197 C190 0.930 . S
C198 C199 1.351 . S
C198 N201 1.368 . S
C198 H203 0.931 . S
C199 C198 1.351 . S
C199 N200 1.373 . S
C199 H227 0.930 . S
N200 C199 1.373 . S
N200 C202 1.340 . S
N201 C198 1.368 . S
N201 C202 1.321 . S
N201 Co204 2.135 . S
C202 N200 1.340 . S
C202 N201 1.321 . S
C202 H226 0.930 . S
H203 C198 0.931 . S
Co204 N201 2.135 . S
Co204 N207 2.121 . S
Co204 O212 2.055 . S
Co204 O215 2.039 . S
Co204 N218 2.140 . S
C205 O206 1.227 . S
C205 O215 1.265 . S
O206 C205 1.227 . S
N207 Co204 2.121 . S
N207 C209 1.375 . S
N207 C210 1.313 . S
C208 C209 1.338 . S
C208 N211 1.377 . S
C208 H228 0.930 . S
C209 N207 1.375 . S
C209 C208 1.338 . S
C209 H213 0.931 . S
C210 N207 1.313 . S
C210 N211 1.344 . S
C210 H214 0.930 . S
N211 C208 1.377 . S
N211 C210 1.344 . S
O212 Co204 2.055 . S
O212 C216 1.253 . S
H213 C209 0.931 . S
H214 C210 0.930 . S
O215 Co204 2.039 . S
O215 C205 1.265 . S
C216 O212 1.253 . S
C216 O217 1.227 . S
O217 C216 1.227 . S
N218 Co204 2.140 . S
N218 C221 1.346 . S
N218 C222 1.345 . S
C219 C220 1.387 . S
C219 C223 1.391 . S
C220 C219 1.387 . S
C220 C221 1.369 . S
C220 H229 0.929 . S
C221 N218 1.346 . S
C221 C220 1.369 . S
C221 H224 0.928 . S
C222 N218 1.345 . S
C222 C223 1.371 . S
C222 H225 0.931 . S
C223 C219 1.391 . S
C223 C222 1.371 . S
C223 H230 0.930 . S
H224 C221 0.928 . S
H225 C222 0.931 . S
H226 C202 0.930 . S
H227 C199 0.930 . S
H228 C208 0.930 . S
H229 C220 0.929 . S
H230 C223 0.930 . S
C231 C232 1.351 . S
C231 N234 1.368 . S
C231 H236 0.931 . S
C232 C231 1.351 . S
C232 N233 1.373 . S
C232 H260 0.930 . S
N233 C232 1.373 . S
N233 C235 1.340 . S
N234 C231 1.368 . S
N234 C235 1.321 . S
N234 Co237 2.135 . S
C235 N233 1.340 . S
C235 N234 1.321 . S
C235 H259 0.930 . S
H236 C231 0.931 . S
Co237 N234 2.135 . S
Co237 N240 2.121 . S
Co237 O245 2.055 . S
Co237 O248 2.039 . S
Co237 N251 2.140 . S
C238 O239 1.227 . S
C238 O248 1.265 . S
O239 C238 1.227 . S
N240 Co237 2.121 . S
N240 C242 1.375 . S
N240 C243 1.313 . S
C241 C242 1.338 . S
C241 N244 1.377 . S
C241 H261 0.930 . S
C242 N240 1.375 . S
C242 C241 1.338 . S
C242 H246 0.931 . S
C243 N240 1.313 . S
C243 N244 1.344 . S
C243 H247 0.930 . S
N244 C241 1.377 . S
N244 C243 1.344 . S
O245 Co237 2.055 . S
O245 C249 1.253 . S
H246 C242 0.931 . S
H247 C243 0.930 . S
O248 Co237 2.039 . S
O248 C238 1.265 . S
C249 O245 1.253 . S
C249 O250 1.227 . S
O250 C249 1.227 . S
N251 Co237 2.140 . S
N251 C254 1.346 . S
N251 C255 1.345 . S
C252 C253 1.387 . S
C252 C256 1.391 . S
C253 C252 1.387 . S
C253 C254 1.369 . S
C253 H262 0.929 . S
C254 N251 1.346 . S
C254 C253 1.369 . S
C254 H257 0.928 . S
C255 N251 1.345 . S
C255 C256 1.371 . S
C255 H258 0.931 . S
C256 C252 1.391 . S
C256 C255 1.371 . S
C256 H263 0.930 . S
H257 C254 0.928 . S
H258 C255 0.931 . S
H259 C235 0.930 . S
H260 C232 0.930 . S
H261 C241 0.930 . S
H262 C253 0.929 . S
H263 C256 0.930 . S
C264 C265 1.351 . S
C264 N267 1.368 . S
C264 H269 0.931 . S
C265 C264 1.351 . S
C265 N266 1.373 . S
C265 H293 0.930 . S
N266 C265 1.373 . S
N266 C268 1.340 . S
N267 C264 1.368 . S
N267 C268 1.321 . S
N267 Co270 2.135 . S
C268 N266 1.340 . S
C268 N267 1.321 . S
C268 H292 0.930 . S
H269 C264 0.931 . S
Co270 N267 2.135 . S
Co270 N273 2.121 . S
Co270 O278 2.055 . S
Co270 O281 2.039 . S
Co270 N284 2.140 . S
C271 O272 1.227 . S
C271 O281 1.265 . S
O272 C271 1.227 . S
N273 Co270 2.121 . S
N273 C275 1.375 . S
N273 C276 1.313 . S
C274 C275 1.338 . S
C274 N277 1.377 . S
C274 H294 0.930 . S
C275 N273 1.375 . S
C275 C274 1.338 . S
C275 H279 0.931 . S
C276 N273 1.313 . S
C276 N277 1.344 . S
C276 H280 0.930 . S
N277 C274 1.377 . S
N277 C276 1.344 . S
O278 Co270 2.055 . S
O278 C282 1.253 . S
H279 C275 0.931 . S
H280 C276 0.930 . S
O281 Co270 2.039 . S
O281 C271 1.265 . S
C282 O278 1.253 . S
C282 O283 1.227 . S
O283 C282 1.227 . S
N284 Co270 2.140 . S
N284 C287 1.346 . S
N284 C288 1.345 . S
C285 C286 1.387 . S
C285 C289 1.391 . S
C286 C285 1.387 . S
C286 C287 1.369 . S
C286 H295 0.929 . S
C287 N284 1.346 . S
C287 C286 1.369 . S
C287 H290 0.928 . S
C288 N284 1.345 . S
C288 C289 1.371 . S
C288 H291 0.931 . S
C289 C285 1.391 . S
C289 C288 1.371 . S
C289 H296 0.930 . S
H290 C287 0.928 . S
H291 C288 0.931 . S
H292 C268 0.930 . S
H293 C265 0.930 . S
H294 C274 0.930 . S
H295 C286 0.929 . S
H296 C289 0.930 . S
C297 C298 1.351 . S
C297 N300 1.368 . S
C297 H302 0.931 . S
C298 C297 1.351 . S
C298 N299 1.373 . S
C298 H326 0.930 . S
N299 C298 1.373 . S
N299 C301 1.340 . S
N300 C297 1.368 . S
N300 C301 1.321 . S
N300 Co303 2.135 . S
C301 N299 1.340 . S
C301 N300 1.321 . S
C301 H325 0.930 . S
H302 C297 0.931 . S
Co303 N300 2.135 . S
Co303 N306 2.121 . S
Co303 O311 2.055 . S
Co303 O314 2.039 . S
Co303 N317 2.140 . S
C304 O305 1.227 . S
C304 O314 1.265 . S
O305 C304 1.227 . S
N306 Co303 2.121 . S
N306 C308 1.375 . S
N306 C309 1.313 . S
C307 C308 1.338 . S
C307 N310 1.377 . S
C307 H327 0.930 . S
C308 N306 1.375 . S
C308 C307 1.338 . S
C308 H312 0.931 . S
C309 N306 1.313 . S
C309 N310 1.344 . S
C309 H313 0.930 . S
N310 C307 1.377 . S
N310 C309 1.344 . S
O311 Co303 2.055 . S
O311 C315 1.253 . S
H312 C308 0.931 . S
H313 C309 0.930 . S
O314 Co303 2.039 . S
O314 C304 1.265 . S
C315 O311 1.253 . S
C315 O316 1.227 . S
O316 C315 1.227 . S
N317 Co303 2.140 . S
N317 C320 1.346 . S
N317 C321 1.345 . S
C318 C319 1.387 . S
C318 C322 1.391 . S
C319 C318 1.387 . S
C319 C320 1.369 . S
C319 H328 0.929 . S
C320 N317 1.346 . S
C320 C319 1.369 . S
C320 H323 0.928 . S
C321 N317 1.345 . S
C321 C322 1.371 . S
C321 H324 0.931 . S
C322 C318 1.391 . S
C322 C321 1.371 . S
C322 H329 0.930 . S
H323 C320 0.928 . S
H324 C321 0.931 . S
H325 C301 0.930 . S
H326 C298 0.930 . S
H327 C307 0.930 . S
H328 C319 0.929 . S
H329 C322 0.930 . S
C330 C331 1.351 . S
C330 N333 1.368 . S
C330 H335 0.931 . S
C331 C330 1.351 . S
C331 N332 1.373 . S
C331 H359 0.930 . S
N332 C331 1.373 . S
N332 C334 1.340 . S
N333 C330 1.368 . S
N333 C334 1.321 . S
N333 Co336 2.135 . S
C334 N332 1.340 . S
C334 N333 1.321 . S
C334 H358 0.930 . S
H335 C330 0.931 . S
Co336 N333 2.135 . S
Co336 N339 2.121 1_554 S
Co336 O344 2.055 . S
Co336 O347 2.039 . S
Co336 N350 2.142 . S
C337 O338 1.227 . S
C337 O347 1.265 . S
O338 C337 1.227 . S
N339 Co336 2.121 1_556 S
N339 C341 1.375 . S
N339 C342 1.313 . S
C340 C341 1.338 . S
C340 N343 1.377 . S
C340 H360 0.930 . S
C341 N339 1.375 . S
C341 C340 1.338 . S
C341 H345 0.931 1_556 S
C342 N339 1.313 . S
C342 N343 1.344 . S
C342 H346 0.930 . S
N343 C340 1.377 . S
N343 C342 1.344 . S
O344 Co336 2.055 . S
O344 C348 1.253 1_554 S
H345 C341 0.931 1_554 S
H346 C342 0.930 . S
O347 Co336 2.039 . S
O347 C337 1.265 . S
C348 O344 1.253 1_556 S
C348 O349 1.227 . S
O349 C348 1.227 . S
N350 Co336 2.142 . S
N350 C353 1.349 . S
N350 C354 1.340 1_554 S
C351 C352 1.387 1_556 S
C351 C355 1.391 . S
C352 C351 1.387 1_554 S
C352 C353 1.369 . S
C352 H361 0.929 . S
C353 N350 1.349 . S
C353 C352 1.369 . S
C353 H356 0.928 . S
C354 N350 1.340 1_556 S
C354 C355 1.371 . S
C354 H357 0.931 . S
C355 C351 1.391 . S
C355 C354 1.371 . S
C355 H362 0.930 . S
H356 C353 0.928 . S
H357 C354 0.931 . S
H358 C334 0.930 . S
H359 C331 0.930 . S
H360 C340 0.930 . S
H361 C352 0.929 . S
H362 C355 0.930 . S
C363 C364 1.351 . S
C363 N366 1.368 . S
C363 H368 0.931 . S
C364 C363 1.351 . S
C364 N365 1.373 . S
C364 H392 0.930 . S
N365 C364 1.373 . S
N365 C367 1.340 . S
N366 C363 1.368 . S
N366 C367 1.321 . S
N366 Co369 2.135 . S
C367 N365 1.340 . S
C367 N366 1.321 . S
C367 H391 0.930 . S
H368 C363 0.931 . S
Co369 N366 2.135 . S
Co369 N372 2.121 . S
Co369 O377 2.055 . S
Co369 O380 2.039 . S
Co369 N383 2.140 . S
C370 O371 1.227 . S
C370 O380 1.265 . S
O371 C370 1.227 . S
N372 Co369 2.121 . S
N372 C374 1.375 . S
N372 C375 1.313 . S
C373 C374 1.338 . S
C373 N376 1.377 . S
C373 H393 0.930 . S
C374 N372 1.375 . S
C374 C373 1.338 . S
C374 H378 0.931 . S
C375 N372 1.313 . S
C375 N376 1.344 . S
C375 H379 0.930 . S
N376 C373 1.377 . S
N376 C375 1.344 . S
O377 Co369 2.055 . S
O377 C381 1.253 . S
H378 C374 0.931 . S
H379 C375 0.930 . S
O380 Co369 2.039 . S
O380 C370 1.265 . S
C381 O377 1.253 . S
C381 O382 1.227 . S
O382 C381 1.227 . S
N383 Co369 2.140 . S
N383 C386 1.346 . S
N383 C387 1.345 . S
C384 C385 1.387 . S
C384 C388 1.391 . S
C385 C384 1.387 . S
C385 C386 1.369 . S
C385 H394 0.929 . S
C386 N383 1.346 . S
C386 C385 1.369 . S
C386 H389 0.928 . S
C387 N383 1.345 . S
C387 C388 1.371 . S
C387 H390 0.931 . S
C388 C384 1.391 . S
C388 C387 1.371 . S
C388 H395 0.930 . S
H389 C386 0.928 . S
H390 C387 0.931 . S
H391 C367 0.930 . S
H392 C364 0.930 . S
H393 C373 0.930 . S
H394 C385 0.929 . S
H395 C388 0.930 . S
C396 C397 1.351 . S
C396 N399 1.368 . S
C396 H401 0.931 . S
C397 C396 1.351 . S
C397 N398 1.373 . S
C397 H425 0.930 . S
N398 C397 1.373 . S
N398 C400 1.340 . S
N399 C396 1.368 . S
N399 C400 1.321 . S
N399 Co402 2.135 . S
C400 N398 1.340 . S
C400 N399 1.321 . S
C400 H424 0.930 . S
H401 C396 0.931 . S
Co402 N399 2.135 . S
Co402 N405 2.121 . S
Co402 O410 2.055 . S
Co402 O413 2.039 . S
Co402 N416 2.140 . S
C403 O404 1.227 . S
C403 O413 1.265 . S
O404 C403 1.227 . S
N405 Co402 2.121 . S
N405 C407 1.375 . S
N405 C408 1.313 . S
C406 C407 1.338 . S
C406 N409 1.377 . S
C406 H426 0.930 . S
C407 N405 1.375 . S
C407 C406 1.338 . S
C407 H411 0.931 . S
C408 N405 1.313 . S
C408 N409 1.344 . S
C408 H412 0.930 . S
N409 C406 1.377 . S
N409 C408 1.344 . S
O410 Co402 2.055 . S
O410 C414 1.253 . S
H411 C407 0.931 . S
H412 C408 0.930 . S
O413 Co402 2.039 . S
O413 C403 1.265 . S
C414 O410 1.253 . S
C414 O415 1.227 . S
O415 C414 1.227 . S
N416 Co402 2.140 . S
N416 C419 1.346 . S
N416 C420 1.345 . S
C417 C418 1.387 . S
C417 C421 1.391 . S
C418 C417 1.387 . S
C418 C419 1.369 . S
C418 H427 0.929 . S
C419 N416 1.346 . S
C419 C418 1.369 . S
C419 H422 0.928 . S
C420 N416 1.345 . S
C420 C421 1.371 . S
C420 H423 0.931 . S
C421 C417 1.391 . S
C421 C420 1.371 . S
C421 H428 0.930 . S
H422 C419 0.928 . S
H423 C420 0.931 . S
H424 C400 0.930 . S
H425 C397 0.930 . S
H426 C406 0.930 . S
H427 C418 0.929 . S
H428 C421 0.930 . S
C429 C430 1.351 . S
C429 N432 1.368 . S
C429 H434 0.931 . S
C430 C429 1.351 . S
C430 N431 1.373 . S
C430 H458 0.930 . S
N431 C430 1.373 . S
N431 C433 1.340 . S
N432 C429 1.368 . S
N432 C433 1.321 . S
N432 Co435 2.135 . S
C433 N431 1.340 . S
C433 N432 1.321 . S
C433 H457 0.930 . S
H434 C429 0.931 . S
Co435 N432 2.135 . S
Co435 N438 2.121 . S
Co435 O443 2.055 . S
Co435 O446 2.039 . S
Co435 N449 2.140 . S
C436 O437 1.227 . S
C436 O446 1.265 . S
O437 C436 1.227 . S
N438 Co435 2.121 . S
N438 C440 1.375 . S
N438 C441 1.313 . S
C439 C440 1.338 . S
C439 N442 1.377 . S
C439 H459 0.930 . S
C440 N438 1.375 . S
C440 C439 1.338 . S
C440 H444 0.931 . S
C441 N438 1.313 . S
C441 N442 1.344 . S
C441 H445 0.930 . S
N442 C439 1.377 . S
N442 C441 1.344 . S
O443 Co435 2.055 . S
O443 C447 1.253 . S
H444 C440 0.931 . S
H445 C441 0.930 . S
O446 Co435 2.039 . S
O446 C436 1.265 . S
C447 O443 1.253 . S
C447 O448 1.227 . S
O448 C447 1.227 . S
N449 Co435 2.140 . S
N449 C452 1.346 . S
N449 C453 1.345 . S
C450 C451 1.387 . S
C450 C454 1.391 . S
C451 C450 1.387 . S
C451 C452 1.369 . S
C451 H460 0.929 . S
C452 N449 1.346 . S
C452 C451 1.369 . S
C452 H455 0.928 . S
C453 N449 1.345 . S
C453 C454 1.371 . S
C453 H456 0.931 . S
C454 C450 1.391 . S
C454 C453 1.371 . S
C454 H461 0.930 . S
H455 C452 0.928 . S
H456 C453 0.931 . S
H457 C433 0.930 . S
H458 C430 0.930 . S
H459 C439 0.930 . S
H460 C451 0.929 . S
H461 C454 0.930 . S
C462 C463 1.351 . S
C462 N465 1.368 . S
C462 H467 0.931 . S
C463 C462 1.351 . S
C463 N464 1.373 . S
C463 H491 0.930 . S
N464 C463 1.373 . S
N464 C466 1.340 . S
N465 C462 1.368 . S
N465 C466 1.321 . S
N465 Co468 2.135 . S
C466 N464 1.340 . S
C466 N465 1.321 . S
C466 H490 0.930 . S
H467 C462 0.931 . S
Co468 N465 2.135 . S
Co468 N471 2.121 1_556 S
Co468 O476 2.055 . S
Co468 O479 2.039 . S
Co468 N482 2.142 . S
C469 O470 1.227 . S
C469 O479 1.265 . S
O470 C469 1.227 . S
N471 Co468 2.121 1_554 S
N471 C473 1.375 . S
N471 C474 1.313 . S
C472 C473 1.338 . S
C472 N475 1.377 . S
C472 H492 0.930 . S
C473 N471 1.375 . S
C473 C472 1.338 . S
C473 H477 0.931 1_554 S
C474 N471 1.313 . S
C474 N475 1.344 . S
C474 H478 0.930 . S
N475 C472 1.377 . S
N475 C474 1.344 . S
O476 Co468 2.055 . S
O476 C480 1.253 1_556 S
H477 C473 0.931 1_556 S
H478 C474 0.930 . S
O479 Co468 2.039 . S
O479 C469 1.265 . S
C480 O476 1.253 1_554 S
C480 O481 1.227 . S
O481 C480 1.227 . S
N482 Co468 2.142 . S
N482 C485 1.349 . S
N482 C486 1.340 1_556 S
C483 C484 1.387 1_554 S
C483 C487 1.391 . S
C484 C483 1.387 1_556 S
C484 C485 1.369 . S
C484 H493 0.929 . S
C485 N482 1.349 . S
C485 C484 1.369 . S
C485 H488 0.928 . S
C486 N482 1.340 1_554 S
C486 C487 1.371 . S
C486 H489 0.931 . S
C487 C483 1.391 . S
C487 C486 1.371 . S
C487 H494 0.930 . S
H488 C485 0.928 . S
H489 C486 0.931 . S
H490 C466 0.930 . S
H491 C463 0.930 . S
H492 C472 0.930 . S
H493 C484 0.929 . S
H494 C487 0.930 . S
C495 C496 1.351 . S
C495 N498 1.368 . S
C495 H500 0.931 . S
C496 C495 1.351 . S
C496 N497 1.373 . S
C496 H524 0.930 . S
N497 C496 1.373 . S
N497 C499 1.340 . S
N498 C495 1.368 . S
N498 C499 1.321 . S
N498 Co501 2.135 . S
C499 N497 1.340 . S
C499 N498 1.321 . S
C499 H523 0.930 . S
H500 C495 0.931 . S
Co501 N498 2.135 . S
Co501 N504 2.121 . S
Co501 O509 2.055 . S
Co501 O512 2.039 . S
Co501 N515 2.140 . S
C502 O503 1.227 . S
C502 O512 1.265 . S
O503 C502 1.227 . S
N504 Co501 2.121 . S
N504 C506 1.375 . S
N504 C507 1.313 . S
C505 C506 1.338 . S
C505 N508 1.377 . S
C505 H525 0.930 . S
C506 N504 1.375 . S
C506 C505 1.338 . S
C506 H510 0.931 . S
C507 N504 1.313 . S
C507 N508 1.344 . S
C507 H511 0.930 . S
N508 C505 1.377 . S
N508 C507 1.344 . S
O509 Co501 2.055 . S
O509 C513 1.253 . S
H510 C506 0.931 . S
H511 C507 0.930 . S
O512 Co501 2.039 . S
O512 C502 1.265 . S
C513 O509 1.253 . S
C513 O514 1.227 . S
O514 C513 1.227 . S
N515 Co501 2.140 . S
N515 C518 1.346 . S
N515 C519 1.345 . S
C516 C517 1.387 . S
C516 C520 1.391 . S
C517 C516 1.387 . S
C517 C518 1.369 . S
C517 H526 0.929 . S
C518 N515 1.346 . S
C518 C517 1.369 . S
C518 H521 0.928 . S
C519 N515 1.345 . S
C519 C520 1.371 . S
C519 H522 0.931 . S
C520 C516 1.391 . S
C520 C519 1.371 . S
C520 H527 0.930 . S
H521 C518 0.928 . S
H522 C519 0.931 . S
H523 C499 0.930 . S
H524 C496 0.930 . S
H525 C505 0.930 . S
H526 C517 0.929 . S
H527 C520 0.930 . S
H528 C536 0.929 . S
H529 C538 0.930 . S
H530 C540 0.930 . S
H531 C543 0.929 . S
H532 C546 0.930 . S
H533 C548 0.960 . S
H534 C548 0.960 . S
H535 C548 0.960 . S
C536 H528 0.929 . S
C536 C537 1.377 . S
C536 C538 1.384 . S
C537 C536 1.377 . S
C537 C543 1.390 . S
C538 H529 0.930 . S
C538 C536 1.384 . S
C538 C539 1.372 . S
C539 C538 1.372 . S
C539 C540 1.400 . S
C539 C544 1.490 . S
C540 H530 0.930 . S
C540 C539 1.400 . S
C540 C543 1.386 . S
H541 C557 0.930 . S
H542 C558 0.931 . S
C543 H531 0.929 . S
C543 C537 1.390 . S
C543 C540 1.386 . S
C544 C539 1.490 . S
C544 C546 1.395 . S
C544 C547 1.403 . S
H545 C551 0.930 . S
C546 H532 0.930 . S
C546 C544 1.395 . S
C546 C549 1.403 . S
C547 C544 1.403 . S
C547 C548 1.524 . S
C547 C551 1.400 . S
C548 H533 0.960 . S
C548 H534 0.960 . S
C548 H535 0.960 . S
C548 C547 1.524 . S
C549 C546 1.403 . S
C549 C550 1.392 . S
C549 C553 1.495 . S
C550 C549 1.392 . S
C550 C551 1.385 . S
C550 C552 1.478 . S
C551 H545 0.930 . S
C551 C547 1.400 . S
C551 C550 1.385 . S
C552 C550 1.478 . S
C552 C554 1.381 . S
C552 C558 1.383 . S
C553 C549 1.495 . S
C553 H559 0.959 . S
C553 H560 0.961 . S
C553 H561 0.960 . S
C554 C552 1.381 . S
C554 C555 1.394 . S
C554 H562 0.930 . S
C555 C554 1.394 . S
C555 C556 1.383 . S
C555 H563 0.929 . S
C556 C555 1.383 . S
C556 C557 1.377 . S
C557 H541 0.930 . S
C557 C556 1.377 . S
C557 C558 1.379 . S
C558 H542 0.931 . S
C558 C552 1.383 . S
C558 C557 1.379 . S
H559 C553 0.959 . S
H560 C553 0.961 . S
H561 C553 0.960 . S
H562 C554 0.930 . S
H563 C555 0.929 . S
H564 C572 0.929 . S
H565 C574 0.930 . S
H566 C576 0.930 . S
H567 C579 0.929 . S
H568 C582 0.930 . S
H569 C584 0.960 . S
H570 C584 0.960 . S
H571 C584 0.960 . S
C572 H564 0.929 . S
C572 C573 1.377 . S
C572 C574 1.384 . S
C573 C572 1.377 . S
C573 C579 1.390 . S
C574 H565 0.930 . S
C574 C572 1.384 . S
C574 C575 1.372 . S
C575 C574 1.372 . S
C575 C576 1.400 . S
C575 C580 1.490 . S
C576 H566 0.930 . S
C576 C575 1.400 . S
C576 C579 1.386 . S
H577 C593 0.930 1_556 S
H578 C594 0.931 . S
C579 H567 0.929 . S
C579 C573 1.390 . S
C579 C576 1.386 . S
C580 C575 1.490 . S
C580 C582 1.395 . S
C580 C583 1.403 . S
H581 C587 0.930 . S
C582 H568 0.930 . S
C582 C580 1.395 . S
C582 C585 1.403 . S
C583 C580 1.403 . S
C583 C584 1.524 . S
C583 C587 1.400 . S
C584 H569 0.960 . S
C584 H570 0.960 . S
C584 H571 0.960 . S
C584 C583 1.524 . S
C585 C582 1.403 . S
C585 C586 1.392 . S
C585 C589 1.495 . S
C586 C585 1.392 . S
C586 C587 1.385 . S
C586 C588 1.478 . S
C587 H581 0.930 . S
C587 C583 1.400 . S
C587 C586 1.385 . S
C588 C586 1.478 . S
C588 C590 1.381 . S
C588 C594 1.383 . S
C589 C585 1.495 . S
C589 H595 0.959 . S
C589 H596 0.961 . S
C589 H597 0.960 . S
C590 C588 1.381 . S
C590 C591 1.394 . S
C590 H598 0.930 . S
C591 C590 1.394 . S
C591 C592 1.383 . S
C591 H599 0.929 . S
C592 C591 1.383 . S
C592 C593 1.377 . S
C593 H577 0.930 1_554 S
C593 C592 1.377 . S
C593 C594 1.379 . S
C594 H578 0.931 . S
C594 C588 1.383 . S
C594 C593 1.379 . S
H595 C589 0.959 . S
H596 C589 0.961 . S
H597 C589 0.960 . S
H598 C590 0.930 . S
H599 C591 0.929 . S
H600 C608 0.929 . S
H601 C610 0.930 . S
H602 C612 0.930 . S
H603 C615 0.929 . S
H604 C618 0.930 . S
H605 C620 0.960 . S
H606 C620 0.960 . S
H607 C620 0.960 . S
C608 H600 0.929 . S
C608 C609 1.377 . S
C608 C610 1.384 . S
C609 C608 1.377 . S
C609 C615 1.390 . S
C610 H601 0.930 . S
C610 C608 1.384 . S
C610 C611 1.372 . S
C611 C610 1.372 . S
C611 C612 1.400 . S
C611 C616 1.490 . S
C612 H602 0.930 . S
C612 C611 1.400 . S
C612 C615 1.386 . S
H613 C629 0.930 . S
H614 C630 0.931 . S
C615 H603 0.929 . S
C615 C609 1.390 . S
C615 C612 1.386 . S
C616 C611 1.490 . S
C616 C618 1.395 . S
C616 C619 1.403 . S
H617 C623 0.930 . S
C618 H604 0.930 . S
C618 C616 1.395 . S
C618 C621 1.403 . S
C619 C616 1.403 . S
C619 C620 1.524 . S
C619 C623 1.400 . S
C620 H605 0.960 . S
C620 H606 0.960 . S
C620 H607 0.960 . S
C620 C619 1.524 . S
C621 C618 1.403 . S
C621 C622 1.392 . S
C621 C625 1.495 . S
C622 C621 1.392 . S
C622 C623 1.385 . S
C622 C624 1.478 . S
C623 H617 0.930 . S
C623 C619 1.400 . S
C623 C622 1.385 . S
C624 C622 1.478 . S
C624 C626 1.381 . S
C624 C630 1.383 . S
C625 C621 1.495 . S
C625 H631 0.959 . S
C625 H632 0.961 . S
C625 H633 0.960 . S
C626 C624 1.381 . S
C626 C627 1.394 . S
C626 H634 0.930 . S
C627 C626 1.394 . S
C627 C628 1.383 1_455 S
C627 H635 0.935 . S
C628 C627 1.383 1_655 S
C628 C629 1.377 . S
C629 H613 0.930 . S
C629 C628 1.377 . S
C629 C630 1.379 1_655 S
C630 H614 0.931 . S
C630 C624 1.383 . S
C630 C629 1.379 1_455 S
H631 C625 0.959 . S
H632 C625 0.961 . S
H633 C625 0.960 . S
H634 C626 0.930 . S
H635 C627 0.935 . S
H636 C644 0.929 . S
H637 C646 0.930 . S
H638 C648 0.930 . S
H639 C651 0.929 . S
H640 C654 0.930 . S
H641 C656 0.960 . S
H642 C656 0.960 . S
H643 C656 0.960 . S
C644 H636 0.929 . S
C644 C645 1.377 . S
C644 C646 1.384 . S
C645 C644 1.377 . S
C645 C651 1.390 . S
C646 H637 0.930 . S
C646 C644 1.384 . S
C646 C647 1.372 . S
C647 C646 1.372 . S
C647 C648 1.400 . S
C647 C652 1.490 . S
C648 H638 0.930 . S
C648 C647 1.400 . S
C648 C651 1.386 . S
H649 C665 0.930 . S
H650 C666 0.931 . S
C651 H639 0.929 . S
C651 C645 1.390 . S
C651 C648 1.386 . S
C652 C647 1.490 . S
C652 C654 1.395 . S
C652 C655 1.403 . S
H653 C659 0.930 . S
C654 H640 0.930 . S
C654 C652 1.395 . S
C654 C657 1.403 . S
C655 C652 1.403 . S
C655 C656 1.524 . S
C655 C659 1.400 . S
C656 H641 0.960 . S
C656 H642 0.960 . S
C656 H643 0.960 . S
C656 C655 1.524 . S
C657 C654 1.403 . S
C657 C658 1.392 . S
C657 C661 1.495 . S
C658 C657 1.392 . S
C658 C659 1.385 . S
C658 C660 1.478 . S
C659 H653 0.930 . S
C659 C655 1.400 . S
C659 C658 1.385 . S
C660 C658 1.478 . S
C660 C662 1.381 . S
C660 C666 1.383 . S
C661 C657 1.495 . S
C661 H667 0.959 . S
C661 H668 0.961 . S
C661 H669 0.960 . S
C662 C660 1.381 . S
C662 C663 1.394 . S
C662 H670 0.930 . S
C663 C662 1.394 . S
C663 C664 1.383 . S
C663 H671 0.929 . S
C664 C663 1.383 . S
C664 C665 1.377 . S
C665 H649 0.930 . S
C665 C664 1.377 . S
C665 C666 1.379 . S
C666 H650 0.931 . S
C666 C660 1.383 . S
C666 C665 1.379 . S
H667 C661 0.959 . S
H668 C661 0.961 . S
H669 C661 0.960 . S
H670 C662 0.930 . S
H671 C663 0.929 . S
H672 C680 0.929 . S
H673 C682 0.930 . S
H674 C684 0.930 . S
H675 C687 0.929 . S
H676 C690 0.930 . S
H677 C692 0.960 . S
H678 C692 0.960 . S
H679 C692 0.960 . S
C680 H672 0.929 . S
C680 C681 1.377 . S
C680 C682 1.384 . S
C681 C680 1.377 . S
C681 C687 1.390 . S
C682 H673 0.930 . S
C682 C680 1.384 . S
C682 C683 1.372 . S
C683 C682 1.372 . S
C683 C684 1.400 . S
C683 C688 1.490 . S
C684 H674 0.930 . S
C684 C683 1.400 . S
C684 C687 1.386 . S
H685 C701 0.930 . S
H686 C702 0.931 . S
C687 H675 0.929 . S
C687 C681 1.390 . S
C687 C684 1.386 . S
C688 C683 1.490 . S
C688 C690 1.395 . S
C688 C691 1.403 . S
H689 C695 0.930 . S
C690 H676 0.930 . S
C690 C688 1.395 . S
C690 C693 1.403 . S
C691 C688 1.403 . S
C691 C692 1.524 . S
C691 C695 1.400 . S
C692 H677 0.960 . S
C692 H678 0.960 . S
C692 H679 0.960 . S
C692 C691 1.524 . S
C693 C690 1.403 . S
C693 C694 1.392 . S
C693 C697 1.495 . S
C694 C693 1.392 . S
C694 C695 1.385 . S
C694 C696 1.478 . S
C695 H689 0.930 . S
C695 C691 1.400 . S
C695 C694 1.385 . S
C696 C694 1.478 . S
C696 C698 1.381 . S
C696 C702 1.383 . S
C697 C693 1.495 . S
C697 H703 0.959 . S
C697 H704 0.961 . S
C697 H705 0.960 . S
C698 C696 1.381 . S
C698 C699 1.394 . S
C698 H706 0.930 . S
C699 C698 1.394 . S
C699 C700 1.383 . S
C699 H707 0.929 . S
C700 C699 1.383 . S
C700 C701 1.377 . S
C701 H685 0.930 . S
C701 C700 1.377 . S
C701 C702 1.379 . S
C702 H686 0.931 . S
C702 C696 1.383 . S
C702 C701 1.379 . S
H703 C697 0.959 . S
H704 C697 0.961 . S
H705 C697 0.960 . S
H706 C698 0.930 . S
H707 C699 0.929 . S
H708 C716 0.929 . S
H709 C718 0.930 . S
H710 C720 0.930 . S
H711 C723 0.929 . S
H712 C726 0.930 . S
H713 C728 0.960 . S
H714 C728 0.960 . S
H715 C728 0.960 . S
C716 H708 0.929 . S
C716 C717 1.377 . S
C716 C718 1.384 . S
C717 C716 1.377 . S
C717 C723 1.390 . S
C718 H709 0.930 . S
C718 C716 1.384 . S
C718 C719 1.372 . S
C719 C718 1.372 . S
C719 C720 1.400 . S
C719 C724 1.490 . S
C720 H710 0.930 . S
C720 C719 1.400 . S
C720 C723 1.386 . S
H721 C737 0.930 . S
H722 C738 0.931 . S
C723 H711 0.929 . S
C723 C717 1.390 . S
C723 C720 1.386 . S
C724 C719 1.490 . S
C724 C726 1.395 . S
C724 C727 1.403 . S
H725 C731 0.930 . S
C726 H712 0.930 . S
C726 C724 1.395 . S
C726 C729 1.403 . S
C727 C724 1.403 . S
C727 C728 1.524 . S
C727 C731 1.400 . S
C728 H713 0.960 . S
C728 H714 0.960 . S
C728 H715 0.960 . S
C728 C727 1.524 . S
C729 C726 1.403 . S
C729 C730 1.392 . S
C729 C733 1.495 . S
C730 C729 1.392 . S
C730 C731 1.385 . S
C730 C732 1.478 . S
C731 H725 0.930 . S
C731 C727 1.400 . S
C731 C730 1.385 . S
C732 C730 1.478 . S
C732 C734 1.381 . S
C732 C738 1.383 . S
C733 C729 1.495 . S
C733 H739 0.959 . S
C733 H740 0.961 . S
C733 H741 0.960 . S
C734 C732 1.381 . S
C734 C735 1.394 . S
C734 H742 0.930 . S
C735 C734 1.394 . S
C735 C736 1.383 . S
C735 H743 0.929 . S
C736 C735 1.383 . S
C736 C737 1.377 . S
C737 H721 0.930 . S
C737 C736 1.377 . S
C737 C738 1.379 . S
C738 H722 0.931 . S
C738 C732 1.383 . S
C738 C737 1.379 . S
H739 C733 0.959 . S
H740 C733 0.961 . S
H741 C733 0.960 . S
H742 C734 0.930 . S
H743 C735 0.929 . S
H744 C752 0.929 . S
H745 C754 0.930 1_455 S
H746 C756 0.930 . S
H747 C759 0.929 . S
H748 C762 0.930 . S
H749 C764 0.960 . S
H750 C764 0.960 . S
H751 C764 0.960 . S
C752 H744 0.929 . S
C752 C753 1.377 . S
C752 C754 1.384 1_455 S
C753 C752 1.377 . S
C753 C759 1.390 1_455 S
C754 H745 0.930 1_655 S
C754 C752 1.384 1_655 S
C754 C755 1.372 . S
C755 C754 1.372 . S
C755 C756 1.400 . S
C755 C760 1.490 . S
C756 H746 0.930 . S
C756 C755 1.400 . S
C756 C759 1.386 . S
H757 C773 0.930 . S
H758 C774 0.931 . S
C759 H747 0.929 . S
C759 C753 1.390 1_655 S
C759 C756 1.386 . S
C760 C755 1.490 . S
C760 C762 1.395 . S
C760 C763 1.403 . S
H761 C767 0.930 . S
C762 H748 0.930 . S
C762 C760 1.395 . S
C762 C765 1.403 . S
C763 C760 1.403 . S
C763 C764 1.524 . S
C763 C767 1.400 . S
C764 H749 0.960 . S
C764 H750 0.960 . S
C764 H751 0.960 . S
C764 C763 1.524 . S
C765 C762 1.403 . S
C765 C766 1.392 . S
C765 C769 1.495 . S
C766 C765 1.392 . S
C766 C767 1.385 . S
C766 C768 1.478 . S
C767 H761 0.930 . S
C767 C763 1.400 . S
C767 C766 1.385 . S
C768 C766 1.478 . S
C768 C770 1.381 . S
C768 C774 1.383 . S
C769 C765 1.495 . S
C769 H775 0.959 . S
C769 H776 0.961 . S
C769 H777 0.960 . S
C770 C768 1.381 . S
C770 C771 1.394 . S
C770 H778 0.930 . S
C771 C770 1.394 . S
C771 C772 1.383 . S
C771 H779 0.929 . S
C772 C771 1.383 . S
C772 C773 1.377 . S
C773 H757 0.930 . S
C773 C772 1.377 . S
C773 C774 1.379 . S
C774 H758 0.931 . S
C774 C768 1.383 . S
C774 C773 1.379 . S
H775 C769 0.959 . S
H776 C769 0.961 . S
H777 C769 0.960 . S
H778 C770 0.930 . S
H779 C771 0.929 . S
H780 C788 0.929 . S
H781 C790 0.930 . S
H782 C792 0.930 . S
H783 C795 0.929 . S
H784 C798 0.930 . S
H785 C800 0.960 . S
H786 C800 0.960 . S
H787 C800 0.960 . S
C788 H780 0.929 . S
C788 C789 1.377 . S
C788 C790 1.384 . S
C789 C788 1.377 . S
C789 C795 1.390 . S
C790 H781 0.930 . S
C790 C788 1.384 . S
C790 C791 1.372 . S
C791 C790 1.372 . S
C791 C792 1.400 . S
C791 C796 1.490 . S
C792 H782 0.930 . S
C792 C791 1.400 . S
C792 C795 1.386 . S
H793 C809 0.930 . S
H794 C810 0.931 . S
C795 H783 0.929 . S
C795 C789 1.390 . S
C795 C792 1.386 . S
C796 C791 1.490 . S
C796 C798 1.395 . S
C796 C799 1.403 . S
H797 C803 0.930 . S
C798 H784 0.930 . S
C798 C796 1.395 . S
C798 C801 1.403 . S
C799 C796 1.403 . S
C799 C800 1.524 . S
C799 C803 1.400 . S
C800 H785 0.960 . S
C800 H786 0.960 . S
C800 H787 0.960 . S
C800 C799 1.524 . S
C801 C798 1.403 . S
C801 C802 1.392 . S
C801 C805 1.495 . S
C802 C801 1.392 . S
C802 C803 1.385 . S
C802 C804 1.478 . S
C803 H797 0.930 . S
C803 C799 1.400 . S
C803 C802 1.385 . S
C804 C802 1.478 . S
C804 C806 1.381 . S
C804 C810 1.383 . S
C805 C801 1.495 . S
C805 H811 0.959 . S
C805 H812 0.961 . S
C805 H813 0.960 . S
C806 C804 1.381 . S
C806 C807 1.394 . S
C806 H814 0.930 . S
C807 C806 1.394 . S
C807 C808 1.383 . S
C807 H815 0.929 . S
C808 C807 1.383 . S
C808 C809 1.377 . S
C809 H793 0.930 . S
C809 C808 1.377 . S
C809 C810 1.379 . S
C810 H794 0.931 . S
C810 C804 1.383 . S
C810 C809 1.379 . S
H811 C805 0.959 . S
H812 C805 0.961 . S
H813 C805 0.960 . S
H814 C806 0.930 . S
H815 C807 0.929 . S
H816 C824 0.929 . S
H817 C826 0.930 . S
H818 C828 0.930 . S
H819 C831 0.929 . S
H820 C834 0.930 . S
H821 C836 0.960 . S
H822 C836 0.960 . S
H823 C836 0.960 . S
C824 H816 0.929 . S
C824 C825 1.377 . S
C824 C826 1.384 . S
C825 C824 1.377 . S
C825 C831 1.390 . S
C826 H817 0.930 . S
C826 C824 1.384 . S
C826 C827 1.372 . S
C827 C826 1.372 . S
C827 C828 1.400 . S
C827 C832 1.490 . S
C828 H818 0.930 . S
C828 C827 1.400 . S
C828 C831 1.386 . S
H829 C845 0.934 . S
H830 C846 0.931 . S
C831 H819 0.929 . S
C831 C825 1.390 . S
C831 C828 1.386 . S
C832 C827 1.490 . S
C832 C834 1.395 . S
C832 C835 1.403 . S
H833 C839 0.930 . S
C834 H820 0.930 . S
C834 C832 1.395 . S
C834 C837 1.403 . S
C835 C832 1.403 . S
C835 C836 1.524 . S
C835 C839 1.400 . S
C836 H821 0.960 . S
C836 H822 0.960 . S
C836 H823 0.960 . S
C836 C835 1.524 . S
C837 C834 1.403 . S
C837 C838 1.392 . S
C837 C841 1.495 . S
C838 C837 1.392 . S
C838 C839 1.385 . S
C838 C840 1.478 . S
C839 H833 0.930 . S
C839 C835 1.400 . S
C839 C838 1.385 . S
C840 C838 1.478 . S
C840 C842 1.381 . S
C840 C846 1.383 . S
C841 C837 1.495 . S
C841 H847 0.959 . S
C841 H848 0.961 . S
C841 H849 0.960 . S
C842 C840 1.381 . S
C842 C843 1.394 1_655 S
C842 H850 0.930 . S
C843 C842 1.394 1_455 S
C843 C844 1.383 . S
C843 H851 0.929 . S
C844 C843 1.383 . S
C844 C845 1.388 . S
C845 H829 0.934 . S
C845 C844 1.388 . S
C845 C846 1.364 1_455 S
C846 H830 0.931 . S
C846 C840 1.383 . S
C846 C845 1.364 1_655 S
H847 C841 0.959 . S
H848 C841 0.961 . S
H849 C841 0.960 . S
H850 C842 0.930 . S
H851 C843 0.929 . S
H852 C860 0.929 . S
H853 C862 0.930 . S
H854 C864 0.930 . S
H855 C867 0.929 . S
H856 C870 0.930 . S
H857 C872 0.960 . S
H858 C872 0.960 . S
H859 C872 0.960 . S
C860 H852 0.929 . S
C860 C861 1.377 . S
C860 C862 1.384 . S
C861 C860 1.377 . S
C861 C867 1.390 . S
C862 H853 0.930 . S
C862 C860 1.384 . S
C862 C863 1.372 . S
C863 C862 1.372 . S
C863 C864 1.400 . S
C863 C868 1.490 . S
C864 H854 0.930 . S
C864 C863 1.400 . S
C864 C867 1.386 . S
H865 C881 0.930 . S
H866 C882 0.931 . S
C867 H855 0.929 . S
C867 C861 1.390 . S
C867 C864 1.386 . S
C868 C863 1.490 . S
C868 C870 1.395 . S
C868 C871 1.403 . S
H869 C875 0.930 . S
C870 H856 0.930 . S
C870 C868 1.395 . S
C870 C873 1.403 . S
C871 C868 1.403 . S
C871 C872 1.524 . S
C871 C875 1.400 . S
C872 H857 0.960 . S
C872 H858 0.960 . S
C872 H859 0.960 . S
C872 C871 1.524 . S
C873 C870 1.403 . S
C873 C874 1.392 . S
C873 C877 1.495 . S
C874 C873 1.392 . S
C874 C875 1.385 . S
C874 C876 1.478 . S
C875 H869 0.930 . S
C875 C871 1.400 . S
C875 C874 1.385 . S
C876 C874 1.478 . S
C876 C878 1.381 . S
C876 C882 1.383 . S
C877 C873 1.495 . S
C877 H883 0.959 . S
C877 H884 0.961 . S
C877 H885 0.960 . S
C878 C876 1.381 . S
C878 C879 1.394 . S
C878 H886 0.930 . S
C879 C878 1.394 . S
C879 C880 1.383 . S
C879 H887 0.929 . S
C880 C879 1.383 . S
C880 C881 1.377 . S
C881 H865 0.930 . S
C881 C880 1.377 . S
C881 C882 1.379 . S
C882 H866 0.931 . S
C882 C876 1.383 . S
C882 C881 1.379 . S
H883 C877 0.959 . S
H884 C877 0.961 . S
H885 C877 0.960 . S
H886 C878 0.930 . S
H887 C879 0.929 . S
H888 C896 0.929 . S
H889 C898 0.930 . S
H890 C900 0.930 . S
H891 C903 0.929 . S
H892 C906 0.930 . S
H893 C908 0.960 . S
H894 C908 0.960 . S
H895 C908 0.960 . S
C896 H888 0.929 . S
C896 C897 1.377 . S
C896 C898 1.384 . S
C897 C896 1.377 . S
C897 C903 1.390 . S
C898 H889 0.930 . S
C898 C896 1.384 . S
C898 C899 1.372 . S
C899 C898 1.372 . S
C899 C900 1.400 . S
C899 C904 1.490 . S
C900 H890 0.930 . S
C900 C899 1.400 . S
C900 C903 1.386 . S
H901 C917 0.930 . S
H902 C918 0.931 . S
C903 H891 0.929 . S
C903 C897 1.390 . S
C903 C900 1.386 . S
C904 C899 1.490 . S
C904 C906 1.395 . S
C904 C907 1.403 . S
H905 C911 0.930 . S
C906 H892 0.930 . S
C906 C904 1.395 . S
C906 C909 1.403 . S
C907 C904 1.403 . S
C907 C908 1.524 . S
C907 C911 1.400 . S
C908 H893 0.960 . S
C908 H894 0.960 . S
C908 H895 0.960 . S
C908 C907 1.524 . S
C909 C906 1.403 . S
C909 C910 1.392 . S
C909 C913 1.495 . S
C910 C909 1.392 . S
C910 C911 1.385 . S
C910 C912 1.478 . S
C911 H905 0.930 . S
C911 C907 1.400 . S
C911 C910 1.385 . S
C912 C910 1.478 . S
C912 C914 1.381 . S
C912 C918 1.383 . S
C913 C909 1.495 . S
C913 H919 0.959 . S
C913 H920 0.961 . S
C913 H921 0.960 . S
C914 C912 1.381 . S
C914 C915 1.394 . S
C914 H922 0.930 . S
C915 C914 1.394 . S
C915 C916 1.383 . S
C915 H923 0.929 . S
C916 C915 1.383 . S
C916 C917 1.377 . S
C917 H901 0.930 . S
C917 C916 1.377 . S
C917 C918 1.379 . S
C918 H902 0.931 . S
C918 C912 1.383 . S
C918 C917 1.379 . S
H919 C913 0.959 . S
H920 C913 0.961 . S
H921 C913 0.960 . S
H922 C914 0.930 . S
H923 C915 0.929 . S
H924 C932 0.929 . S
H925 C934 0.930 . S
H926 C936 0.930 . S
H927 C939 0.929 . S
H928 C942 0.930 . S
H929 C944 0.960 . S
H930 C944 0.960 . S
H931 C944 0.960 . S
C932 H924 0.929 . S
C932 C933 1.377 . S
C932 C934 1.384 . S
C933 C932 1.377 . S
C933 C939 1.390 . S
C934 H925 0.930 . S
C934 C932 1.384 . S
C934 C935 1.372 . S
C935 C934 1.372 . S
C935 C936 1.400 . S
C935 C940 1.490 . S
C936 H926 0.930 . S
C936 C935 1.400 . S
C936 C939 1.386 . S
H937 C953 0.930 . S
H938 C954 0.931 . S
C939 H927 0.929 . S
C939 C933 1.390 . S
C939 C936 1.386 . S
C940 C935 1.490 . S
C940 C942 1.395 . S
C940 C943 1.403 . S
H941 C947 0.930 . S
C942 H928 0.930 . S
C942 C940 1.395 . S
C942 C945 1.403 . S
C943 C940 1.403 . S
C943 C944 1.524 . S
C943 C947 1.400 . S
C944 H929 0.960 . S
C944 H930 0.960 . S
C944 H931 0.960 . S
C944 C943 1.524 . S
C945 C942 1.403 . S
C945 C946 1.392 . S
C945 C949 1.495 . S
C946 C945 1.392 . S
C946 C947 1.385 . S
C946 C948 1.478 . S
C947 H941 0.930 . S
C947 C943 1.400 . S
C947 C946 1.385 . S
C948 C946 1.478 . S
C948 C950 1.381 . S
C948 C954 1.383 . S
C949 C945 1.495 . S
C949 H955 0.959 . S
C949 H956 0.961 . S
C949 H957 0.960 . S
C950 C948 1.381 . S
C950 C951 1.394 . S
C950 H958 0.930 . S
C951 C950 1.394 . S
C951 C952 1.383 . S
C951 H959 0.929 . S
C952 C951 1.383 . S
C952 C953 1.377 . S
C953 H937 0.930 . S
C953 C952 1.377 . S
C953 C954 1.379 . S
C954 H938 0.931 . S
C954 C948 1.383 . S
C954 C953 1.379 . S
H955 C949 0.959 . S
H956 C949 0.961 . S
H957 C949 0.960 . S
H958 C950 0.930 . S
H959 C951 0.929 . S
H960 C968 0.929 . S
H961 C970 0.930 . S
H962 C972 0.930 . S
H963 C975 0.929 . S
H964 C978 0.930 . S
H965 C980 0.960 . S
H966 C980 0.960 . S
H967 C980 0.960 . S
C968 H960 0.929 . S
C968 C969 1.377 . S
C968 C970 1.384 . S
C969 C968 1.377 . S
C969 C975 1.390 . S
C970 H961 0.930 . S
C970 C968 1.384 . S
C970 C971 1.372 . S
C971 C970 1.372 . S
C971 C972 1.400 . S
C971 C976 1.490 . S
C972 H962 0.930 . S
C972 C971 1.400 . S
C972 C975 1.386 . S
H973 C989 0.915 1_655 S
H974 C990 0.931 . S
C975 H963 0.929 . S
C975 C969 1.390 . S
C975 C972 1.386 . S
C976 C971 1.490 . S
C976 C978 1.395 . S
C976 C979 1.403 . S
H977 C983 0.930 . S
C978 H964 0.930 . S
C978 C976 1.395 . S
C978 C981 1.403 . S
C979 C976 1.403 . S
C979 C980 1.524 . S
C979 C983 1.400 . S
C980 H965 0.960 . S
C980 H966 0.960 . S
C980 H967 0.960 . S
C980 C979 1.524 . S
C981 C978 1.403 . S
C981 C982 1.392 . S
C981 C985 1.495 . S
C982 C981 1.392 . S
C982 C983 1.385 . S
C982 C984 1.478 . S
C983 H977 0.930 . S
C983 C979 1.400 . S
C983 C982 1.385 . S
C984 C982 1.478 . S
C984 C986 1.381 . S
C984 C990 1.383 . S
C985 C981 1.495 . S
C985 H991 0.959 . S
C985 H992 0.961 . S
C985 H993 0.960 . S
C986 C984 1.381 . S
C986 C987 1.394 1_455 S
C986 H994 0.930 . S
C987 C986 1.394 1_655 S
C987 C988 1.383 . S
C987 H995 0.929 . S
C988 C987 1.383 . S
C988 C989 1.349 1_655 S
C989 H973 0.915 1_455 S
C989 C988 1.349 1_455 S
C989 C990 1.424 . S
C990 H974 0.931 . S
C990 C984 1.383 . S
C990 C989 1.424 . S
H991 C985 0.959 . S
H992 C985 0.961 . S
H993 C985 0.960 . S
H994 C986 0.930 . S
H995 C987 0.929 . S
H996 C1004 0.929 . S
H997 C1006 0.930 . S
H998 C1008 0.930 . S
H999 C1011 0.929 . S
H1000 C1014 0.930 . S
H1001 C1016 0.960 . S
H1002 C1016 0.960 . S
H1003 C1016 0.960 . S
C1004 H996 0.929 . S
C1004 C1005 1.377 . S
C1004 C1006 1.384 . S
C1005 C1004 1.377 . S
C1005 C1011 1.390 . S
C1006 H997 0.930 . S
C1006 C1004 1.384 . S
C1006 C1007 1.372 . S
C1007 C1006 1.372 . S
C1007 C1008 1.400 . S
C1007 C1012 1.490 . S
C1008 H998 0.930 . S
C1008 C1007 1.400 . S
C1008 C1011 1.386 . S
H1009 C1025 0.930 . S
H1010 C1026 0.931 . S
C1011 H999 0.929 . S
C1011 C1005 1.390 . S
C1011 C1008 1.386 . S
C1012 C1007 1.490 . S
C1012 C1014 1.395 . S
C1012 C1015 1.403 . S
H1013 C1019 0.930 . S
C1014 H1000 0.930 . S
C1014 C1012 1.395 . S
C1014 C1017 1.403 . S
C1015 C1012 1.403 . S
C1015 C1016 1.524 . S
C1015 C1019 1.400 . S
C1016 H1001 0.960 . S
C1016 H1002 0.960 . S
C1016 H1003 0.960 . S
C1016 C1015 1.524 . S
C1017 C1014 1.403 . S
C1017 C1018 1.392 . S
C1017 C1021 1.495 . S
C1018 C1017 1.392 . S
C1018 C1019 1.385 . S
C1018 C1020 1.478 . S
C1019 H1013 0.930 . S
C1019 C1015 1.400 . S
C1019 C1018 1.385 . S
C1020 C1018 1.478 . S
C1020 C1022 1.381 . S
C1020 C1026 1.383 . S
C1021 C1017 1.495 . S
C1021 H1027 0.959 . S
C1021 H1028 0.961 . S
C1021 H1029 0.960 . S
C1022 C1020 1.381 . S
C1022 C1023 1.394 . S
C1022 H1030 0.930 . S
C1023 C1022 1.394 . S
C1023 C1024 1.383 . S
C1023 H1031 0.929 . S
C1024 C1023 1.383 . S
C1024 C1025 1.377 . S
C1025 H1009 0.930 . S
C1025 C1024 1.377 . S
C1025 C1026 1.379 . S
C1026 H1010 0.931 . S
C1026 C1020 1.383 . S
C1026 C1025 1.379 . S
H1027 C1021 0.959 . S
H1028 C1021 0.961 . S
H1029 C1021 0.960 . S
H1030 C1022 0.930 . S
H1031 C1023 0.929 . S
H1032 C1040 0.929 . S
H1033 C1042 0.930 . S
H1034 C1044 0.930 . S
H1035 C1047 0.929 . S
H1036 C1050 0.930 . S
H1037 C1052 0.960 . S
H1038 C1052 0.960 . S
H1039 C1052 0.960 . S
C1040 H1032 0.929 . S
C1040 C1041 1.377 . S
C1040 C1042 1.384 . S
C1041 C1040 1.377 . S
C1041 C1047 1.390 . S
C1042 H1033 0.930 . S
C1042 C1040 1.384 . S
C1042 C1043 1.372 . S
C1043 C1042 1.372 . S
C1043 C1044 1.400 . S
C1043 C1048 1.490 . S
C1044 H1034 0.930 . S
C1044 C1043 1.400 . S
C1044 C1047 1.386 . S
H1045 C1061 0.930 . S
H1046 C1062 0.931 . S
C1047 H1035 0.929 . S
C1047 C1041 1.390 . S
C1047 C1044 1.386 . S
C1048 C1043 1.490 . S
C1048 C1050 1.395 . S
C1048 C1051 1.403 . S
H1049 C1055 0.930 . S
C1050 H1036 0.930 . S
C1050 C1048 1.395 . S
C1050 C1053 1.403 . S
C1051 C1048 1.403 . S
C1051 C1052 1.524 . S
C1051 C1055 1.400 . S
C1052 H1037 0.960 . S
C1052 H1038 0.960 . S
C1052 H1039 0.960 . S
C1052 C1051 1.524 . S
C1053 C1050 1.403 . S
C1053 C1054 1.392 . S
C1053 C1057 1.495 . S
C1054 C1053 1.392 . S
C1054 C1055 1.385 . S
C1054 C1056 1.478 . S
C1055 H1049 0.930 . S
C1055 C1051 1.400 . S
C1055 C1054 1.385 . S
C1056 C1054 1.478 . S
C1056 C1058 1.381 . S
C1056 C1062 1.383 . S
C1057 C1053 1.495 . S
C1057 H1063 0.959 . S
C1057 H1064 0.961 . S
C1057 H1065 0.960 . S
C1058 C1056 1.381 . S
C1058 C1059 1.394 . S
C1058 H1066 0.930 . S
C1059 C1058 1.394 . S
C1059 C1060 1.383 . S
C1059 H1067 0.929 . S
C1060 C1059 1.383 . S
C1060 C1061 1.377 . S
C1061 H1045 0.930 . S
C1061 C1060 1.377 . S
C1061 C1062 1.379 . S
C1062 H1046 0.931 . S
C1062 C1056 1.383 . S
C1062 C1061 1.379 . S
H1063 C1057 0.959 . S
H1064 C1057 0.961 . S
H1065 C1057 0.960 . S
H1066 C1058 0.930 . S
H1067 C1059 0.929 . S
H1068 C1076 0.929 . S
H1069 C1078 0.930 . S
H1070 C1080 0.930 . S
H1071 C1083 0.929 . S
H1072 C1086 0.930 . S
H1073 C1088 0.960 . S
H1074 C1088 0.960 . S
H1075 C1088 0.960 . S
C1076 H1068 0.929 . S
C1076 C1077 1.377 . S
C1076 C1078 1.384 . S
C1077 C1076 1.377 . S
C1077 C1083 1.390 . S
C1078 H1069 0.930 . S
C1078 C1076 1.384 . S
C1078 C1079 1.372 . S
C1079 C1078 1.372 . S
C1079 C1080 1.400 . S
C1079 C1084 1.490 . S
C1080 H1070 0.930 . S
C1080 C1079 1.400 . S
C1080 C1083 1.386 . S
H1081 C1097 0.930 . S
H1082 C1098 0.931 . S
C1083 H1071 0.929 . S
C1083 C1077 1.390 . S
C1083 C1080 1.386 . S
C1084 C1079 1.490 . S
C1084 C1086 1.395 . S
C1084 C1087 1.403 . S
H1085 C1091 0.930 . S
C1086 H1072 0.930 . S
C1086 C1084 1.395 . S
C1086 C1089 1.403 . S
C1087 C1084 1.403 . S
C1087 C1088 1.524 . S
C1087 C1091 1.400 . S
C1088 H1073 0.960 . S
C1088 H1074 0.960 . S
C1088 H1075 0.960 . S
C1088 C1087 1.524 . S
C1089 C1086 1.403 . S
C1089 C1090 1.392 . S
C1089 C1093 1.495 . S
C1090 C1089 1.392 . S
C1090 C1091 1.385 . S
C1090 C1092 1.478 . S
C1091 H1085 0.930 . S
C1091 C1087 1.400 . S
C1091 C1090 1.385 . S
C1092 C1090 1.478 . S
C1092 C1094 1.381 . S
C1092 C1098 1.383 . S
C1093 C1089 1.495 . S
C1093 H1099 0.959 . S
C1093 H1100 0.961 . S
C1093 H1101 0.960 . S
C1094 C1092 1.381 . S
C1094 C1095 1.394 . S
C1094 H1102 0.930 . S
C1095 C1094 1.394 . S
C1095 C1096 1.383 . S
C1095 H1103 0.929 1_556 S
C1096 C1095 1.383 . S
C1096 C1097 1.377 . S
C1097 H1081 0.930 . S
C1097 C1096 1.377 . S
C1097 C1098 1.379 . S
C1098 H1082 0.931 . S
C1098 C1092 1.383 . S
C1098 C1097 1.379 . S
H1099 C1093 0.959 . S
H1100 C1093 0.961 . S
H1101 C1093 0.960 . S
H1102 C1094 0.930 . S
H1103 C1095 0.929 1_554 S
H1104 C1112 0.929 . S
H1105 C1114 0.930 . S
H1106 C1116 0.930 . S
H1107 C1119 0.929 . S
H1108 C1122 0.930 . S
H1109 C1124 0.960 . S
H1110 C1124 0.960 . S
H1111 C1124 0.960 . S
C1112 H1104 0.929 . S
C1112 C1113 1.377 . S
C1112 C1114 1.384 . S
C1113 C1112 1.377 . S
C1113 C1119 1.390 . S
C1114 H1105 0.930 . S
C1114 C1112 1.384 . S
C1114 C1115 1.372 . S
C1115 C1114 1.372 . S
C1115 C1116 1.400 . S
C1115 C1120 1.490 . S
C1116 H1106 0.930 . S
C1116 C1115 1.400 . S
C1116 C1119 1.386 . S
H1117 C1133 0.930 . S
H1118 C1134 0.931 . S
C1119 H1107 0.929 . S
C1119 C1113 1.390 . S
C1119 C1116 1.386 . S
C1120 C1115 1.490 . S
C1120 C1122 1.395 . S
C1120 C1123 1.403 . S
H1121 C1127 0.930 . S
C1122 H1108 0.930 . S
C1122 C1120 1.395 . S
C1122 C1125 1.403 . S
C1123 C1120 1.403 . S
C1123 C1124 1.524 . S
C1123 C1127 1.400 . S
C1124 H1109 0.960 . S
C1124 H1110 0.960 . S
C1124 H1111 0.960 . S
C1124 C1123 1.524 . S
C1125 C1122 1.403 . S
C1125 C1126 1.392 . S
C1125 C1129 1.495 . S
C1126 C1125 1.392 . S
C1126 C1127 1.385 . S
C1126 C1128 1.478 . S
C1127 H1121 0.930 . S
C1127 C1123 1.400 . S
C1127 C1126 1.385 . S
C1128 C1126 1.478 . S
C1128 C1130 1.381 . S
C1128 C1134 1.383 . S
C1129 C1125 1.495 . S
C1129 H1135 0.959 . S
C1129 H1136 0.961 . S
C1129 H1137 0.960 . S
C1130 C1128 1.381 . S
C1130 C1131 1.394 . S
C1130 H1138 0.930 . S
C1131 C1130 1.394 . S
C1131 C1132 1.383 . S
C1131 H1139 0.929 . S
C1132 C1131 1.383 . S
C1132 C1133 1.377 . S
C1133 H1117 0.930 . S
C1133 C1132 1.377 . S
C1133 C1134 1.379 . S
C1134 H1118 0.931 . S
C1134 C1128 1.383 . S
C1134 C1133 1.379 . S
H1135 C1129 0.959 . S
H1136 C1129 0.961 . S
H1137 C1129 0.960 . S
H1138 C1130 0.930 . S
H1139 C1131 0.929 . S
H1140 C1148 0.929 . S
H1141 C1150 0.930 . S
H1142 C1152 0.930 . S
H1143 C1155 0.929 . S
H1144 C1158 0.930 . S
H1145 C1160 0.960 . S
H1146 C1160 0.960 . S
H1147 C1160 0.960 . S
C1148 H1140 0.929 . S
C1148 C1149 1.377 . S
C1148 C1150 1.384 . S
C1149 C1148 1.377 . S
C1149 C1155 1.390 . S
C1150 H1141 0.930 . S
C1150 C1148 1.384 . S
C1150 C1151 1.372 . S
C1151 C1150 1.372 . S
C1151 C1152 1.400 . S
C1151 C1156 1.490 . S
C1152 H1142 0.930 . S
C1152 C1151 1.400 . S
C1152 C1155 1.386 . S
H1153 C1169 0.930 . S
H1154 C1170 0.931 . S
C1155 H1143 0.929 . S
C1155 C1149 1.390 . S
C1155 C1152 1.386 . S
C1156 C1151 1.490 . S
C1156 C1158 1.395 . S
C1156 C1159 1.403 . S
H1157 C1163 0.930 . S
C1158 H1144 0.930 . S
C1158 C1156 1.395 . S
C1158 C1161 1.403 . S
C1159 C1156 1.403 . S
C1159 C1160 1.524 . S
C1159 C1163 1.400 . S
C1160 H1145 0.960 . S
C1160 H1146 0.960 . S
C1160 H1147 0.960 . S
C1160 C1159 1.524 . S
C1161 C1158 1.403 . S
C1161 C1162 1.392 . S
C1161 C1165 1.495 . S
C1162 C1161 1.392 . S
C1162 C1163 1.385 . S
C1162 C1164 1.478 . S
C1163 H1157 0.930 . S
C1163 C1159 1.400 . S
C1163 C1162 1.385 . S
C1164 C1162 1.478 . S
C1164 C1166 1.381 . S
C1164 C1170 1.383 . S
C1165 C1161 1.495 . S
C1165 H1171 0.959 . S
C1165 H1172 0.961 . S
C1165 H1173 0.960 . S
C1166 C1164 1.381 . S
C1166 C1167 1.394 . S
C1166 H1174 0.930 . S
C1167 C1166 1.394 . S
C1167 C1168 1.383 . S
C1167 H1175 0.929 . S
C1168 C1167 1.383 . S
C1168 C1169 1.377 . S
C1169 H1153 0.930 . S
C1169 C1168 1.377 . S
C1169 C1170 1.379 . S
C1170 H1154 0.931 . S
C1170 C1164 1.383 . S
C1170 C1169 1.379 . S
H1171 C1165 0.959 . S
H1172 C1165 0.961 . S
H1173 C1165 0.960 . S
H1174 C1166 0.930 . S
H1175 C1167 0.929 . S
H1176 C1184 0.929 . S
H1177 C1186 0.930 . S
H1178 C1188 0.930 . S
H1179 C1191 0.929 . S
H1180 C1194 0.930 . S
H1181 C1196 0.960 . S
H1182 C1196 0.960 . S
H1183 C1196 0.960 . S
C1184 H1176 0.929 . S
C1184 C1185 1.377 . S
C1184 C1186 1.384 . S
C1185 C1184 1.377 . S
C1185 C1191 1.390 . S
C1186 H1177 0.930 . S
C1186 C1184 1.384 . S
C1186 C1187 1.372 . S
C1187 C1186 1.372 . S
C1187 C1188 1.400 . S
C1187 C1192 1.490 . S
C1188 H1178 0.930 . S
C1188 C1187 1.400 . S
C1188 C1191 1.386 . S
H1189 C1205 0.930 . S
H1190 C1206 0.931 . S
C1191 H1179 0.929 . S
C1191 C1185 1.390 . S
C1191 C1188 1.386 . S
C1192 C1187 1.490 . S
C1192 C1194 1.395 . S
C1192 C1195 1.403 . S
H1193 C1199 0.930 . S
C1194 H1180 0.930 . S
C1194 C1192 1.395 . S
C1194 C1197 1.403 . S
C1195 C1192 1.403 . S
C1195 C1196 1.524 . S
C1195 C1199 1.400 . S
C1196 H1181 0.960 . S
C1196 H1182 0.960 . S
C1196 H1183 0.960 . S
C1196 C1195 1.524 . S
C1197 C1194 1.403 . S
C1197 C1198 1.392 . S
C1197 C1201 1.495 . S
C1198 C1197 1.392 . S
C1198 C1199 1.385 . S
C1198 C1200 1.478 . S
C1199 H1193 0.930 . S
C1199 C1195 1.400 . S
C1199 C1198 1.385 . S
C1200 C1198 1.478 . S
C1200 C1202 1.381 . S
C1200 C1206 1.383 . S
C1201 C1197 1.495 . S
C1201 H1207 0.959 . S
C1201 H1208 0.961 . S
C1201 H1209 0.960 . S
C1202 C1200 1.381 . S
C1202 C1203 1.394 . S
C1202 H1210 0.930 . S
C1203 C1202 1.394 . S
C1203 C1204 1.383 . S
C1203 H1211 0.929 . S
C1204 C1203 1.383 . S
C1204 C1205 1.377 . S
C1205 H1189 0.930 . S
C1205 C1204 1.377 . S
C1205 C1206 1.379 . S
C1206 H1190 0.931 . S
C1206 C1200 1.383 . S
C1206 C1205 1.379 . S
H1207 C1201 0.959 . S
H1208 C1201 0.961 . S
H1209 C1201 0.960 . S
H1210 C1202 0.930 . S
H1211 C1203 0.929 . S
H1212 C1220 0.929 . S
H1213 C1222 0.930 . S
H1214 C1224 0.930 . S
H1215 C1227 0.929 . S
H1216 C1230 0.930 . S
H1217 C1232 0.960 . S
H1218 C1232 0.960 . S
H1219 C1232 0.960 . S
C1220 H1212 0.929 . S
C1220 C1221 1.377 . S
C1220 C1222 1.384 . S
C1221 C1220 1.377 . S
C1221 C1227 1.390 . S
C1222 H1213 0.930 . S
C1222 C1220 1.384 . S
C1222 C1223 1.372 . S
C1223 C1222 1.372 . S
C1223 C1224 1.400 . S
C1223 C1228 1.490 . S
C1224 H1214 0.930 . S
C1224 C1223 1.400 . S
C1224 C1227 1.386 . S
H1225 C1241 0.930 . S
H1226 C1242 0.931 . S
C1227 H1215 0.929 . S
C1227 C1221 1.390 . S
C1227 C1224 1.386 . S
C1228 C1223 1.490 . S
C1228 C1230 1.395 . S
C1228 C1231 1.403 1_655 S
H1229 C1235 0.930 . S
C1230 H1216 0.930 . S
C1230 C1228 1.395 . S
C1230 C1233 1.403 1_556 S
C1231 C1228 1.403 1_455 S
C1231 C1232 1.524 . S
C1231 C1235 1.400 1_556 S
C1232 H1217 0.960 . S
C1232 H1218 0.960 . S
C1232 H1219 0.960 . S
C1232 C1231 1.524 . S
C1233 C1230 1.403 1_554 S
C1233 C1234 1.392 1_655 S
C1233 C1237 1.495 . S
C1234 C1233 1.392 1_455 S
C1234 C1235 1.385 . S
C1234 C1236 1.478 . S
C1235 H1229 0.930 . S
C1235 C1231 1.400 1_554 S
C1235 C1234 1.385 . S
C1236 C1234 1.478 . S
C1236 C1238 1.381 . S
C1236 C1242 1.383 . S
C1237 C1233 1.495 . S
C1237 H1243 0.959 . S
C1237 H1244 0.961 . S
C1237 H1245 0.960 . S
C1238 C1236 1.381 . S
C1238 C1239 1.394 . S
C1238 H1246 0.930 . S
C1239 C1238 1.394 . S
C1239 C1240 1.383 . S
C1239 H1247 0.929 . S
C1240 C1239 1.383 . S
C1240 C1241 1.377 . S
C1241 H1225 0.930 . S
C1241 C1240 1.377 . S
C1241 C1242 1.379 . S
C1242 H1226 0.931 . S
C1242 C1236 1.383 . S
C1242 C1241 1.379 . S
H1243 C1237 0.959 . S
H1244 C1237 0.961 . S
H1245 C1237 0.960 . S
H1246 C1238 0.930 . S
H1247 C1239 0.929 . S
H1248 C1256 0.929 . S
H1249 C1258 0.930 . S
H1250 C1260 0.930 . S
H1251 C1263 0.929 . S
H1252 C1266 0.930 . S
H1253 C1268 0.960 . S
H1254 C1268 0.960 . S
H1255 C1268 0.960 . S
C1256 H1248 0.929 . S
C1256 C1257 1.377 . S
C1256 C1258 1.384 . S
C1257 C1256 1.377 . S
C1257 C1263 1.390 . S
C1258 H1249 0.930 . S
C1258 C1256 1.384 . S
C1258 C1259 1.372 . S
C1259 C1258 1.372 . S
C1259 C1260 1.400 . S
C1259 C1264 1.490 . S
C1260 H1250 0.930 . S
C1260 C1259 1.400 . S
C1260 C1263 1.386 . S
H1261 C1277 0.930 . S
H1262 C1278 0.931 . S
C1263 H1251 0.929 . S
C1263 C1257 1.390 . S
C1263 C1260 1.386 . S
C1264 C1259 1.490 . S
C1264 C1266 1.395 . S
C1264 C1267 1.403 . S
H1265 C1271 0.930 . S
C1266 H1252 0.930 . S
C1266 C1264 1.395 . S
C1266 C1269 1.403 . S
C1267 C1264 1.403 . S
C1267 C1268 1.524 . S
C1267 C1271 1.400 . S
C1268 H1253 0.960 . S
C1268 H1254 0.960 . S
C1268 H1255 0.960 . S
C1268 C1267 1.524 . S
C1269 C1266 1.403 . S
C1269 C1270 1.392 . S
C1269 C1273 1.495 . S
C1270 C1269 1.392 . S
C1270 C1271 1.385 . S
C1270 C1272 1.478 . S
C1271 H1265 0.930 . S
C1271 C1267 1.400 . S
C1271 C1270 1.385 . S
C1272 C1270 1.478 . S
C1272 C1274 1.381 . S
C1272 C1278 1.383 . S
C1273 C1269 1.495 . S
C1273 H1279 0.959 . S
C1273 H1280 0.961 . S
C1273 H1281 0.960 . S
C1274 C1272 1.381 . S
C1274 C1275 1.394 . S
C1274 H1282 0.930 . S
C1275 C1274 1.394 . S
C1275 C1276 1.383 . S
C1275 H1283 0.929 . S
C1276 C1275 1.383 . S
C1276 C1277 1.377 . S
C1277 H1261 0.930 . S
C1277 C1276 1.377 . S
C1277 C1278 1.379 . S
C1278 H1262 0.931 . S
C1278 C1272 1.383 . S
C1278 C1277 1.379 . S
H1279 C1273 0.959 . S
H1280 C1273 0.961 . S
H1281 C1273 0.960 . S
H1282 C1274 0.930 . S
H1283 C1275 0.929 . S
H1284 C1292 0.929 . S
H1285 C1294 0.930 . S
H1286 C1296 0.930 . S
H1287 C1299 0.929 . S
H1288 C1302 0.930 . S
H1289 C1304 0.960 . S
H1290 C1304 0.960 . S
H1291 C1304 0.960 . S
C1292 H1284 0.929 . S
C1292 C1293 1.377 . S
C1292 C1294 1.384 . S
C1293 C1292 1.377 . S
C1293 C1299 1.390 . S
C1294 H1285 0.930 . S
C1294 C1292 1.384 . S
C1294 C1295 1.372 . S
C1295 C1294 1.372 . S
C1295 C1296 1.400 . S
C1295 C1300 1.490 . S
C1296 H1286 0.930 . S
C1296 C1295 1.400 . S
C1296 C1299 1.386 . S
H1297 C1313 0.930 . S
H1298 C1314 0.931 . S
C1299 H1287 0.929 . S
C1299 C1293 1.390 . S
C1299 C1296 1.386 . S
C1300 C1295 1.490 . S
C1300 C1302 1.395 . S
C1300 C1303 1.403 . S
H1301 C1307 0.930 . S
C1302 H1288 0.930 . S
C1302 C1300 1.395 . S
C1302 C1305 1.403 . S
C1303 C1300 1.403 . S
C1303 C1304 1.524 . S
C1303 C1307 1.400 . S
C1304 H1289 0.960 . S
C1304 H1290 0.960 . S
C1304 H1291 0.960 . S
C1304 C1303 1.524 . S
C1305 C1302 1.403 . S
C1305 C1306 1.392 . S
C1305 C1309 1.495 . S
C1306 C1305 1.392 . S
C1306 C1307 1.385 . S
C1306 C1308 1.478 . S
C1307 H1301 0.930 . S
C1307 C1303 1.400 . S
C1307 C1306 1.385 . S
C1308 C1306 1.478 . S
C1308 C1310 1.381 . S
C1308 C1314 1.383 . S
C1309 C1305 1.495 . S
C1309 H1315 0.959 . S
C1309 H1316 0.961 . S
C1309 H1317 0.960 . S
C1310 C1308 1.381 . S
C1310 C1311 1.394 . S
C1310 H1318 0.930 . S
C1311 C1310 1.394 . S
C1311 C1312 1.383 . S
C1311 H1319 0.929 . S
C1312 C1311 1.383 . S
C1312 C1313 1.377 . S
C1313 H1297 0.930 . S
C1313 C1312 1.377 . S
C1313 C1314 1.379 . S
C1314 H1298 0.931 . S
C1314 C1308 1.383 . S
C1314 C1313 1.379 . S
H1315 C1309 0.959 . S
H1316 C1309 0.961 . S
H1317 C1309 0.960 . S
H1318 C1310 0.930 . S
H1319 C1311 0.929 . S
H1320 C1328 0.929 . S
H1321 C1330 0.930 . S
H1322 C1332 0.930 1_455 S
H1323 C1335 0.929 . S
H1324 C1338 0.930 . S
H1325 C1340 0.955 1_456 S
H1326 C1340 0.972 . S
H1327 C1340 0.954 1_455 S
C1328 H1320 0.929 . S
C1328 C1329 1.377 . S
C1328 C1330 1.384 . S
C1329 C1328 1.377 . S
C1329 C1335 1.390 . S
C1330 H1321 0.930 . S
C1330 C1328 1.384 . S
C1330 C1331 1.372 . S
C1331 C1330 1.372 . S
C1331 C1332 1.400 . S
C1331 C1336 1.490 . S
C1332 H1322 0.930 1_655 S
C1332 C1331 1.400 . S
C1332 C1335 1.386 . S
H1333 C1349 0.930 . S
H1334 C1350 0.931 . S
C1335 H1323 0.929 . S
C1335 C1329 1.390 . S
C1335 C1332 1.386 . S
C1336 C1331 1.490 . S
C1336 C1338 1.395 1_565 S
C1336 C1339 1.418 . S
H1337 C1343 0.930 . S
C1338 H1324 0.930 . S
C1338 C1336 1.395 1_545 S
C1338 C1341 1.403 1_554 S
C1339 C1336 1.418 . S
C1339 C1340 1.523 . S
C1339 C1343 1.386 1_654 S
C1340 H1325 0.955 1_654 S
C1340 H1326 0.972 . S
C1340 H1327 0.954 1_655 S
C1340 C1339 1.523 . S
C1341 C1338 1.403 1_556 S
C1341 C1342 1.392 1_655 S
C1341 C1345 1.495 . S
C1342 C1341 1.392 1_455 S
C1342 C1343 1.385 1_545 S
C1342 C1344 1.478 . S
C1343 H1337 0.930 . S
C1343 C1339 1.386 1_456 S
C1343 C1342 1.385 1_565 S
C1344 C1342 1.478 . S
C1344 C1346 1.381 . S
C1344 C1350 1.383 . S
C1345 C1341 1.495 . S
C1345 H1351 0.959 1_556 S
C1345 H1352 0.961 1_655 S
C1345 H1353 0.960 . S
C1346 C1344 1.381 . S
C1346 C1347 1.394 . S
C1346 H1354 0.930 1_455 S
C1347 C1346 1.394 . S
C1347 C1348 1.383 . S
C1347 H1355 0.929 . S
C1348 C1347 1.383 . S
C1348 C1349 1.377 . S
C1349 H1333 0.930 . S
C1349 C1348 1.377 . S
C1349 C1350 1.379 . S
C1350 H1334 0.931 . S
C1350 C1344 1.383 . S
C1350 C1349 1.379 . S
H1351 C1345 0.959 1_554 S
H1352 C1345 0.961 1_455 S
H1353 C1345 0.960 . S
H1354 C1346 0.930 1_655 S
H1355 C1347 0.929 . S
H1356 C1364 0.929 . S
H1357 C1366 0.930 . S
H1358 C1368 0.930 . S
H1359 C1371 0.929 . S
H1360 C1374 0.930 . S
H1361 C1376 0.960 . S
H1362 C1376 0.960 . S
H1363 C1376 0.960 . S
C1364 H1356 0.929 . S
C1364 C1365 1.377 . S
C1364 C1366 1.384 . S
C1365 C1364 1.377 . S
C1365 C1371 1.390 . S
C1366 H1357 0.930 . S
C1366 C1364 1.384 . S
C1366 C1367 1.372 . S
C1367 C1366 1.372 . S
C1367 C1368 1.400 . S
C1367 C1372 1.490 . S
C1368 H1358 0.930 . S
C1368 C1367 1.400 . S
C1368 C1371 1.386 . S
H1369 C1385 0.930 . S
H1370 C1386 0.931 . S
C1371 H1359 0.929 . S
C1371 C1365 1.390 . S
C1371 C1368 1.386 . S
C1372 C1367 1.490 . S
C1372 C1374 1.395 . S
C1372 C1375 1.403 1_565 S
H1373 C1379 0.930 . S
C1374 H1360 0.930 . S
C1374 C1372 1.395 . S
C1374 C1377 1.403 . S
C1375 C1372 1.403 1_545 S
C1375 C1376 1.524 . S
C1375 C1379 1.400 . S
C1376 H1361 0.960 . S
C1376 H1362 0.960 . S
C1376 H1363 0.960 . S
C1376 C1375 1.524 . S
C1377 C1374 1.403 . S
C1377 C1378 1.392 1_565 S
C1377 C1381 1.495 . S
C1378 C1377 1.392 1_545 S
C1378 C1379 1.385 . S
C1378 C1380 1.478 . S
C1379 H1373 0.930 . S
C1379 C1375 1.400 . S
C1379 C1378 1.385 . S
C1380 C1378 1.478 . S
C1380 C1382 1.381 . S
C1380 C1386 1.383 . S
C1381 C1377 1.495 . S
C1381 H1387 0.959 . S
C1381 H1388 0.961 . S
C1381 H1389 0.960 . S
C1382 C1380 1.381 . S
C1382 C1383 1.394 . S
C1382 H1390 0.930 . S
C1383 C1382 1.394 . S
C1383 C1384 1.383 . S
C1383 H1391 0.929 . S
C1384 C1383 1.383 . S
C1384 C1385 1.377 . S
C1385 H1369 0.930 . S
C1385 C1384 1.377 . S
C1385 C1386 1.379 . S
C1386 H1370 0.931 . S
C1386 C1380 1.383 . S
C1386 C1385 1.379 . S
H1387 C1381 0.959 . S
H1388 C1381 0.961 . S
H1389 C1381 0.960 . S
H1390 C1382 0.930 . S
H1391 C1383 0.929 . S
H1392 C1400 0.929 . S
H1393 C1402 0.930 . S
H1394 C1404 0.930 . S
H1395 C1407 0.929 . S
H1396 C1410 0.930 . S
H1397 C1412 0.960 . S
H1398 C1412 0.960 . S
H1399 C1412 0.960 . S
C1400 H1392 0.929 . S
C1400 C1401 1.377 . S
C1400 C1402 1.384 . S
C1401 C1400 1.377 . S
C1401 C1407 1.390 . S
C1402 H1393 0.930 . S
C1402 C1400 1.384 . S
C1402 C1403 1.372 . S
C1403 C1402 1.372 . S
C1403 C1404 1.400 . S
C1403 C1408 1.490 . S
C1404 H1394 0.930 . S
C1404 C1403 1.400 . S
C1404 C1407 1.386 . S
H1405 C1421 0.930 . S
H1406 C1422 0.931 . S
C1407 H1395 0.929 . S
C1407 C1401 1.390 . S
C1407 C1404 1.386 . S
C1408 C1403 1.490 . S
C1408 C1410 1.395 . S
C1408 C1411 1.403 . S
H1409 C1415 0.930 . S
C1410 H1396 0.930 . S
C1410 C1408 1.395 . S
C1410 C1413 1.403 . S
C1411 C1408 1.403 . S
C1411 C1412 1.524 . S
C1411 C1415 1.400 . S
C1412 H1397 0.960 . S
C1412 H1398 0.960 . S
C1412 H1399 0.960 . S
C1412 C1411 1.524 . S
C1413 C1410 1.403 . S
C1413 C1414 1.392 . S
C1413 C1417 1.495 . S
C1414 C1413 1.392 . S
C1414 C1415 1.385 . S
C1414 C1416 1.478 . S
C1415 H1409 0.930 . S
C1415 C1411 1.400 . S
C1415 C1414 1.385 . S
C1416 C1414 1.478 . S
C1416 C1418 1.381 . S
C1416 C1422 1.383 . S
C1417 C1413 1.495 . S
C1417 H1423 0.959 . S
C1417 H1424 0.961 . S
C1417 H1425 0.960 . S
C1418 C1416 1.381 . S
C1418 C1419 1.394 . S
C1418 H1426 0.930 . S
C1419 C1418 1.394 . S
C1419 C1420 1.383 . S
C1419 H1427 0.929 . S
C1420 C1419 1.383 . S
C1420 C1421 1.377 . S
C1421 H1405 0.930 . S
C1421 C1420 1.377 . S
C1421 C1422 1.379 . S
C1422 H1406 0.931 . S
C1422 C1416 1.383 . S
C1422 C1421 1.379 . S
H1423 C1417 0.959 . S
H1424 C1417 0.961 . S
H1425 C1417 0.960 . S
H1426 C1418 0.930 . S
H1427 C1419 0.929 . S
H1428 C1436 0.929 . S
H1429 C1438 0.930 . S
H1430 C1440 0.930 . S
H1431 C1443 0.929 . S
H1432 C1446 0.930 . S
H1433 C1448 0.960 . S
H1434 C1448 0.960 . S
H1435 C1448 0.960 . S
C1436 H1428 0.929 . S
C1436 C1437 1.377 . S
C1436 C1438 1.384 . S
C1437 C1436 1.377 . S
C1437 C1443 1.390 . S
C1438 H1429 0.930 . S
C1438 C1436 1.384 . S
C1438 C1439 1.372 . S
C1439 C1438 1.372 . S
C1439 C1440 1.400 . S
C1439 C1444 1.490 . S
C1440 H1430 0.930 . S
C1440 C1439 1.400 . S
C1440 C1443 1.386 . S
H1441 C1457 0.930 . S
H1442 C1458 0.931 . S
C1443 H1431 0.929 . S
C1443 C1437 1.390 . S
C1443 C1440 1.386 . S
C1444 C1439 1.490 . S
C1444 C1446 1.395 . S
C1444 C1447 1.403 . S
H1445 C1451 0.930 . S
C1446 H1432 0.930 . S
C1446 C1444 1.395 . S
C1446 C1449 1.403 . S
C1447 C1444 1.403 . S
C1447 C1448 1.524 . S
C1447 C1451 1.400 . S
C1448 H1433 0.960 . S
C1448 H1434 0.960 . S
C1448 H1435 0.960 . S
C1448 C1447 1.524 . S
C1449 C1446 1.403 . S
C1449 C1450 1.392 . S
C1449 C1453 1.495 . S
C1450 C1449 1.392 . S
C1450 C1451 1.385 . S
C1450 C1452 1.478 . S
C1451 H1445 0.930 . S
C1451 C1447 1.400 . S
C1451 C1450 1.385 . S
C1452 C1450 1.478 . S
C1452 C1454 1.381 . S
C1452 C1458 1.383 . S
C1453 C1449 1.495 . S
C1453 H1459 0.959 . S
C1453 H1460 0.961 . S
C1453 H1461 0.960 . S
C1454 C1452 1.381 . S
C1454 C1455 1.394 . S
C1454 H1462 0.930 . S
C1455 C1454 1.394 . S
C1455 C1456 1.383 . S
C1455 H1463 0.929 . S
C1456 C1455 1.383 . S
C1456 C1457 1.377 . S
C1457 H1441 0.930 . S
C1457 C1456 1.377 . S
C1457 C1458 1.379 . S
C1458 H1442 0.931 . S
C1458 C1452 1.383 . S
C1458 C1457 1.379 . S
H1459 C1453 0.959 . S
H1460 C1453 0.961 . S
H1461 C1453 0.960 . S
H1462 C1454 0.930 . S
H1463 C1455 0.929 . S
H1464 C1472 0.929 . S
H1465 C1474 0.930 . S
H1466 C1476 0.930 . S
H1467 C1479 0.929 . S
H1468 C1482 0.930 . S
H1469 C1484 0.960 . S
H1470 C1484 0.960 . S
H1471 C1484 0.960 . S
C1472 H1464 0.929 . S
C1472 C1473 1.377 . S
C1472 C1474 1.384 . S
C1473 C1472 1.377 . S
C1473 C1479 1.390 . S
C1474 H1465 0.930 . S
C1474 C1472 1.384 . S
C1474 C1475 1.372 . S
C1475 C1474 1.372 . S
C1475 C1476 1.400 . S
C1475 C1480 1.490 . S
C1476 H1466 0.930 . S
C1476 C1475 1.400 . S
C1476 C1479 1.386 . S
H1477 C1493 0.930 . S
H1478 C1494 0.931 . S
C1479 H1467 0.929 . S
C1479 C1473 1.390 . S
C1479 C1476 1.386 . S
C1480 C1475 1.490 . S
C1480 C1482 1.395 . S
C1480 C1483 1.403 . S
H1481 C1487 0.930 . S
C1482 H1468 0.930 . S
C1482 C1480 1.395 . S
C1482 C1485 1.403 . S
C1483 C1480 1.403 . S
C1483 C1484 1.524 . S
C1483 C1487 1.400 . S
C1484 H1469 0.960 . S
C1484 H1470 0.960 . S
C1484 H1471 0.960 . S
C1484 C1483 1.524 . S
C1485 C1482 1.403 . S
C1485 C1486 1.392 . S
C1485 C1489 1.495 . S
C1486 C1485 1.392 . S
C1486 C1487 1.385 . S
C1486 C1488 1.478 . S
C1487 H1481 0.930 . S
C1487 C1483 1.400 . S
C1487 C1486 1.385 . S
C1488 C1486 1.478 . S
C1488 C1490 1.381 . S
C1488 C1494 1.383 . S
C1489 C1485 1.495 . S
C1489 H1495 0.959 . S
C1489 H1496 0.961 . S
C1489 H1497 0.960 . S
C1490 C1488 1.381 . S
C1490 C1491 1.394 . S
C1490 H1498 0.930 . S
C1491 C1490 1.394 . S
C1491 C1492 1.383 . S
C1491 H1499 0.929 . S
C1492 C1491 1.383 . S
C1492 C1493 1.377 . S
C1493 H1477 0.930 . S
C1493 C1492 1.377 . S
C1493 C1494 1.379 . S
C1494 H1478 0.931 . S
C1494 C1488 1.383 . S
C1494 C1493 1.379 . S
H1495 C1489 0.959 . S
H1496 C1489 0.961 . S
H1497 C1489 0.960 . S
H1498 C1490 0.930 . S
H1499 C1491 0.929 . S
H1500 C1508 0.929 . S
H1501 C1510 0.930 . S
H1502 C1512 0.930 . S
H1503 C1515 0.929 . S
H1504 C1518 0.930 . S
H1505 C1520 0.960 . S
H1506 C1520 0.960 . S
H1507 C1520 0.960 . S
C1508 H1500 0.929 . S
C1508 C1509 1.377 . S
C1508 C1510 1.384 . S
C1509 C1508 1.377 . S
C1509 C1515 1.390 . S
C1510 H1501 0.930 . S
C1510 C1508 1.384 . S
C1510 C1511 1.372 . S
C1511 C1510 1.372 . S
C1511 C1512 1.400 . S
C1511 C1516 1.490 . S
C1512 H1502 0.930 . S
C1512 C1511 1.400 . S
C1512 C1515 1.386 . S
H1513 C1529 0.930 . S
H1514 C1530 0.931 . S
C1515 H1503 0.929 . S
C1515 C1509 1.390 . S
C1515 C1512 1.386 . S
C1516 C1511 1.490 . S
C1516 C1518 1.395 . S
C1516 C1519 1.403 . S
H1517 C1523 0.930 . S
C1518 H1504 0.930 . S
C1518 C1516 1.395 . S
C1518 C1521 1.403 . S
C1519 C1516 1.403 . S
C1519 C1520 1.524 . S
C1519 C1523 1.400 . S
C1520 H1505 0.960 . S
C1520 H1506 0.960 . S
C1520 H1507 0.960 . S
C1520 C1519 1.524 . S
C1521 C1518 1.403 . S
C1521 C1522 1.392 . S
C1521 C1525 1.495 . S
C1522 C1521 1.392 . S
C1522 C1523 1.385 . S
C1522 C1524 1.478 . S
C1523 H1517 0.930 . S
C1523 C1519 1.400 . S
C1523 C1522 1.385 . S
C1524 C1522 1.478 . S
C1524 C1526 1.381 . S
C1524 C1530 1.383 . S
C1525 C1521 1.495 . S
C1525 H1531 0.959 . S
C1525 H1532 0.961 . S
C1525 H1533 0.960 . S
C1526 C1524 1.381 . S
C1526 C1527 1.394 . S
C1526 H1534 0.930 . S
C1527 C1526 1.394 . S
C1527 C1528 1.383 . S
C1527 H1535 0.929 . S
C1528 C1527 1.383 . S
C1528 C1529 1.377 . S
C1529 H1513 0.930 . S
C1529 C1528 1.377 . S
C1529 C1530 1.379 . S
C1530 H1514 0.931 . S
C1530 C1524 1.383 . S
C1530 C1529 1.379 . S
H1531 C1525 0.959 . S
H1532 C1525 0.961 . S
H1533 C1525 0.960 . S
H1534 C1526 0.930 . S
H1535 C1527 0.929 . S
H1536 C1544 0.929 . S
H1537 C1546 0.930 . S
H1538 C1548 0.930 . S
H1539 C1551 0.929 . S
H1540 C1554 0.930 . S
H1541 C1556 0.960 . S
H1542 C1556 0.960 . S
H1543 C1556 0.960 . S
C1544 H1536 0.929 . S
C1544 C1545 1.377 . S
C1544 C1546 1.384 . S
C1545 C1544 1.377 . S
C1545 C1551 1.390 . S
C1546 H1537 0.930 . S
C1546 C1544 1.384 . S
C1546 C1547 1.372 . S
C1547 C1546 1.372 . S
C1547 C1548 1.400 . S
C1547 C1552 1.490 . S
C1548 H1538 0.930 . S
C1548 C1547 1.400 . S
C1548 C1551 1.386 . S
H1549 C1565 0.930 . S
H1550 C1566 0.931 . S
C1551 H1539 0.929 . S
C1551 C1545 1.390 . S
C1551 C1548 1.386 . S
C1552 C1547 1.490 . S
C1552 C1554 1.395 . S
C1552 C1555 1.403 . S
H1553 C1559 0.930 . S
C1554 H1540 0.930 . S
C1554 C1552 1.395 . S
C1554 C1557 1.403 . S
C1555 C1552 1.403 . S
C1555 C1556 1.524 . S
C1555 C1559 1.400 . S
C1556 H1541 0.960 . S
C1556 H1542 0.960 . S
C1556 H1543 0.960 . S
C1556 C1555 1.524 . S
C1557 C1554 1.403 . S
C1557 C1558 1.392 . S
C1557 C1561 1.495 . S
C1558 C1557 1.392 . S
C1558 C1559 1.385 . S
C1558 C1560 1.478 . S
C1559 H1553 0.930 . S
C1559 C1555 1.400 . S
C1559 C1558 1.385 . S
C1560 C1558 1.478 . S
C1560 C1562 1.381 . S
C1560 C1566 1.383 . S
C1561 C1557 1.495 . S
C1561 H1567 0.959 . S
C1561 H1568 0.961 . S
C1561 H1569 0.960 . S
C1562 C1560 1.381 . S
C1562 C1563 1.394 . S
C1562 H1570 0.930 . S
C1563 C1562 1.394 . S
C1563 C1564 1.383 . S
C1563 H1571 0.929 . S
C1564 C1563 1.383 . S
C1564 C1565 1.377 . S
C1565 H1549 0.930 . S
C1565 C1564 1.377 . S
C1565 C1566 1.379 . S
C1566 H1550 0.931 . S
C1566 C1560 1.383 . S
C1566 C1565 1.379 . S
H1567 C1561 0.959 . S
H1568 C1561 0.961 . S
H1569 C1561 0.960 . S
H1570 C1562 0.930 . S
H1571 C1563 0.929 . S
H1572 C1580 0.929 . S
H1573 C1582 0.930 . S
H1574 C1584 0.930 . S
H1575 C1587 0.929 . S
H1576 C1590 0.930 . S
H1577 C1592 0.960 . S
H1578 C1592 0.960 . S
H1579 C1592 0.960 . S
C1580 H1572 0.929 . S
C1580 C1581 1.377 . S
C1580 C1582 1.384 . S
C1581 C1580 1.377 . S
C1581 C1587 1.390 . S
C1582 H1573 0.930 . S
C1582 C1580 1.384 . S
C1582 C1583 1.372 . S
C1583 C1582 1.372 . S
C1583 C1584 1.400 . S
C1583 C1588 1.490 . S
C1584 H1574 0.930 . S
C1584 C1583 1.400 . S
C1584 C1587 1.386 . S
H1585 C1601 0.930 . S
H1586 C1602 0.931 . S
C1587 H1575 0.929 . S
C1587 C1581 1.390 . S
C1587 C1584 1.386 . S
C1588 C1583 1.490 . S
C1588 C1590 1.395 . S
C1588 C1591 1.403 . S
H1589 C1595 0.930 . S
C1590 H1576 0.930 . S
C1590 C1588 1.395 . S
C1590 C1593 1.403 . S
C1591 C1588 1.403 . S
C1591 C1592 1.524 . S
C1591 C1595 1.400 . S
C1592 H1577 0.960 . S
C1592 H1578 0.960 . S
C1592 H1579 0.960 . S
C1592 C1591 1.524 . S
C1593 C1590 1.403 . S
C1593 C1594 1.392 . S
C1593 C1597 1.495 . S
C1594 C1593 1.392 . S
C1594 C1595 1.385 . S
C1594 C1596 1.478 . S
C1595 H1589 0.930 . S
C1595 C1591 1.400 . S
C1595 C1594 1.385 . S
C1596 C1594 1.478 . S
C1596 C1598 1.381 . S
C1596 C1602 1.383 . S
C1597 C1593 1.495 . S
C1597 H1603 0.959 . S
C1597 H1604 0.961 . S
C1597 H1605 0.960 . S
C1598 C1596 1.381 . S
C1598 C1599 1.394 . S
C1598 H1606 0.930 . S
C1599 C1598 1.394 . S
C1599 C1600 1.383 . S
C1599 H1607 0.929 . S
C1600 C1599 1.383 . S
C1600 C1601 1.377 . S
C1601 H1585 0.930 . S
C1601 C1600 1.377 . S
C1601 C1602 1.379 . S
C1602 H1586 0.931 . S
C1602 C1596 1.383 . S
C1602 C1601 1.379 . S
H1603 C1597 0.959 . S
H1604 C1597 0.961 . S
H1605 C1597 0.960 . S
H1606 C1598 0.930 . S
H1607 C1599 0.929 . S
H1608 C1616 0.929 . S
H1609 C1618 0.930 . S
H1610 C1620 0.930 . S
H1611 C1623 0.929 . S
H1612 C1626 0.930 . S
H1613 C1628 0.960 . S
H1614 C1628 0.960 . S
H1615 C1628 0.960 . S
C1616 H1608 0.929 . S
C1616 C1617 1.377 . S
C1616 C1618 1.384 . S
C1617 C1616 1.377 . S
C1617 C1623 1.390 . S
C1618 H1609 0.930 . S
C1618 C1616 1.384 . S
C1618 C1619 1.372 . S
C1619 C1618 1.372 . S
C1619 C1620 1.400 . S
C1619 C1624 1.490 . S
C1620 H1610 0.930 . S
C1620 C1619 1.400 . S
C1620 C1623 1.386 . S
H1621 C1637 0.930 . S
H1622 C1638 0.931 . S
C1623 H1611 0.929 . S
C1623 C1617 1.390 . S
C1623 C1620 1.386 . S
C1624 C1619 1.490 . S
C1624 C1626 1.395 . S
C1624 C1627 1.403 . S
H1625 C1631 0.930 . S
C1626 H1612 0.930 . S
C1626 C1624 1.395 . S
C1626 C1629 1.403 . S
C1627 C1624 1.403 . S
C1627 C1628 1.524 . S
C1627 C1631 1.400 . S
C1628 H1613 0.960 . S
C1628 H1614 0.960 . S
C1628 H1615 0.960 . S
C1628 C1627 1.524 . S
C1629 C1626 1.403 . S
C1629 C1630 1.392 . S
C1629 C1633 1.495 . S
C1630 C1629 1.392 . S
C1630 C1631 1.385 . S
C1630 C1632 1.478 . S
C1631 H1625 0.930 . S
C1631 C1627 1.400 . S
C1631 C1630 1.385 . S
C1632 C1630 1.478 . S
C1632 C1634 1.381 . S
C1632 C1638 1.383 . S
C1633 C1629 1.495 . S
C1633 H1639 0.959 . S
C1633 H1640 0.961 . S
C1633 H1641 0.960 . S
C1634 C1632 1.381 . S
C1634 C1635 1.394 . S
C1634 H1642 0.930 . S
C1635 C1634 1.394 . S
C1635 C1636 1.383 . S
C1635 H1643 0.929 . S
C1636 C1635 1.383 . S
C1636 C1637 1.377 . S
C1637 H1621 0.930 . S
C1637 C1636 1.377 . S
C1637 C1638 1.379 . S
C1638 H1622 0.931 . S
C1638 C1632 1.383 . S
C1638 C1637 1.379 . S
H1639 C1633 0.959 . S
H1640 C1633 0.961 . S
H1641 C1633 0.960 . S
H1642 C1634 0.930 . S
H1643 C1635 0.929 . S
H1644 C1652 0.929 . S
H1645 C1654 0.930 . S
H1646 C1656 0.930 . S
H1647 C1659 0.929 . S
H1648 C1662 0.930 . S
H1649 C1664 0.960 . S
H1650 C1664 0.960 . S
H1651 C1664 0.960 . S
C1652 H1644 0.929 . S
C1652 C1653 1.377 . S
C1652 C1654 1.384 . S
C1653 C1652 1.377 . S
C1653 C1659 1.390 . S
C1654 H1645 0.930 . S
C1654 C1652 1.384 . S
C1654 C1655 1.372 . S
C1655 C1654 1.372 . S
C1655 C1656 1.400 . S
C1655 C1660 1.490 . S
C1656 H1646 0.930 . S
C1656 C1655 1.400 . S
C1656 C1659 1.386 . S
H1657 C1673 0.930 . S
H1658 C1674 0.931 . S
C1659 H1647 0.929 . S
C1659 C1653 1.390 . S
C1659 C1656 1.386 . S
C1660 C1655 1.490 . S
C1660 C1662 1.395 . S
C1660 C1663 1.403 . S
H1661 C1667 0.930 . S
C1662 H1648 0.930 . S
C1662 C1660 1.395 . S
C1662 C1665 1.403 . S
C1663 C1660 1.403 . S
C1663 C1664 1.524 . S
C1663 C1667 1.400 . S
C1664 H1649 0.960 . S
C1664 H1650 0.960 . S
C1664 H1651 0.960 . S
C1664 C1663 1.524 . S
C1665 C1662 1.403 . S
C1665 C1666 1.392 . S
C1665 C1669 1.495 . S
C1666 C1665 1.392 . S
C1666 C1667 1.385 . S
C1666 C1668 1.478 . S
C1667 H1661 0.930 . S
C1667 C1663 1.400 . S
C1667 C1666 1.385 . S
C1668 C1666 1.478 . S
C1668 C1670 1.381 . S
C1668 C1674 1.383 . S
C1669 C1665 1.495 . S
C1669 H1675 0.959 . S
C1669 H1676 0.961 . S
C1669 H1677 0.960 . S
C1670 C1668 1.381 . S
C1670 C1671 1.394 . S
C1670 H1678 0.930 . S
C1671 C1670 1.394 . S
C1671 C1672 1.383 . S
C1671 H1679 0.929 . S
C1672 C1671 1.383 . S
C1672 C1673 1.377 . S
C1673 H1657 0.930 . S
C1673 C1672 1.377 . S
C1673 C1674 1.379 . S
C1674 H1658 0.931 . S
C1674 C1668 1.383 . S
C1674 C1673 1.379 . S
H1675 C1669 0.959 . S
H1676 C1669 0.961 . S
H1677 C1669 0.960 . S
H1678 C1670 0.930 . S
H1679 C1671 0.929 . S
H1680 C1688 0.929 . S
H1681 C1690 0.930 . S
H1682 C1692 0.930 . S
H1683 C1695 0.929 . S
H1684 C1698 0.930 . S
H1685 C1700 0.960 . S
H1686 C1700 0.960 . S
H1687 C1700 0.960 . S
C1688 H1680 0.929 . S
C1688 C1689 1.377 . S
C1688 C1690 1.384 . S
C1689 C1688 1.377 . S
C1689 C1695 1.390 . S
C1690 H1681 0.930 . S
C1690 C1688 1.384 . S
C1690 C1691 1.372 . S
C1691 C1690 1.372 . S
C1691 C1692 1.400 . S
C1691 C1696 1.490 . S
C1692 H1682 0.930 . S
C1692 C1691 1.400 . S
C1692 C1695 1.386 . S
H1693 C1709 0.930 . S
H1694 C1710 0.931 . S
C1695 H1683 0.929 . S
C1695 C1689 1.390 . S
C1695 C1692 1.386 . S
C1696 C1691 1.490 . S
C1696 C1698 1.395 . S
C1696 C1699 1.403 . S
H1697 C1703 0.930 . S
C1698 H1684 0.930 . S
C1698 C1696 1.395 . S
C1698 C1701 1.403 . S
C1699 C1696 1.403 . S
C1699 C1700 1.524 . S
C1699 C1703 1.400 . S
C1700 H1685 0.960 . S
C1700 H1686 0.960 . S
C1700 H1687 0.960 . S
C1700 C1699 1.524 . S
C1701 C1698 1.403 . S
C1701 C1702 1.392 . S
C1701 C1705 1.495 . S
C1702 C1701 1.392 . S
C1702 C1703 1.385 . S
C1702 C1704 1.478 . S
C1703 H1697 0.930 . S
C1703 C1699 1.400 . S
C1703 C1702 1.385 . S
C1704 C1702 1.478 . S
C1704 C1706 1.381 . S
C1704 C1710 1.383 . S
C1705 C1701 1.495 . S
C1705 H1711 0.959 . S
C1705 H1712 0.961 . S
C1705 H1713 0.960 . S
C1706 C1704 1.381 . S
C1706 C1707 1.394 . S
C1706 H1714 0.930 . S
C1707 C1706 1.394 . S
C1707 C1708 1.383 . S
C1707 H1715 0.929 . S
C1708 C1707 1.383 . S
C1708 C1709 1.377 . S
C1709 H1693 0.930 . S
C1709 C1708 1.377 . S
C1709 C1710 1.379 . S
C1710 H1694 0.931 . S
C1710 C1704 1.383 . S
C1710 C1709 1.379 . S
H1711 C1705 0.959 . S
H1712 C1705 0.961 . S
H1713 C1705 0.960 . S
H1714 C1706 0.930 . S
H1715 C1707 0.929 . S
H1716 C1724 0.929 . S
H1717 C1726 0.930 . S
H1718 C1728 0.930 . S
H1719 C1731 0.941 . S
H1720 C1734 0.930 . S
H1721 C1736 0.960 . S
H1722 C1736 0.960 . S
H1723 C1736 0.960 . S
C1724 H1716 0.929 . S
C1724 C1725 1.377 . S
C1724 C1726 1.384 . S
C1725 C1724 1.377 . S
C1725 C1731 1.389 1_565 S
C1726 H1717 0.930 . S
C1726 C1724 1.384 . S
C1726 C1727 1.372 . S
C1727 C1726 1.372 . S
C1727 C1728 1.400 . S
C1727 C1732 1.490 . S
C1728 H1718 0.930 . S
C1728 C1727 1.400 . S
C1728 C1731 1.375 1_565 S
H1729 C1745 0.930 . S
H1730 C1746 0.931 . S
C1731 H1719 0.941 . S
C1731 C1725 1.389 1_545 S
C1731 C1728 1.375 1_545 S
C1732 C1727 1.490 . S
C1732 C1734 1.395 . S
C1732 C1735 1.403 . S
H1733 C1739 0.930 . S
C1734 H1720 0.930 . S
C1734 C1732 1.395 . S
C1734 C1737 1.403 . S
C1735 C1732 1.403 . S
C1735 C1736 1.524 . S
C1735 C1739 1.400 . S
C1736 H1721 0.960 . S
C1736 H1722 0.960 . S
C1736 H1723 0.960 . S
C1736 C1735 1.524 . S
C1737 C1734 1.403 . S
C1737 C1738 1.392 . S
C1737 C1741 1.495 . S
C1738 C1737 1.392 . S
C1738 C1739 1.385 . S
C1738 C1740 1.478 . S
C1739 H1733 0.930 . S
C1739 C1735 1.400 . S
C1739 C1738 1.385 . S
C1740 C1738 1.478 . S
C1740 C1742 1.381 . S
C1740 C1746 1.383 . S
C1741 C1737 1.495 . S
C1741 H1747 0.959 . S
C1741 H1748 0.961 . S
C1741 H1749 0.960 . S
C1742 C1740 1.381 . S
C1742 C1743 1.394 . S
C1742 H1750 0.930 . S
C1743 C1742 1.394 . S
C1743 C1744 1.383 . S
C1743 H1751 0.929 . S
C1744 C1743 1.383 . S
C1744 C1745 1.377 . S
C1745 H1729 0.930 . S
C1745 C1744 1.377 . S
C1745 C1746 1.379 . S
C1746 H1730 0.931 . S
C1746 C1740 1.383 . S
C1746 C1745 1.379 . S
H1747 C1741 0.959 . S
H1748 C1741 0.961 . S
H1749 C1741 0.960 . S
H1750 C1742 0.930 . S
H1751 C1743 0.929 . S
H1752 C1760 0.929 . S
H1753 C1762 0.930 . S
H1754 C1764 0.930 . S
H1755 C1767 0.929 . S
H1756 C1770 0.930 . S
H1757 C1772 0.960 . S
H1758 C1772 0.960 . S
H1759 C1772 0.960 . S
C1760 H1752 0.929 . S
C1760 C1761 1.377 . S
C1760 C1762 1.384 . S
C1761 C1760 1.377 . S
C1761 C1767 1.390 . S
C1762 H1753 0.930 . S
C1762 C1760 1.384 . S
C1762 C1763 1.372 . S
C1763 C1762 1.372 . S
C1763 C1764 1.400 . S
C1763 C1768 1.490 . S
C1764 H1754 0.930 . S
C1764 C1763 1.400 . S
C1764 C1767 1.386 . S
H1765 C1781 0.930 . S
H1766 C1782 0.931 . S
C1767 H1755 0.929 . S
C1767 C1761 1.390 . S
C1767 C1764 1.386 . S
C1768 C1763 1.490 . S
C1768 C1770 1.395 . S
C1768 C1771 1.403 . S
H1769 C1775 0.930 . S
C1770 H1756 0.930 . S
C1770 C1768 1.395 . S
C1770 C1773 1.403 . S
C1771 C1768 1.403 . S
C1771 C1772 1.524 . S
C1771 C1775 1.400 . S
C1772 H1757 0.960 . S
C1772 H1758 0.960 . S
C1772 H1759 0.960 . S
C1772 C1771 1.524 . S
C1773 C1770 1.403 . S
C1773 C1774 1.392 . S
C1773 C1777 1.495 . S
C1774 C1773 1.392 . S
C1774 C1775 1.385 . S
C1774 C1776 1.478 . S
C1775 H1769 0.930 . S
C1775 C1771 1.400 . S
C1775 C1774 1.385 . S
C1776 C1774 1.478 . S
C1776 C1778 1.381 . S
C1776 C1782 1.383 . S
C1777 C1773 1.495 . S
C1777 H1783 0.959 . S
C1777 H1784 0.961 . S
C1777 H1785 0.960 . S
C1778 C1776 1.381 . S
C1778 C1779 1.394 . S
C1778 H1786 0.930 . S
C1779 C1778 1.394 . S
C1779 C1780 1.383 . S
C1779 H1787 0.929 . S
C1780 C1779 1.383 . S
C1780 C1781 1.377 . S
C1781 H1765 0.930 . S
C1781 C1780 1.377 . S
C1781 C1782 1.379 . S
C1782 H1766 0.931 . S
C1782 C1776 1.383 . S
C1782 C1781 1.379 . S
H1783 C1777 0.959 . S
H1784 C1777 0.961 . S
H1785 C1777 0.960 . S
H1786 C1778 0.930 . S
H1787 C1779 0.929 . S
H1788 C1796 0.945 . S
H1789 C1798 0.930 . S
H1790 C1800 0.930 . S
H1791 C1803 0.929 . S
H1792 C1806 0.930 . S
H1793 C1808 0.960 . S
H1794 C1808 0.960 . S
H1795 C1808 0.960 . S
C1796 H1788 0.945 . S
C1796 C1797 1.377 . S
C1796 C1798 1.384 . S
C1797 C1796 1.377 . S
C1797 C1803 1.390 . S
C1798 H1789 0.930 . S
C1798 C1796 1.384 . S
C1798 C1799 1.372 . S
C1799 C1798 1.372 . S
C1799 C1800 1.400 . S
C1799 C1804 1.490 . S
C1800 H1790 0.930 . S
C1800 C1799 1.400 . S
C1800 C1803 1.386 . S
H1801 C1817 0.930 . S
H1802 C1818 0.931 . S
C1803 H1791 0.929 . S
C1803 C1797 1.390 . S
C1803 C1800 1.386 . S
C1804 C1799 1.490 . S
C1804 C1806 1.395 . S
C1804 C1807 1.403 . S
H1805 C1811 0.930 . S
C1806 H1792 0.930 . S
C1806 C1804 1.395 . S
C1806 C1809 1.403 . S
C1807 C1804 1.403 . S
C1807 C1808 1.524 . S
C1807 C1811 1.400 . S
C1808 H1793 0.960 . S
C1808 H1794 0.960 . S
C1808 H1795 0.960 . S
C1808 C1807 1.524 . S
C1809 C1806 1.403 . S
C1809 C1810 1.392 . S
C1809 C1813 1.495 . S
C1810 C1809 1.392 . S
C1810 C1811 1.385 . S
C1810 C1812 1.478 . S
C1811 H1805 0.930 . S
C1811 C1807 1.400 . S
C1811 C1810 1.385 . S
C1812 C1810 1.478 . S
C1812 C1814 1.381 . S
C1812 C1818 1.383 . S
C1813 C1809 1.495 . S
C1813 H1819 0.959 . S
C1813 H1820 0.961 . S
C1813 H1821 0.960 . S
C1814 C1812 1.381 . S
C1814 C1815 1.394 . S
C1814 H1822 0.930 . S
C1815 C1814 1.394 . S
C1815 C1816 1.383 . S
C1815 H1823 0.929 . S
C1816 C1815 1.383 . S
C1816 C1817 1.377 . S
C1817 H1801 0.930 . S
C1817 C1816 1.377 . S
C1817 C1818 1.379 . S
C1818 H1802 0.931 . S
C1818 C1812 1.383 . S
C1818 C1817 1.379 . S
H1819 C1813 0.959 . S
H1820 C1813 0.961 . S
H1821 C1813 0.960 . S
H1822 C1814 0.930 . S
H1823 C1815 0.929 . S
H1824 C1832 0.929 . S
H1825 C1834 0.930 . S
H1826 C1836 0.930 . S
H1827 C1839 0.929 . S
H1828 C1842 0.930 . S
H1829 C1844 0.960 . S
H1830 C1844 0.960 . S
H1831 C1844 0.960 . S
C1832 H1824 0.929 . S
C1832 C1833 1.377 . S
C1832 C1834 1.384 . S
C1833 C1832 1.377 . S
C1833 C1839 1.390 . S
C1834 H1825 0.930 . S
C1834 C1832 1.384 . S
C1834 C1835 1.372 . S
C1835 C1834 1.372 . S
C1835 C1836 1.400 . S
C1835 C1840 1.490 . S
C1836 H1826 0.930 . S
C1836 C1835 1.400 . S
C1836 C1839 1.386 . S
H1837 C1853 0.930 . S
H1838 C1854 0.931 . S
C1839 H1827 0.929 . S
C1839 C1833 1.390 . S
C1839 C1836 1.386 . S
C1840 C1835 1.490 . S
C1840 C1842 1.395 . S
C1840 C1843 1.403 . S
H1841 C1847 0.930 . S
C1842 H1828 0.930 . S
C1842 C1840 1.395 . S
C1842 C1845 1.403 . S
C1843 C1840 1.403 . S
C1843 C1844 1.524 . S
C1843 C1847 1.400 . S
C1844 H1829 0.960 . S
C1844 H1830 0.960 . S
C1844 H1831 0.960 . S
C1844 C1843 1.524 . S
C1845 C1842 1.403 . S
C1845 C1846 1.392 . S
C1845 C1849 1.495 . S
C1846 C1845 1.392 . S
C1846 C1847 1.385 . S
C1846 C1848 1.478 . S
C1847 H1841 0.930 . S
C1847 C1843 1.400 . S
C1847 C1846 1.385 . S
C1848 C1846 1.478 . S
C1848 C1850 1.381 . S
C1848 C1854 1.383 . S
C1849 C1845 1.495 . S
C1849 H1855 0.959 . S
C1849 H1856 0.961 . S
C1849 H1857 0.960 . S
C1850 C1848 1.381 . S
C1850 C1851 1.394 . S
C1850 H1858 0.930 . S
C1851 C1850 1.394 . S
C1851 C1852 1.383 . S
C1851 H1859 0.929 . S
C1852 C1851 1.383 . S
C1852 C1853 1.377 . S
C1853 H1837 0.930 . S
C1853 C1852 1.377 . S
C1853 C1854 1.379 . S
C1854 H1838 0.931 . S
C1854 C1848 1.383 . S
C1854 C1853 1.379 . S
H1855 C1849 0.959 . S
H1856 C1849 0.961 . S
H1857 C1849 0.960 . S
H1858 C1850 0.930 . S
H1859 C1851 0.929 . S
H1860 C1868 0.929 . S
H1861 C1870 0.930 . S
H1862 C1872 0.930 . S
H1863 C1875 0.929 . S
H1864 C1878 0.930 . S
H1865 C1880 0.960 . S
H1866 C1880 0.960 . S
H1867 C1880 0.960 . S
C1868 H1860 0.929 . S
C1868 C1869 1.377 . S
C1868 C1870 1.384 . S
C1869 C1868 1.377 . S
C1869 C1875 1.390 . S
C1870 H1861 0.930 . S
C1870 C1868 1.384 . S
C1870 C1871 1.372 . S
C1871 C1870 1.372 . S
C1871 C1872 1.400 . S
C1871 C1876 1.490 . S
C1872 H1862 0.930 . S
C1872 C1871 1.400 . S
C1872 C1875 1.386 . S
H1873 C1889 0.930 1_565 S
H1874 C1890 0.931 . S
C1875 H1863 0.929 . S
C1875 C1869 1.390 . S
C1875 C1872 1.386 . S
C1876 C1871 1.490 . S
C1876 C1878 1.395 . S
C1876 C1879 1.403 . S
H1877 C1883 0.930 . S
C1878 H1864 0.930 . S
C1878 C1876 1.395 . S
C1878 C1881 1.403 . S
C1879 C1876 1.403 . S
C1879 C1880 1.524 . S
C1879 C1883 1.400 . S
C1880 H1865 0.960 . S
C1880 H1866 0.960 . S
C1880 H1867 0.960 . S
C1880 C1879 1.524 . S
C1881 C1878 1.403 . S
C1881 C1882 1.392 . S
C1881 C1885 1.495 . S
C1882 C1881 1.392 . S
C1882 C1883 1.385 . S
C1882 C1884 1.478 . S
C1883 H1877 0.930 . S
C1883 C1879 1.400 . S
C1883 C1882 1.385 . S
C1884 C1882 1.478 . S
C1884 C1886 1.381 . S
C1884 C1890 1.383 . S
C1885 C1881 1.495 . S
C1885 H1891 0.959 . S
C1885 H1892 0.961 . S
C1885 H1893 0.960 . S
C1886 C1884 1.381 . S
C1886 C1887 1.394 . S
C1886 H1894 0.930 . S
C1887 C1886 1.394 . S
C1887 C1888 1.383 . S
C1887 H1895 0.929 . S
C1888 C1887 1.383 . S
C1888 C1889 1.377 . S
C1889 H1873 0.930 1_545 S
C1889 C1888 1.377 . S
C1889 C1890 1.379 . S
C1890 H1874 0.931 . S
C1890 C1884 1.383 . S
C1890 C1889 1.379 . S
H1891 C1885 0.959 . S
H1892 C1885 0.961 . S
H1893 C1885 0.960 . S
H1894 C1886 0.930 . S
H1895 C1887 0.929 . S
H1896 C1904 0.929 . S
H1897 C1906 0.930 . S
H1898 C1908 0.930 . S
H1899 C1911 0.929 . S
H1900 C1914 0.930 . S
H1901 C1916 0.960 . S
H1902 C1916 0.960 . S
H1903 C1916 0.960 . S
C1904 H1896 0.929 . S
C1904 C1905 1.377 . S
C1904 C1906 1.384 . S
C1905 C1904 1.377 . S
C1905 C1911 1.390 . S
C1906 H1897 0.930 . S
C1906 C1904 1.384 . S
C1906 C1907 1.372 . S
C1907 C1906 1.372 . S
C1907 C1908 1.400 . S
C1907 C1912 1.490 . S
C1908 H1898 0.930 . S
C1908 C1907 1.400 . S
C1908 C1911 1.386 . S
H1909 C1925 0.930 . S
H1910 C1926 0.931 . S
C1911 H1899 0.929 . S
C1911 C1905 1.390 . S
C1911 C1908 1.386 . S
C1912 C1907 1.490 . S
C1912 C1914 1.395 . S
C1912 C1915 1.403 . S
H1913 C1919 0.930 . S
C1914 H1900 0.930 . S
C1914 C1912 1.395 . S
C1914 C1917 1.403 . S
C1915 C1912 1.403 . S
C1915 C1916 1.524 . S
C1915 C1919 1.400 . S
C1916 H1901 0.960 . S
C1916 H1902 0.960 . S
C1916 H1903 0.960 . S
C1916 C1915 1.524 . S
C1917 C1914 1.403 . S
C1917 C1918 1.392 . S
C1917 C1921 1.495 . S
C1918 C1917 1.392 . S
C1918 C1919 1.385 . S
C1918 C1920 1.478 . S
C1919 H1913 0.930 . S
C1919 C1915 1.400 . S
C1919 C1918 1.385 . S
C1920 C1918 1.478 . S
C1920 C1922 1.381 . S
C1920 C1926 1.383 . S
C1921 C1917 1.495 . S
C1921 H1927 0.959 . S
C1921 H1928 0.961 . S
C1921 H1929 0.960 . S
C1922 C1920 1.381 . S
C1922 C1923 1.394 . S
C1922 H1930 0.930 . S
C1923 C1922 1.394 . S
C1923 C1924 1.383 . S
C1923 H1931 0.926 . S
C1924 C1923 1.383 . S
C1924 C1925 1.377 . S
C1925 H1909 0.930 . S
C1925 C1924 1.377 . S
C1925 C1926 1.379 . S
C1926 H1910 0.931 . S
C1926 C1920 1.383 . S
C1926 C1925 1.379 . S
H1927 C1921 0.959 . S
H1928 C1921 0.961 . S
H1929 C1921 0.960 . S
H1930 C1922 0.930 . S
H1931 C1923 0.926 . S
H1932 C1940 0.929 . S
H1933 C1942 0.930 . S
H1934 C1944 0.930 . S
H1935 C1947 0.929 1_545 S
H1936 C1950 0.930 . S
H1937 C1952 0.960 . S
H1938 C1952 0.960 . S
H1939 C1952 0.960 . S
C1940 H1932 0.929 . S
C1940 C1941 1.411 . S
C1940 C1942 1.384 . S
C1941 C1940 1.411 . S
C1941 C1947 1.402 . S
C1942 H1933 0.930 . S
C1942 C1940 1.384 . S
C1942 C1943 1.372 . S
C1943 C1942 1.372 . S
C1943 C1944 1.400 . S
C1943 C1948 1.490 . S
C1944 H1934 0.930 . S
C1944 C1943 1.400 . S
C1944 C1947 1.386 . S
H1945 C1961 0.930 . S
H1946 C1962 0.931 . S
C1947 H1935 0.929 1_565 S
C1947 C1941 1.402 . S
C1947 C1944 1.386 . S
C1948 C1943 1.490 . S
C1948 C1950 1.395 . S
C1948 C1951 1.403 . S
H1949 C1955 0.930 . S
C1950 H1936 0.930 . S
C1950 C1948 1.395 . S
C1950 C1953 1.403 . S
C1951 C1948 1.403 . S
C1951 C1952 1.524 . S
C1951 C1955 1.400 . S
C1952 H1937 0.960 . S
C1952 H1938 0.960 . S
C1952 H1939 0.960 . S
C1952 C1951 1.524 . S
C1953 C1950 1.403 . S
C1953 C1954 1.392 . S
C1953 C1957 1.495 . S
C1954 C1953 1.392 . S
C1954 C1955 1.385 . S
C1954 C1956 1.478 . S
C1955 H1949 0.930 . S
C1955 C1951 1.400 . S
C1955 C1954 1.385 . S
C1956 C1954 1.478 . S
C1956 C1958 1.381 . S
C1956 C1962 1.383 . S
C1957 C1953 1.495 . S
C1957 H1963 0.959 . S
C1957 H1964 0.961 . S
C1957 H1965 0.960 . S
C1958 C1956 1.381 . S
C1958 C1959 1.394 . S
C1958 H1966 0.930 . S
C1959 C1958 1.394 . S
C1959 C1960 1.383 . S
C1959 H1967 0.929 . S
C1960 C1959 1.383 . S
C1960 C1961 1.377 . S
C1961 H1945 0.930 . S
C1961 C1960 1.377 . S
C1961 C1962 1.379 . S
C1962 H1946 0.931 . S
C1962 C1956 1.383 . S
C1962 C1961 1.379 . S
H1963 C1957 0.959 . S
H1964 C1957 0.961 . S
H1965 C1957 0.960 . S
H1966 C1958 0.930 . S
H1967 C1959 0.929 . S
C537 C513 1.409 . S
C556 N13 1.401 . S
C573 N46 1.373 . S
C592 C150 1.411 . S
C609 N79 1.371 . S
C628 C447 1.421 . S
C645 N112 1.374 . S
C664 C216 1.405 . S
C681 N145 1.376 . S
C700 C381 1.425 . S
C717 C18 1.414 . S
C736 N178 1.366 . S
C753 C315 1.411 . S
C772 N211 1.346 . S
C789 N244 1.375 . S
C808 C84 1.392 . S
C825 N277 1.383 . S
C844 C249 1.396 . S
C861 N310 1.377 . S
C880 C414 1.396 . S
C897 C183 1.409 . S
C916 N343 1.402 . S
C933 N376 1.383 . S
C952 C480 1.392 . S
C969 N409 1.379 . S
C988 C117 1.424 . S
C1005 N442 1.372 . S
C1024 C282 1.400 . S
C1041 C51 1.414 . S
C1060 N475 1.385 . S
C1077 N508 1.382 . S
C1096 C348 1.399 . S
C1113 N2 1.665 . S
C1132 N398 1.654 . S
C1149 N167 1.672 . S
C1168 N35 1.657 . S
C1185 N68 1.666 . S
C1204 N464 1.671 . S
C1221 N101 1.669 . S
C1240 N233 1.646 . S
C1257 N266 1.669 . S
C1276 N134 1.684 . S
C1293 N332 1.665 . S
C1312 N200 1.667 . S
C1329 N431 1.671 . S
C1348 N299 1.654 . S
C1365 N365 1.673 . S
C1384 N497 1.673 . S
C1401 C304 1.220 . S
C1420 C21 1.230 . S
C1437 C54 1.233 . S
C1456 C337 1.208 . S
C1473 C87 1.232 . S
C1492 C370 1.217 . S
C1509 C271 1.222 . S
C1528 C120 1.228 . S
C1545 C153 1.232 . S
C1564 C436 1.198 . S
C1581 C186 1.232 . S
C1600 C469 1.227 . S
C1617 C219 1.232 . S
C1636 C502 1.196 . S
C1653 C252 1.231 . S
C1672 C403 1.218 . S
C1689 C40 1.216 . S
C1708 C285 1.232 . S
C1725 C318 1.232 1_565 S
C1744 C73 1.223 . S
C1761 C351 1.232 . S
C1780 C106 1.235 . S
C1797 C384 1.233 1_545 S
C1816 C7 1.197 . S
C1833 C417 1.233 . S
C1852 C172 1.217 . S
C1869 C205 1.219 . S
C1888 C450 1.232 1_545 S
C1905 C238 1.217 . S
C1924 C483 1.233 . S
C1941 C516 1.189 1_565 S
C1960 C139 1.235 . S
