# Generated by pormake.
# Topology whw, (6)-cn, num edge types: 1
# Building blocks:
#     Node 0, Type 0, BuildingBlock: PAMTOO_clean_sbu_0, # of connection points: 6
#     Node 1, Type 0, BuildingBlock: PAMTOO_clean_sbu_0, # of connection points: 6
#     Node 2, Type 0, BuildingBlock: PAMTOO_clean_sbu_0, # of connection points: 6
#     Node 3, Type 0, BuildingBlock: PAMTOO_clean_sbu_0, # of connection points: 6
#     Node 4, Type 0, BuildingBlock: PAMTOO_clean_sbu_0, # of connection points: 6
#     Node 5, Type 0, BuildingBlock: PAMTOO_clean_sbu_0, # of connection points: 6
#     Node 6, Type 0, BuildingBlock: PAMTOO_clean_sbu_0, # of connection points: 6
#     Node 7, Type 0, BuildingBlock: PAMTOO_clean_sbu_0, # of connection points: 6
#     Node 8, Type 0, BuildingBlock: PAMTOO_clean_sbu_0, # of connection points: 6
#     Node 9, Type 0, BuildingBlock: PAMTOO_clean_sbu_0, # of connection points: 6
#     Node 10, Type 0, BuildingBlock: PAMTOO_clean_sbu_0, # of connection points: 6
#     Node 11, Type 0, BuildingBlock: PAMTOO_clean_sbu_0, # of connection points: 6
#     Node 12, Type 0, BuildingBlock: PAMTOO_clean_sbu_0, # of connection points: 6
#     Node 13, Type 0, BuildingBlock: PAMTOO_clean_sbu_0, # of connection points: 6
#     Node 14, Type 0, BuildingBlock: PAMTOO_clean_sbu_0, # of connection points: 6
#     Node 15, Type 0, BuildingBlock: PAMTOO_clean_sbu_0, # of connection points: 6
#     Edge 16, Type (0, 0), BuildingBlock: CIFDUS_clean_linker_0, # of connection points: 2
#     Edge 17, Type (0, 0), BuildingBlock: CIFDUS_clean_linker_0, # of connection points: 2
#     Edge 18, Type (0, 0), BuildingBlock: CIFDUS_clean_linker_0, # of connection points: 2
#     Edge 19, Type (0, 0), BuildingBlock: CIFDUS_clean_linker_0, # of connection points: 2
#     Edge 20, Type (0, 0), BuildingBlock: CIFDUS_clean_linker_0, # of connection points: 2
#     Edge 21, Type (0, 0), BuildingBlock: CIFDUS_clean_linker_0, # of connection points: 2
#     Edge 22, Type (0, 0), BuildingBlock: CIFDUS_clean_linker_0, # of connection points: 2
#     Edge 23, Type (0, 0), BuildingBlock: CIFDUS_clean_linker_0, # of connection points: 2
#     Edge 24, Type (0, 0), BuildingBlock: CIFDUS_clean_linker_0, # of connection points: 2
#     Edge 25, Type (0, 0), BuildingBlock: CIFDUS_clean_linker_0, # of connection points: 2
#     Edge 26, Type (0, 0), BuildingBlock: CIFDUS_clean_linker_0, # of connection points: 2
#     Edge 27, Type (0, 0), BuildingBlock: CIFDUS_clean_linker_0, # of connection points: 2
#     Edge 28, Type (0, 0), BuildingBlock: CIFDUS_clean_linker_0, # of connection points: 2
#     Edge 29, Type (0, 0), BuildingBlock: CIFDUS_clean_linker_0, # of connection points: 2
#     Edge 30, Type (0, 0), BuildingBlock: CIFDUS_clean_linker_0, # of connection points: 2
#     Edge 31, Type (0, 0), BuildingBlock: CIFDUS_clean_linker_0, # of connection points: 2
#     Edge 32, Type (0, 0), BuildingBlock: CIFDUS_clean_linker_0, # of connection points: 2
#     Edge 33, Type (0, 0), BuildingBlock: CIFDUS_clean_linker_0, # of connection points: 2
#     Edge 34, Type (0, 0), BuildingBlock: CIFDUS_clean_linker_0, # of connection points: 2
#     Edge 35, Type (0, 0), BuildingBlock: CIFDUS_clean_linker_0, # of connection points: 2
#     Edge 36, Type (0, 0), BuildingBlock: CIFDUS_clean_linker_0, # of connection points: 2
#     Edge 37, Type (0, 0), BuildingBlock: CIFDUS_clean_linker_0, # of connection points: 2
#     Edge 38, Type (0, 0), BuildingBlock: CIFDUS_clean_linker_0, # of connection points: 2
#     Edge 39, Type (0, 0), BuildingBlock: CIFDUS_clean_linker_0, # of connection points: 2
#     Edge 40, Type (0, 0), BuildingBlock: CIFDUS_clean_linker_0, # of connection points: 2
#     Edge 41, Type (0, 0), BuildingBlock: CIFDUS_clean_linker_0, # of connection points: 2
#     Edge 42, Type (0, 0), BuildingBlock: CIFDUS_clean_linker_0, # of connection points: 2
#     Edge 43, Type (0, 0), BuildingBlock: CIFDUS_clean_linker_0, # of connection points: 2
#     Edge 44, Type (0, 0), BuildingBlock: CIFDUS_clean_linker_0, # of connection points: 2
#     Edge 45, Type (0, 0), BuildingBlock: CIFDUS_clean_linker_0, # of connection points: 2
#     Edge 46, Type (0, 0), BuildingBlock: CIFDUS_clean_linker_0, # of connection points: 2
#     Edge 47, Type (0, 0), BuildingBlock: CIFDUS_clean_linker_0, # of connection points: 2
#     Edge 48, Type (0, 0), BuildingBlock: CIFDUS_clean_linker_0, # of connection points: 2
#     Edge 49, Type (0, 0), BuildingBlock: CIFDUS_clean_linker_0, # of connection points: 2
#     Edge 50, Type (0, 0), BuildingBlock: CIFDUS_clean_linker_0, # of connection points: 2
#     Edge 51, Type (0, 0), BuildingBlock: CIFDUS_clean_linker_0, # of connection points: 2
#     Edge 52, Type (0, 0), BuildingBlock: CIFDUS_clean_linker_0, # of connection points: 2
#     Edge 53, Type (0, 0), BuildingBlock: CIFDUS_clean_linker_0, # of connection points: 2
#     Edge 54, Type (0, 0), BuildingBlock: CIFDUS_clean_linker_0, # of connection points: 2
#     Edge 55, Type (0, 0), BuildingBlock: CIFDUS_clean_linker_0, # of connection points: 2
#     Edge 56, Type (0, 0), BuildingBlock: CIFDUS_clean_linker_0, # of connection points: 2
#     Edge 57, Type (0, 0), BuildingBlock: CIFDUS_clean_linker_0, # of connection points: 2
#     Edge 58, Type (0, 0), BuildingBlock: CIFDUS_clean_linker_0, # of connection points: 2
#     Edge 59, Type (0, 0), BuildingBlock: CIFDUS_clean_linker_0, # of connection points: 2
#     Edge 60, Type (0, 0), BuildingBlock: CIFDUS_clean_linker_0, # of connection points: 2
#     Edge 61, Type (0, 0), BuildingBlock: CIFDUS_clean_linker_0, # of connection points: 2
#     Edge 62, Type (0, 0), BuildingBlock: CIFDUS_clean_linker_0, # of connection points: 2
#     Edge 63, Type (0, 0), BuildingBlock: CIFDUS_clean_linker_0, # of connection points: 2
# Relax obj value: 1.010
# Max RMSD: 0.199
# Mean RMSD: 0.199
data_MOF--net-whw--node1-PAMTOO_clean_sbu_0--edge1-CIFDUS_clean_linker_0
_symmetry_space_group_name_H-M    P1
_symmetry_Int_Tables_number       1
_symmetry_cell_setting            triclinic
loop_
_symmetry_equiv_pos_as_xyz
'x, y, z'
_cell_length_a     42.256459
_cell_length_b     42.223127
_cell_length_c     25.287146
_cell_angle_alpha  89.67863
_cell_angle_beta   90.11702
_cell_angle_gamma 89.612713
loop_
_atom_site_label
_atom_site_type_symbol
_atom_site_fract_x
_atom_site_fract_y
_atom_site_fract_z
_atom_type_partial_charge
Dy0 Dy -0.00537 0.10667 0.3063 0.0
Dy1 Dy 0.05998 0.13574 0.26718 0.0
C2 C 0.00932 0.17715 0.32619 0.0
O3 O 0.98253 0.13087 0.22437 0.0
O4 O 0.02979 0.14994 0.19396 0.0
O5 O 0.94487 0.10302 0.28957 0.0
O6 O 0.96499 0.07735 0.35605 0.0
O7 O 0.06467 0.08358 0.2468 0.0
O8 O 0.01882 0.06217 0.27788 0.0
O9 O 0.06663 0.14076 0.35827 0.0
O10 O 0.02112 0.11753 0.38776 0.0
O11 O 0.10574 0.15332 0.29087 0.0
O12 O 0.09413 0.14987 0.20802 0.0
C13 C -0.00109 0.14583 0.18642 0.0
O14 O -0.00597 0.1528 0.34363 0.0
O15 O 0.02731 0.17573 0.28405 0.0
C16 C 0.91401 0.09997 0.36496 0.0
C17 C 0.8651 0.13273 0.41685 0.0
C18 C 0.89695 0.14038 0.42633 0.0
C19 C 0.92117 0.12422 0.40052 0.0
C20 C 0.88236 0.09173 0.35605 0.0
C21 C 0.858 0.1079 0.38211 0.0
C22 C 0.93908 0.08651 0.33201 0.0
C23 C 0.04597 0.05903 0.2534 0.0
C24 C 0.04836 0.1328 0.39889 0.0
C25 C 0.14436 0.13228 0.23431 0.0
C26 C 0.18583 0.0855 0.19546 0.0
C27 C 0.16662 0.07907 0.23948 0.0
C28 C 0.14583 0.1022 0.25843 0.0
C29 C 0.16628 0.14005 0.19516 0.0
C30 C 0.18699 0.11693 0.17604 0.0
C31 C 0.11667 0.15284 0.24285 0.0
H32 H 0.90322 0.15888 0.45389 0.0
H33 H 0.94546 0.13113 0.40745 0.0
H34 H 0.87648 0.0734 0.32795 0.0
H35 H 0.83367 0.10149 0.37424 0.0
H36 H 0.16536 0.05533 0.25578 0.0
H37 H 0.1291 0.0957 0.28898 0.0
H38 H 0.16549 0.1631 0.17612 0.0
H39 H 0.2012 0.12298 1.14191 0.0
Dy40 Dy 0.10868 0.7698 0.53743 0.0
Dy41 Dy 0.09253 0.84154 0.50077 0.0
C42 C 0.04381 0.80321 0.56404 0.0
O43 O 0.09233 0.76232 0.45178 0.0
O44 O 0.07081 0.81112 0.43271 0.0
O45 O 0.10124 0.72828 0.58578 0.0
O46 O 0.13329 0.72631 0.51904 0.0
O47 O 0.14098 0.82927 0.46745 0.0
O48 O 0.15656 0.791 0.52519 0.0
O49 O 0.09297 0.84458 0.594 0.0
O50 O 0.10851 0.79428 0.6186 0.0
O51 O 0.10934 0.8894 0.50497 0.0
O52 O 0.0677 0.87869 0.45803 0.0
C53 C 0.07585 0.78081 0.4193 0.0
O54 O 0.05672 0.77925 0.53885 0.0
O55 O 0.05263 0.83198 0.55397 0.0
C56 C 0.1461 0.69493 0.59272 0.0
C57 C 0.18575 0.65943 0.66032 0.0
C58 C 0.17762 0.691 0.6725 0.0
C59 C 0.15804 0.70861 0.63889 0.0
C60 C 0.15628 0.66461 0.57797 0.0
C61 C 0.17615 0.64701 0.61137 0.0
C62 C 0.1224 0.71161 0.56048 0.0
C63 C 0.16332 0.81076 0.48688 0.0
C64 C 0.09873 0.82315 0.63227 0.0
C65 C 0.10418 0.91592 0.42298 0.0
C66 C 0.13797 0.92626 0.32907 0.0
C67 C 0.15303 0.9299 0.37816 0.0
C68 C 0.13623 0.92481 0.42486 0.0
C69 C 0.08806 0.9178 0.37443 0.0
C70 C 0.10485 0.92305 0.32774 0.0
C71 C 0.08954 0.89963 0.46877 0.0
H72 H 0.18417 0.70137 0.70998 0.0
H73 H 0.15092 0.73231 0.65034 0.0
H74 H 0.14777 0.65402 0.54173 0.0
H75 H 0.18236 0.623 0.60044 0.0
H76 H 0.17845 0.93285 0.38025 0.0
H77 H 0.14917 0.9247 0.46188 0.0
H78 H 0.06316 0.91204 0.37183 0.0
H79 H 0.09248 0.92035 0.29048 0.0
Dy80 Dy 0.5301 0.83433 0.80622 0.0
Dy81 Dy 0.45992 0.8261 0.75734 0.0
C82 C 0.49531 0.77108 0.81554 0.0
O83 O 0.53926 0.81062 0.72583 0.0
O84 O 0.49069 0.81184 0.6849 0.0
O85 O 0.57842 0.81785 0.81196 0.0
O86 O 0.56435 0.86361 0.84691 0.0
O87 O 0.46652 0.87913 0.74824 0.0
O88 O 0.51952 0.88076 0.76519 0.0
O89 O 0.44992 0.81915 0.8471 0.0
O90 O 0.49834 0.83141 0.88268 0.0
O91 O 0.41057 0.81759 0.77428 0.0
O92 O 0.42638 0.8207 0.69341 0.0
C93 C 0.52163 0.80547 0.68314 0.0
O94 O 0.51539 0.78898 0.83995 0.0
O95 O 0.4842 0.77976 0.76931 0.0
C96 C 0.62001 0.84832 0.85351 0.0
C97 C 0.68247 0.85706 0.89009 0.0
C98 C 0.67013 0.82639 0.88326 0.0
C99 C 0.63936 0.82211 0.86485 0.0
C100 C 0.63259 0.87888 0.85713 0.0
C101 C 0.66367 0.88322 0.87466 0.0
C102 C 0.58718 0.84355 0.83623 0.0
C103 C 0.49341 0.8946 0.74821 0.0
C104 C 0.46814 0.82225 0.88966 0.0
C105 C 0.37847 0.84547 0.71396 0.0
C106 C 0.34704 0.89724 0.66701 0.0
C107 C 0.36686 0.90188 0.71096 0.0
C108 C 0.38274 0.87614 0.73397 0.0
C109 C 0.35514 0.84025 0.67586 0.0
C110 C 0.33924 0.86594 0.65285 0.0
C111 C 0.4021 0.82069 0.72507 0.0
H112 H 0.68332 0.80552 0.89542 0.0
H113 H 0.63028 0.79826 0.86159 0.0
H114 H 0.61827 0.89943 0.84702 0.0
H115 H 0.67245 0.90714 0.87831 0.0
H116 H 0.3731 0.9256 0.72313 0.0
H117 H 0.40052 0.88059 0.7639 0.0
H118 H 0.35141 0.81672 0.66025 0.0
H119 H 0.32412 0.86129 0.61919 0.0
Dy120 Dy 0.41397 0.24316 1.04663 0.0
Dy121 Dy 0.4175 0.17727 1.00059 0.0
C122 C 0.47734 0.19786 1.05782 0.0
O123 O 0.43627 0.25329 0.96481 0.0
O124 O 0.43891 0.20443 0.92698 0.0
O125 O 0.4233 0.28312 1.09697 0.0
O126 O 0.39321 0.28872 1.02798 0.0
O127 O 0.37584 0.20319 0.96522 0.0
O128 O 0.36339 0.22528 1.04126 0.0
O129 O 0.4245 0.16951 1.09446 0.0
O130 O 0.41576 0.21879 1.12781 0.0
O131 O 0.38973 0.13681 1.02055 0.0
O132 O 0.42012 0.13536 0.95109 0.0
C133 C 0.44344 0.23581 0.92291 0.0
O134 O 0.46309 0.22555 1.06483 0.0
O135 O 0.46666 0.17637 1.02575 0.0
C136 C 0.3809 0.31981 1.10167 0.0
C137 C 0.34186 0.35758 0.166 0.0
C138 C 0.34877 0.32592 0.18012 0.0
C139 C 0.36802 0.30719 1.14813 0.0
C140 C 0.3721 0.35036 1.08514 0.0
C141 C 0.35254 0.36908 1.11689 0.0
C142 C 0.40408 0.30179 1.07076 0.0
C143 C 0.35392 0.21482 0.99538 0.0
C144 C 0.42339 0.18872 1.13687 0.0
C145 C 0.36891 0.1118 0.94564 0.0
C146 C 0.31738 0.10038 0.87731 0.0
C147 C 0.31267 0.11658 0.92499 0.0
C148 C 0.33816 0.12238 0.95866 0.0
C149 C 0.37305 0.09302 0.90075 0.0
C150 C 0.34756 0.08734 0.86688 0.0
C151 C 0.39667 0.12204 0.9768 0.0
H152 H 0.3414 0.31622 0.21782 0.0
H153 H 0.37404 0.28337 0.161 0.0
H154 H 0.38134 0.36019 1.04868 0.0
H155 H 0.34729 0.39313 1.10442 0.0
H156 H 0.28977 0.12679 0.93434 0.0
H157 H 0.3339 0.13664 0.99343 0.0
H158 H 0.39636 0.08429 0.8902 0.0
H159 H 0.35229 0.0751 0.83019 0.0
Dy160 Dy 0.99003 0.88273 1.04767 0.0
Dy161 Dy 0.03021 0.82251 1.0547 0.0
C162 C 0.96765 0.829 0.97491 0.0
O163 O 0.97939 0.85555 1.12911 0.0
O164 O 0.99179 0.80483 1.10862 0.0
O165 O 0.94662 0.9069 1.06801 0.0
O166 O 0.98769 0.93393 1.04533 0.0
O167 O 0.04471 0.8595 1.11802 0.0
O168 O 0.03861 0.89922 1.06229 0.0
O169 O 0.046 0.83955 0.97331 0.0
O170 O 0.00944 0.87878 0.95995 0.0
O171 O 0.07276 0.80021 1.02709 0.0
O172 O 0.04525 0.77704 1.08731 0.0
C173 C 0.97819 0.82447 1.14163 0.0
O174 O 0.96111 0.85742 0.99065 0.0
O175 O 0.99109 0.81171 0.99566 0.0
C176 C 0.93752 0.9512 1.01404 0.0
C177 C 0.89696 0.96055 0.92741 0.0
C178 C 0.92983 0.96378 0.92126 0.0
C179 C 0.95001 0.95894 0.96423 0.0
C180 C 0.90467 0.95311 1.02181 0.0
C181 C 0.88445 0.95775 0.97866 0.0
C182 C 0.95724 0.93457 1.05364 0.0
C183 C 0.04981 0.88965 1.10706 0.0
C184 C 0.03247 0.85997 0.94066 0.0
C185 C 0.10159 0.77368 1.09214 0.0
C186 C 0.15445 0.79306 1.14972 0.0
C187 C 0.15674 0.78937 1.0949 0.0
C188 C 0.13053 0.77914 1.06625 0.0
C189 C 0.10106 0.77234 1.14759 0.0
C190 C 0.12757 0.78169 0.17629 0.0
C191 C 0.07202 0.77732 1.06165 0.0
H192 H 0.94026 0.96596 0.88231 0.0
H193 H 0.97526 0.95806 0.95705 0.0
H194 H 0.89455 0.94765 1.0601 0.0
H195 H 0.85916 0.95562 0.98452 0.0
H196 H 0.17727 0.79797 1.07379 0.0
H197 H 0.13169 0.77957 1.02344 0.0
H198 H 0.07932 0.76759 0.16873 0.0
H199 H 0.12533 0.78437 0.21873 0.0
Dy200 Dy 0.35442 0.70784 0.27632 0.0
Dy201 Dy 0.39737 0.76299 0.29994 0.0
C202 C 0.41761 0.69538 0.23366 0.0
O203 O 0.38092 0.68917 0.3542 0.0
O204 O 0.40665 0.73476 0.37536 0.0
O205 O 0.33193 0.66236 0.27765 0.0
O206 O 0.30615 0.70381 0.24863 0.0
O207 O 0.34656 0.77949 0.3185 0.0
O208 O 0.33552 0.73136 0.34783 0.0
O209 O 0.40677 0.76657 0.21351 0.0
O210 O 0.36531 0.7351 0.1928 0.0
O211 O 0.40939 0.81104 0.28077 0.0
O212 O 0.43352 0.78689 0.34529 0.0
C213 C 0.39921 0.70533 0.38834 0.0
O214 O 0.39098 0.68142 0.23949 0.0
O215 O 0.42405 0.72342 0.25593 0.0
C216 C 0.29679 0.65404 0.20811 0.0
C217 C 0.29124 0.61182 1.12303 0.0
C218 C 0.30079 0.64327 1.11428 0.0
C219 C 0.30376 0.66417 1.15654 0.0
C220 C 0.28501 0.62344 0.21642 0.0
C221 C 0.28235 0.6024 0.17421 0.0
C222 C 0.30644 0.67289 0.25395 0.0
C223 C 0.32889 0.7613 0.34841 0.0
C224 C 0.38894 0.7547 0.17666 0.0
C225 C 0.42026 0.84094 0.3548 0.0
C226 C 0.40047 0.89413 0.41297 0.0
C227 C 0.38385 0.86537 0.41617 0.0
C228 C 0.39362 0.83913 0.38739 0.0
C229 C 0.43682 0.86952 0.35061 0.0
C230 C 0.42712 0.89595 0.37986 0.0
C231 C 0.42825 0.81395 0.32124 0.0
H232 H 0.30831 0.65106 1.07543 0.0
H233 H 0.31332 0.68753 1.14928 0.0
H234 H 0.27973 0.61517 0.25607 0.0
H235 H 0.27492 0.57831 0.18197 0.0
H236 H 0.36386 0.86264 0.44251 0.0
H237 H 0.38033 0.81735 0.39057 0.0
H238 H 0.45713 0.87138 0.32472 0.0
H239 H 0.44057 0.91764 0.37705 0.0
Dy240 Dy 0.54325 0.10398 0.5396 0.0
Dy241 Dy 0.48309 0.13947 0.5683 0.0
C242 C 0.55069 0.17344 0.52933 0.0
O243 O 0.55983 0.12905 0.61844 0.0
O244 O 0.51453 0.15711 0.63741 0.0
O245 O 0.5897 0.08762 0.51523 0.0
O246 O 0.55144 0.05428 0.5268 0.0
O247 O 0.4744 0.08622 0.57964 0.0
O248 O 0.52304 0.08 0.61056 0.0
O249 O 0.47489 0.14461 0.47936 0.0
O250 O 0.51674 0.11366 0.45705 0.0
O251 O 0.44124 0.16655 0.54728 0.0
O252 O 0.44926 0.15212 0.62849 0.0
C253 C 0.5444 0.14984 0.6497 0.0
O254 O 0.56699 0.14775 0.52356 0.0
O255 O 0.52039 0.17388 0.54335 0.0
C256 C 0.5838 0.04695 0.45205 0.0
C257 C 0.58947 0.03682 0.34243 0.0
C258 C 0.61623 0.04429 0.37307 0.0
C259 C 0.6134 0.04931 0.42746 0.0
C260 C 0.55764 0.03677 0.42214 0.0
C261 C 0.56049 0.03171 0.36793 0.0
C262 C 0.57936 0.059 0.50629 0.0
C263 C 0.49439 0.06928 0.60809 0.0
C264 C 0.49183 0.13161 0.44163 0.0
C265 C 0.3972 0.14963 0.59572 0.0
C266 C 0.33673 0.12355 0.61291 0.0
C267 C 0.36407 0.10412 0.61247 0.0
C268 C 0.39384 0.11702 0.60388 0.0
C269 C 0.3701 0.16865 0.59015 0.0
C270 C 0.34003 0.15564 0.59798 0.0
C271 C 0.42898 0.16354 0.59417 0.0
H272 H 0.63886 0.04874 0.35448 0.0
H273 H 0.63389 0.05702 0.44963 0.0
H274 H 0.53443 0.03449 0.4398 0.0
H275 H 0.53956 0.02568 0.3454 0.0
H276 H 0.36326 0.07936 0.62355 0.0
H277 H 0.41444 0.1017 0.6068 0.0
H278 H 0.37224 0.19376 0.58204 0.0
H279 H 0.31965 0.17125 0.59585 0.0
Dy280 Dy 0.13235 0.2629 0.78794 0.0
Dy281 Dy 0.11279 0.19678 0.82775 0.0
C282 C 0.06342 0.24029 0.76496 0.0
O283 O 0.11195 0.27181 0.87403 0.0
O284 O 0.08981 0.22428 0.89568 0.0
O285 O 0.13589 0.31182 0.81037 0.0
O286 O 0.15997 0.29531 0.74027 0.0
O287 O 0.1598 0.2081 0.8676 0.0
O288 O 0.17832 0.23709 0.80063 0.0
O289 O 0.10821 0.18931 0.73626 0.0
O290 O 0.12218 0.23817 0.7055 0.0
O291 O 0.12282 0.14833 0.80802 0.0
O292 O 0.09458 0.15894 0.87717 0.0
C293 C 0.09459 0.25447 0.90763 0.0
O294 O 0.0847 0.26158 0.75413 0.0
O295 O 0.06746 0.21829 0.80143 0.0
C296 C 0.14611 0.34963 0.74489 0.0
C297 C 0.13202 0.40862 0.69827 0.0
C298 C 0.1117 0.3826 0.69118 0.0
C299 C 0.11866 0.35334 0.71445 0.0
C300 C 0.16613 0.37549 0.75299 0.0
C301 C 0.15919 0.40481 0.72979 0.0
C302 C 0.15371 0.31944 0.77051 0.0
C303 C 0.18394 0.22101 0.84375 0.0
C304 C 0.11206 0.20865 0.695 0.0
C305 C 0.1318 0.11682 0.88158 0.0
C306 C 0.178 0.07899 0.93236 0.0
C307 C 0.17794 0.11215 0.93795 0.0
C308 C 0.15505 0.13076 0.91308 0.0
C309 C 0.13201 0.08387 0.87454 0.0
C310 C 0.1548 0.06498 0.90025 0.0
C311 C 0.11016 0.13718 0.85111 0.0
H312 H 0.09097 0.3845 0.66609 0.0
H313 H 0.10288 0.33357 0.70827 0.0
H314 H 0.18724 0.37295 0.77709 0.0
H315 H 0.17521 0.42436 0.73599 0.0
H316 H 0.19471 0.12377 0.96372 0.0
H317 H 0.15545 0.15612 0.91877 0.0
H318 H 0.11457 0.07281 0.84933 0.0
H319 H 0.15396 0.0395 0.8959 0.0
Dy320 Dy 0.8778 0.24195 0.79682 0.0
Dy321 Dy 0.93676 0.27787 0.8112 0.0
C322 C 0.93111 0.21503 0.73106 0.0
O323 O 0.90118 0.22703 0.88111 0.0
O324 O 0.95212 0.23638 0.86129 0.0
O325 O 0.84933 0.1997 0.79976 0.0
O326 O 0.82684 0.24567 0.80274 0.0
O327 O 0.89577 0.29423 0.86616 0.0
O328 O 0.86209 0.29163 0.80125 0.0
O329 O 0.92378 0.30068 0.73238 0.0
O330 O 0.88885 0.26254 0.70963 0.0
O331 O 0.9739 0.30881 0.78316 0.0
O332 O 0.96882 0.29972 0.86664 0.0
C333 C 0.93201 0.22338 0.8943 0.0
O334 O 0.90158 0.21124 0.74182 0.0
O335 O 0.94872 0.23714 0.75451 0.0
C336 C 0.80053 0.2052 0.75551 0.0
C337 C 0.77357 0.18503 0.6598 0.0
C338 C 0.78398 0.16276 0.6978 0.0
C339 C 0.79723 0.1728 0.7453 0.0
C340 C 0.78596 0.22728 0.72128 0.0
C341 C 0.77226 0.2172 0.674 0.0
C342 C 0.82265 0.21533 0.79728 0.0
C343 C 0.86758 0.30218 0.8479 0.0
C344 C 0.90779 0.28675 0.69456 0.0
C345 C 0.97568 0.35238 0.84114 0.0
C346 C 0.94499 0.40451 0.88717 0.0
C347 C 0.97212 0.39109 0.91119 0.0
C348 C 0.98729 0.36507 0.88834 0.0
C349 C 0.95225 0.36924 0.81278 0.0
C350 C 0.93713 0.39529 0.83556 0.0
C351 C 0.98062 0.31842 0.83068 0.0
H352 H 0.78529 0.13776 0.68875 0.0
H353 H 0.80756 0.15527 0.77177 0.0
H354 H 0.78724 0.25246 0.72886 0.0
H355 H 0.76349 0.23488 0.64634 0.0
H356 H 0.97898 0.39763 0.95093 0.0
H357 H 0.00537 0.35254 0.9108 0.0
H358 H 0.94296 0.36021 0.77592 0.0
H359 H 0.91671 0.40553 0.81575 0.0
Dy360 Dy 0.62318 0.74008 0.27566 0.0
Dy361 Dy 0.60333 0.67254 0.31788 0.0
C362 C 0.55246 0.72882 0.30482 0.0
O363 O 0.6071 0.74925 0.36282 0.0
O364 O 0.59102 0.70044 0.39308 0.0
O365 O 0.62611 0.78083 0.2242 0.0
O366 O 0.65565 0.77758 0.29457 0.0
O367 O 0.6522 0.68225 0.34946 0.0
O368 O 0.66719 0.71031 0.27884 0.0
O369 O 0.59091 0.66811 0.22803 0.0
O370 O 0.60504 0.71708 0.19718 0.0
O371 O 0.61602 0.62368 0.30512 0.0
O372 O 0.58069 0.63581 0.36393 0.0
C373 C 0.59456 0.7313 0.40112 0.0
O374 O 0.57355 0.75001 0.29309 0.0
O375 O 0.55833 0.69816 0.30752 0.0
C376 C 0.67663 0.80474 0.22153 0.0
C377 C 0.72216 0.83313 1.15583 0.0
C378 C 0.71482 0.84636 0.20531 0.0
C379 C 0.69199 0.83238 0.23768 0.0
C380 C 0.68659 0.78939 0.17552 0.0
C381 C 0.70911 0.80345 1.1429 0.0
C382 C 0.6492 0.79335 0.25139 0.0
C383 C 0.6749 0.69471 0.32166 0.0
C384 C 0.59263 0.68851 0.18773 0.0
C385 C 0.61865 0.59681 0.38729 0.0
C386 C 0.6557 0.58252 0.47713 0.0
C387 C 0.67013 0.58675 0.42762 0.0
C388 C 0.6518 0.59398 0.38311 0.0
C389 C 0.60407 0.58812 0.43489 0.0
C390 C 0.6224 0.58108 0.47947 0.0
C391 C 0.60013 0.61403 0.34643 0.0
H392 H 0.72485 0.86878 0.2171 0.0
H393 H 0.68509 0.8441 0.27393 0.0
H394 H 0.67553 0.76758 0.16305 0.0
H395 H 0.71382 0.79236 1.10522 0.0
H396 H 0.69568 0.58735 0.42422 0.0
H397 H 0.66388 0.59992 0.34668 0.0
H398 H 0.57859 0.58966 0.439 0.0
H399 H 0.6103 0.57795 0.51682 0.0
Dy400 Dy 0.65187 0.25276 1.03198 0.0
Dy401 Dy 0.61545 0.3165 0.99659 0.0
C402 C 0.58331 0.26184 1.05714 0.0
O403 O 0.63281 0.24014 0.94655 0.0
O404 O 0.59849 0.28182 0.93117 0.0
O405 O 0.6833 0.21385 1.0127 0.0
O406 O 0.66184 0.21689 1.09043 0.0
O407 O 0.66499 0.3165 0.95897 0.0
O408 O 0.69198 0.28563 1.01708 0.0
O409 O 0.61571 0.32229 1.08837 0.0
O410 O 0.64115 0.27666 1.11443 0.0
O411 O 0.61665 0.3665 1.009 0.0
O412 O 0.58338 0.34728 0.95233 0.0
C413 C 0.61015 0.25363 0.9163 0.0
O414 O 0.60098 0.2459 1.02502 0.0
O415 O 0.58188 0.29247 1.0512 0.0
C416 C 0.67276 0.16616 1.05864 0.0
C417 C 0.65401 0.10433 1.08467 0.0
C418 C 0.63494 0.12348 1.05151 0.0
C419 C 0.64414 0.15439 1.039 0.0
C420 C 0.69343 0.14603 1.08616 0.0
C421 C 0.68421 0.11534 1.09905 0.0
C422 C 0.67929 0.20011 1.0585 0.0
C423 C 0.69221 0.30547 0.97746 0.0
C424 C 0.62579 0.30347 1.12751 0.0
C425 C 0.60698 0.39765 0.93362 0.0
C426 C 0.63688 0.4356 0.8571 0.0
C427 C 0.64625 0.4373 0.91013 0.0
C428 C 0.63116 0.41877 0.94822 0.0
C429 C 0.59531 0.3987 0.88168 0.0
C430 C 0.6101 0.41762 0.84375 0.0
C431 C 0.59645 0.37294 0.97131 0.0
H432 H 0.61184 0.11553 1.03881 0.0
H433 H 0.628 0.16972 1.01727 0.0
H434 H 0.71566 0.15484 1.10144 0.0
H435 H 0.69956 0.10162 1.12488 0.0
H436 H 0.66683 0.4509 0.92129 0.0
H437 H 0.64009 0.41929 0.9884 0.0
H438 H 0.57628 0.38329 0.86946 0.0
H439 H 0.6026 0.41556 0.80292 0.0
Dy440 Dy 0.89276 0.73216 0.53639 0.0
Dy441 Dy 0.91197 0.66161 0.49972 0.0
C442 C 0.95962 0.70393 0.55853 0.0
O443 O 0.91011 0.74481 0.45324 0.0
O444 O 0.92401 0.69454 0.42663 0.0
O445 O 0.903 0.78093 0.55481 0.0
O446 O 0.85499 0.76314 0.56103 0.0
O447 O 0.85881 0.6638 0.49379 0.0
O448 O 0.85397 0.71673 0.48144 0.0
O449 O 0.91634 0.65756 0.59098 0.0
O450 O 0.89579 0.70519 0.61806 0.0
O451 O 0.90439 0.61173 0.50945 0.0
O452 O 0.9356 0.62832 0.44763 0.0
C453 C 0.92169 0.72583 0.41637 0.0
O454 O 0.94476 0.72625 0.53228 0.0
O455 O 0.95305 0.67445 0.54929 0.0
C456 C 0.86812 0.80675 0.61354 0.0
C457 C 0.85637 0.84518 0.70166 0.0
C458 C 0.87133 0.81547 0.70789 0.0
C459 C 0.87712 0.79632 0.66405 0.0
C460 C 0.85288 0.83607 0.60719 0.0
C461 C 0.84703 0.85518 0.6509 0.0
C462 C 0.87365 0.78737 0.56682 0.0
C463 C 0.84251 0.68822 0.47643 0.0
C464 C 0.90861 0.67702 0.63036 0.0
C465 C 0.90272 0.58403 0.42905 0.0
C466 C 0.86472 0.55508 0.35161 0.0
C467 C 0.85452 0.55627 0.40428 0.0
C468 C 0.8734 0.57047 0.44274 0.0
C469 C 0.91405 0.58032 0.37743 0.0
C470 C 0.89518 0.56617 0.33906 0.0
C471 C 0.91998 0.60421 0.46693 0.0
H472 H 0.87928 0.80737 0.74645 0.0
H473 H 0.88879 0.7736 0.66946 0.0
H474 H 0.84556 0.84423 0.5683 0.0
H475 H 0.83528 0.87781 0.64498 0.0
H476 H 0.83116 0.54803 0.41499 0.0
H477 H 0.86415 0.57235 0.48252 0.0
H478 H 0.93663 0.59015 0.36584 0.0
H479 H 0.90338 0.56656 0.29857 0.0
Dy480 Dy 0.48147 0.58509 0.79384 0.0
Dy481 Dy 0.5147 0.6466 0.7702 0.0
C482 C 0.44506 0.64238 0.83197 0.0
O483 O 0.46722 0.60296 0.70577 0.0
O484 O 0.47799 0.65562 0.70783 0.0
O485 O 0.44194 0.55454 0.77711 0.0
O486 O 0.48296 0.53595 0.81831 0.0
O487 O 0.53564 0.60591 0.7195 0.0
O488 O 0.53077 0.56951 0.78203 0.0
O489 O 0.53441 0.63779 0.85322 0.0
O490 O 0.49729 0.60272 0.87945 0.0
O491 O 0.5384 0.68842 0.79952 0.0
O492 O 0.54082 0.67662 0.71672 0.0
C493 C 0.46505 0.63196 0.68253 0.0
O494 O 0.44807 0.61231 0.839 0.0
O495 O 0.46628 0.65941 0.80528 0.0
C496 C 0.43235 0.51893 0.84662 0.0
C497 C 0.38676 0.51066 0.92642 0.0
C498 C 0.4186 0.51606 0.93966 0.0
C499 C 0.44116 0.52031 0.90015 0.0
C500 C 0.40128 0.51038 0.83344 0.0
C501 C 0.3786 0.50637 0.87305 0.0
C502 C 0.45353 0.53116 0.80509 0.0
C503 C 0.54268 0.57719 0.73689 0.0
C504 C 0.52033 0.62315 0.89262 0.0
C505 C 0.58838 0.68945 0.75752 0.0
C506 C 0.64489 0.65753 0.73283 0.0
C507 C 0.63389 0.68272 0.7007 0.0
C508 C 0.60573 0.69841 0.71296 0.0
C509 C 0.60251 0.6688 0.79471 0.0
C510 C 0.63068 0.65295 0.78245 0.0
C511 C 0.55363 0.69243 0.75526 0.0
H512 H 0.42562 0.51985 0.98035 0.0
H513 H 0.46492 0.52689 0.91166 0.0
H514 H 0.39402 0.50904 0.7924 0.0
H515 H 0.35428 0.50199 0.8618 0.0
H516 H 0.64415 0.68728 0.66221 0.0
H517 H 0.59528 0.71409 0.68384 0.0
H518 H 0.59002 0.66184 0.83018 0.0
H519 H 0.63903 0.63433 0.80873 0.0
Dy520 Dy 0.0135 0.38788 0.29194 0.0
Dy521 Dy 0.96153 0.34483 0.26826 0.0
C522 C 0.02686 0.32545 0.33861 0.0
O523 O 0.03565 0.36152 0.2188 0.0
O524 O -0.00655 0.3305 0.19788 0.0
O525 O 0.05632 0.4147 0.30039 0.0
O526 O 0.01031 0.43807 0.30628 0.0
O527 O 0.9475 0.39703 0.25105 0.0
O528 O -0.00648 0.40074 0.21366 0.0
O529 O 0.95403 0.33673 0.35557 0.0
O530 O 0.98626 0.37769 0.37526 0.0
O531 O 0.91291 0.33264 0.28329 0.0
O532 O 0.93732 0.31214 0.21645 0.0
C533 C 0.02252 0.34011 0.18645 0.0
O534 O 0.0411 0.35166 0.32829 0.0
O535 O -0.00151 0.31809 0.31869 0.0
C536 C 0.0521 0.4587 0.35815 0.0
C537 C 0.07004 0.48553 0.45544 0.0
C538 C 0.09113 0.46594 0.42725 0.0
C539 C 0.08232 0.45283 0.37911 0.0
C540 C 0.03222 0.48079 0.38333 0.0
C541 C 0.04111 0.4941 0.43159 0.0
C542 C 0.04102 0.44091 0.3116 0.0
C543 C 0.96512 0.41164 0.21617 0.0
C544 C 0.96586 0.35499 0.39219 0.0
C545 C 0.88547 0.3314 0.20221 0.0
C546 C 0.85543 0.36452 1.11909 0.0
C547 C 0.85851 0.37861 0.16892 0.0
C548 C 0.8735 0.36225 0.2101 0.0
C549 C 0.87857 0.31587 1.15481 0.0
C550 C 0.86355 0.33226 1.11356 0.0
C551 C 0.9099 0.31824 0.23812 0.0
H552 H 0.11353 0.45841 0.44415 0.0
H553 H 0.09859 0.43665 0.35992 0.0
H554 H 0.00914 0.48662 0.36711 0.0
H555 H 0.02457 0.50958 0.45168 0.0
H556 H 0.85219 0.40328 0.17448 0.0
H557 H 0.87812 0.37489 0.24644 0.0
H558 H 0.88739 0.2921 1.14789 0.0
H559 H 0.86167 0.32066 1.07558 0.0
Dy560 Dy 0.50651 0.37612 0.53251 0.0
Dy561 Dy 0.5655 0.33486 0.55695 0.0
C562 C 0.50196 0.30975 0.49019 0.0
O563 O 0.49782 0.35061 0.61663 0.0
O564 O 0.53315 0.30969 0.61522 0.0
O565 O 0.45942 0.39032 0.55575 0.0
O566 O 0.48653 0.42016 0.50324 0.0
O567 O 0.56979 0.38053 0.60544 0.0
O568 O 0.54411 0.41156 0.54771 0.0
O569 O 0.57507 0.34425 0.46907 0.0
O570 O 0.52717 0.36575 0.44651 0.0
O571 O 0.6095 0.31569 0.52756 0.0
O572 O 0.59678 0.3082 0.60903 0.0
C573 C 0.50862 0.32322 0.63826 0.0
O574 O 0.48744 0.33674 0.4888 0.0
O575 O 0.52951 0.30526 0.51477 0.0
C576 C 0.43132 0.42089 0.49259 0.0
C577 C 0.38278 0.43156 0.41822 0.0
C578 C 0.3905 0.40058 0.43497 0.0
C579 C 0.41465 0.39529 0.4716 0.0
C580 C 0.42241 0.45191 0.47871 0.0
C581 C 0.39833 0.45725 0.44164 0.0
C582 C 0.45931 0.4156 0.52598 0.0
C583 C 0.56183 0.40921 0.5894 0.0
C584 C 0.55517 0.35318 0.43141 0.0
C585 C 0.65029 0.31942 0.591 0.0
C586 C 0.69738 0.35629 0.63888 0.0
C587 C 0.68613 0.32871 0.66408 0.0
C588 C 0.66269 0.31048 0.64032 0.0
C589 C 0.66495 0.34402 0.56249 0.0
C590 C 0.6885 0.36217 0.58618 0.0
C591 C 0.61938 0.30683 0.57409 0.0
H592 H 0.37956 0.38019 0.41689 0.0
H593 H 0.42123 0.37114 0.48159 0.0
H594 H 0.43502 0.47195 0.49479 0.0
H595 H 0.39296 0.48131 0.42937 0.0
H596 H 0.6924 0.32335 0.70473 0.0
H597 H 0.65215 0.2913 0.66267 0.0
H598 H 0.6564 0.35113 0.52378 0.0
H599 H 0.69711 0.38293 0.56551 0.0
Dy600 Dy 0.01536 0.63227 1.04567 0.0
Dy601 Dy 0.9511 0.6664 1.07817 0.0
C602 C 0.00146 0.69942 1.00354 0.0
O603 O 0.02399 0.6559 1.12884 0.0
O604 O 0.98332 0.69134 1.13703 0.0
O605 O 0.06615 0.63217 1.05214 0.0
O606 O 0.04198 0.5908 1.02194 0.0
O607 O 0.94881 0.61776 1.11851 0.0
O608 O 0.98484 0.59139 1.06835 0.0
O609 O 0.94134 0.65355 0.99131 0.0
O610 O 0.99028 0.6377 0.96229 0.0
O611 O 0.909 0.69123 1.05159 0.0
O612 O 0.91627 0.68208 1.13487 0.0
C613 C 0.01092 0.68059 1.154 0.0
O614 O 0.01627 0.67329 0.99235 0.0
O615 O 0.98524 0.70221 1.04754 0.0
C616 C 0.09435 0.59928 0.99249 0.0
C617 C 0.14112 0.58921 0.91521 0.0
C618 C 0.13265 0.62013 0.9305 0.0
C619 C 0.10945 0.62513 0.96864 0.0
C620 C 0.10364 0.56838 0.97901 0.0
C621 C 0.12674 0.56334 0.94041 0.0
C622 C 0.0692 0.60395 1.03181 0.0
C623 C 0.96249 0.59099 1.10397 0.0
C624 C 0.96036 0.64651 0.95118 0.0
C625 C 0.86429 0.67877 1.10345 0.0
C626 C 0.8127 0.64128 1.13444 0.0
C627 C 0.82797 0.63572 1.08587 0.0
C628 C 0.85401 0.65396 1.07098 0.0
C629 C 0.84591 0.68764 1.14686 0.0
C630 C 0.82025 0.66918 0.1622 0.0
C631 C 0.89641 0.69162 1.09851 0.0
H632 H 0.14269 0.6406 0.9109 0.0
H633 H 0.10282 0.64923 0.97838 0.0
H634 H 0.0925 0.54811 0.99751 0.0
H635 H 0.13269 0.53932 0.92917 0.0
H636 H 0.82215 0.61516 1.06244 0.0
H637 H 0.86759 0.64695 1.03664 0.0
H638 H 0.85325 0.70698 0.172 0.0
H639 H 0.80914 0.67479 0.19955 0.0
H640 H 0.24037 0.08102 1.13703 0.0
H641 H 0.15478 0.03031 0.17328 0.0
H642 H 0.15229 0.01071 1.0838 0.0
H643 H 0.1599 0.02949 0.99316 0.0
H644 H 0.24128 0.08596 0.95485 0.0
H645 H 0.2603 0.08119 1.04563 0.0
C646 C 0.22207 0.0644 1.12591 0.0
C647 C 0.19648 0.05932 1.16038 0.0
C648 C 0.21927 0.0553 1.07284 0.0
C649 C 0.17411 0.03607 1.14695 0.0
C650 C 0.1723 0.02512 1.09513 0.0
C651 C 0.1828 0.03908 1.00376 0.0
C652 C 0.19808 0.0599 0.96881 0.0
C653 C 0.19246 0.03787 1.05677 0.0
C654 C 0.22835 0.07105 0.98222 0.0
C655 C 0.23906 0.06863 1.03437 0.0
H656 H 0.18269 0.88106 0.33053 0.0
H657 H 0.13258 0.94421 0.22463 0.0
H658 H 0.14445 0.90915 1.15052 0.0
H659 H 0.15391 0.85425 1.12417 0.0
H660 H 0.19277 0.78735 0.23634 0.0
H661 H 0.20111 0.82988 0.29947 0.0
C662 C 0.17569 0.88796 0.29084 0.0
C663 C 0.15633 0.91486 0.2831 0.0
C664 C 0.18015 0.86637 0.24976 0.0
C665 C 0.1473 0.92347 0.23148 0.0
C666 C 0.15379 0.90321 0.18931 0.0
C667 C 0.16588 0.84943 0.16141 0.0
C668 C 0.17277 0.81792 0.176 0.0
C669 C 0.16801 0.87355 0.19898 0.0
C670 C 0.18759 0.81154 0.22448 0.0
C671 C 0.19201 0.83587 0.26072 0.0
H672 H 0.34196 0.91639 0.4393 0.0
H673 H 0.44114 0.92895 0.4729 0.0
H674 H 0.4285 0.94722 0.56125 0.0
H675 H 0.39294 0.93674 0.63439 0.0
H676 H 0.29551 0.91327 0.60452 0.0
H677 H 0.30303 0.92351 0.51034 0.0
C678 C 0.36064 0.92443 0.4654 0.0
C679 C 0.39246 0.91964 0.45087 0.0
C680 C 0.35333 0.9322 0.51779 0.0
C681 C 0.41646 0.93152 0.48362 0.0
C682 C 0.40922 0.94164 0.53463 0.0
C683 C 0.37277 0.93569 0.60791 0.0
C684 C 0.34426 0.92227 0.62569 0.0
C685 C 0.37818 0.93866 0.55353 0.0
C686 C 0.31811 0.92228 0.59124 0.0
C687 C 0.32258 0.92763 0.53718 0.0
H688 H 0.29936 0.05666 0.80323 0.0
H689 H 0.28384 0.15341 0.85068 0.0
H690 H 0.27462 0.16896 0.7596 0.0
H691 H 0.29442 0.15868 0.67123 0.0
H692 H 0.31198 0.06263 0.62142 0.0
H693 H 0.29579 0.04318 0.70805 0.0
C694 C 0.29242 0.08083 0.79381 0.0
C695 C 0.2945 0.10425 0.83301 0.0
C696 C 0.28869 0.08999 0.74071 0.0
C697 C 0.2837 0.13507 0.821 0.0
C698 C 0.27875 0.14414 0.76856 0.0
C699 C 0.29334 0.13334 0.67771 0.0
C700 C 0.30808 0.11235 0.64215 0.0
C701 C 0.28488 0.12245 0.72814 0.0
C702 C 0.30359 0.07961 0.65022 0.0
C703 C 0.29438 0.06838 0.69992 0.0
H704 H 0.93216 0.79004 0.38334 0.0
H705 H 0.93528 0.69513 0.32161 0.0
H706 H 0.9501 0.71615 0.23468 0.0
H707 H 0.96245 0.76172 0.17296 0.0
H708 H 0.96338 0.8563 0.23556 0.0
H709 H 0.94649 0.83563 0.32197 0.0
C710 C 0.93604 0.77365 0.35117 0.0
C711 C 0.93203 0.74024 0.36138 0.0
C712 C 0.94536 0.78619 0.29976 0.0
C713 C 0.93779 0.72051 0.31726 0.0
C714 C 0.94634 0.73276 0.26658 0.0
C715 C 0.9594 0.77807 0.20541 0.0
C716 C 0.965 0.81121 0.1956 0.0
C717 C 0.95029 0.76559 0.25683 0.0
C718 C 0.9596 0.83107 0.23965 0.0
C719 C 0.94998 0.81899 0.29004 0.0
H720 H 0.90479 0.20196 0.99672 0.0
H721 H -0.00638 0.20621 0.91325 0.0
H722 H 0.02092 0.18427 0.98986 0.0
H723 H 0.02248 0.16532 1.0843 0.0
H724 H 0.93443 0.15751 0.16844 0.0
H725 H 0.90598 0.17911 1.09144 0.0
C726 C 0.93012 0.19815 0.99459 0.0
C727 C 0.94626 0.20682 0.94616 0.0
C728 C 0.94685 0.185 1.041 0.0
C729 C 0.97943 0.20081 0.9477 0.0
C730 C -0.0044 0.18806 0.99258 0.0
C731 C -0.00298 0.16815 1.08648 0.0
C732 C 0.98149 0.15924 1.13499 0.0
C733 C 0.98001 0.18038 1.0402 0.0
C734 C 0.94808 0.16359 1.1337 0.0
C735 C 0.93141 0.17624 1.08869 0.0
H736 H 0.62918 0.19781 0.85499 0.0
H737 H 0.55634 0.26979 0.85913 0.0
H738 H 0.53089 0.24588 0.78263 0.0
H739 H 0.52686 0.20404 0.71203 0.0
H740 H 0.60049 0.13329 0.70335 0.0
H741 H 0.62635 0.15656 0.78091 0.0
C742 C 0.60769 0.20857 0.83965 0.0
C743 C 0.59546 0.23656 0.86577 0.0
C744 C 0.59242 0.19443 0.79323 0.0
C745 C 0.56732 0.24889 0.84238 0.0
C746 C 0.55226 0.23491 0.7977 0.0
C747 C 0.54857 0.19334 0.72667 0.0
C748 C 0.56083 0.16585 0.69951 0.0
C749 C 0.56421 0.20755 0.77233 0.0
C750 C 0.58955 0.15384 0.72127 0.0
C751 C 0.60465 0.16742 0.76663 0.0
H752 H 0.50511 0.80498 0.57231 0.0
H753 H 0.5767 0.77068 0.68035 0.0
H754 H 0.60461 0.74525 0.60731 0.0
H755 H 0.60932 0.73024 0.51152 0.0
H756 H 0.54224 0.77033 0.40138 0.0
H757 H 0.51273 0.79421 0.47444 0.0
C758 C 0.52667 0.79179 0.58041 0.0
C759 C 0.53788 0.78995 0.63399 0.0
C760 C 0.54374 0.7773 0.53683 0.0
C761 C 0.56659 0.77288 0.64111 0.0
C762 C 0.58282 0.75794 0.5988 0.0
C763 C 0.5883 0.74424 0.50312 0.0
C764 C 0.5782 0.74745 0.44929 0.0
C765 C 0.57174 0.75959 0.54623 0.0
C766 C 0.5509 0.7665 0.44119 0.0
C767 C 0.5338 0.78048 0.48362 0.0
H768 H 0.64888 0.55326 0.57329 0.0
H769 H 0.70261 0.62543 0.49289 0.0
H770 H 0.71515 0.65004 0.57642 0.0
H771 H 0.69504 0.66135 0.66499 0.0
H772 H 0.63359 0.594 0.74133 0.0
H773 H 0.64081 0.5573 0.66904 0.0
C774 C 0.66424 0.57374 0.57433 0.0
C775 C 0.67388 0.58796 0.52665 0.0
C776 C 0.66939 0.58933 0.62242 0.0
C777 C 0.6947 0.61384 0.5287 0.0
C778 C 0.70149 0.6284 0.5767 0.0
C779 C 0.68433 0.63808 0.66675 0.0
C780 C 0.66265 0.63122 0.70723 0.0
C781 C 0.68659 0.61796 0.62294 0.0
C782 C 0.64995 0.60045 0.71023 0.0
C783 C 0.65362 0.57946 0.66823 0.0
H784 H 0.69724 0.41643 0.84935 0.0
H785 H 0.62627 0.47226 0.76884 0.0
H786 H 0.6501 0.45933 0.68362 0.0
H787 H 0.67692 0.41692 0.63626 0.0
H788 H 0.74198 0.35476 0.71867 0.0
H789 H 0.73631 0.38661 0.79848 0.0
C790 C 0.68814 0.42727 0.81334 0.0
C791 C 0.65926 0.44399 0.81459 0.0
C792 C 0.70068 0.41781 0.76468 0.0
C793 C 0.64787 0.45837 0.76812 0.0
C794 C 0.6614 0.45073 0.7195 0.0
C795 C 0.69124 0.41121 0.67071 0.0
C796 C 0.70867 0.38264 0.67245 0.0
C797 C 0.68574 0.42797 0.71742 0.0
C798 C 0.7276 0.37609 0.717 0.0
C799 C 0.724 0.39404 0.76284 0.0
H800 H 0.8859 0.41947 1.10012 0.0
H801 H 0.82044 0.3543 1.02913 0.0
H802 H 0.83733 0.37133 0.94105 0.0
H803 H 0.88293 0.38958 0.89036 0.0
H804 H 0.95199 0.45019 0.96356 0.0
H805 H 0.92027 0.45145 1.04423 0.0
C806 C 0.87408 0.41008 1.06551 0.0
C807 C 0.85299 0.38457 1.07088 0.0
C808 C 0.88524 0.41866 1.01535 0.0
C809 C 0.83761 0.3731 1.02567 0.0
C810 C 0.84746 0.38268 0.97541 0.0
C811 C 0.89039 0.40443 0.92289 0.0
C812 C 0.92045 0.41875 0.92178 0.0
C813 C 0.8733 0.40317 0.97026 0.0
C814 C 0.92939 0.43823 0.96406 0.0
C815 C 0.91151 0.43858 1.01042 0.0
H816 H 0.80587 0.58 0.34141 0.0
H817 H 0.87263 0.5186 0.26322 0.0
H818 H 0.85056 0.53367 0.17745 0.0
H819 H 0.82788 0.57837 1.12946 0.0
H820 H 0.76395 0.64283 0.2079 0.0
H821 H 0.76781 0.61118 0.28857 0.0
C822 C 0.8144 0.5685 0.30587 0.0
C823 C 0.84197 0.54963 0.30802 0.0
C824 C 0.80251 0.57846 0.25668 0.0
C825 C 0.85227 0.53429 0.26196 0.0
C826 C 0.83971 0.54304 0.21294 0.0
C827 C 0.81336 0.58486 0.16302 0.0
C828 C 0.7979 0.61457 0.16418 0.0
C829 C 0.81712 0.56749 0.20997 0.0
C830 C 0.77779 0.62115 0.20715 0.0
C831 C 0.78021 0.60317 0.25356 0.0
H832 H 0.50859 0.33461 0.75167 0.0
H833 H 0.47226 0.26865 0.63816 0.0
H834 H 0.45134 0.23575 0.70969 0.0
H835 H 0.44231 0.22378 0.80795 0.0
H836 H 0.47778 0.29094 0.92085 0.0
H837 H 0.49885 0.32328 0.84911 0.0
C838 C 0.49565 0.31338 0.74187 0.0
C839 C 0.49233 0.30533 0.68667 0.0
C840 C 0.48303 0.29375 0.7849 0.0
C841 C 0.47579 0.27662 0.67818 0.0
C842 C 0.46351 0.25734 0.7201 0.0
C843 C 0.45476 0.24533 0.81755 0.0
C844 C 0.45793 0.25373 0.87275 0.0
C845 C 0.4669 0.26523 0.77426 0.0
C846 C 0.47425 0.28267 0.88084 0.0
C847 C 0.48653 0.30174 0.83887 0.0
H848 H 0.46555 0.68787 0.62104 0.0
H849 H 0.42994 0.59282 0.61232 0.0
H850 H 0.40683 0.60504 0.52477 0.0
H851 H 0.39574 0.6439 0.44687 0.0
H852 H 0.43435 0.73805 0.46021 0.0
H853 H 0.45614 0.72485 0.54582 0.0
C854 C 0.45273 0.66944 0.60063 0.0
C855 C 0.45001 0.63902 0.62613 0.0
C856 C 0.43945 0.67667 0.54891 0.0
C857 C 0.43304 0.61638 0.59615 0.0
C858 C 0.41958 0.62355 0.54505 0.0
C859 C 0.40886 0.66175 0.46807 0.0
C860 C 0.41243 0.69272 0.44373 0.0
C861 C 0.4224 0.65379 0.52023 0.0
C862 C 0.43018 0.7143 0.47478 0.0
C863 C 0.44306 0.7067 0.52516 0.0
H864 H 0.07711 0.71766 0.37972 0.0
H865 H 0.04405 0.81098 0.33584 0.0
H866 H 0.02336 0.78988 0.25271 0.0
H867 H 0.01351 0.7443 0.1898 0.0
H868 H 0.04541 0.65108 0.23442 0.0
H869 H 0.06742 0.67239 0.3167 0.0
C870 C 0.06528 0.73366 0.35237 0.0
C871 C 0.06258 0.76661 0.36637 0.0
C872 C 0.05272 0.72101 0.30337 0.0
C873 C 0.04691 0.7859 0.32837 0.0
C874 C 0.03479 0.77361 0.28001 0.0
C875 C 0.0244 0.72835 0.21801 0.0
C876 C 0.02639 0.69534 0.20466 0.0
C877 C 0.03717 0.74109 0.26678 0.0
C878 C 0.04282 0.67619 0.24185 0.0
C879 C 0.05547 0.68857 0.28979 0.0
H880 H 0.11028 0.30765 0.9768 0.0
H881 H 0.0411 0.23426 0.95833 0.0
H882 H 0.01362 0.25244 1.0377 0.0
H883 H 0.00778 0.28938 1.1154 0.0
H884 H 0.07792 0.36163 1.13756 0.0
H885 H 0.10511 0.34415 1.05703 0.0
C886 C 0.08917 0.29544 0.98967 0.0
C887 C 0.07847 0.2687 0.9591 0.0
C888 C 0.07307 0.30611 1.03779 0.0
C889 C 0.05083 0.25418 0.97927 0.0
C890 C 0.03474 0.26487 1.02546 0.0
C891 C 0.02908 0.30153 1.10321 0.0
C892 C 0.04003 0.32749 1.13514 0.0
C893 C 0.04543 0.29081 1.0557 0.0
C894 C 0.0681 0.34187 1.1161 0.0
C895 C 0.08394 0.33172 1.069 0.0
H896 H -0.00035 0.30093 0.42448 0.0
H897 H 0.08823 0.30507 0.34222 0.0
H898 H 0.09785 0.24929 0.36088 0.0
H899 H 0.06509 0.20354 0.34414 0.0
H900 H 0.96881 0.20104 0.39973 0.0
H901 H 0.97691 0.25037 0.44781 0.0
C902 C 0.02171 0.28969 0.41339 0.0
C903 C 0.0416 0.3049 0.37757 0.0
C904 C 0.02431 0.25706 0.41698 0.0
C905 C 0.07161 0.29236 0.36693 0.0
C906 C 0.07683 0.2604 0.37715 0.0
C907 C 0.04617 0.21357 0.36787 0.0
C908 C 0.01554 0.20148 0.36449 0.0
C909 C 0.05071 0.24228 0.39255 0.0
C910 C 0.99184 0.21215 0.39879 0.0
C911 C -0.00326 0.23981 0.42704 0.0
H912 H 0.9374 0.74757 0.62532 0.0
H913 H 0.01002 0.67646 0.61126 0.0
H914 H 0.04577 0.70892 0.66324 0.0
H915 H 0.06138 0.76191 0.63932 0.0
H916 H 0.99073 0.8325 0.6044 0.0
H917 H 0.95112 0.80086 0.64986 0.0
C918 C 0.96078 0.73887 0.63572 0.0
C919 C 0.97287 0.71199 0.61008 0.0
C920 C 0.98235 0.76 0.65677 0.0
C921 C 0.00145 0.69864 0.6273 0.0
C922 C 0.02174 0.71736 0.65714 0.0
C923 C 0.03747 0.77073 0.64383 0.0
C924 C 0.02757 0.79705 0.61393 0.0
C925 C 0.01437 0.74981 0.66072 0.0
C926 C -0.00204 0.81069 0.62385 0.0
C927 C 0.97541 0.79238 0.64981 0.0
H928 H 0.44747 0.65791 0.93473 0.0
H929 H 0.38506 0.66446 0.80248 0.0
H930 H 0.38942 0.7219 0.8015 0.0
H931 H 0.43436 0.75733 0.80015 0.0
H932 H 0.51215 0.74237 0.90848 0.0
H933 H 0.48197 0.70187 0.95526 0.0
C934 C 0.43366 0.6726 0.90771 0.0
C935 C 0.42064 0.6583 0.86309 0.0
C936 C 0.44233 0.70412 0.90071 0.0
C937 C 0.39863 0.67579 0.83337 0.0
C938 C 0.40187 0.70857 0.83195 0.0
C939 C 0.44449 0.74555 0.83452 0.0
C940 C 0.47616 0.7504 0.84845 0.0
C941 C 0.42779 0.72149 0.85885 0.0
C942 C 0.48839 0.73702 0.8952 0.0
C943 C 0.4709 0.71449 0.92258 0.0
H944 H 0.60078 0.20385 1.09165 0.0
H945 H 0.55263 0.28815 1.14339 0.0
H946 H 0.5191 0.2564 0.20007 0.0
H947 H 0.48359 0.22027 1.15618 0.0
H948 H 0.52208 0.14958 1.05254 0.0
H949 H 0.57316 0.15392 1.09634 0.0
C950 C 0.58312 0.21516 1.11639 0.0
C951 C 0.57599 0.24739 1.1085 0.0
C952 C 0.55935 0.19652 1.13803 0.0
C953 C 0.55649 0.2628 1.14512 0.0
C954 C 0.53735 0.24435 0.17758 0.0
C955 C 0.50335 0.20543 1.14408 0.0
C956 C 0.50117 0.18829 1.09684 0.0
C957 C 0.53349 0.21273 0.16215 0.0
C958 C 0.52454 0.16567 1.08549 0.0
C959 C 0.55365 0.16807 1.11118 0.0
H960 H 0.99135 0.8173 0.87667 0.0
H961 H 0.90431 0.8132 0.96101 0.0
H962 H 0.90375 0.75577 0.95368 0.0
H963 H 0.94313 0.71627 0.97847 0.0
H964 H 0.03969 0.7253 0.92733 0.0
H965 H 0.02466 0.77015 0.87028 0.0
C966 C 0.97168 0.8034 0.8911 0.0
C967 C 0.95112 0.81735 0.92776 0.0
C968 C 0.9758 0.77075 0.89668 0.0
C969 C 0.92278 0.80167 0.93838 0.0
C970 C 0.92295 0.7687 0.93537 0.0
C971 C 0.96056 0.72739 0.95329 0.0
C972 C -0.00739 0.71978 0.95941 0.0
C973 C 0.9519 0.75374 0.92378 0.0
C974 C 0.0151 0.73257 0.92496 0.0
C975 C 0.00635 0.75775 0.8919 0.0
H976 H 0.51942 0.75721 0.22656 0.0
H977 H 0.5082 0.72177 0.38433 0.0
H978 H 0.4761 0.67779 0.3527 0.0
H979 H 0.45298 0.64966 0.27864 0.0
H980 H 0.44565 0.69709 1.13086 0.0
H981 H 0.49104 0.73089 1.1525 0.0
C982 C 0.50923 0.7401 0.25372 0.0
C983 C 0.51985 0.7382 0.3057 0.0
C984 C 0.49246 0.71454 0.23426 0.0
C985 C 0.50252 0.72055 0.3426 0.0
C986 C 0.48617 0.6943 0.32451 0.0
C987 C 0.46246 0.66691 0.25095 0.0
C988 C 0.44319 0.67716 0.20964 0.0
C989 C 0.48253 0.69026 0.26991 0.0
C990 C 0.45785 0.69362 0.16817 0.0
C991 C 0.48277 0.71368 0.18117 0.0
H992 H 0.56841 0.2059 0.43635 0.0
H993 H 0.56918 0.21795 0.6032 0.0
H994 H 0.5195 0.24807 0.59995 0.0
H995 H 0.47354 0.26592 0.54711 0.0
H996 H 0.49411 0.2865 0.386 0.0
H997 H 0.5313 0.24118 0.38258 0.0
C998 C 0.55748 0.21558 0.47154 0.0
C999 C 0.56563 0.20381 0.52153 0.0
C1000 C 0.53009 0.23417 0.46774 0.0
C1001 C 0.55849 0.22298 0.56505 0.0
C1002 C 0.52936 0.23872 0.5638 0.0
C1003 C 0.48576 0.25958 0.51101 0.0
C1004 C 0.486 0.28177 0.47014 0.0
C1005 C 0.51364 0.24198 0.51496 0.0
C1006 C 0.4973 0.27169 0.42074 0.0
C1007 C 0.5196 0.247 0.41939 0.0
H1008 H 0.04284 0.18315 0.73873 0.0
H1009 H 0.03733 0.2816 0.69279 0.0
H1010 H -0.00631 0.26975 0.6325 0.0
H1011 H 0.94571 0.23854 0.63424 0.0
H1012 H 0.94473 0.15088 0.71818 0.0
H1013 H 0.00207 0.14671 0.7118 0.0
C1014 C 0.0323 0.202 0.71508 0.0
C1015 C 0.04062 0.23364 0.72351 0.0
C1016 C 0.00656 0.19517 0.68356 0.0
C1017 C 0.02916 0.25743 0.68949 0.0
C1018 C 0.00489 0.25046 0.65416 0.0
C1019 C 0.95854 0.21801 0.64891 0.0
C1020 C 0.94326 0.19808 0.68485 0.0
C1021 C 0.99104 0.22039 0.65642 0.0
C1022 C 0.95739 0.16874 0.69591 0.0
C1023 C 0.99028 0.16687 0.69352 0.0
H1024 H 0.02442 -0.00213 0.27594 0.0
H1025 H 0.08707 0.04882 0.17174 0.0
H1026 H 0.09644 0.00071 1.12106 0.0
H1027 H 0.08278 0.94515 1.09981 0.0
H1028 H 0.02353 0.89246 0.20651 0.0
H1029 H 0.0176 0.93943 0.26252 0.0
C1030 C 0.04048 -0.00158 0.24259 0.0
C1031 C 0.05457 0.02764 0.22773 0.0
C1032 C 0.04649 0.97003 0.21368 0.0
C1033 C 0.07563 0.02722 0.18453 0.0
C1034 C 0.08102 -0.00049 1.15517 0.0
C1035 C 0.06935 0.94359 1.13622 0.0
C1036 C 0.05386 0.91485 1.14874 0.0
C1037 C 0.06609 0.9709 0.16852 0.0
C1038 C 0.03626 0.91376 0.19597 0.0
C1039 C 0.03247 0.94094 0.22776 0.0
H1040 H 0.21155 0.76795 0.50384 0.0
H1041 H 0.18874 0.8514 0.41239 0.0
H1042 H 0.2392 0.84658 0.36495 0.0
H1043 H 0.28779 0.81448 0.34172 0.0
H1044 H 0.30888 0.73148 0.43625 0.0
H1045 H 0.26165 0.74012 0.48838 0.0
C1046 C 0.21754 0.78532 0.47379 0.0
C1047 C 0.19575 0.80982 0.46161 0.0
C1048 C 0.2464 0.78204 0.44577 0.0
C1049 C 0.20455 0.832 0.42246 0.0
C1050 C 0.23351 0.82916 0.39502 0.0
C1051 C 0.28238 0.79868 0.37432 0.0
C1052 C 0.30219 0.772 0.38401 0.0
C1053 C 0.25437 0.80367 0.40503 0.0
C1054 C 0.29426 0.75193 0.42675 0.0
C1055 C 0.26701 0.7568 0.45696 0.0
H1056 H 0.53364 0.03184 0.66757 0.0
H1057 H 0.43844 0.03438 0.60634 0.0
H1058 H 0.42869 0.98179 0.64527 0.0
H1059 H 0.44845 0.93304 0.69446 0.0
H1060 H 0.54434 0.9334 0.75431 0.0
H1061 H 0.5522 0.98597 0.71816 0.0
C1062 C 0.5106 0.02111 0.66255 0.0
C1063 C 0.48691 0.03754 0.63348 0.0
C1064 C 0.50526 0.99071 0.68474 0.0
C1065 C 0.45729 0.02269 0.62816 0.0
C1066 C 0.45175 0.99235 0.65041 0.0
C1067 C 0.47099 0.94467 0.69998 0.0
C1068 C 0.49576 0.92843 0.72749 0.0
C1069 C 0.47569 0.97579 0.67852 0.0
C1070 C 0.52471 0.94449 0.73357 0.0
C1071 C 0.52936 0.97489 0.71272 0.0
H1072 H 0.33212 0.21797 0.89349 0.0
H1073 H 0.2989 0.2144 1.0543 0.0
H1074 H 0.24389 0.21365 1.02253 0.0
H1075 H 0.20455 0.21442 0.94801 0.0
H1076 H 0.23897 0.22323 0.78822 0.0
H1077 H 0.29347 0.22174 0.82034 0.0
C1078 C 0.31289 0.21716 0.92177 0.0
C1079 C 0.31999 0.21619 0.9765 0.0
C1080 C 0.28117 0.21768 0.90314 0.0
C1081 C 0.29445 0.21535 1.01213 0.0
C1082 C 0.26285 0.21479 0.99383 0.0
C1083 C 0.22398 0.21577 0.92019 0.0
C1084 C 0.21726 0.21862 0.86534 0.0
C1085 C 0.25579 0.2159 0.9393 0.0
C1086 C 0.24304 0.22097 0.83038 0.0
C1087 C 0.27441 0.22019 0.84883 0.0
H1088 H 0.75369 0.29558 1.01331 0.0
H1089 H 0.70142 0.32879 0.87691 0.0
H1090 H 0.7507 0.33258 0.82676 0.0
H1091 H 0.80854 0.32365 0.81913 0.0
H1092 H 0.86142 0.29187 0.95557 0.0
H1093 H 0.81258 0.29109 1.00782 0.0
C1094 C 0.75301 0.30416 0.97285 0.0
C1095 C 0.72329 0.3118 0.94932 0.0
C1096 C 0.78185 0.30676 0.944 0.0
C1097 C 0.72347 0.32288 0.89667 0.0
C1098 C 0.75183 0.32504 0.86773 0.0
C1099 C 0.8096 0.3172 0.86066 0.0
C1100 C 0.83913 0.30797 0.88305 0.0
C1101 C 0.78117 0.31674 0.89066 0.0
C1102 C 0.83952 0.29943 0.93696 0.0
C1103 C 0.81134 0.29868 0.96686 0.0
H1104 H 0.81227 0.72801 0.40664 0.0
H1105 H 0.80198 0.63775 0.48501 0.0
H1106 H 0.75016 0.63093 0.44323 0.0
H1107 H 0.70572 0.65225 0.38797 0.0
H1108 H 0.7189 0.74029 0.3037 0.0
H1109 H 0.7709 0.74639 0.34445 0.0
C1110 C 0.79862 0.70691 0.41495 0.0
C1111 C 0.81098 0.68375 0.45002 0.0
C1112 C 0.76893 0.70286 0.38994 0.0
C1113 C 0.79311 0.65621 0.4589 0.0
C1114 C 0.76328 0.65234 0.43509 0.0
C1115 C 0.72011 0.67262 0.37817 0.0
C1116 C 0.70808 0.69588 0.34284 0.0
C1117 C 0.75065 0.67571 0.40104 0.0
C1118 C 0.72735 0.72193 0.33041 0.0
C1119 C 0.75715 0.72556 0.35403 0.0
H1120 H 0.56025 0.51658 0.76508 0.0
H1121 H 0.54892 0.57679 0.62794 0.0
H1122 H 0.55636 0.5308 0.57031 0.0
H1123 H 0.56012 0.47218 0.55883 0.0
H1124 H 0.57272 0.41255 0.6964 0.0
H1125 H 0.57003 0.45918 0.75326 0.0
C1126 C 0.55994 0.5199 0.72254 0.0
C1127 C 0.55378 0.55058 0.70132 0.0
C1128 C 0.56397 0.49309 0.68943 0.0
C1129 C 0.55367 0.55389 0.64589 0.0
C1130 C 0.55768 0.52737 0.61276 0.0
C1131 C 0.56306 0.46937 0.6012 0.0
C1132 C 0.56658 0.43841 0.62292 0.0
C1133 C 0.56199 0.49666 0.63403 0.0
C1134 C 0.57026 0.43569 0.67808 0.0
C1135 C 0.5686 0.46252 0.71082 0.0
H1136 H 0.97395 0.53136 1.0661 0.0
H1137 H 0.93422 0.57896 0.2011 0.0
H1138 H 0.92853 0.52767 0.24665 0.0
H1139 H 0.93808 0.46885 0.2508 0.0
H1140 H 0.9782 0.42307 1.11429 0.0
H1141 H 0.97967 0.47349 1.06718 0.0
C1142 C 0.9635 0.5307 1.10522 0.0
C1143 C 0.95465 0.55949 1.12976 0.0
C1144 C 0.95995 0.50105 1.13115 0.0
C1145 C 0.94111 0.55755 0.1806 0.0
C1146 C 0.93779 0.52808 0.20684 0.0
C1147 C 0.94607 0.46976 0.21012 0.0
C1148 C 0.95751 0.44166 0.18601 0.0
C1149 C 0.94739 0.49952 0.18286 0.0
C1150 C 0.96884 0.44391 1.13381 0.0
C1151 C 0.96999 0.47296 1.10683 0.0
H1152 H 0.09041 0.18158 0.43855 0.0
H1153 H 0.02821 0.10925 0.49768 0.0
H1154 H 0.04203 0.12401 0.58864 0.0
H1155 H 0.07246 0.15747 0.65564 0.0
H1156 H 0.12981 0.23369 0.59628 0.0
H1157 H 0.11741 0.21773 0.50542 0.0
C1158 C 0.07955 0.16874 0.47085 0.0
C1159 C 0.0579 0.14329 0.45785 0.0
C1160 C 0.08708 0.17833 0.52528 0.0
C1161 C 0.04481 0.12837 0.50324 0.0
C1162 C 0.0529 0.13703 0.55652 0.0
C1163 C 0.08247 0.17096 0.6233 0.0
C1164 C 0.10299 0.19737 0.63623 0.0
C1165 C 0.07415 0.16198 0.56885 0.0
C1166 C 0.11448 0.21354 0.59079 0.0
C1167 C 0.1072 0.20419 0.53756 0.0
H1168 H 0.05846 0.86971 0.68369 0.0
H1169 H 0.11873 0.78968 0.72013 0.0
H1170 H 0.1048 0.79394 0.81335 0.0
H1171 H 0.07491 0.81906 0.88769 0.0
H1172 H 0.01312 0.89817 0.85408 0.0
H1173 H 0.02801 0.89546 0.76009 0.0
C1174 C 0.06911 0.85339 0.71183 0.0
C1175 C 0.09067 0.82948 0.69225 0.0
C1176 C 0.06041 0.85569 0.76762 0.0
C1177 C 0.10273 0.80857 0.73154 0.0
C1178 C 0.09454 0.81094 0.78591 0.0
C1179 C 0.06467 0.83614 0.86036 0.0
C1180 C 0.04273 0.85927 0.88071 0.0
C1181 C 0.07333 0.83425 0.80495 0.0
C1182 C 0.03007 0.88027 0.84207 0.0
C1183 C 0.0387 0.87862 0.78733 0.0
H1184 H 0.44132 0.78896 1.13929 0.0
H1185 H 0.359 0.74238 1.07702 0.0
H1186 H 0.37474 0.75876 0.98694 0.0
H1187 H 0.41246 0.78737 0.92285 0.0
H1188 H 0.49509 0.83202 0.98844 0.0
H1189 H 0.47866 0.81578 1.0771 0.0
C1190 C 0.42633 0.7822 1.1065 0.0
C1191 C 0.39817 0.7641 1.1178 0.0
C1192 C 0.43582 0.79182 1.05361 0.0
C1193 C 0.38039 0.75606 1.07225 0.0
C1194 C 0.3896 0.76567 1.01978 0.0
C1195 C 0.42698 0.79396 0.95631 0.0
C1196 C 0.4555 0.81201 0.9463 0.0
C1197 C 0.4173 0.78381 1.00936 0.0
C1198 C 0.47328 0.81891 0.99229 0.0
C1199 C 0.46373 0.80936 1.04403 0.0
H1200 H 0.44745 0.1751 0.39414 0.0
H1201 H 0.51366 0.10258 0.34759 0.0
H1202 H 0.49877 0.11124 0.25443 0.0
H1203 H 0.46651 0.14016 0.18174 0.0
H1204 H 0.40277 0.21446 0.23076 0.0
H1205 H 0.41672 0.20425 0.323 0.0
C1206 C 0.45883 0.16082 0.36413 0.0
C1207 C 0.48211 0.13759 0.38116 0.0
C1208 C 0.45016 0.16631 0.30871 0.0
C1209 C 0.49589 0.12044 0.33871 0.0
C1210 C 0.48714 0.12549 0.28421 0.0
C1211 C 0.45509 0.154 0.21224 0.0
C1212 C 0.43237 0.17819 0.19601 0.0
C1213 C 0.46411 0.14837 0.26787 0.0
C1214 C 0.41962 0.19562 0.23896 0.0
C1215 C 0.42786 0.18976 0.29301 0.0
H1216 H 0.8683 0.90817 0.70531 0.0
H1217 H 0.83602 0.82982 0.80087 0.0
H1218 H 0.8385 0.86273 0.87983 0.0
H1219 H 0.85901 0.90988 0.92241 0.0
H1220 H 0.89472 0.98716 0.82807 0.0
H1221 H 0.88038 0.95898 0.74727 0.0
C1222 C 0.86093 0.89858 0.74317 0.0
C1223 C 0.85254 0.86648 0.74752 0.0
C1224 C 0.863 0.91745 0.78844 0.0
C1225 C 0.84326 0.85428 0.79684 0.0
C1226 C 0.84451 0.87312 0.84188 0.0
C1227 C 0.8624 0.92126 0.88428 0.0
C1228 C 0.87817 0.95044 0.88112 0.0
C1229 C 0.85562 0.90427 0.83836 0.0
C1230 C 0.88278 0.96461 0.83136 0.0
C1231 C 0.8749 0.94835 0.78525 0.0
H1232 H 0.79646 0.21847 0.57681 0.0
H1233 H 0.75092 0.13007 0.61517 0.0
H1234 H 0.77167 0.10673 0.534 0.0
H1235 H 0.81362 0.10804 0.46633 0.0
H1236 H 0.86004 0.19641 0.43126 0.0
H1237 H 0.82759 0.22334 0.4969 0.0
C1238 C 0.78969 0.19455 0.5666 0.0
C1239 C 0.77314 0.17568 0.60319 0.0
C1240 C 0.80266 0.181 0.52112 0.0
C1241 C 0.76452 0.14481 0.58852 0.0
C1242 C 0.77655 0.13138 0.54226 0.0
C1243 C 0.81583 0.13339 0.47179 0.0
C1244 C 0.83987 0.15004 0.44542 0.0
C1245 C 0.7975 0.14863 0.51041 0.0
C1246 C 0.84234 0.18293 0.45245 0.0
C1247 C 0.82374 0.19836 0.48981 0.0
H1248 H 0.59419 0.09971 1.1225 0.0
H1249 H 0.68286 0.04849 1.11631 0.0
H1250 H 0.66748 0.01749 0.1938 0.0
H1251 H 0.63457 0.01479 0.27433 0.0
H1252 H 0.5471 0.06806 0.27998 0.0
H1253 H 0.55587 0.08755 0.19073 0.0
C1254 C 0.60972 0.08087 1.13629 0.0
C1255 C 0.64022 0.07738 1.11478 0.0
C1256 C 0.60111 0.06381 0.18158 0.0
C1257 C 0.65968 0.05248 1.13331 0.0
C1258 C 0.65095 0.03481 0.17778 0.0
C1259 C 0.61708 0.02997 0.25534 0.0
C1260 C 0.59062 0.04048 0.28415 0.0
C1261 C 0.62269 0.04188 0.20429 0.0
C1262 C 0.56773 0.05962 0.25883 0.0
C1263 C 0.57285 0.07105 0.20782 0.0
H1264 H 0.69378 0.9037 0.96164 0.0
H1265 H 0.73682 0.82007 0.8948 0.0
H1266 H 0.76563 0.81062 0.9771 0.0
H1267 H 0.76117 0.81546 1.07397 0.0
H1268 H 0.71289 0.89672 1.13913 0.0
H1269 H 0.70614 0.91896 1.05165 0.0
C1270 C 0.71062 0.88426 0.96357 0.0
C1271 C 0.71124 0.86124 0.92354 0.0
C1272 C 0.72609 0.87829 1.01164 0.0
C1273 C 0.73435 0.83707 0.92646 0.0
C1274 C 0.75086 0.83162 0.97361 0.0
C1275 C 0.75027 0.83863 1.0691 0.0
C1276 C 0.73546 0.85313 1.11266 0.0
C1277 C 0.74417 0.85025 1.01796 0.0
C1278 C 0.72343 0.88413 1.10636 0.0
C1279 C 0.71905 0.89681 1.05588 0.0
H1280 H 0.5589 0.67278 0.93391 0.0
H1281 H 0.50631 0.59222 0.98936 0.0
H1282 H 0.52308 0.6037 1.08049 0.0
H1283 H 0.55359 0.63684 1.14831 0.0
H1284 H 0.60371 0.71878 1.09149 0.0
H1285 H 0.58739 0.70662 1.00104 0.0
C1286 C 0.55094 0.65736 0.9655 0.0
C1287 C 0.53098 0.63089 0.9517 0.0
C1288 C 0.56058 0.66456 1.01969 0.0
C1289 C 0.52143 0.61243 0.99589 0.0
C1290 C 0.53124 0.61917 1.04912 0.0
C1291 C 0.56124 0.65224 1.1165 0.0
C1292 C 0.58085 0.67917 1.1298 0.0
C1293 C 0.55101 0.64517 1.06226 0.0
C1294 C 0.58919 0.69808 1.08544 0.0
C1295 C 0.57966 0.69098 1.03249 0.0
H1296 H 0.60314 0.31378 0.38532 0.0
H1297 H 0.52974 0.37914 0.33726 0.0
H1298 H 0.54475 0.37138 0.2443 0.0
H1299 H 0.57905 0.34578 0.17286 0.0
H1300 H 0.64979 0.27763 0.22152 0.0
H1301 H 0.63576 0.28674 0.31424 0.0
C1302 C 0.59022 0.32665 0.35494 0.0
C1303 C 0.56494 0.34773 0.37132 0.0
C1304 C 0.59881 0.32147 0.29965 0.0
C1305 C 0.54909 0.36305 0.32869 0.0
C1306 C 0.55788 0.35851 0.27442 0.0
C1307 C 0.59183 0.33291 0.20339 0.0
C1308 C 0.61649 0.31098 0.18722 0.0
C1309 C 0.58282 0.33781 0.25871 0.0
C1310 C 0.6313 0.29474 0.22993 0.0
C1311 C 0.62304 0.3 0.28409 0.0
H1312 H 0.9232 0.30974 0.43683 0.0
H1313 H 0.98854 0.38125 0.488 0.0
H1314 H 0.9768 0.36761 0.58062 0.0
H1315 H 0.94837 0.33458 0.65063 0.0
H1316 H 0.88262 0.26354 0.59892 0.0
H1317 H 0.89397 0.27763 0.50652 0.0
C1318 C 0.93493 0.32285 0.46781 0.0
C1319 C 0.95705 0.34738 0.45233 0.0
C1320 C 0.92781 0.31466 0.52281 0.0
C1321 C 0.97144 0.36283 0.49574 0.0
C1322 C 0.96463 0.35475 0.54982 0.0
C1323 C 0.93601 0.32212 0.61956 0.0
C1324 C 0.91383 0.29759 0.63484 0.0
C1325 C 0.94284 0.33065 0.56452 0.0
C1326 C 0.89924 0.28242 0.59134 0.0
C1327 C 0.906 0.29059 0.53737 0.0
H1328 H 0.98223 0.62794 0.84597 0.0
H1329 H 0.90791 0.68146 0.92144 0.0
H1330 H 0.8867 0.69677 0.83551 0.0
H1331 H 0.88766 0.6961 0.73521 0.0
H1332 H 0.95818 0.63791 0.65955 0.0
H1333 H 0.98089 0.62419 0.74554 0.0
C1334 C 0.96126 0.6428 0.84422 0.0
C1335 C 0.94747 0.65325 0.89324 0.0
C1336 C 0.94775 0.65111 0.79262 0.0
C1337 C 0.91994 0.67248 0.88681 0.0
C1338 C 0.90743 0.68154 0.83656 0.0
C1339 C 0.90788 0.68022 0.73698 0.0
C1340 C 0.92052 0.66835 0.68807 0.0
C1341 C 0.92087 0.67116 0.78853 0.0
C1342 C 0.94697 0.64769 0.69434 0.0
C1343 C 0.96038 0.63971 0.74454 0.0
H1344 H 0.32747 0.4027 0.39186 0.0
H1345 H 0.39619 0.46945 0.33387 0.0
H1346 H 0.38051 0.45852 0.24338 0.0
H1347 H 0.36149 0.41758 0.1843 0.0
H1348 H 0.29604 0.34728 0.24148 0.0
H1349 H 0.29589 0.37219 0.32833 0.0
C1350 C 0.33809 0.4157 0.35938 0.0
C1351 C 0.36379 0.43582 0.36934 0.0
C1352 C 0.33027 0.4079 0.30717 0.0
C1353 C 0.37669 0.45341 0.32732 0.0
C1354 C 0.36802 0.44684 0.27533 0.0
C1355 C 0.34591 0.40848 0.21473 0.0
C1356 C 0.33005 0.37964 0.20722 0.0
C1357 C 0.34692 0.42216 0.26499 0.0
C1358 C 0.30955 0.36872 0.24703 0.0
C1359 C 0.30953 0.3829 0.29677 0.0
H1360 H 0.32087 0.5551 1.13188 0.0
H1361 H 0.27334 0.6161 1.01926 0.0
H1362 H 0.29407 0.58434 0.94643 0.0
H1363 H 0.33426 0.54687 0.91575 0.0
H1364 H 0.38474 0.48825 1.02834 0.0
H1365 H 0.35368 0.51094 1.10049 0.0
C1366 C 0.31409 0.56073 1.0915 0.0
C1367 C 0.29597 0.58812 1.08078 0.0
C1368 C 0.32702 0.54306 1.04992 0.0
C1369 C 0.28762 0.59535 1.02828 0.0
C1370 C 0.29954 0.57726 0.98672 0.0
C1371 C 0.33761 0.53809 0.95579 0.0
C1372 C 0.36204 0.51623 0.96686 0.0
C1373 C 0.32057 0.55213 0.99707 0.0
C1374 C 0.36632 0.50537 1.01903 0.0
C1375 C 0.34869 0.51846 1.06025 0.0
H1376 H 0.16659 0.59956 0.68117 0.0
H1377 H 0.23017 0.67156 0.73743 0.0
H1378 H 0.22873 0.64829 0.82597 0.0
H1379 H 0.19609 0.61872 0.88958 0.0
H1380 H 0.129 0.55041 0.8322 0.0
H1381 H 0.14639 0.5598 0.74191 0.0
C1382 C 0.18146 0.60936 0.71191 0.0
C1383 C 0.19723 0.63819 0.70337 0.0
C1384 C 0.17939 0.59671 0.76304 0.0
C1385 C 0.21679 0.65006 0.74364 0.0
C1386 C 0.21586 0.63685 0.79434 0.0
C1387 C 0.18618 0.6051 0.85736 0.0
C1388 C 0.16052 0.58487 0.86712 0.0
C1389 C 0.19505 0.61193 0.80519 0.0
C1390 C 0.14847 0.5665 0.82562 0.0
C1391 C 0.15815 0.57215 0.77378 0.0
H1392 H 0.12592 0.49763 0.50592 0.0
H1393 H 0.02633 0.48391 0.53523 0.0
H1394 H 0.03783 0.46674 0.62487 0.0
H1395 H 0.07614 0.43934 0.68195 0.0
H1396 H 0.17566 0.44415 0.64526 0.0
H1397 H 0.16451 0.48085 0.5729 0.0
C1398 C 0.10669 0.49168 0.53246 0.0
C1399 C 0.07553 0.49047 0.51288 0.0
C1400 C 0.11363 0.4791 0.58256 0.0
C1401 C 0.05069 0.48445 0.5485 0.0
C1402 C 0.05727 0.47405 0.59981 0.0
C1403 C 0.09541 0.44906 0.65884 0.0
C1404 C 0.12647 0.43814 0.66759 0.0
C1405 C 0.08868 0.46858 0.61527 0.0
C1406 C 0.15143 0.4518 0.63889 0.0
C1407 C 0.14505 0.47262 0.5971 0.0
loop_
_geom_bond_atom_site_label_1
_geom_bond_atom_site_label_2
_geom_bond_distance
_geom_bond_site_symmetry_2
_ccdc_geom_bond_type
Dy0 O3 2.307 . S
Dy0 O5 2.395 . S
Dy0 O6 2.379 . S
Dy0 O8 2.339 . S
Dy0 O10 2.298 1_655 S
Dy0 O14 2.275 1_655 S
Dy0 C22 2.738 . S
Dy1 O4 2.298 . S
Dy1 O7 2.275 . S
Dy1 O9 2.307 . S
Dy1 O11 2.395 . S
Dy1 O12 2.379 . S
Dy1 O15 2.339 . S
Dy1 C31 2.738 . S
C2 O14 1.254 . S
C2 O15 1.257 . S
O3 Dy0 2.307 . S
O3 C13 1.266 . S
O4 Dy1 2.298 . S
O4 C13 1.236 1_455 S
O5 Dy0 2.395 . S
O5 C22 1.255 . S
O6 Dy0 2.379 . S
O6 C22 1.249 . S
O7 Dy1 2.275 . S
O7 C23 1.254 . S
O8 Dy0 2.339 . S
O8 C23 1.257 1_655 S
O9 Dy1 2.307 . S
O9 C24 1.266 . S
O10 Dy0 2.298 1_455 S
O10 C24 1.236 . S
O11 Dy1 2.395 . S
O11 C31 1.255 . S
O12 Dy1 2.379 . S
O12 C31 1.249 . S
C13 O3 1.266 . S
C13 O4 1.236 1_655 S
O14 Dy0 2.275 1_455 S
O14 C2 1.254 . S
O15 Dy1 2.339 . S
O15 C2 1.257 . S
C16 C19 1.344 . S
C16 C20 1.328 . S
C16 C22 1.516 . S
C17 C18 1.304 . S
C17 C21 1.323 . S
C18 C17 1.304 . S
C18 C19 1.371 . S
C18 H32 0.930 . S
C19 C16 1.344 . S
C19 C18 1.371 . S
C19 H33 0.931 . S
C20 C16 1.328 . S
C20 C21 1.433 . S
C20 H34 0.931 . S
C21 C17 1.323 . S
C21 C20 1.433 . S
C21 H35 0.933 . S
C22 Dy0 2.738 . S
C22 O5 1.255 . S
C22 O6 1.249 . S
C22 C16 1.516 . S
C23 O7 1.254 . S
C23 O8 1.257 1_455 S
C24 O9 1.266 . S
C24 O10 1.236 . S
C25 C28 1.344 . S
C25 C29 1.328 . S
C25 C31 1.516 1_556 S
C26 C27 1.304 . S
C26 C30 1.323 . S
C27 C26 1.304 . S
C27 C28 1.371 . S
C27 H36 0.930 . S
C28 C25 1.344 . S
C28 C27 1.371 . S
C28 H37 0.931 . S
C29 C25 1.328 . S
C29 C30 1.433 . S
C29 H38 0.931 . S
C30 C26 1.323 . S
C30 C29 1.433 . S
C30 H39 0.933 . S
C31 Dy1 2.738 . S
C31 O11 1.255 . S
C31 O12 1.249 . S
C31 C25 1.516 1_554 S
H32 C18 0.930 . S
H33 C19 0.931 . S
H34 C20 0.931 . S
H35 C21 0.933 . S
H36 C27 0.930 . S
H37 C28 0.931 . S
H38 C29 0.931 . S
H39 C30 0.933 . S
Dy40 O43 2.307 . S
Dy40 O45 2.395 . S
Dy40 O46 2.379 . S
Dy40 O48 2.339 . S
Dy40 O50 2.298 . S
Dy40 O54 2.275 . S
Dy40 C62 2.738 . S
Dy41 O44 2.298 . S
Dy41 O47 2.275 . S
Dy41 O49 2.307 . S
Dy41 O51 2.395 . S
Dy41 O52 2.379 . S
Dy41 O55 2.339 . S
Dy41 C71 2.738 . S
C42 O54 1.254 . S
C42 O55 1.257 . S
O43 Dy40 2.307 . S
O43 C53 1.266 . S
O44 Dy41 2.298 . S
O44 C53 1.236 . S
O45 Dy40 2.395 . S
O45 C62 1.255 . S
O46 Dy40 2.379 . S
O46 C62 1.249 . S
O47 Dy41 2.275 . S
O47 C63 1.254 . S
O48 Dy40 2.339 . S
O48 C63 1.257 . S
O49 Dy41 2.307 . S
O49 C64 1.266 . S
O50 Dy40 2.298 . S
O50 C64 1.236 . S
O51 Dy41 2.395 . S
O51 C71 1.255 . S
O52 Dy41 2.379 . S
O52 C71 1.249 . S
C53 O43 1.266 . S
C53 O44 1.236 . S
O54 Dy40 2.275 . S
O54 C42 1.254 . S
O55 Dy41 2.339 . S
O55 C42 1.257 . S
C56 C59 1.344 . S
C56 C60 1.328 . S
C56 C62 1.516 . S
C57 C58 1.304 . S
C57 C61 1.323 . S
C58 C57 1.304 . S
C58 C59 1.371 . S
C58 H72 0.930 . S
C59 C56 1.344 . S
C59 C58 1.371 . S
C59 H73 0.931 . S
C60 C56 1.328 . S
C60 C61 1.433 . S
C60 H74 0.931 . S
C61 C57 1.323 . S
C61 C60 1.433 . S
C61 H75 0.933 . S
C62 Dy40 2.738 . S
C62 O45 1.255 . S
C62 O46 1.249 . S
C62 C56 1.516 . S
C63 O47 1.254 . S
C63 O48 1.257 . S
C64 O49 1.266 . S
C64 O50 1.236 . S
C65 C68 1.344 . S
C65 C69 1.328 . S
C65 C71 1.516 . S
C66 C67 1.304 . S
C66 C70 1.323 . S
C67 C66 1.304 . S
C67 C68 1.371 . S
C67 H76 0.930 . S
C68 C65 1.344 . S
C68 C67 1.371 . S
C68 H77 0.931 . S
C69 C65 1.328 . S
C69 C70 1.433 . S
C69 H78 0.931 . S
C70 C66 1.323 . S
C70 C69 1.433 . S
C70 H79 0.933 . S
C71 Dy41 2.738 . S
C71 O51 1.255 . S
C71 O52 1.249 . S
C71 C65 1.516 . S
H72 C58 0.930 . S
H73 C59 0.931 . S
H74 C60 0.931 . S
H75 C61 0.933 . S
H76 C67 0.930 . S
H77 C68 0.931 . S
H78 C69 0.931 . S
H79 C70 0.933 . S
Dy80 O83 2.307 . S
Dy80 O85 2.395 . S
Dy80 O86 2.379 . S
Dy80 O88 2.339 . S
Dy80 O90 2.298 . S
Dy80 O94 2.275 . S
Dy80 C102 2.738 . S
Dy81 O84 2.298 . S
Dy81 O87 2.275 . S
Dy81 O89 2.307 . S
Dy81 O91 2.395 . S
Dy81 O92 2.379 . S
Dy81 O95 2.339 . S
Dy81 C111 2.738 . S
C82 O94 1.254 . S
C82 O95 1.257 . S
O83 Dy80 2.307 . S
O83 C93 1.266 . S
O84 Dy81 2.298 . S
O84 C93 1.236 . S
O85 Dy80 2.395 . S
O85 C102 1.255 . S
O86 Dy80 2.379 . S
O86 C102 1.249 . S
O87 Dy81 2.275 . S
O87 C103 1.254 . S
O88 Dy80 2.339 . S
O88 C103 1.257 . S
O89 Dy81 2.307 . S
O89 C104 1.266 . S
O90 Dy80 2.298 . S
O90 C104 1.236 . S
O91 Dy81 2.395 . S
O91 C111 1.255 . S
O92 Dy81 2.379 . S
O92 C111 1.249 . S
C93 O83 1.266 . S
C93 O84 1.236 . S
O94 Dy80 2.275 . S
O94 C82 1.254 . S
O95 Dy81 2.339 . S
O95 C82 1.257 . S
C96 C99 1.344 . S
C96 C100 1.328 . S
C96 C102 1.516 . S
C97 C98 1.304 . S
C97 C101 1.323 . S
C98 C97 1.304 . S
C98 C99 1.371 . S
C98 H112 0.930 . S
C99 C96 1.344 . S
C99 C98 1.371 . S
C99 H113 0.931 . S
C100 C96 1.328 . S
C100 C101 1.433 . S
C100 H114 0.931 . S
C101 C97 1.323 . S
C101 C100 1.433 . S
C101 H115 0.933 . S
C102 Dy80 2.738 . S
C102 O85 1.255 . S
C102 O86 1.249 . S
C102 C96 1.516 . S
C103 O87 1.254 . S
C103 O88 1.257 . S
C104 O89 1.266 . S
C104 O90 1.236 . S
C105 C108 1.344 . S
C105 C109 1.328 . S
C105 C111 1.516 . S
C106 C107 1.304 . S
C106 C110 1.323 . S
C107 C106 1.304 . S
C107 C108 1.371 . S
C107 H116 0.930 . S
C108 C105 1.344 . S
C108 C107 1.371 . S
C108 H117 0.931 . S
C109 C105 1.328 . S
C109 C110 1.433 . S
C109 H118 0.931 . S
C110 C106 1.323 . S
C110 C109 1.433 . S
C110 H119 0.933 . S
C111 Dy81 2.738 . S
C111 O91 1.255 . S
C111 O92 1.249 . S
C111 C105 1.516 . S
H112 C98 0.930 . S
H113 C99 0.931 . S
H114 C100 0.931 . S
H115 C101 0.933 . S
H116 C107 0.930 . S
H117 C108 0.931 . S
H118 C109 0.931 . S
H119 C110 0.933 . S
Dy120 O123 2.307 . S
Dy120 O125 2.395 . S
Dy120 O126 2.379 . S
Dy120 O128 2.339 . S
Dy120 O130 2.298 . S
Dy120 O134 2.275 . S
Dy120 C142 2.738 . S
Dy121 O124 2.298 . S
Dy121 O127 2.275 . S
Dy121 O129 2.307 . S
Dy121 O131 2.395 . S
Dy121 O132 2.379 . S
Dy121 O135 2.339 . S
Dy121 C151 2.738 . S
C122 O134 1.254 . S
C122 O135 1.257 . S
O123 Dy120 2.307 . S
O123 C133 1.266 . S
O124 Dy121 2.298 . S
O124 C133 1.236 . S
O125 Dy120 2.395 . S
O125 C142 1.255 . S
O126 Dy120 2.379 . S
O126 C142 1.249 . S
O127 Dy121 2.275 . S
O127 C143 1.254 . S
O128 Dy120 2.339 . S
O128 C143 1.257 . S
O129 Dy121 2.307 . S
O129 C144 1.266 . S
O130 Dy120 2.298 . S
O130 C144 1.236 . S
O131 Dy121 2.395 . S
O131 C151 1.255 . S
O132 Dy121 2.379 . S
O132 C151 1.249 . S
C133 O123 1.266 . S
C133 O124 1.236 . S
O134 Dy120 2.275 . S
O134 C122 1.254 . S
O135 Dy121 2.339 . S
O135 C122 1.257 . S
C136 C139 1.344 . S
C136 C140 1.328 . S
C136 C142 1.516 1_554 S
C137 C138 1.304 . S
C137 C141 1.323 . S
C138 C137 1.304 . S
C138 C139 1.371 . S
C138 H152 0.930 . S
C139 C136 1.344 . S
C139 C138 1.371 . S
C139 H153 0.931 . S
C140 C136 1.328 . S
C140 C141 1.433 . S
C140 H154 0.931 . S
C141 C137 1.323 . S
C141 C140 1.433 . S
C141 H155 0.933 . S
C142 Dy120 2.738 . S
C142 O125 1.255 . S
C142 O126 1.249 . S
C142 C136 1.516 1_556 S
C143 O127 1.254 . S
C143 O128 1.257 . S
C144 O129 1.266 . S
C144 O130 1.236 . S
C145 C148 1.344 . S
C145 C149 1.328 . S
C145 C151 1.516 . S
C146 C147 1.304 . S
C146 C150 1.323 . S
C147 C146 1.304 . S
C147 C148 1.371 . S
C147 H156 0.930 . S
C148 C145 1.344 . S
C148 C147 1.371 . S
C148 H157 0.931 . S
C149 C145 1.328 . S
C149 C150 1.433 . S
C149 H158 0.931 . S
C150 C146 1.323 . S
C150 C149 1.433 . S
C150 H159 0.933 . S
C151 Dy121 2.738 . S
C151 O131 1.255 . S
C151 O132 1.249 . S
C151 C145 1.516 . S
H152 C138 0.930 . S
H153 C139 0.931 . S
H154 C140 0.931 . S
H155 C141 0.933 . S
H156 C147 0.930 . S
H157 C148 0.931 . S
H158 C149 0.931 . S
H159 C150 0.933 . S
Dy160 O163 2.307 . S
Dy160 O165 2.395 . S
Dy160 O166 2.379 . S
Dy160 O168 2.339 . S
Dy160 O170 2.298 1_655 S
Dy160 O174 2.275 1_655 S
Dy160 C182 2.738 . S
Dy161 O164 2.298 . S
Dy161 O167 2.275 . S
Dy161 O169 2.307 . S
Dy161 O171 2.395 . S
Dy161 O172 2.379 . S
Dy161 O175 2.339 . S
Dy161 C191 2.738 . S
C162 O174 1.254 . S
C162 O175 1.257 . S
O163 Dy160 2.307 . S
O163 C173 1.266 . S
O164 Dy161 2.298 . S
O164 C173 1.236 1_455 S
O165 Dy160 2.395 . S
O165 C182 1.255 . S
O166 Dy160 2.379 . S
O166 C182 1.249 . S
O167 Dy161 2.275 . S
O167 C183 1.254 . S
O168 Dy160 2.339 . S
O168 C183 1.257 1_655 S
O169 Dy161 2.307 . S
O169 C184 1.266 . S
O170 Dy160 2.298 1_455 S
O170 C184 1.236 . S
O171 Dy161 2.395 . S
O171 C191 1.255 . S
O172 Dy161 2.379 . S
O172 C191 1.249 . S
C173 O163 1.266 . S
C173 O164 1.236 1_655 S
O174 Dy160 2.275 1_455 S
O174 C162 1.254 . S
O175 Dy161 2.339 . S
O175 C162 1.257 . S
C176 C179 1.344 . S
C176 C180 1.328 . S
C176 C182 1.516 . S
C177 C178 1.304 . S
C177 C181 1.323 . S
C178 C177 1.304 . S
C178 C179 1.371 . S
C178 H192 0.930 . S
C179 C176 1.344 . S
C179 C178 1.371 . S
C179 H193 0.931 . S
C180 C176 1.328 . S
C180 C181 1.433 . S
C180 H194 0.931 . S
C181 C177 1.323 . S
C181 C180 1.433 . S
C181 H195 0.933 . S
C182 Dy160 2.738 . S
C182 O165 1.255 . S
C182 O166 1.249 . S
C182 C176 1.516 . S
C183 O167 1.254 . S
C183 O168 1.257 1_455 S
C184 O169 1.266 . S
C184 O170 1.236 . S
C185 C188 1.344 . S
C185 C189 1.328 . S
C185 C191 1.516 1_554 S
C186 C187 1.304 . S
C186 C190 1.323 . S
C187 C186 1.304 . S
C187 C188 1.371 . S
C187 H196 0.930 . S
C188 C185 1.344 . S
C188 C187 1.371 . S
C188 H197 0.931 . S
C189 C185 1.328 . S
C189 C190 1.433 . S
C189 H198 0.931 . S
C190 C186 1.323 . S
C190 C189 1.433 . S
C190 H199 0.933 . S
C191 Dy161 2.738 . S
C191 O171 1.255 . S
C191 O172 1.249 . S
C191 C185 1.516 1_556 S
H192 C178 0.930 . S
H193 C179 0.931 . S
H194 C180 0.931 . S
H195 C181 0.933 . S
H196 C187 0.930 . S
H197 C188 0.931 . S
H198 C189 0.931 . S
H199 C190 0.933 . S
Dy200 O203 2.307 . S
Dy200 O205 2.395 . S
Dy200 O206 2.379 . S
Dy200 O208 2.339 . S
Dy200 O210 2.298 . S
Dy200 O214 2.275 . S
Dy200 C222 2.738 . S
Dy201 O204 2.298 . S
Dy201 O207 2.275 . S
Dy201 O209 2.307 . S
Dy201 O211 2.395 . S
Dy201 O212 2.379 . S
Dy201 O215 2.339 . S
Dy201 C231 2.738 . S
C202 O214 1.254 . S
C202 O215 1.257 . S
O203 Dy200 2.307 . S
O203 C213 1.266 . S
O204 Dy201 2.298 . S
O204 C213 1.236 . S
O205 Dy200 2.395 . S
O205 C222 1.255 . S
O206 Dy200 2.379 . S
O206 C222 1.249 . S
O207 Dy201 2.275 . S
O207 C223 1.254 . S
O208 Dy200 2.339 . S
O208 C223 1.257 . S
O209 Dy201 2.307 . S
O209 C224 1.266 . S
O210 Dy200 2.298 . S
O210 C224 1.236 . S
O211 Dy201 2.395 . S
O211 C231 1.255 . S
O212 Dy201 2.379 . S
O212 C231 1.249 . S
C213 O203 1.266 . S
C213 O204 1.236 . S
O214 Dy200 2.275 . S
O214 C202 1.254 . S
O215 Dy201 2.339 . S
O215 C202 1.257 . S
C216 C219 1.344 . S
C216 C220 1.328 . S
C216 C222 1.516 1_556 S
C217 C218 1.304 . S
C217 C221 1.323 . S
C218 C217 1.304 . S
C218 C219 1.371 . S
C218 H232 0.930 . S
C219 C216 1.344 . S
C219 C218 1.371 . S
C219 H233 0.931 . S
C220 C216 1.328 . S
C220 C221 1.433 . S
C220 H234 0.931 . S
C221 C217 1.323 . S
C221 C220 1.433 . S
C221 H235 0.933 . S
C222 Dy200 2.738 . S
C222 O205 1.255 . S
C222 O206 1.249 . S
C222 C216 1.516 1_554 S
C223 O207 1.254 . S
C223 O208 1.257 . S
C224 O209 1.266 . S
C224 O210 1.236 . S
C225 C228 1.344 . S
C225 C229 1.328 . S
C225 C231 1.516 . S
C226 C227 1.304 . S
C226 C230 1.323 . S
C227 C226 1.304 . S
C227 C228 1.371 . S
C227 H236 0.930 . S
C228 C225 1.344 . S
C228 C227 1.371 . S
C228 H237 0.931 . S
C229 C225 1.328 . S
C229 C230 1.433 . S
C229 H238 0.931 . S
C230 C226 1.323 . S
C230 C229 1.433 . S
C230 H239 0.933 . S
C231 Dy201 2.738 . S
C231 O211 1.255 . S
C231 O212 1.249 . S
C231 C225 1.516 . S
H232 C218 0.930 . S
H233 C219 0.931 . S
H234 C220 0.931 . S
H235 C221 0.933 . S
H236 C227 0.930 . S
H237 C228 0.931 . S
H238 C229 0.931 . S
H239 C230 0.933 . S
Dy240 O243 2.307 . S
Dy240 O245 2.395 . S
Dy240 O246 2.379 . S
Dy240 O248 2.339 . S
Dy240 O250 2.298 . S
Dy240 O254 2.275 . S
Dy240 C262 2.738 . S
Dy241 O244 2.298 . S
Dy241 O247 2.275 . S
Dy241 O249 2.307 . S
Dy241 O251 2.395 . S
Dy241 O252 2.379 . S
Dy241 O255 2.339 . S
Dy241 C271 2.738 . S
C242 O254 1.254 . S
C242 O255 1.257 . S
O243 Dy240 2.307 . S
O243 C253 1.266 . S
O244 Dy241 2.298 . S
O244 C253 1.236 . S
O245 Dy240 2.395 . S
O245 C262 1.255 . S
O246 Dy240 2.379 . S
O246 C262 1.249 . S
O247 Dy241 2.275 . S
O247 C263 1.254 . S
O248 Dy240 2.339 . S
O248 C263 1.257 . S
O249 Dy241 2.307 . S
O249 C264 1.266 . S
O250 Dy240 2.298 . S
O250 C264 1.236 . S
O251 Dy241 2.395 . S
O251 C271 1.255 . S
O252 Dy241 2.379 . S
O252 C271 1.249 . S
C253 O243 1.266 . S
C253 O244 1.236 . S
O254 Dy240 2.275 . S
O254 C242 1.254 . S
O255 Dy241 2.339 . S
O255 C242 1.257 . S
C256 C259 1.344 . S
C256 C260 1.328 . S
C256 C262 1.516 . S
C257 C258 1.304 . S
C257 C261 1.323 . S
C258 C257 1.304 . S
C258 C259 1.371 . S
C258 H272 0.930 . S
C259 C256 1.344 . S
C259 C258 1.371 . S
C259 H273 0.931 . S
C260 C256 1.328 . S
C260 C261 1.433 . S
C260 H274 0.931 . S
C261 C257 1.323 . S
C261 C260 1.433 . S
C261 H275 0.933 . S
C262 Dy240 2.738 . S
C262 O245 1.255 . S
C262 O246 1.249 . S
C262 C256 1.516 . S
C263 O247 1.254 . S
C263 O248 1.257 . S
C264 O249 1.266 . S
C264 O250 1.236 . S
C265 C268 1.344 . S
C265 C269 1.328 . S
C265 C271 1.516 . S
C266 C267 1.304 . S
C266 C270 1.323 . S
C267 C266 1.304 . S
C267 C268 1.371 . S
C267 H276 0.930 . S
C268 C265 1.344 . S
C268 C267 1.371 . S
C268 H277 0.931 . S
C269 C265 1.328 . S
C269 C270 1.433 . S
C269 H278 0.931 . S
C270 C266 1.323 . S
C270 C269 1.433 . S
C270 H279 0.933 . S
C271 Dy241 2.738 . S
C271 O251 1.255 . S
C271 O252 1.249 . S
C271 C265 1.516 . S
H272 C258 0.930 . S
H273 C259 0.931 . S
H274 C260 0.931 . S
H275 C261 0.933 . S
H276 C267 0.930 . S
H277 C268 0.931 . S
H278 C269 0.931 . S
H279 C270 0.933 . S
Dy280 O283 2.307 . S
Dy280 O285 2.395 . S
Dy280 O286 2.379 . S
Dy280 O288 2.339 . S
Dy280 O290 2.298 . S
Dy280 O294 2.275 . S
Dy280 C302 2.738 . S
Dy281 O284 2.298 . S
Dy281 O287 2.275 . S
Dy281 O289 2.307 . S
Dy281 O291 2.395 . S
Dy281 O292 2.379 . S
Dy281 O295 2.339 . S
Dy281 C311 2.738 . S
C282 O294 1.254 . S
C282 O295 1.257 . S
O283 Dy280 2.307 . S
O283 C293 1.266 . S
O284 Dy281 2.298 . S
O284 C293 1.236 . S
O285 Dy280 2.395 . S
O285 C302 1.255 . S
O286 Dy280 2.379 . S
O286 C302 1.249 . S
O287 Dy281 2.275 . S
O287 C303 1.254 . S
O288 Dy280 2.339 . S
O288 C303 1.257 . S
O289 Dy281 2.307 . S
O289 C304 1.266 . S
O290 Dy280 2.298 . S
O290 C304 1.236 . S
O291 Dy281 2.395 . S
O291 C311 1.255 . S
O292 Dy281 2.379 . S
O292 C311 1.249 . S
C293 O283 1.266 . S
C293 O284 1.236 . S
O294 Dy280 2.275 . S
O294 C282 1.254 . S
O295 Dy281 2.339 . S
O295 C282 1.257 . S
C296 C299 1.344 . S
C296 C300 1.328 . S
C296 C302 1.516 . S
C297 C298 1.304 . S
C297 C301 1.323 . S
C298 C297 1.304 . S
C298 C299 1.371 . S
C298 H312 0.930 . S
C299 C296 1.344 . S
C299 C298 1.371 . S
C299 H313 0.931 . S
C300 C296 1.328 . S
C300 C301 1.433 . S
C300 H314 0.931 . S
C301 C297 1.323 . S
C301 C300 1.433 . S
C301 H315 0.933 . S
C302 Dy280 2.738 . S
C302 O285 1.255 . S
C302 O286 1.249 . S
C302 C296 1.516 . S
C303 O287 1.254 . S
C303 O288 1.257 . S
C304 O289 1.266 . S
C304 O290 1.236 . S
C305 C308 1.344 . S
C305 C309 1.328 . S
C305 C311 1.516 . S
C306 C307 1.304 . S
C306 C310 1.323 . S
C307 C306 1.304 . S
C307 C308 1.371 . S
C307 H316 0.930 . S
C308 C305 1.344 . S
C308 C307 1.371 . S
C308 H317 0.931 . S
C309 C305 1.328 . S
C309 C310 1.433 . S
C309 H318 0.931 . S
C310 C306 1.323 . S
C310 C309 1.433 . S
C310 H319 0.933 . S
C311 Dy281 2.738 . S
C311 O291 1.255 . S
C311 O292 1.249 . S
C311 C305 1.516 . S
H312 C298 0.930 . S
H313 C299 0.931 . S
H314 C300 0.931 . S
H315 C301 0.933 . S
H316 C307 0.930 . S
H317 C308 0.931 . S
H318 C309 0.931 . S
H319 C310 0.933 . S
Dy320 O323 2.307 . S
Dy320 O325 2.395 . S
Dy320 O326 2.379 . S
Dy320 O328 2.339 . S
Dy320 O330 2.298 . S
Dy320 O334 2.275 . S
Dy320 C342 2.738 . S
Dy321 O324 2.298 . S
Dy321 O327 2.275 . S
Dy321 O329 2.307 . S
Dy321 O331 2.395 . S
Dy321 O332 2.379 . S
Dy321 O335 2.339 . S
Dy321 C351 2.738 . S
C322 O334 1.254 . S
C322 O335 1.257 . S
O323 Dy320 2.307 . S
O323 C333 1.266 . S
O324 Dy321 2.298 . S
O324 C333 1.236 . S
O325 Dy320 2.395 . S
O325 C342 1.255 . S
O326 Dy320 2.379 . S
O326 C342 1.249 . S
O327 Dy321 2.275 . S
O327 C343 1.254 . S
O328 Dy320 2.339 . S
O328 C343 1.257 . S
O329 Dy321 2.307 . S
O329 C344 1.266 . S
O330 Dy320 2.298 . S
O330 C344 1.236 . S
O331 Dy321 2.395 . S
O331 C351 1.255 . S
O332 Dy321 2.379 . S
O332 C351 1.249 . S
C333 O323 1.266 . S
C333 O324 1.236 . S
O334 Dy320 2.275 . S
O334 C322 1.254 . S
O335 Dy321 2.339 . S
O335 C322 1.257 . S
C336 C339 1.344 . S
C336 C340 1.328 . S
C336 C342 1.516 . S
C337 C338 1.304 . S
C337 C341 1.323 . S
C338 C337 1.304 . S
C338 C339 1.371 . S
C338 H352 0.930 . S
C339 C336 1.344 . S
C339 C338 1.371 . S
C339 H353 0.931 . S
C340 C336 1.328 . S
C340 C341 1.433 . S
C340 H354 0.931 . S
C341 C337 1.323 . S
C341 C340 1.433 . S
C341 H355 0.933 . S
C342 Dy320 2.738 . S
C342 O325 1.255 . S
C342 O326 1.249 . S
C342 C336 1.516 . S
C343 O327 1.254 . S
C343 O328 1.257 . S
C344 O329 1.266 . S
C344 O330 1.236 . S
C345 C348 1.344 . S
C345 C349 1.328 . S
C345 C351 1.516 . S
C346 C347 1.304 . S
C346 C350 1.323 . S
C347 C346 1.304 . S
C347 C348 1.371 . S
C347 H356 0.930 . S
C348 C345 1.344 . S
C348 C347 1.371 . S
C348 H357 0.931 . S
C349 C345 1.328 . S
C349 C350 1.433 . S
C349 H358 0.931 . S
C350 C346 1.323 . S
C350 C349 1.433 . S
C350 H359 0.933 . S
C351 Dy321 2.738 . S
C351 O331 1.255 . S
C351 O332 1.249 . S
C351 C345 1.516 . S
H352 C338 0.930 . S
H353 C339 0.931 . S
H354 C340 0.931 . S
H355 C341 0.933 . S
H356 C347 0.930 . S
H357 C348 0.931 . S
H358 C349 0.931 . S
H359 C350 0.933 . S
Dy360 O363 2.307 . S
Dy360 O365 2.395 . S
Dy360 O366 2.379 . S
Dy360 O368 2.339 . S
Dy360 O370 2.298 . S
Dy360 O374 2.275 . S
Dy360 C382 2.738 . S
Dy361 O364 2.298 . S
Dy361 O367 2.275 . S
Dy361 O369 2.307 . S
Dy361 O371 2.395 . S
Dy361 O372 2.379 . S
Dy361 O375 2.339 . S
Dy361 C391 2.738 . S
C362 O374 1.254 . S
C362 O375 1.257 . S
O363 Dy360 2.307 . S
O363 C373 1.266 . S
O364 Dy361 2.298 . S
O364 C373 1.236 . S
O365 Dy360 2.395 . S
O365 C382 1.255 . S
O366 Dy360 2.379 . S
O366 C382 1.249 . S
O367 Dy361 2.275 . S
O367 C383 1.254 . S
O368 Dy360 2.339 . S
O368 C383 1.257 . S
O369 Dy361 2.307 . S
O369 C384 1.266 . S
O370 Dy360 2.298 . S
O370 C384 1.236 . S
O371 Dy361 2.395 . S
O371 C391 1.255 . S
O372 Dy361 2.379 . S
O372 C391 1.249 . S
C373 O363 1.266 . S
C373 O364 1.236 . S
O374 Dy360 2.275 . S
O374 C362 1.254 . S
O375 Dy361 2.339 . S
O375 C362 1.257 . S
C376 C379 1.344 . S
C376 C380 1.328 . S
C376 C382 1.516 1_556 S
C377 C378 1.304 . S
C377 C381 1.323 . S
C378 C377 1.304 . S
C378 C379 1.371 . S
C378 H392 0.930 . S
C379 C376 1.344 . S
C379 C378 1.371 . S
C379 H393 0.931 . S
C380 C376 1.328 . S
C380 C381 1.433 . S
C380 H394 0.931 . S
C381 C377 1.323 . S
C381 C380 1.433 . S
C381 H395 0.933 . S
C382 Dy360 2.738 . S
C382 O365 1.255 . S
C382 O366 1.249 . S
C382 C376 1.516 1_554 S
C383 O367 1.254 . S
C383 O368 1.257 . S
C384 O369 1.266 . S
C384 O370 1.236 . S
C385 C388 1.344 . S
C385 C389 1.328 . S
C385 C391 1.516 . S
C386 C387 1.304 . S
C386 C390 1.323 . S
C387 C386 1.304 . S
C387 C388 1.371 . S
C387 H396 0.930 . S
C388 C385 1.344 . S
C388 C387 1.371 . S
C388 H397 0.931 . S
C389 C385 1.328 . S
C389 C390 1.433 . S
C389 H398 0.931 . S
C390 C386 1.323 . S
C390 C389 1.433 . S
C390 H399 0.933 . S
C391 Dy361 2.738 . S
C391 O371 1.255 . S
C391 O372 1.249 . S
C391 C385 1.516 . S
H392 C378 0.930 . S
H393 C379 0.931 . S
H394 C380 0.931 . S
H395 C381 0.933 . S
H396 C387 0.930 . S
H397 C388 0.931 . S
H398 C389 0.931 . S
H399 C390 0.933 . S
Dy400 O403 2.307 . S
Dy400 O405 2.395 . S
Dy400 O406 2.379 . S
Dy400 O408 2.339 . S
Dy400 O410 2.298 . S
Dy400 O414 2.275 . S
Dy400 C422 2.738 . S
Dy401 O404 2.298 . S
Dy401 O407 2.275 . S
Dy401 O409 2.307 . S
Dy401 O411 2.395 . S
Dy401 O412 2.379 . S
Dy401 O415 2.339 . S
Dy401 C431 2.738 . S
C402 O414 1.254 . S
C402 O415 1.257 . S
O403 Dy400 2.307 . S
O403 C413 1.266 . S
O404 Dy401 2.298 . S
O404 C413 1.236 . S
O405 Dy400 2.395 . S
O405 C422 1.255 . S
O406 Dy400 2.379 . S
O406 C422 1.249 . S
O407 Dy401 2.275 . S
O407 C423 1.254 . S
O408 Dy400 2.339 . S
O408 C423 1.257 . S
O409 Dy401 2.307 . S
O409 C424 1.266 . S
O410 Dy400 2.298 . S
O410 C424 1.236 . S
O411 Dy401 2.395 . S
O411 C431 1.255 . S
O412 Dy401 2.379 . S
O412 C431 1.249 . S
C413 O403 1.266 . S
C413 O404 1.236 . S
O414 Dy400 2.275 . S
O414 C402 1.254 . S
O415 Dy401 2.339 . S
O415 C402 1.257 . S
C416 C419 1.344 . S
C416 C420 1.328 . S
C416 C422 1.516 1_554 S
C417 C418 1.304 . S
C417 C421 1.323 . S
C418 C417 1.304 . S
C418 C419 1.371 . S
C418 H432 0.930 . S
C419 C416 1.344 . S
C419 C418 1.371 . S
C419 H433 0.931 . S
C420 C416 1.328 . S
C420 C421 1.433 . S
C420 H434 0.931 . S
C421 C417 1.323 . S
C421 C420 1.433 . S
C421 H435 0.933 . S
C422 Dy400 2.738 . S
C422 O405 1.255 . S
C422 O406 1.249 . S
C422 C416 1.516 1_556 S
C423 O407 1.254 . S
C423 O408 1.257 . S
C424 O409 1.266 . S
C424 O410 1.236 . S
C425 C428 1.344 . S
C425 C429 1.328 . S
C425 C431 1.516 . S
C426 C427 1.304 . S
C426 C430 1.323 . S
C427 C426 1.304 . S
C427 C428 1.371 . S
C427 H436 0.930 . S
C428 C425 1.344 . S
C428 C427 1.371 . S
C428 H437 0.931 . S
C429 C425 1.328 . S
C429 C430 1.433 . S
C429 H438 0.931 . S
C430 C426 1.323 . S
C430 C429 1.433 . S
C430 H439 0.933 . S
C431 Dy401 2.738 . S
C431 O411 1.255 . S
C431 O412 1.249 . S
C431 C425 1.516 . S
H432 C418 0.930 . S
H433 C419 0.931 . S
H434 C420 0.931 . S
H435 C421 0.933 . S
H436 C427 0.930 . S
H437 C428 0.931 . S
H438 C429 0.931 . S
H439 C430 0.933 . S
Dy440 O443 2.307 . S
Dy440 O445 2.395 . S
Dy440 O446 2.379 . S
Dy440 O448 2.339 . S
Dy440 O450 2.298 . S
Dy440 O454 2.275 . S
Dy440 C462 2.738 . S
Dy441 O444 2.298 . S
Dy441 O447 2.275 . S
Dy441 O449 2.307 . S
Dy441 O451 2.395 . S
Dy441 O452 2.379 . S
Dy441 O455 2.339 . S
Dy441 C471 2.738 . S
C442 O454 1.254 . S
C442 O455 1.257 . S
O443 Dy440 2.307 . S
O443 C453 1.266 . S
O444 Dy441 2.298 . S
O444 C453 1.236 . S
O445 Dy440 2.395 . S
O445 C462 1.255 . S
O446 Dy440 2.379 . S
O446 C462 1.249 . S
O447 Dy441 2.275 . S
O447 C463 1.254 . S
O448 Dy440 2.339 . S
O448 C463 1.257 . S
O449 Dy441 2.307 . S
O449 C464 1.266 . S
O450 Dy440 2.298 . S
O450 C464 1.236 . S
O451 Dy441 2.395 . S
O451 C471 1.255 . S
O452 Dy441 2.379 . S
O452 C471 1.249 . S
C453 O443 1.266 . S
C453 O444 1.236 . S
O454 Dy440 2.275 . S
O454 C442 1.254 . S
O455 Dy441 2.339 . S
O455 C442 1.257 . S
C456 C459 1.344 . S
C456 C460 1.328 . S
C456 C462 1.516 . S
C457 C458 1.304 . S
C457 C461 1.323 . S
C458 C457 1.304 . S
C458 C459 1.371 . S
C458 H472 0.930 . S
C459 C456 1.344 . S
C459 C458 1.371 . S
C459 H473 0.931 . S
C460 C456 1.328 . S
C460 C461 1.433 . S
C460 H474 0.931 . S
C461 C457 1.323 . S
C461 C460 1.433 . S
C461 H475 0.933 . S
C462 Dy440 2.738 . S
C462 O445 1.255 . S
C462 O446 1.249 . S
C462 C456 1.516 . S
C463 O447 1.254 . S
C463 O448 1.257 . S
C464 O449 1.266 . S
C464 O450 1.236 . S
C465 C468 1.344 . S
C465 C469 1.328 . S
C465 C471 1.516 . S
C466 C467 1.304 . S
C466 C470 1.323 . S
C467 C466 1.304 . S
C467 C468 1.371 . S
C467 H476 0.930 . S
C468 C465 1.344 . S
C468 C467 1.371 . S
C468 H477 0.931 . S
C469 C465 1.328 . S
C469 C470 1.433 . S
C469 H478 0.931 . S
C470 C466 1.323 . S
C470 C469 1.433 . S
C470 H479 0.933 . S
C471 Dy441 2.738 . S
C471 O451 1.255 . S
C471 O452 1.249 . S
C471 C465 1.516 . S
H472 C458 0.930 . S
H473 C459 0.931 . S
H474 C460 0.931 . S
H475 C461 0.933 . S
H476 C467 0.930 . S
H477 C468 0.931 . S
H478 C469 0.931 . S
H479 C470 0.933 . S
Dy480 O483 2.307 . S
Dy480 O485 2.395 . S
Dy480 O486 2.379 . S
Dy480 O488 2.339 . S
Dy480 O490 2.298 . S
Dy480 O494 2.275 . S
Dy480 C502 2.738 . S
Dy481 O484 2.298 . S
Dy481 O487 2.275 . S
Dy481 O489 2.307 . S
Dy481 O491 2.395 . S
Dy481 O492 2.379 . S
Dy481 O495 2.339 . S
Dy481 C511 2.738 . S
C482 O494 1.254 . S
C482 O495 1.257 . S
O483 Dy480 2.307 . S
O483 C493 1.266 . S
O484 Dy481 2.298 . S
O484 C493 1.236 . S
O485 Dy480 2.395 . S
O485 C502 1.255 . S
O486 Dy480 2.379 . S
O486 C502 1.249 . S
O487 Dy481 2.275 . S
O487 C503 1.254 . S
O488 Dy480 2.339 . S
O488 C503 1.257 . S
O489 Dy481 2.307 . S
O489 C504 1.266 . S
O490 Dy480 2.298 . S
O490 C504 1.236 . S
O491 Dy481 2.395 . S
O491 C511 1.255 . S
O492 Dy481 2.379 . S
O492 C511 1.249 . S
C493 O483 1.266 . S
C493 O484 1.236 . S
O494 Dy480 2.275 . S
O494 C482 1.254 . S
O495 Dy481 2.339 . S
O495 C482 1.257 . S
C496 C499 1.344 . S
C496 C500 1.328 . S
C496 C502 1.516 . S
C497 C498 1.304 . S
C497 C501 1.323 . S
C498 C497 1.304 . S
C498 C499 1.371 . S
C498 H512 0.930 . S
C499 C496 1.344 . S
C499 C498 1.371 . S
C499 H513 0.931 . S
C500 C496 1.328 . S
C500 C501 1.433 . S
C500 H514 0.931 . S
C501 C497 1.323 . S
C501 C500 1.433 . S
C501 H515 0.933 . S
C502 Dy480 2.738 . S
C502 O485 1.255 . S
C502 O486 1.249 . S
C502 C496 1.516 . S
C503 O487 1.254 . S
C503 O488 1.257 . S
C504 O489 1.266 . S
C504 O490 1.236 . S
C505 C508 1.344 . S
C505 C509 1.328 . S
C505 C511 1.516 . S
C506 C507 1.304 . S
C506 C510 1.323 . S
C507 C506 1.304 . S
C507 C508 1.371 . S
C507 H516 0.930 . S
C508 C505 1.344 . S
C508 C507 1.371 . S
C508 H517 0.931 . S
C509 C505 1.328 . S
C509 C510 1.433 . S
C509 H518 0.931 . S
C510 C506 1.323 . S
C510 C509 1.433 . S
C510 H519 0.933 . S
C511 Dy481 2.738 . S
C511 O491 1.255 . S
C511 O492 1.249 . S
C511 C505 1.516 . S
H512 C498 0.930 . S
H513 C499 0.931 . S
H514 C500 0.931 . S
H515 C501 0.933 . S
H516 C507 0.930 . S
H517 C508 0.931 . S
H518 C509 0.931 . S
H519 C510 0.933 . S
Dy520 O523 2.307 . S
Dy520 O525 2.395 . S
Dy520 O526 2.379 . S
Dy520 O528 2.339 . S
Dy520 O530 2.308 . S
Dy520 O534 2.275 . S
Dy520 C542 2.738 . S
Dy521 O524 2.298 1_655 S
Dy521 O527 2.275 . S
Dy521 O529 2.307 . S
Dy521 O531 2.395 . S
Dy521 O532 2.379 . S
Dy521 O535 2.339 . S
Dy521 C551 2.738 . S
C522 O534 1.254 . S
C522 O535 1.257 1_455 S
O523 Dy520 2.307 . S
O523 C533 1.266 . S
O524 Dy521 2.298 1_455 S
O524 C533 1.236 . S
O525 Dy520 2.395 . S
O525 C542 1.255 . S
O526 Dy520 2.379 . S
O526 C542 1.249 . S
O527 Dy521 2.275 . S
O527 C543 1.254 1_655 S
O528 Dy520 2.339 . S
O528 C543 1.257 . S
O529 Dy521 2.307 . S
O529 C544 1.266 . S
O530 Dy520 2.308 . S
O530 C544 1.225 1_455 S
O531 Dy521 2.395 . S
O531 C551 1.255 . S
O532 Dy521 2.379 . S
O532 C551 1.249 . S
C533 O523 1.266 . S
C533 O524 1.236 . S
O534 Dy520 2.275 . S
O534 C522 1.254 . S
O535 Dy521 2.339 . S
O535 C522 1.257 1_655 S
C536 C539 1.344 . S
C536 C540 1.328 . S
C536 C542 1.516 . S
C537 C538 1.304 . S
C537 C541 1.323 . S
C538 C537 1.304 . S
C538 C539 1.371 . S
C538 H552 0.930 . S
C539 C536 1.344 . S
C539 C538 1.371 . S
C539 H553 0.931 . S
C540 C536 1.328 . S
C540 C541 1.433 . S
C540 H554 0.931 . S
C541 C537 1.323 . S
C541 C540 1.433 . S
C541 H555 0.933 . S
C542 Dy520 2.738 . S
C542 O525 1.255 . S
C542 O526 1.249 . S
C542 C536 1.516 . S
C543 O527 1.254 1_455 S
C543 O528 1.257 . S
C544 O529 1.266 . S
C544 O530 1.225 1_655 S
C545 C548 1.344 . S
C545 C549 1.328 . S
C545 C551 1.516 1_556 S
C546 C547 1.304 . S
C546 C550 1.323 . S
C547 C546 1.304 . S
C547 C548 1.371 . S
C547 H556 0.930 . S
C548 C545 1.344 . S
C548 C547 1.371 . S
C548 H557 0.931 . S
C549 C545 1.328 . S
C549 C550 1.433 . S
C549 H558 0.931 . S
C550 C546 1.323 . S
C550 C549 1.433 . S
C550 H559 0.933 . S
C551 Dy521 2.738 . S
C551 O531 1.255 . S
C551 O532 1.249 . S
C551 C545 1.516 1_554 S
H552 C538 0.930 . S
H553 C539 0.931 . S
H554 C540 0.931 . S
H555 C541 0.933 . S
H556 C547 0.930 . S
H557 C548 0.931 . S
H558 C549 0.931 . S
H559 C550 0.933 . S
Dy560 O563 2.307 . S
Dy560 O565 2.395 . S
Dy560 O566 2.379 . S
Dy560 O568 2.339 . S
Dy560 O570 2.298 . S
Dy560 O574 2.275 . S
Dy560 C582 2.738 . S
Dy561 O564 2.298 . S
Dy561 O567 2.275 . S
Dy561 O569 2.307 . S
Dy561 O571 2.395 . S
Dy561 O572 2.379 . S
Dy561 O575 2.339 . S
Dy561 C591 2.738 . S
C562 O574 1.254 . S
C562 O575 1.257 . S
O563 Dy560 2.307 . S
O563 C573 1.266 . S
O564 Dy561 2.298 . S
O564 C573 1.236 . S
O565 Dy560 2.395 . S
O565 C582 1.255 . S
O566 Dy560 2.379 . S
O566 C582 1.249 . S
O567 Dy561 2.275 . S
O567 C583 1.254 . S
O568 Dy560 2.339 . S
O568 C583 1.257 . S
O569 Dy561 2.307 . S
O569 C584 1.266 . S
O570 Dy560 2.298 . S
O570 C584 1.236 . S
O571 Dy561 2.395 . S
O571 C591 1.255 . S
O572 Dy561 2.379 . S
O572 C591 1.249 . S
C573 O563 1.266 . S
C573 O564 1.236 . S
O574 Dy560 2.275 . S
O574 C562 1.254 . S
O575 Dy561 2.339 . S
O575 C562 1.257 . S
C576 C579 1.344 . S
C576 C580 1.328 . S
C576 C582 1.516 . S
C577 C578 1.304 . S
C577 C581 1.323 . S
C578 C577 1.304 . S
C578 C579 1.371 . S
C578 H592 0.930 . S
C579 C576 1.344 . S
C579 C578 1.371 . S
C579 H593 0.931 . S
C580 C576 1.328 . S
C580 C581 1.433 . S
C580 H594 0.931 . S
C581 C577 1.323 . S
C581 C580 1.433 . S
C581 H595 0.933 . S
C582 Dy560 2.738 . S
C582 O565 1.255 . S
C582 O566 1.249 . S
C582 C576 1.516 . S
C583 O567 1.254 . S
C583 O568 1.257 . S
C584 O569 1.266 . S
C584 O570 1.236 . S
C585 C588 1.344 . S
C585 C589 1.328 . S
C585 C591 1.516 . S
C586 C587 1.304 . S
C586 C590 1.323 . S
C587 C586 1.304 . S
C587 C588 1.371 . S
C587 H596 0.930 . S
C588 C585 1.344 . S
C588 C587 1.371 . S
C588 H597 0.931 . S
C589 C585 1.328 . S
C589 C590 1.433 . S
C589 H598 0.931 . S
C590 C586 1.323 . S
C590 C589 1.433 . S
C590 H599 0.933 . S
C591 Dy561 2.738 . S
C591 O571 1.255 . S
C591 O572 1.249 . S
C591 C585 1.516 . S
H592 C578 0.930 . S
H593 C579 0.931 . S
H594 C580 0.931 . S
H595 C581 0.933 . S
H596 C587 0.930 . S
H597 C588 0.931 . S
H598 C589 0.931 . S
H599 C590 0.933 . S
Dy600 O603 2.307 . S
Dy600 O605 2.395 . S
Dy600 O606 2.379 . S
Dy600 O608 2.339 . S
Dy600 O610 2.308 . S
Dy600 O614 2.275 . S
Dy600 C622 2.738 . S
Dy601 O604 2.298 1_655 S
Dy601 O607 2.275 . S
Dy601 O609 2.307 . S
Dy601 O611 2.395 . S
Dy601 O612 2.379 . S
Dy601 O615 2.339 . S
Dy601 C631 2.738 . S
C602 O614 1.254 . S
C602 O615 1.257 1_455 S
O603 Dy600 2.307 . S
O603 C613 1.266 . S
O604 Dy601 2.298 1_455 S
O604 C613 1.236 . S
O605 Dy600 2.395 . S
O605 C622 1.255 . S
O606 Dy600 2.379 . S
O606 C622 1.249 . S
O607 Dy601 2.275 . S
O607 C623 1.254 1_655 S
O608 Dy600 2.339 . S
O608 C623 1.257 . S
O609 Dy601 2.307 . S
O609 C624 1.266 . S
O610 Dy600 2.308 . S
O610 C624 1.225 1_455 S
O611 Dy601 2.395 . S
O611 C631 1.255 . S
O612 Dy601 2.379 . S
O612 C631 1.249 . S
C613 O603 1.266 . S
C613 O604 1.236 . S
O614 Dy600 2.275 . S
O614 C602 1.254 . S
O615 Dy601 2.339 . S
O615 C602 1.257 1_655 S
C616 C619 1.344 . S
C616 C620 1.328 . S
C616 C622 1.516 . S
C617 C618 1.304 . S
C617 C621 1.323 . S
C618 C617 1.304 . S
C618 C619 1.371 . S
C618 H632 0.930 . S
C619 C616 1.344 . S
C619 C618 1.371 . S
C619 H633 0.931 . S
C620 C616 1.328 . S
C620 C621 1.433 . S
C620 H634 0.931 . S
C621 C617 1.323 . S
C621 C620 1.433 . S
C621 H635 0.933 . S
C622 Dy600 2.738 . S
C622 O605 1.255 . S
C622 O606 1.249 . S
C622 C616 1.516 . S
C623 O607 1.254 1_455 S
C623 O608 1.257 . S
C624 O609 1.266 . S
C624 O610 1.225 1_655 S
C625 C628 1.344 . S
C625 C629 1.328 . S
C625 C631 1.516 1_554 S
C626 C627 1.304 . S
C626 C630 1.323 . S
C627 C626 1.304 . S
C627 C628 1.371 . S
C627 H636 0.930 . S
C628 C625 1.344 . S
C628 C627 1.371 . S
C628 H637 0.931 . S
C629 C625 1.328 . S
C629 C630 1.433 . S
C629 H638 0.931 . S
C630 C626 1.323 . S
C630 C629 1.433 . S
C630 H639 0.933 . S
C631 Dy601 2.738 . S
C631 O611 1.255 . S
C631 O612 1.249 . S
C631 C625 1.516 1_556 S
H632 C618 0.930 . S
H633 C619 0.931 . S
H634 C620 0.931 . S
H635 C621 0.933 . S
H636 C627 0.930 . S
H637 C628 0.931 . S
H638 C629 0.931 . S
H639 C630 0.933 . S
H640 C646 0.930 . S
H641 C649 0.930 . S
H642 C650 0.930 . S
H643 C651 0.930 . S
H644 C654 0.930 . S
H645 C655 0.930 . S
C646 H640 0.930 . S
C646 C647 1.355 . S
C646 C648 1.415 . S
C647 C646 1.355 . S
C647 C649 1.419 . S
C648 C646 1.415 . S
C648 C653 1.425 . S
C648 C655 1.409 . S
C649 H641 0.930 . S
C649 C647 1.419 . S
C649 C650 1.362 . S
C650 H642 0.930 . S
C650 C649 1.362 . S
C650 C653 1.409 . S
C651 H643 0.930 . S
C651 C652 1.355 . S
C651 C653 1.415 . S
C652 C651 1.355 . S
C652 C654 1.419 . S
C653 C648 1.425 . S
C653 C650 1.409 . S
C653 C651 1.415 . S
C654 H644 0.930 . S
C654 C652 1.419 . S
C654 C655 1.362 . S
C655 H645 0.930 . S
C655 C648 1.409 . S
C655 C654 1.362 . S
H656 C662 0.930 . S
H657 C665 0.930 . S
H658 C666 0.930 . S
H659 C667 0.930 . S
H660 C670 0.930 . S
H661 C671 0.930 . S
C662 H656 0.930 . S
C662 C663 1.355 . S
C662 C664 1.415 . S
C663 C662 1.355 . S
C663 C665 1.419 . S
C664 C662 1.415 . S
C664 C669 1.425 . S
C664 C671 1.409 . S
C665 H657 0.930 . S
C665 C663 1.419 . S
C665 C666 1.362 . S
C666 H658 0.930 . S
C666 C665 1.362 . S
C666 C669 1.409 . S
C667 H659 0.930 . S
C667 C668 1.355 . S
C667 C669 1.415 . S
C668 C667 1.355 . S
C668 C670 1.419 . S
C669 C664 1.425 . S
C669 C666 1.409 . S
C669 C667 1.415 . S
C670 H660 0.930 . S
C670 C668 1.419 . S
C670 C671 1.362 . S
C671 H661 0.930 . S
C671 C664 1.409 . S
C671 C670 1.362 . S
H672 C678 0.930 . S
H673 C681 0.930 . S
H674 C682 0.930 . S
H675 C683 0.930 . S
H676 C686 0.930 . S
H677 C687 0.930 . S
C678 H672 0.930 . S
C678 C679 1.355 . S
C678 C680 1.415 . S
C679 C678 1.355 . S
C679 C681 1.419 . S
C680 C678 1.415 . S
C680 C685 1.425 . S
C680 C687 1.409 . S
C681 H673 0.930 . S
C681 C679 1.419 . S
C681 C682 1.362 . S
C682 H674 0.930 . S
C682 C681 1.362 . S
C682 C685 1.409 . S
C683 H675 0.930 . S
C683 C684 1.355 . S
C683 C685 1.415 . S
C684 C683 1.355 . S
C684 C686 1.419 . S
C685 C680 1.425 . S
C685 C682 1.409 . S
C685 C683 1.415 . S
C686 H676 0.930 . S
C686 C684 1.419 . S
C686 C687 1.362 . S
C687 H677 0.930 . S
C687 C680 1.409 . S
C687 C686 1.362 . S
H688 C694 0.930 . S
H689 C697 0.930 . S
H690 C698 0.930 . S
H691 C699 0.930 . S
H692 C702 0.930 . S
H693 C703 0.930 . S
C694 H688 0.930 . S
C694 C695 1.355 . S
C694 C696 1.415 . S
C695 C694 1.355 . S
C695 C697 1.419 . S
C696 C694 1.415 . S
C696 C701 1.425 . S
C696 C703 1.409 . S
C697 H689 0.930 . S
C697 C695 1.419 . S
C697 C698 1.362 . S
C698 H690 0.930 . S
C698 C697 1.362 . S
C698 C701 1.409 . S
C699 H691 0.930 . S
C699 C700 1.355 . S
C699 C701 1.415 . S
C700 C699 1.355 . S
C700 C702 1.419 . S
C701 C696 1.425 . S
C701 C698 1.409 . S
C701 C699 1.415 . S
C702 H692 0.930 . S
C702 C700 1.419 . S
C702 C703 1.362 . S
C703 H693 0.930 . S
C703 C696 1.409 . S
C703 C702 1.362 . S
H704 C710 0.930 . S
H705 C713 0.930 . S
H706 C714 0.930 . S
H707 C715 0.930 . S
H708 C718 0.930 . S
H709 C719 0.930 . S
C710 H704 0.930 . S
C710 C711 1.355 . S
C710 C712 1.415 . S
C711 C710 1.355 . S
C711 C713 1.419 . S
C712 C710 1.415 . S
C712 C717 1.425 . S
C712 C719 1.409 . S
C713 H705 0.930 . S
C713 C711 1.419 . S
C713 C714 1.362 . S
C714 H706 0.930 . S
C714 C713 1.362 . S
C714 C717 1.409 . S
C715 H707 0.930 . S
C715 C716 1.355 . S
C715 C717 1.415 . S
C716 C715 1.355 . S
C716 C718 1.419 . S
C717 C712 1.425 . S
C717 C714 1.409 . S
C717 C715 1.415 . S
C718 H708 0.930 . S
C718 C716 1.419 . S
C718 C719 1.362 . S
C719 H709 0.930 . S
C719 C712 1.409 . S
C719 C718 1.362 . S
H720 C726 0.930 . S
H721 C729 0.930 . S
H722 C730 0.930 . S
H723 C731 0.930 . S
H724 C734 0.930 . S
H725 C735 0.930 . S
C726 H720 0.930 . S
C726 C727 1.355 . S
C726 C728 1.415 . S
C727 C726 1.355 . S
C727 C729 1.419 . S
C728 C726 1.415 . S
C728 C733 1.425 . S
C728 C735 1.409 . S
C729 H721 0.930 . S
C729 C727 1.419 . S
C729 C730 1.362 . S
C730 H722 0.930 . S
C730 C729 1.362 . S
C730 C733 1.409 . S
C731 H723 0.930 . S
C731 C732 1.355 . S
C731 C733 1.415 . S
C732 C731 1.355 . S
C732 C734 1.419 . S
C733 C728 1.425 . S
C733 C730 1.409 . S
C733 C731 1.415 . S
C734 H724 0.930 . S
C734 C732 1.419 . S
C734 C735 1.362 . S
C735 H725 0.930 . S
C735 C728 1.409 . S
C735 C734 1.362 . S
H736 C742 0.930 . S
H737 C745 0.930 . S
H738 C746 0.930 . S
H739 C747 0.930 . S
H740 C750 0.930 . S
H741 C751 0.930 . S
C742 H736 0.930 . S
C742 C743 1.355 . S
C742 C744 1.415 . S
C743 C742 1.355 . S
C743 C745 1.419 . S
C744 C742 1.415 . S
C744 C749 1.425 . S
C744 C751 1.409 . S
C745 H737 0.930 . S
C745 C743 1.419 . S
C745 C746 1.362 . S
C746 H738 0.930 . S
C746 C745 1.362 . S
C746 C749 1.409 . S
C747 H739 0.930 . S
C747 C748 1.355 . S
C747 C749 1.415 . S
C748 C747 1.355 . S
C748 C750 1.419 . S
C749 C744 1.425 . S
C749 C746 1.409 . S
C749 C747 1.415 . S
C750 H740 0.930 . S
C750 C748 1.419 . S
C750 C751 1.362 . S
C751 H741 0.930 . S
C751 C744 1.409 . S
C751 C750 1.362 . S
H752 C758 0.930 . S
H753 C761 0.930 . S
H754 C762 0.930 . S
H755 C763 0.930 . S
H756 C766 0.930 . S
H757 C767 0.930 . S
C758 H752 0.930 . S
C758 C759 1.355 . S
C758 C760 1.415 . S
C759 C758 1.355 . S
C759 C761 1.419 . S
C760 C758 1.415 . S
C760 C765 1.425 . S
C760 C767 1.409 . S
C761 H753 0.930 . S
C761 C759 1.419 . S
C761 C762 1.362 . S
C762 H754 0.930 . S
C762 C761 1.362 . S
C762 C765 1.409 . S
C763 H755 0.930 . S
C763 C764 1.355 . S
C763 C765 1.415 . S
C764 C763 1.355 . S
C764 C766 1.419 . S
C765 C760 1.425 . S
C765 C762 1.409 . S
C765 C763 1.415 . S
C766 H756 0.930 . S
C766 C764 1.419 . S
C766 C767 1.362 . S
C767 H757 0.930 . S
C767 C760 1.409 . S
C767 C766 1.362 . S
H768 C774 0.930 . S
H769 C777 0.930 . S
H770 C778 0.930 . S
H771 C779 0.930 . S
H772 C782 0.930 . S
H773 C783 0.930 . S
C774 H768 0.930 . S
C774 C775 1.355 . S
C774 C776 1.415 . S
C775 C774 1.355 . S
C775 C777 1.419 . S
C776 C774 1.415 . S
C776 C781 1.425 . S
C776 C783 1.409 . S
C777 H769 0.930 . S
C777 C775 1.419 . S
C777 C778 1.362 . S
C778 H770 0.930 . S
C778 C777 1.362 . S
C778 C781 1.409 . S
C779 H771 0.930 . S
C779 C780 1.355 . S
C779 C781 1.415 . S
C780 C779 1.355 . S
C780 C782 1.419 . S
C781 C776 1.425 . S
C781 C778 1.409 . S
C781 C779 1.415 . S
C782 H772 0.930 . S
C782 C780 1.419 . S
C782 C783 1.362 . S
C783 H773 0.930 . S
C783 C776 1.409 . S
C783 C782 1.362 . S
H784 C790 0.930 . S
H785 C793 0.930 . S
H786 C794 0.930 . S
H787 C795 0.930 . S
H788 C798 0.930 . S
H789 C799 0.930 . S
C790 H784 0.930 . S
C790 C791 1.355 . S
C790 C792 1.415 . S
C791 C790 1.355 . S
C791 C793 1.419 . S
C792 C790 1.415 . S
C792 C797 1.425 . S
C792 C799 1.409 . S
C793 H785 0.930 . S
C793 C791 1.419 . S
C793 C794 1.362 . S
C794 H786 0.930 . S
C794 C793 1.362 . S
C794 C797 1.409 . S
C795 H787 0.930 . S
C795 C796 1.355 . S
C795 C797 1.415 . S
C796 C795 1.355 . S
C796 C798 1.419 . S
C797 C792 1.425 . S
C797 C794 1.409 . S
C797 C795 1.415 . S
C798 H788 0.930 . S
C798 C796 1.419 . S
C798 C799 1.362 . S
C799 H789 0.930 . S
C799 C792 1.409 . S
C799 C798 1.362 . S
H800 C806 0.930 . S
H801 C809 0.930 . S
H802 C810 0.930 . S
H803 C811 0.930 . S
H804 C814 0.930 . S
H805 C815 0.930 . S
C806 H800 0.930 . S
C806 C807 1.355 . S
C806 C808 1.415 . S
C807 C806 1.355 . S
C807 C809 1.419 . S
C808 C806 1.415 . S
C808 C813 1.425 . S
C808 C815 1.409 . S
C809 H801 0.930 . S
C809 C807 1.419 . S
C809 C810 1.362 . S
C810 H802 0.930 . S
C810 C809 1.362 . S
C810 C813 1.409 . S
C811 H803 0.930 . S
C811 C812 1.355 . S
C811 C813 1.415 . S
C812 C811 1.355 . S
C812 C814 1.419 . S
C813 C808 1.425 . S
C813 C810 1.409 . S
C813 C811 1.415 . S
C814 H804 0.930 . S
C814 C812 1.419 . S
C814 C815 1.362 . S
C815 H805 0.930 . S
C815 C808 1.409 . S
C815 C814 1.362 . S
H816 C822 0.930 . S
H817 C825 0.930 . S
H818 C826 0.930 . S
H819 C827 0.930 . S
H820 C830 0.930 . S
H821 C831 0.930 . S
C822 H816 0.930 . S
C822 C823 1.355 . S
C822 C824 1.415 . S
C823 C822 1.355 . S
C823 C825 1.419 . S
C824 C822 1.415 . S
C824 C829 1.425 . S
C824 C831 1.409 . S
C825 H817 0.930 . S
C825 C823 1.419 . S
C825 C826 1.362 . S
C826 H818 0.930 . S
C826 C825 1.362 . S
C826 C829 1.409 . S
C827 H819 0.930 . S
C827 C828 1.355 . S
C827 C829 1.415 . S
C828 C827 1.355 . S
C828 C830 1.419 . S
C829 C824 1.425 . S
C829 C826 1.409 . S
C829 C827 1.415 . S
C830 H820 0.930 . S
C830 C828 1.419 . S
C830 C831 1.362 . S
C831 H821 0.930 . S
C831 C824 1.409 . S
C831 C830 1.362 . S
H832 C838 0.930 . S
H833 C841 0.930 . S
H834 C842 0.930 . S
H835 C843 0.930 . S
H836 C846 0.930 . S
H837 C847 0.930 . S
C838 H832 0.930 . S
C838 C839 1.355 . S
C838 C840 1.415 . S
C839 C838 1.355 . S
C839 C841 1.419 . S
C840 C838 1.415 . S
C840 C845 1.425 . S
C840 C847 1.409 . S
C841 H833 0.930 . S
C841 C839 1.419 . S
C841 C842 1.362 . S
C842 H834 0.930 . S
C842 C841 1.362 . S
C842 C845 1.409 . S
C843 H835 0.930 . S
C843 C844 1.355 . S
C843 C845 1.415 . S
C844 C843 1.355 . S
C844 C846 1.419 . S
C845 C840 1.425 . S
C845 C842 1.409 . S
C845 C843 1.415 . S
C846 H836 0.930 . S
C846 C844 1.419 . S
C846 C847 1.362 . S
C847 H837 0.930 . S
C847 C840 1.409 . S
C847 C846 1.362 . S
H848 C854 0.930 . S
H849 C857 0.930 . S
H850 C858 0.930 . S
H851 C859 0.930 . S
H852 C862 0.930 . S
H853 C863 0.930 . S
C854 H848 0.930 . S
C854 C855 1.355 . S
C854 C856 1.415 . S
C855 C854 1.355 . S
C855 C857 1.419 . S
C856 C854 1.415 . S
C856 C861 1.425 . S
C856 C863 1.409 . S
C857 H849 0.930 . S
C857 C855 1.419 . S
C857 C858 1.362 . S
C858 H850 0.930 . S
C858 C857 1.362 . S
C858 C861 1.409 . S
C859 H851 0.930 . S
C859 C860 1.355 . S
C859 C861 1.415 . S
C860 C859 1.355 . S
C860 C862 1.419 . S
C861 C856 1.425 . S
C861 C858 1.409 . S
C861 C859 1.415 . S
C862 H852 0.930 . S
C862 C860 1.419 . S
C862 C863 1.362 . S
C863 H853 0.930 . S
C863 C856 1.409 . S
C863 C862 1.362 . S
H864 C870 0.930 . S
H865 C873 0.930 . S
H866 C874 0.930 . S
H867 C875 0.930 . S
H868 C878 0.930 . S
H869 C879 0.930 . S
C870 H864 0.930 . S
C870 C871 1.355 . S
C870 C872 1.415 . S
C871 C870 1.355 . S
C871 C873 1.419 . S
C872 C870 1.415 . S
C872 C877 1.425 . S
C872 C879 1.409 . S
C873 H865 0.930 . S
C873 C871 1.419 . S
C873 C874 1.362 . S
C874 H866 0.930 . S
C874 C873 1.362 . S
C874 C877 1.409 . S
C875 H867 0.930 . S
C875 C876 1.355 . S
C875 C877 1.415 . S
C876 C875 1.355 . S
C876 C878 1.419 . S
C877 C872 1.425 . S
C877 C874 1.409 . S
C877 C875 1.415 . S
C878 H868 0.930 . S
C878 C876 1.419 . S
C878 C879 1.362 . S
C879 H869 0.930 . S
C879 C872 1.409 . S
C879 C878 1.362 . S
H880 C886 0.930 . S
H881 C889 0.930 . S
H882 C890 0.930 . S
H883 C891 0.930 . S
H884 C894 0.930 . S
H885 C895 0.930 . S
C886 H880 0.930 . S
C886 C887 1.355 . S
C886 C888 1.415 . S
C887 C886 1.355 . S
C887 C889 1.419 . S
C888 C886 1.415 . S
C888 C893 1.425 . S
C888 C895 1.409 . S
C889 H881 0.930 . S
C889 C887 1.419 . S
C889 C890 1.362 . S
C890 H882 0.930 . S
C890 C889 1.362 . S
C890 C893 1.409 . S
C891 H883 0.930 . S
C891 C892 1.355 . S
C891 C893 1.415 . S
C892 C891 1.355 . S
C892 C894 1.419 . S
C893 C888 1.425 . S
C893 C890 1.409 . S
C893 C891 1.415 . S
C894 H884 0.930 . S
C894 C892 1.419 . S
C894 C895 1.362 . S
C895 H885 0.930 . S
C895 C888 1.409 . S
C895 C894 1.362 . S
H896 C902 0.930 . S
H897 C905 0.930 . S
H898 C906 0.930 . S
H899 C907 0.930 . S
H900 C910 0.930 . S
H901 C911 0.930 . S
C902 H896 0.930 . S
C902 C903 1.355 1_655 S
C902 C904 1.415 1_655 S
C903 C902 1.355 1_455 S
C903 C905 1.419 . S
C904 C902 1.415 1_455 S
C904 C909 1.425 . S
C904 C911 1.409 1_455 S
C905 H897 0.930 . S
C905 C903 1.419 . S
C905 C906 1.362 . S
C906 H898 0.930 . S
C906 C905 1.362 . S
C906 C909 1.409 . S
C907 H899 0.930 . S
C907 C908 1.355 . S
C907 C909 1.415 . S
C908 C907 1.355 . S
C908 C910 1.419 1_455 S
C909 C904 1.425 . S
C909 C906 1.409 . S
C909 C907 1.415 . S
C910 H900 0.930 . S
C910 C908 1.419 1_655 S
C910 C911 1.362 . S
C911 H901 0.930 . S
C911 C904 1.409 1_655 S
C911 C910 1.362 . S
H912 C918 0.930 . S
H913 C921 0.930 . S
H914 C922 0.918 1_455 S
H915 C923 0.930 . S
H916 C926 0.930 . S
H917 C927 0.930 . S
C918 H912 0.930 . S
C918 C919 1.355 . S
C918 C920 1.415 1_655 S
C919 C918 1.355 . S
C919 C921 1.419 . S
C920 C918 1.415 1_455 S
C920 C925 1.425 . S
C920 C927 1.409 . S
C921 H913 0.930 . S
C921 C919 1.419 . S
C921 C922 1.396 . S
C922 H914 0.918 1_655 S
C922 C921 1.396 . S
C922 C925 1.388 1_655 S
C923 H915 0.930 . S
C923 C924 1.355 . S
C923 C925 1.415 . S
C924 C923 1.355 . S
C924 C926 1.419 . S
C925 C920 1.425 . S
C925 C922 1.388 1_455 S
C925 C923 1.415 . S
C926 H916 0.930 . S
C926 C924 1.419 . S
C926 C927 1.362 . S
C927 H917 0.930 . S
C927 C920 1.409 . S
C927 C926 1.362 . S
H928 C934 0.930 . S
H929 C937 0.930 . S
H930 C938 0.930 . S
H931 C939 0.930 . S
H932 C942 0.930 . S
H933 C943 0.930 . S
C934 H928 0.930 . S
C934 C935 1.355 . S
C934 C936 1.415 . S
C935 C934 1.355 . S
C935 C937 1.419 . S
C936 C934 1.415 . S
C936 C941 1.425 . S
C936 C943 1.409 . S
C937 H929 0.930 . S
C937 C935 1.419 . S
C937 C938 1.362 . S
C938 H930 0.930 . S
C938 C937 1.362 . S
C938 C941 1.409 . S
C939 H931 0.930 . S
C939 C940 1.355 . S
C939 C941 1.415 . S
C940 C939 1.355 . S
C940 C942 1.419 . S
C941 C936 1.425 . S
C941 C938 1.409 . S
C941 C939 1.415 . S
C942 H932 0.930 . S
C942 C940 1.419 . S
C942 C943 1.362 . S
C943 H933 0.930 . S
C943 C936 1.409 . S
C943 C942 1.362 . S
H944 C950 0.930 . S
H945 C953 0.930 . S
H946 C954 0.930 . S
H947 C955 0.930 . S
H948 C958 0.930 . S
H949 C959 0.930 . S
C950 H944 0.930 . S
C950 C951 1.355 . S
C950 C952 1.415 . S
C951 C950 1.355 . S
C951 C953 1.419 . S
C952 C950 1.415 . S
C952 C957 1.425 . S
C952 C959 1.409 . S
C953 H945 0.930 . S
C953 C951 1.419 . S
C953 C954 1.362 . S
C954 H946 0.930 . S
C954 C953 1.362 . S
C954 C957 1.409 . S
C955 H947 0.930 . S
C955 C956 1.355 . S
C955 C957 1.415 . S
C956 C955 1.355 . S
C956 C958 1.419 . S
C957 C952 1.425 . S
C957 C954 1.409 . S
C957 C955 1.415 . S
C958 H948 0.930 . S
C958 C956 1.419 . S
C958 C959 1.362 . S
C959 H949 0.930 . S
C959 C952 1.409 . S
C959 C958 1.362 . S
H960 C966 0.930 . S
H961 C969 0.930 . S
H962 C970 0.930 . S
H963 C971 0.930 . S
H964 C974 0.930 . S
H965 C975 0.930 . S
C966 H960 0.930 . S
C966 C967 1.355 . S
C966 C968 1.415 . S
C967 C966 1.355 . S
C967 C969 1.419 1_455 S
C968 C966 1.415 . S
C968 C973 1.425 1_455 S
C968 C975 1.409 . S
C969 H961 0.930 . S
C969 C967 1.419 1_655 S
C969 C970 1.362 . S
C970 H962 0.930 . S
C970 C969 1.362 . S
C970 C973 1.409 . S
C971 H963 0.930 . S
C971 C972 1.355 1_655 S
C971 C973 1.415 . S
C972 C971 1.355 1_455 S
C972 C974 1.419 . S
C973 C968 1.425 1_655 S
C973 C970 1.409 . S
C973 C971 1.415 . S
C974 H964 0.930 . S
C974 C972 1.419 . S
C974 C975 1.362 . S
C975 H965 0.930 . S
C975 C968 1.409 . S
C975 C974 1.362 . S
H976 C982 0.930 . S
H977 C985 0.930 . S
H978 C986 0.930 . S
H979 C987 0.930 . S
H980 C990 0.930 . S
H981 C991 0.930 . S
C982 H976 0.930 . S
C982 C983 1.355 . S
C982 C984 1.415 . S
C983 C982 1.355 . S
C983 C985 1.419 . S
C984 C982 1.415 . S
C984 C989 1.425 . S
C984 C991 1.409 . S
C985 H977 0.930 . S
C985 C983 1.419 . S
C985 C986 1.362 . S
C986 H978 0.930 . S
C986 C985 1.362 . S
C986 C989 1.409 . S
C987 H979 0.930 . S
C987 C988 1.355 . S
C987 C989 1.415 . S
C988 C987 1.355 . S
C988 C990 1.419 . S
C989 C984 1.425 . S
C989 C986 1.409 . S
C989 C987 1.415 . S
C990 H980 0.930 . S
C990 C988 1.419 . S
C990 C991 1.362 . S
C991 H981 0.930 . S
C991 C984 1.409 . S
C991 C990 1.362 . S
H992 C998 0.930 . S
H993 C1001 0.930 . S
H994 C1002 0.930 . S
H995 C1003 0.930 . S
H996 C1006 0.930 . S
H997 C1007 0.930 . S
C998 H992 0.930 . S
C998 C999 1.355 . S
C998 C1000 1.415 . S
C999 C998 1.355 . S
C999 C1001 1.419 . S
C1000 C998 1.415 . S
C1000 C1005 1.425 . S
C1000 C1007 1.409 . S
C1001 H993 0.930 . S
C1001 C999 1.419 . S
C1001 C1002 1.362 . S
C1002 H994 0.930 . S
C1002 C1001 1.362 . S
C1002 C1005 1.409 . S
C1003 H995 0.930 . S
C1003 C1004 1.355 . S
C1003 C1005 1.415 . S
C1004 C1003 1.355 . S
C1004 C1006 1.419 . S
C1005 C1000 1.425 . S
C1005 C1002 1.409 . S
C1005 C1003 1.415 . S
C1006 H996 0.930 . S
C1006 C1004 1.419 . S
C1006 C1007 1.362 . S
C1007 H997 0.930 . S
C1007 C1000 1.409 . S
C1007 C1006 1.362 . S
H1008 C1014 0.930 . S
H1009 C1017 0.930 . S
H1010 C1018 0.930 . S
H1011 C1019 0.930 . S
H1012 C1022 0.930 . S
H1013 C1023 0.930 . S
C1014 H1008 0.930 . S
C1014 C1015 1.355 . S
C1014 C1016 1.415 . S
C1015 C1014 1.355 . S
C1015 C1017 1.419 . S
C1016 C1014 1.415 . S
C1016 C1021 1.425 . S
C1016 C1023 1.409 1_455 S
C1017 H1009 0.930 . S
C1017 C1015 1.419 . S
C1017 C1018 1.362 . S
C1018 H1010 0.930 . S
C1018 C1017 1.362 . S
C1018 C1021 1.409 . S
C1019 H1011 0.930 . S
C1019 C1020 1.355 . S
C1019 C1021 1.415 1_655 S
C1020 C1019 1.355 . S
C1020 C1022 1.419 . S
C1021 C1016 1.425 . S
C1021 C1018 1.409 . S
C1021 C1019 1.415 1_455 S
C1022 H1012 0.930 . S
C1022 C1020 1.419 . S
C1022 C1023 1.362 . S
C1023 H1013 0.930 . S
C1023 C1016 1.409 1_655 S
C1023 C1022 1.362 . S
H1024 C1030 0.897 1_655 S
H1025 C1033 0.930 . S
H1026 C1034 0.930 . S
H1027 C1035 0.930 . S
H1028 C1038 0.930 . S
H1029 C1039 0.930 . S
C1030 H1024 0.897 1_455 S
C1030 C1031 1.381 . S
C1030 C1032 1.421 . S
C1031 C1030 1.381 . S
C1031 C1033 1.419 . S
C1032 C1030 1.421 . S
C1032 C1037 1.425 1_544 S
C1032 C1039 1.409 1_444 S
C1033 H1025 0.930 . S
C1033 C1031 1.419 . S
C1033 C1034 1.362 . S
C1034 H1026 0.930 . S
C1034 C1033 1.362 . S
C1034 C1037 1.409 1_544 S
C1035 H1027 0.930 . S
C1035 C1036 1.355 . S
C1035 C1037 1.415 . S
C1036 C1035 1.355 . S
C1036 C1038 1.419 1_455 S
C1037 C1032 1.425 1_566 S
C1037 C1034 1.409 1_566 S
C1037 C1035 1.415 . S
C1038 H1028 0.930 . S
C1038 C1036 1.419 1_655 S
C1038 C1039 1.362 . S
C1039 H1029 0.930 . S
C1039 C1032 1.409 1_666 S
C1039 C1038 1.362 . S
H1040 C1046 0.930 . S
H1041 C1049 0.930 . S
H1042 C1050 0.930 . S
H1043 C1051 0.930 . S
H1044 C1054 0.930 . S
H1045 C1055 0.930 . S
C1046 H1040 0.930 . S
C1046 C1047 1.355 . S
C1046 C1048 1.415 . S
C1047 C1046 1.355 . S
C1047 C1049 1.419 . S
C1048 C1046 1.415 . S
C1048 C1053 1.425 . S
C1048 C1055 1.409 . S
C1049 H1041 0.930 . S
C1049 C1047 1.419 . S
C1049 C1050 1.362 . S
C1050 H1042 0.930 . S
C1050 C1049 1.362 . S
C1050 C1053 1.409 . S
C1051 H1043 0.930 . S
C1051 C1052 1.355 . S
C1051 C1053 1.415 . S
C1052 C1051 1.355 . S
C1052 C1054 1.419 . S
C1053 C1048 1.425 . S
C1053 C1050 1.409 . S
C1053 C1051 1.415 . S
C1054 H1044 0.930 . S
C1054 C1052 1.419 . S
C1054 C1055 1.362 . S
C1055 H1045 0.930 . S
C1055 C1048 1.409 . S
C1055 C1054 1.362 . S
H1056 C1062 0.930 . S
H1057 C1065 0.930 . S
H1058 C1066 0.930 . S
H1059 C1067 0.930 . S
H1060 C1070 0.930 . S
H1061 C1071 0.930 . S
C1062 H1056 0.930 . S
C1062 C1063 1.355 . S
C1062 C1064 1.415 . S
C1063 C1062 1.355 . S
C1063 C1065 1.419 . S
C1064 C1062 1.415 . S
C1064 C1069 1.425 1_545 S
C1064 C1071 1.409 1_545 S
C1065 H1057 0.930 . S
C1065 C1063 1.419 . S
C1065 C1066 1.362 . S
C1066 H1058 0.930 . S
C1066 C1065 1.362 . S
C1066 C1069 1.409 1_545 S
C1067 H1059 0.930 . S
C1067 C1068 1.355 . S
C1067 C1069 1.415 . S
C1068 C1067 1.355 . S
C1068 C1070 1.419 . S
C1069 C1064 1.425 1_565 S
C1069 C1066 1.409 1_565 S
C1069 C1067 1.415 . S
C1070 H1060 0.930 . S
C1070 C1068 1.419 . S
C1070 C1071 1.362 . S
C1071 H1061 0.930 . S
C1071 C1064 1.409 1_565 S
C1071 C1070 1.362 . S
H1072 C1078 0.930 . S
H1073 C1081 0.930 . S
H1074 C1082 0.930 . S
H1075 C1083 0.930 . S
H1076 C1086 0.930 . S
H1077 C1087 0.930 . S
C1078 H1072 0.930 . S
C1078 C1079 1.355 . S
C1078 C1080 1.415 . S
C1079 C1078 1.355 . S
C1079 C1081 1.419 . S
C1080 C1078 1.415 . S
C1080 C1085 1.425 . S
C1080 C1087 1.409 . S
C1081 H1073 0.930 . S
C1081 C1079 1.419 . S
C1081 C1082 1.362 . S
C1082 H1074 0.930 . S
C1082 C1081 1.362 . S
C1082 C1085 1.409 . S
C1083 H1075 0.930 . S
C1083 C1084 1.355 . S
C1083 C1085 1.415 . S
C1084 C1083 1.355 . S
C1084 C1086 1.419 . S
C1085 C1080 1.425 . S
C1085 C1082 1.409 . S
C1085 C1083 1.415 . S
C1086 H1076 0.930 . S
C1086 C1084 1.419 . S
C1086 C1087 1.362 . S
C1087 H1077 0.930 . S
C1087 C1080 1.409 . S
C1087 C1086 1.362 . S
H1088 C1094 0.930 . S
H1089 C1097 0.930 . S
H1090 C1098 0.930 . S
H1091 C1099 0.930 . S
H1092 C1102 0.930 . S
H1093 C1103 0.930 . S
C1094 H1088 0.930 . S
C1094 C1095 1.355 . S
C1094 C1096 1.415 . S
C1095 C1094 1.355 . S
C1095 C1097 1.419 . S
C1096 C1094 1.415 . S
C1096 C1101 1.425 . S
C1096 C1103 1.409 . S
C1097 H1089 0.930 . S
C1097 C1095 1.419 . S
C1097 C1098 1.362 . S
C1098 H1090 0.930 . S
C1098 C1097 1.362 . S
C1098 C1101 1.409 . S
C1099 H1091 0.930 . S
C1099 C1100 1.355 . S
C1099 C1101 1.415 . S
C1100 C1099 1.355 . S
C1100 C1102 1.419 . S
C1101 C1096 1.425 . S
C1101 C1098 1.409 . S
C1101 C1099 1.415 . S
C1102 H1092 0.930 . S
C1102 C1100 1.419 . S
C1102 C1103 1.362 . S
C1103 H1093 0.930 . S
C1103 C1096 1.409 . S
C1103 C1102 1.362 . S
H1104 C1110 0.930 . S
H1105 C1113 0.930 . S
H1106 C1114 0.930 . S
H1107 C1115 0.930 . S
H1108 C1118 0.930 . S
H1109 C1119 0.930 . S
C1110 H1104 0.930 . S
C1110 C1111 1.355 . S
C1110 C1112 1.415 . S
C1111 C1110 1.355 . S
C1111 C1113 1.419 . S
C1112 C1110 1.415 . S
C1112 C1117 1.425 . S
C1112 C1119 1.409 . S
C1113 H1105 0.930 . S
C1113 C1111 1.419 . S
C1113 C1114 1.362 . S
C1114 H1106 0.930 . S
C1114 C1113 1.362 . S
C1114 C1117 1.409 . S
C1115 H1107 0.930 . S
C1115 C1116 1.355 . S
C1115 C1117 1.415 . S
C1116 C1115 1.355 . S
C1116 C1118 1.419 . S
C1117 C1112 1.425 . S
C1117 C1114 1.409 . S
C1117 C1115 1.415 . S
C1118 H1108 0.930 . S
C1118 C1116 1.419 . S
C1118 C1119 1.362 . S
C1119 H1109 0.930 . S
C1119 C1112 1.409 . S
C1119 C1118 1.362 . S
H1120 C1126 0.930 . S
H1121 C1129 0.930 . S
H1122 C1130 0.930 . S
H1123 C1131 0.930 . S
H1124 C1134 0.930 . S
H1125 C1135 0.930 . S
C1126 H1120 0.930 . S
C1126 C1127 1.355 . S
C1126 C1128 1.415 . S
C1127 C1126 1.355 . S
C1127 C1129 1.419 . S
C1128 C1126 1.415 . S
C1128 C1133 1.425 . S
C1128 C1135 1.409 . S
C1129 H1121 0.930 . S
C1129 C1127 1.419 . S
C1129 C1130 1.362 . S
C1130 H1122 0.930 . S
C1130 C1129 1.362 . S
C1130 C1133 1.409 . S
C1131 H1123 0.930 . S
C1131 C1132 1.355 . S
C1131 C1133 1.415 . S
C1132 C1131 1.355 . S
C1132 C1134 1.419 . S
C1133 C1128 1.425 . S
C1133 C1130 1.409 . S
C1133 C1131 1.415 . S
C1134 H1124 0.930 . S
C1134 C1132 1.419 . S
C1134 C1135 1.362 . S
C1135 H1125 0.930 . S
C1135 C1128 1.409 . S
C1135 C1134 1.362 . S
H1136 C1142 0.930 . S
H1137 C1145 0.930 . S
H1138 C1146 0.932 1_554 S
H1139 C1147 0.930 . S
H1140 C1150 0.930 . S
H1141 C1151 0.932 1_556 S
C1142 H1136 0.930 . S
C1142 C1143 1.375 . S
C1142 C1144 1.415 . S
C1143 C1142 1.375 . S
C1143 C1145 1.394 1_455 S
C1144 C1142 1.415 . S
C1144 C1149 1.425 1_456 S
C1144 C1151 1.409 1_556 S
C1145 H1137 0.930 . S
C1145 C1143 1.394 1_655 S
C1145 C1146 1.362 . S
C1146 H1138 0.932 1_556 S
C1146 C1145 1.362 . S
C1146 C1149 1.409 1_556 S
C1147 H1139 0.930 . S
C1147 C1148 1.355 1_655 S
C1147 C1149 1.415 . S
C1148 C1147 1.355 1_455 S
C1148 C1150 1.419 . S
C1149 C1144 1.425 1_654 S
C1149 C1146 1.409 1_554 S
C1149 C1147 1.415 . S
C1150 H1140 0.930 . S
C1150 C1148 1.419 . S
C1150 C1151 1.362 . S
C1151 H1141 0.932 1_554 S
C1151 C1144 1.409 1_554 S
C1151 C1150 1.362 . S
H1152 C1158 0.930 . S
H1153 C1161 0.930 . S
H1154 C1162 0.930 . S
H1155 C1163 0.930 . S
H1156 C1166 0.930 . S
H1157 C1167 0.930 . S
C1158 H1152 0.930 . S
C1158 C1159 1.355 . S
C1158 C1160 1.415 . S
C1159 C1158 1.355 . S
C1159 C1161 1.419 . S
C1160 C1158 1.415 . S
C1160 C1165 1.425 . S
C1160 C1167 1.409 . S
C1161 H1153 0.930 . S
C1161 C1159 1.419 . S
C1161 C1162 1.362 . S
C1162 H1154 0.930 . S
C1162 C1161 1.362 . S
C1162 C1165 1.409 . S
C1163 H1155 0.930 . S
C1163 C1164 1.355 . S
C1163 C1165 1.415 . S
C1164 C1163 1.355 . S
C1164 C1166 1.419 . S
C1165 C1160 1.425 . S
C1165 C1162 1.409 . S
C1165 C1163 1.415 . S
C1166 H1156 0.930 . S
C1166 C1164 1.419 . S
C1166 C1167 1.362 . S
C1167 H1157 0.930 . S
C1167 C1160 1.409 . S
C1167 C1166 1.362 . S
H1168 C1174 0.930 . S
H1169 C1177 0.930 . S
H1170 C1178 0.930 . S
H1171 C1179 0.930 . S
H1172 C1182 0.930 . S
H1173 C1183 0.930 . S
C1174 H1168 0.930 . S
C1174 C1175 1.355 . S
C1174 C1176 1.415 . S
C1175 C1174 1.355 . S
C1175 C1177 1.419 . S
C1176 C1174 1.415 . S
C1176 C1181 1.425 . S
C1176 C1183 1.409 . S
C1177 H1169 0.930 . S
C1177 C1175 1.419 . S
C1177 C1178 1.362 . S
C1178 H1170 0.930 . S
C1178 C1177 1.362 . S
C1178 C1181 1.409 . S
C1179 H1171 0.930 . S
C1179 C1180 1.355 . S
C1179 C1181 1.415 . S
C1180 C1179 1.355 . S
C1180 C1182 1.419 . S
C1181 C1176 1.425 . S
C1181 C1178 1.409 . S
C1181 C1179 1.415 . S
C1182 H1172 0.930 . S
C1182 C1180 1.419 . S
C1182 C1183 1.362 . S
C1183 H1173 0.930 . S
C1183 C1176 1.409 . S
C1183 C1182 1.362 . S
H1184 C1190 0.930 . S
H1185 C1193 0.930 . S
H1186 C1194 0.930 . S
H1187 C1195 0.930 . S
H1188 C1198 0.930 . S
H1189 C1199 0.930 . S
C1190 H1184 0.930 . S
C1190 C1191 1.355 . S
C1190 C1192 1.415 . S
C1191 C1190 1.355 . S
C1191 C1193 1.419 . S
C1192 C1190 1.415 . S
C1192 C1197 1.425 . S
C1192 C1199 1.409 . S
C1193 H1185 0.930 . S
C1193 C1191 1.419 . S
C1193 C1194 1.362 . S
C1194 H1186 0.930 . S
C1194 C1193 1.362 . S
C1194 C1197 1.409 . S
C1195 H1187 0.930 . S
C1195 C1196 1.355 . S
C1195 C1197 1.415 . S
C1196 C1195 1.355 . S
C1196 C1198 1.419 . S
C1197 C1192 1.425 . S
C1197 C1194 1.409 . S
C1197 C1195 1.415 . S
C1198 H1188 0.930 . S
C1198 C1196 1.419 . S
C1198 C1199 1.362 . S
C1199 H1189 0.930 . S
C1199 C1192 1.409 . S
C1199 C1198 1.362 . S
H1200 C1206 0.930 . S
H1201 C1209 0.930 . S
H1202 C1210 0.930 . S
H1203 C1211 0.930 . S
H1204 C1214 0.930 . S
H1205 C1215 0.930 . S
C1206 H1200 0.930 . S
C1206 C1207 1.355 . S
C1206 C1208 1.415 . S
C1207 C1206 1.355 . S
C1207 C1209 1.419 . S
C1208 C1206 1.415 . S
C1208 C1213 1.425 . S
C1208 C1215 1.409 . S
C1209 H1201 0.930 . S
C1209 C1207 1.419 . S
C1209 C1210 1.362 . S
C1210 H1202 0.930 . S
C1210 C1209 1.362 . S
C1210 C1213 1.409 . S
C1211 H1203 0.930 . S
C1211 C1212 1.355 . S
C1211 C1213 1.415 . S
C1212 C1211 1.355 . S
C1212 C1214 1.419 . S
C1213 C1208 1.425 . S
C1213 C1210 1.409 . S
C1213 C1211 1.415 . S
C1214 H1204 0.930 . S
C1214 C1212 1.419 . S
C1214 C1215 1.362 . S
C1215 H1205 0.930 . S
C1215 C1208 1.409 . S
C1215 C1214 1.362 . S
H1216 C1222 0.930 . S
H1217 C1225 0.930 . S
H1218 C1226 0.930 . S
H1219 C1227 0.930 . S
H1220 C1230 0.930 . S
H1221 C1231 0.930 . S
C1222 H1216 0.930 . S
C1222 C1223 1.355 . S
C1222 C1224 1.415 . S
C1223 C1222 1.355 . S
C1223 C1225 1.419 . S
C1224 C1222 1.415 . S
C1224 C1229 1.425 . S
C1224 C1231 1.409 . S
C1225 H1217 0.930 . S
C1225 C1223 1.419 . S
C1225 C1226 1.362 . S
C1226 H1218 0.930 . S
C1226 C1225 1.362 . S
C1226 C1229 1.409 . S
C1227 H1219 0.930 . S
C1227 C1228 1.355 . S
C1227 C1229 1.415 . S
C1228 C1227 1.355 . S
C1228 C1230 1.419 . S
C1229 C1224 1.425 . S
C1229 C1226 1.409 . S
C1229 C1227 1.415 . S
C1230 H1220 0.930 . S
C1230 C1228 1.419 . S
C1230 C1231 1.362 . S
C1231 H1221 0.930 . S
C1231 C1224 1.409 . S
C1231 C1230 1.362 . S
H1232 C1238 0.930 . S
H1233 C1241 0.930 . S
H1234 C1242 0.930 . S
H1235 C1243 0.930 . S
H1236 C1246 0.930 . S
H1237 C1247 0.930 . S
C1238 H1232 0.930 . S
C1238 C1239 1.355 . S
C1238 C1240 1.415 . S
C1239 C1238 1.355 . S
C1239 C1241 1.419 . S
C1240 C1238 1.415 . S
C1240 C1245 1.425 . S
C1240 C1247 1.409 . S
C1241 H1233 0.930 . S
C1241 C1239 1.419 . S
C1241 C1242 1.362 . S
C1242 H1234 0.930 . S
C1242 C1241 1.362 . S
C1242 C1245 1.409 . S
C1243 H1235 0.930 . S
C1243 C1244 1.355 . S
C1243 C1245 1.415 . S
C1244 C1243 1.355 . S
C1244 C1246 1.419 . S
C1245 C1240 1.425 . S
C1245 C1242 1.409 . S
C1245 C1243 1.415 . S
C1246 H1236 0.930 . S
C1246 C1244 1.419 . S
C1246 C1247 1.362 . S
C1247 H1237 0.930 . S
C1247 C1240 1.409 . S
C1247 C1246 1.362 . S
H1248 C1254 0.930 . S
H1249 C1257 0.930 . S
H1250 C1258 0.930 . S
H1251 C1259 0.930 . S
H1252 C1262 0.930 . S
H1253 C1263 0.930 . S
C1254 H1248 0.930 . S
C1254 C1255 1.355 . S
C1254 C1256 1.415 . S
C1255 C1254 1.355 . S
C1255 C1257 1.419 . S
C1256 C1254 1.415 . S
C1256 C1261 1.425 . S
C1256 C1263 1.409 . S
C1257 H1249 0.930 . S
C1257 C1255 1.419 . S
C1257 C1258 1.362 . S
C1258 H1250 0.930 . S
C1258 C1257 1.362 . S
C1258 C1261 1.409 . S
C1259 H1251 0.930 . S
C1259 C1260 1.355 . S
C1259 C1261 1.415 . S
C1260 C1259 1.355 . S
C1260 C1262 1.419 . S
C1261 C1256 1.425 . S
C1261 C1258 1.409 . S
C1261 C1259 1.415 . S
C1262 H1252 0.930 . S
C1262 C1260 1.419 . S
C1262 C1263 1.362 . S
C1263 H1253 0.930 . S
C1263 C1256 1.409 . S
C1263 C1262 1.362 . S
H1264 C1270 0.930 . S
H1265 C1273 0.930 . S
H1266 C1274 0.930 . S
H1267 C1275 0.930 . S
H1268 C1278 0.930 . S
H1269 C1279 0.930 . S
C1270 H1264 0.930 . S
C1270 C1271 1.355 . S
C1270 C1272 1.415 . S
C1271 C1270 1.355 . S
C1271 C1273 1.419 . S
C1272 C1270 1.415 . S
C1272 C1277 1.425 . S
C1272 C1279 1.409 . S
C1273 H1265 0.930 . S
C1273 C1271 1.419 . S
C1273 C1274 1.362 . S
C1274 H1266 0.930 . S
C1274 C1273 1.362 . S
C1274 C1277 1.409 . S
C1275 H1267 0.930 . S
C1275 C1276 1.355 . S
C1275 C1277 1.415 . S
C1276 C1275 1.355 . S
C1276 C1278 1.419 . S
C1277 C1272 1.425 . S
C1277 C1274 1.409 . S
C1277 C1275 1.415 . S
C1278 H1268 0.930 . S
C1278 C1276 1.419 . S
C1278 C1279 1.362 . S
C1279 H1269 0.930 . S
C1279 C1272 1.409 . S
C1279 C1278 1.362 . S
H1280 C1286 0.930 . S
H1281 C1289 0.930 . S
H1282 C1290 0.930 . S
H1283 C1291 0.930 . S
H1284 C1294 0.930 . S
H1285 C1295 0.930 . S
C1286 H1280 0.930 . S
C1286 C1287 1.355 . S
C1286 C1288 1.415 . S
C1287 C1286 1.355 . S
C1287 C1289 1.419 . S
C1288 C1286 1.415 . S
C1288 C1293 1.425 . S
C1288 C1295 1.409 . S
C1289 H1281 0.930 . S
C1289 C1287 1.419 . S
C1289 C1290 1.362 . S
C1290 H1282 0.930 . S
C1290 C1289 1.362 . S
C1290 C1293 1.409 . S
C1291 H1283 0.930 . S
C1291 C1292 1.355 . S
C1291 C1293 1.415 . S
C1292 C1291 1.355 . S
C1292 C1294 1.419 . S
C1293 C1288 1.425 . S
C1293 C1290 1.409 . S
C1293 C1291 1.415 . S
C1294 H1284 0.930 . S
C1294 C1292 1.419 . S
C1294 C1295 1.362 . S
C1295 H1285 0.930 . S
C1295 C1288 1.409 . S
C1295 C1294 1.362 . S
H1296 C1302 0.930 . S
H1297 C1305 0.930 . S
H1298 C1306 0.930 . S
H1299 C1307 0.930 . S
H1300 C1310 0.930 . S
H1301 C1311 0.930 . S
C1302 H1296 0.930 . S
C1302 C1303 1.355 . S
C1302 C1304 1.415 . S
C1303 C1302 1.355 . S
C1303 C1305 1.419 . S
C1304 C1302 1.415 . S
C1304 C1309 1.425 . S
C1304 C1311 1.409 . S
C1305 H1297 0.930 . S
C1305 C1303 1.419 . S
C1305 C1306 1.362 . S
C1306 H1298 0.930 . S
C1306 C1305 1.362 . S
C1306 C1309 1.409 . S
C1307 H1299 0.930 . S
C1307 C1308 1.355 . S
C1307 C1309 1.415 . S
C1308 C1307 1.355 . S
C1308 C1310 1.419 . S
C1309 C1304 1.425 . S
C1309 C1306 1.409 . S
C1309 C1307 1.415 . S
C1310 H1300 0.930 . S
C1310 C1308 1.419 . S
C1310 C1311 1.362 . S
C1311 H1301 0.930 . S
C1311 C1304 1.409 . S
C1311 C1310 1.362 . S
H1312 C1318 0.930 . S
H1313 C1321 0.930 . S
H1314 C1322 0.930 . S
H1315 C1323 0.930 . S
H1316 C1326 0.930 . S
H1317 C1327 0.930 . S
C1318 H1312 0.930 . S
C1318 C1319 1.355 . S
C1318 C1320 1.415 . S
C1319 C1318 1.355 . S
C1319 C1321 1.419 . S
C1320 C1318 1.415 . S
C1320 C1325 1.425 . S
C1320 C1327 1.409 . S
C1321 H1313 0.930 . S
C1321 C1319 1.419 . S
C1321 C1322 1.362 . S
C1322 H1314 0.930 . S
C1322 C1321 1.362 . S
C1322 C1325 1.409 . S
C1323 H1315 0.930 . S
C1323 C1324 1.355 . S
C1323 C1325 1.415 . S
C1324 C1323 1.355 . S
C1324 C1326 1.419 . S
C1325 C1320 1.425 . S
C1325 C1322 1.409 . S
C1325 C1323 1.415 . S
C1326 H1316 0.930 . S
C1326 C1324 1.419 . S
C1326 C1327 1.362 . S
C1327 H1317 0.930 . S
C1327 C1320 1.409 . S
C1327 C1326 1.362 . S
H1328 C1334 0.930 . S
H1329 C1337 0.930 . S
H1330 C1338 0.930 . S
H1331 C1339 0.930 . S
H1332 C1342 0.930 . S
H1333 C1343 0.930 . S
C1334 H1328 0.930 . S
C1334 C1335 1.355 . S
C1334 C1336 1.415 . S
C1335 C1334 1.355 . S
C1335 C1337 1.419 . S
C1336 C1334 1.415 . S
C1336 C1341 1.425 . S
C1336 C1343 1.409 . S
C1337 H1329 0.930 . S
C1337 C1335 1.419 . S
C1337 C1338 1.362 . S
C1338 H1330 0.930 . S
C1338 C1337 1.362 . S
C1338 C1341 1.409 . S
C1339 H1331 0.930 . S
C1339 C1340 1.355 . S
C1339 C1341 1.415 . S
C1340 C1339 1.355 . S
C1340 C1342 1.419 . S
C1341 C1336 1.425 . S
C1341 C1338 1.409 . S
C1341 C1339 1.415 . S
C1342 H1332 0.930 . S
C1342 C1340 1.419 . S
C1342 C1343 1.362 . S
C1343 H1333 0.930 . S
C1343 C1336 1.409 . S
C1343 C1342 1.362 . S
H1344 C1350 0.930 . S
H1345 C1353 0.930 . S
H1346 C1354 0.930 . S
H1347 C1355 0.930 . S
H1348 C1358 0.930 . S
H1349 C1359 0.930 . S
C1350 H1344 0.930 . S
C1350 C1351 1.355 . S
C1350 C1352 1.415 . S
C1351 C1350 1.355 . S
C1351 C1353 1.419 . S
C1352 C1350 1.415 . S
C1352 C1357 1.425 . S
C1352 C1359 1.409 . S
C1353 H1345 0.930 . S
C1353 C1351 1.419 . S
C1353 C1354 1.362 . S
C1354 H1346 0.930 . S
C1354 C1353 1.362 . S
C1354 C1357 1.409 . S
C1355 H1347 0.930 . S
C1355 C1356 1.355 . S
C1355 C1357 1.415 . S
C1356 C1355 1.355 . S
C1356 C1358 1.419 . S
C1357 C1352 1.425 . S
C1357 C1354 1.409 . S
C1357 C1355 1.415 . S
C1358 H1348 0.930 . S
C1358 C1356 1.419 . S
C1358 C1359 1.362 . S
C1359 H1349 0.930 . S
C1359 C1352 1.409 . S
C1359 C1358 1.362 . S
H1360 C1366 0.930 . S
H1361 C1369 0.930 . S
H1362 C1370 0.930 . S
H1363 C1371 0.930 . S
H1364 C1374 0.930 . S
H1365 C1375 0.930 . S
C1366 H1360 0.930 . S
C1366 C1367 1.355 . S
C1366 C1368 1.415 . S
C1367 C1366 1.355 . S
C1367 C1369 1.419 . S
C1368 C1366 1.415 . S
C1368 C1373 1.425 . S
C1368 C1375 1.409 . S
C1369 H1361 0.930 . S
C1369 C1367 1.419 . S
C1369 C1370 1.362 . S
C1370 H1362 0.930 . S
C1370 C1369 1.362 . S
C1370 C1373 1.409 . S
C1371 H1363 0.930 . S
C1371 C1372 1.355 . S
C1371 C1373 1.415 . S
C1372 C1371 1.355 . S
C1372 C1374 1.419 . S
C1373 C1368 1.425 . S
C1373 C1370 1.409 . S
C1373 C1371 1.415 . S
C1374 H1364 0.930 . S
C1374 C1372 1.419 . S
C1374 C1375 1.362 . S
C1375 H1365 0.930 . S
C1375 C1368 1.409 . S
C1375 C1374 1.362 . S
H1376 C1382 0.930 . S
H1377 C1385 0.930 . S
H1378 C1386 0.930 . S
H1379 C1387 0.930 . S
H1380 C1390 0.930 . S
H1381 C1391 0.930 . S
C1382 H1376 0.930 . S
C1382 C1383 1.355 . S
C1382 C1384 1.415 . S
C1383 C1382 1.355 . S
C1383 C1385 1.419 . S
C1384 C1382 1.415 . S
C1384 C1389 1.425 . S
C1384 C1391 1.409 . S
C1385 H1377 0.930 . S
C1385 C1383 1.419 . S
C1385 C1386 1.362 . S
C1386 H1378 0.930 . S
C1386 C1385 1.362 . S
C1386 C1389 1.409 . S
C1387 H1379 0.930 . S
C1387 C1388 1.355 . S
C1387 C1389 1.415 . S
C1388 C1387 1.355 . S
C1388 C1390 1.419 . S
C1389 C1384 1.425 . S
C1389 C1386 1.409 . S
C1389 C1387 1.415 . S
C1390 H1380 0.930 . S
C1390 C1388 1.419 . S
C1390 C1391 1.362 . S
C1391 H1381 0.930 . S
C1391 C1384 1.409 . S
C1391 C1390 1.362 . S
H1392 C1398 0.930 . S
H1393 C1401 0.930 . S
H1394 C1402 0.930 . S
H1395 C1403 0.930 . S
H1396 C1406 0.930 . S
H1397 C1407 0.930 . S
C1398 H1392 0.930 . S
C1398 C1399 1.355 . S
C1398 C1400 1.415 . S
C1399 C1398 1.355 . S
C1399 C1401 1.419 . S
C1400 C1398 1.415 . S
C1400 C1405 1.425 . S
C1400 C1407 1.409 . S
C1401 H1393 0.930 . S
C1401 C1399 1.419 . S
C1401 C1402 1.362 . S
C1402 H1394 0.930 . S
C1402 C1401 1.362 . S
C1402 C1405 1.409 . S
C1403 H1395 0.930 . S
C1403 C1404 1.355 . S
C1403 C1405 1.415 . S
C1404 C1403 1.355 . S
C1404 C1406 1.419 . S
C1405 C1400 1.425 . S
C1405 C1402 1.409 . S
C1405 C1403 1.415 . S
C1406 H1396 0.930 . S
C1406 C1404 1.419 . S
C1406 C1407 1.362 . S
C1407 H1397 0.930 . S
C1407 C1400 1.409 . S
C1407 C1406 1.362 . S
C647 C26 1.900 . S
C652 C306 1.927 . S
C663 C66 1.846 . S
C668 C186 1.870 . S
C679 C226 1.855 . S
C684 C106 1.884 . S
C695 C146 1.842 . S
C700 C266 1.850 . S
C711 C453 4.230 . S
C716 C173 4.245 1_554 S
C727 C333 4.225 . S
C732 C13 4.238 1_556 S
C743 C413 4.242 . S
C748 C253 4.237 . S
C759 C93 4.241 . S
C764 C373 4.224 . S
C775 C386 1.883 . S
C780 C506 1.915 . S
C791 C426 1.927 . S
C796 C586 1.899 . S
C807 C546 1.925 . S
C812 C346 1.895 . S
C823 C466 1.863 . S
C828 C626 1.844 . S
C839 C573 4.239 . S
C844 C133 4.241 . S
C855 C493 4.237 . S
C860 C213 4.225 . S
C871 C53 4.240 . S
C876 C613 4.240 1_554 S
C887 C293 4.226 . S
C892 C533 4.245 1_556 S
C903 C522 1.170 . S
C908 C2 1.207 . S
C919 C442 1.172 . S
C924 C42 1.134 . S
C935 C482 1.192 . S
C940 C82 1.188 . S
C951 C402 1.145 . S
C956 C122 1.157 . S
C967 C162 1.183 . S
C972 C602 1.197 . S
C983 C362 1.145 . S
C988 C202 1.216 . S
C999 C242 1.131 . S
C1004 C562 1.215 . S
C1015 C282 1.215 . S
C1020 C322 1.149 . S
C1031 C23 1.532 . S
C1036 C183 1.494 . S
C1047 C63 1.522 . S
C1052 C223 1.482 . S
C1063 C263 1.532 . S
C1068 C103 1.494 . S
C1079 C143 1.538 . S
C1084 C303 1.542 . S
C1095 C423 1.539 . S
C1100 C343 1.506 . S
C1111 C463 1.543 . S
C1116 C383 1.516 . S
C1127 C503 1.454 . S
C1132 C583 1.466 . S
C1143 C623 1.522 . S
C1148 C543 1.475 . S
C1159 C24 4.654 . S
C1164 C304 4.643 . S
C1175 C64 4.654 . S
C1180 C184 4.647 . S
C1191 C224 4.648 1_556 S
C1196 C104 4.653 . S
C1207 C264 4.656 . S
C1212 C144 4.644 1_554 S
C1223 C457 0.805 . S
C1228 C177 0.914 . S
C1239 C337 0.773 . S
C1244 C17 0.741 . S
C1255 C417 0.874 . S
C1260 C257 0.760 . S
C1271 C97 0.876 . S
C1276 C377 0.762 . S
C1287 C504 4.655 . S
C1292 C384 4.642 1_556 S
C1303 C584 4.655 . S
C1308 C424 4.645 1_554 S
C1319 C544 4.643 . S
C1324 C344 4.656 . S
C1335 C624 4.645 . S
C1340 C464 4.651 . S
C1351 C577 0.780 . S
C1356 C137 0.895 . S
C1367 C217 0.749 . S
C1372 C497 0.858 . S
C1383 C57 0.888 . S
C1388 C617 0.934 . S
C1399 C537 0.824 . S
C1404 C297 0.924 . S
