# Generated by pormake.
# Topology ure, (4)-cn, num edge types: 1
# Building blocks:
#     Node 0, Type 0, BuildingBlock: UXUYUI_clean_sbu_0, # of connection points: 4
#     Node 1, Type 0, BuildingBlock: UXUYUI_clean_sbu_0, # of connection points: 4
#     Node 2, Type 0, BuildingBlock: UXUYUI_clean_sbu_0, # of connection points: 4
#     Node 3, Type 0, BuildingBlock: UXUYUI_clean_sbu_0, # of connection points: 4
#     Node 4, Type 0, BuildingBlock: UXUYUI_clean_sbu_0, # of connection points: 4
#     Node 5, Type 0, BuildingBlock: UXUYUI_clean_sbu_0, # of connection points: 4
#     Node 6, Type 0, BuildingBlock: UXUYUI_clean_sbu_0, # of connection points: 4
#     Node 7, Type 0, BuildingBlock: UXUYUI_clean_sbu_0, # of connection points: 4
#     Node 8, Type 0, BuildingBlock: UXUYUI_clean_sbu_0, # of connection points: 4
#     Node 9, Type 0, BuildingBlock: UXUYUI_clean_sbu_0, # of connection points: 4
#     Node 10, Type 0, BuildingBlock: UXUYUI_clean_sbu_0, # of connection points: 4
#     Node 11, Type 0, BuildingBlock: UXUYUI_clean_sbu_0, # of connection points: 4
#     Node 12, Type 0, BuildingBlock: UXUYUI_clean_sbu_0, # of connection points: 4
#     Node 13, Type 0, BuildingBlock: UXUYUI_clean_sbu_0, # of connection points: 4
#     Node 14, Type 0, BuildingBlock: UXUYUI_clean_sbu_0, # of connection points: 4
#     Node 15, Type 0, BuildingBlock: UXUYUI_clean_sbu_0, # of connection points: 4
#     Edge 16, Type (0, 0), BuildingBlock: XIVTED_clean_linker_0, # of connection points: 2
#     Edge 17, Type (0, 0), BuildingBlock: XIVTED_clean_linker_0, # of connection points: 2
#     Edge 18, Type (0, 0), BuildingBlock: XIVTED_clean_linker_0, # of connection points: 2
#     Edge 19, Type (0, 0), BuildingBlock: XIVTED_clean_linker_0, # of connection points: 2
#     Edge 20, Type (0, 0), BuildingBlock: XIVTED_clean_linker_0, # of connection points: 2
#     Edge 21, Type (0, 0), BuildingBlock: XIVTED_clean_linker_0, # of connection points: 2
#     Edge 22, Type (0, 0), BuildingBlock: XIVTED_clean_linker_0, # of connection points: 2
#     Edge 23, Type (0, 0), BuildingBlock: XIVTED_clean_linker_0, # of connection points: 2
#     Edge 24, Type (0, 0), BuildingBlock: XIVTED_clean_linker_0, # of connection points: 2
#     Edge 25, Type (0, 0), BuildingBlock: XIVTED_clean_linker_0, # of connection points: 2
#     Edge 26, Type (0, 0), BuildingBlock: XIVTED_clean_linker_0, # of connection points: 2
#     Edge 27, Type (0, 0), BuildingBlock: XIVTED_clean_linker_0, # of connection points: 2
#     Edge 28, Type (0, 0), BuildingBlock: XIVTED_clean_linker_0, # of connection points: 2
#     Edge 29, Type (0, 0), BuildingBlock: XIVTED_clean_linker_0, # of connection points: 2
#     Edge 30, Type (0, 0), BuildingBlock: XIVTED_clean_linker_0, # of connection points: 2
#     Edge 31, Type (0, 0), BuildingBlock: XIVTED_clean_linker_0, # of connection points: 2
#     Edge 32, Type (0, 0), BuildingBlock: XIVTED_clean_linker_0, # of connection points: 2
#     Edge 33, Type (0, 0), BuildingBlock: XIVTED_clean_linker_0, # of connection points: 2
#     Edge 34, Type (0, 0), BuildingBlock: XIVTED_clean_linker_0, # of connection points: 2
#     Edge 35, Type (0, 0), BuildingBlock: XIVTED_clean_linker_0, # of connection points: 2
#     Edge 36, Type (0, 0), BuildingBlock: XIVTED_clean_linker_0, # of connection points: 2
#     Edge 37, Type (0, 0), BuildingBlock: XIVTED_clean_linker_0, # of connection points: 2
#     Edge 38, Type (0, 0), BuildingBlock: XIVTED_clean_linker_0, # of connection points: 2
#     Edge 39, Type (0, 0), BuildingBlock: XIVTED_clean_linker_0, # of connection points: 2
#     Edge 40, Type (0, 0), BuildingBlock: XIVTED_clean_linker_0, # of connection points: 2
#     Edge 41, Type (0, 0), BuildingBlock: XIVTED_clean_linker_0, # of connection points: 2
#     Edge 42, Type (0, 0), BuildingBlock: XIVTED_clean_linker_0, # of connection points: 2
#     Edge 43, Type (0, 0), BuildingBlock: XIVTED_clean_linker_0, # of connection points: 2
#     Edge 44, Type (0, 0), BuildingBlock: XIVTED_clean_linker_0, # of connection points: 2
#     Edge 45, Type (0, 0), BuildingBlock: XIVTED_clean_linker_0, # of connection points: 2
#     Edge 46, Type (0, 0), BuildingBlock: XIVTED_clean_linker_0, # of connection points: 2
#     Edge 47, Type (0, 0), BuildingBlock: XIVTED_clean_linker_0, # of connection points: 2
# Relax obj value: 0.164
# Max RMSD: 0.090
# Mean RMSD: 0.090
data_MOF--net-ure--node1-UXUYUI_clean_sbu_0--edge1-XIVTED_clean_linker_0
_symmetry_space_group_name_H-M    P1
_symmetry_Int_Tables_number       1
_symmetry_cell_setting            triclinic
loop_
_symmetry_equiv_pos_as_xyz
'x, y, z'
_cell_length_a     46.744512
_cell_length_b     46.661158
_cell_length_c     46.677898
_cell_angle_alpha  90.079277
_cell_angle_beta   90.0999
_cell_angle_gamma 90.244284
loop_
_atom_site_label
_atom_site_type_symbol
_atom_site_fract_x
_atom_site_fract_y
_atom_site_fract_z
_atom_type_partial_charge
Li0 Li 0.25669 0.29313 0.26342 0.0
Li1 Li 0.26077 0.25461 0.29638 0.0
Li2 Li 0.29508 0.25868 0.25875 0.0
Li3 Li 0.2451 0.24416 0.24863 0.0
C4 C 0.30841 0.30728 0.28895 0.0
N5 N 0.34906 0.35034 0.28593 0.0
C6 C 0.32228 0.31676 0.31377 0.0
C7 C 0.31524 0.3197 0.26256 0.0
C8 C 0.34276 0.33857 0.31181 0.0
C9 C 0.33584 0.34143 0.26149 0.0
C10 C 0.20775 0.28322 0.29519 0.0
C11 C 0.16066 0.29905 0.30886 0.0
N12 N 0.17234 0.31436 0.3308 0.0
C13 C 0.21929 0.29911 0.31788 0.0
C14 C 0.1782 0.28317 0.29062 0.0
C15 C 0.20104 0.3147 0.33564 0.0
C16 C 0.23463 0.34178 0.23443 0.0
N17 N 0.2467 0.3325 0.25923 0.0
C18 C 0.24649 0.37998 0.27843 0.0
C19 C 0.25242 0.35088 0.28114 0.0
C20 C 0.23435 0.3904 0.25296 0.0
C21 C 0.22822 0.37081 0.23081 0.0
H22 H 0.23019 0.32665 0.2174 0.0
H23 H 0.26202 0.34305 0.30067 0.0
C24 C 0.28141 0.24735 0.35206 0.0
N25 N 0.25749 0.24439 0.33574 0.0
C26 C 0.28025 0.24258 0.38153 0.0
C27 C 0.22999 0.23101 0.3767 0.0
C28 C 0.23216 0.23589 0.34727 0.0
C29 C 0.25416 0.23481 0.3943 0.0
H30 H 0.30126 0.25405 0.34221 0.0
H31 H 0.21352 0.23348 0.33371 0.0
C32 C 0.27577 0.26315 0.2013 0.0
N33 N 0.28885 0.24226 0.1475 0.0
C34 C 0.28548 0.23503 0.19803 0.0
C35 C 0.27268 0.28062 0.17722 0.0
C36 C 0.29198 0.22488 0.17065 0.0
C37 C 0.27944 0.26967 0.1502 0.0
C38 C 0.27153 0.20071 0.28883 0.0
C39 C 0.29516 0.18976 0.30348 0.0
C40 C 0.24441 0.18891 0.29352 0.0
C41 C 0.29122 0.16722 0.32277 0.0
C42 C 0.24136 0.16638 0.31296 0.0
N43 N 0.26463 0.1561 0.32708 0.0
C44 C 0.35094 0.24822 0.27438 0.0
C45 C 0.34746 0.26131 0.22545 0.0
C46 C 0.3807 0.24777 0.27272 0.0
N47 N 0.33497 0.25492 0.25099 0.0
C48 C 0.37723 0.26072 0.22272 0.0
C49 C 0.3942 0.25424 0.24668 0.0
H50 H 0.34048 0.24417 0.29463 0.0
H51 H 0.33456 0.26783 0.20743 0.0
C52 C 0.19696 0.23324 0.21378 0.0
N53 N 0.22107 0.2214 0.22483 0.0
C54 C 0.17907 0.21716 0.19585 0.0
C55 C 0.21124 0.17706 0.20105 0.0
C56 C 0.22847 0.1939 0.21886 0.0
C57 C 0.18615 0.18865 0.18922 0.0
H58 H 0.19175 0.25526 0.21879 0.0
H59 H 0.24781 0.18504 0.22793 0.0
O60 O 0.28855 0.2857 0.29066 0.0
O61 O 0.2251 0.2678 0.27738 0.0
O62 O 0.26876 0.27352 0.22779 0.0
O63 O 0.27478 0.22327 0.27043 0.0
H64 H 0.31726 0.30735 0.33435 0.0
H65 H 0.30483 0.31268 0.24308 0.0
H66 H 0.35365 0.34611 0.33086 0.0
H67 H 0.34134 0.35121 0.24122 0.0
H68 H 0.13774 0.29921 0.30557 0.0
H69 H 0.24209 0.29939 0.32181 0.0
H70 H 0.16894 0.27099 0.27314 0.0
H71 H 0.2097 0.32708 0.35327 0.0
H72 H 0.2521 0.39424 0.2959 0.0
H73 H 0.21857 0.37781 0.21092 0.0
H74 H 0.29933 0.24603 0.39429 0.0
H75 H 0.20956 0.22467 0.38563 0.0
H76 H 0.28818 0.22123 0.2164 0.0
H77 H 0.26512 0.30241 0.17939 0.0
H78 H 0.29954 0.20318 0.16781 0.0
H79 H 0.27716 0.28296 0.13137 0.0
H80 H 0.3163 0.1986 0.30008 0.0
H81 H 0.22584 0.19739 0.28262 0.0
H82 H 0.3093 0.15858 0.33434 0.0
H83 H 0.22047 0.15716 0.31693 0.0
H84 H 0.39305 0.24266 0.29168 0.0
H85 H 0.38691 0.26634 0.20241 0.0
H86 H 0.16015 0.22709 0.18694 0.0
H87 H 0.21736 0.1551 0.19687 0.0
Li88 Li 0.99197 0.04213 0.50309 0.0
Li89 Li 0.956 0.00362 0.50565 0.0
Li90 Li 0.99241 0.00962 0.5431 0.0
Li91 Li 0.00506 0.99223 0.49519 0.0
C92 C 0.95028 0.06283 0.53428 0.0
N93 N 0.92851 0.1178 0.53591 0.0
C94 C 0.92451 0.06911 0.52045 0.0
C95 C 0.96487 0.0845 0.5491 0.0
C96 C 0.91386 0.09703 0.52152 0.0
C97 C 0.95356 0.11216 0.54959 0.0
C98 C 0.98684 0.01046 0.44516 0.0
C99 C 0.98739 0.97943 0.40382 0.0
N100 N 0.00648 0.99732 0.39096 0.0
C101 C 0.00633 0.02863 0.4315 0.0
C102 C 0.97712 0.98575 0.43119 0.0
C103 C 0.01604 0.02158 0.40409 0.0
C104 C 0.01971 0.09649 0.50165 0.0
N105 N 0.99739 0.08081 0.49138 0.0
C106 C 0.97778 0.12199 0.46837 0.0
C107 C 0.97699 0.09273 0.47444 0.0
C108 C -7e-05 0.13906 0.47967 0.0
C109 C 0.02143 0.12584 0.49602 0.0
H110 H 0.03565 0.08643 0.51501 0.0
H111 H 0.95953 0.07963 0.4665 0.0
C112 C 0.90047 0.98807 0.5227 0.0
N113 N 0.91665 0.99521 0.49959 0.0
C114 C 0.87104 0.98406 0.5198 0.0
C115 C 0.87522 0.99595 0.46955 0.0
C116 C 0.90475 0.99902 0.47327 0.0
C117 C 0.85811 0.98846 0.49307 0.0
H118 H 0.91034 0.98626 0.54357 0.0
H119 H 0.91806 0.00538 0.45543 0.0
C120 C 0.04693 0.02 0.53818 0.0
N121 N 0.08928 0.01546 0.57926 0.0
C122 C 0.06515 0.99633 0.53827 0.0
C123 C 0.05028 0.04139 0.55893 0.0
C124 C 0.08645 0.99444 0.55922 0.0
C125 C 0.07179 0.03867 0.57955 0.0
C126 C 0.96141 0.95199 0.5291 0.0
C127 C 0.95331 0.94566 0.55721 0.0
C128 C 0.94944 0.93649 0.50638 0.0
C129 C 0.93318 0.924 0.5621 0.0
C130 C 0.92934 0.91503 0.51215 0.0
N131 N 0.9217 0.90928 0.53965 0.0
C132 C 0.98362 0.02479 0.60033 0.0
C133 C 0.01476 0.98524 0.59489 0.0
C134 C 0.9854 0.02283 0.63004 0.0
N135 N 0.99816 0.00619 0.58342 0.0
C136 C 0.01714 0.98244 0.62465 0.0
C137 C 0.00203 0.00124 0.64263 0.0
H138 H 0.97017 0.04089 0.59078 0.0
H139 H 0.02568 0.97036 0.58093 0.0
C140 C 0.05212 0.97992 0.4596 0.0
N141 N 0.02956 0.9679 0.47352 0.0
C142 C 0.06987 0.9631 0.44247 0.0
C143 C 0.04125 0.9217 0.45488 0.0
C144 C 0.02402 0.93934 0.47171 0.0
C145 C 0.06445 0.93356 0.43982 0.0
H146 H 0.05618 0.00267 0.46168 0.0
H147 H 0.0061 0.93028 0.48316 0.0
O148 O 0.96147 0.03579 0.53285 0.0
O149 O 0.97765 0.01659 0.47225 0.0
O150 O 0.02568 0.02205 0.51811 0.0
O151 O 0.98093 0.97327 0.52388 0.0
H152 H 0.91295 0.05273 0.50878 0.0
H153 H 0.98503 0.08014 0.55963 0.0
H154 H 0.89401 0.10221 0.51081 0.0
H155 H 0.96478 0.12918 0.56073 0.0
H156 H 0.98022 0.96027 0.39283 0.0
H157 H 0.01415 0.04777 0.44208 0.0
H158 H 0.96203 0.97148 0.4415 0.0
H159 H 0.03126 0.03535 0.39332 0.0
H160 H 0.961 0.13123 0.45534 0.0
H161 H 0.03874 0.13821 0.50535 0.0
H162 H 0.85834 0.9788 0.53847 0.0
H163 H 0.8658 0.99974 0.44869 0.0
H164 H 0.06275 0.97948 0.52252 0.0
H165 H 0.03611 0.05966 0.55941 0.0
H166 H 0.10066 0.97621 0.5596 0.0
H167 H 0.0745 0.05496 0.59586 0.0
H168 H 0.96227 0.95747 0.57506 0.0
H169 H 0.95527 0.94127 0.48448 0.0
H170 H 0.92663 0.91894 0.58373 0.0
H171 H 0.91976 0.903 0.49475 0.0
H172 H 0.97371 0.03806 0.643 0.0
H173 H 0.02995 0.96528 0.63343 0.0
H174 H 0.08776 0.97309 0.43162 0.0
H175 H 0.03611 0.8991 0.45327 0.0
Li176 Li 0.20908 0.74404 0.75901 0.0
Li177 Li 0.25909 0.75916 0.74747 0.0
Li178 Li 0.24728 0.70874 0.76219 0.0
Li179 Li 0.24457 0.74774 0.7952 0.0
C180 C 0.22645 0.74056 0.70092 0.0
N181 N 0.21153 0.76265 0.64807 0.0
C182 C 0.2186 0.76933 0.69832 0.0
C183 C 0.2267 0.72305 0.67661 0.0
C184 C 0.21115 0.78009 0.67143 0.0
C185 C 0.21906 0.7346 0.65009 0.0
C186 C 0.23209 0.8017 0.78935 0.0
C187 C 0.26002 0.83876 0.81235 0.0
N188 N 0.23687 0.8461 0.82833 0.0
C189 C 0.20854 0.8097 0.80589 0.0
C190 C 0.25804 0.81637 0.79254 0.0
C191 C 0.21141 0.83215 0.82553 0.0
C192 C 0.1534 0.75261 0.77671 0.0
N193 N 0.16886 0.74842 0.75246 0.0
C194 C 0.12607 0.74767 0.72427 0.0
C195 C 0.1558 0.74556 0.72653 0.0
C196 C 0.10952 0.75215 0.749 0.0
C197 C 0.12366 0.75454 0.7755 0.0
H198 H 0.16421 0.75371 0.79719 0.0
H199 H 0.16818 0.7411 0.7076 0.0
C200 C 0.30526 0.76954 0.71003 0.0
N201 N 0.28248 0.78196 0.72306 0.0
C202 C 0.32291 0.78563 0.69198 0.0
C203 C 0.2931 0.82689 0.70093 0.0
C204 C 0.27602 0.80999 0.71872 0.0
C205 C 0.31698 0.81478 0.68734 0.0
H206 H 0.30979 0.74714 0.71383 0.0
H207 H 0.25751 0.81923 0.729 0.0
C208 C 0.19732 0.69431 0.7882 0.0
N209 N 0.15875 0.64935 0.78443 0.0
C210 C 0.18688 0.68128 0.81305 0.0
C211 C 0.18823 0.68429 0.76141 0.0
C212 C 0.16737 0.65863 0.8107 0.0
C213 C 0.16869 0.6616 0.75996 0.0
C214 C 0.30173 0.73687 0.79292 0.0
C215 C 0.30522 0.71768 0.8156 0.0
C216 C 0.3216 0.75898 0.78898 0.0
C217 C 0.32839 0.72117 0.83425 0.0
C218 C 0.34453 0.76171 0.80805 0.0
N219 N 0.34739 0.74293 0.83012 0.0
C220 C 0.25617 0.65591 0.7324 0.0
C221 C 0.25812 0.65406 0.78309 0.0
C222 C 0.25889 0.62611 0.73071 0.0
N223 N 0.25555 0.66912 0.75835 0.0
C224 C 0.26108 0.62436 0.78242 0.0
C225 C 0.26095 0.60986 0.756 0.0
H226 H 0.25366 0.6684 0.71309 0.0
H227 H 0.25695 0.66508 0.80343 0.0
C228 C 0.22638 0.74861 0.85191 0.0
N229 N 0.24845 0.75744 0.83514 0.0
C230 C 0.22673 0.75375 0.88134 0.0
C231 C 0.27216 0.77795 0.87583 0.0
C232 C 0.27088 0.77237 0.84643 0.0
C233 C 0.24998 0.76837 0.89374 0.0
H234 H 0.20842 0.73749 0.84239 0.0
H235 H 0.28776 0.78012 0.83273 0.0
O236 O 0.23438 0.7296 0.72693 0.0
O237 O 0.22988 0.77942 0.77037 0.0
O238 O 0.21674 0.71632 0.7903 0.0
O239 O 0.27933 0.73372 0.77429 0.0
H240 H 0.21795 0.78319 0.71685 0.0
H241 H 0.23274 0.70076 0.67817 0.0
H242 H 0.205 0.8023 0.66914 0.0
H243 H 0.21916 0.72128 0.63111 0.0
H244 H 0.28003 0.85017 0.81517 0.0
H245 H 0.18829 0.79866 0.80367 0.0
H246 H 0.27662 0.8102 0.78026 0.0
H247 H 0.19338 0.83849 0.83856 0.0
H248 H 0.11621 0.74575 0.70335 0.0
H249 H 0.11189 0.75716 0.79528 0.0
H250 H 0.34122 0.77549 0.68214 0.0
H251 H 0.28745 0.84912 0.69757 0.0
H252 H 0.1939 0.68845 0.83398 0.0
H253 H 0.19615 0.69379 0.74187 0.0
H254 H 0.15914 0.64838 0.82978 0.0
H255 H 0.16148 0.6537 0.73937 0.0
H256 H 0.29004 0.70049 0.81899 0.0
H257 H 0.31928 0.77399 0.7715 0.0
H258 H 0.33124 0.70661 0.85203 0.0
H259 H 0.36 0.77879 0.80534 0.0
H260 H 0.25831 0.61587 0.70988 0.0
H261 H 0.26304 0.61288 0.80246 0.0
H262 H 0.20923 0.7458 0.89429 0.0
H263 H 0.29022 0.7898 0.88439 0.0
Li264 Li 0.50603 0.98964 0.03891 0.0
Li265 Li 0.50874 0.95224 0.00197 0.0
Li266 Li 0.54502 0.99196 0.00439 0.0
Li267 Li 0.49669 0.00156 0.98834 0.0
C268 C 0.54786 0.95235 0.05761 0.0
N269 N 0.57012 0.9344 0.10942 0.0
C270 C 0.54032 0.92556 0.0687 0.0
C271 C 0.56713 0.96977 0.0726 0.0
C272 C 0.55168 0.91694 0.09501 0.0
C273 C 0.57805 0.96038 0.09882 0.0
C274 C 0.45062 0.96565 0.99975 0.0
C275 C 0.42789 0.9448 0.95819 0.0
N276 N 0.40198 0.94777 0.97103 0.0
C277 C 0.42378 0.96849 0.01254 0.0
C278 C 0.45274 0.95369 0.97236 0.0
C279 C 0.39943 0.95932 0.99768 0.0
C280 C 0.49503 0.02182 0.08968 0.0
N281 N 0.49545 0.99521 0.07783 0.0
C282 C 0.48381 0.97386 0.12283 0.0
C283 C 0.48905 0.97155 0.09352 0.0
C284 C 0.48441 0.00095 0.13609 0.0
C285 C 0.48948 0.0252 0.11889 0.0
H286 H 0.4993 0.04039 0.07654 0.0
H287 H 0.48865 0.95074 0.08334 0.0
C288 C 0.52052 0.89832 0.97699 0.0
N289 N 0.50371 0.91241 0.99605 0.0
C290 C 0.51886 0.86849 0.97468 0.0
C291 C 0.48235 0.86848 0.01133 0.0
C292 C 0.4846 0.89826 0.01282 0.0
C293 C 0.49995 0.85316 0.99239 0.0
H294 H 0.53579 0.91018 0.96423 0.0
H295 H 0.47171 0.9101 0.02795 0.0
C296 C 0.53469 0.048 0.0214 0.0
N297 N 0.56621 0.09751 0.03017 0.0
C298 C 0.53374 0.07023 0.00135 0.0
C299 C 0.55139 0.05114 0.04607 0.0
C300 C 0.54989 0.09504 0.00613 0.0
C301 C 0.56726 0.07627 0.05007 0.0
C302 C 0.53354 0.98485 0.94373 0.0
C303 C 0.54319 0.01298 0.94021 0.0
C304 C 0.53202 0.96655 0.92005 0.0
C305 C 0.55134 0.02236 0.91302 0.0
C306 C 0.54036 0.97672 0.89318 0.0
N307 N 0.54978 0.00419 0.89025 0.0
C308 C 0.60162 0.97513 0.00653 0.0
C309 C 0.59766 0.02401 0.99363 0.0
C310 C 0.63138 0.97714 0.00675 0.0
N311 N 0.58537 0.99847 0.00062 0.0
C312 C 0.62745 0.027 0.99353 0.0
C313 C 0.64471 0.00345 0.00061 0.0
H314 H 0.59139 0.95491 0.01147 0.0
H315 H 0.58453 0.04222 0.98844 0.0
C316 C 0.46298 0.0491 0.97495 0.0
N317 N 0.47331 0.02428 0.9639 0.0
C318 C 0.44548 0.06676 0.95845 0.0
C319 C 0.4489 0.03262 0.91965 0.0
C320 C 0.46661 0.01575 0.93683 0.0
C321 C 0.43808 0.05859 0.93037 0.0
H322 H 0.46846 0.05521 0.99665 0.0
H323 H 0.47473 0.9957 0.92865 0.0
O324 O 0.53671 0.96126 0.03201 0.0
O325 O 0.47458 0.97472 0.01404 0.0
O326 O 0.51897 0.02354 0.01708 0.0
O327 O 0.52494 0.97536 0.97004 0.0
H328 H 0.52564 0.91168 0.05727 0.0
H329 H 0.57376 0.99022 0.064 0.0
H330 H 0.54583 0.89637 0.10396 0.0
H331 H 0.59289 0.97372 0.11071 0.0
H332 H 0.42922 0.93556 0.93697 0.0
H333 H 0.42181 0.97772 0.03374 0.0
H334 H 0.4733 0.95138 0.96206 0.0
H335 H 0.37851 0.9614 0.00731 0.0
H336 H 0.48022 0.95447 0.13504 0.0
H337 H 0.48937 0.0466 0.12787 0.0
H338 H 0.53303 0.85749 0.96003 0.0
H339 H 0.46729 0.85751 0.02515 0.0
H340 H 0.52088 0.06829 0.98216 0.0
H341 H 0.552 0.03444 0.06205 0.0
H342 H 0.54949 0.11232 0.99071 0.0
H343 H 0.58035 0.07892 0.06902 0.0
H344 H 0.54411 0.02744 0.95824 0.0
H345 H 0.52432 0.94477 0.92239 0.0
H346 H 0.55883 0.04412 0.90999 0.0
H347 H 0.53928 0.96281 0.87465 0.0
H348 H 0.64381 0.95824 0.01166 0.0
H349 H 0.63682 0.04769 0.98866 0.0
H350 H 0.4381 0.08674 0.96758 0.0
H351 H 0.44341 0.0251 0.89838 0.0
Li352 Li 0.24286 0.75092 0.25483 0.0
Li353 Li 0.25284 0.70301 0.23577 0.0
Li354 Li 0.29113 0.73814 0.24363 0.0
Li355 Li 0.25635 0.74418 0.20477 0.0
C356 C 0.28505 0.71222 0.29274 0.0
N357 N 0.32657 0.6965 0.33181 0.0
C358 C 0.29335 0.68357 0.295 0.0
C359 C 0.29775 0.73285 0.31046 0.0
C360 C 0.31439 0.67605 0.31488 0.0
C361 C 0.31875 0.72448 0.33003 0.0
C362 C 0.19857 0.71219 0.22417 0.0
C363 C 0.17137 0.67356 0.20292 0.0
N364 N 0.1525 0.67489 0.22503 0.0
C365 C 0.1789 0.71319 0.24667 0.0
C366 C 0.19477 0.69227 0.20207 0.0
C367 C 0.15574 0.69416 0.2467 0.0
C368 C 0.19803 0.78896 0.26791 0.0
N369 N 0.21911 0.77281 0.27969 0.0
C370 C 0.20717 0.7895 0.32657 0.0
C371 C 0.22379 0.77256 0.30843 0.0
C372 C 0.18549 0.8068 0.315 0.0
C373 C 0.18095 0.80627 0.28522 0.0
H374 H 0.19464 0.78851 0.24498 0.0
H375 H 0.24057 0.7594 0.31725 0.0
C376 C 0.25876 0.6453 0.2199 0.0
N377 N 0.24404 0.6631 0.23752 0.0
C378 C 0.25376 0.61583 0.22054 0.0
C379 C 0.21865 0.6234 0.2577 0.0
C380 C 0.22448 0.65278 0.25645 0.0
C381 C 0.23343 0.60445 0.23958 0.0
H382 H 0.2748 0.6539 0.20567 0.0
H383 H 0.2135 0.66736 0.27065 0.0
C384 C 0.26352 0.80056 0.23843 0.0
N385 N 0.24555 0.85506 0.25269 0.0
C386 C 0.24652 0.81613 0.2194 0.0
C387 C 0.27154 0.81275 0.26463 0.0
C388 C 0.23764 0.84366 0.22701 0.0
C389 C 0.26216 0.84031 0.27148 0.0
C390 C 0.2961 0.71085 0.18353 0.0
C391 C 0.32229 0.72408 0.17748 0.0
C392 C 0.28123 0.69658 0.16171 0.0
C393 C 0.3331 0.72292 0.14961 0.0
C394 C 0.29273 0.69598 0.13411 0.0
N395 N 0.31821 0.70905 0.12868 0.0
C396 C 0.34645 0.71734 0.25367 0.0
C397 C 0.34268 0.76788 0.25705 0.0
C398 C 0.37591 0.71882 0.25835 0.0
N399 N 0.33058 0.74167 0.253 0.0
C400 C 0.37211 0.77038 0.2617 0.0
C401 C 0.38918 0.74564 0.26204 0.0
H402 H 0.33628 0.69683 0.24983 0.0
H403 H 0.3296 0.78689 0.25603 0.0
C404 C 0.22914 0.74862 0.15059 0.0
N405 N 0.25213 0.7571 0.16634 0.0
C406 C 0.22782 0.75477 0.12137 0.0
C407 C 0.27326 0.7794 0.12544 0.0
C408 C 0.27363 0.77285 0.15461 0.0
C409 C 0.25039 0.76983 0.1083 0.0
H410 H 0.21227 0.73627 0.1605 0.0
H411 H 0.29158 0.77945 0.16776 0.0
O412 O 0.26487 0.72009 0.27304 0.0
O413 O 0.22153 0.73047 0.22387 0.0
O414 O 0.27189 0.77334 0.23165 0.0
O415 O 0.28476 0.71238 0.2105 0.0
H416 H 0.28384 0.66733 0.28141 0.0
H417 H 0.29182 0.75517 0.30878 0.0
H418 H 0.3211 0.65398 0.31678 0.0
H419 H 0.32892 0.74025 0.34371 0.0
H420 H 0.16828 0.65791 0.18607 0.0
H421 H 0.18158 0.72831 0.26404 0.0
H422 H 0.20999 0.69091 0.1847 0.0
H423 H 0.1404 0.69464 0.26401 0.0
H424 H 0.2116 0.78942 0.34935 0.0
H425 H 0.16421 0.8189 0.27541 0.0
H426 H 0.26626 0.60208 0.20673 0.0
H427 H 0.20272 0.61566 0.27265 0.0
H428 H 0.23999 0.80696 0.19911 0.0
H429 H 0.28447 0.80088 0.27972 0.0
H430 H 0.22436 0.85592 0.21256 0.0
H431 H 0.268 0.84992 0.29177 0.0
H432 H 0.33398 0.73545 0.19398 0.0
H433 H 0.26079 0.68649 0.16593 0.0
H434 H 0.35327 0.73318 0.1446 0.0
H435 H 0.28133 0.68524 0.11697 0.0
H436 H 0.38828 0.69926 0.25797 0.0
H437 H 0.38144 0.79146 0.26466 0.0
H438 H 0.20989 0.74678 0.10895 0.0
H439 H 0.2909 0.7914 0.11632 0.0
Li440 Li 0.54605 0.00266 0.48471 0.0
Li441 Li 0.51133 0.042 0.48977 0.0
Li442 Li 0.49774 0.99218 0.49851 0.0
Li443 Li 0.50722 0.00918 0.44949 0.0
C444 C 0.51952 0.01017 0.54713 0.0
N445 N 0.50287 0.99695 0.6023 0.0
C446 C 0.50145 0.02862 0.56215 0.0
C447 C 0.52935 0.98515 0.56021 0.0
C448 C 0.49324 0.02153 0.59003 0.0
C449 C 0.5206 0.97879 0.5881 0.0
C450 C 0.55062 0.06135 0.4534 0.0
C451 C 0.54656 0.10916 0.43429 0.0
N452 N 0.57296 0.11557 0.44487 0.0
C453 C 0.57777 0.06835 0.46395 0.0
C454 C 0.53494 0.08183 0.43829 0.0
C455 C 0.58868 0.09589 0.45943 0.0
C456 C 0.60016 0.98624 0.46406 0.0
N457 N 0.5856 0.99412 0.48799 0.0
C458 C 0.6289 0.99566 0.51522 0.0
C459 C 0.59923 0.99871 0.51335 0.0
C460 C 0.64435 0.98738 0.49087 0.0
C461 C 0.62969 0.9822 0.46516 0.0
H462 H 0.58894 0.98381 0.44394 0.0
H463 H 0.58719 0.00564 0.53184 0.0
C464 C 0.48199 0.09444 0.49515 0.0
N465 N 0.50705 0.08099 0.50087 0.0
C466 C 0.4795 0.12391 0.49946 0.0
C467 C 0.52825 0.12492 0.51682 0.0
C468 C 0.52969 0.09534 0.51238 0.0
C469 C 0.50309 0.13972 0.50967 0.0
H470 H 0.46413 0.08242 0.48659 0.0
H471 H 0.54928 0.08398 0.51701 0.0
C472 C 0.53773 0.95137 0.46063 0.0
N473 N 0.57541 0.90844 0.44567 0.0
C474 C 0.54288 0.94526 0.43178 0.0
C475 C 0.55156 0.93549 0.48188 0.0
C476 C 0.56204 0.9235 0.42465 0.0
C477 C 0.5706 0.91393 0.47388 0.0
C478 C 0.45265 0.02219 0.45991 0.0
C479 C 0.43249 9e-05 0.46205 0.0
C480 C 0.44834 0.04433 0.44024 0.0
C481 C 0.40832 0.0005 0.44441 0.0
C482 C 0.42393 0.04393 0.42293 0.0
N483 N 0.40459 0.02222 0.42536 0.0
C484 C 0.45246 0.98052 0.53667 0.0
C485 C 0.47949 0.93973 0.52354 0.0
C486 C 0.43522 0.96389 0.55458 0.0
N487 N 0.47416 0.96827 0.52175 0.0
C488 C 0.4628 0.92227 0.5412 0.0
C489 C 0.44033 0.93432 0.5571 0.0
H490 H 0.44861 0.00327 0.53466 0.0
H491 H 0.49682 0.93052 0.51139 0.0
C492 C 0.51766 0.02087 0.3921 0.0
N493 N 0.49892 0.00695 0.40945 0.0
C494 C 0.51339 0.02136 0.36258 0.0
C495 C 0.47088 0.99247 0.36896 0.0
C496 C 0.47617 0.9923 0.39848 0.0
C497 C 0.48952 0.00741 0.35058 0.0
H498 H 0.53613 0.0315 0.40115 0.0
H499 H 0.46203 0.98065 0.41261 0.0
O500 O 0.52718 0.01634 0.51958 0.0
O501 O 0.53931 0.03468 0.45806 0.0
O502 O 0.51916 0.97269 0.46801 0.0
O503 O 0.47644 0.02219 0.47702 0.0
H504 H 0.49361 0.04803 0.55225 0.0
H505 H 0.54333 0.97065 0.54882 0.0
H506 H 0.47912 0.0355 0.60187 0.0
H507 H 0.52786 0.9594 0.59844 0.0
H508 H 0.53458 0.12529 0.42284 0.0
H509 H 0.59019 0.05278 0.47572 0.0
H510 H 0.51389 0.07675 0.43 0.0
H511 H 0.6096 0.10166 0.4676 0.0
H512 H 0.63972 6e-05 0.5353 0.0
H513 H 0.64113 0.97629 0.44589 0.0
H514 H 0.45944 0.13425 0.49437 0.0
H515 H 0.54702 0.13617 0.5246 0.0
H516 H 0.5323 0.95728 0.41506 0.0
H517 H 0.54795 0.94006 0.50431 0.0
H518 H 0.56632 0.91861 0.40241 0.0
H519 H 0.58162 0.90162 0.49009 0.0
H520 H 0.43554 0.98267 0.47699 0.0
H521 H 0.46383 0.06148 0.43814 0.0
H522 H 0.39257 0.98351 0.44578 0.0
H523 H 0.4204 0.06085 0.40752 0.0
H524 H 0.4179 0.97404 0.56607 0.0
H525 H 0.46774 0.89968 0.5427 0.0
H526 H 0.52893 0.03232 0.3493 0.0
H527 H 0.45222 0.98135 0.36074 0.0
Li528 Li 0.25214 0.24668 0.75778 0.0
Li529 Li 0.24284 0.2953 0.74398 0.0
Li530 Li 0.20466 0.25831 0.74626 0.0
Li531 Li 0.23951 0.25544 0.70779 0.0
C532 C 0.23608 0.27595 0.80568 0.0
N533 N 0.25369 0.27782 0.86221 0.0
C534 C 0.25367 0.29829 0.81533 0.0
C535 C 0.22717 0.25476 0.82488 0.0
C536 C 0.26239 0.29882 0.84398 0.0
C537 C 0.23641 0.25601 0.85334 0.0
C538 C 0.30087 0.26326 0.73554 0.0
C539 C 0.33986 0.22967 0.73317 0.0
N540 N 0.35553 0.24691 0.75078 0.0
C541 C 0.31735 0.28066 0.75359 0.0
C542 C 0.31218 0.23759 0.72517 0.0
C543 C 0.34496 0.27202 0.76103 0.0
C544 C 0.27659 0.19429 0.77551 0.0
N545 N 0.27617 0.22285 0.78142 0.0
C546 C 0.31047 0.21653 0.81897 0.0
C547 C 0.29304 0.23419 0.80238 0.0
C548 C 0.31104 0.18695 0.81355 0.0
C549 C 0.29398 0.17587 0.79134 0.0
H550 H 0.26357 0.1858 0.75831 0.0
H551 H 0.29341 0.257 0.80601 0.0
C552 C 0.22845 0.35081 0.76 0.0
N553 N 0.24954 0.33523 0.7476 0.0
C554 C 0.23092 0.38054 0.76205 0.0
C555 C 0.27681 0.37765 0.73842 0.0
C556 C 0.2734 0.34792 0.73678 0.0
C557 C 0.25534 0.39441 0.75115 0.0
H558 H 0.2095 0.34008 0.76795 0.0
H559 H 0.28958 0.335 0.72651 0.0
C560 C 0.20543 0.20401 0.73723 0.0
N561 N 0.16173 0.16507 0.74649 0.0
C562 C 0.18882 0.19418 0.71428 0.0
C563 C 0.20004 0.19377 0.76482 0.0
C564 C 0.16676 0.17456 0.71942 0.0
C565 C 0.1778 0.17416 0.76909 0.0
C566 C 0.21093 0.30661 0.69455 0.0
C567 C 0.18488 0.31889 0.68667 0.0
C568 C 0.23609 0.31519 0.6808 0.0
C569 C 0.18442 0.33959 0.66508 0.0
C570 C 0.23473 0.33595 0.65933 0.0
N571 N 0.20914 0.34762 0.65197 0.0
C572 C 0.15333 0.25162 0.77925 0.0
C573 C 0.14813 0.25402 0.72877 0.0
C574 C 0.12363 0.25023 0.78267 0.0
N575 N 0.16483 0.25367 0.7526 0.0
C576 C 0.11844 0.25285 0.73118 0.0
C577 C 0.1058 0.25131 0.75842 0.0
H578 H 0.16714 0.25163 0.79783 0.0
H579 H 0.15795 0.25563 0.70787 0.0
C580 C 0.26876 0.24715 0.65463 0.0
N581 N 0.24306 0.24723 0.66819 0.0
C582 C 0.27003 0.24338 0.62493 0.0
C583 C 0.21843 0.23971 0.62396 0.0
C584 C 0.21817 0.24366 0.65356 0.0
C585 C 0.24458 0.23986 0.60915 0.0
H586 H 0.28818 0.25081 0.66672 0.0
H587 H 0.19802 0.24456 0.66486 0.0
O588 O 0.22709 0.27524 0.77778 0.0
O589 O 0.2736 0.27105 0.72848 0.0
O590 O 0.22659 0.22387 0.73282 0.0
O591 O 0.21166 0.28632 0.71567 0.0
H592 H 0.26083 0.31487 0.80084 0.0
H593 H 0.21339 0.23746 0.81791 0.0
H594 H 0.27614 0.31587 0.85168 0.0
H595 H 0.22983 0.23965 0.86837 0.0
H596 H 0.34882 0.20977 0.72548 0.0
H597 H 0.30875 0.30038 0.76215 0.0
H598 H 0.29954 0.22371 0.71148 0.0
H599 H 0.35791 0.28519 0.77511 0.0
H600 H 0.32378 0.226 0.8355 0.0
H601 H 0.29383 0.15317 0.78648 0.0
H602 H 0.21355 0.39255 0.77151 0.0
H603 H 0.29606 0.38737 0.7299 0.0
H604 H 0.19281 0.20168 0.69277 0.0
H605 H 0.21281 0.20101 0.78276 0.0
H606 H 0.15363 0.1669 0.70189 0.0
H607 H 0.17329 0.1662 0.79037 0.0
H608 H 0.16522 0.31249 0.69715 0.0
H609 H 0.25646 0.30594 0.68662 0.0
H610 H 0.1644 0.34928 0.65875 0.0
H611 H 0.25403 0.34279 0.64851 0.0
H612 H 0.11473 0.24926 0.80405 0.0
H613 H 0.1055 0.25328 0.71192 0.0
H614 H 0.29063 0.24418 0.61438 0.0
H615 H 0.1983 0.23679 0.6128 0.0
Li616 Li 0.99684 0.98755 0.95743 0.0
Li617 Li 0.00642 0.00436 0.00423 0.0
Li618 Li 0.99336 0.95226 0.99604 0.0
Li619 Li 0.95824 0.99277 0.99164 0.0
C620 C 0.04983 0.96782 0.96479 0.0
N621 N 0.0939 0.95555 0.92736 0.0
C622 C 0.06356 0.9899 0.94988 0.0
C623 C 0.0586 0.9395 0.96069 0.0
C624 C 0.08574 0.98326 0.93102 0.0
C625 C 0.08092 0.93374 0.94169 0.0
C626 C 0.99102 0.05074 0.97927 0.0
C627 C 0.98937 0.09466 0.00655 0.0
N628 N 0.01051 0.10576 0.98989 0.0
C629 C 0.01266 0.06264 0.96235 0.0
C630 C 0.97917 0.06692 0.00147 0.0
C631 C 0.02223 0.09048 0.96806 0.0
C632 C 0.9939 0.01333 0.90299 0.0
N633 N 0.004 0.98993 0.91698 0.0
C634 C 0.01799 0.96848 0.87259 0.0
C635 C 0.01576 0.96762 0.9024 0.0
C636 C 0.00746 0.99227 0.8576 0.0
C637 C 0.99551 0.01501 0.8732 0.0
H638 H 0.98369 0.03032 0.9149 0.0
H639 H 0.02241 0.94864 0.91375 0.0
C640 C 0.02186 0.03406 0.05517 0.0
N641 N 0.02991 0.02874 0.02771 0.0
C642 C 0.03844 0.05191 0.07269 0.0
C643 C 0.07142 0.05834 0.03343 0.0
C644 C 0.05424 0.04034 0.01672 0.0
C645 C 0.06365 0.06431 0.06187 0.0
H646 H 0.00264 0.02433 0.06357 0.0
H647 H 0.06025 0.03585 0.9949 0.0
C648 C 0.95436 0.95323 0.93982 0.0
N649 N 0.9337 0.94071 0.88574 0.0
C650 C 0.93578 0.97219 0.9261 0.0
C651 C 0.96235 0.92785 0.92612 0.0
C652 C 0.9256 0.96549 0.89874 0.0
C653 C 0.95167 0.92191 0.89876 0.0
C654 C 0.95785 0.97724 0.04584 0.0
C655 C 0.94801 0.95029 0.05449 0.0
C656 C 0.94489 0.00191 0.05673 0.0
C657 C 0.92511 0.94846 0.07361 0.0
C658 C 0.92202 0.99918 0.07577 0.0
N659 N 0.91267 0.97274 0.08373 0.0
C660 C 0.01999 0.90336 0.02132 0.0
C661 C 0.97537 0.89546 0.99835 0.0
C662 C 0.02228 0.87417 0.02766 0.0
N663 N 0.99698 0.91323 0.00654 0.0
C664 C 0.97671 0.86624 0.00431 0.0
C665 C 0.0005 0.85516 0.01894 0.0
H666 H 0.03673 0.9181 0.02779 0.0
H667 H 0.95714 0.904 0.98697 0.0
C668 C 0.90668 0.02607 0.99193 0.0
N669 N 0.91832 0.99966 0.99547 0.0
C670 C 0.87706 0.02971 0.9939 0.0
C671 C 0.87215 0.97892 0.00295 0.0
C672 C 0.90174 0.97625 0.00061 0.0
C673 C 0.85941 0.00591 0.99954 0.0
H674 H 0.92031 0.04422 0.98724 0.0
H675 H 0.91156 0.95541 0.00264 0.0
O676 O 0.02813 0.97385 0.98349 0.0
O677 O 0.98178 0.02328 0.97441 0.0
O678 O 0.96526 0.95985 0.96622 0.0
O679 O 0.97989 0.97946 0.02667 0.0
H680 H 0.05677 0.01184 0.9523 0.0
H681 H 0.04818 0.9221 0.97186 0.0
H682 H 0.09638 0.00012 0.91919 0.0
H683 H 0.08785 0.91192 0.93827 0.0
H684 H 0.98052 0.10732 0.02379 0.0
H685 H 0.02224 0.05044 0.94518 0.0
H686 H 0.96252 0.05806 0.01486 0.0
H687 H 0.03907 0.09988 0.95523 0.0
H688 H 0.02677 0.95022 0.86134 0.0
H689 H 0.98714 0.03375 0.86246 0.0
H690 H 0.03182 0.05553 0.09461 0.0
H691 H 0.09045 0.0677 0.02402 0.0
H692 H 0.92963 0.99206 0.9363 0.0
H693 H 0.97699 0.91311 0.93631 0.0
H694 H 0.91136 0.98004 0.88777 0.0
H695 H 0.95781 0.90244 0.88781 0.0
H696 H 0.95783 0.93096 0.04648 0.0
H697 H 0.95213 0.02294 0.05025 0.0
H698 H 0.9172 0.92772 0.08037 0.0
H699 H 0.91165 0.0181 0.08415 0.0
H700 H 0.04084 0.86658 0.03926 0.0
H701 H 0.95959 0.85239 0.99687 0.0
H702 H 0.86809 0.05089 0.99116 0.0
H703 H 0.85934 0.95991 0.00672 0.0
Li704 Li 0.74463 0.25183 0.75435 0.0
Li705 Li 0.75587 0.2042 0.73517 0.0
Li706 Li 0.79329 0.2402 0.74361 0.0
Li707 Li 0.75874 0.24573 0.70441 0.0
C708 C 0.78733 0.21373 0.79246 0.0
N709 N 0.82885 0.19847 0.83171 0.0
C710 C 0.79583 0.18515 0.79486 0.0
C711 C 0.79982 0.23452 0.81014 0.0
C712 C 0.81687 0.17787 0.81482 0.0
C713 C 0.82083 0.22638 0.8298 0.0
C714 C 0.70147 0.21233 0.72259 0.0
C715 C 0.67544 0.17357 0.70016 0.0
N716 N 0.65601 0.17429 0.7218 0.0
C717 C 0.68125 0.21268 0.74461 0.0
C718 C 0.69855 0.19265 0.70015 0.0
C719 C 0.6584 0.19329 0.7438 0.0
C720 C 0.69791 0.28765 0.76681 0.0
N721 N 0.72012 0.2733 0.77887 0.0
C722 C 0.70842 0.29188 0.8251 0.0
C723 C 0.72549 0.27487 0.80745 0.0
C724 C 0.68548 0.30722 0.81321 0.0
C725 C 0.68021 0.30479 0.78366 0.0
H726 H 0.69419 0.28601 0.74398 0.0
H727 H 0.74316 0.2631 0.81652 0.0
C728 C 0.76469 0.1469 0.7196 0.0
N729 N 0.74821 0.16399 0.73633 0.0
C730 C 0.76062 0.11729 0.71955 0.0
C731 C 0.72281 0.1232 0.75426 0.0
C732 C 0.72782 0.15276 0.75383 0.0
C733 C 0.73933 0.10499 0.73691 0.0
H734 H 0.78136 0.15621 0.70657 0.0
H735 H 0.71546 0.16676 0.76745 0.0
C736 C 0.76421 0.30194 0.73852 0.0
N737 N 0.74445 0.35572 0.75308 0.0
C738 C 0.74635 0.31687 0.71976 0.0
C739 C 0.77216 0.31441 0.7646 0.0
C740 C 0.73658 0.34405 0.72752 0.0
C741 C 0.76187 0.3416 0.77161 0.0
C742 C 0.79932 0.21331 0.68337 0.0
C743 C 0.82512 0.22734 0.67743 0.0
C744 C 0.78503 0.19852 0.66151 0.0
C745 C 0.83612 0.22645 0.64963 0.0
C746 C 0.79669 0.19822 0.63398 0.0
N747 N 0.82178 0.21208 0.62866 0.0
C748 C 0.84876 0.22018 0.75375 0.0
C749 C 0.84448 0.27068 0.75716 0.0
C750 C 0.87821 0.22196 0.75835 0.0
N751 N 0.83264 0.24434 0.75313 0.0
C752 C 0.8739 0.27347 0.76173 0.0
C753 C 0.89123 0.24891 0.76201 0.0
H754 H 0.83879 0.19957 0.7499 0.0
H755 H 0.83121 0.28955 0.75615 0.0
C756 C 0.73203 0.25018 0.64994 0.0
N757 N 0.75467 0.25892 0.66606 0.0
C758 C 0.73085 0.25681 0.62081 0.0
C759 C 0.7757 0.28236 0.62574 0.0
C760 C 0.77593 0.27533 0.6548 0.0
C761 C 0.75319 0.2726 0.60823 0.0
H762 H 0.71532 0.23734 0.65948 0.0
H763 H 0.79358 0.28214 0.66824 0.0
O764 O 0.76712 0.22137 0.77269 0.0
O765 O 0.72408 0.23104 0.72307 0.0
O766 O 0.77341 0.27503 0.73163 0.0
O767 O 0.78776 0.21458 0.71026 0.0
H768 H 0.78645 0.16878 0.78133 0.0
H769 H 0.79375 0.2568 0.80834 0.0
H770 H 0.82374 0.15585 0.81684 0.0
H771 H 0.83085 0.24229 0.84345 0.0
H772 H 0.67302 0.15811 0.68303 0.0
H773 H 0.68326 0.22758 0.76227 0.0
H774 H 0.71421 0.19179 0.68314 0.0
H775 H 0.64262 0.19328 0.76073 0.0
H776 H 0.71299 0.29284 0.84783 0.0
H777 H 0.66296 0.31646 0.77356 0.0
H778 H 0.77448 0.10418 0.70644 0.0
H779 H 0.70608 0.11478 0.76792 0.0
H780 H 0.73985 0.30746 0.69957 0.0
H781 H 0.78573 0.30302 0.7795 0.0
H782 H 0.72264 0.35581 0.71328 0.0
H783 H 0.76765 0.35141 0.79183 0.0
H784 H 0.83635 0.23911 0.69398 0.0
H785 H 0.76491 0.18776 0.66567 0.0
H786 H 0.85598 0.23733 0.6447 0.0
H787 H 0.78574 0.18707 0.61681 0.0
H788 H 0.89077 0.20252 0.7579 0.0
H789 H 0.88304 0.29464 0.76465 0.0
H790 H 0.71321 0.24865 0.60809 0.0
H791 H 0.79314 0.29493 0.61701 0.0
Li792 Li 0.0116 0.54442 0.99262 0.0
Li793 Li 0.04663 0.5056 0.98734 0.0
Li794 Li 0.00812 0.51244 0.95198 0.0
Li795 Li 0.99808 0.49454 0.0005 0.0
C796 C 0.05107 0.56509 0.95834 0.0
N797 N 0.07252 0.62019 0.95415 0.0
C798 C 0.07717 0.57219 0.97123 0.0
C799 C 0.036 0.58594 0.9431 0.0
C800 C 0.08764 0.60018 0.96889 0.0
C801 C 0.04715 0.6137 0.94132 0.0
C802 C 0.0195 0.51166 0.04958 0.0
C803 C 0.02099 0.47982 0.09017 0.0
N804 N 0.00267 0.49735 0.10442 0.0
C805 C 0.00082 0.52945 0.06464 0.0
C806 C 0.02983 0.48673 0.06245 0.0
C807 C 0.99254 0.52182 0.09235 0.0
C808 C 0.98444 0.59854 0.99679 0.0
N809 N 0.00752 0.583 0.00505 0.0
C810 C 0.02852 0.62406 0.02751 0.0
C811 C 0.02906 0.59493 0.02068 0.0
C812 C 0.00543 0.64094 0.01839 0.0
C813 C 0.98294 0.62771 0.00327 0.0
H814 H 0.96754 0.58848 0.98455 0.0
H815 H 0.04707 0.58193 0.02711 0.0
C816 C 0.10087 0.48975 0.96678 0.0
N817 N 0.08622 0.49712 0.99081 0.0
C818 C 0.13039 0.48567 0.9679 0.0
C819 C 0.12943 0.49807 0.01822 0.0
C820 C 0.09976 0.50118 0.0163 0.0
C821 C 0.14497 0.49027 0.99376 0.0
H822 H 0.08972 0.48774 0.94657 0.0
H823 H 0.08765 0.50773 0.03489 0.0
C824 C 0.95365 0.52444 0.96122 0.0
N825 N 0.90703 0.52361 0.92474 0.0
C826 C 0.93358 0.50222 0.96285 0.0
C827 C 0.94999 0.54627 0.94107 0.0
C828 C 0.91014 0.5022 0.94423 0.0
C829 C 0.9263 0.54544 0.92279 0.0
C830 C 0.03879 0.4545 0.96277 0.0
C831 C 0.04429 0.44857 0.93395 0.0
C832 C 0.05245 0.43856 0.98409 0.0
C833 C 0.06361 0.4269 0.92693 0.0
C834 C 0.07165 0.41712 0.9762 0.0
N835 N 0.0768 0.41178 0.94802 0.0
C836 C 0.01886 0.52435 0.89454 0.0
C837 C 0.97921 0.49316 0.90082 0.0
C838 C 0.0162 0.52253 0.86486 0.0
N839 N 0.00051 0.50984 0.91185 0.0
C840 C 0.97549 0.49105 0.87113 0.0
C841 C 0.99439 0.50563 0.85283 0.0
H842 H 0.03601 0.53691 0.90374 0.0
H843 H 0.96545 0.48111 0.91499 0.0
C844 C 0.95227 0.48194 0.03773 0.0
N845 N 0.97448 0.4701 0.02323 0.0
C846 C 0.93497 0.46497 0.05528 0.0
C847 C 0.96365 0.42391 0.04254 0.0
C848 C 0.98033 0.44167 0.02515 0.0
C849 C 0.94063 0.43553 0.05793 0.0
H850 H 0.94814 0.50464 0.03578 0.0
H851 H 0.99795 0.43275 0.01324 0.0
O852 O 0.04004 0.53803 0.96106 0.0
O853 O 0.02725 0.51836 0.02217 0.0
O854 O 0.97676 0.52485 0.97924 0.0
O855 O 0.02008 0.47575 0.97006 0.0
H856 H 0.08907 0.55637 0.98318 0.0
H857 H 0.01572 0.58081 0.93308 0.0
H858 H 0.10773 0.60602 0.97889 0.0
H859 H 0.0356 0.63011 0.92981 0.0
H860 H 0.02864 0.46049 0.10034 0.0
H861 H 0.99255 0.54876 0.0549 0.0
H862 H 0.04428 0.47274 0.05103 0.0
H863 H 0.97796 0.53528 0.10422 0.0
H864 H 0.04612 0.63331 0.03953 0.0
H865 H 0.96486 0.63995 0.99559 0.0
H866 H 0.14188 0.48013 0.94854 0.0
H867 H 0.14017 0.502 0.03844 0.0
H868 H 0.93615 0.48504 0.97814 0.0
H869 H 0.96547 0.56346 0.93928 0.0
H870 H 0.89447 0.4851 0.94521 0.0
H871 H 0.92329 0.5621 0.90699 0.0
H872 H 0.03389 0.46063 0.91716 0.0
H873 H 0.0486 0.44302 0.0065 0.0
H874 H 0.06816 0.42215 0.90472 0.0
H875 H 0.08254 0.40477 0.99247 0.0
H876 H 0.03116 0.53412 0.85144 0.0
H877 H 0.95867 0.47747 0.86259 0.0
H878 H 0.91765 0.47489 0.06699 0.0
H879 H 0.96853 0.40127 0.04365 0.0
Li880 Li 0.75165 0.74827 0.25946 0.0
Li881 Li 0.74101 0.79651 0.24428 0.0
Li882 Li 0.7026 0.76133 0.2469 0.0
Li883 Li 0.73922 0.75827 0.2098 0.0
C884 C 0.71736 0.79631 0.29818 0.0
N885 N 0.69951 0.83749 0.33676 0.0
C886 C 0.69173 0.81095 0.29365 0.0
C887 C 0.73382 0.8025 0.32246 0.0
C888 C 0.6831 0.83174 0.31335 0.0
C889 C 0.72445 0.82342 0.34168 0.0
C890 C 0.79889 0.78091 0.24285 0.0
C891 C 0.84838 0.79479 0.23763 0.0
N892 N 0.85034 0.79843 0.26648 0.0
C893 C 0.80141 0.78483 0.27245 0.0
C894 C 0.82257 0.7859 0.22528 0.0
C895 C 0.82759 0.79366 0.28399 0.0
C896 C 0.79532 0.70866 0.27107 0.0
N897 N 0.77415 0.72421 0.28342 0.0
C898 C 0.78557 0.70514 0.32951 0.0
C899 C 0.76903 0.72287 0.31204 0.0
C900 C 0.80766 0.68874 0.3174 0.0
C901 C 0.81245 0.69076 0.28773 0.0
H902 H 0.79895 0.71032 0.24824 0.0
H903 H 0.75199 0.73546 0.32125 0.0
C904 C 0.72289 0.85336 0.24724 0.0
N905 N 0.74715 0.83738 0.24835 0.0
C906 C 0.7242 0.88316 0.24916 0.0
C907 C 0.77561 0.88001 0.25258 0.0
C908 C 0.77329 0.85018 0.25068 0.0
C909 C 0.75082 0.8969 0.25194 0.0
H910 H 0.7024 0.84297 0.24439 0.0
H911 H 0.79249 0.83759 0.25075 0.0
C912 C 0.71446 0.70272 0.24747 0.0
N913 N 0.69486 0.65382 0.27452 0.0
C914 C 0.71196 0.67702 0.23226 0.0
C915 C 0.70699 0.70356 0.27643 0.0
C916 C 0.702 0.65253 0.24632 0.0
C917 C 0.69713 0.67862 0.28973 0.0
C918 C 0.71164 0.80762 0.19355 0.0
C919 C 0.68631 0.81769 0.18132 0.0
C920 C 0.73799 0.81694 0.18279 0.0
C921 C 0.68774 0.83695 0.15847 0.0
C922 C 0.73852 0.83619 0.15991 0.0
N923 N 0.7136 0.84571 0.14832 0.0
C924 C 0.65095 0.75194 0.27925 0.0
C925 C 0.6465 0.7565 0.22885 0.0
C926 C 0.62122 0.75017 0.28215 0.0
N927 N 0.66284 0.75546 0.2529 0.0
C928 C 0.61679 0.75493 0.23075 0.0
C929 C 0.60375 0.75219 0.2577 0.0
H930 H 0.66447 0.75132 0.29806 0.0
H931 H 0.65662 0.75908 0.20819 0.0
C932 C 0.77065 0.74923 0.1586 0.0
N933 N 0.74425 0.74899 0.1707 0.0
C934 C 0.77358 0.74569 0.12903 0.0
C935 C 0.72217 0.74096 0.12522 0.0
C936 C 0.72025 0.74458 0.15483 0.0
C937 C 0.74908 0.74195 0.11186 0.0
H938 H 0.78933 0.75291 0.17181 0.0
H939 H 0.69953 0.74488 0.16512 0.0
O940 O 0.72628 0.77593 0.27907 0.0
O941 O 0.77365 0.77175 0.23103 0.0
O942 O 0.72438 0.72678 0.23395 0.0
O943 O 0.7105 0.78856 0.21578 0.0
H944 H 0.67884 0.80672 0.27485 0.0
H945 H 0.75359 0.79124 0.32653 0.0
H946 H 0.66341 0.84335 0.30996 0.0
H947 H 0.737 0.82844 0.36054 0.0
H948 H 0.86686 0.79878 0.22427 0.0
H949 H 0.78332 0.78133 0.28633 0.0
H950 H 0.82102 0.783 0.20233 0.0
H951 H 0.8298 0.7968 0.30686 0.0
H952 H 0.78081 0.70401 0.35217 0.0
H953 H 0.82949 0.67892 0.2775 0.0
H954 H 0.70457 0.89533 0.24791 0.0
H955 H 0.79659 0.88972 0.25473 0.0
H956 H 0.7177 0.67603 0.20982 0.0
H957 H 0.70885 0.7232 0.28858 0.0
H958 H 0.69997 0.63248 0.23481 0.0
H959 H 0.6913 0.67897 0.31215 0.0
H960 H 0.66575 0.81071 0.18941 0.0
H961 H 0.75784 0.80939 0.19194 0.0
H962 H 0.6683 0.84491 0.14878 0.0
H963 H 0.75874 0.84356 0.15136 0.0
H964 H 0.61199 0.74822 0.30333 0.0
H965 H 0.60415 0.75606 0.21132 0.0
H966 H 0.79476 0.74626 0.11967 0.0
H967 H 0.70269 0.73858 0.11284 0.0
Li968 Li 0.0048 0.4841 0.53975 0.0
Li969 Li 0.00836 0.4523 0.5 0.0
Li970 Li 0.0424 0.48993 0.50393 0.0
Li971 Li 0.99193 0.49969 0.48986 0.0
C972 C 0.05659 0.46026 0.5524 0.0
N973 N 0.09642 0.46506 0.59605 0.0
C974 C 0.06982 0.4358 0.5634 0.0
C975 C 0.06358 0.48717 0.56376 0.0
C976 C 0.0899 0.43867 0.58543 0.0
C977 C 0.08378 0.48914 0.58576 0.0
C978 C 0.95195 0.45125 0.51496 0.0
C979 C 0.90782 0.43221 0.49589 0.0
N980 N 0.90898 0.41045 0.51522 0.0
C981 C 0.9526 0.42886 0.5348 0.0
C982 C 0.92933 0.45309 0.49544 0.0
C983 C 0.93072 0.40837 0.53451 0.0
C984 C 0.98858 0.51197 0.59185 0.0
N985 N 0.99629 0.48678 0.57945 0.0
C986 C 0.99766 0.46355 0.62496 0.0
C987 C 0.00027 0.46269 0.59525 0.0
C988 C 0.99062 0.48942 0.63854 0.0
C989 C 0.98542 0.51374 0.62161 0.0
H990 H 0.98565 0.53081 0.57872 0.0
H991 H 0.00638 0.44295 0.58482 0.0
C992 C 0.0283 0.39626 0.49729 0.0
N993 N 0.00549 0.41249 0.48957 0.0
C994 C 0.02832 0.36681 0.49217 0.0
C995 C 0.9818 0.37129 0.47006 0.0
C996 C 0.98271 0.40071 0.47563 0.0
C997 C 0.00468 0.35385 0.4787 0.0
H998 H 0.04645 0.40619 0.50769 0.0
H999 H 0.96514 0.41402 0.46886 0.0
C1000 C 0.02247 0.54714 0.50964 0.0
N1001 N 0.03453 0.6015 0.48946 0.0
C1002 C 0.03148 0.55103 0.48135 0.0
C1003 C 0.01959 0.57089 0.52765 0.0
C1004 C 0.03746 0.57869 0.47156 0.0
C1005 C 0.02581 0.59821 0.51705 0.0
C1006 C 0.01815 0.46037 0.44568 0.0
C1007 C 0.04141 0.44502 0.43497 0.0
C1008 C 0.9912 0.45697 0.43305 0.0
C1009 C 0.03729 0.42639 0.41186 0.0
C1010 C 0.98797 0.43819 0.40993 0.0
N1011 N 0.01088 0.42339 0.39992 0.0
C1012 C 0.09824 0.47598 0.49103 0.0
C1013 C 0.09428 0.52443 0.50564 0.0
C1014 C 0.12784 0.47873 0.48854 0.0
N1015 N 0.08209 0.49869 0.49917 0.0
C1016 C 0.12388 0.52819 0.50332 0.0
C1017 C 0.1411 0.50512 0.49468 0.0
H1018 H 0.08814 0.45544 0.48726 0.0
H1019 H 0.08129 0.54192 0.51323 0.0
C1020 C 0.94363 0.5347 0.48015 0.0
N1021 N 0.96753 0.52371 0.46786 0.0
C1022 C 0.92551 0.55254 0.46442 0.0
C1023 C 0.95706 0.54743 0.42376 0.0
C1024 C 0.9746 0.52985 0.4403 0.0
C1025 C 0.93209 0.559 0.43576 0.0
H1026 H 0.93863 0.52951 0.50217 0.0
H1027 H 0.99394 0.52112 0.43116 0.0
O1028 O 0.03671 0.45761 0.5309 0.0
O1029 O 0.97311 0.47152 0.51485 0.0
O1030 O 0.01606 0.52034 0.51966 0.0
O1031 O 0.0216 0.47836 0.46861 0.0
H1032 H 0.06454 0.41476 0.55514 0.0
H1033 H 0.05356 0.50639 0.55582 0.0
H1034 H 0.10028 0.41991 0.59411 0.0
H1035 H 0.08938 0.50983 0.59468 0.0
H1036 H 0.89025 0.43327 0.48083 0.0
H1037 H 0.96999 0.42713 0.54999 0.0
H1038 H 0.9285 0.47036 0.48001 0.0
H1039 H 0.93104 0.39079 0.54959 0.0
H1040 H 0.00154 0.44427 0.63724 0.0
H1041 H 0.98013 0.53411 0.63135 0.0
H1042 H 0.04637 0.35427 0.49939 0.0
H1043 H 0.96339 0.36232 0.4591 0.0
H1044 H 0.03407 0.53292 0.46715 0.0
H1045 H 0.01262 0.56825 0.54959 0.0
H1046 H 0.04448 0.582 0.44974 0.0
H1047 H 0.02368 0.61678 0.53076 0.0
H1048 H 0.06242 0.44741 0.44438 0.0
H1049 H 0.97284 0.46829 0.44135 0.0
H1050 H 0.05509 0.41431 0.40341 0.0
H1051 H 0.9672 0.43523 0.40007 0.0
H1052 H 0.14025 0.46009 0.48264 0.0
H1053 H 0.13314 0.54892 0.5083 0.0
H1054 H 0.90637 0.56083 0.47443 0.0
H1055 H 0.96319 0.55222 0.40191 0.0
Li1056 Li 0.49391 0.53943 0.00832 0.0
Li1057 Li 0.45719 0.5015 0.00818 0.0
Li1058 Li 0.49364 0.50413 0.04623 0.0
Li1059 Li 0.50599 0.48995 0.99704 0.0
C1060 C 0.45307 0.55859 0.04144 0.0
N1061 N 0.43341 0.61395 0.04813 0.0
C1062 C 0.42877 0.56768 0.02659 0.0
C1063 C 0.46726 0.57758 0.05985 0.0
C1064 C 0.41917 0.59576 0.03026 0.0
C1065 C 0.45704 0.60551 0.06287 0.0
C1066 C 0.48824 0.51149 0.94839 0.0
C1067 C 0.48796 0.48284 0.90537 0.0
N1068 N 0.50775 0.50074 0.89363 0.0
C1069 C 0.50847 0.52968 0.93588 0.0
C1070 C 0.47775 0.48796 0.93301 0.0
C1071 C 0.51809 0.52386 0.90817 0.0
C1072 C 0.52116 0.59367 0.01325 0.0
N1073 N 0.49994 0.57888 0.9998 0.0
C1074 C 0.48227 0.62185 0.97845 0.0
C1075 C 0.48104 0.59217 0.98214 0.0
C1076 C 0.50312 0.63789 0.99319 0.0
C1077 C 0.52309 0.62337 0.01032 0.0
H1078 H 0.53602 0.58256 0.02696 0.0
H1079 H 0.4643 0.57982 0.97183 0.0
C1080 C 0.40146 0.48641 0.02474 0.0
N1081 N 0.41757 0.49457 0.00191 0.0
C1082 C 0.37192 0.48319 0.02192 0.0
C1083 C 0.37588 0.49806 0.97246 0.0
C1084 C 0.40551 0.50028 0.97603 0.0
C1085 C 0.35883 0.48946 0.99565 0.0
H1086 H 0.41149 0.48306 0.04533 0.0
H1087 H 0.41878 0.50741 0.95845 0.0
C1088 C 0.54906 0.51483 0.04127 0.0
N1089 N 0.59335 0.50907 0.08011 0.0
C1090 C 0.56857 0.49238 0.03846 0.0
C1091 C 0.55208 0.53434 0.06385 0.0
C1092 C 0.59084 0.48986 0.05829 0.0
C1093 C 0.5746 0.53104 0.08328 0.0
C1094 C 0.46146 0.4485 0.0289 0.0
C1095 C 0.45398 0.44064 0.0568 0.0
C1096 C 0.44841 0.43477 0.00563 0.0
C1097 C 0.43333 0.41931 0.06094 0.0
C1098 C 0.42783 0.41358 0.01067 0.0
N1099 N 0.42078 0.40636 0.03799 0.0
C1100 C 0.48003 0.51223 0.10367 0.0
C1101 C 0.51894 0.48045 0.09739 0.0
C1102 C 0.48156 0.50913 0.13329 0.0
N1103 N 0.49872 0.49824 0.08639 0.0
C1104 C 0.5215 0.477 0.12706 0.0
C1105 C 0.50252 0.4914 0.14535 0.0
H1106 H 0.4637 0.52567 0.09444 0.0
H1107 H 0.533 0.46887 0.08317 0.0
C1108 C 0.55339 0.47834 0.96132 0.0
N1109 N 0.52992 0.46645 0.97381 0.0
C1110 C 0.57095 0.46184 0.94367 0.0
C1111 C 0.53989 0.42118 0.9521 0.0
C1112 C 0.52302 0.43843 0.96969 0.0
C1113 C 0.56422 0.43286 0.93879 0.0
H1114 H 0.55837 0.5007 0.96502 0.0
H1115 H 0.50442 0.42944 0.98005 0.0
O1116 O 0.46336 0.53147 0.03746 0.0
O1117 O 0.47911 0.5164 0.97574 0.0
O1118 O 0.52712 0.51769 0.02205 0.0
O1119 O 0.48147 0.46948 0.02442 0.0
H1120 H 0.41762 0.55334 0.01213 0.0
H1121 H 0.48623 0.57095 0.07135 0.0
H1122 H 0.40048 0.60314 0.01879 0.0
H1123 H 0.46795 0.62051 0.07684 0.0
H1124 H 0.48019 0.4646 0.89328 0.0
H1125 H 0.51689 0.54791 0.94758 0.0
H1126 H 0.46211 0.47366 0.94244 0.0
H1127 H 0.53387 0.53766 0.89826 0.0
H1128 H 0.46634 0.63223 0.96522 0.0
H1129 H 0.53974 0.63492 0.02171 0.0
H1130 H 0.3593 0.47702 0.04037 0.0
H1131 H 0.36634 0.50327 0.95196 0.0
H1132 H 0.56647 0.47694 0.0213 0.0
H1133 H 0.53691 0.55153 0.0667 0.0
H1134 H 0.60606 0.47257 0.0564 0.0
H1135 H 0.57707 0.54587 0.10095 0.0
H1136 H 0.46389 0.45097 0.07506 0.0
H1137 H 0.45378 0.44073 0.9839 0.0
H1138 H 0.42726 0.41309 0.08241 0.0
H1139 H 0.4174 0.40294 0.99287 0.0
H1140 H 0.46659 0.5207 0.14666 0.0
H1141 H 0.53771 0.46284 0.13558 0.0
H1142 H 0.58934 0.47178 0.93362 0.0
H1143 H 0.53415 0.39885 0.94926 0.0
Li1144 Li 0.75508 0.79251 0.76028 0.0
Li1145 Li 0.75832 0.756 0.79742 0.0
Li1146 Li 0.79545 0.75692 0.75952 0.0
Li1147 Li 0.74723 0.74159 0.75053 0.0
C1148 C 0.80634 0.80769 0.78903 0.0
N1149 N 0.84828 0.84956 0.78934 0.0
C1150 C 0.81952 0.81566 0.81473 0.0
C1151 C 0.8145 0.82096 0.76347 0.0
C1152 C 0.84068 0.8369 0.81445 0.0
C1153 C 0.83574 0.8421 0.76408 0.0
C1154 C 0.70435 0.76565 0.79589 0.0
C1155 C 0.67343 0.73739 0.82611 0.0
N1156 N 0.66588 0.76153 0.84056 0.0
C1157 C 0.69612 0.79021 0.81086 0.0
C1158 C 0.6928 0.73904 0.80341 0.0
C1159 C 0.6767 0.78767 0.83344 0.0
C1160 C 0.74091 0.84288 0.72815 0.0
N1161 N 0.74605 0.83179 0.75455 0.0
C1162 C 0.74205 0.87812 0.776 0.0
C1163 C 0.74655 0.84868 0.77827 0.0
C1164 C 0.73678 0.89038 0.74901 0.0
C1165 C 0.736 0.87224 0.72489 0.0
H1166 H 0.74107 0.82908 0.70956 0.0
H1167 H 0.7511 0.83932 0.79896 0.0
C1168 C 0.75182 0.72489 0.84968 0.0
N1169 N 0.75361 0.75128 0.83751 0.0
C1170 C 0.75031 0.72216 0.87945 0.0
C1171 C 0.75225 0.77381 0.88343 0.0
C1172 C 0.75366 0.77552 0.85365 0.0
C1173 C 0.7509 0.74684 0.89674 0.0
H1174 H 0.75215 0.70597 0.83633 0.0
H1175 H 0.75517 0.79621 0.84332 0.0
C1176 C 0.76468 0.75996 0.70074 0.0
N1177 N 0.75088 0.73844 0.64726 0.0
C1178 C 0.78303 0.74075 0.68704 0.0
C1179 C 0.73927 0.76816 0.68726 0.0
C1180 C 0.77571 0.73018 0.65998 0.0
C1181 C 0.73267 0.75702 0.66024 0.0
C1182 C 0.77664 0.69525 0.77015 0.0
C1183 C 0.79969 0.68424 0.75464 0.0
C1184 C 0.75475 0.67687 0.77914 0.0
C1185 C 0.80026 0.65502 0.74809 0.0
C1186 C 0.75608 0.6478 0.77211 0.0
N1187 N 0.77861 0.63757 0.75685 0.0
C1188 C 0.85084 0.74484 0.77689 0.0
C1189 C 0.84842 0.76304 0.72953 0.0
C1190 C 0.88065 0.74455 0.77582 0.0
N1191 N 0.83546 0.75406 0.754 0.0
C1192 C 0.87824 0.76276 0.72739 0.0
C1193 C 0.89469 0.75374 0.75088 0.0
H1194 H 0.83987 0.73827 0.7962 0.0
H1195 H 0.83566 0.77112 0.71199 0.0
C1196 C 0.69552 0.72224 0.72582 0.0
N1197 N 0.72388 0.71609 0.7277 0.0
C1198 C 0.67744 0.70557 0.70867 0.0
C1199 C 0.71793 0.67625 0.69586 0.0
C1200 C 0.73531 0.69381 0.71281 0.0
C1201 C 0.68864 0.68216 0.69358 0.0
H1202 H 0.68699 0.74041 0.73732 0.0
H1203 H 0.75801 0.68991 0.71355 0.0
O1204 O 0.78582 0.78671 0.78897 0.0
O1205 O 0.72396 0.76754 0.77426 0.0
O1206 O 0.77123 0.77012 0.72747 0.0
O1207 O 0.7759 0.72374 0.77701 0.0
H1208 H 0.8135 0.80549 0.83468 0.0
H1209 H 0.80463 0.81496 0.74335 0.0
H1210 H 0.85108 0.84329 0.83418 0.0
H1211 H 0.84228 0.85254 0.74447 0.0
H1212 H 0.66445 0.71691 0.83229 0.0
H1213 H 0.70481 0.81097 0.80526 0.0
H1214 H 0.69886 0.71986 0.79194 0.0
H1215 H 0.67027 0.80648 0.84534 0.0
H1216 H 0.74352 0.89116 0.79514 0.0
H1217 H 0.73175 0.88059 0.70369 0.0
H1218 H 0.74959 0.70095 0.88883 0.0
H1219 H 0.75233 0.79339 0.89591 0.0
H1220 H 0.80246 0.73365 0.6974 0.0
H1221 H 0.72449 0.78245 0.69783 0.0
H1222 H 0.78965 0.71521 0.64919 0.0
H1223 H 0.71298 0.76301 0.64966 0.0
H1224 H 0.81685 0.69811 0.74753 0.0
H1225 H 0.73678 0.68499 0.79118 0.0
H1226 H 0.81788 0.64624 0.73598 0.0
H1227 H 0.73918 0.63337 0.77875 0.0
H1228 H 0.8926 0.73731 0.79432 0.0
H1229 H 0.88834 0.77039 0.70796 0.0
H1230 H 0.65492 0.7108 0.70734 0.0
H1231 H 0.72741 0.65868 0.68408 0.0
Li1232 Li 0.75839 0.26116 0.24809 0.0
Li1233 Li 0.70809 0.24707 0.25942 0.0
Li1234 Li 0.7432 0.25131 0.2959 0.0
Li1235 Li 0.74576 0.21129 0.26425 0.0
C1236 C 0.73244 0.30541 0.28807 0.0
N1237 N 0.73923 0.35116 0.32514 0.0
C1238 C 0.70923 0.3153 0.30404 0.0
C1239 C 0.75908 0.31886 0.29085 0.0
C1240 C 0.71311 0.33842 0.32272 0.0
C1241 C 0.76208 0.34197 0.3097 0.0
C1242 C 0.72642 0.24122 0.20164 0.0
C1243 C 0.72122 0.23357 0.15078 0.0
N1244 N 0.71303 0.26133 0.14761 0.0
C1245 C 0.71791 0.26966 0.19788 0.0
C1246 C 0.7281 0.22301 0.17792 0.0
C1247 C 0.71125 0.27942 0.1704 0.0
C1248 C 0.80564 0.27082 0.21149 0.0
N1249 N 0.78214 0.28314 0.22328 0.0
C1250 C 0.79177 0.3271 0.19887 0.0
C1251 C 0.77492 0.31068 0.2173 0.0
C1252 C 0.81625 0.31505 0.18632 0.0
C1253 C 0.82312 0.28648 0.19289 0.0
H1254 H 0.81071 0.24879 0.21649 0.0
H1255 H 0.75602 0.31991 0.22685 0.0
C1256 C 0.65249 0.25842 0.27557 0.0
N1257 N 0.66812 0.25172 0.25201 0.0
C1258 C 0.62281 0.26068 0.27382 0.0
C1259 C 0.62562 0.24888 0.2235 0.0
C1260 C 0.6553 0.24659 0.2263 0.0
C1261 C 0.60891 0.25595 0.24749 0.0
H1262 H 0.66311 0.26121 0.29598 0.0
H1263 H 0.66784 0.24011 0.20805 0.0
C1264 C 0.79976 0.23746 0.29527 0.0
N1265 N 0.84415 0.23977 0.33433 0.0
C1266 C 0.80065 0.21811 0.31807 0.0
C1267 C 0.82157 0.25779 0.29212 0.0
C1268 C 0.82323 0.2197 0.33767 0.0
C1269 C 0.84382 0.25864 0.31215 0.0
C1270 C 0.69493 0.19864 0.28992 0.0
C1271 C 0.68307 0.18729 0.31496 0.0
C1272 C 0.68666 0.18742 0.26333 0.0
C1273 C 0.66304 0.16507 0.31298 0.0
C1274 C 0.66656 0.16522 0.26226 0.0
N1275 N 0.65525 0.15459 0.2869 0.0
C1276 C 0.72436 0.25459 0.35227 0.0
C1277 C 0.76982 0.27643 0.3467 0.0
C1278 C 0.7247 0.26029 0.38159 0.0
N1279 N 0.74691 0.26214 0.33554 0.0
C1280 C 0.77111 0.28252 0.376 0.0
C1281 C 0.74845 0.27414 0.39392 0.0
H1282 H 0.70607 0.24397 0.34282 0.0
H1283 H 0.78713 0.28315 0.33299 0.0
C1284 C 0.75834 0.1585 0.23587 0.0
N1285 N 0.7537 0.17147 0.26152 0.0
C1286 C 0.76079 0.12866 0.23431 0.0
C1287 C 0.75433 0.12639 0.28564 0.0
C1288 C 0.7521 0.15615 0.2862 0.0
C1289 C 0.75824 0.11218 0.2594 0.0
H1290 H 0.75932 0.17123 0.21657 0.0
H1291 H 0.74816 0.16703 0.30627 0.0
O1292 O 0.72923 0.28247 0.27004 0.0
O1293 O 0.73358 0.23125 0.22826 0.0
O1294 O 0.77794 0.23623 0.27579 0.0
O1295 O 0.7148 0.22027 0.29168 0.0
H1296 H 0.68846 0.30522 0.30213 0.0
H1297 H 0.7774 0.31122 0.27901 0.0
H1298 H 0.69536 0.34623 0.3353 0.0
H1299 H 0.78261 0.35246 0.3122 0.0
H1300 H 0.72242 0.21971 0.13223 0.0
H1301 H 0.71619 0.28402 0.21597 0.0
H1302 H 0.73466 0.20095 0.18042 0.0
H1303 H 0.70461 0.30137 0.1672 0.0
H1304 H 0.78582 0.34912 0.19478 0.0
H1305 H 0.84155 0.27617 0.18344 0.0
H1306 H 0.61088 0.26533 0.29311 0.0
H1307 H 0.61592 0.24506 0.20276 0.0
H1308 H 0.78392 0.20228 0.32079 0.0
H1309 H 0.82122 0.27286 0.27452 0.0
H1310 H 0.82409 0.20501 0.35556 0.0
H1311 H 0.86078 0.27434 0.31008 0.0
H1312 H 0.68938 0.19544 0.33575 0.0
H1313 H 0.69563 0.19563 0.24368 0.0
H1314 H 0.65372 0.15612 0.33221 0.0
H1315 H 0.65998 0.1564 0.24184 0.0
H1316 H 0.70681 0.25326 0.39455 0.0
H1317 H 0.78959 0.29374 0.38449 0.0
H1318 H 0.76356 0.11856 0.21361 0.0
H1319 H 0.75264 0.11459 0.30553 0.0
Li1320 Li 0.50291 0.50411 0.5096 0.0
Li1321 Li 0.4919 0.48904 0.45966 0.0
Li1322 Li 0.45511 0.49261 0.4948 0.0
Li1323 Li 0.48827 0.45364 0.498 0.0
C1324 C 0.4606 0.5462 0.4819 0.0
N1325 N 0.42026 0.58917 0.48573 0.0
C1326 C 0.4492 0.55834 0.45705 0.0
C1327 C 0.4517 0.55614 0.5087 0.0
C1328 C 0.42877 0.57998 0.45943 0.0
C1329 C 0.43124 0.57782 0.51019 0.0
C1330 C 0.54953 0.48533 0.47739 0.0
C1331 C 0.60013 0.47904 0.46974 0.0
N1332 N 0.60238 0.50703 0.46192 0.0
C1333 C 0.55234 0.51405 0.46927 0.0
C1334 C 0.5736 0.46768 0.47766 0.0
C1335 C 0.57924 0.5246 0.46154 0.0
C1336 C 0.54694 0.51338 0.54988 0.0
N1337 N 0.52726 0.52679 0.53324 0.0
C1338 C 0.54275 0.57258 0.55034 0.0
C1339 C 0.5251 0.5558 0.5329 0.0
C1340 C 0.56338 0.55944 0.5679 0.0
C1341 C 0.56541 0.52935 0.56733 0.0
H1342 H 0.54842 0.49025 0.5494 0.0
H1343 H 0.50968 0.56601 0.51907 0.0
C1344 C 0.47602 0.50016 0.40377 0.0
N1345 N 0.49909 0.49231 0.41959 0.0
C1346 C 0.47726 0.49989 0.37395 0.0
C1347 C 0.52604 0.48322 0.37703 0.0
C1348 C 0.52388 0.48392 0.4069 0.0
C1349 C 0.50237 0.49091 0.36013 0.0
H1350 H 0.45625 0.50562 0.41439 0.0
H1351 H 0.54159 0.4766 0.41978 0.0
C1352 C 0.45875 0.479 0.55312 0.0
N1353 N 0.42454 0.47928 0.60129 0.0
C1354 C 0.43827 0.45747 0.5571 0.0
C1355 C 0.46208 0.50049 0.57376 0.0
C1356 C 0.42109 0.45806 0.58156 0.0
C1357 C 0.44451 0.50029 0.59795 0.0
C1358 C 0.46166 0.44 0.44714 0.0
C1359 C 0.43646 0.43028 0.43416 0.0
C1360 C 0.48779 0.42758 0.43965 0.0
C1361 C 0.43781 0.40832 0.41385 0.0
C1362 C 0.48824 0.40567 0.41925 0.0
N1363 N 0.46346 0.39657 0.40687 0.0
C1364 C 0.40112 0.49843 0.47185 0.0
C1365 C 0.40073 0.50889 0.52149 0.0
C1366 C 0.3716 0.50223 0.47017 0.0
N1367 N 0.415 0.50119 0.4973 0.0
C1368 C 0.37108 0.51263 0.52086 0.0
C1369 C 0.35601 0.50881 0.49502 0.0
H1370 H 0.41305 0.49305 0.45278 0.0
H1371 H 0.41214 0.51201 0.54133 0.0
C1372 C 0.5175 0.40156 0.51142 0.0
N1373 N 0.49173 0.41411 0.50669 0.0
C1374 C 0.51932 0.37177 0.51431 0.0
C1375 C 0.46802 0.36874 0.50808 0.0
C1376 C 0.4672 0.39845 0.50542 0.0
C1377 C 0.49438 0.35496 0.51203 0.0
H1378 H 0.53669 0.41458 0.51206 0.0
H1379 H 0.44706 0.40901 0.50136 0.0
O1380 O 0.48022 0.52458 0.48007 0.0
O1381 O 0.52349 0.47446 0.4853 0.0
O1382 O 0.47595 0.47872 0.5295 0.0
O1383 O 0.46056 0.46159 0.46701 0.0
H1384 H 0.45613 0.55128 0.43614 0.0
H1385 H 0.46018 0.54687 0.52815 0.0
H1386 H 0.4197 0.58951 0.44037 0.0
H1387 H 0.424 0.58552 0.53079 0.0
H1388 H 0.61894 0.46561 0.46982 0.0
H1389 H 0.53401 0.52807 0.46888 0.0
H1390 H 0.5718 0.44541 0.48388 0.0
H1391 H 0.58172 0.54677 0.45521 0.0
H1392 H 0.53995 0.59558 0.55022 0.0
H1393 H 0.58128 0.51817 0.57993 0.0
H1394 H 0.45855 0.50626 0.36186 0.0
H1395 H 0.54563 0.47563 0.36734 0.0
H1396 H 0.43546 0.44069 0.54135 0.0
H1397 H 0.47804 0.51714 0.57112 0.0
H1398 H 0.40501 0.44165 0.58484 0.0
H1399 H 0.44676 0.51684 0.61405 0.0
H1400 H 0.41605 0.4396 0.43975 0.0
H1401 H 0.50754 0.43473 0.44944 0.0
H1402 H 0.41846 0.4006 0.40363 0.0
H1403 H 0.50831 0.39591 0.41325 0.0
H1404 H 0.36113 0.49987 0.44959 0.0
H1405 H 0.36006 0.5177 0.5406 0.0
H1406 H 0.54008 0.36195 0.51711 0.0
H1407 H 0.44825 0.35664 0.50656 0.0
H1408 H 0.12741 0.1866 0.18719 0.0
H1409 H 0.12225 0.06639 0.06458 0.0
H1410 H 0.20252 0.15061 0.14754 0.0
H1411 H 0.04678 0.10489 0.10106 0.0
H1412 H 0.15191 0.09722 0.0948 0.0
H1413 H 0.09745 0.15708 0.15581 0.0
C1414 C 0.13763 0.17264 0.17177 0.0
C1415 C 0.16758 0.17108 0.17008 0.0
C1416 C 0.12886 0.09897 0.09619 0.0
C1417 C 0.13335 0.13694 0.13426 0.0
C1418 C 0.11188 0.08146 0.0788 0.0
C1419 C 0.08192 0.08303 0.0802 0.0
C1420 C 0.11587 0.11824 0.11524 0.0
C1421 C 0.06976 0.10265 0.09948 0.0
C1422 C 0.12049 0.15566 0.15396 0.0
C1423 C 0.17956 0.15224 0.14995 0.0
N1424 N 0.08677 0.11947 0.11622 0.0
N1425 N 0.16243 0.13593 0.13287 0.0
H1426 H 0.08671 0.94625 0.38696 0.0
H1427 H 0.16343 0.79418 0.36799 0.0
H1428 H 0.08385 0.87913 0.45044 0.0
H1429 H 0.16722 0.86171 0.30498 0.0
H1430 H 0.13455 0.8251 0.39863 0.0
H1431 H 0.11653 0.91576 0.3568 0.0
C1432 C 0.0925 0.92517 0.39466 0.0
C1433 C 0.08274 0.91528 0.42133 0.0
C1434 C 0.14169 0.83317 0.3781 0.0
C1435 C 0.11667 0.88006 0.3867 0.0
C1436 C 0.15833 0.81556 0.36064 0.0
C1437 C 0.16779 0.82533 0.33383 0.0
C1438 C 0.13444 0.8608 0.36874 0.0
C1439 C 0.1601 0.85311 0.32529 0.0
C1440 C 0.1094 0.90769 0.37734 0.0
C1441 C 0.09056 0.88755 0.42992 0.0
N1442 N 0.14392 0.86985 0.34268 0.0
N1443 N 0.10705 0.87095 0.41268 0.0
H1444 H 0.42034 0.8797 0.54741 0.0
H1445 H 0.33536 0.86999 0.69597 0.0
H1446 H 0.4193 0.94755 0.61037 0.0
H1447 H 0.34095 0.79997 0.63576 0.0
H1448 H 0.36532 0.89903 0.66441 0.0
H1449 H 0.39093 0.85033 0.57919 0.0
C1450 C 0.41409 0.88839 0.56798 0.0
C1451 C 0.42235 0.9162 0.57618 0.0
C1452 C 0.36004 0.8773 0.65809 0.0
C1453 C 0.38833 0.88272 0.61259 0.0
C1454 C 0.34278 0.86075 0.67604 0.0
C1455 C 0.33555 0.83249 0.66849 0.0
C1456 C 0.37013 0.8656 0.6323 0.0
C1457 C 0.34621 0.82153 0.6426 0.0
C1458 C 0.39715 0.87164 0.58607 0.0
C1459 C 0.41314 0.92643 0.60293 0.0
N1460 N 0.36289 0.83812 0.62542 0.0
N1461 N 0.39665 0.90971 0.62014 0.0
H1462 H 0.44049 0.06825 0.8722 0.0
H1463 H 0.31731 0.18619 0.87178 0.0
H1464 H 0.39225 0.09111 0.94766 0.0
H1465 H 0.34662 0.14434 0.79484 0.0
H1466 H 0.34804 0.15472 0.90014 0.0
H1467 H 0.40921 0.09877 0.84358 0.0
C1468 C 0.42325 0.07946 0.88279 0.0
C1469 C 0.41913 0.07701 0.91252 0.0
C1470 C 0.3477 0.15236 0.87706 0.0
C1471 C 0.38358 0.11252 0.87981 0.0
C1472 C 0.33031 0.17042 0.86087 0.0
C1473 C 0.32944 0.16784 0.83094 0.0
C1474 C 0.36463 0.13179 0.86321 0.0
C1475 C 0.34648 0.14685 0.8179 0.0
C1476 C 0.40549 0.09702 0.8664 0.0
C1477 C 0.39669 0.09264 0.92497 0.0
N1478 N 0.36351 0.12972 0.8341 0.0
N1479 N 0.37987 0.10977 0.9086 0.0
H1480 H 0.62712 0.3129 0.81188 0.0
H1481 H 0.62282 0.43128 0.9363 0.0
H1482 H 0.70233 0.34386 0.85607 0.0
H1483 H 0.54724 0.39339 0.89857 0.0
H1484 H 0.65241 0.40112 0.9055 0.0
H1485 H 0.59761 0.34386 0.84193 0.0
C1486 C 0.63745 0.32631 0.82783 0.0
C1487 C 0.66726 0.32576 0.83147 0.0
C1488 C 0.62936 0.39939 0.90397 0.0
C1489 C 0.63356 0.36118 0.86609 0.0
C1490 C 0.61244 0.41674 0.92142 0.0
C1491 C 0.58249 0.41485 0.92005 0.0
C1492 C 0.61626 0.38008 0.88485 0.0
C1493 C 0.57024 0.39531 0.90062 0.0
C1494 C 0.62057 0.34387 0.84509 0.0
C1495 C 0.67941 0.34333 0.85275 0.0
N1496 N 0.58716 0.37875 0.88377 0.0
N1497 N 0.66254 0.36035 0.86919 0.0
H1498 H 0.95791 0.3929 0.09442 0.0
H1499 H 0.79901 0.3535 0.14538 0.0
H1500 H 0.88228 0.4361 0.06402 0.0
H1501 H 0.87491 0.31585 0.18202 0.0
H1502 H 0.82914 0.38252 0.11406 0.0
H1503 H 0.92782 0.36283 0.12499 0.0
C1504 C 0.93496 0.39596 0.09405 0.0
C1505 C 0.92262 0.41708 0.07661 0.0
C1506 C 0.83922 0.36791 0.12894 0.0
C1507 C 0.88803 0.38285 0.11175 0.0
C1508 C 0.82202 0.35141 0.14697 0.0
C1509 C 0.8344 0.33225 0.16654 0.0
C1510 C 0.86911 0.36527 0.13034 0.0
C1511 C 0.86437 0.33008 0.16711 0.0
C1512 C 0.9178 0.37889 0.11164 0.0
C1513 C 0.89277 0.42034 0.07735 0.0
N1514 N 0.88068 0.34642 0.14933 0.0
N1515 N 0.87653 0.4034 0.09458 0.0
H1516 H 0.91539 0.55162 0.37995 0.0
H1517 H 0.82778 0.69845 0.37199 0.0
H1518 H 0.90553 0.60883 0.45195 0.0
H1519 H 0.82843 0.63533 0.30426 0.0
H1520 H 0.85721 0.66668 0.40122 0.0
H1521 H 0.88496 0.58299 0.35135 0.0
C1522 C 0.9069 0.57086 0.38972 0.0
C1523 C 0.9131 0.57764 0.41838 0.0
C1524 C 0.85087 0.65977 0.37998 0.0
C1525 C 0.87804 0.61363 0.38577 0.0
C1526 C 0.83392 0.67785 0.3633 0.0
C1527 C 0.82555 0.66962 0.33554 0.0
C1528 C 0.85967 0.63326 0.36884 0.0
C1529 C 0.83467 0.64284 0.32531 0.0
C1530 C 0.88938 0.58868 0.37342 0.0
C1531 C 0.90112 0.60262 0.43003 0.0
N1532 N 0.85123 0.62568 0.34193 0.0
N1533 N 0.88426 0.61976 0.41365 0.0
H1534 H 0.58514 0.54595 0.62117 0.0
H1535 H 0.65149 0.7 0.65214 0.0
H1536 H 0.58546 0.61337 0.55774 0.0
H1537 H 0.68359 0.6238 0.69305 0.0
H1538 H 0.62119 0.66992 0.62129 0.0
H1539 H 0.6161 0.57541 0.65152 0.0
C1540 C 0.5918 0.56677 0.61342 0.0
C1541 C 0.58249 0.57704 0.58667 0.0
C1542 C 0.63489 0.65981 0.63701 0.0
C1543 C 0.61734 0.61119 0.6219 0.0
C1544 C 0.652 0.67693 0.65468 0.0
C1545 C 0.66999 0.66428 0.67509 0.0
C1546 C 0.63541 0.6299 0.64016 0.0
C1547 C 0.6701 0.6343 0.67742 0.0
C1548 C 0.60936 0.58364 0.63091 0.0
C1549 C 0.59146 0.60462 0.57833 0.0
N1550 N 0.6529 0.61809 0.66028 0.0
N1551 N 0.60821 0.62076 0.59593 0.0
H1552 H 0.29201 0.21006 0.43188 0.0
H1553 H 0.20737 0.26363 0.57056 0.0
H1554 H 0.21133 0.25459 0.42881 0.0
H1555 H 0.28307 0.21108 0.57513 0.0
H1556 H 0.20852 0.26001 0.51855 0.0
H1557 H 0.28927 0.20979 0.48424 0.0
C1558 C 0.27368 0.2197 0.44222 0.0
C1559 C 0.25188 0.23242 0.42592 0.0
C1560 C 0.22483 0.24915 0.53089 0.0
C1561 C 0.24862 0.23217 0.4858 0.0
C1562 C 0.2241 0.25106 0.56068 0.0
C1563 C 0.24509 0.23752 0.57737 0.0
C1564 C 0.24681 0.23373 0.51751 0.0
C1565 C 0.26662 0.22213 0.56317 0.0
C1566 C 0.27209 0.21944 0.47209 0.0
C1567 C 0.22847 0.24427 0.44045 0.0
N1568 N 0.26695 0.2207 0.53406 0.0
N1569 N 0.22755 0.24401 0.46952 0.0
H1570 H 0.05058 0.97641 0.82098 0.0
H1571 H 0.95758 0.00678 0.6802 0.0
H1572 H 0.96423 0.00874 0.8219 0.0
H1573 H 0.04794 0.98824 0.67732 0.0
H1574 H 0.95916 0.00395 0.73223 0.0
H1575 H 0.04954 0.97699 0.76844 0.0
C1576 C 0.0314 0.98357 0.81012 0.0
C1577 C 0.00752 0.99273 0.82582 0.0
C1578 C 0.97868 0.00052 0.72028 0.0
C1579 C 0.00617 0.99339 0.76587 0.0
C1580 C 0.97784 0.00227 0.69052 0.0
C1581 C 0.00276 0.99811 0.67431 0.0
C1582 C 0.00461 0.99442 0.73414 0.0
C1583 C 0.02819 0.9915 0.68892 0.0
C1584 C 0.03087 0.984 0.78018 0.0
C1585 C 0.9833 0.00195 0.81068 0.0
N1586 N 0.02849 0.98995 0.71804 0.0
N1587 N 0.98324 0.00199 0.78161 0.0
H1588 H 0.29658 0.76365 0.92918 0.0
H1589 H 0.20576 0.78435 0.07291 0.0
H1590 H 0.20636 0.783 0.93019 0.0
H1591 H 0.29584 0.76443 0.07176 0.0
H1592 H 0.20626 0.78732 0.02064 0.0
H1593 H 0.29756 0.76776 0.98134 0.0
C1594 C 0.27704 0.76911 0.94033 0.0
C1595 C 0.2513 0.7728 0.92525 0.0
C1596 C 0.22597 0.7825 0.03182 0.0
C1597 C 0.25219 0.77714 0.98509 0.0
C1598 C 0.22567 0.78069 0.06167 0.0
C1599 C 0.25077 0.77402 0.07676 0.0
C1600 C 0.25154 0.77748 0.01688 0.0
C1601 C 0.27604 0.76992 0.06107 0.0
C1602 C 0.27758 0.77127 0.97015 0.0
C1603 C 0.22658 0.77947 0.94093 0.0
N1604 N 0.27573 0.77153 0.03201 0.0
N1605 N 0.22761 0.78129 0.96997 0.0
H1606 H 0.49929 0.05217 0.31376 0.0
H1607 H 0.45055 0.96878 0.1724 0.0
H1608 H 0.46843 0.96478 0.31529 0.0
H1609 H 0.51096 0.03917 0.17238 0.0
H1610 H 0.44887 0.9713 0.22469 0.0
H1611 H 0.49525 0.052 0.26169 0.0
C1612 C 0.49172 0.03289 0.30322 0.0
C1613 C 0.48466 0.00827 0.31906 0.0
C1614 C 0.46233 0.98625 0.21312 0.0
C1615 C 0.47938 0.00827 0.25931 0.0
C1616 C 0.46346 0.98477 0.18326 0.0
C1617 C 0.48112 0.00365 0.16774 0.0
C1618 C 0.47866 0.00699 0.22762 0.0
C1619 C 0.49673 0.02438 0.18317 0.0
C1620 C 0.48927 0.03291 0.27347 0.0
C1621 C 0.47403 0.9843 0.3041 0.0
N1622 N 0.49515 0.02545 0.21219 0.0
N1623 N 0.47183 0.98486 0.27503 0.0
H1624 H 0.42902 0.23095 0.20563 0.0
H1625 H 0.57288 0.29323 0.27508 0.0
H1626 H 0.43119 0.28039 0.28376 0.0
H1627 H 0.57229 0.22246 0.2153 0.0
H1628 H 0.52073 0.29369 0.27378 0.0
H1629 H 0.4815 0.23264 0.20405 0.0
C1630 C 0.44056 0.24225 0.22235 0.0
C1631 C 0.42583 0.25538 0.24497 0.0
C1632 C 0.53204 0.2781 0.26091 0.0
C1633 C 0.48559 0.25754 0.24322 0.0
C1634 C 0.56186 0.27771 0.26173 0.0
C1635 C 0.57716 0.25759 0.24548 0.0
C1636 C 0.51728 0.25843 0.24353 0.0
C1637 C 0.56154 0.23856 0.22799 0.0
C1638 C 0.47044 0.2431 0.22151 0.0
C1639 C 0.44176 0.26965 0.26617 0.0
N1640 N 0.53246 0.23942 0.22751 0.0
N1641 N 0.47076 0.27041 0.26474 0.0
H1642 H 0.04827 0.31771 0.46315 0.0
H1643 H 0.95416 0.17533 0.48273 0.0
H1644 H 0.95866 0.31782 0.48542 0.0
H1645 H 0.04533 0.17483 0.46827 0.0
H1646 H 0.95456 0.2275 0.479 0.0
H1647 H 0.04678 0.26543 0.46057 0.0
C1648 C 0.02826 0.30676 0.46747 0.0
C1649 C 0.0036 0.32224 0.47473 0.0
C1650 C 0.97447 0.216 0.47649 0.0
C1651 C 0.00171 0.26231 0.47157 0.0
C1652 C 0.97423 0.18616 0.4784 0.0
C1653 C 0.99977 0.17065 0.47582 0.0
C1654 C 0.00044 0.23052 0.47195 0.0
C1655 C 0.0252 0.18593 0.47074 0.0
C1656 C 0.02741 0.2769 0.46588 0.0
C1657 C 0.97815 0.30687 0.47951 0.0
N1658 N 0.0249 0.21501 0.46904 0.0
N1659 N 0.97792 0.27778 0.47801 0.0
H1660 H 0.93127 0.77533 0.79119 0.0
H1661 H 0.07303 0.72168 0.71381 0.0
H1662 H 0.93002 0.73447 0.70824 0.0
H1663 H 0.0732 0.78579 0.78068 0.0
H1664 H 0.02082 0.72334 0.71291 0.0
H1665 H 0.98355 0.77606 0.78972 0.0
C1666 C 0.94205 0.76643 0.7727 0.0
C1667 C 0.92636 0.75471 0.74985 0.0
C1668 C 0.03235 0.73712 0.72767 0.0
C1669 C 0.98613 0.75549 0.74799 0.0
C1670 C 0.06221 0.73633 0.72811 0.0
C1671 C 0.07772 0.75357 0.74742 0.0
C1672 C 0.01781 0.75503 0.74689 0.0
C1673 C 0.06228 0.77168 0.76581 0.0
C1674 C 0.97186 0.76702 0.77178 0.0
C1675 C 0.94136 0.74382 0.72623 0.0
N1676 N 0.03323 0.7718 0.76519 0.0
N1677 N 0.97046 0.74428 0.72599 0.0
H1678 H 0.49618 0.67261 0.9462 0.0
H1679 H 0.4984 0.81727 0.03853 0.0
H1680 H 0.50946 0.67544 0.03766 0.0
H1681 H 0.50128 0.81664 0.94613 0.0
H1682 H 0.49899 0.76501 0.03838 0.0
H1683 H 0.4949 0.72514 0.94547 0.0
C1684 C 0.49883 0.68429 0.9661 0.0
C1685 C 0.50309 0.66966 0.99201 0.0
C1686 C 0.49948 0.77625 0.01811 0.0
C1687 C 0.50156 0.72961 0.99135 0.0
C1688 C 0.4989 0.80611 0.01818 0.0
C1689 C 0.49967 0.82135 0.99229 0.0
C1690 C 0.50068 0.76139 0.99197 0.0
C1691 C 0.50086 0.80573 0.96658 0.0
C1692 C 0.49821 0.71424 0.96566 0.0
C1693 C 0.50657 0.68585 0.01715 0.0
N1694 N 0.50125 0.77658 0.96705 0.0
N1695 N 0.50562 0.7149 0.0162 0.0
H1696 H 0.56619 0.7871 0.22981 0.0
H1697 H 0.42586 0.71142 0.29272 0.0
H1698 H 0.56926 0.71819 0.29128 0.0
H1699 H 0.4246 0.78465 0.23634 0.0
H1700 H 0.4782 0.71375 0.29341 0.0
H1701 H 0.51415 0.78665 0.23271 0.0
C1702 C 0.55587 0.77176 0.24385 0.0
C1703 C 0.57209 0.75246 0.26013 0.0
C1704 C 0.46645 0.72942 0.28105 0.0
C1705 C 0.51234 0.752 0.26379 0.0
C1706 C 0.43658 0.72803 0.28055 0.0
C1707 C 0.4208 0.74785 0.26442 0.0
C1708 C 0.48064 0.75066 0.26514 0.0
C1709 C 0.43581 0.76913 0.24936 0.0
C1710 C 0.52613 0.77165 0.24565 0.0
C1711 C 0.55758 0.7335 0.27843 0.0
N1712 N 0.46485 0.76985 0.24996 0.0
N1713 N 0.5285 0.73362 0.27964 0.0
H1714 H 0.52646 0.17558 0.55061 0.0
H1715 H 0.46635 0.31778 0.47654 0.0
H1716 H 0.47735 0.17656 0.47217 0.0
H1717 H 0.52577 0.31982 0.54738 0.0
H1718 H 0.4682 0.26564 0.47675 0.0
H1719 H 0.52494 0.22805 0.55164 0.0
C1720 C 0.5154 0.18677 0.53359 0.0
C1721 C 0.50186 0.17153 0.51135 0.0
C1722 C 0.48086 0.27741 0.4923 0.0
C1723 C 0.49987 0.23153 0.51256 0.0
C1724 C 0.47965 0.30722 0.49231 0.0
C1725 C 0.49577 0.32319 0.51213 0.0
C1726 C 0.49827 0.26328 0.51229 0.0
C1727 C 0.51311 0.30832 0.53165 0.0
C1728 C 0.51447 0.21671 0.53426 0.0
C1729 C 0.4876 0.18723 0.49007 0.0
N1730 N 0.51383 0.27916 0.53132 0.0
N1731 N 0.48697 0.21628 0.49124 0.0
H1732 H 0.0718 0.21872 0.79377 0.0
H1733 H 0.92622 0.28828 0.73624 0.0
H1734 H 0.06788 0.28531 0.72984 0.0
H1735 H 0.92834 0.21496 0.79247 0.0
H1736 H 0.97833 0.29029 0.7375 0.0
H1737 H 0.01947 0.21957 0.79712 0.0
C1738 C 0.05994 0.23362 0.78058 0.0
C1739 C 0.0742 0.25181 0.76133 0.0
C1740 C 0.96743 0.27382 0.74968 0.0
C1741 C 0.01444 0.25288 0.765 0.0
C1742 C 0.93763 0.27281 0.74917 0.0
C1743 C 0.92285 0.2514 0.76425 0.0
C1744 C 0.9827 0.25329 0.76542 0.0
C1745 C 0.93887 0.23162 0.78024 0.0
C1746 C 0.0301 0.23401 0.7824 0.0
C1747 C 0.05776 0.27056 0.7446 0.0
N1748 N 0.96793 0.233 0.78035 0.0
N1749 N 0.02881 0.27058 0.74682 0.0
H1750 H 0.04803 0.82124 0.01385 0.0
H1751 H 0.96045 0.67502 0.03429 0.0
H1752 H 0.95828 0.81756 0.03518 0.0
H1753 H 0.05029 0.67858 0.01334 0.0
H1754 H 0.96013 0.72723 0.03845 0.0
H1755 H 0.05036 0.7691 0.01793 0.0
C1756 C 0.0289 0.80952 0.01978 0.0
C1757 C 0.00286 0.82381 0.02393 0.0
C1758 C 0.97998 0.71659 0.03315 0.0
C1759 C 0.00527 0.76402 0.02822 0.0
C1760 C 0.98013 0.68678 0.03065 0.0
C1761 C 0.00539 0.6724 0.0233 0.0
C1762 C 0.00523 0.73221 0.02811 0.0
C1763 C 0.03038 0.68872 0.01929 0.0
C1764 C 0.03019 0.77971 0.02191 0.0
C1765 C 0.97868 0.80742 0.03125 0.0
N1766 N 0.02961 0.71775 0.02154 0.0
N1767 N 0.98044 0.77842 0.03297 0.0
H1768 H 0.24205 0.42323 0.20472 0.0
H1769 H 0.22362 0.57144 0.28733 0.0
H1770 H 0.21529 0.42905 0.29303 0.0
H1771 H 0.23256 0.5654 0.19545 0.0
H1772 H 0.2194 0.51936 0.2897 0.0
H1773 H 0.23753 0.47515 0.20054 0.0
C1774 C 0.23483 0.43532 0.22314 0.0
C1775 C 0.22929 0.42166 0.24935 0.0
C1776 C 0.22207 0.52945 0.26899 0.0
C1777 C 0.22462 0.48131 0.24484 0.0
C1778 C 0.22432 0.55925 0.26759 0.0
C1779 C 0.22868 0.57294 0.24116 0.0
C1780 C 0.2244 0.51309 0.24382 0.0
C1781 C 0.22984 0.55582 0.21638 0.0
C1782 C 0.23243 0.46503 0.22077 0.0
C1783 C 0.22041 0.43864 0.27257 0.0
N1784 N 0.22795 0.52683 0.21834 0.0
N1785 N 0.2186 0.46756 0.26983 0.0
H1786 H 0.74326 0.06703 0.692 0.0
H1787 H 0.71043 0.92786 0.78608 0.0
H1788 H 0.72579 0.07047 0.78279 0.0
H1789 H 0.75529 0.92529 0.70527 0.0
H1790 H 0.70832 0.98003 0.78248 0.0
H1791 H 0.74001 0.01486 0.69391 0.0
C1792 C 0.73879 0.05689 0.71237 0.0
C1793 C 0.73515 0.07332 0.73736 0.0
C1794 C 0.7185 0.96797 0.76551 0.0
C1795 C 0.73084 0.01346 0.73947 0.0
C1796 C 0.71987 0.93817 0.76758 0.0
C1797 C 0.73331 0.92198 0.74607 0.0
C1798 C 0.73039 0.98178 0.74162 0.0
C1799 C 0.74443 0.93666 0.72226 0.0
C1800 C 0.73679 0.02708 0.71337 0.0
C1801 C 0.72856 0.05885 0.76292 0.0
N1802 N 0.74278 0.96569 0.72073 0.0
N1803 N 0.72671 0.02976 0.76333 0.0
H1804 H 0.32379 0.53326 0.98044 0.0
H1805 H 0.17887 0.44436 0.98156 0.0
H1806 H 0.32266 0.44453 0.00602 0.0
H1807 H 0.18222 0.53311 0.00709 0.0
H1808 H 0.23155 0.44332 0.98115 0.0
H1809 H 0.27124 0.53307 0.98004 0.0
C1810 C 0.3124 0.51367 0.98561 0.0
C1811 C 0.32735 0.48886 0.99323 0.0
C1812 C 0.22067 0.46294 0.98694 0.0
C1813 C 0.26768 0.48843 0.99266 0.0
C1814 C 0.19079 0.46354 0.98715 0.0
C1815 C 0.17647 0.48879 0.99459 0.0
C1816 C 0.2361 0.488 0.99342 0.0
C1817 C 0.19265 0.51319 0.00153 0.0
C1818 C 0.28255 0.51363 0.9856 0.0
C1819 C 0.31174 0.46406 7e-05 0.0
N1820 N 0.22167 0.51229 0.00051 0.0
N1821 N 0.28266 0.46439 0.99946 0.0
H1822 H 0.79293 0.07682 0.22766 0.0
H1823 H 0.71627 0.93305 0.28232 0.0
H1824 H 0.72329 0.07504 0.28823 0.0
H1825 H 0.78931 0.93309 0.22589 0.0
H1826 H 0.71844 0.98526 0.28416 0.0
H1827 H 0.79182 0.02432 0.226 0.0
C1828 C 0.77739 0.0654 0.24055 0.0
C1829 C 0.75827 0.08036 0.25821 0.0
C1830 C 0.73406 0.97389 0.2714 0.0
C1831 C 0.75694 0.02036 0.2565 0.0
C1832 C 0.73273 0.94406 0.27023 0.0
C1833 C 0.75258 0.92864 0.25385 0.0
C1834 C 0.75535 0.98857 0.25601 0.0
C1835 C 0.77374 0.94408 0.23901 0.0
C1836 C 0.77686 0.03545 0.23971 0.0
C1837 C 0.73875 0.06444 0.27466 0.0
N1838 N 0.7745 0.97319 0.24036 0.0
N1839 N 0.73856 0.03538 0.27336 0.0
H1840 H 0.82397 0.03746 0.96488 0.0
H1841 H 0.68095 0.98051 0.04047 0.0
H1842 H 0.82286 0.98085 0.0379 0.0
H1843 H 0.68069 0.03275 0.96422 0.0
H1844 H 0.73301 0.9833 0.04158 0.0
H1845 H 0.77165 0.03934 0.96635 0.0
C1846 C 0.81275 0.02568 0.98141 0.0
C1847 C 0.82782 0.00882 0.0012 0.0
C1848 C 0.72162 0.99422 0.02461 0.0
C1849 C 0.76796 0.01065 0.00282 0.0
C1850 C 0.69185 0.99249 0.02386 0.0
C1851 C 0.67638 0.00616 0.00203 0.0
C1852 C 0.7362 0.00973 0.00337 0.0
C1853 C 0.6917 0.02197 0.98152 0.0
C1854 C 0.78287 0.02661 0.98212 0.0
C1855 C 0.81212 0.99375 0.02194 0.0
N1856 N 0.72077 0.0232 0.9826 0.0
N1857 N 0.7831 0.99495 0.02215 0.0
H1858 H 0.28833 0.5748 0.71722 0.0
H1859 H 0.23948 0.42997 0.79512 0.0
H1860 H 0.23483 0.57201 0.79253 0.0
H1861 H 0.2773 0.43138 0.71079 0.0
H1862 H 0.24172 0.48215 0.79639 0.0
H1863 H 0.28824 0.52234 0.71614 0.0
C1864 C 0.27652 0.56324 0.73349 0.0
C1865 C 0.26167 0.57797 0.75508 0.0
C1866 C 0.24956 0.47106 0.7776 0.0
C1867 C 0.26181 0.51791 0.75414 0.0
C1868 C 0.24817 0.44122 0.7768 0.0
C1869 C 0.25801 0.42616 0.75271 0.0
C1870 C 0.26099 0.48612 0.75422 0.0
C1871 C 0.2697 0.442 0.72993 0.0
C1872 C 0.2766 0.53327 0.73292 0.0
C1873 C 0.24707 0.56172 0.77579 0.0
N1874 N 0.2708 0.47111 0.73121 0.0
N1875 N 0.24754 0.53265 0.7748 0.0
H1876 H 0.17722 0.4818 0.45479 0.0
H1877 H 0.32048 0.54536 0.52473 0.0
H1878 H 0.17731 0.53516 0.53046 0.0
H1879 H 0.3188 0.47604 0.4633 0.0
H1880 H 0.26814 0.54629 0.52374 0.0
H1881 H 0.22932 0.4842 0.45395 0.0
C1882 C 0.18816 0.49399 0.47128 0.0
C1883 C 0.17276 0.50808 0.49289 0.0
C1884 C 0.27931 0.53097 0.51043 0.0
C1885 C 0.23259 0.51122 0.49179 0.0
C1886 C 0.3092 0.5303 0.51107 0.0
C1887 C 0.32422 0.51058 0.49406 0.0
C1888 C 0.26431 0.51189 0.49254 0.0
C1889 C 0.30832 0.49197 0.47643 0.0
C1890 C 0.21794 0.49545 0.47071 0.0
C1891 C 0.1882 0.52414 0.51325 0.0
N1892 N 0.27931 0.49308 0.47615 0.0
N1893 N 0.21726 0.52519 0.51227 0.0
H1894 H 0.71949 0.71052 0.93085 0.0
H1895 H 0.78399 0.77374 0.07707 0.0
H1896 H 0.78302 0.77781 0.93494 0.0
H1897 H 0.71898 0.7078 0.07425 0.0
H1898 H 0.78557 0.77355 0.02488 0.0
H1899 H 0.72036 0.70749 0.98321 0.0
C1900 C 0.73371 0.72456 0.94274 0.0
C1901 C 0.75109 0.74456 0.92848 0.0
C1902 C 0.77102 0.75902 0.03564 0.0
C1903 C 0.75209 0.74131 0.98837 0.0
C1904 C 0.77028 0.75895 0.0655 0.0
C1905 C 0.75132 0.74075 0.08013 0.0
C1906 C 0.75266 0.74079 0.02016 0.0
C1907 C 0.73368 0.72245 0.06388 0.0
C1908 C 0.73411 0.7229 0.97263 0.0
C1909 C 0.76889 0.76241 0.94502 0.0
N1910 N 0.73473 0.72298 0.03478 0.0
N1911 N 0.76891 0.76036 0.97403 0.0
H1912 H 0.45998 0.47209 0.32409 0.0
H1913 H 0.55002 0.4937 0.17993 0.0
H1914 H 0.54694 0.50367 0.32366 0.0
H1915 H 0.45855 0.48143 0.18238 0.0
H1916 H 0.55123 0.49129 0.23248 0.0
H1917 H 0.46095 0.46974 0.27199 0.0
C1918 C 0.47925 0.47874 0.31306 0.0
C1919 C 0.50328 0.48851 0.32836 0.0
C1920 C 0.53093 0.48902 0.22146 0.0
C1921 C 0.5047 0.48531 0.26848 0.0
C1922 C 0.53027 0.49021 0.19153 0.0
C1923 C 0.50412 0.48797 0.17687 0.0
C1924 C 0.5053 0.48527 0.23672 0.0
C1925 C 0.47911 0.48367 0.19289 0.0
C1926 C 0.47985 0.47719 0.28327 0.0
C1927 C 0.52794 0.49593 0.31281 0.0
N1928 N 0.48032 0.48249 0.22191 0.0
N1929 N 0.52799 0.49428 0.2837 0.0
H1930 H 0.70538 0.29087 0.43011 0.0
H1931 H 0.79906 0.26889 0.572 0.0
H1932 H 0.7947 0.26775 0.42954 0.0
H1933 H 0.70855 0.28683 0.57272 0.0
H1934 H 0.79897 0.27342 0.5199 0.0
H1935 H 0.70718 0.29409 0.48232 0.0
C1936 C 0.7254 0.28652 0.44095 0.0
C1937 C 0.74987 0.27876 0.42539 0.0
C1938 C 0.77916 0.27656 0.53145 0.0
C1939 C 0.75212 0.28261 0.48523 0.0
C1940 C 0.77923 0.27419 0.56125 0.0
C1941 C 0.75374 0.27741 0.57678 0.0
C1942 C 0.75341 0.28218 0.517 0.0
C1943 C 0.72861 0.28378 0.56159 0.0
C1944 C 0.72644 0.28849 0.47077 0.0
C1945 C 0.77536 0.27398 0.44059 0.0
N1946 N 0.72906 0.28584 0.53256 0.0
N1947 N 0.77576 0.27578 0.46965 0.0
H1948 H 0.0307 0.46895 0.67549 0.0
H1949 H 0.94685 0.51034 0.81853 0.0
H1950 H 0.95034 0.51403 0.67358 0.0
H1951 H 0.03745 0.49347 0.81563 0.0
H1952 H 0.94493 0.50605 0.76603 0.0
H1953 H 0.03071 0.47194 0.7277 0.0
C1954 C 0.01294 0.47932 0.68613 0.0
C1955 C 0.99043 0.49119 0.67024 0.0
C1956 C 0.96519 0.50333 0.77696 0.0
C1957 C 0.99034 0.49477 0.73002 0.0
C1958 C 0.96626 0.5056 0.80683 0.0
C1959 C 0.99238 0.5024 0.82132 0.0
C1960 C 0.99033 0.49735 0.76166 0.0
C1961 C 0.01695 0.49642 0.80523 0.0
C1962 C 0.01305 0.48118 0.7159 0.0
C1963 C 0.96816 0.50476 0.68508 0.0
N1964 N 0.01531 0.49398 0.7763 0.0
N1965 N 0.96859 0.50607 0.71422 0.0
H1966 H 0.82275 0.03086 0.47502 0.0
H1967 H 0.67849 0.9411 0.48094 0.0
H1968 H 0.82235 0.9438 0.5058 0.0
H1969 H 0.6813 0.03108 0.50172 0.0
H1970 H 0.73119 0.94038 0.48049 0.0
H1971 H 0.77022 0.03012 0.47436 0.0
C1972 C 0.81152 0.0115 0.48127 0.0
C1973 C 0.82666 0.98733 0.49043 0.0
C1974 C 0.72018 0.9602 0.48524 0.0
C1975 C 0.76702 0.98629 0.4896 0.0
C1976 C 0.6903 0.96061 0.48547 0.0
C1977 C 0.67584 0.98613 0.4916 0.0
C1978 C 0.73546 0.98567 0.49037 0.0
C1979 C 0.69185 0.01097 0.49719 0.0
C1980 C 0.78168 0.01116 0.48111 0.0
C1981 C 0.81127 0.96283 0.49865 0.0
N1982 N 0.72088 0.0102 0.49617 0.0
N1983 N 0.78218 0.96283 0.49788 0.0
loop_
_geom_bond_atom_site_label_1
_geom_bond_atom_site_label_2
_geom_bond_distance
_geom_bond_site_symmetry_2
_ccdc_geom_bond_type
Li0 N17 1.990 . S
Li0 O60 1.956 . S
Li0 O61 1.970 . S
Li0 O62 1.961 . S
Li1 N25 1.990 . S
Li1 O60 1.970 . S
Li1 O61 1.956 . S
Li1 O63 1.961 . S
Li2 N47 1.990 . S
Li2 O60 1.961 . S
Li2 O62 1.956 . S
Li2 O63 1.970 . S
Li3 N53 1.990 . S
Li3 O61 1.961 . S
Li3 O62 1.970 . S
Li3 O63 1.956 . S
C4 C6 1.348 . S
C4 C7 1.356 . S
C4 O60 1.325 . S
N5 C8 1.314 . S
N5 C9 1.279 . S
C6 C4 1.348 . S
C6 C8 1.353 . S
C6 H64 0.929 . S
C7 C4 1.356 . S
C7 C9 1.358 . S
C7 H65 0.930 . S
C8 N5 1.314 . S
C8 C6 1.353 . S
C8 H66 0.930 . S
C9 N5 1.279 . S
C9 C7 1.358 . S
C9 H67 0.930 . S
C10 C13 1.348 . S
C10 C14 1.356 . S
C10 O61 1.325 . S
C11 N12 1.279 . S
C11 C14 1.358 . S
C11 H68 0.930 . S
N12 C11 1.279 . S
N12 C15 1.314 . S
C13 C10 1.348 . S
C13 C15 1.353 . S
C13 H69 0.929 . S
C14 C10 1.356 . S
C14 C11 1.358 . S
C14 H70 0.930 . S
C15 N12 1.314 . S
C15 C13 1.353 . S
C15 H71 0.930 . S
C16 N17 1.314 . S
C16 C21 1.353 . S
C16 H22 0.930 . S
N17 Li0 1.990 . S
N17 C16 1.314 . S
N17 C19 1.279 . S
C18 C19 1.358 . S
C18 C20 1.356 . S
C18 H72 0.930 . S
C19 N17 1.279 . S
C19 C18 1.358 . S
C19 H23 0.930 . S
C20 C18 1.356 . S
C20 C21 1.348 . S
C21 C16 1.353 . S
C21 C20 1.348 . S
C21 H73 0.929 . S
H22 C16 0.930 . S
H23 C19 0.930 . S
C24 N25 1.314 . S
C24 C26 1.353 . S
C24 H30 0.930 . S
N25 Li1 1.990 . S
N25 C24 1.314 . S
N25 C28 1.279 . S
C26 C24 1.353 . S
C26 C29 1.348 . S
C26 H74 0.929 . S
C27 C28 1.358 . S
C27 C29 1.356 . S
C27 H75 0.930 . S
C28 N25 1.279 . S
C28 C27 1.358 . S
C28 H31 0.930 . S
C29 C26 1.348 . S
C29 C27 1.356 . S
H30 C24 0.930 . S
H31 C28 0.930 . S
C32 C34 1.348 . S
C32 C35 1.356 . S
C32 O62 1.325 . S
N33 C36 1.314 . S
N33 C37 1.279 . S
C34 C32 1.348 . S
C34 C36 1.353 . S
C34 H76 0.929 . S
C35 C32 1.356 . S
C35 C37 1.358 . S
C35 H77 0.930 . S
C36 N33 1.314 . S
C36 C34 1.353 . S
C36 H78 0.930 . S
C37 N33 1.279 . S
C37 C35 1.358 . S
C37 H79 0.930 . S
C38 C39 1.348 . S
C38 C40 1.356 . S
C38 O63 1.325 . S
C39 C38 1.348 . S
C39 C41 1.353 . S
C39 H80 0.929 . S
C40 C38 1.356 . S
C40 C42 1.358 . S
C40 H81 0.930 . S
C41 C39 1.353 . S
C41 N43 1.314 . S
C41 H82 0.930 . S
C42 C40 1.358 . S
C42 N43 1.279 . S
C42 H83 0.930 . S
N43 C41 1.314 . S
N43 C42 1.279 . S
C44 C46 1.353 . S
C44 N47 1.314 . S
C44 H50 0.930 . S
C45 N47 1.279 . S
C45 C48 1.358 . S
C45 H51 0.930 . S
C46 C44 1.353 . S
C46 C49 1.348 . S
C46 H84 0.929 . S
N47 Li2 1.990 . S
N47 C44 1.314 . S
N47 C45 1.279 . S
C48 C45 1.358 . S
C48 C49 1.356 . S
C48 H85 0.930 . S
C49 C46 1.348 . S
C49 C48 1.356 . S
H50 C44 0.930 . S
H51 C45 0.930 . S
C52 N53 1.314 . S
C52 C54 1.353 . S
C52 H58 0.930 . S
N53 Li3 1.990 . S
N53 C52 1.314 . S
N53 C56 1.279 . S
C54 C52 1.353 . S
C54 C57 1.348 . S
C54 H86 0.929 . S
C55 C56 1.358 . S
C55 C57 1.356 . S
C55 H87 0.930 . S
C56 N53 1.279 . S
C56 C55 1.358 . S
C56 H59 0.930 . S
C57 C54 1.348 . S
C57 C55 1.356 . S
H58 C52 0.930 . S
H59 C56 0.930 . S
O60 Li0 1.956 . S
O60 Li1 1.970 . S
O60 Li2 1.961 . S
O60 C4 1.325 . S
O61 Li0 1.970 . S
O61 Li1 1.956 . S
O61 Li3 1.961 . S
O61 C10 1.325 . S
O62 Li0 1.961 . S
O62 Li2 1.956 . S
O62 Li3 1.970 . S
O62 C32 1.325 . S
O63 Li1 1.961 . S
O63 Li2 1.970 . S
O63 Li3 1.956 . S
O63 C38 1.325 . S
H64 C6 0.929 . S
H65 C7 0.930 . S
H66 C8 0.930 . S
H67 C9 0.930 . S
H68 C11 0.930 . S
H69 C13 0.929 . S
H70 C14 0.930 . S
H71 C15 0.930 . S
H72 C18 0.930 . S
H73 C21 0.929 . S
H74 C26 0.929 . S
H75 C27 0.930 . S
H76 C34 0.929 . S
H77 C35 0.930 . S
H78 C36 0.930 . S
H79 C37 0.930 . S
H80 C39 0.929 . S
H81 C40 0.930 . S
H82 C41 0.930 . S
H83 C42 0.930 . S
H84 C46 0.929 . S
H85 C48 0.930 . S
H86 C54 0.929 . S
H87 C55 0.930 . S
Li88 N105 1.990 . S
Li88 O148 1.956 . S
Li88 O149 1.970 . S
Li88 O150 1.961 1_655 S
Li89 N113 1.990 . S
Li89 O148 1.970 . S
Li89 O149 1.956 . S
Li89 O151 1.961 1_545 S
Li90 N135 1.990 . S
Li90 O148 1.961 . S
Li90 O150 1.956 1_655 S
Li90 O151 1.970 1_545 S
Li91 N141 1.996 1_655 S
Li91 O149 1.954 1_565 S
Li91 O150 1.965 1_665 S
Li91 O151 1.959 . S
C92 C94 1.348 . S
C92 C95 1.356 . S
C92 O148 1.325 . S
N93 C96 1.314 . S
N93 C97 1.279 . S
C94 C92 1.348 . S
C94 C96 1.353 . S
C94 H152 0.929 . S
C95 C92 1.356 . S
C95 C97 1.358 . S
C95 H153 0.930 . S
C96 N93 1.314 . S
C96 C94 1.353 . S
C96 H154 0.930 . S
C97 N93 1.279 . S
C97 C95 1.358 . S
C97 H155 0.930 . S
C98 C101 1.348 . S
C98 C102 1.356 . S
C98 O149 1.325 . S
C99 N100 1.279 . S
C99 C102 1.358 . S
C99 H156 0.930 . S
N100 C99 1.279 . S
N100 C103 1.314 . S
C101 C98 1.348 . S
C101 C103 1.353 . S
C101 H157 0.929 . S
C102 C98 1.356 . S
C102 C99 1.358 . S
C102 H158 0.930 1_545 S
C103 N100 1.314 . S
C103 C101 1.353 . S
C103 H159 0.930 . S
C104 N105 1.314 1_455 S
C104 C109 1.353 . S
C104 H110 0.930 . S
N105 Li88 1.990 . S
N105 C104 1.314 1_655 S
N105 C107 1.279 . S
C106 C107 1.358 . S
C106 C108 1.356 1_655 S
C106 H160 0.930 . S
C107 N105 1.279 . S
C107 C106 1.358 . S
C107 H111 0.930 . S
C108 C106 1.356 1_455 S
C108 C109 1.348 . S
C109 C104 1.353 . S
C109 C108 1.348 . S
C109 H161 0.929 . S
H110 C104 0.930 . S
H111 C107 0.930 . S
C112 N113 1.314 1_565 S
C112 C114 1.353 . S
C112 H118 0.930 . S
N113 Li89 1.990 . S
N113 C112 1.314 1_545 S
N113 C116 1.279 . S
C114 C112 1.353 . S
C114 C117 1.348 1_565 S
C114 H162 0.929 . S
C115 C116 1.358 . S
C115 C117 1.356 . S
C115 H163 0.930 . S
C116 N113 1.279 . S
C116 C115 1.358 . S
C116 H119 0.930 . S
C117 C114 1.348 1_545 S
C117 C115 1.356 . S
H118 C112 0.930 . S
H119 C116 0.930 . S
C120 C122 1.348 . S
C120 C123 1.356 . S
C120 O150 1.325 . S
N121 C124 1.314 . S
N121 C125 1.279 . S
C122 C120 1.348 . S
C122 C124 1.353 . S
C122 H164 0.929 1_545 S
C123 C120 1.356 . S
C123 C125 1.358 . S
C123 H165 0.930 . S
C124 N121 1.314 . S
C124 C122 1.353 . S
C124 H166 0.930 . S
C125 N121 1.279 . S
C125 C123 1.358 . S
C125 H167 0.930 . S
C126 C127 1.348 . S
C126 C128 1.356 . S
C126 O151 1.325 . S
C127 C126 1.348 . S
C127 C129 1.353 . S
C127 H168 0.929 . S
C128 C126 1.356 . S
C128 C130 1.358 . S
C128 H169 0.930 . S
C129 C127 1.353 . S
C129 N131 1.314 . S
C129 H170 0.930 . S
C130 C128 1.358 . S
C130 N131 1.279 . S
C130 H171 0.930 . S
N131 C129 1.314 . S
N131 C130 1.279 . S
C132 C134 1.353 1_545 S
C132 N135 1.314 . S
C132 H138 0.930 . S
C133 N135 1.279 1_465 S
C133 C136 1.358 . S
C133 H139 0.930 1_565 S
C134 C132 1.353 1_565 S
C134 C137 1.348 . S
C134 H172 0.929 . S
N135 Li90 1.990 . S
N135 C132 1.314 . S
N135 C133 1.279 1_645 S
C136 C133 1.358 . S
C136 C137 1.356 1_455 S
C136 H173 0.930 . S
C137 C134 1.348 . S
C137 C136 1.356 1_655 S
H138 C132 0.930 . S
H139 C133 0.930 1_545 S
C140 N141 1.314 . S
C140 C142 1.353 . S
C140 H146 0.930 1_565 S
N141 Li91 1.996 1_455 S
N141 C140 1.314 . S
N141 C144 1.279 . S
C142 C140 1.353 . S
C142 C145 1.348 . S
C142 H174 0.929 . S
C143 C144 1.358 . S
C143 C145 1.356 . S
C143 H175 0.930 . S
C144 N141 1.279 . S
C144 C143 1.358 . S
C144 H147 0.930 . S
C145 C142 1.348 . S
C145 C143 1.356 . S
H146 C140 0.930 1_545 S
H147 C144 0.930 . S
O148 Li88 1.956 . S
O148 Li89 1.970 . S
O148 Li90 1.961 . S
O148 C92 1.325 . S
O149 Li88 1.970 . S
O149 Li89 1.956 . S
O149 Li91 1.954 1_545 S
O149 C98 1.325 . S
O150 Li88 1.961 1_455 S
O150 Li90 1.956 1_455 S
O150 Li91 1.965 1_445 S
O150 C120 1.325 . S
O151 Li89 1.961 1_565 S
O151 Li90 1.970 1_565 S
O151 Li91 1.959 . S
O151 C126 1.325 . S
H152 C94 0.929 . S
H153 C95 0.930 . S
H154 C96 0.930 . S
H155 C97 0.930 . S
H156 C99 0.930 . S
H157 C101 0.929 . S
H158 C102 0.930 1_565 S
H159 C103 0.930 . S
H160 C106 0.930 . S
H161 C109 0.929 . S
H162 C114 0.929 . S
H163 C115 0.930 . S
H164 C122 0.929 1_565 S
H165 C123 0.930 . S
H166 C124 0.930 . S
H167 C125 0.930 . S
H168 C127 0.929 . S
H169 C128 0.930 . S
H170 C129 0.930 . S
H171 C130 0.930 . S
H172 C134 0.929 . S
H173 C136 0.930 . S
H174 C142 0.929 . S
H175 C143 0.930 . S
Li176 N193 1.990 . S
Li176 O236 1.956 . S
Li176 O237 1.970 . S
Li176 O238 1.961 . S
Li177 N201 1.990 . S
Li177 O236 1.970 . S
Li177 O237 1.956 . S
Li177 O239 1.961 . S
Li178 N223 1.990 . S
Li178 O236 1.961 . S
Li178 O238 1.956 . S
Li178 O239 1.970 . S
Li179 N229 1.990 . S
Li179 O237 1.961 . S
Li179 O238 1.970 . S
Li179 O239 1.956 . S
C180 C182 1.348 . S
C180 C183 1.356 . S
C180 O236 1.325 . S
N181 C184 1.314 . S
N181 C185 1.279 . S
C182 C180 1.348 . S
C182 C184 1.353 . S
C182 H240 0.929 . S
C183 C180 1.356 . S
C183 C185 1.358 . S
C183 H241 0.930 . S
C184 N181 1.314 . S
C184 C182 1.353 . S
C184 H242 0.930 . S
C185 N181 1.279 . S
C185 C183 1.358 . S
C185 H243 0.930 . S
C186 C189 1.348 . S
C186 C190 1.356 . S
C186 O237 1.325 . S
C187 N188 1.279 . S
C187 C190 1.358 . S
C187 H244 0.930 . S
N188 C187 1.279 . S
N188 C191 1.314 . S
C189 C186 1.348 . S
C189 C191 1.353 . S
C189 H245 0.929 . S
C190 C186 1.356 . S
C190 C187 1.358 . S
C190 H246 0.930 . S
C191 N188 1.314 . S
C191 C189 1.353 . S
C191 H247 0.930 . S
C192 N193 1.314 . S
C192 C197 1.353 . S
C192 H198 0.930 . S
N193 Li176 1.990 . S
N193 C192 1.314 . S
N193 C195 1.279 . S
C194 C195 1.358 . S
C194 C196 1.356 . S
C194 H248 0.930 . S
C195 N193 1.279 . S
C195 C194 1.358 . S
C195 H199 0.930 . S
C196 C194 1.356 . S
C196 C197 1.348 . S
C197 C192 1.353 . S
C197 C196 1.348 . S
C197 H249 0.929 . S
H198 C192 0.930 . S
H199 C195 0.930 . S
C200 N201 1.314 . S
C200 C202 1.353 . S
C200 H206 0.930 . S
N201 Li177 1.990 . S
N201 C200 1.314 . S
N201 C204 1.279 . S
C202 C200 1.353 . S
C202 C205 1.348 . S
C202 H250 0.929 . S
C203 C204 1.358 . S
C203 C205 1.356 . S
C203 H251 0.930 . S
C204 N201 1.279 . S
C204 C203 1.358 . S
C204 H207 0.930 . S
C205 C202 1.348 . S
C205 C203 1.356 . S
H206 C200 0.930 . S
H207 C204 0.930 . S
C208 C210 1.348 . S
C208 C211 1.356 . S
C208 O238 1.325 . S
N209 C212 1.314 . S
N209 C213 1.279 . S
C210 C208 1.348 . S
C210 C212 1.353 . S
C210 H252 0.929 . S
C211 C208 1.356 . S
C211 C213 1.358 . S
C211 H253 0.930 . S
C212 N209 1.314 . S
C212 C210 1.353 . S
C212 H254 0.930 . S
C213 N209 1.279 . S
C213 C211 1.358 . S
C213 H255 0.930 . S
C214 C215 1.348 . S
C214 C216 1.356 . S
C214 O239 1.325 . S
C215 C214 1.348 . S
C215 C217 1.353 . S
C215 H256 0.929 . S
C216 C214 1.356 . S
C216 C218 1.358 . S
C216 H257 0.930 . S
C217 C215 1.353 . S
C217 N219 1.314 . S
C217 H258 0.930 . S
C218 C216 1.358 . S
C218 N219 1.279 . S
C218 H259 0.930 . S
N219 C217 1.314 . S
N219 C218 1.279 . S
C220 C222 1.353 . S
C220 N223 1.314 . S
C220 H226 0.930 . S
C221 N223 1.279 . S
C221 C224 1.358 . S
C221 H227 0.930 . S
C222 C220 1.353 . S
C222 C225 1.348 . S
C222 H260 0.929 . S
N223 Li178 1.990 . S
N223 C220 1.314 . S
N223 C221 1.279 . S
C224 C221 1.358 . S
C224 C225 1.356 . S
C224 H261 0.930 . S
C225 C222 1.348 . S
C225 C224 1.356 . S
H226 C220 0.930 . S
H227 C221 0.930 . S
C228 N229 1.314 . S
C228 C230 1.353 . S
C228 H234 0.930 . S
N229 Li179 1.990 . S
N229 C228 1.314 . S
N229 C232 1.279 . S
C230 C228 1.353 . S
C230 C233 1.348 . S
C230 H262 0.929 . S
C231 C232 1.358 . S
C231 C233 1.356 . S
C231 H263 0.930 . S
C232 N229 1.279 . S
C232 C231 1.358 . S
C232 H235 0.930 . S
C233 C230 1.348 . S
C233 C231 1.356 . S
H234 C228 0.930 . S
H235 C232 0.930 . S
O236 Li176 1.956 . S
O236 Li177 1.970 . S
O236 Li178 1.961 . S
O236 C180 1.325 . S
O237 Li176 1.970 . S
O237 Li177 1.956 . S
O237 Li179 1.961 . S
O237 C186 1.325 . S
O238 Li176 1.961 . S
O238 Li178 1.956 . S
O238 Li179 1.970 . S
O238 C208 1.325 . S
O239 Li177 1.961 . S
O239 Li178 1.970 . S
O239 Li179 1.956 . S
O239 C214 1.325 . S
H240 C182 0.929 . S
H241 C183 0.930 . S
H242 C184 0.930 . S
H243 C185 0.930 . S
H244 C187 0.930 . S
H245 C189 0.929 . S
H246 C190 0.930 . S
H247 C191 0.930 . S
H248 C194 0.930 . S
H249 C197 0.929 . S
H250 C202 0.929 . S
H251 C203 0.930 . S
H252 C210 0.929 . S
H253 C211 0.930 . S
H254 C212 0.930 . S
H255 C213 0.930 . S
H256 C215 0.929 . S
H257 C216 0.930 . S
H258 C217 0.930 . S
H259 C218 0.930 . S
H260 C222 0.929 . S
H261 C224 0.930 . S
H262 C230 0.929 . S
H263 C231 0.930 . S
Li264 N281 1.990 . S
Li264 O324 1.956 . S
Li264 O325 1.970 . S
Li264 O326 1.961 1_565 S
Li265 N289 1.990 . S
Li265 O324 1.970 . S
Li265 O325 1.956 . S
Li265 O327 1.961 1_554 S
Li266 N311 1.990 . S
Li266 O324 1.961 . S
Li266 O326 1.956 1_565 S
Li266 O327 1.970 1_554 S
Li267 N317 1.990 1_565 S
Li267 O325 1.961 1_556 S
Li267 O326 1.970 1_566 S
Li267 O327 1.956 . S
C268 C270 1.348 . S
C268 C271 1.356 . S
C268 O324 1.325 . S
N269 C272 1.314 . S
N269 C273 1.279 . S
C270 C268 1.348 . S
C270 C272 1.353 . S
C270 H328 0.929 . S
C271 C268 1.356 . S
C271 C273 1.358 . S
C271 H329 0.930 . S
C272 N269 1.314 . S
C272 C270 1.353 . S
C272 H330 0.930 . S
C273 N269 1.279 . S
C273 C271 1.358 . S
C273 H331 0.930 . S
C274 C277 1.348 . S
C274 C278 1.356 . S
C274 O325 1.325 . S
C275 N276 1.279 . S
C275 C278 1.358 . S
C275 H332 0.930 . S
N276 C275 1.279 . S
N276 C279 1.314 . S
C277 C274 1.348 . S
C277 C279 1.353 . S
C277 H333 0.929 . S
C278 C274 1.356 . S
C278 C275 1.358 . S
C278 H334 0.930 1_554 S
C279 N276 1.314 . S
C279 C277 1.353 . S
C279 H335 0.930 . S
C280 N281 1.314 1_545 S
C280 C285 1.353 . S
C280 H286 0.930 . S
N281 Li264 1.990 . S
N281 C280 1.314 1_565 S
N281 C283 1.279 . S
C282 C283 1.358 . S
C282 C284 1.356 1_565 S
C282 H336 0.930 . S
C283 N281 1.279 . S
C283 C282 1.358 . S
C283 H287 0.930 . S
C284 C282 1.356 1_545 S
C284 C285 1.348 . S
C285 C280 1.353 . S
C285 C284 1.348 . S
C285 H337 0.929 . S
H286 C280 0.930 . S
H287 C283 0.930 . S
C288 N289 1.314 1_556 S
C288 C290 1.353 . S
C288 H294 0.930 . S
N289 Li265 1.990 . S
N289 C288 1.314 1_554 S
N289 C292 1.279 . S
C290 C288 1.353 . S
C290 C293 1.343 1_556 S
C290 H338 0.929 . S
C291 C292 1.358 . S
C291 C293 1.361 . S
C291 H339 0.930 . S
C292 N289 1.279 . S
C292 C291 1.358 . S
C292 H295 0.930 . S
C293 C290 1.343 1_554 S
C293 C291 1.361 . S
H294 C288 0.930 . S
H295 C292 0.930 . S
C296 C298 1.348 . S
C296 C299 1.356 . S
C296 O326 1.325 . S
N297 C300 1.314 . S
N297 C301 1.279 . S
C298 C296 1.348 . S
C298 C300 1.353 . S
C298 H340 0.929 1_554 S
C299 C296 1.356 . S
C299 C301 1.358 . S
C299 H341 0.930 . S
C300 N297 1.314 . S
C300 C298 1.353 . S
C300 H342 0.930 . S
C301 N297 1.279 . S
C301 C299 1.358 . S
C301 H343 0.930 . S
C302 C303 1.348 . S
C302 C304 1.356 . S
C302 O327 1.325 . S
C303 C302 1.348 . S
C303 C305 1.353 . S
C303 H344 0.929 . S
C304 C302 1.356 . S
C304 C306 1.358 . S
C304 H345 0.930 . S
C305 C303 1.353 . S
C305 N307 1.314 . S
C305 H346 0.930 . S
C306 C304 1.358 . S
C306 N307 1.279 . S
C306 H347 0.930 . S
N307 C305 1.314 . S
N307 C306 1.279 . S
C308 C310 1.347 1_554 S
C308 N311 1.317 . S
C308 H314 0.933 . S
C309 N311 1.279 1_546 S
C309 C312 1.358 . S
C309 H315 0.928 1_556 S
C310 C308 1.347 1_556 S
C310 C313 1.348 . S
C310 H348 0.929 . S
N311 Li266 1.990 . S
N311 C308 1.317 . S
N311 C309 1.279 1_564 S
C312 C309 1.358 . S
C312 C313 1.356 1_545 S
C312 H349 0.930 . S
C313 C310 1.348 . S
C313 C312 1.356 1_565 S
H314 C308 0.933 . S
H315 C309 0.928 1_554 S
C316 N317 1.314 . S
C316 C318 1.353 . S
C316 H322 0.930 1_556 S
N317 Li267 1.990 1_545 S
N317 C316 1.314 . S
N317 C320 1.279 . S
C318 C316 1.353 . S
C318 C321 1.348 . S
C318 H350 0.929 . S
C319 C320 1.358 . S
C319 C321 1.356 . S
C319 H351 0.930 . S
C320 N317 1.279 . S
C320 C319 1.358 . S
C320 H323 0.930 . S
C321 C318 1.348 . S
C321 C319 1.356 . S
H322 C316 0.930 1_554 S
H323 C320 0.930 . S
O324 Li264 1.956 . S
O324 Li265 1.970 . S
O324 Li266 1.961 . S
O324 C268 1.325 . S
O325 Li264 1.970 . S
O325 Li265 1.956 . S
O325 Li267 1.961 1_554 S
O325 C274 1.325 . S
O326 Li264 1.961 1_545 S
O326 Li266 1.956 1_545 S
O326 Li267 1.970 1_544 S
O326 C296 1.325 . S
O327 Li265 1.961 1_556 S
O327 Li266 1.970 1_556 S
O327 Li267 1.956 . S
O327 C302 1.325 . S
H328 C270 0.929 . S
H329 C271 0.930 . S
H330 C272 0.930 . S
H331 C273 0.930 . S
H332 C275 0.930 . S
H333 C277 0.929 . S
H334 C278 0.930 1_556 S
H335 C279 0.930 . S
H336 C282 0.930 . S
H337 C285 0.929 . S
H338 C290 0.929 . S
H339 C291 0.930 . S
H340 C298 0.929 1_556 S
H341 C299 0.930 . S
H342 C300 0.930 . S
H343 C301 0.930 . S
H344 C303 0.929 . S
H345 C304 0.930 . S
H346 C305 0.930 . S
H347 C306 0.930 . S
H348 C310 0.929 . S
H349 C312 0.930 . S
H350 C318 0.929 . S
H351 C319 0.930 . S
Li352 N369 1.990 . S
Li352 O412 1.956 . S
Li352 O413 1.970 . S
Li352 O414 1.961 . S
Li353 N377 1.990 . S
Li353 O412 1.970 . S
Li353 O413 1.956 . S
Li353 O415 1.961 . S
Li354 N399 1.990 . S
Li354 O412 1.961 . S
Li354 O414 1.956 . S
Li354 O415 1.970 . S
Li355 N405 1.990 . S
Li355 O413 1.961 . S
Li355 O414 1.970 . S
Li355 O415 1.956 . S
C356 C358 1.348 . S
C356 C359 1.356 . S
C356 O412 1.325 . S
N357 C360 1.314 . S
N357 C361 1.279 . S
C358 C356 1.348 . S
C358 C360 1.353 . S
C358 H416 0.929 . S
C359 C356 1.356 . S
C359 C361 1.358 . S
C359 H417 0.930 . S
C360 N357 1.314 . S
C360 C358 1.353 . S
C360 H418 0.930 . S
C361 N357 1.279 . S
C361 C359 1.358 . S
C361 H419 0.930 . S
C362 C365 1.348 . S
C362 C366 1.356 . S
C362 O413 1.325 . S
C363 N364 1.279 . S
C363 C366 1.358 . S
C363 H420 0.930 . S
N364 C363 1.279 . S
N364 C367 1.314 . S
C365 C362 1.348 . S
C365 C367 1.353 . S
C365 H421 0.929 . S
C366 C362 1.356 . S
C366 C363 1.358 . S
C366 H422 0.930 . S
C367 N364 1.314 . S
C367 C365 1.353 . S
C367 H423 0.930 . S
C368 N369 1.314 . S
C368 C373 1.353 . S
C368 H374 0.930 . S
N369 Li352 1.990 . S
N369 C368 1.314 . S
N369 C371 1.279 . S
C370 C371 1.358 . S
C370 C372 1.356 . S
C370 H424 0.930 . S
C371 N369 1.279 . S
C371 C370 1.358 . S
C371 H375 0.930 . S
C372 C370 1.356 . S
C372 C373 1.348 . S
C373 C368 1.353 . S
C373 C372 1.348 . S
C373 H425 0.929 . S
H374 C368 0.930 . S
H375 C371 0.930 . S
C376 N377 1.314 . S
C376 C378 1.353 . S
C376 H382 0.930 . S
N377 Li353 1.990 . S
N377 C376 1.314 . S
N377 C380 1.279 . S
C378 C376 1.353 . S
C378 C381 1.348 . S
C378 H426 0.929 . S
C379 C380 1.358 . S
C379 C381 1.356 . S
C379 H427 0.930 . S
C380 N377 1.279 . S
C380 C379 1.358 . S
C380 H383 0.930 . S
C381 C378 1.348 . S
C381 C379 1.356 . S
H382 C376 0.930 . S
H383 C380 0.930 . S
C384 C386 1.348 . S
C384 C387 1.356 . S
C384 O414 1.325 . S
N385 C388 1.314 . S
N385 C389 1.279 . S
C386 C384 1.348 . S
C386 C388 1.353 . S
C386 H428 0.929 . S
C387 C384 1.356 . S
C387 C389 1.358 . S
C387 H429 0.930 . S
C388 N385 1.314 . S
C388 C386 1.353 . S
C388 H430 0.930 . S
C389 N385 1.279 . S
C389 C387 1.358 . S
C389 H431 0.930 . S
C390 C391 1.348 . S
C390 C392 1.356 . S
C390 O415 1.325 . S
C391 C390 1.348 . S
C391 C393 1.353 . S
C391 H432 0.929 . S
C392 C390 1.356 . S
C392 C394 1.358 . S
C392 H433 0.930 . S
C393 C391 1.353 . S
C393 N395 1.314 . S
C393 H434 0.930 . S
C394 C392 1.358 . S
C394 N395 1.279 . S
C394 H435 0.930 . S
N395 C393 1.314 . S
N395 C394 1.279 . S
C396 C398 1.353 . S
C396 N399 1.314 . S
C396 H402 0.930 . S
C397 N399 1.279 . S
C397 C400 1.358 . S
C397 H403 0.930 . S
C398 C396 1.353 . S
C398 C401 1.348 . S
C398 H436 0.929 . S
N399 Li354 1.990 . S
N399 C396 1.314 . S
N399 C397 1.279 . S
C400 C397 1.358 . S
C400 C401 1.356 . S
C400 H437 0.930 . S
C401 C398 1.348 . S
C401 C400 1.356 . S
H402 C396 0.930 . S
H403 C397 0.930 . S
C404 N405 1.314 . S
C404 C406 1.353 . S
C404 H410 0.930 . S
N405 Li355 1.990 . S
N405 C404 1.314 . S
N405 C408 1.279 . S
C406 C404 1.353 . S
C406 C409 1.348 . S
C406 H438 0.929 . S
C407 C408 1.358 . S
C407 C409 1.356 . S
C407 H439 0.930 . S
C408 N405 1.279 . S
C408 C407 1.358 . S
C408 H411 0.930 . S
C409 C406 1.348 . S
C409 C407 1.356 . S
H410 C404 0.930 . S
H411 C408 0.930 . S
O412 Li352 1.956 . S
O412 Li353 1.970 . S
O412 Li354 1.961 . S
O412 C356 1.325 . S
O413 Li352 1.970 . S
O413 Li353 1.956 . S
O413 Li355 1.961 . S
O413 C362 1.325 . S
O414 Li352 1.961 . S
O414 Li354 1.956 . S
O414 Li355 1.970 . S
O414 C384 1.325 . S
O415 Li353 1.961 . S
O415 Li354 1.970 . S
O415 Li355 1.956 . S
O415 C390 1.325 . S
H416 C358 0.929 . S
H417 C359 0.930 . S
H418 C360 0.930 . S
H419 C361 0.930 . S
H420 C363 0.930 . S
H421 C365 0.929 . S
H422 C366 0.930 . S
H423 C367 0.930 . S
H424 C370 0.930 . S
H425 C373 0.929 . S
H426 C378 0.929 . S
H427 C379 0.930 . S
H428 C386 0.929 . S
H429 C387 0.930 . S
H430 C388 0.930 . S
H431 C389 0.930 . S
H432 C391 0.929 . S
H433 C392 0.930 . S
H434 C393 0.930 . S
H435 C394 0.930 . S
H436 C398 0.929 . S
H437 C400 0.930 . S
H438 C406 0.929 . S
H439 C407 0.930 . S
Li440 N457 1.990 . S
Li440 O500 1.956 . S
Li440 O501 1.970 . S
Li440 O502 1.961 1_545 S
Li441 N465 1.990 . S
Li441 O500 1.970 . S
Li441 O501 1.956 . S
Li441 O503 1.961 . S
Li442 N487 1.999 . S
Li442 O500 1.951 1_565 S
Li442 O502 1.961 . S
Li442 O503 1.962 1_565 S
Li443 N493 1.990 . S
Li443 O501 1.961 . S
Li443 O502 1.970 1_545 S
Li443 O503 1.956 . S
C444 C446 1.348 . S
C444 C447 1.356 . S
C444 O500 1.325 . S
N445 C448 1.314 . S
N445 C449 1.279 . S
C446 C444 1.348 . S
C446 C448 1.353 . S
C446 H504 0.929 . S
C447 C444 1.356 . S
C447 C449 1.358 . S
C447 H505 0.930 1_545 S
C448 N445 1.314 . S
C448 C446 1.353 . S
C448 H506 0.930 . S
C449 N445 1.279 . S
C449 C447 1.358 . S
C449 H507 0.930 . S
C450 C453 1.348 . S
C450 C454 1.356 . S
C450 O501 1.325 . S
C451 N452 1.279 . S
C451 C454 1.358 . S
C451 H508 0.930 . S
N452 C451 1.279 . S
N452 C455 1.314 . S
C453 C450 1.348 . S
C453 C455 1.353 . S
C453 H509 0.929 . S
C454 C450 1.356 . S
C454 C451 1.358 . S
C454 H510 0.930 . S
C455 N452 1.314 . S
C455 C453 1.353 . S
C455 H511 0.930 . S
C456 N457 1.314 1_565 S
C456 C461 1.353 . S
C456 H462 0.930 . S
N457 Li440 1.990 . S
N457 C456 1.314 1_545 S
N457 C459 1.279 . S
C458 C459 1.358 . S
C458 C460 1.356 . S
C458 H512 0.930 . S
C459 N457 1.279 . S
C459 C458 1.358 . S
C459 H463 0.930 . S
C460 C458 1.356 . S
C460 C461 1.348 1_545 S
C461 C456 1.353 . S
C461 C460 1.348 1_565 S
C461 H513 0.929 . S
H462 C456 0.930 . S
H463 C459 0.930 . S
C464 N465 1.314 . S
C464 C466 1.353 . S
C464 H470 0.930 . S
N465 Li441 1.990 . S
N465 C464 1.314 . S
N465 C468 1.279 . S
C466 C464 1.353 . S
C466 C469 1.348 . S
C466 H514 0.929 . S
C467 C468 1.358 . S
C467 C469 1.356 . S
C467 H515 0.930 . S
C468 N465 1.279 . S
C468 C467 1.358 . S
C468 H471 0.930 . S
C469 C466 1.348 . S
C469 C467 1.356 . S
H470 C464 0.930 . S
H471 C468 0.930 . S
C472 C474 1.348 . S
C472 C475 1.356 . S
C472 O502 1.325 . S
N473 C476 1.314 . S
N473 C477 1.279 . S
C474 C472 1.348 . S
C474 C476 1.353 . S
C474 H516 0.929 . S
C475 C472 1.356 . S
C475 C477 1.358 . S
C475 H517 0.930 . S
C476 N473 1.314 . S
C476 C474 1.353 . S
C476 H518 0.930 . S
C477 N473 1.279 . S
C477 C475 1.358 . S
C477 H519 0.930 . S
C478 C479 1.348 . S
C478 C480 1.356 . S
C478 O503 1.325 . S
C479 C478 1.348 . S
C479 C481 1.353 . S
C479 H520 0.929 1_545 S
C480 C478 1.356 . S
C480 C482 1.358 . S
C480 H521 0.930 . S
C481 C479 1.353 . S
C481 N483 1.314 . S
C481 H522 0.930 . S
C482 C480 1.358 . S
C482 N483 1.279 . S
C482 H523 0.930 . S
N483 C481 1.314 . S
N483 C482 1.279 . S
C484 C486 1.353 . S
C484 N487 1.314 . S
C484 H490 0.930 1_565 S
C485 N487 1.279 . S
C485 C488 1.358 . S
C485 H491 0.930 . S
C486 C484 1.353 . S
C486 C489 1.348 . S
C486 H524 0.929 . S
N487 Li442 1.999 . S
N487 C484 1.314 . S
N487 C485 1.279 . S
C488 C485 1.358 . S
C488 C489 1.356 . S
C488 H525 0.930 . S
C489 C486 1.348 . S
C489 C488 1.356 . S
H490 C484 0.930 1_545 S
H491 C485 0.930 . S
C492 N493 1.314 . S
C492 C494 1.353 1_545 S
C492 H498 0.930 . S
N493 Li443 1.990 . S
N493 C492 1.314 . S
N493 C496 1.275 1_545 S
C494 C492 1.353 1_565 S
C494 C497 1.348 . S
C494 H526 0.929 . S
C495 C496 1.365 . S
C495 C497 1.356 . S
C495 H527 0.930 . S
C496 N493 1.275 1_565 S
C496 C495 1.365 . S
C496 H499 0.928 1_565 S
C497 C494 1.348 . S
C497 C495 1.356 . S
H498 C492 0.930 . S
H499 C496 0.928 1_545 S
O500 Li440 1.956 . S
O500 Li441 1.970 . S
O500 Li442 1.951 1_545 S
O500 C444 1.325 . S
O501 Li440 1.970 . S
O501 Li441 1.956 . S
O501 Li443 1.961 . S
O501 C450 1.325 . S
O502 Li440 1.961 1_565 S
O502 Li442 1.961 . S
O502 Li443 1.970 1_565 S
O502 C472 1.325 . S
O503 Li441 1.961 . S
O503 Li442 1.962 1_545 S
O503 Li443 1.956 . S
O503 C478 1.325 . S
H504 C446 0.929 . S
H505 C447 0.930 1_565 S
H506 C448 0.930 . S
H507 C449 0.930 . S
H508 C451 0.930 . S
H509 C453 0.929 . S
H510 C454 0.930 . S
H511 C455 0.930 . S
H512 C458 0.930 . S
H513 C461 0.929 . S
H514 C466 0.929 . S
H515 C467 0.930 . S
H516 C474 0.929 . S
H517 C475 0.930 . S
H518 C476 0.930 . S
H519 C477 0.930 . S
H520 C479 0.929 1_565 S
H521 C480 0.930 . S
H522 C481 0.930 . S
H523 C482 0.930 . S
H524 C486 0.929 . S
H525 C488 0.930 . S
H526 C494 0.929 . S
H527 C495 0.930 . S
Li528 N545 1.990 . S
Li528 O588 1.956 . S
Li528 O589 1.970 . S
Li528 O590 1.961 . S
Li529 N553 1.990 . S
Li529 O588 1.970 . S
Li529 O589 1.956 . S
Li529 O591 1.961 . S
Li530 N575 1.990 . S
Li530 O588 1.961 . S
Li530 O590 1.956 . S
Li530 O591 1.970 . S
Li531 N581 1.990 . S
Li531 O589 1.961 . S
Li531 O590 1.970 . S
Li531 O591 1.956 . S
C532 C534 1.348 . S
C532 C535 1.356 . S
C532 O588 1.325 . S
N533 C536 1.314 . S
N533 C537 1.279 . S
C534 C532 1.348 . S
C534 C536 1.353 . S
C534 H592 0.929 . S
C535 C532 1.356 . S
C535 C537 1.358 . S
C535 H593 0.930 . S
C536 N533 1.314 . S
C536 C534 1.353 . S
C536 H594 0.930 . S
C537 N533 1.279 . S
C537 C535 1.358 . S
C537 H595 0.930 . S
C538 C541 1.348 . S
C538 C542 1.356 . S
C538 O589 1.325 . S
C539 N540 1.279 . S
C539 C542 1.358 . S
C539 H596 0.930 . S
N540 C539 1.279 . S
N540 C543 1.314 . S
C541 C538 1.348 . S
C541 C543 1.353 . S
C541 H597 0.929 . S
C542 C538 1.356 . S
C542 C539 1.358 . S
C542 H598 0.930 . S
C543 N540 1.314 . S
C543 C541 1.353 . S
C543 H599 0.930 . S
C544 N545 1.314 . S
C544 C549 1.353 . S
C544 H550 0.930 . S
N545 Li528 1.990 . S
N545 C544 1.314 . S
N545 C547 1.279 . S
C546 C547 1.358 . S
C546 C548 1.356 . S
C546 H600 0.930 . S
C547 N545 1.279 . S
C547 C546 1.358 . S
C547 H551 0.930 . S
C548 C546 1.356 . S
C548 C549 1.348 . S
C549 C544 1.353 . S
C549 C548 1.348 . S
C549 H601 0.929 . S
H550 C544 0.930 . S
H551 C547 0.930 . S
C552 N553 1.314 . S
C552 C554 1.353 . S
C552 H558 0.930 . S
N553 Li529 1.990 . S
N553 C552 1.314 . S
N553 C556 1.279 . S
C554 C552 1.353 . S
C554 C557 1.348 . S
C554 H602 0.929 . S
C555 C556 1.358 . S
C555 C557 1.356 . S
C555 H603 0.930 . S
C556 N553 1.279 . S
C556 C555 1.358 . S
C556 H559 0.930 . S
C557 C554 1.348 . S
C557 C555 1.356 . S
H558 C552 0.930 . S
H559 C556 0.930 . S
C560 C562 1.348 . S
C560 C563 1.356 . S
C560 O590 1.325 . S
N561 C564 1.314 . S
N561 C565 1.279 . S
C562 C560 1.348 . S
C562 C564 1.353 . S
C562 H604 0.929 . S
C563 C560 1.356 . S
C563 C565 1.358 . S
C563 H605 0.930 . S
C564 N561 1.314 . S
C564 C562 1.353 . S
C564 H606 0.930 . S
C565 N561 1.279 . S
C565 C563 1.358 . S
C565 H607 0.930 . S
C566 C567 1.348 . S
C566 C568 1.356 . S
C566 O591 1.325 . S
C567 C566 1.348 . S
C567 C569 1.353 . S
C567 H608 0.929 . S
C568 C566 1.356 . S
C568 C570 1.358 . S
C568 H609 0.930 . S
C569 C567 1.353 . S
C569 N571 1.314 . S
C569 H610 0.930 . S
C570 C568 1.358 . S
C570 N571 1.279 . S
C570 H611 0.930 . S
N571 C569 1.314 . S
N571 C570 1.279 . S
C572 C574 1.353 . S
C572 N575 1.314 . S
C572 H578 0.930 . S
C573 N575 1.279 . S
C573 C576 1.358 . S
C573 H579 0.930 . S
C574 C572 1.353 . S
C574 C577 1.348 . S
C574 H612 0.929 . S
N575 Li530 1.990 . S
N575 C572 1.314 . S
N575 C573 1.279 . S
C576 C573 1.358 . S
C576 C577 1.356 . S
C576 H613 0.930 . S
C577 C574 1.348 . S
C577 C576 1.356 . S
H578 C572 0.930 . S
H579 C573 0.930 . S
C580 N581 1.314 . S
C580 C582 1.353 . S
C580 H586 0.930 . S
N581 Li531 1.990 . S
N581 C580 1.314 . S
N581 C584 1.279 . S
C582 C580 1.353 . S
C582 C585 1.348 . S
C582 H614 0.929 . S
C583 C584 1.358 . S
C583 C585 1.356 . S
C583 H615 0.930 . S
C584 N581 1.279 . S
C584 C583 1.358 . S
C584 H587 0.930 . S
C585 C582 1.348 . S
C585 C583 1.356 . S
H586 C580 0.930 . S
H587 C584 0.930 . S
O588 Li528 1.956 . S
O588 Li529 1.970 . S
O588 Li530 1.961 . S
O588 C532 1.325 . S
O589 Li528 1.970 . S
O589 Li529 1.956 . S
O589 Li531 1.961 . S
O589 C538 1.325 . S
O590 Li528 1.961 . S
O590 Li530 1.956 . S
O590 Li531 1.970 . S
O590 C560 1.325 . S
O591 Li529 1.961 . S
O591 Li530 1.970 . S
O591 Li531 1.956 . S
O591 C566 1.325 . S
H592 C534 0.929 . S
H593 C535 0.930 . S
H594 C536 0.930 . S
H595 C537 0.930 . S
H596 C539 0.930 . S
H597 C541 0.929 . S
H598 C542 0.930 . S
H599 C543 0.930 . S
H600 C546 0.930 . S
H601 C549 0.929 . S
H602 C554 0.929 . S
H603 C555 0.930 . S
H604 C562 0.929 . S
H605 C563 0.930 . S
H606 C564 0.930 . S
H607 C565 0.930 . S
H608 C567 0.929 . S
H609 C568 0.930 . S
H610 C569 0.930 . S
H611 C570 0.930 . S
H612 C574 0.929 . S
H613 C576 0.930 . S
H614 C582 0.929 . S
H615 C583 0.930 . S
Li616 N633 1.990 . S
Li616 O676 1.956 1_655 S
Li616 O677 1.970 1_565 S
Li616 O678 1.961 . S
Li617 N641 1.992 1_666 S
Li617 O676 1.969 1_655 S
Li617 O677 1.957 1_565 S
Li617 O679 1.959 1_556 S
Li618 N663 1.990 . S
Li618 O676 1.961 1_655 S
Li618 O678 1.956 . S
Li618 O679 1.970 1_556 S
Li619 N669 1.986 1_556 S
Li619 O677 1.961 1_565 S
Li619 O678 1.970 . S
Li619 O679 1.956 1_556 S
C620 C622 1.348 . S
C620 C623 1.356 . S
C620 O676 1.325 . S
N621 C624 1.314 . S
N621 C625 1.279 . S
C622 C620 1.348 . S
C622 C624 1.353 . S
C622 H680 0.929 1_565 S
C623 C620 1.356 . S
C623 C625 1.358 . S
C623 H681 0.930 . S
C624 N621 1.314 . S
C624 C622 1.353 . S
C624 H682 0.930 . S
C625 N621 1.279 . S
C625 C623 1.358 . S
C625 H683 0.930 . S
C626 C629 1.348 . S
C626 C630 1.356 . S
C626 O677 1.325 . S
C627 N628 1.279 . S
C627 C630 1.358 . S
C627 H684 0.937 . S
N628 C627 1.279 . S
N628 C631 1.314 . S
C629 C626 1.348 . S
C629 C631 1.353 . S
C629 H685 0.929 . S
C630 C626 1.356 . S
C630 C627 1.358 . S
C630 H686 0.930 1_556 S
C631 N628 1.314 . S
C631 C629 1.353 . S
C631 H687 0.930 . S
C632 N633 1.314 . S
C632 C637 1.353 1_565 S
C632 H638 0.930 . S
N633 Li616 1.990 . S
N633 C632 1.314 . S
N633 C635 1.279 1_655 S
C634 C635 1.359 1_545 S
C634 C636 1.356 1_455 S
C634 H688 0.930 . S
C635 N633 1.279 1_455 S
C635 C634 1.359 1_565 S
C635 H639 0.930 . S
C636 C634 1.356 1_655 S
C636 C637 1.348 . S
C637 C632 1.353 1_545 S
C637 C636 1.348 . S
C637 H689 0.929 . S
H638 C632 0.930 . S
H639 C635 0.930 . S
C640 N641 1.314 . S
C640 C642 1.353 . S
C640 H646 0.930 1_545 S
N641 Li617 1.992 1_444 S
N641 C640 1.314 . S
N641 C644 1.279 . S
C642 C640 1.353 . S
C642 C645 1.348 . S
C642 H690 0.929 . S
C643 C644 1.358 . S
C643 C645 1.356 . S
C643 H691 0.930 . S
C644 N641 1.279 . S
C644 C643 1.358 . S
C644 H647 0.930 . S
C645 C642 1.348 . S
C645 C643 1.356 . S
H646 C640 0.930 1_565 S
H647 C644 0.930 . S
C648 C650 1.348 . S
C648 C651 1.356 . S
C648 O678 1.325 . S
N649 C652 1.314 . S
N649 C653 1.279 . S
C650 C648 1.348 . S
C650 C652 1.353 . S
C650 H692 0.929 . S
C651 C648 1.356 . S
C651 C653 1.358 . S
C651 H693 0.930 . S
C652 N649 1.314 . S
C652 C650 1.353 . S
C652 H694 0.930 . S
C653 N649 1.279 . S
C653 C651 1.358 . S
C653 H695 0.930 . S
C654 C655 1.348 . S
C654 C656 1.356 . S
C654 O679 1.325 . S
C655 C654 1.348 . S
C655 C657 1.353 . S
C655 H696 0.929 . S
C656 C654 1.356 . S
C656 C658 1.358 . S
C656 H697 0.930 1_565 S
C657 C655 1.353 . S
C657 N659 1.314 . S
C657 H698 0.930 . S
C658 C656 1.358 . S
C658 N659 1.279 . S
C658 H699 0.930 . S
N659 C657 1.314 . S
N659 C658 1.279 . S
C660 C662 1.345 1_556 S
C660 N663 1.334 1_455 S
C660 H666 0.918 1_556 S
C661 N663 1.279 . S
C661 C664 1.358 . S
C661 H667 0.930 . S
C662 C660 1.345 1_554 S
C662 C665 1.348 1_554 S
C662 H700 0.929 . S
N663 Li618 1.990 . S
N663 C660 1.334 1_655 S
N663 C661 1.279 . S
C664 C661 1.358 . S
C664 C665 1.356 1_655 S
C664 H701 0.930 . S
C665 C662 1.348 1_556 S
C665 C664 1.356 1_455 S
H666 C660 0.918 1_554 S
H667 C661 0.930 . S
C668 N669 1.307 1_546 S
C668 C670 1.353 . S
C668 H674 0.930 . S
N669 Li619 1.986 1_554 S
N669 C668 1.307 1_564 S
N669 C672 1.290 . S
C670 C668 1.353 . S
C670 C673 1.348 1_546 S
C670 H702 0.929 . S
C671 C672 1.358 . S
C671 C673 1.356 . S
C671 H703 0.930 . S
C672 N669 1.290 . S
C672 C671 1.358 . S
C672 H675 0.930 . S
C673 C670 1.348 1_564 S
C673 C671 1.356 . S
H674 C668 0.930 . S
H675 C672 0.930 . S
O676 Li616 1.956 1_455 S
O676 Li617 1.969 1_455 S
O676 Li618 1.961 1_455 S
O676 C620 1.325 . S
O677 Li616 1.970 1_545 S
O677 Li617 1.957 1_545 S
O677 Li619 1.961 1_545 S
O677 C626 1.325 . S
O678 Li616 1.961 . S
O678 Li618 1.956 . S
O678 Li619 1.970 . S
O678 C648 1.325 . S
O679 Li617 1.959 1_554 S
O679 Li618 1.970 1_554 S
O679 Li619 1.956 1_554 S
O679 C654 1.325 . S
H680 C622 0.929 1_545 S
H681 C623 0.930 . S
H682 C624 0.930 . S
H683 C625 0.930 . S
H684 C627 0.937 . S
H685 C629 0.929 . S
H686 C630 0.930 1_554 S
H687 C631 0.930 . S
H688 C634 0.930 . S
H689 C637 0.929 . S
H690 C642 0.929 . S
H691 C643 0.930 . S
H692 C650 0.929 . S
H693 C651 0.930 . S
H694 C652 0.930 . S
H695 C653 0.930 . S
H696 C655 0.929 . S
H697 C656 0.930 1_545 S
H698 C657 0.930 . S
H699 C658 0.930 . S
H700 C662 0.929 . S
H701 C664 0.930 . S
H702 C670 0.929 . S
H703 C671 0.930 . S
Li704 N721 1.990 . S
Li704 O764 1.956 . S
Li704 O765 1.970 . S
Li704 O766 1.961 . S
Li705 N729 1.990 . S
Li705 O764 1.970 . S
Li705 O765 1.956 . S
Li705 O767 1.961 . S
Li706 N751 1.990 . S
Li706 O764 1.961 . S
Li706 O766 1.956 . S
Li706 O767 1.970 . S
Li707 N757 1.990 . S
Li707 O765 1.961 . S
Li707 O766 1.970 . S
Li707 O767 1.956 . S
C708 C710 1.348 . S
C708 C711 1.356 . S
C708 O764 1.325 . S
N709 C712 1.314 . S
N709 C713 1.279 . S
C710 C708 1.348 . S
C710 C712 1.353 . S
C710 H768 0.929 . S
C711 C708 1.356 . S
C711 C713 1.358 . S
C711 H769 0.930 . S
C712 N709 1.314 . S
C712 C710 1.353 . S
C712 H770 0.930 . S
C713 N709 1.279 . S
C713 C711 1.358 . S
C713 H771 0.930 . S
C714 C717 1.348 . S
C714 C718 1.356 . S
C714 O765 1.325 . S
C715 N716 1.279 . S
C715 C718 1.358 . S
C715 H772 0.930 . S
N716 C715 1.279 . S
N716 C719 1.314 . S
C717 C714 1.348 . S
C717 C719 1.353 . S
C717 H773 0.929 . S
C718 C714 1.356 . S
C718 C715 1.358 . S
C718 H774 0.930 . S
C719 N716 1.314 . S
C719 C717 1.353 . S
C719 H775 0.930 . S
C720 N721 1.314 . S
C720 C725 1.353 . S
C720 H726 0.930 . S
N721 Li704 1.990 . S
N721 C720 1.314 . S
N721 C723 1.279 . S
C722 C723 1.358 . S
C722 C724 1.356 . S
C722 H776 0.930 . S
C723 N721 1.279 . S
C723 C722 1.358 . S
C723 H727 0.930 . S
C724 C722 1.356 . S
C724 C725 1.348 . S
C725 C720 1.353 . S
C725 C724 1.348 . S
C725 H777 0.929 . S
H726 C720 0.930 . S
H727 C723 0.930 . S
C728 N729 1.314 . S
C728 C730 1.353 . S
C728 H734 0.930 . S
N729 Li705 1.990 . S
N729 C728 1.314 . S
N729 C732 1.279 . S
C730 C728 1.353 . S
C730 C733 1.348 . S
C730 H778 0.929 . S
C731 C732 1.358 . S
C731 C733 1.356 . S
C731 H779 0.930 . S
C732 N729 1.279 . S
C732 C731 1.358 . S
C732 H735 0.930 . S
C733 C730 1.348 . S
C733 C731 1.356 . S
H734 C728 0.930 . S
H735 C732 0.930 . S
C736 C738 1.348 . S
C736 C739 1.356 . S
C736 O766 1.325 . S
N737 C740 1.314 . S
N737 C741 1.279 . S
C738 C736 1.348 . S
C738 C740 1.353 . S
C738 H780 0.929 . S
C739 C736 1.356 . S
C739 C741 1.358 . S
C739 H781 0.930 . S
C740 N737 1.314 . S
C740 C738 1.353 . S
C740 H782 0.930 . S
C741 N737 1.279 . S
C741 C739 1.358 . S
C741 H783 0.930 . S
C742 C743 1.348 . S
C742 C744 1.356 . S
C742 O767 1.325 . S
C743 C742 1.348 . S
C743 C745 1.353 . S
C743 H784 0.929 . S
C744 C742 1.356 . S
C744 C746 1.358 . S
C744 H785 0.930 . S
C745 C743 1.353 . S
C745 N747 1.314 . S
C745 H786 0.930 . S
C746 C744 1.358 . S
C746 N747 1.279 . S
C746 H787 0.930 . S
N747 C745 1.314 . S
N747 C746 1.279 . S
C748 C750 1.353 . S
C748 N751 1.314 . S
C748 H754 0.930 . S
C749 N751 1.279 . S
C749 C752 1.358 . S
C749 H755 0.930 . S
C750 C748 1.353 . S
C750 C753 1.348 . S
C750 H788 0.929 . S
N751 Li706 1.990 . S
N751 C748 1.314 . S
N751 C749 1.279 . S
C752 C749 1.358 . S
C752 C753 1.356 . S
C752 H789 0.930 . S
C753 C750 1.348 . S
C753 C752 1.356 . S
H754 C748 0.930 . S
H755 C749 0.930 . S
C756 N757 1.314 . S
C756 C758 1.353 . S
C756 H762 0.930 . S
N757 Li707 1.990 . S
N757 C756 1.314 . S
N757 C760 1.279 . S
C758 C756 1.353 . S
C758 C761 1.348 . S
C758 H790 0.929 . S
C759 C760 1.358 . S
C759 C761 1.356 . S
C759 H791 0.930 . S
C760 N757 1.279 . S
C760 C759 1.358 . S
C760 H763 0.930 . S
C761 C758 1.348 . S
C761 C759 1.356 . S
H762 C756 0.930 . S
H763 C760 0.930 . S
O764 Li704 1.956 . S
O764 Li705 1.970 . S
O764 Li706 1.961 . S
O764 C708 1.325 . S
O765 Li704 1.970 . S
O765 Li705 1.956 . S
O765 Li707 1.961 . S
O765 C714 1.325 . S
O766 Li704 1.961 . S
O766 Li706 1.956 . S
O766 Li707 1.970 . S
O766 C736 1.325 . S
O767 Li705 1.961 . S
O767 Li706 1.970 . S
O767 Li707 1.956 . S
O767 C742 1.325 . S
H768 C710 0.929 . S
H769 C711 0.930 . S
H770 C712 0.930 . S
H771 C713 0.930 . S
H772 C715 0.930 . S
H773 C717 0.929 . S
H774 C718 0.930 . S
H775 C719 0.930 . S
H776 C722 0.930 . S
H777 C725 0.929 . S
H778 C730 0.929 . S
H779 C731 0.930 . S
H780 C738 0.929 . S
H781 C739 0.930 . S
H782 C740 0.930 . S
H783 C741 0.930 . S
H784 C743 0.929 . S
H785 C744 0.930 . S
H786 C745 0.930 . S
H787 C746 0.930 . S
H788 C750 0.929 . S
H789 C752 0.930 . S
H790 C758 0.929 . S
H791 C759 0.930 . S
Li792 N809 1.990 . S
Li792 O852 1.956 . S
Li792 O853 1.970 1_556 S
Li792 O854 1.961 1_455 S
Li793 N817 1.981 1_556 S
Li793 O852 1.970 . S
Li793 O853 1.956 1_556 S
Li793 O855 1.961 . S
Li794 N839 1.990 . S
Li794 O852 1.961 . S
Li794 O854 1.956 1_455 S
Li794 O855 1.970 . S
Li795 N845 1.966 1_456 S
Li795 O853 1.946 1_556 S
Li795 O854 1.998 1_455 S
Li795 O855 1.982 . S
C796 C798 1.348 . S
C796 C799 1.356 . S
C796 O852 1.325 . S
N797 C800 1.314 . S
N797 C801 1.279 . S
C798 C796 1.348 . S
C798 C800 1.353 . S
C798 H856 0.929 . S
C799 C796 1.356 . S
C799 C801 1.358 . S
C799 H857 0.930 . S
C800 N797 1.314 . S
C800 C798 1.353 . S
C800 H858 0.930 . S
C801 N797 1.279 . S
C801 C799 1.358 . S
C801 H859 0.930 . S
C802 C805 1.348 . S
C802 C806 1.356 . S
C802 O853 1.325 . S
C803 N804 1.279 . S
C803 C806 1.358 . S
C803 H860 0.930 . S
N804 C803 1.279 . S
N804 C807 1.314 . S
C805 C802 1.348 . S
C805 C807 1.353 . S
C805 H861 0.929 . S
C806 C802 1.356 . S
C806 C803 1.358 . S
C806 H862 0.930 . S
C807 N804 1.314 . S
C807 C805 1.353 . S
C807 H863 0.930 . S
C808 N809 1.329 1_655 S
C808 C813 1.347 1_556 S
C808 H814 0.920 1_556 S
N809 Li792 1.990 . S
N809 C808 1.329 1_455 S
N809 C811 1.279 . S
C810 C811 1.358 . S
C810 C812 1.356 1_455 S
C810 H864 0.930 . S
C811 N809 1.279 . S
C811 C810 1.358 . S
C811 H815 0.930 . S
C812 C810 1.356 1_655 S
C812 C813 1.348 1_556 S
C813 C808 1.347 1_554 S
C813 C812 1.348 1_554 S
C813 H865 0.929 . S
H814 C808 0.920 1_554 S
H815 C811 0.930 . S
C816 N817 1.297 1_556 S
C816 C818 1.353 . S
C816 H822 0.930 . S
N817 Li793 1.981 1_554 S
N817 C816 1.297 1_554 S
N817 C820 1.305 . S
C818 C816 1.353 . S
C818 C821 1.348 1_556 S
C818 H866 0.929 . S
C819 C820 1.358 . S
C819 C821 1.356 . S
C819 H867 0.930 . S
C820 N817 1.305 . S
C820 C819 1.358 . S
C820 H823 0.930 . S
C821 C818 1.348 1_554 S
C821 C819 1.356 . S
H822 C816 0.930 . S
H823 C820 0.930 . S
C824 C826 1.348 . S
C824 C827 1.356 . S
C824 O854 1.325 . S
N825 C828 1.314 . S
N825 C829 1.279 . S
C826 C824 1.348 . S
C826 C828 1.353 . S
C826 H868 0.929 . S
C827 C824 1.356 . S
C827 C829 1.358 . S
C827 H869 0.930 . S
C828 N825 1.314 . S
C828 C826 1.353 . S
C828 H870 0.930 . S
C829 N825 1.279 . S
C829 C827 1.358 . S
C829 H871 0.930 . S
C830 C831 1.348 . S
C830 C832 1.356 . S
C830 O855 1.325 . S
C831 C830 1.348 . S
C831 C833 1.353 . S
C831 H872 0.929 . S
C832 C830 1.356 . S
C832 C834 1.358 . S
C832 H873 0.930 1_556 S
C833 C831 1.353 . S
C833 N835 1.314 . S
C833 H874 0.930 . S
C834 C832 1.358 . S
C834 N835 1.279 . S
C834 H875 0.928 . S
N835 C833 1.314 . S
N835 C834 1.279 . S
C836 C838 1.353 . S
C836 N839 1.314 . S
C836 H842 0.930 . S
C837 N839 1.279 1_655 S
C837 C840 1.358 . S
C837 H843 0.930 . S
C838 C836 1.353 . S
C838 C841 1.374 . S
C838 H876 0.929 . S
N839 Li794 1.990 . S
N839 C836 1.314 . S
N839 C837 1.279 1_455 S
C840 C837 1.358 . S
C840 C841 1.334 1_655 S
C840 H877 0.930 . S
C841 C838 1.374 . S
C841 C840 1.334 1_455 S
H842 C836 0.930 . S
H843 C837 0.930 . S
C844 N845 1.314 . S
C844 C846 1.353 . S
C844 H850 0.930 . S
N845 Li795 1.966 1_654 S
N845 C844 1.314 . S
N845 C848 1.279 . S
C846 C844 1.353 . S
C846 C849 1.348 . S
C846 H878 0.929 . S
C847 C848 1.358 . S
C847 C849 1.356 . S
C847 H879 0.930 . S
C848 N845 1.279 . S
C848 C847 1.358 . S
C848 H851 0.930 . S
C849 C846 1.348 . S
C849 C847 1.356 . S
H850 C844 0.930 . S
H851 C848 0.930 . S
O852 Li792 1.956 . S
O852 Li793 1.970 . S
O852 Li794 1.961 . S
O852 C796 1.325 . S
O853 Li792 1.970 1_554 S
O853 Li793 1.956 1_554 S
O853 Li795 1.946 1_554 S
O853 C802 1.325 . S
O854 Li792 1.961 1_655 S
O854 Li794 1.956 1_655 S
O854 Li795 1.998 1_655 S
O854 C824 1.325 . S
O855 Li793 1.961 . S
O855 Li794 1.970 . S
O855 Li795 1.982 . S
O855 C830 1.325 . S
H856 C798 0.929 . S
H857 C799 0.930 . S
H858 C800 0.930 . S
H859 C801 0.930 . S
H860 C803 0.930 . S
H861 C805 0.929 . S
H862 C806 0.930 . S
H863 C807 0.930 . S
H864 C810 0.930 . S
H865 C813 0.929 . S
H866 C818 0.929 . S
H867 C819 0.930 . S
H868 C826 0.929 . S
H869 C827 0.930 . S
H870 C828 0.930 . S
H871 C829 0.930 . S
H872 C831 0.929 . S
H873 C832 0.930 1_554 S
H874 C833 0.930 . S
H875 C834 0.928 . S
H876 C838 0.929 . S
H877 C840 0.930 . S
H878 C846 0.929 . S
H879 C847 0.930 . S
Li880 N897 1.990 . S
Li880 O940 1.956 . S
Li880 O941 1.970 . S
Li880 O942 1.961 . S
Li881 N905 1.990 . S
Li881 O940 1.970 . S
Li881 O941 1.956 . S
Li881 O943 1.961 . S
Li882 N927 1.990 . S
Li882 O940 1.961 . S
Li882 O942 1.956 . S
Li882 O943 1.970 . S
Li883 N933 1.990 . S
Li883 O941 1.961 . S
Li883 O942 1.970 . S
Li883 O943 1.956 . S
C884 C886 1.348 . S
C884 C887 1.356 . S
C884 O940 1.325 . S
N885 C888 1.314 . S
N885 C889 1.279 . S
C886 C884 1.348 . S
C886 C888 1.353 . S
C886 H944 0.929 . S
C887 C884 1.356 . S
C887 C889 1.358 . S
C887 H945 0.930 . S
C888 N885 1.314 . S
C888 C886 1.353 . S
C888 H946 0.930 . S
C889 N885 1.279 . S
C889 C887 1.358 . S
C889 H947 0.930 . S
C890 C893 1.348 . S
C890 C894 1.356 . S
C890 O941 1.325 . S
C891 N892 1.279 . S
C891 C894 1.358 . S
C891 H948 0.930 . S
N892 C891 1.279 . S
N892 C895 1.314 . S
C893 C890 1.348 . S
C893 C895 1.353 . S
C893 H949 0.929 . S
C894 C890 1.356 . S
C894 C891 1.358 . S
C894 H950 0.930 . S
C895 N892 1.314 . S
C895 C893 1.353 . S
C895 H951 0.930 . S
C896 N897 1.314 . S
C896 C901 1.353 . S
C896 H902 0.930 . S
N897 Li880 1.990 . S
N897 C896 1.314 . S
N897 C899 1.279 . S
C898 C899 1.358 . S
C898 C900 1.356 . S
C898 H952 0.930 . S
C899 N897 1.279 . S
C899 C898 1.358 . S
C899 H903 0.930 . S
C900 C898 1.356 . S
C900 C901 1.348 . S
C901 C896 1.353 . S
C901 C900 1.348 . S
C901 H953 0.929 . S
H902 C896 0.930 . S
H903 C899 0.930 . S
C904 N905 1.314 . S
C904 C906 1.353 . S
C904 H910 0.930 . S
N905 Li881 1.990 . S
N905 C904 1.314 . S
N905 C908 1.279 . S
C906 C904 1.353 . S
C906 C909 1.348 . S
C906 H954 0.929 . S
C907 C908 1.358 . S
C907 C909 1.356 . S
C907 H955 0.930 . S
C908 N905 1.279 . S
C908 C907 1.358 . S
C908 H911 0.930 . S
C909 C906 1.348 . S
C909 C907 1.356 . S
H910 C904 0.930 . S
H911 C908 0.930 . S
C912 C914 1.348 . S
C912 C915 1.356 . S
C912 O942 1.325 . S
N913 C916 1.314 . S
N913 C917 1.279 . S
C914 C912 1.348 . S
C914 C916 1.353 . S
C914 H956 0.929 . S
C915 C912 1.356 . S
C915 C917 1.358 . S
C915 H957 0.930 . S
C916 N913 1.314 . S
C916 C914 1.353 . S
C916 H958 0.930 . S
C917 N913 1.279 . S
C917 C915 1.358 . S
C917 H959 0.930 . S
C918 C919 1.348 . S
C918 C920 1.356 . S
C918 O943 1.325 . S
C919 C918 1.348 . S
C919 C921 1.353 . S
C919 H960 0.929 . S
C920 C918 1.356 . S
C920 C922 1.358 . S
C920 H961 0.930 . S
C921 C919 1.353 . S
C921 N923 1.314 . S
C921 H962 0.930 . S
C922 C920 1.358 . S
C922 N923 1.279 . S
C922 H963 0.930 . S
N923 C921 1.314 . S
N923 C922 1.279 . S
C924 C926 1.353 . S
C924 N927 1.314 . S
C924 H930 0.930 . S
C925 N927 1.279 . S
C925 C928 1.358 . S
C925 H931 0.930 . S
C926 C924 1.353 . S
C926 C929 1.348 . S
C926 H964 0.929 . S
N927 Li882 1.990 . S
N927 C924 1.314 . S
N927 C925 1.279 . S
C928 C925 1.358 . S
C928 C929 1.356 . S
C928 H965 0.930 . S
C929 C926 1.348 . S
C929 C928 1.356 . S
H930 C924 0.930 . S
H931 C925 0.930 . S
C932 N933 1.314 . S
C932 C934 1.353 . S
C932 H938 0.930 . S
N933 Li883 1.990 . S
N933 C932 1.314 . S
N933 C936 1.279 . S
C934 C932 1.353 . S
C934 C937 1.348 . S
C934 H966 0.929 . S
C935 C936 1.358 . S
C935 C937 1.356 . S
C935 H967 0.930 . S
C936 N933 1.279 . S
C936 C935 1.358 . S
C936 H939 0.930 . S
C937 C934 1.348 . S
C937 C935 1.356 . S
H938 C932 0.930 . S
H939 C936 0.930 . S
O940 Li880 1.956 . S
O940 Li881 1.970 . S
O940 Li882 1.961 . S
O940 C884 1.325 . S
O941 Li880 1.970 . S
O941 Li881 1.956 . S
O941 Li883 1.961 . S
O941 C890 1.325 . S
O942 Li880 1.961 . S
O942 Li882 1.956 . S
O942 Li883 1.970 . S
O942 C912 1.325 . S
O943 Li881 1.961 . S
O943 Li882 1.970 . S
O943 Li883 1.956 . S
O943 C918 1.325 . S
H944 C886 0.929 . S
H945 C887 0.930 . S
H946 C888 0.930 . S
H947 C889 0.930 . S
H948 C891 0.930 . S
H949 C893 0.929 . S
H950 C894 0.930 . S
H951 C895 0.930 . S
H952 C898 0.930 . S
H953 C901 0.929 . S
H954 C906 0.929 . S
H955 C907 0.930 . S
H956 C914 0.929 . S
H957 C915 0.930 . S
H958 C916 0.930 . S
H959 C917 0.930 . S
H960 C919 0.929 . S
H961 C920 0.930 . S
H962 C921 0.930 . S
H963 C922 0.930 . S
H964 C926 0.929 . S
H965 C928 0.930 . S
H966 C934 0.929 . S
H967 C935 0.930 . S
Li968 N985 1.990 . S
Li968 O1028 1.956 . S
Li968 O1029 1.970 1_455 S
Li968 O1030 1.961 . S
Li969 N993 1.982 1_455 S
Li969 O1028 1.970 . S
Li969 O1029 1.956 1_455 S
Li969 O1031 1.961 . S
Li970 N1015 1.990 . S
Li970 O1028 1.961 . S
Li970 O1030 1.956 . S
Li970 O1031 1.970 . S
Li971 N1021 1.990 1_455 S
Li971 O1029 1.961 1_455 S
Li971 O1030 1.970 . S
Li971 O1031 1.956 . S
C972 C974 1.348 . S
C972 C975 1.356 . S
C972 O1028 1.325 . S
N973 C976 1.314 . S
N973 C977 1.279 . S
C974 C972 1.348 . S
C974 C976 1.353 . S
C974 H1032 0.929 . S
C975 C972 1.356 . S
C975 C977 1.358 . S
C975 H1033 0.930 . S
C976 N973 1.314 . S
C976 C974 1.353 . S
C976 H1034 0.930 . S
C977 N973 1.279 . S
C977 C975 1.358 . S
C977 H1035 0.930 . S
C978 C981 1.348 . S
C978 C982 1.356 . S
C978 O1029 1.325 . S
C979 N980 1.279 . S
C979 C982 1.358 . S
C979 H1036 0.930 . S
N980 C979 1.279 . S
N980 C983 1.314 . S
C981 C978 1.348 . S
C981 C983 1.353 . S
C981 H1037 0.929 . S
C982 C978 1.356 . S
C982 C979 1.358 . S
C982 H1038 0.930 . S
C983 N980 1.314 . S
C983 C981 1.353 . S
C983 H1039 0.930 . S
C984 N985 1.314 . S
C984 C989 1.353 1_455 S
C984 H990 0.930 1_455 S
N985 Li968 1.990 . S
N985 C984 1.314 . S
N985 C987 1.279 . S
C986 C987 1.358 . S
C986 C988 1.356 . S
C986 H1040 0.930 . S
C987 N985 1.279 . S
C987 C986 1.358 . S
C987 H991 0.930 . S
C988 C986 1.356 . S
C988 C989 1.348 1_455 S
C989 C984 1.353 1_655 S
C989 C988 1.348 1_655 S
C989 H1041 0.929 . S
H990 C984 0.930 1_655 S
H991 C987 0.930 . S
C992 N993 1.298 1_455 S
C992 C994 1.353 . S
C992 H998 0.930 . S
N993 Li969 1.982 1_655 S
N993 C992 1.298 1_655 S
N993 C996 1.303 . S
C994 C992 1.353 . S
C994 C997 1.348 1_455 S
C994 H1042 0.929 . S
C995 C996 1.358 . S
C995 C997 1.356 . S
C995 H1043 0.930 . S
C996 N993 1.303 . S
C996 C995 1.358 . S
C996 H999 0.930 . S
C997 C994 1.348 1_655 S
C997 C995 1.356 . S
H998 C992 0.930 . S
H999 C996 0.930 . S
C1000 C1002 1.348 . S
C1000 C1003 1.356 . S
C1000 O1030 1.325 . S
N1001 C1004 1.314 . S
N1001 C1005 1.279 . S
C1002 C1000 1.348 . S
C1002 C1004 1.353 . S
C1002 H1044 0.929 . S
C1003 C1000 1.356 . S
C1003 C1005 1.358 . S
C1003 H1045 0.930 . S
C1004 N1001 1.314 . S
C1004 C1002 1.353 . S
C1004 H1046 0.930 . S
C1005 N1001 1.279 . S
C1005 C1003 1.358 . S
C1005 H1047 0.930 . S
C1006 C1007 1.348 . S
C1006 C1008 1.356 . S
C1006 O1031 1.325 . S
C1007 C1006 1.348 . S
C1007 C1009 1.353 . S
C1007 H1048 0.929 . S
C1008 C1006 1.356 . S
C1008 C1010 1.358 . S
C1008 H1049 0.930 1_455 S
C1009 C1007 1.353 . S
C1009 N1011 1.314 . S
C1009 H1050 0.930 . S
C1010 C1008 1.358 . S
C1010 N1011 1.279 . S
C1010 H1051 0.931 . S
N1011 C1009 1.314 . S
N1011 C1010 1.279 . S
C1012 C1014 1.353 . S
C1012 N1015 1.314 . S
C1012 H1018 0.930 . S
C1013 N1015 1.279 . S
C1013 C1016 1.358 . S
C1013 H1019 0.930 . S
C1014 C1012 1.353 . S
C1014 C1017 1.348 . S
C1014 H1052 0.929 . S
N1015 Li970 1.990 . S
N1015 C1012 1.314 . S
N1015 C1013 1.279 . S
C1016 C1013 1.358 . S
C1016 C1017 1.356 . S
C1016 H1053 0.930 . S
C1017 C1014 1.348 . S
C1017 C1016 1.356 . S
H1018 C1012 0.930 . S
H1019 C1013 0.930 . S
C1020 N1021 1.314 . S
C1020 C1022 1.353 . S
C1020 H1026 0.930 . S
N1021 Li971 1.990 1_655 S
N1021 C1020 1.314 . S
N1021 C1024 1.279 . S
C1022 C1020 1.353 . S
C1022 C1025 1.348 . S
C1022 H1054 0.929 . S
C1023 C1024 1.358 . S
C1023 C1025 1.356 . S
C1023 H1055 0.930 . S
C1024 N1021 1.279 . S
C1024 C1023 1.358 . S
C1024 H1027 0.930 . S
C1025 C1022 1.348 . S
C1025 C1023 1.356 . S
H1026 C1020 0.930 . S
H1027 C1024 0.930 . S
O1028 Li968 1.956 . S
O1028 Li969 1.970 . S
O1028 Li970 1.961 . S
O1028 C972 1.325 . S
O1029 Li968 1.970 1_655 S
O1029 Li969 1.956 1_655 S
O1029 Li971 1.961 1_655 S
O1029 C978 1.325 . S
O1030 Li968 1.961 . S
O1030 Li970 1.956 . S
O1030 Li971 1.970 . S
O1030 C1000 1.325 . S
O1031 Li969 1.961 . S
O1031 Li970 1.970 . S
O1031 Li971 1.956 . S
O1031 C1006 1.325 . S
H1032 C974 0.929 . S
H1033 C975 0.930 . S
H1034 C976 0.930 . S
H1035 C977 0.930 . S
H1036 C979 0.930 . S
H1037 C981 0.929 . S
H1038 C982 0.930 . S
H1039 C983 0.930 . S
H1040 C986 0.930 . S
H1041 C989 0.929 . S
H1042 C994 0.929 . S
H1043 C995 0.930 . S
H1044 C1002 0.929 . S
H1045 C1003 0.930 . S
H1046 C1004 0.930 . S
H1047 C1005 0.930 . S
H1048 C1007 0.929 . S
H1049 C1008 0.930 1_655 S
H1050 C1009 0.930 . S
H1051 C1010 0.931 . S
H1052 C1014 0.929 . S
H1053 C1016 0.930 . S
H1054 C1022 0.929 . S
H1055 C1023 0.930 . S
Li1056 N1073 1.990 . S
Li1056 O1116 1.956 . S
Li1056 O1117 1.970 1_554 S
Li1056 O1118 1.961 . S
Li1057 N1081 1.990 1_554 S
Li1057 O1116 1.970 . S
Li1057 O1117 1.956 1_554 S
Li1057 O1119 1.961 . S
Li1058 N1103 1.990 . S
Li1058 O1116 1.961 . S
Li1058 O1118 1.956 . S
Li1058 O1119 1.970 . S
Li1059 N1109 1.985 1_554 S
Li1059 O1117 1.957 1_554 S
Li1059 O1118 1.976 . S
Li1059 O1119 1.962 . S
C1060 C1062 1.348 . S
C1060 C1063 1.356 . S
C1060 O1116 1.325 . S
N1061 C1064 1.314 . S
N1061 C1065 1.279 . S
C1062 C1060 1.348 . S
C1062 C1064 1.353 . S
C1062 H1120 0.929 . S
C1063 C1060 1.356 . S
C1063 C1065 1.358 . S
C1063 H1121 0.930 . S
C1064 N1061 1.314 . S
C1064 C1062 1.353 . S
C1064 H1122 0.930 . S
C1065 N1061 1.279 . S
C1065 C1063 1.358 . S
C1065 H1123 0.930 . S
C1066 C1069 1.348 . S
C1066 C1070 1.356 . S
C1066 O1117 1.325 . S
C1067 N1068 1.279 . S
C1067 C1070 1.358 . S
C1067 H1124 0.930 . S
N1068 C1067 1.279 . S
N1068 C1071 1.314 . S
C1069 C1066 1.348 . S
C1069 C1071 1.353 . S
C1069 H1125 0.929 . S
C1070 C1066 1.356 . S
C1070 C1067 1.358 . S
C1070 H1126 0.930 . S
C1071 N1068 1.314 . S
C1071 C1069 1.353 . S
C1071 H1127 0.930 . S
C1072 N1073 1.314 . S
C1072 C1077 1.353 1_554 S
C1072 H1078 0.930 1_554 S
N1073 Li1056 1.990 . S
N1073 C1072 1.314 . S
N1073 C1075 1.279 . S
C1074 C1075 1.358 . S
C1074 C1076 1.375 . S
C1074 H1128 0.930 . S
C1075 N1073 1.279 . S
C1075 C1074 1.358 . S
C1075 H1079 0.930 . S
C1076 C1074 1.375 . S
C1076 C1077 1.340 1_554 S
C1077 C1072 1.353 1_556 S
C1077 C1076 1.340 1_556 S
C1077 H1129 0.929 . S
H1078 C1072 0.930 1_556 S
H1079 C1075 0.930 . S
C1080 N1081 1.314 1_554 S
C1080 C1082 1.353 . S
C1080 H1086 0.930 . S
N1081 Li1057 1.990 1_556 S
N1081 C1080 1.314 1_556 S
N1081 C1084 1.279 . S
C1082 C1080 1.353 . S
C1082 C1085 1.348 1_554 S
C1082 H1130 0.929 . S
C1083 C1084 1.358 . S
C1083 C1085 1.356 . S
C1083 H1131 0.930 . S
C1084 N1081 1.279 . S
C1084 C1083 1.358 . S
C1084 H1087 0.930 . S
C1085 C1082 1.348 1_556 S
C1085 C1083 1.356 . S
H1086 C1080 0.930 . S
H1087 C1084 0.930 . S
C1088 C1090 1.348 . S
C1088 C1091 1.356 . S
C1088 O1118 1.325 . S
N1089 C1092 1.314 . S
N1089 C1093 1.279 . S
C1090 C1088 1.348 . S
C1090 C1092 1.353 . S
C1090 H1132 0.929 . S
C1091 C1088 1.356 . S
C1091 C1093 1.358 . S
C1091 H1133 0.930 . S
C1092 N1089 1.314 . S
C1092 C1090 1.353 . S
C1092 H1134 0.930 . S
C1093 N1089 1.279 . S
C1093 C1091 1.358 . S
C1093 H1135 0.930 . S
C1094 C1095 1.348 . S
C1094 C1096 1.356 . S
C1094 O1119 1.325 . S
C1095 C1094 1.348 . S
C1095 C1097 1.353 . S
C1095 H1136 0.929 . S
C1096 C1094 1.356 . S
C1096 C1098 1.358 . S
C1096 H1137 0.930 1_554 S
C1097 C1095 1.353 . S
C1097 N1099 1.314 . S
C1097 H1138 0.930 . S
C1098 C1096 1.358 . S
C1098 N1099 1.279 . S
C1098 H1139 0.913 1_554 S
N1099 C1097 1.314 . S
N1099 C1098 1.279 . S
C1100 C1102 1.353 . S
C1100 N1103 1.314 . S
C1100 H1106 0.930 . S
C1101 N1103 1.279 . S
C1101 C1104 1.358 . S
C1101 H1107 0.930 . S
C1102 C1100 1.353 . S
C1102 C1105 1.348 . S
C1102 H1140 0.929 . S
N1103 Li1058 1.990 . S
N1103 C1100 1.314 . S
N1103 C1101 1.279 . S
C1104 C1101 1.358 . S
C1104 C1105 1.356 . S
C1104 H1141 0.930 . S
C1105 C1102 1.348 . S
C1105 C1104 1.356 . S
H1106 C1100 0.930 . S
H1107 C1101 0.930 . S
C1108 N1109 1.314 . S
C1108 C1110 1.353 . S
C1108 H1114 0.930 . S
N1109 Li1059 1.985 1_556 S
N1109 C1108 1.314 . S
N1109 C1112 1.279 . S
C1110 C1108 1.353 . S
C1110 C1113 1.348 . S
C1110 H1142 0.929 . S
C1111 C1112 1.358 . S
C1111 C1113 1.356 . S
C1111 H1143 0.930 . S
C1112 N1109 1.279 . S
C1112 C1111 1.358 . S
C1112 H1115 0.930 . S
C1113 C1110 1.348 . S
C1113 C1111 1.356 . S
H1114 C1108 0.930 . S
H1115 C1112 0.930 . S
O1116 Li1056 1.956 . S
O1116 Li1057 1.970 . S
O1116 Li1058 1.961 . S
O1116 C1060 1.325 . S
O1117 Li1056 1.970 1_556 S
O1117 Li1057 1.956 1_556 S
O1117 Li1059 1.957 1_556 S
O1117 C1066 1.325 . S
O1118 Li1056 1.961 . S
O1118 Li1058 1.956 . S
O1118 Li1059 1.976 . S
O1118 C1088 1.325 . S
O1119 Li1057 1.961 . S
O1119 Li1058 1.970 . S
O1119 Li1059 1.962 . S
O1119 C1094 1.325 . S
H1120 C1062 0.929 . S
H1121 C1063 0.930 . S
H1122 C1064 0.930 . S
H1123 C1065 0.930 . S
H1124 C1067 0.930 . S
H1125 C1069 0.929 . S
H1126 C1070 0.930 . S
H1127 C1071 0.930 . S
H1128 C1074 0.930 . S
H1129 C1077 0.929 . S
H1130 C1082 0.929 . S
H1131 C1083 0.930 . S
H1132 C1090 0.929 . S
H1133 C1091 0.930 . S
H1134 C1092 0.930 . S
H1135 C1093 0.930 . S
H1136 C1095 0.929 . S
H1137 C1096 0.930 1_556 S
H1138 C1097 0.930 . S
H1139 C1098 0.913 1_556 S
H1140 C1102 0.929 . S
H1141 C1104 0.930 . S
H1142 C1110 0.929 . S
H1143 C1111 0.930 . S
Li1144 N1161 1.990 . S
Li1144 O1204 1.956 . S
Li1144 O1205 1.970 . S
Li1144 O1206 1.961 . S
Li1145 N1169 1.990 . S
Li1145 O1204 1.970 . S
Li1145 O1205 1.956 . S
Li1145 O1207 1.961 . S
Li1146 N1191 1.990 . S
Li1146 O1204 1.961 . S
Li1146 O1206 1.956 . S
Li1146 O1207 1.970 . S
Li1147 N1197 1.990 . S
Li1147 O1205 1.961 . S
Li1147 O1206 1.970 . S
Li1147 O1207 1.956 . S
C1148 C1150 1.348 . S
C1148 C1151 1.356 . S
C1148 O1204 1.325 . S
N1149 C1152 1.314 . S
N1149 C1153 1.279 . S
C1150 C1148 1.348 . S
C1150 C1152 1.353 . S
C1150 H1208 0.929 . S
C1151 C1148 1.356 . S
C1151 C1153 1.358 . S
C1151 H1209 0.930 . S
C1152 N1149 1.314 . S
C1152 C1150 1.353 . S
C1152 H1210 0.930 . S
C1153 N1149 1.279 . S
C1153 C1151 1.358 . S
C1153 H1211 0.930 . S
C1154 C1157 1.348 . S
C1154 C1158 1.356 . S
C1154 O1205 1.325 . S
C1155 N1156 1.279 . S
C1155 C1158 1.358 . S
C1155 H1212 0.930 . S
N1156 C1155 1.279 . S
N1156 C1159 1.314 . S
C1157 C1154 1.348 . S
C1157 C1159 1.353 . S
C1157 H1213 0.929 . S
C1158 C1154 1.356 . S
C1158 C1155 1.358 . S
C1158 H1214 0.930 . S
C1159 N1156 1.314 . S
C1159 C1157 1.353 . S
C1159 H1215 0.930 . S
C1160 N1161 1.314 . S
C1160 C1165 1.353 . S
C1160 H1166 0.930 . S
N1161 Li1144 1.990 . S
N1161 C1160 1.314 . S
N1161 C1163 1.279 . S
C1162 C1163 1.358 . S
C1162 C1164 1.356 . S
C1162 H1216 0.930 . S
C1163 N1161 1.279 . S
C1163 C1162 1.358 . S
C1163 H1167 0.930 . S
C1164 C1162 1.356 . S
C1164 C1165 1.348 . S
C1165 C1160 1.353 . S
C1165 C1164 1.348 . S
C1165 H1217 0.929 . S
H1166 C1160 0.930 . S
H1167 C1163 0.930 . S
C1168 N1169 1.314 . S
C1168 C1170 1.353 . S
C1168 H1174 0.930 . S
N1169 Li1145 1.990 . S
N1169 C1168 1.314 . S
N1169 C1172 1.279 . S
C1170 C1168 1.353 . S
C1170 C1173 1.348 . S
C1170 H1218 0.929 . S
C1171 C1172 1.358 . S
C1171 C1173 1.356 . S
C1171 H1219 0.930 . S
C1172 N1169 1.279 . S
C1172 C1171 1.358 . S
C1172 H1175 0.930 . S
C1173 C1170 1.348 . S
C1173 C1171 1.356 . S
H1174 C1168 0.930 . S
H1175 C1172 0.930 . S
C1176 C1178 1.348 . S
C1176 C1179 1.356 . S
C1176 O1206 1.325 . S
N1177 C1180 1.314 . S
N1177 C1181 1.279 . S
C1178 C1176 1.348 . S
C1178 C1180 1.353 . S
C1178 H1220 0.929 . S
C1179 C1176 1.356 . S
C1179 C1181 1.358 . S
C1179 H1221 0.930 . S
C1180 N1177 1.314 . S
C1180 C1178 1.353 . S
C1180 H1222 0.930 . S
C1181 N1177 1.279 . S
C1181 C1179 1.358 . S
C1181 H1223 0.930 . S
C1182 C1183 1.348 . S
C1182 C1184 1.356 . S
C1182 O1207 1.325 . S
C1183 C1182 1.348 . S
C1183 C1185 1.353 . S
C1183 H1224 0.929 . S
C1184 C1182 1.356 . S
C1184 C1186 1.358 . S
C1184 H1225 0.930 . S
C1185 C1183 1.353 . S
C1185 N1187 1.314 . S
C1185 H1226 0.930 . S
C1186 C1184 1.358 . S
C1186 N1187 1.279 . S
C1186 H1227 0.930 . S
N1187 C1185 1.314 . S
N1187 C1186 1.279 . S
C1188 C1190 1.353 . S
C1188 N1191 1.314 . S
C1188 H1194 0.930 . S
C1189 N1191 1.279 . S
C1189 C1192 1.358 . S
C1189 H1195 0.930 . S
C1190 C1188 1.353 . S
C1190 C1193 1.348 . S
C1190 H1228 0.929 . S
N1191 Li1146 1.990 . S
N1191 C1188 1.314 . S
N1191 C1189 1.279 . S
C1192 C1189 1.358 . S
C1192 C1193 1.356 . S
C1192 H1229 0.930 . S
C1193 C1190 1.348 . S
C1193 C1192 1.356 . S
H1194 C1188 0.930 . S
H1195 C1189 0.930 . S
C1196 N1197 1.314 . S
C1196 C1198 1.353 . S
C1196 H1202 0.930 . S
N1197 Li1147 1.990 . S
N1197 C1196 1.314 . S
N1197 C1200 1.279 . S
C1198 C1196 1.353 . S
C1198 C1201 1.348 . S
C1198 H1230 0.929 . S
C1199 C1200 1.358 . S
C1199 C1201 1.356 . S
C1199 H1231 0.930 . S
C1200 N1197 1.279 . S
C1200 C1199 1.358 . S
C1200 H1203 0.930 . S
C1201 C1198 1.348 . S
C1201 C1199 1.356 . S
H1202 C1196 0.930 . S
H1203 C1200 0.930 . S
O1204 Li1144 1.956 . S
O1204 Li1145 1.970 . S
O1204 Li1146 1.961 . S
O1204 C1148 1.325 . S
O1205 Li1144 1.970 . S
O1205 Li1145 1.956 . S
O1205 Li1147 1.961 . S
O1205 C1154 1.325 . S
O1206 Li1144 1.961 . S
O1206 Li1146 1.956 . S
O1206 Li1147 1.970 . S
O1206 C1176 1.325 . S
O1207 Li1145 1.961 . S
O1207 Li1146 1.970 . S
O1207 Li1147 1.956 . S
O1207 C1182 1.325 . S
H1208 C1150 0.929 . S
H1209 C1151 0.930 . S
H1210 C1152 0.930 . S
H1211 C1153 0.930 . S
H1212 C1155 0.930 . S
H1213 C1157 0.929 . S
H1214 C1158 0.930 . S
H1215 C1159 0.930 . S
H1216 C1162 0.930 . S
H1217 C1165 0.929 . S
H1218 C1170 0.929 . S
H1219 C1171 0.930 . S
H1220 C1178 0.929 . S
H1221 C1179 0.930 . S
H1222 C1180 0.930 . S
H1223 C1181 0.930 . S
H1224 C1183 0.929 . S
H1225 C1184 0.930 . S
H1226 C1185 0.930 . S
H1227 C1186 0.930 . S
H1228 C1190 0.929 . S
H1229 C1192 0.930 . S
H1230 C1198 0.929 . S
H1231 C1199 0.930 . S
Li1232 N1249 1.990 . S
Li1232 O1292 1.956 . S
Li1232 O1293 1.970 . S
Li1232 O1294 1.961 . S
Li1233 N1257 1.990 . S
Li1233 O1292 1.970 . S
Li1233 O1293 1.956 . S
Li1233 O1295 1.961 . S
Li1234 N1279 1.990 . S
Li1234 O1292 1.961 . S
Li1234 O1294 1.956 . S
Li1234 O1295 1.970 . S
Li1235 N1285 1.990 . S
Li1235 O1293 1.961 . S
Li1235 O1294 1.970 . S
Li1235 O1295 1.956 . S
C1236 C1238 1.348 . S
C1236 C1239 1.356 . S
C1236 O1292 1.325 . S
N1237 C1240 1.314 . S
N1237 C1241 1.279 . S
C1238 C1236 1.348 . S
C1238 C1240 1.353 . S
C1238 H1296 0.929 . S
C1239 C1236 1.356 . S
C1239 C1241 1.358 . S
C1239 H1297 0.930 . S
C1240 N1237 1.314 . S
C1240 C1238 1.353 . S
C1240 H1298 0.930 . S
C1241 N1237 1.279 . S
C1241 C1239 1.358 . S
C1241 H1299 0.930 . S
C1242 C1245 1.348 . S
C1242 C1246 1.356 . S
C1242 O1293 1.325 . S
C1243 N1244 1.279 . S
C1243 C1246 1.358 . S
C1243 H1300 0.930 . S
N1244 C1243 1.279 . S
N1244 C1247 1.314 . S
C1245 C1242 1.348 . S
C1245 C1247 1.353 . S
C1245 H1301 0.929 . S
C1246 C1242 1.356 . S
C1246 C1243 1.358 . S
C1246 H1302 0.930 . S
C1247 N1244 1.314 . S
C1247 C1245 1.353 . S
C1247 H1303 0.930 . S
C1248 N1249 1.314 . S
C1248 C1253 1.353 . S
C1248 H1254 0.930 . S
N1249 Li1232 1.990 . S
N1249 C1248 1.314 . S
N1249 C1251 1.279 . S
C1250 C1251 1.358 . S
C1250 C1252 1.356 . S
C1250 H1304 0.930 . S
C1251 N1249 1.279 . S
C1251 C1250 1.358 . S
C1251 H1255 0.930 . S
C1252 C1250 1.356 . S
C1252 C1253 1.348 . S
C1253 C1248 1.353 . S
C1253 C1252 1.348 . S
C1253 H1305 0.929 . S
H1254 C1248 0.930 . S
H1255 C1251 0.930 . S
C1256 N1257 1.314 . S
C1256 C1258 1.353 . S
C1256 H1262 0.930 . S
N1257 Li1233 1.990 . S
N1257 C1256 1.314 . S
N1257 C1260 1.279 . S
C1258 C1256 1.353 . S
C1258 C1261 1.348 . S
C1258 H1306 0.929 . S
C1259 C1260 1.358 . S
C1259 C1261 1.356 . S
C1259 H1307 0.930 . S
C1260 N1257 1.279 . S
C1260 C1259 1.358 . S
C1260 H1263 0.930 . S
C1261 C1258 1.348 . S
C1261 C1259 1.356 . S
H1262 C1256 0.930 . S
H1263 C1260 0.930 . S
C1264 C1266 1.348 . S
C1264 C1267 1.356 . S
C1264 O1294 1.325 . S
N1265 C1268 1.314 . S
N1265 C1269 1.279 . S
C1266 C1264 1.348 . S
C1266 C1268 1.353 . S
C1266 H1308 0.929 . S
C1267 C1264 1.356 . S
C1267 C1269 1.358 . S
C1267 H1309 0.930 . S
C1268 N1265 1.314 . S
C1268 C1266 1.353 . S
C1268 H1310 0.930 . S
C1269 N1265 1.279 . S
C1269 C1267 1.358 . S
C1269 H1311 0.930 . S
C1270 C1271 1.348 . S
C1270 C1272 1.356 . S
C1270 O1295 1.325 . S
C1271 C1270 1.348 . S
C1271 C1273 1.353 . S
C1271 H1312 0.929 . S
C1272 C1270 1.356 . S
C1272 C1274 1.358 . S
C1272 H1313 0.930 . S
C1273 C1271 1.353 . S
C1273 N1275 1.314 . S
C1273 H1314 0.930 . S
C1274 C1272 1.358 . S
C1274 N1275 1.279 . S
C1274 H1315 0.930 . S
N1275 C1273 1.314 . S
N1275 C1274 1.279 . S
C1276 C1278 1.353 . S
C1276 N1279 1.314 . S
C1276 H1282 0.930 . S
C1277 N1279 1.279 . S
C1277 C1280 1.358 . S
C1277 H1283 0.930 . S
C1278 C1276 1.353 . S
C1278 C1281 1.348 . S
C1278 H1316 0.929 . S
N1279 Li1234 1.990 . S
N1279 C1276 1.314 . S
N1279 C1277 1.279 . S
C1280 C1277 1.358 . S
C1280 C1281 1.356 . S
C1280 H1317 0.930 . S
C1281 C1278 1.348 . S
C1281 C1280 1.356 . S
H1282 C1276 0.930 . S
H1283 C1277 0.930 . S
C1284 N1285 1.314 . S
C1284 C1286 1.353 . S
C1284 H1290 0.930 . S
N1285 Li1235 1.990 . S
N1285 C1284 1.314 . S
N1285 C1288 1.279 . S
C1286 C1284 1.353 . S
C1286 C1289 1.348 . S
C1286 H1318 0.929 . S
C1287 C1288 1.358 . S
C1287 C1289 1.356 . S
C1287 H1319 0.930 . S
C1288 N1285 1.279 . S
C1288 C1287 1.358 . S
C1288 H1291 0.930 . S
C1289 C1286 1.348 . S
C1289 C1287 1.356 . S
H1290 C1284 0.930 . S
H1291 C1288 0.930 . S
O1292 Li1232 1.956 . S
O1292 Li1233 1.970 . S
O1292 Li1234 1.961 . S
O1292 C1236 1.325 . S
O1293 Li1232 1.970 . S
O1293 Li1233 1.956 . S
O1293 Li1235 1.961 . S
O1293 C1242 1.325 . S
O1294 Li1232 1.961 . S
O1294 Li1234 1.956 . S
O1294 Li1235 1.970 . S
O1294 C1264 1.325 . S
O1295 Li1233 1.961 . S
O1295 Li1234 1.970 . S
O1295 Li1235 1.956 . S
O1295 C1270 1.325 . S
H1296 C1238 0.929 . S
H1297 C1239 0.930 . S
H1298 C1240 0.930 . S
H1299 C1241 0.930 . S
H1300 C1243 0.930 . S
H1301 C1245 0.929 . S
H1302 C1246 0.930 . S
H1303 C1247 0.930 . S
H1304 C1250 0.930 . S
H1305 C1253 0.929 . S
H1306 C1258 0.929 . S
H1307 C1259 0.930 . S
H1308 C1266 0.929 . S
H1309 C1267 0.930 . S
H1310 C1268 0.930 . S
H1311 C1269 0.930 . S
H1312 C1271 0.929 . S
H1313 C1272 0.930 . S
H1314 C1273 0.930 . S
H1315 C1274 0.930 . S
H1316 C1278 0.929 . S
H1317 C1280 0.930 . S
H1318 C1286 0.929 . S
H1319 C1287 0.930 . S
Li1320 N1337 1.990 . S
Li1320 O1380 1.956 . S
Li1320 O1381 1.970 . S
Li1320 O1382 1.961 . S
Li1321 N1345 1.990 . S
Li1321 O1380 1.970 . S
Li1321 O1381 1.956 . S
Li1321 O1383 1.961 . S
Li1322 N1367 1.990 . S
Li1322 O1380 1.961 . S
Li1322 O1382 1.956 . S
Li1322 O1383 1.970 . S
Li1323 N1373 1.990 . S
Li1323 O1381 1.961 . S
Li1323 O1382 1.970 . S
Li1323 O1383 1.956 . S
C1324 C1326 1.348 . S
C1324 C1327 1.356 . S
C1324 O1380 1.325 . S
N1325 C1328 1.314 . S
N1325 C1329 1.279 . S
C1326 C1324 1.348 . S
C1326 C1328 1.353 . S
C1326 H1384 0.929 . S
C1327 C1324 1.356 . S
C1327 C1329 1.358 . S
C1327 H1385 0.930 . S
C1328 N1325 1.314 . S
C1328 C1326 1.353 . S
C1328 H1386 0.930 . S
C1329 N1325 1.279 . S
C1329 C1327 1.358 . S
C1329 H1387 0.930 . S
C1330 C1333 1.348 . S
C1330 C1334 1.356 . S
C1330 O1381 1.325 . S
C1331 N1332 1.279 . S
C1331 C1334 1.358 . S
C1331 H1388 0.930 . S
N1332 C1331 1.279 . S
N1332 C1335 1.314 . S
C1333 C1330 1.348 . S
C1333 C1335 1.353 . S
C1333 H1389 0.929 . S
C1334 C1330 1.356 . S
C1334 C1331 1.358 . S
C1334 H1390 0.930 . S
C1335 N1332 1.314 . S
C1335 C1333 1.353 . S
C1335 H1391 0.930 . S
C1336 N1337 1.314 . S
C1336 C1341 1.353 . S
C1336 H1342 0.930 . S
N1337 Li1320 1.990 . S
N1337 C1336 1.314 . S
N1337 C1339 1.279 . S
C1338 C1339 1.358 . S
C1338 C1340 1.356 . S
C1338 H1392 0.930 . S
C1339 N1337 1.279 . S
C1339 C1338 1.358 . S
C1339 H1343 0.930 . S
C1340 C1338 1.356 . S
C1340 C1341 1.348 . S
C1341 C1336 1.353 . S
C1341 C1340 1.348 . S
C1341 H1393 0.929 . S
H1342 C1336 0.930 . S
H1343 C1339 0.930 . S
C1344 N1345 1.314 . S
C1344 C1346 1.353 . S
C1344 H1350 0.930 . S
N1345 Li1321 1.990 . S
N1345 C1344 1.314 . S
N1345 C1348 1.279 . S
C1346 C1344 1.353 . S
C1346 C1349 1.348 . S
C1346 H1394 0.929 . S
C1347 C1348 1.358 . S
C1347 C1349 1.356 . S
C1347 H1395 0.930 . S
C1348 N1345 1.279 . S
C1348 C1347 1.358 . S
C1348 H1351 0.930 . S
C1349 C1346 1.348 . S
C1349 C1347 1.356 . S
H1350 C1344 0.930 . S
H1351 C1348 0.930 . S
C1352 C1354 1.348 . S
C1352 C1355 1.356 . S
C1352 O1382 1.325 . S
N1353 C1356 1.314 . S
N1353 C1357 1.279 . S
C1354 C1352 1.348 . S
C1354 C1356 1.353 . S
C1354 H1396 0.929 . S
C1355 C1352 1.356 . S
C1355 C1357 1.358 . S
C1355 H1397 0.930 . S
C1356 N1353 1.314 . S
C1356 C1354 1.353 . S
C1356 H1398 0.930 . S
C1357 N1353 1.279 . S
C1357 C1355 1.358 . S
C1357 H1399 0.930 . S
C1358 C1359 1.348 . S
C1358 C1360 1.356 . S
C1358 O1383 1.325 . S
C1359 C1358 1.348 . S
C1359 C1361 1.353 . S
C1359 H1400 0.929 . S
C1360 C1358 1.356 . S
C1360 C1362 1.358 . S
C1360 H1401 0.930 . S
C1361 C1359 1.353 . S
C1361 N1363 1.314 . S
C1361 H1402 0.930 . S
C1362 C1360 1.358 . S
C1362 N1363 1.279 . S
C1362 H1403 0.930 . S
N1363 C1361 1.314 . S
N1363 C1362 1.279 . S
C1364 C1366 1.353 . S
C1364 N1367 1.314 . S
C1364 H1370 0.930 . S
C1365 N1367 1.279 . S
C1365 C1368 1.358 . S
C1365 H1371 0.930 . S
C1366 C1364 1.353 . S
C1366 C1369 1.348 . S
C1366 H1404 0.929 . S
N1367 Li1322 1.990 . S
N1367 C1364 1.314 . S
N1367 C1365 1.279 . S
C1368 C1365 1.358 . S
C1368 C1369 1.356 . S
C1368 H1405 0.930 . S
C1369 C1366 1.348 . S
C1369 C1368 1.356 . S
H1370 C1364 0.930 . S
H1371 C1365 0.930 . S
C1372 N1373 1.314 . S
C1372 C1374 1.353 . S
C1372 H1378 0.930 . S
N1373 Li1323 1.990 . S
N1373 C1372 1.314 . S
N1373 C1376 1.279 . S
C1374 C1372 1.353 . S
C1374 C1377 1.348 . S
C1374 H1406 0.929 . S
C1375 C1376 1.358 . S
C1375 C1377 1.356 . S
C1375 H1407 0.930 . S
C1376 N1373 1.279 . S
C1376 C1375 1.358 . S
C1376 H1379 0.930 . S
C1377 C1374 1.348 . S
C1377 C1375 1.356 . S
H1378 C1372 0.930 . S
H1379 C1376 0.930 . S
O1380 Li1320 1.956 . S
O1380 Li1321 1.970 . S
O1380 Li1322 1.961 . S
O1380 C1324 1.325 . S
O1381 Li1320 1.970 . S
O1381 Li1321 1.956 . S
O1381 Li1323 1.961 . S
O1381 C1330 1.325 . S
O1382 Li1320 1.961 . S
O1382 Li1322 1.956 . S
O1382 Li1323 1.970 . S
O1382 C1352 1.325 . S
O1383 Li1321 1.961 . S
O1383 Li1322 1.970 . S
O1383 Li1323 1.956 . S
O1383 C1358 1.325 . S
H1384 C1326 0.929 . S
H1385 C1327 0.930 . S
H1386 C1328 0.930 . S
H1387 C1329 0.930 . S
H1388 C1331 0.930 . S
H1389 C1333 0.929 . S
H1390 C1334 0.930 . S
H1391 C1335 0.930 . S
H1392 C1338 0.930 . S
H1393 C1341 0.929 . S
H1394 C1346 0.929 . S
H1395 C1347 0.930 . S
H1396 C1354 0.929 . S
H1397 C1355 0.930 . S
H1398 C1356 0.930 . S
H1399 C1357 0.930 . S
H1400 C1359 0.929 . S
H1401 C1360 0.930 . S
H1402 C1361 0.930 . S
H1403 C1362 0.930 . S
H1404 C1366 0.929 . S
H1405 C1368 0.930 . S
H1406 C1374 0.929 . S
H1407 C1375 0.930 . S
H1408 C1414 0.930 . S
H1409 C1418 0.930 . S
H1410 C1423 0.929 . S
H1411 C1421 0.929 . S
H1412 C1416 0.929 . S
H1413 C1422 0.929 . S
C1414 H1408 0.930 . S
C1414 C1415 1.367 . S
C1414 C1422 1.378 . S
C1415 C1414 1.367 . S
C1415 C1423 1.433 . S
C1416 H1412 0.929 . S
C1416 C1418 1.378 . S
C1416 C1420 1.350 . S
C1417 C1420 1.463 . S
C1417 C1422 1.350 . S
C1417 N1425 1.427 . S
C1418 H1409 0.930 . S
C1418 C1416 1.378 . S
C1418 C1419 1.367 . S
C1419 C1418 1.367 . S
C1419 C1421 1.433 . S
C1420 C1416 1.350 . S
C1420 C1417 1.463 . S
C1420 N1424 1.427 . S
C1421 H1411 0.929 . S
C1421 C1419 1.433 . S
C1421 N1424 1.384 . S
C1422 H1413 0.929 . S
C1422 C1414 1.378 . S
C1422 C1417 1.350 . S
C1423 H1410 0.929 . S
C1423 C1415 1.433 . S
C1423 N1425 1.384 . S
N1424 C1420 1.427 . S
N1424 C1421 1.384 . S
N1425 C1417 1.427 . S
N1425 C1423 1.384 . S
H1426 C1432 0.930 . S
H1427 C1436 0.930 . S
H1428 C1441 0.929 . S
H1429 C1439 0.929 . S
H1430 C1434 0.929 . S
H1431 C1440 0.929 . S
C1432 H1426 0.930 . S
C1432 C1433 1.367 . S
C1432 C1440 1.378 . S
C1433 C1432 1.367 . S
C1433 C1441 1.433 . S
C1434 H1430 0.929 . S
C1434 C1436 1.378 . S
C1434 C1438 1.350 . S
C1435 C1438 1.463 . S
C1435 C1440 1.350 . S
C1435 N1443 1.427 . S
C1436 H1427 0.930 . S
C1436 C1434 1.378 . S
C1436 C1437 1.367 . S
C1437 C1436 1.367 . S
C1437 C1439 1.433 . S
C1438 C1434 1.350 . S
C1438 C1435 1.463 . S
C1438 N1442 1.427 . S
C1439 H1429 0.929 . S
C1439 C1437 1.433 . S
C1439 N1442 1.384 . S
C1440 H1431 0.929 . S
C1440 C1432 1.378 . S
C1440 C1435 1.350 . S
C1441 H1428 0.929 . S
C1441 C1433 1.433 . S
C1441 N1443 1.384 . S
N1442 C1438 1.427 . S
N1442 C1439 1.384 . S
N1443 C1435 1.427 . S
N1443 C1441 1.384 . S
H1444 C1450 0.930 . S
H1445 C1454 0.930 . S
H1446 C1459 0.929 . S
H1447 C1457 0.929 . S
H1448 C1452 0.929 . S
H1449 C1458 0.929 . S
C1450 H1444 0.930 . S
C1450 C1451 1.367 . S
C1450 C1458 1.378 . S
C1451 C1450 1.367 . S
C1451 C1459 1.433 . S
C1452 H1448 0.929 . S
C1452 C1454 1.378 . S
C1452 C1456 1.350 . S
C1453 C1456 1.463 . S
C1453 C1458 1.350 . S
C1453 N1461 1.427 . S
C1454 H1445 0.930 . S
C1454 C1452 1.378 . S
C1454 C1455 1.367 . S
C1455 C1454 1.367 . S
C1455 C1457 1.433 . S
C1456 C1452 1.350 . S
C1456 C1453 1.463 . S
C1456 N1460 1.427 . S
C1457 H1447 0.929 . S
C1457 C1455 1.433 . S
C1457 N1460 1.384 . S
C1458 H1449 0.929 . S
C1458 C1450 1.378 . S
C1458 C1453 1.350 . S
C1459 H1446 0.929 . S
C1459 C1451 1.433 . S
C1459 N1461 1.384 . S
N1460 C1456 1.427 . S
N1460 C1457 1.384 . S
N1461 C1453 1.427 . S
N1461 C1459 1.384 . S
H1462 C1468 0.930 . S
H1463 C1472 0.930 . S
H1464 C1477 0.929 . S
H1465 C1475 0.929 . S
H1466 C1470 0.929 . S
H1467 C1476 0.929 . S
C1468 H1462 0.930 . S
C1468 C1469 1.367 . S
C1468 C1476 1.378 . S
C1469 C1468 1.367 . S
C1469 C1477 1.433 . S
C1470 H1466 0.929 . S
C1470 C1472 1.378 . S
C1470 C1474 1.350 . S
C1471 C1474 1.463 . S
C1471 C1476 1.350 . S
C1471 N1479 1.427 . S
C1472 H1463 0.930 . S
C1472 C1470 1.378 . S
C1472 C1473 1.367 . S
C1473 C1472 1.367 . S
C1473 C1475 1.433 . S
C1474 C1470 1.350 . S
C1474 C1471 1.463 . S
C1474 N1478 1.427 . S
C1475 H1465 0.929 . S
C1475 C1473 1.433 . S
C1475 N1478 1.384 . S
C1476 H1467 0.929 . S
C1476 C1468 1.378 . S
C1476 C1471 1.350 . S
C1477 H1464 0.929 . S
C1477 C1469 1.433 . S
C1477 N1479 1.384 . S
N1478 C1474 1.427 . S
N1478 C1475 1.384 . S
N1479 C1471 1.427 . S
N1479 C1477 1.384 . S
H1480 C1486 0.930 . S
H1481 C1490 0.930 . S
H1482 C1495 0.929 . S
H1483 C1493 0.929 . S
H1484 C1488 0.929 . S
H1485 C1494 0.929 . S
C1486 H1480 0.930 . S
C1486 C1487 1.367 . S
C1486 C1494 1.378 . S
C1487 C1486 1.367 . S
C1487 C1495 1.433 . S
C1488 H1484 0.929 . S
C1488 C1490 1.378 . S
C1488 C1492 1.350 . S
C1489 C1492 1.463 . S
C1489 C1494 1.350 . S
C1489 N1497 1.427 . S
C1490 H1481 0.930 . S
C1490 C1488 1.378 . S
C1490 C1491 1.367 . S
C1491 C1490 1.367 . S
C1491 C1493 1.433 . S
C1492 C1488 1.350 . S
C1492 C1489 1.463 . S
C1492 N1496 1.427 . S
C1493 H1483 0.929 . S
C1493 C1491 1.433 . S
C1493 N1496 1.384 . S
C1494 H1485 0.929 . S
C1494 C1486 1.378 . S
C1494 C1489 1.350 . S
C1495 H1482 0.929 . S
C1495 C1487 1.433 . S
C1495 N1497 1.384 . S
N1496 C1492 1.427 . S
N1496 C1493 1.384 . S
N1497 C1489 1.427 . S
N1497 C1495 1.384 . S
H1498 C1504 0.930 . S
H1499 C1508 0.930 . S
H1500 C1513 0.929 . S
H1501 C1511 0.929 . S
H1502 C1506 0.929 . S
H1503 C1512 0.929 . S
C1504 H1498 0.930 . S
C1504 C1505 1.367 . S
C1504 C1512 1.378 . S
C1505 C1504 1.367 . S
C1505 C1513 1.433 . S
C1506 H1502 0.929 . S
C1506 C1508 1.378 . S
C1506 C1510 1.350 . S
C1507 C1510 1.463 . S
C1507 C1512 1.350 . S
C1507 N1515 1.427 . S
C1508 H1499 0.930 . S
C1508 C1506 1.378 . S
C1508 C1509 1.367 . S
C1509 C1508 1.367 . S
C1509 C1511 1.433 . S
C1510 C1506 1.350 . S
C1510 C1507 1.463 . S
C1510 N1514 1.427 . S
C1511 H1501 0.929 . S
C1511 C1509 1.433 . S
C1511 N1514 1.384 . S
C1512 H1503 0.929 . S
C1512 C1504 1.378 . S
C1512 C1507 1.350 . S
C1513 H1500 0.929 . S
C1513 C1505 1.433 . S
C1513 N1515 1.384 . S
N1514 C1510 1.427 . S
N1514 C1511 1.384 . S
N1515 C1507 1.427 . S
N1515 C1513 1.384 . S
H1516 C1522 0.930 . S
H1517 C1526 0.930 . S
H1518 C1531 0.929 . S
H1519 C1529 0.929 . S
H1520 C1524 0.929 . S
H1521 C1530 0.929 . S
C1522 H1516 0.930 . S
C1522 C1523 1.367 . S
C1522 C1530 1.378 . S
C1523 C1522 1.367 . S
C1523 C1531 1.433 . S
C1524 H1520 0.929 . S
C1524 C1526 1.378 . S
C1524 C1528 1.350 . S
C1525 C1528 1.463 . S
C1525 C1530 1.350 . S
C1525 N1533 1.427 . S
C1526 H1517 0.930 . S
C1526 C1524 1.378 . S
C1526 C1527 1.367 . S
C1527 C1526 1.367 . S
C1527 C1529 1.433 . S
C1528 C1524 1.350 . S
C1528 C1525 1.463 . S
C1528 N1532 1.427 . S
C1529 H1519 0.929 . S
C1529 C1527 1.433 . S
C1529 N1532 1.384 . S
C1530 H1521 0.929 . S
C1530 C1522 1.378 . S
C1530 C1525 1.350 . S
C1531 H1518 0.929 . S
C1531 C1523 1.433 . S
C1531 N1533 1.384 . S
N1532 C1528 1.427 . S
N1532 C1529 1.384 . S
N1533 C1525 1.427 . S
N1533 C1531 1.384 . S
H1534 C1540 0.930 . S
H1535 C1544 0.930 . S
H1536 C1549 0.929 . S
H1537 C1547 0.929 . S
H1538 C1542 0.929 . S
H1539 C1548 0.929 . S
C1540 H1534 0.930 . S
C1540 C1541 1.367 . S
C1540 C1548 1.378 . S
C1541 C1540 1.367 . S
C1541 C1549 1.433 . S
C1542 H1538 0.929 . S
C1542 C1544 1.378 . S
C1542 C1546 1.350 . S
C1543 C1546 1.463 . S
C1543 C1548 1.350 . S
C1543 N1551 1.427 . S
C1544 H1535 0.930 . S
C1544 C1542 1.378 . S
C1544 C1545 1.367 . S
C1545 C1544 1.367 . S
C1545 C1547 1.433 . S
C1546 C1542 1.350 . S
C1546 C1543 1.463 . S
C1546 N1550 1.427 . S
C1547 H1537 0.929 . S
C1547 C1545 1.433 . S
C1547 N1550 1.384 . S
C1548 H1539 0.929 . S
C1548 C1540 1.378 . S
C1548 C1543 1.350 . S
C1549 H1536 0.929 . S
C1549 C1541 1.433 . S
C1549 N1551 1.384 . S
N1550 C1546 1.427 . S
N1550 C1547 1.384 . S
N1551 C1543 1.427 . S
N1551 C1549 1.384 . S
H1552 C1558 0.930 . S
H1553 C1562 0.930 . S
H1554 C1567 0.929 . S
H1555 C1565 0.929 . S
H1556 C1560 0.929 . S
H1557 C1566 0.929 . S
C1558 H1552 0.930 . S
C1558 C1559 1.367 . S
C1558 C1566 1.378 . S
C1559 C1558 1.367 . S
C1559 C1567 1.433 . S
C1560 H1556 0.929 . S
C1560 C1562 1.378 . S
C1560 C1564 1.350 . S
C1561 C1564 1.463 . S
C1561 C1566 1.350 . S
C1561 N1569 1.427 . S
C1562 H1553 0.930 . S
C1562 C1560 1.378 . S
C1562 C1563 1.367 . S
C1563 C1562 1.367 . S
C1563 C1565 1.433 . S
C1564 C1560 1.350 . S
C1564 C1561 1.463 . S
C1564 N1568 1.427 . S
C1565 H1555 0.929 . S
C1565 C1563 1.433 . S
C1565 N1568 1.384 . S
C1566 H1557 0.929 . S
C1566 C1558 1.378 . S
C1566 C1561 1.350 . S
C1567 H1554 0.929 . S
C1567 C1559 1.433 . S
C1567 N1569 1.384 . S
N1568 C1564 1.427 . S
N1568 C1565 1.384 . S
N1569 C1561 1.427 . S
N1569 C1567 1.384 . S
H1570 C1576 0.930 . S
H1571 C1580 0.930 . S
H1572 C1585 0.929 . S
H1573 C1583 0.929 . S
H1574 C1578 0.929 . S
H1575 C1584 0.929 . S
C1576 H1570 0.930 . S
C1576 C1577 1.390 . S
C1576 C1584 1.378 . S
C1577 C1576 1.390 . S
C1577 C1585 1.410 1_445 S
C1578 H1574 0.929 . S
C1578 C1580 1.378 . S
C1578 C1582 1.362 . S
C1579 C1582 1.461 1_445 S
C1579 C1584 1.378 . S
C1579 N1587 1.400 1_445 S
C1580 H1571 0.930 . S
C1580 C1578 1.378 . S
C1580 C1581 1.374 . S
C1581 C1580 1.374 . S
C1581 C1583 1.426 1_665 S
C1582 C1578 1.362 . S
C1582 C1579 1.461 1_665 S
C1582 N1586 1.416 1_665 S
C1583 H1573 0.929 . S
C1583 C1581 1.426 1_445 S
C1583 N1586 1.384 . S
C1584 H1575 0.929 . S
C1584 C1576 1.378 . S
C1584 C1579 1.378 . S
C1585 H1572 0.929 . S
C1585 C1577 1.410 1_665 S
C1585 N1587 1.384 . S
N1586 C1582 1.416 1_445 S
N1586 C1583 1.384 . S
N1587 C1579 1.400 1_665 S
N1587 C1585 1.384 . S
H1588 C1594 0.930 . S
H1589 C1598 0.930 . S
H1590 C1603 0.929 . S
H1591 C1601 0.929 . S
H1592 C1596 0.929 . S
H1593 C1602 0.929 . S
C1594 H1588 0.930 . S
C1594 C1595 1.367 . S
C1594 C1602 1.378 . S
C1595 C1594 1.367 . S
C1595 C1603 1.433 . S
C1596 H1592 0.929 . S
C1596 C1598 1.378 . S
C1596 C1600 1.350 . S
C1597 C1600 1.463 1_556 S
C1597 C1602 1.350 . S
C1597 N1605 1.427 . S
C1598 H1589 0.930 . S
C1598 C1596 1.378 . S
C1598 C1599 1.367 . S
C1599 C1598 1.367 . S
C1599 C1601 1.433 . S
C1600 C1596 1.350 . S
C1600 C1597 1.463 1_554 S
C1600 N1604 1.427 . S
C1601 H1591 0.929 . S
C1601 C1599 1.433 . S
C1601 N1604 1.384 . S
C1602 H1593 0.929 . S
C1602 C1594 1.378 . S
C1602 C1597 1.350 . S
C1603 H1590 0.929 . S
C1603 C1595 1.433 . S
C1603 N1605 1.384 . S
N1604 C1600 1.427 . S
N1604 C1601 1.384 . S
N1605 C1597 1.427 . S
N1605 C1603 1.384 . S
H1606 C1612 0.930 . S
H1607 C1616 0.930 . S
H1608 C1621 0.929 . S
H1609 C1619 0.929 . S
H1610 C1614 0.929 . S
H1611 C1620 0.929 . S
C1612 H1606 0.930 . S
C1612 C1613 1.367 1_545 S
C1612 C1620 1.378 . S
C1613 C1612 1.367 1_565 S
C1613 C1621 1.433 . S
C1614 H1610 0.929 . S
C1614 C1616 1.378 . S
C1614 C1618 1.350 1_565 S
C1615 C1618 1.463 1_565 S
C1615 C1620 1.350 1_565 S
C1615 N1623 1.427 . S
C1616 H1607 0.930 . S
C1616 C1614 1.378 . S
C1616 C1617 1.367 1_565 S
C1617 C1616 1.367 1_545 S
C1617 C1619 1.433 . S
C1618 C1614 1.350 1_545 S
C1618 C1615 1.463 1_545 S
C1618 N1622 1.427 . S
C1619 H1609 0.929 . S
C1619 C1617 1.433 . S
C1619 N1622 1.384 . S
C1620 H1611 0.929 . S
C1620 C1612 1.378 . S
C1620 C1615 1.350 1_545 S
C1621 H1608 0.929 . S
C1621 C1613 1.433 . S
C1621 N1623 1.384 . S
N1622 C1618 1.427 . S
N1622 C1619 1.384 . S
N1623 C1615 1.427 . S
N1623 C1621 1.384 . S
H1624 C1630 0.930 . S
H1625 C1634 0.930 . S
H1626 C1639 0.929 . S
H1627 C1637 0.929 . S
H1628 C1632 0.929 . S
H1629 C1638 0.929 . S
C1630 H1624 0.930 . S
C1630 C1631 1.367 . S
C1630 C1638 1.378 . S
C1631 C1630 1.367 . S
C1631 C1639 1.433 . S
C1632 H1628 0.929 . S
C1632 C1634 1.378 . S
C1632 C1636 1.350 . S
C1633 C1636 1.463 . S
C1633 C1638 1.350 . S
C1633 N1641 1.427 . S
C1634 H1625 0.930 . S
C1634 C1632 1.378 . S
C1634 C1635 1.367 . S
C1635 C1634 1.367 . S
C1635 C1637 1.433 . S
C1636 C1632 1.350 . S
C1636 C1633 1.463 . S
C1636 N1640 1.427 . S
C1637 H1627 0.929 . S
C1637 C1635 1.433 . S
C1637 N1640 1.384 . S
C1638 H1629 0.929 . S
C1638 C1630 1.378 . S
C1638 C1633 1.350 . S
C1639 H1626 0.929 . S
C1639 C1631 1.433 . S
C1639 N1641 1.384 . S
N1640 C1636 1.427 . S
N1640 C1637 1.384 . S
N1641 C1633 1.427 . S
N1641 C1639 1.384 . S
H1642 C1648 0.924 1_455 S
H1643 C1652 0.928 1_655 S
H1644 C1657 0.929 . S
H1645 C1655 0.929 . S
H1646 C1650 0.929 . S
H1647 C1656 0.929 . S
C1648 H1642 0.924 1_655 S
C1648 C1649 1.367 . S
C1648 C1656 1.378 1_655 S
C1649 C1648 1.367 . S
C1649 C1657 1.433 . S
C1650 H1646 0.929 . S
C1650 C1652 1.378 1_655 S
C1650 C1654 1.350 1_655 S
C1651 C1654 1.463 1_655 S
C1651 C1656 1.350 1_655 S
C1651 N1659 1.427 . S
C1652 H1643 0.928 1_455 S
C1652 C1650 1.378 1_455 S
C1652 C1653 1.367 . S
C1653 C1652 1.367 . S
C1653 C1655 1.433 . S
C1654 C1650 1.350 1_455 S
C1654 C1651 1.463 1_455 S
C1654 N1658 1.427 . S
C1655 H1645 0.929 . S
C1655 C1653 1.433 . S
C1655 N1658 1.384 . S
C1656 H1647 0.929 . S
C1656 C1648 1.378 1_455 S
C1656 C1651 1.350 1_455 S
C1657 H1644 0.929 . S
C1657 C1649 1.433 . S
C1657 N1659 1.384 . S
N1658 C1654 1.427 . S
N1658 C1655 1.384 . S
N1659 C1651 1.427 . S
N1659 C1657 1.384 . S
H1660 C1666 0.930 . S
H1661 C1670 0.930 . S
H1662 C1675 0.929 . S
H1663 C1673 0.929 . S
H1664 C1668 0.929 . S
H1665 C1674 0.929 . S
C1666 H1660 0.930 . S
C1666 C1667 1.367 . S
C1666 C1674 1.378 . S
C1667 C1666 1.367 . S
C1667 C1675 1.433 . S
C1668 H1664 0.929 . S
C1668 C1670 1.378 . S
C1668 C1672 1.350 . S
C1669 C1672 1.463 1_655 S
C1669 C1674 1.350 . S
C1669 N1677 1.427 . S
C1670 H1661 0.930 . S
C1670 C1668 1.378 . S
C1670 C1671 1.367 . S
C1671 C1670 1.367 . S
C1671 C1673 1.433 . S
C1672 C1668 1.350 . S
C1672 C1669 1.463 1_455 S
C1672 N1676 1.427 . S
C1673 H1663 0.929 . S
C1673 C1671 1.433 . S
C1673 N1676 1.384 . S
C1674 H1665 0.929 . S
C1674 C1666 1.378 . S
C1674 C1669 1.350 . S
C1675 H1662 0.929 . S
C1675 C1667 1.433 . S
C1675 N1677 1.384 . S
N1676 C1672 1.427 . S
N1676 C1673 1.384 . S
N1677 C1669 1.427 . S
N1677 C1675 1.384 . S
H1678 C1684 0.930 . S
H1679 C1688 0.930 . S
H1680 C1693 0.929 . S
H1681 C1691 0.929 . S
H1682 C1686 0.929 . S
H1683 C1692 0.929 . S
C1684 H1678 0.930 . S
C1684 C1685 1.367 . S
C1684 C1692 1.378 . S
C1685 C1684 1.367 . S
C1685 C1693 1.433 1_556 S
C1686 H1682 0.929 . S
C1686 C1688 1.378 . S
C1686 C1690 1.350 1_554 S
C1687 C1690 1.463 . S
C1687 C1692 1.350 . S
C1687 N1695 1.427 1_556 S
C1688 H1679 0.930 . S
C1688 C1686 1.378 . S
C1688 C1689 1.367 1_554 S
C1689 C1688 1.367 1_556 S
C1689 C1691 1.433 . S
C1690 C1686 1.350 1_556 S
C1690 C1687 1.463 . S
C1690 N1694 1.427 . S
C1691 H1681 0.929 . S
C1691 C1689 1.433 . S
C1691 N1694 1.384 . S
C1692 H1683 0.929 . S
C1692 C1684 1.378 . S
C1692 C1687 1.350 . S
C1693 H1680 0.929 . S
C1693 C1685 1.433 1_554 S
C1693 N1695 1.384 . S
N1694 C1690 1.427 . S
N1694 C1691 1.384 . S
N1695 C1687 1.427 1_554 S
N1695 C1693 1.384 . S
H1696 C1702 0.930 . S
H1697 C1706 0.930 . S
H1698 C1711 0.929 . S
H1699 C1709 0.929 . S
H1700 C1704 0.929 . S
H1701 C1710 0.929 . S
C1702 H1696 0.930 . S
C1702 C1703 1.367 . S
C1702 C1710 1.378 . S
C1703 C1702 1.367 . S
C1703 C1711 1.433 . S
C1704 H1700 0.929 . S
C1704 C1706 1.378 . S
C1704 C1708 1.350 . S
C1705 C1708 1.463 . S
C1705 C1710 1.350 . S
C1705 N1713 1.427 . S
C1706 H1697 0.930 . S
C1706 C1704 1.378 . S
C1706 C1707 1.367 . S
C1707 C1706 1.367 . S
C1707 C1709 1.433 . S
C1708 C1704 1.350 . S
C1708 C1705 1.463 . S
C1708 N1712 1.427 . S
C1709 H1699 0.929 . S
C1709 C1707 1.433 . S
C1709 N1712 1.384 . S
C1710 H1701 0.929 . S
C1710 C1702 1.378 . S
C1710 C1705 1.350 . S
C1711 H1698 0.929 . S
C1711 C1703 1.433 . S
C1711 N1713 1.384 . S
N1712 C1708 1.427 . S
N1712 C1709 1.384 . S
N1713 C1705 1.427 . S
N1713 C1711 1.384 . S
H1714 C1720 0.930 . S
H1715 C1724 0.930 . S
H1716 C1729 0.929 . S
H1717 C1727 0.929 . S
H1718 C1722 0.929 . S
H1719 C1728 0.929 . S
C1720 H1714 0.930 . S
C1720 C1721 1.367 . S
C1720 C1728 1.378 . S
C1721 C1720 1.367 . S
C1721 C1729 1.433 . S
C1722 H1718 0.929 . S
C1722 C1724 1.378 . S
C1722 C1726 1.350 . S
C1723 C1726 1.463 . S
C1723 C1728 1.350 . S
C1723 N1731 1.427 . S
C1724 H1715 0.930 . S
C1724 C1722 1.378 . S
C1724 C1725 1.367 . S
C1725 C1724 1.367 . S
C1725 C1727 1.433 . S
C1726 C1722 1.350 . S
C1726 C1723 1.463 . S
C1726 N1730 1.427 . S
C1727 H1717 0.929 . S
C1727 C1725 1.433 . S
C1727 N1730 1.384 . S
C1728 H1719 0.929 . S
C1728 C1720 1.378 . S
C1728 C1723 1.350 . S
C1729 H1716 0.929 . S
C1729 C1721 1.433 . S
C1729 N1731 1.384 . S
N1730 C1726 1.427 . S
N1730 C1727 1.384 . S
N1731 C1723 1.427 . S
N1731 C1729 1.384 . S
H1732 C1738 0.930 . S
H1733 C1742 0.930 . S
H1734 C1747 0.929 . S
H1735 C1745 0.929 . S
H1736 C1740 0.929 . S
H1737 C1746 0.929 . S
C1738 H1732 0.930 . S
C1738 C1739 1.367 . S
C1738 C1746 1.378 . S
C1739 C1738 1.367 . S
C1739 C1747 1.433 . S
C1740 H1736 0.929 . S
C1740 C1742 1.378 . S
C1740 C1744 1.350 . S
C1741 C1744 1.463 1_455 S
C1741 C1746 1.350 . S
C1741 N1749 1.427 . S
C1742 H1733 0.930 . S
C1742 C1740 1.378 . S
C1742 C1743 1.367 . S
C1743 C1742 1.367 . S
C1743 C1745 1.433 . S
C1744 C1740 1.350 . S
C1744 C1741 1.463 1_655 S
C1744 N1748 1.427 . S
C1745 H1735 0.929 . S
C1745 C1743 1.433 . S
C1745 N1748 1.384 . S
C1746 H1737 0.929 . S
C1746 C1738 1.378 . S
C1746 C1741 1.350 . S
C1747 H1734 0.929 . S
C1747 C1739 1.433 . S
C1747 N1749 1.384 . S
N1748 C1744 1.427 . S
N1748 C1745 1.384 . S
N1749 C1741 1.427 . S
N1749 C1747 1.384 . S
H1750 C1756 0.930 . S
H1751 C1760 0.930 . S
H1752 C1765 0.929 . S
H1753 C1763 0.929 . S
H1754 C1758 0.929 . S
H1755 C1764 0.929 . S
C1756 H1750 0.930 . S
C1756 C1757 1.354 1_556 S
C1756 C1764 1.378 . S
C1757 C1756 1.354 1_554 S
C1757 C1765 1.447 1_455 S
C1758 H1754 0.929 . S
C1758 C1760 1.378 . S
C1758 C1762 1.350 . S
C1759 C1762 1.463 1_455 S
C1759 C1764 1.341 1_554 S
C1759 N1767 1.436 1_455 S
C1760 H1751 0.930 . S
C1760 C1758 1.378 . S
C1760 C1761 1.367 . S
C1761 C1760 1.367 . S
C1761 C1763 1.433 1_654 S
C1762 C1758 1.350 . S
C1762 C1759 1.463 1_655 S
C1762 N1766 1.427 1_654 S
C1763 H1753 0.929 . S
C1763 C1761 1.433 1_456 S
C1763 N1766 1.384 . S
C1764 H1755 0.929 . S
C1764 C1756 1.378 . S
C1764 C1759 1.341 1_556 S
C1765 H1752 0.929 . S
C1765 C1757 1.447 1_655 S
C1765 N1767 1.384 . S
N1766 C1762 1.427 1_456 S
N1766 C1763 1.384 . S
N1767 C1759 1.436 1_655 S
N1767 C1765 1.384 . S
H1768 C1774 0.930 . S
H1769 C1778 0.930 . S
H1770 C1783 0.929 . S
H1771 C1781 0.929 . S
H1772 C1776 0.929 . S
H1773 C1782 0.929 . S
C1774 H1768 0.930 . S
C1774 C1775 1.367 . S
C1774 C1782 1.378 . S
C1775 C1774 1.367 . S
C1775 C1783 1.433 . S
C1776 H1772 0.929 . S
C1776 C1778 1.378 . S
C1776 C1780 1.350 . S
C1777 C1780 1.463 . S
C1777 C1782 1.350 . S
C1777 N1785 1.427 . S
C1778 H1769 0.930 . S
C1778 C1776 1.378 . S
C1778 C1779 1.367 . S
C1779 C1778 1.367 . S
C1779 C1781 1.433 . S
C1780 C1776 1.350 . S
C1780 C1777 1.463 . S
C1780 N1784 1.427 . S
C1781 H1771 0.929 . S
C1781 C1779 1.433 . S
C1781 N1784 1.384 . S
C1782 H1773 0.929 . S
C1782 C1774 1.378 . S
C1782 C1777 1.350 . S
C1783 H1770 0.929 . S
C1783 C1775 1.433 . S
C1783 N1785 1.384 . S
N1784 C1780 1.427 . S
N1784 C1781 1.384 . S
N1785 C1777 1.427 . S
N1785 C1783 1.384 . S
H1786 C1792 0.930 . S
H1787 C1796 0.930 . S
H1788 C1801 0.929 . S
H1789 C1799 0.929 . S
H1790 C1794 0.929 . S
H1791 C1800 0.929 . S
C1792 H1786 0.930 . S
C1792 C1793 1.367 . S
C1792 C1800 1.378 . S
C1793 C1792 1.367 . S
C1793 C1801 1.433 . S
C1794 H1790 0.929 . S
C1794 C1796 1.378 . S
C1794 C1798 1.350 . S
C1795 C1798 1.463 1_545 S
C1795 C1800 1.350 . S
C1795 N1803 1.427 . S
C1796 H1787 0.930 . S
C1796 C1794 1.378 . S
C1796 C1797 1.367 . S
C1797 C1796 1.367 . S
C1797 C1799 1.433 . S
C1798 C1794 1.350 . S
C1798 C1795 1.463 1_565 S
C1798 N1802 1.427 . S
C1799 H1789 0.929 . S
C1799 C1797 1.433 . S
C1799 N1802 1.384 . S
C1800 H1791 0.929 . S
C1800 C1792 1.378 . S
C1800 C1795 1.350 . S
C1801 H1788 0.929 . S
C1801 C1793 1.433 . S
C1801 N1803 1.384 . S
N1802 C1798 1.427 . S
N1802 C1799 1.384 . S
N1803 C1795 1.427 . S
N1803 C1801 1.384 . S
H1804 C1810 0.930 . S
H1805 C1814 0.930 . S
H1806 C1819 0.929 . S
H1807 C1817 0.929 . S
H1808 C1812 0.929 . S
H1809 C1818 0.929 . S
C1810 H1804 0.930 . S
C1810 C1811 1.367 . S
C1810 C1818 1.378 . S
C1811 C1810 1.367 . S
C1811 C1819 1.433 . S
C1812 H1808 0.929 . S
C1812 C1814 1.378 . S
C1812 C1816 1.350 . S
C1813 C1816 1.463 1_556 S
C1813 C1818 1.350 . S
C1813 N1821 1.427 . S
C1814 H1805 0.930 . S
C1814 C1812 1.378 . S
C1814 C1815 1.367 . S
C1815 C1814 1.367 . S
C1815 C1817 1.433 . S
C1816 C1812 1.350 . S
C1816 C1813 1.463 1_554 S
C1816 N1820 1.427 . S
C1817 H1807 0.929 . S
C1817 C1815 1.433 . S
C1817 N1820 1.384 . S
C1818 H1809 0.929 . S
C1818 C1810 1.378 . S
C1818 C1813 1.350 . S
C1819 H1806 0.929 . S
C1819 C1811 1.433 . S
C1819 N1821 1.384 . S
N1820 C1816 1.427 . S
N1820 C1817 1.384 . S
N1821 C1813 1.427 . S
N1821 C1819 1.384 . S
H1822 C1828 0.930 . S
H1823 C1832 0.930 . S
H1824 C1837 0.929 . S
H1825 C1835 0.929 . S
H1826 C1830 0.929 . S
H1827 C1836 0.929 . S
C1828 H1822 0.930 . S
C1828 C1829 1.367 . S
C1828 C1836 1.378 . S
C1829 C1828 1.367 . S
C1829 C1837 1.433 . S
C1830 H1826 0.929 . S
C1830 C1832 1.378 . S
C1830 C1834 1.350 . S
C1831 C1834 1.463 1_545 S
C1831 C1836 1.350 . S
C1831 N1839 1.427 . S
C1832 H1823 0.930 . S
C1832 C1830 1.378 . S
C1832 C1833 1.367 . S
C1833 C1832 1.367 . S
C1833 C1835 1.433 . S
C1834 C1830 1.350 . S
C1834 C1831 1.463 1_565 S
C1834 N1838 1.427 . S
C1835 H1825 0.929 . S
C1835 C1833 1.433 . S
C1835 N1838 1.384 . S
C1836 H1827 0.929 . S
C1836 C1828 1.378 . S
C1836 C1831 1.350 . S
C1837 H1824 0.929 . S
C1837 C1829 1.433 . S
C1837 N1839 1.384 . S
N1838 C1834 1.427 . S
N1838 C1835 1.384 . S
N1839 C1831 1.427 . S
N1839 C1837 1.384 . S
H1840 C1846 0.930 . S
H1841 C1850 0.930 . S
H1842 C1855 0.929 . S
H1843 C1853 0.929 . S
H1844 C1848 0.929 . S
H1845 C1854 0.929 . S
C1846 H1840 0.930 . S
C1846 C1847 1.367 1_546 S
C1846 C1854 1.378 . S
C1847 C1846 1.367 1_564 S
C1847 C1855 1.433 . S
C1848 H1844 0.929 . S
C1848 C1850 1.378 . S
C1848 C1852 1.350 1_554 S
C1849 C1852 1.458 1_554 S
C1849 C1854 1.321 1_564 S
C1849 N1857 1.465 . S
C1850 H1841 0.930 . S
C1850 C1848 1.378 . S
C1850 C1851 1.367 1_554 S
C1851 C1850 1.367 1_556 S
C1851 C1853 1.433 1_565 S
C1852 C1848 1.350 1_556 S
C1852 C1849 1.458 1_556 S
C1852 N1856 1.427 1_565 S
C1853 H1843 0.929 . S
C1853 C1851 1.433 1_545 S
C1853 N1856 1.384 . S
C1854 H1845 0.929 . S
C1854 C1846 1.378 . S
C1854 C1849 1.321 1_546 S
C1855 H1842 0.929 . S
C1855 C1847 1.433 . S
C1855 N1857 1.384 . S
N1856 C1852 1.427 1_545 S
N1856 C1853 1.384 . S
N1857 C1849 1.465 . S
N1857 C1855 1.384 . S
H1858 C1864 0.930 . S
H1859 C1868 0.930 . S
H1860 C1873 0.929 . S
H1861 C1871 0.929 . S
H1862 C1866 0.929 . S
H1863 C1872 0.929 . S
C1864 H1858 0.930 . S
C1864 C1865 1.367 . S
C1864 C1872 1.378 . S
C1865 C1864 1.367 . S
C1865 C1873 1.433 . S
C1866 H1862 0.929 . S
C1866 C1868 1.378 . S
C1866 C1870 1.350 . S
C1867 C1870 1.463 . S
C1867 C1872 1.350 . S
C1867 N1875 1.427 . S
C1868 H1859 0.930 . S
C1868 C1866 1.378 . S
C1868 C1869 1.367 . S
C1869 C1868 1.367 . S
C1869 C1871 1.433 . S
C1870 C1866 1.350 . S
C1870 C1867 1.463 . S
C1870 N1874 1.427 . S
C1871 H1861 0.929 . S
C1871 C1869 1.433 . S
C1871 N1874 1.384 . S
C1872 H1863 0.929 . S
C1872 C1864 1.378 . S
C1872 C1867 1.350 . S
C1873 H1860 0.929 . S
C1873 C1865 1.433 . S
C1873 N1875 1.384 . S
N1874 C1870 1.427 . S
N1874 C1871 1.384 . S
N1875 C1867 1.427 . S
N1875 C1873 1.384 . S
H1876 C1882 0.930 . S
H1877 C1886 0.930 . S
H1878 C1891 0.929 . S
H1879 C1889 0.929 . S
H1880 C1884 0.929 . S
H1881 C1890 0.929 . S
C1882 H1876 0.930 . S
C1882 C1883 1.367 . S
C1882 C1890 1.378 . S
C1883 C1882 1.367 . S
C1883 C1891 1.433 . S
C1884 H1880 0.929 . S
C1884 C1886 1.378 . S
C1884 C1888 1.350 . S
C1885 C1888 1.463 . S
C1885 C1890 1.350 . S
C1885 N1893 1.427 . S
C1886 H1877 0.930 . S
C1886 C1884 1.378 . S
C1886 C1887 1.367 . S
C1887 C1886 1.367 . S
C1887 C1889 1.433 . S
C1888 C1884 1.350 . S
C1888 C1885 1.463 . S
C1888 N1892 1.427 . S
C1889 H1879 0.929 . S
C1889 C1887 1.433 . S
C1889 N1892 1.384 . S
C1890 H1881 0.929 . S
C1890 C1882 1.378 . S
C1890 C1885 1.350 . S
C1891 H1878 0.929 . S
C1891 C1883 1.433 . S
C1891 N1893 1.384 . S
N1892 C1888 1.427 . S
N1892 C1889 1.384 . S
N1893 C1885 1.427 . S
N1893 C1891 1.384 . S
H1894 C1900 0.930 . S
H1895 C1904 0.930 . S
H1896 C1909 0.929 . S
H1897 C1907 0.929 . S
H1898 C1902 0.929 . S
H1899 C1908 0.929 . S
C1900 H1894 0.930 . S
C1900 C1901 1.367 . S
C1900 C1908 1.378 . S
C1901 C1900 1.367 . S
C1901 C1909 1.433 . S
C1902 H1898 0.929 . S
C1902 C1904 1.378 . S
C1902 C1906 1.350 . S
C1903 C1906 1.463 1_556 S
C1903 C1908 1.350 . S
C1903 N1911 1.427 . S
C1904 H1895 0.930 . S
C1904 C1902 1.378 . S
C1904 C1905 1.367 . S
C1905 C1904 1.367 . S
C1905 C1907 1.433 . S
C1906 C1902 1.350 . S
C1906 C1903 1.463 1_554 S
C1906 N1910 1.427 . S
C1907 H1897 0.929 . S
C1907 C1905 1.433 . S
C1907 N1910 1.384 . S
C1908 H1899 0.929 . S
C1908 C1900 1.378 . S
C1908 C1903 1.350 . S
C1909 H1896 0.929 . S
C1909 C1901 1.433 . S
C1909 N1911 1.384 . S
N1910 C1906 1.427 . S
N1910 C1907 1.384 . S
N1911 C1903 1.427 . S
N1911 C1909 1.384 . S
H1912 C1918 0.930 . S
H1913 C1922 0.930 . S
H1914 C1927 0.929 . S
H1915 C1925 0.929 . S
H1916 C1920 0.929 . S
H1917 C1926 0.929 . S
C1918 H1912 0.930 . S
C1918 C1919 1.367 . S
C1918 C1926 1.378 . S
C1919 C1918 1.367 . S
C1919 C1927 1.433 . S
C1920 H1916 0.929 . S
C1920 C1922 1.378 . S
C1920 C1924 1.350 . S
C1921 C1924 1.463 . S
C1921 C1926 1.350 . S
C1921 N1929 1.427 . S
C1922 H1913 0.930 . S
C1922 C1920 1.378 . S
C1922 C1923 1.367 . S
C1923 C1922 1.367 . S
C1923 C1925 1.433 . S
C1924 C1920 1.350 . S
C1924 C1921 1.463 . S
C1924 N1928 1.427 . S
C1925 H1915 0.929 . S
C1925 C1923 1.433 . S
C1925 N1928 1.384 . S
C1926 H1917 0.929 . S
C1926 C1918 1.378 . S
C1926 C1921 1.350 . S
C1927 H1914 0.929 . S
C1927 C1919 1.433 . S
C1927 N1929 1.384 . S
N1928 C1924 1.427 . S
N1928 C1925 1.384 . S
N1929 C1921 1.427 . S
N1929 C1927 1.384 . S
H1930 C1936 0.930 . S
H1931 C1940 0.930 . S
H1932 C1945 0.929 . S
H1933 C1943 0.929 . S
H1934 C1938 0.929 . S
H1935 C1944 0.929 . S
C1936 H1930 0.930 . S
C1936 C1937 1.367 . S
C1936 C1944 1.378 . S
C1937 C1936 1.367 . S
C1937 C1945 1.433 . S
C1938 H1934 0.929 . S
C1938 C1940 1.378 . S
C1938 C1942 1.350 . S
C1939 C1942 1.463 . S
C1939 C1944 1.350 . S
C1939 N1947 1.427 . S
C1940 H1931 0.930 . S
C1940 C1938 1.378 . S
C1940 C1941 1.367 . S
C1941 C1940 1.367 . S
C1941 C1943 1.433 . S
C1942 C1938 1.350 . S
C1942 C1939 1.463 . S
C1942 N1946 1.427 . S
C1943 H1933 0.929 . S
C1943 C1941 1.433 . S
C1943 N1946 1.384 . S
C1944 H1935 0.929 . S
C1944 C1936 1.378 . S
C1944 C1939 1.350 . S
C1945 H1932 0.929 . S
C1945 C1937 1.433 . S
C1945 N1947 1.384 . S
N1946 C1942 1.427 . S
N1946 C1943 1.384 . S
N1947 C1939 1.427 . S
N1947 C1945 1.384 . S
H1948 C1954 0.930 . S
H1949 C1958 0.930 . S
H1950 C1963 0.929 . S
H1951 C1961 0.929 . S
H1952 C1956 0.929 . S
H1953 C1962 0.929 . S
C1954 H1948 0.930 . S
C1954 C1955 1.359 1_455 S
C1954 C1962 1.378 . S
C1955 C1954 1.359 1_655 S
C1955 C1963 1.442 . S
C1956 H1952 0.929 . S
C1956 C1958 1.378 . S
C1956 C1960 1.350 . S
C1957 C1960 1.463 . S
C1957 C1962 1.349 1_655 S
C1957 N1965 1.428 . S
C1958 H1949 0.930 . S
C1958 C1956 1.378 . S
C1958 C1959 1.367 . S
C1959 C1958 1.367 . S
C1959 C1961 1.433 1_655 S
C1960 C1956 1.350 . S
C1960 C1957 1.463 . S
C1960 N1964 1.427 1_655 S
C1961 H1951 0.929 . S
C1961 C1959 1.433 1_455 S
C1961 N1964 1.384 . S
C1962 H1953 0.929 . S
C1962 C1954 1.378 . S
C1962 C1957 1.349 1_455 S
C1963 H1950 0.929 . S
C1963 C1955 1.442 . S
C1963 N1965 1.384 . S
N1964 C1960 1.427 1_455 S
N1964 C1961 1.384 . S
N1965 C1957 1.428 . S
N1965 C1963 1.384 . S
H1966 C1972 0.930 . S
H1967 C1976 0.930 . S
H1968 C1981 0.929 . S
H1969 C1979 0.929 . S
H1970 C1974 0.929 . S
H1971 C1980 0.929 . S
C1972 H1966 0.930 . S
C1972 C1973 1.361 1_545 S
C1972 C1980 1.378 . S
C1973 C1972 1.361 1_565 S
C1973 C1981 1.439 . S
C1974 H1970 0.929 . S
C1974 C1976 1.378 . S
C1974 C1978 1.350 . S
C1975 C1978 1.462 1_545 S
C1975 C1980 1.356 . S
C1975 N1983 1.422 1_545 S
C1976 H1967 0.930 . S
C1976 C1974 1.378 . S
C1976 C1977 1.400 . S
C1977 C1976 1.400 . S
C1977 C1979 1.400 1_565 S
C1978 C1974 1.350 . S
C1978 C1975 1.462 1_565 S
C1978 N1982 1.427 1_565 S
C1979 H1969 0.929 . S
C1979 C1977 1.400 1_545 S
C1979 N1982 1.384 . S
C1980 H1971 0.929 . S
C1980 C1972 1.378 . S
C1980 C1975 1.356 . S
C1981 H1968 0.929 . S
C1981 C1973 1.439 . S
C1981 N1983 1.384 . S
N1982 C1978 1.427 1_545 S
N1982 C1979 1.384 . S
N1983 C1975 1.422 1_565 S
N1983 C1981 1.384 . S
C1415 C57 1.918 . S
C1419 C645 1.918 . S
C1433 C145 1.921 . S
C1437 C372 1.921 . S
C1451 C489 1.917 . S
C1455 C205 1.917 . S
C1469 C321 1.920 . S
C1473 C548 1.919 . S
C1487 C724 1.922 . S
C1491 C1113 1.922 . S
C1505 C849 1.917 . S
C1509 C1252 1.917 . S
C1523 C1025 1.919 . S
C1527 C900 1.919 . S
C1541 C1340 1.918 . S
C1545 C1201 1.918 . S
C1559 C29 1.140 . S
C1563 C585 1.128 . S
C1577 C636 1.155 1_455 S
C1581 C137 1.155 . S
C1595 C233 1.141 . S
C1599 C409 1.138 . S
C1613 C497 1.156 . S
C1617 C284 1.162 . S
C1631 C49 1.151 . S
C1635 C1261 1.147 . S
C1649 C997 1.131 . S
C1653 C108 1.118 . S
C1667 C1193 1.137 . S
C1671 C196 1.139 . S
C1685 C1076 1.118 1_556 S
C1689 C293 1.124 1_556 S
C1703 C929 1.163 . S
C1707 C401 1.166 . S
C1721 C469 1.137 . S
C1725 C1377 1.133 . S
C1739 C577 1.172 . S
C1743 C753 1.167 . S
C1757 C665 1.141 1_554 S
C1761 C812 1.148 1_554 S
C1775 C20 1.163 . S
C1779 C381 1.161 . S
C1793 C733 1.146 . S
C1797 C1164 1.150 . S
C1811 C1085 1.152 . S
C1815 C821 1.157 . S
C1829 C1289 1.154 . S
C1833 C909 1.150 . S
C1847 C673 1.143 . S
C1851 C313 1.134 . S
C1865 C225 1.154 . S
C1869 C557 1.149 . S
C1883 C1017 1.147 . S
C1887 C1369 1.157 . S
C1901 C1173 1.147 . S
C1905 C937 1.135 . S
C1919 C1349 1.146 . S
C1923 C1105 1.150 . S
C1937 C1281 1.137 . S
C1941 C761 1.124 . S
C1955 C988 1.161 1_655 S
C1959 C841 1.164 1_655 S
C1973 C117 1.153 1_565 S
C1977 C460 1.155 1_565 S
