# Generated by pormake.
# Topology uof, (4)-cn, num edge types: 1
# Building blocks:
#     Node 0, Type 0, BuildingBlock: CEKHIL_clean_sbu_0, # of connection points: 4
#     Node 1, Type 0, BuildingBlock: CEKHIL_clean_sbu_0, # of connection points: 4
#     Node 2, Type 0, BuildingBlock: CEKHIL_clean_sbu_0, # of connection points: 4
#     Node 3, Type 0, BuildingBlock: CEKHIL_clean_sbu_0, # of connection points: 4
#     Node 4, Type 0, BuildingBlock: CEKHIL_clean_sbu_0, # of connection points: 4
#     Node 5, Type 0, BuildingBlock: CEKHIL_clean_sbu_0, # of connection points: 4
#     Node 6, Type 0, BuildingBlock: CEKHIL_clean_sbu_0, # of connection points: 4
#     Node 7, Type 0, BuildingBlock: CEKHIL_clean_sbu_0, # of connection points: 4
#     Node 8, Type 0, BuildingBlock: CEKHIL_clean_sbu_0, # of connection points: 4
#     Node 9, Type 0, BuildingBlock: CEKHIL_clean_sbu_0, # of connection points: 4
#     Node 10, Type 0, BuildingBlock: CEKHIL_clean_sbu_0, # of connection points: 4
#     Node 11, Type 0, BuildingBlock: CEKHIL_clean_sbu_0, # of connection points: 4
#     Edge 12, Type (0, 0), BuildingBlock: UVAHIK_clean_linker_0, # of connection points: 2
#     Edge 13, Type (0, 0), BuildingBlock: UVAHIK_clean_linker_0, # of connection points: 2
#     Edge 14, Type (0, 0), BuildingBlock: UVAHIK_clean_linker_0, # of connection points: 2
#     Edge 15, Type (0, 0), BuildingBlock: UVAHIK_clean_linker_0, # of connection points: 2
#     Edge 16, Type (0, 0), BuildingBlock: UVAHIK_clean_linker_0, # of connection points: 2
#     Edge 17, Type (0, 0), BuildingBlock: UVAHIK_clean_linker_0, # of connection points: 2
#     Edge 18, Type (0, 0), BuildingBlock: UVAHIK_clean_linker_0, # of connection points: 2
#     Edge 19, Type (0, 0), BuildingBlock: UVAHIK_clean_linker_0, # of connection points: 2
#     Edge 20, Type (0, 0), BuildingBlock: UVAHIK_clean_linker_0, # of connection points: 2
#     Edge 21, Type (0, 0), BuildingBlock: UVAHIK_clean_linker_0, # of connection points: 2
#     Edge 22, Type (0, 0), BuildingBlock: UVAHIK_clean_linker_0, # of connection points: 2
#     Edge 23, Type (0, 0), BuildingBlock: UVAHIK_clean_linker_0, # of connection points: 2
#     Edge 24, Type (0, 0), BuildingBlock: UVAHIK_clean_linker_0, # of connection points: 2
#     Edge 25, Type (0, 0), BuildingBlock: UVAHIK_clean_linker_0, # of connection points: 2
#     Edge 26, Type (0, 0), BuildingBlock: UVAHIK_clean_linker_0, # of connection points: 2
#     Edge 27, Type (0, 0), BuildingBlock: UVAHIK_clean_linker_0, # of connection points: 2
#     Edge 28, Type (0, 0), BuildingBlock: UVAHIK_clean_linker_0, # of connection points: 2
#     Edge 29, Type (0, 0), BuildingBlock: UVAHIK_clean_linker_0, # of connection points: 2
#     Edge 30, Type (0, 0), BuildingBlock: UVAHIK_clean_linker_0, # of connection points: 2
#     Edge 31, Type (0, 0), BuildingBlock: UVAHIK_clean_linker_0, # of connection points: 2
#     Edge 32, Type (0, 0), BuildingBlock: UVAHIK_clean_linker_0, # of connection points: 2
#     Edge 33, Type (0, 0), BuildingBlock: UVAHIK_clean_linker_0, # of connection points: 2
#     Edge 34, Type (0, 0), BuildingBlock: UVAHIK_clean_linker_0, # of connection points: 2
#     Edge 35, Type (0, 0), BuildingBlock: UVAHIK_clean_linker_0, # of connection points: 2
# Relax obj value: 0.203
# Max RMSD: 0.143
# Mean RMSD: 0.143
data_MOF--net-uof--node1-CEKHIL_clean_sbu_0--edge1-UVAHIK_clean_linker_0
_symmetry_space_group_name_H-M    P1
_symmetry_Int_Tables_number       1
_symmetry_cell_setting            triclinic
loop_
_symmetry_equiv_pos_as_xyz
'x, y, z'
_cell_length_a     41.334058
_cell_length_b     41.288145
_cell_length_c     80.84212
_cell_angle_alpha  89.986582
_cell_angle_beta   90.045583
_cell_angle_gamma 119.99625
loop_
_atom_site_label
_atom_site_type_symbol
_atom_site_fract_x
_atom_site_fract_y
_atom_site_fract_z
_atom_type_partial_charge
Co0 Co 0.22738 0.31255 0.23382 0.0
O1 O 0.1737 0.29145 0.23412 0.0
O2 O 0.20994 0.32444 0.21344 0.0
C3 C 0.23896 0.33474 0.26 0.0
O4 O 0.28424 0.33982 0.22945 0.0
Co5 Co 0.26443 0.28128 0.25794 0.0
O6 O 0.31178 0.3222 0.24878 0.0
C7 C 0.21534 0.23493 0.23113 0.0
C8 C 0.17621 0.30459 0.2193 0.0
C9 C 0.31364 0.34232 0.23644 0.0
O10 O 0.2196 0.26443 0.22371 0.0
O11 O 0.22723 0.23551 0.2458 0.0
O12 O 0.23552 0.35463 0.24834 0.0
O13 O 0.23194 0.30198 0.25571 0.0
Co14 Co 0.92299 0.23246 0.56491 0.0
O15 O 0.89178 0.1785 0.56549 0.0
O16 O 0.88826 0.21418 0.54616 0.0
C17 C 0.91947 0.24325 0.59207 0.0
O18 O 0.95018 0.28958 0.56072 0.0
Co19 Co 0.99763 0.27041 0.58503 0.0
O20 O 0.99971 0.31735 0.57795 0.0
C21 C 0.98942 0.22434 0.556 0.0
C22 C 0.87702 0.1805 0.55164 0.0
C23 C 0.97825 0.31912 0.56708 0.0
O24 O 0.96051 0.22616 0.55145 0.0
O25 O 1.00584 0.23697 0.56987 0.0
O26 O 0.89285 0.23919 0.58213 0.0
O27 O 0.94427 0.23715 0.58564 0.0
Co28 Co 0.70706 0.93199 0.8904 0.0
O29 O 0.73621 0.90734 0.89235 0.0
O30 O 0.68495 0.88568 0.87741 0.0
C31 C 0.70851 0.94748 0.91746 0.0
O32 O 0.66968 0.95073 0.88594 0.0
Co33 Co 0.74662 0.01752 0.89901 0.0
O34 O 0.69599 0.00992 0.89563 0.0
C35 C 0.76715 0.99215 0.8691 0.0
C36 C 0.71366 0.8826 0.88184 0.0
C37 C 0.66862 0.981 0.88918 0.0
O38 O 0.73828 0.95951 0.87062 0.0
O39 O 0.77719 0.01824 0.87979 0.0
O40 O 0.68415 0.91394 0.91247 0.0
O41 O 0.73271 0.96789 0.90654 0.0
Co42 Co 0.77699 0.69348 0.22467 0.0
O43 O 0.8306 0.72647 0.22482 0.0
O44 O 0.80226 0.67149 0.21251 0.0
C45 C 0.76681 0.70063 0.25164 0.0
O46 O 0.72156 0.65144 0.2225 0.0
Co47 Co 0.7249 0.72655 0.23213 0.0
O48 O 0.68688 0.67322 0.23449 0.0
C49 C 0.7673 0.74471 0.20111 0.0
C50 C 0.83338 0.70243 0.21549 0.0
C51 C 0.69018 0.64662 0.22832 0.0
O52 O 0.77493 0.71856 0.20369 0.0
O53 O 0.74992 0.75397 0.21143 0.0
O54 O 0.77778 0.67708 0.24758 0.0
O55 O 0.76612 0.7208 0.23969 0.0
Co56 Co 0.10085 0.78687 0.56247 0.0
O57 O 0.12378 0.84073 0.56159 0.0
O58 O 0.14276 0.80863 0.5468 0.0
C59 C 0.095 0.78204 0.59035 0.0
O60 O 0.08364 0.73034 0.56071 0.0
Co61 Co 0.02045 0.73951 0.57749 0.0
O62 O 0.03362 0.6996 0.57742 0.0
C63 C 0.03141 0.77445 0.54461 0.0
C64 C 0.14604 0.84102 0.55025 0.0
C65 C 0.05915 0.70032 0.56832 0.0
O66 O 0.06592 0.78321 0.54425 0.0
O67 O 0.00982 0.75957 0.55703 0.0
O68 O 0.1265 0.78925 0.58357 0.0
O69 O 0.07032 0.78089 0.5804 0.0
Co70 Co 0.3163 0.09402 0.89073 0.0
O71 O 0.28298 0.11426 0.8905 0.0
O72 O 0.3377 0.14063 0.87806 0.0
C73 C 0.30984 0.07856 0.91797 0.0
O74 O 0.3584 0.08078 0.88867 0.0
Co75 Co 0.28533 0.00978 0.89974 0.0
O76 O 0.33892 0.02617 0.90211 0.0
C77 C 0.26817 0.03058 0.8674 0.0
C78 C 0.30676 0.14079 0.88098 0.0
C79 C 0.36435 0.0553 0.89495 0.0
O80 O 0.29121 0.06535 0.87005 0.0
O81 O 0.26035 1.00462 0.87796 0.0
O82 O 0.33312 0.11279 0.91344 0.0
O83 O 0.28963 0.05672 0.90627 0.0
Co84 Co 0.68729 0.77975 0.4446 0.0
O85 O 0.7235 0.83268 0.4458 0.0
O86 O 0.66955 0.80621 0.45881 0.0
C87 C 0.69175 0.77387 0.41685 0.0
O88 O 0.64242 0.72525 0.44577 0.0
Co89 Co 0.71169 0.72322 0.43208 0.0
O90 O 0.65739 0.68977 0.42984 0.0
C91 C 0.73365 0.75702 0.46532 0.0
C92 C 0.70138 0.83646 0.45596 0.0
C93 C 0.63373 0.69426 0.43813 0.0
O94 O 0.71246 0.77148 0.46423 0.0
O95 O 0.73856 0.73912 0.4536 0.0
O96 O 0.6703 0.78609 0.42252 0.0
O97 O 0.71123 0.76889 0.42786 0.0
Co98 Co 0.91351 0.69055 0.76873 0.0
O99 O 0.89068 0.72157 0.76998 0.0
O100 O 0.88005 0.67719 0.7879 0.0
C101 C 0.90523 0.67974 0.74117 0.0
O102 O 0.93185 0.65214 0.77092 0.0
Co103 Co 0.98433 0.71564 0.74636 0.0
O104 O 0.97376 0.66421 0.75059 0.0
C105 C 0.99024 0.7535 0.77815 0.0
C106 C 0.87421 0.70422 0.78347 0.0
C107 C 0.95303 0.64361 0.7623 0.0
O108 O 0.95668 0.72904 0.78233 0.0
O109 O 1.00481 0.75414 0.76412 0.0
O110 O 0.87805 0.659 0.75123 0.0
O111 O 0.93418 0.70687 0.74787 0.0
Co112 Co 0.23334 0.92004 0.11128 0.0
O113 O 0.1797 0.89954 0.1115 0.0
O114 O 0.20865 0.87504 0.125 0.0
C115 C 0.24177 0.93227 0.08376 0.0
O116 O 0.2887 0.93347 0.11353 0.0
Co117 Co 0.28604 1.0032 0.10064 0.0
O118 O 0.3235 0.98691 0.0993 0.0
C119 C 0.24787 0.98602 0.13283 0.0
C120 C 0.17736 0.87422 0.12171 0.0
C121 C 0.32002 0.95843 0.10701 0.0
O122 O 0.23717 0.95116 0.13112 0.0
O123 O 0.26555 0.01075 0.12174 0.0
O124 O 0.23096 0.89861 0.08913 0.0
O125 O 0.24356 0.95545 0.09483 0.0
Co126 Co 0.3101 0.2272 0.43663 0.0
O127 O 0.28963 0.17355 0.43587 0.0
O128 O 0.32927 0.2103 0.45485 0.0
C129 C 0.32204 0.23866 0.40927 0.0
O130 O 0.33794 0.28422 0.44093 0.0
Co131 Co 0.26915 0.26238 0.41768 0.0
O132 O 0.31262 0.31045 0.42482 0.0
C133 C 0.23408 0.21272 0.44598 0.0
C134 C 0.30752 0.17636 0.44948 0.0
C135 C 0.33724 0.31314 0.43513 0.0
O136 O 0.26629 0.21859 0.45074 0.0
O137 O 0.22878 0.22411 0.43207 0.0
O138 O 0.34631 0.23602 0.41866 0.0
O139 O 0.29132 0.23098 0.41637 0.0
Co140 Co 0.09728 0.3207 0.7694 0.0
O141 O 0.13061 0.30046 0.76867 0.0
O142 O 0.13078 0.33716 0.78851 0.0
C143 C 0.10133 0.33664 0.74241 0.0
O144 O 0.06775 0.34804 0.7739 0.0
Co145 Co 0.02367 0.28316 0.7486 0.0
O146 O 0.01825 0.32557 0.75664 0.0
C147 C 0.03628 0.24311 0.77544 0.0
C148 C 0.14381 0.31636 0.78285 0.0
C149 C 0.03909 0.34859 0.76772 0.0
O150 O 0.06041 0.27455 0.78187 0.0
O151 O 0.02178 0.24051 0.76118 0.0
O152 O 0.12694 0.35953 0.75268 0.0
O153 O 0.07728 0.30497 0.74847 0.0
Co154 Co 0.78383 0.08687 0.10901 0.0
O155 O 0.83764 0.11683 0.10688 0.0
O156 O 0.80496 0.12473 0.12639 0.0
C157 C 0.7686 0.08514 0.08197 0.0
O158 O 0.72751 0.06159 0.11471 0.0
Co159 Co 0.74236 0.00809 0.09216 0.0
O160 O 0.69709 0.00611 0.10142 0.0
C161 C 0.79882 0.02639 0.11761 0.0
C162 C 0.83768 0.13409 0.12031 0.0
C163 C 0.69715 0.03114 0.11068 0.0
O164 O 0.79166 0.05123 0.12326 0.0
O165 O 0.7854 0.00924 0.10396 0.0
O166 O 0.77587 0.11445 0.0908 0.0
O167 O 0.77494 0.06123 0.0892 0.0
C168 C 0.87402 0.17913 0.1435 0.0
C169 C 0.87332 0.15919 0.12927 0.0
C170 C 0.90712 0.1996 0.15271 0.0
C171 C 0.97343 0.22227 0.17591 0.0
H172 H 0.07039 0.26167 0.15518 0.0
C173 C 0.10676 0.26607 0.21498 0.0
C174 C 0.14192 0.29389 0.20921 0.0
C175 C 0.07461 0.25325 0.2052 0.0
C176 C 0.04372 0.25142 0.16127 0.0
H177 H 0.90738 0.14555 0.1136 0.0
H178 H 0.96413 0.17977 0.12973 0.0
H179 H 0.01456 0.23516 0.13816 0.0
H180 H 0.17035 0.33066 0.18858 0.0
H181 H 0.11415 0.3095 0.17171 0.0
H182 H 1.00264 0.2399 0.19895 0.0
C183 C 0.93966 0.18083 0.13367 0.0
C184 C 0.01131 0.23545 0.15143 0.0
C185 C 0.90679 0.16085 0.12437 0.0
C186 C 0.1438 0.30919 0.19345 0.0
C187 C 0.11144 0.29667 0.18369 0.0
C188 C 1.00586 0.23868 0.18572 0.0
C189 C 0.94047 0.20033 0.14812 0.0
C190 C 0.97545 0.21997 0.15857 0.0
C191 C 0.07624 0.26812 0.18931 0.0
C192 C 0.04164 0.253 0.17863 0.0
H193 H 0.84882 0.17854 0.14766 0.0
H194 H 0.90637 0.2147 0.16351 0.0
H195 H 0.94668 0.21054 0.18207 0.0
H196 H 0.10412 0.25326 0.22697 0.0
H197 H 0.04861 0.23078 0.21001 0.0
C198 C 0.8427 0.11044 0.54835 0.0
C199 C 0.8521 0.14581 0.54195 0.0
C200 C 0.82262 0.07782 0.53887 0.0
C201 C 0.76654 0.00926 0.51939 0.0
H202 H 0.78781 0.01414 0.47252 0.0
C203 C 0.69212 0.87679 0.47709 0.0
C204 C 0.71389 0.87285 0.46473 0.0
C205 C 0.70584 0.91048 0.48603 0.0
C206 C 0.78158 0.01202 0.48561 0.0
H207 H 0.84675 0.17409 0.52045 0.0
H208 H 0.81107 0.11717 0.50399 0.0
H209 H 0.81725 0.07106 0.48902 0.0
H210 H 0.76725 0.90188 0.4521 0.0
H211 H 0.79107 0.95972 0.46762 0.0
H212 H 0.73198 0.95002 0.51609 0.0
C213 C 0.81977 0.11466 0.51633 0.0
C214 C 0.79819 0.04501 0.4951 0.0
C215 C 0.83998 0.14742 0.52585 0.0
C216 C 0.74944 0.90375 0.46142 0.0
C217 C 0.76312 0.93726 0.47032 0.0
C218 C 0.74999 0.97625 0.5099 0.0
C219 C 0.81108 0.07927 0.52261 0.0
C220 C 0.79135 0.04423 0.51221 0.0
C221 C 0.74176 0.94126 0.48289 0.0
C222 C 0.75755 0.97693 0.49287 0.0
H223 H 0.8517 0.10792 0.56063 0.0
H224 H 0.81724 0.05152 0.54419 0.0
H225 H 0.75989 0.00723 0.53243 0.0
H226 H 0.66468 0.85365 0.48003 0.0
H227 H 0.68819 0.91235 0.49542 0.0
C228 C 0.70222 0.8317 0.86099 0.0
C229 C 0.72414 0.8566 0.87361 0.0
C230 C 0.71531 0.81127 0.85196 0.0
C231 C 0.80411 0.81802 0.83891 0.0
H232 H 0.74519 0.71312 0.82721 0.0
C233 C 0.85436 0.75136 0.78975 0.0
C234 C 0.85269 0.71732 0.79369 0.0
C235 C 0.83666 0.76577 0.79964 0.0
C236 C 0.76205 0.7424 0.83042 0.0
H237 H 0.77668 0.87836 0.88682 0.0
H238 H 0.79927 0.8434 0.87113 0.0
H239 H 0.71751 0.74232 0.84431 0.0
H240 H 0.82994 0.67135 0.81113 0.0
H241 H 0.79816 0.69624 0.82831 0.0
H242 H 0.8484 0.8185 0.82494 0.0
C243 C 0.77205 0.83962 0.86813 0.0
C244 C 0.74608 0.75922 0.84012 0.0
C245 C 0.75886 0.85954 0.87724 0.0
C246 C 0.83184 0.69759 0.80768 0.0
C247 C 0.81353 0.71182 0.81751 0.0
C248 C 0.81978 0.80145 0.82904 0.0
C249 C 0.75086 0.81569 0.85515 0.0
C250 C 0.76701 0.79727 0.84458 0.0
C251 C 0.81621 0.74646 0.81375 0.0
C252 C 0.79908 0.76341 0.82463 0.0
H253 H 0.67548 0.82881 0.85776 0.0
H254 H 0.69825 0.79319 0.84202 0.0
H255 H 0.82104 0.84741 0.84194 0.0
H256 H 0.8701 0.7675 0.77912 0.0
H257 H 0.83905 0.79224 0.79622 0.0
C258 C 0.90244 0.74549 0.21168 0.0
C259 C 0.86954 0.71258 0.20713 0.0
C260 C 0.93567 0.7581 0.20271 0.0
C261 C 0.97056 0.75209 0.16114 0.0
H262 H 0.06723 0.80211 0.18278 0.0
C263 C 0.10827 0.84806 0.12563 0.0
C264 C 0.14141 0.84878 0.13037 0.0
C265 C 0.0751 0.82749 0.13466 0.0
C266 C 0.04055 0.78792 0.17649 0.0
H267 H 0.84632 0.66682 0.18957 0.0
H268 H 0.90439 0.68869 0.17392 0.0
H269 H 0.01035 0.77305 0.1994 0.0
H270 H 0.16513 0.82758 0.14833 0.0
H271 H 0.10723 0.79152 0.16409 0.0
H272 H 1.00077 0.7671 0.13822 0.0
C273 C 0.9044 0.70492 0.18444 0.0
C274 C 0.00777 0.77153 0.18606 0.0
C275 C 0.87111 0.69212 0.19353 0.0
C276 C 0.14018 0.82758 0.14424 0.0
C277 C 0.10697 0.80715 0.15338 0.0
C278 C 1.00335 0.76868 0.15157 0.0
C279 C 0.93712 0.73839 0.18878 0.0
C280 C 0.9722 0.75367 0.17855 0.0
C281 C 0.07397 0.8071 0.14883 0.0
C282 C 0.03891 0.78722 0.15907 0.0
H283 H 0.90237 0.76219 0.22199 0.0
H284 H 0.95994 0.78416 0.20638 0.0
H285 H 0.94386 0.73895 0.15484 0.0
H286 H 0.10807 0.86414 0.11508 0.0
H287 H 0.05061 0.82867 0.13082 0.0
C288 C 0.31588 0.14461 0.47473 0.0
C289 C 0.29929 0.14218 0.45923 0.0
C290 C 0.30465 0.11245 0.48452 0.0
C291 C 0.24859 0.00663 0.48319 0.0
H292 H 0.24421 0.01672 0.53062 0.0
C293 C 0.19201 0.87685 0.52712 0.0
C294 C 0.17053 0.87616 0.54076 0.0
C295 C 0.21191 0.90952 0.5175 0.0
C296 C 0.24487 0.01311 0.51739 0.0
H297 H 0.25811 0.10343 0.44187 0.0
H298 H 0.23821 0.04816 0.45882 0.0
H299 H 0.26997 0.07205 0.51324 0.0
H300 H 0.15378 0.9099 0.55496 0.0
H301 H 0.18735 0.96577 0.53828 0.0
H302 H 0.22182 0.94748 0.4873 0.0
C303 C 0.26047 0.07457 0.46343 0.0
C304 C 0.26034 0.04522 0.50735 0.0
C305 C 0.27184 0.10657 0.45366 0.0
C306 C 0.17016 0.90922 0.54466 0.0
C307 C 0.18978 0.94163 0.53506 0.0
C308 C 0.23287 0.97448 0.49323 0.0
C309 C 0.27629 0.07686 0.47915 0.0
C310 C 0.26208 0.0426 0.49003 0.0
C311 C 0.21082 0.94243 0.5212 0.0
C312 C 0.23022 0.97704 0.51051 0.0
H313 H 0.33704 0.17149 0.47948 0.0
H314 H 0.31815 0.11564 0.49636 0.0
H315 H 0.2499 1.00311 0.46999 0.0
H316 H 0.19292 0.85197 0.52369 0.0
H317 H 0.22808 0.90886 0.50711 0.0
C318 C 0.31984 0.19263 0.86053 0.0
C319 C 0.29655 0.1667 0.87251 0.0
C320 C 0.30789 0.21392 0.85147 0.0
C321 C 0.26707 0.23778 0.82685 0.0
H322 H 0.19957 0.2666 0.84639 0.0
C323 C 0.1785 0.2812 0.78663 0.0
C324 C 0.16858 0.30694 0.7928 0.0
C325 C 0.19793 0.26853 0.79647 0.0
C326 C 0.21877 0.25931 0.84069 0.0
H327 H 0.24248 0.14353 0.88443 0.0
H328 H 0.22166 0.1798 0.86868 0.0
H329 H 0.22692 0.23811 0.86355 0.0
H330 H 0.17255 0.34028 0.8142 0.0
H331 H 0.20726 0.31898 0.83126 0.0
H332 H 0.25947 0.25964 0.80405 0.0
C333 C 0.24946 0.18446 0.86637 0.0
C334 C 0.23414 0.24233 0.85056 0.0
C335 C 0.26141 0.16335 0.87541 0.0
C336 C 0.17972 0.32052 0.80899 0.0
C337 C 0.19935 0.30792 0.81885 0.0
C338 C 0.25182 0.25491 0.817 0.0
C339 C 0.27225 0.20986 0.85409 0.0
C340 C 0.25812 0.2307 0.84378 0.0
C341 C 0.20832 0.28124 0.81284 0.0
C342 C 0.22693 0.26549 0.82367 0.0
H343 H 0.34702 0.19594 0.8579 0.0
H344 H 0.32661 0.23347 0.84233 0.0
H345 H 0.28509 0.22912 0.82102 0.0
H346 H 0.17023 0.26981 0.77429 0.0
H347 H 0.20358 0.24765 0.79134 0.0
C348 C 0.64608 0.58479 0.21427 0.0
C349 C 0.6551 0.60966 0.22766 0.0
C350 C 0.60966 0.55382 0.21266 0.0
C351 C 0.5127 0.52415 0.22584 0.0
H352 H 0.48894 0.42362 0.21424 0.0
C353 C 0.35892 0.40314 0.22222 0.0
C354 C 0.35184 0.37037 0.2306 0.0
C355 C 0.39582 0.43131 0.21881 0.0
C356 C 0.49508 0.45159 0.21745 0.0
H357 H 0.63377 0.61976 0.25042 0.0
H358 H 0.57141 0.56628 0.24772 0.0
H359 H 0.55429 0.474 0.21482 0.0
H360 H 0.37819 0.34087 0.24109 0.0
H361 H 0.44176 0.38944 0.23516 0.0
H362 H 0.4539 0.50189 0.22899 0.0
C363 C 0.59173 0.57098 0.2382 0.0
C364 C 0.53257 0.48051 0.21766 0.0
C365 C 0.62771 0.60156 0.23981 0.0
C366 C 0.38244 0.36578 0.23471 0.0
C367 C 0.41909 0.39362 0.23118 0.0
C368 C 0.47534 0.4954 0.22553 0.0
C369 C 0.58173 0.54732 0.22437 0.0
C370 C 0.54192 0.517 0.22228 0.0
C371 C 0.42647 0.42717 0.22351 0.0
C372 C 0.46597 0.45851 0.2217 0.0
H373 H 0.66644 0.59035 0.20466 0.0
H374 H 0.60294 0.53598 0.20189 0.0
H375 H 0.51877 0.55204 0.22918 0.0
H376 H 0.33611 0.40768 0.2189 0.0
H377 H 0.40039 0.45663 0.21274 0.0
C378 C 0.04055 0.63625 0.57851 0.0
C379 C 0.05786 0.66376 0.56618 0.0
C380 C 0.03298 0.59966 0.576 0.0
C381 C 0.056 0.53883 0.55111 0.0
H382 H 0.95977 0.46131 0.56734 0.0
C383 C 0.0232 0.38785 0.56443 0.0
C384 C 0.98679 0.35746 0.56211 0.0
C385 C 0.0314 0.42467 0.56182 0.0
C386 C 0.98653 0.48242 0.5625 0.0
H387 H 0.08249 0.67437 0.54174 0.0
H388 H 0.06949 0.6099 0.53735 0.0
H389 H 0.97601 0.52662 0.56892 0.0
H390 H 0.93069 0.34233 0.5546 0.0
H391 H 0.94496 0.40702 0.55006 0.0
H392 H 0.06658 0.49446 0.54484 0.0
C393 C 0.06165 0.61698 0.54899 0.0
C394 C 0.9961 0.52006 0.56361 0.0
C395 C 0.06928 0.65398 0.55152 0.0
C396 C 0.95901 0.36497 0.55647 0.0
C397 C 0.96718 0.40211 0.554 0.0
C398 C 0.04648 0.50109 0.55008 0.0
C399 C 0.0424 0.58909 0.56106 0.0
C400 C 0.03129 0.54891 0.55828 0.0
C401 C 1.00344 0.43254 0.5569 0.0
C402 C 0.01186 0.47235 0.55606 0.0
H403 H 0.03184 0.64277 0.59008 0.0
H404 H 0.01922 0.57942 0.58579 0.0
H405 H 0.08328 0.56017 0.54687 0.0
H406 H 0.04546 0.38327 0.56868 0.0
H407 H 0.05948 0.44711 0.56439 0.0
C408 C 0.41493 0.04586 0.90636 0.0
C409 C 0.40073 0.0567 0.89299 0.0
C410 C 0.44364 0.03769 0.90408 0.0
C411 C 0.51586 0.0444 0.87421 0.0
H412 H 0.50987 0.96407 0.90135 0.0
C413 C 0.64055 0.0204 0.88203 0.0
C414 C 0.63524 0.98451 0.8852 0.0
C415 C 0.61034 0.02643 0.8806 0.0
C416 C 0.51177 0.98613 0.89345 0.0
H417 H 0.40629 0.06849 0.86676 0.0
H418 H 0.45637 0.05386 0.86261 0.0
H419 H 0.46201 0.98161 0.90372 0.0
H420 H 0.59336 0.92634 0.88856 0.0
H421 H 0.53989 0.93671 0.88582 0.0
H422 H 0.56514 0.04825 0.86365 0.0
C423 C 0.44576 0.05226 0.87499 0.0
C424 C 0.48457 0.99678 0.89503 0.0
C425 C 0.41719 0.06095 0.87735 0.0
C426 C 0.59846 0.95429 0.88609 0.0
C427 C 0.56788 0.96039 0.8847 0.0
C428 C 0.54291 0.03356 0.87254 0.0
C429 C 0.45863 0.03938 0.88826 0.0
C430 C 0.48661 0.02668 0.88572 0.0
C431 C 0.57348 0.99677 0.88222 0.0
C432 C 0.54182 1.00482 0.88241 0.0
H433 H 0.40269 0.04221 0.91855 0.0
H434 H 0.45343 0.02917 0.91473 0.0
H435 H 0.51859 0.06746 0.86679 0.0
H436 H 0.66844 0.04441 0.88114 0.0
H437 H 0.61618 0.05488 0.87895 0.0
C438 C 0.57753 0.648 0.4548 0.0
C439 C 0.59611 0.66029 0.43955 0.0
C440 C 0.5476 0.61103 0.45659 0.0
C441 C 0.51451 0.51782 0.43799 0.0
H442 H 0.42066 0.48659 0.4604 0.0
C443 C 0.40254 0.36059 0.44475 0.0
C444 C 0.36624 0.35179 0.44011 0.0
C445 C 0.43056 0.39805 0.44729 0.0
C446 C 0.44681 0.49484 0.45414 0.0
H447 H 0.59595 0.64437 0.41399 0.0
H448 H 0.54408 0.58091 0.41703 0.0
H449 H 0.46802 0.55319 0.45928 0.0
H450 H 0.33067 0.37554 0.43537 0.0
H451 H 0.37897 0.44011 0.43994 0.0
H452 H 0.49334 0.45987 0.43255 0.0
C453 C 0.55289 0.59919 0.42772 0.0
C454 C 0.47402 0.53302 0.4536 0.0
C455 C 0.58241 0.63579 0.42594 0.0
C456 C 0.35832 0.38118 0.43885 0.0
C457 C 0.38605 0.41835 0.4416 0.0
C458 C 0.48758 0.47975 0.43869 0.0
C459 C 0.53597 0.58576 0.44318 0.0
C460 C 0.5079 0.54508 0.44517 0.0
C461 C 0.42278 0.4275 0.44551 0.0
C462 C 0.45303 0.4677 0.4465 0.0
H463 H 0.58772 0.66598 0.46557 0.0
H464 H 0.53503 0.60163 0.46867 0.0
H465 H 0.54052 0.52601 0.43161 0.0
H466 H 0.40967 0.33875 0.44577 0.0
H467 H 0.4585 0.40402 0.45042 0.0
C468 C 0.94754 0.59206 0.78155 0.0
C469 C 0.95586 0.60959 0.76595 0.0
C470 C 0.95573 0.56336 0.78498 0.0
C471 C 0.01916 0.52972 0.77078 0.0
H472 H 0.9499 0.43471 0.79088 0.0
C473 C 0.05735 0.41305 0.77866 0.0
C474 C 0.0298 0.37769 0.77296 0.0
C475 C 0.04886 0.44172 0.78121 0.0
C476 C 0.96967 0.46119 0.78531 0.0
H477 H 0.97695 0.60856 0.74145 0.0
H478 H 0.99097 0.55948 0.74741 0.0
H479 H 0.93295 0.48361 0.78849 0.0
H480 H 0.97118 0.3443 0.76643 0.0
H481 H 0.9565 0.39371 0.77097 0.0
H482 H 0.05541 0.50726 0.76709 0.0
C483 C 0.97906 0.56826 0.75715 0.0
C484 C 0.96002 0.4893 0.78407 0.0
C485 C 0.97076 0.59643 0.75373 0.0
C486 C 0.99322 0.37121 0.77074 0.0
C487 C 0.98467 0.39957 0.77347 0.0
C488 C 0.02893 0.50186 0.77215 0.0
C489 C 0.97258 0.5519 0.7729 0.0
C490 C 0.98425 0.52357 0.77636 0.0
C491 C 0.01249 0.43553 0.77836 0.0
C492 C 1.00399 0.46683 0.77907 0.0
H493 H 0.93612 0.60144 0.79126 0.0
H494 H 0.95015 0.55111 0.79722 0.0
H495 H 0.03874 0.55597 0.76497 0.0
H496 H 0.08581 0.41909 0.78044 0.0
H497 H 0.07095 0.46898 0.78513 0.0
C498 C 0.38164 0.97091 0.09626 0.0
C499 C 0.35499 0.95683 0.10903 0.0
C500 C 0.41791 0.97761 0.09879 0.0
C501 C 0.47912 0.95954 0.12644 0.0
H502 H 0.55661 0.04994 0.10569 0.0
C503 C 0.62931 0.98754 0.11632 0.0
C504 C 0.65973 0.02441 0.11605 0.0
C505 C 0.59274 0.98031 0.1185 0.0
C506 C 0.53553 0.0249 0.11181 0.0
H507 H 0.34527 0.93713 0.13434 0.0
H508 H 0.40912 0.9489 0.13886 0.0
H509 H 0.49165 0.03388 0.10328 0.0
H510 H 0.67533 0.0826 0.11873 0.0
H511 H 0.61118 0.07003 0.12273 0.0
H512 H 0.52324 0.95079 0.13506 0.0
C513 C 0.4017 0.95458 0.12679 0.0
C514 C 0.49802 0.01529 0.1102 0.0
C515 C 0.36501 0.94758 0.12419 0.0
C516 C 0.65265 0.05389 0.11892 0.0
C517 C 0.61578 0.04663 0.12102 0.0
C518 C 0.51675 0.96918 0.12806 0.0
C519 C 0.42899 0.97085 0.11425 0.0
C520 C 0.46913 0.98206 0.11716 0.0
C521 C 0.58519 0.00971 0.12045 0.0
C522 C 0.54551 1.00167 0.1205 0.0
H523 H 0.37476 0.97808 0.08438 0.0
H524 H 0.43757 0.98893 0.08864 0.0
H525 H 0.4578 0.93381 0.13201 0.0
H526 H 0.6336 0.96403 0.11423 0.0
H527 H 0.57022 0.95159 0.1178 0.0
C528 C 0.26105 0.03259 0.15492 0.0
C529 C 0.23638 0.99807 0.14764 0.0
C530 C 0.24826 0.0477 0.1669 0.0
C531 C 0.17221 0.05953 0.175 0.0
H532 H 0.219 0.09783 0.21759 0.0
C533 C 0.18563 0.16566 0.23133 0.0
C534 C 0.19889 0.19896 0.22224 0.0
C535 C 0.17717 0.13241 0.22343 0.0
C536 C 0.20501 0.08672 0.20589 0.0
H537 H 0.17953 0.95153 0.14734 0.0
H538 H 0.15672 0.97899 0.16803 0.0
H539 H 0.23112 0.05351 0.2028 0.0
H540 H 0.20985 0.22282 0.1976 0.0
H541 H 0.19543 0.16445 0.18371 0.0
H542 H 0.1484 0.09507 0.17752 0.0
C543 C 0.18601 0.9937 0.16468 0.0
C544 C 0.21205 0.06148 0.19746 0.0
C545 C 0.19908 0.97803 0.153 0.0
C546 C 0.19998 0.19763 0.20491 0.0
C547 C 0.19154 0.1642 0.19697 0.0
C548 C 0.16563 0.08534 0.18332 0.0
C549 C 0.21045 0.02894 0.17144 0.0
C550 C 0.19649 0.04852 0.1818 0.0
C551 C 0.18179 0.13181 0.20628 0.0
C552 C 0.18278 0.09985 0.19864 0.0
H553 H 0.28985 0.0485 0.15087 0.0
H554 H 0.26743 0.07509 0.17191 0.0
H555 H 0.16035 0.05009 0.16279 0.0
H556 H 0.18364 0.16563 0.24469 0.0
H557 H 0.16912 0.10764 0.23083 0.0
C558 C 0.03812 0.20771 0.549 0.0
C559 C 1.00506 0.20753 0.5447 0.0
C560 C 0.0541 0.19344 0.53821 0.0
C561 C 0.06055 0.18089 0.49417 0.0
H562 H 0.12016 0.1378 0.50905 0.0
C563 C 0.16546 0.1768 0.45054 0.0
C564 C 0.20175 0.19399 0.45715 0.0
C565 C 0.13461 0.16422 0.4609 0.0
C566 C 0.10344 0.14958 0.50471 0.0
H567 H 0.96178 0.19033 0.52601 0.0
H568 H 0.98993 0.16533 0.50707 0.0
H569 H 0.07613 0.14141 0.52808 0.0
H570 H 0.23415 0.20854 0.47979 0.0
H571 H 0.18018 0.18757 0.49799 0.0
H572 H 0.08886 0.19073 0.4711 0.0
C573 C 1.00359 0.17699 0.51877 0.0
C574 C 0.07829 0.15167 0.51557 0.0
C575 C 0.98755 0.19138 0.5296 0.0
C576 C 0.20647 0.19564 0.47438 0.0
C577 C 0.17553 0.18337 0.48478 0.0
C578 C 0.08552 0.17869 0.48332 0.0
C579 C 0.0374 0.1785 0.52286 0.0
C580 C 0.05768 0.16869 0.51058 0.0
C581 C 0.13946 0.16895 0.47808 0.0
C582 C 0.10819 0.16424 0.48865 0.0
H583 H 0.05232 0.21973 0.56056 0.0
H584 H 0.0805 0.19569 0.54162 0.0
H585 H 0.04549 0.19459 0.48998 0.0
H586 H 0.16094 0.17433 0.43728 0.0
H587 H 0.10709 0.15245 0.45542 0.0
C588 C 0.01747 0.20705 0.80196 0.0
C589 C 0.02282 0.20817 0.7848 0.0
C590 C 0.99691 0.17259 0.80997 0.0
C591 C 0.91805 0.08354 0.79896 0.0
H592 H 0.9217 0.06042 0.84515 0.0
C593 C 0.81476 0.98385 0.85428 0.0
C594 C 0.79169 0.99973 0.85494 0.0
C595 C 0.84488 0.99807 0.8433 0.0
C596 C 0.92068 0.06592 0.83211 0.0
H597 H 0.01568 0.17488 0.76291 0.0
H598 H 0.98039 0.11493 0.77691 0.0
H599 H 0.97824 0.10909 0.83164 0.0
H600 H 0.77976 0.0407 0.84434 0.0
H601 H 0.83137 0.06453 0.82458 0.0
H602 H 0.85987 0.04259 0.79982 0.0
C603 C 0.99099 0.14038 0.78411 0.0
C604 C 0.95285 0.09391 0.82445 0.0
C605 C 0.01107 0.17465 0.77612 0.0
C606 C 0.79709 0.02789 0.84378 0.0
C607 C 0.82649 0.04139 0.83254 0.0
C608 C 0.88591 0.05596 0.80666 0.0
C609 C 0.98188 0.13901 0.80089 0.0
C610 C 0.95139 0.10399 0.808 0.0
C611 C 0.85141 0.02758 0.83267 0.0
C612 C 0.88666 0.04807 0.82345 0.0
H613 H 0.02651 0.23259 0.80892 0.0
H614 H 0.99018 0.17239 0.82293 0.0
H615 H 0.91587 0.0909 0.78631 0.0
H616 H 0.81113 0.96241 0.86304 0.0
H617 H 0.86397 0.98728 0.84362 0.0
C618 C 0.81471 0.00551 0.14381 0.0
C619 C 0.82188 0.01514 0.12706 0.0
C620 C 0.82837 0.98404 0.15116 0.0
C621 C 0.83932 0.90869 0.13647 0.0
H622 H 0.85825 0.8984 0.18257 0.0
C623 C 0.76305 0.78099 0.17771 0.0
C624 C 0.78416 0.76931 0.18686 0.0
C625 C 0.78086 0.81207 0.1674 0.0
C626 C 0.85397 0.90132 0.16956 0.0
H627 H 0.85302 0.01519 0.10551 0.0
H628 H 0.87723 0.97823 0.11838 0.0
H629 H 0.87053 0.9593 0.17214 0.0
H630 H 0.83987 0.77921 0.19199 0.0
H631 H 0.8713 0.83502 0.17437 0.0
H632 H 0.81919 0.84993 0.13432 0.0
C633 C 0.86055 0.98636 0.12575 0.0
C634 C 0.86073 0.93596 0.16365 0.0
C635 C 0.84667 0.0074 0.1184 0.0
C636 C 0.8231 0.78753 0.18478 0.0
C637 C 0.84106 0.81941 0.17484 0.0
C638 C 0.83198 0.87403 0.14244 0.0
C639 C 0.84944 0.97234 0.1418 0.0
C640 C 0.85205 0.93953 0.14721 0.0
C641 C 0.82001 0.8324 0.16652 0.0
C642 C 0.83794 0.86988 0.15915 0.0
H643 H 0.79567 0.01129 0.15069 0.0
H644 H 0.8193 0.9735 0.16357 0.0
H645 H 0.83185 0.91043 0.12378 0.0
H646 H 0.73306 0.76751 0.17933 0.0
H647 H 0.76425 0.822 0.16117 0.0
C648 C 0.76413 0.73696 0.48572 0.0
C649 C 0.75821 0.76537 0.47965 0.0
C650 C 0.79762 0.74601 0.49349 0.0
C651 C 0.88493 0.81448 0.51167 0.0
H652 H 0.92518 0.76657 0.48368 0.0
C653 C 0.02171 0.81963 0.52851 0.0
C654 C 0.01519 0.78311 0.53048 0.0
C655 C 0.99682 0.82599 0.51928 0.0
C656 C 0.91451 0.78042 0.4915 0.0
H657 H 0.7799 0.82517 0.47874 0.0
H658 H 0.83891 0.8411 0.49258 0.0
H659 H 0.86458 0.76 0.47721 0.0
H660 H 0.98009 0.72514 0.52363 0.0
H661 H 0.93721 0.73605 0.50716 0.0
H662 H 0.93403 0.83317 0.52651 0.0
C663 C 0.81767 0.81197 0.49124 0.0
C664 C 0.87984 0.7765 0.48787 0.0
C665 C 0.78386 0.80285 0.48349 0.0
C666 C 0.98583 0.75358 0.52195 0.0
C667 C 0.96132 0.75993 0.51257 0.0
C668 C 0.91968 0.81819 0.51541 0.0
C669 C 0.82558 0.78357 0.49521 0.0
C670 C 0.8642 0.79227 0.49828 0.0
C671 C 0.96547 0.79586 0.51185 0.0
C672 C 0.93406 0.79997 0.50568 0.0
H673 H 0.74464 0.7079 0.48286 0.0
H674 H 0.80306 0.72371 0.49676 0.0
H675 H 0.8734 0.82713 0.51972 0.0
H676 H 0.04396 0.84261 0.53531 0.0
H677 H 1.00072 0.85394 0.51882 0.0
C678 C 0.22186 0.03287 0.84876 0.0
C679 C 0.24662 0.0197 0.85207 0.0
C680 C 0.19323 0.01442 0.83719 0.0
C681 C 0.15746 0.94395 0.80413 0.0
H682 H 0.0654 0.89414 0.82945 0.0
C683 C 1.0013 0.80752 0.79584 0.0
C684 C 0.01374 0.78404 0.78943 0.0
C685 C 0.02713 0.84255 0.80234 0.0
C686 C 0.09056 0.90834 0.82206 0.0
H687 H 0.26364 0.97984 0.84518 0.0
H688 H 0.21479 0.94863 0.82443 0.0
H689 H 0.11903 0.95093 0.84032 0.0
H690 H 0.06154 0.77659 0.78601 0.0
H691 H 0.10621 0.83671 0.79788 0.0
H692 H 0.12986 0.90048 0.78628 0.0
C693 C 0.21706 0.97278 0.83079 0.0
C694 C 0.12114 0.94091 0.82821 0.0
C695 C 0.24492 0.99049 0.84264 0.0
C696 C 0.05147 0.79443 0.79084 0.0
C697 C 0.07703 0.82902 0.79738 0.0
C698 C 0.12693 0.91167 0.79794 0.0
C699 C 0.18993 0.98341 0.82857 0.0
C700 C 0.15535 0.95772 0.81968 0.0
C701 C 0.06542 0.85413 0.80246 0.0
C702 C 0.09398 0.89244 0.8073 0.0
H703 H 0.22261 0.05515 0.85614 0.0
H704 H 0.17246 0.02288 0.83569 0.0
H705 H 0.18353 0.95664 0.79733 0.0
H706 H 0.97227 0.80007 0.79465 0.0
H707 H 0.0175 0.86132 0.80637 0.0
C708 C 0.36061 0.28824 0.3883 0.0
C709 C 0.32887 0.25389 0.39231 0.0
C710 C 0.36084 0.30757 0.37389 0.0
C711 C 0.29878 0.32614 0.35157 0.0
H712 H 0.34591 0.33432 0.30917 0.0
C713 C 0.23277 0.33085 0.29029 0.0
C714 C 0.25507 0.34869 0.27646 0.0
C715 C 0.24906 0.33136 0.3055 0.0
C716 C 0.33324 0.33327 0.32103 0.0
H717 H 0.2738 0.21178 0.38407 0.0
H718 H 0.27448 0.24506 0.35905 0.0
H719 H 0.36378 0.31043 0.3332 0.0
H720 H 0.31185 0.38251 0.26778 0.0
H721 H 0.34066 0.38384 0.29452 0.0
H722 H 0.26713 0.3474 0.3395 0.0
C723 C 0.29898 0.25716 0.36695 0.0
C724 C 0.34347 0.31948 0.33475 0.0
C725 C 0.29874 0.23804 0.38119 0.0
C726 C 0.29404 0.36933 0.27839 0.0
C727 C 0.31049 0.36951 0.29362 0.0
C728 C 0.28873 0.34008 0.33795 0.0
C729 C 0.32935 0.29263 0.36347 0.0
C730 C 0.32539 0.31468 0.34997 0.0
C731 C 0.28817 0.34924 0.30719 0.0
C732 C 0.30473 0.34246 0.32233 0.0
H733 H 0.38379 0.30143 0.39688 0.0
H734 H 0.3845 0.33503 0.37144 0.0
H735 H 0.28444 0.32263 0.36322 0.0
H736 H 0.20273 0.3138 0.28897 0.0
H737 H 0.23087 0.315 0.31554 0.0
C738 C 0.93752 0.29561 0.61207 0.0
C739 C 0.92479 0.25761 0.6091 0.0
C740 C 0.95419 0.31187 0.62729 0.0
C741 C 0.96991 0.28884 0.67024 0.0
H742 H 0.06731 0.37822 0.66644 0.0
C743 C 0.09073 0.32002 0.71295 0.0
C744 C 0.09558 0.3457 0.72543 0.0
C745 C 0.07166 0.31818 0.69842 0.0
C746 C 0.03989 0.35369 0.66771 0.0
H747 H 0.91833 0.20659 0.61962 0.0
H748 H 0.94611 0.23422 0.64616 0.0
H749 H 0.02514 0.35606 0.64246 0.0
H750 H 0.08568 0.39068 0.73227 0.0
H751 H 0.05258 0.3879 0.70643 0.0
H752 H 0.98567 0.28528 0.69516 0.0
C753 C 0.9431 0.2517 0.63701 0.0
C754 C 0.01565 0.34102 0.65404 0.0
C755 C 0.92698 0.23571 0.62181 0.0
C756 C 0.08342 0.37151 0.72259 0.0
C757 C 0.06413 0.36961 0.70794 0.0
C758 C 0.99411 0.3014 0.68381 0.0
C759 C 0.95812 0.29025 0.63979 0.0
C760 C 0.9808 0.30773 0.65499 0.0
C761 C 0.05691 0.3419 0.69607 0.0
C762 C 0.02963 0.33334 0.68254 0.0
H763 H 0.93714 0.31328 0.60225 0.0
H764 H 0.96531 0.34158 0.62904 0.0
H765 H 0.94315 0.26347 0.67151 0.0
H766 H 0.099 0.29924 0.71503 0.0
H767 H 0.06621 0.29648 0.68947 0.0
C768 C 0.72614 0.04022 0.06096 0.0
C769 C 0.75231 0.07731 0.06516 0.0
C770 C 0.71573 0.0299 0.04455 0.0
C771 C 0.75587 0.05586 0.00346 0.0
H772 H 0.65753 0.97883 0.98907 0.0
C773 C 0.73124 1.00166 0.93671 0.0
C774 C 0.708 0.96311 0.93393 0.0
C775 C 0.73278 0.01735 0.95215 0.0
C776 C 0.68522 1.00009 0.99292 0.0
H777 H 0.78681 0.13322 0.05554 0.0
H778 H 0.76887 0.11511 0.0265 0.0
H779 H 0.66584 0.0055 0.01681 0.0
H780 H 0.66755 0.91082 0.94525 0.0
H781 H 0.67106 0.93813 0.97264 0.0
H782 H 0.77574 0.04965 0.97998 0.0
C783 C 0.75634 0.09402 0.03606 0.0
C784 C 0.68994 0.01559 0.00877 0.0
C785 C 0.76635 0.1045 0.05265 0.0
C786 C 0.68572 0.94061 0.947 0.0
C787 C 0.68761 0.95636 0.96265 0.0
C788 C 0.75124 0.04024 0.98769 0.0
C789 C 0.73165 0.05633 0.03182 0.0
C790 C 0.72542 0.0434 0.01429 0.0
C791 C 0.71161 0.99494 0.96546 0.0
C792 C 0.71591 0.01193 0.98222 0.0
H793 H 0.71474 0.01861 0.07028 0.0
H794 H 0.69696 1.00065 0.04179 0.0
H795 H 0.78371 0.07657 0.00742 0.0
H796 H 0.74865 0.02003 0.92695 0.0
H797 H 0.75085 0.04723 0.95364 0.0
C798 C 0.75951 0.68648 0.28225 0.0
C799 C 0.75372 0.70341 0.26838 0.0
C800 C 0.74845 0.69143 0.29804 0.0
C801 C 0.72423 0.75503 0.32096 0.0
H802 H 0.68895 0.67746 0.35435 0.0
C803 C 0.6754 0.77188 0.38652 0.0
C804 C 0.69244 0.76299 0.39941 0.0
C805 C 0.67834 0.76242 0.37008 0.0
C806 C 0.69868 0.69937 0.34512 0.0
H807 H 0.73064 0.73777 0.26016 0.0
H808 H 0.71034 0.74508 0.28723 0.0
H809 H 0.70346 0.66479 0.32667 0.0
H810 H 0.72559 0.73687 0.40508 0.0
H811 H 0.72986 0.72 0.3769 0.0
H812 H 0.71942 0.78954 0.33949 0.0
C813 C 0.72442 0.729 0.28619 0.0
C814 C 0.7073 0.69222 0.32928 0.0
C815 C 0.73582 0.72447 0.27056 0.0
C816 C 0.71176 0.74395 0.39557 0.0
C817 C 0.71415 0.73405 0.37934 0.0
C818 C 0.71526 0.76203 0.33675 0.0
C819 C 0.73106 0.71312 0.30023 0.0
C820 C 0.72064 0.7201 0.31702 0.0
C821 C 0.69778 0.74334 0.36637 0.0
C822 C 0.70292 0.73448 0.34908 0.0
H823 H 0.7733 0.67018 0.28097 0.0
H824 H 0.7544 0.67903 0.30857 0.0
H825 H 0.73502 0.7775 0.31198 0.0
H826 H 0.66044 0.78663 0.38907 0.0
H827 H 0.66543 0.76994 0.36029 0.0
C828 C 0.06707 0.78877 0.61601 0.0
C829 C 0.08467 0.77186 0.6078 0.0
C830 C 0.04608 0.77278 0.63025 0.0
C831 C 0.0233 0.70538 0.66402 0.0
H832 H 0.92727 0.70074 0.66165 0.0
C833 C 0.91886 0.64763 0.71854 0.0
C834 C 0.90657 0.67229 0.72348 0.0
C835 C 0.93556 0.65163 0.70299 0.0
C836 C 0.95392 0.70177 0.66255 0.0
H837 H 0.09547 0.72572 0.60834 0.0
H838 H 0.05887 0.69766 0.63368 0.0
H839 H 0.9706 0.72635 0.63855 0.0
H840 H 0.90015 0.71893 0.7159 0.0
H841 H 0.92779 0.72522 0.68872 0.0
H842 H 0.007 0.68196 0.68834 0.0
C843 C 0.06168 0.72358 0.62908 0.0
C844 C 0.97883 0.71655 0.64932 0.0
C845 C 0.08296 0.73982 0.61472 0.0
C846 C 0.90837 0.69886 0.71217 0.0
C847 C 0.92459 0.70262 0.69662 0.0
C848 C 0.99834 0.6907 0.67737 0.0
C849 C 0.04173 0.73912 0.63655 0.0
C850 C 0.01424 0.71956 0.65007 0.0
C851 C 0.93995 0.6802 0.6921 0.0
C852 C 0.96372 0.68967 0.67697 0.0
H853 H 0.06762 0.81323 0.6108 0.0
H854 H 0.03178 0.78591 0.63591 0.0
H855 H 0.05032 0.70723 0.66494 0.0
H856 H 0.91851 0.62743 0.72719 0.0
H857 H 0.94668 0.63361 0.69983 0.0
C858 C 0.24453 0.91939 0.05338 0.0
C859 C 0.25341 0.94483 0.06649 0.0
C860 C 0.25372 0.93238 0.03703 0.0
C861 C 0.31515 0.01646 0.01209 0.0
H862 H 0.2357 0.97347 0.97959 0.0
C863 C 0.32522 0.08734 0.94851 0.0
C864 C 0.3077 0.06378 0.93492 0.0
C865 C 0.32098 0.07227 0.96449 0.0
C866 C 0.25853 0.9855 0.98837 0.0
H867 H 0.27985 1.00383 0.07269 0.0
H868 H 0.29628 0.02611 0.04453 0.0
H869 H 0.22511 0.94641 0.00716 0.0
H870 H 0.27298 0.00583 0.92744 0.0
H871 H 0.26698 0.97987 0.95477 0.0
H872 H 0.3487 0.05551 0.99332 0.0
C873 C 0.28226 0.99626 0.04677 0.0
C874 C 0.25236 0.96988 0.00421 0.0
C875 C 0.2726 0.98335 0.06295 0.0
C876 C 0.28675 0.02497 0.93759 0.0
C877 C 0.28295 0.00997 0.95339 0.0
C878 C 0.3215 0.03189 0.99617 0.0
C879 C 0.27256 0.97102 0.03358 0.0
C880 C 0.28044 0.98539 0.0163 0.0
C881 C 0.29941 0.03332 0.96714 0.0
C882 C 0.29317 0.0168 0.98411 0.0
H883 H 0.22969 0.88957 0.05571 0.0
H884 H 0.24599 0.91226 0.02709 0.0
H885 H 0.33744 0.02891 0.02113 0.0
H886 H 0.34148 0.11736 0.94685 0.0
H887 H 0.33385 0.09124 0.97478 0.0
loop_
_geom_bond_atom_site_label_1
_geom_bond_atom_site_label_2
_geom_bond_distance
_geom_bond_site_symmetry_2
_ccdc_geom_bond_type
Co0 O1 2.216 . S
Co0 O2 2.091 . S
Co0 O4 2.004 . S
Co0 O10 2.021 . S
Co0 O12 2.137 . S
Co0 O13 2.244 . S
O1 Co0 2.216 . S
O1 C8 1.247 . S
O2 Co0 2.091 . S
O2 C8 1.261 . S
C3 O12 1.247 . S
C3 O13 1.272 . S
O4 Co0 2.004 . S
O4 C9 1.259 . S
Co5 O6 2.061 . S
Co5 O11 2.052 . S
Co5 O13 2.135 . S
O6 Co5 2.061 . S
O6 C9 1.235 . S
C7 O10 1.238 . S
C7 O11 1.241 . S
C8 O1 1.247 . S
C8 O2 1.261 . S
C9 O4 1.259 . S
C9 O6 1.235 . S
O10 Co0 2.021 . S
O10 C7 1.238 . S
O11 Co5 2.052 . S
O11 C7 1.241 . S
O12 Co0 2.137 . S
O12 C3 1.247 . S
O13 Co0 2.244 . S
O13 C3 1.272 . S
O13 Co5 2.135 . S
Co14 O15 2.216 . S
Co14 O16 2.091 . S
Co14 O18 2.004 . S
Co14 O24 2.021 . S
Co14 O26 2.137 . S
Co14 O27 2.244 . S
O15 Co14 2.216 . S
O15 C22 1.247 . S
O16 Co14 2.091 . S
O16 C22 1.261 . S
C17 O26 1.247 . S
C17 O27 1.272 . S
O18 Co14 2.004 . S
O18 C23 1.259 . S
Co19 O20 2.061 1_455 S
Co19 O25 2.052 . S
Co19 O27 2.135 1_455 S
O20 Co19 2.061 1_655 S
O20 C23 1.235 . S
C21 O24 1.238 1_455 S
C21 O25 1.241 . S
C22 O15 1.247 . S
C22 O16 1.261 . S
C23 O18 1.259 . S
C23 O20 1.235 . S
O24 Co14 2.021 . S
O24 C21 1.238 1_655 S
O25 Co19 2.052 . S
O25 C21 1.241 . S
O26 Co14 2.137 . S
O26 C17 1.247 . S
O27 Co14 2.244 . S
O27 C17 1.272 . S
O27 Co19 2.135 1_655 S
Co28 O29 2.216 . S
Co28 O30 2.091 . S
Co28 O32 2.004 . S
Co28 O38 2.021 . S
Co28 O40 2.137 . S
Co28 O41 2.244 . S
O29 Co28 2.216 . S
O29 C36 1.247 . S
O30 Co28 2.091 . S
O30 C36 1.261 . S
C31 O40 1.247 . S
C31 O41 1.272 . S
O32 Co28 2.004 . S
O32 C37 1.259 . S
Co33 O34 2.061 1_545 S
Co33 O39 2.052 . S
Co33 O41 2.135 1_545 S
O34 Co33 2.061 1_565 S
O34 C37 1.235 . S
C35 O38 1.238 1_545 S
C35 O39 1.241 . S
C36 O29 1.247 . S
C36 O30 1.261 . S
C37 O32 1.259 . S
C37 O34 1.235 . S
O38 Co28 2.021 . S
O38 C35 1.238 1_565 S
O39 Co33 2.052 . S
O39 C35 1.241 . S
O40 Co28 2.137 . S
O40 C31 1.247 . S
O41 Co28 2.244 . S
O41 C31 1.272 . S
O41 Co33 2.135 1_565 S
Co42 O43 2.216 . S
Co42 O44 2.091 . S
Co42 O46 2.004 . S
Co42 O52 2.021 . S
Co42 O54 2.137 . S
Co42 O55 2.244 . S
O43 Co42 2.216 . S
O43 C50 1.247 . S
O44 Co42 2.091 . S
O44 C50 1.261 . S
C45 O54 1.247 . S
C45 O55 1.272 . S
O46 Co42 2.004 . S
O46 C51 1.259 . S
Co47 O48 2.061 . S
Co47 O53 2.052 . S
Co47 O55 2.135 . S
O48 Co47 2.061 . S
O48 C51 1.235 . S
C49 O52 1.238 . S
C49 O53 1.241 . S
C50 O43 1.247 . S
C50 O44 1.261 . S
C51 O46 1.259 . S
C51 O48 1.235 . S
O52 Co42 2.021 . S
O52 C49 1.238 . S
O53 Co47 2.052 . S
O53 C49 1.241 . S
O54 Co42 2.137 . S
O54 C45 1.247 . S
O55 Co42 2.244 . S
O55 C45 1.272 . S
O55 Co47 2.135 . S
Co56 O57 2.216 . S
Co56 O58 2.091 . S
Co56 O60 2.004 . S
Co56 O66 2.021 . S
Co56 O68 2.137 . S
Co56 O69 2.244 . S
O57 Co56 2.216 . S
O57 C64 1.247 . S
O58 Co56 2.091 . S
O58 C64 1.261 . S
C59 O68 1.247 . S
C59 O69 1.272 . S
O60 Co56 2.004 . S
O60 C65 1.259 . S
Co61 O62 2.061 1_655 S
Co61 O67 2.052 . S
Co61 O69 2.135 1_655 S
O62 Co61 2.061 1_455 S
O62 C65 1.235 . S
C63 O66 1.238 1_655 S
C63 O67 1.241 . S
C64 O57 1.247 . S
C64 O58 1.261 . S
C65 O60 1.259 . S
C65 O62 1.235 . S
O66 Co56 2.021 . S
O66 C63 1.238 1_455 S
O67 Co61 2.052 . S
O67 C63 1.241 . S
O68 Co56 2.137 . S
O68 C59 1.247 . S
O69 Co56 2.244 . S
O69 C59 1.272 . S
O69 Co61 2.135 1_455 S
Co70 O71 2.216 . S
Co70 O72 2.091 . S
Co70 O74 2.004 . S
Co70 O80 2.021 . S
Co70 O82 2.137 . S
Co70 O83 2.244 . S
O71 Co70 2.216 . S
O71 C78 1.247 . S
O72 Co70 2.091 . S
O72 C78 1.261 . S
C73 O82 1.247 . S
C73 O83 1.272 . S
O74 Co70 2.004 . S
O74 C79 1.259 . S
Co75 O76 2.061 1_565 S
Co75 O81 2.052 . S
Co75 O83 2.135 1_565 S
O76 Co75 2.061 1_545 S
O76 C79 1.235 . S
C77 O80 1.238 1_565 S
C77 O81 1.241 . S
C78 O71 1.247 . S
C78 O72 1.261 . S
C79 O74 1.259 . S
C79 O76 1.235 . S
O80 Co70 2.021 . S
O80 C77 1.238 1_545 S
O81 Co75 2.052 . S
O81 C77 1.241 . S
O82 Co70 2.137 . S
O82 C73 1.247 . S
O83 Co70 2.244 . S
O83 C73 1.272 . S
O83 Co75 2.135 1_545 S
Co84 O85 2.216 . S
Co84 O86 2.091 . S
Co84 O88 2.004 . S
Co84 O94 2.021 . S
Co84 O96 2.137 . S
Co84 O97 2.244 . S
O85 Co84 2.216 . S
O85 C92 1.247 . S
O86 Co84 2.091 . S
O86 C92 1.261 . S
C87 O96 1.247 . S
C87 O97 1.272 . S
O88 Co84 2.004 . S
O88 C93 1.259 . S
Co89 O90 2.061 . S
Co89 O95 2.052 . S
Co89 O97 2.135 . S
O90 Co89 2.061 . S
O90 C93 1.235 . S
C91 O94 1.238 . S
C91 O95 1.241 . S
C92 O85 1.247 . S
C92 O86 1.261 . S
C93 O88 1.259 . S
C93 O90 1.235 . S
O94 Co84 2.021 . S
O94 C91 1.238 . S
O95 Co89 2.052 . S
O95 C91 1.241 . S
O96 Co84 2.137 . S
O96 C87 1.247 . S
O97 Co84 2.244 . S
O97 C87 1.272 . S
O97 Co89 2.135 . S
Co98 O99 2.216 . S
Co98 O100 2.091 . S
Co98 O102 2.004 . S
Co98 O108 2.021 . S
Co98 O110 2.137 . S
Co98 O111 2.244 . S
O99 Co98 2.216 . S
O99 C106 1.247 . S
O100 Co98 2.091 . S
O100 C106 1.261 . S
C101 O110 1.247 . S
C101 O111 1.272 . S
O102 Co98 2.004 . S
O102 C107 1.259 . S
Co103 O104 2.061 1_455 S
Co103 O109 2.052 . S
Co103 O111 2.135 1_455 S
O104 Co103 2.061 1_655 S
O104 C107 1.235 . S
C105 O108 1.238 1_455 S
C105 O109 1.241 . S
C106 O99 1.247 . S
C106 O100 1.261 . S
C107 O102 1.259 . S
C107 O104 1.235 . S
O108 Co98 2.021 . S
O108 C105 1.238 1_655 S
O109 Co103 2.052 . S
O109 C105 1.241 . S
O110 Co98 2.137 . S
O110 C101 1.247 . S
O111 Co98 2.244 . S
O111 C101 1.272 . S
O111 Co103 2.135 1_655 S
Co112 O113 2.216 . S
Co112 O114 2.091 . S
Co112 O116 2.004 . S
Co112 O122 2.021 . S
Co112 O124 2.137 . S
Co112 O125 2.244 . S
O113 Co112 2.216 . S
O113 C120 1.247 . S
O114 Co112 2.091 . S
O114 C120 1.261 . S
C115 O124 1.247 . S
C115 O125 1.272 . S
O116 Co112 2.004 . S
O116 C121 1.259 . S
Co117 O118 2.061 1_545 S
Co117 O123 2.052 . S
Co117 O125 2.135 1_545 S
O118 Co117 2.061 1_565 S
O118 C121 1.235 . S
C119 O122 1.238 1_545 S
C119 O123 1.241 . S
C120 O113 1.247 . S
C120 O114 1.261 . S
C121 O116 1.259 . S
C121 O118 1.235 . S
O122 Co112 2.021 . S
O122 C119 1.238 1_565 S
O123 Co117 2.052 . S
O123 C119 1.241 . S
O124 Co112 2.137 . S
O124 C115 1.247 . S
O125 Co112 2.244 . S
O125 C115 1.272 . S
O125 Co117 2.135 1_565 S
Co126 O127 2.216 . S
Co126 O128 2.091 . S
Co126 O130 2.004 . S
Co126 O136 2.021 . S
Co126 O138 2.137 . S
Co126 O139 2.244 . S
O127 Co126 2.216 . S
O127 C134 1.247 . S
O128 Co126 2.091 . S
O128 C134 1.261 . S
C129 O138 1.247 . S
C129 O139 1.272 . S
O130 Co126 2.004 . S
O130 C135 1.259 . S
Co131 O132 2.061 . S
Co131 O137 2.052 . S
Co131 O139 2.135 . S
O132 Co131 2.061 . S
O132 C135 1.235 . S
C133 O136 1.238 . S
C133 O137 1.241 . S
C134 O127 1.247 . S
C134 O128 1.261 . S
C135 O130 1.259 . S
C135 O132 1.235 . S
O136 Co126 2.021 . S
O136 C133 1.238 . S
O137 Co131 2.052 . S
O137 C133 1.241 . S
O138 Co126 2.137 . S
O138 C129 1.247 . S
O139 Co126 2.244 . S
O139 C129 1.272 . S
O139 Co131 2.135 . S
Co140 O141 2.216 . S
Co140 O142 2.091 . S
Co140 O144 2.004 . S
Co140 O150 2.021 . S
Co140 O152 2.137 . S
Co140 O153 2.244 . S
O141 Co140 2.216 . S
O141 C148 1.247 . S
O142 Co140 2.091 . S
O142 C148 1.261 . S
C143 O152 1.247 . S
C143 O153 1.272 . S
O144 Co140 2.004 . S
O144 C149 1.259 . S
Co145 O146 2.061 1_655 S
Co145 O151 2.052 . S
Co145 O153 2.135 1_655 S
O146 Co145 2.061 1_455 S
O146 C149 1.235 . S
C147 O150 1.238 1_655 S
C147 O151 1.241 . S
C148 O141 1.247 . S
C148 O142 1.261 . S
C149 O144 1.259 . S
C149 O146 1.235 . S
O150 Co140 2.021 . S
O150 C147 1.238 1_455 S
O151 Co145 2.052 . S
O151 C147 1.241 . S
O152 Co140 2.137 . S
O152 C143 1.247 . S
O153 Co140 2.244 . S
O153 C143 1.272 . S
O153 Co145 2.135 1_455 S
Co154 O155 2.216 . S
Co154 O156 2.091 . S
Co154 O158 2.004 . S
Co154 O164 2.021 . S
Co154 O166 2.137 . S
Co154 O167 2.244 . S
O155 Co154 2.216 . S
O155 C162 1.247 . S
O156 Co154 2.091 . S
O156 C162 1.261 . S
C157 O166 1.247 . S
C157 O167 1.272 . S
O158 Co154 2.004 . S
O158 C163 1.259 . S
Co159 O160 2.061 1_565 S
Co159 O165 2.052 . S
Co159 O167 2.135 1_565 S
O160 Co159 2.061 1_545 S
O160 C163 1.235 . S
C161 O164 1.238 1_565 S
C161 O165 1.241 . S
C162 O155 1.247 . S
C162 O156 1.261 . S
C163 O158 1.259 . S
C163 O160 1.235 . S
O164 Co154 2.021 . S
O164 C161 1.238 1_545 S
O165 Co159 2.052 . S
O165 C161 1.241 . S
O166 Co154 2.137 . S
O166 C157 1.247 . S
O167 Co154 2.244 . S
O167 C157 1.272 . S
O167 Co159 2.135 1_545 S
C168 C169 1.349 . S
C168 C170 1.327 . S
C168 H193 0.950 . S
C169 C168 1.349 . S
C169 C185 1.349 . S
C170 C168 1.327 . S
C170 C189 1.429 . S
C170 H194 0.950 . S
C171 C188 1.574 1_655 S
C171 C190 1.368 . S
C171 H195 0.949 . S
H172 C176 0.949 . S
C173 C174 1.349 . S
C173 C175 1.327 . S
C173 H196 0.950 . S
C174 C173 1.349 . S
C174 C186 1.349 . S
C175 C173 1.327 . S
C175 C191 1.429 . S
C175 H197 0.950 . S
C176 H172 0.949 . S
C176 C184 1.574 1_455 S
C176 C192 1.368 . S
H177 C185 0.950 . S
H178 C183 0.950 . S
H179 C184 0.949 . S
H180 C186 0.950 . S
H181 C187 0.950 . S
H182 C188 0.949 . S
C183 H178 0.950 . S
C183 C185 1.327 . S
C183 C189 1.429 . S
C184 C176 1.574 1_655 S
C184 H179 0.949 . S
C184 C190 1.368 . S
C185 C169 1.349 . S
C185 H177 0.950 . S
C185 C183 1.327 . S
C186 C174 1.349 . S
C186 H180 0.950 . S
C186 C187 1.327 . S
C187 H181 0.950 . S
C187 C186 1.327 . S
C187 C191 1.429 . S
C188 C171 1.574 1_455 S
C188 H182 0.949 . S
C188 C192 1.368 . S
C189 C170 1.429 . S
C189 C183 1.429 . S
C189 C190 1.523 . S
C190 C171 1.368 . S
C190 C184 1.368 . S
C190 C189 1.523 . S
C191 C175 1.429 . S
C191 C187 1.429 . S
C191 C192 1.523 . S
C192 C176 1.368 . S
C192 C188 1.368 . S
C192 C191 1.523 . S
H193 C168 0.950 . S
H194 C170 0.950 . S
H195 C171 0.949 . S
H196 C173 0.950 . S
H197 C175 0.950 . S
C198 C199 1.349 . S
C198 C200 1.327 . S
C198 H223 0.950 . S
C199 C198 1.349 . S
C199 C215 1.349 . S
C200 C198 1.327 . S
C200 C219 1.429 . S
C200 H224 0.950 . S
C201 C218 1.574 1_545 S
C201 C220 1.368 . S
C201 H225 0.949 . S
H202 C206 0.949 . S
C203 C204 1.349 . S
C203 C205 1.327 . S
C203 H226 0.950 . S
C204 C203 1.349 . S
C204 C216 1.349 . S
C205 C203 1.327 . S
C205 C221 1.429 . S
C205 H227 0.950 . S
C206 H202 0.949 . S
C206 C214 1.574 1_565 S
C206 C222 1.368 . S
H207 C215 0.950 . S
H208 C213 0.950 . S
H209 C214 0.949 . S
H210 C216 0.950 . S
H211 C217 0.950 . S
H212 C218 0.949 . S
C213 H208 0.950 . S
C213 C215 1.327 . S
C213 C219 1.429 . S
C214 C206 1.574 1_545 S
C214 H209 0.949 . S
C214 C220 1.368 . S
C215 C199 1.349 . S
C215 H207 0.950 . S
C215 C213 1.327 . S
C216 C204 1.349 . S
C216 H210 0.950 . S
C216 C217 1.327 . S
C217 H211 0.950 . S
C217 C216 1.327 . S
C217 C221 1.429 . S
C218 C201 1.574 1_565 S
C218 H212 0.949 . S
C218 C222 1.368 . S
C219 C200 1.429 . S
C219 C213 1.429 . S
C219 C220 1.523 . S
C220 C201 1.368 . S
C220 C214 1.368 . S
C220 C219 1.523 . S
C221 C205 1.429 . S
C221 C217 1.429 . S
C221 C222 1.523 . S
C222 C206 1.368 . S
C222 C218 1.368 . S
C222 C221 1.523 . S
H223 C198 0.950 . S
H224 C200 0.950 . S
H225 C201 0.949 . S
H226 C203 0.950 . S
H227 C205 0.950 . S
C228 C229 1.349 . S
C228 C230 1.327 . S
C228 H253 0.950 . S
C229 C228 1.349 . S
C229 C245 1.349 . S
C230 C228 1.327 . S
C230 C249 1.429 . S
C230 H254 0.950 . S
C231 C248 1.574 . S
C231 C250 1.368 . S
C231 H255 0.949 . S
H232 C236 0.949 . S
C233 C234 1.349 . S
C233 C235 1.327 . S
C233 H256 0.950 . S
C234 C233 1.349 . S
C234 C246 1.349 . S
C235 C233 1.327 . S
C235 C251 1.429 . S
C235 H257 0.950 . S
C236 H232 0.949 . S
C236 C244 1.574 . S
C236 C252 1.368 . S
H237 C245 0.950 . S
H238 C243 0.950 . S
H239 C244 0.949 . S
H240 C246 0.950 . S
H241 C247 0.950 . S
H242 C248 0.949 . S
C243 H238 0.950 . S
C243 C245 1.327 . S
C243 C249 1.429 . S
C244 C236 1.574 . S
C244 H239 0.949 . S
C244 C250 1.368 . S
C245 C229 1.349 . S
C245 H237 0.950 . S
C245 C243 1.327 . S
C246 C234 1.349 . S
C246 H240 0.950 . S
C246 C247 1.327 . S
C247 H241 0.950 . S
C247 C246 1.327 . S
C247 C251 1.429 . S
C248 C231 1.574 . S
C248 H242 0.949 . S
C248 C252 1.368 . S
C249 C230 1.429 . S
C249 C243 1.429 . S
C249 C250 1.523 . S
C250 C231 1.368 . S
C250 C244 1.368 . S
C250 C249 1.523 . S
C251 C235 1.429 . S
C251 C247 1.429 . S
C251 C252 1.523 . S
C252 C236 1.368 . S
C252 C248 1.368 . S
C252 C251 1.523 . S
H253 C228 0.950 . S
H254 C230 0.950 . S
H255 C231 0.949 . S
H256 C233 0.950 . S
H257 C235 0.950 . S
C258 C259 1.349 . S
C258 C260 1.327 . S
C258 H283 0.950 . S
C259 C258 1.349 . S
C259 C275 1.349 . S
C260 C258 1.327 . S
C260 C279 1.429 . S
C260 H284 0.950 . S
C261 C278 1.574 1_655 S
C261 C280 1.368 . S
C261 H285 0.949 . S
H262 C266 0.949 . S
C263 C264 1.349 . S
C263 C265 1.327 . S
C263 H286 0.950 . S
C264 C263 1.349 . S
C264 C276 1.349 . S
C265 C263 1.327 . S
C265 C281 1.429 . S
C265 H287 0.950 . S
C266 H262 0.949 . S
C266 C274 1.574 1_455 S
C266 C282 1.368 . S
H267 C275 0.950 . S
H268 C273 0.950 . S
H269 C274 0.949 . S
H270 C276 0.950 . S
H271 C277 0.950 . S
H272 C278 0.949 . S
C273 H268 0.950 . S
C273 C275 1.327 . S
C273 C279 1.429 . S
C274 C266 1.574 1_655 S
C274 H269 0.949 . S
C274 C280 1.368 . S
C275 C259 1.349 . S
C275 H267 0.950 . S
C275 C273 1.327 . S
C276 C264 1.349 . S
C276 H270 0.950 . S
C276 C277 1.327 . S
C277 H271 0.950 . S
C277 C276 1.327 . S
C277 C281 1.429 . S
C278 C261 1.574 1_455 S
C278 H272 0.949 . S
C278 C282 1.368 . S
C279 C260 1.429 . S
C279 C273 1.429 . S
C279 C280 1.523 . S
C280 C261 1.368 . S
C280 C274 1.368 . S
C280 C279 1.523 . S
C281 C265 1.429 . S
C281 C277 1.429 . S
C281 C282 1.523 . S
C282 C266 1.368 . S
C282 C278 1.368 . S
C282 C281 1.523 . S
H283 C258 0.950 . S
H284 C260 0.950 . S
H285 C261 0.949 . S
H286 C263 0.950 . S
H287 C265 0.950 . S
C288 C289 1.349 . S
C288 C290 1.327 . S
C288 H313 0.950 . S
C289 C288 1.349 . S
C289 C305 1.349 . S
C290 C288 1.327 . S
C290 C309 1.429 . S
C290 H314 0.950 . S
C291 C308 1.574 1_545 S
C291 C310 1.368 . S
C291 H315 0.949 . S
H292 C296 0.949 . S
C293 C294 1.349 . S
C293 C295 1.327 . S
C293 H316 0.950 . S
C294 C293 1.349 . S
C294 C306 1.349 . S
C295 C293 1.327 . S
C295 C311 1.429 . S
C295 H317 0.950 . S
C296 H292 0.949 . S
C296 C304 1.574 1_565 S
C296 C312 1.368 . S
H297 C305 0.950 . S
H298 C303 0.950 . S
H299 C304 0.949 . S
H300 C306 0.950 . S
H301 C307 0.950 . S
H302 C308 0.949 . S
C303 H298 0.950 . S
C303 C305 1.327 . S
C303 C309 1.429 . S
C304 C296 1.574 1_545 S
C304 H299 0.949 . S
C304 C310 1.368 . S
C305 C289 1.349 . S
C305 H297 0.950 . S
C305 C303 1.327 . S
C306 C294 1.349 . S
C306 H300 0.950 . S
C306 C307 1.327 . S
C307 H301 0.950 . S
C307 C306 1.327 . S
C307 C311 1.429 . S
C308 C291 1.574 1_565 S
C308 H302 0.949 . S
C308 C312 1.368 . S
C309 C290 1.429 . S
C309 C303 1.429 . S
C309 C310 1.523 . S
C310 C291 1.368 . S
C310 C304 1.368 . S
C310 C309 1.523 . S
C311 C295 1.429 . S
C311 C307 1.429 . S
C311 C312 1.523 . S
C312 C296 1.368 . S
C312 C308 1.368 . S
C312 C311 1.523 . S
H313 C288 0.950 . S
H314 C290 0.950 . S
H315 C291 0.949 . S
H316 C293 0.950 . S
H317 C295 0.950 . S
C318 C319 1.349 . S
C318 C320 1.327 . S
C318 H343 0.950 . S
C319 C318 1.349 . S
C319 C335 1.349 . S
C320 C318 1.327 . S
C320 C339 1.429 . S
C320 H344 0.950 . S
C321 C338 1.574 . S
C321 C340 1.368 . S
C321 H345 0.949 . S
H322 C326 0.949 . S
C323 C324 1.349 . S
C323 C325 1.327 . S
C323 H346 0.950 . S
C324 C323 1.349 . S
C324 C336 1.349 . S
C325 C323 1.327 . S
C325 C341 1.429 . S
C325 H347 0.950 . S
C326 H322 0.949 . S
C326 C334 1.574 . S
C326 C342 1.368 . S
H327 C335 0.950 . S
H328 C333 0.950 . S
H329 C334 0.949 . S
H330 C336 0.950 . S
H331 C337 0.950 . S
H332 C338 0.949 . S
C333 H328 0.950 . S
C333 C335 1.327 . S
C333 C339 1.429 . S
C334 C326 1.574 . S
C334 H329 0.949 . S
C334 C340 1.368 . S
C335 C319 1.349 . S
C335 H327 0.950 . S
C335 C333 1.327 . S
C336 C324 1.349 . S
C336 H330 0.950 . S
C336 C337 1.327 . S
C337 H331 0.950 . S
C337 C336 1.327 . S
C337 C341 1.429 . S
C338 C321 1.574 . S
C338 H332 0.949 . S
C338 C342 1.368 . S
C339 C320 1.429 . S
C339 C333 1.429 . S
C339 C340 1.523 . S
C340 C321 1.368 . S
C340 C334 1.368 . S
C340 C339 1.523 . S
C341 C325 1.429 . S
C341 C337 1.429 . S
C341 C342 1.523 . S
C342 C326 1.368 . S
C342 C338 1.368 . S
C342 C341 1.523 . S
H343 C318 0.950 . S
H344 C320 0.950 . S
H345 C321 0.949 . S
H346 C323 0.950 . S
H347 C325 0.950 . S
C348 C349 1.349 . S
C348 C350 1.327 . S
C348 H373 0.950 . S
C349 C348 1.349 . S
C349 C365 1.349 . S
C350 C348 1.327 . S
C350 C369 1.429 . S
C350 H374 0.950 . S
C351 C368 1.574 . S
C351 C370 1.368 . S
C351 H375 0.949 . S
H352 C356 0.949 . S
C353 C354 1.349 . S
C353 C355 1.327 . S
C353 H376 0.950 . S
C354 C353 1.349 . S
C354 C366 1.349 . S
C355 C353 1.327 . S
C355 C371 1.429 . S
C355 H377 0.950 . S
C356 H352 0.949 . S
C356 C364 1.574 . S
C356 C372 1.368 . S
H357 C365 0.950 . S
H358 C363 0.950 . S
H359 C364 0.949 . S
H360 C366 0.950 . S
H361 C367 0.950 . S
H362 C368 0.949 . S
C363 H358 0.950 . S
C363 C365 1.327 . S
C363 C369 1.429 . S
C364 C356 1.574 . S
C364 H359 0.949 . S
C364 C370 1.368 . S
C365 C349 1.349 . S
C365 H357 0.950 . S
C365 C363 1.327 . S
C366 C354 1.349 . S
C366 H360 0.950 . S
C366 C367 1.327 . S
C367 H361 0.950 . S
C367 C366 1.327 . S
C367 C371 1.429 . S
C368 C351 1.574 . S
C368 H362 0.949 . S
C368 C372 1.368 . S
C369 C350 1.429 . S
C369 C363 1.429 . S
C369 C370 1.523 . S
C370 C351 1.368 . S
C370 C364 1.368 . S
C370 C369 1.523 . S
C371 C355 1.429 . S
C371 C367 1.429 . S
C371 C372 1.523 . S
C372 C356 1.368 . S
C372 C368 1.368 . S
C372 C371 1.523 . S
H373 C348 0.950 . S
H374 C350 0.950 . S
H375 C351 0.949 . S
H376 C353 0.950 . S
H377 C355 0.950 . S
C378 C379 1.349 . S
C378 C380 1.327 . S
C378 H403 0.950 . S
C379 C378 1.349 . S
C379 C395 1.349 . S
C380 C378 1.327 . S
C380 C399 1.429 . S
C380 H404 0.950 1_455 S
C381 C398 1.574 . S
C381 C400 1.368 . S
C381 H405 0.949 . S
H382 C386 0.949 . S
C383 C384 1.349 . S
C383 C385 1.327 . S
C383 H406 0.950 . S
C384 C383 1.349 . S
C384 C396 1.349 . S
C385 C383 1.327 . S
C385 C401 1.429 . S
C385 H407 0.950 1_655 S
C386 H382 0.949 . S
C386 C394 1.574 . S
C386 C402 1.368 . S
H387 C395 0.950 . S
H388 C393 0.950 . S
H389 C394 0.949 . S
H390 C396 0.950 . S
H391 C397 0.950 . S
H392 C398 0.949 . S
C393 H388 0.950 . S
C393 C395 1.327 . S
C393 C399 1.429 . S
C394 C386 1.574 . S
C394 H389 0.949 . S
C394 C400 1.368 1_655 S
C395 C379 1.349 . S
C395 H387 0.950 . S
C395 C393 1.327 . S
C396 C384 1.349 . S
C396 H390 0.950 . S
C396 C397 1.327 . S
C397 H391 0.950 . S
C397 C396 1.327 . S
C397 C401 1.429 . S
C398 C381 1.574 . S
C398 H392 0.949 . S
C398 C402 1.368 1_455 S
C399 C380 1.429 . S
C399 C393 1.429 . S
C399 C400 1.523 . S
C400 C381 1.368 . S
C400 C394 1.368 1_455 S
C400 C399 1.523 . S
C401 C385 1.429 . S
C401 C397 1.429 . S
C401 C402 1.523 . S
C402 C386 1.368 . S
C402 C398 1.368 1_655 S
C402 C401 1.523 . S
H403 C378 0.950 . S
H404 C380 0.950 1_655 S
H405 C381 0.949 . S
H406 C383 0.950 . S
H407 C385 0.950 1_455 S
C408 C409 1.349 . S
C408 C410 1.327 . S
C408 H433 0.950 . S
C409 C408 1.349 . S
C409 C425 1.349 . S
C410 C408 1.327 . S
C410 C429 1.429 . S
C410 H434 0.950 1_545 S
C411 C428 1.574 . S
C411 C430 1.368 . S
C411 H435 0.949 . S
H412 C416 0.949 . S
C413 C414 1.349 . S
C413 C415 1.327 . S
C413 H436 0.950 . S
C414 C413 1.349 . S
C414 C426 1.349 . S
C415 C413 1.327 . S
C415 C431 1.429 . S
C415 H437 0.950 1_565 S
C416 H412 0.949 . S
C416 C424 1.574 . S
C416 C432 1.368 . S
H417 C425 0.950 . S
H418 C423 0.950 . S
H419 C424 0.949 . S
H420 C426 0.950 . S
H421 C427 0.950 . S
H422 C428 0.949 . S
C423 H418 0.950 . S
C423 C425 1.327 . S
C423 C429 1.429 . S
C424 C416 1.574 . S
C424 H419 0.949 . S
C424 C430 1.368 1_565 S
C425 C409 1.349 . S
C425 H417 0.950 . S
C425 C423 1.327 . S
C426 C414 1.349 . S
C426 H420 0.950 . S
C426 C427 1.327 . S
C427 H421 0.950 . S
C427 C426 1.327 . S
C427 C431 1.429 . S
C428 C411 1.574 . S
C428 H422 0.949 . S
C428 C432 1.368 1_545 S
C429 C410 1.429 . S
C429 C423 1.429 . S
C429 C430 1.523 . S
C430 C411 1.368 . S
C430 C424 1.368 1_545 S
C430 C429 1.523 . S
C431 C415 1.429 . S
C431 C427 1.429 . S
C431 C432 1.523 . S
C432 C416 1.368 . S
C432 C428 1.368 1_565 S
C432 C431 1.523 . S
H433 C408 0.950 . S
H434 C410 0.950 1_565 S
H435 C411 0.949 . S
H436 C413 0.950 . S
H437 C415 0.950 1_545 S
C438 C439 1.349 . S
C438 C440 1.327 . S
C438 H463 0.950 . S
C439 C438 1.349 . S
C439 C455 1.349 . S
C440 C438 1.327 . S
C440 C459 1.429 . S
C440 H464 0.950 . S
C441 C458 1.574 . S
C441 C460 1.368 . S
C441 H465 0.949 . S
H442 C446 0.949 . S
C443 C444 1.349 . S
C443 C445 1.327 . S
C443 H466 0.950 . S
C444 C443 1.349 . S
C444 C456 1.349 . S
C445 C443 1.327 . S
C445 C461 1.429 . S
C445 H467 0.950 . S
C446 H442 0.949 . S
C446 C454 1.574 . S
C446 C462 1.368 . S
H447 C455 0.950 . S
H448 C453 0.950 . S
H449 C454 0.949 . S
H450 C456 0.950 . S
H451 C457 0.950 . S
H452 C458 0.949 . S
C453 H448 0.950 . S
C453 C455 1.327 . S
C453 C459 1.429 . S
C454 C446 1.574 . S
C454 H449 0.949 . S
C454 C460 1.368 . S
C455 C439 1.349 . S
C455 H447 0.950 . S
C455 C453 1.327 . S
C456 C444 1.349 . S
C456 H450 0.950 . S
C456 C457 1.327 . S
C457 H451 0.950 . S
C457 C456 1.327 . S
C457 C461 1.429 . S
C458 C441 1.574 . S
C458 H452 0.949 . S
C458 C462 1.368 . S
C459 C440 1.429 . S
C459 C453 1.429 . S
C459 C460 1.523 . S
C460 C441 1.368 . S
C460 C454 1.368 . S
C460 C459 1.523 . S
C461 C445 1.429 . S
C461 C457 1.429 . S
C461 C462 1.523 . S
C462 C446 1.368 . S
C462 C458 1.368 . S
C462 C461 1.523 . S
H463 C438 0.950 . S
H464 C440 0.950 . S
H465 C441 0.949 . S
H466 C443 0.950 . S
H467 C445 0.950 . S
C468 C469 1.349 . S
C468 C470 1.327 . S
C468 H493 0.950 . S
C469 C468 1.349 . S
C469 C485 1.349 . S
C470 C468 1.327 . S
C470 C489 1.429 . S
C470 H494 0.950 . S
C471 C488 1.574 . S
C471 C490 1.368 1_455 S
C471 H495 0.949 . S
H472 C476 0.949 . S
C473 C474 1.349 . S
C473 C475 1.327 . S
C473 H496 0.950 . S
C474 C473 1.349 . S
C474 C486 1.349 . S
C475 C473 1.327 . S
C475 C491 1.429 . S
C475 H497 0.950 . S
C476 H472 0.949 . S
C476 C484 1.574 . S
C476 C492 1.368 1_655 S
H477 C485 0.950 . S
H478 C483 0.950 1_455 S
H479 C484 0.949 . S
H480 C486 0.950 . S
H481 C487 0.950 1_655 S
H482 C488 0.949 . S
C483 H478 0.950 1_655 S
C483 C485 1.327 . S
C483 C489 1.429 . S
C484 C476 1.574 . S
C484 H479 0.949 . S
C484 C490 1.368 . S
C485 C469 1.349 . S
C485 H477 0.950 . S
C485 C483 1.327 . S
C486 C474 1.349 . S
C486 H480 0.950 . S
C486 C487 1.327 . S
C487 H481 0.950 1_455 S
C487 C486 1.327 . S
C487 C491 1.429 . S
C488 C471 1.574 . S
C488 H482 0.949 . S
C488 C492 1.368 . S
C489 C470 1.429 . S
C489 C483 1.429 . S
C489 C490 1.523 . S
C490 C471 1.368 1_655 S
C490 C484 1.368 . S
C490 C489 1.523 . S
C491 C475 1.429 . S
C491 C487 1.429 . S
C491 C492 1.523 . S
C492 C476 1.368 1_455 S
C492 C488 1.368 . S
C492 C491 1.523 . S
H493 C468 0.950 . S
H494 C470 0.950 . S
H495 C471 0.949 . S
H496 C473 0.950 . S
H497 C475 0.950 . S
C498 C499 1.349 . S
C498 C500 1.327 . S
C498 H523 0.950 . S
C499 C498 1.349 . S
C499 C515 1.349 . S
C500 C498 1.327 . S
C500 C519 1.429 . S
C500 H524 0.950 1_565 S
C501 C518 1.574 . S
C501 C520 1.368 . S
C501 H525 0.949 . S
H502 C506 0.949 . S
C503 C504 1.349 . S
C503 C505 1.327 . S
C503 H526 0.950 . S
C504 C503 1.349 . S
C504 C516 1.349 . S
C505 C503 1.327 . S
C505 C521 1.429 . S
C505 H527 0.950 1_545 S
C506 H502 0.949 . S
C506 C514 1.574 . S
C506 C522 1.368 . S
H507 C515 0.950 . S
H508 C513 0.950 . S
H509 C514 0.949 . S
H510 C516 0.950 . S
H511 C517 0.950 . S
H512 C518 0.949 . S
C513 H508 0.950 . S
C513 C515 1.327 . S
C513 C519 1.429 . S
C514 C506 1.574 . S
C514 H509 0.949 . S
C514 C520 1.368 1_545 S
C515 C499 1.349 . S
C515 H507 0.950 . S
C515 C513 1.327 . S
C516 C504 1.349 . S
C516 H510 0.950 . S
C516 C517 1.327 . S
C517 H511 0.950 . S
C517 C516 1.327 . S
C517 C521 1.429 . S
C518 C501 1.574 . S
C518 H512 0.949 . S
C518 C522 1.368 1_565 S
C519 C500 1.429 . S
C519 C513 1.429 . S
C519 C520 1.523 . S
C520 C501 1.368 . S
C520 C514 1.368 1_565 S
C520 C519 1.523 . S
C521 C505 1.429 . S
C521 C517 1.429 . S
C521 C522 1.523 . S
C522 C506 1.368 . S
C522 C518 1.368 1_545 S
C522 C521 1.523 . S
H523 C498 0.950 . S
H524 C500 0.950 1_545 S
H525 C501 0.949 . S
H526 C503 0.950 . S
H527 C505 0.950 1_565 S
C528 C529 1.349 . S
C528 C530 1.327 . S
C528 H553 0.950 . S
C529 C528 1.349 . S
C529 C545 1.349 . S
C530 C528 1.327 . S
C530 C549 1.429 . S
C530 H554 0.950 . S
C531 C548 1.574 . S
C531 C550 1.368 . S
C531 H555 0.949 . S
H532 C536 0.949 . S
C533 C534 1.349 . S
C533 C535 1.327 . S
C533 H556 0.950 . S
C534 C533 1.349 . S
C534 C546 1.349 . S
C535 C533 1.327 . S
C535 C551 1.429 . S
C535 H557 0.950 . S
C536 H532 0.949 . S
C536 C544 1.574 . S
C536 C552 1.368 . S
H537 C545 0.950 1_565 S
H538 C543 0.950 . S
H539 C544 0.949 . S
H540 C546 0.950 . S
H541 C547 0.950 . S
H542 C548 0.949 . S
C543 H538 0.950 . S
C543 C545 1.327 . S
C543 C549 1.429 . S
C544 C536 1.574 . S
C544 H539 0.949 . S
C544 C550 1.368 . S
C545 C529 1.349 . S
C545 H537 0.950 1_545 S
C545 C543 1.327 . S
C546 C534 1.349 . S
C546 H540 0.950 . S
C546 C547 1.327 . S
C547 H541 0.950 . S
C547 C546 1.327 . S
C547 C551 1.429 . S
C548 C531 1.574 . S
C548 H542 0.949 . S
C548 C552 1.368 . S
C549 C530 1.429 . S
C549 C543 1.429 . S
C549 C550 1.523 . S
C550 C531 1.368 . S
C550 C544 1.368 . S
C550 C549 1.523 . S
C551 C535 1.429 . S
C551 C547 1.429 . S
C551 C552 1.523 . S
C552 C536 1.368 . S
C552 C548 1.368 . S
C552 C551 1.523 . S
H553 C528 0.950 . S
H554 C530 0.950 . S
H555 C531 0.949 . S
H556 C533 0.950 . S
H557 C535 0.950 . S
C558 C559 1.349 . S
C558 C560 1.327 . S
C558 H583 0.950 . S
C559 C558 1.349 . S
C559 C575 1.349 . S
C560 C558 1.327 . S
C560 C579 1.429 . S
C560 H584 0.950 . S
C561 C578 1.574 . S
C561 C580 1.368 . S
C561 H585 0.949 . S
H562 C566 0.949 . S
C563 C564 1.349 . S
C563 C565 1.327 . S
C563 H586 0.950 . S
C564 C563 1.349 . S
C564 C576 1.349 . S
C565 C563 1.327 . S
C565 C581 1.429 . S
C565 H587 0.950 . S
C566 H562 0.949 . S
C566 C574 1.574 . S
C566 C582 1.368 . S
H567 C575 0.950 1_655 S
H568 C573 0.950 . S
H569 C574 0.949 . S
H570 C576 0.950 . S
H571 C577 0.950 . S
H572 C578 0.949 . S
C573 H568 0.950 . S
C573 C575 1.327 . S
C573 C579 1.429 . S
C574 C566 1.574 . S
C574 H569 0.949 . S
C574 C580 1.368 . S
C575 C559 1.349 . S
C575 H567 0.950 1_455 S
C575 C573 1.327 . S
C576 C564 1.349 . S
C576 H570 0.950 . S
C576 C577 1.327 . S
C577 H571 0.950 . S
C577 C576 1.327 . S
C577 C581 1.429 . S
C578 C561 1.574 . S
C578 H572 0.949 . S
C578 C582 1.368 . S
C579 C560 1.429 . S
C579 C573 1.429 . S
C579 C580 1.523 . S
C580 C561 1.368 . S
C580 C574 1.368 . S
C580 C579 1.523 . S
C581 C565 1.429 . S
C581 C577 1.429 . S
C581 C582 1.523 . S
C582 C566 1.368 . S
C582 C578 1.368 . S
C582 C581 1.523 . S
H583 C558 0.950 . S
H584 C560 0.950 . S
H585 C561 0.949 . S
H586 C563 0.950 . S
H587 C565 0.950 . S
C588 C589 1.349 . S
C588 C590 1.327 . S
C588 H613 0.950 . S
C589 C588 1.349 . S
C589 C605 1.349 . S
C590 C588 1.327 . S
C590 C609 1.429 . S
C590 H614 0.950 . S
C591 C608 1.574 . S
C591 C610 1.368 . S
C591 H615 0.949 . S
H592 C596 0.949 . S
C593 C594 1.349 . S
C593 C595 1.327 . S
C593 H616 0.950 1_545 S
C594 C593 1.349 . S
C594 C606 1.349 . S
C595 C593 1.327 . S
C595 C611 1.429 . S
C595 H617 0.950 . S
C596 H592 0.949 . S
C596 C604 1.574 . S
C596 C612 1.368 . S
H597 C605 0.950 . S
H598 C603 0.950 . S
H599 C604 0.949 . S
H600 C606 0.950 . S
H601 C607 0.950 . S
H602 C608 0.949 . S
C603 H598 0.950 . S
C603 C605 1.327 . S
C603 C609 1.429 . S
C604 C596 1.574 . S
C604 H599 0.949 . S
C604 C610 1.368 . S
C605 C589 1.349 . S
C605 H597 0.950 . S
C605 C603 1.327 . S
C606 C594 1.349 . S
C606 H600 0.950 . S
C606 C607 1.327 . S
C607 H601 0.950 . S
C607 C606 1.327 . S
C607 C611 1.429 . S
C608 C591 1.574 . S
C608 H602 0.949 . S
C608 C612 1.368 . S
C609 C590 1.429 . S
C609 C603 1.429 . S
C609 C610 1.523 . S
C610 C591 1.368 . S
C610 C604 1.368 . S
C610 C609 1.523 . S
C611 C595 1.429 . S
C611 C607 1.429 . S
C611 C612 1.523 . S
C612 C596 1.368 . S
C612 C608 1.368 . S
C612 C611 1.523 . S
H613 C588 0.950 . S
H614 C590 0.950 . S
H615 C591 0.949 . S
H616 C593 0.950 1_565 S
H617 C595 0.950 . S
C618 C619 1.349 . S
C618 C620 1.327 . S
C618 H643 0.950 1_565 S
C619 C618 1.349 . S
C619 C635 1.349 . S
C620 C618 1.327 . S
C620 C639 1.429 . S
C620 H644 0.950 . S
C621 C638 1.574 . S
C621 C640 1.368 . S
C621 H645 0.949 . S
H622 C626 0.949 . S
C623 C624 1.349 . S
C623 C625 1.327 . S
C623 H646 0.950 . S
C624 C623 1.349 . S
C624 C636 1.349 . S
C625 C623 1.327 . S
C625 C641 1.429 . S
C625 H647 0.950 . S
C626 H622 0.949 . S
C626 C634 1.574 . S
C626 C642 1.368 . S
H627 C635 0.950 . S
H628 C633 0.950 . S
H629 C634 0.949 . S
H630 C636 0.950 . S
H631 C637 0.950 . S
H632 C638 0.949 . S
C633 H628 0.950 . S
C633 C635 1.327 . S
C633 C639 1.429 . S
C634 C626 1.574 . S
C634 H629 0.949 . S
C634 C640 1.368 . S
C635 C619 1.349 . S
C635 H627 0.950 . S
C635 C633 1.327 . S
C636 C624 1.349 . S
C636 H630 0.950 . S
C636 C637 1.327 . S
C637 H631 0.950 . S
C637 C636 1.327 . S
C637 C641 1.429 . S
C638 C621 1.574 . S
C638 H632 0.949 . S
C638 C642 1.368 . S
C639 C620 1.429 . S
C639 C633 1.429 . S
C639 C640 1.523 . S
C640 C621 1.368 . S
C640 C634 1.368 . S
C640 C639 1.523 . S
C641 C625 1.429 . S
C641 C637 1.429 . S
C641 C642 1.523 . S
C642 C626 1.368 . S
C642 C638 1.368 . S
C642 C641 1.523 . S
H643 C618 0.950 1_545 S
H644 C620 0.950 . S
H645 C621 0.949 . S
H646 C623 0.950 . S
H647 C625 0.950 . S
C648 C649 1.349 . S
C648 C650 1.327 . S
C648 H673 0.950 . S
C649 C648 1.349 . S
C649 C665 1.349 . S
C650 C648 1.327 . S
C650 C669 1.429 . S
C650 H674 0.950 . S
C651 C668 1.574 . S
C651 C670 1.368 . S
C651 H675 0.949 . S
H652 C656 0.949 . S
C653 C654 1.349 . S
C653 C655 1.327 . S
C653 H676 0.950 . S
C654 C653 1.349 . S
C654 C666 1.349 . S
C655 C653 1.327 . S
C655 C671 1.429 . S
C655 H677 0.950 . S
C656 H652 0.949 . S
C656 C664 1.574 . S
C656 C672 1.368 . S
H657 C665 0.950 . S
H658 C663 0.950 . S
H659 C664 0.949 . S
H660 C666 0.950 . S
H661 C667 0.950 . S
H662 C668 0.949 . S
C663 H658 0.950 . S
C663 C665 1.327 . S
C663 C669 1.429 . S
C664 C656 1.574 . S
C664 H659 0.949 . S
C664 C670 1.368 . S
C665 C649 1.349 . S
C665 H657 0.950 . S
C665 C663 1.327 . S
C666 C654 1.349 . S
C666 H660 0.950 . S
C666 C667 1.327 . S
C667 H661 0.950 . S
C667 C666 1.327 . S
C667 C671 1.429 . S
C668 C651 1.574 . S
C668 H662 0.949 . S
C668 C672 1.368 . S
C669 C650 1.429 . S
C669 C663 1.429 . S
C669 C670 1.523 . S
C670 C651 1.368 . S
C670 C664 1.368 . S
C670 C669 1.523 . S
C671 C655 1.429 . S
C671 C667 1.429 . S
C671 C672 1.523 . S
C672 C656 1.368 . S
C672 C668 1.368 . S
C672 C671 1.523 . S
H673 C648 0.950 . S
H674 C650 0.950 . S
H675 C651 0.949 . S
H676 C653 0.950 . S
H677 C655 0.950 . S
C678 C679 1.349 . S
C678 C680 1.327 . S
C678 H703 0.950 . S
C679 C678 1.349 . S
C679 C695 1.349 . S
C680 C678 1.327 . S
C680 C699 1.429 . S
C680 H704 0.950 . S
C681 C698 1.574 . S
C681 C700 1.368 . S
C681 H705 0.949 . S
H682 C686 0.949 . S
C683 C684 1.349 . S
C683 C685 1.327 . S
C683 H706 0.950 . S
C684 C683 1.349 . S
C684 C696 1.349 . S
C685 C683 1.327 . S
C685 C701 1.429 . S
C685 H707 0.950 . S
C686 H682 0.949 . S
C686 C694 1.574 . S
C686 C702 1.368 . S
H687 C695 0.950 1_545 S
H688 C693 0.950 . S
H689 C694 0.949 . S
H690 C696 0.950 1_655 S
H691 C697 0.950 . S
H692 C698 0.949 . S
C693 H688 0.950 . S
C693 C695 1.327 . S
C693 C699 1.429 . S
C694 C686 1.574 . S
C694 H689 0.949 . S
C694 C700 1.368 . S
C695 C679 1.349 . S
C695 H687 0.950 1_565 S
C695 C693 1.327 . S
C696 C684 1.349 . S
C696 H690 0.950 1_455 S
C696 C697 1.327 . S
C697 H691 0.950 . S
C697 C696 1.327 . S
C697 C701 1.429 . S
C698 C681 1.574 . S
C698 H692 0.949 . S
C698 C702 1.368 . S
C699 C680 1.429 . S
C699 C693 1.429 . S
C699 C700 1.523 . S
C700 C681 1.368 . S
C700 C694 1.368 . S
C700 C699 1.523 . S
C701 C685 1.429 . S
C701 C697 1.429 . S
C701 C702 1.523 . S
C702 C686 1.368 . S
C702 C698 1.368 . S
C702 C701 1.523 . S
H703 C678 0.950 . S
H704 C680 0.950 . S
H705 C681 0.949 . S
H706 C683 0.950 . S
H707 C685 0.950 . S
C708 C709 1.349 . S
C708 C710 1.327 . S
C708 H733 0.950 . S
C709 C708 1.349 . S
C709 C725 1.349 . S
C710 C708 1.327 . S
C710 C729 1.429 . S
C710 H734 0.950 . S
C711 C728 1.574 . S
C711 C730 1.368 . S
C711 H735 0.949 . S
H712 C716 0.949 . S
C713 C714 1.349 . S
C713 C715 1.327 . S
C713 H736 0.950 . S
C714 C713 1.349 . S
C714 C726 1.349 . S
C715 C713 1.327 . S
C715 C731 1.429 . S
C715 H737 0.950 . S
C716 H712 0.949 . S
C716 C724 1.574 . S
C716 C732 1.368 . S
H717 C725 0.950 . S
H718 C723 0.950 . S
H719 C724 0.949 . S
H720 C726 0.950 . S
H721 C727 0.950 . S
H722 C728 0.949 . S
C723 H718 0.950 . S
C723 C725 1.327 . S
C723 C729 1.429 . S
C724 C716 1.574 . S
C724 H719 0.949 . S
C724 C730 1.368 . S
C725 C709 1.349 . S
C725 H717 0.950 . S
C725 C723 1.327 . S
C726 C714 1.349 . S
C726 H720 0.950 . S
C726 C727 1.327 . S
C727 H721 0.950 . S
C727 C726 1.327 . S
C727 C731 1.429 . S
C728 C711 1.574 . S
C728 H722 0.949 . S
C728 C732 1.368 . S
C729 C710 1.429 . S
C729 C723 1.429 . S
C729 C730 1.523 . S
C730 C711 1.368 . S
C730 C724 1.368 . S
C730 C729 1.523 . S
C731 C715 1.429 . S
C731 C727 1.429 . S
C731 C732 1.523 . S
C732 C716 1.368 . S
C732 C728 1.368 . S
C732 C731 1.523 . S
H733 C708 0.950 . S
H734 C710 0.950 . S
H735 C711 0.949 . S
H736 C713 0.950 . S
H737 C715 0.950 . S
C738 C739 1.349 . S
C738 C740 1.327 . S
C738 H763 0.950 . S
C739 C738 1.349 . S
C739 C755 1.349 . S
C740 C738 1.327 . S
C740 C759 1.429 . S
C740 H764 0.950 . S
C741 C758 1.574 1_655 S
C741 C760 1.368 . S
C741 H765 0.949 . S
H742 C746 0.949 . S
C743 C744 1.349 . S
C743 C745 1.327 . S
C743 H766 0.950 . S
C744 C743 1.349 . S
C744 C756 1.349 . S
C745 C743 1.327 . S
C745 C761 1.429 . S
C745 H767 0.950 . S
C746 H742 0.949 . S
C746 C754 1.574 1_455 S
C746 C762 1.368 . S
H747 C755 0.950 . S
H748 C753 0.950 . S
H749 C754 0.949 . S
H750 C756 0.950 . S
H751 C757 0.950 . S
H752 C758 0.949 . S
C753 H748 0.950 . S
C753 C755 1.327 . S
C753 C759 1.429 . S
C754 C746 1.574 1_655 S
C754 H749 0.949 . S
C754 C760 1.368 . S
C755 C739 1.349 . S
C755 H747 0.950 . S
C755 C753 1.327 . S
C756 C744 1.349 . S
C756 H750 0.950 . S
C756 C757 1.327 . S
C757 H751 0.950 . S
C757 C756 1.327 . S
C757 C761 1.429 . S
C758 C741 1.574 1_455 S
C758 H752 0.949 . S
C758 C762 1.368 . S
C759 C740 1.429 . S
C759 C753 1.429 . S
C759 C760 1.523 . S
C760 C741 1.368 . S
C760 C754 1.368 . S
C760 C759 1.523 . S
C761 C745 1.429 . S
C761 C757 1.429 . S
C761 C762 1.523 . S
C762 C746 1.368 . S
C762 C758 1.368 . S
C762 C761 1.523 . S
H763 C738 0.950 . S
H764 C740 0.950 . S
H765 C741 0.949 . S
H766 C743 0.950 . S
H767 C745 0.950 . S
C768 C769 1.349 . S
C768 C770 1.327 1_545 S
C768 H793 0.950 1_545 S
C769 C768 1.349 . S
C769 C785 1.349 . S
C770 C768 1.327 1_565 S
C770 C789 1.429 1_565 S
C770 H794 0.950 . S
C771 C788 1.574 1_554 S
C771 C790 1.368 . S
C771 H795 0.949 . S
H772 C776 0.949 . S
C773 C774 1.349 . S
C773 C775 1.327 1_565 S
C773 H796 0.950 1_565 S
C774 C773 1.349 . S
C774 C786 1.349 . S
C775 C773 1.327 1_545 S
C775 C791 1.429 1_545 S
C775 H797 0.950 . S
C776 H772 0.949 . S
C776 C784 1.574 1_556 S
C776 C792 1.368 . S
H777 C785 0.950 . S
H778 C783 0.950 . S
H779 C784 0.949 . S
H780 C786 0.950 . S
H781 C787 0.950 . S
H782 C788 0.949 . S
C783 H778 0.950 . S
C783 C785 1.327 . S
C783 C789 1.429 . S
C784 C776 1.574 1_554 S
C784 H779 0.949 . S
C784 C790 1.368 1_565 S
C785 C769 1.349 . S
C785 H777 0.950 . S
C785 C783 1.327 . S
C786 C774 1.349 . S
C786 H780 0.950 . S
C786 C787 1.327 . S
C787 H781 0.950 . S
C787 C786 1.327 . S
C787 C791 1.429 . S
C788 C771 1.574 1_556 S
C788 H782 0.949 . S
C788 C792 1.368 1_545 S
C789 C770 1.429 1_545 S
C789 C783 1.429 . S
C789 C790 1.523 . S
C790 C771 1.368 . S
C790 C784 1.368 1_545 S
C790 C789 1.523 . S
C791 C775 1.429 1_565 S
C791 C787 1.429 . S
C791 C792 1.523 . S
C792 C776 1.368 . S
C792 C788 1.368 1_565 S
C792 C791 1.523 . S
H793 C768 0.950 1_565 S
H794 C770 0.950 . S
H795 C771 0.949 . S
H796 C773 0.950 1_545 S
H797 C775 0.950 . S
C798 C799 1.349 . S
C798 C800 1.327 . S
C798 H823 0.950 . S
C799 C798 1.349 . S
C799 C815 1.349 . S
C800 C798 1.327 . S
C800 C819 1.429 . S
C800 H824 0.950 . S
C801 C818 1.574 . S
C801 C820 1.368 . S
C801 H825 0.949 . S
H802 C806 0.949 . S
C803 C804 1.349 . S
C803 C805 1.327 . S
C803 H826 0.950 . S
C804 C803 1.349 . S
C804 C816 1.349 . S
C805 C803 1.327 . S
C805 C821 1.429 . S
C805 H827 0.950 . S
C806 H802 0.949 . S
C806 C814 1.574 . S
C806 C822 1.368 . S
H807 C815 0.950 . S
H808 C813 0.950 . S
H809 C814 0.949 . S
H810 C816 0.950 . S
H811 C817 0.950 . S
H812 C818 0.949 . S
C813 H808 0.950 . S
C813 C815 1.327 . S
C813 C819 1.429 . S
C814 C806 1.574 . S
C814 H809 0.949 . S
C814 C820 1.368 . S
C815 C799 1.349 . S
C815 H807 0.950 . S
C815 C813 1.327 . S
C816 C804 1.349 . S
C816 H810 0.950 . S
C816 C817 1.327 . S
C817 H811 0.950 . S
C817 C816 1.327 . S
C817 C821 1.429 . S
C818 C801 1.574 . S
C818 H812 0.949 . S
C818 C822 1.368 . S
C819 C800 1.429 . S
C819 C813 1.429 . S
C819 C820 1.523 . S
C820 C801 1.368 . S
C820 C814 1.368 . S
C820 C819 1.523 . S
C821 C805 1.429 . S
C821 C817 1.429 . S
C821 C822 1.523 . S
C822 C806 1.368 . S
C822 C818 1.368 . S
C822 C821 1.523 . S
H823 C798 0.950 . S
H824 C800 0.950 . S
H825 C801 0.949 . S
H826 C803 0.950 . S
H827 C805 0.950 . S
C828 C829 1.349 . S
C828 C830 1.327 . S
C828 H853 0.950 . S
C829 C828 1.349 . S
C829 C845 1.349 . S
C830 C828 1.327 . S
C830 C849 1.429 . S
C830 H854 0.950 . S
C831 C848 1.574 1_455 S
C831 C850 1.368 . S
C831 H855 0.949 . S
H832 C836 0.949 . S
C833 C834 1.349 . S
C833 C835 1.327 . S
C833 H856 0.950 . S
C834 C833 1.349 . S
C834 C846 1.349 . S
C835 C833 1.327 . S
C835 C851 1.429 . S
C835 H857 0.950 . S
C836 H832 0.949 . S
C836 C844 1.574 1_655 S
C836 C852 1.368 . S
H837 C845 0.950 . S
H838 C843 0.950 . S
H839 C844 0.949 . S
H840 C846 0.950 . S
H841 C847 0.950 . S
H842 C848 0.949 . S
C843 H838 0.950 . S
C843 C845 1.327 . S
C843 C849 1.429 . S
C844 C836 1.574 1_455 S
C844 H839 0.949 . S
C844 C850 1.368 . S
C845 C829 1.349 . S
C845 H837 0.950 . S
C845 C843 1.327 . S
C846 C834 1.349 . S
C846 H840 0.950 . S
C846 C847 1.327 . S
C847 H841 0.950 . S
C847 C846 1.327 . S
C847 C851 1.429 . S
C848 C831 1.574 1_655 S
C848 H842 0.949 . S
C848 C852 1.368 . S
C849 C830 1.429 . S
C849 C843 1.429 . S
C849 C850 1.523 . S
C850 C831 1.368 . S
C850 C844 1.368 . S
C850 C849 1.523 . S
C851 C835 1.429 . S
C851 C847 1.429 . S
C851 C852 1.523 . S
C852 C836 1.368 . S
C852 C848 1.368 . S
C852 C851 1.523 . S
H853 C828 0.950 . S
H854 C830 0.950 . S
H855 C831 0.949 . S
H856 C833 0.950 . S
H857 C835 0.950 . S
C858 C859 1.349 . S
C858 C860 1.327 . S
C858 H883 0.950 . S
C859 C858 1.349 . S
C859 C875 1.349 . S
C860 C858 1.327 . S
C860 C879 1.429 . S
C860 H884 0.950 . S
C861 C878 1.574 1_554 S
C861 C880 1.368 1_545 S
C861 H885 0.949 . S
H862 C866 0.949 . S
C863 C864 1.349 . S
C863 C865 1.327 . S
C863 H886 0.950 . S
C864 C863 1.349 . S
C864 C876 1.349 . S
C865 C863 1.327 . S
C865 C881 1.429 . S
C865 H887 0.950 . S
C866 H862 0.949 . S
C866 C874 1.574 1_556 S
C866 C882 1.368 1_565 S
H867 C875 0.950 1_545 S
H868 C873 0.950 . S
H869 C874 0.949 . S
H870 C876 0.950 1_565 S
H871 C877 0.950 . S
H872 C878 0.949 . S
C873 H868 0.950 . S
C873 C875 1.327 1_545 S
C873 C879 1.429 1_545 S
C874 C866 1.574 1_554 S
C874 H869 0.949 . S
C874 C880 1.368 . S
C875 C859 1.349 . S
C875 H867 0.950 1_565 S
C875 C873 1.327 1_565 S
C876 C864 1.349 . S
C876 H870 0.950 1_545 S
C876 C877 1.327 1_545 S
C877 H871 0.950 . S
C877 C876 1.327 1_565 S
C877 C881 1.429 1_565 S
C878 C861 1.574 1_556 S
C878 H872 0.949 . S
C878 C882 1.368 . S
C879 C860 1.429 . S
C879 C873 1.429 1_565 S
C879 C880 1.523 . S
C880 C861 1.368 1_565 S
C880 C874 1.368 . S
C880 C879 1.523 . S
C881 C865 1.429 . S
C881 C877 1.429 1_545 S
C881 C882 1.523 . S
C882 C866 1.368 1_545 S
C882 C878 1.368 . S
C882 C881 1.523 . S
H883 C858 0.950 . S
H884 C860 0.950 . S
H885 C861 0.949 . S
H886 C863 0.950 . S
H887 C865 0.950 . S
C169 C162 1.716 . S
C174 C8 1.716 . S
C199 C22 1.717 . S
C204 C92 1.717 . S
C229 C36 1.717 . S
C234 C106 1.717 . S
C259 C50 1.716 . S
C264 C120 1.716 . S
C289 C134 1.717 . S
C294 C64 1.717 . S
C319 C78 1.717 . S
C324 C148 1.717 . S
C349 C51 1.134 . S
C354 C9 1.134 . S
C379 C65 1.134 . S
C384 C23 1.134 . S
C409 C79 1.134 . S
C414 C37 1.134 . S
C439 C93 1.134 . S
C444 C135 1.134 . S
C469 C107 1.134 . S
C474 C149 1.134 . S
C499 C121 1.134 . S
C504 C163 1.134 . S
C529 C119 0.352 . S
C534 C7 0.352 . S
C559 C21 0.352 . S
C564 C133 0.352 . S
C589 C147 0.352 . S
C594 C35 0.352 . S
C619 C161 0.352 . S
C624 C49 0.352 . S
C649 C91 0.352 . S
C654 C63 0.352 . S
C679 C77 0.352 . S
C684 C105 0.352 . S
C709 C129 1.663 . S
C714 C3 1.663 . S
C739 C17 1.663 . S
C744 C143 1.663 . S
C769 C157 1.663 . S
C774 C31 1.663 . S
C799 C45 1.663 . S
C804 C87 1.663 . S
C829 C59 1.663 . S
C834 C101 1.663 . S
C859 C115 1.663 . S
C864 C73 1.663 . S
