# Generated by pormake.
# Topology afw, (4)-cn, num edge types: 1
# Building blocks:
#     Node 0, Type 0, BuildingBlock: CEKHIL_clean_sbu_0, # of connection points: 4
#     Node 1, Type 0, BuildingBlock: CEKHIL_clean_sbu_0, # of connection points: 4
#     Node 2, Type 0, BuildingBlock: CEKHIL_clean_sbu_0, # of connection points: 4
#     Node 3, Type 0, BuildingBlock: CEKHIL_clean_sbu_0, # of connection points: 4
#     Node 4, Type 0, BuildingBlock: CEKHIL_clean_sbu_0, # of connection points: 4
#     Node 5, Type 0, BuildingBlock: CEKHIL_clean_sbu_0, # of connection points: 4
#     Node 6, Type 0, BuildingBlock: CEKHIL_clean_sbu_0, # of connection points: 4
#     Node 7, Type 0, BuildingBlock: CEKHIL_clean_sbu_0, # of connection points: 4
#     Node 8, Type 0, BuildingBlock: CEKHIL_clean_sbu_0, # of connection points: 4
#     Edge 9, Type (0, 0), BuildingBlock: AJUNOK_clean_linker_0, # of connection points: 2
#     Edge 10, Type (0, 0), BuildingBlock: AJUNOK_clean_linker_0, # of connection points: 2
#     Edge 11, Type (0, 0), BuildingBlock: AJUNOK_clean_linker_0, # of connection points: 2
#     Edge 12, Type (0, 0), BuildingBlock: AJUNOK_clean_linker_0, # of connection points: 2
#     Edge 13, Type (0, 0), BuildingBlock: AJUNOK_clean_linker_0, # of connection points: 2
#     Edge 14, Type (0, 0), BuildingBlock: AJUNOK_clean_linker_0, # of connection points: 2
#     Edge 15, Type (0, 0), BuildingBlock: AJUNOK_clean_linker_0, # of connection points: 2
#     Edge 16, Type (0, 0), BuildingBlock: AJUNOK_clean_linker_0, # of connection points: 2
#     Edge 17, Type (0, 0), BuildingBlock: AJUNOK_clean_linker_0, # of connection points: 2
#     Edge 18, Type (0, 0), BuildingBlock: AJUNOK_clean_linker_0, # of connection points: 2
#     Edge 19, Type (0, 0), BuildingBlock: AJUNOK_clean_linker_0, # of connection points: 2
#     Edge 20, Type (0, 0), BuildingBlock: AJUNOK_clean_linker_0, # of connection points: 2
#     Edge 21, Type (0, 0), BuildingBlock: AJUNOK_clean_linker_0, # of connection points: 2
#     Edge 22, Type (0, 0), BuildingBlock: AJUNOK_clean_linker_0, # of connection points: 2
#     Edge 23, Type (0, 0), BuildingBlock: AJUNOK_clean_linker_0, # of connection points: 2
#     Edge 24, Type (0, 0), BuildingBlock: AJUNOK_clean_linker_0, # of connection points: 2
#     Edge 25, Type (0, 0), BuildingBlock: AJUNOK_clean_linker_0, # of connection points: 2
#     Edge 26, Type (0, 0), BuildingBlock: AJUNOK_clean_linker_0, # of connection points: 2
# Relax obj value: 0.198
# Max RMSD: 0.211
# Mean RMSD: 0.201
data_MOF--net-afw--node1-CEKHIL_clean_sbu_0--edge1-AJUNOK_clean_linker_0
_symmetry_space_group_name_H-M    P1
_symmetry_Int_Tables_number       1
_symmetry_cell_setting            triclinic
loop_
_symmetry_equiv_pos_as_xyz
'x, y, z'
_cell_length_a     31.626883
_cell_length_b     31.697717
_cell_length_c     22.865154
_cell_angle_alpha  90.850168
_cell_angle_beta   90.704737
_cell_angle_gamma 120.12536
loop_
_atom_site_label
_atom_site_type_symbol
_atom_site_fract_x
_atom_site_fract_y
_atom_site_fract_z
_atom_type_partial_charge
Co0 Co 0.03398 0.2294 0.01472 0.0
O1 O 0.07531 0.29511 0.98877 0.0
O2 O 0.0024 0.24264 0.95037 0.0
C3 C 0.09022 0.20557 0.01941 0.0
O4 O 0.98222 0.15835 0.0272 0.0
Co5 Co 0.05054 0.19822 0.13688 0.0
O6 O 0.00391 0.13155 0.10629 0.0
C7 C 0.00748 0.2611 0.12929 0.0
C8 C 0.04118 0.28573 0.94994 0.0
C9 C 0.97726 0.12382 0.06062 0.0
O10 O 0.00358 0.25414 0.07335 0.0
O11 O 0.02851 0.2447 0.16254 0.0
O12 O 0.07039 0.2061 0.96953 0.0
O13 O 0.08053 0.22584 0.06284 0.0
Co14 Co 0.82115 0.81269 0.03439 0.0
O15 O 0.79219 0.74549 0.05479 0.0
O16 O 0.77332 0.79807 0.09462 0.0
C17 C 0.89952 0.83057 0.03649 0.0
O18 O 0.84546 0.88537 0.02565 0.0
Co19 Co 0.87677 0.84681 0.91744 0.0
O20 O 0.89601 0.91258 0.94922 0.0
C21 C 0.76973 0.78747 0.91476 0.0
C22 C 0.76655 0.75407 0.09184 0.0
C23 C 0.87602 0.91997 0.99323 0.0
O24 O 0.76955 0.79371 0.97057 0.0
O25 O 0.80902 0.80185 0.88633 0.0
O26 O 0.87808 0.8302 0.08479 0.0
O27 O 0.87134 0.81458 0.99049 0.0
Co28 Co 0.19097 0.99716 0.02332 0.0
O29 O 0.2124 0.95214 0.00258 0.0
O30 O 0.2385 0.02355 0.96143 0.0
C31 C 0.11069 0.94193 0.02291 0.0
O32 O 0.17494 0.05197 0.03174 0.0
Co33 Co 0.1383 0.98618 0.14096 0.0
O34 O 0.12771 0.0383 0.11029 0.0
C35 C 0.24408 0.02302 0.14207 0.0
C36 C 0.23951 0.98306 0.96382 0.0
C37 C 0.14864 0.06239 0.06505 0.0
O38 O 0.24416 0.02748 0.08607 0.0
O39 O 0.20478 0.0031 0.17131 0.0
O40 O 0.13238 0.96051 0.97427 0.0
O41 O 0.13889 0.95377 0.06881 0.0
Co42 Co 0.64191 0.5327 0.34581 0.0
O43 O 0.59436 0.54869 0.37271 0.0
O44 O 0.67016 0.58164 0.40824 0.0
C45 C 0.59263 0.45078 0.345 0.0
O46 O 0.69972 0.52236 0.33216 0.0
Co47 Co 0.62655 0.47866 0.22602 0.0
O48 O 0.68213 0.4716 0.25401 0.0
C49 C 0.65772 0.58316 0.22857 0.0
C50 C 0.62727 0.57773 0.41088 0.0
C51 C 0.70918 0.49564 0.29795 0.0
O52 O 0.66463 0.58498 0.28451 0.0
O53 O 0.63858 0.54323 0.19851 0.0
O54 O 0.61312 0.4745 0.39358 0.0
O55 O 0.59816 0.47777 0.30071 0.0
Co56 Co 0.49654 0.146 0.37485 0.0
O57 O 0.47493 0.08216 0.40559 0.0
O58 O 0.45432 0.13486 0.44044 0.0
C59 C 0.57701 0.17155 0.36792 0.0
O60 O 0.51291 0.21532 0.35679 0.0
Co61 Co 0.54071 0.17197 0.25046 0.0
O62 O 0.55421 0.23829 0.27268 0.0
C63 C 0.43454 0.10921 0.26187 0.0
C64 C 0.45143 0.09262 0.44394 0.0
C65 C 0.53661 0.24725 0.3179 0.0
O66 O 0.43889 0.11754 0.31764 0.0
O67 O 0.47128 0.12403 0.22854 0.0
O68 O 0.55883 0.17322 0.41799 0.0
O69 O 0.54508 0.14839 0.3265 0.0
Co70 Co 0.88101 0.38556 0.35395 0.0
O71 O 0.94596 0.43246 0.38221 0.0
O72 O 0.89887 0.35914 0.41879 0.0
C73 C 0.85234 0.43775 0.34593 0.0
O74 O 0.81177 0.32884 0.3415 0.0
Co75 Co 0.84046 0.39075 0.23186 0.0
O76 O 0.77662 0.34007 0.26182 0.0
C77 C 0.91179 0.35717 0.24049 0.0
C78 C 0.93979 0.40036 0.42095 0.0
C79 C 0.77434 0.31723 0.30813 0.0
O80 O 0.90829 0.35626 0.29669 0.0
O81 O 0.89054 0.37344 0.20744 0.0
O82 O 0.85426 0.42053 0.39657 0.0
O83 O 0.87219 0.42679 0.30378 0.0
Co84 Co 0.37184 0.89725 0.69298 0.0
O85 O 0.41304 0.96424 0.67135 0.0
O86 O 0.34024 0.91371 0.63164 0.0
C87 C 0.42896 0.87442 0.6911 0.0
O88 O 0.32061 0.82502 0.70049 0.0
Co89 Co 0.39119 0.85844 0.80872 0.0
O90 O 0.34359 0.79377 0.77408 0.0
C91 C 0.34544 0.91964 0.81334 0.0
C92 C 0.37972 0.95636 0.63205 0.0
C93 C 0.31625 0.78869 0.73001 0.0
O94 O 0.34116 0.91794 0.75696 0.0
O95 O 0.36818 0.90197 0.84108 0.0
O96 O 0.40843 0.87705 0.64287 0.0
O97 O 0.41919 0.8919 0.73708 0.0
Co98 Co 0.15396 0.47893 0.70083 0.0
O99 O 0.12387 0.41205 0.72412 0.0
O100 O 0.10952 0.46751 0.76422 0.0
C101 C 0.23157 0.49403 0.69998 0.0
O102 O 0.18056 0.55193 0.6902 0.0
Co103 Co 0.20689 0.50919 0.58171 0.0
O104 O 0.23017 0.57618 0.61287 0.0
C105 C 0.09985 0.45297 0.58344 0.0
C106 C 0.10228 0.42329 0.76416 0.0
C107 C 0.21181 0.5855 0.65713 0.0
O108 O 0.10074 0.46102 0.639 0.0
O109 O 0.13803 0.46442 0.55388 0.0
O110 O 0.21185 0.49548 0.74887 0.0
O111 O 0.20204 0.47785 0.65513 0.0
Co112 Co 0.52226 0.6614 0.67574 0.0
O113 O 0.54172 0.61621 0.64885 0.0
O114 O 0.56693 0.68911 0.61173 0.0
C115 C 0.44205 0.60617 0.67883 0.0
O116 O 0.50735 0.71628 0.68915 0.0
Co117 Co 0.4743 0.64941 0.79673 0.0
O118 O 0.46234 0.70168 0.76983 0.0
C119 C 0.58074 0.69014 0.79104 0.0
C120 C 0.56647 0.64786 0.60956 0.0
C121 C 0.48218 0.72637 0.7246 0.0
O122 O 0.578 0.69127 0.73491 0.0
O123 O 0.54301 0.67107 0.82313 0.0
O124 O 0.46183 0.62584 0.62976 0.0
O125 O 0.47188 0.61723 0.72307 0.0
C126 C 0.13702 0.13146 0.09647 0.0
C127 C 0.14094 0.10349 0.05076 0.0
C128 C 0.12337 0.16639 0.08545 0.0
C129 C 0.11211 0.17415 0.02835 0.0
H130 H 0.14351 0.12552 0.14144 0.0
H131 H 0.11978 0.18603 0.12242 0.0
S132 S 0.11926 0.112 0.89285 0.0
N133 N 0.13507 0.08753 0.94593 0.0
N134 N 0.10852 0.15261 0.92493 0.0
C135 C 0.11784 0.14779 0.98187 0.0
C136 C 0.13246 0.1126 0.99314 0.0
C137 C 0.89992 0.98616 0.06899 0.0
C138 C 0.89234 0.97128 0.00975 0.0
C139 C 0.92502 0.03584 0.08527 0.0
C140 C 0.94267 0.07237 0.04293 0.0
H141 H 0.88927 0.95942 0.10295 0.0
H142 H 0.93241 0.04568 0.13137 0.0
S143 S 0.92627 0.05195 0.88198 0.0
N144 N 0.90006 0.99659 0.90875 0.0
N145 N 0.94663 0.08981 0.93922 0.0
C146 C 0.93198 0.05778 0.98366 0.0
C147 C 0.90703 0.00726 0.96711 0.0
C148 C 0.98272 0.88034 0.08239 0.0
C149 C 0.95335 0.85535 0.03292 0.0
C150 C 0.03372 0.90753 0.07906 0.0
C151 C 0.05713 0.91113 0.02599 0.0
H152 H 0.96625 0.87978 0.12385 0.0
H153 H 0.05478 0.9268 0.11804 0.0
S154 S -0.0025 0.84869 0.8852 0.0
N155 N 0.95186 0.83274 0.93034 0.0
N156 N 0.04767 0.88482 0.92392 0.0
C157 C 0.02843 0.88523 0.97662 0.0
C158 C 0.97653 0.85703 0.98015 0.0
C159 C 0.79324 0.4633 0.3799 0.0
C160 C 0.82155 0.46004 0.33487 0.0
C161 C 0.75894 0.4781 0.36848 0.0
C162 C 0.75146 0.48954 0.31155 0.0
H163 H 0.79614 0.45255 0.42383 0.0
H164 H 0.73625 0.47791 0.40371 0.0
S165 S 0.82068 0.4938 0.18009 0.0
N166 N 0.84364 0.47543 0.23247 0.0
N167 N 0.77805 0.50145 0.21105 0.0
C168 C 0.78126 0.48908 0.26693 0.0
C169 C 0.81667 0.47484 0.2786 0.0
C170 C 0.55979 0.32127 0.38057 0.0
C171 C 0.54489 0.29711 0.32579 0.0
C172 C 0.57366 0.37071 0.38687 0.0
C173 C 0.57241 0.39739 0.33876 0.0
H174 H 0.56283 0.30249 0.4182 0.0
H175 H 0.58677 0.3884 0.42941 0.0
S176 S 0.52906 0.34812 0.18786 0.0
N177 N 0.5254 0.30172 0.22392 0.0
N178 N 0.54977 0.39395 0.23587 0.0
C179 C 0.55465 0.37255 0.28456 0.0
C180 C 0.54138 0.32258 0.27803 0.0
C181 C 0.64472 0.21055 0.29679 0.0
C182 C 0.62939 0.20431 0.35519 0.0
C183 C 0.69198 0.24654 0.28203 0.0
C184 C 0.72622 0.27679 0.32523 0.0
H185 H 0.61962 0.18867 0.26168 0.0
H186 H 0.7016 0.25104 0.23632 0.0
S187 S 0.70619 0.27317 0.48504 0.0
N188 N 0.65341 0.23006 0.45686 0.0
N189 N 0.74268 0.29685 0.42911 0.0
C190 C 0.71237 0.26942 0.38407 0.0
C191 C 0.66389 0.23334 0.39907 0.0
C192 C 0.46345 0.83366 0.75177 0.0
C193 C 0.44984 0.84187 0.69613 0.0
C194 C 0.47534 0.79718 0.76011 0.0
C195 C 0.47524 0.76821 0.71297 0.0
H196 H 0.46307 0.8542 0.78982 0.0
H197 H 0.48378 0.79096 0.80411 0.0
S198 S 0.44629 0.77718 0.55771 0.0
N199 N 0.43965 0.81952 0.59237 0.0
N200 N 0.46327 0.75162 0.60821 0.0
C201 C 0.46452 0.77771 0.65657 0.0
C202 C 0.45157 0.81443 0.64809 0.0
C203 C 0.25785 0.70108 0.75007 0.0
C204 C 0.28159 0.73824 0.70931 0.0
C205 C 0.23235 0.6517 0.73234 0.0
C206 C 0.23064 0.63761 0.67331 0.0
H207 H 0.26054 0.71017 0.79635 0.0
H208 H 0.2164 0.6244 0.76564 0.0
S209 S 0.28445 0.7212 0.54899 0.0
N210 N 0.2994 0.75787 0.60706 0.0
N211 N 0.25218 0.66528 0.57355 0.0
C212 C 0.25232 0.67463 0.63179 0.0
C213 C 0.27758 0.72489 0.64982 0.0
C214 C 0.31585 0.54306 0.74326 0.0
C215 C 0.28526 0.51832 0.69446 0.0
C216 C 0.36672 0.57049 0.73817 0.0
C217 C 0.38875 0.57465 0.68397 0.0
H218 H 0.30045 0.54223 0.78556 0.0
H219 H 0.38872 0.58969 0.77664 0.0
S220 S 0.32581 0.51262 0.5443 0.0
N221 N 0.28132 0.49615 0.59131 0.0
N222 N 0.37683 0.54881 0.58156 0.0
C223 C 0.35888 0.54879 0.63529 0.0
C224 C 0.30714 0.52027 0.6406 0.0
C225 C 0.03702 0.30504 0.84546 0.0
C226 C 0.04844 0.32104 0.9042 0.0
C227 C 0.05194 0.33859 0.80008 0.0
C228 C 0.07729 0.38919 0.812 0.0
H229 H 0.01932 0.26647 0.83427 0.0
H230 H 0.04535 0.32487 0.75524 0.0
S231 S 0.1102 0.44925 0.95912 0.0
N232 N 0.08301 0.39034 0.97231 0.0
N233 N 0.10924 0.45342 0.88722 0.0
C234 C 0.08549 0.40546 0.8708 0.0
C235 C 0.07158 0.37134 0.9169 0.0
C236 C 0.67838 0.73693 0.91203 0.0
C237 C 0.72232 0.7625 0.88176 0.0
C238 C 0.63313 0.71304 0.88223 0.0
C239 C 0.62969 0.71378 0.82074 0.0
H240 H 0.67873 0.73517 0.9593 0.0
H241 H 0.60057 0.69415 0.908 0.0
S242 S 0.73402 0.77573 0.72044 0.0
N243 N 0.75962 0.78715 0.78641 0.0
N244 N 0.67468 0.74224 0.7305 0.0
C245 C 0.67343 0.73894 0.78975 0.0
C246 C 0.71961 0.76326 0.82017 0.0
C247 C 0.30757 0.92195 0.9072 0.0
C248 C 0.32002 0.93897 0.84984 0.0
C249 C 0.28257 0.93742 0.94348 0.0
C250 C 0.26927 0.97119 0.92464 0.0
H251 H 0.31626 0.89542 0.92425 0.0
H252 H 0.27335 0.92241 0.9868 0.0
S253 S 0.2941 0.02849 0.77929 0.0
N254 N 0.31769 0.99234 0.77611 0.0
N255 N 0.27101 0.02219 0.84519 0.0
C256 C 0.28219 0.98955 0.86792 0.0
C257 C 0.30728 0.97312 0.83028 0.0
C258 C 0.38096 0.08431 0.17181 0.0
C259 C 0.38514 0.08426 0.23328 0.0
C260 C 0.33543 0.0641 0.14306 0.0
C261 C 0.29174 0.0427 0.17428 0.0
H262 H 0.41322 0.10095 0.14523 0.0
H263 H 0.33475 0.0658 0.0958 0.0
S264 S 0.282 0.03013 0.33594 0.0
N265 N 0.34132 0.05888 0.32446 0.0
N266 N 0.25554 0.02078 0.27065 0.0
C267 C 0.29517 0.04124 0.23585 0.0
C268 C 0.3418 0.06202 0.26521 0.0
C269 C 0.9749 0.28301 0.21707 0.0
C270 C 0.98544 0.28808 0.15701 0.0
C271 C 0.95234 0.30642 0.24397 0.0
C272 C 0.93936 0.33602 0.21202 0.0
H273 H 0.98316 0.25986 0.2435 0.0
H274 H 0.94403 0.30026 0.28994 0.0
S275 S 0.96418 0.36585 0.05481 0.0
N276 N 0.98466 0.32806 0.06738 0.0
N277 N 0.94251 0.37218 0.11759 0.0
C278 C 0.95136 0.34286 0.15229 0.0
C279 C 0.97424 0.31887 0.12491 0.0
C280 C 0.71233 0.67423 0.22245 0.0
C281 C 0.67755 0.62935 0.19578 0.0
C282 C 0.73876 0.71624 0.18917 0.0
C283 C 0.73132 0.71455 0.12832 0.0
H284 H 0.72134 0.67636 0.26866 0.0
H285 H 0.76733 0.74922 0.21053 0.0
S286 S 0.63905 0.60974 0.03858 0.0
N287 N 0.63241 0.58869 0.10547 0.0
N288 N 0.68344 0.66718 0.04362 0.0
C289 C 0.69442 0.67138 0.10186 0.0
C290 C 0.66706 0.62891 0.13546 0.0
C291 C 0.0331 0.46443 0.54356 0.0
C292 C 0.0539 0.43459 0.54968 0.0
C293 C -0.00423 0.45291 0.50179 0.0
C294 C 0.9774 0.41061 0.46612 0.0
H295 H 0.04753 0.49814 0.569 0.0
H296 H 0.98152 0.47746 0.49691 0.0
S297 S 0.01845 0.31987 0.46679 0.0
N298 N 0.05338 0.36103 0.51728 0.0
N299 N 0.9814 0.33807 0.44077 0.0
C300 C -0.00351 0.37949 0.47354 0.0
C301 C 0.03534 0.39189 0.51485 0.0
C302 C 0.56539 0.57344 0.47946 0.0
C303 C 0.61365 0.59919 0.45975 0.0
C304 C 0.55115 0.5897 0.52838 0.0
C305 C 0.58417 0.63303 0.55856 0.0
H306 H 0.53858 0.53956 0.45797 0.0
H307 H 0.51372 0.56827 0.54249 0.0
S308 S 0.71414 0.71513 0.52386 0.0
N309 N 0.69459 0.67054 0.47405 0.0
N310 N 0.66674 0.70237 0.56503 0.0
C311 C 0.63218 0.66006 0.53873 0.0
C312 C 0.64723 0.64272 0.48959 0.0
C313 C 0.42392 0.04177 0.59603 0.0
C314 C 0.38995 0.992 0.58531 0.0
C315 C 0.44119 0.07501 0.55024 0.0
C316 C 0.42607 0.05932 0.49205 0.0
H317 H 0.43857 0.05483 0.63985 0.0
H318 H 0.46868 0.11262 0.56003 0.0
S319 S 0.33496 0.93427 0.44074 0.0
N320 N 0.33891 0.92975 0.51227 0.0
N321 N 0.37307 0.99204 0.42623 0.0
C322 C 0.39071 0.01032 0.4809 0.0
C323 C 0.37209 0.9767 0.5276 0.0
loop_
_geom_bond_atom_site_label_1
_geom_bond_atom_site_label_2
_geom_bond_distance
_geom_bond_site_symmetry_2
_ccdc_geom_bond_type
Co0 O1 2.214 1_554 S
Co0 O2 2.080 1_554 S
Co0 O4 2.003 1_454 S
Co0 O10 2.029 1_455 S
Co0 O12 2.133 1_554 S
Co0 O13 2.253 . S
O1 Co0 2.214 1_556 S
O1 C8 1.247 . S
O2 Co0 2.080 1_556 S
O2 C8 1.261 . S
C3 O12 1.247 1_554 S
C3 O13 1.272 . S
O4 Co0 2.003 1_656 S
O4 C9 1.259 1_556 S
Co5 O6 2.061 1_455 S
Co5 O11 2.052 . S
Co5 O13 2.135 . S
O6 Co5 2.061 1_655 S
O6 C9 1.235 . S
C7 O10 1.238 . S
C7 O11 1.241 1_655 S
C8 O1 1.247 . S
C8 O2 1.261 . S
C9 O4 1.259 1_554 S
C9 O6 1.235 . S
O10 Co0 2.029 1_655 S
O10 C7 1.238 . S
O11 Co5 2.052 . S
O11 C7 1.241 1_455 S
O12 Co0 2.133 1_556 S
O12 C3 1.247 1_556 S
O13 Co0 2.253 . S
O13 C3 1.272 . S
O13 Co5 2.135 . S
Co14 O15 2.216 . S
Co14 O16 2.091 . S
Co14 O18 2.004 . S
Co14 O24 2.021 1_554 S
Co14 O26 2.137 . S
Co14 O27 2.244 1_554 S
O15 Co14 2.216 . S
O15 C22 1.247 . S
O16 Co14 2.091 . S
O16 C22 1.261 . S
C17 O26 1.247 . S
C17 O27 1.272 1_554 S
O18 Co14 2.004 . S
O18 C23 1.259 . S
Co19 O20 2.061 . S
Co19 O25 2.052 . S
Co19 O27 2.135 . S
O20 Co19 2.061 . S
O20 C23 1.235 1_556 S
C21 O24 1.238 . S
C21 O25 1.241 . S
C22 O15 1.247 . S
C22 O16 1.261 . S
C23 O18 1.259 . S
C23 O20 1.235 1_554 S
O24 Co14 2.021 1_556 S
O24 C21 1.238 . S
O25 Co19 2.052 . S
O25 C21 1.241 . S
O26 Co14 2.137 . S
O26 C17 1.247 . S
O27 Co14 2.244 1_556 S
O27 C17 1.272 1_556 S
O27 Co19 2.135 . S
Co28 O29 2.216 1_545 S
Co28 O30 2.091 . S
Co28 O32 2.004 . S
Co28 O38 2.021 1_556 S
Co28 O40 2.137 1_545 S
Co28 O41 2.244 1_546 S
O29 Co28 2.216 1_565 S
O29 C36 1.247 . S
O30 Co28 2.091 . S
O30 C36 1.261 1_545 S
C31 O40 1.247 1_554 S
C31 O41 1.272 . S
O32 Co28 2.004 . S
O32 C37 1.259 1_556 S
Co33 O34 2.061 . S
Co33 O39 2.052 . S
Co33 O41 2.135 1_545 S
O34 Co33 2.061 . S
O34 C37 1.235 . S
C35 O38 1.238 . S
C35 O39 1.241 . S
C36 O29 1.247 . S
C36 O30 1.261 1_565 S
C37 O32 1.259 1_554 S
C37 O34 1.235 . S
O38 Co28 2.021 1_554 S
O38 C35 1.238 . S
O39 Co33 2.052 . S
O39 C35 1.241 . S
O40 Co28 2.137 1_565 S
O40 C31 1.247 1_556 S
O41 Co28 2.244 1_564 S
O41 C31 1.272 . S
O41 Co33 2.135 1_565 S
Co42 O43 2.216 . S
Co42 O44 2.091 . S
Co42 O46 2.004 . S
Co42 O52 2.021 . S
Co42 O54 2.137 . S
Co42 O55 2.244 . S
O43 Co42 2.216 . S
O43 C50 1.247 . S
O44 Co42 2.091 . S
O44 C50 1.261 . S
C45 O54 1.247 . S
C45 O55 1.272 . S
O46 Co42 2.004 . S
O46 C51 1.259 . S
Co47 O48 2.061 . S
Co47 O53 2.052 . S
Co47 O55 2.135 . S
O48 Co47 2.061 . S
O48 C51 1.235 . S
C49 O52 1.238 . S
C49 O53 1.241 . S
C50 O43 1.247 . S
C50 O44 1.261 . S
C51 O46 1.259 . S
C51 O48 1.235 . S
O52 Co42 2.021 . S
O52 C49 1.238 . S
O53 Co47 2.052 . S
O53 C49 1.241 . S
O54 Co42 2.137 . S
O54 C45 1.247 . S
O55 Co42 2.244 . S
O55 C45 1.272 . S
O55 Co47 2.135 . S
Co56 O57 2.216 . S
Co56 O58 2.091 . S
Co56 O60 2.004 . S
Co56 O66 2.021 . S
Co56 O68 2.137 . S
Co56 O69 2.244 . S
O57 Co56 2.216 . S
O57 C64 1.247 . S
O58 Co56 2.091 . S
O58 C64 1.261 . S
C59 O68 1.247 . S
C59 O69 1.272 . S
O60 Co56 2.004 . S
O60 C65 1.259 . S
Co61 O62 2.061 . S
Co61 O67 2.052 . S
Co61 O69 2.135 . S
O62 Co61 2.061 . S
O62 C65 1.235 . S
C63 O66 1.238 . S
C63 O67 1.241 . S
C64 O57 1.247 . S
C64 O58 1.261 . S
C65 O60 1.259 . S
C65 O62 1.235 . S
O66 Co56 2.021 . S
O66 C63 1.238 . S
O67 Co61 2.052 . S
O67 C63 1.241 . S
O68 Co56 2.137 . S
O68 C59 1.247 . S
O69 Co56 2.244 . S
O69 C59 1.272 . S
O69 Co61 2.135 . S
Co70 O71 2.216 . S
Co70 O72 2.091 . S
Co70 O74 2.004 . S
Co70 O80 2.021 . S
Co70 O82 2.137 . S
Co70 O83 2.244 . S
O71 Co70 2.216 . S
O71 C78 1.247 . S
O72 Co70 2.091 . S
O72 C78 1.261 . S
C73 O82 1.247 . S
C73 O83 1.272 . S
O74 Co70 2.004 . S
O74 C79 1.259 . S
Co75 O76 2.061 . S
Co75 O81 2.052 . S
Co75 O83 2.135 . S
O76 Co75 2.061 . S
O76 C79 1.235 . S
C77 O80 1.238 . S
C77 O81 1.241 . S
C78 O71 1.247 . S
C78 O72 1.261 . S
C79 O74 1.259 . S
C79 O76 1.235 . S
O80 Co70 2.021 . S
O80 C77 1.238 . S
O81 Co75 2.052 . S
O81 C77 1.241 . S
O82 Co70 2.137 . S
O82 C73 1.247 . S
O83 Co70 2.244 . S
O83 C73 1.272 . S
O83 Co75 2.135 . S
Co84 O85 2.216 . S
Co84 O86 2.091 . S
Co84 O88 2.004 . S
Co84 O94 2.021 . S
Co84 O96 2.137 . S
Co84 O97 2.244 . S
O85 Co84 2.216 . S
O85 C92 1.247 . S
O86 Co84 2.091 . S
O86 C92 1.261 . S
C87 O96 1.247 . S
C87 O97 1.272 . S
O88 Co84 2.004 . S
O88 C93 1.259 . S
Co89 O90 2.061 . S
Co89 O95 2.052 . S
Co89 O97 2.135 . S
O90 Co89 2.061 . S
O90 C93 1.235 . S
C91 O94 1.238 . S
C91 O95 1.241 . S
C92 O85 1.247 . S
C92 O86 1.261 . S
C93 O88 1.259 . S
C93 O90 1.235 . S
O94 Co84 2.021 . S
O94 C91 1.238 . S
O95 Co89 2.052 . S
O95 C91 1.241 . S
O96 Co84 2.137 . S
O96 C87 1.247 . S
O97 Co84 2.244 . S
O97 C87 1.272 . S
O97 Co89 2.135 . S
Co98 O99 2.216 . S
Co98 O100 2.091 . S
Co98 O102 2.004 . S
Co98 O108 2.021 . S
Co98 O110 2.137 . S
Co98 O111 2.244 . S
O99 Co98 2.216 . S
O99 C106 1.247 . S
O100 Co98 2.091 . S
O100 C106 1.261 . S
C101 O110 1.247 . S
C101 O111 1.272 . S
O102 Co98 2.004 . S
O102 C107 1.259 . S
Co103 O104 2.061 . S
Co103 O109 2.052 . S
Co103 O111 2.135 . S
O104 Co103 2.061 . S
O104 C107 1.235 . S
C105 O108 1.238 . S
C105 O109 1.241 . S
C106 O99 1.247 . S
C106 O100 1.261 . S
C107 O102 1.259 . S
C107 O104 1.235 . S
O108 Co98 2.021 . S
O108 C105 1.238 . S
O109 Co103 2.052 . S
O109 C105 1.241 . S
O110 Co98 2.137 . S
O110 C101 1.247 . S
O111 Co98 2.244 . S
O111 C101 1.272 . S
O111 Co103 2.135 . S
Co112 O113 2.216 . S
Co112 O114 2.091 . S
Co112 O116 2.004 . S
Co112 O122 2.021 . S
Co112 O124 2.137 . S
Co112 O125 2.244 . S
O113 Co112 2.216 . S
O113 C120 1.247 . S
O114 Co112 2.091 . S
O114 C120 1.261 . S
C115 O124 1.247 . S
C115 O125 1.272 . S
O116 Co112 2.004 . S
O116 C121 1.259 . S
Co117 O118 2.061 . S
Co117 O123 2.052 . S
Co117 O125 2.135 . S
O118 Co117 2.061 . S
O118 C121 1.235 . S
C119 O122 1.238 . S
C119 O123 1.241 . S
C120 O113 1.247 . S
C120 O114 1.261 . S
C121 O116 1.259 . S
C121 O118 1.235 . S
O122 Co112 2.021 . S
O122 C119 1.238 . S
O123 Co117 2.052 . S
O123 C119 1.241 . S
O124 Co112 2.137 . S
O124 C115 1.247 . S
O125 Co112 2.244 . S
O125 C115 1.272 . S
O125 Co117 2.135 . S
C126 C127 1.369 . S
C126 C128 1.419 . S
C126 H130 0.930 . S
C127 C126 1.369 . S
C127 C136 1.429 1_554 S
C128 C126 1.419 . S
C128 C129 1.363 . S
C128 H131 0.929 . S
C129 C128 1.363 . S
C129 C135 1.428 1_554 S
H130 C126 0.930 . S
H131 C128 0.929 . S
S132 N133 1.613 . S
S132 N134 1.610 . S
N133 S132 1.613 . S
N133 C136 1.350 . S
N134 S132 1.610 . S
N134 C135 1.351 . S
C135 C129 1.428 1_556 S
C135 N134 1.351 . S
C135 C136 1.434 . S
C136 C127 1.429 1_556 S
C136 N133 1.350 . S
C136 C135 1.434 . S
C137 C138 1.369 . S
C137 C139 1.419 1_565 S
C137 H141 0.930 . S
C138 C137 1.369 . S
C138 C147 1.429 1_554 S
C139 C137 1.419 1_545 S
C139 C140 1.363 . S
C139 H142 0.929 . S
C140 C139 1.363 . S
C140 C146 1.428 1_554 S
H141 C137 0.930 . S
H142 C139 0.929 . S
S143 N144 1.613 . S
S143 N145 1.610 1_565 S
N144 S143 1.613 . S
N144 C147 1.350 . S
N145 S143 1.610 1_545 S
N145 C146 1.351 . S
C146 C140 1.428 1_556 S
C146 N145 1.351 . S
C146 C147 1.434 1_545 S
C147 C138 1.429 1_556 S
C147 N144 1.350 . S
C147 C146 1.434 1_565 S
C148 C149 1.369 . S
C148 C150 1.419 1_655 S
C148 H152 0.930 . S
C149 C148 1.369 . S
C149 C158 1.429 . S
C150 C148 1.419 1_455 S
C150 C151 1.363 . S
C150 H153 0.929 . S
C151 C150 1.363 . S
C151 C157 1.428 . S
H152 C148 0.930 . S
H153 C150 0.929 . S
S154 N155 1.613 1_455 S
S154 N156 1.610 . S
N155 S154 1.613 1_655 S
N155 C158 1.350 . S
N156 S154 1.610 . S
N156 C157 1.351 . S
C157 C151 1.428 . S
C157 N156 1.351 . S
C157 C158 1.434 1_455 S
C158 C149 1.429 . S
C158 N155 1.350 . S
C158 C157 1.434 1_655 S
C159 C160 1.369 . S
C159 C161 1.419 . S
C159 H163 0.930 . S
C160 C159 1.369 . S
C160 C169 1.429 . S
C161 C159 1.419 . S
C161 C162 1.363 . S
C161 H164 0.929 . S
C162 C161 1.363 . S
C162 C168 1.428 . S
H163 C159 0.930 . S
H164 C161 0.929 . S
S165 N166 1.613 . S
S165 N167 1.610 . S
N166 S165 1.613 . S
N166 C169 1.350 . S
N167 S165 1.610 . S
N167 C168 1.351 . S
C168 C162 1.428 . S
C168 N167 1.351 . S
C168 C169 1.434 . S
C169 C160 1.429 . S
C169 N166 1.350 . S
C169 C168 1.434 . S
C170 C171 1.369 . S
C170 C172 1.419 . S
C170 H174 0.930 . S
C171 C170 1.369 . S
C171 C180 1.429 . S
C172 C170 1.419 . S
C172 C173 1.363 . S
C172 H175 0.929 . S
C173 C172 1.363 . S
C173 C179 1.428 . S
H174 C170 0.930 . S
H175 C172 0.929 . S
S176 N177 1.613 . S
S176 N178 1.610 . S
N177 S176 1.613 . S
N177 C180 1.350 . S
N178 S176 1.610 . S
N178 C179 1.351 . S
C179 C173 1.428 . S
C179 N178 1.351 . S
C179 C180 1.434 . S
C180 C171 1.429 . S
C180 N177 1.350 . S
C180 C179 1.434 . S
C181 C182 1.369 . S
C181 C183 1.419 . S
C181 H185 0.930 . S
C182 C181 1.369 . S
C182 C191 1.429 . S
C183 C181 1.419 . S
C183 C184 1.363 . S
C183 H186 0.929 . S
C184 C183 1.363 . S
C184 C190 1.428 . S
H185 C181 0.930 . S
H186 C183 0.929 . S
S187 N188 1.613 . S
S187 N189 1.610 . S
N188 S187 1.613 . S
N188 C191 1.350 . S
N189 S187 1.610 . S
N189 C190 1.351 . S
C190 C184 1.428 . S
C190 N189 1.351 . S
C190 C191 1.434 . S
C191 C182 1.429 . S
C191 N188 1.350 . S
C191 C190 1.434 . S
C192 C193 1.369 . S
C192 C194 1.419 . S
C192 H196 0.930 . S
C193 C192 1.369 . S
C193 C202 1.429 . S
C194 C192 1.419 . S
C194 C195 1.363 . S
C194 H197 0.929 . S
C195 C194 1.363 . S
C195 C201 1.428 . S
H196 C192 0.930 . S
H197 C194 0.929 . S
S198 N199 1.613 . S
S198 N200 1.610 . S
N199 S198 1.613 . S
N199 C202 1.350 . S
N200 S198 1.610 . S
N200 C201 1.351 . S
C201 C195 1.428 . S
C201 N200 1.351 . S
C201 C202 1.434 . S
C202 C193 1.429 . S
C202 N199 1.350 . S
C202 C201 1.434 . S
C203 C204 1.369 . S
C203 C205 1.419 . S
C203 H207 0.930 . S
C204 C203 1.369 . S
C204 C213 1.429 . S
C205 C203 1.419 . S
C205 C206 1.363 . S
C205 H208 0.929 . S
C206 C205 1.363 . S
C206 C212 1.428 . S
H207 C203 0.930 . S
H208 C205 0.929 . S
S209 N210 1.613 . S
S209 N211 1.610 . S
N210 S209 1.613 . S
N210 C213 1.350 . S
N211 S209 1.610 . S
N211 C212 1.351 . S
C212 C206 1.428 . S
C212 N211 1.351 . S
C212 C213 1.434 . S
C213 C204 1.429 . S
C213 N210 1.350 . S
C213 C212 1.434 . S
C214 C215 1.369 . S
C214 C216 1.419 . S
C214 H218 0.930 . S
C215 C214 1.369 . S
C215 C224 1.429 . S
C216 C214 1.419 . S
C216 C217 1.363 . S
C216 H219 0.929 . S
C217 C216 1.363 . S
C217 C223 1.428 . S
H218 C214 0.930 . S
H219 C216 0.929 . S
S220 N221 1.613 . S
S220 N222 1.610 . S
N221 S220 1.613 . S
N221 C224 1.350 . S
N222 S220 1.610 . S
N222 C223 1.351 . S
C223 C217 1.428 . S
C223 N222 1.351 . S
C223 C224 1.434 . S
C224 C215 1.429 . S
C224 N221 1.350 . S
C224 C223 1.434 . S
C225 C226 1.369 . S
C225 C227 1.419 . S
C225 H229 0.930 . S
C226 C225 1.369 . S
C226 C235 1.429 . S
C227 C225 1.419 . S
C227 C228 1.363 . S
C227 H230 0.929 . S
C228 C227 1.363 . S
C228 C234 1.428 . S
H229 C225 0.930 . S
H230 C227 0.929 . S
S231 N232 1.613 . S
S231 N233 1.610 . S
N232 S231 1.613 . S
N232 C235 1.350 . S
N233 S231 1.610 . S
N233 C234 1.351 . S
C234 C228 1.428 . S
C234 N233 1.351 . S
C234 C235 1.434 . S
C235 C226 1.429 . S
C235 N232 1.350 . S
C235 C234 1.434 . S
C236 C237 1.369 . S
C236 C238 1.419 . S
C236 H240 0.930 . S
C237 C236 1.369 . S
C237 C246 1.429 . S
C238 C236 1.419 . S
C238 C239 1.363 . S
C238 H241 0.929 . S
C239 C238 1.363 . S
C239 C245 1.428 . S
H240 C236 0.930 . S
H241 C238 0.929 . S
S242 N243 1.613 . S
S242 N244 1.610 . S
N243 S242 1.613 . S
N243 C246 1.350 . S
N244 S242 1.610 . S
N244 C245 1.351 . S
C245 C239 1.428 . S
C245 N244 1.351 . S
C245 C246 1.434 . S
C246 C237 1.429 . S
C246 N243 1.350 . S
C246 C245 1.434 . S
C247 C248 1.369 . S
C247 C249 1.419 . S
C247 H251 0.930 . S
C248 C247 1.369 . S
C248 C257 1.429 . S
C249 C247 1.419 . S
C249 C250 1.363 . S
C249 H252 0.929 . S
C250 C249 1.363 . S
C250 C256 1.428 . S
H251 C247 0.930 . S
H252 C249 0.929 . S
S253 N254 1.613 1_545 S
S253 N255 1.610 . S
N254 S253 1.613 1_565 S
N254 C257 1.350 . S
N255 S253 1.610 . S
N255 C256 1.351 1_545 S
C256 C250 1.428 . S
C256 N255 1.351 1_565 S
C256 C257 1.434 . S
C257 C248 1.429 . S
C257 N254 1.350 . S
C257 C256 1.434 . S
C258 C259 1.369 . S
C258 C260 1.419 . S
C258 H262 0.930 . S
C259 C258 1.369 . S
C259 C268 1.429 . S
C260 C258 1.419 . S
C260 C261 1.363 . S
C260 H263 0.929 . S
C261 C260 1.363 . S
C261 C267 1.428 . S
H262 C258 0.930 . S
H263 C260 0.929 . S
S264 N265 1.613 . S
S264 N266 1.610 . S
N265 S264 1.613 . S
N265 C268 1.350 . S
N266 S264 1.610 . S
N266 C267 1.351 . S
C267 C261 1.428 . S
C267 N266 1.351 . S
C267 C268 1.434 . S
C268 C259 1.429 . S
C268 N265 1.350 . S
C268 C267 1.434 . S
C269 C270 1.369 . S
C269 C271 1.419 . S
C269 H273 0.930 . S
C270 C269 1.369 . S
C270 C279 1.429 . S
C271 C269 1.419 . S
C271 C272 1.363 . S
C271 H274 0.929 . S
C272 C271 1.363 . S
C272 C278 1.428 . S
H273 C269 0.930 . S
H274 C271 0.929 . S
S275 N276 1.613 . S
S275 N277 1.610 . S
N276 S275 1.613 . S
N276 C279 1.350 . S
N277 S275 1.610 . S
N277 C278 1.351 . S
C278 C272 1.428 . S
C278 N277 1.351 . S
C278 C279 1.434 . S
C279 C270 1.429 . S
C279 N276 1.350 . S
C279 C278 1.434 . S
C280 C281 1.369 . S
C280 C282 1.419 . S
C280 H284 0.930 . S
C281 C280 1.369 . S
C281 C290 1.429 . S
C282 C280 1.419 . S
C282 C283 1.363 . S
C282 H285 0.929 . S
C283 C282 1.363 . S
C283 C289 1.428 . S
H284 C280 0.930 . S
H285 C282 0.929 . S
S286 N287 1.613 . S
S286 N288 1.610 . S
N287 S286 1.613 . S
N287 C290 1.350 . S
N288 S286 1.610 . S
N288 C289 1.351 . S
C289 C283 1.428 . S
C289 N288 1.351 . S
C289 C290 1.434 . S
C290 C281 1.429 . S
C290 N287 1.350 . S
C290 C289 1.434 . S
C291 C292 1.369 . S
C291 C293 1.418 1_455 S
C291 H295 0.930 . S
C292 C291 1.369 . S
C292 C301 1.429 . S
C293 C291 1.418 1_655 S
C293 C294 1.363 . S
C293 H296 0.930 . S
C294 C293 1.363 . S
C294 C300 1.428 1_655 S
H295 C291 0.930 . S
H296 C293 0.930 . S
S297 N298 1.613 . S
S297 N299 1.610 . S
N298 S297 1.613 . S
N298 C301 1.350 . S
N299 S297 1.610 . S
N299 C300 1.351 . S
C300 C294 1.428 1_455 S
C300 N299 1.351 . S
C300 C301 1.434 . S
C301 C292 1.429 . S
C301 N298 1.350 . S
C301 C300 1.434 . S
C302 C303 1.369 . S
C302 C304 1.419 . S
C302 H306 0.930 . S
C303 C302 1.369 . S
C303 C312 1.429 . S
C304 C302 1.419 . S
C304 C305 1.363 . S
C304 H307 0.929 . S
C305 C304 1.363 . S
C305 C311 1.428 . S
H306 C302 0.930 . S
H307 C304 0.929 . S
S308 N309 1.613 . S
S308 N310 1.610 . S
N309 S308 1.613 . S
N309 C312 1.350 . S
N310 S308 1.610 . S
N310 C311 1.351 . S
C311 C305 1.428 . S
C311 N310 1.351 . S
C311 C312 1.434 . S
C312 C303 1.429 . S
C312 N309 1.350 . S
C312 C311 1.434 . S
C313 C314 1.369 1_545 S
C313 C315 1.419 . S
C313 H317 0.930 . S
C314 C313 1.369 1_565 S
C314 C323 1.429 . S
C315 C313 1.419 . S
C315 C316 1.363 . S
C315 H318 0.929 . S
C316 C315 1.363 . S
C316 C322 1.428 . S
H317 C313 0.930 . S
H318 C315 0.929 . S
S319 N320 1.613 . S
S319 N321 1.610 1_565 S
N320 S319 1.613 . S
N320 C323 1.350 . S
N321 S319 1.610 1_545 S
N321 C322 1.351 . S
C322 C316 1.428 . S
C322 N321 1.351 . S
C322 C323 1.434 1_545 S
C323 C314 1.429 . S
C323 N320 1.350 . S
C323 C322 1.434 1_565 S
C127 C37 1.170 . S
C129 C3 1.183 . S
C138 C23 1.177 . S
C140 C9 1.173 . S
C149 C17 1.234 . S
C151 C31 1.240 . S
C160 C73 1.198 . S
C162 C51 1.169 . S
C171 C65 1.158 . S
C173 C45 1.190 . S
C182 C59 1.198 . S
C184 C79 1.170 . S
C193 C87 1.190 . S
C195 C121 1.177 . S
C204 C93 1.120 . S
C206 C107 1.125 . S
C215 C101 1.183 . S
C217 C115 1.187 . S
C226 C8 1.416 . S
C228 C106 1.416 . S
C237 C21 1.407 . S
C239 C119 1.418 . S
C248 C91 1.402 . S
C250 C36 1.427 . S
C259 C63 1.392 . S
C261 C35 1.386 . S
C270 C7 1.405 . S
C272 C77 1.402 . S
C281 C49 1.412 . S
C283 C22 1.437 . S
C292 C105 1.394 . S
C294 C78 1.424 . S
C303 C50 1.431 . S
C305 C120 1.432 . S
C314 C92 1.441 . S
C316 C64 1.443 . S
