# Generated by pormake.
# Topology snk, (6)-cn, num edge types: 1
# Building blocks:
#     Node 0, Type 0, BuildingBlock: KUMJIN_clean_sbu_0, # of connection points: 6
#     Node 1, Type 0, BuildingBlock: KUMJIN_clean_sbu_0, # of connection points: 6
#     Node 2, Type 0, BuildingBlock: KUMJIN_clean_sbu_0, # of connection points: 6
#     Node 3, Type 0, BuildingBlock: KUMJIN_clean_sbu_0, # of connection points: 6
#     Node 4, Type 0, BuildingBlock: KUMJIN_clean_sbu_0, # of connection points: 6
#     Node 5, Type 0, BuildingBlock: KUMJIN_clean_sbu_0, # of connection points: 6
#     Node 6, Type 0, BuildingBlock: KUMJIN_clean_sbu_0, # of connection points: 6
#     Node 7, Type 0, BuildingBlock: KUMJIN_clean_sbu_0, # of connection points: 6
#     Edge 8, Type (0, 0), BuildingBlock: MIFKUJ_clean_linker_0, # of connection points: 2
#     Edge 9, Type (0, 0), BuildingBlock: MIFKUJ_clean_linker_0, # of connection points: 2
#     Edge 10, Type (0, 0), BuildingBlock: MIFKUJ_clean_linker_0, # of connection points: 2
#     Edge 11, Type (0, 0), BuildingBlock: MIFKUJ_clean_linker_0, # of connection points: 2
#     Edge 12, Type (0, 0), BuildingBlock: MIFKUJ_clean_linker_0, # of connection points: 2
#     Edge 13, Type (0, 0), BuildingBlock: MIFKUJ_clean_linker_0, # of connection points: 2
#     Edge 14, Type (0, 0), BuildingBlock: MIFKUJ_clean_linker_0, # of connection points: 2
#     Edge 15, Type (0, 0), BuildingBlock: MIFKUJ_clean_linker_0, # of connection points: 2
#     Edge 16, Type (0, 0), BuildingBlock: MIFKUJ_clean_linker_0, # of connection points: 2
#     Edge 17, Type (0, 0), BuildingBlock: MIFKUJ_clean_linker_0, # of connection points: 2
#     Edge 18, Type (0, 0), BuildingBlock: MIFKUJ_clean_linker_0, # of connection points: 2
#     Edge 19, Type (0, 0), BuildingBlock: MIFKUJ_clean_linker_0, # of connection points: 2
#     Edge 20, Type (0, 0), BuildingBlock: MIFKUJ_clean_linker_0, # of connection points: 2
#     Edge 21, Type (0, 0), BuildingBlock: MIFKUJ_clean_linker_0, # of connection points: 2
#     Edge 22, Type (0, 0), BuildingBlock: MIFKUJ_clean_linker_0, # of connection points: 2
#     Edge 23, Type (0, 0), BuildingBlock: MIFKUJ_clean_linker_0, # of connection points: 2
#     Edge 24, Type (0, 0), BuildingBlock: MIFKUJ_clean_linker_0, # of connection points: 2
#     Edge 25, Type (0, 0), BuildingBlock: MIFKUJ_clean_linker_0, # of connection points: 2
#     Edge 26, Type (0, 0), BuildingBlock: MIFKUJ_clean_linker_0, # of connection points: 2
#     Edge 27, Type (0, 0), BuildingBlock: MIFKUJ_clean_linker_0, # of connection points: 2
#     Edge 28, Type (0, 0), BuildingBlock: MIFKUJ_clean_linker_0, # of connection points: 2
#     Edge 29, Type (0, 0), BuildingBlock: MIFKUJ_clean_linker_0, # of connection points: 2
#     Edge 30, Type (0, 0), BuildingBlock: MIFKUJ_clean_linker_0, # of connection points: 2
#     Edge 31, Type (0, 0), BuildingBlock: MIFKUJ_clean_linker_0, # of connection points: 2
# Relax obj value: 0.014
# Max RMSD: 0.072
# Mean RMSD: 0.068
data_MOF--net-snk--node1-KUMJIN_clean_sbu_0--edge1-MIFKUJ_clean_linker_0
_symmetry_space_group_name_H-M    P1
_symmetry_Int_Tables_number       1
_symmetry_cell_setting            triclinic
loop_
_symmetry_equiv_pos_as_xyz
'x, y, z'
_cell_length_a     50.248999
_cell_length_b     50.303697
_cell_length_c     29.363341
_cell_angle_alpha  88.894581
_cell_angle_beta   88.631158
_cell_angle_gamma 90.077459
loop_
_atom_site_label
_atom_site_type_symbol
_atom_site_fract_x
_atom_site_fract_y
_atom_site_fract_z
_atom_type_partial_charge
Eu0 Eu 0.99913 0.98446 0.47152 0.0
C1 C 0.00789 0.08831 0.58287 0.0
C2 C 0.05413 0.10114 0.57376 0.0
C3 C 0.02042 0.13493 0.58654 0.0
C4 C 0.03409 0.08147 0.57435 0.0
C5 C 1.00084 0.11502 0.59054 0.0
C6 C 0.04706 0.12799 0.57826 0.0
C7 C 0.95666 0.09988 0.61252 0.0
N8 N 0.98973 0.06849 0.58817 0.0
C9 C 0.96474 0.0737 0.60501 0.0
C10 C 0.97466 0.12071 0.6044 0.0
Eu11 Eu 0.00435 0.02458 0.57411 0.0
N12 N 0.04026 0.05529 0.57127 0.0
C13 C 0.06624 0.04734 0.57117 0.0
C14 C 0.08074 0.09314 0.57114 0.0
C15 C 0.0868 0.06608 0.5705 0.0
H16 H 0.95073 0.05765 0.61124 0.0
H17 H 0.10725 0.05953 0.56981 0.0
H18 H 0.06216 0.1434 0.57721 0.0
H19 H 0.93659 0.10397 0.62457 0.0
H20 H 0.07136 0.02656 0.57079 0.0
H21 H 0.89464 0.95361 0.47835 0.0
H22 H 0.09666 0.10763 0.57143 0.0
H23 H 0.05237 0.94805 0.44225 0.0
H24 H 0.93193 0.98537 0.47255 0.0
H25 H 0.06466 0.90065 0.43487 0.0
H26 H 0.01535 0.15559 0.59176 0.0
H27 H 0.9035 0.90529 0.4833 0.0
H28 H 0.93675 0.86806 0.48074 0.0
H29 H 0.96845 0.14096 0.61066 0.0
H30 H 0.98312 0.85359 0.46868 0.0
N31 N 0.96185 0.95548 0.47529 0.0
C32 C 0.93619 0.96438 0.47443 0.0
C33 C 0.92001 0.91916 0.48069 0.0
C34 C 0.94632 0.91011 0.47852 0.0
C35 C 0.91493 0.94641 0.47775 0.0
C36 C 0.96709 0.92901 0.4754 0.0
H37 H 0.03084 0.8656 0.45031 0.0
N38 N 0.0123 0.93966 0.46254 0.0
C39 C 0.04451 0.90605 0.44467 0.0
C40 C 0.99315 0.92083 0.46882 0.0
C41 C 0.0375 0.93281 0.44871 0.0
C42 C 0.02539 0.88632 0.45361 0.0
C43 C 0.99921 0.89359 0.46501 0.0
O44 O 0.01824 0.98514 0.40365 0.0
O45 O 0.01689 0.02166 0.50014 0.0
O46 O 0.97947 0.04923 0.5254 0.0
O47 O 0.96799 0.01763 0.47171 0.0
O48 O 0.04168 0.99874 0.45985 0.0
O49 O 0.97606 0.9926 0.41061 0.0
O50 O 0.98645 0.02037 0.64273 0.0
O51 O 0.9867 0.98775 0.54495 0.0
O52 O 0.02122 0.95972 0.52364 0.0
O53 O 0.03728 0.9931 0.56934 0.0
O54 O 0.9619 0.00979 0.58613 0.0
O55 O 0.0287 0.0151 0.63303 0.0
C56 C 0.04014 0.02055 0.48211 0.0
C57 C 0.99128 0.97166 0.34337 0.0
C58 C 0.99204 0.96406 0.26118 0.0
C59 C 0.99604 0.98096 0.2983 0.0
C60 C 0.9831 0.9379 0.26996 0.0
C61 C 0.98213 0.94558 0.35096 0.0
C62 C 0.97814 0.92882 0.31451 0.0
C63 C 0.9655 0.04135 0.49034 0.0
C64 C 0.99609 0.98904 0.38231 0.0
C65 C 0.97881 0.87463 0.47087 0.0
C66 C 0.95241 0.88287 0.47769 0.0
C67 C 0.9635 0.98836 0.56292 0.0
C68 C 0.01376 0.03351 0.70263 0.0
C69 C 0.0084 0.02359 0.74716 0.0
C70 C 0.01221 0.03987 0.78515 0.0
C71 C 0.02156 0.06602 0.77781 0.0
C72 C 0.02333 0.05956 0.69652 0.0
C73 C 0.02712 0.0757 0.73382 0.0
C74 C 0.03765 0.96832 0.55465 0.0
C75 C 0.00907 0.01691 0.66263 0.0
H76 H 1.0031 1.00111 0.29221 0.0
H77 H 0.97948 0.92456 0.24224 0.0
H78 H 0.97795 0.93817 0.38499 0.0
H79 H 0.97105 0.90872 0.32083 0.0
H80 H 1.00101 1.00346 0.75216 0.0
H81 H 0.02505 0.07887 0.80626 0.0
H82 H 0.028 0.06743 0.66295 0.0
H83 H 0.03453 0.09578 0.72862 0.0
Eu84 Eu 0.27618 0.74822 0.70503 0.0
C85 C 0.1756 0.76601 0.83259 0.0
C86 C 0.16521 0.81299 0.82831 0.0
C87 C 0.13048 0.78102 0.84898 0.0
C88 C 0.18356 0.79196 0.82354 0.0
C89 C 0.14893 0.76022 0.84521 0.0
C90 C 0.13864 0.80736 0.8408 0.0
C91 C 0.16119 0.71397 0.85335 0.0
N92 N 0.1942 0.74651 0.83088 0.0
C93 C 0.18753 0.72077 0.8419 0.0
C94 C 0.14178 0.73378 0.85497 0.0
Eu95 Eu 0.23853 0.75983 0.81313 0.0
N96 N 0.2097 0.79687 0.81408 0.0
C97 C 0.21904 0.82234 0.8115 0.0
C98 C 0.17441 0.83913 0.82272 0.0
C99 C 0.20152 0.84383 0.81491 0.0
H100 H 0.2024 0.70534 0.84108 0.0
H101 H 0.20898 0.86399 0.81182 0.0
H102 H 0.12432 0.82327 0.84485 0.0
H103 H 0.15592 0.69351 0.86128 0.0
H104 H 0.24002 0.82622 0.80634 0.0
H105 H 0.30105 0.64292 0.70692 0.0
H106 H 0.16092 0.85581 0.82593 0.0
H107 H 0.31496 0.80051 0.67612 0.0
H108 H 0.27136 0.68192 0.7085 0.0
H109 H 0.36289 0.81065 0.66431 0.0
H110 H 0.10995 0.77699 0.85894 0.0
H111 H 0.34985 0.64945 0.70133 0.0
H112 H 0.38889 0.68034 0.69492 0.0
H113 H 0.12145 0.72852 0.86448 0.0
H114 H 0.40579 0.72602 0.68359 0.0
N115 N 0.3031 0.70993 0.70562 0.0
C116 C 0.29263 0.68489 0.70651 0.0
C117 C 0.33692 0.66646 0.70292 0.0
C118 C 0.34748 0.69216 0.70027 0.0
C119 C 0.30939 0.66276 0.70569 0.0
C120 C 0.32979 0.71383 0.70113 0.0
H121 H 0.39621 0.77472 0.67153 0.0
N122 N 0.32141 0.75957 0.69129 0.0
C123 C 0.35651 0.79055 0.67269 0.0
C124 C 0.33925 0.73944 0.69381 0.0
C125 C 0.32944 0.78476 0.67922 0.0
C126 C 0.37527 0.77022 0.67695 0.0
C127 C 0.36671 0.74419 0.6868 0.0
O128 O 0.2766 0.76428 0.63508 0.0
O129 O 0.2434 0.77041 0.73926 0.0
O130 O 0.21037 0.74343 0.76242 0.0
O131 O 0.24039 0.72048 0.71595 0.0
O132 O 0.2643 0.79139 0.69018 0.0
O133 O 0.26247 0.72425 0.64891 0.0
O134 O 0.24068 0.74469 0.88351 0.0
O135 O 0.27158 0.73734 0.77905 0.0
O136 O 0.30328 0.76634 0.75566 0.0
O137 O 0.27233 0.78946 0.7998 0.0
O138 O 0.24942 0.71652 0.82712 0.0
O139 O 0.25348 0.78483 0.86692 0.0
C140 C 0.24459 0.79267 0.71895 0.0
C141 C 0.2839 0.73261 0.57739 0.0
C142 C 0.28928 0.72762 0.49482 0.0
C143 C 0.2749 0.73747 0.53287 0.0
C144 C 0.31291 0.71335 0.50208 0.0
C145 C 0.30746 0.71821 0.58336 0.0
C146 C 0.32189 0.70875 0.54602 0.0
C147 C 0.21585 0.72564 0.73101 0.0
C148 C 0.26857 0.74211 0.6175 0.0
C149 C 0.38459 0.72278 0.68855 0.0
C150 C 0.37497 0.69678 0.69507 0.0
C151 C 0.26938 0.71499 0.79906 0.0
C152 C 0.23439 0.77699 0.94051 0.0
C153 C 0.24317 0.77021 0.9845 0.0
C154 C 0.22979 0.78013 0.02351 0.0
C155 C 0.20723 0.79628 1.01772 0.0
C156 C 0.21211 0.79351 0.93603 0.0
C157 C 0.19853 0.80289 0.97431 0.0
C158 C 0.29688 0.78537 0.78412 0.0
C159 C 0.24869 0.76729 0.89946 0.0
H160 H 0.25659 0.74841 0.52795 0.0
H161 H 0.32466 0.70595 0.47363 0.0
H162 H 0.3147 0.71408 0.61683 0.0
H163 H 0.3401 0.69774 0.55119 0.0
H164 H 0.26062 0.75779 0.98827 0.0
H165 H 0.19617 0.80375 0.04688 0.0
H166 H 0.20526 0.79945 0.90302 0.0
H167 H 0.18125 0.81548 0.97028 0.0
Eu168 Eu 0.50292 0.98439 0.07303 0.0
C169 C 0.49159 0.08629 0.94844 0.0
C170 C 0.44427 0.09548 0.95081 0.0
C171 C 0.47576 0.1317 0.93839 0.0
C172 C 0.46555 0.07734 0.95461 0.0
C173 C 0.49685 0.11346 0.939 0.0
C174 C 0.44952 0.12272 0.94411 0.0
C175 C 0.54299 0.10218 0.92506 0.0
N176 N 0.5116 0.06822 0.94798 0.0
C177 C 0.53679 0.07548 0.93409 0.0
C178 C 0.52303 0.12134 0.92838 0.0
Eu179 Eu 0.4996 0.02382 0.96612 0.0
N180 N 0.46092 0.05079 0.96079 0.0
C181 C 0.43548 0.04112 0.95961 0.0
C182 C 0.41828 0.08567 0.95174 0.0
C183 C 0.41386 0.05838 0.95579 0.0
H184 H 0.5523 0.06076 0.93107 0.0
H185 H 0.3938 0.05054 0.95555 0.0
H186 H 0.43337 0.1369 0.9418 0.0
H187 H 0.56313 0.10795 0.9154 0.0
H188 H 0.43131 0.02019 0.96225 0.0
H189 H 0.6098 0.96683 0.08579 0.0
H190 H 0.40162 0.09897 0.94742 0.0
H191 H 0.45247 0.94088 0.08571 0.0
H192 H 0.56889 0.99372 0.08371 0.0
H193 H 0.44568 0.89204 0.08806 0.0
H194 H 0.47946 0.15266 0.93172 0.0
H195 H 0.60712 0.91784 0.08135 0.0
H196 H 0.57878 0.8768 0.07773 0.0
H197 H 0.52783 0.142 0.92097 0.0
H198 H 0.5342 0.85647 0.07778 0.0
N199 N 0.54322 0.96037 0.07737 0.0
C200 C 0.56737 0.97238 0.082 0.0
C201 C 0.58905 0.92955 0.08058 0.0
C202 C 0.56411 0.9173 0.07803 0.0
C203 C 0.59065 0.95719 0.08313 0.0
C204 C 0.54121 0.93346 0.07681 0.0
H205 H 0.4845 0.86197 0.08211 0.0
N206 N 0.49448 0.93811 0.07681 0.0
C207 C 0.46557 0.90021 0.08441 0.0
C208 C 0.51613 0.92199 0.07617 0.0
C209 C 0.46944 0.92774 0.08318 0.0
C210 C 0.48754 0.8833 0.08093 0.0
C211 C 0.51324 0.8941 0.07763 0.0
O212 O 0.47947 0.98087 0.13646 0.0
O213 O 0.48437 0.01979 0.03858 0.0
O214 O 0.52244 0.04938 1.0139 0.0
O215 O 0.52879 0.02122 0.07743 0.0
O216 O 0.45921 0.99577 0.07803 0.0
O217 O 0.52093 0.99238 0.13862 0.0
O218 O 0.50282 0.9933 0.91404 0.0
O219 O 0.51985 0.99086 1.00271 0.0
O220 O 0.48777 0.95967 1.01614 0.0
O221 O 0.46724 0.99245 0.97305 0.0
O222 O 0.5442 0.01631 0.96541 0.0
O223 O 0.49869 0.03405 0.89305 0.0
C224 C 0.46074 0.01745 0.05387 0.0
C225 C 0.50307 0.96789 0.20203 0.0
C226 C 0.50881 0.96067 0.28399 0.0
C227 C 0.50556 0.97806 0.24615 0.0
C228 C 0.50924 0.93308 0.27686 0.0
C229 C 0.50375 0.9403 0.19615 0.0
C230 C 0.50679 0.92305 0.23328 0.0
C231 C 0.53236 0.04386 0.0543 0.0
C232 C 0.49951 0.986 0.16243 0.0
C233 C 0.53601 0.87795 0.07718 0.0
C234 C 0.5614 0.88952 0.07728 0.0
C235 C 0.54367 0.99459 0.98958 0.0
C236 C 0.52262 0.00586 0.84315 0.0
C237 C 0.51477 1.00367 0.79762 0.0
C238 C 0.53387 0.99901 0.76268 0.0
C239 C 0.56086 0.99694 0.77397 0.0
C240 C 0.54967 1.00356 0.85338 0.0
C241 C 0.56862 0.99919 0.81897 0.0
C242 C 0.47056 0.96729 0.98539 0.0
C243 C 0.50244 0.00988 0.87969 0.0
H244 H 0.50523 0.99938 0.25086 0.0
H245 H 0.51111 0.91912 0.30514 0.0
H246 H 0.50168 0.93196 0.16303 0.0
H247 H 0.5071 0.90179 0.22828 0.0
H248 H 0.49387 0.00508 0.7896 0.0
H249 H 0.57607 0.99379 0.74787 0.0
H250 H 0.55627 0.005 0.88783 0.0
H251 H 0.58943 0.99746 0.82726 0.0
Eu252 Eu 0.27211 0.25647 0.3206 0.0
C253 C 0.16838 0.2583 0.20983 0.0
C254 C 0.15099 0.21337 0.21117 0.0
C255 C 0.12103 0.25077 0.20067 0.0
C256 C 0.17246 0.23121 0.21511 0.0
C257 C 0.14261 0.26839 0.20269 0.0
C258 C 0.1253 0.22334 0.20407 0.0
C259 C 0.16179 0.31232 0.19434 0.0
N260 N 0.18986 0.27468 0.20905 0.0
C261 C 0.18703 0.30132 0.2002 0.0
C262 C 0.13944 0.2958 0.19579 0.0
Eu263 Eu 0.23198 0.25448 0.2186 0.0
N264 N 0.19778 0.22218 0.21906 0.0
C265 C 0.20311 0.19562 0.21729 0.0
C266 C 0.15624 0.18605 0.21173 0.0
C267 C 0.18243 0.17715 0.21463 0.0
H268 H 0.20421 0.31423 0.19869 0.0
H269 H 0.18676 0.15609 0.21409 0.0
H270 H 0.10875 0.21003 0.19933 0.0
H271 H 0.15961 0.33349 0.18829 0.0
H272 H 0.22334 0.18852 0.21836 0.0
H273 H 0.31659 0.35525 0.32402 0.0
H274 H 0.14039 0.1717 0.20825 0.0
H275 H 0.30018 0.19704 0.34108 0.0
H276 H 0.28026 0.32253 0.3198 0.0
H277 H 0.3447 0.17821 0.35316 0.0
H278 H 0.10113 0.2581 0.19465 0.0
H279 H 0.36304 0.34 0.33067 0.0
H280 H 0.39484 0.30194 0.34096 0.0
H281 H 0.11994 0.30431 0.19043 0.0
H282 H 0.40279 0.25393 0.34641 0.0
N283 N 0.30606 0.28905 0.31992 0.0
C284 C 0.30052 0.31558 0.32124 0.0
C285 C 0.3473 0.32551 0.32723 0.0
C286 C 0.35273 0.29823 0.32827 0.0
C287 C 0.32106 0.33421 0.32386 0.0
C288 C 0.33142 0.28022 0.32425 0.0
H289 H 0.38423 0.20767 0.35147 0.0
N290 N 0.31432 0.23664 0.33053 0.0
C291 C 0.34251 0.1993 0.3464 0.0
C292 C 0.33567 0.25317 0.32986 0.0
C293 C 0.31727 0.21006 0.33967 0.0
C294 C 0.36474 0.21597 0.34521 0.0
C295 C 0.36146 0.2433 0.33765 0.0
O296 O 0.27068 0.2398 0.39023 0.0
O297 O 0.23447 0.24043 0.29127 0.0
O298 O 0.208 0.27504 0.27393 0.0
O299 O 0.24271 0.29121 0.31624 0.0
O300 O 0.25482 0.21486 0.3329 0.0
O301 O 0.26205 0.28139 0.37865 0.0
O302 O 0.23384 0.27153 0.14923 0.0
O303 O 0.26973 0.27027 0.24784 0.0
O304 O 0.29602 0.2358 0.26539 0.0
O305 O 0.26114 0.21945 0.2235 0.0
O306 O 0.24949 0.29605 0.20658 0.0
O307 O 0.24132 0.22968 0.16002 0.0
C308 C 0.23389 0.21719 0.30879 0.0
C309 C 0.28146 0.26959 0.44878 0.0
C310 C 0.28589 0.27405 0.53118 0.0
C311 C 0.27101 0.26613 0.49351 0.0
C312 C 0.31142 0.28496 0.52341 0.0
C313 C 0.30694 0.2806 0.44225 0.0
C314 C 0.32183 0.28813 0.47926 0.0
C315 C 0.21743 0.2915 0.30423 0.0
C316 C 0.26551 0.26255 0.40908 0.0
C317 C 0.38289 0.26109 0.33986 0.0
C318 C 0.37844 0.28848 0.336 0.0
C319 C 0.2705 0.29352 0.23042 0.0
C320 C 0.22192 0.24253 0.09023 0.0
C321 C 0.23188 0.24684 0.04533 0.0
C322 C 0.21655 0.23968 1.0077 0.0
C323 C 0.19103 0.2288 1.01572 0.0
C324 C 0.19647 0.23149 0.09693 0.0
C325 C 0.1811 0.22483 0.06 0.0
C326 C 0.28634 0.21897 0.23598 0.0
C327 C 0.23828 0.24879 0.12991 0.0
H328 H 0.25123 0.25786 0.49891 0.0
H329 H 0.32348 0.29086 0.55161 0.0
H330 H 0.3153 0.28366 0.40861 0.0
H331 H 0.34149 0.29657 0.47366 0.0
H332 H 0.25165 0.2551 0.03974 0.0
H333 H 0.17863 0.22348 0.9876 0.0
H334 H 0.18848 0.22774 0.13064 0.0
H335 H 0.16145 0.21638 0.06576 0.0
Eu336 Eu 0.77317 0.25047 0.21946 0.0
C337 C 0.67255 0.2834 0.32876 0.0
C338 C 0.6719 0.33098 0.31524 0.0
C339 C 0.63026 0.30665 0.32416 0.0
C340 C 0.68606 0.30694 0.32038 0.0
C341 C 0.6445 0.28311 0.33235 0.0
C342 C 0.64395 0.33058 0.31561 0.0
C343 C 0.64694 0.23727 0.35796 0.0
N344 N 0.68692 0.26117 0.33723 0.0
C345 C 0.6747 0.2387 0.35435 0.0
C346 C 0.63172 0.25943 0.34602 0.0
Eu347 Eu 0.73377 0.26409 0.32637 0.0
N348 N 0.71307 0.30658 0.32043 0.0
C349 C 0.72703 0.32995 0.31935 0.0
C350 C 0.68622 0.3548 0.31152 0.0
C351 C 0.71388 0.3543 0.31454 0.0
H352 H 0.68651 0.22156 0.36361 0.0
H353 H 0.72513 0.37267 0.31274 0.0
H354 H 0.63275 0.34878 0.31087 0.0
H355 H 0.63731 0.21911 0.37 0.0
H356 H 0.74839 0.33016 0.32132 0.0
H357 H 0.7985 0.14491 0.23049 0.0
H358 H 0.67611 0.37368 0.3076 0.0
H359 H 0.81176 0.30216 0.18735 0.0
H360 H 0.76868 0.18366 0.22827 0.0
H361 H 0.85941 0.31195 0.17194 0.0
H362 H 0.60869 0.30676 0.32605 0.0
H363 H 0.84724 0.15118 0.22282 0.0
H364 H 0.88596 0.18221 0.20919 0.0
H365 H 0.61021 0.25837 0.34916 0.0
H366 H 0.90252 0.22757 0.19295 0.0
N367 N 0.80015 0.2119 0.22079 0.0
C368 C 0.78986 0.1868 0.22482 0.0
C369 C 0.83423 0.16833 0.22184 0.0
C370 C 0.84457 0.194 0.21523 0.0
C371 C 0.80673 0.16471 0.2261 0.0
C372 C 0.82677 0.21566 0.21454 0.0
H373 H 0.89276 0.27598 0.17839 0.0
N374 N 0.81828 0.26131 0.20326 0.0
C375 C 0.85314 0.29195 0.18137 0.0
C376 C 0.83611 0.24113 0.2053 0.0
C377 C 0.82619 0.28636 0.19002 0.0
C378 C 0.8719 0.27161 0.18515 0.0
C379 C 0.86347 0.24575 0.1967 0.0
O380 O 0.772 0.26709 0.14989 0.0
O381 O 0.73913 0.27236 0.25165 0.0
O382 O 0.70798 0.23953 0.28137 0.0
O383 O 0.73882 0.22147 0.22921 0.0
O384 O 0.76239 0.29374 0.20542 0.0
O385 O 0.75962 0.22647 0.16339 0.0
O386 O 0.7289 0.24759 0.39575 0.0
O387 O 0.76663 0.24109 0.29367 0.0
O388 O 0.80109 0.26824 0.26907 0.0
O389 O 0.77134 0.28949 0.31862 0.0
O390 O 0.74443 0.22098 0.34298 0.0
O391 O 0.74954 0.28485 0.3846 0.0
C392 C 0.7414 0.29457 0.2314 0.0
C393 C 0.77906 0.23623 0.09084 0.0
C394 C 0.78289 0.23315 1.00777 0.0
C395 C 0.7696 0.24266 0.04713 0.0
C396 C 0.80595 0.21768 1.01282 0.0
C397 C 0.80216 0.2208 0.09474 0.0
C398 C 0.81554 0.2117 0.05599 0.0
C399 C 0.7149 0.22282 0.24894 0.0
C400 C 0.7644 0.24482 0.1322 0.0
C401 C 0.8814 0.2244 0.19907 0.0
C402 C 0.87197 0.19857 0.20834 0.0
C403 C 0.76467 0.21924 0.31535 0.0
C404 C 0.7253 0.27928 0.45407 0.0
C405 C 0.73306 0.2735 0.49904 0.0
C406 C 0.71966 0.28528 0.5364 0.0
C407 C 0.69824 0.30252 0.52794 0.0
C408 C 0.70382 0.29647 0.44675 0.0
C409 C 0.69037 0.30795 0.48347 0.0
C410 C 0.79567 0.28501 0.30205 0.0
C411 C 0.73991 0.26787 0.41484 0.0
H412 H 0.75166 0.25443 0.04381 0.0
H413 H 0.81671 0.21035 0.98323 0.0
H414 H 0.80971 0.21551 0.12774 0.0
H415 H 0.83333 0.19979 0.05944 0.0
H416 H 0.74975 0.26034 0.50485 0.0
H417 H 0.68734 0.3116 0.55584 0.0
H418 H 0.69753 0.30117 0.41264 0.0
H419 H 0.67381 0.3212 0.47744 0.0
Eu420 Eu 0.77322 0.75819 0.82206 0.0
C421 C 0.66808 0.74631 0.7184 0.0
C422 C 0.65668 0.69997 0.73099 0.0
C423 C 0.6216 0.7327 0.72192 0.0
C424 C 0.67588 0.72041 0.72653 0.0
C425 C 0.64089 0.75264 0.71438 0.0
C426 C 0.62949 0.70638 0.73027 0.0
C427 C 0.65406 0.7969 0.68952 0.0
N428 N 0.68724 0.76488 0.7102 0.0
C429 C 0.68074 0.78953 0.69352 0.0
C430 C 0.634 0.77851 0.70083 0.0
Eu431 Eu 0.73205 0.75176 0.72051 0.0
N432 N 0.70231 0.71493 0.72629 0.0
C433 C 0.71083 0.68913 0.72627 0.0
C434 C 0.66538 0.67362 0.73424 0.0
C435 C 0.69257 0.66816 0.73094 0.0
H436 H 0.69625 0.8038 0.68493 0.0
H437 H 0.69952 0.64781 0.73228 0.0
H438 H 0.61446 0.691 0.7344 0.0
H439 H 0.64899 0.81672 0.67771 0.0
H440 H 0.73172 0.68447 0.72407 0.0
H441 H 0.80525 0.86223 0.81446 0.0
H442 H 0.65129 0.65735 0.73787 0.0
H443 H 0.80918 0.7044 0.84909 0.0
H444 H 0.77305 0.82538 0.82039 0.0
H445 H 0.85652 0.69153 0.85511 0.0
H446 H 0.60059 0.73723 0.71964 0.0
H447 H 0.85352 0.85284 0.80981 0.0
H448 H 0.89042 0.81923 0.81231 0.0
H449 H 0.61335 0.78418 0.69734 0.0
H450 H 0.90442 0.77274 0.82341 0.0
N451 N 0.80263 0.79511 0.81804 0.0
C452 C 0.794 0.82085 0.81862 0.0
C453 C 0.83946 0.83651 0.8125 0.0
C454 C 0.84823 0.81013 0.81473 0.0
C455 C 0.81223 0.84189 0.81524 0.0
C456 C 0.82907 0.7896 0.81791 0.0
H457 H 0.89193 0.72507 0.84038 0.0
N458 N 0.81795 0.74451 0.83009 0.0
C459 C 0.85131 0.7118 0.84616 0.0
C460 C 0.83699 0.76347 0.82404 0.0
C461 C 0.82458 0.71914 0.84289 0.0
C462 C 0.87124 0.73077 0.83764 0.0
C463 C 0.8642 0.75709 0.82725 0.0
O464 O 0.77259 0.73948 0.89009 0.0
O465 O 0.73575 0.74048 0.79465 0.0
O466 O 0.70854 0.77802 0.76896 0.0
O467 O 0.74069 0.78987 0.82139 0.0
O468 O 0.75873 0.71582 0.83468 0.0
O469 O 0.76478 0.78153 0.88281 0.0
O470 O 0.73403 0.7692 0.6515 0.0
O471 O 0.76894 0.76982 0.74861 0.0
O472 O 0.79777 0.73645 0.76894 0.0
O473 O 0.76416 0.7194 0.72481 0.0
O474 O 0.74718 0.7939 0.7061 0.0
O475 O 0.74158 0.72741 0.66132 0.0
C476 C 0.73675 0.71745 0.81306 0.0
C477 C 0.78525 0.76683 0.95055 0.0
C478 C 0.79123 0.76933 0.03308 0.0
C479 C 0.77496 0.76416 0.99556 0.0
C480 C 0.81795 0.77674 0.02452 0.0
C481 C 0.81182 0.77458 0.9433 0.0
C482 C 0.82807 0.77938 0.98003 0.0
C483 C 0.71694 0.79245 0.80305 0.0
C484 C 0.76828 0.76166 0.91128 0.0
C485 C 0.8834 0.77728 0.8216 0.0
C486 C 0.87542 0.80376 0.81531 0.0
C487 C 0.7685 0.79267 0.72959 0.0
C488 C 0.72157 0.74081 0.5925 0.0
C489 C 0.7317 0.74344 0.54737 0.0
C490 C 0.71544 0.73776 0.51006 0.0
C491 C 0.68887 0.7299 0.51895 0.0
C492 C 0.69515 0.73259 0.60007 0.0
C493 C 0.67891 0.72729 0.56354 0.0
C494 C 0.78911 0.71958 0.73862 0.0
C495 C 0.73842 0.74667 0.63163 0.0
H496 H 0.75432 0.75849 1.00123 0.0
H497 H 0.83122 0.78026 0.0523 0.0
H498 H 0.82004 0.77697 0.90927 0.0
H499 H 0.84863 0.78516 0.97399 0.0
H500 H 0.75222 0.74949 0.54148 0.0
H501 H 0.67558 0.72601 0.49135 0.0
H502 H 0.68705 0.73024 0.63422 0.0
H503 H 0.65847 0.72117 0.56983 0.0
Eu504 Eu 0.50271 0.48268 0.96529 0.0
C505 C 0.50745 0.58862 0.06738 0.0
C506 C 0.5535 0.60253 0.0594 0.0
C507 C 0.51846 0.6357 0.0639 0.0
C508 C 0.53408 0.58224 0.06227 0.0
C509 C 0.49935 0.61541 0.06932 0.0
C510 C 0.54549 0.62927 0.05897 0.0
C511 C 0.45456 0.60001 0.08635 0.0
N512 N 0.48961 0.56853 0.07324 0.0
C513 C 0.46359 0.57377 0.08439 0.0
C514 C 0.47243 0.62094 0.07811 0.0
Eu515 Eu 0.50604 0.5246 0.06622 0.0
N516 N 0.54113 0.5562 0.06331 0.0
C517 C 0.56731 0.54913 0.06534 0.0
C518 C 0.58039 0.59531 0.05857 0.0
C519 C 0.58731 0.56851 0.06236 0.0
H520 H 0.44965 0.55763 0.09034 0.0
H521 H 0.60804 0.56273 0.06269 0.0
H522 H 0.5601 0.64512 0.05618 0.0
H523 H 0.43384 0.60406 0.09424 0.0
H524 H 0.57296 0.5285 0.06794 0.0
H525 H 0.40185 0.44302 0.96155 0.0
H526 H 0.59592 0.61027 0.05619 0.0
H527 H 0.56046 0.45107 0.94464 0.0
H528 H 0.43613 0.47771 0.96252 0.0
H529 H 0.57724 0.40507 0.93902 0.0
H530 H 0.51261 0.65642 0.06481 0.0
H531 H 0.4147 0.39546 0.96341 0.0
H532 H 0.45101 0.36126 0.9636 0.0
H533 H 0.46539 0.64126 0.07981 0.0
H534 H 0.49882 0.35094 0.95761 0.0
N535 N 0.46839 0.45044 0.96586 0.0
C536 C 0.44215 0.45716 0.96348 0.0
C537 C 0.4299 0.4107 0.96423 0.0
C538 C 0.45688 0.40394 0.96476 0.0
C539 C 0.42256 0.43746 0.96304 0.0
C540 C 0.47593 0.42454 0.96503 0.0
H541 H 0.546 0.36715 0.94772 0.0
N542 N 0.52031 0.43922 0.95784 0.0
C543 C 0.55625 0.40863 0.94535 0.0
C544 C 0.50275 0.41874 0.96103 0.0
C545 C 0.54668 0.43464 0.94843 0.0
C546 C 0.53856 0.38728 0.95045 0.0
C547 C 0.51138 0.39218 0.95756 0.0
O548 O 0.52159 0.48441 0.89722 0.0
O549 O 0.51932 0.52035 0.99335 0.0
O550 O 0.48446 0.54785 1.01145 0.0
O551 O 0.46871 0.51309 0.96831 0.0
O552 O 0.54495 0.49846 0.95355 0.0
O553 O 0.47935 0.49117 0.90472 0.0
O554 O 0.48781 0.52408 0.13479 0.0
O555 O 0.48884 0.48722 0.03793 0.0
O556 O 0.52293 0.45895 0.02105 0.0
O557 O 0.53947 0.49351 0.06362 0.0
O558 O 0.46379 0.50904 0.0789 0.0
O559 O 0.52969 0.51568 0.12624 0.0
C560 C 0.54263 0.52012 0.97593 0.0
C561 C 0.49472 0.47162 0.8362 0.0
C562 C 0.49245 0.46606 0.75347 0.0
C563 C 0.49744 0.48216 0.79137 0.0
C564 C 0.48518 0.4393 0.76137 0.0
C565 C 0.48736 0.44492 0.84273 0.0
C566 C 0.48269 0.42889 0.8056 0.0
C567 C 0.46803 0.53823 0.98129 0.0
C568 C 0.49938 0.48838 0.8761 0.0
C569 C 0.49257 0.37149 0.95984 0.0
C570 C 0.46535 0.37736 0.9633 0.0
C571 C 0.46557 0.48759 0.05577 0.0
C572 C 0.51589 0.53644 0.19445 0.0
C573 C 0.51439 0.52612 0.23952 0.0
C574 C 0.52042 0.54238 0.27671 0.0
C575 C 0.52762 0.56908 0.26787 0.0
C576 C 0.5232 0.56309 0.18692 0.0
C577 C 0.52897 0.57927 0.22337 0.0
C578 C 0.53936 0.46821 0.05153 0.0
C579 C 0.5101 0.51948 0.15533 0.0
H580 H 0.50298 0.50284 0.7861 0.0
H581 H 0.48169 0.42624 0.73321 0.0
H582 H 0.48518 0.43642 0.87651 0.0
H583 H 0.47712 0.40826 0.81115 0.0
H584 H 0.50894 0.50547 0.24548 0.0
H585 H 0.53188 0.58227 0.29549 0.0
H586 H 0.52446 0.57141 0.15286 0.0
H587 H 0.53449 0.59985 0.2171 0.0
Eu588 Eu 0.00935 0.48491 0.57592 0.0
C589 C 0.98635 0.58652 0.45554 0.0
C590 C 0.93847 0.59198 0.46007 0.0
C591 C 0.96687 0.63014 0.44273 0.0
C592 C 0.96124 0.57574 0.46339 0.0
C593 C 0.98941 0.6138 0.44471 0.0
C594 C 0.94145 0.61922 0.45019 0.0
C595 C 0.03645 0.60612 0.43212 0.0
N596 N 0.00757 0.5699 0.45451 0.0
C597 C 0.03229 0.57907 0.44157 0.0
C598 C 0.0149 0.62358 0.43378 0.0
Eu599 Eu 0.99897 0.52421 0.46844 0.0
N600 N 0.95894 0.549 0.46935 0.0
C601 C 0.93444 0.53716 0.47027 0.0
C602 C 0.91332 0.5801 0.46391 0.0
C603 C 0.91131 0.55253 0.46842 0.0
H604 H 0.04887 0.56545 0.43933 0.0
H605 H 0.89196 0.54306 0.47022 0.0
H606 H 0.92414 0.63186 0.44683 0.0
H607 H 0.05616 0.6134 0.42285 0.0
H608 H 0.9325 0.51586 0.47323 0.0
H609 H 0.11678 0.46727 0.56969 0.0
H610 H 0.89537 0.59193 0.46176 0.0
H611 H 0.961 0.44193 0.60701 0.0
H612 H 0.07594 0.49412 0.5743 0.0
H613 H 0.95461 0.39325 0.61664 0.0
H614 H 0.96883 0.65109 0.43401 0.0
H615 H 0.11385 0.41826 0.56679 0.0
H616 H 0.08541 0.37717 0.57105 0.0
H617 H 0.01798 0.6444 0.42514 0.0
H618 H 0.0412 0.35696 0.58444 0.0
N619 N 0.04985 0.46076 0.57295 0.0
C620 C 0.07424 0.47278 0.57323 0.0
C621 C 0.09578 0.42996 0.56878 0.0
C622 C 0.07078 0.41769 0.57141 0.0
C623 C 0.09752 0.45761 0.57061 0.0
C624 C 0.04787 0.43384 0.57388 0.0
H625 H 0.99265 0.3629 0.60374 0.0
N626 N 1.00174 0.4387 0.58681 0.0
C627 C 0.97391 0.4012 0.60638 0.0
C628 C 0.02303 0.42244 0.58117 0.0
C629 C 0.97758 0.42866 0.60109 0.0
C630 C 0.99536 0.38411 0.59865 0.0
C631 C 0.02037 0.39464 0.58641 0.0
O632 O 0.99128 0.4824 0.64453 0.0
O633 O 0.98792 0.51824 0.54194 0.0
O634 O 0.01766 0.55142 0.51824 0.0
O635 O 0.03637 0.52132 0.57048 0.0
O636 O 0.96579 0.49639 0.58853 0.0
O637 O 0.03112 0.49807 0.63494 0.0
O638 O 0.0174 0.5249 0.40001 0.0
O639 O 0.02056 0.49101 0.50236 0.0
O640 O 0.98989 0.45808 0.52648 0.0
O641 O 0.97146 0.48824 0.47424 0.0
O642 O 0.0427 0.51392 0.45683 0.0
O643 O 0.9773 0.50998 0.41008 0.0
C644 C 0.96527 0.51669 0.56103 0.0
C645 C 0.02163 0.47442 0.70364 0.0
C646 C 0.02689 0.46792 0.78581 0.0
C647 C 0.01741 0.48309 0.74859 0.0
C648 C 0.04019 0.44387 0.77729 0.0
C649 C 0.03505 0.45041 0.6963 0.0
C650 C 0.04417 0.43521 0.73286 0.0
C651 C 0.03381 0.54529 0.5516 0.0
C652 C 0.01264 0.4906 0.66446 0.0
C653 C 0.04291 0.37839 0.58117 0.0
C654 C 0.06807 0.3899 0.57356 0.0
C655 C 0.04326 0.49332 0.48359 0.0
C656 C 0.98761 0.53142 0.33963 0.0
C657 C 0.9928 0.52169 0.29564 0.0
C658 C 0.98375 0.53576 0.25691 0.0
C659 C 0.97002 0.55985 0.26292 0.0
C660 C 0.9737 0.55537 0.34448 0.0
C661 C 0.9651 0.56954 0.30642 0.0
C662 C 0.97395 0.46425 0.49293 0.0
C663 C 0.99609 0.51636 0.38039 0.0
H664 H 0.00728 0.50176 0.75447 0.0
H665 H 0.04732 0.43157 0.80511 0.0
H666 H 0.03865 0.44346 0.66233 0.0
H667 H 0.05444 0.41668 0.7267 0.0
H668 H 1.00329 0.50303 0.29165 0.0
H669 H 0.96322 0.57133 0.23386 0.0
H670 H 0.96927 0.56305 0.37766 0.0
H671 H 0.95445 0.58806 0.31067 0.0
H672 H 0.09186 0.01682 0.45508 0.0
H673 H 0.12209 0.05131 0.42656 0.0
H674 H 0.06204 0.11062 0.45321 0.0
H675 H 0.03066 0.07527 0.47754 0.0
H676 H 0.08343 0.12569 0.38246 0.0
H677 H 0.13317 0.10384 0.51989 0.0
H678 H 0.15474 0.07391 0.57567 0.0
H679 H 0.20027 0.0382 0.4675 0.0
H680 H 0.17922 0.06825 0.41144 0.0
H681 H 0.18135 0.23031 0.33033 0.0
H682 H 0.14648 0.20034 0.36099 0.0
H683 H 0.19831 0.13326 0.33864 0.0
H684 H 0.23357 0.16345 0.31187 0.0
H685 H 0.17972 0.12528 0.41419 0.0
H686 H 0.11621 0.13886 0.27766 0.0
H687 H 0.08867 0.16606 0.22618 0.0
H688 H 0.06928 0.21862 0.33557 0.0
H689 H 0.09567 0.19088 0.38811 0.0
C690 C 0.08511 0.03726 0.45542 0.0
C691 C 0.05892 0.04316 0.47011 0.0
C692 C 0.10277 0.0573 0.43966 0.0
C693 C 0.0953 0.08431 0.43893 0.0
C694 C 0.06892 0.09024 0.45351 0.0
C695 C 0.05092 0.06997 0.46819 0.0
C696 C 0.11417 0.10579 0.41987 0.0
C697 C 0.10442 0.12566 0.39023 0.0
C698 C 0.14193 0.10623 0.42839 0.0
C699 C 0.15422 0.08783 0.46164 0.0
C700 C 0.14752 0.08935 0.50816 0.0
C701 C 0.1598 0.07252 0.53976 0.0
C702 C 0.17865 0.05397 0.52508 0.0
C703 C 0.18556 0.05248 0.47882 0.0
C704 C 0.17359 0.06951 0.44718 0.0
C705 C 0.18501 0.20909 0.33107 0.0
C706 C 0.21029 0.19932 0.31814 0.0
C707 C 0.1648 0.1917 0.34837 0.0
C708 C 0.16902 0.16391 0.35222 0.0
C709 C 0.19403 0.15434 0.33699 0.0
C710 C 0.21433 0.17169 0.32114 0.0
C711 C 0.14913 0.14483 0.37568 0.0
C712 C 0.15873 0.12536 0.40639 0.0
C713 C 0.12124 0.14492 0.36845 0.0
C714 C 0.10856 0.16342 0.3362 0.0
C715 C 0.10641 0.15649 0.29041 0.0
C716 C 0.09066 0.17172 0.26131 0.0
C717 C 0.07744 0.19421 0.27749 0.0
C718 C 0.07969 0.20133 0.32298 0.0
C719 C 0.09484 0.18574 0.3525 0.0
H720 H 0.06539 0.20607 0.25479 0.0
H721 H 0.18802 0.04088 0.54957 0.0
H722 H 0.07961 0.97927 0.60976 0.0
H723 H 0.11319 0.94849 0.63819 0.0
H724 H 0.07582 0.88423 0.56826 0.0
H725 H 0.04128 0.91451 0.54231 0.0
H726 H 0.08975 0.86642 0.64523 0.0
H727 H 0.13558 0.91653 0.52829 0.0
H728 H 0.15122 0.95726 0.48785 0.0
H729 H 0.19488 0.97971 0.60505 0.0
H730 H 0.17921 0.93926 0.64645 0.0
H731 H 0.19716 0.7762 0.68698 0.0
H732 H 0.162 0.80344 0.65604 0.0
H733 H 0.2031 0.87414 0.69803 0.0
H734 H 0.24049 0.84657 0.72129 0.0
H735 H 0.18581 0.88752 0.62879 0.0
H736 H 0.12064 0.84108 0.74925 0.0
H737 H 0.09729 0.80132 0.78142 0.0
H738 H 0.0907 0.76962 0.64778 0.0
H739 H 0.11187 0.81006 0.61443 0.0
C740 C 0.07846 0.95858 0.60046 0.0
C741 C 0.05797 0.94958 0.57272 0.0
C742 C 0.09789 0.94098 0.61647 0.0
C743 C 0.09759 0.91401 0.60457 0.0
C744 C 0.07679 0.90491 0.57771 0.0
C745 C 0.05716 0.9224 0.5623 0.0
C746 C 0.11862 0.89519 0.62062 0.0
C747 C 0.11081 0.87107 0.64166 0.0
C748 C 0.14614 0.90089 0.61573 0.0
C749 C 0.15604 0.92496 0.5906 0.0
C750 C 0.14842 0.93021 0.54552 0.0
C751 C 0.15729 0.95324 0.52243 0.0
C752 C 0.17398 0.97109 0.5439 0.0
C753 C 0.18193 0.96588 0.58847 0.0
C754 C 0.17308 0.94288 0.61175 0.0
C755 C 0.19836 0.79756 0.69033 0.0
C756 C 0.22115 0.80925 0.70811 0.0
C757 C 0.17776 0.81338 0.67324 0.0
C758 C 0.17858 0.84135 0.67591 0.0
C759 C 0.20141 0.85281 0.69485 0.0
C760 C 0.22279 0.83704 0.70895 0.0
C761 C 0.15714 0.859 0.65637 0.0
C762 C 0.16484 0.88295 0.63377 0.0
C763 C 0.12945 0.85294 0.65912 0.0
C764 C 0.11855 0.82809 0.6796 0.0
C765 C 0.11451 0.82544 0.72689 0.0
C766 C 0.10154 0.80291 0.74528 0.0
C767 C 0.09334 0.78263 0.71691 0.0
C768 C 0.09734 0.78517 0.66982 0.0
C769 C 0.10944 0.80803 0.65109 0.0
H770 H 0.08352 0.76515 0.73139 0.0
H771 H 0.1808 0.98892 0.52597 0.0
H772 H 0.34962 0.77404 0.78828 0.0
H773 H 0.38492 0.803 0.81529 0.0
H774 H 0.32752 0.86536 0.83777 0.0
H775 H 0.29198 0.83639 0.81184 0.0
H776 H 0.38217 0.8784 0.78905 0.0
H777 H 0.33754 0.8361 0.92373 0.0
H778 H 0.32222 0.79638 0.9675 0.0
H779 H 0.40208 0.76608 0.96743 0.0
H780 H 0.41777 0.80548 0.92299 0.0
H781 H 0.42468 0.97338 0.93915 0.0
H782 H 0.40086 0.93939 0.89828 0.0
H783 H 0.45986 0.8812 0.93611 0.0
H784 H 0.48348 0.91501 0.97814 0.0
H785 H 0.41188 0.86114 0.94697 0.0
H786 H 0.45899 0.90639 0.829 0.0
H787 H 0.47674 0.94493 0.7847 0.0
H788 H 0.39745 0.96727 0.74862 0.0
H789 H 0.37918 0.92923 0.79349 0.0
C790 C 0.34459 0.794 0.79869 0.0
C791 C 0.31814 0.80303 0.79845 0.0
C792 C 0.36472 0.81044 0.81389 0.0
C793 C 0.3586 0.83614 0.82818 0.0
C794 C 0.33241 0.84553 0.8265 0.0
C795 C 0.31219 0.82895 0.81216 0.0
C796 C 0.37904 0.85267 0.84833 0.0
C797 C 0.38874 0.87482 0.82355 0.0
C798 C 0.38818 0.84704 0.89253 0.0
C799 C 0.37876 0.82352 0.91956 0.0
C800 C 0.35177 0.82083 0.93265 0.0
C801 C 0.34303 0.79841 0.95766 0.0
C802 C 0.36115 0.77867 0.97012 0.0
C803 C 0.38806 0.78135 0.95769 0.0
C804 C 0.39688 0.80372 0.9326 0.0
C805 C 0.43257 0.95336 0.93874 0.0
C806 C 0.45584 0.94678 0.96177 0.0
C807 C 0.41906 0.93402 0.9152 0.0
C808 C 0.42894 0.90796 0.91354 0.0
C809 C 0.45204 0.90125 0.93692 0.0
C810 C 0.46541 0.92054 0.96096 0.0
C811 C 0.41447 0.88769 0.88839 0.0
C812 C 0.4059 0.86465 0.91211 0.0
C813 C 0.40685 0.89228 0.84281 0.0
C814 C 0.4177 0.91496 0.81485 0.0
C815 C 0.44533 0.9196 0.81181 0.0
C816 C 0.45549 0.94136 0.78662 0.0
C817 C 0.43824 0.95853 0.76388 0.0
C818 C 0.41079 0.95394 0.76624 0.0
C819 C 0.40052 0.93226 0.79153 0.0
H820 H 0.44614 0.97538 0.74442 0.0
H821 H 0.35436 0.76134 0.98952 0.0
H822 H 0.40829 0.01351 0.07589 0.0
H823 H 0.37838 0.04849 0.1021 0.0
H824 H 0.44072 0.10659 0.07877 0.0
H825 H 0.4712 0.07115 0.05478 0.0
H826 H 0.4193 0.11233 0.16001 0.0
H827 H 0.37388 0.11282 1.00895 0.0
H828 H 0.35284 0.08993 0.94503 0.0
H829 H 0.30389 0.04473 0.04014 0.0
H830 H 0.32447 0.0676 0.10422 0.0
H831 H 0.33935 0.22379 0.21562 0.0
H832 H 0.36877 0.1909 0.18087 0.0
H833 H 0.30389 0.1344 0.18206 0.0
H834 H 0.27401 0.16819 0.21312 0.0
H835 H 0.3271 0.12818 0.10978 0.0
H836 H 0.3637 0.13187 0.25943 0.0
H837 H 0.38316 0.15185 0.32716 0.0
H838 H 0.4468 0.18509 0.24411 0.0
H839 H 0.42797 0.16492 0.17597 0.0
C840 C 0.41545 0.03384 0.07553 0.0
C841 C 0.44195 0.03963 0.06255 0.0
C842 C 0.3982 0.05395 0.09007 0.0
C843 C 0.40693 0.08047 0.09163 0.0
C844 C 0.43332 0.08638 0.07762 0.0
C845 C 0.45071 0.06616 0.06352 0.0
C846 C 0.3895 0.10137 0.11231 0.0
C847 C 0.39928 0.11612 0.14848 0.0
C848 C 0.36291 0.10564 0.0991 0.0
C849 C 0.35111 0.09138 0.06102 0.0
C850 C 0.35891 0.0977 1.01596 0.0
C851 C 0.34693 0.08491 0.97982 0.0
C852 C 0.32726 0.06569 0.98855 0.0
C853 C 0.31926 0.05948 0.03341 0.0
C854 C 0.33096 0.07243 0.06959 0.0
C855 C 0.33144 0.20431 0.20841 0.0
C856 C 0.30438 0.19856 0.21683 0.0
C857 C 0.34838 0.18531 0.18902 0.0
C858 C 0.33895 0.15967 0.17945 0.0
C859 C 0.31188 0.15391 0.18872 0.0
C860 C 0.29474 0.17322 0.20662 0.0
C861 C 0.35677 0.13929 0.1579 0.0
C862 C 0.34711 0.12458 0.12153 0.0
C863 C 0.38323 0.13456 0.17192 0.0
C864 C 0.39429 0.14712 0.2126 0.0
C865 C 0.38174 0.14359 0.2556 0.0
C866 C 0.3927 0.15488 0.29405 0.0
C867 C 0.41607 0.1699 0.28988 0.0
C868 C 0.42866 0.1735 0.24728 0.0
C869 C 0.41795 0.16203 0.20877 0.0
H870 H 0.42448 0.17866 0.3197 0.0
H871 H 0.3181 0.05576 0.96055 0.0
H872 H 0.9105 0.98978 0.58094 0.0
H873 H 0.88098 0.95425 0.6094 0.0
H874 H 0.94648 0.89902 0.60541 0.0
H875 H 0.97619 0.93486 0.5761 0.0
H876 H 0.90137 0.8741 0.58008 0.0
H877 H 0.92422 0.92647 0.70662 0.0
H878 H 0.93034 0.96759 0.74956 0.0
H879 H 0.84667 0.98395 0.74278 0.0
H880 H 0.8401 0.94313 0.69917 0.0
H881 H 0.82217 0.78027 0.71729 0.0
H882 H 0.85838 0.81029 0.69081 0.0
H883 H 0.80274 0.87536 0.6848 0.0
H884 H 0.76692 0.8456 0.71164 0.0
H885 H 0.84749 0.89243 0.7197 0.0
H886 H 0.82599 0.84066 0.58816 0.0
H887 H 0.82075 0.79907 0.54612 0.0
H888 H 0.90322 0.78061 0.56499 0.0
H889 H 0.90885 0.82194 0.6077 0.0
C890 C 0.91862 0.97 0.58563 0.0
C891 C 0.94569 0.96521 0.57551 0.0
C892 C 0.90168 0.94961 0.60227 0.0
C893 C 0.91131 0.92374 0.61063 0.0
C894 C 0.93832 0.91867 0.59957 0.0
C895 C 0.95535 0.93919 0.5826 0.0
C896 C 0.89323 0.90265 0.63227 0.0
C897 C 0.88995 0.87802 0.61104 0.0
C898 C 0.87792 0.9074 0.67263 0.0
C899 C 0.88171 0.93183 0.69931 0.0
C900 C 0.90715 0.93892 0.71405 0.0
C901 C 0.9107 0.96217 0.73852 0.0
C902 C 0.88891 0.9784 0.74882 0.0
C903 C 0.86352 0.97137 0.73476 0.0
C904 C 0.85987 0.94816 0.71019 0.0
C905 C 0.8178 0.80107 0.71102 0.0
C906 C 0.79166 0.81061 0.71764 0.0
C907 C 0.83851 0.81825 0.69528 0.0
C908 C 0.83356 0.84536 0.68521 0.0
C909 C 0.80743 0.85475 0.69227 0.0
C910 C 0.78684 0.83764 0.70768 0.0
C911 C 0.85506 0.86415 0.66694 0.0
C912 C 0.85903 0.88841 0.68892 0.0
C913 C 0.87109 0.85891 0.62755 0.0
C914 C 0.86776 0.83422 0.60156 0.0
C915 C 0.84296 0.82763 0.58362 0.0
C916 C 0.83992 0.80412 0.55963 0.0
C917 C 0.86162 0.78717 0.55301 0.0
C918 C 0.88642 0.79374 0.57022 0.0
C919 C 0.88955 0.8172 0.5943 0.0
H920 H 0.85923 0.76897 0.53444 0.0
H921 H 0.8917 0.9964 0.76776 0.0
H922 H 0.93354 0.07779 0.53319 0.0
H923 H 0.90128 0.10798 0.49936 0.0
H924 H 0.92137 0.07786 0.36631 0.0
H925 H 0.95324 0.04713 0.40059 0.0
H926 H 0.9026 0.14762 0.44352 0.0
H927 H 0.86873 0.08089 0.29712 0.0
H928 H 0.86515 0.03319 0.28005 0.0
H929 H 0.85824 0.01415 0.42304 0.0
H930 H 0.86138 0.06174 0.44091 0.0
H931 H 0.81883 0.22822 0.3103 0.0
H932 H 0.85423 0.1978 0.33194 0.0
H933 H 0.79544 0.13867 0.3721 0.0
H934 H 0.76014 0.16834 0.34614 0.0
H935 H 0.83438 0.11376 0.33985 0.0
H936 H 0.82873 0.1837 0.45007 0.0
H937 H 0.82852 0.23056 0.47344 0.0
H938 H 0.90764 0.24102 0.41743 0.0
H939 H 0.90823 0.19425 0.3934 0.0
C940 C 0.93139 0.07783 0.49678 0.0
C941 C 0.94614 0.06014 0.46974 0.0
C942 C 0.91278 0.09508 0.47731 0.0
C943 C 0.9085 0.09519 0.43015 0.0
C944 C 0.92372 0.0779 0.40287 0.0
C945 C 0.94204 0.06035 0.42251 0.0
C946 C 0.88784 0.11304 0.40995 0.0
C947 C 0.88772 0.14015 0.42083 0.0
C948 C 0.86805 0.10348 0.38072 0.0
C949 C 0.86559 0.07485 0.37031 0.0
C950 C 0.86633 0.06652 0.32488 0.0
C951 C 0.86439 0.03951 0.31508 0.0
C952 C 0.86157 0.02065 0.35044 0.0
C953 C 0.86052 0.02877 0.39568 0.0
C954 C 0.86239 0.05576 0.40566 0.0
C955 C 0.81346 0.20846 0.32223 0.0
C956 C 0.78666 0.20043 0.3251 0.0
C957 C 0.83378 0.19116 0.33564 0.0
C958 C 0.82772 0.16593 0.35477 0.0
C959 C 0.80088 0.15789 0.35739 0.0
C960 C 0.78064 0.17491 0.34273 0.0
C961 C 0.84899 0.14831 0.37369 0.0
C962 C 0.8493 0.12125 0.36244 0.0
C963 C 0.8684 0.15773 0.40383 0.0
C964 C 0.86845 0.18556 0.41967 0.0
C965 C 0.84607 0.19601 0.44273 0.0
C966 C 0.84587 0.22255 0.45605 0.0
C967 C 0.86803 0.23878 0.44681 0.0
C968 C 0.89049 0.22843 0.42452 0.0
C969 C 0.89079 0.2019 0.41113 0.0
H970 H 0.8678 0.25935 0.45698 0.0
H971 H 0.86013 0.99974 0.34278 0.0
H972 H 0.70704 0.21042 0.16125 0.0
H973 H 0.67256 0.18148 0.13192 0.0
H974 H 0.64252 0.16631 0.26887 0.0
H975 H 0.6773 0.19499 0.29842 0.0
H976 H 0.64994 0.12027 0.21415 0.0
H977 H 0.60882 0.2063 0.20808 0.0
H978 H 0.60741 0.25415 0.1885 0.0
H979 H 0.61555 0.23654 0.04635 0.0
H980 H 0.61749 0.18856 0.06513 0.0
H981 H 0.53607 0.05251 0.14471 0.0
H982 H 0.56356 0.08561 0.18126 0.0
H983 H 0.592 0.11416 0.04929 0.0
H984 H 0.56425 0.08134 1.01265 0.0
H985 H 0.58305 0.15475 0.1062 0.0
H986 H 0.62806 0.07054 0.11006 0.0
H987 H 0.63175 0.02247 0.12668 0.0
H988 H 0.61912 0.0364 0.26938 0.0
H989 H 0.61487 0.08455 0.2535 0.0
C990 C 0.69315 0.2008 0.18506 0.0
C991 C 0.69449 0.20507 0.23201 0.0
C992 C 0.67343 0.18449 0.1683 0.0
C993 C 0.65496 0.17215 0.19833 0.0
C994 C 0.65656 0.17594 0.24533 0.0
C995 C 0.67617 0.19249 0.26208 0.0
C996 C 0.6342 0.15499 0.18035 0.0
C997 C 0.63495 0.1278 0.19125 0.0
C998 C 0.61529 0.16499 0.14958 0.0
C999 C 0.61347 0.19381 0.13806 0.0
C1000 C 0.61047 0.21262 0.17266 0.0
C1001 C 0.60957 0.23977 0.16171 0.0
C1002 C 0.61141 0.24837 0.11622 0.0
C1003 C 0.61412 0.22984 0.08158 0.0
C1004 C 0.61509 0.20266 0.09235 0.0
C1005 C 0.54813 0.06593 0.12354 0.0
C1006 C 0.54818 0.06439 0.07586 0.0
C1007 C 0.56371 0.08483 0.14441 0.0
C1008 C 0.57998 0.10205 0.1179 0.0
C1009 C 0.57946 0.10108 0.07025 0.0
C1010 C 0.56362 0.08236 0.04935 0.0
C1011 C 0.59881 0.11992 0.13988 0.0
C1012 C 0.59779 0.14724 0.12957 0.0
C1013 C 0.61774 0.11 0.17079 0.0
C1014 C 0.62088 0.08112 0.18055 0.0
C1015 C 0.62591 0.06334 0.14496 0.0
C1016 C 0.62811 0.03608 0.15424 0.0
C1017 C 0.62561 0.02638 0.19905 0.0
C1018 C 0.62101 0.04394 0.23468 0.0
C1019 C 0.61871 0.07122 0.22557 0.0
H1020 H 0.62729 0.00526 0.20616 0.0
H1021 H 0.61066 0.26939 0.10783 0.0
H1022 H 0.68517 0.82809 0.75838 0.0
H1023 H 0.65619 0.86197 0.79163 0.0
H1024 H 0.67819 0.83557 0.92633 0.0
H1025 H 0.70794 0.80241 0.89279 0.0
H1026 H 0.61449 0.86321 0.84106 0.0
H1027 H 0.67606 0.88466 1.00149 0.0
H1028 H 0.72294 0.8838 0.02463 0.0
H1029 H 0.74882 0.89506 0.88515 0.0
H1030 H 0.70212 0.8964 0.86127 0.0
H1031 H 0.5326 0.94148 0.98123 0.0
H1032 H 0.56246 0.90662 0.95473 0.0
H1033 H 0.6255 0.96445 0.93557 0.0
H1034 H 0.59619 0.99887 0.96648 0.0
H1035 H 0.6473 0.92226 0.96095 0.0
H1036 H 0.5838 0.94027 0.84516 0.0
H1037 H 0.53897 0.94538 0.81343 0.0
H1038 H 0.52106 0.86393 0.84784 0.0
H1039 H 0.56565 0.85833 0.88016 0.0
C1040 C 0.68357 0.82934 0.79502 0.0
C1041 C 0.6987 0.8125 0.82293 0.0
C1042 C 0.66705 0.84882 0.81413 0.0
C1043 C 0.66512 0.85178 0.86167 0.0
C1044 C 0.67974 0.83436 0.88958 0.0
C1045 C 0.69667 0.81527 0.87041 0.0
C1046 C 0.64803 0.87313 0.88189 0.0
C1047 C 0.62174 0.87611 0.86724 0.0
C1048 C 0.65743 0.89054 0.91543 0.0
C1049 C 0.68558 0.89035 0.92959 0.0
C1050 C 0.69175 0.88709 0.9758 0.0
C1051 C 0.7183 0.8865 0.98903 0.0
C1052 C 0.73885 0.88929 0.95637 0.0
C1053 C 0.73289 0.89282 0.91041 0.0
C1054 C 0.70639 0.89349 0.89701 0.0
C1055 C 0.55307 0.9466 0.97294 0.0
C1056 C 0.56226 0.9728 0.97733 0.0
C1057 C 0.57006 0.9267 0.95673 0.0
C1058 C 0.59624 0.93281 0.94196 0.0
C1059 C 0.60549 0.95901 0.94673 0.0
C1060 C 0.58871 0.97874 0.96431 0.0
C1061 C 0.6137 0.91224 0.92033 0.0
C1062 C 0.64005 0.90938 0.93475 0.0
C1063 C 0.6047 0.89568 0.88522 0.0
C1064 C 0.578 0.89893 0.86533 0.0
C1065 C 0.57026 0.92348 0.84612 0.0
C1066 C 0.54492 0.92647 0.82804 0.0
C1067 C 0.52723 0.90502 0.82869 0.0
C1068 C 0.53481 0.88052 0.84737 0.0
C1069 C 0.56012 0.8774 0.8655 0.0
H1070 H 0.50769 0.90736 0.81452 0.0
H1071 H 0.75938 0.88876 0.96668 0.0
H1072 H 0.52907 0.57308 0.9604 0.0
H1073 H 0.55875 0.60966 0.93431 0.0
H1074 H 0.62556 0.556 0.9359 0.0
H1075 H 0.59608 0.51974 0.96191 0.0
H1076 H 0.63975 0.60239 0.9709 0.0
H1077 H 0.59445 0.57535 0.83642 0.0
H1078 H 0.55549 0.56704 0.78917 0.0
H1079 H 0.53282 0.64907 0.79837 0.0
H1080 H 0.57146 0.65778 0.84625 0.0
H1081 H 0.73899 0.66485 0.83364 0.0
H1082 H 0.70362 0.63511 0.86222 0.0
H1083 H 0.64722 0.69943 0.85444 0.0
H1084 H 0.68298 0.72947 0.82567 0.0
H1085 H 0.62468 0.6522 0.82635 0.0
H1086 H 0.67142 0.68005 0.95634 0.0
H1087 H 0.71069 0.6887 1.00264 0.0
H1088 H 0.7303 0.60565 1.00251 0.0
H1089 H 0.69137 0.59655 0.95558 0.0
C1090 C 0.55015 0.56923 0.9558 0.0
C1091 C 0.56025 0.54352 0.96418 0.0
C1092 C 0.56715 0.59014 0.94036 0.0
C1093 C 0.59465 0.58583 0.93264 0.0
C1094 C 0.60461 0.56016 0.94155 0.0
C1095 C 0.58767 0.53934 0.95648 0.0
C1096 C 0.61327 0.60758 0.91492 0.0
C1097 C 0.63644 0.61307 0.93908 0.0
C1098 C 0.60893 0.62238 0.87402 0.0
C1099 C 0.58565 0.61714 0.84542 0.0
C1100 C 0.58101 0.59156 0.82874 0.0
C1101 C 0.55902 0.58679 0.80177 0.0
C1102 C 0.54164 0.60749 0.79089 0.0
C1103 C 0.54626 0.63303 0.8069 0.0
C1104 C 0.56821 0.6379 0.83396 0.0
C1105 C 0.71902 0.67268 0.83765 0.0
C1106 C 0.71385 0.6995 0.82653 0.0
C1107 C 0.69872 0.65561 0.85425 0.0
C1108 C 0.67252 0.66482 0.86121 0.0
C1109 C 0.66713 0.69161 0.84953 0.0
C1110 C 0.68759 0.70881 0.83286 0.0
C1111 C 0.65138 0.64651 0.88192 0.0
C1112 C 0.62781 0.64169 0.85838 0.0
C1113 C 0.65526 0.63232 0.92353 0.0
C1114 C 0.67857 0.63765 0.95212 0.0
C1115 C 0.6842 0.66365 0.96591 0.0
C1116 C 0.70639 0.66864 0.9923 0.0
C1117 C 0.723 0.64775 1.00544 0.0
C1118 C 0.71742 0.62181 0.99229 0.0
C1119 C 0.69528 0.61673 0.96582 0.0
H1120 H 0.74017 0.65164 0.02587 0.0
H1121 H 0.52465 0.60377 0.76994 0.0
H1122 H 0.68932 0.28032 0.22051 0.0
H1123 H 0.65302 0.30856 0.19266 0.0
H1124 H 0.70642 0.3757 0.18433 0.0
H1125 H 0.74296 0.34733 0.21068 0.0
H1126 H 0.64956 0.38175 0.2307 0.0
H1127 H 0.69897 0.3537 0.09445 0.0
H1128 H 0.71825 0.31965 0.04424 0.0
H1129 H 0.64091 0.28494 0.02939 0.0
H1130 H 0.62125 0.31853 0.08032 0.0
H1131 H 0.58318 0.48023 0.10133 0.0
H1132 H 0.61514 0.44951 0.13496 0.0
H1133 H 0.57119 0.38304 0.08418 0.0
H1134 H 0.53944 0.41369 0.04973 0.0
H1135 H 0.62097 0.37369 0.07096 0.0
H1136 H 0.56974 0.40021 0.19966 0.0
H1137 H 0.54752 0.43044 0.2536 0.0
H1138 H 0.62314 0.46361 0.28735 0.0
H1139 H 0.64582 0.4338 0.23317 0.0
C1140 C 0.69319 0.30118 0.21325 0.0
C1141 C 0.71879 0.31185 0.21874 0.0
C1142 C 0.67249 0.31724 0.1972 0.0
C1143 C 0.67701 0.34425 0.18669 0.0
C1144 C 0.70248 0.35496 0.19257 0.0
C1145 C 0.7233 0.33878 0.20755 0.0
C1146 C 0.65555 0.36119 0.1678 0.0
C1147 C 0.64344 0.38026 0.19566 0.0
C1148 C 0.64689 0.35844 0.12265 0.0
C1149 C 0.65871 0.33837 0.09181 0.0
C1150 C 0.68613 0.33861 0.08099 0.0
C1151 C 0.69711 0.31943 0.05229 0.0
C1152 C 0.68084 0.30006 0.03384 0.0
C1153 C 0.65351 0.2999 0.04388 0.0
C1154 C 0.64244 0.31899 0.07266 0.0
C1155 C 0.58023 0.45908 0.09738 0.0
C1156 C 0.55872 0.44952 0.07259 0.0
C1157 C 0.5985 0.44145 0.11691 0.0
C1158 C 0.59552 0.41378 0.11282 0.0
C1159 C 0.57406 0.40422 0.08795 0.0
C1160 C 0.55588 0.42184 0.06816 0.0
C1161 C 0.6151 0.39494 0.13353 0.0
C1162 C 0.62686 0.37533 0.1061 0.0
C1163 C 0.623 0.39682 0.17947 0.0
C1164 C 0.60946 0.41495 0.21193 0.0
C1165 C 0.58162 0.41412 0.21826 0.0
C1166 C 0.56894 0.43114 0.24895 0.0
C1167 C 0.58389 0.44899 0.27377 0.0
C1168 C 0.61157 0.4498 0.26803 0.0
C1169 C 0.62436 0.43282 0.23737 0.0
H1170 H 0.57404 0.46215 0.29753 0.0
H1171 H 0.68938 0.28525 1.01161 0.0
H1172 H 0.93277 0.43648 0.53056 0.0
H1173 H 0.90915 0.39949 0.49669 0.0
H1174 H 0.96139 0.40515 0.37769 0.0
H1175 H 0.98383 0.44329 0.41077 0.0
H1176 H 0.91558 0.39919 0.34997 0.0
H1177 H 0.96416 0.35066 0.45759 0.0
H1178 H 0.98406 0.33785 0.53064 0.0
H1179 H 0.90613 0.3279 0.59188 0.0
H1180 H 0.88572 0.34063 0.51909 0.0
H1181 H 0.84874 0.27961 0.28144 0.0
H1182 H 0.88566 0.30383 0.31382 0.0
H1183 H 0.83084 0.34369 0.40459 0.0
H1184 H 0.79356 0.32058 0.37117 0.0
H1185 H 0.88594 0.31945 0.43981 0.0
H1186 H 0.84189 0.37897 0.32502 0.0
H1187 H 0.82614 0.38487 0.24649 0.0
H1188 H 0.90423 0.36649 0.19355 0.0
H1189 H 0.92031 0.36018 0.27186 0.0
C1190 C 0.939 0.42972 0.49716 0.0
C1191 C 0.95966 0.44251 0.47274 0.0
C1192 C 0.92584 0.40842 0.47807 0.0
C1193 C 0.93385 0.39913 0.43498 0.0
C1194 C 0.95488 0.41192 0.41093 0.0
C1195 C 0.96758 0.43365 0.42962 0.0
C1196 C 0.91889 0.37744 0.41388 0.0
C1197 C 0.90971 0.38152 0.36947 0.0
C1198 C 0.91137 0.35409 0.43874 0.0
C1199 C 0.92342 0.34675 0.4829 0.0
C1200 C 0.95125 0.34592 0.48671 0.0
C1201 C 0.96262 0.33859 0.52804 0.0
C1202 C 0.94637 0.33214 0.56594 0.0
C1203 C 0.9187 0.3329 0.5625 0.0
C1204 C 0.90721 0.34007 0.52114 0.0
C1205 C 0.84442 0.29372 0.30789 0.0
C1206 C 0.81811 0.29874 0.32277 0.0
C1207 C 0.86559 0.30716 0.32678 0.0
C1208 C 0.86074 0.3253 0.36146 0.0
C1209 C 0.83475 0.32951 0.37793 0.0
C1210 C 0.81352 0.31648 0.3585 0.0
C1211 C 0.88225 0.3421 0.37747 0.0
C1212 C 0.89254 0.33697 0.42055 0.0
C1213 C 0.89161 0.36392 0.35089 0.0
C1214 C 0.88223 0.36898 0.30412 0.0
C1215 C 0.85565 0.37614 0.29659 0.0
C1216 C 0.84667 0.37955 0.25216 0.0
C1217 C 0.86416 0.37601 0.21505 0.0
C1218 C 0.89071 0.36922 0.22232 0.0
C1219 C 0.89977 0.36576 0.2667 0.0
H1220 H 0.85716 0.37857 0.18067 0.0
H1221 H 0.95521 0.3265 0.59795 0.0
H1222 H 0.77817 0.67572 0.6879 0.0
H1223 H 0.80953 0.64286 0.65819 0.0
H1224 H 0.87449 0.6851 0.71756 0.0
H1225 H 0.84342 0.71856 0.74578 0.0
H1226 H 0.88853 0.6707 0.6359 0.0
H1227 H 0.84912 0.62611 0.76527 0.0
H1228 H 0.81228 0.60917 0.8147 0.0
H1229 H 0.78594 0.55965 0.70709 0.0
H1230 H 0.8224 0.5766 0.65675 0.0
H1231 H 0.98183 0.56575 0.58611 0.0
H1232 H 0.95505 0.60099 0.61828 0.0
H1233 H 0.88368 0.55661 0.59117 0.0
H1234 H 0.91116 0.51944 0.56594 0.0
H1235 H 0.8751 0.57416 0.66375 0.0
H1236 H 0.90251 0.64575 0.53257 0.0
H1237 H 0.93587 0.67308 0.48973 0.0
H1238 H 0.98623 0.67256 0.60568 0.0
H1239 H 0.95204 0.64736 0.65041 0.0
C1240 C 0.79912 0.67806 0.69467 0.0
C1241 C 0.80814 0.69963 0.72 0.0
C1242 C 0.81706 0.6591 0.6779 0.0
C1243 C 0.84443 0.66111 0.68628 0.0
C1244 C 0.85351 0.6829 0.71085 0.0
C1245 C 0.83562 0.70193 0.72741 0.0
C1246 C 0.86365 0.64089 0.6686 0.0
C1247 C 0.88565 0.64953 0.64206 0.0
C1248 C 0.86011 0.6133 0.6767 0.0
C1249 C 0.83838 0.60279 0.70711 0.0
C1250 C 0.83538 0.61173 0.75204 0.0
C1251 C 0.81457 0.60211 0.78024 0.0
C1252 C 0.79675 0.58339 0.76401 0.0
C1253 C 0.79975 0.57417 0.7196 0.0
C1254 C 0.8205 0.58376 0.69123 0.0
C1255 C 0.96039 0.56378 0.58627 0.0
C1256 C 0.94856 0.54005 0.57247 0.0
C1257 C 0.94481 0.58444 0.604 0.0
C1258 C 0.91681 0.58263 0.60611 0.0
C1259 C 0.9051 0.55901 0.59058 0.0
C1260 C 0.92078 0.53771 0.57558 0.0
C1261 C 0.8996 0.60363 0.62814 0.0
C1262 C 0.87795 0.5952 0.65645 0.0
C1263 C 0.90363 0.63152 0.62202 0.0
C1264 C 0.92545 0.64345 0.59394 0.0
C1265 C 0.92095 0.65102 0.54855 0.0
C1266 C 0.93977 0.66654 0.52424 0.0
C1267 C 0.9635 0.67384 0.54448 0.0
C1268 C 0.96806 0.66648 0.58972 0.0
C1269 C 0.9488 0.65196 0.61477 0.0
H1270 H 0.97812 0.68559 0.52535 0.0
H1271 H 0.78064 0.57598 0.78588 0.0
H1272 H 0.32319 0.27946 0.21124 0.0
H1273 H 0.3587 0.30853 0.17993 0.0
H1274 H 0.30712 0.37642 0.19551 0.0
H1275 H 0.27138 0.34715 0.22344 0.0
H1276 H 0.32654 0.38124 0.11859 0.0
H1277 H 0.38825 0.373 0.26023 0.0
H1278 H 0.41537 0.34742 0.31471 0.0
H1279 H 0.43579 0.29168 0.21063 0.0
H1280 H 0.4097 0.31767 0.15516 0.0
H1281 H 0.41298 0.4906 0.07682 0.0
H1282 H 0.38263 0.45582 0.10416 0.0
H1283 H 0.44466 0.39749 0.08588 0.0
H1284 H 0.47586 0.43313 0.06215 0.0
H1285 H 0.4219 0.38376 0.15674 0.0
H1286 H 0.37668 0.40028 1.01445 0.0
H1287 H 0.35559 0.4267 0.95331 0.0
H1288 H 0.30438 0.46379 0.0524 0.0
H1289 H 0.32489 0.43721 0.11381 0.0
C1290 C 0.31971 0.30068 0.2089 0.0
C1291 C 0.29437 0.31094 0.2203 0.0
C1292 C 0.34027 0.31755 0.1912 0.0
C1293 C 0.33628 0.34525 0.18524 0.0
C1294 C 0.31121 0.35535 0.1989 0.0
C1295 C 0.29063 0.33853 0.21535 0.0
C1296 C 0.35647 0.36365 0.16099 0.0
C1297 C 0.34731 0.38184 0.12774 0.0
C1298 C 0.38414 0.36423 0.16995 0.0
C1299 C 0.39641 0.34669 0.20418 0.0
C1300 C 0.39817 0.35502 0.2493 0.0
C1301 C 0.41371 0.34073 0.28008 0.0
C1302 C 0.42717 0.31785 0.26619 0.0
C1303 C 0.42524 0.3093 0.22141 0.0
C1304 C 0.41024 0.32389 0.19025 0.0
C1305 C 0.42011 0.47028 0.07787 0.0
C1306 C 0.44679 0.46474 0.06576 0.0
C1307 C 0.40245 0.4501 0.09309 0.0
C1308 C 0.41054 0.4233 0.09611 0.0
C1309 C 0.43735 0.4177 0.08381 0.0
C1310 C 0.45526 0.43812 0.06944 0.0
C1311 C 0.39175 0.40185 0.11548 0.0
C1312 C 0.40113 0.38313 0.14759 0.0
C1313 C 0.36431 0.40048 0.10493 0.0
C1314 C 0.35266 0.41719 0.06857 0.0
C1315 C 0.36117 0.41434 0.02308 0.0
C1316 C 0.34919 0.42918 0.98843 0.0
C1317 C 0.32886 0.44712 0.99902 0.0
C1318 C 0.32023 0.45 0.04425 0.0
C1319 C 0.33191 0.43495 0.07892 0.0
H1320 H 0.31969 0.45865 0.97217 0.0
H1321 H 0.43911 0.30676 0.29014 0.0
H1322 H 0.46759 0.59279 0.97954 0.0
H1323 H 0.4345 0.62234 0.94595 0.0
H1324 H 0.38893 0.5542 0.90603 0.0
H1325 H 0.42237 0.52465 0.93823 0.0
H1326 H 0.39042 0.58694 0.83962 0.0
H1327 H 0.37074 0.59678 0.9988 0.0
H1328 H 0.37989 0.60653 0.0789 0.0
H1329 H 0.40329 0.68609 0.04029 0.0
H1330 H 0.39455 0.67673 0.95982 0.0
H1331 H 0.26355 0.6634 0.82455 0.0
H1332 H 0.29771 0.63247 0.85076 0.0
H1333 H 0.35823 0.69144 0.82132 0.0
H1334 H 0.32375 0.72324 0.79823 0.0
H1335 H 0.34936 0.66309 0.91941 0.0
H1336 H 0.39658 0.61828 0.76146 0.0
H1337 H 0.38787 0.60051 0.6855 0.0
H1338 H 0.30671 0.58452 0.72634 0.0
H1339 H 0.31538 0.60081 0.80304 0.0
C1340 C 0.45043 0.58409 0.96388 0.0
C1341 C 0.44765 0.55629 0.96172 0.0
C1342 C 0.43139 0.60106 0.94481 0.0
C1343 C 0.40885 0.59066 0.92381 0.0
C1344 C 0.40607 0.56287 0.92188 0.0
C1345 C 0.42525 0.54592 0.94039 0.0
C1346 C 0.38869 0.60849 0.90221 0.0
C1347 C 0.38136 0.6035 0.85732 0.0
C1348 C 0.37686 0.6303 0.92489 0.0
C1349 C 0.38225 0.63595 0.97321 0.0
C1350 C 0.37804 0.61629 1.00733 0.0
C1351 C 0.38309 0.62177 0.05281 0.0
C1352 C 0.39224 0.64689 0.06466 0.0
C1353 C 0.39626 0.66662 0.03105 0.0
C1354 C 0.39122 0.66125 0.98551 0.0
C1355 C 0.28422 0.66956 0.82256 0.0
C1356 C 0.29101 0.69548 0.80765 0.0
C1357 C 0.30381 0.65169 0.83696 0.0
C1358 C 0.33078 0.65904 0.83585 0.0
C1359 C 0.33768 0.68495 0.82097 0.0
C1360 C 0.31796 0.70309 0.80749 0.0
C1361 C 0.35098 0.64129 0.85707 0.0
C1362 C 0.35851 0.64654 0.90182 0.0
C1363 C 0.3626 0.61933 0.8346 0.0
C1364 C 0.35627 0.61205 0.78743 0.0
C1365 C 0.37677 0.61131 0.754 0.0
C1366 C 0.37198 0.60107 0.71101 0.0
C1367 C 0.34665 0.59169 0.70091 0.0
C1368 C 0.32621 0.59219 0.73398 0.0
C1369 C 0.33103 0.60205 0.77722 0.0
H1370 H 0.34292 0.58389 0.66757 0.0
H1371 H 0.39618 0.65107 0.09989 0.0
H1372 H 0.16288 0.73135 0.75178 0.0
H1373 H 0.12587 0.70666 0.72084 0.0
H1374 H 0.18039 0.66515 0.63178 0.0
H1375 H 0.21783 0.68891 0.66368 0.0
H1376 H 0.12473 0.68911 0.59624 0.0
H1377 H 0.1697 0.63078 0.7116 0.0
H1378 H 0.18644 0.62568 0.78962 0.0
H1379 H 0.10921 0.64545 0.8448 0.0
H1380 H 0.09215 0.65097 0.76699 0.0
H1381 H 0.07572 0.57112 0.51261 0.0
H1382 H 0.10054 0.60797 0.54443 0.0
H1383 H 0.0487 0.60564 0.66413 0.0
H1384 H 0.02496 0.56765 0.63308 0.0
H1385 H 0.09538 0.61092 0.6904 0.0
H1386 H 0.04598 0.65718 0.58101 0.0
H1387 H 0.02578 0.66784 0.50727 0.0
H1388 H 0.10343 0.67827 0.44526 0.0
H1389 H 0.12417 0.66727 0.51848 0.0
C1390 C 0.16713 0.71685 0.72588 0.0
C1391 C 0.19341 0.71158 0.711 0.0
C1392 C 0.14589 0.70309 0.70787 0.0
C1393 C 0.15063 0.68434 0.67413 0.0
C1394 C 0.17657 0.67982 0.65769 0.0
C1395 C 0.1979 0.69321 0.67623 0.0
C1396 C 0.12899 0.6673 0.65931 0.0
C1397 C 0.1182 0.67192 0.61643 0.0
C1398 C 0.11977 0.64592 0.68709 0.0
C1399 C 0.12973 0.6414 0.73364 0.0
C1400 C 0.15634 0.63408 0.74041 0.0
C1401 C 0.16588 0.63113 0.78456 0.0
C1402 C 0.14891 0.63526 0.82215 0.0
C1403 C 0.12233 0.64224 0.81566 0.0
C1404 C 0.11271 0.64525 0.77156 0.0
C1405 C 0.06978 0.57862 0.54565 0.0
C1406 C 0.04874 0.56692 0.57073 0.0
C1407 C 0.08367 0.59979 0.56362 0.0
C1408 C 0.07607 0.60998 0.60624 0.0
C1409 C 0.05482 0.59817 0.63115 0.0
C1410 C 0.04135 0.57658 0.61358 0.0
C1411 C 0.09154 0.6318 0.62581 0.0
C1412 C 0.10123 0.62825 0.66997 0.0
C1413 C 0.09898 0.6547 0.59963 0.0
C1414 C 0.08665 0.66128 0.55531 0.0
C1415 C 0.05878 0.66157 0.55161 0.0
C1416 C 0.04722 0.66771 0.5099 0.0
C1417 C 0.06331 0.67376 0.47162 0.0
C1418 C 0.09099 0.67363 0.47497 0.0
C1419 C 0.10267 0.66748 0.5166 0.0
H1420 H 0.05434 0.67857 0.43936 0.0
H1421 H 0.15634 0.63305 0.8563 0.0
H1422 H 0.23002 0.33484 0.35481 0.0
H1423 H 0.19962 0.36697 0.38927 0.0
H1424 H 0.13262 0.32428 0.33734 0.0
H1425 H 0.16295 0.29248 0.30184 0.0
H1426 H 0.12407 0.37378 0.32499 0.0
H1427 H 0.1503 0.32214 0.45271 0.0
H1428 H 0.18004 0.2998 0.5069 0.0
H1429 H 0.21253 0.37525 0.5432 0.0
H1430 H 0.18333 0.39805 0.4886 0.0
H1431 H 0.02943 0.44138 0.47094 0.0
H1432 H 0.05836 0.40532 0.4444 0.0
H1433 H 0.12565 0.4586 0.44194 0.0
H1434 H 0.09659 0.49496 0.4674 0.0
H1435 H 0.13164 0.40196 0.48517 0.0
H1436 H 0.10415 0.45171 0.3498 0.0
H1437 H 0.07049 0.47116 0.29934 0.0
H1438 H 0.03577 0.39402 0.2827 0.0
H1439 H 0.06892 0.37419 0.33389 0.0
C1440 C 0.20882 0.33223 0.35077 0.0
C1441 C 0.19899 0.31106 0.32542 0.0
C1442 C 0.19139 0.35057 0.3708 0.0
C1443 C 0.16367 0.34795 0.36664 0.0
C1444 C 0.15385 0.32684 0.34118 0.0
C1445 C 0.17127 0.30863 0.32082 0.0
C1446 C 0.14502 0.36764 0.38762 0.0
C1447 C 0.1256 0.37956 0.36023 0.0
C1448 C 0.14685 0.37546 0.43366 0.0
C1449 C 0.1648 0.3618 0.46609 0.0
C1450 C 0.16399 0.33397 0.47185 0.0
C1451 C 0.18072 0.32122 0.50272 0.0
C1452 C 0.19822 0.33609 0.52838 0.0
C1453 C 0.19901 0.36375 0.52322 0.0
C1454 C 0.18236 0.3766 0.49231 0.0
C1455 C 0.05046 0.44528 0.4655 0.0
C1456 C 0.06095 0.47079 0.47224 0.0
C1457 C 0.06692 0.42471 0.45013 0.0
C1458 C 0.09415 0.42929 0.44143 0.0
C1459 C 0.10473 0.45464 0.44881 0.0
C1460 C 0.08816 0.47535 0.46323 0.0
C1461 C 0.11134 0.40809 0.42226 0.0
C1462 C 0.1303 0.39593 0.45003 0.0
C1463 C 0.10872 0.39957 0.37697 0.0
C1464 C 0.08881 0.41152 0.34618 0.0
C1465 C 0.08914 0.43894 0.33586 0.0
C1466 C 0.07019 0.45003 0.30703 0.0
C1467 C 0.05095 0.43385 0.28793 0.0
C1468 C 0.05065 0.40654 0.2976 0.0
C1469 C 0.06951 0.39537 0.32653 0.0
H1470 H 0.03634 0.44246 0.26552 0.0
H1471 H 0.21112 0.32618 0.55234 0.0
H1472 H 0.98509 0.06487 0.85355 0.0
H1473 H 0.98132 0.05147 0.93387 0.0
H1474 H 0.02462 0.97948 0.90513 0.0
H1475 H 0.02808 0.99271 0.82428 0.0
H1476 H 0.98511 0.96973 0.9659 0.0
H1477 H 0.05546 0.03411 0.95021 0.0
H1478 H 0.07572 0.07705 0.92674 0.0
H1479 H 0.01949 0.11819 1.01219 0.0
H1480 H 0.99864 0.0755 0.03567 0.0
H1481 H 0.01838 0.9382 0.19277 0.0
H1482 H 0.02186 0.95098 0.11214 0.0
H1483 H 0.97898 0.02336 0.1398 0.0
H1484 H 0.97579 0.01076 0.2209 0.0
H1485 H 0.01849 0.03274 0.07944 0.0
H1486 H 0.9481 0.96822 0.09499 0.0
H1487 H 0.92791 0.92521 0.1183 0.0
H1488 H 0.9844 0.88425 0.03308 0.0
H1489 H 0.00517 0.92701 1.00975 0.0
C1490 C 0.99366 0.04609 0.86429 0.0
C1491 C 0.00714 0.02997 0.83267 0.0
C1492 C 0.99158 0.03849 0.91027 0.0
C1493 C 1.00325 0.01477 0.92587 0.0
C1494 C 0.0156 0.99797 0.89401 0.0
C1495 C 0.0175 0.00549 0.84779 0.0
C1496 C 1.00321 0.00795 0.97553 0.0
C1497 C 0.99274 0.98336 0.99064 0.0
C1498 C 0.01266 0.02594 1.00809 0.0
C1499 C 0.02534 0.05162 0.99438 0.0
C1500 C 0.0473 0.05232 0.96377 0.0
C1501 C 0.05891 0.07662 0.95049 0.0
C1502 C 0.04886 0.10034 0.96789 0.0
C1503 C 0.02724 0.09981 0.99871 0.0
C1504 C 0.01553 0.07556 1.01204 0.0
C1505 C 0.00978 0.9569 0.18171 0.0
C1506 C 0.99657 0.97335 0.21315 0.0
C1507 C 0.0117 0.96415 0.13555 0.0
C1508 C 1.00013 0.98785 0.11957 0.0
C1509 C 0.98793 0.0049 0.1512 0.0
C1510 C 0.98618 0.99773 0.19757 0.0
C1511 C 1.00033 0.99453 0.06985 0.0
C1512 C 0.01085 0.0191 0.05472 0.0
C1513 C 0.99095 0.97651 0.03728 0.0
C1514 C 0.97834 0.9508 0.05095 0.0
C1515 C 0.95632 0.95003 0.08145 0.0
C1516 C 0.94477 0.9257 0.09464 0.0
C1517 C 0.95491 0.90201 0.07727 0.0
C1518 C 0.97659 0.90261 0.04656 0.0
C1519 C 0.98825 0.92689 0.03331 0.0
H1520 H 0.94594 0.88319 0.08753 0.0
H1521 H 0.05787 0.11913 0.95755 0.0
H1522 H 0.27125 0.77383 0.45513 0.0
H1523 H 0.26088 0.78169 0.37484 0.0
H1524 H 0.27674 0.69923 0.34706 0.0
H1525 H 0.28731 0.69139 0.42696 0.0
H1526 H 0.30067 0.72938 0.28448 0.0
H1527 H 0.21274 0.72457 0.35025 0.0
H1528 H 0.17604 0.73584 0.40365 0.0
H1529 H 0.17822 0.81689 0.35506 0.0
H1530 H 0.2152 0.80619 0.30177 0.0
H1531 H 0.24574 0.73212 0.06002 0.0
H1532 H 0.25619 0.72203 0.13975 0.0
H1533 H 0.24458 0.80447 0.17266 0.0
H1534 H 0.23424 0.81462 0.09346 0.0
H1535 H 0.21796 0.77275 0.23219 0.0
H1536 H 0.3067 0.77661 0.16616 0.0
H1537 H 0.34256 0.76412 0.11194 0.0
H1538 H 0.33791 0.68315 0.16048 0.0
H1539 H 0.3017 0.69508 0.21454 0.0
C1540 C 0.27209 0.75732 0.43202 0.0
C1541 C 0.28021 0.73203 0.44737 0.0
C1542 C 0.26622 0.76182 0.38608 0.0
C1543 C 0.26797 0.74103 0.35474 0.0
C1544 C 0.27543 0.71564 0.37036 0.0
C1545 C 0.28144 0.71118 0.4161 0.0
C1546 C 0.26281 0.74581 0.30547 0.0
C1547 C 0.28241 0.73854 0.27305 0.0
C1548 C 0.2392 0.75813 0.29038 0.0
C1549 C 0.21692 0.76463 0.32233 0.0
C1550 C 0.20554 0.74485 0.3512 0.0
C1551 C 0.18466 0.75112 0.3814 0.0
C1552 C 0.17485 0.77708 0.38283 0.0
C1553 C 0.18586 0.7968 0.35396 0.0
C1554 C 0.20677 0.79064 0.32372 0.0
C1555 C 0.24586 0.74813 0.08414 0.0
C1556 C 0.23894 0.77412 0.07047 0.0
C1557 C 0.25176 0.74235 0.12973 0.0
C1558 C 0.25111 0.7625 0.16232 0.0
C1559 C 0.24497 0.78855 0.14833 0.0
C1560 C 0.23905 0.79431 0.10299 0.0
C1561 C 0.2559 0.75654 0.21131 0.0
C1562 C 0.2362 0.76356 0.24366 0.0
C1563 C 0.27933 0.74383 0.22626 0.0
C1564 C 0.30129 0.73669 0.19408 0.0
C1565 C 0.31318 0.7561 0.16504 0.0
C1566 C 0.33359 0.74913 0.13437 0.0
C1567 C 0.34246 0.72284 0.13268 0.0
C1568 C 0.33099 0.70349 0.16178 0.0
C1569 C 0.31053 0.71035 0.19246 0.0
H1570 H 0.35825 0.71747 0.1089 0.0
H1571 H 0.15868 0.78189 0.40624 0.0
H1572 H 0.55122 0.962 0.70231 0.0
H1573 H 0.54384 0.96105 0.62051 0.0
H1574 H 0.49177 0.02881 0.63126 0.0
H1575 H 0.49924 0.02999 0.71365 0.0
H1576 H 0.47366 0.99021 0.57023 0.0
H1577 H 0.5529 0.03988 0.59559 0.0
H1578 H 0.59657 0.04826 0.62914 0.0
H1579 H 0.62879 0.97953 0.56328 0.0
H1580 H 0.58519 0.97049 0.52991 0.0
H1581 H 0.48099 1.00093 0.32605 0.0
H1582 H 0.48292 0.01377 0.40614 0.0
H1583 H 0.54387 0.95494 0.42866 0.0
H1584 H 0.54288 0.94299 0.34883 0.0
H1585 H 0.55543 0.99756 0.47259 0.0
H1586 H 0.47535 0.94454 0.45614 0.0
H1587 H 0.43151 0.9346 0.42436 0.0
H1588 H 0.40097 0.00862 0.47379 0.0
H1589 H 0.44475 0.01912 0.5054 0.0
C1590 C 0.5381 0.97666 0.68736 0.0
C1591 C 0.52621 0.99639 0.71432 0.0
C1592 C 0.53386 0.97606 0.64061 0.0
C1593 C 0.51771 0.99521 0.61961 0.0
C1594 C 0.50444 0.01395 0.64674 0.0
C1595 C 0.50868 0.01456 0.69379 0.0
C1596 C 0.51609 0.99622 0.5691 0.0
C1597 C 0.49144 0.99231 0.54876 0.0
C1598 C 0.53932 0.99879 0.5411 0.0
C1599 C 0.56572 0.00443 0.56046 0.0
C1600 C 0.56926 0.02647 0.58846 0.0
C1601 C 0.594 0.03134 0.60744 0.0
C1602 C 0.61543 0.01442 0.5984 0.0
C1603 C 0.61218 0.99263 0.57026 0.0
C1604 C 0.58746 0.98764 0.55125 0.0
C1605 C 0.49513 0.99112 0.34793 0.0
C1606 C 0.51153 0.97068 0.33113 0.0
C1607 C 0.49601 0.99825 0.39385 0.0
C1608 C 0.51317 0.98496 0.42383 0.0
C1609 C 0.53033 0.96541 0.40648 0.0
C1610 C 0.52957 0.95842 0.36078 0.0
C1611 C 0.51312 0.99054 0.47353 0.0
C1612 C 0.53753 0.99584 0.49385 0.0
C1613 C 0.48969 0.98913 0.50139 0.0
C1614 C 0.46338 0.98274 0.48263 0.0
C1615 C 0.45933 0.95876 0.45994 0.0
C1616 C 0.43449 0.95302 0.44201 0.0
C1617 C 0.41349 0.97101 0.44692 0.0
C1618 C 0.41727 0.99473 0.46992 0.0
C1619 C 0.44208 1.00058 0.48787 0.0
H1620 H 0.39428 0.96653 0.43301 0.0
H1621 H 0.63457 0.01821 0.61315 0.0
H1622 H 0.21543 0.20332 0.94024 0.0
H1623 H 0.22738 0.20983 0.8597 0.0
H1624 H 0.25216 0.29012 0.88571 0.0
H1625 H 0.2399 0.28373 0.96681 0.0
H1626 H 0.21977 0.28732 0.81102 0.0
H1627 H 0.29804 0.24373 0.86399 0.0
H1628 H 0.32373 0.20898 0.90365 0.0
H1629 H 0.29296 0.15002 0.81503 0.0
H1630 H 0.26676 0.18438 0.77522 0.0
H1631 H 0.28635 0.31107 0.59771 0.0
H1632 H 0.27397 0.3051 0.67821 0.0
H1633 H 0.24947 0.22456 0.6534 0.0
H1634 H 0.26225 0.23038 0.57248 0.0
H1635 H 0.28168 0.22774 0.72746 0.0
H1636 H 0.20386 0.27142 0.67365 0.0
H1637 H 0.17933 0.30638 0.63236 0.0
H1638 H 0.20943 0.36522 0.72188 0.0
H1639 H 0.2346 0.33067 0.76318 0.0
C1640 C 0.22358 0.22233 0.9289 0.0
C1641 C 0.22667 0.24305 0.95986 0.0
C1642 C 0.23051 0.22599 0.88284 0.0
C1643 C 0.24074 0.25044 0.86657 0.0
C1644 C 0.24429 0.27109 0.89749 0.0
C1645 C 0.23752 0.26735 0.94384 0.0
C1646 C 0.24697 0.25445 0.81705 0.0
C1647 C 0.23362 0.27456 0.79288 0.0
C1648 C 0.26447 0.23733 0.79306 0.0
C1649 C 0.28023 0.2166 0.8169 0.0
C1650 C 0.29656 0.22332 0.8532 0.0
C1651 C 0.31126 0.2037 0.87566 0.0
C1652 C 0.30993 0.1773 0.86195 0.0
C1653 C 0.29395 0.17048 0.82565 0.0
C1654 C 0.27919 0.19002 0.8031 0.0
C1655 C 0.27816 0.29213 0.60933 0.0
C1656 C 0.27536 0.27115 0.5788 0.0
C1657 C 0.27097 0.28878 0.65533 0.0
C1658 C 0.26072 0.2644 0.67192 0.0
C1659 C 0.25736 0.24354 0.64136 0.0
C1660 C 0.26443 0.24695 0.59511 0.0
C1661 C 0.25447 0.26056 0.72143 0.0
C1662 C 0.26781 0.24048 0.7456 0.0
C1663 C 0.23695 0.2777 0.74535 0.0
C1664 C 0.22133 0.29846 0.72128 0.0
C1665 C 0.2054 0.29184 0.68437 0.0
C1666 C 0.19137 0.31158 0.66096 0.0
C1667 C 0.19287 0.33801 0.67442 0.0
C1668 C 0.20832 0.34473 0.71145 0.0
C1669 C 0.22246 0.32507 0.7349 0.0
H1670 H 0.18203 0.35327 0.65619 0.0
H1671 H 0.32132 0.16214 0.87938 0.0
H1672 H 0.76995 0.28141 0.96929 0.0
H1673 H 0.75874 0.29079 0.88972 0.0
H1674 H 0.76214 0.20689 0.86197 0.0
H1675 H 0.77427 0.19769 0.94082 0.0
H1676 H 0.78748 0.2322 0.79749 0.0
H1677 H 0.70178 0.24432 0.87148 0.0
H1678 H 0.67081 0.26371 0.92817 0.0
H1679 H 0.68702 0.34183 0.87279 0.0
H1680 H 0.71838 0.32295 0.81617 0.0
H1681 H 0.73008 0.23715 0.5778 0.0
H1682 H 0.73975 0.2284 0.65812 0.0
H1683 H 0.73708 0.31259 0.6834 0.0
H1684 H 0.72677 0.32127 0.60355 0.0
H1685 H 0.71132 0.28768 0.74921 0.0
H1686 H 0.79706 0.27581 0.67592 0.0
H1687 H 0.82886 0.2568 0.62019 0.0
H1688 H 0.81298 0.17846 0.67495 0.0
H1689 H 0.78081 0.19697 0.73063 0.0
C1690 C 0.76792 0.265 0.94626 0.0
C1691 C 0.77303 0.23883 0.9612 0.0
C1692 C 0.76148 0.27034 0.90075 0.0
C1693 C 0.75937 0.24954 0.86957 0.0
C1694 C 0.76377 0.22334 0.88503 0.0
C1695 C 0.77061 0.21807 0.93018 0.0
C1696 C 0.75358 0.25492 0.82052 0.0
C1697 C 0.77057 0.24402 0.78703 0.0
C1698 C 0.73197 0.27094 0.80651 0.0
C1699 C 0.7126 0.28223 0.83981 0.0
C1700 C 0.69883 0.26565 0.87151 0.0
C1701 C 0.6812 0.27654 0.90363 0.0
C1702 C 0.677 0.30399 0.90414 0.0
C1703 C 0.69032 0.32058 0.87238 0.0
C1704 C 0.70799 0.30979 0.84023 0.0
C1705 C 0.73188 0.25378 0.60042 0.0
C1706 C 0.72767 0.27989 0.58428 0.0
C1707 C 0.7374 0.24879 0.6464 0.0
C1708 C 0.7394 0.26985 0.67707 0.0
C1709 C 0.73553 0.29595 0.66072 0.0
C1710 C 0.7297 0.30091 0.61497 0.0
C1711 C 0.74513 0.26479 0.72623 0.0
C1712 C 0.72818 0.27579 0.75972 0.0
C1713 C 0.76679 0.24887 0.7403 0.0
C1714 C 0.78635 0.23775 0.70717 0.0
C1715 C 0.80023 0.25451 0.67589 0.0
C1716 C 0.81834 0.24383 0.64434 0.0
C1717 C 0.82289 0.21644 0.64395 0.0
C1718 C 0.80941 0.19968 0.67525 0.0
C1719 C 0.79126 0.21025 0.70684 0.0
H1720 H 0.83689 0.20821 0.61947 0.0
H1721 H 0.6634 0.31239 0.9291 0.0
H1722 H 0.74855 0.77601 0.4708 0.0
H1723 H 0.76194 0.78114 0.39031 0.0
H1724 H 0.71776 0.71044 0.35931 0.0
H1725 H 0.70539 0.70454 0.43962 0.0
H1726 H 0.76226 0.71089 0.31183 0.0
H1727 H 0.69298 0.77489 0.33986 0.0
H1728 H 0.67142 0.81255 0.37855 0.0
H1729 H 0.73745 0.86304 0.33986 0.0
H1730 H 0.75957 0.82557 0.30143 0.0
H1731 H 0.75761 0.73133 0.07166 0.0
H1732 H 0.74391 0.72612 0.15202 0.0
H1733 H 0.78865 0.7963 0.18397 0.0
H1734 H 0.80139 0.80225 0.1038 0.0
H1735 H 0.74364 0.79603 0.23082 0.0
H1736 H 0.81292 0.73173 0.20293 0.0
H1737 H 0.83413 0.69403 0.1638 0.0
H1738 H 0.76762 0.64402 0.20187 0.0
H1739 H 0.74586 0.68153 0.24076 0.0
C1740 C 0.74204 0.76131 0.44699 0.0
C1741 C 0.72557 0.74005 0.4618 0.0
C1742 C 0.74946 0.76444 0.40079 0.0
C1743 C 0.7404 0.7465 0.36833 0.0
C1744 C 0.72486 0.72471 0.3834 0.0
C1745 C 0.71758 0.7215 0.42945 0.0
C1746 C 0.7466 0.7505 0.31862 0.0
C1747 C 0.75789 0.72943 0.29408 0.0
C1748 C 0.74136 0.77479 0.29527 0.0
C1749 C 0.72804 0.79736 0.31817 0.0
C1750 C 0.70298 0.79397 0.33988 0.0
C1751 C 0.69065 0.81529 0.36172 0.0
C1752 C 0.70309 0.84015 0.36177 0.0
C1753 C 0.72786 0.84376 0.33986 0.0
C1754 C 0.74029 0.8225 0.31801 0.0
C1755 C 0.76417 0.74589 0.09567 0.0
C1756 C 0.78091 0.76702 0.08119 0.0
C1757 C 0.75657 0.74272 0.14177 0.0
C1758 C 0.76569 0.7605 0.17444 0.0
C1759 C 0.78149 0.78217 0.15969 0.0
C1760 C 0.78898 0.78541 0.11374 0.0
C1761 C 0.75932 0.75643 0.22407 0.0
C1762 C 0.748 0.77749 0.24858 0.0
C1763 C 0.76449 0.73212 0.24737 0.0
C1764 C 0.77766 0.7095 0.22437 0.0
C1765 C 0.80275 0.71274 0.2027 0.0
C1766 C 0.81488 0.6914 0.18061 0.0
C1767 C 0.8022 0.66666 0.18025 0.0
C1768 C 0.7774 0.6632 0.20212 0.0
C1769 C 0.76517 0.68448 0.22423 0.0
H1770 H 0.81162 0.65017 0.16311 0.0
H1771 H 0.69351 0.85663 0.3787 0.0
H1772 H 0.5318 0.49774 0.71427 0.0
H1773 H 0.53739 0.51083 0.63367 0.0
H1774 H 0.46406 0.47082 0.6037 0.0
H1775 H 0.45848 0.45766 0.68382 0.0
H1776 H 0.50152 0.45793 0.54299 0.0
H1777 H 0.46907 0.53978 0.60645 0.0
H1778 H 0.4694 0.57708 0.65974 0.0
H1779 H 0.54759 0.59955 0.61079 0.0
H1780 H 0.54786 0.56217 0.55757 0.0
H1781 H 0.48207 0.51054 0.31833 0.0
H1782 H 0.47811 0.49756 0.39911 0.0
H1783 H 0.55156 0.53845 0.42495 0.0
H1784 H 0.5556 0.55144 0.34452 0.0
H1785 H 0.51525 0.55085 0.48785 0.0
H1786 H 0.54778 0.47022 0.4234 0.0
H1787 H 0.54828 0.43286 0.37024 0.0
H1788 H 0.47129 0.40778 0.42126 0.0
H1789 H 0.47013 0.44527 0.47424 0.0
C1790 C 0.51667 0.4921 0.6906 0.0
C1791 C 0.49477 0.47652 0.70554 0.0
C1792 C 0.51991 0.49954 0.64444 0.0
C1793 C 0.50113 0.49184 0.61234 0.0
C1794 C 0.47896 0.47683 0.62752 0.0
C1795 C 0.47579 0.46933 0.67345 0.0
C1796 C 0.50469 0.49882 0.56283 0.0
C1797 C 0.50418 0.47831 0.53095 0.0
C1798 C 0.50889 0.52529 0.5469 0.0
C1799 C 0.50858 0.54802 0.57834 0.0
C1800 C 0.4864 0.55258 0.60724 0.0
C1801 C 0.48647 0.57375 0.63741 0.0
C1802 C 0.50853 0.59062 0.63875 0.0
C1803 C 0.53053 0.58644 0.60976 0.0
C1804 C 0.53057 0.56529 0.57955 0.0
C1805 C 0.49759 0.5164 0.34108 0.0
C1806 C 0.51908 0.53216 0.32486 0.0
C1807 C 0.49528 0.50903 0.38736 0.0
C1808 C 0.51456 0.51699 0.41837 0.0
C1809 C 0.53629 0.53223 0.40198 0.0
C1810 C 0.53857 0.53964 0.35587 0.0
C1811 C 0.51188 0.50998 0.46799 0.0
C1812 C 0.5126 0.53047 0.49988 0.0
C1813 C 0.50799 0.48348 0.48394 0.0
C1814 C 0.50876 0.46071 0.45251 0.0
C1815 C 0.53087 0.45685 0.42307 0.0
C1816 C 0.53129 0.43564 0.39299 0.0
C1817 C 0.50981 0.418 0.3923 0.0
C1818 C 0.4879 0.42149 0.42179 0.0
C1819 C 0.48736 0.4427 0.45188 0.0
H1820 H 0.51016 0.4016 0.36897 0.0
H1821 H 0.50857 0.60697 0.66219 0.0
H1822 H 0.98163 0.4875 0.82698 0.0
H1823 H 0.97483 0.49852 0.90734 0.0
H1824 H 0.05682 0.47914 0.93295 0.0
H1825 H 0.06357 0.46781 0.85295 0.0
H1826 H 0.02622 0.45783 0.99767 0.0
H1827 H 0.03429 0.54438 0.92747 0.0
H1828 H 0.02391 0.58049 0.87276 0.0
H1829 H 0.94328 0.58247 0.92441 0.0
H1830 H 0.9531 0.54612 0.97906 0.0
H1831 H 0.02987 0.51603 0.21874 0.0
H1832 H 0.03792 0.50389 0.13908 0.0
H1833 H 0.95584 0.52082 0.10991 0.0
H1834 H 0.94784 0.53322 0.18903 0.0
H1835 H 0.98759 0.5435 0.04733 0.0
H1836 H 0.98031 0.4564 0.11817 0.0
H1837 H 0.99209 0.42182 0.17485 0.0
H1838 H 0.07272 0.42195 0.12303 0.0
H1839 H 0.06151 0.45683 0.06644 0.0
C1840 C 0.99827 0.48594 0.84965 0.0
C1841 C 0.02311 0.47674 0.83362 0.0
C1842 C 0.99438 0.4922 0.89562 0.0
C1843 C 0.01536 0.4898 0.92632 0.0
C1844 C 0.04027 0.48101 0.91012 0.0
C1845 C 0.04411 0.47457 0.86434 0.0
C1846 C 0.01132 0.496 0.97544 0.0
C1847 C 0.01807 0.47671 1.0085 0.0
C1848 C 1.00031 0.52043 0.98978 0.0
C1849 C 0.99437 0.54235 0.95705 0.0
C1850 C 0.0143 0.55238 0.92693 0.0
C1851 C 0.00852 0.57291 0.89597 0.0
C1852 C 0.98293 0.58372 0.89503 0.0
C1853 C 0.96308 0.57406 0.92514 0.0
C1854 C 0.96875 0.55351 0.95614 0.0
C1855 C 0.01349 0.51677 0.19543 0.0
C1856 C 0.98828 0.52574 0.21006 0.0
C1857 C 0.01809 0.50987 0.1499 0.0
C1858 C 0.99746 0.5114 0.11839 0.0
C1859 C 0.97213 0.51967 0.13339 0.0
C1860 C 0.96758 0.52673 0.17865 0.0
C1861 C 1.00225 0.50527 0.06947 0.0
C1862 C 0.9957 0.52461 0.03646 0.0
C1863 C 0.01355 0.48095 0.05525 0.0
C1864 C 0.02012 0.4594 0.08832 0.0
C1865 C 1.00058 0.44914 0.11899 0.0
C1866 C 0.00716 0.42949 0.1511 0.0
C1867 C 0.03316 0.41976 0.15263 0.0
C1868 C 0.0526 0.42954 0.12185 0.0
C1869 C 0.04614 0.44923 0.08971 0.0
H1870 H 0.03823 0.40461 0.17762 0.0
H1871 H 0.9785 0.59961 0.87104 0.0
loop_
_geom_bond_atom_site_label_1
_geom_bond_atom_site_label_2
_geom_bond_distance
_geom_bond_site_symmetry_2
_ccdc_geom_bond_type
Eu0 N31 2.648 1_455 S
Eu0 N38 2.609 1_455 S
Eu0 O44 2.563 . S
Eu0 O45 2.615 1_565 S
Eu0 O47 2.332 1_465 S
Eu0 O48 2.570 1_565 S
Eu0 O49 2.417 1_455 S
Eu0 O51 2.377 1_455 S
Eu0 O52 2.439 . S
Eu0 C64 2.849 . S
C1 C4 1.429 . S
C1 C5 1.411 . S
C1 N8 1.377 . S
C2 C4 1.420 . S
C2 C6 1.423 . S
C2 C14 1.392 . S
C3 C5 1.420 . S
C3 C6 1.351 . S
C3 H26 0.931 . S
C4 C1 1.429 . S
C4 C2 1.420 . S
C4 N12 1.362 . S
C5 C1 1.411 . S
C5 C3 1.420 . S
C5 C10 1.395 . S
C6 C2 1.423 . S
C6 C3 1.351 . S
C6 H18 0.930 . S
C7 C9 1.400 . S
C7 C10 1.386 1_655 S
C7 H19 0.930 . S
N8 C1 1.377 . S
N8 C9 1.321 1_455 S
N8 Eu11 2.609 1_455 S
C9 C7 1.400 . S
C9 N8 1.321 1_655 S
C9 H16 0.930 . S
C10 C5 1.395 . S
C10 C7 1.386 1_455 S
C10 H29 0.931 . S
Eu11 N8 2.609 1_655 S
Eu11 N12 2.657 1_655 S
Eu11 O45 2.381 1_655 S
Eu11 O46 2.431 . S
Eu11 O50 2.558 . S
Eu11 O51 2.612 1_545 S
Eu11 O53 2.339 1_645 S
Eu11 O54 2.563 1_545 S
Eu11 O55 2.419 1_655 S
Eu11 C75 2.847 . S
N12 C4 1.362 . S
N12 Eu11 2.657 1_455 S
N12 C13 1.334 . S
C13 N12 1.334 . S
C13 C15 1.413 . S
C13 H20 0.929 . S
C14 C2 1.392 . S
C14 C15 1.367 . S
C14 H22 0.930 . S
C15 C13 1.413 . S
C15 C14 1.367 . S
C15 H17 0.930 . S
H16 C9 0.930 . S
H17 C15 0.930 . S
H18 C6 0.930 . S
H19 C7 0.930 . S
H20 C13 0.929 . S
H21 C35 0.930 . S
H22 C14 0.930 . S
H23 C41 0.930 . S
H24 C32 0.929 . S
H25 C39 0.930 . S
H26 C3 0.931 . S
H27 C33 0.930 . S
H28 C66 0.930 . S
H29 C10 0.931 . S
H30 C65 0.931 . S
N31 Eu0 2.648 1_655 S
N31 C32 1.334 . S
N31 C36 1.362 . S
C32 H24 0.929 . S
C32 N31 1.334 . S
C32 C35 1.413 . S
C33 H27 0.930 . S
C33 C34 1.392 . S
C33 C35 1.367 . S
C34 C33 1.392 . S
C34 C36 1.420 . S
C34 C66 1.423 . S
C35 H21 0.930 . S
C35 C32 1.413 . S
C35 C33 1.367 . S
C36 N31 1.362 . S
C36 C34 1.420 . S
C36 C40 1.429 . S
H37 C42 0.929 . S
N38 Eu0 2.609 1_655 S
N38 C40 1.377 . S
N38 C41 1.321 1_655 S
C39 H25 0.930 . S
C39 C41 1.400 . S
C39 C42 1.347 1_455 S
C40 C36 1.429 . S
C40 N38 1.377 . S
C40 C43 1.411 . S
C41 H23 0.930 . S
C41 N38 1.321 1_455 S
C41 C39 1.400 . S
C42 H37 0.929 . S
C42 C39 1.347 1_655 S
C42 C43 1.435 . S
C43 C40 1.411 . S
C43 C42 1.435 . S
C43 C65 1.420 . S
O44 Eu0 2.563 . S
O44 C64 1.257 . S
O45 Eu0 2.615 1_545 S
O45 Eu11 2.381 1_455 S
O45 C56 1.276 . S
O46 Eu11 2.431 . S
O46 C63 1.264 . S
O47 Eu0 2.332 1_645 S
O47 C63 1.254 . S
O48 Eu0 2.570 1_545 S
O48 C56 1.235 . S
O49 Eu0 2.417 1_655 S
O49 C64 1.249 1_655 S
O50 Eu11 2.558 . S
O50 C75 1.257 . S
O51 Eu0 2.377 1_655 S
O51 Eu11 2.612 1_565 S
O51 C67 1.276 . S
O52 Eu0 2.439 . S
O52 C74 1.264 . S
O53 Eu11 2.339 1_465 S
O53 C74 1.254 . S
O54 Eu11 2.563 1_565 S
O54 C67 1.235 . S
O55 Eu11 2.419 1_455 S
O55 C75 1.249 1_455 S
C56 O45 1.276 . S
C56 O48 1.235 . S
C57 C59 1.393 . S
C57 C61 1.395 . S
C57 C64 1.492 . S
C58 C59 1.392 . S
C58 C60 1.386 . S
C59 C57 1.393 . S
C59 C58 1.392 . S
C59 H76 0.930 1_465 S
C60 C58 1.386 . S
C60 C62 1.395 . S
C60 H77 0.930 . S
C61 C57 1.395 . S
C61 C62 1.379 . S
C61 H78 0.930 . S
C62 C60 1.395 . S
C62 C61 1.379 . S
C62 H79 0.930 . S
C63 O46 1.264 . S
C63 O47 1.254 . S
C64 Eu0 2.849 . S
C64 O44 1.257 . S
C64 O49 1.249 1_455 S
C64 C57 1.492 . S
C65 H30 0.931 . S
C65 C43 1.420 . S
C65 C66 1.351 . S
C66 H28 0.930 . S
C66 C34 1.423 . S
C66 C65 1.351 . S
C67 O51 1.276 . S
C67 O54 1.235 . S
C68 C69 1.393 . S
C68 C72 1.395 . S
C68 C75 1.492 . S
C69 C68 1.393 . S
C69 C70 1.392 . S
C69 H80 0.930 1_645 S
C70 C69 1.392 . S
C70 C71 1.386 . S
C71 C70 1.386 . S
C71 C73 1.395 . S
C71 H81 0.930 . S
C72 C68 1.395 . S
C72 C73 1.379 . S
C72 H82 0.930 . S
C73 C71 1.395 . S
C73 C72 1.379 . S
C73 H83 0.930 . S
C74 O52 1.264 . S
C74 O53 1.254 . S
C75 Eu11 2.847 . S
C75 O50 1.257 . S
C75 O55 1.249 1_655 S
C75 C68 1.492 . S
H76 C59 0.930 1_645 S
H77 C60 0.930 . S
H78 C61 0.930 . S
H79 C62 0.930 . S
H80 C69 0.930 1_465 S
H81 C71 0.930 . S
H82 C72 0.930 . S
H83 C73 0.930 . S
Eu84 N115 2.657 . S
Eu84 N122 2.609 . S
Eu84 O128 2.558 . S
Eu84 O129 2.612 . S
Eu84 O131 2.339 . S
Eu84 O132 2.563 . S
Eu84 O133 2.419 . S
Eu84 O135 2.380 . S
Eu84 O136 2.432 . S
Eu84 C148 2.848 . S
C85 C88 1.429 . S
C85 C89 1.411 . S
C85 N92 1.377 . S
C86 C88 1.420 . S
C86 C90 1.423 . S
C86 C98 1.392 . S
C87 C89 1.420 . S
C87 C90 1.351 . S
C87 H110 0.931 . S
C88 C85 1.429 . S
C88 C86 1.420 . S
C88 N96 1.362 . S
C89 C85 1.411 . S
C89 C87 1.420 . S
C89 C94 1.395 . S
C90 C86 1.423 . S
C90 C87 1.351 . S
C90 H102 0.930 . S
C91 C93 1.400 . S
C91 C94 1.386 . S
C91 H103 0.930 . S
N92 C85 1.377 . S
N92 C93 1.321 . S
N92 Eu95 2.609 . S
C93 C91 1.400 . S
C93 N92 1.321 . S
C93 H100 0.930 . S
C94 C89 1.395 . S
C94 C91 1.386 . S
C94 H113 0.930 . S
Eu95 N92 2.609 . S
Eu95 N96 2.657 . S
Eu95 O129 2.380 . S
Eu95 O130 2.432 . S
Eu95 O134 2.558 . S
Eu95 O135 2.612 . S
Eu95 O137 2.339 . S
Eu95 O138 2.563 . S
Eu95 O139 2.419 . S
Eu95 C159 2.848 . S
N96 C88 1.362 . S
N96 Eu95 2.657 . S
N96 C97 1.334 . S
C97 N96 1.334 . S
C97 C99 1.413 . S
C97 H104 0.929 . S
C98 C86 1.392 . S
C98 C99 1.367 . S
C98 H106 0.930 . S
C99 C97 1.413 . S
C99 C98 1.367 . S
C99 H101 0.930 . S
H100 C93 0.930 . S
H101 C99 0.930 . S
H102 C90 0.930 . S
H103 C91 0.930 . S
H104 C97 0.929 . S
H105 C119 0.930 . S
H106 C98 0.930 . S
H107 C125 0.930 . S
H108 C116 0.929 . S
H109 C123 0.930 . S
H110 C87 0.931 . S
H111 C117 0.930 . S
H112 C150 0.930 . S
H113 C94 0.930 . S
H114 C149 0.931 . S
N115 Eu84 2.657 . S
N115 C116 1.334 . S
N115 C120 1.362 . S
C116 H108 0.929 . S
C116 N115 1.334 . S
C116 C119 1.413 . S
C117 H111 0.930 . S
C117 C118 1.392 . S
C117 C119 1.367 . S
C118 C117 1.392 . S
C118 C120 1.420 . S
C118 C150 1.423 . S
C119 H105 0.930 . S
C119 C116 1.413 . S
C119 C117 1.367 . S
C120 N115 1.362 . S
C120 C118 1.420 . S
C120 C124 1.429 . S
H121 C126 0.930 . S
N122 Eu84 2.609 . S
N122 C124 1.377 . S
N122 C125 1.321 . S
C123 H109 0.930 . S
C123 C125 1.400 . S
C123 C126 1.386 . S
C124 C120 1.429 . S
C124 N122 1.377 . S
C124 C127 1.411 . S
C125 H107 0.930 . S
C125 N122 1.321 . S
C125 C123 1.400 . S
C126 H121 0.930 . S
C126 C123 1.386 . S
C126 C127 1.395 . S
C127 C124 1.411 . S
C127 C126 1.395 . S
C127 C149 1.420 . S
O128 Eu84 2.558 . S
O128 C148 1.257 . S
O129 Eu84 2.612 . S
O129 Eu95 2.380 . S
O129 C140 1.276 . S
O130 Eu95 2.432 . S
O130 C147 1.264 . S
O131 Eu84 2.339 . S
O131 C147 1.254 . S
O132 Eu84 2.563 . S
O132 C140 1.235 . S
O133 Eu84 2.419 . S
O133 C148 1.249 . S
O134 Eu95 2.558 . S
O134 C159 1.257 . S
O135 Eu84 2.380 . S
O135 Eu95 2.612 . S
O135 C151 1.276 . S
O136 Eu84 2.432 . S
O136 C158 1.264 . S
O137 Eu95 2.339 . S
O137 C158 1.254 . S
O138 Eu95 2.563 . S
O138 C151 1.235 . S
O139 Eu95 2.419 . S
O139 C159 1.249 . S
C140 O129 1.276 . S
C140 O132 1.235 . S
C141 C143 1.393 . S
C141 C145 1.395 . S
C141 C148 1.492 . S
C142 C143 1.392 . S
C142 C144 1.386 . S
C143 C141 1.393 . S
C143 C142 1.392 . S
C143 H160 0.930 . S
C144 C142 1.386 . S
C144 C146 1.395 . S
C144 H161 0.930 . S
C145 C141 1.395 . S
C145 C146 1.379 . S
C145 H162 0.930 . S
C146 C144 1.395 . S
C146 C145 1.379 . S
C146 H163 0.930 . S
C147 O130 1.264 . S
C147 O131 1.254 . S
C148 Eu84 2.848 . S
C148 O128 1.257 . S
C148 O133 1.249 . S
C148 C141 1.492 . S
C149 H114 0.931 . S
C149 C127 1.420 . S
C149 C150 1.351 . S
C150 H112 0.930 . S
C150 C118 1.423 . S
C150 C149 1.351 . S
C151 O135 1.276 . S
C151 O138 1.235 . S
C152 C153 1.393 . S
C152 C156 1.395 . S
C152 C159 1.492 . S
C153 C152 1.393 . S
C153 C154 1.392 1_556 S
C153 H164 0.930 . S
C154 C153 1.392 1_554 S
C154 C155 1.386 . S
C155 C154 1.386 . S
C155 C157 1.395 . S
C155 H165 0.930 . S
C156 C152 1.395 . S
C156 C157 1.379 1_556 S
C156 H166 0.930 . S
C157 C155 1.395 . S
C157 C156 1.379 1_554 S
C157 H167 0.930 . S
C158 O136 1.264 . S
C158 O137 1.254 . S
C159 Eu95 2.848 . S
C159 O134 1.257 . S
C159 O139 1.249 . S
C159 C152 1.492 . S
H160 C143 0.930 . S
H161 C144 0.930 . S
H162 C145 0.930 . S
H163 C146 0.930 . S
H164 C153 0.930 . S
H165 C155 0.930 . S
H166 C156 0.930 . S
H167 C157 0.930 . S
Eu168 N199 2.657 . S
Eu168 N206 2.609 . S
Eu168 O212 2.558 . S
Eu168 O213 2.612 1_565 S
Eu168 O215 2.339 1_565 S
Eu168 O216 2.563 1_565 S
Eu168 O217 2.419 . S
Eu168 O219 2.380 1_554 S
Eu168 O220 2.432 . S
Eu168 C232 2.848 . S
C169 C172 1.429 . S
C169 C173 1.411 . S
C169 N176 1.377 . S
C170 C172 1.420 . S
C170 C174 1.423 . S
C170 C182 1.392 . S
C171 C173 1.420 . S
C171 C174 1.351 . S
C171 H194 0.931 . S
C172 C169 1.429 . S
C172 C170 1.420 . S
C172 N180 1.362 . S
C173 C169 1.411 . S
C173 C171 1.420 . S
C173 C178 1.395 . S
C174 C170 1.423 . S
C174 C171 1.351 . S
C174 H186 0.930 . S
C175 C177 1.400 . S
C175 C178 1.386 . S
C175 H187 0.930 . S
N176 C169 1.377 . S
N176 C177 1.321 . S
N176 Eu179 2.609 . S
C177 C175 1.400 . S
C177 N176 1.321 . S
C177 H184 0.930 . S
C178 C173 1.395 . S
C178 C175 1.386 . S
C178 H197 0.930 . S
Eu179 N176 2.609 . S
Eu179 N180 2.657 . S
Eu179 O213 2.380 1_556 S
Eu179 O214 2.432 . S
Eu179 O218 2.558 . S
Eu179 O219 2.612 1_545 S
Eu179 O221 2.339 1_545 S
Eu179 O222 2.563 1_545 S
Eu179 O223 2.419 . S
Eu179 C243 2.848 . S
N180 C172 1.362 . S
N180 Eu179 2.657 . S
N180 C181 1.334 . S
C181 N180 1.334 . S
C181 C183 1.413 . S
C181 H188 0.929 . S
C182 C170 1.392 . S
C182 C183 1.367 . S
C182 H190 0.930 . S
C183 C181 1.413 . S
C183 C182 1.367 . S
C183 H185 0.930 . S
H184 C177 0.930 . S
H185 C183 0.930 . S
H186 C174 0.930 . S
H187 C175 0.930 . S
H188 C181 0.929 . S
H189 C203 0.930 . S
H190 C182 0.930 . S
H191 C209 0.930 . S
H192 C200 0.929 . S
H193 C207 0.930 . S
H194 C171 0.931 . S
H195 C201 0.930 . S
H196 C234 0.930 . S
H197 C178 0.930 . S
H198 C233 0.931 . S
N199 Eu168 2.657 . S
N199 C200 1.334 . S
N199 C204 1.362 . S
C200 H192 0.929 . S
C200 N199 1.334 . S
C200 C203 1.413 . S
C201 H195 0.930 . S
C201 C202 1.392 . S
C201 C203 1.367 . S
C202 C201 1.392 . S
C202 C204 1.420 . S
C202 C234 1.423 . S
C203 H189 0.930 . S
C203 C200 1.413 . S
C203 C201 1.367 . S
C204 N199 1.362 . S
C204 C202 1.420 . S
C204 C208 1.429 . S
H205 C210 0.930 . S
N206 Eu168 2.609 . S
N206 C208 1.377 . S
N206 C209 1.321 . S
C207 H193 0.930 . S
C207 C209 1.400 . S
C207 C210 1.386 . S
C208 C204 1.429 . S
C208 N206 1.377 . S
C208 C211 1.411 . S
C209 H191 0.930 . S
C209 N206 1.321 . S
C209 C207 1.400 . S
C210 H205 0.930 . S
C210 C207 1.386 . S
C210 C211 1.395 . S
C211 C208 1.411 . S
C211 C210 1.395 . S
C211 C233 1.420 . S
O212 Eu168 2.558 . S
O212 C232 1.257 . S
O213 Eu168 2.612 1_545 S
O213 Eu179 2.380 1_554 S
O213 C224 1.276 . S
O214 Eu179 2.432 . S
O214 C231 1.264 1_556 S
O215 Eu168 2.339 1_545 S
O215 C231 1.254 . S
O216 Eu168 2.563 1_545 S
O216 C224 1.235 . S
O217 Eu168 2.419 . S
O217 C232 1.249 . S
O218 Eu179 2.558 . S
O218 C243 1.257 . S
O219 Eu168 2.380 1_556 S
O219 Eu179 2.612 1_565 S
O219 C235 1.276 . S
O220 Eu168 2.432 . S
O220 C242 1.264 1_554 S
O221 Eu179 2.339 1_565 S
O221 C242 1.254 . S
O222 Eu179 2.563 1_565 S
O222 C235 1.235 . S
O223 Eu179 2.419 . S
O223 C243 1.249 . S
C224 O213 1.276 . S
C224 O216 1.235 . S
C225 C227 1.393 . S
C225 C229 1.395 . S
C225 C232 1.492 . S
C226 C227 1.392 . S
C226 C228 1.386 . S
C227 C225 1.393 . S
C227 C226 1.392 . S
C227 H244 0.930 1_565 S
C228 C226 1.386 . S
C228 C230 1.395 . S
C228 H245 0.930 . S
C229 C225 1.395 . S
C229 C230 1.379 . S
C229 H246 0.930 . S
C230 C228 1.395 . S
C230 C229 1.379 . S
C230 H247 0.930 . S
C231 O214 1.264 1_554 S
C231 O215 1.254 . S
C232 Eu168 2.848 . S
C232 O212 1.257 . S
C232 O217 1.249 . S
C232 C225 1.492 . S
C233 H198 0.931 . S
C233 C211 1.420 . S
C233 C234 1.351 . S
C234 H196 0.930 . S
C234 C202 1.423 . S
C234 C233 1.351 . S
C235 O219 1.276 . S
C235 O222 1.235 . S
C236 C237 1.393 . S
C236 C240 1.395 . S
C236 C243 1.492 . S
C237 C236 1.393 . S
C237 C238 1.392 . S
C237 H248 0.930 1_545 S
C238 C237 1.392 . S
C238 C239 1.386 . S
C239 C238 1.386 . S
C239 C241 1.395 . S
C239 H249 0.930 . S
C240 C236 1.395 . S
C240 C241 1.379 . S
C240 H250 0.930 . S
C241 C239 1.395 . S
C241 C240 1.379 . S
C241 H251 0.930 . S
C242 O220 1.264 1_556 S
C242 O221 1.254 . S
C243 Eu179 2.848 . S
C243 O218 1.257 . S
C243 O223 1.249 . S
C243 C236 1.492 . S
H244 C227 0.930 1_545 S
H245 C228 0.930 . S
H246 C229 0.930 . S
H247 C230 0.930 . S
H248 C237 0.930 1_565 S
H249 C239 0.930 . S
H250 C240 0.930 . S
H251 C241 0.930 . S
Eu252 N283 2.657 . S
Eu252 N290 2.609 . S
Eu252 O296 2.558 . S
Eu252 O297 2.612 . S
Eu252 O299 2.339 . S
Eu252 O300 2.563 . S
Eu252 O301 2.419 . S
Eu252 O303 2.380 . S
Eu252 O304 2.432 . S
Eu252 C316 2.848 . S
C253 C256 1.429 . S
C253 C257 1.411 . S
C253 N260 1.377 . S
C254 C256 1.420 . S
C254 C258 1.423 . S
C254 C266 1.392 . S
C255 C257 1.420 . S
C255 C258 1.351 . S
C255 H278 0.931 . S
C256 C253 1.429 . S
C256 C254 1.420 . S
C256 N264 1.362 . S
C257 C253 1.411 . S
C257 C255 1.420 . S
C257 C262 1.395 . S
C258 C254 1.423 . S
C258 C255 1.351 . S
C258 H270 0.930 . S
C259 C261 1.400 . S
C259 C262 1.386 . S
C259 H271 0.930 . S
N260 C253 1.377 . S
N260 C261 1.321 . S
N260 Eu263 2.609 . S
C261 C259 1.400 . S
C261 N260 1.321 . S
C261 H268 0.930 . S
C262 C257 1.395 . S
C262 C259 1.386 . S
C262 H281 0.930 . S
Eu263 N260 2.609 . S
Eu263 N264 2.657 . S
Eu263 O297 2.380 . S
Eu263 O298 2.432 . S
Eu263 O302 2.558 . S
Eu263 O303 2.612 . S
Eu263 O305 2.339 . S
Eu263 O306 2.563 . S
Eu263 O307 2.419 . S
Eu263 C327 2.848 . S
N264 C256 1.362 . S
N264 Eu263 2.657 . S
N264 C265 1.334 . S
C265 N264 1.334 . S
C265 C267 1.413 . S
C265 H272 0.929 . S
C266 C254 1.392 . S
C266 C267 1.367 . S
C266 H274 0.930 . S
C267 C265 1.413 . S
C267 C266 1.367 . S
C267 H269 0.930 . S
H268 C261 0.930 . S
H269 C267 0.930 . S
H270 C258 0.930 . S
H271 C259 0.930 . S
H272 C265 0.929 . S
H273 C287 0.930 . S
H274 C266 0.930 . S
H275 C293 0.930 . S
H276 C284 0.929 . S
H277 C291 0.930 . S
H278 C255 0.931 . S
H279 C285 0.930 . S
H280 C318 0.930 . S
H281 C262 0.930 . S
H282 C317 0.931 . S
N283 Eu252 2.657 . S
N283 C284 1.334 . S
N283 C288 1.362 . S
C284 H276 0.929 . S
C284 N283 1.334 . S
C284 C287 1.413 . S
C285 H279 0.930 . S
C285 C286 1.392 . S
C285 C287 1.367 . S
C286 C285 1.392 . S
C286 C288 1.420 . S
C286 C318 1.423 . S
C287 H273 0.930 . S
C287 C284 1.413 . S
C287 C285 1.367 . S
C288 N283 1.362 . S
C288 C286 1.420 . S
C288 C292 1.429 . S
H289 C294 0.930 . S
N290 Eu252 2.609 . S
N290 C292 1.377 . S
N290 C293 1.321 . S
C291 H277 0.930 . S
C291 C293 1.400 . S
C291 C294 1.386 . S
C292 C288 1.429 . S
C292 N290 1.377 . S
C292 C295 1.411 . S
C293 H275 0.930 . S
C293 N290 1.321 . S
C293 C291 1.400 . S
C294 H289 0.930 . S
C294 C291 1.386 . S
C294 C295 1.395 . S
C295 C292 1.411 . S
C295 C294 1.395 . S
C295 C317 1.420 . S
O296 Eu252 2.558 . S
O296 C316 1.257 . S
O297 Eu252 2.612 . S
O297 Eu263 2.380 . S
O297 C308 1.276 . S
O298 Eu263 2.432 . S
O298 C315 1.264 . S
O299 Eu252 2.339 . S
O299 C315 1.254 . S
O300 Eu252 2.563 . S
O300 C308 1.235 . S
O301 Eu252 2.419 . S
O301 C316 1.249 . S
O302 Eu263 2.558 . S
O302 C327 1.257 . S
O303 Eu252 2.380 . S
O303 Eu263 2.612 . S
O303 C319 1.276 . S
O304 Eu252 2.432 . S
O304 C326 1.264 . S
O305 Eu263 2.339 . S
O305 C326 1.254 . S
O306 Eu263 2.563 . S
O306 C319 1.235 . S
O307 Eu263 2.419 . S
O307 C327 1.249 . S
C308 O297 1.276 . S
C308 O300 1.235 . S
C309 C311 1.393 . S
C309 C313 1.395 . S
C309 C316 1.492 . S
C310 C311 1.392 . S
C310 C312 1.386 . S
C311 C309 1.393 . S
C311 C310 1.392 . S
C311 H328 0.930 . S
C312 C310 1.386 . S
C312 C314 1.395 . S
C312 H329 0.930 . S
C313 C309 1.395 . S
C313 C314 1.379 . S
C313 H330 0.930 . S
C314 C312 1.395 . S
C314 C313 1.379 . S
C314 H331 0.930 . S
C315 O298 1.264 . S
C315 O299 1.254 . S
C316 Eu252 2.848 . S
C316 O296 1.257 . S
C316 O301 1.249 . S
C316 C309 1.492 . S
C317 H282 0.931 . S
C317 C295 1.420 . S
C317 C318 1.351 . S
C318 H280 0.930 . S
C318 C286 1.423 . S
C318 C317 1.351 . S
C319 O303 1.276 . S
C319 O306 1.235 . S
C320 C321 1.393 . S
C320 C324 1.395 . S
C320 C327 1.492 . S
C321 C320 1.393 . S
C321 C322 1.392 1_554 S
C321 H332 0.930 . S
C322 C321 1.392 1_556 S
C322 C323 1.386 . S
C323 C322 1.386 . S
C323 C325 1.395 . S
C323 H333 0.930 . S
C324 C320 1.395 . S
C324 C325 1.379 1_554 S
C324 H334 0.930 . S
C325 C323 1.395 . S
C325 C324 1.379 1_556 S
C325 H335 0.930 . S
C326 O304 1.264 . S
C326 O305 1.254 . S
C327 Eu263 2.848 . S
C327 O302 1.257 . S
C327 O307 1.249 . S
C327 C320 1.492 . S
H328 C311 0.930 . S
H329 C312 0.930 . S
H330 C313 0.930 . S
H331 C314 0.930 . S
H332 C321 0.930 . S
H333 C323 0.930 . S
H334 C324 0.930 . S
H335 C325 0.930 . S
Eu336 N367 2.657 . S
Eu336 N374 2.609 . S
Eu336 O380 2.558 . S
Eu336 O381 2.612 . S
Eu336 O383 2.339 . S
Eu336 O384 2.563 . S
Eu336 O385 2.419 . S
Eu336 O387 2.380 . S
Eu336 O388 2.432 . S
Eu336 C400 2.848 . S
C337 C340 1.429 . S
C337 C341 1.411 . S
C337 N344 1.377 . S
C338 C340 1.420 . S
C338 C342 1.423 . S
C338 C350 1.392 . S
C339 C341 1.420 . S
C339 C342 1.351 . S
C339 H362 0.931 . S
C340 C337 1.429 . S
C340 C338 1.420 . S
C340 N348 1.362 . S
C341 C337 1.411 . S
C341 C339 1.420 . S
C341 C346 1.395 . S
C342 C338 1.423 . S
C342 C339 1.351 . S
C342 H354 0.930 . S
C343 C345 1.400 . S
C343 C346 1.386 . S
C343 H355 0.930 . S
N344 C337 1.377 . S
N344 C345 1.321 . S
N344 Eu347 2.609 . S
C345 C343 1.400 . S
C345 N344 1.321 . S
C345 H352 0.930 . S
C346 C341 1.395 . S
C346 C343 1.386 . S
C346 H365 0.930 . S
Eu347 N344 2.609 . S
Eu347 N348 2.657 . S
Eu347 O381 2.380 . S
Eu347 O382 2.432 . S
Eu347 O386 2.558 . S
Eu347 O387 2.612 . S
Eu347 O389 2.339 . S
Eu347 O390 2.563 . S
Eu347 O391 2.419 . S
Eu347 C411 2.848 . S
N348 C340 1.362 . S
N348 Eu347 2.657 . S
N348 C349 1.334 . S
C349 N348 1.334 . S
C349 C351 1.413 . S
C349 H356 0.929 . S
C350 C338 1.392 . S
C350 C351 1.367 . S
C350 H358 0.930 . S
C351 C349 1.413 . S
C351 C350 1.367 . S
C351 H353 0.930 . S
H352 C345 0.930 . S
H353 C351 0.930 . S
H354 C342 0.930 . S
H355 C343 0.930 . S
H356 C349 0.929 . S
H357 C371 0.930 . S
H358 C350 0.930 . S
H359 C377 0.930 . S
H360 C368 0.929 . S
H361 C375 0.930 . S
H362 C339 0.931 . S
H363 C369 0.930 . S
H364 C402 0.930 . S
H365 C346 0.930 . S
H366 C401 0.931 . S
N367 Eu336 2.657 . S
N367 C368 1.334 . S
N367 C372 1.362 . S
C368 H360 0.929 . S
C368 N367 1.334 . S
C368 C371 1.413 . S
C369 H363 0.930 . S
C369 C370 1.392 . S
C369 C371 1.367 . S
C370 C369 1.392 . S
C370 C372 1.420 . S
C370 C402 1.423 . S
C371 H357 0.930 . S
C371 C368 1.413 . S
C371 C369 1.367 . S
C372 N367 1.362 . S
C372 C370 1.420 . S
C372 C376 1.429 . S
H373 C378 0.930 . S
N374 Eu336 2.609 . S
N374 C376 1.377 . S
N374 C377 1.321 . S
C375 H361 0.930 . S
C375 C377 1.400 . S
C375 C378 1.386 . S
C376 C372 1.429 . S
C376 N374 1.377 . S
C376 C379 1.411 . S
C377 H359 0.930 . S
C377 N374 1.321 . S
C377 C375 1.400 . S
C378 H373 0.930 . S
C378 C375 1.386 . S
C378 C379 1.395 . S
C379 C376 1.411 . S
C379 C378 1.395 . S
C379 C401 1.420 . S
O380 Eu336 2.558 . S
O380 C400 1.257 . S
O381 Eu336 2.612 . S
O381 Eu347 2.380 . S
O381 C392 1.276 . S
O382 Eu347 2.432 . S
O382 C399 1.264 . S
O383 Eu336 2.339 . S
O383 C399 1.254 . S
O384 Eu336 2.563 . S
O384 C392 1.235 . S
O385 Eu336 2.419 . S
O385 C400 1.249 . S
O386 Eu347 2.558 . S
O386 C411 1.257 . S
O387 Eu336 2.380 . S
O387 Eu347 2.612 . S
O387 C403 1.276 . S
O388 Eu336 2.432 . S
O388 C410 1.264 . S
O389 Eu347 2.339 . S
O389 C410 1.254 . S
O390 Eu347 2.563 . S
O390 C403 1.235 . S
O391 Eu347 2.419 . S
O391 C411 1.249 . S
C392 O381 1.276 . S
C392 O384 1.235 . S
C393 C395 1.393 . S
C393 C397 1.395 . S
C393 C400 1.492 . S
C394 C395 1.392 1_556 S
C394 C396 1.386 . S
C395 C393 1.393 . S
C395 C394 1.392 1_554 S
C395 H412 0.930 . S
C396 C394 1.386 . S
C396 C398 1.395 . S
C396 H413 0.930 . S
C397 C393 1.395 . S
C397 C398 1.379 1_554 S
C397 H414 0.930 . S
C398 C396 1.395 . S
C398 C397 1.379 1_556 S
C398 H415 0.930 . S
C399 O382 1.264 . S
C399 O383 1.254 . S
C400 Eu336 2.848 . S
C400 O380 1.257 . S
C400 O385 1.249 . S
C400 C393 1.492 . S
C401 H366 0.931 . S
C401 C379 1.420 . S
C401 C402 1.351 . S
C402 H364 0.930 . S
C402 C370 1.423 . S
C402 C401 1.351 . S
C403 O387 1.276 . S
C403 O390 1.235 . S
C404 C405 1.393 . S
C404 C408 1.395 . S
C404 C411 1.492 . S
C405 C404 1.393 . S
C405 C406 1.392 . S
C405 H416 0.930 . S
C406 C405 1.392 . S
C406 C407 1.386 . S
C407 C406 1.386 . S
C407 C409 1.395 . S
C407 H417 0.930 . S
C408 C404 1.395 . S
C408 C409 1.379 . S
C408 H418 0.930 . S
C409 C407 1.395 . S
C409 C408 1.379 . S
C409 H419 0.930 . S
C410 O388 1.264 . S
C410 O389 1.254 . S
C411 Eu347 2.848 . S
C411 O386 1.257 . S
C411 O391 1.249 . S
C411 C404 1.492 . S
H412 C395 0.930 . S
H413 C396 0.930 . S
H414 C397 0.930 . S
H415 C398 0.930 . S
H416 C405 0.930 . S
H417 C407 0.930 . S
H418 C408 0.930 . S
H419 C409 0.930 . S
Eu420 N451 2.657 . S
Eu420 N458 2.609 . S
Eu420 O464 2.558 . S
Eu420 O465 2.612 . S
Eu420 O467 2.339 . S
Eu420 O468 2.563 . S
Eu420 O469 2.419 . S
Eu420 O471 2.380 . S
Eu420 O472 2.432 . S
Eu420 C484 2.848 . S
C421 C424 1.429 . S
C421 C425 1.411 . S
C421 N428 1.377 . S
C422 C424 1.420 . S
C422 C426 1.423 . S
C422 C434 1.392 . S
C423 C425 1.420 . S
C423 C426 1.351 . S
C423 H446 0.931 . S
C424 C421 1.429 . S
C424 C422 1.420 . S
C424 N432 1.362 . S
C425 C421 1.411 . S
C425 C423 1.420 . S
C425 C430 1.395 . S
C426 C422 1.423 . S
C426 C423 1.351 . S
C426 H438 0.930 . S
C427 C429 1.400 . S
C427 C430 1.386 . S
C427 H439 0.930 . S
N428 C421 1.377 . S
N428 C429 1.321 . S
N428 Eu431 2.609 . S
C429 C427 1.400 . S
C429 N428 1.321 . S
C429 H436 0.930 . S
C430 C425 1.395 . S
C430 C427 1.386 . S
C430 H449 0.930 . S
Eu431 N428 2.609 . S
Eu431 N432 2.657 . S
Eu431 O465 2.380 . S
Eu431 O466 2.432 . S
Eu431 O470 2.558 . S
Eu431 O471 2.612 . S
Eu431 O473 2.339 . S
Eu431 O474 2.563 . S
Eu431 O475 2.419 . S
Eu431 C495 2.848 . S
N432 C424 1.362 . S
N432 Eu431 2.657 . S
N432 C433 1.334 . S
C433 N432 1.334 . S
C433 C435 1.413 . S
C433 H440 0.929 . S
C434 C422 1.392 . S
C434 C435 1.367 . S
C434 H442 0.930 . S
C435 C433 1.413 . S
C435 C434 1.367 . S
C435 H437 0.930 . S
H436 C429 0.930 . S
H437 C435 0.930 . S
H438 C426 0.930 . S
H439 C427 0.930 . S
H440 C433 0.929 . S
H441 C455 0.930 . S
H442 C434 0.930 . S
H443 C461 0.930 . S
H444 C452 0.929 . S
H445 C459 0.930 . S
H446 C423 0.931 . S
H447 C453 0.930 . S
H448 C486 0.930 . S
H449 C430 0.930 . S
H450 C485 0.931 . S
N451 Eu420 2.657 . S
N451 C452 1.334 . S
N451 C456 1.362 . S
C452 H444 0.929 . S
C452 N451 1.334 . S
C452 C455 1.413 . S
C453 H447 0.930 . S
C453 C454 1.392 . S
C453 C455 1.367 . S
C454 C453 1.392 . S
C454 C456 1.420 . S
C454 C486 1.423 . S
C455 H441 0.930 . S
C455 C452 1.413 . S
C455 C453 1.367 . S
C456 N451 1.362 . S
C456 C454 1.420 . S
C456 C460 1.429 . S
H457 C462 0.930 . S
N458 Eu420 2.609 . S
N458 C460 1.377 . S
N458 C461 1.321 . S
C459 H445 0.930 . S
C459 C461 1.400 . S
C459 C462 1.386 . S
C460 C456 1.429 . S
C460 N458 1.377 . S
C460 C463 1.411 . S
C461 H443 0.930 . S
C461 N458 1.321 . S
C461 C459 1.400 . S
C462 H457 0.930 . S
C462 C459 1.386 . S
C462 C463 1.395 . S
C463 C460 1.411 . S
C463 C462 1.395 . S
C463 C485 1.420 . S
O464 Eu420 2.558 . S
O464 C484 1.257 . S
O465 Eu420 2.612 . S
O465 Eu431 2.380 . S
O465 C476 1.276 . S
O466 Eu431 2.432 . S
O466 C483 1.264 . S
O467 Eu420 2.339 . S
O467 C483 1.254 . S
O468 Eu420 2.563 . S
O468 C476 1.235 . S
O469 Eu420 2.419 . S
O469 C484 1.249 . S
O470 Eu431 2.558 . S
O470 C495 1.257 . S
O471 Eu420 2.380 . S
O471 Eu431 2.612 . S
O471 C487 1.276 . S
O472 Eu420 2.432 . S
O472 C494 1.264 . S
O473 Eu431 2.339 . S
O473 C494 1.254 . S
O474 Eu431 2.563 . S
O474 C487 1.235 . S
O475 Eu431 2.419 . S
O475 C495 1.249 . S
C476 O465 1.276 . S
C476 O468 1.235 . S
C477 C479 1.393 . S
C477 C481 1.395 . S
C477 C484 1.492 . S
C478 C479 1.392 1_554 S
C478 C480 1.386 . S
C479 C477 1.393 . S
C479 C478 1.392 1_556 S
C479 H496 0.930 . S
C480 C478 1.386 . S
C480 C482 1.395 . S
C480 H497 0.930 . S
C481 C477 1.395 . S
C481 C482 1.379 1_556 S
C481 H498 0.930 . S
C482 C480 1.395 . S
C482 C481 1.379 1_554 S
C482 H499 0.930 . S
C483 O466 1.264 . S
C483 O467 1.254 . S
C484 Eu420 2.848 . S
C484 O464 1.257 . S
C484 O469 1.249 . S
C484 C477 1.492 . S
C485 H450 0.931 . S
C485 C463 1.420 . S
C485 C486 1.351 . S
C486 H448 0.930 . S
C486 C454 1.423 . S
C486 C485 1.351 . S
C487 O471 1.276 . S
C487 O474 1.235 . S
C488 C489 1.393 . S
C488 C492 1.395 . S
C488 C495 1.492 . S
C489 C488 1.393 . S
C489 C490 1.392 . S
C489 H500 0.930 . S
C490 C489 1.392 . S
C490 C491 1.386 . S
C491 C490 1.386 . S
C491 C493 1.395 . S
C491 H501 0.930 . S
C492 C488 1.395 . S
C492 C493 1.379 . S
C492 H502 0.930 . S
C493 C491 1.395 . S
C493 C492 1.379 . S
C493 H503 0.930 . S
C494 O472 1.264 . S
C494 O473 1.254 . S
C495 Eu431 2.848 . S
C495 O470 1.257 . S
C495 O475 1.249 . S
C495 C488 1.492 . S
H496 C479 0.930 . S
H497 C480 0.930 . S
H498 C481 0.930 . S
H499 C482 0.930 . S
H500 C489 0.930 . S
H501 C491 0.930 . S
H502 C492 0.930 . S
H503 C493 0.930 . S
Eu504 N535 2.657 . S
Eu504 N542 2.609 . S
Eu504 O548 2.558 . S
Eu504 O549 2.612 . S
Eu504 O551 2.339 . S
Eu504 O552 2.563 . S
Eu504 O553 2.419 . S
Eu504 O555 2.380 1_556 S
Eu504 O556 2.432 . S
Eu504 C568 2.848 . S
C505 C508 1.429 . S
C505 C509 1.411 . S
C505 N512 1.377 . S
C506 C508 1.420 . S
C506 C510 1.423 . S
C506 C518 1.392 . S
C507 C509 1.420 . S
C507 C510 1.351 . S
C507 H530 0.931 . S
C508 C505 1.429 . S
C508 C506 1.420 . S
C508 N516 1.362 . S
C509 C505 1.411 . S
C509 C507 1.420 . S
C509 C514 1.395 . S
C510 C506 1.423 . S
C510 C507 1.351 . S
C510 H522 0.930 . S
C511 C513 1.400 . S
C511 C514 1.386 . S
C511 H523 0.930 . S
N512 C505 1.377 . S
N512 C513 1.321 . S
N512 Eu515 2.609 . S
C513 C511 1.400 . S
C513 N512 1.321 . S
C513 H520 0.930 . S
C514 C509 1.395 . S
C514 C511 1.386 . S
C514 H533 0.930 . S
Eu515 N512 2.609 . S
Eu515 N516 2.657 . S
Eu515 O549 2.380 1_554 S
Eu515 O550 2.432 . S
Eu515 O554 2.558 . S
Eu515 O555 2.612 . S
Eu515 O557 2.339 . S
Eu515 O558 2.563 . S
Eu515 O559 2.419 . S
Eu515 C579 2.848 . S
N516 C508 1.362 . S
N516 Eu515 2.657 . S
N516 C517 1.334 . S
C517 N516 1.334 . S
C517 C519 1.413 . S
C517 H524 0.929 . S
C518 C506 1.392 . S
C518 C519 1.367 . S
C518 H526 0.930 . S
C519 C517 1.413 . S
C519 C518 1.367 . S
C519 H521 0.930 . S
H520 C513 0.930 . S
H521 C519 0.930 . S
H522 C510 0.930 . S
H523 C511 0.930 . S
H524 C517 0.929 . S
H525 C539 0.930 . S
H526 C518 0.930 . S
H527 C545 0.930 . S
H528 C536 0.929 . S
H529 C543 0.930 . S
H530 C507 0.931 . S
H531 C537 0.930 . S
H532 C570 0.930 . S
H533 C514 0.930 . S
H534 C569 0.931 . S
N535 Eu504 2.657 . S
N535 C536 1.334 . S
N535 C540 1.362 . S
C536 H528 0.929 . S
C536 N535 1.334 . S
C536 C539 1.413 . S
C537 H531 0.930 . S
C537 C538 1.392 . S
C537 C539 1.367 . S
C538 C537 1.392 . S
C538 C540 1.420 . S
C538 C570 1.423 . S
C539 H525 0.930 . S
C539 C536 1.413 . S
C539 C537 1.367 . S
C540 N535 1.362 . S
C540 C538 1.420 . S
C540 C544 1.429 . S
H541 C546 0.930 . S
N542 Eu504 2.609 . S
N542 C544 1.377 . S
N542 C545 1.321 . S
C543 H529 0.930 . S
C543 C545 1.400 . S
C543 C546 1.386 . S
C544 C540 1.429 . S
C544 N542 1.377 . S
C544 C547 1.411 . S
C545 H527 0.930 . S
C545 N542 1.321 . S
C545 C543 1.400 . S
C546 H541 0.930 . S
C546 C543 1.386 . S
C546 C547 1.395 . S
C547 C544 1.411 . S
C547 C546 1.395 . S
C547 C569 1.420 . S
O548 Eu504 2.558 . S
O548 C568 1.257 . S
O549 Eu504 2.612 . S
O549 Eu515 2.380 1_556 S
O549 C560 1.276 . S
O550 Eu515 2.432 . S
O550 C567 1.264 1_554 S
O551 Eu504 2.339 . S
O551 C567 1.254 . S
O552 Eu504 2.563 . S
O552 C560 1.235 . S
O553 Eu504 2.419 . S
O553 C568 1.249 . S
O554 Eu515 2.558 . S
O554 C579 1.257 . S
O555 Eu504 2.380 1_554 S
O555 Eu515 2.612 . S
O555 C571 1.276 . S
O556 Eu504 2.432 . S
O556 C578 1.264 1_556 S
O557 Eu515 2.339 . S
O557 C578 1.254 . S
O558 Eu515 2.563 . S
O558 C571 1.235 . S
O559 Eu515 2.419 . S
O559 C579 1.249 . S
C560 O549 1.276 . S
C560 O552 1.235 . S
C561 C563 1.393 . S
C561 C565 1.395 . S
C561 C568 1.492 . S
C562 C563 1.392 . S
C562 C564 1.386 . S
C563 C561 1.393 . S
C563 C562 1.392 . S
C563 H580 0.930 . S
C564 C562 1.386 . S
C564 C566 1.395 . S
C564 H581 0.930 . S
C565 C561 1.395 . S
C565 C566 1.379 . S
C565 H582 0.930 . S
C566 C564 1.395 . S
C566 C565 1.379 . S
C566 H583 0.930 . S
C567 O550 1.264 1_556 S
C567 O551 1.254 . S
C568 Eu504 2.848 . S
C568 O548 1.257 . S
C568 O553 1.249 . S
C568 C561 1.492 . S
C569 H534 0.931 . S
C569 C547 1.420 . S
C569 C570 1.351 . S
C570 H532 0.930 . S
C570 C538 1.423 . S
C570 C569 1.351 . S
C571 O555 1.276 . S
C571 O558 1.235 . S
C572 C573 1.393 . S
C572 C576 1.395 . S
C572 C579 1.492 . S
C573 C572 1.393 . S
C573 C574 1.392 . S
C573 H584 0.930 . S
C574 C573 1.392 . S
C574 C575 1.386 . S
C575 C574 1.386 . S
C575 C577 1.395 . S
C575 H585 0.930 . S
C576 C572 1.395 . S
C576 C577 1.379 . S
C576 H586 0.930 . S
C577 C575 1.395 . S
C577 C576 1.379 . S
C577 H587 0.930 . S
C578 O556 1.264 1_554 S
C578 O557 1.254 . S
C579 Eu515 2.848 . S
C579 O554 1.257 . S
C579 O559 1.249 . S
C579 C572 1.492 . S
H580 C563 0.930 . S
H581 C564 0.930 . S
H582 C565 0.930 . S
H583 C566 0.930 . S
H584 C573 0.930 . S
H585 C575 0.930 . S
H586 C576 0.930 . S
H587 C577 0.930 . S
Eu588 N619 2.658 1_655 S
Eu588 N626 2.609 1_655 S
Eu588 O632 2.558 . S
Eu588 O633 2.612 . S
Eu588 O635 2.339 1_655 S
Eu588 O636 2.563 . S
Eu588 O637 2.419 1_655 S
Eu588 O639 2.381 1_655 S
Eu588 O640 2.431 . S
Eu588 C652 2.847 . S
C589 C592 1.429 . S
C589 C593 1.411 . S
C589 N596 1.377 . S
C590 C592 1.420 . S
C590 C594 1.423 . S
C590 C602 1.392 . S
C591 C593 1.420 . S
C591 C594 1.351 . S
C591 H614 0.931 . S
C592 C589 1.429 . S
C592 C590 1.420 . S
C592 N600 1.362 . S
C593 C589 1.411 . S
C593 C591 1.420 . S
C593 C598 1.435 . S
C594 C590 1.423 . S
C594 C591 1.351 . S
C594 H606 0.930 . S
C595 C597 1.400 . S
C595 C598 1.347 1_455 S
C595 H607 0.930 . S
N596 C589 1.377 . S
N596 C597 1.321 1_655 S
N596 Eu599 2.609 1_655 S
C597 C595 1.400 . S
C597 N596 1.321 1_455 S
C597 H604 0.930 . S
C598 C593 1.435 . S
C598 C595 1.347 1_655 S
C598 H617 0.929 . S
Eu599 N596 2.609 1_455 S
Eu599 N600 2.648 1_455 S
Eu599 O633 2.377 1_455 S
Eu599 O634 2.439 . S
Eu599 O638 2.563 . S
Eu599 O639 2.615 . S
Eu599 O641 2.332 1_455 S
Eu599 O642 2.570 . S
Eu599 O643 2.417 1_455 S
Eu599 C663 2.849 . S
N600 C592 1.362 . S
N600 Eu599 2.648 1_655 S
N600 C601 1.334 . S
C601 N600 1.334 . S
C601 C603 1.413 . S
C601 H608 0.929 . S
C602 C590 1.392 . S
C602 C603 1.367 . S
C602 H610 0.930 . S
C603 C601 1.413 . S
C603 C602 1.367 . S
C603 H605 0.930 . S
H604 C597 0.930 . S
H605 C603 0.930 . S
H606 C594 0.930 . S
H607 C595 0.930 . S
H608 C601 0.929 . S
H609 C623 0.930 . S
H610 C602 0.930 . S
H611 C629 0.930 . S
H612 C620 0.929 . S
H613 C627 0.930 . S
H614 C591 0.931 . S
H615 C621 0.930 . S
H616 C654 0.930 . S
H617 C598 0.929 . S
H618 C653 0.931 . S
N619 Eu588 2.658 1_455 S
N619 C620 1.334 . S
N619 C624 1.362 . S
C620 H612 0.929 . S
C620 N619 1.334 . S
C620 C623 1.413 . S
C621 H615 0.930 . S
C621 C622 1.392 . S
C621 C623 1.367 . S
C622 C621 1.392 . S
C622 C624 1.420 . S
C622 C654 1.423 . S
C623 H609 0.930 . S
C623 C620 1.413 . S
C623 C621 1.367 . S
C624 N619 1.362 . S
C624 C622 1.420 . S
C624 C628 1.429 . S
H625 C630 0.931 . S
N626 Eu588 2.609 1_455 S
N626 C628 1.377 . S
N626 C629 1.321 1_455 S
C627 H613 0.930 . S
C627 C629 1.400 . S
C627 C630 1.386 1_655 S
C628 C624 1.429 . S
C628 N626 1.377 . S
C628 C631 1.411 . S
C629 H611 0.930 . S
C629 N626 1.321 1_655 S
C629 C627 1.400 . S
C630 H625 0.931 . S
C630 C627 1.386 1_455 S
C630 C631 1.395 . S
C631 C628 1.411 . S
C631 C630 1.395 . S
C631 C653 1.420 . S
O632 Eu588 2.558 . S
O632 C652 1.257 . S
O633 Eu588 2.612 . S
O633 Eu599 2.377 1_655 S
O633 C644 1.276 . S
O634 Eu599 2.439 . S
O634 C651 1.264 . S
O635 Eu588 2.339 1_455 S
O635 C651 1.254 . S
O636 Eu588 2.563 . S
O636 C644 1.235 . S
O637 Eu588 2.419 1_455 S
O637 C652 1.249 1_455 S
O638 Eu599 2.563 . S
O638 C663 1.257 . S
O639 Eu588 2.381 1_455 S
O639 Eu599 2.615 . S
O639 C655 1.276 . S
O640 Eu588 2.431 . S
O640 C662 1.264 . S
O641 Eu599 2.332 1_655 S
O641 C662 1.254 . S
O642 Eu599 2.570 . S
O642 C655 1.235 . S
O643 Eu599 2.417 1_655 S
O643 C663 1.249 1_655 S
C644 O633 1.276 . S
C644 O636 1.235 . S
C645 C647 1.393 . S
C645 C649 1.395 . S
C645 C652 1.492 . S
C646 C647 1.392 . S
C646 C648 1.386 . S
C647 C645 1.393 . S
C647 C646 1.392 . S
C647 H664 0.930 1_655 S
C648 C646 1.386 . S
C648 C650 1.395 . S
C648 H665 0.930 . S
C649 C645 1.395 . S
C649 C650 1.379 . S
C649 H666 0.930 . S
C650 C648 1.395 . S
C650 C649 1.379 . S
C650 H667 0.930 . S
C651 O634 1.264 . S
C651 O635 1.254 . S
C652 Eu588 2.847 . S
C652 O632 1.257 . S
C652 O637 1.249 1_655 S
C652 C645 1.492 . S
C653 H618 0.931 . S
C653 C631 1.420 . S
C653 C654 1.351 . S
C654 H616 0.930 . S
C654 C622 1.423 . S
C654 C653 1.351 . S
C655 O639 1.276 . S
C655 O642 1.235 . S
C656 C657 1.393 . S
C656 C660 1.395 . S
C656 C663 1.492 . S
C657 C656 1.393 . S
C657 C658 1.392 . S
C657 H668 0.930 1_455 S
C658 C657 1.392 . S
C658 C659 1.386 . S
C659 C658 1.386 . S
C659 C661 1.395 . S
C659 H669 0.930 . S
C660 C656 1.395 . S
C660 C661 1.379 . S
C660 H670 0.930 . S
C661 C659 1.395 . S
C661 C660 1.379 . S
C661 H671 0.930 . S
C662 O640 1.264 . S
C662 O641 1.254 . S
C663 Eu599 2.849 . S
C663 O638 1.257 . S
C663 O643 1.249 1_455 S
C663 C656 1.492 . S
H664 C647 0.930 1_455 S
H665 C648 0.930 . S
H666 C649 0.930 . S
H667 C650 0.930 . S
H668 C657 0.930 1_655 S
H669 C659 0.930 . S
H670 C660 0.930 . S
H671 C661 0.930 . S
H672 C690 0.951 . S
H673 C692 0.951 . S
H674 C694 0.950 . S
H675 C695 0.950 . S
H676 C697 0.950 . S
H677 C700 0.950 . S
H678 C701 0.950 . S
H679 C703 0.950 . S
H680 C704 0.950 . S
H681 C705 0.951 . S
H682 C707 0.951 . S
H683 C709 0.950 . S
H684 C710 0.950 . S
H685 C712 0.950 . S
H686 C715 0.950 . S
H687 C716 0.950 . S
H688 C718 0.950 . S
H689 C719 0.950 . S
C690 H672 0.951 . S
C690 C691 1.366 . S
C690 C692 1.388 . S
C691 C690 1.366 . S
C691 C695 1.385 . S
C692 H673 0.951 . S
C692 C690 1.388 . S
C692 C693 1.366 . S
C693 C692 1.366 . S
C693 C694 1.414 . S
C693 C696 1.499 . S
C694 H674 0.950 . S
C694 C693 1.414 . S
C694 C695 1.374 . S
C695 H675 0.950 . S
C695 C691 1.385 . S
C695 C694 1.374 . S
C696 C693 1.499 . S
C696 C697 1.373 . S
C696 C698 1.389 . S
C697 H676 0.950 . S
C697 C696 1.373 . S
C697 C713 1.377 . S
C698 C696 1.389 . S
C698 C699 1.524 . S
C698 C712 1.377 . S
C699 C698 1.524 . S
C699 C700 1.397 . S
C699 C704 1.363 . S
C700 H677 0.950 . S
C700 C699 1.397 . S
C700 C701 1.334 . S
C701 H678 0.950 . S
C701 C700 1.334 . S
C701 C702 1.287 . S
C702 C701 1.287 . S
C702 C703 1.524 . S
C702 H721 0.913 . S
C703 H679 0.950 . S
C703 C702 1.524 . S
C703 C704 1.415 . S
C704 H680 0.950 . S
C704 C699 1.363 . S
C704 C703 1.415 . S
C705 H681 0.951 . S
C705 C706 1.366 . S
C705 C707 1.388 . S
C706 C705 1.366 . S
C706 C710 1.385 . S
C707 H682 0.951 . S
C707 C705 1.388 . S
C707 C708 1.366 . S
C708 C707 1.366 . S
C708 C709 1.414 . S
C708 C711 1.499 . S
C709 H683 0.950 . S
C709 C708 1.414 . S
C709 C710 1.374 . S
C710 H684 0.950 . S
C710 C706 1.385 . S
C710 C709 1.374 . S
C711 C708 1.499 . S
C711 C712 1.373 . S
C711 C713 1.389 . S
C712 H685 0.950 . S
C712 C698 1.377 . S
C712 C711 1.373 . S
C713 C697 1.377 . S
C713 C711 1.389 . S
C713 C714 1.524 . S
C714 C713 1.524 . S
C714 C715 1.397 . S
C714 C719 1.363 . S
C715 H686 0.950 . S
C715 C714 1.397 . S
C715 C716 1.334 . S
C716 H687 0.950 . S
C716 C715 1.334 . S
C716 C717 1.287 . S
C717 C716 1.287 . S
C717 C718 1.524 . S
C717 H720 0.999 . S
C718 H688 0.950 . S
C718 C717 1.524 . S
C718 C719 1.415 . S
C719 H689 0.950 . S
C719 C714 1.363 . S
C719 C718 1.415 . S
H720 C717 0.999 . S
H721 C702 0.913 . S
H722 C740 0.951 . S
H723 C742 0.951 . S
H724 C744 0.950 . S
H725 C745 0.950 . S
H726 C747 0.950 . S
H727 C750 0.950 . S
H728 C751 0.950 . S
H729 C753 0.950 . S
H730 C754 0.950 . S
H731 C755 0.951 . S
H732 C757 0.951 . S
H733 C759 0.950 . S
H734 C760 0.950 . S
H735 C762 0.950 . S
H736 C765 0.950 . S
H737 C766 0.950 . S
H738 C768 0.950 . S
H739 C769 0.950 . S
C740 H722 0.951 . S
C740 C741 1.366 . S
C740 C742 1.388 . S
C741 C740 1.366 . S
C741 C745 1.385 . S
C742 H723 0.951 . S
C742 C740 1.388 . S
C742 C743 1.366 . S
C743 C742 1.366 . S
C743 C744 1.414 . S
C743 C746 1.499 . S
C744 H724 0.950 . S
C744 C743 1.414 . S
C744 C745 1.374 . S
C745 H725 0.950 . S
C745 C741 1.385 . S
C745 C744 1.374 . S
C746 C743 1.499 . S
C746 C747 1.373 . S
C746 C748 1.389 . S
C747 H726 0.950 . S
C747 C746 1.373 . S
C747 C763 1.377 . S
C748 C746 1.389 . S
C748 C749 1.524 . S
C748 C762 1.377 . S
C749 C748 1.524 . S
C749 C750 1.397 . S
C749 C754 1.363 . S
C750 H727 0.950 . S
C750 C749 1.397 . S
C750 C751 1.334 . S
C751 H728 0.950 . S
C751 C750 1.334 . S
C751 C752 1.287 . S
C752 C751 1.287 . S
C752 C753 1.524 . S
C752 H771 0.913 . S
C753 H729 0.950 . S
C753 C752 1.524 . S
C753 C754 1.415 . S
C754 H730 0.950 . S
C754 C749 1.363 . S
C754 C753 1.415 . S
C755 H731 0.951 . S
C755 C756 1.366 . S
C755 C757 1.388 . S
C756 C755 1.366 . S
C756 C760 1.385 . S
C757 H732 0.951 . S
C757 C755 1.388 . S
C757 C758 1.366 . S
C758 C757 1.366 . S
C758 C759 1.414 . S
C758 C761 1.499 . S
C759 H733 0.950 . S
C759 C758 1.414 . S
C759 C760 1.374 . S
C760 H734 0.950 . S
C760 C756 1.385 . S
C760 C759 1.374 . S
C761 C758 1.499 . S
C761 C762 1.373 . S
C761 C763 1.389 . S
C762 H735 0.950 . S
C762 C748 1.377 . S
C762 C761 1.373 . S
C763 C747 1.377 . S
C763 C761 1.389 . S
C763 C764 1.524 . S
C764 C763 1.524 . S
C764 C765 1.397 . S
C764 C769 1.363 . S
C765 H736 0.950 . S
C765 C764 1.397 . S
C765 C766 1.334 . S
C766 H737 0.950 . S
C766 C765 1.334 . S
C766 C767 1.287 . S
C767 C766 1.287 . S
C767 C768 1.524 . S
C767 H770 0.999 . S
C768 H738 0.950 . S
C768 C767 1.524 . S
C768 C769 1.415 . S
C769 H739 0.950 . S
C769 C764 1.363 . S
C769 C768 1.415 . S
H770 C767 0.999 . S
H771 C752 0.913 . S
H772 C790 0.951 . S
H773 C792 0.951 . S
H774 C794 0.950 . S
H775 C795 0.950 . S
H776 C797 0.950 . S
H777 C800 0.950 . S
H778 C801 0.950 . S
H779 C803 0.950 . S
H780 C804 0.950 . S
H781 C805 0.951 . S
H782 C807 0.951 . S
H783 C809 0.950 . S
H784 C810 0.950 . S
H785 C812 0.950 . S
H786 C815 0.950 . S
H787 C816 0.950 . S
H788 C818 0.950 . S
H789 C819 0.950 . S
C790 H772 0.951 . S
C790 C791 1.366 . S
C790 C792 1.388 . S
C791 C790 1.366 . S
C791 C795 1.385 . S
C792 H773 0.951 . S
C792 C790 1.388 . S
C792 C793 1.366 . S
C793 C792 1.366 . S
C793 C794 1.414 . S
C793 C796 1.499 . S
C794 H774 0.950 . S
C794 C793 1.414 . S
C794 C795 1.374 . S
C795 H775 0.950 . S
C795 C791 1.385 . S
C795 C794 1.374 . S
C796 C793 1.499 . S
C796 C797 1.373 . S
C796 C798 1.389 . S
C797 H776 0.950 . S
C797 C796 1.373 . S
C797 C813 1.377 . S
C798 C796 1.389 . S
C798 C799 1.524 . S
C798 C812 1.377 . S
C799 C798 1.524 . S
C799 C800 1.397 . S
C799 C804 1.363 . S
C800 H777 0.950 . S
C800 C799 1.397 . S
C800 C801 1.334 . S
C801 H778 0.950 . S
C801 C800 1.334 . S
C801 C802 1.287 . S
C802 C801 1.287 . S
C802 C803 1.524 . S
C802 H821 0.913 . S
C803 H779 0.950 . S
C803 C802 1.524 . S
C803 C804 1.415 . S
C804 H780 0.950 . S
C804 C799 1.363 . S
C804 C803 1.415 . S
C805 H781 0.951 . S
C805 C806 1.366 . S
C805 C807 1.388 . S
C806 C805 1.366 . S
C806 C810 1.385 . S
C807 H782 0.951 . S
C807 C805 1.388 . S
C807 C808 1.366 . S
C808 C807 1.366 . S
C808 C809 1.414 . S
C808 C811 1.499 . S
C809 H783 0.950 . S
C809 C808 1.414 . S
C809 C810 1.374 . S
C810 H784 0.950 . S
C810 C806 1.385 . S
C810 C809 1.374 . S
C811 C808 1.499 . S
C811 C812 1.373 . S
C811 C813 1.389 . S
C812 H785 0.950 . S
C812 C798 1.377 . S
C812 C811 1.373 . S
C813 C797 1.377 . S
C813 C811 1.389 . S
C813 C814 1.524 . S
C814 C813 1.524 . S
C814 C815 1.397 . S
C814 C819 1.363 . S
C815 H786 0.950 . S
C815 C814 1.397 . S
C815 C816 1.334 . S
C816 H787 0.950 . S
C816 C815 1.334 . S
C816 C817 1.287 . S
C817 C816 1.287 . S
C817 C818 1.524 . S
C817 H820 0.999 . S
C818 H788 0.950 . S
C818 C817 1.524 . S
C818 C819 1.415 . S
C819 H789 0.950 . S
C819 C814 1.363 . S
C819 C818 1.415 . S
H820 C817 0.999 . S
H821 C802 0.913 . S
H822 C840 0.951 . S
H823 C842 0.951 . S
H824 C844 0.950 . S
H825 C845 0.950 . S
H826 C847 0.950 . S
H827 C850 0.950 . S
H828 C851 0.950 . S
H829 C853 0.950 . S
H830 C854 0.950 . S
H831 C855 0.951 . S
H832 C857 0.951 . S
H833 C859 0.950 . S
H834 C860 0.950 . S
H835 C862 0.950 . S
H836 C865 0.950 . S
H837 C866 0.950 . S
H838 C868 0.950 . S
H839 C869 0.950 . S
C840 H822 0.951 . S
C840 C841 1.366 . S
C840 C842 1.388 . S
C841 C840 1.366 . S
C841 C845 1.385 . S
C842 H823 0.951 . S
C842 C840 1.388 . S
C842 C843 1.366 . S
C843 C842 1.366 . S
C843 C844 1.414 . S
C843 C846 1.499 . S
C844 H824 0.950 . S
C844 C843 1.414 . S
C844 C845 1.374 . S
C845 H825 0.950 . S
C845 C841 1.385 . S
C845 C844 1.374 . S
C846 C843 1.499 . S
C846 C847 1.373 . S
C846 C848 1.389 . S
C847 H826 0.950 . S
C847 C846 1.373 . S
C847 C863 1.377 . S
C848 C846 1.389 . S
C848 C849 1.524 . S
C848 C862 1.377 . S
C849 C848 1.524 . S
C849 C850 1.397 . S
C849 C854 1.363 . S
C850 H827 0.950 . S
C850 C849 1.397 . S
C850 C851 1.334 1_554 S
C851 H828 0.950 . S
C851 C850 1.334 1_556 S
C851 C852 1.287 . S
C852 C851 1.287 . S
C852 C853 1.524 1_556 S
C852 H871 0.913 . S
C853 H829 0.950 . S
C853 C852 1.524 1_554 S
C853 C854 1.415 . S
C854 H830 0.950 . S
C854 C849 1.363 . S
C854 C853 1.415 . S
C855 H831 0.951 . S
C855 C856 1.366 . S
C855 C857 1.388 . S
C856 C855 1.366 . S
C856 C860 1.385 . S
C857 H832 0.951 . S
C857 C855 1.388 . S
C857 C858 1.366 . S
C858 C857 1.366 . S
C858 C859 1.414 . S
C858 C861 1.499 . S
C859 H833 0.950 . S
C859 C858 1.414 . S
C859 C860 1.374 . S
C860 H834 0.950 . S
C860 C856 1.385 . S
C860 C859 1.374 . S
C861 C858 1.499 . S
C861 C862 1.373 . S
C861 C863 1.389 . S
C862 H835 0.950 . S
C862 C848 1.377 . S
C862 C861 1.373 . S
C863 C847 1.377 . S
C863 C861 1.389 . S
C863 C864 1.524 . S
C864 C863 1.524 . S
C864 C865 1.397 . S
C864 C869 1.363 . S
C865 H836 0.950 . S
C865 C864 1.397 . S
C865 C866 1.334 . S
C866 H837 0.950 . S
C866 C865 1.334 . S
C866 C867 1.287 . S
C867 C866 1.287 . S
C867 C868 1.524 . S
C867 H870 0.999 . S
C868 H838 0.950 . S
C868 C867 1.524 . S
C868 C869 1.415 . S
C869 H839 0.950 . S
C869 C864 1.363 . S
C869 C868 1.415 . S
H870 C867 0.999 . S
H871 C852 0.913 . S
H872 C890 0.951 . S
H873 C892 0.951 . S
H874 C894 0.950 . S
H875 C895 0.950 . S
H876 C897 0.950 . S
H877 C900 0.950 . S
H878 C901 0.950 . S
H879 C903 0.950 . S
H880 C904 0.950 . S
H881 C905 0.951 . S
H882 C907 0.951 . S
H883 C909 0.950 . S
H884 C910 0.950 . S
H885 C912 0.950 . S
H886 C915 0.950 . S
H887 C916 0.950 . S
H888 C918 0.950 . S
H889 C919 0.950 . S
C890 H872 0.951 . S
C890 C891 1.366 . S
C890 C892 1.388 . S
C891 C890 1.366 . S
C891 C895 1.385 . S
C892 H873 0.951 . S
C892 C890 1.388 . S
C892 C893 1.366 . S
C893 C892 1.366 . S
C893 C894 1.414 . S
C893 C896 1.499 . S
C894 H874 0.950 . S
C894 C893 1.414 . S
C894 C895 1.374 . S
C895 H875 0.950 . S
C895 C891 1.385 . S
C895 C894 1.374 . S
C896 C893 1.499 . S
C896 C897 1.373 . S
C896 C898 1.389 . S
C897 H876 0.950 . S
C897 C896 1.373 . S
C897 C913 1.377 . S
C898 C896 1.389 . S
C898 C899 1.524 . S
C898 C912 1.377 . S
C899 C898 1.524 . S
C899 C900 1.397 . S
C899 C904 1.363 . S
C900 H877 0.950 . S
C900 C899 1.397 . S
C900 C901 1.334 . S
C901 H878 0.950 . S
C901 C900 1.334 . S
C901 C902 1.287 . S
C902 C901 1.287 . S
C902 C903 1.524 . S
C902 H921 0.913 . S
C903 H879 0.950 . S
C903 C902 1.524 . S
C903 C904 1.415 . S
C904 H880 0.950 . S
C904 C899 1.363 . S
C904 C903 1.415 . S
C905 H881 0.951 . S
C905 C906 1.366 . S
C905 C907 1.388 . S
C906 C905 1.366 . S
C906 C910 1.385 . S
C907 H882 0.951 . S
C907 C905 1.388 . S
C907 C908 1.366 . S
C908 C907 1.366 . S
C908 C909 1.414 . S
C908 C911 1.499 . S
C909 H883 0.950 . S
C909 C908 1.414 . S
C909 C910 1.374 . S
C910 H884 0.950 . S
C910 C906 1.385 . S
C910 C909 1.374 . S
C911 C908 1.499 . S
C911 C912 1.373 . S
C911 C913 1.389 . S
C912 H885 0.950 . S
C912 C898 1.377 . S
C912 C911 1.373 . S
C913 C897 1.377 . S
C913 C911 1.389 . S
C913 C914 1.524 . S
C914 C913 1.524 . S
C914 C915 1.397 . S
C914 C919 1.363 . S
C915 H886 0.950 . S
C915 C914 1.397 . S
C915 C916 1.334 . S
C916 H887 0.950 . S
C916 C915 1.334 . S
C916 C917 1.287 . S
C917 C916 1.287 . S
C917 C918 1.524 . S
C917 H920 0.999 . S
C918 H888 0.950 . S
C918 C917 1.524 . S
C918 C919 1.415 . S
C919 H889 0.950 . S
C919 C914 1.363 . S
C919 C918 1.415 . S
H920 C917 0.999 . S
H921 C902 0.913 . S
H922 C940 0.951 . S
H923 C942 0.951 . S
H924 C944 0.950 . S
H925 C945 0.950 . S
H926 C947 0.950 . S
H927 C950 0.950 . S
H928 C951 0.950 . S
H929 C953 0.950 . S
H930 C954 0.950 . S
H931 C955 0.951 . S
H932 C957 0.951 . S
H933 C959 0.950 . S
H934 C960 0.950 . S
H935 C962 0.950 . S
H936 C965 0.950 . S
H937 C966 0.950 . S
H938 C968 0.950 . S
H939 C969 0.950 . S
C940 H922 0.951 . S
C940 C941 1.366 . S
C940 C942 1.388 . S
C941 C940 1.366 . S
C941 C945 1.385 . S
C942 H923 0.951 . S
C942 C940 1.388 . S
C942 C943 1.366 . S
C943 C942 1.366 . S
C943 C944 1.414 . S
C943 C946 1.499 . S
C944 H924 0.950 . S
C944 C943 1.414 . S
C944 C945 1.374 . S
C945 H925 0.950 . S
C945 C941 1.385 . S
C945 C944 1.374 . S
C946 C943 1.499 . S
C946 C947 1.373 . S
C946 C948 1.389 . S
C947 H926 0.950 . S
C947 C946 1.373 . S
C947 C963 1.377 . S
C948 C946 1.389 . S
C948 C949 1.524 . S
C948 C962 1.377 . S
C949 C948 1.524 . S
C949 C950 1.397 . S
C949 C954 1.363 . S
C950 H927 0.950 . S
C950 C949 1.397 . S
C950 C951 1.334 . S
C951 H928 0.950 . S
C951 C950 1.334 . S
C951 C952 1.287 . S
C952 C951 1.287 . S
C952 C953 1.524 . S
C952 H971 0.913 . S
C953 H929 0.950 . S
C953 C952 1.524 . S
C953 C954 1.415 . S
C954 H930 0.950 . S
C954 C949 1.363 . S
C954 C953 1.415 . S
C955 H931 0.951 . S
C955 C956 1.366 . S
C955 C957 1.388 . S
C956 C955 1.366 . S
C956 C960 1.385 . S
C957 H932 0.951 . S
C957 C955 1.388 . S
C957 C958 1.366 . S
C958 C957 1.366 . S
C958 C959 1.414 . S
C958 C961 1.499 . S
C959 H933 0.950 . S
C959 C958 1.414 . S
C959 C960 1.374 . S
C960 H934 0.950 . S
C960 C956 1.385 . S
C960 C959 1.374 . S
C961 C958 1.499 . S
C961 C962 1.373 . S
C961 C963 1.389 . S
C962 H935 0.950 . S
C962 C948 1.377 . S
C962 C961 1.373 . S
C963 C947 1.377 . S
C963 C961 1.389 . S
C963 C964 1.524 . S
C964 C963 1.524 . S
C964 C965 1.397 . S
C964 C969 1.363 . S
C965 H936 0.950 . S
C965 C964 1.397 . S
C965 C966 1.334 . S
C966 H937 0.950 . S
C966 C965 1.334 . S
C966 C967 1.287 . S
C967 C966 1.287 . S
C967 C968 1.524 . S
C967 H970 0.999 . S
C968 H938 0.950 . S
C968 C967 1.524 . S
C968 C969 1.415 . S
C969 H939 0.950 . S
C969 C964 1.363 . S
C969 C968 1.415 . S
H970 C967 0.999 . S
H971 C952 0.913 . S
H972 C990 0.951 . S
H973 C992 0.951 . S
H974 C994 0.950 . S
H975 C995 0.950 . S
H976 C997 0.950 . S
H977 C1000 0.950 . S
H978 C1001 0.950 . S
H979 C1003 0.950 1_556 S
H980 C1004 0.950 . S
H981 C1005 0.951 . S
H982 C1007 0.951 . S
H983 C1009 0.950 . S
H984 C1010 0.950 1_556 S
H985 C1012 0.950 . S
H986 C1015 0.950 . S
H987 C1016 0.950 . S
H988 C1018 0.950 . S
H989 C1019 0.950 . S
C990 H972 0.951 . S
C990 C991 1.366 . S
C990 C992 1.388 . S
C991 C990 1.366 . S
C991 C995 1.385 . S
C992 H973 0.951 . S
C992 C990 1.388 . S
C992 C993 1.366 . S
C993 C992 1.366 . S
C993 C994 1.414 . S
C993 C996 1.499 . S
C994 H974 0.950 . S
C994 C993 1.414 . S
C994 C995 1.374 . S
C995 H975 0.950 . S
C995 C991 1.385 . S
C995 C994 1.374 . S
C996 C993 1.499 . S
C996 C997 1.373 . S
C996 C998 1.389 . S
C997 H976 0.950 . S
C997 C996 1.373 . S
C997 C1013 1.377 . S
C998 C996 1.389 . S
C998 C999 1.524 . S
C998 C1012 1.377 . S
C999 C998 1.524 . S
C999 C1000 1.397 . S
C999 C1004 1.363 . S
C1000 H977 0.950 . S
C1000 C999 1.397 . S
C1000 C1001 1.334 . S
C1001 H978 0.950 . S
C1001 C1000 1.334 . S
C1001 C1002 1.287 . S
C1002 C1001 1.287 . S
C1002 C1003 1.524 . S
C1002 H1021 0.913 . S
C1003 H979 0.950 1_554 S
C1003 C1002 1.524 . S
C1003 C1004 1.415 . S
C1004 H980 0.950 . S
C1004 C999 1.363 . S
C1004 C1003 1.415 . S
C1005 H981 0.951 . S
C1005 C1006 1.366 . S
C1005 C1007 1.388 . S
C1006 C1005 1.366 . S
C1006 C1010 1.385 . S
C1007 H982 0.951 . S
C1007 C1005 1.388 . S
C1007 C1008 1.366 . S
C1008 C1007 1.366 . S
C1008 C1009 1.414 . S
C1008 C1011 1.499 . S
C1009 H983 0.950 . S
C1009 C1008 1.414 . S
C1009 C1010 1.374 . S
C1010 H984 0.950 1_554 S
C1010 C1006 1.385 . S
C1010 C1009 1.374 . S
C1011 C1008 1.499 . S
C1011 C1012 1.373 . S
C1011 C1013 1.389 . S
C1012 H985 0.950 . S
C1012 C998 1.377 . S
C1012 C1011 1.373 . S
C1013 C997 1.377 . S
C1013 C1011 1.389 . S
C1013 C1014 1.524 . S
C1014 C1013 1.524 . S
C1014 C1015 1.397 . S
C1014 C1019 1.363 . S
C1015 H986 0.950 . S
C1015 C1014 1.397 . S
C1015 C1016 1.334 . S
C1016 H987 0.950 . S
C1016 C1015 1.334 . S
C1016 C1017 1.287 . S
C1017 C1016 1.287 . S
C1017 C1018 1.524 . S
C1017 H1020 0.999 . S
C1018 H988 0.950 . S
C1018 C1017 1.524 . S
C1018 C1019 1.415 . S
C1019 H989 0.950 . S
C1019 C1014 1.363 . S
C1019 C1018 1.415 . S
H1020 C1017 0.999 . S
H1021 C1002 0.913 . S
H1022 C1040 0.951 . S
H1023 C1042 0.951 . S
H1024 C1044 0.950 . S
H1025 C1045 0.950 . S
H1026 C1047 0.950 . S
H1027 C1050 0.950 . S
H1028 C1051 0.950 . S
H1029 C1053 0.950 . S
H1030 C1054 0.950 . S
H1031 C1055 0.951 . S
H1032 C1057 0.951 . S
H1033 C1059 0.950 . S
H1034 C1060 0.950 . S
H1035 C1062 0.950 . S
H1036 C1065 0.950 . S
H1037 C1066 0.950 . S
H1038 C1068 0.950 . S
H1039 C1069 0.950 . S
C1040 H1022 0.951 . S
C1040 C1041 1.366 . S
C1040 C1042 1.388 . S
C1041 C1040 1.366 . S
C1041 C1045 1.385 . S
C1042 H1023 0.951 . S
C1042 C1040 1.388 . S
C1042 C1043 1.366 . S
C1043 C1042 1.366 . S
C1043 C1044 1.414 . S
C1043 C1046 1.499 . S
C1044 H1024 0.950 . S
C1044 C1043 1.414 . S
C1044 C1045 1.374 . S
C1045 H1025 0.950 . S
C1045 C1041 1.385 . S
C1045 C1044 1.374 . S
C1046 C1043 1.499 . S
C1046 C1047 1.373 . S
C1046 C1048 1.389 . S
C1047 H1026 0.950 . S
C1047 C1046 1.373 . S
C1047 C1063 1.377 . S
C1048 C1046 1.389 . S
C1048 C1049 1.524 . S
C1048 C1062 1.377 . S
C1049 C1048 1.524 . S
C1049 C1050 1.397 . S
C1049 C1054 1.363 . S
C1050 H1027 0.950 . S
C1050 C1049 1.397 . S
C1050 C1051 1.334 . S
C1051 H1028 0.950 . S
C1051 C1050 1.334 . S
C1051 C1052 1.287 . S
C1052 C1051 1.287 . S
C1052 C1053 1.524 . S
C1052 H1071 0.913 . S
C1053 H1029 0.950 . S
C1053 C1052 1.524 . S
C1053 C1054 1.415 . S
C1054 H1030 0.950 . S
C1054 C1049 1.363 . S
C1054 C1053 1.415 . S
C1055 H1031 0.951 . S
C1055 C1056 1.366 . S
C1055 C1057 1.388 . S
C1056 C1055 1.366 . S
C1056 C1060 1.385 . S
C1057 H1032 0.951 . S
C1057 C1055 1.388 . S
C1057 C1058 1.366 . S
C1058 C1057 1.366 . S
C1058 C1059 1.414 . S
C1058 C1061 1.499 . S
C1059 H1033 0.950 . S
C1059 C1058 1.414 . S
C1059 C1060 1.374 . S
C1060 H1034 0.950 . S
C1060 C1056 1.385 . S
C1060 C1059 1.374 . S
C1061 C1058 1.499 . S
C1061 C1062 1.373 . S
C1061 C1063 1.389 . S
C1062 H1035 0.950 . S
C1062 C1048 1.377 . S
C1062 C1061 1.373 . S
C1063 C1047 1.377 . S
C1063 C1061 1.389 . S
C1063 C1064 1.524 . S
C1064 C1063 1.524 . S
C1064 C1065 1.397 . S
C1064 C1069 1.363 . S
C1065 H1036 0.950 . S
C1065 C1064 1.397 . S
C1065 C1066 1.334 . S
C1066 H1037 0.950 . S
C1066 C1065 1.334 . S
C1066 C1067 1.287 . S
C1067 C1066 1.287 . S
C1067 C1068 1.524 . S
C1067 H1070 0.999 . S
C1068 H1038 0.950 . S
C1068 C1067 1.524 . S
C1068 C1069 1.415 . S
C1069 H1039 0.950 . S
C1069 C1064 1.363 . S
C1069 C1068 1.415 . S
H1070 C1067 0.999 . S
H1071 C1052 0.913 . S
H1072 C1090 0.951 . S
H1073 C1092 0.951 . S
H1074 C1094 0.950 . S
H1075 C1095 0.950 . S
H1076 C1097 0.950 . S
H1077 C1100 0.950 . S
H1078 C1101 0.950 . S
H1079 C1103 0.950 . S
H1080 C1104 0.950 . S
H1081 C1105 0.951 . S
H1082 C1107 0.951 . S
H1083 C1109 0.950 . S
H1084 C1110 0.950 . S
H1085 C1112 0.950 . S
H1086 C1115 0.950 . S
H1087 C1116 0.950 . S
H1088 C1118 0.950 . S
H1089 C1119 0.950 . S
C1090 H1072 0.951 . S
C1090 C1091 1.366 . S
C1090 C1092 1.388 . S
C1091 C1090 1.366 . S
C1091 C1095 1.385 . S
C1092 H1073 0.951 . S
C1092 C1090 1.388 . S
C1092 C1093 1.366 . S
C1093 C1092 1.366 . S
C1093 C1094 1.414 . S
C1093 C1096 1.499 . S
C1094 H1074 0.950 . S
C1094 C1093 1.414 . S
C1094 C1095 1.374 . S
C1095 H1075 0.950 . S
C1095 C1091 1.385 . S
C1095 C1094 1.374 . S
C1096 C1093 1.499 . S
C1096 C1097 1.373 . S
C1096 C1098 1.389 . S
C1097 H1076 0.950 . S
C1097 C1096 1.373 . S
C1097 C1113 1.377 . S
C1098 C1096 1.389 . S
C1098 C1099 1.524 . S
C1098 C1112 1.377 . S
C1099 C1098 1.524 . S
C1099 C1100 1.397 . S
C1099 C1104 1.363 . S
C1100 H1077 0.950 . S
C1100 C1099 1.397 . S
C1100 C1101 1.334 . S
C1101 H1078 0.950 . S
C1101 C1100 1.334 . S
C1101 C1102 1.287 . S
C1102 C1101 1.287 . S
C1102 C1103 1.524 . S
C1102 H1121 0.913 . S
C1103 H1079 0.950 . S
C1103 C1102 1.524 . S
C1103 C1104 1.415 . S
C1104 H1080 0.950 . S
C1104 C1099 1.363 . S
C1104 C1103 1.415 . S
C1105 H1081 0.951 . S
C1105 C1106 1.366 . S
C1105 C1107 1.388 . S
C1106 C1105 1.366 . S
C1106 C1110 1.385 . S
C1107 H1082 0.951 . S
C1107 C1105 1.388 . S
C1107 C1108 1.366 . S
C1108 C1107 1.366 . S
C1108 C1109 1.414 . S
C1108 C1111 1.499 . S
C1109 H1083 0.950 . S
C1109 C1108 1.414 . S
C1109 C1110 1.374 . S
C1110 H1084 0.950 . S
C1110 C1106 1.385 . S
C1110 C1109 1.374 . S
C1111 C1108 1.499 . S
C1111 C1112 1.373 . S
C1111 C1113 1.389 . S
C1112 H1085 0.950 . S
C1112 C1098 1.377 . S
C1112 C1111 1.373 . S
C1113 C1097 1.377 . S
C1113 C1111 1.389 . S
C1113 C1114 1.524 . S
C1114 C1113 1.524 . S
C1114 C1115 1.397 . S
C1114 C1119 1.363 . S
C1115 H1086 0.950 . S
C1115 C1114 1.397 . S
C1115 C1116 1.334 . S
C1116 H1087 0.950 . S
C1116 C1115 1.334 . S
C1116 C1117 1.287 . S
C1117 C1116 1.287 . S
C1117 C1118 1.524 . S
C1117 H1120 0.995 1_556 S
C1118 H1088 0.950 . S
C1118 C1117 1.524 . S
C1118 C1119 1.415 . S
C1119 H1089 0.950 . S
C1119 C1114 1.363 . S
C1119 C1118 1.415 . S
H1120 C1117 0.995 1_554 S
H1121 C1102 0.913 . S
H1122 C1140 0.951 . S
H1123 C1142 0.951 . S
H1124 C1144 0.950 . S
H1125 C1145 0.950 . S
H1126 C1147 0.950 . S
H1127 C1150 0.950 . S
H1128 C1151 0.950 . S
H1129 C1153 0.950 1_556 S
H1130 C1154 0.950 . S
H1131 C1155 0.951 . S
H1132 C1157 0.951 . S
H1133 C1159 0.950 . S
H1134 C1160 0.950 . S
H1135 C1162 0.950 . S
H1136 C1165 0.950 . S
H1137 C1166 0.950 . S
H1138 C1168 0.950 . S
H1139 C1169 0.950 . S
C1140 H1122 0.951 . S
C1140 C1141 1.366 . S
C1140 C1142 1.388 . S
C1141 C1140 1.366 . S
C1141 C1145 1.385 . S
C1142 H1123 0.951 . S
C1142 C1140 1.388 . S
C1142 C1143 1.366 . S
C1143 C1142 1.366 . S
C1143 C1144 1.414 . S
C1143 C1146 1.499 . S
C1144 H1124 0.950 . S
C1144 C1143 1.414 . S
C1144 C1145 1.374 . S
C1145 H1125 0.950 . S
C1145 C1141 1.385 . S
C1145 C1144 1.374 . S
C1146 C1143 1.499 . S
C1146 C1147 1.373 . S
C1146 C1148 1.389 . S
C1147 H1126 0.950 . S
C1147 C1146 1.373 . S
C1147 C1163 1.377 . S
C1148 C1146 1.389 . S
C1148 C1149 1.524 . S
C1148 C1162 1.377 . S
C1149 C1148 1.524 . S
C1149 C1150 1.397 . S
C1149 C1154 1.363 . S
C1150 H1127 0.950 . S
C1150 C1149 1.397 . S
C1150 C1151 1.334 . S
C1151 H1128 0.950 . S
C1151 C1150 1.334 . S
C1151 C1152 1.287 . S
C1152 C1151 1.287 . S
C1152 C1153 1.524 . S
C1152 H1171 0.913 1_554 S
C1153 H1129 0.950 1_554 S
C1153 C1152 1.524 . S
C1153 C1154 1.415 . S
C1154 H1130 0.950 . S
C1154 C1149 1.363 . S
C1154 C1153 1.415 . S
C1155 H1131 0.951 . S
C1155 C1156 1.366 . S
C1155 C1157 1.388 . S
C1156 C1155 1.366 . S
C1156 C1160 1.385 . S
C1157 H1132 0.951 . S
C1157 C1155 1.388 . S
C1157 C1158 1.366 . S
C1158 C1157 1.366 . S
C1158 C1159 1.414 . S
C1158 C1161 1.499 . S
C1159 H1133 0.950 . S
C1159 C1158 1.414 . S
C1159 C1160 1.374 . S
C1160 H1134 0.950 . S
C1160 C1156 1.385 . S
C1160 C1159 1.374 . S
C1161 C1158 1.499 . S
C1161 C1162 1.373 . S
C1161 C1163 1.389 . S
C1162 H1135 0.950 . S
C1162 C1148 1.377 . S
C1162 C1161 1.373 . S
C1163 C1147 1.377 . S
C1163 C1161 1.389 . S
C1163 C1164 1.524 . S
C1164 C1163 1.524 . S
C1164 C1165 1.397 . S
C1164 C1169 1.363 . S
C1165 H1136 0.950 . S
C1165 C1164 1.397 . S
C1165 C1166 1.334 . S
C1166 H1137 0.950 . S
C1166 C1165 1.334 . S
C1166 C1167 1.287 . S
C1167 C1166 1.287 . S
C1167 C1168 1.524 . S
C1167 H1170 0.999 . S
C1168 H1138 0.950 . S
C1168 C1167 1.524 . S
C1168 C1169 1.415 . S
C1169 H1139 0.950 . S
C1169 C1164 1.363 . S
C1169 C1168 1.415 . S
H1170 C1167 0.999 . S
H1171 C1152 0.913 1_556 S
H1172 C1190 0.951 . S
H1173 C1192 0.951 . S
H1174 C1194 0.950 . S
H1175 C1195 0.950 . S
H1176 C1197 0.950 . S
H1177 C1200 0.950 . S
H1178 C1201 0.950 . S
H1179 C1203 0.950 . S
H1180 C1204 0.950 . S
H1181 C1205 0.951 . S
H1182 C1207 0.951 . S
H1183 C1209 0.950 . S
H1184 C1210 0.950 . S
H1185 C1212 0.950 . S
H1186 C1215 0.950 . S
H1187 C1216 0.950 . S
H1188 C1218 0.950 . S
H1189 C1219 0.950 . S
C1190 H1172 0.951 . S
C1190 C1191 1.366 . S
C1190 C1192 1.388 . S
C1191 C1190 1.366 . S
C1191 C1195 1.385 . S
C1192 H1173 0.951 . S
C1192 C1190 1.388 . S
C1192 C1193 1.366 . S
C1193 C1192 1.366 . S
C1193 C1194 1.414 . S
C1193 C1196 1.499 . S
C1194 H1174 0.950 . S
C1194 C1193 1.414 . S
C1194 C1195 1.374 . S
C1195 H1175 0.950 . S
C1195 C1191 1.385 . S
C1195 C1194 1.374 . S
C1196 C1193 1.499 . S
C1196 C1197 1.373 . S
C1196 C1198 1.389 . S
C1197 H1176 0.950 . S
C1197 C1196 1.373 . S
C1197 C1213 1.377 . S
C1198 C1196 1.389 . S
C1198 C1199 1.524 . S
C1198 C1212 1.377 . S
C1199 C1198 1.524 . S
C1199 C1200 1.397 . S
C1199 C1204 1.363 . S
C1200 H1177 0.950 . S
C1200 C1199 1.397 . S
C1200 C1201 1.334 . S
C1201 H1178 0.950 . S
C1201 C1200 1.334 . S
C1201 C1202 1.287 . S
C1202 C1201 1.287 . S
C1202 C1203 1.524 . S
C1202 H1221 0.913 . S
C1203 H1179 0.950 . S
C1203 C1202 1.524 . S
C1203 C1204 1.415 . S
C1204 H1180 0.950 . S
C1204 C1199 1.363 . S
C1204 C1203 1.415 . S
C1205 H1181 0.951 . S
C1205 C1206 1.366 . S
C1205 C1207 1.388 . S
C1206 C1205 1.366 . S
C1206 C1210 1.385 . S
C1207 H1182 0.951 . S
C1207 C1205 1.388 . S
C1207 C1208 1.366 . S
C1208 C1207 1.366 . S
C1208 C1209 1.414 . S
C1208 C1211 1.499 . S
C1209 H1183 0.950 . S
C1209 C1208 1.414 . S
C1209 C1210 1.374 . S
C1210 H1184 0.950 . S
C1210 C1206 1.385 . S
C1210 C1209 1.374 . S
C1211 C1208 1.499 . S
C1211 C1212 1.373 . S
C1211 C1213 1.389 . S
C1212 H1185 0.950 . S
C1212 C1198 1.377 . S
C1212 C1211 1.373 . S
C1213 C1197 1.377 . S
C1213 C1211 1.389 . S
C1213 C1214 1.524 . S
C1214 C1213 1.524 . S
C1214 C1215 1.397 . S
C1214 C1219 1.363 . S
C1215 H1186 0.950 . S
C1215 C1214 1.397 . S
C1215 C1216 1.334 . S
C1216 H1187 0.950 . S
C1216 C1215 1.334 . S
C1216 C1217 1.287 . S
C1217 C1216 1.287 . S
C1217 C1218 1.524 . S
C1217 H1220 0.999 . S
C1218 H1188 0.950 . S
C1218 C1217 1.524 . S
C1218 C1219 1.415 . S
C1219 H1189 0.950 . S
C1219 C1214 1.363 . S
C1219 C1218 1.415 . S
H1220 C1217 0.999 . S
H1221 C1202 0.913 . S
H1222 C1240 0.951 . S
H1223 C1242 0.951 . S
H1224 C1244 0.950 . S
H1225 C1245 0.950 . S
H1226 C1247 0.950 . S
H1227 C1250 0.950 . S
H1228 C1251 0.950 . S
H1229 C1253 0.950 . S
H1230 C1254 0.950 . S
H1231 C1255 0.951 . S
H1232 C1257 0.951 . S
H1233 C1259 0.950 . S
H1234 C1260 0.950 . S
H1235 C1262 0.950 . S
H1236 C1265 0.950 . S
H1237 C1266 0.950 . S
H1238 C1268 0.950 . S
H1239 C1269 0.950 . S
C1240 H1222 0.951 . S
C1240 C1241 1.366 . S
C1240 C1242 1.388 . S
C1241 C1240 1.366 . S
C1241 C1245 1.385 . S
C1242 H1223 0.951 . S
C1242 C1240 1.388 . S
C1242 C1243 1.366 . S
C1243 C1242 1.366 . S
C1243 C1244 1.414 . S
C1243 C1246 1.499 . S
C1244 H1224 0.950 . S
C1244 C1243 1.414 . S
C1244 C1245 1.374 . S
C1245 H1225 0.950 . S
C1245 C1241 1.385 . S
C1245 C1244 1.374 . S
C1246 C1243 1.499 . S
C1246 C1247 1.373 . S
C1246 C1248 1.389 . S
C1247 H1226 0.950 . S
C1247 C1246 1.373 . S
C1247 C1263 1.377 . S
C1248 C1246 1.389 . S
C1248 C1249 1.524 . S
C1248 C1262 1.377 . S
C1249 C1248 1.524 . S
C1249 C1250 1.397 . S
C1249 C1254 1.363 . S
C1250 H1227 0.950 . S
C1250 C1249 1.397 . S
C1250 C1251 1.334 . S
C1251 H1228 0.950 . S
C1251 C1250 1.334 . S
C1251 C1252 1.287 . S
C1252 C1251 1.287 . S
C1252 C1253 1.524 . S
C1252 H1271 0.913 . S
C1253 H1229 0.950 . S
C1253 C1252 1.524 . S
C1253 C1254 1.415 . S
C1254 H1230 0.950 . S
C1254 C1249 1.363 . S
C1254 C1253 1.415 . S
C1255 H1231 0.951 . S
C1255 C1256 1.366 . S
C1255 C1257 1.388 . S
C1256 C1255 1.366 . S
C1256 C1260 1.385 . S
C1257 H1232 0.951 . S
C1257 C1255 1.388 . S
C1257 C1258 1.366 . S
C1258 C1257 1.366 . S
C1258 C1259 1.414 . S
C1258 C1261 1.499 . S
C1259 H1233 0.950 . S
C1259 C1258 1.414 . S
C1259 C1260 1.374 . S
C1260 H1234 0.950 . S
C1260 C1256 1.385 . S
C1260 C1259 1.374 . S
C1261 C1258 1.499 . S
C1261 C1262 1.373 . S
C1261 C1263 1.389 . S
C1262 H1235 0.950 . S
C1262 C1248 1.377 . S
C1262 C1261 1.373 . S
C1263 C1247 1.377 . S
C1263 C1261 1.389 . S
C1263 C1264 1.524 . S
C1264 C1263 1.524 . S
C1264 C1265 1.397 . S
C1264 C1269 1.363 . S
C1265 H1236 0.950 . S
C1265 C1264 1.397 . S
C1265 C1266 1.334 . S
C1266 H1237 0.950 . S
C1266 C1265 1.334 . S
C1266 C1267 1.287 . S
C1267 C1266 1.287 . S
C1267 C1268 1.524 . S
C1267 H1270 0.999 . S
C1268 H1238 0.950 . S
C1268 C1267 1.524 . S
C1268 C1269 1.415 . S
C1269 H1239 0.950 . S
C1269 C1264 1.363 . S
C1269 C1268 1.415 . S
H1270 C1267 0.999 . S
H1271 C1252 0.913 . S
H1272 C1290 0.951 . S
H1273 C1292 0.951 . S
H1274 C1294 0.950 . S
H1275 C1295 0.950 . S
H1276 C1297 0.950 . S
H1277 C1300 0.950 . S
H1278 C1301 0.950 . S
H1279 C1303 0.950 . S
H1280 C1304 0.950 . S
H1281 C1305 0.951 . S
H1282 C1307 0.951 . S
H1283 C1309 0.950 . S
H1284 C1310 0.950 . S
H1285 C1312 0.950 . S
H1286 C1315 0.950 . S
H1287 C1316 0.950 . S
H1288 C1318 0.950 . S
H1289 C1319 0.950 . S
C1290 H1272 0.951 . S
C1290 C1291 1.366 . S
C1290 C1292 1.388 . S
C1291 C1290 1.366 . S
C1291 C1295 1.385 . S
C1292 H1273 0.951 . S
C1292 C1290 1.388 . S
C1292 C1293 1.366 . S
C1293 C1292 1.366 . S
C1293 C1294 1.414 . S
C1293 C1296 1.499 . S
C1294 H1274 0.950 . S
C1294 C1293 1.414 . S
C1294 C1295 1.374 . S
C1295 H1275 0.950 . S
C1295 C1291 1.385 . S
C1295 C1294 1.374 . S
C1296 C1293 1.499 . S
C1296 C1297 1.373 . S
C1296 C1298 1.389 . S
C1297 H1276 0.950 . S
C1297 C1296 1.373 . S
C1297 C1313 1.377 . S
C1298 C1296 1.389 . S
C1298 C1299 1.524 . S
C1298 C1312 1.377 . S
C1299 C1298 1.524 . S
C1299 C1300 1.397 . S
C1299 C1304 1.363 . S
C1300 H1277 0.950 . S
C1300 C1299 1.397 . S
C1300 C1301 1.334 . S
C1301 H1278 0.950 . S
C1301 C1300 1.334 . S
C1301 C1302 1.287 . S
C1302 C1301 1.287 . S
C1302 C1303 1.524 . S
C1302 H1321 0.913 . S
C1303 H1279 0.950 . S
C1303 C1302 1.524 . S
C1303 C1304 1.415 . S
C1304 H1280 0.950 . S
C1304 C1299 1.363 . S
C1304 C1303 1.415 . S
C1305 H1281 0.951 . S
C1305 C1306 1.366 . S
C1305 C1307 1.388 . S
C1306 C1305 1.366 . S
C1306 C1310 1.385 . S
C1307 H1282 0.951 . S
C1307 C1305 1.388 . S
C1307 C1308 1.366 . S
C1308 C1307 1.366 . S
C1308 C1309 1.414 . S
C1308 C1311 1.499 . S
C1309 H1283 0.950 . S
C1309 C1308 1.414 . S
C1309 C1310 1.374 . S
C1310 H1284 0.950 . S
C1310 C1306 1.385 . S
C1310 C1309 1.374 . S
C1311 C1308 1.499 . S
C1311 C1312 1.373 . S
C1311 C1313 1.389 . S
C1312 H1285 0.950 . S
C1312 C1298 1.377 . S
C1312 C1311 1.373 . S
C1313 C1297 1.377 . S
C1313 C1311 1.389 . S
C1313 C1314 1.524 . S
C1314 C1313 1.524 . S
C1314 C1315 1.397 . S
C1314 C1319 1.363 . S
C1315 H1286 0.950 . S
C1315 C1314 1.397 . S
C1315 C1316 1.334 1_554 S
C1316 H1287 0.950 . S
C1316 C1315 1.334 1_556 S
C1316 C1317 1.287 . S
C1317 C1316 1.287 . S
C1317 C1318 1.524 . S
C1317 H1320 0.999 . S
C1318 H1288 0.950 . S
C1318 C1317 1.524 . S
C1318 C1319 1.415 1_556 S
C1319 H1289 0.950 . S
C1319 C1314 1.363 . S
C1319 C1318 1.415 1_554 S
H1320 C1317 0.999 . S
H1321 C1302 0.913 . S
H1322 C1340 0.951 . S
H1323 C1342 0.951 . S
H1324 C1344 0.950 . S
H1325 C1345 0.950 . S
H1326 C1347 0.950 . S
H1327 C1350 0.950 . S
H1328 C1351 0.950 . S
H1329 C1353 0.950 . S
H1330 C1354 0.950 . S
H1331 C1355 0.951 . S
H1332 C1357 0.951 . S
H1333 C1359 0.950 . S
H1334 C1360 0.950 . S
H1335 C1362 0.950 . S
H1336 C1365 0.950 . S
H1337 C1366 0.950 . S
H1338 C1368 0.950 . S
H1339 C1369 0.950 . S
C1340 H1322 0.951 . S
C1340 C1341 1.366 . S
C1340 C1342 1.388 . S
C1341 C1340 1.366 . S
C1341 C1345 1.385 . S
C1342 H1323 0.951 . S
C1342 C1340 1.388 . S
C1342 C1343 1.366 . S
C1343 C1342 1.366 . S
C1343 C1344 1.414 . S
C1343 C1346 1.499 . S
C1344 H1324 0.950 . S
C1344 C1343 1.414 . S
C1344 C1345 1.374 . S
C1345 H1325 0.950 . S
C1345 C1341 1.385 . S
C1345 C1344 1.374 . S
C1346 C1343 1.499 . S
C1346 C1347 1.373 . S
C1346 C1348 1.389 . S
C1347 H1326 0.950 . S
C1347 C1346 1.373 . S
C1347 C1363 1.377 . S
C1348 C1346 1.389 . S
C1348 C1349 1.524 . S
C1348 C1362 1.377 . S
C1349 C1348 1.524 . S
C1349 C1350 1.397 . S
C1349 C1354 1.363 . S
C1350 H1327 0.950 . S
C1350 C1349 1.397 . S
C1350 C1351 1.334 1_556 S
C1351 H1328 0.950 . S
C1351 C1350 1.334 1_554 S
C1351 C1352 1.287 . S
C1352 C1351 1.287 . S
C1352 C1353 1.524 . S
C1352 H1371 0.913 . S
C1353 H1329 0.950 . S
C1353 C1352 1.524 . S
C1353 C1354 1.415 1_554 S
C1354 H1330 0.950 . S
C1354 C1349 1.363 . S
C1354 C1353 1.415 1_556 S
C1355 H1331 0.951 . S
C1355 C1356 1.366 . S
C1355 C1357 1.388 . S
C1356 C1355 1.366 . S
C1356 C1360 1.385 . S
C1357 H1332 0.951 . S
C1357 C1355 1.388 . S
C1357 C1358 1.366 . S
C1358 C1357 1.366 . S
C1358 C1359 1.414 . S
C1358 C1361 1.499 . S
C1359 H1333 0.950 . S
C1359 C1358 1.414 . S
C1359 C1360 1.374 . S
C1360 H1334 0.950 . S
C1360 C1356 1.385 . S
C1360 C1359 1.374 . S
C1361 C1358 1.499 . S
C1361 C1362 1.373 . S
C1361 C1363 1.389 . S
C1362 H1335 0.950 . S
C1362 C1348 1.377 . S
C1362 C1361 1.373 . S
C1363 C1347 1.377 . S
C1363 C1361 1.389 . S
C1363 C1364 1.524 . S
C1364 C1363 1.524 . S
C1364 C1365 1.397 . S
C1364 C1369 1.363 . S
C1365 H1336 0.950 . S
C1365 C1364 1.397 . S
C1365 C1366 1.334 . S
C1366 H1337 0.950 . S
C1366 C1365 1.334 . S
C1366 C1367 1.287 . S
C1367 C1366 1.287 . S
C1367 C1368 1.524 . S
C1367 H1370 0.999 . S
C1368 H1338 0.950 . S
C1368 C1367 1.524 . S
C1368 C1369 1.415 . S
C1369 H1339 0.950 . S
C1369 C1364 1.363 . S
C1369 C1368 1.415 . S
H1370 C1367 0.999 . S
H1371 C1352 0.913 . S
H1372 C1390 0.951 . S
H1373 C1392 0.951 . S
H1374 C1394 0.950 . S
H1375 C1395 0.950 . S
H1376 C1397 0.950 . S
H1377 C1400 0.950 . S
H1378 C1401 0.950 . S
H1379 C1403 0.950 . S
H1380 C1404 0.950 . S
H1381 C1405 0.951 . S
H1382 C1407 0.951 . S
H1383 C1409 0.950 . S
H1384 C1410 0.950 . S
H1385 C1412 0.950 . S
H1386 C1415 0.950 . S
H1387 C1416 0.950 . S
H1388 C1418 0.950 . S
H1389 C1419 0.950 . S
C1390 H1372 0.951 . S
C1390 C1391 1.366 . S
C1390 C1392 1.388 . S
C1391 C1390 1.366 . S
C1391 C1395 1.385 . S
C1392 H1373 0.951 . S
C1392 C1390 1.388 . S
C1392 C1393 1.366 . S
C1393 C1392 1.366 . S
C1393 C1394 1.414 . S
C1393 C1396 1.499 . S
C1394 H1374 0.950 . S
C1394 C1393 1.414 . S
C1394 C1395 1.374 . S
C1395 H1375 0.950 . S
C1395 C1391 1.385 . S
C1395 C1394 1.374 . S
C1396 C1393 1.499 . S
C1396 C1397 1.373 . S
C1396 C1398 1.389 . S
C1397 H1376 0.950 . S
C1397 C1396 1.373 . S
C1397 C1413 1.377 . S
C1398 C1396 1.389 . S
C1398 C1399 1.524 . S
C1398 C1412 1.377 . S
C1399 C1398 1.524 . S
C1399 C1400 1.397 . S
C1399 C1404 1.363 . S
C1400 H1377 0.950 . S
C1400 C1399 1.397 . S
C1400 C1401 1.334 . S
C1401 H1378 0.950 . S
C1401 C1400 1.334 . S
C1401 C1402 1.287 . S
C1402 C1401 1.287 . S
C1402 C1403 1.524 . S
C1402 H1421 0.913 . S
C1403 H1379 0.950 . S
C1403 C1402 1.524 . S
C1403 C1404 1.415 . S
C1404 H1380 0.950 . S
C1404 C1399 1.363 . S
C1404 C1403 1.415 . S
C1405 H1381 0.951 . S
C1405 C1406 1.366 . S
C1405 C1407 1.388 . S
C1406 C1405 1.366 . S
C1406 C1410 1.385 . S
C1407 H1382 0.951 . S
C1407 C1405 1.388 . S
C1407 C1408 1.366 . S
C1408 C1407 1.366 . S
C1408 C1409 1.414 . S
C1408 C1411 1.499 . S
C1409 H1383 0.950 . S
C1409 C1408 1.414 . S
C1409 C1410 1.374 . S
C1410 H1384 0.950 . S
C1410 C1406 1.385 . S
C1410 C1409 1.374 . S
C1411 C1408 1.499 . S
C1411 C1412 1.373 . S
C1411 C1413 1.389 . S
C1412 H1385 0.950 . S
C1412 C1398 1.377 . S
C1412 C1411 1.373 . S
C1413 C1397 1.377 . S
C1413 C1411 1.389 . S
C1413 C1414 1.524 . S
C1414 C1413 1.524 . S
C1414 C1415 1.397 . S
C1414 C1419 1.363 . S
C1415 H1386 0.950 . S
C1415 C1414 1.397 . S
C1415 C1416 1.334 . S
C1416 H1387 0.950 . S
C1416 C1415 1.334 . S
C1416 C1417 1.287 . S
C1417 C1416 1.287 . S
C1417 C1418 1.524 . S
C1417 H1420 0.999 . S
C1418 H1388 0.950 . S
C1418 C1417 1.524 . S
C1418 C1419 1.415 . S
C1419 H1389 0.950 . S
C1419 C1414 1.363 . S
C1419 C1418 1.415 . S
H1420 C1417 0.999 . S
H1421 C1402 0.913 . S
H1422 C1440 0.951 . S
H1423 C1442 0.951 . S
H1424 C1444 0.950 . S
H1425 C1445 0.950 . S
H1426 C1447 0.950 . S
H1427 C1450 0.950 . S
H1428 C1451 0.950 . S
H1429 C1453 0.950 . S
H1430 C1454 0.950 . S
H1431 C1455 0.951 . S
H1432 C1457 0.951 . S
H1433 C1459 0.950 . S
H1434 C1460 0.950 . S
H1435 C1462 0.950 . S
H1436 C1465 0.950 . S
H1437 C1466 0.950 . S
H1438 C1468 0.950 . S
H1439 C1469 0.950 . S
C1440 H1422 0.951 . S
C1440 C1441 1.366 . S
C1440 C1442 1.388 . S
C1441 C1440 1.366 . S
C1441 C1445 1.385 . S
C1442 H1423 0.951 . S
C1442 C1440 1.388 . S
C1442 C1443 1.366 . S
C1443 C1442 1.366 . S
C1443 C1444 1.414 . S
C1443 C1446 1.499 . S
C1444 H1424 0.950 . S
C1444 C1443 1.414 . S
C1444 C1445 1.374 . S
C1445 H1425 0.950 . S
C1445 C1441 1.385 . S
C1445 C1444 1.374 . S
C1446 C1443 1.499 . S
C1446 C1447 1.373 . S
C1446 C1448 1.389 . S
C1447 H1426 0.950 . S
C1447 C1446 1.373 . S
C1447 C1463 1.377 . S
C1448 C1446 1.389 . S
C1448 C1449 1.524 . S
C1448 C1462 1.377 . S
C1449 C1448 1.524 . S
C1449 C1450 1.397 . S
C1449 C1454 1.363 . S
C1450 H1427 0.950 . S
C1450 C1449 1.397 . S
C1450 C1451 1.334 . S
C1451 H1428 0.950 . S
C1451 C1450 1.334 . S
C1451 C1452 1.287 . S
C1452 C1451 1.287 . S
C1452 C1453 1.524 . S
C1452 H1471 0.913 . S
C1453 H1429 0.950 . S
C1453 C1452 1.524 . S
C1453 C1454 1.415 . S
C1454 H1430 0.950 . S
C1454 C1449 1.363 . S
C1454 C1453 1.415 . S
C1455 H1431 0.951 . S
C1455 C1456 1.366 . S
C1455 C1457 1.388 . S
C1456 C1455 1.366 . S
C1456 C1460 1.385 . S
C1457 H1432 0.951 . S
C1457 C1455 1.388 . S
C1457 C1458 1.366 . S
C1458 C1457 1.366 . S
C1458 C1459 1.414 . S
C1458 C1461 1.499 . S
C1459 H1433 0.950 . S
C1459 C1458 1.414 . S
C1459 C1460 1.374 . S
C1460 H1434 0.950 . S
C1460 C1456 1.385 . S
C1460 C1459 1.374 . S
C1461 C1458 1.499 . S
C1461 C1462 1.373 . S
C1461 C1463 1.389 . S
C1462 H1435 0.950 . S
C1462 C1448 1.377 . S
C1462 C1461 1.373 . S
C1463 C1447 1.377 . S
C1463 C1461 1.389 . S
C1463 C1464 1.524 . S
C1464 C1463 1.524 . S
C1464 C1465 1.397 . S
C1464 C1469 1.363 . S
C1465 H1436 0.950 . S
C1465 C1464 1.397 . S
C1465 C1466 1.334 . S
C1466 H1437 0.950 . S
C1466 C1465 1.334 . S
C1466 C1467 1.287 . S
C1467 C1466 1.287 . S
C1467 C1468 1.524 . S
C1467 H1470 0.999 . S
C1468 H1438 0.950 . S
C1468 C1467 1.524 . S
C1468 C1469 1.415 . S
C1469 H1439 0.950 . S
C1469 C1464 1.363 . S
C1469 C1468 1.415 . S
H1470 C1467 0.999 . S
H1471 C1452 0.913 . S
H1472 C1490 0.951 . S
H1473 C1492 0.951 . S
H1474 C1494 0.950 . S
H1475 C1495 0.950 . S
H1476 C1497 0.950 . S
H1477 C1500 0.950 . S
H1478 C1501 0.950 . S
H1479 C1503 0.950 1_655 S
H1480 C1504 0.950 . S
H1481 C1505 0.951 . S
H1482 C1507 0.951 . S
H1483 C1509 0.950 . S
H1484 C1510 0.950 . S
H1485 C1512 0.950 . S
H1486 C1515 0.950 . S
H1487 C1516 0.950 . S
H1488 C1518 0.950 1_455 S
H1489 C1519 0.950 . S
C1490 H1472 0.951 . S
C1490 C1491 1.366 1_545 S
C1490 C1492 1.388 . S
C1491 C1490 1.366 1_565 S
C1491 C1495 1.385 1_655 S
C1492 H1473 0.951 . S
C1492 C1490 1.388 . S
C1492 C1493 1.372 1_545 S
C1493 C1492 1.372 1_565 S
C1493 C1494 1.408 1_655 S
C1493 C1496 1.499 1_655 S
C1494 H1474 0.950 . S
C1494 C1493 1.408 1_455 S
C1494 C1495 1.374 . S
C1495 H1475 0.950 . S
C1495 C1491 1.385 1_455 S
C1495 C1494 1.374 . S
C1496 C1493 1.499 1_455 S
C1496 C1497 1.405 1_455 S
C1496 C1498 1.358 1_565 S
C1497 H1476 0.950 . S
C1497 C1496 1.405 1_655 S
C1497 C1513 1.377 1_556 S
C1498 C1496 1.358 1_545 S
C1498 C1499 1.524 . S
C1498 C1512 1.377 1_556 S
C1499 C1498 1.524 . S
C1499 C1500 1.397 . S
C1499 C1504 1.363 1_455 S
C1500 H1477 0.950 . S
C1500 C1499 1.397 . S
C1500 C1501 1.334 . S
C1501 H1478 0.950 . S
C1501 C1500 1.334 . S
C1501 C1502 1.287 . S
C1502 C1501 1.287 . S
C1502 C1503 1.524 . S
C1502 H1521 0.913 . S
C1503 H1479 0.950 1_455 S
C1503 C1502 1.524 . S
C1503 C1504 1.415 1_455 S
C1504 H1480 0.950 . S
C1504 C1499 1.363 1_655 S
C1504 C1503 1.415 1_655 S
C1505 H1481 0.951 . S
C1505 C1506 1.366 1_565 S
C1505 C1507 1.388 . S
C1506 C1505 1.366 1_545 S
C1506 C1510 1.385 1_455 S
C1507 H1482 0.951 . S
C1507 C1505 1.388 . S
C1507 C1508 1.378 1_565 S
C1508 C1507 1.378 1_545 S
C1508 C1509 1.402 1_455 S
C1508 C1511 1.498 1_455 S
C1509 H1483 0.950 . S
C1509 C1508 1.402 1_655 S
C1509 C1510 1.374 . S
C1510 H1484 0.950 . S
C1510 C1506 1.385 1_655 S
C1510 C1509 1.374 . S
C1511 C1508 1.498 1_655 S
C1511 C1512 1.368 1_655 S
C1511 C1513 1.394 1_545 S
C1512 H1485 0.950 . S
C1512 C1498 1.377 1_554 S
C1512 C1511 1.368 1_455 S
C1513 C1497 1.377 1_554 S
C1513 C1511 1.394 1_565 S
C1513 C1514 1.524 . S
C1514 C1513 1.524 . S
C1514 C1515 1.397 . S
C1514 C1519 1.363 1_655 S
C1515 H1486 0.950 . S
C1515 C1514 1.397 . S
C1515 C1516 1.334 . S
C1516 H1487 0.950 . S
C1516 C1515 1.334 . S
C1516 C1517 1.287 . S
C1517 C1516 1.287 . S
C1517 C1518 1.524 . S
C1517 H1520 0.999 . S
C1518 H1488 0.950 1_655 S
C1518 C1517 1.524 . S
C1518 C1519 1.415 1_655 S
C1519 H1489 0.950 . S
C1519 C1514 1.363 1_455 S
C1519 C1518 1.415 1_455 S
H1520 C1517 0.999 . S
H1521 C1502 0.913 . S
H1522 C1540 0.951 . S
H1523 C1542 0.951 . S
H1524 C1544 0.950 . S
H1525 C1545 0.950 . S
H1526 C1547 0.950 . S
H1527 C1550 0.950 . S
H1528 C1551 0.950 . S
H1529 C1553 0.950 . S
H1530 C1554 0.950 . S
H1531 C1555 0.951 . S
H1532 C1557 0.951 . S
H1533 C1559 0.950 . S
H1534 C1560 0.950 . S
H1535 C1562 0.950 . S
H1536 C1565 0.950 . S
H1537 C1566 0.950 . S
H1538 C1568 0.950 . S
H1539 C1569 0.950 . S
C1540 H1522 0.951 . S
C1540 C1541 1.366 . S
C1540 C1542 1.388 . S
C1541 C1540 1.366 . S
C1541 C1545 1.385 . S
C1542 H1523 0.951 . S
C1542 C1540 1.388 . S
C1542 C1543 1.366 . S
C1543 C1542 1.366 . S
C1543 C1544 1.414 . S
C1543 C1546 1.499 . S
C1544 H1524 0.950 . S
C1544 C1543 1.414 . S
C1544 C1545 1.374 . S
C1545 H1525 0.950 . S
C1545 C1541 1.385 . S
C1545 C1544 1.374 . S
C1546 C1543 1.499 . S
C1546 C1547 1.373 . S
C1546 C1548 1.389 . S
C1547 H1526 0.950 . S
C1547 C1546 1.373 . S
C1547 C1563 1.377 . S
C1548 C1546 1.389 . S
C1548 C1549 1.524 . S
C1548 C1562 1.377 . S
C1549 C1548 1.524 . S
C1549 C1550 1.397 . S
C1549 C1554 1.363 . S
C1550 H1527 0.950 . S
C1550 C1549 1.397 . S
C1550 C1551 1.334 . S
C1551 H1528 0.950 . S
C1551 C1550 1.334 . S
C1551 C1552 1.287 . S
C1552 C1551 1.287 . S
C1552 C1553 1.524 . S
C1552 H1571 0.913 . S
C1553 H1529 0.950 . S
C1553 C1552 1.524 . S
C1553 C1554 1.415 . S
C1554 H1530 0.950 . S
C1554 C1549 1.363 . S
C1554 C1553 1.415 . S
C1555 H1531 0.951 . S
C1555 C1556 1.366 . S
C1555 C1557 1.388 . S
C1556 C1555 1.366 . S
C1556 C1560 1.385 . S
C1557 H1532 0.951 . S
C1557 C1555 1.388 . S
C1557 C1558 1.366 . S
C1558 C1557 1.366 . S
C1558 C1559 1.414 . S
C1558 C1561 1.499 . S
C1559 H1533 0.950 . S
C1559 C1558 1.414 . S
C1559 C1560 1.374 . S
C1560 H1534 0.950 . S
C1560 C1556 1.385 . S
C1560 C1559 1.374 . S
C1561 C1558 1.499 . S
C1561 C1562 1.373 . S
C1561 C1563 1.389 . S
C1562 H1535 0.950 . S
C1562 C1548 1.377 . S
C1562 C1561 1.373 . S
C1563 C1547 1.377 . S
C1563 C1561 1.389 . S
C1563 C1564 1.524 . S
C1564 C1563 1.524 . S
C1564 C1565 1.397 . S
C1564 C1569 1.363 . S
C1565 H1536 0.950 . S
C1565 C1564 1.397 . S
C1565 C1566 1.334 . S
C1566 H1537 0.950 . S
C1566 C1565 1.334 . S
C1566 C1567 1.287 . S
C1567 C1566 1.287 . S
C1567 C1568 1.524 . S
C1567 H1570 0.999 . S
C1568 H1538 0.950 . S
C1568 C1567 1.524 . S
C1568 C1569 1.415 . S
C1569 H1539 0.950 . S
C1569 C1564 1.363 . S
C1569 C1568 1.415 . S
H1570 C1567 0.999 . S
H1571 C1552 0.913 . S
H1572 C1590 0.951 . S
H1573 C1592 0.951 . S
H1574 C1594 0.950 . S
H1575 C1595 0.950 . S
H1576 C1597 0.950 . S
H1577 C1600 0.950 1_545 S
H1578 C1601 0.950 . S
H1579 C1603 0.950 . S
H1580 C1604 0.950 . S
H1581 C1605 0.951 . S
H1582 C1607 0.951 . S
H1583 C1609 0.950 . S
H1584 C1610 0.950 . S
H1585 C1612 0.950 . S
H1586 C1615 0.950 1_565 S
H1587 C1616 0.950 . S
H1588 C1618 0.950 . S
H1589 C1619 0.950 . S
C1590 H1572 0.951 . S
C1590 C1591 1.366 . S
C1590 C1592 1.388 . S
C1591 C1590 1.366 . S
C1591 C1595 1.385 1_565 S
C1592 H1573 0.951 . S
C1592 C1590 1.388 . S
C1592 C1593 1.366 . S
C1593 C1592 1.366 . S
C1593 C1594 1.414 1_565 S
C1593 C1596 1.500 . S
C1594 H1574 0.950 . S
C1594 C1593 1.414 1_545 S
C1594 C1595 1.374 . S
C1595 H1575 0.950 . S
C1595 C1591 1.385 1_545 S
C1595 C1594 1.374 . S
C1596 C1593 1.500 . S
C1596 C1597 1.368 1_565 S
C1596 C1598 1.395 . S
C1597 H1576 0.950 . S
C1597 C1596 1.368 1_545 S
C1597 C1613 1.377 . S
C1598 C1596 1.395 . S
C1598 C1599 1.524 . S
C1598 C1612 1.377 . S
C1599 C1598 1.524 . S
C1599 C1600 1.397 . S
C1599 C1604 1.363 . S
C1600 H1577 0.950 1_565 S
C1600 C1599 1.397 . S
C1600 C1601 1.334 . S
C1601 H1578 0.950 . S
C1601 C1600 1.334 . S
C1601 C1602 1.287 . S
C1602 C1601 1.287 . S
C1602 C1603 1.524 . S
C1602 H1621 0.913 . S
C1603 H1579 0.950 . S
C1603 C1602 1.524 . S
C1603 C1604 1.415 . S
C1604 H1580 0.950 . S
C1604 C1599 1.363 . S
C1604 C1603 1.415 . S
C1605 H1581 0.951 . S
C1605 C1606 1.366 . S
C1605 C1607 1.388 . S
C1606 C1605 1.366 . S
C1606 C1610 1.385 1_545 S
C1607 H1582 0.951 . S
C1607 C1605 1.388 . S
C1607 C1608 1.366 . S
C1608 C1607 1.366 . S
C1608 C1609 1.414 1_545 S
C1608 C1611 1.501 . S
C1609 H1583 0.950 . S
C1609 C1608 1.414 1_565 S
C1609 C1610 1.374 . S
C1610 H1584 0.950 . S
C1610 C1606 1.385 1_565 S
C1610 C1609 1.374 . S
C1611 C1608 1.501 . S
C1611 C1612 1.363 1_545 S
C1611 C1613 1.399 . S
C1612 H1585 0.950 . S
C1612 C1598 1.377 . S
C1612 C1611 1.363 1_565 S
C1613 C1597 1.377 . S
C1613 C1611 1.399 . S
C1613 C1614 1.524 . S
C1614 C1613 1.524 . S
C1614 C1615 1.397 . S
C1614 C1619 1.363 . S
C1615 H1586 0.950 1_545 S
C1615 C1614 1.397 . S
C1615 C1616 1.334 . S
C1616 H1587 0.950 . S
C1616 C1615 1.334 . S
C1616 C1617 1.287 . S
C1617 C1616 1.287 . S
C1617 C1618 1.524 . S
C1617 H1620 0.999 . S
C1618 H1588 0.950 . S
C1618 C1617 1.524 . S
C1618 C1619 1.415 . S
C1619 H1589 0.950 . S
C1619 C1614 1.363 . S
C1619 C1618 1.415 . S
H1620 C1617 0.999 . S
H1621 C1602 0.913 . S
H1622 C1640 0.951 . S
H1623 C1642 0.951 . S
H1624 C1644 0.950 . S
H1625 C1645 0.950 . S
H1626 C1647 0.950 . S
H1627 C1650 0.950 . S
H1628 C1651 0.950 . S
H1629 C1653 0.950 . S
H1630 C1654 0.950 . S
H1631 C1655 0.951 . S
H1632 C1657 0.951 . S
H1633 C1659 0.950 . S
H1634 C1660 0.950 . S
H1635 C1662 0.950 . S
H1636 C1665 0.950 . S
H1637 C1666 0.950 . S
H1638 C1668 0.950 . S
H1639 C1669 0.950 . S
C1640 H1622 0.951 . S
C1640 C1641 1.366 . S
C1640 C1642 1.388 . S
C1641 C1640 1.366 . S
C1641 C1645 1.385 . S
C1642 H1623 0.951 . S
C1642 C1640 1.388 . S
C1642 C1643 1.366 . S
C1643 C1642 1.366 . S
C1643 C1644 1.414 . S
C1643 C1646 1.499 . S
C1644 H1624 0.950 . S
C1644 C1643 1.414 . S
C1644 C1645 1.374 . S
C1645 H1625 0.950 . S
C1645 C1641 1.385 . S
C1645 C1644 1.374 . S
C1646 C1643 1.499 . S
C1646 C1647 1.373 . S
C1646 C1648 1.389 . S
C1647 H1626 0.950 . S
C1647 C1646 1.373 . S
C1647 C1663 1.377 . S
C1648 C1646 1.389 . S
C1648 C1649 1.524 . S
C1648 C1662 1.377 . S
C1649 C1648 1.524 . S
C1649 C1650 1.397 . S
C1649 C1654 1.363 . S
C1650 H1627 0.950 . S
C1650 C1649 1.397 . S
C1650 C1651 1.334 . S
C1651 H1628 0.950 . S
C1651 C1650 1.334 . S
C1651 C1652 1.287 . S
C1652 C1651 1.287 . S
C1652 C1653 1.524 . S
C1652 H1671 0.913 . S
C1653 H1629 0.950 . S
C1653 C1652 1.524 . S
C1653 C1654 1.415 . S
C1654 H1630 0.950 . S
C1654 C1649 1.363 . S
C1654 C1653 1.415 . S
C1655 H1631 0.951 . S
C1655 C1656 1.366 . S
C1655 C1657 1.388 . S
C1656 C1655 1.366 . S
C1656 C1660 1.385 . S
C1657 H1632 0.951 . S
C1657 C1655 1.388 . S
C1657 C1658 1.366 . S
C1658 C1657 1.366 . S
C1658 C1659 1.414 . S
C1658 C1661 1.499 . S
C1659 H1633 0.950 . S
C1659 C1658 1.414 . S
C1659 C1660 1.374 . S
C1660 H1634 0.950 . S
C1660 C1656 1.385 . S
C1660 C1659 1.374 . S
C1661 C1658 1.499 . S
C1661 C1662 1.373 . S
C1661 C1663 1.389 . S
C1662 H1635 0.950 . S
C1662 C1648 1.377 . S
C1662 C1661 1.373 . S
C1663 C1647 1.377 . S
C1663 C1661 1.389 . S
C1663 C1664 1.524 . S
C1664 C1663 1.524 . S
C1664 C1665 1.397 . S
C1664 C1669 1.363 . S
C1665 H1636 0.950 . S
C1665 C1664 1.397 . S
C1665 C1666 1.334 . S
C1666 H1637 0.950 . S
C1666 C1665 1.334 . S
C1666 C1667 1.287 . S
C1667 C1666 1.287 . S
C1667 C1668 1.524 . S
C1667 H1670 0.999 . S
C1668 H1638 0.950 . S
C1668 C1667 1.524 . S
C1668 C1669 1.415 . S
C1669 H1639 0.950 . S
C1669 C1664 1.363 . S
C1669 C1668 1.415 . S
H1670 C1667 0.999 . S
H1671 C1652 0.913 . S
H1672 C1690 0.951 . S
H1673 C1692 0.951 . S
H1674 C1694 0.950 . S
H1675 C1695 0.950 . S
H1676 C1697 0.950 . S
H1677 C1700 0.950 . S
H1678 C1701 0.950 . S
H1679 C1703 0.950 . S
H1680 C1704 0.950 . S
H1681 C1705 0.951 . S
H1682 C1707 0.951 . S
H1683 C1709 0.950 . S
H1684 C1710 0.950 . S
H1685 C1712 0.950 . S
H1686 C1715 0.950 . S
H1687 C1716 0.950 . S
H1688 C1718 0.950 . S
H1689 C1719 0.950 . S
C1690 H1672 0.951 . S
C1690 C1691 1.366 . S
C1690 C1692 1.388 . S
C1691 C1690 1.366 . S
C1691 C1695 1.385 . S
C1692 H1673 0.951 . S
C1692 C1690 1.388 . S
C1692 C1693 1.366 . S
C1693 C1692 1.366 . S
C1693 C1694 1.414 . S
C1693 C1696 1.499 . S
C1694 H1674 0.950 . S
C1694 C1693 1.414 . S
C1694 C1695 1.374 . S
C1695 H1675 0.950 . S
C1695 C1691 1.385 . S
C1695 C1694 1.374 . S
C1696 C1693 1.499 . S
C1696 C1697 1.373 . S
C1696 C1698 1.389 . S
C1697 H1676 0.950 . S
C1697 C1696 1.373 . S
C1697 C1713 1.377 . S
C1698 C1696 1.389 . S
C1698 C1699 1.524 . S
C1698 C1712 1.377 . S
C1699 C1698 1.524 . S
C1699 C1700 1.397 . S
C1699 C1704 1.363 . S
C1700 H1677 0.950 . S
C1700 C1699 1.397 . S
C1700 C1701 1.334 . S
C1701 H1678 0.950 . S
C1701 C1700 1.334 . S
C1701 C1702 1.287 . S
C1702 C1701 1.287 . S
C1702 C1703 1.524 . S
C1702 H1721 0.913 . S
C1703 H1679 0.950 . S
C1703 C1702 1.524 . S
C1703 C1704 1.415 . S
C1704 H1680 0.950 . S
C1704 C1699 1.363 . S
C1704 C1703 1.415 . S
C1705 H1681 0.951 . S
C1705 C1706 1.366 . S
C1705 C1707 1.388 . S
C1706 C1705 1.366 . S
C1706 C1710 1.385 . S
C1707 H1682 0.951 . S
C1707 C1705 1.388 . S
C1707 C1708 1.366 . S
C1708 C1707 1.366 . S
C1708 C1709 1.414 . S
C1708 C1711 1.499 . S
C1709 H1683 0.950 . S
C1709 C1708 1.414 . S
C1709 C1710 1.374 . S
C1710 H1684 0.950 . S
C1710 C1706 1.385 . S
C1710 C1709 1.374 . S
C1711 C1708 1.499 . S
C1711 C1712 1.373 . S
C1711 C1713 1.389 . S
C1712 H1685 0.950 . S
C1712 C1698 1.377 . S
C1712 C1711 1.373 . S
C1713 C1697 1.377 . S
C1713 C1711 1.389 . S
C1713 C1714 1.524 . S
C1714 C1713 1.524 . S
C1714 C1715 1.397 . S
C1714 C1719 1.363 . S
C1715 H1686 0.950 . S
C1715 C1714 1.397 . S
C1715 C1716 1.334 . S
C1716 H1687 0.950 . S
C1716 C1715 1.334 . S
C1716 C1717 1.287 . S
C1717 C1716 1.287 . S
C1717 C1718 1.524 . S
C1717 H1720 0.999 . S
C1718 H1688 0.950 . S
C1718 C1717 1.524 . S
C1718 C1719 1.415 . S
C1719 H1689 0.950 . S
C1719 C1714 1.363 . S
C1719 C1718 1.415 . S
H1720 C1717 0.999 . S
H1721 C1702 0.913 . S
H1722 C1740 0.951 . S
H1723 C1742 0.951 . S
H1724 C1744 0.950 . S
H1725 C1745 0.950 . S
H1726 C1747 0.950 . S
H1727 C1750 0.950 . S
H1728 C1751 0.950 . S
H1729 C1753 0.950 . S
H1730 C1754 0.950 . S
H1731 C1755 0.951 . S
H1732 C1757 0.951 . S
H1733 C1759 0.950 . S
H1734 C1760 0.950 . S
H1735 C1762 0.950 . S
H1736 C1765 0.950 . S
H1737 C1766 0.950 . S
H1738 C1768 0.950 . S
H1739 C1769 0.950 . S
C1740 H1722 0.951 . S
C1740 C1741 1.366 . S
C1740 C1742 1.388 . S
C1741 C1740 1.366 . S
C1741 C1745 1.385 . S
C1742 H1723 0.951 . S
C1742 C1740 1.388 . S
C1742 C1743 1.366 . S
C1743 C1742 1.366 . S
C1743 C1744 1.414 . S
C1743 C1746 1.499 . S
C1744 H1724 0.950 . S
C1744 C1743 1.414 . S
C1744 C1745 1.374 . S
C1745 H1725 0.950 . S
C1745 C1741 1.385 . S
C1745 C1744 1.374 . S
C1746 C1743 1.499 . S
C1746 C1747 1.373 . S
C1746 C1748 1.389 . S
C1747 H1726 0.950 . S
C1747 C1746 1.373 . S
C1747 C1763 1.377 . S
C1748 C1746 1.389 . S
C1748 C1749 1.524 . S
C1748 C1762 1.377 . S
C1749 C1748 1.524 . S
C1749 C1750 1.397 . S
C1749 C1754 1.363 . S
C1750 H1727 0.950 . S
C1750 C1749 1.397 . S
C1750 C1751 1.334 . S
C1751 H1728 0.950 . S
C1751 C1750 1.334 . S
C1751 C1752 1.287 . S
C1752 C1751 1.287 . S
C1752 C1753 1.524 . S
C1752 H1771 0.913 . S
C1753 H1729 0.950 . S
C1753 C1752 1.524 . S
C1753 C1754 1.415 . S
C1754 H1730 0.950 . S
C1754 C1749 1.363 . S
C1754 C1753 1.415 . S
C1755 H1731 0.951 . S
C1755 C1756 1.366 . S
C1755 C1757 1.388 . S
C1756 C1755 1.366 . S
C1756 C1760 1.385 . S
C1757 H1732 0.951 . S
C1757 C1755 1.388 . S
C1757 C1758 1.366 . S
C1758 C1757 1.366 . S
C1758 C1759 1.414 . S
C1758 C1761 1.499 . S
C1759 H1733 0.950 . S
C1759 C1758 1.414 . S
C1759 C1760 1.374 . S
C1760 H1734 0.950 . S
C1760 C1756 1.385 . S
C1760 C1759 1.374 . S
C1761 C1758 1.499 . S
C1761 C1762 1.373 . S
C1761 C1763 1.389 . S
C1762 H1735 0.950 . S
C1762 C1748 1.377 . S
C1762 C1761 1.373 . S
C1763 C1747 1.377 . S
C1763 C1761 1.389 . S
C1763 C1764 1.524 . S
C1764 C1763 1.524 . S
C1764 C1765 1.397 . S
C1764 C1769 1.363 . S
C1765 H1736 0.950 . S
C1765 C1764 1.397 . S
C1765 C1766 1.334 . S
C1766 H1737 0.950 . S
C1766 C1765 1.334 . S
C1766 C1767 1.287 . S
C1767 C1766 1.287 . S
C1767 C1768 1.524 . S
C1767 H1770 0.999 . S
C1768 H1738 0.950 . S
C1768 C1767 1.524 . S
C1768 C1769 1.415 . S
C1769 H1739 0.950 . S
C1769 C1764 1.363 . S
C1769 C1768 1.415 . S
H1770 C1767 0.999 . S
H1771 C1752 0.913 . S
H1772 C1790 0.951 . S
H1773 C1792 0.951 . S
H1774 C1794 0.950 . S
H1775 C1795 0.950 . S
H1776 C1797 0.950 . S
H1777 C1800 0.950 . S
H1778 C1801 0.950 . S
H1779 C1803 0.950 . S
H1780 C1804 0.950 . S
H1781 C1805 0.951 . S
H1782 C1807 0.951 . S
H1783 C1809 0.950 . S
H1784 C1810 0.950 . S
H1785 C1812 0.950 . S
H1786 C1815 0.950 . S
H1787 C1816 0.950 . S
H1788 C1818 0.950 . S
H1789 C1819 0.950 . S
C1790 H1772 0.951 . S
C1790 C1791 1.366 . S
C1790 C1792 1.388 . S
C1791 C1790 1.366 . S
C1791 C1795 1.385 . S
C1792 H1773 0.951 . S
C1792 C1790 1.388 . S
C1792 C1793 1.366 . S
C1793 C1792 1.366 . S
C1793 C1794 1.414 . S
C1793 C1796 1.499 . S
C1794 H1774 0.950 . S
C1794 C1793 1.414 . S
C1794 C1795 1.374 . S
C1795 H1775 0.950 . S
C1795 C1791 1.385 . S
C1795 C1794 1.374 . S
C1796 C1793 1.499 . S
C1796 C1797 1.373 . S
C1796 C1798 1.389 . S
C1797 H1776 0.950 . S
C1797 C1796 1.373 . S
C1797 C1813 1.377 . S
C1798 C1796 1.389 . S
C1798 C1799 1.524 . S
C1798 C1812 1.377 . S
C1799 C1798 1.524 . S
C1799 C1800 1.397 . S
C1799 C1804 1.363 . S
C1800 H1777 0.950 . S
C1800 C1799 1.397 . S
C1800 C1801 1.334 . S
C1801 H1778 0.950 . S
C1801 C1800 1.334 . S
C1801 C1802 1.287 . S
C1802 C1801 1.287 . S
C1802 C1803 1.524 . S
C1802 H1821 0.913 . S
C1803 H1779 0.950 . S
C1803 C1802 1.524 . S
C1803 C1804 1.415 . S
C1804 H1780 0.950 . S
C1804 C1799 1.363 . S
C1804 C1803 1.415 . S
C1805 H1781 0.951 . S
C1805 C1806 1.366 . S
C1805 C1807 1.388 . S
C1806 C1805 1.366 . S
C1806 C1810 1.385 . S
C1807 H1782 0.951 . S
C1807 C1805 1.388 . S
C1807 C1808 1.366 . S
C1808 C1807 1.366 . S
C1808 C1809 1.414 . S
C1808 C1811 1.499 . S
C1809 H1783 0.950 . S
C1809 C1808 1.414 . S
C1809 C1810 1.374 . S
C1810 H1784 0.950 . S
C1810 C1806 1.385 . S
C1810 C1809 1.374 . S
C1811 C1808 1.499 . S
C1811 C1812 1.373 . S
C1811 C1813 1.389 . S
C1812 H1785 0.950 . S
C1812 C1798 1.377 . S
C1812 C1811 1.373 . S
C1813 C1797 1.377 . S
C1813 C1811 1.389 . S
C1813 C1814 1.524 . S
C1814 C1813 1.524 . S
C1814 C1815 1.397 . S
C1814 C1819 1.363 . S
C1815 H1786 0.950 . S
C1815 C1814 1.397 . S
C1815 C1816 1.334 . S
C1816 H1787 0.950 . S
C1816 C1815 1.334 . S
C1816 C1817 1.287 . S
C1817 C1816 1.287 . S
C1817 C1818 1.524 . S
C1817 H1820 0.999 . S
C1818 H1788 0.950 . S
C1818 C1817 1.524 . S
C1818 C1819 1.415 . S
C1819 H1789 0.950 . S
C1819 C1814 1.363 . S
C1819 C1818 1.415 . S
H1820 C1817 0.999 . S
H1821 C1802 0.913 . S
H1822 C1840 0.951 . S
H1823 C1842 0.951 . S
H1824 C1844 0.950 . S
H1825 C1845 0.950 . S
H1826 C1847 0.950 . S
H1827 C1850 0.950 1_455 S
H1828 C1851 0.950 1_455 S
H1829 C1853 0.950 . S
H1830 C1854 0.950 . S
H1831 C1855 0.951 . S
H1832 C1857 0.951 . S
H1833 C1859 0.950 . S
H1834 C1860 0.950 . S
H1835 C1862 0.950 . S
H1836 C1865 0.950 1_655 S
H1837 C1866 0.950 1_655 S
H1838 C1868 0.950 . S
H1839 C1869 0.950 . S
C1840 H1822 0.951 . S
C1840 C1841 1.366 . S
C1840 C1842 1.388 . S
C1841 C1840 1.366 . S
C1841 C1845 1.385 1_655 S
C1842 H1823 0.951 . S
C1842 C1840 1.388 . S
C1842 C1843 1.404 . S
C1843 C1842 1.404 . S
C1843 C1844 1.377 1_655 S
C1843 C1846 1.497 1_655 S
C1844 H1824 0.950 . S
C1844 C1843 1.377 1_455 S
C1844 C1845 1.374 . S
C1845 H1825 0.950 . S
C1845 C1841 1.385 1_455 S
C1845 C1844 1.374 . S
C1846 C1843 1.497 1_455 S
C1846 C1847 1.383 . S
C1846 C1848 1.380 1_455 S
C1847 H1826 0.950 . S
C1847 C1846 1.383 . S
C1847 C1863 1.377 1_556 S
C1848 C1846 1.380 1_655 S
C1848 C1849 1.524 . S
C1848 C1862 1.377 1_556 S
C1849 C1848 1.524 . S
C1849 C1850 1.397 . S
C1849 C1854 1.363 . S
C1850 H1827 0.950 1_655 S
C1850 C1849 1.397 . S
C1850 C1851 1.334 . S
C1851 H1828 0.950 1_655 S
C1851 C1850 1.334 . S
C1851 C1852 1.287 . S
C1852 C1851 1.287 . S
C1852 C1853 1.524 . S
C1852 H1871 0.913 . S
C1853 H1829 0.950 . S
C1853 C1852 1.524 . S
C1853 C1854 1.415 . S
C1854 H1830 0.950 . S
C1854 C1849 1.363 . S
C1854 C1853 1.415 . S
C1855 H1831 0.951 . S
C1855 C1856 1.366 . S
C1855 C1857 1.388 . S
C1856 C1855 1.366 . S
C1856 C1860 1.385 1_455 S
C1857 H1832 0.951 . S
C1857 C1855 1.388 . S
C1857 C1858 1.366 . S
C1858 C1857 1.366 . S
C1858 C1859 1.414 1_455 S
C1858 C1861 1.498 1_455 S
C1859 H1833 0.950 . S
C1859 C1858 1.414 1_655 S
C1859 C1860 1.374 . S
C1860 H1834 0.950 . S
C1860 C1856 1.385 1_655 S
C1860 C1859 1.374 . S
C1861 C1858 1.498 1_655 S
C1861 C1862 1.379 . S
C1861 C1863 1.383 1_655 S
C1862 H1835 0.950 . S
C1862 C1848 1.377 1_554 S
C1862 C1861 1.379 . S
C1863 C1847 1.377 1_554 S
C1863 C1861 1.383 1_455 S
C1863 C1864 1.524 . S
C1864 C1863 1.524 . S
C1864 C1865 1.397 . S
C1864 C1869 1.363 . S
C1865 H1836 0.950 1_455 S
C1865 C1864 1.397 . S
C1865 C1866 1.334 . S
C1866 H1837 0.950 1_455 S
C1866 C1865 1.334 . S
C1866 C1867 1.287 . S
C1867 C1866 1.287 . S
C1867 C1868 1.524 . S
C1867 H1870 0.999 . S
C1868 H1838 0.950 . S
C1868 C1867 1.524 . S
C1868 C1869 1.415 . S
C1869 H1839 0.950 . S
C1869 C1864 1.363 . S
C1869 C1868 1.415 . S
H1870 C1867 0.999 . S
H1871 C1852 0.913 . S
C691 C56 1.619 . S
C706 C308 1.612 . S
C741 C74 1.472 . S
C756 C140 1.456 . S
C791 C158 1.309 . S
C806 C242 1.314 . S
C841 C224 1.458 . S
C856 C326 1.468 . S
C891 C67 1.619 . S
C906 C487 1.626 . S
C941 C63 1.472 . S
C956 C403 1.459 . S
C991 C399 1.309 . S
C1006 C231 1.304 . S
C1041 C483 1.472 . S
C1056 C235 1.463 . S
C1091 C560 1.619 . S
C1106 C476 1.620 . S
C1141 C392 1.459 . S
C1156 C578 1.470 . S
C1191 C662 1.309 . S
C1206 C410 1.313 . S
C1241 C494 1.472 . S
C1256 C644 1.461 . S
C1291 C319 1.619 . S
C1306 C571 1.618 . S
C1341 C567 1.472 . S
C1356 C151 1.458 . S
C1391 C147 1.310 . S
C1406 C651 1.307 . S
C1441 C315 1.471 . S
C1456 C655 1.456 . S
C1491 C70 1.539 1_565 S
C1506 C58 1.539 1_545 S
C1541 C142 1.535 . S
C1556 C154 1.535 . S
C1591 C238 1.536 1_565 S
C1606 C226 1.536 1_545 S
C1641 C322 1.538 . S
C1656 C310 1.538 . S
C1691 C394 1.536 . S
C1706 C406 1.536 . S
C1741 C490 1.539 . S
C1756 C478 1.539 . S
C1791 C562 1.538 . S
C1806 C574 1.538 . S
C1841 C646 1.535 . S
C1856 C658 1.535 . S
