# Generated by pormake.
# Topology fcj, (5)-cn, num edge types: 1
# Building blocks:
#     Node 0, Type 0, BuildingBlock: BEQFEK_clean_sbu_0, # of connection points: 5
#     Node 1, Type 0, BuildingBlock: BEQFEK_clean_sbu_0, # of connection points: 5
#     Node 2, Type 0, BuildingBlock: BEQFEK_clean_sbu_0, # of connection points: 5
#     Node 3, Type 0, BuildingBlock: BEQFEK_clean_sbu_0, # of connection points: 5
#     Node 4, Type 0, BuildingBlock: BEQFEK_clean_sbu_0, # of connection points: 5
#     Node 5, Type 0, BuildingBlock: BEQFEK_clean_sbu_0, # of connection points: 5
#     Node 6, Type 0, BuildingBlock: BEQFEK_clean_sbu_0, # of connection points: 5
#     Node 7, Type 0, BuildingBlock: BEQFEK_clean_sbu_0, # of connection points: 5
#     Node 8, Type 0, BuildingBlock: BEQFEK_clean_sbu_0, # of connection points: 5
#     Node 9, Type 0, BuildingBlock: BEQFEK_clean_sbu_0, # of connection points: 5
#     Node 10, Type 0, BuildingBlock: BEQFEK_clean_sbu_0, # of connection points: 5
#     Node 11, Type 0, BuildingBlock: BEQFEK_clean_sbu_0, # of connection points: 5
#     Node 12, Type 0, BuildingBlock: BEQFEK_clean_sbu_0, # of connection points: 5
#     Node 13, Type 0, BuildingBlock: BEQFEK_clean_sbu_0, # of connection points: 5
#     Node 14, Type 0, BuildingBlock: BEQFEK_clean_sbu_0, # of connection points: 5
#     Node 15, Type 0, BuildingBlock: BEQFEK_clean_sbu_0, # of connection points: 5
#     Node 16, Type 0, BuildingBlock: BEQFEK_clean_sbu_0, # of connection points: 5
#     Node 17, Type 0, BuildingBlock: BEQFEK_clean_sbu_0, # of connection points: 5
#     Node 18, Type 0, BuildingBlock: BEQFEK_clean_sbu_0, # of connection points: 5
#     Node 19, Type 0, BuildingBlock: BEQFEK_clean_sbu_0, # of connection points: 5
#     Node 20, Type 0, BuildingBlock: BEQFEK_clean_sbu_0, # of connection points: 5
#     Node 21, Type 0, BuildingBlock: BEQFEK_clean_sbu_0, # of connection points: 5
#     Node 22, Type 0, BuildingBlock: BEQFEK_clean_sbu_0, # of connection points: 5
#     Node 23, Type 0, BuildingBlock: BEQFEK_clean_sbu_0, # of connection points: 5
#     Edge 24, Type (0, 0), BuildingBlock: UVAHIK_clean_linker_0, # of connection points: 2
#     Edge 25, Type (0, 0), BuildingBlock: UVAHIK_clean_linker_0, # of connection points: 2
#     Edge 26, Type (0, 0), BuildingBlock: UVAHIK_clean_linker_0, # of connection points: 2
#     Edge 27, Type (0, 0), BuildingBlock: UVAHIK_clean_linker_0, # of connection points: 2
#     Edge 28, Type (0, 0), BuildingBlock: UVAHIK_clean_linker_0, # of connection points: 2
#     Edge 29, Type (0, 0), BuildingBlock: UVAHIK_clean_linker_0, # of connection points: 2
#     Edge 30, Type (0, 0), BuildingBlock: UVAHIK_clean_linker_0, # of connection points: 2
#     Edge 31, Type (0, 0), BuildingBlock: UVAHIK_clean_linker_0, # of connection points: 2
#     Edge 32, Type (0, 0), BuildingBlock: UVAHIK_clean_linker_0, # of connection points: 2
#     Edge 33, Type (0, 0), BuildingBlock: UVAHIK_clean_linker_0, # of connection points: 2
#     Edge 34, Type (0, 0), BuildingBlock: UVAHIK_clean_linker_0, # of connection points: 2
#     Edge 35, Type (0, 0), BuildingBlock: UVAHIK_clean_linker_0, # of connection points: 2
#     Edge 36, Type (0, 0), BuildingBlock: UVAHIK_clean_linker_0, # of connection points: 2
#     Edge 37, Type (0, 0), BuildingBlock: UVAHIK_clean_linker_0, # of connection points: 2
#     Edge 38, Type (0, 0), BuildingBlock: UVAHIK_clean_linker_0, # of connection points: 2
#     Edge 39, Type (0, 0), BuildingBlock: UVAHIK_clean_linker_0, # of connection points: 2
#     Edge 40, Type (0, 0), BuildingBlock: UVAHIK_clean_linker_0, # of connection points: 2
#     Edge 41, Type (0, 0), BuildingBlock: UVAHIK_clean_linker_0, # of connection points: 2
#     Edge 42, Type (0, 0), BuildingBlock: UVAHIK_clean_linker_0, # of connection points: 2
#     Edge 43, Type (0, 0), BuildingBlock: UVAHIK_clean_linker_0, # of connection points: 2
#     Edge 44, Type (0, 0), BuildingBlock: UVAHIK_clean_linker_0, # of connection points: 2
#     Edge 45, Type (0, 0), BuildingBlock: UVAHIK_clean_linker_0, # of connection points: 2
#     Edge 46, Type (0, 0), BuildingBlock: UVAHIK_clean_linker_0, # of connection points: 2
#     Edge 47, Type (0, 0), BuildingBlock: UVAHIK_clean_linker_0, # of connection points: 2
#     Edge 48, Type (0, 0), BuildingBlock: UVAHIK_clean_linker_0, # of connection points: 2
#     Edge 49, Type (0, 0), BuildingBlock: UVAHIK_clean_linker_0, # of connection points: 2
#     Edge 50, Type (0, 0), BuildingBlock: UVAHIK_clean_linker_0, # of connection points: 2
#     Edge 51, Type (0, 0), BuildingBlock: UVAHIK_clean_linker_0, # of connection points: 2
#     Edge 52, Type (0, 0), BuildingBlock: UVAHIK_clean_linker_0, # of connection points: 2
#     Edge 53, Type (0, 0), BuildingBlock: UVAHIK_clean_linker_0, # of connection points: 2
#     Edge 54, Type (0, 0), BuildingBlock: UVAHIK_clean_linker_0, # of connection points: 2
#     Edge 55, Type (0, 0), BuildingBlock: UVAHIK_clean_linker_0, # of connection points: 2
#     Edge 56, Type (0, 0), BuildingBlock: UVAHIK_clean_linker_0, # of connection points: 2
#     Edge 57, Type (0, 0), BuildingBlock: UVAHIK_clean_linker_0, # of connection points: 2
#     Edge 58, Type (0, 0), BuildingBlock: UVAHIK_clean_linker_0, # of connection points: 2
#     Edge 59, Type (0, 0), BuildingBlock: UVAHIK_clean_linker_0, # of connection points: 2
#     Edge 60, Type (0, 0), BuildingBlock: UVAHIK_clean_linker_0, # of connection points: 2
#     Edge 61, Type (0, 0), BuildingBlock: UVAHIK_clean_linker_0, # of connection points: 2
#     Edge 62, Type (0, 0), BuildingBlock: UVAHIK_clean_linker_0, # of connection points: 2
#     Edge 63, Type (0, 0), BuildingBlock: UVAHIK_clean_linker_0, # of connection points: 2
#     Edge 64, Type (0, 0), BuildingBlock: UVAHIK_clean_linker_0, # of connection points: 2
#     Edge 65, Type (0, 0), BuildingBlock: UVAHIK_clean_linker_0, # of connection points: 2
#     Edge 66, Type (0, 0), BuildingBlock: UVAHIK_clean_linker_0, # of connection points: 2
#     Edge 67, Type (0, 0), BuildingBlock: UVAHIK_clean_linker_0, # of connection points: 2
#     Edge 68, Type (0, 0), BuildingBlock: UVAHIK_clean_linker_0, # of connection points: 2
#     Edge 69, Type (0, 0), BuildingBlock: UVAHIK_clean_linker_0, # of connection points: 2
#     Edge 70, Type (0, 0), BuildingBlock: UVAHIK_clean_linker_0, # of connection points: 2
#     Edge 71, Type (0, 0), BuildingBlock: UVAHIK_clean_linker_0, # of connection points: 2
#     Edge 72, Type (0, 0), BuildingBlock: UVAHIK_clean_linker_0, # of connection points: 2
#     Edge 73, Type (0, 0), BuildingBlock: UVAHIK_clean_linker_0, # of connection points: 2
#     Edge 74, Type (0, 0), BuildingBlock: UVAHIK_clean_linker_0, # of connection points: 2
#     Edge 75, Type (0, 0), BuildingBlock: UVAHIK_clean_linker_0, # of connection points: 2
#     Edge 76, Type (0, 0), BuildingBlock: UVAHIK_clean_linker_0, # of connection points: 2
#     Edge 77, Type (0, 0), BuildingBlock: UVAHIK_clean_linker_0, # of connection points: 2
#     Edge 78, Type (0, 0), BuildingBlock: UVAHIK_clean_linker_0, # of connection points: 2
#     Edge 79, Type (0, 0), BuildingBlock: UVAHIK_clean_linker_0, # of connection points: 2
#     Edge 80, Type (0, 0), BuildingBlock: UVAHIK_clean_linker_0, # of connection points: 2
#     Edge 81, Type (0, 0), BuildingBlock: UVAHIK_clean_linker_0, # of connection points: 2
#     Edge 82, Type (0, 0), BuildingBlock: UVAHIK_clean_linker_0, # of connection points: 2
#     Edge 83, Type (0, 0), BuildingBlock: UVAHIK_clean_linker_0, # of connection points: 2
# Relax obj value: 0.325
# Max RMSD: 0.216
# Mean RMSD: 0.216
data_MOF--net-fcj--node1-BEQFEK_clean_sbu_0--edge1-UVAHIK_clean_linker_0
_symmetry_space_group_name_H-M    P1
_symmetry_Int_Tables_number       1
_symmetry_cell_setting            triclinic
loop_
_symmetry_equiv_pos_as_xyz
'x, y, z'
_cell_length_a     65.234928
_cell_length_b     65.243851
_cell_length_c     65.233297
_cell_angle_alpha  89.977477
_cell_angle_beta   90.013773
_cell_angle_gamma 90.015699
loop_
_atom_site_label
_atom_site_type_symbol
_atom_site_fract_x
_atom_site_fract_y
_atom_site_fract_z
_atom_type_partial_charge
Co0 Co 0.09993 0.18114 0.33516 0.0
Co1 Co 0.06741 0.21297 0.35052 0.0
C2 C 0.05532 0.17202 0.3327 0.0
O3 O 0.07391 0.1665 0.33033 0.0
O4 O 0.05079 0.18946 0.34029 0.0
C5 C 0.12405 0.15164 0.31346 0.0
O6 O 0.1076 0.15012 0.30193 0.0
C7 C 0.03333 0.22795 0.37555 0.0
C8 C 0.03813 0.26146 0.37446 0.0
C9 C 0.0255 0.24643 0.3826 0.0
N10 N 0.04978 0.23193 0.36382 0.0
N11 N 0.05252 0.25198 0.36314 0.0
C12 C 0.02645 0.20676 0.38102 0.0
H13 H 0.03961 0.19599 0.38041 0.0
H14 H 0.01949 0.20646 0.39654 0.0
H15 H 0.01484 0.20161 0.36971 0.0
C16 C 0.11583 0.18739 0.37678 0.0
N17 N 0.10169 0.19083 0.36221 0.0
N18 N 0.08827 0.20427 0.36896 0.0
C19 C 0.09351 0.20981 0.38822 0.0
C20 C 0.11119 0.19934 0.39369 0.0
C21 C 0.13359 0.17308 0.37434 0.0
H22 H 0.14447 0.17957 0.36298 0.0
H23 H 0.12807 0.15815 0.36836 0.0
H24 H 0.14171 0.17051 0.38906 0.0
O25 O 0.10178 0.20403 0.31558 0.0
O26 O 0.07935 0.22719 0.32631 0.0
H27 H 0.08202 0.2403 0.39158 0.0
H28 H 0.0906 0.22879 0.4153 0.0
C29 C 0.08272 0.22586 0.40051 0.0
H30 H 0.0668 0.22079 0.4036 0.0
H31 H 0.06436 0.25917 0.35515 0.0
O32 O 0.12371 0.16342 0.32895 0.0
C33 C 0.09296 0.22131 0.31362 0.0
Co34 Co 0.56995 0.34835 0.08128 0.0
Co35 Co 0.53508 0.31944 0.09731 0.0
C36 C 0.57615 0.3034 0.08302 0.0
O37 O 0.58317 0.32132 0.07977 0.0
O38 O 0.55791 0.30065 0.08947 0.0
C39 C 0.60797 0.37309 0.07847 0.0
O40 O 0.61646 0.36132 0.09244 0.0
C41 C 0.51724 0.28704 0.12269 0.0
C42 C 0.48454 0.29584 0.12356 0.0
C43 C 0.49841 0.28146 0.13074 0.0
N44 N 0.51465 0.30399 0.11127 0.0
N45 N 0.49505 0.3091 0.11173 0.0
C46 C 0.53762 0.2775 0.12708 0.0
H47 H 0.54969 0.28947 0.12758 0.0
H48 H 0.53737 0.26903 0.14184 0.0
H49 H 0.54141 0.26659 0.11461 0.0
C50 C 0.56324 0.36752 0.12197 0.0
N51 N 0.55909 0.35321 0.10769 0.0
N52 N 0.54452 0.34104 0.11458 0.0
C53 C 0.53902 0.34725 0.13354 0.0
C54 C 0.55082 0.36407 0.13881 0.0
C55 C 0.57789 0.38494 0.11913 0.0
H56 H 0.57641 0.39126 0.10344 0.0
H57 H 0.59376 0.37926 0.12129 0.0
H58 H 0.57505 0.39736 0.13039 0.0
O59 O 0.54819 0.34945 0.06032 0.0
O60 O 0.52249 0.33036 0.07171 0.0
H61 H 0.50796 0.33827 0.13869 0.0
H62 H 0.52185 0.34449 0.16182 0.0
C63 C 0.52301 0.33719 0.14651 0.0
H64 H 0.52685 0.32076 0.1485 0.0
H65 H 0.48892 0.32183 0.10424 0.0
O66 O 0.58962 0.36982 0.0728 0.0
C67 C 0.53029 0.34202 0.05813 0.0
Co68 Co 0.39578 0.81578 0.8286 0.0
Co69 Co 0.42911 0.78607 0.84655 0.0
C70 C 0.44055 0.8264 0.82761 0.0
O71 O 0.42185 0.83065 0.82376 0.0
O72 O 0.44558 0.80975 0.83658 0.0
C73 C 0.36969 0.85217 0.82216 0.0
O74 O 0.38491 0.86366 0.82864 0.0
C75 C 0.46459 0.76769 0.86842 0.0
C76 C 0.45128 0.73779 0.87719 0.0
C77 C 0.46874 0.74971 0.87915 0.0
N78 N 0.44536 0.76654 0.86104 0.0
N79 N 0.43765 0.74851 0.86609 0.0
C80 C 0.47902 0.78482 0.86352 0.0
H81 H 0.47571 0.79805 0.87367 0.0
H82 H 0.49524 0.78011 0.86535 0.0
H83 H 0.47673 0.78969 0.84743 0.0
C84 C 0.37918 0.81139 0.87041 0.0
N85 N 0.39348 0.8073 0.85613 0.0
N86 N 0.40764 0.79535 0.8641 0.0
C87 C 0.40301 0.79195 0.88402 0.0
C88 C 0.38473 0.80179 0.8885 0.0
C89 C 0.36092 0.82484 0.86691 0.0
H90 H 0.352 0.81901 0.85365 0.0
H91 H 0.36625 0.84055 0.86323 0.0
H92 H 0.35084 0.82567 0.88056 0.0
O93 O 0.39437 0.79201 0.81016 0.0
O94 O 0.41822 0.77106 0.82226 0.0
H95 H 0.41253 0.76277 0.89528 0.0
H96 H 0.41139 0.78227 0.91463 0.0
C97 C 0.41549 0.7792 0.89843 0.0
H98 H 0.43203 0.78237 0.89617 0.0
H99 H 0.4229 0.74367 0.86221 0.0
O100 O 0.37192 0.83285 0.82117 0.0
C101 C 0.40433 0.7753 0.80922 0.0
Co102 Co 0.92107 0.64854 0.58333 0.0
Co103 Co 0.95667 0.67771 0.59696 0.0
C104 C 0.91722 0.69365 0.57873 0.0
O105 O 0.90945 0.67578 0.57742 0.0
O106 O 0.9352 0.6964 0.5859 0.0
C107 C 0.89355 0.62499 0.56016 0.0
O108 O 0.89959 0.63797 0.54599 0.0
C109 C 0.97556 0.71182 0.61891 0.0
C110 C 0.00824 0.70293 0.61919 0.0
C111 C 0.99478 0.71815 0.62541 0.0
N112 N 0.97759 0.69378 0.60924 0.0
N113 N 0.99716 0.68855 0.60941 0.0
C114 C 0.95536 0.72189 0.62296 0.0
H115 H 0.94311 0.71014 0.62422 0.0
H116 H 0.95593 0.73111 0.63724 0.0
H117 H 0.95156 0.73217 0.60996 0.0
C118 C 0.92631 0.6336 0.6255 0.0
N119 N 0.93087 0.64681 0.61038 0.0
N120 N 0.94578 0.65897 0.61641 0.0
C121 C 0.95114 0.65387 0.63574 0.0
C122 C 0.939 0.63759 0.64204 0.0
C123 C 0.91061 0.61696 0.62374 0.0
H124 H 0.9158 0.60559 0.61221 0.0
H125 H 0.89593 0.62358 0.6183 0.0
H126 H 0.90804 0.60912 0.63862 0.0
O127 O 0.9433 0.64333 0.56353 0.0
O128 O 0.9692 0.66301 0.57343 0.0
H129 H 0.98304 0.66071 0.63852 0.0
H130 H 0.9703 0.65638 0.66275 0.0
C131 C 0.96866 0.66317 0.64723 0.0
H132 H 0.96619 0.67992 0.64869 0.0
H133 H 0.00291 0.67512 0.60292 0.0
O134 O 0.9003 0.62707 0.57829 0.0
C135 C 0.96153 0.64988 0.5612 0.0
Co136 Co 0.59936 0.31522 0.66468 0.0
Co137 Co 0.56851 0.28211 0.64874 0.0
C138 C 0.55498 0.3242 0.66306 0.0
O139 O 0.57321 0.33033 0.66645 0.0
O140 O 0.55141 0.30614 0.65649 0.0
C141 C 0.6221 0.34808 0.68386 0.0
O142 O 0.60462 0.35258 0.6928 0.0
C143 C 0.53586 0.26726 0.62217 0.0
C144 C 0.53876 0.23365 0.62506 0.0
C145 C 0.52741 0.24891 0.61557 0.0
N146 N 0.55138 0.26303 0.63501 0.0
N147 N 0.55304 0.24292 0.63673 0.0
C148 C 0.5304 0.28847 0.61537 0.0
H149 H 0.54406 0.29859 0.61615 0.0
H150 H 0.52425 0.28835 0.5995 0.0
H151 H 0.51851 0.29475 0.62576 0.0
C152 C 0.61804 0.30714 0.6244 0.0
N153 N 0.60324 0.30394 0.63837 0.0
N154 N 0.59048 0.28995 0.63146 0.0
C155 C 0.5968 0.28377 0.61275 0.0
C156 C 0.61453 0.29441 0.60776 0.0
C157 C 0.63496 0.32245 0.62686 0.0
H158 H 0.64579 0.31692 0.63876 0.0
H159 H 0.6285 0.33727 0.6321 0.0
H160 H 0.64341 0.32493 0.61232 0.0
O161 O 0.59928 0.29358 0.6859 0.0
O162 O 0.57878 0.26903 0.67428 0.0
H163 H 0.58475 0.2534 0.61014 0.0
H164 H 0.59593 0.26316 0.58673 0.0
C165 C 0.58676 0.26722 0.60046 0.0
H166 H 0.57137 0.27248 0.59551 0.0
H167 H 0.56397 0.23554 0.64578 0.0
O168 O 0.62281 0.33326 0.67128 0.0
C169 C 0.59081 0.27612 0.68794 0.0
Co170 Co 0.4336 0.84885 0.41669 0.0
Co171 Co 0.46514 0.81736 0.39897 0.0
C172 C 0.42324 0.80485 0.41487 0.0
O173 O 0.41772 0.82323 0.41852 0.0
O174 O 0.44095 0.80079 0.40764 0.0
C175 C 0.39822 0.87641 0.42383 0.0
O176 O 0.38608 0.86269 0.41547 0.0
C177 C 0.47906 0.78406 0.37239 0.0
C178 C 0.51267 0.78826 0.37302 0.0
C179 C 0.49728 0.77604 0.36492 0.0
N180 N 0.48353 0.80019 0.38438 0.0
N181 N 0.50363 0.80261 0.38472 0.0
C182 C 0.45769 0.77752 0.36727 0.0
H183 H 0.44719 0.79089 0.36778 0.0
H184 H 0.45707 0.77033 0.35187 0.0
H185 H 0.45243 0.76618 0.37882 0.0
C186 C 0.44093 0.86824 0.37648 0.0
N187 N 0.44408 0.85306 0.39005 0.0
N188 N 0.45726 0.83989 0.38235 0.0
C189 C 0.46284 0.84627 0.36347 0.0
C190 C 0.45276 0.86451 0.35924 0.0
C191 C 0.42632 0.88562 0.37976 0.0
H192 H 0.43132 0.89473 0.39322 0.0
H193 H 0.41088 0.87934 0.38304 0.0
H194 H 0.42524 0.89577 0.36617 0.0
O195 O 0.45593 0.84737 0.43696 0.0
O196 O 0.47965 0.82674 0.42408 0.0
H197 H 0.49288 0.83418 0.35864 0.0
H198 H 0.48096 0.84417 0.33571 0.0
C199 C 0.47821 0.83566 0.35019 0.0
H200 H 0.47263 0.82003 0.34653 0.0
H201 H 0.51116 0.81411 0.3929 0.0
O202 O 0.41731 0.87286 0.42528 0.0
C203 C 0.47325 0.83852 0.43824 0.0
Co204 Co 0.9016 0.68074 0.16285 0.0
Co205 Co 0.93316 0.71315 0.14671 0.0
C206 C 0.94642 0.67367 0.16687 0.0
O207 O 0.92806 0.6675 0.16953 0.0
O208 O 0.95024 0.69082 0.15831 0.0
C209 C 0.87703 0.65022 0.18394 0.0
O210 O 0.89243 0.64906 0.19687 0.0
C211 C 0.96749 0.72753 0.12191 0.0
C212 C 0.96226 0.76098 0.12115 0.0
C213 C 0.97533 0.74574 0.11419 0.0
N214 N 0.95065 0.73187 0.13292 0.0
N215 N 0.94762 0.75188 0.13248 0.0
C216 C 0.97472 0.70619 0.11766 0.0
H217 H 0.96168 0.69529 0.11848 0.0
H218 H 0.98205 0.70523 0.10234 0.0
H219 H 0.98613 0.70172 0.12946 0.0
C220 C 0.88773 0.68313 0.12 0.0
N221 N 0.90072 0.68855 0.13505 0.0
N222 N 0.91342 0.70261 0.12816 0.0
C223 C 0.90869 0.7068 0.10845 0.0
C224 C 0.8924 0.69442 0.10261 0.0
C225 C 0.86992 0.66895 0.12304 0.0
H226 H 0.85973 0.67534 0.13506 0.0
H227 H 0.87559 0.65387 0.12847 0.0
H228 H 0.86086 0.66679 0.10883 0.0
O229 O 0.89755 0.70486 0.1808 0.0
O230 O 0.91989 0.728 0.16968 0.0
H231 H 0.91879 0.7376 0.10359 0.0
H232 H 0.91202 0.7241 0.08029 0.0
C233 C 0.91924 0.7226 0.09561 0.0
H234 H 0.93552 0.7182 0.09359 0.0
H235 H 0.93545 0.75928 0.13974 0.0
O236 O 0.87837 0.6621 0.16858 0.0
C237 C 0.90579 0.72251 0.18201 0.0
Co238 Co 0.07139 0.14898 0.91495 0.0
Co239 Co 0.03899 0.1805 0.89857 0.0
C240 C 0.07719 0.19425 0.92007 0.0
O241 O 0.08319 0.17582 0.92248 0.0
O242 O 0.06042 0.19836 0.9109 0.0
C243 C 0.096 0.12487 0.94032 0.0
O244 O 0.08845 0.13777 0.95381 0.0
C245 C 0.02047 0.21596 0.87773 0.0
C246 C 0.98855 0.20529 0.87368 0.0
C247 C 0.00139 0.22188 0.87042 0.0
N248 N 0.01893 0.1967 0.8849 0.0
N249 N -0.00013 0.19036 0.88226 0.0
C250 C 0.03925 0.22889 0.88018 0.0
H251 H 0.04052 0.23352 0.89648 0.0
H252 H 0.05305 0.21978 0.87621 0.0
H253 H 0.03872 0.24295 0.87071 0.0
C254 C 0.07021 0.13566 0.87192 0.0
N255 N 0.06429 0.14832 0.88704 0.0
N256 N 0.05071 0.16141 0.8799 0.0
C257 C 0.04763 0.15751 0.85982 0.0
C258 C 0.05995 0.14113 0.8541 0.0
C259 C 0.08395 0.11756 0.87521 0.0
H260 H 0.07839 0.1086 0.88856 0.0
H261 H 0.09964 0.12304 0.87882 0.0
H262 H 0.08451 0.10735 0.86165 0.0
O263 O 0.04717 0.14364 0.93218 0.0
O264 O 0.02436 0.16639 0.92133 0.0
H265 H 0.01724 0.16595 0.85107 0.0
H266 H 0.03521 0.16513 0.82999 0.0
C267 C 0.03325 0.16926 0.84638 0.0
H268 H 0.036 0.18592 0.84829 0.0
H269 H 0.99449 0.17598 0.88679 0.0
O270 O 0.09132 0.12713 0.92156 0.0
C271 C 0.02956 0.15191 0.93334 0.0
Co272 Co 0.33665 0.09902 0.18044 0.0
Co273 Co 0.35158 0.06875 0.21454 0.0
C274 C 0.33308 0.05417 0.17454 0.0
O275 O 0.33079 0.0723 0.16763 0.0
O276 O 0.34089 0.05092 0.19217 0.0
C277 C 0.31509 0.12339 0.15057 0.0
O278 O 0.30151 0.10852 0.15102 0.0
C279 C 0.37672 0.0354 0.23027 0.0
C280 C 0.3755 0.04046 0.26373 0.0
C281 C 0.38373 0.02774 0.24883 0.0
N282 N 0.36489 0.0518 0.23407 0.0
N283 N 0.36414 0.05473 0.25409 0.0
C284 C 0.38233 0.02846 0.20915 0.0
H285 H 0.38158 0.04152 0.19827 0.0
H286 H 0.39795 0.02171 0.20895 0.0
H287 H 0.37121 0.01665 0.20404 0.0
C288 C 0.37903 0.11375 0.18452 0.0
N289 N 0.36402 0.10053 0.18944 0.0
N290 N 0.37029 0.08857 0.2044 0.0
C291 C 0.38948 0.09417 0.2098 0.0
C292 C 0.39567 0.11013 0.1972 0.0
C293 C 0.37665 0.13083 0.16937 0.0
H294 H 0.37106 0.12456 0.15459 0.0
H295 H 0.39125 0.13915 0.1668 0.0
H296 H 0.36502 0.1418 0.17516 0.0
O297 O 0.31743 0.1031 0.20354 0.0
O298 O 0.32779 0.08197 0.22811 0.0
H299 H 0.39167 0.08557 0.24136 0.0
H300 H 0.41575 0.09357 0.23006 0.0
C301 C 0.40122 0.08517 0.22731 0.0
H302 H 0.40482 0.06892 0.22386 0.0
H303 H 0.35605 0.06658 0.26114 0.0
O304 O 0.33128 0.12181 0.16124 0.0
C305 C 0.31541 0.0955 0.22141 0.0
Co306 Co 0.64498 0.57922 0.94116 0.0
Co307 Co 0.67774 0.59925 0.97023 0.0
C308 C 0.68885 0.58242 0.92864 0.0
O309 O 0.67033 0.57748 0.92479 0.0
O310 O 0.69384 0.59085 0.94558 0.0
C311 C 0.61717 0.57149 0.90637 0.0
O312 O 0.62977 0.58201 0.8947 0.0
C313 C 0.71329 0.62199 0.98688 0.0
C314 C 0.70058 0.63295 0.0163 0.0
C315 C 0.7179 0.63378 0.00403 0.0
N316 N 0.69395 0.61507 0.98875 0.0
N317 N 0.68657 0.62146 0.00649 0.0
C318 C 0.72747 0.61547 0.97009 0.0
H319 H 0.72536 0.59889 0.96716 0.0
H320 H 0.72365 0.62396 0.95585 0.0
H321 H 0.74376 0.61809 0.97414 0.0
C322 C 0.62594 0.61993 0.94562 0.0
N323 N 0.64063 0.60624 0.95031 0.0
N324 N 0.65453 0.6151 0.96196 0.0
C325 C 0.64924 0.63496 0.96464 0.0
C326 C 0.63097 0.63852 0.95443 0.0
C327 C 0.60748 0.61537 0.93278 0.0
H328 H 0.60078 0.60046 0.9374 0.0
H329 H 0.61213 0.61445 0.91646 0.0
H330 H 0.59563 0.62747 0.93439 0.0
O331 O 0.64724 0.56018 0.96426 0.0
O332 O 0.66976 0.57396 0.98558 0.0
H333 H 0.66003 0.64965 0.99179 0.0
H334 H 0.65778 0.66649 0.97012 0.0
C335 C 0.66221 0.6508 0.97498 0.0
H336 H 0.6786 0.64825 0.97133 0.0
H337 H 0.67186 0.61811 0.0118 0.0
O338 O 0.62122 0.56911 0.92528 0.0
C339 C 0.65744 0.55958 0.98084 0.0
Co340 Co 0.174 0.89912 0.68535 0.0
Co341 Co 0.14934 0.93114 0.71151 0.0
C342 C 0.17348 0.94391 0.67457 0.0
O343 O 0.17917 0.92552 0.67109 0.0
O344 O 0.16177 0.94827 0.68961 0.0
C345 C 0.18651 0.87274 0.65085 0.0
O346 O 0.17732 0.88562 0.63839 0.0
C347 C 0.12569 0.9665 0.72749 0.0
C348 C 0.10985 0.952 0.75371 0.0
C349 C 0.11185 0.97038 0.74326 0.0
N350 N 0.13106 0.9466 0.72833 0.0
N351 N 0.12174 0.93814 0.7442 0.0
C352 C 0.13579 0.98171 0.71362 0.0
H353 H 0.15238 0.97826 0.71264 0.0
H354 H 0.12912 0.9804 0.69802 0.0
H355 H 0.13403 0.99763 0.71927 0.0
C356 C 0.13333 0.8793 0.68363 0.0
N357 N 0.14572 0.89472 0.68947 0.0
N358 N 0.13495 0.90848 0.69958 0.0
C359 C 0.11509 0.90254 0.69966 0.0
C360 C 0.11355 0.88376 0.68986 0.0
C361 C 0.14027 0.86088 0.67184 0.0
H362 H 0.15402 0.85417 0.67927 0.0
H363 H 0.14447 0.86569 0.6561 0.0
H364 H 0.12813 0.84905 0.67068 0.0
O365 O 0.18823 0.89896 0.71177 0.0
O366 O 0.17163 0.92204 0.73038 0.0
H367 H 0.09679 0.91049 0.72558 0.0
H368 H 0.08297 0.91035 0.70188 0.0
C369 C 0.09784 0.91436 0.70907 0.0
H370 H 0.10049 0.93105 0.70734 0.0
H371 H 0.12365 0.92289 0.74863 0.0
O372 O 0.18644 0.87612 0.67003 0.0
C373 C 0.18591 0.90892 0.72832 0.0
Co374 Co 0.84602 0.41573 0.43243 0.0
Co375 Co 0.81456 0.39702 0.46341 0.0
C376 C 0.80197 0.41337 0.42182 0.0
O377 O 0.82039 0.41725 0.4166 0.0
O378 O 0.79776 0.40581 0.43935 0.0
C379 C 0.87327 0.42286 0.39699 0.0
O380 O 0.86083 0.41179 0.38567 0.0
C381 C 0.78225 0.36901 0.47696 0.0
C382 C 0.78595 0.36997 0.51062 0.0
C383 C 0.7744 0.36115 0.49512 0.0
N384 N 0.79767 0.38185 0.4816 0.0
N385 N 0.79977 0.38242 0.50173 0.0
C386 C 0.77635 0.36347 0.45551 0.0
H387 H 0.78977 0.365 0.44516 0.0
H388 H 0.77031 0.34758 0.4548 0.0
H389 H 0.76427 0.37417 0.45012 0.0
C390 C 0.86629 0.37584 0.4395 0.0
N391 N 0.8508 0.38908 0.4426 0.0
N392 N 0.83753 0.38091 0.45542 0.0
C393 C 0.84415 0.36204 0.46076 0.0
C394 C 0.86262 0.3583 0.45092 0.0
C395 C 0.88385 0.37972 0.42525 0.0
H396 H 0.89185 0.39401 0.42986 0.0
H397 H 0.87783 0.38186 0.40952 0.0
H398 H 0.89494 0.36686 0.42502 0.0
O399 O 0.84407 0.43566 0.455 0.0
O400 O 0.82339 0.42212 0.47832 0.0
H401 H 0.83123 0.35655 0.49036 0.0
H402 H 0.84245 0.33411 0.47868 0.0
C403 C 0.83352 0.34827 0.47571 0.0
H404 H 0.81824 0.34405 0.46957 0.0
H405 H 0.81075 0.39119 0.50937 0.0
O406 O 0.8694 0.42553 0.41589 0.0
C407 C 0.83501 0.43656 0.47224 0.0
Co408 Co 0.82795 0.40321 0.8218 0.0
Co409 Co 0.8457 0.43345 0.78899 0.0
C410 C 0.82481 0.44826 0.82749 0.0
O411 O 0.82185 0.4301 0.83405 0.0
O412 O 0.83375 0.4516 0.81044 0.0
C413 C 0.80111 0.37818 0.84394 0.0
O414 O 0.78795 0.391 0.83567 0.0
C415 C 0.87165 0.46685 0.77447 0.0
C416 C 0.8731 0.46083 0.74117 0.0
C417 C 0.87986 0.4742 0.75626 0.0
N418 N 0.86054 0.45003 0.77026 0.0
N419 N 0.86144 0.4465 0.75035 0.0
C420 C 0.87533 0.4746 0.79573 0.0
H421 H 0.87423 0.46182 0.80691 0.0
H422 H 0.89062 0.48196 0.79693 0.0
H423 H 0.8634 0.48608 0.79961 0.0
C424 C 0.87026 0.388 0.821 0.0
N425 N 0.85573 0.40115 0.81472 0.0
N426 N 0.8634 0.41345 0.8007 0.0
C427 C 0.88321 0.40835 0.79753 0.0
C428 C 0.88812 0.39216 0.81038 0.0
C429 C 0.8668 0.37133 0.83638 0.0
H430 H 0.86017 0.378 0.85054 0.0
H431 H 0.88123 0.36317 0.84018 0.0
H432 H 0.85555 0.36021 0.83012 0.0
O433 O 0.81051 0.39951 0.79744 0.0
O434 O 0.82266 0.42054 0.77367 0.0
H435 H 0.88939 0.41803 0.76683 0.0
H436 H 0.91194 0.4103 0.78107 0.0
C437 C 0.89693 0.41824 0.78206 0.0
H438 H 0.89954 0.43445 0.78643 0.0
H439 H 0.85415 0.43428 0.74305 0.0
O440 O 0.82013 0.38096 0.84085 0.0
C441 C 0.80973 0.40713 0.77951 0.0
Co442 Co 0.35048 0.08188 0.5596 0.0
Co443 Co 0.31802 0.1009 0.52968 0.0
C444 C 0.30591 0.07992 0.56908 0.0
O445 O 0.32443 0.07627 0.57415 0.0
O446 O 0.30157 0.08926 0.55248 0.0
C447 C 0.37438 0.05964 0.58976 0.0
O448 O 0.35731 0.0496 0.59343 0.0
C449 C 0.28424 0.12787 0.51801 0.0
C450 C 0.28772 0.12945 0.48436 0.0
C451 C 0.27578 0.13647 0.50048 0.0
N452 N 0.30034 0.1163 0.51245 0.0
N453 N 0.30233 0.11726 0.49232 0.0
C454 C 0.27822 0.13156 0.53982 0.0
H455 H 0.2918 0.13013 0.54998 0.0
H456 H 0.27127 0.14698 0.54166 0.0
H457 H 0.26683 0.11983 0.54452 0.0
C458 C 0.36735 0.12353 0.55685 0.0
N459 N 0.35274 0.10971 0.55241 0.0
N460 N 0.33951 0.11788 0.53957 0.0
C461 C 0.34538 0.13729 0.53537 0.0
C462 C 0.36329 0.1414 0.54611 0.0
C463 C 0.38501 0.1195 0.57095 0.0
H464 H 0.39581 0.10873 0.56343 0.0
H465 H 0.37935 0.11221 0.58523 0.0
H466 H 0.39327 0.13382 0.57495 0.0
O467 O 0.35193 0.06466 0.53477 0.0
O468 O 0.32901 0.07776 0.51327 0.0
H469 H 0.33384 0.14286 0.50522 0.0
H470 H 0.34355 0.16549 0.51791 0.0
C471 C 0.33505 0.15093 0.52012 0.0
H472 H 0.31931 0.15443 0.5255 0.0
H473 H 0.31373 0.10969 0.48405 0.0
O474 O 0.37438 0.07392 0.57652 0.0
C475 C 0.34266 0.0645 0.51759 0.0
Co476 Co 0.66931 0.59941 0.3146 0.0
Co477 Co 0.65049 0.56789 0.28361 0.0
C478 C 0.67051 0.55447 0.32303 0.0
O479 O 0.67431 0.57287 0.32847 0.0
O480 O 0.66138 0.55052 0.3062 0.0
C481 C 0.67742 0.62535 0.3511 0.0
O482 O 0.67083 0.61049 0.36299 0.0
C483 C 0.6246 0.53424 0.26861 0.0
C484 C 0.6197 0.54345 0.23636 0.0
C485 C 0.61456 0.52873 0.25075 0.0
N486 N 0.63513 0.55158 0.265 0.0
N487 N 0.63229 0.55689 0.24564 0.0
C488 C 0.62306 0.52413 0.28912 0.0
H489 H 0.62343 0.53585 0.30144 0.0
H490 H 0.60879 0.51493 0.29035 0.0
H491 H 0.63639 0.5138 0.29119 0.0
C492 C 0.6277 0.61686 0.31152 0.0
N493 N 0.64161 0.60236 0.30691 0.0
N494 N 0.63345 0.58921 0.29397 0.0
C495 C 0.61389 0.59487 0.29015 0.0
C496 C 0.60973 0.61262 0.30104 0.0
C497 C 0.63159 0.63439 0.32579 0.0
H498 H 0.6445 0.64376 0.31989 0.0
H499 H 0.636 0.62828 0.34102 0.0
H500 H 0.61788 0.64425 0.3277 0.0
O501 O 0.68704 0.60129 0.29027 0.0
O502 O 0.67421 0.57907 0.26798 0.0
H503 H 0.60632 0.58557 0.25971 0.0
H504 H 0.58433 0.59117 0.27543 0.0
C505 C 0.59989 0.58431 0.27538 0.0
H506 H 0.59873 0.56786 0.27943 0.0
H507 H 0.63861 0.56994 0.23891 0.0
O508 O 0.67772 0.62288 0.33178 0.0
C509 C 0.68751 0.59247 0.2729 0.0
Co510 Co 0.15129 0.91513 0.07085 0.0
Co511 Co 0.18338 0.89949 0.0388 0.0
C512 C 0.19554 0.91554 0.08069 0.0
O513 O 0.17705 0.91828 0.08638 0.0
O514 O 0.19979 0.90862 0.06291 0.0
C515 C 0.1242 0.92068 0.1069 0.0
O516 O 0.1391 0.91427 0.11883 0.0
C517 C 0.2176 0.87464 0.02393 0.0
C518 C 0.21263 0.87537 0.99042 0.0
C519 C 0.22544 0.86758 0.00548 0.0
N520 N 0.20095 0.88608 0.01992 0.0
N521 N 0.1981 0.88653 -0.00013 0.0
C522 C 0.22475 0.86948 0.0451 0.0
H523 H 0.23587 0.88128 0.05022 0.0
H524 H 0.2116 0.8695 0.05589 0.0
H525 H 0.2324 0.85429 0.04539 0.0
C526 C 0.13401 0.87405 0.06318 0.0
N527 N 0.14849 0.88841 0.06014 0.0
N528 N 0.1619 0.88157 0.04673 0.0
C529 C 0.15641 0.86249 0.04091 0.0
C530 C 0.13851 0.85721 0.05107 0.0
C531 C 0.11641 0.87635 0.07772 0.0
H532 H 0.10662 0.88933 0.07272 0.0
H533 H 0.12241 0.8799 0.09321 0.0
H534 H 0.10699 0.86223 0.07864 0.0
O535 O 0.15116 0.93571 0.0487 0.0
O536 O 0.17244 0.92426 0.02482 0.0
H537 H 0.16814 0.85872 0.01057 0.0
H538 H 0.15969 0.83513 0.02238 0.0
C539 C 0.16743 0.85002 0.02515 0.0
H540 H 0.18335 0.84716 0.03037 0.0
H541 H 0.18612 0.8943 0.99267 0.0
O542 O 0.12703 0.92186 0.08766 0.0
C543 C 0.15984 0.93764 0.03135 0.0
Co544 Co 0.18525 0.33342 0.10259 0.0
Co545 Co 0.2161 0.35052 0.06993 0.0
C546 C 0.17619 0.33113 0.0577 0.0
O547 O 0.17112 0.32804 0.07632 0.0
O548 O 0.19312 0.33973 0.05307 0.0
C549 C 0.15166 0.31504 0.12508 0.0
O550 O 0.14644 0.30692 0.10741 0.0
C551 C 0.23158 0.374 0.03485 0.0
C552 C 0.2639 0.37902 0.04375 0.0
C553 C 0.24963 0.38324 0.02862 0.0
N554 N 0.23497 0.36476 0.05294 0.0
N555 N 0.25435 0.36769 0.05811 0.0
C556 C 0.21114 0.37503 0.02452 0.0
H557 H 0.19881 0.37626 0.03617 0.0
H558 H 0.21031 0.38827 0.01386 0.0
H559 H 0.2087 0.36073 0.01567 0.0
C560 C 0.18939 0.37531 0.1185 0.0
N561 N 0.19359 0.36092 0.10439 0.0
N562 N 0.20645 0.36844 0.0908 0.0
C563 C 0.21071 0.38807 0.0958 0.0
C564 C 0.20016 0.39294 0.1136 0.0
C565 C 0.17532 0.37211 0.13635 0.0
H566 H 0.18225 0.36077 0.14697 0.0
H567 H 0.16053 0.36579 0.13083 0.0
H568 H 0.17235 0.38659 0.14474 0.0
O569 O 0.20908 0.31501 0.10494 0.0
O570 O 0.23102 0.32671 0.08172 0.0
H571 H 0.24122 0.39504 0.08632 0.0
H572 H 0.22555 0.41734 0.09066 0.0
C573 C 0.22559 0.40146 0.08462 0.0
H574 H 0.22167 0.40175 0.06808 0.0
H575 H 0.26097 0.36219 0.07159 0.0
O576 O 0.16719 0.32675 0.126 0.0
C577 C 0.22619 0.31391 0.09564 0.0
Co578 Co 0.67416 0.16349 0.90266 0.0
Co579 Co 0.7099 0.14926 0.93148 0.0
C580 C 0.66937 0.16496 0.94776 0.0
O581 O 0.66186 0.16731 0.92989 0.0
O582 O 0.68756 0.15829 0.95035 0.0
C583 C 0.648 0.1879 0.87899 0.0
O584 O 0.65436 0.20153 0.8924 0.0
C585 C 0.72889 0.12541 0.96439 0.0
C586 C 0.76187 0.13055 0.95851 0.0
C587 C 0.74833 0.12121 0.97195 0.0
N588 N 0.73092 0.1367 0.94728 0.0
N589 N 0.75066 0.13953 0.94371 0.0
C590 C 0.70867 0.12092 0.97426 0.0
H591 H 0.70503 0.13339 0.98523 0.0
H592 H 0.69641 0.12031 0.96248 0.0
H593 H 0.70898 0.1063 0.98286 0.0
C594 C 0.67997 0.12194 0.88628 0.0
N595 N 0.68461 0.1368 0.89975 0.0
N596 N 0.69999 0.13078 0.91133 0.0
C597 C 0.70586 0.11189 0.90531 0.0
C598 C 0.69322 0.10564 0.88939 0.0
C599 C 0.66431 0.12422 0.86965 0.0
H600 H 0.64927 0.12809 0.87658 0.0
H601 H 0.66277 0.1101 0.86033 0.0
H602 H 0.66879 0.13711 0.85949 0.0
O603 O 0.696 0.18417 0.8991 0.0
O604 O 0.72195 0.17407 0.91858 0.0
H605 H 0.73757 0.10989 0.91333 0.0
H606 H 0.72611 0.08561 0.90617 0.0
C607 C 0.72353 0.10035 0.91425 0.0
H608 H 0.72043 0.0972 0.93067 0.0
H609 H 0.75644 0.14811 0.93151 0.0
O610 O 0.65383 0.16943 0.88093 0.0
C611 C 0.71404 0.18677 0.90605 0.0
Co612 Co 0.58615 0.92862 0.6487 0.0
Co613 Co 0.60103 0.96307 0.67862 0.0
C614 C 0.58168 0.9241 0.69396 0.0
O615 O 0.57984 0.91698 0.67587 0.0
O616 O 0.58961 0.94167 0.6972 0.0
C617 C 0.56206 0.90187 0.62527 0.0
O618 O 0.54814 0.90842 0.63826 0.0
C619 C 0.62449 0.98085 0.71239 0.0
C620 C 0.62758 0.01316 0.70264 0.0
C621 C 0.63309 -0.00054 0.71789 0.0
N622 N 0.61438 0.9834 0.69463 0.0
N623 N 0.61613 0.00278 0.68896 0.0
C624 C 0.62722 0.9606 0.72279 0.0
H625 H 0.62776 0.94814 0.71122 0.0
H626 H 0.64144 0.96037 0.73213 0.0
H627 H 0.61392 0.95778 0.73301 0.0
C628 C 0.62847 0.93239 0.6339 0.0
N629 N 0.6135 0.93737 0.64712 0.0
N630 N 0.62008 0.95179 0.65958 0.0
C631 C 0.63969 0.95633 0.65469 0.0
C632 C 0.64555 0.94422 0.63825 0.0
C633 C 0.62611 0.91711 0.61696 0.0
H634 H 0.61459 0.92284 0.60581 0.0
H635 H 0.62033 0.90245 0.62334 0.0
H636 H 0.64083 0.9143 0.60891 0.0
O637 O 0.56734 0.95165 0.64347 0.0
O638 O 0.57755 0.97646 0.66436 0.0
H639 H 0.64425 0.98793 0.66191 0.0
H640 H 0.66772 0.97384 0.6579 0.0
C641 C 0.65203 0.97303 0.6644 0.0
H642 H 0.65308 0.97028 0.68114 0.0
H643 H 0.60989 0.00879 0.67552 0.0
O644 O 0.5804 0.90808 0.62722 0.0
C645 C 0.56538 0.96967 0.65067 0.0
Co646 Co 0.80805 0.83137 0.39477 0.0
Co647 Co 0.78118 0.85079 0.42952 0.0
C648 C 0.82106 0.8296 0.43864 0.0
O649 O 0.82437 0.82565 0.41978 0.0
O650 O 0.80507 0.83926 0.44433 0.0
C651 C 0.84195 0.82268 0.36626 0.0
O652 O 0.85452 0.83054 0.3799 0.0
C653 C 0.77107 0.87716 0.46449 0.0
C654 C 0.73743 0.87972 0.46146 0.0
C655 C 0.75387 0.88596 0.47338 0.0
N656 N 0.765 0.86623 0.44811 0.0
N657 N 0.74488 0.86778 0.44642 0.0
C658 C 0.79302 0.8801 0.47043 0.0
H659 H 0.80303 0.87883 0.45673 0.0
H660 H 0.79531 0.89525 0.47782 0.0
H661 H 0.79748 0.86793 0.48143 0.0
C662 C 0.80477 0.87342 0.37823 0.0
N663 N 0.80097 0.85935 0.39281 0.0
N664 N 0.78969 0.86768 0.40731 0.0
C665 C 0.78614 0.88748 0.40247 0.0
C666 C 0.79549 0.89169 0.38385 0.0
C667 C 0.81751 0.86948 0.35956 0.0
H668 H 0.81071 0.85669 0.35067 0.0
H669 H 0.83312 0.86483 0.3644 0.0
H670 H 0.81882 0.88322 0.34964 0.0
O671 O 0.78303 0.81452 0.39524 0.0
O672 O 0.76378 0.82761 0.42002 0.0
H673 H 0.75778 0.89505 0.41699 0.0
H674 H 0.77168 0.91698 0.40741 0.0
C675 C 0.77323 0.90178 0.41489 0.0
H676 H 0.78026 0.9038 0.43023 0.0
H677 H 0.73627 0.86077 0.43491 0.0
O678 O 0.82284 0.82213 0.36994 0.0
C679 C 0.76675 0.81443 0.40596 0.0
Co680 Co 0.92375 0.0563 0.14854 0.0
Co681 Co 0.90134 0.02999 0.18194 0.0
C682 C 0.92426 0.06848 0.19271 0.0
O683 O 0.92917 0.07181 0.17408 0.0
O684 O 0.91348 0.05298 0.19777 0.0
C685 C 0.93498 0.09029 0.12107 0.0
O686 O 0.92723 0.1029 0.13472 0.0
C687 C 0.87336 0.02015 0.21583 0.0
C688 C 0.86861 0.98694 0.21111 0.0
C689 C 0.86321 0.00317 0.2237 0.0
N690 N 0.88424 0.01415 0.19939 0.0
N691 N 0.88137 0.99429 0.19668 0.0
C692 C 0.87183 0.04191 0.22284 0.0
H693 H 0.88429 0.04504 0.23399 0.0
H694 H 0.87373 0.05247 0.20963 0.0
H695 H 0.85687 0.04481 0.2304 0.0
C696 C 0.88243 0.05557 0.13005 0.0
N697 N 0.89556 0.05079 0.14522 0.0
N698 N 0.88596 0.03972 0.15909 0.0
C699 C 0.86626 0.03727 0.15321 0.0
C700 C 0.86347 0.0471 0.13455 0.0
C701 C 0.88789 0.06865 0.11199 0.0
H702 H 0.89308 0.08383 0.11754 0.0
H703 H 0.87473 0.07105 0.10152 0.0
H704 H 0.9007 0.06146 0.10343 0.0
O705 O 0.93916 0.0304 0.14917 0.0
O706 O 0.924 0.01159 0.17312 0.0
H707 H 0.85634 0.00898 0.16638 0.0
H708 H 0.8357 0.02467 0.15675 0.0
C709 C 0.85073 0.02493 0.16471 0.0
H710 H 0.84873 0.03147 0.18027 0.0
H711 H 0.88807 0.98578 0.18492 0.0
O712 O 0.93468 0.0711 0.12441 0.0
C713 C 0.93789 0.014 0.15964 0.0
Co714 Co 0.32122 0.6618 0.59558 0.0
Co715 Co 0.28776 0.6474 0.56433 0.0
C716 C 0.32794 0.66584 0.55071 0.0
O717 O 0.33438 0.66805 0.56903 0.0
O718 O 0.31043 0.65801 0.54697 0.0
C719 C 0.35133 0.68274 0.6201 0.0
O720 O 0.35138 0.69607 0.605 0.0
C721 C 0.2718 0.62285 0.53058 0.0
C722 C 0.23837 0.62444 0.53577 0.0
C723 C 0.25312 0.6161 0.52295 0.0
N724 N 0.26819 0.6346 0.54708 0.0
N725 N 0.24819 0.63559 0.55007 0.0
C726 C 0.29282 0.617 0.52354 0.0
H727 H 0.30379 0.6177 0.53654 0.0
H728 H 0.29282 0.60135 0.51686 0.0
H729 H 0.29797 0.62801 0.51164 0.0
C730 C 0.31671 0.61916 0.60955 0.0
N731 N 0.31209 0.63443 0.59651 0.0
N732 N 0.29744 0.62837 0.58406 0.0
C733 C 0.29197 0.60906 0.5891 0.0
C734 C 0.30417 0.60257 0.60525 0.0
C735 C 0.33142 0.62127 0.62705 0.0
H736 H 0.3465 0.62649 0.62115 0.0
H737 H 0.33342 0.60667 0.63552 0.0
H738 H 0.32563 0.63311 0.63778 0.0
O739 O 0.29808 0.68096 0.59978 0.0
O740 O 0.27421 0.6711 0.57762 0.0
H741 H 0.2607 0.60673 0.57951 0.0
H742 H 0.27206 0.58256 0.58713 0.0
C743 C 0.27489 0.59737 0.57925 0.0
H744 H 0.27886 0.59427 0.56302 0.0
H745 H 0.24128 0.64366 0.56202 0.0
O746 O 0.34024 0.6668 0.61865 0.0
C747 C 0.28047 0.68315 0.59164 0.0
Co748 Co 0.07993 0.5633 0.34748 0.0
Co749 Co 0.0981 0.53107 0.31702 0.0
C750 C 0.07924 0.57091 0.30274 0.0
O751 O 0.07566 0.57709 0.32091 0.0
O752 O 0.08762 0.5536 0.29939 0.0
C753 C 0.05246 0.58471 0.37249 0.0
O754 O 0.03958 0.57697 0.35907 0.0
C755 C 0.12551 0.51834 0.28435 0.0
C756 C 0.12592 0.48465 0.28772 0.0
C757 C 0.13375 0.5006 0.27605 0.0
N758 N 0.11335 0.51308 0.30009 0.0
N759 N 0.11362 0.49293 0.30205 0.0
C760 C 0.1301 0.54004 0.27852 0.0
H761 H 0.12872 0.55017 0.29212 0.0
H762 H 0.14573 0.54139 0.27194 0.0
H763 H 0.1188 0.5452 0.2669 0.0
C764 C 0.12113 0.55978 0.36534 0.0
N765 N 0.10729 0.55506 0.35084 0.0
N766 N 0.1151 0.54128 0.33838 0.0
C767 C 0.13432 0.53679 0.34461 0.0
C768 C 0.13868 0.54832 0.36194 0.0
C769 C 0.11742 0.57494 0.38216 0.0
H770 H 0.11056 0.58907 0.37566 0.0
H771 H 0.13181 0.57895 0.3903 0.0
H772 H 0.10634 0.56835 0.39325 0.0
O773 O 0.06167 0.53929 0.34917 0.0
O774 O 0.07417 0.51575 0.32809 0.0
H775 H 0.13886 0.50619 0.33377 0.0
H776 H 0.16167 0.51795 0.34425 0.0
C777 C 0.1476 0.52071 0.3351 0.0
H778 H 0.15204 0.52566 0.31945 0.0
H779 H 0.10546 0.48487 0.3132 0.0
O780 O 0.07152 0.58154 0.37014 0.0
C781 C 0.06077 0.52161 0.34101 0.0
Co782 Co 0.41751 0.42793 0.84232 0.0
Co783 Co 0.3986 0.46146 0.81349 0.0
C784 C 0.42039 0.42424 0.79692 0.0
O785 O 0.42383 0.41705 0.81476 0.0
O786 O 0.4109 0.44113 0.79441 0.0
C787 C 0.44467 0.40524 0.86708 0.0
O788 O 0.45806 0.41449 0.8552 0.0
C789 C 0.37287 0.4775 0.78045 0.0
C790 C 0.3672 0.50929 0.79067 0.0
C791 C 0.36267 0.49538 0.77529 0.0
N792 N 0.38296 0.48065 0.79812 0.0
N793 N 0.37962 0.49972 0.8041 0.0
C794 C 0.37178 0.45726 0.76974 0.0
H795 H 0.37242 0.4446 0.7811 0.0
H796 H 0.35754 0.45597 0.76052 0.0
H797 H 0.38516 0.45578 0.75935 0.0
C798 C 0.37529 0.42733 0.8581 0.0
N799 N 0.38945 0.43404 0.84472 0.0
N800 N 0.38142 0.44845 0.83312 0.0
C801 C 0.36181 0.45149 0.83895 0.0
C802 C 0.35729 0.43813 0.85486 0.0
C803 C 0.37976 0.41249 0.87504 0.0
H804 H 0.38563 0.39798 0.86839 0.0
H805 H 0.36603 0.40921 0.88449 0.0
H806 H 0.39195 0.41891 0.88502 0.0
O807 O 0.43411 0.45278 0.84737 0.0
O808 O 0.42118 0.47675 0.82698 0.0
H809 H 0.3543 0.48281 0.83311 0.0
H810 H 0.33224 0.46643 0.83675 0.0
C811 C 0.34786 0.46737 0.83008 0.0
H812 H 0.34679 0.46523 0.81326 0.0
H813 H 0.38556 0.50608 0.81751 0.0
O814 O 0.42569 0.408 0.86374 0.0
C815 C 0.43419 0.47097 0.84034 0.0
C816 C 0.2571 0.16468 0.4829 0.0
C817 C 0.25752 0.14969 0.49832 0.0
C818 C 0.23916 0.17556 0.47883 0.0
C819 C 0.18407 0.1679 0.48085 0.0
H820 H 0.18349 0.22305 0.45869 0.0
C821 C 0.11696 0.195 0.43128 0.0
C822 C 0.12392 0.20184 0.41214 0.0
C823 C 0.13054 0.19381 0.44785 0.0
C824 C 0.18333 0.2077 0.46502 0.0
H825 H 0.23951 0.13449 0.52178 0.0
H826 H 0.20818 0.15372 0.51485 0.0
H827 H 0.21346 0.21101 0.47763 0.0
H828 H 0.14971 0.21414 0.39535 0.0
H829 H 0.17345 0.21214 0.42411 0.0
H830 H 0.1545 0.16414 0.46727 0.0
C831 C 0.2218 0.15713 0.50598 0.0
C832 C 0.20049 0.2008 0.47583 0.0
C833 C 0.23982 0.14628 0.51011 0.0
C834 C 0.14411 0.20884 0.41007 0.0
C835 C 0.15762 0.20781 0.42659 0.0
C836 C 0.16692 0.17481 0.47007 0.0
C837 C 0.22115 0.17156 0.48997 0.0
C838 C 0.20141 0.18051 0.48303 0.0
C839 C 0.1512 0.19961 0.44546 0.0
C840 C 0.16677 0.19445 0.46122 0.0
H841 H 0.27052 0.16758 0.47355 0.0
H842 H 0.23913 0.18629 0.46616 0.0
H843 H 0.18431 0.15214 0.48606 0.0
H844 H 0.10139 0.18951 0.43308 0.0
H845 H 0.12515 0.18755 0.46225 0.0
C846 C 0.53322 0.38895 0.16173 0.0
C847 C 0.55015 0.37638 0.15766 0.0
C848 C 0.53426 0.40357 0.17735 0.0
C849 C 0.5635 0.42136 0.22236 0.0
H850 H 0.55807 0.47515 0.19778 0.0
C851 C 0.6085 0.49105 0.25139 0.0
C852 C 0.60142 0.51083 0.24696 0.0
C853 C 0.59732 0.47394 0.24501 0.0
C854 C 0.55912 0.4604 0.2053 0.0
H855 H 0.58079 0.368 0.1671 0.0
H856 H 0.58253 0.39327 0.19475 0.0
H857 H 0.54634 0.44529 0.17919 0.0
H858 H 0.57664 0.52854 0.23388 0.0
H859 H 0.55642 0.49877 0.22378 0.0
H860 H 0.57652 0.4364 0.24842 0.0
C861 C 0.56848 0.39189 0.186 0.0
C862 C 0.55241 0.44322 0.19452 0.0
C863 C 0.56756 0.37754 0.17018 0.0
C864 C 0.58244 0.51334 0.23724 0.0
C865 C 0.57098 0.49627 0.23134 0.0
C866 C 0.56987 0.43861 0.23337 0.0
C867 C 0.55213 0.40552 0.18924 0.0
C868 C 0.55519 0.42352 0.20263 0.0
C869 C 0.57863 0.47631 0.23441 0.0
C870 C 0.56849 0.45832 0.22464 0.0
H871 H 0.51973 0.3883 0.15206 0.0
H872 H 0.5215 0.41396 0.17956 0.0
H873 H 0.56568 0.40627 0.22896 0.0
H874 H 0.62324 0.48882 0.25871 0.0
H875 H 0.60397 0.45893 0.24742 0.0
C876 C 0.35305 0.79309 0.90761 0.0
C877 C 0.37287 0.80132 0.90768 0.0
C878 C 0.34038 0.79536 0.92465 0.0
C879 C 0.33224 0.83169 0.96622 0.0
H880 H 0.28777 0.79443 0.97921 0.0
C881 C 0.26217 0.8586 0.01228 0.0
C882 C 0.24378 0.85493 0.0017 0.0
C883 C 0.28011 0.84828 0.0067 0.0
C884 C 0.30022 0.80492 0.9759 0.0
H885 H 0.39564 0.81732 0.9257 0.0
H886 H 0.37352 0.82114 0.95587 0.0
H887 H 0.3167 0.78233 0.95877 0.0
H888 H 0.22942 0.83715 0.97762 0.0
H889 H 0.26064 0.81911 0.96788 0.0
H890 H 0.31535 0.8545 0.98258 0.0
C891 C 0.36767 0.81311 0.94257 0.0
C892 C 0.31674 0.79802 0.96418 0.0
C893 C 0.38036 0.81083 0.92543 0.0
C894 C 0.24342 0.84021 0.98604 0.0
C895 C 0.26124 0.82975 0.98061 0.0
C896 C 0.31578 0.83854 0.97805 0.0
C897 C 0.34732 0.80592 0.94213 0.0
C898 C 0.33248 0.8116 0.95843 0.0
C899 C 0.27988 0.83403 0.99055 0.0
C900 C 0.2992 0.82546 0.98225 0.0
H901 H 0.34705 0.78573 0.89398 0.0
H902 H 0.32473 0.78991 0.9236 0.0
H903 H 0.34398 0.84263 0.96195 0.0
H904 H 0.26297 0.87017 0.02414 0.0
H905 H 0.29427 0.85189 0.01457 0.0
C906 C 0.90704 0.49255 0.73678 0.0
C907 C 0.89246 0.49267 0.75258 0.0
C908 C 0.91737 0.51048 0.73138 0.0
C909 C 0.90884 0.56563 0.73103 0.0
H910 H 0.96332 0.56601 0.70728 0.0
C911 C 0.93492 0.63202 0.67966 0.0
C912 C 0.94127 0.62481 0.66046 0.0
C913 C 0.93387 0.61858 0.69636 0.0
C914 C 0.94816 0.56622 0.71404 0.0
H915 H 0.87736 0.51172 0.77526 0.0
H916 H 0.89573 0.54295 0.76614 0.0
H917 H 0.95216 0.53658 0.72757 0.0
H918 H 0.95267 0.59869 0.64357 0.0
H919 H 0.95098 0.5752 0.6726 0.0
H920 H 0.90445 0.59476 0.71668 0.0
C921 C 0.89921 0.52895 0.75796 0.0
C922 C 0.94175 0.54937 0.7256 0.0
C923 C 0.88887 0.51096 0.76336 0.0
C924 C 0.94778 0.60447 0.65836 0.0
C925 C 0.94693 0.59112 0.67501 0.0
C926 C 0.91528 0.5825 0.71953 0.0
C927 C 0.91324 0.529 0.74159 0.0
C928 C 0.92169 0.54851 0.73345 0.0
C929 C 0.93936 0.59785 0.69403 0.0
C930 C 0.93467 0.58256 0.71018 0.0
H931 H 0.91007 0.47868 0.72817 0.0
H932 H 0.92779 0.51001 0.71847 0.0
H933 H 0.89324 0.56543 0.7367 0.0
H934 H 0.9298 0.64771 0.68146 0.0
H935 H 0.92807 0.62418 0.71087 0.0
C936 C 0.75775 0.33306 0.51476 0.0
C937 C 0.75707 0.34694 0.49835 0.0
C938 C 0.74059 0.32137 0.51982 0.0
C939 C 0.6851 0.32536 0.51799 0.0
H940 H 0.68835 0.27211 0.54423 0.0
C941 C 0.62019 0.2971 0.57 0.0
C942 C 0.62764 0.29216 0.58955 0.0
C943 C 0.63366 0.29825 0.55334 0.0
C944 C 0.68713 0.28689 0.53677 0.0
H945 H 0.73793 0.35926 0.47412 0.0
H946 H 0.70795 0.33859 0.48277 0.0
H947 H 0.71726 0.28459 0.52397 0.0
H948 H 0.65432 0.28319 0.60705 0.0
H949 H 0.67788 0.28515 0.57813 0.0
H950 H 0.65548 0.32819 0.53168 0.0
C951 C 0.72184 0.3367 0.49167 0.0
C952 C 0.70368 0.29405 0.52521 0.0
C953 C 0.73909 0.34837 0.48657 0.0
C954 C 0.64834 0.28706 0.59204 0.0
C955 C 0.66175 0.28803 0.57544 0.0
C956 C 0.66855 0.31818 0.52951 0.0
C957 C 0.72226 0.32342 0.50866 0.0
C958 C 0.7032 0.31376 0.5165 0.0
C959 C 0.6547 0.29428 0.55604 0.0
C960 C 0.66979 0.2993 0.5398 0.0
H961 H 0.77141 0.33168 0.52413 0.0
H962 H 0.74137 0.31157 0.5332 0.0
H963 H 0.68427 0.34067 0.51163 0.0
H964 H 0.60422 0.3011 0.56785 0.0
H965 H 0.6278 0.303 0.53855 0.0
C966 C 0.4109 0.01026 0.26914 0.0
C967 C 0.39691 0.00976 0.25281 0.0
C968 C 0.42209 0.99281 0.27438 0.0
C969 C 0.41724 0.93737 0.27324 0.0
H970 H 0.47216 0.93947 0.29591 0.0
C971 C 0.44749 0.87095 0.3219 0.0
C972 C 0.45449 0.87773 0.34104 0.0
C973 C 0.44545 0.88484 0.30567 0.0
C974 C 0.45686 0.93858 0.28951 0.0
H975 H 0.38362 0.99057 0.22914 0.0
H976 H 0.40336 0.96009 0.23816 0.0
H977 H 0.45877 0.96888 0.27699 0.0
H978 H 0.4663 0.90356 0.35811 0.0
H979 H 0.4627 0.92786 0.32999 0.0
H980 H 0.41481 0.90761 0.28669 0.0
C981 C 0.40578 0.97406 0.2468 0.0
C982 C 0.44921 0.95541 0.2787 0.0
C983 C 0.39465 0.99158 0.24149 0.0
C984 C 0.46085 0.8981 0.3434 0.0
C985 C 0.4589 0.91194 0.32724 0.0
C986 C 0.42487 0.92056 0.28408 0.0
C987 C 0.41937 0.9744 0.26352 0.0
C988 C 0.42902 0.95528 0.27116 0.0
C989 C 0.45049 0.90564 0.3084 0.0
C990 C 0.44446 0.92131 0.29304 0.0
H991 H 0.41288 0.02406 0.27816 0.0
H992 H 0.43216 0.9935 0.28757 0.0
H993 H 0.40157 0.93683 0.26778 0.0
H994 H 0.4425 0.85524 0.31986 0.0
H995 H 0.43912 0.8795 0.29128 0.0
C996 C 0.87783 0.67714 0.07202 0.0
C997 C 0.88033 0.69505 0.08357 0.0
C998 C 0.86256 0.67601 0.05709 0.0
C999 C 0.82964 0.67755 0.02426 0.0
H1000 H 0.77882 0.69417 0.05025 0.0
C1001 C 0.74895 0.65443 0.99401 0.0
C1002 C 0.73698 0.64488 0.0092 0.0
C1003 C 0.76698 0.66477 -0.00069 0.0
C1004 C 0.79289 0.68965 0.04267 0.0
H1005 H 0.87036 0.72639 0.08768 0.0
H1006 H 0.84363 0.72457 0.06136 0.0
H1007 H 0.81135 0.7055 0.06452 0.0
H1008 H 0.73392 0.63956 0.04186 0.0
H1009 H 0.76514 0.65779 0.0511 0.0
H1010 H 0.81096 0.66067 0.00313 0.0
C1011 C 0.85331 0.71133 0.06392 0.0
C1012 C 0.81154 0.69633 0.05069 0.0
C1013 C 0.86864 0.71244 0.07884 0.0
C1014 C 0.74291 0.64662 0.0298 0.0
C1015 C 0.76072 0.65714 0.0351 0.0
C1016 C 0.81091 0.67097 0.01615 0.0
C1017 C 0.8495 0.6928 0.05357 0.0
C1018 C 0.83014 0.6897 0.04206 0.0
C1019 C 0.77301 0.66619 0.01992 0.0
C1020 C 0.79243 0.6763 0.02582 0.0
H1021 H 0.88672 0.66356 0.07556 0.0
H1022 H 0.85994 0.66146 0.04955 0.0
H1023 H 0.84373 0.67235 0.0172 0.0
H1024 H 0.74428 0.65419 0.9781 0.0
H1025 H 0.77609 0.67185 0.98736 0.0
C1026 C 0.09591 0.00452 0.73468 0.0
C1027 C 0.10193 0.98985 0.7493 0.0
C1028 C 0.08692 0.02298 0.7409 0.0
C1029 C 0.05972 0.04704 0.78407 0.0
H1030 H 0.08642 0.09749 0.76747 0.0
C1031 C 0.07911 0.12616 0.82476 0.0
C1032 C 0.06034 0.13004 0.83444 0.0
C1033 C 0.0802 0.11223 0.80858 0.0
C1034 C 0.07863 0.08356 0.77205 0.0
H1035 H 0.10223 0.98252 0.78172 0.0
H1036 H 0.08636 0.01446 0.7925 0.0
H1037 H 0.09552 0.06525 0.75062 0.0
H1038 H 0.02774 0.12394 0.834 0.0
H1039 H 0.02953 0.09959 0.80548 0.0
H1040 H 0.04377 0.06491 0.80632 0.0
C1041 C 0.08872 0.01182 0.77627 0.0
C1042 C 0.08373 0.06516 0.76232 0.0
C1043 C 0.09791 0.99357 0.7701 0.0
C1044 C 0.04239 0.12112 0.8267 0.0
C1045 C 0.04345 0.10713 0.81051 0.0
C1046 C 0.05455 0.06539 0.79371 0.0
C1047 C 0.08331 0.02679 0.76177 0.0
C1048 C 0.07493 0.04663 0.76886 0.0
C1049 C 0.0625 0.10192 0.80184 0.0
C1050 C 0.06455 0.08372 0.78837 0.0
H1051 H 0.09795 0.00171 0.71846 0.0
H1052 H 0.08266 0.0342 0.72942 0.0
H1053 H 0.05253 0.03297 0.78922 0.0
H1054 H 0.09312 0.133 0.83051 0.0
H1055 H 0.09514 0.10844 0.8024 0.0
C1056 C 0.42855 0.12364 0.18368 0.0
C1057 C 0.4137 0.12347 0.19919 0.0
C1058 C 0.4427 0.13966 0.18252 0.0
C1059 C 0.44227 0.19367 0.19173 0.0
H1060 H 0.4991 0.19202 0.17448 0.0
C1061 C 0.48079 0.26632 0.16102 0.0
C1062 C 0.49346 0.26378 0.14387 0.0
C1063 C 0.47477 0.24937 0.17263 0.0
C1064 C 0.4832 0.19276 0.17916 0.0
H1065 H 0.40244 0.13883 0.2263 0.0
H1066 H 0.42714 0.16711 0.22422 0.0
H1067 H 0.48249 0.16074 0.18677 0.0
H1068 H 0.5099 0.24177 0.1253 0.0
H1069 H 0.49867 0.21203 0.14484 0.0
H1070 H 0.44218 0.22505 0.18279 0.0
C1071 C 0.42799 0.15482 0.21308 0.0
C1072 C 0.47379 0.17487 0.18636 0.0
C1073 C 0.41399 0.13866 0.21436 0.0
C1074 C 0.50035 0.2441 0.13867 0.0
C1075 C 0.49398 0.22708 0.15 0.0
C1076 C 0.45152 0.21141 0.18423 0.0
C1077 C 0.44193 0.15587 0.19669 0.0
C1078 C 0.45312 0.17511 0.19233 0.0
C1079 C 0.48081 0.22943 0.16695 0.0
C1080 C 0.47198 0.21113 0.17741 0.0
H1081 H 0.42831 0.11213 0.17171 0.0
H1082 H 0.45313 0.1402 0.16961 0.0
H1083 H 0.4262 0.19422 0.19587 0.0
H1084 H 0.47544 0.28142 0.16537 0.0
H1085 H 0.46504 0.2519 0.18583 0.0
C1086 C 0.61761 0.66618 0.93207 0.0
C1087 C 0.61995 0.65798 0.95177 0.0
C1088 C 0.60413 0.6824 0.92871 0.0
C1089 C 0.57699 0.72034 0.92647 0.0
H1090 H 0.523 0.70295 0.94435 0.0
C1091 C 0.4997 0.75797 0.90085 0.0
C1092 C 0.48732 0.74355 0.89064 0.0
C1093 C 0.51697 0.7516 0.91188 0.0
C1094 C 0.53802 0.7082 0.93956 0.0
H1095 H 0.6113 0.6607 0.98365 0.0
H1096 H 0.58717 0.68902 0.97774 0.0
H1097 H 0.55338 0.68593 0.95805 0.0
H1098 H 0.48282 0.71112 0.88481 0.0
H1099 H 0.51254 0.70005 0.90451 0.0
H1100 H 0.56137 0.74196 0.9072 0.0
C1101 C 0.5959 0.68303 0.96495 0.0
C1102 C 0.55539 0.6986 0.9475 0.0
C1103 C 0.60966 0.66695 0.96834 0.0
C1104 C 0.49212 0.72263 0.89234 0.0
C1105 C 0.50907 0.71627 0.90366 0.0
C1106 C 0.55957 0.73017 0.91875 0.0
C1107 C 0.59257 0.69047 0.94499 0.0
C1108 C 0.57499 0.70402 0.9404 0.0
C1109 C 0.52168 0.73069 0.91342 0.0
C1110 C 0.53996 0.72356 0.92464 0.0
H1111 H 0.62545 0.65934 0.91912 0.0
H1112 H 0.60168 0.68763 0.91313 0.0
H1113 H 0.59195 0.72481 0.92081 0.0
H1114 H 0.49588 0.7741 0.90075 0.0
H1115 H 0.52643 0.76293 0.91949 0.0
C1116 C 0.09547 0.85111 0.69716 0.0
C1117 C 0.09542 0.87047 0.68789 0.0
C1118 C 0.07955 0.83734 0.69347 0.0
C1119 C 0.04166 0.82532 0.65382 0.0
H1120 H 0.02512 0.78388 0.69313 0.0
C1121 C 0.99203 0.75613 0.63033 0.0
C1122 C 0.00063 0.73723 0.63602 0.0
C1123 C -0.00083 0.77434 0.63906 0.0
C1124 C 0.02953 0.79542 0.68203 0.0
H1125 H 0.07857 0.89121 0.66827 0.0
H1126 H 0.05028 0.86725 0.66206 0.0
H1127 H 0.04531 0.81324 0.70458 0.0
H1128 H 0.02306 0.72242 0.65551 0.0
H1129 H 0.03552 0.75419 0.67083 0.0
H1130 H 0.02633 0.8072 0.6312 0.0
C1131 C 0.06276 0.86255 0.67195 0.0
C1132 C 0.04111 0.8122 0.68855 0.0
C1133 C 0.07879 0.87631 0.67561 0.0
C1134 C 0.01612 0.7368 0.65094 0.0
C1135 C 0.02311 0.75496 0.65982 0.0
C1136 C 0.02995 0.80863 0.64734 0.0
C1137 C 0.0632 0.84273 0.68048 0.0
C1138 C 0.0479 0.82698 0.67439 0.0
C1139 C 0.01497 0.77394 0.6537 0.0
C1140 C 0.02433 0.79319 0.66126 0.0
H1141 H 0.10823 0.84637 0.70669 0.0
H1142 H 0.0806 0.82213 0.70004 0.0
H1143 H 0.04682 0.83625 0.64244 0.0
H1144 H 0.98041 0.75696 0.61851 0.0
H1145 H 0.99266 0.78877 0.63406 0.0
C1146 C 0.00806 0.26657 0.40986 0.0
C1147 C 0.00752 0.2503 0.39581 0.0
C1148 C 0.99057 0.27194 0.42091 0.0
C1149 C 0.93521 0.27158 0.41533 0.0
H1150 H 0.93695 0.29433 0.47022 0.0
C1151 C 0.86901 0.32107 0.44492 0.0
C1152 C 0.87585 0.34006 0.45225 0.0
C1153 C 0.88279 0.30476 0.44283 0.0
C1154 C 0.93617 0.28792 0.45493 0.0
H1155 H 0.98827 0.22678 0.38237 0.0
H1156 H 0.95765 0.23608 0.40183 0.0
H1157 H 0.96621 0.27488 0.4573 0.0
H1158 H 0.90168 0.35677 0.46458 0.0
H1159 H 0.92582 0.32853 0.46082 0.0
H1160 H 0.90573 0.28554 0.41246 0.0
C1161 C 0.97169 0.24457 0.4044 0.0
C1162 C 0.95291 0.2768 0.44754 0.0
C1163 C 0.98928 0.2391 0.39342 0.0
C1164 C 0.89618 0.34219 0.45883 0.0
C1165 C 0.90992 0.32595 0.4568 0.0
C1166 C 0.9185 0.28274 0.4227 0.0
C1167 C 0.97206 0.26129 0.41799 0.0
C1168 C 0.95292 0.26921 0.42737 0.0
C1169 C 0.90356 0.30726 0.44813 0.0
C1170 C 0.91913 0.29172 0.44228 0.0
H1171 H 0.02191 0.27548 0.41197 0.0
H1172 H 0.9913 0.28511 0.43099 0.0
H1173 H 0.9348 0.26609 0.39967 0.0
H1174 H 0.85332 0.31918 0.4398 0.0
H1175 H 0.87738 0.29048 0.43631 0.0
C1176 C 0.977 0.25104 0.87133 0.0
C1177 C 0.99475 0.24219 0.8631 0.0
C1178 C 0.97027 0.27012 0.86448 0.0
C1179 C 0.97197 0.3046 0.82034 0.0
H1180 H 0.94834 0.34273 0.8593 0.0
C1181 C 0.92226 0.38522 0.82568 0.0
C1182 C 0.90713 0.3802 0.81131 0.0
C1183 C 0.93812 0.37143 0.82983 0.0
C1184 C 0.95525 0.33253 0.84819 0.0
H1185 H 0.01887 0.24568 0.84056 0.0
H1186 H 0.00724 0.27938 0.82867 0.0
H1187 H 0.96634 0.31258 0.8717 0.0
H1188 H 0.8968 0.35772 0.7893 0.0
H1189 H 0.92435 0.33346 0.79653 0.0
H1190 H 0.96048 0.32442 0.79681 0.0
C1191 C 0.99869 0.27165 0.84062 0.0
C1192 C 0.96533 0.31508 0.85531 0.0
C1193 C 0.00548 0.25253 0.84757 0.0
C1194 C 0.90858 0.36188 0.80025 0.0
C1195 C 0.92439 0.34808 0.80438 0.0
C1196 C 0.96187 0.3221 0.81319 0.0
C1197 C 0.98105 0.28067 0.84909 0.0
C1198 C 0.9732 0.3006 0.84148 0.0
C1199 C 0.93891 0.35237 0.81975 0.0
C1200 C 0.95286 0.33593 0.82704 0.0
H1201 H 0.96835 0.24322 0.88317 0.0
H1202 H 0.95635 0.27642 0.87097 0.0
H1203 H 0.97787 0.2937 0.8093 0.0
H1204 H 0.92118 0.39927 0.83446 0.0
H1205 H 0.9492 0.37527 0.84157 0.0
C1206 C 0.37011 0.17872 0.55136 0.0
C1207 C 0.37677 0.15944 0.54464 0.0
C1208 C 0.38413 0.19487 0.55324 0.0
C1209 C 0.43813 0.21025 0.54168 0.0
H1210 H 0.43651 0.23304 0.59652 0.0
C1211 C 0.50971 0.22878 0.58843 0.0
C1212 C 0.50966 0.24549 0.60196 0.0
C1213 C 0.49228 0.22406 0.57697 0.0
C1214 C 0.43701 0.22727 0.58096 0.0
H1215 H 0.40253 0.14203 0.53318 0.0
H1216 H 0.42703 0.16993 0.53659 0.0
H1217 H 0.40698 0.21448 0.58346 0.0
H1218 H 0.49133 0.2704 0.61413 0.0
H1219 H 0.46084 0.26218 0.59401 0.0
H1220 H 0.46874 0.22199 0.53978 0.0
C1221 C 0.41112 0.17288 0.54027 0.0
C1222 C 0.42003 0.21664 0.57344 0.0
C1223 C 0.39716 0.15683 0.53848 0.0
C1224 C 0.49199 0.25771 0.60347 0.0
C1225 C 0.47447 0.2529 0.59211 0.0
C1226 C 0.45515 0.2208 0.54925 0.0
C1227 C 0.40494 0.1919 0.54832 0.0
C1228 C 0.42074 0.20725 0.55405 0.0
C1229 C 0.47433 0.2358 0.57901 0.0
C1230 C 0.45506 0.22868 0.56929 0.0
H1231 H 0.35438 0.18098 0.55616 0.0
H1232 H 0.37888 0.2094 0.5593 0.0
H1233 H 0.43898 0.20353 0.52652 0.0
H1234 H 0.52311 0.21908 0.58705 0.0
H1235 H 0.49256 0.21058 0.56728 0.0
C1236 C 0.59304 0.6458 0.29299 0.0
C1237 C 0.59132 0.62562 0.30009 0.0
C1238 C 0.57654 0.65925 0.29468 0.0
C1239 C 0.53318 0.66825 0.32835 0.0
H1240 H 0.5243 0.71415 0.2916 0.0
C1241 C 0.48937 0.73974 0.35504 0.0
C1242 C 0.50064 0.75782 0.35194 0.0
C1243 C 0.49459 0.7218 0.34455 0.0
C1244 C 0.52647 0.70134 0.30195 0.0
H1245 H 0.57102 0.60308 0.31344 0.0
H1246 H 0.54185 0.62668 0.31644 0.0
H1247 H 0.54418 0.68466 0.27994 0.0
H1248 H 0.52563 0.77161 0.33499 0.0
H1249 H 0.53483 0.74038 0.31677 0.0
H1250 H 0.5164 0.68533 0.3507 0.0
C1251 C 0.55599 0.63216 0.30968 0.0
C1252 C 0.53785 0.68448 0.29528 0.0
C1253 C 0.57255 0.61866 0.30789 0.0
C1254 C 0.51666 0.75788 0.33761 0.0
C1255 C 0.52179 0.74003 0.32703 0.0
C1256 C 0.52177 0.68509 0.33499 0.0
C1257 C 0.558 0.65276 0.30357 0.0
C1258 C 0.54207 0.66816 0.30872 0.0
C1259 C 0.51114 0.72167 0.33075 0.0
C1260 C 0.51905 0.70218 0.32215 0.0
H1261 H 0.60745 0.65139 0.2869 0.0
H1262 H 0.57875 0.67506 0.2901 0.0
H1263 H 0.53629 0.65604 0.33915 0.0
H1264 H 0.47724 0.7391 0.36634 0.0
H1265 H 0.48613 0.70787 0.34772 0.0
C1266 C 0.99371 0.76487 0.08679 0.0
C1267 C 0.99375 0.74916 0.10147 0.0
C1268 C 0.01157 0.76981 0.07612 0.0
C1269 C 0.06674 0.76945 0.08364 0.0
H1270 H 0.06669 0.79137 0.02837 0.0
C1271 C 0.13308 0.81967 0.05591 0.0
C1272 C 0.12594 0.83864 0.04878 0.0
C1273 C 0.11965 0.803 0.05734 0.0
C1274 C 0.06702 0.78513 0.04376 0.0
H1275 H 0.01254 0.7262 0.11647 0.0
H1276 H 0.04374 0.73465 0.09762 0.0
H1277 H 0.03714 0.77191 0.04062 0.0
H1278 H 0.10001 0.855 0.03622 0.0
H1279 H 0.07652 0.82607 0.03868 0.0
H1280 H 0.09605 0.7836 0.08723 0.0
C1281 C 0.02982 0.74306 0.09427 0.0
C1282 C 0.0501 0.77403 0.05078 0.0
C1283 C 0.01189 0.73806 0.1049 0.0
C1284 C 0.10574 0.84042 0.04174 0.0
C1285 C 0.09238 0.8238 0.04303 0.0
C1286 C 0.08365 0.78054 0.07663 0.0
C1287 C 0.02994 0.75925 0.08005 0.0
C1288 C 0.04943 0.76685 0.07108 0.0
C1289 C 0.09898 0.80511 0.05153 0.0
C1290 C 0.08358 0.78926 0.05692 0.0
H1291 H 0.97995 0.77371 0.08388 0.0
H1292 H 0.01119 0.78261 0.06555 0.0
H1293 H 0.06666 0.76427 0.09941 0.0
H1294 H 0.14867 0.8181 0.06143 0.0
H1295 H 0.1252 0.78874 0.0638 0.0
C1296 C 0.16205 0.4827 0.25786 0.0
C1297 C 0.14722 0.49825 0.25803 0.0
C1298 C 0.17327 0.47865 0.24012 0.0
C1299 C 0.16649 0.48059 0.18511 0.0
H1300 H 0.22191 0.45913 0.18518 0.0
C1301 C 0.19434 0.43037 0.11896 0.0
C1302 C 0.20177 0.41156 0.12619 0.0
C1303 C 0.19282 0.44712 0.13227 0.0
C1304 C 0.20648 0.46525 0.18485 0.0
H1305 H 0.13256 0.5219 0.23983 0.0
H1306 H 0.15232 0.51495 0.20885 0.0
H1307 H 0.20935 0.47808 0.21493 0.0
H1308 H 0.21471 0.39553 0.15216 0.0
H1309 H 0.21196 0.42453 0.17546 0.0
H1310 H 0.16308 0.46668 0.15569 0.0
C1311 C 0.15539 0.50603 0.22251 0.0
C1312 C 0.1993 0.47608 0.20186 0.0
C1313 C 0.14424 0.51014 0.24032 0.0
C1314 C 0.20891 0.40999 0.14637 0.0
C1315 C 0.20749 0.42666 0.15962 0.0
C1316 C 0.17364 0.46973 0.16813 0.0
C1317 C 0.16971 0.48994 0.2221 0.0
C1318 C 0.17893 0.48303 0.20252 0.0
C1319 C 0.19881 0.44522 0.15292 0.0
C1320 C 0.19338 0.46111 0.16824 0.0
H1321 H 0.1646 0.47327 0.2713 0.0
H1322 H 0.18392 0.46592 0.24022 0.0
H1323 H 0.15066 0.48562 0.18519 0.0
H1324 H 0.18876 0.4318 0.10339 0.0
H1325 H 0.18621 0.46128 0.12665 0.0
C1326 C 0.67916 0.07315 0.87549 0.0
C1327 C 0.69514 0.08748 0.87623 0.0
C1328 C 0.67857 0.05851 0.85989 0.0
C1329 C 0.69141 0.05639 0.80666 0.0
H1330 H 0.67203 0.0003 0.80961 0.0
C1331 C 0.66342 0.01606 0.734 0.0
C1332 C 0.64554 0.00433 0.73607 0.0
C1333 C 0.67438 0.02221 0.75132 0.0
C1334 C 0.67734 0.01599 0.8085 0.0
H1335 H 0.72359 0.09733 0.86237 0.0
H1336 H 0.72248 0.07181 0.83477 0.0
H1337 H 0.68296 0.01784 0.84088 0.0
H1338 H 0.62507 0.98959 0.75761 0.0
H1339 H 0.64352 0.00108 0.78795 0.0
H1340 H 0.68445 0.0554 0.7748 0.0
C1341 C 0.71053 0.07176 0.8463 0.0
C1342 C 0.68375 0.02592 0.82639 0.0
C1343 C 0.71123 0.08623 0.86206 0.0
C1344 C 0.639 0.99842 0.75566 0.0
C1345 C 0.6497 0.00493 0.77304 0.0
C1346 C 0.68471 0.04663 0.78888 0.0
C1347 C 0.69381 0.05826 0.84467 0.0
C1348 C 0.69043 0.04636 0.82566 0.0
C1349 C 0.66734 0.01725 0.77112 0.0
C1350 C 0.67711 0.02645 0.78961 0.0
H1351 H 0.66654 0.07407 0.88624 0.0
H1352 H 0.66539 0.04845 0.85887 0.0
H1353 H 0.69615 0.07228 0.80569 0.0
H1354 H 0.66881 0.02063 0.71897 0.0
H1355 H 0.68814 0.03124 0.74917 0.0
C1356 C 0.683 0.93861 0.63287 0.0
C1357 C 0.66415 0.94594 0.62566 0.0
C1358 C 0.69986 0.93751 0.61964 0.0
C1359 C 0.71879 0.95355 0.56824 0.0
H1360 H 0.73923 0.89787 0.56495 0.0
C1361 C 0.73728 0.91407 0.49298 0.0
C1362 C 0.75222 0.89865 0.49205 0.0
C1363 C 0.73335 0.92426 0.51134 0.0
C1364 C 0.73423 0.91366 0.56589 0.0
H1365 H 0.64804 0.95892 0.59976 0.0
H1366 H 0.67734 0.95713 0.57663 0.0
H1367 H 0.71965 0.9085 0.59477 0.0
H1368 H 0.77515 0.88208 0.50952 0.0
H1369 H 0.76845 0.90009 0.54164 0.0
H1370 H 0.73241 0.95833 0.53877 0.0
C1371 C 0.67937 0.95237 0.59241 0.0
C1372 C 0.72297 0.91977 0.58303 0.0
C1373 C 0.66255 0.95326 0.60555 0.0
C1374 C 0.76382 0.89419 0.50964 0.0
C1375 C 0.75983 0.90435 0.5281 0.0
C1376 C 0.7301 0.94746 0.55112 0.0
C1377 C 0.69804 0.94394 0.59913 0.0
C1378 C 0.71429 0.93945 0.5839 0.0
C1379 C 0.74418 0.91912 0.52926 0.0
C1380 C 0.73706 0.92715 0.54932 0.0
H1381 H 0.68441 0.93289 0.6484 0.0
H1382 H 0.71408 0.93101 0.62522 0.0
H1383 H 0.71259 0.96894 0.5687 0.0
H1384 H 0.7281 0.91777 0.47964 0.0
H1385 H 0.72096 0.93529 0.51172 0.0
C1386 C 0.83378 0.98752 0.24214 0.0
C1387 C 0.8502 0.00141 0.24213 0.0
C1388 C 0.82318 0.98326 0.2602 0.0
C1389 C 0.83341 0.98024 0.31473 0.0
H1390 H 0.77652 0.96312 0.31657 0.0
C1391 C 0.80457 0.92862 0.37965 0.0
C1392 C 0.79515 0.91089 0.37199 0.0
C1393 C 0.80706 0.94578 0.36702 0.0
C1394 C 0.79239 0.96799 0.31637 0.0
H1395 H 0.86814 0.02212 0.26095 0.0
H1396 H 0.84944 0.01482 0.29256 0.0
H1397 H 0.78887 0.98329 0.28753 0.0
H1398 H 0.77966 0.89736 0.34601 0.0
H1399 H 0.78404 0.92713 0.32386 0.0
H1400 H 0.83728 0.96399 0.34289 0.0
C1401 C 0.84471 0.00731 0.27853 0.0
C1402 C 0.79946 0.97952 0.29976 0.0
C1403 C 0.85527 0.01166 0.26038 0.0
C1404 C 0.78704 0.91093 0.35212 0.0
C1405 C 0.78941 0.92805 0.33955 0.0
C1406 C 0.82635 0.96872 0.33132 0.0
C1407 C 0.82891 0.99265 0.27873 0.0
C1408 C 0.82026 0.98497 0.29833 0.0
C1409 C 0.80002 0.94544 0.34662 0.0
C1410 C 0.80599 0.96169 0.33186 0.0
H1411 H 0.82958 0.97939 0.22828 0.0
H1412 H 0.81131 0.97165 0.25984 0.0
H1413 H 0.84956 0.98403 0.31404 0.0
H1414 H 0.8109 0.92881 0.39501 0.0
H1415 H 0.81515 0.95901 0.37294 0.0
C1416 C 0.84564 0.04132 0.1014 0.0
C1417 C 0.84488 0.04813 0.12175 0.0
C1418 C 0.82952 0.04549 0.08801 0.0
C1419 C 0.79172 0.05253 0.06234 0.0
H1420 H 0.77492 0.10942 0.06565 0.0
C1421 C 0.74649 0.09206 0.99699 0.0
C1422 C 0.75411 0.11141 0.99148 0.0
C1423 C 0.7529 0.08268 0.0152 0.0
C1424 C 0.7794 0.09347 0.06454 0.0
H1425 H 0.82631 0.06318 0.14469 0.0
H1426 H 0.79771 0.07024 0.12133 0.0
H1427 H 0.7943 0.09432 0.09366 0.0
H1428 H 0.77451 0.13605 0.00031 0.0
H1429 H 0.78598 0.11966 0.03181 0.0
H1430 H 0.77802 0.05217 0.03254 0.0
C1431 C 0.81092 0.06201 0.11558 0.0
C1432 C 0.79027 0.0847 0.08075 0.0
C1433 C 0.82715 0.05786 0.12899 0.0
C1434 C 0.76827 0.12119 0.00435 0.0
C1435 C 0.77465 0.11188 0.0225 0.0
C1436 C 0.78091 0.06134 0.04606 0.0
C1437 C 0.81225 0.0565 0.09475 0.0
C1438 C 0.7972 0.06433 0.07953 0.0
C1439 C 0.76712 0.09247 0.02812 0.0
C1440 C 0.7753 0.08213 0.04669 0.0
H1441 H 0.8592 0.03369 0.0956 0.0
H1442 H 0.83123 0.0412 0.07206 0.0
H1443 H 0.79653 0.03669 0.06107 0.0
H1444 H 0.73609 0.0839 0.98696 0.0
H1445 H 0.74688 0.06769 0.01906 0.0
C1446 C 0.35723 0.4944 0.73745 0.0
C1447 C 0.35009 0.49963 0.75703 0.0
C1448 C 0.34646 0.5006 0.72001 0.0
C1449 C 0.31002 0.54096 0.70431 0.0
H1450 H 0.31454 0.51364 0.65172 0.0
C1451 C 0.28549 0.58202 0.63128 0.0
C1452 C 0.30209 0.58398 0.61781 0.0
C1453 C 0.28583 0.56708 0.64663 0.0
C1454 C 0.31296 0.5213 0.66636 0.0
H1455 H 0.32571 0.51434 0.77399 0.0
H1456 H 0.30631 0.52439 0.74363 0.0
H1457 H 0.32503 0.49568 0.6829 0.0
H1458 H 0.3313 0.5714 0.60854 0.0
H1459 H 0.33186 0.545 0.6352 0.0
H1460 H 0.29831 0.56666 0.68775 0.0
C1461 C 0.32054 0.51613 0.74158 0.0
C1462 C 0.31911 0.51112 0.68421 0.0
C1463 C 0.33155 0.51029 0.75898 0.0
C1464 C 0.31829 0.56992 0.61876 0.0
C1465 C 0.31854 0.55484 0.63394 0.0
C1466 C 0.3036 0.55096 0.68656 0.0
C1467 C 0.32818 0.51193 0.72183 0.0
C1468 C 0.3184 0.52111 0.70334 0.0
C1469 C 0.30273 0.55385 0.64854 0.0
C1470 C 0.30562 0.5415 0.66735 0.0
H1471 H 0.37169 0.48646 0.73558 0.0
H1472 H 0.3531 0.49738 0.70515 0.0
H1473 H 0.30953 0.54937 0.7186 0.0
H1474 H 0.27294 0.59289 0.63081 0.0
H1475 H 0.27343 0.56656 0.65766 0.0
C1476 C 0.15448 0.54224 0.39598 0.0
C1477 C 0.15686 0.5473 0.37525 0.0
C1478 C 0.17096 0.54394 0.40945 0.0
C1479 C 0.216 0.57542 0.41644 0.0
H1480 H 0.2228 0.54145 0.46476 0.0
C1481 C 0.26014 0.60482 0.48683 0.0
C1482 C 0.24889 0.60286 0.50509 0.0
C1483 C 0.25451 0.59369 0.46939 0.0
C1484 C 0.22119 0.55103 0.45129 0.0
H1485 H 0.17827 0.55701 0.35188 0.0
H1486 H 0.20737 0.56022 0.37559 0.0
H1487 H 0.2026 0.52879 0.43589 0.0
H1488 H 0.22338 0.58739 0.51966 0.0
H1489 H 0.21339 0.5682 0.4893 0.0
H1490 H 0.23353 0.59814 0.43223 0.0
C1491 C 0.19274 0.55494 0.38142 0.0
C1492 C 0.20967 0.54377 0.43477 0.0
C1493 C 0.1762 0.55306 0.36788 0.0
C1494 C 0.23234 0.58916 0.50578 0.0
C1495 C 0.22677 0.57799 0.48844 0.0
C1496 C 0.2275 0.58269 0.43296 0.0
C1497 C 0.19013 0.55088 0.40244 0.0
C1498 C 0.20622 0.55626 0.41756 0.0
C1499 C 0.23753 0.58043 0.46992 0.0
C1500 C 0.22946 0.57092 0.45091 0.0
H1501 H 0.13963 0.53771 0.4019 0.0
H1502 H 0.16834 0.54097 0.42557 0.0
H1503 H 0.21349 0.58549 0.40347 0.0
H1504 H 0.27268 0.61562 0.48567 0.0
H1505 H 0.26308 0.59589 0.45534 0.0
C1506 C 0.26397 0.41339 0.01027 0.0
C1507 C 0.25375 0.39453 0.00957 0.0
C1508 C 0.26993 0.42312 0.99218 0.0
C1509 C 0.26656 0.41963 0.93473 0.0
H1510 H 0.32098 0.44328 0.93824 0.0
C1511 C 0.3272 0.42063 0.87044 0.0
C1512 C 0.33923 0.43829 0.86833 0.0
C1513 C 0.3122 0.41959 0.88567 0.0
C1514 C 0.3056 0.4371 0.93704 0.0
H1515 H 0.24131 0.37108 0.98971 0.0
H1516 H 0.25264 0.38735 0.95809 0.0
H1517 H 0.30334 0.43341 0.96936 0.0
H1518 H 0.34468 0.46905 0.87944 0.0
H1519 H 0.31862 0.46715 0.90647 0.0
H1520 H 0.26988 0.42197 0.90207 0.0
C1521 C 0.2554 0.39522 0.97243 0.0
C1522 C 0.29538 0.43149 0.95493 0.0
C1523 C 0.24899 0.38578 0.99054 0.0
C1524 C 0.33542 0.45533 0.88084 0.0
C1525 C 0.32063 0.45422 0.89626 0.0
C1526 C 0.27702 0.4249 0.91677 0.0
C1527 C 0.26639 0.41382 0.97302 0.0
C1528 C 0.27588 0.42227 0.95404 0.0
C1529 C 0.3093 0.43613 0.89916 0.0
C1530 C 0.29678 0.43334 0.91781 0.0
H1531 H 0.26761 0.42046 0.02486 0.0
H1532 H 0.27782 0.43768 0.99328 0.0
H1533 H 0.25141 0.41299 0.93342 0.0
H1534 H 0.33005 0.40733 0.86091 0.0
H1535 H 0.30383 0.4054 0.88776 0.0
C1536 C 0.12523 0.29437 0.14382 0.0
C1537 C 0.14095 0.30909 0.14417 0.0
C1538 C 0.11674 0.28713 0.16212 0.0
C1539 C 0.11347 0.29669 0.21828 0.0
H1540 H 0.10972 0.23745 0.22115 0.0
C1541 C 0.08651 0.25172 0.29075 0.0
C1542 C 0.09783 0.23396 0.2954 0.0
C1543 C 0.09004 0.26239 0.27245 0.0
C1544 C 0.11073 0.25401 0.22061 0.0
H1545 H 0.15926 0.32861 0.16395 0.0
H1546 H 0.1447 0.31578 0.19578 0.0
H1547 H 0.11791 0.2538 0.18869 0.0
H1548 H 0.12237 0.21408 0.28487 0.0
H1549 H 0.12858 0.23273 0.2533 0.0
H1550 H 0.10698 0.2967 0.25052 0.0
C1551 C 0.13879 0.30992 0.18141 0.0
C1552 C 0.11514 0.26342 0.20193 0.0
C1553 C 0.14726 0.31716 0.16313 0.0
C1554 C 0.11321 0.22756 0.28173 0.0
C1555 C 0.11669 0.23817 0.26353 0.0
C1556 C 0.109 0.28724 0.23703 0.0
C1557 C 0.12379 0.29446 0.18114 0.0
C1558 C 0.1169 0.28484 0.20059 0.0
C1559 C 0.1049 0.25546 0.25847 0.0
C1560 C 0.108 0.26578 0.23844 0.0
H1561 H 0.1199 0.28796 0.12947 0.0
H1562 H 0.10497 0.27545 0.16139 0.0
H1563 H 0.11453 0.31324 0.2177 0.0
H1564 H 0.07455 0.25706 0.30095 0.0
H1565 H 0.08071 0.27567 0.26894 0.0
C1566 C 0.47264 0.39241 0.88991 0.0
C1567 C 0.45163 0.39381 0.88542 0.0
C1568 C 0.47929 0.38343 0.90816 0.0
C1569 C 0.4618 0.37213 0.96069 0.0
H1570 H 0.51342 0.34279 0.96321 0.0
C1571 C 0.49836 0.34081 0.03633 0.0
C1572 C 0.51909 0.34626 0.03881 0.0
C1573 C 0.48836 0.34428 0.01762 0.0
C1574 C 0.49896 0.35094 0.96273 0.0
H1575 H 0.42112 0.3862 0.89627 0.0
H1576 H 0.4328 0.37019 0.92806 0.0
H1577 H 0.49905 0.35203 0.92999 0.0
H1578 H 0.54546 0.35973 0.02355 0.0
H1579 H 0.52811 0.36555 0.99115 0.0
H1580 H 0.46195 0.37113 0.99358 0.0
C1581 C 0.44411 0.37636 0.91759 0.0
C1582 C 0.49075 0.3563 0.94372 0.0
C1583 C 0.43743 0.38541 0.8993 0.0
C1584 C 0.5295 0.35533 0.02225 0.0
C1585 C 0.51962 0.35854 0.00359 0.0
C1586 C 0.46996 0.3666 0.97976 0.0
C1587 C 0.46512 0.37552 0.92236 0.0
C1588 C 0.47236 0.36747 0.94246 0.0
C1589 C 0.49901 0.35295 0.00101 0.0
C1590 C 0.4889 0.35646 0.98095 0.0
H1591 H 0.48399 0.39877 0.87961 0.0
H1592 H 0.49556 0.38336 0.91143 0.0
H1593 H 0.4477 0.38088 0.96032 0.0
H1594 H 0.48991 0.33381 0.04879 0.0
H1595 H 0.47244 0.33985 0.016 0.0
C1596 C 0.38176 0.76274 0.78097 0.0
C1597 C 0.40017 0.76112 0.79203 0.0
C1598 C 0.37831 0.75054 0.76375 0.0
C1599 C 0.40511 0.72485 0.72243 0.0
H1600 H 0.35225 0.69949 0.71248 0.0
C1601 C 0.37318 0.70556 0.64201 0.0
C1602 C 0.36165 0.6875 0.63975 0.0
C1603 C 0.38066 0.71134 0.66125 0.0
C1604 C 0.3672 0.70623 0.71512 0.0
H1605 H 0.42928 0.74516 0.79391 0.0
H1606 H 0.42332 0.72401 0.76344 0.0
H1607 H 0.35933 0.7151 0.74572 0.0
H1608 H 0.34996 0.66074 0.65574 0.0
H1609 H 0.36289 0.67094 0.68927 0.0
H1610 H 0.41271 0.71653 0.69154 0.0
C1611 C 0.41157 0.7347 0.76826 0.0
C1612 C 0.37117 0.7153 0.73408 0.0
C1613 C 0.41491 0.74671 0.78573 0.0
C1614 C 0.35865 0.67483 0.65695 0.0
C1615 C 0.36599 0.68069 0.67619 0.0
C1616 C 0.40104 0.71596 0.70334 0.0
C1617 C 0.39329 0.73663 0.75704 0.0
C1618 C 0.39003 0.725 0.73781 0.0
C1619 C 0.37664 0.69924 0.67863 0.0
C1620 C 0.38193 0.70683 0.6994 0.0
H1621 H 0.37007 0.77364 0.78546 0.0
H1622 H 0.36415 0.75249 0.75528 0.0
H1623 H 0.41972 0.73235 0.72487 0.0
H1624 H 0.37583 0.71561 0.62906 0.0
H1625 H 0.38871 0.72579 0.66269 0.0
C1626 C 0.02355 0.59564 0.39503 0.0
C1627 C 0.0447 0.59499 0.39113 0.0
C1628 C 0.01613 0.60372 0.41338 0.0
C1629 C 0.03192 0.61457 0.46666 0.0
H1630 H 0.97954 0.64263 0.46809 0.0
C1631 C 0.99394 0.64869 0.54032 0.0
C1632 C 0.97322 0.64328 0.5429 0.0
C1633 C 0.00425 0.64384 0.52213 0.0
C1634 C 0.99418 0.63479 0.4679 0.0
H1635 H 0.07468 0.60293 0.40316 0.0
H1636 H 0.06166 0.61753 0.43508 0.0
H1637 H 0.99476 0.63373 0.43519 0.0
H1638 H 0.94727 0.62807 0.52857 0.0
H1639 H 0.96519 0.61989 0.49695 0.0
H1640 H 0.0312 0.61583 0.49954 0.0
C1641 C 0.05083 0.61139 0.4241 0.0
C1642 C 0.00288 0.62962 0.44908 0.0
C1643 C 0.05828 0.60316 0.40575 0.0
C1644 C 0.96321 0.63251 0.52713 0.0
C1645 C 0.97341 0.62793 0.50894 0.0
C1646 C 0.02329 0.61997 0.48554 0.0
C1647 C 0.02967 0.61154 0.42823 0.0
C1648 C 0.02162 0.619 0.44821 0.0
C1649 C 0.99391 0.63378 0.50614 0.0
C1650 C 0.00412 0.6297 0.4863 0.0
H1651 H 0.01267 0.58938 0.38416 0.0
H1652 H -0.00023 0.60324 0.41615 0.0
H1653 H 0.04627 0.60623 0.46659 0.0
H1654 H 0.0021 0.65695 0.55219 0.0
H1655 H 0.02009 0.64849 0.5203 0.0
C1656 C 0.63049 0.18029 0.84554 0.0
C1657 C 0.6366 0.19453 0.86053 0.0
C1658 C 0.62174 0.18696 0.82712 0.0
C1659 C 0.59921 0.23302 0.80162 0.0
H1660 H 0.61948 0.20759 0.75185 0.0
C1661 C 0.60203 0.27471 0.72449 0.0
C1662 C 0.59419 0.26455 0.70717 0.0
C1663 C 0.60442 0.26435 0.74303 0.0
C1664 C 0.61346 0.21463 0.76563 0.0
H1665 H 0.63767 0.22687 0.86818 0.0
H1666 H 0.62294 0.23846 0.8361 0.0
H1667 H 0.62807 0.19266 0.78511 0.0
H1668 H 0.58305 0.23541 0.69567 0.0
H1669 H 0.5878 0.21709 0.7282 0.0
H1670 H 0.58553 0.25558 0.78208 0.0
C1671 C 0.62449 0.22213 0.83859 0.0
C1672 C 0.6183 0.20607 0.7847 0.0
C1673 C 0.6331 0.21548 0.85701 0.0
C1674 C 0.5891 0.24366 0.70875 0.0
C1675 C 0.59183 0.23317 0.7273 0.0
C1676 C 0.59462 0.24169 0.78261 0.0
C1677 C 0.61898 0.208 0.82326 0.0
C1678 C 0.61164 0.21545 0.80296 0.0
C1679 C 0.59929 0.24353 0.74465 0.0
C1680 C 0.60208 0.23284 0.76448 0.0
H1681 H 0.63291 0.16403 0.84783 0.0
H1682 H 0.61739 0.17563 0.81579 0.0
H1683 H 0.59339 0.24038 0.81531 0.0
H1684 H 0.60604 0.29081 0.72386 0.0
H1685 H 0.61045 0.27262 0.75611 0.0
C1686 C 0.53527 0.88458 0.60407 0.0
C1687 C 0.55599 0.88938 0.60735 0.0
C1688 C 0.52912 0.87467 0.58615 0.0
C1689 C 0.54521 0.86724 0.53262 0.0
H1690 H 0.49762 0.83162 0.53178 0.0
C1691 C 0.50644 0.83655 0.45788 0.0
C1692 C 0.48541 0.84127 0.45718 0.0
C1693 C 0.51754 0.83912 0.47611 0.0
C1694 C 0.51102 0.84144 0.53181 0.0
H1695 H 0.58668 0.88667 0.5948 0.0
H1696 H 0.57594 0.869 0.5636 0.0
H1697 H 0.51298 0.84113 0.56451 0.0
H1698 H 0.45951 0.85205 0.47509 0.0
H1699 H 0.47874 0.85617 0.50672 0.0
H1700 H 0.54291 0.8677 0.49981 0.0
C1701 C 0.5644 0.87326 0.57474 0.0
C1702 C 0.51976 0.84698 0.55053 0.0
C1703 C 0.57056 0.88328 0.59268 0.0
C1704 C 0.4757 0.84837 0.47505 0.0
C1705 C 0.48666 0.85057 0.49323 0.0
C1706 C 0.53657 0.86149 0.51385 0.0
C1707 C 0.54355 0.86916 0.5711 0.0
C1708 C 0.5365 0.86054 0.55121 0.0
C1709 C 0.50765 0.84599 0.49397 0.0
C1710 C 0.51899 0.84911 0.51335 0.0
H1711 H 0.52365 0.88908 0.61503 0.0
H1712 H 0.51289 0.87208 0.58377 0.0
H1713 H 0.55799 0.87784 0.53255 0.0
H1714 H 0.51433 0.83106 0.44435 0.0
H1715 H 0.53375 0.83554 0.47633 0.0
C1716 C 0.83656 0.80346 0.33365 0.0
C1717 C 0.84962 0.81488 0.3464 0.0
C1718 C 0.84342 0.79609 0.31481 0.0
C1719 C 0.89059 0.78413 0.28567 0.0
H1720 H 0.85209 0.78037 0.24049 0.0
C1721 C 0.91231 0.75234 0.20539 0.0
C1722 C 0.89936 0.73646 0.19868 0.0
C1723 C 0.90685 0.7644 0.22227 0.0
C1724 C 0.863 0.78137 0.25298 0.0
H1725 H 0.88016 0.82766 0.34929 0.0
H1726 H 0.8921 0.81513 0.31604 0.0
H1727 H 0.84177 0.79721 0.27219 0.0
H1728 H 0.87025 0.72125 0.20391 0.0
H1729 H 0.86058 0.74256 0.23305 0.0
H1730 H 0.91182 0.76828 0.2662 0.0
C1731 C 0.87661 0.81157 0.32082 0.0
C1732 C 0.85709 0.79089 0.27119 0.0
C1733 C 0.86976 0.81881 0.33984 0.0
C1734 C 0.88058 0.73333 0.20875 0.0
C1735 C 0.87499 0.74558 0.22536 0.0
C1736 C 0.89659 0.77481 0.26731 0.0
C1737 C 0.86349 0.80012 0.30806 0.0
C1738 C 0.87062 0.79194 0.28797 0.0
C1739 C 0.88818 0.76104 0.23246 0.0
C1740 C 0.88268 0.77294 0.25098 0.0
H1741 H 0.82099 0.79999 0.33829 0.0
H1742 H 0.83302 0.78691 0.30569 0.0
H1743 H 0.90136 0.78446 0.2983 0.0
H1744 H 0.92692 0.75508 0.19799 0.0
H1745 H 0.91724 0.77629 0.22742 0.0
C1746 C 0.01866 0.12653 0.95988 0.0
C1747 C 0.01557 0.14539 0.94994 0.0
C1748 C 0.00683 0.12113 0.97686 0.0
C1749 C 0.97973 0.14363 0.01975 0.0
H1750 H 0.95752 0.08895 0.02673 0.0
C1751 C 0.93873 0.11799 0.09453 0.0
C1752 C 0.94279 0.09791 0.1012 0.0
C1753 C 0.94541 0.1246 0.07522 0.0
C1754 C 0.9638 0.10423 0.02513 0.0
H1755 H 0.99732 0.17319 0.94974 0.0
H1756 H 0.97682 0.1638 0.97977 0.0
H1757 H 0.97271 0.0987 0.99402 0.0
H1758 H 0.95749 0.06921 0.09307 0.0
H1759 H 0.96961 0.08084 0.05992 0.0
H1760 H 0.97167 0.14894 0.0511 0.0
C1761 C 0.98837 0.15323 0.97426 0.0
C1762 C 0.97237 0.10982 0.00634 0.0
C1763 C 0.0 0.15851 0.95703 0.0
C1764 C 0.95394 0.08473 0.08834 0.0
C1765 C 0.96074 0.09136 0.0692 0.0
C1766 C 0.97135 0.13796 0.03866 0.0
C1767 C 0.99183 0.13457 0.98444 0.0
C1768 C 0.98073 0.12945 0.00358 0.0
C1769 C 0.9564 0.11129 0.06226 0.0
C1770 C 0.96364 0.11805 0.0417 0.0
H1771 H 0.0305 0.11608 0.95477 0.0
H1772 H 0.00993 0.10672 0.98452 0.0
H1773 H 0.98625 0.15881 0.01806 0.0
H1774 H 0.93007 0.12847 0.10405 0.0
H1775 H 0.94166 0.14 0.07032 0.0
C1776 C 0.29153 0.09003 0.25114 0.0
C1777 C 0.29738 0.10149 0.23383 0.0
C1778 C 0.27319 0.09439 0.26138 0.0
C1779 C 0.22301 0.11894 0.25209 0.0
H1780 H 0.21706 0.11583 0.31114 0.0
C1781 C 0.1442 0.12914 0.28976 0.0
C1782 C 0.14355 0.14198 0.30703 0.0
C1783 C 0.16295 0.12198 0.28227 0.0
C1784 C 0.21849 0.11683 0.29463 0.0
H1785 H 0.2891 0.12723 0.21444 0.0
H1786 H 0.25751 0.13507 0.23252 0.0
H1787 H 0.25044 0.10922 0.29552 0.0
H1788 H 0.162 0.15658 0.33055 0.0
H1789 H 0.19466 0.14446 0.31725 0.0
H1790 H 0.19138 0.12724 0.25113 0.0
C1791 C 0.26674 0.12235 0.23785 0.0
C1792 C 0.23758 0.11285 0.28567 0.0
C1793 C 0.28496 0.11794 0.22757 0.0
C1794 C 0.16196 0.14674 0.31719 0.0
C1795 C 0.18071 0.13968 0.30962 0.0
C1796 C 0.20401 0.12296 0.26102 0.0
C1797 C 0.26038 0.11034 0.25458 0.0
C1798 C 0.2401 0.11407 0.26429 0.0
C1799 C 0.18147 0.1276 0.29179 0.0
C1800 C 0.20151 0.12208 0.2824 0.0
H1801 H 0.30073 0.07723 0.25635 0.0
H1802 H 0.2687 0.08478 0.27415 0.0
H1803 H 0.22429 0.11965 0.23555 0.0
H1804 H 0.13028 0.12502 0.2817 0.0
H1805 H 0.16294 0.11233 0.26876 0.0
C1806 C 0.66751 0.53862 0.01181 0.0
C1807 C 0.65579 0.541 0.99384 0.0
C1808 C 0.66688 0.52016 0.02285 0.0
C1809 C 0.65545 0.46558 0.01513 0.0
H1810 H 0.64274 0.46304 0.07315 0.0
C1811 C 0.61289 0.39866 0.05068 0.0
C1812 C 0.61906 0.39078 0.06973 0.0
C1813 C 0.62217 0.4161 0.04264 0.0
C1814 C 0.64676 0.46351 0.05704 0.0
H1815 H 0.63372 0.52605 0.97384 0.0
H1816 H 0.63272 0.49425 0.99292 0.0
H1817 H 0.64988 0.49629 0.05704 0.0
H1818 H 0.63992 0.39486 0.09528 0.0
H1819 H 0.65604 0.42593 0.08122 0.0
H1820 H 0.65146 0.43305 0.01482 0.0
C1821 C 0.64261 0.50645 0.99835 0.0
C1822 C 0.6508 0.48251 0.04784 0.0
C1823 C 0.64309 0.52479 0.9875 0.0
C1824 C 0.63497 0.40057 0.08049 0.0
C1825 C 0.64409 0.41835 0.07253 0.0
C1826 C 0.65142 0.4467 0.02427 0.0
C1827 C 0.65472 0.50377 0.01593 0.0
C1828 C 0.65435 0.48374 0.02663 0.0
C1829 C 0.63771 0.42626 0.05352 0.0
C1830 C 0.64623 0.44556 0.04512 0.0
H1831 H 0.67743 0.55082 0.01713 0.0
H1832 H 0.67628 0.51849 0.03644 0.0
H1833 H 0.65858 0.46606 0.99883 0.0
H1834 H 0.6007 0.39144 0.04201 0.0
H1835 H 0.61673 0.42201 0.02809 0.0
C1836 C 0.20744 0.92178 0.75744 0.0
C1837 C 0.20077 0.90551 0.74499 0.0
C1838 C 0.22368 0.9189 0.77121 0.0
C1839 C 0.25313 0.87963 0.79876 0.0
H1840 H 0.30132 0.91242 0.78699 0.0
C1841 C 0.33344 0.8483 0.81071 0.0
C1842 C 0.34943 0.86115 0.81728 0.0
C1843 C 0.31416 0.85628 0.80631 0.0
C1844 C 0.28792 0.90343 0.79088 0.0
H1845 H 0.20489 0.87333 0.73791 0.0
H1846 H 0.23271 0.86817 0.76229 0.0
H1847 H 0.26824 0.92206 0.77226 0.0
H1848 H 0.35762 0.89255 0.82449 0.0
H1849 H 0.32364 0.90659 0.81676 0.0
H1850 H 0.27273 0.86065 0.81688 0.0
C1851 C 0.22561 0.88315 0.76132 0.0
C1852 C 0.26899 0.90896 0.78244 0.0
C1853 C 0.20978 0.88613 0.7473 0.0
C1854 C 0.34563 0.88226 0.81939 0.0
C1855 C 0.3262 0.8903 0.81496 0.0
C1856 C 0.27195 0.87423 0.80735 0.0
C1857 C 0.23303 0.89959 0.77305 0.0
C1858 C 0.25164 0.89661 0.78565 0.0
C1859 C 0.31023 0.87734 0.80843 0.0
C1860 C 0.28974 0.88552 0.80276 0.0
H1861 H 0.20079 0.93691 0.75583 0.0
H1862 H 0.2292 0.93179 0.78009 0.0
H1863 H 0.23989 0.87001 0.80163 0.0
H1864 H 0.33579 0.83197 0.80884 0.0
H1865 H 0.3024 0.84591 0.80083 0.0
C1866 C 0.83241 0.45584 0.50561 0.0
C1867 C 0.8372 0.45545 0.48458 0.0
C1868 C 0.83438 0.47406 0.51684 0.0
C1869 C 0.83459 0.52977 0.51075 0.0
H1870 H 0.87182 0.53181 0.55702 0.0
C1871 C 0.87587 0.60341 0.53395 0.0
C1872 C 0.88118 0.60683 0.55452 0.0
C1873 C 0.86626 0.58522 0.5281 0.0
C1874 C 0.86098 0.5315 0.54446 0.0
H1875 H 0.84747 0.4739 0.45884 0.0
H1876 H 0.85051 0.50549 0.47829 0.0
H1877 H 0.86263 0.49874 0.54207 0.0
H1878 H 0.87965 0.59428 0.58529 0.0
H1879 H 0.86251 0.56259 0.57509 0.0
H1880 H 0.8331 0.56243 0.51277 0.0
C1881 C 0.84535 0.49177 0.4861 0.0
C1882 C 0.85577 0.51254 0.53589 0.0
C1883 C 0.84377 0.47361 0.47502 0.0
C1884 C 0.87585 0.59204 0.56928 0.0
C1885 C 0.86614 0.57383 0.56342 0.0
C1886 C 0.83958 0.54867 0.51942 0.0
C1887 C 0.84068 0.4922 0.50708 0.0
C1888 C 0.84312 0.51161 0.51852 0.0
C1889 C 0.86159 0.57003 0.54269 0.0
C1890 C 0.85345 0.54984 0.53589 0.0
H1891 H 0.82732 0.44207 0.51338 0.0
H1892 H 0.83077 0.47405 0.53305 0.0
H1893 H 0.82457 0.52939 0.4975 0.0
H1894 H 0.87976 0.61445 0.52218 0.0
H1895 H 0.86331 0.58274 0.51195 0.0
C1896 C 0.78771 0.41257 0.74829 0.0
C1897 C 0.79233 0.40134 0.76611 0.0
C1898 C 0.76971 0.40856 0.73728 0.0
C1899 C 0.71826 0.38683 0.74538 0.0
H1900 H 0.71498 0.38476 0.68608 0.0
C1901 C 0.64115 0.37369 0.70527 0.0
C1902 C 0.64128 0.35857 0.68995 0.0
C1903 C 0.65955 0.38185 0.71263 0.0
C1904 C 0.71567 0.38531 0.70266 0.0
H1905 H 0.78228 0.37628 0.78561 0.0
H1906 H 0.75126 0.36919 0.76634 0.0
H1907 H 0.74788 0.39198 0.70263 0.0
H1908 H 0.66079 0.34101 0.66951 0.0
H1909 H 0.6928 0.35497 0.68255 0.0
H1910 H 0.68637 0.37952 0.7456 0.0
C1911 C 0.76122 0.38142 0.76113 0.0
C1912 C 0.73447 0.38959 0.71211 0.0
C1913 C 0.77911 0.38541 0.7721 0.0
C1914 C 0.66014 0.35256 0.68141 0.0
C1915 C 0.67852 0.36068 0.68878 0.0
C1916 C 0.69954 0.38261 0.73598 0.0
C1917 C 0.75603 0.39327 0.74392 0.0
C1918 C 0.73601 0.39002 0.73359 0.0
C1919 C 0.67847 0.37505 0.70483 0.0
C1920 C 0.69805 0.38151 0.71452 0.0
H1921 H 0.79758 0.42495 0.74327 0.0
H1922 H 0.7661 0.41794 0.72406 0.0
H1923 H 0.71887 0.38742 0.76197 0.0
H1924 H 0.62688 0.3788 0.71204 0.0
H1925 H 0.65898 0.39317 0.72475 0.0
C1926 C 0.37012 0.90279 0.4262 0.0
C1927 C 0.39034 0.89664 0.43041 0.0
C1928 C 0.36331 0.92236 0.4319 0.0
C1929 C 0.38331 0.97359 0.44687 0.0
H1930 H 0.33065 0.98048 0.47352 0.0
C1931 C 0.36621 0.03757 0.50419 0.0
C1932 C 0.3474 0.04796 0.5029 0.0
C1933 C 0.37025 0.02085 0.49153 0.0
C1934 C 0.34524 0.97884 0.46577 0.0
H1935 H 0.41912 0.90605 0.44426 0.0
H1936 H 0.40722 0.93965 0.45448 0.0
H1937 H 0.33968 0.94726 0.45868 0.0
H1938 H 0.31817 0.0492 0.48709 0.0
H1939 H 0.32514 0.01946 0.46515 0.0
H1940 H 0.38926 0.00484 0.45489 0.0
C1941 C 0.39671 0.92971 0.44633 0.0
C1942 C 0.35041 0.95985 0.45726 0.0
C1943 C 0.40349 0.91031 0.44061 0.0
C1944 C 0.33284 0.04153 0.48835 0.0
C1945 C 0.33676 0.0245 0.47589 0.0
C1946 C 0.37822 0.99245 0.45552 0.0
C1947 C 0.37663 0.93609 0.44189 0.0
C1948 C 0.36978 0.95685 0.44827 0.0
C1949 C 0.35545 0.01395 0.4775 0.0
C1950 C 0.35938 0.99509 0.46554 0.0
H1951 H 0.35964 0.89262 0.4183 0.0
H1952 H 0.34776 0.92684 0.42823 0.0
H1953 H 0.39813 0.97195 0.43957 0.0
H1954 H 0.37775 0.04221 0.51521 0.0
H1955 H 0.38471 0.01286 0.49322 0.0
C1956 C 0.84021 0.6432 0.17572 0.0
C1957 C 0.85733 0.63985 0.1884 0.0
C1958 C 0.82097 0.63556 0.18114 0.0
C1959 C 0.79375 0.59902 0.21482 0.0
H1960 H 0.75086 0.64021 0.21455 0.0
C1961 C 0.71105 0.58323 0.24387 0.0
C1962 C 0.70455 0.59737 0.25878 0.0
C1963 C 0.72858 0.58716 0.23211 0.0
C1964 C 0.76264 0.6285 0.21456 0.0
H1965 H 0.86787 0.62478 0.21611 0.0
H1966 H 0.8342 0.61139 0.22557 0.0
H1967 H 0.78429 0.64821 0.19981 0.0
H1968 H 0.71073 0.62706 0.27241 0.0
H1969 H 0.74097 0.63403 0.25168 0.0
H1970 H 0.77216 0.57953 0.23016 0.0
C1971 C 0.83572 0.61995 0.21142 0.0
C1972 C 0.78172 0.63302 0.20601 0.0
C1973 C 0.85498 0.62772 0.20605 0.0
C1974 C 0.71539 0.61583 0.2611 0.0
C1975 C 0.73265 0.61988 0.24916 0.0
C1976 C 0.77455 0.59442 0.22319 0.0
C1977 C 0.81843 0.62425 0.19928 0.0
C1978 C 0.79762 0.61848 0.20641 0.0
C1979 C 0.73962 0.60546 0.2348 0.0
C1980 C 0.75897 0.60929 0.22354 0.0
H1981 H 0.84147 0.65234 0.16191 0.0
H1982 H 0.80797 0.63888 0.17136 0.0
H1983 H 0.80569 0.58748 0.21521 0.0
H1984 H 0.70303 0.56883 0.2418 0.0
H1985 H 0.73361 0.57584 0.22106 0.0
C1986 C 0.1615 0.95787 0.9985 0.0
C1987 C 0.15599 0.95648 0.01931 0.0
C1988 C 0.15827 0.9761 0.9876 0.0
C1989 C 0.15305 0.03136 0.99515 0.0
H1990 H 0.12012 0.03183 0.94567 0.0
C1991 C 0.11092 0.10333 0.96822 0.0
C1992 C 0.10783 0.10679 0.9472 0.0
C1993 C 0.12031 0.08537 0.97502 0.0
C1994 C 0.12973 0.03199 0.95921 0.0
H1995 H 0.14285 0.97315 0.04495 0.0
H1996 H 0.13756 0.00481 0.02606 0.0
H1997 H 0.13009 -0.00086 0.96103 0.0
H1998 H 0.11293 0.09445 0.91674 0.0
H1999 H 0.12972 0.06316 0.92865 0.0
H2000 H 0.15266 0.06406 0.99359 0.0
C2001 C 0.14432 0.99185 0.01818 0.0
C2002 C 0.13537 0.01325 0.968 0.0
C2003 C 0.14721 0.97363 0.02894 0.0
C2004 C 0.11502 0.0922 0.93306 0.0
C2005 C 0.12452 0.07421 0.93988 0.0
C2006 C 0.14763 0.05004 0.98626 0.0
C2007 C 0.14988 0.99331 0.99746 0.0
C2008 C 0.14653 0.01282 0.98639 0.0
C2009 C 0.12699 0.07044 0.96097 0.0
C2010 C 0.13534 0.05062 0.96856 0.0
H2011 H 0.16826 0.9449 0.99066 0.0
H2012 H 0.16263 0.97689 0.97159 0.0
H2013 H 0.16194 0.0314 0.00918 0.0
H2014 H 0.10553 0.11421 0.97953 0.0
H2015 H 0.12161 0.08288 0.99138 0.0
C2016 C 0.32338 0.16004 0.14283 0.0
C2017 C 0.31039 0.14302 0.14019 0.0
C2018 C 0.31768 0.17931 0.13549 0.0
C2019 C 0.28268 0.20681 0.10067 0.0
H2020 H 0.28436 0.24939 0.14216 0.0
C2021 C 0.25461 0.28989 0.08599 0.0
C2022 C 0.24002 0.2966 0.10037 0.0
C2023 C 0.2661 0.27216 0.08967 0.0
C2024 C 0.28394 0.23769 0.13039 0.0
H2025 H 0.28184 0.13267 0.12664 0.0
H2026 H 0.27196 0.16639 0.11368 0.0
H2027 H 0.29922 0.21583 0.14947 0.0
H2028 H 0.22668 0.29052 0.13022 0.0
H2029 H 0.24702 0.25988 0.13677 0.0
H2030 H 0.26693 0.22863 0.08179 0.0
C2031 C 0.28653 0.16476 0.1215 0.0
C2032 C 0.29256 0.21855 0.1345 0.0
C2033 C 0.29214 0.14548 0.12901 0.0
C2034 C 0.23776 0.28572 0.11882 0.0
C2035 C 0.24946 0.26823 0.12262 0.0
C2036 C 0.27428 0.22608 0.09646 0.0
C2037 C 0.29898 0.18196 0.12517 0.0
C2038 C 0.29168 0.20279 0.11983 0.0
C2039 C 0.26348 0.26108 0.10795 0.0
C2040 C 0.27447 0.24155 0.11145 0.0
H2041 H 0.33762 0.15868 0.15125 0.0
H2042 H 0.32768 0.19226 0.13831 0.0
H2043 H 0.2819 0.19496 0.08907 0.0
H2044 H 0.25663 0.29792 0.07159 0.0
H2045 H 0.2769 0.267 0.07816 0.0
C2046 C 0.77266 0.35523 0.85531 0.0
C2047 C 0.79373 0.35954 0.85454 0.0
C2048 C 0.76562 0.33678 0.86351 0.0
C2049 C 0.78249 0.28381 0.87404 0.0
H2050 H 0.7301 0.28099 0.90197 0.0
C2051 C 0.74588 0.20858 0.90608 0.0
C2052 C 0.72523 0.20573 0.90052 0.0
C2053 C 0.75579 0.22718 0.90196 0.0
C2054 C 0.74475 0.28156 0.89417 0.0
H2055 H 0.82395 0.34814 0.86247 0.0
H2056 H 0.8116 0.31602 0.87723 0.0
H2057 H 0.74471 0.3143 0.89348 0.0
H2058 H 0.69896 0.22011 0.88593 0.0
H2059 H 0.71618 0.25241 0.87899 0.0
H2060 H 0.78238 0.25092 0.87484 0.0
C2061 C 0.80054 0.32677 0.8711 0.0
C2062 C 0.7531 0.30062 0.88924 0.0
C2063 C 0.8076 0.34524 0.86278 0.0
C2064 C 0.71486 0.22173 0.89045 0.0
C2065 C 0.72465 0.24032 0.88659 0.0
C2066 C 0.7742 0.2647 0.87918 0.0
C2067 C 0.77946 0.3222 0.8713 0.0
C2068 C 0.77183 0.30199 0.87865 0.0
C2069 C 0.74512 0.24332 0.89249 0.0
C2070 C 0.75502 0.26342 0.88885 0.0
H2071 H 0.76155 0.36585 0.84902 0.0
H2072 H 0.74931 0.33368 0.86307 0.0
H2073 H 0.79684 0.28426 0.86571 0.0
H2074 H 0.75431 0.19655 0.91383 0.0
H2075 H 0.7716 0.22914 0.90664 0.0
C2076 C 0.39444 0.03677 0.61327 0.0
C2077 C 0.39391 0.05322 0.59939 0.0
C2078 C 0.41315 0.02953 0.62083 0.0
C2079 C 0.46865 0.04203 0.6256 0.0
H2080 H 0.47459 0.98292 0.62593 0.0
C2081 C 0.53528 0.97534 0.62766 0.0
C2082 C 0.54754 0.98208 0.64405 0.0
C2083 C 0.51708 0.98545 0.6228 0.0
C2084 C 0.47325 -0.00054 0.62579 0.0
H2085 H 0.41258 0.07555 0.58324 0.0
H2086 H 0.44513 0.06272 0.59613 0.0
H2087 H 0.44164 0.998 0.61739 0.0
H2088 H 0.55069 0.00529 0.66765 0.0
H2089 H 0.51869 0.02287 0.65923 0.0
H2090 H 0.50055 0.04338 0.63339 0.0
C2091 C 0.43112 0.05553 0.60138 0.0
C2092 C 0.45424 0.00812 0.6212 0.0
C2093 C 0.41243 0.0628 0.59387 0.0
C2094 C 0.5416 -0.00028 0.65492 0.0
C2095 C 0.52328 0.00982 0.65007 0.0
C2096 C 0.48772 0.03334 0.63019 0.0
C2097 C 0.43174 0.03855 0.61464 0.0
C2098 C 0.45172 0.02951 0.62087 0.0
C2099 C 0.51059 0.00248 0.63425 0.0
C2100 C 0.49029 0.01195 0.63009 0.0
H2101 H 0.38045 0.02916 0.61797 0.0
H2102 H 0.41306 0.01666 0.63132 0.0
H2103 H 0.46718 0.05856 0.62567 0.0
H2104 H 0.53948 0.96194 0.61881 0.0
H2105 H 0.50793 0.97971 0.61019 0.0
C2106 C 0.68079 0.65012 0.38056 0.0
C2107 C 0.6831 0.64561 0.35961 0.0
C2108 C 0.68561 0.66968 0.38806 0.0
C2109 C 0.69395 0.72318 0.37025 0.0
H2110 H 0.72725 0.72886 0.41915 0.0
C2111 C 0.75047 0.78867 0.383 0.0
C2112 C 0.75161 0.79801 0.40235 0.0
C2113 C 0.73774 0.77181 0.37984 0.0
C2114 C 0.7176 0.72754 0.4057 0.0
H2115 H 0.69257 0.65803 0.3302 0.0
H2116 H 0.70125 0.69163 0.34322 0.0
H2117 H 0.71336 0.69525 0.40998 0.0
H2118 H 0.74001 0.79734 0.43349 0.0
H2119 H 0.71798 0.76729 0.42802 0.0
H2120 H 0.69917 0.75521 0.36536 0.0
C2121 C 0.69527 0.68035 0.35385 0.0
C2122 C 0.70964 0.70832 0.40044 0.0
C2123 C 0.69047 0.66095 0.3464 0.0
C2124 C 0.73933 0.79048 0.41839 0.0
C2125 C 0.72684 0.77328 0.41531 0.0
C2126 C 0.70203 0.74229 0.3754 0.0
C2127 C 0.69277 0.68505 0.37471 0.0
C2128 C 0.69833 0.70581 0.38225 0.0
C2129 C 0.7261 0.76371 0.39603 0.0
C2130 C 0.71446 0.74451 0.39281 0.0
H2131 H 0.67509 0.63864 0.39112 0.0
H2132 H 0.6835 0.67285 0.40422 0.0
H2133 H 0.68484 0.72188 0.35642 0.0
H2134 H 0.75972 0.79418 0.37035 0.0
H2135 H 0.73761 0.7646 0.36488 0.0
C2136 C 0.96018 0.98554 0.17271 0.0
C2137 C 0.95351 0.99799 0.15643 0.0
C2138 C 0.97679 0.9722 0.17003 0.0
C2139 C 0.00711 0.94531 0.13109 0.0
H2140 H 0.05454 0.9565 0.16518 0.0
C2141 C 0.08814 0.93229 0.10195 0.0
C2142 C 0.1037 0.92563 0.11527 0.0
C2143 C 0.06869 0.93694 0.10937 0.0
C2144 C 0.04135 0.95278 0.15581 0.0
H2145 H 0.95814 0.0055 0.12439 0.0
H2146 H 0.98663 0.98185 0.11958 0.0
H2147 H 0.02133 0.97143 0.17405 0.0
H2148 H 0.11093 0.91847 0.14693 0.0
H2149 H 0.07666 0.9266 0.15999 0.0
H2150 H 0.02703 0.9271 0.11256 0.0
C2151 C 0.97923 0.98253 0.13443 0.0
C2152 C 0.02235 0.96134 0.1609 0.0
C2153 C 0.96301 0.99614 0.13721 0.0
C2154 C 0.09929 0.92364 0.13628 0.0
C2155 C 0.07969 0.92831 0.14376 0.0
C2156 C 0.02599 0.9366 0.12613 0.0
C2157 C 0.98654 0.97074 0.15089 0.0
C2158 C 0.00528 0.9583 0.14811 0.0
C2159 C 0.06416 0.93499 0.13034 0.0
C2160 C 0.04352 0.94094 0.13793 0.0
H2161 H 0.95317 0.98678 0.18771 0.0
H2162 H 0.9822 0.96325 0.18294 0.0
H2163 H 0.9941 0.94256 0.12114 0.0
H2164 H 0.09096 0.93407 0.08568 0.0
H2165 H 0.05731 0.94252 0.09865 0.0
C2166 C 0.25162 0.70777 0.58525 0.0
C2167 C 0.26764 0.70077 0.59788 0.0
C2168 C 0.24075 0.72554 0.59033 0.0
C2169 C 0.22773 0.75936 0.63334 0.0
H2170 H 0.22363 0.80227 0.59238 0.0
C2171 C 0.20818 0.84171 0.65602 0.0
C2172 C 0.19538 0.85334 0.6432 0.0
C2173 C 0.21564 0.82274 0.64964 0.0
C2174 C 0.22432 0.79035 0.6039 0.0
H2175 H 0.28431 0.7065 0.62609 0.0
H2176 H 0.26513 0.73725 0.63508 0.0
H2177 H 0.23815 0.76903 0.58306 0.0
H2178 H 0.18058 0.85433 0.61347 0.0
H2179 H 0.19335 0.82087 0.60239 0.0
H2180 H 0.21388 0.78043 0.6542 0.0
C2181 C 0.26105 0.72906 0.62122 0.0
C2182 C 0.23266 0.77133 0.59856 0.0
C2183 C 0.27209 0.7115 0.61601 0.0
C2184 C 0.1905 0.84575 0.62365 0.0
C2185 C 0.19785 0.8266 0.6173 0.0
C2186 C 0.21922 0.77825 0.63863 0.0
C2187 C 0.24548 0.73642 0.6083 0.0
C2188 C 0.2348 0.75581 0.61335 0.0
C2189 C 0.21032 0.81476 0.63035 0.0
C2190 C 0.21783 0.79415 0.62411 0.0
H2191 H 0.24786 0.69987 0.57113 0.0
H2192 H 0.22872 0.73084 0.58018 0.0
H2193 H 0.22892 0.74754 0.64496 0.0
H2194 H 0.21242 0.84721 0.67111 0.0
H2195 H 0.22565 0.81435 0.65989 0.0
C2196 C 0.03754 0.49177 0.33332 0.0
C2197 C 0.04293 0.50847 0.34586 0.0
C2198 C 0.01919 0.48111 0.33673 0.0
C2199 C 0.96857 0.4892 0.36057 0.0
H2200 H 0.96316 0.43003 0.35879 0.0
C2201 C 0.90242 0.44739 0.3992 0.0
C2202 C 0.8921 0.43196 0.38827 0.0
C2203 C 0.92035 0.456 0.3915 0.0
C2204 C 0.96442 0.44658 0.35901 0.0
H2205 H 0.03396 0.52622 0.37253 0.0
H2206 H 0.00244 0.5075 0.37864 0.0
H2207 H 0.99623 0.44598 0.35058 0.0
H2208 H 0.89263 0.4133 0.36077 0.0
H2209 H 0.92447 0.42836 0.34736 0.0
H2210 H 0.93707 0.48985 0.36957 0.0
C2211 C 0.01198 0.50298 0.36582 0.0
C2212 C 0.98331 0.4557 0.35435 0.0
C2213 C 0.03015 0.51362 0.3624 0.0
C2214 C 0.90021 0.42525 0.36946 0.0
C2215 C 0.91843 0.43375 0.36185 0.0
C2216 C 0.94984 0.48012 0.3653 0.0
C2217 C 0.00599 0.48697 0.35272 0.0
C2218 C 0.98569 0.47709 0.35562 0.0
C2219 C 0.92855 0.44931 0.37279 0.0
C2220 C 0.9477 0.45873 0.36507 0.0
H2221 H 0.04707 0.48743 0.32044 0.0
H2222 H 0.01498 0.46882 0.32639 0.0
H2223 H 0.96972 0.50575 0.36111 0.0
H2224 H 0.8966 0.45291 0.41374 0.0
H2225 H 0.92799 0.46779 0.40038 0.0
C2226 C 0.58595 0.54977 0.91015 0.0
C2227 C 0.59764 0.56335 0.8982 0.0
C2228 C 0.56713 0.54252 0.90312 0.0
C2229 C 0.53607 0.53518 0.85639 0.0
H2230 H 0.49279 0.52658 0.89627 0.0
C2231 C 0.45597 0.50231 0.83532 0.0
C2232 C 0.45042 0.48521 0.84724 0.0
C2233 C 0.4726 0.5146 0.84105 0.0
C2234 C 0.50473 0.52895 0.88497 0.0
H2235 H 0.59878 0.57989 0.86939 0.0
H2236 H 0.56557 0.5674 0.85717 0.0
H2237 H 0.5246 0.5431 0.9068 0.0
H2238 H 0.45745 0.46806 0.87486 0.0
H2239 H 0.48613 0.48971 0.88501 0.0
H2240 H 0.51601 0.52089 0.8346 0.0
C2241 C 0.57116 0.56219 0.8719 0.0
C2242 C 0.52299 0.5383 0.89099 0.0
C2243 C 0.59016 0.56937 0.87891 0.0
C2244 C 0.46136 0.48109 0.86533 0.0
C2245 C 0.47772 0.49354 0.8712 0.0
C2246 C 0.51765 0.52599 0.85031 0.0
C2247 C 0.55935 0.54879 0.88403 0.0
C2248 C 0.53912 0.54101 0.87692 0.0
C2249 C 0.48369 0.51023 0.85899 0.0
C2250 C 0.50204 0.52234 0.86468 0.0
H2251 H 0.59133 0.54466 0.925 0.0
H2252 H 0.55875 0.53181 0.91265 0.0
H2253 H 0.54819 0.5369 0.84519 0.0
H2254 H 0.44788 0.50582 0.82125 0.0
H2255 H 0.47687 0.52745 0.83143 0.0
C2256 C 0.94603 0.09808 0.20384 0.0
C2257 C 0.93301 0.0817 0.20898 0.0
C2258 C 0.95677 0.1086 0.21906 0.0
C2259 C 0.96086 0.11802 0.27484 0.0
H2260 H 0.01856 0.12458 0.26213 0.0
C2261 C 0.0437 0.14022 0.3147 0.0
C2262 C 0.03884 0.15904 0.324 0.0
C2263 C 0.02911 0.12976 0.30309 0.0
C2264 C 0.00253 0.12268 0.26602 0.0
H2265 H 0.92004 0.06446 0.23434 0.0
H2266 H 0.9389 0.08282 0.26088 0.0
H2267 H 0.99567 0.10995 0.23666 0.0
H2268 H 0.01428 0.18075 0.32974 0.0
H2269 H 0.98883 0.16248 0.3093 0.0
H2270 H 0.96794 0.1307 0.30437 0.0
C2271 C 0.94076 0.08751 0.24506 0.0
C2272 C 0.98935 0.11459 0.2513 0.0
C2273 C 0.93001 0.07693 0.22982 0.0
C2274 C 0.01859 0.16635 0.32269 0.0
C2275 C 0.00396 0.15586 0.31103 0.0
C2276 C 0.97409 0.12628 0.2896 0.0
C2277 C 0.95473 0.10302 0.23977 0.0
C2278 C 0.96837 0.11219 0.25549 0.0
C2279 C 0.00932 0.13786 0.30049 0.0
C2280 C 0.99509 0.12861 0.28534 0.0
H2281 H 0.94855 0.10233 0.18798 0.0
H2282 H 0.96712 0.12078 0.21456 0.0
H2283 H 0.94474 0.11638 0.27848 0.0
H2284 H 0.05907 0.13399 0.31559 0.0
H2285 H 0.03354 0.11567 0.29551 0.0
C2286 C 0.60806 0.28851 0.06794 0.0
C2287 C 0.58856 0.2855 0.07663 0.0
C2288 C 0.61804 0.27247 0.05796 0.0
C2289 C 0.61993 0.21711 0.048 0.0
H2290 H 0.63155 0.23433 0.99225 0.0
C2291 C 0.63876 0.18253 0.96261 0.0
C2292 C 0.65762 0.17255 0.96564 0.0
C2293 C 0.62951 0.19325 0.97861 0.0
C2294 C 0.62832 0.22929 0.00775 0.0
H2295 H 0.56522 0.26275 0.08339 0.0
H2296 H 0.58283 0.23469 0.06595 0.0
H2297 H 0.61918 0.25929 0.01703 0.0
H2298 H 0.68058 0.16447 0.98836 0.0
H2299 H 0.66417 0.18317 0.0164 0.0
H2300 H 0.62934 0.18698 0.03845 0.0
C2301 C 0.59024 0.24952 0.06682 0.0
C2302 C 0.62147 0.2436 0.02198 0.0
C2303 C 0.58015 0.26563 0.07674 0.0
C2304 C 0.66612 0.1721 0.98547 0.0
C2305 C 0.65673 0.18273 0.00156 0.0
C2306 C 0.62717 0.20276 0.03374 0.0
C2307 C 0.60883 0.25307 0.0566 0.0
C2308 C 0.61715 0.23768 0.04221 0.0
C2309 C 0.63879 0.19406 0.99799 0.0
C2310 C 0.63118 0.20875 0.01344 0.0
H2311 H 0.61514 0.30352 0.06779 0.0
H2312 H 0.63253 0.27549 0.05042 0.0
H2313 H 0.61663 0.21221 0.06352 0.0
H2314 H 0.63164 0.18304 0.94762 0.0
H2315 H 0.61553 0.20169 0.97559 0.0
C2316 C 0.57094 0.9215 0.73087 0.0
C2317 C 0.57221 0.91273 0.71119 0.0
C2318 C 0.55893 0.91232 0.7461 0.0
C2319 C 0.51307 0.88073 0.74965 0.0
H2320 H 0.52643 0.875 0.80731 0.0
C2321 C 0.47766 0.83516 0.82213 0.0
C2322 C 0.45682 0.84001 0.81944 0.0
C2323 C 0.49283 0.846 0.81155 0.0
C2324 C 0.52253 0.87656 0.79125 0.0
H2325 H 0.56319 0.88658 0.69267 0.0
H2326 H 0.54241 0.87067 0.71921 0.0
H2327 H 0.55224 0.88842 0.78341 0.0
H2328 H 0.43575 0.86124 0.8048 0.0
H2329 H 0.4622 0.88011 0.78646 0.0
H2330 H 0.48356 0.86879 0.75722 0.0
C2331 C 0.55037 0.88481 0.72272 0.0
C2332 C 0.53723 0.88428 0.77763 0.0
C2333 C 0.56237 0.89391 0.70755 0.0
C2334 C 0.45161 0.85689 0.80707 0.0
C2335 C 0.46676 0.86766 0.79647 0.0
C2336 C 0.49839 0.87323 0.76322 0.0
C2337 C 0.54796 0.89427 0.7419 0.0
C2338 C 0.53267 0.88623 0.75665 0.0
C2339 C 0.48744 0.86188 0.79805 0.0
C2340 C 0.50295 0.87098 0.78414 0.0
H2341 H 0.57839 0.93595 0.73423 0.0
H2342 H 0.55734 0.91994 0.76077 0.0
H2343 H 0.50901 0.88236 0.73363 0.0
H2344 H 0.48227 0.82242 0.83169 0.0
H2345 H 0.50865 0.84118 0.81306 0.0
C2346 C 0.91553 0.73049 0.56769 0.0
C2347 C 0.90617 0.71111 0.56934 0.0
C2348 C 0.90667 0.74585 0.55563 0.0
C2349 C 0.87951 0.77803 0.534 0.0
H2350 H 0.86212 0.75768 0.48089 0.0
C2351 C 0.83071 0.82385 0.47541 0.0
C2352 C 0.83483 0.82086 0.45444 0.0
C2353 C 0.84157 0.81293 0.49031 0.0
C2354 C 0.86712 0.76366 0.49556 0.0
H2355 H 0.87933 0.6933 0.56091 0.0
H2356 H 0.86394 0.72009 0.54004 0.0
H2357 H 0.87533 0.73386 0.50633 0.0
H2358 H 0.8547 0.80523 0.43282 0.0
H2359 H 0.87364 0.78627 0.45884 0.0
H2360 H 0.87117 0.80792 0.52306 0.0
C2361 C 0.87831 0.72325 0.54775 0.0
C2362 C 0.8744 0.74997 0.51024 0.0
C2363 C 0.88709 0.70794 0.55982 0.0
C2364 C 0.85097 0.80776 0.4488 0.0
C2365 C 0.86177 0.79681 0.46369 0.0
C2366 C 0.87202 0.79177 0.5193 0.0
C2367 C 0.88834 0.74209 0.54497 0.0
C2368 C 0.88055 0.75695 0.52966 0.0
C2369 C 0.85672 0.79878 0.48454 0.0
C2370 C 0.86575 0.78469 0.49993 0.0
H2371 H 0.93019 0.73349 0.57488 0.0
H2372 H 0.91473 0.76025 0.55375 0.0
H2373 H 0.88417 0.78381 0.54885 0.0
H2374 H 0.81846 0.83391 0.48032 0.0
H2375 H 0.83729 0.81473 0.50625 0.0
C2376 C 0.4279 0.42241 0.75923 0.0
C2377 C 0.42877 0.41341 0.77881 0.0
C2378 C 0.43764 0.41314 0.74255 0.0
C2379 C 0.47304 0.39839 0.71585 0.0
H2380 H 0.47551 0.33934 0.70974 0.0
C2381 C 0.54096 0.35607 0.67921 0.0
C2382 C 0.53751 0.33737 0.66909 0.0
C2383 C 0.52469 0.36676 0.6881 0.0
C2384 C 0.47473 0.35588 0.71092 0.0
H2385 H 0.43982 0.38715 0.796 0.0
H2386 H 0.45687 0.37113 0.76702 0.0
H2387 H 0.4515 0.35435 0.73402 0.0
H2388 H 0.51399 0.31612 0.65894 0.0
H2389 H 0.48561 0.33493 0.67423 0.0
H2390 H 0.49655 0.39988 0.69298 0.0
C2391 C 0.44854 0.38526 0.76449 0.0
C2392 C 0.46114 0.36445 0.72503 0.0
C2393 C 0.43887 0.39454 0.78116 0.0
C2394 C 0.51724 0.33037 0.6668 0.0
C2395 C 0.50097 0.34109 0.67566 0.0
C2396 C 0.48666 0.3898 0.70172 0.0
C2397 C 0.44835 0.39464 0.74508 0.0
C2398 C 0.46054 0.38576 0.72805 0.0
C2399 C 0.50459 0.35903 0.687 0.0
C2400 C 0.48804 0.36842 0.69949 0.0
H2401 H 0.4202 0.43693 0.75685 0.0
H2402 H 0.43706 0.42062 0.72773 0.0
H2403 H 0.47303 0.41486 0.71789 0.0
H2404 H 0.55635 0.36197 0.68122 0.0
H2405 H 0.52806 0.38045 0.69686 0.0
C2406 C 0.33264 0.6736 0.51333 0.0
C2407 C 0.33992 0.67475 0.53361 0.0
C2408 C 0.34198 0.685 0.49776 0.0
C2409 C 0.37038 0.70647 0.46646 0.0
H2410 H 0.37873 0.763 0.48289 0.0
C2411 C 0.41706 0.76742 0.42116 0.0
C2412 C 0.41 0.7878 0.42191 0.0
C2413 C 0.40666 0.75192 0.4317 0.0
C2414 C 0.37628 0.74733 0.47798 0.0
H2415 H 0.36372 0.68752 0.55307 0.0
H2416 H 0.37994 0.70732 0.52592 0.0
H2417 H 0.36615 0.73827 0.50776 0.0
H2418 H 0.38535 0.80742 0.43261 0.0
H2419 H 0.36726 0.78038 0.45088 0.0
H2420 H 0.3807 0.71573 0.43659 0.0
C2421 C 0.36682 0.69785 0.52216 0.0
C2422 C 0.36937 0.7331 0.49231 0.0
C2423 C 0.35758 0.68641 0.53769 0.0
C2424 C 0.39139 0.79198 0.43193 0.0
C2425 C 0.38105 0.7765 0.44248 0.0
C2426 C 0.37754 0.72075 0.45209 0.0
C2427 C 0.3587 0.6978 0.50222 0.0
C2428 C 0.36643 0.71252 0.48676 0.0
C2429 C 0.38905 0.75653 0.44318 0.0
C2430 C 0.3805 0.74133 0.45774 0.0
H2431 H 0.31915 0.66466 0.50962 0.0
H2432 H 0.33541 0.68468 0.48251 0.0
H2433 H 0.36821 0.69069 0.4618 0.0
H2434 H 0.43127 0.76362 0.41348 0.0
H2435 H 0.41317 0.73665 0.43198 0.0
C2436 C 0.98387 0.66881 0.17395 0.0
C2437 C 0.96362 0.66147 0.17525 0.0
C2438 C -0.00019 0.65857 0.18392 0.0
C2439 C 0.02526 0.64355 0.21991 0.0
H2440 H 0.02792 0.58437 0.22465 0.0
C2441 C 0.06171 0.60194 0.28845 0.0
C2442 C 0.07178 0.58318 0.28516 0.0
C2443 C 0.05219 0.61215 0.27223 0.0
C2444 C 0.02764 0.60091 0.22325 0.0
H2445 H 0.94447 0.63702 0.1872 0.0
H2446 H 0.97224 0.61928 0.20468 0.0
H2447 H 0.00415 0.59991 0.20033 0.0
H2448 H 0.08077 0.56108 0.26195 0.0
H2449 H 0.06418 0.57901 0.23365 0.0
H2450 H 0.04848 0.64455 0.2431 0.0
C2451 C 0.97582 0.63288 0.19584 0.0
C2452 C 0.01386 0.6098 0.20948 0.0
C2453 C 0.95986 0.64313 0.18592 0.0
C2454 C 0.07304 0.57543 0.26507 0.0
C2455 C 0.06345 0.58563 0.24886 0.0
C2456 C 0.039 0.63466 0.23372 0.0
C2457 C 0.99588 0.64074 0.19534 0.0
C2458 C 0.01221 0.63122 0.20799 0.0
C2459 C 0.05251 0.60383 0.25236 0.0
C2460 C 0.04001 0.61325 0.23586 0.0
H2461 H 0.98736 0.68282 0.16576 0.0
H2462 H 0.01516 0.66483 0.18303 0.0
H2463 H 0.02425 0.6601 0.21925 0.0
H2464 H 0.06049 0.60839 0.3037 0.0
H2465 H 0.04374 0.62606 0.27548 0.0
C2466 C 0.14496 0.31212 0.04612 0.0
C2467 C 0.16319 0.32252 0.04121 0.0
C2468 C 0.13444 0.30103 0.03117 0.0
C2469 C 0.12913 0.29134 0.97562 0.0
H2470 H 0.11699 0.23598 0.99365 0.0
C2471 C 0.10653 0.2064 0.94157 0.0
C2472 C 0.08902 0.21098 0.92986 0.0
C2473 C 0.11608 0.22157 0.95322 0.0
C2474 C 0.12041 0.25134 0.98834 0.0
H2475 H 0.18379 0.33064 0.01636 0.0
H2476 H 0.16538 0.31118 0.99028 0.0
H2477 H 0.13103 0.26056 0.01788 0.0
H2478 H 0.06866 0.23547 0.92023 0.0
H2479 H 0.08543 0.26198 0.9406 0.0
H2480 H 0.11857 0.28185 0.94592 0.0
C2481 C 0.15927 0.31165 0.00571 0.0
C2482 C 0.12818 0.26551 0.00229 0.0
C2483 C 0.16985 0.32274 0.02069 0.0
C2484 C 0.08204 0.23138 0.92913 0.0
C2485 C 0.09168 0.2466 0.94074 0.0
C2486 C 0.12114 0.27715 0.96163 0.0
C2487 C 0.14187 0.30012 0.01098 0.0
C2488 C 0.13268 0.28563 0.9961 0.0
C2489 C 0.10841 0.24168 0.95336 0.0
C2490 C 0.11688 0.25696 0.96786 0.0
H2491 H 0.13923 0.31181 0.0617 0.0
H2492 H 0.12083 0.29258 0.03556 0.0
H2493 H 0.13245 0.30677 0.97046 0.0
H2494 H 0.11246 0.19092 0.94238 0.0
H2495 H 0.12918 0.21745 0.96255 0.0
C2496 C 0.23282 0.92263 0.08695 0.0
C2497 C 0.21239 0.92317 0.09387 0.0
C2498 C 0.24811 0.93348 0.09733 0.0
C2499 C 0.27884 0.95435 0.12657 0.0
H2500 H 0.2609 0.01006 0.13705 0.0
C2501 C 0.32536 0.01666 0.17077 0.0
C2502 C 0.32426 0.03675 0.16296 0.0
C2503 C 0.31405 0.00085 0.16173 0.0
C2504 C 0.26618 0.99459 0.1341 0.0
H2505 H 0.19243 0.93396 0.11822 0.0
H2506 H 0.21912 0.95282 0.13626 0.0
H2507 H 0.23641 0.98488 0.1246 0.0
H2508 H 0.31163 0.05559 0.13859 0.0
H2509 H 0.29196 0.02803 0.12293 0.0
H2510 H 0.30876 0.96436 0.13605 0.0
C2511 C 0.2232 0.94429 0.12261 0.0
C2512 C 0.25209 0.98009 0.12725 0.0
C2513 C 0.20794 0.9334 0.1123 0.0
C2514 C 0.31271 0.04037 0.14513 0.0
C2515 C 0.30134 0.02461 0.1362 0.0
C2516 C 0.29296 0.96889 0.13368 0.0
C2517 C 0.24324 0.9451 0.11478 0.0
C2518 C 0.25825 0.95985 0.12333 0.0
C2519 C 0.30137 0.00488 0.14481 0.0
C2520 C 0.28677 0.9892 0.13729 0.0
H2521 H 0.23683 0.91479 0.07288 0.0
H2522 H 0.26343 0.93385 0.09094 0.0
H2523 H 0.28398 0.93884 0.12365 0.0
H2524 H 0.33421 0.0133 0.18442 0.0
H2525 H 0.31434 0.98576 0.16867 0.0
C2526 C 0.80428 0.46194 0.85678 0.0
C2527 C 0.81568 0.46564 0.83888 0.0
C2528 C 0.79284 0.47759 0.86576 0.0
C2529 C 0.78422 0.53309 0.86884 0.0
H2530 H 0.72808 0.51639 0.87918 0.0
C2531 C 0.69972 0.56628 0.89563 0.0
C2532 C 0.70507 0.57587 0.91417 0.0
C2533 C 0.71457 0.55633 0.8839 0.0
C2534 C 0.74362 0.52141 0.87614 0.0
H2535 H 0.82522 0.48911 0.81727 0.0
H2536 H 0.80516 0.51651 0.83312 0.0
H2537 H 0.7523 0.49181 0.86524 0.0
H2538 H 0.73058 0.58421 0.93383 0.0
H2539 H 0.75644 0.56665 0.91345 0.0
H2540 H 0.77539 0.56275 0.88006 0.0
C2541 C 0.80508 0.50143 0.84006 0.0
C2542 C 0.75756 0.50724 0.86843 0.0
C2543 C 0.8165 0.48571 0.83098 0.0
C2544 C 0.72588 0.57683 0.91976 0.0
C2545 C 0.74075 0.56684 0.90801 0.0
C2546 C 0.77023 0.54731 0.87679 0.0
C2547 C 0.79261 0.4973 0.85711 0.0
C2548 C 0.77803 0.51283 0.8649 0.0
C2549 C 0.73508 0.55575 0.89045 0.0
C2550 C 0.7498 0.54155 0.88057 0.0
H2551 H 0.80345 0.44675 0.86343 0.0
H2552 H 0.78365 0.47411 0.87915 0.0
H2553 H 0.79993 0.53777 0.86621 0.0
H2554 H 0.6839 0.56552 0.89065 0.0
H2555 H 0.70984 0.54827 0.87018 0.0
C2556 C 0.2933 0.06117 0.60018 0.0
C2557 C 0.28906 0.07139 0.58168 0.0
C2558 C 0.27779 0.05075 0.61063 0.0
C2559 C 0.23979 0.03632 0.6338 0.0
H2560 H 0.20814 -0.0007 0.59966 0.0
C2561 C 0.17966 0.98128 0.66789 0.0
C2562 C 0.18204 0.9607 0.66189 0.0
C2563 C 0.18986 0.99693 0.65742 0.0
C2564 C 0.2168 0.00963 0.60936 0.0
H2565 H 0.2649 0.07957 0.56026 0.0
H2566 H 0.23791 0.06125 0.57851 0.0
H2567 H 0.23164 0.0237 0.58371 0.0
H2568 H 0.19615 0.94062 0.63944 0.0
H2569 H 0.21382 0.96796 0.62112 0.0
H2570 H 0.22541 0.0218 0.65948 0.0
C2571 C 0.25329 0.06121 0.58478 0.0
C2572 C 0.2301 0.02371 0.60025 0.0
C2573 C 0.26875 0.07178 0.57441 0.0
C2574 C 0.19403 0.95627 0.64454 0.0
C2575 C 0.20408 0.97195 0.63397 0.0
C2576 C 0.22635 0.02236 0.64291 0.0
C2577 C 0.25775 0.05021 0.60275 0.0
C2578 C 0.24202 0.03694 0.61239 0.0
C2579 C 0.20247 0.99238 0.64059 0.0
C2580 C 0.21501 0.0086 0.63079 0.0
H2581 H 0.30875 0.06062 0.60625 0.0
H2582 H 0.28171 0.04229 0.62438 0.0
H2583 H 0.24871 0.04642 0.64352 0.0
H2584 H 0.1705 0.98529 0.68111 0.0
H2585 H 0.18817 0.01258 0.66271 0.0
C2586 C 0.67627 0.51688 0.32902 0.0
C2587 C 0.67882 0.53733 0.33542 0.0
C2588 C 0.6868 0.501 0.33885 0.0
C2589 C 0.73476 0.49338 0.36616 0.0
H2590 H 0.71367 0.43943 0.37966 0.0
C2591 C 0.78965 0.42995 0.38953 0.0
C2592 C 0.78513 0.42077 0.4085 0.0
C2593 C 0.77474 0.44115 0.37907 0.0
C2594 C 0.71972 0.45443 0.37591 0.0
H2595 H 0.6933 0.55688 0.35814 0.0
H2596 H 0.71162 0.52919 0.37519 0.0
H2597 H 0.69033 0.46584 0.36638 0.0
H2598 H 0.76079 0.41447 0.43032 0.0
H2599 H 0.73476 0.43415 0.41199 0.0
H2600 H 0.76402 0.48226 0.37569 0.0
C2601 C 0.7017 0.52552 0.36239 0.0
C2602 C 0.70642 0.46948 0.36829 0.0
C2603 C 0.69112 0.54136 0.35265 0.0
C2604 C 0.76484 0.42147 0.41581 0.0
C2605 C 0.74989 0.43271 0.4053 0.0
C2606 C 0.74802 0.47836 0.37353 0.0
C2607 C 0.70014 0.50528 0.35519 0.0
C2608 C 0.71383 0.48916 0.3635 0.0
C2609 C 0.75497 0.4434 0.38731 0.0
C2610 C 0.74068 0.45874 0.37852 0.0
H2611 H 0.66685 0.5132 0.31586 0.0
H2612 H 0.68535 0.48554 0.33297 0.0
H2613 H 0.74098 0.50829 0.36232 0.0
H2614 H 0.80502 0.42948 0.38328 0.0
H2615 H 0.77895 0.44888 0.36498 0.0
loop_
_geom_bond_atom_site_label_1
_geom_bond_atom_site_label_2
_geom_bond_distance
_geom_bond_site_symmetry_2
_ccdc_geom_bond_type
Co0 O3 1.970 . S
Co0 N17 1.989 . S
Co0 O25 1.967 . S
Co0 O32 1.920 . S
Co1 O4 1.966 . S
Co1 N10 2.022 . S
Co1 N18 1.993 . S
Co1 O26 1.941 . S
C2 O3 1.258 . S
C2 O4 1.263 . S
O3 Co0 1.970 . S
O3 C2 1.258 . S
O4 Co1 1.966 . S
O4 C2 1.263 . S
C5 O6 1.235 . S
C5 O32 1.289 . S
O6 C5 1.235 . S
C7 C9 1.400 . S
C7 N10 1.351 . S
C7 C12 1.501 . S
C8 C9 1.387 . S
C8 N11 1.341 . S
C9 C7 1.400 . S
C9 C8 1.387 . S
N10 Co1 2.022 . S
N10 C7 1.351 . S
N10 N11 1.365 . S
N11 C8 1.341 . S
N11 N10 1.365 . S
N11 H31 0.862 . S
C12 C7 1.501 . S
C12 H13 0.961 . S
C12 H14 0.961 . S
C12 H15 0.960 . S
H13 C12 0.961 . S
H14 C12 0.961 . S
H15 C12 0.960 . S
C16 N17 1.342 . S
C16 C20 1.401 . S
C16 C21 1.499 . S
N17 Co0 1.989 . S
N17 C16 1.342 . S
N17 N18 1.388 . S
N18 Co1 1.993 . S
N18 N17 1.388 . S
N18 C19 1.346 . S
C19 N18 1.346 . S
C19 C20 1.396 . S
C19 C29 1.510 . S
C20 C16 1.401 . S
C20 C19 1.396 . S
C21 C16 1.499 . S
C21 H22 0.959 . S
C21 H23 0.960 . S
C21 H24 0.961 . S
H22 C21 0.959 . S
H23 C21 0.960 . S
H24 C21 0.961 . S
O25 Co0 1.967 . S
O25 C33 1.258 . S
O26 Co1 1.941 . S
O26 C33 1.266 . S
H27 C29 0.959 . S
H28 C29 0.961 . S
C29 C19 1.510 . S
C29 H27 0.959 . S
C29 H28 0.961 . S
C29 H30 0.960 . S
H30 C29 0.960 . S
H31 N11 0.862 . S
O32 Co0 1.920 . S
O32 C5 1.289 . S
C33 O25 1.258 . S
C33 O26 1.266 . S
Co34 O37 1.970 . S
Co34 N51 1.989 . S
Co34 O59 1.967 . S
Co34 O66 1.920 . S
Co35 O38 1.966 . S
Co35 N44 2.022 . S
Co35 N52 1.993 . S
Co35 O60 1.941 . S
C36 O37 1.258 . S
C36 O38 1.263 . S
O37 Co34 1.970 . S
O37 C36 1.258 . S
O38 Co35 1.966 . S
O38 C36 1.263 . S
C39 O40 1.235 . S
C39 O66 1.289 . S
O40 C39 1.235 . S
C41 C43 1.400 . S
C41 N44 1.351 . S
C41 C46 1.501 . S
C42 C43 1.387 . S
C42 N45 1.341 . S
C43 C41 1.400 . S
C43 C42 1.387 . S
N44 Co35 2.022 . S
N44 C41 1.351 . S
N44 N45 1.365 . S
N45 C42 1.341 . S
N45 N44 1.365 . S
N45 H65 0.862 . S
C46 C41 1.501 . S
C46 H47 0.961 . S
C46 H48 0.961 . S
C46 H49 0.960 . S
H47 C46 0.961 . S
H48 C46 0.961 . S
H49 C46 0.960 . S
C50 N51 1.342 . S
C50 C54 1.401 . S
C50 C55 1.499 . S
N51 Co34 1.989 . S
N51 C50 1.342 . S
N51 N52 1.388 . S
N52 Co35 1.993 . S
N52 N51 1.388 . S
N52 C53 1.346 . S
C53 N52 1.346 . S
C53 C54 1.396 . S
C53 C63 1.510 . S
C54 C50 1.401 . S
C54 C53 1.396 . S
C55 C50 1.499 . S
C55 H56 0.959 . S
C55 H57 0.960 . S
C55 H58 0.961 . S
H56 C55 0.959 . S
H57 C55 0.960 . S
H58 C55 0.961 . S
O59 Co34 1.967 . S
O59 C67 1.258 . S
O60 Co35 1.941 . S
O60 C67 1.266 . S
H61 C63 0.959 . S
H62 C63 0.961 . S
C63 C53 1.510 . S
C63 H61 0.959 . S
C63 H62 0.961 . S
C63 H64 0.960 . S
H64 C63 0.960 . S
H65 N45 0.862 . S
O66 Co34 1.920 . S
O66 C39 1.289 . S
C67 O59 1.258 . S
C67 O60 1.266 . S
Co68 O71 1.970 . S
Co68 N85 1.989 . S
Co68 O93 1.967 . S
Co68 O100 1.920 . S
Co69 O72 1.966 . S
Co69 N78 2.022 . S
Co69 N86 1.993 . S
Co69 O94 1.941 . S
C70 O71 1.258 . S
C70 O72 1.263 . S
O71 Co68 1.970 . S
O71 C70 1.258 . S
O72 Co69 1.966 . S
O72 C70 1.263 . S
C73 O74 1.235 . S
C73 O100 1.289 . S
O74 C73 1.235 . S
C75 C77 1.400 . S
C75 N78 1.351 . S
C75 C80 1.501 . S
C76 C77 1.387 . S
C76 N79 1.341 . S
C77 C75 1.400 . S
C77 C76 1.387 . S
N78 Co69 2.022 . S
N78 C75 1.351 . S
N78 N79 1.365 . S
N79 C76 1.341 . S
N79 N78 1.365 . S
N79 H99 0.862 . S
C80 C75 1.501 . S
C80 H81 0.961 . S
C80 H82 0.961 . S
C80 H83 0.960 . S
H81 C80 0.961 . S
H82 C80 0.961 . S
H83 C80 0.960 . S
C84 N85 1.342 . S
C84 C88 1.401 . S
C84 C89 1.499 . S
N85 Co68 1.989 . S
N85 C84 1.342 . S
N85 N86 1.388 . S
N86 Co69 1.993 . S
N86 N85 1.388 . S
N86 C87 1.346 . S
C87 N86 1.346 . S
C87 C88 1.396 . S
C87 C97 1.510 . S
C88 C84 1.401 . S
C88 C87 1.396 . S
C89 C84 1.499 . S
C89 H90 0.959 . S
C89 H91 0.960 . S
C89 H92 0.961 . S
H90 C89 0.959 . S
H91 C89 0.960 . S
H92 C89 0.961 . S
O93 Co68 1.967 . S
O93 C101 1.258 . S
O94 Co69 1.941 . S
O94 C101 1.266 . S
H95 C97 0.959 . S
H96 C97 0.961 . S
C97 C87 1.510 . S
C97 H95 0.959 . S
C97 H96 0.961 . S
C97 H98 0.960 . S
H98 C97 0.960 . S
H99 N79 0.862 . S
O100 Co68 1.920 . S
O100 C73 1.289 . S
C101 O93 1.258 . S
C101 O94 1.266 . S
Co102 O105 1.970 . S
Co102 N119 1.989 . S
Co102 O127 1.967 . S
Co102 O134 1.920 . S
Co103 O106 1.966 . S
Co103 N112 2.022 . S
Co103 N120 1.993 . S
Co103 O128 1.941 . S
C104 O105 1.258 . S
C104 O106 1.263 . S
O105 Co102 1.970 . S
O105 C104 1.258 . S
O106 Co103 1.966 . S
O106 C104 1.263 . S
C107 O108 1.235 . S
C107 O134 1.289 . S
O108 C107 1.235 . S
C109 C111 1.400 . S
C109 N112 1.351 . S
C109 C114 1.501 . S
C110 C111 1.387 . S
C110 N113 1.341 . S
C111 C109 1.400 . S
C111 C110 1.387 . S
N112 Co103 2.022 . S
N112 C109 1.351 . S
N112 N113 1.365 . S
N113 C110 1.341 . S
N113 N112 1.365 . S
N113 H133 0.862 . S
C114 C109 1.501 . S
C114 H115 0.961 . S
C114 H116 0.961 . S
C114 H117 0.960 . S
H115 C114 0.961 . S
H116 C114 0.961 . S
H117 C114 0.960 . S
C118 N119 1.342 . S
C118 C122 1.401 . S
C118 C123 1.499 . S
N119 Co102 1.989 . S
N119 C118 1.342 . S
N119 N120 1.388 . S
N120 Co103 1.993 . S
N120 N119 1.388 . S
N120 C121 1.346 . S
C121 N120 1.346 . S
C121 C122 1.396 . S
C121 C131 1.510 . S
C122 C118 1.401 . S
C122 C121 1.396 . S
C123 C118 1.499 . S
C123 H124 0.959 . S
C123 H125 0.960 . S
C123 H126 0.961 . S
H124 C123 0.959 . S
H125 C123 0.960 . S
H126 C123 0.961 . S
O127 Co102 1.967 . S
O127 C135 1.258 . S
O128 Co103 1.941 . S
O128 C135 1.266 . S
H129 C131 0.959 . S
H130 C131 0.961 . S
C131 C121 1.510 . S
C131 H129 0.959 . S
C131 H130 0.961 . S
C131 H132 0.960 . S
H132 C131 0.960 . S
H133 N113 0.862 . S
O134 Co102 1.920 . S
O134 C107 1.289 . S
C135 O127 1.258 . S
C135 O128 1.266 . S
Co136 O139 1.970 . S
Co136 N153 1.989 . S
Co136 O161 1.967 . S
Co136 O168 1.920 . S
Co137 O140 1.966 . S
Co137 N146 2.022 . S
Co137 N154 1.993 . S
Co137 O162 1.941 . S
C138 O139 1.258 . S
C138 O140 1.263 . S
O139 Co136 1.970 . S
O139 C138 1.258 . S
O140 Co137 1.966 . S
O140 C138 1.263 . S
C141 O142 1.235 . S
C141 O168 1.289 . S
O142 C141 1.235 . S
C143 C145 1.400 . S
C143 N146 1.351 . S
C143 C148 1.501 . S
C144 C145 1.387 . S
C144 N147 1.341 . S
C145 C143 1.400 . S
C145 C144 1.387 . S
N146 Co137 2.022 . S
N146 C143 1.351 . S
N146 N147 1.365 . S
N147 C144 1.341 . S
N147 N146 1.365 . S
N147 H167 0.862 . S
C148 C143 1.501 . S
C148 H149 0.961 . S
C148 H150 0.961 . S
C148 H151 0.960 . S
H149 C148 0.961 . S
H150 C148 0.961 . S
H151 C148 0.960 . S
C152 N153 1.342 . S
C152 C156 1.401 . S
C152 C157 1.499 . S
N153 Co136 1.989 . S
N153 C152 1.342 . S
N153 N154 1.388 . S
N154 Co137 1.993 . S
N154 N153 1.388 . S
N154 C155 1.346 . S
C155 N154 1.346 . S
C155 C156 1.396 . S
C155 C165 1.510 . S
C156 C152 1.401 . S
C156 C155 1.396 . S
C157 C152 1.499 . S
C157 H158 0.959 . S
C157 H159 0.960 . S
C157 H160 0.961 . S
H158 C157 0.959 . S
H159 C157 0.960 . S
H160 C157 0.961 . S
O161 Co136 1.967 . S
O161 C169 1.258 . S
O162 Co137 1.941 . S
O162 C169 1.266 . S
H163 C165 0.959 . S
H164 C165 0.961 . S
C165 C155 1.510 . S
C165 H163 0.959 . S
C165 H164 0.961 . S
C165 H166 0.960 . S
H166 C165 0.960 . S
H167 N147 0.862 . S
O168 Co136 1.920 . S
O168 C141 1.289 . S
C169 O161 1.258 . S
C169 O162 1.266 . S
Co170 O173 1.970 . S
Co170 N187 1.989 . S
Co170 O195 1.967 . S
Co170 O202 1.920 . S
Co171 O174 1.966 . S
Co171 N180 2.022 . S
Co171 N188 1.993 . S
Co171 O196 1.941 . S
C172 O173 1.258 . S
C172 O174 1.263 . S
O173 Co170 1.970 . S
O173 C172 1.258 . S
O174 Co171 1.966 . S
O174 C172 1.263 . S
C175 O176 1.235 . S
C175 O202 1.289 . S
O176 C175 1.235 . S
C177 C179 1.400 . S
C177 N180 1.351 . S
C177 C182 1.501 . S
C178 C179 1.387 . S
C178 N181 1.341 . S
C179 C177 1.400 . S
C179 C178 1.387 . S
N180 Co171 2.022 . S
N180 C177 1.351 . S
N180 N181 1.365 . S
N181 C178 1.341 . S
N181 N180 1.365 . S
N181 H201 0.862 . S
C182 C177 1.501 . S
C182 H183 0.961 . S
C182 H184 0.961 . S
C182 H185 0.960 . S
H183 C182 0.961 . S
H184 C182 0.961 . S
H185 C182 0.960 . S
C186 N187 1.342 . S
C186 C190 1.401 . S
C186 C191 1.499 . S
N187 Co170 1.989 . S
N187 C186 1.342 . S
N187 N188 1.388 . S
N188 Co171 1.993 . S
N188 N187 1.388 . S
N188 C189 1.346 . S
C189 N188 1.346 . S
C189 C190 1.396 . S
C189 C199 1.510 . S
C190 C186 1.401 . S
C190 C189 1.396 . S
C191 C186 1.499 . S
C191 H192 0.959 . S
C191 H193 0.960 . S
C191 H194 0.961 . S
H192 C191 0.959 . S
H193 C191 0.960 . S
H194 C191 0.961 . S
O195 Co170 1.967 . S
O195 C203 1.258 . S
O196 Co171 1.941 . S
O196 C203 1.266 . S
H197 C199 0.959 . S
H198 C199 0.961 . S
C199 C189 1.510 . S
C199 H197 0.959 . S
C199 H198 0.961 . S
C199 H200 0.960 . S
H200 C199 0.960 . S
H201 N181 0.862 . S
O202 Co170 1.920 . S
O202 C175 1.289 . S
C203 O195 1.258 . S
C203 O196 1.266 . S
Co204 O207 1.970 . S
Co204 N221 1.989 . S
Co204 O229 1.967 . S
Co204 O236 1.920 . S
Co205 O208 1.966 . S
Co205 N214 2.022 . S
Co205 N222 1.993 . S
Co205 O230 1.941 . S
C206 O207 1.258 . S
C206 O208 1.263 . S
O207 Co204 1.970 . S
O207 C206 1.258 . S
O208 Co205 1.966 . S
O208 C206 1.263 . S
C209 O210 1.235 . S
C209 O236 1.289 . S
O210 C209 1.235 . S
C211 C213 1.400 . S
C211 N214 1.351 . S
C211 C216 1.501 . S
C212 C213 1.387 . S
C212 N215 1.341 . S
C213 C211 1.400 . S
C213 C212 1.387 . S
N214 Co205 2.022 . S
N214 C211 1.351 . S
N214 N215 1.365 . S
N215 C212 1.341 . S
N215 N214 1.365 . S
N215 H235 0.862 . S
C216 C211 1.501 . S
C216 H217 0.961 . S
C216 H218 0.961 . S
C216 H219 0.960 . S
H217 C216 0.961 . S
H218 C216 0.961 . S
H219 C216 0.960 . S
C220 N221 1.342 . S
C220 C224 1.401 . S
C220 C225 1.499 . S
N221 Co204 1.989 . S
N221 C220 1.342 . S
N221 N222 1.388 . S
N222 Co205 1.993 . S
N222 N221 1.388 . S
N222 C223 1.346 . S
C223 N222 1.346 . S
C223 C224 1.396 . S
C223 C233 1.510 . S
C224 C220 1.401 . S
C224 C223 1.396 . S
C225 C220 1.499 . S
C225 H226 0.959 . S
C225 H227 0.960 . S
C225 H228 0.961 . S
H226 C225 0.959 . S
H227 C225 0.960 . S
H228 C225 0.961 . S
O229 Co204 1.967 . S
O229 C237 1.258 . S
O230 Co205 1.941 . S
O230 C237 1.266 . S
H231 C233 0.959 . S
H232 C233 0.961 . S
C233 C223 1.510 . S
C233 H231 0.959 . S
C233 H232 0.961 . S
C233 H234 0.960 . S
H234 C233 0.960 . S
H235 N215 0.862 . S
O236 Co204 1.920 . S
O236 C209 1.289 . S
C237 O229 1.258 . S
C237 O230 1.266 . S
Co238 O241 1.970 . S
Co238 N255 1.989 . S
Co238 O263 1.967 . S
Co238 O270 1.920 . S
Co239 O242 1.966 . S
Co239 N248 2.022 . S
Co239 N256 1.993 . S
Co239 O264 1.941 . S
C240 O241 1.258 . S
C240 O242 1.263 . S
O241 Co238 1.970 . S
O241 C240 1.258 . S
O242 Co239 1.966 . S
O242 C240 1.263 . S
C243 O244 1.235 . S
C243 O270 1.289 . S
O244 C243 1.235 . S
C245 C247 1.400 . S
C245 N248 1.351 . S
C245 C250 1.501 . S
C246 C247 1.387 . S
C246 N249 1.341 . S
C247 C245 1.400 . S
C247 C246 1.387 . S
N248 Co239 2.022 . S
N248 C245 1.351 . S
N248 N249 1.365 . S
N249 C246 1.341 . S
N249 N248 1.365 . S
N249 H269 0.862 . S
C250 C245 1.501 . S
C250 H251 0.961 . S
C250 H252 0.961 . S
C250 H253 0.960 . S
H251 C250 0.961 . S
H252 C250 0.961 . S
H253 C250 0.960 . S
C254 N255 1.342 . S
C254 C258 1.401 . S
C254 C259 1.499 . S
N255 Co238 1.989 . S
N255 C254 1.342 . S
N255 N256 1.388 . S
N256 Co239 1.993 . S
N256 N255 1.388 . S
N256 C257 1.346 . S
C257 N256 1.346 . S
C257 C258 1.396 . S
C257 C267 1.510 . S
C258 C254 1.401 . S
C258 C257 1.396 . S
C259 C254 1.499 . S
C259 H260 0.959 . S
C259 H261 0.960 . S
C259 H262 0.961 . S
H260 C259 0.959 . S
H261 C259 0.960 . S
H262 C259 0.961 . S
O263 Co238 1.967 . S
O263 C271 1.258 . S
O264 Co239 1.941 . S
O264 C271 1.266 . S
H265 C267 0.959 . S
H266 C267 0.961 . S
C267 C257 1.510 . S
C267 H265 0.959 . S
C267 H266 0.961 . S
C267 H268 0.960 . S
H268 C267 0.960 . S
H269 N249 0.862 . S
O270 Co238 1.920 . S
O270 C243 1.289 . S
C271 O263 1.258 . S
C271 O264 1.266 . S
Co272 O275 1.970 . S
Co272 N289 1.989 . S
Co272 O297 1.967 . S
Co272 O304 1.920 . S
Co273 O276 1.966 . S
Co273 N282 2.022 . S
Co273 N290 1.993 . S
Co273 O298 1.941 . S
C274 O275 1.258 . S
C274 O276 1.263 . S
O275 Co272 1.970 . S
O275 C274 1.258 . S
O276 Co273 1.966 . S
O276 C274 1.263 . S
C277 O278 1.235 . S
C277 O304 1.289 . S
O278 C277 1.235 . S
C279 C281 1.400 . S
C279 N282 1.351 . S
C279 C284 1.501 . S
C280 C281 1.387 . S
C280 N283 1.341 . S
C281 C279 1.400 . S
C281 C280 1.387 . S
N282 Co273 2.022 . S
N282 C279 1.351 . S
N282 N283 1.365 . S
N283 C280 1.341 . S
N283 N282 1.365 . S
N283 H303 0.862 . S
C284 C279 1.501 . S
C284 H285 0.961 . S
C284 H286 0.961 . S
C284 H287 0.960 . S
H285 C284 0.961 . S
H286 C284 0.961 . S
H287 C284 0.960 . S
C288 N289 1.342 . S
C288 C292 1.401 . S
C288 C293 1.499 . S
N289 Co272 1.989 . S
N289 C288 1.342 . S
N289 N290 1.388 . S
N290 Co273 1.993 . S
N290 N289 1.388 . S
N290 C291 1.346 . S
C291 N290 1.346 . S
C291 C292 1.396 . S
C291 C301 1.510 . S
C292 C288 1.401 . S
C292 C291 1.396 . S
C293 C288 1.499 . S
C293 H294 0.959 . S
C293 H295 0.960 . S
C293 H296 0.961 . S
H294 C293 0.959 . S
H295 C293 0.960 . S
H296 C293 0.961 . S
O297 Co272 1.967 . S
O297 C305 1.258 . S
O298 Co273 1.941 . S
O298 C305 1.266 . S
H299 C301 0.959 . S
H300 C301 0.961 . S
C301 C291 1.510 . S
C301 H299 0.959 . S
C301 H300 0.961 . S
C301 H302 0.960 . S
H302 C301 0.960 . S
H303 N283 0.862 . S
O304 Co272 1.920 . S
O304 C277 1.289 . S
C305 O297 1.258 . S
C305 O298 1.266 . S
Co306 O309 1.970 . S
Co306 N323 1.989 . S
Co306 O331 1.967 . S
Co306 O338 1.920 . S
Co307 O310 1.966 . S
Co307 N316 2.022 . S
Co307 N324 1.993 . S
Co307 O332 1.941 . S
C308 O309 1.258 . S
C308 O310 1.263 . S
O309 Co306 1.970 . S
O309 C308 1.258 . S
O310 Co307 1.966 . S
O310 C308 1.263 . S
C311 O312 1.235 . S
C311 O338 1.289 . S
O312 C311 1.235 . S
C313 C315 1.400 . S
C313 N316 1.351 . S
C313 C318 1.501 . S
C314 C315 1.387 . S
C314 N317 1.341 . S
C315 C313 1.400 . S
C315 C314 1.387 . S
N316 Co307 2.022 . S
N316 C313 1.351 . S
N316 N317 1.365 . S
N317 C314 1.341 . S
N317 N316 1.365 . S
N317 H337 0.862 . S
C318 C313 1.501 . S
C318 H319 0.961 . S
C318 H320 0.961 . S
C318 H321 0.960 . S
H319 C318 0.961 . S
H320 C318 0.961 . S
H321 C318 0.960 . S
C322 N323 1.342 . S
C322 C326 1.401 . S
C322 C327 1.499 . S
N323 Co306 1.989 . S
N323 C322 1.342 . S
N323 N324 1.388 . S
N324 Co307 1.993 . S
N324 N323 1.388 . S
N324 C325 1.346 . S
C325 N324 1.346 . S
C325 C326 1.396 . S
C325 C335 1.510 . S
C326 C322 1.401 . S
C326 C325 1.396 . S
C327 C322 1.499 . S
C327 H328 0.959 . S
C327 H329 0.960 . S
C327 H330 0.961 . S
H328 C327 0.959 . S
H329 C327 0.960 . S
H330 C327 0.961 . S
O331 Co306 1.967 . S
O331 C339 1.258 . S
O332 Co307 1.941 . S
O332 C339 1.266 . S
H333 C335 0.959 . S
H334 C335 0.961 . S
C335 C325 1.510 . S
C335 H333 0.959 . S
C335 H334 0.961 . S
C335 H336 0.960 . S
H336 C335 0.960 . S
H337 N317 0.862 . S
O338 Co306 1.920 . S
O338 C311 1.289 . S
C339 O331 1.258 . S
C339 O332 1.266 . S
Co340 O343 1.970 . S
Co340 N357 1.989 . S
Co340 O365 1.967 . S
Co340 O372 1.920 . S
Co341 O344 1.966 . S
Co341 N350 2.022 . S
Co341 N358 1.993 . S
Co341 O366 1.941 . S
C342 O343 1.258 . S
C342 O344 1.263 . S
O343 Co340 1.970 . S
O343 C342 1.258 . S
O344 Co341 1.966 . S
O344 C342 1.263 . S
C345 O346 1.235 . S
C345 O372 1.289 . S
O346 C345 1.235 . S
C347 C349 1.400 . S
C347 N350 1.351 . S
C347 C352 1.501 . S
C348 C349 1.387 . S
C348 N351 1.341 . S
C349 C347 1.400 . S
C349 C348 1.387 . S
N350 Co341 2.022 . S
N350 C347 1.351 . S
N350 N351 1.365 . S
N351 C348 1.341 . S
N351 N350 1.365 . S
N351 H371 0.862 . S
C352 C347 1.501 . S
C352 H353 0.961 . S
C352 H354 0.961 . S
C352 H355 0.960 . S
H353 C352 0.961 . S
H354 C352 0.961 . S
H355 C352 0.960 . S
C356 N357 1.342 . S
C356 C360 1.401 . S
C356 C361 1.499 . S
N357 Co340 1.989 . S
N357 C356 1.342 . S
N357 N358 1.388 . S
N358 Co341 1.993 . S
N358 N357 1.388 . S
N358 C359 1.346 . S
C359 N358 1.346 . S
C359 C360 1.396 . S
C359 C369 1.510 . S
C360 C356 1.401 . S
C360 C359 1.396 . S
C361 C356 1.499 . S
C361 H362 0.959 . S
C361 H363 0.960 . S
C361 H364 0.961 . S
H362 C361 0.959 . S
H363 C361 0.960 . S
H364 C361 0.961 . S
O365 Co340 1.967 . S
O365 C373 1.258 . S
O366 Co341 1.941 . S
O366 C373 1.266 . S
H367 C369 0.959 . S
H368 C369 0.961 . S
C369 C359 1.510 . S
C369 H367 0.959 . S
C369 H368 0.961 . S
C369 H370 0.960 . S
H370 C369 0.960 . S
H371 N351 0.862 . S
O372 Co340 1.920 . S
O372 C345 1.289 . S
C373 O365 1.258 . S
C373 O366 1.266 . S
Co374 O377 1.970 . S
Co374 N391 1.989 . S
Co374 O399 1.967 . S
Co374 O406 1.920 . S
Co375 O378 1.966 . S
Co375 N384 2.022 . S
Co375 N392 1.993 . S
Co375 O400 1.941 . S
C376 O377 1.258 . S
C376 O378 1.263 . S
O377 Co374 1.970 . S
O377 C376 1.258 . S
O378 Co375 1.966 . S
O378 C376 1.263 . S
C379 O380 1.235 . S
C379 O406 1.289 . S
O380 C379 1.235 . S
C381 C383 1.400 . S
C381 N384 1.351 . S
C381 C386 1.501 . S
C382 C383 1.387 . S
C382 N385 1.341 . S
C383 C381 1.400 . S
C383 C382 1.387 . S
N384 Co375 2.022 . S
N384 C381 1.351 . S
N384 N385 1.365 . S
N385 C382 1.341 . S
N385 N384 1.365 . S
N385 H405 0.862 . S
C386 C381 1.501 . S
C386 H387 0.961 . S
C386 H388 0.961 . S
C386 H389 0.960 . S
H387 C386 0.961 . S
H388 C386 0.961 . S
H389 C386 0.960 . S
C390 N391 1.342 . S
C390 C394 1.401 . S
C390 C395 1.499 . S
N391 Co374 1.989 . S
N391 C390 1.342 . S
N391 N392 1.388 . S
N392 Co375 1.993 . S
N392 N391 1.388 . S
N392 C393 1.346 . S
C393 N392 1.346 . S
C393 C394 1.396 . S
C393 C403 1.510 . S
C394 C390 1.401 . S
C394 C393 1.396 . S
C395 C390 1.499 . S
C395 H396 0.959 . S
C395 H397 0.960 . S
C395 H398 0.961 . S
H396 C395 0.959 . S
H397 C395 0.960 . S
H398 C395 0.961 . S
O399 Co374 1.967 . S
O399 C407 1.258 . S
O400 Co375 1.941 . S
O400 C407 1.266 . S
H401 C403 0.959 . S
H402 C403 0.961 . S
C403 C393 1.510 . S
C403 H401 0.959 . S
C403 H402 0.961 . S
C403 H404 0.960 . S
H404 C403 0.960 . S
H405 N385 0.862 . S
O406 Co374 1.920 . S
O406 C379 1.289 . S
C407 O399 1.258 . S
C407 O400 1.266 . S
Co408 O411 1.970 . S
Co408 N425 1.989 . S
Co408 O433 1.967 . S
Co408 O440 1.920 . S
Co409 O412 1.966 . S
Co409 N418 2.022 . S
Co409 N426 1.993 . S
Co409 O434 1.941 . S
C410 O411 1.258 . S
C410 O412 1.263 . S
O411 Co408 1.970 . S
O411 C410 1.258 . S
O412 Co409 1.966 . S
O412 C410 1.263 . S
C413 O414 1.235 . S
C413 O440 1.289 . S
O414 C413 1.235 . S
C415 C417 1.400 . S
C415 N418 1.351 . S
C415 C420 1.501 . S
C416 C417 1.387 . S
C416 N419 1.341 . S
C417 C415 1.400 . S
C417 C416 1.387 . S
N418 Co409 2.022 . S
N418 C415 1.351 . S
N418 N419 1.365 . S
N419 C416 1.341 . S
N419 N418 1.365 . S
N419 H439 0.862 . S
C420 C415 1.501 . S
C420 H421 0.961 . S
C420 H422 0.961 . S
C420 H423 0.960 . S
H421 C420 0.961 . S
H422 C420 0.961 . S
H423 C420 0.960 . S
C424 N425 1.342 . S
C424 C428 1.401 . S
C424 C429 1.499 . S
N425 Co408 1.989 . S
N425 C424 1.342 . S
N425 N426 1.388 . S
N426 Co409 1.993 . S
N426 N425 1.388 . S
N426 C427 1.346 . S
C427 N426 1.346 . S
C427 C428 1.396 . S
C427 C437 1.510 . S
C428 C424 1.401 . S
C428 C427 1.396 . S
C429 C424 1.499 . S
C429 H430 0.959 . S
C429 H431 0.960 . S
C429 H432 0.961 . S
H430 C429 0.959 . S
H431 C429 0.960 . S
H432 C429 0.961 . S
O433 Co408 1.967 . S
O433 C441 1.258 . S
O434 Co409 1.941 . S
O434 C441 1.266 . S
H435 C437 0.959 . S
H436 C437 0.961 . S
C437 C427 1.510 . S
C437 H435 0.959 . S
C437 H436 0.961 . S
C437 H438 0.960 . S
H438 C437 0.960 . S
H439 N419 0.862 . S
O440 Co408 1.920 . S
O440 C413 1.289 . S
C441 O433 1.258 . S
C441 O434 1.266 . S
Co442 O445 1.970 . S
Co442 N459 1.989 . S
Co442 O467 1.967 . S
Co442 O474 1.920 . S
Co443 O446 1.966 . S
Co443 N452 2.022 . S
Co443 N460 1.993 . S
Co443 O468 1.941 . S
C444 O445 1.258 . S
C444 O446 1.263 . S
O445 Co442 1.970 . S
O445 C444 1.258 . S
O446 Co443 1.966 . S
O446 C444 1.263 . S
C447 O448 1.235 . S
C447 O474 1.289 . S
O448 C447 1.235 . S
C449 C451 1.400 . S
C449 N452 1.351 . S
C449 C454 1.501 . S
C450 C451 1.387 . S
C450 N453 1.341 . S
C451 C449 1.400 . S
C451 C450 1.387 . S
N452 Co443 2.022 . S
N452 C449 1.351 . S
N452 N453 1.365 . S
N453 C450 1.341 . S
N453 N452 1.365 . S
N453 H473 0.862 . S
C454 C449 1.501 . S
C454 H455 0.961 . S
C454 H456 0.961 . S
C454 H457 0.960 . S
H455 C454 0.961 . S
H456 C454 0.961 . S
H457 C454 0.960 . S
C458 N459 1.342 . S
C458 C462 1.401 . S
C458 C463 1.499 . S
N459 Co442 1.989 . S
N459 C458 1.342 . S
N459 N460 1.388 . S
N460 Co443 1.993 . S
N460 N459 1.388 . S
N460 C461 1.346 . S
C461 N460 1.346 . S
C461 C462 1.396 . S
C461 C471 1.510 . S
C462 C458 1.401 . S
C462 C461 1.396 . S
C463 C458 1.499 . S
C463 H464 0.959 . S
C463 H465 0.960 . S
C463 H466 0.961 . S
H464 C463 0.959 . S
H465 C463 0.960 . S
H466 C463 0.961 . S
O467 Co442 1.967 . S
O467 C475 1.258 . S
O468 Co443 1.941 . S
O468 C475 1.266 . S
H469 C471 0.959 . S
H470 C471 0.961 . S
C471 C461 1.510 . S
C471 H469 0.959 . S
C471 H470 0.961 . S
C471 H472 0.960 . S
H472 C471 0.960 . S
H473 N453 0.862 . S
O474 Co442 1.920 . S
O474 C447 1.289 . S
C475 O467 1.258 . S
C475 O468 1.266 . S
Co476 O479 1.970 . S
Co476 N493 1.989 . S
Co476 O501 1.967 . S
Co476 O508 1.920 . S
Co477 O480 1.966 . S
Co477 N486 2.022 . S
Co477 N494 1.993 . S
Co477 O502 1.941 . S
C478 O479 1.258 . S
C478 O480 1.263 . S
O479 Co476 1.970 . S
O479 C478 1.258 . S
O480 Co477 1.966 . S
O480 C478 1.263 . S
C481 O482 1.235 . S
C481 O508 1.289 . S
O482 C481 1.235 . S
C483 C485 1.400 . S
C483 N486 1.351 . S
C483 C488 1.501 . S
C484 C485 1.387 . S
C484 N487 1.341 . S
C485 C483 1.400 . S
C485 C484 1.387 . S
N486 Co477 2.022 . S
N486 C483 1.351 . S
N486 N487 1.365 . S
N487 C484 1.341 . S
N487 N486 1.365 . S
N487 H507 0.862 . S
C488 C483 1.501 . S
C488 H489 0.961 . S
C488 H490 0.961 . S
C488 H491 0.960 . S
H489 C488 0.961 . S
H490 C488 0.961 . S
H491 C488 0.960 . S
C492 N493 1.342 . S
C492 C496 1.401 . S
C492 C497 1.499 . S
N493 Co476 1.989 . S
N493 C492 1.342 . S
N493 N494 1.388 . S
N494 Co477 1.993 . S
N494 N493 1.388 . S
N494 C495 1.346 . S
C495 N494 1.346 . S
C495 C496 1.396 . S
C495 C505 1.510 . S
C496 C492 1.401 . S
C496 C495 1.396 . S
C497 C492 1.499 . S
C497 H498 0.959 . S
C497 H499 0.960 . S
C497 H500 0.961 . S
H498 C497 0.959 . S
H499 C497 0.960 . S
H500 C497 0.961 . S
O501 Co476 1.967 . S
O501 C509 1.258 . S
O502 Co477 1.941 . S
O502 C509 1.266 . S
H503 C505 0.959 . S
H504 C505 0.961 . S
C505 C495 1.510 . S
C505 H503 0.959 . S
C505 H504 0.961 . S
C505 H506 0.960 . S
H506 C505 0.960 . S
H507 N487 0.862 . S
O508 Co476 1.920 . S
O508 C481 1.289 . S
C509 O501 1.258 . S
C509 O502 1.266 . S
Co510 O513 1.970 . S
Co510 N527 1.989 . S
Co510 O535 1.967 . S
Co510 O542 1.920 . S
Co511 O514 1.966 . S
Co511 N520 2.022 . S
Co511 N528 1.993 . S
Co511 O536 1.941 . S
C512 O513 1.258 . S
C512 O514 1.263 . S
O513 Co510 1.970 . S
O513 C512 1.258 . S
O514 Co511 1.966 . S
O514 C512 1.263 . S
C515 O516 1.235 . S
C515 O542 1.289 . S
O516 C515 1.235 . S
C517 C519 1.400 . S
C517 N520 1.351 . S
C517 C522 1.501 . S
C518 C519 1.387 . S
C518 N521 1.341 . S
C519 C517 1.400 . S
C519 C518 1.387 . S
N520 Co511 2.022 . S
N520 C517 1.351 . S
N520 N521 1.365 . S
N521 C518 1.341 . S
N521 N520 1.365 . S
N521 H541 0.862 . S
C522 C517 1.501 . S
C522 H523 0.961 . S
C522 H524 0.961 . S
C522 H525 0.960 . S
H523 C522 0.961 . S
H524 C522 0.961 . S
H525 C522 0.960 . S
C526 N527 1.342 . S
C526 C530 1.401 . S
C526 C531 1.499 . S
N527 Co510 1.989 . S
N527 C526 1.342 . S
N527 N528 1.388 . S
N528 Co511 1.993 . S
N528 N527 1.388 . S
N528 C529 1.346 . S
C529 N528 1.346 . S
C529 C530 1.396 . S
C529 C539 1.510 . S
C530 C526 1.401 . S
C530 C529 1.396 . S
C531 C526 1.499 . S
C531 H532 0.959 . S
C531 H533 0.960 . S
C531 H534 0.961 . S
H532 C531 0.959 . S
H533 C531 0.960 . S
H534 C531 0.961 . S
O535 Co510 1.967 . S
O535 C543 1.258 . S
O536 Co511 1.941 . S
O536 C543 1.266 . S
H537 C539 0.959 . S
H538 C539 0.961 . S
C539 C529 1.510 . S
C539 H537 0.959 . S
C539 H538 0.961 . S
C539 H540 0.960 . S
H540 C539 0.960 . S
H541 N521 0.862 . S
O542 Co510 1.920 . S
O542 C515 1.289 . S
C543 O535 1.258 . S
C543 O536 1.266 . S
Co544 O547 1.970 . S
Co544 N561 1.989 . S
Co544 O569 1.967 . S
Co544 O576 1.920 . S
Co545 O548 1.966 . S
Co545 N554 2.022 . S
Co545 N562 1.993 . S
Co545 O570 1.941 . S
C546 O547 1.258 . S
C546 O548 1.263 . S
O547 Co544 1.970 . S
O547 C546 1.258 . S
O548 Co545 1.966 . S
O548 C546 1.263 . S
C549 O550 1.235 . S
C549 O576 1.289 . S
O550 C549 1.235 . S
C551 C553 1.400 . S
C551 N554 1.351 . S
C551 C556 1.501 . S
C552 C553 1.387 . S
C552 N555 1.341 . S
C553 C551 1.400 . S
C553 C552 1.387 . S
N554 Co545 2.022 . S
N554 C551 1.351 . S
N554 N555 1.365 . S
N555 C552 1.341 . S
N555 N554 1.365 . S
N555 H575 0.862 . S
C556 C551 1.501 . S
C556 H557 0.961 . S
C556 H558 0.961 . S
C556 H559 0.960 . S
H557 C556 0.961 . S
H558 C556 0.961 . S
H559 C556 0.960 . S
C560 N561 1.342 . S
C560 C564 1.401 . S
C560 C565 1.499 . S
N561 Co544 1.989 . S
N561 C560 1.342 . S
N561 N562 1.388 . S
N562 Co545 1.993 . S
N562 N561 1.388 . S
N562 C563 1.346 . S
C563 N562 1.346 . S
C563 C564 1.396 . S
C563 C573 1.510 . S
C564 C560 1.401 . S
C564 C563 1.396 . S
C565 C560 1.499 . S
C565 H566 0.959 . S
C565 H567 0.960 . S
C565 H568 0.961 . S
H566 C565 0.959 . S
H567 C565 0.960 . S
H568 C565 0.961 . S
O569 Co544 1.967 . S
O569 C577 1.258 . S
O570 Co545 1.941 . S
O570 C577 1.266 . S
H571 C573 0.959 . S
H572 C573 0.961 . S
C573 C563 1.510 . S
C573 H571 0.959 . S
C573 H572 0.961 . S
C573 H574 0.960 . S
H574 C573 0.960 . S
H575 N555 0.862 . S
O576 Co544 1.920 . S
O576 C549 1.289 . S
C577 O569 1.258 . S
C577 O570 1.266 . S
Co578 O581 1.970 . S
Co578 N595 1.989 . S
Co578 O603 1.967 . S
Co578 O610 1.920 . S
Co579 O582 1.966 . S
Co579 N588 2.022 . S
Co579 N596 1.993 . S
Co579 O604 1.941 . S
C580 O581 1.258 . S
C580 O582 1.263 . S
O581 Co578 1.970 . S
O581 C580 1.258 . S
O582 Co579 1.966 . S
O582 C580 1.263 . S
C583 O584 1.235 . S
C583 O610 1.289 . S
O584 C583 1.235 . S
C585 C587 1.400 . S
C585 N588 1.351 . S
C585 C590 1.501 . S
C586 C587 1.387 . S
C586 N589 1.341 . S
C587 C585 1.400 . S
C587 C586 1.387 . S
N588 Co579 2.022 . S
N588 C585 1.351 . S
N588 N589 1.365 . S
N589 C586 1.341 . S
N589 N588 1.365 . S
N589 H609 0.862 . S
C590 C585 1.501 . S
C590 H591 0.961 . S
C590 H592 0.961 . S
C590 H593 0.960 . S
H591 C590 0.961 . S
H592 C590 0.961 . S
H593 C590 0.960 . S
C594 N595 1.342 . S
C594 C598 1.401 . S
C594 C599 1.499 . S
N595 Co578 1.989 . S
N595 C594 1.342 . S
N595 N596 1.388 . S
N596 Co579 1.993 . S
N596 N595 1.388 . S
N596 C597 1.346 . S
C597 N596 1.346 . S
C597 C598 1.396 . S
C597 C607 1.510 . S
C598 C594 1.401 . S
C598 C597 1.396 . S
C599 C594 1.499 . S
C599 H600 0.959 . S
C599 H601 0.960 . S
C599 H602 0.961 . S
H600 C599 0.959 . S
H601 C599 0.960 . S
H602 C599 0.961 . S
O603 Co578 1.967 . S
O603 C611 1.258 . S
O604 Co579 1.941 . S
O604 C611 1.266 . S
H605 C607 0.959 . S
H606 C607 0.961 . S
C607 C597 1.510 . S
C607 H605 0.959 . S
C607 H606 0.961 . S
C607 H608 0.960 . S
H608 C607 0.960 . S
H609 N589 0.862 . S
O610 Co578 1.920 . S
O610 C583 1.289 . S
C611 O603 1.258 . S
C611 O604 1.266 . S
Co612 O615 1.970 . S
Co612 N629 1.989 . S
Co612 O637 1.967 . S
Co612 O644 1.920 . S
Co613 O616 1.966 . S
Co613 N622 2.022 . S
Co613 N630 1.993 . S
Co613 O638 1.941 . S
C614 O615 1.258 . S
C614 O616 1.263 . S
O615 Co612 1.970 . S
O615 C614 1.258 . S
O616 Co613 1.966 . S
O616 C614 1.263 . S
C617 O618 1.235 . S
C617 O644 1.289 . S
O618 C617 1.235 . S
C619 C621 1.400 . S
C619 N622 1.351 . S
C619 C624 1.501 . S
C620 C621 1.387 . S
C620 N623 1.341 . S
C621 C619 1.400 . S
C621 C620 1.387 . S
N622 Co613 2.022 . S
N622 C619 1.351 . S
N622 N623 1.365 . S
N623 C620 1.341 . S
N623 N622 1.365 . S
N623 H643 0.862 . S
C624 C619 1.501 . S
C624 H625 0.961 . S
C624 H626 0.961 . S
C624 H627 0.960 . S
H625 C624 0.961 . S
H626 C624 0.961 . S
H627 C624 0.960 . S
C628 N629 1.342 . S
C628 C632 1.401 . S
C628 C633 1.499 . S
N629 Co612 1.989 . S
N629 C628 1.342 . S
N629 N630 1.388 . S
N630 Co613 1.993 . S
N630 N629 1.388 . S
N630 C631 1.346 . S
C631 N630 1.346 . S
C631 C632 1.396 . S
C631 C641 1.510 . S
C632 C628 1.401 . S
C632 C631 1.396 . S
C633 C628 1.499 . S
C633 H634 0.959 . S
C633 H635 0.960 . S
C633 H636 0.961 . S
H634 C633 0.959 . S
H635 C633 0.960 . S
H636 C633 0.961 . S
O637 Co612 1.967 . S
O637 C645 1.258 . S
O638 Co613 1.941 . S
O638 C645 1.266 . S
H639 C641 0.959 . S
H640 C641 0.961 . S
C641 C631 1.510 . S
C641 H639 0.959 . S
C641 H640 0.961 . S
C641 H642 0.960 . S
H642 C641 0.960 . S
H643 N623 0.862 . S
O644 Co612 1.920 . S
O644 C617 1.289 . S
C645 O637 1.258 . S
C645 O638 1.266 . S
Co646 O649 1.970 . S
Co646 N663 1.989 . S
Co646 O671 1.967 . S
Co646 O678 1.920 . S
Co647 O650 1.966 . S
Co647 N656 2.022 . S
Co647 N664 1.993 . S
Co647 O672 1.941 . S
C648 O649 1.258 . S
C648 O650 1.263 . S
O649 Co646 1.970 . S
O649 C648 1.258 . S
O650 Co647 1.966 . S
O650 C648 1.263 . S
C651 O652 1.235 . S
C651 O678 1.289 . S
O652 C651 1.235 . S
C653 C655 1.400 . S
C653 N656 1.351 . S
C653 C658 1.501 . S
C654 C655 1.387 . S
C654 N657 1.341 . S
C655 C653 1.400 . S
C655 C654 1.387 . S
N656 Co647 2.022 . S
N656 C653 1.351 . S
N656 N657 1.365 . S
N657 C654 1.341 . S
N657 N656 1.365 . S
N657 H677 0.862 . S
C658 C653 1.501 . S
C658 H659 0.961 . S
C658 H660 0.961 . S
C658 H661 0.960 . S
H659 C658 0.961 . S
H660 C658 0.961 . S
H661 C658 0.960 . S
C662 N663 1.342 . S
C662 C666 1.401 . S
C662 C667 1.499 . S
N663 Co646 1.989 . S
N663 C662 1.342 . S
N663 N664 1.388 . S
N664 Co647 1.993 . S
N664 N663 1.388 . S
N664 C665 1.346 . S
C665 N664 1.346 . S
C665 C666 1.396 . S
C665 C675 1.510 . S
C666 C662 1.401 . S
C666 C665 1.396 . S
C667 C662 1.499 . S
C667 H668 0.959 . S
C667 H669 0.960 . S
C667 H670 0.961 . S
H668 C667 0.959 . S
H669 C667 0.960 . S
H670 C667 0.961 . S
O671 Co646 1.967 . S
O671 C679 1.258 . S
O672 Co647 1.941 . S
O672 C679 1.266 . S
H673 C675 0.959 . S
H674 C675 0.961 . S
C675 C665 1.510 . S
C675 H673 0.959 . S
C675 H674 0.961 . S
C675 H676 0.960 . S
H676 C675 0.960 . S
H677 N657 0.862 . S
O678 Co646 1.920 . S
O678 C651 1.289 . S
C679 O671 1.258 . S
C679 O672 1.266 . S
Co680 O683 1.970 . S
Co680 N697 1.989 . S
Co680 O705 1.967 . S
Co680 O712 1.920 . S
Co681 O684 1.966 . S
Co681 N690 2.022 . S
Co681 N698 1.993 . S
Co681 O706 1.941 . S
C682 O683 1.258 . S
C682 O684 1.263 . S
O683 Co680 1.970 . S
O683 C682 1.258 . S
O684 Co681 1.966 . S
O684 C682 1.263 . S
C685 O686 1.235 . S
C685 O712 1.289 . S
O686 C685 1.235 . S
C687 C689 1.400 . S
C687 N690 1.351 . S
C687 C692 1.501 . S
C688 C689 1.387 . S
C688 N691 1.341 . S
C689 C687 1.400 . S
C689 C688 1.387 . S
N690 Co681 2.022 . S
N690 C687 1.351 . S
N690 N691 1.365 . S
N691 C688 1.341 . S
N691 N690 1.365 . S
N691 H711 0.862 . S
C692 C687 1.501 . S
C692 H693 0.961 . S
C692 H694 0.961 . S
C692 H695 0.960 . S
H693 C692 0.961 . S
H694 C692 0.961 . S
H695 C692 0.960 . S
C696 N697 1.342 . S
C696 C700 1.401 . S
C696 C701 1.499 . S
N697 Co680 1.989 . S
N697 C696 1.342 . S
N697 N698 1.388 . S
N698 Co681 1.993 . S
N698 N697 1.388 . S
N698 C699 1.346 . S
C699 N698 1.346 . S
C699 C700 1.396 . S
C699 C709 1.510 . S
C700 C696 1.401 . S
C700 C699 1.396 . S
C701 C696 1.499 . S
C701 H702 0.959 . S
C701 H703 0.960 . S
C701 H704 0.961 . S
H702 C701 0.959 . S
H703 C701 0.960 . S
H704 C701 0.961 . S
O705 Co680 1.967 . S
O705 C713 1.258 . S
O706 Co681 1.941 . S
O706 C713 1.266 . S
H707 C709 0.959 . S
H708 C709 0.961 . S
C709 C699 1.510 . S
C709 H707 0.959 . S
C709 H708 0.961 . S
C709 H710 0.960 . S
H710 C709 0.960 . S
H711 N691 0.862 . S
O712 Co680 1.920 . S
O712 C685 1.289 . S
C713 O705 1.258 . S
C713 O706 1.266 . S
Co714 O717 1.970 . S
Co714 N731 1.989 . S
Co714 O739 1.967 . S
Co714 O746 1.920 . S
Co715 O718 1.966 . S
Co715 N724 2.022 . S
Co715 N732 1.993 . S
Co715 O740 1.941 . S
C716 O717 1.258 . S
C716 O718 1.263 . S
O717 Co714 1.970 . S
O717 C716 1.258 . S
O718 Co715 1.966 . S
O718 C716 1.263 . S
C719 O720 1.235 . S
C719 O746 1.289 . S
O720 C719 1.235 . S
C721 C723 1.400 . S
C721 N724 1.351 . S
C721 C726 1.501 . S
C722 C723 1.387 . S
C722 N725 1.341 . S
C723 C721 1.400 . S
C723 C722 1.387 . S
N724 Co715 2.022 . S
N724 C721 1.351 . S
N724 N725 1.365 . S
N725 C722 1.341 . S
N725 N724 1.365 . S
N725 H745 0.862 . S
C726 C721 1.501 . S
C726 H727 0.961 . S
C726 H728 0.961 . S
C726 H729 0.960 . S
H727 C726 0.961 . S
H728 C726 0.961 . S
H729 C726 0.960 . S
C730 N731 1.342 . S
C730 C734 1.401 . S
C730 C735 1.499 . S
N731 Co714 1.989 . S
N731 C730 1.342 . S
N731 N732 1.388 . S
N732 Co715 1.993 . S
N732 N731 1.388 . S
N732 C733 1.346 . S
C733 N732 1.346 . S
C733 C734 1.396 . S
C733 C743 1.510 . S
C734 C730 1.401 . S
C734 C733 1.396 . S
C735 C730 1.499 . S
C735 H736 0.959 . S
C735 H737 0.960 . S
C735 H738 0.961 . S
H736 C735 0.959 . S
H737 C735 0.960 . S
H738 C735 0.961 . S
O739 Co714 1.967 . S
O739 C747 1.258 . S
O740 Co715 1.941 . S
O740 C747 1.266 . S
H741 C743 0.959 . S
H742 C743 0.961 . S
C743 C733 1.510 . S
C743 H741 0.959 . S
C743 H742 0.961 . S
C743 H744 0.960 . S
H744 C743 0.960 . S
H745 N725 0.862 . S
O746 Co714 1.920 . S
O746 C719 1.289 . S
C747 O739 1.258 . S
C747 O740 1.266 . S
Co748 O751 1.970 . S
Co748 N765 1.989 . S
Co748 O773 1.967 . S
Co748 O780 1.920 . S
Co749 O752 1.966 . S
Co749 N758 2.022 . S
Co749 N766 1.993 . S
Co749 O774 1.941 . S
C750 O751 1.258 . S
C750 O752 1.263 . S
O751 Co748 1.970 . S
O751 C750 1.258 . S
O752 Co749 1.966 . S
O752 C750 1.263 . S
C753 O754 1.235 . S
C753 O780 1.289 . S
O754 C753 1.235 . S
C755 C757 1.400 . S
C755 N758 1.351 . S
C755 C760 1.501 . S
C756 C757 1.387 . S
C756 N759 1.341 . S
C757 C755 1.400 . S
C757 C756 1.387 . S
N758 Co749 2.022 . S
N758 C755 1.351 . S
N758 N759 1.365 . S
N759 C756 1.341 . S
N759 N758 1.365 . S
N759 H779 0.862 . S
C760 C755 1.501 . S
C760 H761 0.961 . S
C760 H762 0.961 . S
C760 H763 0.960 . S
H761 C760 0.961 . S
H762 C760 0.961 . S
H763 C760 0.960 . S
C764 N765 1.342 . S
C764 C768 1.401 . S
C764 C769 1.499 . S
N765 Co748 1.989 . S
N765 C764 1.342 . S
N765 N766 1.388 . S
N766 Co749 1.993 . S
N766 N765 1.388 . S
N766 C767 1.346 . S
C767 N766 1.346 . S
C767 C768 1.396 . S
C767 C777 1.510 . S
C768 C764 1.401 . S
C768 C767 1.396 . S
C769 C764 1.499 . S
C769 H770 0.959 . S
C769 H771 0.960 . S
C769 H772 0.961 . S
H770 C769 0.959 . S
H771 C769 0.960 . S
H772 C769 0.961 . S
O773 Co748 1.967 . S
O773 C781 1.258 . S
O774 Co749 1.941 . S
O774 C781 1.266 . S
H775 C777 0.959 . S
H776 C777 0.961 . S
C777 C767 1.510 . S
C777 H775 0.959 . S
C777 H776 0.961 . S
C777 H778 0.960 . S
H778 C777 0.960 . S
H779 N759 0.862 . S
O780 Co748 1.920 . S
O780 C753 1.289 . S
C781 O773 1.258 . S
C781 O774 1.266 . S
Co782 O785 1.970 . S
Co782 N799 1.989 . S
Co782 O807 1.967 . S
Co782 O814 1.920 . S
Co783 O786 1.966 . S
Co783 N792 2.022 . S
Co783 N800 1.993 . S
Co783 O808 1.941 . S
C784 O785 1.258 . S
C784 O786 1.263 . S
O785 Co782 1.970 . S
O785 C784 1.258 . S
O786 Co783 1.966 . S
O786 C784 1.263 . S
C787 O788 1.235 . S
C787 O814 1.289 . S
O788 C787 1.235 . S
C789 C791 1.400 . S
C789 N792 1.351 . S
C789 C794 1.501 . S
C790 C791 1.387 . S
C790 N793 1.341 . S
C791 C789 1.400 . S
C791 C790 1.387 . S
N792 Co783 2.022 . S
N792 C789 1.351 . S
N792 N793 1.365 . S
N793 C790 1.341 . S
N793 N792 1.365 . S
N793 H813 0.862 . S
C794 C789 1.501 . S
C794 H795 0.961 . S
C794 H796 0.961 . S
C794 H797 0.960 . S
H795 C794 0.961 . S
H796 C794 0.961 . S
H797 C794 0.960 . S
C798 N799 1.342 . S
C798 C802 1.401 . S
C798 C803 1.499 . S
N799 Co782 1.989 . S
N799 C798 1.342 . S
N799 N800 1.388 . S
N800 Co783 1.993 . S
N800 N799 1.388 . S
N800 C801 1.346 . S
C801 N800 1.346 . S
C801 C802 1.396 . S
C801 C811 1.510 . S
C802 C798 1.401 . S
C802 C801 1.396 . S
C803 C798 1.499 . S
C803 H804 0.959 . S
C803 H805 0.960 . S
C803 H806 0.961 . S
H804 C803 0.959 . S
H805 C803 0.960 . S
H806 C803 0.961 . S
O807 Co782 1.967 . S
O807 C815 1.258 . S
O808 Co783 1.941 . S
O808 C815 1.266 . S
H809 C811 0.959 . S
H810 C811 0.961 . S
C811 C801 1.510 . S
C811 H809 0.959 . S
C811 H810 0.961 . S
C811 H812 0.960 . S
H812 C811 0.960 . S
H813 N793 0.862 . S
O814 Co782 1.920 . S
O814 C787 1.289 . S
C815 O807 1.258 . S
C815 O808 1.266 . S
C816 C817 1.349 . S
C816 C818 1.327 . S
C816 H841 0.950 . S
C817 C816 1.349 . S
C817 C833 1.349 . S
C818 C816 1.327 . S
C818 C837 1.429 . S
C818 H842 0.950 . S
C819 C836 1.574 . S
C819 C838 1.368 . S
C819 H843 0.949 . S
H820 C824 0.949 . S
C821 C822 1.349 . S
C821 C823 1.327 . S
C821 H844 0.950 . S
C822 C821 1.349 . S
C822 C834 1.349 . S
C823 C821 1.327 . S
C823 C839 1.429 . S
C823 H845 0.950 . S
C824 H820 0.949 . S
C824 C832 1.574 . S
C824 C840 1.368 . S
H825 C833 0.950 . S
H826 C831 0.950 . S
H827 C832 0.949 . S
H828 C834 0.950 . S
H829 C835 0.950 . S
H830 C836 0.949 . S
C831 H826 0.950 . S
C831 C833 1.327 . S
C831 C837 1.429 . S
C832 C824 1.574 . S
C832 H827 0.949 . S
C832 C838 1.368 . S
C833 C817 1.349 . S
C833 H825 0.950 . S
C833 C831 1.327 . S
C834 C822 1.349 . S
C834 H828 0.950 . S
C834 C835 1.327 . S
C835 H829 0.950 . S
C835 C834 1.327 . S
C835 C839 1.429 . S
C836 C819 1.574 . S
C836 H830 0.949 . S
C836 C840 1.368 . S
C837 C818 1.429 . S
C837 C831 1.429 . S
C837 C838 1.523 . S
C838 C819 1.368 . S
C838 C832 1.368 . S
C838 C837 1.523 . S
C839 C823 1.429 . S
C839 C835 1.429 . S
C839 C840 1.523 . S
C840 C824 1.368 . S
C840 C836 1.368 . S
C840 C839 1.523 . S
H841 C816 0.950 . S
H842 C818 0.950 . S
H843 C819 0.949 . S
H844 C821 0.950 . S
H845 C823 0.950 . S
C846 C847 1.349 . S
C846 C848 1.327 . S
C846 H871 0.950 . S
C847 C846 1.349 . S
C847 C863 1.349 . S
C848 C846 1.327 . S
C848 C867 1.429 . S
C848 H872 0.950 . S
C849 C866 1.574 . S
C849 C868 1.368 . S
C849 H873 0.949 . S
H850 C854 0.949 . S
C851 C852 1.349 . S
C851 C853 1.327 . S
C851 H874 0.950 . S
C852 C851 1.349 . S
C852 C864 1.349 . S
C853 C851 1.327 . S
C853 C869 1.429 . S
C853 H875 0.950 . S
C854 H850 0.949 . S
C854 C862 1.574 . S
C854 C870 1.368 . S
H855 C863 0.950 . S
H856 C861 0.950 . S
H857 C862 0.949 . S
H858 C864 0.950 . S
H859 C865 0.950 . S
H860 C866 0.949 . S
C861 H856 0.950 . S
C861 C863 1.327 . S
C861 C867 1.429 . S
C862 C854 1.574 . S
C862 H857 0.949 . S
C862 C868 1.368 . S
C863 C847 1.349 . S
C863 H855 0.950 . S
C863 C861 1.327 . S
C864 C852 1.349 . S
C864 H858 0.950 . S
C864 C865 1.327 . S
C865 H859 0.950 . S
C865 C864 1.327 . S
C865 C869 1.429 . S
C866 C849 1.574 . S
C866 H860 0.949 . S
C866 C870 1.368 . S
C867 C848 1.429 . S
C867 C861 1.429 . S
C867 C868 1.523 . S
C868 C849 1.368 . S
C868 C862 1.368 . S
C868 C867 1.523 . S
C869 C853 1.429 . S
C869 C865 1.429 . S
C869 C870 1.523 . S
C870 C854 1.368 . S
C870 C866 1.368 . S
C870 C869 1.523 . S
H871 C846 0.950 . S
H872 C848 0.950 . S
H873 C849 0.949 . S
H874 C851 0.950 . S
H875 C853 0.950 . S
C876 C877 1.349 . S
C876 C878 1.327 . S
C876 H901 0.950 . S
C877 C876 1.349 . S
C877 C893 1.349 . S
C878 C876 1.327 . S
C878 C897 1.429 . S
C878 H902 0.950 . S
C879 C896 1.574 . S
C879 C898 1.368 . S
C879 H903 0.949 . S
H880 C884 0.949 . S
C881 C882 1.349 1_556 S
C881 C883 1.327 . S
C881 H904 0.950 . S
C882 C881 1.349 1_554 S
C882 C894 1.349 . S
C883 C881 1.327 . S
C883 C899 1.429 . S
C883 H905 0.950 . S
C884 H880 0.949 . S
C884 C892 1.574 . S
C884 C900 1.368 . S
H885 C893 0.950 . S
H886 C891 0.950 . S
H887 C892 0.949 . S
H888 C894 0.950 . S
H889 C895 0.950 . S
H890 C896 0.949 . S
C891 H886 0.950 . S
C891 C893 1.327 . S
C891 C897 1.429 . S
C892 C884 1.574 . S
C892 H887 0.949 . S
C892 C898 1.368 . S
C893 C877 1.349 . S
C893 H885 0.950 . S
C893 C891 1.327 . S
C894 C882 1.349 . S
C894 H888 0.950 . S
C894 C895 1.327 . S
C895 H889 0.950 . S
C895 C894 1.327 . S
C895 C899 1.429 1_554 S
C896 C879 1.574 . S
C896 H890 0.949 . S
C896 C900 1.368 . S
C897 C878 1.429 . S
C897 C891 1.429 . S
C897 C898 1.523 . S
C898 C879 1.368 . S
C898 C892 1.368 . S
C898 C897 1.523 . S
C899 C883 1.429 . S
C899 C895 1.429 1_556 S
C899 C900 1.523 . S
C900 C884 1.368 . S
C900 C896 1.368 . S
C900 C899 1.523 . S
H901 C876 0.950 . S
H902 C878 0.950 . S
H903 C879 0.949 . S
H904 C881 0.950 . S
H905 C883 0.950 . S
C906 C907 1.349 . S
C906 C908 1.327 . S
C906 H931 0.950 . S
C907 C906 1.349 . S
C907 C923 1.349 . S
C908 C906 1.327 . S
C908 C927 1.429 . S
C908 H932 0.950 . S
C909 C926 1.574 . S
C909 C928 1.368 . S
C909 H933 0.949 . S
H910 C914 0.949 . S
C911 C912 1.349 . S
C911 C913 1.327 . S
C911 H934 0.950 . S
C912 C911 1.349 . S
C912 C924 1.349 . S
C913 C911 1.327 . S
C913 C929 1.429 . S
C913 H935 0.950 . S
C914 H910 0.949 . S
C914 C922 1.574 . S
C914 C930 1.368 . S
H915 C923 0.950 . S
H916 C921 0.950 . S
H917 C922 0.949 . S
H918 C924 0.950 . S
H919 C925 0.950 . S
H920 C926 0.949 . S
C921 H916 0.950 . S
C921 C923 1.327 . S
C921 C927 1.429 . S
C922 C914 1.574 . S
C922 H917 0.949 . S
C922 C928 1.368 . S
C923 C907 1.349 . S
C923 H915 0.950 . S
C923 C921 1.327 . S
C924 C912 1.349 . S
C924 H918 0.950 . S
C924 C925 1.327 . S
C925 H919 0.950 . S
C925 C924 1.327 . S
C925 C929 1.429 . S
C926 C909 1.574 . S
C926 H920 0.949 . S
C926 C930 1.368 . S
C927 C908 1.429 . S
C927 C921 1.429 . S
C927 C928 1.523 . S
C928 C909 1.368 . S
C928 C922 1.368 . S
C928 C927 1.523 . S
C929 C913 1.429 . S
C929 C925 1.429 . S
C929 C930 1.523 . S
C930 C914 1.368 . S
C930 C926 1.368 . S
C930 C929 1.523 . S
H931 C906 0.950 . S
H932 C908 0.950 . S
H933 C909 0.949 . S
H934 C911 0.950 . S
H935 C913 0.950 . S
C936 C937 1.349 . S
C936 C938 1.327 . S
C936 H961 0.950 . S
C937 C936 1.349 . S
C937 C953 1.349 . S
C938 C936 1.327 . S
C938 C957 1.429 . S
C938 H962 0.950 . S
C939 C956 1.574 . S
C939 C958 1.368 . S
C939 H963 0.949 . S
H940 C944 0.949 . S
C941 C942 1.349 . S
C941 C943 1.327 . S
C941 H964 0.950 . S
C942 C941 1.349 . S
C942 C954 1.349 . S
C943 C941 1.327 . S
C943 C959 1.429 . S
C943 H965 0.950 . S
C944 H940 0.949 . S
C944 C952 1.574 . S
C944 C960 1.368 . S
H945 C953 0.950 . S
H946 C951 0.950 . S
H947 C952 0.949 . S
H948 C954 0.950 . S
H949 C955 0.950 . S
H950 C956 0.949 . S
C951 H946 0.950 . S
C951 C953 1.327 . S
C951 C957 1.429 . S
C952 C944 1.574 . S
C952 H947 0.949 . S
C952 C958 1.368 . S
C953 C937 1.349 . S
C953 H945 0.950 . S
C953 C951 1.327 . S
C954 C942 1.349 . S
C954 H948 0.950 . S
C954 C955 1.327 . S
C955 H949 0.950 . S
C955 C954 1.327 . S
C955 C959 1.429 . S
C956 C939 1.574 . S
C956 H950 0.949 . S
C956 C960 1.368 . S
C957 C938 1.429 . S
C957 C951 1.429 . S
C957 C958 1.523 . S
C958 C939 1.368 . S
C958 C952 1.368 . S
C958 C957 1.523 . S
C959 C943 1.429 . S
C959 C955 1.429 . S
C959 C960 1.523 . S
C960 C944 1.368 . S
C960 C956 1.368 . S
C960 C959 1.523 . S
H961 C936 0.950 . S
H962 C938 0.950 . S
H963 C939 0.949 . S
H964 C941 0.950 . S
H965 C943 0.950 . S
C966 C967 1.384 . S
C966 C968 1.289 1_545 S
C966 H991 0.955 . S
C967 C966 1.384 . S
C967 C983 1.349 . S
C968 C966 1.289 1_565 S
C968 C987 1.429 . S
C968 H992 0.950 . S
C969 C986 1.574 . S
C969 C988 1.368 . S
C969 H993 0.949 . S
H970 C974 0.949 . S
C971 C972 1.349 . S
C971 C973 1.327 . S
C971 H994 0.950 . S
C972 C971 1.349 . S
C972 C984 1.349 . S
C973 C971 1.327 . S
C973 C989 1.429 . S
C973 H995 0.950 . S
C974 H970 0.949 . S
C974 C982 1.574 . S
C974 C990 1.368 . S
H975 C983 0.950 . S
H976 C981 0.950 . S
H977 C982 0.949 . S
H978 C984 0.950 . S
H979 C985 0.950 . S
H980 C986 0.949 . S
C981 H976 0.950 . S
C981 C983 1.327 1_565 S
C981 C987 1.429 . S
C982 C974 1.574 . S
C982 H977 0.949 . S
C982 C988 1.368 . S
C983 C967 1.349 . S
C983 H975 0.950 . S
C983 C981 1.327 1_545 S
C984 C972 1.349 . S
C984 H978 0.950 . S
C984 C985 1.327 . S
C985 H979 0.950 . S
C985 C984 1.327 . S
C985 C989 1.429 . S
C986 C969 1.574 . S
C986 H980 0.949 . S
C986 C990 1.368 . S
C987 C968 1.429 . S
C987 C981 1.429 . S
C987 C988 1.523 . S
C988 C969 1.368 . S
C988 C982 1.368 . S
C988 C987 1.523 . S
C989 C973 1.429 . S
C989 C985 1.429 . S
C989 C990 1.523 . S
C990 C974 1.368 . S
C990 C986 1.368 . S
C990 C989 1.523 . S
H991 C966 0.955 . S
H992 C968 0.950 . S
H993 C969 0.949 . S
H994 C971 0.950 . S
H995 C973 0.950 . S
C996 C997 1.349 . S
C996 C998 1.327 . S
C996 H1021 0.950 . S
C997 C996 1.349 . S
C997 C1013 1.349 . S
C998 C996 1.327 . S
C998 C1017 1.429 . S
C998 H1022 0.950 . S
C999 C1016 1.574 . S
C999 C1018 1.368 . S
C999 H1023 0.949 . S
H1000 C1004 0.949 . S
C1001 C1002 1.349 . S
C1001 C1003 1.327 . S
C1001 H1024 0.950 . S
C1002 C1001 1.349 . S
C1002 C1014 1.349 1_556 S
C1003 C1001 1.327 . S
C1003 C1019 1.429 1_556 S
C1003 H1025 0.950 . S
C1004 H1000 0.949 . S
C1004 C1012 1.574 . S
C1004 C1020 1.368 . S
H1005 C1013 0.950 . S
H1006 C1011 0.950 . S
H1007 C1012 0.949 . S
H1008 C1014 0.950 . S
H1009 C1015 0.950 . S
H1010 C1016 0.949 . S
C1011 H1006 0.950 . S
C1011 C1013 1.327 . S
C1011 C1017 1.429 . S
C1012 C1004 1.574 . S
C1012 H1007 0.949 . S
C1012 C1018 1.368 . S
C1013 C997 1.349 . S
C1013 H1005 0.950 . S
C1013 C1011 1.327 . S
C1014 C1002 1.349 1_554 S
C1014 H1008 0.950 . S
C1014 C1015 1.327 . S
C1015 H1009 0.950 . S
C1015 C1014 1.327 . S
C1015 C1019 1.429 . S
C1016 C999 1.574 . S
C1016 H1010 0.949 . S
C1016 C1020 1.368 . S
C1017 C998 1.429 . S
C1017 C1011 1.429 . S
C1017 C1018 1.523 . S
C1018 C999 1.368 . S
C1018 C1012 1.368 . S
C1018 C1017 1.523 . S
C1019 C1003 1.429 1_554 S
C1019 C1015 1.429 . S
C1019 C1020 1.523 . S
C1020 C1004 1.368 . S
C1020 C1016 1.368 . S
C1020 C1019 1.523 . S
H1021 C996 0.950 . S
H1022 C998 0.950 . S
H1023 C999 0.949 . S
H1024 C1001 0.950 . S
H1025 C1003 0.950 . S
C1026 C1027 1.350 . S
C1026 C1028 1.326 1_565 S
C1026 H1051 0.949 . S
C1027 C1026 1.350 . S
C1027 C1043 1.349 . S
C1028 C1026 1.326 1_545 S
C1028 C1047 1.429 . S
C1028 H1052 0.950 . S
C1029 C1046 1.574 . S
C1029 C1048 1.368 . S
C1029 H1053 0.949 . S
H1030 C1034 0.949 . S
C1031 C1032 1.349 . S
C1031 C1033 1.327 . S
C1031 H1054 0.950 . S
C1032 C1031 1.349 . S
C1032 C1044 1.349 . S
C1033 C1031 1.327 . S
C1033 C1049 1.429 . S
C1033 H1055 0.950 . S
C1034 H1030 0.949 . S
C1034 C1042 1.574 . S
C1034 C1050 1.368 . S
H1035 C1043 0.950 . S
H1036 C1041 0.950 . S
H1037 C1042 0.949 . S
H1038 C1044 0.950 . S
H1039 C1045 0.950 . S
H1040 C1046 0.949 . S
C1041 H1036 0.950 . S
C1041 C1043 1.313 1_545 S
C1041 C1047 1.443 . S
C1042 C1034 1.574 . S
C1042 H1037 0.949 . S
C1042 C1048 1.368 . S
C1043 C1027 1.349 . S
C1043 H1035 0.950 . S
C1043 C1041 1.313 1_565 S
C1044 C1032 1.349 . S
C1044 H1038 0.950 . S
C1044 C1045 1.327 . S
C1045 H1039 0.950 . S
C1045 C1044 1.327 . S
C1045 C1049 1.429 . S
C1046 C1029 1.574 . S
C1046 H1040 0.949 . S
C1046 C1050 1.368 . S
C1047 C1028 1.429 . S
C1047 C1041 1.443 . S
C1047 C1048 1.523 . S
C1048 C1029 1.368 . S
C1048 C1042 1.368 . S
C1048 C1047 1.523 . S
C1049 C1033 1.429 . S
C1049 C1045 1.429 . S
C1049 C1050 1.523 . S
C1050 C1034 1.368 . S
C1050 C1046 1.368 . S
C1050 C1049 1.523 . S
H1051 C1026 0.949 . S
H1052 C1028 0.950 . S
H1053 C1029 0.949 . S
H1054 C1031 0.950 . S
H1055 C1033 0.950 . S
C1056 C1057 1.349 . S
C1056 C1058 1.327 . S
C1056 H1081 0.950 . S
C1057 C1056 1.349 . S
C1057 C1073 1.349 . S
C1058 C1056 1.327 . S
C1058 C1077 1.429 . S
C1058 H1082 0.950 . S
C1059 C1076 1.574 . S
C1059 C1078 1.368 . S
C1059 H1083 0.949 . S
H1060 C1064 0.949 . S
C1061 C1062 1.349 . S
C1061 C1063 1.327 . S
C1061 H1084 0.950 . S
C1062 C1061 1.349 . S
C1062 C1074 1.349 . S
C1063 C1061 1.327 . S
C1063 C1079 1.429 . S
C1063 H1085 0.950 . S
C1064 H1060 0.949 . S
C1064 C1072 1.574 . S
C1064 C1080 1.368 . S
H1065 C1073 0.950 . S
H1066 C1071 0.950 . S
H1067 C1072 0.949 . S
H1068 C1074 0.950 . S
H1069 C1075 0.950 . S
H1070 C1076 0.949 . S
C1071 H1066 0.950 . S
C1071 C1073 1.327 . S
C1071 C1077 1.429 . S
C1072 C1064 1.574 . S
C1072 H1067 0.949 . S
C1072 C1078 1.368 . S
C1073 C1057 1.349 . S
C1073 H1065 0.950 . S
C1073 C1071 1.327 . S
C1074 C1062 1.349 . S
C1074 H1068 0.950 . S
C1074 C1075 1.327 . S
C1075 H1069 0.950 . S
C1075 C1074 1.327 . S
C1075 C1079 1.429 . S
C1076 C1059 1.574 . S
C1076 H1070 0.949 . S
C1076 C1080 1.368 . S
C1077 C1058 1.429 . S
C1077 C1071 1.429 . S
C1077 C1078 1.523 . S
C1078 C1059 1.368 . S
C1078 C1072 1.368 . S
C1078 C1077 1.523 . S
C1079 C1063 1.429 . S
C1079 C1075 1.429 . S
C1079 C1080 1.523 . S
C1080 C1064 1.368 . S
C1080 C1076 1.368 . S
C1080 C1079 1.523 . S
H1081 C1056 0.950 . S
H1082 C1058 0.950 . S
H1083 C1059 0.949 . S
H1084 C1061 0.950 . S
H1085 C1063 0.950 . S
C1086 C1087 1.349 . S
C1086 C1088 1.327 . S
C1086 H1111 0.950 . S
C1087 C1086 1.349 . S
C1087 C1103 1.349 . S
C1088 C1086 1.327 . S
C1088 C1107 1.429 . S
C1088 H1112 0.950 . S
C1089 C1106 1.574 . S
C1089 C1108 1.368 . S
C1089 H1113 0.949 . S
H1090 C1094 0.949 . S
C1091 C1092 1.349 . S
C1091 C1093 1.327 . S
C1091 H1114 0.950 . S
C1092 C1091 1.349 . S
C1092 C1104 1.349 . S
C1093 C1091 1.327 . S
C1093 C1109 1.429 . S
C1093 H1115 0.950 . S
C1094 H1090 0.949 . S
C1094 C1102 1.574 . S
C1094 C1110 1.368 . S
H1095 C1103 0.950 . S
H1096 C1101 0.950 . S
H1097 C1102 0.949 . S
H1098 C1104 0.950 . S
H1099 C1105 0.950 . S
H1100 C1106 0.949 . S
C1101 H1096 0.950 . S
C1101 C1103 1.327 . S
C1101 C1107 1.429 . S
C1102 C1094 1.574 . S
C1102 H1097 0.949 . S
C1102 C1108 1.368 . S
C1103 C1087 1.349 . S
C1103 H1095 0.950 . S
C1103 C1101 1.327 . S
C1104 C1092 1.349 . S
C1104 H1098 0.950 . S
C1104 C1105 1.327 . S
C1105 H1099 0.950 . S
C1105 C1104 1.327 . S
C1105 C1109 1.429 . S
C1106 C1089 1.574 . S
C1106 H1100 0.949 . S
C1106 C1110 1.368 . S
C1107 C1088 1.429 . S
C1107 C1101 1.429 . S
C1107 C1108 1.523 . S
C1108 C1089 1.368 . S
C1108 C1102 1.368 . S
C1108 C1107 1.523 . S
C1109 C1093 1.429 . S
C1109 C1105 1.429 . S
C1109 C1110 1.523 . S
C1110 C1094 1.368 . S
C1110 C1106 1.368 . S
C1110 C1109 1.523 . S
H1111 C1086 0.950 . S
H1112 C1088 0.950 . S
H1113 C1089 0.949 . S
H1114 C1091 0.950 . S
H1115 C1093 0.950 . S
C1116 C1117 1.349 . S
C1116 C1118 1.327 . S
C1116 H1141 0.950 . S
C1117 C1116 1.349 . S
C1117 C1133 1.349 . S
C1118 C1116 1.327 . S
C1118 C1137 1.429 . S
C1118 H1142 0.950 . S
C1119 C1136 1.574 . S
C1119 C1138 1.368 . S
C1119 H1143 0.949 . S
H1120 C1124 0.949 . S
C1121 C1122 1.307 1_455 S
C1121 C1123 1.364 . S
C1121 H1144 0.958 . S
C1122 C1121 1.307 1_655 S
C1122 C1134 1.349 . S
C1123 C1121 1.364 . S
C1123 C1139 1.429 . S
C1123 H1145 0.950 . S
C1124 H1120 0.949 . S
C1124 C1132 1.574 . S
C1124 C1140 1.368 . S
H1125 C1133 0.950 . S
H1126 C1131 0.950 . S
H1127 C1132 0.949 . S
H1128 C1134 0.950 . S
H1129 C1135 0.950 . S
H1130 C1136 0.949 . S
C1131 H1126 0.950 . S
C1131 C1133 1.327 . S
C1131 C1137 1.429 . S
C1132 C1124 1.574 . S
C1132 H1127 0.949 . S
C1132 C1138 1.368 . S
C1133 C1117 1.349 . S
C1133 H1125 0.950 . S
C1133 C1131 1.327 . S
C1134 C1122 1.349 . S
C1134 H1128 0.950 . S
C1134 C1135 1.327 . S
C1135 H1129 0.950 . S
C1135 C1134 1.327 . S
C1135 C1139 1.429 1_655 S
C1136 C1119 1.574 . S
C1136 H1130 0.949 . S
C1136 C1140 1.368 . S
C1137 C1118 1.429 . S
C1137 C1131 1.429 . S
C1137 C1138 1.523 . S
C1138 C1119 1.368 . S
C1138 C1132 1.368 . S
C1138 C1137 1.523 . S
C1139 C1123 1.429 . S
C1139 C1135 1.429 1_455 S
C1139 C1140 1.523 . S
C1140 C1124 1.368 . S
C1140 C1136 1.368 . S
C1140 C1139 1.523 . S
H1141 C1116 0.950 . S
H1142 C1118 0.950 . S
H1143 C1119 0.949 . S
H1144 C1121 0.958 . S
H1145 C1123 0.950 . S
C1146 C1147 1.349 . S
C1146 C1148 1.327 1_455 S
C1146 H1171 0.950 . S
C1147 C1146 1.349 . S
C1147 C1163 1.349 . S
C1148 C1146 1.327 1_655 S
C1148 C1167 1.429 . S
C1148 H1172 0.950 . S
C1149 C1166 1.574 . S
C1149 C1168 1.368 . S
C1149 H1173 0.949 . S
H1150 C1154 0.949 . S
C1151 C1152 1.349 . S
C1151 C1153 1.327 . S
C1151 H1174 0.950 . S
C1152 C1151 1.349 . S
C1152 C1164 1.349 . S
C1153 C1151 1.327 . S
C1153 C1169 1.429 . S
C1153 H1175 0.950 . S
C1154 H1150 0.949 . S
C1154 C1162 1.574 . S
C1154 C1170 1.368 . S
H1155 C1163 0.950 . S
H1156 C1161 0.950 . S
H1157 C1162 0.949 . S
H1158 C1164 0.950 . S
H1159 C1165 0.950 . S
H1160 C1166 0.949 . S
C1161 H1156 0.950 . S
C1161 C1163 1.327 1_655 S
C1161 C1167 1.429 . S
C1162 C1154 1.574 . S
C1162 H1157 0.949 . S
C1162 C1168 1.368 . S
C1163 C1147 1.349 . S
C1163 H1155 0.950 . S
C1163 C1161 1.327 1_455 S
C1164 C1152 1.349 . S
C1164 H1158 0.950 . S
C1164 C1165 1.327 . S
C1165 H1159 0.950 . S
C1165 C1164 1.327 . S
C1165 C1169 1.429 . S
C1166 C1149 1.574 . S
C1166 H1160 0.949 . S
C1166 C1170 1.368 . S
C1167 C1148 1.429 . S
C1167 C1161 1.429 . S
C1167 C1168 1.523 . S
C1168 C1149 1.368 . S
C1168 C1162 1.368 . S
C1168 C1167 1.523 . S
C1169 C1153 1.429 . S
C1169 C1165 1.429 . S
C1169 C1170 1.523 . S
C1170 C1154 1.368 . S
C1170 C1166 1.368 . S
C1170 C1169 1.523 . S
H1171 C1146 0.950 . S
H1172 C1148 0.950 . S
H1173 C1149 0.949 . S
H1174 C1151 0.950 . S
H1175 C1153 0.950 . S
C1176 C1177 1.349 1_655 S
C1176 C1178 1.327 . S
C1176 H1201 0.950 . S
C1177 C1176 1.349 1_455 S
C1177 C1193 1.349 . S
C1178 C1176 1.327 . S
C1178 C1197 1.429 . S
C1178 H1202 0.950 . S
C1179 C1196 1.574 . S
C1179 C1198 1.368 . S
C1179 H1203 0.949 . S
H1180 C1184 0.949 . S
C1181 C1182 1.349 . S
C1181 C1183 1.327 . S
C1181 H1204 0.950 . S
C1182 C1181 1.349 . S
C1182 C1194 1.349 . S
C1183 C1181 1.327 . S
C1183 C1199 1.429 . S
C1183 H1205 0.950 . S
C1184 H1180 0.949 . S
C1184 C1192 1.574 . S
C1184 C1200 1.368 . S
H1185 C1193 0.950 . S
H1186 C1191 0.950 . S
H1187 C1192 0.949 . S
H1188 C1194 0.950 . S
H1189 C1195 0.950 . S
H1190 C1196 0.949 . S
C1191 H1186 0.950 . S
C1191 C1193 1.327 . S
C1191 C1197 1.429 1_455 S
C1192 C1184 1.574 . S
C1192 H1187 0.949 . S
C1192 C1198 1.368 . S
C1193 C1177 1.349 . S
C1193 H1185 0.950 . S
C1193 C1191 1.327 . S
C1194 C1182 1.349 . S
C1194 H1188 0.950 . S
C1194 C1195 1.327 . S
C1195 H1189 0.950 . S
C1195 C1194 1.327 . S
C1195 C1199 1.429 . S
C1196 C1179 1.574 . S
C1196 H1190 0.949 . S
C1196 C1200 1.368 . S
C1197 C1178 1.429 . S
C1197 C1191 1.429 1_655 S
C1197 C1198 1.523 . S
C1198 C1179 1.368 . S
C1198 C1192 1.368 . S
C1198 C1197 1.523 . S
C1199 C1183 1.429 . S
C1199 C1195 1.429 . S
C1199 C1200 1.523 . S
C1200 C1184 1.368 . S
C1200 C1196 1.368 . S
C1200 C1199 1.523 . S
H1201 C1176 0.950 . S
H1202 C1178 0.950 . S
H1203 C1179 0.949 . S
H1204 C1181 0.950 . S
H1205 C1183 0.950 . S
C1206 C1207 1.349 . S
C1206 C1208 1.327 . S
C1206 H1231 0.950 . S
C1207 C1206 1.349 . S
C1207 C1223 1.349 . S
C1208 C1206 1.327 . S
C1208 C1227 1.429 . S
C1208 H1232 0.950 . S
C1209 C1226 1.574 . S
C1209 C1228 1.368 . S
C1209 H1233 0.949 . S
H1210 C1214 0.949 . S
C1211 C1212 1.349 . S
C1211 C1213 1.327 . S
C1211 H1234 0.950 . S
C1212 C1211 1.349 . S
C1212 C1224 1.349 . S
C1213 C1211 1.327 . S
C1213 C1229 1.429 . S
C1213 H1235 0.950 . S
C1214 H1210 0.949 . S
C1214 C1222 1.574 . S
C1214 C1230 1.368 . S
H1215 C1223 0.950 . S
H1216 C1221 0.950 . S
H1217 C1222 0.949 . S
H1218 C1224 0.950 . S
H1219 C1225 0.950 . S
H1220 C1226 0.949 . S
C1221 H1216 0.950 . S
C1221 C1223 1.327 . S
C1221 C1227 1.429 . S
C1222 C1214 1.574 . S
C1222 H1217 0.949 . S
C1222 C1228 1.368 . S
C1223 C1207 1.349 . S
C1223 H1215 0.950 . S
C1223 C1221 1.327 . S
C1224 C1212 1.349 . S
C1224 H1218 0.950 . S
C1224 C1225 1.327 . S
C1225 H1219 0.950 . S
C1225 C1224 1.327 . S
C1225 C1229 1.429 . S
C1226 C1209 1.574 . S
C1226 H1220 0.949 . S
C1226 C1230 1.368 . S
C1227 C1208 1.429 . S
C1227 C1221 1.429 . S
C1227 C1228 1.523 . S
C1228 C1209 1.368 . S
C1228 C1222 1.368 . S
C1228 C1227 1.523 . S
C1229 C1213 1.429 . S
C1229 C1225 1.429 . S
C1229 C1230 1.523 . S
C1230 C1214 1.368 . S
C1230 C1226 1.368 . S
C1230 C1229 1.523 . S
H1231 C1206 0.950 . S
H1232 C1208 0.950 . S
H1233 C1209 0.949 . S
H1234 C1211 0.950 . S
H1235 C1213 0.950 . S
C1236 C1237 1.349 . S
C1236 C1238 1.327 . S
C1236 H1261 0.950 . S
C1237 C1236 1.349 . S
C1237 C1253 1.349 . S
C1238 C1236 1.327 . S
C1238 C1257 1.429 . S
C1238 H1262 0.950 . S
C1239 C1256 1.574 . S
C1239 C1258 1.368 . S
C1239 H1263 0.949 . S
H1240 C1244 0.949 . S
C1241 C1242 1.349 . S
C1241 C1243 1.327 . S
C1241 H1264 0.950 . S
C1242 C1241 1.349 . S
C1242 C1254 1.349 . S
C1243 C1241 1.327 . S
C1243 C1259 1.429 . S
C1243 H1265 0.950 . S
C1244 H1240 0.949 . S
C1244 C1252 1.574 . S
C1244 C1260 1.368 . S
H1245 C1253 0.950 . S
H1246 C1251 0.950 . S
H1247 C1252 0.949 . S
H1248 C1254 0.950 . S
H1249 C1255 0.950 . S
H1250 C1256 0.949 . S
C1251 H1246 0.950 . S
C1251 C1253 1.327 . S
C1251 C1257 1.429 . S
C1252 C1244 1.574 . S
C1252 H1247 0.949 . S
C1252 C1258 1.368 . S
C1253 C1237 1.349 . S
C1253 H1245 0.950 . S
C1253 C1251 1.327 . S
C1254 C1242 1.349 . S
C1254 H1248 0.950 . S
C1254 C1255 1.327 . S
C1255 H1249 0.950 . S
C1255 C1254 1.327 . S
C1255 C1259 1.429 . S
C1256 C1239 1.574 . S
C1256 H1250 0.949 . S
C1256 C1260 1.368 . S
C1257 C1238 1.429 . S
C1257 C1251 1.429 . S
C1257 C1258 1.523 . S
C1258 C1239 1.368 . S
C1258 C1252 1.368 . S
C1258 C1257 1.523 . S
C1259 C1243 1.429 . S
C1259 C1255 1.429 . S
C1259 C1260 1.523 . S
C1260 C1244 1.368 . S
C1260 C1256 1.368 . S
C1260 C1259 1.523 . S
H1261 C1236 0.950 . S
H1262 C1238 0.950 . S
H1263 C1239 0.949 . S
H1264 C1241 0.950 . S
H1265 C1243 0.950 . S
C1266 C1267 1.349 . S
C1266 C1268 1.327 1_655 S
C1266 H1291 0.950 . S
C1267 C1266 1.349 . S
C1267 C1283 1.349 . S
C1268 C1266 1.327 1_455 S
C1268 C1287 1.429 . S
C1268 H1292 0.950 . S
C1269 C1286 1.574 . S
C1269 C1288 1.368 . S
C1269 H1293 0.949 . S
H1270 C1274 0.949 . S
C1271 C1272 1.349 . S
C1271 C1273 1.327 . S
C1271 H1294 0.950 . S
C1272 C1271 1.349 . S
C1272 C1284 1.349 . S
C1273 C1271 1.327 . S
C1273 C1289 1.429 . S
C1273 H1295 0.950 . S
C1274 H1270 0.949 . S
C1274 C1282 1.574 . S
C1274 C1290 1.368 . S
H1275 C1283 0.950 . S
H1276 C1281 0.950 . S
H1277 C1282 0.949 . S
H1278 C1284 0.950 . S
H1279 C1285 0.950 . S
H1280 C1286 0.949 . S
C1281 H1276 0.950 . S
C1281 C1283 1.327 1_455 S
C1281 C1287 1.429 . S
C1282 C1274 1.574 . S
C1282 H1277 0.949 . S
C1282 C1288 1.368 . S
C1283 C1267 1.349 . S
C1283 H1275 0.950 . S
C1283 C1281 1.327 1_655 S
C1284 C1272 1.349 . S
C1284 H1278 0.950 . S
C1284 C1285 1.327 . S
C1285 H1279 0.950 . S
C1285 C1284 1.327 . S
C1285 C1289 1.429 . S
C1286 C1269 1.574 . S
C1286 H1280 0.949 . S
C1286 C1290 1.368 . S
C1287 C1268 1.429 . S
C1287 C1281 1.429 . S
C1287 C1288 1.523 . S
C1288 C1269 1.368 . S
C1288 C1282 1.368 . S
C1288 C1287 1.523 . S
C1289 C1273 1.429 . S
C1289 C1285 1.429 . S
C1289 C1290 1.523 . S
C1290 C1274 1.368 . S
C1290 C1286 1.368 . S
C1290 C1289 1.523 . S
H1291 C1266 0.950 . S
H1292 C1268 0.950 . S
H1293 C1269 0.949 . S
H1294 C1271 0.950 . S
H1295 C1273 0.950 . S
C1296 C1297 1.349 . S
C1296 C1298 1.327 . S
C1296 H1321 0.950 . S
C1297 C1296 1.349 . S
C1297 C1313 1.349 . S
C1298 C1296 1.327 . S
C1298 C1317 1.429 . S
C1298 H1322 0.950 . S
C1299 C1316 1.574 . S
C1299 C1318 1.368 . S
C1299 H1323 0.949 . S
H1300 C1304 0.949 . S
C1301 C1302 1.349 . S
C1301 C1303 1.327 . S
C1301 H1324 0.950 . S
C1302 C1301 1.349 . S
C1302 C1314 1.349 . S
C1303 C1301 1.327 . S
C1303 C1319 1.429 . S
C1303 H1325 0.950 . S
C1304 H1300 0.949 . S
C1304 C1312 1.574 . S
C1304 C1320 1.368 . S
H1305 C1313 0.950 . S
H1306 C1311 0.950 . S
H1307 C1312 0.949 . S
H1308 C1314 0.950 . S
H1309 C1315 0.950 . S
H1310 C1316 0.949 . S
C1311 H1306 0.950 . S
C1311 C1313 1.327 . S
C1311 C1317 1.429 . S
C1312 C1304 1.574 . S
C1312 H1307 0.949 . S
C1312 C1318 1.368 . S
C1313 C1297 1.349 . S
C1313 H1305 0.950 . S
C1313 C1311 1.327 . S
C1314 C1302 1.349 . S
C1314 H1308 0.950 . S
C1314 C1315 1.327 . S
C1315 H1309 0.950 . S
C1315 C1314 1.327 . S
C1315 C1319 1.429 . S
C1316 C1299 1.574 . S
C1316 H1310 0.949 . S
C1316 C1320 1.368 . S
C1317 C1298 1.429 . S
C1317 C1311 1.429 . S
C1317 C1318 1.523 . S
C1318 C1299 1.368 . S
C1318 C1312 1.368 . S
C1318 C1317 1.523 . S
C1319 C1303 1.429 . S
C1319 C1315 1.429 . S
C1319 C1320 1.523 . S
C1320 C1304 1.368 . S
C1320 C1316 1.368 . S
C1320 C1319 1.523 . S
H1321 C1296 0.950 . S
H1322 C1298 0.950 . S
H1323 C1299 0.949 . S
H1324 C1301 0.950 . S
H1325 C1303 0.950 . S
C1326 C1327 1.349 . S
C1326 C1328 1.327 . S
C1326 H1351 0.950 . S
C1327 C1326 1.349 . S
C1327 C1343 1.349 . S
C1328 C1326 1.327 . S
C1328 C1347 1.429 . S
C1328 H1352 0.950 . S
C1329 C1346 1.574 . S
C1329 C1348 1.368 . S
C1329 H1353 0.949 . S
H1330 C1334 0.949 . S
C1331 C1332 1.349 1_545 S
C1331 C1333 1.327 . S
C1331 H1354 0.950 . S
C1332 C1331 1.349 1_565 S
C1332 C1344 1.349 . S
C1333 C1331 1.327 . S
C1333 C1349 1.429 . S
C1333 H1355 0.950 . S
C1334 H1330 0.949 . S
C1334 C1342 1.574 . S
C1334 C1350 1.368 . S
H1335 C1343 0.950 . S
H1336 C1341 0.950 . S
H1337 C1342 0.949 . S
H1338 C1344 0.950 . S
H1339 C1345 0.950 . S
H1340 C1346 0.949 . S
C1341 H1336 0.950 . S
C1341 C1343 1.327 . S
C1341 C1347 1.429 . S
C1342 C1334 1.574 . S
C1342 H1337 0.949 . S
C1342 C1348 1.368 . S
C1343 C1327 1.349 . S
C1343 H1335 0.950 . S
C1343 C1341 1.327 . S
C1344 C1332 1.349 . S
C1344 H1338 0.950 . S
C1344 C1345 1.327 . S
C1345 H1339 0.950 . S
C1345 C1344 1.327 . S
C1345 C1349 1.429 1_565 S
C1346 C1329 1.574 . S
C1346 H1340 0.949 . S
C1346 C1350 1.368 . S
C1347 C1328 1.429 . S
C1347 C1341 1.429 . S
C1347 C1348 1.523 . S
C1348 C1329 1.368 . S
C1348 C1342 1.368 . S
C1348 C1347 1.523 . S
C1349 C1333 1.429 . S
C1349 C1345 1.429 1_545 S
C1349 C1350 1.523 . S
C1350 C1334 1.368 . S
C1350 C1346 1.368 . S
C1350 C1349 1.523 . S
H1351 C1326 0.950 . S
H1352 C1328 0.950 . S
H1353 C1329 0.949 . S
H1354 C1331 0.950 . S
H1355 C1333 0.950 . S
C1356 C1357 1.349 . S
C1356 C1358 1.327 . S
C1356 H1381 0.950 . S
C1357 C1356 1.349 . S
C1357 C1373 1.349 . S
C1358 C1356 1.327 . S
C1358 C1377 1.429 . S
C1358 H1382 0.950 . S
C1359 C1376 1.574 . S
C1359 C1378 1.368 . S
C1359 H1383 0.949 . S
H1360 C1364 0.949 . S
C1361 C1362 1.349 . S
C1361 C1363 1.327 . S
C1361 H1384 0.950 . S
C1362 C1361 1.349 . S
C1362 C1374 1.349 . S
C1363 C1361 1.327 . S
C1363 C1379 1.429 . S
C1363 H1385 0.950 . S
C1364 H1360 0.949 . S
C1364 C1372 1.574 . S
C1364 C1380 1.368 . S
H1365 C1373 0.950 . S
H1366 C1371 0.950 . S
H1367 C1372 0.949 . S
H1368 C1374 0.950 . S
H1369 C1375 0.950 . S
H1370 C1376 0.949 . S
C1371 H1366 0.950 . S
C1371 C1373 1.327 . S
C1371 C1377 1.429 . S
C1372 C1364 1.574 . S
C1372 H1367 0.949 . S
C1372 C1378 1.368 . S
C1373 C1357 1.349 . S
C1373 H1365 0.950 . S
C1373 C1371 1.327 . S
C1374 C1362 1.349 . S
C1374 H1368 0.950 . S
C1374 C1375 1.327 . S
C1375 H1369 0.950 . S
C1375 C1374 1.327 . S
C1375 C1379 1.429 . S
C1376 C1359 1.574 . S
C1376 H1370 0.949 . S
C1376 C1380 1.368 . S
C1377 C1358 1.429 . S
C1377 C1371 1.429 . S
C1377 C1378 1.523 . S
C1378 C1359 1.368 . S
C1378 C1372 1.368 . S
C1378 C1377 1.523 . S
C1379 C1363 1.429 . S
C1379 C1375 1.429 . S
C1379 C1380 1.523 . S
C1380 C1364 1.368 . S
C1380 C1376 1.368 . S
C1380 C1379 1.523 . S
H1381 C1356 0.950 . S
H1382 C1358 0.950 . S
H1383 C1359 0.949 . S
H1384 C1361 0.950 . S
H1385 C1363 0.950 . S
C1386 C1387 1.349 . S
C1386 C1388 1.327 . S
C1386 H1411 0.950 . S
C1387 C1386 1.349 . S
C1387 C1403 1.315 1_545 S
C1388 C1386 1.327 . S
C1388 C1407 1.429 1_545 S
C1388 H1412 0.950 . S
C1389 C1406 1.574 . S
C1389 C1408 1.368 . S
C1389 H1413 0.949 . S
H1390 C1394 0.949 . S
C1391 C1392 1.349 . S
C1391 C1393 1.327 . S
C1391 H1414 0.950 . S
C1392 C1391 1.349 . S
C1392 C1404 1.349 . S
C1393 C1391 1.327 . S
C1393 C1409 1.429 . S
C1393 H1415 0.950 . S
C1394 H1390 0.949 . S
C1394 C1402 1.574 . S
C1394 C1410 1.368 . S
H1395 C1403 0.956 . S
H1396 C1401 0.950 . S
H1397 C1402 0.949 . S
H1398 C1404 0.950 . S
H1399 C1405 0.950 . S
H1400 C1406 0.949 . S
C1401 H1396 0.950 . S
C1401 C1403 1.357 . S
C1401 C1407 1.429 . S
C1402 C1394 1.574 . S
C1402 H1397 0.949 . S
C1402 C1408 1.368 . S
C1403 C1387 1.315 1_565 S
C1403 H1395 0.956 . S
C1403 C1401 1.357 . S
C1404 C1392 1.349 . S
C1404 H1398 0.950 . S
C1404 C1405 1.327 . S
C1405 H1399 0.950 . S
C1405 C1404 1.327 . S
C1405 C1409 1.429 . S
C1406 C1389 1.574 . S
C1406 H1400 0.949 . S
C1406 C1410 1.368 . S
C1407 C1388 1.429 1_565 S
C1407 C1401 1.429 . S
C1407 C1408 1.523 . S
C1408 C1389 1.368 . S
C1408 C1402 1.368 . S
C1408 C1407 1.523 . S
C1409 C1393 1.429 . S
C1409 C1405 1.429 . S
C1409 C1410 1.523 . S
C1410 C1394 1.368 . S
C1410 C1406 1.368 . S
C1410 C1409 1.523 . S
H1411 C1386 0.950 . S
H1412 C1388 0.950 . S
H1413 C1389 0.949 . S
H1414 C1391 0.950 . S
H1415 C1393 0.950 . S
C1416 C1417 1.349 . S
C1416 C1418 1.327 . S
C1416 H1441 0.950 . S
C1417 C1416 1.349 . S
C1417 C1433 1.349 . S
C1418 C1416 1.327 . S
C1418 C1437 1.429 . S
C1418 H1442 0.950 . S
C1419 C1436 1.574 . S
C1419 C1438 1.368 . S
C1419 H1443 0.949 . S
H1420 C1424 0.949 . S
C1421 C1422 1.349 1_554 S
C1421 C1423 1.327 . S
C1421 H1444 0.950 . S
C1422 C1421 1.349 1_556 S
C1422 C1434 1.349 . S
C1423 C1421 1.327 . S
C1423 C1439 1.429 . S
C1423 H1445 0.950 . S
C1424 H1420 0.949 . S
C1424 C1432 1.574 . S
C1424 C1440 1.368 . S
H1425 C1433 0.950 . S
H1426 C1431 0.950 . S
H1427 C1432 0.949 . S
H1428 C1434 0.950 . S
H1429 C1435 0.950 . S
H1430 C1436 0.949 . S
C1431 H1426 0.950 . S
C1431 C1433 1.327 . S
C1431 C1437 1.429 . S
C1432 C1424 1.574 . S
C1432 H1427 0.949 . S
C1432 C1438 1.368 . S
C1433 C1417 1.349 . S
C1433 H1425 0.950 . S
C1433 C1431 1.327 . S
C1434 C1422 1.349 . S
C1434 H1428 0.950 . S
C1434 C1435 1.327 . S
C1435 H1429 0.950 . S
C1435 C1434 1.327 . S
C1435 C1439 1.429 1_556 S
C1436 C1419 1.574 . S
C1436 H1430 0.949 . S
C1436 C1440 1.368 . S
C1437 C1418 1.429 . S
C1437 C1431 1.429 . S
C1437 C1438 1.523 . S
C1438 C1419 1.368 . S
C1438 C1432 1.368 . S
C1438 C1437 1.523 . S
C1439 C1423 1.429 . S
C1439 C1435 1.429 1_554 S
C1439 C1440 1.523 . S
C1440 C1424 1.368 . S
C1440 C1436 1.368 . S
C1440 C1439 1.523 . S
H1441 C1416 0.950 . S
H1442 C1418 0.950 . S
H1443 C1419 0.949 . S
H1444 C1421 0.950 . S
H1445 C1423 0.950 . S
C1446 C1447 1.349 . S
C1446 C1448 1.327 . S
C1446 H1471 0.950 . S
C1447 C1446 1.349 . S
C1447 C1463 1.349 . S
C1448 C1446 1.327 . S
C1448 C1467 1.429 . S
C1448 H1472 0.950 . S
C1449 C1466 1.574 . S
C1449 C1468 1.368 . S
C1449 H1473 0.949 . S
H1450 C1454 0.949 . S
C1451 C1452 1.349 . S
C1451 C1453 1.327 . S
C1451 H1474 0.950 . S
C1452 C1451 1.349 . S
C1452 C1464 1.349 . S
C1453 C1451 1.327 . S
C1453 C1469 1.429 . S
C1453 H1475 0.950 . S
C1454 H1450 0.949 . S
C1454 C1462 1.574 . S
C1454 C1470 1.368 . S
H1455 C1463 0.950 . S
H1456 C1461 0.950 . S
H1457 C1462 0.949 . S
H1458 C1464 0.950 . S
H1459 C1465 0.950 . S
H1460 C1466 0.949 . S
C1461 H1456 0.950 . S
C1461 C1463 1.327 . S
C1461 C1467 1.429 . S
C1462 C1454 1.574 . S
C1462 H1457 0.949 . S
C1462 C1468 1.368 . S
C1463 C1447 1.349 . S
C1463 H1455 0.950 . S
C1463 C1461 1.327 . S
C1464 C1452 1.349 . S
C1464 H1458 0.950 . S
C1464 C1465 1.327 . S
C1465 H1459 0.950 . S
C1465 C1464 1.327 . S
C1465 C1469 1.429 . S
C1466 C1449 1.574 . S
C1466 H1460 0.949 . S
C1466 C1470 1.368 . S
C1467 C1448 1.429 . S
C1467 C1461 1.429 . S
C1467 C1468 1.523 . S
C1468 C1449 1.368 . S
C1468 C1462 1.368 . S
C1468 C1467 1.523 . S
C1469 C1453 1.429 . S
C1469 C1465 1.429 . S
C1469 C1470 1.523 . S
C1470 C1454 1.368 . S
C1470 C1466 1.368 . S
C1470 C1469 1.523 . S
H1471 C1446 0.950 . S
H1472 C1448 0.950 . S
H1473 C1449 0.949 . S
H1474 C1451 0.950 . S
H1475 C1453 0.950 . S
C1476 C1477 1.349 . S
C1476 C1478 1.327 . S
C1476 H1501 0.950 . S
C1477 C1476 1.349 . S
C1477 C1493 1.349 . S
C1478 C1476 1.327 . S
C1478 C1497 1.429 . S
C1478 H1502 0.950 . S
C1479 C1496 1.574 . S
C1479 C1498 1.368 . S
C1479 H1503 0.949 . S
H1480 C1484 0.949 . S
C1481 C1482 1.349 . S
C1481 C1483 1.327 . S
C1481 H1504 0.950 . S
C1482 C1481 1.349 . S
C1482 C1494 1.349 . S
C1483 C1481 1.327 . S
C1483 C1499 1.429 . S
C1483 H1505 0.950 . S
C1484 H1480 0.949 . S
C1484 C1492 1.574 . S
C1484 C1500 1.368 . S
H1485 C1493 0.950 . S
H1486 C1491 0.950 . S
H1487 C1492 0.949 . S
H1488 C1494 0.950 . S
H1489 C1495 0.950 . S
H1490 C1496 0.949 . S
C1491 H1486 0.950 . S
C1491 C1493 1.327 . S
C1491 C1497 1.429 . S
C1492 C1484 1.574 . S
C1492 H1487 0.949 . S
C1492 C1498 1.368 . S
C1493 C1477 1.349 . S
C1493 H1485 0.950 . S
C1493 C1491 1.327 . S
C1494 C1482 1.349 . S
C1494 H1488 0.950 . S
C1494 C1495 1.327 . S
C1495 H1489 0.950 . S
C1495 C1494 1.327 . S
C1495 C1499 1.429 . S
C1496 C1479 1.574 . S
C1496 H1490 0.949 . S
C1496 C1500 1.368 . S
C1497 C1478 1.429 . S
C1497 C1491 1.429 . S
C1497 C1498 1.523 . S
C1498 C1479 1.368 . S
C1498 C1492 1.368 . S
C1498 C1497 1.523 . S
C1499 C1483 1.429 . S
C1499 C1495 1.429 . S
C1499 C1500 1.523 . S
C1500 C1484 1.368 . S
C1500 C1496 1.368 . S
C1500 C1499 1.523 . S
H1501 C1476 0.950 . S
H1502 C1478 0.950 . S
H1503 C1479 0.949 . S
H1504 C1481 0.950 . S
H1505 C1483 0.950 . S
C1506 C1507 1.349 . S
C1506 C1508 1.327 . S
C1506 H1531 0.950 . S
C1507 C1506 1.349 . S
C1507 C1523 1.349 1_554 S
C1508 C1506 1.327 . S
C1508 C1527 1.429 1_554 S
C1508 H1532 0.950 . S
C1509 C1526 1.574 . S
C1509 C1528 1.368 . S
C1509 H1533 0.949 . S
H1510 C1514 0.949 . S
C1511 C1512 1.349 . S
C1511 C1513 1.327 . S
C1511 H1534 0.950 . S
C1512 C1511 1.349 . S
C1512 C1524 1.349 . S
C1513 C1511 1.327 . S
C1513 C1529 1.429 . S
C1513 H1535 0.950 . S
C1514 H1510 0.949 . S
C1514 C1522 1.574 . S
C1514 C1530 1.368 . S
H1515 C1523 0.950 . S
H1516 C1521 0.950 . S
H1517 C1522 0.949 . S
H1518 C1524 0.950 . S
H1519 C1525 0.950 . S
H1520 C1526 0.949 . S
C1521 H1516 0.950 . S
C1521 C1523 1.327 . S
C1521 C1527 1.429 . S
C1522 C1514 1.574 . S
C1522 H1517 0.949 . S
C1522 C1528 1.368 . S
C1523 C1507 1.349 1_556 S
C1523 H1515 0.950 . S
C1523 C1521 1.327 . S
C1524 C1512 1.349 . S
C1524 H1518 0.950 . S
C1524 C1525 1.327 . S
C1525 H1519 0.950 . S
C1525 C1524 1.327 . S
C1525 C1529 1.429 . S
C1526 C1509 1.574 . S
C1526 H1520 0.949 . S
C1526 C1530 1.368 . S
C1527 C1508 1.429 1_556 S
C1527 C1521 1.429 . S
C1527 C1528 1.523 . S
C1528 C1509 1.368 . S
C1528 C1522 1.368 . S
C1528 C1527 1.523 . S
C1529 C1513 1.429 . S
C1529 C1525 1.429 . S
C1529 C1530 1.523 . S
C1530 C1514 1.368 . S
C1530 C1526 1.368 . S
C1530 C1529 1.523 . S
H1531 C1506 0.950 . S
H1532 C1508 0.950 . S
H1533 C1509 0.949 . S
H1534 C1511 0.950 . S
H1535 C1513 0.950 . S
C1536 C1537 1.349 . S
C1536 C1538 1.327 . S
C1536 H1561 0.950 . S
C1537 C1536 1.349 . S
C1537 C1553 1.349 . S
C1538 C1536 1.327 . S
C1538 C1557 1.429 . S
C1538 H1562 0.950 . S
C1539 C1556 1.574 . S
C1539 C1558 1.368 . S
C1539 H1563 0.949 . S
H1540 C1544 0.949 . S
C1541 C1542 1.349 . S
C1541 C1543 1.327 . S
C1541 H1564 0.950 . S
C1542 C1541 1.349 . S
C1542 C1554 1.349 . S
C1543 C1541 1.327 . S
C1543 C1559 1.429 . S
C1543 H1565 0.950 . S
C1544 H1540 0.949 . S
C1544 C1552 1.574 . S
C1544 C1560 1.368 . S
H1545 C1553 0.950 . S
H1546 C1551 0.950 . S
H1547 C1552 0.949 . S
H1548 C1554 0.950 . S
H1549 C1555 0.950 . S
H1550 C1556 0.949 . S
C1551 H1546 0.950 . S
C1551 C1553 1.327 . S
C1551 C1557 1.429 . S
C1552 C1544 1.574 . S
C1552 H1547 0.949 . S
C1552 C1558 1.368 . S
C1553 C1537 1.349 . S
C1553 H1545 0.950 . S
C1553 C1551 1.327 . S
C1554 C1542 1.349 . S
C1554 H1548 0.950 . S
C1554 C1555 1.327 . S
C1555 H1549 0.950 . S
C1555 C1554 1.327 . S
C1555 C1559 1.429 . S
C1556 C1539 1.574 . S
C1556 H1550 0.949 . S
C1556 C1560 1.368 . S
C1557 C1538 1.429 . S
C1557 C1551 1.429 . S
C1557 C1558 1.523 . S
C1558 C1539 1.368 . S
C1558 C1552 1.368 . S
C1558 C1557 1.523 . S
C1559 C1543 1.429 . S
C1559 C1555 1.429 . S
C1559 C1560 1.523 . S
C1560 C1544 1.368 . S
C1560 C1556 1.368 . S
C1560 C1559 1.523 . S
H1561 C1536 0.950 . S
H1562 C1538 0.950 . S
H1563 C1539 0.949 . S
H1564 C1541 0.950 . S
H1565 C1543 0.950 . S
C1566 C1567 1.349 . S
C1566 C1568 1.327 . S
C1566 H1591 0.950 . S
C1567 C1566 1.349 . S
C1567 C1583 1.349 . S
C1568 C1566 1.327 . S
C1568 C1587 1.429 . S
C1568 H1592 0.950 . S
C1569 C1586 1.574 . S
C1569 C1588 1.368 . S
C1569 H1593 0.949 . S
H1570 C1574 0.949 . S
C1571 C1572 1.349 . S
C1571 C1573 1.327 . S
C1571 H1594 0.950 . S
C1572 C1571 1.349 . S
C1572 C1584 1.349 . S
C1573 C1571 1.327 . S
C1573 C1589 1.429 . S
C1573 H1595 0.950 . S
C1574 H1570 0.949 . S
C1574 C1582 1.574 . S
C1574 C1590 1.368 . S
H1575 C1583 0.950 . S
H1576 C1581 0.950 . S
H1577 C1582 0.949 . S
H1578 C1584 0.950 . S
H1579 C1585 0.953 . S
H1580 C1586 0.949 1_554 S
C1581 H1576 0.950 . S
C1581 C1583 1.327 . S
C1581 C1587 1.429 . S
C1582 C1574 1.574 . S
C1582 H1577 0.949 . S
C1582 C1588 1.368 . S
C1583 C1567 1.349 . S
C1583 H1575 0.950 . S
C1583 C1581 1.327 . S
C1584 C1572 1.349 . S
C1584 H1578 0.950 . S
C1584 C1585 1.327 . S
C1585 H1579 0.953 . S
C1585 C1584 1.327 . S
C1585 C1589 1.429 . S
C1586 C1569 1.574 . S
C1586 H1580 0.949 1_556 S
C1586 C1590 1.368 . S
C1587 C1568 1.429 . S
C1587 C1581 1.429 . S
C1587 C1588 1.523 . S
C1588 C1569 1.368 . S
C1588 C1582 1.368 . S
C1588 C1587 1.523 . S
C1589 C1573 1.429 . S
C1589 C1585 1.429 . S
C1589 C1590 1.523 1_554 S
C1590 C1574 1.368 . S
C1590 C1586 1.368 . S
C1590 C1589 1.523 1_556 S
H1591 C1566 0.950 . S
H1592 C1568 0.950 . S
H1593 C1569 0.949 . S
H1594 C1571 0.950 . S
H1595 C1573 0.950 . S
C1596 C1597 1.349 . S
C1596 C1598 1.327 . S
C1596 H1621 0.950 . S
C1597 C1596 1.349 . S
C1597 C1613 1.349 . S
C1598 C1596 1.327 . S
C1598 C1617 1.429 . S
C1598 H1622 0.950 . S
C1599 C1616 1.574 . S
C1599 C1618 1.368 . S
C1599 H1623 0.949 . S
H1600 C1604 0.949 . S
C1601 C1602 1.349 . S
C1601 C1603 1.327 . S
C1601 H1624 0.950 . S
C1602 C1601 1.349 . S
C1602 C1614 1.349 . S
C1603 C1601 1.327 . S
C1603 C1619 1.429 . S
C1603 H1625 0.950 . S
C1604 H1600 0.949 . S
C1604 C1612 1.574 . S
C1604 C1620 1.368 . S
H1605 C1613 0.950 . S
H1606 C1611 0.950 . S
H1607 C1612 0.949 . S
H1608 C1614 0.950 . S
H1609 C1615 0.950 . S
H1610 C1616 0.949 . S
C1611 H1606 0.950 . S
C1611 C1613 1.327 . S
C1611 C1617 1.429 . S
C1612 C1604 1.574 . S
C1612 H1607 0.949 . S
C1612 C1618 1.368 . S
C1613 C1597 1.349 . S
C1613 H1605 0.950 . S
C1613 C1611 1.327 . S
C1614 C1602 1.349 . S
C1614 H1608 0.950 . S
C1614 C1615 1.327 . S
C1615 H1609 0.950 . S
C1615 C1614 1.327 . S
C1615 C1619 1.429 . S
C1616 C1599 1.574 . S
C1616 H1610 0.949 . S
C1616 C1620 1.368 . S
C1617 C1598 1.429 . S
C1617 C1611 1.429 . S
C1617 C1618 1.523 . S
C1618 C1599 1.368 . S
C1618 C1612 1.368 . S
C1618 C1617 1.523 . S
C1619 C1603 1.429 . S
C1619 C1615 1.429 . S
C1619 C1620 1.523 . S
C1620 C1604 1.368 . S
C1620 C1616 1.368 . S
C1620 C1619 1.523 . S
H1621 C1596 0.950 . S
H1622 C1598 0.950 . S
H1623 C1599 0.949 . S
H1624 C1601 0.950 . S
H1625 C1603 0.950 . S
C1626 C1627 1.349 . S
C1626 C1628 1.327 . S
C1626 H1651 0.950 . S
C1627 C1626 1.349 . S
C1627 C1643 1.349 . S
C1628 C1626 1.327 . S
C1628 C1647 1.429 . S
C1628 H1652 0.950 . S
C1629 C1646 1.574 . S
C1629 C1648 1.368 . S
C1629 H1653 0.949 . S
H1630 C1634 0.956 . S
C1631 C1632 1.349 . S
C1631 C1633 1.354 . S
C1631 H1654 0.950 . S
C1632 C1631 1.349 . S
C1632 C1644 1.349 . S
C1633 C1631 1.354 . S
C1633 C1649 1.439 . S
C1633 H1655 0.914 1_655 S
C1634 H1630 0.956 . S
C1634 C1642 1.569 1_655 S
C1634 C1650 1.365 1_655 S
H1635 C1643 0.950 . S
H1636 C1641 0.950 . S
H1637 C1642 0.949 . S
H1638 C1644 0.950 . S
H1639 C1645 0.950 . S
H1640 C1646 0.949 . S
C1641 H1636 0.950 . S
C1641 C1643 1.327 . S
C1641 C1647 1.429 . S
C1642 C1634 1.569 1_455 S
C1642 H1637 0.949 . S
C1642 C1648 1.368 . S
C1643 C1627 1.349 . S
C1643 H1635 0.950 . S
C1643 C1641 1.327 . S
C1644 C1632 1.349 . S
C1644 H1638 0.950 . S
C1644 C1645 1.327 . S
C1645 H1639 0.950 . S
C1645 C1644 1.327 . S
C1645 C1649 1.429 . S
C1646 C1629 1.574 . S
C1646 H1640 0.949 . S
C1646 C1650 1.368 . S
C1647 C1628 1.429 . S
C1647 C1641 1.429 . S
C1647 C1648 1.523 . S
C1648 C1629 1.368 . S
C1648 C1642 1.368 . S
C1648 C1647 1.523 . S
C1649 C1633 1.439 . S
C1649 C1645 1.429 . S
C1649 C1650 1.523 1_655 S
C1650 C1634 1.365 1_455 S
C1650 C1646 1.368 . S
C1650 C1649 1.523 1_455 S
H1651 C1626 0.950 . S
H1652 C1628 0.950 . S
H1653 C1629 0.949 . S
H1654 C1631 0.950 . S
H1655 C1633 0.914 1_455 S
C1656 C1657 1.349 . S
C1656 C1658 1.327 . S
C1656 H1681 0.950 . S
C1657 C1656 1.349 . S
C1657 C1673 1.349 . S
C1658 C1656 1.327 . S
C1658 C1677 1.429 . S
C1658 H1682 0.950 . S
C1659 C1676 1.574 . S
C1659 C1678 1.368 . S
C1659 H1683 0.949 . S
H1660 C1664 0.949 . S
C1661 C1662 1.349 . S
C1661 C1663 1.327 . S
C1661 H1684 0.950 . S
C1662 C1661 1.349 . S
C1662 C1674 1.349 . S
C1663 C1661 1.327 . S
C1663 C1679 1.429 . S
C1663 H1685 0.950 . S
C1664 H1660 0.949 . S
C1664 C1672 1.574 . S
C1664 C1680 1.368 . S
H1665 C1673 0.950 . S
H1666 C1671 0.950 . S
H1667 C1672 0.949 . S
H1668 C1674 0.950 . S
H1669 C1675 0.950 . S
H1670 C1676 0.949 . S
C1671 H1666 0.950 . S
C1671 C1673 1.327 . S
C1671 C1677 1.429 . S
C1672 C1664 1.574 . S
C1672 H1667 0.949 . S
C1672 C1678 1.368 . S
C1673 C1657 1.349 . S
C1673 H1665 0.950 . S
C1673 C1671 1.327 . S
C1674 C1662 1.349 . S
C1674 H1668 0.950 . S
C1674 C1675 1.327 . S
C1675 H1669 0.950 . S
C1675 C1674 1.327 . S
C1675 C1679 1.429 . S
C1676 C1659 1.574 . S
C1676 H1670 0.949 . S
C1676 C1680 1.368 . S
C1677 C1658 1.429 . S
C1677 C1671 1.429 . S
C1677 C1678 1.523 . S
C1678 C1659 1.368 . S
C1678 C1672 1.368 . S
C1678 C1677 1.523 . S
C1679 C1663 1.429 . S
C1679 C1675 1.429 . S
C1679 C1680 1.523 . S
C1680 C1664 1.368 . S
C1680 C1676 1.368 . S
C1680 C1679 1.523 . S
H1681 C1656 0.950 . S
H1682 C1658 0.950 . S
H1683 C1659 0.949 . S
H1684 C1661 0.950 . S
H1685 C1663 0.950 . S
C1686 C1687 1.349 . S
C1686 C1688 1.327 . S
C1686 H1711 0.950 . S
C1687 C1686 1.349 . S
C1687 C1703 1.349 . S
C1688 C1686 1.327 . S
C1688 C1707 1.429 . S
C1688 H1712 0.950 . S
C1689 C1706 1.574 . S
C1689 C1708 1.368 . S
C1689 H1713 0.949 . S
H1690 C1694 0.949 . S
C1691 C1692 1.349 . S
C1691 C1693 1.327 . S
C1691 H1714 0.950 . S
C1692 C1691 1.349 . S
C1692 C1704 1.349 . S
C1693 C1691 1.327 . S
C1693 C1709 1.429 . S
C1693 H1715 0.950 . S
C1694 H1690 0.949 . S
C1694 C1702 1.574 . S
C1694 C1710 1.368 . S
H1695 C1703 0.950 . S
H1696 C1701 0.950 . S
H1697 C1702 0.949 . S
H1698 C1704 0.950 . S
H1699 C1705 0.950 . S
H1700 C1706 0.949 . S
C1701 H1696 0.950 . S
C1701 C1703 1.327 . S
C1701 C1707 1.429 . S
C1702 C1694 1.574 . S
C1702 H1697 0.949 . S
C1702 C1708 1.368 . S
C1703 C1687 1.349 . S
C1703 H1695 0.950 . S
C1703 C1701 1.327 . S
C1704 C1692 1.349 . S
C1704 H1698 0.950 . S
C1704 C1705 1.327 . S
C1705 H1699 0.950 . S
C1705 C1704 1.327 . S
C1705 C1709 1.429 . S
C1706 C1689 1.574 . S
C1706 H1700 0.949 . S
C1706 C1710 1.368 . S
C1707 C1688 1.429 . S
C1707 C1701 1.429 . S
C1707 C1708 1.523 . S
C1708 C1689 1.368 . S
C1708 C1702 1.368 . S
C1708 C1707 1.523 . S
C1709 C1693 1.429 . S
C1709 C1705 1.429 . S
C1709 C1710 1.523 . S
C1710 C1694 1.368 . S
C1710 C1706 1.368 . S
C1710 C1709 1.523 . S
H1711 C1686 0.950 . S
H1712 C1688 0.950 . S
H1713 C1689 0.949 . S
H1714 C1691 0.950 . S
H1715 C1693 0.950 . S
C1716 C1717 1.349 . S
C1716 C1718 1.327 . S
C1716 H1741 0.950 . S
C1717 C1716 1.349 . S
C1717 C1733 1.349 . S
C1718 C1716 1.327 . S
C1718 C1737 1.429 . S
C1718 H1742 0.950 . S
C1719 C1736 1.574 . S
C1719 C1738 1.368 . S
C1719 H1743 0.949 . S
H1720 C1724 0.949 . S
C1721 C1722 1.349 . S
C1721 C1723 1.327 . S
C1721 H1744 0.950 . S
C1722 C1721 1.349 . S
C1722 C1734 1.349 . S
C1723 C1721 1.327 . S
C1723 C1739 1.429 . S
C1723 H1745 0.950 . S
C1724 H1720 0.949 . S
C1724 C1732 1.574 . S
C1724 C1740 1.368 . S
H1725 C1733 0.950 . S
H1726 C1731 0.950 . S
H1727 C1732 0.949 . S
H1728 C1734 0.950 . S
H1729 C1735 0.950 . S
H1730 C1736 0.949 . S
C1731 H1726 0.950 . S
C1731 C1733 1.327 . S
C1731 C1737 1.429 . S
C1732 C1724 1.574 . S
C1732 H1727 0.949 . S
C1732 C1738 1.368 . S
C1733 C1717 1.349 . S
C1733 H1725 0.950 . S
C1733 C1731 1.327 . S
C1734 C1722 1.349 . S
C1734 H1728 0.950 . S
C1734 C1735 1.327 . S
C1735 H1729 0.950 . S
C1735 C1734 1.327 . S
C1735 C1739 1.429 . S
C1736 C1719 1.574 . S
C1736 H1730 0.949 . S
C1736 C1740 1.368 . S
C1737 C1718 1.429 . S
C1737 C1731 1.429 . S
C1737 C1738 1.523 . S
C1738 C1719 1.368 . S
C1738 C1732 1.368 . S
C1738 C1737 1.523 . S
C1739 C1723 1.429 . S
C1739 C1735 1.429 . S
C1739 C1740 1.523 . S
C1740 C1724 1.368 . S
C1740 C1736 1.368 . S
C1740 C1739 1.523 . S
H1741 C1716 0.950 . S
H1742 C1718 0.950 . S
H1743 C1719 0.949 . S
H1744 C1721 0.950 . S
H1745 C1723 0.950 . S
C1746 C1747 1.349 . S
C1746 C1748 1.327 . S
C1746 H1771 0.950 . S
C1747 C1746 1.349 . S
C1747 C1763 1.349 . S
C1748 C1746 1.327 . S
C1748 C1767 1.429 . S
C1748 H1772 0.950 . S
C1749 C1766 1.574 . S
C1749 C1768 1.368 . S
C1749 H1773 0.949 . S
H1750 C1754 0.949 . S
C1751 C1752 1.349 . S
C1751 C1753 1.327 . S
C1751 H1774 0.950 . S
C1752 C1751 1.349 . S
C1752 C1764 1.349 . S
C1753 C1751 1.327 . S
C1753 C1769 1.429 . S
C1753 H1775 0.950 . S
C1754 H1750 0.949 . S
C1754 C1762 1.574 . S
C1754 C1770 1.368 . S
H1755 C1763 0.950 . S
H1756 C1761 0.950 1_655 S
H1757 C1762 0.949 1_455 S
H1758 C1764 0.950 . S
H1759 C1765 0.950 . S
H1760 C1766 0.949 . S
C1761 H1756 0.950 1_455 S
C1761 C1763 1.327 . S
C1761 C1767 1.429 . S
C1762 C1754 1.574 . S
C1762 H1757 0.949 1_655 S
C1762 C1768 1.368 . S
C1763 C1747 1.349 . S
C1763 H1755 0.950 . S
C1763 C1761 1.327 . S
C1764 C1752 1.349 . S
C1764 H1758 0.950 . S
C1764 C1765 1.327 . S
C1765 H1759 0.950 . S
C1765 C1764 1.327 . S
C1765 C1769 1.429 . S
C1766 C1749 1.574 . S
C1766 H1760 0.949 . S
C1766 C1770 1.368 . S
C1767 C1748 1.429 . S
C1767 C1761 1.429 . S
C1767 C1768 1.523 1_456 S
C1768 C1749 1.368 . S
C1768 C1762 1.368 . S
C1768 C1767 1.523 1_654 S
C1769 C1753 1.429 . S
C1769 C1765 1.429 . S
C1769 C1770 1.523 . S
C1770 C1754 1.368 . S
C1770 C1766 1.368 . S
C1770 C1769 1.523 . S
H1771 C1746 0.950 . S
H1772 C1748 0.950 . S
H1773 C1749 0.949 . S
H1774 C1751 0.950 . S
H1775 C1753 0.950 . S
C1776 C1777 1.349 . S
C1776 C1778 1.327 . S
C1776 H1801 0.950 . S
C1777 C1776 1.349 . S
C1777 C1793 1.349 . S
C1778 C1776 1.327 . S
C1778 C1797 1.429 . S
C1778 H1802 0.950 . S
C1779 C1796 1.574 . S
C1779 C1798 1.368 . S
C1779 H1803 0.949 . S
H1780 C1784 0.949 . S
C1781 C1782 1.349 . S
C1781 C1783 1.327 . S
C1781 H1804 0.950 . S
C1782 C1781 1.349 . S
C1782 C1794 1.349 . S
C1783 C1781 1.327 . S
C1783 C1799 1.429 . S
C1783 H1805 0.950 . S
C1784 H1780 0.949 . S
C1784 C1792 1.574 . S
C1784 C1800 1.368 . S
H1785 C1793 0.950 . S
H1786 C1791 0.950 . S
H1787 C1792 0.949 . S
H1788 C1794 0.950 . S
H1789 C1795 0.950 . S
H1790 C1796 0.949 . S
C1791 H1786 0.950 . S
C1791 C1793 1.327 . S
C1791 C1797 1.429 . S
C1792 C1784 1.574 . S
C1792 H1787 0.949 . S
C1792 C1798 1.368 . S
C1793 C1777 1.349 . S
C1793 H1785 0.950 . S
C1793 C1791 1.327 . S
C1794 C1782 1.349 . S
C1794 H1788 0.950 . S
C1794 C1795 1.327 . S
C1795 H1789 0.950 . S
C1795 C1794 1.327 . S
C1795 C1799 1.429 . S
C1796 C1779 1.574 . S
C1796 H1790 0.949 . S
C1796 C1800 1.368 . S
C1797 C1778 1.429 . S
C1797 C1791 1.429 . S
C1797 C1798 1.523 . S
C1798 C1779 1.368 . S
C1798 C1792 1.368 . S
C1798 C1797 1.523 . S
C1799 C1783 1.429 . S
C1799 C1795 1.429 . S
C1799 C1800 1.523 . S
C1800 C1784 1.368 . S
C1800 C1796 1.368 . S
C1800 C1799 1.523 . S
H1801 C1776 0.950 . S
H1802 C1778 0.950 . S
H1803 C1779 0.949 . S
H1804 C1781 0.950 . S
H1805 C1783 0.950 . S
C1806 C1807 1.349 . S
C1806 C1808 1.327 1_556 S
C1806 H1831 0.950 1_556 S
C1807 C1806 1.349 . S
C1807 C1823 1.349 . S
C1808 C1806 1.327 1_554 S
C1808 C1827 1.429 1_554 S
C1808 H1832 0.950 . S
C1809 C1826 1.574 1_556 S
C1809 C1828 1.368 1_556 S
C1809 H1833 0.949 . S
H1810 C1814 0.949 . S
C1811 C1812 1.349 . S
C1811 C1813 1.327 . S
C1811 H1834 0.950 . S
C1812 C1811 1.349 . S
C1812 C1824 1.349 . S
C1813 C1811 1.327 . S
C1813 C1829 1.429 . S
C1813 H1835 0.950 . S
C1814 H1810 0.949 . S
C1814 C1822 1.574 . S
C1814 C1830 1.368 . S
H1815 C1823 0.950 . S
H1816 C1821 0.950 . S
H1817 C1822 0.949 . S
H1818 C1824 0.950 . S
H1819 C1825 0.950 . S
H1820 C1826 0.949 1_556 S
C1821 H1816 0.950 . S
C1821 C1823 1.327 . S
C1821 C1827 1.429 . S
C1822 C1814 1.574 . S
C1822 H1817 0.949 . S
C1822 C1828 1.368 . S
C1823 C1807 1.349 . S
C1823 H1815 0.950 . S
C1823 C1821 1.327 . S
C1824 C1812 1.349 . S
C1824 H1818 0.950 . S
C1824 C1825 1.327 . S
C1825 H1819 0.950 . S
C1825 C1824 1.327 . S
C1825 C1829 1.429 . S
C1826 C1809 1.574 1_554 S
C1826 H1820 0.949 1_554 S
C1826 C1830 1.368 . S
C1827 C1808 1.429 1_556 S
C1827 C1821 1.429 . S
C1827 C1828 1.523 1_556 S
C1828 C1809 1.368 1_554 S
C1828 C1822 1.368 . S
C1828 C1827 1.523 1_554 S
C1829 C1813 1.429 . S
C1829 C1825 1.429 . S
C1829 C1830 1.523 . S
C1830 C1814 1.368 . S
C1830 C1826 1.368 . S
C1830 C1829 1.523 . S
H1831 C1806 0.950 1_554 S
H1832 C1808 0.950 . S
H1833 C1809 0.949 . S
H1834 C1811 0.950 . S
H1835 C1813 0.950 . S
C1836 C1837 1.349 . S
C1836 C1838 1.327 . S
C1836 H1861 0.950 . S
C1837 C1836 1.349 . S
C1837 C1853 1.349 . S
C1838 C1836 1.327 . S
C1838 C1857 1.429 . S
C1838 H1862 0.950 . S
C1839 C1856 1.574 . S
C1839 C1858 1.368 . S
C1839 H1863 0.949 . S
H1840 C1844 0.949 . S
C1841 C1842 1.349 . S
C1841 C1843 1.327 . S
C1841 H1864 0.950 . S
C1842 C1841 1.349 . S
C1842 C1854 1.349 . S
C1843 C1841 1.327 . S
C1843 C1859 1.429 . S
C1843 H1865 0.950 . S
C1844 H1840 0.949 . S
C1844 C1852 1.574 . S
C1844 C1860 1.368 . S
H1845 C1853 0.950 . S
H1846 C1851 0.950 . S
H1847 C1852 0.949 . S
H1848 C1854 0.950 . S
H1849 C1855 0.950 . S
H1850 C1856 0.949 . S
C1851 H1846 0.950 . S
C1851 C1853 1.327 . S
C1851 C1857 1.429 . S
C1852 C1844 1.574 . S
C1852 H1847 0.949 . S
C1852 C1858 1.368 . S
C1853 C1837 1.349 . S
C1853 H1845 0.950 . S
C1853 C1851 1.327 . S
C1854 C1842 1.349 . S
C1854 H1848 0.950 . S
C1854 C1855 1.327 . S
C1855 H1849 0.950 . S
C1855 C1854 1.327 . S
C1855 C1859 1.429 . S
C1856 C1839 1.574 . S
C1856 H1850 0.949 . S
C1856 C1860 1.368 . S
C1857 C1838 1.429 . S
C1857 C1851 1.429 . S
C1857 C1858 1.523 . S
C1858 C1839 1.368 . S
C1858 C1852 1.368 . S
C1858 C1857 1.523 . S
C1859 C1843 1.429 . S
C1859 C1855 1.429 . S
C1859 C1860 1.523 . S
C1860 C1844 1.368 . S
C1860 C1856 1.368 . S
C1860 C1859 1.523 . S
H1861 C1836 0.950 . S
H1862 C1838 0.950 . S
H1863 C1839 0.949 . S
H1864 C1841 0.950 . S
H1865 C1843 0.950 . S
C1866 C1867 1.349 . S
C1866 C1868 1.327 . S
C1866 H1891 0.950 . S
C1867 C1866 1.349 . S
C1867 C1883 1.349 . S
C1868 C1866 1.327 . S
C1868 C1887 1.429 . S
C1868 H1892 0.950 . S
C1869 C1886 1.574 . S
C1869 C1888 1.368 . S
C1869 H1893 0.949 . S
H1870 C1874 0.949 . S
C1871 C1872 1.349 . S
C1871 C1873 1.327 . S
C1871 H1894 0.950 . S
C1872 C1871 1.349 . S
C1872 C1884 1.349 . S
C1873 C1871 1.327 . S
C1873 C1889 1.429 . S
C1873 H1895 0.950 . S
C1874 H1870 0.949 . S
C1874 C1882 1.574 . S
C1874 C1890 1.368 . S
H1875 C1883 0.950 . S
H1876 C1881 0.950 . S
H1877 C1882 0.949 . S
H1878 C1884 0.950 . S
H1879 C1885 0.950 . S
H1880 C1886 0.949 . S
C1881 H1876 0.950 . S
C1881 C1883 1.327 . S
C1881 C1887 1.429 . S
C1882 C1874 1.574 . S
C1882 H1877 0.949 . S
C1882 C1888 1.368 . S
C1883 C1867 1.349 . S
C1883 H1875 0.950 . S
C1883 C1881 1.327 . S
C1884 C1872 1.349 . S
C1884 H1878 0.950 . S
C1884 C1885 1.327 . S
C1885 H1879 0.950 . S
C1885 C1884 1.327 . S
C1885 C1889 1.429 . S
C1886 C1869 1.574 . S
C1886 H1880 0.949 . S
C1886 C1890 1.368 . S
C1887 C1868 1.429 . S
C1887 C1881 1.429 . S
C1887 C1888 1.523 . S
C1888 C1869 1.368 . S
C1888 C1882 1.368 . S
C1888 C1887 1.523 . S
C1889 C1873 1.429 . S
C1889 C1885 1.429 . S
C1889 C1890 1.523 . S
C1890 C1874 1.368 . S
C1890 C1886 1.368 . S
C1890 C1889 1.523 . S
H1891 C1866 0.950 . S
H1892 C1868 0.950 . S
H1893 C1869 0.949 . S
H1894 C1871 0.950 . S
H1895 C1873 0.950 . S
C1896 C1897 1.349 . S
C1896 C1898 1.327 . S
C1896 H1921 0.950 . S
C1897 C1896 1.349 . S
C1897 C1913 1.349 . S
C1898 C1896 1.327 . S
C1898 C1917 1.429 . S
C1898 H1922 0.950 . S
C1899 C1916 1.574 . S
C1899 C1918 1.368 . S
C1899 H1923 0.949 . S
H1900 C1904 0.949 . S
C1901 C1902 1.349 . S
C1901 C1903 1.327 . S
C1901 H1924 0.950 . S
C1902 C1901 1.349 . S
C1902 C1914 1.349 . S
C1903 C1901 1.327 . S
C1903 C1919 1.429 . S
C1903 H1925 0.950 . S
C1904 H1900 0.949 . S
C1904 C1912 1.574 . S
C1904 C1920 1.368 . S
H1905 C1913 0.950 . S
H1906 C1911 0.950 . S
H1907 C1912 0.949 . S
H1908 C1914 0.950 . S
H1909 C1915 0.950 . S
H1910 C1916 0.949 . S
C1911 H1906 0.950 . S
C1911 C1913 1.327 . S
C1911 C1917 1.429 . S
C1912 C1904 1.574 . S
C1912 H1907 0.949 . S
C1912 C1918 1.368 . S
C1913 C1897 1.349 . S
C1913 H1905 0.950 . S
C1913 C1911 1.327 . S
C1914 C1902 1.349 . S
C1914 H1908 0.950 . S
C1914 C1915 1.327 . S
C1915 H1909 0.950 . S
C1915 C1914 1.327 . S
C1915 C1919 1.429 . S
C1916 C1899 1.574 . S
C1916 H1910 0.949 . S
C1916 C1920 1.368 . S
C1917 C1898 1.429 . S
C1917 C1911 1.429 . S
C1917 C1918 1.523 . S
C1918 C1899 1.368 . S
C1918 C1912 1.368 . S
C1918 C1917 1.523 . S
C1919 C1903 1.429 . S
C1919 C1915 1.429 . S
C1919 C1920 1.523 . S
C1920 C1904 1.368 . S
C1920 C1916 1.368 . S
C1920 C1919 1.523 . S
H1921 C1896 0.950 . S
H1922 C1898 0.950 . S
H1923 C1899 0.949 . S
H1924 C1901 0.950 . S
H1925 C1903 0.950 . S
C1926 C1927 1.349 . S
C1926 C1928 1.327 . S
C1926 H1951 0.950 . S
C1927 C1926 1.349 . S
C1927 C1943 1.349 . S
C1928 C1926 1.327 . S
C1928 C1947 1.429 . S
C1928 H1952 0.950 . S
C1929 C1946 1.574 . S
C1929 C1948 1.368 . S
C1929 H1953 0.949 . S
H1930 C1934 0.949 . S
C1931 C1932 1.349 . S
C1931 C1933 1.327 . S
C1931 H1954 0.950 . S
C1932 C1931 1.349 . S
C1932 C1944 1.349 . S
C1933 C1931 1.327 . S
C1933 C1949 1.429 . S
C1933 H1955 0.950 . S
C1934 H1930 0.949 . S
C1934 C1942 1.574 . S
C1934 C1950 1.368 . S
H1935 C1943 0.950 . S
H1936 C1941 0.950 . S
H1937 C1942 0.949 . S
H1938 C1944 0.950 . S
H1939 C1945 0.950 . S
H1940 C1946 0.949 . S
C1941 H1936 0.950 . S
C1941 C1943 1.327 . S
C1941 C1947 1.429 . S
C1942 C1934 1.574 . S
C1942 H1937 0.949 . S
C1942 C1948 1.368 . S
C1943 C1927 1.349 . S
C1943 H1935 0.950 . S
C1943 C1941 1.327 . S
C1944 C1932 1.349 . S
C1944 H1938 0.950 . S
C1944 C1945 1.327 . S
C1945 H1939 0.950 . S
C1945 C1944 1.327 . S
C1945 C1949 1.429 . S
C1946 C1929 1.574 . S
C1946 H1940 0.949 . S
C1946 C1950 1.368 . S
C1947 C1928 1.429 . S
C1947 C1941 1.429 . S
C1947 C1948 1.523 . S
C1948 C1929 1.368 . S
C1948 C1942 1.368 . S
C1948 C1947 1.523 . S
C1949 C1933 1.429 . S
C1949 C1945 1.429 . S
C1949 C1950 1.523 1_545 S
C1950 C1934 1.368 . S
C1950 C1946 1.368 . S
C1950 C1949 1.523 1_565 S
H1951 C1926 0.950 . S
H1952 C1928 0.950 . S
H1953 C1929 0.949 . S
H1954 C1931 0.950 . S
H1955 C1933 0.950 . S
C1956 C1957 1.349 . S
C1956 C1958 1.327 . S
C1956 H1981 0.950 . S
C1957 C1956 1.349 . S
C1957 C1973 1.349 . S
C1958 C1956 1.327 . S
C1958 C1977 1.429 . S
C1958 H1982 0.950 . S
C1959 C1976 1.574 . S
C1959 C1978 1.368 . S
C1959 H1983 0.949 . S
H1960 C1964 0.949 . S
C1961 C1962 1.349 . S
C1961 C1963 1.327 . S
C1961 H1984 0.950 . S
C1962 C1961 1.349 . S
C1962 C1974 1.349 . S
C1963 C1961 1.327 . S
C1963 C1979 1.429 . S
C1963 H1985 0.950 . S
C1964 H1960 0.949 . S
C1964 C1972 1.574 . S
C1964 C1980 1.368 . S
H1965 C1973 0.950 . S
H1966 C1971 0.950 . S
H1967 C1972 0.949 . S
H1968 C1974 0.950 . S
H1969 C1975 0.950 . S
H1970 C1976 0.949 . S
C1971 H1966 0.950 . S
C1971 C1973 1.327 . S
C1971 C1977 1.429 . S
C1972 C1964 1.574 . S
C1972 H1967 0.949 . S
C1972 C1978 1.368 . S
C1973 C1957 1.349 . S
C1973 H1965 0.950 . S
C1973 C1971 1.327 . S
C1974 C1962 1.349 . S
C1974 H1968 0.950 . S
C1974 C1975 1.327 . S
C1975 H1969 0.950 . S
C1975 C1974 1.327 . S
C1975 C1979 1.429 . S
C1976 C1959 1.574 . S
C1976 H1970 0.949 . S
C1976 C1980 1.368 . S
C1977 C1958 1.429 . S
C1977 C1971 1.429 . S
C1977 C1978 1.523 . S
C1978 C1959 1.368 . S
C1978 C1972 1.368 . S
C1978 C1977 1.523 . S
C1979 C1963 1.429 . S
C1979 C1975 1.429 . S
C1979 C1980 1.523 . S
C1980 C1964 1.368 . S
C1980 C1976 1.368 . S
C1980 C1979 1.523 . S
H1981 C1956 0.950 . S
H1982 C1958 0.950 . S
H1983 C1959 0.949 . S
H1984 C1961 0.950 . S
H1985 C1963 0.950 . S
C1986 C1987 1.349 . S
C1986 C1988 1.327 1_554 S
C1986 H2011 0.950 . S
C1987 C1986 1.349 . S
C1987 C2003 1.349 . S
C1988 C1986 1.327 1_556 S
C1988 C2007 1.429 1_556 S
C1988 H2012 0.950 . S
C1989 C2006 1.574 1_554 S
C1989 C2008 1.368 1_554 S
C1989 H2013 0.949 . S
H1990 C1994 0.949 . S
C1991 C1992 1.349 . S
C1991 C1993 1.327 . S
C1991 H2014 0.950 . S
C1992 C1991 1.349 . S
C1992 C2004 1.349 . S
C1993 C1991 1.327 . S
C1993 C2009 1.429 . S
C1993 H2015 0.950 . S
C1994 H1990 0.949 . S
C1994 C2002 1.574 . S
C1994 C2010 1.368 . S
H1995 C2003 0.950 . S
H1996 C2001 0.916 1_545 S
H1997 C2002 0.949 1_565 S
H1998 C2004 0.950 . S
H1999 C2005 0.950 . S
H2000 C2006 0.949 . S
C2001 H1996 0.916 1_565 S
C2001 C2003 1.327 . S
C2001 C2007 1.429 . S
C2002 C1994 1.574 . S
C2002 H1997 0.949 1_545 S
C2002 C2008 1.368 . S
C2003 C1987 1.349 . S
C2003 H1995 0.950 . S
C2003 C2001 1.327 . S
C2004 C1992 1.349 . S
C2004 H1998 0.950 . S
C2004 C2005 1.327 . S
C2005 H1999 0.950 . S
C2005 C2004 1.327 . S
C2005 C2009 1.429 . S
C2006 C1989 1.574 1_556 S
C2006 H2000 0.949 . S
C2006 C2010 1.368 . S
C2007 C1988 1.429 1_554 S
C2007 C2001 1.429 . S
C2007 C2008 1.523 1_564 S
C2008 C1989 1.368 1_556 S
C2008 C2002 1.368 . S
C2008 C2007 1.523 1_546 S
C2009 C1993 1.429 . S
C2009 C2005 1.429 . S
C2009 C2010 1.523 . S
C2010 C1994 1.368 . S
C2010 C2006 1.368 . S
C2010 C2009 1.523 . S
H2011 C1986 0.950 . S
H2012 C1988 0.950 . S
H2013 C1989 0.949 . S
H2014 C1991 0.950 . S
H2015 C1993 0.950 . S
C2016 C2017 1.349 . S
C2016 C2018 1.327 . S
C2016 H2041 0.950 . S
C2017 C2016 1.349 . S
C2017 C2033 1.349 . S
C2018 C2016 1.327 . S
C2018 C2037 1.429 . S
C2018 H2042 0.950 . S
C2019 C2036 1.574 . S
C2019 C2038 1.368 . S
C2019 H2043 0.949 . S
H2020 C2024 0.949 . S
C2021 C2022 1.349 . S
C2021 C2023 1.327 . S
C2021 H2044 0.950 . S
C2022 C2021 1.349 . S
C2022 C2034 1.349 . S
C2023 C2021 1.327 . S
C2023 C2039 1.429 . S
C2023 H2045 0.950 . S
C2024 H2020 0.949 . S
C2024 C2032 1.574 . S
C2024 C2040 1.368 . S
H2025 C2033 0.950 . S
H2026 C2031 0.950 . S
H2027 C2032 0.949 . S
H2028 C2034 0.950 . S
H2029 C2035 0.950 . S
H2030 C2036 0.949 . S
C2031 H2026 0.950 . S
C2031 C2033 1.327 . S
C2031 C2037 1.429 . S
C2032 C2024 1.574 . S
C2032 H2027 0.949 . S
C2032 C2038 1.368 . S
C2033 C2017 1.349 . S
C2033 H2025 0.950 . S
C2033 C2031 1.327 . S
C2034 C2022 1.349 . S
C2034 H2028 0.950 . S
C2034 C2035 1.327 . S
C2035 H2029 0.950 . S
C2035 C2034 1.327 . S
C2035 C2039 1.429 . S
C2036 C2019 1.574 . S
C2036 H2030 0.949 . S
C2036 C2040 1.368 . S
C2037 C2018 1.429 . S
C2037 C2031 1.429 . S
C2037 C2038 1.523 . S
C2038 C2019 1.368 . S
C2038 C2032 1.368 . S
C2038 C2037 1.523 . S
C2039 C2023 1.429 . S
C2039 C2035 1.429 . S
C2039 C2040 1.523 . S
C2040 C2024 1.368 . S
C2040 C2036 1.368 . S
C2040 C2039 1.523 . S
H2041 C2016 0.950 . S
H2042 C2018 0.950 . S
H2043 C2019 0.949 . S
H2044 C2021 0.950 . S
H2045 C2023 0.950 . S
C2046 C2047 1.349 . S
C2046 C2048 1.327 . S
C2046 H2071 0.950 . S
C2047 C2046 1.349 . S
C2047 C2063 1.349 . S
C2048 C2046 1.327 . S
C2048 C2067 1.429 . S
C2048 H2072 0.950 . S
C2049 C2066 1.574 . S
C2049 C2068 1.368 . S
C2049 H2073 0.949 . S
H2050 C2054 0.949 . S
C2051 C2052 1.349 . S
C2051 C2053 1.327 . S
C2051 H2074 0.950 . S
C2052 C2051 1.349 . S
C2052 C2064 1.349 . S
C2053 C2051 1.327 . S
C2053 C2069 1.429 . S
C2053 H2075 0.950 . S
C2054 H2050 0.949 . S
C2054 C2062 1.574 . S
C2054 C2070 1.368 . S
H2055 C2063 0.950 . S
H2056 C2061 0.950 . S
H2057 C2062 0.949 . S
H2058 C2064 0.950 . S
H2059 C2065 0.950 . S
H2060 C2066 0.949 . S
C2061 H2056 0.950 . S
C2061 C2063 1.327 . S
C2061 C2067 1.429 . S
C2062 C2054 1.574 . S
C2062 H2057 0.949 . S
C2062 C2068 1.368 . S
C2063 C2047 1.349 . S
C2063 H2055 0.950 . S
C2063 C2061 1.327 . S
C2064 C2052 1.349 . S
C2064 H2058 0.950 . S
C2064 C2065 1.327 . S
C2065 H2059 0.950 . S
C2065 C2064 1.327 . S
C2065 C2069 1.429 . S
C2066 C2049 1.574 . S
C2066 H2060 0.949 . S
C2066 C2070 1.368 . S
C2067 C2048 1.429 . S
C2067 C2061 1.429 . S
C2067 C2068 1.523 . S
C2068 C2049 1.368 . S
C2068 C2062 1.368 . S
C2068 C2067 1.523 . S
C2069 C2053 1.429 . S
C2069 C2065 1.429 . S
C2069 C2070 1.523 . S
C2070 C2054 1.368 . S
C2070 C2066 1.368 . S
C2070 C2069 1.523 . S
H2071 C2046 0.950 . S
H2072 C2048 0.950 . S
H2073 C2049 0.949 . S
H2074 C2051 0.950 . S
H2075 C2053 0.950 . S
C2076 C2077 1.349 . S
C2076 C2078 1.327 . S
C2076 H2101 0.950 . S
C2077 C2076 1.349 . S
C2077 C2093 1.349 . S
C2078 C2076 1.327 . S
C2078 C2097 1.429 . S
C2078 H2102 0.950 . S
C2079 C2096 1.574 . S
C2079 C2098 1.368 . S
C2079 H2103 0.949 . S
H2080 C2084 0.949 1_565 S
C2081 C2082 1.349 . S
C2081 C2083 1.327 . S
C2081 H2104 0.950 . S
C2082 C2081 1.349 . S
C2082 C2094 1.349 . S
C2083 C2081 1.327 . S
C2083 C2099 1.429 . S
C2083 H2105 0.950 1_565 S
C2084 H2080 0.949 1_545 S
C2084 C2092 1.574 . S
C2084 C2100 1.368 . S
H2085 C2093 0.950 . S
H2086 C2091 0.950 . S
H2087 C2092 0.949 . S
H2088 C2094 0.950 . S
H2089 C2095 0.950 . S
H2090 C2096 0.949 . S
C2091 H2086 0.950 . S
C2091 C2093 1.327 . S
C2091 C2097 1.429 . S
C2092 C2084 1.574 . S
C2092 H2087 0.949 . S
C2092 C2098 1.368 . S
C2093 C2077 1.349 . S
C2093 H2085 0.950 . S
C2093 C2091 1.327 . S
C2094 C2082 1.349 . S
C2094 H2088 0.950 . S
C2094 C2095 1.327 . S
C2095 H2089 0.950 . S
C2095 C2094 1.327 . S
C2095 C2099 1.429 . S
C2096 C2079 1.574 . S
C2096 H2090 0.949 . S
C2096 C2100 1.368 . S
C2097 C2078 1.429 . S
C2097 C2091 1.429 . S
C2097 C2098 1.523 . S
C2098 C2079 1.368 . S
C2098 C2092 1.368 . S
C2098 C2097 1.523 . S
C2099 C2083 1.429 . S
C2099 C2095 1.429 . S
C2099 C2100 1.523 1_565 S
C2100 C2084 1.368 . S
C2100 C2096 1.368 . S
C2100 C2099 1.523 1_545 S
H2101 C2076 0.950 . S
H2102 C2078 0.950 . S
H2103 C2079 0.949 . S
H2104 C2081 0.950 . S
H2105 C2083 0.950 1_545 S
C2106 C2107 1.349 . S
C2106 C2108 1.327 . S
C2106 H2131 0.950 . S
C2107 C2106 1.349 . S
C2107 C2123 1.349 . S
C2108 C2106 1.327 . S
C2108 C2127 1.429 . S
C2108 H2132 0.950 . S
C2109 C2126 1.574 . S
C2109 C2128 1.368 . S
C2109 H2133 0.949 . S
H2110 C2114 0.949 . S
C2111 C2112 1.349 . S
C2111 C2113 1.327 . S
C2111 H2134 0.950 . S
C2112 C2111 1.349 . S
C2112 C2124 1.349 . S
C2113 C2111 1.327 . S
C2113 C2129 1.429 . S
C2113 H2135 0.950 . S
C2114 H2110 0.949 . S
C2114 C2122 1.574 . S
C2114 C2130 1.368 . S
H2115 C2123 0.950 . S
H2116 C2121 0.950 . S
H2117 C2122 0.949 . S
H2118 C2124 0.950 . S
H2119 C2125 0.950 . S
H2120 C2126 0.949 . S
C2121 H2116 0.950 . S
C2121 C2123 1.327 . S
C2121 C2127 1.429 . S
C2122 C2114 1.574 . S
C2122 H2117 0.949 . S
C2122 C2128 1.368 . S
C2123 C2107 1.349 . S
C2123 H2115 0.950 . S
C2123 C2121 1.327 . S
C2124 C2112 1.349 . S
C2124 H2118 0.950 . S
C2124 C2125 1.327 . S
C2125 H2119 0.950 . S
C2125 C2124 1.327 . S
C2125 C2129 1.429 . S
C2126 C2109 1.574 . S
C2126 H2120 0.949 . S
C2126 C2130 1.368 . S
C2127 C2108 1.429 . S
C2127 C2121 1.429 . S
C2127 C2128 1.523 . S
C2128 C2109 1.368 . S
C2128 C2122 1.368 . S
C2128 C2127 1.523 . S
C2129 C2113 1.429 . S
C2129 C2125 1.429 . S
C2129 C2130 1.523 . S
C2130 C2114 1.368 . S
C2130 C2126 1.368 . S
C2130 C2129 1.523 . S
H2131 C2106 0.950 . S
H2132 C2108 0.950 . S
H2133 C2109 0.949 . S
H2134 C2111 0.950 . S
H2135 C2113 0.950 . S
C2136 C2137 1.349 . S
C2136 C2138 1.300 1_545 S
C2136 H2161 0.950 . S
C2137 C2136 1.349 . S
C2137 C2153 1.349 . S
C2138 C2136 1.300 1_565 S
C2138 C2157 1.414 1_565 S
C2138 H2162 0.995 . S
C2139 C2156 1.574 1_545 S
C2139 C2158 1.368 1_545 S
C2139 H2163 0.949 . S
H2140 C2144 0.949 . S
C2141 C2142 1.349 . S
C2141 C2143 1.327 . S
C2141 H2164 0.950 . S
C2142 C2141 1.349 . S
C2142 C2154 1.349 . S
C2143 C2141 1.327 . S
C2143 C2159 1.429 . S
C2143 H2165 0.950 . S
C2144 H2140 0.949 . S
C2144 C2152 1.574 . S
C2144 C2160 1.368 . S
H2145 C2153 0.950 . S
H2146 C2151 0.950 . S
H2147 C2152 0.949 . S
H2148 C2154 0.950 . S
H2149 C2155 0.950 . S
H2150 C2156 0.949 . S
C2151 H2146 0.950 . S
C2151 C2153 1.327 . S
C2151 C2157 1.429 . S
C2152 C2144 1.574 . S
C2152 H2147 0.949 . S
C2152 C2158 1.368 . S
C2153 C2137 1.349 . S
C2153 H2145 0.950 . S
C2153 C2151 1.327 . S
C2154 C2142 1.349 . S
C2154 H2148 0.950 . S
C2154 C2155 1.327 . S
C2155 H2149 0.950 . S
C2155 C2154 1.327 . S
C2155 C2159 1.429 . S
C2156 C2139 1.574 1_565 S
C2156 H2150 0.949 . S
C2156 C2160 1.368 . S
C2157 C2138 1.414 1_545 S
C2157 C2151 1.429 . S
C2157 C2158 1.523 1_645 S
C2158 C2139 1.368 1_565 S
C2158 C2152 1.368 . S
C2158 C2157 1.523 1_465 S
C2159 C2143 1.429 . S
C2159 C2155 1.429 . S
C2159 C2160 1.523 . S
C2160 C2144 1.368 . S
C2160 C2156 1.368 . S
C2160 C2159 1.523 . S
H2161 C2136 0.950 . S
H2162 C2138 0.995 . S
H2163 C2139 0.949 . S
H2164 C2141 0.950 . S
H2165 C2143 0.950 . S
C2166 C2167 1.349 . S
C2166 C2168 1.327 . S
C2166 H2191 0.950 . S
C2167 C2166 1.349 . S
C2167 C2183 1.349 . S
C2168 C2166 1.327 . S
C2168 C2187 1.429 . S
C2168 H2192 0.950 . S
C2169 C2186 1.574 . S
C2169 C2188 1.368 . S
C2169 H2193 0.949 . S
H2170 C2174 0.949 . S
C2171 C2172 1.349 . S
C2171 C2173 1.327 . S
C2171 H2194 0.950 . S
C2172 C2171 1.349 . S
C2172 C2184 1.349 . S
C2173 C2171 1.327 . S
C2173 C2189 1.429 . S
C2173 H2195 0.950 . S
C2174 H2170 0.949 . S
C2174 C2182 1.574 . S
C2174 C2190 1.368 . S
H2175 C2183 0.950 . S
H2176 C2181 0.950 . S
H2177 C2182 0.949 . S
H2178 C2184 0.950 . S
H2179 C2185 0.950 . S
H2180 C2186 0.949 . S
C2181 H2176 0.950 . S
C2181 C2183 1.327 . S
C2181 C2187 1.429 . S
C2182 C2174 1.574 . S
C2182 H2177 0.949 . S
C2182 C2188 1.368 . S
C2183 C2167 1.349 . S
C2183 H2175 0.950 . S
C2183 C2181 1.327 . S
C2184 C2172 1.349 . S
C2184 H2178 0.950 . S
C2184 C2185 1.327 . S
C2185 H2179 0.950 . S
C2185 C2184 1.327 . S
C2185 C2189 1.429 . S
C2186 C2169 1.574 . S
C2186 H2180 0.949 . S
C2186 C2190 1.368 . S
C2187 C2168 1.429 . S
C2187 C2181 1.429 . S
C2187 C2188 1.523 . S
C2188 C2169 1.368 . S
C2188 C2182 1.368 . S
C2188 C2187 1.523 . S
C2189 C2173 1.429 . S
C2189 C2185 1.429 . S
C2189 C2190 1.523 . S
C2190 C2174 1.368 . S
C2190 C2186 1.368 . S
C2190 C2189 1.523 . S
H2191 C2166 0.950 . S
H2192 C2168 0.950 . S
H2193 C2169 0.949 . S
H2194 C2171 0.950 . S
H2195 C2173 0.950 . S
C2196 C2197 1.349 . S
C2196 C2198 1.327 . S
C2196 H2221 0.950 . S
C2197 C2196 1.349 . S
C2197 C2213 1.349 . S
C2198 C2196 1.327 . S
C2198 C2217 1.429 . S
C2198 H2222 0.950 . S
C2199 C2216 1.574 . S
C2199 C2218 1.368 . S
C2199 H2223 0.949 . S
H2200 C2204 0.949 . S
C2201 C2202 1.349 . S
C2201 C2203 1.327 . S
C2201 H2224 0.950 . S
C2202 C2201 1.349 . S
C2202 C2214 1.349 . S
C2203 C2201 1.327 . S
C2203 C2219 1.429 . S
C2203 H2225 0.950 . S
C2204 H2200 0.949 . S
C2204 C2212 1.574 . S
C2204 C2220 1.368 . S
H2205 C2213 0.950 . S
H2206 C2211 0.950 . S
H2207 C2212 0.949 1_455 S
H2208 C2214 0.950 . S
H2209 C2215 0.950 . S
H2210 C2216 0.949 . S
C2211 H2206 0.950 . S
C2211 C2213 1.327 . S
C2211 C2217 1.429 . S
C2212 C2204 1.574 . S
C2212 H2207 0.949 1_655 S
C2212 C2218 1.368 . S
C2213 C2197 1.349 . S
C2213 H2205 0.950 . S
C2213 C2211 1.327 . S
C2214 C2202 1.349 . S
C2214 H2208 0.950 . S
C2214 C2215 1.327 . S
C2215 H2209 0.950 . S
C2215 C2214 1.327 . S
C2215 C2219 1.429 . S
C2216 C2199 1.574 . S
C2216 H2210 0.949 . S
C2216 C2220 1.368 . S
C2217 C2198 1.429 . S
C2217 C2211 1.429 . S
C2217 C2218 1.523 1_455 S
C2218 C2199 1.368 . S
C2218 C2212 1.368 . S
C2218 C2217 1.523 1_655 S
C2219 C2203 1.429 . S
C2219 C2215 1.429 . S
C2219 C2220 1.523 . S
C2220 C2204 1.368 . S
C2220 C2216 1.368 . S
C2220 C2219 1.523 . S
H2221 C2196 0.950 . S
H2222 C2198 0.950 . S
H2223 C2199 0.949 . S
H2224 C2201 0.950 . S
H2225 C2203 0.950 . S
C2226 C2227 1.349 . S
C2226 C2228 1.327 . S
C2226 H2251 0.950 . S
C2227 C2226 1.349 . S
C2227 C2243 1.349 . S
C2228 C2226 1.327 . S
C2228 C2247 1.429 . S
C2228 H2252 0.950 . S
C2229 C2246 1.574 . S
C2229 C2248 1.368 . S
C2229 H2253 0.949 . S
H2230 C2234 0.949 . S
C2231 C2232 1.349 . S
C2231 C2233 1.327 . S
C2231 H2254 0.950 . S
C2232 C2231 1.349 . S
C2232 C2244 1.349 . S
C2233 C2231 1.327 . S
C2233 C2249 1.429 . S
C2233 H2255 0.950 . S
C2234 H2230 0.949 . S
C2234 C2242 1.574 . S
C2234 C2250 1.368 . S
H2235 C2243 0.950 . S
H2236 C2241 0.950 . S
H2237 C2242 0.949 . S
H2238 C2244 0.950 . S
H2239 C2245 0.950 . S
H2240 C2246 0.949 . S
C2241 H2236 0.950 . S
C2241 C2243 1.327 . S
C2241 C2247 1.429 . S
C2242 C2234 1.574 . S
C2242 H2237 0.949 . S
C2242 C2248 1.368 . S
C2243 C2227 1.349 . S
C2243 H2235 0.950 . S
C2243 C2241 1.327 . S
C2244 C2232 1.349 . S
C2244 H2238 0.950 . S
C2244 C2245 1.327 . S
C2245 H2239 0.950 . S
C2245 C2244 1.327 . S
C2245 C2249 1.429 . S
C2246 C2229 1.574 . S
C2246 H2240 0.949 . S
C2246 C2250 1.368 . S
C2247 C2228 1.429 . S
C2247 C2241 1.429 . S
C2247 C2248 1.523 . S
C2248 C2229 1.368 . S
C2248 C2242 1.368 . S
C2248 C2247 1.523 . S
C2249 C2233 1.429 . S
C2249 C2245 1.429 . S
C2249 C2250 1.523 . S
C2250 C2234 1.368 . S
C2250 C2246 1.368 . S
C2250 C2249 1.523 . S
H2251 C2226 0.950 . S
H2252 C2228 0.950 . S
H2253 C2229 0.949 . S
H2254 C2231 0.950 . S
H2255 C2233 0.950 . S
C2256 C2257 1.349 . S
C2256 C2258 1.327 . S
C2256 H2281 0.950 . S
C2257 C2256 1.349 . S
C2257 C2273 1.349 . S
C2258 C2256 1.327 . S
C2258 C2277 1.429 . S
C2258 H2282 0.950 . S
C2259 C2276 1.574 1_655 S
C2259 C2278 1.368 . S
C2259 H2283 0.949 . S
H2260 C2264 0.949 . S
C2261 C2262 1.349 . S
C2261 C2263 1.327 . S
C2261 H2284 0.950 . S
C2262 C2261 1.349 . S
C2262 C2274 1.349 . S
C2263 C2261 1.327 . S
C2263 C2279 1.429 . S
C2263 H2285 0.950 . S
C2264 H2260 0.949 . S
C2264 C2272 1.574 1_455 S
C2264 C2280 1.368 . S
H2265 C2273 0.950 . S
H2266 C2271 0.950 . S
H2267 C2272 0.949 . S
H2268 C2274 0.950 . S
H2269 C2275 0.950 . S
H2270 C2276 0.949 . S
C2271 H2266 0.950 . S
C2271 C2273 1.327 . S
C2271 C2277 1.429 . S
C2272 C2264 1.574 1_655 S
C2272 H2267 0.949 . S
C2272 C2278 1.368 . S
C2273 C2257 1.349 . S
C2273 H2265 0.950 . S
C2273 C2271 1.327 . S
C2274 C2262 1.349 . S
C2274 H2268 0.950 . S
C2274 C2275 1.327 . S
C2275 H2269 0.950 . S
C2275 C2274 1.327 . S
C2275 C2279 1.429 . S
C2276 C2259 1.574 1_455 S
C2276 H2270 0.949 . S
C2276 C2280 1.368 . S
C2277 C2258 1.429 . S
C2277 C2271 1.429 . S
C2277 C2278 1.523 . S
C2278 C2259 1.368 . S
C2278 C2272 1.368 . S
C2278 C2277 1.523 . S
C2279 C2263 1.429 . S
C2279 C2275 1.429 . S
C2279 C2280 1.523 . S
C2280 C2264 1.368 . S
C2280 C2276 1.368 . S
C2280 C2279 1.523 . S
H2281 C2256 0.950 . S
H2282 C2258 0.950 . S
H2283 C2259 0.949 . S
H2284 C2261 0.950 . S
H2285 C2263 0.950 . S
C2286 C2287 1.349 . S
C2286 C2288 1.327 . S
C2286 H2311 0.950 . S
C2287 C2286 1.349 . S
C2287 C2303 1.349 . S
C2288 C2286 1.327 . S
C2288 C2307 1.429 . S
C2288 H2312 0.950 . S
C2289 C2306 1.574 . S
C2289 C2308 1.368 . S
C2289 H2313 0.949 . S
H2290 C2294 0.949 . S
C2291 C2292 1.349 . S
C2291 C2293 1.327 . S
C2291 H2314 0.950 . S
C2292 C2291 1.349 . S
C2292 C2304 1.349 . S
C2293 C2291 1.327 . S
C2293 C2309 1.429 . S
C2293 H2315 0.950 . S
C2294 H2290 0.949 . S
C2294 C2302 1.574 1_556 S
C2294 C2310 1.368 . S
H2295 C2303 0.950 . S
H2296 C2301 0.950 . S
H2297 C2302 0.952 . S
H2298 C2304 0.950 . S
H2299 C2305 0.950 . S
H2300 C2306 0.949 . S
C2301 H2296 0.950 . S
C2301 C2303 1.327 . S
C2301 C2307 1.429 . S
C2302 C2294 1.574 1_554 S
C2302 H2297 0.952 . S
C2302 C2308 1.368 . S
C2303 C2287 1.349 . S
C2303 H2295 0.950 . S
C2303 C2301 1.327 . S
C2304 C2292 1.349 . S
C2304 H2298 0.950 . S
C2304 C2305 1.327 . S
C2305 H2299 0.950 . S
C2305 C2304 1.327 . S
C2305 C2309 1.429 . S
C2306 C2289 1.574 . S
C2306 H2300 0.949 . S
C2306 C2310 1.368 1_554 S
C2307 C2288 1.429 . S
C2307 C2301 1.429 . S
C2307 C2308 1.523 . S
C2308 C2289 1.368 . S
C2308 C2302 1.368 . S
C2308 C2307 1.523 . S
C2309 C2293 1.429 . S
C2309 C2305 1.429 . S
C2309 C2310 1.523 . S
C2310 C2294 1.368 . S
C2310 C2306 1.368 1_556 S
C2310 C2309 1.523 . S
H2311 C2286 0.950 . S
H2312 C2288 0.950 . S
H2313 C2289 0.949 . S
H2314 C2291 0.950 . S
H2315 C2293 0.950 . S
C2316 C2317 1.349 . S
C2316 C2318 1.327 . S
C2316 H2341 0.950 . S
C2317 C2316 1.349 . S
C2317 C2333 1.349 . S
C2318 C2316 1.327 . S
C2318 C2337 1.429 . S
C2318 H2342 0.950 . S
C2319 C2336 1.574 . S
C2319 C2338 1.368 . S
C2319 H2343 0.949 . S
H2320 C2324 0.949 . S
C2321 C2322 1.349 . S
C2321 C2323 1.327 . S
C2321 H2344 0.950 . S
C2322 C2321 1.349 . S
C2322 C2334 1.349 . S
C2323 C2321 1.327 . S
C2323 C2339 1.429 . S
C2323 H2345 0.950 . S
C2324 H2320 0.949 . S
C2324 C2332 1.574 . S
C2324 C2340 1.368 . S
H2325 C2333 0.950 . S
H2326 C2331 0.950 . S
H2327 C2332 0.949 . S
H2328 C2334 0.950 . S
H2329 C2335 0.950 . S
H2330 C2336 0.949 . S
C2331 H2326 0.950 . S
C2331 C2333 1.327 . S
C2331 C2337 1.429 . S
C2332 C2324 1.574 . S
C2332 H2327 0.949 . S
C2332 C2338 1.368 . S
C2333 C2317 1.349 . S
C2333 H2325 0.950 . S
C2333 C2331 1.327 . S
C2334 C2322 1.349 . S
C2334 H2328 0.950 . S
C2334 C2335 1.327 . S
C2335 H2329 0.950 . S
C2335 C2334 1.327 . S
C2335 C2339 1.429 . S
C2336 C2319 1.574 . S
C2336 H2330 0.949 . S
C2336 C2340 1.368 . S
C2337 C2318 1.429 . S
C2337 C2331 1.429 . S
C2337 C2338 1.523 . S
C2338 C2319 1.368 . S
C2338 C2332 1.368 . S
C2338 C2337 1.523 . S
C2339 C2323 1.429 . S
C2339 C2335 1.429 . S
C2339 C2340 1.523 . S
C2340 C2324 1.368 . S
C2340 C2336 1.368 . S
C2340 C2339 1.523 . S
H2341 C2316 0.950 . S
H2342 C2318 0.950 . S
H2343 C2319 0.949 . S
H2344 C2321 0.950 . S
H2345 C2323 0.950 . S
C2346 C2347 1.349 . S
C2346 C2348 1.327 . S
C2346 H2371 0.950 . S
C2347 C2346 1.349 . S
C2347 C2363 1.349 . S
C2348 C2346 1.327 . S
C2348 C2367 1.429 . S
C2348 H2372 0.950 . S
C2349 C2366 1.574 . S
C2349 C2368 1.368 . S
C2349 H2373 0.949 . S
H2350 C2354 0.949 . S
C2351 C2352 1.349 . S
C2351 C2353 1.327 . S
C2351 H2374 0.950 . S
C2352 C2351 1.349 . S
C2352 C2364 1.349 . S
C2353 C2351 1.327 . S
C2353 C2369 1.429 . S
C2353 H2375 0.950 . S
C2354 H2350 0.949 . S
C2354 C2362 1.574 . S
C2354 C2370 1.368 . S
H2355 C2363 0.950 . S
H2356 C2361 0.950 . S
H2357 C2362 0.949 . S
H2358 C2364 0.950 . S
H2359 C2365 0.950 . S
H2360 C2366 0.949 . S
C2361 H2356 0.950 . S
C2361 C2363 1.327 . S
C2361 C2367 1.429 . S
C2362 C2354 1.574 . S
C2362 H2357 0.949 . S
C2362 C2368 1.368 . S
C2363 C2347 1.349 . S
C2363 H2355 0.950 . S
C2363 C2361 1.327 . S
C2364 C2352 1.349 . S
C2364 H2358 0.950 . S
C2364 C2365 1.327 . S
C2365 H2359 0.950 . S
C2365 C2364 1.327 . S
C2365 C2369 1.429 . S
C2366 C2349 1.574 . S
C2366 H2360 0.949 . S
C2366 C2370 1.368 . S
C2367 C2348 1.429 . S
C2367 C2361 1.429 . S
C2367 C2368 1.523 . S
C2368 C2349 1.368 . S
C2368 C2362 1.368 . S
C2368 C2367 1.523 . S
C2369 C2353 1.429 . S
C2369 C2365 1.429 . S
C2369 C2370 1.523 . S
C2370 C2354 1.368 . S
C2370 C2366 1.368 . S
C2370 C2369 1.523 . S
H2371 C2346 0.950 . S
H2372 C2348 0.950 . S
H2373 C2349 0.949 . S
H2374 C2351 0.950 . S
H2375 C2353 0.950 . S
C2376 C2377 1.349 . S
C2376 C2378 1.327 . S
C2376 H2401 0.950 . S
C2377 C2376 1.349 . S
C2377 C2393 1.349 . S
C2378 C2376 1.327 . S
C2378 C2397 1.429 . S
C2378 H2402 0.950 . S
C2379 C2396 1.574 . S
C2379 C2398 1.368 . S
C2379 H2403 0.949 . S
H2380 C2384 0.949 . S
C2381 C2382 1.349 . S
C2381 C2383 1.327 . S
C2381 H2404 0.950 . S
C2382 C2381 1.349 . S
C2382 C2394 1.349 . S
C2383 C2381 1.327 . S
C2383 C2399 1.429 . S
C2383 H2405 0.950 . S
C2384 H2380 0.949 . S
C2384 C2392 1.574 . S
C2384 C2400 1.368 . S
H2385 C2393 0.950 . S
H2386 C2391 0.950 . S
H2387 C2392 0.949 . S
H2388 C2394 0.950 . S
H2389 C2395 0.950 . S
H2390 C2396 0.949 . S
C2391 H2386 0.950 . S
C2391 C2393 1.327 . S
C2391 C2397 1.429 . S
C2392 C2384 1.574 . S
C2392 H2387 0.949 . S
C2392 C2398 1.368 . S
C2393 C2377 1.349 . S
C2393 H2385 0.950 . S
C2393 C2391 1.327 . S
C2394 C2382 1.349 . S
C2394 H2388 0.950 . S
C2394 C2395 1.327 . S
C2395 H2389 0.950 . S
C2395 C2394 1.327 . S
C2395 C2399 1.429 . S
C2396 C2379 1.574 . S
C2396 H2390 0.949 . S
C2396 C2400 1.368 . S
C2397 C2378 1.429 . S
C2397 C2391 1.429 . S
C2397 C2398 1.523 . S
C2398 C2379 1.368 . S
C2398 C2392 1.368 . S
C2398 C2397 1.523 . S
C2399 C2383 1.429 . S
C2399 C2395 1.429 . S
C2399 C2400 1.523 . S
C2400 C2384 1.368 . S
C2400 C2396 1.368 . S
C2400 C2399 1.523 . S
H2401 C2376 0.950 . S
H2402 C2378 0.950 . S
H2403 C2379 0.949 . S
H2404 C2381 0.950 . S
H2405 C2383 0.950 . S
C2406 C2407 1.349 . S
C2406 C2408 1.327 . S
C2406 H2431 0.950 . S
C2407 C2406 1.349 . S
C2407 C2423 1.349 . S
C2408 C2406 1.327 . S
C2408 C2427 1.429 . S
C2408 H2432 0.950 . S
C2409 C2426 1.574 . S
C2409 C2428 1.368 . S
C2409 H2433 0.949 . S
H2410 C2414 0.949 . S
C2411 C2412 1.349 . S
C2411 C2413 1.327 . S
C2411 H2434 0.950 . S
C2412 C2411 1.349 . S
C2412 C2424 1.349 . S
C2413 C2411 1.327 . S
C2413 C2429 1.429 . S
C2413 H2435 0.950 . S
C2414 H2410 0.949 . S
C2414 C2422 1.574 . S
C2414 C2430 1.368 . S
H2415 C2423 0.950 . S
H2416 C2421 0.950 . S
H2417 C2422 0.949 . S
H2418 C2424 0.950 . S
H2419 C2425 0.950 . S
H2420 C2426 0.949 . S
C2421 H2416 0.950 . S
C2421 C2423 1.327 . S
C2421 C2427 1.429 . S
C2422 C2414 1.574 . S
C2422 H2417 0.949 . S
C2422 C2428 1.368 . S
C2423 C2407 1.349 . S
C2423 H2415 0.950 . S
C2423 C2421 1.327 . S
C2424 C2412 1.349 . S
C2424 H2418 0.950 . S
C2424 C2425 1.327 . S
C2425 H2419 0.950 . S
C2425 C2424 1.327 . S
C2425 C2429 1.429 . S
C2426 C2409 1.574 . S
C2426 H2420 0.949 . S
C2426 C2430 1.368 . S
C2427 C2408 1.429 . S
C2427 C2421 1.429 . S
C2427 C2428 1.523 . S
C2428 C2409 1.368 . S
C2428 C2422 1.368 . S
C2428 C2427 1.523 . S
C2429 C2413 1.429 . S
C2429 C2425 1.429 . S
C2429 C2430 1.523 . S
C2430 C2414 1.368 . S
C2430 C2426 1.368 . S
C2430 C2429 1.523 . S
H2431 C2406 0.950 . S
H2432 C2408 0.950 . S
H2433 C2409 0.949 . S
H2434 C2411 0.950 . S
H2435 C2413 0.950 . S
C2436 C2437 1.349 . S
C2436 C2438 1.327 . S
C2436 H2461 0.950 . S
C2437 C2436 1.349 . S
C2437 C2453 1.349 . S
C2438 C2436 1.327 . S
C2438 C2457 1.429 . S
C2438 H2462 0.950 . S
C2439 C2456 1.574 . S
C2439 C2458 1.368 . S
C2439 H2463 0.949 . S
H2440 C2444 0.949 . S
C2441 C2442 1.349 . S
C2441 C2443 1.327 . S
C2441 H2464 0.950 . S
C2442 C2441 1.349 . S
C2442 C2454 1.349 . S
C2443 C2441 1.327 . S
C2443 C2459 1.429 . S
C2443 H2465 0.950 . S
C2444 H2440 0.949 . S
C2444 C2452 1.574 . S
C2444 C2460 1.368 . S
H2445 C2453 0.950 . S
H2446 C2451 0.950 . S
H2447 C2452 0.949 . S
H2448 C2454 0.950 . S
H2449 C2455 0.950 . S
H2450 C2456 0.949 . S
C2451 H2446 0.950 . S
C2451 C2453 1.327 . S
C2451 C2457 1.429 . S
C2452 C2444 1.574 . S
C2452 H2447 0.949 . S
C2452 C2458 1.368 1_455 S
C2453 C2437 1.349 . S
C2453 H2445 0.950 . S
C2453 C2451 1.327 . S
C2454 C2442 1.349 . S
C2454 H2448 0.950 . S
C2454 C2455 1.327 . S
C2455 H2449 0.950 . S
C2455 C2454 1.327 . S
C2455 C2459 1.429 . S
C2456 C2439 1.574 . S
C2456 H2450 0.949 . S
C2456 C2460 1.368 1_655 S
C2457 C2438 1.429 . S
C2457 C2451 1.429 . S
C2457 C2458 1.523 . S
C2458 C2439 1.368 . S
C2458 C2452 1.368 1_655 S
C2458 C2457 1.523 . S
C2459 C2443 1.429 . S
C2459 C2455 1.429 . S
C2459 C2460 1.523 . S
C2460 C2444 1.368 . S
C2460 C2456 1.368 1_455 S
C2460 C2459 1.523 . S
H2461 C2436 0.950 . S
H2462 C2438 0.950 . S
H2463 C2439 0.949 . S
H2464 C2441 0.950 . S
H2465 C2443 0.950 . S
C2466 C2467 1.349 . S
C2466 C2468 1.327 . S
C2466 H2491 0.950 . S
C2467 C2466 1.349 . S
C2467 C2483 1.349 . S
C2468 C2466 1.327 . S
C2468 C2487 1.429 . S
C2468 H2492 0.950 . S
C2469 C2486 1.574 . S
C2469 C2488 1.368 1_556 S
C2469 H2493 0.949 . S
H2470 C2474 0.949 . S
C2471 C2472 1.349 . S
C2471 C2473 1.327 . S
C2471 H2494 0.950 . S
C2472 C2471 1.349 . S
C2472 C2484 1.349 . S
C2473 C2471 1.327 . S
C2473 C2489 1.429 . S
C2473 H2495 0.950 . S
C2474 H2470 0.949 . S
C2474 C2482 1.574 1_556 S
C2474 C2490 1.368 . S
H2475 C2483 0.950 . S
H2476 C2481 0.950 . S
H2477 C2482 0.949 . S
H2478 C2484 0.950 . S
H2479 C2485 0.950 . S
H2480 C2486 0.949 . S
C2481 H2476 0.950 . S
C2481 C2483 1.327 . S
C2481 C2487 1.429 . S
C2482 C2474 1.574 1_554 S
C2482 H2477 0.949 . S
C2482 C2488 1.368 . S
C2483 C2467 1.349 . S
C2483 H2475 0.950 . S
C2483 C2481 1.327 . S
C2484 C2472 1.349 . S
C2484 H2478 0.950 . S
C2484 C2485 1.327 . S
C2485 H2479 0.950 . S
C2485 C2484 1.327 . S
C2485 C2489 1.429 . S
C2486 C2469 1.574 . S
C2486 H2480 0.949 . S
C2486 C2490 1.368 . S
C2487 C2468 1.429 . S
C2487 C2481 1.429 . S
C2487 C2488 1.523 . S
C2488 C2469 1.368 1_554 S
C2488 C2482 1.368 . S
C2488 C2487 1.523 . S
C2489 C2473 1.429 . S
C2489 C2485 1.429 . S
C2489 C2490 1.523 . S
C2490 C2474 1.368 . S
C2490 C2486 1.368 . S
C2490 C2489 1.523 . S
H2491 C2466 0.950 . S
H2492 C2468 0.950 . S
H2493 C2469 0.949 . S
H2494 C2471 0.950 . S
H2495 C2473 0.950 . S
C2496 C2497 1.349 . S
C2496 C2498 1.327 . S
C2496 H2521 0.950 . S
C2497 C2496 1.349 . S
C2497 C2513 1.349 . S
C2498 C2496 1.327 . S
C2498 C2517 1.429 . S
C2498 H2522 0.950 . S
C2499 C2516 1.574 . S
C2499 C2518 1.368 . S
C2499 H2523 0.949 . S
H2500 C2504 0.949 . S
C2501 C2502 1.349 . S
C2501 C2503 1.327 . S
C2501 H2524 0.950 . S
C2502 C2501 1.349 . S
C2502 C2514 1.349 . S
C2503 C2501 1.327 . S
C2503 C2519 1.429 . S
C2503 H2525 0.950 . S
C2504 H2500 0.949 . S
C2504 C2512 1.574 . S
C2504 C2520 1.368 . S
H2505 C2513 0.950 . S
H2506 C2511 0.950 . S
H2507 C2512 0.949 . S
H2508 C2514 0.950 . S
H2509 C2515 0.950 . S
H2510 C2516 0.949 . S
C2511 H2506 0.950 . S
C2511 C2513 1.327 . S
C2511 C2517 1.429 . S
C2512 C2504 1.574 . S
C2512 H2507 0.949 . S
C2512 C2518 1.368 1_545 S
C2513 C2497 1.349 . S
C2513 H2505 0.950 . S
C2513 C2511 1.327 . S
C2514 C2502 1.349 . S
C2514 H2508 0.950 . S
C2514 C2515 1.327 . S
C2515 H2509 0.950 . S
C2515 C2514 1.327 . S
C2515 C2519 1.429 . S
C2516 C2499 1.574 . S
C2516 H2510 0.949 . S
C2516 C2520 1.368 1_565 S
C2517 C2498 1.429 . S
C2517 C2511 1.429 . S
C2517 C2518 1.523 . S
C2518 C2499 1.368 . S
C2518 C2512 1.368 1_565 S
C2518 C2517 1.523 . S
C2519 C2503 1.429 . S
C2519 C2515 1.429 . S
C2519 C2520 1.523 . S
C2520 C2504 1.368 . S
C2520 C2516 1.368 1_545 S
C2520 C2519 1.523 . S
H2521 C2496 0.950 . S
H2522 C2498 0.950 . S
H2523 C2499 0.949 . S
H2524 C2501 0.950 . S
H2525 C2503 0.950 . S
C2526 C2527 1.349 . S
C2526 C2528 1.327 . S
C2526 H2551 0.950 . S
C2527 C2526 1.349 . S
C2527 C2543 1.349 . S
C2528 C2526 1.327 . S
C2528 C2547 1.429 . S
C2528 H2552 0.950 . S
C2529 C2546 1.574 . S
C2529 C2548 1.368 . S
C2529 H2553 0.949 . S
H2530 C2534 0.949 . S
C2531 C2532 1.349 . S
C2531 C2533 1.327 . S
C2531 H2554 0.950 . S
C2532 C2531 1.349 . S
C2532 C2544 1.349 . S
C2533 C2531 1.327 . S
C2533 C2549 1.429 . S
C2533 H2555 0.950 . S
C2534 H2530 0.949 . S
C2534 C2542 1.574 . S
C2534 C2550 1.368 . S
H2535 C2543 0.950 . S
H2536 C2541 0.950 . S
H2537 C2542 0.949 . S
H2538 C2544 0.950 . S
H2539 C2545 0.950 . S
H2540 C2546 0.949 . S
C2541 H2536 0.950 . S
C2541 C2543 1.327 . S
C2541 C2547 1.429 . S
C2542 C2534 1.574 . S
C2542 H2537 0.949 . S
C2542 C2548 1.368 . S
C2543 C2527 1.349 . S
C2543 H2535 0.950 . S
C2543 C2541 1.327 . S
C2544 C2532 1.349 . S
C2544 H2538 0.950 . S
C2544 C2545 1.327 . S
C2545 H2539 0.950 . S
C2545 C2544 1.327 . S
C2545 C2549 1.429 . S
C2546 C2529 1.574 . S
C2546 H2540 0.949 . S
C2546 C2550 1.368 . S
C2547 C2528 1.429 . S
C2547 C2541 1.429 . S
C2547 C2548 1.523 . S
C2548 C2529 1.368 . S
C2548 C2542 1.368 . S
C2548 C2547 1.523 . S
C2549 C2533 1.429 . S
C2549 C2545 1.429 . S
C2549 C2550 1.523 . S
C2550 C2534 1.368 . S
C2550 C2546 1.368 . S
C2550 C2549 1.523 . S
H2551 C2526 0.950 . S
H2552 C2528 0.950 . S
H2553 C2529 0.949 . S
H2554 C2531 0.950 . S
H2555 C2533 0.950 . S
C2556 C2557 1.349 . S
C2556 C2558 1.327 . S
C2556 H2581 0.950 . S
C2557 C2556 1.349 . S
C2557 C2573 1.349 . S
C2558 C2556 1.327 . S
C2558 C2577 1.429 . S
C2558 H2582 0.950 . S
C2559 C2576 1.574 . S
C2559 C2578 1.368 . S
C2559 H2583 0.949 . S
H2560 C2564 0.949 . S
C2561 C2562 1.349 . S
C2561 C2563 1.327 . S
C2561 H2584 0.950 . S
C2562 C2561 1.349 . S
C2562 C2574 1.349 . S
C2563 C2561 1.327 . S
C2563 C2579 1.429 . S
C2563 H2585 0.950 . S
C2564 H2560 0.949 . S
C2564 C2572 1.558 1_565 S
C2564 C2580 1.368 . S
H2565 C2573 0.950 . S
H2566 C2571 0.950 . S
H2567 C2572 0.948 1_565 S
H2568 C2574 0.950 . S
H2569 C2575 0.950 . S
H2570 C2576 0.949 . S
C2571 H2566 0.950 . S
C2571 C2573 1.327 . S
C2571 C2577 1.429 . S
C2572 C2564 1.558 1_545 S
C2572 H2567 0.948 1_545 S
C2572 C2578 1.386 . S
C2573 C2557 1.349 . S
C2573 H2565 0.950 . S
C2573 C2571 1.327 . S
C2574 C2562 1.349 . S
C2574 H2568 0.950 . S
C2574 C2575 1.327 . S
C2575 H2569 0.950 . S
C2575 C2574 1.327 . S
C2575 C2579 1.429 . S
C2576 C2559 1.574 . S
C2576 H2570 0.949 . S
C2576 C2580 1.368 1_545 S
C2577 C2558 1.429 . S
C2577 C2571 1.429 . S
C2577 C2578 1.523 . S
C2578 C2559 1.368 . S
C2578 C2572 1.386 . S
C2578 C2577 1.523 . S
C2579 C2563 1.429 . S
C2579 C2575 1.429 . S
C2579 C2580 1.523 . S
C2580 C2564 1.368 . S
C2580 C2576 1.368 1_565 S
C2580 C2579 1.523 . S
H2581 C2556 0.950 . S
H2582 C2558 0.950 . S
H2583 C2559 0.949 . S
H2584 C2561 0.950 . S
H2585 C2563 0.950 . S
C2586 C2587 1.349 . S
C2586 C2588 1.327 . S
C2586 H2611 0.950 . S
C2587 C2586 1.349 . S
C2587 C2603 1.349 . S
C2588 C2586 1.327 . S
C2588 C2607 1.429 . S
C2588 H2612 0.950 . S
C2589 C2606 1.574 . S
C2589 C2608 1.368 . S
C2589 H2613 0.949 . S
H2590 C2594 0.949 . S
C2591 C2592 1.349 . S
C2591 C2593 1.327 . S
C2591 H2614 0.950 . S
C2592 C2591 1.349 . S
C2592 C2604 1.349 . S
C2593 C2591 1.327 . S
C2593 C2609 1.429 . S
C2593 H2615 0.950 . S
C2594 H2590 0.949 . S
C2594 C2602 1.574 . S
C2594 C2610 1.368 . S
H2595 C2603 0.950 . S
H2596 C2601 0.950 . S
H2597 C2602 0.949 . S
H2598 C2604 0.950 . S
H2599 C2605 0.950 . S
H2600 C2606 0.949 . S
C2601 H2596 0.950 . S
C2601 C2603 1.327 . S
C2601 C2607 1.429 . S
C2602 C2594 1.574 . S
C2602 H2597 0.949 . S
C2602 C2608 1.368 . S
C2603 C2587 1.349 . S
C2603 H2595 0.950 . S
C2603 C2601 1.327 . S
C2604 C2592 1.349 . S
C2604 H2598 0.950 . S
C2604 C2605 1.327 . S
C2605 H2599 0.950 . S
C2605 C2604 1.327 . S
C2605 C2609 1.429 . S
C2606 C2589 1.574 . S
C2606 H2600 0.949 . S
C2606 C2610 1.368 . S
C2607 C2588 1.429 . S
C2607 C2601 1.429 . S
C2607 C2608 1.523 . S
C2608 C2589 1.368 . S
C2608 C2602 1.368 . S
C2608 C2607 1.523 . S
C2609 C2593 1.429 . S
C2609 C2605 1.429 . S
C2609 C2610 1.523 . S
C2610 C2594 1.368 . S
C2610 C2606 1.368 . S
C2610 C2609 1.523 . S
H2611 C2586 0.950 . S
H2612 C2588 0.950 . S
H2613 C2589 0.949 . S
H2614 C2591 0.950 . S
H2615 C2593 0.950 . S
C817 C451 1.489 . S
C822 C20 1.603 . S
C847 C54 1.603 . S
C852 C485 1.489 . S
C877 C88 1.603 . S
C882 C519 1.489 . S
C907 C417 1.489 . S
C912 C122 1.603 . S
C937 C383 1.489 . S
C942 C156 1.603 . S
C967 C281 1.489 . S
C972 C190 1.603 . S
C997 C224 1.603 . S
C1002 C315 1.489 . S
C1027 C349 1.489 . S
C1032 C258 1.603 . S
C1057 C292 1.603 . S
C1062 C43 1.489 . S
C1087 C326 1.603 . S
C1092 C77 1.489 . S
C1117 C360 1.603 . S
C1122 C111 1.489 . S
C1147 C9 1.489 . S
C1152 C394 1.603 . S
C1177 C247 1.489 . S
C1182 C428 1.603 . S
C1207 C462 1.603 . S
C1212 C145 1.489 . S
C1237 C496 1.603 . S
C1242 C179 1.489 . S
C1267 C213 1.489 . S
C1272 C530 1.603 . S
C1297 C757 1.489 . S
C1302 C564 1.603 . S
C1327 C598 1.603 . S
C1332 C621 1.489 . S
C1357 C632 1.603 . S
C1362 C655 1.489 . S
C1387 C689 1.489 . S
C1392 C666 1.603 . S
C1417 C700 1.603 . S
C1422 C587 1.489 . S
C1447 C791 1.489 . S
C1452 C734 1.603 . S
C1477 C768 1.603 . S
C1482 C723 1.489 . S
C1507 C553 1.489 . S
C1512 C802 1.603 . S
C1537 C549 1.023 . S
C1542 C33 1.022 . S
C1567 C787 1.023 . S
C1572 C67 1.022 . S
C1597 C101 1.022 . S
C1602 C719 1.023 . S
C1627 C753 1.023 . S
C1632 C135 1.022 . S
C1657 C583 1.023 . S
C1662 C169 1.022 . S
C1687 C617 1.023 . S
C1692 C203 1.022 . S
C1717 C651 1.023 . S
C1722 C237 1.022 . S
C1747 C271 1.022 . S
C1752 C685 1.023 . S
C1777 C305 1.022 . S
C1782 C5 1.023 . S
C1807 C339 1.022 . S
C1812 C39 1.023 . S
C1837 C373 1.022 . S
C1842 C73 1.023 . S
C1867 C407 1.022 . S
C1872 C107 1.023 . S
C1897 C441 1.022 . S
C1902 C141 1.023 . S
C1927 C175 1.023 . S
C1932 C475 1.022 . S
C1957 C209 1.023 . S
C1962 C509 1.022 . S
C1987 C543 1.022 . S
C1992 C243 1.023 . S
C2017 C277 1.023 . S
C2022 C577 1.022 . S
C2047 C413 1.023 . S
C2052 C611 1.022 . S
C2077 C447 1.023 . S
C2082 C645 1.022 . S
C2107 C481 1.023 . S
C2112 C679 1.022 . S
C2137 C713 1.022 . S
C2142 C515 1.023 . S
C2167 C747 1.022 . S
C2172 C345 1.023 . S
C2197 C781 1.022 . S
C2202 C379 1.023 . S
C2227 C311 1.023 . S
C2232 C815 1.022 . S
C2257 C682 1.121 . S
C2262 C2 1.121 . S
C2287 C36 1.121 . S
C2292 C580 1.121 . S
C2317 C614 1.121 . S
C2322 C70 1.121 . S
C2347 C104 1.121 . S
C2352 C648 1.121 . S
C2377 C784 1.121 . S
C2382 C138 1.121 . S
C2407 C716 1.121 . S
C2412 C172 1.121 . S
C2437 C206 1.121 . S
C2442 C750 1.121 . S
C2467 C546 1.121 . S
C2472 C240 1.121 . S
C2497 C512 1.121 . S
C2502 C274 1.121 . S
C2527 C410 1.121 . S
C2532 C308 1.121 . S
C2557 C444 1.121 . S
C2562 C342 1.121 . S
C2587 C478 1.121 . S
C2592 C376 1.121 . S
