# Generated by pormake.
# Topology tfs, (6)-cn, num edge types: 1
# Building blocks:
#     Node 0, Type 0, BuildingBlock: CUWYAW_clean_sbu_0, # of connection points: 6
#     Node 1, Type 0, BuildingBlock: CUWYAW_clean_sbu_0, # of connection points: 6
#     Node 2, Type 0, BuildingBlock: CUWYAW_clean_sbu_0, # of connection points: 6
#     Node 3, Type 0, BuildingBlock: CUWYAW_clean_sbu_0, # of connection points: 6
#     Node 4, Type 0, BuildingBlock: CUWYAW_clean_sbu_0, # of connection points: 6
#     Node 5, Type 0, BuildingBlock: CUWYAW_clean_sbu_0, # of connection points: 6
#     Edge 6, Type (0, 0), BuildingBlock: ZUJKAS_clean_linker_0, # of connection points: 2
#     Edge 7, Type (0, 0), BuildingBlock: ZUJKAS_clean_linker_0, # of connection points: 2
#     Edge 8, Type (0, 0), BuildingBlock: ZUJKAS_clean_linker_0, # of connection points: 2
#     Edge 9, Type (0, 0), BuildingBlock: ZUJKAS_clean_linker_0, # of connection points: 2
#     Edge 10, Type (0, 0), BuildingBlock: ZUJKAS_clean_linker_0, # of connection points: 2
#     Edge 11, Type (0, 0), BuildingBlock: ZUJKAS_clean_linker_0, # of connection points: 2
#     Edge 12, Type (0, 0), BuildingBlock: ZUJKAS_clean_linker_0, # of connection points: 2
#     Edge 13, Type (0, 0), BuildingBlock: ZUJKAS_clean_linker_0, # of connection points: 2
#     Edge 14, Type (0, 0), BuildingBlock: ZUJKAS_clean_linker_0, # of connection points: 2
#     Edge 15, Type (0, 0), BuildingBlock: ZUJKAS_clean_linker_0, # of connection points: 2
#     Edge 16, Type (0, 0), BuildingBlock: ZUJKAS_clean_linker_0, # of connection points: 2
#     Edge 17, Type (0, 0), BuildingBlock: ZUJKAS_clean_linker_0, # of connection points: 2
#     Edge 18, Type (0, 0), BuildingBlock: ZUJKAS_clean_linker_0, # of connection points: 2
#     Edge 19, Type (0, 0), BuildingBlock: ZUJKAS_clean_linker_0, # of connection points: 2
#     Edge 20, Type (0, 0), BuildingBlock: ZUJKAS_clean_linker_0, # of connection points: 2
#     Edge 21, Type (0, 0), BuildingBlock: ZUJKAS_clean_linker_0, # of connection points: 2
#     Edge 22, Type (0, 0), BuildingBlock: ZUJKAS_clean_linker_0, # of connection points: 2
#     Edge 23, Type (0, 0), BuildingBlock: ZUJKAS_clean_linker_0, # of connection points: 2
# Relax obj value: 0.512
# Max RMSD: 0.285
# Mean RMSD: 0.285
data_MOF--net-tfs--node1-CUWYAW_clean_sbu_0--edge1-ZUJKAS_clean_linker_0
_symmetry_space_group_name_H-M    P1
_symmetry_Int_Tables_number       1
_symmetry_cell_setting            triclinic
loop_
_symmetry_equiv_pos_as_xyz
'x, y, z'
_cell_length_a     67.293253
_cell_length_b     67.318913
_cell_length_c     18.961435
_cell_angle_alpha  89.999389
_cell_angle_beta   89.974603
_cell_angle_gamma 119.98082
loop_
_atom_site_label
_atom_site_type_symbol
_atom_site_fract_x
_atom_site_fract_y
_atom_site_fract_z
_atom_type_partial_charge
C0 C 0.22988 0.37927 0.93781 0.0
Eu1 Eu 0.21678 0.40624 0.99473 0.0
C2 C 0.23128 0.35844 0.95037 0.0
C3 C 0.23186 0.35087 0.0189 0.0
C4 C 0.23664 0.33308 0.02947 0.0
C5 C 0.24094 0.32259 0.9717 0.0
C6 C 0.23928 0.32962 0.90311 0.0
C7 C 0.23451 0.34737 0.89266 0.0
C8 C 0.21577 0.41304 0.13636 0.0
C9 C 0.16185 0.38158 0.02128 0.0
C10 C 0.1833 0.46271 0.08415 0.0
Eu11 Eu 0.19549 0.43455 0.03197 0.0
C12 C 0.18724 0.48599 0.07073 0.0
C13 C 0.18536 0.49313 1.0026 0.0
C14 C 0.18801 0.51488 0.99186 0.0
C15 C 0.19279 0.52996 0.04888 0.0
C16 C 0.19512 0.52292 0.11671 0.0
C17 C 0.19229 0.50111 0.1275 0.0
C18 C 0.19645 0.42715 0.89055 0.0
C19 C 0.25018 0.46001 1.00592 0.0
O20 O 0.20964 0.37697 0.92712 0.0
O21 O 0.243 0.397 0.977 0.0
O22 O 0.23174 0.41099 0.10514 0.0
O23 O 0.2001 0.40919 0.09316 0.0
O24 O 0.17816 0.38127 0.98301 0.0
O25 O 0.16642 0.39973 0.05942 0.0
O26 O 0.20072 0.46117 0.10797 0.0
O27 O 0.17129 0.44698 0.03727 0.0
O28 O 0.18001 0.42836 0.92182 0.0
O29 O 0.21227 0.4316 0.93377 0.0
O30 O 0.23348 0.4602 0.04179 0.0
O31 O 0.24636 0.4416 0.97021 0.0
H32 H 0.2294 0.35922 0.06419 0.0
H33 H 0.23747 0.32788 0.08294 0.0
H34 H 0.24277 0.3222 0.85741 0.0
H35 H 0.23428 0.3531 0.8394 0.0
H36 H 0.18165 0.48185 0.95771 0.0
H37 H 0.18639 0.51993 0.9389 0.0
H38 H 0.19857 0.53406 0.16179 0.0
H39 H 0.19376 0.49593 0.18046 0.0
C40 C 0.84955 0.22773 0.93435 0.0
Eu41 Eu 0.80925 0.21422 0.99019 0.0
C42 C 0.87225 0.23004 0.94707 0.0
C43 C 0.88388 0.23852 0.01126 0.0
C44 C 0.90691 0.24439 0.01779 0.0
C45 C 0.91874 0.24189 0.96031 0.0
C46 C 0.90657 0.23211 0.89758 0.0
C47 C 0.88359 0.22631 0.89104 0.0
C48 C 0.80102 0.2129 0.1315 0.0
C49 C 0.77932 0.1591 0.01537 0.0
C50 C 0.71898 0.18002 0.07866 0.0
Eu51 Eu 0.75937 0.19231 0.02652 0.0
C52 C 0.70019 0.1849 0.06684 0.0
C53 C 0.69367 0.18738 0.99847 0.0
C54 C 0.67513 0.19101 0.98848 0.0
C55 C 0.66293 0.19245 0.04664 0.0
C56 C 0.66984 0.19042 0.115 0.0
C57 C 0.68826 0.18662 0.12492 0.0
C58 C 0.76815 0.19344 0.88548 0.0
C59 C 0.78819 0.24709 1.00069 0.0
O60 O 0.83196 0.20721 0.92454 0.0
O61 O 0.8444 0.24091 0.97132 0.0
O62 O 0.81906 0.229 0.10085 0.0
O63 O 0.78943 0.19726 0.08796 0.0
O64 O 0.79614 0.17572 0.97848 0.0
O65 O 0.76517 0.16316 0.05247 0.0
O66 O 0.73802 0.19668 0.10489 0.0
O67 O 0.72258 0.16869 0.02905 0.0
O68 O 0.75048 0.17687 0.91634 0.0
O69 O 0.77929 0.20928 0.92886 0.0
O70 O 0.77119 0.23019 0.03558 0.0
O71 O 0.80316 0.24362 0.96581 0.0
H72 H 0.87551 0.24156 0.05537 0.0
H73 H 0.91573 0.25203 0.0667 0.0
H74 H 0.915 0.22954 0.85271 0.0
H75 H 0.87494 0.21979 0.84106 0.0
H76 H 0.70277 0.18632 0.95277 0.0
H77 H 0.67039 0.19278 0.93524 0.0
H78 H 0.66066 0.19124 0.16084 0.0
H79 H 0.69303 0.18476 0.17806 0.0
C80 C 0.62356 0.84974 0.93593 0.0
Eu81 Eu 0.59705 0.80936 0.99159 0.0
C82 C 0.64428 0.87208 0.94854 0.0
C83 C 0.6517 0.88033 0.01709 0.0
C84 C 0.66926 0.90299 0.02766 0.0
C85 C 0.67968 0.9178 0.96987 0.0
C86 C 0.67284 0.90902 0.90128 0.0
C87 C 0.65532 0.8864 0.89083 0.0
C88 C 0.58983 0.80107 0.13278 0.0
C89 C 0.6226 0.77986 0.01851 0.0
C90 C 0.54154 0.71881 0.07823 0.0
Eu91 Eu 0.56928 0.75953 0.02753 0.0
C92 C 0.51809 0.6996 0.06646 0.0
C93 C 0.51414 0.67712 0.06968 0.0
C94 C 0.49219 0.65849 0.05818 0.0
C95 C 0.47368 0.66198 0.04343 0.0
C96 C 0.47767 0.68458 0.04035 0.0
C97 C 0.49972 0.70325 0.05143 0.0
C98 C 0.57725 0.76845 0.88663 0.0
C99 C 0.54307 0.78804 1.00101 0.0
O100 O 0.62607 0.83199 0.92372 0.0
O101 O 0.60589 0.84477 0.97594 0.0
O102 O 0.59158 0.819 0.10187 0.0
O103 O 0.59412 0.78957 0.08954 0.0
O104 O 0.62285 0.79669 0.98158 0.0
O105 O 0.60424 0.76556 0.0548 0.0
O106 O 0.5437 0.7377 0.10507 0.0
O107 O 0.55635 0.72268 0.02804 0.0
O108 O 0.57643 0.75096 0.91768 0.0
O109 O 0.57225 0.77943 0.92979 0.0
O110 O 0.543 0.77113 0.03637 0.0
O111 O 0.56154 0.80298 0.96615 0.0
H112 H 0.64338 0.86951 0.0624 0.0
H113 H 0.67433 0.90908 0.08113 0.0
H114 H 0.68022 0.91993 0.85556 0.0
H115 H 0.64971 0.88038 0.83756 0.0
H116 H 0.52809 0.67395 0.0812 0.0
H117 H 0.48965 0.64132 0.06187 0.0
H118 H 0.4638 0.68783 0.02845 0.0
H119 H 0.5024 0.72049 0.04807 0.0
C120 C 0.77429 0.62209 0.93685 0.0
Eu121 Eu 0.78761 0.5951 0.99227 0.0
C122 C 0.77274 0.64282 0.95022 0.0
C123 C 0.77065 0.64935 0.0189 0.0
C124 C 0.76555 0.66692 0.02958 0.0
C125 C 0.76243 0.67823 0.97177 0.0
C126 C 0.76568 0.67231 0.90325 0.0
C127 C 0.77075 0.65477 0.89269 0.0
C128 C 0.7887 0.58789 0.13344 0.0
C129 C 0.84273 0.61978 0.01733 0.0
C130 C 0.82138 0.53868 0.08179 0.0
Eu131 Eu 0.80902 0.5666 0.02832 0.0
C132 C 0.81671 0.51507 0.07221 0.0
C133 C 0.8054 0.50232 0.01195 0.0
C134 C 0.80238 0.48036 1.00203 0.0
C135 C 0.81065 0.47083 0.05223 0.0
C136 C 0.82148 0.48357 0.11325 0.0
C137 C 0.8245 0.50548 0.12302 0.0
C138 C 0.80824 0.57455 0.88741 0.0
C139 C 0.75434 0.54116 1.00096 0.0
O140 O 0.79456 0.62451 0.92545 0.0
O141 O 0.76126 0.6042 0.97566 0.0
O142 O 0.7727 0.59001 0.10275 0.0
O143 O 0.80436 0.59186 0.08996 0.0
O144 O 0.82613 0.62043 0.98174 0.0
O145 O 0.83855 0.60137 0.05346 0.0
O146 O 0.80472 0.54118 0.10756 0.0
O147 O 0.83225 0.55294 0.03029 0.0
O148 O 0.82459 0.57307 0.91836 0.0
O149 O 0.79236 0.56999 0.93062 0.0
O150 O 0.77104 0.54066 0.03586 0.0
O151 O 0.7581 0.55983 0.96689 0.0
H152 H 0.77215 0.64034 0.06411 0.0
H153 H 0.76351 0.67127 0.08305 0.0
H154 H 0.76316 0.68042 0.85748 0.0
H155 H 0.77214 0.64986 0.83928 0.0
H156 H 0.79926 0.50951 0.97214 0.0
H157 H 0.79411 0.47111 0.95425 0.0
H158 H 0.82765 0.4766 0.15362 0.0
H159 H 0.83318 0.51506 0.16999 0.0
C160 C 0.15272 0.77233 0.92483 0.0
Eu161 Eu 0.19079 0.78638 0.99445 0.0
C162 C 0.12965 0.76947 0.93099 0.0
C163 C 0.12058 0.77065 0.99652 0.0
C164 C 0.09751 0.76482 1.00214 0.0
C165 C 0.08318 0.75757 0.94238 0.0
C166 C 0.0927 0.75739 0.87649 0.0
C167 C 0.11571 0.76328 0.87093 0.0
C168 C 0.19728 0.79105 0.13809 0.0
C169 C 0.22288 0.84035 0.02962 0.0
C170 C 0.28332 0.81817 0.08732 0.0
Eu171 Eu 0.24368 0.80736 0.03266 0.0
C172 C 0.30247 0.81402 0.07306 0.0
C173 C 0.30991 0.81385 1.00393 0.0
C174 C 0.32862 0.81062 0.99191 0.0
C175 C 0.34007 0.80727 0.04871 0.0
C176 C 0.33228 0.80706 0.11772 0.0
C177 C 0.3137 0.81046 0.12971 0.0
C178 C 0.23373 0.80772 0.89304 0.0
C179 C 0.21204 0.75225 1.00715 0.0
O180 O 0.17017 0.79328 0.91984 0.0
O181 O 0.1569 0.75906 0.96523 0.0
O182 O 0.17727 0.78261 0.10843 0.0
O183 O 0.21176 0.79624 0.0898 0.0
O184 O 0.20634 0.82518 0.98822 0.0
O185 O 0.2364 0.83506 0.06572 0.0
O186 O 0.26402 0.80048 0.10809 0.0
O187 O 0.28028 0.83119 0.04233 0.0
O188 O 0.25281 0.82276 0.92232 0.0
O189 O 0.222 0.79223 0.93711 0.0
O190 O 0.2319 0.7696 0.02827 0.0
O191 O 0.19465 0.75486 0.98659 0.0
H192 H 0.1311 0.7753 0.04356 0.0
H193 H 0.09066 0.765 0.05368 0.0
H194 H 0.08221 0.75221 0.82935 0.0
H195 H 0.12243 0.76225 0.81994 0.0
H196 H 0.30136 0.81635 0.95925 0.0
H197 H 0.33404 0.81059 0.93813 0.0
H198 H 0.34087 0.80475 0.16262 0.0
H199 H 0.3082 0.81052 0.18341 0.0
C200 C 0.38036 0.15208 0.93541 0.0
Eu201 Eu 0.40694 0.19239 0.99126 0.0
C202 C 0.3603 0.12951 0.95053 0.0
C203 C 0.35336 0.12208 0.01999 0.0
C204 C 0.33651 0.0993 0.03333 0.0
C205 C 0.32639 0.08359 0.97743 0.0
C206 C 0.33271 0.09154 0.90782 0.0
C207 C 0.3495 0.11427 0.89462 0.0
C208 C 0.4138 0.20043 0.13265 0.0
C209 C 0.38144 0.22195 0.01684 0.0
C210 C 0.4626 0.2827 0.07819 0.0
Eu211 Eu 0.43454 0.24206 0.02759 0.0
C212 C 0.48614 0.30195 0.06514 0.0
C213 C 0.49048 0.31799 0.01128 0.0
C214 C 0.51251 0.33673 1.00143 0.0
C215 C 0.53071 0.33996 0.04537 0.0
C216 C 0.5264 0.32382 0.09891 0.0
C217 C 0.50436 0.30508 0.10879 0.0
C218 C 0.42698 0.23341 0.88642 0.0
C219 C 0.46077 0.21355 1.00207 0.0
O220 O 0.37706 0.16948 0.927 0.0
O221 O 0.39888 0.1574 0.97144 0.0
O222 O 0.41209 0.18254 0.10163 0.0
O223 O 0.40961 0.212 0.08942 0.0
O224 O 0.38146 0.20537 0.97924 0.0
O225 O 0.39955 0.23597 0.05444 0.0
O226 O 0.46058 0.26378 0.10439 0.0
O227 O 0.44709 0.27875 0.03026 0.0
O228 O 0.42779 0.25089 0.91756 0.0
O229 O 0.43183 0.22234 0.92962 0.0
O230 O 0.46064 0.23031 0.03767 0.0
O231 O 0.44248 0.19875 0.96633 0.0
H232 H 0.36153 0.13364 0.0639 0.0
H233 H 0.33183 0.09385 0.08749 0.0
H234 H 0.32557 0.07993 0.86351 0.0
H235 H 0.35477 0.11968 0.84069 0.0
H236 H 0.47682 0.3163 0.97717 0.0
H237 H 0.51513 0.349 0.96042 0.0
H238 H 0.54008 0.32566 0.13322 0.0
H239 H 0.50154 0.29313 0.15109 0.0
H240 H 0.34287 0.20092 0.93327 0.0
H241 H 0.31188 0.2101 0.92609 0.0
H242 H 0.34422 0.26061 0.09019 0.0
H243 H 0.37484 0.25143 0.09848 0.0
H244 H 0.29633 0.23384 0.10526 0.0
H245 H 0.32165 0.26968 0.83416 0.0
H246 H 0.31516 0.24057 0.84653 0.0
H247 H 0.33987 0.26351 0.88869 0.0
C248 C 0.34322 0.2138 0.96831 0.0
C249 C 0.36146 0.22559 0.01596 0.0
C250 C 0.32558 0.21911 0.96386 0.0
C251 C 0.32595 0.2363 1.00687 0.0
C252 C 0.34362 0.24735 0.05633 0.0
H253 H 0.27119 0.32405 0.07077 0.0
H254 H 0.28773 0.29917 0.08041 0.0
C255 C 0.36118 0.24211 0.06078 0.0
C256 C 0.30872 0.24378 0.99907 0.0
H257 H 0.29234 0.27319 0.88907 0.0
C258 C 0.29522 0.24219 0.05768 0.0
C259 C 0.30727 0.25463 0.93692 0.0
C260 C 0.32183 0.25742 0.873 0.0
C261 C 0.28082 0.25173 0.0565 0.0
C262 C 0.2802 0.2635 0.99552 0.0
C263 C 0.29287 0.26417 0.93581 0.0
C264 C 0.26811 0.27689 0.99425 0.0
C265 C 0.26663 0.24934 0.1209 0.0
C266 C 0.2516 0.27275 0.94239 0.0
C267 C 0.24204 0.28699 0.93677 0.0
C268 C 0.24896 0.30579 0.98254 0.0
C269 C 0.26509 0.3095 0.03554 0.0
C270 C 0.2746 0.29526 0.04114 0.0
H271 H 0.26323 0.23409 0.15267 0.0
H272 H 0.27616 0.26472 0.1547 0.0
H273 H 0.24998 0.24789 0.10619 0.0
H274 H 0.24642 0.25874 0.90545 0.0
H275 H 0.2295 0.28349 0.89581 0.0
H276 H 0.12756 0.37353 0.11301 0.0
H277 H 0.08699 0.34509 0.10302 0.0
H278 H 0.10087 0.3176 0.91602 0.0
H279 H 0.14187 0.34605 0.92613 0.0
H280 H 0.06117 0.34357 0.98762 0.0
H281 H 0.05641 0.25954 0.02858 0.0
H282 H 0.0809 0.28639 0.05541 0.0
H283 H 0.077 0.27807 0.96426 0.0
C284 C 0.12212 0.36122 0.0703 0.0
C285 C 0.13795 0.36216 0.02003 0.0
C286 C 0.09889 0.34494 0.06476 0.0
C287 C 0.09088 0.32917 0.00895 0.0
C288 C 0.10671 0.32937 0.96017 0.0
H289 H 0.95052 0.26521 0.85739 0.0
H290 H 0.99222 0.28419 0.86633 0.0
C291 C 0.13012 0.34568 0.96587 0.0
C292 C 0.06577 0.31429 0.99861 0.0
H293 H 0.02205 0.25861 0.9937 0.0
C294 C 0.05264 0.32499 0.9889 0.0
C295 C 0.05466 0.29007 1.00079 0.0
C296 C 0.06787 0.27774 0.01338 0.0
C297 C 0.02874 0.3122 0.98135 0.0
C298 C 0.01762 0.28798 0.98235 0.0
C299 C 0.03067 0.27718 0.99239 0.0
C300 C 0.99237 0.27383 0.97416 0.0
C301 C 0.0155 0.32475 0.97375 0.0
C302 C 0.9786 0.26096 0.03103 0.0
C303 C 0.95464 0.24986 0.02596 0.0
C304 C 0.94404 0.25135 0.96373 0.0
C305 C 0.958 0.26343 0.90586 0.0
C306 C 0.98189 0.27449 0.91101 0.0
H307 H 0.02587 0.34303 0.98974 0.0
H308 H 0.01047 0.32422 0.91775 0.0
H309 H 0.99961 0.31647 1.00605 0.0
H310 H 0.98639 0.26018 0.08019 0.0
H311 H 0.94444 0.24045 0.07119 0.0
H312 H 0.80049 0.14152 0.9324 0.0
H313 H 0.79126 0.10136 0.92523 0.0
H314 H 0.74027 0.08316 0.08801 0.0
H315 H 0.74949 0.12295 0.09626 0.0
H316 H 0.76705 0.06204 0.10417 0.0
H317 H 0.73189 0.05151 0.83221 0.0
H318 H 0.76096 0.07417 0.8451 0.0
H319 H 0.73788 0.07587 0.88661 0.0
C320 C 0.78749 0.12899 0.96714 0.0
C321 C 0.7756 0.13544 0.01442 0.0
C322 C 0.78214 0.10603 0.96269 0.0
C323 C 0.76482 0.08921 1.00536 0.0
C324 C 0.75363 0.09582 0.05442 0.0
H325 H 0.67762 0.94637 0.06856 0.0
H326 H 0.70209 0.98784 0.07832 0.0
C327 C 0.75891 0.11863 0.05884 0.0
C328 C 0.75737 0.0645 0.99768 0.0
H329 H 0.72842 0.01875 0.88729 0.0
C330 C 0.75885 0.0526 0.05646 0.0
C331 C 0.74671 0.05221 0.93536 0.0
C332 C 0.74405 0.06396 0.87123 0.0
C333 C 0.74942 0.02869 0.05524 0.0
C334 C 0.73785 0.01628 0.99403 0.0
C335 C 0.73727 0.02828 0.93421 0.0
C336 C 0.72464 0.9908 0.99254 0.0
C337 C 0.75173 0.01691 0.11979 0.0
C338 C 0.72905 0.97858 0.94081 0.0
C339 C 0.71505 0.95476 0.93511 0.0
C340 C 0.69621 0.94269 0.98068 0.0
C341 C 0.69221 0.95497 0.03349 0.0
C342 C 0.70622 0.97875 0.03916 0.0
H343 H 0.76688 0.0288 0.15187 0.0
H344 H 0.73624 0.01095 0.15324 0.0
H345 H 0.75334 0.00179 0.10525 0.0
H346 H 0.74312 0.98754 0.90406 0.0
H347 H 0.71878 0.94585 0.89428 0.0
H348 H 0.7299 0.675 0.06505 0.0
H349 H 0.71306 0.69971 0.0737 0.0
H350 H 0.75836 0.74323 0.90993 0.0
H351 H 0.77551 0.71865 0.90122 0.0
H352 H 0.73232 0.7475 0.10017 0.0
H353 H 0.69381 0.72288 0.83214 0.0
H354 H 0.70535 0.70731 0.87754 0.0
H355 H 0.72432 0.73455 0.83765 0.0
C356 C 0.73665 0.69007 0.03178 0.0
C357 C 0.754 0.69473 0.98211 0.0
C358 C 0.7269 0.70412 0.03657 0.0
C359 C 0.73419 0.72309 0.99169 0.0
C360 C 0.75216 0.72841 0.9441 0.0
H361 H 0.66073 0.79973 0.93284 0.0
H362 H 0.69163 0.79038 0.92725 0.0
C363 C 0.76193 0.71434 0.93922 0.0
C364 C 0.72216 0.73652 0.99306 0.0
H365 H 0.68554 0.74739 0.89785 0.0
C366 C 0.72228 0.74769 0.0557 0.0
C367 C 0.70918 0.73687 0.93482 0.0
C368 C 0.70793 0.72466 0.86679 0.0
C369 C 0.7093 0.7587 0.06229 0.0
C370 C 0.69549 0.75813 1.00518 0.0
C371 C 0.69616 0.74784 0.94152 0.0
C372 C 0.67836 0.76579 0.01271 0.0
C373 C 0.71029 0.7706 0.1307 0.0
C374 C 0.66071 0.75513 0.06255 0.0
C375 C 0.64312 0.76037 0.06574 0.0
C376 C 0.64266 0.77633 0.01883 0.0
C377 C 0.66065 0.78746 0.96994 0.0
C378 C 0.67828 0.78211 0.9666 0.0
H379 H 0.72681 0.77629 0.15849 0.0
H380 H 0.70813 0.78572 0.12179 0.0
H381 H 0.69628 0.75843 0.16584 0.0
H382 H 0.66007 0.74211 0.09755 0.0
H383 H 0.62956 0.75143 0.10406 0.0
H384 H 0.04853 0.71899 0.88271 0.0
H385 H 0.00735 0.7031 0.89648 0.0
H386 H 0.01952 0.75964 0.03161 0.0
H387 H 0.06107 0.77552 0.01886 0.0
H388 H 0.98807 0.72054 0.08731 0.0
H389 H 0.96451 0.72099 0.8094 0.0
H390 H 0.98045 0.70632 0.81757 0.0
H391 H 0.99392 0.7364 0.83909 0.0
C392 C 0.04249 0.7283 0.91433 0.0
C393 C 0.05809 0.74866 0.94907 0.0
C394 C 0.01888 0.71924 0.92193 0.0
C395 C 0.01024 0.73046 0.96355 0.0
C396 C 0.02576 0.75079 0.99858 0.0
H397 H 0.85899 0.66204 0.95438 0.0
H398 H 0.89907 0.69313 0.94696 0.0
C399 C 0.04948 0.75981 0.99147 0.0
C400 C 0.98504 0.71989 0.97407 0.0
H401 H 0.93417 0.69308 0.88497 0.0
C402 C 0.97629 0.71494 0.04305 0.0
C403 C 0.96954 0.71309 0.91666 0.0
C404 C 0.97763 0.71974 0.84164 0.0
C405 C 0.95259 0.70193 0.05585 0.0
C406 C 0.93725 0.69304 0.99809 0.0
C407 C 0.94588 0.69947 0.92936 0.0
C408 C 0.91269 0.67532 0.00737 0.0
C409 C 0.94433 0.69757 0.13126 0.0
C410 C 0.90698 0.65495 0.0434 0.0
C411 C 0.88422 0.63735 0.04819 0.0
C412 C 0.86654 0.63946 0.01594 0.0
C413 C 0.87217 0.6599 0.98002 0.0
C414 C 0.89507 0.67767 0.97571 0.0
H415 H 0.95607 0.71205 0.16585 0.0
H416 H 0.92678 0.69505 0.13616 0.0
H417 H 0.94415 0.68195 0.15083 0.0
H418 H 0.92024 0.65232 0.06624 0.0
H419 H 0.88063 0.62181 0.0757 0.0
H420 H 0.25139 0.87387 0.1206 0.0
H421 H 0.26384 0.91461 0.1158 0.0
H422 H 0.21885 0.90264 0.9393 0.0
H423 H 0.20608 0.86154 0.94386 0.0
H424 H 0.28552 0.94106 0.99445 0.0
H425 H 0.20834 0.94641 0.06891 0.0
H426 H 0.21137 0.92189 0.09035 0.0
H427 H 0.20442 0.92581 1.00198 0.0
C428 C 0.24382 0.87975 0.08132 0.0
C429 C 0.22784 0.86442 0.03222 0.0
C430 C 0.25096 0.90308 0.07879 0.0
C431 C 0.24223 0.91165 0.02744 0.0
C432 C 0.22556 0.89633 0.98006 0.0
H433 H 0.2876 0.05306 0.90477 0.0
H434 H 0.26588 0.01125 0.91768 0.0
C435 C 0.21834 0.87286 0.9826 0.0
C436 C 0.25242 0.93681 0.01964 0.0
H437 H 0.2412 0.98091 0.03299 0.0
C438 C 0.27583 0.94977 1.00298 0.0
C439 C 0.23968 0.94808 0.03009 0.0
C440 C 0.21458 0.93494 0.04931 0.0
C441 C 0.28691 0.9737 0.99676 0.0
C442 C 0.27435 0.98509 0.00899 0.0
C443 C 0.25081 0.97213 0.02423 0.0
C444 C 0.28566 0.01047 1.00635 0.0
C445 C 0.31194 0.98657 0.97626 0.0
C446 C 0.30347 0.02391 0.05343 0.0
C447 C 0.31604 0.04774 0.04587 0.0
C448 C 0.31096 0.05865 0.99127 0.0
C449 C 0.29223 0.04519 0.94663 0.0
C450 C 0.27969 0.02131 0.9542 0.0
H451 H 0.31736 0.97512 0.95117 0.0
H452 H 0.31557 1.00078 0.93925 0.0
H453 H 0.32253 0.99406 0.02425 0.0
H454 H 0.30814 0.01588 0.09471 0.0
H455 H 0.33042 0.05745 0.08086 0.0
H456 H 0.17593 0.71223 0.95607 0.0
H457 H 0.1716 0.67383 0.95835 0.0
H458 H 0.23778 0.70132 0.05765 0.0
H459 H 0.24236 0.73961 0.05572 0.0
H460 H 0.20387 0.65941 0.89994 0.0
H461 H 0.19092 0.64828 0.18993 0.0
H462 H 0.18666 0.66885 0.14082 0.0
H463 H 0.21516 0.67484 0.1615 0.0
C464 C 0.18959 0.71013 0.9783 0.0
C465 C 0.20944 0.72904 1.00601 0.0
C466 C 0.18709 0.68819 0.97942 0.0
C467 C 0.20427 0.68478 0.00887 0.0
C468 C 0.22422 0.7036 0.03546 0.0
H469 H 0.22505 0.57117 0.10381 0.0
H470 H 0.22749 0.60847 0.08983 0.0
C471 C 0.22681 0.72551 0.03405 0.0
C472 C 0.20144 0.66154 0.01252 0.0
H473 H 0.19618 0.62056 0.12903 0.0
C474 C 0.20201 0.65077 0.94985 0.0
C475 C 0.1991 0.65046 0.07781 0.0
C476 C 0.19773 0.66105 0.14646 0.0
C477 C 0.20101 0.62941 0.95094 0.0
C478 C 0.19885 0.61837 0.01641 0.0
C479 C 0.19792 0.62906 0.07893 0.0
C480 C 0.1978 0.59586 0.02177 0.0
C481 C 0.20304 0.61925 0.88224 0.0
C482 C 0.18026 0.57636 0.98831 0.0
C483 C 0.1789 0.55504 0.99599 0.0
C484 C 0.19486 0.55278 0.0381 0.0
C485 C 0.21239 0.57234 0.07151 0.0
C486 C 0.21384 0.59366 0.0634 0.0
H487 H 0.21085 0.63246 0.84021 0.0
H488 H 0.21354 0.61085 0.88869 0.0
H489 H 0.18568 0.60611 0.86429 0.0
H490 H 0.16734 0.5775 0.95743 0.0
H491 H 0.16497 0.54021 0.97054 0.0
H492 H 0.46863 0.18289 0.9293 0.0
H493 H 0.50317 0.17937 0.9325 0.0
H494 H 0.535 0.2365 0.07622 0.0
H495 H 0.50069 0.24017 0.07364 0.0
H496 H 0.55073 0.21433 0.90034 0.0
H497 H 0.53833 0.18319 0.17712 0.0
H498 H 0.51545 0.18243 0.12525 0.0
H499 H 0.53697 0.20892 0.16364 0.0
C500 C 0.48299 0.19473 0.96151 0.0
C501 C 0.48183 0.21173 1.00153 0.0
C502 C 0.5027 0.19271 0.96316 0.0
C503 C 0.52147 0.20749 1.0053 0.0
C504 C 0.52054 0.22472 0.0442 0.0
H505 H 0.65222 0.2211 0.11853 0.0
H506 H 0.6182 0.22504 0.10451 0.0
C507 C 0.50092 0.22682 0.0424 0.0
C508 C 0.54206 0.20491 0.00915 0.0
H509 H 0.57358 0.1924 0.12285 0.0
C510 C 0.55572 0.20941 0.94877 0.0
C511 C 0.54847 0.19855 0.07252 0.0
C512 C 0.53398 0.1928 0.13829 0.0
C513 C 0.57603 0.2083 0.95059 0.0
C514 C 0.58251 0.20202 0.01413 0.0
C515 C 0.56866 0.1973 0.07426 0.0
C516 C 0.6036 0.20028 0.01987 0.0
C517 C 0.59067 0.21453 0.88506 0.0
C518 C 0.60668 0.18499 0.97713 0.0
C519 C 0.62615 0.18278 0.98488 0.0
C520 C 0.64277 0.19558 0.03622 0.0
C521 C 0.63964 0.21087 0.07893 0.0
C522 C 0.62025 0.21319 0.07081 0.0
H523 H 0.58686 0.22501 0.84813 0.0
H524 H 0.60921 0.22421 0.89844 0.0
H525 H 0.58711 0.1986 0.85714 0.0
H526 H 0.59379 0.17441 0.93875 0.0
H527 H 0.62789 0.17057 0.952 0.0
H528 H 0.46168 0.62331 0.96596 0.0
H529 H 0.42353 0.58961 0.95222 0.0
H530 H 0.39478 0.62153 0.08234 0.0
H531 H 0.43288 0.65535 0.09601 0.0
H532 H 0.39564 0.56105 0.05584 0.0
H533 H 0.35159 0.60024 0.91456 0.0
H534 H 0.38239 0.61453 0.92357 0.0
H535 H 0.36494 0.61462 0.99532 0.0
C536 C 0.44722 0.62318 0.99151 0.0
C537 C 0.45031 0.64201 0.03208 0.0
C538 C 0.42542 0.60395 0.98338 0.0
C539 C 0.40623 0.60315 0.01543 0.0
C540 C 0.40922 0.62197 0.05567 0.0
H541 H 0.26377 0.50073 0.07318 0.0
H542 H 0.30178 0.53499 0.07283 0.0
C543 C 0.43103 0.64128 0.06356 0.0
C544 C 0.38334 0.58215 0.00983 0.0
H545 H 0.32784 0.5625 0.95958 0.0
C546 C 0.38085 0.56132 0.03424 0.0
C547 C 0.36406 0.58254 0.98172 0.0
C548 C 0.36586 0.60413 0.95166 0.0
C549 C 0.35949 0.541 0.03302 0.0
C550 C 0.34017 0.54144 1.0056 0.0
C551 C 0.34268 0.56221 0.98063 0.0
C552 C 0.31706 0.52064 1.00413 0.0
C553 C 0.35767 0.51938 0.06301 0.0
C554 C 0.31293 0.50128 0.96477 0.0
C555 C 0.29119 0.48158 0.96496 0.0
C556 C 0.27314 0.48096 1.00419 0.0
C557 C 0.27727 0.50056 0.04252 0.0
C558 C 0.29899 0.5202 0.04233 0.0
H559 H 0.37259 0.5231 0.09695 0.0
H560 H 0.34173 0.5097 0.09449 0.0
H561 H 0.35712 0.50823 0.01908 0.0
H562 H 0.32652 0.5014 0.93381 0.0
H563 H 0.28857 0.46685 0.93451 0.0
H564 H 0.8425 0.4579 0.07976 0.0
H565 H 0.83859 0.42008 0.0647 0.0
H566 H 0.77019 0.39404 0.98318 0.0
H567 H 0.77384 0.43184 0.99882 0.0
H568 H 0.806 0.37914 0.1276 0.0
H569 H 0.80074 0.37302 0.83541 0.0
H570 H 0.81092 0.39981 0.88186 0.0
H571 H 0.7807 0.37974 0.87622 0.0
C572 C 0.82656 0.44413 0.05892 0.0
C573 C 0.80844 0.44792 0.04078 0.0
C574 C 0.82442 0.42255 0.04994 0.0
C575 C 0.80421 0.40431 0.02211 0.0
C576 C 0.78612 0.408 1.00345 0.0
H577 H 0.75959 0.25967 0.0636 0.0
H578 H 0.76342 0.29769 0.06667 0.0
C579 C 0.78823 0.42961 0.01247 0.0
C580 C 0.80181 0.38124 0.01579 0.0
H581 H 0.79348 0.33942 0.89768 0.0
C582 C 0.80329 0.37047 0.07733 0.0
C583 C 0.79855 0.37008 0.95004 0.0
C584 C 0.79782 0.38129 0.88194 0.0
C585 C 0.8013 0.34871 0.07508 0.0
C586 C 0.7974 0.33726 0.00961 0.0
C587 C 0.79627 0.34816 0.94786 0.0
C588 C 0.79453 0.31398 1.00451 0.0
C589 C 0.80372 0.33828 0.14271 0.0
C590 C 0.81039 0.31037 0.96671 0.0
C591 C 0.80823 0.28858 0.96458 0.0
C592 C 0.79007 0.27 0.99994 0.0
C593 C 0.77389 0.2736 0.03619 0.0
C594 C 0.77608 0.29536 0.03827 0.0
H595 H 0.81224 0.3514 0.18464 0.0
H596 H 0.78643 0.3254 0.16203 0.0
H597 H 0.81374 0.32947 0.13401 0.0
H598 H 0.8247 0.32452 0.94001 0.0
H599 H 0.82094 0.2864 0.936 0.0
H600 H 0.3762 0.83187 0.95948 0.0
H601 H 0.41025 0.82806 0.94245 0.0
H602 H 0.38411 0.77299 0.09414 0.0
H603 H 0.34988 0.77645 0.1107 0.0
H604 H 0.44198 0.83239 0.0508 0.0
H605 H 0.40149 0.74705 0.92118 0.0
H606 H 0.38776 0.76423 0.92565 0.0
H607 H 0.38779 0.74817 1.00129 0.0
C608 C 0.37755 0.81872 0.98841 0.0
C609 C 0.36033 0.80443 0.03634 0.0
C610 C 0.39705 0.81666 0.9789 0.0
C611 C 0.39956 0.80008 0.01644 0.0
C612 C 0.38234 0.78567 0.06389 0.0
H613 H 0.50245 0.7608 0.0688 0.0
H614 H 0.46811 0.76445 0.06916 0.0
C615 C 0.36291 0.78781 0.07377 0.0
C616 C 0.42066 0.79853 0.00855 0.0
H617 H 0.44004 0.76239 0.95942 0.0
C618 C 0.44164 0.81719 0.03025 0.0
C619 C 0.42008 0.77863 0.98193 0.0
C620 C 0.39812 0.75842 0.95556 0.0
C621 C 0.462 0.81623 0.02808 0.0
C622 C 0.46142 0.79623 1.00202 0.0
C623 C 0.44046 0.77769 0.9794 0.0
C624 C 0.48223 0.79393 0.99989 0.0
C625 C 0.4838 0.83631 0.05604 0.0
C626 C 0.50147 0.80908 0.95987 0.0
C627 C 0.52121 0.80711 0.95974 0.0
C628 C 0.52199 0.78981 0.99919 0.0
C629 C 0.50249 0.77436 0.03796 0.0
C630 C 0.48281 0.77639 0.03818 0.0
H631 H 0.48024 0.84763 0.08998 0.0
H632 H 0.49386 0.83038 0.08699 0.0
H633 H 0.49451 0.84669 0.01108 0.0
H634 H 0.50122 0.82243 0.92871 0.0
H635 H 0.53586 0.81919 0.92892 0.0
H636 H 0.74127 0.49924 0.05923 0.0
H637 H 0.70318 0.46515 0.05844 0.0
H638 H 0.67726 0.50138 0.93651 0.0
H639 H 0.71533 0.53577 0.9376 0.0
H640 H 0.64993 0.47829 0.05205 0.0
H641 H 0.66996 0.42092 0.89554 0.0
H642 H 0.68871 0.43384 0.96959 0.0
H643 H 0.68879 0.45161 0.89866 0.0
C644 C 0.72754 0.49998 0.0318 0.0
C645 C 0.73139 0.52026 0.99833 0.0
C646 C 0.70579 0.48039 0.03104 0.0
C647 C 0.68747 0.48062 0.99652 0.0
C648 C 0.69121 0.50081 0.96307 0.0
H649 H 0.55359 0.35939 0.92212 0.0
H650 H 0.59114 0.39397 0.90807 0.0
C651 C 0.71299 0.52043 0.9637 0.0
C652 C 0.6642 0.4601 0.99822 0.0
H653 H 0.6341 0.40316 0.95641 0.0
C654 C 0.64642 0.46189 0.0307 0.0
C655 C 0.65959 0.43881 0.96954 0.0
C656 C 0.6777 0.43615 0.93074 0.0
C657 C 0.62429 0.4428 0.03711 0.0
C658 C 0.61995 0.42127 0.01132 0.0
C659 C 0.63755 0.41962 0.97692 0.0
C660 C 0.59729 0.40023 0.02 0.0
C661 C 0.60572 0.44588 0.07103 0.0
C662 C 0.58847 0.39209 0.08758 0.0
C663 C 0.56699 0.37243 0.09581 0.0
C664 C 0.55393 0.36043 0.03653 0.0
C665 C 0.56303 0.36841 0.96885 0.0
C666 C 0.58454 0.38808 0.96071 0.0
H667 H 0.61004 0.46412 0.0703 0.0
H668 H 0.58902 0.43538 0.04396 0.0
H669 H 0.6037 0.44028 0.12689 0.0
H670 H 0.59822 0.40097 0.13408 0.0
H671 H 0.56044 0.36689 0.14865 0.0
H672 H 0.23161 0.42762 0.81681 0.0
H673 H 0.23494 0.42546 0.68851 0.0
H674 H 0.16858 0.41962 0.66192 0.0
H675 H 0.16529 0.42204 0.78994 0.0
H676 H 0.20657 0.39098 0.59377 0.0
H677 H 0.20923 0.47273 0.53018 0.0
H678 H 0.21335 0.46546 0.61852 0.0
H679 H 0.18494 0.45327 0.58232 0.0
C680 C 0.21777 0.42595 0.78353 0.0
C681 C 0.19828 0.42522 0.81329 0.0
C682 C 0.21968 0.42469 0.71027 0.0
C683 C 0.2022 0.4228 0.66541 0.0
C684 C 0.18252 0.4216 0.69527 0.0
H685 H 0.18092 0.41302 0.2106 0.0
H686 H 0.17766 0.41499 0.33897 0.0
C687 C 0.18059 0.42285 0.76847 0.0
C688 C 0.2044 0.42175 0.58754 0.0
H689 H 0.20588 0.44888 0.43349 0.0
C690 C 0.20654 0.40369 0.55873 0.0
C691 C 0.2043 0.43833 0.54177 0.0
C692 C 0.20305 0.45867 0.56962 0.0
C693 C 0.20813 0.4015 0.48545 0.0
C694 C 0.20802 0.41808 0.43967 0.0
C695 C 0.20591 0.43615 0.4685 0.0
C696 C 0.21014 0.41701 0.36173 0.0
C697 C 0.20933 0.38113 0.45766 0.0
C698 C 0.22965 0.4179 0.33163 0.0
C699 C 0.23151 0.41672 0.25837 0.0
C700 C 0.21396 0.41477 0.21372 0.0
C701 C 0.19465 0.41436 0.24373 0.0
C702 C 0.19279 0.41552 0.31704 0.0
H703 H 0.203 0.36703 0.497 0.0
H704 H 0.19914 0.37442 0.40854 0.0
H705 H 0.22745 0.38646 0.44542 0.0
H706 H 0.24351 0.41961 0.3648 0.0
H707 H 0.24668 0.41729 0.23672 0.0
H708 H 0.74264 0.16214 0.78459 0.0
H709 H 0.74872 0.16547 0.65668 0.0
H710 H 0.80844 0.23231 0.68426 0.0
H711 H 0.80261 0.22893 0.81232 0.0
H712 H 0.74953 0.19842 0.56602 0.0
H713 H 0.83267 0.19983 0.55854 0.0
H714 H 0.81448 0.19096 0.63562 0.0
H715 H 0.83238 0.22092 0.61579 0.0
C716 C 0.75714 0.17749 0.76338 0.0
C717 C 0.77216 0.19527 0.80838 0.0
C718 C 0.76058 0.17938 0.69029 0.0
C719 C 0.77919 0.19901 0.66082 0.0
C720 C 0.79422 0.21681 0.70578 0.0
H721 H 0.82708 0.24386 0.23241 0.0
H722 H 0.82115 0.24056 0.36037 0.0
C723 C 0.79079 0.21493 0.77892 0.0
C724 C 0.78242 0.2011 0.58295 0.0
H725 H 0.82002 0.20793 0.45123 0.0
C726 C 0.7649 0.20039 0.54087 0.0
C727 C 0.8025 0.20374 0.55015 0.0
C728 C 0.82152 0.20371 0.59217 0.0
C729 C 0.76706 0.20265 0.4671 0.0
C730 C 0.78713 0.20524 0.43427 0.0
C731 C 0.80465 0.20596 0.47637 0.0
C732 C 0.79033 0.20728 0.35636 0.0
C733 C 0.74807 0.20278 0.42519 0.0
C734 C 0.77506 0.18962 0.31141 0.0
C735 C 0.77839 0.1915 0.23823 0.0
C736 C 0.79717 0.21101 0.20869 0.0
C737 C 0.81246 0.22863 0.25368 0.0
C738 C 0.80911 0.22675 0.3268 0.0
H739 H 0.7371 0.20692 0.45883 0.0
H740 H 0.75511 0.2154 0.3814 0.0
H741 H 0.73702 0.18553 0.40211 0.0
H742 H 0.76072 0.17422 0.33296 0.0
H743 H 0.76637 0.17762 0.20485 0.0
H744 H 0.57568 0.80254 0.8129 0.0
H745 H 0.57765 0.80793 0.68455 0.0
H746 H 0.58568 0.74869 0.65822 0.0
H747 H 0.58346 0.74308 0.78624 0.0
H748 H 0.61253 0.81489 0.58934 0.0
H749 H 0.53173 0.73454 0.52766 0.0
H750 H 0.5389 0.74617 0.61574 0.0
H751 H 0.5517 0.73048 0.57975 0.0
C752 C 0.57781 0.79065 0.77965 0.0
C753 C 0.57919 0.77225 0.80945 0.0
C754 C 0.57896 0.79375 0.7064 0.0
C755 C 0.58139 0.77846 0.66164 0.0
C756 C 0.58328 0.76039 0.69153 0.0
H757 H 0.59097 0.76682 0.20692 0.0
H758 H 0.5893 0.76173 0.33534 0.0
C759 C 0.58214 0.75728 0.76472 0.0
C760 C 0.58222 0.78157 0.5838 0.0
H761 H 0.55514 0.75527 0.43045 0.0
C762 C 0.59992 0.80191 0.55459 0.0
C763 C 0.56579 0.76459 0.53848 0.0
C764 C 0.54582 0.74279 0.56685 0.0
C765 C 0.60191 0.80557 0.48127 0.0
C766 C 0.58547 0.78859 0.43592 0.0
C767 C 0.56776 0.76825 0.46517 0.0
C768 C 0.5863 0.79164 0.35803 0.0
C769 C 0.62191 0.82735 0.45295 0.0
C770 C 0.58475 0.80988 0.32795 0.0
C771 C 0.58575 0.81284 0.25471 0.0
C772 C 0.58818 0.79752 0.21007 0.0
C773 C 0.58924 0.77897 0.24006 0.0
C774 C 0.58826 0.77604 0.31338 0.0
H775 H 0.63606 0.83547 0.49201 0.0
H776 H 0.62872 0.82401 0.40378 0.0
H777 H 0.61612 0.83978 0.44066 0.0
H778 H 0.58267 0.82181 0.36114 0.0
H779 H 0.58467 0.82716 0.23305 0.0
H780 H 0.77314 0.57417 0.81367 0.0
H781 H 0.76983 0.57623 0.6853 0.0
H782 H 0.83615 0.58194 0.65889 0.0
H783 H 0.83942 0.57963 0.78691 0.0
H784 H 0.79836 0.61063 0.59004 0.0
H785 H 0.79529 0.52856 0.52819 0.0
H786 H 0.79117 0.53601 0.61632 0.0
H787 H 0.81959 0.54803 0.58021 0.0
C788 C 0.78697 0.57581 0.7804 0.0
C789 C 0.80645 0.57652 0.81019 0.0
C790 C 0.78508 0.57701 0.70712 0.0
C791 C 0.80255 0.57881 0.66233 0.0
C792 C 0.82222 0.58002 0.69222 0.0
H793 H 0.82364 0.58794 0.20722 0.0
H794 H 0.82704 0.58611 0.33563 0.0
C795 C 0.82413 0.57884 0.76541 0.0
C796 C 0.80035 0.57974 0.58446 0.0
H797 H 0.79874 0.55228 0.43102 0.0
C798 C 0.79833 0.59781 0.55527 0.0
C799 C 0.80036 0.56304 0.53908 0.0
C800 C 0.80151 0.54268 0.5674 0.0
C801 C 0.79676 0.59989 0.48195 0.0
C802 C 0.79677 0.58319 0.43655 0.0
C803 C 0.79878 0.5651 0.46576 0.0
C804 C 0.79457 0.58409 0.35865 0.0
C805 C 0.79565 0.62027 0.45368 0.0
C806 C 0.77501 0.58313 0.32875 0.0
C807 C 0.77307 0.58422 0.25554 0.0
C808 C 0.79059 0.58614 0.21071 0.0
C809 C 0.80994 0.58661 0.24051 0.0
C810 C 0.81188 0.58553 0.31382 0.0
H811 H 0.80205 0.63445 0.49275 0.0
H812 H 0.80585 0.62686 0.40449 0.0
H813 H 0.77756 0.615 0.44144 0.0
H814 H 0.76118 0.58146 0.36207 0.0
H815 H 0.75787 0.58361 0.23405 0.0
H816 H 0.16562 0.77403 0.24331 0.0
H817 H 0.17224 0.77707 0.37097 0.0
H818 H 0.24523 0.81578 0.33551 0.0
H819 H 0.23869 0.81256 0.20721 0.0
H820 H 0.20381 0.76322 0.45047 0.0
H821 H 0.22648 0.85459 0.4754 0.0
H822 H 0.20911 0.83664 0.40366 0.0
H823 H 0.23934 0.8469 0.40491 0.0
C824 C 0.18309 0.78318 0.26265 0.0
C825 C 0.20165 0.79305 0.21524 0.0
C826 C 0.18684 0.78487 0.33563 0.0
C827 C 0.2092 0.79673 0.36283 0.0
C828 C 0.22782 0.80664 0.31566 0.0
H829 H 0.26268 0.83499 0.7897 0.0
H830 H 0.25648 0.83164 0.66215 0.0
C831 C 0.22408 0.80475 0.24245 0.0
C832 C 0.21293 0.79859 0.44058 0.0
H833 H 0.22763 0.8359 0.57888 0.0
C834 C 0.20903 0.77909 0.4787 0.0
C835 C 0.2198 0.81931 0.47719 0.0
C836 C 0.22387 0.84062 0.43867 0.0
C837 C 0.21216 0.77984 0.55235 0.0
C838 C 0.21865 0.80051 0.58948 0.0
C839 C 0.22257 0.82001 0.55096 0.0
C840 C 0.22205 0.80247 0.6678 0.0
C841 C 0.20914 0.75862 0.58909 0.0
C842 C 0.20467 0.78749 0.71434 0.0
C843 C 0.20832 0.7892 0.78756 0.0
C844 C 0.22928 0.80623 0.81591 0.0
C845 C 0.24636 0.82164 0.76956 0.0
C846 C 0.24281 0.81975 0.69647 0.0
H847 H 0.21115 0.74699 0.55188 0.0
H848 H 0.22171 0.76307 0.63258 0.0
H849 H 0.1916 0.74904 0.61164 0.0
H850 H 0.18823 0.77445 0.69413 0.0
H851 H 0.19476 0.77721 0.82195 0.0
H852 H 0.42847 0.19929 0.81269 0.0
H853 H 0.42645 0.19387 0.68437 0.0
H854 H 0.41868 0.25326 0.65798 0.0
H855 H 0.42095 0.2589 0.78599 0.0
H856 H 0.39156 0.18695 0.58962 0.0
H857 H 0.47239 0.26714 0.52663 0.0
H858 H 0.46529 0.2556 0.61486 0.0
H859 H 0.45252 0.27131 0.57889 0.0
C860 C 0.4264 0.21122 0.77944 0.0
C861 C 0.42509 0.22965 0.80923 0.0
C862 C 0.42522 0.20809 0.70619 0.0
C863 C 0.42284 0.2234 0.66142 0.0
C864 C 0.42105 0.24154 0.6913 0.0
H865 H 0.41283 0.23476 0.20679 0.0
H866 H 0.41464 0.23993 0.33517 0.0
C867 C 0.42221 0.24466 0.76448 0.0
C868 C 0.42191 0.22024 0.58359 0.0
H869 H 0.44883 0.24636 0.42979 0.0
C870 C 0.40414 0.19988 0.55467 0.0
C871 C 0.43831 0.23715 0.53799 0.0
C872 C 0.45834 0.25895 0.56602 0.0
C873 C 0.40206 0.19616 0.48139 0.0
C874 C 0.41847 0.21307 0.43577 0.0
C875 C 0.43624 0.23342 0.46472 0.0
C876 C 0.41753 0.20996 0.35788 0.0
C877 C 0.38199 0.17437 0.45342 0.0
C878 C 0.41896 0.19165 0.3278 0.0
C879 C 0.41787 0.18865 0.25457 0.0
C880 C 0.41548 0.20399 0.20995 0.0
C881 C 0.41453 0.22259 0.23993 0.0
C882 C 0.41559 0.22557 0.31323 0.0
H883 H 0.36788 0.16632 0.49268 0.0
H884 H 0.37514 0.17769 0.4043 0.0
H885 H 0.38772 0.1619 0.44112 0.0
H886 H 0.42102 0.17971 0.36098 0.0
H887 H 0.41887 0.17428 0.23292 0.0
loop_
_geom_bond_atom_site_label_1
_geom_bond_atom_site_label_2
_geom_bond_distance
_geom_bond_site_symmetry_2
_ccdc_geom_bond_type
C0 Eu1 2.835 1_556 S
C0 C2 1.500 . S
C0 O20 1.257 . S
C0 O21 1.260 1_556 S
Eu1 C0 2.835 1_554 S
Eu1 O20 2.473 1_554 S
Eu1 O21 2.480 . S
Eu1 O22 2.430 . S
Eu1 O23 2.670 . S
Eu1 O24 2.394 . S
Eu1 O29 2.355 1_554 S
Eu1 O31 2.374 . S
C2 C0 1.500 . S
C2 C3 1.377 1_556 S
C2 C7 1.377 . S
C3 C2 1.377 1_554 S
C3 C4 1.395 . S
C3 H32 0.931 . S
C4 C3 1.395 . S
C4 C5 1.383 1_554 S
C4 H33 0.931 . S
C5 C4 1.383 1_556 S
C5 C6 1.394 . S
C6 C5 1.394 . S
C6 C7 1.378 . S
C6 H34 0.931 . S
C7 C2 1.377 . S
C7 C6 1.378 . S
C7 H35 0.931 . S
C8 O22 1.259 . S
C8 O23 1.270 . S
C9 O24 1.251 . S
C9 O25 1.252 . S
C10 Eu11 2.835 1_554 S
C10 C12 1.500 . S
C10 O26 1.257 . S
C10 O27 1.260 1_554 S
Eu11 C10 2.835 1_556 S
Eu11 O23 2.355 1_556 S
Eu11 O25 2.374 1_556 S
Eu11 O26 2.473 1_556 S
Eu11 O27 2.480 . S
Eu11 O28 2.430 . S
Eu11 O29 2.670 . S
Eu11 O30 2.394 . S
C12 C10 1.500 . S
C12 C13 1.377 1_554 S
C12 C17 1.377 . S
C13 C12 1.377 1_556 S
C13 C14 1.395 . S
C13 H36 0.931 . S
C14 C13 1.395 . S
C14 C15 1.383 1_556 S
C14 H37 0.931 . S
C15 C14 1.383 1_554 S
C15 C16 1.394 . S
C16 C15 1.394 . S
C16 C17 1.378 . S
C16 H38 0.931 . S
C17 C12 1.377 . S
C17 C16 1.378 . S
C17 H39 0.931 . S
C18 O28 1.259 . S
C18 O29 1.270 . S
C19 O30 1.251 . S
C19 O31 1.252 1_556 S
O20 C0 1.257 . S
O20 Eu1 2.473 1_556 S
O21 C0 1.260 1_554 S
O21 Eu1 2.480 . S
O22 Eu1 2.430 . S
O22 C8 1.259 . S
O23 Eu1 2.670 . S
O23 C8 1.270 . S
O23 Eu11 2.355 1_554 S
O24 Eu1 2.394 . S
O24 C9 1.251 . S
O25 C9 1.252 . S
O25 Eu11 2.374 1_554 S
O26 C10 1.257 . S
O26 Eu11 2.473 1_554 S
O27 C10 1.260 1_556 S
O27 Eu11 2.480 . S
O28 Eu11 2.430 . S
O28 C18 1.259 . S
O29 Eu1 2.355 1_556 S
O29 Eu11 2.670 . S
O29 C18 1.270 . S
O30 Eu11 2.394 . S
O30 C19 1.251 . S
O31 Eu1 2.374 . S
O31 C19 1.252 1_554 S
H32 C3 0.931 . S
H33 C4 0.931 . S
H34 C6 0.931 . S
H35 C7 0.931 . S
H36 C13 0.931 . S
H37 C14 0.931 . S
H38 C16 0.931 . S
H39 C17 0.931 . S
C40 Eu41 2.835 1_556 S
C40 C42 1.500 . S
C40 O60 1.257 . S
C40 O61 1.260 1_556 S
Eu41 C40 2.835 1_554 S
Eu41 O60 2.473 1_554 S
Eu41 O61 2.480 . S
Eu41 O62 2.430 . S
Eu41 O63 2.670 . S
Eu41 O64 2.394 . S
Eu41 O69 2.355 1_554 S
Eu41 O71 2.374 . S
C42 C40 1.500 . S
C42 C43 1.377 1_556 S
C42 C47 1.377 . S
C43 C42 1.377 1_554 S
C43 C44 1.395 . S
C43 H72 0.931 . S
C44 C43 1.395 . S
C44 C45 1.383 1_554 S
C44 H73 0.931 . S
C45 C44 1.383 1_556 S
C45 C46 1.394 . S
C46 C45 1.394 . S
C46 C47 1.378 . S
C46 H74 0.931 . S
C47 C42 1.377 . S
C47 C46 1.378 . S
C47 H75 0.931 . S
C48 O62 1.259 . S
C48 O63 1.270 . S
C49 O64 1.251 . S
C49 O65 1.252 . S
C50 Eu51 2.835 1_554 S
C50 C52 1.500 . S
C50 O66 1.257 . S
C50 O67 1.260 1_554 S
Eu51 C50 2.835 1_556 S
Eu51 O63 2.355 1_556 S
Eu51 O65 2.374 1_556 S
Eu51 O66 2.473 1_556 S
Eu51 O67 2.480 . S
Eu51 O68 2.430 . S
Eu51 O69 2.670 . S
Eu51 O70 2.394 . S
C52 C50 1.500 . S
C52 C53 1.377 1_554 S
C52 C57 1.377 . S
C53 C52 1.377 1_556 S
C53 C54 1.395 . S
C53 H76 0.931 . S
C54 C53 1.395 . S
C54 C55 1.383 1_556 S
C54 H77 0.931 . S
C55 C54 1.383 1_554 S
C55 C56 1.394 . S
C56 C55 1.394 . S
C56 C57 1.378 . S
C56 H78 0.931 . S
C57 C52 1.377 . S
C57 C56 1.378 . S
C57 H79 0.931 . S
C58 O68 1.259 . S
C58 O69 1.270 . S
C59 O70 1.251 . S
C59 O71 1.252 1_556 S
O60 C40 1.257 . S
O60 Eu41 2.473 1_556 S
O61 C40 1.260 1_554 S
O61 Eu41 2.480 . S
O62 Eu41 2.430 . S
O62 C48 1.259 . S
O63 Eu41 2.670 . S
O63 C48 1.270 . S
O63 Eu51 2.355 1_554 S
O64 Eu41 2.394 . S
O64 C49 1.251 . S
O65 C49 1.252 . S
O65 Eu51 2.374 1_554 S
O66 C50 1.257 . S
O66 Eu51 2.473 1_554 S
O67 C50 1.260 1_556 S
O67 Eu51 2.480 . S
O68 Eu51 2.430 . S
O68 C58 1.259 . S
O69 Eu41 2.355 1_556 S
O69 Eu51 2.670 . S
O69 C58 1.270 . S
O70 Eu51 2.394 . S
O70 C59 1.251 . S
O71 Eu41 2.374 . S
O71 C59 1.252 1_554 S
H72 C43 0.931 . S
H73 C44 0.931 . S
H74 C46 0.931 . S
H75 C47 0.931 . S
H76 C53 0.931 . S
H77 C54 0.931 . S
H78 C56 0.931 . S
H79 C57 0.931 . S
C80 Eu81 2.835 1_556 S
C80 C82 1.500 . S
C80 O100 1.257 . S
C80 O101 1.260 1_556 S
Eu81 C80 2.835 1_554 S
Eu81 O100 2.473 1_554 S
Eu81 O101 2.480 . S
Eu81 O102 2.430 . S
Eu81 O103 2.670 . S
Eu81 O104 2.394 . S
Eu81 O109 2.355 1_554 S
Eu81 O111 2.374 . S
C82 C80 1.500 . S
C82 C83 1.377 1_556 S
C82 C87 1.377 . S
C83 C82 1.377 1_554 S
C83 C84 1.395 . S
C83 H112 0.931 . S
C84 C83 1.395 . S
C84 C85 1.383 1_554 S
C84 H113 0.931 . S
C85 C84 1.383 1_556 S
C85 C86 1.394 . S
C86 C85 1.394 . S
C86 C87 1.378 . S
C86 H114 0.931 . S
C87 C82 1.377 . S
C87 C86 1.378 . S
C87 H115 0.931 . S
C88 O102 1.259 . S
C88 O103 1.270 . S
C89 O104 1.251 . S
C89 O105 1.252 . S
C90 Eu91 2.835 1_554 S
C90 C92 1.500 . S
C90 O106 1.257 . S
C90 O107 1.260 1_554 S
Eu91 C90 2.835 1_556 S
Eu91 O103 2.355 1_556 S
Eu91 O105 2.374 1_556 S
Eu91 O106 2.473 1_556 S
Eu91 O107 2.480 . S
Eu91 O108 2.430 . S
Eu91 O109 2.670 . S
Eu91 O110 2.394 . S
C92 C90 1.500 . S
C92 C93 1.377 1_554 S
C92 C97 1.377 . S
C93 C92 1.377 1_556 S
C93 C94 1.395 . S
C93 H116 0.931 . S
C94 C93 1.395 . S
C94 C95 1.383 1_556 S
C94 H117 0.931 . S
C95 C94 1.383 1_554 S
C95 C96 1.394 . S
C96 C95 1.394 . S
C96 C97 1.378 . S
C96 H118 0.931 . S
C97 C92 1.377 . S
C97 C96 1.378 . S
C97 H119 0.931 . S
C98 O108 1.259 . S
C98 O109 1.270 . S
C99 O110 1.251 . S
C99 O111 1.252 1_556 S
O100 C80 1.257 . S
O100 Eu81 2.473 1_556 S
O101 C80 1.260 1_554 S
O101 Eu81 2.480 . S
O102 Eu81 2.430 . S
O102 C88 1.259 . S
O103 Eu81 2.670 . S
O103 C88 1.270 . S
O103 Eu91 2.355 1_554 S
O104 Eu81 2.394 . S
O104 C89 1.251 . S
O105 C89 1.252 . S
O105 Eu91 2.374 1_554 S
O106 C90 1.257 . S
O106 Eu91 2.473 1_554 S
O107 C90 1.260 1_556 S
O107 Eu91 2.480 . S
O108 Eu91 2.430 . S
O108 C98 1.259 . S
O109 Eu81 2.355 1_556 S
O109 Eu91 2.670 . S
O109 C98 1.270 . S
O110 Eu91 2.394 . S
O110 C99 1.251 . S
O111 Eu81 2.374 . S
O111 C99 1.252 1_554 S
H112 C83 0.931 . S
H113 C84 0.931 . S
H114 C86 0.931 . S
H115 C87 0.931 . S
H116 C93 0.931 . S
H117 C94 0.931 . S
H118 C96 0.931 . S
H119 C97 0.931 . S
C120 Eu121 2.835 1_556 S
C120 C122 1.500 . S
C120 O140 1.257 . S
C120 O141 1.260 1_556 S
Eu121 C120 2.835 1_554 S
Eu121 O140 2.473 1_554 S
Eu121 O141 2.480 . S
Eu121 O142 2.430 . S
Eu121 O143 2.670 . S
Eu121 O144 2.394 . S
Eu121 O149 2.355 1_554 S
Eu121 O151 2.374 . S
C122 C120 1.500 . S
C122 C123 1.377 1_556 S
C122 C127 1.377 . S
C123 C122 1.377 1_554 S
C123 C124 1.395 . S
C123 H152 0.931 . S
C124 C123 1.395 . S
C124 C125 1.383 1_554 S
C124 H153 0.931 . S
C125 C124 1.383 1_556 S
C125 C126 1.394 . S
C126 C125 1.394 . S
C126 C127 1.378 . S
C126 H154 0.931 . S
C127 C122 1.377 . S
C127 C126 1.378 . S
C127 H155 0.931 . S
C128 O142 1.259 . S
C128 O143 1.270 . S
C129 O144 1.251 . S
C129 O145 1.252 . S
C130 Eu131 2.835 1_554 S
C130 C132 1.500 . S
C130 O146 1.257 . S
C130 O147 1.260 1_554 S
Eu131 C130 2.835 1_556 S
Eu131 O143 2.355 1_556 S
Eu131 O145 2.374 1_556 S
Eu131 O146 2.473 1_556 S
Eu131 O147 2.480 . S
Eu131 O148 2.430 . S
Eu131 O149 2.670 . S
Eu131 O150 2.394 . S
C132 C130 1.500 . S
C132 C133 1.377 1_554 S
C132 C137 1.377 . S
C133 C132 1.377 1_556 S
C133 C134 1.395 . S
C133 H156 0.931 . S
C134 C133 1.395 . S
C134 C135 1.383 1_556 S
C134 H157 0.931 . S
C135 C134 1.383 1_554 S
C135 C136 1.394 . S
C136 C135 1.394 . S
C136 C137 1.378 . S
C136 H158 0.931 . S
C137 C132 1.377 . S
C137 C136 1.378 . S
C137 H159 0.931 . S
C138 O148 1.259 . S
C138 O149 1.270 . S
C139 O150 1.251 . S
C139 O151 1.252 1_556 S
O140 C120 1.257 . S
O140 Eu121 2.473 1_556 S
O141 C120 1.260 1_554 S
O141 Eu121 2.480 . S
O142 Eu121 2.430 . S
O142 C128 1.259 . S
O143 Eu121 2.670 . S
O143 C128 1.270 . S
O143 Eu131 2.355 1_554 S
O144 Eu121 2.394 . S
O144 C129 1.251 . S
O145 C129 1.252 . S
O145 Eu131 2.374 1_554 S
O146 C130 1.257 . S
O146 Eu131 2.473 1_554 S
O147 C130 1.260 1_556 S
O147 Eu131 2.480 . S
O148 Eu131 2.430 . S
O148 C138 1.259 . S
O149 Eu121 2.355 1_556 S
O149 Eu131 2.670 . S
O149 C138 1.270 . S
O150 Eu131 2.394 . S
O150 C139 1.251 . S
O151 Eu121 2.374 . S
O151 C139 1.252 1_554 S
H152 C123 0.931 . S
H153 C124 0.931 . S
H154 C126 0.931 . S
H155 C127 0.931 . S
H156 C133 0.931 . S
H157 C134 0.931 . S
H158 C136 0.931 . S
H159 C137 0.931 . S
C160 Eu161 2.835 1_556 S
C160 C162 1.500 . S
C160 O180 1.257 . S
C160 O181 1.260 1_556 S
Eu161 C160 2.835 1_554 S
Eu161 O180 2.473 1_554 S
Eu161 O181 2.480 . S
Eu161 O182 2.430 . S
Eu161 O183 2.670 . S
Eu161 O184 2.394 . S
Eu161 O189 2.355 1_554 S
Eu161 O191 2.374 . S
C162 C160 1.500 . S
C162 C163 1.377 1_556 S
C162 C167 1.377 . S
C163 C162 1.377 1_554 S
C163 C164 1.395 . S
C163 H192 0.931 . S
C164 C163 1.395 . S
C164 C165 1.383 1_554 S
C164 H193 0.931 . S
C165 C164 1.383 1_556 S
C165 C166 1.394 . S
C166 C165 1.394 . S
C166 C167 1.378 . S
C166 H194 0.931 . S
C167 C162 1.377 . S
C167 C166 1.378 . S
C167 H195 0.931 . S
C168 O182 1.259 . S
C168 O183 1.270 . S
C169 O184 1.251 . S
C169 O185 1.252 . S
C170 Eu171 2.835 1_554 S
C170 C172 1.500 . S
C170 O186 1.257 . S
C170 O187 1.260 1_554 S
Eu171 C170 2.835 1_556 S
Eu171 O183 2.355 1_556 S
Eu171 O185 2.374 1_556 S
Eu171 O186 2.473 1_556 S
Eu171 O187 2.480 . S
Eu171 O188 2.430 . S
Eu171 O189 2.670 . S
Eu171 O190 2.394 . S
C172 C170 1.500 . S
C172 C173 1.377 1_554 S
C172 C177 1.377 . S
C173 C172 1.377 1_556 S
C173 C174 1.395 . S
C173 H196 0.931 . S
C174 C173 1.395 . S
C174 C175 1.383 1_556 S
C174 H197 0.931 . S
C175 C174 1.383 1_554 S
C175 C176 1.394 . S
C176 C175 1.394 . S
C176 C177 1.378 . S
C176 H198 0.931 . S
C177 C172 1.377 . S
C177 C176 1.378 . S
C177 H199 0.931 . S
C178 O188 1.259 . S
C178 O189 1.270 . S
C179 O190 1.251 . S
C179 O191 1.252 1_556 S
O180 C160 1.257 . S
O180 Eu161 2.473 1_556 S
O181 C160 1.260 1_554 S
O181 Eu161 2.480 . S
O182 Eu161 2.430 . S
O182 C168 1.259 . S
O183 Eu161 2.670 . S
O183 C168 1.270 . S
O183 Eu171 2.355 1_554 S
O184 Eu161 2.394 . S
O184 C169 1.251 . S
O185 C169 1.252 . S
O185 Eu171 2.374 1_554 S
O186 C170 1.257 . S
O186 Eu171 2.473 1_554 S
O187 C170 1.260 1_556 S
O187 Eu171 2.480 . S
O188 Eu171 2.430 . S
O188 C178 1.259 . S
O189 Eu161 2.355 1_556 S
O189 Eu171 2.670 . S
O189 C178 1.270 . S
O190 Eu171 2.394 . S
O190 C179 1.251 . S
O191 Eu161 2.374 . S
O191 C179 1.252 1_554 S
H192 C163 0.931 . S
H193 C164 0.931 . S
H194 C166 0.931 . S
H195 C167 0.931 . S
H196 C173 0.931 . S
H197 C174 0.931 . S
H198 C176 0.931 . S
H199 C177 0.931 . S
C200 Eu201 2.835 1_556 S
C200 C202 1.500 . S
C200 O220 1.257 . S
C200 O221 1.260 1_556 S
Eu201 C200 2.835 1_554 S
Eu201 O220 2.473 1_554 S
Eu201 O221 2.480 . S
Eu201 O222 2.430 . S
Eu201 O223 2.670 . S
Eu201 O224 2.394 . S
Eu201 O229 2.355 1_554 S
Eu201 O231 2.374 . S
C202 C200 1.500 . S
C202 C203 1.377 1_556 S
C202 C207 1.377 . S
C203 C202 1.377 1_554 S
C203 C204 1.395 . S
C203 H232 0.931 . S
C204 C203 1.395 . S
C204 C205 1.383 1_554 S
C204 H233 0.931 . S
C205 C204 1.383 1_556 S
C205 C206 1.394 . S
C206 C205 1.394 . S
C206 C207 1.378 . S
C206 H234 0.931 . S
C207 C202 1.377 . S
C207 C206 1.378 . S
C207 H235 0.931 . S
C208 O222 1.259 . S
C208 O223 1.270 . S
C209 O224 1.251 . S
C209 O225 1.252 . S
C210 Eu211 2.835 1_554 S
C210 C212 1.500 . S
C210 O226 1.257 . S
C210 O227 1.260 1_554 S
Eu211 C210 2.835 1_556 S
Eu211 O223 2.355 1_556 S
Eu211 O225 2.374 1_556 S
Eu211 O226 2.473 1_556 S
Eu211 O227 2.480 . S
Eu211 O228 2.430 . S
Eu211 O229 2.670 . S
Eu211 O230 2.394 . S
C212 C210 1.500 . S
C212 C213 1.377 1_554 S
C212 C217 1.377 . S
C213 C212 1.377 1_556 S
C213 C214 1.395 . S
C213 H236 0.931 . S
C214 C213 1.395 . S
C214 C215 1.383 1_556 S
C214 H237 0.931 . S
C215 C214 1.383 1_554 S
C215 C216 1.394 . S
C216 C215 1.394 . S
C216 C217 1.378 . S
C216 H238 0.931 . S
C217 C212 1.377 . S
C217 C216 1.378 . S
C217 H239 0.931 . S
C218 O228 1.259 . S
C218 O229 1.270 . S
C219 O230 1.251 . S
C219 O231 1.252 1_556 S
O220 C200 1.257 . S
O220 Eu201 2.473 1_556 S
O221 C200 1.260 1_554 S
O221 Eu201 2.480 . S
O222 Eu201 2.430 . S
O222 C208 1.259 . S
O223 Eu201 2.670 . S
O223 C208 1.270 . S
O223 Eu211 2.355 1_554 S
O224 Eu201 2.394 . S
O224 C209 1.251 . S
O225 C209 1.252 . S
O225 Eu211 2.374 1_554 S
O226 C210 1.257 . S
O226 Eu211 2.473 1_554 S
O227 C210 1.260 1_556 S
O227 Eu211 2.480 . S
O228 Eu211 2.430 . S
O228 C218 1.259 . S
O229 Eu201 2.355 1_556 S
O229 Eu211 2.670 . S
O229 C218 1.270 . S
O230 Eu211 2.394 . S
O230 C219 1.251 . S
O231 Eu201 2.374 . S
O231 C219 1.252 1_554 S
H232 C203 0.931 . S
H233 C204 0.931 . S
H234 C206 0.931 . S
H235 C207 0.931 . S
H236 C213 0.931 . S
H237 C214 0.931 . S
H238 C216 0.931 . S
H239 C217 0.931 . S
H240 C248 0.929 . S
H241 C250 0.930 . S
H242 C252 0.930 . S
H243 C255 0.929 . S
H244 C258 0.930 . S
H245 C260 0.960 . S
H246 C260 0.960 . S
H247 C260 0.960 . S
C248 H240 0.929 . S
C248 C249 1.375 1_556 S
C248 C250 1.384 . S
C249 C248 1.375 1_554 S
C249 C255 1.391 . S
C250 H241 0.930 . S
C250 C248 1.384 . S
C250 C251 1.372 . S
C251 C250 1.372 . S
C251 C252 1.400 1_556 S
C251 C256 1.490 . S
C252 H242 0.930 . S
C252 C251 1.400 1_554 S
C252 C255 1.386 . S
H253 C269 0.927 1_554 S
H254 C270 0.931 . S
C255 H243 0.929 . S
C255 C249 1.391 . S
C255 C252 1.386 . S
C256 C251 1.490 . S
C256 C258 1.395 1_556 S
C256 C259 1.403 . S
H257 C263 0.930 . S
C258 H244 0.930 . S
C258 C256 1.395 1_554 S
C258 C261 1.403 . S
C259 C256 1.403 . S
C259 C260 1.524 . S
C259 C263 1.400 . S
C260 H245 0.960 . S
C260 H246 0.960 . S
C260 H247 0.960 . S
C260 C259 1.524 . S
C261 C258 1.403 . S
C261 C262 1.392 1_554 S
C261 C265 1.495 . S
C262 C261 1.392 1_556 S
C262 C263 1.385 . S
C262 C264 1.478 . S
C263 H257 0.930 . S
C263 C259 1.400 . S
C263 C262 1.385 . S
C264 C262 1.478 . S
C264 C266 1.381 . S
C264 C270 1.383 1_556 S
C265 C261 1.495 . S
C265 H271 0.959 . S
C265 H272 0.961 . S
C265 H273 0.960 . S
C266 C264 1.381 . S
C266 C267 1.394 . S
C266 H274 0.930 . S
C267 C266 1.394 . S
C267 C268 1.383 . S
C267 H275 0.929 . S
C268 C267 1.383 . S
C268 C269 1.380 . S
C269 H253 0.927 1_556 S
C269 C268 1.380 . S
C269 C270 1.379 1_556 S
C270 H254 0.931 . S
C270 C264 1.383 1_554 S
C270 C269 1.379 1_554 S
H271 C265 0.959 . S
H272 C265 0.961 . S
H273 C265 0.960 . S
H274 C266 0.930 . S
H275 C267 0.929 . S
H276 C284 0.929 . S
H277 C286 0.930 . S
H278 C288 0.930 . S
H279 C291 0.929 . S
H280 C294 0.930 . S
H281 C296 0.960 . S
H282 C296 0.960 . S
H283 C296 0.960 . S
C284 H276 0.929 . S
C284 C285 1.377 . S
C284 C286 1.384 . S
C285 C284 1.377 . S
C285 C291 1.390 1_554 S
C286 H277 0.930 . S
C286 C284 1.384 . S
C286 C287 1.372 1_554 S
C287 C286 1.372 1_556 S
C287 C288 1.400 . S
C287 C292 1.490 . S
C288 H278 0.930 . S
C288 C287 1.400 . S
C288 C291 1.386 . S
H289 C305 0.930 . S
H290 C306 0.931 . S
C291 H279 0.929 . S
C291 C285 1.390 1_556 S
C291 C288 1.386 . S
C292 C287 1.490 . S
C292 C294 1.395 1_556 S
C292 C295 1.403 . S
H293 C299 0.930 . S
C294 H280 0.930 . S
C294 C292 1.395 1_554 S
C294 C297 1.403 . S
C295 C292 1.403 . S
C295 C296 1.524 . S
C295 C299 1.400 . S
C296 H281 0.960 . S
C296 H282 0.960 . S
C296 H283 0.960 . S
C296 C295 1.524 . S
C297 C294 1.403 . S
C297 C298 1.392 1_554 S
C297 C301 1.495 . S
C298 C297 1.392 1_556 S
C298 C299 1.385 . S
C298 C300 1.478 1_455 S
C299 H293 0.930 . S
C299 C295 1.400 . S
C299 C298 1.385 . S
C300 C298 1.478 1_655 S
C300 C302 1.381 1_556 S
C300 C306 1.383 . S
C301 C297 1.495 . S
C301 H307 0.959 . S
C301 H308 0.981 . S
C301 H309 0.960 . S
C302 C300 1.381 1_554 S
C302 C303 1.394 . S
C302 H310 0.930 . S
C303 C302 1.394 . S
C303 C304 1.383 1_554 S
C303 H311 0.929 . S
C304 C303 1.383 1_556 S
C304 C305 1.377 . S
C305 H289 0.930 . S
C305 C304 1.377 . S
C305 C306 1.379 . S
C306 H290 0.931 . S
C306 C300 1.383 . S
C306 C305 1.379 . S
H307 C301 0.959 . S
H308 C301 0.981 . S
H309 C301 0.960 . S
H310 C302 0.930 . S
H311 C303 0.929 . S
H312 C320 0.929 . S
H313 C322 0.930 . S
H314 C324 0.930 . S
H315 C327 0.929 . S
H316 C330 0.930 . S
H317 C332 0.960 . S
H318 C332 0.960 . S
H319 C332 0.960 . S
C320 H312 0.929 . S
C320 C321 1.375 1_556 S
C320 C322 1.384 . S
C321 C320 1.375 1_554 S
C321 C327 1.392 . S
C322 H313 0.930 . S
C322 C320 1.384 . S
C322 C323 1.372 . S
C323 C322 1.372 . S
C323 C324 1.400 1_556 S
C323 C328 1.490 . S
C324 H314 0.930 . S
C324 C323 1.400 1_554 S
C324 C327 1.386 . S
H325 C341 0.930 . S
H326 C342 0.931 . S
C327 H315 0.929 . S
C327 C321 1.392 . S
C327 C324 1.386 . S
C328 C323 1.490 . S
C328 C330 1.395 1_556 S
C328 C331 1.403 . S
H329 C335 0.930 . S
C330 H316 0.930 . S
C330 C328 1.395 1_554 S
C330 C333 1.403 . S
C331 C328 1.403 . S
C331 C332 1.524 . S
C331 C335 1.400 . S
C332 H317 0.960 . S
C332 H318 0.960 . S
C332 H319 0.960 . S
C332 C331 1.524 . S
C333 C330 1.403 . S
C333 C334 1.392 1_554 S
C333 C337 1.495 . S
C334 C333 1.392 1_556 S
C334 C335 1.385 . S
C334 C336 1.478 1_545 S
C335 H329 0.930 . S
C335 C331 1.400 . S
C335 C334 1.385 . S
C336 C334 1.478 1_565 S
C336 C338 1.381 . S
C336 C342 1.383 1_556 S
C337 C333 1.495 . S
C337 H343 0.959 . S
C337 H344 0.961 . S
C337 H345 0.960 . S
C338 C336 1.381 . S
C338 C339 1.394 . S
C338 H346 0.930 . S
C339 C338 1.394 . S
C339 C340 1.383 . S
C339 H347 0.929 . S
C340 C339 1.383 . S
C340 C341 1.377 1_556 S
C341 H325 0.930 . S
C341 C340 1.377 1_554 S
C341 C342 1.379 . S
C342 H326 0.931 . S
C342 C336 1.383 1_554 S
C342 C341 1.379 . S
H343 C337 0.959 . S
H344 C337 0.961 . S
H345 C337 0.960 . S
H346 C338 0.930 . S
H347 C339 0.929 . S
H348 C356 0.929 . S
H349 C358 0.930 . S
H350 C360 0.930 . S
H351 C363 0.929 . S
H352 C366 0.930 . S
H353 C368 0.960 . S
H354 C368 0.960 . S
H355 C368 0.960 . S
C356 H348 0.929 . S
C356 C357 1.377 1_554 S
C356 C358 1.384 . S
C357 C356 1.377 1_556 S
C357 C363 1.390 . S
C358 H349 0.930 . S
C358 C356 1.384 . S
C358 C359 1.372 1_554 S
C359 C358 1.372 1_556 S
C359 C360 1.400 . S
C359 C364 1.490 . S
C360 H350 0.930 . S
C360 C359 1.400 . S
C360 C363 1.386 . S
H361 C377 0.930 . S
H362 C378 0.931 . S
C363 H351 0.929 . S
C363 C357 1.390 . S
C363 C360 1.386 . S
C364 C359 1.490 . S
C364 C366 1.395 1_556 S
C364 C367 1.403 . S
H365 C371 0.930 . S
C366 H352 0.930 . S
C366 C364 1.395 1_554 S
C366 C369 1.403 . S
C367 C364 1.403 . S
C367 C368 1.524 . S
C367 C371 1.400 . S
C368 H353 0.960 . S
C368 H354 0.960 . S
C368 H355 0.960 . S
C368 C367 1.524 . S
C369 C366 1.403 . S
C369 C370 1.392 . S
C369 C373 1.495 . S
C370 C369 1.392 . S
C370 C371 1.385 1_554 S
C370 C372 1.478 . S
C371 H365 0.930 . S
C371 C367 1.400 . S
C371 C370 1.385 1_556 S
C372 C370 1.478 . S
C372 C374 1.381 . S
C372 C378 1.383 1_554 S
C373 C369 1.495 . S
C373 H379 0.959 . S
C373 H380 0.961 . S
C373 H381 0.960 . S
C374 C372 1.381 . S
C374 C375 1.394 . S
C374 H382 0.930 . S
C375 C374 1.394 . S
C375 C376 1.383 . S
C375 H383 0.929 . S
C376 C375 1.383 . S
C376 C377 1.377 1_554 S
C377 H361 0.930 . S
C377 C376 1.377 1_556 S
C377 C378 1.379 . S
C378 H362 0.931 . S
C378 C372 1.383 1_556 S
C378 C377 1.379 . S
H379 C373 0.959 . S
H380 C373 0.961 . S
H381 C373 0.960 . S
H382 C374 0.930 . S
H383 C375 0.929 . S
H384 C392 0.929 . S
H385 C394 0.930 . S
H386 C396 0.930 . S
H387 C399 0.929 . S
H388 C402 0.930 . S
H389 C404 0.960 . S
H390 C404 0.960 . S
H391 C404 0.960 . S
C392 H384 0.929 . S
C392 C393 1.377 . S
C392 C394 1.384 . S
C393 C392 1.377 . S
C393 C399 1.390 1_556 S
C394 H385 0.930 . S
C394 C392 1.384 . S
C394 C395 1.372 . S
C395 C394 1.372 . S
C395 C396 1.400 1_556 S
C395 C400 1.490 1_455 S
C396 H386 0.930 . S
C396 C395 1.400 1_554 S
C396 C399 1.386 . S
H397 C413 0.930 . S
H398 C414 0.931 . S
C399 H387 0.929 . S
C399 C393 1.390 1_554 S
C399 C396 1.386 . S
C400 C395 1.490 1_655 S
C400 C402 1.395 . S
C400 C403 1.403 . S
H401 C407 0.930 . S
C402 H388 0.930 . S
C402 C400 1.395 . S
C402 C405 1.403 . S
C403 C400 1.403 . S
C403 C404 1.524 . S
C403 C407 1.400 . S
C404 H389 0.960 . S
C404 H390 0.960 . S
C404 H391 0.960 . S
C404 C403 1.524 . S
C405 C402 1.403 . S
C405 C406 1.392 . S
C405 C409 1.495 1_556 S
C406 C405 1.392 . S
C406 C407 1.385 . S
C406 C408 1.478 . S
C407 H401 0.930 . S
C407 C403 1.400 . S
C407 C406 1.385 . S
C408 C406 1.478 . S
C408 C410 1.381 . S
C408 C414 1.383 1_556 S
C409 C405 1.495 1_554 S
C409 H415 0.959 . S
C409 H416 0.961 . S
C409 H417 0.960 1_554 S
C410 C408 1.381 . S
C410 C411 1.394 . S
C410 H418 0.930 . S
C411 C410 1.394 . S
C411 C412 1.383 1_556 S
C411 H419 0.929 . S
C412 C411 1.383 1_554 S
C412 C413 1.377 . S
C413 H397 0.930 . S
C413 C412 1.377 . S
C413 C414 1.379 . S
C414 H398 0.931 . S
C414 C408 1.383 1_554 S
C414 C413 1.379 . S
H415 C409 0.959 . S
H416 C409 0.961 . S
H417 C409 0.960 1_556 S
H418 C410 0.930 . S
H419 C411 0.929 . S
H420 C428 0.929 . S
H421 C430 0.930 . S
H422 C432 0.930 . S
H423 C435 0.929 . S
H424 C438 0.930 . S
H425 C440 0.960 . S
H426 C440 0.960 . S
H427 C440 0.960 . S
C428 H420 0.929 . S
C428 C429 1.377 . S
C428 C430 1.384 . S
C429 C428 1.377 . S
C429 C435 1.390 1_554 S
C430 H421 0.930 . S
C430 C428 1.384 . S
C430 C431 1.372 1_554 S
C431 C430 1.372 1_556 S
C431 C432 1.400 . S
C431 C436 1.490 . S
C432 H422 0.930 . S
C432 C431 1.400 . S
C432 C435 1.386 . S
H433 C449 0.930 . S
H434 C450 0.931 . S
C435 H423 0.929 . S
C435 C429 1.390 1_556 S
C435 C432 1.386 . S
C436 C431 1.490 . S
C436 C438 1.395 . S
C436 C439 1.403 1_556 S
H437 C443 0.931 . S
C438 H424 0.930 . S
C438 C436 1.395 . S
C438 C441 1.403 . S
C439 C436 1.403 1_554 S
C439 C440 1.524 . S
C439 C443 1.400 . S
C440 H425 0.960 . S
C440 H426 0.960 . S
C440 H427 0.960 . S
C440 C439 1.524 . S
C441 C438 1.403 . S
C441 C442 1.392 . S
C441 C445 1.495 . S
C442 C441 1.392 . S
C442 C443 1.385 1_556 S
C442 C444 1.478 1_565 S
C443 H437 0.931 . S
C443 C439 1.400 . S
C443 C442 1.385 1_554 S
C444 C442 1.478 1_545 S
C444 C446 1.381 1_556 S
C444 C450 1.383 . S
C445 C441 1.495 . S
C445 H451 0.959 . S
C445 H452 0.961 . S
C445 H453 0.964 . S
C446 C444 1.381 1_554 S
C446 C447 1.394 . S
C446 H454 0.930 . S
C447 C446 1.394 . S
C447 C448 1.383 1_554 S
C447 H455 0.929 . S
C448 C447 1.383 1_556 S
C448 C449 1.377 . S
C449 H433 0.930 . S
C449 C448 1.377 . S
C449 C450 1.379 . S
C450 H434 0.931 . S
C450 C444 1.383 . S
C450 C449 1.379 . S
H451 C445 0.959 . S
H452 C445 0.961 . S
H453 C445 0.964 . S
H454 C446 0.930 . S
H455 C447 0.929 . S
H456 C464 0.929 . S
H457 C466 0.930 . S
H458 C468 0.930 . S
H459 C471 0.929 . S
H460 C474 0.930 . S
H461 C476 0.960 . S
H462 C476 0.960 . S
H463 C476 0.960 . S
C464 H456 0.929 . S
C464 C465 1.377 . S
C464 C466 1.384 . S
C465 C464 1.377 . S
C465 C471 1.390 1_556 S
C466 H457 0.930 . S
C466 C464 1.384 . S
C466 C467 1.372 1_556 S
C467 C466 1.372 1_554 S
C467 C468 1.400 . S
C467 C472 1.490 . S
C468 H458 0.930 . S
C468 C467 1.400 . S
C468 C471 1.386 . S
H469 C485 0.930 . S
H470 C486 0.931 . S
C471 H459 0.929 . S
C471 C465 1.390 1_554 S
C471 C468 1.386 . S
C472 C467 1.490 . S
C472 C474 1.395 1_554 S
C472 C475 1.403 . S
H473 C479 0.930 . S
C474 H460 0.930 . S
C474 C472 1.395 1_556 S
C474 C477 1.403 . S
C475 C472 1.403 . S
C475 C476 1.524 . S
C475 C479 1.400 . S
C476 H461 0.960 . S
C476 H462 0.960 . S
C476 H463 0.960 . S
C476 C475 1.524 . S
C477 C474 1.403 . S
C477 C478 1.392 1_556 S
C477 C481 1.495 . S
C478 C477 1.392 1_554 S
C478 C479 1.385 . S
C478 C480 1.478 . S
C479 H473 0.930 . S
C479 C475 1.400 . S
C479 C478 1.385 . S
C480 C478 1.478 . S
C480 C482 1.381 1_554 S
C480 C486 1.383 . S
C481 C477 1.495 . S
C481 H487 0.959 . S
C481 H488 0.961 . S
C481 H489 0.960 . S
C482 C480 1.381 1_556 S
C482 C483 1.394 . S
C482 H490 0.930 . S
C483 C482 1.394 . S
C483 C484 1.383 1_556 S
C483 H491 0.929 . S
C484 C483 1.383 1_554 S
C484 C485 1.377 . S
C485 H469 0.930 . S
C485 C484 1.377 . S
C485 C486 1.379 . S
C486 H470 0.931 . S
C486 C480 1.383 . S
C486 C485 1.379 . S
H487 C481 0.959 . S
H488 C481 0.961 . S
H489 C481 0.960 . S
H490 C482 0.930 . S
H491 C483 0.929 . S
H492 C500 0.929 . S
H493 C502 0.930 . S
H494 C504 0.930 . S
H495 C507 0.929 . S
H496 C510 0.930 . S
H497 C512 0.960 . S
H498 C512 0.960 . S
H499 C512 0.960 . S
C500 H492 0.929 . S
C500 C501 1.377 . S
C500 C502 1.384 . S
C501 C500 1.377 . S
C501 C507 1.390 1_556 S
C502 H493 0.930 . S
C502 C500 1.384 . S
C502 C503 1.372 1_556 S
C503 C502 1.372 1_554 S
C503 C504 1.400 . S
C503 C508 1.490 . S
C504 H494 0.930 . S
C504 C503 1.400 . S
C504 C507 1.386 . S
H505 C521 0.930 . S
H506 C522 0.931 . S
C507 H495 0.929 . S
C507 C501 1.390 1_554 S
C507 C504 1.386 . S
C508 C503 1.490 . S
C508 C510 1.395 1_554 S
C508 C511 1.403 . S
H509 C515 0.930 . S
C510 H496 0.930 . S
C510 C508 1.395 1_556 S
C510 C513 1.403 . S
C511 C508 1.403 . S
C511 C512 1.524 . S
C511 C515 1.400 . S
C512 H497 0.960 . S
C512 H498 0.960 . S
C512 H499 0.960 . S
C512 C511 1.524 . S
C513 C510 1.403 . S
C513 C514 1.392 1_556 S
C513 C517 1.495 . S
C514 C513 1.392 1_554 S
C514 C515 1.385 . S
C514 C516 1.478 . S
C515 H509 0.930 . S
C515 C511 1.400 . S
C515 C514 1.385 . S
C516 C514 1.478 . S
C516 C518 1.381 1_554 S
C516 C522 1.383 . S
C517 C513 1.495 . S
C517 H523 0.959 . S
C517 H524 0.961 . S
C517 H525 0.960 . S
C518 C516 1.381 1_556 S
C518 C519 1.394 . S
C518 H526 0.930 . S
C519 C518 1.394 . S
C519 C520 1.383 1_556 S
C519 H527 0.929 . S
C520 C519 1.383 1_554 S
C520 C521 1.377 . S
C521 H505 0.930 . S
C521 C520 1.377 . S
C521 C522 1.379 . S
C522 H506 0.931 . S
C522 C516 1.383 . S
C522 C521 1.379 . S
H523 C517 0.959 . S
H524 C517 0.961 . S
H525 C517 0.960 . S
H526 C518 0.930 . S
H527 C519 0.929 . S
H528 C536 0.929 . S
H529 C538 0.930 . S
H530 C540 0.930 . S
H531 C543 0.929 . S
H532 C546 0.930 . S
H533 C548 0.960 . S
H534 C548 0.960 . S
H535 C548 0.960 . S
C536 H528 0.929 . S
C536 C537 1.377 1_556 S
C536 C538 1.384 . S
C537 C536 1.377 1_554 S
C537 C543 1.390 . S
C538 H529 0.930 . S
C538 C536 1.384 . S
C538 C539 1.372 1_556 S
C539 C538 1.372 1_554 S
C539 C540 1.400 . S
C539 C544 1.490 . S
C540 H530 0.930 . S
C540 C539 1.400 . S
C540 C543 1.386 . S
H541 C557 0.930 . S
H542 C558 0.931 . S
C543 H531 0.929 . S
C543 C537 1.390 . S
C543 C540 1.386 . S
C544 C539 1.490 . S
C544 C546 1.395 1_554 S
C544 C547 1.403 . S
H545 C551 0.930 . S
C546 H532 0.930 . S
C546 C544 1.395 1_556 S
C546 C549 1.403 . S
C547 C544 1.403 . S
C547 C548 1.524 . S
C547 C551 1.400 . S
C548 H533 0.960 . S
C548 H534 0.960 . S
C548 H535 0.960 . S
C548 C547 1.524 . S
C549 C546 1.403 . S
C549 C550 1.392 1_556 S
C549 C553 1.495 . S
C550 C549 1.392 1_554 S
C550 C551 1.385 . S
C550 C552 1.477 1_554 S
C551 H545 0.930 . S
C551 C547 1.400 . S
C551 C550 1.385 . S
C552 C550 1.477 1_556 S
C552 C554 1.394 . S
C552 C558 1.370 1_556 S
C553 C549 1.495 . S
C553 H559 0.959 . S
C553 H560 0.961 . S
C553 H561 0.960 . S
C554 C552 1.394 . S
C554 C555 1.394 . S
C554 H562 0.930 . S
C555 C554 1.394 . S
C555 C556 1.383 . S
C555 H563 0.929 . S
C556 C555 1.383 . S
C556 C557 1.377 1_556 S
C557 H541 0.930 . S
C557 C556 1.377 1_554 S
C557 C558 1.379 . S
C558 H542 0.931 . S
C558 C552 1.370 1_554 S
C558 C557 1.379 . S
H559 C553 0.959 . S
H560 C553 0.961 . S
H561 C553 0.960 . S
H562 C554 0.930 . S
H563 C555 0.929 . S
H564 C572 0.929 . S
H565 C574 0.930 . S
H566 C576 0.930 . S
H567 C579 0.929 . S
H568 C582 0.930 . S
H569 C584 0.960 . S
H570 C584 0.960 . S
H571 C584 0.960 . S
C572 H564 0.929 . S
C572 C573 1.377 . S
C572 C574 1.384 . S
C573 C572 1.377 . S
C573 C579 1.390 1_554 S
C574 H565 0.930 . S
C574 C572 1.384 . S
C574 C575 1.372 . S
C575 C574 1.372 . S
C575 C576 1.400 1_554 S
C575 C580 1.490 . S
C576 H566 0.930 . S
C576 C575 1.400 1_556 S
C576 C579 1.386 . S
H577 C593 0.930 . S
H578 C594 0.931 . S
C579 H567 0.929 . S
C579 C573 1.390 1_556 S
C579 C576 1.386 . S
C580 C575 1.490 . S
C580 C582 1.395 . S
C580 C583 1.403 1_554 S
H581 C587 0.930 . S
C582 H568 0.930 . S
C582 C580 1.395 . S
C582 C585 1.403 . S
C583 C580 1.403 1_556 S
C583 C584 1.524 . S
C583 C587 1.400 . S
C584 H569 0.960 . S
C584 H570 0.960 . S
C584 H571 0.960 . S
C584 C583 1.524 . S
C585 C582 1.403 . S
C585 C586 1.392 . S
C585 C589 1.495 . S
C586 C585 1.392 . S
C586 C587 1.385 1_554 S
C586 C588 1.478 . S
C587 H581 0.930 . S
C587 C583 1.400 . S
C587 C586 1.385 1_556 S
C588 C586 1.478 . S
C588 C590 1.381 . S
C588 C594 1.383 1_554 S
C589 C585 1.495 . S
C589 H595 0.959 . S
C589 H596 0.961 . S
C589 H597 0.960 . S
C590 C588 1.381 . S
C590 C591 1.394 . S
C590 H598 0.930 . S
C591 C590 1.394 . S
C591 C592 1.383 . S
C591 H599 0.929 . S
C592 C591 1.383 . S
C592 C593 1.377 1_554 S
C593 H577 0.930 . S
C593 C592 1.377 1_556 S
C593 C594 1.379 . S
C594 H578 0.931 . S
C594 C588 1.383 1_556 S
C594 C593 1.379 . S
H595 C589 0.959 . S
H596 C589 0.961 . S
H597 C589 0.960 . S
H598 C590 0.930 . S
H599 C591 0.929 . S
H600 C608 0.929 . S
H601 C610 0.930 . S
H602 C612 0.930 . S
H603 C615 0.929 . S
H604 C618 0.930 . S
H605 C620 0.960 . S
H606 C620 0.960 . S
H607 C620 0.960 . S
C608 H600 0.929 . S
C608 C609 1.377 . S
C608 C610 1.384 . S
C609 C608 1.377 . S
C609 C615 1.390 . S
C610 H601 0.930 . S
C610 C608 1.384 . S
C610 C611 1.372 . S
C611 C610 1.372 . S
C611 C612 1.400 . S
C611 C616 1.490 . S
C612 H602 0.930 . S
C612 C611 1.400 . S
C612 C615 1.386 . S
H613 C629 0.930 . S
H614 C630 0.931 . S
C615 H603 0.929 . S
C615 C609 1.390 . S
C615 C612 1.386 . S
C616 C611 1.490 . S
C616 C618 1.395 . S
C616 C619 1.403 1_554 S
H617 C623 0.930 . S
C618 H604 0.930 . S
C618 C616 1.395 . S
C618 C621 1.403 . S
C619 C616 1.403 1_556 S
C619 C620 1.524 . S
C619 C623 1.400 . S
C620 H605 0.960 . S
C620 H606 0.960 . S
C620 H607 0.960 . S
C620 C619 1.524 . S
C621 C618 1.403 . S
C621 C622 1.392 . S
C621 C625 1.495 . S
C622 C621 1.392 . S
C622 C623 1.385 1_554 S
C622 C624 1.478 . S
C623 H617 0.930 . S
C623 C619 1.400 . S
C623 C622 1.385 1_556 S
C624 C622 1.478 . S
C624 C626 1.381 . S
C624 C630 1.383 . S
C625 C621 1.495 . S
C625 H631 0.959 . S
C625 H632 0.961 . S
C625 H633 0.960 . S
C626 C624 1.381 . S
C626 C627 1.394 1_554 S
C626 H634 0.930 1_554 S
C627 C626 1.394 1_556 S
C627 C628 1.383 1_556 S
C627 H635 0.929 . S
C628 C627 1.383 1_554 S
C628 C629 1.377 . S
C629 H613 0.930 . S
C629 C628 1.377 . S
C629 C630 1.379 . S
C630 H614 0.931 . S
C630 C624 1.383 . S
C630 C629 1.379 . S
H631 C625 0.959 . S
H632 C625 0.961 . S
H633 C625 0.960 . S
H634 C626 0.930 1_556 S
H635 C627 0.929 . S
H636 C644 0.929 . S
H637 C646 0.930 . S
H638 C648 0.930 . S
H639 C651 0.929 . S
H640 C654 0.930 . S
H641 C656 0.960 . S
H642 C656 0.960 . S
H643 C656 0.960 . S
C644 H636 0.929 . S
C644 C645 1.378 . S
C644 C646 1.384 . S
C645 C644 1.378 . S
C645 C651 1.389 1_554 S
C646 H637 0.930 . S
C646 C644 1.384 . S
C646 C647 1.372 . S
C647 C646 1.372 . S
C647 C648 1.400 1_554 S
C647 C652 1.490 . S
C648 H638 0.930 . S
C648 C647 1.400 1_556 S
C648 C651 1.386 . S
H649 C665 0.930 . S
H650 C666 0.931 . S
C651 H639 0.929 . S
C651 C645 1.389 1_556 S
C651 C648 1.386 . S
C652 C647 1.490 . S
C652 C654 1.395 . S
C652 C655 1.403 1_554 S
H653 C659 0.930 . S
C654 H640 0.930 . S
C654 C652 1.395 . S
C654 C657 1.403 . S
C655 C652 1.403 1_556 S
C655 C656 1.524 . S
C655 C659 1.400 . S
C656 H641 0.960 . S
C656 H642 0.960 . S
C656 H643 0.960 . S
C656 C655 1.524 . S
C657 C654 1.403 . S
C657 C658 1.392 . S
C657 C661 1.495 . S
C658 C657 1.392 . S
C658 C659 1.385 1_554 S
C658 C660 1.478 . S
C659 H653 0.930 . S
C659 C655 1.400 . S
C659 C658 1.385 1_556 S
C660 C658 1.478 . S
C660 C662 1.381 . S
C660 C666 1.383 1_554 S
C661 C657 1.495 . S
C661 H667 0.959 . S
C661 H668 0.961 . S
C661 H669 0.960 . S
C662 C660 1.381 . S
C662 C663 1.394 . S
C662 H670 0.930 . S
C663 C662 1.394 . S
C663 C664 1.383 . S
C663 H671 0.929 . S
C664 C663 1.383 . S
C664 C665 1.377 1_554 S
C665 H649 0.930 . S
C665 C664 1.377 1_556 S
C665 C666 1.379 . S
C666 H650 0.931 . S
C666 C660 1.383 1_556 S
C666 C665 1.379 . S
H667 C661 0.959 . S
H668 C661 0.961 . S
H669 C661 0.960 . S
H670 C662 0.930 . S
H671 C663 0.929 . S
H672 C680 0.929 . S
H673 C682 0.930 . S
H674 C684 0.930 . S
H675 C687 0.929 . S
H676 C690 0.930 . S
H677 C692 0.960 . S
H678 C692 0.960 . S
H679 C692 0.960 . S
C680 H672 0.929 . S
C680 C681 1.377 . S
C680 C682 1.384 . S
C681 C680 1.377 . S
C681 C687 1.390 . S
C682 H673 0.930 . S
C682 C680 1.384 . S
C682 C683 1.372 . S
C683 C682 1.372 . S
C683 C684 1.400 . S
C683 C688 1.490 . S
C684 H674 0.930 . S
C684 C683 1.400 . S
C684 C687 1.386 . S
H685 C701 0.930 . S
H686 C702 0.931 . S
C687 H675 0.929 . S
C687 C681 1.390 . S
C687 C684 1.386 . S
C688 C683 1.490 . S
C688 C690 1.395 . S
C688 C691 1.403 . S
H689 C695 0.930 . S
C690 H676 0.930 . S
C690 C688 1.395 . S
C690 C693 1.403 . S
C691 C688 1.403 . S
C691 C692 1.524 . S
C691 C695 1.400 . S
C692 H677 0.960 . S
C692 H678 0.960 . S
C692 H679 0.960 . S
C692 C691 1.524 . S
C693 C690 1.403 . S
C693 C694 1.392 . S
C693 C697 1.495 . S
C694 C693 1.392 . S
C694 C695 1.385 . S
C694 C696 1.478 . S
C695 H689 0.930 . S
C695 C691 1.400 . S
C695 C694 1.385 . S
C696 C694 1.478 . S
C696 C698 1.381 . S
C696 C702 1.383 . S
C697 C693 1.495 . S
C697 H703 0.959 . S
C697 H704 0.961 . S
C697 H705 0.960 . S
C698 C696 1.381 . S
C698 C699 1.394 . S
C698 H706 0.930 . S
C699 C698 1.394 . S
C699 C700 1.383 . S
C699 H707 0.929 . S
C700 C699 1.383 . S
C700 C701 1.377 . S
C701 H685 0.930 . S
C701 C700 1.377 . S
C701 C702 1.379 . S
C702 H686 0.931 . S
C702 C696 1.383 . S
C702 C701 1.379 . S
H703 C697 0.959 . S
H704 C697 0.961 . S
H705 C697 0.960 . S
H706 C698 0.930 . S
H707 C699 0.929 . S
H708 C716 0.929 . S
H709 C718 0.930 . S
H710 C720 0.930 . S
H711 C723 0.929 . S
H712 C726 0.930 . S
H713 C728 0.960 . S
H714 C728 0.960 . S
H715 C728 0.960 . S
C716 H708 0.929 . S
C716 C717 1.377 . S
C716 C718 1.384 . S
C717 C716 1.377 . S
C717 C723 1.390 . S
C718 H709 0.930 . S
C718 C716 1.384 . S
C718 C719 1.372 . S
C719 C718 1.372 . S
C719 C720 1.400 . S
C719 C724 1.490 . S
C720 H710 0.930 . S
C720 C719 1.400 . S
C720 C723 1.386 . S
H721 C737 0.930 . S
H722 C738 0.931 . S
C723 H711 0.929 . S
C723 C717 1.390 . S
C723 C720 1.386 . S
C724 C719 1.490 . S
C724 C726 1.395 . S
C724 C727 1.403 . S
H725 C731 0.930 . S
C726 H712 0.930 . S
C726 C724 1.395 . S
C726 C729 1.403 . S
C727 C724 1.403 . S
C727 C728 1.524 . S
C727 C731 1.400 . S
C728 H713 0.960 . S
C728 H714 0.960 . S
C728 H715 0.960 . S
C728 C727 1.524 . S
C729 C726 1.403 . S
C729 C730 1.392 . S
C729 C733 1.495 . S
C730 C729 1.392 . S
C730 C731 1.385 . S
C730 C732 1.478 . S
C731 H725 0.930 . S
C731 C727 1.400 . S
C731 C730 1.385 . S
C732 C730 1.478 . S
C732 C734 1.381 . S
C732 C738 1.383 . S
C733 C729 1.495 . S
C733 H739 0.959 . S
C733 H740 0.961 . S
C733 H741 0.960 . S
C734 C732 1.381 . S
C734 C735 1.394 . S
C734 H742 0.930 . S
C735 C734 1.394 . S
C735 C736 1.383 . S
C735 H743 0.929 . S
C736 C735 1.383 . S
C736 C737 1.377 . S
C737 H721 0.930 . S
C737 C736 1.377 . S
C737 C738 1.379 . S
C738 H722 0.931 . S
C738 C732 1.383 . S
C738 C737 1.379 . S
H739 C733 0.959 . S
H740 C733 0.961 . S
H741 C733 0.960 . S
H742 C734 0.930 . S
H743 C735 0.929 . S
H744 C752 0.929 . S
H745 C754 0.930 . S
H746 C756 0.930 . S
H747 C759 0.929 . S
H748 C762 0.930 . S
H749 C764 0.960 . S
H750 C764 0.960 . S
H751 C764 0.960 . S
C752 H744 0.929 . S
C752 C753 1.377 . S
C752 C754 1.384 . S
C753 C752 1.377 . S
C753 C759 1.390 . S
C754 H745 0.930 . S
C754 C752 1.384 . S
C754 C755 1.372 . S
C755 C754 1.372 . S
C755 C756 1.400 . S
C755 C760 1.490 . S
C756 H746 0.930 . S
C756 C755 1.400 . S
C756 C759 1.386 . S
H757 C773 0.930 . S
H758 C774 0.931 . S
C759 H747 0.929 . S
C759 C753 1.390 . S
C759 C756 1.386 . S
C760 C755 1.490 . S
C760 C762 1.395 . S
C760 C763 1.403 . S
H761 C767 0.930 . S
C762 H748 0.930 . S
C762 C760 1.395 . S
C762 C765 1.403 . S
C763 C760 1.403 . S
C763 C764 1.524 . S
C763 C767 1.400 . S
C764 H749 0.960 . S
C764 H750 0.960 . S
C764 H751 0.960 . S
C764 C763 1.524 . S
C765 C762 1.403 . S
C765 C766 1.392 . S
C765 C769 1.495 . S
C766 C765 1.392 . S
C766 C767 1.385 . S
C766 C768 1.478 . S
C767 H761 0.930 . S
C767 C763 1.400 . S
C767 C766 1.385 . S
C768 C766 1.478 . S
C768 C770 1.381 . S
C768 C774 1.383 . S
C769 C765 1.495 . S
C769 H775 0.959 . S
C769 H776 0.961 . S
C769 H777 0.960 . S
C770 C768 1.381 . S
C770 C771 1.394 . S
C770 H778 0.930 . S
C771 C770 1.394 . S
C771 C772 1.383 . S
C771 H779 0.929 . S
C772 C771 1.383 . S
C772 C773 1.377 . S
C773 H757 0.930 . S
C773 C772 1.377 . S
C773 C774 1.379 . S
C774 H758 0.931 . S
C774 C768 1.383 . S
C774 C773 1.379 . S
H775 C769 0.959 . S
H776 C769 0.961 . S
H777 C769 0.960 . S
H778 C770 0.930 . S
H779 C771 0.929 . S
H780 C788 0.929 . S
H781 C790 0.930 . S
H782 C792 0.930 . S
H783 C795 0.929 . S
H784 C798 0.930 . S
H785 C800 0.960 . S
H786 C800 0.960 . S
H787 C800 0.960 . S
C788 H780 0.929 . S
C788 C789 1.377 . S
C788 C790 1.384 . S
C789 C788 1.377 . S
C789 C795 1.390 . S
C790 H781 0.930 . S
C790 C788 1.384 . S
C790 C791 1.372 . S
C791 C790 1.372 . S
C791 C792 1.400 . S
C791 C796 1.490 . S
C792 H782 0.930 . S
C792 C791 1.400 . S
C792 C795 1.386 . S
H793 C809 0.930 . S
H794 C810 0.931 . S
C795 H783 0.929 . S
C795 C789 1.390 . S
C795 C792 1.386 . S
C796 C791 1.490 . S
C796 C798 1.395 . S
C796 C799 1.403 . S
H797 C803 0.930 . S
C798 H784 0.930 . S
C798 C796 1.395 . S
C798 C801 1.403 . S
C799 C796 1.403 . S
C799 C800 1.524 . S
C799 C803 1.400 . S
C800 H785 0.960 . S
C800 H786 0.960 . S
C800 H787 0.960 . S
C800 C799 1.524 . S
C801 C798 1.403 . S
C801 C802 1.392 . S
C801 C805 1.495 . S
C802 C801 1.392 . S
C802 C803 1.385 . S
C802 C804 1.478 . S
C803 H797 0.930 . S
C803 C799 1.400 . S
C803 C802 1.385 . S
C804 C802 1.478 . S
C804 C806 1.381 . S
C804 C810 1.383 . S
C805 C801 1.495 . S
C805 H811 0.959 . S
C805 H812 0.961 . S
C805 H813 0.960 . S
C806 C804 1.381 . S
C806 C807 1.394 . S
C806 H814 0.930 . S
C807 C806 1.394 . S
C807 C808 1.383 . S
C807 H815 0.929 . S
C808 C807 1.383 . S
C808 C809 1.377 . S
C809 H793 0.930 . S
C809 C808 1.377 . S
C809 C810 1.379 . S
C810 H794 0.931 . S
C810 C804 1.383 . S
C810 C809 1.379 . S
H811 C805 0.959 . S
H812 C805 0.961 . S
H813 C805 0.960 . S
H814 C806 0.930 . S
H815 C807 0.929 . S
H816 C824 0.929 . S
H817 C826 0.930 . S
H818 C828 0.930 . S
H819 C831 0.929 . S
H820 C834 0.930 . S
H821 C836 0.960 . S
H822 C836 0.960 . S
H823 C836 0.960 . S
C824 H816 0.929 . S
C824 C825 1.377 . S
C824 C826 1.384 . S
C825 C824 1.377 . S
C825 C831 1.390 . S
C826 H817 0.930 . S
C826 C824 1.384 . S
C826 C827 1.372 . S
C827 C826 1.372 . S
C827 C828 1.400 . S
C827 C832 1.490 . S
C828 H818 0.930 . S
C828 C827 1.400 . S
C828 C831 1.386 . S
H829 C845 0.930 . S
H830 C846 0.931 . S
C831 H819 0.929 . S
C831 C825 1.390 . S
C831 C828 1.386 . S
C832 C827 1.490 . S
C832 C834 1.395 . S
C832 C835 1.403 . S
H833 C839 0.930 . S
C834 H820 0.930 . S
C834 C832 1.395 . S
C834 C837 1.403 . S
C835 C832 1.403 . S
C835 C836 1.524 . S
C835 C839 1.400 . S
C836 H821 0.960 . S
C836 H822 0.960 . S
C836 H823 0.960 . S
C836 C835 1.524 . S
C837 C834 1.403 . S
C837 C838 1.392 . S
C837 C841 1.495 . S
C838 C837 1.392 . S
C838 C839 1.385 . S
C838 C840 1.478 . S
C839 H833 0.930 . S
C839 C835 1.400 . S
C839 C838 1.385 . S
C840 C838 1.478 . S
C840 C842 1.381 . S
C840 C846 1.383 . S
C841 C837 1.495 . S
C841 H847 0.959 . S
C841 H848 0.961 . S
C841 H849 0.960 . S
C842 C840 1.381 . S
C842 C843 1.394 . S
C842 H850 0.930 . S
C843 C842 1.394 . S
C843 C844 1.383 . S
C843 H851 0.929 . S
C844 C843 1.383 . S
C844 C845 1.377 . S
C845 H829 0.930 . S
C845 C844 1.377 . S
C845 C846 1.379 . S
C846 H830 0.931 . S
C846 C840 1.383 . S
C846 C845 1.379 . S
H847 C841 0.959 . S
H848 C841 0.961 . S
H849 C841 0.960 . S
H850 C842 0.930 . S
H851 C843 0.929 . S
H852 C860 0.929 . S
H853 C862 0.930 . S
H854 C864 0.930 . S
H855 C867 0.929 . S
H856 C870 0.930 . S
H857 C872 0.960 . S
H858 C872 0.960 . S
H859 C872 0.960 . S
C860 H852 0.929 . S
C860 C861 1.377 . S
C860 C862 1.384 . S
C861 C860 1.377 . S
C861 C867 1.390 . S
C862 H853 0.930 . S
C862 C860 1.384 . S
C862 C863 1.372 . S
C863 C862 1.372 . S
C863 C864 1.400 . S
C863 C868 1.490 . S
C864 H854 0.930 . S
C864 C863 1.400 . S
C864 C867 1.386 . S
H865 C881 0.930 . S
H866 C882 0.931 . S
C867 H855 0.929 . S
C867 C861 1.390 . S
C867 C864 1.386 . S
C868 C863 1.490 . S
C868 C870 1.395 . S
C868 C871 1.403 . S
H869 C875 0.930 . S
C870 H856 0.930 . S
C870 C868 1.395 . S
C870 C873 1.403 . S
C871 C868 1.403 . S
C871 C872 1.524 . S
C871 C875 1.400 . S
C872 H857 0.960 . S
C872 H858 0.960 . S
C872 H859 0.960 . S
C872 C871 1.524 . S
C873 C870 1.403 . S
C873 C874 1.392 . S
C873 C877 1.495 . S
C874 C873 1.392 . S
C874 C875 1.385 . S
C874 C876 1.478 . S
C875 H869 0.930 . S
C875 C871 1.400 . S
C875 C874 1.385 . S
C876 C874 1.478 . S
C876 C878 1.381 . S
C876 C882 1.383 . S
C877 C873 1.495 . S
C877 H883 0.959 . S
C877 H884 0.961 . S
C877 H885 0.960 . S
C878 C876 1.381 . S
C878 C879 1.394 . S
C878 H886 0.930 . S
C879 C878 1.394 . S
C879 C880 1.383 . S
C879 H887 0.929 . S
C880 C879 1.383 . S
C880 C881 1.377 . S
C881 H865 0.930 . S
C881 C880 1.377 . S
C881 C882 1.379 . S
C882 H866 0.931 . S
C882 C876 1.383 . S
C882 C881 1.379 . S
H883 C877 0.959 . S
H884 C877 0.961 . S
H885 C877 0.960 . S
H886 C878 0.930 . S
H887 C879 0.929 . S
C249 C209 1.597 . S
C268 C5 1.509 . S
C285 C9 1.596 . S
C304 C45 1.455 . S
C321 C49 1.596 . S
C340 C85 1.516 . S
C357 C125 1.487 . S
C376 C89 1.590 . S
C393 C165 1.498 . S
C412 C129 1.570 . S
C429 C169 1.592 . S
C448 C205 1.462 . S
C465 C179 1.977 . S
C484 C15 1.967 . S
C501 C219 1.977 . S
C520 C55 1.967 . S
C537 C95 1.977 . S
C556 C19 1.967 . S
C573 C135 1.977 . S
C592 C59 1.980 1_554 S
C609 C175 1.976 . S
C628 C99 1.976 1_554 S
C645 C139 1.979 1_554 S
C664 C215 1.975 . S
C681 C18 1.445 . S
C700 C8 1.423 . S
C717 C58 1.445 . S
C736 C48 1.470 . S
C753 C98 1.441 . S
C772 C88 1.410 . S
C789 C138 1.442 . S
C808 C128 1.412 . S
C825 C168 1.439 . S
C844 C178 1.455 . S
C861 C218 1.438 . S
C880 C208 1.410 . S
