# Generated by pormake.
# Topology zfw, (5)-cn, num edge types: 1
# Building blocks:
#     Node 0, Type 0, BuildingBlock: XOMCOT_clean_sbu_0, # of connection points: 5
#     Node 1, Type 0, BuildingBlock: XOMCOT_clean_sbu_0, # of connection points: 5
#     Node 2, Type 0, BuildingBlock: XOMCOT_clean_sbu_0, # of connection points: 5
#     Node 3, Type 0, BuildingBlock: XOMCOT_clean_sbu_0, # of connection points: 5
#     Node 4, Type 0, BuildingBlock: XOMCOT_clean_sbu_0, # of connection points: 5
#     Node 5, Type 0, BuildingBlock: XOMCOT_clean_sbu_0, # of connection points: 5
#     Node 6, Type 0, BuildingBlock: XOMCOT_clean_sbu_0, # of connection points: 5
#     Node 7, Type 0, BuildingBlock: XOMCOT_clean_sbu_0, # of connection points: 5
#     Node 8, Type 0, BuildingBlock: XOMCOT_clean_sbu_0, # of connection points: 5
#     Node 9, Type 0, BuildingBlock: XOMCOT_clean_sbu_0, # of connection points: 5
#     Node 10, Type 0, BuildingBlock: XOMCOT_clean_sbu_0, # of connection points: 5
#     Node 11, Type 0, BuildingBlock: XOMCOT_clean_sbu_0, # of connection points: 5
#     Node 12, Type 0, BuildingBlock: XOMCOT_clean_sbu_0, # of connection points: 5
#     Node 13, Type 0, BuildingBlock: XOMCOT_clean_sbu_0, # of connection points: 5
#     Node 14, Type 0, BuildingBlock: XOMCOT_clean_sbu_0, # of connection points: 5
#     Node 15, Type 0, BuildingBlock: XOMCOT_clean_sbu_0, # of connection points: 5
#     Edge 16, Type (0, 0), BuildingBlock: XUDNAN_clean_linker_2, # of connection points: 2
#     Edge 17, Type (0, 0), BuildingBlock: XUDNAN_clean_linker_2, # of connection points: 2
#     Edge 18, Type (0, 0), BuildingBlock: XUDNAN_clean_linker_2, # of connection points: 2
#     Edge 19, Type (0, 0), BuildingBlock: XUDNAN_clean_linker_2, # of connection points: 2
#     Edge 20, Type (0, 0), BuildingBlock: XUDNAN_clean_linker_2, # of connection points: 2
#     Edge 21, Type (0, 0), BuildingBlock: XUDNAN_clean_linker_2, # of connection points: 2
#     Edge 22, Type (0, 0), BuildingBlock: XUDNAN_clean_linker_2, # of connection points: 2
#     Edge 23, Type (0, 0), BuildingBlock: XUDNAN_clean_linker_2, # of connection points: 2
#     Edge 24, Type (0, 0), BuildingBlock: XUDNAN_clean_linker_2, # of connection points: 2
#     Edge 25, Type (0, 0), BuildingBlock: XUDNAN_clean_linker_2, # of connection points: 2
#     Edge 26, Type (0, 0), BuildingBlock: XUDNAN_clean_linker_2, # of connection points: 2
#     Edge 27, Type (0, 0), BuildingBlock: XUDNAN_clean_linker_2, # of connection points: 2
#     Edge 28, Type (0, 0), BuildingBlock: XUDNAN_clean_linker_2, # of connection points: 2
#     Edge 29, Type (0, 0), BuildingBlock: XUDNAN_clean_linker_2, # of connection points: 2
#     Edge 30, Type (0, 0), BuildingBlock: XUDNAN_clean_linker_2, # of connection points: 2
#     Edge 31, Type (0, 0), BuildingBlock: XUDNAN_clean_linker_2, # of connection points: 2
#     Edge 32, Type (0, 0), BuildingBlock: XUDNAN_clean_linker_2, # of connection points: 2
#     Edge 33, Type (0, 0), BuildingBlock: XUDNAN_clean_linker_2, # of connection points: 2
#     Edge 34, Type (0, 0), BuildingBlock: XUDNAN_clean_linker_2, # of connection points: 2
#     Edge 35, Type (0, 0), BuildingBlock: XUDNAN_clean_linker_2, # of connection points: 2
#     Edge 36, Type (0, 0), BuildingBlock: XUDNAN_clean_linker_2, # of connection points: 2
#     Edge 37, Type (0, 0), BuildingBlock: XUDNAN_clean_linker_2, # of connection points: 2
#     Edge 38, Type (0, 0), BuildingBlock: XUDNAN_clean_linker_2, # of connection points: 2
#     Edge 39, Type (0, 0), BuildingBlock: XUDNAN_clean_linker_2, # of connection points: 2
#     Edge 40, Type (0, 0), BuildingBlock: XUDNAN_clean_linker_2, # of connection points: 2
#     Edge 41, Type (0, 0), BuildingBlock: XUDNAN_clean_linker_2, # of connection points: 2
#     Edge 42, Type (0, 0), BuildingBlock: XUDNAN_clean_linker_2, # of connection points: 2
#     Edge 43, Type (0, 0), BuildingBlock: XUDNAN_clean_linker_2, # of connection points: 2
#     Edge 44, Type (0, 0), BuildingBlock: XUDNAN_clean_linker_2, # of connection points: 2
#     Edge 45, Type (0, 0), BuildingBlock: XUDNAN_clean_linker_2, # of connection points: 2
#     Edge 46, Type (0, 0), BuildingBlock: XUDNAN_clean_linker_2, # of connection points: 2
#     Edge 47, Type (0, 0), BuildingBlock: XUDNAN_clean_linker_2, # of connection points: 2
#     Edge 48, Type (0, 0), BuildingBlock: XUDNAN_clean_linker_2, # of connection points: 2
#     Edge 49, Type (0, 0), BuildingBlock: XUDNAN_clean_linker_2, # of connection points: 2
#     Edge 50, Type (0, 0), BuildingBlock: XUDNAN_clean_linker_2, # of connection points: 2
#     Edge 51, Type (0, 0), BuildingBlock: XUDNAN_clean_linker_2, # of connection points: 2
#     Edge 52, Type (0, 0), BuildingBlock: XUDNAN_clean_linker_2, # of connection points: 2
#     Edge 53, Type (0, 0), BuildingBlock: XUDNAN_clean_linker_2, # of connection points: 2
#     Edge 54, Type (0, 0), BuildingBlock: XUDNAN_clean_linker_2, # of connection points: 2
#     Edge 55, Type (0, 0), BuildingBlock: XUDNAN_clean_linker_2, # of connection points: 2
# Relax obj value: 0.254
# Max RMSD: 0.217
# Mean RMSD: 0.201
data_MOF--net-zfw--node1-XOMCOT_clean_sbu_0--edge1-XUDNAN_clean_linker_2
_symmetry_space_group_name_H-M    P1
_symmetry_Int_Tables_number       1
_symmetry_cell_setting            triclinic
loop_
_symmetry_equiv_pos_as_xyz
'x, y, z'
_cell_length_a     69.340365
_cell_length_b     68.65415
_cell_length_c     17.079086
_cell_angle_alpha  89.963115
_cell_angle_beta   89.97786
_cell_angle_gamma 90.036502
loop_
_atom_site_label
_atom_site_type_symbol
_atom_site_fract_x
_atom_site_fract_y
_atom_site_fract_z
_atom_type_partial_charge
Co0 Co 0.08878 0.09367 0.25376 0.0
C1 C 0.09016 0.08693 0.4253 0.0
C2 C 0.10217 0.06328 0.35977 0.0
C3 C 0.10558 0.05995 0.4379 0.0
N4 N 0.09224 0.08006 0.35185 0.0
N5 N 0.09804 0.07489 0.47876 0.0
H6 H 0.08468 0.10117 0.43959 0.0
H7 H 0.10762 0.05465 0.31167 0.0
C8 C 0.07292 0.05335 0.22065 0.0
O9 O 0.06452 0.05321 0.28963 0.0
N10 N 0.08623 0.10659 0.15489 0.0
C11 C 0.07596 0.1224 0.13386 0.0
C12 C 0.07818 0.1251 0.05404 0.0
C13 C 0.09465 0.10011 0.08925 0.0
N14 N 0.09006 0.11108 0.02681 0.0
C15 C 0.05869 0.11414 0.332 0.0
C16 C 0.02742 0.09818 0.25581 0.0
C17 C 0.02413 0.11262 0.3129 0.0
C18 C 0.04025 0.12064 0.35017 0.0
C19 C 0.04637 0.09219 0.23845 0.0
N20 N 0.06178 0.09971 0.27841 0.0
H21 H 0.07054 0.12153 0.35962 0.0
H22 H 0.04853 0.08204 0.19111 0.0
H23 H 0.06726 0.1311 0.17308 0.0
H24 H 0.10347 0.08711 0.08704 0.0
O25 O 0.10036 0.11679 0.29756 0.0
O26 O 0.1168 0.09323 0.24032 0.0
O27 O 0.08239 0.06833 0.19832 0.0
C28 C 0.11695 0.10998 0.27619 0.0
H29 H 0.11372 0.04796 0.46239 0.0
H30 H 0.07155 0.13638 0.01887 0.0
H31 H 0.01554 0.09175 0.22385 0.0
H32 H 0.03888 0.13257 0.3912 0.0
Co33 Co 0.23176 0.7738 0.5131 0.0
C34 C 0.23855 0.7755 0.68501 0.0
C35 C 0.26257 0.78605 0.61872 0.0
C36 C 0.26615 0.78945 0.69671 0.0
N37 N 0.2454 0.77695 0.61129 0.0
N38 N 0.25099 0.78277 0.73802 0.0
H39 H 0.22414 0.77105 0.70002 0.0
H40 H 0.2714 0.79097 0.57038 0.0
C41 C 0.27087 0.75648 0.47944 0.0
O42 O 0.27017 0.74752 0.54741 0.0
N43 N 0.21891 0.77166 0.41423 0.0
C44 C 0.20299 0.76175 0.39292 0.0
C45 C 0.20046 0.76414 0.31308 0.0
C46 C 0.22563 0.78005 0.34879 0.0
N47 N 0.21471 0.77577 0.28613 0.0
C48 C 0.2123 0.74337 0.59453 0.0
C49 C 0.22581 0.7119 0.51049 0.0
C50 C 0.21337 0.70868 0.57407 0.0
C51 C 0.20651 0.72472 0.61544 0.0
C52 C 0.2317 0.73106 0.49239 0.0
N53 N 0.22551 0.74652 0.53651 0.0
H54 H 0.20544 0.75529 0.62409 0.0
H55 H 0.24074 0.73341 0.44179 0.0
H56 H 0.19412 0.75315 0.43197 0.0
H57 H 0.23875 0.78859 0.34687 0.0
O58 O 0.20902 0.78541 0.55774 0.0
O59 O 0.2324 0.80218 0.50123 0.0
O60 O 0.25674 0.76707 0.45729 0.0
C61 C 0.21583 0.80223 0.53736 0.0
H62 H 0.27851 0.79698 0.72082 0.0
H63 H 0.18916 0.75776 0.27768 0.0
H64 H 0.23087 0.69982 0.47533 0.0
H65 H 0.19617 0.72291 0.66255 0.0
Co66 Co 0.55361 0.91683 0.79722 0.0
C67 C 0.54674 0.92475 0.96549 0.0
C68 C 0.56223 0.94823 0.91241 0.0
C69 C 0.56235 0.9508 0.99257 0.0
N70 N 0.55277 0.93157 0.89528 0.0
N71 N 0.55278 0.93587 0.02561 0.0
H72 H 0.54044 0.91051 0.9743 0.0
H73 H 0.57025 0.95694 0.87125 0.0
C74 C 0.57152 0.95275 0.71442 0.0
O75 O 0.58894 0.95001 0.74232 0.0
N76 N 0.55408 0.90241 0.70035 0.0
C77 C 0.55801 0.88333 0.69151 0.0
C78 C 0.55866 0.87919 0.61274 0.0
C79 C 0.55214 0.90955 0.62729 0.0
N80 N 0.55513 0.89575 0.57245 0.0
C81 C 0.586 0.90461 0.88511 0.0
C82 C 0.61317 0.90309 0.76746 0.0
C83 C 0.6184 0.89717 0.84336 0.0
C84 C 0.60445 0.89804 0.90219 0.0
C85 C 0.59436 0.91005 0.75317 0.0
N86 N 0.58112 0.91128 0.81258 0.0
H87 H 0.57525 0.90313 0.92967 0.0
H88 H 0.59041 0.91406 0.69411 0.0
H89 H 0.56091 0.87329 0.73888 0.0
H90 H 0.5495 0.92471 0.6143 0.0
O91 O 0.54384 0.89386 0.84912 0.0
O92 O 0.52556 0.9166 0.79477 0.0
O93 O 0.55746 0.94185 0.73547 0.0
C94 C 0.52663 0.90008 0.8322 0.0
H95 H 0.57078 0.96148 0.0243 0.0
H96 H 0.56191 0.86513 0.58744 0.0
H97 H 0.62339 0.90215 0.71967 0.0
H98 H 0.60742 0.89265 0.9606 0.0
Co99 Co 0.42208 0.23019 0.94052 0.0
C100 C 0.41528 0.23931 0.10492 0.0
C101 C 0.39264 0.22117 0.06067 0.0
C102 C 0.38995 0.22365 0.14023 0.0
N103 N 0.40844 0.23124 0.03883 0.0
N104 N 0.40427 0.2351 0.1677 0.0
H105 H 0.42896 0.24674 0.1083 0.0
H106 H 0.38419 0.21201 0.02222 0.0
C107 C 0.38126 0.24354 0.89295 0.0
O108 O 0.37791 0.25263 0.95922 0.0
N109 N 0.43602 0.22914 0.84275 0.0
C110 C 0.4551 0.23202 0.83245 0.0
C111 C 0.45878 0.23372 0.7535 0.0
C112 C 0.42845 0.22868 0.77007 0.0
N113 N 0.44198 0.23165 0.71478 0.0
C114 C 0.44715 0.26101 0.98607 0.0
C115 C 0.42411 0.29248 0.95011 0.0
C116 C 0.44124 0.29559 0.99214 0.0
C117 C 0.45306 0.27959 0.00723 0.0
C118 C 0.41863 0.27336 0.92977 0.0
N119 N 0.42964 0.25771 0.95161 0.0
H120 H 0.45669 0.24925 0.00085 0.0
H121 H 0.40559 0.2715 0.89684 0.0
H122 H 0.46552 0.23371 0.87898 0.0
H123 H 0.41323 0.22745 0.75742 0.0
O124 O 0.44371 0.21859 0.99407 0.0
O125 O 0.42 0.20172 0.94128 0.0
O126 O 0.39763 0.23567 0.8794 0.0
C127 C 0.43624 0.20171 0.97948 0.0
H128 H 0.37875 0.21697 0.17531 0.0
H129 H 0.47258 0.23696 0.7268 0.0
H130 H 0.41485 0.30458 0.93481 0.0
H131 H 0.46683 0.28133 0.03638 0.0
Co132 Co 0.0909 0.91029 0.75465 0.0
C133 C 0.08364 0.91765 0.59035 0.0
C134 C 0.10412 0.9381 0.63501 0.0
C135 C 0.10436 0.93908 0.55446 0.0
N136 N 0.09085 0.92483 0.65769 0.0
N137 N 0.0916 0.92603 0.52679 0.0
H138 H 0.07492 0.9046 0.58744 0.0
H139 H 0.11451 0.94487 0.67363 0.0
C140 C 0.08156 0.95217 0.81101 0.0
O141 O 0.08405 0.96008 0.74193 0.0
N142 N 0.09142 0.89515 0.85065 0.0
C143 C 0.09247 0.87561 0.85834 0.0
C144 C 0.09327 0.87101 0.93661 0.0
C145 C 0.09217 0.9021 0.92446 0.0
N146 N 0.09306 0.8877 0.97819 0.0
C147 C 0.06073 0.88371 0.71863 0.0
C148 C 0.03062 0.90992 0.71021 0.0
C149 C 0.02733 0.89041 0.68902 0.0
C150 C 0.04264 0.87727 0.69509 0.0
C151 C 0.04921 0.91587 0.73352 0.0
N152 N 0.06404 0.90276 0.73713 0.0
H153 H 0.07228 0.87329 0.71828 0.0
H154 H 0.05172 0.93108 0.74547 0.0
H155 H 0.09323 0.86528 0.81087 0.0
H156 H 0.09288 0.91739 0.93876 0.0
O157 O 0.10287 0.88923 0.69881 0.0
O158 O 0.1191 0.91244 0.75952 0.0
O159 O 0.083 0.93372 0.82058 0.0
C160 C 0.11944 0.89648 0.71799 0.0
H161 H 0.11488 0.94677 0.5192 0.0
H162 H 0.09404 0.85644 0.9606 0.0
H163 H 0.01917 0.92059 0.70611 0.0
H164 H 0.04077 0.86202 0.68064 0.0
Co165 Co 0.41633 0.77471 0.03883 0.0
C166 C 0.4087 0.77487 0.86838 0.0
C167 C 0.3866 0.78945 0.93348 0.0
C168 C 0.38352 0.79278 0.85509 0.0
N169 N 0.40225 0.77798 0.94194 0.0
N170 N 0.39751 0.78369 0.81435 0.0
H171 H 0.42229 0.76809 0.8545 0.0
H172 H 0.37879 0.7961 0.98132 0.0
C173 C 0.37512 0.76194 0.08565 0.0
O174 O 0.37 0.75701 0.01438 0.0
N175 N 0.42991 0.77224 0.13653 0.0
C176 C 0.44444 0.76035 0.15801 0.0
C177 C 0.4471 0.76216 0.23803 0.0
C178 C 0.42415 0.78116 0.20247 0.0
N179 N 0.43431 0.77532 0.26535 0.0
C180 C 0.43668 0.74395 0.96332 0.0
C181 C 0.41843 0.71262 0.03211 0.0
C182 C 0.43355 0.70907 0.97896 0.0
C183 C 0.44265 0.72518 0.945 0.0
C184 C 0.41288 0.73187 0.0494 0.0
N185 N 0.42181 0.74735 0.01403 0.0
H186 H 0.44463 0.75575 0.93737 0.0
H187 H 0.40189 0.7341 0.09299 0.0
H188 H 0.45208 0.75058 0.11932 0.0
H189 H 0.41192 0.79094 0.20487 0.0
O190 O 0.43884 0.78624 0.99118 0.0
O191 O 0.41619 0.80307 0.05152 0.0
O192 O 0.39207 0.76835 0.10001 0.0
C193 C 0.43243 0.80307 0.01317 0.0
H194 H 0.3725 0.80209 0.83035 0.0
H195 H 0.45734 0.75417 0.27344 0.0
H196 H 0.41108 0.70069 0.0609 0.0
H197 H 0.45493 0.72349 0.90644 0.0
Co198 Co 0.55453 0.08722 0.21075 0.0
C199 C 0.55139 0.08117 0.04063 0.0
C200 C 0.55771 0.05411 0.09673 0.0
C201 C 0.55882 0.05148 0.0166 0.0
N202 N 0.55359 0.07299 0.11187 0.0
N203 N 0.55506 0.06866 0.98208 0.0
H204 H 0.54864 0.09647 0.03072 0.0
H205 H 0.56071 0.04306 0.13978 0.0
C206 C 0.57133 0.04944 0.28511 0.0
O207 O 0.58769 0.04975 0.24639 0.0
N208 N 0.55533 0.10137 0.30809 0.0
C209 C 0.5603 0.12019 0.31744 0.0
C210 C 0.56198 0.12395 0.39627 0.0
C211 C 0.55384 0.094 0.38094 0.0
N212 N 0.55808 0.1074 0.43601 0.0
C213 C 0.58674 0.10299 0.1303 0.0
C214 C 0.61461 0.09713 0.24264 0.0
C215 C 0.61961 0.10778 0.17477 0.0
C216 C 0.6051 0.11057 0.11869 0.0
C217 C 0.59564 0.09023 0.25301 0.0
N218 N 0.58204 0.09267 0.19589 0.0
H219 H 0.57592 0.10683 0.08822 0.0
H220 H 0.59179 0.08355 0.30814 0.0
H221 H 0.56343 0.13021 0.27022 0.0
H222 H 0.55083 0.07889 0.39353 0.0
O223 O 0.54478 0.11035 0.16024 0.0
O224 O 0.52643 0.08752 0.2133 0.0
O225 O 0.55825 0.06216 0.27203 0.0
C226 C 0.52756 0.10408 0.17621 0.0
H227 H 0.56355 0.03846 0.9865 0.0
H228 H 0.56634 0.13767 0.42195 0.0
H229 H 0.62499 0.09453 0.28868 0.0
H230 H 0.6073 0.11955 0.06747 0.0
Co231 Co 0.23243 0.23238 0.46472 0.0
C232 C 0.23902 0.22043 0.30025 0.0
C233 C 0.2627 0.23741 0.34277 0.0
C234 C 0.26565 0.23354 0.26439 0.0
N235 N 0.24584 0.22931 0.36512 0.0
N236 N 0.25063 0.22293 0.23778 0.0
H237 H 0.22494 0.21383 0.29645 0.0
H238 H 0.27177 0.24642 0.37914 0.0
C239 C 0.26901 0.25071 0.53852 0.0
O240 O 0.26455 0.2686 0.51892 0.0
N241 N 0.21948 0.23462 0.56426 0.0
C242 C 0.20052 0.23769 0.57723 0.0
C243 C 0.1969 0.23537 0.65612 0.0
C244 C 0.22713 0.2306 0.63484 0.0
N245 N 0.2137 0.23105 0.6916 0.0
C246 C 0.22219 0.26452 0.36743 0.0
C247 C 0.21888 0.29275 0.48145 0.0
C248 C 0.21391 0.29749 0.40398 0.0
C249 C 0.21576 0.28301 0.34696 0.0
C250 C 0.22555 0.27391 0.4995 0.0
N251 N 0.22757 0.26005 0.44232 0.0
H252 H 0.22165 0.25351 0.32277 0.0
H253 H 0.22879 0.27048 0.55984 0.0
H254 H 0.18998 0.24081 0.53229 0.0
H255 H 0.242 0.22647 0.64435 0.0
O256 O 0.2088 0.22251 0.42001 0.0
O257 O 0.23138 0.20418 0.47481 0.0
O258 O 0.25831 0.23633 0.51865 0.0
C259 C 0.21463 0.20522 0.44033 0.0
H260 H 0.27751 0.23888 0.22921 0.0
H261 H 0.18306 0.23652 0.68506 0.0
H262 H 0.21738 0.30338 0.52784 0.0
H263 H 0.21122 0.28555 0.28714 0.0
Co264 Co 0.91274 0.27431 0.4959 0.0
C265 C 0.90614 0.267 0.32836 0.0
C266 C 0.88187 0.28144 0.37929 0.0
C267 C 0.87852 0.27914 0.29992 0.0
N268 N 0.89915 0.27353 0.39693 0.0
N269 N 0.89381 0.26984 0.26875 0.0
H270 H 0.92048 0.26141 0.32018 0.0
H271 H 0.8726 0.28882 0.42066 0.0
C272 C 0.87308 0.25869 0.54574 0.0
O273 O 0.8724 0.24571 0.48933 0.0
N274 N 0.92628 0.2751 0.59423 0.0
C275 C 0.94493 0.27036 0.6055 0.0
C276 C 0.94814 0.26842 0.68465 0.0
C277 C 0.91848 0.2763 0.66635 0.0
N278 N 0.93146 0.27208 0.7225 0.0
C279 C 0.93441 0.24214 0.43746 0.0
C280 C 0.91707 0.21242 0.52026 0.0
C281 C 0.93086 0.20786 0.46303 0.0
C282 C 0.93987 0.22303 0.42314 0.0
C283 C 0.91182 0.23205 0.53236 0.0
N284 N 0.91957 0.24658 0.48709 0.0
H285 H 0.9423 0.25334 0.40726 0.0
H286 H 0.90183 0.2354 0.57876 0.0
H287 H 0.95513 0.26721 0.55929 0.0
H288 H 0.90333 0.27871 0.67772 0.0
O289 O 0.93504 0.28519 0.444 0.0
O290 O 0.91142 0.30274 0.49392 0.0
O291 O 0.88777 0.2697 0.55443 0.0
C292 C 0.92784 0.30229 0.45696 0.0
H293 H 0.86602 0.2841 0.26767 0.0
H294 H 0.96143 0.26371 0.71199 0.0
H295 H 0.9104 0.20102 0.55476 0.0
H296 H 0.95119 0.22011 0.38094 0.0
Co297 Co 0.73137 0.73085 0.02567 0.0
C298 C 0.73869 0.73791 0.85784 0.0
C299 C 0.76064 0.71997 0.90833 0.0
C300 C 0.76449 0.72215 0.82941 0.0
N301 N 0.74451 0.73005 0.92593 0.0
N302 N 0.75068 0.73361 0.79848 0.0
H303 H 0.72543 0.74575 0.84988 0.0
H304 H 0.76883 0.71139 0.94976 0.0
C305 C 0.7704 0.74876 0.05823 0.0
O306 O 0.76932 0.75834 0.99177 0.0
N307 N 0.71832 0.73146 0.12485 0.0
C308 C 0.69986 0.73675 0.13732 0.0
C309 C 0.69712 0.73906 0.21658 0.0
C310 C 0.72646 0.73021 0.19619 0.0
N311 N 0.71387 0.73496 0.25303 0.0
C312 C 0.70765 0.76116 0.96311 0.0
C313 C 0.72463 0.79278 0.03436 0.0
C314 C 0.70917 0.79604 0.98245 0.0
C315 C 0.70046 0.7797 0.94867 0.0
C316 C 0.7312 0.77369 0.04859 0.0
N317 N 0.72348 0.75815 0.0093 0.0
H318 H 0.70022 0.74919 0.93588 0.0
H319 H 0.74212 0.77161 0.09259 0.0
H320 H 0.68947 0.73984 0.09182 0.0
H321 H 0.74158 0.72726 0.20627 0.0
O322 O 0.70918 0.71859 0.97952 0.0
O323 O 0.7334 0.70239 0.0322 0.0
O324 O 0.75646 0.73786 0.08021 0.0
C325 C 0.7167 0.70193 0.99724 0.0
H326 H 0.77632 0.71567 0.79728 0.0
H327 H 0.68412 0.74419 0.24498 0.0
H328 H 0.73156 0.80477 0.06431 0.0
H329 H 0.68776 0.78099 0.91222 0.0
Co330 Co 0.72502 0.2741 0.9743 0.0
C331 C 0.73117 0.27684 0.14555 0.0
C332 C 0.75738 0.28163 0.08228 0.0
C333 C 0.76085 0.28493 0.16059 0.0
N334 N 0.7388 0.27619 0.07288 0.0
N335 N 0.74433 0.28176 0.19986 0.0
H336 H 0.716 0.27557 0.1586 0.0
H337 H 0.76749 0.28433 0.03541 0.0
C338 C 0.76416 0.25752 0.91878 0.0
O339 O 0.76471 0.24354 0.97127 0.0
N340 N 0.71198 0.27282 0.87542 0.0
C341 C 0.69586 0.26328 0.85389 0.0
C342 C 0.69318 0.26613 0.77436 0.0
C343 C 0.71865 0.28147 0.81039 0.0
N344 N 0.70756 0.27765 0.74763 0.0
C345 C 0.70799 0.24256 0.05607 0.0
C346 C 0.72018 0.21203 0.96366 0.0
C347 C 0.70967 0.20801 0.03227 0.0
C348 C 0.70327 0.22366 0.07729 0.0
C349 C 0.72491 0.23152 0.94489 0.0
N350 N 0.71958 0.24646 0.99342 0.0
H351 H 0.7017 0.25407 0.08979 0.0
H352 H 0.7326 0.23454 0.8912 0.0
H353 H 0.68699 0.25458 0.89255 0.0
H354 H 0.73191 0.28979 0.80876 0.0
O355 O 0.70201 0.28473 0.02165 0.0
O356 O 0.72509 0.30244 0.96757 0.0
O357 O 0.74999 0.26938 0.9159 0.0
C358 C 0.7086 0.30188 0.00403 0.0
H359 H 0.77424 0.28991 0.18628 0.0
H360 H 0.68173 0.26004 0.73899 0.0
H361 H 0.72478 0.20032 0.92557 0.0
H362 H 0.69422 0.22135 0.12825 0.0
Co363 Co 0.90997 0.7327 0.5084 0.0
C364 C 0.90397 0.7304 0.67997 0.0
C365 C 0.87718 0.72918 0.61828 0.0
C366 C 0.87362 0.72586 0.69647 0.0
N367 N 0.89623 0.73254 0.60787 0.0
N368 N 0.89052 0.72674 0.73483 0.0
H369 H 0.91927 0.72979 0.69186 0.0
H370 H 0.86665 0.72773 0.57216 0.0
C371 C 0.87355 0.75288 0.45594 0.0
O372 O 0.87614 0.76593 0.51119 0.0
N373 N 0.92295 0.73173 0.40915 0.0
C374 C 0.94052 0.73826 0.38802 0.0
C375 C 0.94298 0.73458 0.30899 0.0
C376 C 0.91521 0.7239 0.34445 0.0
N377 N 0.92701 0.72548 0.28222 0.0
C378 C 0.92542 0.76621 0.58599 0.0
C379 C 0.92155 0.79256 0.46478 0.0
C380 C 0.92993 0.79868 0.53531 0.0
C381 C 0.93176 0.78527 0.59618 0.0
C382 C 0.91486 0.77328 0.45766 0.0
N383 N 0.91652 0.76039 0.51866 0.0
H384 H 0.92861 0.756 0.63154 0.0
H385 H 0.90874 0.7686 0.40258 0.0
H386 H 0.95059 0.74548 0.42672 0.0
H387 H 0.90087 0.71771 0.34263 0.0
O388 O 0.93269 0.72232 0.55784 0.0
O389 O 0.90905 0.70429 0.50938 0.0
O390 O 0.8851 0.73846 0.44959 0.0
C391 C 0.92575 0.70507 0.5446 0.0
H392 H 0.85982 0.72231 0.72255 0.0
H393 H 0.95542 0.73844 0.274 0.0
H394 H 0.92036 0.80247 0.41569 0.0
H395 H 0.93885 0.78928 0.65039 0.0
Co396 Co 0.59147 0.59333 0.78562 0.0
C397 C 0.59766 0.58396 0.9532 0.0
C398 C 0.58139 0.56173 0.89473 0.0
C399 C 0.58286 0.55685 0.9726 0.0
N400 N 0.59078 0.57868 0.88246 0.0
N401 N 0.59297 0.57092 0.00905 0.0
H402 H 0.60538 0.59734 0.96461 0.0
H403 H 0.57324 0.55382 0.85123 0.0
C404 C 0.59444 0.5552 0.70603 0.0
O405 O 0.61202 0.55427 0.73438 0.0
N406 N 0.59231 0.60711 0.68759 0.0
C407 C 0.58118 0.62162 0.65971 0.0
C408 C 0.583 0.62197 0.57898 0.0
C409 C 0.60122 0.59952 0.62497 0.0
N410 N 0.59536 0.60772 0.55759 0.0
C411 C 0.56093 0.61029 0.8708 0.0
C412 C 0.53106 0.60273 0.76805 0.0
C413 C 0.52714 0.61249 0.83861 0.0
C414 C 0.54236 0.61617 0.89004 0.0
C415 C 0.55001 0.59658 0.75167 0.0
N416 N 0.56466 0.60055 0.80287 0.0
H417 H 0.57244 0.61359 0.91116 0.0
H418 H 0.55296 0.58906 0.69738 0.0
H419 H 0.57113 0.63007 0.69421 0.0
H420 H 0.61059 0.58697 0.62843 0.0
O421 O 0.60316 0.61533 0.83663 0.0
O422 O 0.61966 0.59127 0.78311 0.0
O423 O 0.58354 0.56944 0.72488 0.0
C424 C 0.61984 0.60785 0.8203 0.0
H425 H 0.57611 0.54449 0.00095 0.0
H426 H 0.57449 0.63068 0.53904 0.0
H427 H 0.51961 0.59979 0.72657 0.0
H428 H 0.54 0.62393 0.94445 0.0
Co429 Co 0.04996 0.4136 0.23604 0.0
C430 C 0.05736 0.4209 0.4037 0.0
C431 C 0.04015 0.44353 0.35327 0.0
C432 C 0.04238 0.44733 0.43222 0.0
N433 N 0.04975 0.42701 0.33558 0.0
N434 N 0.05337 0.43309 0.46314 0.0
H435 H 0.06471 0.40729 0.41171 0.0
H436 H 0.0318 0.45199 0.31196 0.0
C437 C 0.06767 0.45286 0.20004 0.0
O438 O 0.07784 0.45169 0.26476 0.0
N439 N 0.04999 0.4003 0.13709 0.0
C440 C 0.05499 0.38158 0.12489 0.0
C441 C 0.05717 0.37869 0.04565 0.0
C442 C 0.0488 0.40845 0.06556 0.0
N443 N 0.05331 0.39562 0.00887 0.0
C444 C 0.0804 0.39 0.29678 0.0
C445 C 0.11108 0.40635 0.21817 0.0
C446 C 0.11468 0.39101 0.271 0.0
C447 C 0.0988 0.38262 0.30866 0.0
C448 C 0.09212 0.41314 0.2068 0.0
N449 N 0.07709 0.40574 0.24957 0.0
H450 H 0.06877 0.38266 0.32627 0.0
H451 H 0.08968 0.42393 0.16208 0.0
H452 H 0.05805 0.37111 0.17056 0.0
H453 H 0.04614 0.42376 0.05518 0.0
O454 O 0.03823 0.3912 0.28414 0.0
O455 O 0.02172 0.41547 0.23264 0.0
O456 O 0.05647 0.43891 0.18025 0.0
C457 C 0.02158 0.39866 0.26821 0.0
H458 H 0.03621 0.45939 0.46442 0.0
H459 H 0.06211 0.36547 0.01749 0.0
H460 H 0.12271 0.41297 0.18526 0.0
H461 H 0.10033 0.36997 0.34598 0.0
Co462 Co 0.5897 0.41341 0.25326 0.0
C463 C 0.57673 0.41813 0.09318 0.0
C464 C 0.59851 0.43921 0.1205 0.0
C465 C 0.59522 0.43959 0.04101 0.0
N466 N 0.58668 0.42589 0.15309 0.0
N467 N 0.58165 0.42613 0.02399 0.0
H468 H 0.56733 0.40567 0.09957 0.0
H469 H 0.60977 0.44694 0.1514 0.0
C470 C 0.57944 0.45577 0.29382 0.0
O471 O 0.57387 0.45955 0.22202 0.0
N472 N 0.59288 0.40035 0.35284 0.0
C473 C 0.60169 0.38319 0.36812 0.0
C474 C 0.59891 0.37857 0.44567 0.0
C475 C 0.58489 0.40585 0.42116 0.0
N476 N 0.5884 0.39287 0.47848 0.0
C477 C 0.55862 0.38675 0.25841 0.0
C478 C 0.52933 0.41203 0.21776 0.0
C479 C 0.52569 0.39192 0.21645 0.0
C480 C 0.54047 0.37932 0.24011 0.0
C481 C 0.54776 0.41892 0.23758 0.0
N482 N 0.5624 0.40624 0.25426 0.0
H483 H 0.57009 0.37657 0.27058 0.0
H484 H 0.55039 0.43426 0.23357 0.0
H485 H 0.60925 0.37427 0.3261 0.0
H486 H 0.57617 0.41877 0.42864 0.0
O487 O 0.59908 0.3908 0.19838 0.0
O488 O 0.61765 0.41481 0.24088 0.0
O489 O 0.58538 0.43877 0.3132 0.0
C490 C 0.61627 0.39819 0.2043 0.0
H491 H 0.6035 0.44779 -0.00147 0.0
H492 H 0.60433 0.36582 0.47581 0.0
H493 H 0.51828 0.42232 0.20059 0.0
H494 H 0.53853 0.36367 0.23917 0.0
Co495 Co 0.05041 0.59504 0.75665 0.0
C496 C 0.05316 0.58659 0.58652 0.0
C497 C 0.04101 0.56291 0.65171 0.0
C498 C 0.04096 0.55795 0.57375 0.0
N499 N 0.04903 0.5807 0.65978 0.0
N500 N 0.04856 0.57292 0.53315 0.0
H501 H 0.05887 0.60066 0.57152 0.0
H502 H 0.03507 0.55435 0.69912 0.0
C503 C 0.06869 0.55633 0.79899 0.0
O504 O 0.07942 0.55724 0.73568 0.0
N505 N 0.05111 0.60851 0.85477 0.0
C506 C 0.06119 0.62444 0.87606 0.0
C507 C 0.06218 0.62484 0.95695 0.0
C508 C 0.04563 0.59992 0.92158 0.0
N509 N 0.05266 0.60914 0.98465 0.0
C510 C 0.0813 0.61589 0.68377 0.0
C511 C 0.11136 0.60232 0.77403 0.0
C512 C 0.11541 0.61598 0.71467 0.0
C513 C 0.09986 0.62287 0.67032 0.0
C514 C 0.09233 0.5959 0.78651 0.0
N515 N 0.07761 0.60196 0.73897 0.0
H516 H 0.06977 0.62256 0.65132 0.0
H517 H 0.08949 0.58664 0.8362 0.0
H518 H 0.06881 0.63395 0.83613 0.0
H519 H 0.03817 0.58608 0.92375 0.0
O520 O 0.03895 0.61753 0.70779 0.0
O521 O 0.02225 0.59382 0.76304 0.0
O522 O 0.05683 0.57001 0.8149 0.0
C523 C 0.02223 0.61042 0.72583 0.0
H524 H 0.0351 0.54474 0.54865 0.0
H525 H 0.07078 0.6347 0.99195 0.0
H526 H 0.12268 0.59681 0.81163 0.0
H527 H 0.1017 0.6343 0.62727 0.0
H528 H 0.17647 0.20382 0.40335 0.0
H529 H 0.22703 0.16726 0.4292 0.0
H530 H 0.20801 0.13866 0.38516 0.0
H531 H 0.14226 0.16854 0.47492 0.0
H532 H 0.12362 0.17612 0.40799 0.0
H533 H 0.14147 0.19336 0.44049 0.0
H534 H 0.15024 0.20089 0.296 0.0
H535 H 0.13255 0.18352 0.26305 0.0
H536 H 0.1573 0.18127 0.23204 0.0
H537 H 0.18304 0.11416 0.33234 0.0
H538 H 0.15398 0.09581 0.28971 0.0
H539 H 0.12012 0.14871 0.30557 0.0
C540 C 0.18355 0.18978 0.39998 0.0
C541 C 0.20323 0.18773 0.41946 0.0
C542 C 0.21193 0.16911 0.41487 0.0
C543 C 0.20126 0.15283 0.38948 0.0
C544 C 0.18189 0.15541 0.36979 0.0
C545 C 0.1731 0.17343 0.3759 0.0
C546 C 0.15202 0.17241 0.35365 0.0
C547 C 0.13909 0.17793 0.42342 0.0
C548 C 0.14779 0.18529 0.28192 0.0
C549 C 0.15023 0.15103 0.33381 0.0
C550 C 0.16761 0.14142 0.34243 0.0
C551 C 0.16935 0.12156 0.32588 0.0
C552 C 0.15284 0.11127 0.3013 0.0
C553 C 0.13483 0.12083 0.29465 0.0
C554 C 0.13367 0.14097 0.31058 0.0
H555 H 0.17751 0.80495 0.56387 0.0
H556 H 0.22962 0.83977 0.55672 0.0
H557 H 0.21099 0.86851 0.60324 0.0
H558 H 0.145 0.8427 0.49612 0.0
H559 H 0.12564 0.83434 0.55807 0.0
H560 H 0.14328 0.8173 0.52216 0.0
H561 H 0.15062 0.80662 0.66483 0.0
H562 H 0.13318 0.82378 0.70119 0.0
H563 H 0.15772 0.82468 0.73579 0.0
H564 H 0.18579 0.89306 0.66043 0.0
H565 H 0.15683 0.91086 0.70878 0.0
H566 H 0.12231 0.85901 0.67178 0.0
C567 C 0.18504 0.81865 0.5714 0.0
C568 C 0.205 0.82016 0.55693 0.0
C569 C 0.21427 0.83837 0.56705 0.0
C570 C 0.20381 0.85471 0.59385 0.0
C571 C 0.1841 0.85257 0.60912 0.0
C572 C 0.17485 0.83498 0.59693 0.0
C573 C 0.15367 0.83611 0.61686 0.0
C574 C 0.14117 0.8324 0.54396 0.0
C575 C 0.14851 0.82196 0.68363 0.0
C576 C 0.15233 0.85703 0.64326 0.0
C577 C 0.16993 0.86642 0.63911 0.0
C578 C 0.17194 0.88581 0.66311 0.0
C579 C 0.15548 0.89579 0.69086 0.0
C580 C 0.13733 0.88636 0.69356 0.0
C581 C 0.13593 0.86674 0.66972 0.0
H582 H 0.52497 0.86171 0.87151 0.0
H583 H 0.48941 0.91335 0.85001 0.0
H584 H 0.46121 0.89466 0.89906 0.0
H585 H 0.48887 0.82787 0.80551 0.0
H586 H 0.49665 0.80887 0.87113 0.0
H587 H 0.51372 0.82662 0.83612 0.0
H588 H 0.52264 0.83527 0.97938 0.0
H589 H 0.50547 0.81766 0.01484 0.0
H590 H 0.50393 0.84266 0.04635 0.0
H591 H 0.437 0.86979 0.95592 0.0
H592 H 0.41878 0.8407 0.00138 0.0
H593 H 0.47049 0.80574 0.97793 0.0
C594 C 0.51125 0.86913 0.87711 0.0
C595 C 0.50937 0.889 0.85742 0.0
C596 C 0.49113 0.8981 0.86467 0.0
C597 C 0.47508 0.88762 0.89284 0.0
C598 C 0.4775 0.86802 0.91252 0.0
C599 C 0.49512 0.85885 0.90385 0.0
C600 C 0.49397 0.83757 0.92616 0.0
C601 C 0.49857 0.82446 0.85552 0.0
C602 C 0.50729 0.83303 0.99583 0.0
C603 C 0.47297 0.83611 0.94922 0.0
C604 C 0.46366 0.85381 0.94195 0.0
C605 C 0.44417 0.85586 0.96137 0.0
C606 C 0.43396 0.83932 0.98753 0.0
C607 C 0.44321 0.821 0.99291 0.0
C608 C 0.46298 0.81954 0.974 0.0
H609 H 0.52661 0.14217 0.1339 0.0
H610 H 0.48994 0.09146 0.16134 0.0
H611 H 0.46208 0.1105 0.11126 0.0
H612 H 0.4914 0.17747 0.19597 0.0
H613 H 0.4997 0.19566 0.12764 0.0
H614 H 0.51628 0.1778 0.16531 0.0
H615 H 0.52502 0.16763 0.02345 0.0
H616 H 0.50835 0.18535 0.98535 0.0
H617 H 0.50613 0.16013 0.9575 0.0
H618 H 0.43841 0.13566 0.05135 0.0
H619 H 0.42118 0.16473 -0.00024 0.0
H620 H 0.47393 0.19834 0.01865 0.0
C621 C 0.51272 0.13503 0.12959 0.0
C622 C 0.51043 0.11532 0.15111 0.0
C623 C 0.49197 0.10659 0.14529 0.0
C624 C 0.47611 0.11727 0.11661 0.0
C625 C 0.47896 0.13669 0.09494 0.0
C626 C 0.49682 0.14549 0.10221 0.0
C627 C 0.49627 0.16656 0.07683 0.0
C628 C 0.5012 0.18017 0.14554 0.0
C629 C 0.50974 0.17011 0.00661 0.0
C630 C 0.47534 0.16835 0.05349 0.0
C631 C 0.46551 0.15101 0.06352 0.0
C632 C 0.446 0.14932 0.04386 0.0
C633 C 0.43634 0.16584 0.0143 0.0
C634 C 0.44619 0.18378 0.00566 0.0
C635 C 0.46594 0.18488 0.02523 0.0
H636 H 0.96291 0.81271 0.47021 0.0
H637 H 0.91705 0.82749 0.63121 0.0
H638 H 0.93523 0.85669 0.67368 0.0
H639 H 0.99939 0.82209 0.59568 0.0
H640 H 0.01621 0.83189 0.52544 0.0
H641 H 0.99788 0.81513 0.49407 0.0
H642 H 0.9856 0.84018 0.39213 0.0
H643 H 0.0041 0.85701 0.42265 0.0
H644 H 0.97916 0.86439 0.42347 0.0
H645 H 0.96072 0.88101 0.714 0.0
H646 H 0.99126 0.89752 0.74993 0.0
H647 H 0.02069 0.86653 0.56392 0.0
C648 C 0.95635 0.8227 0.51142 0.0
C649 C 0.93837 0.81831 0.54576 0.0
C650 C 0.93058 0.83101 0.6028 0.0
C651 C 0.94084 0.84757 0.62731 0.0
C652 C 0.95891 0.85119 0.59438 0.0
C653 C 0.96654 0.83916 0.53711 0.0
C654 C 0.98723 0.84461 0.51887 0.0
C655 C 1.00098 0.82741 0.5345 0.0
C656 C 0.98913 0.85199 0.43425 0.0
C657 C 0.99035 0.86096 0.57707 0.0
C658 C 0.97377 0.86486 0.61906 0.0
C659 C 0.97368 0.87834 0.68037 0.0
C660 C 0.99107 0.8877 0.70032 0.0
C661 C 0.00834 0.88331 0.65986 0.0
C662 C 0.00771 0.87018 0.59604 0.0
H663 H 0.95537 0.18403 0.54345 0.0
H664 H 0.92113 0.18794 0.33246 0.0
H665 H 0.93804 0.1593 0.27802 0.0
H666 H 0.99756 0.17541 0.45555 0.0
H667 H 0.00739 0.15837 0.5252 0.0
H668 H 0.98962 0.17576 0.5561 0.0
H669 H 0.96771 0.14796 0.60721 0.0
H670 H 0.98562 0.1304 0.57763 0.0
H671 H 0.96118 0.12826 0.5427 0.0
H672 H 0.96331 0.1355 0.23541 0.0
H673 H 0.99342 0.11743 0.21138 0.0
H674 H 0.01034 0.127 0.45319 0.0
C675 C 0.95074 0.17807 0.48784 0.0
C676 C 0.93657 0.18771 0.44299 0.0
C677 C 0.93154 0.18031 0.36845 0.0
C678 C 0.94115 0.16412 0.337 0.0
C679 C 0.9557 0.15539 0.38109 0.0
C680 C 0.96022 0.16185 0.45569 0.0
C681 C 0.97796 0.15152 0.48683 0.0
C682 C 0.99407 0.16614 0.50705 0.0
C683 C 0.9728 0.13877 0.5578 0.0
C684 C 0.98331 0.13912 0.41663 0.0
C685 C 0.97019 0.14135 0.35656 0.0
C686 C 0.97338 0.13315 0.28289 0.0
C687 C 0.99057 0.12278 0.26983 0.0
C688 C 0.00447 0.12066 0.33012 0.0
C689 C 1.00026 0.12841 0.4052 0.0
H690 H 0.63787 0.11915 0.03653 0.0
H691 H 0.64541 0.11981 0.28952 0.0
H692 H 0.67433 0.13992 0.27324 0.0
H693 H 0.68923 0.12401 0.97648 0.0
H694 H 0.68326 0.14083 0.89912 0.0
H695 H 0.66629 0.12218 0.92734 0.0
H696 H 0.64019 0.14849 0.9515 0.0
H697 H 0.65699 0.16712 0.92292 0.0
H698 H 0.64534 0.16838 0.01716 0.0
H699 H 0.69949 0.16382 0.23309 0.0
H700 H 0.71606 0.19215 0.17523 0.0
H701 H 0.6898 0.17976 0.9506 0.0
C702 C 0.64547 0.12332 0.08913 0.0
C703 C 0.6389 0.1176 0.16467 0.0
C704 C 0.65 0.12332 0.23069 0.0
C705 C 0.66656 0.13494 0.2221 0.0
C706 C 0.67193 0.141 0.14723 0.0
C707 C 0.6616 0.13551 0.08189 0.0
C708 C 0.66835 0.14652 0.00966 0.0
C709 C 0.67732 0.13255 0.9496 0.0
C710 C 0.65173 0.15833 0.97323 0.0
C711 C 0.68356 0.15972 0.04522 0.0
C712 C 0.68584 0.15576 0.12419 0.0
C713 C 0.698 0.16686 0.17121 0.0
C714 C 0.70739 0.18291 0.13777 0.0
C715 C 0.70432 0.18805 0.05834 0.0
C716 C 0.6928 0.17587 0.01082 0.0
H717 H 0.63776 0.8682 0.76459 0.0
H718 H 0.6414 0.90561 0.96836 0.0
H719 H 0.6686 0.88613 0.01858 0.0
H720 H 0.64454 0.82543 0.85879 0.0
H721 H 0.65919 0.81364 0.78566 0.0
H722 H 0.64267 0.83254 0.7574 0.0
H723 H 0.67054 0.85202 0.69351 0.0
H724 H 0.68717 0.83299 0.72055 0.0
H725 H 0.69171 0.85776 0.75026 0.0
H726 H 0.6907 0.85904 0.05906 0.0
H727 H 0.70752 0.82794 0.08148 0.0
H728 H 0.69191 0.80935 0.84666 0.0
C729 C 0.64488 0.8728 0.81789 0.0
C730 C 0.63751 0.88847 0.86238 0.0
C731 C 0.64682 0.89366 0.93331 0.0
C732 C 0.66231 0.88269 0.96227 0.0
C733 C 0.66862 0.86672 0.91909 0.0
C734 C 0.66049 0.86202 0.84752 0.0
C735 C 0.66878 0.84311 0.81639 0.0
C736 C 0.65285 0.82779 0.80388 0.0
C737 C 0.68024 0.84669 0.74069 0.0
C738 C 0.68204 0.83747 0.88332 0.0
C739 C 0.68189 0.85134 0.94171 0.0
C740 C 0.69139 0.84832 0.01273 0.0
C741 C 0.70103 0.83055 0.02484 0.0
C742 C 0.70118 0.81594 0.96616 0.0
C743 C 0.69199 0.81992 0.8936 0.0
H744 H 0.67814 0.69804 0.98631 0.0
H745 H 0.73122 0.66526 0.96398 0.0
H746 H 0.71244 0.63655 0.91756 0.0
H747 H 0.64834 0.65766 0.05514 0.0
H748 H 0.62745 0.66643 0.00326 0.0
H749 H 0.6453 0.6834 0.03821 0.0
H750 H 0.64912 0.69712 0.89747 0.0
H751 H 0.63148 0.68006 0.86195 0.0
H752 H 0.65517 0.68079 0.81856 0.0
H753 H 0.68681 0.61218 0.86257 0.0
H754 H 0.65759 0.59451 0.81656 0.0
H755 H 0.62244 0.64419 0.88097 0.0
C756 C 0.68585 0.68475 0.97247 0.0
C757 C 0.70611 0.68382 0.97838 0.0
C758 C 0.71566 0.66617 0.96027 0.0
C759 C 0.7051 0.64988 0.93353 0.0
C760 C 0.68505 0.65149 0.92664 0.0
C761 C 0.6756 0.66847 0.94701 0.0
C762 C 0.65411 0.66692 0.93433 0.0
C763 C 0.64316 0.6687 0.01238 0.0
C764 C 0.64707 0.68212 0.87452 0.0
C765 C 0.65281 0.64654 0.90182 0.0
C766 C 0.67069 0.63771 0.89751 0.0
C767 C 0.67276 0.61896 0.86659 0.0
C768 C 0.65613 0.60905 0.84029 0.0
C769 C 0.63773 0.61793 0.8454 0.0
C770 C 0.63624 0.63689 0.87661 0.0
H771 H 0.61771 0.35993 0.16451 0.0
H772 H 0.6529 0.4121 0.17446 0.0
H773 H 0.68054 0.39356 0.11953 0.0
H774 H 0.65471 0.32683 0.22372 0.0
H775 H 0.64628 0.3075 0.16109 0.0
H776 H 0.62952 0.32521 0.19849 0.0
H777 H 0.61869 0.33329 0.05683 0.0
H778 H 0.63549 0.31566 0.01894 0.0
H779 H 0.63646 0.34055 0.98545 0.0
H780 H 0.70423 0.36861 0.06018 0.0
H781 H 0.72206 0.33958 0.01272 0.0
H782 H 0.67099 0.3042 0.04864 0.0
C783 C 0.63119 0.36754 0.15488 0.0
C784 C 0.63315 0.38749 0.17321 0.0
C785 C 0.65112 0.3968 0.16077 0.0
C786 C 0.66684 0.3864 0.12936 0.0
C787 C 0.66435 0.36669 0.11159 0.0
C788 C 0.64697 0.35737 0.12477 0.0
C789 C 0.64799 0.33601 0.10368 0.0
C790 C 0.64442 0.32314 0.17606 0.0
C791 C 0.63382 0.3311 0.03728 0.0
C792 C 0.66867 0.33464 0.07627 0.0
C793 C 0.67791 0.35246 0.08038 0.0
C794 C 0.6971 0.35461 0.05708 0.0
C795 C 0.7071 0.33807 0.02992 0.0
C796 C 0.69793 0.31965 0.02722 0.0
C797 C 0.67845 0.31806 0.05035 0.0
H798 H 0.01876 0.3601 0.29738 0.0
H799 H 0.98451 0.41285 0.28958 0.0
H800 H 0.95605 0.39417 0.33744 0.0
H801 H 0.98138 0.32728 0.23161 0.0
H802 H 0.98957 0.3078 0.29406 0.0
H803 H 0.00651 0.3255 0.25764 0.0
H804 H 0.01712 0.33317 0.39993 0.0
H805 H 1.00009 0.31563 0.43684 0.0
H806 H 0.99926 0.34046 0.47083 0.0
H807 H 0.93175 0.36893 0.39494 0.0
H808 H 0.91402 0.33996 0.44469 0.0
H809 H 0.96504 0.30462 0.40857 0.0
C810 C 0.00525 0.36778 0.30525 0.0
C811 C 0.00383 0.38795 0.29013 0.0
C812 C 0.98586 0.39738 0.30056 0.0
C813 C 0.96969 0.38689 0.32803 0.0
C814 C 0.97175 0.36698 0.34372 0.0
C815 C 0.98911 0.35758 0.33156 0.0
C816 C 0.98792 0.3362 0.35209 0.0
C817 C 0.99155 0.32345 0.27952 0.0
C818 C 1.00193 0.33108 0.41889 0.0
C819 C 0.9672 0.33491 0.37869 0.0
C820 C 0.958 0.35274 0.37408 0.0
C821 C 0.93884 0.35491 0.39803 0.0
C822 C 0.9289 0.33842 0.42649 0.0
C823 C 0.93811 0.32003 0.43011 0.0
C824 C 0.95751 0.31842 0.40595 0.0
H825 H 0.96378 0.70317 0.58144 0.0
H826 H 0.91237 0.66745 0.5646 0.0
H827 H 0.931 0.63894 0.6129 0.0
H828 H 0.99699 0.6667 0.5145 0.0
H829 H 0.01598 0.67469 0.57897 0.0
H830 H 0.99831 0.69185 0.54439 0.0
H831 H 0.99013 0.70108 0.68782 0.0
H832 H 0.00768 0.68384 0.72287 0.0
H833 H 0.98301 0.68228 0.75568 0.0
H834 H 0.95603 0.61443 0.66858 0.0
H835 H 0.98498 0.59628 0.71402 0.0
H836 H 0.01934 0.64864 0.68724 0.0
C837 C 0.95637 0.68936 0.58784 0.0
C838 C 0.9366 0.68753 0.56965 0.0
C839 C 0.92754 0.66915 0.57808 0.0
C840 C 0.938 0.65293 0.60578 0.0
C841 C 0.95752 0.65532 0.6239 0.0
C842 C 0.96659 0.67311 0.61426 0.0
C843 C 0.98772 0.67203 0.6355 0.0
C844 C 1.0005 0.67658 0.56408 0.0
C845 C 0.9924 0.68561 0.70457 0.0
C846 C 0.98925 0.65087 0.65906 0.0
C847 C 0.97172 0.64139 0.65288 0.0
C848 C 0.96982 0.62174 0.67311 0.0
C849 C 0.98629 0.61156 0.69917 0.0
C850 C 0.00441 0.62101 0.7038 0.0
C851 C 0.00573 0.64093 0.68382 0.0
H852 H 0.45493 0.30436 0.13707 0.0
H853 H 0.44218 0.33046 0.91194 0.0
H854 H 0.4582 0.36098 0.95474 0.0
H855 H 0.45159 0.34985 0.25842 0.0
H856 H 0.4715 0.34219 0.31884 0.0
H857 H 0.45562 0.32429 0.27632 0.0
H858 H 0.48498 0.30713 0.21281 0.0
H859 H 0.50091 0.32496 0.25449 0.0
H860 H 0.50089 0.32092 0.15022 0.0
H861 H 0.48045 0.3864 0.01481 0.0
H862 H 0.50651 0.40383 0.08426 0.0
H863 H 0.50466 0.36071 0.26971 0.0
C864 C 0.45506 0.31669 0.09744 0.0
C865 C 0.44732 0.31508 0.02116 0.0
C866 C 0.44781 0.33147 0.97094 0.0
C867 C 0.45693 0.34883 0.9948 0.0
C868 C 0.46522 0.34959 0.06937 0.0
C869 C 0.46413 0.33395 0.1202 0.0
C870 C 0.47593 0.3374 0.19344 0.0
C871 C 0.46288 0.3385 0.26605 0.0
C872 C 0.4916 0.32168 0.20323 0.0
C873 C 0.48463 0.35706 0.17462 0.0
C874 C 0.47802 0.36408 0.1036 0.0
C875 C 0.48536 0.38122 0.07124 0.0
C876 C 0.50012 0.39111 0.1114 0.0
C877 C 0.50758 0.38372 0.18279 0.0
C878 C 0.49924 0.36678 0.21549 0.0
H879 H 0.44844 0.69488 0.84057 0.0
H880 H 0.43684 0.67816 0.08124 0.0
H881 H 0.45472 0.64758 0.06044 0.0
H882 H 0.44977 0.64464 0.75296 0.0
H883 H 0.46965 0.65111 0.69003 0.0
H884 H 0.45209 0.66925 0.71733 0.0
H885 H 0.47941 0.69131 0.7706 0.0
H886 H 0.49698 0.67332 0.74361 0.0
H887 H 0.49572 0.68179 0.84335 0.0
H888 H 0.4786 0.62206 0.02212 0.0
H889 H 0.50692 0.60434 0.97099 0.0
H890 H 0.5045 0.63816 0.75714 0.0
C891 C 0.4493 0.68466 0.88869 0.0
C892 C 0.44114 0.68907 0.96273 0.0
C893 C 0.44258 0.67511 0.02358 0.0
C894 C 0.45281 0.65766 0.01234 0.0
C895 C 0.46147 0.65428 0.9398 0.0
C896 C 0.45971 0.66736 0.87879 0.0
C897 C 0.47248 0.66169 0.81029 0.0
C898 C 0.46026 0.65635 0.73839 0.0
C899 C 0.48701 0.67799 0.7909 0.0
C900 C 0.48246 0.64389 0.84367 0.0
C901 C 0.47554 0.63959 0.91776 0.0
C902 C 0.4838 0.62501 0.96355 0.0
C903 C 0.49987 0.61502 0.93408 0.0
C904 C 0.50764 0.61969 0.85968 0.0
C905 C 0.49844 0.6339 0.81304 0.0
H906 H 0.1895 0.68439 0.49188 0.0
H907 H 0.21966 0.69043 0.71231 0.0
H908 H 0.20091 0.66304 0.76732 0.0
H909 H 0.14533 0.67783 0.56835 0.0
H910 H 0.13648 0.66007 0.49948 0.0
H911 H 0.15516 0.67674 0.47069 0.0
H912 H 0.17736 0.64795 0.43252 0.0
H913 H 0.15857 0.6311 0.45996 0.0
H914 H 0.18222 0.62901 0.50294 0.0
H915 H 0.17452 0.64023 0.80656 0.0
H916 H 0.14398 0.62254 0.82459 0.0
H917 H 0.13164 0.62939 0.57663 0.0
C918 C 0.19283 0.67918 0.55019 0.0
C919 C 0.20633 0.68913 0.59738 0.0
C920 C 0.20968 0.68264 0.67487 0.0
C921 C 0.19905 0.66715 0.70661 0.0
C922 C 0.18516 0.65817 0.65995 0.0
C923 C 0.18226 0.66368 0.58282 0.0
C924 C 0.16494 0.65324 0.54839 0.0
C925 C 0.14958 0.66784 0.52012 0.0
C926 C 0.17115 0.63951 0.48202 0.0
C927 C 0.15799 0.64187 0.61921 0.0
C928 C 0.16997 0.6447 0.68268 0.0
C929 C 0.16534 0.63741 0.75662 0.0
C930 C 0.1479 0.62724 0.76623 0.0
C931 C 0.13517 0.62437 0.70223 0.0
C932 C 0.14078 0.63136 0.62735 0.0
H933 H 0.18629 0.31846 0.48346 0.0
H934 H 0.2211 0.3192 0.27244 0.0
H935 H 0.20194 0.34668 0.22167 0.0
H936 H 0.14298 0.32613 0.39717 0.0
H937 H 0.13291 0.34194 0.47078 0.0
H938 H 0.1513 0.3247 0.49703 0.0
H939 H 0.1725 0.3525 0.55278 0.0
H940 H 0.15402 0.36987 0.5276 0.0
H941 H 0.17828 0.37317 0.49197 0.0
H942 H 0.17531 0.3697 0.1835 0.0
H943 H 0.14486 0.38768 0.16558 0.0
H944 H 0.12916 0.37457 0.40624 0.0
C945 C 0.1904 0.32492 0.42808 0.0
C946 C 0.20518 0.31658 0.38192 0.0
C947 C 0.20973 0.32519 0.30864 0.0
C948 C 0.19899 0.3409 0.27939 0.0
C949 C 0.18393 0.34819 0.32469 0.0
C950 C 0.1799 0.34076 0.39826 0.0
C951 C 0.16199 0.35016 0.43231 0.0
C952 C 0.14639 0.33482 0.45033 0.0
C953 C 0.167 0.36214 0.5055 0.0
C954 C 0.15607 0.36324 0.36491 0.0
C955 C 0.16897 0.36205 0.30357 0.0
C956 C 0.16538 0.3712 0.23201 0.0
C957 C 0.14801 0.38151 0.22246 0.0
C958 C 0.13438 0.38264 0.28421 0.0
C959 C 0.13899 0.37388 0.35711 0.0
H960 H 0.08354 0.05039 0.06535 0.0
H961 H 0.05963 0.01688 0.25802 0.0
H962 H 0.05853 0.98771 0.17354 0.0
H963 H 0.05527 0.02755 0.91177 0.0
H964 H 0.07466 0.02801 0.84147 0.0
H965 H 0.0734 0.04635 0.91667 0.0
H966 H 0.10792 0.03761 0.96154 0.0
H967 H 0.10937 0.01924 0.88658 0.0
H968 H 0.11354 0.01279 0.98749 0.0
H969 H 0.0609 0.96189 0.06915 0.0
H970 H 0.06617 0.94135 0.95249 0.0
H971 H 0.08791 0.99166 0.8261 0.0
C972 C 0.07799 0.03695 0.08978 0.0
C973 C 0.07165 0.03599 0.16861 0.0
C974 C 0.06448 0.01807 0.19793 0.0
C975 C 0.06381 1.00139 0.15033 0.0
C976 C 0.0702 0.00284 0.0731 0.0
C977 C 0.07706 0.02018 0.04282 0.0
C978 C 0.08315 0.01777 0.95794 0.0
C979 C 0.07088 0.03068 0.90378 0.0
C980 C 0.10478 0.0221 0.94784 0.0
C981 C 0.0788 0.99631 0.94543 0.0
C982 C 0.07136 0.98798 0.01267 0.0
C983 C 0.06668 0.96825 0.01617 0.0
C984 C 0.06979 0.95667 0.94955 0.0
C985 C 0.07747 0.96482 0.87989 0.0
C986 C 0.08184 0.98498 0.87803 0.0
H987 H 0.33529 0.76505 0.08836 0.0
H988 H 0.38486 0.75261 0.23508 0.0
H989 H 0.36344 0.74854 0.34921 0.0
H990 H 0.31048 0.79384 0.23245 0.0
H991 H 0.28671 0.78556 0.20554 0.0
H992 H 0.30567 0.78611 0.13348 0.0
H993 H 0.30013 0.74951 0.10477 0.0
H994 H 0.28114 0.74891 0.1768 0.0
H995 H 0.30109 0.73219 0.18407 0.0
H996 H 0.33689 0.74553 0.44756 0.0
H997 H 0.30713 0.74656 0.5267 0.0
H998 H 0.27452 0.76334 0.32053 0.0
C999 C 0.34154 0.76122 0.14436 0.0
C1000 C 0.36175 0.75892 0.15261 0.0
C1001 C 0.36945 0.75437 0.22725 0.0
C1002 C 0.35738 0.75197 0.29245 0.0
C1003 C 0.33759 0.75444 0.28269 0.0
C1004 C 0.32968 0.75918 0.21083 0.0
C1005 C 0.30801 0.76219 0.218 0.0
C1006 C 0.3024 0.78317 0.19609 0.0
C1007 C 0.29694 0.74731 0.16794 0.0
C1008 C 0.30505 0.7584 0.30492 0.0
C1009 C 0.3223 0.75368 0.3407 0.0
C1010 C 0.32331 0.74927 0.42027 0.0
C1011 C 0.3063 0.74984 0.46475 0.0
C1012 C 0.28849 0.75508 0.43009 0.0
C1013 C 0.28793 0.75939 0.3489 0.0
H1014 H 0.59789 0.02657 0.36426 0.0
H1015 H 0.53665 0.03915 0.34843 0.0
H1016 H 0.5303 0.01626 0.45651 0.0
H1017 H 0.59341 0.97511 0.41168 0.0
H1018 H 0.61319 0.97527 0.48002 0.0
H1019 H 0.61296 0.99214 0.39918 0.0
H1020 H 0.61654 0.02092 0.49622 0.0
H1021 H 0.61663 0.00415 0.57739 0.0
H1022 H 0.59928 0.02369 0.57442 0.0
H1023 H 0.53032 0.99194 0.56565 0.0
H1024 H 0.53681 0.96804 0.6702 0.0
H1025 H 0.59813 0.97181 0.62092 0.0
C1026 C 0.58312 0.02431 0.38286 0.0
C1027 C 0.56776 0.03459 0.34707 0.0
C1028 C 0.54869 0.03144 0.37441 0.0
C1029 C 0.54491 0.01845 0.43593 0.0
C1030 C 0.56034 0.00873 0.47039 0.0
C1031 C 0.57908 0.01149 0.44511 0.0
C1032 C 0.59305 0.99957 0.49417 0.0
C1033 C 0.60378 0.98464 0.44322 0.0
C1034 C 0.60721 0.01288 0.53815 0.0
C1035 C 0.57921 0.9896 0.55043 0.0
C1036 C 0.56041 0.99509 0.53535 0.0
C1037 C 0.54499 0.9876 0.57822 0.0
C1038 C 0.54884 0.97402 0.63765 0.0
C1039 C 0.56799 0.96812 0.65452 0.0
C1040 C 0.58335 0.97619 0.61039 0.0
H1041 H 0.35135 0.26913 0.86153 0.0
H1042 H 0.37683 0.21454 0.78627 0.0
H1043 H 0.35134 0.21082 0.68679 0.0
H1044 H 0.30317 0.25603 0.8407 0.0
H1045 H 0.29414 0.27839 0.79898 0.0
H1046 H 0.31484 0.27876 0.86272 0.0
H1047 H 0.33635 0.29505 0.75996 0.0
H1048 H 0.31584 0.29655 0.69545 0.0
H1049 H 0.33776 0.28504 0.66259 0.0
H1050 H 0.32188 0.21167 0.6021 0.0
H1051 H 0.292 0.21865 0.52841 0.0
H1052 H 0.28653 0.27388 0.64961 0.0
C1053 C 0.35154 0.25643 0.82397 0.0
C1054 C 0.36601 0.24203 0.83215 0.0
C1055 C 0.36592 0.22575 0.78116 0.0
C1056 C 0.35146 0.22348 0.72449 0.0
C1057 C 0.33734 0.23782 0.7182 0.0
C1058 C 0.33745 0.25417 0.76538 0.0
C1059 C 0.32073 0.26756 0.745 0.0
C1060 C 0.3074 0.27036 0.81601 0.0
C1061 C 0.32812 0.28721 0.71389 0.0
C1062 C 0.31095 0.25589 0.6806 0.0
C1063 C 0.32077 0.23875 0.66641 0.0
C1064 C 0.31419 0.22516 0.61195 0.0
C1065 C 0.29718 0.22922 0.57053 0.0
C1066 C 0.28706 0.24686 0.58263 0.0
C1067 C 0.29414 0.2604 0.63824 0.0
H1068 H 0.78886 0.23045 0.85117 0.0
H1069 H 0.77639 0.29232 0.86289 0.0
H1070 H 0.80281 0.29895 0.77025 0.0
H1071 H 0.84116 0.23465 0.83215 0.0
H1072 H 0.84319 0.21501 0.76268 0.0
H1073 H 0.82395 0.21496 0.83362 0.0
H1074 H 0.79892 0.21206 0.72166 0.0
H1075 H 0.81809 0.2122 0.65041 0.0
H1076 H 0.79893 0.22986 0.64398 0.0
H1077 H 0.83095 0.29934 0.68036 0.0
H1078 H 0.85792 0.2932 0.58932 0.0
H1079 H 0.85112 0.23097 0.62339 0.0
C1080 C 0.79187 0.24538 0.83469 0.0
C1081 C 0.78064 0.2609 0.86484 0.0
C1082 C 0.78478 0.28021 0.84072 0.0
C1083 C 0.7998 0.28414 0.7882 0.0
C1084 C 0.81048 0.2686 0.759 0.0
C1085 C 0.80666 0.24957 0.78055 0.0
C1086 C 0.81992 0.2356 0.73711 0.0
C1087 C 0.83282 0.22439 0.79484 0.0
C1088 C 0.80826 0.2216 0.68521 0.0
C1089 C 0.8317 0.24977 0.68794 0.0
C1090 C 0.82613 0.26874 0.70273 0.0
C1091 C 0.83531 0.28455 0.66764 0.0
C1092 C 0.85061 0.28093 0.61607 0.0
C1093 C 0.85639 0.26165 0.59855 0.0
C1094 C 0.84671 0.24584 0.63464 0.0
H1095 H 0.78938 0.72307 0.15514 0.0
H1096 H 0.78744 0.7838 0.08576 0.0
H1097 H 0.81304 0.79145 0.18179 0.0
H1098 H 0.79878 0.73019 0.35943 0.0
H1099 H 0.81546 0.71018 0.36799 0.0
H1100 H 0.79663 0.70945 0.29538 0.0
H1101 H 0.82214 0.7043 0.18622 0.0
H1102 H 0.84104 0.7049 0.25853 0.0
H1103 H 0.84174 0.7214 0.17645 0.0
H1104 H 0.83729 0.79285 0.29134 0.0
H1105 H 0.86172 0.78734 0.39439 0.0
H1106 H 0.85081 0.72521 0.38371 0.0
C1107 C 0.79442 0.73795 0.16025 0.0
C1108 C 0.78639 0.7529 0.11336 0.0
C1109 C 0.79346 0.77215 0.12089 0.0
C1110 C 0.80792 0.77663 0.17553 0.0
C1111 C 0.81552 0.76162 0.22108 0.0
C1112 C 0.80931 0.74259 0.21293 0.0
C1113 C 0.82056 0.72909 0.26668 0.0
C1114 C 0.80705 0.71913 0.32587 0.0
C1115 C 0.83205 0.71403 0.21912 0.0
C1116 C 0.83387 0.74352 0.30694 0.0
C1117 C 0.83046 0.76225 0.28061 0.0
C1118 C 0.84024 0.77823 0.31168 0.0
C1119 C 0.85401 0.77497 0.37049 0.0
C1120 C 0.85821 0.75587 0.39666 0.0
C1121 C 0.84801 0.73995 0.36418 0.0
H1122 H 0.61401 0.52313 0.65017 0.0
H1123 H 0.56067 0.55551 0.62242 0.0
H1124 H 0.55106 0.53354 0.51496 0.0
H1125 H 0.62168 0.51419 0.44436 0.0
H1126 H 0.63141 0.49013 0.45922 0.0
H1127 H 0.63413 0.50841 0.53404 0.0
H1128 H 0.61816 0.48537 0.6343 0.0
H1129 H 0.61489 0.46701 0.5601 0.0
H1130 H 0.59444 0.47585 0.61495 0.0
H1131 H 0.54803 0.50908 0.40538 0.0
H1132 H 0.55071 0.48246 0.30846 0.0
H1133 H 0.60492 0.46454 0.41226 0.0
C1134 C 0.60021 0.52552 0.62208 0.0
C1135 C 0.58805 0.54104 0.64538 0.0
C1136 C 0.57019 0.54367 0.60637 0.0
C1137 C 0.56464 0.53131 0.54486 0.0
C1138 C 0.57702 0.51627 0.52305 0.0
C1139 C 0.59439 0.51326 0.56074 0.0
C1140 C 0.60505 0.49603 0.5258 0.0
C1141 C 0.6242 0.50259 0.48865 0.0
C1142 C 0.60833 0.48011 0.58748 0.0
C1143 C 0.59079 0.48952 0.46375 0.0
C1144 C 0.57489 0.50167 0.46212 0.0
C1145 C 0.56029 0.49934 0.40682 0.0
C1146 C 0.56195 0.48421 0.35195 0.0
C1147 C 0.57787 0.47132 0.35362 0.0
C1148 C 0.5924 0.47396 0.41069 0.0
H1149 H 0.04192 0.53511 0.88191 0.0
H1150 H 0.10342 0.54277 0.84861 0.0
H1151 H 0.1098 0.51807 0.95108 0.0
H1152 H 0.04201 0.52636 0.09016 0.0
H1153 H 0.02383 0.50763 0.08626 0.0
H1154 H 0.02415 0.52665 0.01351 0.0
H1155 H 0.02566 0.50057 0.90372 0.0
H1156 H 0.02543 0.4815 0.97624 0.0
H1157 H 0.04466 0.48267 0.90537 0.0
H1158 H 0.10941 0.49382 0.06239 0.0
H1159 H 0.10249 0.46835 0.16116 0.0
H1160 H 0.04138 0.47338 0.11191 0.0
C1161 C 0.0567 0.53154 0.89643 0.0
C1162 C 0.07222 0.54087 0.85779 0.0
C1163 C 0.09137 0.5357 0.87738 0.0
C1164 C 0.09511 0.52179 0.9358 0.0
C1165 C 0.07953 0.51284 0.97296 0.0
C1166 C 0.0607 0.51721 0.95299 0.0
C1167 C 0.04662 0.50453 -0.00161 0.0
C1168 C 0.03337 0.51704 0.05014 0.0
C1169 C 0.03489 0.49155 0.9426 0.0
C1170 C 0.06046 0.49252 0.04758 0.0
C1171 C 0.07936 0.49783 0.033 0.0
C1172 C 0.09468 0.48941 0.07362 0.0
C1173 C 0.09062 0.47503 0.12986 0.0
C1174 C 0.07145 0.46886 0.14377 0.0
C1175 C 0.05619 0.47772 0.10186 0.0
H1176 H 0.06886 0.11698 0.89515 0.0
H1177 H 0.12388 0.0956 0.97979 0.0
H1178 H 0.1321 0.08434 0.84693 0.0
H1179 H 0.05947 0.07827 0.7666 0.0
H1180 H 0.04871 0.09291 0.69064 0.0
H1181 H 0.04757 0.10081 0.79102 0.0
H1182 H 0.06369 0.1336 0.75362 0.0
H1183 H 0.06462 0.12593 0.65282 0.0
H1184 H 0.08637 0.13348 0.70198 0.0
H1185 H 0.13337 0.07322 0.70863 0.0
H1186 H 0.12863 0.06509 0.56921 0.0
H1187 H 0.07301 0.09395 0.57312 0.0
C1188 C 0.08282 0.1104 0.88511 0.0
C1189 C 0.09572 0.10709 0.94757 0.0
C1190 C 0.11372 0.09805 0.93272 0.0
C1191 C 0.11854 0.09167 0.85754 0.0
C1192 C 0.10526 0.09458 0.79772 0.0
C1193 C 0.08787 0.10393 0.81021 0.0
C1194 C 0.07592 0.10452 0.73608 0.0
C1195 C 0.05679 0.09347 0.74676 0.0
C1196 C 0.07246 0.12564 0.70956 0.0
C1197 C 0.08927 0.09391 0.68044 0.0
C1198 C 0.10608 0.08826 0.7173 0.0
C1199 C 0.12034 0.07768 0.6788 0.0
C1200 C 0.11744 0.07297 0.59995 0.0
C1201 C 0.10046 0.0789 0.56064 0.0
C1202 C 0.08621 0.08945 0.60168 0.0
H1203 H 0.20814 0.75469 0.15413 0.0
H1204 H 0.23145 0.80933 0.23947 0.0
H1205 H 0.24316 0.8172 0.10692 0.0
H1206 H 0.24617 0.74369 0.0258 0.0
H1207 H 0.23128 0.73349 0.94964 0.0
H1208 H 0.22336 0.7326 0.04997 0.0
H1209 H 0.19163 0.75025 0.01261 0.0
H1210 H 0.19932 0.75095 0.91186 0.0
H1211 H 0.19275 0.77318 0.96122 0.0
H1212 H 0.25446 0.81806 0.96859 0.0
H1213 H 0.26226 0.81305 0.82888 0.0
H1214 H 0.23121 0.7582 0.83233 0.0
C1215 C 0.21526 0.76851 0.14434 0.0
C1216 C 0.21897 0.78137 0.20695 0.0
C1217 C 0.22868 0.79918 0.19234 0.0
C1218 C 0.23533 0.80381 0.11732 0.0
C1219 C 0.232 0.79054 0.05738 0.0
C1220 C 0.22199 0.77338 0.0696 0.0
C1221 C 0.22093 0.7614 0.99534 0.0
C1222 C 0.23104 0.74163 0.00585 0.0
C1223 C 0.19991 0.7588 0.96869 0.0
C1224 C 0.23203 0.77447 0.93992 0.0
C1225 C 0.23836 0.79116 0.97699 0.0
C1226 C 0.24946 0.80513 0.93859 0.0
C1227 C 0.25397 0.80209 0.8596 0.0
C1228 C 0.2473 0.78527 0.82009 0.0
C1229 C 0.23628 0.77129 0.86107 0.0
H1230 H 0.53948 0.95043 0.16376 0.0
H1231 H 0.57386 0.90441 0.06108 0.0
H1232 H 0.57851 0.8896 0.1906 0.0
H1233 H 0.56743 0.95414 0.34725 0.0
H1234 H 0.5465 0.95825 0.40755 0.0
H1235 H 0.5466 0.9662 0.30697 0.0
H1236 H 0.51552 0.94628 0.28052 0.0
H1237 H 0.51528 0.93827 0.38094 0.0
H1238 H 0.51511 0.92062 0.30286 0.0
H1239 H 0.57844 0.87887 0.32754 0.0
H1240 H 0.57463 0.87317 0.46853 0.0
H1241 H 0.53952 0.92544 0.48637 0.0
C1242 C 0.54814 0.93739 0.16938 0.0
C1243 C 0.55623 0.9284 0.10277 0.0
C1244 C 0.56741 0.91131 0.11139 0.0
C1245 C 0.57019 0.90285 0.18474 0.0
C1246 C 0.56172 0.91172 0.24918 0.0
C1247 C 0.55103 0.92866 0.24285 0.0
C1248 C 0.54311 0.93468 0.32209 0.0
C1249 C 0.55141 0.95449 0.34746 0.0
C1250 C 0.52094 0.93497 0.32153 0.0
C1251 C 0.5508 0.91828 0.3729 0.0
C1252 C 0.56157 0.90532 0.32945 0.0
C1253 C 0.57004 0.8889 0.36253 0.0
C1254 C 0.56761 0.88568 0.44275 0.0
C1255 C 0.5567 0.89876 0.48914 0.0
C1256 C 0.54813 0.91524 0.45317 0.0
H1257 H 0.39368 0.215 0.29913 0.0
H1258 H 0.42592 0.26545 0.2187 0.0
H1259 H 0.4387 0.27023 0.35151 0.0
H1260 H 0.38171 0.23596 0.4949 0.0
H1261 H 0.38371 0.21262 0.54253 0.0
H1262 H 0.37588 0.21401 0.44205 0.0
H1263 H 0.40327 0.19033 0.40224 0.0
H1264 H 0.41139 0.18911 0.50219 0.0
H1265 H 0.4279 0.19636 0.42599 0.0
H1266 H 0.45107 0.26726 0.48773 0.0
H1267 H 0.4587 0.25942 0.62558 0.0
H1268 H 0.41696 0.21242 0.62097 0.0
C1269 C 0.403 0.22735 0.30971 0.0
C1270 C 0.40906 0.23961 0.24781 0.0
C1271 C 0.42145 0.25553 0.26448 0.0
C1272 C 0.42871 0.25847 0.33993 0.0
C1273 C 0.42312 0.24563 0.39868 0.0
C1274 C 0.41018 0.23068 0.38515 0.0
C1275 C 0.40685 0.21878 0.45871 0.0
C1276 C 0.38579 0.22045 0.48616 0.0
C1277 C 0.41271 0.19738 0.44651 0.0
C1278 C 0.42042 0.22901 0.51467 0.0
C1279 C 0.42969 0.24443 0.47871 0.0
C1280 C 0.4437 0.25542 0.51702 0.0
C1281 C 0.4481 0.25074 0.59481 0.0
C1282 C 0.4384 0.23535 0.63339 0.0
C1283 C 0.42442 0.22437 0.59269 0.0
H1284 H 0.0826 0.94253 0.3876 0.0
H1285 H 0.10324 0.88958 0.49685 0.0
H1286 H 0.10601 0.87389 0.36697 0.0
H1287 H 0.05364 0.91801 0.2414 0.0
H1288 H 0.05849 0.9353 0.16459 0.0
H1289 H 0.05859 0.9431 0.26527 0.0
H1290 H 0.09317 0.9565 0.25088 0.0
H1291 H 0.09336 0.94928 0.14956 0.0
H1292 H 0.11202 0.94082 0.21467 0.0
H1293 H 0.10739 0.8644 0.22659 0.0
H1294 H 0.10599 0.86089 0.08349 0.0
H1295 H 0.08246 0.9194 0.0648 0.0
C1296 C 0.08766 0.92765 0.38346 0.0
C1297 C 0.09265 0.91711 0.45124 0.0
C1298 C 0.0992 0.89766 0.44491 0.0
C1299 C 0.10088 0.88873 0.37169 0.0
C1300 C 0.09578 0.89943 0.30566 0.0
C1301 C 0.08915 0.9184 0.31066 0.0
C1302 C 0.08408 0.92634 0.2305 0.0
C1303 C 0.06242 0.93096 0.22516 0.0
C1304 C 0.0964 0.94429 0.21024 0.0
C1305 C 0.08933 0.90903 0.17983 0.0
C1306 C 0.09605 0.8937 0.22442 0.0
C1307 C 0.102 0.87624 0.1909 0.0
C1308 C 0.10103 0.87436 0.10938 0.0
C1309 C 0.09405 0.88981 0.06214 0.0
C1310 C 0.0881 0.90735 0.09847 0.0
H1311 H 0.41453 0.7572 0.71858 0.0
H1312 H 0.39079 0.81562 0.72516 0.0
H1313 H 0.39947 0.82025 0.58642 0.0
H1314 H 0.45485 0.76781 0.59113 0.0
H1315 H 0.45315 0.74517 0.53816 0.0
H1316 H 0.44538 0.74639 0.63873 0.0
H1317 H 0.41165 0.73339 0.59931 0.0
H1318 H 0.41939 0.73194 0.49884 0.0
H1319 H 0.39819 0.74577 0.52396 0.0
H1320 H 0.41064 0.81873 0.44835 0.0
H1321 H 0.42149 0.81027 0.31519 0.0
H1322 H 0.43769 0.75263 0.3957 0.0
C1323 C 0.41124 0.77097 0.6907 0.0
C1324 C 0.40193 0.78604 0.73253 0.0
C1325 C 0.39765 0.80379 0.694 0.0
C1326 C 0.4027 0.80662 0.61544 0.0
C1327 C 0.41197 0.79154 0.57609 0.0
C1328 C 0.41606 0.77399 0.61199 0.0
C1329 C 0.4255 0.75993 0.55523 0.0
C1330 C 0.44593 0.75451 0.58246 0.0
C1331 C 0.41293 0.74168 0.54365 0.0
C1332 C 0.42604 0.77235 0.48184 0.0
C1333 C 0.41827 0.79057 0.49558 0.0
C1334 C 0.41674 0.80451 0.43678 0.0
C1335 C 0.42288 0.79955 0.36136 0.0
C1336 C 0.43038 0.7808 0.3451 0.0
C1337 C 0.43229 0.76716 0.40665 0.0
H1338 H 0.54138 0.07869 0.52341 0.0
H1339 H 0.58093 0.12771 0.53614 0.0
H1340 H 0.58621 0.12101 0.67582 0.0
H1341 H 0.51964 0.08516 0.70804 0.0
H1342 H 0.5178 0.05955 0.73027 0.0
H1343 H 0.51773 0.06759 0.62996 0.0
H1344 H 0.54667 0.04493 0.59996 0.0
H1345 H 0.54692 0.03685 0.70038 0.0
H1346 H 0.5684 0.04703 0.65716 0.0
H1347 H 0.58642 0.11021 0.81308 0.0
H1348 H 0.58015 0.09676 0.94447 0.0
H1349 H 0.54117 0.05407 0.84532 0.0
C1350 C 0.55133 0.08789 0.55519 0.0
C1351 C 0.56069 0.1038 0.51843 0.0
C1352 C 0.57333 0.11566 0.56284 0.0
C1353 C 0.57662 0.11182 0.64211 0.0
C1354 C 0.5673 0.09597 0.6761 0.0
C1355 C 0.55488 0.08419 0.63439 0.0
C1356 C 0.54612 0.06856 0.68625 0.0
C1357 C 0.52401 0.07033 0.68878 0.0
C1358 C 0.55241 0.04814 0.65934 0.0
C1359 C 0.55513 0.07384 0.76428 0.0
C1360 C 0.5675 0.08955 0.75639 0.0
C1361 C 0.57689 0.09784 0.82006 0.0
C1362 C 0.5732 0.09019 0.89426 0.0
C1363 C 0.56017 0.07451 0.90428 0.0
C1364 C 0.55135 0.06591 0.83845 0.0
H1365 H 0.24097 0.24639 0.78474 0.0
H1366 H 0.19337 0.20564 0.77948 0.0
H1367 H 0.19992 0.19661 0.91776 0.0
H1368 H 0.27293 0.21867 0.91324 0.0
H1369 H 0.28131 0.24051 0.96102 0.0
H1370 H 0.27308 0.24141 0.86081 0.0
H1371 H 0.24912 0.26887 0.90209 0.0
H1372 H 0.25684 0.26691 0.00235 0.0
H1373 H 0.23173 0.2639 0.97805 0.0
H1374 H 0.21228 0.19178 0.05476 0.0
H1375 H 0.22579 0.19496 0.18731 0.0
H1376 H 0.26359 0.2412 0.10561 0.0
C1377 C 0.23204 0.23553 0.81309 0.0
C1378 C 0.21679 0.22654 0.77241 0.0
C1379 C 0.20507 0.21263 0.81062 0.0
C1380 C 0.2088 0.20734 0.88851 0.0
C1381 C 0.22412 0.21638 0.92707 0.0
C1382 C 0.2353 0.23045 0.89113 0.0
C1383 C 0.24996 0.23895 0.94702 0.0
C1384 C 0.27057 0.23463 0.91895 0.0
C1385 C 0.24671 0.26096 0.95803 0.0
C1386 C 0.24517 0.22764 0.02052 0.0
C1387 C 0.23052 0.21439 0.00722 0.0
C1388 C 0.2236 0.20227 0.06612 0.0
C1389 C 0.23132 0.20428 0.1414 0.0
C1390 C 0.2455 0.21864 0.15776 0.0
C1391 C 0.25287 0.23003 0.09558 0.0
H1392 H 0.88321 0.29025 0.13861 0.0
H1393 H 0.91365 0.23868 0.2175 0.0
H1394 H 0.92551 0.233 0.08361 0.0
H1395 H 0.87007 0.27011 0.94067 0.0
H1396 H 0.87329 0.29342 0.89385 0.0
H1397 H 0.8653 0.29221 0.9942 0.0
H1398 H 0.8938 0.31444 0.03498 0.0
H1399 H 0.90207 0.31544 0.93517 0.0
H1400 H 0.91811 0.30722 0.01133 0.0
H1401 H 0.93754 0.23521 0.94782 0.0
H1402 H 0.94601 0.24298 0.81099 0.0
H1403 H 0.907 0.2923 0.81597 0.0
C1404 C 0.89185 0.27745 0.12695 0.0
C1405 C 0.89768 0.26499 0.18838 0.0
C1406 C 0.90928 0.24855 0.17134 0.0
C1407 C 0.91602 0.24516 0.09551 0.0
C1408 C 0.91077 0.25817 0.03692 0.0
C1409 C 0.89864 0.27376 0.05102 0.0
C1410 C 0.896 0.28595 0.97769 0.0
C1411 C 0.87491 0.28538 0.94997 0.0
C1412 C 0.90291 0.30701 0.99061 0.0
C1413 C 0.9091 0.27514 0.92147 0.0
C1414 C 0.91742 0.25915 0.95701 0.0
C1415 C 0.9309 0.24752 0.91879 0.0
C1416 C 0.93581 0.25217 0.84153 0.0
C1417 C 0.92718 0.26824 0.80331 0.0
C1418 C 0.91364 0.27984 0.84388 0.0
H1419 H 0.75937 0.71228 0.66899 0.0
H1420 H 0.73464 0.76697 0.74673 0.0
H1421 H 0.72379 0.77392 0.61237 0.0
H1422 H 0.77517 0.73074 0.47248 0.0
H1423 H 0.7695 0.70798 0.42507 0.0
H1424 H 0.77732 0.70817 0.52571 0.0
H1425 H 0.74649 0.6894 0.56594 0.0
H1426 H 0.7384 0.68924 0.46586 0.0
H1427 H 0.72318 0.69927 0.54129 0.0
H1428 H 0.71158 0.77277 0.4765 0.0
H1429 H 0.70231 0.76558 0.33985 0.0
H1430 H 0.73623 0.71262 0.34649 0.0
C1431 C 0.75224 0.72598 0.65705 0.0
C1432 C 0.74766 0.73901 0.71817 0.0
C1433 C 0.738 0.75666 0.70076 0.0
C1434 C 0.73186 0.76078 0.62468 0.0
C1435 C 0.7358 0.74724 0.56638 0.0
C1436 C 0.74611 0.7304 0.581 0.0
C1437 C 0.74757 0.71792 0.50812 0.0
C1438 C 0.76864 0.7161 0.48124 0.0
C1439 C 0.73836 0.69777 0.52113 0.0
C1440 C 0.73587 0.73008 0.45141 0.0
C1441 C 0.72922 0.74692 0.48638 0.0
C1442 C 0.71698 0.75982 0.44783 0.0
C1443 C 0.7116 0.75553 0.37082 0.0
C1444 C 0.71859 0.73859 0.33333 0.0
C1445 C 0.73091 0.72576 0.37405 0.0
H1446 H 0.69851 0.2579 0.61432 0.0
H1447 H 0.72691 0.30992 0.70113 0.0
H1448 H 0.73901 0.31699 0.56861 0.0
H1449 H 0.73447 0.24347 0.48445 0.0
H1450 H 0.7185 0.23523 0.40807 0.0
H1451 H 0.7106 0.23491 0.50845 0.0
H1452 H 0.68098 0.25611 0.47251 0.0
H1453 H 0.68863 0.25625 0.37166 0.0
H1454 H 0.68456 0.27892 0.42217 0.0
H1455 H 0.75093 0.31655 0.43056 0.0
H1456 H 0.75871 0.31054 0.29109 0.0
H1457 H 0.7214 0.25988 0.29239 0.0
C1458 C 0.70681 0.27105 0.60505 0.0
C1459 C 0.71193 0.28323 0.66831 0.0
C1460 C 0.72311 0.30017 0.65386 0.0
C1461 C 0.72998 0.30438 0.57872 0.0
C1462 C 0.72531 0.29167 0.51828 0.0
C1463 C 0.71369 0.27556 0.53011 0.0
C1464 C 0.7113 0.26399 0.45531 0.0
C1465 C 0.71919 0.24317 0.46468 0.0
C1466 C 0.69011 0.26382 0.42885 0.0
C1467 C 0.7237 0.27591 0.40028 0.0
C1468 C 0.73172 0.29178 0.43781 0.0
C1469 C 0.74452 0.30434 0.4001 0.0
C1470 C 0.749 0.30074 0.32138 0.0
C1471 C 0.74056 0.28484 0.28149 0.0
C1472 C 0.7278 0.2723 0.32161 0.0
H1473 H 0.93961 0.74286 0.14843 0.0
H1474 H 0.90289 0.69659 0.23663 0.0
H1475 H 0.89026 0.69107 0.10379 0.0
H1476 H 0.90692 0.76261 0.01727 0.0
H1477 H 0.9241 0.76794 0.94098 0.0
H1478 H 0.93183 0.76713 0.04149 0.0
H1479 H 0.95761 0.74121 0.00688 0.0
H1480 H 0.95016 0.74215 0.90586 0.0
H1481 H 0.95042 0.71921 0.95724 0.0
H1482 H 0.87893 0.69305 0.96527 0.0
H1483 H 0.87211 0.7003 0.82604 0.0
H1484 H 0.91701 0.74425 0.82668 0.0
C1485 C 0.92936 0.7312 0.13941 0.0
C1486 C 0.92211 0.72029 0.20306 0.0
C1487 C 0.9084 0.70536 0.18898 0.0
C1488 C 0.90121 0.70203 0.11366 0.0
C1489 C 0.9081 0.71354 0.05274 0.0
C1490 C 0.92211 0.72758 0.06436 0.0
C1491 C 0.92645 0.73846 0.98927 0.0
C1492 C 0.92205 0.76033 0.99781 0.0
C1493 C 0.94741 0.73504 0.96328 0.0
C1494 C 0.91234 0.72865 0.93437 0.0
C1495 C 0.90189 0.71432 0.97212 0.0
C1496 C 0.88723 0.70403 0.93463 0.0
C1497 C 0.88332 0.70835 0.856 0.0
C1498 C 0.89412 0.72273 0.81598 0.0
C1499 C 0.90879 0.73296 0.85583 0.0
H1500 H 0.59439 0.62637 0.41679 0.0
H1501 H 0.60049 0.5694 0.52461 0.0
H1502 H 0.60276 0.55428 0.39541 0.0
H1503 H 0.56443 0.61086 0.26099 0.0
H1504 H 0.57496 0.62674 0.18856 0.0
H1505 H 0.5753 0.63357 0.29028 0.0
H1506 H 0.61248 0.63732 0.28434 0.0
H1507 H 0.61224 0.63046 0.1825 0.0
H1508 H 0.627 0.61719 0.25102 0.0
H1509 H 0.60208 0.54475 0.25586 0.0
H1510 H 0.59889 0.54171 0.1122 0.0
H1511 H 0.59328 0.60445 0.09297 0.0
C1512 C 0.59641 0.61077 0.41295 0.0
C1513 C 0.59759 0.5992 0.48112 0.0
C1514 C 0.60007 0.57875 0.47375 0.0
C1515 C 0.60127 0.56992 0.40034 0.0
C1516 C 0.60006 0.58171 0.33447 0.0
C1517 C 0.59775 0.60168 0.33973 0.0
C1518 C 0.59607 0.61078 0.25924 0.0
C1519 C 0.57652 0.62109 0.24921 0.0
C1520 C 0.61296 0.62477 0.24336 0.0
C1521 C 0.5974 0.59275 0.20849 0.0
C1522 C 0.59977 0.57615 0.25315 0.0
C1523 C 0.60043 0.55764 0.21997 0.0
C1524 C 0.59852 0.55603 0.13865 0.0
C1525 C 0.59602 0.57282 0.09178 0.0
C1526 C 0.59563 0.5914 0.12727 0.0
H1527 H 0.03176 0.41871 0.91508 0.0
H1528 H 0.08341 0.38325 0.92221 0.0
H1529 H 0.09082 0.39243 0.78558 0.0
H1530 H 0.01844 0.40579 0.72097 0.0
H1531 H 0.00914 0.4295 0.69599 0.0
H1532 H 0.00885 0.42143 0.79624 0.0
H1533 H 0.0279 0.4523 0.83675 0.0
H1534 H 0.02848 0.46036 0.73632 0.0
H1535 H 0.05066 0.4576 0.79022 0.0
H1536 H 0.09235 0.40473 0.64965 0.0
H1537 H 0.08589 0.41595 0.51527 0.0
H1538 H 0.03232 0.44229 0.59256 0.0
C1539 C 0.04466 0.41304 0.88763 0.0
C1540 C 0.05705 0.4003 0.92852 0.0
C1541 C 0.07368 0.39286 0.89115 0.0
C1542 C 0.07811 0.39818 0.81414 0.0
C1543 C 0.06566 0.41085 0.77543 0.0
C1544 C 0.04913 0.41798 0.8103 0.0
C1545 C 0.03741 0.43008 0.75335 0.0
C1546 C 0.01728 0.42116 0.7409 0.0
C1547 C 0.03604 0.45135 0.78081 0.0
C1548 C 0.04979 0.4283 0.68059 0.0
C1549 C 0.06619 0.41748 0.69538 0.0
C1550 C 0.07956 0.41321 0.63722 0.0
C1551 C 0.07572 0.41957 0.56112 0.0
C1552 C 0.05852 0.42981 0.54354 0.0
C1553 C 0.04568 0.43472 0.60457 0.0
H1554 H 0.588 0.42571 0.56426 0.0
H1555 H 0.57704 0.36364 0.5742 0.0
H1556 H 0.56951 0.36636 0.71556 0.0
H1557 H 0.61279 0.42779 0.74508 0.0
H1558 H 0.60409 0.45202 0.76528 0.0
H1559 H 0.60638 0.44369 0.66583 0.0
H1560 H 0.56924 0.45273 0.64744 0.0
H1561 H 0.56825 0.45989 0.74896 0.0
H1562 H 0.55192 0.44164 0.7121 0.0
H1563 H 0.56665 0.37533 0.85634 0.0
H1564 H 0.57043 0.38911 0.98773 0.0
H1565 H 0.5833 0.44567 0.8862 0.0
C1566 C 0.58348 0.41282 0.59594 0.0
C1567 C 0.58283 0.39451 0.5589 0.0
C1568 C 0.57756 0.37777 0.60217 0.0
C1569 C 0.57312 0.37923 0.682 0.0
C1570 C 0.57415 0.39752 0.71716 0.0
C1571 C 0.5793 0.41399 0.67561 0.0
C1572 C 0.5816 0.43144 0.72865 0.0
C1573 C 0.60243 0.43922 0.72609 0.0
C1574 C 0.56688 0.44738 0.70808 0.0
C1575 C 0.57718 0.4222 0.80683 0.0
C1576 C 0.5727 0.40268 0.79884 0.0
C1577 C 0.56975 0.39069 0.86332 0.0
C1578 C 0.57185 0.39875 0.93801 0.0
C1579 C 0.57701 0.41862 0.94763 0.0
C1580 C 0.57926 0.43051 0.88088 0.0
H1581 H 0.04656 0.60605 0.447 0.0
H1582 H 0.05468 0.54351 0.43073 0.0
H1583 H 0.05799 0.54637 0.2871 0.0
H1584 H 0.01855 0.61142 0.27533 0.0
H1585 H 0.02906 0.63445 0.24771 0.0
H1586 H 0.028 0.62753 0.3493 0.0
H1587 H 0.06497 0.63224 0.36116 0.0
H1588 H 0.06617 0.63917 0.2595 0.0
H1589 H 0.0808 0.61939 0.29529 0.0
H1590 H 0.05996 0.5559 0.14728 0.0
H1591 H 0.05914 0.57123 0.01708 0.0
H1592 H 0.04995 0.62778 0.12395 0.0
C1593 C 0.04934 0.59299 0.41346 0.0
C1594 C 0.05049 0.57455 0.44982 0.0
C1595 C 0.05362 0.55773 0.40371 0.0
C1596 C 0.05566 0.55924 0.32241 0.0
C1597 C 0.05453 0.57767 0.28861 0.0
C1598 C 0.05141 0.59424 0.3325 0.0
C1599 C 0.05015 0.61222 0.28146 0.0
C1600 C 0.03025 0.62197 0.2889 0.0
C1601 C 0.0665 0.6266 0.3005 0.0
C1602 C 0.05287 0.60313 0.20168 0.0
C1603 C 0.05548 0.58319 0.20741 0.0
C1604 C 0.05786 0.57146 0.14192 0.0
C1605 C 0.05724 0.58029 0.06837 0.0
C1606 C 0.05421 0.60065 0.06099 0.0
C1607 C 0.05233 0.61223 0.12849 0.0
loop_
_geom_bond_atom_site_label_1
_geom_bond_atom_site_label_2
_geom_bond_distance
_geom_bond_site_symmetry_2
_ccdc_geom_bond_type
Co0 N4 2.148 . S
Co0 N10 2.128 . S
Co0 N20 2.194 . S
Co0 O25 2.351 . S
Co0 O26 2.155 . S
Co0 O27 2.096 . S
C1 N4 1.301 . S
C1 N5 1.328 . S
C1 H6 0.930 . S
C2 C3 1.333 . S
C2 N4 1.317 . S
C2 H7 0.930 . S
C3 C2 1.333 . S
C3 N5 1.350 . S
C3 H29 0.931 . S
N4 Co0 2.148 . S
N4 C1 1.301 . S
N4 C2 1.317 . S
N5 C1 1.328 . S
N5 C3 1.350 . S
H6 C1 0.930 . S
H7 C2 0.930 . S
C8 O9 1.224 . S
C8 O27 1.247 . S
O9 C8 1.224 . S
N10 Co0 2.128 . S
N10 C11 1.355 . S
N10 C13 1.311 . S
C11 N10 1.355 . S
C11 C12 1.363 . S
C11 H23 0.929 . S
C12 C11 1.363 . S
C12 N14 1.375 . S
C12 H30 0.931 . S
C13 N10 1.311 . S
C13 N14 1.347 . S
C13 H24 0.929 . S
N14 C12 1.375 . S
N14 C13 1.347 . S
C15 C18 1.365 . S
C15 N20 1.328 . S
C15 H21 0.929 . S
C16 C17 1.362 . S
C16 C19 1.378 . S
C16 H31 0.929 . S
C17 C16 1.362 . S
C17 C18 1.366 . S
C18 C15 1.365 . S
C18 C17 1.366 . S
C18 H32 0.930 . S
C19 C16 1.378 . S
C19 N20 1.315 . S
C19 H22 0.930 . S
N20 Co0 2.194 . S
N20 C15 1.328 . S
N20 C19 1.315 . S
H21 C15 0.929 . S
H22 C19 0.930 . S
H23 C11 0.929 . S
H24 C13 0.929 . S
O25 Co0 2.351 . S
O25 C28 1.244 . S
O26 Co0 2.155 . S
O26 C28 1.240 . S
O27 Co0 2.096 . S
O27 C8 1.247 . S
C28 O25 1.244 . S
C28 O26 1.240 . S
H29 C3 0.931 . S
H30 C12 0.931 . S
H31 C16 0.929 . S
H32 C18 0.930 . S
Co33 N37 2.148 . S
Co33 N43 2.128 . S
Co33 N53 2.194 . S
Co33 O58 2.351 . S
Co33 O59 2.155 . S
Co33 O60 2.096 . S
C34 N37 1.301 . S
C34 N38 1.328 . S
C34 H39 0.930 . S
C35 C36 1.333 . S
C35 N37 1.317 . S
C35 H40 0.930 . S
C36 C35 1.333 . S
C36 N38 1.350 . S
C36 H62 0.931 . S
N37 Co33 2.148 . S
N37 C34 1.301 . S
N37 C35 1.317 . S
N38 C34 1.328 . S
N38 C36 1.350 . S
H39 C34 0.930 . S
H40 C35 0.930 . S
C41 O42 1.224 . S
C41 O60 1.247 . S
O42 C41 1.224 . S
N43 Co33 2.128 . S
N43 C44 1.355 . S
N43 C46 1.311 . S
C44 N43 1.355 . S
C44 C45 1.363 . S
C44 H56 0.929 . S
C45 C44 1.363 . S
C45 N47 1.375 . S
C45 H63 0.931 . S
C46 N43 1.311 . S
C46 N47 1.347 . S
C46 H57 0.929 . S
N47 C45 1.375 . S
N47 C46 1.347 . S
C48 C51 1.365 . S
C48 N53 1.328 . S
C48 H54 0.929 . S
C49 C50 1.362 . S
C49 C52 1.378 . S
C49 H64 0.929 . S
C50 C49 1.362 . S
C50 C51 1.366 . S
C51 C48 1.365 . S
C51 C50 1.366 . S
C51 H65 0.930 . S
C52 C49 1.378 . S
C52 N53 1.315 . S
C52 H55 0.930 . S
N53 Co33 2.194 . S
N53 C48 1.328 . S
N53 C52 1.315 . S
H54 C48 0.929 . S
H55 C52 0.930 . S
H56 C44 0.929 . S
H57 C46 0.929 . S
O58 Co33 2.351 . S
O58 C61 1.244 . S
O59 Co33 2.155 . S
O59 C61 1.240 . S
O60 Co33 2.096 . S
O60 C41 1.247 . S
C61 O58 1.244 . S
C61 O59 1.240 . S
H62 C36 0.931 . S
H63 C45 0.931 . S
H64 C49 0.929 . S
H65 C51 0.930 . S
Co66 N70 2.148 . S
Co66 N76 2.128 . S
Co66 N86 2.194 . S
Co66 O91 2.351 . S
Co66 O92 2.155 . S
Co66 O93 2.096 . S
C67 N70 1.301 . S
C67 N71 1.328 1_556 S
C67 H72 0.930 . S
C68 C69 1.333 1_556 S
C68 N70 1.317 . S
C68 H73 0.930 . S
C69 C68 1.333 1_554 S
C69 N71 1.350 . S
C69 H95 0.931 . S
N70 Co66 2.148 . S
N70 C67 1.301 . S
N70 C68 1.317 . S
N71 C67 1.328 1_554 S
N71 C69 1.350 . S
H72 C67 0.930 . S
H73 C68 0.930 . S
C74 O75 1.224 . S
C74 O93 1.247 . S
O75 C74 1.224 . S
N76 Co66 2.128 . S
N76 C77 1.355 . S
N76 C79 1.311 . S
C77 N76 1.355 . S
C77 C78 1.363 . S
C77 H89 0.929 . S
C78 C77 1.363 . S
C78 N80 1.375 . S
C78 H96 0.931 . S
C79 N76 1.311 . S
C79 N80 1.347 . S
C79 H90 0.929 . S
N80 C78 1.375 . S
N80 C79 1.347 . S
C81 C84 1.365 . S
C81 N86 1.328 . S
C81 H87 0.929 . S
C82 C83 1.362 . S
C82 C85 1.378 . S
C82 H97 0.929 . S
C83 C82 1.362 . S
C83 C84 1.366 . S
C84 C81 1.365 . S
C84 C83 1.366 . S
C84 H98 0.930 . S
C85 C82 1.378 . S
C85 N86 1.315 . S
C85 H88 0.930 . S
N86 Co66 2.194 . S
N86 C81 1.328 . S
N86 C85 1.315 . S
H87 C81 0.929 . S
H88 C85 0.930 . S
H89 C77 0.929 . S
H90 C79 0.929 . S
O91 Co66 2.351 . S
O91 C94 1.244 . S
O92 Co66 2.155 . S
O92 C94 1.240 . S
O93 Co66 2.096 . S
O93 C74 1.247 . S
C94 O91 1.244 . S
C94 O92 1.240 . S
H95 C69 0.931 . S
H96 C78 0.931 . S
H97 C82 0.929 . S
H98 C84 0.930 . S
Co99 N103 2.148 1_556 S
Co99 N109 2.128 . S
Co99 N119 2.194 1_556 S
Co99 O124 2.351 1_556 S
Co99 O125 2.155 1_556 S
Co99 O126 2.096 . S
C100 N103 1.301 . S
C100 N104 1.328 . S
C100 H105 0.930 . S
C101 C102 1.333 . S
C101 N103 1.317 . S
C101 H106 0.930 . S
C102 C101 1.333 . S
C102 N104 1.350 . S
C102 H128 0.931 . S
N103 Co99 2.148 1_554 S
N103 C100 1.301 . S
N103 C101 1.317 . S
N104 C100 1.328 . S
N104 C102 1.350 . S
H105 C100 0.930 . S
H106 C101 0.930 . S
C107 O108 1.224 . S
C107 O126 1.247 . S
O108 C107 1.224 . S
N109 Co99 2.128 . S
N109 C110 1.355 . S
N109 C112 1.311 . S
C110 N109 1.355 . S
C110 C111 1.363 . S
C110 H122 0.929 . S
C111 C110 1.363 . S
C111 N113 1.375 . S
C111 H129 0.931 . S
C112 N109 1.311 . S
C112 N113 1.347 . S
C112 H123 0.929 . S
N113 C111 1.375 . S
N113 C112 1.347 . S
C114 C117 1.365 . S
C114 N119 1.328 . S
C114 H120 0.929 . S
C115 C116 1.362 . S
C115 C118 1.377 1_554 S
C115 H130 0.929 1_554 S
C116 C115 1.362 . S
C116 C117 1.366 . S
C117 C114 1.365 . S
C117 C116 1.366 . S
C117 H131 0.930 . S
C118 C115 1.377 1_556 S
C118 N119 1.314 1_556 S
C118 H121 0.931 . S
N119 Co99 2.194 1_554 S
N119 C114 1.328 . S
N119 C118 1.314 1_554 S
H120 C114 0.929 . S
H121 C118 0.931 . S
H122 C110 0.929 . S
H123 C112 0.929 . S
O124 Co99 2.351 1_554 S
O124 C127 1.244 . S
O125 Co99 2.155 1_554 S
O125 C127 1.240 . S
O126 Co99 2.096 . S
O126 C107 1.247 . S
C127 O124 1.244 . S
C127 O125 1.240 . S
H128 C102 0.931 . S
H129 C111 0.931 . S
H130 C115 0.929 1_556 S
H131 C117 0.930 . S
Co132 N136 2.148 . S
Co132 N142 2.128 . S
Co132 N152 2.194 . S
Co132 O157 2.351 . S
Co132 O158 2.155 . S
Co132 O159 2.096 . S
C133 N136 1.301 . S
C133 N137 1.328 . S
C133 H138 0.930 . S
C134 C135 1.333 . S
C134 N136 1.317 . S
C134 H139 0.930 . S
C135 C134 1.333 . S
C135 N137 1.350 . S
C135 H161 0.931 . S
N136 Co132 2.148 . S
N136 C133 1.301 . S
N136 C134 1.317 . S
N137 C133 1.328 . S
N137 C135 1.350 . S
H138 C133 0.930 . S
H139 C134 0.930 . S
C140 O141 1.224 . S
C140 O159 1.247 . S
O141 C140 1.224 . S
N142 Co132 2.128 . S
N142 C143 1.355 . S
N142 C145 1.311 . S
C143 N142 1.355 . S
C143 C144 1.363 . S
C143 H155 0.929 . S
C144 C143 1.363 . S
C144 N146 1.375 . S
C144 H162 0.931 . S
C145 N142 1.311 . S
C145 N146 1.347 . S
C145 H156 0.929 . S
N146 C144 1.375 . S
N146 C145 1.347 . S
C147 C150 1.365 . S
C147 N152 1.328 . S
C147 H153 0.929 . S
C148 C149 1.362 . S
C148 C151 1.378 . S
C148 H163 0.929 . S
C149 C148 1.362 . S
C149 C150 1.366 . S
C150 C147 1.365 . S
C150 C149 1.366 . S
C150 H164 0.930 . S
C151 C148 1.378 . S
C151 N152 1.315 . S
C151 H154 0.930 . S
N152 Co132 2.194 . S
N152 C147 1.328 . S
N152 C151 1.315 . S
H153 C147 0.929 . S
H154 C151 0.930 . S
H155 C143 0.929 . S
H156 C145 0.929 . S
O157 Co132 2.351 . S
O157 C160 1.244 . S
O158 Co132 2.155 . S
O158 C160 1.240 . S
O159 Co132 2.096 . S
O159 C140 1.247 . S
C160 O157 1.244 . S
C160 O158 1.240 . S
H161 C135 0.931 . S
H162 C144 0.931 . S
H163 C148 0.929 . S
H164 C150 0.930 . S
Co165 N169 2.148 1_554 S
Co165 N175 2.128 . S
Co165 N185 2.194 1_554 S
Co165 O190 2.351 1_554 S
Co165 O191 2.155 1_554 S
Co165 O192 2.096 . S
C166 N169 1.301 . S
C166 N170 1.328 . S
C166 H171 0.930 . S
C167 C168 1.333 . S
C167 N169 1.317 . S
C167 H172 0.930 . S
C168 C167 1.333 . S
C168 N170 1.350 . S
C168 H194 0.931 . S
N169 Co165 2.148 1_556 S
N169 C166 1.301 . S
N169 C167 1.317 . S
N170 C166 1.328 . S
N170 C168 1.350 . S
H171 C166 0.930 . S
H172 C167 0.930 . S
C173 O174 1.224 . S
C173 O192 1.247 . S
O174 C173 1.224 . S
N175 Co165 2.128 . S
N175 C176 1.355 . S
N175 C178 1.311 . S
C176 N175 1.355 . S
C176 C177 1.363 . S
C176 H188 0.929 . S
C177 C176 1.363 . S
C177 N179 1.375 . S
C177 H195 0.931 . S
C178 N175 1.311 . S
C178 N179 1.347 . S
C178 H189 0.929 . S
N179 C177 1.375 . S
N179 C178 1.347 . S
C180 C183 1.365 . S
C180 N185 1.328 . S
C180 H186 0.929 . S
C181 C182 1.362 . S
C181 C184 1.377 1_556 S
C181 H196 0.929 1_556 S
C182 C181 1.362 . S
C182 C183 1.366 . S
C183 C180 1.365 . S
C183 C182 1.366 . S
C183 H197 0.930 . S
C184 C181 1.377 1_554 S
C184 N185 1.314 1_554 S
C184 H187 0.931 . S
N185 Co165 2.194 1_556 S
N185 C180 1.328 . S
N185 C184 1.314 1_556 S
H186 C180 0.929 . S
H187 C184 0.931 . S
H188 C176 0.929 . S
H189 C178 0.929 . S
O190 Co165 2.351 1_556 S
O190 C193 1.244 . S
O191 Co165 2.155 1_556 S
O191 C193 1.240 . S
O192 Co165 2.096 . S
O192 C173 1.247 . S
C193 O190 1.244 . S
C193 O191 1.240 . S
H194 C168 0.931 . S
H195 C177 0.931 . S
H196 C181 0.929 1_554 S
H197 C183 0.930 . S
Co198 N202 2.148 . S
Co198 N208 2.128 . S
Co198 N218 2.194 . S
Co198 O223 2.351 . S
Co198 O224 2.155 . S
Co198 O225 2.096 . S
C199 N202 1.301 . S
C199 N203 1.328 1_554 S
C199 H204 0.930 . S
C200 C201 1.333 1_554 S
C200 N202 1.317 . S
C200 H205 0.930 . S
C201 C200 1.333 1_556 S
C201 N203 1.350 . S
C201 H227 0.931 . S
N202 Co198 2.148 . S
N202 C199 1.301 . S
N202 C200 1.317 . S
N203 C199 1.328 1_556 S
N203 C201 1.350 . S
H204 C199 0.930 . S
H205 C200 0.930 . S
C206 O207 1.224 . S
C206 O225 1.247 . S
O207 C206 1.224 . S
N208 Co198 2.128 . S
N208 C209 1.355 . S
N208 C211 1.311 . S
C209 N208 1.355 . S
C209 C210 1.363 . S
C209 H221 0.929 . S
C210 C209 1.363 . S
C210 N212 1.375 . S
C210 H228 0.931 . S
C211 N208 1.311 . S
C211 N212 1.347 . S
C211 H222 0.929 . S
N212 C210 1.375 . S
N212 C211 1.347 . S
C213 C216 1.365 . S
C213 N218 1.328 . S
C213 H219 0.929 . S
C214 C215 1.362 . S
C214 C217 1.378 . S
C214 H229 0.929 . S
C215 C214 1.362 . S
C215 C216 1.366 . S
C216 C213 1.365 . S
C216 C215 1.366 . S
C216 H230 0.930 . S
C217 C214 1.378 . S
C217 N218 1.315 . S
C217 H220 0.930 . S
N218 Co198 2.194 . S
N218 C213 1.328 . S
N218 C217 1.315 . S
H219 C213 0.929 . S
H220 C217 0.930 . S
H221 C209 0.929 . S
H222 C211 0.929 . S
O223 Co198 2.351 . S
O223 C226 1.244 . S
O224 Co198 2.155 . S
O224 C226 1.240 . S
O225 Co198 2.096 . S
O225 C206 1.247 . S
C226 O223 1.244 . S
C226 O224 1.240 . S
H227 C201 0.931 . S
H228 C210 0.931 . S
H229 C214 0.929 . S
H230 C216 0.930 . S
Co231 N235 2.148 . S
Co231 N241 2.128 . S
Co231 N251 2.194 . S
Co231 O256 2.351 . S
Co231 O257 2.155 . S
Co231 O258 2.096 . S
C232 N235 1.301 . S
C232 N236 1.328 . S
C232 H237 0.930 . S
C233 C234 1.333 . S
C233 N235 1.317 . S
C233 H238 0.930 . S
C234 C233 1.333 . S
C234 N236 1.350 . S
C234 H260 0.931 . S
N235 Co231 2.148 . S
N235 C232 1.301 . S
N235 C233 1.317 . S
N236 C232 1.328 . S
N236 C234 1.350 . S
H237 C232 0.930 . S
H238 C233 0.930 . S
C239 O240 1.224 . S
C239 O258 1.247 . S
O240 C239 1.224 . S
N241 Co231 2.128 . S
N241 C242 1.355 . S
N241 C244 1.311 . S
C242 N241 1.355 . S
C242 C243 1.363 . S
C242 H254 0.929 . S
C243 C242 1.363 . S
C243 N245 1.375 . S
C243 H261 0.931 . S
C244 N241 1.311 . S
C244 N245 1.347 . S
C244 H255 0.929 . S
N245 C243 1.375 . S
N245 C244 1.347 . S
C246 C249 1.365 . S
C246 N251 1.328 . S
C246 H252 0.929 . S
C247 C248 1.362 . S
C247 C250 1.378 . S
C247 H262 0.929 . S
C248 C247 1.362 . S
C248 C249 1.366 . S
C249 C246 1.365 . S
C249 C248 1.366 . S
C249 H263 0.930 . S
C250 C247 1.378 . S
C250 N251 1.315 . S
C250 H253 0.930 . S
N251 Co231 2.194 . S
N251 C246 1.328 . S
N251 C250 1.315 . S
H252 C246 0.929 . S
H253 C250 0.930 . S
H254 C242 0.929 . S
H255 C244 0.929 . S
O256 Co231 2.351 . S
O256 C259 1.244 . S
O257 Co231 2.155 . S
O257 C259 1.240 . S
O258 Co231 2.096 . S
O258 C239 1.247 . S
C259 O256 1.244 . S
C259 O257 1.240 . S
H260 C234 0.931 . S
H261 C243 0.931 . S
H262 C247 0.929 . S
H263 C249 0.930 . S
Co264 N268 2.148 . S
Co264 N274 2.128 . S
Co264 N284 2.194 . S
Co264 O289 2.351 . S
Co264 O290 2.155 . S
Co264 O291 2.096 . S
C265 N268 1.301 . S
C265 N269 1.328 . S
C265 H270 0.930 . S
C266 C267 1.333 . S
C266 N268 1.317 . S
C266 H271 0.930 . S
C267 C266 1.333 . S
C267 N269 1.350 . S
C267 H293 0.931 . S
N268 Co264 2.148 . S
N268 C265 1.301 . S
N268 C266 1.317 . S
N269 C265 1.328 . S
N269 C267 1.350 . S
H270 C265 0.930 . S
H271 C266 0.930 . S
C272 O273 1.224 . S
C272 O291 1.247 . S
O273 C272 1.224 . S
N274 Co264 2.128 . S
N274 C275 1.355 . S
N274 C277 1.311 . S
C275 N274 1.355 . S
C275 C276 1.363 . S
C275 H287 0.929 . S
C276 C275 1.363 . S
C276 N278 1.375 . S
C276 H294 0.931 . S
C277 N274 1.311 . S
C277 N278 1.347 . S
C277 H288 0.929 . S
N278 C276 1.375 . S
N278 C277 1.347 . S
C279 C282 1.365 . S
C279 N284 1.328 . S
C279 H285 0.929 . S
C280 C281 1.362 . S
C280 C283 1.378 . S
C280 H295 0.929 . S
C281 C280 1.362 . S
C281 C282 1.366 . S
C282 C279 1.365 . S
C282 C281 1.366 . S
C282 H296 0.930 . S
C283 C280 1.378 . S
C283 N284 1.315 . S
C283 H286 0.930 . S
N284 Co264 2.194 . S
N284 C279 1.328 . S
N284 C283 1.315 . S
H285 C279 0.929 . S
H286 C283 0.930 . S
H287 C275 0.929 . S
H288 C277 0.929 . S
O289 Co264 2.351 . S
O289 C292 1.244 . S
O290 Co264 2.155 . S
O290 C292 1.240 . S
O291 Co264 2.096 . S
O291 C272 1.247 . S
C292 O289 1.244 . S
C292 O290 1.240 . S
H293 C267 0.931 . S
H294 C276 0.931 . S
H295 C280 0.929 . S
H296 C282 0.930 . S
Co297 N301 2.148 1_554 S
Co297 N307 2.128 . S
Co297 N317 2.194 1_554 S
Co297 O322 2.351 1_554 S
Co297 O323 2.155 1_554 S
Co297 O324 2.096 . S
C298 N301 1.301 . S
C298 N302 1.328 . S
C298 H303 0.930 . S
C299 C300 1.333 . S
C299 N301 1.317 . S
C299 H304 0.930 . S
C300 C299 1.333 . S
C300 N302 1.350 . S
C300 H326 0.931 . S
N301 Co297 2.148 1_556 S
N301 C298 1.301 . S
N301 C299 1.317 . S
N302 C298 1.328 . S
N302 C300 1.350 . S
H303 C298 0.930 . S
H304 C299 0.930 . S
C305 O306 1.224 . S
C305 O324 1.247 . S
O306 C305 1.224 . S
N307 Co297 2.128 . S
N307 C308 1.355 . S
N307 C310 1.311 . S
C308 N307 1.355 . S
C308 C309 1.363 . S
C308 H320 0.929 . S
C309 C308 1.363 . S
C309 N311 1.375 . S
C309 H327 0.931 . S
C310 N307 1.311 . S
C310 N311 1.347 . S
C310 H321 0.929 . S
N311 C309 1.375 . S
N311 C310 1.347 . S
C312 C315 1.365 . S
C312 N317 1.328 . S
C312 H318 0.929 . S
C313 C314 1.362 . S
C313 C316 1.377 1_556 S
C313 H328 0.929 1_556 S
C314 C313 1.362 . S
C314 C315 1.366 . S
C315 C312 1.365 . S
C315 C314 1.366 . S
C315 H329 0.930 . S
C316 C313 1.377 1_554 S
C316 N317 1.314 1_554 S
C316 H319 0.931 . S
N317 Co297 2.194 1_556 S
N317 C312 1.328 . S
N317 C316 1.314 1_556 S
H318 C312 0.929 . S
H319 C316 0.931 . S
H320 C308 0.929 . S
H321 C310 0.929 . S
O322 Co297 2.351 1_556 S
O322 C325 1.244 . S
O323 Co297 2.155 1_556 S
O323 C325 1.240 . S
O324 Co297 2.096 . S
O324 C305 1.247 . S
C325 O322 1.244 . S
C325 O323 1.240 . S
H326 C300 0.931 . S
H327 C309 0.931 . S
H328 C313 0.929 1_554 S
H329 C315 0.930 . S
Co330 N334 2.148 1_556 S
Co330 N340 2.128 . S
Co330 N350 2.194 1_556 S
Co330 O355 2.351 1_556 S
Co330 O356 2.155 1_556 S
Co330 O357 2.096 . S
C331 N334 1.301 . S
C331 N335 1.328 . S
C331 H336 0.930 . S
C332 C333 1.333 . S
C332 N334 1.317 . S
C332 H337 0.930 . S
C333 C332 1.333 . S
C333 N335 1.350 . S
C333 H359 0.931 . S
N334 Co330 2.148 1_554 S
N334 C331 1.301 . S
N334 C332 1.317 . S
N335 C331 1.328 . S
N335 C333 1.350 . S
H336 C331 0.930 . S
H337 C332 0.930 . S
C338 O339 1.224 . S
C338 O357 1.247 . S
O339 C338 1.224 . S
N340 Co330 2.128 . S
N340 C341 1.355 . S
N340 C343 1.311 . S
C341 N340 1.355 . S
C341 C342 1.363 . S
C341 H353 0.929 . S
C342 C341 1.363 . S
C342 N344 1.375 . S
C342 H360 0.931 . S
C343 N340 1.311 . S
C343 N344 1.347 . S
C343 H354 0.929 . S
N344 C342 1.375 . S
N344 C343 1.347 . S
C345 C348 1.365 . S
C345 N350 1.328 . S
C345 H351 0.929 . S
C346 C347 1.362 . S
C346 C349 1.377 1_554 S
C346 H361 0.929 1_554 S
C347 C346 1.362 . S
C347 C348 1.366 . S
C348 C345 1.365 . S
C348 C347 1.366 . S
C348 H362 0.930 . S
C349 C346 1.377 1_556 S
C349 N350 1.314 1_556 S
C349 H352 0.931 . S
N350 Co330 2.194 1_554 S
N350 C345 1.328 . S
N350 C349 1.314 1_554 S
H351 C345 0.929 . S
H352 C349 0.931 . S
H353 C341 0.929 . S
H354 C343 0.929 . S
O355 Co330 2.351 1_554 S
O355 C358 1.244 . S
O356 Co330 2.155 1_554 S
O356 C358 1.240 . S
O357 Co330 2.096 . S
O357 C338 1.247 . S
C358 O355 1.244 . S
C358 O356 1.240 . S
H359 C333 0.931 . S
H360 C342 0.931 . S
H361 C346 0.929 1_556 S
H362 C348 0.930 . S
Co363 N367 2.148 . S
Co363 N373 2.128 . S
Co363 N383 2.194 . S
Co363 O388 2.351 . S
Co363 O389 2.155 . S
Co363 O390 2.096 . S
C364 N367 1.301 . S
C364 N368 1.328 . S
C364 H369 0.930 . S
C365 C366 1.333 . S
C365 N367 1.317 . S
C365 H370 0.930 . S
C366 C365 1.333 . S
C366 N368 1.350 . S
C366 H392 0.931 . S
N367 Co363 2.148 . S
N367 C364 1.301 . S
N367 C365 1.317 . S
N368 C364 1.328 . S
N368 C366 1.350 . S
H369 C364 0.930 . S
H370 C365 0.930 . S
C371 O372 1.224 . S
C371 O390 1.247 . S
O372 C371 1.224 . S
N373 Co363 2.128 . S
N373 C374 1.355 . S
N373 C376 1.311 . S
C374 N373 1.355 . S
C374 C375 1.363 . S
C374 H386 0.929 . S
C375 C374 1.363 . S
C375 N377 1.375 . S
C375 H393 0.931 . S
C376 N373 1.311 . S
C376 N377 1.347 . S
C376 H387 0.929 . S
N377 C375 1.375 . S
N377 C376 1.347 . S
C378 C381 1.365 . S
C378 N383 1.328 . S
C378 H384 0.929 . S
C379 C380 1.362 . S
C379 C382 1.378 . S
C379 H394 0.929 . S
C380 C379 1.362 . S
C380 C381 1.366 . S
C381 C378 1.365 . S
C381 C380 1.366 . S
C381 H395 0.930 . S
C382 C379 1.378 . S
C382 N383 1.315 . S
C382 H385 0.930 . S
N383 Co363 2.194 . S
N383 C378 1.328 . S
N383 C382 1.315 . S
H384 C378 0.929 . S
H385 C382 0.930 . S
H386 C374 0.929 . S
H387 C376 0.929 . S
O388 Co363 2.351 . S
O388 C391 1.244 . S
O389 Co363 2.155 . S
O389 C391 1.240 . S
O390 Co363 2.096 . S
O390 C371 1.247 . S
C391 O388 1.244 . S
C391 O389 1.240 . S
H392 C366 0.931 . S
H393 C375 0.931 . S
H394 C379 0.929 . S
H395 C381 0.930 . S
Co396 N400 2.148 . S
Co396 N406 2.128 . S
Co396 N416 2.194 . S
Co396 O421 2.351 . S
Co396 O422 2.155 . S
Co396 O423 2.096 . S
C397 N400 1.301 . S
C397 N401 1.328 1_556 S
C397 H402 0.930 . S
C398 C399 1.333 1_556 S
C398 N400 1.317 . S
C398 H403 0.930 . S
C399 C398 1.333 1_554 S
C399 N401 1.350 . S
C399 H425 0.931 . S
N400 Co396 2.148 . S
N400 C397 1.301 . S
N400 C398 1.317 . S
N401 C397 1.328 1_554 S
N401 C399 1.350 . S
H402 C397 0.930 . S
H403 C398 0.930 . S
C404 O405 1.224 . S
C404 O423 1.247 . S
O405 C404 1.224 . S
N406 Co396 2.128 . S
N406 C407 1.355 . S
N406 C409 1.311 . S
C407 N406 1.355 . S
C407 C408 1.363 . S
C407 H419 0.929 . S
C408 C407 1.363 . S
C408 N410 1.375 . S
C408 H426 0.931 . S
C409 N406 1.311 . S
C409 N410 1.347 . S
C409 H420 0.929 . S
N410 C408 1.375 . S
N410 C409 1.347 . S
C411 C414 1.365 . S
C411 N416 1.328 . S
C411 H417 0.929 . S
C412 C413 1.362 . S
C412 C415 1.378 . S
C412 H427 0.929 . S
C413 C412 1.362 . S
C413 C414 1.366 . S
C414 C411 1.365 . S
C414 C413 1.366 . S
C414 H428 0.930 . S
C415 C412 1.378 . S
C415 N416 1.315 . S
C415 H418 0.930 . S
N416 Co396 2.194 . S
N416 C411 1.328 . S
N416 C415 1.315 . S
H417 C411 0.929 . S
H418 C415 0.930 . S
H419 C407 0.929 . S
H420 C409 0.929 . S
O421 Co396 2.351 . S
O421 C424 1.244 . S
O422 Co396 2.155 . S
O422 C424 1.240 . S
O423 Co396 2.096 . S
O423 C404 1.247 . S
C424 O421 1.244 . S
C424 O422 1.240 . S
H425 C399 0.931 . S
H426 C408 0.931 . S
H427 C412 0.929 . S
H428 C414 0.930 . S
Co429 N433 2.148 . S
Co429 N439 2.128 . S
Co429 N449 2.194 . S
Co429 O454 2.351 . S
Co429 O455 2.155 . S
Co429 O456 2.096 . S
C430 N433 1.301 . S
C430 N434 1.328 . S
C430 H435 0.930 . S
C431 C432 1.333 . S
C431 N433 1.317 . S
C431 H436 0.930 . S
C432 C431 1.333 . S
C432 N434 1.350 . S
C432 H458 0.931 . S
N433 Co429 2.148 . S
N433 C430 1.301 . S
N433 C431 1.317 . S
N434 C430 1.328 . S
N434 C432 1.350 . S
H435 C430 0.930 . S
H436 C431 0.930 . S
C437 O438 1.224 . S
C437 O456 1.247 . S
O438 C437 1.224 . S
N439 Co429 2.128 . S
N439 C440 1.355 . S
N439 C442 1.311 . S
C440 N439 1.355 . S
C440 C441 1.363 . S
C440 H452 0.929 . S
C441 C440 1.363 . S
C441 N443 1.375 . S
C441 H459 0.931 . S
C442 N439 1.311 . S
C442 N443 1.347 . S
C442 H453 0.929 . S
N443 C441 1.375 . S
N443 C442 1.347 . S
C444 C447 1.365 . S
C444 N449 1.328 . S
C444 H450 0.929 . S
C445 C446 1.362 . S
C445 C448 1.378 . S
C445 H460 0.929 . S
C446 C445 1.362 . S
C446 C447 1.366 . S
C447 C444 1.365 . S
C447 C446 1.366 . S
C447 H461 0.930 . S
C448 C445 1.378 . S
C448 N449 1.315 . S
C448 H451 0.930 . S
N449 Co429 2.194 . S
N449 C444 1.328 . S
N449 C448 1.315 . S
H450 C444 0.929 . S
H451 C448 0.930 . S
H452 C440 0.929 . S
H453 C442 0.929 . S
O454 Co429 2.351 . S
O454 C457 1.244 . S
O455 Co429 2.155 . S
O455 C457 1.240 . S
O456 Co429 2.096 . S
O456 C437 1.247 . S
C457 O454 1.244 . S
C457 O455 1.240 . S
H458 C432 0.931 . S
H459 C441 0.931 . S
H460 C445 0.929 . S
H461 C447 0.930 . S
Co462 N466 2.148 . S
Co462 N472 2.128 . S
Co462 N482 2.194 . S
Co462 O487 2.351 . S
Co462 O488 2.155 . S
Co462 O489 2.096 . S
C463 N466 1.301 . S
C463 N467 1.328 1_554 S
C463 H468 0.930 . S
C464 C465 1.333 1_554 S
C464 N466 1.317 . S
C464 H469 0.930 . S
C465 C464 1.333 1_556 S
C465 N467 1.350 . S
C465 H491 0.931 . S
N466 Co462 2.148 . S
N466 C463 1.301 . S
N466 C464 1.317 . S
N467 C463 1.328 1_556 S
N467 C465 1.350 . S
H468 C463 0.930 . S
H469 C464 0.930 . S
C470 O471 1.224 . S
C470 O489 1.247 . S
O471 C470 1.224 . S
N472 Co462 2.128 . S
N472 C473 1.355 . S
N472 C475 1.311 . S
C473 N472 1.355 . S
C473 C474 1.363 . S
C473 H485 0.929 . S
C474 C473 1.363 . S
C474 N476 1.375 . S
C474 H492 0.931 . S
C475 N472 1.311 . S
C475 N476 1.347 . S
C475 H486 0.929 . S
N476 C474 1.375 . S
N476 C475 1.347 . S
C477 C480 1.365 . S
C477 N482 1.328 . S
C477 H483 0.929 . S
C478 C479 1.362 . S
C478 C481 1.378 . S
C478 H493 0.929 . S
C479 C478 1.362 . S
C479 C480 1.366 . S
C480 C477 1.365 . S
C480 C479 1.366 . S
C480 H494 0.930 . S
C481 C478 1.378 . S
C481 N482 1.315 . S
C481 H484 0.930 . S
N482 Co462 2.194 . S
N482 C477 1.328 . S
N482 C481 1.315 . S
H483 C477 0.929 . S
H484 C481 0.930 . S
H485 C473 0.929 . S
H486 C475 0.929 . S
O487 Co462 2.351 . S
O487 C490 1.244 . S
O488 Co462 2.155 . S
O488 C490 1.240 . S
O489 Co462 2.096 . S
O489 C470 1.247 . S
C490 O487 1.244 . S
C490 O488 1.240 . S
H491 C465 0.931 . S
H492 C474 0.931 . S
H493 C478 0.929 . S
H494 C480 0.930 . S
Co495 N499 2.148 . S
Co495 N505 2.128 . S
Co495 N515 2.194 . S
Co495 O520 2.351 . S
Co495 O521 2.155 . S
Co495 O522 2.096 . S
C496 N499 1.301 . S
C496 N500 1.328 . S
C496 H501 0.930 . S
C497 C498 1.333 . S
C497 N499 1.317 . S
C497 H502 0.930 . S
C498 C497 1.333 . S
C498 N500 1.350 . S
C498 H524 0.931 . S
N499 Co495 2.148 . S
N499 C496 1.301 . S
N499 C497 1.317 . S
N500 C496 1.328 . S
N500 C498 1.350 . S
H501 C496 0.930 . S
H502 C497 0.930 . S
C503 O504 1.224 . S
C503 O522 1.247 . S
O504 C503 1.224 . S
N505 Co495 2.128 . S
N505 C506 1.355 . S
N505 C508 1.311 . S
C506 N505 1.355 . S
C506 C507 1.363 . S
C506 H518 0.929 . S
C507 C506 1.363 . S
C507 N509 1.375 . S
C507 H525 0.931 . S
C508 N505 1.311 . S
C508 N509 1.347 . S
C508 H519 0.929 . S
N509 C507 1.375 . S
N509 C508 1.347 . S
C510 C513 1.365 . S
C510 N515 1.328 . S
C510 H516 0.929 . S
C511 C512 1.362 . S
C511 C514 1.378 . S
C511 H526 0.929 . S
C512 C511 1.362 . S
C512 C513 1.366 . S
C513 C510 1.365 . S
C513 C512 1.366 . S
C513 H527 0.930 . S
C514 C511 1.378 . S
C514 N515 1.315 . S
C514 H517 0.930 . S
N515 Co495 2.194 . S
N515 C510 1.328 . S
N515 C514 1.315 . S
H516 C510 0.929 . S
H517 C514 0.930 . S
H518 C506 0.929 . S
H519 C508 0.929 . S
O520 Co495 2.351 . S
O520 C523 1.244 . S
O521 Co495 2.155 . S
O521 C523 1.240 . S
O522 Co495 2.096 . S
O522 C503 1.247 . S
C523 O520 1.244 . S
C523 O521 1.240 . S
H524 C498 0.931 . S
H525 C507 0.931 . S
H526 C511 0.929 . S
H527 C513 0.930 . S
H528 C540 0.930 . S
H529 C542 0.930 . S
H530 C543 0.930 . S
H531 C547 0.959 . S
H532 C547 0.959 . S
H533 C547 0.961 . S
H534 C548 0.960 . S
H535 C548 0.961 . S
H536 C548 0.959 . S
H537 C551 0.929 . S
H538 C552 0.931 . S
H539 C554 0.930 . S
C540 H528 0.930 . S
C540 C541 1.399 . S
C540 C545 1.399 . S
C541 C540 1.399 . S
C541 C542 1.376 . S
C542 H529 0.930 . S
C542 C541 1.376 . S
C542 C543 1.388 . S
C543 H530 0.930 . S
C543 C542 1.388 . S
C543 C544 1.390 . S
C544 C543 1.390 . S
C544 C545 1.394 . S
C544 C550 1.465 . S
C545 C540 1.399 . S
C545 C544 1.394 . S
C545 C546 1.516 . S
C546 C545 1.516 . S
C546 C547 1.502 . S
C546 C548 1.561 . S
C546 C549 1.526 . S
C547 H531 0.959 . S
C547 H532 0.959 . S
C547 H533 0.961 . S
C547 C546 1.502 . S
C548 H534 0.960 . S
C548 H535 0.961 . S
C548 H536 0.959 . S
C548 C546 1.561 . S
C549 C546 1.526 . S
C549 C550 1.396 . S
C549 C554 1.390 . S
C550 C544 1.465 . S
C550 C549 1.396 . S
C550 C551 1.399 . S
C551 H537 0.929 . S
C551 C550 1.399 . S
C551 C552 1.385 . S
C552 H538 0.931 . S
C552 C551 1.385 . S
C552 C553 1.389 . S
C553 C552 1.389 . S
C553 C554 1.387 . S
C554 H539 0.930 . S
C554 C549 1.390 . S
C554 C553 1.387 . S
H555 C567 0.930 . S
H556 C569 0.930 . S
H557 C570 0.930 . S
H558 C574 0.959 . S
H559 C574 0.959 . S
H560 C574 0.961 . S
H561 C575 0.960 . S
H562 C575 0.961 . S
H563 C575 0.959 . S
H564 C578 0.929 . S
H565 C579 0.931 . S
H566 C581 0.930 . S
C567 H555 0.930 . S
C567 C568 1.399 . S
C567 C572 1.399 . S
C568 C567 1.399 . S
C568 C569 1.376 . S
C569 H556 0.930 . S
C569 C568 1.376 . S
C569 C570 1.388 . S
C570 H557 0.930 . S
C570 C569 1.388 . S
C570 C571 1.390 . S
C571 C570 1.390 . S
C571 C572 1.394 . S
C571 C577 1.465 . S
C572 C567 1.399 . S
C572 C571 1.394 . S
C572 C573 1.516 . S
C573 C572 1.516 . S
C573 C574 1.502 . S
C573 C575 1.561 . S
C573 C576 1.526 . S
C574 H558 0.959 . S
C574 H559 0.959 . S
C574 H560 0.961 . S
C574 C573 1.502 . S
C575 H561 0.960 . S
C575 H562 0.961 . S
C575 H563 0.959 . S
C575 C573 1.561 . S
C576 C573 1.526 . S
C576 C577 1.396 . S
C576 C581 1.390 . S
C577 C571 1.465 . S
C577 C576 1.396 . S
C577 C578 1.399 . S
C578 H564 0.929 . S
C578 C577 1.399 . S
C578 C579 1.385 . S
C579 H565 0.931 . S
C579 C578 1.385 . S
C579 C580 1.389 . S
C580 C579 1.389 . S
C580 C581 1.387 . S
C581 H566 0.930 . S
C581 C576 1.390 . S
C581 C580 1.387 . S
H582 C594 0.930 . S
H583 C596 0.930 . S
H584 C597 0.930 1_554 S
H585 C601 0.959 . S
H586 C601 0.959 . S
H587 C601 0.961 . S
H588 C602 0.960 . S
H589 C602 0.961 . S
H590 C602 0.959 . S
H591 C605 0.929 . S
H592 C606 0.931 . S
H593 C608 0.930 . S
C594 H582 0.930 . S
C594 C595 1.399 . S
C594 C599 1.399 . S
C595 C594 1.399 . S
C595 C596 1.376 . S
C596 H583 0.930 . S
C596 C595 1.376 . S
C596 C597 1.388 . S
C597 H584 0.930 1_556 S
C597 C596 1.388 . S
C597 C598 1.390 . S
C598 C597 1.390 . S
C598 C599 1.394 . S
C598 C604 1.465 . S
C599 C594 1.399 . S
C599 C598 1.394 . S
C599 C600 1.516 . S
C600 C599 1.516 . S
C600 C601 1.502 . S
C600 C602 1.561 . S
C600 C603 1.526 . S
C601 H585 0.959 . S
C601 H586 0.959 . S
C601 H587 0.961 . S
C601 C600 1.502 . S
C602 H588 0.960 . S
C602 H589 0.961 . S
C602 H590 0.959 . S
C602 C600 1.561 . S
C603 C600 1.526 . S
C603 C604 1.396 . S
C603 C608 1.390 . S
C604 C598 1.465 . S
C604 C603 1.396 . S
C604 C605 1.399 1_556 S
C605 H591 0.929 . S
C605 C604 1.399 1_554 S
C605 C606 1.385 . S
C606 H592 0.931 . S
C606 C605 1.385 . S
C606 C607 1.389 1_554 S
C607 C606 1.389 1_556 S
C607 C608 1.387 . S
C608 H593 0.930 . S
C608 C603 1.390 . S
C608 C607 1.387 . S
H609 C621 0.930 . S
H610 C623 0.930 . S
H611 C624 0.930 . S
H612 C628 0.959 . S
H613 C628 0.959 . S
H614 C628 0.961 . S
H615 C629 0.960 . S
H616 C629 0.961 . S
H617 C629 0.959 1_554 S
H618 C632 0.929 . S
H619 C633 0.931 . S
H620 C635 0.930 1_556 S
C621 H609 0.930 . S
C621 C622 1.399 . S
C621 C626 1.399 . S
C622 C621 1.399 . S
C622 C623 1.376 . S
C623 H610 0.930 . S
C623 C622 1.376 . S
C623 C624 1.388 . S
C624 H611 0.930 . S
C624 C623 1.388 . S
C624 C625 1.390 . S
C625 C624 1.390 . S
C625 C626 1.394 . S
C625 C631 1.465 . S
C626 C621 1.399 . S
C626 C625 1.394 . S
C626 C627 1.516 . S
C627 C626 1.516 . S
C627 C628 1.502 1_554 S
C627 C629 1.561 1_554 S
C627 C630 1.526 . S
C628 H612 0.959 . S
C628 H613 0.959 . S
C628 H614 0.961 . S
C628 C627 1.502 1_556 S
C629 H615 0.960 . S
C629 H616 0.961 . S
C629 H617 0.959 1_556 S
C629 C627 1.561 1_556 S
C630 C627 1.526 . S
C630 C631 1.396 . S
C630 C635 1.390 . S
C631 C625 1.465 . S
C631 C630 1.396 . S
C631 C632 1.399 . S
C632 H618 0.929 . S
C632 C631 1.399 . S
C632 C633 1.385 . S
C633 H619 0.931 . S
C633 C632 1.385 . S
C633 C634 1.389 . S
C634 C633 1.389 . S
C634 C635 1.387 . S
C635 H620 0.930 1_554 S
C635 C630 1.390 . S
C635 C634 1.387 . S
H636 C648 0.930 . S
H637 C650 0.930 . S
H638 C651 0.930 . S
H639 C655 0.959 . S
H640 C655 0.959 . S
H641 C655 0.961 . S
H642 C656 0.960 . S
H643 C656 0.961 . S
H644 C656 0.959 . S
H645 C659 0.931 . S
H646 C660 0.931 . S
H647 C662 0.930 . S
C648 H636 0.930 . S
C648 C649 1.399 . S
C648 C653 1.399 . S
C649 C648 1.399 . S
C649 C650 1.376 . S
C650 H637 0.930 . S
C650 C649 1.376 . S
C650 C651 1.388 . S
C651 H638 0.930 . S
C651 C650 1.388 . S
C651 C652 1.390 . S
C652 C651 1.390 . S
C652 C653 1.394 . S
C652 C658 1.465 . S
C653 C648 1.399 . S
C653 C652 1.394 . S
C653 C654 1.516 . S
C654 C653 1.516 . S
C654 C655 1.502 . S
C654 C656 1.561 . S
C654 C657 1.526 . S
C655 H639 0.959 . S
C655 H640 0.959 . S
C655 H641 0.961 . S
C655 C654 1.502 . S
C656 H642 0.960 . S
C656 H643 0.961 . S
C656 H644 0.959 . S
C656 C654 1.561 . S
C657 C654 1.526 . S
C657 C658 1.396 . S
C657 C662 1.399 . S
C658 C652 1.465 . S
C658 C657 1.396 . S
C658 C659 1.428 . S
C659 H645 0.931 . S
C659 C658 1.428 . S
C659 C660 1.356 1_655 S
C660 H646 0.931 . S
C660 C659 1.356 1_455 S
C660 C661 1.389 . S
C661 C660 1.389 . S
C661 C662 1.378 1_455 S
C662 H647 0.930 . S
C662 C657 1.399 . S
C662 C661 1.378 1_655 S
H663 C675 0.930 . S
H664 C677 0.930 . S
H665 C678 0.930 . S
H666 C682 0.959 1_455 S
H667 C682 0.959 1_455 S
H668 C682 0.961 . S
H669 C683 0.960 . S
H670 C683 0.961 . S
H671 C683 0.959 . S
H672 C686 0.929 . S
H673 C687 0.931 . S
H674 C689 0.930 . S
C675 H663 0.930 . S
C675 C676 1.399 . S
C675 C680 1.399 . S
C676 C675 1.399 . S
C676 C677 1.376 . S
C677 H664 0.930 . S
C677 C676 1.376 . S
C677 C678 1.388 . S
C678 H665 0.930 . S
C678 C677 1.388 . S
C678 C679 1.390 . S
C679 C678 1.390 . S
C679 C680 1.394 . S
C679 C685 1.465 . S
C680 C675 1.399 . S
C680 C679 1.394 . S
C680 C681 1.516 . S
C681 C680 1.516 . S
C681 C682 1.502 . S
C681 C683 1.561 . S
C681 C684 1.526 . S
C682 H666 0.959 1_655 S
C682 H667 0.959 1_655 S
C682 H668 0.961 . S
C682 C681 1.502 . S
C683 H669 0.960 . S
C683 H670 0.961 . S
C683 H671 0.959 . S
C683 C681 1.561 . S
C684 C681 1.526 . S
C684 C685 1.396 . S
C684 C689 1.390 1_655 S
C685 C679 1.465 . S
C685 C684 1.396 . S
C685 C686 1.399 . S
C686 H672 0.929 . S
C686 C685 1.399 . S
C686 C687 1.385 1_655 S
C687 H673 0.931 . S
C687 C686 1.385 1_455 S
C687 C688 1.389 . S
C688 C687 1.389 . S
C688 C689 1.387 . S
C689 H674 0.930 . S
C689 C684 1.390 1_455 S
C689 C688 1.387 . S
H690 C702 0.930 . S
H691 C704 0.930 . S
H692 C705 0.930 . S
H693 C709 0.959 . S
H694 C709 0.959 1_556 S
H695 C709 0.961 1_556 S
H696 C710 0.960 . S
H697 C710 0.961 . S
H698 C710 0.959 . S
H699 C713 0.929 . S
H700 C714 0.931 . S
H701 C716 0.930 1_556 S
C702 H690 0.930 . S
C702 C703 1.399 . S
C702 C707 1.399 . S
C703 C702 1.399 . S
C703 C704 1.376 . S
C704 H691 0.930 . S
C704 C703 1.376 . S
C704 C705 1.388 . S
C705 H692 0.930 . S
C705 C704 1.388 . S
C705 C706 1.390 . S
C706 C705 1.390 . S
C706 C707 1.394 . S
C706 C712 1.465 . S
C707 C702 1.399 . S
C707 C706 1.394 . S
C707 C708 1.516 . S
C708 C707 1.516 . S
C708 C709 1.502 . S
C708 C710 1.561 1_554 S
C708 C711 1.526 . S
C709 H693 0.959 . S
C709 H694 0.959 1_554 S
C709 H695 0.961 1_554 S
C709 C708 1.502 . S
C710 H696 0.960 . S
C710 H697 0.961 . S
C710 H698 0.959 . S
C710 C708 1.561 1_556 S
C711 C708 1.526 . S
C711 C712 1.396 . S
C711 C716 1.390 . S
C712 C706 1.465 . S
C712 C711 1.396 . S
C712 C713 1.399 . S
C713 H699 0.929 . S
C713 C712 1.399 . S
C713 C714 1.385 . S
C714 H700 0.931 . S
C714 C713 1.385 . S
C714 C715 1.389 . S
C715 C714 1.389 . S
C715 C716 1.387 . S
C716 H701 0.930 1_554 S
C716 C711 1.390 . S
C716 C715 1.387 . S
H717 C729 0.930 . S
H718 C731 0.930 . S
H719 C732 0.930 1_554 S
H720 C736 0.959 . S
H721 C736 0.959 . S
H722 C736 0.961 . S
H723 C737 0.960 . S
H724 C737 0.961 . S
H725 C737 0.959 . S
H726 C740 0.929 . S
H727 C741 0.931 . S
H728 C743 0.930 . S
C729 H717 0.930 . S
C729 C730 1.399 . S
C729 C734 1.399 . S
C730 C729 1.399 . S
C730 C731 1.376 . S
C731 H718 0.930 . S
C731 C730 1.376 . S
C731 C732 1.388 . S
C732 H719 0.930 1_556 S
C732 C731 1.388 . S
C732 C733 1.390 . S
C733 C732 1.390 . S
C733 C734 1.394 . S
C733 C739 1.465 . S
C734 C729 1.399 . S
C734 C733 1.394 . S
C734 C735 1.516 . S
C735 C734 1.516 . S
C735 C736 1.502 . S
C735 C737 1.561 . S
C735 C738 1.526 . S
C736 H720 0.959 . S
C736 H721 0.959 . S
C736 H722 0.961 . S
C736 C735 1.502 . S
C737 H723 0.960 . S
C737 H724 0.961 . S
C737 H725 0.959 . S
C737 C735 1.561 . S
C738 C735 1.526 . S
C738 C739 1.396 . S
C738 C743 1.390 . S
C739 C733 1.465 . S
C739 C738 1.396 . S
C739 C740 1.399 1_556 S
C740 H726 0.929 . S
C740 C739 1.399 1_554 S
C740 C741 1.385 . S
C741 H727 0.931 . S
C741 C740 1.385 . S
C741 C742 1.389 1_554 S
C742 C741 1.389 1_556 S
C742 C743 1.387 . S
C743 H728 0.930 . S
C743 C738 1.390 . S
C743 C742 1.387 . S
H744 C756 0.930 1_554 S
H745 C758 0.930 . S
H746 C759 0.930 . S
H747 C763 0.959 . S
H748 C763 0.959 1_554 S
H749 C763 0.961 1_554 S
H750 C764 0.960 . S
H751 C764 0.961 . S
H752 C764 0.959 . S
H753 C767 0.929 . S
H754 C768 0.931 . S
H755 C770 0.930 . S
C756 H744 0.930 1_556 S
C756 C757 1.399 . S
C756 C761 1.399 . S
C757 C756 1.399 . S
C757 C758 1.376 . S
C758 H745 0.930 . S
C758 C757 1.376 . S
C758 C759 1.388 . S
C759 H746 0.930 . S
C759 C758 1.388 . S
C759 C760 1.390 . S
C760 C759 1.390 . S
C760 C761 1.394 . S
C760 C766 1.465 . S
C761 C756 1.399 . S
C761 C760 1.394 . S
C761 C762 1.516 . S
C762 C761 1.516 . S
C762 C763 1.502 . S
C762 C764 1.561 1_556 S
C762 C765 1.526 . S
C763 H747 0.959 . S
C763 H748 0.959 1_556 S
C763 H749 0.961 1_556 S
C763 C762 1.502 . S
C764 H750 0.960 . S
C764 H751 0.961 . S
C764 H752 0.959 . S
C764 C762 1.561 1_554 S
C765 C762 1.526 . S
C765 C766 1.396 . S
C765 C770 1.390 . S
C766 C760 1.465 . S
C766 C765 1.396 . S
C766 C767 1.399 . S
C767 H753 0.929 . S
C767 C766 1.399 . S
C767 C768 1.385 . S
C768 H754 0.931 . S
C768 C767 1.385 . S
C768 C769 1.389 . S
C769 C768 1.389 . S
C769 C770 1.387 . S
C770 H755 0.930 . S
C770 C765 1.390 . S
C770 C769 1.387 . S
H771 C783 0.930 . S
H772 C785 0.930 . S
H773 C786 0.930 1_556 S
H774 C790 0.959 . S
H775 C790 0.959 . S
H776 C790 0.961 . S
H777 C791 0.960 . S
H778 C791 0.961 . S
H779 C791 0.959 . S
H780 C794 0.929 . S
H781 C795 0.931 . S
H782 C797 0.930 . S
C783 H771 0.930 . S
C783 C784 1.399 . S
C783 C788 1.399 . S
C784 C783 1.399 . S
C784 C785 1.376 . S
C785 H772 0.930 . S
C785 C784 1.376 . S
C785 C786 1.388 . S
C786 H773 0.930 1_554 S
C786 C785 1.388 . S
C786 C787 1.390 . S
C787 C786 1.390 . S
C787 C788 1.394 . S
C787 C793 1.465 . S
C788 C783 1.399 . S
C788 C787 1.394 . S
C788 C789 1.516 . S
C789 C788 1.516 . S
C789 C790 1.502 . S
C789 C791 1.561 . S
C789 C792 1.526 . S
C790 H774 0.959 . S
C790 H775 0.959 . S
C790 H776 0.961 . S
C790 C789 1.502 . S
C791 H777 0.960 . S
C791 H778 0.961 . S
C791 H779 0.959 . S
C791 C789 1.561 . S
C792 C789 1.526 . S
C792 C793 1.396 . S
C792 C797 1.390 . S
C793 C787 1.465 . S
C793 C792 1.396 . S
C793 C794 1.399 1_554 S
C794 H780 0.929 . S
C794 C793 1.399 1_556 S
C794 C795 1.385 . S
C795 H781 0.931 . S
C795 C794 1.385 . S
C795 C796 1.389 1_556 S
C796 C795 1.389 1_554 S
C796 C797 1.387 . S
C797 H782 0.930 . S
C797 C792 1.390 . S
C797 C796 1.387 . S
H798 C810 0.930 1_455 S
H799 C812 0.930 . S
H800 C813 0.930 . S
H801 C817 0.959 . S
H802 C817 0.959 . S
H803 C817 0.961 1_455 S
H804 C818 0.960 . S
H805 C818 0.961 . S
H806 C818 0.959 . S
H807 C821 0.929 . S
H808 C822 0.931 . S
H809 C824 0.930 . S
C810 H798 0.930 1_655 S
C810 C811 1.399 . S
C810 C815 1.399 . S
C811 C810 1.399 . S
C811 C812 1.376 . S
C812 H799 0.930 . S
C812 C811 1.376 . S
C812 C813 1.388 . S
C813 H800 0.930 . S
C813 C812 1.388 . S
C813 C814 1.390 . S
C814 C813 1.390 . S
C814 C815 1.394 . S
C814 C820 1.465 . S
C815 C810 1.399 . S
C815 C814 1.394 . S
C815 C816 1.516 . S
C816 C815 1.516 . S
C816 C817 1.502 . S
C816 C818 1.561 . S
C816 C819 1.526 . S
C817 H801 0.959 . S
C817 H802 0.959 . S
C817 H803 0.961 1_655 S
C817 C816 1.502 . S
C818 H804 0.960 . S
C818 H805 0.961 . S
C818 H806 0.959 . S
C818 C816 1.561 . S
C819 C816 1.526 . S
C819 C820 1.396 . S
C819 C824 1.390 . S
C820 C814 1.465 . S
C820 C819 1.396 . S
C820 C821 1.399 . S
C821 H807 0.929 . S
C821 C820 1.399 . S
C821 C822 1.385 . S
C822 H808 0.931 . S
C822 C821 1.385 . S
C822 C823 1.389 . S
C823 C822 1.389 . S
C823 C824 1.387 . S
C824 H809 0.930 . S
C824 C819 1.390 . S
C824 C823 1.387 . S
H825 C837 0.930 . S
H826 C839 0.930 . S
H827 C840 0.930 . S
H828 C844 0.959 . S
H829 C844 0.959 . S
H830 C844 0.961 . S
H831 C845 0.960 . S
H832 C845 0.961 . S
H833 C845 0.959 . S
H834 C848 0.929 . S
H835 C849 0.931 . S
H836 C851 0.930 1_455 S
C837 H825 0.930 . S
C837 C838 1.399 . S
C837 C842 1.399 . S
C838 C837 1.399 . S
C838 C839 1.376 . S
C839 H826 0.930 . S
C839 C838 1.376 . S
C839 C840 1.388 . S
C840 H827 0.930 . S
C840 C839 1.388 . S
C840 C841 1.390 . S
C841 C840 1.390 . S
C841 C842 1.394 . S
C841 C847 1.465 . S
C842 C837 1.399 . S
C842 C841 1.394 . S
C842 C843 1.516 . S
C843 C842 1.516 . S
C843 C844 1.502 . S
C843 C845 1.561 . S
C843 C846 1.526 . S
C844 H828 0.959 . S
C844 H829 0.959 . S
C844 H830 0.961 . S
C844 C843 1.502 . S
C845 H831 0.960 . S
C845 H832 0.961 . S
C845 H833 0.959 . S
C845 C843 1.561 . S
C846 C843 1.526 . S
C846 C847 1.396 . S
C846 C851 1.390 . S
C847 C841 1.465 . S
C847 C846 1.396 . S
C847 C848 1.399 . S
C848 H834 0.929 . S
C848 C847 1.399 . S
C848 C849 1.385 . S
C849 H835 0.931 . S
C849 C848 1.385 . S
C849 C850 1.389 . S
C850 C849 1.389 . S
C850 C851 1.387 . S
C851 H836 0.930 1_655 S
C851 C846 1.390 . S
C851 C850 1.387 . S
H852 C864 0.930 . S
H853 C866 0.930 . S
H854 C867 0.930 . S
H855 C871 0.959 . S
H856 C871 0.959 . S
H857 C871 0.961 . S
H858 C872 0.960 . S
H859 C872 0.961 . S
H860 C872 0.959 . S
H861 C875 0.929 1_556 S
H862 C876 0.931 . S
H863 C878 0.930 . S
C864 H852 0.930 . S
C864 C865 1.399 . S
C864 C869 1.399 . S
C865 C864 1.399 . S
C865 C866 1.376 1_554 S
C866 H853 0.930 . S
C866 C865 1.376 1_556 S
C866 C867 1.388 . S
C867 H854 0.930 . S
C867 C866 1.388 . S
C867 C868 1.390 1_556 S
C868 C867 1.390 1_554 S
C868 C869 1.394 . S
C868 C874 1.465 . S
C869 C864 1.399 . S
C869 C868 1.394 . S
C869 C870 1.516 . S
C870 C869 1.516 . S
C870 C871 1.502 . S
C870 C872 1.561 . S
C870 C873 1.526 . S
C871 H855 0.959 . S
C871 H856 0.959 . S
C871 H857 0.961 . S
C871 C870 1.502 . S
C872 H858 0.960 . S
C872 H859 0.961 . S
C872 H860 0.959 . S
C872 C870 1.561 . S
C873 C870 1.526 . S
C873 C874 1.396 . S
C873 C878 1.390 . S
C874 C868 1.465 . S
C874 C873 1.396 . S
C874 C875 1.399 . S
C875 H861 0.929 1_554 S
C875 C874 1.399 . S
C875 C876 1.385 . S
C876 H862 0.931 . S
C876 C875 1.385 . S
C876 C877 1.389 . S
C877 C876 1.389 . S
C877 C878 1.387 . S
C878 H863 0.930 . S
C878 C873 1.390 . S
C878 C877 1.387 . S
H879 C891 0.930 . S
H880 C893 0.930 . S
H881 C894 0.930 . S
H882 C898 0.959 . S
H883 C898 0.959 . S
H884 C898 0.961 . S
H885 C899 0.960 . S
H886 C899 0.961 . S
H887 C899 0.959 . S
H888 C902 0.929 1_554 S
H889 C903 0.931 . S
H890 C905 0.930 . S
C891 H879 0.930 . S
C891 C892 1.399 . S
C891 C896 1.399 . S
C892 C891 1.399 . S
C892 C893 1.376 1_556 S
C893 H880 0.930 . S
C893 C892 1.376 1_554 S
C893 C894 1.388 . S
C894 H881 0.930 . S
C894 C893 1.388 . S
C894 C895 1.390 1_554 S
C895 C894 1.390 1_556 S
C895 C896 1.394 . S
C895 C901 1.465 . S
C896 C891 1.399 . S
C896 C895 1.394 . S
C896 C897 1.516 . S
C897 C896 1.516 . S
C897 C898 1.502 . S
C897 C899 1.561 . S
C897 C900 1.526 . S
C898 H882 0.959 . S
C898 H883 0.959 . S
C898 H884 0.961 . S
C898 C897 1.502 . S
C899 H885 0.960 . S
C899 H886 0.961 . S
C899 H887 0.959 . S
C899 C897 1.561 . S
C900 C897 1.526 . S
C900 C901 1.396 . S
C900 C905 1.390 . S
C901 C895 1.465 . S
C901 C900 1.396 . S
C901 C902 1.399 . S
C902 H888 0.929 1_556 S
C902 C901 1.399 . S
C902 C903 1.385 . S
C903 H889 0.931 . S
C903 C902 1.385 . S
C903 C904 1.389 . S
C904 C903 1.389 . S
C904 C905 1.387 . S
C905 H890 0.930 . S
C905 C900 1.390 . S
C905 C904 1.387 . S
H906 C918 0.930 . S
H907 C920 0.930 . S
H908 C921 0.930 . S
H909 C925 0.959 . S
H910 C925 0.959 . S
H911 C925 0.961 . S
H912 C926 0.960 . S
H913 C926 0.961 . S
H914 C926 0.959 . S
H915 C929 0.929 . S
H916 C930 0.931 . S
H917 C932 0.930 . S
C918 H906 0.930 . S
C918 C919 1.399 . S
C918 C923 1.399 . S
C919 C918 1.399 . S
C919 C920 1.376 . S
C920 H907 0.930 . S
C920 C919 1.376 . S
C920 C921 1.388 . S
C921 H908 0.930 . S
C921 C920 1.388 . S
C921 C922 1.390 . S
C922 C921 1.390 . S
C922 C923 1.394 . S
C922 C928 1.465 . S
C923 C918 1.399 . S
C923 C922 1.394 . S
C923 C924 1.516 . S
C924 C923 1.516 . S
C924 C925 1.502 . S
C924 C926 1.561 . S
C924 C927 1.526 . S
C925 H909 0.959 . S
C925 H910 0.959 . S
C925 H911 0.961 . S
C925 C924 1.502 . S
C926 H912 0.960 . S
C926 H913 0.961 . S
C926 H914 0.959 . S
C926 C924 1.561 . S
C927 C924 1.526 . S
C927 C928 1.396 . S
C927 C932 1.390 . S
C928 C922 1.465 . S
C928 C927 1.396 . S
C928 C929 1.399 . S
C929 H915 0.929 . S
C929 C928 1.399 . S
C929 C930 1.385 . S
C930 H916 0.931 . S
C930 C929 1.385 . S
C930 C931 1.389 . S
C931 C930 1.389 . S
C931 C932 1.387 . S
C932 H917 0.930 . S
C932 C927 1.390 . S
C932 C931 1.387 . S
H933 C945 0.930 . S
H934 C947 0.930 . S
H935 C948 0.930 . S
H936 C952 0.959 . S
H937 C952 0.959 . S
H938 C952 0.961 . S
H939 C953 0.960 . S
H940 C953 0.961 . S
H941 C953 0.959 . S
H942 C956 0.929 . S
H943 C957 0.931 . S
H944 C959 0.930 . S
C945 H933 0.930 . S
C945 C946 1.399 . S
C945 C950 1.399 . S
C946 C945 1.399 . S
C946 C947 1.376 . S
C947 H934 0.930 . S
C947 C946 1.376 . S
C947 C948 1.388 . S
C948 H935 0.930 . S
C948 C947 1.388 . S
C948 C949 1.390 . S
C949 C948 1.390 . S
C949 C950 1.394 . S
C949 C955 1.465 . S
C950 C945 1.399 . S
C950 C949 1.394 . S
C950 C951 1.516 . S
C951 C950 1.516 . S
C951 C952 1.502 . S
C951 C953 1.561 . S
C951 C954 1.526 . S
C952 H936 0.959 . S
C952 H937 0.959 . S
C952 H938 0.961 . S
C952 C951 1.502 . S
C953 H939 0.960 . S
C953 H940 0.961 . S
C953 H941 0.959 . S
C953 C951 1.561 . S
C954 C951 1.526 . S
C954 C955 1.396 . S
C954 C959 1.390 . S
C955 C949 1.465 . S
C955 C954 1.396 . S
C955 C956 1.399 . S
C956 H942 0.929 . S
C956 C955 1.399 . S
C956 C957 1.385 . S
C957 H943 0.931 . S
C957 C956 1.385 . S
C957 C958 1.389 . S
C958 C957 1.389 . S
C958 C959 1.387 . S
C959 H944 0.930 . S
C959 C954 1.390 . S
C959 C958 1.387 . S
H960 C972 0.930 . S
H961 C974 0.930 . S
H962 C975 0.930 . S
H963 C979 0.959 . S
H964 C979 0.959 . S
H965 C979 0.961 . S
H966 C980 0.960 . S
H967 C980 0.961 . S
H968 C980 0.959 . S
H969 C983 0.929 1_554 S
H970 C984 0.931 . S
H971 C986 0.904 1_545 S
C972 H960 0.930 . S
C972 C973 1.399 . S
C972 C977 1.399 . S
C973 C972 1.399 . S
C973 C974 1.376 . S
C974 H961 0.930 . S
C974 C973 1.376 . S
C974 C975 1.388 1_545 S
C975 H962 0.930 . S
C975 C974 1.388 1_565 S
C975 C976 1.390 . S
C976 C975 1.390 . S
C976 C977 1.394 1_565 S
C976 C982 1.465 1_554 S
C977 C972 1.399 . S
C977 C976 1.394 1_545 S
C977 C978 1.516 1_554 S
C978 C977 1.516 1_556 S
C978 C979 1.502 . S
C978 C980 1.561 . S
C978 C981 1.489 1_545 S
C979 H963 0.959 . S
C979 H964 0.959 . S
C979 H965 0.961 . S
C979 C978 1.502 . S
C980 H966 0.960 . S
C980 H967 0.961 . S
C980 H968 0.959 . S
C980 C978 1.561 . S
C981 C978 1.489 1_565 S
C981 C982 1.421 . S
C981 C986 1.404 . S
C982 C976 1.465 1_556 S
C982 C981 1.421 . S
C982 C983 1.399 . S
C983 H969 0.929 1_556 S
C983 C982 1.399 . S
C983 C984 1.385 . S
C984 H970 0.931 . S
C984 C983 1.385 . S
C984 C985 1.389 . S
C985 C984 1.389 . S
C985 C986 1.387 . S
C986 H971 0.904 1_565 S
C986 C981 1.404 . S
C986 C985 1.387 . S
H987 C999 0.930 . S
H988 C1001 0.930 . S
H989 C1002 0.930 . S
H990 C1006 0.959 . S
H991 C1006 0.959 . S
H992 C1006 0.961 . S
H993 C1007 0.960 . S
H994 C1007 0.961 . S
H995 C1007 0.959 . S
H996 C1010 0.929 . S
H997 C1011 0.931 . S
H998 C1013 0.930 . S
C999 H987 0.930 . S
C999 C1000 1.399 . S
C999 C1004 1.399 . S
C1000 C999 1.399 . S
C1000 C1001 1.376 . S
C1001 H988 0.930 . S
C1001 C1000 1.376 . S
C1001 C1002 1.388 . S
C1002 H989 0.930 . S
C1002 C1001 1.388 . S
C1002 C1003 1.390 . S
C1003 C1002 1.390 . S
C1003 C1004 1.394 . S
C1003 C1009 1.465 . S
C1004 C999 1.399 . S
C1004 C1003 1.394 . S
C1004 C1005 1.516 . S
C1005 C1004 1.516 . S
C1005 C1006 1.502 . S
C1005 C1007 1.561 . S
C1005 C1008 1.526 . S
C1006 H990 0.959 . S
C1006 H991 0.959 . S
C1006 H992 0.961 . S
C1006 C1005 1.502 . S
C1007 H993 0.960 . S
C1007 H994 0.961 . S
C1007 H995 0.959 . S
C1007 C1005 1.561 . S
C1008 C1005 1.526 . S
C1008 C1009 1.396 . S
C1008 C1013 1.390 . S
C1009 C1003 1.465 . S
C1009 C1008 1.396 . S
C1009 C1010 1.399 . S
C1010 H996 0.929 . S
C1010 C1009 1.399 . S
C1010 C1011 1.385 . S
C1011 H997 0.931 . S
C1011 C1010 1.385 . S
C1011 C1012 1.389 . S
C1012 C1011 1.389 . S
C1012 C1013 1.387 . S
C1013 H998 0.930 . S
C1013 C1008 1.390 . S
C1013 C1012 1.387 . S
H1014 C1026 0.930 1_565 S
H1015 C1028 0.930 . S
H1016 C1029 0.930 . S
H1017 C1033 0.959 . S
H1018 C1033 0.959 . S
H1019 C1033 0.961 . S
H1020 C1034 0.960 . S
H1021 C1034 0.961 . S
H1022 C1034 0.959 . S
H1023 C1037 0.929 . S
H1024 C1038 0.920 1_545 S
H1025 C1040 0.930 . S
C1026 H1014 0.930 1_545 S
C1026 C1027 1.399 . S
C1026 C1031 1.399 . S
C1027 C1026 1.399 . S
C1027 C1028 1.376 . S
C1028 H1015 0.930 . S
C1028 C1027 1.376 . S
C1028 C1029 1.388 . S
C1029 H1016 0.930 . S
C1029 C1028 1.388 . S
C1029 C1030 1.390 . S
C1030 C1029 1.390 . S
C1030 C1031 1.394 . S
C1030 C1036 1.465 . S
C1031 C1026 1.399 . S
C1031 C1030 1.394 . S
C1031 C1032 1.516 1_545 S
C1032 C1031 1.516 1_565 S
C1032 C1033 1.502 . S
C1032 C1034 1.561 . S
C1032 C1035 1.526 . S
C1033 H1017 0.959 . S
C1033 H1018 0.959 . S
C1033 H1019 0.961 . S
C1033 C1032 1.502 . S
C1034 H1020 0.960 . S
C1034 H1021 0.961 . S
C1034 H1022 0.959 . S
C1034 C1032 1.561 . S
C1035 C1032 1.526 . S
C1035 C1036 1.396 1_565 S
C1035 C1040 1.390 . S
C1036 C1030 1.465 . S
C1036 C1035 1.396 1_545 S
C1036 C1037 1.399 . S
C1037 H1023 0.929 . S
C1037 C1036 1.399 . S
C1037 C1038 1.385 1_545 S
C1038 H1024 0.920 1_565 S
C1038 C1037 1.385 1_565 S
C1038 C1039 1.389 . S
C1039 C1038 1.389 . S
C1039 C1040 1.387 . S
C1040 H1025 0.930 . S
C1040 C1035 1.390 . S
C1040 C1039 1.387 . S
H1041 C1053 0.930 . S
H1042 C1055 0.930 . S
H1043 C1056 0.930 . S
H1044 C1060 0.959 . S
H1045 C1060 0.959 . S
H1046 C1060 0.961 . S
H1047 C1061 0.960 . S
H1048 C1061 0.961 . S
H1049 C1061 0.959 . S
H1050 C1064 0.929 . S
H1051 C1065 0.931 . S
H1052 C1067 0.930 . S
C1053 H1041 0.930 . S
C1053 C1054 1.399 . S
C1053 C1058 1.399 . S
C1054 C1053 1.399 . S
C1054 C1055 1.376 . S
C1055 H1042 0.930 . S
C1055 C1054 1.376 . S
C1055 C1056 1.388 . S
C1056 H1043 0.930 . S
C1056 C1055 1.388 . S
C1056 C1057 1.390 . S
C1057 C1056 1.390 . S
C1057 C1058 1.394 . S
C1057 C1063 1.465 . S
C1058 C1053 1.399 . S
C1058 C1057 1.394 . S
C1058 C1059 1.516 . S
C1059 C1058 1.516 . S
C1059 C1060 1.502 . S
C1059 C1061 1.561 . S
C1059 C1062 1.526 . S
C1060 H1044 0.959 . S
C1060 H1045 0.959 . S
C1060 H1046 0.961 . S
C1060 C1059 1.502 . S
C1061 H1047 0.960 . S
C1061 H1048 0.961 . S
C1061 H1049 0.959 . S
C1061 C1059 1.561 . S
C1062 C1059 1.526 . S
C1062 C1063 1.396 . S
C1062 C1067 1.390 . S
C1063 C1057 1.465 . S
C1063 C1062 1.396 . S
C1063 C1064 1.399 . S
C1064 H1050 0.929 . S
C1064 C1063 1.399 . S
C1064 C1065 1.385 . S
C1065 H1051 0.931 . S
C1065 C1064 1.385 . S
C1065 C1066 1.389 . S
C1066 C1065 1.389 . S
C1066 C1067 1.387 . S
C1067 H1052 0.930 . S
C1067 C1062 1.390 . S
C1067 C1066 1.387 . S
H1068 C1080 0.930 . S
H1069 C1082 0.930 . S
H1070 C1083 0.930 . S
H1071 C1087 0.959 . S
H1072 C1087 0.959 . S
H1073 C1087 0.961 . S
H1074 C1088 0.960 . S
H1075 C1088 0.961 . S
H1076 C1088 0.959 . S
H1077 C1091 0.929 . S
H1078 C1092 0.931 . S
H1079 C1094 0.930 . S
C1080 H1068 0.930 . S
C1080 C1081 1.399 . S
C1080 C1085 1.399 . S
C1081 C1080 1.399 . S
C1081 C1082 1.376 . S
C1082 H1069 0.930 . S
C1082 C1081 1.376 . S
C1082 C1083 1.388 . S
C1083 H1070 0.930 . S
C1083 C1082 1.388 . S
C1083 C1084 1.390 . S
C1084 C1083 1.390 . S
C1084 C1085 1.394 . S
C1084 C1090 1.465 . S
C1085 C1080 1.399 . S
C1085 C1084 1.394 . S
C1085 C1086 1.516 . S
C1086 C1085 1.516 . S
C1086 C1087 1.502 . S
C1086 C1088 1.561 . S
C1086 C1089 1.526 . S
C1087 H1071 0.959 . S
C1087 H1072 0.959 . S
C1087 H1073 0.961 . S
C1087 C1086 1.502 . S
C1088 H1074 0.960 . S
C1088 H1075 0.961 . S
C1088 H1076 0.959 . S
C1088 C1086 1.561 . S
C1089 C1086 1.526 . S
C1089 C1090 1.396 . S
C1089 C1094 1.390 . S
C1090 C1084 1.465 . S
C1090 C1089 1.396 . S
C1090 C1091 1.399 . S
C1091 H1077 0.929 . S
C1091 C1090 1.399 . S
C1091 C1092 1.385 . S
C1092 H1078 0.931 . S
C1092 C1091 1.385 . S
C1092 C1093 1.389 . S
C1093 C1092 1.389 . S
C1093 C1094 1.387 . S
C1094 H1079 0.930 . S
C1094 C1089 1.390 . S
C1094 C1093 1.387 . S
H1095 C1107 0.930 . S
H1096 C1109 0.930 . S
H1097 C1110 0.930 . S
H1098 C1114 0.959 . S
H1099 C1114 0.959 . S
H1100 C1114 0.961 . S
H1101 C1115 0.960 . S
H1102 C1115 0.961 . S
H1103 C1115 0.959 . S
H1104 C1118 0.929 . S
H1105 C1119 0.931 . S
H1106 C1121 0.930 . S
C1107 H1095 0.930 . S
C1107 C1108 1.399 . S
C1107 C1112 1.399 . S
C1108 C1107 1.399 . S
C1108 C1109 1.376 . S
C1109 H1096 0.930 . S
C1109 C1108 1.376 . S
C1109 C1110 1.388 . S
C1110 H1097 0.930 . S
C1110 C1109 1.388 . S
C1110 C1111 1.390 . S
C1111 C1110 1.390 . S
C1111 C1112 1.394 . S
C1111 C1117 1.465 . S
C1112 C1107 1.399 . S
C1112 C1111 1.394 . S
C1112 C1113 1.516 . S
C1113 C1112 1.516 . S
C1113 C1114 1.502 . S
C1113 C1115 1.561 . S
C1113 C1116 1.526 . S
C1114 H1098 0.959 . S
C1114 H1099 0.959 . S
C1114 H1100 0.961 . S
C1114 C1113 1.502 . S
C1115 H1101 0.960 . S
C1115 H1102 0.961 . S
C1115 H1103 0.959 . S
C1115 C1113 1.561 . S
C1116 C1113 1.526 . S
C1116 C1117 1.396 . S
C1116 C1121 1.390 . S
C1117 C1111 1.465 . S
C1117 C1116 1.396 . S
C1117 C1118 1.399 . S
C1118 H1104 0.929 . S
C1118 C1117 1.399 . S
C1118 C1119 1.385 . S
C1119 H1105 0.931 . S
C1119 C1118 1.385 . S
C1119 C1120 1.389 . S
C1120 C1119 1.389 . S
C1120 C1121 1.387 . S
C1121 H1106 0.930 . S
C1121 C1116 1.390 . S
C1121 C1120 1.387 . S
H1122 C1134 0.930 . S
H1123 C1136 0.930 . S
H1124 C1137 0.930 . S
H1125 C1141 0.959 . S
H1126 C1141 0.959 . S
H1127 C1141 0.961 . S
H1128 C1142 0.960 . S
H1129 C1142 0.961 . S
H1130 C1142 0.959 . S
H1131 C1145 0.929 . S
H1132 C1146 0.931 . S
H1133 C1148 0.930 . S
C1134 H1122 0.930 . S
C1134 C1135 1.399 . S
C1134 C1139 1.399 . S
C1135 C1134 1.399 . S
C1135 C1136 1.376 . S
C1136 H1123 0.930 . S
C1136 C1135 1.376 . S
C1136 C1137 1.388 . S
C1137 H1124 0.930 . S
C1137 C1136 1.388 . S
C1137 C1138 1.390 . S
C1138 C1137 1.390 . S
C1138 C1139 1.394 . S
C1138 C1144 1.465 . S
C1139 C1134 1.399 . S
C1139 C1138 1.394 . S
C1139 C1140 1.516 . S
C1140 C1139 1.516 . S
C1140 C1141 1.502 . S
C1140 C1142 1.561 . S
C1140 C1143 1.526 . S
C1141 H1125 0.959 . S
C1141 H1126 0.959 . S
C1141 H1127 0.961 . S
C1141 C1140 1.502 . S
C1142 H1128 0.960 . S
C1142 H1129 0.961 . S
C1142 H1130 0.959 . S
C1142 C1140 1.561 . S
C1143 C1140 1.526 . S
C1143 C1144 1.396 . S
C1143 C1148 1.390 . S
C1144 C1138 1.465 . S
C1144 C1143 1.396 . S
C1144 C1145 1.399 . S
C1145 H1131 0.929 . S
C1145 C1144 1.399 . S
C1145 C1146 1.385 . S
C1146 H1132 0.931 . S
C1146 C1145 1.385 . S
C1146 C1147 1.389 . S
C1147 C1146 1.389 . S
C1147 C1148 1.387 . S
C1148 H1133 0.930 . S
C1148 C1143 1.390 . S
C1148 C1147 1.387 . S
H1149 C1161 0.930 . S
H1150 C1163 0.930 . S
H1151 C1164 0.930 . S
H1152 C1168 0.959 . S
H1153 C1168 0.959 . S
H1154 C1168 0.961 . S
H1155 C1169 0.960 . S
H1156 C1169 0.961 . S
H1157 C1169 0.959 . S
H1158 C1172 0.929 1_556 S
H1159 C1173 0.931 . S
H1160 C1175 0.930 . S
C1161 H1149 0.930 . S
C1161 C1162 1.399 . S
C1161 C1166 1.399 . S
C1162 C1161 1.399 . S
C1162 C1163 1.376 . S
C1163 H1150 0.930 . S
C1163 C1162 1.376 . S
C1163 C1164 1.388 . S
C1164 H1151 0.930 . S
C1164 C1163 1.388 . S
C1164 C1165 1.390 . S
C1165 C1164 1.390 . S
C1165 C1166 1.394 . S
C1165 C1171 1.465 1_556 S
C1166 C1161 1.399 . S
C1166 C1165 1.394 . S
C1166 C1167 1.516 1_556 S
C1167 C1166 1.516 1_554 S
C1167 C1168 1.502 . S
C1167 C1169 1.561 . S
C1167 C1170 1.526 . S
C1168 H1152 0.959 . S
C1168 H1153 0.959 . S
C1168 H1154 0.961 . S
C1168 C1167 1.502 . S
C1169 H1155 0.960 . S
C1169 H1156 0.961 . S
C1169 H1157 0.959 . S
C1169 C1167 1.561 . S
C1170 C1167 1.526 . S
C1170 C1171 1.396 . S
C1170 C1175 1.390 . S
C1171 C1165 1.465 1_554 S
C1171 C1170 1.396 . S
C1171 C1172 1.399 . S
C1172 H1158 0.929 1_554 S
C1172 C1171 1.399 . S
C1172 C1173 1.385 . S
C1173 H1159 0.931 . S
C1173 C1172 1.385 . S
C1173 C1174 1.389 . S
C1174 C1173 1.389 . S
C1174 C1175 1.387 . S
C1175 H1160 0.930 . S
C1175 C1170 1.390 . S
C1175 C1174 1.387 . S
H1176 C1188 0.930 . S
H1177 C1190 0.930 . S
H1178 C1191 0.930 . S
H1179 C1195 0.959 . S
H1180 C1195 0.959 . S
H1181 C1195 0.961 . S
H1182 C1196 0.960 . S
H1183 C1196 0.961 . S
H1184 C1196 0.959 . S
H1185 C1199 0.929 . S
H1186 C1200 0.931 . S
H1187 C1202 0.930 . S
C1188 H1176 0.930 . S
C1188 C1189 1.399 . S
C1188 C1193 1.399 . S
C1189 C1188 1.399 . S
C1189 C1190 1.376 . S
C1190 H1177 0.930 . S
C1190 C1189 1.376 . S
C1190 C1191 1.388 . S
C1191 H1178 0.930 . S
C1191 C1190 1.388 . S
C1191 C1192 1.390 . S
C1192 C1191 1.390 . S
C1192 C1193 1.394 . S
C1192 C1198 1.465 . S
C1193 C1188 1.399 . S
C1193 C1192 1.394 . S
C1193 C1194 1.516 . S
C1194 C1193 1.516 . S
C1194 C1195 1.502 . S
C1194 C1196 1.561 . S
C1194 C1197 1.526 . S
C1195 H1179 0.959 . S
C1195 H1180 0.959 . S
C1195 H1181 0.961 . S
C1195 C1194 1.502 . S
C1196 H1182 0.960 . S
C1196 H1183 0.961 . S
C1196 H1184 0.959 . S
C1196 C1194 1.561 . S
C1197 C1194 1.526 . S
C1197 C1198 1.396 . S
C1197 C1202 1.390 . S
C1198 C1192 1.465 . S
C1198 C1197 1.396 . S
C1198 C1199 1.399 . S
C1199 H1185 0.929 . S
C1199 C1198 1.399 . S
C1199 C1200 1.385 . S
C1200 H1186 0.931 . S
C1200 C1199 1.385 . S
C1200 C1201 1.389 . S
C1201 C1200 1.389 . S
C1201 C1202 1.387 . S
C1202 H1187 0.930 . S
C1202 C1197 1.390 . S
C1202 C1201 1.387 . S
H1203 C1215 0.930 . S
H1204 C1217 0.930 . S
H1205 C1218 0.930 . S
H1206 C1222 0.959 . S
H1207 C1222 0.959 . S
H1208 C1222 0.961 . S
H1209 C1223 0.960 . S
H1210 C1223 0.961 1_556 S
H1211 C1223 0.959 . S
H1212 C1226 0.929 . S
H1213 C1227 0.931 . S
H1214 C1229 0.930 . S
C1215 H1203 0.930 . S
C1215 C1216 1.399 . S
C1215 C1220 1.399 . S
C1216 C1215 1.399 . S
C1216 C1217 1.376 . S
C1217 H1204 0.930 . S
C1217 C1216 1.376 . S
C1217 C1218 1.388 . S
C1218 H1205 0.930 . S
C1218 C1217 1.388 . S
C1218 C1219 1.390 . S
C1219 C1218 1.390 . S
C1219 C1220 1.394 . S
C1219 C1225 1.465 . S
C1220 C1215 1.399 . S
C1220 C1219 1.394 . S
C1220 C1221 1.516 . S
C1221 C1220 1.516 . S
C1221 C1222 1.502 . S
C1221 C1223 1.561 . S
C1221 C1224 1.526 1_554 S
C1222 H1206 0.959 . S
C1222 H1207 0.959 . S
C1222 H1208 0.961 . S
C1222 C1221 1.502 . S
C1223 H1209 0.960 . S
C1223 H1210 0.961 1_554 S
C1223 H1211 0.959 . S
C1223 C1221 1.561 . S
C1224 C1221 1.526 1_556 S
C1224 C1225 1.396 1_556 S
C1224 C1229 1.390 . S
C1225 C1219 1.465 . S
C1225 C1224 1.396 1_554 S
C1225 C1226 1.399 1_554 S
C1226 H1212 0.929 . S
C1226 C1225 1.399 1_556 S
C1226 C1227 1.385 . S
C1227 H1213 0.931 . S
C1227 C1226 1.385 . S
C1227 C1228 1.389 . S
C1228 C1227 1.389 . S
C1228 C1229 1.387 . S
C1229 H1214 0.930 . S
C1229 C1224 1.390 . S
C1229 C1228 1.387 . S
H1230 C1242 0.930 . S
H1231 C1244 0.930 . S
H1232 C1245 0.930 . S
H1233 C1249 0.959 . S
H1234 C1249 0.959 . S
H1235 C1249 0.961 . S
H1236 C1250 0.960 . S
H1237 C1250 0.961 . S
H1238 C1250 0.959 . S
H1239 C1253 0.929 . S
H1240 C1254 0.931 . S
H1241 C1256 0.930 . S
C1242 H1230 0.930 . S
C1242 C1243 1.399 . S
C1242 C1247 1.399 . S
C1243 C1242 1.399 . S
C1243 C1244 1.376 . S
C1244 H1231 0.930 . S
C1244 C1243 1.376 . S
C1244 C1245 1.388 . S
C1245 H1232 0.930 . S
C1245 C1244 1.388 . S
C1245 C1246 1.390 . S
C1246 C1245 1.390 . S
C1246 C1247 1.394 . S
C1246 C1252 1.465 . S
C1247 C1242 1.399 . S
C1247 C1246 1.394 . S
C1247 C1248 1.516 . S
C1248 C1247 1.516 . S
C1248 C1249 1.502 . S
C1248 C1250 1.561 . S
C1248 C1251 1.526 . S
C1249 H1233 0.959 . S
C1249 H1234 0.959 . S
C1249 H1235 0.961 . S
C1249 C1248 1.502 . S
C1250 H1236 0.960 . S
C1250 H1237 0.961 . S
C1250 H1238 0.959 . S
C1250 C1248 1.561 . S
C1251 C1248 1.526 . S
C1251 C1252 1.396 . S
C1251 C1256 1.390 . S
C1252 C1246 1.465 . S
C1252 C1251 1.396 . S
C1252 C1253 1.399 . S
C1253 H1239 0.929 . S
C1253 C1252 1.399 . S
C1253 C1254 1.385 . S
C1254 H1240 0.931 . S
C1254 C1253 1.385 . S
C1254 C1255 1.389 . S
C1255 C1254 1.389 . S
C1255 C1256 1.387 . S
C1256 H1241 0.930 . S
C1256 C1251 1.390 . S
C1256 C1255 1.387 . S
H1257 C1269 0.930 . S
H1258 C1271 0.930 . S
H1259 C1272 0.930 . S
H1260 C1276 0.959 . S
H1261 C1276 0.959 . S
H1262 C1276 0.961 . S
H1263 C1277 0.960 . S
H1264 C1277 0.961 . S
H1265 C1277 0.959 . S
H1266 C1280 0.929 . S
H1267 C1281 0.931 . S
H1268 C1283 0.930 . S
C1269 H1257 0.930 . S
C1269 C1270 1.399 . S
C1269 C1274 1.399 . S
C1270 C1269 1.399 . S
C1270 C1271 1.376 . S
C1271 H1258 0.930 . S
C1271 C1270 1.376 . S
C1271 C1272 1.388 . S
C1272 H1259 0.930 . S
C1272 C1271 1.388 . S
C1272 C1273 1.390 . S
C1273 C1272 1.390 . S
C1273 C1274 1.394 . S
C1273 C1279 1.465 . S
C1274 C1269 1.399 . S
C1274 C1273 1.394 . S
C1274 C1275 1.516 . S
C1275 C1274 1.516 . S
C1275 C1276 1.502 . S
C1275 C1277 1.561 . S
C1275 C1278 1.526 . S
C1276 H1260 0.959 . S
C1276 H1261 0.959 . S
C1276 H1262 0.961 . S
C1276 C1275 1.502 . S
C1277 H1263 0.960 . S
C1277 H1264 0.961 . S
C1277 H1265 0.959 . S
C1277 C1275 1.561 . S
C1278 C1275 1.526 . S
C1278 C1279 1.396 . S
C1278 C1283 1.390 . S
C1279 C1273 1.465 . S
C1279 C1278 1.396 . S
C1279 C1280 1.399 . S
C1280 H1266 0.929 . S
C1280 C1279 1.399 . S
C1280 C1281 1.385 . S
C1281 H1267 0.931 . S
C1281 C1280 1.385 . S
C1281 C1282 1.389 . S
C1282 C1281 1.389 . S
C1282 C1283 1.387 . S
C1283 H1268 0.930 . S
C1283 C1278 1.390 . S
C1283 C1282 1.387 . S
H1284 C1296 0.930 . S
H1285 C1298 0.930 . S
H1286 C1299 0.930 . S
H1287 C1303 0.959 . S
H1288 C1303 0.959 . S
H1289 C1303 0.961 . S
H1290 C1304 0.960 . S
H1291 C1304 0.961 . S
H1292 C1304 0.959 . S
H1293 C1307 0.929 . S
H1294 C1308 0.931 . S
H1295 C1310 0.930 . S
C1296 H1284 0.930 . S
C1296 C1297 1.399 . S
C1296 C1301 1.399 . S
C1297 C1296 1.399 . S
C1297 C1298 1.376 . S
C1298 H1285 0.930 . S
C1298 C1297 1.376 . S
C1298 C1299 1.388 . S
C1299 H1286 0.930 . S
C1299 C1298 1.388 . S
C1299 C1300 1.390 . S
C1300 C1299 1.390 . S
C1300 C1301 1.394 . S
C1300 C1306 1.465 . S
C1301 C1296 1.399 . S
C1301 C1300 1.394 . S
C1301 C1302 1.516 . S
C1302 C1301 1.516 . S
C1302 C1303 1.502 . S
C1302 C1304 1.561 . S
C1302 C1305 1.526 . S
C1303 H1287 0.959 . S
C1303 H1288 0.959 . S
C1303 H1289 0.961 . S
C1303 C1302 1.502 . S
C1304 H1290 0.960 . S
C1304 H1291 0.961 . S
C1304 H1292 0.959 . S
C1304 C1302 1.561 . S
C1305 C1302 1.526 . S
C1305 C1306 1.396 . S
C1305 C1310 1.390 . S
C1306 C1300 1.465 . S
C1306 C1305 1.396 . S
C1306 C1307 1.399 . S
C1307 H1293 0.929 . S
C1307 C1306 1.399 . S
C1307 C1308 1.385 . S
C1308 H1294 0.931 . S
C1308 C1307 1.385 . S
C1308 C1309 1.389 . S
C1309 C1308 1.389 . S
C1309 C1310 1.387 . S
C1310 H1295 0.930 . S
C1310 C1305 1.390 . S
C1310 C1309 1.387 . S
H1311 C1323 0.930 . S
H1312 C1325 0.930 . S
H1313 C1326 0.930 . S
H1314 C1330 0.959 . S
H1315 C1330 0.959 . S
H1316 C1330 0.961 . S
H1317 C1331 0.960 . S
H1318 C1331 0.961 . S
H1319 C1331 0.959 . S
H1320 C1334 0.929 . S
H1321 C1335 0.931 . S
H1322 C1337 0.930 . S
C1323 H1311 0.930 . S
C1323 C1324 1.399 . S
C1323 C1328 1.399 . S
C1324 C1323 1.399 . S
C1324 C1325 1.376 . S
C1325 H1312 0.930 . S
C1325 C1324 1.376 . S
C1325 C1326 1.388 . S
C1326 H1313 0.930 . S
C1326 C1325 1.388 . S
C1326 C1327 1.390 . S
C1327 C1326 1.390 . S
C1327 C1328 1.394 . S
C1327 C1333 1.465 . S
C1328 C1323 1.399 . S
C1328 C1327 1.394 . S
C1328 C1329 1.516 . S
C1329 C1328 1.516 . S
C1329 C1330 1.502 . S
C1329 C1331 1.561 . S
C1329 C1332 1.526 . S
C1330 H1314 0.959 . S
C1330 H1315 0.959 . S
C1330 H1316 0.961 . S
C1330 C1329 1.502 . S
C1331 H1317 0.960 . S
C1331 H1318 0.961 . S
C1331 H1319 0.959 . S
C1331 C1329 1.561 . S
C1332 C1329 1.526 . S
C1332 C1333 1.396 . S
C1332 C1337 1.390 . S
C1333 C1327 1.465 . S
C1333 C1332 1.396 . S
C1333 C1334 1.399 . S
C1334 H1320 0.929 . S
C1334 C1333 1.399 . S
C1334 C1335 1.385 . S
C1335 H1321 0.931 . S
C1335 C1334 1.385 . S
C1335 C1336 1.389 . S
C1336 C1335 1.389 . S
C1336 C1337 1.387 . S
C1337 H1322 0.930 . S
C1337 C1332 1.390 . S
C1337 C1336 1.387 . S
H1338 C1350 0.930 . S
H1339 C1352 0.930 . S
H1340 C1353 0.930 . S
H1341 C1357 0.959 . S
H1342 C1357 0.959 . S
H1343 C1357 0.961 . S
H1344 C1358 0.960 . S
H1345 C1358 0.961 . S
H1346 C1358 0.959 . S
H1347 C1361 0.929 . S
H1348 C1362 0.931 . S
H1349 C1364 0.930 . S
C1350 H1338 0.930 . S
C1350 C1351 1.399 . S
C1350 C1355 1.399 . S
C1351 C1350 1.399 . S
C1351 C1352 1.376 . S
C1352 H1339 0.930 . S
C1352 C1351 1.376 . S
C1352 C1353 1.388 . S
C1353 H1340 0.930 . S
C1353 C1352 1.388 . S
C1353 C1354 1.390 . S
C1354 C1353 1.390 . S
C1354 C1355 1.394 . S
C1354 C1360 1.465 . S
C1355 C1350 1.399 . S
C1355 C1354 1.394 . S
C1355 C1356 1.516 . S
C1356 C1355 1.516 . S
C1356 C1357 1.502 . S
C1356 C1358 1.561 . S
C1356 C1359 1.526 . S
C1357 H1341 0.959 . S
C1357 H1342 0.959 . S
C1357 H1343 0.961 . S
C1357 C1356 1.502 . S
C1358 H1344 0.960 . S
C1358 H1345 0.961 . S
C1358 H1346 0.959 . S
C1358 C1356 1.561 . S
C1359 C1356 1.526 . S
C1359 C1360 1.396 . S
C1359 C1364 1.390 . S
C1360 C1354 1.465 . S
C1360 C1359 1.396 . S
C1360 C1361 1.399 . S
C1361 H1347 0.929 . S
C1361 C1360 1.399 . S
C1361 C1362 1.385 . S
C1362 H1348 0.931 . S
C1362 C1361 1.385 . S
C1362 C1363 1.389 . S
C1363 C1362 1.389 . S
C1363 C1364 1.387 . S
C1364 H1349 0.930 . S
C1364 C1359 1.390 . S
C1364 C1363 1.387 . S
H1365 C1377 0.930 . S
H1366 C1379 0.930 . S
H1367 C1380 0.930 . S
H1368 C1384 0.959 . S
H1369 C1384 0.959 . S
H1370 C1384 0.961 . S
H1371 C1385 0.960 . S
H1372 C1385 0.961 1_554 S
H1373 C1385 0.959 . S
H1374 C1388 0.929 . S
H1375 C1389 0.931 . S
H1376 C1391 0.930 . S
C1377 H1365 0.930 . S
C1377 C1378 1.399 . S
C1377 C1382 1.399 . S
C1378 C1377 1.399 . S
C1378 C1379 1.376 . S
C1379 H1366 0.930 . S
C1379 C1378 1.376 . S
C1379 C1380 1.388 . S
C1380 H1367 0.930 . S
C1380 C1379 1.388 . S
C1380 C1381 1.390 . S
C1381 C1380 1.390 . S
C1381 C1382 1.394 . S
C1381 C1387 1.465 . S
C1382 C1377 1.399 . S
C1382 C1381 1.394 . S
C1382 C1383 1.516 . S
C1383 C1382 1.516 . S
C1383 C1384 1.502 . S
C1383 C1385 1.561 . S
C1383 C1386 1.526 1_556 S
C1384 H1368 0.959 . S
C1384 H1369 0.959 . S
C1384 H1370 0.961 . S
C1384 C1383 1.502 . S
C1385 H1371 0.960 . S
C1385 H1372 0.961 1_556 S
C1385 H1373 0.959 . S
C1385 C1383 1.561 . S
C1386 C1383 1.526 1_554 S
C1386 C1387 1.396 1_554 S
C1386 C1391 1.390 . S
C1387 C1381 1.465 . S
C1387 C1386 1.396 1_556 S
C1387 C1388 1.399 1_556 S
C1388 H1374 0.929 . S
C1388 C1387 1.399 1_554 S
C1388 C1389 1.385 . S
C1389 H1375 0.931 . S
C1389 C1388 1.385 . S
C1389 C1390 1.389 . S
C1390 C1389 1.389 . S
C1390 C1391 1.387 . S
C1391 H1376 0.930 . S
C1391 C1386 1.390 . S
C1391 C1390 1.387 . S
H1392 C1404 0.930 . S
H1393 C1406 0.930 . S
H1394 C1407 0.930 . S
H1395 C1411 0.959 . S
H1396 C1411 0.959 . S
H1397 C1411 0.961 . S
H1398 C1412 0.960 . S
H1399 C1412 0.961 . S
H1400 C1412 0.959 . S
H1401 C1415 0.929 . S
H1402 C1416 0.931 . S
H1403 C1418 0.930 . S
C1404 H1392 0.930 . S
C1404 C1405 1.399 . S
C1404 C1409 1.399 . S
C1405 C1404 1.399 . S
C1405 C1406 1.376 . S
C1406 H1393 0.930 . S
C1406 C1405 1.376 . S
C1406 C1407 1.388 . S
C1407 H1394 0.930 . S
C1407 C1406 1.388 . S
C1407 C1408 1.390 . S
C1408 C1407 1.390 . S
C1408 C1409 1.394 . S
C1408 C1414 1.465 1_554 S
C1409 C1404 1.399 . S
C1409 C1408 1.394 . S
C1409 C1410 1.516 1_554 S
C1410 C1409 1.516 1_556 S
C1410 C1411 1.502 . S
C1410 C1412 1.561 . S
C1410 C1413 1.526 . S
C1411 H1395 0.959 . S
C1411 H1396 0.959 . S
C1411 H1397 0.961 . S
C1411 C1410 1.502 . S
C1412 H1398 0.960 . S
C1412 H1399 0.961 . S
C1412 H1400 0.959 . S
C1412 C1410 1.561 . S
C1413 C1410 1.526 . S
C1413 C1414 1.396 . S
C1413 C1418 1.390 . S
C1414 C1408 1.465 1_556 S
C1414 C1413 1.396 . S
C1414 C1415 1.399 . S
C1415 H1401 0.929 . S
C1415 C1414 1.399 . S
C1415 C1416 1.385 . S
C1416 H1402 0.931 . S
C1416 C1415 1.385 . S
C1416 C1417 1.389 . S
C1417 C1416 1.389 . S
C1417 C1418 1.387 . S
C1418 H1403 0.930 . S
C1418 C1413 1.390 . S
C1418 C1417 1.387 . S
H1419 C1431 0.930 . S
H1420 C1433 0.930 . S
H1421 C1434 0.930 . S
H1422 C1438 0.959 . S
H1423 C1438 0.959 . S
H1424 C1438 0.961 . S
H1425 C1439 0.960 . S
H1426 C1439 0.961 . S
H1427 C1439 0.959 . S
H1428 C1442 0.929 . S
H1429 C1443 0.931 . S
H1430 C1445 0.930 . S
C1431 H1419 0.930 . S
C1431 C1432 1.399 . S
C1431 C1436 1.399 . S
C1432 C1431 1.399 . S
C1432 C1433 1.376 . S
C1433 H1420 0.930 . S
C1433 C1432 1.376 . S
C1433 C1434 1.388 . S
C1434 H1421 0.930 . S
C1434 C1433 1.388 . S
C1434 C1435 1.390 . S
C1435 C1434 1.390 . S
C1435 C1436 1.394 . S
C1435 C1441 1.465 . S
C1436 C1431 1.399 . S
C1436 C1435 1.394 . S
C1436 C1437 1.516 . S
C1437 C1436 1.516 . S
C1437 C1438 1.502 . S
C1437 C1439 1.561 . S
C1437 C1440 1.526 . S
C1438 H1422 0.959 . S
C1438 H1423 0.959 . S
C1438 H1424 0.961 . S
C1438 C1437 1.502 . S
C1439 H1425 0.960 . S
C1439 H1426 0.961 . S
C1439 H1427 0.959 . S
C1439 C1437 1.561 . S
C1440 C1437 1.526 . S
C1440 C1441 1.396 . S
C1440 C1445 1.390 . S
C1441 C1435 1.465 . S
C1441 C1440 1.396 . S
C1441 C1442 1.399 . S
C1442 H1428 0.929 . S
C1442 C1441 1.399 . S
C1442 C1443 1.385 . S
C1443 H1429 0.931 . S
C1443 C1442 1.385 . S
C1443 C1444 1.389 . S
C1444 C1443 1.389 . S
C1444 C1445 1.387 . S
C1445 H1430 0.930 . S
C1445 C1440 1.390 . S
C1445 C1444 1.387 . S
H1446 C1458 0.930 . S
H1447 C1460 0.930 . S
H1448 C1461 0.930 . S
H1449 C1465 0.959 . S
H1450 C1465 0.959 . S
H1451 C1465 0.961 . S
H1452 C1466 0.960 . S
H1453 C1466 0.961 . S
H1454 C1466 0.959 . S
H1455 C1469 0.929 . S
H1456 C1470 0.931 . S
H1457 C1472 0.930 . S
C1458 H1446 0.930 . S
C1458 C1459 1.399 . S
C1458 C1463 1.399 . S
C1459 C1458 1.399 . S
C1459 C1460 1.376 . S
C1460 H1447 0.930 . S
C1460 C1459 1.376 . S
C1460 C1461 1.388 . S
C1461 H1448 0.930 . S
C1461 C1460 1.388 . S
C1461 C1462 1.390 . S
C1462 C1461 1.390 . S
C1462 C1463 1.394 . S
C1462 C1468 1.465 . S
C1463 C1458 1.399 . S
C1463 C1462 1.394 . S
C1463 C1464 1.516 . S
C1464 C1463 1.516 . S
C1464 C1465 1.502 . S
C1464 C1466 1.561 . S
C1464 C1467 1.526 . S
C1465 H1449 0.959 . S
C1465 H1450 0.959 . S
C1465 H1451 0.961 . S
C1465 C1464 1.502 . S
C1466 H1452 0.960 . S
C1466 H1453 0.961 . S
C1466 H1454 0.959 . S
C1466 C1464 1.561 . S
C1467 C1464 1.526 . S
C1467 C1468 1.396 . S
C1467 C1472 1.390 . S
C1468 C1462 1.465 . S
C1468 C1467 1.396 . S
C1468 C1469 1.399 . S
C1469 H1455 0.929 . S
C1469 C1468 1.399 . S
C1469 C1470 1.385 . S
C1470 H1456 0.931 . S
C1470 C1469 1.385 . S
C1470 C1471 1.389 . S
C1471 C1470 1.389 . S
C1471 C1472 1.387 . S
C1472 H1457 0.930 . S
C1472 C1467 1.390 . S
C1472 C1471 1.387 . S
H1473 C1485 0.930 . S
H1474 C1487 0.930 . S
H1475 C1488 0.930 . S
H1476 C1492 0.959 . S
H1477 C1492 0.959 . S
H1478 C1492 0.961 . S
H1479 C1493 0.960 . S
H1480 C1493 0.961 1_556 S
H1481 C1493 0.959 . S
H1482 C1496 0.929 . S
H1483 C1497 0.931 . S
H1484 C1499 0.930 . S
C1485 H1473 0.930 . S
C1485 C1486 1.399 . S
C1485 C1490 1.399 . S
C1486 C1485 1.399 . S
C1486 C1487 1.376 . S
C1487 H1474 0.930 . S
C1487 C1486 1.376 . S
C1487 C1488 1.388 . S
C1488 H1475 0.930 . S
C1488 C1487 1.388 . S
C1488 C1489 1.390 . S
C1489 C1488 1.390 . S
C1489 C1490 1.394 . S
C1489 C1495 1.465 . S
C1490 C1485 1.399 . S
C1490 C1489 1.394 . S
C1490 C1491 1.516 . S
C1491 C1490 1.516 . S
C1491 C1492 1.502 . S
C1491 C1493 1.561 . S
C1491 C1494 1.526 1_554 S
C1492 H1476 0.959 . S
C1492 H1477 0.959 . S
C1492 H1478 0.961 . S
C1492 C1491 1.502 . S
C1493 H1479 0.960 . S
C1493 H1480 0.961 1_554 S
C1493 H1481 0.959 . S
C1493 C1491 1.561 . S
C1494 C1491 1.526 1_556 S
C1494 C1495 1.396 1_556 S
C1494 C1499 1.390 . S
C1495 C1489 1.465 . S
C1495 C1494 1.396 1_554 S
C1495 C1496 1.399 1_554 S
C1496 H1482 0.929 . S
C1496 C1495 1.399 1_556 S
C1496 C1497 1.385 . S
C1497 H1483 0.931 . S
C1497 C1496 1.385 . S
C1497 C1498 1.389 . S
C1498 C1497 1.389 . S
C1498 C1499 1.387 . S
C1499 H1484 0.930 . S
C1499 C1494 1.390 . S
C1499 C1498 1.387 . S
H1500 C1512 0.930 . S
H1501 C1514 0.930 . S
H1502 C1515 0.930 . S
H1503 C1519 0.959 . S
H1504 C1519 0.959 . S
H1505 C1519 0.961 . S
H1506 C1520 0.960 . S
H1507 C1520 0.961 . S
H1508 C1520 0.959 . S
H1509 C1523 0.929 . S
H1510 C1524 0.931 . S
H1511 C1526 0.930 . S
C1512 H1500 0.930 . S
C1512 C1513 1.399 . S
C1512 C1517 1.399 . S
C1513 C1512 1.399 . S
C1513 C1514 1.376 . S
C1514 H1501 0.930 . S
C1514 C1513 1.376 . S
C1514 C1515 1.388 . S
C1515 H1502 0.930 . S
C1515 C1514 1.388 . S
C1515 C1516 1.390 . S
C1516 C1515 1.390 . S
C1516 C1517 1.394 . S
C1516 C1522 1.465 . S
C1517 C1512 1.399 . S
C1517 C1516 1.394 . S
C1517 C1518 1.516 . S
C1518 C1517 1.516 . S
C1518 C1519 1.502 . S
C1518 C1520 1.561 . S
C1518 C1521 1.526 . S
C1519 H1503 0.959 . S
C1519 H1504 0.959 . S
C1519 H1505 0.961 . S
C1519 C1518 1.502 . S
C1520 H1506 0.960 . S
C1520 H1507 0.961 . S
C1520 H1508 0.959 . S
C1520 C1518 1.561 . S
C1521 C1518 1.526 . S
C1521 C1522 1.396 . S
C1521 C1526 1.390 . S
C1522 C1516 1.465 . S
C1522 C1521 1.396 . S
C1522 C1523 1.399 . S
C1523 H1509 0.929 . S
C1523 C1522 1.399 . S
C1523 C1524 1.385 . S
C1524 H1510 0.931 . S
C1524 C1523 1.385 . S
C1524 C1525 1.389 . S
C1525 C1524 1.389 . S
C1525 C1526 1.387 . S
C1526 H1511 0.930 . S
C1526 C1521 1.390 . S
C1526 C1525 1.387 . S
H1527 C1539 0.930 . S
H1528 C1541 0.930 . S
H1529 C1542 0.930 . S
H1530 C1546 0.959 . S
H1531 C1546 0.959 . S
H1532 C1546 0.961 . S
H1533 C1547 0.960 . S
H1534 C1547 0.961 . S
H1535 C1547 0.959 . S
H1536 C1550 0.929 . S
H1537 C1551 0.931 . S
H1538 C1553 0.930 . S
C1539 H1527 0.930 . S
C1539 C1540 1.399 . S
C1539 C1544 1.399 . S
C1540 C1539 1.399 . S
C1540 C1541 1.376 . S
C1541 H1528 0.930 . S
C1541 C1540 1.376 . S
C1541 C1542 1.388 . S
C1542 H1529 0.930 . S
C1542 C1541 1.388 . S
C1542 C1543 1.390 . S
C1543 C1542 1.390 . S
C1543 C1544 1.394 . S
C1543 C1549 1.465 . S
C1544 C1539 1.399 . S
C1544 C1543 1.394 . S
C1544 C1545 1.516 . S
C1545 C1544 1.516 . S
C1545 C1546 1.502 . S
C1545 C1547 1.561 . S
C1545 C1548 1.526 . S
C1546 H1530 0.959 . S
C1546 H1531 0.959 . S
C1546 H1532 0.961 . S
C1546 C1545 1.502 . S
C1547 H1533 0.960 . S
C1547 H1534 0.961 . S
C1547 H1535 0.959 . S
C1547 C1545 1.561 . S
C1548 C1545 1.526 . S
C1548 C1549 1.396 . S
C1548 C1553 1.390 . S
C1549 C1543 1.465 . S
C1549 C1548 1.396 . S
C1549 C1550 1.399 . S
C1550 H1536 0.929 . S
C1550 C1549 1.399 . S
C1550 C1551 1.385 . S
C1551 H1537 0.931 . S
C1551 C1550 1.385 . S
C1551 C1552 1.389 . S
C1552 C1551 1.389 . S
C1552 C1553 1.387 . S
C1553 H1538 0.930 . S
C1553 C1548 1.390 . S
C1553 C1552 1.387 . S
H1554 C1566 0.930 . S
H1555 C1568 0.930 . S
H1556 C1569 0.930 . S
H1557 C1573 0.959 . S
H1558 C1573 0.959 . S
H1559 C1573 0.961 . S
H1560 C1574 0.960 . S
H1561 C1574 0.961 . S
H1562 C1574 0.959 . S
H1563 C1577 0.929 . S
H1564 C1578 0.931 . S
H1565 C1580 0.930 . S
C1566 H1554 0.930 . S
C1566 C1567 1.399 . S
C1566 C1571 1.399 . S
C1567 C1566 1.399 . S
C1567 C1568 1.376 . S
C1568 H1555 0.930 . S
C1568 C1567 1.376 . S
C1568 C1569 1.388 . S
C1569 H1556 0.930 . S
C1569 C1568 1.388 . S
C1569 C1570 1.390 . S
C1570 C1569 1.390 . S
C1570 C1571 1.394 . S
C1570 C1576 1.465 . S
C1571 C1566 1.399 . S
C1571 C1570 1.394 . S
C1571 C1572 1.516 . S
C1572 C1571 1.516 . S
C1572 C1573 1.502 . S
C1572 C1574 1.561 . S
C1572 C1575 1.526 . S
C1573 H1557 0.959 . S
C1573 H1558 0.959 . S
C1573 H1559 0.961 . S
C1573 C1572 1.502 . S
C1574 H1560 0.960 . S
C1574 H1561 0.961 . S
C1574 H1562 0.959 . S
C1574 C1572 1.561 . S
C1575 C1572 1.526 . S
C1575 C1576 1.396 . S
C1575 C1580 1.390 . S
C1576 C1570 1.465 . S
C1576 C1575 1.396 . S
C1576 C1577 1.399 . S
C1577 H1563 0.929 . S
C1577 C1576 1.399 . S
C1577 C1578 1.385 . S
C1578 H1564 0.931 . S
C1578 C1577 1.385 . S
C1578 C1579 1.389 . S
C1579 C1578 1.389 . S
C1579 C1580 1.387 . S
C1580 H1565 0.930 . S
C1580 C1575 1.390 . S
C1580 C1579 1.387 . S
H1581 C1593 0.930 . S
H1582 C1595 0.930 . S
H1583 C1596 0.930 . S
H1584 C1600 0.959 . S
H1585 C1600 0.959 . S
H1586 C1600 0.961 . S
H1587 C1601 0.960 . S
H1588 C1601 0.961 . S
H1589 C1601 0.959 . S
H1590 C1604 0.929 . S
H1591 C1605 0.931 1_556 S
H1592 C1607 0.930 . S
C1593 H1581 0.930 . S
C1593 C1594 1.399 . S
C1593 C1598 1.399 . S
C1594 C1593 1.399 . S
C1594 C1595 1.376 . S
C1595 H1582 0.930 . S
C1595 C1594 1.376 . S
C1595 C1596 1.388 . S
C1596 H1583 0.930 . S
C1596 C1595 1.388 . S
C1596 C1597 1.390 . S
C1597 C1596 1.390 . S
C1597 C1598 1.394 . S
C1597 C1603 1.465 . S
C1598 C1593 1.399 . S
C1598 C1597 1.394 . S
C1598 C1599 1.516 . S
C1599 C1598 1.516 . S
C1599 C1600 1.502 . S
C1599 C1601 1.561 . S
C1599 C1602 1.526 . S
C1600 H1584 0.959 . S
C1600 H1585 0.959 . S
C1600 H1586 0.961 . S
C1600 C1599 1.502 . S
C1601 H1587 0.960 . S
C1601 H1588 0.961 . S
C1601 H1589 0.959 . S
C1601 C1599 1.561 . S
C1602 C1599 1.526 . S
C1602 C1603 1.396 . S
C1602 C1607 1.390 . S
C1603 C1597 1.465 . S
C1603 C1602 1.396 . S
C1603 C1604 1.399 . S
C1604 H1590 0.929 . S
C1604 C1603 1.399 . S
C1604 C1605 1.385 . S
C1605 H1591 0.931 1_554 S
C1605 C1604 1.385 . S
C1605 C1606 1.389 . S
C1606 C1605 1.389 . S
C1606 C1607 1.387 . S
C1607 H1592 0.930 . S
C1607 C1602 1.390 . S
C1607 C1606 1.387 . S
C541 C259 1.488 . S
C553 C28 1.497 . S
C568 C61 1.519 . S
C580 C160 1.526 . S
C595 C94 1.561 . S
C607 C193 1.559 . S
C622 C226 1.557 . S
C634 C127 1.568 . S
C649 C380 1.557 . S
C661 C149 1.582 . S
C676 C281 1.573 . S
C688 C17 1.595 . S
C703 C215 1.608 . S
C715 C347 1.598 . S
C730 C83 1.599 . S
C742 C314 1.629 . S
C757 C325 1.553 . S
C769 C424 1.545 . S
C784 C490 1.559 . S
C796 C358 1.558 . S
C811 C457 1.518 1_655 S
C823 C292 1.524 . S
C838 C391 1.519 . S
C850 C523 1.526 1_655 S
C865 C116 1.628 . S
C877 C479 1.600 . S
C892 C182 1.636 . S
C904 C413 1.607 . S
C919 C50 1.573 . S
C931 C512 1.595 . S
C946 C248 1.565 . S
C958 C446 1.591 . S
C973 C8 1.325 . S
C985 C140 1.231 . S
C1000 C173 1.253 . S
C1012 C41 1.337 . S
C1027 C206 1.451 . S
C1039 C74 1.549 . S
C1054 C107 1.286 . S
C1066 C239 1.287 . S
C1081 C338 1.257 . S
C1093 C272 1.317 . S
C1108 C305 1.331 . S
C1120 C371 1.262 . S
C1135 C404 1.480 . S
C1147 C470 1.535 . S
C1162 C503 1.338 . S
C1174 C437 1.227 . S
C1189 N14 0.938 1_556 S
C1201 N5 0.959 . S
C1216 N47 0.926 . S
C1228 N38 0.953 . S
C1243 N71 0.986 . S
C1255 N80 0.971 . S
C1270 N104 0.950 . S
C1282 N113 0.949 . S
C1297 N137 0.962 . S
C1309 N146 0.934 1_554 S
C1324 N170 0.953 . S
C1336 N179 0.951 . S
C1351 N212 0.984 . S
C1363 N203 0.972 . S
C1378 N245 0.927 . S
C1390 N236 0.952 . S
C1405 N269 0.946 . S
C1417 N278 0.931 . S
C1432 N302 0.961 . S
C1444 N311 0.938 . S
C1459 N344 0.937 . S
C1471 N335 0.963 . S
C1486 N377 0.926 . S
C1498 N368 0.952 . S
C1513 N410 0.981 . S
C1525 N401 0.981 . S
C1540 N443 0.941 1_556 S
C1552 N434 0.954 . S
C1567 N476 0.976 . S
C1579 N467 0.979 . S
C1594 N500 0.935 . S
C1606 N509 0.963 1_554 S
