# Generated by pormake.
# Topology vda, (6)-cn, num edge types: 1
# Building blocks:
#     Node 0, Type 0, BuildingBlock: VOLQOD_clean_sbu_1, # of connection points: 6
#     Node 1, Type 0, BuildingBlock: VOLQOD_clean_sbu_1, # of connection points: 6
#     Node 2, Type 0, BuildingBlock: VOLQOD_clean_sbu_1, # of connection points: 6
#     Node 3, Type 0, BuildingBlock: VOLQOD_clean_sbu_1, # of connection points: 6
#     Node 4, Type 0, BuildingBlock: VOLQOD_clean_sbu_1, # of connection points: 6
#     Node 5, Type 0, BuildingBlock: VOLQOD_clean_sbu_1, # of connection points: 6
#     Node 6, Type 0, BuildingBlock: VOLQOD_clean_sbu_1, # of connection points: 6
#     Node 7, Type 0, BuildingBlock: VOLQOD_clean_sbu_1, # of connection points: 6
#     Node 8, Type 0, BuildingBlock: VOLQOD_clean_sbu_1, # of connection points: 6
#     Node 9, Type 0, BuildingBlock: VOLQOD_clean_sbu_1, # of connection points: 6
#     Node 10, Type 0, BuildingBlock: VOLQOD_clean_sbu_1, # of connection points: 6
#     Node 11, Type 0, BuildingBlock: VOLQOD_clean_sbu_1, # of connection points: 6
#     Node 12, Type 0, BuildingBlock: VOLQOD_clean_sbu_1, # of connection points: 6
#     Node 13, Type 0, BuildingBlock: VOLQOD_clean_sbu_1, # of connection points: 6
#     Node 14, Type 0, BuildingBlock: VOLQOD_clean_sbu_1, # of connection points: 6
#     Node 15, Type 0, BuildingBlock: VOLQOD_clean_sbu_1, # of connection points: 6
#     Node 16, Type 0, BuildingBlock: VOLQOD_clean_sbu_1, # of connection points: 6
#     Node 17, Type 0, BuildingBlock: VOLQOD_clean_sbu_1, # of connection points: 6
#     Node 18, Type 0, BuildingBlock: VOLQOD_clean_sbu_1, # of connection points: 6
#     Node 19, Type 0, BuildingBlock: VOLQOD_clean_sbu_1, # of connection points: 6
#     Node 20, Type 0, BuildingBlock: VOLQOD_clean_sbu_1, # of connection points: 6
#     Node 21, Type 0, BuildingBlock: VOLQOD_clean_sbu_1, # of connection points: 6
#     Node 22, Type 0, BuildingBlock: VOLQOD_clean_sbu_1, # of connection points: 6
#     Node 23, Type 0, BuildingBlock: VOLQOD_clean_sbu_1, # of connection points: 6
#     Node 24, Type 0, BuildingBlock: VOLQOD_clean_sbu_1, # of connection points: 6
#     Node 25, Type 0, BuildingBlock: VOLQOD_clean_sbu_1, # of connection points: 6
#     Node 26, Type 0, BuildingBlock: VOLQOD_clean_sbu_1, # of connection points: 6
#     Node 27, Type 0, BuildingBlock: VOLQOD_clean_sbu_1, # of connection points: 6
#     Node 28, Type 0, BuildingBlock: VOLQOD_clean_sbu_1, # of connection points: 6
#     Node 29, Type 0, BuildingBlock: VOLQOD_clean_sbu_1, # of connection points: 6
#     Node 30, Type 0, BuildingBlock: VOLQOD_clean_sbu_1, # of connection points: 6
#     Node 31, Type 0, BuildingBlock: VOLQOD_clean_sbu_1, # of connection points: 6
#     Edge 32, Type (0, 0), BuildingBlock: UVAHIK_clean_linker_0, # of connection points: 2
#     Edge 33, Type (0, 0), BuildingBlock: UVAHIK_clean_linker_0, # of connection points: 2
#     Edge 34, Type (0, 0), BuildingBlock: UVAHIK_clean_linker_0, # of connection points: 2
#     Edge 35, Type (0, 0), BuildingBlock: UVAHIK_clean_linker_0, # of connection points: 2
#     Edge 36, Type (0, 0), BuildingBlock: UVAHIK_clean_linker_0, # of connection points: 2
#     Edge 37, Type (0, 0), BuildingBlock: UVAHIK_clean_linker_0, # of connection points: 2
#     Edge 38, Type (0, 0), BuildingBlock: UVAHIK_clean_linker_0, # of connection points: 2
#     Edge 39, Type (0, 0), BuildingBlock: UVAHIK_clean_linker_0, # of connection points: 2
#     Edge 40, Type (0, 0), BuildingBlock: UVAHIK_clean_linker_0, # of connection points: 2
#     Edge 41, Type (0, 0), BuildingBlock: UVAHIK_clean_linker_0, # of connection points: 2
#     Edge 42, Type (0, 0), BuildingBlock: UVAHIK_clean_linker_0, # of connection points: 2
#     Edge 43, Type (0, 0), BuildingBlock: UVAHIK_clean_linker_0, # of connection points: 2
#     Edge 44, Type (0, 0), BuildingBlock: UVAHIK_clean_linker_0, # of connection points: 2
#     Edge 45, Type (0, 0), BuildingBlock: UVAHIK_clean_linker_0, # of connection points: 2
#     Edge 46, Type (0, 0), BuildingBlock: UVAHIK_clean_linker_0, # of connection points: 2
#     Edge 47, Type (0, 0), BuildingBlock: UVAHIK_clean_linker_0, # of connection points: 2
#     Edge 48, Type (0, 0), BuildingBlock: UVAHIK_clean_linker_0, # of connection points: 2
#     Edge 49, Type (0, 0), BuildingBlock: UVAHIK_clean_linker_0, # of connection points: 2
#     Edge 50, Type (0, 0), BuildingBlock: UVAHIK_clean_linker_0, # of connection points: 2
#     Edge 51, Type (0, 0), BuildingBlock: UVAHIK_clean_linker_0, # of connection points: 2
#     Edge 52, Type (0, 0), BuildingBlock: UVAHIK_clean_linker_0, # of connection points: 2
#     Edge 53, Type (0, 0), BuildingBlock: UVAHIK_clean_linker_0, # of connection points: 2
#     Edge 54, Type (0, 0), BuildingBlock: UVAHIK_clean_linker_0, # of connection points: 2
#     Edge 55, Type (0, 0), BuildingBlock: UVAHIK_clean_linker_0, # of connection points: 2
#     Edge 56, Type (0, 0), BuildingBlock: UVAHIK_clean_linker_0, # of connection points: 2
#     Edge 57, Type (0, 0), BuildingBlock: UVAHIK_clean_linker_0, # of connection points: 2
#     Edge 58, Type (0, 0), BuildingBlock: UVAHIK_clean_linker_0, # of connection points: 2
#     Edge 59, Type (0, 0), BuildingBlock: UVAHIK_clean_linker_0, # of connection points: 2
#     Edge 60, Type (0, 0), BuildingBlock: UVAHIK_clean_linker_0, # of connection points: 2
#     Edge 61, Type (0, 0), BuildingBlock: UVAHIK_clean_linker_0, # of connection points: 2
#     Edge 62, Type (0, 0), BuildingBlock: UVAHIK_clean_linker_0, # of connection points: 2
#     Edge 63, Type (0, 0), BuildingBlock: UVAHIK_clean_linker_0, # of connection points: 2
#     Edge 64, Type (0, 0), BuildingBlock: UVAHIK_clean_linker_0, # of connection points: 2
#     Edge 65, Type (0, 0), BuildingBlock: UVAHIK_clean_linker_0, # of connection points: 2
#     Edge 66, Type (0, 0), BuildingBlock: UVAHIK_clean_linker_0, # of connection points: 2
#     Edge 67, Type (0, 0), BuildingBlock: UVAHIK_clean_linker_0, # of connection points: 2
#     Edge 68, Type (0, 0), BuildingBlock: UVAHIK_clean_linker_0, # of connection points: 2
#     Edge 69, Type (0, 0), BuildingBlock: UVAHIK_clean_linker_0, # of connection points: 2
#     Edge 70, Type (0, 0), BuildingBlock: UVAHIK_clean_linker_0, # of connection points: 2
#     Edge 71, Type (0, 0), BuildingBlock: UVAHIK_clean_linker_0, # of connection points: 2
#     Edge 72, Type (0, 0), BuildingBlock: UVAHIK_clean_linker_0, # of connection points: 2
#     Edge 73, Type (0, 0), BuildingBlock: UVAHIK_clean_linker_0, # of connection points: 2
#     Edge 74, Type (0, 0), BuildingBlock: UVAHIK_clean_linker_0, # of connection points: 2
#     Edge 75, Type (0, 0), BuildingBlock: UVAHIK_clean_linker_0, # of connection points: 2
#     Edge 76, Type (0, 0), BuildingBlock: UVAHIK_clean_linker_0, # of connection points: 2
#     Edge 77, Type (0, 0), BuildingBlock: UVAHIK_clean_linker_0, # of connection points: 2
#     Edge 78, Type (0, 0), BuildingBlock: UVAHIK_clean_linker_0, # of connection points: 2
#     Edge 79, Type (0, 0), BuildingBlock: UVAHIK_clean_linker_0, # of connection points: 2
#     Edge 80, Type (0, 0), BuildingBlock: UVAHIK_clean_linker_0, # of connection points: 2
#     Edge 81, Type (0, 0), BuildingBlock: UVAHIK_clean_linker_0, # of connection points: 2
#     Edge 82, Type (0, 0), BuildingBlock: UVAHIK_clean_linker_0, # of connection points: 2
#     Edge 83, Type (0, 0), BuildingBlock: UVAHIK_clean_linker_0, # of connection points: 2
#     Edge 84, Type (0, 0), BuildingBlock: UVAHIK_clean_linker_0, # of connection points: 2
#     Edge 85, Type (0, 0), BuildingBlock: UVAHIK_clean_linker_0, # of connection points: 2
#     Edge 86, Type (0, 0), BuildingBlock: UVAHIK_clean_linker_0, # of connection points: 2
#     Edge 87, Type (0, 0), BuildingBlock: UVAHIK_clean_linker_0, # of connection points: 2
#     Edge 88, Type (0, 0), BuildingBlock: UVAHIK_clean_linker_0, # of connection points: 2
#     Edge 89, Type (0, 0), BuildingBlock: UVAHIK_clean_linker_0, # of connection points: 2
#     Edge 90, Type (0, 0), BuildingBlock: UVAHIK_clean_linker_0, # of connection points: 2
#     Edge 91, Type (0, 0), BuildingBlock: UVAHIK_clean_linker_0, # of connection points: 2
#     Edge 92, Type (0, 0), BuildingBlock: UVAHIK_clean_linker_0, # of connection points: 2
#     Edge 93, Type (0, 0), BuildingBlock: UVAHIK_clean_linker_0, # of connection points: 2
#     Edge 94, Type (0, 0), BuildingBlock: UVAHIK_clean_linker_0, # of connection points: 2
#     Edge 95, Type (0, 0), BuildingBlock: UVAHIK_clean_linker_0, # of connection points: 2
#     Edge 96, Type (0, 0), BuildingBlock: UVAHIK_clean_linker_0, # of connection points: 2
#     Edge 97, Type (0, 0), BuildingBlock: UVAHIK_clean_linker_0, # of connection points: 2
#     Edge 98, Type (0, 0), BuildingBlock: UVAHIK_clean_linker_0, # of connection points: 2
#     Edge 99, Type (0, 0), BuildingBlock: UVAHIK_clean_linker_0, # of connection points: 2
#     Edge 100, Type (0, 0), BuildingBlock: UVAHIK_clean_linker_0, # of connection points: 2
#     Edge 101, Type (0, 0), BuildingBlock: UVAHIK_clean_linker_0, # of connection points: 2
#     Edge 102, Type (0, 0), BuildingBlock: UVAHIK_clean_linker_0, # of connection points: 2
#     Edge 103, Type (0, 0), BuildingBlock: UVAHIK_clean_linker_0, # of connection points: 2
#     Edge 104, Type (0, 0), BuildingBlock: UVAHIK_clean_linker_0, # of connection points: 2
#     Edge 105, Type (0, 0), BuildingBlock: UVAHIK_clean_linker_0, # of connection points: 2
#     Edge 106, Type (0, 0), BuildingBlock: UVAHIK_clean_linker_0, # of connection points: 2
#     Edge 107, Type (0, 0), BuildingBlock: UVAHIK_clean_linker_0, # of connection points: 2
#     Edge 108, Type (0, 0), BuildingBlock: UVAHIK_clean_linker_0, # of connection points: 2
#     Edge 109, Type (0, 0), BuildingBlock: UVAHIK_clean_linker_0, # of connection points: 2
#     Edge 110, Type (0, 0), BuildingBlock: UVAHIK_clean_linker_0, # of connection points: 2
#     Edge 111, Type (0, 0), BuildingBlock: UVAHIK_clean_linker_0, # of connection points: 2
#     Edge 112, Type (0, 0), BuildingBlock: UVAHIK_clean_linker_0, # of connection points: 2
#     Edge 113, Type (0, 0), BuildingBlock: UVAHIK_clean_linker_0, # of connection points: 2
#     Edge 114, Type (0, 0), BuildingBlock: UVAHIK_clean_linker_0, # of connection points: 2
#     Edge 115, Type (0, 0), BuildingBlock: UVAHIK_clean_linker_0, # of connection points: 2
#     Edge 116, Type (0, 0), BuildingBlock: UVAHIK_clean_linker_0, # of connection points: 2
#     Edge 117, Type (0, 0), BuildingBlock: UVAHIK_clean_linker_0, # of connection points: 2
#     Edge 118, Type (0, 0), BuildingBlock: UVAHIK_clean_linker_0, # of connection points: 2
#     Edge 119, Type (0, 0), BuildingBlock: UVAHIK_clean_linker_0, # of connection points: 2
#     Edge 120, Type (0, 0), BuildingBlock: UVAHIK_clean_linker_0, # of connection points: 2
#     Edge 121, Type (0, 0), BuildingBlock: UVAHIK_clean_linker_0, # of connection points: 2
#     Edge 122, Type (0, 0), BuildingBlock: UVAHIK_clean_linker_0, # of connection points: 2
#     Edge 123, Type (0, 0), BuildingBlock: UVAHIK_clean_linker_0, # of connection points: 2
#     Edge 124, Type (0, 0), BuildingBlock: UVAHIK_clean_linker_0, # of connection points: 2
#     Edge 125, Type (0, 0), BuildingBlock: UVAHIK_clean_linker_0, # of connection points: 2
#     Edge 126, Type (0, 0), BuildingBlock: UVAHIK_clean_linker_0, # of connection points: 2
#     Edge 127, Type (0, 0), BuildingBlock: UVAHIK_clean_linker_0, # of connection points: 2
# Relax obj value: 0.526
# Max RMSD: 0.261
# Mean RMSD: 0.261
data_MOF--net-vda--node1-VOLQOD_clean_sbu_1--edge1-UVAHIK_clean_linker_0
_symmetry_space_group_name_H-M    P1
_symmetry_Int_Tables_number       1
_symmetry_cell_setting            triclinic
loop_
_symmetry_equiv_pos_as_xyz
'x, y, z'
_cell_length_a     60.896212
_cell_length_b     47.313555
_cell_length_c     84.832436
_cell_angle_alpha  90.021235
_cell_angle_beta   90.020159
_cell_angle_gamma 90.011724
loop_
_atom_site_label
_atom_site_type_symbol
_atom_site_fract_x
_atom_site_fract_y
_atom_site_fract_z
_atom_type_partial_charge
O0 O 0.34748 0.03156 0.9834 0.0
Zn1 Zn 0.35793 0.0708 0.97931 0.0
O2 O 0.34552 0.09796 -0.00627 0.0
Zn3 Zn 0.32965 0.12691 0.98139 0.0
Zn4 Zn 0.32637 0.07747 0.00802 0.0
Zn5 Zn 0.36892 0.11406 0.00642 0.0
O6 O 0.3417 0.16652 0.987 0.0
O7 O 0.37096 0.15512 0.00152 0.0
O8 O 0.35293 0.08103 0.95701 0.0
O9 O 0.33576 0.12229 0.95783 0.0
O10 O 0.2962 0.12112 0.98456 0.0
O11 O 0.29544 0.08568 0.00196 0.0
O12 O 0.33017 0.08999 0.03053 0.0
O13 O 0.39033 0.06843 0.9819 0.0
O14 O 0.36219 0.11218 0.02952 0.0
O15 O 0.39827 0.09508 0.00266 0.0
C16 C 0.33928 0.02014 -0.00439 0.0
C17 C 0.35913 0.17344 -0.00546 0.0
C18 C 0.28565 0.10321 -0.00701 0.0
C19 C 0.34483 0.10239 0.95007 0.0
C20 C 0.34583 0.10299 0.0373 0.0
C21 C 0.40406 0.078 0.99182 0.0
O22 O 0.33185 0.03506 0.00693 0.0
O23 O 0.90986 0.22025 0.97854 0.0
Zn24 Zn 0.8981 0.18105 0.97627 0.0
O25 O 0.91127 0.15451 0.99064 0.0
Zn26 Zn 0.9275 0.12583 0.97827 0.0
Zn27 Zn 0.9303 0.176 0.00449 0.0
Zn28 Zn 0.88833 0.13803 0.00361 0.0
O29 O 0.917 0.08602 0.9849 0.0
O30 O 0.88745 0.09671 -0.00066 0.0
O31 O 0.89944 0.16755 0.95434 0.0
O32 O 0.91914 0.12809 0.95492 0.0
O33 O 0.96095 0.13334 0.98057 0.0
O34 O 0.96127 0.1682 -0.00165 0.0
O35 O 0.9268 0.1647 0.02727 0.0
O36 O 0.86615 0.18472 0.98031 0.0
O37 O 0.89522 0.14143 0.02656 0.0
O38 O 0.85837 0.15557 -1e-05 0.0
C39 C 0.91753 0.23241 0.99073 0.0
C40 C 0.89985 0.07869 -0.00737 0.0
C41 C 0.97127 0.15133 0.98911 0.0
C42 C 0.90752 0.14609 0.94749 0.0
C43 C 0.91134 0.15159 0.03422 0.0
C44 C 0.8525 0.17391 0.98985 0.0
O45 O 0.92434 0.21814 0.00252 0.0
O46 O 0.35393 0.22187 0.25992 0.0
Zn47 Zn 0.36094 0.18087 0.26288 0.0
O48 O 0.348 0.15741 0.24674 0.0
Zn49 Zn 0.33134 0.12645 0.25651 0.0
Zn50 Zn 0.32924 0.18133 0.2342 0.0
Zn51 Zn 0.3709 0.14369 0.23304 0.0
O52 O 0.34346 0.08797 0.24901 0.0
O53 O 0.37309 0.10187 0.23562 0.0
O54 O 0.35277 0.16807 0.28437 0.0
O55 O 0.33659 0.12662 0.28021 0.0
O56 O 0.29797 0.1338 0.25353 0.0
O57 O 0.29857 0.17613 0.24183 0.0
O58 O 0.33087 0.17111 0.21115 0.0
O59 O 0.39371 0.18001 0.26159 0.0
O60 O 0.3635 0.15026 0.21032 0.0
O61 O 0.40025 0.16163 0.23798 0.0
C62 C 0.34666 0.2354 0.24805 0.0
C63 C 0.36116 0.08238 0.24146 0.0
C64 C 0.2882 0.15607 0.24852 0.0
C65 C 0.34435 0.14528 0.28951 0.0
C66 C 0.34655 0.15995 0.20341 0.0
C67 C 0.40688 0.17387 0.25049 0.0
O68 O 0.3379 0.22251 0.23645 0.0
O69 O 0.91023 0.02623 0.25637 0.0
Zn70 Zn 0.90135 0.06653 0.2593 0.0
O71 O 0.91364 0.09113 0.24339 0.0
Zn72 Zn 0.93024 0.12167 0.25383 0.0
Zn73 Zn 0.93217 0.06826 0.22989 0.0
Zn74 Zn 0.89007 0.10561 0.23031 0.0
O75 O 0.91815 0.16049 0.2468 0.0
O76 O 0.88838 0.14729 0.23329 0.0
O77 O 0.9081 0.07951 0.281 0.0
O78 O 0.92492 0.12065 0.27751 0.0
O79 O 0.96357 0.11497 0.25035 0.0
O80 O 0.96338 0.07628 0.23526 0.0
O81 O 0.92818 0.07794 0.20699 0.0
O82 O 0.86869 0.06528 0.25769 0.0
O83 O 0.89612 0.10011 0.2073 0.0
O84 O 0.86077 0.08776 0.23546 0.0
C85 C 0.91783 0.01309 0.24448 0.0
C86 C 0.9005 0.16642 0.23928 0.0
C87 C 0.97369 0.09523 0.24296 0.0
C88 C 0.91649 0.10202 0.28652 0.0
C89 C 0.91237 0.08989 0.19981 0.0
C90 C 0.85491 0.07317 0.24734 0.0
O91 O 0.92565 0.02642 0.23268 0.0
O92 O 0.65723 0.96853 0.98172 0.0
Zn93 Zn 0.65039 0.92775 0.97795 0.0
O94 O 0.66247 0.90385 -0.0055 0.0
Zn95 Zn 0.68128 0.87442 0.98533 0.0
Zn96 Zn 0.6785 0.92765 0.00931 0.0
Zn97 Zn 0.63846 0.88649 0.00569 0.0
O98 O 0.66859 0.83448 0.98923 0.0
O99 O 0.63708 0.84535 0.00108 0.0
O100 O 0.66156 0.91673 0.9567 0.0
O101 O 0.6816 0.87858 0.96181 0.0
O102 O 0.71335 0.88112 0.99198 0.0
O103 O 0.71064 0.9201 0.00672 0.0
O104 O 0.67039 0.91918 0.03183 0.0
O105 O 0.61737 0.92732 0.97799 0.0
O106 O 0.64209 0.89025 0.02883 0.0
O107 O 0.60973 0.90458 0.00018 0.0
C108 C 0.6643 0.98213 -0.00638 0.0
C109 C 0.65006 0.82725 -0.00491 0.0
C110 C 0.72213 0.90106 0.0 0.0
C111 C 0.6736 0.89634 0.95214 0.0
C112 C 0.65527 0.90381 0.03763 0.0
C113 C 0.60368 0.91927 0.9884 0.0
O114 O 0.67208 0.9693 0.0056 0.0
O115 O 0.09696 0.7832 0.97884 0.0
Zn116 Zn 0.10451 0.82373 0.97457 0.0
O117 O 0.09479 0.84829 0.99164 0.0
Zn118 Zn 0.07555 0.87814 0.98359 0.0
Zn119 Zn 0.07963 0.82541 0.00718 0.0
Zn120 Zn 0.12025 0.86476 0.00159 0.0
O121 O 0.08856 0.91769 0.98783 0.0
O122 O 0.12163 0.90608 -0.00287 0.0
O123 O 0.09202 0.83582 0.95379 0.0
O124 O 0.07397 0.87504 0.9601 0.0
O125 O 0.04382 0.8714 0.99092 0.0
O126 O 0.04733 0.83233 0.00542 0.0
O127 O 0.08892 0.83531 0.02921 0.0
O128 O 0.13752 0.82242 0.97312 0.0
O129 O 0.11895 0.86071 0.02493 0.0
O130 O 0.14796 0.84589 -0.00552 0.0
C131 C 0.09191 0.77027 0.99149 0.0
C132 C 0.10788 0.92447 -0.00758 0.0
C133 C 0.03546 0.85133 -0.00095 0.0
C134 C 0.08056 0.85722 0.94991 0.0
C135 C 0.10544 0.84901 0.03429 0.0
C136 C 0.15244 0.83044 0.98264 0.0
O137 O 0.08612 0.78378 0.00381 0.0
O138 O 0.67269 0.77898 0.75519 0.0
Zn139 Zn 0.66129 0.81728 0.76106 0.0
O140 O 0.66696 0.84548 0.74499 0.0
Zn141 Zn 0.68596 0.87531 0.75302 0.0
Zn142 Zn 0.68099 0.82594 0.72785 0.0
Zn143 Zn 0.63964 0.86148 0.73764 0.0
O144 O 0.67236 0.91467 0.74931 0.0
O145 O 0.63781 0.90207 0.74395 0.0
O146 O 0.67297 0.82959 0.78205 0.0
O147 O 0.68773 0.8714 0.77648 0.0
O148 O 0.7175 0.86924 0.74523 0.0
O149 O 0.7134 0.83265 0.72891 0.0
O150 O 0.66956 0.8397 0.70717 0.0
O151 O 0.6289 0.81019 0.76286 0.0
O152 O 0.63828 0.86057 0.71398 0.0
O153 O 0.61355 0.84015 0.746 0.0
C154 C 0.67346 0.76823 0.74144 0.0
C155 C 0.6521 0.92082 0.74719 0.0
C156 C 0.72556 0.8505 0.73603 0.0
C157 C 0.6826 0.85222 0.78633 0.0
C158 C 0.65178 0.85222 0.70352 0.0
C159 C 0.61203 0.82018 0.756 0.0
O160 O 0.67475 0.78394 0.72927 0.0
O161 O 0.09151 0.97412 0.75338 0.0
Zn162 Zn 0.10119 0.93499 0.75892 0.0
O163 O 0.09376 0.9075 0.74271 0.0
Zn164 Zn 0.07525 0.87744 0.75152 0.0
Zn165 Zn 0.07853 0.92766 0.72607 0.0
Zn166 Zn 0.12037 0.89154 0.73401 0.0
O167 O 0.08896 0.83796 0.74789 0.0
O168 O 0.12152 0.85012 0.73801 0.0
O169 O 0.08896 0.92391 0.77989 0.0
O170 O 0.07374 0.88209 0.77499 0.0
O171 O 0.04337 0.88284 0.74405 0.0
O172 O 0.04641 0.91927 0.72751 0.0
O173 O 0.08962 0.91663 0.7047 0.0
O174 O 0.13387 0.93952 0.76071 0.0
O175 O 0.1214 0.8963 0.71064 0.0
O176 O 0.14734 0.91014 0.74277 0.0
C177 C 0.08716 0.98527 0.7401 0.0
C178 C 0.10817 0.83144 0.74296 0.0
C179 C 0.03476 0.90118 0.73485 0.0
C180 C 0.07901 0.90175 0.78451 0.0
C181 C 0.10774 0.90552 0.70054 0.0
C182 C 0.15008 0.92895 0.75331 0.0
O183 O 0.08321 0.97 0.72805 0.0
O184 O 0.34791 0.53213 0.47964 0.0
Zn185 Zn 0.3579 0.5717 0.47576 0.0
O186 O 0.34626 0.59821 0.49097 0.0
Zn187 Zn 0.3299 0.62779 0.47949 0.0
Zn188 Zn 0.32774 0.57708 0.50536 0.0
Zn189 Zn 0.37012 0.61372 0.50344 0.0
O190 O 0.34151 0.66719 0.48598 0.0
O191 O 0.37138 0.65525 0.49975 0.0
O192 O 0.35174 0.58303 0.4537 0.0
O193 O 0.33612 0.6252 0.45585 0.0
O194 O 0.29651 0.62098 0.48277 0.0
O195 O 0.29657 0.58513 0.49989 0.0
O196 O 0.33254 0.58829 0.52804 0.0
O197 O 0.39053 0.56951 0.47746 0.0
O198 O 0.36498 0.60938 0.52667 0.0
O199 O 0.39934 0.59583 0.49818 0.0
C200 C 0.34034 0.52028 0.49194 0.0
C201 C 0.35906 0.67382 0.49345 0.0
C202 C 0.28632 0.60262 0.49115 0.0
C203 C 0.34423 0.60543 0.44745 0.0
C204 C 0.34889 0.60008 0.53469 0.0
C205 C 0.40471 0.57915 0.48705 0.0
O206 O 0.33336 0.53482 0.50356 0.0
O207 O 0.90862 0.72173 0.47891 0.0
Zn208 Zn 0.8989 0.68187 0.47575 0.0
O209 O 0.91135 0.65638 0.49116 0.0
Zn210 Zn 0.92832 0.62688 0.48 0.0
Zn211 Zn 0.92951 0.67862 0.50533 0.0
Zn212 Zn 0.88777 0.64048 0.50374 0.0
O213 O 0.91669 0.58737 0.48627 0.0
O214 O 0.8867 0.59903 0.49993 0.0
O215 O 0.90506 0.66979 0.45388 0.0
O216 O 0.92306 0.62927 0.45626 0.0
O217 O 0.96159 0.63399 0.48376 0.0
O218 O 0.96087 0.67057 0.50041 0.0
O219 O 0.92454 0.6685 0.52812 0.0
O220 O 0.86629 0.68361 0.47766 0.0
O221 O 0.89316 0.64489 0.52692 0.0
O222 O 0.85831 0.65799 0.49878 0.0
C223 C 0.91649 0.73442 0.49086 0.0
C224 C 0.89909 0.58053 0.49362 0.0
C225 C 0.97141 0.65277 0.49207 0.0
C226 C 0.91393 0.64812 0.44775 0.0
C227 C 0.90878 0.65564 0.53486 0.0
C228 C 0.85246 0.67415 0.48755 0.0
O229 O 0.92379 0.7207 0.50269 0.0
O230 O 0.34183 0.72709 0.75609 0.0
Zn231 Zn 0.35466 0.68882 0.75973 0.0
O232 O 0.34481 0.66076 0.74483 0.0
Zn233 Zn 0.32842 0.63128 0.75619 0.0
Zn234 Zn 0.32666 0.68085 0.72993 0.0
Zn235 Zn 0.36961 0.64539 0.73327 0.0
O236 O 0.34014 0.59188 0.74984 0.0
O237 O 0.37097 0.60398 0.73726 0.0
O238 O 0.35006 0.67654 0.78192 0.0
O239 O 0.33457 0.63424 0.77975 0.0
O240 O 0.29508 0.63804 0.75274 0.0
O241 O 0.29534 0.67329 0.73525 0.0
O242 O 0.33215 0.66792 0.70774 0.0
O243 O 0.38678 0.69503 0.75717 0.0
O244 O 0.36525 0.64872 0.70976 0.0
O245 O 0.39842 0.66409 0.73935 0.0
C246 C 0.33685 0.73835 0.74295 0.0
C247 C 0.35822 0.58535 0.74305 0.0
C248 C 0.28498 0.65614 0.74413 0.0
C249 C 0.3428 0.65395 0.78814 0.0
C250 C 0.34894 0.65658 0.70145 0.0
C251 C 0.40211 0.68419 0.749 0.0
O252 O 0.33252 0.72312 0.73095 0.0
O253 O 0.91739 0.52744 0.75535 0.0
Zn254 Zn 0.90607 0.56623 0.75984 0.0
O255 O 0.91553 0.59405 0.74467 0.0
Zn256 Zn 0.9315 0.62394 0.75599 0.0
Zn257 Zn 0.93396 0.57446 0.72972 0.0
Zn258 Zn 0.89049 0.60868 0.73306 0.0
O259 O 0.91964 0.66296 0.74933 0.0
O260 O 0.88907 0.65027 0.73659 0.0
O261 O 0.91219 0.57777 0.78195 0.0
O262 O 0.92515 0.62137 0.77953 0.0
O263 O 0.96484 0.61771 0.75273 0.0
O264 O 0.96519 0.58292 0.73491 0.0
O265 O 0.92815 0.58719 0.70757 0.0
O266 O 0.87364 0.56189 0.75868 0.0
O267 O 0.89446 0.60462 0.70956 0.0
O268 O 0.86185 0.59015 0.73964 0.0
C269 C 0.92347 0.51656 0.74235 0.0
C270 C 0.90165 0.66916 0.74232 0.0
C271 C 0.97519 0.60016 0.74395 0.0
C272 C 0.91826 0.60104 0.78806 0.0
C273 C 0.91097 0.59752 0.70126 0.0
C274 C 0.85814 0.57185 0.75033 0.0
O275 O 0.92877 0.53206 0.73066 0.0
O276 O 0.66103 0.47366 0.48163 0.0
Zn277 Zn 0.65422 0.43322 0.4768 0.0
O278 O 0.66477 0.40825 0.49338 0.0
Zn279 Zn 0.68319 0.37834 0.48432 0.0
Zn280 Zn 0.68095 0.43072 0.50867 0.0
Zn281 Zn 0.63979 0.39204 0.50402 0.0
O282 O 0.66968 0.33883 0.48819 0.0
O283 O 0.63809 0.35075 0.49966 0.0
O284 O 0.66667 0.42295 0.45577 0.0
O285 O 0.68412 0.38269 0.46077 0.0
O286 O 0.7153 0.38421 0.49119 0.0
O287 O 0.71305 0.42347 0.5057 0.0
O288 O 0.67297 0.42036 0.53099 0.0
O289 O 0.62123 0.43328 0.47553 0.0
O290 O 0.64222 0.39614 0.5273 0.0
O291 O 0.61173 0.41067 0.4974 0.0
C292 C 0.66727 0.48635 0.49407 0.0
C293 C 0.65091 0.3322 0.4939 0.0
C294 C 0.72437 0.40423 0.499 0.0
C295 C 0.6777 0.40165 0.45118 0.0
C296 C 0.65641 0.40716 0.53641 0.0
C297 C 0.60671 0.42543 0.48539 0.0
O298 O 0.67438 0.47261 0.50595 0.0
O299 O 0.09913 0.28429 0.47996 0.0
Zn300 Zn 0.1072 0.32464 0.47566 0.0
O301 O 0.09688 0.34959 0.49239 0.0
Zn302 Zn 0.07813 0.37946 0.48364 0.0
Zn303 Zn 0.08102 0.32709 0.50778 0.0
Zn304 Zn 0.12199 0.36592 0.5029 0.0
O305 O 0.0916 0.41898 0.4876 0.0
O306 O 0.1237 0.40715 0.49837 0.0
O307 O 0.09572 0.33636 0.4545 0.0
O308 O 0.07725 0.37557 0.46013 0.0
O309 O 0.04604 0.37338 0.49063 0.0
O310 O 0.04893 0.33459 0.50545 0.0
O311 O 0.08949 0.33708 0.53001 0.0
O312 O 0.14023 0.32306 0.47498 0.0
O313 O 0.11974 0.36227 0.52623 0.0
O314 O 0.14995 0.34684 0.49642 0.0
C315 C 0.09324 0.27157 0.49248 0.0
C316 C 0.11059 0.42566 0.49292 0.0
C317 C 0.03734 0.35358 0.4988 0.0
C318 C 0.08434 0.35757 0.45021 0.0
C319 C 0.10583 0.3508 0.53538 0.0
C320 C 0.15482 0.33118 0.48474 0.0
O321 O 0.08706 0.28528 0.50464 0.0
O322 O 0.66373 0.28214 0.25723 0.0
Zn323 Zn 0.65582 0.32254 0.26149 0.0
O324 O 0.66468 0.34721 0.24421 0.0
Zn325 Zn 0.68462 0.37676 0.25185 0.0
Zn326 Zn 0.67878 0.32428 0.22816 0.0
Zn327 Zn 0.63879 0.36407 0.23501 0.0
O328 O 0.67212 0.41655 0.24743 0.0
O329 O 0.63848 0.40555 0.23899 0.0
O330 O 0.66875 0.33513 0.28205 0.0
O331 O 0.68663 0.3743 0.27541 0.0
O332 O 0.71605 0.36896 0.24406 0.0
O333 O 0.71119 0.33087 0.22896 0.0
O334 O 0.66794 0.33376 0.2064 0.0
O335 O 0.62287 0.32078 0.26354 0.0
O336 O 0.63813 0.35896 0.21169 0.0
O337 O 0.61128 0.34639 0.2433 0.0
C338 C 0.66799 0.2692 0.24444 0.0
C339 C 0.65274 0.42371 0.24318 0.0
C340 C 0.7237 0.34912 0.23541 0.0
C341 C 0.68022 0.35664 0.28574 0.0
C342 C 0.65091 0.34707 0.20188 0.0
C343 C 0.6074 0.33007 0.25488 0.0
O344 O 0.67267 0.2827 0.23188 0.0
O345 O 0.09052 0.47479 0.25281 0.0
Zn346 Zn 0.10162 0.43638 0.25864 0.0
O347 O 0.09606 0.4083 0.24244 0.0
Zn348 Zn 0.07823 0.37738 0.25095 0.0
Zn349 Zn 0.08093 0.42747 0.2255 0.0
Zn350 Zn 0.12352 0.39406 0.23426 0.0
O351 O 0.09279 0.33854 0.24672 0.0
O352 O 0.12561 0.35268 0.23817 0.0
O353 O 0.0895 0.42433 0.27949 0.0
O354 O 0.07679 0.38117 0.27453 0.0
O355 O 0.04622 0.38231 0.24357 0.0
O356 O 0.04889 0.41875 0.227 0.0
O357 O 0.09229 0.41542 0.20437 0.0
O358 O 0.13398 0.44298 0.26097 0.0
O359 O 0.12503 0.39837 0.21082 0.0
O360 O 0.14958 0.41407 0.24367 0.0
C361 C 0.08759 0.48554 0.23923 0.0
C362 C 0.11248 0.33312 0.24232 0.0
C363 C 0.03742 0.40053 0.23438 0.0
C364 C 0.08091 0.40124 0.28409 0.0
C365 C 0.11098 0.40561 0.20049 0.0
C366 C 0.15098 0.43324 0.25416 0.0
O367 O 0.08537 0.4699 0.2271 0.0
O368 O 0.8509 0.0353 0.47539 0.0
Zn369 Zn 0.86151 0.07535 0.47444 0.0
O370 O 0.8475 0.09983 0.48956 0.0
Zn371 Zn 0.83123 0.12984 0.47835 0.0
Zn372 Zn 0.82825 0.07615 0.5019 0.0
Zn373 Zn 0.86961 0.11481 0.50369 0.0
O374 O 0.84188 0.16889 0.48616 0.0
O375 O 0.87085 0.15657 0.50079 0.0
O376 O 0.86006 0.0912 0.453 0.0
O377 O 0.83967 0.12998 0.45499 0.0
O378 O 0.79777 0.12163 0.47995 0.0
O379 O 0.79776 0.08142 0.4938 0.0
O380 O 0.82942 0.0859 0.52514 0.0
O381 O 0.89343 0.07229 0.47878 0.0
O382 O 0.86135 0.10845 0.52616 0.0
O383 O 0.89975 0.09764 0.50029 0.0
C384 C 0.84408 0.02187 0.48743 0.0
C385 C 0.85885 0.17533 0.49434 0.0
C386 C 0.78774 0.10027 0.48586 0.0
C387 C 0.85151 0.1131 0.44693 0.0
C388 C 0.84469 0.09782 0.53297 0.0
C389 C 0.90641 0.08141 0.48932 0.0
O390 O 0.83666 0.03495 0.49944 0.0
O391 O 0.41001 0.22251 0.47865 0.0
Zn392 Zn 0.40136 0.18226 0.47527 0.0
O393 O 0.41417 0.15692 0.49058 0.0
Zn394 Zn 0.43162 0.12802 0.47943 0.0
Zn395 Zn 0.43178 0.17975 0.50478 0.0
Zn396 Zn 0.39095 0.13997 0.50298 0.0
O397 O 0.42077 0.08807 0.48554 0.0
O398 O 0.38991 0.09877 0.49845 0.0
O399 O 0.40765 0.17051 0.45335 0.0
O400 O 0.4259 0.13016 0.45578 0.0
O401 O 0.4647 0.1363 0.48313 0.0
O402 O 0.4633 0.1732 0.49954 0.0
O403 O 0.42726 0.16885 0.52751 0.0
O404 O 0.36871 0.18302 0.47731 0.0
O405 O 0.39715 0.1427 0.52606 0.0
O406 O 0.36133 0.15775 0.49869 0.0
C407 C 0.41695 0.23523 0.49088 0.0
C408 C 0.40287 0.08075 0.49233 0.0
C409 C 0.4742 0.15564 0.49125 0.0
C410 C 0.41659 0.14883 0.44727 0.0
C411 C 0.41233 0.15422 0.5341 0.0
C412 C 0.35516 0.17367 0.48743 0.0
O413 O 0.42449 0.22151 0.50263 0.0
O414 O 0.84657 0.22328 0.75393 0.0
Zn415 Zn 0.85633 0.18368 0.75778 0.0
O416 O 0.84528 0.15715 0.74253 0.0
Zn417 Zn 0.82858 0.12769 0.75375 0.0
Zn418 Zn 0.82714 0.1787 0.72821 0.0
Zn419 Zn 0.86945 0.1417 0.73028 0.0
O420 O 0.84024 0.08828 0.7474 0.0
O421 O 0.87058 0.10021 0.73417 0.0
O422 O 0.84996 0.17225 0.77973 0.0
O423 O 0.83406 0.1303 0.77742 0.0
O424 O 0.79536 0.13485 0.75019 0.0
O425 O 0.79582 0.17175 0.73374 0.0
O426 O 0.8314 0.16607 0.70588 0.0
O427 O 0.88876 0.186 0.75626 0.0
O428 O 0.86398 0.1452 0.70692 0.0
O429 O 0.89883 0.15954 0.73595 0.0
C430 C 0.84054 0.23525 0.74123 0.0
C431 C 0.85804 0.08165 0.74026 0.0
C432 C 0.78543 0.15388 0.74214 0.0
C433 C 0.84216 0.14996 0.7859 0.0
C434 C 0.84745 0.1539 0.6991 0.0
C435 C 0.90355 0.17648 0.74714 0.0
O436 O 0.83414 0.22075 0.72943 0.0
O437 O 0.41879 0.03009 0.75633 0.0
Zn438 Zn 0.40262 0.06666 0.75768 0.0
O439 O 0.41437 0.09559 0.74439 0.0
Zn440 Zn 0.42993 0.12326 0.75756 0.0
Zn441 Zn 0.43319 0.0754 0.72997 0.0
Zn442 Zn 0.39068 0.11268 0.73262 0.0
O443 O 0.4197 0.16352 0.75153 0.0
O444 O 0.3891 0.15342 0.73809 0.0
O445 O 0.40039 0.08004 0.77969 0.0
O446 O 0.42058 0.11908 0.78063 0.0
O447 O 0.46329 0.11565 0.75542 0.0
O448 O 0.46425 0.08304 0.73632 0.0
O449 O 0.4287 0.0883 0.7076 0.0
O450 O 0.37225 0.05728 0.75111 0.0
O451 O 0.39742 0.11209 0.7095 0.0
O452 O 0.36138 0.09299 0.73605 0.0
C453 C 0.42309 0.01826 0.74323 0.0
C454 C 0.40198 0.17114 0.74459 0.0
C455 C 0.47391 0.09889 0.74631 0.0
C456 C 0.40807 0.10101 0.78725 0.0
C457 C 0.41323 0.10243 0.7013 0.0
C458 C 0.35751 0.0698 0.74316 0.0
O459 O 0.4269 0.03314 0.731 0.0
O460 O 0.16251 0.97196 0.47996 0.0
Zn461 Zn 0.15447 0.93162 0.47595 0.0
O462 O 0.16542 0.90683 0.4925 0.0
Zn463 Zn 0.18369 0.87672 0.48342 0.0
Zn464 Zn 0.18188 0.92961 0.50751 0.0
Zn465 Zn 0.14066 0.89065 0.50345 0.0
O466 O 0.17032 0.83723 0.48776 0.0
O467 O 0.13878 0.84933 0.49928 0.0
O468 O 0.16552 0.92005 0.45475 0.0
O469 O 0.18378 0.88041 0.45984 0.0
O470 O 0.21602 0.88282 0.48983 0.0
O471 O 0.21387 0.92162 0.50474 0.0
O472 O 0.17381 0.92053 0.52993 0.0
O473 O 0.12143 0.93302 0.47568 0.0
O474 O 0.14347 0.8953 0.52664 0.0
O475 O 0.11246 0.90934 0.49728 0.0
C476 C 0.16912 0.98496 0.4922 0.0
C477 C 0.15159 0.83073 0.49358 0.0
C478 C 0.2251 0.90252 0.49788 0.0
C479 C 0.17658 0.89878 0.45017 0.0
C480 C 0.15748 0.90715 0.53555 0.0
C481 C 0.10717 0.92487 0.48565 0.0
O482 O 0.17598 0.9715 0.50425 0.0
O483 O 0.59584 0.7848 0.48334 0.0
Zn484 Zn 0.60396 0.82499 0.47869 0.0
O485 O 0.59447 0.85032 0.49547 0.0
Zn486 Zn 0.57621 0.88086 0.48694 0.0
Zn487 Zn 0.57853 0.82832 0.51102 0.0
Zn488 Zn 0.62004 0.86581 0.50568 0.0
O489 O 0.59039 0.92011 0.49089 0.0
O490 O 0.62245 0.90691 0.50116 0.0
O491 O 0.59171 0.83658 0.45777 0.0
O492 O 0.57493 0.87702 0.46344 0.0
O493 O 0.54407 0.87522 0.49391 0.0
O494 O 0.5465 0.83616 0.50856 0.0
O495 O 0.58723 0.83861 0.53315 0.0
O496 O 0.63694 0.82314 0.47728 0.0
O497 O 0.61813 0.86224 0.52901 0.0
O498 O 0.6475 0.84615 0.49877 0.0
C499 C 0.59017 0.77235 0.49599 0.0
C500 C 0.60967 0.92603 0.49597 0.0
C501 C 0.53514 0.85539 0.50193 0.0
C502 C 0.58097 0.85838 0.45354 0.0
C503 C 0.60403 0.85164 0.53832 0.0
C504 C 0.65188 0.83078 0.48687 0.0
O505 O 0.58429 0.78634 0.50813 0.0
O506 O 0.16447 0.78061 0.25397 0.0
Zn507 Zn 0.15583 0.82046 0.25886 0.0
O508 O 0.16455 0.84655 0.24224 0.0
Zn509 Zn 0.18337 0.87647 0.25079 0.0
Zn510 Zn 0.17984 0.82498 0.22618 0.0
Zn511 Zn 0.13863 0.86281 0.23279 0.0
O512 O 0.17014 0.91608 0.24679 0.0
O513 O 0.13755 0.9042 0.23683 0.0
O514 O 0.16773 0.8322 0.27989 0.0
O515 O 0.1845 0.87268 0.27428 0.0
O516 O 0.21527 0.87015 0.24363 0.0
O517 O 0.21207 0.83232 0.22807 0.0
O518 O 0.17002 0.83573 0.20438 0.0
O519 O 0.12296 0.81745 0.26023 0.0
O520 O 0.13885 0.85823 0.20946 0.0
O521 O 0.11109 0.84452 0.24069 0.0
C522 C 0.16887 0.76859 0.24093 0.0
C523 C 0.151 0.92277 0.24178 0.0
C524 C 0.22381 0.85082 0.23503 0.0
C525 C 0.17834 0.85408 0.28417 0.0
C526 C 0.15259 0.84801 0.19974 0.0
C527 C 0.10739 0.82712 0.2518 0.0
O528 O 0.17378 0.78303 0.22875 0.0
O529 O 0.59957 0.96871 0.25806 0.0
Zn530 Zn 0.60612 0.92795 0.26225 0.0
O531 O 0.59494 0.90358 0.24557 0.0
Zn532 Zn 0.57532 0.8745 0.25429 0.0
Zn533 Zn 0.57984 0.92713 0.2302 0.0
Zn534 Zn 0.61955 0.88579 0.23521 0.0
O535 O 0.58776 0.83433 0.2506 0.0
O536 O 0.62022 0.8446 0.23987 0.0
O537 O 0.59363 0.91734 0.28314 0.0
O538 O 0.57397 0.87886 0.27786 0.0
O539 O 0.54358 0.88166 0.2468 0.0
O540 O 0.54755 0.92019 0.23193 0.0
O541 O 0.5894 0.91845 0.20806 0.0
O542 O 0.63913 0.92745 0.26326 0.0
O543 O 0.61767 0.88978 0.21192 0.0
O544 O 0.64803 0.90342 0.24175 0.0
C545 C 0.59309 0.98194 0.24587 0.0
C546 C 0.6066 0.8268 0.24538 0.0
C547 C 0.53541 0.90164 0.23847 0.0
C548 C 0.58143 0.89701 0.28757 0.0
C549 C 0.60501 0.90335 0.20273 0.0
C550 C 0.65343 0.91864 0.25349 0.0
O551 O 0.58597 0.96872 0.23383 0.0
O552 O 0.85074 0.5312 0.97782 0.0
Zn553 Zn 0.85907 0.57144 0.97419 0.0
O554 O 0.8465 0.59655 0.98976 0.0
Zn555 Zn 0.82946 0.62607 0.97874 0.0
Zn556 Zn 0.82838 0.574 0.00376 0.0
Zn557 Zn 0.86993 0.61233 0.00255 0.0
O558 O 0.84084 0.66552 0.98522 0.0
O559 O 0.87066 0.65392 -0.00087 0.0
O560 O 0.85175 0.58275 0.95229 0.0
O561 O 0.83465 0.62389 0.955 0.0
O562 O 0.79628 0.6189 0.98254 0.0
O563 O 0.79701 0.5816 -0.00131 0.0
O564 O 0.83284 0.58436 0.02655 0.0
O565 O 0.89181 0.57113 0.97565 0.0
O566 O 0.8645 0.60739 0.02572 0.0
O567 O 0.89951 0.59537 -0.00265 0.0
C568 C 0.84302 0.51843 0.98979 0.0
C569 C 0.85823 0.67235 -0.00719 0.0
C570 C 0.78648 0.59975 0.99058 0.0
C571 C 0.84307 0.60471 0.94634 0.0
C572 C 0.8486 0.59691 0.03347 0.0
C573 C 0.90555 0.58019 0.98574 0.0
O574 O 0.83498 0.53207 0.00139 0.0
O575 O 0.40883 0.72421 0.98065 0.0
Zn576 Zn 0.40035 0.68435 0.97611 0.0
O577 O 0.41225 0.65807 0.99131 0.0
Zn578 Zn 0.42904 0.62901 0.97977 0.0
Zn579 Zn 0.43042 0.67945 0.00584 0.0
Zn580 Zn 0.38846 0.642 0.00363 0.0
O581 O 0.41776 0.58936 0.9859 0.0
O582 O 0.38781 0.60049 -0.00021 0.0
O583 O 0.4077 0.67423 0.95405 0.0
O584 O 0.4233 0.63203 0.95608 0.0
O585 O 0.46226 0.63617 0.98341 0.0
O586 O 0.46179 0.67222 0.00041 0.0
O587 O 0.4257 0.66758 0.0284 0.0
O588 O 0.36763 0.68487 0.97717 0.0
O589 O 0.39337 0.64624 0.02693 0.0
O590 O 0.35901 0.6592 -0.00183 0.0
C591 C 0.41616 0.73608 -0.00697 0.0
C592 C 0.40032 0.58227 -0.00665 0.0
C593 C 0.47224 0.65475 0.99178 0.0
C594 C 0.41547 0.65204 0.94773 0.0
C595 C 0.40942 0.65555 0.035 0.0
C596 C 0.35349 0.67517 0.98675 0.0
O597 O 0.42382 0.72156 0.00443 0.0
O598 O 0.83893 0.71844 0.25688 0.0
Zn599 Zn 0.85455 0.68141 0.25842 0.0
O600 O 0.84446 0.65358 0.24367 0.0
Zn601 Zn 0.82906 0.62371 0.25543 0.0
Zn602 Zn 0.8255 0.67402 0.22953 0.0
Zn603 Zn 0.8691 0.6395 0.23153 0.0
O604 O 0.84102 0.5849 0.2482 0.0
O605 O 0.87155 0.5981 0.2355 0.0
O606 O 0.85497 0.66631 0.28009 0.0
O607 O 0.83735 0.62528 0.2788 0.0
O608 O 0.79548 0.63031 0.25309 0.0
O609 O 0.79453 0.66546 0.23547 0.0
O610 O 0.83026 0.6624 0.20697 0.0
O611 O 0.88561 0.69074 0.25414 0.0
O612 O 0.86332 0.64285 0.20827 0.0
O613 O 0.89773 0.66 0.23648 0.0
C614 C 0.83471 0.73068 0.24387 0.0
C615 C 0.85914 0.57901 0.24125 0.0
C616 C 0.78484 0.64817 0.24465 0.0
C617 C 0.84816 0.64374 0.28653 0.0
C618 C 0.84681 0.65112 0.20031 0.0
C619 C 0.90101 0.68082 0.24573 0.0
O620 O 0.83127 0.71626 0.23141 0.0
O621 O 0.42108 0.53177 0.25735 0.0
Zn622 Zn 0.40712 0.56952 0.26046 0.0
O623 O 0.41629 0.59742 0.24527 0.0
Zn624 Zn 0.43245 0.62746 0.25633 0.0
Zn625 Zn 0.43433 0.57718 0.23035 0.0
Zn626 Zn 0.39111 0.61205 0.23386 0.0
O627 O 0.42026 0.66644 0.24976 0.0
O628 O 0.38924 0.65351 0.23765 0.0
O629 O 0.41142 0.58274 0.28251 0.0
O630 O 0.42664 0.62513 0.27997 0.0
O631 O 0.46576 0.62118 0.25266 0.0
O632 O 0.46565 0.58584 0.23516 0.0
O633 O 0.42815 0.58917 0.2081 0.0
O634 O 0.37516 0.56193 0.25793 0.0
O635 O 0.39507 0.60837 0.21031 0.0
O636 O 0.36277 0.59264 0.24025 0.0
C637 C 0.4257 0.52002 0.24429 0.0
C638 C 0.40194 0.67249 0.24315 0.0
C639 C 0.47588 0.60334 0.24391 0.0
C640 C 0.41856 0.60558 0.28853 0.0
C641 C 0.41121 0.6003 0.20189 0.0
C642 C 0.35956 0.57236 0.24986 0.0
O643 O 0.42913 0.53477 0.23196 0.0
O644 O 0.16337 0.47147 0.9795 0.0
Zn645 Zn 0.15505 0.43119 0.9752 0.0
O646 O 0.16488 0.40623 0.99205 0.0
Zn647 Zn 0.18344 0.37603 0.98357 0.0
Zn648 Zn 0.18079 0.42859 0.00744 0.0
Zn649 Zn 0.13949 0.39033 0.00239 0.0
O650 O 0.16965 0.33679 0.98751 0.0
O651 O 0.13718 0.3492 -0.00248 0.0
O652 O 0.16672 0.41911 0.95415 0.0
O653 O 0.18458 0.37959 0.9601 0.0
O654 O 0.2155 0.38176 0.99059 0.0
O655 O 0.21287 0.4209 0.00515 0.0
O656 O 0.17221 0.41848 0.02958 0.0
O657 O 0.12206 0.43318 0.97426 0.0
O658 O 0.14185 0.39349 0.02578 0.0
O659 O 0.11187 0.41023 -0.00414 0.0
C660 C 0.16907 0.48417 0.99209 0.0
C661 C 0.15035 0.33051 -0.00766 0.0
C662 C 0.22432 0.40163 -0.00137 0.0
C663 C 0.17788 0.39758 0.95005 0.0
C664 C 0.15587 0.40476 0.03494 0.0
C665 C 0.1073 0.42567 0.98403 0.0
O666 O 0.17493 0.47042 0.00431 0.0
O667 O 0.59458 0.28175 0.98085 0.0
Zn668 Zn 0.60309 0.32206 0.97684 0.0
O669 O 0.59271 0.34692 -0.00638 0.0
Zn670 Zn 0.57431 0.3771 0.9849 0.0
Zn671 Zn 0.57646 0.32443 0.00883 0.0
Zn672 Zn 0.61773 0.36303 0.00429 0.0
O673 O 0.58764 0.41648 0.98924 0.0
O674 O 0.61964 0.40436 8e-05 0.0
O675 O 0.59215 0.3344 0.95562 0.0
O676 O 0.57396 0.37378 0.96137 0.0
O677 O 0.54215 0.37111 0.99146 0.0
O678 O 0.54437 0.3321 0.00612 0.0
O679 O 0.5849 0.33377 0.03123 0.0
O680 O 0.63614 0.31999 0.97649 0.0
O681 O 0.61539 0.35852 0.02752 0.0
O682 O 0.64568 0.34407 -0.00215 0.0
C683 C 0.58854 0.26898 -0.00668 0.0
C684 C 0.60657 0.42297 -0.00531 0.0
C685 C 0.53306 0.35125 -0.00065 0.0
C686 C 0.58107 0.35592 0.95138 0.0
C687 C 0.60148 0.34698 0.03663 0.0
C688 C 0.65063 0.32822 0.98628 0.0
O689 O 0.58236 0.28264 0.0055 0.0
O690 O 0.16908 0.2777 0.75316 0.0
Zn691 Zn 0.15898 0.31659 0.75888 0.0
O692 O 0.16583 0.34422 0.74272 0.0
Zn693 Zn 0.18465 0.37387 0.7513 0.0
Zn694 Zn 0.18044 0.3242 0.72582 0.0
Zn695 Zn 0.13903 0.36049 0.73463 0.0
O696 O 0.17155 0.41338 0.74737 0.0
O697 O 0.13758 0.40154 0.74 0.0
O698 O 0.17105 0.32796 0.77988 0.0
O699 O 0.18594 0.36989 0.77482 0.0
O700 O 0.21632 0.36751 0.74397 0.0
O701 O 0.21287 0.33102 0.72748 0.0
O702 O 0.16962 0.33721 0.70467 0.0
O703 O 0.12638 0.31136 0.76073 0.0
O704 O 0.13826 0.35821 0.71111 0.0
O705 O 0.11235 0.34023 0.74277 0.0
C706 C 0.17138 0.26669 0.73958 0.0
C707 C 0.15174 0.42 0.74398 0.0
C708 C 0.22474 0.34883 0.7349 0.0
C709 C 0.18074 0.35037 0.78443 0.0
C710 C 0.1518 0.34946 0.70079 0.0
C711 C 0.10997 0.32123 0.75325 0.0
O712 O 0.17417 0.28209 0.72741 0.0
O713 O 0.59181 0.47618 0.75444 0.0
Zn714 Zn 0.60117 0.43697 0.76014 0.0
O715 O 0.59406 0.40973 0.74375 0.0
Zn716 Zn 0.57517 0.37992 0.75228 0.0
Zn717 Zn 0.57935 0.42994 0.72691 0.0
Zn718 Zn 0.62084 0.39364 0.73543 0.0
O719 O 0.58829 0.3404 0.74814 0.0
O720 O 0.62181 0.35227 0.73983 0.0
O721 O 0.58858 0.42568 0.78099 0.0
O722 O 0.57385 0.38369 0.77585 0.0
O723 O 0.54341 0.38628 0.74489 0.0
O724 O 0.54705 0.42243 0.72823 0.0
O725 O 0.5906 0.41818 0.70564 0.0
O726 O 0.63383 0.44106 0.76248 0.0
O727 O 0.62214 0.39761 0.71199 0.0
O728 O 0.64767 0.41253 0.74429 0.0
C729 C 0.58811 0.48737 0.74107 0.0
C730 C 0.60784 0.33376 0.74405 0.0
C731 C 0.5351 0.40475 0.73563 0.0
C732 C 0.57891 0.40324 0.7855 0.0
C733 C 0.60867 0.40665 0.7017 0.0
C734 C 0.65021 0.43091 0.75509 0.0
O735 O 0.58457 0.47216 0.72893 0.0
C736 C 0.40733 0.78316 0.98147 0.0
C737 C 0.41236 0.76682 -0.00517 0.0
C738 C 0.39902 0.81045 0.9831 0.0
C739 C 0.39086 0.87027 0.01036 0.0
H740 H 0.34127 0.88537 0.98289 0.0
C741 C 0.34345 0.97644 0.01211 0.0
C742 C 0.34126 0.98912 -0.00279 0.0
C743 C 0.34976 0.94804 0.01338 0.0
C744 C 0.3551 0.8815 0.99063 0.0
H745 H 0.41404 0.7671 0.02036 0.0
H746 H 0.39946 0.81505 0.02321 0.0
H747 H 0.35918 0.83941 0.98201 0.0
H748 H 0.34254 0.98161 0.972 0.0
H749 H 0.35319 0.93231 0.97421 0.0
H750 H 0.3869 0.91271 0.01878 0.0
C751 C 0.40196 0.8066 0.01148 0.0
C752 C 0.36545 0.85523 0.99008 0.0
C753 C 0.41039 0.77918 0.00984 0.0
C754 C 0.34412 0.97245 0.98365 0.0
C755 C 0.35016 0.94413 0.98492 0.0
C756 C 0.38047 0.89667 0.01092 0.0
C757 C 0.39543 0.82208 -0.00188 0.0
C758 C 0.38377 0.84952 -0.00034 0.0
C759 C 0.35365 0.9318 -0.00022 0.0
C760 C 0.36277 0.90274 0.0008 0.0
H761 H 0.40891 0.7744 0.96973 0.0
H762 H 0.39475 0.82215 0.97256 0.0
H763 H 0.40493 0.86649 0.01789 0.0
H764 H 0.3415 0.98881 0.02276 0.0
H765 H 0.35211 0.93899 0.02499 0.0
C766 C 0.84839 0.47416 0.00563 0.0
C767 C 0.84661 0.48756 0.99089 0.0
C768 C 0.85642 0.44648 0.00668 0.0
C769 C 0.89155 0.39753 0.98404 0.0
H770 H 0.87041 0.34056 0.01314 0.0
C771 C 0.91199 0.27952 0.97812 0.0
C772 C 0.91542 0.2635 0.99185 0.0
C773 C 0.90596 0.30791 0.97912 0.0
C774 C 0.87672 0.35643 0.00513 0.0
H775 H 0.85005 0.48167 0.96566 0.0
H776 H 0.86336 0.43335 0.96746 0.0
H777 H 0.85296 0.38708 0.01257 0.0
H778 H 0.91625 0.26509 0.01739 0.0
H779 H 0.90565 0.3149 0.01912 0.0
H780 H 0.91501 0.36679 0.97638 0.0
C781 C 0.85933 0.44445 0.97825 0.0
C782 C 0.86667 0.38303 0.00477 0.0
C783 C 0.85148 0.47206 0.9772 0.0
C784 C 0.91381 0.2769 0.0066 0.0
C785 C 0.90752 0.30531 0.0076 0.0
C786 C 0.90152 0.37098 0.98436 0.0
C787 C 0.86268 0.43169 -0.00699 0.0
C788 C 0.87374 0.40372 -0.00598 0.0
C789 C 0.90305 0.3209 -0.00614 0.0
C790 C 0.89401 0.35 -0.00526 0.0
H791 H 0.84488 0.48561 0.0164 0.0
H792 H 0.85878 0.43725 0.01824 0.0
H793 H 0.89782 0.41323 0.97591 0.0
H794 H 0.91312 0.26983 0.96658 0.0
H795 H 0.9025 0.31928 0.96832 0.0
C796 C 0.42244 0.47266 0.25698 0.0
C797 C 0.42304 0.48898 0.24316 0.0
C798 C 0.41496 0.4448 0.2566 0.0
C799 C 0.40062 0.38449 0.23067 0.0
H800 H 0.35995 0.36732 0.26455 0.0
C801 C 0.35049 0.28039 0.23257 0.0
C802 C 0.35106 0.26615 0.24711 0.0
C803 C 0.35802 0.30828 0.23138 0.0
C804 C 0.37135 0.37171 0.25506 0.0
H805 H 0.41773 0.48819 0.21788 0.0
H806 H 0.40453 0.43943 0.21722 0.0
H807 H 0.37776 0.41332 0.26367 0.0
H808 H 0.35897 0.27053 0.27194 0.0
H809 H 0.3719 0.31897 0.26988 0.0
H810 H 0.39413 0.34267 0.22211 0.0
C811 C 0.40992 0.4482 0.22836 0.0
C812 C 0.38166 0.39803 0.25459 0.0
C813 C 0.41755 0.47613 0.22873 0.0
C814 C 0.35831 0.28084 0.26055 0.0
C815 C 0.36567 0.30868 0.25938 0.0
C816 C 0.39025 0.35808 0.23114 0.0
C817 C 0.40776 0.43262 0.2424 0.0
C818 C 0.39666 0.40462 0.24253 0.0
C819 C 0.36605 0.32254 0.24474 0.0
C820 C 0.3757 0.35129 0.24345 0.0
H821 H 0.42679 0.48183 0.26827 0.0
H822 H 0.41411 0.4331 0.26755 0.0
H823 H 0.41212 0.38889 0.22125 0.0
H824 H 0.34508 0.26966 0.22198 0.0
H825 H 0.35786 0.31854 0.21997 0.0
C826 C 0.84262 0.77451 0.22822 0.0
C827 C 0.83835 0.76159 0.24284 0.0
C828 C 0.85109 0.802 0.22757 0.0
C829 C 0.88371 0.85042 0.25225 0.0
H830 H 0.86875 0.9068 0.2209 0.0
C831 C 0.90905 0.96708 0.25743 0.0
C832 C 0.91445 0.98213 0.24369 0.0
C833 C 0.9018 0.93916 0.25655 0.0
C834 C 0.87335 0.89109 0.22957 0.0
H835 H 0.83777 0.76835 0.26814 0.0
H836 H 0.85199 0.81635 0.26696 0.0
H837 H 0.84965 0.86135 0.22092 0.0
H838 H 0.91754 0.97911 0.21827 0.0
H839 H 0.90494 0.93007 0.21675 0.0
H840 H 0.90723 0.88014 0.261 0.0
C841 C 0.84947 0.80497 0.25603 0.0
C842 C 0.86234 0.86511 0.22962 0.0
C843 C 0.8411 0.77753 0.25669 0.0
C844 C 0.91357 0.96808 0.22909 0.0
C845 C 0.90612 0.94011 0.22819 0.0
C846 C 0.89468 0.87633 0.2522 0.0
C847 C 0.85537 0.81712 0.24152 0.0
C848 C 0.86718 0.84463 0.24111 0.0
C849 C 0.89966 0.92559 0.2419 0.0
C850 C 0.88945 0.8971 0.24099 0.0
H851 H 0.84077 0.7628 0.21733 0.0
H852 H 0.85544 0.81076 0.2162 0.0
H853 H 0.88827 0.83483 0.261 0.0
H854 H 0.90957 0.97725 0.26887 0.0
H855 H 0.89683 0.92867 0.26733 0.0
C856 C 0.65896 0.02739 0.00863 0.0
C857 C 0.66041 0.01303 -0.00584 0.0
C858 C 0.65114 0.05522 0.00923 0.0
C859 C 0.61652 0.10406 0.98587 0.0
H860 H 0.63813 0.16117 0.01474 0.0
C861 C 0.59534 0.22233 0.98032 0.0
C862 C 0.59171 0.23796 -0.00583 0.0
C863 C 0.60193 0.1941 0.98108 0.0
C864 C 0.63172 0.14529 0.00677 0.0
H865 H 0.65639 0.01735 0.96886 0.0
H866 H 0.64347 0.06593 0.96985 0.0
H867 H 0.65519 0.11443 0.01438 0.0
H868 H 0.59129 0.23575 0.01972 0.0
H869 H 0.60284 0.1863 0.02102 0.0
H870 H 0.59334 0.13506 0.97806 0.0
C871 C 0.64761 0.05548 0.98081 0.0
C872 C 0.64152 0.11853 0.00654 0.0
C873 C 0.65524 0.02769 0.98023 0.0
C874 C 0.59387 0.2243 0.00882 0.0
C875 C 0.6007 0.19607 0.00958 0.0
C876 C 0.60683 0.1308 0.98604 0.0
C877 C 0.64476 0.06929 -0.00466 0.0
C878 C 0.6342 0.09768 -0.00405 0.0
C879 C 0.60522 0.18086 -0.00429 0.0
C880 C 0.61443 0.15181 -0.00361 0.0
H881 H 0.66269 0.01665 0.01959 0.0
H882 H 0.64911 0.06518 0.02063 0.0
H883 H 0.61005 0.08831 0.97784 0.0
H884 H 0.59382 0.23219 0.96884 0.0
H885 H 0.60539 0.18302 0.97018 0.0
C886 C 0.10057 0.72417 0.97847 0.0
C887 C 0.09607 0.73943 0.99232 0.0
C888 C 0.10849 0.69652 0.97923 0.0
C889 C 0.11619 0.63465 0.00547 0.0
H890 H 0.16363 0.61787 0.97642 0.0
C891 C 0.16387 0.52891 0.00759 0.0
C892 C 0.16589 0.51519 -0.00705 0.0
C893 C 0.15708 0.55716 0.00836 0.0
C894 C 0.15035 0.62218 0.98456 0.0
H895 H 0.09525 0.73694 0.01785 0.0
H896 H 0.10922 0.68864 0.01918 0.0
H897 H 0.14655 0.66439 0.97604 0.0
H898 H 0.16359 0.52089 0.96763 0.0
H899 H 0.15199 0.57 0.96897 0.0
H900 H 0.12005 0.59227 0.01394 0.0
C901 C 0.10651 0.69807 0.00771 0.0
C902 C 0.14046 0.6488 0.9843 0.0
C903 C 0.09846 0.72577 0.00694 0.0
C904 C 0.16217 0.53078 0.9791 0.0
C905 C 0.15558 0.559 0.97986 0.0
C906 C 0.12615 0.60799 0.00576 0.0
C907 C 0.11224 0.68344 -0.00613 0.0
C908 C 0.12304 0.65525 -0.00541 0.0
C909 C 0.15243 0.57232 -0.0055 0.0
C910 C 0.14316 0.60135 -0.00483 0.0
H911 H 0.09872 0.73392 0.96699 0.0
H912 H 0.11216 0.6856 0.96832 0.0
H913 H 0.10275 0.63886 0.01349 0.0
H914 H 0.16654 0.5175 0.01849 0.0
H915 H 0.15506 0.56698 0.0198 0.0
C916 C 0.66413 0.72591 0.72478 0.0
C917 C 0.66867 0.73765 0.73968 0.0
C918 C 0.65506 0.69879 0.72351 0.0
C919 C 0.62039 0.65088 0.74643 0.0
H920 H 0.6383 0.59287 0.71684 0.0
C921 C 0.59434 0.53505 0.75293 0.0
C922 C 0.59132 0.51829 0.73942 0.0
C923 C 0.60141 0.56299 0.75163 0.0
C924 C 0.63281 0.60905 0.72497 0.0
H925 H 0.66883 0.72908 0.76484 0.0
H926 H 0.65322 0.68198 0.76256 0.0
H927 H 0.65735 0.63838 0.71708 0.0
H928 H 0.59213 0.5184 0.71385 0.0
H929 H 0.60418 0.56751 0.71157 0.0
H930 H 0.5959 0.62183 0.75436 0.0
C931 C 0.65624 0.69396 0.7519 0.0
C932 C 0.64383 0.63503 0.72515 0.0
C933 C 0.66537 0.7209 0.75317 0.0
C934 C 0.59429 0.53071 0.7245 0.0
C935 C 0.60144 0.55876 0.7232 0.0
C936 C 0.60931 0.62507 0.74618 0.0
C937 C 0.6503 0.683 0.73712 0.0
C938 C 0.63802 0.65596 0.73613 0.0
C939 C 0.60561 0.57499 0.73677 0.0
C940 C 0.61566 0.60359 0.73568 0.0
H941 H 0.66645 0.73821 0.71414 0.0
H942 H 0.65072 0.6908 0.71196 0.0
H943 H 0.61519 0.6669 0.75476 0.0
H944 H 0.59218 0.52624 0.76461 0.0
H945 H 0.60464 0.57471 0.76235 0.0
C946 C 0.16353 0.21936 0.75136 0.0
C947 C 0.16676 0.23605 0.73784 0.0
C948 C 0.15448 0.19236 0.75014 0.0
C949 C 0.14201 0.13323 0.7235 0.0
H950 H 0.09454 0.11989 0.75308 0.0
C951 C 0.09278 0.02859 0.72342 0.0
C952 C 0.09014 0.01622 0.73838 0.0
C953 C 0.09981 0.05668 0.72201 0.0
C954 C 0.10782 0.12317 0.74479 0.0
H955 H 0.16451 0.23647 0.71231 0.0
H956 H 0.1489 0.18895 0.71021 0.0
H957 H 0.11366 0.16508 0.75326 0.0
H958 H 0.09147 0.02427 0.76355 0.0
H959 H 0.10369 0.07283 0.7611 0.0
H960 H 0.13651 0.09098 0.7153 0.0
C961 C 0.15326 0.19702 0.72175 0.0
C962 C 0.11881 0.14905 0.74492 0.0
C963 C 0.16226 0.2242 0.72296 0.0
C964 C 0.09336 0.03306 0.75184 0.0
C965 C 0.10031 0.06104 0.75043 0.0
C966 C 0.13108 0.10717 0.72344 0.0
C967 C 0.14853 0.18129 0.73539 0.0
C968 C 0.13629 0.15419 0.73449 0.0
C969 C 0.10419 0.073 0.73552 0.0
C970 C 0.11411 0.10167 0.73429 0.0
H971 H 0.16699 0.22763 0.763 0.0
H972 H 0.15153 0.18043 0.76083 0.0
H973 H 0.15542 0.13661 0.71533 0.0
H974 H 0.09046 0.01622 0.7128 0.0
H975 H 0.10231 0.0654 0.71034 0.0
C976 C 0.41111 0.27926 0.5069 0.0
C977 C 0.41291 0.26602 0.4921 0.0
C978 C 0.40278 0.30678 0.50808 0.0
C979 C 0.3668 0.35525 0.48587 0.0
H980 H 0.38822 0.41269 0.51461 0.0
C981 C 0.34572 0.4729 0.47964 0.0
C982 C 0.3426 0.48924 0.49329 0.0
C983 C 0.35184 0.44456 0.48076 0.0
C984 C 0.38182 0.39668 0.50672 0.0
H985 H 0.40911 0.2721 0.4669 0.0
H986 H 0.39519 0.3201 0.46895 0.0
H987 H 0.40594 0.36632 0.51396 0.0
H988 H 0.34245 0.4883 0.51885 0.0
H989 H 0.35321 0.43854 0.52079 0.0
H990 H 0.34297 0.38567 0.47841 0.0
C991 C 0.3995 0.30899 0.47967 0.0
C992 C 0.39202 0.37017 0.50631 0.0
C993 C 0.40769 0.28155 0.47849 0.0
C994 C 0.34463 0.47621 0.50812 0.0
C995 C 0.35101 0.44784 0.50923 0.0
C996 C 0.35666 0.38169 0.48626 0.0
C997 C 0.39619 0.32156 0.49449 0.0
C998 C 0.38488 0.34935 0.49565 0.0
C999 C 0.35515 0.43192 0.49555 0.0
C1000 C 0.36428 0.40287 0.49649 0.0
H1001 H 0.4149 0.26781 0.51761 0.0
H1002 H 0.40046 0.31588 0.51968 0.0
H1003 H 0.36048 0.33943 0.47783 0.0
H1004 H 0.34426 0.4823 0.46804 0.0
H1005 H 0.35504 0.43296 0.46999 0.0
C1006 C 0.84873 0.97702 0.50282 0.0
C1007 C 0.84802 0.99102 0.48821 0.0
C1008 C 0.8565 0.94924 0.50383 0.0
C1009 C 0.89214 0.89969 0.48185 0.0
H1010 H 0.86885 0.84363 0.51066 0.0
C1011 C 0.91145 0.78094 0.47753 0.0
C1012 C 0.91439 0.76553 0.49153 0.0
C1013 C 0.90559 0.80943 0.47803 0.0
C1014 C 0.87574 0.85923 0.50274 0.0
H1015 H 0.85334 0.98611 0.46307 0.0
H1016 H 0.86617 0.93753 0.46477 0.0
H1017 H 0.852 0.89042 0.50941 0.0
H1018 H 0.91445 0.76822 0.51705 0.0
H1019 H 0.90408 0.81822 0.5179 0.0
H1020 H 0.91554 0.86828 0.47493 0.0
C1021 C 0.86148 0.94827 0.47553 0.0
C1022 C 0.86605 0.88601 0.50198 0.0
C1023 C 0.85389 0.97605 0.47454 0.0
C1024 C 0.91241 0.77958 0.50606 0.0
C1025 C 0.90626 0.80809 0.50656 0.0
C1026 C 0.90171 0.87291 0.48254 0.0
C1027 C 0.86356 0.93483 0.49024 0.0
C1028 C 0.87398 0.90646 0.49138 0.0
C1029 C 0.90233 0.8231 0.49254 0.0
C1030 C 0.89349 0.8523 0.49287 0.0
H1031 H 0.84443 0.98798 0.5136 0.0
H1032 H 0.85793 0.93958 0.51536 0.0
H1033 H 0.89906 0.91514 0.47385 0.0
H1034 H 0.91289 0.77071 0.46615 0.0
H1035 H 0.90257 0.82037 0.46702 0.0
C1036 C 0.41469 0.97141 0.75536 0.0
C1037 C 0.41891 0.98751 0.74176 0.0
C1038 C 0.40565 0.94441 0.75416 0.0
C1039 C 0.39416 0.88461 0.72762 0.0
H1040 H 0.34478 0.87307 0.75579 0.0
C1041 C 0.34317 0.78155 0.72637 0.0
C1042 C 0.33983 0.76927 0.74127 0.0
C1043 C 0.35057 0.80949 0.72509 0.0
C1044 C 0.35858 0.87587 0.74789 0.0
H1045 H 0.41854 0.98685 0.71618 0.0
H1046 H 0.40288 0.93941 0.71412 0.0
H1047 H 0.36461 0.91774 0.75633 0.0
H1048 H 0.34016 0.77734 0.76645 0.0
H1049 H 0.35296 0.82572 0.76424 0.0
H1050 H 0.38837 0.84243 0.71942 0.0
C1051 C 0.40647 0.94788 0.7257 0.0
C1052 C 0.37 0.90143 0.74824 0.0
C1053 C 0.41552 0.97503 0.7269 0.0
C1054 C 0.34261 0.78609 0.75479 0.0
C1055 C 0.3499 0.81394 0.75351 0.0
C1056 C 0.38277 0.8589 0.72732 0.0
C1057 C 0.40066 0.93279 0.73935 0.0
C1058 C 0.38815 0.90591 0.73832 0.0
C1059 C 0.35459 0.82573 0.73868 0.0
C1060 C 0.36507 0.85407 0.73766 0.0
H1061 H 0.41732 0.98021 0.767 0.0
H1062 H 0.40187 0.93297 0.76488 0.0
H1063 H 0.40808 0.88748 0.71984 0.0
H1064 H 0.34122 0.76915 0.71572 0.0
H1065 H 0.35371 0.81812 0.71348 0.0
C1066 C 0.84932 0.28203 0.75322 0.0
C1067 C 0.84475 0.26596 0.73967 0.0
C1068 C 0.85822 0.30907 0.75194 0.0
C1069 C 0.86869 0.36918 0.72548 0.0
H1070 H 0.91815 0.38129 0.75354 0.0
C1071 C 0.91808 0.47372 0.72529 0.0
C1072 C 0.92094 0.48564 0.74034 0.0
C1073 C 0.91117 0.44562 0.72367 0.0
C1074 C 0.90434 0.3783 0.74566 0.0
H1075 H 0.84442 0.26662 0.7141 0.0
H1076 H 0.85991 0.31422 0.71189 0.0
H1077 H 0.89905 0.33609 0.75377 0.0
H1078 H 0.92026 0.47685 0.76544 0.0
H1079 H 0.90841 0.42814 0.76263 0.0
H1080 H 0.87375 0.41174 0.71763 0.0
C1081 C 0.85665 0.30568 0.7235 0.0
C1082 C 0.89334 0.35244 0.74583 0.0
C1083 C 0.8477 0.27846 0.72477 0.0
C1084 C 0.91817 0.46836 0.75367 0.0
C1085 C 0.91144 0.44034 0.75205 0.0
C1086 C 0.87969 0.39519 0.72535 0.0
C1087 C 0.86278 0.32077 0.73709 0.0
C1088 C 0.8751 0.34779 0.736 0.0
C1089 C 0.90724 0.42885 0.73706 0.0
C1090 C 0.89736 0.40022 0.73568 0.0
H1091 H 0.84701 0.27319 0.76488 0.0
H1092 H 0.86221 0.3205 0.76264 0.0
H1093 H 0.8547 0.36619 0.71777 0.0
H1094 H 0.91999 0.4865 0.71479 0.0
H1095 H 0.90836 0.43725 0.71196 0.0
C1096 C 0.66118 0.53049 0.50999 0.0
C1097 C 0.66312 0.51715 0.49524 0.0
C1098 C 0.65307 0.55815 0.51108 0.0
C1099 C 0.61814 0.60754 0.4885 0.0
H1100 H 0.63958 0.66418 0.51771 0.0
C1101 C 0.59662 0.72547 0.48319 0.0
C1102 C 0.59333 0.74133 0.497 0.0
C1103 C 0.60316 0.69724 0.48401 0.0
C1104 C 0.63319 0.64842 0.50967 0.0
H1105 H 0.65966 0.52318 0.47 0.0
H1106 H 0.64612 0.57138 0.47188 0.0
H1107 H 0.65683 0.61753 0.51703 0.0
H1108 H 0.59347 0.73953 0.52256 0.0
H1109 H 0.60489 0.69001 0.52397 0.0
H1110 H 0.59474 0.63845 0.48096 0.0
C1111 C 0.65017 0.56026 0.48265 0.0
C1112 C 0.64312 0.62173 0.50924 0.0
C1113 C 0.65814 0.53269 0.48157 0.0
C1114 C 0.59578 0.72789 0.51169 0.0
C1115 C 0.60254 0.69962 0.51251 0.0
C1116 C 0.60828 0.63416 0.4889 0.0
C1117 C 0.64683 0.57302 0.49743 0.0
C1118 C 0.63592 0.60112 0.49846 0.0
C1119 C 0.60672 0.68417 0.49866 0.0
C1120 C 0.61587 0.65506 0.49932 0.0
H1121 H 0.66477 0.51908 0.52076 0.0
H1122 H 0.65071 0.56735 0.52265 0.0
H1123 H 0.61178 0.59193 0.48034 0.0
H1124 H 0.59487 0.73515 0.47168 0.0
H1125 H 0.60639 0.68603 0.47312 0.0
C1126 C 0.16354 0.02975 0.5076 0.0
C1127 C 0.16555 0.01591 0.493 0.0
C1128 C 0.15578 0.0576 0.50833 0.0
C1129 C 0.12189 0.10693 0.4849 0.0
H1130 H 0.14258 0.16358 0.5144 0.0
C1131 C 0.10036 0.22497 0.47954 0.0
C1132 C 0.09653 0.24057 0.49337 0.0
C1133 C 0.10701 0.19678 0.48033 0.0
C1134 C 0.13641 0.14783 0.50625 0.0
H1135 H 0.16269 0.0212 0.46768 0.0
H1136 H 0.14983 0.06978 0.46894 0.0
H1137 H 0.15975 0.11689 0.514 0.0
H1138 H 0.09584 0.23835 0.51891 0.0
H1139 H 0.10745 0.18892 0.52027 0.0
H1140 H 0.09878 0.13791 0.47699 0.0
C1141 C 0.1535 0.05891 0.47986 0.0
C1142 C 0.14629 0.12111 0.506 0.0
C1143 C 0.1611 0.03112 0.47913 0.0
C1144 C 0.09857 0.22691 0.50803 0.0
C1145 C 0.10544 0.1987 0.50882 0.0
C1146 C 0.11208 0.1336 0.48512 0.0
C1147 C 0.15001 0.07218 0.49448 0.0
C1148 C 0.13933 0.10046 0.49517 0.0
C1149 C 0.11015 0.18351 0.49498 0.0
C1150 C 0.11938 0.15446 0.49567 0.0
H1151 H 0.16672 0.01858 0.51851 0.0
H1152 H 0.15328 0.06717 0.51979 0.0
H1153 H 0.1157 0.09131 0.47669 0.0
H1154 H 0.09894 0.23482 0.46806 0.0
H1155 H 0.11064 0.18574 0.46945 0.0
C1156 C 0.66079 0.2245 0.22933 0.0
C1157 C 0.66425 0.23827 0.24382 0.0
C1158 C 0.6532 0.19658 0.22893 0.0
C1159 C 0.62238 0.14635 0.25388 0.0
H1160 H 0.64038 0.0908 0.22287 0.0
C1161 C 0.60179 0.02794 0.25899 0.0
C1162 C 0.59656 0.01291 0.24519 0.0
C1163 C 0.60837 0.05616 0.25822 0.0
C1164 C 0.63496 0.10624 0.23146 0.0
H1165 H 0.66402 0.23279 0.26921 0.0
H1166 H 0.6514 0.18404 0.2685 0.0
H1167 H 0.65723 0.13766 0.22279 0.0
H1168 H 0.59328 0.01617 0.21979 0.0
H1169 H 0.60476 0.06565 0.21847 0.0
H1170 H 0.60035 0.11485 0.26268 0.0
C1171 C 0.65385 0.19504 0.25745 0.0
C1172 C 0.64466 0.13306 0.23144 0.0
C1173 C 0.6613 0.22294 0.25785 0.0
C1174 C 0.59714 0.02715 0.23065 0.0
C1175 C 0.60392 0.05539 0.22986 0.0
C1176 C 0.61277 0.11956 0.25393 0.0
C1177 C 0.64902 0.18182 0.24301 0.0
C1178 C 0.63865 0.15334 0.24276 0.0
C1179 C 0.61001 0.07001 0.24362 0.0
C1180 C 0.61907 0.09912 0.24281 0.0
H1181 H 0.66281 0.23574 0.21831 0.0
H1182 H 0.6496 0.18707 0.21761 0.0
H1183 H 0.61693 0.16167 0.26252 0.0
H1184 H 0.6015 0.01763 0.27039 0.0
H1185 H 0.61309 0.06676 0.26902 0.0
C1186 C 0.15905 0.7221 0.25301 0.0
C1187 C 0.16451 0.73784 0.23951 0.0
C1188 C 0.15045 0.69488 0.25164 0.0
C1189 C 0.143 0.63386 0.22522 0.0
H1190 H 0.09155 0.62079 0.25119 0.0
C1191 C 0.09493 0.5285 0.22263 0.0
C1192 C 0.09037 0.51651 0.23744 0.0
C1193 C 0.10185 0.55666 0.22145 0.0
C1194 C 0.10594 0.62401 0.24392 0.0
H1195 H 0.16663 0.73639 0.21398 0.0
H1196 H 0.15172 0.68857 0.21162 0.0
H1197 H 0.11001 0.66641 0.25215 0.0
H1198 H 0.0881 0.52529 0.2625 0.0
H1199 H 0.10008 0.57404 0.26046 0.0
H1200 H 0.13917 0.59117 0.21724 0.0
C1201 C 0.15403 0.6975 0.22327 0.0
C1202 C 0.11657 0.65013 0.2445 0.0
C1203 C 0.16262 0.72487 0.22463 0.0
C1204 C 0.09152 0.53379 0.2509 0.0
C1205 C 0.09833 0.56186 0.24972 0.0
C1206 C 0.1324 0.6076 0.22469 0.0
C1207 C 0.14714 0.68265 0.23674 0.0
C1208 C 0.13544 0.65519 0.23538 0.0
C1209 C 0.10416 0.57344 0.23505 0.0
C1210 C 0.11396 0.60222 0.23424 0.0
H1211 H 0.16049 0.73125 0.26468 0.0
H1212 H 0.14581 0.68367 0.26226 0.0
H1213 H 0.15752 0.63714 0.21808 0.0
H1214 H 0.09425 0.51578 0.21202 0.0
H1215 H 0.10589 0.56509 0.20995 0.0
C1216 C 0.35683 0.08151 0.92453 0.0
C1217 C 0.34774 0.10448 0.93277 0.0
C1218 C 0.36168 0.08364 0.90856 0.0
C1219 C 0.37338 0.13472 0.87697 0.0
H1220 H 0.36451 0.06844 0.85086 0.0
C1221 C 0.41267 0.12048 0.81476 0.0
C1222 C 0.40038 0.10525 0.8036 0.0
C1223 C 0.40505 0.12311 0.83031 0.0
C1224 C 0.36687 0.08735 0.85785 0.0
H1225 H 0.33624 0.14768 0.93051 0.0
H1226 H 0.34438 0.15122 0.90226 0.0
H1227 H 0.35173 0.06823 0.87784 0.0
H1228 H 0.36985 0.08263 0.79964 0.0
H1229 H 0.35639 0.08802 0.82627 0.0
H1230 H 0.38815 0.15399 0.85667 0.0
C1231 C 0.34801 0.13168 0.90837 0.0
C1232 C 0.35976 0.08707 0.87344 0.0
C1233 C 0.34315 0.12956 0.92449 0.0
C1234 C 0.38001 0.09387 0.80806 0.0
C1235 C 0.37228 0.0969 0.82339 0.0
C1236 C 0.38037 0.13509 0.86122 0.0
C1237 C 0.35744 0.10873 0.90026 0.0
C1238 C 0.36323 0.11053 0.88328 0.0
C1239 C 0.3849 0.11091 0.83484 0.0
C1240 C 0.3773 0.1113 0.85151 0.0
H1241 H 0.36068 0.06187 0.93047 0.0
H1242 H 0.3693 0.06572 0.9028 0.0
H1243 H 0.37645 0.15305 0.88429 0.0
H1244 H 0.42836 0.12964 0.81159 0.0
H1245 H 0.41524 0.13395 0.83886 0.0
C1246 C 0.85066 0.16971 0.8124 0.0
C1247 C 0.84457 0.14637 0.80314 0.0
C1248 C 0.85572 0.16637 0.82828 0.0
C1249 C 0.87461 0.11414 0.85725 0.0
H1250 H 0.85775 0.1732 0.88649 0.0
C1251 C 0.91374 0.12943 0.91958 0.0
C1252 C 0.8999 0.14032 0.93132 0.0
C1253 C 0.90595 0.12646 0.90407 0.0
C1254 C 0.86239 0.15623 0.8786 0.0
H1255 H 0.83842 0.10121 0.80344 0.0
H1256 H 0.84698 0.09543 0.83151 0.0
H1257 H 0.84427 0.17459 0.8597 0.0
H1258 H 0.86675 0.15416 0.93657 0.0
H1259 H 0.85307 0.14793 0.91002 0.0
H1260 H 0.89251 0.09559 0.87645 0.0
C1261 C 0.84808 0.11627 0.8263 0.0
C1262 C 0.85484 0.15725 0.86314 0.0
C1263 C 0.84295 0.11964 0.81029 0.0
C1264 C 0.87796 0.14646 0.92762 0.0
C1265 C 0.87012 0.14297 0.91237 0.0
C1266 C 0.88209 0.11299 0.87287 0.0
C1267 C 0.85473 0.13961 0.8354 0.0
C1268 C 0.86111 0.13651 0.8522 0.0
C1269 C 0.88415 0.13388 0.90026 0.0
C1270 C 0.87614 0.13416 0.8837 0.0
H1271 H 0.8521 0.19062 0.8073 0.0
H1272 H 0.86107 0.18474 0.83487 0.0
H1273 H 0.87987 0.09797 0.84904 0.0
H1274 H 0.93068 0.12433 0.92223 0.0
H1275 H 0.91719 0.11941 0.895 0.0
C1276 C 0.41259 0.11647 0.42396 0.0
C1277 C 0.41311 0.14399 0.43024 0.0
C1278 C 0.40426 0.11176 0.40877 0.0
C1279 C 0.36469 0.14413 0.38195 0.0
H1280 H 0.39121 0.09974 0.3486 0.0
C1281 C 0.34666 0.16268 0.31708 0.0
C1282 C 0.34568 0.13978 0.30659 0.0
C1283 C 0.35167 0.15834 0.3329 0.0
C1284 C 0.38336 0.11167 0.35793 0.0
H1285 H 0.40734 0.18828 0.42507 0.0
H1286 H 0.39316 0.18007 0.3987 0.0
H1287 H 0.40869 0.10154 0.37463 0.0
H1288 H 0.34828 0.09424 0.30449 0.0
H1289 H 0.35734 0.08664 0.33237 0.0
H1290 H 0.33975 0.15498 0.36528 0.0
C1291 C 0.39858 0.1621 0.40559 0.0
C1292 C 0.39343 0.1128 0.37276 0.0
C1293 C 0.40685 0.1668 0.42065 0.0
C1294 C 0.34879 0.11224 0.31238 0.0
C1295 C 0.35415 0.10791 0.32826 0.0
C1296 C 0.35465 0.14296 0.36722 0.0
C1297 C 0.39635 0.1345 0.39975 0.0
C1298 C 0.38457 0.12989 0.38471 0.0
C1299 C 0.35605 0.13103 0.33858 0.0
C1300 C 0.36428 0.12754 0.35489 0.0
H1301 H 0.41725 0.09847 0.4311 0.0
H1302 H 0.40285 0.09028 0.40445 0.0
H1303 H 0.35721 0.15689 0.3911 0.0
H1304 H 0.34432 0.18412 0.31293 0.0
H1305 H 0.35324 0.17662 0.34052 0.0
C1306 C 0.9149 0.13489 0.30976 0.0
C1307 C 0.9144 0.10728 0.30362 0.0
C1308 C 0.90983 0.13978 0.32564 0.0
C1309 C 0.90612 0.10376 0.36405 0.0
H1310 H 0.86327 0.16132 0.3748 0.0
C1311 C 0.88151 0.11934 0.42784 0.0
C1312 C 0.85896 0.12086 0.43104 0.0
C1313 C 0.88932 0.12308 0.4126 0.0
C1314 C 0.87521 0.14516 0.37194 0.0
H1315 H 0.90909 0.06313 0.30941 0.0
H1316 H 0.90049 0.07161 0.33692 0.0
H1317 H 0.87613 0.15688 0.3475 0.0
H1318 H 0.82685 0.12909 0.42116 0.0
H1319 H 0.84047 0.13464 0.394 0.0
H1320 H 0.90471 0.09111 0.38811 0.0
C1321 C 0.90476 0.0895 0.32956 0.0
C1322 C 0.88277 0.14284 0.35639 0.0
C1323 C 0.90962 0.08465 0.31376 0.0
C1324 C 0.84432 0.12775 0.41888 0.0
C1325 C 0.85214 0.13103 0.40341 0.0
C1326 C 0.89862 0.10605 0.37949 0.0
C1327 C 0.90449 0.11711 0.33564 0.0
C1328 C 0.89806 0.12181 0.35228 0.0
C1329 C 0.8747 0.1278 0.40008 0.0
C1330 C 0.88298 0.12663 0.38363 0.0
H1331 H 0.91838 0.15277 0.3022 0.0
H1332 H 0.90992 0.16126 0.33007 0.0
H1333 H 0.91803 0.0875 0.36127 0.0
H1334 H 0.89316 0.11459 0.43714 0.0
H1335 H 0.90682 0.12132 0.41054 0.0
C1336 C 0.62615 0.88526 0.17963 0.0
C1337 C 0.60941 0.90267 0.18563 0.0
C1338 C 0.6314 0.88585 0.16366 0.0
C1339 C 0.6095 0.90505 0.12488 0.0
H1340 H 0.67088 0.9042 0.11257 0.0
C1341 C 0.66419 0.92011 0.06503 0.0
C1342 C 0.65202 0.90265 0.05485 0.0
C1343 C 0.65968 0.92039 0.08118 0.0
C1344 C 0.6537 0.90467 0.11585 0.0
H1345 H 0.58485 0.93406 0.17952 0.0
H1346 H 0.59414 0.93513 0.15157 0.0
H1347 H 0.66116 0.90488 0.14049 0.0
H1348 H 0.62621 0.87097 0.05372 0.0
H1349 H 0.6186 0.87134 0.08179 0.0
H1350 H 0.60202 0.90518 0.10027 0.0
C1351 C 0.60305 0.9209 0.15925 0.0
C1352 C 0.64812 0.90476 0.1318 0.0
C1353 C 0.59776 0.9203 0.17526 0.0
C1354 C 0.63577 0.88489 0.0612 0.0
C1355 C 0.63129 0.8852 0.07727 0.0
C1356 C 0.61507 0.90492 0.10895 0.0
C1357 C 0.62006 0.90385 0.15334 0.0
C1358 C 0.62597 0.90472 0.13646 0.0
C1359 C 0.64293 0.90326 0.08738 0.0
C1360 C 0.63721 0.90446 0.10429 0.0
H1361 H 0.63537 0.87131 0.18729 0.0
H1362 H 0.64431 0.8721 0.15937 0.0
H1363 H 0.5923 0.90485 0.12813 0.0
H1364 H 0.67681 0.93403 0.0605 0.0
H1365 H 0.66886 0.9346 0.08873 0.0
C1366 C 0.12596 0.85367 0.17768 0.0
C1367 C 0.14772 0.84977 0.18278 0.0
C1368 C 0.12107 0.85456 0.16165 0.0
C1369 C 0.14328 0.87168 0.12349 0.0
H1370 H 0.10015 0.81915 0.10689 0.0
C1371 C 0.13073 0.85666 0.05697 0.0
C1372 C 0.10951 0.85078 0.05137 0.0
C1373 C 0.13493 0.85751 0.0731 0.0
C1374 C 0.11192 0.83433 0.11135 0.0
H1375 H 0.18145 0.8443 0.17517 0.0
H1376 H 0.17285 0.84659 0.14699 0.0
H1377 H 0.10843 0.81919 0.13501 0.0
H1378 H 0.07592 0.84188 0.0582 0.0
H1379 H 0.08303 0.84448 0.08644 0.0
H1380 H 0.14641 0.88752 0.10004 0.0
C1381 C 0.15967 0.84866 0.15549 0.0
C1382 C 0.11674 0.83418 0.12741 0.0
C1383 C 0.16455 0.84723 0.17155 0.0
C1384 C 0.09247 0.84622 0.06221 0.0
C1385 C 0.09659 0.84756 0.07838 0.0
C1386 C 0.13819 0.87221 0.10746 0.0
C1387 C 0.13788 0.85209 0.15046 0.0
C1388 C 0.13257 0.85268 0.13355 0.0
C1389 C 0.11792 0.85299 0.08401 0.0
C1390 C 0.1226 0.85334 0.10117 0.0
H1391 H 0.11264 0.85556 0.18608 0.0
H1392 H 0.10416 0.85736 0.15798 0.0
H1393 H 0.15537 0.88635 0.12807 0.0
H1394 H 0.14424 0.85999 0.04888 0.0
H1395 H 0.15163 0.86115 0.07697 0.0
C1396 C 0.59058 0.84926 0.5662 0.0
C1397 C 0.60774 0.85394 0.55544 0.0
C1398 C 0.59449 0.85097 0.5824 0.0
C1399 C 0.63756 0.84078 0.61104 0.0
H1400 H 0.60349 0.88856 0.63899 0.0
C1401 C 0.66305 0.8554 0.67535 0.0
C1402 C 0.64637 0.85607 0.68675 0.0
C1403 C 0.65788 0.85715 0.65938 0.0
C1404 C 0.61296 0.87482 0.63139 0.0
H1405 H 0.64237 0.8642 0.55316 0.0
H1406 H 0.64917 0.86658 0.58142 0.0
H1407 H 0.59456 0.88692 0.61089 0.0
H1408 H 0.61125 0.85964 0.69047 0.0
H1409 H 0.6021 0.86163 0.66253 0.0
H1410 H 0.65556 0.82785 0.63135 0.0
C1411 C 0.63274 0.86179 0.5773 0.0
C1412 C 0.60787 0.87398 0.61534 0.0
C1413 C 0.6288 0.86052 0.56115 0.0
C1414 C 0.62445 0.85919 0.68191 0.0
C1415 C 0.61923 0.86047 0.66591 0.0
C1416 C 0.64244 0.84126 0.62707 0.0
C1417 C 0.61567 0.8569 0.58803 0.0
C1418 C 0.62029 0.85715 0.60506 0.0
C1419 C 0.63588 0.85906 0.65445 0.0
C1420 C 0.63037 0.85851 0.63742 0.0
H1421 H 0.57418 0.84427 0.56211 0.0
H1422 H 0.58112 0.84703 0.59053 0.0
H1423 H 0.64716 0.82735 0.60332 0.0
H1424 H 0.68013 0.8534 0.67876 0.0
H1425 H 0.67116 0.85678 0.6509 0.0
C1426 C 0.13284 0.90069 0.55865 0.0
C1427 C 0.15393 0.90635 0.55271 0.0
C1428 C 0.12898 0.90098 0.57481 0.0
C1429 C 0.1536 0.8898 0.61271 0.0
H1430 H 0.10673 0.9376 0.62846 0.0
C1431 C 0.13556 0.90152 0.6791 0.0
C1432 C 0.11352 0.90438 0.68371 0.0
C1433 C 0.14126 0.90195 0.66319 0.0
C1434 C 0.11964 0.9238 0.62424 0.0
H1435 H 0.18762 0.91615 0.55901 0.0
H1436 H 0.18084 0.91591 0.58752 0.0
H1437 H 0.11558 0.93793 0.60045 0.0
H1438 H 0.08008 0.90903 0.67533 0.0
H1439 H 0.08989 0.90864 0.64752 0.0
H1440 H 0.15718 0.87474 0.63631 0.0
C1441 C 0.16738 0.91158 0.57953 0.0
C1442 C 0.1248 0.92421 0.60825 0.0
C1443 C 0.1712 0.9118 0.56328 0.0
C1444 C 0.09722 0.90704 0.67211 0.0
C1445 C 0.10289 0.90703 0.65618 0.0
C1446 C 0.14822 0.88903 0.6287 0.0
C1447 C 0.14618 0.90648 0.58535 0.0
C1448 C 0.14171 0.9071 0.60238 0.0
C1449 C 0.12501 0.90484 0.65154 0.0
C1450 C 0.13107 0.90591 0.63463 0.0
H1451 H 0.11918 0.89654 0.5508 0.0
H1452 H 0.11254 0.89679 0.5791 0.0
H1453 H 0.16659 0.87627 0.60833 0.0
H1454 H 0.14851 0.89967 0.6878 0.0
H1455 H 0.15847 0.90065 0.66006 0.0
C1456 C 0.41328 0.63714 0.31208 0.0
C1457 C 0.41552 0.60988 0.30566 0.0
C1458 C 0.4071 0.64065 0.32788 0.0
C1459 C 0.40361 0.60268 0.36591 0.0
H1460 H 0.35351 0.65092 0.37456 0.0
C1461 C 0.35244 0.58571 0.42091 0.0
C1462 C 0.34782 0.60938 0.43034 0.0
C1463 C 0.36041 0.58904 0.40564 0.0
C1464 C 0.36767 0.63766 0.37235 0.0
H1465 H 0.41414 0.56505 0.31091 0.0
H1466 H 0.40369 0.57115 0.33831 0.0
H1467 H 0.3705 0.65152 0.34835 0.0
H1468 H 0.34646 0.65518 0.43073 0.0
H1469 H 0.36042 0.66101 0.40379 0.0
H1470 H 0.40057 0.58827 0.38966 0.0
C1471 C 0.40662 0.58983 0.33124 0.0
C1472 C 0.37745 0.63807 0.3574 0.0
C1473 C 0.41252 0.58633 0.31549 0.0
C1474 C 0.34983 0.63653 0.42373 0.0
C1475 C 0.35789 0.63988 0.40835 0.0
C1476 C 0.39386 0.60223 0.38076 0.0
C1477 C 0.40343 0.61698 0.33755 0.0
C1478 C 0.39515 0.61999 0.35392 0.0
C1479 C 0.36404 0.61613 0.39941 0.0
C1480 C 0.37541 0.61908 0.38402 0.0
H1481 H 0.41535 0.65568 0.30474 0.0
H1482 H 0.40488 0.66182 0.33247 0.0
H1483 H 0.41749 0.58893 0.36368 0.0
H1484 H 0.35078 0.56449 0.42556 0.0
H1485 H 0.36441 0.57032 0.39886 0.0
C1486 C 0.91415 0.61761 0.4234 0.0
C1487 C 0.91177 0.6443 0.43051 0.0
C1488 C 0.9093 0.61395 0.40736 0.0
C1489 C 0.90208 0.65447 0.37042 0.0
H1490 H 0.86545 0.59181 0.35703 0.0
C1491 C 0.87821 0.64428 0.30602 0.0
C1492 C 0.85633 0.63751 0.30249 0.0
C1493 C 0.88646 0.64055 0.32114 0.0
C1494 C 0.87559 0.60948 0.36063 0.0
H1495 H 0.9032 0.68818 0.42625 0.0
H1496 H 0.89477 0.68182 0.39862 0.0
H1497 H 0.87804 0.59447 0.38444 0.0
H1498 H 0.82609 0.62019 0.31175 0.0
H1499 H 0.84023 0.61491 0.33877 0.0
H1500 H 0.8989 0.67044 0.3471 0.0
C1501 C 0.90047 0.6637 0.40527 0.0
C1502 C 0.88305 0.61079 0.37625 0.0
C1503 C 0.90521 0.66732 0.42118 0.0
C1504 C 0.84298 0.62575 0.31427 0.0
C1505 C 0.85115 0.62258 0.32966 0.0
C1506 C 0.89456 0.65328 0.35495 0.0
C1507 C 0.90222 0.63697 0.39818 0.0
C1508 C 0.89612 0.63357 0.38134 0.0
C1509 C 0.87287 0.63064 0.33332 0.0
C1510 C 0.88114 0.63088 0.34983 0.0
H1511 H 0.91905 0.59943 0.43031 0.0
H1512 H 0.91097 0.59314 0.40218 0.0
H1513 H 0.91232 0.67212 0.37391 0.0
H1514 H 0.88903 0.65269 0.29702 0.0
H1515 H 0.90345 0.64604 0.32335 0.0
C1516 C 0.3476 0.62286 0.81193 0.0
C1517 C 0.34594 0.65002 0.80529 0.0
C1518 C 0.35384 0.61953 0.82773 0.0
C1519 C 0.35838 0.65828 0.86546 0.0
H1520 H 0.40694 0.60774 0.87454 0.0
C1521 C 0.40863 0.67261 0.92119 0.0
C1522 C 0.41247 0.64859 0.93053 0.0
C1523 C 0.40104 0.66985 0.90578 0.0
C1524 C 0.39321 0.62168 0.87221 0.0
H1525 H 0.34845 0.69491 0.81018 0.0
H1526 H 0.359 0.68914 0.83759 0.0
H1527 H 0.39017 0.60762 0.84825 0.0
H1528 H 0.41287 0.60277 0.93064 0.0
H1529 H 0.39955 0.59794 0.90348 0.0
H1530 H 0.36156 0.67278 0.88919 0.0
C1531 C 0.35557 0.67039 0.83067 0.0
C1532 C 0.38356 0.62154 0.8572 0.0
C1533 C 0.34961 0.6737 0.81493 0.0
C1534 C 0.41012 0.62166 0.92371 0.0
C1535 C 0.40241 0.61889 0.90819 0.0
C1536 C 0.36799 0.65844 0.88036 0.0
C1537 C 0.35816 0.6433 0.83719 0.0
C1538 C 0.36639 0.64037 0.85358 0.0
C1539 C 0.397 0.64302 0.89932 0.0
C1540 C 0.38589 0.64071 0.88379 0.0
H1541 H 0.34501 0.60421 0.80476 0.0
H1542 H 0.35556 0.59841 0.83249 0.0
H1543 H 0.3449 0.67262 0.86312 0.0
H1544 H 0.41056 0.69366 0.92603 0.0
H1545 H 0.39763 0.68883 0.89908 0.0
C1546 C 0.90933 0.58184 0.81463 0.0
C1547 C 0.91408 0.60531 0.80508 0.0
C1548 C 0.90084 0.58552 0.82974 0.0
C1549 C 0.89248 0.6351 0.86245 0.0
H1550 H 0.8427 0.58624 0.87103 0.0
C1551 C 0.84678 0.63579 0.9225 0.0
C1552 C 0.84494 0.60866 0.92912 0.0
C1553 C 0.85257 0.639 0.90661 0.0
C1554 C 0.85655 0.60005 0.86882 0.0
H1555 H 0.91511 0.65113 0.80435 0.0
H1556 H 0.9003 0.65753 0.83097 0.0
H1557 H 0.86023 0.58484 0.84525 0.0
H1558 H 0.84635 0.56374 0.92416 0.0
H1559 H 0.8561 0.56929 0.8966 0.0
H1560 H 0.88907 0.64972 0.88626 0.0
C1561 C 0.9031 0.6363 0.82664 0.0
C1562 C 0.86665 0.59917 0.85409 0.0
C1563 C 0.91165 0.63262 0.81143 0.0
C1564 C 0.84769 0.58492 0.91939 0.0
C1565 C 0.85318 0.58811 0.90356 0.0
C1566 C 0.88235 0.63594 0.87727 0.0
C1567 C 0.89685 0.61274 0.83568 0.0
C1568 C 0.8851 0.61606 0.85088 0.0
C1569 C 0.85622 0.61514 0.89707 0.0
C1570 C 0.86466 0.61783 0.88072 0.0
H1571 H 0.91127 0.56051 0.8102 0.0
H1572 H 0.89675 0.56696 0.83661 0.0
H1573 H 0.90663 0.6484 0.86028 0.0
H1574 H 0.8449 0.65446 0.92976 0.0
H1575 H 0.85465 0.66009 0.90187 0.0
C1576 C 0.59817 0.40564 0.67321 0.0
C1577 C 0.61449 0.40431 0.68489 0.0
C1578 C 0.60384 0.4038 0.65731 0.0
C1579 C 0.64762 0.41902 0.62999 0.0
H1580 H 0.61872 0.36534 0.60236 0.0
C1581 C 0.67048 0.40963 0.56415 0.0
C1582 C 0.65309 0.40503 0.55359 0.0
C1583 C 0.66701 0.40764 0.58039 0.0
C1584 C 0.62676 0.38071 0.60986 0.0
H1585 H 0.64951 0.4002 0.68913 0.0
H1586 H 0.65939 0.39767 0.66125 0.0
H1587 H 0.60974 0.36595 0.63037 0.0
H1588 H 0.61837 0.39519 0.55172 0.0
H1589 H 0.61214 0.39282 0.57989 0.0
H1590 H 0.66396 0.43473 0.60951 0.0
C1591 C 0.64226 0.39985 0.66448 0.0
C1592 C 0.62167 0.38091 0.62588 0.0
C1593 C 0.63657 0.40116 0.68038 0.0
C1594 C 0.63218 0.39855 0.55955 0.0
C1595 C 0.62864 0.39698 0.57574 0.0
C1596 C 0.65246 0.41917 0.61391 0.0
C1597 C 0.62594 0.40113 0.65284 0.0
C1598 C 0.63195 0.40019 0.63603 0.0
C1599 C 0.64601 0.40141 0.58638 0.0
C1600 C 0.64192 0.40018 0.60362 0.0
H1601 H 0.58103 0.40798 0.67636 0.0
H1602 H 0.59102 0.405 0.64848 0.0
H1603 H 0.65563 0.43421 0.63763 0.0
H1604 H 0.68681 0.41448 0.55986 0.0
H1605 H 0.68083 0.41079 0.58824 0.0
C1606 C 0.12433 0.35664 0.67935 0.0
C1607 C 0.14629 0.35281 0.68399 0.0
C1608 C 0.11888 0.35855 0.66342 0.0
C1609 C 0.14002 0.37743 0.62498 0.0
H1610 H 0.09775 0.32382 0.60834 0.0
C1611 C 0.12998 0.35971 0.55855 0.0
C1612 C 0.10912 0.35312 0.55254 0.0
C1613 C 0.13343 0.36141 0.57475 0.0
C1614 C 0.10925 0.33934 0.61281 0.0
H1615 H 0.17982 0.34872 0.67568 0.0
H1616 H 0.17026 0.35274 0.64775 0.0
H1617 H 0.10573 0.32436 0.6365 0.0
H1618 H 0.07536 0.34374 0.55872 0.0
H1619 H 0.08116 0.34772 0.58708 0.0
H1620 H 0.14332 0.39293 0.60147 0.0
C1621 C 0.15734 0.354 0.6565 0.0
C1622 C 0.11388 0.3395 0.62891 0.0
C1623 C 0.16276 0.35156 0.67242 0.0
C1624 C 0.09166 0.34863 0.56304 0.0
C1625 C 0.09503 0.35079 0.57929 0.0
C1626 C 0.13513 0.37763 0.60892 0.0
C1627 C 0.13534 0.35719 0.6519 0.0
C1628 C 0.12953 0.35825 0.63506 0.0
C1629 C 0.116 0.35704 0.58533 0.0
C1630 C 0.11996 0.35826 0.60259 0.0
H1631 H 0.11127 0.35756 0.688 0.0
H1632 H 0.10182 0.36111 0.66009 0.0
H1633 H 0.15197 0.3923 0.62955 0.0
H1634 H 0.14382 0.36301 0.55073 0.0
H1635 H 0.1499 0.36561 0.57895 0.0
C1636 C 0.66168 0.34433 0.17348 0.0
C1637 C 0.64538 0.34815 0.18499 0.0
C1638 C 0.65624 0.34537 0.1575 0.0
C1639 C 0.6122 0.33238 0.13007 0.0
H1640 H 0.64257 0.3843 0.10225 0.0
C1641 C 0.58815 0.34403 0.06453 0.0
C1642 C 0.60534 0.34823 0.05377 0.0
C1643 C 0.59217 0.34523 0.08074 0.0
C1644 C 0.63413 0.36936 0.10978 0.0
H1645 H 0.61062 0.35561 0.18889 0.0
H1646 H 0.60111 0.35667 0.16092 0.0
H1647 H 0.65192 0.38317 0.13018 0.0
H1648 H 0.64026 0.35637 0.05146 0.0
H1649 H 0.64743 0.35728 0.07954 0.0
H1650 H 0.59501 0.31763 0.10971 0.0
C1651 C 0.61806 0.35322 0.16431 0.0
C1652 C 0.63944 0.36888 0.12577 0.0
C1653 C 0.62355 0.35276 0.18026 0.0
C1654 C 0.62661 0.35341 0.05947 0.0
C1655 C 0.63069 0.35412 0.07561 0.0
C1656 C 0.60715 0.33247 0.11402 0.0
C1657 C 0.63437 0.34965 0.15283 0.0
C1658 C 0.62856 0.35033 0.13599 0.0
C1659 C 0.61353 0.3502 0.08647 0.0
C1660 C 0.61815 0.35087 0.10366 0.0
H1661 H 0.67863 0.34081 0.17682 0.0
H1662 H 0.66904 0.34244 0.14878 0.0
H1663 H 0.6037 0.3178 0.1378 0.0
H1664 H 0.57157 0.34014 0.06043 0.0
H1665 H 0.5785 0.34251 0.08876 0.0
C1666 C 0.10009 0.40256 0.17214 0.0
C1667 C 0.11664 0.40286 0.18368 0.0
C1668 C 0.10555 0.40025 0.15622 0.0
C1669 C 0.14841 0.41681 0.12838 0.0
H1670 H 0.1202 0.36147 0.1014 0.0
C1671 C 0.17027 0.40728 0.06253 0.0
C1672 C 0.15279 0.40221 0.05211 0.0
C1673 C 0.16712 0.40513 0.07879 0.0
C1674 C 0.12804 0.37727 0.10873 0.0
H1675 H 0.15184 0.40105 0.18764 0.0
H1676 H 0.16132 0.39766 0.15972 0.0
H1677 H 0.11185 0.36225 0.12952 0.0
H1678 H 0.11829 0.3911 0.05049 0.0
H1679 H 0.11259 0.3884 0.07875 0.0
H1680 H 0.1639 0.43274 0.10763 0.0
C1681 C 0.14418 0.39896 0.16307 0.0
C1682 C 0.12333 0.37758 0.12481 0.0
C1683 C 0.13873 0.4008 0.179 0.0
C1684 C 0.13214 0.39491 0.05823 0.0
C1685 C 0.12891 0.39316 0.07445 0.0
C1686 C 0.15289 0.41681 0.11226 0.0
C1687 C 0.12763 0.39867 0.15158 0.0
C1688 C 0.13336 0.39747 0.13472 0.0
C1689 C 0.14635 0.39825 0.08494 0.0
C1690 C 0.1426 0.3972 0.10221 0.0
H1691 H 0.08293 0.40401 0.1754 0.0
H1692 H 0.09253 0.40026 0.14751 0.0
H1693 H 0.15619 0.4325 0.13583 0.0
H1694 H 0.18643 0.41272 0.05813 0.0
H1695 H 0.181 0.40874 0.08651 0.0
C1696 C 0.57276 0.94294 0.97414 0.0
C1697 C 0.58114 0.93077 0.988 0.0
C1698 C 0.55298 0.9579 0.97444 0.0
C1699 C 0.52093 1.00174 0.0005 0.0
H1700 H 0.47324 0.99046 0.97092 0.0
C1701 C 0.43816 0.06132 0.00531 0.0
C1702 C 0.42657 0.06669 0.99134 0.0
C1703 C 0.45767 0.04572 0.00492 0.0
C1704 C 0.48657 0.99431 0.97909 0.0
H1705 H 0.57495 0.92379 0.0129 0.0
H1706 H 0.54059 0.95034 0.01341 0.0
H1707 H 0.50515 0.95945 0.97 0.0
H1708 H 0.42695 0.06202 0.96594 0.0
H1709 H 0.46147 0.03626 0.96512 0.0
H1710 H 0.50288 0.03713 0.0093 0.0
C1711 C 0.54934 0.94819 0.00235 0.0
C1712 C 0.50473 0.97634 0.97862 0.0
C1713 C 0.56889 0.93281 0.002 0.0
C1714 C 0.43549 0.05788 0.9769 0.0
C1715 C 0.45515 0.04282 0.97647 0.0
C1716 C 0.50295 0.02005 0.00081 0.0
C1717 C 0.54148 0.96132 0.98865 0.0
C1718 C 0.52201 0.97986 0.98934 0.0
C1719 C 0.46609 0.03564 0.99051 0.0
C1720 C 0.48552 0.01658 0.9901 0.0
H1721 H 0.58182 0.9417 0.96317 0.0
H1722 H 0.54721 0.96789 0.96372 0.0
H1723 H 0.53426 0.00506 0.00877 0.0
H1724 H 0.4315 0.06767 0.01661 0.0
H1725 H 0.46552 0.04046 0.01599 0.0
C1726 C 0.81815 0.18992 0.00326 0.0
C1727 C 0.82975 0.18429 0.98934 0.0
C1728 C 0.79817 0.2045 0.00266 0.0
C1729 C 0.76732 0.25247 0.97585 0.0
H1730 H 0.72083 0.24242 0.00653 0.0
C1731 C 0.68019 0.3021 0.97178 0.0
C1732 C 0.67289 0.31586 0.9855 0.0
C1733 C 0.69985 0.28687 0.97187 0.0
C1734 C 0.73378 0.24547 -0.00205 0.0
H1735 H 0.82905 0.18732 0.96387 0.0
H1736 H 0.79371 0.21111 0.96271 0.0
H1737 H 0.75289 0.21151 0.00731 0.0
H1738 H 0.68082 0.32514 0.00993 0.0
H1739 H 0.71493 0.29809 0.01008 0.0
H1740 H 0.74768 0.2859 0.96623 0.0
C1741 C 0.80033 0.20567 0.97416 0.0
C1742 C 0.75219 0.22787 -0.00159 0.0
C1743 C 0.82046 0.19174 0.97479 0.0
C1744 C 0.68603 0.31491 -0.00087 0.0
C1745 C 0.70544 0.29925 -0.00071 0.0
C1746 C 0.74873 0.26968 0.97522 0.0
C1747 C 0.78928 0.21317 0.9881 0.0
C1748 C 0.76926 0.2312 0.9874 0.0
C1749 C 0.71229 0.28473 0.98575 0.0
C1750 C 0.73191 0.26645 0.98632 0.0
H1751 H 0.82512 0.18458 0.01462 0.0
H1752 H 0.79027 0.21006 0.01366 0.0
H1753 H 0.78032 0.25623 0.9674 0.0
H1754 H 0.67042 0.30246 0.96111 0.0
H1755 H 0.70488 0.27581 0.96128 0.0
C1756 C 0.44073 0.19312 0.23785 0.0
C1757 C 0.42959 0.18455 0.25152 0.0
C1758 C 0.46039 0.20822 0.23902 0.0
C1759 C 0.50748 0.2245 0.26343 0.0
H1760 H 0.50488 0.29917 0.24467 0.0
C1761 C 0.57947 0.3025 0.27025 0.0
C1762 C 0.58504 0.31835 0.25683 0.0
C1763 C 0.55965 0.28762 0.27085 0.0
C1764 C 0.50607 0.27828 0.2498 0.0
H1765 H 0.43091 0.18325 0.27706 0.0
H1766 H 0.46577 0.20878 0.27904 0.0
H1767 H 0.47356 0.26741 0.24227 0.0
H1768 H 0.57375 0.33188 0.23376 0.0
H1769 H 0.5398 0.30538 0.23455 0.0
H1770 H 0.54025 0.23465 0.27043 0.0
C1771 C 0.45906 0.20421 0.26748 0.0
C1772 C 0.48809 0.26016 0.24844 0.0
C1773 C 0.43917 0.18967 0.26633 0.0
C1774 C 0.56993 0.32005 0.24434 0.0
C1775 C 0.55033 0.30484 0.24483 0.0
C1776 C 0.52568 0.24241 0.26453 0.0
C1777 C 0.46943 0.21436 0.25385 0.0
C1778 C 0.4887 0.23311 0.25518 0.0
C1779 C 0.54511 0.28792 0.25794 0.0
C1780 C 0.52526 0.26952 0.25766 0.0
H1781 H 0.43364 0.18965 0.22629 0.0
H1782 H 0.46824 0.21576 0.22836 0.0
H1783 H 0.50824 0.20369 0.26873 0.0
H1784 H 0.59071 0.30093 0.28011 0.0
H1785 H 0.55596 0.27542 0.28131 0.0
C1786 C 0.68929 0.93041 0.24086 0.0
C1787 C 0.67602 0.92994 0.25442 0.0
C1788 C 0.70887 0.94572 0.24072 0.0
C1789 C 0.75219 0.97625 0.26451 0.0
H1790 H 0.75512 0.03408 0.23215 0.0
C1791 C 0.82354 0.05534 0.26334 0.0
C1792 C 0.83225 0.06244 0.24854 0.0
C1793 C 0.80355 0.04109 0.26447 0.0
C1794 C 0.75477 0.01783 0.24113 0.0
H1795 H 0.67363 0.94353 0.27879 0.0
H1796 H 0.70836 0.9696 0.27864 0.0
H1797 H 0.72345 0.00262 0.23333 0.0
H1798 H 0.82663 0.06109 0.22334 0.0
H1799 H 0.79214 0.03527 0.22521 0.0
H1800 H 0.78378 0.99044 0.272 0.0
C1801 C 0.7033 0.95845 0.26809 0.0
C1802 C 0.73659 0.9999 0.24181 0.0
C1803 C 0.68348 0.94355 0.26816 0.0
C1804 C 0.82017 0.0561 0.23491 0.0
C1805 C 0.80036 0.04131 0.23602 0.0
C1806 C 0.77059 0.99383 0.26366 0.0
C1807 C 0.71576 0.96036 0.25422 0.0
C1808 C 0.73518 0.97898 0.2535 0.0
C1809 C 0.79204 0.03304 0.25081 0.0
C1810 C 0.77212 0.0149 0.25196 0.0
H1811 H 0.68401 0.92024 0.23006 0.0
H1812 H 0.71838 0.94671 0.22994 0.0
H1813 H 0.75146 0.96015 0.27357 0.0
H1814 H 0.83246 0.06024 0.27406 0.0
H1815 H 0.79738 0.03588 0.27608 0.0
C1816 C 0.18135 0.80463 0.96729 0.0
C1817 C 0.17462 0.81802 0.98128 0.0
C1818 C 0.20083 0.789 0.96689 0.0
C1819 C 0.23401 0.74514 0.99183 0.0
H1820 H 0.28185 0.75754 0.96255 0.0
C1821 C 0.31788 0.68994 -0.00121 0.0
C1822 C 0.33068 0.68524 0.9853 0.0
C1823 C 0.29784 0.70419 -0.00239 0.0
C1824 C 0.26847 0.75329 0.9706 0.0
H1825 H 0.18347 0.82635 0.00565 0.0
H1826 H 0.21719 0.79857 0.00497 0.0
H1827 H 0.24943 0.78772 0.9614 0.0
H1828 H 0.33198 0.68976 0.9599 0.0
H1829 H 0.29651 0.71311 0.9577 0.0
H1830 H 0.25244 0.71028 0.0008 0.0
C1831 C 0.20741 0.80035 -0.00566 0.0
C1832 C 0.25002 0.7708 0.96999 0.0
C1833 C 0.18821 0.81642 -0.00534 0.0
C1834 C 0.32249 0.69339 0.97051 0.0
C1835 C 0.30226 0.70707 0.96929 0.0
C1836 C 0.25223 0.72726 0.99225 0.0
C1837 C 0.21362 0.78609 0.98056 0.0
C1838 C 0.23281 0.76708 0.98075 0.0
C1839 C 0.29 0.71353 0.98287 0.0
C1840 C 0.26986 0.7313 0.98177 0.0
H1841 H 0.17122 0.80549 0.9568 0.0
H1842 H 0.20539 0.77816 0.95613 0.0
H1843 H 0.22072 0.74171 0.00011 0.0
H1844 H 0.32393 0.68411 0.01035 0.0
H1845 H 0.28907 0.70901 0.00838 0.0
C1846 C 0.57093 0.8206 0.75542 0.0
C1847 C 0.59065 0.80611 0.75831 0.0
C1848 C 0.55086 0.8063 0.75608 0.0
C1849 C 0.52646 0.73959 0.74777 0.0
H1850 H 0.47871 0.76184 0.77527 0.0
C1851 C 0.44321 0.68022 0.74774 0.0
C1852 C 0.42429 0.69644 0.75045 0.0
C1853 C 0.46407 0.69222 0.7497 0.0
C1854 C 0.49171 0.75558 0.76731 0.0
H1855 H 0.60488 0.7654 0.76425 0.0
H1856 H 0.56976 0.74033 0.76491 0.0
H1857 H 0.51385 0.78634 0.77695 0.0
H1858 H 0.41225 0.73809 0.75669 0.0
H1859 H 0.44823 0.75929 0.75927 0.0
H1860 H 0.50425 0.70992 0.73745 0.0
C1861 C 0.56991 0.76279 0.7624 0.0
C1862 C 0.51186 0.7695 0.76841 0.0
C1863 C 0.58992 0.77719 0.76212 0.0
C1864 C 0.42656 0.72493 0.75477 0.0
C1865 C 0.44728 0.73704 0.75639 0.0
C1866 C 0.50615 0.72605 0.7464 0.0
C1867 C 0.55029 0.7772 0.75926 0.0
C1868 C 0.52932 0.76169 0.7586 0.0
C1869 C 0.46636 0.72082 0.75408 0.0
C1870 C 0.48841 0.73404 0.75606 0.0
H1871 H 0.57105 0.84286 0.75243 0.0
H1872 H 0.53585 0.81774 0.75357 0.0
H1873 H 0.53976 0.73341 0.74002 0.0
H1874 H 0.44188 0.65815 0.74446 0.0
H1875 H 0.47834 0.67893 0.748 0.0
C1876 C 0.33401 0.02699 0.74274 0.0
C1877 C 0.33566 0.0566 0.74239 0.0
C1878 C 0.31355 0.01392 0.74344 0.0
C1879 C 0.25948 0.02265 0.75899 0.0
H1880 H 0.24253 0.96358 0.72973 0.0
C1881 C 0.17399 0.96978 0.76051 0.0
C1882 C 0.17203 0.94171 0.75527 0.0
C1883 C 0.19411 0.98382 0.75963 0.0
C1884 C 0.24715 0.97962 0.73821 0.0
H1885 H 0.31734 0.09583 0.7423 0.0
H1886 H 0.2812 0.07274 0.74402 0.0
H1887 H 0.27685 0.98903 0.72573 0.0
H1888 H 0.18989 0.90568 0.7461 0.0
H1889 H 0.22529 0.92964 0.74536 0.0
H1890 H 0.23039 0.0126 0.77192 0.0
C1891 C 0.29588 0.05983 0.74354 0.0
C1892 C 0.26667 0.9944 0.73576 0.0
C1893 C 0.31643 0.07297 0.74246 0.0
C1894 C 0.19088 0.92739 0.75009 0.0
C1895 C 0.21111 0.94128 0.7495 0.0
C1896 C 0.24011 0.00752 0.76162 0.0
C1897 C 0.29436 0.03021 0.74413 0.0
C1898 C 0.27298 0.016 0.74613 0.0
C1899 C 0.21283 0.96997 0.75375 0.0
C1900 C 0.2337 0.98574 0.75127 0.0
H1901 H 0.34862 0.0139 0.74264 0.0
H1902 H 0.31276 0.99106 0.74396 0.0
H1903 H 0.26424 0.03898 0.76727 0.0
H1904 H 0.15971 0.98149 0.76442 0.0
H1905 H 0.19466 0.00595 0.76286 0.0
C1906 C 0.57107 0.43938 0.49761 0.0
C1907 C 0.58431 0.43716 0.48409 0.0
C1908 C 0.55158 0.45484 0.49718 0.0
C1909 C 0.50802 0.48169 0.47257 0.0
H1910 H 0.50538 0.54429 0.50208 0.0
C1911 C 0.43555 0.5591 0.47134 0.0
C1912 C 0.42736 0.5684 0.48591 0.0
C1913 C 0.45569 0.54513 0.47048 0.0
C1914 C 0.50565 0.52671 0.49391 0.0
H1915 H 0.58682 0.44786 0.45929 0.0
H1916 H 0.55219 0.47415 0.45847 0.0
H1917 H 0.53733 0.51323 0.50194 0.0
H1918 H 0.43399 0.57121 0.51094 0.0
H1919 H 0.4687 0.54584 0.50962 0.0
H1920 H 0.47606 0.49409 0.46494 0.0
C1921 C 0.55722 0.46427 0.46941 0.0
C1922 C 0.524 0.50903 0.49381 0.0
C1923 C 0.57698 0.44925 0.4699 0.0
C1924 C 0.44004 0.56448 0.49954 0.0
C1925 C 0.45999 0.54996 0.49874 0.0
C1926 C 0.48945 0.49901 0.47287 0.0
C1927 C 0.54475 0.46785 0.48317 0.0
C1928 C 0.52529 0.48639 0.48317 0.0
C1929 C 0.46786 0.53956 0.48423 0.0
C1930 C 0.48801 0.52177 0.48356 0.0
H1931 H 0.57629 0.43043 0.50875 0.0
H1932 H 0.54205 0.45717 0.50789 0.0
H1933 H 0.50868 0.46423 0.46432 0.0
H1934 H 0.42616 0.56211 0.46062 0.0
H1935 H 0.46147 0.53823 0.45905 0.0
C1936 C 0.81766 0.68933 0.50059 0.0
C1937 C 0.82976 0.68479 0.48672 0.0
C1938 C 0.79783 0.70415 0.50005 0.0
C1939 C 0.75202 0.72578 0.47569 0.0
H1940 H 0.7526 0.7953 0.49994 0.0
C1941 C 0.6807 0.80529 0.47129 0.0
C1942 C 0.67406 0.81842 0.48536 0.0
C1943 C 0.70038 0.79014 0.47066 0.0
C1944 C 0.75194 0.77579 0.49328 0.0
H1945 H 0.83001 0.69039 0.46135 0.0
H1946 H 0.79488 0.71542 0.46039 0.0
H1947 H 0.78398 0.76345 0.50114 0.0
H1948 H 0.68315 0.82663 0.50966 0.0
H1949 H 0.71684 0.79953 0.50877 0.0
H1950 H 0.71974 0.73732 0.46826 0.0
C1951 C 0.80096 0.70792 0.47164 0.0
C1952 C 0.76996 0.75763 0.49396 0.0
C1953 C 0.82101 0.69368 0.47221 0.0
C1954 C 0.68788 0.81698 0.49859 0.0
C1955 C 0.70732 0.80144 0.49805 0.0
C1956 C 0.73376 0.74366 0.47525 0.0
C1957 C 0.78959 0.71401 0.4856 0.0
C1958 C 0.77012 0.73251 0.48519 0.0
C1959 C 0.71367 0.78738 0.48416 0.0
C1960 C 0.73347 0.76892 0.48406 0.0
H1961 H 0.82411 0.68287 0.51193 0.0
H1962 H 0.78921 0.70857 0.51094 0.0
H1963 H 0.75187 0.70647 0.46883 0.0
H1964 H 0.67045 0.80619 0.46086 0.0
H1965 H 0.70498 0.78022 0.45964 0.0
C1966 C 0.81842 0.56726 0.74251 0.0
C1967 C 0.83576 0.56042 0.75276 0.0
C1968 C 0.79793 0.55415 0.74417 0.0
C1969 C 0.75329 0.53223 0.75575 0.0
H1970 H 0.75466 0.45106 0.76232 0.0
C1971 C 0.67466 0.46763 0.7671 0.0
C1972 C 0.67224 0.44318 0.75781 0.0
C1973 C 0.69479 0.4817 0.76781 0.0
C1974 C 0.75402 0.4737 0.76047 0.0
H1975 H 0.84482 0.53546 0.77327 0.0
H1976 H 0.80926 0.51291 0.77613 0.0
H1977 H 0.78901 0.47737 0.76057 0.0
H1978 H 0.68941 0.4136 0.74262 0.0
H1979 H 0.72456 0.43809 0.74398 0.0
H1980 H 0.71825 0.52841 0.75539 0.0
C1981 C 0.81157 0.52797 0.76666 0.0
C1982 C 0.77366 0.4888 0.7596 0.0
C1983 C 0.83193 0.54104 0.76503 0.0
C1984 C 0.69069 0.43237 0.74988 0.0
C1985 C 0.71085 0.44636 0.75068 0.0
C1986 C 0.73361 0.51712 0.75673 0.0
C1987 C 0.79448 0.53395 0.75609 0.0
C1988 C 0.77351 0.5182 0.75718 0.0
C1989 C 0.71296 0.47152 0.75936 0.0
C1990 C 0.7338 0.48768 0.75903 0.0
H1991 H 0.82082 0.5821 0.73294 0.0
H1992 H 0.78504 0.55908 0.73582 0.0
H1993 H 0.75268 0.55489 0.75398 0.0
H1994 H 0.66081 0.47654 0.77337 0.0
H1995 H 0.69606 0.50082 0.77478 0.0
C1996 C 0.32066 0.18923 0.50079 0.0
C1997 C 0.33241 0.18424 0.48682 0.0
C1998 C 0.30081 0.20406 0.50035 0.0
C1999 C 0.25474 0.22529 0.4758 0.0
H2000 H 0.25484 0.29464 0.50018 0.0
C2001 C 0.18427 0.30556 0.46987 0.0
C2002 C 0.17708 0.31885 0.48374 0.0
C2003 C 0.20386 0.29018 0.46973 0.0
C2004 C 0.25431 0.27518 0.49348 0.0
H2005 H 0.33205 0.18907 0.4614 0.0
H2006 H 0.29694 0.21409 0.46063 0.0
H2007 H 0.28611 0.26265 0.50174 0.0
H2008 H 0.18513 0.32715 0.50823 0.0
H2009 H 0.21869 0.29967 0.50817 0.0
H2010 H 0.22273 0.23706 0.46789 0.0
C2011 C 0.30326 0.20694 0.47188 0.0
C2012 C 0.27227 0.25691 0.49438 0.0
C2013 C 0.32331 0.19269 0.47234 0.0
C2014 C 0.1903 0.31738 0.49729 0.0
C2015 C 0.20966 0.30161 0.49723 0.0
C2016 C 0.23656 0.24327 0.47512 0.0
C2017 C 0.2922 0.21348 0.48592 0.0
C2018 C 0.27264 0.23188 0.48552 0.0
C2019 C 0.2165 0.28732 0.48354 0.0
C2020 C 0.23613 0.26854 0.48392 0.0
H2021 H 0.32739 0.18313 0.51211 0.0
H2022 H 0.29244 0.20878 0.51131 0.0
H2023 H 0.2547 0.20604 0.46887 0.0
H2024 H 0.17449 0.30647 0.45921 0.0
H2025 H 0.20887 0.28013 0.45884 0.0
C2026 C 0.1921 0.43274 0.25374 0.0
C2027 C 0.17237 0.4469 0.25711 0.0
C2028 C 0.21216 0.44697 0.25484 0.0
C2029 C 0.23624 0.51383 0.2479 0.0
H2030 H 0.28401 0.4918 0.27546 0.0
C2031 C 0.31843 0.57521 0.24872 0.0
C2032 C 0.3376 0.55948 0.25135 0.0
C2033 C 0.29779 0.5626 0.25058 0.0
C2034 C 0.27101 0.49801 0.26748 0.0
H2035 H 0.15817 0.48687 0.26449 0.0
H2036 H 0.19326 0.51184 0.26592 0.0
H2037 H 0.24914 0.46651 0.27672 0.0
H2038 H 0.35036 0.51812 0.25745 0.0
H2039 H 0.31472 0.49584 0.25984 0.0
H2040 H 0.25816 0.54422 0.23796 0.0
C2041 C 0.19311 0.48968 0.26269 0.0
C2042 C 0.25102 0.48363 0.26834 0.0
C2043 C 0.17312 0.47532 0.26195 0.0
C2044 C 0.33582 0.53089 0.25557 0.0
C2045 C 0.31531 0.51816 0.25708 0.0
C2046 C 0.25638 0.52781 0.24676 0.0
C2047 C 0.21271 0.47568 0.25897 0.0
C2048 C 0.23356 0.49141 0.25853 0.0
C2049 C 0.29596 0.53385 0.25477 0.0
C2050 C 0.27412 0.51997 0.25647 0.0
H2051 H 0.19198 0.41086 0.24997 0.0
H2052 H 0.22717 0.43588 0.25189 0.0
H2053 H 0.22293 0.51998 0.24014 0.0
H2054 H 0.31938 0.59734 0.24554 0.0
H2055 H 0.28331 0.57552 0.24891 0.0
C2056 C 0.07744 0.95106 0.47139 0.0
C2057 C 0.08483 0.93702 0.48499 0.0
C2058 C 0.05779 0.9663 0.47163 0.0
C2059 C 0.02384 0.00672 0.49837 0.0
H2060 H 0.9783 0.99937 0.46672 0.0
C2061 C 0.93993 0.06372 0.50317 0.0
C2062 C 0.92915 0.0709 0.48912 0.0
C2063 C 0.95975 0.04876 0.5027 0.0
C2064 C 0.99103 0.00215 0.4755 0.0
H2065 H 0.07697 0.9271 0.50935 0.0
H2066 H 0.04283 0.95407 0.50975 0.0
H2067 H 0.01051 0.96896 0.4655 0.0
H2068 H 0.93124 0.07025 0.46363 0.0
H2069 H 0.96627 0.04566 0.46276 0.0
H2070 H 0.00483 0.04043 0.50816 0.0
C2071 C 0.05229 0.95321 0.49895 0.0
C2072 C 0.00937 0.98452 0.47483 0.0
C2073 C 0.07172 0.93759 0.49864 0.0
C2074 C 0.93916 0.06465 0.47464 0.0
C2075 C 0.95911 0.05026 0.47416 0.0
C2076 C 0.00566 0.02471 0.4989 0.0
C2077 C 0.04539 0.96812 0.48554 0.0
C2078 C 0.02586 0.98657 0.4863 0.0
C2079 C 0.96927 0.04119 0.48815 0.0
C2080 C 0.98898 0.02263 0.48748 0.0
H2081 H 0.08717 0.951 0.4607 0.0
H2082 H 0.05277 0.97766 0.46114 0.0
H2083 H 0.03653 0.00891 0.50723 0.0
H2084 H 0.93241 0.06811 0.51448 0.0
H2085 H 0.96699 0.04199 0.51372 0.0
C2086 C 0.06955 0.31895 0.74784 0.0
C2087 C 0.08822 0.30782 0.75536 0.0
C2088 C 0.0497 0.30418 0.74805 0.0
C2089 C 0.0281 0.23225 0.75133 0.0
H2090 H 0.97234 0.26971 0.75836 0.0
C2091 C 0.94262 0.18226 0.73792 0.0
C2092 C 0.9262 0.1872 0.74924 0.0
C2093 C 0.96317 0.19538 0.73932 0.0
C2094 C 0.98781 0.25893 0.75645 0.0
H2095 H 0.10042 0.27287 0.76947 0.0
H2096 H 0.06572 0.24721 0.76982 0.0
H2097 H 0.00635 0.29676 0.76024 0.0
H2098 H 0.91898 0.20846 0.77137 0.0
H2099 H 0.95456 0.23107 0.77371 0.0
H2100 H 0.00945 0.19438 0.74752 0.0
C2101 C 0.06656 0.26723 0.76366 0.0
C2102 C 0.00723 0.27446 0.75741 0.0
C2103 C 0.08636 0.2821 0.76358 0.0
C2104 C 0.9311 0.20443 0.7623 0.0
C2105 C 0.95147 0.21753 0.76364 0.0
C2106 C 0.00862 0.21673 0.75023 0.0
C2107 C 0.04815 0.27789 0.75568 0.0
C2108 C 0.02757 0.26128 0.7549 0.0
C2109 C 0.96753 0.2137 0.752 0.0
C2110 C 0.9883 0.22992 0.75286 0.0
H2111 H 0.07042 0.33868 0.7414 0.0
H2112 H 0.03576 0.31284 0.74176 0.0
H2113 H 0.04356 0.22163 0.74916 0.0
H2114 H 0.93938 0.16908 0.72774 0.0
H2115 H 0.9753 0.19209 0.73017 0.0
C2116 C 0.92585 0.71705 0.25744 0.0
C2117 C 0.92281 0.69456 0.2468 0.0
C2118 C 0.94584 0.73119 0.25829 0.0
C2119 C 1.00453 0.72525 0.24959 0.0
H2120 H 1.00259 0.80711 0.25226 0.0
C2121 C 0.08155 0.79152 0.26333 0.0
C2122 C 0.0851 0.81508 0.25355 0.0
C2123 C 0.06144 0.77733 0.26309 0.0
C2124 C 1.00341 0.78429 0.25146 0.0
H2125 H 0.93868 0.66896 0.22891 0.0
H2126 H 0.97389 0.69397 0.2304 0.0
H2127 H 0.96852 0.78048 0.24974 0.0
H2128 H 0.06989 0.84304 0.23645 0.0
H2129 H 0.03482 0.81835 0.23611 0.0
H2130 H 0.0395 0.72916 0.25111 0.0
C2131 C 0.96063 0.70043 0.2381 0.0
C2132 C 0.98391 0.76902 0.25013 0.0
C2133 C 0.94048 0.6862 0.23721 0.0
C2134 C 0.06773 0.82497 0.24413 0.0
C2135 C 0.0476 0.81084 0.24395 0.0
C2136 C 0.02407 0.74055 0.25097 0.0
C2137 C 0.96337 0.7233 0.24854 0.0
C2138 C 0.98425 0.73934 0.24927 0.0
C2139 C 0.04443 0.7865 0.25315 0.0
C2140 C 0.02369 0.77023 0.25196 0.0
H2141 H 0.91271 0.72399 0.26513 0.0
H2142 H 0.94757 0.74835 0.26667 0.0
H2143 H 0.00527 0.7024 0.24905 0.0
H2144 H 0.09456 0.78333 0.27075 0.0
H2145 H 0.05932 0.75892 0.27052 0.0
C2146 C 0.94079 0.56553 -0.00161 0.0
C2147 C 0.92841 0.57013 0.98467 0.0
C2148 C 0.96091 0.55139 -0.00242 0.0
C2149 C 0.99129 0.50228 0.97119 0.0
H2150 H 0.0382 0.51465 0.00132 0.0
C2151 C 0.07823 0.45108 0.96865 0.0
C2152 C 0.0852 0.43837 0.98278 0.0
C2153 C 0.05874 0.46665 0.96818 0.0
C2154 C 0.02515 0.51096 -0.00712 0.0
H2155 H 0.928 0.56553 0.95926 0.0
H2156 H 0.96358 0.5423 0.95771 0.0
H2157 H 0.00627 0.54574 0.00149 0.0
H2158 H 0.07685 0.43131 0.00734 0.0
H2159 H 0.04305 0.45898 0.00653 0.0
H2160 H 0.01072 0.46794 0.96236 0.0
C2161 C 0.95743 0.54838 0.96919 0.0
C2162 C 0.00681 0.52867 -0.007 0.0
C2163 C 0.93713 0.56198 0.97004 0.0
C2164 C 0.0719 0.4407 -0.00374 0.0
C2165 C 0.05266 0.45671 -0.00415 0.0
C2166 C 0.00984 0.48493 0.9709 0.0
C2167 C 0.96926 0.54204 0.98299 0.0
C2168 C 0.98949 0.52439 0.98227 0.0
C2169 C 0.04614 0.4702 0.98189 0.0
C2170 C 0.02676 0.48893 0.98187 0.0
H2171 H 0.93436 0.57137 0.00984 0.0
H2172 H 0.96934 0.54667 0.0085 0.0
H2173 H 0.97815 0.49785 0.96296 0.0
H2174 H 0.08814 0.44963 0.95808 0.0
H2175 H 0.05397 0.47689 0.95729 0.0
C2176 C 0.36411 0.15346 0.17709 0.0
C2177 C 0.345 0.1574 0.1861 0.0
C2178 C 0.36278 0.14972 0.16082 0.0
C2179 C 0.32724 0.12267 0.13021 0.0
H2180 H 0.36518 0.16452 0.10189 0.0
C2181 C 0.32468 0.10705 0.06254 0.0
C2182 C 0.34475 0.10859 0.05442 0.0
C2183 C 0.32355 0.11407 0.07853 0.0
C2184 C 0.35468 0.15236 0.10964 0.0
H2185 H 0.30949 0.16071 0.18512 0.0
H2186 H 0.30718 0.15353 0.15655 0.0
H2187 H 0.36525 0.17558 0.12995 0.0
H2188 H 0.3795 0.11774 0.0568 0.0
H2189 H 0.37771 0.12891 0.08472 0.0
H2190 H 0.31726 0.09864 0.1101 0.0
C2191 C 0.32315 0.15357 0.16218 0.0
C2192 C 0.35463 0.15887 0.12568 0.0
C2193 C 0.3245 0.15781 0.17847 0.0
C2194 C 0.36374 0.11661 0.06269 0.0
C2195 C 0.36267 0.12326 0.07869 0.0
C2196 C 0.3275 0.11586 0.11418 0.0
C2197 C 0.34229 0.14943 0.15324 0.0
C2198 C 0.34107 0.14392 0.13612 0.0
C2199 C 0.34251 0.12245 0.08678 0.0
C2200 C 0.34141 0.13042 0.10372 0.0
H2201 H 0.38015 0.15313 0.18263 0.0
H2202 H 0.37776 0.14635 0.15419 0.0
H2203 H 0.3168 0.11066 0.13809 0.0
H2204 H 0.30973 0.10112 0.05646 0.0
H2205 H 0.30771 0.11351 0.08432 0.0
C2206 C 0.89391 0.09876 0.17399 0.0
C2207 C 0.91322 0.0932 0.18252 0.0
C2208 C 0.89477 0.10352 0.15778 0.0
C2209 C 0.93016 0.13059 0.12708 0.0
H2210 H 0.89049 0.0919 0.09856 0.0
C2211 C 0.93249 0.14761 0.05946 0.0
C2212 C 0.91235 0.14682 0.05139 0.0
C2213 C 0.9335 0.14066 0.07547 0.0
C2214 C 0.90147 0.10323 0.10637 0.0
H2215 H 0.94854 0.08808 0.18076 0.0
H2216 H 0.95002 0.09699 0.15235 0.0
H2217 H 0.89055 0.07967 0.12645 0.0
H2218 H 0.87737 0.13947 0.05388 0.0
H2219 H 0.87897 0.12854 0.08182 0.0
H2220 H 0.94056 0.15493 0.1072 0.0
C2221 C 0.93427 0.09744 0.15828 0.0
C2222 C 0.90158 0.09603 0.12231 0.0
C2223 C 0.93338 0.09219 0.17448 0.0
C2224 C 0.89318 0.13994 0.05974 0.0
C2225 C 0.89414 0.13342 0.07574 0.0
C2226 C 0.92984 0.1381 0.11115 0.0
C2227 C 0.91497 0.10325 0.14983 0.0
C2228 C 0.91581 0.10977 0.13281 0.0
C2229 C 0.91435 0.13316 0.08376 0.0
C2230 C 0.91534 0.12468 0.10062 0.0
H2231 H 0.87813 0.09962 0.17986 0.0
H2232 H 0.87968 0.10813 0.15152 0.0
H2233 H 0.94114 0.14166 0.13501 0.0
H2234 H 0.94756 0.15268 0.0533 0.0
H2235 H 0.94938 0.14044 0.08121 0.0
C2236 C 0.69067 0.88467 0.80876 0.0
C2237 C 0.68684 0.85711 0.80321 0.0
C2238 C 0.69264 0.88983 0.82487 0.0
C2239 C 0.70462 0.85842 0.86302 0.0
H2240 H 0.6622 0.9122 0.87925 0.0
C2241 C 0.68406 0.86658 0.92906 0.0
C2242 C 0.67823 0.89307 0.93522 0.0
C2243 C 0.68755 0.86323 0.91293 0.0
C2244 C 0.6745 0.89759 0.87494 0.0
H2245 H 0.68323 0.81317 0.81005 0.0
H2246 H 0.68703 0.82226 0.8383 0.0
H2247 H 0.66501 0.90458 0.85098 0.0
H2248 H 0.67243 0.93711 0.92952 0.0
H2249 H 0.67937 0.93158 0.90145 0.0
H2250 H 0.71437 0.85162 0.88693 0.0
C2251 C 0.68834 0.83977 0.83013 0.0
C2252 C 0.676 0.89316 0.85875 0.0
C2253 C 0.68603 0.83464 0.81401 0.0
C2254 C 0.67661 0.91635 0.92504 0.0
C2255 C 0.68049 0.91313 0.90895 0.0
C2256 C 0.70339 0.86319 0.87924 0.0
C2257 C 0.69117 0.86748 0.83566 0.0
C2258 C 0.69088 0.87333 0.8527 0.0
C2259 C 0.68566 0.88644 0.90266 0.0
C2260 C 0.6881 0.88258 0.8854 0.0
H2261 H 0.69137 0.90243 0.80072 0.0
H2262 H 0.69492 0.91135 0.82893 0.0
H2263 H 0.7163 0.84314 0.85853 0.0
H2264 H 0.68532 0.84823 0.93665 0.0
H2265 H 0.69113 0.84228 0.90848 0.0
C2266 C 0.07771 0.84024 0.92207 0.0
C2267 C 0.07531 0.86206 0.93317 0.0
C2268 C 0.07378 0.84536 0.90612 0.0
C2269 C 0.07782 0.90118 0.87761 0.0
H2270 H 0.04316 0.85246 0.85052 0.0
C2271 C 0.07274 0.92219 0.81124 0.0
C2272 C 0.07399 0.89844 0.80137 0.0
C2273 C 0.0691 0.91894 0.82736 0.0
C2274 C 0.05306 0.86613 0.8579 0.0
H2275 H 0.06644 0.90616 0.93636 0.0
H2276 H 0.06005 0.91514 0.90841 0.0
H2277 H 0.04394 0.84384 0.87892 0.0
H2278 H 0.07202 0.8527 0.8005 0.0
H2279 H 0.06665 0.84688 0.8287 0.0
H2280 H 0.088 0.92258 0.85676 0.0
C2281 C 0.06482 0.89411 0.91212 0.0
C2282 C 0.05338 0.86125 0.87413 0.0
C2283 C 0.06844 0.88891 0.92808 0.0
C2284 C 0.07104 0.8714 0.80784 0.0
C2285 C 0.06779 0.8681 0.824 0.0
C2286 C 0.07779 0.9058 0.8614 0.0
C2287 C 0.06769 0.87246 0.90102 0.0
C2288 C 0.06592 0.87861 0.88406 0.0
C2289 C 0.06706 0.89182 0.83399 0.0
C2290 C 0.06559 0.88816 0.85132 0.0
H2291 H 0.08286 0.81929 0.92567 0.0
H2292 H 0.07625 0.82841 0.89771 0.0
H2293 H 0.08784 0.91461 0.88505 0.0
H2294 H 0.07465 0.94332 0.80651 0.0
H2295 H 0.06812 0.93769 0.83464 0.0
C2296 C 0.32948 0.65182 0.67558 0.0
C2297 C 0.34917 0.65148 0.68425 0.0
C2298 C 0.32952 0.64578 0.65946 0.0
C2299 C 0.36393 0.64687 0.62439 0.0
H2300 H 0.32358 0.5906 0.60805 0.0
C2301 C 0.36879 0.60958 0.55993 0.0
C2302 C 0.34903 0.6039 0.55199 0.0
C2303 C 0.36891 0.61441 0.57617 0.0
C2304 C 0.33474 0.60667 0.61234 0.0
H2305 H 0.38439 0.64507 0.68273 0.0
H2306 H 0.38446 0.63511 0.65445 0.0
H2307 H 0.32335 0.60193 0.6361 0.0
H2308 H 0.31388 0.59873 0.55485 0.0
H2309 H 0.31393 0.60812 0.58308 0.0
H2310 H 0.37493 0.65241 0.6007 0.0
C2311 C 0.36902 0.63986 0.66021 0.0
C2312 C 0.33464 0.61305 0.62843 0.0
C2313 C 0.36895 0.64545 0.67639 0.0
C2314 C 0.3294 0.60286 0.56066 0.0
C2315 C 0.32946 0.60812 0.57688 0.0
C2316 C 0.36382 0.64082 0.60828 0.0
C2317 C 0.34928 0.63973 0.65164 0.0
C2318 C 0.34929 0.63313 0.63459 0.0
C2319 C 0.34922 0.61413 0.58484 0.0
C2320 C 0.34928 0.62055 0.60203 0.0
H2321 H 0.31396 0.65628 0.6813 0.0
H2322 H 0.31412 0.64602 0.65307 0.0
H2323 H 0.37522 0.66268 0.62885 0.0
H2324 H 0.38423 0.61025 0.5536 0.0
H2325 H 0.3845 0.61829 0.58191 0.0
C2326 C 0.92854 0.65467 0.56076 0.0
C2327 C 0.9089 0.65211 0.55216 0.0
C2328 C 0.92883 0.64945 0.57697 0.0
C2329 C 0.89454 0.64795 0.61221 0.0
H2330 H 0.93688 0.59384 0.62815 0.0
C2331 C 0.89063 0.6074 0.67619 0.0
C2332 C 0.91057 0.60254 0.68407 0.0
C2333 C 0.8904 0.61323 0.66005 0.0
C2334 C 0.92517 0.60934 0.62398 0.0
H2335 H 0.87405 0.64298 0.55389 0.0
H2336 H 0.87454 0.63448 0.58228 0.0
H2337 H 0.93694 0.6061 0.60025 0.0
H2338 H 0.94591 0.60012 0.68121 0.0
H2339 H 0.9456 0.61122 0.65324 0.0
H2340 H 0.88306 0.65189 0.6359 0.0
C2341 C 0.88969 0.64028 0.57642 0.0
C2342 C 0.92519 0.61626 0.60798 0.0
C2343 C 0.88946 0.64502 0.56018 0.0
C2344 C 0.93025 0.6035 0.67545 0.0
C2345 C 0.93005 0.60974 0.65937 0.0
C2346 C 0.89472 0.64137 0.62826 0.0
C2347 C 0.90942 0.64209 0.58492 0.0
C2348 C 0.90982 0.63552 0.60195 0.0
C2349 C 0.91012 0.61477 0.65145 0.0
C2350 C 0.90997 0.62186 0.63435 0.0
H2351 H 0.94379 0.66001 0.5549 0.0
H2352 H 0.94422 0.65115 0.58331 0.0
H2353 H 0.88264 0.66305 0.60783 0.0
H2354 H 0.87517 0.60662 0.68249 0.0
H2355 H 0.8747 0.6164 0.65431 0.0
C2356 C 0.68369 0.34003 0.31359 0.0
C2357 C 0.68545 0.36187 0.30245 0.0
C2358 C 0.68725 0.34551 0.32955 0.0
C2359 C 0.68043 0.40106 0.3579 0.0
H2360 H 0.71636 0.35487 0.38547 0.0
C2361 C 0.68293 0.42238 0.4244 0.0
C2362 C 0.68281 0.39862 0.4343 0.0
C2363 C 0.68689 0.41936 0.4083 0.0
C2364 C 0.70609 0.36781 0.37796 0.0
H2365 H 0.69286 0.40638 0.29919 0.0
H2366 H 0.69856 0.416 0.32718 0.0
H2367 H 0.71671 0.34621 0.35707 0.0
H2368 H 0.68702 0.35315 0.43524 0.0
H2369 H 0.69291 0.34765 0.40706 0.0
H2370 H 0.66875 0.42165 0.3786 0.0
C2371 C 0.6946 0.39467 0.32349 0.0
C2372 C 0.70643 0.36293 0.36173 0.0
C2373 C 0.69139 0.38912 0.30751 0.0
C2374 C 0.68711 0.37185 0.42787 0.0
C2375 C 0.69067 0.36876 0.41172 0.0
C2376 C 0.67979 0.40564 0.37411 0.0
C2377 C 0.6923 0.37298 0.33463 0.0
C2378 C 0.69345 0.37938 0.35161 0.0
C2379 C 0.69038 0.39245 0.4017 0.0
C2380 C 0.69243 0.38888 0.38437 0.0
H2381 H 0.67926 0.3188 0.31002 0.0
H2382 H 0.68523 0.32852 0.33799 0.0
H2383 H 0.67006 0.41375 0.35031 0.0
H2384 H 0.67997 0.44333 0.4291 0.0
H2385 H 0.68704 0.43814 0.40101 0.0
C2386 C 0.07257 0.38841 0.42787 0.0
C2387 C 0.0797 0.3619 0.43331 0.0
C2388 C 0.06933 0.39307 0.41181 0.0
C2389 C 0.05918 0.3585 0.37405 0.0
H2390 H 0.09121 0.42176 0.35629 0.0
C2391 C 0.07477 0.37006 0.30742 0.0
C2392 C 0.07635 0.39734 0.30101 0.0
C2393 C 0.07221 0.36636 0.32363 0.0
C2394 C 0.08175 0.40437 0.36104 0.0
H2395 H 0.08824 0.31918 0.42628 0.0
H2396 H 0.08232 0.32735 0.39815 0.0
H2397 H 0.09169 0.41406 0.38462 0.0
H2398 H 0.07525 0.44214 0.30634 0.0
H2399 H 0.06996 0.43574 0.33455 0.0
H2400 H 0.04904 0.34887 0.35052 0.0
C2401 C 0.07933 0.34446 0.40637 0.0
C2402 C 0.08214 0.39992 0.37727 0.0
C2403 C 0.08287 0.33988 0.42242 0.0
C2404 C 0.0744 0.42085 0.311 0.0
C2405 C 0.07147 0.41716 0.32717 0.0
C2406 C 0.05851 0.36318 0.3578 0.0
C2407 C 0.07287 0.37121 0.40093 0.0
C2408 C 0.0711 0.37677 0.38388 0.0
C2409 C 0.07084 0.38987 0.33373 0.0
C2410 C 0.07004 0.38596 0.35108 0.0
H2411 H 0.06998 0.4058 0.43597 0.0
H2412 H 0.06424 0.41384 0.40787 0.0
H2413 H 0.05039 0.34063 0.37894 0.0
H2414 H 0.07631 0.35154 0.29999 0.0
H2415 H 0.07211 0.34504 0.32827 0.0
C2416 C 0.82296 0.09923 0.55811 0.0
C2417 C 0.84331 0.09981 0.55031 0.0
C2418 C 0.82194 0.10313 0.57445 0.0
C2419 C 0.85431 0.09756 0.61065 0.0
H2420 H 0.81778 0.15825 0.62661 0.0
C2421 C 0.86513 0.14013 0.67359 0.0
C2422 C 0.8463 0.14832 0.68197 0.0
C2423 C 0.86377 0.13341 0.65759 0.0
C2424 C 0.82779 0.1409 0.62243 0.0
H2425 H 0.87854 0.10383 0.5535 0.0
H2426 H 0.87672 0.11001 0.58197 0.0
H2427 H 0.81634 0.14595 0.5987 0.0
H2428 H 0.81125 0.15593 0.68014 0.0
H2429 H 0.80876 0.14346 0.65238 0.0
H2430 H 0.86565 0.09212 0.63428 0.0
C2431 C 0.8616 0.1068 0.57547 0.0
C2432 C 0.82695 0.13391 0.60644 0.0
C2433 C 0.86261 0.10344 0.55918 0.0
C2434 C 0.82612 0.14992 0.67398 0.0
C2435 C 0.8247 0.14285 0.65803 0.0
C2436 C 0.85495 0.10426 0.62666 0.0
C2437 C 0.84127 0.10704 0.58324 0.0
C2438 C 0.84047 0.11249 0.60038 0.0
C2439 C 0.84349 0.13434 0.64965 0.0
C2440 C 0.84198 0.12635 0.63272 0.0
H2441 H 0.80784 0.09656 0.55155 0.0
H2442 H 0.80608 0.10316 0.58023 0.0
H2443 H 0.86474 0.08076 0.60626 0.0
H2444 H 0.88096 0.13888 0.67939 0.0
H2445 H 0.87869 0.12759 0.65145 0.0
C2446 C 0.39797 0.13094 0.55845 0.0
C2447 C 0.41277 0.14987 0.55137 0.0
C2448 C 0.39844 0.12634 0.57468 0.0
C2449 C 0.43389 0.13355 0.60975 0.0
H2450 H 0.37874 0.12486 0.63206 0.0
C2451 C 0.39842 0.12698 0.67746 0.0
C2452 C 0.41367 0.1082 0.68417 0.0
C2453 C 0.39877 0.13266 0.66134 0.0
C2454 C 0.39429 0.1275 0.62605 0.0
H2455 H 0.43963 0.17894 0.55582 0.0
H2456 H 0.44018 0.17127 0.58427 0.0
H2457 H 0.37846 0.13473 0.60395 0.0
H2458 H 0.44127 0.08063 0.67915 0.0
H2459 H 0.44159 0.09012 0.6509 0.0
H2460 H 0.4497 0.127 0.63199 0.0
C2461 C 0.42844 0.15964 0.57719 0.0
C2462 C 0.39413 0.13281 0.60988 0.0
C2463 C 0.42804 0.16416 0.56091 0.0
C2464 C 0.42933 0.09526 0.67437 0.0
C2465 C 0.4296 0.10084 0.65819 0.0
C2466 C 0.43405 0.12835 0.62596 0.0
C2467 C 0.41363 0.14068 0.58425 0.0
C2468 C 0.41392 0.13576 0.60152 0.0
C2469 C 0.41428 0.11956 0.65149 0.0
C2470 C 0.41424 0.1252 0.63428 0.0
H2471 H 0.3861 0.11939 0.55145 0.0
H2472 H 0.38707 0.11122 0.57969 0.0
H2473 H 0.44943 0.13545 0.60362 0.0
H2474 H 0.38625 0.13753 0.68468 0.0
H2475 H 0.38698 0.14756 0.65661 0.0
C2476 C 0.18102 0.83631 0.31186 0.0
C2477 C 0.18286 0.85866 0.30104 0.0
C2478 C 0.18401 0.84118 0.32795 0.0
C2479 C 0.17595 0.89559 0.35686 0.0
H2480 H 0.21275 0.85015 0.38424 0.0
C2481 C 0.1804 0.91851 0.42307 0.0
C2482 C 0.18087 0.89512 0.43323 0.0
C2483 C 0.18365 0.91494 0.40693 0.0
C2484 C 0.20221 0.86284 0.37678 0.0
H2485 H 0.1898 0.90346 0.2985 0.0
H2486 H 0.19453 0.91196 0.32666 0.0
H2487 H 0.21296 0.84156 0.35582 0.0
H2488 H 0.18533 0.84972 0.43458 0.0
H2489 H 0.19001 0.84325 0.40633 0.0
H2490 H 0.16427 0.91597 0.37763 0.0
C2491 C 0.19092 0.89072 0.32264 0.0
C2492 C 0.20246 0.85799 0.36054 0.0
C2493 C 0.18827 0.8858 0.30655 0.0
C2494 C 0.18499 0.86814 0.42701 0.0
C2495 C 0.18783 0.86449 0.41082 0.0
C2496 C 0.17542 0.90014 0.37308 0.0
C2497 C 0.18856 0.86853 0.33345 0.0
C2498 C 0.18928 0.8743 0.3505 0.0
C2499 C 0.18698 0.88782 0.40056 0.0
C2500 C 0.18847 0.88375 0.38325 0.0
H2501 H 0.177 0.81514 0.30794 0.0
H2502 H 0.18198 0.8238 0.33614 0.0
H2503 H 0.16541 0.90814 0.34933 0.0
H2504 H 0.17757 0.9396 0.42761 0.0
H2505 H 0.18341 0.93347 0.39944 0.0
C2506 C 0.57032 0.88963 0.43113 0.0
C2507 C 0.57595 0.86263 0.43672 0.0
C2508 C 0.56703 0.89416 0.41507 0.0
C2509 C 0.55429 0.86043 0.37757 0.0
H2510 H 0.59225 0.91768 0.3595 0.0
C2511 C 0.57163 0.86762 0.31094 0.0
C2512 C 0.57621 0.89421 0.30442 0.0
C2513 C 0.56839 0.86477 0.32715 0.0
C2514 C 0.58112 0.90207 0.36432 0.0
H2515 H 0.58155 0.81895 0.43001 0.0
H2516 H 0.57549 0.82692 0.40188 0.0
H2517 H 0.59163 0.91089 0.38787 0.0
H2518 H 0.57965 0.93892 0.30942 0.0
H2519 H 0.57304 0.93423 0.33757 0.0
H2520 H 0.54356 0.85173 0.35406 0.0
C2521 C 0.57375 0.84449 0.40997 0.0
C2522 C 0.5809 0.89812 0.38058 0.0
C2523 C 0.57738 0.84002 0.42602 0.0
C2524 C 0.5765 0.91809 0.31422 0.0
C2525 C 0.57282 0.91535 0.33035 0.0
C2526 C 0.55422 0.86469 0.36128 0.0
C2527 C 0.56897 0.8717 0.40437 0.0
C2528 C 0.56771 0.87705 0.3873 0.0
C2529 C 0.56927 0.88857 0.33708 0.0
C2530 C 0.56789 0.88531 0.35445 0.0
H2531 H 0.56908 0.90747 0.43909 0.0
H2532 H 0.56327 0.9153 0.41096 0.0
H2533 H 0.54389 0.84416 0.38257 0.0
H2534 H 0.57139 0.84885 0.30362 0.0
H2535 H 0.56601 0.84377 0.33192 0.0
C2536 C 0.8283 0.59799 0.05914 0.0
C2537 C 0.84815 0.60034 0.05079 0.0
C2538 C 0.82772 0.60289 0.07539 0.0
C2539 C 0.86141 0.60244 0.1109 0.0
H2540 H 0.81966 0.65692 0.12727 0.0
C2541 C 0.86638 0.64145 0.17498 0.0
C2542 C 0.84667 0.64658 0.18307 0.0
C2543 C 0.86625 0.63599 0.15881 0.0
C2544 C 0.83119 0.6413 0.12297 0.0
H2545 H 0.88303 0.60891 0.05295 0.0
H2546 H 0.88204 0.61684 0.08138 0.0
H2547 H 0.81964 0.64557 0.09921 0.0
H2548 H 0.81134 0.65005 0.18058 0.0
H2549 H 0.81098 0.63956 0.15247 0.0
H2550 H 0.87268 0.59748 0.13457 0.0
C2551 C 0.86695 0.61143 0.07532 0.0
C2552 C 0.8312 0.63491 0.10689 0.0
C2553 C 0.86748 0.60701 0.05905 0.0
C2554 C 0.82682 0.64638 0.17463 0.0
C2555 C 0.82665 0.64048 0.15849 0.0
C2556 C 0.8612 0.60849 0.127 0.0
C2557 C 0.84704 0.60972 0.08359 0.0
C2558 C 0.84643 0.6156 0.10071 0.0
C2559 C 0.84636 0.63507 0.15037 0.0
C2560 C 0.84622 0.6282 0.13324 0.0
H2561 H 0.81312 0.59298 0.05309 0.0
H2562 H 0.8122 0.60128 0.08155 0.0
H2563 H 0.87316 0.58724 0.10641 0.0
H2564 H 0.88198 0.64173 0.18113 0.0
H2565 H 0.8818 0.6326 0.15292 0.0
C2566 C 0.43018 0.60462 0.17583 0.0
C2567 C 0.41064 0.605 0.18466 0.0
C2568 C 0.42985 0.61041 0.15969 0.0
C2569 C 0.39503 0.60879 0.12483 0.0
H2570 H 0.43487 0.66536 0.10823 0.0
C2571 C 0.38965 0.64551 0.06023 0.0
C2572 C 0.40934 0.65152 0.05228 0.0
C2573 C 0.38961 0.64067 0.07647 0.0
C2574 C 0.42386 0.64919 0.11259 0.0
H2575 H 0.37538 0.61115 0.1834 0.0
H2576 H 0.3748 0.62066 0.15506 0.0
H2577 H 0.43541 0.65425 0.13629 0.0
H2578 H 0.44445 0.65717 0.05513 0.0
H2579 H 0.44454 0.64775 0.08334 0.0
H2580 H 0.38388 0.60293 0.10118 0.0
C2581 C 0.39035 0.61609 0.16073 0.0
C2582 C 0.42413 0.64295 0.12868 0.0
C2583 C 0.39071 0.61075 0.17693 0.0
C2584 C 0.42898 0.6528 0.06094 0.0
C2585 C 0.42899 0.64753 0.07716 0.0
C2586 C 0.39497 0.61469 0.1087 0.0
C2587 C 0.40995 0.61624 0.152 0.0
C2588 C 0.40968 0.62275 0.13494 0.0
C2589 C 0.40931 0.64128 0.08513 0.0
C2590 C 0.40935 0.63505 0.10235 0.0
H2591 H 0.44582 0.60037 0.18144 0.0
H2592 H 0.44516 0.61019 0.15319 0.0
H2593 H 0.38388 0.5929 0.12937 0.0
H2594 H 0.37421 0.64463 0.05391 0.0
H2595 H 0.37406 0.63657 0.08222 0.0
C2596 C 0.18932 0.3659 0.92802 0.0
C2597 C 0.18265 0.39277 0.93323 0.0
C2598 C 0.19261 0.36073 0.91203 0.0
C2599 C 0.20388 0.3936 0.87408 0.0
H2600 H 0.16969 0.33182 0.85673 0.0
C2601 C 0.18798 0.3815 0.80759 0.0
C2602 C 0.18534 0.35424 0.80133 0.0
C2603 C 0.19069 0.38535 0.82377 0.0
C2604 C 0.17976 0.34875 0.86137 0.0
H2605 H 0.17505 0.43558 0.92586 0.0
H2606 H 0.18109 0.42651 0.89781 0.0
H2607 H 0.1694 0.34028 0.88499 0.0
H2608 H 0.18469 0.30953 0.80689 0.0
H2609 H 0.19028 0.31611 0.83507 0.0
H2610 H 0.21446 0.40199 0.85052 0.0
C2611 C 0.18365 0.40953 0.90618 0.0
C2612 C 0.17947 0.35365 0.87756 0.0
C2613 C 0.18005 0.41462 0.92218 0.0
C2614 C 0.18637 0.33081 0.81145 0.0
C2615 C 0.18947 0.33462 0.82759 0.0
C2616 C 0.20446 0.38844 0.85788 0.0
C2617 C 0.1896 0.38242 0.90098 0.0
C2618 C 0.19128 0.37632 0.884 0.0
C2619 C 0.19118 0.36197 0.83399 0.0
C2620 C 0.19214 0.36619 0.85131 0.0
H2621 H 0.19147 0.34861 0.93625 0.0
H2622 H 0.19729 0.3397 0.90825 0.0
H2623 H 0.21325 0.41108 0.87887 0.0
H2624 H 0.18715 0.39996 0.80006 0.0
H2625 H 0.1916 0.40673 0.82828 0.0
C2626 C 0.5796 0.33896 0.92345 0.0
C2627 C 0.57683 0.36083 0.93449 0.0
C2628 C 0.57633 0.34405 0.90741 0.0
C2629 C 0.58072 0.39984 0.87867 0.0
H2630 H 0.5457 0.3514 0.85168 0.0
C2631 C 0.57338 0.42271 0.81256 0.0
C2632 C 0.57431 0.39932 0.8024 0.0
C2633 C 0.57044 0.41886 0.82872 0.0
C2634 C 0.55572 0.36496 0.85902 0.0
H2635 H 0.56817 0.40505 0.93742 0.0
H2636 H 0.56292 0.41397 0.90935 0.0
H2637 H 0.54699 0.34237 0.88002 0.0
H2638 H 0.57247 0.35361 0.80108 0.0
H2639 H 0.56828 0.34677 0.82932 0.0
H2640 H 0.5904 0.42166 0.85783 0.0
C2641 C 0.56748 0.39292 0.91317 0.0
C2642 C 0.55635 0.35984 0.87523 0.0
C2643 C 0.57042 0.38775 0.9292 0.0
C2644 C 0.57171 0.37205 0.80864 0.0
C2645 C 0.56916 0.36816 0.82483 0.0
C2646 C 0.58038 0.40471 0.86248 0.0
C2647 C 0.57056 0.37117 0.90215 0.0
C2648 C 0.56895 0.37717 0.88514 0.0
C2649 C 0.56879 0.3915 0.8351 0.0
C2650 C 0.56798 0.38724 0.85243 0.0
H2651 H 0.58442 0.31797 0.92719 0.0
H2652 H 0.57895 0.32702 0.89908 0.0
H2653 H 0.59078 0.41326 0.8861 0.0
H2654 H 0.57504 0.44401 0.80803 0.0
H2655 H 0.56971 0.43735 0.83622 0.0
C2656 C 0.12271 0.9656 0.97755 0.0
C2657 C 0.11557 0.95396 0.99187 0.0
C2658 C 0.13639 0.98947 0.97745 0.0
C2659 C 0.17752 0.02168 0.00379 0.0
H2660 H 0.18334 0.07781 0.97076 0.0
C2661 C 0.24944 0.09788 0.00597 0.0
C2662 C 0.26153 0.10055 0.99197 0.0
C2663 C 0.22811 0.08708 0.00573 0.0
C2664 C 0.18193 0.06224 0.98006 0.0
H2665 H 0.11578 0.95887 0.01719 0.0
H2666 H 0.13859 1.00128 0.01709 0.0
H2667 H 0.15154 0.04598 0.9709 0.0
H2668 H 0.26043 0.09567 0.96663 0.0
H2669 H 0.22314 0.07611 0.96616 0.0
H2670 H 0.20799 0.03697 0.01272 0.0
C2671 C 0.13424 0.99175 0.00591 0.0
C2672 C 0.16371 0.04399 0.98015 0.0
C2673 C 0.12088 0.96771 0.00599 0.0
C2674 C 0.25129 0.09422 0.97756 0.0
C2675 C 0.22995 0.08291 0.97733 0.0
C2676 C 0.19558 0.03981 0.00371 0.0
C2677 C 0.14313 0.0021 0.9917 0.0
C2678 C 0.16133 0.02334 0.992 0.0
C2679 C 0.21851 0.07797 0.99151 0.0
C2680 C 0.19816 0.06029 0.99184 0.0
H2681 H 0.1192 0.95492 0.96653 0.0
H2682 H 0.14297 0.99665 0.96629 0.0
H2683 H 0.17675 0.00558 0.01284 0.0
H2684 H 0.257 0.10258 0.01723 0.0
H2685 H 0.21959 0.08437 0.01683 0.0
C2686 C 0.13558 0.28995 0.97685 0.0
C2687 C 0.14194 0.30135 0.99143 0.0
C2688 C 0.12145 0.26651 0.97622 0.0
C2689 C 0.07835 0.23472 0.00123 0.0
H2690 H 0.07384 0.17895 0.96788 0.0
C2691 C 0.00736 0.15706 0.00219 0.0
C2692 C 0.99536 0.15463 0.98813 0.0
C2693 C 0.02853 0.16837 0.00215 0.0
C2694 C 0.07489 0.19442 0.97726 0.0
H2695 H 0.1399 0.29634 0.01671 0.0
H2696 H 0.11642 0.25461 0.01571 0.0
H2697 H 0.1057 0.21068 0.96886 0.0
H2698 H 0.99651 0.16051 0.96286 0.0
H2699 H 0.03361 0.18086 0.96275 0.0
H2700 H 0.04755 0.21925 0.00947 0.0
C2701 C 0.12163 0.26409 0.00471 0.0
C2702 C 0.09314 0.21263 0.97782 0.0
C2703 C 0.13538 0.28772 0.00532 0.0
C2704 C 0.00558 0.16176 0.97383 0.0
C2705 C 0.02679 0.17352 0.9738 0.0
C2706 C 0.0603 0.21658 0.0007 0.0
C2707 C 0.11352 0.25403 0.99019 0.0
C2708 C 0.09508 0.2331 0.98983 0.0
C2709 C 0.03809 0.17817 0.98808 0.0
C2710 C 0.05824 0.19619 0.98873 0.0
H2711 H 0.14006 0.30052 0.96599 0.0
H2712 H 0.11553 0.25955 0.96482 0.0
H2713 H 0.07874 0.2507 0.01036 0.0
H2714 H 0.99982 0.15176 0.01338 0.0
H2715 H 0.03694 0.1709 0.01332 0.0
C2716 C 0.25913 0.18474 0.26101 0.0
C2717 C 0.26476 0.16109 0.2519 0.0
C2718 C 0.23743 0.19413 0.26178 0.0
C2719 C 0.1883 0.19621 0.23717 0.0
H2720 H 0.16505 0.23727 0.27304 0.0
C2721 C 0.13702 0.29647 0.23093 0.0
C2722 C 0.12128 0.30391 0.24231 0.0
C2723 C 0.14906 0.27151 0.23231 0.0
C2724 C 0.17094 0.22545 0.26296 0.0
H2725 H 0.25214 0.12805 0.23679 0.0
H2726 H 0.21382 0.1445 0.23806 0.0
H2727 H 0.19648 0.20599 0.27653 0.0
H2728 H 0.10499 0.29025 0.26366 0.0
H2729 H 0.12628 0.24631 0.26619 0.0
H2730 H 0.16319 0.21637 0.22351 0.0
C2731 C 0.22626 0.15571 0.24471 0.0
C2732 C 0.18916 0.20772 0.26493 0.0
C2733 C 0.2481 0.1461 0.24409 0.0
C2734 C 0.1169 0.28494 0.25465 0.0
C2735 C 0.12924 0.25995 0.25617 0.0
C2736 C 0.17008 0.21394 0.2352 0.0
C2737 C 0.22077 0.18032 0.25325 0.0
C2738 C 0.19865 0.19379 0.25193 0.0
C2739 C 0.14589 0.25333 0.24521 0.0
C2740 C 0.16174 0.22972 0.24794 0.0
H2741 H 0.27177 0.19686 0.26695 0.0
H2742 H 0.23403 0.21336 0.26826 0.0
H2743 H 0.19514 0.18593 0.22687 0.0
H2744 H 0.14075 0.31067 0.22128 0.0
H2745 H 0.16186 0.26744 0.22374 0.0
C2746 C 0.00962 0.09633 0.25772 0.0
C2747 C 0.99792 0.09259 0.24359 0.0
C2748 C 0.03162 0.08749 0.25886 0.0
C2749 C 0.07951 0.06277 0.2348 0.0
H2750 H 0.0898 0.01123 0.26953 0.0
C2751 C 0.13094 0.96252 0.2293 0.0
C2752 C 0.14308 0.95229 0.24216 0.0
C2753 C 0.11873 0.98738 0.23058 0.0
C2754 C 0.08752 0.02604 0.25994 0.0
H2755 H 1.0004 0.07862 0.21934 0.0
H2756 H 0.03843 0.06376 0.22119 0.0
H2757 H 0.05768 0.04203 0.26993 0.0
H2758 H 0.15269 0.96057 0.26628 0.0
H2759 H 0.13094 0.0042 0.26865 0.0
H2760 H 0.10865 0.04558 0.22439 0.0
C2761 C 0.03091 0.07338 0.23144 0.0
C2762 C 0.06906 0.04376 0.26017 0.0
C2763 C 0.00901 0.08179 0.23038 0.0
C2764 C 0.14373 0.96826 0.25612 0.0
C2765 C 0.13111 0.99302 0.25751 0.0
C2766 C 0.09789 0.04503 0.23455 0.0
C2767 C 0.04234 0.07523 0.24581 0.0
C2768 C 0.06433 0.06149 0.24729 0.0
C2769 C 0.118 0.00243 0.24486 0.0
C2770 C 0.10164 0.02563 0.24681 0.0
H2771 H 1.0014 0.10435 0.26812 0.0
H2772 H 0.03999 0.08937 0.27007 0.0
H2773 H 0.07663 0.07658 0.22483 0.0
H2774 H 0.13 0.95045 0.21846 0.0
H2775 H 0.10867 0.99372 0.22066 0.0
C2776 C 0.75642 0.91328 0.01437 0.0
C2777 C 0.74622 0.90468 0.00035 0.0
C2778 C 0.77783 0.92383 0.01421 0.0
C2779 C 0.82707 0.93832 0.98869 0.0
H2780 H 0.83051 0.00461 0.01543 0.0
C2781 C 0.88642 0.03425 0.97994 0.0
C2782 C 0.89284 0.04892 -0.00642 0.0
C2783 C 0.87291 0.01027 0.98112 0.0
C2784 C 0.83014 0.98587 0.00809 0.0
H2785 H 0.75074 0.89883 0.97526 0.0
H2786 H 0.78794 0.91834 0.97478 0.0
H2787 H 0.79875 0.97431 0.01699 0.0
H2788 H 0.89206 0.04882 0.01906 0.0
H2789 H 0.86943 0.00651 0.0212 0.0
H2790 H 0.85834 0.95121 0.97931 0.0
C2791 C 0.7797 0.91627 0.98603 0.0
C2792 C 0.81182 0.96831 0.00902 0.0
C2793 C 0.75836 0.90503 0.98628 0.0
C2794 C 0.88738 0.03778 0.00838 0.0
C2795 C 0.8742 0.01374 0.00958 0.0
C2796 C 0.84548 0.95617 0.98768 0.0
C2797 C 0.78935 0.92697 -9e-05 0.0
C2798 C 0.80991 0.94427 -0.00065 0.0
C2799 C 0.86574 1.00066 -0.00402 0.0
C2800 C 0.8472 0.98019 -0.0026 0.0
H2801 H 0.74742 0.91311 0.02539 0.0
H2802 H 0.78493 0.9309 0.02523 0.0
H2803 H 0.82625 0.91997 0.98109 0.0
H2804 H 0.89013 0.04275 0.96839 0.0
H2805 H 0.86666 1.00074 0.97041 0.0
C2806 C 0.99867 0.84769 0.98606 0.0
C2807 C 0.01142 0.84749 -0.00014 0.0
C2808 C 0.9774 0.83625 0.9861 0.0
C2809 C 0.94675 0.78264 0.0089 0.0
H2810 H 0.8987 0.80073 0.98065 0.0
C2811 C 0.87165 0.71235 0.00892 0.0
C2812 C 0.86543 0.70201 -0.00592 0.0
C2813 C 0.88479 0.7364 0.0102 0.0
C2814 C 0.91199 0.79548 0.98861 0.0
H2815 H 0.01134 0.8379 0.02479 0.0
H2816 H 0.97395 0.8197 0.02516 0.0
H2817 H 0.93062 0.8323 0.98221 0.0
H2818 H 0.86675 0.70963 0.96896 0.0
H2819 H 0.89019 0.75167 0.97111 0.0
H2820 H 0.92867 0.74574 0.0151 0.0
C2821 C 0.98052 0.82738 0.0141 0.0
C2822 C 0.93031 0.81352 0.9895 0.0
C2823 C 1.00187 0.83816 0.01397 0.0
C2824 C 0.87107 0.71748 0.98055 0.0
C2825 C 0.88456 0.74148 0.9818 0.0
C2826 C 0.92854 0.76488 0.0081 0.0
C2827 C 0.96843 0.82479 2e-05 0.0
C2828 C 0.948 0.80724 -0.00037 0.0
C2829 C 0.89246 0.75032 -0.00338 0.0
C2830 C 0.91093 0.77091 -0.00207 0.0
H2831 H 0.00578 0.85448 0.97498 0.0
H2832 H 0.96868 0.83461 0.97502 0.0
H2833 H 0.96024 0.7764 0.01645 0.0
H2834 H 0.86755 0.7007 0.01952 0.0
H2835 H 0.89012 0.74303 0.02181 0.0
C2836 C 0.88759 0.70834 0.7259 0.0
C2837 C 0.89422 0.69867 0.74078 0.0
C2838 C 0.87457 0.73246 0.72448 0.0
C2839 C 0.84863 0.79294 0.7457 0.0
H2840 H 0.79964 0.77408 0.71848 0.0
C2841 C 0.76255 0.84653 0.74871 0.0
C2842 C 0.74957 0.84631 0.73501 0.0
C2843 C 0.78372 0.83481 0.74854 0.0
C2844 C 0.81334 0.78024 0.72585 0.0
H2845 H 0.8937 0.70745 0.7658 0.0
H2846 H 0.87043 0.7496 0.76341 0.0
H2847 H 0.8308 0.74274 0.71985 0.0
H2848 H 0.74924 0.8365 0.7101 0.0
H2849 H 0.78643 0.81768 0.70952 0.0
H2850 H 0.83059 0.83033 0.75194 0.0
C2851 C 0.87566 0.73885 0.75278 0.0
C2852 C 0.83132 0.76209 0.72666 0.0
C2853 C 0.88904 0.71478 0.75417 0.0
C2854 C 0.75885 0.83673 0.72085 0.0
C2855 C 0.78009 0.82562 0.7206 0.0
C2856 C 0.83054 0.81134 0.74483 0.0
C2857 C 0.86741 0.74712 0.73796 0.0
C2858 C 0.84919 0.76805 0.73662 0.0
C2859 C 0.79236 0.82303 0.7346 0.0
C2860 C 0.81259 0.80512 0.73491 0.0
H2861 H 0.89135 0.69619 0.7154 0.0
H2862 H 0.86899 0.73863 0.71285 0.0
H2863 H 0.86213 0.79816 0.75349 0.0
H2864 H 0.7557 0.85354 0.75983 0.0
H2865 H 0.7926 0.83318 0.75956 0.0
C2866 C 0.87102 0.03674 0.75273 0.0
C2867 C 0.86546 0.05205 0.73912 0.0
C2868 C 0.88453 0.01273 0.75161 0.0
C2869 C 0.9284 0.98818 0.72538 0.0
H2870 H 0.93009 0.92162 0.75197 0.0
C2871 C 1.0009 0.91341 0.71992 0.0
C2872 C 0.01066 0.90478 0.7341 0.0
C2873 C 0.97962 0.92443 0.71978 0.0
C2874 C 0.92988 0.94015 0.74448 0.0
H2875 H 0.86784 0.05315 0.7137 0.0
H2876 H 0.89039 0.01078 0.71164 0.0
H2877 H 0.89849 0.95372 0.75332 0.0
H2878 H 0.00534 0.89916 0.75913 0.0
H2879 H 0.96836 0.91931 0.75905 0.0
H2880 H 0.95989 0.9758 0.71698 0.0
C2881 C 0.88501 0.01754 0.72321 0.0
C2882 C 0.91175 0.95851 0.74525 0.0
C2883 C 0.87186 0.04162 0.72435 0.0
C2884 C 0.9981 0.90538 0.74799 0.0
C2885 C 0.97689 0.91701 0.74793 0.0
C2886 C 0.94642 0.97006 0.72467 0.0
C2887 C 0.89254 0.0037 0.73686 0.0
C2888 C 0.91083 0.98279 0.73569 0.0
C2889 C 0.96778 0.9279 0.73391 0.0
C2890 C 0.94752 0.94578 0.73419 0.0
H2891 H 0.86657 0.04468 0.76427 0.0
H2892 H 0.89003 0.00264 0.76236 0.0
H2893 H 0.92867 0.00708 0.71818 0.0
H2894 H 0.01019 0.91304 0.70902 0.0
H2895 H 0.97292 0.93166 0.70866 0.0
C2896 C 0.25083 0.58953 0.50366 0.0
C2897 C 0.26212 0.59943 0.49032 0.0
C2898 C 0.22913 0.58029 0.50253 0.0
C2899 C 0.19222 0.54731 0.47388 0.0
H2900 H 0.15199 0.54948 0.50929 0.0
C2901 C 0.11805 0.47075 0.47821 0.0
C2902 C 0.11874 0.4551 0.49228 0.0
C2903 C 0.13059 0.49555 0.47665 0.0
C2904 C 0.16294 0.54882 0.49923 0.0
H2905 H 0.25909 0.60884 0.46544 0.0
H2906 H 0.22085 0.59257 0.46339 0.0
H2907 H 0.18339 0.58152 0.50867 0.0
H2908 H 0.13183 0.45388 0.51598 0.0
H2909 H 0.15299 0.49729 0.5135 0.0
H2910 H 0.17217 0.51379 0.46478 0.0
C2911 C 0.22893 0.59192 0.47476 0.0
C2912 C 0.18098 0.56714 0.49888 0.0
C2913 C 0.25074 0.60153 0.47595 0.0
C2914 C 0.13088 0.46567 0.50505 0.0
C2915 C 0.14298 0.4906 0.50362 0.0
C2916 C 0.17407 0.52907 0.47419 0.0
C2917 C 0.21807 0.58044 0.48797 0.0
C2918 C 0.1964 0.56579 0.48655 0.0
C2919 C 0.14361 0.50536 0.48925 0.0
C2920 C 0.15973 0.52882 0.48719 0.0
H2921 H 0.25916 0.58763 0.51489 0.0
H2922 H 0.22153 0.57133 0.51293 0.0
H2923 H 0.20379 0.54547 0.46424 0.0
H2924 H 0.10907 0.46282 0.46811 0.0
H2925 H 0.1307 0.50651 0.46544 0.0
C2926 C 0.13605 0.78911 0.50733 0.0
C2927 C 0.14325 0.80144 0.49322 0.0
C2928 C 0.12212 0.76564 0.5071 0.0
C2929 C 0.09414 0.71203 0.48138 0.0
H2930 H 0.04718 0.72331 0.51155 0.0
C2931 C 0.0066 0.66095 0.47738 0.0
C2932 C 0.99555 0.65608 0.49167 0.0
C2933 C 0.02783 0.67268 0.4774 0.0
C2934 C 0.0603 0.71933 0.50322 0.0
H2935 H 0.14243 0.79827 0.4678 0.0
H2936 H 0.1176 0.75749 0.46729 0.0
H2937 H 0.07866 0.7543 0.51198 0.0
H2938 H 0.9986 0.65715 0.51706 0.0
H2939 H 0.03576 0.67615 0.51715 0.0
H2940 H 0.07501 0.67738 0.47235 0.0
C2941 C 0.12312 0.76544 0.47859 0.0
C2942 C 0.07851 0.73721 0.50348 0.0
C2943 C 0.13744 0.78875 0.47885 0.0
C2944 C 0.00676 0.66071 0.50589 0.0
C2945 C 0.02796 0.67195 0.50592 0.0
C2946 C 0.07575 0.69401 0.4811 0.0
C2947 C 0.11448 0.75442 0.49272 0.0
C2948 C 0.09576 0.7339 0.49261 0.0
C2949 C 0.03835 0.67953 0.49171 0.0
C2950 C 0.0586 0.69744 0.49207 0.0
H2951 H 0.14016 0.79868 0.51856 0.0
H2952 H 0.11635 0.75728 0.51824 0.0
H2953 H 0.1071 0.70879 0.47283 0.0
H2954 H 0.99817 0.65797 0.46626 0.0
H2955 H 0.03528 0.67825 0.46624 0.0
C2956 C 0.24956 0.66968 0.73161 0.0
C2957 C 0.26078 0.65947 0.74491 0.0
C2958 C 0.22781 0.67873 0.73271 0.0
C2959 C 0.19039 0.71048 0.76141 0.0
H2960 H 0.15039 0.70841 0.72585 0.0
C2961 C 0.11571 0.78612 0.75739 0.0
C2962 C 0.11627 0.802 0.74341 0.0
C2963 C 0.12839 0.76142 0.75882 0.0
C2964 C 0.16127 0.70904 0.73595 0.0
H2965 H 0.25756 0.64932 0.76969 0.0
H2966 H 0.21924 0.66527 0.77169 0.0
H2967 H 0.18211 0.67692 0.72635 0.0
H2968 H 0.1293 0.80374 0.7197 0.0
H2969 H 0.15071 0.76051 0.72195 0.0
H2970 H 0.16998 0.74345 0.77068 0.0
C2971 C 0.22743 0.66632 0.76037 0.0
C2972 C 0.17949 0.69103 0.73623 0.0
C2973 C 0.24928 0.6569 0.75921 0.0
C2974 C 0.12842 0.79174 0.73056 0.0
C2975 C 0.14068 0.76692 0.73186 0.0
C2976 C 0.17206 0.72842 0.76117 0.0
C2977 C 0.21662 0.67805 0.7472 0.0
C2978 C 0.19482 0.69235 0.74864 0.0
C2979 C 0.14146 0.75195 0.74617 0.0
C2980 C 0.15779 0.72871 0.74812 0.0
H2981 H 0.25796 0.67192 0.72042 0.0
H2982 H 0.22025 0.6879 0.72235 0.0
H2983 H 0.20188 0.71227 0.77111 0.0
H2984 H 0.10675 0.79384 0.76755 0.0
H2985 H 0.1286 0.7503 0.76998 0.0
C2986 C 0.13595 0.46018 0.75909 0.0
C2987 C 0.14414 0.44949 0.74482 0.0
C2988 C 0.12261 0.48434 0.7592 0.0
C2989 C 0.08361 0.51893 0.73242 0.0
H2990 H 0.077 0.57348 0.7662 0.0
C2991 C 0.01129 0.59475 0.73077 0.0
C2992 C 0.9993 0.5973 0.74482 0.0
C2993 C 0.03264 0.58397 0.73091 0.0
C2994 C 0.0786 0.55836 0.75669 0.0
H2995 H 0.14593 0.45613 0.71966 0.0
H2996 H 0.12344 0.49891 0.71983 0.0
H2997 H 0.10851 0.54126 0.76617 0.0
H2998 H 1.00057 0.59216 0.77013 0.0
H2999 H 0.03776 0.57248 0.77042 0.0
H3000 H 0.05352 0.53485 0.72322 0.0
C3001 C 0.12692 0.48854 0.73093 0.0
C3002 C 0.09668 0.53991 0.75666 0.0
C3003 C 0.14006 0.4643 0.73082 0.0
C3004 C 0.00962 0.59079 0.75916 0.0
C3005 C 0.03093 0.57943 0.75929 0.0
C3006 C 0.06563 0.5372 0.73247 0.0
C3007 C 0.11716 0.49812 0.74502 0.0
C3008 C 0.09931 0.51978 0.74457 0.0
C3009 C 0.04231 0.57467 0.74506 0.0
C3010 C 0.06271 0.55707 0.74464 0.0
H3011 H 0.13848 0.44866 0.76997 0.0
H3012 H 0.11528 0.49089 0.77024 0.0
H3013 H 0.08465 0.50327 0.72314 0.0
H3014 H 1.00367 0.59961 0.71955 0.0
H3015 H 0.04109 0.58148 0.71976 0.0
C3016 C 0.75868 0.42187 0.5117 0.0
C3017 C 0.74858 0.40754 0.49913 0.0
C3018 C 0.78056 0.43049 0.51067 0.0
C3019 C 0.8195 0.45439 0.48112 0.0
H3020 H 0.85833 0.46022 0.51721 0.0
C3021 C 0.89212 0.53304 0.4812 0.0
C3022 C 0.89157 0.55082 0.49446 0.0
C3023 C 0.88009 0.50767 0.4811 0.0
C3024 C 0.84777 0.45867 0.50697 0.0
H3025 H 0.75386 0.38976 0.4759 0.0
H3026 H 0.79225 0.4052 0.474 0.0
H3027 H 0.82647 0.42898 0.51837 0.0
H3028 H 0.87951 0.55511 0.51836 0.0
H3029 H 0.85897 0.51119 0.51831 0.0
H3030 H 0.84002 0.48534 0.47006 0.0
C3031 C 0.78316 0.40963 0.48468 0.0
C3032 C 0.82951 0.44074 0.50764 0.0
C3033 C 0.76125 0.40057 0.48583 0.0
C3034 C 0.88025 0.54179 0.50797 0.0
C3035 C 0.86853 0.51647 0.50795 0.0
C3036 C 0.83773 0.47243 0.48047 0.0
C3037 C 0.79287 0.42535 0.49694 0.0
C3038 C 0.81467 0.43924 0.49496 0.0
C3039 C 0.86761 0.49953 0.49435 0.0
C3040 C 0.85157 0.47569 0.49364 0.0
H3041 H 0.74934 0.42757 0.52209 0.0
H3042 H 0.78739 0.44278 0.52027 0.0
H3043 H 0.80834 0.4539 0.47119 0.0
H3044 H 0.90056 0.53962 0.47058 0.0
H3045 H 0.87986 0.495 0.47047 0.0
C3046 C 1.00061 0.34958 0.4857 0.0
C3047 C 0.01325 0.35009 0.49955 0.0
C3048 C 0.97932 0.33812 0.48584 0.0
C3049 C 0.94885 0.28523 0.50915 0.0
H3050 H 0.90019 0.30285 0.48136 0.0
C3051 C 0.8737 0.21474 0.51036 0.0
C3052 C 0.86653 0.20484 0.49565 0.0
C3053 C 0.88712 0.23859 0.51142 0.0
C3054 C 0.91365 0.29769 0.48919 0.0
H3055 H 0.01297 0.34175 0.52462 0.0
H3056 H 0.97562 0.3234 0.52511 0.0
H3057 H 0.93221 0.33434 0.48232 0.0
H3058 H 0.8665 0.21308 0.47057 0.0
H3059 H 0.89046 0.25465 0.47232 0.0
H3060 H 0.93094 0.24841 0.51575 0.0
C3061 C 0.98226 0.33062 0.51398 0.0
C3062 C 0.93202 0.31571 0.48973 0.0
C3063 C 1.00358 0.34148 0.51376 0.0
C3064 C 0.87156 0.22057 0.48208 0.0
C3065 C 0.88536 0.24431 0.4831 0.0
C3066 C 0.93063 0.26742 0.50864 0.0
C3067 C 0.97027 0.32731 0.4999 0.0
C3068 C 0.94989 0.30965 0.49973 0.0
C3069 C 0.89417 0.25273 0.49774 0.0
C3070 C 0.91276 0.27328 0.49867 0.0
H3071 H 0.00781 0.35577 0.47454 0.0
H3072 H 0.97065 0.33592 0.47477 0.0
H3073 H 0.96249 0.27919 0.51661 0.0
H3074 H 0.87005 0.20295 0.521 0.0
H3075 H 0.89307 0.24492 0.52293 0.0
C3076 C 0.76101 0.34481 0.24763 0.0
C3077 C 0.74763 0.34439 0.23413 0.0
C3078 C 0.78201 0.33257 0.24729 0.0
C3079 C 0.81032 0.27652 0.22482 0.0
H3080 H 0.86063 0.29525 0.25084 0.0
C3081 C 0.88481 0.20498 0.2231 0.0
C3082 C 0.89259 0.19579 0.23779 0.0
C3083 C 0.87147 0.22886 0.22197 0.0
C3084 C 0.84669 0.28978 0.24352 0.0
H3085 H 0.74643 0.33355 0.20937 0.0
H3086 H 0.78331 0.31379 0.20848 0.0
H3087 H 0.82908 0.32751 0.24981 0.0
H3088 H 0.89377 0.20528 0.26272 0.0
H3089 H 0.86995 0.24701 0.26085 0.0
H3090 H 0.82736 0.23872 0.21877 0.0
C3091 C 0.77742 0.32234 0.21954 0.0
C3092 C 0.82859 0.30823 0.24294 0.0
C3093 C 0.75636 0.33399 0.21997 0.0
C3094 C 0.88821 0.21221 0.25122 0.0
C3095 C 0.8745 0.23603 0.25013 0.0
C3096 C 0.82829 0.25831 0.22535 0.0
C3097 C 0.79008 0.32003 0.23338 0.0
C3098 C 0.81014 0.30179 0.23356 0.0
C3099 C 0.86513 0.24379 0.23557 0.0
C3100 C 0.84673 0.26458 0.23468 0.0
H3101 H 0.75457 0.35243 0.25876 0.0
H3102 H 0.79122 0.3312 0.25819 0.0
H3103 H 0.79622 0.27019 0.21789 0.0
H3104 H 0.88797 0.19265 0.21257 0.0
H3105 H 0.86504 0.23465 0.21051 0.0
C3106 C 0.87373 0.53983 0.22502 0.0
C3107 C 0.86702 0.54964 0.23986 0.0
C3108 C 0.88715 0.51603 0.22371 0.0
C3109 C 0.91413 0.45665 0.24535 0.0
H3110 H 0.96224 0.47501 0.21726 0.0
C3111 C 1.00081 0.4042 0.24767 0.0
C3112 C 0.01328 0.4039 0.23373 0.0
C3113 C 0.97955 0.41569 0.24773 0.0
C3114 C 0.94878 0.469 0.2249 0.0
H3115 H 0.86794 0.54147 0.26493 0.0
H3116 H 0.89188 0.49992 0.26274 0.0
H3117 H 0.93087 0.50604 0.21868 0.0
H3118 H 0.0126 0.41256 0.2087 0.0
H3119 H 0.97527 0.43098 0.20856 0.0
H3120 H 0.93266 0.41977 0.25181 0.0
C3121 C 0.8864 0.51027 0.25205 0.0
C3122 C 0.93068 0.48696 0.22573 0.0
C3123 C 0.87262 0.53399 0.25333 0.0
C3124 C 1.00339 0.41268 0.21962 0.0
C3125 C 0.98207 0.42358 0.21961 0.0
C3126 C 0.93236 0.43847 0.24447 0.0
C3127 C 0.89466 0.50185 0.23726 0.0
C3128 C 0.9131 0.48117 0.23598 0.0
C3129 C 0.97031 0.42674 0.2338 0.0
C3130 C 0.94999 0.44449 0.23423 0.0
H3131 H 0.86969 0.55164 0.21446 0.0
H3132 H 0.89271 0.50974 0.2121 0.0
H3133 H 0.90088 0.45154 0.25336 0.0
H3134 H 0.00815 0.39787 0.25875 0.0
H3135 H 0.97107 0.41775 0.25888 0.0
C3136 C 0.75902 0.06988 0.47418 0.0
C3137 C 0.76439 0.09476 0.48231 0.0
C3138 C 0.73735 0.06032 0.47352 0.0
C3139 C 0.68736 0.06166 0.49733 0.0
H3140 H 0.66493 0.01625 0.46283 0.0
C3141 C 0.63393 0.96376 0.50665 0.0
C3142 C 0.61866 0.95514 0.49518 0.0
C3143 C 0.64649 0.98815 0.50454 0.0
C3144 C 0.6706 0.02928 0.47251 0.0
H3145 H 0.75135 0.12968 0.49581 0.0
H3146 H 0.71309 0.11298 0.49471 0.0
H3147 H 0.69684 0.04644 0.45867 0.0
H3148 H 0.60373 0.96623 0.47287 0.0
H3149 H 0.62585 0.00917 0.46909 0.0
H3150 H 0.66151 0.04385 0.51129 0.0
C3151 C 0.7257 0.10092 0.48874 0.0
C3152 C 0.6891 0.0464 0.47016 0.0
C3153 C 0.74752 0.11068 0.48924 0.0
C3154 C 0.61524 0.97249 0.48197 0.0
C3155 C 0.62808 0.99689 0.47974 0.0
C3156 C 0.66887 0.04453 0.49967 0.0
C3157 C 0.72045 0.0752 0.48119 0.0
C3158 C 0.69824 0.06196 0.48271 0.0
C3159 C 0.64433 0.00454 0.49081 0.0
C3160 C 0.66076 0.02726 0.48746 0.0
H3161 H 0.77183 0.05702 0.46896 0.0
H3162 H 0.73412 0.04025 0.46783 0.0
H3163 H 0.69392 0.07324 0.50729 0.0
H3164 H 0.63696 0.9508 0.51695 0.0
H3165 H 0.65893 0.99305 0.51325 0.0
C3166 C 0.50907 0.17071 0.50402 0.0
C3167 C 0.49835 0.1596 0.49073 0.0
C3168 C 0.53078 0.17996 0.50311 0.0
C3169 C 0.56888 0.21088 0.47473 0.0
H3170 H 0.60813 0.20947 0.51073 0.0
C3171 C 0.6433 0.28698 0.4793 0.0
C3172 C 0.6426 0.30282 0.49331 0.0
C3173 C 0.63063 0.26228 0.47778 0.0
C3174 C 0.59746 0.20993 0.50051 0.0
H3175 H 0.50237 0.14824 0.46617 0.0
H3176 H 0.54062 0.1647 0.4645 0.0
H3177 H 0.57642 0.17797 0.51005 0.0
H3178 H 0.62936 0.30443 0.51697 0.0
H3179 H 0.60792 0.26128 0.51453 0.0
H3180 H 0.58944 0.24379 0.46554 0.0
C3181 C 0.53208 0.16618 0.47566 0.0
C3182 C 0.57925 0.1919 0.50013 0.0
C3183 C 0.51028 0.15651 0.47664 0.0
C3184 C 0.63031 0.29251 0.50607 0.0
C3185 C 0.61805 0.26771 0.50467 0.0
C3186 C 0.58717 0.2289 0.4751 0.0
C3187 C 0.54241 0.17865 0.48882 0.0
C3188 C 0.56421 0.19298 0.48755 0.0
C3189 C 0.61743 0.25277 0.49034 0.0
C3190 C 0.60117 0.22945 0.4883 0.0
H3191 H 0.50031 0.17338 0.51504 0.0
H3192 H 0.53799 0.18972 0.51344 0.0
H3193 H 0.5576 0.21245 0.4649 0.0
H3194 H 0.6524 0.29469 0.46921 0.0
H3195 H 0.63056 0.25117 0.46661 0.0
C3196 C 0.62063 0.29082 0.73012 0.0
C3197 C 0.61545 0.30423 0.74437 0.0
C3198 C 0.63405 0.26684 0.72996 0.0
C3199 C 0.6636 0.21379 0.75503 0.0
H3200 H 0.70814 0.2226 0.7228 0.0
C3201 C 0.75082 0.1626 0.75732 0.0
C3202 C 0.76134 0.15724 0.7429 0.0
C3203 C 0.72958 0.17422 0.75756 0.0
C3204 C 0.69566 0.21924 0.7317 0.0
H3205 H 0.61942 0.30273 0.76968 0.0
H3206 H 0.64319 0.26098 0.76949 0.0
H3207 H 0.67683 0.25387 0.72302 0.0
H3208 H 0.75743 0.15732 0.71756 0.0
H3209 H 0.72016 0.17596 0.71794 0.0
H3210 H 0.68314 0.17949 0.76394 0.0
C3211 C 0.63648 0.26843 0.75842 0.0
C3212 C 0.67757 0.23731 0.73182 0.0
C3213 C 0.62279 0.29229 0.75857 0.0
C3214 C 0.74964 0.16127 0.72883 0.0
C3215 C 0.72839 0.17233 0.72907 0.0
C3216 C 0.68182 0.19555 0.7549 0.0
C3217 C 0.64308 0.25617 0.74405 0.0
C3218 C 0.6613 0.23502 0.74351 0.0
C3219 C 0.7185 0.18041 0.74338 0.0
C3220 C 0.69817 0.19814 0.74324 0.0
H3221 H 0.61542 0.29993 0.71901 0.0
H3222 H 0.63835 0.25762 0.71869 0.0
H3223 H 0.65136 0.21134 0.76419 0.0
H3224 H 0.75966 0.16008 0.76831 0.0
H3225 H 0.72256 0.18019 0.76881 0.0
C3226 C 0.63353 0.9582 0.76275 0.0
C3227 C 0.64415 0.95005 0.74879 0.0
C3228 C 0.62013 0.98225 0.76305 0.0
C3229 C 0.58475 0.02066 0.73568 0.0
H3230 H 0.57384 0.0701 0.77129 0.0
C3231 C 0.51074 0.0943 0.73404 0.0
C3232 C 0.49793 0.09545 0.74777 0.0
C3233 C 0.53216 0.08378 0.73451 0.0
C3234 C 0.57659 0.0564 0.76126 0.0
H3235 H 0.64995 0.96095 0.72441 0.0
H3236 H 0.62693 0.00339 0.72494 0.0
H3237 H 0.60568 0.03852 0.77156 0.0
H3238 H 0.49772 0.08785 0.7729 0.0
H3239 H 0.53495 0.06847 0.77374 0.0
H3240 H 0.55534 0.03708 0.72565 0.0
C3241 C 0.62884 0.99123 0.73566 0.0
C3242 C 0.59491 0.03836 0.7614 0.0
C3243 C 0.64225 0.96718 0.73539 0.0
C3244 C 0.50741 0.08757 0.76219 0.0
C3245 C 0.52877 0.0764 0.76263 0.0
C3246 C 0.56645 0.03843 0.73558 0.0
C3247 C 0.61689 0.9984 0.74932 0.0
C3248 C 0.59906 0.02003 0.74867 0.0
C3249 C 0.5411 0.07327 0.74866 0.0
C3250 C 0.5619 0.05639 0.74842 0.0
H3251 H 0.63436 0.94486 0.77311 0.0
H3252 H 0.61105 0.98691 0.77371 0.0
H3253 H 0.58706 0.0064 0.72583 0.0
H3254 H 0.50378 0.10028 0.72277 0.0
H3255 H 0.54132 0.08263 0.72359 0.0
C3256 C 0.26116 0.90713 0.48398 0.0
C3257 C 0.24922 0.90585 0.49813 0.0
C3258 C 0.28247 0.9185 0.4838 0.0
C3259 C 0.31466 0.96944 0.50749 0.0
H3260 H 0.36102 0.9542 0.47735 0.0
C3261 C 0.39013 0.03943 0.50764 0.0
C3262 C 0.39577 0.05097 0.49297 0.0
C3263 C 0.37684 0.01543 0.50855 0.0
C3264 C 0.34821 0.95866 0.48584 0.0
H3265 H 0.25075 0.91276 0.5233 0.0
H3266 H 0.2882 0.93078 0.52321 0.0
H3267 H 0.32904 0.92271 0.47871 0.0
H3268 H 0.39313 0.04569 0.46772 0.0
H3269 H 0.36951 0.00376 0.46924 0.0
H3270 H 0.33326 0.00552 0.51442 0.0
C3271 C 0.28098 0.92432 0.51211 0.0
C3272 C 0.32985 0.94066 0.48661 0.0
C3273 C 0.25961 0.91361 0.51223 0.0
C3274 C 0.38933 0.03682 0.47917 0.0
C3275 C 0.37571 0.01289 0.48006 0.0
C3276 C 0.33292 0.98718 0.50678 0.0
C3277 C 0.29228 0.92842 0.49781 0.0
C3278 C 0.31276 0.94591 0.49743 0.0
C3279 C 0.36843 0.0028 0.49479 0.0
C3280 C 0.34993 0.98218 0.49594 0.0
H3281 H 0.25338 0.90163 0.47291 0.0
H3282 H 0.29055 0.92132 0.47254 0.0
H3283 H 0.30164 0.97491 0.51561 0.0
H3284 H 0.39477 0.05012 0.51844 0.0
H3285 H 0.372 0.00784 0.52008 0.0
C3286 C 0.3726 0.7138 0.50956 0.0
C3287 C 0.36649 0.70342 0.4947 0.0
C3288 C 0.38572 0.73788 0.51087 0.0
C3289 C 0.41281 0.79713 0.48925 0.0
H3290 H 0.46028 0.78001 0.51815 0.0
C3291 C 0.49899 0.85121 0.48809 0.0
C3292 C 0.51103 0.85183 0.50222 0.0
C3293 C 0.47785 0.83934 0.48773 0.0
C3294 C 0.44699 0.78569 0.51029 0.0
H3295 H 0.36812 0.7109 0.46958 0.0
H3296 H 0.39154 0.75296 0.4718 0.0
H3297 H 0.42925 0.74847 0.51643 0.0
H3298 H 0.50978 0.84326 0.52724 0.0
H3299 H 0.47261 0.82428 0.52687 0.0
H3300 H 0.43116 0.83423 0.48289 0.0
C3301 C 0.38582 0.74281 0.48248 0.0
C3302 C 0.42908 0.76742 0.50927 0.0
C3303 C 0.37234 0.7188 0.48118 0.0
C3304 C 0.50085 0.84295 0.51619 0.0
C3305 C 0.47964 0.8317 0.5159 0.0
C3306 C 0.43084 0.81564 0.49032 0.0
C3307 C 0.39352 0.75179 0.49733 0.0
C3308 C 0.41174 0.77277 0.49874 0.0
C3309 C 0.46833 0.82823 0.50155 0.0
C3310 C 0.44821 0.81009 0.50086 0.0
H3311 H 0.36835 0.70223 0.52015 0.0
H3312 H 0.39085 0.7446 0.52251 0.0
H3313 H 0.39974 0.80189 0.48101 0.0
H3314 H 0.50661 0.85757 0.47711 0.0
H3315 H 0.46973 0.83704 0.47646 0.0
C3316 C 0.3884 0.71752 0.25514 0.0
C3317 C 0.3943 0.70194 0.24171 0.0
C3318 C 0.37469 0.74128 0.25373 0.0
C3319 C 0.3308 0.76408 0.22712 0.0
H3320 H 0.3284 0.83183 0.25276 0.0
C3321 C 0.25768 0.83755 0.22043 0.0
C3322 C 0.24788 0.84696 0.23444 0.0
C3323 C 0.279 0.82668 0.22051 0.0
C3324 C 0.3288 0.81296 0.24554 0.0
H3325 H 0.39225 0.70002 0.21629 0.0
H3326 H 0.36928 0.74194 0.2137 0.0
H3327 H 0.3603 0.80031 0.25462 0.0
H3328 H 0.2531 0.85406 0.25937 0.0
H3329 H 0.29016 0.83411 0.25969 0.0
H3330 H 0.29921 0.77553 0.21851 0.0
C3331 C 0.37461 0.73563 0.22537 0.0
C3332 C 0.34711 0.79494 0.2466 0.0
C3333 C 0.38798 0.71182 0.2268 0.0
C3334 C 0.26039 0.8472 0.24836 0.0
C3335 C 0.28164 0.83571 0.24853 0.0
C3336 C 0.3126 0.78185 0.22613 0.0
C3337 C 0.36679 0.74974 0.23884 0.0
C3338 C 0.34829 0.77025 0.23737 0.0
C3339 C 0.29084 0.82413 0.23471 0.0
C3340 C 0.31124 0.80656 0.23531 0.0
H3341 H 0.39277 0.70997 0.26678 0.0
H3342 H 0.36895 0.7516 0.26435 0.0
H3343 H 0.33076 0.74486 0.22018 0.0
H3344 H 0.24843 0.83728 0.20952 0.0
H3345 H 0.28576 0.81891 0.20953 0.0
C3346 C 0.5024 0.92093 0.22478 0.0
C3347 C 0.5113 0.90587 0.23755 0.0
C3348 C 0.48073 0.93052 0.22516 0.0
C3349 C 0.44006 0.95449 0.25374 0.0
H3350 H 0.40456 0.96473 0.21623 0.0
C3351 C 0.36772 0.03384 0.2527 0.0
C3352 C 0.36946 0.05303 0.24012 0.0
C3353 C 0.3799 0.0086 0.2526 0.0
C3354 C 0.4142 0.96195 0.22685 0.0
H3355 H 0.504 0.8877 0.2604 0.0
H3356 H 0.46593 0.90465 0.26111 0.0
H3357 H 0.43579 0.93242 0.21562 0.0
H3358 H 0.38395 0.05995 0.21712 0.0
H3359 H 0.40474 0.01618 0.21681 0.0
H3360 H 0.41913 0.98508 0.26474 0.0
C3361 C 0.47585 0.90904 0.2508 0.0
C3362 C 0.43211 0.94343 0.2265 0.0
C3363 C 0.49757 0.89909 0.25033 0.0
C3364 C 0.38228 0.04558 0.227 0.0
C3365 C 0.39414 0.02035 0.22679 0.0
C3366 C 0.42213 0.97305 0.25409 0.0
C3367 C 0.46737 0.92556 0.23839 0.0
C3368 C 0.44579 0.9403 0.23975 0.0
C3369 C 0.39371 0.00194 0.23979 0.0
C3370 C 0.4095 0.97784 0.24046 0.0
H3371 H 0.51255 0.92649 0.21476 0.0
H3372 H 0.47491 0.94338 0.21546 0.0
H3373 H 0.45031 0.9528 0.26413 0.0
H3374 H 0.35811 0.03914 0.26303 0.0
H3375 H 0.37909 0.99477 0.26275 0.0
C3376 C 0.62035 0.46475 0.97971 0.0
C3377 C 0.6148 0.45226 -0.00582 0.0
C3378 C 0.63451 0.48818 0.97924 0.0
C3379 C 0.67921 0.51724 0.00375 0.0
H3380 H 0.68241 0.57591 0.97194 0.0
C3381 C 0.75128 0.59316 0.00472 0.0
C3382 C 0.76234 0.59683 0.99036 0.0
C3383 C 0.72997 0.58231 0.00504 0.0
C3384 C 0.68173 0.55961 0.98088 0.0
H3385 H 0.61814 0.45549 0.01948 0.0
H3386 H 0.64164 0.49718 0.01881 0.0
H3387 H 0.65027 0.54463 0.97296 0.0
H3388 H 0.75941 0.59367 0.96501 0.0
H3389 H 0.7221 0.57404 0.96552 0.0
H3390 H 0.71065 0.53136 0.01147 0.0
C3391 C 0.63582 0.48854 0.00775 0.0
C3392 C 0.66332 0.54167 0.98147 0.0
C3393 C 0.62207 0.46491 0.00818 0.0
C3394 C 0.75108 0.59142 0.97622 0.0
C3395 C 0.72974 0.58008 0.97654 0.0
C3396 C 0.69742 0.53507 0.00319 0.0
C3397 C 0.64322 0.49956 -0.00673 0.0
C3398 C 0.66185 0.52019 -0.00707 0.0
C3399 C 0.71935 0.57418 0.99102 0.0
C3400 C 0.69902 0.55651 0.99177 0.0
H3401 H 0.61529 0.45498 0.96874 0.0
H3402 H 0.63986 0.49596 0.96787 0.0
H3403 H 0.67917 0.50045 0.01242 0.0
H3404 H 0.75964 0.59714 0.01578 0.0
H3405 H 0.72227 0.5788 0.01638 0.0
C3406 C 0.50757 0.66816 0.00448 0.0
C3407 C 0.49645 0.65793 0.99113 0.0
C3408 C 0.52945 0.67672 0.00351 0.0
C3409 C 0.56755 0.70769 0.9752 0.0
H3410 H 0.60741 0.70377 0.01079 0.0
C3411 C 0.64244 0.78256 0.98005 0.0
C3412 C 0.6421 0.79774 -0.00572 0.0
C3413 C 0.62974 0.75793 0.97834 0.0
C3414 C 0.59657 0.70493 0.00069 0.0
H3415 H 0.4999 0.64738 0.96642 0.0
H3416 H 0.53843 0.66264 0.96465 0.0
H3417 H 0.57522 0.67307 0.00999 0.0
H3418 H 0.62957 0.79818 0.01815 0.0
H3419 H 0.60807 0.75517 0.01539 0.0
H3420 H 0.58837 0.74052 0.96627 0.0
C3421 C 0.53008 0.66396 0.97589 0.0
C3422 C 0.57809 0.68736 0.00023 0.0
C3423 C 0.50811 0.65497 0.97693 0.0
C3424 C 0.63024 0.78677 0.00708 0.0
C3425 C 0.61794 0.76204 0.00548 0.0
C3426 C 0.58609 0.72525 0.97564 0.0
C3427 C 0.54084 0.67559 0.98911 0.0
C3428 C 0.56284 0.68935 0.98782 0.0
C3429 C 0.61685 0.74785 0.99094 0.0
C3430 C 0.60032 0.7249 0.98871 0.0
H3431 H 0.49903 0.67069 0.0156 0.0
H3432 H 0.53701 0.68585 0.0139 0.0
H3433 H 0.55611 0.70997 0.96551 0.0
H3434 H 0.6512 0.7908 0.96993 0.0
H3435 H 0.62933 0.74739 0.96701 0.0
C3436 C 0.62146 0.78605 0.26061 0.0
C3437 C 0.61407 0.79721 0.24622 0.0
C3438 C 0.63532 0.76233 0.26085 0.0
C3439 C 0.67634 0.72988 0.23448 0.0
H3440 H 0.68311 0.67462 0.26786 0.0
C3441 C 0.74837 0.65374 0.23202 0.0
C3442 C 0.76074 0.65111 0.2459 0.0
C3443 C 0.72709 0.66472 0.23243 0.0
C3444 C 0.68144 0.68996 0.25847 0.0
H3445 H 0.61397 0.79145 0.22095 0.0
H3446 H 0.63702 0.74929 0.22132 0.0
H3447 H 0.65114 0.70618 0.2678 0.0
H3448 H 0.76016 0.65634 0.27123 0.0
H3449 H 0.72297 0.6762 0.27199 0.0
H3450 H 0.7067 0.71464 0.22536 0.0
C3451 C 0.63277 0.75912 0.23244 0.0
C3452 C 0.66311 0.70805 0.25842 0.0
C3453 C 0.61925 0.783 0.23221 0.0
C3454 C 0.75082 0.65774 0.26039 0.0
C3455 C 0.72953 0.66922 0.26079 0.0
C3456 C 0.6945 0.71192 0.23452 0.0
C3457 C 0.64197 0.74935 0.24667 0.0
C3458 C 0.66037 0.72836 0.24643 0.0
C3459 C 0.71781 0.67406 0.2467 0.0
C3460 C 0.69743 0.69173 0.24651 0.0
H3461 H 0.6181 0.79708 0.27154 0.0
H3462 H 0.64211 0.75558 0.27202 0.0
H3463 H 0.6753 0.74574 0.22531 0.0
H3464 H 0.75568 0.64883 0.2207 0.0
H3465 H 0.71837 0.66732 0.2214 0.0
C3466 C 0.63885 0.46558 0.25786 0.0
C3467 C 0.64555 0.45342 0.24356 0.0
C3468 C 0.62534 0.48961 0.25792 0.0
C3469 C 0.58362 0.52113 0.23189 0.0
H3470 H 0.57892 0.57843 0.26439 0.0
C3471 C 0.51153 0.59714 0.23022 0.0
C3472 C 0.50003 0.60052 0.24443 0.0
C3473 C 0.53285 0.58632 0.23016 0.0
C3474 C 0.58001 0.56254 0.25524 0.0
H3475 H 0.64472 0.45756 0.2182 0.0
H3476 H 0.6222 0.50023 0.21822 0.0
H3477 H 0.61067 0.54654 0.26407 0.0
H3478 H 0.50222 0.59688 0.2698 0.0
H3479 H 0.53947 0.57722 0.26974 0.0
H3480 H 0.55287 0.53611 0.22331 0.0
C3481 C 0.62679 0.491 0.22942 0.0
C3482 C 0.59821 0.54425 0.25505 0.0
C3483 C 0.63999 0.46683 0.22938 0.0
C3484 C 0.51088 0.59486 0.2587 0.0
C3485 C 0.5322 0.5835 0.25863 0.0
C3486 C 0.56557 0.53927 0.23207 0.0
C3487 C 0.61832 0.50186 0.24364 0.0
C3488 C 0.60018 0.52317 0.24339 0.0
C3489 C 0.54304 0.57786 0.24428 0.0
C3490 C 0.56338 0.56017 0.24377 0.0
H3491 H 0.64252 0.45517 0.26893 0.0
H3492 H 0.61908 0.49719 0.26909 0.0
H3493 H 0.58408 0.50471 0.223 0.0
H3494 H 0.50351 0.60135 0.21906 0.0
H3495 H 0.54089 0.58309 0.21891 0.0
C3496 C 0.38714 0.54164 0.00907 0.0
C3497 C 0.39319 0.55254 -0.00567 0.0
C3498 C 0.37418 0.51739 0.01012 0.0
C3499 C 0.3472 0.45881 0.98781 0.0
H3500 H 0.29945 0.47537 0.01656 0.0
C3501 C 0.26074 0.40589 0.98524 0.0
C3502 C 0.24841 0.40499 -0.00078 0.0
C3503 C 0.28199 0.41743 0.98525 0.0
C3504 C 0.31282 0.46983 0.00873 0.0
H3505 H 0.3917 0.54579 0.96913 0.0
H3506 H 0.36854 0.50346 0.97089 0.0
H3507 H 0.33064 0.50669 0.0154 0.0
H3508 H 0.2492 0.4127 0.02434 0.0
H3509 H 0.28655 0.43107 0.0246 0.0
H3510 H 0.32876 0.42209 0.98091 0.0
C3511 C 0.37418 0.51332 0.98168 0.0
C3512 C 0.33082 0.48797 0.00805 0.0
C3513 C 0.38751 0.5375 0.98064 0.0
C3514 C 0.25837 0.41325 0.0134 0.0
C3515 C 0.27968 0.42414 0.01348 0.0
C3516 C 0.32909 0.44042 0.98856 0.0
C3517 C 0.36648 0.50385 -0.00358 0.0
C3518 C 0.34825 0.48285 -0.00243 0.0
C3519 C 0.29132 0.42792 -0.00071 0.0
C3520 C 0.31159 0.44579 -0.00099 0.0
H3521 H 0.39127 0.55295 0.01978 0.0
H3522 H 0.36904 0.51028 0.02168 0.0
H3523 H 0.36035 0.45425 0.97961 0.0
H3524 H 0.2533 0.39999 0.97411 0.0
H3525 H 0.29037 0.41999 0.97409 0.0
C3526 C 0.4963 0.35456 0.98601 0.0
C3527 C 0.50886 0.34791 -0.00059 0.0
C3528 C 0.47445 0.34532 0.98479 0.0
C3529 C 0.428 0.31426 0.00759 0.0
H3530 H 0.41843 0.26844 0.97031 0.0
C3531 C 0.37816 0.21257 0.00846 0.0
C3532 C 0.36694 0.20306 -0.005 0.0
C3533 C 0.38976 0.23797 0.00826 0.0
C3534 C 0.42045 0.28168 0.98063 0.0
H3535 H 0.50797 0.32834 0.02248 0.0
H3536 H 0.46998 0.31285 0.02053 0.0
H3537 H 0.44982 0.30037 0.97142 0.0
H3538 H 0.35806 0.21346 0.97099 0.0
H3539 H 0.3786 0.25821 0.97054 0.0
H3540 H 0.39922 0.29464 0.01709 0.0
C3541 C 0.47686 0.325 0.0109 0.0
C3542 C 0.43851 0.30001 0.98127 0.0
C3543 C 0.4987 0.33379 0.01201 0.0
C3544 C 0.36644 0.2204 0.98157 0.0
C3545 C 0.37837 0.24585 0.98128 0.0
C3546 C 0.40992 0.29605 0.00692 0.0
C3547 C 0.46469 0.32977 -0.00293 0.0
C3548 C 0.44301 0.31559 -0.00498 0.0
C3549 C 0.39066 0.25452 -0.00548 0.0
C3550 C 0.40647 0.2786 -0.00629 0.0
H3551 H 0.50375 0.36521 0.97605 0.0
H3552 H 0.46545 0.34945 0.97402 0.0
H3553 H 0.4308 0.32636 0.01824 0.0
H3554 H 0.37883 0.19963 0.019 0.0
H3555 H 0.3992 0.24365 0.01861 0.0
C3556 C 0.38798 0.21532 0.75719 0.0
C3557 C 0.39535 0.20103 0.74368 0.0
C3558 C 0.37461 0.23937 0.7557 0.0
C3559 C 0.33325 0.26363 0.72787 0.0
H3560 H 0.32851 0.33019 0.75427 0.0
C3561 C 0.25887 0.33516 0.7206 0.0
C3562 C 0.24879 0.34463 0.7345 0.0
C3563 C 0.28029 0.3246 0.72089 0.0
C3564 C 0.32952 0.31164 0.74684 0.0
H3565 H 0.39626 0.2017 0.7182 0.0
H3566 H 0.37369 0.24401 0.71559 0.0
H3567 H 0.36055 0.29911 0.7568 0.0
H3568 H 0.25358 0.35198 0.75945 0.0
H3569 H 0.29065 0.3324 0.76017 0.0
H3570 H 0.30203 0.27468 0.71848 0.0
C3571 C 0.37778 0.23656 0.7273 0.0
C3572 C 0.34794 0.29391 0.74827 0.0
C3573 C 0.39091 0.21254 0.72878 0.0
C3574 C 0.26106 0.34506 0.74852 0.0
C3575 C 0.28236 0.3338 0.74891 0.0
C3576 C 0.31487 0.28102 0.72657 0.0
C3577 C 0.36845 0.24932 0.74069 0.0
C3578 C 0.34996 0.26967 0.73879 0.0
C3579 C 0.29193 0.32232 0.7352 0.0
C3580 C 0.31261 0.30528 0.73604 0.0
H3581 H 0.39085 0.20648 0.76878 0.0
H3582 H 0.36763 0.24866 0.76624 0.0
H3583 H 0.33394 0.24473 0.72067 0.0
H3584 H 0.24982 0.33478 0.7096 0.0
H3585 H 0.28732 0.31697 0.70997 0.0
C3586 C 0.49847 0.409 0.74883 0.0
C3587 C 0.51105 0.40899 0.73494 0.0
C3588 C 0.47731 0.42077 0.74893 0.0
C3589 C 0.44668 0.47475 0.72634 0.0
H3590 H 0.39898 0.45717 0.75497 0.0
C3591 C 0.37169 0.54551 0.72687 0.0
C3592 C 0.36557 0.55575 0.74175 0.0
C3593 C 0.3849 0.52154 0.72551 0.0
C3594 C 0.41218 0.46229 0.74691 0.0
H3595 H 0.51065 0.4185 0.71 0.0
H3596 H 0.47346 0.43736 0.7099 0.0
H3597 H 0.43067 0.42528 0.75317 0.0
H3598 H 0.36727 0.54816 0.76686 0.0
H3599 H 0.39079 0.50622 0.76455 0.0
H3600 H 0.42872 0.51183 0.72027 0.0
C3601 C 0.48012 0.42959 0.72091 0.0
C3602 C 0.43036 0.44406 0.74588 0.0
C3603 C 0.50136 0.41843 0.7209 0.0
C3604 C 0.37148 0.54034 0.75524 0.0
C3605 C 0.38502 0.51641 0.7539 0.0
C3606 C 0.42859 0.49271 0.72728 0.0
C3607 C 0.46825 0.43237 0.73508 0.0
C3608 C 0.44793 0.45015 0.73561 0.0
C3609 C 0.39275 0.5076 0.73903 0.0
C3610 C 0.41111 0.48687 0.73759 0.0
H3611 H 0.50564 0.40212 0.75987 0.0
H3612 H 0.46876 0.42254 0.76007 0.0
H3613 H 0.46008 0.48083 0.71867 0.0
H3614 H 0.36742 0.55716 0.71631 0.0
H3615 H 0.39011 0.51496 0.71386 0.0
loop_
_geom_bond_atom_site_label_1
_geom_bond_atom_site_label_2
_geom_bond_distance
_geom_bond_site_symmetry_2
_ccdc_geom_bond_type
O0 Zn1 1.953 . S
O0 C16 1.170 1_556 S
Zn1 O0 1.953 . S
Zn1 O2 1.930 1_556 S
Zn1 O8 1.919 . S
Zn1 O13 1.924 . S
O2 Zn1 1.930 1_554 S
O2 Zn3 1.909 1_554 S
O2 Zn4 1.970 . S
O2 Zn5 1.957 . S
Zn3 O2 1.909 1_556 S
Zn3 O6 1.933 . S
Zn3 O9 1.941 . S
Zn3 O10 1.965 . S
Zn4 O2 1.970 . S
Zn4 O11 1.938 . S
Zn4 O12 1.906 . S
Zn4 O22 1.953 . S
Zn5 O2 1.957 . S
Zn5 O7 1.932 . S
Zn5 O14 1.977 . S
Zn5 O15 1.910 . S
O6 Zn3 1.933 . S
O6 C17 1.226 . S
O7 Zn5 1.932 . S
O7 C17 1.307 1_554 S
O8 Zn1 1.919 . S
O8 C19 1.253 . S
O9 Zn3 1.941 . S
O9 C19 1.283 . S
O10 Zn3 1.965 . S
O10 C18 1.303 1_556 S
O11 Zn4 1.938 . S
O11 C18 1.247 . S
O12 Zn4 1.906 . S
O12 C20 1.304 . S
O13 Zn1 1.924 . S
O13 C21 1.286 1_556 S
O14 Zn5 1.977 . S
O14 C20 1.272 . S
O15 Zn5 1.910 . S
O15 C21 1.250 . S
C16 O0 1.170 1_554 S
C16 O22 1.355 . S
C17 O6 1.226 . S
C17 O7 1.307 1_556 S
C18 O10 1.303 1_554 S
C18 O11 1.247 . S
C19 O8 1.253 . S
C19 O9 1.283 . S
C20 O12 1.304 . S
C20 O14 1.272 . S
C21 O13 1.286 1_554 S
C21 O15 1.250 . S
O22 Zn4 1.953 . S
O22 C16 1.355 . S
O23 Zn24 1.953 . S
O23 C39 1.170 1_556 S
Zn24 O23 1.953 . S
Zn24 O25 1.930 1_556 S
Zn24 O31 1.919 . S
Zn24 O36 1.924 . S
O25 Zn24 1.930 1_554 S
O25 Zn26 1.909 1_554 S
O25 Zn27 1.970 . S
O25 Zn28 1.957 . S
Zn26 O25 1.909 1_556 S
Zn26 O29 1.933 . S
Zn26 O32 1.941 . S
Zn26 O33 1.965 . S
Zn27 O25 1.970 . S
Zn27 O34 1.938 . S
Zn27 O35 1.906 . S
Zn27 O45 1.953 . S
Zn28 O25 1.957 . S
Zn28 O30 1.932 . S
Zn28 O37 1.977 . S
Zn28 O38 1.910 . S
O29 Zn26 1.933 . S
O29 C40 1.226 . S
O30 Zn28 1.932 . S
O30 C40 1.307 1_554 S
O31 Zn24 1.919 . S
O31 C42 1.253 . S
O32 Zn26 1.941 . S
O32 C42 1.283 . S
O33 Zn26 1.965 . S
O33 C41 1.303 1_556 S
O34 Zn27 1.938 . S
O34 C41 1.247 . S
O35 Zn27 1.906 . S
O35 C43 1.304 . S
O36 Zn24 1.924 . S
O36 C44 1.286 1_556 S
O37 Zn28 1.977 . S
O37 C43 1.272 . S
O38 Zn28 1.910 . S
O38 C44 1.250 . S
C39 O23 1.170 1_554 S
C39 O45 1.355 . S
C40 O29 1.226 . S
C40 O30 1.307 1_556 S
C41 O33 1.303 1_554 S
C41 O34 1.247 . S
C42 O31 1.253 . S
C42 O32 1.283 . S
C43 O35 1.304 . S
C43 O37 1.272 . S
C44 O36 1.286 1_554 S
C44 O38 1.250 . S
O45 Zn27 1.953 . S
O45 C39 1.355 . S
O46 Zn47 1.953 . S
O46 C62 1.225 . S
Zn47 O46 1.953 . S
Zn47 O48 1.949 . S
Zn47 O54 1.919 . S
Zn47 O59 1.924 . S
O48 Zn47 1.949 . S
O48 Zn49 1.923 . S
O48 Zn50 1.950 . S
O48 Zn51 1.945 . S
Zn49 O48 1.923 . S
Zn49 O52 1.933 . S
Zn49 O55 1.941 . S
Zn49 O56 1.965 . S
Zn50 O48 1.950 . S
Zn50 O57 1.938 . S
Zn50 O58 1.906 . S
Zn50 O68 1.953 . S
Zn51 O48 1.945 . S
Zn51 O53 1.932 . S
Zn51 O60 1.977 . S
Zn51 O61 1.910 . S
O52 Zn49 1.933 . S
O52 C63 1.226 . S
O53 Zn51 1.932 . S
O53 C63 1.307 . S
O54 Zn47 1.919 . S
O54 C65 1.253 . S
O55 Zn49 1.941 . S
O55 C65 1.283 . S
O56 Zn49 1.965 . S
O56 C64 1.303 . S
O57 Zn50 1.938 . S
O57 C64 1.247 . S
O58 Zn50 1.906 . S
O58 C66 1.304 . S
O59 Zn47 1.924 . S
O59 C67 1.311 . S
O60 Zn51 1.977 . S
O60 C66 1.272 . S
O61 Zn51 1.910 . S
O61 C67 1.231 . S
C62 O46 1.225 . S
C62 O68 1.298 . S
C63 O52 1.226 . S
C63 O53 1.307 . S
C64 O56 1.303 . S
C64 O57 1.247 . S
C65 O54 1.253 . S
C65 O55 1.283 . S
C66 O58 1.304 . S
C66 O60 1.272 . S
C67 O59 1.311 . S
C67 O61 1.231 . S
O68 Zn50 1.953 . S
O68 C62 1.298 . S
O69 Zn70 1.953 . S
O69 C85 1.225 . S
Zn70 O69 1.953 . S
Zn70 O71 1.949 . S
Zn70 O77 1.919 . S
Zn70 O82 1.924 . S
O71 Zn70 1.949 . S
O71 Zn72 1.923 . S
O71 Zn73 1.950 . S
O71 Zn74 1.945 . S
Zn72 O71 1.923 . S
Zn72 O75 1.933 . S
Zn72 O78 1.941 . S
Zn72 O79 1.965 . S
Zn73 O71 1.950 . S
Zn73 O80 1.938 . S
Zn73 O81 1.906 . S
Zn73 O91 1.953 . S
Zn74 O71 1.945 . S
Zn74 O76 1.932 . S
Zn74 O83 1.977 . S
Zn74 O84 1.910 . S
O75 Zn72 1.933 . S
O75 C86 1.226 . S
O76 Zn74 1.932 . S
O76 C86 1.307 . S
O77 Zn70 1.919 . S
O77 C88 1.253 . S
O78 Zn72 1.941 . S
O78 C88 1.283 . S
O79 Zn72 1.965 . S
O79 C87 1.303 . S
O80 Zn73 1.938 . S
O80 C87 1.247 . S
O81 Zn73 1.906 . S
O81 C89 1.304 . S
O82 Zn70 1.924 . S
O82 C90 1.311 . S
O83 Zn74 1.977 . S
O83 C89 1.272 . S
O84 Zn74 1.910 . S
O84 C90 1.231 . S
C85 O69 1.225 . S
C85 O91 1.298 . S
C86 O75 1.226 . S
C86 O76 1.307 . S
C87 O79 1.303 . S
C87 O80 1.247 . S
C88 O77 1.253 . S
C88 O78 1.283 . S
C89 O81 1.304 . S
C89 O83 1.272 . S
C90 O82 1.311 . S
C90 O84 1.231 . S
O91 Zn73 1.953 . S
O91 C85 1.298 . S
O92 Zn93 1.953 . S
O92 C108 1.225 . S
Zn93 O92 1.953 . S
Zn93 O94 1.940 1_556 S
Zn93 O100 1.919 . S
Zn93 O105 1.924 . S
O94 Zn93 1.940 1_554 S
O94 Zn95 1.918 1_554 S
O94 Zn96 1.958 . S
O94 Zn97 1.950 . S
Zn95 O94 1.918 1_556 S
Zn95 O98 1.933 . S
Zn95 O101 1.941 . S
Zn95 O102 1.965 . S
Zn96 O94 1.958 . S
Zn96 O103 1.938 . S
Zn96 O104 1.906 . S
Zn96 O114 1.953 . S
Zn97 O94 1.950 . S
Zn97 O99 1.932 . S
Zn97 O106 1.977 . S
Zn97 O107 1.910 . S
O98 Zn95 1.933 . S
O98 C109 1.226 1_556 S
O99 Zn97 1.932 . S
O99 C109 1.307 . S
O100 Zn93 1.919 . S
O100 C111 1.253 . S
O101 Zn95 1.941 . S
O101 C111 1.283 . S
O102 Zn95 1.965 . S
O102 C110 1.303 1_556 S
O103 Zn96 1.938 . S
O103 C110 1.247 . S
O104 Zn96 1.906 . S
O104 C112 1.304 . S
O105 Zn93 1.924 . S
O105 C113 1.311 . S
O106 Zn97 1.977 . S
O106 C112 1.272 . S
O107 Zn97 1.910 . S
O107 C113 1.231 1_554 S
C108 O92 1.225 . S
C108 O114 1.298 1_556 S
C109 O98 1.226 1_554 S
C109 O99 1.307 . S
C110 O102 1.303 1_554 S
C110 O103 1.247 . S
C111 O100 1.253 . S
C111 O101 1.283 . S
C112 O104 1.304 . S
C112 O106 1.272 . S
C113 O105 1.311 . S
C113 O107 1.231 1_556 S
O114 Zn96 1.953 . S
O114 C108 1.298 1_554 S
O115 Zn116 1.953 . S
O115 C131 1.225 . S
Zn116 O115 1.953 . S
Zn116 O117 1.940 1_556 S
Zn116 O123 1.919 . S
Zn116 O128 1.924 . S
O117 Zn116 1.940 1_554 S
O117 Zn118 1.918 1_554 S
O117 Zn119 1.958 . S
O117 Zn120 1.950 . S
Zn118 O117 1.918 1_556 S
Zn118 O121 1.933 . S
Zn118 O124 1.941 . S
Zn118 O125 1.965 . S
Zn119 O117 1.958 . S
Zn119 O126 1.938 . S
Zn119 O127 1.906 . S
Zn119 O137 1.953 . S
Zn120 O117 1.950 . S
Zn120 O122 1.932 . S
Zn120 O129 1.977 . S
Zn120 O130 1.910 . S
O121 Zn118 1.933 . S
O121 C132 1.226 1_556 S
O122 Zn120 1.932 . S
O122 C132 1.307 . S
O123 Zn116 1.919 . S
O123 C134 1.253 . S
O124 Zn118 1.941 . S
O124 C134 1.283 . S
O125 Zn118 1.965 . S
O125 C133 1.303 1_556 S
O126 Zn119 1.938 . S
O126 C133 1.247 . S
O127 Zn119 1.906 . S
O127 C135 1.304 . S
O128 Zn116 1.924 . S
O128 C136 1.311 . S
O129 Zn120 1.977 . S
O129 C135 1.272 . S
O130 Zn120 1.910 . S
O130 C136 1.231 1_554 S
C131 O115 1.225 . S
C131 O137 1.298 1_556 S
C132 O121 1.226 1_554 S
C132 O122 1.307 . S
C133 O125 1.303 1_554 S
C133 O126 1.247 . S
C134 O123 1.253 . S
C134 O124 1.283 . S
C135 O127 1.304 . S
C135 O129 1.272 . S
C136 O128 1.311 . S
C136 O130 1.231 1_556 S
O137 Zn119 1.953 . S
O137 C131 1.298 1_554 S
O138 Zn139 1.953 . S
O138 C154 1.225 . S
Zn139 O138 1.953 . S
Zn139 O140 1.949 . S
Zn139 O146 1.919 . S
Zn139 O151 1.924 . S
O140 Zn139 1.949 . S
O140 Zn141 1.923 . S
O140 Zn142 1.950 . S
O140 Zn143 1.945 . S
Zn141 O140 1.923 . S
Zn141 O144 1.933 . S
Zn141 O147 1.941 . S
Zn141 O148 1.965 . S
Zn142 O140 1.950 . S
Zn142 O149 1.938 . S
Zn142 O150 1.906 . S
Zn142 O160 1.953 . S
Zn143 O140 1.945 . S
Zn143 O145 1.932 . S
Zn143 O152 1.977 . S
Zn143 O153 1.910 . S
O144 Zn141 1.933 . S
O144 C155 1.226 . S
O145 Zn143 1.932 . S
O145 C155 1.307 . S
O146 Zn139 1.919 . S
O146 C157 1.253 . S
O147 Zn141 1.941 . S
O147 C157 1.283 . S
O148 Zn141 1.965 . S
O148 C156 1.303 . S
O149 Zn142 1.938 . S
O149 C156 1.247 . S
O150 Zn142 1.906 . S
O150 C158 1.304 . S
O151 Zn139 1.924 . S
O151 C159 1.311 . S
O152 Zn143 1.977 . S
O152 C158 1.272 . S
O153 Zn143 1.910 . S
O153 C159 1.231 . S
C154 O138 1.225 . S
C154 O160 1.298 . S
C155 O144 1.226 . S
C155 O145 1.307 . S
C156 O148 1.303 . S
C156 O149 1.247 . S
C157 O146 1.253 . S
C157 O147 1.283 . S
C158 O150 1.304 . S
C158 O152 1.272 . S
C159 O151 1.311 . S
C159 O153 1.231 . S
O160 Zn142 1.953 . S
O160 C154 1.298 . S
O161 Zn162 1.953 . S
O161 C177 1.225 . S
Zn162 O161 1.953 . S
Zn162 O163 1.949 . S
Zn162 O169 1.919 . S
Zn162 O174 1.924 . S
O163 Zn162 1.949 . S
O163 Zn164 1.923 . S
O163 Zn165 1.950 . S
O163 Zn166 1.945 . S
Zn164 O163 1.923 . S
Zn164 O167 1.933 . S
Zn164 O170 1.941 . S
Zn164 O171 1.965 . S
Zn165 O163 1.950 . S
Zn165 O172 1.938 . S
Zn165 O173 1.906 . S
Zn165 O183 1.953 . S
Zn166 O163 1.945 . S
Zn166 O168 1.932 . S
Zn166 O175 1.977 . S
Zn166 O176 1.910 . S
O167 Zn164 1.933 . S
O167 C178 1.226 . S
O168 Zn166 1.932 . S
O168 C178 1.307 . S
O169 Zn162 1.919 . S
O169 C180 1.253 . S
O170 Zn164 1.941 . S
O170 C180 1.283 . S
O171 Zn164 1.965 . S
O171 C179 1.303 . S
O172 Zn165 1.938 . S
O172 C179 1.247 . S
O173 Zn165 1.906 . S
O173 C181 1.304 . S
O174 Zn162 1.924 . S
O174 C182 1.311 . S
O175 Zn166 1.977 . S
O175 C181 1.272 . S
O176 Zn166 1.910 . S
O176 C182 1.231 . S
C177 O161 1.225 . S
C177 O183 1.298 . S
C178 O167 1.226 . S
C178 O168 1.307 . S
C179 O171 1.303 . S
C179 O172 1.247 . S
C180 O169 1.253 . S
C180 O170 1.283 . S
C181 O173 1.304 . S
C181 O175 1.272 . S
C182 O174 1.311 . S
C182 O176 1.231 . S
O183 Zn165 1.953 . S
O183 C177 1.298 . S
O184 Zn185 1.953 . S
O184 C200 1.225 . S
Zn185 O184 1.953 . S
Zn185 O186 1.949 . S
Zn185 O192 1.919 . S
Zn185 O197 1.924 . S
O186 Zn185 1.949 . S
O186 Zn187 1.923 . S
O186 Zn188 1.950 . S
O186 Zn189 1.945 . S
Zn187 O186 1.923 . S
Zn187 O190 1.933 . S
Zn187 O193 1.941 . S
Zn187 O194 1.965 . S
Zn188 O186 1.950 . S
Zn188 O195 1.938 . S
Zn188 O196 1.906 . S
Zn188 O206 1.953 . S
Zn189 O186 1.945 . S
Zn189 O191 1.932 . S
Zn189 O198 1.977 . S
Zn189 O199 1.910 . S
O190 Zn187 1.933 . S
O190 C201 1.226 . S
O191 Zn189 1.932 . S
O191 C201 1.307 . S
O192 Zn185 1.919 . S
O192 C203 1.253 . S
O193 Zn187 1.941 . S
O193 C203 1.283 . S
O194 Zn187 1.965 . S
O194 C202 1.303 . S
O195 Zn188 1.938 . S
O195 C202 1.247 . S
O196 Zn188 1.906 . S
O196 C204 1.304 . S
O197 Zn185 1.924 . S
O197 C205 1.311 . S
O198 Zn189 1.977 . S
O198 C204 1.272 . S
O199 Zn189 1.910 . S
O199 C205 1.231 . S
C200 O184 1.225 . S
C200 O206 1.298 . S
C201 O190 1.226 . S
C201 O191 1.307 . S
C202 O194 1.303 . S
C202 O195 1.247 . S
C203 O192 1.253 . S
C203 O193 1.283 . S
C204 O196 1.304 . S
C204 O198 1.272 . S
C205 O197 1.311 . S
C205 O199 1.231 . S
O206 Zn188 1.953 . S
O206 C200 1.298 . S
O207 Zn208 1.953 . S
O207 C223 1.225 . S
Zn208 O207 1.953 . S
Zn208 O209 1.949 . S
Zn208 O215 1.919 . S
Zn208 O220 1.924 . S
O209 Zn208 1.949 . S
O209 Zn210 1.923 . S
O209 Zn211 1.950 . S
O209 Zn212 1.945 . S
Zn210 O209 1.923 . S
Zn210 O213 1.933 . S
Zn210 O216 1.941 . S
Zn210 O217 1.965 . S
Zn211 O209 1.950 . S
Zn211 O218 1.938 . S
Zn211 O219 1.906 . S
Zn211 O229 1.953 . S
Zn212 O209 1.945 . S
Zn212 O214 1.932 . S
Zn212 O221 1.977 . S
Zn212 O222 1.910 . S
O213 Zn210 1.933 . S
O213 C224 1.226 . S
O214 Zn212 1.932 . S
O214 C224 1.307 . S
O215 Zn208 1.919 . S
O215 C226 1.253 . S
O216 Zn210 1.941 . S
O216 C226 1.283 . S
O217 Zn210 1.965 . S
O217 C225 1.303 . S
O218 Zn211 1.938 . S
O218 C225 1.247 . S
O219 Zn211 1.906 . S
O219 C227 1.304 . S
O220 Zn208 1.924 . S
O220 C228 1.311 . S
O221 Zn212 1.977 . S
O221 C227 1.272 . S
O222 Zn212 1.910 . S
O222 C228 1.231 . S
C223 O207 1.225 . S
C223 O229 1.298 . S
C224 O213 1.226 . S
C224 O214 1.307 . S
C225 O217 1.303 . S
C225 O218 1.247 . S
C226 O215 1.253 . S
C226 O216 1.283 . S
C227 O219 1.304 . S
C227 O221 1.272 . S
C228 O220 1.311 . S
C228 O222 1.231 . S
O229 Zn211 1.953 . S
O229 C223 1.298 . S
O230 Zn231 1.953 . S
O230 C246 1.225 . S
Zn231 O230 1.953 . S
Zn231 O232 1.949 . S
Zn231 O238 1.919 . S
Zn231 O243 1.924 . S
O232 Zn231 1.949 . S
O232 Zn233 1.923 . S
O232 Zn234 1.950 . S
O232 Zn235 1.945 . S
Zn233 O232 1.923 . S
Zn233 O236 1.933 . S
Zn233 O239 1.941 . S
Zn233 O240 1.965 . S
Zn234 O232 1.950 . S
Zn234 O241 1.938 . S
Zn234 O242 1.906 . S
Zn234 O252 1.953 . S
Zn235 O232 1.945 . S
Zn235 O237 1.932 . S
Zn235 O244 1.977 . S
Zn235 O245 1.910 . S
O236 Zn233 1.933 . S
O236 C247 1.226 . S
O237 Zn235 1.932 . S
O237 C247 1.307 . S
O238 Zn231 1.919 . S
O238 C249 1.253 . S
O239 Zn233 1.941 . S
O239 C249 1.283 . S
O240 Zn233 1.965 . S
O240 C248 1.303 . S
O241 Zn234 1.938 . S
O241 C248 1.247 . S
O242 Zn234 1.906 . S
O242 C250 1.304 . S
O243 Zn231 1.924 . S
O243 C251 1.311 . S
O244 Zn235 1.977 . S
O244 C250 1.272 . S
O245 Zn235 1.910 . S
O245 C251 1.231 . S
C246 O230 1.225 . S
C246 O252 1.298 . S
C247 O236 1.226 . S
C247 O237 1.307 . S
C248 O240 1.303 . S
C248 O241 1.247 . S
C249 O238 1.253 . S
C249 O239 1.283 . S
C250 O242 1.304 . S
C250 O244 1.272 . S
C251 O243 1.311 . S
C251 O245 1.231 . S
O252 Zn234 1.953 . S
O252 C246 1.298 . S
O253 Zn254 1.953 . S
O253 C269 1.225 . S
Zn254 O253 1.953 . S
Zn254 O255 1.949 . S
Zn254 O261 1.919 . S
Zn254 O266 1.924 . S
O255 Zn254 1.949 . S
O255 Zn256 1.923 . S
O255 Zn257 1.950 . S
O255 Zn258 1.945 . S
Zn256 O255 1.923 . S
Zn256 O259 1.933 . S
Zn256 O262 1.941 . S
Zn256 O263 1.965 . S
Zn257 O255 1.950 . S
Zn257 O264 1.938 . S
Zn257 O265 1.906 . S
Zn257 O275 1.953 . S
Zn258 O255 1.945 . S
Zn258 O260 1.932 . S
Zn258 O267 1.977 . S
Zn258 O268 1.910 . S
O259 Zn256 1.933 . S
O259 C270 1.226 . S
O260 Zn258 1.932 . S
O260 C270 1.307 . S
O261 Zn254 1.919 . S
O261 C272 1.253 . S
O262 Zn256 1.941 . S
O262 C272 1.283 . S
O263 Zn256 1.965 . S
O263 C271 1.303 . S
O264 Zn257 1.938 . S
O264 C271 1.247 . S
O265 Zn257 1.906 . S
O265 C273 1.304 . S
O266 Zn254 1.924 . S
O266 C274 1.311 . S
O267 Zn258 1.977 . S
O267 C273 1.272 . S
O268 Zn258 1.910 . S
O268 C274 1.231 . S
C269 O253 1.225 . S
C269 O275 1.298 . S
C270 O259 1.226 . S
C270 O260 1.307 . S
C271 O263 1.303 . S
C271 O264 1.247 . S
C272 O261 1.253 . S
C272 O262 1.283 . S
C273 O265 1.304 . S
C273 O267 1.272 . S
C274 O266 1.311 . S
C274 O268 1.231 . S
O275 Zn257 1.953 . S
O275 C269 1.298 . S
O276 Zn277 1.953 . S
O276 C292 1.225 . S
Zn277 O276 1.953 . S
Zn277 O278 1.949 . S
Zn277 O284 1.919 . S
Zn277 O289 1.924 . S
O278 Zn277 1.949 . S
O278 Zn279 1.923 . S
O278 Zn280 1.950 . S
O278 Zn281 1.945 . S
Zn279 O278 1.923 . S
Zn279 O282 1.933 . S
Zn279 O285 1.941 . S
Zn279 O286 1.965 . S
Zn280 O278 1.950 . S
Zn280 O287 1.938 . S
Zn280 O288 1.906 . S
Zn280 O298 1.953 . S
Zn281 O278 1.945 . S
Zn281 O283 1.932 . S
Zn281 O290 1.977 . S
Zn281 O291 1.910 . S
O282 Zn279 1.933 . S
O282 C293 1.226 . S
O283 Zn281 1.932 . S
O283 C293 1.307 . S
O284 Zn277 1.919 . S
O284 C295 1.253 . S
O285 Zn279 1.941 . S
O285 C295 1.283 . S
O286 Zn279 1.965 . S
O286 C294 1.303 . S
O287 Zn280 1.938 . S
O287 C294 1.247 . S
O288 Zn280 1.906 . S
O288 C296 1.304 . S
O289 Zn277 1.924 . S
O289 C297 1.311 . S
O290 Zn281 1.977 . S
O290 C296 1.272 . S
O291 Zn281 1.910 . S
O291 C297 1.231 . S
C292 O276 1.225 . S
C292 O298 1.298 . S
C293 O282 1.226 . S
C293 O283 1.307 . S
C294 O286 1.303 . S
C294 O287 1.247 . S
C295 O284 1.253 . S
C295 O285 1.283 . S
C296 O288 1.304 . S
C296 O290 1.272 . S
C297 O289 1.311 . S
C297 O291 1.231 . S
O298 Zn280 1.953 . S
O298 C292 1.298 . S
O299 Zn300 1.953 . S
O299 C315 1.225 . S
Zn300 O299 1.953 . S
Zn300 O301 1.949 . S
Zn300 O307 1.919 . S
Zn300 O312 1.924 . S
O301 Zn300 1.949 . S
O301 Zn302 1.923 . S
O301 Zn303 1.950 . S
O301 Zn304 1.945 . S
Zn302 O301 1.923 . S
Zn302 O305 1.933 . S
Zn302 O308 1.941 . S
Zn302 O309 1.965 . S
Zn303 O301 1.950 . S
Zn303 O310 1.938 . S
Zn303 O311 1.906 . S
Zn303 O321 1.953 . S
Zn304 O301 1.945 . S
Zn304 O306 1.932 . S
Zn304 O313 1.977 . S
Zn304 O314 1.910 . S
O305 Zn302 1.933 . S
O305 C316 1.226 . S
O306 Zn304 1.932 . S
O306 C316 1.307 . S
O307 Zn300 1.919 . S
O307 C318 1.253 . S
O308 Zn302 1.941 . S
O308 C318 1.283 . S
O309 Zn302 1.965 . S
O309 C317 1.303 . S
O310 Zn303 1.938 . S
O310 C317 1.247 . S
O311 Zn303 1.906 . S
O311 C319 1.304 . S
O312 Zn300 1.924 . S
O312 C320 1.311 . S
O313 Zn304 1.977 . S
O313 C319 1.272 . S
O314 Zn304 1.910 . S
O314 C320 1.231 . S
C315 O299 1.225 . S
C315 O321 1.298 . S
C316 O305 1.226 . S
C316 O306 1.307 . S
C317 O309 1.303 . S
C317 O310 1.247 . S
C318 O307 1.253 . S
C318 O308 1.283 . S
C319 O311 1.304 . S
C319 O313 1.272 . S
C320 O312 1.311 . S
C320 O314 1.231 . S
O321 Zn303 1.953 . S
O321 C315 1.298 . S
O322 Zn323 1.953 . S
O322 C338 1.225 . S
Zn323 O322 1.953 . S
Zn323 O324 1.949 . S
Zn323 O330 1.919 . S
Zn323 O335 1.924 . S
O324 Zn323 1.949 . S
O324 Zn325 1.923 . S
O324 Zn326 1.950 . S
O324 Zn327 1.945 . S
Zn325 O324 1.923 . S
Zn325 O328 1.933 . S
Zn325 O331 1.941 . S
Zn325 O332 1.965 . S
Zn326 O324 1.950 . S
Zn326 O333 1.938 . S
Zn326 O334 1.906 . S
Zn326 O344 1.953 . S
Zn327 O324 1.945 . S
Zn327 O329 1.932 . S
Zn327 O336 1.977 . S
Zn327 O337 1.910 . S
O328 Zn325 1.933 . S
O328 C339 1.226 . S
O329 Zn327 1.932 . S
O329 C339 1.307 . S
O330 Zn323 1.919 . S
O330 C341 1.253 . S
O331 Zn325 1.941 . S
O331 C341 1.283 . S
O332 Zn325 1.965 . S
O332 C340 1.303 . S
O333 Zn326 1.938 . S
O333 C340 1.247 . S
O334 Zn326 1.906 . S
O334 C342 1.304 . S
O335 Zn323 1.924 . S
O335 C343 1.311 . S
O336 Zn327 1.977 . S
O336 C342 1.272 . S
O337 Zn327 1.910 . S
O337 C343 1.231 . S
C338 O322 1.225 . S
C338 O344 1.298 . S
C339 O328 1.226 . S
C339 O329 1.307 . S
C340 O332 1.303 . S
C340 O333 1.247 . S
C341 O330 1.253 . S
C341 O331 1.283 . S
C342 O334 1.304 . S
C342 O336 1.272 . S
C343 O335 1.311 . S
C343 O337 1.231 . S
O344 Zn326 1.953 . S
O344 C338 1.298 . S
O345 Zn346 1.953 . S
O345 C361 1.225 . S
Zn346 O345 1.953 . S
Zn346 O347 1.949 . S
Zn346 O353 1.919 . S
Zn346 O358 1.924 . S
O347 Zn346 1.949 . S
O347 Zn348 1.923 . S
O347 Zn349 1.950 . S
O347 Zn350 1.945 . S
Zn348 O347 1.923 . S
Zn348 O351 1.933 . S
Zn348 O354 1.941 . S
Zn348 O355 1.965 . S
Zn349 O347 1.950 . S
Zn349 O356 1.938 . S
Zn349 O357 1.906 . S
Zn349 O367 1.953 . S
Zn350 O347 1.945 . S
Zn350 O352 1.932 . S
Zn350 O359 1.977 . S
Zn350 O360 1.910 . S
O351 Zn348 1.933 . S
O351 C362 1.226 . S
O352 Zn350 1.932 . S
O352 C362 1.307 . S
O353 Zn346 1.919 . S
O353 C364 1.253 . S
O354 Zn348 1.941 . S
O354 C364 1.283 . S
O355 Zn348 1.965 . S
O355 C363 1.303 . S
O356 Zn349 1.938 . S
O356 C363 1.247 . S
O357 Zn349 1.906 . S
O357 C365 1.304 . S
O358 Zn346 1.924 . S
O358 C366 1.311 . S
O359 Zn350 1.977 . S
O359 C365 1.272 . S
O360 Zn350 1.910 . S
O360 C366 1.231 . S
C361 O345 1.225 . S
C361 O367 1.298 . S
C362 O351 1.226 . S
C362 O352 1.307 . S
C363 O355 1.303 . S
C363 O356 1.247 . S
C364 O353 1.253 . S
C364 O354 1.283 . S
C365 O357 1.304 . S
C365 O359 1.272 . S
C366 O358 1.311 . S
C366 O360 1.231 . S
O367 Zn349 1.953 . S
O367 C361 1.298 . S
O368 Zn369 1.953 . S
O368 C384 1.225 . S
Zn369 O368 1.953 . S
Zn369 O370 1.949 . S
Zn369 O376 1.919 . S
Zn369 O381 1.924 . S
O370 Zn369 1.949 . S
O370 Zn371 1.923 . S
O370 Zn372 1.950 . S
O370 Zn373 1.945 . S
Zn371 O370 1.923 . S
Zn371 O374 1.933 . S
Zn371 O377 1.941 . S
Zn371 O378 1.965 . S
Zn372 O370 1.950 . S
Zn372 O379 1.938 . S
Zn372 O380 1.906 . S
Zn372 O390 1.953 . S
Zn373 O370 1.945 . S
Zn373 O375 1.932 . S
Zn373 O382 1.977 . S
Zn373 O383 1.910 . S
O374 Zn371 1.933 . S
O374 C385 1.226 . S
O375 Zn373 1.932 . S
O375 C385 1.307 . S
O376 Zn369 1.919 . S
O376 C387 1.253 . S
O377 Zn371 1.941 . S
O377 C387 1.283 . S
O378 Zn371 1.965 . S
O378 C386 1.303 . S
O379 Zn372 1.938 . S
O379 C386 1.247 . S
O380 Zn372 1.906 . S
O380 C388 1.304 . S
O381 Zn369 1.924 . S
O381 C389 1.311 . S
O382 Zn373 1.977 . S
O382 C388 1.272 . S
O383 Zn373 1.910 . S
O383 C389 1.231 . S
C384 O368 1.225 . S
C384 O390 1.298 . S
C385 O374 1.226 . S
C385 O375 1.307 . S
C386 O378 1.303 . S
C386 O379 1.247 . S
C387 O376 1.253 . S
C387 O377 1.283 . S
C388 O380 1.304 . S
C388 O382 1.272 . S
C389 O381 1.311 . S
C389 O383 1.231 . S
O390 Zn372 1.953 . S
O390 C384 1.298 . S
O391 Zn392 1.953 . S
O391 C407 1.225 . S
Zn392 O391 1.953 . S
Zn392 O393 1.949 . S
Zn392 O399 1.919 . S
Zn392 O404 1.924 . S
O393 Zn392 1.949 . S
O393 Zn394 1.923 . S
O393 Zn395 1.950 . S
O393 Zn396 1.945 . S
Zn394 O393 1.923 . S
Zn394 O397 1.933 . S
Zn394 O400 1.941 . S
Zn394 O401 1.965 . S
Zn395 O393 1.950 . S
Zn395 O402 1.938 . S
Zn395 O403 1.906 . S
Zn395 O413 1.953 . S
Zn396 O393 1.945 . S
Zn396 O398 1.932 . S
Zn396 O405 1.977 . S
Zn396 O406 1.910 . S
O397 Zn394 1.933 . S
O397 C408 1.226 . S
O398 Zn396 1.932 . S
O398 C408 1.307 . S
O399 Zn392 1.919 . S
O399 C410 1.253 . S
O400 Zn394 1.941 . S
O400 C410 1.283 . S
O401 Zn394 1.965 . S
O401 C409 1.303 . S
O402 Zn395 1.938 . S
O402 C409 1.247 . S
O403 Zn395 1.906 . S
O403 C411 1.304 . S
O404 Zn392 1.924 . S
O404 C412 1.311 . S
O405 Zn396 1.977 . S
O405 C411 1.272 . S
O406 Zn396 1.910 . S
O406 C412 1.231 . S
C407 O391 1.225 . S
C407 O413 1.298 . S
C408 O397 1.226 . S
C408 O398 1.307 . S
C409 O401 1.303 . S
C409 O402 1.247 . S
C410 O399 1.253 . S
C410 O400 1.283 . S
C411 O403 1.304 . S
C411 O405 1.272 . S
C412 O404 1.311 . S
C412 O406 1.231 . S
O413 Zn395 1.953 . S
O413 C407 1.298 . S
O414 Zn415 1.953 . S
O414 C430 1.225 . S
Zn415 O414 1.953 . S
Zn415 O416 1.949 . S
Zn415 O422 1.919 . S
Zn415 O427 1.924 . S
O416 Zn415 1.949 . S
O416 Zn417 1.923 . S
O416 Zn418 1.950 . S
O416 Zn419 1.945 . S
Zn417 O416 1.923 . S
Zn417 O420 1.933 . S
Zn417 O423 1.941 . S
Zn417 O424 1.965 . S
Zn418 O416 1.950 . S
Zn418 O425 1.938 . S
Zn418 O426 1.906 . S
Zn418 O436 1.953 . S
Zn419 O416 1.945 . S
Zn419 O421 1.932 . S
Zn419 O428 1.977 . S
Zn419 O429 1.910 . S
O420 Zn417 1.933 . S
O420 C431 1.226 . S
O421 Zn419 1.932 . S
O421 C431 1.307 . S
O422 Zn415 1.919 . S
O422 C433 1.253 . S
O423 Zn417 1.941 . S
O423 C433 1.283 . S
O424 Zn417 1.965 . S
O424 C432 1.303 . S
O425 Zn418 1.938 . S
O425 C432 1.247 . S
O426 Zn418 1.906 . S
O426 C434 1.304 . S
O427 Zn415 1.924 . S
O427 C435 1.311 . S
O428 Zn419 1.977 . S
O428 C434 1.272 . S
O429 Zn419 1.910 . S
O429 C435 1.231 . S
C430 O414 1.225 . S
C430 O436 1.298 . S
C431 O420 1.226 . S
C431 O421 1.307 . S
C432 O424 1.303 . S
C432 O425 1.247 . S
C433 O422 1.253 . S
C433 O423 1.283 . S
C434 O426 1.304 . S
C434 O428 1.272 . S
C435 O427 1.311 . S
C435 O429 1.231 . S
O436 Zn418 1.953 . S
O436 C430 1.298 . S
O437 Zn438 1.953 . S
O437 C453 1.225 . S
Zn438 O437 1.953 . S
Zn438 O439 1.949 . S
Zn438 O445 1.919 . S
Zn438 O450 1.924 . S
O439 Zn438 1.949 . S
O439 Zn440 1.923 . S
O439 Zn441 1.950 . S
O439 Zn442 1.945 . S
Zn440 O439 1.923 . S
Zn440 O443 1.933 . S
Zn440 O446 1.941 . S
Zn440 O447 1.965 . S
Zn441 O439 1.950 . S
Zn441 O448 1.938 . S
Zn441 O449 1.906 . S
Zn441 O459 1.953 . S
Zn442 O439 1.945 . S
Zn442 O444 1.932 . S
Zn442 O451 1.977 . S
Zn442 O452 1.910 . S
O443 Zn440 1.933 . S
O443 C454 1.226 . S
O444 Zn442 1.932 . S
O444 C454 1.307 . S
O445 Zn438 1.919 . S
O445 C456 1.253 . S
O446 Zn440 1.941 . S
O446 C456 1.283 . S
O447 Zn440 1.965 . S
O447 C455 1.303 . S
O448 Zn441 1.938 . S
O448 C455 1.247 . S
O449 Zn441 1.906 . S
O449 C457 1.304 . S
O450 Zn438 1.924 . S
O450 C458 1.311 . S
O451 Zn442 1.977 . S
O451 C457 1.272 . S
O452 Zn442 1.910 . S
O452 C458 1.231 . S
C453 O437 1.225 . S
C453 O459 1.298 . S
C454 O443 1.226 . S
C454 O444 1.307 . S
C455 O447 1.303 . S
C455 O448 1.247 . S
C456 O445 1.253 . S
C456 O446 1.283 . S
C457 O449 1.304 . S
C457 O451 1.272 . S
C458 O450 1.311 . S
C458 O452 1.231 . S
O459 Zn441 1.953 . S
O459 C453 1.298 . S
O460 Zn461 1.953 . S
O460 C476 1.225 . S
Zn461 O460 1.953 . S
Zn461 O462 1.949 . S
Zn461 O468 1.919 . S
Zn461 O473 1.924 . S
O462 Zn461 1.949 . S
O462 Zn463 1.923 . S
O462 Zn464 1.950 . S
O462 Zn465 1.945 . S
Zn463 O462 1.923 . S
Zn463 O466 1.933 . S
Zn463 O469 1.941 . S
Zn463 O470 1.965 . S
Zn464 O462 1.950 . S
Zn464 O471 1.938 . S
Zn464 O472 1.906 . S
Zn464 O482 1.953 . S
Zn465 O462 1.945 . S
Zn465 O467 1.932 . S
Zn465 O474 1.977 . S
Zn465 O475 1.910 . S
O466 Zn463 1.933 . S
O466 C477 1.226 . S
O467 Zn465 1.932 . S
O467 C477 1.307 . S
O468 Zn461 1.919 . S
O468 C479 1.253 . S
O469 Zn463 1.941 . S
O469 C479 1.283 . S
O470 Zn463 1.965 . S
O470 C478 1.303 . S
O471 Zn464 1.938 . S
O471 C478 1.247 . S
O472 Zn464 1.906 . S
O472 C480 1.304 . S
O473 Zn461 1.924 . S
O473 C481 1.311 . S
O474 Zn465 1.977 . S
O474 C480 1.272 . S
O475 Zn465 1.910 . S
O475 C481 1.231 . S
C476 O460 1.225 . S
C476 O482 1.298 . S
C477 O466 1.226 . S
C477 O467 1.307 . S
C478 O470 1.303 . S
C478 O471 1.247 . S
C479 O468 1.253 . S
C479 O469 1.283 . S
C480 O472 1.304 . S
C480 O474 1.272 . S
C481 O473 1.311 . S
C481 O475 1.231 . S
O482 Zn464 1.953 . S
O482 C476 1.298 . S
O483 Zn484 1.953 . S
O483 C499 1.225 . S
Zn484 O483 1.953 . S
Zn484 O485 1.949 . S
Zn484 O491 1.919 . S
Zn484 O496 1.924 . S
O485 Zn484 1.949 . S
O485 Zn486 1.923 . S
O485 Zn487 1.950 . S
O485 Zn488 1.945 . S
Zn486 O485 1.923 . S
Zn486 O489 1.933 . S
Zn486 O492 1.941 . S
Zn486 O493 1.965 . S
Zn487 O485 1.950 . S
Zn487 O494 1.938 . S
Zn487 O495 1.906 . S
Zn487 O505 1.953 . S
Zn488 O485 1.945 . S
Zn488 O490 1.932 . S
Zn488 O497 1.977 . S
Zn488 O498 1.910 . S
O489 Zn486 1.933 . S
O489 C500 1.226 . S
O490 Zn488 1.932 . S
O490 C500 1.307 . S
O491 Zn484 1.919 . S
O491 C502 1.253 . S
O492 Zn486 1.941 . S
O492 C502 1.283 . S
O493 Zn486 1.965 . S
O493 C501 1.303 . S
O494 Zn487 1.938 . S
O494 C501 1.247 . S
O495 Zn487 1.906 . S
O495 C503 1.304 . S
O496 Zn484 1.924 . S
O496 C504 1.311 . S
O497 Zn488 1.977 . S
O497 C503 1.272 . S
O498 Zn488 1.910 . S
O498 C504 1.231 . S
C499 O483 1.225 . S
C499 O505 1.298 . S
C500 O489 1.226 . S
C500 O490 1.307 . S
C501 O493 1.303 . S
C501 O494 1.247 . S
C502 O491 1.253 . S
C502 O492 1.283 . S
C503 O495 1.304 . S
C503 O497 1.272 . S
C504 O496 1.311 . S
C504 O498 1.231 . S
O505 Zn487 1.953 . S
O505 C499 1.298 . S
O506 Zn507 1.953 . S
O506 C522 1.225 . S
Zn507 O506 1.953 . S
Zn507 O508 1.949 . S
Zn507 O514 1.919 . S
Zn507 O519 1.924 . S
O508 Zn507 1.949 . S
O508 Zn509 1.923 . S
O508 Zn510 1.950 . S
O508 Zn511 1.945 . S
Zn509 O508 1.923 . S
Zn509 O512 1.933 . S
Zn509 O515 1.941 . S
Zn509 O516 1.965 . S
Zn510 O508 1.950 . S
Zn510 O517 1.938 . S
Zn510 O518 1.906 . S
Zn510 O528 1.953 . S
Zn511 O508 1.945 . S
Zn511 O513 1.932 . S
Zn511 O520 1.977 . S
Zn511 O521 1.910 . S
O512 Zn509 1.933 . S
O512 C523 1.226 . S
O513 Zn511 1.932 . S
O513 C523 1.307 . S
O514 Zn507 1.919 . S
O514 C525 1.253 . S
O515 Zn509 1.941 . S
O515 C525 1.283 . S
O516 Zn509 1.965 . S
O516 C524 1.303 . S
O517 Zn510 1.938 . S
O517 C524 1.247 . S
O518 Zn510 1.906 . S
O518 C526 1.304 . S
O519 Zn507 1.924 . S
O519 C527 1.311 . S
O520 Zn511 1.977 . S
O520 C526 1.272 . S
O521 Zn511 1.910 . S
O521 C527 1.231 . S
C522 O506 1.225 . S
C522 O528 1.298 . S
C523 O512 1.226 . S
C523 O513 1.307 . S
C524 O516 1.303 . S
C524 O517 1.247 . S
C525 O514 1.253 . S
C525 O515 1.283 . S
C526 O518 1.304 . S
C526 O520 1.272 . S
C527 O519 1.311 . S
C527 O521 1.231 . S
O528 Zn510 1.953 . S
O528 C522 1.298 . S
O529 Zn530 1.953 . S
O529 C545 1.225 . S
Zn530 O529 1.953 . S
Zn530 O531 1.949 . S
Zn530 O537 1.919 . S
Zn530 O542 1.924 . S
O531 Zn530 1.949 . S
O531 Zn532 1.923 . S
O531 Zn533 1.950 . S
O531 Zn534 1.945 . S
Zn532 O531 1.923 . S
Zn532 O535 1.933 . S
Zn532 O538 1.941 . S
Zn532 O539 1.965 . S
Zn533 O531 1.950 . S
Zn533 O540 1.938 . S
Zn533 O541 1.906 . S
Zn533 O551 1.953 . S
Zn534 O531 1.945 . S
Zn534 O536 1.932 . S
Zn534 O543 1.977 . S
Zn534 O544 1.910 . S
O535 Zn532 1.933 . S
O535 C546 1.226 . S
O536 Zn534 1.932 . S
O536 C546 1.307 . S
O537 Zn530 1.919 . S
O537 C548 1.253 . S
O538 Zn532 1.941 . S
O538 C548 1.283 . S
O539 Zn532 1.965 . S
O539 C547 1.303 . S
O540 Zn533 1.938 . S
O540 C547 1.247 . S
O541 Zn533 1.906 . S
O541 C549 1.304 . S
O542 Zn530 1.924 . S
O542 C550 1.311 . S
O543 Zn534 1.977 . S
O543 C549 1.272 . S
O544 Zn534 1.910 . S
O544 C550 1.231 . S
C545 O529 1.225 . S
C545 O551 1.298 . S
C546 O535 1.226 . S
C546 O536 1.307 . S
C547 O539 1.303 . S
C547 O540 1.247 . S
C548 O537 1.253 . S
C548 O538 1.283 . S
C549 O541 1.304 . S
C549 O543 1.272 . S
C550 O542 1.311 . S
C550 O544 1.231 . S
O551 Zn533 1.953 . S
O551 C545 1.298 . S
O552 Zn553 1.953 . S
O552 C568 1.170 1_556 S
Zn553 O552 1.953 . S
Zn553 O554 1.930 1_556 S
Zn553 O560 1.919 . S
Zn553 O565 1.924 . S
O554 Zn553 1.930 1_554 S
O554 Zn555 1.909 1_554 S
O554 Zn556 1.970 . S
O554 Zn557 1.957 . S
Zn555 O554 1.909 1_556 S
Zn555 O558 1.933 . S
Zn555 O561 1.941 . S
Zn555 O562 1.965 . S
Zn556 O554 1.970 . S
Zn556 O563 1.938 . S
Zn556 O564 1.906 . S
Zn556 O574 1.953 . S
Zn557 O554 1.957 . S
Zn557 O559 1.932 . S
Zn557 O566 1.977 . S
Zn557 O567 1.910 . S
O558 Zn555 1.933 . S
O558 C569 1.226 . S
O559 Zn557 1.932 . S
O559 C569 1.307 1_554 S
O560 Zn553 1.919 . S
O560 C571 1.253 . S
O561 Zn555 1.941 . S
O561 C571 1.283 . S
O562 Zn555 1.965 . S
O562 C570 1.303 1_556 S
O563 Zn556 1.938 . S
O563 C570 1.247 . S
O564 Zn556 1.906 . S
O564 C572 1.304 . S
O565 Zn553 1.924 . S
O565 C573 1.286 1_556 S
O566 Zn557 1.977 . S
O566 C572 1.272 . S
O567 Zn557 1.910 . S
O567 C573 1.250 . S
C568 O552 1.170 1_554 S
C568 O574 1.355 . S
C569 O558 1.226 . S
C569 O559 1.307 1_556 S
C570 O562 1.303 1_554 S
C570 O563 1.247 . S
C571 O560 1.253 . S
C571 O561 1.283 . S
C572 O564 1.304 . S
C572 O566 1.272 . S
C573 O565 1.286 1_554 S
C573 O567 1.250 . S
O574 Zn556 1.953 . S
O574 C568 1.355 . S
O575 Zn576 1.953 . S
O575 C591 1.170 1_556 S
Zn576 O575 1.953 . S
Zn576 O577 1.930 1_556 S
Zn576 O583 1.919 . S
Zn576 O588 1.924 . S
O577 Zn576 1.930 1_554 S
O577 Zn578 1.909 1_554 S
O577 Zn579 1.970 . S
O577 Zn580 1.957 . S
Zn578 O577 1.909 1_556 S
Zn578 O581 1.933 . S
Zn578 O584 1.941 . S
Zn578 O585 1.965 . S
Zn579 O577 1.970 . S
Zn579 O586 1.938 . S
Zn579 O587 1.906 . S
Zn579 O597 1.953 . S
Zn580 O577 1.957 . S
Zn580 O582 1.932 . S
Zn580 O589 1.977 . S
Zn580 O590 1.910 . S
O581 Zn578 1.933 . S
O581 C592 1.226 . S
O582 Zn580 1.932 . S
O582 C592 1.307 1_554 S
O583 Zn576 1.919 . S
O583 C594 1.253 . S
O584 Zn578 1.941 . S
O584 C594 1.283 . S
O585 Zn578 1.965 . S
O585 C593 1.303 1_556 S
O586 Zn579 1.938 . S
O586 C593 1.247 . S
O587 Zn579 1.906 . S
O587 C595 1.304 . S
O588 Zn576 1.924 . S
O588 C596 1.286 1_556 S
O589 Zn580 1.977 . S
O589 C595 1.272 . S
O590 Zn580 1.910 . S
O590 C596 1.250 . S
C591 O575 1.170 1_554 S
C591 O597 1.355 . S
C592 O581 1.226 . S
C592 O582 1.307 1_556 S
C593 O585 1.303 1_554 S
C593 O586 1.247 . S
C594 O583 1.253 . S
C594 O584 1.283 . S
C595 O587 1.304 . S
C595 O589 1.272 . S
C596 O588 1.286 1_554 S
C596 O590 1.250 . S
O597 Zn579 1.953 . S
O597 C591 1.355 . S
O598 Zn599 1.953 . S
O598 C614 1.225 . S
Zn599 O598 1.953 . S
Zn599 O600 1.949 . S
Zn599 O606 1.919 . S
Zn599 O611 1.924 . S
O600 Zn599 1.949 . S
O600 Zn601 1.923 . S
O600 Zn602 1.950 . S
O600 Zn603 1.945 . S
Zn601 O600 1.923 . S
Zn601 O604 1.933 . S
Zn601 O607 1.941 . S
Zn601 O608 1.965 . S
Zn602 O600 1.950 . S
Zn602 O609 1.938 . S
Zn602 O610 1.906 . S
Zn602 O620 1.953 . S
Zn603 O600 1.945 . S
Zn603 O605 1.932 . S
Zn603 O612 1.977 . S
Zn603 O613 1.910 . S
O604 Zn601 1.933 . S
O604 C615 1.226 . S
O605 Zn603 1.932 . S
O605 C615 1.307 . S
O606 Zn599 1.919 . S
O606 C617 1.253 . S
O607 Zn601 1.941 . S
O607 C617 1.283 . S
O608 Zn601 1.965 . S
O608 C616 1.303 . S
O609 Zn602 1.938 . S
O609 C616 1.247 . S
O610 Zn602 1.906 . S
O610 C618 1.304 . S
O611 Zn599 1.924 . S
O611 C619 1.311 . S
O612 Zn603 1.977 . S
O612 C618 1.272 . S
O613 Zn603 1.910 . S
O613 C619 1.231 . S
C614 O598 1.225 . S
C614 O620 1.298 . S
C615 O604 1.226 . S
C615 O605 1.307 . S
C616 O608 1.303 . S
C616 O609 1.247 . S
C617 O606 1.253 . S
C617 O607 1.283 . S
C618 O610 1.304 . S
C618 O612 1.272 . S
C619 O611 1.311 . S
C619 O613 1.231 . S
O620 Zn602 1.953 . S
O620 C614 1.298 . S
O621 Zn622 1.953 . S
O621 C637 1.225 . S
Zn622 O621 1.953 . S
Zn622 O623 1.949 . S
Zn622 O629 1.919 . S
Zn622 O634 1.924 . S
O623 Zn622 1.949 . S
O623 Zn624 1.923 . S
O623 Zn625 1.950 . S
O623 Zn626 1.945 . S
Zn624 O623 1.923 . S
Zn624 O627 1.933 . S
Zn624 O630 1.941 . S
Zn624 O631 1.965 . S
Zn625 O623 1.950 . S
Zn625 O632 1.938 . S
Zn625 O633 1.906 . S
Zn625 O643 1.953 . S
Zn626 O623 1.945 . S
Zn626 O628 1.932 . S
Zn626 O635 1.977 . S
Zn626 O636 1.910 . S
O627 Zn624 1.933 . S
O627 C638 1.226 . S
O628 Zn626 1.932 . S
O628 C638 1.307 . S
O629 Zn622 1.919 . S
O629 C640 1.253 . S
O630 Zn624 1.941 . S
O630 C640 1.283 . S
O631 Zn624 1.965 . S
O631 C639 1.303 . S
O632 Zn625 1.938 . S
O632 C639 1.247 . S
O633 Zn625 1.906 . S
O633 C641 1.304 . S
O634 Zn622 1.924 . S
O634 C642 1.311 . S
O635 Zn626 1.977 . S
O635 C641 1.272 . S
O636 Zn626 1.910 . S
O636 C642 1.231 . S
C637 O621 1.225 . S
C637 O643 1.298 . S
C638 O627 1.226 . S
C638 O628 1.307 . S
C639 O631 1.303 . S
C639 O632 1.247 . S
C640 O629 1.253 . S
C640 O630 1.283 . S
C641 O633 1.304 . S
C641 O635 1.272 . S
C642 O634 1.311 . S
C642 O636 1.231 . S
O643 Zn625 1.953 . S
O643 C637 1.298 . S
O644 Zn645 1.953 . S
O644 C660 1.225 . S
Zn645 O644 1.953 . S
Zn645 O646 1.940 1_556 S
Zn645 O652 1.919 . S
Zn645 O657 1.924 . S
O646 Zn645 1.940 1_554 S
O646 Zn647 1.918 1_554 S
O646 Zn648 1.958 . S
O646 Zn649 1.950 . S
Zn647 O646 1.918 1_556 S
Zn647 O650 1.933 . S
Zn647 O653 1.941 . S
Zn647 O654 1.965 . S
Zn648 O646 1.958 . S
Zn648 O655 1.938 . S
Zn648 O656 1.906 . S
Zn648 O666 1.953 . S
Zn649 O646 1.950 . S
Zn649 O651 1.932 . S
Zn649 O658 1.977 . S
Zn649 O659 1.910 . S
O650 Zn647 1.933 . S
O650 C661 1.226 1_556 S
O651 Zn649 1.932 . S
O651 C661 1.307 . S
O652 Zn645 1.919 . S
O652 C663 1.253 . S
O653 Zn647 1.941 . S
O653 C663 1.283 . S
O654 Zn647 1.965 . S
O654 C662 1.303 1_556 S
O655 Zn648 1.938 . S
O655 C662 1.247 . S
O656 Zn648 1.906 . S
O656 C664 1.304 . S
O657 Zn645 1.924 . S
O657 C665 1.311 . S
O658 Zn649 1.977 . S
O658 C664 1.272 . S
O659 Zn649 1.910 . S
O659 C665 1.231 1_554 S
C660 O644 1.225 . S
C660 O666 1.298 1_556 S
C661 O650 1.226 1_554 S
C661 O651 1.307 . S
C662 O654 1.303 1_554 S
C662 O655 1.247 . S
C663 O652 1.253 . S
C663 O653 1.283 . S
C664 O656 1.304 . S
C664 O658 1.272 . S
C665 O657 1.311 . S
C665 O659 1.231 1_556 S
O666 Zn648 1.953 . S
O666 C660 1.298 1_554 S
O667 Zn668 1.953 . S
O667 C683 1.225 . S
Zn668 O667 1.953 . S
Zn668 O669 1.940 1_556 S
Zn668 O675 1.919 . S
Zn668 O680 1.924 . S
O669 Zn668 1.940 1_554 S
O669 Zn670 1.918 1_554 S
O669 Zn671 1.958 . S
O669 Zn672 1.950 . S
Zn670 O669 1.918 1_556 S
Zn670 O673 1.933 . S
Zn670 O676 1.941 . S
Zn670 O677 1.965 . S
Zn671 O669 1.958 . S
Zn671 O678 1.938 . S
Zn671 O679 1.906 . S
Zn671 O689 1.953 . S
Zn672 O669 1.950 . S
Zn672 O674 1.932 . S
Zn672 O681 1.977 . S
Zn672 O682 1.910 . S
O673 Zn670 1.933 . S
O673 C684 1.226 1_556 S
O674 Zn672 1.932 . S
O674 C684 1.307 . S
O675 Zn668 1.919 . S
O675 C686 1.253 . S
O676 Zn670 1.941 . S
O676 C686 1.283 . S
O677 Zn670 1.965 . S
O677 C685 1.303 1_556 S
O678 Zn671 1.938 . S
O678 C685 1.247 . S
O679 Zn671 1.906 . S
O679 C687 1.304 . S
O680 Zn668 1.924 . S
O680 C688 1.311 . S
O681 Zn672 1.977 . S
O681 C687 1.272 . S
O682 Zn672 1.910 . S
O682 C688 1.231 1_554 S
C683 O667 1.225 . S
C683 O689 1.298 1_556 S
C684 O673 1.226 1_554 S
C684 O674 1.307 . S
C685 O677 1.303 1_554 S
C685 O678 1.247 . S
C686 O675 1.253 . S
C686 O676 1.283 . S
C687 O679 1.304 . S
C687 O681 1.272 . S
C688 O680 1.311 . S
C688 O682 1.231 1_556 S
O689 Zn671 1.953 . S
O689 C683 1.298 1_554 S
O690 Zn691 1.953 . S
O690 C706 1.225 . S
Zn691 O690 1.953 . S
Zn691 O692 1.949 . S
Zn691 O698 1.919 . S
Zn691 O703 1.924 . S
O692 Zn691 1.949 . S
O692 Zn693 1.923 . S
O692 Zn694 1.950 . S
O692 Zn695 1.945 . S
Zn693 O692 1.923 . S
Zn693 O696 1.933 . S
Zn693 O699 1.941 . S
Zn693 O700 1.965 . S
Zn694 O692 1.950 . S
Zn694 O701 1.938 . S
Zn694 O702 1.906 . S
Zn694 O712 1.953 . S
Zn695 O692 1.945 . S
Zn695 O697 1.932 . S
Zn695 O704 1.977 . S
Zn695 O705 1.910 . S
O696 Zn693 1.933 . S
O696 C707 1.226 . S
O697 Zn695 1.932 . S
O697 C707 1.307 . S
O698 Zn691 1.919 . S
O698 C709 1.253 . S
O699 Zn693 1.941 . S
O699 C709 1.283 . S
O700 Zn693 1.965 . S
O700 C708 1.303 . S
O701 Zn694 1.938 . S
O701 C708 1.247 . S
O702 Zn694 1.906 . S
O702 C710 1.304 . S
O703 Zn691 1.924 . S
O703 C711 1.311 . S
O704 Zn695 1.977 . S
O704 C710 1.272 . S
O705 Zn695 1.910 . S
O705 C711 1.231 . S
C706 O690 1.225 . S
C706 O712 1.298 . S
C707 O696 1.226 . S
C707 O697 1.307 . S
C708 O700 1.303 . S
C708 O701 1.247 . S
C709 O698 1.253 . S
C709 O699 1.283 . S
C710 O702 1.304 . S
C710 O704 1.272 . S
C711 O703 1.311 . S
C711 O705 1.231 . S
O712 Zn694 1.953 . S
O712 C706 1.298 . S
O713 Zn714 1.953 . S
O713 C729 1.225 . S
Zn714 O713 1.953 . S
Zn714 O715 1.949 . S
Zn714 O721 1.919 . S
Zn714 O726 1.924 . S
O715 Zn714 1.949 . S
O715 Zn716 1.923 . S
O715 Zn717 1.950 . S
O715 Zn718 1.945 . S
Zn716 O715 1.923 . S
Zn716 O719 1.933 . S
Zn716 O722 1.941 . S
Zn716 O723 1.965 . S
Zn717 O715 1.950 . S
Zn717 O724 1.938 . S
Zn717 O725 1.906 . S
Zn717 O735 1.953 . S
Zn718 O715 1.945 . S
Zn718 O720 1.932 . S
Zn718 O727 1.977 . S
Zn718 O728 1.910 . S
O719 Zn716 1.933 . S
O719 C730 1.226 . S
O720 Zn718 1.932 . S
O720 C730 1.307 . S
O721 Zn714 1.919 . S
O721 C732 1.253 . S
O722 Zn716 1.941 . S
O722 C732 1.283 . S
O723 Zn716 1.965 . S
O723 C731 1.303 . S
O724 Zn717 1.938 . S
O724 C731 1.247 . S
O725 Zn717 1.906 . S
O725 C733 1.304 . S
O726 Zn714 1.924 . S
O726 C734 1.311 . S
O727 Zn718 1.977 . S
O727 C733 1.272 . S
O728 Zn718 1.910 . S
O728 C734 1.231 . S
C729 O713 1.225 . S
C729 O735 1.298 . S
C730 O719 1.226 . S
C730 O720 1.307 . S
C731 O723 1.303 . S
C731 O724 1.247 . S
C732 O721 1.253 . S
C732 O722 1.283 . S
C733 O725 1.304 . S
C733 O727 1.272 . S
C734 O726 1.311 . S
C734 O728 1.231 . S
O735 Zn717 1.953 . S
O735 C729 1.298 . S
C736 C737 1.349 1_556 S
C736 C738 1.327 . S
C736 H761 0.950 . S
C737 C736 1.349 1_554 S
C737 C753 1.349 . S
C738 C736 1.327 . S
C738 C757 1.429 1_556 S
C738 H762 0.950 . S
C739 C756 1.574 . S
C739 C758 1.368 . S
C739 H763 0.949 . S
H740 C744 0.949 . S
C741 C742 1.349 . S
C741 C743 1.327 . S
C741 H764 0.950 . S
C742 C741 1.349 . S
C742 C754 1.349 1_554 S
C743 C741 1.327 . S
C743 C759 1.429 . S
C743 H765 0.950 . S
C744 H740 0.949 . S
C744 C752 1.574 . S
C744 C760 1.368 1_556 S
H745 C753 0.950 . S
H746 C751 0.950 . S
H747 C752 0.949 . S
H748 C754 0.950 . S
H749 C755 0.950 . S
H750 C756 0.949 . S
C751 H746 0.950 . S
C751 C753 1.327 . S
C751 C757 1.429 . S
C752 C744 1.574 . S
C752 H747 0.949 . S
C752 C758 1.368 1_556 S
C753 C737 1.349 . S
C753 H745 0.950 . S
C753 C751 1.327 . S
C754 C742 1.349 1_556 S
C754 H748 0.950 . S
C754 C755 1.327 . S
C755 H749 0.950 . S
C755 C754 1.327 . S
C755 C759 1.429 1_556 S
C756 C739 1.574 . S
C756 H750 0.949 . S
C756 C760 1.368 . S
C757 C738 1.429 1_554 S
C757 C751 1.429 . S
C757 C758 1.523 . S
C758 C739 1.368 . S
C758 C752 1.368 1_554 S
C758 C757 1.523 . S
C759 C743 1.429 . S
C759 C755 1.429 1_554 S
C759 C760 1.523 . S
C760 C744 1.368 1_554 S
C760 C756 1.368 . S
C760 C759 1.523 . S
H761 C736 0.950 . S
H762 C738 0.950 . S
H763 C739 0.949 . S
H764 C741 0.950 . S
H765 C743 0.950 . S
C766 C767 1.349 . S
C766 C768 1.327 . S
C766 H791 0.950 . S
C767 C766 1.349 . S
C767 C783 1.349 1_554 S
C768 C766 1.327 . S
C768 C787 1.429 . S
C768 H792 0.950 . S
C769 C786 1.574 . S
C769 C788 1.368 1_556 S
C769 H793 0.949 . S
H770 C774 0.949 . S
C771 C772 1.349 1_556 S
C771 C773 1.327 . S
C771 H794 0.950 . S
C772 C771 1.349 1_554 S
C772 C784 1.349 . S
C773 C771 1.327 . S
C773 C789 1.429 1_556 S
C773 H795 0.950 . S
C774 H770 0.949 . S
C774 C782 1.574 . S
C774 C790 1.368 . S
H775 C783 0.950 . S
H776 C781 0.950 . S
H777 C782 0.949 . S
H778 C784 0.950 . S
H779 C785 0.950 . S
H780 C786 0.949 . S
C781 H776 0.950 . S
C781 C783 1.327 . S
C781 C787 1.429 1_556 S
C782 C774 1.574 . S
C782 H777 0.949 . S
C782 C788 1.368 . S
C783 C767 1.349 1_556 S
C783 H775 0.950 . S
C783 C781 1.327 . S
C784 C772 1.349 . S
C784 H778 0.950 . S
C784 C785 1.327 . S
C785 H779 0.950 . S
C785 C784 1.327 . S
C785 C789 1.429 . S
C786 C769 1.574 . S
C786 H780 0.949 . S
C786 C790 1.368 1_556 S
C787 C768 1.429 . S
C787 C781 1.429 1_554 S
C787 C788 1.523 . S
C788 C769 1.368 1_554 S
C788 C782 1.368 . S
C788 C787 1.523 . S
C789 C773 1.429 1_554 S
C789 C785 1.429 . S
C789 C790 1.523 . S
C790 C774 1.368 . S
C790 C786 1.368 1_554 S
C790 C789 1.523 . S
H791 C766 0.950 . S
H792 C768 0.950 . S
H793 C769 0.949 . S
H794 C771 0.950 . S
H795 C773 0.950 . S
C796 C797 1.349 . S
C796 C798 1.327 . S
C796 H821 0.950 . S
C797 C796 1.349 . S
C797 C813 1.349 . S
C798 C796 1.327 . S
C798 C817 1.429 . S
C798 H822 0.950 . S
C799 C816 1.574 . S
C799 C818 1.368 . S
C799 H823 0.949 . S
H800 C804 0.949 . S
C801 C802 1.349 . S
C801 C803 1.327 . S
C801 H824 0.950 . S
C802 C801 1.349 . S
C802 C814 1.349 . S
C803 C801 1.327 . S
C803 C819 1.429 . S
C803 H825 0.950 . S
C804 H800 0.949 . S
C804 C812 1.574 . S
C804 C820 1.368 . S
H805 C813 0.950 . S
H806 C811 0.950 . S
H807 C812 0.949 . S
H808 C814 0.950 . S
H809 C815 0.950 . S
H810 C816 0.949 . S
C811 H806 0.950 . S
C811 C813 1.327 . S
C811 C817 1.429 . S
C812 C804 1.574 . S
C812 H807 0.949 . S
C812 C818 1.368 . S
C813 C797 1.349 . S
C813 H805 0.950 . S
C813 C811 1.327 . S
C814 C802 1.349 . S
C814 H808 0.950 . S
C814 C815 1.327 . S
C815 H809 0.950 . S
C815 C814 1.327 . S
C815 C819 1.429 . S
C816 C799 1.574 . S
C816 H810 0.949 . S
C816 C820 1.368 . S
C817 C798 1.429 . S
C817 C811 1.429 . S
C817 C818 1.523 . S
C818 C799 1.368 . S
C818 C812 1.368 . S
C818 C817 1.523 . S
C819 C803 1.429 . S
C819 C815 1.429 . S
C819 C820 1.523 . S
C820 C804 1.368 . S
C820 C816 1.368 . S
C820 C819 1.523 . S
H821 C796 0.950 . S
H822 C798 0.950 . S
H823 C799 0.949 . S
H824 C801 0.950 . S
H825 C803 0.950 . S
C826 C827 1.349 . S
C826 C828 1.327 . S
C826 H851 0.950 . S
C827 C826 1.349 . S
C827 C843 1.349 . S
C828 C826 1.327 . S
C828 C847 1.429 . S
C828 H852 0.950 . S
C829 C846 1.574 . S
C829 C848 1.368 . S
C829 H853 0.949 . S
H830 C834 0.949 . S
C831 C832 1.349 . S
C831 C833 1.327 . S
C831 H854 0.950 . S
C832 C831 1.349 . S
C832 C844 1.349 . S
C833 C831 1.327 . S
C833 C849 1.429 . S
C833 H855 0.950 . S
C834 H830 0.949 . S
C834 C842 1.574 . S
C834 C850 1.368 . S
H835 C843 0.950 . S
H836 C841 0.950 . S
H837 C842 0.949 . S
H838 C844 0.950 . S
H839 C845 0.950 . S
H840 C846 0.949 . S
C841 H836 0.950 . S
C841 C843 1.327 . S
C841 C847 1.429 . S
C842 C834 1.574 . S
C842 H837 0.949 . S
C842 C848 1.368 . S
C843 C827 1.349 . S
C843 H835 0.950 . S
C843 C841 1.327 . S
C844 C832 1.349 . S
C844 H838 0.950 . S
C844 C845 1.327 . S
C845 H839 0.950 . S
C845 C844 1.327 . S
C845 C849 1.429 . S
C846 C829 1.574 . S
C846 H840 0.949 . S
C846 C850 1.368 . S
C847 C828 1.429 . S
C847 C841 1.429 . S
C847 C848 1.523 . S
C848 C829 1.368 . S
C848 C842 1.368 . S
C848 C847 1.523 . S
C849 C833 1.429 . S
C849 C845 1.429 . S
C849 C850 1.523 . S
C850 C834 1.368 . S
C850 C846 1.368 . S
C850 C849 1.523 . S
H851 C826 0.950 . S
H852 C828 0.950 . S
H853 C829 0.949 . S
H854 C831 0.950 . S
H855 C833 0.950 . S
C856 C857 1.349 1_554 S
C856 C858 1.327 . S
C856 H881 0.950 . S
C857 C856 1.349 1_556 S
C857 C873 1.349 . S
C858 C856 1.327 . S
C858 C877 1.429 1_554 S
C858 H882 0.950 . S
C859 C876 1.574 . S
C859 C878 1.368 . S
C859 H883 0.949 . S
H860 C864 0.949 . S
C861 C862 1.349 . S
C861 C863 1.327 . S
C861 H884 0.950 . S
C862 C861 1.349 . S
C862 C874 1.349 1_556 S
C863 C861 1.327 . S
C863 C879 1.429 . S
C863 H885 0.950 . S
C864 H860 0.949 . S
C864 C872 1.574 . S
C864 C880 1.368 1_554 S
H865 C873 0.950 . S
H866 C871 0.950 . S
H867 C872 0.949 . S
H868 C874 0.950 . S
H869 C875 0.950 . S
H870 C876 0.949 . S
C871 H866 0.950 . S
C871 C873 1.327 . S
C871 C877 1.429 . S
C872 C864 1.574 . S
C872 H867 0.949 . S
C872 C878 1.368 1_554 S
C873 C857 1.349 . S
C873 H865 0.950 . S
C873 C871 1.327 . S
C874 C862 1.349 1_554 S
C874 H868 0.950 . S
C874 C875 1.327 . S
C875 H869 0.950 . S
C875 C874 1.327 . S
C875 C879 1.429 1_554 S
C876 C859 1.574 . S
C876 H870 0.949 . S
C876 C880 1.368 . S
C877 C858 1.429 1_556 S
C877 C871 1.429 . S
C877 C878 1.523 . S
C878 C859 1.368 . S
C878 C872 1.368 1_556 S
C878 C877 1.523 . S
C879 C863 1.429 . S
C879 C875 1.429 1_556 S
C879 C880 1.523 . S
C880 C864 1.368 1_556 S
C880 C876 1.368 . S
C880 C879 1.523 . S
H881 C856 0.950 . S
H882 C858 0.950 . S
H883 C859 0.949 . S
H884 C861 0.950 . S
H885 C863 0.950 . S
C886 C887 1.349 . S
C886 C888 1.327 . S
C886 H911 0.950 . S
C887 C886 1.349 . S
C887 C903 1.349 1_556 S
C888 C886 1.327 . S
C888 C907 1.429 . S
C888 H912 0.950 . S
C889 C906 1.574 . S
C889 C908 1.368 1_554 S
C889 H913 0.949 . S
H890 C894 0.949 . S
C891 C892 1.349 1_554 S
C891 C893 1.327 . S
C891 H914 0.950 . S
C892 C891 1.349 1_556 S
C892 C904 1.349 . S
C893 C891 1.327 . S
C893 C909 1.429 1_554 S
C893 H915 0.950 . S
C894 H890 0.949 . S
C894 C902 1.574 . S
C894 C910 1.368 . S
H895 C903 0.950 . S
H896 C901 0.950 . S
H897 C902 0.949 . S
H898 C904 0.950 . S
H899 C905 0.950 . S
H900 C906 0.949 . S
C901 H896 0.950 . S
C901 C903 1.327 . S
C901 C907 1.429 1_554 S
C902 C894 1.574 . S
C902 H897 0.949 . S
C902 C908 1.368 . S
C903 C887 1.349 1_554 S
C903 H895 0.950 . S
C903 C901 1.327 . S
C904 C892 1.349 . S
C904 H898 0.950 . S
C904 C905 1.327 . S
C905 H899 0.950 . S
C905 C904 1.327 . S
C905 C909 1.429 . S
C906 C889 1.574 . S
C906 H900 0.949 . S
C906 C910 1.368 1_554 S
C907 C888 1.429 . S
C907 C901 1.429 1_556 S
C907 C908 1.523 . S
C908 C889 1.368 1_556 S
C908 C902 1.368 . S
C908 C907 1.523 . S
C909 C893 1.429 1_556 S
C909 C905 1.429 . S
C909 C910 1.523 . S
C910 C894 1.368 . S
C910 C906 1.368 1_556 S
C910 C909 1.523 . S
H911 C886 0.950 . S
H912 C888 0.950 . S
H913 C889 0.949 . S
H914 C891 0.950 . S
H915 C893 0.950 . S
C916 C917 1.349 . S
C916 C918 1.327 . S
C916 H941 0.950 . S
C917 C916 1.349 . S
C917 C933 1.349 . S
C918 C916 1.327 . S
C918 C937 1.429 . S
C918 H942 0.950 . S
C919 C936 1.574 . S
C919 C938 1.368 . S
C919 H943 0.949 . S
H920 C924 0.949 . S
C921 C922 1.349 . S
C921 C923 1.327 . S
C921 H944 0.950 . S
C922 C921 1.349 . S
C922 C934 1.349 . S
C923 C921 1.327 . S
C923 C939 1.429 . S
C923 H945 0.950 . S
C924 H920 0.949 . S
C924 C932 1.574 . S
C924 C940 1.368 . S
H925 C933 0.950 . S
H926 C931 0.950 . S
H927 C932 0.949 . S
H928 C934 0.950 . S
H929 C935 0.950 . S
H930 C936 0.949 . S
C931 H926 0.950 . S
C931 C933 1.327 . S
C931 C937 1.429 . S
C932 C924 1.574 . S
C932 H927 0.949 . S
C932 C938 1.368 . S
C933 C917 1.349 . S
C933 H925 0.950 . S
C933 C931 1.327 . S
C934 C922 1.349 . S
C934 H928 0.950 . S
C934 C935 1.327 . S
C935 H929 0.950 . S
C935 C934 1.327 . S
C935 C939 1.429 . S
C936 C919 1.574 . S
C936 H930 0.949 . S
C936 C940 1.368 . S
C937 C918 1.429 . S
C937 C931 1.429 . S
C937 C938 1.523 . S
C938 C919 1.368 . S
C938 C932 1.368 . S
C938 C937 1.523 . S
C939 C923 1.429 . S
C939 C935 1.429 . S
C939 C940 1.523 . S
C940 C924 1.368 . S
C940 C936 1.368 . S
C940 C939 1.523 . S
H941 C916 0.950 . S
H942 C918 0.950 . S
H943 C919 0.949 . S
H944 C921 0.950 . S
H945 C923 0.950 . S
C946 C947 1.349 . S
C946 C948 1.327 . S
C946 H971 0.950 . S
C947 C946 1.349 . S
C947 C963 1.349 . S
C948 C946 1.327 . S
C948 C967 1.429 . S
C948 H972 0.950 . S
C949 C966 1.574 . S
C949 C968 1.368 . S
C949 H973 0.949 . S
H950 C954 0.949 . S
C951 C952 1.349 . S
C951 C953 1.327 . S
C951 H974 0.950 . S
C952 C951 1.349 . S
C952 C964 1.349 . S
C953 C951 1.327 . S
C953 C969 1.429 . S
C953 H975 0.950 . S
C954 H950 0.949 . S
C954 C962 1.574 . S
C954 C970 1.368 . S
H955 C963 0.950 . S
H956 C961 0.950 . S
H957 C962 0.949 . S
H958 C964 0.950 . S
H959 C965 0.950 . S
H960 C966 0.949 . S
C961 H956 0.950 . S
C961 C963 1.327 . S
C961 C967 1.429 . S
C962 C954 1.574 . S
C962 H957 0.949 . S
C962 C968 1.368 . S
C963 C947 1.349 . S
C963 H955 0.950 . S
C963 C961 1.327 . S
C964 C952 1.349 . S
C964 H958 0.950 . S
C964 C965 1.327 . S
C965 H959 0.950 . S
C965 C964 1.327 . S
C965 C969 1.429 . S
C966 C949 1.574 . S
C966 H960 0.949 . S
C966 C970 1.368 . S
C967 C948 1.429 . S
C967 C961 1.429 . S
C967 C968 1.523 . S
C968 C949 1.368 . S
C968 C962 1.368 . S
C968 C967 1.523 . S
C969 C953 1.429 . S
C969 C965 1.429 . S
C969 C970 1.523 . S
C970 C954 1.368 . S
C970 C966 1.368 . S
C970 C969 1.523 . S
H971 C946 0.950 . S
H972 C948 0.950 . S
H973 C949 0.949 . S
H974 C951 0.950 . S
H975 C953 0.950 . S
C976 C977 1.349 . S
C976 C978 1.327 . S
C976 H1001 0.950 . S
C977 C976 1.349 . S
C977 C993 1.349 . S
C978 C976 1.327 . S
C978 C997 1.429 . S
C978 H1002 0.950 . S
C979 C996 1.574 . S
C979 C998 1.368 . S
C979 H1003 0.949 . S
H980 C984 0.949 . S
C981 C982 1.349 . S
C981 C983 1.327 . S
C981 H1004 0.950 . S
C982 C981 1.349 . S
C982 C994 1.349 . S
C983 C981 1.327 . S
C983 C999 1.429 . S
C983 H1005 0.950 . S
C984 H980 0.949 . S
C984 C992 1.574 . S
C984 C1000 1.368 . S
H985 C993 0.950 . S
H986 C991 0.950 . S
H987 C992 0.949 . S
H988 C994 0.950 . S
H989 C995 0.950 . S
H990 C996 0.949 . S
C991 H986 0.950 . S
C991 C993 1.327 . S
C991 C997 1.429 . S
C992 C984 1.574 . S
C992 H987 0.949 . S
C992 C998 1.368 . S
C993 C977 1.349 . S
C993 H985 0.950 . S
C993 C991 1.327 . S
C994 C982 1.349 . S
C994 H988 0.950 . S
C994 C995 1.327 . S
C995 H989 0.950 . S
C995 C994 1.327 . S
C995 C999 1.429 . S
C996 C979 1.574 . S
C996 H990 0.949 . S
C996 C1000 1.368 . S
C997 C978 1.429 . S
C997 C991 1.429 . S
C997 C998 1.523 . S
C998 C979 1.368 . S
C998 C992 1.368 . S
C998 C997 1.523 . S
C999 C983 1.429 . S
C999 C995 1.429 . S
C999 C1000 1.523 . S
C1000 C984 1.368 . S
C1000 C996 1.368 . S
C1000 C999 1.523 . S
H1001 C976 0.950 . S
H1002 C978 0.950 . S
H1003 C979 0.949 . S
H1004 C981 0.950 . S
H1005 C983 0.950 . S
C1006 C1007 1.349 . S
C1006 C1008 1.327 . S
C1006 H1031 0.950 . S
C1007 C1006 1.349 . S
C1007 C1023 1.349 . S
C1008 C1006 1.327 . S
C1008 C1027 1.429 . S
C1008 H1032 0.950 . S
C1009 C1026 1.574 . S
C1009 C1028 1.368 . S
C1009 H1033 0.949 . S
H1010 C1014 0.949 . S
C1011 C1012 1.349 . S
C1011 C1013 1.327 . S
C1011 H1034 0.950 . S
C1012 C1011 1.349 . S
C1012 C1024 1.349 . S
C1013 C1011 1.327 . S
C1013 C1029 1.429 . S
C1013 H1035 0.950 . S
C1014 H1010 0.949 . S
C1014 C1022 1.574 . S
C1014 C1030 1.368 . S
H1015 C1023 0.950 . S
H1016 C1021 0.950 . S
H1017 C1022 0.949 . S
H1018 C1024 0.950 . S
H1019 C1025 0.950 . S
H1020 C1026 0.949 . S
C1021 H1016 0.950 . S
C1021 C1023 1.327 . S
C1021 C1027 1.429 . S
C1022 C1014 1.574 . S
C1022 H1017 0.949 . S
C1022 C1028 1.368 . S
C1023 C1007 1.349 . S
C1023 H1015 0.950 . S
C1023 C1021 1.327 . S
C1024 C1012 1.349 . S
C1024 H1018 0.950 . S
C1024 C1025 1.327 . S
C1025 H1019 0.950 . S
C1025 C1024 1.327 . S
C1025 C1029 1.429 . S
C1026 C1009 1.574 . S
C1026 H1020 0.949 . S
C1026 C1030 1.368 . S
C1027 C1008 1.429 . S
C1027 C1021 1.429 . S
C1027 C1028 1.523 . S
C1028 C1009 1.368 . S
C1028 C1022 1.368 . S
C1028 C1027 1.523 . S
C1029 C1013 1.429 . S
C1029 C1025 1.429 . S
C1029 C1030 1.523 . S
C1030 C1014 1.368 . S
C1030 C1026 1.368 . S
C1030 C1029 1.523 . S
H1031 C1006 0.950 . S
H1032 C1008 0.950 . S
H1033 C1009 0.949 . S
H1034 C1011 0.950 . S
H1035 C1013 0.950 . S
C1036 C1037 1.349 . S
C1036 C1038 1.327 . S
C1036 H1061 0.950 . S
C1037 C1036 1.349 . S
C1037 C1053 1.349 . S
C1038 C1036 1.327 . S
C1038 C1057 1.429 . S
C1038 H1062 0.950 . S
C1039 C1056 1.574 . S
C1039 C1058 1.368 . S
C1039 H1063 0.949 . S
H1040 C1044 0.949 . S
C1041 C1042 1.349 . S
C1041 C1043 1.327 . S
C1041 H1064 0.950 . S
C1042 C1041 1.349 . S
C1042 C1054 1.349 . S
C1043 C1041 1.327 . S
C1043 C1059 1.429 . S
C1043 H1065 0.950 . S
C1044 H1040 0.949 . S
C1044 C1052 1.574 . S
C1044 C1060 1.368 . S
H1045 C1053 0.950 . S
H1046 C1051 0.950 . S
H1047 C1052 0.949 . S
H1048 C1054 0.950 . S
H1049 C1055 0.950 . S
H1050 C1056 0.949 . S
C1051 H1046 0.950 . S
C1051 C1053 1.327 . S
C1051 C1057 1.429 . S
C1052 C1044 1.574 . S
C1052 H1047 0.949 . S
C1052 C1058 1.368 . S
C1053 C1037 1.349 . S
C1053 H1045 0.950 . S
C1053 C1051 1.327 . S
C1054 C1042 1.349 . S
C1054 H1048 0.950 . S
C1054 C1055 1.327 . S
C1055 H1049 0.950 . S
C1055 C1054 1.327 . S
C1055 C1059 1.429 . S
C1056 C1039 1.574 . S
C1056 H1050 0.949 . S
C1056 C1060 1.368 . S
C1057 C1038 1.429 . S
C1057 C1051 1.429 . S
C1057 C1058 1.523 . S
C1058 C1039 1.368 . S
C1058 C1052 1.368 . S
C1058 C1057 1.523 . S
C1059 C1043 1.429 . S
C1059 C1055 1.429 . S
C1059 C1060 1.523 . S
C1060 C1044 1.368 . S
C1060 C1056 1.368 . S
C1060 C1059 1.523 . S
H1061 C1036 0.950 . S
H1062 C1038 0.950 . S
H1063 C1039 0.949 . S
H1064 C1041 0.950 . S
H1065 C1043 0.950 . S
C1066 C1067 1.349 . S
C1066 C1068 1.327 . S
C1066 H1091 0.950 . S
C1067 C1066 1.349 . S
C1067 C1083 1.349 . S
C1068 C1066 1.327 . S
C1068 C1087 1.429 . S
C1068 H1092 0.950 . S
C1069 C1086 1.574 . S
C1069 C1088 1.368 . S
C1069 H1093 0.949 . S
H1070 C1074 0.949 . S
C1071 C1072 1.349 . S
C1071 C1073 1.327 . S
C1071 H1094 0.950 . S
C1072 C1071 1.349 . S
C1072 C1084 1.349 . S
C1073 C1071 1.327 . S
C1073 C1089 1.429 . S
C1073 H1095 0.950 . S
C1074 H1070 0.949 . S
C1074 C1082 1.574 . S
C1074 C1090 1.368 . S
H1075 C1083 0.950 . S
H1076 C1081 0.950 . S
H1077 C1082 0.949 . S
H1078 C1084 0.950 . S
H1079 C1085 0.950 . S
H1080 C1086 0.949 . S
C1081 H1076 0.950 . S
C1081 C1083 1.327 . S
C1081 C1087 1.429 . S
C1082 C1074 1.574 . S
C1082 H1077 0.949 . S
C1082 C1088 1.368 . S
C1083 C1067 1.349 . S
C1083 H1075 0.950 . S
C1083 C1081 1.327 . S
C1084 C1072 1.349 . S
C1084 H1078 0.950 . S
C1084 C1085 1.327 . S
C1085 H1079 0.950 . S
C1085 C1084 1.327 . S
C1085 C1089 1.429 . S
C1086 C1069 1.574 . S
C1086 H1080 0.949 . S
C1086 C1090 1.368 . S
C1087 C1068 1.429 . S
C1087 C1081 1.429 . S
C1087 C1088 1.523 . S
C1088 C1069 1.368 . S
C1088 C1082 1.368 . S
C1088 C1087 1.523 . S
C1089 C1073 1.429 . S
C1089 C1085 1.429 . S
C1089 C1090 1.523 . S
C1090 C1074 1.368 . S
C1090 C1086 1.368 . S
C1090 C1089 1.523 . S
H1091 C1066 0.950 . S
H1092 C1068 0.950 . S
H1093 C1069 0.949 . S
H1094 C1071 0.950 . S
H1095 C1073 0.950 . S
C1096 C1097 1.349 . S
C1096 C1098 1.327 . S
C1096 H1121 0.950 . S
C1097 C1096 1.349 . S
C1097 C1113 1.349 . S
C1098 C1096 1.327 . S
C1098 C1117 1.429 . S
C1098 H1122 0.950 . S
C1099 C1116 1.574 . S
C1099 C1118 1.368 . S
C1099 H1123 0.949 . S
H1100 C1104 0.949 . S
C1101 C1102 1.349 . S
C1101 C1103 1.327 . S
C1101 H1124 0.950 . S
C1102 C1101 1.349 . S
C1102 C1114 1.349 . S
C1103 C1101 1.327 . S
C1103 C1119 1.429 . S
C1103 H1125 0.950 . S
C1104 H1100 0.949 . S
C1104 C1112 1.574 . S
C1104 C1120 1.368 . S
H1105 C1113 0.950 . S
H1106 C1111 0.950 . S
H1107 C1112 0.949 . S
H1108 C1114 0.950 . S
H1109 C1115 0.950 . S
H1110 C1116 0.949 . S
C1111 H1106 0.950 . S
C1111 C1113 1.327 . S
C1111 C1117 1.429 . S
C1112 C1104 1.574 . S
C1112 H1107 0.949 . S
C1112 C1118 1.368 . S
C1113 C1097 1.349 . S
C1113 H1105 0.950 . S
C1113 C1111 1.327 . S
C1114 C1102 1.349 . S
C1114 H1108 0.950 . S
C1114 C1115 1.327 . S
C1115 H1109 0.950 . S
C1115 C1114 1.327 . S
C1115 C1119 1.429 . S
C1116 C1099 1.574 . S
C1116 H1110 0.949 . S
C1116 C1120 1.368 . S
C1117 C1098 1.429 . S
C1117 C1111 1.429 . S
C1117 C1118 1.523 . S
C1118 C1099 1.368 . S
C1118 C1112 1.368 . S
C1118 C1117 1.523 . S
C1119 C1103 1.429 . S
C1119 C1115 1.429 . S
C1119 C1120 1.523 . S
C1120 C1104 1.368 . S
C1120 C1116 1.368 . S
C1120 C1119 1.523 . S
H1121 C1096 0.950 . S
H1122 C1098 0.950 . S
H1123 C1099 0.949 . S
H1124 C1101 0.950 . S
H1125 C1103 0.950 . S
C1126 C1127 1.349 . S
C1126 C1128 1.327 . S
C1126 H1151 0.950 . S
C1127 C1126 1.349 . S
C1127 C1143 1.349 . S
C1128 C1126 1.327 . S
C1128 C1147 1.429 . S
C1128 H1152 0.950 . S
C1129 C1146 1.574 . S
C1129 C1148 1.368 . S
C1129 H1153 0.949 . S
H1130 C1134 0.949 . S
C1131 C1132 1.349 . S
C1131 C1133 1.327 . S
C1131 H1154 0.950 . S
C1132 C1131 1.349 . S
C1132 C1144 1.349 . S
C1133 C1131 1.327 . S
C1133 C1149 1.429 . S
C1133 H1155 0.950 . S
C1134 H1130 0.949 . S
C1134 C1142 1.574 . S
C1134 C1150 1.368 . S
H1135 C1143 0.950 . S
H1136 C1141 0.950 . S
H1137 C1142 0.949 . S
H1138 C1144 0.950 . S
H1139 C1145 0.950 . S
H1140 C1146 0.949 . S
C1141 H1136 0.950 . S
C1141 C1143 1.327 . S
C1141 C1147 1.429 . S
C1142 C1134 1.574 . S
C1142 H1137 0.949 . S
C1142 C1148 1.368 . S
C1143 C1127 1.349 . S
C1143 H1135 0.950 . S
C1143 C1141 1.327 . S
C1144 C1132 1.349 . S
C1144 H1138 0.950 . S
C1144 C1145 1.327 . S
C1145 H1139 0.950 . S
C1145 C1144 1.327 . S
C1145 C1149 1.429 . S
C1146 C1129 1.574 . S
C1146 H1140 0.949 . S
C1146 C1150 1.368 . S
C1147 C1128 1.429 . S
C1147 C1141 1.429 . S
C1147 C1148 1.523 . S
C1148 C1129 1.368 . S
C1148 C1142 1.368 . S
C1148 C1147 1.523 . S
C1149 C1133 1.429 . S
C1149 C1145 1.429 . S
C1149 C1150 1.523 . S
C1150 C1134 1.368 . S
C1150 C1146 1.368 . S
C1150 C1149 1.523 . S
H1151 C1126 0.950 . S
H1152 C1128 0.950 . S
H1153 C1129 0.949 . S
H1154 C1131 0.950 . S
H1155 C1133 0.950 . S
C1156 C1157 1.349 . S
C1156 C1158 1.327 . S
C1156 H1181 0.950 . S
C1157 C1156 1.349 . S
C1157 C1173 1.349 . S
C1158 C1156 1.327 . S
C1158 C1177 1.429 . S
C1158 H1182 0.950 . S
C1159 C1176 1.574 . S
C1159 C1178 1.368 . S
C1159 H1183 0.949 . S
H1160 C1164 0.949 . S
C1161 C1162 1.349 . S
C1161 C1163 1.327 . S
C1161 H1184 0.950 . S
C1162 C1161 1.349 . S
C1162 C1174 1.349 . S
C1163 C1161 1.327 . S
C1163 C1179 1.429 . S
C1163 H1185 0.950 . S
C1164 H1160 0.949 . S
C1164 C1172 1.574 . S
C1164 C1180 1.368 . S
H1165 C1173 0.950 . S
H1166 C1171 0.950 . S
H1167 C1172 0.949 . S
H1168 C1174 0.950 . S
H1169 C1175 0.950 . S
H1170 C1176 0.949 . S
C1171 H1166 0.950 . S
C1171 C1173 1.327 . S
C1171 C1177 1.429 . S
C1172 C1164 1.574 . S
C1172 H1167 0.949 . S
C1172 C1178 1.368 . S
C1173 C1157 1.349 . S
C1173 H1165 0.950 . S
C1173 C1171 1.327 . S
C1174 C1162 1.349 . S
C1174 H1168 0.950 . S
C1174 C1175 1.327 . S
C1175 H1169 0.950 . S
C1175 C1174 1.327 . S
C1175 C1179 1.429 . S
C1176 C1159 1.574 . S
C1176 H1170 0.949 . S
C1176 C1180 1.368 . S
C1177 C1158 1.429 . S
C1177 C1171 1.429 . S
C1177 C1178 1.523 . S
C1178 C1159 1.368 . S
C1178 C1172 1.368 . S
C1178 C1177 1.523 . S
C1179 C1163 1.429 . S
C1179 C1175 1.429 . S
C1179 C1180 1.523 . S
C1180 C1164 1.368 . S
C1180 C1176 1.368 . S
C1180 C1179 1.523 . S
H1181 C1156 0.950 . S
H1182 C1158 0.950 . S
H1183 C1159 0.949 . S
H1184 C1161 0.950 . S
H1185 C1163 0.950 . S
C1186 C1187 1.349 . S
C1186 C1188 1.327 . S
C1186 H1211 0.950 . S
C1187 C1186 1.349 . S
C1187 C1203 1.349 . S
C1188 C1186 1.327 . S
C1188 C1207 1.429 . S
C1188 H1212 0.950 . S
C1189 C1206 1.574 . S
C1189 C1208 1.368 . S
C1189 H1213 0.949 . S
H1190 C1194 0.949 . S
C1191 C1192 1.349 . S
C1191 C1193 1.327 . S
C1191 H1214 0.950 . S
C1192 C1191 1.349 . S
C1192 C1204 1.349 . S
C1193 C1191 1.327 . S
C1193 C1209 1.429 . S
C1193 H1215 0.950 . S
C1194 H1190 0.949 . S
C1194 C1202 1.574 . S
C1194 C1210 1.368 . S
H1195 C1203 0.950 . S
H1196 C1201 0.950 . S
H1197 C1202 0.949 . S
H1198 C1204 0.950 . S
H1199 C1205 0.950 . S
H1200 C1206 0.949 . S
C1201 H1196 0.950 . S
C1201 C1203 1.327 . S
C1201 C1207 1.429 . S
C1202 C1194 1.574 . S
C1202 H1197 0.949 . S
C1202 C1208 1.368 . S
C1203 C1187 1.349 . S
C1203 H1195 0.950 . S
C1203 C1201 1.327 . S
C1204 C1192 1.349 . S
C1204 H1198 0.950 . S
C1204 C1205 1.327 . S
C1205 H1199 0.950 . S
C1205 C1204 1.327 . S
C1205 C1209 1.429 . S
C1206 C1189 1.574 . S
C1206 H1200 0.949 . S
C1206 C1210 1.368 . S
C1207 C1188 1.429 . S
C1207 C1201 1.429 . S
C1207 C1208 1.523 . S
C1208 C1189 1.368 . S
C1208 C1202 1.368 . S
C1208 C1207 1.523 . S
C1209 C1193 1.429 . S
C1209 C1205 1.429 . S
C1209 C1210 1.523 . S
C1210 C1194 1.368 . S
C1210 C1206 1.368 . S
C1210 C1209 1.523 . S
H1211 C1186 0.950 . S
H1212 C1188 0.950 . S
H1213 C1189 0.949 . S
H1214 C1191 0.950 . S
H1215 C1193 0.950 . S
C1216 C1217 1.349 . S
C1216 C1218 1.327 . S
C1216 H1241 0.950 . S
C1217 C1216 1.349 . S
C1217 C1233 1.349 . S
C1218 C1216 1.327 . S
C1218 C1237 1.429 . S
C1218 H1242 0.950 . S
C1219 C1236 1.574 . S
C1219 C1238 1.368 . S
C1219 H1243 0.949 . S
H1220 C1224 0.949 . S
C1221 C1222 1.349 . S
C1221 C1223 1.327 . S
C1221 H1244 0.950 . S
C1222 C1221 1.349 . S
C1222 C1234 1.349 . S
C1223 C1221 1.327 . S
C1223 C1239 1.429 . S
C1223 H1245 0.950 . S
C1224 H1220 0.949 . S
C1224 C1232 1.574 . S
C1224 C1240 1.368 . S
H1225 C1233 0.950 . S
H1226 C1231 0.950 . S
H1227 C1232 0.949 . S
H1228 C1234 0.950 . S
H1229 C1235 0.950 . S
H1230 C1236 0.949 . S
C1231 H1226 0.950 . S
C1231 C1233 1.327 . S
C1231 C1237 1.429 . S
C1232 C1224 1.574 . S
C1232 H1227 0.949 . S
C1232 C1238 1.368 . S
C1233 C1217 1.349 . S
C1233 H1225 0.950 . S
C1233 C1231 1.327 . S
C1234 C1222 1.349 . S
C1234 H1228 0.950 . S
C1234 C1235 1.327 . S
C1235 H1229 0.950 . S
C1235 C1234 1.327 . S
C1235 C1239 1.429 . S
C1236 C1219 1.574 . S
C1236 H1230 0.949 . S
C1236 C1240 1.368 . S
C1237 C1218 1.429 . S
C1237 C1231 1.429 . S
C1237 C1238 1.523 . S
C1238 C1219 1.368 . S
C1238 C1232 1.368 . S
C1238 C1237 1.523 . S
C1239 C1223 1.429 . S
C1239 C1235 1.429 . S
C1239 C1240 1.523 . S
C1240 C1224 1.368 . S
C1240 C1236 1.368 . S
C1240 C1239 1.523 . S
H1241 C1216 0.950 . S
H1242 C1218 0.950 . S
H1243 C1219 0.949 . S
H1244 C1221 0.950 . S
H1245 C1223 0.950 . S
C1246 C1247 1.349 . S
C1246 C1248 1.327 . S
C1246 H1271 0.950 . S
C1247 C1246 1.349 . S
C1247 C1263 1.349 . S
C1248 C1246 1.327 . S
C1248 C1267 1.429 . S
C1248 H1272 0.950 . S
C1249 C1266 1.574 . S
C1249 C1268 1.368 . S
C1249 H1273 0.949 . S
H1250 C1254 0.949 . S
C1251 C1252 1.349 . S
C1251 C1253 1.327 . S
C1251 H1274 0.950 . S
C1252 C1251 1.349 . S
C1252 C1264 1.349 . S
C1253 C1251 1.327 . S
C1253 C1269 1.429 . S
C1253 H1275 0.950 . S
C1254 H1250 0.949 . S
C1254 C1262 1.574 . S
C1254 C1270 1.368 . S
H1255 C1263 0.950 . S
H1256 C1261 0.950 . S
H1257 C1262 0.949 . S
H1258 C1264 0.950 . S
H1259 C1265 0.950 . S
H1260 C1266 0.949 . S
C1261 H1256 0.950 . S
C1261 C1263 1.327 . S
C1261 C1267 1.429 . S
C1262 C1254 1.574 . S
C1262 H1257 0.949 . S
C1262 C1268 1.368 . S
C1263 C1247 1.349 . S
C1263 H1255 0.950 . S
C1263 C1261 1.327 . S
C1264 C1252 1.349 . S
C1264 H1258 0.950 . S
C1264 C1265 1.327 . S
C1265 H1259 0.950 . S
C1265 C1264 1.327 . S
C1265 C1269 1.429 . S
C1266 C1249 1.574 . S
C1266 H1260 0.949 . S
C1266 C1270 1.368 . S
C1267 C1248 1.429 . S
C1267 C1261 1.429 . S
C1267 C1268 1.523 . S
C1268 C1249 1.368 . S
C1268 C1262 1.368 . S
C1268 C1267 1.523 . S
C1269 C1253 1.429 . S
C1269 C1265 1.429 . S
C1269 C1270 1.523 . S
C1270 C1254 1.368 . S
C1270 C1266 1.368 . S
C1270 C1269 1.523 . S
H1271 C1246 0.950 . S
H1272 C1248 0.950 . S
H1273 C1249 0.949 . S
H1274 C1251 0.950 . S
H1275 C1253 0.950 . S
C1276 C1277 1.349 . S
C1276 C1278 1.327 . S
C1276 H1301 0.950 . S
C1277 C1276 1.349 . S
C1277 C1293 1.349 . S
C1278 C1276 1.327 . S
C1278 C1297 1.429 . S
C1278 H1302 0.950 . S
C1279 C1296 1.574 . S
C1279 C1298 1.368 . S
C1279 H1303 0.949 . S
H1280 C1284 0.949 . S
C1281 C1282 1.349 . S
C1281 C1283 1.327 . S
C1281 H1304 0.950 . S
C1282 C1281 1.349 . S
C1282 C1294 1.349 . S
C1283 C1281 1.327 . S
C1283 C1299 1.429 . S
C1283 H1305 0.950 . S
C1284 H1280 0.949 . S
C1284 C1292 1.574 . S
C1284 C1300 1.368 . S
H1285 C1293 0.950 . S
H1286 C1291 0.950 . S
H1287 C1292 0.949 . S
H1288 C1294 0.950 . S
H1289 C1295 0.950 . S
H1290 C1296 0.949 . S
C1291 H1286 0.950 . S
C1291 C1293 1.327 . S
C1291 C1297 1.429 . S
C1292 C1284 1.574 . S
C1292 H1287 0.949 . S
C1292 C1298 1.368 . S
C1293 C1277 1.349 . S
C1293 H1285 0.950 . S
C1293 C1291 1.327 . S
C1294 C1282 1.349 . S
C1294 H1288 0.950 . S
C1294 C1295 1.327 . S
C1295 H1289 0.950 . S
C1295 C1294 1.327 . S
C1295 C1299 1.429 . S
C1296 C1279 1.574 . S
C1296 H1290 0.949 . S
C1296 C1300 1.368 . S
C1297 C1278 1.429 . S
C1297 C1291 1.429 . S
C1297 C1298 1.523 . S
C1298 C1279 1.368 . S
C1298 C1292 1.368 . S
C1298 C1297 1.523 . S
C1299 C1283 1.429 . S
C1299 C1295 1.429 . S
C1299 C1300 1.523 . S
C1300 C1284 1.368 . S
C1300 C1296 1.368 . S
C1300 C1299 1.523 . S
H1301 C1276 0.950 . S
H1302 C1278 0.950 . S
H1303 C1279 0.949 . S
H1304 C1281 0.950 . S
H1305 C1283 0.950 . S
C1306 C1307 1.349 . S
C1306 C1308 1.327 . S
C1306 H1331 0.950 . S
C1307 C1306 1.349 . S
C1307 C1323 1.349 . S
C1308 C1306 1.327 . S
C1308 C1327 1.429 . S
C1308 H1332 0.950 . S
C1309 C1326 1.574 . S
C1309 C1328 1.368 . S
C1309 H1333 0.949 . S
H1310 C1314 0.949 . S
C1311 C1312 1.349 . S
C1311 C1313 1.327 . S
C1311 H1334 0.950 . S
C1312 C1311 1.349 . S
C1312 C1324 1.349 . S
C1313 C1311 1.327 . S
C1313 C1329 1.429 . S
C1313 H1335 0.950 . S
C1314 H1310 0.949 . S
C1314 C1322 1.574 . S
C1314 C1330 1.368 . S
H1315 C1323 0.950 . S
H1316 C1321 0.950 . S
H1317 C1322 0.949 . S
H1318 C1324 0.950 . S
H1319 C1325 0.950 . S
H1320 C1326 0.949 . S
C1321 H1316 0.950 . S
C1321 C1323 1.327 . S
C1321 C1327 1.429 . S
C1322 C1314 1.574 . S
C1322 H1317 0.949 . S
C1322 C1328 1.368 . S
C1323 C1307 1.349 . S
C1323 H1315 0.950 . S
C1323 C1321 1.327 . S
C1324 C1312 1.349 . S
C1324 H1318 0.950 . S
C1324 C1325 1.327 . S
C1325 H1319 0.950 . S
C1325 C1324 1.327 . S
C1325 C1329 1.429 . S
C1326 C1309 1.574 . S
C1326 H1320 0.949 . S
C1326 C1330 1.368 . S
C1327 C1308 1.429 . S
C1327 C1321 1.429 . S
C1327 C1328 1.523 . S
C1328 C1309 1.368 . S
C1328 C1322 1.368 . S
C1328 C1327 1.523 . S
C1329 C1313 1.429 . S
C1329 C1325 1.429 . S
C1329 C1330 1.523 . S
C1330 C1314 1.368 . S
C1330 C1326 1.368 . S
C1330 C1329 1.523 . S
H1331 C1306 0.950 . S
H1332 C1308 0.950 . S
H1333 C1309 0.949 . S
H1334 C1311 0.950 . S
H1335 C1313 0.950 . S
C1336 C1337 1.349 . S
C1336 C1338 1.327 . S
C1336 H1361 0.950 . S
C1337 C1336 1.349 . S
C1337 C1353 1.349 . S
C1338 C1336 1.327 . S
C1338 C1357 1.429 . S
C1338 H1362 0.950 . S
C1339 C1356 1.574 . S
C1339 C1358 1.368 . S
C1339 H1363 0.949 . S
H1340 C1344 0.949 . S
C1341 C1342 1.349 . S
C1341 C1343 1.327 . S
C1341 H1364 0.950 . S
C1342 C1341 1.349 . S
C1342 C1354 1.349 . S
C1343 C1341 1.327 . S
C1343 C1359 1.429 . S
C1343 H1365 0.950 . S
C1344 H1340 0.949 . S
C1344 C1352 1.574 . S
C1344 C1360 1.368 . S
H1345 C1353 0.950 . S
H1346 C1351 0.950 . S
H1347 C1352 0.949 . S
H1348 C1354 0.950 . S
H1349 C1355 0.950 . S
H1350 C1356 0.949 . S
C1351 H1346 0.950 . S
C1351 C1353 1.327 . S
C1351 C1357 1.429 . S
C1352 C1344 1.574 . S
C1352 H1347 0.949 . S
C1352 C1358 1.368 . S
C1353 C1337 1.349 . S
C1353 H1345 0.950 . S
C1353 C1351 1.327 . S
C1354 C1342 1.349 . S
C1354 H1348 0.950 . S
C1354 C1355 1.327 . S
C1355 H1349 0.950 . S
C1355 C1354 1.327 . S
C1355 C1359 1.429 . S
C1356 C1339 1.574 . S
C1356 H1350 0.949 . S
C1356 C1360 1.368 . S
C1357 C1338 1.429 . S
C1357 C1351 1.429 . S
C1357 C1358 1.523 . S
C1358 C1339 1.368 . S
C1358 C1352 1.368 . S
C1358 C1357 1.523 . S
C1359 C1343 1.429 . S
C1359 C1355 1.429 . S
C1359 C1360 1.523 . S
C1360 C1344 1.368 . S
C1360 C1356 1.368 . S
C1360 C1359 1.523 . S
H1361 C1336 0.950 . S
H1362 C1338 0.950 . S
H1363 C1339 0.949 . S
H1364 C1341 0.950 . S
H1365 C1343 0.950 . S
C1366 C1367 1.349 . S
C1366 C1368 1.327 . S
C1366 H1391 0.950 . S
C1367 C1366 1.349 . S
C1367 C1383 1.349 . S
C1368 C1366 1.327 . S
C1368 C1387 1.429 . S
C1368 H1392 0.950 . S
C1369 C1386 1.574 . S
C1369 C1388 1.368 . S
C1369 H1393 0.949 . S
H1370 C1374 0.949 . S
C1371 C1372 1.349 . S
C1371 C1373 1.327 . S
C1371 H1394 0.950 . S
C1372 C1371 1.349 . S
C1372 C1384 1.349 . S
C1373 C1371 1.327 . S
C1373 C1389 1.429 . S
C1373 H1395 0.950 . S
C1374 H1370 0.949 . S
C1374 C1382 1.574 . S
C1374 C1390 1.368 . S
H1375 C1383 0.950 . S
H1376 C1381 0.950 . S
H1377 C1382 0.949 . S
H1378 C1384 0.950 . S
H1379 C1385 0.950 . S
H1380 C1386 0.949 . S
C1381 H1376 0.950 . S
C1381 C1383 1.327 . S
C1381 C1387 1.429 . S
C1382 C1374 1.574 . S
C1382 H1377 0.949 . S
C1382 C1388 1.368 . S
C1383 C1367 1.349 . S
C1383 H1375 0.950 . S
C1383 C1381 1.327 . S
C1384 C1372 1.349 . S
C1384 H1378 0.950 . S
C1384 C1385 1.327 . S
C1385 H1379 0.950 . S
C1385 C1384 1.327 . S
C1385 C1389 1.429 . S
C1386 C1369 1.574 . S
C1386 H1380 0.949 . S
C1386 C1390 1.368 . S
C1387 C1368 1.429 . S
C1387 C1381 1.429 . S
C1387 C1388 1.523 . S
C1388 C1369 1.368 . S
C1388 C1382 1.368 . S
C1388 C1387 1.523 . S
C1389 C1373 1.429 . S
C1389 C1385 1.429 . S
C1389 C1390 1.523 . S
C1390 C1374 1.368 . S
C1390 C1386 1.368 . S
C1390 C1389 1.523 . S
H1391 C1366 0.950 . S
H1392 C1368 0.950 . S
H1393 C1369 0.949 . S
H1394 C1371 0.950 . S
H1395 C1373 0.950 . S
C1396 C1397 1.349 . S
C1396 C1398 1.327 . S
C1396 H1421 0.950 . S
C1397 C1396 1.349 . S
C1397 C1413 1.349 . S
C1398 C1396 1.327 . S
C1398 C1417 1.429 . S
C1398 H1422 0.950 . S
C1399 C1416 1.574 . S
C1399 C1418 1.368 . S
C1399 H1423 0.949 . S
H1400 C1404 0.949 . S
C1401 C1402 1.349 . S
C1401 C1403 1.327 . S
C1401 H1424 0.950 . S
C1402 C1401 1.349 . S
C1402 C1414 1.349 . S
C1403 C1401 1.327 . S
C1403 C1419 1.429 . S
C1403 H1425 0.950 . S
C1404 H1400 0.949 . S
C1404 C1412 1.574 . S
C1404 C1420 1.368 . S
H1405 C1413 0.950 . S
H1406 C1411 0.950 . S
H1407 C1412 0.949 . S
H1408 C1414 0.950 . S
H1409 C1415 0.950 . S
H1410 C1416 0.949 . S
C1411 H1406 0.950 . S
C1411 C1413 1.327 . S
C1411 C1417 1.429 . S
C1412 C1404 1.574 . S
C1412 H1407 0.949 . S
C1412 C1418 1.368 . S
C1413 C1397 1.349 . S
C1413 H1405 0.950 . S
C1413 C1411 1.327 . S
C1414 C1402 1.349 . S
C1414 H1408 0.950 . S
C1414 C1415 1.327 . S
C1415 H1409 0.950 . S
C1415 C1414 1.327 . S
C1415 C1419 1.429 . S
C1416 C1399 1.574 . S
C1416 H1410 0.949 . S
C1416 C1420 1.368 . S
C1417 C1398 1.429 . S
C1417 C1411 1.429 . S
C1417 C1418 1.523 . S
C1418 C1399 1.368 . S
C1418 C1412 1.368 . S
C1418 C1417 1.523 . S
C1419 C1403 1.429 . S
C1419 C1415 1.429 . S
C1419 C1420 1.523 . S
C1420 C1404 1.368 . S
C1420 C1416 1.368 . S
C1420 C1419 1.523 . S
H1421 C1396 0.950 . S
H1422 C1398 0.950 . S
H1423 C1399 0.949 . S
H1424 C1401 0.950 . S
H1425 C1403 0.950 . S
C1426 C1427 1.349 . S
C1426 C1428 1.327 . S
C1426 H1451 0.950 . S
C1427 C1426 1.349 . S
C1427 C1443 1.349 . S
C1428 C1426 1.327 . S
C1428 C1447 1.429 . S
C1428 H1452 0.950 . S
C1429 C1446 1.574 . S
C1429 C1448 1.368 . S
C1429 H1453 0.949 . S
H1430 C1434 0.949 . S
C1431 C1432 1.349 . S
C1431 C1433 1.327 . S
C1431 H1454 0.950 . S
C1432 C1431 1.349 . S
C1432 C1444 1.349 . S
C1433 C1431 1.327 . S
C1433 C1449 1.429 . S
C1433 H1455 0.950 . S
C1434 H1430 0.949 . S
C1434 C1442 1.574 . S
C1434 C1450 1.368 . S
H1435 C1443 0.950 . S
H1436 C1441 0.950 . S
H1437 C1442 0.949 . S
H1438 C1444 0.950 . S
H1439 C1445 0.950 . S
H1440 C1446 0.949 . S
C1441 H1436 0.950 . S
C1441 C1443 1.327 . S
C1441 C1447 1.429 . S
C1442 C1434 1.574 . S
C1442 H1437 0.949 . S
C1442 C1448 1.368 . S
C1443 C1427 1.349 . S
C1443 H1435 0.950 . S
C1443 C1441 1.327 . S
C1444 C1432 1.349 . S
C1444 H1438 0.950 . S
C1444 C1445 1.327 . S
C1445 H1439 0.950 . S
C1445 C1444 1.327 . S
C1445 C1449 1.429 . S
C1446 C1429 1.574 . S
C1446 H1440 0.949 . S
C1446 C1450 1.368 . S
C1447 C1428 1.429 . S
C1447 C1441 1.429 . S
C1447 C1448 1.523 . S
C1448 C1429 1.368 . S
C1448 C1442 1.368 . S
C1448 C1447 1.523 . S
C1449 C1433 1.429 . S
C1449 C1445 1.429 . S
C1449 C1450 1.523 . S
C1450 C1434 1.368 . S
C1450 C1446 1.368 . S
C1450 C1449 1.523 . S
H1451 C1426 0.950 . S
H1452 C1428 0.950 . S
H1453 C1429 0.949 . S
H1454 C1431 0.950 . S
H1455 C1433 0.950 . S
C1456 C1457 1.349 . S
C1456 C1458 1.327 . S
C1456 H1481 0.950 . S
C1457 C1456 1.349 . S
C1457 C1473 1.349 . S
C1458 C1456 1.327 . S
C1458 C1477 1.429 . S
C1458 H1482 0.950 . S
C1459 C1476 1.574 . S
C1459 C1478 1.368 . S
C1459 H1483 0.949 . S
H1460 C1464 0.949 . S
C1461 C1462 1.349 . S
C1461 C1463 1.327 . S
C1461 H1484 0.950 . S
C1462 C1461 1.349 . S
C1462 C1474 1.349 . S
C1463 C1461 1.327 . S
C1463 C1479 1.429 . S
C1463 H1485 0.950 . S
C1464 H1460 0.949 . S
C1464 C1472 1.574 . S
C1464 C1480 1.368 . S
H1465 C1473 0.950 . S
H1466 C1471 0.950 . S
H1467 C1472 0.949 . S
H1468 C1474 0.950 . S
H1469 C1475 0.950 . S
H1470 C1476 0.949 . S
C1471 H1466 0.950 . S
C1471 C1473 1.327 . S
C1471 C1477 1.429 . S
C1472 C1464 1.574 . S
C1472 H1467 0.949 . S
C1472 C1478 1.368 . S
C1473 C1457 1.349 . S
C1473 H1465 0.950 . S
C1473 C1471 1.327 . S
C1474 C1462 1.349 . S
C1474 H1468 0.950 . S
C1474 C1475 1.327 . S
C1475 H1469 0.950 . S
C1475 C1474 1.327 . S
C1475 C1479 1.429 . S
C1476 C1459 1.574 . S
C1476 H1470 0.949 . S
C1476 C1480 1.368 . S
C1477 C1458 1.429 . S
C1477 C1471 1.429 . S
C1477 C1478 1.523 . S
C1478 C1459 1.368 . S
C1478 C1472 1.368 . S
C1478 C1477 1.523 . S
C1479 C1463 1.429 . S
C1479 C1475 1.429 . S
C1479 C1480 1.523 . S
C1480 C1464 1.368 . S
C1480 C1476 1.368 . S
C1480 C1479 1.523 . S
H1481 C1456 0.950 . S
H1482 C1458 0.950 . S
H1483 C1459 0.949 . S
H1484 C1461 0.950 . S
H1485 C1463 0.950 . S
C1486 C1487 1.349 . S
C1486 C1488 1.327 . S
C1486 H1511 0.950 . S
C1487 C1486 1.349 . S
C1487 C1503 1.349 . S
C1488 C1486 1.327 . S
C1488 C1507 1.429 . S
C1488 H1512 0.950 . S
C1489 C1506 1.574 . S
C1489 C1508 1.368 . S
C1489 H1513 0.949 . S
H1490 C1494 0.949 . S
C1491 C1492 1.349 . S
C1491 C1493 1.327 . S
C1491 H1514 0.950 . S
C1492 C1491 1.349 . S
C1492 C1504 1.349 . S
C1493 C1491 1.327 . S
C1493 C1509 1.429 . S
C1493 H1515 0.950 . S
C1494 H1490 0.949 . S
C1494 C1502 1.574 . S
C1494 C1510 1.368 . S
H1495 C1503 0.950 . S
H1496 C1501 0.950 . S
H1497 C1502 0.949 . S
H1498 C1504 0.950 . S
H1499 C1505 0.950 . S
H1500 C1506 0.949 . S
C1501 H1496 0.950 . S
C1501 C1503 1.327 . S
C1501 C1507 1.429 . S
C1502 C1494 1.574 . S
C1502 H1497 0.949 . S
C1502 C1508 1.368 . S
C1503 C1487 1.349 . S
C1503 H1495 0.950 . S
C1503 C1501 1.327 . S
C1504 C1492 1.349 . S
C1504 H1498 0.950 . S
C1504 C1505 1.327 . S
C1505 H1499 0.950 . S
C1505 C1504 1.327 . S
C1505 C1509 1.429 . S
C1506 C1489 1.574 . S
C1506 H1500 0.949 . S
C1506 C1510 1.368 . S
C1507 C1488 1.429 . S
C1507 C1501 1.429 . S
C1507 C1508 1.523 . S
C1508 C1489 1.368 . S
C1508 C1502 1.368 . S
C1508 C1507 1.523 . S
C1509 C1493 1.429 . S
C1509 C1505 1.429 . S
C1509 C1510 1.523 . S
C1510 C1494 1.368 . S
C1510 C1506 1.368 . S
C1510 C1509 1.523 . S
H1511 C1486 0.950 . S
H1512 C1488 0.950 . S
H1513 C1489 0.949 . S
H1514 C1491 0.950 . S
H1515 C1493 0.950 . S
C1516 C1517 1.349 . S
C1516 C1518 1.327 . S
C1516 H1541 0.950 . S
C1517 C1516 1.349 . S
C1517 C1533 1.349 . S
C1518 C1516 1.327 . S
C1518 C1537 1.429 . S
C1518 H1542 0.950 . S
C1519 C1536 1.574 . S
C1519 C1538 1.368 . S
C1519 H1543 0.949 . S
H1520 C1524 0.949 . S
C1521 C1522 1.349 . S
C1521 C1523 1.327 . S
C1521 H1544 0.950 . S
C1522 C1521 1.349 . S
C1522 C1534 1.349 . S
C1523 C1521 1.327 . S
C1523 C1539 1.429 . S
C1523 H1545 0.950 . S
C1524 H1520 0.949 . S
C1524 C1532 1.574 . S
C1524 C1540 1.368 . S
H1525 C1533 0.950 . S
H1526 C1531 0.950 . S
H1527 C1532 0.949 . S
H1528 C1534 0.950 . S
H1529 C1535 0.950 . S
H1530 C1536 0.949 . S
C1531 H1526 0.950 . S
C1531 C1533 1.327 . S
C1531 C1537 1.429 . S
C1532 C1524 1.574 . S
C1532 H1527 0.949 . S
C1532 C1538 1.368 . S
C1533 C1517 1.349 . S
C1533 H1525 0.950 . S
C1533 C1531 1.327 . S
C1534 C1522 1.349 . S
C1534 H1528 0.950 . S
C1534 C1535 1.327 . S
C1535 H1529 0.950 . S
C1535 C1534 1.327 . S
C1535 C1539 1.429 . S
C1536 C1519 1.574 . S
C1536 H1530 0.949 . S
C1536 C1540 1.368 . S
C1537 C1518 1.429 . S
C1537 C1531 1.429 . S
C1537 C1538 1.523 . S
C1538 C1519 1.368 . S
C1538 C1532 1.368 . S
C1538 C1537 1.523 . S
C1539 C1523 1.429 . S
C1539 C1535 1.429 . S
C1539 C1540 1.523 . S
C1540 C1524 1.368 . S
C1540 C1536 1.368 . S
C1540 C1539 1.523 . S
H1541 C1516 0.950 . S
H1542 C1518 0.950 . S
H1543 C1519 0.949 . S
H1544 C1521 0.950 . S
H1545 C1523 0.950 . S
C1546 C1547 1.349 . S
C1546 C1548 1.327 . S
C1546 H1571 0.950 . S
C1547 C1546 1.349 . S
C1547 C1563 1.349 . S
C1548 C1546 1.327 . S
C1548 C1567 1.429 . S
C1548 H1572 0.950 . S
C1549 C1566 1.574 . S
C1549 C1568 1.368 . S
C1549 H1573 0.949 . S
H1550 C1554 0.949 . S
C1551 C1552 1.349 . S
C1551 C1553 1.327 . S
C1551 H1574 0.950 . S
C1552 C1551 1.349 . S
C1552 C1564 1.349 . S
C1553 C1551 1.327 . S
C1553 C1569 1.429 . S
C1553 H1575 0.950 . S
C1554 H1550 0.949 . S
C1554 C1562 1.574 . S
C1554 C1570 1.368 . S
H1555 C1563 0.950 . S
H1556 C1561 0.950 . S
H1557 C1562 0.949 . S
H1558 C1564 0.950 . S
H1559 C1565 0.950 . S
H1560 C1566 0.949 . S
C1561 H1556 0.950 . S
C1561 C1563 1.327 . S
C1561 C1567 1.429 . S
C1562 C1554 1.574 . S
C1562 H1557 0.949 . S
C1562 C1568 1.368 . S
C1563 C1547 1.349 . S
C1563 H1555 0.950 . S
C1563 C1561 1.327 . S
C1564 C1552 1.349 . S
C1564 H1558 0.950 . S
C1564 C1565 1.327 . S
C1565 H1559 0.950 . S
C1565 C1564 1.327 . S
C1565 C1569 1.429 . S
C1566 C1549 1.574 . S
C1566 H1560 0.949 . S
C1566 C1570 1.368 . S
C1567 C1548 1.429 . S
C1567 C1561 1.429 . S
C1567 C1568 1.523 . S
C1568 C1549 1.368 . S
C1568 C1562 1.368 . S
C1568 C1567 1.523 . S
C1569 C1553 1.429 . S
C1569 C1565 1.429 . S
C1569 C1570 1.523 . S
C1570 C1554 1.368 . S
C1570 C1566 1.368 . S
C1570 C1569 1.523 . S
H1571 C1546 0.950 . S
H1572 C1548 0.950 . S
H1573 C1549 0.949 . S
H1574 C1551 0.950 . S
H1575 C1553 0.950 . S
C1576 C1577 1.349 . S
C1576 C1578 1.327 . S
C1576 H1601 0.950 . S
C1577 C1576 1.349 . S
C1577 C1593 1.349 . S
C1578 C1576 1.327 . S
C1578 C1597 1.429 . S
C1578 H1602 0.950 . S
C1579 C1596 1.574 . S
C1579 C1598 1.368 . S
C1579 H1603 0.949 . S
H1580 C1584 0.949 . S
C1581 C1582 1.349 . S
C1581 C1583 1.327 . S
C1581 H1604 0.950 . S
C1582 C1581 1.349 . S
C1582 C1594 1.349 . S
C1583 C1581 1.327 . S
C1583 C1599 1.429 . S
C1583 H1605 0.950 . S
C1584 H1580 0.949 . S
C1584 C1592 1.574 . S
C1584 C1600 1.368 . S
H1585 C1593 0.950 . S
H1586 C1591 0.950 . S
H1587 C1592 0.949 . S
H1588 C1594 0.950 . S
H1589 C1595 0.950 . S
H1590 C1596 0.949 . S
C1591 H1586 0.950 . S
C1591 C1593 1.327 . S
C1591 C1597 1.429 . S
C1592 C1584 1.574 . S
C1592 H1587 0.949 . S
C1592 C1598 1.368 . S
C1593 C1577 1.349 . S
C1593 H1585 0.950 . S
C1593 C1591 1.327 . S
C1594 C1582 1.349 . S
C1594 H1588 0.950 . S
C1594 C1595 1.327 . S
C1595 H1589 0.950 . S
C1595 C1594 1.327 . S
C1595 C1599 1.429 . S
C1596 C1579 1.574 . S
C1596 H1590 0.949 . S
C1596 C1600 1.368 . S
C1597 C1578 1.429 . S
C1597 C1591 1.429 . S
C1597 C1598 1.523 . S
C1598 C1579 1.368 . S
C1598 C1592 1.368 . S
C1598 C1597 1.523 . S
C1599 C1583 1.429 . S
C1599 C1595 1.429 . S
C1599 C1600 1.523 . S
C1600 C1584 1.368 . S
C1600 C1596 1.368 . S
C1600 C1599 1.523 . S
H1601 C1576 0.950 . S
H1602 C1578 0.950 . S
H1603 C1579 0.949 . S
H1604 C1581 0.950 . S
H1605 C1583 0.950 . S
C1606 C1607 1.349 . S
C1606 C1608 1.327 . S
C1606 H1631 0.950 . S
C1607 C1606 1.349 . S
C1607 C1623 1.349 . S
C1608 C1606 1.327 . S
C1608 C1627 1.429 . S
C1608 H1632 0.950 . S
C1609 C1626 1.574 . S
C1609 C1628 1.368 . S
C1609 H1633 0.949 . S
H1610 C1614 0.949 . S
C1611 C1612 1.349 . S
C1611 C1613 1.327 . S
C1611 H1634 0.950 . S
C1612 C1611 1.349 . S
C1612 C1624 1.349 . S
C1613 C1611 1.327 . S
C1613 C1629 1.429 . S
C1613 H1635 0.950 . S
C1614 H1610 0.949 . S
C1614 C1622 1.574 . S
C1614 C1630 1.368 . S
H1615 C1623 0.950 . S
H1616 C1621 0.950 . S
H1617 C1622 0.949 . S
H1618 C1624 0.950 . S
H1619 C1625 0.950 . S
H1620 C1626 0.949 . S
C1621 H1616 0.950 . S
C1621 C1623 1.327 . S
C1621 C1627 1.429 . S
C1622 C1614 1.574 . S
C1622 H1617 0.949 . S
C1622 C1628 1.368 . S
C1623 C1607 1.349 . S
C1623 H1615 0.950 . S
C1623 C1621 1.327 . S
C1624 C1612 1.349 . S
C1624 H1618 0.950 . S
C1624 C1625 1.327 . S
C1625 H1619 0.950 . S
C1625 C1624 1.327 . S
C1625 C1629 1.429 . S
C1626 C1609 1.574 . S
C1626 H1620 0.949 . S
C1626 C1630 1.368 . S
C1627 C1608 1.429 . S
C1627 C1621 1.429 . S
C1627 C1628 1.523 . S
C1628 C1609 1.368 . S
C1628 C1622 1.368 . S
C1628 C1627 1.523 . S
C1629 C1613 1.429 . S
C1629 C1625 1.429 . S
C1629 C1630 1.523 . S
C1630 C1614 1.368 . S
C1630 C1626 1.368 . S
C1630 C1629 1.523 . S
H1631 C1606 0.950 . S
H1632 C1608 0.950 . S
H1633 C1609 0.949 . S
H1634 C1611 0.950 . S
H1635 C1613 0.950 . S
C1636 C1637 1.349 . S
C1636 C1638 1.327 . S
C1636 H1661 0.950 . S
C1637 C1636 1.349 . S
C1637 C1653 1.349 . S
C1638 C1636 1.327 . S
C1638 C1657 1.429 . S
C1638 H1662 0.950 . S
C1639 C1656 1.574 . S
C1639 C1658 1.368 . S
C1639 H1663 0.949 . S
H1640 C1644 0.949 . S
C1641 C1642 1.349 . S
C1641 C1643 1.327 . S
C1641 H1664 0.950 . S
C1642 C1641 1.349 . S
C1642 C1654 1.349 . S
C1643 C1641 1.327 . S
C1643 C1659 1.429 . S
C1643 H1665 0.950 . S
C1644 H1640 0.949 . S
C1644 C1652 1.574 . S
C1644 C1660 1.368 . S
H1645 C1653 0.950 . S
H1646 C1651 0.950 . S
H1647 C1652 0.949 . S
H1648 C1654 0.950 . S
H1649 C1655 0.950 . S
H1650 C1656 0.949 . S
C1651 H1646 0.950 . S
C1651 C1653 1.327 . S
C1651 C1657 1.429 . S
C1652 C1644 1.574 . S
C1652 H1647 0.949 . S
C1652 C1658 1.368 . S
C1653 C1637 1.349 . S
C1653 H1645 0.950 . S
C1653 C1651 1.327 . S
C1654 C1642 1.349 . S
C1654 H1648 0.950 . S
C1654 C1655 1.327 . S
C1655 H1649 0.950 . S
C1655 C1654 1.327 . S
C1655 C1659 1.429 . S
C1656 C1639 1.574 . S
C1656 H1650 0.949 . S
C1656 C1660 1.368 . S
C1657 C1638 1.429 . S
C1657 C1651 1.429 . S
C1657 C1658 1.523 . S
C1658 C1639 1.368 . S
C1658 C1652 1.368 . S
C1658 C1657 1.523 . S
C1659 C1643 1.429 . S
C1659 C1655 1.429 . S
C1659 C1660 1.523 . S
C1660 C1644 1.368 . S
C1660 C1656 1.368 . S
C1660 C1659 1.523 . S
H1661 C1636 0.950 . S
H1662 C1638 0.950 . S
H1663 C1639 0.949 . S
H1664 C1641 0.950 . S
H1665 C1643 0.950 . S
C1666 C1667 1.349 . S
C1666 C1668 1.327 . S
C1666 H1691 0.950 . S
C1667 C1666 1.349 . S
C1667 C1683 1.349 . S
C1668 C1666 1.327 . S
C1668 C1687 1.429 . S
C1668 H1692 0.950 . S
C1669 C1686 1.574 . S
C1669 C1688 1.368 . S
C1669 H1693 0.949 . S
H1670 C1674 0.949 . S
C1671 C1672 1.349 . S
C1671 C1673 1.327 . S
C1671 H1694 0.950 . S
C1672 C1671 1.349 . S
C1672 C1684 1.349 . S
C1673 C1671 1.327 . S
C1673 C1689 1.429 . S
C1673 H1695 0.950 . S
C1674 H1670 0.949 . S
C1674 C1682 1.574 . S
C1674 C1690 1.368 . S
H1675 C1683 0.950 . S
H1676 C1681 0.950 . S
H1677 C1682 0.949 . S
H1678 C1684 0.950 . S
H1679 C1685 0.950 . S
H1680 C1686 0.949 . S
C1681 H1676 0.950 . S
C1681 C1683 1.327 . S
C1681 C1687 1.429 . S
C1682 C1674 1.574 . S
C1682 H1677 0.949 . S
C1682 C1688 1.368 . S
C1683 C1667 1.349 . S
C1683 H1675 0.950 . S
C1683 C1681 1.327 . S
C1684 C1672 1.349 . S
C1684 H1678 0.950 . S
C1684 C1685 1.327 . S
C1685 H1679 0.950 . S
C1685 C1684 1.327 . S
C1685 C1689 1.429 . S
C1686 C1669 1.574 . S
C1686 H1680 0.949 . S
C1686 C1690 1.368 . S
C1687 C1668 1.429 . S
C1687 C1681 1.429 . S
C1687 C1688 1.523 . S
C1688 C1669 1.368 . S
C1688 C1682 1.368 . S
C1688 C1687 1.523 . S
C1689 C1673 1.429 . S
C1689 C1685 1.429 . S
C1689 C1690 1.523 . S
C1690 C1674 1.368 . S
C1690 C1686 1.368 . S
C1690 C1689 1.523 . S
H1691 C1666 0.950 . S
H1692 C1668 0.950 . S
H1693 C1669 0.949 . S
H1694 C1671 0.950 . S
H1695 C1673 0.950 . S
C1696 C1697 1.349 . S
C1696 C1698 1.327 . S
C1696 H1721 0.950 . S
C1697 C1696 1.349 . S
C1697 C1713 1.349 1_556 S
C1698 C1696 1.327 . S
C1698 C1717 1.444 . S
C1698 H1722 0.950 . S
C1699 C1716 1.574 . S
C1699 C1718 1.366 1_545 S
C1699 H1723 0.949 . S
H1700 C1704 0.949 . S
C1701 C1702 1.349 . S
C1701 C1703 1.327 . S
C1701 H1724 0.950 . S
C1702 C1701 1.349 . S
C1702 C1714 1.349 1_554 S
C1703 C1701 1.327 . S
C1703 C1719 1.429 . S
C1703 H1725 0.950 . S
C1704 H1700 0.949 . S
C1704 C1712 1.574 . S
C1704 C1720 1.323 1_566 S
H1705 C1713 0.950 . S
H1706 C1711 0.950 . S
H1707 C1712 0.949 . S
H1708 C1714 0.950 . S
H1709 C1715 0.950 . S
H1710 C1716 0.949 . S
C1711 H1706 0.950 . S
C1711 C1713 1.327 . S
C1711 C1717 1.414 1_554 S
C1712 C1704 1.574 . S
C1712 H1707 0.949 . S
C1712 C1718 1.370 1_556 S
C1713 C1697 1.349 1_554 S
C1713 H1705 0.950 . S
C1713 C1711 1.327 . S
C1714 C1702 1.349 1_556 S
C1714 H1708 0.950 . S
C1714 C1715 1.327 . S
C1715 H1709 0.950 . S
C1715 C1714 1.327 . S
C1715 C1719 1.429 1_556 S
C1716 C1699 1.574 . S
C1716 H1710 0.949 . S
C1716 C1720 1.413 . S
C1717 C1698 1.444 . S
C1717 C1711 1.414 1_556 S
C1717 C1718 1.523 1_556 S
C1718 C1699 1.366 1_565 S
C1718 C1712 1.370 1_554 S
C1718 C1717 1.523 1_554 S
C1719 C1703 1.429 . S
C1719 C1715 1.429 1_554 S
C1719 C1720 1.526 . S
C1720 C1704 1.323 1_544 S
C1720 C1716 1.413 . S
C1720 C1719 1.526 . S
H1721 C1696 0.950 . S
H1722 C1698 0.950 . S
H1723 C1699 0.949 . S
H1724 C1701 0.950 . S
H1725 C1703 0.950 . S
C1726 C1727 1.349 . S
C1726 C1728 1.327 . S
C1726 H1751 0.950 . S
C1727 C1726 1.349 . S
C1727 C1743 1.349 1_554 S
C1728 C1726 1.327 . S
C1728 C1747 1.429 . S
C1728 H1752 0.950 . S
C1729 C1746 1.574 . S
C1729 C1748 1.368 1_556 S
C1729 H1753 0.949 . S
H1730 C1734 0.949 . S
C1731 C1732 1.409 . S
C1731 C1733 1.327 . S
C1731 H1754 0.950 . S
C1732 C1731 1.409 . S
C1732 C1744 1.288 1_556 S
C1733 C1731 1.327 . S
C1733 C1749 1.433 . S
C1733 H1755 0.950 . S
C1734 H1730 0.949 . S
C1734 C1742 1.574 . S
C1734 C1750 1.381 . S
H1735 C1743 0.950 . S
H1736 C1741 0.950 . S
H1737 C1742 0.949 . S
H1738 C1744 0.950 . S
H1739 C1745 0.950 . S
H1740 C1746 0.949 . S
C1741 H1736 0.950 . S
C1741 C1743 1.327 . S
C1741 C1747 1.429 1_556 S
C1742 C1734 1.574 . S
C1742 H1737 0.949 . S
C1742 C1748 1.368 . S
C1743 C1727 1.349 1_556 S
C1743 H1735 0.950 . S
C1743 C1741 1.327 . S
C1744 C1732 1.288 1_554 S
C1744 H1738 0.950 . S
C1744 C1745 1.327 . S
C1745 H1739 0.950 . S
C1745 C1744 1.327 . S
C1745 C1749 1.424 1_554 S
C1746 C1729 1.574 . S
C1746 H1740 0.949 . S
C1746 C1750 1.356 1_556 S
C1747 C1728 1.429 . S
C1747 C1741 1.429 1_554 S
C1747 C1748 1.523 . S
C1748 C1729 1.368 1_554 S
C1748 C1742 1.368 . S
C1748 C1747 1.523 . S
C1749 C1733 1.433 . S
C1749 C1745 1.424 1_556 S
C1749 C1750 1.523 1_556 S
C1750 C1734 1.381 . S
C1750 C1746 1.356 1_554 S
C1750 C1749 1.523 1_554 S
H1751 C1726 0.950 . S
H1752 C1728 0.950 . S
H1753 C1729 0.949 . S
H1754 C1731 0.950 . S
H1755 C1733 0.950 . S
C1756 C1757 1.349 . S
C1756 C1758 1.327 . S
C1756 H1781 0.950 . S
C1757 C1756 1.349 . S
C1757 C1773 1.349 . S
C1758 C1756 1.327 . S
C1758 C1777 1.429 . S
C1758 H1782 0.950 . S
C1759 C1776 1.574 . S
C1759 C1778 1.368 . S
C1759 H1783 0.949 . S
H1760 C1764 0.949 . S
C1761 C1762 1.349 . S
C1761 C1763 1.327 . S
C1761 H1784 0.950 . S
C1762 C1761 1.349 . S
C1762 C1774 1.349 . S
C1763 C1761 1.327 . S
C1763 C1779 1.429 . S
C1763 H1785 0.950 . S
C1764 H1760 0.949 . S
C1764 C1772 1.574 . S
C1764 C1780 1.368 . S
H1765 C1773 0.950 . S
H1766 C1771 0.950 . S
H1767 C1772 0.949 . S
H1768 C1774 0.950 . S
H1769 C1775 0.950 . S
H1770 C1776 0.949 . S
C1771 H1766 0.950 . S
C1771 C1773 1.327 . S
C1771 C1777 1.429 . S
C1772 C1764 1.574 . S
C1772 H1767 0.949 . S
C1772 C1778 1.368 . S
C1773 C1757 1.349 . S
C1773 H1765 0.950 . S
C1773 C1771 1.327 . S
C1774 C1762 1.349 . S
C1774 H1768 0.950 . S
C1774 C1775 1.327 . S
C1775 H1769 0.950 . S
C1775 C1774 1.327 . S
C1775 C1779 1.429 . S
C1776 C1759 1.574 . S
C1776 H1770 0.949 . S
C1776 C1780 1.368 . S
C1777 C1758 1.429 . S
C1777 C1771 1.429 . S
C1777 C1778 1.523 . S
C1778 C1759 1.368 . S
C1778 C1772 1.368 . S
C1778 C1777 1.523 . S
C1779 C1763 1.429 . S
C1779 C1775 1.429 . S
C1779 C1780 1.523 . S
C1780 C1764 1.368 . S
C1780 C1776 1.368 . S
C1780 C1779 1.523 . S
H1781 C1756 0.950 . S
H1782 C1758 0.950 . S
H1783 C1759 0.949 . S
H1784 C1761 0.950 . S
H1785 C1763 0.950 . S
C1786 C1787 1.349 . S
C1786 C1788 1.327 . S
C1786 H1811 0.950 . S
C1787 C1786 1.349 . S
C1787 C1803 1.349 . S
C1788 C1786 1.327 . S
C1788 C1807 1.429 . S
C1788 H1812 0.950 . S
C1789 C1806 1.574 . S
C1789 C1808 1.368 . S
C1789 H1813 0.949 . S
H1790 C1794 0.949 . S
C1791 C1792 1.349 . S
C1791 C1793 1.327 . S
C1791 H1814 0.950 . S
C1792 C1791 1.349 . S
C1792 C1804 1.349 . S
C1793 C1791 1.327 . S
C1793 C1809 1.429 . S
C1793 H1815 0.950 . S
C1794 H1790 0.949 . S
C1794 C1802 1.574 . S
C1794 C1810 1.368 . S
H1795 C1803 0.950 . S
H1796 C1801 0.950 . S
H1797 C1802 0.949 . S
H1798 C1804 0.950 . S
H1799 C1805 0.950 . S
H1800 C1806 0.949 . S
C1801 H1796 0.950 . S
C1801 C1803 1.327 . S
C1801 C1807 1.429 . S
C1802 C1794 1.574 . S
C1802 H1797 0.949 . S
C1802 C1808 1.368 1_545 S
C1803 C1787 1.349 . S
C1803 H1795 0.950 . S
C1803 C1801 1.327 . S
C1804 C1792 1.349 . S
C1804 H1798 0.950 . S
C1804 C1805 1.327 . S
C1805 H1799 0.950 . S
C1805 C1804 1.327 . S
C1805 C1809 1.429 . S
C1806 C1789 1.574 . S
C1806 H1800 0.949 . S
C1806 C1810 1.368 1_565 S
C1807 C1788 1.429 . S
C1807 C1801 1.429 . S
C1807 C1808 1.523 . S
C1808 C1789 1.368 . S
C1808 C1802 1.368 1_565 S
C1808 C1807 1.523 . S
C1809 C1793 1.429 . S
C1809 C1805 1.429 . S
C1809 C1810 1.523 . S
C1810 C1794 1.368 . S
C1810 C1806 1.368 1_545 S
C1810 C1809 1.523 . S
H1811 C1786 0.950 . S
H1812 C1788 0.950 . S
H1813 C1789 0.949 . S
H1814 C1791 0.950 . S
H1815 C1793 0.950 . S
C1816 C1817 1.349 . S
C1816 C1818 1.327 . S
C1816 H1841 0.950 . S
C1817 C1816 1.349 . S
C1817 C1833 1.349 1_556 S
C1818 C1816 1.327 . S
C1818 C1837 1.445 . S
C1818 H1842 0.950 . S
C1819 C1836 1.574 . S
C1819 C1838 1.366 . S
C1819 H1843 0.949 . S
H1820 C1824 0.949 . S
C1821 C1822 1.349 . S
C1821 C1823 1.327 . S
C1821 H1844 0.950 . S
C1822 C1821 1.349 . S
C1822 C1834 1.349 1_554 S
C1823 C1821 1.327 . S
C1823 C1839 1.429 . S
C1823 H1845 0.950 . S
C1824 H1820 0.949 . S
C1824 C1832 1.574 . S
C1824 C1840 1.321 1_556 S
H1825 C1833 0.950 . S
H1826 C1831 0.950 . S
H1827 C1832 0.949 . S
H1828 C1834 0.950 . S
H1829 C1835 0.950 . S
H1830 C1836 0.949 . S
C1831 H1826 0.950 . S
C1831 C1833 1.327 . S
C1831 C1837 1.413 1_554 S
C1832 C1824 1.574 . S
C1832 H1827 0.949 . S
C1832 C1838 1.370 1_556 S
C1833 C1817 1.349 1_554 S
C1833 H1825 0.950 . S
C1833 C1831 1.327 . S
C1834 C1822 1.349 1_556 S
C1834 H1828 0.950 . S
C1834 C1835 1.327 . S
C1835 H1829 0.950 . S
C1835 C1834 1.327 . S
C1835 C1839 1.429 1_556 S
C1836 C1819 1.574 . S
C1836 H1830 0.949 . S
C1836 C1840 1.415 . S
C1837 C1818 1.445 . S
C1837 C1831 1.413 1_556 S
C1837 C1838 1.523 1_556 S
C1838 C1819 1.366 . S
C1838 C1832 1.370 1_554 S
C1838 C1837 1.523 1_554 S
C1839 C1823 1.429 . S
C1839 C1835 1.429 1_554 S
C1839 C1840 1.526 . S
C1840 C1824 1.321 1_554 S
C1840 C1836 1.415 . S
C1840 C1839 1.526 . S
H1841 C1816 0.950 . S
H1842 C1818 0.950 . S
H1843 C1819 0.949 . S
H1844 C1821 0.950 . S
H1845 C1823 0.950 . S
C1846 C1847 1.349 . S
C1846 C1848 1.327 . S
C1846 H1871 0.950 . S
C1847 C1846 1.349 . S
C1847 C1863 1.349 . S
C1848 C1846 1.327 . S
C1848 C1867 1.429 . S
C1848 H1872 0.950 . S
C1849 C1866 1.574 . S
C1849 C1868 1.368 . S
C1849 H1873 0.949 . S
H1850 C1854 0.949 . S
C1851 C1852 1.349 . S
C1851 C1853 1.327 . S
C1851 H1874 0.950 . S
C1852 C1851 1.349 . S
C1852 C1864 1.349 . S
C1853 C1851 1.327 . S
C1853 C1869 1.429 . S
C1853 H1875 0.950 . S
C1854 H1850 0.949 . S
C1854 C1862 1.574 . S
C1854 C1870 1.368 . S
H1855 C1863 0.950 . S
H1856 C1861 0.950 . S
H1857 C1862 0.949 . S
H1858 C1864 0.950 . S
H1859 C1865 0.950 . S
H1860 C1866 0.949 . S
C1861 H1856 0.950 . S
C1861 C1863 1.327 . S
C1861 C1867 1.429 . S
C1862 C1854 1.574 . S
C1862 H1857 0.949 . S
C1862 C1868 1.368 . S
C1863 C1847 1.349 . S
C1863 H1855 0.950 . S
C1863 C1861 1.327 . S
C1864 C1852 1.349 . S
C1864 H1858 0.950 . S
C1864 C1865 1.327 . S
C1865 H1859 0.950 . S
C1865 C1864 1.327 . S
C1865 C1869 1.429 . S
C1866 C1849 1.574 . S
C1866 H1860 0.949 . S
C1866 C1870 1.368 . S
C1867 C1848 1.429 . S
C1867 C1861 1.429 . S
C1867 C1868 1.523 . S
C1868 C1849 1.368 . S
C1868 C1862 1.368 . S
C1868 C1867 1.523 . S
C1869 C1853 1.429 . S
C1869 C1865 1.429 . S
C1869 C1870 1.523 . S
C1870 C1854 1.368 . S
C1870 C1866 1.368 . S
C1870 C1869 1.523 . S
H1871 C1846 0.950 . S
H1872 C1848 0.950 . S
H1873 C1849 0.949 . S
H1874 C1851 0.950 . S
H1875 C1853 0.950 . S
C1876 C1877 1.349 . S
C1876 C1878 1.327 . S
C1876 H1901 0.950 . S
C1877 C1876 1.349 . S
C1877 C1893 1.349 . S
C1878 C1876 1.327 . S
C1878 C1897 1.429 . S
C1878 H1902 0.950 . S
C1879 C1896 1.574 . S
C1879 C1898 1.368 . S
C1879 H1903 0.949 . S
H1880 C1884 0.949 . S
C1881 C1882 1.349 . S
C1881 C1883 1.327 . S
C1881 H1904 0.950 . S
C1882 C1881 1.349 . S
C1882 C1894 1.349 . S
C1883 C1881 1.327 . S
C1883 C1899 1.429 . S
C1883 H1905 0.950 . S
C1884 H1880 0.949 . S
C1884 C1892 1.574 . S
C1884 C1900 1.368 . S
H1885 C1893 0.950 . S
H1886 C1891 0.950 . S
H1887 C1892 0.949 . S
H1888 C1894 0.950 . S
H1889 C1895 0.950 . S
H1890 C1896 0.949 . S
C1891 H1886 0.950 . S
C1891 C1893 1.327 . S
C1891 C1897 1.429 . S
C1892 C1884 1.574 . S
C1892 H1887 0.949 . S
C1892 C1898 1.368 1_565 S
C1893 C1877 1.349 . S
C1893 H1885 0.950 . S
C1893 C1891 1.327 . S
C1894 C1882 1.349 . S
C1894 H1888 0.950 . S
C1894 C1895 1.327 . S
C1895 H1889 0.950 . S
C1895 C1894 1.327 . S
C1895 C1899 1.429 . S
C1896 C1879 1.574 . S
C1896 H1890 0.949 . S
C1896 C1900 1.368 1_545 S
C1897 C1878 1.429 . S
C1897 C1891 1.429 . S
C1897 C1898 1.523 . S
C1898 C1879 1.368 . S
C1898 C1892 1.368 1_545 S
C1898 C1897 1.523 . S
C1899 C1883 1.429 . S
C1899 C1895 1.429 . S
C1899 C1900 1.523 . S
C1900 C1884 1.368 . S
C1900 C1896 1.368 1_565 S
C1900 C1899 1.523 . S
H1901 C1876 0.950 . S
H1902 C1878 0.950 . S
H1903 C1879 0.949 . S
H1904 C1881 0.950 . S
H1905 C1883 0.950 . S
C1906 C1907 1.349 . S
C1906 C1908 1.327 . S
C1906 H1931 0.950 . S
C1907 C1906 1.349 . S
C1907 C1923 1.349 . S
C1908 C1906 1.327 . S
C1908 C1927 1.429 . S
C1908 H1932 0.950 . S
C1909 C1926 1.574 . S
C1909 C1928 1.368 . S
C1909 H1933 0.949 . S
H1910 C1914 0.949 . S
C1911 C1912 1.349 . S
C1911 C1913 1.327 . S
C1911 H1934 0.950 . S
C1912 C1911 1.349 . S
C1912 C1924 1.349 . S
C1913 C1911 1.327 . S
C1913 C1929 1.429 . S
C1913 H1935 0.950 . S
C1914 H1910 0.949 . S
C1914 C1922 1.574 . S
C1914 C1930 1.368 . S
H1915 C1923 0.950 . S
H1916 C1921 0.950 . S
H1917 C1922 0.949 . S
H1918 C1924 0.950 . S
H1919 C1925 0.950 . S
H1920 C1926 0.949 . S
C1921 H1916 0.950 . S
C1921 C1923 1.327 . S
C1921 C1927 1.429 . S
C1922 C1914 1.574 . S
C1922 H1917 0.949 . S
C1922 C1928 1.368 . S
C1923 C1907 1.349 . S
C1923 H1915 0.950 . S
C1923 C1921 1.327 . S
C1924 C1912 1.349 . S
C1924 H1918 0.950 . S
C1924 C1925 1.327 . S
C1925 H1919 0.950 . S
C1925 C1924 1.327 . S
C1925 C1929 1.429 . S
C1926 C1909 1.574 . S
C1926 H1920 0.949 . S
C1926 C1930 1.368 . S
C1927 C1908 1.429 . S
C1927 C1921 1.429 . S
C1927 C1928 1.523 . S
C1928 C1909 1.368 . S
C1928 C1922 1.368 . S
C1928 C1927 1.523 . S
C1929 C1913 1.429 . S
C1929 C1925 1.429 . S
C1929 C1930 1.523 . S
C1930 C1914 1.368 . S
C1930 C1926 1.368 . S
C1930 C1929 1.523 . S
H1931 C1906 0.950 . S
H1932 C1908 0.950 . S
H1933 C1909 0.949 . S
H1934 C1911 0.950 . S
H1935 C1913 0.950 . S
C1936 C1937 1.349 . S
C1936 C1938 1.327 . S
C1936 H1961 0.950 . S
C1937 C1936 1.349 . S
C1937 C1953 1.349 . S
C1938 C1936 1.327 . S
C1938 C1957 1.429 . S
C1938 H1962 0.950 . S
C1939 C1956 1.574 . S
C1939 C1958 1.368 . S
C1939 H1963 0.949 . S
H1940 C1944 0.949 . S
C1941 C1942 1.349 . S
C1941 C1943 1.327 . S
C1941 H1964 0.950 . S
C1942 C1941 1.349 . S
C1942 C1954 1.349 . S
C1943 C1941 1.327 . S
C1943 C1959 1.429 . S
C1943 H1965 0.950 . S
C1944 H1940 0.949 . S
C1944 C1952 1.574 . S
C1944 C1960 1.368 . S
H1945 C1953 0.950 . S
H1946 C1951 0.950 . S
H1947 C1952 0.949 . S
H1948 C1954 0.950 . S
H1949 C1955 0.950 . S
H1950 C1956 0.949 . S
C1951 H1946 0.950 . S
C1951 C1953 1.327 . S
C1951 C1957 1.429 . S
C1952 C1944 1.574 . S
C1952 H1947 0.949 . S
C1952 C1958 1.368 . S
C1953 C1937 1.349 . S
C1953 H1945 0.950 . S
C1953 C1951 1.327 . S
C1954 C1942 1.349 . S
C1954 H1948 0.950 . S
C1954 C1955 1.327 . S
C1955 H1949 0.950 . S
C1955 C1954 1.327 . S
C1955 C1959 1.429 . S
C1956 C1939 1.574 . S
C1956 H1950 0.949 . S
C1956 C1960 1.368 . S
C1957 C1938 1.429 . S
C1957 C1951 1.429 . S
C1957 C1958 1.523 . S
C1958 C1939 1.368 . S
C1958 C1952 1.368 . S
C1958 C1957 1.523 . S
C1959 C1943 1.429 . S
C1959 C1955 1.429 . S
C1959 C1960 1.523 . S
C1960 C1944 1.368 . S
C1960 C1956 1.368 . S
C1960 C1959 1.523 . S
H1961 C1936 0.950 . S
H1962 C1938 0.950 . S
H1963 C1939 0.949 . S
H1964 C1941 0.950 . S
H1965 C1943 0.950 . S
C1966 C1967 1.349 . S
C1966 C1968 1.327 . S
C1966 H1991 0.950 . S
C1967 C1966 1.349 . S
C1967 C1983 1.349 . S
C1968 C1966 1.327 . S
C1968 C1987 1.429 . S
C1968 H1992 0.950 . S
C1969 C1986 1.574 . S
C1969 C1988 1.368 . S
C1969 H1993 0.949 . S
H1970 C1974 0.949 . S
C1971 C1972 1.349 . S
C1971 C1973 1.327 . S
C1971 H1994 0.950 . S
C1972 C1971 1.349 . S
C1972 C1984 1.349 . S
C1973 C1971 1.327 . S
C1973 C1989 1.429 . S
C1973 H1995 0.950 . S
C1974 H1970 0.949 . S
C1974 C1982 1.574 . S
C1974 C1990 1.368 . S
H1975 C1983 0.950 . S
H1976 C1981 0.950 . S
H1977 C1982 0.949 . S
H1978 C1984 0.950 . S
H1979 C1985 0.950 . S
H1980 C1986 0.949 . S
C1981 H1976 0.950 . S
C1981 C1983 1.327 . S
C1981 C1987 1.429 . S
C1982 C1974 1.574 . S
C1982 H1977 0.949 . S
C1982 C1988 1.368 . S
C1983 C1967 1.349 . S
C1983 H1975 0.950 . S
C1983 C1981 1.327 . S
C1984 C1972 1.349 . S
C1984 H1978 0.950 . S
C1984 C1985 1.327 . S
C1985 H1979 0.950 . S
C1985 C1984 1.327 . S
C1985 C1989 1.429 . S
C1986 C1969 1.574 . S
C1986 H1980 0.949 . S
C1986 C1990 1.368 . S
C1987 C1968 1.429 . S
C1987 C1981 1.429 . S
C1987 C1988 1.523 . S
C1988 C1969 1.368 . S
C1988 C1982 1.368 . S
C1988 C1987 1.523 . S
C1989 C1973 1.429 . S
C1989 C1985 1.429 . S
C1989 C1990 1.523 . S
C1990 C1974 1.368 . S
C1990 C1986 1.368 . S
C1990 C1989 1.523 . S
H1991 C1966 0.950 . S
H1992 C1968 0.950 . S
H1993 C1969 0.949 . S
H1994 C1971 0.950 . S
H1995 C1973 0.950 . S
C1996 C1997 1.349 . S
C1996 C1998 1.327 . S
C1996 H2021 0.950 . S
C1997 C1996 1.349 . S
C1997 C2013 1.349 . S
C1998 C1996 1.327 . S
C1998 C2017 1.429 . S
C1998 H2022 0.950 . S
C1999 C2016 1.574 . S
C1999 C2018 1.368 . S
C1999 H2023 0.949 . S
H2000 C2004 0.949 . S
C2001 C2002 1.349 . S
C2001 C2003 1.327 . S
C2001 H2024 0.950 . S
C2002 C2001 1.349 . S
C2002 C2014 1.349 . S
C2003 C2001 1.327 . S
C2003 C2019 1.429 . S
C2003 H2025 0.950 . S
C2004 H2000 0.949 . S
C2004 C2012 1.574 . S
C2004 C2020 1.368 . S
H2005 C2013 0.950 . S
H2006 C2011 0.950 . S
H2007 C2012 0.949 . S
H2008 C2014 0.950 . S
H2009 C2015 0.950 . S
H2010 C2016 0.949 . S
C2011 H2006 0.950 . S
C2011 C2013 1.327 . S
C2011 C2017 1.429 . S
C2012 C2004 1.574 . S
C2012 H2007 0.949 . S
C2012 C2018 1.368 . S
C2013 C1997 1.349 . S
C2013 H2005 0.950 . S
C2013 C2011 1.327 . S
C2014 C2002 1.349 . S
C2014 H2008 0.950 . S
C2014 C2015 1.327 . S
C2015 H2009 0.950 . S
C2015 C2014 1.327 . S
C2015 C2019 1.429 . S
C2016 C1999 1.574 . S
C2016 H2010 0.949 . S
C2016 C2020 1.368 . S
C2017 C1998 1.429 . S
C2017 C2011 1.429 . S
C2017 C2018 1.523 . S
C2018 C1999 1.368 . S
C2018 C2012 1.368 . S
C2018 C2017 1.523 . S
C2019 C2003 1.429 . S
C2019 C2015 1.429 . S
C2019 C2020 1.523 . S
C2020 C2004 1.368 . S
C2020 C2016 1.368 . S
C2020 C2019 1.523 . S
H2021 C1996 0.950 . S
H2022 C1998 0.950 . S
H2023 C1999 0.949 . S
H2024 C2001 0.950 . S
H2025 C2003 0.950 . S
C2026 C2027 1.349 . S
C2026 C2028 1.327 . S
C2026 H2051 0.950 . S
C2027 C2026 1.349 . S
C2027 C2043 1.349 . S
C2028 C2026 1.327 . S
C2028 C2047 1.429 . S
C2028 H2052 0.950 . S
C2029 C2046 1.574 . S
C2029 C2048 1.368 . S
C2029 H2053 0.949 . S
H2030 C2034 0.949 . S
C2031 C2032 1.349 . S
C2031 C2033 1.327 . S
C2031 H2054 0.950 . S
C2032 C2031 1.349 . S
C2032 C2044 1.349 . S
C2033 C2031 1.327 . S
C2033 C2049 1.429 . S
C2033 H2055 0.950 . S
C2034 H2030 0.949 . S
C2034 C2042 1.574 . S
C2034 C2050 1.368 . S
H2035 C2043 0.950 . S
H2036 C2041 0.950 . S
H2037 C2042 0.949 . S
H2038 C2044 0.950 . S
H2039 C2045 0.950 . S
H2040 C2046 0.949 . S
C2041 H2036 0.950 . S
C2041 C2043 1.327 . S
C2041 C2047 1.429 . S
C2042 C2034 1.574 . S
C2042 H2037 0.949 . S
C2042 C2048 1.368 . S
C2043 C2027 1.349 . S
C2043 H2035 0.950 . S
C2043 C2041 1.327 . S
C2044 C2032 1.349 . S
C2044 H2038 0.950 . S
C2044 C2045 1.327 . S
C2045 H2039 0.950 . S
C2045 C2044 1.327 . S
C2045 C2049 1.429 . S
C2046 C2029 1.574 . S
C2046 H2040 0.949 . S
C2046 C2050 1.368 . S
C2047 C2028 1.429 . S
C2047 C2041 1.429 . S
C2047 C2048 1.523 . S
C2048 C2029 1.368 . S
C2048 C2042 1.368 . S
C2048 C2047 1.523 . S
C2049 C2033 1.429 . S
C2049 C2045 1.429 . S
C2049 C2050 1.523 . S
C2050 C2034 1.368 . S
C2050 C2046 1.368 . S
C2050 C2049 1.523 . S
H2051 C2026 0.950 . S
H2052 C2028 0.950 . S
H2053 C2029 0.949 . S
H2054 C2031 0.950 . S
H2055 C2033 0.950 . S
C2056 C2057 1.349 . S
C2056 C2058 1.327 . S
C2056 H2081 0.950 . S
C2057 C2056 1.349 . S
C2057 C2073 1.349 . S
C2058 C2056 1.327 . S
C2058 C2077 1.429 . S
C2058 H2082 0.950 . S
C2059 C2076 1.574 1_455 S
C2059 C2078 1.368 1_545 S
C2059 H2083 0.949 . S
H2060 C2064 0.949 . S
C2061 C2062 1.349 . S
C2061 C2063 1.327 . S
C2061 H2084 0.950 . S
C2062 C2061 1.349 . S
C2062 C2074 1.349 . S
C2063 C2061 1.327 . S
C2063 C2079 1.429 . S
C2063 H2085 0.950 . S
C2064 H2060 0.949 . S
C2064 C2072 1.574 1_655 S
C2064 C2080 1.368 1_565 S
H2065 C2073 0.950 . S
H2066 C2071 0.950 . S
H2067 C2072 0.949 . S
H2068 C2074 0.950 . S
H2069 C2075 0.950 . S
H2070 C2076 0.949 . S
C2071 H2066 0.950 . S
C2071 C2073 1.327 . S
C2071 C2077 1.429 . S
C2072 C2064 1.574 1_455 S
C2072 H2067 0.949 . S
C2072 C2078 1.368 . S
C2073 C2057 1.349 . S
C2073 H2065 0.950 . S
C2073 C2071 1.327 . S
C2074 C2062 1.349 . S
C2074 H2068 0.950 . S
C2074 C2075 1.327 . S
C2075 H2069 0.950 . S
C2075 C2074 1.327 . S
C2075 C2079 1.429 . S
C2076 C2059 1.574 1_655 S
C2076 H2070 0.949 . S
C2076 C2080 1.368 . S
C2077 C2058 1.429 . S
C2077 C2071 1.429 . S
C2077 C2078 1.523 . S
C2078 C2059 1.368 1_565 S
C2078 C2072 1.368 . S
C2078 C2077 1.523 . S
C2079 C2063 1.429 . S
C2079 C2075 1.429 . S
C2079 C2080 1.523 . S
C2080 C2064 1.368 1_545 S
C2080 C2076 1.368 . S
C2080 C2079 1.523 . S
H2081 C2056 0.950 . S
H2082 C2058 0.950 . S
H2083 C2059 0.949 . S
H2084 C2061 0.950 . S
H2085 C2063 0.950 . S
C2086 C2087 1.349 . S
C2086 C2088 1.327 . S
C2086 H2111 0.950 . S
C2087 C2086 1.349 . S
C2087 C2103 1.349 . S
C2088 C2086 1.327 . S
C2088 C2107 1.429 . S
C2088 H2112 0.950 . S
C2089 C2106 1.574 1_455 S
C2089 C2108 1.368 . S
C2089 H2113 0.949 . S
H2090 C2094 0.949 . S
C2091 C2092 1.349 . S
C2091 C2093 1.327 . S
C2091 H2114 0.950 . S
C2092 C2091 1.349 . S
C2092 C2104 1.349 . S
C2093 C2091 1.327 . S
C2093 C2109 1.429 . S
C2093 H2115 0.950 . S
C2094 H2090 0.949 . S
C2094 C2102 1.574 1_655 S
C2094 C2110 1.368 . S
H2095 C2103 0.950 . S
H2096 C2101 0.950 . S
H2097 C2102 0.949 . S
H2098 C2104 0.950 . S
H2099 C2105 0.950 . S
H2100 C2106 0.949 . S
C2101 H2096 0.950 . S
C2101 C2103 1.327 . S
C2101 C2107 1.429 . S
C2102 C2094 1.574 1_455 S
C2102 H2097 0.949 . S
C2102 C2108 1.368 . S
C2103 C2087 1.349 . S
C2103 H2095 0.950 . S
C2103 C2101 1.327 . S
C2104 C2092 1.349 . S
C2104 H2098 0.950 . S
C2104 C2105 1.327 . S
C2105 H2099 0.950 . S
C2105 C2104 1.327 . S
C2105 C2109 1.429 . S
C2106 C2089 1.574 1_655 S
C2106 H2100 0.949 . S
C2106 C2110 1.368 . S
C2107 C2088 1.429 . S
C2107 C2101 1.429 . S
C2107 C2108 1.523 . S
C2108 C2089 1.368 . S
C2108 C2102 1.368 . S
C2108 C2107 1.523 . S
C2109 C2093 1.429 . S
C2109 C2105 1.429 . S
C2109 C2110 1.523 . S
C2110 C2094 1.368 . S
C2110 C2106 1.368 . S
C2110 C2109 1.523 . S
H2111 C2086 0.950 . S
H2112 C2088 0.950 . S
H2113 C2089 0.949 . S
H2114 C2091 0.950 . S
H2115 C2093 0.950 . S
C2116 C2117 1.349 . S
C2116 C2118 1.327 . S
C2116 H2141 0.950 . S
C2117 C2116 1.349 . S
C2117 C2133 1.349 . S
C2118 C2116 1.327 . S
C2118 C2137 1.429 . S
C2118 H2142 0.950 . S
C2119 C2136 1.574 1_655 S
C2119 C2138 1.368 . S
C2119 H2143 0.949 . S
H2120 C2124 0.949 . S
C2121 C2122 1.349 . S
C2121 C2123 1.327 . S
C2121 H2144 0.950 . S
C2122 C2121 1.349 . S
C2122 C2134 1.349 . S
C2123 C2121 1.327 . S
C2123 C2139 1.429 . S
C2123 H2145 0.950 . S
C2124 H2120 0.949 . S
C2124 C2132 1.574 1_455 S
C2124 C2140 1.368 . S
H2125 C2133 0.950 . S
H2126 C2131 0.950 . S
H2127 C2132 0.949 . S
H2128 C2134 0.950 . S
H2129 C2135 0.950 . S
H2130 C2136 0.949 . S
C2131 H2126 0.950 . S
C2131 C2133 1.327 . S
C2131 C2137 1.429 . S
C2132 C2124 1.574 1_655 S
C2132 H2127 0.949 . S
C2132 C2138 1.368 . S
C2133 C2117 1.349 . S
C2133 H2125 0.950 . S
C2133 C2131 1.327 . S
C2134 C2122 1.349 . S
C2134 H2128 0.950 . S
C2134 C2135 1.327 . S
C2135 H2129 0.950 . S
C2135 C2134 1.327 . S
C2135 C2139 1.429 . S
C2136 C2119 1.574 1_455 S
C2136 H2130 0.949 . S
C2136 C2140 1.368 . S
C2137 C2118 1.429 . S
C2137 C2131 1.429 . S
C2137 C2138 1.523 . S
C2138 C2119 1.368 . S
C2138 C2132 1.368 . S
C2138 C2137 1.523 . S
C2139 C2123 1.429 . S
C2139 C2135 1.429 . S
C2139 C2140 1.523 . S
C2140 C2124 1.368 . S
C2140 C2136 1.368 . S
C2140 C2139 1.523 . S
H2141 C2116 0.950 . S
H2142 C2118 0.950 . S
H2143 C2119 0.949 . S
H2144 C2121 0.950 . S
H2145 C2123 0.950 . S
C2146 C2147 1.349 . S
C2146 C2148 1.327 . S
C2146 H2171 0.950 . S
C2147 C2146 1.349 . S
C2147 C2163 1.349 1_554 S
C2148 C2146 1.327 . S
C2148 C2167 1.429 . S
C2148 H2172 0.950 . S
C2149 C2166 1.574 1_655 S
C2149 C2168 1.368 1_556 S
C2149 H2173 0.949 . S
H2150 C2154 0.949 . S
C2151 C2152 1.402 . S
C2151 C2153 1.327 . S
C2151 H2174 0.950 . S
C2152 C2151 1.402 . S
C2152 C2164 1.296 1_556 S
C2153 C2151 1.327 . S
C2153 C2169 1.433 . S
C2153 H2175 0.950 . S
C2154 H2150 0.949 . S
C2154 C2162 1.574 1_455 S
C2154 C2170 1.379 . S
H2155 C2163 0.950 . S
H2156 C2161 0.950 . S
H2157 C2162 0.949 . S
H2158 C2164 0.950 . S
H2159 C2165 0.950 . S
H2160 C2166 0.949 . S
C2161 H2156 0.950 . S
C2161 C2163 1.327 . S
C2161 C2167 1.429 1_556 S
C2162 C2154 1.574 1_655 S
C2162 H2157 0.949 . S
C2162 C2168 1.368 . S
C2163 C2147 1.349 1_556 S
C2163 H2155 0.950 . S
C2163 C2161 1.327 . S
C2164 C2152 1.296 1_554 S
C2164 H2158 0.950 . S
C2164 C2165 1.327 . S
C2165 H2159 0.950 . S
C2165 C2164 1.327 . S
C2165 C2169 1.425 1_554 S
C2166 C2149 1.574 1_455 S
C2166 H2160 0.949 . S
C2166 C2170 1.358 1_556 S
C2167 C2148 1.429 . S
C2167 C2161 1.429 1_554 S
C2167 C2168 1.523 . S
C2168 C2149 1.368 1_554 S
C2168 C2162 1.368 . S
C2168 C2167 1.523 . S
C2169 C2153 1.433 . S
C2169 C2165 1.425 1_556 S
C2169 C2170 1.523 1_556 S
C2170 C2154 1.379 . S
C2170 C2166 1.358 1_554 S
C2170 C2169 1.523 1_554 S
H2171 C2146 0.950 . S
H2172 C2148 0.950 . S
H2173 C2149 0.949 . S
H2174 C2151 0.950 . S
H2175 C2153 0.950 . S
C2176 C2177 1.349 . S
C2176 C2178 1.327 . S
C2176 H2201 0.950 . S
C2177 C2176 1.349 . S
C2177 C2193 1.349 . S
C2178 C2176 1.327 . S
C2178 C2197 1.429 . S
C2178 H2202 0.950 . S
C2179 C2196 1.574 . S
C2179 C2198 1.368 . S
C2179 H2203 0.949 . S
H2180 C2184 0.949 . S
C2181 C2182 1.349 . S
C2181 C2183 1.327 . S
C2181 H2204 0.950 . S
C2182 C2181 1.349 . S
C2182 C2194 1.349 . S
C2183 C2181 1.327 . S
C2183 C2199 1.429 . S
C2183 H2205 0.950 . S
C2184 H2180 0.949 . S
C2184 C2192 1.574 . S
C2184 C2200 1.368 . S
H2185 C2193 0.950 . S
H2186 C2191 0.950 . S
H2187 C2192 0.949 . S
H2188 C2194 0.950 . S
H2189 C2195 0.950 . S
H2190 C2196 0.949 . S
C2191 H2186 0.950 . S
C2191 C2193 1.327 . S
C2191 C2197 1.429 . S
C2192 C2184 1.574 . S
C2192 H2187 0.949 . S
C2192 C2198 1.368 . S
C2193 C2177 1.349 . S
C2193 H2185 0.950 . S
C2193 C2191 1.327 . S
C2194 C2182 1.349 . S
C2194 H2188 0.950 . S
C2194 C2195 1.327 . S
C2195 H2189 0.950 . S
C2195 C2194 1.327 . S
C2195 C2199 1.429 . S
C2196 C2179 1.574 . S
C2196 H2190 0.949 . S
C2196 C2200 1.368 . S
C2197 C2178 1.429 . S
C2197 C2191 1.429 . S
C2197 C2198 1.523 . S
C2198 C2179 1.368 . S
C2198 C2192 1.368 . S
C2198 C2197 1.523 . S
C2199 C2183 1.429 . S
C2199 C2195 1.429 . S
C2199 C2200 1.523 . S
C2200 C2184 1.368 . S
C2200 C2196 1.368 . S
C2200 C2199 1.523 . S
H2201 C2176 0.950 . S
H2202 C2178 0.950 . S
H2203 C2179 0.949 . S
H2204 C2181 0.950 . S
H2205 C2183 0.950 . S
C2206 C2207 1.349 . S
C2206 C2208 1.327 . S
C2206 H2231 0.950 . S
C2207 C2206 1.349 . S
C2207 C2223 1.349 . S
C2208 C2206 1.327 . S
C2208 C2227 1.429 . S
C2208 H2232 0.950 . S
C2209 C2226 1.574 . S
C2209 C2228 1.368 . S
C2209 H2233 0.949 . S
H2210 C2214 0.949 . S
C2211 C2212 1.349 . S
C2211 C2213 1.327 . S
C2211 H2234 0.950 . S
C2212 C2211 1.349 . S
C2212 C2224 1.349 . S
C2213 C2211 1.327 . S
C2213 C2229 1.429 . S
C2213 H2235 0.950 . S
C2214 H2210 0.949 . S
C2214 C2222 1.574 . S
C2214 C2230 1.368 . S
H2215 C2223 0.950 . S
H2216 C2221 0.950 . S
H2217 C2222 0.949 . S
H2218 C2224 0.950 . S
H2219 C2225 0.950 . S
H2220 C2226 0.949 . S
C2221 H2216 0.950 . S
C2221 C2223 1.327 . S
C2221 C2227 1.429 . S
C2222 C2214 1.574 . S
C2222 H2217 0.949 . S
C2222 C2228 1.368 . S
C2223 C2207 1.349 . S
C2223 H2215 0.950 . S
C2223 C2221 1.327 . S
C2224 C2212 1.349 . S
C2224 H2218 0.950 . S
C2224 C2225 1.327 . S
C2225 H2219 0.950 . S
C2225 C2224 1.327 . S
C2225 C2229 1.429 . S
C2226 C2209 1.574 . S
C2226 H2220 0.949 . S
C2226 C2230 1.368 . S
C2227 C2208 1.429 . S
C2227 C2221 1.429 . S
C2227 C2228 1.523 . S
C2228 C2209 1.368 . S
C2228 C2222 1.368 . S
C2228 C2227 1.523 . S
C2229 C2213 1.429 . S
C2229 C2225 1.429 . S
C2229 C2230 1.523 . S
C2230 C2214 1.368 . S
C2230 C2226 1.368 . S
C2230 C2229 1.523 . S
H2231 C2206 0.950 . S
H2232 C2208 0.950 . S
H2233 C2209 0.949 . S
H2234 C2211 0.950 . S
H2235 C2213 0.950 . S
C2236 C2237 1.349 . S
C2236 C2238 1.327 . S
C2236 H2261 0.950 . S
C2237 C2236 1.349 . S
C2237 C2253 1.349 . S
C2238 C2236 1.327 . S
C2238 C2257 1.429 . S
C2238 H2262 0.950 . S
C2239 C2256 1.574 . S
C2239 C2258 1.368 . S
C2239 H2263 0.949 . S
H2240 C2244 0.949 . S
C2241 C2242 1.349 . S
C2241 C2243 1.327 . S
C2241 H2264 0.950 . S
C2242 C2241 1.349 . S
C2242 C2254 1.349 . S
C2243 C2241 1.327 . S
C2243 C2259 1.429 . S
C2243 H2265 0.950 . S
C2244 H2240 0.949 . S
C2244 C2252 1.574 . S
C2244 C2260 1.368 . S
H2245 C2253 0.950 . S
H2246 C2251 0.950 . S
H2247 C2252 0.949 . S
H2248 C2254 0.950 . S
H2249 C2255 0.950 . S
H2250 C2256 0.949 . S
C2251 H2246 0.950 . S
C2251 C2253 1.327 . S
C2251 C2257 1.429 . S
C2252 C2244 1.574 . S
C2252 H2247 0.949 . S
C2252 C2258 1.368 . S
C2253 C2237 1.349 . S
C2253 H2245 0.950 . S
C2253 C2251 1.327 . S
C2254 C2242 1.349 . S
C2254 H2248 0.950 . S
C2254 C2255 1.327 . S
C2255 H2249 0.950 . S
C2255 C2254 1.327 . S
C2255 C2259 1.429 . S
C2256 C2239 1.574 . S
C2256 H2250 0.949 . S
C2256 C2260 1.368 . S
C2257 C2238 1.429 . S
C2257 C2251 1.429 . S
C2257 C2258 1.523 . S
C2258 C2239 1.368 . S
C2258 C2252 1.368 . S
C2258 C2257 1.523 . S
C2259 C2243 1.429 . S
C2259 C2255 1.429 . S
C2259 C2260 1.523 . S
C2260 C2244 1.368 . S
C2260 C2256 1.368 . S
C2260 C2259 1.523 . S
H2261 C2236 0.950 . S
H2262 C2238 0.950 . S
H2263 C2239 0.949 . S
H2264 C2241 0.950 . S
H2265 C2243 0.950 . S
C2266 C2267 1.349 . S
C2266 C2268 1.327 . S
C2266 H2291 0.950 . S
C2267 C2266 1.349 . S
C2267 C2283 1.349 . S
C2268 C2266 1.327 . S
C2268 C2287 1.429 . S
C2268 H2292 0.950 . S
C2269 C2286 1.574 . S
C2269 C2288 1.368 . S
C2269 H2293 0.949 . S
H2270 C2274 0.949 . S
C2271 C2272 1.349 . S
C2271 C2273 1.327 . S
C2271 H2294 0.950 . S
C2272 C2271 1.349 . S
C2272 C2284 1.349 . S
C2273 C2271 1.327 . S
C2273 C2289 1.429 . S
C2273 H2295 0.950 . S
C2274 H2270 0.949 . S
C2274 C2282 1.574 . S
C2274 C2290 1.368 . S
H2275 C2283 0.950 . S
H2276 C2281 0.950 . S
H2277 C2282 0.949 . S
H2278 C2284 0.950 . S
H2279 C2285 0.950 . S
H2280 C2286 0.949 . S
C2281 H2276 0.950 . S
C2281 C2283 1.327 . S
C2281 C2287 1.429 . S
C2282 C2274 1.574 . S
C2282 H2277 0.949 . S
C2282 C2288 1.368 . S
C2283 C2267 1.349 . S
C2283 H2275 0.950 . S
C2283 C2281 1.327 . S
C2284 C2272 1.349 . S
C2284 H2278 0.950 . S
C2284 C2285 1.327 . S
C2285 H2279 0.950 . S
C2285 C2284 1.327 . S
C2285 C2289 1.429 . S
C2286 C2269 1.574 . S
C2286 H2280 0.949 . S
C2286 C2290 1.368 . S
C2287 C2268 1.429 . S
C2287 C2281 1.429 . S
C2287 C2288 1.523 . S
C2288 C2269 1.368 . S
C2288 C2282 1.368 . S
C2288 C2287 1.523 . S
C2289 C2273 1.429 . S
C2289 C2285 1.429 . S
C2289 C2290 1.523 . S
C2290 C2274 1.368 . S
C2290 C2286 1.368 . S
C2290 C2289 1.523 . S
H2291 C2266 0.950 . S
H2292 C2268 0.950 . S
H2293 C2269 0.949 . S
H2294 C2271 0.950 . S
H2295 C2273 0.950 . S
C2296 C2297 1.349 . S
C2296 C2298 1.327 . S
C2296 H2321 0.950 . S
C2297 C2296 1.349 . S
C2297 C2313 1.349 . S
C2298 C2296 1.327 . S
C2298 C2317 1.429 . S
C2298 H2322 0.950 . S
C2299 C2316 1.574 . S
C2299 C2318 1.368 . S
C2299 H2323 0.949 . S
H2300 C2304 0.949 . S
C2301 C2302 1.349 . S
C2301 C2303 1.327 . S
C2301 H2324 0.950 . S
C2302 C2301 1.349 . S
C2302 C2314 1.349 . S
C2303 C2301 1.327 . S
C2303 C2319 1.429 . S
C2303 H2325 0.950 . S
C2304 H2300 0.949 . S
C2304 C2312 1.574 . S
C2304 C2320 1.368 . S
H2305 C2313 0.950 . S
H2306 C2311 0.950 . S
H2307 C2312 0.949 . S
H2308 C2314 0.950 . S
H2309 C2315 0.950 . S
H2310 C2316 0.949 . S
C2311 H2306 0.950 . S
C2311 C2313 1.327 . S
C2311 C2317 1.429 . S
C2312 C2304 1.574 . S
C2312 H2307 0.949 . S
C2312 C2318 1.368 . S
C2313 C2297 1.349 . S
C2313 H2305 0.950 . S
C2313 C2311 1.327 . S
C2314 C2302 1.349 . S
C2314 H2308 0.950 . S
C2314 C2315 1.327 . S
C2315 H2309 0.950 . S
C2315 C2314 1.327 . S
C2315 C2319 1.429 . S
C2316 C2299 1.574 . S
C2316 H2310 0.949 . S
C2316 C2320 1.368 . S
C2317 C2298 1.429 . S
C2317 C2311 1.429 . S
C2317 C2318 1.523 . S
C2318 C2299 1.368 . S
C2318 C2312 1.368 . S
C2318 C2317 1.523 . S
C2319 C2303 1.429 . S
C2319 C2315 1.429 . S
C2319 C2320 1.523 . S
C2320 C2304 1.368 . S
C2320 C2316 1.368 . S
C2320 C2319 1.523 . S
H2321 C2296 0.950 . S
H2322 C2298 0.950 . S
H2323 C2299 0.949 . S
H2324 C2301 0.950 . S
H2325 C2303 0.950 . S
C2326 C2327 1.349 . S
C2326 C2328 1.327 . S
C2326 H2351 0.950 . S
C2327 C2326 1.349 . S
C2327 C2343 1.349 . S
C2328 C2326 1.327 . S
C2328 C2347 1.429 . S
C2328 H2352 0.950 . S
C2329 C2346 1.574 . S
C2329 C2348 1.368 . S
C2329 H2353 0.949 . S
H2330 C2334 0.949 . S
C2331 C2332 1.349 . S
C2331 C2333 1.327 . S
C2331 H2354 0.950 . S
C2332 C2331 1.349 . S
C2332 C2344 1.349 . S
C2333 C2331 1.327 . S
C2333 C2349 1.429 . S
C2333 H2355 0.950 . S
C2334 H2330 0.949 . S
C2334 C2342 1.574 . S
C2334 C2350 1.368 . S
H2335 C2343 0.950 . S
H2336 C2341 0.950 . S
H2337 C2342 0.949 . S
H2338 C2344 0.950 . S
H2339 C2345 0.950 . S
H2340 C2346 0.949 . S
C2341 H2336 0.950 . S
C2341 C2343 1.327 . S
C2341 C2347 1.429 . S
C2342 C2334 1.574 . S
C2342 H2337 0.949 . S
C2342 C2348 1.368 . S
C2343 C2327 1.349 . S
C2343 H2335 0.950 . S
C2343 C2341 1.327 . S
C2344 C2332 1.349 . S
C2344 H2338 0.950 . S
C2344 C2345 1.327 . S
C2345 H2339 0.950 . S
C2345 C2344 1.327 . S
C2345 C2349 1.429 . S
C2346 C2329 1.574 . S
C2346 H2340 0.949 . S
C2346 C2350 1.368 . S
C2347 C2328 1.429 . S
C2347 C2341 1.429 . S
C2347 C2348 1.523 . S
C2348 C2329 1.368 . S
C2348 C2342 1.368 . S
C2348 C2347 1.523 . S
C2349 C2333 1.429 . S
C2349 C2345 1.429 . S
C2349 C2350 1.523 . S
C2350 C2334 1.368 . S
C2350 C2346 1.368 . S
C2350 C2349 1.523 . S
H2351 C2326 0.950 . S
H2352 C2328 0.950 . S
H2353 C2329 0.949 . S
H2354 C2331 0.950 . S
H2355 C2333 0.950 . S
C2356 C2357 1.349 . S
C2356 C2358 1.327 . S
C2356 H2381 0.950 . S
C2357 C2356 1.349 . S
C2357 C2373 1.349 . S
C2358 C2356 1.327 . S
C2358 C2377 1.429 . S
C2358 H2382 0.950 . S
C2359 C2376 1.574 . S
C2359 C2378 1.368 . S
C2359 H2383 0.949 . S
H2360 C2364 0.949 . S
C2361 C2362 1.349 . S
C2361 C2363 1.327 . S
C2361 H2384 0.950 . S
C2362 C2361 1.349 . S
C2362 C2374 1.349 . S
C2363 C2361 1.327 . S
C2363 C2379 1.429 . S
C2363 H2385 0.950 . S
C2364 H2360 0.949 . S
C2364 C2372 1.574 . S
C2364 C2380 1.368 . S
H2365 C2373 0.950 . S
H2366 C2371 0.950 . S
H2367 C2372 0.949 . S
H2368 C2374 0.950 . S
H2369 C2375 0.950 . S
H2370 C2376 0.949 . S
C2371 H2366 0.950 . S
C2371 C2373 1.327 . S
C2371 C2377 1.429 . S
C2372 C2364 1.574 . S
C2372 H2367 0.949 . S
C2372 C2378 1.368 . S
C2373 C2357 1.349 . S
C2373 H2365 0.950 . S
C2373 C2371 1.327 . S
C2374 C2362 1.349 . S
C2374 H2368 0.950 . S
C2374 C2375 1.327 . S
C2375 H2369 0.950 . S
C2375 C2374 1.327 . S
C2375 C2379 1.429 . S
C2376 C2359 1.574 . S
C2376 H2370 0.949 . S
C2376 C2380 1.368 . S
C2377 C2358 1.429 . S
C2377 C2371 1.429 . S
C2377 C2378 1.523 . S
C2378 C2359 1.368 . S
C2378 C2372 1.368 . S
C2378 C2377 1.523 . S
C2379 C2363 1.429 . S
C2379 C2375 1.429 . S
C2379 C2380 1.523 . S
C2380 C2364 1.368 . S
C2380 C2376 1.368 . S
C2380 C2379 1.523 . S
H2381 C2356 0.950 . S
H2382 C2358 0.950 . S
H2383 C2359 0.949 . S
H2384 C2361 0.950 . S
H2385 C2363 0.950 . S
C2386 C2387 1.349 . S
C2386 C2388 1.327 . S
C2386 H2411 0.950 . S
C2387 C2386 1.349 . S
C2387 C2403 1.349 . S
C2388 C2386 1.327 . S
C2388 C2407 1.429 . S
C2388 H2412 0.950 . S
C2389 C2406 1.574 . S
C2389 C2408 1.368 . S
C2389 H2413 0.949 . S
H2390 C2394 0.949 . S
C2391 C2392 1.349 . S
C2391 C2393 1.327 . S
C2391 H2414 0.950 . S
C2392 C2391 1.349 . S
C2392 C2404 1.349 . S
C2393 C2391 1.327 . S
C2393 C2409 1.429 . S
C2393 H2415 0.950 . S
C2394 H2390 0.949 . S
C2394 C2402 1.574 . S
C2394 C2410 1.368 . S
H2395 C2403 0.950 . S
H2396 C2401 0.950 . S
H2397 C2402 0.949 . S
H2398 C2404 0.950 . S
H2399 C2405 0.950 . S
H2400 C2406 0.949 . S
C2401 H2396 0.950 . S
C2401 C2403 1.327 . S
C2401 C2407 1.429 . S
C2402 C2394 1.574 . S
C2402 H2397 0.949 . S
C2402 C2408 1.368 . S
C2403 C2387 1.349 . S
C2403 H2395 0.950 . S
C2403 C2401 1.327 . S
C2404 C2392 1.349 . S
C2404 H2398 0.950 . S
C2404 C2405 1.327 . S
C2405 H2399 0.950 . S
C2405 C2404 1.327 . S
C2405 C2409 1.429 . S
C2406 C2389 1.574 . S
C2406 H2400 0.949 . S
C2406 C2410 1.368 . S
C2407 C2388 1.429 . S
C2407 C2401 1.429 . S
C2407 C2408 1.523 . S
C2408 C2389 1.368 . S
C2408 C2402 1.368 . S
C2408 C2407 1.523 . S
C2409 C2393 1.429 . S
C2409 C2405 1.429 . S
C2409 C2410 1.523 . S
C2410 C2394 1.368 . S
C2410 C2406 1.368 . S
C2410 C2409 1.523 . S
H2411 C2386 0.950 . S
H2412 C2388 0.950 . S
H2413 C2389 0.949 . S
H2414 C2391 0.950 . S
H2415 C2393 0.950 . S
C2416 C2417 1.349 . S
C2416 C2418 1.327 . S
C2416 H2441 0.950 . S
C2417 C2416 1.349 . S
C2417 C2433 1.349 . S
C2418 C2416 1.327 . S
C2418 C2437 1.429 . S
C2418 H2442 0.950 . S
C2419 C2436 1.574 . S
C2419 C2438 1.368 . S
C2419 H2443 0.949 . S
H2420 C2424 0.949 . S
C2421 C2422 1.349 . S
C2421 C2423 1.327 . S
C2421 H2444 0.950 . S
C2422 C2421 1.349 . S
C2422 C2434 1.349 . S
C2423 C2421 1.327 . S
C2423 C2439 1.429 . S
C2423 H2445 0.950 . S
C2424 H2420 0.949 . S
C2424 C2432 1.574 . S
C2424 C2440 1.368 . S
H2425 C2433 0.950 . S
H2426 C2431 0.950 . S
H2427 C2432 0.949 . S
H2428 C2434 0.950 . S
H2429 C2435 0.950 . S
H2430 C2436 0.949 . S
C2431 H2426 0.950 . S
C2431 C2433 1.327 . S
C2431 C2437 1.429 . S
C2432 C2424 1.574 . S
C2432 H2427 0.949 . S
C2432 C2438 1.368 . S
C2433 C2417 1.349 . S
C2433 H2425 0.950 . S
C2433 C2431 1.327 . S
C2434 C2422 1.349 . S
C2434 H2428 0.950 . S
C2434 C2435 1.327 . S
C2435 H2429 0.950 . S
C2435 C2434 1.327 . S
C2435 C2439 1.429 . S
C2436 C2419 1.574 . S
C2436 H2430 0.949 . S
C2436 C2440 1.368 . S
C2437 C2418 1.429 . S
C2437 C2431 1.429 . S
C2437 C2438 1.523 . S
C2438 C2419 1.368 . S
C2438 C2432 1.368 . S
C2438 C2437 1.523 . S
C2439 C2423 1.429 . S
C2439 C2435 1.429 . S
C2439 C2440 1.523 . S
C2440 C2424 1.368 . S
C2440 C2436 1.368 . S
C2440 C2439 1.523 . S
H2441 C2416 0.950 . S
H2442 C2418 0.950 . S
H2443 C2419 0.949 . S
H2444 C2421 0.950 . S
H2445 C2423 0.950 . S
C2446 C2447 1.349 . S
C2446 C2448 1.327 . S
C2446 H2471 0.950 . S
C2447 C2446 1.349 . S
C2447 C2463 1.349 . S
C2448 C2446 1.327 . S
C2448 C2467 1.429 . S
C2448 H2472 0.950 . S
C2449 C2466 1.574 . S
C2449 C2468 1.368 . S
C2449 H2473 0.949 . S
H2450 C2454 0.949 . S
C2451 C2452 1.349 . S
C2451 C2453 1.327 . S
C2451 H2474 0.950 . S
C2452 C2451 1.349 . S
C2452 C2464 1.349 . S
C2453 C2451 1.327 . S
C2453 C2469 1.429 . S
C2453 H2475 0.950 . S
C2454 H2450 0.949 . S
C2454 C2462 1.574 . S
C2454 C2470 1.368 . S
H2455 C2463 0.950 . S
H2456 C2461 0.950 . S
H2457 C2462 0.949 . S
H2458 C2464 0.950 . S
H2459 C2465 0.950 . S
H2460 C2466 0.949 . S
C2461 H2456 0.950 . S
C2461 C2463 1.327 . S
C2461 C2467 1.429 . S
C2462 C2454 1.574 . S
C2462 H2457 0.949 . S
C2462 C2468 1.368 . S
C2463 C2447 1.349 . S
C2463 H2455 0.950 . S
C2463 C2461 1.327 . S
C2464 C2452 1.349 . S
C2464 H2458 0.950 . S
C2464 C2465 1.327 . S
C2465 H2459 0.950 . S
C2465 C2464 1.327 . S
C2465 C2469 1.429 . S
C2466 C2449 1.574 . S
C2466 H2460 0.949 . S
C2466 C2470 1.368 . S
C2467 C2448 1.429 . S
C2467 C2461 1.429 . S
C2467 C2468 1.523 . S
C2468 C2449 1.368 . S
C2468 C2462 1.368 . S
C2468 C2467 1.523 . S
C2469 C2453 1.429 . S
C2469 C2465 1.429 . S
C2469 C2470 1.523 . S
C2470 C2454 1.368 . S
C2470 C2466 1.368 . S
C2470 C2469 1.523 . S
H2471 C2446 0.950 . S
H2472 C2448 0.950 . S
H2473 C2449 0.949 . S
H2474 C2451 0.950 . S
H2475 C2453 0.950 . S
C2476 C2477 1.349 . S
C2476 C2478 1.327 . S
C2476 H2501 0.950 . S
C2477 C2476 1.349 . S
C2477 C2493 1.349 . S
C2478 C2476 1.327 . S
C2478 C2497 1.429 . S
C2478 H2502 0.950 . S
C2479 C2496 1.574 . S
C2479 C2498 1.368 . S
C2479 H2503 0.949 . S
H2480 C2484 0.949 . S
C2481 C2482 1.349 . S
C2481 C2483 1.327 . S
C2481 H2504 0.950 . S
C2482 C2481 1.349 . S
C2482 C2494 1.349 . S
C2483 C2481 1.327 . S
C2483 C2499 1.429 . S
C2483 H2505 0.950 . S
C2484 H2480 0.949 . S
C2484 C2492 1.574 . S
C2484 C2500 1.368 . S
H2485 C2493 0.950 . S
H2486 C2491 0.950 . S
H2487 C2492 0.949 . S
H2488 C2494 0.950 . S
H2489 C2495 0.950 . S
H2490 C2496 0.949 . S
C2491 H2486 0.950 . S
C2491 C2493 1.327 . S
C2491 C2497 1.429 . S
C2492 C2484 1.574 . S
C2492 H2487 0.949 . S
C2492 C2498 1.368 . S
C2493 C2477 1.349 . S
C2493 H2485 0.950 . S
C2493 C2491 1.327 . S
C2494 C2482 1.349 . S
C2494 H2488 0.950 . S
C2494 C2495 1.327 . S
C2495 H2489 0.950 . S
C2495 C2494 1.327 . S
C2495 C2499 1.429 . S
C2496 C2479 1.574 . S
C2496 H2490 0.949 . S
C2496 C2500 1.368 . S
C2497 C2478 1.429 . S
C2497 C2491 1.429 . S
C2497 C2498 1.523 . S
C2498 C2479 1.368 . S
C2498 C2492 1.368 . S
C2498 C2497 1.523 . S
C2499 C2483 1.429 . S
C2499 C2495 1.429 . S
C2499 C2500 1.523 . S
C2500 C2484 1.368 . S
C2500 C2496 1.368 . S
C2500 C2499 1.523 . S
H2501 C2476 0.950 . S
H2502 C2478 0.950 . S
H2503 C2479 0.949 . S
H2504 C2481 0.950 . S
H2505 C2483 0.950 . S
C2506 C2507 1.349 . S
C2506 C2508 1.327 . S
C2506 H2531 0.950 . S
C2507 C2506 1.349 . S
C2507 C2523 1.349 . S
C2508 C2506 1.327 . S
C2508 C2527 1.429 . S
C2508 H2532 0.950 . S
C2509 C2526 1.574 . S
C2509 C2528 1.368 . S
C2509 H2533 0.949 . S
H2510 C2514 0.949 . S
C2511 C2512 1.349 . S
C2511 C2513 1.327 . S
C2511 H2534 0.950 . S
C2512 C2511 1.349 . S
C2512 C2524 1.349 . S
C2513 C2511 1.327 . S
C2513 C2529 1.429 . S
C2513 H2535 0.950 . S
C2514 H2510 0.949 . S
C2514 C2522 1.574 . S
C2514 C2530 1.368 . S
H2515 C2523 0.950 . S
H2516 C2521 0.950 . S
H2517 C2522 0.949 . S
H2518 C2524 0.950 . S
H2519 C2525 0.950 . S
H2520 C2526 0.949 . S
C2521 H2516 0.950 . S
C2521 C2523 1.327 . S
C2521 C2527 1.429 . S
C2522 C2514 1.574 . S
C2522 H2517 0.949 . S
C2522 C2528 1.368 . S
C2523 C2507 1.349 . S
C2523 H2515 0.950 . S
C2523 C2521 1.327 . S
C2524 C2512 1.349 . S
C2524 H2518 0.950 . S
C2524 C2525 1.327 . S
C2525 H2519 0.950 . S
C2525 C2524 1.327 . S
C2525 C2529 1.429 . S
C2526 C2509 1.574 . S
C2526 H2520 0.949 . S
C2526 C2530 1.368 . S
C2527 C2508 1.429 . S
C2527 C2521 1.429 . S
C2527 C2528 1.523 . S
C2528 C2509 1.368 . S
C2528 C2522 1.368 . S
C2528 C2527 1.523 . S
C2529 C2513 1.429 . S
C2529 C2525 1.429 . S
C2529 C2530 1.523 . S
C2530 C2514 1.368 . S
C2530 C2526 1.368 . S
C2530 C2529 1.523 . S
H2531 C2506 0.950 . S
H2532 C2508 0.950 . S
H2533 C2509 0.949 . S
H2534 C2511 0.950 . S
H2535 C2513 0.950 . S
C2536 C2537 1.349 . S
C2536 C2538 1.327 . S
C2536 H2561 0.950 . S
C2537 C2536 1.349 . S
C2537 C2553 1.349 . S
C2538 C2536 1.327 . S
C2538 C2557 1.429 . S
C2538 H2562 0.950 . S
C2539 C2556 1.574 . S
C2539 C2558 1.368 . S
C2539 H2563 0.949 . S
H2540 C2544 0.949 . S
C2541 C2542 1.349 . S
C2541 C2543 1.327 . S
C2541 H2564 0.950 . S
C2542 C2541 1.349 . S
C2542 C2554 1.349 . S
C2543 C2541 1.327 . S
C2543 C2559 1.429 . S
C2543 H2565 0.950 . S
C2544 H2540 0.949 . S
C2544 C2552 1.574 . S
C2544 C2560 1.368 . S
H2545 C2553 0.950 . S
H2546 C2551 0.950 . S
H2547 C2552 0.949 . S
H2548 C2554 0.950 . S
H2549 C2555 0.950 . S
H2550 C2556 0.949 . S
C2551 H2546 0.950 . S
C2551 C2553 1.327 . S
C2551 C2557 1.429 . S
C2552 C2544 1.574 . S
C2552 H2547 0.949 . S
C2552 C2558 1.368 . S
C2553 C2537 1.349 . S
C2553 H2545 0.950 . S
C2553 C2551 1.327 . S
C2554 C2542 1.349 . S
C2554 H2548 0.950 . S
C2554 C2555 1.327 . S
C2555 H2549 0.950 . S
C2555 C2554 1.327 . S
C2555 C2559 1.429 . S
C2556 C2539 1.574 . S
C2556 H2550 0.949 . S
C2556 C2560 1.368 . S
C2557 C2538 1.429 . S
C2557 C2551 1.429 . S
C2557 C2558 1.523 . S
C2558 C2539 1.368 . S
C2558 C2552 1.368 . S
C2558 C2557 1.523 . S
C2559 C2543 1.429 . S
C2559 C2555 1.429 . S
C2559 C2560 1.523 . S
C2560 C2544 1.368 . S
C2560 C2556 1.368 . S
C2560 C2559 1.523 . S
H2561 C2536 0.950 . S
H2562 C2538 0.950 . S
H2563 C2539 0.949 . S
H2564 C2541 0.950 . S
H2565 C2543 0.950 . S
C2566 C2567 1.349 . S
C2566 C2568 1.327 . S
C2566 H2591 0.950 . S
C2567 C2566 1.349 . S
C2567 C2583 1.349 . S
C2568 C2566 1.327 . S
C2568 C2587 1.429 . S
C2568 H2592 0.950 . S
C2569 C2586 1.574 . S
C2569 C2588 1.368 . S
C2569 H2593 0.949 . S
H2570 C2574 0.949 . S
C2571 C2572 1.349 . S
C2571 C2573 1.327 . S
C2571 H2594 0.950 . S
C2572 C2571 1.349 . S
C2572 C2584 1.349 . S
C2573 C2571 1.327 . S
C2573 C2589 1.429 . S
C2573 H2595 0.950 . S
C2574 H2570 0.949 . S
C2574 C2582 1.574 . S
C2574 C2590 1.368 . S
H2575 C2583 0.950 . S
H2576 C2581 0.950 . S
H2577 C2582 0.949 . S
H2578 C2584 0.950 . S
H2579 C2585 0.950 . S
H2580 C2586 0.949 . S
C2581 H2576 0.950 . S
C2581 C2583 1.327 . S
C2581 C2587 1.429 . S
C2582 C2574 1.574 . S
C2582 H2577 0.949 . S
C2582 C2588 1.368 . S
C2583 C2567 1.349 . S
C2583 H2575 0.950 . S
C2583 C2581 1.327 . S
C2584 C2572 1.349 . S
C2584 H2578 0.950 . S
C2584 C2585 1.327 . S
C2585 H2579 0.950 . S
C2585 C2584 1.327 . S
C2585 C2589 1.429 . S
C2586 C2569 1.574 . S
C2586 H2580 0.949 . S
C2586 C2590 1.368 . S
C2587 C2568 1.429 . S
C2587 C2581 1.429 . S
C2587 C2588 1.523 . S
C2588 C2569 1.368 . S
C2588 C2582 1.368 . S
C2588 C2587 1.523 . S
C2589 C2573 1.429 . S
C2589 C2585 1.429 . S
C2589 C2590 1.523 . S
C2590 C2574 1.368 . S
C2590 C2586 1.368 . S
C2590 C2589 1.523 . S
H2591 C2566 0.950 . S
H2592 C2568 0.950 . S
H2593 C2569 0.949 . S
H2594 C2571 0.950 . S
H2595 C2573 0.950 . S
C2596 C2597 1.349 . S
C2596 C2598 1.327 . S
C2596 H2621 0.950 . S
C2597 C2596 1.349 . S
C2597 C2613 1.349 . S
C2598 C2596 1.327 . S
C2598 C2617 1.429 . S
C2598 H2622 0.950 . S
C2599 C2616 1.574 . S
C2599 C2618 1.368 . S
C2599 H2623 0.949 . S
H2600 C2604 0.949 . S
C2601 C2602 1.349 . S
C2601 C2603 1.327 . S
C2601 H2624 0.950 . S
C2602 C2601 1.349 . S
C2602 C2614 1.349 . S
C2603 C2601 1.327 . S
C2603 C2619 1.429 . S
C2603 H2625 0.950 . S
C2604 H2600 0.949 . S
C2604 C2612 1.574 . S
C2604 C2620 1.368 . S
H2605 C2613 0.950 . S
H2606 C2611 0.950 . S
H2607 C2612 0.949 . S
H2608 C2614 0.950 . S
H2609 C2615 0.950 . S
H2610 C2616 0.949 . S
C2611 H2606 0.950 . S
C2611 C2613 1.327 . S
C2611 C2617 1.429 . S
C2612 C2604 1.574 . S
C2612 H2607 0.949 . S
C2612 C2618 1.368 . S
C2613 C2597 1.349 . S
C2613 H2605 0.950 . S
C2613 C2611 1.327 . S
C2614 C2602 1.349 . S
C2614 H2608 0.950 . S
C2614 C2615 1.327 . S
C2615 H2609 0.950 . S
C2615 C2614 1.327 . S
C2615 C2619 1.429 . S
C2616 C2599 1.574 . S
C2616 H2610 0.949 . S
C2616 C2620 1.368 . S
C2617 C2598 1.429 . S
C2617 C2611 1.429 . S
C2617 C2618 1.523 . S
C2618 C2599 1.368 . S
C2618 C2612 1.368 . S
C2618 C2617 1.523 . S
C2619 C2603 1.429 . S
C2619 C2615 1.429 . S
C2619 C2620 1.523 . S
C2620 C2604 1.368 . S
C2620 C2616 1.368 . S
C2620 C2619 1.523 . S
H2621 C2596 0.950 . S
H2622 C2598 0.950 . S
H2623 C2599 0.949 . S
H2624 C2601 0.950 . S
H2625 C2603 0.950 . S
C2626 C2627 1.349 . S
C2626 C2628 1.327 . S
C2626 H2651 0.950 . S
C2627 C2626 1.349 . S
C2627 C2643 1.349 . S
C2628 C2626 1.327 . S
C2628 C2647 1.429 . S
C2628 H2652 0.950 . S
C2629 C2646 1.574 . S
C2629 C2648 1.368 . S
C2629 H2653 0.949 . S
H2630 C2634 0.949 . S
C2631 C2632 1.349 . S
C2631 C2633 1.327 . S
C2631 H2654 0.950 . S
C2632 C2631 1.349 . S
C2632 C2644 1.349 . S
C2633 C2631 1.327 . S
C2633 C2649 1.429 . S
C2633 H2655 0.950 . S
C2634 H2630 0.949 . S
C2634 C2642 1.574 . S
C2634 C2650 1.368 . S
H2635 C2643 0.950 . S
H2636 C2641 0.950 . S
H2637 C2642 0.949 . S
H2638 C2644 0.950 . S
H2639 C2645 0.950 . S
H2640 C2646 0.949 . S
C2641 H2636 0.950 . S
C2641 C2643 1.327 . S
C2641 C2647 1.429 . S
C2642 C2634 1.574 . S
C2642 H2637 0.949 . S
C2642 C2648 1.368 . S
C2643 C2627 1.349 . S
C2643 H2635 0.950 . S
C2643 C2641 1.327 . S
C2644 C2632 1.349 . S
C2644 H2638 0.950 . S
C2644 C2645 1.327 . S
C2645 H2639 0.950 . S
C2645 C2644 1.327 . S
C2645 C2649 1.429 . S
C2646 C2629 1.574 . S
C2646 H2640 0.949 . S
C2646 C2650 1.368 . S
C2647 C2628 1.429 . S
C2647 C2641 1.429 . S
C2647 C2648 1.523 . S
C2648 C2629 1.368 . S
C2648 C2642 1.368 . S
C2648 C2647 1.523 . S
C2649 C2633 1.429 . S
C2649 C2645 1.429 . S
C2649 C2650 1.523 . S
C2650 C2634 1.368 . S
C2650 C2646 1.368 . S
C2650 C2649 1.523 . S
H2651 C2626 0.950 . S
H2652 C2628 0.950 . S
H2653 C2629 0.949 . S
H2654 C2631 0.950 . S
H2655 C2633 0.950 . S
C2656 C2657 1.302 1_556 S
C2656 C2658 1.327 . S
C2656 H2681 0.950 . S
C2657 C2656 1.302 1_554 S
C2657 C2673 1.396 . S
C2658 C2656 1.327 . S
C2658 C2677 1.422 1_556 S
C2658 H2682 0.950 . S
C2659 C2676 1.574 1_565 S
C2659 C2678 1.364 1_554 S
C2659 H2683 0.949 . S
H2660 C2664 0.949 . S
C2661 C2662 1.349 1_554 S
C2661 C2663 1.327 . S
C2661 H2684 0.950 . S
C2662 C2661 1.349 1_556 S
C2662 C2674 1.349 . S
C2663 C2661 1.327 . S
C2663 C2679 1.429 1_554 S
C2663 H2685 0.950 . S
C2664 H2660 0.949 . S
C2664 C2672 1.574 . S
C2664 C2680 1.413 . S
H2665 C2673 0.950 . S
H2666 C2671 0.950 . S
H2667 C2672 0.949 . S
H2668 C2674 0.950 . S
H2669 C2675 0.950 . S
H2670 C2676 0.949 . S
C2671 H2666 0.950 . S
C2671 C2673 1.327 . S
C2671 C2677 1.435 . S
C2672 C2664 1.574 . S
C2672 H2667 0.949 . S
C2672 C2678 1.372 1_545 S
C2673 C2657 1.396 . S
C2673 H2665 0.950 . S
C2673 C2671 1.327 . S
C2674 C2662 1.349 . S
C2674 H2668 0.950 . S
C2674 C2675 1.327 . S
C2675 H2669 0.950 . S
C2675 C2674 1.327 . S
C2675 C2679 1.429 . S
C2676 C2659 1.574 1_545 S
C2676 H2670 0.949 . S
C2676 C2680 1.324 1_554 S
C2677 C2658 1.422 1_554 S
C2677 C2671 1.435 . S
C2677 C2678 1.523 1_554 S
C2678 C2659 1.364 1_556 S
C2678 C2672 1.372 1_565 S
C2678 C2677 1.523 1_556 S
C2679 C2663 1.429 1_556 S
C2679 C2675 1.429 . S
C2679 C2680 1.525 . S
C2680 C2664 1.413 . S
C2680 C2676 1.324 1_556 S
C2680 C2679 1.525 . S
H2681 C2656 0.950 . S
H2682 C2658 0.950 . S
H2683 C2659 0.949 . S
H2684 C2661 0.950 . S
H2685 C2663 0.950 . S
C2686 C2687 1.301 1_556 S
C2686 C2688 1.327 . S
C2686 H2711 0.950 . S
C2687 C2686 1.301 1_554 S
C2687 C2703 1.397 . S
C2688 C2686 1.327 . S
C2688 C2707 1.422 1_556 S
C2688 H2712 0.950 . S
C2689 C2706 1.574 . S
C2689 C2708 1.364 1_554 S
C2689 H2713 0.949 . S
H2690 C2694 0.949 . S
C2691 C2692 1.349 1_554 S
C2691 C2693 1.327 . S
C2691 H2714 0.950 . S
C2692 C2691 1.349 1_556 S
C2692 C2704 1.349 . S
C2693 C2691 1.327 . S
C2693 C2709 1.429 1_654 S
C2693 H2715 0.950 . S
C2694 H2690 0.949 . S
C2694 C2702 1.574 . S
C2694 C2710 1.414 . S
H2695 C2703 0.950 . S
H2696 C2701 0.950 . S
H2697 C2702 0.949 . S
H2698 C2704 0.950 . S
H2699 C2705 0.950 1_455 S
H2700 C2706 0.949 . S
C2701 H2696 0.950 . S
C2701 C2703 1.327 . S
C2701 C2707 1.435 . S
C2702 C2694 1.574 . S
C2702 H2697 0.949 . S
C2702 C2708 1.372 . S
C2703 C2687 1.397 . S
C2703 H2695 0.950 . S
C2703 C2701 1.327 . S
C2704 C2692 1.349 . S
C2704 H2698 0.950 . S
C2704 C2705 1.327 . S
C2705 H2699 0.950 1_655 S
C2705 C2704 1.327 . S
C2705 C2709 1.429 1_655 S
C2706 C2689 1.574 . S
C2706 H2700 0.949 . S
C2706 C2710 1.323 1_554 S
C2707 C2688 1.422 1_554 S
C2707 C2701 1.435 . S
C2707 C2708 1.523 1_554 S
C2708 C2689 1.364 1_556 S
C2708 C2702 1.372 . S
C2708 C2707 1.523 1_556 S
C2709 C2693 1.429 1_456 S
C2709 C2705 1.429 1_455 S
C2709 C2710 1.525 . S
C2710 C2694 1.414 . S
C2710 C2706 1.323 1_556 S
C2710 C2709 1.525 . S
H2711 C2686 0.950 . S
H2712 C2688 0.950 . S
H2713 C2689 0.949 . S
H2714 C2691 0.950 . S
H2715 C2693 0.950 . S
C2716 C2717 1.349 . S
C2716 C2718 1.327 . S
C2716 H2741 0.950 . S
C2717 C2716 1.349 . S
C2717 C2733 1.349 . S
C2718 C2716 1.327 . S
C2718 C2737 1.429 . S
C2718 H2742 0.950 . S
C2719 C2736 1.574 . S
C2719 C2738 1.368 . S
C2719 H2743 0.949 . S
H2720 C2724 0.949 . S
C2721 C2722 1.349 . S
C2721 C2723 1.327 . S
C2721 H2744 0.950 . S
C2722 C2721 1.349 . S
C2722 C2734 1.349 . S
C2723 C2721 1.327 . S
C2723 C2739 1.429 . S
C2723 H2745 0.950 . S
C2724 H2720 0.949 . S
C2724 C2732 1.574 . S
C2724 C2740 1.368 . S
H2725 C2733 0.950 . S
H2726 C2731 0.950 . S
H2727 C2732 0.949 . S
H2728 C2734 0.950 . S
H2729 C2735 0.950 . S
H2730 C2736 0.949 . S
C2731 H2726 0.950 . S
C2731 C2733 1.327 . S
C2731 C2737 1.429 . S
C2732 C2724 1.574 . S
C2732 H2727 0.949 . S
C2732 C2738 1.368 . S
C2733 C2717 1.349 . S
C2733 H2725 0.950 . S
C2733 C2731 1.327 . S
C2734 C2722 1.349 . S
C2734 H2728 0.950 . S
C2734 C2735 1.327 . S
C2735 H2729 0.950 . S
C2735 C2734 1.327 . S
C2735 C2739 1.429 . S
C2736 C2719 1.574 . S
C2736 H2730 0.949 . S
C2736 C2740 1.368 . S
C2737 C2718 1.429 . S
C2737 C2731 1.429 . S
C2737 C2738 1.523 . S
C2738 C2719 1.368 . S
C2738 C2732 1.368 . S
C2738 C2737 1.523 . S
C2739 C2723 1.429 . S
C2739 C2735 1.429 . S
C2739 C2740 1.523 . S
C2740 C2724 1.368 . S
C2740 C2736 1.368 . S
C2740 C2739 1.523 . S
H2741 C2716 0.950 . S
H2742 C2718 0.950 . S
H2743 C2719 0.949 . S
H2744 C2721 0.950 . S
H2745 C2723 0.950 . S
C2746 C2747 1.349 . S
C2746 C2748 1.327 . S
C2746 H2771 0.950 . S
C2747 C2746 1.349 . S
C2747 C2763 1.349 . S
C2748 C2746 1.327 . S
C2748 C2767 1.429 1_655 S
C2748 H2772 0.950 . S
C2749 C2766 1.574 . S
C2749 C2768 1.368 . S
C2749 H2773 0.949 . S
H2750 C2754 0.949 . S
C2751 C2752 1.349 . S
C2751 C2753 1.327 . S
C2751 H2774 0.950 . S
C2752 C2751 1.349 . S
C2752 C2764 1.349 . S
C2753 C2751 1.327 . S
C2753 C2769 1.429 . S
C2753 H2775 0.950 . S
C2754 H2750 0.949 . S
C2754 C2762 1.574 1_565 S
C2754 C2770 1.368 . S
H2755 C2763 0.950 . S
H2756 C2761 0.950 1_455 S
H2757 C2762 0.949 . S
H2758 C2764 0.950 . S
H2759 C2765 0.950 . S
H2760 C2766 0.949 . S
C2761 H2756 0.950 1_655 S
C2761 C2763 1.327 . S
C2761 C2767 1.429 1_655 S
C2762 C2754 1.574 1_545 S
C2762 H2757 0.949 . S
C2762 C2768 1.368 . S
C2763 C2747 1.349 . S
C2763 H2755 0.950 . S
C2763 C2761 1.327 . S
C2764 C2752 1.349 . S
C2764 H2758 0.950 . S
C2764 C2765 1.327 . S
C2765 H2759 0.950 . S
C2765 C2764 1.327 . S
C2765 C2769 1.429 . S
C2766 C2749 1.574 . S
C2766 H2760 0.949 . S
C2766 C2770 1.368 1_545 S
C2767 C2748 1.429 1_455 S
C2767 C2761 1.429 1_455 S
C2767 C2768 1.523 . S
C2768 C2749 1.368 . S
C2768 C2762 1.368 . S
C2768 C2767 1.523 . S
C2769 C2753 1.429 . S
C2769 C2765 1.429 . S
C2769 C2770 1.523 . S
C2770 C2754 1.368 . S
C2770 C2766 1.368 1_565 S
C2770 C2769 1.523 . S
H2771 C2746 0.950 . S
H2772 C2748 0.950 . S
H2773 C2749 0.949 . S
H2774 C2751 0.950 . S
H2775 C2753 0.950 . S
C2776 C2777 1.326 1_554 S
C2776 C2778 1.327 . S
C2776 H2801 0.950 . S
C2777 C2776 1.326 1_556 S
C2777 C2793 1.372 . S
C2778 C2776 1.327 . S
C2778 C2797 1.377 1_554 S
C2778 H2802 0.950 . S
C2779 C2796 1.574 1_565 S
C2779 C2798 1.368 . S
C2779 H2803 0.949 . S
H2780 C2784 0.949 . S
C2781 C2782 1.349 . S
C2781 C2783 1.327 . S
C2781 H2804 0.950 . S
C2782 C2781 1.349 . S
C2782 C2794 1.349 1_556 S
C2783 C2781 1.327 . S
C2783 C2799 1.429 . S
C2783 H2805 0.950 . S
C2784 H2780 0.949 . S
C2784 C2792 1.574 . S
C2784 C2800 1.368 1_564 S
H2785 C2793 0.950 . S
H2786 C2791 0.950 . S
H2787 C2792 0.949 . S
H2788 C2794 0.950 . S
H2789 C2795 0.950 . S
H2790 C2796 0.949 . S
C2791 H2786 0.950 . S
C2791 C2793 1.327 . S
C2791 C2797 1.480 . S
C2792 C2784 1.574 . S
C2792 H2787 0.949 . S
C2792 C2798 1.368 1_554 S
C2793 C2777 1.372 . S
C2793 H2785 0.950 . S
C2793 C2791 1.327 . S
C2794 C2782 1.349 1_554 S
C2794 H2788 0.950 . S
C2794 C2795 1.327 . S
C2795 H2789 0.950 . S
C2795 C2794 1.327 . S
C2795 C2799 1.429 1_554 S
C2796 C2779 1.574 1_545 S
C2796 H2790 0.949 . S
C2796 C2800 1.368 . S
C2797 C2778 1.377 1_556 S
C2797 C2791 1.480 . S
C2797 C2798 1.526 . S
C2798 C2779 1.368 . S
C2798 C2792 1.368 1_556 S
C2798 C2797 1.526 . S
C2799 C2783 1.429 . S
C2799 C2795 1.429 1_556 S
C2799 C2800 1.523 . S
C2800 C2784 1.368 1_546 S
C2800 C2796 1.368 . S
C2800 C2799 1.523 . S
H2801 C2776 0.950 . S
H2802 C2778 0.950 . S
H2803 C2779 0.949 . S
H2804 C2781 0.950 . S
H2805 C2783 0.950 . S
C2806 C2807 1.372 . S
C2806 C2808 1.327 . S
C2806 H2831 0.950 . S
C2807 C2806 1.372 . S
C2807 C2823 1.326 1_556 S
C2808 C2806 1.327 . S
C2808 C2827 1.480 1_455 S
C2808 H2832 0.950 . S
C2809 C2826 1.574 . S
C2809 C2828 1.368 1_554 S
C2809 H2833 0.949 . S
H2810 C2814 0.949 . S
C2811 C2812 1.349 1_554 S
C2811 C2813 1.327 . S
C2811 H2834 0.950 . S
C2812 C2811 1.349 1_556 S
C2812 C2824 1.349 . S
C2813 C2811 1.327 . S
C2813 C2829 1.429 1_554 S
C2813 H2835 0.950 . S
C2814 H2810 0.949 . S
C2814 C2822 1.574 . S
C2814 C2830 1.368 . S
H2815 C2823 0.950 . S
H2816 C2821 0.950 1_655 S
H2817 C2822 0.949 . S
H2818 C2824 0.950 . S
H2819 C2825 0.950 . S
H2820 C2826 0.949 . S
C2821 H2816 0.950 1_455 S
C2821 C2823 1.327 . S
C2821 C2827 1.377 1_454 S
C2822 C2814 1.574 . S
C2822 H2817 0.949 . S
C2822 C2828 1.368 . S
C2823 C2807 1.326 1_554 S
C2823 H2815 0.950 . S
C2823 C2821 1.327 . S
C2824 C2812 1.349 . S
C2824 H2818 0.950 . S
C2824 C2825 1.327 . S
C2825 H2819 0.950 . S
C2825 C2824 1.327 . S
C2825 C2829 1.429 . S
C2826 C2809 1.574 . S
C2826 H2820 0.949 . S
C2826 C2830 1.368 1_554 S
C2827 C2808 1.480 1_655 S
C2827 C2821 1.377 1_656 S
C2827 C2828 1.526 . S
C2828 C2809 1.368 1_556 S
C2828 C2822 1.368 . S
C2828 C2827 1.526 . S
C2829 C2813 1.429 1_556 S
C2829 C2825 1.429 . S
C2829 C2830 1.523 . S
C2830 C2814 1.368 . S
C2830 C2826 1.368 1_556 S
C2830 C2829 1.523 . S
H2831 C2806 0.950 . S
H2832 C2808 0.950 . S
H2833 C2809 0.949 . S
H2834 C2811 0.950 . S
H2835 C2813 0.950 . S
C2836 C2837 1.349 . S
C2836 C2838 1.327 . S
C2836 H2861 0.950 . S
C2837 C2836 1.349 . S
C2837 C2853 1.349 . S
C2838 C2836 1.327 . S
C2838 C2857 1.429 . S
C2838 H2862 0.950 . S
C2839 C2856 1.574 . S
C2839 C2858 1.368 . S
C2839 H2863 0.949 . S
H2840 C2844 0.949 . S
C2841 C2842 1.349 . S
C2841 C2843 1.327 . S
C2841 H2864 0.950 . S
C2842 C2841 1.349 . S
C2842 C2854 1.349 . S
C2843 C2841 1.327 . S
C2843 C2859 1.429 . S
C2843 H2865 0.950 . S
C2844 H2840 0.949 . S
C2844 C2852 1.574 . S
C2844 C2860 1.368 . S
H2845 C2853 0.950 . S
H2846 C2851 0.950 . S
H2847 C2852 0.949 . S
H2848 C2854 0.950 . S
H2849 C2855 0.950 . S
H2850 C2856 0.949 . S
C2851 H2846 0.950 . S
C2851 C2853 1.327 . S
C2851 C2857 1.429 . S
C2852 C2844 1.574 . S
C2852 H2847 0.949 . S
C2852 C2858 1.368 . S
C2853 C2837 1.349 . S
C2853 H2845 0.950 . S
C2853 C2851 1.327 . S
C2854 C2842 1.349 . S
C2854 H2848 0.950 . S
C2854 C2855 1.327 . S
C2855 H2849 0.950 . S
C2855 C2854 1.327 . S
C2855 C2859 1.429 . S
C2856 C2839 1.574 . S
C2856 H2850 0.949 . S
C2856 C2860 1.368 . S
C2857 C2838 1.429 . S
C2857 C2851 1.429 . S
C2857 C2858 1.523 . S
C2858 C2839 1.368 . S
C2858 C2852 1.368 . S
C2858 C2857 1.523 . S
C2859 C2843 1.429 . S
C2859 C2855 1.429 . S
C2859 C2860 1.523 . S
C2860 C2844 1.368 . S
C2860 C2856 1.368 . S
C2860 C2859 1.523 . S
H2861 C2836 0.950 . S
H2862 C2838 0.950 . S
H2863 C2839 0.949 . S
H2864 C2841 0.950 . S
H2865 C2843 0.950 . S
C2866 C2867 1.349 . S
C2866 C2868 1.327 . S
C2866 H2891 0.950 . S
C2867 C2866 1.349 . S
C2867 C2883 1.349 . S
C2868 C2866 1.327 . S
C2868 C2887 1.429 . S
C2868 H2892 0.950 . S
C2869 C2886 1.574 1_545 S
C2869 C2888 1.368 . S
C2869 H2893 0.949 . S
H2870 C2874 0.949 . S
C2871 C2872 1.349 . S
C2871 C2873 1.327 . S
C2871 H2894 0.950 . S
C2872 C2871 1.349 . S
C2872 C2884 1.349 . S
C2873 C2871 1.327 . S
C2873 C2889 1.429 1_455 S
C2873 H2895 0.950 . S
C2874 H2870 0.949 . S
C2874 C2882 1.574 . S
C2874 C2890 1.368 . S
H2875 C2883 0.950 . S
H2876 C2881 0.950 . S
H2877 C2882 0.949 . S
H2878 C2884 0.950 . S
H2879 C2885 0.950 1_655 S
H2880 C2886 0.949 . S
C2881 H2876 0.950 . S
C2881 C2883 1.327 . S
C2881 C2887 1.429 . S
C2882 C2874 1.574 . S
C2882 H2877 0.949 . S
C2882 C2888 1.368 1_565 S
C2883 C2867 1.349 . S
C2883 H2875 0.950 . S
C2883 C2881 1.327 . S
C2884 C2872 1.349 . S
C2884 H2878 0.950 . S
C2884 C2885 1.327 . S
C2885 H2879 0.950 1_455 S
C2885 C2884 1.327 . S
C2885 C2889 1.429 1_455 S
C2886 C2869 1.574 1_565 S
C2886 H2880 0.949 . S
C2886 C2890 1.368 . S
C2887 C2868 1.429 . S
C2887 C2881 1.429 . S
C2887 C2888 1.523 . S
C2888 C2869 1.368 . S
C2888 C2882 1.368 1_545 S
C2888 C2887 1.523 . S
C2889 C2873 1.429 1_655 S
C2889 C2885 1.429 1_655 S
C2889 C2890 1.523 . S
C2890 C2874 1.368 . S
C2890 C2886 1.368 . S
C2890 C2889 1.523 . S
H2891 C2866 0.950 . S
H2892 C2868 0.950 . S
H2893 C2869 0.949 . S
H2894 C2871 0.950 . S
H2895 C2873 0.950 . S
C2896 C2897 1.349 . S
C2896 C2898 1.327 . S
C2896 H2921 0.950 . S
C2897 C2896 1.349 . S
C2897 C2913 1.349 . S
C2898 C2896 1.327 . S
C2898 C2917 1.429 . S
C2898 H2922 0.950 . S
C2899 C2916 1.574 . S
C2899 C2918 1.368 . S
C2899 H2923 0.949 . S
H2900 C2904 0.949 . S
C2901 C2902 1.349 . S
C2901 C2903 1.327 . S
C2901 H2924 0.950 . S
C2902 C2901 1.349 . S
C2902 C2914 1.349 . S
C2903 C2901 1.327 . S
C2903 C2919 1.429 . S
C2903 H2925 0.950 . S
C2904 H2900 0.949 . S
C2904 C2912 1.574 . S
C2904 C2920 1.368 . S
H2905 C2913 0.950 . S
H2906 C2911 0.950 . S
H2907 C2912 0.949 . S
H2908 C2914 0.950 . S
H2909 C2915 0.950 . S
H2910 C2916 0.949 . S
C2911 H2906 0.950 . S
C2911 C2913 1.327 . S
C2911 C2917 1.429 . S
C2912 C2904 1.574 . S
C2912 H2907 0.949 . S
C2912 C2918 1.368 . S
C2913 C2897 1.349 . S
C2913 H2905 0.950 . S
C2913 C2911 1.327 . S
C2914 C2902 1.349 . S
C2914 H2908 0.950 . S
C2914 C2915 1.327 . S
C2915 H2909 0.950 . S
C2915 C2914 1.327 . S
C2915 C2919 1.429 . S
C2916 C2899 1.574 . S
C2916 H2910 0.949 . S
C2916 C2920 1.368 . S
C2917 C2898 1.429 . S
C2917 C2911 1.429 . S
C2917 C2918 1.523 . S
C2918 C2899 1.368 . S
C2918 C2912 1.368 . S
C2918 C2917 1.523 . S
C2919 C2903 1.429 . S
C2919 C2915 1.429 . S
C2919 C2920 1.523 . S
C2920 C2904 1.368 . S
C2920 C2916 1.368 . S
C2920 C2919 1.523 . S
H2921 C2896 0.950 . S
H2922 C2898 0.950 . S
H2923 C2899 0.949 . S
H2924 C2901 0.950 . S
H2925 C2903 0.950 . S
C2926 C2927 1.349 . S
C2926 C2928 1.327 . S
C2926 H2951 0.950 . S
C2927 C2926 1.349 . S
C2927 C2943 1.349 . S
C2928 C2926 1.327 . S
C2928 C2947 1.429 . S
C2928 H2952 0.950 . S
C2929 C2946 1.574 . S
C2929 C2948 1.368 . S
C2929 H2953 0.949 . S
H2930 C2934 0.949 . S
C2931 C2932 1.349 . S
C2931 C2933 1.338 . S
C2931 H2954 0.950 . S
C2932 C2931 1.349 . S
C2932 C2944 1.349 . S
C2933 C2931 1.338 . S
C2933 C2949 1.428 1_655 S
C2933 H2955 0.939 1_655 S
C2934 H2930 0.949 . S
C2934 C2942 1.574 . S
C2934 C2950 1.368 . S
H2935 C2943 0.950 . S
H2936 C2941 0.950 . S
H2937 C2942 0.949 . S
H2938 C2944 0.950 . S
H2939 C2945 0.950 . S
H2940 C2946 0.949 . S
C2941 H2936 0.950 . S
C2941 C2943 1.327 . S
C2941 C2947 1.429 . S
C2942 C2934 1.574 . S
C2942 H2937 0.949 . S
C2942 C2948 1.368 . S
C2943 C2927 1.349 . S
C2943 H2935 0.950 . S
C2943 C2941 1.327 . S
C2944 C2932 1.349 . S
C2944 H2938 0.950 . S
C2944 C2945 1.327 . S
C2945 H2939 0.950 . S
C2945 C2944 1.327 . S
C2945 C2949 1.429 1_655 S
C2946 C2929 1.574 . S
C2946 H2940 0.949 . S
C2946 C2950 1.368 . S
C2947 C2928 1.429 . S
C2947 C2941 1.429 . S
C2947 C2948 1.523 . S
C2948 C2929 1.368 . S
C2948 C2942 1.368 . S
C2948 C2947 1.523 . S
C2949 C2933 1.428 1_455 S
C2949 C2945 1.429 1_455 S
C2949 C2950 1.523 . S
C2950 C2934 1.368 . S
C2950 C2946 1.368 . S
C2950 C2949 1.523 . S
H2951 C2926 0.950 . S
H2952 C2928 0.950 . S
H2953 C2929 0.949 . S
H2954 C2931 0.950 . S
H2955 C2933 0.939 1_455 S
C2956 C2957 1.349 . S
C2956 C2958 1.327 . S
C2956 H2981 0.950 . S
C2957 C2956 1.349 . S
C2957 C2973 1.349 . S
C2958 C2956 1.327 . S
C2958 C2977 1.429 . S
C2958 H2982 0.950 . S
C2959 C2976 1.574 . S
C2959 C2978 1.368 . S
C2959 H2983 0.949 . S
H2960 C2964 0.949 . S
C2961 C2962 1.349 . S
C2961 C2963 1.327 . S
C2961 H2984 0.950 . S
C2962 C2961 1.349 . S
C2962 C2974 1.349 . S
C2963 C2961 1.327 . S
C2963 C2979 1.429 . S
C2963 H2985 0.950 . S
C2964 H2960 0.949 . S
C2964 C2972 1.574 . S
C2964 C2980 1.368 . S
H2965 C2973 0.950 . S
H2966 C2971 0.950 . S
H2967 C2972 0.949 . S
H2968 C2974 0.950 . S
H2969 C2975 0.950 . S
H2970 C2976 0.949 . S
C2971 H2966 0.950 . S
C2971 C2973 1.327 . S
C2971 C2977 1.429 . S
C2972 C2964 1.574 . S
C2972 H2967 0.949 . S
C2972 C2978 1.368 . S
C2973 C2957 1.349 . S
C2973 H2965 0.950 . S
C2973 C2971 1.327 . S
C2974 C2962 1.349 . S
C2974 H2968 0.950 . S
C2974 C2975 1.327 . S
C2975 H2969 0.950 . S
C2975 C2974 1.327 . S
C2975 C2979 1.429 . S
C2976 C2959 1.574 . S
C2976 H2970 0.949 . S
C2976 C2980 1.368 . S
C2977 C2958 1.429 . S
C2977 C2971 1.429 . S
C2977 C2978 1.523 . S
C2978 C2959 1.368 . S
C2978 C2972 1.368 . S
C2978 C2977 1.523 . S
C2979 C2963 1.429 . S
C2979 C2975 1.429 . S
C2979 C2980 1.523 . S
C2980 C2964 1.368 . S
C2980 C2976 1.368 . S
C2980 C2979 1.523 . S
H2981 C2956 0.950 . S
H2982 C2958 0.950 . S
H2983 C2959 0.949 . S
H2984 C2961 0.950 . S
H2985 C2963 0.950 . S
C2986 C2987 1.349 . S
C2986 C2988 1.327 . S
C2986 H3011 0.950 . S
C2987 C2986 1.349 . S
C2987 C3003 1.349 . S
C2988 C2986 1.327 . S
C2988 C3007 1.429 . S
C2988 H3012 0.950 . S
C2989 C3006 1.574 . S
C2989 C3008 1.368 . S
C2989 H3013 0.949 . S
H2990 C2994 0.949 . S
C2991 C2992 1.349 . S
C2991 C2993 1.327 . S
C2991 H3014 0.950 . S
C2992 C2991 1.349 . S
C2992 C3004 1.349 . S
C2993 C2991 1.327 . S
C2993 C3009 1.429 1_655 S
C2993 H3015 0.950 . S
C2994 H2990 0.949 . S
C2994 C3002 1.574 . S
C2994 C3010 1.368 . S
H2995 C3003 0.950 . S
H2996 C3001 0.950 . S
H2997 C3002 0.949 . S
H2998 C3004 0.950 . S
H2999 C3005 0.950 1_455 S
H3000 C3006 0.949 . S
C3001 H2996 0.950 . S
C3001 C3003 1.327 . S
C3001 C3007 1.429 . S
C3002 C2994 1.574 . S
C3002 H2997 0.949 . S
C3002 C3008 1.368 . S
C3003 C2987 1.349 . S
C3003 H2995 0.950 . S
C3003 C3001 1.327 . S
C3004 C2992 1.349 . S
C3004 H2998 0.950 . S
C3004 C3005 1.327 . S
C3005 H2999 0.950 1_655 S
C3005 C3004 1.327 . S
C3005 C3009 1.429 1_655 S
C3006 C2989 1.574 . S
C3006 H3000 0.949 . S
C3006 C3010 1.368 . S
C3007 C2988 1.429 . S
C3007 C3001 1.429 . S
C3007 C3008 1.523 . S
C3008 C2989 1.368 . S
C3008 C3002 1.368 . S
C3008 C3007 1.523 . S
C3009 C2993 1.429 1_455 S
C3009 C3005 1.429 1_455 S
C3009 C3010 1.523 . S
C3010 C2994 1.368 . S
C3010 C3006 1.368 . S
C3010 C3009 1.523 . S
H3011 C2986 0.950 . S
H3012 C2988 0.950 . S
H3013 C2989 0.949 . S
H3014 C2991 0.950 . S
H3015 C2993 0.950 . S
C3016 C3017 1.349 . S
C3016 C3018 1.327 . S
C3016 H3041 0.950 . S
C3017 C3016 1.349 . S
C3017 C3033 1.349 . S
C3018 C3016 1.327 . S
C3018 C3037 1.429 . S
C3018 H3042 0.950 . S
C3019 C3036 1.574 . S
C3019 C3038 1.368 . S
C3019 H3043 0.949 . S
H3020 C3024 0.949 . S
C3021 C3022 1.349 . S
C3021 C3023 1.327 . S
C3021 H3044 0.950 . S
C3022 C3021 1.349 . S
C3022 C3034 1.349 . S
C3023 C3021 1.327 . S
C3023 C3039 1.429 . S
C3023 H3045 0.950 . S
C3024 H3020 0.949 . S
C3024 C3032 1.574 . S
C3024 C3040 1.368 . S
H3025 C3033 0.950 . S
H3026 C3031 0.950 . S
H3027 C3032 0.949 . S
H3028 C3034 0.950 . S
H3029 C3035 0.950 . S
H3030 C3036 0.949 . S
C3031 H3026 0.950 . S
C3031 C3033 1.327 . S
C3031 C3037 1.429 . S
C3032 C3024 1.574 . S
C3032 H3027 0.949 . S
C3032 C3038 1.368 . S
C3033 C3017 1.349 . S
C3033 H3025 0.950 . S
C3033 C3031 1.327 . S
C3034 C3022 1.349 . S
C3034 H3028 0.950 . S
C3034 C3035 1.327 . S
C3035 H3029 0.950 . S
C3035 C3034 1.327 . S
C3035 C3039 1.429 . S
C3036 C3019 1.574 . S
C3036 H3030 0.949 . S
C3036 C3040 1.368 . S
C3037 C3018 1.429 . S
C3037 C3031 1.429 . S
C3037 C3038 1.523 . S
C3038 C3019 1.368 . S
C3038 C3032 1.368 . S
C3038 C3037 1.523 . S
C3039 C3023 1.429 . S
C3039 C3035 1.429 . S
C3039 C3040 1.523 . S
C3040 C3024 1.368 . S
C3040 C3036 1.368 . S
C3040 C3039 1.523 . S
H3041 C3016 0.950 . S
H3042 C3018 0.950 . S
H3043 C3019 0.949 . S
H3044 C3021 0.950 . S
H3045 C3023 0.950 . S
C3046 C3047 1.349 . S
C3046 C3048 1.327 . S
C3046 H3071 0.950 . S
C3047 C3046 1.349 . S
C3047 C3063 1.349 . S
C3048 C3046 1.327 . S
C3048 C3067 1.429 1_455 S
C3048 H3072 0.950 . S
C3049 C3066 1.574 . S
C3049 C3068 1.368 . S
C3049 H3073 0.949 . S
H3050 C3054 0.949 . S
C3051 C3052 1.349 . S
C3051 C3053 1.327 . S
C3051 H3074 0.950 . S
C3052 C3051 1.349 . S
C3052 C3064 1.349 . S
C3053 C3051 1.327 . S
C3053 C3069 1.429 . S
C3053 H3075 0.950 . S
C3054 H3050 0.949 . S
C3054 C3062 1.574 . S
C3054 C3070 1.368 . S
H3055 C3063 0.950 . S
H3056 C3061 0.950 1_655 S
H3057 C3062 0.949 . S
H3058 C3064 0.950 . S
H3059 C3065 0.950 . S
H3060 C3066 0.949 . S
C3061 H3056 0.950 1_455 S
C3061 C3063 1.327 . S
C3061 C3067 1.429 1_455 S
C3062 C3054 1.574 . S
C3062 H3057 0.949 . S
C3062 C3068 1.368 . S
C3063 C3047 1.349 . S
C3063 H3055 0.950 . S
C3063 C3061 1.327 . S
C3064 C3052 1.349 . S
C3064 H3058 0.950 . S
C3064 C3065 1.327 . S
C3065 H3059 0.950 . S
C3065 C3064 1.327 . S
C3065 C3069 1.429 . S
C3066 C3049 1.574 . S
C3066 H3060 0.949 . S
C3066 C3070 1.368 . S
C3067 C3048 1.429 1_655 S
C3067 C3061 1.429 1_655 S
C3067 C3068 1.523 . S
C3068 C3049 1.368 . S
C3068 C3062 1.368 . S
C3068 C3067 1.523 . S
C3069 C3053 1.429 . S
C3069 C3065 1.429 . S
C3069 C3070 1.523 . S
C3070 C3054 1.368 . S
C3070 C3066 1.368 . S
C3070 C3069 1.523 . S
H3071 C3046 0.950 . S
H3072 C3048 0.950 . S
H3073 C3049 0.949 . S
H3074 C3051 0.950 . S
H3075 C3053 0.950 . S
C3076 C3077 1.349 . S
C3076 C3078 1.327 . S
C3076 H3101 0.950 . S
C3077 C3076 1.349 . S
C3077 C3093 1.349 . S
C3078 C3076 1.327 . S
C3078 C3097 1.429 . S
C3078 H3102 0.950 . S
C3079 C3096 1.574 . S
C3079 C3098 1.368 . S
C3079 H3103 0.949 . S
H3080 C3084 0.949 . S
C3081 C3082 1.349 . S
C3081 C3083 1.327 . S
C3081 H3104 0.950 . S
C3082 C3081 1.349 . S
C3082 C3094 1.349 . S
C3083 C3081 1.327 . S
C3083 C3099 1.429 . S
C3083 H3105 0.950 . S
C3084 H3080 0.949 . S
C3084 C3092 1.574 . S
C3084 C3100 1.368 . S
H3085 C3093 0.950 . S
H3086 C3091 0.950 . S
H3087 C3092 0.949 . S
H3088 C3094 0.950 . S
H3089 C3095 0.950 . S
H3090 C3096 0.949 . S
C3091 H3086 0.950 . S
C3091 C3093 1.327 . S
C3091 C3097 1.429 . S
C3092 C3084 1.574 . S
C3092 H3087 0.949 . S
C3092 C3098 1.368 . S
C3093 C3077 1.349 . S
C3093 H3085 0.950 . S
C3093 C3091 1.327 . S
C3094 C3082 1.349 . S
C3094 H3088 0.950 . S
C3094 C3095 1.327 . S
C3095 H3089 0.950 . S
C3095 C3094 1.327 . S
C3095 C3099 1.429 . S
C3096 C3079 1.574 . S
C3096 H3090 0.949 . S
C3096 C3100 1.368 . S
C3097 C3078 1.429 . S
C3097 C3091 1.429 . S
C3097 C3098 1.523 . S
C3098 C3079 1.368 . S
C3098 C3092 1.368 . S
C3098 C3097 1.523 . S
C3099 C3083 1.429 . S
C3099 C3095 1.429 . S
C3099 C3100 1.523 . S
C3100 C3084 1.368 . S
C3100 C3096 1.368 . S
C3100 C3099 1.523 . S
H3101 C3076 0.950 . S
H3102 C3078 0.950 . S
H3103 C3079 0.949 . S
H3104 C3081 0.950 . S
H3105 C3083 0.950 . S
C3106 C3107 1.349 . S
C3106 C3108 1.327 . S
C3106 H3131 0.950 . S
C3107 C3106 1.349 . S
C3107 C3123 1.349 . S
C3108 C3106 1.327 . S
C3108 C3127 1.429 . S
C3108 H3132 0.950 . S
C3109 C3126 1.574 . S
C3109 C3128 1.368 . S
C3109 H3133 0.949 . S
H3110 C3114 0.949 . S
C3111 C3112 1.349 . S
C3111 C3113 1.342 . S
C3111 H3134 0.950 . S
C3112 C3111 1.349 . S
C3112 C3124 1.349 . S
C3113 C3111 1.342 . S
C3113 C3129 1.427 1_455 S
C3113 H3135 0.936 1_455 S
C3114 H3110 0.949 . S
C3114 C3122 1.574 . S
C3114 C3130 1.368 . S
H3115 C3123 0.950 . S
H3116 C3121 0.950 . S
H3117 C3122 0.949 . S
H3118 C3124 0.950 . S
H3119 C3125 0.950 . S
H3120 C3126 0.949 . S
C3121 H3116 0.950 . S
C3121 C3123 1.327 . S
C3121 C3127 1.429 . S
C3122 C3114 1.574 . S
C3122 H3117 0.949 . S
C3122 C3128 1.368 . S
C3123 C3107 1.349 . S
C3123 H3115 0.950 . S
C3123 C3121 1.327 . S
C3124 C3112 1.349 . S
C3124 H3118 0.950 . S
C3124 C3125 1.327 . S
C3125 H3119 0.950 . S
C3125 C3124 1.327 . S
C3125 C3129 1.429 1_455 S
C3126 C3109 1.574 . S
C3126 H3120 0.949 . S
C3126 C3130 1.368 . S
C3127 C3108 1.429 . S
C3127 C3121 1.429 . S
C3127 C3128 1.523 . S
C3128 C3109 1.368 . S
C3128 C3122 1.368 . S
C3128 C3127 1.523 . S
C3129 C3113 1.427 1_655 S
C3129 C3125 1.429 1_655 S
C3129 C3130 1.523 . S
C3130 C3114 1.368 . S
C3130 C3126 1.368 . S
C3130 C3129 1.523 . S
H3131 C3106 0.950 . S
H3132 C3108 0.950 . S
H3133 C3109 0.949 . S
H3134 C3111 0.950 . S
H3135 C3113 0.936 1_655 S
C3136 C3137 1.349 . S
C3136 C3138 1.327 . S
C3136 H3161 0.950 . S
C3137 C3136 1.349 . S
C3137 C3153 1.349 . S
C3138 C3136 1.327 . S
C3138 C3157 1.429 . S
C3138 H3162 0.950 . S
C3139 C3156 1.574 . S
C3139 C3158 1.368 . S
C3139 H3163 0.949 . S
H3140 C3144 0.949 . S
C3141 C3142 1.349 . S
C3141 C3143 1.327 . S
C3141 H3164 0.950 . S
C3142 C3141 1.349 . S
C3142 C3154 1.349 . S
C3143 C3141 1.327 . S
C3143 C3159 1.429 . S
C3143 H3165 0.950 . S
C3144 H3140 0.949 . S
C3144 C3152 1.574 1_565 S
C3144 C3160 1.368 . S
H3145 C3153 0.950 . S
H3146 C3151 0.950 . S
H3147 C3152 0.949 . S
H3148 C3154 0.950 . S
H3149 C3155 0.950 . S
H3150 C3156 0.949 . S
C3151 H3146 0.950 . S
C3151 C3153 1.327 . S
C3151 C3157 1.429 . S
C3152 C3144 1.574 1_545 S
C3152 H3147 0.949 . S
C3152 C3158 1.368 . S
C3153 C3137 1.349 . S
C3153 H3145 0.950 . S
C3153 C3151 1.327 . S
C3154 C3142 1.349 . S
C3154 H3148 0.950 . S
C3154 C3155 1.327 . S
C3155 H3149 0.950 . S
C3155 C3154 1.327 . S
C3155 C3159 1.429 . S
C3156 C3139 1.574 . S
C3156 H3150 0.949 . S
C3156 C3160 1.368 1_545 S
C3157 C3138 1.429 . S
C3157 C3151 1.429 . S
C3157 C3158 1.523 . S
C3158 C3139 1.368 . S
C3158 C3152 1.368 . S
C3158 C3157 1.523 . S
C3159 C3143 1.429 . S
C3159 C3155 1.429 . S
C3159 C3160 1.523 . S
C3160 C3144 1.368 . S
C3160 C3156 1.368 1_565 S
C3160 C3159 1.523 . S
H3161 C3136 0.950 . S
H3162 C3138 0.950 . S
H3163 C3139 0.949 . S
H3164 C3141 0.950 . S
H3165 C3143 0.950 . S
C3166 C3167 1.349 . S
C3166 C3168 1.327 . S
C3166 H3191 0.950 . S
C3167 C3166 1.349 . S
C3167 C3183 1.349 . S
C3168 C3166 1.327 . S
C3168 C3187 1.429 . S
C3168 H3192 0.950 . S
C3169 C3186 1.574 . S
C3169 C3188 1.368 . S
C3169 H3193 0.949 . S
H3170 C3174 0.949 . S
C3171 C3172 1.349 . S
C3171 C3173 1.327 . S
C3171 H3194 0.950 . S
C3172 C3171 1.349 . S
C3172 C3184 1.349 . S
C3173 C3171 1.327 . S
C3173 C3189 1.429 . S
C3173 H3195 0.950 . S
C3174 H3170 0.949 . S
C3174 C3182 1.574 . S
C3174 C3190 1.368 . S
H3175 C3183 0.950 . S
H3176 C3181 0.950 . S
H3177 C3182 0.949 . S
H3178 C3184 0.950 . S
H3179 C3185 0.950 . S
H3180 C3186 0.949 . S
C3181 H3176 0.950 . S
C3181 C3183 1.327 . S
C3181 C3187 1.429 . S
C3182 C3174 1.574 . S
C3182 H3177 0.949 . S
C3182 C3188 1.368 . S
C3183 C3167 1.349 . S
C3183 H3175 0.950 . S
C3183 C3181 1.327 . S
C3184 C3172 1.349 . S
C3184 H3178 0.950 . S
C3184 C3185 1.327 . S
C3185 H3179 0.950 . S
C3185 C3184 1.327 . S
C3185 C3189 1.429 . S
C3186 C3169 1.574 . S
C3186 H3180 0.949 . S
C3186 C3190 1.368 . S
C3187 C3168 1.429 . S
C3187 C3181 1.429 . S
C3187 C3188 1.523 . S
C3188 C3169 1.368 . S
C3188 C3182 1.368 . S
C3188 C3187 1.523 . S
C3189 C3173 1.429 . S
C3189 C3185 1.429 . S
C3189 C3190 1.523 . S
C3190 C3174 1.368 . S
C3190 C3186 1.368 . S
C3190 C3189 1.523 . S
H3191 C3166 0.950 . S
H3192 C3168 0.950 . S
H3193 C3169 0.949 . S
H3194 C3171 0.950 . S
H3195 C3173 0.950 . S
C3196 C3197 1.349 . S
C3196 C3198 1.327 . S
C3196 H3221 0.950 . S
C3197 C3196 1.349 . S
C3197 C3213 1.349 . S
C3198 C3196 1.327 . S
C3198 C3217 1.429 . S
C3198 H3222 0.950 . S
C3199 C3216 1.574 . S
C3199 C3218 1.368 . S
C3199 H3223 0.949 . S
H3200 C3204 0.949 . S
C3201 C3202 1.349 . S
C3201 C3203 1.327 . S
C3201 H3224 0.950 . S
C3202 C3201 1.349 . S
C3202 C3214 1.349 . S
C3203 C3201 1.327 . S
C3203 C3219 1.429 . S
C3203 H3225 0.950 . S
C3204 H3200 0.949 . S
C3204 C3212 1.574 . S
C3204 C3220 1.368 . S
H3205 C3213 0.950 . S
H3206 C3211 0.950 . S
H3207 C3212 0.949 . S
H3208 C3214 0.950 . S
H3209 C3215 0.950 . S
H3210 C3216 0.949 . S
C3211 H3206 0.950 . S
C3211 C3213 1.327 . S
C3211 C3217 1.429 . S
C3212 C3204 1.574 . S
C3212 H3207 0.949 . S
C3212 C3218 1.368 . S
C3213 C3197 1.349 . S
C3213 H3205 0.950 . S
C3213 C3211 1.327 . S
C3214 C3202 1.349 . S
C3214 H3208 0.950 . S
C3214 C3215 1.327 . S
C3215 H3209 0.950 . S
C3215 C3214 1.327 . S
C3215 C3219 1.429 . S
C3216 C3199 1.574 . S
C3216 H3210 0.949 . S
C3216 C3220 1.368 . S
C3217 C3198 1.429 . S
C3217 C3211 1.429 . S
C3217 C3218 1.523 . S
C3218 C3199 1.368 . S
C3218 C3212 1.368 . S
C3218 C3217 1.523 . S
C3219 C3203 1.429 . S
C3219 C3215 1.429 . S
C3219 C3220 1.523 . S
C3220 C3204 1.368 . S
C3220 C3216 1.368 . S
C3220 C3219 1.523 . S
H3221 C3196 0.950 . S
H3222 C3198 0.950 . S
H3223 C3199 0.949 . S
H3224 C3201 0.950 . S
H3225 C3203 0.950 . S
C3226 C3227 1.349 . S
C3226 C3228 1.327 . S
C3226 H3251 0.950 . S
C3227 C3226 1.349 . S
C3227 C3243 1.349 . S
C3228 C3226 1.327 . S
C3228 C3247 1.429 . S
C3228 H3252 0.950 . S
C3229 C3246 1.574 1_565 S
C3229 C3248 1.368 . S
C3229 H3253 0.949 . S
H3230 C3234 0.949 . S
C3231 C3232 1.349 . S
C3231 C3233 1.327 . S
C3231 H3254 0.950 . S
C3232 C3231 1.349 . S
C3232 C3244 1.349 . S
C3233 C3231 1.327 . S
C3233 C3249 1.429 . S
C3233 H3255 0.950 . S
C3234 H3230 0.949 . S
C3234 C3242 1.574 . S
C3234 C3250 1.368 . S
H3235 C3243 0.950 . S
H3236 C3241 0.950 . S
H3237 C3242 0.949 . S
H3238 C3244 0.950 . S
H3239 C3245 0.950 . S
H3240 C3246 0.949 . S
C3241 H3236 0.950 . S
C3241 C3243 1.327 . S
C3241 C3247 1.429 . S
C3242 C3234 1.574 . S
C3242 H3237 0.949 . S
C3242 C3248 1.368 1_545 S
C3243 C3227 1.349 . S
C3243 H3235 0.950 . S
C3243 C3241 1.327 . S
C3244 C3232 1.349 . S
C3244 H3238 0.950 . S
C3244 C3245 1.327 . S
C3245 H3239 0.950 . S
C3245 C3244 1.327 . S
C3245 C3249 1.429 . S
C3246 C3229 1.574 1_545 S
C3246 H3240 0.949 . S
C3246 C3250 1.368 . S
C3247 C3228 1.429 . S
C3247 C3241 1.429 . S
C3247 C3248 1.523 . S
C3248 C3229 1.368 . S
C3248 C3242 1.368 1_565 S
C3248 C3247 1.523 . S
C3249 C3233 1.429 . S
C3249 C3245 1.429 . S
C3249 C3250 1.523 . S
C3250 C3234 1.368 . S
C3250 C3246 1.368 . S
C3250 C3249 1.523 . S
H3251 C3226 0.950 . S
H3252 C3228 0.950 . S
H3253 C3229 0.949 . S
H3254 C3231 0.950 . S
H3255 C3233 0.950 . S
C3256 C3257 1.349 . S
C3256 C3258 1.327 . S
C3256 H3281 0.950 . S
C3257 C3256 1.349 . S
C3257 C3273 1.349 . S
C3258 C3256 1.327 . S
C3258 C3277 1.429 . S
C3258 H3282 0.950 . S
C3259 C3276 1.574 . S
C3259 C3278 1.368 . S
C3259 H3283 0.949 . S
H3260 C3264 0.949 . S
C3261 C3262 1.349 . S
C3261 C3263 1.327 . S
C3261 H3284 0.950 . S
C3262 C3261 1.349 . S
C3262 C3274 1.349 . S
C3263 C3261 1.327 . S
C3263 C3279 1.429 . S
C3263 H3285 0.950 . S
C3264 H3260 0.949 . S
C3264 C3272 1.574 1_545 S
C3264 C3280 1.368 . S
H3265 C3273 0.950 . S
H3266 C3271 0.950 . S
H3267 C3272 0.949 . S
H3268 C3274 0.950 . S
H3269 C3275 0.950 . S
H3270 C3276 0.949 . S
C3271 H3266 0.950 . S
C3271 C3273 1.327 . S
C3271 C3277 1.429 . S
C3272 C3264 1.574 1_565 S
C3272 H3267 0.949 . S
C3272 C3278 1.368 . S
C3273 C3257 1.349 . S
C3273 H3265 0.950 . S
C3273 C3271 1.327 . S
C3274 C3262 1.349 . S
C3274 H3268 0.950 . S
C3274 C3275 1.327 . S
C3275 H3269 0.950 . S
C3275 C3274 1.327 . S
C3275 C3279 1.429 . S
C3276 C3259 1.574 . S
C3276 H3270 0.949 . S
C3276 C3280 1.368 1_565 S
C3277 C3258 1.429 . S
C3277 C3271 1.429 . S
C3277 C3278 1.523 . S
C3278 C3259 1.368 . S
C3278 C3272 1.368 . S
C3278 C3277 1.523 . S
C3279 C3263 1.429 . S
C3279 C3275 1.429 . S
C3279 C3280 1.523 . S
C3280 C3264 1.368 . S
C3280 C3276 1.368 1_545 S
C3280 C3279 1.523 . S
H3281 C3256 0.950 . S
H3282 C3258 0.950 . S
H3283 C3259 0.949 . S
H3284 C3261 0.950 . S
H3285 C3263 0.950 . S
C3286 C3287 1.349 . S
C3286 C3288 1.327 . S
C3286 H3311 0.950 . S
C3287 C3286 1.349 . S
C3287 C3303 1.349 . S
C3288 C3286 1.327 . S
C3288 C3307 1.429 . S
C3288 H3312 0.950 . S
C3289 C3306 1.574 . S
C3289 C3308 1.368 . S
C3289 H3313 0.949 . S
H3290 C3294 0.949 . S
C3291 C3292 1.349 . S
C3291 C3293 1.327 . S
C3291 H3314 0.950 . S
C3292 C3291 1.349 . S
C3292 C3304 1.349 . S
C3293 C3291 1.327 . S
C3293 C3309 1.429 . S
C3293 H3315 0.950 . S
C3294 H3290 0.949 . S
C3294 C3302 1.574 . S
C3294 C3310 1.368 . S
H3295 C3303 0.950 . S
H3296 C3301 0.950 . S
H3297 C3302 0.949 . S
H3298 C3304 0.950 . S
H3299 C3305 0.950 . S
H3300 C3306 0.949 . S
C3301 H3296 0.950 . S
C3301 C3303 1.327 . S
C3301 C3307 1.429 . S
C3302 C3294 1.574 . S
C3302 H3297 0.949 . S
C3302 C3308 1.368 . S
C3303 C3287 1.349 . S
C3303 H3295 0.950 . S
C3303 C3301 1.327 . S
C3304 C3292 1.349 . S
C3304 H3298 0.950 . S
C3304 C3305 1.327 . S
C3305 H3299 0.950 . S
C3305 C3304 1.327 . S
C3305 C3309 1.429 . S
C3306 C3289 1.574 . S
C3306 H3300 0.949 . S
C3306 C3310 1.368 . S
C3307 C3288 1.429 . S
C3307 C3301 1.429 . S
C3307 C3308 1.523 . S
C3308 C3289 1.368 . S
C3308 C3302 1.368 . S
C3308 C3307 1.523 . S
C3309 C3293 1.429 . S
C3309 C3305 1.429 . S
C3309 C3310 1.523 . S
C3310 C3294 1.368 . S
C3310 C3306 1.368 . S
C3310 C3309 1.523 . S
H3311 C3286 0.950 . S
H3312 C3288 0.950 . S
H3313 C3289 0.949 . S
H3314 C3291 0.950 . S
H3315 C3293 0.950 . S
C3316 C3317 1.349 . S
C3316 C3318 1.327 . S
C3316 H3341 0.950 . S
C3317 C3316 1.349 . S
C3317 C3333 1.349 . S
C3318 C3316 1.327 . S
C3318 C3337 1.429 . S
C3318 H3342 0.950 . S
C3319 C3336 1.574 . S
C3319 C3338 1.368 . S
C3319 H3343 0.949 . S
H3320 C3324 0.949 . S
C3321 C3322 1.349 . S
C3321 C3323 1.327 . S
C3321 H3344 0.950 . S
C3322 C3321 1.349 . S
C3322 C3334 1.349 . S
C3323 C3321 1.327 . S
C3323 C3339 1.429 . S
C3323 H3345 0.950 . S
C3324 H3320 0.949 . S
C3324 C3332 1.574 . S
C3324 C3340 1.368 . S
H3325 C3333 0.950 . S
H3326 C3331 0.950 . S
H3327 C3332 0.949 . S
H3328 C3334 0.950 . S
H3329 C3335 0.950 . S
H3330 C3336 0.949 . S
C3331 H3326 0.950 . S
C3331 C3333 1.327 . S
C3331 C3337 1.429 . S
C3332 C3324 1.574 . S
C3332 H3327 0.949 . S
C3332 C3338 1.368 . S
C3333 C3317 1.349 . S
C3333 H3325 0.950 . S
C3333 C3331 1.327 . S
C3334 C3322 1.349 . S
C3334 H3328 0.950 . S
C3334 C3335 1.327 . S
C3335 H3329 0.950 . S
C3335 C3334 1.327 . S
C3335 C3339 1.429 . S
C3336 C3319 1.574 . S
C3336 H3330 0.949 . S
C3336 C3340 1.368 . S
C3337 C3318 1.429 . S
C3337 C3331 1.429 . S
C3337 C3338 1.523 . S
C3338 C3319 1.368 . S
C3338 C3332 1.368 . S
C3338 C3337 1.523 . S
C3339 C3323 1.429 . S
C3339 C3335 1.429 . S
C3339 C3340 1.523 . S
C3340 C3324 1.368 . S
C3340 C3336 1.368 . S
C3340 C3339 1.523 . S
H3341 C3316 0.950 . S
H3342 C3318 0.950 . S
H3343 C3319 0.949 . S
H3344 C3321 0.950 . S
H3345 C3323 0.950 . S
C3346 C3347 1.349 . S
C3346 C3348 1.327 . S
C3346 H3371 0.950 . S
C3347 C3346 1.349 . S
C3347 C3363 1.349 . S
C3348 C3346 1.327 . S
C3348 C3367 1.429 . S
C3348 H3372 0.950 . S
C3349 C3366 1.574 1_565 S
C3349 C3368 1.368 . S
C3349 H3373 0.949 . S
H3350 C3354 0.949 . S
C3351 C3352 1.349 . S
C3351 C3353 1.327 . S
C3351 H3374 0.950 . S
C3352 C3351 1.349 . S
C3352 C3364 1.349 . S
C3353 C3351 1.327 . S
C3353 C3369 1.429 . S
C3353 H3375 0.950 . S
C3354 H3350 0.949 . S
C3354 C3362 1.574 . S
C3354 C3370 1.368 1_565 S
H3355 C3363 0.950 . S
H3356 C3361 0.950 . S
H3357 C3362 0.949 . S
H3358 C3364 0.950 . S
H3359 C3365 0.950 . S
H3360 C3366 0.949 . S
C3361 H3356 0.950 . S
C3361 C3363 1.327 . S
C3361 C3367 1.429 . S
C3362 C3354 1.574 . S
C3362 H3357 0.949 . S
C3362 C3368 1.368 . S
C3363 C3347 1.349 . S
C3363 H3355 0.950 . S
C3363 C3361 1.327 . S
C3364 C3352 1.349 . S
C3364 H3358 0.950 . S
C3364 C3365 1.327 . S
C3365 H3359 0.950 . S
C3365 C3364 1.327 . S
C3365 C3369 1.429 . S
C3366 C3349 1.574 1_545 S
C3366 H3360 0.949 . S
C3366 C3370 1.368 . S
C3367 C3348 1.429 . S
C3367 C3361 1.429 . S
C3367 C3368 1.523 . S
C3368 C3349 1.368 . S
C3368 C3362 1.368 . S
C3368 C3367 1.523 . S
C3369 C3353 1.429 . S
C3369 C3365 1.429 . S
C3369 C3370 1.523 . S
C3370 C3354 1.368 1_545 S
C3370 C3366 1.368 . S
C3370 C3369 1.523 . S
H3371 C3346 0.950 . S
H3372 C3348 0.950 . S
H3373 C3349 0.949 . S
H3374 C3351 0.950 . S
H3375 C3353 0.950 . S
C3376 C3377 1.301 1_556 S
C3376 C3378 1.327 . S
C3376 H3401 0.950 . S
C3377 C3376 1.301 1_554 S
C3377 C3393 1.397 . S
C3378 C3376 1.327 . S
C3378 C3397 1.422 1_556 S
C3378 H3402 0.950 . S
C3379 C3396 1.574 . S
C3379 C3398 1.364 1_554 S
C3379 H3403 0.949 . S
H3380 C3384 0.949 . S
C3381 C3382 1.349 1_554 S
C3381 C3383 1.327 . S
C3381 H3404 0.950 . S
C3382 C3381 1.349 1_556 S
C3382 C3394 1.349 . S
C3383 C3381 1.327 . S
C3383 C3399 1.429 1_554 S
C3383 H3405 0.950 . S
C3384 H3380 0.949 . S
C3384 C3392 1.574 . S
C3384 C3400 1.414 . S
H3385 C3393 0.950 . S
H3386 C3391 0.950 . S
H3387 C3392 0.949 . S
H3388 C3394 0.950 . S
H3389 C3395 0.950 . S
H3390 C3396 0.949 . S
C3391 H3386 0.950 . S
C3391 C3393 1.327 . S
C3391 C3397 1.435 . S
C3392 C3384 1.574 . S
C3392 H3387 0.949 . S
C3392 C3398 1.372 . S
C3393 C3377 1.397 . S
C3393 H3385 0.950 . S
C3393 C3391 1.327 . S
C3394 C3382 1.349 . S
C3394 H3388 0.950 . S
C3394 C3395 1.327 . S
C3395 H3389 0.950 . S
C3395 C3394 1.327 . S
C3395 C3399 1.429 . S
C3396 C3379 1.574 . S
C3396 H3390 0.949 . S
C3396 C3400 1.323 1_554 S
C3397 C3378 1.422 1_554 S
C3397 C3391 1.435 . S
C3397 C3398 1.523 1_554 S
C3398 C3379 1.364 1_556 S
C3398 C3392 1.372 . S
C3398 C3397 1.523 1_556 S
C3399 C3383 1.429 1_556 S
C3399 C3395 1.429 . S
C3399 C3400 1.525 . S
C3400 C3384 1.414 . S
C3400 C3396 1.323 1_556 S
C3400 C3399 1.525 . S
H3401 C3376 0.950 . S
H3402 C3378 0.950 . S
H3403 C3379 0.949 . S
H3404 C3381 0.950 . S
H3405 C3383 0.950 . S
C3406 C3407 1.349 1_554 S
C3406 C3408 1.327 . S
C3406 H3431 0.950 . S
C3407 C3406 1.349 1_556 S
C3407 C3423 1.349 . S
C3408 C3406 1.327 . S
C3408 C3427 1.383 1_554 S
C3408 H3432 0.950 . S
C3409 C3426 1.574 . S
C3409 C3428 1.398 . S
C3409 H3433 0.949 . S
H3410 C3414 0.949 . S
C3411 C3412 1.349 1_556 S
C3411 C3413 1.327 . S
C3411 H3434 0.950 . S
C3412 C3411 1.349 1_554 S
C3412 C3424 1.349 . S
C3413 C3411 1.327 . S
C3413 C3429 1.412 1_556 S
C3413 H3435 0.950 . S
C3414 H3410 0.949 . S
C3414 C3422 1.574 . S
C3414 C3430 1.365 . S
H3415 C3423 0.950 . S
H3416 C3421 0.950 . S
H3417 C3422 0.949 . S
H3418 C3424 0.950 . S
H3419 C3425 0.950 . S
H3420 C3426 0.949 . S
C3421 H3416 0.950 . S
C3421 C3423 1.327 . S
C3421 C3427 1.478 . S
C3422 C3414 1.574 . S
C3422 H3417 0.949 . S
C3422 C3428 1.338 1_554 S
C3423 C3407 1.349 . S
C3423 H3415 0.950 . S
C3423 C3421 1.327 . S
C3424 C3412 1.349 . S
C3424 H3418 0.950 . S
C3424 C3425 1.327 . S
C3425 H3419 0.950 . S
C3425 C3424 1.327 . S
C3425 C3429 1.446 . S
C3426 C3409 1.574 . S
C3426 H3420 0.949 . S
C3426 C3430 1.372 1_556 S
C3427 C3408 1.383 1_556 S
C3427 C3421 1.478 . S
C3427 C3428 1.523 . S
C3428 C3409 1.398 . S
C3428 C3422 1.338 1_556 S
C3428 C3427 1.523 . S
C3429 C3413 1.412 1_554 S
C3429 C3425 1.446 . S
C3429 C3430 1.523 . S
C3430 C3414 1.365 . S
C3430 C3426 1.372 1_554 S
C3430 C3429 1.523 . S
H3431 C3406 0.950 . S
H3432 C3408 0.950 . S
H3433 C3409 0.949 . S
H3434 C3411 0.950 . S
H3435 C3413 0.950 . S
C3436 C3437 1.349 . S
C3436 C3438 1.327 . S
C3436 H3461 0.950 . S
C3437 C3436 1.349 . S
C3437 C3453 1.349 . S
C3438 C3436 1.327 . S
C3438 C3457 1.429 . S
C3438 H3462 0.950 . S
C3439 C3456 1.574 . S
C3439 C3458 1.368 . S
C3439 H3463 0.949 . S
H3440 C3444 0.949 . S
C3441 C3442 1.349 . S
C3441 C3443 1.327 . S
C3441 H3464 0.950 . S
C3442 C3441 1.349 . S
C3442 C3454 1.349 . S
C3443 C3441 1.327 . S
C3443 C3459 1.429 . S
C3443 H3465 0.950 . S
C3444 H3440 0.949 . S
C3444 C3452 1.574 . S
C3444 C3460 1.368 . S
H3445 C3453 0.950 . S
H3446 C3451 0.950 . S
H3447 C3452 0.949 . S
H3448 C3454 0.950 . S
H3449 C3455 0.950 . S
H3450 C3456 0.949 . S
C3451 H3446 0.950 . S
C3451 C3453 1.327 . S
C3451 C3457 1.429 . S
C3452 C3444 1.574 . S
C3452 H3447 0.949 . S
C3452 C3458 1.368 . S
C3453 C3437 1.349 . S
C3453 H3445 0.950 . S
C3453 C3451 1.327 . S
C3454 C3442 1.349 . S
C3454 H3448 0.950 . S
C3454 C3455 1.327 . S
C3455 H3449 0.950 . S
C3455 C3454 1.327 . S
C3455 C3459 1.429 . S
C3456 C3439 1.574 . S
C3456 H3450 0.949 . S
C3456 C3460 1.368 . S
C3457 C3438 1.429 . S
C3457 C3451 1.429 . S
C3457 C3458 1.523 . S
C3458 C3439 1.368 . S
C3458 C3452 1.368 . S
C3458 C3457 1.523 . S
C3459 C3443 1.429 . S
C3459 C3455 1.429 . S
C3459 C3460 1.523 . S
C3460 C3444 1.368 . S
C3460 C3456 1.368 . S
C3460 C3459 1.523 . S
H3461 C3436 0.950 . S
H3462 C3438 0.950 . S
H3463 C3439 0.949 . S
H3464 C3441 0.950 . S
H3465 C3443 0.950 . S
C3466 C3467 1.349 . S
C3466 C3468 1.327 . S
C3466 H3491 0.950 . S
C3467 C3466 1.349 . S
C3467 C3483 1.349 . S
C3468 C3466 1.327 . S
C3468 C3487 1.429 . S
C3468 H3492 0.950 . S
C3469 C3486 1.574 . S
C3469 C3488 1.368 . S
C3469 H3493 0.949 . S
H3470 C3474 0.949 . S
C3471 C3472 1.349 . S
C3471 C3473 1.327 . S
C3471 H3494 0.950 . S
C3472 C3471 1.349 . S
C3472 C3484 1.349 . S
C3473 C3471 1.327 . S
C3473 C3489 1.429 . S
C3473 H3495 0.950 . S
C3474 H3470 0.949 . S
C3474 C3482 1.574 . S
C3474 C3490 1.368 . S
H3475 C3483 0.950 . S
H3476 C3481 0.950 . S
H3477 C3482 0.949 . S
H3478 C3484 0.950 . S
H3479 C3485 0.950 . S
H3480 C3486 0.949 . S
C3481 H3476 0.950 . S
C3481 C3483 1.327 . S
C3481 C3487 1.429 . S
C3482 C3474 1.574 . S
C3482 H3477 0.949 . S
C3482 C3488 1.368 . S
C3483 C3467 1.349 . S
C3483 H3475 0.950 . S
C3483 C3481 1.327 . S
C3484 C3472 1.349 . S
C3484 H3478 0.950 . S
C3484 C3485 1.327 . S
C3485 H3479 0.950 . S
C3485 C3484 1.327 . S
C3485 C3489 1.429 . S
C3486 C3469 1.574 . S
C3486 H3480 0.949 . S
C3486 C3490 1.368 . S
C3487 C3468 1.429 . S
C3487 C3481 1.429 . S
C3487 C3488 1.523 . S
C3488 C3469 1.368 . S
C3488 C3482 1.368 . S
C3488 C3487 1.523 . S
C3489 C3473 1.429 . S
C3489 C3485 1.429 . S
C3489 C3490 1.523 . S
C3490 C3474 1.368 . S
C3490 C3486 1.368 . S
C3490 C3489 1.523 . S
H3491 C3466 0.950 . S
H3492 C3468 0.950 . S
H3493 C3469 0.949 . S
H3494 C3471 0.950 . S
H3495 C3473 0.950 . S
C3496 C3497 1.349 1_554 S
C3496 C3498 1.327 . S
C3496 H3521 0.950 . S
C3497 C3496 1.349 1_556 S
C3497 C3513 1.349 . S
C3498 C3496 1.327 . S
C3498 C3517 1.429 1_554 S
C3498 H3522 0.950 . S
C3499 C3516 1.574 . S
C3499 C3518 1.368 . S
C3499 H3523 0.949 . S
H3500 C3504 0.949 . S
C3501 C3502 1.358 . S
C3501 C3503 1.327 . S
C3501 H3524 0.950 . S
C3502 C3501 1.358 . S
C3502 C3514 1.340 1_556 S
C3503 C3501 1.327 . S
C3503 C3519 1.464 . S
C3503 H3525 0.950 . S
C3504 H3500 0.949 . S
C3504 C3512 1.574 . S
C3504 C3520 1.368 1_554 S
H3505 C3513 0.950 . S
H3506 C3511 0.950 . S
H3507 C3512 0.949 . S
H3508 C3514 0.950 . S
H3509 C3515 0.950 . S
H3510 C3516 0.949 . S
C3511 H3506 0.950 . S
C3511 C3513 1.327 . S
C3511 C3517 1.429 . S
C3512 C3504 1.574 . S
C3512 H3507 0.949 . S
C3512 C3518 1.368 1_554 S
C3513 C3497 1.349 . S
C3513 H3505 0.950 . S
C3513 C3511 1.327 . S
C3514 C3502 1.340 1_554 S
C3514 H3508 0.950 . S
C3514 C3515 1.327 . S
C3515 H3509 0.950 . S
C3515 C3514 1.327 . S
C3515 C3519 1.393 1_554 S
C3516 C3499 1.574 . S
C3516 H3510 0.949 . S
C3516 C3520 1.368 . S
C3517 C3498 1.429 1_556 S
C3517 C3511 1.429 . S
C3517 C3518 1.523 . S
C3518 C3499 1.368 . S
C3518 C3512 1.368 1_556 S
C3518 C3517 1.523 . S
C3519 C3503 1.464 . S
C3519 C3515 1.393 1_556 S
C3519 C3520 1.525 . S
C3520 C3504 1.368 1_556 S
C3520 C3516 1.368 . S
C3520 C3519 1.525 . S
H3521 C3496 0.950 . S
H3522 C3498 0.950 . S
H3523 C3499 0.949 . S
H3524 C3501 0.950 . S
H3525 C3503 0.950 . S
C3526 C3527 1.371 . S
C3526 C3528 1.327 . S
C3526 H3551 0.950 . S
C3527 C3526 1.371 . S
C3527 C3543 1.328 1_556 S
C3528 C3526 1.327 . S
C3528 C3547 1.478 . S
C3528 H3552 0.950 . S
C3529 C3546 1.574 . S
C3529 C3548 1.368 1_554 S
C3529 H3553 0.949 . S
H3530 C3534 0.949 . S
C3531 C3532 1.349 1_554 S
C3531 C3533 1.327 . S
C3531 H3554 0.950 . S
C3532 C3531 1.349 1_556 S
C3532 C3544 1.349 . S
C3533 C3531 1.327 . S
C3533 C3549 1.429 1_554 S
C3533 H3555 0.950 . S
C3534 H3530 0.949 . S
C3534 C3542 1.574 . S
C3534 C3550 1.368 . S
H3535 C3543 0.950 . S
H3536 C3541 0.950 . S
H3537 C3542 0.949 . S
H3538 C3544 0.950 . S
H3539 C3545 0.950 . S
H3540 C3546 0.949 . S
C3541 H3536 0.950 . S
C3541 C3543 1.327 . S
C3541 C3547 1.380 1_554 S
C3542 C3534 1.574 . S
C3542 H3537 0.949 . S
C3542 C3548 1.368 . S
C3543 C3527 1.328 1_554 S
C3543 H3535 0.950 . S
C3543 C3541 1.327 . S
C3544 C3532 1.349 . S
C3544 H3538 0.950 . S
C3544 C3545 1.327 . S
C3545 H3539 0.950 . S
C3545 C3544 1.327 . S
C3545 C3549 1.429 . S
C3546 C3529 1.574 . S
C3546 H3540 0.949 . S
C3546 C3550 1.368 1_554 S
C3547 C3528 1.478 . S
C3547 C3541 1.380 1_556 S
C3547 C3548 1.526 . S
C3548 C3529 1.368 1_556 S
C3548 C3542 1.368 . S
C3548 C3547 1.526 . S
C3549 C3533 1.429 1_556 S
C3549 C3545 1.429 . S
C3549 C3550 1.523 . S
C3550 C3534 1.368 . S
C3550 C3546 1.368 1_556 S
C3550 C3549 1.523 . S
H3551 C3526 0.950 . S
H3552 C3528 0.950 . S
H3553 C3529 0.949 . S
H3554 C3531 0.950 . S
H3555 C3533 0.950 . S
C3556 C3557 1.349 . S
C3556 C3558 1.327 . S
C3556 H3581 0.950 . S
C3557 C3556 1.349 . S
C3557 C3573 1.349 . S
C3558 C3556 1.327 . S
C3558 C3577 1.429 . S
C3558 H3582 0.950 . S
C3559 C3576 1.574 . S
C3559 C3578 1.368 . S
C3559 H3583 0.949 . S
H3560 C3564 0.949 . S
C3561 C3562 1.349 . S
C3561 C3563 1.327 . S
C3561 H3584 0.950 . S
C3562 C3561 1.349 . S
C3562 C3574 1.349 . S
C3563 C3561 1.327 . S
C3563 C3579 1.429 . S
C3563 H3585 0.950 . S
C3564 H3560 0.949 . S
C3564 C3572 1.574 . S
C3564 C3580 1.368 . S
H3565 C3573 0.950 . S
H3566 C3571 0.950 . S
H3567 C3572 0.949 . S
H3568 C3574 0.950 . S
H3569 C3575 0.950 . S
H3570 C3576 0.949 . S
C3571 H3566 0.950 . S
C3571 C3573 1.327 . S
C3571 C3577 1.429 . S
C3572 C3564 1.574 . S
C3572 H3567 0.949 . S
C3572 C3578 1.368 . S
C3573 C3557 1.349 . S
C3573 H3565 0.950 . S
C3573 C3571 1.327 . S
C3574 C3562 1.349 . S
C3574 H3568 0.950 . S
C3574 C3575 1.327 . S
C3575 H3569 0.950 . S
C3575 C3574 1.327 . S
C3575 C3579 1.429 . S
C3576 C3559 1.574 . S
C3576 H3570 0.949 . S
C3576 C3580 1.368 . S
C3577 C3558 1.429 . S
C3577 C3571 1.429 . S
C3577 C3578 1.523 . S
C3578 C3559 1.368 . S
C3578 C3572 1.368 . S
C3578 C3577 1.523 . S
C3579 C3563 1.429 . S
C3579 C3575 1.429 . S
C3579 C3580 1.523 . S
C3580 C3564 1.368 . S
C3580 C3576 1.368 . S
C3580 C3579 1.523 . S
H3581 C3556 0.950 . S
H3582 C3558 0.950 . S
H3583 C3559 0.949 . S
H3584 C3561 0.950 . S
H3585 C3563 0.950 . S
C3586 C3587 1.349 . S
C3586 C3588 1.327 . S
C3586 H3611 0.950 . S
C3587 C3586 1.349 . S
C3587 C3603 1.349 . S
C3588 C3586 1.327 . S
C3588 C3607 1.429 . S
C3588 H3612 0.950 . S
C3589 C3606 1.574 . S
C3589 C3608 1.368 . S
C3589 H3613 0.949 . S
H3590 C3594 0.949 . S
C3591 C3592 1.349 . S
C3591 C3593 1.327 . S
C3591 H3614 0.950 . S
C3592 C3591 1.349 . S
C3592 C3604 1.349 . S
C3593 C3591 1.327 . S
C3593 C3609 1.429 . S
C3593 H3615 0.950 . S
C3594 H3590 0.949 . S
C3594 C3602 1.574 . S
C3594 C3610 1.368 . S
H3595 C3603 0.950 . S
H3596 C3601 0.950 . S
H3597 C3602 0.949 . S
H3598 C3604 0.950 . S
H3599 C3605 0.950 . S
H3600 C3606 0.949 . S
C3601 H3596 0.950 . S
C3601 C3603 1.327 . S
C3601 C3607 1.429 . S
C3602 C3594 1.574 . S
C3602 H3597 0.949 . S
C3602 C3608 1.368 . S
C3603 C3587 1.349 . S
C3603 H3595 0.950 . S
C3603 C3601 1.327 . S
C3604 C3592 1.349 . S
C3604 H3598 0.950 . S
C3604 C3605 1.327 . S
C3605 H3599 0.950 . S
C3605 C3604 1.327 . S
C3605 C3609 1.429 . S
C3606 C3589 1.574 . S
C3606 H3600 0.949 . S
C3606 C3610 1.368 . S
C3607 C3588 1.429 . S
C3607 C3601 1.429 . S
C3607 C3608 1.523 . S
C3608 C3589 1.368 . S
C3608 C3602 1.368 . S
C3608 C3607 1.523 . S
C3609 C3593 1.429 . S
C3609 C3605 1.429 . S
C3609 C3610 1.523 . S
C3610 C3594 1.368 . S
C3610 C3606 1.368 . S
C3610 C3609 1.523 . S
H3611 C3586 0.950 . S
H3612 C3588 0.950 . S
H3613 C3589 0.949 . S
H3614 C3591 0.950 . S
H3615 C3593 0.950 . S
C737 C591 1.217 . S
C742 C16 1.217 1_565 S
C767 C568 1.217 . S
C772 C39 1.217 . S
C797 C637 1.214 . S
C802 C62 1.214 . S
C827 C614 1.214 . S
C832 C85 1.214 1_565 S
C857 C108 1.272 1_545 S
C862 C683 1.272 . S
C887 C131 1.272 . S
C892 C660 1.272 . S
C917 C154 1.275 . S
C922 C729 1.275 . S
C947 C706 1.275 . S
C952 C177 1.275 1_545 S
C977 C407 1.213 . S
C982 C200 1.213 . S
C1007 C384 1.213 1_565 S
C1012 C223 1.213 . S
C1037 C453 1.215 1_565 S
C1042 C246 1.215 . S
C1067 C430 1.215 . S
C1072 C269 1.215 . S
C1097 C292 1.274 . S
C1102 C499 1.274 . S
C1127 C476 1.274 1_545 S
C1132 C315 1.274 . S
C1157 C338 1.276 . S
C1162 C545 1.276 1_545 S
C1187 C522 1.276 . S
C1192 C361 1.276 . S
C1217 C19 1.347 . S
C1222 C456 1.354 . S
C1247 C433 1.346 . S
C1252 C42 1.355 . S
C1277 C410 1.321 . S
C1282 C65 1.321 . S
C1307 C88 1.321 . S
C1312 C387 1.321 . S
C1337 C549 1.345 . S
C1342 C112 1.354 . S
C1367 C526 1.346 . S
C1372 C135 1.354 . S
C1397 C503 1.320 . S
C1402 C158 1.320 . S
C1427 C480 1.321 . S
C1432 C181 1.321 . S
C1457 C640 1.321 . S
C1462 C203 1.321 . S
C1487 C226 1.321 . S
C1492 C617 1.321 . S
C1517 C249 1.346 . S
C1522 C594 1.355 . S
C1547 C272 1.346 . S
C1552 C571 1.355 . S
C1577 C733 1.321 . S
C1582 C296 1.321 . S
C1607 C710 1.320 . S
C1612 C319 1.320 . S
C1637 C342 1.346 . S
C1642 C687 1.354 . S
C1667 C365 1.345 . S
C1672 C664 1.354 . S
C1697 C113 0.394 . S
C1702 C21 0.413 . S
C1727 C44 0.420 . S
C1732 C688 0.420 . S
C1757 C67 0.401 . S
C1762 C343 0.392 . S
C1787 C550 0.392 . S
C1792 C90 0.401 . S
C1817 C136 0.394 . S
C1822 C596 0.413 . S
C1847 C159 0.392 . S
C1852 C251 0.401 . S
C1877 C458 0.401 . S
C1882 C182 0.392 . S
C1907 C297 0.395 . S
C1912 C205 0.405 . S
C1937 C228 0.405 . S
C1942 C504 0.395 . S
C1967 C274 0.401 . S
C1972 C734 0.392 . S
C1997 C412 0.405 . S
C2002 C320 0.395 . S
C2027 C366 0.392 . S
C2032 C642 0.401 . S
C2057 C481 0.395 . S
C2062 C389 0.405 . S
C2087 C711 0.392 . S
C2092 C435 0.401 . S
C2117 C619 0.401 . S
C2122 C527 0.392 . S
C2147 C573 0.420 . S
C2152 C665 0.420 . S
C2177 C66 1.501 . S
C2182 C20 1.493 . S
C2207 C89 1.501 . S
C2212 C43 1.493 . S
C2237 C157 1.493 . S
C2242 C111 1.485 . S
C2267 C134 1.493 . S
C2272 C180 1.485 . S
C2297 C250 1.526 . S
C2302 C204 1.526 . S
C2327 C227 1.525 . S
C2332 C273 1.525 . S
C2357 C341 1.518 . S
C2362 C295 1.518 . S
C2387 C318 1.519 . S
C2392 C364 1.519 . S
C2417 C388 1.526 . S
C2422 C434 1.526 . S
C2447 C411 1.525 . S
C2452 C457 1.525 . S
C2477 C525 1.518 . S
C2482 C479 1.518 . S
C2507 C502 1.519 . S
C2512 C548 1.519 . S
C2537 C572 1.501 . S
C2542 C618 1.493 . S
C2567 C641 1.501 . S
C2572 C595 1.493 . S
C2597 C663 1.493 . S
C2602 C709 1.485 . S
C2627 C686 1.493 . S
C2632 C732 1.485 . S
C2657 C132 1.485 . S
C2662 C18 1.545 1_556 S
C2687 C661 1.485 . S
C2692 C41 1.545 1_556 S
C2717 C64 1.540 . S
C2722 C362 1.482 . S
C2747 C87 1.540 . S
C2752 C523 1.482 . S
C2777 C110 1.476 1_556 S
C2782 C40 1.427 . S
C2807 C133 1.476 1_556 S
C2812 C569 1.427 . S
C2837 C270 1.425 . S
C2842 C156 1.481 . S
C2867 C431 1.425 . S
C2872 C179 1.481 . S
C2897 C202 1.542 . S
C2902 C316 1.484 . S
C2927 C477 1.484 . S
C2932 C225 1.542 . S
C2957 C248 1.540 . S
C2962 C178 1.483 . S
C2987 C707 1.483 . S
C2992 C271 1.540 . S
C3017 C294 1.482 . S
C3022 C224 1.427 . S
C3047 C317 1.482 . S
C3052 C385 1.427 . S
C3077 C340 1.482 . S
C3082 C86 1.426 . S
C3107 C615 1.426 . S
C3112 C363 1.482 . S
C3137 C386 1.542 . S
C3142 C500 1.484 . S
C3167 C409 1.542 . S
C3172 C293 1.484 . S
C3197 C730 1.483 . S
C3202 C432 1.540 . S
C3227 C155 1.483 . S
C3232 C455 1.540 . S
C3257 C478 1.482 . S
C3262 C408 1.427 . S
C3287 C201 1.427 . S
C3292 C501 1.482 . S
C3317 C638 1.426 . S
C3322 C524 1.482 . S
C3347 C547 1.482 . S
C3352 C63 1.426 . S
C3377 C684 1.485 . S
C3382 C570 1.545 1_556 S
C3407 C593 1.542 1_556 S
C3412 C109 1.482 . S
C3437 C546 1.482 . S
C3442 C616 1.540 . S
C3467 C339 1.482 . S
C3472 C639 1.540 . S
C3497 C592 1.427 . S
C3502 C662 1.476 1_556 S
C3527 C685 1.476 1_556 S
C3532 C17 1.427 . S
C3557 C454 1.425 . S
C3562 C708 1.481 . S
C3587 C731 1.481 . S
C3592 C247 1.425 . S
