# Generated by pormake.
# Topology umj, (4)-cn, num edge types: 1
# Building blocks:
#     Node 0, Type 0, BuildingBlock: QUQFOY_clean_sbu_1, # of connection points: 4
#     Node 1, Type 0, BuildingBlock: QUQFOY_clean_sbu_1, # of connection points: 4
#     Node 2, Type 0, BuildingBlock: QUQFOY_clean_sbu_1, # of connection points: 4
#     Node 3, Type 0, BuildingBlock: QUQFOY_clean_sbu_1, # of connection points: 4
#     Node 4, Type 0, BuildingBlock: QUQFOY_clean_sbu_1, # of connection points: 4
#     Node 5, Type 0, BuildingBlock: QUQFOY_clean_sbu_1, # of connection points: 4
#     Node 6, Type 0, BuildingBlock: QUQFOY_clean_sbu_1, # of connection points: 4
#     Node 7, Type 0, BuildingBlock: QUQFOY_clean_sbu_1, # of connection points: 4
#     Node 8, Type 0, BuildingBlock: QUQFOY_clean_sbu_1, # of connection points: 4
#     Node 9, Type 0, BuildingBlock: QUQFOY_clean_sbu_1, # of connection points: 4
#     Node 10, Type 0, BuildingBlock: QUQFOY_clean_sbu_1, # of connection points: 4
#     Node 11, Type 0, BuildingBlock: QUQFOY_clean_sbu_1, # of connection points: 4
#     Edge 12, Type (0, 0), BuildingBlock: EZIPEK_clean_linker_0, # of connection points: 2
#     Edge 13, Type (0, 0), BuildingBlock: EZIPEK_clean_linker_0, # of connection points: 2
#     Edge 14, Type (0, 0), BuildingBlock: EZIPEK_clean_linker_0, # of connection points: 2
#     Edge 15, Type (0, 0), BuildingBlock: EZIPEK_clean_linker_0, # of connection points: 2
#     Edge 16, Type (0, 0), BuildingBlock: EZIPEK_clean_linker_0, # of connection points: 2
#     Edge 17, Type (0, 0), BuildingBlock: EZIPEK_clean_linker_0, # of connection points: 2
#     Edge 18, Type (0, 0), BuildingBlock: EZIPEK_clean_linker_0, # of connection points: 2
#     Edge 19, Type (0, 0), BuildingBlock: EZIPEK_clean_linker_0, # of connection points: 2
#     Edge 20, Type (0, 0), BuildingBlock: EZIPEK_clean_linker_0, # of connection points: 2
#     Edge 21, Type (0, 0), BuildingBlock: EZIPEK_clean_linker_0, # of connection points: 2
#     Edge 22, Type (0, 0), BuildingBlock: EZIPEK_clean_linker_0, # of connection points: 2
#     Edge 23, Type (0, 0), BuildingBlock: EZIPEK_clean_linker_0, # of connection points: 2
#     Edge 24, Type (0, 0), BuildingBlock: EZIPEK_clean_linker_0, # of connection points: 2
#     Edge 25, Type (0, 0), BuildingBlock: EZIPEK_clean_linker_0, # of connection points: 2
#     Edge 26, Type (0, 0), BuildingBlock: EZIPEK_clean_linker_0, # of connection points: 2
#     Edge 27, Type (0, 0), BuildingBlock: EZIPEK_clean_linker_0, # of connection points: 2
#     Edge 28, Type (0, 0), BuildingBlock: EZIPEK_clean_linker_0, # of connection points: 2
#     Edge 29, Type (0, 0), BuildingBlock: EZIPEK_clean_linker_0, # of connection points: 2
#     Edge 30, Type (0, 0), BuildingBlock: EZIPEK_clean_linker_0, # of connection points: 2
#     Edge 31, Type (0, 0), BuildingBlock: EZIPEK_clean_linker_0, # of connection points: 2
#     Edge 32, Type (0, 0), BuildingBlock: EZIPEK_clean_linker_0, # of connection points: 2
#     Edge 33, Type (0, 0), BuildingBlock: EZIPEK_clean_linker_0, # of connection points: 2
#     Edge 34, Type (0, 0), BuildingBlock: EZIPEK_clean_linker_0, # of connection points: 2
#     Edge 35, Type (0, 0), BuildingBlock: EZIPEK_clean_linker_0, # of connection points: 2
# Relax obj value: 0.078
# Max RMSD: 0.417
# Mean RMSD: 0.261
data_MOF--net-umj--node1-QUQFOY_clean_sbu_1--edge1-EZIPEK_clean_linker_0
_symmetry_space_group_name_H-M    P1
_symmetry_Int_Tables_number       1
_symmetry_cell_setting            triclinic
loop_
_symmetry_equiv_pos_as_xyz
'x, y, z'
_cell_length_a     21.746427
_cell_length_b     21.672866
_cell_length_c     61.951897
_cell_angle_alpha  88.18742
_cell_angle_beta   91.914415
_cell_angle_gamma 120.1567
loop_
_atom_site_label
_atom_site_type_symbol
_atom_site_fract_x
_atom_site_fract_y
_atom_site_fract_z
_atom_type_partial_charge
O0 O 1.02144 0.32524 0.12363 0.0
Cd1 Cd 1.01889 0.33262 0.09096 0.0
Cd2 Cd 0.14282 0.34985 0.09402 0.0
O3 O 0.13854 0.39103 0.12408 0.0
O4 O 0.96933 0.38893 0.0832 0.0
O5 O 0.08539 0.4339 0.08167 0.0
C6 C 0.03217 0.44427 0.08091 0.0
C7 C 0.20166 0.38959 0.06115 0.0
C8 C 0.07939 0.36214 0.13397 0.0
C9 C 0.03623 0.20723 0.08378 0.0
O10 O 0.09254 0.24239 0.09507 0.0
O11 O 1.00127 0.23698 0.07652 0.0
O12 O 0.23611 0.38964 0.07863 0.0
O13 O 0.13682 0.37455 0.06287 0.0
O14 O 0.78014 1.0119 0.45349 0.0
Cd15 Cd 0.76467 1.00836 0.42138 0.0
Cd16 Cd 0.85943 0.1393 0.41912 0.0
O17 O 0.82074 0.12836 0.45121 0.0
O18 O 0.66072 0.94708 0.4121 0.0
O19 O 0.71322 0.0636 0.41703 0.0
C20 C 0.65653 1.00459 0.41255 0.0
C21 C 0.84134 0.17238 0.38377 0.0
C22 C 0.79825 0.07048 0.46251 0.0
C23 C 0.91515 0.04958 0.41009 0.0
O24 O 0.93229 0.10838 0.41874 0.0
O25 O 0.84946 1.00476 0.40589 0.0
O26 O 0.88445 0.22049 0.39723 0.0
O27 O 0.80507 0.10812 0.39104 0.0
O28 O 0.76018 0.6972 0.78962 0.0
Cd29 Cd 0.75068 0.68515 0.75754 0.0
Cd30 Cd 0.73521 0.7918 0.75435 0.0
O31 O 0.70033 0.75509 0.78654 0.0
O32 O 0.69066 0.58142 0.74798 0.0
O33 O 0.64616 0.65192 0.75263 0.0
C34 C 0.63563 0.58966 0.74832 0.0
C35 C 0.70029 0.78852 0.71765 0.0
C36 C 0.72778 0.72476 0.79832 0.0
C37 C 0.87657 0.83225 0.74723 0.0
O38 O 0.84012 0.85505 0.7558 0.0
O39 O 0.848 0.76575 0.74274 0.0
O40 O 0.69856 0.83308 0.73081 0.0
O41 O 0.71323 0.74115 0.72594 0.0
O42 O 0.05039 0.82381 0.12764 0.0
Cd43 Cd 0.04472 0.81866 0.09534 0.0
Cd44 Cd 0.9121 0.77054 0.09573 0.0
O45 O 0.93622 0.74116 0.12696 0.0
O46 O 0.1076 0.78527 0.08257 0.0
O47 O 0.99453 0.71244 0.09043 0.0
C48 C 0.05362 0.72098 0.08374 0.0
C49 C 0.87657 0.72016 0.06115 0.0
C50 C 0.99532 0.77775 0.13741 0.0
C51 C 0.98717 0.91963 0.08625 0.0
O52 O 0.93048 0.87167 0.09501 0.0
O53 O 0.03586 0.90565 0.0815 0.0
O54 O 0.82971 0.70231 0.076 0.0
O55 O 0.94213 0.76256 0.06628 0.0
O56 O 0.32749 0.07889 0.45758 0.0
Cd57 Cd 0.31738 0.05804 0.42603 0.0
Cd58 Cd 0.22408 0.93006 0.43194 0.0
O59 O 0.27798 0.96206 0.46279 0.0
O60 O 0.41179 0.09984 0.4104 0.0
O61 O 0.35789 0.99203 0.42552 0.0
C62 C 0.41212 0.04166 0.41569 0.0
C63 C 0.22508 0.88293 0.39829 0.0
C64 C 0.30963 0.02571 0.47027 0.0
C65 C 0.15721 1.00717 0.41946 0.0
O66 O 0.14576 0.95242 0.43057 0.0
O67 O 0.22047 0.05117 0.41298 0.0
O68 O 0.1978 0.84084 0.41492 0.0
O69 O 0.25651 0.95057 0.40119 0.0
O70 O 0.23487 0.2521 0.79128 0.0
Cd71 Cd 0.24575 0.24694 0.75964 0.0
Cd72 Cd 0.29844 0.16688 0.7646 0.0
O73 O 0.3178 0.22133 0.79495 0.0
O74 O 0.28653 0.34231 0.74304 0.0
O75 O 0.35343 0.30132 0.75768 0.0
C76 C 0.34927 0.35152 0.74742 0.0
C77 C 0.34839 0.18444 0.72999 0.0
C78 C 0.27933 0.24422 0.80304 0.0
C79 C 0.15341 0.08277 0.75393 0.0
O80 O 0.20275 0.07796 0.76397 0.0
O81 O 0.16357 0.14457 0.74793 0.0
O82 O 0.37205 0.16172 0.746 0.0
O83 O 0.301 0.20112 0.73392 0.0
O84 O 0.83118 0.05965 0.56733 0.0
Cd85 Cd 0.81168 0.02619 0.59803 0.0
Cd86 Cd 0.76741 0.89981 0.59145 0.0
O87 O 0.75599 0.94548 0.56073 0.0
O88 O 0.75668 0.06153 0.61511 0.0
O89 O 0.70354 0.96549 0.59532 0.0
C90 C 0.69815 1.01051 0.60685 0.0
C91 C 0.71459 0.8548 0.62575 0.0
C92 C 0.79328 1.01077 0.55405 0.0
C93 C 0.90752 0.9573 0.60411 0.0
O94 O 0.86197 0.90638 0.59267 0.0
O95 O 0.89393 1.00487 0.61069 0.0
O96 O 0.69271 0.8148 0.60884 0.0
O97 O 0.76014 0.9212 0.62283 0.0
O98 O 0.74424 0.76547 0.89976 0.0
Cd99 Cd 0.74126 0.76249 0.93213 0.0
Cd100 Cd 0.83106 0.72175 0.93364 0.0
O101 O 0.78046 0.68649 0.90266 0.0
O102 O 0.64181 0.72203 0.94377 0.0
O103 O 0.69273 0.65717 0.93885 0.0
C104 C 0.63769 0.66023 0.94404 0.0
C105 C 0.82657 0.68112 0.96952 0.0
C106 C 0.75647 0.72049 0.89116 0.0
C107 C 0.89643 0.87007 0.94065 0.0
O108 O 0.90821 0.82453 0.93217 0.0
O109 O 0.83276 0.85251 0.94557 0.0
O110 O 0.85812 0.66557 0.95505 0.0
O111 O 0.79334 0.7138 0.9633 0.0
O112 O 0.98992 0.79452 0.24024 0.0
Cd113 Cd 1.00127 0.7933 0.27216 0.0
Cd114 Cd 0.13377 0.87682 0.27143 0.0
O115 O 0.10477 0.82935 0.2396 0.0
O116 O 0.94632 0.69386 0.28598 0.0
O117 O 0.05708 0.74183 0.27489 0.0
C118 C 1.00178 0.68794 0.28286 0.0
C119 C 0.16606 0.85735 0.30685 0.0
C120 C 0.04412 0.80658 0.22979 0.0
C121 C 0.06454 0.95415 0.27995 0.0
O122 O 0.1216 0.96235 0.27226 0.0
O123 O 1.01359 0.89088 0.2844 0.0
O124 O 0.21381 0.88667 0.29208 0.0
O125 O 0.10088 0.83421 0.30107 0.0
O126 O 0.31122 1.00791 0.57117 0.0
Cd127 Cd 0.315 0.99006 0.60326 0.0
Cd128 Cd 0.33705 0.11958 0.60501 0.0
O129 O 0.37725 0.12503 0.57393 0.0
O130 O 0.36368 0.93155 0.60626 0.0
O131 O 0.41433 0.045 0.61495 0.0
C132 C 0.42063 0.99031 0.61162 0.0
C133 C 0.38066 0.17212 0.63872 0.0
C134 C 0.34831 0.06884 0.56242 0.0
C135 C 0.19119 1.00286 0.61314 0.0
O136 O 0.22892 0.06455 0.60475 0.0
O137 O 0.21859 0.96378 0.61794 0.0
O138 O 0.37169 0.20818 0.6231 0.0
O139 O 0.37145 0.11041 0.6345 0.0
O140 O 0.28202 0.24967 0.90442 0.0
Cd141 Cd 0.29304 0.2646 0.93618 0.0
Cd142 Cd 0.1988 0.29924 0.93582 0.0
O143 O 0.23799 0.32247 0.90317 0.0
O144 O 0.39539 0.31764 0.94794 0.0
O145 O 0.33632 0.37168 0.93682 0.0
C146 C 0.39446 0.37632 0.94411 0.0
C147 C 0.21972 0.34804 0.971 0.0
C148 C 0.26212 0.28736 0.89354 0.0
C149 C 0.13924 0.15486 0.94714 0.0
O150 O 0.12257 0.19678 0.93743 0.0
O151 O 0.20474 0.17576 0.95188 0.0
O152 O 0.18089 0.35938 0.95688 0.0
O153 O 0.25086 0.31514 0.9646 0.0
O154 O 0.0802 0.3561 0.23898 0.0
Cd155 Cd 0.06111 0.35159 0.27096 0.0
Cd156 Cd 0.93875 0.24892 0.26338 0.0
O157 O 0.96401 0.30132 0.23283 0.0
O158 O 0.10316 0.4491 0.28478 0.0
O159 O 0.99238 0.38781 0.27225 0.0
C160 C 0.04252 0.44524 0.28071 0.0
C161 C 0.87259 0.23669 0.29391 0.0
C162 C 0.02769 0.33504 0.22582 0.0
C163 C 0.02817 0.19967 0.28 0.0
O164 O 0.97737 0.18248 0.26649 0.0
O165 O 0.06321 0.26359 0.28709 0.0
O166 O 0.84097 0.20576 0.27605 0.0
O167 O 0.94031 0.27894 0.29375 0.0
C168 C 0.07892 0.31179 0.19336 0.0
C169 C 0.04161 0.34325 0.20221 0.0
C170 C 0.04212 0.39841 0.16685 0.0
C171 C 0.07607 0.36405 0.15782 0.0
N172 N 0.1194 0.28136 0.16147 0.0
N173 N 0.9806 0.4099 0.19714 0.0
C174 C 0.09346 0.31977 0.17088 0.0
C175 C 1.02121 0.38476 0.18887 0.0
N176 N 0.09914 0.2727 0.20643 0.0
N177 N 0.03098 0.44512 0.15432 0.0
H178 H 0.96567 0.40252 0.21323 0.0
H179 H 0.95744 0.43402 0.18789 0.0
H180 H 0.04408 0.45481 0.13806 0.0
H181 H 1.01372 0.47816 0.1602 0.0
H182 H 0.13551 0.25772 0.20204 0.0
H183 H 0.08109 0.25655 0.22211 0.0
H184 H 0.1244 0.24091 0.16932 0.0
H185 H 0.13232 0.2867 0.1452 0.0
C186 C 0.86211 0.07348 0.49696 0.0
C187 C 0.80181 0.07057 0.48646 0.0
C188 C 0.73486 0.02746 0.52013 0.0
C189 C 0.79543 0.03062 0.5307 0.0
N190 N 0.92093 0.06935 0.53036 0.0
N191 N 0.68618 0.05827 0.48827 0.0
C192 C 0.86043 0.05791 0.51948 0.0
C193 C 0.73974 0.0517 0.49818 0.0
N194 N 0.92002 0.088 0.4851 0.0
N195 N 0.67278 1.0011 0.53107 0.0
H196 H 0.68985 0.07742 0.47241 0.0
H197 H 0.64113 0.05063 0.49602 0.0
H198 H 0.66841 0.98642 0.54739 0.0
H199 H 0.62461 0.99048 0.52388 0.0
H200 H 0.96147 0.08076 0.49092 0.0
H201 H 0.92504 0.10388 0.46887 0.0
H202 H 0.97146 0.09733 0.52384 0.0
H203 H 0.9218 0.05505 0.54651 0.0
C204 C 0.80209 0.76737 0.83209 0.0
C205 C 0.73307 0.72994 0.82226 0.0
C206 C 0.682 0.67598 0.85737 0.0
C207 C 0.75028 0.71544 0.86729 0.0
N208 N 0.87473 0.80301 0.86498 0.0
N209 N 0.60613 0.66001 0.82585 0.0
C210 C 0.81028 0.76208 0.85485 0.0
C211 C 0.67253 0.68766 0.83502 0.0
N212 N 0.85993 0.80791 0.8195 0.0
N213 N 0.6268 0.62579 0.8693 0.0
H214 H 0.59795 0.66982 0.80973 0.0
H215 H 0.55937 0.63332 0.83451 0.0
H216 H 0.63336 0.61496 0.88547 0.0
H217 H 0.57674 0.59056 0.86284 0.0
H218 H 0.9124 0.8287 0.82485 0.0
H219 H 0.85552 0.81952 0.80324 0.0
H220 H 0.9188 0.84482 0.85754 0.0
H221 H 0.88369 0.79695 0.88135 0.0
C222 C 0.98238 0.82033 0.17281 0.0
C223 C 0.99927 0.77551 0.16135 0.0
C224 C 0.04599 0.74896 0.19496 0.0
C225 C 0.03563 0.79962 0.20588 0.0
N226 N 1.0068 0.89371 0.20408 0.0
N227 N 0.05247 0.70144 0.16059 0.0
C228 C 1.00717 0.83795 0.19447 0.0
C229 C 0.03272 0.74103 0.17218 0.0
N230 N 0.94229 0.84602 0.16299 0.0
N231 N 0.06562 0.70654 0.20645 0.0
H232 H 0.03954 0.69122 0.14421 0.0
H233 H 0.08429 0.68166 0.16689 0.0
H234 H 0.07649 0.7115 0.22303 0.0
H235 H 0.06641 0.6633 0.1999 0.0
H236 H 0.92194 0.87289 0.17118 0.0
H237 H 0.92351 0.83466 0.14708 0.0
H238 H 0.9942 0.92874 0.19589 0.0
H239 H 0.02611 0.90958 0.21974 0.0
C240 C 0.38315 0.03862 0.52804 0.0
C241 C 0.35028 0.07165 0.53848 0.0
C242 C 0.29382 0.07752 0.50409 0.0
C243 C 0.32201 0.039 0.49395 0.0
N244 N 0.38844 0.97713 0.4967 0.0
N245 N 0.26813 0.11556 0.53737 0.0
C246 C 0.36531 0.01794 0.50606 0.0
C247 C 0.30485 0.09028 0.52668 0.0
N248 N 0.43242 0.02804 0.53925 0.0
N249 N 0.25514 0.10097 0.49221 0.0
H250 H 0.27631 0.12794 0.55372 0.0
H251 H 0.22639 0.12036 0.53048 0.0
H252 H 0.23744 0.08556 0.47642 0.0
H253 H 0.24271 0.13821 0.49771 0.0
H254 H 0.46421 1.01112 0.5323 0.0
H255 H 0.44586 0.0421 0.55536 0.0
H256 H 0.4133 0.95323 0.50519 0.0
H257 H 0.37887 0.96287 0.48054 0.0
C258 C 0.23478 0.19851 0.84002 0.0
C259 C 0.28075 0.25662 0.82655 0.0
C260 C 0.3071 0.33973 0.85635 0.0
C261 C 0.25992 0.28137 0.86961 0.0
N262 N 0.16526 0.15939 0.87257 0.0
N263 N 0.35802 0.38262 0.82078 0.0
C264 C 0.21984 0.21193 0.86095 0.0
C265 C 0.31609 0.32745 0.83442 0.0
N266 N 0.20617 0.13024 0.83287 0.0
N267 N 0.34398 0.40634 0.8649 0.0
H268 H 0.36965 0.37422 0.80532 0.0
H269 H 0.38023 0.43628 0.82441 0.0
H270 H 0.33402 0.41731 0.88023 0.0
H271 H 0.38479 0.45051 0.85713 0.0
H272 H 0.17804 0.08511 0.84265 0.0
H273 H 0.21594 0.11849 0.8176 0.0
H274 H 0.12949 0.10918 0.86657 0.0
H275 H 0.15106 0.16862 0.88755 0.0
C276 C 0.22594 0.44155 0.0234 0.0
C277 C 0.229 0.39398 0.03913 0.0
C278 C 0.22445 0.31701 1.01047 0.0
C279 C 0.22477 0.36594 0.99441 0.0
N280 N 0.2463 0.48479 0.98622 0.0
N281 N 0.25593 0.30007 0.047 0.0
C282 C 0.23164 0.43139 1.00103 0.0
C283 C 0.23759 0.33702 0.03243 0.0
N284 N 0.21664 0.49594 0.02984 0.0
N285 N 0.20574 0.24882 1.00528 0.0
H286 H 0.26637 0.31252 0.06327 0.0
H287 H 0.26926 0.26247 0.0424 0.0
H288 H 0.189 0.228 0.98996 0.0
H289 H 0.19798 0.20959 0.01679 0.0
H290 H 0.20524 0.52708 0.01914 0.0
H291 H 0.21735 0.50761 0.04611 0.0
H292 H 0.25789 0.53573 0.99044 0.0
H293 H 0.25437 0.48067 0.96997 0.0
C294 C 0.82466 0.13476 0.34474 0.0
C295 C 0.8367 0.18753 0.36018 0.0
C296 C 0.85183 0.27055 0.33017 0.0
C297 C 0.83737 0.21646 0.31517 0.0
N298 N 0.7798 0.08996 0.30904 0.0
N299 N 0.83869 0.29793 0.3668 0.0
C300 C 0.81238 0.14598 0.32279 0.0
C301 C 0.84315 0.25326 0.35269 0.0
N302 N 0.83142 0.07688 0.35033 0.0
N303 N 0.87517 0.33869 0.32286 0.0
H304 H 0.8278 0.285 0.3831 0.0
H305 H 0.8377 0.34383 0.36186 0.0
H306 H 0.87728 0.35151 0.3064 0.0
H307 H 0.89491 0.38223 0.33305 0.0
H308 H 0.82807 0.04053 0.33907 0.0
H309 H 0.85033 0.07006 0.36531 0.0
H310 H 0.75658 0.03698 0.31439 0.0
H311 H 0.76734 0.09579 0.29302 0.0
C312 C 0.65444 0.82547 0.6846 0.0
C313 C 0.69394 0.79482 0.69356 0.0
C314 C 0.72256 0.78064 0.65649 0.0
C315 C 0.69697 0.82565 0.64833 0.0
N316 N 0.65422 0.90569 0.65706 0.0
N317 N 0.78219 0.75979 0.68667 0.0
C318 C 0.66714 0.85222 0.66303 0.0
C319 C 0.73178 0.77572 0.6792 0.0
N320 N 0.60408 0.8284 0.69639 0.0
N321 N 0.74235 0.74571 0.64283 0.0
H322 H 0.79888 0.76297 0.70267 0.0
H323 H 0.81547 0.75312 0.67646 0.0
H324 H 0.74115 0.7505 0.62609 0.0
H325 H 0.75399 0.70659 0.64826 0.0
H326 H 0.5708 0.84612 0.68978 0.0
H327 H 0.58936 0.80456 0.71166 0.0
H328 H 0.63781 0.93019 0.66789 0.0
H329 H 0.66814 0.9311 0.64213 0.0
C330 C 0.81852 0.63404 0.02985 0.0
C331 C 0.85771 0.70456 0.0379 0.0
C332 C 0.89143 0.75135 1.00125 0.0
C333 C 0.84483 0.68316 0.99281 0.0
N334 N 0.75737 0.5597 0.99878 0.0
N335 N 0.91107 0.83079 0.0302 0.0
C336 C 0.80628 0.62418 1.00703 0.0
C337 C 0.88835 0.76334 0.02327 0.0
N338 N 0.7951 0.57702 0.04379 0.0
N339 N 0.9391 0.80497 0.98819 0.0
H340 H 0.90446 0.84138 0.046 0.0
H341 H 0.92797 0.87445 0.01965 0.0
H342 H 0.9445 0.79726 0.97199 0.0
H343 H 0.97833 0.85412 0.99412 0.0
H344 H 0.77223 0.52455 0.03867 0.0
H345 H 0.80326 0.58286 0.06046 0.0
H346 H 0.7224 0.51651 1.00834 0.0
H347 H 0.7495 0.55113 0.98218 0.0
C348 C 0.23115 0.83867 0.33946 0.0
C349 C 0.18363 0.86013 0.33044 0.0
C350 C 0.14814 0.86828 0.3668 0.0
C351 C 0.20296 0.85828 0.37587 0.0
N352 N 0.30254 0.84111 0.37095 0.0
N353 N 0.11619 0.91876 0.33648 0.0
C354 C 0.24628 0.8453 0.36223 0.0
C355 C 0.14706 0.881 0.34438 0.0
N356 N 0.2601 0.81043 0.32657 0.0
N357 N 0.09845 0.86829 0.37973 0.0
H358 H 0.12258 0.93822 0.32062 0.0
H359 H 0.09298 0.93916 0.34631 0.0
H360 H 0.09751 0.85861 0.39636 0.0
H361 H 0.05417 0.87018 0.37361 0.0
H362 H 0.29011 0.78822 0.3326 0.0
H363 H 0.24914 0.80394 0.31002 0.0
H364 H 0.34064 0.83936 0.36164 0.0
H365 H 0.31272 0.84327 0.38758 0.0
C366 C 0.30968 0.15523 0.67073 0.0
C367 C 0.37794 0.18762 0.66165 0.0
C368 C 0.43185 0.21916 0.69815 0.0
C369 C 0.36289 0.17983 0.70701 0.0
N370 N 0.23993 0.09007 0.70141 0.0
N371 N 0.50489 0.24349 0.66651 0.0
C372 C 0.30292 0.14207 0.69318 0.0
C373 C 0.43958 0.21758 0.67532 0.0
N374 N 0.25074 0.13665 0.65794 0.0
N375 N 0.48912 0.2592 0.71133 0.0
H376 H 0.51168 0.24549 0.64985 0.0
H377 H 0.5513 0.25951 0.67569 0.0
H378 H 0.48475 0.26056 0.728 0.0
H379 H 0.53969 0.29448 0.7056 0.0
H380 H 0.20092 0.12008 0.66432 0.0
H381 H 0.25296 0.14517 0.64127 0.0
H382 H 0.19675 0.05596 0.69165 0.0
H383 H 0.23397 0.07529 0.71773 0.0
C384 C 1.01683 0.60822 0.06384 0.0
C385 C 0.05951 0.65676 0.08017 0.0
C386 C 0.0933 0.57088 0.09451 0.0
C387 C 0.04431 0.51872 0.07968 0.0
N388 N 0.96107 0.48808 0.04967 0.0
N389 N 0.132 0.68229 0.11259 0.0
C390 C 1.0065 0.5376 0.06416 0.0
C391 C 0.09713 0.63813 0.09563 0.0
N392 N 0.98764 0.63076 0.04776 0.0
N393 N 0.13588 0.55654 0.10798 0.0
H394 H 0.13793 0.73279 0.11399 0.0
H395 H 0.15063 0.66704 0.12626 0.0
H396 H 0.12954 0.50621 0.11069 0.0
H397 H 0.18049 0.59606 0.11606 0.0
H398 H 0.95977 0.60081 0.03438 0.0
H399 H 0.99599 0.68259 0.04697 0.0
H400 H 0.92535 0.49464 0.03966 0.0
H401 H 0.95756 0.43871 0.04795 0.0
C402 C 0.56314 0.02233 0.39266 0.0
C403 C 0.58777 1.00337 0.41185 0.0
C404 C 0.50587 0.02194 0.43305 0.0
C405 C 0.47599 0.03408 0.4138 0.0
N406 N 0.46878 0.03556 0.37492 0.0
N407 N 0.57202 0.96996 0.44959 0.0
C408 C 0.50256 0.03149 0.39343 0.0
C409 C 0.55539 0.99798 0.43178 0.0
N410 N 0.59853 0.033 0.37387 0.0
N411 N 0.49015 0.03745 0.45262 0.0
H412 H 0.60867 0.95232 0.44933 0.0
H413 H 0.54461 0.95809 0.46401 0.0
H414 H 0.45706 0.05894 0.45421 0.0
H415 H 0.51606 0.03666 0.467 0.0
H416 H 0.58824 0.05446 0.35987 0.0
H417 H 0.64111 0.0239 0.3727 0.0
H418 H 0.4811 0.02672 0.35964 0.0
H419 H 0.42483 0.04279 0.37503 0.0
C420 C 0.46313 0.42775 0.72738 0.0
C421 C 0.41602 0.42036 0.7439 0.0
C422 C 0.5139 0.51811 0.76353 0.0
C423 C 0.56102 0.52891 0.74661 0.0
N424 N 0.57789 0.50217 0.71056 0.0
N425 N 0.39213 0.47176 0.77405 0.0
C426 C 0.53492 0.48605 0.72791 0.0
C427 C 0.44001 0.47034 0.76067 0.0
N428 N 0.43914 0.37864 0.71137 0.0
N429 N 0.54023 0.54944 0.78306 0.0
H430 H 0.33743 0.43712 0.7724 0.0
H431 H 0.4062 0.51162 0.78533 0.0
H432 H 0.59458 0.58038 0.78647 0.0
H433 H 0.50879 0.5376 0.7966 0.0
H434 H 0.47183 0.37666 0.69985 0.0
H435 H 0.38606 0.33812 0.71009 0.0
H436 H 0.56036 0.47727 0.69572 0.0
H437 H 0.63028 0.54437 0.71052 0.0
C438 C 0.50191 0.94076 0.61957 0.0
C439 C 0.49267 0.99756 0.61178 0.0
C440 C 0.62049 0.06663 0.6037 0.0
C441 C 0.62739 1.00592 0.60898 0.0
N442 N 0.56358 0.87669 0.61484 0.0
N443 N 0.54163 0.10821 0.59077 0.0
C444 C 0.56499 0.94037 0.61473 0.0
C445 C 0.55161 0.05926 0.60252 0.0
N446 N 0.45159 0.8878 0.63221 0.0
N447 N 0.67872 0.13079 0.59854 0.0
H448 H 0.49235 0.1038 0.5877 0.0
H449 H 0.58136 0.14925 0.58165 0.0
H450 H 0.72858 0.13771 0.59551 0.0
H451 H 0.67772 0.17841 0.59799 0.0
H452 H 0.45939 0.84869 0.6399 0.0
H453 H 0.40628 0.88801 0.63712 0.0
H454 H 0.51681 0.82786 0.6168 0.0
H455 H 0.60644 0.87108 0.611 0.0
C456 C 0.49686 0.4767 0.96481 0.0
C457 C 0.4592 0.44809 0.94512 0.0
C458 C 0.52606 0.56553 0.92754 0.0
C459 C 0.56957 0.59237 0.94628 0.0
N460 N 0.60266 0.57205 0.98217 0.0
N461 N 0.45286 0.46085 0.90645 0.0
C462 C 0.55685 0.54745 0.9648 0.0
C463 C 0.4778 0.49139 0.92613 0.0
N464 N 0.47417 0.43747 0.98352 0.0
N465 N 0.53113 0.61064 0.91089 0.0
H466 H 0.42077 0.40584 0.9046 0.0
H467 H 0.47099 0.48899 0.89191 0.0
H468 H 0.56673 0.66544 0.91108 0.0
H469 H 0.49553 0.5944 0.89776 0.0
H470 H 0.49509 0.45811 0.9987 0.0
H471 H 0.43082 0.3856 0.98397 0.0
H472 H 0.60099 0.53956 0.99515 0.0
H473 H 0.64485 0.62453 0.98298 0.0
C474 C 0.99004 0.58274 0.26464 0.0
C475 C 1.00025 0.61889 0.28422 0.0
C476 C 0.03484 0.53823 0.30254 0.0
C477 C 0.03225 0.50774 0.28234 0.0
N478 N 0.02409 0.51351 0.24345 0.0
N479 N 0.04026 0.63776 0.32138 0.0
C480 C 1.01406 0.53321 0.26319 0.0
C481 C 0.02473 0.59842 0.30313 0.0
N482 N 0.95769 0.59621 0.2473 0.0
N483 N 0.045 0.50863 0.32113 0.0
H484 H 0.03083 0.68027 0.32244 0.0
H485 H 0.06595 0.63079 0.33492 0.0
H486 H 0.05298 0.46501 0.32116 0.0
H487 H 0.04034 0.5239 0.33648 0.0
H488 H 0.94269 0.56651 0.23323 0.0
H489 H 0.9397 0.63263 0.24775 0.0
H490 H 1.0188 0.53617 0.22893 0.0
H491 H 0.04561 0.48052 0.24163 0.0
C492 C 0.98341 0.08693 0.10061 0.0
C493 C 1.00947 0.12976 0.08174 0.0
C494 C 1.0172 0.03311 0.06448 0.0
C495 C 0.99886 0.99375 0.08438 0.0
N496 N 0.98284 0.99322 0.12285 0.0
N497 N 0.05655 0.14753 0.04608 0.0
C498 C 0.98642 0.02319 0.10282 0.0
C499 C 0.02736 0.10371 0.06366 0.0
N500 N 0.95648 0.10792 0.11662 0.0
N501 N 0.02393 1.00291 0.04636 0.0
H502 H 0.06204 0.1982 0.04478 0.0
H503 H 0.0781 0.13522 0.03328 0.0
H504 H 1.02061 0.95329 0.04657 0.0
H505 H 0.02889 0.02511 0.03092 0.0
H506 H 0.93048 0.07566 0.12993 0.0
H507 H 0.95369 0.15462 0.11543 0.0
H508 H 0.98065 1.01631 0.13708 0.0
H509 H 0.99092 0.95007 0.12557 0.0
C510 C 0.98534 1.00485 0.43024 0.0
C511 C 0.97039 0.02847 0.41026 0.0
C512 C 0.07768 0.0366 0.39516 0.0
C513 C 0.09644 0.02053 0.41596 0.0
N514 N 0.0767 1.00971 0.45445 0.0
N515 N 1.00696 0.07683 0.37443 0.0
C516 C 0.05246 1.01006 0.43381 0.0
C517 C 1.01796 0.04729 0.39288 0.0
N518 N 0.93551 0.97808 0.44603 0.0
N519 N 0.115 0.0393 0.37752 0.0
H520 H 0.96252 0.08277 0.37208 0.0
H521 H 0.04378 0.09932 0.36213 0.0
H522 H 0.15771 0.03018 0.37841 0.0
H523 H 0.1001 0.04491 0.36176 0.0
H524 H 0.94091 0.95367 0.46016 0.0
H525 H 0.88569 0.97382 0.44408 0.0
H526 H 0.04987 1.00959 0.46808 0.0
H527 H 0.12754 0.01835 0.45802 0.0
C528 C 0.05624 0.96352 0.76757 0.0
C529 C 0.08327 1.01566 0.75053 0.0
C530 C 0.97656 0.93801 0.7286 0.0
C531 C 0.95358 0.8843 0.74504 0.0
N532 N 0.98061 0.83913 0.77767 0.0
N533 N 0.07387 0.04538 0.71301 0.0
C534 C 0.99728 0.89464 0.7635 0.0
C535 C 0.04496 1.0008 0.73045 0.0
N536 N 0.08248 0.98148 0.7882 0.0
N537 N 0.93169 0.93028 0.71163 0.0
H538 H 0.12309 0.09204 0.71354 0.0
H539 H 0.05158 0.03307 0.6975 0.0
H540 H 0.88266 0.88396 0.70946 0.0
H541 H 0.94121 0.97104 0.70051 0.0
H542 H 0.06026 0.94731 0.80147 0.0
H543 H 0.11998 0.03334 0.79258 0.0
H544 H 1.01391 0.8419 0.79056 0.0
H545 H 0.937 0.78826 0.77516 0.0
C546 C 1.01733 0.96696 0.58897 0.0
C547 C 0.97891 0.9643 0.60746 0.0
C548 C 0.07601 0.97183 0.63097 0.0
C549 C 0.11315 0.97351 0.61237 0.0
N550 N 0.11096 0.9519 0.57447 0.0
N551 N 0.96455 0.94981 0.64604 0.0
C552 C 0.08071 0.96395 0.59165 0.0
C553 C 1.00615 0.96249 0.62853 0.0
N554 N 0.99557 0.97654 0.5688 0.0
N555 N 0.10829 0.98069 0.65081 0.0
H556 H 0.91341 0.94264 0.64473 0.0
H557 H 0.97835 0.94125 0.66164 0.0
H558 H 0.15754 0.98372 0.65295 0.0
H559 H 0.08789 0.98767 0.66489 0.0
H560 H 0.02592 0.98725 0.55507 0.0
H561 H 0.95038 0.98075 0.56597 0.0
H562 H 0.08646 0.93762 0.55928 0.0
H563 H 0.15729 0.94881 0.57604 0.0
C564 C 0.97003 0.98269 0.9627 0.0
C565 C 0.95768 0.9441 0.94335 0.0
C566 C 0.07493 0.03569 0.93058 0.0
C567 C 0.08335 0.07854 0.94844 0.0
N568 N 0.03234 0.0985 0.97958 0.0
N569 N 0.98996 0.9476 0.90615 0.0
C570 C 0.02895 0.05373 0.96398 0.0
C571 C 1.00799 0.97426 0.92654 0.0
N572 N 0.92742 0.95143 0.98006 0.0
N573 N 0.13022 0.05451 0.91706 0.0
H574 H 0.93884 0.90745 0.90186 0.0
H575 H 0.02255 0.97166 0.89292 0.0
H576 H 0.18008 0.09981 0.91927 0.0
H577 H 0.12843 0.02143 0.9049 0.0
H578 H 0.93847 0.97506 0.99515 0.0
H579 H 0.88482 0.89926 0.98008 0.0
H580 H 0.99068 0.08595 0.98992 0.0
H581 H 0.0747 0.15046 0.98101 0.0
C582 C 0.0258 0.03063 0.29997 0.0
C583 C 0.05714 0.01909 0.28177 0.0
C584 C 0.09224 0.14014 0.26838 0.0
C585 C 0.05146 0.14683 0.28435 0.0
N586 N 0.97483 0.09742 0.3148 0.0
N587 N 0.10234 0.05822 0.24557 0.0
C588 C 1.01719 0.09188 0.30011 0.0
C589 C 0.08615 0.07289 0.26521 0.0
N590 N 1.00585 0.98466 0.31731 0.0
N591 N 0.13537 0.19784 0.25573 0.0
H592 H 0.09194 1.00773 0.24138 0.0
H593 H 0.11722 0.09368 0.23243 0.0
H594 H 0.14074 0.24796 0.25774 0.0
H595 H 0.1711 0.1976 0.24497 0.0
H596 H 0.99 0.99467 0.33184 0.0
H597 H 1.01025 0.93905 0.3179 0.0
H598 H 0.94175 0.05578 0.32513 0.0
H599 H 0.97046 0.14306 0.31585 0.0
loop_
_geom_bond_atom_site_label_1
_geom_bond_atom_site_label_2
_geom_bond_distance
_geom_bond_site_symmetry_2
_ccdc_geom_bond_type
O0 Cd1 2.223 . S
O0 C8 1.315 1_655 S
Cd1 O0 2.223 . S
Cd1 O4 2.297 . S
Cd1 O5 2.439 . S
Cd1 O11 2.240 . S
Cd2 O3 2.240 . S
Cd2 O10 2.223 . S
Cd2 O12 2.297 . S
Cd2 O13 2.439 . S
O3 Cd2 2.240 . S
O3 C8 1.279 . S
O4 Cd1 2.297 . S
O4 C6 1.247 . S
O5 Cd1 2.439 . S
O5 C6 1.208 . S
C6 O4 1.247 . S
C6 O5 1.208 . S
C7 O12 1.247 . S
C7 O13 1.208 . S
C8 O0 1.315 1_455 S
C8 O3 1.279 . S
C9 O10 1.315 1_655 S
C9 O11 1.279 . S
O10 Cd2 2.223 . S
O10 C9 1.315 1_455 S
O11 Cd1 2.240 . S
O11 C9 1.279 . S
O12 Cd2 2.297 . S
O12 C7 1.247 . S
O13 Cd2 2.439 . S
O13 C7 1.208 . S
O14 Cd15 2.223 . S
O14 C22 1.315 . S
Cd15 O14 2.223 . S
Cd15 O18 2.297 . S
Cd15 O19 2.439 . S
Cd15 O25 2.240 . S
Cd16 O17 2.240 . S
Cd16 O24 2.223 1_655 S
Cd16 O26 2.297 1_655 S
Cd16 O27 2.439 . S
O17 Cd16 2.240 . S
O17 C22 1.279 . S
O18 Cd15 2.297 . S
O18 C20 1.247 . S
O19 Cd15 2.439 . S
O19 C20 1.208 . S
C20 O18 1.247 . S
C20 O19 1.208 . S
C21 O26 1.247 1_655 S
C21 O27 1.208 . S
C22 O14 1.315 . S
C22 O17 1.279 . S
C23 O24 1.315 1_655 S
C23 O25 1.279 . S
O24 Cd16 2.223 1_455 S
O24 C23 1.315 1_455 S
O25 Cd15 2.240 . S
O25 C23 1.279 . S
O26 Cd16 2.297 1_455 S
O26 C21 1.247 1_455 S
O27 Cd16 2.439 . S
O27 C21 1.208 . S
O28 Cd29 2.223 . S
O28 C36 1.315 . S
Cd29 O28 2.223 . S
Cd29 O32 2.297 . S
Cd29 O33 2.439 . S
Cd29 O39 2.240 . S
Cd30 O31 2.240 . S
Cd30 O38 2.223 . S
Cd30 O40 2.297 . S
Cd30 O41 2.439 . S
O31 Cd30 2.240 . S
O31 C36 1.279 . S
O32 Cd29 2.297 . S
O32 C34 1.247 . S
O33 Cd29 2.439 . S
O33 C34 1.208 . S
C34 O32 1.247 . S
C34 O33 1.208 . S
C35 O40 1.247 . S
C35 O41 1.208 . S
C36 O28 1.315 . S
C36 O31 1.279 . S
C37 O38 1.315 . S
C37 O39 1.279 . S
O38 Cd30 2.223 . S
O38 C37 1.315 . S
O39 Cd29 2.240 . S
O39 C37 1.279 . S
O40 Cd30 2.297 . S
O40 C35 1.247 . S
O41 Cd30 2.439 . S
O41 C35 1.208 . S
O42 Cd43 2.223 . S
O42 C50 1.315 . S
Cd43 O42 2.223 . S
Cd43 O46 2.297 . S
Cd43 O47 2.439 . S
Cd43 O53 2.240 . S
Cd44 O45 2.240 . S
Cd44 O52 2.223 . S
Cd44 O54 2.297 . S
Cd44 O55 2.439 . S
O45 Cd44 2.240 . S
O45 C50 1.279 . S
O46 Cd43 2.297 . S
O46 C48 1.247 . S
O47 Cd43 2.439 . S
O47 C48 1.208 . S
C48 O46 1.247 . S
C48 O47 1.208 . S
C49 O54 1.247 . S
C49 O55 1.208 . S
C50 O42 1.315 . S
C50 O45 1.279 . S
C51 O52 1.315 . S
C51 O53 1.279 . S
O52 Cd44 2.223 . S
O52 C51 1.315 . S
O53 Cd43 2.240 . S
O53 C51 1.279 . S
O54 Cd44 2.297 . S
O54 C49 1.247 . S
O55 Cd44 2.439 . S
O55 C49 1.208 . S
O56 Cd57 2.223 . S
O56 C64 1.315 1_545 S
Cd57 O56 2.223 . S
Cd57 O60 2.297 . S
Cd57 O61 2.439 . S
Cd57 O67 2.240 . S
Cd58 O59 2.240 . S
Cd58 O66 2.223 . S
Cd58 O68 2.297 . S
Cd58 O69 2.439 . S
O59 Cd58 2.240 . S
O59 C64 1.279 . S
O60 Cd57 2.297 . S
O60 C62 1.247 . S
O61 Cd57 2.439 . S
O61 C62 1.208 . S
C62 O60 1.247 . S
C62 O61 1.208 . S
C63 O68 1.247 . S
C63 O69 1.208 . S
C64 O56 1.315 1_565 S
C64 O59 1.279 . S
C65 O66 1.315 1_545 S
C65 O67 1.279 . S
O66 Cd58 2.223 . S
O66 C65 1.315 1_565 S
O67 Cd57 2.240 . S
O67 C65 1.279 . S
O68 Cd58 2.297 . S
O68 C63 1.247 . S
O69 Cd58 2.439 . S
O69 C63 1.208 . S
O70 Cd71 2.223 . S
O70 C78 1.315 . S
Cd71 O70 2.223 . S
Cd71 O74 2.297 . S
Cd71 O75 2.439 . S
Cd71 O81 2.240 . S
Cd72 O73 2.240 . S
Cd72 O80 2.223 1_545 S
Cd72 O82 2.297 1_545 S
Cd72 O83 2.439 . S
O73 Cd72 2.240 . S
O73 C78 1.279 . S
O74 Cd71 2.297 . S
O74 C76 1.247 . S
O75 Cd71 2.439 . S
O75 C76 1.208 . S
C76 O74 1.247 . S
C76 O75 1.208 . S
C77 O82 1.247 1_545 S
C77 O83 1.208 . S
C78 O70 1.315 . S
C78 O73 1.279 . S
C79 O80 1.315 1_545 S
C79 O81 1.279 . S
O80 Cd72 2.223 1_565 S
O80 C79 1.315 1_565 S
O81 Cd71 2.240 . S
O81 C79 1.279 . S
O82 Cd72 2.297 1_565 S
O82 C77 1.247 1_565 S
O83 Cd72 2.439 . S
O83 C77 1.208 . S
O84 Cd85 2.223 . S
O84 C92 1.315 . S
Cd85 O84 2.223 . S
Cd85 O88 2.297 . S
Cd85 O89 2.439 . S
Cd85 O95 2.240 . S
Cd86 O87 2.240 . S
Cd86 O94 2.223 . S
Cd86 O96 2.297 . S
Cd86 O97 2.439 . S
O87 Cd86 2.240 . S
O87 C92 1.279 . S
O88 Cd85 2.297 . S
O88 C90 1.247 . S
O89 Cd85 2.439 . S
O89 C90 1.208 . S
C90 O88 1.247 . S
C90 O89 1.208 . S
C91 O96 1.247 . S
C91 O97 1.208 . S
C92 O84 1.315 . S
C92 O87 1.279 . S
C93 O94 1.315 . S
C93 O95 1.279 . S
O94 Cd86 2.223 . S
O94 C93 1.315 . S
O95 Cd85 2.240 . S
O95 C93 1.279 . S
O96 Cd86 2.297 . S
O96 C91 1.247 . S
O97 Cd86 2.439 . S
O97 C91 1.208 . S
O98 Cd99 2.223 . S
O98 C106 1.315 . S
Cd99 O98 2.223 . S
Cd99 O102 2.297 . S
Cd99 O103 2.439 . S
Cd99 O109 2.240 . S
Cd100 O101 2.240 . S
Cd100 O108 2.223 . S
Cd100 O110 2.297 . S
Cd100 O111 2.439 . S
O101 Cd100 2.240 . S
O101 C106 1.279 . S
O102 Cd99 2.297 . S
O102 C104 1.247 . S
O103 Cd99 2.439 . S
O103 C104 1.208 . S
C104 O102 1.247 . S
C104 O103 1.208 . S
C105 O110 1.247 . S
C105 O111 1.208 . S
C106 O98 1.315 . S
C106 O101 1.279 . S
C107 O108 1.315 . S
C107 O109 1.279 . S
O108 Cd100 2.223 . S
O108 C107 1.315 . S
O109 Cd99 2.240 . S
O109 C107 1.279 . S
O110 Cd100 2.297 . S
O110 C105 1.247 . S
O111 Cd100 2.439 . S
O111 C105 1.208 . S
O112 Cd113 2.223 . S
O112 C120 1.315 . S
Cd113 O112 2.223 . S
Cd113 O116 2.297 . S
Cd113 O117 2.439 . S
Cd113 O123 2.240 . S
Cd114 O115 2.240 . S
Cd114 O122 2.223 1_565 S
Cd114 O124 2.297 1_565 S
Cd114 O125 2.439 . S
O115 Cd114 2.240 . S
O115 C120 1.279 . S
O116 Cd113 2.297 . S
O116 C118 1.247 . S
O117 Cd113 2.439 . S
O117 C118 1.208 . S
C118 O116 1.247 . S
C118 O117 1.208 . S
C119 O124 1.247 1_565 S
C119 O125 1.208 . S
C120 O112 1.315 . S
C120 O115 1.279 . S
C121 O122 1.315 1_565 S
C121 O123 1.279 . S
O122 Cd114 2.223 1_545 S
O122 C121 1.315 1_545 S
O123 Cd113 2.240 . S
O123 C121 1.279 . S
O124 Cd114 2.297 1_545 S
O124 C119 1.247 1_545 S
O125 Cd114 2.439 . S
O125 C119 1.208 . S
O126 Cd127 2.223 . S
O126 C134 1.315 1_565 S
Cd127 O126 2.223 . S
Cd127 O130 2.297 . S
Cd127 O131 2.439 . S
Cd127 O137 2.240 . S
Cd128 O129 2.240 . S
Cd128 O136 2.223 . S
Cd128 O138 2.297 . S
Cd128 O139 2.439 . S
O129 Cd128 2.240 . S
O129 C134 1.279 . S
O130 Cd127 2.297 . S
O130 C132 1.247 . S
O131 Cd127 2.439 . S
O131 C132 1.208 . S
C132 O130 1.247 . S
C132 O131 1.208 . S
C133 O138 1.247 . S
C133 O139 1.208 . S
C134 O126 1.315 1_545 S
C134 O129 1.279 . S
C135 O136 1.315 1_565 S
C135 O137 1.279 . S
O136 Cd128 2.223 . S
O136 C135 1.315 1_545 S
O137 Cd127 2.240 . S
O137 C135 1.279 . S
O138 Cd128 2.297 . S
O138 C133 1.247 . S
O139 Cd128 2.439 . S
O139 C133 1.208 . S
O140 Cd141 2.223 . S
O140 C148 1.315 . S
Cd141 O140 2.223 . S
Cd141 O144 2.297 . S
Cd141 O145 2.439 . S
Cd141 O151 2.240 . S
Cd142 O143 2.240 . S
Cd142 O150 2.223 1_455 S
Cd142 O152 2.297 1_455 S
Cd142 O153 2.439 . S
O143 Cd142 2.240 . S
O143 C148 1.279 . S
O144 Cd141 2.297 . S
O144 C146 1.247 . S
O145 Cd141 2.439 . S
O145 C146 1.208 . S
C146 O144 1.247 . S
C146 O145 1.208 . S
C147 O152 1.247 1_455 S
C147 O153 1.208 . S
C148 O140 1.315 . S
C148 O143 1.279 . S
C149 O150 1.315 1_455 S
C149 O151 1.279 . S
O150 Cd142 2.223 1_655 S
O150 C149 1.315 1_655 S
O151 Cd141 2.240 . S
O151 C149 1.279 . S
O152 Cd142 2.297 1_655 S
O152 C147 1.247 1_655 S
O153 Cd142 2.439 . S
O153 C147 1.208 . S
O154 Cd155 2.223 . S
O154 C162 1.315 1_455 S
Cd155 O154 2.223 . S
Cd155 O158 2.297 . S
Cd155 O159 2.439 . S
Cd155 O165 2.240 . S
Cd156 O157 2.240 . S
Cd156 O164 2.223 . S
Cd156 O166 2.297 . S
Cd156 O167 2.439 . S
O157 Cd156 2.240 . S
O157 C162 1.279 . S
O158 Cd155 2.297 . S
O158 C160 1.247 . S
O159 Cd155 2.439 . S
O159 C160 1.208 . S
C160 O158 1.247 . S
C160 O159 1.208 . S
C161 O166 1.247 . S
C161 O167 1.208 . S
C162 O154 1.315 1_655 S
C162 O157 1.279 . S
C163 O164 1.315 1_455 S
C163 O165 1.279 . S
O164 Cd156 2.223 . S
O164 C163 1.315 1_655 S
O165 Cd155 2.240 . S
O165 C163 1.279 . S
O166 Cd156 2.297 . S
O166 C161 1.247 . S
O167 Cd156 2.439 . S
O167 C161 1.208 . S
C168 C169 1.363 . S
C168 C174 1.379 1_655 S
C168 N176 1.356 . S
C169 C168 1.363 . S
C169 C175 1.363 . S
C170 C171 1.363 . S
C170 C175 1.379 1_455 S
C170 N177 1.356 . S
C171 C170 1.363 . S
C171 C174 1.363 . S
N172 C174 1.356 . S
N172 H184 0.984 . S
N172 H185 0.985 . S
N173 C175 1.356 . S
N173 H178 0.984 . S
N173 H179 0.985 . S
C174 C168 1.379 1_455 S
C174 C171 1.363 . S
C174 N172 1.356 . S
C175 C169 1.363 . S
C175 C170 1.379 1_655 S
C175 N173 1.356 . S
N176 C168 1.356 . S
N176 H182 0.984 . S
N176 H183 0.984 . S
N177 C170 1.356 . S
N177 H180 0.984 . S
N177 H181 0.985 . S
H178 N173 0.984 . S
H179 N173 0.985 . S
H180 N177 0.984 . S
H181 N177 0.985 . S
H182 N176 0.984 . S
H183 N176 0.984 . S
H184 N172 0.984 . S
H185 N172 0.985 . S
C186 C187 1.363 . S
C186 C192 1.379 1_545 S
C186 N194 1.356 . S
C187 C186 1.363 . S
C187 C193 1.363 . S
C188 C189 1.363 . S
C188 C193 1.379 1_565 S
C188 N195 1.356 . S
C189 C188 1.363 . S
C189 C192 1.363 . S
N190 C192 1.356 . S
N190 H202 0.984 . S
N190 H203 0.985 . S
N191 C193 1.356 . S
N191 H196 0.984 . S
N191 H197 0.985 . S
C192 C186 1.379 1_565 S
C192 C189 1.363 . S
C192 N190 1.356 . S
C193 C187 1.363 . S
C193 C188 1.379 1_545 S
C193 N191 1.356 . S
N194 C186 1.356 . S
N194 H200 0.984 1_655 S
N194 H201 0.984 . S
N195 C188 1.356 . S
N195 H198 0.984 . S
N195 H199 0.985 . S
H196 N191 0.984 . S
H197 N191 0.985 . S
H198 N195 0.984 . S
H199 N195 0.985 . S
H200 N194 0.984 1_455 S
H201 N194 0.984 . S
H202 N190 0.984 . S
H203 N190 0.985 . S
C204 C205 1.363 . S
C204 C210 1.379 . S
C204 N212 1.356 . S
C205 C204 1.363 . S
C205 C211 1.363 . S
C206 C207 1.363 . S
C206 C211 1.379 . S
C206 N213 1.356 . S
C207 C206 1.363 . S
C207 C210 1.363 . S
N208 C210 1.356 . S
N208 H220 0.984 . S
N208 H221 0.985 . S
N209 C211 1.356 . S
N209 H214 0.984 . S
N209 H215 0.985 . S
C210 C204 1.379 . S
C210 C207 1.363 . S
C210 N208 1.356 . S
C211 C205 1.363 . S
C211 C206 1.379 . S
C211 N209 1.356 . S
N212 C204 1.356 . S
N212 H218 0.984 . S
N212 H219 0.984 . S
N213 C206 1.356 . S
N213 H216 0.984 . S
N213 H217 0.985 . S
H214 N209 0.984 . S
H215 N209 0.985 . S
H216 N213 0.984 . S
H217 N213 0.985 . S
H218 N212 0.984 . S
H219 N212 0.984 . S
H220 N208 0.984 . S
H221 N208 0.985 . S
C222 C223 1.363 . S
C222 C228 1.379 1_655 S
C222 N230 1.356 . S
C223 C222 1.363 . S
C223 C229 1.363 . S
C224 C225 1.363 . S
C224 C229 1.379 1_455 S
C224 N231 1.356 . S
C225 C224 1.363 . S
C225 C228 1.363 . S
N226 C228 1.356 . S
N226 H238 0.981 1_455 S
N226 H239 0.985 . S
N227 C229 1.356 . S
N227 H232 0.984 . S
N227 H233 0.985 . S
C228 C222 1.379 1_455 S
C228 C225 1.363 . S
C228 N226 1.356 . S
C229 C223 1.363 . S
C229 C224 1.379 1_655 S
C229 N227 1.356 . S
N230 C222 1.356 . S
N230 H236 0.984 . S
N230 H237 0.984 . S
N231 C224 1.356 . S
N231 H234 0.984 . S
N231 H235 0.985 . S
H232 N227 0.984 . S
H233 N227 0.985 . S
H234 N231 0.984 . S
H235 N231 0.985 . S
H236 N230 0.984 . S
H237 N230 0.984 . S
H238 N226 0.981 1_655 S
H239 N226 0.985 . S
C240 C241 1.363 1_565 S
C240 C246 1.379 . S
C240 N248 1.356 . S
C241 C240 1.363 1_545 S
C241 C247 1.363 . S
C242 C243 1.363 1_545 S
C242 C247 1.379 . S
C242 N249 1.356 . S
C243 C242 1.363 1_565 S
C243 C246 1.363 . S
N244 C246 1.356 . S
N244 H256 0.984 . S
N244 H257 0.985 . S
N245 C247 1.356 . S
N245 H250 0.984 . S
N245 H251 0.985 . S
C246 C240 1.379 . S
C246 C243 1.363 . S
C246 N244 1.356 . S
C247 C241 1.363 . S
C247 C242 1.379 . S
C247 N245 1.356 . S
N248 C240 1.356 . S
N248 H254 0.984 . S
N248 H255 0.984 . S
N249 C242 1.356 . S
N249 H252 0.984 . S
N249 H253 0.985 . S
H250 N245 0.984 . S
H251 N245 0.985 . S
H252 N249 0.984 . S
H253 N249 0.985 . S
H254 N248 0.984 . S
H255 N248 0.984 . S
H256 N244 0.984 . S
H257 N244 0.985 . S
C258 C259 1.363 . S
C258 C264 1.379 . S
C258 N266 1.356 . S
C259 C258 1.363 . S
C259 C265 1.363 . S
C260 C261 1.363 . S
C260 C265 1.379 . S
C260 N267 1.356 . S
C261 C260 1.363 . S
C261 C264 1.363 . S
N262 C264 1.356 . S
N262 H274 0.984 . S
N262 H275 0.985 . S
N263 C265 1.356 . S
N263 H268 0.984 . S
N263 H269 0.985 . S
C264 C258 1.379 . S
C264 C261 1.363 . S
C264 N262 1.356 . S
C265 C259 1.363 . S
C265 C260 1.379 . S
C265 N263 1.356 . S
N266 C258 1.356 . S
N266 H272 0.984 . S
N266 H273 0.984 . S
N267 C260 1.356 . S
N267 H270 0.984 . S
N267 H271 0.985 . S
H268 N263 0.984 . S
H269 N263 0.985 . S
H270 N267 0.984 . S
H271 N267 0.985 . S
H272 N266 0.984 . S
H273 N266 0.984 . S
H274 N262 0.984 . S
H275 N262 0.985 . S
C276 C277 1.363 1_556 S
C276 C282 1.379 . S
C276 N284 1.356 1_556 S
C277 C276 1.363 1_554 S
C277 C283 1.363 1_554 S
C278 C279 1.363 . S
C278 C283 1.379 . S
C278 N285 1.356 . S
C279 C278 1.363 . S
C279 C282 1.363 . S
N280 C282 1.356 . S
N280 H292 0.984 . S
N280 H293 0.985 . S
N281 C283 1.335 1_554 S
N281 H286 1.029 . S
N281 H287 0.963 1_554 S
C282 C276 1.379 . S
C282 C279 1.363 . S
C282 N280 1.356 . S
C283 C277 1.363 1_556 S
C283 C278 1.379 . S
C283 N281 1.335 1_556 S
N284 C276 1.356 1_554 S
N284 H290 0.984 . S
N284 H291 0.984 . S
N285 C278 1.356 . S
N285 H288 0.984 . S
N285 H289 0.985 . S
H286 N281 1.029 . S
H287 N281 0.963 1_556 S
H288 N285 0.984 . S
H289 N285 0.985 . S
H290 N284 0.984 . S
H291 N284 0.984 . S
H292 N280 0.984 . S
H293 N280 0.985 . S
C294 C295 1.363 . S
C294 C300 1.379 . S
C294 N302 1.356 . S
C295 C294 1.363 . S
C295 C301 1.363 . S
C296 C297 1.363 . S
C296 C301 1.379 . S
C296 N303 1.356 . S
C297 C296 1.363 . S
C297 C300 1.363 . S
N298 C300 1.356 . S
N298 H310 0.984 . S
N298 H311 0.985 . S
N299 C301 1.356 . S
N299 H304 0.984 . S
N299 H305 0.985 . S
C300 C294 1.379 . S
C300 C297 1.363 . S
C300 N298 1.356 . S
C301 C295 1.363 . S
C301 C296 1.379 . S
C301 N299 1.356 . S
N302 C294 1.356 . S
N302 H308 0.984 1_655 S
N302 H309 0.984 1_655 S
N303 C296 1.356 . S
N303 H306 0.984 . S
N303 H307 0.985 . S
H304 N299 0.984 . S
H305 N299 0.985 . S
H306 N303 0.984 . S
H307 N303 0.985 . S
H308 N302 0.984 1_455 S
H309 N302 0.984 1_455 S
H310 N298 0.984 . S
H311 N298 0.985 . S
C312 C313 1.363 . S
C312 C318 1.379 . S
C312 N320 1.356 . S
C313 C312 1.363 . S
C313 C319 1.363 . S
C314 C315 1.363 . S
C314 C319 1.379 . S
C314 N321 1.356 . S
C315 C314 1.363 . S
C315 C318 1.363 . S
N316 C318 1.356 . S
N316 H328 0.984 . S
N316 H329 0.985 . S
N317 C319 1.356 . S
N317 H322 0.984 . S
N317 H323 0.985 . S
C318 C312 1.379 . S
C318 C315 1.363 . S
C318 N316 1.356 . S
C319 C313 1.363 . S
C319 C314 1.379 . S
C319 N317 1.356 . S
N320 C312 1.356 . S
N320 H326 0.984 . S
N320 H327 0.984 . S
N321 C314 1.356 . S
N321 H324 0.984 . S
N321 H325 0.985 . S
H322 N317 0.984 . S
H323 N317 0.985 . S
H324 N321 0.984 . S
H325 N321 0.985 . S
H326 N320 0.984 . S
H327 N320 0.984 . S
H328 N316 0.984 . S
H329 N316 0.985 . S
C330 C331 1.363 . S
C330 C336 1.379 1_554 S
C330 N338 1.356 . S
C331 C330 1.363 . S
C331 C337 1.363 . S
C332 C333 1.389 . S
C332 C337 1.340 1_556 S
C332 N339 1.381 . S
C333 C332 1.389 . S
C333 C336 1.363 . S
N334 C336 1.356 . S
N334 H346 0.984 . S
N334 H347 0.985 . S
N335 C337 1.356 . S
N335 H340 0.984 . S
N335 H341 0.985 . S
C336 C330 1.379 1_556 S
C336 C333 1.363 . S
C336 N334 1.356 . S
C337 C331 1.363 . S
C337 C332 1.340 1_554 S
C337 N335 1.356 . S
N338 C330 1.356 . S
N338 H344 0.984 . S
N338 H345 0.984 . S
N339 C332 1.381 . S
N339 H342 0.984 . S
N339 H343 0.985 . S
H340 N335 0.984 . S
H341 N335 0.985 . S
H342 N339 0.984 . S
H343 N339 0.985 . S
H344 N338 0.984 . S
H345 N338 0.984 . S
H346 N334 0.984 . S
H347 N334 0.985 . S
C348 C349 1.363 . S
C348 C354 1.379 . S
C348 N356 1.356 1_565 S
C349 C348 1.363 . S
C349 C355 1.363 . S
C350 C351 1.363 . S
C350 C355 1.379 . S
C350 N357 1.356 . S
C351 C350 1.363 . S
C351 C354 1.363 . S
N352 C354 1.353 1_545 S
N352 H364 0.992 . S
N352 H365 0.981 1_545 S
N353 C355 1.356 . S
N353 H358 0.984 . S
N353 H359 0.985 . S
C354 C348 1.379 . S
C354 C351 1.363 . S
C354 N352 1.353 1_565 S
C355 C349 1.363 . S
C355 C350 1.379 . S
C355 N353 1.356 . S
N356 C348 1.356 1_545 S
N356 H362 0.984 . S
N356 H363 0.984 . S
N357 C350 1.356 . S
N357 H360 0.984 . S
N357 H361 0.985 . S
H358 N353 0.984 . S
H359 N353 0.985 . S
H360 N357 0.984 . S
H361 N357 0.985 . S
H362 N356 0.984 . S
H363 N356 0.984 . S
H364 N352 0.992 . S
H365 N352 0.981 1_565 S
C366 C367 1.363 . S
C366 C372 1.379 1_545 S
C366 N374 1.356 1_545 S
C367 C366 1.363 . S
C367 C373 1.363 . S
C368 C369 1.363 . S
C368 C373 1.379 . S
C368 N375 1.356 . S
C369 C368 1.363 . S
C369 C372 1.363 1_545 S
N370 C372 1.356 . S
N370 H382 0.984 . S
N370 H383 0.985 . S
N371 C373 1.356 . S
N371 H376 0.984 . S
N371 H377 0.985 . S
C372 C366 1.379 1_565 S
C372 C369 1.363 1_565 S
C372 N370 1.356 . S
C373 C367 1.363 . S
C373 C368 1.379 . S
C373 N371 1.356 . S
N374 C366 1.356 1_565 S
N374 H380 0.984 . S
N374 H381 0.984 1_565 S
N375 C368 1.356 . S
N375 H378 0.984 . S
N375 H379 0.985 . S
H376 N371 0.984 . S
H377 N371 0.985 . S
H378 N375 0.984 . S
H379 N375 0.985 . S
H380 N374 0.984 . S
H381 N374 0.984 1_545 S
H382 N370 0.984 . S
H383 N370 0.985 . S
C384 C385 1.363 . S
C384 C390 1.379 . S
C384 N392 1.356 . S
C385 C384 1.363 . S
C385 C391 1.363 . S
C386 C387 1.363 . S
C386 C391 1.379 . S
C386 N393 1.354 1_655 S
C387 C386 1.363 . S
C387 C390 1.363 . S
N388 C390 1.356 . S
N388 H400 0.984 . S
N388 H401 0.985 . S
N389 C391 1.356 1_455 S
N389 H394 0.984 1_455 S
N389 H395 0.985 . S
C390 C384 1.379 . S
C390 C387 1.363 . S
C390 N388 1.356 . S
C391 C385 1.363 . S
C391 C386 1.379 . S
C391 N389 1.356 1_655 S
N392 C384 1.356 . S
N392 H398 0.984 . S
N392 H399 0.984 . S
N393 C386 1.354 1_455 S
N393 H396 0.985 1_455 S
N393 H397 0.986 . S
H394 N389 0.984 1_655 S
H395 N389 0.985 . S
H396 N393 0.985 1_655 S
H397 N393 0.986 . S
H398 N392 0.984 . S
H399 N392 0.984 . S
H400 N388 0.984 . S
H401 N388 0.985 . S
C402 C403 1.363 . S
C402 C408 1.379 . S
C402 N410 1.356 . S
C403 C402 1.363 . S
C403 C409 1.363 . S
C404 C405 1.363 . S
C404 C409 1.379 . S
C404 N411 1.356 . S
C405 C404 1.363 . S
C405 C408 1.363 . S
N406 C408 1.356 . S
N406 H418 0.984 . S
N406 H419 0.985 . S
N407 C409 1.356 1_565 S
N407 H412 0.984 . S
N407 H413 0.985 . S
C408 C402 1.379 . S
C408 C405 1.363 . S
C408 N406 1.356 . S
C409 C403 1.363 . S
C409 C404 1.379 . S
C409 N407 1.356 1_545 S
N410 C402 1.356 . S
N410 H416 0.984 . S
N410 H417 0.984 . S
N411 C404 1.356 . S
N411 H414 0.984 . S
N411 H415 0.985 1_545 S
H412 N407 0.984 . S
H413 N407 0.985 . S
H414 N411 0.984 . S
H415 N411 0.985 1_565 S
H416 N410 0.984 . S
H417 N410 0.984 . S
H418 N406 0.984 . S
H419 N406 0.985 . S
C420 C421 1.363 . S
C420 C426 1.379 . S
C420 N428 1.356 . S
C421 C420 1.363 . S
C421 C427 1.363 . S
C422 C423 1.363 . S
C422 C427 1.379 . S
C422 N429 1.356 . S
C423 C422 1.363 . S
C423 C426 1.363 . S
N424 C426 1.356 . S
N424 H436 0.984 . S
N424 H437 0.985 . S
N425 C427 1.356 . S
N425 H430 0.984 . S
N425 H431 0.985 . S
C426 C420 1.379 . S
C426 C423 1.363 . S
C426 N424 1.356 . S
C427 C421 1.363 . S
C427 C422 1.379 . S
C427 N425 1.356 . S
N428 C420 1.356 . S
N428 H434 0.984 . S
N428 H435 0.984 . S
N429 C422 1.356 . S
N429 H432 0.984 . S
N429 H433 0.985 . S
H430 N425 0.984 . S
H431 N425 0.985 . S
H432 N429 0.984 . S
H433 N429 0.985 . S
H434 N428 0.984 . S
H435 N428 0.984 . S
H436 N424 0.984 . S
H437 N424 0.985 . S
C438 C439 1.363 . S
C438 C444 1.379 . S
C438 N446 1.356 . S
C439 C438 1.363 . S
C439 C445 1.363 . S
C440 C441 1.363 . S
C440 C445 1.379 . S
C440 N447 1.356 1_565 S
C441 C440 1.363 . S
C441 C444 1.363 . S
N442 C444 1.356 . S
N442 H454 0.984 . S
N442 H455 0.985 . S
N443 C445 1.356 1_545 S
N443 H448 0.984 . S
N443 H449 0.985 . S
C444 C438 1.379 . S
C444 C441 1.363 . S
C444 N442 1.356 . S
C445 C439 1.363 . S
C445 C440 1.379 . S
C445 N443 1.356 1_565 S
N446 C438 1.356 . S
N446 H452 0.984 . S
N446 H453 0.984 . S
N447 C440 1.356 1_545 S
N447 H450 0.984 . S
N447 H451 0.985 . S
H448 N443 0.984 . S
H449 N443 0.985 . S
H450 N447 0.984 . S
H451 N447 0.985 . S
H452 N446 0.984 . S
H453 N446 0.984 . S
H454 N442 0.984 . S
H455 N442 0.985 . S
C456 C457 1.363 . S
C456 C462 1.379 . S
C456 N464 1.356 . S
C457 C456 1.363 . S
C457 C463 1.363 . S
C458 C459 1.363 . S
C458 C463 1.379 . S
C458 N465 1.356 . S
C459 C458 1.363 . S
C459 C462 1.363 . S
N460 C462 1.356 . S
N460 H472 0.984 . S
N460 H473 0.985 . S
N461 C463 1.356 . S
N461 H466 0.984 . S
N461 H467 0.985 . S
C462 C456 1.379 . S
C462 C459 1.363 . S
C462 N460 1.356 . S
C463 C457 1.363 . S
C463 C458 1.379 . S
C463 N461 1.356 . S
N464 C456 1.356 . S
N464 H470 0.984 . S
N464 H471 0.984 . S
N465 C458 1.356 . S
N465 H468 0.984 . S
N465 H469 0.985 . S
H466 N461 0.984 . S
H467 N461 0.985 . S
H468 N465 0.984 . S
H469 N465 0.985 . S
H470 N464 0.984 . S
H471 N464 0.984 . S
H472 N460 0.984 . S
H473 N460 0.985 . S
C474 C475 1.363 . S
C474 C480 1.379 . S
C474 N482 1.356 1_455 S
C475 C474 1.363 . S
C475 C481 1.363 . S
C476 C477 1.363 . S
C476 C481 1.379 . S
C476 N483 1.356 . S
C477 C476 1.363 . S
C477 C480 1.363 . S
N478 C480 1.356 . S
N478 H490 0.984 1_455 S
N478 H491 0.985 . S
N479 C481 1.356 . S
N479 H484 0.984 . S
N479 H485 0.985 . S
C480 C474 1.379 . S
C480 C477 1.363 . S
C480 N478 1.356 . S
C481 C475 1.363 . S
C481 C476 1.379 . S
C481 N479 1.356 . S
N482 C474 1.356 1_655 S
N482 H488 0.984 . S
N482 H489 0.991 1_655 S
N483 C476 1.356 . S
N483 H486 0.984 . S
N483 H487 0.985 . S
H484 N479 0.984 . S
H485 N479 0.985 . S
H486 N483 0.984 . S
H487 N483 0.985 . S
H488 N482 0.984 . S
H489 N482 0.991 1_455 S
H490 N478 0.984 1_655 S
H491 N478 0.985 . S
C492 C493 1.363 . S
C492 C498 1.379 . S
C492 N500 1.357 . S
C493 C492 1.363 . S
C493 C499 1.363 . S
C494 C495 1.363 . S
C494 C499 1.379 1_565 S
C494 N501 1.356 . S
C495 C494 1.363 . S
C495 C498 1.363 1_565 S
N496 C498 1.356 1_565 S
N496 H508 0.984 1_665 S
N496 H509 0.985 . S
N497 C499 1.356 . S
N497 H502 0.984 . S
N497 H503 0.985 . S
C498 C492 1.379 . S
C498 C495 1.363 1_545 S
C498 N496 1.356 1_545 S
C499 C493 1.363 . S
C499 C494 1.379 1_545 S
C499 N497 1.356 . S
N500 C492 1.357 . S
N500 H506 0.975 1_655 S
N500 H507 0.994 . S
N501 C494 1.356 . S
N501 H504 0.984 . S
N501 H505 0.985 . S
H502 N497 0.984 . S
H503 N497 0.985 . S
H504 N501 0.984 . S
H505 N501 0.985 . S
H506 N500 0.975 1_455 S
H507 N500 0.994 . S
H508 N496 0.984 1_445 S
H509 N496 0.985 . S
C510 C511 1.363 . S
C510 C516 1.379 . S
C510 N518 1.356 1_445 S
C511 C510 1.363 . S
C511 C517 1.363 . S
C512 C513 1.363 . S
C512 C517 1.379 . S
C512 N519 1.356 . S
C513 C512 1.363 . S
C513 C516 1.363 . S
N514 C516 1.356 1_565 S
N514 H526 0.984 . S
N514 H527 0.985 . S
N515 C517 1.356 . S
N515 H520 0.984 1_455 S
N515 H521 0.985 . S
C516 C510 1.379 . S
C516 C513 1.363 . S
C516 N514 1.356 1_545 S
C517 C511 1.363 . S
C517 C512 1.379 . S
C517 N515 1.356 . S
N518 C510 1.356 1_665 S
N518 H524 0.984 . S
N518 H525 0.984 . S
N519 C512 1.356 . S
N519 H522 0.984 . S
N519 H523 0.985 . S
H520 N515 0.984 1_655 S
H521 N515 0.985 . S
H522 N519 0.984 . S
H523 N519 0.985 . S
H524 N518 0.984 . S
H525 N518 0.984 . S
H526 N514 0.984 . S
H527 N514 0.985 . S
C528 C529 1.363 . S
C528 C534 1.379 . S
C528 N536 1.356 . S
C529 C528 1.363 . S
C529 C535 1.363 . S
C530 C531 1.363 . S
C530 C535 1.379 1_655 S
C530 N537 1.356 . S
C531 C530 1.363 . S
C531 C534 1.363 1_655 S
N532 C534 1.356 . S
N532 H544 0.984 . S
N532 H545 0.985 1_455 S
N533 C535 1.356 1_545 S
N533 H538 0.984 . S
N533 H539 0.985 . S
C534 C528 1.379 . S
C534 C531 1.363 1_455 S
C534 N532 1.356 . S
C535 C529 1.363 . S
C535 C530 1.379 1_455 S
C535 N533 1.356 1_565 S
N536 C528 1.356 . S
N536 H542 0.984 . S
N536 H543 0.984 1_565 S
N537 C530 1.356 . S
N537 H540 0.984 . S
N537 H541 0.985 . S
H538 N533 0.984 . S
H539 N533 0.985 . S
H540 N537 0.984 . S
H541 N537 0.985 . S
H542 N536 0.984 . S
H543 N536 0.984 1_545 S
H544 N532 0.984 . S
H545 N532 0.985 1_655 S
C546 C547 1.363 . S
C546 C552 1.379 1_655 S
C546 N554 1.356 . S
C547 C546 1.363 . S
C547 C553 1.363 1_655 S
C548 C549 1.363 . S
C548 C553 1.379 . S
C548 N555 1.356 . S
C549 C548 1.363 . S
C549 C552 1.363 . S
N550 C552 1.356 . S
N550 H562 0.984 . S
N550 H563 0.985 . S
N551 C553 1.356 1_655 S
N551 H556 0.984 . S
N551 H557 0.985 . S
C552 C546 1.379 1_455 S
C552 C549 1.363 . S
C552 N550 1.356 . S
C553 C547 1.363 1_455 S
C553 C548 1.379 . S
C553 N551 1.356 1_455 S
N554 C546 1.356 . S
N554 H560 0.984 . S
N554 H561 0.984 . S
N555 C548 1.356 . S
N555 H558 0.984 . S
N555 H559 0.985 . S
H556 N551 0.984 . S
H557 N551 0.985 . S
H558 N555 0.984 . S
H559 N555 0.985 . S
H560 N554 0.984 . S
H561 N554 0.984 . S
H562 N550 0.984 . S
H563 N550 0.985 . S
C564 C565 1.363 1_545 S
C564 C570 1.379 . S
C564 N572 1.356 . S
C565 C564 1.363 1_565 S
C565 C571 1.363 . S
C566 C567 1.363 . S
C566 C571 1.379 1_545 S
C566 N573 1.356 1_655 S
C567 C566 1.363 . S
C567 C570 1.363 . S
N568 C570 1.356 . S
N568 H580 0.984 . S
N568 H581 0.985 1_655 S
N569 C571 1.356 . S
N569 H574 0.984 . S
N569 H575 0.985 . S
C570 C564 1.379 . S
C570 C567 1.363 . S
C570 N568 1.356 . S
C571 C565 1.363 . S
C571 C566 1.379 1_565 S
C571 N569 1.356 . S
N572 C564 1.356 . S
N572 H578 0.984 . S
N572 H579 0.984 1_545 S
N573 C566 1.356 1_455 S
N573 H576 0.984 . S
N573 H577 0.985 . S
H574 N569 0.984 . S
H575 N569 0.985 . S
H576 N573 0.984 . S
H577 N573 0.985 . S
H578 N572 0.984 . S
H579 N572 0.984 1_565 S
H580 N568 0.984 . S
H581 N568 0.985 1_455 S
C582 C583 1.363 . S
C582 C588 1.379 . S
C582 N590 1.356 1_545 S
C583 C582 1.363 . S
C583 C589 1.363 . S
C584 C585 1.363 . S
C584 C589 1.379 . S
C584 N591 1.356 . S
C585 C584 1.363 . S
C585 C588 1.363 . S
N586 C588 1.356 1_655 S
N586 H598 0.984 . S
N586 H599 0.985 1_655 S
N587 C589 1.356 . S
N587 H592 0.984 1_545 S
N587 H593 0.985 . S
C588 C582 1.379 . S
C588 C585 1.363 . S
C588 N586 1.356 1_455 S
C589 C583 1.363 . S
C589 C584 1.379 . S
C589 N587 1.356 . S
N590 C582 1.356 1_565 S
N590 H596 0.983 1_455 S
N590 H597 0.986 . S
N591 C584 1.356 . S
N591 H594 0.984 . S
N591 H595 0.985 . S
H592 N587 0.984 1_565 S
H593 N587 0.985 . S
H594 N591 0.984 . S
H595 N591 0.985 . S
H596 N590 0.983 1_655 S
H597 N590 0.986 . S
H598 N586 0.984 . S
H599 N586 0.985 1_455 S
C169 C162 1.229 . S
C171 C8 1.226 . S
C187 C22 1.724 . S
C189 C92 1.734 . S
C205 C36 1.255 . S
C207 C106 1.255 . S
C223 C50 1.733 . S
C225 C120 1.723 . S
C241 C134 1.226 . S
C243 C64 1.228 . S
C259 C78 2.169 . S
C261 C148 2.169 . S
C277 C7 2.242 . S
C279 C147 2.121 . S
C295 C21 1.941 . S
C297 C161 2.012 . S
C313 C35 1.854 . S
C315 C91 1.774 . S
C331 C49 1.774 . S
C333 C105 1.854 . S
C349 C119 1.941 . S
C351 C63 2.011 . S
C367 C133 2.242 . S
C369 C77 2.121 . S
C385 C48 1.529 . S
C387 C6 1.526 . S
C403 C20 1.511 . S
C405 C62 1.507 . S
C421 C76 1.629 . S
C423 C34 1.620 . S
C439 C132 1.525 . S
C441 C90 1.530 . S
C457 C146 1.630 . S
C459 C104 1.620 . S
C475 C118 1.511 . S
C477 C160 1.507 . S
C493 C9 1.335 . S
C495 C51 1.326 . S
C511 C23 1.324 1_455 S
C513 C65 1.331 . S
C529 C79 1.368 1_565 S
C531 C37 1.382 . S
C547 C93 1.326 . S
C549 C135 1.335 . S
C565 C107 1.382 . S
C567 C149 1.368 1_655 S
C583 C121 1.324 1_545 S
C585 C163 1.331 . S
