# Generated by pormake.
# Topology uki, (4)-cn, num edge types: 1
# Building blocks:
#     Node 0, Type 0, BuildingBlock: KUFVIS_clean_sbu_0, # of connection points: 4
#     Node 1, Type 0, BuildingBlock: KUFVIS_clean_sbu_0, # of connection points: 4
#     Node 2, Type 0, BuildingBlock: KUFVIS_clean_sbu_0, # of connection points: 4
#     Node 3, Type 0, BuildingBlock: KUFVIS_clean_sbu_0, # of connection points: 4
#     Node 4, Type 0, BuildingBlock: KUFVIS_clean_sbu_0, # of connection points: 4
#     Node 5, Type 0, BuildingBlock: KUFVIS_clean_sbu_0, # of connection points: 4
#     Node 6, Type 0, BuildingBlock: KUFVIS_clean_sbu_0, # of connection points: 4
#     Node 7, Type 0, BuildingBlock: KUFVIS_clean_sbu_0, # of connection points: 4
#     Node 8, Type 0, BuildingBlock: KUFVIS_clean_sbu_0, # of connection points: 4
#     Node 9, Type 0, BuildingBlock: KUFVIS_clean_sbu_0, # of connection points: 4
#     Node 10, Type 0, BuildingBlock: KUFVIS_clean_sbu_0, # of connection points: 4
#     Node 11, Type 0, BuildingBlock: KUFVIS_clean_sbu_0, # of connection points: 4
#     Node 12, Type 0, BuildingBlock: KUFVIS_clean_sbu_0, # of connection points: 4
#     Node 13, Type 0, BuildingBlock: KUFVIS_clean_sbu_0, # of connection points: 4
#     Node 14, Type 0, BuildingBlock: KUFVIS_clean_sbu_0, # of connection points: 4
#     Node 15, Type 0, BuildingBlock: KUFVIS_clean_sbu_0, # of connection points: 4
#     Edge 16, Type (0, 0), BuildingBlock: UVAHIK_clean_linker_0, # of connection points: 2
#     Edge 17, Type (0, 0), BuildingBlock: UVAHIK_clean_linker_0, # of connection points: 2
#     Edge 18, Type (0, 0), BuildingBlock: UVAHIK_clean_linker_0, # of connection points: 2
#     Edge 19, Type (0, 0), BuildingBlock: UVAHIK_clean_linker_0, # of connection points: 2
#     Edge 20, Type (0, 0), BuildingBlock: UVAHIK_clean_linker_0, # of connection points: 2
#     Edge 21, Type (0, 0), BuildingBlock: UVAHIK_clean_linker_0, # of connection points: 2
#     Edge 22, Type (0, 0), BuildingBlock: UVAHIK_clean_linker_0, # of connection points: 2
#     Edge 23, Type (0, 0), BuildingBlock: UVAHIK_clean_linker_0, # of connection points: 2
#     Edge 24, Type (0, 0), BuildingBlock: UVAHIK_clean_linker_0, # of connection points: 2
#     Edge 25, Type (0, 0), BuildingBlock: UVAHIK_clean_linker_0, # of connection points: 2
#     Edge 26, Type (0, 0), BuildingBlock: UVAHIK_clean_linker_0, # of connection points: 2
#     Edge 27, Type (0, 0), BuildingBlock: UVAHIK_clean_linker_0, # of connection points: 2
#     Edge 28, Type (0, 0), BuildingBlock: UVAHIK_clean_linker_0, # of connection points: 2
#     Edge 29, Type (0, 0), BuildingBlock: UVAHIK_clean_linker_0, # of connection points: 2
#     Edge 30, Type (0, 0), BuildingBlock: UVAHIK_clean_linker_0, # of connection points: 2
#     Edge 31, Type (0, 0), BuildingBlock: UVAHIK_clean_linker_0, # of connection points: 2
#     Edge 32, Type (0, 0), BuildingBlock: UVAHIK_clean_linker_0, # of connection points: 2
#     Edge 33, Type (0, 0), BuildingBlock: UVAHIK_clean_linker_0, # of connection points: 2
#     Edge 34, Type (0, 0), BuildingBlock: UVAHIK_clean_linker_0, # of connection points: 2
#     Edge 35, Type (0, 0), BuildingBlock: UVAHIK_clean_linker_0, # of connection points: 2
#     Edge 36, Type (0, 0), BuildingBlock: UVAHIK_clean_linker_0, # of connection points: 2
#     Edge 37, Type (0, 0), BuildingBlock: UVAHIK_clean_linker_0, # of connection points: 2
#     Edge 38, Type (0, 0), BuildingBlock: UVAHIK_clean_linker_0, # of connection points: 2
#     Edge 39, Type (0, 0), BuildingBlock: UVAHIK_clean_linker_0, # of connection points: 2
#     Edge 40, Type (0, 0), BuildingBlock: UVAHIK_clean_linker_0, # of connection points: 2
#     Edge 41, Type (0, 0), BuildingBlock: UVAHIK_clean_linker_0, # of connection points: 2
#     Edge 42, Type (0, 0), BuildingBlock: UVAHIK_clean_linker_0, # of connection points: 2
#     Edge 43, Type (0, 0), BuildingBlock: UVAHIK_clean_linker_0, # of connection points: 2
#     Edge 44, Type (0, 0), BuildingBlock: UVAHIK_clean_linker_0, # of connection points: 2
#     Edge 45, Type (0, 0), BuildingBlock: UVAHIK_clean_linker_0, # of connection points: 2
#     Edge 46, Type (0, 0), BuildingBlock: UVAHIK_clean_linker_0, # of connection points: 2
#     Edge 47, Type (0, 0), BuildingBlock: UVAHIK_clean_linker_0, # of connection points: 2
# Relax obj value: 0.139
# Max RMSD: 0.243
# Mean RMSD: 0.243
data_MOF--net-uki--node1-KUFVIS_clean_sbu_0--edge1-UVAHIK_clean_linker_0
_symmetry_space_group_name_H-M    P1
_symmetry_Int_Tables_number       1
_symmetry_cell_setting            triclinic
loop_
_symmetry_equiv_pos_as_xyz
'x, y, z'
_cell_length_a     40.086919
_cell_length_b     40.093709
_cell_length_c     87.779423
_cell_angle_alpha  90.000582
_cell_angle_beta   90.005584
_cell_angle_gamma 90.003588
loop_
_atom_site_label
_atom_site_type_symbol
_atom_site_fract_x
_atom_site_fract_y
_atom_site_fract_z
_atom_type_partial_charge
Mn0 Mn 0.1084 0.20596 0.28535 0.0
Mn1 Mn 0.04916 0.18472 0.31087 0.0
C2 C 0.05378 0.21928 0.28035 0.0
C3 C 0.14966 0.24273 0.27769 0.0
C4 C 0.08006 0.13632 0.28839 0.0
O5 O 0.13468 0.19292 0.30418 0.0
O6 O 0.09323 0.1867 0.3212 0.0
C7 C 0.05128 0.24527 0.33012 0.0
N8 N 0.03372 0.22369 0.32122 0.0
C9 C 0.98305 0.25478 0.32498 0.0
C10 C 0.00054 0.27721 0.33429 0.0
C11 C 0.03481 0.27247 0.33683 0.0
C12 C 0.00079 0.22813 0.31861 0.0
H13 H 0.07766 0.24179 0.33205 0.0
C14 C 0.1242 0.18808 0.3177 0.0
O15 O 0.1502 0.21169 0.27346 0.0
O16 O 0.1256 0.25208 0.28661 0.0
N17 N 0.00494 0.18184 0.30273 0.0
C18 C 0.99175 0.15809 0.29338 0.0
C19 C 0.95773 0.1594 0.28959 0.0
C20 C 0.93752 0.18477 0.29563 0.0
C21 C 0.95144 0.2084 0.30554 0.0
C22 C 0.98545 0.20571 0.30898 0.0
H23 H 0.00706 0.13841 0.28875 0.0
O24 O 0.07582 0.21976 0.26955 0.0
O25 O 0.06473 0.21295 0.29403 0.0
O26 O 0.09751 0.15733 0.28099 0.0
O27 O 0.06304 0.14346 0.30028 0.0
C28 C 0.93299 0.23477 0.31199 0.0
C29 C 0.94881 0.25802 0.32165 0.0
H30 H 0.98794 0.29827 0.33946 0.0
H31 H 0.04851 0.28977 0.34394 0.0
H32 H 0.94715 0.14094 0.28201 0.0
H33 H 0.91137 0.18589 0.29256 0.0
H34 H 0.90668 0.23758 0.30947 0.0
H35 H 0.93444 0.27838 0.32641 0.0
Mn36 Mn 0.20164 0.88787 0.71741 0.0
Mn37 Mn 0.17207 0.94398 0.69211 0.0
C38 C 0.20937 0.94371 0.72198 0.0
C39 C 0.24377 0.8515 0.72464 0.0
C40 C 0.12915 0.90946 0.7158 0.0
O41 O 0.19002 0.85977 0.69893 0.0
O42 O 0.17696 0.89984 0.68204 0.0
C43 C 0.2306 0.94642 0.67159 0.0
N44 N 0.20848 0.96236 0.68085 0.0
C45 C 0.23498 0.0153 0.67633 0.0
C46 C 0.25789 -0.00051 0.66666 0.0
C47 C 0.25573 0.9649 0.66431 0.0
C48 C 0.21047 -0.00441 0.68327 0.0
H49 H 0.22914 0.91981 0.66982 0.0
C50 C 0.18229 0.86932 0.68554 0.0
O51 O 0.21333 0.84726 0.72934 0.0
O52 O 0.24929 0.87612 0.71539 0.0
N53 N 0.16605 0.9881 0.7 0.0
C54 C 0.14196 -0.00042 0.70963 0.0
C55 C 0.14073 0.03369 0.71322 0.0
C56 C 0.16393 0.05573 0.7067 0.0
C57 C 0.18787 0.04351 0.69648 0.0
C58 C 0.18772 0.0093 0.69324 0.0
H59 H 0.12395 0.98286 0.71464 0.0
O60 O 0.21306 0.92215 0.73285 0.0
O61 O 0.20317 0.93181 0.70845 0.0
O62 O 0.1524 0.89368 0.72261 0.0
O63 O 0.13345 0.92695 0.70376 0.0
C64 C 0.21211 0.06387 0.68952 0.0
C65 C 0.23572 0.04975 0.67949 0.0
H66 H 0.27736 0.01364 0.66104 0.0
H67 H 0.27342 0.9525 0.65692 0.0
H68 H 0.12202 0.04295 0.72103 0.0
H69 H 0.16312 0.08197 0.70961 0.0
H70 H 0.21299 0.09037 0.69188 0.0
H71 H 0.25442 0.06562 0.6743 0.0
Mn72 Mn 0.88461 0.78212 0.28943 0.0
Mn73 Mn 0.94418 0.80303 0.31491 0.0
C74 C 0.93904 0.76836 0.28435 0.0
C75 C 0.84267 0.74589 0.282 0.0
C76 C 0.91428 0.85141 0.29215 0.0
O77 O 0.85854 0.79585 0.30818 0.0
O78 O 0.89998 0.80212 0.32517 0.0
C79 C 0.9405 0.74266 0.33423 0.0
N80 N 0.95864 0.76381 0.32535 0.0
C81 C 0.00846 0.73136 0.32911 0.0
C82 C 0.99037 0.70936 0.33839 0.0
C83 C 0.95622 0.71501 0.34093 0.0
C84 C 0.99143 0.75846 0.32273 0.0
H85 H 0.91422 0.74683 0.33615 0.0
C86 C 0.86902 0.80102 0.32166 0.0
O87 O 0.84262 0.77686 0.27766 0.0
O88 O 0.86675 0.73627 0.29086 0.0
N89 N 0.98861 0.80501 0.30695 0.0
C90 C 0.00262 0.82888 0.29792 0.0
C91 C 0.0367 0.82694 0.29431 0.0
C92 C 0.05615 0.80085 0.30023 0.0
C93 C 0.04145 0.77721 0.3099 0.0
C94 C 0.00742 0.78057 0.31318 0.0
H95 H 0.98791 0.84914 0.2934 0.0
O96 O 0.91682 0.7677 0.27363 0.0
O97 O 0.92833 0.77489 0.29806 0.0
O98 O 0.89622 0.83055 0.28494 0.0
O99 O 0.93123 0.84432 0.30408 0.0
C100 C 0.05915 0.75028 0.31629 0.0
C101 C 0.04264 0.72729 0.32584 0.0
H102 H 0.00239 0.68798 0.34357 0.0
H103 H 0.94206 0.69806 0.34802 0.0
H104 H 0.04792 0.84546 0.28695 0.0
H105 H 0.08235 0.79924 0.2973 0.0
H106 H 0.08542 0.74689 0.31386 0.0
H107 H 0.05646 0.70655 0.3306 0.0
Mn108 Mn 0.78401 0.10529 0.71579 0.0
Mn109 Mn 0.81453 0.04873 0.69098 0.0
C110 C 0.77422 0.04954 0.7199 0.0
C111 C 0.74198 0.14234 0.72242 0.0
C112 C 0.85609 0.08244 0.71542 0.0
O113 O 0.7978 0.13328 0.69755 0.0
O114 O 0.81118 0.09289 0.68084 0.0
C115 C 0.75807 0.04697 0.66927 0.0
N116 N 0.77898 0.0308 0.67901 0.0
C117 C 0.75225 0.9782 0.67399 0.0
C118 C 0.73059 0.99425 0.66381 0.0
C119 C 0.73348 0.02879 0.66146 0.0
C120 C 0.77633 -0.0024 0.6814 0.0
H121 H 0.76009 0.07355 0.6675 0.0
C122 C 0.80619 0.12353 0.68427 0.0
O123 O 0.77208 0.14591 0.72768 0.0
O124 O 0.73684 0.11809 0.71294 0.0
N125 N 0.81894 0.00463 0.69913 0.0
C126 C 0.84137 0.99301 0.70953 0.0
C127 C 0.84148 0.95898 0.71332 0.0
C128 C 0.81882 0.93719 0.70626 0.0
C129 C 0.79649 0.94957 0.69534 0.0
C130 C 0.79773 0.98368 0.69193 0.0
H131 H 0.85893 0.00955 0.71498 0.0
O132 O 0.7704 0.07088 0.73085 0.0
O133 O 0.78212 0.06165 0.70662 0.0
O134 O 0.83258 0.09839 0.72193 0.0
O135 O 0.85241 0.06518 0.70328 0.0
C136 C 0.77273 0.9295 0.68787 0.0
C137 C 0.75057 0.94381 0.67723 0.0
H138 H 0.7115 0.98034 0.65781 0.0
H139 H 0.71674 0.04138 0.65369 0.0
H140 H 0.8589 0.9496 0.72171 0.0
H141 H 0.81873 0.91102 0.70934 0.0
H142 H 0.77105 0.90308 0.69034 0.0
H143 H 0.73218 0.92819 0.67168 0.0
Mn144 Mn 0.10138 0.28767 0.9621 0.0
Mn145 Mn 0.04418 0.31895 0.93775 0.0
C146 C 0.04606 0.27424 0.9655 0.0
C147 C 0.14159 0.24817 0.96792 0.0
C148 C 0.07528 0.35842 0.96355 0.0
O149 O 0.12909 0.30564 0.94452 0.0
O150 O 0.08859 0.31827 0.92777 0.0
C151 C 0.04469 0.26536 0.91457 0.0
N152 N 0.0276 0.28474 0.92464 0.0
C153 C 0.97553 0.25897 0.91777 0.0
C154 C 0.99253 0.23889 0.90723 0.0
C155 C 0.02727 0.24204 0.90567 0.0
C156 C 0.99422 0.28177 0.92631 0.0
H157 H 0.0714 0.26768 0.91336 0.0
C158 C 0.11934 0.31463 0.93132 0.0
O159 O 0.14225 0.27772 0.97395 0.0
O160 O 0.11795 0.24186 0.95822 0.0
N161 N -0.00031 0.32114 0.94564 0.0
C162 C 0.98718 0.34151 0.95669 0.0
C163 C 0.95287 0.34094 0.95989 0.0
C164 C 0.93167 0.31986 0.95155 0.0
C165 C 0.94498 0.29965 0.94002 0.0
C166 C 0.97936 0.30139 0.93729 0.0
H167 H 0.00323 0.35795 0.96309 0.0
O168 O 0.06741 0.26989 0.97643 0.0
O169 O 0.05798 0.28471 0.95254 0.0
O170 O 0.09147 0.3346 0.96962 0.0
O171 O 0.05901 0.35583 0.95109 0.0
C172 C 0.92558 0.27731 0.93135 0.0
C173 C 0.94087 0.2569 0.92027 0.0
H174 H 0.9792 0.22082 0.90037 0.0
H175 H 0.04059 0.22652 0.89762 0.0
H176 H 0.94279 0.35668 0.96879 0.0
H177 H 0.90527 0.31924 0.95417 0.0
H178 H 0.89897 0.27528 0.93327 0.0
H179 H 0.92576 0.23951 0.91382 0.0
Mn180 Mn 0.27658 0.8931 0.03118 0.0
Mn181 Mn 0.29431 0.94899 0.0587 0.0
C182 C 0.27127 0.94883 0.02593 0.0
C183 C 0.23754 0.85645 0.0211 0.0
C184 C 0.34688 0.91319 0.03991 0.0
O185 O 0.27989 0.86531 0.05038 0.0
O186 O 0.28392 0.9052 0.06828 0.0
C187 C 0.22779 0.95341 0.07316 0.0
N188 N 0.25402 0.96854 0.06613 0.0
C189 C 0.22764 0.02228 0.06801 0.0
C190 C 0.20044 0.00732 0.07537 0.0
C191 C 0.20049 0.97273 0.07793 0.0
C192 C 0.25417 0.00177 0.06356 0.0
H193 H 0.22769 0.9268 0.07508 0.0
C194 C 0.28081 0.87466 0.06424 0.0
O195 O 0.26925 0.85204 0.01871 0.0
O196 O 0.22889 0.88192 0.02927 0.0
N197 N 0.30481 0.99266 0.05128 0.0
C198 C 0.33266 0.00313 0.04376 0.0
C199 C 0.33625 0.03704 0.04012 0.0
C200 C 0.31142 0.0599 0.04441 0.0
C201 C 0.28335 0.04867 0.05244 0.0
C202 C 0.28124 0.01461 0.05584 0.0
H203 H 0.35191 0.98574 0.04047 0.0
O204 O 0.27222 0.92723 0.01494 0.0
O205 O 0.27147 0.93695 0.03974 0.0
O206 O 0.32734 0.89835 0.03063 0.0
O207 O 0.33697 0.93069 0.05123 0.0
C208 C 0.25716 0.06986 0.057 0.0
C209 C 0.22928 0.05666 0.06474 0.0
H210 H 0.17929 0.02212 0.07902 0.0
H211 H 0.17952 0.96098 0.08353 0.0
H212 H 0.35806 0.04553 0.03397 0.0
H213 H 0.31413 0.08599 0.04145 0.0
H214 H 0.25803 0.09628 0.05447 0.0
H215 H 0.20913 0.07314 0.06804 0.0
Mn216 Mn 0.88778 0.69875 0.9616 0.0
Mn217 Mn 0.94389 0.66479 0.93751 0.0
C218 C 0.94372 0.70608 0.96617 0.0
C219 C 0.85221 0.74218 0.96779 0.0
C220 C 0.90764 0.62578 0.96205 0.0
O221 O 0.85986 0.6855 0.94328 0.0
O222 O 0.90015 0.6693 0.92705 0.0
C223 C 0.94821 0.72039 0.91541 0.0
N224 N 0.96339 0.69923 0.92538 0.0
C225 C 0.01696 0.72425 0.92063 0.0
C226 C 0.00194 0.74613 0.91022 0.0
C227 C 0.96741 0.74422 0.90763 0.0
C228 C -0.00343 0.70096 0.92802 0.0
H229 H 0.92164 0.71917 0.91347 0.0
C230 C 0.86966 0.67584 0.9302 0.0
O231 O 0.84738 0.71236 0.97314 0.0
O232 O 0.87687 0.74631 0.9584 0.0
N233 N 0.98762 0.65901 0.94588 0.0
C234 C -0.00175 0.63621 0.95634 0.0
C235 C 0.03217 0.63497 0.96029 0.0
C236 C 0.05488 0.65687 0.95333 0.0
C237 C 0.04351 0.67951 0.94232 0.0
C238 C 0.00947 0.67937 0.93873 0.0
H239 H 0.98098 0.61924 0.96171 0.0
O240 O 0.92207 0.71134 0.97687 0.0
O241 O 0.9319 0.69837 0.9528 0.0
O242 O 0.89229 0.65024 0.9681 0.0
O243 O 0.9257 0.6281 0.95008 0.0
C244 C 0.06456 0.7025 0.93491 0.0
C245 C 0.05128 0.72492 0.92411 0.0
H246 H 0.01664 0.76463 0.90424 0.0
H247 H 0.95561 0.76115 0.89968 0.0
H248 H 0.04076 0.61728 0.96873 0.0
H249 H 0.08096 0.6561 0.95654 0.0
H250 H 0.09095 0.70335 0.93753 0.0
H251 H 0.06766 0.74269 0.91859 0.0
Mn252 Mn 0.71934 0.103 0.03369 0.0
Mn253 Mn 0.71645 0.04724 0.06245 0.0
C254 C 0.73589 0.04914 0.02919 0.0
C255 C 0.74863 0.14558 0.02189 0.0
C256 C 0.65586 0.0685 0.04408 0.0
O257 O 0.7118 0.1315 0.05244 0.0
O258 O 0.71796 0.09321 0.07092 0.0
C259 C 0.78358 0.05896 0.07541 0.0
N260 N 0.76064 0.03773 0.06933 0.0
C261 C 0.79815 0.99118 0.07174 0.0
C262 C 0.8221 0.0125 0.07814 0.0
C263 C 0.8148 0.04655 0.07994 0.0
C264 C 0.76748 0.00498 0.06745 0.0
H265 H 0.77808 0.08517 0.07677 0.0
C266 C 0.7143 0.12336 0.06641 0.0
O267 O 0.71656 0.14289 0.02009 0.0
O268 O 0.76332 0.12404 0.03059 0.0
N269 N 0.71499 0.00148 0.05623 0.0
C270 C 0.68922 0.98425 0.04983 0.0
C271 C 0.69262 0.9499 0.04713 0.0
C272 C 0.72221 0.93349 0.05126 0.0
C273 C 0.74801 0.95153 0.05822 0.0
C274 C 0.74313 0.98569 0.0607 0.0
H275 H 0.66632 -0.00339 0.0467 0.0
O276 O 0.72955 0.06909 0.01794 0.0
O277 O 0.73448 0.06193 0.04282 0.0
O278 O 0.67088 0.08676 0.03431 0.0
O279 O 0.6703 0.05493 0.05551 0.0
C280 C 0.77855 0.93704 0.06261 0.0
C281 C 0.80364 0.95687 0.06932 0.0
H282 H 0.84623 0.00303 0.08162 0.0
H283 H 0.8332 0.06318 0.08481 0.0
H284 H 0.6725 0.93612 0.04184 0.0
H285 H 0.72486 0.90705 0.04902 0.0
H286 H 0.78311 0.91072 0.06075 0.0
H287 H 0.82713 0.9455 0.07253 0.0
Mn288 Mn 0.60289 0.70152 0.78027 0.0
Mn289 Mn 0.54834 0.66859 0.80537 0.0
C290 C 0.54682 0.7113 0.77719 0.0
C291 C 0.63942 0.74408 0.77377 0.0
C292 C 0.58051 0.62931 0.77975 0.0
O293 O 0.63225 0.68644 0.79782 0.0
O294 O 0.5932 0.67138 0.81491 0.0
C295 C 0.54785 0.72311 0.8281 0.0
N296 N 0.53109 0.70294 0.81824 0.0
C297 C 0.47872 0.72877 0.82457 0.0
C298 C 0.49538 0.74965 0.83489 0.0
C299 C 0.53011 0.74684 0.83663 0.0
C300 C 0.4977 0.70552 0.81642 0.0
H301 H 0.57457 0.72117 0.82941 0.0
C302 C 0.62354 0.67689 0.81109 0.0
O303 O 0.6426 0.71442 0.76799 0.0
O304 O 0.61581 0.74851 0.78367 0.0
N305 N 0.50369 0.66458 0.79782 0.0
C306 C 0.49145 0.64309 0.78716 0.0
C307 C 0.45717 0.64311 0.78387 0.0
C308 C 0.43576 0.66492 0.79169 0.0
C309 C 0.4488 0.68628 0.80285 0.0
C310 C 0.48314 0.68496 0.80572 0.0
H311 H 0.50771 0.6262 0.78112 0.0
O312 O 0.56732 0.71613 0.76599 0.0
O313 O 0.55994 0.70241 0.79014 0.0
O314 O 0.59582 0.65347 0.77343 0.0
O315 O 0.56407 0.63185 0.79218 0.0
C316 C 0.42914 0.70919 0.81106 0.0
C317 C 0.44409 0.73047 0.82189 0.0
H318 H 0.4818 0.76808 0.84144 0.0
H319 H 0.54317 0.76299 0.84451 0.0
H320 H 0.44729 0.62644 0.77529 0.0
H321 H 0.40939 0.66512 0.789 0.0
H322 H 0.40254 0.7109 0.80902 0.0
H323 H 0.42877 0.74823 0.82801 0.0
Mn324 Mn 0.71381 0.39818 0.21432 0.0
Mn325 Mn 0.69082 0.45307 0.18717 0.0
C326 C 0.71683 0.45413 0.21946 0.0
C327 C 0.75525 0.36346 0.22378 0.0
C328 C 0.64186 0.41529 0.20712 0.0
O329 O 0.70993 0.3701 0.19522 0.0
O330 O 0.70211 0.4097 0.17746 0.0
C331 C 0.75577 0.46008 0.17148 0.0
N332 N 0.72957 0.47419 0.17896 0.0
C333 C 0.75375 0.5289 0.1767 0.0
C334 C 0.78088 0.51499 0.16887 0.0
C335 C 0.78192 0.48042 0.16628 0.0
C336 C 0.7284 0.50739 0.18159 0.0
H337 H 0.75672 0.43349 0.16953 0.0
C338 C 0.70708 0.37936 0.18141 0.0
O339 O 0.72398 0.35769 0.22672 0.0
O340 O 0.76212 0.38908 0.21535 0.0
N341 N 0.67912 0.49637 0.19466 0.0
C342 C 0.65124 0.50584 0.20244 0.0
C343 C 0.64651 0.53964 0.20604 0.0
C344 C 0.6702 0.56339 0.20144 0.0
C345 C 0.69822 0.55318 0.1931 0.0
C346 C 0.70147 0.51919 0.18973 0.0
H347 H 0.63285 0.48777 0.20596 0.0
O348 O 0.71812 0.43256 0.23045 0.0
O349 O 0.71597 0.44222 0.20566 0.0
O350 O 0.663 0.40124 0.21591 0.0
O351 O 0.64977 0.43307 0.19556 0.0
C352 C 0.72327 0.57534 0.18816 0.0
C353 C 0.75106 0.56319 0.18001 0.0
H354 H 0.80115 0.53058 0.16488 0.0
H355 H 0.80285 0.46948 0.16031 0.0
H356 H 0.6247 0.54734 0.2124 0.0
H357 H 0.66664 0.58939 0.20438 0.0
H358 H 0.72154 0.60173 0.19069 0.0
H359 H 0.7703 0.58043 0.17639 0.0
Mn360 Mn 0.38192 0.28924 0.78054 0.0
Mn361 Mn 0.43894 0.31968 0.80516 0.0
C362 C 0.43735 0.2773 0.77679 0.0
C363 C 0.34294 0.2485 0.77459 0.0
C364 C 0.40691 0.36053 0.78001 0.0
O365 O 0.35419 0.30554 0.79842 0.0
O366 O 0.39462 0.31802 0.81526 0.0
C367 C 0.43908 0.26447 0.82754 0.0
N368 N 0.45588 0.28445 0.81761 0.0
C369 C 0.50782 0.25697 0.8232 0.0
C370 C 0.49113 0.23627 0.83358 0.0
C371 C 0.4566 0.23999 0.83573 0.0
C372 C 0.48906 0.28096 0.81539 0.0
H373 H 0.41251 0.26714 0.82917 0.0
C374 C 0.3639 0.3141 0.81169 0.0
O375 O 0.34097 0.27821 0.76876 0.0
O376 O 0.36702 0.24287 0.78412 0.0
N377 N 0.48325 0.3226 0.79711 0.0
C378 C 0.49558 0.34425 0.78653 0.0
C379 C 0.5297 0.34351 0.78293 0.0
C380 C 0.55088 0.32085 0.79036 0.0
C381 C 0.5378 0.29938 0.80146 0.0
C382 C 0.50363 0.30143 0.80466 0.0
H383 H 0.47952 0.36184 0.78081 0.0
O384 O 0.416 0.27316 0.76585 0.0
O385 O 0.42535 0.28662 0.7899 0.0
O386 O 0.39072 0.33697 0.77367 0.0
O387 O 0.42355 0.35725 0.79236 0.0
C388 C 0.55724 0.2757 0.80932 0.0
C389 C 0.54225 0.25445 0.82015 0.0
H390 H 0.50453 0.21729 0.83988 0.0
H391 H 0.44351 0.22399 0.84365 0.0
H392 H 0.53962 0.36029 0.7744 0.0
H393 H 0.57712 0.32011 0.78743 0.0
H394 H 0.58369 0.2734 0.80702 0.0
H395 H 0.55739 0.23612 0.82601 0.0
Mn396 Mn 0.27147 0.59471 0.21072 0.0
Mn397 Mn 0.28937 0.54128 0.18217 0.0
C398 C 0.26518 0.53863 0.21481 0.0
C399 C 0.23265 0.63096 0.22124 0.0
C400 C 0.34175 0.57266 0.20264 0.0
O401 O 0.27659 0.62455 0.19226 0.0
O402 O 0.281 0.58646 0.17363 0.0
C403 C 0.2233 0.54124 0.16714 0.0
N404 N 0.24868 0.52425 0.17393 0.0
C405 C 0.22006 0.47197 0.17071 0.0
C406 C 0.19372 0.48887 0.16358 0.0
C407 C 0.19532 0.52366 0.16182 0.0
C408 C 0.24729 0.49081 0.17579 0.0
H409 H 0.22436 0.568 0.16584 0.0
C410 C 0.27825 0.6166 0.17825 0.0
O411 O 0.26431 0.63447 0.22406 0.0
O412 O 0.22394 0.60677 0.2123 0.0
N413 N 0.29811 0.49632 0.18836 0.0
C414 C 0.32588 0.48367 0.19522 0.0
C415 C 0.32825 0.44919 0.19782 0.0
C416 C 0.30235 0.42799 0.19309 0.0
C417 C 0.27455 0.44142 0.18559 0.0
C418 C 0.27369 0.47596 0.18322 0.0
H419 H 0.34599 0.49974 0.19881 0.0
O420 O 0.26545 0.55924 0.22618 0.0
O421 O 0.2661 0.5517 0.20122 0.0
O422 O 0.32205 0.58783 0.21176 0.0
O423 O 0.33209 0.557 0.1907 0.0
C424 C 0.24752 0.42193 0.18049 0.0
C425 C 0.22025 0.4372 0.1731 0.0
H426 H 0.17207 0.47541 0.15948 0.0
H427 H 0.17502 0.5369 0.15639 0.0
H428 H 0.34995 0.439 0.20349 0.0
H429 H 0.30411 0.40145 0.19525 0.0
H430 H 0.24737 0.39519 0.18227 0.0
H431 H 0.19952 0.42198 0.16932 0.0
Mn432 Mn 0.60704 0.78812 0.47288 0.0
Mn433 Mn 0.55016 0.81765 0.44798 0.0
C434 C 0.55162 0.77601 0.47657 0.0
C435 C 0.64617 0.74758 0.47892 0.0
C436 C 0.58188 0.85934 0.47293 0.0
O437 O 0.63486 0.80405 0.45497 0.0
O438 O 0.59454 0.81574 0.43797 0.0
C439 C 0.55024 0.76182 0.42592 0.0
N440 N 0.53335 0.78204 0.43572 0.0
C441 C 0.48148 0.75435 0.43021 0.0
C442 C 0.49827 0.73339 0.41998 0.0
C443 C 0.53281 0.73711 0.41785 0.0
C444 C 0.50016 0.77857 0.43791 0.0
H445 H 0.57681 0.7645 0.42431 0.0
C446 C 0.62525 0.81203 0.44162 0.0
O447 O 0.64801 0.77734 0.48474 0.0
O448 O 0.62202 0.74178 0.46946 0.0
N449 N 0.5058 0.82071 0.45597 0.0
C450 C 0.49339 0.84259 0.46643 0.0
C451 C 0.45925 0.84187 0.47 0.0
C452 C 0.43814 0.819 0.46266 0.0
C453 C 0.45131 0.79727 0.45168 0.0
C454 C 0.4855 0.79931 0.4485 0.0
H455 H 0.50938 0.86035 0.47207 0.0
O456 O 0.57286 0.77222 0.48759 0.0
O457 O 0.56373 0.78511 0.46346 0.0
O458 O 0.59798 0.83603 0.47951 0.0
O459 O 0.56543 0.8556 0.46056 0.0
C460 C 0.43195 0.77336 0.44392 0.0
C461 C 0.44704 0.75186 0.43323 0.0
H462 H 0.48493 0.71423 0.41376 0.0
H463 H 0.54597 0.72092 0.41003 0.0
H464 H 0.44925 0.85885 0.47843 0.0
H465 H 0.41188 0.81829 0.46556 0.0
H466 H 0.4055 0.77108 0.44621 0.0
H467 H 0.43196 0.73335 0.42745 0.0
Mn468 Mn 0.79041 0.38622 0.53221 0.0
Mn469 Mn 0.82309 0.44137 0.55713 0.0
C470 C 0.7837 0.4423 0.52786 0.0
C471 C 0.74698 0.35088 0.52555 0.0
C472 C 0.86349 0.40579 0.53285 0.0
O473 O 0.80254 0.35774 0.55051 0.0
O474 O 0.81741 0.39744 0.56728 0.0
C475 C 0.76599 0.44571 0.57841 0.0
N476 N 0.78801 0.46092 0.56885 0.0
C477 C 0.7635 0.51468 0.57368 0.0
C478 C 0.74072 0.49963 0.58366 0.0
C479 C 0.74194 0.46499 0.58601 0.0
C480 C 0.78693 0.4942 0.56644 0.0
H481 H 0.76671 0.41906 0.58018 0.0
C482 C 0.81111 0.36707 0.56382 0.0
O483 O 0.77698 0.346 0.5204 0.0
O484 O 0.74263 0.37557 0.53488 0.0
N485 N 0.82996 0.48526 0.54911 0.0
C486 C 0.85371 0.49595 0.53911 0.0
C487 C 0.85577 0.52999 0.53547 0.0
C488 C 0.83374 0.55276 0.54229 0.0
C489 C 0.81012 0.54133 0.55285 0.0
C490 C 0.80943 0.50715 0.55614 0.0
H491 H 0.87084 0.47866 0.53387 0.0
O492 O 0.77879 0.42096 0.517 0.0
O493 O 0.79057 0.43008 0.54125 0.0
O494 O 0.83937 0.39083 0.5263 0.0
O495 O 0.86045 0.42315 0.545 0.0
C496 C 0.787 0.56246 0.56013 0.0
C497 C 0.76363 0.54913 0.57049 0.0
H498 H 0.72208 0.51439 0.58952 0.0
H499 H 0.72433 0.45317 0.59364 0.0
H500 H 0.87423 0.53863 0.52739 0.0
H501 H 0.83517 0.57895 0.53934 0.0
H502 H 0.7868 0.58897 0.55775 0.0
H503 H 0.74579 0.56559 0.57591 0.0
Mn504 Mn 0.38492 0.20309 0.46999 0.0
Mn505 Mn 0.44117 0.17225 0.4451 0.0
C506 C 0.44072 0.21321 0.4738 0.0
C507 C 0.34772 0.24494 0.47668 0.0
C508 C 0.40816 0.13107 0.46985 0.0
O509 O 0.35663 0.18902 0.4519 0.0
O510 O 0.39674 0.17497 0.43516 0.0
C511 C 0.44195 0.22804 0.42302 0.0
N512 N 0.45853 0.20756 0.43281 0.0
C513 C 0.51083 0.23443 0.42729 0.0
C514 C 0.49436 0.25565 0.41706 0.0
C515 C 0.45976 0.25247 0.41494 0.0
C516 C 0.49178 0.21048 0.43498 0.0
H517 H 0.41533 0.22579 0.42141 0.0
C518 C 0.36616 0.18016 0.43864 0.0
O519 O 0.34447 0.21488 0.48201 0.0
O520 O 0.37179 0.25019 0.4671 0.0
N521 N 0.48551 0.16842 0.45304 0.0
C522 C 0.49754 0.14648 0.46356 0.0
C523 C 0.53167 0.14675 0.46716 0.0
C524 C 0.55314 0.16927 0.45981 0.0
C525 C 0.54032 0.1911 0.44879 0.0
C526 C 0.50613 0.18951 0.44557 0.0
H527 H 0.48124 0.12905 0.46924 0.0
O528 O 0.41961 0.21704 0.48486 0.0
O529 O 0.42837 0.20502 0.46061 0.0
O530 O 0.39207 0.15464 0.47624 0.0
O531 O 0.42535 0.13457 0.45769 0.0
C532 C 0.56004 0.21472 0.44104 0.0
C533 C 0.54529 0.23642 0.43033 0.0
H534 H 0.50798 0.27462 0.41085 0.0
H535 H 0.44685 0.26887 0.40712 0.0
H536 H 0.54138 0.12972 0.47564 0.0
H537 H 0.57938 0.16965 0.46275 0.0
H538 H 0.58652 0.21665 0.44335 0.0
H539 H 0.56065 0.25471 0.42456 0.0
Mn540 Mn 0.20174 0.60423 0.53475 0.0
Mn541 Mn 0.16888 0.54892 0.55951 0.0
C542 C 0.21068 0.5482 0.53104 0.0
C543 C 0.24464 0.64043 0.52836 0.0
C544 C 0.12926 0.58261 0.53441 0.0
O545 O 0.18761 0.63295 0.55268 0.0
O546 O 0.1725 0.59329 0.56946 0.0
C547 C 0.2241 0.54677 0.58187 0.0
N548 N 0.20344 0.5307 0.57198 0.0
C549 C 0.22904 0.4778 0.57755 0.0
C550 C 0.25041 0.49375 0.5879 0.0
C551 C 0.24796 0.52839 0.59004 0.0
C552 C 0.20567 0.4974 0.56978 0.0
H553 H 0.22244 0.57342 0.58349 0.0
C554 C 0.17835 0.62373 0.56593 0.0
O555 O 0.21487 0.64432 0.52277 0.0
O556 O 0.24898 0.61632 0.538 0.0
N557 N 0.16413 0.50468 0.55156 0.0
C558 C 0.1421 0.49316 0.54095 0.0
C559 C 0.14168 0.45906 0.53731 0.0
C560 C 0.1636 0.43708 0.54473 0.0
C561 C 0.18551 0.44937 0.55584 0.0
C562 C 0.18461 0.48357 0.55909 0.0
H563 H 0.12512 0.50985 0.53522 0.0
O564 O 0.21544 0.56919 0.52002 0.0
O565 O 0.20236 0.5608 0.54417 0.0
O566 O 0.1534 0.59805 0.52813 0.0
O567 O 0.13195 0.56564 0.54669 0.0
C568 C 0.20855 0.42911 0.56367 0.0
C569 C 0.23035 0.44332 0.57449 0.0
H570 H 0.26895 0.47968 0.59417 0.0
H571 H 0.26449 0.5409 0.59794 0.0
H572 H 0.12458 0.44976 0.52877 0.0
H573 H 0.16346 0.41085 0.54177 0.0
H574 H 0.20994 0.40261 0.56134 0.0
H575 H 0.24818 0.42754 0.58032 0.0
C576 C 0.19362 0.25972 0.259 0.0
C577 C 0.17374 0.26721 0.27173 0.0
C578 C 0.21289 0.28461 0.25213 0.0
C579 C 0.22485 0.34875 0.23404 0.0
H580 H 0.26781 0.4184 0.25757 0.0
C581 C 0.23526 0.48448 0.21377 0.0
C582 C 0.26343 0.50293 0.21797 0.0
C583 C 0.23166 0.45159 0.21877 0.0
C584 C 0.25655 0.39893 0.25074 0.0
H585 H 0.1599 0.30584 0.28783 0.0
H586 H 0.1934 0.34906 0.27593 0.0
H587 H 0.25056 0.36719 0.27012 0.0
H588 H 0.30945 0.50267 0.23084 0.0
H589 H 0.30373 0.44489 0.2393 0.0
H590 H 0.23021 0.38094 0.2147 0.0
C591 C 0.19429 0.32409 0.27123 0.0
C592 C 0.24639 0.36972 0.25798 0.0
C593 C 0.17488 0.29938 0.27798 0.0
C594 C 0.28785 0.48841 0.22726 0.0
C595 C 0.28446 0.45552 0.23214 0.0
C596 C 0.23507 0.37802 0.22677 0.0
C597 C 0.21286 0.31719 0.25802 0.0
C598 C 0.22941 0.34486 0.24982 0.0
C599 C 0.25602 0.43695 0.22819 0.0
C600 C 0.25004 0.40384 0.23516 0.0
H601 H 0.19321 0.23507 0.25395 0.0
H602 H 0.22718 0.2786 0.24202 0.0
H603 H 0.21169 0.33005 0.22747 0.0
H604 H 0.21565 0.4958 0.20704 0.0
H605 H 0.20913 0.43819 0.21579 0.0
C606 C 0.49354 0.70589 0.76319 0.0
C607 C 0.51166 0.71995 0.77523 0.0
C608 C 0.4611 0.71657 0.76017 0.0
C609 C 0.38751 0.7356 0.75994 0.0
H610 H 0.37966 0.83159 0.75583 0.0
C611 C 0.26644 0.8063 0.7415 0.0
C612 C 0.27169 0.83125 0.7305 0.0
C613 C 0.29362 0.79004 0.74823 0.0
C614 C 0.38147 0.80474 0.75697 0.0
H615 H 0.51145 0.75713 0.79308 0.0
H616 H 0.45444 0.77602 0.78784 0.0
H617 H 0.43059 0.80772 0.76627 0.0
H618 H 0.30932 0.85763 0.71741 0.0
H619 H 0.35642 0.82935 0.72911 0.0
H620 H 0.33855 0.73282 0.75012 0.0
C621 C 0.46496 0.75622 0.78096 0.0
C622 C 0.41045 0.7911 0.76311 0.0
C623 C 0.49733 0.7453 0.78404 0.0
C624 C 0.30442 0.83869 0.72593 0.0
C625 C 0.33143 0.82268 0.73269 0.0
C626 C 0.35831 0.74933 0.75387 0.0
C627 C 0.44666 0.74218 0.76889 0.0
C628 C 0.41409 0.75638 0.76434 0.0
C629 C 0.32635 0.79875 0.74413 0.0
C630 C 0.35545 0.78398 0.75197 0.0
H631 H 0.50464 0.68684 0.75605 0.0
H632 H 0.44788 0.7058 0.7506 0.0
H633 H 0.38962 0.70875 0.7609 0.0
H634 H 0.24146 0.80004 0.74523 0.0
H635 H 0.2891 0.7716 0.757 0.0
C636 C 0.74645 0.50834 0.21831 0.0
C637 C 0.71896 0.48959 0.22313 0.0
C638 C 0.75067 0.54098 0.22351 0.0
C639 C 0.73031 0.59222 0.25659 0.0
H640 H 0.77259 0.66167 0.23268 0.0
C641 C 0.79654 0.73013 0.26418 0.0
C642 C 0.81777 0.72187 0.27635 0.0
C643 C 0.77596 0.70585 0.25766 0.0
C644 C 0.76015 0.64283 0.23945 0.0
H645 H 0.67485 0.48904 0.2373 0.0
H646 H 0.68164 0.54647 0.24617 0.0
H647 H 0.75169 0.61162 0.22003 0.0
H648 H 0.83283 0.68242 0.29179 0.0
H649 H 0.79718 0.64023 0.28045 0.0
H650 H 0.73939 0.62301 0.27604 0.0
C651 C 0.69988 0.53624 0.23836 0.0
C652 C 0.74856 0.61403 0.23224 0.0
C653 C 0.69587 0.50355 0.23326 0.0
C654 C 0.81682 0.68949 0.28239 0.0
C655 C 0.79617 0.66537 0.27596 0.0
C656 C 0.74181 0.62099 0.26378 0.0
C657 C 0.72764 0.55512 0.23375 0.0
C658 C 0.73459 0.58794 0.24082 0.0
C659 C 0.77608 0.67307 0.26332 0.0
C660 C 0.75795 0.64602 0.25537 0.0
H661 H 0.76511 0.49743 0.21091 0.0
H662 H 0.77272 0.55457 0.22001 0.0
H663 H 0.71984 0.57254 0.26356 0.0
H664 H 0.79673 0.75497 0.25932 0.0
H665 H 0.76054 0.7125 0.24799 0.0
C666 C 0.48703 0.24254 0.78253 0.0
C667 C 0.47228 0.26847 0.77422 0.0
C668 C 0.51925 0.23185 0.77895 0.0
C669 C 0.5737 0.19893 0.76015 0.0
H670 H 0.64511 0.25922 0.74857 0.0
C671 C 0.68142 0.15575 0.72286 0.0
C672 C 0.71384 0.16259 0.72805 0.0
C673 C 0.65399 0.17123 0.72954 0.0
C674 C 0.62547 0.24216 0.75191 0.0
H675 H 0.47825 0.30274 0.75539 0.0
H676 H 0.53481 0.28431 0.74914 0.0
H677 H 0.59352 0.28167 0.7596 0.0
H678 H 0.74313 0.19239 0.74376 0.0
H679 H 0.69478 0.21993 0.75537 0.0
H680 H 0.60511 0.15954 0.75219 0.0
C681 C 0.52202 0.27284 0.75867 0.0
C682 C 0.59599 0.25495 0.75812 0.0
C683 C 0.48972 0.28323 0.76215 0.0
C684 C 0.71841 0.1866 0.73954 0.0
C685 C 0.69082 0.20234 0.74618 0.0
C686 C 0.60294 0.18623 0.75384 0.0
C687 C 0.53697 0.24682 0.76693 0.0
C688 C 0.56964 0.23344 0.76205 0.0
C689 C 0.65836 0.19403 0.7415 0.0
C690 C 0.6288 0.20775 0.74937 0.0
H691 H 0.47341 0.2302 0.79158 0.0
H692 H 0.53017 0.21168 0.78546 0.0
H693 H 0.55373 0.1818 0.76296 0.0
H694 H 0.67704 0.13756 0.71395 0.0
H695 H 0.62923 0.1649 0.72552 0.0
C696 C 0.28885 -0.00038 0.01214 0.0
C697 C 0.2667 0.98405 0.02223 0.0
C698 C 0.28267 0.03201 0.00709 0.0
C699 C 0.23137 0.10709 0.01425 0.0
H700 H 0.23859 0.11942 0.97053 0.0
C701 C 0.18697 0.22769 0.98505 0.0
C702 C 0.16513 0.22204 0.97279 0.0
C703 C 0.20625 0.20166 0.99089 0.0
C704 C 0.23664 0.11641 0.98277 0.0
H705 H 0.21997 0.98864 0.03434 0.0
H706 H 0.20885 0.04544 0.02549 0.0
H707 H 0.25892 0.06803 0.98208 0.0
H708 H 0.14764 0.18529 0.95651 0.0
H709 H 0.18121 0.1399 0.96671 0.0
H710 H 0.20758 0.15482 0.01481 0.0
C711 C 0.23166 0.03325 0.02193 0.0
C712 C 0.24855 0.08715 0.98941 0.0
C713 C 0.23794 0.00086 0.02701 0.0
C714 C 0.16418 0.19037 0.96599 0.0
C715 C 0.18358 0.16442 0.97178 0.0
C716 C 0.21953 0.13642 0.00761 0.0
C717 C 0.2538 0.04901 0.01179 0.0
C718 C 0.24525 0.08183 0.00516 0.0
C719 C 0.20422 0.16961 0.9845 0.0
C720 C 0.22125 0.14096 0.99175 0.0
H721 H 0.31082 0.9866 0.0081 0.0
H722 H 0.3002 0.04356 0.99932 0.0
H723 H 0.22886 0.10378 0.02645 0.0
H724 H 0.18831 0.2519 0.99049 0.0
H725 H 0.22223 0.20641 0.00061 0.0
C726 C 0.21967 0.8091 0.00415 0.0
C727 C 0.21186 0.83382 0.01493 0.0
C728 C 0.19449 0.7887 0.99815 0.0
C729 C 0.1093 0.75913 0.00643 0.0
H730 H 0.0994 0.74998 0.96268 0.0
C731 C -0.0037 0.73742 0.96178 0.0
C732 C 0.97904 0.71198 0.96936 0.0
C733 C 0.02864 0.74592 0.96629 0.0
C734 C 0.10192 0.75227 0.97492 0.0
H735 H 0.17177 0.8563 0.02801 0.0
H736 H 0.12829 0.82101 0.01764 0.0
H737 H 0.1492 0.77705 0.97311 0.0
H738 H 0.98095 0.6759 0.98764 0.0
H739 H 0.03784 0.68992 0.9953 0.0
H740 H 0.06152 0.73625 0.00836 0.0
C741 C 0.15372 0.81707 0.01387 0.0
C742 C 0.13056 0.7674 0.98088 0.0
C743 C 0.17866 0.83749 0.01973 0.0
C744 C 0.99425 0.69522 0.9815 0.0
C745 C 0.02665 0.7034 0.98591 0.0
C746 C 0.0808 0.74412 0.00051 0.0
C747 C 0.16129 0.79249 0.00302 0.0
C748 C 0.13399 0.77184 0.99668 0.0
C749 C 0.04399 0.72931 0.97856 0.0
C750 C 0.07636 0.74125 0.98468 0.0
H751 H 0.24508 0.8058 0.00023 0.0
H752 H 0.20095 0.76988 0.98981 0.0
H753 H 0.1115 0.76185 0.01867 0.0
H754 H 0.98441 0.75135 0.95271 0.0
H755 H 0.041 0.76644 0.96059 0.0
C756 C 0.83797 0.80253 0.96677 0.0
C757 C 0.83314 0.77106 0.97341 0.0
C758 C 0.82459 0.83096 0.97354 0.0
C759 C 0.76403 0.86177 0.00185 0.0
H760 H 0.82555 0.93637 0.00385 0.0
C761 C 0.77657 0.00244 0.02977 0.0
C762 C 0.74501 0.01466 0.02585 0.0
C763 C 0.78638 0.97069 0.025 0.0
C764 C 0.80824 0.91563 0.00359 0.0
H765 H 0.80889 0.74432 0.99182 0.0
H766 H 0.78566 0.79422 0.00376 0.0
H767 H 0.84295 0.88472 0.99174 0.0
H768 H 0.69954 0.00487 0.01336 0.0
H769 H 0.71654 0.94939 0.00494 0.0
H770 H 0.72942 0.89283 0.01388 0.0
C771 C 0.79969 0.79684 0.99328 0.0
C772 C 0.81801 0.88622 0.99643 0.0
C773 C 0.813 0.76829 0.98645 0.0
C774 C 0.72366 0.9953 0.01683 0.0
C775 C 0.73333 0.96358 0.01211 0.0
C776 C 0.75423 0.89128 0.00905 0.0
C777 C 0.80626 0.82853 0.98714 0.0
C778 C 0.79584 0.85918 0.99526 0.0
C779 C 0.76489 0.95103 0.01604 0.0
C780 C 0.77612 0.91865 0.00979 0.0
H781 H 0.85309 0.80538 0.95663 0.0
H782 H 0.82933 0.85499 0.96833 0.0
H783 H 0.74645 0.84131 0.00114 0.0
H784 H 0.79376 0.01762 0.0363 0.0
H785 H 0.81085 0.96163 0.0282 0.0
C786 C 0.79453 0.18679 0.02138 0.0
C787 C 0.76867 0.17036 0.01369 0.0
C788 C 0.81828 0.20493 0.01326 0.0
C789 C 0.8665 0.1964 0.98091 0.0
H790 H 0.89495 0.28787 0.98687 0.0
C791 C 0.99431 0.24293 0.95892 0.0
C792 C 0.01091 0.26608 0.96815 0.0
C793 C 0.96109 0.23455 0.96193 0.0
C794 C 0.88755 0.26216 0.98518 0.0
H795 H 0.74635 0.16058 0.99168 0.0
H796 H 0.78916 0.19132 0.97729 0.0
H797 H 0.84115 0.26954 0.99692 0.0
H798 H 0.0076 0.29636 0.98846 0.0
H799 H 0.95019 0.28113 0.99412 0.0
H800 H 0.91376 0.18781 0.97045 0.0
C801 C 0.79031 0.1909 0.98962 0.0
C802 C 0.85655 0.25192 0.99075 0.0
C803 C 0.76589 0.17354 0.99782 0.0
C804 C 0.99472 0.27926 0.98092 0.0
C805 C 0.96171 0.27075 0.98403 0.0
C806 C 0.89783 0.20638 0.97566 0.0
C807 C 0.81703 0.20606 0.99731 0.0
C808 C 0.84617 0.21881 0.98892 0.0
C809 C 0.94423 0.2486 0.97447 0.0
C810 C 0.90919 0.23916 0.97813 0.0
H811 H 0.7972 0.18437 0.03362 0.0
H812 H 0.83893 0.21615 0.01937 0.0
H813 H 0.85907 0.17058 0.97959 0.0
H814 H 0.00696 0.23151 0.94934 0.0
H815 H 0.94859 0.21742 0.9543 0.0
C816 C 0.65279 0.80469 0.77388 0.0
C817 C 0.6595 0.77253 0.76834 0.0
C818 C 0.66828 0.8324 0.76744 0.0
C819 C 0.73909 0.86153 0.74501 0.0
H820 H 0.67896 0.93398 0.73473 0.0
C821 C 0.73927 -9e-05 0.71446 0.0
C822 C 0.76558 0.01461 0.72254 0.0
C823 C 0.72859 0.96777 0.71817 0.0
C824 C 0.69601 0.91382 0.73734 0.0
H825 H 0.68905 0.74395 0.75226 0.0
H826 H 0.71656 0.79275 0.74108 0.0
H827 H 0.65663 0.88258 0.74544 0.0
H828 H 0.8006 0.00859 0.74108 0.0
H829 H 0.78218 0.95212 0.74754 0.0
H830 H 0.77859 0.89326 0.73712 0.0
C831 C 0.6991 0.79632 0.75035 0.0
C832 C 0.68329 0.88458 0.74363 0.0
C833 C 0.68335 0.76847 0.75674 0.0
C834 C 0.78079 -0.00284 0.73449 0.0
C835 C 0.77039 0.96492 0.7381 0.0
C836 C 0.75191 0.89101 0.73882 0.0
C837 C 0.69097 0.82855 0.7554 0.0
C838 C 0.70473 0.85841 0.74777 0.0
C839 C 0.74392 0.95008 0.7301 0.0
C840 C 0.73048 0.91757 0.73514 0.0
H841 H 0.6347 0.80866 0.78286 0.0
H842 H 0.66207 0.85697 0.77172 0.0
H843 H 0.75609 0.84165 0.7481 0.0
H844 H 0.72658 0.01353 0.70552 0.0
H845 H 0.70809 0.95691 0.71184 0.0
C846 C 0.00276 0.20936 0.26525 0.0
C847 C 0.01912 0.22738 0.2767 0.0
C848 C 0.97093 0.21871 0.26051 0.0
C849 C 0.91763 0.25922 0.2449 0.0
H850 H 0.85034 0.29516 0.27208 0.0
C851 C 0.81489 0.34663 0.22428 0.0
C852 C 0.78233 0.34239 0.22983 0.0
C853 C 0.84116 0.32808 0.23024 0.0
C854 C 0.86871 0.28474 0.26439 0.0
H855 H 0.01661 0.27031 0.29156 0.0
H856 H 0.96076 0.28715 0.28317 0.0
H857 H 0.90122 0.27054 0.28268 0.0
H858 H 0.75159 0.31519 0.24591 0.0
H859 H 0.79799 0.28265 0.25651 0.0
H860 H 0.88554 0.27377 0.22662 0.0
C861 C 0.97189 0.26498 0.27829 0.0
C862 C 0.89793 0.271 0.27043 0.0
C863 C 0.00374 0.25544 0.2831 0.0
C864 C 0.77646 0.31889 0.24141 0.0
C865 C 0.80296 0.30045 0.24751 0.0
C866 C 0.88857 0.273 0.23888 0.0
C867 C 0.95527 0.24683 0.26685 0.0
C868 C 0.92293 0.25864 0.26072 0.0
C869 C 0.83556 0.30494 0.24197 0.0
C870 C 0.86416 0.28654 0.24854 0.0
H871 H 0.01466 0.188 0.25999 0.0
H872 H 0.95871 0.20414 0.25175 0.0
H873 H 0.93651 0.2502 0.2371 0.0
H874 H 0.82023 0.36453 0.21536 0.0
H875 H 0.86608 0.33244 0.2259 0.0
C876 C 0.19584 0.99414 0.7369 0.0
C877 C 0.21453 0.97905 0.72532 0.0
C878 C 0.20285 0.02671 0.74144 0.0
C879 C 0.2392 0.08343 0.75659 0.0
H880 H 0.27322 0.15102 0.72908 0.0
C881 C 0.32295 0.18989 0.77677 0.0
C882 C 0.32028 0.22139 0.7699 0.0
C883 C 0.30412 0.16313 0.77144 0.0
C884 C 0.26323 0.13264 0.73689 0.0
H885 H 0.25629 0.98471 0.70996 0.0
H886 H 0.26927 0.04167 0.71807 0.0
H887 H 0.25054 0.0992 0.71875 0.0
H888 H 0.2949 0.24992 0.75239 0.0
H889 H 0.26165 0.20294 0.7431 0.0
H890 H 0.2519 0.11668 0.77471 0.0
C891 C 0.2482 0.02904 0.72319 0.0
C892 C 0.25065 0.1028 0.73098 0.0
C893 C 0.24089 -0.00348 0.71855 0.0
C894 C 0.2975 0.22588 0.7579 0.0
C895 C 0.27864 0.19898 0.75252 0.0
C896 C 0.25163 0.11324 0.76247 0.0
C897 C 0.22944 0.04438 0.7348 0.0
C898 C 0.23923 0.07756 0.7408 0.0
C899 C 0.28212 0.16722 0.75912 0.0
C900 C 0.2646 0.1378 0.75272 0.0
H901 H 0.17579 0.98066 0.74244 0.0
H902 H 0.18774 0.03788 0.7503 0.0
H903 H 0.23089 0.06445 0.7645 0.0
H904 H 0.34029 0.18561 0.78603 0.0
H905 H 0.30777 0.1389 0.77664 0.0
C906 C 0.99023 0.73348 0.28611 0.0
C907 C 0.97385 0.76171 0.28043 0.0
C908 C 0.02212 0.7253 0.28085 0.0
C909 C 0.0955 0.72072 0.27198 0.0
H910 H 0.1061 0.72534 0.22811 0.0
C911 C 0.2143 0.67395 0.24034 0.0
C912 C 0.207 0.65271 0.22804 0.0
C913 C 0.18886 0.69255 0.24725 0.0
C914 C 0.1036 0.72405 0.24038 0.0
H915 H 0.97664 0.80291 0.26458 0.0
H916 H 0.03271 0.78938 0.25568 0.0
H917 H 0.05571 0.74711 0.23978 0.0
H918 H 0.16771 0.63493 0.21309 0.0
H919 H 0.12377 0.66713 0.22503 0.0
H920 H 0.1429 0.69592 0.27235 0.0
C921 C 0.02123 0.77347 0.26415 0.0
C922 C 0.07486 0.73683 0.24711 0.0
C923 C 0.98931 0.78137 0.26929 0.0
C924 C 0.17416 0.65104 0.22255 0.0
C925 C 0.14897 0.6697 0.22933 0.0
C926 C 0.12436 0.70782 0.26521 0.0
C927 C 0.03784 0.74508 0.2697 0.0
C928 C 0.07011 0.73466 0.26294 0.0
C929 C 0.15592 0.69046 0.24181 0.0
C930 C 0.12822 0.70858 0.2493 0.0
H931 H 0.97808 0.71741 0.29434 0.0
H932 H 0.03394 0.70289 0.28512 0.0
H933 H 0.09274 0.71913 0.28423 0.0
H934 H 0.23942 0.67562 0.24482 0.0
H935 H 0.19488 0.70847 0.25683 0.0
C936 C 0.75302 0.49526 0.53211 0.0
C937 C 0.77863 0.47777 0.52479 0.0
C938 C 0.74574 0.52802 0.52785 0.0
C939 C 0.75309 0.58369 0.49477 0.0
H940 H 0.72005 0.64987 0.52323 0.0
C941 C 0.66682 0.68934 0.47637 0.0
C942 C 0.66928 0.72069 0.4834 0.0
C943 C 0.6864 0.66279 0.48133 0.0
C944 C 0.72978 0.63191 0.51515 0.0
H945 H 0.81611 0.47961 0.5071 0.0
H946 H 0.80431 0.53729 0.49991 0.0
H947 H 0.7437 0.59786 0.53285 0.0
H948 H 0.69495 0.74919 0.50082 0.0
H949 H 0.72953 0.70255 0.50948 0.0
H950 H 0.73918 0.61755 0.47709 0.0
C951 C 0.7897 0.52594 0.5089 0.0
C952 C 0.74292 0.60194 0.52066 0.0
C953 C 0.79664 0.4931 0.51305 0.0
C954 C 0.69251 0.72526 0.49521 0.0
C955 C 0.71214 0.69856 0.50022 0.0
C956 C 0.74016 0.61364 0.48929 0.0
C957 C 0.76383 0.54365 0.51609 0.0
C958 C 0.75388 0.57713 0.5105 0.0
C959 C 0.70898 0.66694 0.49343 0.0
C960 C 0.72744 0.63765 0.49939 0.0
H961 H 0.73813 0.4833 0.54085 0.0
H962 H 0.72518 0.54064 0.53339 0.0
H963 H 0.76104 0.56509 0.4866 0.0
H964 H 0.64916 0.685 0.46725 0.0
H965 H 0.68292 0.63866 0.47602 0.0
C966 C 0.72229 0.30621 0.50901 0.0
C967 C 0.71828 0.33117 0.52011 0.0
C968 C 0.69438 0.29041 0.50271 0.0
C969 C 0.60607 0.30642 0.49542 0.0
H970 H 0.59718 0.21068 0.49059 0.0
C971 C 0.4935 0.20784 0.48822 0.0
C972 C 0.47562 0.22234 0.47621 0.0
C973 C 0.52576 0.21864 0.49154 0.0
C974 C 0.59946 0.23747 0.49183 0.0
H975 H 0.6821 0.35805 0.53381 0.0
H976 H 0.63368 0.33054 0.52286 0.0
H977 H 0.64887 0.23395 0.5011 0.0
H978 H 0.47595 0.26052 0.45881 0.0
H979 H 0.53263 0.27963 0.46459 0.0
H980 H 0.55656 0.3101 0.48659 0.0
C981 C 0.65827 0.32351 0.51887 0.0
C982 C 0.62903 0.25074 0.49774 0.0
C983 C 0.68604 0.33909 0.52521 0.0
C984 C 0.48991 0.24836 0.4678 0.0
C985 C 0.52209 0.25941 0.4712 0.0
C986 C 0.57672 0.29323 0.48944 0.0
C987 C 0.66211 0.29956 0.50734 0.0
C988 C 0.63224 0.28529 0.49991 0.0
C989 C 0.54023 0.24478 0.48318 0.0
C990 C 0.57286 0.25861 0.48786 0.0
H991 H 0.74687 0.29958 0.50487 0.0
H992 H 0.69796 0.27198 0.49383 0.0
H993 H 0.60812 0.3332 0.49676 0.0
H994 H 0.4824 0.18826 0.49506 0.0
H995 H 0.53888 0.2074 0.50103 0.0
C996 C 0.20408 0.49564 0.51658 0.0
C997 C 0.21885 0.51305 0.52866 0.0
C998 C 0.21437 0.46328 0.51312 0.0
C999 C 0.23287 0.38941 0.51223 0.0
H1000 H 0.32853 0.38135 0.5067 0.0
C1001 C 0.30287 0.26801 0.49362 0.0
C1002 C 0.32719 0.27291 0.48229 0.0
C1003 C 0.28668 0.29536 0.50022 0.0
C1004 C 0.30177 0.38323 0.50822 0.0
H1005 H 0.25684 0.51166 0.54615 0.0
H1006 H 0.27509 0.45482 0.54011 0.0
H1007 H 0.30552 0.43223 0.51762 0.0
H1008 H 0.35236 0.31006 0.46845 0.0
H1009 H 0.32425 0.35751 0.47996 0.0
H1010 H 0.22931 0.34048 0.50241 0.0
C1011 C 0.25503 0.46582 0.53355 0.0
C1012 C 0.28864 0.41217 0.51463 0.0
C1013 C 0.24448 0.4981 0.53709 0.0
C1014 C 0.33393 0.30544 0.47723 0.0
C1015 C 0.318 0.33265 0.48387 0.0
C1016 C 0.2461 0.36021 0.50592 0.0
C1017 C 0.24029 0.44825 0.52143 0.0
C1018 C 0.25404 0.41583 0.51641 0.0
C1019 C 0.29484 0.32794 0.49567 0.0
C1020 C 0.28061 0.35727 0.50354 0.0
H1021 H 0.1848 0.50724 0.50974 0.0
H1022 H 0.20304 0.4506 0.50353 0.0
H1023 H 0.2061 0.39158 0.51359 0.0
H1024 H 0.29714 0.24319 0.49773 0.0
H1025 H 0.26884 0.29114 0.50928 0.0
C1026 C 0.50254 0.74057 0.47071 0.0
C1027 C 0.51677 0.76677 0.47902 0.0
C1028 C 0.47032 0.72962 0.47412 0.0
C1029 C 0.41528 0.6966 0.4925 0.0
H1030 H 0.3431 0.75669 0.50325 0.0
C1031 C 0.30539 0.6531 0.52845 0.0
C1032 C 0.27327 0.66031 0.52297 0.0
C1033 C 0.33324 0.66845 0.52208 0.0
C1034 C 0.36297 0.73968 0.50015 0.0
H1035 H 0.50992 0.80125 0.49771 0.0
H1036 H 0.45335 0.78235 0.50366 0.0
H1037 H 0.39514 0.77926 0.49275 0.0
H1038 H 0.24495 0.69052 0.50706 0.0
H1039 H 0.29402 0.71779 0.49599 0.0
H1040 H 0.38359 0.65712 0.50012 0.0
C1041 C 0.46655 0.77086 0.49426 0.0
C1042 C 0.3927 0.75255 0.49424 0.0
C1043 C 0.49885 0.78152 0.49095 0.0
C1044 C 0.26943 0.68446 0.51149 0.0
C1045 C 0.29743 0.70005 0.50516 0.0
C1046 C 0.38577 0.68382 0.4985 0.0
C1047 C 0.45209 0.7446 0.48597 0.0
C1048 C 0.4193 0.73112 0.4906 0.0
C1049 C 0.3296 0.69147 0.51015 0.0
C1050 C 0.35961 0.70526 0.50266 0.0
H1051 H 0.51653 0.72825 0.46178 0.0
H1052 H 0.45978 0.70928 0.46758 0.0
H1053 H 0.43544 0.67953 0.48991 0.0
H1054 H 0.3092 0.63478 0.53735 0.0
H1055 H 0.35776 0.6619 0.52633 0.0
C1056 C 0.30666 0.18053 0.42961 0.0
C1057 C 0.34087 0.17707 0.42641 0.0
C1058 C 0.28312 0.17932 0.41788 0.0
C1059 C 0.27522 0.19363 0.3768 0.0
H1060 H 0.19204 0.14505 0.38079 0.0
C1061 C 0.18319 0.18133 0.32674 0.0
C1062 C 0.14905 0.1845 0.33008 0.0
C1063 C 0.20662 0.1786 0.33845 0.0
C1064 C 0.215 0.15903 0.37956 0.0
H1065 H 0.377 0.16897 0.40832 0.0
H1066 H 0.33593 0.16684 0.38795 0.0
H1067 H 0.23274 0.14353 0.40148 0.0
H1068 H 0.1128 0.18724 0.34843 0.0
H1069 H 0.1537 0.18312 0.36881 0.0
H1070 H 0.25745 0.20964 0.35504 0.0
C1071 C 0.32739 0.17076 0.39953 0.0
C1072 C 0.2383 0.1581 0.3914 0.0
C1073 C 0.3509 0.17179 0.41124 0.0
C1074 C 0.13888 0.18465 0.34542 0.0
C1075 C 0.16233 0.1821 0.35712 0.0
C1076 C 0.2519 0.19471 0.36501 0.0
C1077 C 0.29331 0.17483 0.4027 0.0
C1078 C 0.26864 0.17539 0.39013 0.0
C1079 C 0.19649 0.17917 0.35378 0.0
C1080 C 0.22149 0.17745 0.36624 0.0
H1081 H 0.29804 0.18461 0.44116 0.0
H1082 H 0.25701 0.18278 0.42063 0.0
H1083 H 0.29818 0.20764 0.3756 0.0
H1084 H 0.19191 0.1809 0.31506 0.0
H1085 H 0.2327 0.17586 0.33547 0.0
C1086 C 0.17779 0.68342 0.57464 0.0
C1087 C 0.17553 0.64923 0.57808 0.0
C1088 C 0.17661 0.70725 0.58626 0.0
C1089 C 0.19332 0.71719 0.62702 0.0
H1090 H 0.14012 0.79755 0.62337 0.0
C1091 C 0.1796 0.80976 0.67685 0.0
C1092 C 0.17987 0.84396 0.67332 0.0
C1093 C 0.1777 0.78591 0.66527 0.0
C1094 C 0.15543 0.77543 0.62449 0.0
H1095 H 0.16985 0.61339 0.59647 0.0
H1096 H 0.16789 0.65497 0.61664 0.0
H1097 H 0.13931 0.75631 0.60291 0.0
H1098 H 0.17853 0.87985 0.65481 0.0
H1099 H 0.17596 0.83831 0.63467 0.0
H1100 H 0.21001 0.73639 0.64841 0.0
C1101 C 0.17073 0.66327 0.60497 0.0
C1102 C 0.15488 0.75181 0.61279 0.0
C1103 C 0.17164 0.63948 0.59337 0.0
C1104 C 0.17813 0.85373 0.65796 0.0
C1105 C 0.17647 0.82989 0.64639 0.0
C1106 C 0.19407 0.74089 0.63866 0.0
C1107 C 0.17345 0.69737 0.60155 0.0
C1108 C 0.17379 0.72244 0.61395 0.0
C1109 C 0.17629 0.79568 0.6499 0.0
C1110 C 0.17513 0.77031 0.63755 0.0
H1111 H 0.18077 0.69183 0.56299 0.0
H1112 H 0.17899 0.73338 0.58331 0.0
H1113 H 0.20854 0.69499 0.62812 0.0
H1114 H 0.18069 0.80134 0.68856 0.0
H1115 H 0.17707 0.75979 0.66841 0.0
C1116 C 0.68487 0.81275 0.43282 0.0
C1117 C 0.65067 0.8156 0.42947 0.0
C1118 C 0.70859 0.81401 0.42116 0.0
C1119 C 0.71717 0.79836 0.38023 0.0
H1120 H 0.80035 0.84695 0.38423 0.0
C1121 C 0.81003 0.80869 0.33049 0.0
C1122 C 0.84411 0.80535 0.33396 0.0
C1123 C 0.78646 0.81201 0.3421 0.0
C1124 C 0.77738 0.83298 0.383 0.0
H1125 H 0.61474 0.82285 0.41123 0.0
H1126 H 0.65614 0.82511 0.391 0.0
H1127 H 0.7592 0.84931 0.40471 0.0
H1128 H 0.88008 0.80301 0.35243 0.0
H1129 H 0.83889 0.8082 0.37265 0.0
H1130 H 0.73539 0.78151 0.35869 0.0
C1131 C 0.66453 0.82158 0.40262 0.0
C1132 C 0.75382 0.83439 0.39472 0.0
C1133 C 0.64083 0.82048 0.41425 0.0
C1134 C 0.85407 0.8057 0.34932 0.0
C1135 C 0.83046 0.80886 0.36094 0.0
C1136 C 0.74074 0.79681 0.36856 0.0
C1137 C 0.6986 0.81796 0.40593 0.0
C1138 C 0.72348 0.81708 0.39345 0.0
C1139 C 0.79637 0.81187 0.35746 0.0
C1140 C 0.77114 0.81408 0.36981 0.0
H1141 H 0.69336 0.80899 0.4444 0.0
H1142 H 0.73469 0.81089 0.42403 0.0
H1143 H 0.69425 0.78429 0.37904 0.0
H1144 H 0.80147 0.80877 0.31878 0.0
H1145 H 0.76046 0.81483 0.33901 0.0
C1146 C 0.81233 0.13845 0.6567 0.0
C1147 C 0.80934 0.14866 0.67198 0.0
C1148 C 0.81406 0.16194 0.64501 0.0
C1149 C 0.83442 0.24932 0.63681 0.0
H1150 H 0.77825 0.23616 0.60133 0.0
C1151 C 0.81567 0.35157 0.5914 0.0
C1152 C 0.81307 0.34172 0.57606 0.0
C1153 C 0.8165 0.3278 0.60301 0.0
C1154 C 0.79449 0.23998 0.61104 0.0
H1155 H 0.80641 0.19173 0.68691 0.0
H1156 H 0.80959 0.23277 0.66641 0.0
H1157 H 0.77764 0.19516 0.6218 0.0
H1158 H 0.80997 0.29903 0.56093 0.0
H1159 H 0.81216 0.25757 0.58117 0.0
H1160 H 0.85154 0.29397 0.62601 0.0
C1161 C 0.81065 0.2065 0.66356 0.0
C1162 C 0.79405 0.21652 0.62278 0.0
C1163 C 0.80865 0.18298 0.67528 0.0
C1164 C 0.81175 0.30751 0.57261 0.0
C1165 C 0.81283 0.28372 0.58424 0.0
C1166 C 0.83506 0.27268 0.625 0.0
C1167 C 0.81307 0.19619 0.6483 0.0
C1168 C 0.81392 0.221 0.6358 0.0
C1169 C 0.81498 0.29359 0.59958 0.0
C1170 C 0.815 0.26836 0.61199 0.0
H1171 H 0.81291 0.11224 0.65371 0.0
H1172 H 0.81628 0.1533 0.63336 0.0
H1173 H 0.8503 0.25317 0.64664 0.0
H1174 H 0.81649 0.37771 0.59449 0.0
H1175 H 0.81762 0.33632 0.61471 0.0
C1176 C 0.17891 0.31836 0.92252 0.0
C1177 C 0.1446 0.31954 0.9192 0.0
C1178 C 0.20252 0.32102 0.91086 0.0
C1179 C 0.21192 0.3059 0.86998 0.0
H1180 H 0.29164 0.36007 0.87364 0.0
C1181 C 0.30435 0.31937 0.82019 0.0
C1182 C 0.33851 0.31855 0.82378 0.0
C1183 C 0.28045 0.32215 0.8317 0.0
C1184 C 0.26967 0.34455 0.87251 0.0
H1185 H 0.10832 0.32518 0.90098 0.0
H1186 H 0.14948 0.32973 0.88074 0.0
H1187 H 0.25062 0.35994 0.89422 0.0
H1188 H 0.37428 0.32031 0.84235 0.0
H1189 H 0.33264 0.3244 0.86238 0.0
H1190 H 0.2311 0.28982 0.8485 0.0
C1191 C 0.15807 0.32653 0.89235 0.0
C1192 C 0.24618 0.34455 0.88428 0.0
C1193 C 0.1345 0.32411 0.90399 0.0
C1194 C 0.3482 0.32106 0.83914 0.0
C1195 C 0.3243 0.32359 0.85065 0.0
C1196 C 0.23547 0.3057 0.85828 0.0
C1197 C 0.19228 0.32464 0.89563 0.0
C1198 C 0.21709 0.32521 0.88312 0.0
C1199 C 0.29012 0.32391 0.84708 0.0
C1200 C 0.26467 0.32498 0.85939 0.0
H1201 H 0.18758 0.31491 0.9341 0.0
H1202 H 0.22875 0.31927 0.9137 0.0
H1203 H 0.18997 0.29033 0.86888 0.0
H1204 H 0.296 0.31775 0.80847 0.0
H1205 H 0.25435 0.32291 0.82852 0.0
C1206 C 0.27659 0.63606 0.1511 0.0
C1207 C 0.27689 0.64361 0.16675 0.0
C1208 C 0.27558 0.66154 0.14026 0.0
C1209 C 0.29454 0.75058 0.13508 0.0
H1210 H 0.23774 0.74218 0.09952 0.0
C1211 C 0.27812 0.85767 0.09175 0.0
C1212 C 0.2784 0.8488 0.07625 0.0
C1213 C 0.27657 0.83313 0.10303 0.0
C1214 C 0.25397 0.74475 0.10932 0.0
H1215 H 0.2761 0.68403 0.18323 0.0
H1216 H 0.2742 0.72836 0.16429 0.0
H1217 H 0.23777 0.69826 0.11874 0.0
H1218 H 0.27702 0.80701 0.0605 0.0
H1219 H 0.27474 0.76439 0.08015 0.0
H1220 H 0.311 0.79689 0.1256 0.0
C1221 C 0.27509 0.70272 0.16044 0.0
C1222 C 0.25397 0.71961 0.12032 0.0
C1223 C 0.276 0.67725 0.17128 0.0
C1224 C 0.27678 0.81482 0.07231 0.0
C1225 C 0.27526 0.79033 0.08358 0.0
C1226 C 0.29459 0.7757 0.12406 0.0
C1227 C 0.27492 0.69514 0.14481 0.0
C1228 C 0.27437 0.72218 0.13329 0.0
C1229 C 0.27526 0.79918 0.09907 0.0
C1230 C 0.27442 0.77299 0.11102 0.0
H1231 H 0.27724 0.61046 0.14717 0.0
H1232 H 0.27585 0.65493 0.1283 0.0
H1233 H 0.31086 0.75306 0.14485 0.0
H1234 H 0.27915 0.88358 0.09521 0.0
H1235 H 0.27616 0.84077 0.11486 0.0
C1236 C 0.85516 0.66942 0.90259 0.0
C1237 C 0.84474 0.67282 0.91782 0.0
C1238 C 0.8318 0.66763 0.89083 0.0
C1239 C 0.74442 0.64756 0.88254 0.0
H1240 H 0.75725 0.70415 0.84719 0.0
C1241 C 0.64061 0.66964 0.83833 0.0
C1242 C 0.6496 0.67308 0.82292 0.0
C1243 C 0.66503 0.66752 0.84962 0.0
C1244 C 0.75354 0.68775 0.85685 0.0
H1245 H 0.80149 0.67642 0.93261 0.0
H1246 H 0.76071 0.67307 0.91201 0.0
H1247 H 0.79874 0.70409 0.86748 0.0
H1248 H 0.69142 0.67615 0.80729 0.0
H1249 H 0.73404 0.67168 0.82697 0.0
H1250 H 0.69937 0.63098 0.87191 0.0
C1251 C 0.78701 0.67176 0.90924 0.0
C1252 C 0.77727 0.68783 0.86849 0.0
C1253 C 0.81038 0.67387 0.92102 0.0
C1254 C 0.68362 0.67374 0.81905 0.0
C1255 C 0.70806 0.67136 0.83035 0.0
C1256 C 0.7208 0.64726 0.87084 0.0
C1257 C 0.79752 0.66888 0.89403 0.0
C1258 C 0.77281 0.66793 0.8815 0.0
C1259 C 0.69905 0.66853 0.84579 0.0
C1260 C 0.72493 0.66758 0.85791 0.0
H1261 H 0.88141 0.66858 0.8997 0.0
H1262 H 0.84057 0.66512 0.87921 0.0
H1263 H 0.7406 0.63164 0.89236 0.0
H1264 H 0.61465 0.66928 0.84175 0.0
H1265 H 0.65715 0.66593 0.86139 0.0
C1266 C 0.71717 0.14247 0.09358 0.0
C1267 C 0.71361 0.15016 0.07803 0.0
C1268 C 0.71708 0.16772 0.10453 0.0
C1269 C 0.69066 0.25458 0.11096 0.0
H1270 H 0.75407 0.25079 0.14429 0.0
C1271 C 0.70644 0.36253 0.15387 0.0
C1272 C 0.70936 0.35367 0.16932 0.0
C1273 C 0.70781 0.33816 0.14251 0.0
C1274 C 0.736 0.25203 0.13513 0.0
H1275 H 0.70713 0.19062 0.06184 0.0
H1276 H 0.70719 0.23463 0.08097 0.0
H1277 H 0.75451 0.20731 0.12488 0.0
H1278 H 0.71632 0.31212 0.18488 0.0
H1279 H 0.7184 0.26974 0.16509 0.0
H1280 H 0.67205 0.29923 0.12126 0.0
C1281 C 0.70969 0.20899 0.08467 0.0
C1282 C 0.73625 0.22713 0.12402 0.0
C1283 C 0.70982 0.18373 0.07371 0.0
C1284 C 0.71402 0.31991 0.17311 0.0
C1285 C 0.71541 0.29558 0.16176 0.0
C1286 C 0.69041 0.27949 0.12208 0.0
C1287 C 0.71341 0.20126 0.10019 0.0
C1288 C 0.71348 0.22804 0.11185 0.0
C1289 C 0.71219 0.30441 0.14634 0.0
C1290 C 0.71299 0.27841 0.13432 0.0
H1291 H 0.7201 0.11691 0.09735 0.0
H1292 H 0.71953 0.16093 0.11642 0.0
H1293 H 0.67252 0.25574 0.10183 0.0
H1294 H 0.70298 0.38829 0.15051 0.0
H1295 H 0.70568 0.34579 0.13072 0.0
C1296 C 0.92908 0.88482 0.26941 0.0
C1297 C 0.92094 0.88373 0.28498 0.0
C1298 C 0.94468 0.91293 0.26331 0.0
C1299 C 0.0087 0.95916 0.2671 0.0
H1300 H 0.97855 0.051 0.26586 0.0
C1301 C 0.07216 0.07523 0.29091 0.0
C1302 C 0.07422 0.10351 0.28158 0.0
C1303 C 0.05789 0.04598 0.28533 0.0
C1304 C 0.9872 0.02539 0.26573 0.0
H1305 H 0.91991 0.91163 0.30608 0.0
H1306 H 0.94579 0.96154 0.29519 0.0
H1307 H 0.93749 0.00575 0.26711 0.0
H1308 H 0.06476 0.12337 0.25903 0.0
H1309 H 0.03827 0.07236 0.24948 0.0
H1310 H 0.05841 0.97895 0.26758 0.0
C1311 C 0.94045 0.94053 0.28782 0.0
C1312 C 0.96379 -0.00031 0.26647 0.0
C1313 C 0.92574 0.91212 0.29403 0.0
C1314 C 0.06391 0.10157 0.26631 0.0
C1315 C 0.0487 0.0726 0.26087 0.0
C1316 C 0.03211 0.98489 0.26673 0.0
C1317 C 0.95126 0.9405 0.27262 0.0
C1318 C 0.9745 0.96656 0.26766 0.0
C1319 C 0.04469 0.04506 0.27052 0.0
C1320 C 0.02143 0.01815 0.26656 0.0
H1321 H 0.92614 0.86292 0.26229 0.0
H1322 H 0.9533 0.91245 0.25161 0.0
H1323 H 0.01731 0.93365 0.26825 0.0
H1324 H 0.0797 0.07641 0.30275 0.0
H1325 H 0.05456 0.02506 0.293 0.0
C1326 C 0.91761 0.0758 0.7158 0.0
C1327 C 0.88737 0.07744 0.72377 0.0
C1328 C 0.94523 0.06027 0.72236 0.0
C1329 C 0.95803 0.98654 0.7416 0.0
H1330 H 0.05166 0.01074 0.74174 0.0
C1331 C 0.0978 0.92441 0.73906 0.0
C1332 C 0.09732 0.91405 0.72377 0.0
C1333 C 0.07009 0.94043 0.74534 0.0
C1334 C 0.02557 0.00369 0.74217 0.0
H1335 H 0.86259 0.06635 0.74513 0.0
H1336 H 0.91071 0.03788 0.75636 0.0
H1337 H 0.00911 0.0546 0.74161 0.0
H1338 H 0.06688 0.90895 0.70355 0.0
H1339 H 0.01776 0.93541 0.71479 0.0
H1340 H 0.97455 0.93571 0.74032 0.0
C1341 C 0.91324 0.04946 0.74527 0.0
C1342 C 0.00137 0.02872 0.74206 0.0
C1343 C 0.8859 0.06589 0.73888 0.0
C1344 C 0.06762 0.91644 0.7154 0.0
C1345 C 0.03963 0.93157 0.72183 0.0
C1346 C 0.98224 0.96153 0.74133 0.0
C1347 C 0.94259 0.04541 0.73679 0.0
C1348 C 0.9675 0.02027 0.74125 0.0
C1349 C 0.04133 0.94526 0.73653 0.0
C1350 C 0.01615 0.97002 0.74108 0.0
H1351 H 0.9191 0.0842 0.70408 0.0
H1352 H 0.96756 0.05704 0.71557 0.0
H1353 H 0.93198 0.97954 0.74072 0.0
H1354 H 0.12066 0.92337 0.74564 0.0
H1355 H 0.07191 0.9511 0.75665 0.0
C1356 C 0.06757 0.41966 0.96548 0.0
C1357 C 0.06925 0.38848 0.97264 0.0
C1358 C 0.05212 0.44636 0.9728 0.0
C1359 C 0.02041 0.49996 0.99354 0.0
H1360 H 0.92771 0.47295 0.99003 0.0
C1361 C 0.91857 0.59674 0.98642 0.0
C1362 C 0.91055 0.59481 0.97085 0.0
C1363 C 0.9327 0.56934 0.99382 0.0
C1364 C 0.95338 0.48068 0.99161 0.0
H1365 H 0.05828 0.36096 0.9933 0.0
H1366 H 0.02976 0.40751 0.00583 0.0
H1367 H 0.97156 0.43054 0.99087 0.0
H1368 H 0.9073 0.56224 0.95126 0.0
H1369 H 0.93056 0.51383 0.96439 0.0
H1370 H 0.0024 0.55017 0.99313 0.0
C1371 C 0.04133 0.41148 0.99482 0.0
C1372 C 0.97842 0.45654 0.99213 0.0
C1373 C 0.05771 0.38502 0.98767 0.0
C1374 C 0.91313 0.56415 0.96328 0.0
C1375 C 0.92633 0.53653 0.97081 0.0
C1376 C 0.99534 0.52408 0.99339 0.0
C1377 C 0.03734 0.44189 0.98716 0.0
C1378 C 0.01213 0.46613 0.99221 0.0
C1379 C 0.93794 0.53952 0.98584 0.0
C1380 C 0.96183 0.5146 0.99153 0.0
H1381 H 0.07605 0.42269 0.95384 0.0
H1382 H 0.04888 0.46954 0.96661 0.0
H1383 H 0.04628 0.50779 0.99346 0.0
H1384 H 0.91724 0.62031 0.99243 0.0
H1385 H 0.94179 0.57217 0.00537 0.0
C1386 C 0.39367 0.92089 0.0216 0.0
C1387 C 0.38273 0.91457 0.03652 0.0
C1388 C 0.42626 0.93202 0.019 0.0
C1389 C 0.50866 0.94438 0.03742 0.0
H1390 H 0.5081 0.03022 0.01695 0.0
C1391 C 0.60249 0.04375 0.05297 0.0
C1392 C 0.62125 0.05777 0.04107 0.0
C1393 C 0.57392 0.0253 0.04983 0.0
C1394 C 0.50875 0.00607 0.02248 0.0
H1395 H 0.3976 0.91185 0.0602 0.0
H1396 H 0.45445 0.93044 0.05569 0.0
H1397 H 0.45924 0.99377 0.01523 0.0
H1398 H 0.62318 0.06591 0.01664 0.0
H1399 H 0.57243 0.03393 0.01119 0.0
H1400 H 0.55743 0.95735 0.04529 0.0
C1401 C 0.43813 0.92707 0.04598 0.0
C1402 C 0.48095 0.9851 0.02142 0.0
C1403 C 0.40556 0.91649 0.04859 0.0
C1404 C 0.60914 0.05551 0.02606 0.0
C1405 C 0.5803 0.03703 0.02291 0.0
C1406 C 0.53627 0.96534 0.03853 0.0
C1407 C 0.44838 0.93636 0.03126 0.0
C1408 C 0.48021 0.95461 0.02937 0.0
C1409 C 0.56339 0.02058 0.03474 0.0
C1410 C 0.53604 -0.00312 0.03156 0.0
H1411 H 0.37635 0.91996 0.01213 0.0
H1412 H 0.43364 0.93881 0.00754 0.0
H1413 H 0.50896 0.92081 0.04346 0.0
H1414 H 0.61095 0.04537 0.06467 0.0
H1415 H 0.56073 0.0136 0.05918 0.0
C1416 C 0.41463 0.42191 0.77902 0.0
C1417 C 0.41252 0.39132 0.77136 0.0
C1418 C 0.4299 0.44915 0.77203 0.0
C1419 C 0.46047 0.50453 0.7519 0.0
H1420 H 0.55345 0.47739 0.75229 0.0
C1421 C 0.56406 0.60097 0.75587 0.0
C1422 C 0.57549 0.59859 0.77096 0.0
C1423 C 0.54802 0.57389 0.74904 0.0
C1424 C 0.52761 0.4852 0.75163 0.0
H1425 H 0.42259 0.36548 0.75016 0.0
H1426 H 0.45066 0.41296 0.73817 0.0
H1427 H 0.5095 0.435 0.75223 0.0
H1428 H 0.58253 0.56557 0.79019 0.0
H1429 H 0.55595 0.51768 0.77799 0.0
H1430 H 0.47858 0.55473 0.75234 0.0
C1431 C 0.43963 0.41605 0.74935 0.0
C1432 C 0.50252 0.46107 0.75155 0.0
C1433 C 0.42346 0.38906 0.75618 0.0
C1434 C 0.57414 0.5678 0.7785 0.0
C1435 C 0.55899 0.54049 0.77151 0.0
C1436 C 0.48555 0.52866 0.75161 0.0
C1437 C 0.44406 0.44583 0.75747 0.0
C1438 C 0.46885 0.47062 0.75249 0.0
C1439 C 0.54421 0.54393 0.75709 0.0
C1440 C 0.51925 0.51912 0.75228 0.0
H1441 H 0.40664 0.42403 0.79077 0.0
H1442 H 0.43344 0.47181 0.77857 0.0
H1443 H 0.43466 0.51233 0.75276 0.0
H1444 H 0.56434 0.62468 0.74994 0.0
H1445 H 0.53652 0.57706 0.73797 0.0
C1446 C 0.59807 0.42342 0.22681 0.0
C1447 C 0.60661 0.41619 0.21164 0.0
C1448 C 0.56622 0.43544 0.2303 0.0
C1449 C 0.48206 0.45105 0.21401 0.0
H1450 H 0.4906 0.53833 0.23281 0.0
C1451 C 0.39999 0.55723 0.1963 0.0
C1452 C 0.37649 0.56658 0.20737 0.0
C1453 C 0.4284 0.53952 0.20047 0.0
C1454 C 0.48779 0.5138 0.2278 0.0
H1455 H 0.5881 0.41241 0.18855 0.0
H1456 H 0.53253 0.43253 0.19461 0.0
H1457 H 0.53702 0.49864 0.23425 0.0
H1458 H 0.36622 0.56823 0.23164 0.0
H1459 H 0.41677 0.5377 0.23893 0.0
H1460 H 0.43379 0.46717 0.20665 0.0
C1461 C 0.55014 0.42921 0.20384 0.0
C1462 C 0.51413 0.49098 0.2287 0.0
C1463 C 0.58199 0.41772 0.20033 0.0
C1464 C 0.38401 0.56153 0.22287 0.0
C1465 C 0.4127 0.54383 0.22705 0.0
C1466 C 0.45598 0.47388 0.21301 0.0
C1467 C 0.54246 0.43981 0.2187 0.0
C1468 C 0.51199 0.45992 0.22125 0.0
C1469 C 0.43397 0.53122 0.21577 0.0
C1470 C 0.45922 0.50581 0.21938 0.0
H1471 H 0.61682 0.4228 0.2357 0.0
H1472 H 0.56083 0.44318 0.24187 0.0
H1473 H 0.47956 0.42716 0.20835 0.0
H1474 H 0.39494 0.56097 0.18429 0.0
H1475 H 0.44489 0.53031 0.19164 0.0
C1476 C 0.41545 0.0696 0.47043 0.0
C1477 C 0.41304 0.0999 0.47832 0.0
C1478 C 0.43027 0.04202 0.47735 0.0
C1479 C 0.45932 0.98572 0.49754 0.0
H1480 H 0.5525 0.01211 0.49871 0.0
C1481 C 0.56315 0.8887 0.49617 0.0
C1482 C 0.57599 0.89043 0.4813 0.0
C1483 C 0.54636 0.91601 0.5024 0.0
C1484 C 0.52656 0.00451 0.49891 0.0
H1485 H 0.42209 0.12482 0.49984 0.0
H1486 H 0.44932 0.07675 0.51173 0.0
H1487 H 0.5089 0.05487 0.4981 0.0
H1488 H 0.58454 0.92249 0.46187 0.0
H1489 H 0.55671 0.97087 0.47307 0.0
H1490 H 0.47708 0.93537 0.49738 0.0
C1491 C 0.4389 0.07416 0.50041 0.0
C1492 C 0.50167 0.02884 0.49861 0.0
C1493 C 0.42318 0.10149 0.49363 0.0
C1494 C 0.57513 0.92081 0.47341 0.0
C1495 C 0.55924 0.94838 0.47982 0.0
C1496 C 0.48418 0.96139 0.49821 0.0
C1497 C 0.44366 0.0447 0.49208 0.0
C1498 C 0.46801 0.01957 0.49717 0.0
C1499 C 0.5432 0.94558 0.49399 0.0
C1500 C 0.51799 0.97066 0.49815 0.0
H1501 H 0.40809 0.06798 0.45857 0.0
H1502 H 0.43407 0.0196 0.47067 0.0
H1503 H 0.43353 0.97813 0.49628 0.0
H1504 H 0.563 0.86526 0.50233 0.0
H1505 H 0.53388 0.91333 0.51328 0.0
C1506 C 0.92506 0.41219 0.53231 0.0
C1507 C 0.89478 0.40996 0.52439 0.0
C1508 C 0.95252 0.42764 0.52557 0.0
C1509 C 0.96343 0.50079 0.50551 0.0
H1510 H 0.05776 0.47976 0.50694 0.0
C1511 C 0.10119 0.56673 0.5104 0.0
C1512 C 0.09858 0.57759 0.52558 0.0
C1513 C 0.07459 0.55003 0.50352 0.0
C1514 C 0.03151 0.48592 0.50604 0.0
H1515 H 0.86996 0.41955 0.50288 0.0
H1516 H 0.91775 0.44781 0.49133 0.0
H1517 H 0.01672 0.43453 0.50692 0.0
H1518 H 0.06546 0.58306 0.54487 0.0
H1519 H 0.01832 0.55537 0.53256 0.0
H1520 H 0.97815 0.55219 0.5065 0.0
C1521 C 0.92044 0.43683 0.50254 0.0
C1522 C 0.00816 0.46009 0.50607 0.0
C1523 C 0.89326 0.42051 0.50913 0.0
C1524 C 0.06786 0.57515 0.53312 0.0
C1525 C 0.04099 0.55933 0.52608 0.0
C1526 C 0.98677 0.52662 0.50584 0.0
C1527 C 0.94969 0.44179 0.51099 0.0
C1528 C 0.97398 0.46742 0.50639 0.0
C1529 C 0.04484 0.545 0.51158 0.0
C1530 C 0.0209 0.5193 0.50669 0.0
H1531 H 0.92664 0.40451 0.54413 0.0
H1532 H 0.97478 0.43153 0.53234 0.0
H1533 H 0.93713 0.50697 0.50599 0.0
H1534 H 0.12485 0.56785 0.50445 0.0
H1535 H 0.07807 0.53891 0.49238 0.0
loop_
_geom_bond_atom_site_label_1
_geom_bond_atom_site_label_2
_geom_bond_distance
_geom_bond_site_symmetry_2
_ccdc_geom_bond_type
Mn0 O5 2.095 . S
Mn0 O15 2.162 . S
Mn0 O16 2.297 . S
Mn0 O24 2.385 . S
Mn0 O25 2.209 . S
Mn0 O26 2.094 . S
Mn1 O6 2.121 . S
Mn1 N8 2.257 . S
Mn1 N17 2.282 1_455 S
Mn1 O25 2.215 . S
Mn1 O27 2.117 . S
C2 O24 1.234 . S
C2 O25 1.283 . S
C3 O15 1.281 . S
C3 O16 1.236 . S
C4 O26 1.240 . S
C4 O27 1.264 . S
O5 Mn0 2.095 . S
O5 C14 1.250 . S
O6 Mn1 2.121 . S
O6 C14 1.258 . S
C7 N8 1.326 . S
C7 C11 1.460 . S
C7 H13 0.929 . S
N8 Mn1 2.257 . S
N8 C7 1.326 . S
N8 C12 1.362 1_455 S
C9 C10 1.258 . S
C9 C12 1.431 . S
C9 C29 1.449 . S
C10 C9 1.258 . S
C10 C11 1.477 1_655 S
C10 H30 0.931 . S
C11 C7 1.460 . S
C11 C10 1.477 1_455 S
C11 H31 0.930 . S
C12 N8 1.362 1_655 S
C12 C9 1.431 . S
C12 C22 1.476 . S
H13 C7 0.929 . S
C14 O5 1.250 . S
C14 O6 1.258 . S
O15 Mn0 2.162 . S
O15 C3 1.281 . S
O16 Mn0 2.297 . S
O16 C3 1.236 . S
N17 Mn1 2.282 1_655 S
N17 C18 1.328 . S
N17 C22 1.318 . S
C18 N17 1.328 . S
C18 C19 1.457 . S
C18 H23 0.929 1_655 S
C19 C18 1.457 . S
C19 C20 1.291 . S
C19 H32 0.931 . S
C20 C19 1.291 . S
C20 C21 1.373 . S
C20 H33 0.929 . S
C21 C20 1.373 . S
C21 C22 1.396 . S
C21 C28 1.403 . S
C22 C12 1.476 . S
C22 N17 1.318 . S
C22 C21 1.396 . S
H23 C18 0.929 1_455 S
O24 Mn0 2.385 . S
O24 C2 1.234 . S
O25 Mn0 2.209 . S
O25 Mn1 2.215 . S
O25 C2 1.283 . S
O26 Mn0 2.094 . S
O26 C4 1.240 . S
O27 Mn1 2.117 . S
O27 C4 1.264 . S
C28 C21 1.403 . S
C28 C29 1.399 . S
C28 H34 0.929 . S
C29 C9 1.449 . S
C29 C28 1.399 . S
C29 H35 0.930 . S
H30 C10 0.931 . S
H31 C11 0.930 . S
H32 C19 0.931 . S
H33 C20 0.929 . S
H34 C28 0.929 . S
H35 C29 0.930 . S
Mn36 O41 2.095 . S
Mn36 O51 2.162 . S
Mn36 O52 2.297 . S
Mn36 O60 2.385 . S
Mn36 O61 2.209 . S
Mn36 O62 2.094 . S
Mn37 O42 2.121 . S
Mn37 N44 2.257 . S
Mn37 N53 2.282 1_565 S
Mn37 O61 2.215 . S
Mn37 O63 2.117 . S
C38 O60 1.234 . S
C38 O61 1.283 . S
C39 O51 1.281 . S
C39 O52 1.236 . S
C40 O62 1.240 . S
C40 O63 1.264 . S
O41 Mn36 2.095 . S
O41 C50 1.250 . S
O42 Mn37 2.121 . S
O42 C50 1.258 . S
C43 N44 1.326 . S
C43 C47 1.460 . S
C43 H49 0.929 . S
N44 Mn37 2.257 . S
N44 C43 1.326 . S
N44 C48 1.362 1_565 S
C45 C46 1.258 . S
C45 C48 1.431 . S
C45 C65 1.449 . S
C46 C45 1.258 . S
C46 C47 1.477 1_545 S
C46 H66 0.931 . S
C47 C43 1.460 . S
C47 C46 1.477 1_565 S
C47 H67 0.930 . S
C48 N44 1.362 1_545 S
C48 C45 1.431 . S
C48 C58 1.476 . S
H49 C43 0.929 . S
C50 O41 1.250 . S
C50 O42 1.258 . S
O51 Mn36 2.162 . S
O51 C39 1.281 . S
O52 Mn36 2.297 . S
O52 C39 1.236 . S
N53 Mn37 2.282 1_545 S
N53 C54 1.328 . S
N53 C58 1.318 . S
C54 N53 1.328 . S
C54 C55 1.457 . S
C54 H59 0.929 1_545 S
C55 C54 1.457 . S
C55 C56 1.291 . S
C55 H68 0.931 . S
C56 C55 1.291 . S
C56 C57 1.373 . S
C56 H69 0.929 . S
C57 C56 1.373 . S
C57 C58 1.396 . S
C57 C64 1.403 . S
C58 C48 1.476 . S
C58 N53 1.318 . S
C58 C57 1.396 . S
H59 C54 0.929 1_565 S
O60 Mn36 2.385 . S
O60 C38 1.234 . S
O61 Mn36 2.209 . S
O61 Mn37 2.215 . S
O61 C38 1.283 . S
O62 Mn36 2.094 . S
O62 C40 1.240 . S
O63 Mn37 2.117 . S
O63 C40 1.264 . S
C64 C57 1.403 . S
C64 C65 1.399 . S
C64 H70 0.929 . S
C65 C45 1.449 . S
C65 C64 1.399 . S
C65 H71 0.930 . S
H66 C46 0.931 . S
H67 C47 0.930 . S
H68 C55 0.931 . S
H69 C56 0.929 . S
H70 C64 0.929 . S
H71 C65 0.930 . S
Mn72 O77 2.095 . S
Mn72 O87 2.162 . S
Mn72 O88 2.297 . S
Mn72 O96 2.385 . S
Mn72 O97 2.209 . S
Mn72 O98 2.094 . S
Mn73 O78 2.121 . S
Mn73 N80 2.257 . S
Mn73 N89 2.282 1_655 S
Mn73 O97 2.215 . S
Mn73 O99 2.117 . S
C74 O96 1.234 . S
C74 O97 1.283 . S
C75 O87 1.281 . S
C75 O88 1.236 . S
C76 O98 1.240 . S
C76 O99 1.264 . S
O77 Mn72 2.095 . S
O77 C86 1.250 . S
O78 Mn73 2.121 . S
O78 C86 1.258 . S
C79 N80 1.326 . S
C79 C83 1.460 . S
C79 H85 0.929 . S
N80 Mn73 2.257 . S
N80 C79 1.326 . S
N80 C84 1.362 1_655 S
C81 C82 1.258 . S
C81 C84 1.431 . S
C81 C101 1.449 . S
C82 C81 1.258 . S
C82 C83 1.477 1_455 S
C82 H102 0.931 . S
C83 C79 1.460 . S
C83 C82 1.477 1_655 S
C83 H103 0.930 . S
C84 N80 1.362 1_455 S
C84 C81 1.431 . S
C84 C94 1.476 . S
H85 C79 0.929 . S
C86 O77 1.250 . S
C86 O78 1.258 . S
O87 Mn72 2.162 . S
O87 C75 1.281 . S
O88 Mn72 2.297 . S
O88 C75 1.236 . S
N89 Mn73 2.282 1_455 S
N89 C90 1.328 . S
N89 C94 1.318 . S
C90 N89 1.328 . S
C90 C91 1.457 . S
C90 H95 0.929 1_455 S
C91 C90 1.457 . S
C91 C92 1.291 . S
C91 H104 0.931 . S
C92 C91 1.291 . S
C92 C93 1.373 . S
C92 H105 0.929 . S
C93 C92 1.373 . S
C93 C94 1.396 . S
C93 C100 1.403 . S
C94 C84 1.476 . S
C94 N89 1.318 . S
C94 C93 1.396 . S
H95 C90 0.929 1_655 S
O96 Mn72 2.385 . S
O96 C74 1.234 . S
O97 Mn72 2.209 . S
O97 Mn73 2.215 . S
O97 C74 1.283 . S
O98 Mn72 2.094 . S
O98 C76 1.240 . S
O99 Mn73 2.117 . S
O99 C76 1.264 . S
C100 C93 1.403 . S
C100 C101 1.399 . S
C100 H106 0.929 . S
C101 C81 1.449 . S
C101 C100 1.399 . S
C101 H107 0.930 . S
H102 C82 0.931 . S
H103 C83 0.930 . S
H104 C91 0.931 . S
H105 C92 0.929 . S
H106 C100 0.929 . S
H107 C101 0.930 . S
Mn108 O113 2.095 . S
Mn108 O123 2.162 . S
Mn108 O124 2.297 . S
Mn108 O132 2.385 . S
Mn108 O133 2.209 . S
Mn108 O134 2.094 . S
Mn109 O114 2.121 . S
Mn109 N116 2.257 . S
Mn109 N125 2.282 1_545 S
Mn109 O133 2.215 . S
Mn109 O135 2.117 . S
C110 O132 1.234 . S
C110 O133 1.283 . S
C111 O123 1.281 . S
C111 O124 1.236 . S
C112 O134 1.240 . S
C112 O135 1.264 . S
O113 Mn108 2.095 . S
O113 C122 1.250 . S
O114 Mn109 2.121 . S
O114 C122 1.258 . S
C115 N116 1.326 . S
C115 C119 1.460 . S
C115 H121 0.929 . S
N116 Mn109 2.257 . S
N116 C115 1.326 . S
N116 C120 1.362 1_545 S
C117 C118 1.258 . S
C117 C120 1.431 . S
C117 C137 1.449 . S
C118 C117 1.258 . S
C118 C119 1.477 1_565 S
C118 H138 0.931 . S
C119 C115 1.460 . S
C119 C118 1.477 1_545 S
C119 H139 0.930 . S
C120 N116 1.362 1_565 S
C120 C117 1.431 . S
C120 C130 1.476 . S
H121 C115 0.929 . S
C122 O113 1.250 . S
C122 O114 1.258 . S
O123 Mn108 2.162 . S
O123 C111 1.281 . S
O124 Mn108 2.297 . S
O124 C111 1.236 . S
N125 Mn109 2.282 1_565 S
N125 C126 1.328 . S
N125 C130 1.318 . S
C126 N125 1.328 . S
C126 C127 1.457 . S
C126 H131 0.929 1_565 S
C127 C126 1.457 . S
C127 C128 1.291 . S
C127 H140 0.931 . S
C128 C127 1.291 . S
C128 C129 1.373 . S
C128 H141 0.929 . S
C129 C128 1.373 . S
C129 C130 1.396 . S
C129 C136 1.403 . S
C130 C120 1.476 . S
C130 N125 1.318 . S
C130 C129 1.396 . S
H131 C126 0.929 1_545 S
O132 Mn108 2.385 . S
O132 C110 1.234 . S
O133 Mn108 2.209 . S
O133 Mn109 2.215 . S
O133 C110 1.283 . S
O134 Mn108 2.094 . S
O134 C112 1.240 . S
O135 Mn109 2.117 . S
O135 C112 1.264 . S
C136 C129 1.403 . S
C136 C137 1.399 . S
C136 H142 0.929 . S
C137 C117 1.449 . S
C137 C136 1.399 . S
C137 H143 0.930 . S
H138 C118 0.931 . S
H139 C119 0.930 . S
H140 C127 0.931 . S
H141 C128 0.929 . S
H142 C136 0.929 . S
H143 C137 0.930 . S
Mn144 O149 2.095 . S
Mn144 O159 2.162 . S
Mn144 O160 2.297 . S
Mn144 O168 2.385 . S
Mn144 O169 2.209 . S
Mn144 O170 2.094 . S
Mn145 O150 2.121 . S
Mn145 N152 2.257 . S
Mn145 N161 2.282 1_455 S
Mn145 O169 2.215 . S
Mn145 O171 2.117 . S
C146 O168 1.234 . S
C146 O169 1.283 . S
C147 O159 1.281 . S
C147 O160 1.236 . S
C148 O170 1.240 . S
C148 O171 1.264 . S
O149 Mn144 2.095 . S
O149 C158 1.250 . S
O150 Mn145 2.121 . S
O150 C158 1.258 . S
C151 N152 1.326 . S
C151 C155 1.460 . S
C151 H157 0.929 . S
N152 Mn145 2.257 . S
N152 C151 1.326 . S
N152 C156 1.362 1_455 S
C153 C154 1.258 . S
C153 C156 1.431 . S
C153 C173 1.449 . S
C154 C153 1.258 . S
C154 C155 1.477 1_655 S
C154 H174 0.931 . S
C155 C151 1.460 . S
C155 C154 1.477 1_455 S
C155 H175 0.930 . S
C156 N152 1.362 1_655 S
C156 C153 1.431 . S
C156 C166 1.476 . S
H157 C151 0.929 . S
C158 O149 1.250 . S
C158 O150 1.258 . S
O159 Mn144 2.162 . S
O159 C147 1.281 . S
O160 Mn144 2.297 . S
O160 C147 1.236 . S
N161 Mn145 2.282 1_655 S
N161 C162 1.328 . S
N161 C166 1.318 . S
C162 N161 1.328 . S
C162 C163 1.457 . S
C162 H167 0.929 1_655 S
C163 C162 1.457 . S
C163 C164 1.291 . S
C163 H176 0.931 . S
C164 C163 1.291 . S
C164 C165 1.373 . S
C164 H177 0.929 . S
C165 C164 1.373 . S
C165 C166 1.396 . S
C165 C172 1.403 . S
C166 C156 1.476 . S
C166 N161 1.318 . S
C166 C165 1.396 . S
H167 C162 0.929 1_455 S
O168 Mn144 2.385 . S
O168 C146 1.234 . S
O169 Mn144 2.209 . S
O169 Mn145 2.215 . S
O169 C146 1.283 . S
O170 Mn144 2.094 . S
O170 C148 1.240 . S
O171 Mn145 2.117 . S
O171 C148 1.264 . S
C172 C165 1.403 . S
C172 C173 1.399 . S
C172 H178 0.929 . S
C173 C153 1.449 . S
C173 C172 1.399 . S
C173 H179 0.930 . S
H174 C154 0.931 . S
H175 C155 0.930 . S
H176 C163 0.931 . S
H177 C164 0.929 . S
H178 C172 0.929 . S
H179 C173 0.930 . S
Mn180 O185 2.095 . S
Mn180 O195 2.162 . S
Mn180 O196 2.297 . S
Mn180 O204 2.385 . S
Mn180 O205 2.209 . S
Mn180 O206 2.094 . S
Mn181 O186 2.121 . S
Mn181 N188 2.257 . S
Mn181 N197 2.282 1_565 S
Mn181 O205 2.215 . S
Mn181 O207 2.117 . S
C182 O204 1.234 . S
C182 O205 1.283 . S
C183 O195 1.281 . S
C183 O196 1.236 . S
C184 O206 1.240 . S
C184 O207 1.264 . S
O185 Mn180 2.095 . S
O185 C194 1.250 . S
O186 Mn181 2.121 . S
O186 C194 1.258 . S
C187 N188 1.326 . S
C187 C191 1.460 . S
C187 H193 0.929 . S
N188 Mn181 2.257 . S
N188 C187 1.326 . S
N188 C192 1.362 1_565 S
C189 C190 1.258 . S
C189 C192 1.431 . S
C189 C209 1.449 . S
C190 C189 1.258 . S
C190 C191 1.477 1_545 S
C190 H210 0.931 . S
C191 C187 1.460 . S
C191 C190 1.477 1_565 S
C191 H211 0.930 . S
C192 N188 1.362 1_545 S
C192 C189 1.431 . S
C192 C202 1.476 . S
H193 C187 0.929 . S
C194 O185 1.250 . S
C194 O186 1.258 . S
O195 Mn180 2.162 . S
O195 C183 1.281 . S
O196 Mn180 2.297 . S
O196 C183 1.236 . S
N197 Mn181 2.282 1_545 S
N197 C198 1.328 . S
N197 C202 1.318 . S
C198 N197 1.328 . S
C198 C199 1.457 . S
C198 H203 0.929 1_545 S
C199 C198 1.457 . S
C199 C200 1.291 . S
C199 H212 0.931 . S
C200 C199 1.291 . S
C200 C201 1.373 . S
C200 H213 0.929 . S
C201 C200 1.373 . S
C201 C202 1.396 . S
C201 C208 1.403 . S
C202 C192 1.476 . S
C202 N197 1.318 . S
C202 C201 1.396 . S
H203 C198 0.929 1_565 S
O204 Mn180 2.385 . S
O204 C182 1.234 . S
O205 Mn180 2.209 . S
O205 Mn181 2.215 . S
O205 C182 1.283 . S
O206 Mn180 2.094 . S
O206 C184 1.240 . S
O207 Mn181 2.117 . S
O207 C184 1.264 . S
C208 C201 1.403 . S
C208 C209 1.399 . S
C208 H214 0.929 . S
C209 C189 1.449 . S
C209 C208 1.399 . S
C209 H215 0.930 . S
H210 C190 0.931 . S
H211 C191 0.930 . S
H212 C199 0.931 . S
H213 C200 0.929 . S
H214 C208 0.929 . S
H215 C209 0.930 . S
Mn216 O221 2.095 . S
Mn216 O231 2.162 . S
Mn216 O232 2.297 . S
Mn216 O240 2.385 . S
Mn216 O241 2.209 . S
Mn216 O242 2.094 . S
Mn217 O222 2.121 . S
Mn217 N224 2.257 . S
Mn217 N233 2.282 1_655 S
Mn217 O241 2.215 . S
Mn217 O243 2.117 . S
C218 O240 1.234 . S
C218 O241 1.283 . S
C219 O231 1.281 . S
C219 O232 1.236 . S
C220 O242 1.240 . S
C220 O243 1.264 . S
O221 Mn216 2.095 . S
O221 C230 1.250 . S
O222 Mn217 2.121 . S
O222 C230 1.258 . S
C223 N224 1.326 . S
C223 C227 1.460 . S
C223 H229 0.929 . S
N224 Mn217 2.257 . S
N224 C223 1.326 . S
N224 C228 1.362 1_655 S
C225 C226 1.258 . S
C225 C228 1.431 . S
C225 C245 1.449 . S
C226 C225 1.258 . S
C226 C227 1.477 1_455 S
C226 H246 0.931 . S
C227 C223 1.460 . S
C227 C226 1.477 1_655 S
C227 H247 0.930 . S
C228 N224 1.362 1_455 S
C228 C225 1.431 . S
C228 C238 1.476 . S
H229 C223 0.929 . S
C230 O221 1.250 . S
C230 O222 1.258 . S
O231 Mn216 2.162 . S
O231 C219 1.281 . S
O232 Mn216 2.297 . S
O232 C219 1.236 . S
N233 Mn217 2.282 1_455 S
N233 C234 1.328 . S
N233 C238 1.318 . S
C234 N233 1.328 . S
C234 C235 1.457 . S
C234 H239 0.929 1_455 S
C235 C234 1.457 . S
C235 C236 1.291 . S
C235 H248 0.931 . S
C236 C235 1.291 . S
C236 C237 1.373 . S
C236 H249 0.929 . S
C237 C236 1.373 . S
C237 C238 1.396 . S
C237 C244 1.403 . S
C238 C228 1.476 . S
C238 N233 1.318 . S
C238 C237 1.396 . S
H239 C234 0.929 1_655 S
O240 Mn216 2.385 . S
O240 C218 1.234 . S
O241 Mn216 2.209 . S
O241 Mn217 2.215 . S
O241 C218 1.283 . S
O242 Mn216 2.094 . S
O242 C220 1.240 . S
O243 Mn217 2.117 . S
O243 C220 1.264 . S
C244 C237 1.403 . S
C244 C245 1.399 . S
C244 H250 0.929 . S
C245 C225 1.449 . S
C245 C244 1.399 . S
C245 H251 0.930 . S
H246 C226 0.931 . S
H247 C227 0.930 . S
H248 C235 0.931 . S
H249 C236 0.929 . S
H250 C244 0.929 . S
H251 C245 0.930 . S
Mn252 O257 2.095 . S
Mn252 O267 2.162 . S
Mn252 O268 2.297 . S
Mn252 O276 2.385 . S
Mn252 O277 2.209 . S
Mn252 O278 2.094 . S
Mn253 O258 2.121 . S
Mn253 N260 2.257 . S
Mn253 N269 2.282 1_545 S
Mn253 O277 2.215 . S
Mn253 O279 2.117 . S
C254 O276 1.234 . S
C254 O277 1.283 . S
C255 O267 1.281 . S
C255 O268 1.236 . S
C256 O278 1.240 . S
C256 O279 1.264 . S
O257 Mn252 2.095 . S
O257 C266 1.250 . S
O258 Mn253 2.121 . S
O258 C266 1.258 . S
C259 N260 1.326 . S
C259 C263 1.460 . S
C259 H265 0.929 . S
N260 Mn253 2.257 . S
N260 C259 1.326 . S
N260 C264 1.362 1_545 S
C261 C262 1.258 . S
C261 C264 1.431 . S
C261 C281 1.449 . S
C262 C261 1.258 . S
C262 C263 1.477 1_565 S
C262 H282 0.931 . S
C263 C259 1.460 . S
C263 C262 1.477 1_545 S
C263 H283 0.930 . S
C264 N260 1.362 1_565 S
C264 C261 1.431 . S
C264 C274 1.476 . S
H265 C259 0.929 . S
C266 O257 1.250 . S
C266 O258 1.258 . S
O267 Mn252 2.162 . S
O267 C255 1.281 . S
O268 Mn252 2.297 . S
O268 C255 1.236 . S
N269 Mn253 2.282 1_565 S
N269 C270 1.328 . S
N269 C274 1.318 . S
C270 N269 1.328 . S
C270 C271 1.457 . S
C270 H275 0.929 1_565 S
C271 C270 1.457 . S
C271 C272 1.291 . S
C271 H284 0.931 . S
C272 C271 1.291 . S
C272 C273 1.373 . S
C272 H285 0.929 . S
C273 C272 1.373 . S
C273 C274 1.396 . S
C273 C280 1.403 . S
C274 C264 1.476 . S
C274 N269 1.318 . S
C274 C273 1.396 . S
H275 C270 0.929 1_545 S
O276 Mn252 2.385 . S
O276 C254 1.234 . S
O277 Mn252 2.209 . S
O277 Mn253 2.215 . S
O277 C254 1.283 . S
O278 Mn252 2.094 . S
O278 C256 1.240 . S
O279 Mn253 2.117 . S
O279 C256 1.264 . S
C280 C273 1.403 . S
C280 C281 1.399 . S
C280 H286 0.929 . S
C281 C261 1.449 . S
C281 C280 1.399 . S
C281 H287 0.930 . S
H282 C262 0.931 . S
H283 C263 0.930 . S
H284 C271 0.931 . S
H285 C272 0.929 . S
H286 C280 0.929 . S
H287 C281 0.930 . S
Mn288 O293 2.095 . S
Mn288 O303 2.162 . S
Mn288 O304 2.297 . S
Mn288 O312 2.385 . S
Mn288 O313 2.209 . S
Mn288 O314 2.094 . S
Mn289 O294 2.121 . S
Mn289 N296 2.257 . S
Mn289 N305 2.282 . S
Mn289 O313 2.215 . S
Mn289 O315 2.117 . S
C290 O312 1.234 . S
C290 O313 1.283 . S
C291 O303 1.281 . S
C291 O304 1.236 . S
C292 O314 1.240 . S
C292 O315 1.264 . S
O293 Mn288 2.095 . S
O293 C302 1.250 . S
O294 Mn289 2.121 . S
O294 C302 1.258 . S
C295 N296 1.326 . S
C295 C299 1.460 . S
C295 H301 0.929 . S
N296 Mn289 2.257 . S
N296 C295 1.326 . S
N296 C300 1.362 . S
C297 C298 1.258 . S
C297 C300 1.431 . S
C297 C317 1.449 . S
C298 C297 1.258 . S
C298 C299 1.477 . S
C298 H318 0.931 . S
C299 C295 1.460 . S
C299 C298 1.477 . S
C299 H319 0.930 . S
C300 N296 1.362 . S
C300 C297 1.431 . S
C300 C310 1.476 . S
H301 C295 0.929 . S
C302 O293 1.250 . S
C302 O294 1.258 . S
O303 Mn288 2.162 . S
O303 C291 1.281 . S
O304 Mn288 2.297 . S
O304 C291 1.236 . S
N305 Mn289 2.282 . S
N305 C306 1.328 . S
N305 C310 1.318 . S
C306 N305 1.328 . S
C306 C307 1.457 . S
C306 H311 0.929 . S
C307 C306 1.457 . S
C307 C308 1.291 . S
C307 H320 0.931 . S
C308 C307 1.291 . S
C308 C309 1.373 . S
C308 H321 0.929 . S
C309 C308 1.373 . S
C309 C310 1.396 . S
C309 C316 1.403 . S
C310 C300 1.476 . S
C310 N305 1.318 . S
C310 C309 1.396 . S
H311 C306 0.929 . S
O312 Mn288 2.385 . S
O312 C290 1.234 . S
O313 Mn288 2.209 . S
O313 Mn289 2.215 . S
O313 C290 1.283 . S
O314 Mn288 2.094 . S
O314 C292 1.240 . S
O315 Mn289 2.117 . S
O315 C292 1.264 . S
C316 C309 1.403 . S
C316 C317 1.399 . S
C316 H322 0.929 . S
C317 C297 1.449 . S
C317 C316 1.399 . S
C317 H323 0.930 . S
H318 C298 0.931 . S
H319 C299 0.930 . S
H320 C307 0.931 . S
H321 C308 0.929 . S
H322 C316 0.929 . S
H323 C317 0.930 . S
Mn324 O329 2.095 . S
Mn324 O339 2.162 . S
Mn324 O340 2.297 . S
Mn324 O348 2.385 . S
Mn324 O349 2.209 . S
Mn324 O350 2.094 . S
Mn325 O330 2.121 . S
Mn325 N332 2.257 . S
Mn325 N341 2.282 . S
Mn325 O349 2.215 . S
Mn325 O351 2.117 . S
C326 O348 1.234 . S
C326 O349 1.283 . S
C327 O339 1.281 . S
C327 O340 1.236 . S
C328 O350 1.240 . S
C328 O351 1.264 . S
O329 Mn324 2.095 . S
O329 C338 1.250 . S
O330 Mn325 2.121 . S
O330 C338 1.258 . S
C331 N332 1.326 . S
C331 C335 1.460 . S
C331 H337 0.929 . S
N332 Mn325 2.257 . S
N332 C331 1.326 . S
N332 C336 1.362 . S
C333 C334 1.258 . S
C333 C336 1.431 . S
C333 C353 1.449 . S
C334 C333 1.258 . S
C334 C335 1.477 . S
C334 H354 0.931 . S
C335 C331 1.460 . S
C335 C334 1.477 . S
C335 H355 0.930 . S
C336 N332 1.362 . S
C336 C333 1.431 . S
C336 C346 1.476 . S
H337 C331 0.929 . S
C338 O329 1.250 . S
C338 O330 1.258 . S
O339 Mn324 2.162 . S
O339 C327 1.281 . S
O340 Mn324 2.297 . S
O340 C327 1.236 . S
N341 Mn325 2.282 . S
N341 C342 1.328 . S
N341 C346 1.318 . S
C342 N341 1.328 . S
C342 C343 1.457 . S
C342 H347 0.929 . S
C343 C342 1.457 . S
C343 C344 1.291 . S
C343 H356 0.931 . S
C344 C343 1.291 . S
C344 C345 1.373 . S
C344 H357 0.929 . S
C345 C344 1.373 . S
C345 C346 1.396 . S
C345 C352 1.403 . S
C346 C336 1.476 . S
C346 N341 1.318 . S
C346 C345 1.396 . S
H347 C342 0.929 . S
O348 Mn324 2.385 . S
O348 C326 1.234 . S
O349 Mn324 2.209 . S
O349 Mn325 2.215 . S
O349 C326 1.283 . S
O350 Mn324 2.094 . S
O350 C328 1.240 . S
O351 Mn325 2.117 . S
O351 C328 1.264 . S
C352 C345 1.403 . S
C352 C353 1.399 . S
C352 H358 0.929 . S
C353 C333 1.449 . S
C353 C352 1.399 . S
C353 H359 0.930 . S
H354 C334 0.931 . S
H355 C335 0.930 . S
H356 C343 0.931 . S
H357 C344 0.929 . S
H358 C352 0.929 . S
H359 C353 0.930 . S
Mn360 O365 2.095 . S
Mn360 O375 2.162 . S
Mn360 O376 2.297 . S
Mn360 O384 2.385 . S
Mn360 O385 2.209 . S
Mn360 O386 2.094 . S
Mn361 O366 2.121 . S
Mn361 N368 2.257 . S
Mn361 N377 2.282 . S
Mn361 O385 2.215 . S
Mn361 O387 2.117 . S
C362 O384 1.234 . S
C362 O385 1.283 . S
C363 O375 1.281 . S
C363 O376 1.236 . S
C364 O386 1.240 . S
C364 O387 1.264 . S
O365 Mn360 2.095 . S
O365 C374 1.250 . S
O366 Mn361 2.121 . S
O366 C374 1.258 . S
C367 N368 1.326 . S
C367 C371 1.460 . S
C367 H373 0.929 . S
N368 Mn361 2.257 . S
N368 C367 1.326 . S
N368 C372 1.362 . S
C369 C370 1.258 . S
C369 C372 1.431 . S
C369 C389 1.449 . S
C370 C369 1.258 . S
C370 C371 1.477 . S
C370 H390 0.931 . S
C371 C367 1.460 . S
C371 C370 1.477 . S
C371 H391 0.930 . S
C372 N368 1.362 . S
C372 C369 1.431 . S
C372 C382 1.476 . S
H373 C367 0.929 . S
C374 O365 1.250 . S
C374 O366 1.258 . S
O375 Mn360 2.162 . S
O375 C363 1.281 . S
O376 Mn360 2.297 . S
O376 C363 1.236 . S
N377 Mn361 2.282 . S
N377 C378 1.328 . S
N377 C382 1.318 . S
C378 N377 1.328 . S
C378 C379 1.457 . S
C378 H383 0.929 . S
C379 C378 1.457 . S
C379 C380 1.291 . S
C379 H392 0.931 . S
C380 C379 1.291 . S
C380 C381 1.373 . S
C380 H393 0.929 . S
C381 C380 1.373 . S
C381 C382 1.396 . S
C381 C388 1.403 . S
C382 C372 1.476 . S
C382 N377 1.318 . S
C382 C381 1.396 . S
H383 C378 0.929 . S
O384 Mn360 2.385 . S
O384 C362 1.234 . S
O385 Mn360 2.209 . S
O385 Mn361 2.215 . S
O385 C362 1.283 . S
O386 Mn360 2.094 . S
O386 C364 1.240 . S
O387 Mn361 2.117 . S
O387 C364 1.264 . S
C388 C381 1.403 . S
C388 C389 1.399 . S
C388 H394 0.929 . S
C389 C369 1.449 . S
C389 C388 1.399 . S
C389 H395 0.930 . S
H390 C370 0.931 . S
H391 C371 0.930 . S
H392 C379 0.931 . S
H393 C380 0.929 . S
H394 C388 0.929 . S
H395 C389 0.930 . S
Mn396 O401 2.095 . S
Mn396 O411 2.162 . S
Mn396 O412 2.297 . S
Mn396 O420 2.385 . S
Mn396 O421 2.209 . S
Mn396 O422 2.094 . S
Mn397 O402 2.121 . S
Mn397 N404 2.257 . S
Mn397 N413 2.282 . S
Mn397 O421 2.215 . S
Mn397 O423 2.117 . S
C398 O420 1.234 . S
C398 O421 1.283 . S
C399 O411 1.281 . S
C399 O412 1.236 . S
C400 O422 1.240 . S
C400 O423 1.264 . S
O401 Mn396 2.095 . S
O401 C410 1.250 . S
O402 Mn397 2.121 . S
O402 C410 1.258 . S
C403 N404 1.326 . S
C403 C407 1.460 . S
C403 H409 0.929 . S
N404 Mn397 2.257 . S
N404 C403 1.326 . S
N404 C408 1.362 . S
C405 C406 1.258 . S
C405 C408 1.431 . S
C405 C425 1.449 . S
C406 C405 1.258 . S
C406 C407 1.477 . S
C406 H426 0.931 . S
C407 C403 1.460 . S
C407 C406 1.477 . S
C407 H427 0.930 . S
C408 N404 1.362 . S
C408 C405 1.431 . S
C408 C418 1.476 . S
H409 C403 0.929 . S
C410 O401 1.250 . S
C410 O402 1.258 . S
O411 Mn396 2.162 . S
O411 C399 1.281 . S
O412 Mn396 2.297 . S
O412 C399 1.236 . S
N413 Mn397 2.282 . S
N413 C414 1.328 . S
N413 C418 1.318 . S
C414 N413 1.328 . S
C414 C415 1.457 . S
C414 H419 0.929 . S
C415 C414 1.457 . S
C415 C416 1.291 . S
C415 H428 0.931 . S
C416 C415 1.291 . S
C416 C417 1.373 . S
C416 H429 0.929 . S
C417 C416 1.373 . S
C417 C418 1.396 . S
C417 C424 1.403 . S
C418 C408 1.476 . S
C418 N413 1.318 . S
C418 C417 1.396 . S
H419 C414 0.929 . S
O420 Mn396 2.385 . S
O420 C398 1.234 . S
O421 Mn396 2.209 . S
O421 Mn397 2.215 . S
O421 C398 1.283 . S
O422 Mn396 2.094 . S
O422 C400 1.240 . S
O423 Mn397 2.117 . S
O423 C400 1.264 . S
C424 C417 1.403 . S
C424 C425 1.399 . S
C424 H430 0.929 . S
C425 C405 1.449 . S
C425 C424 1.399 . S
C425 H431 0.930 . S
H426 C406 0.931 . S
H427 C407 0.930 . S
H428 C415 0.931 . S
H429 C416 0.929 . S
H430 C424 0.929 . S
H431 C425 0.930 . S
Mn432 O437 2.095 . S
Mn432 O447 2.162 . S
Mn432 O448 2.297 . S
Mn432 O456 2.385 . S
Mn432 O457 2.209 . S
Mn432 O458 2.094 . S
Mn433 O438 2.121 . S
Mn433 N440 2.257 . S
Mn433 N449 2.282 . S
Mn433 O457 2.215 . S
Mn433 O459 2.117 . S
C434 O456 1.234 . S
C434 O457 1.283 . S
C435 O447 1.281 . S
C435 O448 1.236 . S
C436 O458 1.240 . S
C436 O459 1.264 . S
O437 Mn432 2.095 . S
O437 C446 1.250 . S
O438 Mn433 2.121 . S
O438 C446 1.258 . S
C439 N440 1.326 . S
C439 C443 1.460 . S
C439 H445 0.929 . S
N440 Mn433 2.257 . S
N440 C439 1.326 . S
N440 C444 1.362 . S
C441 C442 1.258 . S
C441 C444 1.431 . S
C441 C461 1.449 . S
C442 C441 1.258 . S
C442 C443 1.477 . S
C442 H462 0.931 . S
C443 C439 1.460 . S
C443 C442 1.477 . S
C443 H463 0.930 . S
C444 N440 1.362 . S
C444 C441 1.431 . S
C444 C454 1.476 . S
H445 C439 0.929 . S
C446 O437 1.250 . S
C446 O438 1.258 . S
O447 Mn432 2.162 . S
O447 C435 1.281 . S
O448 Mn432 2.297 . S
O448 C435 1.236 . S
N449 Mn433 2.282 . S
N449 C450 1.328 . S
N449 C454 1.318 . S
C450 N449 1.328 . S
C450 C451 1.457 . S
C450 H455 0.929 . S
C451 C450 1.457 . S
C451 C452 1.291 . S
C451 H464 0.931 . S
C452 C451 1.291 . S
C452 C453 1.373 . S
C452 H465 0.929 . S
C453 C452 1.373 . S
C453 C454 1.396 . S
C453 C460 1.403 . S
C454 C444 1.476 . S
C454 N449 1.318 . S
C454 C453 1.396 . S
H455 C450 0.929 . S
O456 Mn432 2.385 . S
O456 C434 1.234 . S
O457 Mn432 2.209 . S
O457 Mn433 2.215 . S
O457 C434 1.283 . S
O458 Mn432 2.094 . S
O458 C436 1.240 . S
O459 Mn433 2.117 . S
O459 C436 1.264 . S
C460 C453 1.403 . S
C460 C461 1.399 . S
C460 H466 0.929 . S
C461 C441 1.449 . S
C461 C460 1.399 . S
C461 H467 0.930 . S
H462 C442 0.931 . S
H463 C443 0.930 . S
H464 C451 0.931 . S
H465 C452 0.929 . S
H466 C460 0.929 . S
H467 C461 0.930 . S
Mn468 O473 2.095 . S
Mn468 O483 2.162 . S
Mn468 O484 2.297 . S
Mn468 O492 2.385 . S
Mn468 O493 2.209 . S
Mn468 O494 2.094 . S
Mn469 O474 2.121 . S
Mn469 N476 2.257 . S
Mn469 N485 2.282 . S
Mn469 O493 2.215 . S
Mn469 O495 2.117 . S
C470 O492 1.234 . S
C470 O493 1.283 . S
C471 O483 1.281 . S
C471 O484 1.236 . S
C472 O494 1.240 . S
C472 O495 1.264 . S
O473 Mn468 2.095 . S
O473 C482 1.250 . S
O474 Mn469 2.121 . S
O474 C482 1.258 . S
C475 N476 1.326 . S
C475 C479 1.460 . S
C475 H481 0.929 . S
N476 Mn469 2.257 . S
N476 C475 1.326 . S
N476 C480 1.362 . S
C477 C478 1.258 . S
C477 C480 1.431 . S
C477 C497 1.449 . S
C478 C477 1.258 . S
C478 C479 1.477 . S
C478 H498 0.931 . S
C479 C475 1.460 . S
C479 C478 1.477 . S
C479 H499 0.930 . S
C480 N476 1.362 . S
C480 C477 1.431 . S
C480 C490 1.476 . S
H481 C475 0.929 . S
C482 O473 1.250 . S
C482 O474 1.258 . S
O483 Mn468 2.162 . S
O483 C471 1.281 . S
O484 Mn468 2.297 . S
O484 C471 1.236 . S
N485 Mn469 2.282 . S
N485 C486 1.328 . S
N485 C490 1.318 . S
C486 N485 1.328 . S
C486 C487 1.457 . S
C486 H491 0.929 . S
C487 C486 1.457 . S
C487 C488 1.291 . S
C487 H500 0.931 . S
C488 C487 1.291 . S
C488 C489 1.373 . S
C488 H501 0.929 . S
C489 C488 1.373 . S
C489 C490 1.396 . S
C489 C496 1.403 . S
C490 C480 1.476 . S
C490 N485 1.318 . S
C490 C489 1.396 . S
H491 C486 0.929 . S
O492 Mn468 2.385 . S
O492 C470 1.234 . S
O493 Mn468 2.209 . S
O493 Mn469 2.215 . S
O493 C470 1.283 . S
O494 Mn468 2.094 . S
O494 C472 1.240 . S
O495 Mn469 2.117 . S
O495 C472 1.264 . S
C496 C489 1.403 . S
C496 C497 1.399 . S
C496 H502 0.929 . S
C497 C477 1.449 . S
C497 C496 1.399 . S
C497 H503 0.930 . S
H498 C478 0.931 . S
H499 C479 0.930 . S
H500 C487 0.931 . S
H501 C488 0.929 . S
H502 C496 0.929 . S
H503 C497 0.930 . S
Mn504 O509 2.095 . S
Mn504 O519 2.162 . S
Mn504 O520 2.297 . S
Mn504 O528 2.385 . S
Mn504 O529 2.209 . S
Mn504 O530 2.094 . S
Mn505 O510 2.121 . S
Mn505 N512 2.257 . S
Mn505 N521 2.282 . S
Mn505 O529 2.215 . S
Mn505 O531 2.117 . S
C506 O528 1.234 . S
C506 O529 1.283 . S
C507 O519 1.281 . S
C507 O520 1.236 . S
C508 O530 1.240 . S
C508 O531 1.264 . S
O509 Mn504 2.095 . S
O509 C518 1.250 . S
O510 Mn505 2.121 . S
O510 C518 1.258 . S
C511 N512 1.326 . S
C511 C515 1.460 . S
C511 H517 0.929 . S
N512 Mn505 2.257 . S
N512 C511 1.326 . S
N512 C516 1.362 . S
C513 C514 1.258 . S
C513 C516 1.431 . S
C513 C533 1.449 . S
C514 C513 1.258 . S
C514 C515 1.477 . S
C514 H534 0.931 . S
C515 C511 1.460 . S
C515 C514 1.477 . S
C515 H535 0.930 . S
C516 N512 1.362 . S
C516 C513 1.431 . S
C516 C526 1.476 . S
H517 C511 0.929 . S
C518 O509 1.250 . S
C518 O510 1.258 . S
O519 Mn504 2.162 . S
O519 C507 1.281 . S
O520 Mn504 2.297 . S
O520 C507 1.236 . S
N521 Mn505 2.282 . S
N521 C522 1.328 . S
N521 C526 1.318 . S
C522 N521 1.328 . S
C522 C523 1.457 . S
C522 H527 0.929 . S
C523 C522 1.457 . S
C523 C524 1.291 . S
C523 H536 0.931 . S
C524 C523 1.291 . S
C524 C525 1.373 . S
C524 H537 0.929 . S
C525 C524 1.373 . S
C525 C526 1.396 . S
C525 C532 1.403 . S
C526 C516 1.476 . S
C526 N521 1.318 . S
C526 C525 1.396 . S
H527 C522 0.929 . S
O528 Mn504 2.385 . S
O528 C506 1.234 . S
O529 Mn504 2.209 . S
O529 Mn505 2.215 . S
O529 C506 1.283 . S
O530 Mn504 2.094 . S
O530 C508 1.240 . S
O531 Mn505 2.117 . S
O531 C508 1.264 . S
C532 C525 1.403 . S
C532 C533 1.399 . S
C532 H538 0.929 . S
C533 C513 1.449 . S
C533 C532 1.399 . S
C533 H539 0.930 . S
H534 C514 0.931 . S
H535 C515 0.930 . S
H536 C523 0.931 . S
H537 C524 0.929 . S
H538 C532 0.929 . S
H539 C533 0.930 . S
Mn540 O545 2.095 . S
Mn540 O555 2.162 . S
Mn540 O556 2.297 . S
Mn540 O564 2.385 . S
Mn540 O565 2.209 . S
Mn540 O566 2.094 . S
Mn541 O546 2.121 . S
Mn541 N548 2.257 . S
Mn541 N557 2.282 . S
Mn541 O565 2.215 . S
Mn541 O567 2.117 . S
C542 O564 1.234 . S
C542 O565 1.283 . S
C543 O555 1.281 . S
C543 O556 1.236 . S
C544 O566 1.240 . S
C544 O567 1.264 . S
O545 Mn540 2.095 . S
O545 C554 1.250 . S
O546 Mn541 2.121 . S
O546 C554 1.258 . S
C547 N548 1.326 . S
C547 C551 1.460 . S
C547 H553 0.929 . S
N548 Mn541 2.257 . S
N548 C547 1.326 . S
N548 C552 1.362 . S
C549 C550 1.258 . S
C549 C552 1.431 . S
C549 C569 1.449 . S
C550 C549 1.258 . S
C550 C551 1.477 . S
C550 H570 0.931 . S
C551 C547 1.460 . S
C551 C550 1.477 . S
C551 H571 0.930 . S
C552 N548 1.362 . S
C552 C549 1.431 . S
C552 C562 1.476 . S
H553 C547 0.929 . S
C554 O545 1.250 . S
C554 O546 1.258 . S
O555 Mn540 2.162 . S
O555 C543 1.281 . S
O556 Mn540 2.297 . S
O556 C543 1.236 . S
N557 Mn541 2.282 . S
N557 C558 1.328 . S
N557 C562 1.318 . S
C558 N557 1.328 . S
C558 C559 1.457 . S
C558 H563 0.929 . S
C559 C558 1.457 . S
C559 C560 1.291 . S
C559 H572 0.931 . S
C560 C559 1.291 . S
C560 C561 1.373 . S
C560 H573 0.929 . S
C561 C560 1.373 . S
C561 C562 1.396 . S
C561 C568 1.403 . S
C562 C552 1.476 . S
C562 N557 1.318 . S
C562 C561 1.396 . S
H563 C558 0.929 . S
O564 Mn540 2.385 . S
O564 C542 1.234 . S
O565 Mn540 2.209 . S
O565 Mn541 2.215 . S
O565 C542 1.283 . S
O566 Mn540 2.094 . S
O566 C544 1.240 . S
O567 Mn541 2.117 . S
O567 C544 1.264 . S
C568 C561 1.403 . S
C568 C569 1.399 . S
C568 H574 0.929 . S
C569 C549 1.449 . S
C569 C568 1.399 . S
C569 H575 0.930 . S
H570 C550 0.931 . S
H571 C551 0.930 . S
H572 C559 0.931 . S
H573 C560 0.929 . S
H574 C568 0.929 . S
H575 C569 0.930 . S
C576 C577 1.349 . S
C576 C578 1.327 . S
C576 H601 0.950 . S
C577 C576 1.349 . S
C577 C593 1.349 . S
C578 C576 1.327 . S
C578 C597 1.429 . S
C578 H602 0.950 . S
C579 C596 1.574 . S
C579 C598 1.368 . S
C579 H603 0.949 . S
H580 C584 0.949 . S
C581 C582 1.349 . S
C581 C583 1.327 . S
C581 H604 0.950 . S
C582 C581 1.349 . S
C582 C594 1.349 . S
C583 C581 1.327 . S
C583 C599 1.429 . S
C583 H605 0.950 . S
C584 H580 0.949 . S
C584 C592 1.574 . S
C584 C600 1.368 . S
H585 C593 0.950 . S
H586 C591 0.950 . S
H587 C592 0.949 . S
H588 C594 0.950 . S
H589 C595 0.950 . S
H590 C596 0.949 . S
C591 H586 0.950 . S
C591 C593 1.327 . S
C591 C597 1.429 . S
C592 C584 1.574 . S
C592 H587 0.949 . S
C592 C598 1.368 . S
C593 C577 1.349 . S
C593 H585 0.950 . S
C593 C591 1.327 . S
C594 C582 1.349 . S
C594 H588 0.950 . S
C594 C595 1.327 . S
C595 H589 0.950 . S
C595 C594 1.327 . S
C595 C599 1.429 . S
C596 C579 1.574 . S
C596 H590 0.949 . S
C596 C600 1.368 . S
C597 C578 1.429 . S
C597 C591 1.429 . S
C597 C598 1.523 . S
C598 C579 1.368 . S
C598 C592 1.368 . S
C598 C597 1.523 . S
C599 C583 1.429 . S
C599 C595 1.429 . S
C599 C600 1.523 . S
C600 C584 1.368 . S
C600 C596 1.368 . S
C600 C599 1.523 . S
H601 C576 0.950 . S
H602 C578 0.950 . S
H603 C579 0.949 . S
H604 C581 0.950 . S
H605 C583 0.950 . S
C606 C607 1.349 . S
C606 C608 1.327 . S
C606 H631 0.950 . S
C607 C606 1.349 . S
C607 C623 1.349 . S
C608 C606 1.327 . S
C608 C627 1.429 . S
C608 H632 0.950 . S
C609 C626 1.574 . S
C609 C628 1.368 . S
C609 H633 0.949 . S
H610 C614 0.949 . S
C611 C612 1.349 . S
C611 C613 1.327 . S
C611 H634 0.950 . S
C612 C611 1.349 . S
C612 C624 1.349 . S
C613 C611 1.327 . S
C613 C629 1.429 . S
C613 H635 0.950 . S
C614 H610 0.949 . S
C614 C622 1.574 . S
C614 C630 1.368 . S
H615 C623 0.950 . S
H616 C621 0.950 . S
H617 C622 0.949 . S
H618 C624 0.950 . S
H619 C625 0.950 . S
H620 C626 0.949 . S
C621 H616 0.950 . S
C621 C623 1.327 . S
C621 C627 1.429 . S
C622 C614 1.574 . S
C622 H617 0.949 . S
C622 C628 1.368 . S
C623 C607 1.349 . S
C623 H615 0.950 . S
C623 C621 1.327 . S
C624 C612 1.349 . S
C624 H618 0.950 . S
C624 C625 1.327 . S
C625 H619 0.950 . S
C625 C624 1.327 . S
C625 C629 1.429 . S
C626 C609 1.574 . S
C626 H620 0.949 . S
C626 C630 1.368 . S
C627 C608 1.429 . S
C627 C621 1.429 . S
C627 C628 1.523 . S
C628 C609 1.368 . S
C628 C622 1.368 . S
C628 C627 1.523 . S
C629 C613 1.429 . S
C629 C625 1.429 . S
C629 C630 1.523 . S
C630 C614 1.368 . S
C630 C626 1.368 . S
C630 C629 1.523 . S
H631 C606 0.950 . S
H632 C608 0.950 . S
H633 C609 0.949 . S
H634 C611 0.950 . S
H635 C613 0.950 . S
C636 C637 1.349 . S
C636 C638 1.327 . S
C636 H661 0.950 . S
C637 C636 1.349 . S
C637 C653 1.349 . S
C638 C636 1.327 . S
C638 C657 1.429 . S
C638 H662 0.950 . S
C639 C656 1.574 . S
C639 C658 1.368 . S
C639 H663 0.949 . S
H640 C644 0.949 . S
C641 C642 1.349 . S
C641 C643 1.327 . S
C641 H664 0.950 . S
C642 C641 1.349 . S
C642 C654 1.349 . S
C643 C641 1.327 . S
C643 C659 1.429 . S
C643 H665 0.950 . S
C644 H640 0.949 . S
C644 C652 1.574 . S
C644 C660 1.368 . S
H645 C653 0.950 . S
H646 C651 0.950 . S
H647 C652 0.949 . S
H648 C654 0.950 . S
H649 C655 0.950 . S
H650 C656 0.949 . S
C651 H646 0.950 . S
C651 C653 1.327 . S
C651 C657 1.429 . S
C652 C644 1.574 . S
C652 H647 0.949 . S
C652 C658 1.368 . S
C653 C637 1.349 . S
C653 H645 0.950 . S
C653 C651 1.327 . S
C654 C642 1.349 . S
C654 H648 0.950 . S
C654 C655 1.327 . S
C655 H649 0.950 . S
C655 C654 1.327 . S
C655 C659 1.429 . S
C656 C639 1.574 . S
C656 H650 0.949 . S
C656 C660 1.368 . S
C657 C638 1.429 . S
C657 C651 1.429 . S
C657 C658 1.523 . S
C658 C639 1.368 . S
C658 C652 1.368 . S
C658 C657 1.523 . S
C659 C643 1.429 . S
C659 C655 1.429 . S
C659 C660 1.523 . S
C660 C644 1.368 . S
C660 C656 1.368 . S
C660 C659 1.523 . S
H661 C636 0.950 . S
H662 C638 0.950 . S
H663 C639 0.949 . S
H664 C641 0.950 . S
H665 C643 0.950 . S
C666 C667 1.349 . S
C666 C668 1.327 . S
C666 H691 0.950 . S
C667 C666 1.349 . S
C667 C683 1.349 . S
C668 C666 1.327 . S
C668 C687 1.429 . S
C668 H692 0.950 . S
C669 C686 1.574 . S
C669 C688 1.368 . S
C669 H693 0.949 . S
H670 C674 0.949 . S
C671 C672 1.349 . S
C671 C673 1.327 . S
C671 H694 0.950 . S
C672 C671 1.349 . S
C672 C684 1.349 . S
C673 C671 1.327 . S
C673 C689 1.429 . S
C673 H695 0.950 . S
C674 H670 0.949 . S
C674 C682 1.574 . S
C674 C690 1.368 . S
H675 C683 0.950 . S
H676 C681 0.950 . S
H677 C682 0.949 . S
H678 C684 0.950 . S
H679 C685 0.950 . S
H680 C686 0.949 . S
C681 H676 0.950 . S
C681 C683 1.327 . S
C681 C687 1.429 . S
C682 C674 1.574 . S
C682 H677 0.949 . S
C682 C688 1.368 . S
C683 C667 1.349 . S
C683 H675 0.950 . S
C683 C681 1.327 . S
C684 C672 1.349 . S
C684 H678 0.950 . S
C684 C685 1.327 . S
C685 H679 0.950 . S
C685 C684 1.327 . S
C685 C689 1.429 . S
C686 C669 1.574 . S
C686 H680 0.949 . S
C686 C690 1.368 . S
C687 C668 1.429 . S
C687 C681 1.429 . S
C687 C688 1.523 . S
C688 C669 1.368 . S
C688 C682 1.368 . S
C688 C687 1.523 . S
C689 C673 1.429 . S
C689 C685 1.429 . S
C689 C690 1.523 . S
C690 C674 1.368 . S
C690 C686 1.368 . S
C690 C689 1.523 . S
H691 C666 0.950 . S
H692 C668 0.950 . S
H693 C669 0.949 . S
H694 C671 0.950 . S
H695 C673 0.950 . S
C696 C697 1.349 . S
C696 C698 1.327 1_565 S
C696 H721 0.950 . S
C697 C696 1.349 . S
C697 C713 1.349 1_565 S
C698 C696 1.327 1_545 S
C698 C717 1.429 . S
C698 H722 0.950 . S
C699 C716 1.574 . S
C699 C718 1.368 . S
C699 H723 0.949 . S
H700 C704 0.949 . S
C701 C702 1.349 . S
C701 C703 1.327 1_556 S
C701 H724 0.950 . S
C702 C701 1.349 . S
C702 C714 1.349 . S
C703 C701 1.327 1_554 S
C703 C719 1.429 1_554 S
C703 H725 0.950 . S
C704 H700 0.949 . S
C704 C712 1.574 1_556 S
C704 C720 1.368 1_556 S
H705 C713 0.950 . S
H706 C711 0.950 . S
H707 C712 0.949 . S
H708 C714 0.950 . S
H709 C715 0.950 . S
H710 C716 0.949 . S
C711 H706 0.950 . S
C711 C713 1.327 . S
C711 C717 1.429 . S
C712 C704 1.574 1_554 S
C712 H707 0.949 . S
C712 C718 1.368 . S
C713 C697 1.349 1_545 S
C713 H705 0.950 . S
C713 C711 1.327 . S
C714 C702 1.349 . S
C714 H708 0.950 . S
C714 C715 1.327 . S
C715 H709 0.950 . S
C715 C714 1.327 . S
C715 C719 1.429 . S
C716 C699 1.574 . S
C716 H710 0.949 . S
C716 C720 1.368 . S
C717 C698 1.429 . S
C717 C711 1.429 . S
C717 C718 1.523 . S
C718 C699 1.368 . S
C718 C712 1.368 . S
C718 C717 1.523 . S
C719 C703 1.429 1_556 S
C719 C715 1.429 . S
C719 C720 1.523 1_556 S
C720 C704 1.368 1_554 S
C720 C716 1.368 . S
C720 C719 1.523 1_554 S
H721 C696 0.950 . S
H722 C698 0.950 . S
H723 C699 0.949 . S
H724 C701 0.950 . S
H725 C703 0.950 . S
C726 C727 1.349 . S
C726 C728 1.327 . S
C726 H751 0.950 . S
C727 C726 1.349 . S
C727 C743 1.349 . S
C728 C726 1.327 . S
C728 C747 1.429 . S
C728 H752 0.968 . S
C729 C746 1.574 . S
C729 C748 1.368 . S
C729 H753 0.948 . S
H730 C734 0.949 . S
C731 C732 1.349 . S
C731 C733 1.327 1_655 S
C731 H754 0.950 . S
C732 C731 1.349 . S
C732 C744 1.349 1_655 S
C733 C731 1.327 1_455 S
C733 C749 1.429 . S
C733 H755 0.950 . S
C734 H730 0.949 . S
C734 C742 1.574 . S
C734 C750 1.368 . S
H735 C743 0.950 . S
H736 C741 0.950 . S
H737 C742 0.949 . S
H738 C744 0.950 1_655 S
H739 C745 0.950 . S
H740 C746 0.949 . S
C741 H736 0.950 . S
C741 C743 1.327 . S
C741 C747 1.429 . S
C742 C734 1.574 . S
C742 H737 0.949 . S
C742 C748 1.368 . S
C743 C727 1.349 . S
C743 H735 0.950 . S
C743 C741 1.327 . S
C744 C732 1.349 1_455 S
C744 H738 0.950 1_455 S
C744 C745 1.327 . S
C745 H739 0.950 . S
C745 C744 1.327 . S
C745 C749 1.429 . S
C746 C729 1.574 . S
C746 H740 0.949 . S
C746 C750 1.368 . S
C747 C728 1.429 . S
C747 C741 1.429 . S
C747 C748 1.523 1_554 S
C748 C729 1.368 . S
C748 C742 1.368 . S
C748 C747 1.523 1_556 S
C749 C733 1.429 . S
C749 C745 1.429 . S
C749 C750 1.523 . S
C750 C734 1.368 . S
C750 C746 1.368 . S
C750 C749 1.523 . S
H751 C726 0.950 . S
H752 C728 0.968 . S
H753 C729 0.948 . S
H754 C731 0.950 . S
H755 C733 0.950 . S
C756 C757 1.349 . S
C756 C758 1.327 . S
C756 H781 0.950 . S
C757 C756 1.349 . S
C757 C773 1.349 1_556 S
C758 C756 1.327 . S
C758 C777 1.429 . S
C758 H782 0.950 . S
C759 C776 1.574 . S
C759 C778 1.368 . S
C759 H783 0.949 . S
H760 C764 0.949 . S
C761 C762 1.349 . S
C761 C763 1.327 1_545 S
C761 H784 0.950 . S
C762 C761 1.349 . S
C762 C774 1.349 . S
C763 C761 1.327 1_565 S
C763 C779 1.429 . S
C763 H785 0.950 . S
C764 H760 0.949 . S
C764 C772 1.574 . S
C764 C780 1.368 1_556 S
H765 C773 0.950 . S
H766 C771 0.950 . S
H767 C772 0.949 . S
H768 C774 0.950 . S
H769 C775 0.948 1_556 S
H770 C776 0.949 . S
C771 H766 0.950 . S
C771 C773 1.327 . S
C771 C777 1.429 1_554 S
C772 C764 1.574 . S
C772 H767 0.949 . S
C772 C778 1.368 1_556 S
C773 C757 1.349 1_554 S
C773 H765 0.950 . S
C773 C771 1.327 . S
C774 C762 1.349 . S
C774 H768 0.950 . S
C774 C775 1.327 1_545 S
C775 H769 0.948 1_554 S
C775 C774 1.327 1_565 S
C775 C779 1.429 . S
C776 C759 1.574 . S
C776 H770 0.949 . S
C776 C780 1.368 . S
C777 C758 1.429 . S
C777 C771 1.429 1_556 S
C777 C778 1.523 1_556 S
C778 C759 1.368 . S
C778 C772 1.368 1_554 S
C778 C777 1.523 1_554 S
C779 C763 1.429 . S
C779 C775 1.429 . S
C779 C780 1.523 . S
C780 C764 1.368 1_554 S
C780 C776 1.368 . S
C780 C779 1.523 . S
H781 C756 0.950 . S
H782 C758 0.950 . S
H783 C759 0.949 . S
H784 C761 0.950 . S
H785 C763 0.950 . S
C786 C787 1.349 . S
C786 C788 1.327 . S
C786 H811 0.950 . S
C787 C786 1.349 . S
C787 C803 1.349 . S
C788 C786 1.327 . S
C788 C807 1.429 . S
C788 H812 0.950 . S
C789 C806 1.574 . S
C789 C808 1.368 . S
C789 H813 0.949 . S
H790 C794 0.949 . S
C791 C792 1.349 . S
C791 C793 1.327 1_455 S
C791 H814 0.950 . S
C792 C791 1.349 . S
C792 C804 1.349 . S
C793 C791 1.327 1_655 S
C793 C809 1.429 . S
C793 H815 0.950 . S
C794 H790 0.949 . S
C794 C802 1.574 . S
C794 C810 1.368 . S
H795 C803 0.950 . S
H796 C801 0.950 . S
H797 C802 0.960 . S
H798 C804 0.950 . S
H799 C805 0.950 . S
H800 C806 0.949 . S
C801 H796 0.950 . S
C801 C803 1.327 . S
C801 C807 1.429 . S
C802 C794 1.574 . S
C802 H797 0.960 . S
C802 C808 1.368 . S
C803 C787 1.349 . S
C803 H795 0.950 . S
C803 C801 1.327 . S
C804 C792 1.349 . S
C804 H798 0.950 . S
C804 C805 1.327 1_455 S
C805 H799 0.950 . S
C805 C804 1.327 1_655 S
C805 C809 1.429 . S
C806 C789 1.574 . S
C806 H800 0.949 . S
C806 C810 1.368 . S
C807 C788 1.429 . S
C807 C801 1.429 . S
C807 C808 1.523 1_554 S
C808 C789 1.368 . S
C808 C802 1.368 . S
C808 C807 1.523 1_556 S
C809 C793 1.429 . S
C809 C805 1.429 . S
C809 C810 1.523 . S
C810 C794 1.368 . S
C810 C806 1.368 . S
C810 C809 1.523 . S
H811 C786 0.950 . S
H812 C788 0.950 . S
H813 C789 0.949 . S
H814 C791 0.950 . S
H815 C793 0.950 . S
C816 C817 1.349 . S
C816 C818 1.327 . S
C816 H841 0.950 . S
C817 C816 1.349 . S
C817 C833 1.349 . S
C818 C816 1.327 . S
C818 C837 1.429 . S
C818 H842 0.950 . S
C819 C836 1.574 . S
C819 C838 1.368 . S
C819 H843 0.949 . S
H820 C824 0.949 . S
C821 C822 1.349 . S
C821 C823 1.327 1_545 S
C821 H844 0.950 . S
C822 C821 1.349 . S
C822 C834 1.349 . S
C823 C821 1.327 1_565 S
C823 C839 1.429 . S
C823 H845 0.950 . S
C824 H820 0.949 . S
C824 C832 1.574 . S
C824 C840 1.368 . S
H825 C833 0.950 . S
H826 C831 0.950 . S
H827 C832 0.949 . S
H828 C834 0.950 . S
H829 C835 0.950 . S
H830 C836 0.949 . S
C831 H826 0.950 . S
C831 C833 1.327 . S
C831 C837 1.429 . S
C832 C824 1.574 . S
C832 H827 0.949 . S
C832 C838 1.368 . S
C833 C817 1.349 . S
C833 H825 0.950 . S
C833 C831 1.327 . S
C834 C822 1.349 . S
C834 H828 0.950 . S
C834 C835 1.327 1_545 S
C835 H829 0.950 . S
C835 C834 1.327 1_565 S
C835 C839 1.429 . S
C836 C819 1.574 . S
C836 H830 0.949 . S
C836 C840 1.368 . S
C837 C818 1.429 . S
C837 C831 1.429 . S
C837 C838 1.523 . S
C838 C819 1.368 . S
C838 C832 1.368 . S
C838 C837 1.523 . S
C839 C823 1.429 . S
C839 C835 1.429 . S
C839 C840 1.523 . S
C840 C824 1.368 . S
C840 C836 1.368 . S
C840 C839 1.523 . S
H841 C816 0.950 . S
H842 C818 0.950 . S
H843 C819 0.949 . S
H844 C821 0.950 . S
H845 C823 0.950 . S
C846 C847 1.349 . S
C846 C848 1.327 1_455 S
C846 H871 0.950 . S
C847 C846 1.349 . S
C847 C863 1.349 . S
C848 C846 1.327 1_655 S
C848 C867 1.429 . S
C848 H872 0.950 . S
C849 C866 1.574 . S
C849 C868 1.368 . S
C849 H873 0.949 . S
H850 C854 0.949 . S
C851 C852 1.349 . S
C851 C853 1.327 . S
C851 H874 0.950 . S
C852 C851 1.349 . S
C852 C864 1.349 . S
C853 C851 1.327 . S
C853 C869 1.429 . S
C853 H875 0.950 . S
C854 H850 0.949 . S
C854 C862 1.574 . S
C854 C870 1.368 . S
H855 C863 0.950 . S
H856 C861 0.950 . S
H857 C862 0.949 . S
H858 C864 0.950 . S
H859 C865 0.950 . S
H860 C866 0.949 . S
C861 H856 0.950 . S
C861 C863 1.327 1_655 S
C861 C867 1.429 . S
C862 C854 1.574 . S
C862 H857 0.949 . S
C862 C868 1.368 . S
C863 C847 1.349 . S
C863 H855 0.950 . S
C863 C861 1.327 1_455 S
C864 C852 1.349 . S
C864 H858 0.950 . S
C864 C865 1.327 . S
C865 H859 0.950 . S
C865 C864 1.327 . S
C865 C869 1.429 . S
C866 C849 1.574 . S
C866 H860 0.949 . S
C866 C870 1.368 . S
C867 C848 1.429 . S
C867 C861 1.429 . S
C867 C868 1.523 . S
C868 C849 1.368 . S
C868 C862 1.368 . S
C868 C867 1.523 . S
C869 C853 1.429 . S
C869 C865 1.429 . S
C869 C870 1.523 . S
C870 C854 1.368 . S
C870 C866 1.368 . S
C870 C869 1.523 . S
H871 C846 0.950 . S
H872 C848 0.950 . S
H873 C849 0.949 . S
H874 C851 0.950 . S
H875 C853 0.950 . S
C876 C877 1.349 1_545 S
C876 C878 1.327 . S
C876 H901 0.949 1_545 S
C877 C876 1.349 1_565 S
C877 C893 1.349 . S
C878 C876 1.327 . S
C878 C897 1.429 . S
C878 H902 0.950 . S
C879 C896 1.574 . S
C879 C898 1.368 . S
C879 H903 0.949 . S
H880 C884 0.949 . S
C881 C882 1.349 . S
C881 C883 1.327 . S
C881 H904 0.950 . S
C882 C881 1.349 . S
C882 C894 1.349 . S
C883 C881 1.327 . S
C883 C899 1.429 . S
C883 H905 0.950 . S
C884 H880 0.949 . S
C884 C892 1.574 . S
C884 C900 1.368 . S
H885 C893 0.950 . S
H886 C891 0.950 . S
H887 C892 0.949 . S
H888 C894 0.950 . S
H889 C895 0.950 . S
H890 C896 0.949 . S
C891 H886 0.950 . S
C891 C893 1.327 1_545 S
C891 C897 1.429 . S
C892 C884 1.574 . S
C892 H887 0.949 . S
C892 C898 1.368 . S
C893 C877 1.349 . S
C893 H885 0.950 . S
C893 C891 1.327 1_565 S
C894 C882 1.349 . S
C894 H888 0.950 . S
C894 C895 1.327 . S
C895 H889 0.950 . S
C895 C894 1.327 . S
C895 C899 1.429 . S
C896 C879 1.574 . S
C896 H890 0.949 . S
C896 C900 1.368 . S
C897 C878 1.429 . S
C897 C891 1.429 . S
C897 C898 1.523 . S
C898 C879 1.368 . S
C898 C892 1.368 . S
C898 C897 1.523 . S
C899 C883 1.429 . S
C899 C895 1.429 . S
C899 C900 1.523 . S
C900 C884 1.368 . S
C900 C896 1.368 . S
C900 C899 1.523 . S
H901 C876 0.949 1_565 S
H902 C878 0.950 . S
H903 C879 0.949 . S
H904 C881 0.950 . S
H905 C883 0.950 . S
C906 C907 1.349 . S
C906 C908 1.327 1_655 S
C906 H931 0.950 . S
C907 C906 1.349 . S
C907 C923 1.349 1_655 S
C908 C906 1.327 1_455 S
C908 C927 1.429 . S
C908 H932 0.950 . S
C909 C926 1.574 . S
C909 C928 1.368 . S
C909 H933 0.949 . S
H910 C914 0.949 . S
C911 C912 1.349 . S
C911 C913 1.327 . S
C911 H934 0.950 . S
C912 C911 1.349 . S
C912 C924 1.349 . S
C913 C911 1.327 . S
C913 C929 1.429 . S
C913 H935 0.950 . S
C914 H910 0.949 . S
C914 C922 1.574 . S
C914 C930 1.368 . S
H915 C923 0.950 . S
H916 C921 0.950 . S
H917 C922 0.949 . S
H918 C924 0.950 . S
H919 C925 0.950 . S
H920 C926 0.949 . S
C921 H916 0.950 . S
C921 C923 1.327 . S
C921 C927 1.429 . S
C922 C914 1.574 . S
C922 H917 0.949 . S
C922 C928 1.368 . S
C923 C907 1.349 1_455 S
C923 H915 0.950 . S
C923 C921 1.327 . S
C924 C912 1.349 . S
C924 H918 0.950 . S
C924 C925 1.327 . S
C925 H919 0.950 . S
C925 C924 1.327 . S
C925 C929 1.429 . S
C926 C909 1.574 . S
C926 H920 0.949 . S
C926 C930 1.368 . S
C927 C908 1.429 . S
C927 C921 1.429 . S
C927 C928 1.523 . S
C928 C909 1.368 . S
C928 C922 1.368 . S
C928 C927 1.523 . S
C929 C913 1.429 . S
C929 C925 1.429 . S
C929 C930 1.523 . S
C930 C914 1.368 . S
C930 C926 1.368 . S
C930 C929 1.523 . S
H931 C906 0.950 . S
H932 C908 0.950 . S
H933 C909 0.949 . S
H934 C911 0.950 . S
H935 C913 0.950 . S
C936 C937 1.349 . S
C936 C938 1.327 . S
C936 H961 0.950 . S
C937 C936 1.349 . S
C937 C953 1.349 . S
C938 C936 1.327 . S
C938 C957 1.429 . S
C938 H962 0.950 . S
C939 C956 1.574 . S
C939 C958 1.368 . S
C939 H963 0.949 . S
H940 C944 0.949 . S
C941 C942 1.349 . S
C941 C943 1.327 . S
C941 H964 0.950 . S
C942 C941 1.349 . S
C942 C954 1.349 . S
C943 C941 1.327 . S
C943 C959 1.429 . S
C943 H965 0.950 . S
C944 H940 0.949 . S
C944 C952 1.574 . S
C944 C960 1.368 . S
H945 C953 0.950 . S
H946 C951 0.950 . S
H947 C952 0.949 . S
H948 C954 0.950 . S
H949 C955 0.950 . S
H950 C956 0.949 . S
C951 H946 0.950 . S
C951 C953 1.327 . S
C951 C957 1.429 . S
C952 C944 1.574 . S
C952 H947 0.949 . S
C952 C958 1.368 . S
C953 C937 1.349 . S
C953 H945 0.950 . S
C953 C951 1.327 . S
C954 C942 1.349 . S
C954 H948 0.950 . S
C954 C955 1.327 . S
C955 H949 0.950 . S
C955 C954 1.327 . S
C955 C959 1.429 . S
C956 C939 1.574 . S
C956 H950 0.949 . S
C956 C960 1.368 . S
C957 C938 1.429 . S
C957 C951 1.429 . S
C957 C958 1.523 . S
C958 C939 1.368 . S
C958 C952 1.368 . S
C958 C957 1.523 . S
C959 C943 1.429 . S
C959 C955 1.429 . S
C959 C960 1.523 . S
C960 C944 1.368 . S
C960 C956 1.368 . S
C960 C959 1.523 . S
H961 C936 0.950 . S
H962 C938 0.950 . S
H963 C939 0.949 . S
H964 C941 0.950 . S
H965 C943 0.950 . S
C966 C967 1.349 . S
C966 C968 1.327 . S
C966 H991 0.950 . S
C967 C966 1.349 . S
C967 C983 1.349 . S
C968 C966 1.327 . S
C968 C987 1.429 . S
C968 H992 0.950 . S
C969 C986 1.574 . S
C969 C988 1.368 . S
C969 H993 0.949 . S
H970 C974 0.949 . S
C971 C972 1.349 . S
C971 C973 1.327 . S
C971 H994 0.950 . S
C972 C971 1.349 . S
C972 C984 1.349 . S
C973 C971 1.327 . S
C973 C989 1.429 . S
C973 H995 0.950 . S
C974 H970 0.949 . S
C974 C982 1.574 . S
C974 C990 1.368 . S
H975 C983 0.950 . S
H976 C981 0.950 . S
H977 C982 0.949 . S
H978 C984 0.950 . S
H979 C985 0.950 . S
H980 C986 0.949 . S
C981 H976 0.950 . S
C981 C983 1.327 . S
C981 C987 1.429 . S
C982 C974 1.574 . S
C982 H977 0.949 . S
C982 C988 1.368 . S
C983 C967 1.349 . S
C983 H975 0.950 . S
C983 C981 1.327 . S
C984 C972 1.349 . S
C984 H978 0.950 . S
C984 C985 1.327 . S
C985 H979 0.950 . S
C985 C984 1.327 . S
C985 C989 1.429 . S
C986 C969 1.574 . S
C986 H980 0.949 . S
C986 C990 1.368 . S
C987 C968 1.429 . S
C987 C981 1.429 . S
C987 C988 1.523 . S
C988 C969 1.368 . S
C988 C982 1.368 . S
C988 C987 1.523 . S
C989 C973 1.429 . S
C989 C985 1.429 . S
C989 C990 1.523 . S
C990 C974 1.368 . S
C990 C986 1.368 . S
C990 C989 1.523 . S
H991 C966 0.950 . S
H992 C968 0.950 . S
H993 C969 0.949 . S
H994 C971 0.950 . S
H995 C973 0.950 . S
C996 C997 1.349 . S
C996 C998 1.327 . S
C996 H1021 0.950 . S
C997 C996 1.349 . S
C997 C1013 1.349 . S
C998 C996 1.327 . S
C998 C1017 1.429 . S
C998 H1022 0.950 . S
C999 C1016 1.574 . S
C999 C1018 1.368 . S
C999 H1023 0.949 . S
H1000 C1004 0.949 . S
C1001 C1002 1.349 . S
C1001 C1003 1.327 . S
C1001 H1024 0.950 . S
C1002 C1001 1.349 . S
C1002 C1014 1.349 . S
C1003 C1001 1.327 . S
C1003 C1019 1.429 . S
C1003 H1025 0.950 . S
C1004 H1000 0.949 . S
C1004 C1012 1.574 . S
C1004 C1020 1.368 . S
H1005 C1013 0.950 . S
H1006 C1011 0.950 . S
H1007 C1012 0.949 . S
H1008 C1014 0.950 . S
H1009 C1015 0.950 . S
H1010 C1016 0.949 . S
C1011 H1006 0.950 . S
C1011 C1013 1.327 . S
C1011 C1017 1.429 . S
C1012 C1004 1.574 . S
C1012 H1007 0.949 . S
C1012 C1018 1.368 . S
C1013 C997 1.349 . S
C1013 H1005 0.950 . S
C1013 C1011 1.327 . S
C1014 C1002 1.349 . S
C1014 H1008 0.950 . S
C1014 C1015 1.327 . S
C1015 H1009 0.950 . S
C1015 C1014 1.327 . S
C1015 C1019 1.429 . S
C1016 C999 1.574 . S
C1016 H1010 0.949 . S
C1016 C1020 1.368 . S
C1017 C998 1.429 . S
C1017 C1011 1.429 . S
C1017 C1018 1.523 . S
C1018 C999 1.368 . S
C1018 C1012 1.368 . S
C1018 C1017 1.523 . S
C1019 C1003 1.429 . S
C1019 C1015 1.429 . S
C1019 C1020 1.523 . S
C1020 C1004 1.368 . S
C1020 C1016 1.368 . S
C1020 C1019 1.523 . S
H1021 C996 0.950 . S
H1022 C998 0.950 . S
H1023 C999 0.949 . S
H1024 C1001 0.950 . S
H1025 C1003 0.950 . S
C1026 C1027 1.349 . S
C1026 C1028 1.327 . S
C1026 H1051 0.950 . S
C1027 C1026 1.349 . S
C1027 C1043 1.349 . S
C1028 C1026 1.327 . S
C1028 C1047 1.429 . S
C1028 H1052 0.950 . S
C1029 C1046 1.574 . S
C1029 C1048 1.368 . S
C1029 H1053 0.949 . S
H1030 C1034 0.949 . S
C1031 C1032 1.349 . S
C1031 C1033 1.327 . S
C1031 H1054 0.950 . S
C1032 C1031 1.349 . S
C1032 C1044 1.349 . S
C1033 C1031 1.327 . S
C1033 C1049 1.429 . S
C1033 H1055 0.950 . S
C1034 H1030 0.949 . S
C1034 C1042 1.574 . S
C1034 C1050 1.368 . S
H1035 C1043 0.950 . S
H1036 C1041 0.950 . S
H1037 C1042 0.949 . S
H1038 C1044 0.950 . S
H1039 C1045 0.950 . S
H1040 C1046 0.949 . S
C1041 H1036 0.950 . S
C1041 C1043 1.327 . S
C1041 C1047 1.429 . S
C1042 C1034 1.574 . S
C1042 H1037 0.949 . S
C1042 C1048 1.368 . S
C1043 C1027 1.349 . S
C1043 H1035 0.950 . S
C1043 C1041 1.327 . S
C1044 C1032 1.349 . S
C1044 H1038 0.950 . S
C1044 C1045 1.327 . S
C1045 H1039 0.950 . S
C1045 C1044 1.327 . S
C1045 C1049 1.429 . S
C1046 C1029 1.574 . S
C1046 H1040 0.949 . S
C1046 C1050 1.368 . S
C1047 C1028 1.429 . S
C1047 C1041 1.429 . S
C1047 C1048 1.523 . S
C1048 C1029 1.368 . S
C1048 C1042 1.368 . S
C1048 C1047 1.523 . S
C1049 C1033 1.429 . S
C1049 C1045 1.429 . S
C1049 C1050 1.523 . S
C1050 C1034 1.368 . S
C1050 C1046 1.368 . S
C1050 C1049 1.523 . S
H1051 C1026 0.950 . S
H1052 C1028 0.950 . S
H1053 C1029 0.949 . S
H1054 C1031 0.950 . S
H1055 C1033 0.950 . S
C1056 C1057 1.349 . S
C1056 C1058 1.327 . S
C1056 H1081 0.950 . S
C1057 C1056 1.349 . S
C1057 C1073 1.349 . S
C1058 C1056 1.327 . S
C1058 C1077 1.429 . S
C1058 H1082 0.950 . S
C1059 C1076 1.574 . S
C1059 C1078 1.368 . S
C1059 H1083 0.949 . S
H1060 C1064 0.949 . S
C1061 C1062 1.349 . S
C1061 C1063 1.327 . S
C1061 H1084 0.950 . S
C1062 C1061 1.349 . S
C1062 C1074 1.349 . S
C1063 C1061 1.327 . S
C1063 C1079 1.429 . S
C1063 H1085 0.950 . S
C1064 H1060 0.949 . S
C1064 C1072 1.574 . S
C1064 C1080 1.368 . S
H1065 C1073 0.950 . S
H1066 C1071 0.950 . S
H1067 C1072 0.949 . S
H1068 C1074 0.950 . S
H1069 C1075 0.950 . S
H1070 C1076 0.949 . S
C1071 H1066 0.950 . S
C1071 C1073 1.327 . S
C1071 C1077 1.429 . S
C1072 C1064 1.574 . S
C1072 H1067 0.949 . S
C1072 C1078 1.368 . S
C1073 C1057 1.349 . S
C1073 H1065 0.950 . S
C1073 C1071 1.327 . S
C1074 C1062 1.349 . S
C1074 H1068 0.950 . S
C1074 C1075 1.327 . S
C1075 H1069 0.950 . S
C1075 C1074 1.327 . S
C1075 C1079 1.429 . S
C1076 C1059 1.574 . S
C1076 H1070 0.949 . S
C1076 C1080 1.368 . S
C1077 C1058 1.429 . S
C1077 C1071 1.429 . S
C1077 C1078 1.523 . S
C1078 C1059 1.368 . S
C1078 C1072 1.368 . S
C1078 C1077 1.523 . S
C1079 C1063 1.429 . S
C1079 C1075 1.429 . S
C1079 C1080 1.523 . S
C1080 C1064 1.368 . S
C1080 C1076 1.368 . S
C1080 C1079 1.523 . S
H1081 C1056 0.950 . S
H1082 C1058 0.950 . S
H1083 C1059 0.949 . S
H1084 C1061 0.950 . S
H1085 C1063 0.950 . S
C1086 C1087 1.349 . S
C1086 C1088 1.327 . S
C1086 H1111 0.950 . S
C1087 C1086 1.349 . S
C1087 C1103 1.349 . S
C1088 C1086 1.327 . S
C1088 C1107 1.429 . S
C1088 H1112 0.950 . S
C1089 C1106 1.574 . S
C1089 C1108 1.368 . S
C1089 H1113 0.949 . S
H1090 C1094 0.949 . S
C1091 C1092 1.349 . S
C1091 C1093 1.327 . S
C1091 H1114 0.950 . S
C1092 C1091 1.349 . S
C1092 C1104 1.349 . S
C1093 C1091 1.327 . S
C1093 C1109 1.429 . S
C1093 H1115 0.950 . S
C1094 H1090 0.949 . S
C1094 C1102 1.574 . S
C1094 C1110 1.368 . S
H1095 C1103 0.950 . S
H1096 C1101 0.950 . S
H1097 C1102 0.949 . S
H1098 C1104 0.950 . S
H1099 C1105 0.950 . S
H1100 C1106 0.949 . S
C1101 H1096 0.950 . S
C1101 C1103 1.327 . S
C1101 C1107 1.429 . S
C1102 C1094 1.574 . S
C1102 H1097 0.949 . S
C1102 C1108 1.368 . S
C1103 C1087 1.349 . S
C1103 H1095 0.950 . S
C1103 C1101 1.327 . S
C1104 C1092 1.349 . S
C1104 H1098 0.950 . S
C1104 C1105 1.327 . S
C1105 H1099 0.950 . S
C1105 C1104 1.327 . S
C1105 C1109 1.429 . S
C1106 C1089 1.574 . S
C1106 H1100 0.949 . S
C1106 C1110 1.368 . S
C1107 C1088 1.429 . S
C1107 C1101 1.429 . S
C1107 C1108 1.523 . S
C1108 C1089 1.368 . S
C1108 C1102 1.368 . S
C1108 C1107 1.523 . S
C1109 C1093 1.429 . S
C1109 C1105 1.429 . S
C1109 C1110 1.523 . S
C1110 C1094 1.368 . S
C1110 C1106 1.368 . S
C1110 C1109 1.523 . S
H1111 C1086 0.950 . S
H1112 C1088 0.950 . S
H1113 C1089 0.949 . S
H1114 C1091 0.950 . S
H1115 C1093 0.950 . S
C1116 C1117 1.349 . S
C1116 C1118 1.327 . S
C1116 H1141 0.950 . S
C1117 C1116 1.349 . S
C1117 C1133 1.349 . S
C1118 C1116 1.327 . S
C1118 C1137 1.429 . S
C1118 H1142 0.950 . S
C1119 C1136 1.574 . S
C1119 C1138 1.368 . S
C1119 H1143 0.949 . S
H1120 C1124 0.949 . S
C1121 C1122 1.349 . S
C1121 C1123 1.327 . S
C1121 H1144 0.950 . S
C1122 C1121 1.349 . S
C1122 C1134 1.349 . S
C1123 C1121 1.327 . S
C1123 C1139 1.429 . S
C1123 H1145 0.950 . S
C1124 H1120 0.949 . S
C1124 C1132 1.574 . S
C1124 C1140 1.368 . S
H1125 C1133 0.950 . S
H1126 C1131 0.950 . S
H1127 C1132 0.949 . S
H1128 C1134 0.950 . S
H1129 C1135 0.950 . S
H1130 C1136 0.949 . S
C1131 H1126 0.950 . S
C1131 C1133 1.327 . S
C1131 C1137 1.429 . S
C1132 C1124 1.574 . S
C1132 H1127 0.949 . S
C1132 C1138 1.368 . S
C1133 C1117 1.349 . S
C1133 H1125 0.950 . S
C1133 C1131 1.327 . S
C1134 C1122 1.349 . S
C1134 H1128 0.950 . S
C1134 C1135 1.327 . S
C1135 H1129 0.950 . S
C1135 C1134 1.327 . S
C1135 C1139 1.429 . S
C1136 C1119 1.574 . S
C1136 H1130 0.949 . S
C1136 C1140 1.368 . S
C1137 C1118 1.429 . S
C1137 C1131 1.429 . S
C1137 C1138 1.523 . S
C1138 C1119 1.368 . S
C1138 C1132 1.368 . S
C1138 C1137 1.523 . S
C1139 C1123 1.429 . S
C1139 C1135 1.429 . S
C1139 C1140 1.523 . S
C1140 C1124 1.368 . S
C1140 C1136 1.368 . S
C1140 C1139 1.523 . S
H1141 C1116 0.950 . S
H1142 C1118 0.950 . S
H1143 C1119 0.949 . S
H1144 C1121 0.950 . S
H1145 C1123 0.950 . S
C1146 C1147 1.349 . S
C1146 C1148 1.327 . S
C1146 H1171 0.950 . S
C1147 C1146 1.349 . S
C1147 C1163 1.349 . S
C1148 C1146 1.327 . S
C1148 C1167 1.429 . S
C1148 H1172 0.950 . S
C1149 C1166 1.574 . S
C1149 C1168 1.368 . S
C1149 H1173 0.949 . S
H1150 C1154 0.949 . S
C1151 C1152 1.349 . S
C1151 C1153 1.327 . S
C1151 H1174 0.950 . S
C1152 C1151 1.349 . S
C1152 C1164 1.349 . S
C1153 C1151 1.327 . S
C1153 C1169 1.429 . S
C1153 H1175 0.950 . S
C1154 H1150 0.949 . S
C1154 C1162 1.574 . S
C1154 C1170 1.368 . S
H1155 C1163 0.950 . S
H1156 C1161 0.950 . S
H1157 C1162 0.949 . S
H1158 C1164 0.950 . S
H1159 C1165 0.950 . S
H1160 C1166 0.949 . S
C1161 H1156 0.950 . S
C1161 C1163 1.327 . S
C1161 C1167 1.429 . S
C1162 C1154 1.574 . S
C1162 H1157 0.949 . S
C1162 C1168 1.368 . S
C1163 C1147 1.349 . S
C1163 H1155 0.950 . S
C1163 C1161 1.327 . S
C1164 C1152 1.349 . S
C1164 H1158 0.950 . S
C1164 C1165 1.327 . S
C1165 H1159 0.950 . S
C1165 C1164 1.327 . S
C1165 C1169 1.429 . S
C1166 C1149 1.574 . S
C1166 H1160 0.949 . S
C1166 C1170 1.368 . S
C1167 C1148 1.429 . S
C1167 C1161 1.429 . S
C1167 C1168 1.523 . S
C1168 C1149 1.368 . S
C1168 C1162 1.368 . S
C1168 C1167 1.523 . S
C1169 C1153 1.429 . S
C1169 C1165 1.429 . S
C1169 C1170 1.523 . S
C1170 C1154 1.368 . S
C1170 C1166 1.368 . S
C1170 C1169 1.523 . S
H1171 C1146 0.950 . S
H1172 C1148 0.950 . S
H1173 C1149 0.949 . S
H1174 C1151 0.950 . S
H1175 C1153 0.950 . S
C1176 C1177 1.349 . S
C1176 C1178 1.327 . S
C1176 H1201 0.950 . S
C1177 C1176 1.349 . S
C1177 C1193 1.349 . S
C1178 C1176 1.327 . S
C1178 C1197 1.429 . S
C1178 H1202 0.950 . S
C1179 C1196 1.574 . S
C1179 C1198 1.368 . S
C1179 H1203 0.949 . S
H1180 C1184 0.949 . S
C1181 C1182 1.349 . S
C1181 C1183 1.327 . S
C1181 H1204 0.950 . S
C1182 C1181 1.349 . S
C1182 C1194 1.349 . S
C1183 C1181 1.327 . S
C1183 C1199 1.429 . S
C1183 H1205 0.950 . S
C1184 H1180 0.949 . S
C1184 C1192 1.574 . S
C1184 C1200 1.368 . S
H1185 C1193 0.950 . S
H1186 C1191 0.950 . S
H1187 C1192 0.949 . S
H1188 C1194 0.950 . S
H1189 C1195 0.950 . S
H1190 C1196 0.949 . S
C1191 H1186 0.950 . S
C1191 C1193 1.327 . S
C1191 C1197 1.429 . S
C1192 C1184 1.574 . S
C1192 H1187 0.949 . S
C1192 C1198 1.368 . S
C1193 C1177 1.349 . S
C1193 H1185 0.950 . S
C1193 C1191 1.327 . S
C1194 C1182 1.349 . S
C1194 H1188 0.950 . S
C1194 C1195 1.327 . S
C1195 H1189 0.950 . S
C1195 C1194 1.327 . S
C1195 C1199 1.429 . S
C1196 C1179 1.574 . S
C1196 H1190 0.949 . S
C1196 C1200 1.368 . S
C1197 C1178 1.429 . S
C1197 C1191 1.429 . S
C1197 C1198 1.523 . S
C1198 C1179 1.368 . S
C1198 C1192 1.368 . S
C1198 C1197 1.523 . S
C1199 C1183 1.429 . S
C1199 C1195 1.429 . S
C1199 C1200 1.523 . S
C1200 C1184 1.368 . S
C1200 C1196 1.368 . S
C1200 C1199 1.523 . S
H1201 C1176 0.950 . S
H1202 C1178 0.950 . S
H1203 C1179 0.949 . S
H1204 C1181 0.950 . S
H1205 C1183 0.950 . S
C1206 C1207 1.349 . S
C1206 C1208 1.327 . S
C1206 H1231 0.950 . S
C1207 C1206 1.349 . S
C1207 C1223 1.349 . S
C1208 C1206 1.327 . S
C1208 C1227 1.429 . S
C1208 H1232 0.950 . S
C1209 C1226 1.574 . S
C1209 C1228 1.368 . S
C1209 H1233 0.949 . S
H1210 C1214 0.949 . S
C1211 C1212 1.349 . S
C1211 C1213 1.327 . S
C1211 H1234 0.950 . S
C1212 C1211 1.349 . S
C1212 C1224 1.349 . S
C1213 C1211 1.327 . S
C1213 C1229 1.429 . S
C1213 H1235 0.950 . S
C1214 H1210 0.949 . S
C1214 C1222 1.574 . S
C1214 C1230 1.368 . S
H1215 C1223 0.950 . S
H1216 C1221 0.950 . S
H1217 C1222 0.949 . S
H1218 C1224 0.950 . S
H1219 C1225 0.950 . S
H1220 C1226 0.949 . S
C1221 H1216 0.950 . S
C1221 C1223 1.327 . S
C1221 C1227 1.429 . S
C1222 C1214 1.574 . S
C1222 H1217 0.949 . S
C1222 C1228 1.368 . S
C1223 C1207 1.349 . S
C1223 H1215 0.950 . S
C1223 C1221 1.327 . S
C1224 C1212 1.349 . S
C1224 H1218 0.950 . S
C1224 C1225 1.327 . S
C1225 H1219 0.950 . S
C1225 C1224 1.327 . S
C1225 C1229 1.429 . S
C1226 C1209 1.574 . S
C1226 H1220 0.949 . S
C1226 C1230 1.368 . S
C1227 C1208 1.429 . S
C1227 C1221 1.429 . S
C1227 C1228 1.523 . S
C1228 C1209 1.368 . S
C1228 C1222 1.368 . S
C1228 C1227 1.523 . S
C1229 C1213 1.429 . S
C1229 C1225 1.429 . S
C1229 C1230 1.523 . S
C1230 C1214 1.368 . S
C1230 C1226 1.368 . S
C1230 C1229 1.523 . S
H1231 C1206 0.950 . S
H1232 C1208 0.950 . S
H1233 C1209 0.949 . S
H1234 C1211 0.950 . S
H1235 C1213 0.950 . S
C1236 C1237 1.349 . S
C1236 C1238 1.327 . S
C1236 H1261 0.950 . S
C1237 C1236 1.349 . S
C1237 C1253 1.349 . S
C1238 C1236 1.327 . S
C1238 C1257 1.429 . S
C1238 H1262 0.950 . S
C1239 C1256 1.574 . S
C1239 C1258 1.368 . S
C1239 H1263 0.949 . S
H1240 C1244 0.949 . S
C1241 C1242 1.349 . S
C1241 C1243 1.327 . S
C1241 H1264 0.950 . S
C1242 C1241 1.349 . S
C1242 C1254 1.349 . S
C1243 C1241 1.327 . S
C1243 C1259 1.429 . S
C1243 H1265 0.950 . S
C1244 H1240 0.949 . S
C1244 C1252 1.574 . S
C1244 C1260 1.368 . S
H1245 C1253 0.950 . S
H1246 C1251 0.950 . S
H1247 C1252 0.949 . S
H1248 C1254 0.950 . S
H1249 C1255 0.950 . S
H1250 C1256 0.949 . S
C1251 H1246 0.950 . S
C1251 C1253 1.327 . S
C1251 C1257 1.429 . S
C1252 C1244 1.574 . S
C1252 H1247 0.949 . S
C1252 C1258 1.368 . S
C1253 C1237 1.349 . S
C1253 H1245 0.950 . S
C1253 C1251 1.327 . S
C1254 C1242 1.349 . S
C1254 H1248 0.950 . S
C1254 C1255 1.327 . S
C1255 H1249 0.950 . S
C1255 C1254 1.327 . S
C1255 C1259 1.429 . S
C1256 C1239 1.574 . S
C1256 H1250 0.949 . S
C1256 C1260 1.368 . S
C1257 C1238 1.429 . S
C1257 C1251 1.429 . S
C1257 C1258 1.523 . S
C1258 C1239 1.368 . S
C1258 C1252 1.368 . S
C1258 C1257 1.523 . S
C1259 C1243 1.429 . S
C1259 C1255 1.429 . S
C1259 C1260 1.523 . S
C1260 C1244 1.368 . S
C1260 C1256 1.368 . S
C1260 C1259 1.523 . S
H1261 C1236 0.950 . S
H1262 C1238 0.950 . S
H1263 C1239 0.949 . S
H1264 C1241 0.950 . S
H1265 C1243 0.950 . S
C1266 C1267 1.349 . S
C1266 C1268 1.327 . S
C1266 H1291 0.950 . S
C1267 C1266 1.349 . S
C1267 C1283 1.349 . S
C1268 C1266 1.327 . S
C1268 C1287 1.429 . S
C1268 H1292 0.950 . S
C1269 C1286 1.574 . S
C1269 C1288 1.368 . S
C1269 H1293 0.949 . S
H1270 C1274 0.949 . S
C1271 C1272 1.349 . S
C1271 C1273 1.327 . S
C1271 H1294 0.950 . S
C1272 C1271 1.349 . S
C1272 C1284 1.349 . S
C1273 C1271 1.327 . S
C1273 C1289 1.429 . S
C1273 H1295 0.950 . S
C1274 H1270 0.949 . S
C1274 C1282 1.574 . S
C1274 C1290 1.368 . S
H1275 C1283 0.950 . S
H1276 C1281 0.950 . S
H1277 C1282 0.949 . S
H1278 C1284 0.950 . S
H1279 C1285 0.950 . S
H1280 C1286 0.949 . S
C1281 H1276 0.950 . S
C1281 C1283 1.327 . S
C1281 C1287 1.429 . S
C1282 C1274 1.574 . S
C1282 H1277 0.949 . S
C1282 C1288 1.368 . S
C1283 C1267 1.349 . S
C1283 H1275 0.950 . S
C1283 C1281 1.327 . S
C1284 C1272 1.349 . S
C1284 H1278 0.950 . S
C1284 C1285 1.327 . S
C1285 H1279 0.950 . S
C1285 C1284 1.327 . S
C1285 C1289 1.429 . S
C1286 C1269 1.574 . S
C1286 H1280 0.949 . S
C1286 C1290 1.368 . S
C1287 C1268 1.429 . S
C1287 C1281 1.429 . S
C1287 C1288 1.523 . S
C1288 C1269 1.368 . S
C1288 C1282 1.368 . S
C1288 C1287 1.523 . S
C1289 C1273 1.429 . S
C1289 C1285 1.429 . S
C1289 C1290 1.523 . S
C1290 C1274 1.368 . S
C1290 C1286 1.368 . S
C1290 C1289 1.523 . S
H1291 C1266 0.950 . S
H1292 C1268 0.950 . S
H1293 C1269 0.949 . S
H1294 C1271 0.950 . S
H1295 C1273 0.950 . S
C1296 C1297 1.349 . S
C1296 C1298 1.327 . S
C1296 H1321 0.950 . S
C1297 C1296 1.349 . S
C1297 C1313 1.349 . S
C1298 C1296 1.327 . S
C1298 C1317 1.429 . S
C1298 H1322 0.950 . S
C1299 C1316 1.574 1_565 S
C1299 C1318 1.368 1_455 S
C1299 H1323 0.949 . S
H1300 C1304 0.949 . S
C1301 C1302 1.349 . S
C1301 C1303 1.327 . S
C1301 H1324 0.950 . S
C1302 C1301 1.349 . S
C1302 C1314 1.349 . S
C1303 C1301 1.327 . S
C1303 C1319 1.429 . S
C1303 H1325 0.950 . S
C1304 H1300 0.949 . S
C1304 C1312 1.574 1_545 S
C1304 C1320 1.368 1_655 S
H1305 C1313 0.950 . S
H1306 C1311 0.950 . S
H1307 C1312 0.949 . S
H1308 C1314 0.950 . S
H1309 C1315 0.950 . S
H1310 C1316 0.949 . S
C1311 H1306 0.950 . S
C1311 C1313 1.327 . S
C1311 C1317 1.429 . S
C1312 C1304 1.574 1_565 S
C1312 H1307 0.949 . S
C1312 C1318 1.368 . S
C1313 C1297 1.349 . S
C1313 H1305 0.950 . S
C1313 C1311 1.327 . S
C1314 C1302 1.349 . S
C1314 H1308 0.950 . S
C1314 C1315 1.327 . S
C1315 H1309 0.950 . S
C1315 C1314 1.327 . S
C1315 C1319 1.429 . S
C1316 C1299 1.574 1_545 S
C1316 H1310 0.949 . S
C1316 C1320 1.368 . S
C1317 C1298 1.429 . S
C1317 C1311 1.429 . S
C1317 C1318 1.523 . S
C1318 C1299 1.368 1_655 S
C1318 C1312 1.368 . S
C1318 C1317 1.523 . S
C1319 C1303 1.429 . S
C1319 C1315 1.429 . S
C1319 C1320 1.523 . S
C1320 C1304 1.368 1_455 S
C1320 C1316 1.368 . S
C1320 C1319 1.523 . S
H1321 C1296 0.950 . S
H1322 C1298 0.950 . S
H1323 C1299 0.949 . S
H1324 C1301 0.950 . S
H1325 C1303 0.950 . S
C1326 C1327 1.349 . S
C1326 C1328 1.327 . S
C1326 H1351 0.950 . S
C1327 C1326 1.349 . S
C1327 C1343 1.349 . S
C1328 C1326 1.327 . S
C1328 C1347 1.429 . S
C1328 H1352 0.950 . S
C1329 C1346 1.574 1_655 S
C1329 C1348 1.368 1_565 S
C1329 H1353 0.949 . S
H1330 C1334 0.949 . S
C1331 C1332 1.349 . S
C1331 C1333 1.327 . S
C1331 H1354 0.950 . S
C1332 C1331 1.349 . S
C1332 C1344 1.349 . S
C1333 C1331 1.327 . S
C1333 C1349 1.429 . S
C1333 H1355 0.950 . S
C1334 H1330 0.949 . S
C1334 C1342 1.574 1_455 S
C1334 C1350 1.368 1_545 S
H1335 C1343 0.950 . S
H1336 C1341 0.950 . S
H1337 C1342 0.949 . S
H1338 C1344 0.950 . S
H1339 C1345 0.950 . S
H1340 C1346 0.949 . S
C1341 H1336 0.950 . S
C1341 C1343 1.327 . S
C1341 C1347 1.429 . S
C1342 C1334 1.574 1_655 S
C1342 H1337 0.949 . S
C1342 C1348 1.368 . S
C1343 C1327 1.349 . S
C1343 H1335 0.950 . S
C1343 C1341 1.327 . S
C1344 C1332 1.349 . S
C1344 H1338 0.950 . S
C1344 C1345 1.327 . S
C1345 H1339 0.950 . S
C1345 C1344 1.327 . S
C1345 C1349 1.429 . S
C1346 C1329 1.574 1_455 S
C1346 H1340 0.949 . S
C1346 C1350 1.368 . S
C1347 C1328 1.429 . S
C1347 C1341 1.429 . S
C1347 C1348 1.523 . S
C1348 C1329 1.368 1_545 S
C1348 C1342 1.368 . S
C1348 C1347 1.523 . S
C1349 C1333 1.429 . S
C1349 C1345 1.429 . S
C1349 C1350 1.523 . S
C1350 C1334 1.368 1_565 S
C1350 C1346 1.368 . S
C1350 C1349 1.523 . S
H1351 C1326 0.950 . S
H1352 C1328 0.950 . S
H1353 C1329 0.949 . S
H1354 C1331 0.950 . S
H1355 C1333 0.950 . S
C1356 C1357 1.349 . S
C1356 C1358 1.327 . S
C1356 H1381 0.950 . S
C1357 C1356 1.349 . S
C1357 C1373 1.349 . S
C1358 C1356 1.327 . S
C1358 C1377 1.429 . S
C1358 H1382 0.950 . S
C1359 C1376 1.574 . S
C1359 C1378 1.368 . S
C1359 H1383 0.949 . S
H1360 C1364 0.949 . S
C1361 C1362 1.349 . S
C1361 C1363 1.327 . S
C1361 H1384 0.950 . S
C1362 C1361 1.349 . S
C1362 C1374 1.349 . S
C1363 C1361 1.327 . S
C1363 C1379 1.429 . S
C1363 H1385 0.950 . S
C1364 H1360 0.949 . S
C1364 C1372 1.574 . S
C1364 C1380 1.368 . S
H1365 C1373 0.950 . S
H1366 C1371 0.950 . S
H1367 C1372 0.949 . S
H1368 C1374 0.950 . S
H1369 C1375 0.950 . S
H1370 C1376 0.949 . S
C1371 H1366 0.950 . S
C1371 C1373 1.327 . S
C1371 C1377 1.429 . S
C1372 C1364 1.574 . S
C1372 H1367 0.949 . S
C1372 C1378 1.368 1_655 S
C1373 C1357 1.349 . S
C1373 H1365 0.950 . S
C1373 C1371 1.327 . S
C1374 C1362 1.349 . S
C1374 H1368 0.950 . S
C1374 C1375 1.327 . S
C1375 H1369 0.950 . S
C1375 C1374 1.327 . S
C1375 C1379 1.429 . S
C1376 C1359 1.574 . S
C1376 H1370 0.949 . S
C1376 C1380 1.368 1_455 S
C1377 C1358 1.429 . S
C1377 C1371 1.429 . S
C1377 C1378 1.523 . S
C1378 C1359 1.368 . S
C1378 C1372 1.368 1_455 S
C1378 C1377 1.523 . S
C1379 C1363 1.429 . S
C1379 C1375 1.429 . S
C1379 C1380 1.523 . S
C1380 C1364 1.368 . S
C1380 C1376 1.368 1_655 S
C1380 C1379 1.523 . S
H1381 C1356 0.950 . S
H1382 C1358 0.950 . S
H1383 C1359 0.949 . S
H1384 C1361 0.950 . S
H1385 C1363 0.950 . S
C1386 C1387 1.349 . S
C1386 C1388 1.327 . S
C1386 H1411 0.950 . S
C1387 C1386 1.349 . S
C1387 C1403 1.349 . S
C1388 C1386 1.327 . S
C1388 C1407 1.429 . S
C1388 H1412 0.950 . S
C1389 C1406 1.574 . S
C1389 C1408 1.368 . S
C1389 H1413 0.949 . S
H1390 C1394 0.949 . S
C1391 C1392 1.349 . S
C1391 C1393 1.327 . S
C1391 H1414 0.950 . S
C1392 C1391 1.349 . S
C1392 C1404 1.349 . S
C1393 C1391 1.327 . S
C1393 C1409 1.429 . S
C1393 H1415 0.950 . S
C1394 H1390 0.949 . S
C1394 C1402 1.574 . S
C1394 C1410 1.368 . S
H1395 C1403 0.950 . S
H1396 C1401 0.950 . S
H1397 C1402 0.949 . S
H1398 C1404 0.950 . S
H1399 C1405 0.950 . S
H1400 C1406 0.949 . S
C1401 H1396 0.950 . S
C1401 C1403 1.327 . S
C1401 C1407 1.429 . S
C1402 C1394 1.574 . S
C1402 H1397 0.949 . S
C1402 C1408 1.368 1_545 S
C1403 C1387 1.349 . S
C1403 H1395 0.950 . S
C1403 C1401 1.327 . S
C1404 C1392 1.349 . S
C1404 H1398 0.950 . S
C1404 C1405 1.327 . S
C1405 H1399 0.950 . S
C1405 C1404 1.327 . S
C1405 C1409 1.429 . S
C1406 C1389 1.574 . S
C1406 H1400 0.949 . S
C1406 C1410 1.368 1_565 S
C1407 C1388 1.429 . S
C1407 C1401 1.429 . S
C1407 C1408 1.523 . S
C1408 C1389 1.368 . S
C1408 C1402 1.368 1_565 S
C1408 C1407 1.523 . S
C1409 C1393 1.429 . S
C1409 C1405 1.429 . S
C1409 C1410 1.523 . S
C1410 C1394 1.368 . S
C1410 C1406 1.368 1_545 S
C1410 C1409 1.523 . S
H1411 C1386 0.950 . S
H1412 C1388 0.950 . S
H1413 C1389 0.949 . S
H1414 C1391 0.950 . S
H1415 C1393 0.950 . S
C1416 C1417 1.349 . S
C1416 C1418 1.327 . S
C1416 H1441 0.950 . S
C1417 C1416 1.349 . S
C1417 C1433 1.349 . S
C1418 C1416 1.327 . S
C1418 C1437 1.429 . S
C1418 H1442 0.950 . S
C1419 C1436 1.574 . S
C1419 C1438 1.368 . S
C1419 H1443 0.949 . S
H1420 C1424 0.949 . S
C1421 C1422 1.349 . S
C1421 C1423 1.327 . S
C1421 H1444 0.950 . S
C1422 C1421 1.349 . S
C1422 C1434 1.349 . S
C1423 C1421 1.327 . S
C1423 C1439 1.429 . S
C1423 H1445 0.950 . S
C1424 H1420 0.949 . S
C1424 C1432 1.574 . S
C1424 C1440 1.368 . S
H1425 C1433 0.950 . S
H1426 C1431 0.950 . S
H1427 C1432 0.949 . S
H1428 C1434 0.950 . S
H1429 C1435 0.950 . S
H1430 C1436 0.949 . S
C1431 H1426 0.950 . S
C1431 C1433 1.327 . S
C1431 C1437 1.429 . S
C1432 C1424 1.574 . S
C1432 H1427 0.949 . S
C1432 C1438 1.368 . S
C1433 C1417 1.349 . S
C1433 H1425 0.950 . S
C1433 C1431 1.327 . S
C1434 C1422 1.349 . S
C1434 H1428 0.950 . S
C1434 C1435 1.327 . S
C1435 H1429 0.950 . S
C1435 C1434 1.327 . S
C1435 C1439 1.429 . S
C1436 C1419 1.574 . S
C1436 H1430 0.949 . S
C1436 C1440 1.368 . S
C1437 C1418 1.429 . S
C1437 C1431 1.429 . S
C1437 C1438 1.523 . S
C1438 C1419 1.368 . S
C1438 C1432 1.368 . S
C1438 C1437 1.523 . S
C1439 C1423 1.429 . S
C1439 C1435 1.429 . S
C1439 C1440 1.523 . S
C1440 C1424 1.368 . S
C1440 C1436 1.368 . S
C1440 C1439 1.523 . S
H1441 C1416 0.950 . S
H1442 C1418 0.950 . S
H1443 C1419 0.949 . S
H1444 C1421 0.950 . S
H1445 C1423 0.950 . S
C1446 C1447 1.349 . S
C1446 C1448 1.327 . S
C1446 H1471 0.950 . S
C1447 C1446 1.349 . S
C1447 C1463 1.349 . S
C1448 C1446 1.327 . S
C1448 C1467 1.429 . S
C1448 H1472 0.950 . S
C1449 C1466 1.574 . S
C1449 C1468 1.368 . S
C1449 H1473 0.949 . S
H1450 C1454 0.949 . S
C1451 C1452 1.349 . S
C1451 C1453 1.327 . S
C1451 H1474 0.950 . S
C1452 C1451 1.349 . S
C1452 C1464 1.349 . S
C1453 C1451 1.327 . S
C1453 C1469 1.429 . S
C1453 H1475 0.950 . S
C1454 H1450 0.949 . S
C1454 C1462 1.574 . S
C1454 C1470 1.368 . S
H1455 C1463 0.950 . S
H1456 C1461 0.950 . S
H1457 C1462 0.949 . S
H1458 C1464 0.950 . S
H1459 C1465 0.950 . S
H1460 C1466 0.949 . S
C1461 H1456 0.950 . S
C1461 C1463 1.327 . S
C1461 C1467 1.429 . S
C1462 C1454 1.574 . S
C1462 H1457 0.949 . S
C1462 C1468 1.368 . S
C1463 C1447 1.349 . S
C1463 H1455 0.950 . S
C1463 C1461 1.327 . S
C1464 C1452 1.349 . S
C1464 H1458 0.950 . S
C1464 C1465 1.327 . S
C1465 H1459 0.950 . S
C1465 C1464 1.327 . S
C1465 C1469 1.429 . S
C1466 C1449 1.574 . S
C1466 H1460 0.949 . S
C1466 C1470 1.368 . S
C1467 C1448 1.429 . S
C1467 C1461 1.429 . S
C1467 C1468 1.523 . S
C1468 C1449 1.368 . S
C1468 C1462 1.368 . S
C1468 C1467 1.523 . S
C1469 C1453 1.429 . S
C1469 C1465 1.429 . S
C1469 C1470 1.523 . S
C1470 C1454 1.368 . S
C1470 C1466 1.368 . S
C1470 C1469 1.523 . S
H1471 C1446 0.950 . S
H1472 C1448 0.950 . S
H1473 C1449 0.949 . S
H1474 C1451 0.950 . S
H1475 C1453 0.950 . S
C1476 C1477 1.349 . S
C1476 C1478 1.327 . S
C1476 H1501 0.950 . S
C1477 C1476 1.349 . S
C1477 C1493 1.349 . S
C1478 C1476 1.327 . S
C1478 C1497 1.429 . S
C1478 H1502 0.950 . S
C1479 C1496 1.574 1_545 S
C1479 C1498 1.368 . S
C1479 H1503 0.949 . S
H1480 C1484 0.949 . S
C1481 C1482 1.349 . S
C1481 C1483 1.327 . S
C1481 H1504 0.950 . S
C1482 C1481 1.349 . S
C1482 C1494 1.349 . S
C1483 C1481 1.327 . S
C1483 C1499 1.429 . S
C1483 H1505 0.950 . S
C1484 H1480 0.949 . S
C1484 C1492 1.574 1_565 S
C1484 C1500 1.368 . S
H1485 C1493 0.950 . S
H1486 C1491 0.950 . S
H1487 C1492 0.949 . S
H1488 C1494 0.950 . S
H1489 C1495 0.950 . S
H1490 C1496 0.949 . S
C1491 H1486 0.950 . S
C1491 C1493 1.327 . S
C1491 C1497 1.429 . S
C1492 C1484 1.574 1_545 S
C1492 H1487 0.949 . S
C1492 C1498 1.368 . S
C1493 C1477 1.349 . S
C1493 H1485 0.950 . S
C1493 C1491 1.327 . S
C1494 C1482 1.349 . S
C1494 H1488 0.950 . S
C1494 C1495 1.327 . S
C1495 H1489 0.950 . S
C1495 C1494 1.327 . S
C1495 C1499 1.429 . S
C1496 C1479 1.574 1_565 S
C1496 H1490 0.949 . S
C1496 C1500 1.368 . S
C1497 C1478 1.429 . S
C1497 C1491 1.429 . S
C1497 C1498 1.523 . S
C1498 C1479 1.368 . S
C1498 C1492 1.368 . S
C1498 C1497 1.523 . S
C1499 C1483 1.429 . S
C1499 C1495 1.429 . S
C1499 C1500 1.523 . S
C1500 C1484 1.368 . S
C1500 C1496 1.368 . S
C1500 C1499 1.523 . S
H1501 C1476 0.950 . S
H1502 C1478 0.950 . S
H1503 C1479 0.949 . S
H1504 C1481 0.950 . S
H1505 C1483 0.950 . S
C1506 C1507 1.349 . S
C1506 C1508 1.327 . S
C1506 H1531 0.950 . S
C1507 C1506 1.349 . S
C1507 C1523 1.349 . S
C1508 C1506 1.327 . S
C1508 C1527 1.429 . S
C1508 H1532 0.950 . S
C1509 C1526 1.574 1_655 S
C1509 C1528 1.368 . S
C1509 H1533 0.949 . S
H1510 C1514 0.949 . S
C1511 C1512 1.349 . S
C1511 C1513 1.327 . S
C1511 H1534 0.950 . S
C1512 C1511 1.349 . S
C1512 C1524 1.349 . S
C1513 C1511 1.327 . S
C1513 C1529 1.429 . S
C1513 H1535 0.950 . S
C1514 H1510 0.949 . S
C1514 C1522 1.574 1_455 S
C1514 C1530 1.368 . S
H1515 C1523 0.950 . S
H1516 C1521 0.950 . S
H1517 C1522 0.949 . S
H1518 C1524 0.950 . S
H1519 C1525 0.950 . S
H1520 C1526 0.949 . S
C1521 H1516 0.950 . S
C1521 C1523 1.327 . S
C1521 C1527 1.429 . S
C1522 C1514 1.574 1_655 S
C1522 H1517 0.949 . S
C1522 C1528 1.368 . S
C1523 C1507 1.349 . S
C1523 H1515 0.950 . S
C1523 C1521 1.327 . S
C1524 C1512 1.349 . S
C1524 H1518 0.950 . S
C1524 C1525 1.327 . S
C1525 H1519 0.950 . S
C1525 C1524 1.327 . S
C1525 C1529 1.429 . S
C1526 C1509 1.574 1_455 S
C1526 H1520 0.949 . S
C1526 C1530 1.368 . S
C1527 C1508 1.429 . S
C1527 C1521 1.429 . S
C1527 C1528 1.523 . S
C1528 C1509 1.368 . S
C1528 C1522 1.368 . S
C1528 C1527 1.523 . S
C1529 C1513 1.429 . S
C1529 C1525 1.429 . S
C1529 C1530 1.523 . S
C1530 C1514 1.368 . S
C1530 C1526 1.368 . S
C1530 C1529 1.523 . S
H1531 C1506 0.950 . S
H1532 C1508 0.950 . S
H1533 C1509 0.949 . S
H1534 C1511 0.950 . S
H1535 C1513 0.950 . S
C577 C3 0.960 . S
C582 C398 0.953 . S
C607 C290 0.953 . S
C612 C39 0.960 . S
C637 C326 0.953 . S
C642 C75 0.960 . S
C667 C362 0.953 . S
C672 C111 0.960 . S
C697 C182 0.953 . S
C702 C147 0.960 . S
C727 C183 0.960 . S
C732 C218 0.953 . S
C757 C219 0.960 . S
C762 C254 0.953 . S
C787 C255 0.960 . S
C792 C146 0.953 . S
C817 C291 0.960 . S
C822 C110 0.953 . S
C847 C2 0.953 . S
C852 C327 0.960 . S
C877 C38 0.953 . S
C882 C363 0.960 . S
C907 C74 0.953 . S
C912 C399 0.960 . S
C937 C470 0.953 . S
C942 C435 0.960 . S
C967 C471 0.960 . S
C972 C506 0.953 . S
C997 C542 0.953 . S
C1002 C507 0.960 . S
C1027 C434 0.953 . S
C1032 C543 0.960 . S
C1057 C518 1.566 . S
C1062 C14 1.566 . S
C1087 C554 1.566 . S
C1092 C50 1.566 . S
C1117 C446 1.566 . S
C1122 C86 1.566 . S
C1147 C122 1.566 . S
C1152 C482 1.566 . S
C1177 C158 1.566 . S
C1182 C374 1.566 . S
C1207 C410 1.566 . S
C1212 C194 1.566 . S
C1237 C230 1.566 . S
C1242 C302 1.566 . S
C1267 C266 1.566 . S
C1272 C338 1.566 . S
C1297 C76 1.127 . S
C1302 C4 1.127 . S
C1327 C112 1.127 . S
C1332 C40 1.127 . S
C1357 C148 1.127 . S
C1362 C220 1.127 . S
C1387 C184 1.127 . S
C1392 C256 1.127 . S
C1417 C364 1.127 . S
C1422 C292 1.127 . S
C1447 C328 1.127 . S
C1452 C400 1.127 . S
C1477 C508 1.127 . S
C1482 C436 1.127 . S
C1507 C472 1.127 . S
C1512 C544 1.127 . S
