# Generated by pormake.
# Topology lhb, (8)-cn, num edge types: 1
# Building blocks:
#     Node 0, Type 0, BuildingBlock: VETTIZ_charged_sbu_0, # of connection points: 8
#     Node 1, Type 0, BuildingBlock: VETTIZ_charged_sbu_0, # of connection points: 8
#     Node 2, Type 0, BuildingBlock: VETTIZ_charged_sbu_0, # of connection points: 8
#     Node 3, Type 0, BuildingBlock: VETTIZ_charged_sbu_0, # of connection points: 8
#     Node 4, Type 0, BuildingBlock: VETTIZ_charged_sbu_0, # of connection points: 8
#     Node 5, Type 0, BuildingBlock: VETTIZ_charged_sbu_0, # of connection points: 8
#     Node 6, Type 0, BuildingBlock: VETTIZ_charged_sbu_0, # of connection points: 8
#     Node 7, Type 0, BuildingBlock: VETTIZ_charged_sbu_0, # of connection points: 8
#     Edge 8, Type (0, 0), None
#     Edge 9, Type (0, 0), None
#     Edge 10, Type (0, 0), None
#     Edge 11, Type (0, 0), None
#     Edge 12, Type (0, 0), None
#     Edge 13, Type (0, 0), None
#     Edge 14, Type (0, 0), None
#     Edge 15, Type (0, 0), None
#     Edge 16, Type (0, 0), None
#     Edge 17, Type (0, 0), None
#     Edge 18, Type (0, 0), None
#     Edge 19, Type (0, 0), None
#     Edge 20, Type (0, 0), None
#     Edge 21, Type (0, 0), None
#     Edge 22, Type (0, 0), None
#     Edge 23, Type (0, 0), None
#     Edge 24, Type (0, 0), None
#     Edge 25, Type (0, 0), None
#     Edge 26, Type (0, 0), None
#     Edge 27, Type (0, 0), None
#     Edge 28, Type (0, 0), None
#     Edge 29, Type (0, 0), None
#     Edge 30, Type (0, 0), None
#     Edge 31, Type (0, 0), None
#     Edge 32, Type (0, 0), None
#     Edge 33, Type (0, 0), None
#     Edge 34, Type (0, 0), None
#     Edge 35, Type (0, 0), None
#     Edge 36, Type (0, 0), None
#     Edge 37, Type (0, 0), None
#     Edge 38, Type (0, 0), None
#     Edge 39, Type (0, 0), None
# Relax obj value: 0.196
# Max RMSD: 0.257
# Mean RMSD: 0.257
data_MOF--net-lhb--node1-VETTIZ_charged_sbu_0--edge1-none
_symmetry_space_group_name_H-M    P1
_symmetry_Int_Tables_number       1
_symmetry_cell_setting            triclinic
loop_
_symmetry_equiv_pos_as_xyz
'x, y, z'
_cell_length_a     15.782422
_cell_length_b     8.1613988
_cell_length_c     27.787913
_cell_angle_alpha  87.932533
_cell_angle_beta   90.000245
_cell_angle_gamma 90.00138
loop_
_atom_site_label
_atom_site_type_symbol
_atom_site_fract_x
_atom_site_fract_y
_atom_site_fract_z
_atom_type_partial_charge
Fe0 Fe 0.98338 0.88938 1.00788 0.0
O1 O 0.96397 0.94896 0.07686 0.0
Fe2 Fe 0.11524 0.18645 0.95775 0.0
Fe3 Fe 0.9631 0.77955 0.13118 0.0
O4 O 0.08233 0.03463 1.00941 0.0
O5 O 0.0858 0.04075 1.01254 0.0
O6 O 0.96503 0.95865 0.07917 0.0
Fe7 Fe 0.06285 0.11111 0.07914 0.0
C8 C 0.827 0.72543 0.05283 0.0
O9 O 0.06101 0.70208 1.02701 0.0
O10 O 1.00652 0.5904 0.09289 0.0
O11 O 0.17951 0.23683 0.07177 0.0
O12 O 0.22592 0.17463 0.99507 0.0
O13 O 0.13433 0.96235 0.92239 0.0
O14 O 0.01717 0.81207 0.93891 0.0
O15 O 0.08025 0.85153 0.167 0.0
O16 O 0.13859 0.93121 0.10286 0.0
C17 C 0.0934 0.82386 0.92167 0.0
O18 O 0.99793 0.30413 0.0511 0.0
O19 O 0.09252 0.39447 0.99629 0.0
O20 O 0.8777 0.74526 1.01635 0.0
O21 O 0.84778 0.73062 0.09804 0.0
C22 C 0.03768 0.57876 0.05152 0.0
C23 C 0.14348 0.92611 0.14738 0.0
C24 C 0.94272 0.0862 0.18003 0.0
O25 O 0.91876 0.94945 0.16979 0.0
O26 O 1.00069 0.15212 0.15013 0.0
C27 C 0.23863 0.20541 1.04014 0.0
O28 O 0.99381 0.22061 0.92846 0.0
O29 O 0.9086 0.09444 0.98501 0.0
C30 C 0.04115 0.41871 1.03088 0.0
C31 C 0.91385 0.19307 0.94424 0.0
Fe32 Fe 0.16301 0.43644 0.20774 0.0
O33 O 0.1959 0.28462 0.2594 0.0
Fe34 Fe 0.21538 0.36111 0.32913 0.0
Fe35 Fe 0.29485 0.13938 0.25788 0.0
O36 O 0.19243 0.29074 0.26254 0.0
O37 O 0.31318 0.20863 0.32917 0.0
O38 O 0.31424 0.19893 0.32687 0.0
Fe39 Fe 0.31508 0.0295 0.38118 0.0
C40 C 0.18485 0.07385 0.17166 0.0
O41 O 0.28444 0.47057 0.17845 0.0
O42 O 0.36963 0.34445 0.23501 0.0
O43 O 0.35941 0.19937 0.41981 0.0
O44 O 0.27754 0.4021 0.40013 0.0
O45 O 0.28031 0.55413 0.30109 0.0
O46 O 0.18573 0.64446 0.24627 0.0
O47 O 0.40052 -0.00476 0.26637 0.0
O48 O 0.43041 0.98056 0.34806 0.0
C49 C 0.23709 0.6687 0.28086 0.0
O50 O 0.19793 0.10148 0.41699 0.0
O51 O 0.13962 0.18124 0.35286 0.0
O52 O 0.1439 0.21233 0.17237 0.0
O53 O 0.26108 0.06209 0.18891 0.0
C54 C 0.3644 0.44305 0.19424 0.0
C55 C 0.4512 0.97537 0.30285 0.0
C56 C 0.24052 0.82875 0.30152 0.0
O57 O 0.21721 0.95207 0.277 0.0
O58 O 0.27167 0.84037 0.34289 0.0
C59 C 0.33547 0.33614 0.43004 0.0
O60 O 0.09873 0.48685 0.32175 0.0
O61 O 0.05233 0.42464 0.24505 0.0
C62 C 0.13473 0.17611 0.39738 0.0
C63 C 0.03961 0.45544 0.29012 0.0
Fe64 Fe 0.66294 0.93637 0.20776 0.0
O65 O 0.69593 0.78459 0.2594 0.0
Fe66 Fe 0.71538 0.86106 0.32913 0.0
Fe67 Fe 0.79486 0.63932 0.25786 0.0
O68 O 0.69244 0.79068 0.26254 0.0
O69 O 0.81321 0.70863 0.32916 0.0
O70 O 0.81428 0.69894 0.32685 0.0
Fe71 Fe 0.81514 0.52952 0.38117 0.0
C72 C 0.68482 0.57378 0.17166 0.0
O73 O 0.78433 0.97063 0.17848 0.0
O74 O 0.8697 0.84429 0.23495 0.0
O75 O 0.85947 0.69943 0.41978 0.0
O76 O 0.77754 0.90211 0.40012 0.0
O77 O 0.78029 0.05411 0.30109 0.0
O78 O 0.68564 0.14441 0.24631 0.0
O79 O 0.90052 0.49513 0.26635 0.0
O80 O 0.93045 0.48062 0.34803 0.0
C81 C 0.73704 0.16867 0.28087 0.0
O82 O 0.69799 0.60147 0.41699 0.0
O83 O 0.63965 0.68115 0.35286 0.0
O84 O 0.64387 0.71225 0.17239 0.0
O85 O 0.76105 0.56198 0.18891 0.0
C86 C 0.86433 0.94308 0.19422 0.0
C87 C 0.95122 0.47534 0.30282 0.0
C88 C 0.74051 0.32873 0.30153 0.0
O89 O 0.7172 0.45206 0.27701 0.0
O90 O 0.77172 0.34036 0.34288 0.0
C91 C 0.83551 0.83619 0.43002 0.0
O92 O 0.59872 0.98675 0.32177 0.0
O93 O 0.55227 0.92445 0.24508 0.0
C94 C 0.63476 0.67603 0.39738 0.0
C95 C 0.53958 0.95523 0.29016 0.0
Fe96 Fe 0.98334 0.38937 0.50787 0.0
O97 O 0.96394 0.44897 0.57686 0.0
Fe98 Fe 0.11528 0.68641 0.45777 0.0
Fe99 Fe 0.96309 0.27954 0.63117 0.0
O100 O 0.08229 0.53463 0.50941 0.0
O101 O 0.08578 0.54072 0.51255 0.0
O102 O 0.96501 0.45866 0.57916 0.0
Fe103 Fe 0.06284 0.61109 0.57914 0.0
C104 C 0.82698 0.22541 0.55283 0.0
O105 O 0.061 0.2021 0.52701 0.0
O106 O 1.00651 0.0904 0.59288 0.0
O107 O 0.17951 0.73678 0.57178 0.0
O108 O 0.22594 0.67448 0.49509 0.0
O109 O 0.13434 0.4623 0.4224 0.0
O110 O 0.01714 0.31207 0.43891 0.0
O111 O 0.08024 0.35152 0.667 0.0
O112 O 0.13858 0.43119 0.60287 0.0
C113 C 0.09337 0.32384 0.42166 0.0
O114 O 0.99794 0.80414 0.5511 0.0
O115 O 0.09258 0.89445 0.49631 0.0
O116 O 0.87768 0.2452 0.51635 0.0
O117 O 0.84776 0.23062 0.59804 0.0
C118 C 0.03769 0.07877 0.55152 0.0
C119 C 0.14346 0.4261 0.64739 0.0
C120 C 0.94271 0.58618 0.68003 0.0
O121 O 0.91876 0.44943 0.66979 0.0
O122 O 1.00068 0.65211 0.65013 0.0
C123 C 0.23865 0.7053 0.54016 0.0
O124 O 0.99389 0.72066 0.42848 0.0
O125 O 0.90852 0.59435 0.48496 0.0
C126 C 0.04118 0.9187 0.53088 0.0
C127 C 0.9139 0.69311 0.44422 0.0
Fe128 Fe 0.163 0.93644 0.70774 0.0
O129 O 0.19589 0.78461 0.7594 0.0
Fe130 Fe 0.21536 0.86113 0.82913 0.0
Fe131 Fe 0.29484 0.63938 0.75788 0.0
O132 O 0.19242 0.79074 0.76254 0.0
O133 O 0.31316 0.70862 0.82917 0.0
O134 O 0.31422 0.69893 0.82687 0.0
Fe135 Fe 0.31509 0.52951 0.88119 0.0
C136 C 0.18483 0.57385 0.67167 0.0
O137 O 0.28444 0.97056 0.67845 0.0
O138 O 0.36962 0.84446 0.73502 0.0
O139 O 0.35942 0.6994 0.9198 0.0
O140 O 0.27754 0.90212 0.90012 0.0
O141 O 0.28032 0.05412 0.80109 0.0
O142 O 0.18573 0.14446 0.74628 0.0
O143 O 0.40052 0.49527 0.76636 0.0
O144 O 0.43042 0.48059 0.84805 0.0
C145 C 0.23709 0.1687 0.78086 0.0
O146 O 0.19795 0.60149 0.91701 0.0
O147 O 0.13956 0.68131 0.85285 0.0
O148 O 0.14389 0.71233 0.67238 0.0
O149 O 0.26106 0.56209 0.68891 0.0
C150 C 0.36438 0.94305 0.69424 0.0
C151 C 0.45121 0.4754 0.80285 0.0
C152 C 0.24053 0.32874 0.80152 0.0
O153 O 0.21721 0.45206 0.77701 0.0
O154 O 0.27167 0.34036 0.84289 0.0
C155 C 0.33549 0.83618 0.93003 0.0
O156 O 0.09873 0.9869 0.82176 0.0
O157 O 0.05231 0.92466 0.74505 0.0
C158 C 0.13478 0.67616 0.89737 0.0
C159 C 0.0396 0.95545 0.79012 0.0
Fe160 Fe 0.66294 0.43635 0.70775 0.0
O161 O 0.69592 0.28458 0.7594 0.0
Fe162 Fe 0.7154 0.36109 0.82912 0.0
Fe163 Fe 0.79485 0.13929 0.75786 0.0
O164 O 0.69245 0.29069 0.76253 0.0
O165 O 0.8132 0.20858 0.82917 0.0
O166 O 0.81426 0.19887 0.82686 0.0
Fe167 Fe 0.81506 0.02938 0.88117 0.0
C168 C 0.68482 0.07376 0.67166 0.0
O169 O 0.78433 0.47058 0.67847 0.0
O170 O 0.86969 0.34426 0.73496 0.0
O171 O 0.85932 0.19916 0.91984 0.0
O172 O 0.77757 0.40211 0.90011 0.0
O173 O 0.78032 0.55411 0.80106 0.0
O174 O 0.68565 0.64439 0.74628 0.0
O175 O 0.9005 -0.00491 0.76636 0.0
O176 O 0.93042 0.98054 0.84805 0.0
C177 C 0.73707 0.66866 0.78084 0.0
O178 O 0.6979 0.10131 0.91697 0.0
O179 O 0.63965 0.18121 0.85284 0.0
O180 O 0.64387 0.21223 0.67239 0.0
O181 O 0.76105 0.06197 0.68891 0.0
C182 C 0.86432 0.44305 0.69422 0.0
C183 C 0.9512 0.97531 0.80283 0.0
C184 C 0.7405 0.82869 0.8015 0.0
O185 O 0.71717 0.95204 0.777 0.0
O186 O 0.7717 0.84028 0.84286 0.0
C187 C 0.8354 0.33598 0.93006 0.0
O188 O 0.59874 0.48681 0.82176 0.0
O189 O 0.55227 0.42446 0.74507 0.0
C190 C 0.63473 0.17603 0.89736 0.0
C191 C 0.53959 0.45527 0.79014 0.0
Fe192 Fe 0.48337 0.88927 0.50787 0.0
O193 O 0.46398 0.94883 0.57687 0.0
Fe194 Fe 0.61525 0.18635 0.45774 0.0
Fe195 Fe 0.46318 0.77934 0.63118 0.0
O196 O 0.58229 0.03459 0.50939 0.0
O197 O 0.58576 0.04071 0.51253 0.0
O198 O 0.46504 0.95853 0.57918 0.0
Fe199 Fe 0.56282 0.11112 0.57911 0.0
C200 C 0.32704 0.72522 0.55286 0.0
O201 O 0.56104 0.70204 0.52702 0.0
O202 O 0.50654 0.59023 0.59287 0.0
O203 O 0.67945 0.23691 0.57174 0.0
O204 O 0.72591 0.17453 0.49506 0.0
O205 O 0.63433 0.96223 0.42238 0.0
O206 O 0.51716 0.81195 0.43891 0.0
O207 O 0.58034 0.85128 0.66699 0.0
O208 O 0.63863 0.93133 0.60283 0.0
C209 C 0.59338 0.82375 0.42166 0.0
O210 O 0.49786 0.30408 0.55105 0.0
O211 O 0.59251 0.3944 0.49627 0.0
O212 O 0.37773 0.74504 0.51638 0.0
O213 O 0.34783 0.73047 0.59807 0.0
C214 C 0.53769 0.57867 0.5515 0.0
C215 C 0.64346 0.92609 0.64735 0.0
C216 C 0.44284 0.08597 0.68006 0.0
O217 O 0.41893 0.94912 0.66986 0.0
O218 O 0.50065 0.15212 0.65011 0.0
C219 C 0.7386 0.20533 0.54013 0.0
O220 O 0.49385 0.22052 0.42846 0.0
O221 O 0.40851 0.09424 0.48497 0.0
C222 C 0.5411 0.41866 0.53083 0.0
C223 C 0.41386 0.19301 0.44423 0.0
Fe224 Fe 0.48337 0.38929 1.00786 0.0
O225 O 0.46398 0.44885 0.07687 0.0
Fe226 Fe 0.61526 0.68635 0.95773 0.0
Fe227 Fe 0.46318 0.27935 0.13117 0.0
O228 O 0.5823 0.53459 1.00939 0.0
O229 O 0.58577 0.5407 1.01252 0.0
O230 O 0.46505 0.45855 0.07917 0.0
Fe231 Fe 0.56283 0.61112 0.07911 0.0
C232 C 0.32703 0.22529 0.05285 0.0
O233 O 0.56104 0.20204 1.027 0.0
O234 O 0.50654 0.09025 0.09286 0.0
O235 O 0.67947 0.73691 0.07173 0.0
O236 O 0.72593 0.67452 0.99505 0.0
O237 O 0.63435 0.46222 0.92237 0.0
O238 O 0.51715 0.31199 0.9389 0.0
O239 O 0.58034 0.35129 0.16698 0.0
O240 O 0.63864 0.43134 0.10282 0.0
C241 C 0.59338 0.32376 0.92165 0.0
O242 O 0.49788 0.80409 0.05104 0.0
O243 O 0.59253 0.8944 0.99626 0.0
O244 O 0.37772 0.24509 1.01636 0.0
O245 O 0.34782 0.23051 0.09805 0.0
C246 C 0.53769 0.07868 0.05149 0.0
C247 C 0.64346 0.42611 0.14734 0.0
C248 C 0.44284 0.58598 0.18006 0.0
O249 O 0.41894 0.44913 0.16985 0.0
O250 O 0.50066 0.65212 0.1501 0.0
C251 C 0.73861 0.70534 1.04012 0.0
O252 O 0.49386 0.72053 0.92845 0.0
O253 O 0.40852 0.59428 0.98496 0.0
C254 C 0.54111 0.91866 1.03082 0.0
C255 C 0.41388 0.69304 0.94422 0.0
loop_
_geom_bond_atom_site_label_1
_geom_bond_atom_site_label_2
_geom_bond_distance
_geom_bond_site_symmetry_2
_ccdc_geom_bond_type
Fe0 O1 1.886 1_556 S
Fe0 O4 1.715 . S
Fe0 O9 2.077 . S
Fe0 O14 1.935 1_655 S
Fe0 O20 2.077 . S
Fe0 O29 1.935 . S
O1 Fe0 1.886 1_554 S
O1 Fe3 1.715 . S
Fe2 O4 1.886 1_445 S
Fe2 O5 1.715 . S
Fe2 O12 1.935 . S
Fe2 O13 2.077 . S
Fe2 O19 1.935 1_455 S
Fe2 O28 2.077 1_455 S
Fe3 O1 1.715 . S
Fe3 O6 1.886 1_665 S
Fe3 O10 1.935 1_655 S
Fe3 O15 2.077 1_655 S
Fe3 O21 1.935 . S
Fe3 O25 2.077 . S
O4 Fe0 1.715 . S
O4 Fe2 1.886 1_665 S
O5 Fe2 1.715 . S
O5 Fe7 1.886 1_556 S
O6 Fe3 1.886 1_445 S
O6 Fe7 1.715 . S
Fe7 O5 1.886 1_554 S
Fe7 O6 1.715 . S
Fe7 O11 2.077 . S
Fe7 O16 1.935 . S
Fe7 O18 2.077 . S
Fe7 O26 1.935 1_455 S
C8 O20 1.381 1_554 S
C8 O21 1.421 . S
O9 Fe0 2.077 . S
O9 C22 1.381 1_656 S
O10 Fe3 1.935 1_455 S
O10 C22 1.421 . S
O11 Fe7 2.077 . S
O11 C27 1.381 1_554 S
O12 Fe2 1.935 . S
O12 C27 1.421 . S
O13 Fe2 2.077 . S
O13 C17 1.381 1_545 S
O14 Fe0 1.935 1_455 S
O14 C17 1.421 . S
O15 Fe3 2.077 1_455 S
O15 C23 1.381 . S
O16 Fe7 1.935 . S
O16 C23 1.421 1_545 S
C17 O13 1.381 1_565 S
C17 O14 1.421 . S
O18 Fe7 2.077 . S
O18 C30 1.381 1_454 S
O19 Fe2 1.935 1_655 S
O19 C30 1.421 . S
O20 Fe0 2.077 . S
O20 C8 1.381 1_556 S
O21 Fe3 1.935 . S
O21 C8 1.421 . S
C22 O9 1.381 1_454 S
C22 O10 1.421 . S
C23 O15 1.381 . S
C23 O16 1.421 1_565 S
C24 O25 1.381 1_545 S
C24 O26 1.421 . S
O25 Fe3 2.077 . S
O25 C24 1.381 1_565 S
O26 Fe7 1.935 1_655 S
O26 C24 1.421 . S
C27 O11 1.381 1_556 S
C27 O12 1.421 . S
O28 Fe2 2.077 1_655 S
O28 C31 1.381 . S
O29 Fe0 1.935 . S
O29 C31 1.421 1_565 S
C30 O18 1.381 1_656 S
C30 O19 1.421 . S
C31 O28 1.381 . S
C31 O29 1.421 1_545 S
Fe32 O33 1.886 . S
Fe32 O36 1.715 . S
Fe32 O41 2.077 . S
Fe32 O46 1.935 . S
Fe32 O52 2.077 . S
Fe32 O61 1.935 . S
O33 Fe32 1.886 . S
O33 Fe35 1.715 . S
Fe34 O36 1.886 . S
Fe34 O37 1.715 . S
Fe34 O44 1.935 . S
Fe34 O45 2.077 . S
Fe34 O51 1.935 . S
Fe34 O60 2.077 . S
Fe35 O33 1.715 . S
Fe35 O38 1.886 . S
Fe35 O42 1.935 . S
Fe35 O47 2.077 1_545 S
Fe35 O53 1.935 . S
Fe35 O57 2.077 1_545 S
O36 Fe32 1.715 . S
O36 Fe34 1.886 . S
O37 Fe34 1.715 . S
O37 Fe39 1.886 . S
O38 Fe35 1.886 . S
O38 Fe39 1.715 . S
Fe39 O37 1.886 . S
Fe39 O38 1.715 . S
Fe39 O43 2.077 . S
Fe39 O48 1.935 . S
Fe39 O50 2.077 . S
Fe39 O58 1.935 1_545 S
C40 O52 1.381 . S
C40 O53 1.421 . S
O41 Fe32 2.077 . S
O41 C54 1.381 . S
O42 Fe35 1.935 . S
O42 C54 1.421 . S
O43 Fe39 2.077 . S
O43 C59 1.381 . S
O44 Fe34 1.935 . S
O44 C59 1.421 . S
O45 Fe34 2.077 . S
O45 C49 1.381 . S
O46 Fe32 1.935 . S
O46 C49 1.421 . S
O47 Fe35 2.077 1_565 S
O47 C55 1.381 . S
O48 Fe39 1.935 . S
O48 C55 1.421 1_545 S
C49 O45 1.381 . S
C49 O46 1.421 . S
O50 Fe39 2.077 . S
O50 C62 1.381 . S
O51 Fe34 1.935 . S
O51 C62 1.421 . S
O52 Fe32 2.077 . S
O52 C40 1.381 . S
O53 Fe35 1.935 . S
O53 C40 1.421 . S
C54 O41 1.381 . S
C54 O42 1.421 . S
C55 O47 1.381 . S
C55 O48 1.421 1_565 S
C56 O57 1.381 . S
C56 O58 1.421 . S
O57 Fe35 2.077 1_565 S
O57 C56 1.381 . S
O58 Fe39 1.935 1_565 S
O58 C56 1.421 . S
C59 O43 1.381 . S
C59 O44 1.421 . S
O60 Fe34 2.077 . S
O60 C63 1.381 . S
O61 Fe32 1.935 . S
O61 C63 1.421 . S
C62 O50 1.381 . S
C62 O51 1.421 . S
C63 O60 1.381 . S
C63 O61 1.421 . S
Fe64 O65 1.886 . S
Fe64 O68 1.715 . S
Fe64 O73 2.077 . S
Fe64 O78 1.935 1_565 S
Fe64 O84 2.077 . S
Fe64 O93 1.935 . S
O65 Fe64 1.886 . S
O65 Fe67 1.715 . S
Fe66 O68 1.886 . S
Fe66 O69 1.715 . S
Fe66 O76 1.935 . S
Fe66 O77 2.077 1_565 S
Fe66 O83 1.935 . S
Fe66 O92 2.077 1_565 S
Fe67 O65 1.715 . S
Fe67 O70 1.886 . S
Fe67 O74 1.935 . S
Fe67 O79 2.077 . S
Fe67 O85 1.935 . S
Fe67 O89 2.077 . S
O68 Fe64 1.715 . S
O68 Fe66 1.886 . S
O69 Fe66 1.715 . S
O69 Fe71 1.886 . S
O70 Fe67 1.886 . S
O70 Fe71 1.715 . S
Fe71 O69 1.886 . S
Fe71 O70 1.715 . S
Fe71 O75 2.077 . S
Fe71 O80 1.935 . S
Fe71 O82 2.077 . S
Fe71 O90 1.935 . S
C72 O84 1.381 . S
C72 O85 1.421 . S
O73 Fe64 2.077 . S
O73 C86 1.381 . S
O74 Fe67 1.935 . S
O74 C86 1.421 . S
O75 Fe71 2.077 . S
O75 C91 1.381 . S
O76 Fe66 1.935 . S
O76 C91 1.421 . S
O77 Fe66 2.077 1_545 S
O77 C81 1.381 . S
O78 Fe64 1.935 1_545 S
O78 C81 1.421 . S
O79 Fe67 2.077 . S
O79 C87 1.381 . S
O80 Fe71 1.935 . S
O80 C87 1.421 . S
C81 O77 1.381 . S
C81 O78 1.421 . S
O82 Fe71 2.077 . S
O82 C94 1.381 . S
O83 Fe66 1.935 . S
O83 C94 1.421 . S
O84 Fe64 2.077 . S
O84 C72 1.381 . S
O85 Fe67 1.935 . S
O85 C72 1.421 . S
C86 O73 1.381 . S
C86 O74 1.421 . S
C87 O79 1.381 . S
C87 O80 1.421 . S
C88 O89 1.381 . S
C88 O90 1.421 . S
O89 Fe67 2.077 . S
O89 C88 1.381 . S
O90 Fe71 1.935 . S
O90 C88 1.421 . S
C91 O75 1.381 . S
C91 O76 1.421 . S
O92 Fe66 2.077 1_545 S
O92 C95 1.381 . S
O93 Fe64 1.935 . S
O93 C95 1.421 1_565 S
C94 O82 1.381 . S
C94 O83 1.421 . S
C95 O92 1.381 . S
C95 O93 1.421 1_545 S
Fe96 O97 1.886 . S
Fe96 O100 1.715 . S
Fe96 O105 2.077 . S
Fe96 O110 1.935 1_655 S
Fe96 O116 2.077 . S
Fe96 O125 1.935 . S
O97 Fe96 1.886 . S
O97 Fe99 1.715 . S
Fe98 O100 1.886 1_455 S
Fe98 O101 1.715 . S
Fe98 O108 1.935 . S
Fe98 O109 2.077 . S
Fe98 O115 1.935 1_455 S
Fe98 O124 2.077 1_455 S
Fe99 O97 1.715 . S
Fe99 O102 1.886 1_655 S
Fe99 O106 1.935 1_655 S
Fe99 O111 2.077 1_655 S
Fe99 O117 1.935 . S
Fe99 O121 2.077 . S
O100 Fe96 1.715 . S
O100 Fe98 1.886 1_655 S
O101 Fe98 1.715 . S
O101 Fe103 1.886 . S
O102 Fe99 1.886 1_455 S
O102 Fe103 1.715 . S
Fe103 O101 1.886 . S
Fe103 O102 1.715 . S
Fe103 O107 2.077 . S
Fe103 O112 1.935 . S
Fe103 O114 2.077 . S
Fe103 O122 1.935 1_455 S
C104 O116 1.381 . S
C104 O117 1.421 . S
O105 Fe96 2.077 . S
O105 C118 1.381 1_655 S
O106 Fe99 1.935 1_455 S
O106 C118 1.421 . S
O107 Fe103 2.077 . S
O107 C123 1.381 . S
O108 Fe98 1.935 . S
O108 C123 1.421 . S
O109 Fe98 2.077 . S
O109 C113 1.381 . S
O110 Fe96 1.935 1_455 S
O110 C113 1.421 . S
O111 Fe99 2.077 1_455 S
O111 C119 1.381 . S
O112 Fe103 1.935 . S
O112 C119 1.421 . S
C113 O109 1.381 . S
C113 O110 1.421 . S
O114 Fe103 2.077 . S
O114 C126 1.381 1_455 S
O115 Fe98 1.935 1_655 S
O115 C126 1.421 . S
O116 Fe96 2.077 . S
O116 C104 1.381 . S
O117 Fe99 1.935 . S
O117 C104 1.421 . S
C118 O105 1.381 1_455 S
C118 O106 1.421 . S
C119 O111 1.381 . S
C119 O112 1.421 . S
C120 O121 1.381 . S
C120 O122 1.421 . S
O121 Fe99 2.077 . S
O121 C120 1.381 . S
O122 Fe103 1.935 1_655 S
O122 C120 1.421 . S
C123 O107 1.381 . S
C123 O108 1.421 . S
O124 Fe98 2.077 1_655 S
O124 C127 1.381 . S
O125 Fe96 1.935 . S
O125 C127 1.421 . S
C126 O114 1.381 1_655 S
C126 O115 1.421 . S
C127 O124 1.381 . S
C127 O125 1.421 . S
Fe128 O129 1.886 . S
Fe128 O132 1.715 . S
Fe128 O137 2.077 . S
Fe128 O142 1.935 1_565 S
Fe128 O148 2.077 . S
Fe128 O157 1.935 . S
O129 Fe128 1.886 . S
O129 Fe131 1.715 . S
Fe130 O132 1.886 . S
Fe130 O133 1.715 . S
Fe130 O140 1.935 . S
Fe130 O141 2.077 1_565 S
Fe130 O147 1.935 . S
Fe130 O156 2.077 1_565 S
Fe131 O129 1.715 . S
Fe131 O134 1.886 . S
Fe131 O138 1.935 . S
Fe131 O143 2.077 . S
Fe131 O149 1.935 . S
Fe131 O153 2.077 . S
O132 Fe128 1.715 . S
O132 Fe130 1.886 . S
O133 Fe130 1.715 . S
O133 Fe135 1.886 . S
O134 Fe131 1.886 . S
O134 Fe135 1.715 . S
Fe135 O133 1.886 . S
Fe135 O134 1.715 . S
Fe135 O139 2.077 . S
Fe135 O144 1.935 . S
Fe135 O146 2.077 . S
Fe135 O154 1.935 . S
C136 O148 1.381 . S
C136 O149 1.421 . S
O137 Fe128 2.077 . S
O137 C150 1.381 . S
O138 Fe131 1.935 . S
O138 C150 1.421 . S
O139 Fe135 2.077 . S
O139 C155 1.381 . S
O140 Fe130 1.935 . S
O140 C155 1.421 . S
O141 Fe130 2.077 1_545 S
O141 C145 1.381 . S
O142 Fe128 1.935 1_545 S
O142 C145 1.421 . S
O143 Fe131 2.077 . S
O143 C151 1.381 . S
O144 Fe135 1.935 . S
O144 C151 1.421 . S
C145 O141 1.381 . S
C145 O142 1.421 . S
O146 Fe135 2.077 . S
O146 C158 1.381 . S
O147 Fe130 1.935 . S
O147 C158 1.421 . S
O148 Fe128 2.077 . S
O148 C136 1.381 . S
O149 Fe131 1.935 . S
O149 C136 1.421 . S
C150 O137 1.381 . S
C150 O138 1.421 . S
C151 O143 1.381 . S
C151 O144 1.421 . S
C152 O153 1.381 . S
C152 O154 1.421 . S
O153 Fe131 2.077 . S
O153 C152 1.381 . S
O154 Fe135 1.935 . S
O154 C152 1.421 . S
C155 O139 1.381 . S
C155 O140 1.421 . S
O156 Fe130 2.077 1_545 S
O156 C159 1.381 . S
O157 Fe128 1.935 . S
O157 C159 1.421 1_565 S
C158 O146 1.381 . S
C158 O147 1.421 . S
C159 O156 1.381 . S
C159 O157 1.421 1_545 S
Fe160 O161 1.886 . S
Fe160 O164 1.715 . S
Fe160 O169 2.077 . S
Fe160 O174 1.935 . S
Fe160 O180 2.077 . S
Fe160 O189 1.935 . S
O161 Fe160 1.886 . S
O161 Fe163 1.715 . S
Fe162 O164 1.886 . S
Fe162 O165 1.715 . S
Fe162 O172 1.935 . S
Fe162 O173 2.077 . S
Fe162 O179 1.935 . S
Fe162 O188 2.077 . S
Fe163 O161 1.715 . S
Fe163 O166 1.886 . S
Fe163 O170 1.935 . S
Fe163 O175 2.077 1_545 S
Fe163 O181 1.935 . S
Fe163 O185 2.077 1_545 S
O164 Fe160 1.715 . S
O164 Fe162 1.886 . S
O165 Fe162 1.715 . S
O165 Fe167 1.886 . S
O166 Fe163 1.886 . S
O166 Fe167 1.715 . S
Fe167 O165 1.886 . S
Fe167 O166 1.715 . S
Fe167 O171 2.077 . S
Fe167 O176 1.935 . S
Fe167 O178 2.077 . S
Fe167 O186 1.935 1_545 S
C168 O180 1.381 . S
C168 O181 1.421 . S
O169 Fe160 2.077 . S
O169 C182 1.381 . S
O170 Fe163 1.935 . S
O170 C182 1.421 . S
O171 Fe167 2.077 . S
O171 C187 1.381 . S
O172 Fe162 1.935 . S
O172 C187 1.421 . S
O173 Fe162 2.077 . S
O173 C177 1.381 . S
O174 Fe160 1.935 . S
O174 C177 1.421 . S
O175 Fe163 2.077 1_565 S
O175 C183 1.381 . S
O176 Fe167 1.935 . S
O176 C183 1.421 1_545 S
C177 O173 1.381 . S
C177 O174 1.421 . S
O178 Fe167 2.077 . S
O178 C190 1.381 . S
O179 Fe162 1.935 . S
O179 C190 1.421 . S
O180 Fe160 2.077 . S
O180 C168 1.381 . S
O181 Fe163 1.935 . S
O181 C168 1.421 . S
C182 O169 1.381 . S
C182 O170 1.421 . S
C183 O175 1.381 . S
C183 O176 1.421 1_565 S
C184 O185 1.381 . S
C184 O186 1.421 . S
O185 Fe163 2.077 1_565 S
O185 C184 1.381 . S
O186 Fe167 1.935 1_565 S
O186 C184 1.421 . S
C187 O171 1.381 . S
C187 O172 1.421 . S
O188 Fe162 2.077 . S
O188 C191 1.381 . S
O189 Fe160 1.935 . S
O189 C191 1.421 . S
C190 O178 1.381 . S
C190 O179 1.421 . S
C191 O188 1.381 . S
C191 O189 1.421 . S
Fe192 O193 1.886 . S
Fe192 O196 1.715 . S
Fe192 O201 2.077 . S
Fe192 O206 1.935 . S
Fe192 O212 2.077 . S
Fe192 O221 1.935 . S
O193 Fe192 1.886 . S
O193 Fe195 1.715 . S
Fe194 O196 1.886 1_545 S
Fe194 O197 1.715 . S
Fe194 O204 1.935 . S
Fe194 O205 2.077 . S
Fe194 O211 1.935 . S
Fe194 O220 2.077 . S
Fe195 O193 1.715 . S
Fe195 O198 1.886 1_565 S
Fe195 O202 1.935 . S
Fe195 O207 2.077 . S
Fe195 O213 1.935 . S
Fe195 O217 2.077 . S
O196 Fe192 1.715 . S
O196 Fe194 1.886 1_565 S
O197 Fe194 1.715 . S
O197 Fe199 1.886 . S
O198 Fe195 1.886 1_545 S
O198 Fe199 1.715 . S
Fe199 O197 1.886 . S
Fe199 O198 1.715 . S
Fe199 O203 2.077 . S
Fe199 O208 1.935 . S
Fe199 O210 2.077 . S
Fe199 O218 1.935 . S
C200 O212 1.381 . S
C200 O213 1.421 . S
O201 Fe192 2.077 . S
O201 C214 1.381 . S
O202 Fe195 1.935 . S
O202 C214 1.421 . S
O203 Fe199 2.077 . S
O203 C219 1.381 . S
O204 Fe194 1.935 . S
O204 C219 1.421 . S
O205 Fe194 2.077 . S
O205 C209 1.381 1_545 S
O206 Fe192 1.935 . S
O206 C209 1.421 . S
O207 Fe195 2.077 . S
O207 C215 1.381 . S
O208 Fe199 1.935 . S
O208 C215 1.421 1_545 S
C209 O205 1.381 1_565 S
C209 O206 1.421 . S
O210 Fe199 2.077 . S
O210 C222 1.381 . S
O211 Fe194 1.935 . S
O211 C222 1.421 . S
O212 Fe192 2.077 . S
O212 C200 1.381 . S
O213 Fe195 1.935 . S
O213 C200 1.421 . S
C214 O201 1.381 . S
C214 O202 1.421 . S
C215 O207 1.381 . S
C215 O208 1.421 1_565 S
C216 O217 1.381 1_545 S
C216 O218 1.421 . S
O217 Fe195 2.077 . S
O217 C216 1.381 1_565 S
O218 Fe199 1.935 . S
O218 C216 1.421 . S
C219 O203 1.381 . S
C219 O204 1.421 . S
O220 Fe194 2.077 . S
O220 C223 1.381 . S
O221 Fe192 1.935 . S
O221 C223 1.421 1_565 S
C222 O210 1.381 . S
C222 O211 1.421 . S
C223 O220 1.381 . S
C223 O221 1.421 1_545 S
Fe224 O225 1.886 1_556 S
Fe224 O228 1.715 . S
Fe224 O233 2.077 . S
Fe224 O238 1.935 . S
Fe224 O244 2.077 . S
Fe224 O253 1.935 . S
O225 Fe224 1.886 1_554 S
O225 Fe227 1.715 . S
Fe226 O228 1.886 . S
Fe226 O229 1.715 . S
Fe226 O236 1.935 . S
Fe226 O237 2.077 . S
Fe226 O243 1.935 . S
Fe226 O252 2.077 . S
Fe227 O225 1.715 . S
Fe227 O230 1.886 . S
Fe227 O234 1.935 . S
Fe227 O239 2.077 . S
Fe227 O245 1.935 . S
Fe227 O249 2.077 . S
O228 Fe224 1.715 . S
O228 Fe226 1.886 . S
O229 Fe226 1.715 . S
O229 Fe231 1.886 1_556 S
O230 Fe227 1.886 . S
O230 Fe231 1.715 . S
Fe231 O229 1.886 1_554 S
Fe231 O230 1.715 . S
Fe231 O235 2.077 . S
Fe231 O240 1.935 . S
Fe231 O242 2.077 . S
Fe231 O250 1.935 . S
C232 O244 1.381 1_554 S
C232 O245 1.421 . S
O233 Fe224 2.077 . S
O233 C246 1.381 1_556 S
O234 Fe227 1.935 . S
O234 C246 1.421 . S
O235 Fe231 2.077 . S
O235 C251 1.381 1_554 S
O236 Fe226 1.935 . S
O236 C251 1.421 . S
O237 Fe226 2.077 . S
O237 C241 1.381 . S
O238 Fe224 1.935 . S
O238 C241 1.421 . S
O239 Fe227 2.077 . S
O239 C247 1.381 . S
O240 Fe231 1.935 . S
O240 C247 1.421 . S
C241 O237 1.381 . S
C241 O238 1.421 . S
O242 Fe231 2.077 . S
O242 C254 1.381 1_554 S
O243 Fe226 1.935 . S
O243 C254 1.421 . S
O244 Fe224 2.077 . S
O244 C232 1.381 1_556 S
O245 Fe227 1.935 . S
O245 C232 1.421 . S
C246 O233 1.381 1_554 S
C246 O234 1.421 . S
C247 O239 1.381 . S
C247 O240 1.421 . S
C248 O249 1.381 . S
C248 O250 1.421 . S
O249 Fe227 2.077 . S
O249 C248 1.381 . S
O250 Fe231 1.935 . S
O250 C248 1.421 . S
C251 O235 1.381 1_556 S
C251 O236 1.421 . S
O252 Fe226 2.077 . S
O252 C255 1.381 . S
O253 Fe224 1.935 . S
O253 C255 1.421 . S
C254 O242 1.381 1_556 S
C254 O243 1.421 . S
C255 O252 1.381 . S
C255 O253 1.421 . S
C23 C40 2.125 1_565 S
C24 C86 2.358 1_545 S
C113 C62 2.126 . S
C91 C127 2.357 . S
C119 C136 2.126 . S
C182 C120 2.358 . S
C158 C17 2.127 . S
C187 C31 2.357 . S
C168 C215 2.126 1_545 S
C216 C150 2.358 1_545 S
C241 C190 2.126 . S
C255 C155 2.357 . S
C247 C72 2.126 . S
C54 C248 2.357 . S
C209 C94 2.127 . S
C223 C59 2.356 . S
C22 C30 0.658 1_454 S
C49 C56 0.658 . S
C81 C88 0.658 . S
C126 C118 0.658 1_665 S
C145 C152 0.658 . S
C177 C184 0.658 . S
C214 C222 0.658 . S
C254 C246 0.658 1_566 S
C232 C27 1.798 1_554 S
C8 C251 1.800 1_554 S
C63 C87 1.799 1_455 S
C200 C123 1.797 . S
C104 C219 1.801 . S
C183 C159 1.799 1_665 S
C191 C151 1.799 . S
C95 C55 1.799 1_545 S
