# Generated by pormake.
# Topology zfj, (5)-cn, num edge types: 1
# Building blocks:
#     Node 0, Type 0, BuildingBlock: XOMCOT_clean_sbu_1, # of connection points: 5
#     Node 1, Type 0, BuildingBlock: XOMCOT_clean_sbu_1, # of connection points: 5
#     Node 2, Type 0, BuildingBlock: XOMCOT_clean_sbu_1, # of connection points: 5
#     Node 3, Type 0, BuildingBlock: XOMCOT_clean_sbu_1, # of connection points: 5
#     Node 4, Type 0, BuildingBlock: XOMCOT_clean_sbu_1, # of connection points: 5
#     Node 5, Type 0, BuildingBlock: XOMCOT_clean_sbu_1, # of connection points: 5
#     Node 6, Type 0, BuildingBlock: XOMCOT_clean_sbu_1, # of connection points: 5
#     Node 7, Type 0, BuildingBlock: XOMCOT_clean_sbu_1, # of connection points: 5
#     Node 8, Type 0, BuildingBlock: XOMCOT_clean_sbu_1, # of connection points: 5
#     Node 9, Type 0, BuildingBlock: XOMCOT_clean_sbu_1, # of connection points: 5
#     Node 10, Type 0, BuildingBlock: XOMCOT_clean_sbu_1, # of connection points: 5
#     Node 11, Type 0, BuildingBlock: XOMCOT_clean_sbu_1, # of connection points: 5
#     Node 12, Type 0, BuildingBlock: XOMCOT_clean_sbu_1, # of connection points: 5
#     Node 13, Type 0, BuildingBlock: XOMCOT_clean_sbu_1, # of connection points: 5
#     Node 14, Type 0, BuildingBlock: XOMCOT_clean_sbu_1, # of connection points: 5
#     Node 15, Type 0, BuildingBlock: XOMCOT_clean_sbu_1, # of connection points: 5
#     Edge 16, Type (0, 0), BuildingBlock: OJICUG_clean_linker_0, # of connection points: 2
#     Edge 17, Type (0, 0), BuildingBlock: OJICUG_clean_linker_0, # of connection points: 2
#     Edge 18, Type (0, 0), BuildingBlock: OJICUG_clean_linker_0, # of connection points: 2
#     Edge 19, Type (0, 0), BuildingBlock: OJICUG_clean_linker_0, # of connection points: 2
#     Edge 20, Type (0, 0), BuildingBlock: OJICUG_clean_linker_0, # of connection points: 2
#     Edge 21, Type (0, 0), BuildingBlock: OJICUG_clean_linker_0, # of connection points: 2
#     Edge 22, Type (0, 0), BuildingBlock: OJICUG_clean_linker_0, # of connection points: 2
#     Edge 23, Type (0, 0), BuildingBlock: OJICUG_clean_linker_0, # of connection points: 2
#     Edge 24, Type (0, 0), BuildingBlock: OJICUG_clean_linker_0, # of connection points: 2
#     Edge 25, Type (0, 0), BuildingBlock: OJICUG_clean_linker_0, # of connection points: 2
#     Edge 26, Type (0, 0), BuildingBlock: OJICUG_clean_linker_0, # of connection points: 2
#     Edge 27, Type (0, 0), BuildingBlock: OJICUG_clean_linker_0, # of connection points: 2
#     Edge 28, Type (0, 0), BuildingBlock: OJICUG_clean_linker_0, # of connection points: 2
#     Edge 29, Type (0, 0), BuildingBlock: OJICUG_clean_linker_0, # of connection points: 2
#     Edge 30, Type (0, 0), BuildingBlock: OJICUG_clean_linker_0, # of connection points: 2
#     Edge 31, Type (0, 0), BuildingBlock: OJICUG_clean_linker_0, # of connection points: 2
#     Edge 32, Type (0, 0), BuildingBlock: OJICUG_clean_linker_0, # of connection points: 2
#     Edge 33, Type (0, 0), BuildingBlock: OJICUG_clean_linker_0, # of connection points: 2
#     Edge 34, Type (0, 0), BuildingBlock: OJICUG_clean_linker_0, # of connection points: 2
#     Edge 35, Type (0, 0), BuildingBlock: OJICUG_clean_linker_0, # of connection points: 2
#     Edge 36, Type (0, 0), BuildingBlock: OJICUG_clean_linker_0, # of connection points: 2
#     Edge 37, Type (0, 0), BuildingBlock: OJICUG_clean_linker_0, # of connection points: 2
#     Edge 38, Type (0, 0), BuildingBlock: OJICUG_clean_linker_0, # of connection points: 2
#     Edge 39, Type (0, 0), BuildingBlock: OJICUG_clean_linker_0, # of connection points: 2
#     Edge 40, Type (0, 0), BuildingBlock: OJICUG_clean_linker_0, # of connection points: 2
#     Edge 41, Type (0, 0), BuildingBlock: OJICUG_clean_linker_0, # of connection points: 2
#     Edge 42, Type (0, 0), BuildingBlock: OJICUG_clean_linker_0, # of connection points: 2
#     Edge 43, Type (0, 0), BuildingBlock: OJICUG_clean_linker_0, # of connection points: 2
#     Edge 44, Type (0, 0), BuildingBlock: OJICUG_clean_linker_0, # of connection points: 2
#     Edge 45, Type (0, 0), BuildingBlock: OJICUG_clean_linker_0, # of connection points: 2
#     Edge 46, Type (0, 0), BuildingBlock: OJICUG_clean_linker_0, # of connection points: 2
#     Edge 47, Type (0, 0), BuildingBlock: OJICUG_clean_linker_0, # of connection points: 2
#     Edge 48, Type (0, 0), BuildingBlock: OJICUG_clean_linker_0, # of connection points: 2
#     Edge 49, Type (0, 0), BuildingBlock: OJICUG_clean_linker_0, # of connection points: 2
#     Edge 50, Type (0, 0), BuildingBlock: OJICUG_clean_linker_0, # of connection points: 2
#     Edge 51, Type (0, 0), BuildingBlock: OJICUG_clean_linker_0, # of connection points: 2
#     Edge 52, Type (0, 0), BuildingBlock: OJICUG_clean_linker_0, # of connection points: 2
#     Edge 53, Type (0, 0), BuildingBlock: OJICUG_clean_linker_0, # of connection points: 2
#     Edge 54, Type (0, 0), BuildingBlock: OJICUG_clean_linker_0, # of connection points: 2
#     Edge 55, Type (0, 0), BuildingBlock: OJICUG_clean_linker_0, # of connection points: 2
# Relax obj value: 0.177
# Max RMSD: 0.148
# Mean RMSD: 0.148
data_MOF--net-zfj--node1-XOMCOT_clean_sbu_1--edge1-OJICUG_clean_linker_0
_symmetry_space_group_name_H-M    P1
_symmetry_Int_Tables_number       1
_symmetry_cell_setting            triclinic
loop_
_symmetry_equiv_pos_as_xyz
'x, y, z'
_cell_length_a     27.111085
_cell_length_b     27.091492
_cell_length_c     35.832405
_cell_angle_alpha  90.075464
_cell_angle_beta   90.077312
_cell_angle_gamma 90.552269
loop_
_atom_site_label
_atom_site_type_symbol
_atom_site_fract_x
_atom_site_fract_y
_atom_site_fract_z
_atom_type_partial_charge
C0 C 0.51804 0.30043 0.21242 0.0
C1 C 0.51704 0.35059 0.2173 0.0
N2 N 0.48521 0.36957 0.19257 0.0
N3 N 0.48754 0.28686 0.18422 0.0
C4 C 0.46676 0.33016 0.17358 0.0
H5 H 0.53971 0.27565 0.22911 0.0
Co6 Co 0.47729 0.21945 0.16904 0.0
C7 C 0.46684 0.27207 0.09537 0.0
O8 O 0.50283 0.30283 0.10414 0.0
N9 N 0.46708 0.15302 0.15584 0.0
C10 C 0.43471 0.08394 0.13234 0.0
C11 C 0.43056 0.1345 0.13427 0.0
C12 C 0.49256 0.11293 0.16707 0.0
N13 N 0.47388 0.07016 0.15298 0.0
O14 O 0.41189 0.22128 0.18874 0.0
H15 H 0.40194 0.15621 0.12143 0.0
H16 H 0.52414 0.1152 0.18543 0.0
O17 O 0.45355 0.23891 0.11883 0.0
C18 C 0.41253 0.21912 0.22431 0.0
O19 O 0.45543 0.22022 0.24139 0.0
N20 N 0.54312 0.2148 0.15325 0.0
C21 C 0.64483 0.2207 0.14464 0.0
C22 C 0.6137 0.22126 0.11327 0.0
C23 C 0.56269 0.21627 0.11814 0.0
C24 C 0.57308 0.20632 0.18296 0.0
C25 C 0.62399 0.20916 0.17939 0.0
H26 H 0.53958 0.21474 0.09372 0.0
H27 H 0.55709 0.19877 0.21 0.0
H28 H 0.43892 0.33308 0.15208 0.0
H29 H 0.5397 0.37172 0.23656 0.0
H30 H 0.40968 0.05929 0.11772 0.0
H31 H 0.62807 0.22747 0.08549 0.0
H32 H 0.64658 0.20427 0.20403 0.0
C33 C 0.22288 0.53928 0.71196 0.0
C34 C 0.17267 0.54143 0.71648 0.0
N35 N 0.15118 0.51149 0.69104 0.0
N36 N 0.23352 0.50787 0.68396 0.0
C37 C 0.18907 0.4914 0.67173 0.0
H38 H 0.25002 0.56102 0.72704 0.0
Co39 Co 0.29792 0.49955 0.66605 0.0
C40 C 0.26983 0.43354 0.60159 0.0
O41 O 0.28231 0.39283 0.61891 0.0
N42 N 0.36285 0.49235 0.64877 0.0
C43 C 0.4293 0.49289 0.61261 0.0
C44 C 0.37868 0.49191 0.6131 0.0
C45 C 0.40467 0.49372 0.66944 0.0
N46 N 0.44594 0.49469 0.64809 0.0
O47 O 0.30058 0.43514 0.6878 0.0
H48 H 0.35524 0.49329 0.58874 0.0
H49 H 0.40449 0.49696 0.69953 0.0
O50 O 0.27321 0.47501 0.61838 0.0
C51 C 0.30523 0.43689 0.72324 0.0
O52 O 0.30489 0.48017 0.73976 0.0
N53 N 0.29698 0.56369 0.64792 0.0
C54 C 0.28982 0.66494 0.6372 0.0
C55 C 0.25693 0.63234 0.61919 0.0
C56 C 0.26125 0.58155 0.62484 0.0
C57 C 0.33044 0.59464 0.66423 0.0
C58 C 0.32837 0.6452 0.65843 0.0
H59 H 0.23373 0.55707 0.61294 0.0
H60 H 0.35738 0.58035 0.68353 0.0
H61 H 0.18455 0.4665 0.64835 0.0
H62 H 0.15352 0.56553 0.73559 0.0
H63 H 0.45182 0.49339 0.58773 0.0
H64 H 0.22619 0.64589 0.60297 0.0
H65 H 0.35526 0.66877 0.67224 0.0
C66 C 0.97993 0.22484 0.21875 0.0
C67 C 0.97815 0.17453 0.22314 0.0
N68 N 0.00649 0.15393 0.19664 0.0
N69 N 0.00961 0.2364 0.18982 0.0
C70 C 0.02546 0.19235 0.17697 0.0
H71 H 0.95856 0.2513 0.23434 0.0
Co72 Co 0.01513 0.30116 0.17158 0.0
C73 C 0.07301 0.2609 0.10187 0.0
O74 O 0.1161 0.24688 0.11461 0.0
N75 N 0.0199 0.36666 0.15428 0.0
C76 C 0.02555 0.43329 0.11833 0.0
C77 C 0.02735 0.3828 0.11908 0.0
C78 C 0.01427 0.40846 0.17454 0.0
N79 N 0.01688 0.44961 0.15317 0.0
O80 O 0.07916 0.30824 0.19374 0.0
H81 H 0.03355 0.35994 0.09503 0.0
H82 H 0.00678 0.40848 0.2042 0.0
O83 O 0.0412 0.27888 0.12414 0.0
C84 C 0.07557 0.3154 0.22887 0.0
O85 O 0.03152 0.31449 0.24403 0.0
N86 N 0.95127 0.29546 0.15251 0.0
C87 C 0.85106 0.27919 0.13977 0.0
C88 C 0.88635 0.24796 0.12389 0.0
C89 C 0.9364 0.25691 0.13045 0.0
C90 C 0.91771 0.32736 0.16675 0.0
C91 C 0.86761 0.32074 0.15984 0.0
H92 H 0.96284 0.23077 0.11996 0.0
H93 H 0.92944 0.35666 0.18527 0.0
H94 H 0.04849 0.18826 0.15264 0.0
H95 H 0.95493 0.15461 0.24265 0.0
H96 H 0.03068 0.45619 0.0939 0.0
H97 H 0.87558 0.21508 0.10862 0.0
H98 H 0.84202 0.34672 0.17187 0.0
C99 C 0.30553 0.04892 0.72025 0.0
C100 C 0.35579 0.04428 0.72159 0.0
N101 N 0.37217 0.03281 0.68723 0.0
N102 N 0.28927 0.04093 0.68513 0.0
C103 C 0.33096 0.03083 0.66562 0.0
H104 H 0.28253 0.05581 0.74417 0.0
Co105 Co 0.2216 0.03798 0.67155 0.0
C106 C 0.2596 0.09089 0.60059 0.0
O107 O 0.29172 0.1224 0.61466 0.0
N108 N 0.15388 0.03478 0.65859 0.0
C109 C 0.08243 0.05069 0.63059 0.0
C110 C 0.13192 0.0616 0.63161 0.0
C111 C 0.11623 0.00891 0.67443 0.0
N112 N 0.0724 0.01757 0.6575 0.0
O113 O 0.2117 0.10313 0.69055 0.0
H114 H 0.1501 0.08896 0.61443 0.0
H115 H 0.12065 0.98478 0.69821 0.0
O116 O 0.23579 0.06166 0.62194 0.0
C117 C 0.19667 0.09823 0.72409 0.0
O118 O 0.19144 0.05341 0.73764 0.0
N119 N 0.22959 0.97323 0.6562 0.0
C120 C 0.24531 0.8729 0.64619 0.0
C121 C 0.25451 0.90622 0.61703 0.0
C122 C 0.24623 0.95649 0.62254 0.0
C123 C 0.2193 0.94132 0.68439 0.0
C124 C 0.22621 0.89095 0.67987 0.0
H125 H 0.25504 0.98151 0.60012 0.0
H126 H 0.20646 0.95539 0.71088 0.0
H127 H 0.33093 0.02123 0.63632 0.0
H128 H 0.37813 0.04691 0.74657 0.0
H129 H 0.05539 0.06768 0.61256 0.0
H130 H 0.26972 0.89393 0.59072 0.0
H131 H 0.21747 0.86653 0.70288 0.0
C132 C 0.46607 0.20111 0.8172 0.0
C133 C 0.47048 0.15072 0.81601 0.0
N134 N 0.48015 0.13425 0.85067 0.0
N135 N 0.47248 0.21738 0.85251 0.0
C136 C 0.48092 0.17548 0.87231 0.0
H137 H 0.46091 0.22423 0.79308 0.0
Co138 Co 0.47783 0.28525 0.86607 0.0
C139 C 0.42379 0.24994 0.93758 0.0
O140 O 0.39042 0.21919 0.92422 0.0
N141 N 0.48343 0.35328 0.87909 0.0
C142 C 0.47052 0.42494 0.90792 0.0
C143 C 0.45831 0.37573 0.90679 0.0
C144 C 0.50947 0.39064 0.86286 0.0
N145 N 0.50273 0.43452 0.88032 0.0
O146 O 0.41336 0.29764 0.84692 0.0
H147 H 0.43113 0.35819 0.92447 0.0
H148 H 0.5323 0.38608 0.83839 0.0
O149 O 0.45359 0.27198 0.91564 0.0
C150 C 0.41891 0.31214 0.81329 0.0
O151 O 0.46383 0.31503 0.79965 0.0
N152 N 0.54202 0.27465 0.88159 0.0
C153 C 0.64076 0.2497 0.88969 0.0
C154 C 0.6064 0.23806 0.91772 0.0
C155 C 0.5572 0.25161 0.91343 0.0
C156 C 0.5749 0.28757 0.85472 0.0
C157 C 0.62457 0.27684 0.85867 0.0
H158 H 0.53136 0.2408 0.93481 0.0
H159 H 0.56211 0.30498 0.82942 0.0
H160 H 0.48881 0.17529 0.90186 0.0
H161 H 0.46935 0.12841 0.79095 0.0
H162 H 0.45499 0.45218 0.92654 0.0
H163 H 0.61657 0.21685 0.94205 0.0
H164 H 0.64957 0.28873 0.83688 0.0
C165 C 0.29052 0.52293 0.32593 0.0
C166 C 0.34084 0.52378 0.32202 0.0
N167 N 0.36091 0.50235 0.35221 0.0
N168 N 0.27828 0.50024 0.35814 0.0
C169 C 0.32217 0.48823 0.37372 0.0
H170 H 0.2647 0.54092 0.30756 0.0
Co171 Co 0.2131 0.49918 0.37617 0.0
C172 C 0.22677 0.43349 0.4425 0.0
O173 O 0.20203 0.3968 0.42716 0.0
N174 N 0.14755 0.4994 0.39338 0.0
C175 C 0.08134 0.51029 0.42883 0.0
C176 C 0.13187 0.50659 0.42866 0.0
C177 C 0.10582 0.49924 0.37258 0.0
N178 N 0.06477 0.50608 0.39345 0.0
O179 O 0.20254 0.43481 0.35491 0.0
H180 H 0.15565 0.51094 0.4527 0.0
H181 H 0.10593 0.49658 0.34247 0.0
O182 O 0.23439 0.47314 0.42411 0.0
C183 C 0.19393 0.43788 0.31995 0.0
O184 O 0.19372 0.48174 0.30446 0.0
N185 N 0.22218 0.56312 0.39374 0.0
C186 C 0.24155 0.66317 0.40389 0.0
C187 C 0.2705 0.62768 0.4219 0.0
C188 C 0.25991 0.5776 0.41667 0.0
C189 C 0.19238 0.59699 0.37749 0.0
C190 C 0.2005 0.64711 0.38308 0.0
H191 H 0.28413 0.55071 0.42898 0.0
H192 H 0.1634 0.58513 0.35868 0.0
H193 H 0.32583 0.47193 0.40112 0.0
H194 H 0.3612 0.54221 0.30002 0.0
H195 H 0.0588 0.51621 0.45328 0.0
H196 H 0.30279 0.63817 0.43796 0.0
H197 H 0.1761 0.67297 0.36957 0.0
C198 C 0.96363 0.2898 0.83329 0.0
C199 C 0.96312 0.33999 0.82837 0.0
N200 N 1.00097 0.35994 0.84762 0.0
N201 N 1.00123 0.27736 0.8561 0.0
C202 C 0.02447 0.32103 0.86317 0.0
H203 H 0.93757 0.26423 0.82096 0.0
Co204 Co 0.01462 0.21128 0.87138 0.0
C205 C 0.02638 0.26851 0.94356 0.0
O206 O 0.99183 0.2996 0.93368 0.0
N207 N 0.02682 0.14558 0.88495 0.0
C208 C 0.03861 0.07695 0.91759 0.0
C209 C 0.04166 0.12763 0.91822 0.0
C210 C 0.01565 0.10493 0.86442 0.0
N211 N 0.02185 0.06261 0.88384 0.0
O212 O 0.07956 0.21623 0.85093 0.0
H213 H 0.05245 0.14956 0.94212 0.0
H214 H 1.001 0.10649 0.83635 0.0
O215 O 0.0385 0.23374 0.92121 0.0
C216 C 0.07931 0.21684 0.81527 0.0
O217 O 0.03678 0.22051 0.79794 0.0
N218 N 0.94958 0.20268 0.8876 0.0
C219 C 0.84737 0.19562 0.89402 0.0
C220 C 0.87675 0.20939 0.92482 0.0
C221 C 0.92802 0.21054 0.92144 0.0
C222 C 0.92246 0.18318 0.85915 0.0
C223 C 0.8716 0.17825 0.862 0.0
H224 H 0.9493 0.21843 0.94601 0.0
H225 H 0.94042 0.17352 0.83326 0.0
H226 H 0.05697 0.32445 0.88059 0.0
H227 H 0.93535 0.3604 0.81329 0.0
H228 H 0.0476 0.05256 0.94046 0.0
H229 H 0.86102 0.2211 0.95102 0.0
H230 H 0.85184 0.16293 0.8384 0.0
C231 C 0.21473 0.99009 0.32842 0.0
C232 C 0.16458 0.99004 0.32361 0.0
N233 N 0.14532 0.02415 0.34642 0.0
N234 N 0.22801 0.02355 0.35472 0.0
C235 C 0.1846 0.04499 0.36413 0.0
H236 H 0.23969 0.96705 0.313 0.0
Co237 Co 0.29509 0.03595 0.36952 0.0
C238 C 0.24145 0.04775 0.4427 0.0
O239 O 0.21106 0.01138 0.43407 0.0
N240 N 0.3613 0.04793 0.3823 0.0
C241 C 0.43009 0.07926 0.40703 0.0
C242 C 0.37951 0.0831 0.40529 0.0
C243 C 0.40162 0.02385 0.36984 0.0
N244 N 0.44408 0.04181 0.38473 0.0
O245 O 0.29165 0.10078 0.34886 0.0
H246 H 0.35758 0.11044 0.41945 0.0
H247 H 0.39983 0.99351 0.35026 0.0
O248 O 0.27507 0.06058 0.41946 0.0
C249 C 0.29244 0.09988 0.31325 0.0
O250 O 0.29033 0.05686 0.29636 0.0
N251 N 0.30151 0.97082 0.38636 0.0
C252 C 0.30012 0.86918 0.39625 0.0
C253 C 0.2967 0.90093 0.42715 0.0
C254 C 0.2995 0.95198 0.42168 0.0
C255 C 0.31242 0.94065 0.35724 0.0
C256 C 0.31217 0.88977 0.36151 0.0
H257 H 0.29899 0.9756 0.44582 0.0
H258 H 0.31969 0.95636 0.33005 0.0
H259 H 0.18157 0.07483 0.38406 0.0
H260 H 0.14371 0.96519 0.30578 0.0
H261 H 0.45468 0.10315 0.42277 0.0
H262 H 0.28985 0.88697 0.45496 0.0
H263 H 0.31916 0.86694 0.33731 0.0
C264 C 0.49949 0.70541 0.82479 0.0
C265 C 0.50019 0.6553 0.81952 0.0
N266 N 0.53294 0.63591 0.84336 0.0
N267 N 0.53113 0.7186 0.85235 0.0
C268 C 0.55234 0.67512 0.86212 0.0
H269 H 0.47699 0.73048 0.80899 0.0
Co270 Co 0.54036 0.78613 0.86783 0.0
C271 C 0.55311 0.73249 0.94119 0.0
O272 O 0.51891 0.69995 0.93201 0.0
N273 N 0.5492 0.85302 0.88113 0.0
C274 C 0.57896 0.92281 0.90548 0.0
C275 C 0.58417 0.87231 0.90375 0.0
C276 C 0.52368 0.89271 0.869 0.0
N277 N 0.54069 0.93587 0.88362 0.0
O278 O 0.60581 0.78566 0.84829 0.0
H279 H 0.61248 0.85121 0.91754 0.0
H280 H 0.49322 0.88995 0.84965 0.0
O281 O 0.56448 0.76685 0.91812 0.0
C282 C 0.60578 0.78745 0.81271 0.0
O283 O 0.56329 0.78438 0.79516 0.0
N284 N 0.47455 0.78938 0.88357 0.0
C285 C 0.37253 0.78147 0.89141 0.0
C286 C 0.4039 0.77764 0.92264 0.0
C287 C 0.45472 0.78417 0.91833 0.0
C288 C 0.44472 0.80033 0.85431 0.0
C289 C 0.39378 0.79758 0.8577 0.0
H290 H 0.47738 0.78398 0.94295 0.0
H291 H 0.46084 0.80991 0.82766 0.0
H292 H 0.58088 0.67191 0.88308 0.0
H293 H 0.47651 0.63447 0.80078 0.0
H294 H 0.60262 0.94792 0.92092 0.0
H295 H 0.39038 0.76821 0.95006 0.0
H296 H 0.37196 0.80656 0.83344 0.0
C297 C 0.79126 0.46788 0.33384 0.0
C298 C 0.84157 0.46636 0.33033 0.0
N299 N 0.86136 0.50388 0.35009 0.0
N300 N 0.77847 0.50567 0.35638 0.0
C301 C 0.82219 0.52815 0.36452 0.0
H302 H 0.76598 0.44243 0.32054 0.0
Co303 Co 0.71247 0.52107 0.37096 0.0
C304 C 0.76824 0.52986 0.44351 0.0
O305 O 0.79707 0.49322 0.43395 0.0
N306 N 0.64738 0.53593 0.38416 0.0
C307 C 0.58102 0.56417 0.41336 0.0
C308 C 0.6317 0.56592 0.41173 0.0
C309 C 0.60546 0.51728 0.36891 0.0
N310 N 0.56449 0.53336 0.38649 0.0
O311 O 0.71954 0.58573 0.35025 0.0
H312 H 0.65536 0.58777 0.42972 0.0
H313 H 0.60498 0.4916 0.34579 0.0
O314 O 0.73484 0.54428 0.42081 0.0
C315 C 0.72065 0.58539 0.3146 0.0
O316 O 0.72516 0.54283 0.2974 0.0
N317 N 0.70181 0.45626 0.38749 0.0
C318 C 0.69815 0.35427 0.39507 0.0
C319 C 0.70631 0.3847 0.42636 0.0
C320 C 0.70571 0.43595 0.4222 0.0
C321 C 0.6861 0.42784 0.35845 0.0
C322 C 0.68321 0.37687 0.36171 0.0
H323 H 0.70975 0.45838 0.44677 0.0
H324 H 0.67866 0.44484 0.33174 0.0
H325 H 0.8253 0.56075 0.38187 0.0
H326 H 0.86197 0.43822 0.31565 0.0
H327 H 0.55809 0.58455 0.43256 0.0
H328 H 0.71543 0.36974 0.45343 0.0
H329 H 0.67211 0.35562 0.33749 0.0
C330 C 0.04001 0.79038 0.82678 0.0
C331 C 0.0393 0.84038 0.82081 0.0
N332 N 1.0041 0.86 0.84247 0.0
N333 N 1.00594 0.77775 0.85264 0.0
C334 C 0.9831 0.821 0.86032 0.0
H335 H 0.06485 0.76511 0.81333 0.0
Co336 Co 0.99802 0.7119 0.8711 0.0
C337 C 0.98297 0.77175 0.94161 0.0
O338 O 0.01625 0.80445 0.93109 0.0
N339 N 0.99144 0.6466 0.88759 0.0
C340 C 0.9896 0.57938 0.92306 0.0
C341 C 0.98623 0.62997 0.92288 0.0
C342 C 0.99788 0.60536 0.86685 0.0
N343 N 0.99727 0.56378 0.88783 0.0
O344 O 0.9328 0.70877 0.8507 0.0
H345 H 0.98204 0.65289 0.94734 0.0
H346 H 1.005 0.60612 0.83714 0.0
O347 O 0.97235 0.73543 0.91999 0.0
C348 C 0.93348 0.70496 0.81517 0.0
O349 O 0.97616 0.708 0.79798 0.0
N350 N 0.06359 0.71136 0.88752 0.0
C351 C 0.16578 0.71872 0.89442 0.0
C352 C 0.13481 0.72843 0.92504 0.0
C353 C 0.08389 0.72211 0.92146 0.0
C354 C 0.09286 0.69474 0.85955 0.0
C355 C 0.14391 0.69732 0.86254 0.0
H356 H 0.06172 0.7265 0.94599 0.0
H357 H 0.07622 0.68123 0.834 0.0
H358 H 0.95297 0.82433 0.8799 0.0
H359 H 0.06501 0.86104 0.80364 0.0
H360 H 0.9869 0.55595 0.94742 0.0
H361 H 0.14873 0.74219 0.95134 0.0
H362 H 0.16535 0.68404 0.83927 0.0
C363 C 0.71285 0.98995 0.31881 0.0
C364 C 0.66248 0.99334 0.31661 0.0
N365 N 0.64385 0.99053 0.35133 0.0
N366 N 0.72672 0.98432 0.35473 0.0
C367 C 0.68356 0.98488 0.37394 0.0
H368 H 0.73766 0.99441 0.29555 0.0
Co369 Co 0.79352 0.9866 0.37032 0.0
C370 C 0.75733 0.93031 0.44119 0.0
O371 O 0.73383 0.89148 0.42788 0.0
N372 N 0.861 0.98951 0.38512 0.0
C373 C 0.93079 0.98151 0.41742 0.0
C374 C 0.88103 0.97192 0.41696 0.0
C375 C 0.90025 0.00837 0.36616 0.0
N376 N 0.94303 1.00457 0.38552 0.0
O377 O 0.80389 0.92198 0.35064 0.0
H378 H 0.8616 0.95185 0.43841 0.0
H379 H 0.89764 0.02438 0.33861 0.0
O380 O 0.77684 0.96161 0.41906 0.0
C381 C 0.81779 0.92635 0.3168 0.0
O382 O 0.8235 0.97092 0.30297 0.0
N383 N 0.78434 0.05089 0.38675 0.0
C384 C 0.76101 0.15005 0.39552 0.0
C385 C 0.74165 0.11433 0.41994 0.0
C386 C 0.75427 0.0649 0.41536 0.0
C387 C 0.8049 0.08513 0.36374 0.0
C388 C 0.79504 0.13496 0.36835 0.0
H389 H 0.73711 0.03801 0.43343 0.0
H390 H 0.82728 0.07352 0.3405 0.0
H391 H 0.68124 0.98311 0.404 0.0
H392 H 0.64153 1.00063 0.29151 0.0
H393 H 0.95637 0.97052 0.43903 0.0
H394 H 0.71491 0.12372 0.44112 0.0
H395 H 0.81255 0.16101 0.3496 0.0
C396 C 0.5448 0.80431 0.21924 0.0
C397 C 0.54032 0.85465 0.22028 0.0
N398 N 0.53009 0.87082 0.18564 0.0
N399 N 0.53795 0.78788 0.18403 0.0
C400 C 0.52869 0.82947 0.16416 0.0
H401 H 0.55066 0.78135 0.24335 0.0
Co402 Co 0.53487 0.72023 0.17072 0.0
C403 C 0.58824 0.75719 0.0998 0.0
O404 O 0.62038 0.78856 0.11403 0.0
N405 N 0.53158 0.65241 0.15794 0.0
C406 C 0.5477 0.58095 0.12994 0.0
C407 C 0.55905 0.63034 0.13139 0.0
C408 C 0.50489 0.61486 0.17316 0.0
N409 N 0.51364 0.57106 0.15619 0.0
O410 O 0.60014 0.71057 0.18948 0.0
H411 H 0.58706 0.64842 0.11476 0.0
H412 H 0.48005 0.61931 0.1965 0.0
O413 O 0.55837 0.73394 0.12098 0.0
C414 C 0.59591 0.69596 0.22317 0.0
O415 O 0.55137 0.69006 0.23704 0.0
N416 N 0.47004 0.72834 0.15562 0.0
C417 C 0.3701 0.74749 0.147 0.0
C418 C 0.40314 0.75625 0.11756 0.0
C419 C 0.45319 0.74618 0.12236 0.0
C420 C 0.43835 0.71819 0.18398 0.0
C421 C 0.38818 0.72672 0.18011 0.0
H422 H 0.47811 0.75489 0.09983 0.0
H423 H 0.45251 0.70455 0.2102 0.0
H424 H 0.52002 0.82929 0.1347 0.0
H425 H 0.54211 0.8772 0.2452 0.0
H426 H 0.56495 0.55385 0.1121 0.0
H427 H 0.39093 0.77263 0.09164 0.0
H428 H 0.364 0.71806 0.20327 0.0
C429 C 0.71968 0.48495 0.71756 0.0
C430 C 0.66927 0.4812 0.72028 0.0
N431 N 0.649 0.50837 0.69288 0.0
N432 N 0.73178 0.51462 0.68876 0.0
C433 C 0.68785 0.52863 0.67438 0.0
H434 H 0.746 0.46464 0.73408 0.0
Co435 Co 0.79725 0.52056 0.67164 0.0
C436 C 0.75863 0.5773 0.60144 0.0
O437 O 0.74468 0.62049 0.6141 0.0
N438 N 0.86348 0.52565 0.65524 0.0
C439 C 0.93039 0.53277 0.61967 0.0
C440 C 0.88001 0.5354 0.62043 0.0
C441 C 0.90517 0.51804 0.67531 0.0
N442 N 0.94644 0.52134 0.65409 0.0
O443 O 0.80303 0.58525 0.69281 0.0
H444 H 0.85756 0.54378 0.59656 0.0
H445 H 0.90503 0.50865 0.70466 0.0
O446 O 0.77608 0.5453 0.62376 0.0
C447 C 0.8092 0.58323 0.7281 0.0
O448 O 0.80745 0.53987 0.7444 0.0
N449 N 0.79274 0.45617 0.65338 0.0
C450 C 0.77683 0.35547 0.64237 0.0
C451 C 0.74644 0.39025 0.62495 0.0
C452 C 0.75527 0.44053 0.6306 0.0
C453 C 0.82391 0.42309 0.66911 0.0
C454 C 0.81756 0.37274 0.66303 0.0
H455 H 0.72965 0.46659 0.61888 0.0
H456 H 0.85222 0.4354 0.68824 0.0
H457 H 0.68439 0.55117 0.64974 0.0
H458 H 0.64936 0.45745 0.7394 0.0
H459 H 0.95343 0.53923 0.59549 0.0
H460 H 0.71418 0.37905 0.60914 0.0
H461 H 0.84305 0.34761 0.67617 0.0
C462 C 0.04016 0.7253 0.21334 0.0
C463 C 0.04306 0.67499 0.21698 0.0
N464 N 0.01201 0.65395 0.19212 0.0
N465 N 0.00728 0.73641 0.18643 0.0
C466 C 0.9906 0.69211 0.17405 0.0
H467 H 0.06205 0.7523 0.22845 0.0
Co468 Co 0.99704 0.80156 0.17079 0.0
C469 C 0.94194 0.76066 0.10055 0.0
O470 O 0.90012 0.74372 0.11415 0.0
N471 N 0.9875 0.8676 0.15594 0.0
C472 C 0.97319 0.93532 0.12274 0.0
C473 C 0.97191 0.88477 0.12259 0.0
C474 C 0.99666 0.90893 0.17624 0.0
N475 N 0.98929 0.95067 0.15636 0.0
O476 O 0.93217 0.80098 0.1916 0.0
H477 H 0.96027 0.86265 0.09915 0.0
H478 H 0.00991 0.90832 0.20474 0.0
O479 O 0.97412 0.78004 0.12217 0.0
C480 C 0.93284 0.80319 0.22719 0.0
O481 O 0.97549 0.80041 0.24442 0.0
N482 N 0.06164 0.80347 0.15295 0.0
C483 C 0.16299 0.797 0.14166 0.0
C484 C 0.13019 0.76614 0.12193 0.0
C485 C 0.07951 0.77003 0.12792 0.0
C486 C 0.0928 0.83485 0.17126 0.0
C487 C 0.14338 0.83324 0.16524 0.0
H488 H 0.05518 0.74357 0.11458 0.0
H489 H 0.0789 0.85929 0.19246 0.0
H490 H 0.96425 0.68779 0.15167 0.0
H491 H 0.06809 0.65551 0.23518 0.0
H492 H 0.96275 0.95895 0.09977 0.0
H493 H 0.14346 0.73697 0.10399 0.0
H494 H 0.16701 0.85852 0.1806 0.0
C495 C 0.80212 0.02164 0.71674 0.0
C496 C 0.85235 0.021 0.72119 0.0
N497 N 0.87125 0.98989 0.69588 0.0
N498 N 0.78844 0.99167 0.68824 0.0
C499 C 0.83174 0.9715 0.67701 0.0
H500 H 0.7774 0.04269 0.73393 0.0
Co501 Co 0.72111 0.98082 0.673 0.0
C502 C 0.77367 0.97439 0.59942 0.0
O503 O 0.80291 0.01124 0.60911 0.0
N504 N 0.65485 0.96992 0.65963 0.0
C505 C 0.58631 0.93779 0.63513 0.0
C506 C 0.63685 0.93391 0.63732 0.0
C507 C 0.61448 0.99487 0.67097 0.0
N508 N 0.572 0.97633 0.65628 0.0
O509 O 0.7241 0.91496 0.69166 0.0
H510 H 0.65896 0.90601 0.62394 0.0
H511 H 0.61642 0.02611 0.68969 0.0
O512 O 0.74107 0.95874 0.62249 0.0
C513 C 0.72229 0.91442 0.72723 0.0
O514 O 0.72284 0.95679 0.7451 0.0
N515 N 0.71529 0.04695 0.65811 0.0
C516 C 0.71927 0.1488 0.64955 0.0
C517 C 0.71881 0.1177 0.61813 0.0
C518 C 0.71458 0.06664 0.62304 0.0
C519 C 0.70751 0.07668 0.68807 0.0
C520 C 0.70939 0.12768 0.68452 0.0
H521 H 0.712 0.04353 0.59863 0.0
H522 H 0.701 0.06049 0.71519 0.0
H523 H 0.83458 0.94417 0.65511 0.0
H524 H 0.87354 0.0434 0.74059 0.0
H525 H 0.56208 0.91312 0.6198 0.0
H526 H 0.7236 0.13208 0.5902 0.0
H527 H 0.70494 0.15011 0.7093 0.0
C528 C 0.41634 0.23318 0.04329 0.0
C529 C 0.45039 0.26923 0.05578 0.0
H530 H 0.38067 0.19883 0.99611 0.0
C531 C 0.47257 0.30043 0.02927 0.0
H532 H 0.39857 0.20848 0.06293 0.0
C533 C 0.46296 0.29445 0.99132 0.0
C534 C 0.43014 0.25762 0.97848 0.0
H535 H 0.49896 0.32863 0.03762 0.0
H536 H 0.4825 0.31822 0.97199 0.0
C537 C 0.40612 0.22759 1.00498 0.0
C538 C 0.23801 0.38816 0.50349 0.0
C539 C 0.23914 0.43244 0.48299 0.0
H540 H 0.24699 0.35353 0.55699 0.0
C541 C 0.24977 0.47673 0.50202 0.0
H542 H 0.22974 0.35341 0.48975 0.0
C543 C 0.2587 0.47691 0.54043 0.0
C544 C 0.25793 0.43273 0.56101 0.0
H545 H 0.25038 0.51166 0.48739 0.0
H546 H 0.26682 0.51188 0.55389 0.0
C547 C 0.24772 0.38825 0.54204 0.0
C548 C 0.08422 0.24441 0.99603 0.0
C549 C 0.04005 0.26584 0.98365 0.0
H550 H 0.12999 0.22653 0.0432 0.0
C551 C 0.00664 0.28333 1.01036 0.0
H552 H 0.11041 0.23004 0.97607 0.0
C553 C 0.01695 0.27997 0.04833 0.0
C554 C 0.06176 0.26035 0.06109 0.0
H555 H 0.97171 0.29901 1.002 0.0
H556 H 0.98965 0.29362 0.06765 0.0
C557 C 0.09527 0.24222 0.03444 0.0
C558 C 0.28104 0.09663 0.49538 0.0
C559 C 0.24321 0.06514 0.48211 0.0
H560 H 0.31597 0.12994 0.54327 0.0
C561 C 0.20898 0.04606 0.50784 0.0
H562 H 0.30802 0.11208 0.47638 0.0
C563 C 0.21382 0.0558 0.54588 0.0
C564 C 0.2527 0.0855 0.55955 0.0
H565 H 0.17918 0.02191 0.49884 0.0
H566 H 0.18759 0.03863 0.56466 0.0
C567 C 0.28564 0.10685 0.53375 0.0
C568 C 0.59918 0.77439 0.99433 0.0
C569 C 0.56816 0.73616 0.98108 0.0
H570 H 0.6304 0.81107 0.0423 0.0
C571 C 0.54713 0.70345 1.0071 0.0
H572 H 0.61604 0.80025 0.97509 0.0
C573 C 0.55467 0.71007 0.04525 0.0
C574 C 0.58422 0.74912 0.0588 0.0
H575 H 0.52311 0.67349 0.99819 0.0
H576 H 0.53612 0.68494 0.06416 0.0
C577 C 0.60735 0.78066 0.03285 0.0
C578 C 0.74394 0.5882 0.49555 0.0
C579 C 0.76596 0.54413 0.48347 0.0
H580 H 0.72467 0.63389 0.54244 0.0
C581 C 0.78382 0.51119 0.51037 0.0
H582 H 0.7294 0.61409 0.47544 0.0
C583 C 0.77989 0.5217 0.54825 0.0
C584 C 0.75917 0.56617 0.56071 0.0
H585 H 0.80012 0.47644 0.50227 0.0
H586 H 0.7939 0.49477 0.56775 0.0
C587 C 0.74104 0.59939 0.53388 0.0
C588 C 0.99106 0.79033 0.04593 0.0
C589 C 0.95097 0.76244 0.05956 0.0
H590 H 0.03131 0.81619 0.9988 0.0
C591 C 0.92019 0.73786 0.03368 0.0
H592 H 0.01597 0.80958 0.06472 0.0
C593 C 0.9298 0.74095 0.99512 0.0
C594 C 0.9696 0.76965 0.9818 0.0
H595 H 0.88909 0.71591 0.04321 0.0
H596 H 0.90617 0.721 0.97579 0.0
C597 C 0.99979 0.79442 1.00778 0.0
C598 C 0.79085 0.97917 0.49491 0.0
C599 C 0.76204 0.93912 0.48209 0.0
H600 H 0.81803 0.02055 0.54121 0.0
C601 C 0.73811 0.90903 0.50862 0.0
H602 H 0.80948 1.00371 0.4756 0.0
C603 C 0.74241 0.91947 0.54699 0.0
C604 C 0.77134 0.95971 0.55948 0.0
H605 H 0.71552 0.87797 0.49976 0.0
H606 H 0.72281 0.89638 0.56679 0.0
C607 C 0.79587 0.98892 0.53288 0.0
C608 C 0.4895 0.93204 0.14421 0.0
C609 C 0.51885 0.92131 0.17549 0.0
H610 H 0.45282 0.98726 0.11219 0.0
C611 C 0.53508 0.9609 0.19807 0.0
H612 H 0.4761 0.90275 0.1262 0.0
C613 C 0.52102 0.00943 0.19046 0.0
C614 C 0.49048 0.02015 0.15981 0.0
H615 H 0.55847 0.95451 0.22203 0.0
H616 H 0.53333 0.03825 0.20927 0.0
C617 C 0.47558 0.98074 0.13646 0.0
C618 C 0.58304 0.51944 0.6456 0.0
C619 C 0.59736 0.50854 0.68236 0.0
H620 H 0.52461 0.52454 0.60611 0.0
C621 C 0.56042 0.4949 0.70813 0.0
H622 H 0.61004 0.52975 0.62477 0.0
C623 C 0.51093 0.49069 0.69712 0.0
C624 C 0.49683 0.50035 0.66005 0.0
H625 H 0.56969 0.48699 0.73687 0.0
H626 H 0.48401 0.47895 0.71759 0.0
C627 C 0.53362 0.51559 0.63467 0.0
C628 C 0.02277 0.51601 0.20074 0.0
C629 C 0.01131 0.50051 0.1643 0.0
H630 H 0.03112 0.57692 0.2384 0.0
C631 C 0.99613 0.53604 0.13817 0.0
H632 H 0.03449 0.4897 0.22157 0.0
C633 C 0.99468 0.58602 0.14763 0.0
C634 C 0.00825 0.60191 0.18355 0.0
H635 H 0.9859 0.52539 0.11008 0.0
H636 H 0.98465 0.61225 0.12626 0.0
C637 C 0.02128 0.56614 0.21025 0.0
C638 C 0.95933 0.99128 0.71468 0.0
C639 C 0.923 0.98623 0.6867 0.0
H640 H 0.03588 1.00446 0.72731 0.0
C641 C 0.9381 0.98485 0.64925 0.0
H642 H 0.94883 0.99216 0.74382 0.0
C643 C 0.98774 0.99234 0.63987 0.0
C644 C 0.02357 1.00063 0.66771 0.0
H645 H 0.91114 0.98141 0.62706 0.0
H646 H 0.99792 0.99374 0.61068 0.0
C647 C 0.00918 0.99804 0.70529 0.0
C648 C 0.52973 0.5481 0.82371 0.0
C649 C 0.5366 0.58389 0.85192 0.0
H650 H 0.51428 0.47202 0.8106 0.0
C651 C 0.53913 0.56804 0.88916 0.0
H652 H 0.52789 0.55916 0.79472 0.0
C653 C 0.53086 0.51834 0.8982 0.0
C654 C 0.5206 0.48314 0.87022 0.0
H655 H 0.54396 0.59455 0.91153 0.0
H656 H 0.53033 0.50767 0.9273 0.0
C657 C 0.52218 0.49818 0.83274 0.0
C658 C 0.94967 0.49058 0.33529 0.0
C659 C 0.9132 0.51019 0.35889 0.0
H660 H 0.0258 0.47316 0.32774 0.0
C661 C 0.92817 0.5316 0.39285 0.0
H662 H 0.93974 0.47447 0.30864 0.0
C663 C 0.97784 0.53138 0.40366 0.0
C664 C 0.01403 0.50958 0.3809 0.0
H665 H 0.90134 0.54683 0.41188 0.0
H666 H 0.98756 0.54781 0.43021 0.0
C667 C 0.99932 0.49017 0.34615 0.0
C668 C 0.01715 0.99793 0.83477 0.0
C669 C 0.01113 0.01252 0.87214 0.0
H670 H 0.01889 0.93768 0.79586 0.0
C671 C 0.99658 0.97669 0.89845 0.0
H672 H 0.02813 0.02458 0.81381 0.0
C673 C 0.99088 0.92711 0.88816 0.0
C674 C 1.00006 0.91191 0.85134 0.0
H675 H 0.99058 0.98683 0.9273 0.0
H676 H 0.98195 0.90034 0.90956 0.0
C677 C 0.01196 0.94814 0.82454 0.0
C678 C 0.53211 0.0349 0.40347 0.0
C679 C 0.49401 0.02576 0.37748 0.0
H680 H 0.60939 0.03076 0.41576 0.0
C681 C 0.50593 1.00175 0.3439 0.0
H682 H 0.52432 0.05259 0.42987 0.0
C683 C 0.55468 0.98875 0.33602 0.0
C684 C 0.59299 0.99927 0.36148 0.0
H685 H 0.47788 0.99424 0.3231 0.0
H686 H 0.56247 0.97098 0.30963 0.0
C687 C 0.58092 0.02174 0.39561 0.0
C688 C 0.47861 0.04409 0.8374 0.0
C689 C 0.49248 0.08388 0.86069 0.0
H690 H 0.48325 0.96693 0.82576 0.0
C691 C 0.52076 0.0735 0.89264 0.0
H692 H 0.45621 0.05009 0.81285 0.0
C693 C 0.5358 0.02512 0.90043 0.0
C694 C 0.52317 0.98556 0.87648 0.0
H695 H 0.53248 0.10285 0.91123 0.0
H696 H 0.55757 0.01896 0.92526 0.0
C697 C 0.4938 0.99586 0.84508 0.0
C698 C 0.42796 0.51279 0.39862 0.0
C699 C 0.41267 0.50386 0.36174 0.0
H700 H 0.4883 0.52919 0.43539 0.0
C701 C 0.44867 0.5015 0.33353 0.0
H702 H 0.40116 0.51531 0.42089 0.0
C703 C 0.49859 0.50964 0.34177 0.0
C704 C 0.51365 0.52087 0.37837 0.0
H705 H 0.43801 0.49441 0.30487 0.0
H706 H 0.5251 0.50902 0.31922 0.0
C707 C 0.47783 0.52144 0.4068 0.0
C708 C 0.02424 0.42776 0.89079 0.0
C709 C 0.00745 0.41197 0.8556 0.0
H710 H 0.03453 0.48826 0.92849 0.0
C711 C 0.99151 0.44784 0.82993 0.0
H712 H 0.03648 0.40127 0.91131 0.0
C713 C 0.98993 0.49786 0.83989 0.0
C714 C 1.00394 0.51322 0.87589 0.0
H715 H 0.97884 0.43699 0.80242 0.0
H716 H 0.9757 0.52414 0.81996 0.0
C717 C 0.02238 0.47768 0.90082 0.0
C718 C 0.02805 0.03141 0.40125 0.0
C719 C 0.99256 0.01801 0.37424 0.0
H720 H 0.10444 0.04466 0.4135 0.0
C721 C 0.00754 0.01359 0.33688 0.0
H722 H 0.01751 0.03589 0.43017 0.0
C723 C 0.05748 0.01874 0.32732 0.0
C724 C 0.09343 0.02893 0.35481 0.0
H725 H 0.9812 1.00335 0.31543 0.0
H726 H 0.06829 0.01279 0.2986 0.0
C727 C 0.07782 0.03704 0.39164 0.0
C728 C 0.47991 0.43714 0.14655 0.0
C729 C 0.48112 0.42144 0.18386 0.0
H730 H 0.48937 0.49758 0.10857 0.0
C731 C 0.48606 0.45732 0.2122 0.0
H732 H 0.47657 0.41049 0.12413 0.0
C733 C 0.49303 0.50732 0.20329 0.0
C734 C 0.49598 0.52228 0.16585 0.0
H735 H 0.48686 0.44631 0.24123 0.0
H736 H 0.4995 0.53366 0.22556 0.0
C737 C 0.48765 0.48692 0.13766 0.0
C738 C 0.06371 0.52035 0.71038 0.0
C739 C 0.09894 0.50834 0.68297 0.0
H740 H 0.98763 0.53407 0.72278 0.0
C741 C 0.08227 0.49676 0.64685 0.0
H742 H 0.07503 0.52861 0.73869 0.0
C743 C 0.0322 0.49942 0.63792 0.0
C744 C 0.99727 0.51388 0.66477 0.0
H745 H 0.108 0.48748 0.62495 0.0
H746 H 0.021 0.49084 0.60964 0.0
C747 C 0.01346 0.52306 0.7014 0.0
C748 C 0.99409 0.01593 0.20492 0.0
C749 C 0.99815 1.00124 0.16744 0.0
H750 H 0.99438 0.07617 0.24373 0.0
C751 C 0.00943 0.03722 0.14039 0.0
H752 H 0.98559 0.98918 0.22644 0.0
C753 C 0.0142 0.08692 0.15018 0.0
C754 C 0.00784 0.10207 0.18734 0.0
H755 H 0.01398 0.0271 0.11139 0.0
H756 H 0.02088 0.11358 0.12827 0.0
C757 C 0.99879 0.06584 0.21475 0.0
C758 C 0.43388 0.99148 0.6466 0.0
C759 C 0.42276 0.02133 0.67754 0.0
H760 H 0.48943 0.95439 0.61523 0.0
C761 C 0.4621 0.03792 0.70023 0.0
H762 H 0.40484 0.9778 0.6285 0.0
C763 C 0.51069 0.02376 0.69306 0.0
C764 C 0.52183 0.99279 0.66274 0.0
H765 H 0.45549 0.06173 0.72392 0.0
H766 H 0.53924 0.03645 0.71196 0.0
C767 C 0.48267 0.97748 0.63928 0.0
C768 C 0.7687 0.27572 0.17088 0.0
C769 C 0.79777 0.26562 0.13941 0.0
H770 H 0.69829 0.27152 0.19649 0.0
C771 C 0.77602 0.24036 0.10911 0.0
H772 H 0.78405 0.29386 0.19526 0.0
C773 C 0.72651 0.22518 0.11058 0.0
C774 C 0.6977 0.23537 0.14225 0.0
H775 H 0.79715 0.23223 0.08427 0.0
H776 H 0.71115 0.20502 0.08713 0.0
C777 C 0.7194 0.26155 0.17203 0.0
C778 C 0.26153 0.74374 0.60683 0.0
C779 C 0.28068 0.71882 0.63798 0.0
H780 H 0.23454 0.812 0.58503 0.0
C781 C 0.28885 0.74532 0.67121 0.0
H782 H 0.25506 0.72447 0.58076 0.0
C783 C 0.27825 0.79526 0.67336 0.0
C784 C 0.25804 0.82005 0.64265 0.0
H785 H 0.30244 0.72734 0.6961 0.0
H786 H 0.28583 0.81438 0.69933 0.0
C787 C 0.25022 0.79394 0.60917 0.0
C788 C 0.76804 0.21017 0.85948 0.0
C789 C 0.79288 0.20372 0.89366 0.0
H790 H 0.70122 0.22587 0.83141 0.0
C791 C 0.76576 0.20956 0.9269 0.0
H792 H 0.78661 0.20739 0.83292 0.0
C793 C 0.71655 0.22446 0.92587 0.0
C794 C 0.69252 0.23206 0.89157 0.0
H795 H 0.78233 0.20368 0.95395 0.0
H796 H 0.69799 0.23106 0.95209 0.0
C797 C 0.71857 0.22275 0.8585 0.0
C798 C 0.29529 0.78839 0.43161 0.0
C799 C 0.28699 0.81592 0.39894 0.0
H800 H 0.28628 0.71887 0.45939 0.0
C801 C 0.26336 0.79273 0.3686 0.0
H802 H 0.31361 0.80484 0.45549 0.0
C803 C 0.24931 0.74347 0.3704 0.0
C804 C 0.25674 0.71596 0.40308 0.0
H805 H 0.25485 0.81269 0.34328 0.0
H806 H 0.23289 0.727 0.34574 0.0
C807 C 0.28007 0.73891 0.43372 0.0
C808 C 0.24461 0.73949 0.86059 0.0
C809 C 0.21926 0.73323 0.89453 0.0
H810 H 0.31132 0.75521 0.83287 0.0
C811 C 0.24501 0.74391 0.92783 0.0
H812 H 0.22694 0.73381 0.83388 0.0
C813 C 0.29374 0.76127 0.92701 0.0
C814 C 0.31924 0.7664 0.89295 0.0
H815 H 0.22811 0.73917 0.95487 0.0
H816 H 0.31082 0.77053 0.95337 0.0
C817 C 0.29378 0.75417 0.85989 0.0
C818 C 0.74082 0.22868 0.36268 0.0
C819 C 0.74312 0.20178 0.3961 0.0
H820 H 0.72792 0.29697 0.33632 0.0
C821 C 0.72723 0.22449 0.42926 0.0
H822 H 0.75082 0.21237 0.3362 0.0
C823 C 0.71031 0.27313 0.42894 0.0
C824 C 0.71017 0.30067 0.39562 0.0
H825 H 0.72846 0.20516 0.45565 0.0
H826 H 0.69793 0.28898 0.45497 0.0
C827 C 0.72577 0.27745 0.36257 0.0
C828 C 0.29385 0.78138 0.17593 0.0
C829 C 0.31765 0.76222 0.14437 0.0
H830 H 0.22695 0.80558 0.20023 0.0
C831 C 0.29086 0.7572 0.11091 0.0
H832 H 0.31351 0.78701 0.20194 0.0
C833 C 0.24099 0.76994 0.10945 0.0
C834 C 0.21689 0.78756 0.1415 0.0
H835 H 0.30806 0.74247 0.08607 0.0
H836 H 0.2213 0.76553 0.08333 0.0
C837 C 0.24415 0.79324 0.17467 0.0
C838 C 0.72305 0.23011 0.61479 0.0
C839 C 0.7332 0.20193 0.64682 0.0
H840 H 0.73033 0.30002 0.58747 0.0
C841 C 0.75901 0.22445 0.67644 0.0
H842 H 0.70306 0.21428 0.59144 0.0
C843 C 0.77293 0.27382 0.67474 0.0
C844 C 0.76318 0.30214 0.64279 0.0
H845 H 0.76905 0.20397 0.70119 0.0
H846 H 0.79073 0.28976 0.69904 0.0
C847 C 0.73822 0.27959 0.61269 0.0
C848 C 0.33939 0.17911 0.30755 0.0
C849 C 0.30886 0.143 0.29124 0.0
H850 H 0.39631 0.23291 0.29833 0.0
C851 C 0.30363 0.142 0.25214 0.0
H852 H 0.34403 0.18091 0.33756 0.0
C853 C 0.33346 0.1719 0.22961 0.0
C854 C 0.36912 0.20288 0.24598 0.0
H855 H 0.2798 0.11484 0.23886 0.0
H856 H 0.33223 0.16676 0.19963 0.0
C857 C 0.36948 0.20874 0.28502 0.0
C858 C 0.38101 0.32829 0.75153 0.0
C859 C 0.37829 0.33185 0.79066 0.0
H860 H 0.35841 0.35822 0.69897 0.0
C861 C 0.34308 0.36273 0.80678 0.0
H862 H 0.40789 0.30448 0.7385 0.0
C863 C 0.31522 0.39395 0.78413 0.0
C864 C 0.32172 0.39404 0.74513 0.0
H865 H 0.34052 0.36631 0.83684 0.0
H866 H 0.29138 0.42067 0.79733 0.0
C867 C 0.35257 0.35885 0.72887 0.0
C868 C 0.18117 0.39682 0.25855 0.0
C869 C 0.1756 0.39576 0.29761 0.0
H870 H 0.15442 0.37075 0.20568 0.0
C871 C 0.14445 0.3601 0.31361 0.0
H872 H 0.20525 0.42392 0.24556 0.0
C873 C 0.11503 0.33003 0.29072 0.0
C874 C 0.11691 0.33471 0.25159 0.0
H875 H 0.13933 0.35864 0.34357 0.0
H876 H 0.08811 0.30573 0.30368 0.0
C877 C 0.15231 0.36623 0.23567 0.0
C878 C 0.12281 0.20726 0.75451 0.0
C879 C 0.12194 0.19963 0.7934 0.0
H880 H 0.14861 0.18119 0.70146 0.0
C881 C 0.15507 0.16618 0.80923 0.0
H882 H 0.09777 0.23311 0.74162 0.0
C883 C 0.18362 0.13625 0.7862 0.0
C884 C 0.1801 0.13991 0.74713 0.0
H885 H 0.15521 0.15943 0.83902 0.0
H886 H 0.20549 0.10749 0.79889 0.0
C887 C 0.15198 0.17773 0.73147 0.0
C888 C 0.71203 0.86951 0.78722 0.0
C889 C 0.70711 0.86993 0.74811 0.0
H890 H 0.68403 0.84157 0.83898 0.0
C891 C 0.67809 0.83341 0.73079 0.0
H892 H 0.73478 0.89693 0.80125 0.0
C893 C 0.64895 0.80176 0.75246 0.0
C894 C 0.64877 0.80605 0.79163 0.0
H895 H 0.67377 0.83269 0.70073 0.0
H896 H 0.62316 0.77716 0.73846 0.0
C897 C 0.68317 0.83762 0.80889 0.0
C898 C 0.67761 0.65527 0.23063 0.0
C899 C 0.63829 0.68127 0.24625 0.0
H900 H 0.73607 0.60442 0.2409 0.0
C901 C 0.63464 0.68497 0.28531 0.0
H902 H 0.68117 0.65191 0.20062 0.0
C903 C 0.66632 0.65846 0.3084 0.0
C904 C 0.70155 0.62716 0.29266 0.0
H905 H 0.60479 0.70534 0.29799 0.0
H906 H 0.65965 0.65847 0.33821 0.0
C907 C 0.70893 0.62811 0.25374 0.0
C908 C 0.85923 0.66091 0.73281 0.0
C909 C 0.82876 0.62545 0.74983 0.0
H910 H 0.91643 0.71491 0.74079 0.0
C911 C 0.82529 0.62466 0.78904 0.0
H912 H 0.86268 0.66235 0.70272 0.0
C913 C 0.85578 0.65497 0.8109 0.0
C914 C 0.89062 0.68609 0.79382 0.0
H915 H 0.8017 0.59787 0.80287 0.0
H916 H 0.85529 0.65052 0.84094 0.0
C917 C 0.89015 0.69082 0.75468 0.0
C918 C 0.85884 0.8564 0.23231 0.0
C919 C 0.89062 0.82207 0.24861 0.0
H920 H 0.81018 0.91679 0.24188 0.0
C921 C 0.88917 0.81503 0.28755 0.0
H922 H 0.85931 0.86275 0.20246 0.0
C923 C 0.86068 0.84573 0.31016 0.0
C924 C 0.83393 0.88421 0.29405 0.0
H925 H 0.91326 0.78857 0.30077 0.0
H926 H 0.86354 0.84247 0.34022 0.0
C927 C 0.83101 0.88754 0.25493 0.0
loop_
_geom_bond_atom_site_label_1
_geom_bond_atom_site_label_2
_geom_bond_distance
_geom_bond_site_symmetry_2
_ccdc_geom_bond_type
C0 C1 1.351 . S
C0 N3 1.368 . S
C0 H5 0.931 . S
C1 C0 1.351 . S
C1 N2 1.373 . S
C1 H29 0.930 . S
N2 C1 1.373 . S
N2 C4 1.340 . S
N3 C0 1.368 . S
N3 C4 1.321 . S
N3 Co6 2.135 . S
C4 N2 1.340 . S
C4 N3 1.321 . S
C4 H28 0.930 . S
H5 C0 0.931 . S
Co6 N3 2.135 . S
Co6 N9 2.121 . S
Co6 O14 2.055 . S
Co6 O17 2.039 . S
Co6 N20 2.140 . S
C7 O8 1.227 . S
C7 O17 1.265 . S
O8 C7 1.227 . S
N9 Co6 2.121 . S
N9 C11 1.375 . S
N9 C12 1.313 . S
C10 C11 1.338 . S
C10 N13 1.377 . S
C10 H30 0.930 . S
C11 N9 1.375 . S
C11 C10 1.338 . S
C11 H15 0.931 . S
C12 N9 1.313 . S
C12 N13 1.344 . S
C12 H16 0.930 . S
N13 C10 1.377 . S
N13 C12 1.344 . S
O14 Co6 2.055 . S
O14 C18 1.253 . S
H15 C11 0.931 . S
H16 C12 0.930 . S
O17 Co6 2.039 . S
O17 C7 1.265 . S
C18 O14 1.253 . S
C18 O19 1.227 . S
O19 C18 1.227 . S
N20 Co6 2.140 . S
N20 C23 1.346 . S
N20 C24 1.345 . S
C21 C22 1.387 . S
C21 C25 1.391 . S
C22 C21 1.387 . S
C22 C23 1.369 . S
C22 H31 0.929 . S
C23 N20 1.346 . S
C23 C22 1.369 . S
C23 H26 0.928 . S
C24 N20 1.345 . S
C24 C25 1.371 . S
C24 H27 0.931 . S
C25 C21 1.391 . S
C25 C24 1.371 . S
C25 H32 0.930 . S
H26 C23 0.928 . S
H27 C24 0.931 . S
H28 C4 0.930 . S
H29 C1 0.930 . S
H30 C10 0.930 . S
H31 C22 0.929 . S
H32 C25 0.930 . S
C33 C34 1.351 . S
C33 N36 1.368 . S
C33 H38 0.931 . S
C34 C33 1.351 . S
C34 N35 1.373 . S
C34 H62 0.930 . S
N35 C34 1.373 . S
N35 C37 1.340 . S
N36 C33 1.368 . S
N36 C37 1.321 . S
N36 Co39 2.135 . S
C37 N35 1.340 . S
C37 N36 1.321 . S
C37 H61 0.930 . S
H38 C33 0.931 . S
Co39 N36 2.135 . S
Co39 N42 2.121 . S
Co39 O47 2.055 . S
Co39 O50 2.039 . S
Co39 N53 2.140 . S
C40 O41 1.227 . S
C40 O50 1.265 . S
O41 C40 1.227 . S
N42 Co39 2.121 . S
N42 C44 1.375 . S
N42 C45 1.313 . S
C43 C44 1.338 . S
C43 N46 1.377 . S
C43 H63 0.930 . S
C44 N42 1.375 . S
C44 C43 1.338 . S
C44 H48 0.931 . S
C45 N42 1.313 . S
C45 N46 1.344 . S
C45 H49 0.930 . S
N46 C43 1.377 . S
N46 C45 1.344 . S
O47 Co39 2.055 . S
O47 C51 1.253 . S
H48 C44 0.931 . S
H49 C45 0.930 . S
O50 Co39 2.039 . S
O50 C40 1.265 . S
C51 O47 1.253 . S
C51 O52 1.227 . S
O52 C51 1.227 . S
N53 Co39 2.140 . S
N53 C56 1.346 . S
N53 C57 1.345 . S
C54 C55 1.387 . S
C54 C58 1.391 . S
C55 C54 1.387 . S
C55 C56 1.369 . S
C55 H64 0.929 . S
C56 N53 1.346 . S
C56 C55 1.369 . S
C56 H59 0.928 . S
C57 N53 1.345 . S
C57 C58 1.371 . S
C57 H60 0.931 . S
C58 C54 1.391 . S
C58 C57 1.371 . S
C58 H65 0.930 . S
H59 C56 0.928 . S
H60 C57 0.931 . S
H61 C37 0.930 . S
H62 C34 0.930 . S
H63 C43 0.930 . S
H64 C55 0.929 . S
H65 C58 0.930 . S
C66 C67 1.351 . S
C66 N69 1.368 . S
C66 H71 0.931 . S
C67 C66 1.351 . S
C67 N68 1.373 . S
C67 H95 0.930 . S
N68 C67 1.373 . S
N68 C70 1.340 . S
N69 C66 1.368 . S
N69 C70 1.321 . S
N69 Co72 2.135 . S
C70 N68 1.340 . S
C70 N69 1.321 . S
C70 H94 0.930 . S
H71 C66 0.931 . S
Co72 N69 2.135 . S
Co72 N75 2.121 . S
Co72 O80 2.055 . S
Co72 O83 2.039 . S
Co72 N86 2.140 1_455 S
C73 O74 1.227 1_455 S
C73 O83 1.265 . S
O74 C73 1.227 1_655 S
N75 Co72 2.121 . S
N75 C77 1.375 1_455 S
N75 C78 1.313 . S
C76 C77 1.338 . S
C76 N79 1.377 1_655 S
C76 H96 0.930 . S
C77 N75 1.375 1_655 S
C77 C76 1.338 . S
C77 H81 0.931 . S
C78 N75 1.313 . S
C78 N79 1.344 . S
C78 H82 0.930 . S
N79 C76 1.377 1_455 S
N79 C78 1.344 . S
O80 Co72 2.055 . S
O80 C84 1.253 . S
H81 C77 0.931 . S
H82 C78 0.930 . S
O83 Co72 2.039 . S
O83 C73 1.265 . S
C84 O80 1.253 . S
C84 O85 1.227 . S
O85 C84 1.227 . S
N86 Co72 2.140 1_655 S
N86 C89 1.346 . S
N86 C90 1.345 . S
C87 C88 1.387 . S
C87 C91 1.391 . S
C88 C87 1.387 . S
C88 C89 1.369 . S
C88 H97 0.929 . S
C89 N86 1.346 . S
C89 C88 1.369 . S
C89 H92 0.928 . S
C90 N86 1.345 . S
C90 C91 1.371 . S
C90 H93 0.931 . S
C91 C87 1.391 . S
C91 C90 1.371 . S
C91 H98 0.930 . S
H92 C89 0.928 . S
H93 C90 0.931 . S
H94 C70 0.930 . S
H95 C67 0.930 . S
H96 C76 0.930 . S
H97 C88 0.929 . S
H98 C91 0.930 . S
C99 C100 1.351 . S
C99 N102 1.368 . S
C99 H104 0.931 . S
C100 C99 1.351 . S
C100 N101 1.373 . S
C100 H128 0.930 . S
N101 C100 1.373 . S
N101 C103 1.340 . S
N102 C99 1.368 . S
N102 C103 1.321 . S
N102 Co105 2.135 . S
C103 N101 1.340 . S
C103 N102 1.321 . S
C103 H127 0.930 . S
H104 C99 0.931 . S
Co105 N102 2.135 . S
Co105 N108 2.121 . S
Co105 O113 2.055 . S
Co105 O116 2.039 . S
Co105 N119 2.140 1_545 S
C106 O107 1.227 1_545 S
C106 O116 1.265 . S
O107 C106 1.227 1_565 S
N108 Co105 2.121 . S
N108 C110 1.375 1_545 S
N108 C111 1.313 . S
C109 C110 1.338 . S
C109 N112 1.377 1_565 S
C109 H129 0.930 . S
C110 N108 1.375 1_565 S
C110 C109 1.338 . S
C110 H114 0.931 . S
C111 N108 1.313 . S
C111 N112 1.344 . S
C111 H115 0.930 . S
N112 C109 1.377 1_545 S
N112 C111 1.344 . S
O113 Co105 2.055 . S
O113 C117 1.253 . S
H114 C110 0.931 . S
H115 C111 0.930 . S
O116 Co105 2.039 . S
O116 C106 1.265 . S
C117 O113 1.253 . S
C117 O118 1.227 . S
O118 C117 1.227 . S
N119 Co105 2.140 1_565 S
N119 C122 1.346 . S
N119 C123 1.345 . S
C120 C121 1.387 . S
C120 C124 1.391 . S
C121 C120 1.387 . S
C121 C122 1.369 . S
C121 H130 0.929 . S
C122 N119 1.346 . S
C122 C121 1.369 . S
C122 H125 0.928 . S
C123 N119 1.345 . S
C123 C124 1.371 . S
C123 H126 0.931 . S
C124 C120 1.391 . S
C124 C123 1.371 . S
C124 H131 0.930 . S
H125 C122 0.928 . S
H126 C123 0.931 . S
H127 C103 0.930 . S
H128 C100 0.930 . S
H129 C109 0.930 . S
H130 C121 0.929 . S
H131 C124 0.930 . S
C132 C133 1.351 . S
C132 N135 1.368 . S
C132 H137 0.931 . S
C133 C132 1.351 . S
C133 N134 1.373 . S
C133 H161 0.930 . S
N134 C133 1.373 . S
N134 C136 1.340 . S
N135 C132 1.368 . S
N135 C136 1.321 . S
N135 Co138 2.135 . S
C136 N134 1.340 . S
C136 N135 1.321 . S
C136 H160 0.930 . S
H137 C132 0.931 . S
Co138 N135 2.135 . S
Co138 N141 2.121 . S
Co138 O146 2.055 . S
Co138 O149 2.039 . S
Co138 N152 2.140 . S
C139 O140 1.227 . S
C139 O149 1.265 . S
O140 C139 1.227 . S
N141 Co138 2.121 . S
N141 C143 1.375 . S
N141 C144 1.313 . S
C142 C143 1.338 . S
C142 N145 1.377 . S
C142 H162 0.930 . S
C143 N141 1.375 . S
C143 C142 1.338 . S
C143 H147 0.931 . S
C144 N141 1.313 . S
C144 N145 1.344 . S
C144 H148 0.930 . S
N145 C142 1.377 . S
N145 C144 1.344 . S
O146 Co138 2.055 . S
O146 C150 1.253 . S
H147 C143 0.931 . S
H148 C144 0.930 . S
O149 Co138 2.039 . S
O149 C139 1.265 . S
C150 O146 1.253 . S
C150 O151 1.227 . S
O151 C150 1.227 . S
N152 Co138 2.140 . S
N152 C155 1.346 . S
N152 C156 1.345 . S
C153 C154 1.387 . S
C153 C157 1.391 . S
C154 C153 1.387 . S
C154 C155 1.369 . S
C154 H163 0.929 . S
C155 N152 1.346 . S
C155 C154 1.369 . S
C155 H158 0.928 . S
C156 N152 1.345 . S
C156 C157 1.371 . S
C156 H159 0.931 . S
C157 C153 1.391 . S
C157 C156 1.371 . S
C157 H164 0.930 . S
H158 C155 0.928 . S
H159 C156 0.931 . S
H160 C136 0.930 . S
H161 C133 0.930 . S
H162 C142 0.930 . S
H163 C154 0.929 . S
H164 C157 0.930 . S
C165 C166 1.351 . S
C165 N168 1.368 . S
C165 H170 0.931 . S
C166 C165 1.351 . S
C166 N167 1.373 . S
C166 H194 0.930 . S
N167 C166 1.373 . S
N167 C169 1.340 . S
N168 C165 1.368 . S
N168 C169 1.321 . S
N168 Co171 2.135 . S
C169 N167 1.340 . S
C169 N168 1.321 . S
C169 H193 0.930 . S
H170 C165 0.931 . S
Co171 N168 2.135 . S
Co171 N174 2.121 . S
Co171 O179 2.055 . S
Co171 O182 2.039 . S
Co171 N185 2.140 . S
C172 O173 1.227 . S
C172 O182 1.265 . S
O173 C172 1.227 . S
N174 Co171 2.121 . S
N174 C176 1.375 . S
N174 C177 1.313 . S
C175 C176 1.338 . S
C175 N178 1.377 . S
C175 H195 0.930 . S
C176 N174 1.375 . S
C176 C175 1.338 . S
C176 H180 0.931 . S
C177 N174 1.313 . S
C177 N178 1.344 . S
C177 H181 0.930 . S
N178 C175 1.377 . S
N178 C177 1.344 . S
O179 Co171 2.055 . S
O179 C183 1.253 . S
H180 C176 0.931 . S
H181 C177 0.930 . S
O182 Co171 2.039 . S
O182 C172 1.265 . S
C183 O179 1.253 . S
C183 O184 1.227 . S
O184 C183 1.227 . S
N185 Co171 2.140 . S
N185 C188 1.346 . S
N185 C189 1.345 . S
C186 C187 1.387 . S
C186 C190 1.391 . S
C187 C186 1.387 . S
C187 C188 1.369 . S
C187 H196 0.929 . S
C188 N185 1.346 . S
C188 C187 1.369 . S
C188 H191 0.928 . S
C189 N185 1.345 . S
C189 C190 1.371 . S
C189 H192 0.931 . S
C190 C186 1.391 . S
C190 C189 1.371 . S
C190 H197 0.930 . S
H191 C188 0.928 . S
H192 C189 0.931 . S
H193 C169 0.930 . S
H194 C166 0.930 . S
H195 C175 0.930 . S
H196 C187 0.929 . S
H197 C190 0.930 . S
C198 C199 1.351 . S
C198 N201 1.368 . S
C198 H203 0.931 . S
C199 C198 1.351 . S
C199 N200 1.373 . S
C199 H227 0.930 . S
N200 C199 1.373 . S
N200 C202 1.340 . S
N201 C198 1.368 . S
N201 C202 1.321 . S
N201 Co204 2.135 . S
C202 N200 1.340 . S
C202 N201 1.321 . S
C202 H226 0.930 . S
H203 C198 0.931 . S
Co204 N201 2.135 . S
Co204 N207 2.121 . S
Co204 O212 2.055 . S
Co204 O215 2.039 . S
Co204 N218 2.140 1_455 S
C205 O206 1.227 1_455 S
C205 O215 1.265 . S
O206 C205 1.227 1_655 S
N207 Co204 2.121 . S
N207 C209 1.375 1_455 S
N207 C210 1.313 . S
C208 C209 1.338 . S
C208 N211 1.377 1_655 S
C208 H228 0.930 . S
C209 N207 1.375 1_655 S
C209 C208 1.338 . S
C209 H213 0.931 . S
C210 N207 1.313 . S
C210 N211 1.344 . S
C210 H214 0.930 . S
N211 C208 1.377 1_455 S
N211 C210 1.344 . S
O212 Co204 2.055 . S
O212 C216 1.253 . S
H213 C209 0.931 . S
H214 C210 0.930 . S
O215 Co204 2.039 . S
O215 C205 1.265 . S
C216 O212 1.253 . S
C216 O217 1.227 . S
O217 C216 1.227 . S
N218 Co204 2.140 1_655 S
N218 C221 1.346 . S
N218 C222 1.345 . S
C219 C220 1.387 . S
C219 C223 1.391 . S
C220 C219 1.387 . S
C220 C221 1.369 . S
C220 H229 0.929 . S
C221 N218 1.346 . S
C221 C220 1.369 . S
C221 H224 0.928 . S
C222 N218 1.345 . S
C222 C223 1.371 . S
C222 H225 0.931 . S
C223 C219 1.391 . S
C223 C222 1.371 . S
C223 H230 0.930 . S
H224 C221 0.928 . S
H225 C222 0.931 . S
H226 C202 0.930 . S
H227 C199 0.930 . S
H228 C208 0.930 . S
H229 C220 0.929 . S
H230 C223 0.930 . S
C231 C232 1.351 . S
C231 N234 1.368 . S
C231 H236 0.931 . S
C232 C231 1.351 . S
C232 N233 1.373 . S
C232 H260 0.930 . S
N233 C232 1.373 . S
N233 C235 1.340 . S
N234 C231 1.368 . S
N234 C235 1.321 . S
N234 Co237 2.135 . S
C235 N233 1.340 . S
C235 N234 1.321 . S
C235 H259 0.930 . S
H236 C231 0.931 . S
Co237 N234 2.135 . S
Co237 N240 2.121 . S
Co237 O245 2.055 . S
Co237 O248 2.039 . S
Co237 N251 2.140 1_545 S
C238 O239 1.227 1_545 S
C238 O248 1.265 . S
O239 C238 1.227 1_565 S
N240 Co237 2.121 . S
N240 C242 1.375 1_545 S
N240 C243 1.313 . S
C241 C242 1.338 . S
C241 N244 1.377 1_565 S
C241 H261 0.930 . S
C242 N240 1.375 1_565 S
C242 C241 1.338 . S
C242 H246 0.931 . S
C243 N240 1.313 . S
C243 N244 1.344 . S
C243 H247 0.930 . S
N244 C241 1.377 1_545 S
N244 C243 1.344 . S
O245 Co237 2.055 . S
O245 C249 1.253 . S
H246 C242 0.931 . S
H247 C243 0.930 . S
O248 Co237 2.039 . S
O248 C238 1.265 . S
C249 O245 1.253 . S
C249 O250 1.227 . S
O250 C249 1.227 . S
N251 Co237 2.140 1_565 S
N251 C254 1.346 . S
N251 C255 1.345 . S
C252 C253 1.387 . S
C252 C256 1.391 . S
C253 C252 1.387 . S
C253 C254 1.369 . S
C253 H262 0.929 . S
C254 N251 1.346 . S
C254 C253 1.369 . S
C254 H257 0.928 . S
C255 N251 1.345 . S
C255 C256 1.371 . S
C255 H258 0.931 . S
C256 C252 1.391 . S
C256 C255 1.371 . S
C256 H263 0.930 . S
H257 C254 0.928 . S
H258 C255 0.931 . S
H259 C235 0.930 . S
H260 C232 0.930 . S
H261 C241 0.930 . S
H262 C253 0.929 . S
H263 C256 0.930 . S
C264 C265 1.351 . S
C264 N267 1.368 . S
C264 H269 0.931 . S
C265 C264 1.351 . S
C265 N266 1.373 . S
C265 H293 0.930 . S
N266 C265 1.373 . S
N266 C268 1.340 . S
N267 C264 1.368 . S
N267 C268 1.321 . S
N267 Co270 2.135 . S
C268 N266 1.340 . S
C268 N267 1.321 . S
C268 H292 0.930 . S
H269 C264 0.931 . S
Co270 N267 2.135 . S
Co270 N273 2.121 . S
Co270 O278 2.055 . S
Co270 O281 2.039 . S
Co270 N284 2.140 . S
C271 O272 1.227 . S
C271 O281 1.265 . S
O272 C271 1.227 . S
N273 Co270 2.121 . S
N273 C275 1.375 . S
N273 C276 1.313 . S
C274 C275 1.338 . S
C274 N277 1.377 . S
C274 H294 0.930 . S
C275 N273 1.375 . S
C275 C274 1.338 . S
C275 H279 0.931 . S
C276 N273 1.313 . S
C276 N277 1.344 . S
C276 H280 0.930 . S
N277 C274 1.377 . S
N277 C276 1.344 . S
O278 Co270 2.055 . S
O278 C282 1.253 . S
H279 C275 0.931 . S
H280 C276 0.930 . S
O281 Co270 2.039 . S
O281 C271 1.265 . S
C282 O278 1.253 . S
C282 O283 1.227 . S
O283 C282 1.227 . S
N284 Co270 2.140 . S
N284 C287 1.346 . S
N284 C288 1.345 . S
C285 C286 1.387 . S
C285 C289 1.391 . S
C286 C285 1.387 . S
C286 C287 1.369 . S
C286 H295 0.929 . S
C287 N284 1.346 . S
C287 C286 1.369 . S
C287 H290 0.928 . S
C288 N284 1.345 . S
C288 C289 1.371 . S
C288 H291 0.931 . S
C289 C285 1.391 . S
C289 C288 1.371 . S
C289 H296 0.930 . S
H290 C287 0.928 . S
H291 C288 0.931 . S
H292 C268 0.930 . S
H293 C265 0.930 . S
H294 C274 0.930 . S
H295 C286 0.929 . S
H296 C289 0.930 . S
C297 C298 1.351 . S
C297 N300 1.368 . S
C297 H302 0.931 . S
C298 C297 1.351 . S
C298 N299 1.373 . S
C298 H326 0.930 . S
N299 C298 1.373 . S
N299 C301 1.340 . S
N300 C297 1.368 . S
N300 C301 1.321 . S
N300 Co303 2.135 . S
C301 N299 1.340 . S
C301 N300 1.321 . S
C301 H325 0.930 . S
H302 C297 0.931 . S
Co303 N300 2.135 . S
Co303 N306 2.121 . S
Co303 O311 2.055 . S
Co303 O314 2.039 . S
Co303 N317 2.140 . S
C304 O305 1.227 . S
C304 O314 1.265 . S
O305 C304 1.227 . S
N306 Co303 2.121 . S
N306 C308 1.375 . S
N306 C309 1.313 . S
C307 C308 1.338 . S
C307 N310 1.377 . S
C307 H327 0.930 . S
C308 N306 1.375 . S
C308 C307 1.338 . S
C308 H312 0.931 . S
C309 N306 1.313 . S
C309 N310 1.344 . S
C309 H313 0.930 . S
N310 C307 1.377 . S
N310 C309 1.344 . S
O311 Co303 2.055 . S
O311 C315 1.253 . S
H312 C308 0.931 . S
H313 C309 0.930 . S
O314 Co303 2.039 . S
O314 C304 1.265 . S
C315 O311 1.253 . S
C315 O316 1.227 . S
O316 C315 1.227 . S
N317 Co303 2.140 . S
N317 C320 1.346 . S
N317 C321 1.345 . S
C318 C319 1.387 . S
C318 C322 1.391 . S
C319 C318 1.387 . S
C319 C320 1.369 . S
C319 H328 0.929 . S
C320 N317 1.346 . S
C320 C319 1.369 . S
C320 H323 0.928 . S
C321 N317 1.345 . S
C321 C322 1.371 . S
C321 H324 0.931 . S
C322 C318 1.391 . S
C322 C321 1.371 . S
C322 H329 0.930 . S
H323 C320 0.928 . S
H324 C321 0.931 . S
H325 C301 0.930 . S
H326 C298 0.930 . S
H327 C307 0.930 . S
H328 C319 0.929 . S
H329 C322 0.930 . S
C330 C331 1.351 . S
C330 N333 1.368 . S
C330 H335 0.931 . S
C331 C330 1.351 . S
C331 N332 1.373 . S
C331 H359 0.930 . S
N332 C331 1.373 . S
N332 C334 1.340 . S
N333 C330 1.368 . S
N333 C334 1.321 . S
N333 Co336 2.135 . S
C334 N332 1.340 . S
C334 N333 1.321 . S
C334 H358 0.930 . S
H335 C330 0.931 . S
Co336 N333 2.135 . S
Co336 N339 2.121 . S
Co336 O344 2.055 . S
Co336 O347 2.039 . S
Co336 N350 2.140 1_655 S
C337 O338 1.227 1_655 S
C337 O347 1.265 . S
O338 C337 1.227 1_455 S
N339 Co336 2.121 . S
N339 C341 1.375 1_655 S
N339 C342 1.313 . S
C340 C341 1.338 . S
C340 N343 1.377 1_455 S
C340 H360 0.930 . S
C341 N339 1.375 1_455 S
C341 C340 1.338 . S
C341 H345 0.931 . S
C342 N339 1.313 . S
C342 N343 1.344 . S
C342 H346 0.930 . S
N343 C340 1.377 1_655 S
N343 C342 1.344 . S
O344 Co336 2.055 . S
O344 C348 1.253 . S
H345 C341 0.931 . S
H346 C342 0.930 . S
O347 Co336 2.039 . S
O347 C337 1.265 . S
C348 O344 1.253 . S
C348 O349 1.227 . S
O349 C348 1.227 . S
N350 Co336 2.140 1_455 S
N350 C353 1.346 . S
N350 C354 1.345 . S
C351 C352 1.387 . S
C351 C355 1.391 . S
C352 C351 1.387 . S
C352 C353 1.369 . S
C352 H361 0.929 . S
C353 N350 1.346 . S
C353 C352 1.369 . S
C353 H356 0.928 . S
C354 N350 1.345 . S
C354 C355 1.371 . S
C354 H357 0.931 . S
C355 C351 1.391 . S
C355 C354 1.371 . S
C355 H362 0.930 . S
H356 C353 0.928 . S
H357 C354 0.931 . S
H358 C334 0.930 . S
H359 C331 0.930 . S
H360 C340 0.930 . S
H361 C352 0.929 . S
H362 C355 0.930 . S
C363 C364 1.351 . S
C363 N366 1.368 . S
C363 H368 0.931 . S
C364 C363 1.351 . S
C364 N365 1.373 . S
C364 H392 0.930 . S
N365 C364 1.373 . S
N365 C367 1.340 . S
N366 C363 1.368 . S
N366 C367 1.321 . S
N366 Co369 2.135 . S
C367 N365 1.340 . S
C367 N366 1.321 . S
C367 H391 0.930 . S
H368 C363 0.931 . S
Co369 N366 2.135 . S
Co369 N372 2.121 . S
Co369 O377 2.055 . S
Co369 O380 2.039 . S
Co369 N383 2.140 1_565 S
C370 O371 1.227 1_565 S
C370 O380 1.265 . S
O371 C370 1.227 1_545 S
N372 Co369 2.121 . S
N372 C374 1.375 1_565 S
N372 C375 1.313 . S
C373 C374 1.338 . S
C373 N376 1.377 1_545 S
C373 H393 0.930 . S
C374 N372 1.375 1_545 S
C374 C373 1.338 . S
C374 H378 0.931 . S
C375 N372 1.313 . S
C375 N376 1.344 . S
C375 H379 0.930 . S
N376 C373 1.377 1_565 S
N376 C375 1.344 . S
O377 Co369 2.055 . S
O377 C381 1.253 . S
H378 C374 0.931 . S
H379 C375 0.930 . S
O380 Co369 2.039 . S
O380 C370 1.265 . S
C381 O377 1.253 . S
C381 O382 1.227 . S
O382 C381 1.227 . S
N383 Co369 2.140 1_545 S
N383 C386 1.346 . S
N383 C387 1.345 . S
C384 C385 1.387 . S
C384 C388 1.391 . S
C385 C384 1.387 . S
C385 C386 1.369 . S
C385 H394 0.929 . S
C386 N383 1.346 . S
C386 C385 1.369 . S
C386 H389 0.928 . S
C387 N383 1.345 . S
C387 C388 1.371 . S
C387 H390 0.931 . S
C388 C384 1.391 . S
C388 C387 1.371 . S
C388 H395 0.930 . S
H389 C386 0.928 . S
H390 C387 0.931 . S
H391 C367 0.930 . S
H392 C364 0.930 . S
H393 C373 0.930 . S
H394 C385 0.929 . S
H395 C388 0.930 . S
C396 C397 1.351 . S
C396 N399 1.368 . S
C396 H401 0.931 . S
C397 C396 1.351 . S
C397 N398 1.373 . S
C397 H425 0.930 . S
N398 C397 1.373 . S
N398 C400 1.340 . S
N399 C396 1.368 . S
N399 C400 1.321 . S
N399 Co402 2.135 . S
C400 N398 1.340 . S
C400 N399 1.321 . S
C400 H424 0.930 . S
H401 C396 0.931 . S
Co402 N399 2.135 . S
Co402 N405 2.121 . S
Co402 O410 2.055 . S
Co402 O413 2.039 . S
Co402 N416 2.140 . S
C403 O404 1.227 . S
C403 O413 1.265 . S
O404 C403 1.227 . S
N405 Co402 2.121 . S
N405 C407 1.375 . S
N405 C408 1.313 . S
C406 C407 1.338 . S
C406 N409 1.377 . S
C406 H426 0.930 . S
C407 N405 1.375 . S
C407 C406 1.338 . S
C407 H411 0.931 . S
C408 N405 1.313 . S
C408 N409 1.344 . S
C408 H412 0.930 . S
N409 C406 1.377 . S
N409 C408 1.344 . S
O410 Co402 2.055 . S
O410 C414 1.253 . S
H411 C407 0.931 . S
H412 C408 0.930 . S
O413 Co402 2.039 . S
O413 C403 1.265 . S
C414 O410 1.253 . S
C414 O415 1.227 . S
O415 C414 1.227 . S
N416 Co402 2.140 . S
N416 C419 1.346 . S
N416 C420 1.345 . S
C417 C418 1.387 . S
C417 C421 1.391 . S
C418 C417 1.387 . S
C418 C419 1.369 . S
C418 H427 0.929 . S
C419 N416 1.346 . S
C419 C418 1.369 . S
C419 H422 0.928 . S
C420 N416 1.345 . S
C420 C421 1.371 . S
C420 H423 0.931 . S
C421 C417 1.391 . S
C421 C420 1.371 . S
C421 H428 0.930 . S
H422 C419 0.928 . S
H423 C420 0.931 . S
H424 C400 0.930 . S
H425 C397 0.930 . S
H426 C406 0.930 . S
H427 C418 0.929 . S
H428 C421 0.930 . S
C429 C430 1.351 . S
C429 N432 1.368 . S
C429 H434 0.931 . S
C430 C429 1.351 . S
C430 N431 1.373 . S
C430 H458 0.930 . S
N431 C430 1.373 . S
N431 C433 1.340 . S
N432 C429 1.368 . S
N432 C433 1.321 . S
N432 Co435 2.135 . S
C433 N431 1.340 . S
C433 N432 1.321 . S
C433 H457 0.930 . S
H434 C429 0.931 . S
Co435 N432 2.135 . S
Co435 N438 2.121 . S
Co435 O443 2.055 . S
Co435 O446 2.039 . S
Co435 N449 2.140 . S
C436 O437 1.227 . S
C436 O446 1.265 . S
O437 C436 1.227 . S
N438 Co435 2.121 . S
N438 C440 1.375 . S
N438 C441 1.313 . S
C439 C440 1.338 . S
C439 N442 1.377 . S
C439 H459 0.930 . S
C440 N438 1.375 . S
C440 C439 1.338 . S
C440 H444 0.931 . S
C441 N438 1.313 . S
C441 N442 1.344 . S
C441 H445 0.930 . S
N442 C439 1.377 . S
N442 C441 1.344 . S
O443 Co435 2.055 . S
O443 C447 1.253 . S
H444 C440 0.931 . S
H445 C441 0.930 . S
O446 Co435 2.039 . S
O446 C436 1.265 . S
C447 O443 1.253 . S
C447 O448 1.227 . S
O448 C447 1.227 . S
N449 Co435 2.140 . S
N449 C452 1.346 . S
N449 C453 1.345 . S
C450 C451 1.387 . S
C450 C454 1.391 . S
C451 C450 1.387 . S
C451 C452 1.369 . S
C451 H460 0.929 . S
C452 N449 1.346 . S
C452 C451 1.369 . S
C452 H455 0.928 . S
C453 N449 1.345 . S
C453 C454 1.371 . S
C453 H456 0.931 . S
C454 C450 1.391 . S
C454 C453 1.371 . S
C454 H461 0.930 . S
H455 C452 0.928 . S
H456 C453 0.931 . S
H457 C433 0.930 . S
H458 C430 0.930 . S
H459 C439 0.930 . S
H460 C451 0.929 . S
H461 C454 0.930 . S
C462 C463 1.351 . S
C462 N465 1.368 . S
C462 H467 0.931 . S
C463 C462 1.351 . S
C463 N464 1.373 . S
C463 H491 0.930 . S
N464 C463 1.373 . S
N464 C466 1.340 . S
N465 C462 1.368 . S
N465 C466 1.321 . S
N465 Co468 2.135 . S
C466 N464 1.340 . S
C466 N465 1.321 . S
C466 H490 0.930 . S
H467 C462 0.931 . S
Co468 N465 2.135 . S
Co468 N471 2.121 . S
Co468 O476 2.055 . S
Co468 O479 2.039 . S
Co468 N482 2.140 1_655 S
C469 O470 1.227 1_655 S
C469 O479 1.265 . S
O470 C469 1.227 1_455 S
N471 Co468 2.121 . S
N471 C473 1.375 1_655 S
N471 C474 1.313 . S
C472 C473 1.338 . S
C472 N475 1.377 1_455 S
C472 H492 0.930 . S
C473 N471 1.375 1_455 S
C473 C472 1.338 . S
C473 H477 0.931 . S
C474 N471 1.313 . S
C474 N475 1.344 . S
C474 H478 0.930 . S
N475 C472 1.377 1_655 S
N475 C474 1.344 . S
O476 Co468 2.055 . S
O476 C480 1.253 . S
H477 C473 0.931 . S
H478 C474 0.930 . S
O479 Co468 2.039 . S
O479 C469 1.265 . S
C480 O476 1.253 . S
C480 O481 1.227 . S
O481 C480 1.227 . S
N482 Co468 2.140 1_455 S
N482 C485 1.346 . S
N482 C486 1.345 . S
C483 C484 1.387 . S
C483 C487 1.391 . S
C484 C483 1.387 . S
C484 C485 1.369 . S
C484 H493 0.929 . S
C485 N482 1.346 . S
C485 C484 1.369 . S
C485 H488 0.928 . S
C486 N482 1.345 . S
C486 C487 1.371 . S
C486 H489 0.931 . S
C487 C483 1.391 . S
C487 C486 1.371 . S
C487 H494 0.930 . S
H488 C485 0.928 . S
H489 C486 0.931 . S
H490 C466 0.930 . S
H491 C463 0.930 . S
H492 C472 0.930 . S
H493 C484 0.929 . S
H494 C487 0.930 . S
C495 C496 1.351 . S
C495 N498 1.368 . S
C495 H500 0.931 . S
C496 C495 1.351 . S
C496 N497 1.373 . S
C496 H524 0.930 . S
N497 C496 1.373 . S
N497 C499 1.340 . S
N498 C495 1.368 . S
N498 C499 1.321 . S
N498 Co501 2.135 . S
C499 N497 1.340 . S
C499 N498 1.321 . S
C499 H523 0.930 . S
H500 C495 0.931 . S
Co501 N498 2.135 . S
Co501 N504 2.121 . S
Co501 O509 2.055 . S
Co501 O512 2.039 . S
Co501 N515 2.140 1_565 S
C502 O503 1.227 1_565 S
C502 O512 1.265 . S
O503 C502 1.227 1_545 S
N504 Co501 2.121 . S
N504 C506 1.375 1_565 S
N504 C507 1.313 . S
C505 C506 1.338 . S
C505 N508 1.377 1_545 S
C505 H525 0.930 . S
C506 N504 1.375 1_545 S
C506 C505 1.338 . S
C506 H510 0.931 . S
C507 N504 1.313 . S
C507 N508 1.344 . S
C507 H511 0.930 . S
N508 C505 1.377 1_565 S
N508 C507 1.344 . S
O509 Co501 2.055 . S
O509 C513 1.253 . S
H510 C506 0.931 . S
H511 C507 0.930 . S
O512 Co501 2.039 . S
O512 C502 1.265 . S
C513 O509 1.253 . S
C513 O514 1.227 . S
O514 C513 1.227 . S
N515 Co501 2.140 1_545 S
N515 C518 1.346 . S
N515 C519 1.345 . S
C516 C517 1.387 . S
C516 C520 1.391 . S
C517 C516 1.387 . S
C517 C518 1.369 . S
C517 H526 0.929 . S
C518 N515 1.346 . S
C518 C517 1.369 . S
C518 H521 0.928 . S
C519 N515 1.345 . S
C519 C520 1.371 . S
C519 H522 0.931 . S
C520 C516 1.391 . S
C520 C519 1.371 . S
C520 H527 0.930 . S
H521 C518 0.928 . S
H522 C519 0.931 . S
H523 C499 0.930 . S
H524 C496 0.930 . S
H525 C505 0.930 . S
H526 C517 0.929 . S
H527 C520 0.930 . S
C528 C529 1.387 . S
C528 H532 0.950 . S
C528 C537 1.390 1_554 S
C529 C528 1.387 . S
C529 C531 1.387 . S
H530 C537 0.950 . S
C531 C529 1.387 . S
C531 C533 1.390 1_554 S
C531 H535 0.950 . S
H532 C528 0.950 . S
C533 C531 1.390 1_556 S
C533 C534 1.387 . S
C533 H536 0.950 . S
C534 C533 1.387 . S
C534 C537 1.387 . S
H535 C531 0.950 . S
H536 C533 0.950 . S
C537 C528 1.390 1_556 S
C537 H530 0.950 . S
C537 C534 1.387 . S
C538 C539 1.387 . S
C538 H542 0.950 . S
C538 C547 1.390 . S
C539 C538 1.387 . S
C539 C541 1.387 . S
H540 C547 0.950 . S
C541 C539 1.387 . S
C541 C543 1.390 . S
C541 H545 0.950 . S
H542 C538 0.950 . S
C543 C541 1.390 . S
C543 C544 1.387 . S
C543 H546 0.950 . S
C544 C543 1.387 . S
C544 C547 1.387 . S
H545 C541 0.950 . S
H546 C543 0.950 . S
C547 C538 1.390 . S
C547 H540 0.950 . S
C547 C544 1.387 . S
C548 C549 1.387 . S
C548 H552 0.950 . S
C548 C557 1.390 1_556 S
C549 C548 1.387 . S
C549 C551 1.387 1_455 S
H550 C557 0.950 . S
C551 C549 1.387 1_655 S
C551 C553 1.390 1_556 S
C551 H555 0.950 . S
H552 C548 0.950 . S
C553 C551 1.390 1_554 S
C553 C554 1.387 1_655 S
C553 H556 0.950 . S
C554 C553 1.387 1_455 S
C554 C557 1.387 . S
H555 C551 0.950 . S
H556 C553 0.950 . S
C557 C548 1.390 1_554 S
C557 H550 0.950 . S
C557 C554 1.387 . S
C558 C559 1.387 . S
C558 H562 0.950 . S
C558 C567 1.390 . S
C559 C558 1.387 . S
C559 C561 1.387 1_545 S
H560 C567 0.950 . S
C561 C559 1.387 1_565 S
C561 C563 1.390 . S
C561 H565 0.950 . S
H562 C558 0.950 . S
C563 C561 1.390 . S
C563 C564 1.387 1_565 S
C563 H566 0.950 . S
C564 C563 1.387 1_545 S
C564 C567 1.387 . S
H565 C561 0.950 . S
H566 C563 0.950 . S
C567 C558 1.390 . S
C567 H560 0.950 . S
C567 C564 1.387 . S
C568 C569 1.387 . S
C568 H572 0.950 . S
C568 C577 1.390 1_556 S
C569 C568 1.387 . S
C569 C571 1.387 . S
H570 C577 0.950 . S
C571 C569 1.387 . S
C571 C573 1.390 1_556 S
C571 H575 0.950 . S
H572 C568 0.950 . S
C573 C571 1.390 1_554 S
C573 C574 1.387 . S
C573 H576 0.950 . S
C574 C573 1.387 . S
C574 C577 1.387 . S
H575 C571 0.950 . S
H576 C573 0.950 . S
C577 C568 1.390 1_554 S
C577 H570 0.950 . S
C577 C574 1.387 . S
C578 C579 1.387 . S
C578 H582 0.950 . S
C578 C587 1.390 . S
C579 C578 1.387 . S
C579 C581 1.387 . S
H580 C587 0.950 . S
C581 C579 1.387 . S
C581 C583 1.390 . S
C581 H585 0.950 . S
H582 C578 0.950 . S
C583 C581 1.390 . S
C583 C584 1.387 . S
C583 H586 0.950 . S
C584 C583 1.387 . S
C584 C587 1.387 . S
H585 C581 0.950 . S
H586 C583 0.950 . S
C587 C578 1.390 . S
C587 H580 0.950 . S
C587 C584 1.387 . S
C588 C589 1.387 1_455 S
C588 H592 0.950 . S
C588 C597 1.390 1_554 S
C589 C588 1.387 1_655 S
C589 C591 1.387 . S
H590 C597 0.950 . S
C591 C589 1.387 . S
C591 C593 1.390 1_554 S
C591 H595 0.950 . S
H592 C588 0.950 . S
C593 C591 1.390 1_556 S
C593 C594 1.387 . S
C593 H596 0.950 . S
C594 C593 1.387 . S
C594 C597 1.387 1_655 S
H595 C591 0.950 . S
H596 C593 0.950 . S
C597 C588 1.390 1_556 S
C597 H590 0.950 . S
C597 C594 1.387 1_455 S
C598 C599 1.387 1_545 S
C598 H602 0.950 . S
C598 C607 1.390 . S
C599 C598 1.387 1_565 S
C599 C601 1.387 . S
H600 C607 0.950 . S
C601 C599 1.387 . S
C601 C603 1.390 . S
C601 H605 0.950 . S
H602 C598 0.950 . S
C603 C601 1.390 . S
C603 C604 1.387 . S
C603 H606 0.950 . S
C604 C603 1.387 . S
C604 C607 1.387 1_565 S
H605 C601 0.950 . S
H606 C603 0.950 . S
C607 C598 1.390 . S
C607 H600 0.950 . S
C607 C604 1.387 1_545 S
C608 C609 1.387 . S
C608 H612 0.950 . S
C608 C617 1.390 . S
C609 C608 1.387 . S
C609 C611 1.387 . S
H610 C617 0.950 1_545 S
C611 C609 1.387 . S
C611 C613 1.390 . S
C611 H615 0.950 . S
H612 C608 0.950 . S
C613 C611 1.390 . S
C613 C614 1.387 1_565 S
C613 H616 0.950 1_565 S
C614 C613 1.387 1_545 S
C614 C617 1.387 1_545 S
H615 C611 0.950 . S
H616 C613 0.950 1_545 S
C617 C608 1.390 . S
C617 H610 0.950 1_565 S
C617 C614 1.387 1_565 S
C618 C619 1.387 . S
C618 H622 0.950 . S
C618 C627 1.390 . S
C619 C618 1.387 . S
C619 C621 1.387 . S
H620 C627 0.950 . S
C621 C619 1.387 . S
C621 C623 1.390 . S
C621 H625 0.950 . S
H622 C618 0.950 . S
C623 C621 1.390 . S
C623 C624 1.387 . S
C623 H626 0.950 . S
C624 C623 1.387 . S
C624 C627 1.387 . S
H625 C621 0.950 . S
H626 C623 0.950 . S
C627 C618 1.390 . S
C627 H620 0.950 . S
C627 C624 1.387 . S
C628 C629 1.388 . S
C628 H632 0.950 . S
C628 C637 1.389 1_455 S
C629 C628 1.388 . S
C629 C631 1.387 1_455 S
H630 C637 0.950 . S
C631 C629 1.387 1_655 S
C631 C633 1.390 . S
C631 H635 0.950 . S
H632 C628 0.950 . S
C633 C631 1.390 . S
C633 C634 1.387 . S
C633 H636 0.950 . S
C634 C633 1.387 . S
C634 C637 1.387 . S
H635 C631 0.950 . S
H636 C633 0.950 . S
C637 C628 1.389 1_655 S
C637 H630 0.950 . S
C637 C634 1.387 . S
C638 C639 1.387 . S
C638 H642 0.950 . S
C638 C647 1.390 1_565 S
C639 C638 1.387 . S
C639 C641 1.387 . S
H640 C647 0.950 1_455 S
C641 C639 1.387 . S
C641 C643 1.390 . S
C641 H645 0.950 . S
H642 C638 0.950 . S
C643 C641 1.390 . S
C643 C644 1.387 1_665 S
C643 H646 0.950 1_655 S
C644 C643 1.387 1_445 S
C644 C647 1.387 1_455 S
H645 C641 0.950 . S
H646 C643 0.950 1_455 S
C647 C638 1.390 1_545 S
C647 H640 0.950 1_655 S
C647 C644 1.387 1_655 S
C648 C649 1.387 . S
C648 H652 0.950 . S
C648 C657 1.390 . S
C649 C648 1.387 . S
C649 C651 1.387 . S
H650 C657 0.950 . S
C651 C649 1.387 . S
C651 C653 1.390 . S
C651 H655 0.950 . S
H652 C648 0.950 . S
C653 C651 1.390 . S
C653 C654 1.387 . S
C653 H656 0.950 . S
C654 C653 1.387 . S
C654 C657 1.387 . S
H655 C651 0.950 . S
H656 C653 0.950 . S
C657 C648 1.390 . S
C657 H650 0.950 . S
C657 C654 1.387 . S
C658 C659 1.387 . S
C658 H662 0.950 . S
C658 C667 1.390 . S
C659 C658 1.387 . S
C659 C661 1.387 . S
H660 C667 0.950 . S
C661 C659 1.387 . S
C661 C663 1.390 1_655 S
C661 H665 0.950 . S
H662 C658 0.950 . S
C663 C661 1.390 1_455 S
C663 C664 1.387 . S
C663 H666 0.950 . S
C664 C663 1.387 . S
C664 C667 1.387 1_455 S
H665 C661 0.950 . S
H666 C663 0.950 . S
C667 C658 1.390 . S
C667 H660 0.950 . S
C667 C664 1.387 1_655 S
C668 C669 1.387 1_565 S
C668 H672 0.950 1_565 S
C668 C677 1.390 1_455 S
C669 C668 1.387 1_545 S
C669 C671 1.387 1_445 S
H670 C677 0.950 . S
C671 C669 1.387 1_665 S
C671 C673 1.390 . S
C671 H675 0.950 1_565 S
H672 C668 0.950 1_545 S
C673 C671 1.390 . S
C673 C674 1.387 . S
C673 H676 0.950 . S
C674 C673 1.387 . S
C674 C677 1.387 . S
H675 C671 0.950 1_545 S
H676 C673 0.950 . S
C677 C668 1.390 1_655 S
C677 H670 0.950 . S
C677 C674 1.387 . S
C678 C679 1.387 1_565 S
C678 H682 0.950 . S
C678 C687 1.390 . S
C679 C678 1.387 1_545 S
C679 C681 1.387 . S
H680 C687 0.950 . S
C681 C679 1.387 . S
C681 C683 1.390 1_545 S
C681 H685 0.950 . S
H682 C678 0.950 . S
C683 C681 1.390 1_565 S
C683 C684 1.387 . S
C683 H686 0.951 . S
C684 C683 1.387 . S
C684 C687 1.387 . S
H685 C681 0.950 . S
H686 C683 0.951 . S
C687 C678 1.390 . S
C687 H680 0.950 . S
C687 C684 1.387 . S
C688 C689 1.387 . S
C688 H692 0.950 . S
C688 C697 1.390 . S
C689 C688 1.387 . S
C689 C691 1.387 . S
H690 C697 0.950 . S
C691 C689 1.387 . S
C691 C693 1.390 1_545 S
C691 H695 0.950 . S
H692 C688 0.950 . S
C693 C691 1.390 1_565 S
C693 C694 1.387 . S
C693 H696 0.950 . S
C694 C693 1.387 . S
C694 C697 1.387 1_565 S
H695 C691 0.950 . S
H696 C693 0.950 . S
C697 C688 1.390 . S
C697 H690 0.950 . S
C697 C694 1.387 1_545 S
C698 C699 1.387 . S
C698 H702 0.950 . S
C698 C707 1.390 . S
C699 C698 1.387 . S
C699 C701 1.387 . S
H700 C707 0.950 . S
C701 C699 1.387 . S
C701 C703 1.390 . S
C701 H705 0.950 . S
H702 C698 0.950 . S
C703 C701 1.390 . S
C703 C704 1.387 . S
C703 H706 0.950 . S
C704 C703 1.387 . S
C704 C707 1.387 . S
H705 C701 0.950 . S
H706 C703 0.950 . S
C707 C698 1.390 . S
C707 H700 0.950 . S
C707 C704 1.387 . S
C708 C709 1.387 . S
C708 H712 0.950 . S
C708 C717 1.390 . S
C709 C708 1.387 . S
C709 C711 1.387 . S
H710 C717 0.948 1_655 S
C711 C709 1.387 . S
C711 C713 1.390 . S
C711 H715 0.950 . S
H712 C708 0.950 . S
C713 C711 1.390 . S
C713 C714 1.387 1_455 S
C713 H716 0.950 . S
C714 C713 1.387 1_655 S
C714 C717 1.387 1_655 S
H715 C711 0.950 . S
H716 C713 0.950 . S
C717 C708 1.390 . S
C717 H710 0.948 1_455 S
C717 C714 1.387 1_455 S
C718 C719 1.387 1_445 S
C718 H722 0.950 1_455 S
C718 C727 1.390 . S
C719 C718 1.387 1_665 S
C719 C721 1.387 1_655 S
H720 C727 0.950 . S
C721 C719 1.387 1_455 S
C721 C723 1.390 1_565 S
C721 H725 0.950 1_455 S
H722 C718 0.950 1_655 S
C723 C721 1.390 1_545 S
C723 C724 1.387 . S
C723 H726 0.950 . S
C724 C723 1.387 . S
C724 C727 1.387 . S
H725 C721 0.950 1_655 S
H726 C723 0.950 . S
C727 C718 1.390 . S
C727 H720 0.950 . S
C727 C724 1.387 . S
C728 C729 1.387 . S
C728 H732 0.950 . S
C728 C737 1.390 . S
C729 C728 1.387 . S
C729 C731 1.387 . S
H730 C737 0.950 . S
C731 C729 1.387 . S
C731 C733 1.390 . S
C731 H735 0.950 . S
H732 C728 0.950 . S
C733 C731 1.390 . S
C733 C734 1.387 . S
C733 H736 0.950 . S
C734 C733 1.387 . S
C734 C737 1.387 . S
H735 C731 0.950 . S
H736 C733 0.950 . S
C737 C728 1.390 . S
C737 H730 0.950 . S
C737 C734 1.387 . S
C738 C739 1.387 . S
C738 H742 0.950 . S
C738 C747 1.390 . S
C739 C738 1.387 . S
C739 C741 1.387 . S
H740 C747 0.950 1_655 S
C741 C739 1.387 . S
C741 C743 1.390 . S
C741 H745 0.950 . S
H742 C738 0.950 . S
C743 C741 1.390 . S
C743 C744 1.387 1_455 S
C743 H746 0.950 1_455 S
C744 C743 1.387 1_655 S
C744 C747 1.387 1_655 S
H745 C741 0.950 . S
H746 C743 0.950 1_655 S
C747 C738 1.390 . S
C747 H740 0.950 1_455 S
C747 C744 1.387 1_455 S
C748 C749 1.387 1_455 S
C748 H752 0.950 . S
C748 C757 1.390 1_565 S
C749 C748 1.387 1_655 S
C749 C751 1.387 1_665 S
H750 C757 0.950 . S
C751 C749 1.387 1_445 S
C751 C753 1.390 . S
C751 H755 0.950 1_455 S
H752 C748 0.950 . S
C753 C751 1.390 . S
C753 C754 1.387 . S
C753 H756 0.950 . S
C754 C753 1.387 . S
C754 C757 1.387 . S
H755 C751 0.950 1_655 S
H756 C753 0.950 . S
C757 C748 1.390 1_545 S
C757 H750 0.950 . S
C757 C754 1.387 . S
C758 C759 1.387 . S
C758 H762 0.950 1_545 S
C758 C767 1.390 1_545 S
C759 C758 1.387 . S
C759 C761 1.387 . S
H760 C767 0.950 . S
C761 C759 1.387 . S
C761 C763 1.390 . S
C761 H765 0.950 . S
H762 C758 0.950 1_565 S
C763 C761 1.390 . S
C763 C764 1.387 1_545 S
C763 H766 0.950 . S
C764 C763 1.387 1_565 S
C764 C767 1.387 . S
H765 C761 0.950 . S
H766 C763 0.950 . S
C767 C758 1.390 1_565 S
C767 H760 0.950 . S
C767 C764 1.387 . S
C768 C769 1.387 . S
C768 H772 0.950 . S
C768 C777 1.390 . S
C769 C768 1.387 . S
C769 C771 1.387 . S
H770 C777 0.950 . S
C771 C769 1.387 . S
C771 C773 1.390 . S
C771 H775 0.950 . S
H772 C768 0.950 . S
C773 C771 1.390 . S
C773 C774 1.387 . S
C773 H776 0.950 . S
C774 C773 1.387 . S
C774 C777 1.387 . S
H775 C771 0.950 . S
H776 C773 0.950 . S
C777 C768 1.390 . S
C777 H770 0.950 . S
C777 C774 1.387 . S
C778 C779 1.387 . S
C778 H782 0.950 . S
C778 C787 1.390 . S
C779 C778 1.387 . S
C779 C781 1.387 . S
H780 C787 0.950 . S
C781 C779 1.387 . S
C781 C783 1.390 . S
C781 H785 0.950 . S
H782 C778 0.950 . S
C783 C781 1.390 . S
C783 C784 1.387 . S
C783 H786 0.950 . S
C784 C783 1.387 . S
C784 C787 1.387 . S
H785 C781 0.950 . S
H786 C783 0.950 . S
C787 C778 1.390 . S
C787 H780 0.950 . S
C787 C784 1.387 . S
C788 C789 1.387 . S
C788 H792 0.950 . S
C788 C797 1.390 . S
C789 C788 1.387 . S
C789 C791 1.387 . S
H790 C797 0.950 . S
C791 C789 1.387 . S
C791 C793 1.390 . S
C791 H795 0.950 . S
H792 C788 0.950 . S
C793 C791 1.390 . S
C793 C794 1.387 . S
C793 H796 0.950 . S
C794 C793 1.387 . S
C794 C797 1.387 . S
H795 C791 0.950 . S
H796 C793 0.950 . S
C797 C788 1.390 . S
C797 H790 0.950 . S
C797 C794 1.387 . S
C798 C799 1.387 . S
C798 H802 0.950 . S
C798 C807 1.390 . S
C799 C798 1.387 . S
C799 C801 1.387 . S
H800 C807 0.950 . S
C801 C799 1.387 . S
C801 C803 1.390 . S
C801 H805 0.950 . S
H802 C798 0.950 . S
C803 C801 1.390 . S
C803 C804 1.387 . S
C803 H806 0.950 . S
C804 C803 1.387 . S
C804 C807 1.387 . S
H805 C801 0.950 . S
H806 C803 0.950 . S
C807 C798 1.390 . S
C807 H800 0.950 . S
C807 C804 1.387 . S
C808 C809 1.387 . S
C808 H812 0.950 . S
C808 C817 1.390 . S
C809 C808 1.387 . S
C809 C811 1.387 . S
H810 C817 0.950 . S
C811 C809 1.387 . S
C811 C813 1.390 . S
C811 H815 0.950 . S
H812 C808 0.950 . S
C813 C811 1.390 . S
C813 C814 1.387 . S
C813 H816 0.950 . S
C814 C813 1.387 . S
C814 C817 1.387 . S
H815 C811 0.950 . S
H816 C813 0.950 . S
C817 C808 1.390 . S
C817 H810 0.950 . S
C817 C814 1.387 . S
C818 C819 1.387 . S
C818 H822 0.950 . S
C818 C827 1.390 . S
C819 C818 1.387 . S
C819 C821 1.387 . S
H820 C827 0.950 . S
C821 C819 1.387 . S
C821 C823 1.390 . S
C821 H825 0.950 . S
H822 C818 0.950 . S
C823 C821 1.390 . S
C823 C824 1.387 . S
C823 H826 0.950 . S
C824 C823 1.387 . S
C824 C827 1.387 . S
H825 C821 0.950 . S
H826 C823 0.950 . S
C827 C818 1.390 . S
C827 H820 0.950 . S
C827 C824 1.387 . S
C828 C829 1.387 . S
C828 H832 0.950 . S
C828 C837 1.390 . S
C829 C828 1.387 . S
C829 C831 1.387 . S
H830 C837 0.950 . S
C831 C829 1.387 . S
C831 C833 1.390 . S
C831 H835 0.950 . S
H832 C828 0.950 . S
C833 C831 1.390 . S
C833 C834 1.387 . S
C833 H836 0.950 . S
C834 C833 1.387 . S
C834 C837 1.387 . S
H835 C831 0.950 . S
H836 C833 0.950 . S
C837 C828 1.390 . S
C837 H830 0.950 . S
C837 C834 1.387 . S
C838 C839 1.387 . S
C838 H842 0.950 . S
C838 C847 1.390 . S
C839 C838 1.387 . S
C839 C841 1.387 . S
H840 C847 0.950 . S
C841 C839 1.387 . S
C841 C843 1.390 . S
C841 H845 0.950 . S
H842 C838 0.950 . S
C843 C841 1.390 . S
C843 C844 1.387 . S
C843 H846 0.950 . S
C844 C843 1.387 . S
C844 C847 1.387 . S
H845 C841 0.950 . S
H846 C843 0.950 . S
C847 C838 1.390 . S
C847 H840 0.950 . S
C847 C844 1.387 . S
C848 C849 1.387 . S
C848 H852 0.950 . S
C848 C857 1.390 . S
C849 C848 1.387 . S
C849 C851 1.387 . S
H850 C857 0.950 . S
C851 C849 1.387 . S
C851 C853 1.390 . S
C851 H855 0.950 . S
H852 C848 0.950 . S
C853 C851 1.390 . S
C853 C854 1.387 . S
C853 H856 0.950 . S
C854 C853 1.387 . S
C854 C857 1.387 . S
H855 C851 0.950 . S
H856 C853 0.950 . S
C857 C848 1.390 . S
C857 H850 0.950 . S
C857 C854 1.387 . S
C858 C859 1.387 . S
C858 H862 0.950 . S
C858 C867 1.390 . S
C859 C858 1.387 . S
C859 C861 1.387 . S
H860 C867 0.950 . S
C861 C859 1.387 . S
C861 C863 1.390 . S
C861 H865 0.950 . S
H862 C858 0.950 . S
C863 C861 1.390 . S
C863 C864 1.387 . S
C863 H866 0.950 . S
C864 C863 1.387 . S
C864 C867 1.387 . S
H865 C861 0.950 . S
H866 C863 0.950 . S
C867 C858 1.390 . S
C867 H860 0.950 . S
C867 C864 1.387 . S
C868 C869 1.387 . S
C868 H872 0.950 . S
C868 C877 1.390 . S
C869 C868 1.387 . S
C869 C871 1.387 . S
H870 C877 0.950 . S
C871 C869 1.387 . S
C871 C873 1.390 . S
C871 H875 0.950 . S
H872 C868 0.950 . S
C873 C871 1.390 . S
C873 C874 1.387 . S
C873 H876 0.950 . S
C874 C873 1.387 . S
C874 C877 1.387 . S
H875 C871 0.950 . S
H876 C873 0.950 . S
C877 C868 1.390 . S
C877 H870 0.950 . S
C877 C874 1.387 . S
C878 C879 1.387 . S
C878 H882 0.950 . S
C878 C887 1.390 . S
C879 C878 1.387 . S
C879 C881 1.387 . S
H880 C887 0.950 . S
C881 C879 1.387 . S
C881 C883 1.390 . S
C881 H885 0.950 . S
H882 C878 0.950 . S
C883 C881 1.390 . S
C883 C884 1.387 . S
C883 H886 0.950 . S
C884 C883 1.387 . S
C884 C887 1.387 . S
H885 C881 0.950 . S
H886 C883 0.950 . S
C887 C878 1.390 . S
C887 H880 0.950 . S
C887 C884 1.387 . S
C888 C889 1.387 . S
C888 H892 0.950 . S
C888 C897 1.390 . S
C889 C888 1.387 . S
C889 C891 1.387 . S
H890 C897 0.950 . S
C891 C889 1.387 . S
C891 C893 1.390 . S
C891 H895 0.950 . S
H892 C888 0.950 . S
C893 C891 1.390 . S
C893 C894 1.387 . S
C893 H896 0.950 . S
C894 C893 1.387 . S
C894 C897 1.387 . S
H895 C891 0.950 . S
H896 C893 0.950 . S
C897 C888 1.390 . S
C897 H890 0.950 . S
C897 C894 1.387 . S
C898 C899 1.387 . S
C898 H902 0.950 . S
C898 C907 1.390 . S
C899 C898 1.387 . S
C899 C901 1.387 . S
H900 C907 0.950 . S
C901 C899 1.387 . S
C901 C903 1.390 . S
C901 H905 0.950 . S
H902 C898 0.950 . S
C903 C901 1.390 . S
C903 C904 1.387 . S
C903 H906 0.950 . S
C904 C903 1.387 . S
C904 C907 1.387 . S
H905 C901 0.950 . S
H906 C903 0.950 . S
C907 C898 1.390 . S
C907 H900 0.950 . S
C907 C904 1.387 . S
C908 C909 1.387 . S
C908 H912 0.950 . S
C908 C917 1.390 . S
C909 C908 1.387 . S
C909 C911 1.387 . S
H910 C917 0.950 . S
C911 C909 1.387 . S
C911 C913 1.390 . S
C911 H915 0.950 . S
H912 C908 0.950 . S
C913 C911 1.390 . S
C913 C914 1.387 . S
C913 H916 0.950 . S
C914 C913 1.387 . S
C914 C917 1.387 . S
H915 C911 0.950 . S
H916 C913 0.950 . S
C917 C908 1.390 . S
C917 H910 0.950 . S
C917 C914 1.387 . S
C918 C919 1.387 . S
C918 H922 0.950 . S
C918 C927 1.390 . S
C919 C918 1.387 . S
C919 C921 1.387 . S
H920 C927 0.950 . S
C921 C919 1.387 . S
C921 C923 1.390 . S
C921 H925 0.950 . S
H922 C918 0.950 . S
C923 C921 1.390 . S
C923 C924 1.387 . S
C923 H926 0.950 . S
C924 C923 1.387 . S
C924 C927 1.387 . S
H925 C921 0.950 . S
H926 C923 0.950 . S
C927 C918 1.390 . S
C927 H920 0.950 . S
C927 C924 1.387 . S
C529 C7 1.513 . S
C534 C139 1.513 . S
C539 C172 1.513 . S
C544 C40 1.513 . S
C549 C205 1.513 . S
C554 C73 1.513 . S
C559 C238 1.513 . S
C564 C106 1.513 . S
C569 C271 1.513 . S
C574 C403 1.513 . S
C579 C304 1.513 . S
C584 C436 1.513 . S
C589 C469 1.513 . S
C594 C337 1.513 . S
C599 C370 1.513 . S
C604 C502 1.513 . S
C609 N398 1.404 . S
C614 N13 1.387 . S
C619 N431 1.404 . S
C624 N46 1.387 . S
C629 N79 1.385 . S
C634 N464 1.403 . S
C639 N497 1.403 . S
C644 N112 1.385 . S
C649 N266 1.403 . S
C654 N145 1.385 . S
C659 N299 1.404 . S
C664 N178 1.387 . S
C669 N211 1.385 . S
C674 N332 1.403 . S
C679 N244 1.387 . S
C684 N365 1.404 . S
C689 N134 1.403 . S
C694 N277 1.386 . S
C699 N167 1.403 . S
C704 N310 1.385 . S
C709 N200 1.402 . S
C714 N343 1.385 . S
C719 N376 1.385 . S
C724 N233 1.403 . S
C729 N2 1.403 . S
C734 N409 1.385 . S
C739 N35 1.404 . S
C744 N442 1.387 . S
C749 N475 1.388 . S
C754 N68 1.404 . S
C759 N101 1.402 . S
C764 N508 1.385 . S
C769 C87 1.405 . S
C774 C21 1.405 . S
C779 C54 1.405 . S
C784 C120 1.405 . S
C789 C219 1.405 . S
C794 C153 1.405 . S
C799 C252 1.405 . S
C804 C186 1.405 . S
C809 C351 1.405 . S
C814 C285 1.405 . S
C819 C384 1.405 . S
C824 C318 1.405 . S
C829 C417 1.405 . S
C834 C483 1.405 . S
C839 C516 1.405 . S
C844 C450 1.405 . S
C849 C249 1.395 . S
C854 C18 1.394 . S
C859 C150 1.395 . S
C864 C51 1.397 . S
C869 C183 1.394 . S
C874 C84 1.395 . S
C879 C216 1.394 . S
C884 C117 1.395 . S
C889 C513 1.396 . S
C894 C282 1.394 . S
C899 C414 1.394 . S
C904 C315 1.396 . S
C909 C447 1.394 . S
C914 C348 1.396 . S
C919 C480 1.395 . S
C924 C381 1.397 . S
