# Generated by pormake.
# Topology uma, (4)-cn, num edge types: 1
# Building blocks:
#     Node 0, Type 0, BuildingBlock: KOZSID_clean_sbu_0, # of connection points: 4
#     Node 1, Type 0, BuildingBlock: KOZSID_clean_sbu_0, # of connection points: 4
#     Node 2, Type 0, BuildingBlock: KOZSID_clean_sbu_0, # of connection points: 4
#     Node 3, Type 0, BuildingBlock: KOZSID_clean_sbu_0, # of connection points: 4
#     Node 4, Type 0, BuildingBlock: KOZSID_clean_sbu_0, # of connection points: 4
#     Node 5, Type 0, BuildingBlock: KOZSID_clean_sbu_0, # of connection points: 4
#     Node 6, Type 0, BuildingBlock: KOZSID_clean_sbu_0, # of connection points: 4
#     Node 7, Type 0, BuildingBlock: KOZSID_clean_sbu_0, # of connection points: 4
#     Node 8, Type 0, BuildingBlock: KOZSID_clean_sbu_0, # of connection points: 4
#     Node 9, Type 0, BuildingBlock: KOZSID_clean_sbu_0, # of connection points: 4
#     Node 10, Type 0, BuildingBlock: KOZSID_clean_sbu_0, # of connection points: 4
#     Node 11, Type 0, BuildingBlock: KOZSID_clean_sbu_0, # of connection points: 4
#     Node 12, Type 0, BuildingBlock: KOZSID_clean_sbu_0, # of connection points: 4
#     Node 13, Type 0, BuildingBlock: KOZSID_clean_sbu_0, # of connection points: 4
#     Node 14, Type 0, BuildingBlock: KOZSID_clean_sbu_0, # of connection points: 4
#     Node 15, Type 0, BuildingBlock: KOZSID_clean_sbu_0, # of connection points: 4
#     Node 16, Type 0, BuildingBlock: KOZSID_clean_sbu_0, # of connection points: 4
#     Node 17, Type 0, BuildingBlock: KOZSID_clean_sbu_0, # of connection points: 4
#     Node 18, Type 0, BuildingBlock: KOZSID_clean_sbu_0, # of connection points: 4
#     Node 19, Type 0, BuildingBlock: KOZSID_clean_sbu_0, # of connection points: 4
#     Node 20, Type 0, BuildingBlock: KOZSID_clean_sbu_0, # of connection points: 4
#     Node 21, Type 0, BuildingBlock: KOZSID_clean_sbu_0, # of connection points: 4
#     Node 22, Type 0, BuildingBlock: KOZSID_clean_sbu_0, # of connection points: 4
#     Node 23, Type 0, BuildingBlock: KOZSID_clean_sbu_0, # of connection points: 4
#     Node 24, Type 0, BuildingBlock: KOZSID_clean_sbu_0, # of connection points: 4
#     Node 25, Type 0, BuildingBlock: KOZSID_clean_sbu_0, # of connection points: 4
#     Node 26, Type 0, BuildingBlock: KOZSID_clean_sbu_0, # of connection points: 4
#     Node 27, Type 0, BuildingBlock: KOZSID_clean_sbu_0, # of connection points: 4
#     Node 28, Type 0, BuildingBlock: KOZSID_clean_sbu_0, # of connection points: 4
#     Node 29, Type 0, BuildingBlock: KOZSID_clean_sbu_0, # of connection points: 4
#     Node 30, Type 0, BuildingBlock: KOZSID_clean_sbu_0, # of connection points: 4
#     Node 31, Type 0, BuildingBlock: KOZSID_clean_sbu_0, # of connection points: 4
#     Node 32, Type 0, BuildingBlock: KOZSID_clean_sbu_0, # of connection points: 4
#     Node 33, Type 0, BuildingBlock: KOZSID_clean_sbu_0, # of connection points: 4
#     Node 34, Type 0, BuildingBlock: KOZSID_clean_sbu_0, # of connection points: 4
#     Node 35, Type 0, BuildingBlock: KOZSID_clean_sbu_0, # of connection points: 4
#     Edge 36, Type (0, 0), BuildingBlock: AJUNOK_clean_linker_0, # of connection points: 2
#     Edge 37, Type (0, 0), BuildingBlock: AJUNOK_clean_linker_0, # of connection points: 2
#     Edge 38, Type (0, 0), BuildingBlock: AJUNOK_clean_linker_0, # of connection points: 2
#     Edge 39, Type (0, 0), BuildingBlock: AJUNOK_clean_linker_0, # of connection points: 2
#     Edge 40, Type (0, 0), BuildingBlock: AJUNOK_clean_linker_0, # of connection points: 2
#     Edge 41, Type (0, 0), BuildingBlock: AJUNOK_clean_linker_0, # of connection points: 2
#     Edge 42, Type (0, 0), BuildingBlock: AJUNOK_clean_linker_0, # of connection points: 2
#     Edge 43, Type (0, 0), BuildingBlock: AJUNOK_clean_linker_0, # of connection points: 2
#     Edge 44, Type (0, 0), BuildingBlock: AJUNOK_clean_linker_0, # of connection points: 2
#     Edge 45, Type (0, 0), BuildingBlock: AJUNOK_clean_linker_0, # of connection points: 2
#     Edge 46, Type (0, 0), BuildingBlock: AJUNOK_clean_linker_0, # of connection points: 2
#     Edge 47, Type (0, 0), BuildingBlock: AJUNOK_clean_linker_0, # of connection points: 2
#     Edge 48, Type (0, 0), BuildingBlock: AJUNOK_clean_linker_0, # of connection points: 2
#     Edge 49, Type (0, 0), BuildingBlock: AJUNOK_clean_linker_0, # of connection points: 2
#     Edge 50, Type (0, 0), BuildingBlock: AJUNOK_clean_linker_0, # of connection points: 2
#     Edge 51, Type (0, 0), BuildingBlock: AJUNOK_clean_linker_0, # of connection points: 2
#     Edge 52, Type (0, 0), BuildingBlock: AJUNOK_clean_linker_0, # of connection points: 2
#     Edge 53, Type (0, 0), BuildingBlock: AJUNOK_clean_linker_0, # of connection points: 2
#     Edge 54, Type (0, 0), BuildingBlock: AJUNOK_clean_linker_0, # of connection points: 2
#     Edge 55, Type (0, 0), BuildingBlock: AJUNOK_clean_linker_0, # of connection points: 2
#     Edge 56, Type (0, 0), BuildingBlock: AJUNOK_clean_linker_0, # of connection points: 2
#     Edge 57, Type (0, 0), BuildingBlock: AJUNOK_clean_linker_0, # of connection points: 2
#     Edge 58, Type (0, 0), BuildingBlock: AJUNOK_clean_linker_0, # of connection points: 2
#     Edge 59, Type (0, 0), BuildingBlock: AJUNOK_clean_linker_0, # of connection points: 2
#     Edge 60, Type (0, 0), BuildingBlock: AJUNOK_clean_linker_0, # of connection points: 2
#     Edge 61, Type (0, 0), BuildingBlock: AJUNOK_clean_linker_0, # of connection points: 2
#     Edge 62, Type (0, 0), BuildingBlock: AJUNOK_clean_linker_0, # of connection points: 2
#     Edge 63, Type (0, 0), BuildingBlock: AJUNOK_clean_linker_0, # of connection points: 2
#     Edge 64, Type (0, 0), BuildingBlock: AJUNOK_clean_linker_0, # of connection points: 2
#     Edge 65, Type (0, 0), BuildingBlock: AJUNOK_clean_linker_0, # of connection points: 2
#     Edge 66, Type (0, 0), BuildingBlock: AJUNOK_clean_linker_0, # of connection points: 2
#     Edge 67, Type (0, 0), BuildingBlock: AJUNOK_clean_linker_0, # of connection points: 2
#     Edge 68, Type (0, 0), BuildingBlock: AJUNOK_clean_linker_0, # of connection points: 2
#     Edge 69, Type (0, 0), BuildingBlock: AJUNOK_clean_linker_0, # of connection points: 2
#     Edge 70, Type (0, 0), BuildingBlock: AJUNOK_clean_linker_0, # of connection points: 2
#     Edge 71, Type (0, 0), BuildingBlock: AJUNOK_clean_linker_0, # of connection points: 2
#     Edge 72, Type (0, 0), BuildingBlock: AJUNOK_clean_linker_0, # of connection points: 2
#     Edge 73, Type (0, 0), BuildingBlock: AJUNOK_clean_linker_0, # of connection points: 2
#     Edge 74, Type (0, 0), BuildingBlock: AJUNOK_clean_linker_0, # of connection points: 2
#     Edge 75, Type (0, 0), BuildingBlock: AJUNOK_clean_linker_0, # of connection points: 2
#     Edge 76, Type (0, 0), BuildingBlock: AJUNOK_clean_linker_0, # of connection points: 2
#     Edge 77, Type (0, 0), BuildingBlock: AJUNOK_clean_linker_0, # of connection points: 2
#     Edge 78, Type (0, 0), BuildingBlock: AJUNOK_clean_linker_0, # of connection points: 2
#     Edge 79, Type (0, 0), BuildingBlock: AJUNOK_clean_linker_0, # of connection points: 2
#     Edge 80, Type (0, 0), BuildingBlock: AJUNOK_clean_linker_0, # of connection points: 2
#     Edge 81, Type (0, 0), BuildingBlock: AJUNOK_clean_linker_0, # of connection points: 2
#     Edge 82, Type (0, 0), BuildingBlock: AJUNOK_clean_linker_0, # of connection points: 2
#     Edge 83, Type (0, 0), BuildingBlock: AJUNOK_clean_linker_0, # of connection points: 2
#     Edge 84, Type (0, 0), BuildingBlock: AJUNOK_clean_linker_0, # of connection points: 2
#     Edge 85, Type (0, 0), BuildingBlock: AJUNOK_clean_linker_0, # of connection points: 2
#     Edge 86, Type (0, 0), BuildingBlock: AJUNOK_clean_linker_0, # of connection points: 2
#     Edge 87, Type (0, 0), BuildingBlock: AJUNOK_clean_linker_0, # of connection points: 2
#     Edge 88, Type (0, 0), BuildingBlock: AJUNOK_clean_linker_0, # of connection points: 2
#     Edge 89, Type (0, 0), BuildingBlock: AJUNOK_clean_linker_0, # of connection points: 2
#     Edge 90, Type (0, 0), BuildingBlock: AJUNOK_clean_linker_0, # of connection points: 2
#     Edge 91, Type (0, 0), BuildingBlock: AJUNOK_clean_linker_0, # of connection points: 2
#     Edge 92, Type (0, 0), BuildingBlock: AJUNOK_clean_linker_0, # of connection points: 2
#     Edge 93, Type (0, 0), BuildingBlock: AJUNOK_clean_linker_0, # of connection points: 2
#     Edge 94, Type (0, 0), BuildingBlock: AJUNOK_clean_linker_0, # of connection points: 2
#     Edge 95, Type (0, 0), BuildingBlock: AJUNOK_clean_linker_0, # of connection points: 2
#     Edge 96, Type (0, 0), BuildingBlock: AJUNOK_clean_linker_0, # of connection points: 2
#     Edge 97, Type (0, 0), BuildingBlock: AJUNOK_clean_linker_0, # of connection points: 2
#     Edge 98, Type (0, 0), BuildingBlock: AJUNOK_clean_linker_0, # of connection points: 2
#     Edge 99, Type (0, 0), BuildingBlock: AJUNOK_clean_linker_0, # of connection points: 2
#     Edge 100, Type (0, 0), BuildingBlock: AJUNOK_clean_linker_0, # of connection points: 2
#     Edge 101, Type (0, 0), BuildingBlock: AJUNOK_clean_linker_0, # of connection points: 2
#     Edge 102, Type (0, 0), BuildingBlock: AJUNOK_clean_linker_0, # of connection points: 2
#     Edge 103, Type (0, 0), BuildingBlock: AJUNOK_clean_linker_0, # of connection points: 2
#     Edge 104, Type (0, 0), BuildingBlock: AJUNOK_clean_linker_0, # of connection points: 2
#     Edge 105, Type (0, 0), BuildingBlock: AJUNOK_clean_linker_0, # of connection points: 2
#     Edge 106, Type (0, 0), BuildingBlock: AJUNOK_clean_linker_0, # of connection points: 2
#     Edge 107, Type (0, 0), BuildingBlock: AJUNOK_clean_linker_0, # of connection points: 2
# Relax obj value: 0.150
# Max RMSD: 0.177
# Mean RMSD: 0.158
data_MOF--net-uma--node1-KOZSID_clean_sbu_0--edge1-AJUNOK_clean_linker_0
_symmetry_space_group_name_H-M    P1
_symmetry_Int_Tables_number       1
_symmetry_cell_setting            triclinic
loop_
_symmetry_equiv_pos_as_xyz
'x, y, z'
_cell_length_a     80.770752
_cell_length_b     84.687004
_cell_length_c     33.320423
_cell_angle_alpha  87.281659
_cell_angle_beta   89.978883
_cell_angle_gamma 118.55987
loop_
_atom_site_label
_atom_site_type_symbol
_atom_site_fract_x
_atom_site_fract_y
_atom_site_fract_z
_atom_type_partial_charge
C0 C 0.09734 0.38024 0.10683 0.0
C1 C 0.08845 0.36809 0.13924 0.0
C2 C 0.08779 0.35216 0.13027 0.0
C3 C 0.09575 0.35507 0.09242 0.0
N4 N 0.10134 0.37189 0.07696 0.0
Co5 Co 0.1099 0.38016 0.01991 0.0
N6 N 0.0991 0.35517 1.00107 0.0
C7 C 0.09434 0.34044 0.02542 0.0
C8 C 0.08762 0.32493 1.00496 0.0
C9 C 0.08836 0.33024 0.96514 0.0
C10 C 0.09545 0.34877 0.96333 0.0
N11 N 0.11837 0.38846 0.96293 0.0
C12 C 0.11336 0.37948 0.92807 0.0
C13 C 0.1231 0.39108 0.89545 0.0
C14 C 0.13475 0.40756 0.91037 0.0
C15 C 0.1315 0.4053 0.95126 0.0
N16 N 0.12016 0.40499 0.03896 0.0
C17 C 0.13325 0.4199 0.01882 0.0
C18 C 0.13742 0.4353 0.03822 0.0
C19 C 0.1262 0.42968 0.07261 0.0
C20 C 0.11561 0.4111 0.0724 0.0
N21 N 0.13413 0.38036 0.03058 0.0
C22 C 0.16938 0.38142 0.04427 0.0
C23 C 0.1623 0.38982 0.06956 0.0
C24 C 0.1446 0.38876 0.06283 0.0
C25 C 0.15821 0.37265 1.01169 0.0
C26 C 0.141 0.37254 1.00505 0.0
N27 N 0.08633 0.38025 1.00951 0.0
C28 C 0.06996 0.39677 0.99063 0.0
C29 C 0.05355 0.38312 1.00918 0.0
C30 C 0.05345 0.36752 0.0253 0.0
C31 C 0.06994 0.36628 0.02482 0.0
C32 C 0.08633 0.39507 0.99122 0.0
H33 H 0.06959 0.35432 0.03829 0.0
H34 H 0.0991 0.40603 0.97821 0.0
H35 H 0.13951 0.39498 0.08355 0.0
H36 H 0.13329 0.36609 0.97899 0.0
C37 C 0.09352 0.3414 0.06721 0.0
C38 C 0.10231 0.39966 0.10571 0.0
C39 C 0.1004 0.35986 0.92503 0.0
C40 C 0.13818 0.41905 0.97874 0.0
H41 H 0.08237 0.37013 0.16607 0.0
H42 H 0.08082 0.33952 0.1479 0.0
H43 H 0.0823 0.31131 0.01755 0.0
H44 H 0.08444 0.32151 0.94022 0.0
H45 H 0.12199 0.38796 0.86413 0.0
H46 H 0.14402 0.41987 0.89322 0.0
H47 H 0.14679 0.44906 0.02771 0.0
H48 H 0.12581 0.43829 0.09516 0.0
H49 H 0.17039 0.39751 0.09417 0.0
H50 H 0.16263 0.36575 0.9912 0.0
H51 H 0.07023 0.40872 0.97675 0.0
H52 H 0.04068 0.35639 0.03844 0.0
C53 C 0.62509 0.71554 0.09909 0.0
C54 C 0.63483 0.72291 0.13355 0.0
C55 C 0.65172 0.73733 0.12126 0.0
C56 C 0.65128 0.73839 0.08007 0.0
N57 N 0.63494 0.72579 0.06556 0.0
Co58 Co 0.62866 0.72367 1.00716 0.0
N59 N 0.65554 0.73985 0.98801 0.0
C60 C 0.67018 0.74836 1.01251 0.0
C61 C 0.68724 0.75754 0.99233 0.0
C62 C 0.68331 0.75456 0.95256 0.0
C63 C 0.66393 0.74388 0.95034 0.0
N64 N 0.62223 0.72194 0.94872 0.0
C65 C 0.63326 0.72823 0.91424 0.0
C66 C 0.62219 0.72445 0.88055 0.0
C67 C 0.60378 0.71534 0.89399 0.0
C68 C 0.6045 0.71417 0.93511 0.0
N69 N 0.6022 0.70608 0.02668 0.0
C70 C 0.58727 0.69851 1.00252 0.0
C71 C 0.57193 0.68413 0.02078 0.0
C72 C 0.57747 0.6821 0.05861 0.0
C73 C 0.59589 0.69572 0.06219 0.0
N74 N 0.62376 0.74494 1.00908 0.0
C75 C 0.61754 0.77541 1.00698 0.0
C76 C 0.6026 0.75798 1.00399 0.0
C77 C 0.60594 0.74308 1.00562 0.0
C78 C 0.63551 0.77725 1.01192 0.0
C79 C 0.63829 0.76214 1.01256 0.0
N80 N 0.63327 0.70307 1.00538 0.0
C81 C 0.62299 0.67248 0.98851 0.0
C82 C 0.63653 0.67182 1.01338 0.0
C83 C 0.64899 0.68725 0.03247 0.0
C84 C 0.64723 0.70271 0.02781 0.0
C85 C 0.62157 0.68826 0.98497 0.0
H86 H 0.65707 0.71419 0.0431 0.0
H87 H 0.61076 0.68817 0.96625 0.0
H88 H 0.59378 0.73025 1.00389 0.0
H89 H 0.65252 0.76503 0.01548 0.0
C90 C 0.66712 0.7479 0.05424 0.0
C91 C 0.60704 0.6983 0.09954 0.0
C92 C 0.65418 0.73813 0.91172 0.0
C93 C 0.58918 0.70343 0.96126 0.0
H94 H 0.63058 0.71787 0.16435 0.0
H95 H 0.66344 0.74526 0.14005 0.0
H96 H 0.70095 0.76545 1.00502 0.0
H97 H 0.6936 0.75971 0.92801 0.0
H98 H 0.62691 0.72778 0.84941 0.0
H99 H 0.59136 0.70965 0.87579 0.0
H100 H 0.55872 0.67527 1.00722 0.0
H101 H 0.56901 0.67115 0.07991 0.0
H102 H 0.58833 0.7558 1.00077 0.0
H103 H 0.64757 0.79047 1.01434 0.0
H104 H 0.61355 0.66091 0.97218 0.0
H105 H 0.66029 0.68749 0.05042 0.0
C106 C 0.29954 0.91579 0.12683 0.0
C107 C 0.29314 0.92002 0.16125 0.0
C108 C 0.27799 0.92222 0.15061 0.0
C109 C 0.27569 0.91899 0.11051 0.0
N110 N 0.28808 0.91426 0.09516 0.0
Co111 Co 0.2901 0.90967 0.037 0.0
N112 N 0.27206 0.91855 0.0186 0.0
C113 C 0.26214 0.92341 0.04317 0.0
C114 C 0.25188 0.93013 0.02291 0.0
C115 C 0.25558 0.92972 0.98301 0.0
C116 C 0.26785 0.92262 0.98086 0.0
N117 N 0.29255 0.90561 0.97871 0.0
C118 C 0.28645 0.91061 0.94442 0.0
C119 C 0.29189 0.90516 0.91054 0.0
C120 C 0.30199 0.89684 0.9236 0.0
C121 C 0.30211 0.89752 0.96466 0.0
N122 N 0.30882 0.90165 0.05547 0.0
C123 C 0.31695 0.89469 0.03151 0.0
C124 C 0.33239 0.8945 0.04804 0.0
C125 C 0.3345 0.90207 0.08425 0.0
C126 C 0.31979 0.90596 0.08905 0.0
N127 N 0.26831 0.88426 0.04471 0.0
C128 C 0.23559 0.84944 0.04651 0.0
C129 C 0.25281 0.85244 0.02964 0.0
C130 C 0.26881 0.86968 0.02934 0.0
C131 C 0.23554 0.86392 0.06489 0.0
C132 C 0.25172 0.88088 0.06361 0.0
N133 N 0.31116 0.93419 0.02942 0.0
C134 C 0.3435 0.95437 1.00938 0.0
C135 C 0.34273 0.96822 0.02882 0.0
C136 C 0.32573 0.96506 0.04671 0.0
C137 C 0.31017 0.94809 0.04643 0.0
C138 C 0.32754 0.93747 1.00999 0.0
H139 H 0.29753 0.94639 0.06053 0.0
H140 H 0.32878 0.92719 0.99506 0.0
H141 H 0.2813 0.87082 0.01599 0.0
H142 H 0.25018 0.89099 0.07792 0.0
C143 C 0.26438 0.92328 0.08501 0.0
C144 C 0.31711 0.91427 0.12543 0.0
C145 C 0.2754 0.92039 0.94221 0.0
C146 C 0.31307 0.89297 0.99041 0.0
H147 H 0.29925 0.92205 0.19068 0.0
H148 H 0.27032 0.92678 0.16933 0.0
H149 H 0.24332 0.93541 0.03566 0.0
H150 H 0.25017 0.93452 0.95834 0.0
H151 H 0.2891 0.90724 0.87952 0.0
H152 H 0.30905 0.89156 0.90518 0.0
H153 H 0.34217 0.89107 0.03364 0.0
H154 H 0.3464 0.90543 0.10335 0.0
H155 H 0.25387 0.84166 0.01568 0.0
H156 H 0.22294 0.86228 0.08018 0.0
H157 H 0.3563 0.95656 0.99397 0.0
H158 H 0.32432 0.97576 0.06026 0.0
C159 C 0.38913 0.09473 0.90274 0.0
C160 C 0.37832 0.09093 0.86861 0.0
C161 C 0.3611 0.08887 0.88009 0.0
C162 C 0.36229 0.09181 0.92039 0.0
N163 N 0.3794 0.09603 0.93507 0.0
Co164 Co 0.38658 0.10131 0.99258 0.0
N165 N 0.35974 0.09186 1.01239 0.0
C166 C 0.34458 0.08591 0.9887 0.0
C167 C 0.32777 0.07902 1.00986 0.0
C168 C 0.33244 0.08032 0.04952 0.0
C169 C 0.35192 0.088 0.05053 0.0
N170 N 0.39377 0.10691 0.05 0.0
C171 C 0.3831 0.10265 0.08485 0.0
C172 C 0.39449 0.10933 0.11766 0.0
C173 C 0.41274 0.11797 0.10325 0.0
C174 C 0.41163 0.11615 0.06249 0.0
N175 N 0.41315 0.10912 0.97299 0.0
C176 C 0.4284 0.11608 0.99647 0.0
C177 C 0.44371 0.1156 0.98015 0.0
C178 C 0.43786 0.10763 0.94443 0.0
C179 C 0.4194 0.10426 0.93966 0.0
N180 N 0.38979 0.12643 0.98283 0.0
C181 C 0.39326 0.16175 0.97741 0.0
C182 C 0.40882 0.15907 0.98516 0.0
C183 C 0.40685 0.14157 0.98718 0.0
C184 C 0.37614 0.14639 0.97099 0.0
C185 C 0.37473 0.12919 0.97383 0.0
N186 N 0.38359 0.0771 1.00235 0.0
C187 C 0.39492 0.05734 0.03006 0.0
C188 C 0.3807 0.04297 1.01106 0.0
C189 C 0.36778 0.04582 0.98828 0.0
C190 C 0.3694 0.06288 0.98454 0.0
C191 C 0.3961 0.07428 0.02536 0.0
H192 H 0.35908 0.06436 0.96708 0.0
H193 H 0.40724 0.08494 0.04038 0.0
H194 H 0.41938 0.14074 0.99294 0.0
H195 H 0.3611 0.11843 0.96904 0.0
C196 C 0.34677 0.08684 0.94665 0.0
C197 C 0.40824 0.09621 0.90324 0.0
C198 C 0.36229 0.09181 0.08856 0.0
C199 C 0.4268 0.11962 0.03662 0.0
H200 H 0.38219 0.08913 0.83875 0.0
H201 H 0.34876 0.08452 0.86176 0.0
H202 H 0.31375 0.07347 0.99789 0.0
H203 H 0.32261 0.0761 0.07488 0.0
H204 H 0.39014 0.10764 0.14897 0.0
H205 H 0.42537 0.12393 0.12077 0.0
H206 H 0.45704 0.11914 0.99418 0.0
H207 H 0.44607 0.10385 0.92542 0.0
H208 H 0.42245 0.17033 0.9909 0.0
H209 H 0.36365 0.14754 0.96406 0.0
H210 H 0.405 0.05549 0.04842 0.0
H211 H 0.3562 0.03482 0.97409 0.0
C212 C 0.93293 0.30368 0.92652 0.0
C213 C 0.94151 0.29918 0.89631 0.0
C214 C 0.94278 0.28435 0.9106 0.0
C215 C 0.93545 0.28076 0.94915 0.0
N216 N 0.92965 0.29246 0.96008 0.0
Co217 Co 0.92183 0.29405 0.01609 0.0
N218 N 0.9333 0.2797 0.04101 0.0
C219 C 0.93817 0.26916 0.02053 0.0
C220 C 0.94506 0.26015 0.04463 0.0
C221 C 0.94426 0.26511 0.08286 0.0
C222 C 0.93693 0.27696 0.08013 0.0
N223 N 0.91411 0.29586 0.07197 0.0
C224 C 0.91911 0.29172 0.10874 0.0
C225 C 0.90944 0.2947 0.13932 0.0
C226 C 0.89781 0.30044 0.12126 0.0
C227 C 0.901 0.30077 0.08065 0.0
N228 N 0.91071 0.30853 0.99075 0.0
C229 C 0.89773 0.31166 1.00861 0.0
C230 C 0.8929 0.32248 0.98485 0.0
C231 C 0.90358 0.32644 0.94997 0.0
C232 C 0.91454 0.31793 0.95426 0.0
N233 N 0.89776 0.27167 1.01143 0.0
C234 C 0.86274 0.24005 1.00813 0.0
C235 C 0.86945 0.25301 0.97581 0.0
C236 C 0.88701 0.26868 0.97798 0.0
C237 C 0.87406 0.24328 0.04176 0.0
C238 C 0.89131 0.25902 0.04286 0.0
N239 N 0.94532 0.31613 0.02093 0.0
C240 C 0.96173 0.34783 0.03185 0.0
C241 C 0.97821 0.34891 0.01586 0.0
C242 C 0.97822 0.33324 1.00447 0.0
C243 C 0.96169 0.31698 1.00754 0.0
C244 C 0.94532 0.33121 0.03408 0.0
H245 H 0.96203 0.30519 0.99793 0.0
H246 H 0.93256 0.33065 0.04538 0.0
H247 H 0.89188 0.27841 0.95272 0.0
H248 H 0.8993 0.26092 0.06964 0.0
C249 C 0.93842 0.26999 0.97841 0.0
C250 C 0.92757 0.31827 0.92215 0.0
C251 C 0.93154 0.28343 0.11586 0.0
C252 C 0.89361 0.30741 0.04999 0.0
H253 H 0.94701 0.30617 0.86746 0.0
H254 H 0.94975 0.27795 0.89576 0.0
H255 H 0.95037 0.25128 0.03544 0.0
H256 H 0.94817 0.26019 0.10982 0.0
H257 H 0.91041 0.29261 0.17133 0.0
H258 H 0.88838 0.30419 0.13608 0.0
H259 H 0.88347 0.32766 0.9927 0.0
H260 H 0.90343 0.33474 0.92442 0.0
H261 H 0.86131 0.25099 0.9489 0.0
H262 H 0.86949 0.23378 0.06758 0.0
H263 H 0.96147 0.3597 0.04187 0.0
H264 H 0.99099 0.33357 0.99327 0.0
C265 C 0.71969 0.62222 0.93007 0.0
C266 C 0.72681 0.63137 0.89317 0.0
C267 C 0.74331 0.64667 0.90039 0.0
C268 C 0.74562 0.64606 0.94118 0.0
N269 N 0.73166 0.6313 0.96004 0.0
Co270 Co 0.73039 0.62572 0.01924 0.0
N271 N 0.74804 0.65113 0.03209 0.0
C272 C 0.75969 0.66383 1.00474 0.0
C273 C 0.77042 0.68021 0.02087 0.0
C274 C 0.76542 0.67764 0.06101 0.0
C275 C 0.75199 0.6597 0.06757 0.0
N276 N 0.72875 0.62013 0.07861 0.0
C277 C 0.73411 0.63102 0.1106 0.0
C278 C 0.73051 0.62078 0.14644 0.0
C279 C 0.72278 0.60311 0.13669 0.0
C280 C 0.72211 0.60341 0.09547 0.0
N281 N 0.71251 0.60043 1.00585 0.0
C282 C 0.70694 0.58607 0.03193 0.0
C283 C 0.69151 0.57112 0.01905 0.0
C284 C 0.68714 0.57635 0.98274 0.0
C285 C 0.7006 0.59412 0.97399 0.0
N286 N 0.75228 0.62123 1.01457 0.0
C287 C 0.78586 0.61863 1.00537 0.0
C288 C 0.78215 0.62545 0.03985 0.0
C289 C 0.76568 0.62696 0.04345 0.0
C290 C 0.77166 0.61217 0.97655 0.0
C291 C 0.75497 0.61341 0.9819 0.0
N292 N 0.70912 0.63021 0.0238 0.0
C293 C 0.6768 0.61991 0.04335 0.0
C294 C 0.67711 0.6344 0.02101 0.0
C295 C 0.69386 0.64711 1.0014 0.0
C296 C 0.70973 0.64481 1.00335 0.0
C297 C 0.69305 0.6181 0.04449 0.0
H298 H 0.72238 0.65463 0.98754 0.0
H299 H 0.69243 0.60667 0.06132 0.0
H300 H 0.76408 0.63315 0.06958 0.0
H301 H 0.74446 0.60844 0.95906 0.0
C302 C 0.75827 0.66041 0.9636 0.0
C303 C 0.7021 0.6045 0.93496 0.0
C304 C 0.74446 0.65106 0.10827 0.0
C305 C 0.71259 0.58843 0.07208 0.0
H306 H 0.72072 0.62747 0.86402 0.0
H307 H 0.75208 0.65736 0.87863 0.0
H308 H 0.78033 0.6927 1.00515 0.0
H309 H 0.77119 0.6878 0.08296 0.0
H310 H 0.73344 0.6256 0.17648 0.0
H311 H 0.71772 0.5914 0.15734 0.0
H312 H 0.68318 0.55847 0.03594 0.0
H313 H 0.67471 0.56816 0.96616 0.0
H314 H 0.79196 0.62979 0.06418 0.0
H315 H 0.77356 0.6066 0.94945 0.0
H316 H 0.6641 0.61 0.05932 0.0
H317 H 0.69473 0.65881 0.98483 0.0
C318 C 0.87193 0.6338 0.95069 0.0
C319 C 0.8668 0.64379 0.92432 0.0
C320 C 0.88318 0.65801 0.90948 0.0
C321 C 0.89727 0.65582 0.92749 0.0
N322 N 0.89094 0.64072 0.95166 0.0
Co323 Co 0.90643 0.63336 0.98709 0.0
N324 N 0.93018 0.65628 0.97282 0.0
C325 C 0.93192 0.6695 0.94595 0.0
C326 C 0.94991 0.68351 0.94153 0.0
C327 C 0.96042 0.67883 0.96643 0.0
C328 C 0.94823 0.66204 0.98444 0.0
N329 N 0.92174 0.62643 0.02443 0.0
C330 C 0.94057 0.635 0.03163 0.0
C331 C 0.94521 0.62503 0.05916 0.0
C332 C 0.92886 0.60965 0.06948 0.0
C333 C 0.91512 0.61102 0.04782 0.0
N334 N 0.88262 0.61024 1.00008 0.0
C335 C 0.8812 0.59575 0.02189 0.0
C336 C 0.86285 0.58268 0.02921 0.0
C337 C 0.85198 0.58946 1.01208 0.0
C338 C 0.86432 0.60633 0.99502 0.0
N339 N 0.91247 0.62205 0.94208 0.0
C340 C 0.92625 0.60848 0.88196 0.0
C341 C 0.92341 0.60152 0.92157 0.0
C342 C 0.91596 0.60791 0.95023 0.0
C343 C 0.92178 0.6223 0.87272 0.0
C344 C 0.9151 0.62893 0.90307 0.0
N345 N 0.90066 0.64436 0.03216 0.0
C346 C 0.8901 0.64159 0.10098 0.0
C347 C 0.89544 0.65983 0.10022 0.0
C348 C 0.90243 0.6701 0.064 0.0
C349 C 0.90474 0.66205 0.03019 0.0
C350 C 0.89281 0.63423 0.06704 0.0
H351 H 0.91032 0.67038 1.00317 0.0
H352 H 0.88909 0.6204 0.07047 0.0
H353 H 0.91363 0.60128 0.97898 0.0
H354 H 0.91237 0.63971 0.89425 0.0
C355 C 0.91633 0.66857 0.92596 0.0
C356 C 0.85834 0.61892 0.97712 0.0
C357 C 0.95466 0.65191 1.01114 0.0
C358 C 0.89654 0.5971 0.04417 0.0
H359 H 0.8527 0.64152 0.91819 0.0
H360 H 0.88461 0.66917 0.88984 0.0
H361 H 0.95481 0.69566 0.92234 0.0
H362 H 0.97544 0.68679 0.97038 0.0
H363 H 0.95908 0.6282 0.06964 0.0
H364 H 0.92734 0.59841 0.08896 0.0
H365 H 0.8579 0.57047 0.04818 0.0
H366 H 0.83677 0.58312 1.01407 0.0
H367 H 0.9272 0.59129 0.93106 0.0
H368 H 0.92351 0.62806 0.8423 0.0
H369 H 0.88509 0.63319 0.12852 0.0
H370 H 0.90676 0.68436 0.06227 0.0
C371 C 0.4141 0.31093 0.93932 0.0
C372 C 0.43354 0.32164 0.93657 0.0
C373 C 0.44051 0.3184 0.97186 0.0
C374 C 0.425 0.30581 0.99384 0.0
N375 N 0.40887 0.30098 0.97431 0.0
Co376 Co 0.38352 0.28273 0.99327 0.0
N377 N 0.39119 0.28604 0.04978 0.0
C378 C 0.40901 0.29307 0.06259 0.0
C379 C 0.40995 0.29327 0.10371 0.0
C380 C 0.39158 0.28573 0.11744 0.0
C381 C 0.38041 0.28133 0.08374 0.0
N382 N 0.35822 0.26416 1.01233 0.0
C383 C 0.35014 0.26095 0.04951 0.0
C384 C 0.33208 0.24638 0.04988 0.0
C385 C 0.32905 0.24026 1.0116 0.0
C386 C 0.34534 0.2514 0.98992 0.0
N387 N 0.37637 0.28014 0.93626 0.0
C388 C 0.36145 0.26604 0.92134 0.0
C389 C 0.35865 0.26952 0.88191 0.0
C390 C 0.37262 0.28681 0.87187 0.0
C391 C 0.38348 0.29298 0.90564 0.0
N392 N 0.39086 0.26354 0.99055 0.0
C393 C 0.39504 0.23232 0.9844 0.0
C394 C 0.40048 0.24547 0.95242 0.0
C395 C 0.39847 0.26102 0.95624 0.0
C396 C 0.38834 0.23577 0.01997 0.0
C397 C 0.38627 0.25119 0.02234 0.0
N398 N 0.37518 0.30106 0.99606 0.0
C399 C 0.35043 0.30873 0.98335 0.0
C400 C 0.36018 0.32485 1.00258 0.0
C401 C 0.37799 0.32904 0.01795 0.0
C402 C 0.38528 0.31696 1.01423 0.0
C403 C 0.35804 0.29716 0.98054 0.0
H404 H 0.39889 0.3203 0.02645 0.0
H405 H 0.34966 0.28476 0.96633 0.0
H406 H 0.40236 0.27064 0.93087 0.0
H407 H 0.38016 0.25263 0.04971 0.0
C408 C 0.42438 0.30146 0.03516 0.0
C409 C 0.40081 0.31057 0.9089 0.0
C410 C 0.35975 0.27077 0.08507 0.0
C411 C 0.34778 0.25262 0.94775 0.0
H412 H 0.44171 0.33111 0.91218 0.0
H413 H 0.45499 0.32525 0.98129 0.0
H414 H 0.42248 0.29859 0.12159 0.0
H415 H 0.38694 0.28334 0.14867 0.0
H416 H 0.32218 0.24075 0.07511 0.0
H417 H 0.3162 0.22948 1.00058 0.0
H418 H 0.3469 0.26116 0.86366 0.0
H419 H 0.37393 0.29398 0.84342 0.0
H420 H 0.40553 0.24349 0.92401 0.0
H421 H 0.38424 0.22635 0.04587 0.0
H422 H 0.33655 0.3047 0.97154 0.0
H423 H 0.38617 0.34147 0.03276 0.0
C424 C 0.71285 0.11527 0.97039 0.0
C425 C 0.69899 0.12051 0.97131 0.0
C426 C 0.69913 0.12643 1.00904 0.0
C427 C 0.71295 0.12438 0.02892 0.0
N428 N 0.72142 0.11757 1.00594 0.0
Co429 Co 0.74159 0.11195 0.02207 0.0
N430 N 0.73476 0.11076 0.07946 0.0
C431 C 0.72499 0.11826 0.09529 0.0
C432 C 0.72288 0.11564 0.13632 0.0
C433 C 0.73203 0.10604 0.14689 0.0
C434 C 0.73921 0.1033 0.11149 0.0
N435 N 0.76182 0.10637 0.03841 0.0
C436 C 0.76406 0.09928 0.07398 0.0
C437 C 0.7804 0.09773 0.07292 0.0
C438 C 0.78869 0.10436 0.03547 0.0
C439 C 0.77698 0.10953 0.01567 0.0
N440 N 0.74834 0.11348 0.96451 0.0
C441 C 0.76493 0.1162 0.94908 0.0
C442 C 0.76477 0.11576 0.9078 0.0
C443 C 0.74699 0.11258 0.89708 0.0
C444 C 0.73732 0.11122 0.93251 0.0
N445 N 0.75951 0.13784 0.02456 0.0
C446 C 0.79076 0.17274 0.01939 0.0
C447 C 0.77706 0.16704 0.9897 0.0
C448 C 0.76149 0.14966 0.99304 0.0
C449 C 0.78763 0.16097 0.05308 0.0
C450 C 0.77199 0.14372 0.05517 0.0
N451 N 0.7243 0.08593 0.01872 0.0
C452 C 0.71872 0.05798 0.99159 0.0
C453 C 0.7016 0.04835 1.01318 0.0
C454 C 0.6956 0.05831 0.03625 0.0
C455 C 0.70706 0.07714 0.03822 0.0
C456 C 0.73002 0.07631 0.99598 0.0
H457 H 0.70216 0.08451 0.05593 0.0
H458 H 0.74354 0.08265 0.98069 0.0
H459 H 0.75163 0.14542 0.96889 0.0
H460 H 0.77059 0.13482 0.08068 0.0
C461 C 0.71556 0.125 0.07044 0.0
C462 C 0.71807 0.1086 0.93555 0.0
C463 C 0.75166 0.09519 0.10975 0.0
C464 C 0.7781 0.1147 0.97448 0.0
H465 H 0.68965 0.11998 0.94755 0.0
H466 H 0.68958 0.13072 0.02115 0.0
H467 H 0.71515 0.11973 0.15608 0.0
H468 H 0.73347 0.10182 0.17726 0.0
H469 H 0.78583 0.09251 0.09675 0.0
H470 H 0.80141 0.10479 0.02372 0.0
H471 H 0.77581 0.11655 0.88804 0.0
H472 H 0.74168 0.11124 0.86692 0.0
H473 H 0.77881 0.17554 0.96299 0.0
H474 H 0.79757 0.16485 0.07723 0.0
H475 H 0.72364 0.05143 0.97126 0.0
H476 H 0.68236 0.05162 0.05317 0.0
C477 C 0.60023 0.90541 0.04236 0.0
C478 C 0.58167 0.90215 0.04048 0.0
C479 C 0.57552 0.896 1.00311 0.0
C480 C 0.59062 0.89604 0.98414 0.0
N481 N 0.60581 0.90179 1.0074 0.0
Co482 Co 0.63095 0.90536 0.99166 0.0
N483 N 0.62578 0.90705 0.93415 0.0
C484 C 0.60861 0.90068 0.91809 0.0
C485 C 0.60938 0.90328 0.87705 0.0
C486 C 0.62819 0.91163 0.8667 0.0
C487 C 0.63788 0.91369 0.90225 0.0
N488 N 0.65609 0.90888 0.97585 0.0
C489 C 0.6657 0.91528 0.94032 0.0
C490 C 0.68286 0.91525 0.94176 0.0
C491 C 0.68373 0.90831 0.97943 0.0
C492 C 0.66715 0.90454 0.99895 0.0
N493 N 0.63563 0.90343 0.04934 0.0
C494 C 0.6485 0.89935 0.06521 0.0
C495 C 0.64885 0.90005 0.10644 0.0
C496 C 0.6354 0.90491 0.11662 0.0
C497 C 0.62764 0.90695 0.08094 0.0
N498 N 0.6209 0.87907 0.98916 0.0
C499 C 0.61408 0.84309 0.99334 0.0
C500 C 0.62301 0.85457 0.95947 0.0
C501 C 0.62629 0.8724 0.95798 0.0
C502 C 0.60758 0.84973 0.024 0.0
C503 C 0.61083 0.86761 0.02101 0.0
N504 N 0.64178 0.93167 0.99491 0.0
C505 C 0.66555 0.95876 0.02287 0.0
C506 C 0.65936 0.96943 1.00116 0.0
C507 C 0.64333 0.96047 0.97753 0.0
C508 C 0.63459 0.94154 0.97525 0.0
C509 C 0.65723 0.94034 0.01804 0.0
H510 H 0.62226 0.93494 0.9572 0.0
H511 H 0.6635 0.93316 0.03339 0.0
H512 H 0.63417 0.88106 0.93244 0.0
H513 H 0.60605 0.87244 0.04553 0.0
C514 C 0.59252 0.89511 0.94272 0.0
C515 C 0.61229 0.91153 0.07736 0.0
C516 C 0.65824 0.92018 0.90424 0.0
C517 C 0.66267 0.89956 0.04014 0.0
H518 H 0.57345 0.90429 0.06303 0.0
H519 H 0.56209 0.89311 0.9904 0.0
H520 H 0.59773 0.89998 0.85712 0.0
H521 H 0.63403 0.91544 0.83637 0.0
H522 H 0.69352 0.91962 0.91803 0.0
H523 H 0.69534 0.90674 0.99146 0.0
H524 H 0.65853 0.89842 0.12648 0.0
H525 H 0.63189 0.90697 0.14659 0.0
H526 H 0.62839 0.85011 0.93516 0.0
H527 H 0.60044 0.84128 0.05056 0.0
H528 H 0.67698 0.96453 0.04362 0.0
H529 H 0.63777 0.96799 0.96045 0.0
C530 C 0.10533 0.699 0.07798 0.0
C531 C 0.10944 0.68514 0.07142 0.0
C532 C 0.11817 0.68879 0.03436 0.0
C533 C 0.11831 0.70424 0.01953 0.0
N534 N 0.11015 0.71047 0.04512 0.0
Co535 Co 0.10337 0.72972 0.03281 0.0
N536 N 0.1052 0.72754 0.97439 0.0
C537 C 0.11466 0.72026 0.95638 0.0
C538 C 0.1138 0.72104 0.91528 0.0
C539 C 0.10326 0.72947 0.90698 0.0
C540 C 0.09822 0.73333 0.94374 0.0
N541 N 0.0967 0.749 0.0206 0.0
C542 C 0.09048 0.75311 0.98602 0.0
C543 C 0.08749 0.76778 0.99033 0.0
C544 C 0.09235 0.77312 0.02886 0.0
C545 C 0.09794 0.7614 0.04598 0.0
N546 N 0.10154 0.73156 0.09132 0.0
C547 C 0.10251 0.74578 0.10963 0.0
C548 C 0.1006 0.74291 0.15074 0.0
C549 C 0.09828 0.72584 0.15844 0.0
C550 C 0.09882 0.7192 0.12148 0.0
N551 N 0.13032 0.74844 0.03215 0.0
C552 C 0.16588 0.7797 0.0365 0.0
C553 C 0.15962 0.76563 0.06647 0.0
C554 C 0.14187 0.75009 0.06364 0.0
C555 C 0.15453 0.77695 1.00298 0.0
C556 C 0.13697 0.76151 1.00153 0.0
N557 N 0.07631 0.71178 0.03322 0.0
C558 C 0.04418 0.70419 0.05035 0.0
C559 C 0.03701 0.68858 0.02857 0.0
C560 C 0.05021 0.68456 1.01033 0.0
C561 C 0.06972 0.69634 1.01281 0.0
C562 C 0.06364 0.71541 0.05249 0.0
H563 H 0.07946 0.69312 0.9977 0.0
H564 H 0.0684 0.72738 0.06901 0.0
H565 H 0.13714 0.7398 0.08778 0.0
H566 H 0.12841 0.7607 0.97617 0.0
C567 C 0.12096 0.70995 0.9789 0.0
C568 C 0.09765 0.70154 0.11587 0.0
C569 C 0.08868 0.74417 0.94823 0.0
C570 C 0.10132 0.75963 0.08697 0.0
H571 H 0.10604 0.67327 0.0905 0.0
H572 H 0.12232 0.68027 0.01869 0.0
H573 H 0.11953 0.71555 0.89396 0.0
H574 H 0.09993 0.73264 0.87722 0.0
H575 H 0.08248 0.77405 0.96792 0.0
H576 H 0.09127 0.78383 0.04304 0.0
H577 H 0.1 0.75175 0.17242 0.0
H578 H 0.09631 0.71903 0.18777 0.0
H579 H 0.16797 0.76692 0.09274 0.0
H580 H 0.15893 0.78698 0.97822 0.0
H581 H 0.03479 0.7081 0.06485 0.0
H582 H 0.04558 0.67244 0.99414 0.0
C583 C 0.23914 0.36185 0.08755 0.0
C584 C 0.22333 0.34883 0.10885 0.0
C585 C 0.22815 0.33655 0.12551 0.0
C586 C 0.24645 0.34246 0.11299 0.0
N587 N 0.25349 0.35776 0.08954 0.0
Co588 Co 0.27849 0.36964 0.06105 0.0
N589 N 0.28132 0.34753 0.06756 0.0
C590 C 0.271 0.3332 0.09286 0.0
C591 C 0.2759 0.31982 0.09098 0.0
C592 C 0.29049 0.32624 0.06332 0.0
C593 C 0.29381 0.34333 0.05004 0.0
N594 N 0.30362 0.38174 0.03292 0.0
C595 C 0.31478 0.37494 0.01999 0.0
C596 C 0.3319 0.38861 1.00464 0.0
C597 C 0.33156 0.40449 1.00876 0.0
C598 C 0.31431 0.39969 0.02635 0.0
N599 N 0.27522 0.39144 0.05424 0.0
C600 C 0.28904 0.40833 0.04572 0.0
C601 C 0.28243 0.42056 0.04197 0.0
C602 C 0.26326 0.4107 0.04848 0.0
C603 C 0.25922 0.39295 0.05573 0.0
N604 N 0.29138 0.37799 0.11196 0.0
C605 C 0.31544 0.39571 0.17428 0.0
C606 C 0.29929 0.39754 0.16724 0.0
C607 C 0.2872 0.38825 0.13632 0.0
C608 C 0.31853 0.38396 0.15148 0.0
C609 C 0.30653 0.37542 0.12053 0.0
N610 N 0.26628 0.36166 1.00989 0.0
C611 C 0.26452 0.3681 0.93942 0.0
C612 C 0.25184 0.35 0.93445 0.0
C613 C 0.24592 0.33794 0.96819 0.0
C614 C 0.25315 0.34409 1.00578 0.0
C615 C 0.27164 0.37363 0.97729 0.0
H616 H 0.24854 0.33453 0.03123 0.0
H617 H 0.28195 0.38752 0.97985 0.0
H618 H 0.27499 0.39002 0.13096 0.0
H619 H 0.31039 0.3676 0.10223 0.0
C620 C 0.25545 0.33189 0.11413 0.0
C621 C 0.24029 0.37806 0.06643 0.0
C622 C 0.31067 0.35608 0.02612 0.0
C623 C 0.30705 0.4114 0.03396 0.0
H624 H 0.20955 0.34791 0.11132 0.0
H625 H 0.2189 0.32405 0.14212 0.0
H626 H 0.26948 0.30684 0.10734 0.0
H627 H 0.29824 0.31937 0.055 0.0
H628 H 0.34363 0.38729 0.99282 0.0
H629 H 0.34255 0.41791 0.99986 0.0
H630 H 0.29044 0.4348 0.0336 0.0
H631 H 0.25338 0.41594 0.04789 0.0
H632 H 0.29629 0.40635 0.18484 0.0
H633 H 0.33085 0.38218 0.15595 0.0
H634 H 0.26963 0.37775 0.91387 0.0
H635 H 0.23611 0.3238 0.96535 0.0
C636 C 0.76462 0.71528 0.44061 0.0
C637 C 0.75686 0.70359 0.47421 0.0
C638 C 0.75725 0.68799 0.46648 0.0
C639 C 0.76468 0.69057 0.42818 0.0
N640 N 0.76898 0.70689 0.41132 0.0
Co641 Co 0.77613 0.71419 0.35331 0.0
N642 N 0.7663 0.68892 0.33674 0.0
C643 C 0.76283 0.67487 0.36235 0.0
C644 C 0.75649 0.65899 0.34348 0.0
C645 C 0.75611 0.66333 0.30337 0.0
C646 C 0.7622 0.68168 0.29977 0.0
N647 N 0.78318 0.72153 0.29536 0.0
C648 C 0.77805 0.71179 0.26149 0.0
C649 C 0.78695 0.72294 0.22772 0.0
C650 C 0.79811 0.73993 0.24086 0.0
C651 C 0.79547 0.73839 0.28191 0.0
N652 N 0.78535 0.73926 0.37009 0.0
C653 C 0.79748 0.75408 0.34821 0.0
C654 C 0.80092 0.76965 0.36604 0.0
C655 C 0.79021 0.76423 0.40119 0.0
C656 C 0.78061 0.74556 0.40302 0.0
N657 N 0.80123 0.71617 0.36224 0.0
C658 C 0.83811 0.72072 0.37167 0.0
C659 C 0.83053 0.72837 0.39777 0.0
C660 C 0.81208 0.7257 0.393 0.0
C661 C 0.82633 0.71025 0.34153 0.0
C662 C 0.80832 0.70853 0.33676 0.0
N663 N 0.75182 0.71263 0.34466 0.0
C664 C 0.73405 0.72787 0.32774 0.0
C665 C 0.7185 0.71417 0.34871 0.0
C666 C 0.71948 0.6992 0.36534 0.0
C667 C 0.73623 0.69858 0.36253 0.0
C668 C 0.75068 0.7268 0.32596 0.0
H669 H 0.7368 0.6871 0.37625 0.0
H670 H 0.76279 0.73775 0.31086 0.0
H671 H 0.8067 0.73158 0.41397 0.0
H672 H 0.80017 0.70099 0.31218 0.0
C673 C 0.76278 0.67668 0.40401 0.0
C674 C 0.76809 0.73432 0.43767 0.0
C675 C 0.76585 0.69191 0.2604 0.0
C676 C 0.80192 0.75268 0.30805 0.0
H677 H 0.75073 0.70561 0.50097 0.0
H678 H 0.75119 0.67565 0.48524 0.0
H679 H 0.75212 0.64572 0.35732 0.0
H680 H 0.75211 0.65409 0.27941 0.0
H681 H 0.78562 0.71918 0.19684 0.0
H682 H 0.80668 0.75206 0.22244 0.0
H683 H 0.80942 0.78334 0.35399 0.0
H684 H 0.78946 0.773 0.42285 0.0
H685 H 0.8388 0.73655 0.42168 0.0
H686 H 0.83076 0.70315 0.32172 0.0
H687 H 0.73334 0.73924 0.3132 0.0
H688 H 0.70729 0.68796 0.38008 0.0
C689 C 0.30329 0.04967 0.44056 0.0
C690 C 0.31612 0.05441 0.4713 0.0
C691 C 0.3321 0.06958 0.45767 0.0
C692 C 0.32856 0.07316 0.41896 0.0
N693 N 0.31129 0.06115 0.40732 0.0
Co694 Co 0.30233 0.05967 0.35094 0.0
N695 N 0.32827 0.07479 0.32693 0.0
C696 C 0.34342 0.08539 0.34809 0.0
C697 C 0.3596 0.09441 0.32476 0.0
C698 C 0.3543 0.08941 0.28633 0.0
C699 C 0.33504 0.07766 0.28806 0.0
N700 N 0.29328 0.05789 0.29469 0.0
C701 C 0.30274 0.06203 0.25824 0.0
C702 C 0.29032 0.0591 0.22719 0.0
C703 C 0.27276 0.05312 0.24462 0.0
C704 C 0.27527 0.05274 0.28538 0.0
N705 N 0.27662 0.04442 0.37532 0.0
C706 C 0.26055 0.041 0.35688 0.0
C707 C 0.24479 0.02967 0.37993 0.0
C708 C 0.2514 0.02569 0.41494 0.0
C709 C 0.27092 0.0347 0.41148 0.0
N710 N 0.29982 0.0816 0.35595 0.0
C711 C 0.29597 0.11296 0.36014 0.0
C712 C 0.30413 0.10994 0.32628 0.0
C713 C 0.30588 0.09436 0.32475 0.0
C714 C 0.28976 0.09982 0.39215 0.0
C715 C 0.29186 0.08428 0.3895 0.0
N716 N 0.30463 0.03814 0.34559 0.0
C717 C 0.29087 0.00702 0.33012 0.0
C718 C 0.30659 1.00637 0.34552 0.0
C719 C 0.32153 0.02193 0.35962 0.0
C720 C 0.32033 0.03771 0.3591 0.0
C721 C 0.29014 0.02312 0.33059 0.0
H722 H 0.33198 0.04948 0.3703 0.0
H723 H 0.27774 0.02333 0.31945 0.0
H724 H 0.31213 0.09269 0.29789 0.0
H725 H 0.28705 0.07443 0.41454 0.0
C726 C 0.34244 0.08429 0.39021 0.0
C727 C 0.2835 0.0346 0.44416 0.0
C728 C 0.32356 0.07072 0.25184 0.0
C729 C 0.26096 0.04558 0.31556 0.0
H730 H 0.31457 0.04738 0.5001 0.0
H731 H 0.34532 0.07625 0.47303 0.0
H732 H 0.37371 0.10312 0.33466 0.0
H733 H 0.36361 0.09403 0.26007 0.0
H734 H 0.29369 0.06142 0.1953 0.0
H735 H 0.25966 0.04923 0.22929 0.0
H736 H 0.23021 0.02419 0.37152 0.0
H737 H 0.24284 0.01706 0.44006 0.0
H738 H 0.30899 0.11954 0.30062 0.0
H739 H 0.2836 0.10163 0.41924 0.0
H740 H 0.27928 0.99521 0.31832 0.0
H741 H 0.33414 0.02191 0.37069 0.0
C742 C 0.96496 0.25087 0.4624 0.0
C743 C 0.95688 0.25288 0.49722 0.0
C744 C 0.94035 0.25273 0.48648 0.0
C745 C 0.93898 0.25036 0.44584 0.0
N746 N 0.95353 0.24886 0.4306 0.0
Co747 Co 0.9566 0.24522 0.37317 0.0
N748 N 0.93969 0.25492 0.35398 0.0
C749 C 0.92717 0.25653 0.37777 0.0
C750 C 0.91721 0.26355 0.35724 0.0
C751 C 0.9237 0.26631 0.31802 0.0
C752 C 0.93722 0.26066 0.31644 0.0
N753 N 0.95994 0.24171 0.31557 0.0
C754 C 0.95589 0.24839 0.28094 0.0
C755 C 0.96019 0.24165 0.24768 0.0
C756 C 0.96703 0.23044 0.26193 0.0
C757 C 0.9665 0.23083 0.30308 0.0
N758 N 0.97379 0.23596 0.39292 0.0
C759 C 0.97927 0.22616 0.37134 0.0
C760 C 0.99354 0.22419 0.38916 0.0
C761 C 0.99727 0.23332 0.42387 0.0
C762 C 0.98475 0.24016 0.42636 0.0
N763 N 0.93454 0.22071 0.37828 0.0
C764 C 0.90159 0.18657 0.38552 0.0
C765 C 0.91505 0.19245 0.41594 0.0
C766 C 0.93141 0.20944 0.41164 0.0
C767 C 0.90537 0.1982 0.35129 0.0
C768 C 0.92166 0.21501 0.34834 0.0
N769 N 0.97809 0.26914 0.36803 0.0
C770 C 0.01045 0.28872 0.34827 0.0
C771 C 0.00977 0.30286 0.36671 0.0
C772 C 0.9929 0.29995 0.38512 0.0
C773 C 0.97719 0.28302 0.38518 0.0
C774 C 0.99443 0.27189 0.34947 0.0
H775 H 0.96432 0.28112 0.39933 0.0
H776 H 0.99533 0.26108 0.33567 0.0
H777 H 0.94138 0.21361 0.43562 0.0
H778 H 0.92365 0.22347 0.32168 0.0
C779 C 0.92706 0.25357 0.41979 0.0
C780 C 0.98305 0.25016 0.46087 0.0
C781 C 0.94617 0.2595 0.27842 0.0
C782 C 0.97481 0.22375 0.33049 0.0
H783 H 0.96248 0.25456 0.52714 0.0
H784 H 0.93105 0.25512 0.50566 0.0
H785 H 0.90682 0.26675 0.36947 0.0
H786 H 0.91882 0.27164 0.29335 0.0
H787 H 0.95831 0.24433 0.2164 0.0
H788 H 0.97229 0.2233 0.24428 0.0
H789 H 1.00156 0.21831 0.37658 0.0
H790 H 1.00865 0.23532 0.44344 0.0
H791 H 0.9128 0.18424 0.44336 0.0
H792 H 0.89574 0.19438 0.32658 0.0
H793 H 0.0232 0.2907 0.333 0.0
H794 H 0.99171 0.31081 0.39838 0.0
C795 C 0.05532 0.42676 0.23767 0.0
C796 C 0.04278 0.41943 0.20679 0.0
C797 C 0.02603 0.41817 0.21901 0.0
C798 C 0.02891 0.42442 0.25692 0.0
N799 N 0.04671 0.43006 0.26939 0.0
Co800 Co 0.0553 0.43627 0.32611 0.0
N801 N 0.02901 0.42779 0.34819 0.0
C802 C 0.0135 0.42281 0.32593 0.0
C803 C 0.99726 0.41713 0.34854 0.0
C804 C 1.00267 0.41839 0.38766 0.0
C805 C 0.022 0.42471 0.38687 0.0
N806 N 0.06382 0.44173 0.38298 0.0
C807 C 0.05379 0.43741 0.41872 0.0
C808 C 0.06578 0.44297 0.45091 0.0
C809 C 0.08381 0.4509 0.43524 0.0
C810 C 0.08197 0.44974 0.3944 0.0
N811 N 0.08141 0.44422 0.30398 0.0
C812 C 0.09748 0.45272 0.32452 0.0
C813 C 0.11326 0.45582 0.30269 0.0
C814 C 0.10682 0.44834 0.26659 0.0
C815 C 0.08733 0.44075 0.26845 0.0
N816 N 0.05859 0.46147 0.31659 0.0
C817 C 0.06107 0.49638 0.31354 0.0
C818 C 0.07539 0.49342 0.32967 0.0
C819 C 0.07392 0.4762 0.33075 0.0
C820 C 0.04605 0.48174 0.29653 0.0
C821 C 0.04515 0.46467 0.29819 0.0
N822 N 0.05219 0.41198 0.33572 0.0
C823 C 0.06457 0.39221 0.35758 0.0
C824 C 0.04848 0.37755 0.34434 0.0
C825 C 0.03418 0.38023 0.32744 0.0
C826 C 0.03623 0.39745 0.32375 0.0
C827 C 0.06617 0.40934 0.35282 0.0
H828 H 0.02481 0.39878 0.31105 0.0
H829 H 0.07881 0.42026 0.36296 0.0
H830 H 0.0854 0.47529 0.34371 0.0
H831 H 0.03325 0.45432 0.28475 0.0
C832 C 0.01437 0.42144 0.2843 0.0
C833 C 0.07501 0.42964 0.23644 0.0
C834 C 0.03297 0.42765 0.42379 0.0
C835 C 0.0968 0.45454 0.36617 0.0
H836 H 0.04492 0.41445 0.17912 0.0
H837 H 0.01284 0.4119 0.20345 0.0
H838 H 0.98304 0.41202 0.3379 0.0
H839 H 0.9934 0.4148 0.41385 0.0
H840 H 0.06191 0.44114 0.48254 0.0
H841 H 0.09674 0.4563 0.45182 0.0
H842 H 0.12763 0.46175 0.31276 0.0
H843 H 0.11543 0.44781 0.24235 0.0
H844 H 0.08778 0.50439 0.34174 0.0
H845 H 0.03469 0.48327 0.28292 0.0
H846 H 0.07576 0.39046 0.37143 0.0
H847 H 0.02127 0.36899 0.31786 0.0
C848 C 0.58762 0.63272 0.25267 0.0
C849 C 0.59427 0.62742 0.22034 0.0
C850 C 0.60279 0.61801 0.23594 0.0
C851 C 0.60043 0.61759 0.27679 0.0
N852 N 0.59042 0.62564 0.28837 0.0
Co853 Co 0.58302 0.62643 0.34583 0.0
N854 N 0.59495 0.61174 0.36849 0.0
C855 C 0.60507 0.6062 0.34666 0.0
C856 C 0.61147 0.59622 0.36868 0.0
C857 C 0.60525 0.59545 0.40722 0.0
C858 C 0.59542 0.60512 0.40678 0.0
N859 N 0.57614 0.6275 0.40351 0.0
C860 C 0.57862 0.62 0.4391 0.0
C861 C 0.57252 0.62568 0.4716 0.0
C862 C 0.56614 0.63703 0.45641 0.0
C863 C 0.56873 0.6378 0.41552 0.0
N864 N 0.57098 0.641 0.32258 0.0
C865 C 0.56374 0.64908 0.34531 0.0
C866 C 0.55818 0.65975 0.32345 0.0
C867 C 0.5626 0.6589 0.28429 0.0
C868 C 0.57052 0.64752 0.28387 0.0
N869 N 0.55885 0.60395 0.34092 0.0
C870 C 0.52471 0.57108 0.34065 0.0
C871 C 0.52537 0.58641 0.35635 0.0
C872 C 0.54242 0.60258 0.3561 0.0
C873 C 0.54141 0.57283 0.32352 0.0
C874 C 0.55821 0.58921 0.32414 0.0
N875 N 0.6068 0.64888 0.35147 0.0
C876 C 0.63578 0.6662 0.38548 0.0
C877 C 0.64081 0.68069 0.35731 0.0
C878 C 0.62783 0.67956 0.32884 0.0
C879 C 0.6116 0.66341 0.3252 0.0
C880 C 0.61851 0.65062 0.38258 0.0
H881 H 0.6036 0.66307 0.30005 0.0
H882 H 0.61507 0.63995 0.405 0.0
H883 H 0.54219 0.61381 0.36907 0.0
H884 H 0.57061 0.58967 0.31146 0.0
C885 C 0.60708 0.60946 0.30508 0.0
C886 C 0.5808 0.64616 0.2477 0.0
C887 C 0.58799 0.60861 0.44413 0.0
C888 C 0.56364 0.64735 0.38729 0.0
H889 H 0.59387 0.63084 0.18877 0.0
H890 H 0.61007 0.61236 0.21944 0.0
H891 H 0.61951 0.59001 0.35788 0.0
H892 H 0.60783 0.58866 0.43283 0.0
H893 H 0.573 0.62227 0.50314 0.0
H894 H 0.56034 0.64395 0.47325 0.0
H895 H 0.55255 0.66802 0.33485 0.0
H896 H 0.56129 0.66692 0.25966 0.0
H897 H 0.51287 0.58583 0.36984 0.0
H898 H 0.54159 0.56157 0.3098 0.0
H899 H 0.64542 0.66651 0.4084 0.0
H900 H 0.63076 0.69067 0.30741 0.0
C901 C 0.38944 0.95775 0.25729 0.0
C902 C 0.39641 0.9668 0.22023 0.0
C903 C 0.41293 0.98212 0.22715 0.0
C904 C 0.41537 0.98162 0.26791 0.0
N905 N 0.40146 0.96689 0.28699 0.0
Co906 Co 0.40013 0.96143 0.3461 0.0
N907 N 0.41744 0.98696 0.35852 0.0
C908 C 0.42896 0.99971 0.33113 0.0
C909 C 0.43919 0.01622 0.34706 0.0
C910 C 0.43399 0.01367 0.38709 0.0
C911 C 0.42095 0.9956 0.39382 0.0
N912 N 0.39878 0.95591 0.40527 0.0
C913 C 0.40406 0.96685 0.43707 0.0
C914 C 0.40102 0.95673 0.47295 0.0
C915 C 0.39361 0.93907 0.46335 0.0
C916 C 0.39262 0.93926 0.42219 0.0
N917 N 0.38232 0.9361 0.33323 0.0
C918 C 0.37701 0.92176 0.35921 0.0
C919 C 0.3617 0.9067 0.34631 0.0
C920 C 0.35719 0.91186 0.31004 0.0
C921 C 0.37042 0.92973 0.30151 0.0
N922 N 0.42201 0.95702 0.34132 0.0
C923 C 0.45449 0.95256 0.33242 0.0
C924 C 0.43874 0.94385 0.30792 0.0
C925 C 0.42289 0.94647 0.31239 0.0
C926 C 0.45309 0.96307 0.36229 0.0
C927 C 0.43681 0.96488 0.3666 0.0
N928 N 0.37868 0.96564 0.35061 0.0
C929 C 0.34623 0.95471 0.36995 0.0
C930 C 0.3459 0.96847 0.3458 0.0
C931 C 0.36249 0.98132 0.32587 0.0
C932 C 0.37876 0.97973 0.32887 0.0
C933 C 0.36283 0.95354 0.37196 0.0
H934 H 0.39128 0.98962 0.31277 0.0
H935 H 0.36265 0.94256 0.38989 0.0
H936 H 0.41135 0.94001 0.29225 0.0
H937 H 0.43641 0.97294 0.39024 0.0
C938 C 0.4278 0.99617 0.2901 0.0
C939 C 0.37183 0.94019 0.26275 0.0
C940 C 0.41346 0.98686 0.43447 0.0
C941 C 0.38299 0.92415 0.39914 0.0
H942 H 0.39014 0.96286 0.19124 0.0
H943 H 0.42156 0.99282 0.20526 0.0
H944 H 0.44887 0.02878 0.33124 0.0
H945 H 0.43937 0.02397 0.40874 0.0
H946 H 0.40399 0.9616 0.50294 0.0
H947 H 0.38891 0.92742 0.4841 0.0
H948 H 0.35361 0.89394 0.36302 0.0
H949 H 0.34493 0.90351 0.29317 0.0
H950 H 0.43846 0.93493 0.28544 0.0
H951 H 0.46466 0.97022 0.38207 0.0
H952 H 0.33376 0.94491 0.38679 0.0
H953 H 0.36297 0.99268 0.30847 0.0
C954 C 0.54298 0.97131 0.29543 0.0
C955 C 0.53931 0.98423 0.27639 0.0
C956 C 0.55623 0.99817 0.26362 0.0
C957 C 0.56931 0.9932 0.27594 0.0
N958 N 0.56182 0.97677 0.29529 0.0
Co959 Co 0.57622 0.96557 0.32245 0.0
N960 N 0.6011 0.98776 0.3105 0.0
C961 C 0.60379 1.00304 0.29017 0.0
C962 C 0.62225 0.01611 0.28662 0.0
C963 C 0.63207 0.00876 0.30563 0.0
C964 C 0.61897 0.99147 0.31953 0.0
N965 N 0.59067 0.95445 0.34986 0.0
C966 C 0.60956 0.96123 0.3552 0.0
C967 C 0.61349 0.94876 0.37539 0.0
C968 C 0.59659 0.9336 0.38303 0.0
C969 C 0.58327 0.93758 0.3671 0.0
N970 N 0.5512 0.94349 0.33469 0.0
C971 C 0.54846 0.9278 0.35318 0.0
C972 C 0.52979 0.91549 0.35966 0.0
C973 C 0.52002 0.92393 0.34524 0.0
C974 C 0.53331 0.941 0.33085 0.0
N975 N 0.57893 0.95583 0.27097 0.0
C976 C 0.58936 0.94279 0.20418 0.0
C977 C 0.58092 0.93183 0.23868 0.0
C978 C 0.57551 0.93837 0.27068 0.0
C979 C 0.59143 0.96023 0.20269 0.0
C980 C 0.58617 0.96646 0.2363 0.0
N981 N 0.57376 0.97497 0.37407 0.0
C982 C 0.5664 0.96951 0.44518 0.0
C983 C 0.57118 0.98743 0.44923 0.0
C984 C 0.57677 0.99906 0.41474 0.0
C985 C 0.57786 0.99254 0.37744 0.0
C986 C 0.56791 0.96369 0.40791 0.0
H987 H 0.5823 1.00187 0.35186 0.0
H988 H 0.56448 0.94998 0.40757 0.0
H989 H 0.56907 0.92903 0.29525 0.0
H990 H 0.58834 0.97993 0.23381 0.0
C991 C 0.58867 1.0047 0.27475 0.0
C992 C 0.52821 0.95454 0.31491 0.0
C993 C 0.62432 0.97917 0.34087 0.0
C994 C 0.56374 0.92581 0.36777 0.0
H995 H 0.52591 0.98407 0.27332 0.0
H996 H 0.55877 0.01089 0.24922 0.0
H997 H 0.6279 0.02941 0.27194 0.0
H998 H 0.64721 0.01543 0.30877 0.0
H999 H 0.6272 0.95043 0.38345 0.0
H1000 H 0.59429 0.9211 0.39821 0.0
H1001 H 0.52398 0.90224 0.37461 0.0
H1002 H 0.50485 0.91833 0.34618 0.0
H1003 H 0.57884 0.9182 0.24173 0.0
H1004 H 0.59709 0.96907 0.17597 0.0
H1005 H 0.56182 0.95999 0.47099 0.0
H1006 H 0.58082 0.01317 0.41668 0.0
C1007 C 0.08004 0.64594 0.28105 0.0
C1008 C 0.09785 0.65969 0.28941 0.0
C1009 C 0.10224 0.65545 0.32668 0.0
C1010 C 0.0867 0.63977 0.33981 0.0
N1011 N 0.07284 0.63395 0.31296 0.0
Co1012 Co 0.04652 0.61482 0.32275 0.0
N1013 N 0.04938 0.61614 0.38155 0.0
C1014 C 0.06577 0.62276 0.40097 0.0
C1015 C 0.06334 0.62126 0.44197 0.0
C1016 C 0.04423 0.61308 0.44867 0.0
C1017 C 0.03605 0.61009 0.41112 0.0
N1018 N 0.02012 0.59594 0.33241 0.0
C1019 C 1.0091 0.59179 0.36604 0.0
C1020 C 0.99131 0.57756 0.35997 0.0
C1021 C 0.99148 0.57256 0.32131 0.0
C1022 C 1.00927 0.58402 0.30585 0.0
N1023 N 0.04422 0.61349 0.26392 0.0
C1024 C 0.03133 0.5995 0.24434 0.0
C1025 C 0.03321 0.60284 0.20331 0.0
C1026 C 0.04814 0.61996 0.19713 0.0
C1027 C 0.05449 0.62618 0.23484 0.0
N1028 N 0.05431 0.59587 0.32397 0.0
C1029 C 0.05997 0.56541 0.32077 0.0
C1030 C 0.0684 0.57988 0.29189 0.0
C1031 C 0.06559 0.59505 0.29429 0.0
C1032 C 0.04911 0.56687 0.35169 0.0
C1033 C 0.04651 0.58204 0.3528 0.0
N1034 N 0.03786 0.6331 0.32145 0.0
C1035 C 0.01658 0.64327 0.29469 0.0
C1036 C 0.0218 0.65644 0.32315 0.0
C1037 C 0.03597 0.65799 0.34993 0.0
C1038 C 0.04414 0.64658 0.34782 0.0
C1039 C 0.02419 0.63154 0.29521 0.0
H1040 H 0.05507 0.64829 0.36854 0.0
H1041 H 0.01852 0.62087 0.27471 0.0
H1042 H 0.07204 0.60586 0.27143 0.0
H1043 H 0.03748 0.58215 0.37642 0.0
C1044 C 0.08284 0.63335 0.38 0.0
C1045 C 0.07043 0.64394 0.24246 0.0
C1046 C 0.01571 0.60018 0.40465 0.0
C1047 C 0.01543 0.58586 0.26549 0.0
H1048 H 0.10661 0.67189 0.27155 0.0
H1049 H 0.11457 0.66373 0.34361 0.0
H1050 H 0.07416 0.62621 0.4643 0.0
H1051 H 0.03718 0.60961 0.4779 0.0
H1052 H 0.97957 0.57133 0.38134 0.0
H1053 H 0.97982 0.56217 0.30599 0.0
H1054 H 0.02411 0.59436 0.18069 0.0
H1055 H 0.0535 0.62717 0.16835 0.0
H1056 H 0.07701 0.57944 0.2675 0.0
H1057 H 0.04201 0.55601 0.37432 0.0
H1058 H 1.00618 0.64156 0.27243 0.0
H1059 H 0.04038 0.66741 0.37347 0.0
C1060 C 0.37357 0.44581 0.31308 0.0
C1061 C 0.3601 0.45148 0.31517 0.0
C1062 C 0.36154 0.45826 0.35241 0.0
C1063 C 0.3757 0.45625 0.37085 0.0
N1064 N 0.38326 0.44876 0.34735 0.0
Co1065 Co 0.4031 0.44234 0.36194 0.0
N1066 N 0.3978 0.44224 0.42006 0.0
C1067 C 0.38828 0.4499 0.43636 0.0
C1068 C 0.38718 0.44811 0.47754 0.0
C1069 C 0.39686 0.439 0.48784 0.0
C1070 C 0.4034 0.43577 0.45217 0.0
N1071 N 0.42329 0.43629 0.37632 0.0
C1072 C 0.42723 0.4309 0.41233 0.0
C1073 C 0.44347 0.42923 0.40937 0.0
C1074 C 0.45004 0.43409 0.37029 0.0
C1075 C 0.43749 0.43842 0.35152 0.0
N1076 N 0.40793 0.44233 0.30378 0.0
C1077 C 0.4236 0.44377 0.28626 0.0
C1078 C 0.42187 0.44195 0.24539 0.0
C1079 C 0.40396 0.43912 0.23711 0.0
C1080 C 0.39582 0.43937 0.27348 0.0
N1081 N 0.42198 0.46809 0.36191 0.0
C1082 C 0.45394 0.5025 0.3554 0.0
C1083 C 0.44035 0.49677 0.32544 0.0
C1084 C 0.42442 0.47958 0.32939 0.0
C1085 C 0.45025 0.4912 0.39007 0.0
C1086 C 0.43439 0.47416 0.39263 0.0
N1087 N 0.38475 0.41653 0.36116 0.0
C1088 C 0.37679 0.38751 0.33627 0.0
C1089 C 0.35845 0.38011 0.35233 0.0
C1090 C 0.35366 0.39122 0.37415 0.0
C1091 C 0.36698 0.40946 0.37793 0.0
C1092 C 0.38965 0.40554 0.34126 0.0
H1093 H 0.36288 0.41789 0.39389 0.0
H1094 H 0.40356 0.41064 0.32817 0.0
H1095 H 0.41454 0.47527 0.30526 0.0
H1096 H 0.43275 0.46563 0.41892 0.0
C1097 C 0.37886 0.45686 0.41212 0.0
C1098 C 0.37697 0.43755 0.2788 0.0
C1099 C 0.41707 0.42903 0.4504 0.0
C1100 C 0.43728 0.44242 0.31008 0.0
H1101 H 0.35 0.45042 0.29274 0.0
H1102 H 0.35242 0.46284 0.36546 0.0
H1103 H 0.38004 0.45269 0.49767 0.0
H1104 H 0.39936 0.43569 0.51822 0.0
H1105 H 0.4501 0.42532 0.43318 0.0
H1106 H 0.46232 0.43418 0.35707 0.0
H1107 H 0.4319 0.44155 0.22448 0.0
H1108 H 0.39754 0.43694 0.20797 0.0
H1109 H 0.44238 0.50516 0.29837 0.0
H1110 H 0.45985 0.49527 0.41484 0.0
H1111 H 0.38124 0.37934 0.32006 0.0
H1112 H 0.33967 0.38594 0.3875 0.0
C1113 C 0.26839 0.23768 0.38751 0.0
C1114 C 0.24907 0.2313 0.38825 0.0
C1115 C 0.24266 0.22332 0.35243 0.0
C1116 C 0.25842 0.22529 0.3321 0.0
N1117 N 0.27419 0.23391 0.35308 0.0
Co1118 Co 0.30001 0.24012 0.33571 0.0
N1119 N 0.29309 0.23856 0.2786 0.0
C1120 C 0.27546 0.22973 0.26469 0.0
C1121 C 0.27503 0.23056 0.2235 0.0
C1122 C 0.29353 0.24034 0.21082 0.0
C1123 C 0.30426 0.24496 0.24517 0.0
N1124 N 0.32585 0.24621 0.31829 0.0
C1125 C 0.33434 0.25187 0.28148 0.0
C1126 C 0.35261 0.25435 0.28233 0.0
C1127 C 0.35538 0.24975 0.32094 0.0
C1128 C 0.33874 0.24479 0.34159 0.0
N1129 N 0.30646 0.24156 0.39312 0.0
C1130 C 0.32125 0.24057 0.409 0.0
C1131 C 0.32265 0.24354 0.44942 0.0
C1132 C 0.30787 0.24661 0.4591 0.0
C1133 C 0.29817 0.24523 0.424 0.0
N1134 N 0.29332 0.21438 0.33852 0.0
C1135 C 0.29076 0.17996 0.34825 0.0
C1136 C 0.28331 0.18635 0.37767 0.0
C1137 C 0.28463 0.20351 0.37213 0.0
C1138 C 0.29843 0.19081 0.31293 0.0
C1139 C 0.29951 0.20779 0.3086 0.0
N1140 N 0.30745 0.26597 0.3335 0.0
C1141 C 0.32915 0.2956 0.35436 0.0
C1142 C 0.31861 0.30288 0.33595 0.0
C1143 C 0.30255 0.29137 0.315 0.0
C1144 C 0.29704 0.27284 0.31462 0.0
C1145 C 0.32356 0.27736 0.35225 0.0
H1146 H 0.2843 0.26406 0.29958 0.0
H1147 H 0.33233 0.27249 0.36642 0.0
H1148 H 0.2794 0.20834 0.39588 0.0
H1149 H 0.30621 0.21591 0.28161 0.0
C1150 C 0.25972 0.22318 0.29097 0.0
C1151 C 0.28096 0.24702 0.41988 0.0
C1152 C 0.32493 0.25356 0.24488 0.0
C1153 C 0.33566 0.24156 0.38353 0.0
H1154 H 0.24062 0.23256 0.41184 0.0
H1155 H 0.22844 0.2178 0.34158 0.0
H1156 H 0.26275 0.2251 0.2049 0.0
H1157 H 0.29854 0.24338 0.17982 0.0
H1158 H 0.36279 0.2588 0.25757 0.0
H1159 H 0.3682 0.25049 0.33275 0.0
H1160 H 0.33384 0.24468 0.46892 0.0
H1161 H 0.30493 0.24984 0.48834 0.0
H1162 H 0.27728 0.17854 0.40557 0.0
H1163 H 0.30406 0.18639 0.28899 0.0
H1164 H 0.34187 0.30406 0.37008 0.0
H1165 H 0.29405 0.29652 0.30013 0.0
C1166 C 0.77038 0.04061 0.43464 0.0
C1167 C 0.7792 0.03033 0.44373 0.0
C1168 C 0.79105 0.03289 0.41156 0.0
C1169 C 0.78885 0.04461 0.3849 0.0
N1170 N 0.77647 0.04957 0.39865 0.0
Co1171 Co 0.76928 0.06638 0.37136 0.0
N1172 N 0.77661 0.0618 0.31839 0.0
C1173 C 0.78836 0.05498 0.31196 0.0
C1174 C 0.79118 0.05371 0.27187 0.0
C1175 C 0.78073 0.06033 0.25199 0.0
C1176 C 0.77211 0.06532 0.28121 0.0
N1177 N 0.76238 0.08352 0.34403 0.0
C1178 C 0.75935 0.08552 0.30463 0.0
C1179 C 0.75523 0.09958 0.29813 0.0
C1180 C 0.75598 0.10664 0.33486 0.0
C1181 C 0.7605 0.09655 0.36172 0.0
N1182 N 0.76183 0.0704 0.42492 0.0
C1183 C 0.75926 0.08434 0.43444 0.0
C1184 C 0.75054 0.08142 0.47158 0.0
C1185 C 0.74746 0.06468 0.48584 0.0
C1186 C 0.75487 0.05836 0.45698 0.0
N1187 N 0.79521 0.08652 0.37693 0.0
C1188 C 0.8305 0.11771 0.38499 0.0
C1189 C 0.82198 0.10491 0.41729 0.0
C1190 C 0.80435 0.08948 0.41269 0.0
C1191 C 0.82115 0.11413 0.34843 0.0
C1192 C 0.8038 0.09858 0.34495 0.0
N1193 N 0.74319 0.04683 0.36572 0.0
C1194 C 0.70985 0.03688 0.37339 0.0
C1195 C 0.70527 0.0197 0.36142 0.0
C1196 C 0.72019 0.01646 0.35063 0.0
C1197 C 0.73909 0.03018 0.35332 0.0
C1198 C 0.72864 0.05011 0.37513 0.0
H1199 H 0.75036 0.02736 0.34558 0.0
H1200 H 0.73132 0.06307 0.38447 0.0
H1201 H 0.79788 0.08014 0.43832 0.0
H1202 H 0.79712 0.09664 0.31632 0.0
C1203 C 0.79437 0.04781 0.34414 0.0
C1204 C 0.75592 0.04135 0.45988 0.0
C1205 C 0.7617 0.07525 0.27269 0.0
C1206 C 0.75963 0.0966 0.40392 0.0
H1207 H 0.77689 0.02156 0.47024 0.0
H1208 H 0.79928 0.02607 0.40707 0.0
H1209 H 0.79951 0.04829 0.25866 0.0
H1210 H 0.77993 0.06174 0.2197 0.0
H1211 H 0.75212 0.1043 0.26985 0.0
H1212 H 0.75289 0.11737 0.34134 0.0
H1213 H 0.74532 0.08963 0.48501 0.0
H1214 H 0.73983 0.0578 0.51331 0.0
H1215 H 0.82857 0.10708 0.44625 0.0
H1216 H 0.82718 0.12342 0.32246 0.0
H1217 H 0.69888 0.04021 0.38098 0.0
H1218 H 0.7173 1.00341 0.34076 0.0
C1219 C 0.9094 0.70574 0.41763 0.0
C1220 C 0.89386 0.69387 0.44146 0.0
C1221 C 0.89669 0.67972 0.45292 0.0
C1222 C 0.91357 0.68357 0.4352 0.0
N1223 N 0.9221 0.69959 0.41415 0.0
Co1224 Co 0.94505 0.70867 0.37793 0.0
N1225 N 0.94717 0.68617 0.38875 0.0
C1226 C 0.9364 0.67238 0.4152 0.0
C1227 C 0.94248 0.65992 0.42105 0.0
C1228 C 0.95825 0.66616 0.3972 0.0
C1229 C 0.96071 0.682 0.37739 0.0
N1230 N 0.96719 0.71719 0.33958 0.0
C1231 C 0.97784 0.70936 0.32955 0.0
C1232 C 0.99119 0.71964 0.29978 0.0
C1233 C 0.98919 0.73461 0.29145 0.0
C1234 C 0.97462 0.73259 0.31611 0.0
N1235 N 0.94358 0.7316 0.36959 0.0
C1236 C 0.956 0.74662 0.34808 0.0
C1237 C 0.95065 0.75978 0.34569 0.0
C1238 C 0.9336 0.75251 0.36583 0.0
C1239 C 0.9294 0.73522 0.37914 0.0
N1240 N 0.96237 0.71943 0.4229 0.0
C1241 C 0.98979 0.73382 0.48213 0.0
C1242 C 0.99279 0.7421 0.44384 0.0
C1243 C 0.97903 0.73492 0.41531 0.0
C1244 C 0.9726 0.71826 0.49082 0.0
C1245 C 0.95909 0.71133 0.46085 0.0
N1246 N 0.92829 0.69831 0.33206 0.0
C1247 C 0.91848 0.70326 0.26644 0.0
C1248 C 0.90992 0.68501 0.26027 0.0
C1249 C 0.9091 0.67315 0.2919 0.0
C1250 C 0.91818 0.68009 0.32784 0.0
C1251 C 0.92763 0.70958 0.30186 0.0
H1252 H 0.91748 0.67061 0.35117 0.0
H1253 H 0.93467 0.72379 0.30271 0.0
H1254 H 0.98249 0.74216 0.38709 0.0
H1255 H 0.94619 0.69944 0.46888 0.0
C1256 C 0.92089 0.67172 0.43481 0.0
C1257 C 0.91095 0.72199 0.39648 0.0
C1258 C 0.97612 0.69252 0.34814 0.0
C1259 C 0.96935 0.74591 0.32221 0.0
H1260 H 0.8813 0.69473 0.44869 0.0
H1261 H 0.88708 0.6676 0.47025 0.0
H1262 H 0.93642 0.64795 0.44104 0.0
H1263 H 0.96706 0.65981 0.39531 0.0
H1264 H 1.0016 0.71682 0.28617 0.0
H1265 H 0.99781 0.74595 0.27094 0.0
H1266 H 0.95741 0.77245 0.32816 0.0
H1267 H 0.92463 0.7587 0.36803 0.0
H1268 H 1.00586 0.75416 0.43562 0.0
H1269 H 0.96949 0.71163 0.52056 0.0
H1270 H 0.91912 0.71283 0.24287 0.0
H1271 H 0.90244 0.65879 0.28817 0.0
C1272 C 0.4354 0.05337 0.76607 0.0
C1273 C 0.43259 0.04348 0.80223 0.0
C1274 C 0.43337 0.02812 0.79376 0.0
C1275 C 0.4368 0.02942 0.75303 0.0
N1276 N 0.43829 0.04467 0.73539 0.0
Co1277 Co 0.44358 0.05144 0.67681 0.0
N1278 N 0.43507 0.02619 0.66177 0.0
C1279 C 0.43343 0.01287 0.68785 0.0
C1280 C 0.42786 0.99688 0.66991 0.0
C1281 C 0.42608 1.00039 0.62993 0.0
C1282 C 0.43066 0.0184 0.62545 0.0
N1283 N 0.44875 0.05818 0.61805 0.0
C1284 C 0.44346 0.04794 0.58503 0.0
C1285 C 0.4507 0.0588 0.55012 0.0
C1286 C 0.46099 0.07618 0.5616 0.0
C1287 C 0.45951 0.07511 0.60283 0.0
N1288 N 0.45163 0.07653 0.69243 0.0
C1289 C 0.46121 0.09132 0.66789 0.0
C1290 C 0.46122 0.10624 0.68232 0.0
C1291 C 0.45113 0.10053 0.71806 0.0
C1292 C 0.44599 0.08245 0.72482 0.0
N1293 N 0.46952 0.05507 0.68278 0.0
C1294 C 0.50572 0.05807 0.69276 0.0
C1295 C 0.49533 0.05102 0.65823 0.0
C1296 C 0.47732 0.04936 0.65418 0.0
C1297 C 0.49772 0.06429 0.72147 0.0
C1298 C 0.47978 0.06284 0.71576 0.0
N1299 N 0.41824 0.048 0.6711 0.0
C1300 C 0.39785 0.06042 0.65337 0.0
C1301 C 0.38334 0.04663 0.67658 0.0
C1302 C 0.38617 0.03289 0.69471 0.0
C1303 C 0.40369 0.03375 0.69129 0.0
C1304 C 0.41528 0.06088 0.65104 0.0
H1305 H 0.40568 0.02323 0.70616 0.0
H1306 H 0.42649 0.07198 0.6342 0.0
H1307 H 0.46967 0.04326 0.62782 0.0
H1308 H 0.47407 0.06772 0.73842 0.0
C1309 C 0.43502 0.01541 0.72937 0.0
C1310 C 0.43629 0.07137 0.76255 0.0
C1311 C 0.43273 0.02793 0.58567 0.0
C1312 C 0.46502 0.08967 0.62759 0.0
H1313 H 0.43019 0.04696 0.8317 0.0
H1314 H 0.43086 0.01696 0.81462 0.0
H1315 H 0.4251 0.98409 0.68426 0.0
H1316 H 0.4223 0.99089 0.60656 0.0
H1317 H 0.44879 0.05463 0.51952 0.0
H1318 H 0.46808 0.08823 0.54205 0.0
H1319 H 0.46631 0.11932 0.66684 0.0
H1320 H 0.44724 0.10867 0.7357 0.0
H1321 H 0.50101 0.04675 0.63415 0.0
H1322 H 0.50508 0.06995 0.74864 0.0
H1323 H 0.39582 0.07088 0.63784 0.0
H1324 H 0.37487 0.02152 0.71133 0.0
C1325 C 0.97324 0.38682 0.77543 0.0
C1326 C 0.9857 0.39209 0.80694 0.0
C1327 C 1.00178 0.40712 0.79317 0.0
C1328 C 0.99862 0.41017 0.75382 0.0
N1329 N 0.98148 0.398 0.74196 0.0
Co1330 Co 0.97277 0.39614 0.68538 0.0
N1331 N 0.99886 0.41077 0.66186 0.0
C1332 C 0.01399 0.42133 0.68312 0.0
C1333 C 0.03031 0.42991 0.66014 0.0
C1334 C 0.02513 0.42471 0.6218 0.0
C1335 C 1.00578 0.41331 0.62321 0.0
N1336 N 0.96395 0.39405 0.62894 0.0
C1337 C 0.97356 0.39803 0.59273 0.0
C1338 C 0.96132 0.39523 0.56136 0.0
C1339 C 0.94373 0.38955 0.57836 0.0
C1340 C 0.94604 0.38919 0.61918 0.0
N1341 N 0.94696 0.38138 0.70937 0.0
C1342 C 0.93101 0.37815 0.69064 0.0
C1343 C 0.91515 0.36708 0.71368 0.0
C1344 C 0.92158 0.36306 0.74894 0.0
C1345 C 0.9411 0.37175 0.74555 0.0
N1346 N 0.97054 0.41826 0.68883 0.0
C1347 C 0.96423 0.44826 0.6887 0.0
C1348 C 0.95904 0.43602 0.72224 0.0
C1349 C 0.96223 0.42106 0.72163 0.0
C1350 C 0.97336 0.44553 0.65617 0.0
C1351 C 0.97643 0.43063 0.65688 0.0
N1352 N 0.97454 0.37425 0.68175 0.0
C1353 C 0.95923 0.34259 0.67086 0.0
C1354 C 0.97402 0.3413 0.68939 0.0
C1355 C 0.98953 0.35687 0.70199 0.0
C1356 C 0.98959 0.37326 0.69754 0.0
C1357 C 0.95974 0.35926 0.66745 0.0
H1358 H 1.00154 0.38503 0.70797 0.0
H1359 H 0.94788 0.3599 0.65438 0.0
H1360 H 0.95762 0.41155 0.74731 0.0
H1361 H 0.98325 0.429 0.6309 0.0
C1362 C 0.01276 0.42081 0.72516 0.0
C1363 C 0.95363 0.37145 0.77816 0.0
C1364 C 0.9944 0.40654 0.58682 0.0
C1365 C 0.93161 0.38249 0.64913 0.0
H1366 H 0.98393 0.38554 0.8364 0.0
H1367 H 0.01482 0.41403 0.80902 0.0
H1368 H 0.04441 0.43853 0.67022 0.0
H1369 H 0.03457 0.42901 0.5958 0.0
H1370 H 0.96484 0.39753 0.52953 0.0
H1371 H 0.93076 0.38591 0.56271 0.0
H1372 H 0.9006 0.36174 0.70511 0.0
H1373 H 0.91291 0.35457 0.77409 0.0
H1374 H 0.95208 0.4377 0.74821 0.0
H1375 H 0.97804 0.45485 0.63003 0.0
H1376 H 0.94734 0.33082 0.6597 0.0
H1377 H 1.0016 0.35638 0.71491 0.0
C1378 C 0.63158 0.58331 0.79465 0.0
C1379 C 0.6258 0.58894 0.82776 0.0
C1380 C 0.61442 0.59571 0.81396 0.0
C1381 C 0.61351 0.59358 0.77336 0.0
N1382 N 0.62313 0.58539 0.76033 0.0
Co1383 Co 0.62454 0.57987 0.70239 0.0
N1384 N 0.60739 0.58971 0.68241 0.0
C1385 C 0.60068 0.59816 0.70539 0.0
C1386 C 0.59009 0.60442 0.68486 0.0
C1387 C 0.5902 0.59992 0.64606 0.0
C1388 C 0.60077 0.59098 0.6449 0.0
N1389 N 0.62616 0.57467 0.64434 0.0
C1390 C 0.61803 0.57719 0.60997 0.0
C1391 C 0.62395 0.57183 0.57664 0.0
C1392 C 0.63644 0.56628 0.58985 0.0
C1393 C 0.63743 0.5684 0.63049 0.0
N1394 N 0.642 0.57034 0.72262 0.0
C1395 C 0.65151 0.56511 0.698 0.0
C1396 C 0.66493 0.56219 0.71676 0.0
C1397 C 0.66433 0.5661 0.75579 0.0
C1398 C 0.65008 0.57074 0.75954 0.0
N1399 N 0.60212 0.55548 0.71165 0.0
C1400 C 0.56905 0.52118 0.71866 0.0
C1401 C 0.58586 0.52338 0.70096 0.0
C1402 C 0.6021 0.54044 0.698 0.0
C1403 C 0.56937 0.53662 0.73318 0.0
C1404 C 0.58586 0.55341 0.72957 0.0
N1405 N 0.64663 0.60392 0.69259 0.0
C1406 C 0.66309 0.63188 0.653 0.0
C1407 C 0.67744 0.63847 0.68101 0.0
C1408 C 0.67672 0.62714 0.71322 0.0
C1409 C 0.66107 0.61034 0.71904 0.0
C1410 C 0.64799 0.61452 0.65909 0.0
H1411 H 0.66086 0.60316 0.74583 0.0
H1412 H 0.63733 0.6101 0.63703 0.0
H1413 H 0.61451 0.54132 0.68409 0.0
H1414 H 0.58511 0.5647 0.74079 0.0
C1415 C 0.60411 0.59945 0.74645 0.0
C1416 C 0.64682 0.57814 0.79713 0.0
C1417 C 0.60568 0.58571 0.6066 0.0
C1418 C 0.64876 0.56473 0.65664 0.0
H1419 H 0.63003 0.58887 0.85855 0.0
H1420 H 0.60793 0.60186 0.83136 0.0
H1421 H 0.58324 0.61158 0.69664 0.0
H1422 H 0.58368 0.60334 0.62122 0.0
H1423 H 0.61995 0.57227 0.54577 0.0
H1424 H 0.64409 0.56146 0.57185 0.0
H1425 H 0.67492 0.55883 0.70306 0.0
H1426 H 0.67449 0.56687 0.7776 0.0
H1427 H 0.58654 0.51195 0.68946 0.0
H1428 H 0.55678 0.53592 0.74641 0.0
H1429 H 0.66308 0.64029 0.62749 0.0
H1430 H 0.68776 0.63153 0.73511 0.0
C1431 C 0.71849 0.76161 0.5651 0.0
C1432 C 0.7063 0.75566 0.53321 0.0
C1433 C 0.69017 0.75615 0.54438 0.0
C1434 C 0.69299 0.76201 0.58273 0.0
N1435 N 0.70996 0.7653 0.59629 0.0
Co1436 Co 0.71795 0.77084 0.65286 0.0
N1437 N 0.69168 0.76114 0.6748 0.0
C1438 C 0.67691 0.7586 0.6522 0.0
C1439 C 0.66045 0.75233 0.67448 0.0
C1440 C 0.6652 0.75105 0.71364 0.0
C1441 C 0.68438 0.75655 0.71331 0.0
N1442 N 0.72613 0.7762 0.70939 0.0
C1443 C 0.71622 0.77053 0.74535 0.0
C1444 C 0.7282 0.77817 0.77688 0.0
C1445 C 0.74587 0.78915 0.76017 0.0
C1446 C 0.74389 0.78763 0.71936 0.0
N1447 N 0.74398 0.78013 0.63063 0.0
C1448 C 0.75965 0.79151 0.64916 0.0
C1449 C 0.77579 0.79536 0.62757 0.0
C1450 C 0.76982 0.78566 0.59362 0.0
C1451 C 0.75029 0.77613 0.59635 0.0
N1452 N 0.71976 0.79496 0.64486 0.0
C1453 C 0.72068 0.82877 0.63467 0.0
C1454 C 0.71334 0.81786 0.66998 0.0
C1455 C 0.71295 0.80119 0.6744 0.0
C1456 C 0.72814 0.82255 0.60484 0.0
C1457 C 0.72747 0.8056 0.61043 0.0
N1458 N 0.71616 0.74734 0.6608 0.0
C1459 C 0.72994 0.72868 0.68071 0.0
C1460 C 0.71452 0.71395 0.66538 0.0
C1461 C 0.69989 0.71605 0.64833 0.0
C1462 C 0.70087 0.73282 0.64678 0.0
C1463 C 0.73055 0.74542 0.67783 0.0
H1464 H 0.68931 0.73406 0.63392 0.0
H1465 H 0.74264 0.7568 0.68918 0.0
H1466 H 0.70694 0.7933 0.70196 0.0
H1467 H 0.73302 0.80101 0.58681 0.0
C1468 C 0.6786 0.7597 0.61001 0.0
C1469 C 0.73818 0.76411 0.56497 0.0
C1470 C 0.69536 0.75919 0.75051 0.0
C1471 C 0.75859 0.79469 0.68997 0.0
H1472 H 0.70821 0.75068 0.50536 0.0
H1473 H 0.67729 0.75124 0.52774 0.0
H1474 H 0.64654 0.74872 0.66353 0.0
H1475 H 0.65571 0.74689 0.73957 0.0
H1476 H 0.72457 0.7762 0.80863 0.0
H1477 H 0.75872 0.79693 0.77606 0.0
H1478 H 0.79022 0.8034 0.63651 0.0
H1479 H 0.77882 0.7854 0.56989 0.0
H1480 H 0.70786 0.82218 0.69438 0.0
H1481 H 0.73407 0.83053 0.57709 0.0
H1482 H 0.74119 0.72721 0.69505 0.0
H1483 H 0.68748 0.70466 0.63746 0.0
C1484 C 0.26098 0.96586 0.59164 0.0
C1485 C 0.26862 0.96079 0.5606 0.0
C1486 C 0.26951 0.9457 0.57447 0.0
C1487 C 0.26276 0.94241 0.61345 0.0
N1488 N 0.25766 0.95451 0.62504 0.0
Co1489 Co 0.24995 0.95587 0.68129 0.0
N1490 N 0.26097 0.94099 0.70544 0.0
C1491 C 0.26546 0.93033 0.6844 0.0
C1492 C 0.27213 0.92098 0.70799 0.0
C1493 C 0.27157 0.92583 0.74646 0.0
C1494 C 0.26461 0.93798 0.74439 0.0
N1495 N 0.24235 0.95744 0.73742 0.0
C1496 C 0.24732 0.95305 0.77398 0.0
C1497 C 0.23784 0.95611 0.80484 0.0
C1498 C 0.22634 0.9621 0.78717 0.0
C1499 C 0.22941 0.96253 0.74648 0.0
N1500 N 0.23931 0.97087 0.65667 0.0
C1501 C 0.22638 0.974 0.67478 0.0
C1502 C 0.22171 0.98504 0.6514 0.0
C1503 C 0.23245 0.98915 0.61655 0.0
C1504 C 0.24335 0.98057 0.6205 0.0
N1505 N 0.22563 0.93381 0.67605 0.0
C1506 C 0.18964 0.90342 0.67328 0.0
C1507 C 0.19703 0.91603 0.64043 0.0
C1508 C 0.21502 0.93118 0.64248 0.0
C1509 C 0.201 0.90603 0.70665 0.0
C1510 C 0.21878 0.92115 0.70742 0.0
N1511 N 0.27361 0.97758 0.68678 0.0
C1512 C 0.29043 0.00901 0.70001 0.0
C1513 C 0.30684 0.00994 0.68404 0.0
C1514 C 0.30659 0.99435 0.67122 0.0
C1515 C 0.28986 0.97828 0.67312 0.0
C1516 C 0.27385 0.99259 0.70105 0.0
H1517 H 0.28995 0.96651 0.66253 0.0
H1518 H 0.26115 0.99215 0.71242 0.0
H1519 H 0.22022 0.94092 0.61724 0.0
H1520 H 0.22681 0.92263 0.73402 0.0
C1521 C 0.26551 0.93131 0.64226 0.0
C1522 C 0.25652 0.98109 0.58833 0.0
C1523 C 0.25955 0.94448 0.78056 0.0
C1524 C 0.22218 0.96949 0.7161 0.0
H1525 H 0.27374 0.96748 0.53137 0.0
H1526 H 0.27577 0.93884 0.55891 0.0
H1527 H 0.27711 0.91193 0.69832 0.0
H1528 H 0.27539 0.92064 0.77313 0.0
H1529 H 0.23886 0.95391 0.8368 0.0
H1530 H 0.21708 0.96598 0.8023 0.0
H1531 H 0.21233 0.99025 0.65949 0.0
H1532 H 0.23238 0.99762 0.59125 0.0
H1533 H 0.18879 0.91445 0.61383 0.0
H1534 H 0.19614 0.89644 0.7323 0.0
H1535 H 0.2904 0.02083 0.71096 0.0
H1536 H 0.3193 0.99462 0.65984 0.0
C1537 C 0.05544 0.29557 0.59148 0.0
C1538 C 0.06178 0.30527 0.55487 0.0
C1539 C 0.07778 0.321 0.56223 0.0
C1540 C 0.0806 0.32005 0.60275 0.0
N1541 N 0.06742 0.30467 0.62121 0.0
Co1542 Co 0.06702 0.29821 0.67957 0.0
N1543 N 0.08313 0.3237 0.69384 0.0
C1544 C 0.09397 0.33721 0.66715 0.0
C1545 C 0.10383 0.35342 0.68461 0.0
C1546 C 0.09913 0.34985 0.72489 0.0
C1547 C 0.08668 0.33156 0.73008 0.0
N1548 N 0.06663 0.2917 0.73802 0.0
C1549 C 0.07163 0.30201 0.77087 0.0
C1550 C 0.06944 0.29143 0.80561 0.0
C1551 C 0.06298 0.27412 0.79416 0.0
C1552 C 0.06162 0.27497 0.75309 0.0
N1553 N 0.05048 0.2729 0.66481 0.0
C1554 C 0.04677 0.25828 0.68873 0.0
C1555 C 0.03286 0.24274 0.67399 0.0
C1556 C 0.02753 0.24788 0.6387 0.0
C1557 C 0.03875 0.26639 0.63289 0.0
N1558 N 0.08989 0.29566 0.67162 0.0
C1559 C 0.12367 0.2939 0.65848 0.0
C1560 C 0.10789 0.28493 0.63423 0.0
C1561 C 0.09136 0.28622 0.64084 0.0
C1562 C 0.12168 0.30326 0.69024 0.0
C1563 C 0.10477 0.30372 0.69661 0.0
N1564 N 0.04461 0.30064 0.68732 0.0
C1565 C 0.01237 0.28806 0.7104 0.0
C1566 C 0.01104 0.30207 0.68961 0.0
C1567 C 0.02691 0.31564 0.66884 0.0
C1568 C 0.04359 0.31474 0.66833 0.0
C1569 C 0.02937 0.28758 0.70882 0.0
H1570 H 0.05557 0.32527 0.6519 0.0
H1571 H 0.03005 0.27647 0.72429 0.0
H1572 H 0.07978 0.27962 0.62087 0.0
H1573 H 0.10394 0.31091 0.72166 0.0
C1574 C 0.09267 0.33449 0.62568 0.0
C1575 C 0.03855 0.27744 0.59644 0.0
C1576 C 0.08008 0.32192 0.77013 0.0
C1577 C 0.05291 0.26024 0.72858 0.0
H1578 H 0.05541 0.30147 0.52591 0.0
H1579 H 0.08581 0.33217 0.54088 0.0
H1580 H 0.11306 0.36638 0.66976 0.0
H1581 H 0.10455 0.35956 0.74788 0.0
H1582 H 0.07241 0.29581 0.836 0.0
H1583 H 0.05919 0.26224 0.81367 0.0
H1584 H 0.02624 0.22941 0.68875 0.0
H1585 H 0.0161 0.23891 0.62066 0.0
H1586 H 0.10811 0.27682 0.61033 0.0
H1587 H 0.13324 0.31053 0.70995 0.0
H1588 H 1.00041 0.27758 0.72738 0.0
H1589 H 0.02649 0.32701 0.6535 0.0
C1590 C 0.21354 0.31677 0.61438 0.0
C1591 C 0.21009 0.32946 0.59358 0.0
C1592 C 0.2271 0.34254 0.57792 0.0
C1593 C 0.24004 0.33735 0.59046 0.0
N1594 N 0.23223 0.32177 0.61296 0.0
Co1595 Co 0.24604 0.3105 0.64079 0.0
N1596 N 0.27041 0.3333 0.63579 0.0
C1597 C 0.27401 0.3477 0.61104 0.0
C1598 C 0.29203 0.36155 0.61368 0.0
C1599 C 0.30045 0.35541 0.64128 0.0
C1600 C 0.28706 0.33803 0.65389 0.0
N1601 N 0.25973 0.29905 0.66859 0.0
C1602 C 0.27753 0.30648 0.68274 0.0
C1603 C 0.28165 0.29322 0.69777 0.0
C1604 C 0.26606 0.27699 0.69209 0.0
C1605 C 0.25328 0.28117 0.67401 0.0
N1606 N 0.22155 0.2879 0.64558 0.0
C1607 C 0.21931 0.27122 0.65266 0.0
C1608 C 0.20065 0.25828 0.65513 0.0
C1609 C 0.19059 0.26745 0.64929 0.0
C1610 C 0.20371 0.28552 0.64369 0.0
N1611 N 0.25169 0.30333 0.58947 0.0
C1612 C 0.25911 0.28624 0.5276 0.0
C1613 C 0.2412 0.28485 0.53224 0.0
C1614 C 0.23779 0.29365 0.5634 0.0
C1615 C 0.27346 0.29735 0.55221 0.0
C1616 C 0.26953 0.30586 0.58255 0.0
N1617 N 0.24078 0.31726 0.69258 0.0
C1618 C 0.23252 0.30922 0.76263 0.0
C1619 C 0.23863 0.32724 0.77046 0.0
C1620 C 0.24468 0.34001 0.73789 0.0
C1621 C 0.24537 0.33468 0.69906 0.0
C1622 C 0.2339 0.30457 0.72379 0.0
H1623 H 0.25044 0.34479 0.67464 0.0
H1624 H 0.23013 0.29076 0.71948 0.0
H1625 H 0.22374 0.29189 0.56769 0.0
H1626 H 0.28088 0.31356 0.60183 0.0
C1627 C 0.25953 0.34857 0.58983 0.0
C1628 C 0.19887 0.29995 0.63433 0.0
C1629 C 0.29164 0.32566 0.67788 0.0
C1630 C 0.23465 0.26888 0.66485 0.0
H1631 H 0.19683 0.32959 0.59068 0.0
H1632 H 0.22985 0.35499 0.56181 0.0
H1633 H 0.29823 0.37465 0.5979 0.0
H1634 H 0.315 0.36269 0.65011 0.0
H1635 H 0.29478 0.2951 0.71037 0.0
H1636 H 0.26425 0.26373 0.70033 0.0
H1637 H 0.19499 0.24401 0.66237 0.0
H1638 H 0.17538 0.26157 0.6493 0.0
H1639 H 0.22982 0.27648 0.51313 0.0
H1640 H 0.28753 0.29892 0.54902 0.0
H1641 H 0.22743 0.29883 0.7867 0.0
H1642 H 0.24976 0.35415 0.74245 0.0
C1643 C 0.73861 0.97628 0.58828 0.0
C1644 C 0.75788 0.98715 0.58212 0.0
C1645 C 0.76629 0.98444 0.61575 0.0
C1646 C 0.7517 0.97201 0.64021 0.0
N1647 N 0.73481 0.9668 0.62377 0.0
Co1648 Co 0.71018 0.94894 0.64695 0.0
N1649 N 0.72013 0.95285 0.70177 0.0
C1650 C 0.73845 0.95994 0.7112 0.0
C1651 C 0.74105 0.96052 0.75192 0.0
C1652 C 0.72328 0.95318 0.76898 0.0
C1653 C 0.71077 0.94851 0.73754 0.0
N1654 N 0.68547 0.93095 0.67012 0.0
C1655 C 0.67895 0.92825 0.70862 0.0
C1656 C 0.66078 0.91387 0.71206 0.0
C1657 C 0.65607 0.90731 0.67434 0.0
C1658 C 0.67154 0.91803 0.64995 0.0
N1659 N 0.7009 0.94536 0.59142 0.0
C1660 C 0.68547 0.93097 0.57899 0.0
C1661 C 0.6814 0.93372 0.54002 0.0
C1662 C 0.69503 0.95086 0.52771 0.0
C1663 C 0.70691 0.95766 0.55979 0.0
N1664 N 0.71708 0.92953 0.64248 0.0
C1665 C 0.72062 0.89819 0.63424 0.0
C1666 C 0.72629 0.91156 0.60285 0.0
C1667 C 0.72437 0.92712 0.60754 0.0
C1668 C 0.71432 0.90148 0.67044 0.0
C1669 C 0.71271 0.91707 0.67397 0.0
N1670 N 0.70229 0.96763 0.65176 0.0
C1671 C 0.67879 0.97692 0.63776 0.0
C1672 C 0.68735 0.9915 0.66253 0.0
C1673 C 0.70424 0.99417 0.68076 0.0
C1674 C 0.71171 0.9824 0.67408 0.0
C1675 C 0.68588 0.96494 0.63429 0.0
H1676 H 0.72474 0.98493 0.68809 0.0
H1677 H 0.67758 0.9532 0.61788 0.0
H1678 H 0.72813 0.93687 0.58245 0.0
H1679 H 0.70712 0.91859 0.70198 0.0
C1680 C 0.75272 0.9681 0.68123 0.0
C1681 C 0.72405 0.97541 0.56083 0.0
C1682 C 0.6902 0.93823 0.74256 0.0
C1683 C 0.67251 0.9183 0.60764 0.0
H1684 H 0.76499 0.99641 0.55664 0.0
H1685 H 0.78111 0.99155 0.62255 0.0
H1686 H 0.75428 0.966 0.76738 0.0
H1687 H 0.71991 0.95114 0.80089 0.0
H1688 H 0.65193 0.90858 0.73897 0.0
H1689 H 0.64274 0.89641 0.66562 0.0
H1690 H 0.66901 0.92504 0.52371 0.0
H1691 H 0.69547 0.95752 0.49904 0.0
H1692 H 0.73141 0.90968 0.5744 0.0
H1693 H 0.71018 0.89178 0.69583 0.0
H1694 H 0.66619 0.97425 0.62157 0.0
H1695 H 0.71145 1.0048 0.7011 0.0
C1696 C 0.04029 0.77817 0.63325 0.0
C1697 C 0.0268 0.78388 0.62909 0.0
C1698 C 0.02714 0.79239 0.66332 0.0
C1699 C 0.04049 0.79118 0.68674 0.0
N1700 N 0.04854 0.78247 0.66917 0.0
Co1701 Co 0.0671 0.7762 0.69318 0.0
N1702 N 0.05942 0.77849 0.74798 0.0
C1703 C 0.0503 0.78761 0.75773 0.0
C1704 C 0.04736 0.78727 0.7984 0.0
C1705 C 0.05531 0.77749 0.81521 0.0
C1706 C 0.06267 0.77239 0.78366 0.0
N1707 N 0.08592 0.77024 0.7172 0.0
C1708 C 0.087 0.76483 0.75549 0.0
C1709 C 0.10261 0.76216 0.75967 0.0
C1710 C 0.1117 0.76643 0.72271 0.0
C1711 C 0.10116 0.77137 0.69798 0.0
N1712 N 0.07452 0.77391 0.63831 0.0
C1713 C 0.09087 0.77475 0.62675 0.0
C1714 C 0.0913 0.77192 0.58651 0.0
C1715 C 0.07413 0.76911 0.57233 0.0
C1716 C 0.06419 0.77035 0.60485 0.0
N1717 N 0.08628 0.80186 0.69044 0.0
C1718 C 0.11736 0.83684 0.68319 0.0
C1719 C 0.11335 0.82622 0.71914 0.0
C1720 C 0.0978 0.80894 0.72221 0.0
C1721 C 0.10505 0.8297 0.6513 0.0
C1722 C 0.08953 0.8123 0.65563 0.0
N1723 N 0.04836 0.75039 0.6953 0.0
C1724 C 0.04149 0.72 0.6835 0.0
C1725 C 0.02249 0.71337 0.69422 0.0
C1726 C 0.01661 0.72572 0.7055 0.0
C1727 C 0.02983 0.74419 0.70623 0.0
C1728 C 0.05404 0.73837 0.68393 0.0
H1729 H 0.02509 0.75347 0.71537 0.0
H1730 H 0.06841 0.74284 0.67457 0.0
H1731 H 0.09557 0.80105 0.74997 0.0
H1732 H 0.0805 0.80706 0.63034 0.0
C1733 C 0.04228 0.79383 0.72796 0.0
C1734 C 0.04537 0.76892 0.60329 0.0
C1735 C 0.07438 0.76359 0.78879 0.0
C1736 C 0.10317 0.77409 0.65585 0.0
H1737 H 0.01725 0.78181 0.60484 0.0
H1738 H 0.01773 0.79756 0.67138 0.0
H1739 H 0.0399 0.79302 0.81393 0.0
H1740 H 0.05595 0.77474 0.84707 0.0
H1741 H 0.10707 0.75778 0.78664 0.0
H1742 H 0.12413 0.76542 0.7146 0.0
H1743 H 0.10228 0.77095 0.56995 0.0
H1744 H 0.06939 0.76631 0.54184 0.0
H1745 H 0.12257 0.83094 0.74443 0.0
H1746 H 0.10748 0.83744 0.62304 0.0
H1747 H 0.04663 0.71098 0.67428 0.0
H1748 H 1.00203 0.72112 0.71422 0.0
C1749 C 0.93795 0.5719 0.72612 0.0
C1750 C 0.91889 0.5662 0.73281 0.0
C1751 C 0.90983 0.55781 0.69911 0.0
C1752 C 0.92381 0.55903 0.67367 0.0
N1753 N 0.94103 0.56761 0.68945 0.0
Co1754 Co 0.96525 0.57345 0.66273 0.0
N1755 N 0.95406 0.57106 0.60904 0.0
C1756 C 0.93553 0.56237 0.60126 0.0
C1757 C 0.93197 0.56246 0.56102 0.0
C1758 C 0.94936 0.57158 0.54228 0.0
C1759 C 0.96259 0.57655 0.57233 0.0
N1760 N 0.98935 0.57874 0.63586 0.0
C1761 C 0.99492 0.58342 0.59682 0.0
C1762 C 0.01288 0.58551 0.59066 0.0
C1763 C 0.01846 0.58162 0.62709 0.0
C1764 C 1.0037 0.57745 0.65349 0.0
N1765 N 0.97619 0.57599 0.71651 0.0
C1766 C 0.99191 0.57515 0.72615 0.0
C1767 C 0.99615 0.57821 0.766 0.0
C1768 C 0.98219 0.58116 0.78202 0.0
C1769 C 0.97026 0.57977 0.75092 0.0
N1770 N 0.95828 0.54767 0.66561 0.0
C1771 C 0.95535 0.51309 0.67399 0.0
C1772 C 0.95057 0.52046 0.70606 0.0
C1773 C 0.95199 0.53764 0.70119 0.0
C1774 C 0.96077 0.52317 0.63714 0.0
C1775 C 0.96196 0.54023 0.6335 0.0
N1776 N 0.97291 0.59941 0.661 0.0
C1777 C 0.99728 0.6294 0.67354 0.0
C1778 C 0.98443 0.63611 0.6724 0.0
C1779 C 0.96564 0.62401 0.66328 0.0
C1780 C 0.96026 0.60581 0.65701 0.0
C1781 C 0.99128 0.61124 0.66857 0.0
H1782 H 0.94574 0.5968 0.65053 0.0
H1783 H 1.00158 0.60675 0.67258 0.0
H1784 H 0.94873 0.54311 0.72677 0.0
H1785 H 0.96679 0.54774 0.60505 0.0
C1786 C 0.92198 0.55642 0.63248 0.0
C1787 C 0.95288 0.58109 0.75479 0.0
C1788 C 0.98292 0.58443 0.56462 0.0
C1789 C 1.00399 0.57526 0.69561 0.0
H1790 H 0.91217 0.56819 0.75872 0.0
H1791 H 0.89504 0.55265 0.69285 0.0
H1792 H 0.91838 0.55687 0.54701 0.0
H1793 H 0.95199 0.5739 0.51013 0.0
H1794 H 0.02101 0.58923 0.56272 0.0
H1795 H 0.03191 0.58233 0.63371 0.0
H1796 H 1.00841 0.57914 0.78113 0.0
H1797 H 0.98097 0.58409 0.81282 0.0
H1798 H 0.9461 0.51313 0.73498 0.0
H1799 H 0.96492 0.51831 0.61159 0.0
H1800 H 0.01204 0.63807 0.67923 0.0
H1801 H 0.95499 0.62829 0.66232 0.0
C1802 C 0.44559 0.37578 0.76998 0.0
C1803 C 0.45472 0.36549 0.77444 0.0
C1804 C 0.46023 0.36389 0.73683 0.0
C1805 C 0.45449 0.37353 0.71175 0.0
N1806 N 0.44606 0.38154 0.73101 0.0
Co1807 Co 0.43785 0.39864 0.70633 0.0
N1808 N 0.44727 0.39728 0.65161 0.0
C1809 C 0.45405 0.38619 0.64125 0.0
C1810 C 0.45955 0.38822 0.6016 0.0
C1811 C 0.45588 0.40128 0.58547 0.0
C1812 C 0.4483 0.40646 0.61638 0.0
N1813 N 0.43021 0.41617 0.68174 0.0
C1814 C 0.43314 0.42395 0.64391 0.0
C1815 C 0.42509 0.43518 0.63967 0.0
C1816 C 0.41663 0.43428 0.67585 0.0
C1817 C 0.41997 0.42259 0.7 0.0
N1818 N 0.42783 0.39925 0.76129 0.0
C1819 C 0.41722 0.40717 0.76937 0.0
C1820 C 0.40929 0.403 0.80728 0.0
C1821 C 0.41477 0.39135 0.82436 0.0
C1822 C 0.42614 0.38927 0.79609 0.0
N1823 N 0.463 0.41945 0.71727 0.0
C1824 C 0.4981 0.45157 0.72251 0.0
C1825 C 0.48121 0.4502 0.73766 0.0
C1826 C 0.46404 0.43419 0.73496 0.0
C1827 C 0.49698 0.43618 0.70577 0.0
C1828 C 0.4795 0.42038 0.70373 0.0
N1829 N 0.41251 0.37849 0.69481 0.0
C1830 C 0.38308 0.35364 0.72064 0.0
C1831 C 0.37326 0.35621 0.68866 0.0
C1832 C 0.38381 0.36879 0.6576 0.0
C1833 C 0.40332 0.3796 0.66113 0.0
C1834 C 0.40262 0.36467 0.72271 0.0
H1835 H 0.41063 0.38946 0.63731 0.0
H1836 H 0.40938 0.36232 0.74781 0.0
H1837 H 0.45156 0.43411 0.74619 0.0
H1838 H 0.47951 0.40913 0.69024 0.0
C1839 C 0.45709 0.37559 0.67025 0.0
C1840 C 0.43319 0.37614 0.80167 0.0
C1841 C 0.44094 0.41908 0.60982 0.0
C1842 C 0.41403 0.41758 0.73995 0.0
H1843 H 0.45604 0.3588 0.8018 0.0
H1844 H 0.46725 0.35631 0.72866 0.0
H1845 H 0.46585 0.38129 0.58643 0.0
H1846 H 0.45832 0.40634 0.55439 0.0
H1847 H 0.42477 0.44272 0.6128 0.0
H1848 H 0.40877 0.44114 0.68346 0.0
H1849 H 0.39981 0.40719 0.82025 0.0
H1850 H 0.40986 0.38446 0.85345 0.0
H1851 H 0.48105 0.46165 0.75038 0.0
H1852 H 0.50956 0.43634 0.69401 0.0
H1853 H 0.37567 0.34347 0.7445 0.0
H1854 H 0.37695 0.37098 0.63164 0.0
C1855 C 0.57839 0.04653 0.74994 0.0
C1856 C 0.56338 0.03643 0.77658 0.0
C1857 C 0.56673 0.02339 0.79427 0.0
C1858 C 0.58353 0.02632 0.77751 0.0
N1859 N 0.59148 0.0408 0.7513 0.0
Co1860 Co 0.61472 0.04865 0.71681 0.0
N1861 N 0.61779 0.0275 0.73677 0.0
C1862 C 0.60765 0.01546 0.76704 0.0
C1863 C 0.61425 1.00376 0.77806 0.0
C1864 C 0.62959 0.0086 0.75346 0.0
C1865 C 0.63129 0.02286 0.72811 0.0
N1866 N 0.63725 0.05583 0.68024 0.0
C1867 C 0.64757 0.04733 0.67315 0.0
C1868 C 0.6607 0.05619 0.64202 0.0
C1869 C 0.65904 0.07103 0.63004 0.0
C1870 C 0.64479 0.07028 0.6538 0.0
N1871 N 0.61206 0.07028 0.69872 0.0
C1872 C 0.62439 0.08444 0.67486 0.0
C1873 C 0.61806 0.09653 0.66504 0.0
C1874 C 0.60052 0.08944 0.68284 0.0
C1875 C 0.59709 0.07338 0.70273 0.0
N1876 N 0.63151 0.06257 0.76038 0.0
C1877 C 0.65923 0.07822 0.81862 0.0
C1878 C 0.66242 0.08532 0.77908 0.0
C1879 C 0.64843 0.07754 0.75093 0.0
C1880 C 0.64133 0.0641 0.82937 0.0
C1881 C 0.62773 0.05658 0.80001 0.0
N1882 N 0.59851 0.03497 0.67306 0.0
C1883 C 0.58981 0.0345 0.6038 0.0
C1884 C 0.57985 0.0158 0.60641 0.0
C1885 C 0.5783 1.00677 0.64365 0.0
C1886 C 0.58747 0.01664 0.6768 0.0
C1887 C 0.59901 0.04372 0.63706 0.0
H1888 H 0.58605 0.00925 0.70478 0.0
H1889 H 0.60714 0.0579 0.6321 0.0
H1890 H 0.65202 0.08363 0.72146 0.0
H1891 H 0.61445 0.04575 0.81004 0.0
C1892 C 0.59175 0.01525 0.78398 0.0
C1893 C 0.57892 0.06058 0.72191 0.0
C1894 C 0.64572 0.03119 0.69579 0.0
C1895 C 0.63881 0.08335 0.65371 0.0
H1896 H 0.55098 0.03794 0.7815 0.0
H1897 H 0.55763 0.01263 0.81555 0.0
H1898 H 0.60864 0.99304 0.80136 0.0
H1899 H 0.63851 1.0023 0.75426 0.0
H1900 H 0.67059 0.05246 0.6294 0.0
H1901 H 0.66734 0.08123 0.60692 0.0
H1902 H 0.62462 0.1082 0.64425 0.0
H1903 H 0.59096 0.09497 0.67947 0.0
H1904 H 0.67592 0.09651 0.76938 0.0
H1905 H 0.63785 0.05874 0.86019 0.0
H1906 H 0.59168 0.04201 0.57538 0.0
H1907 H 0.57063 0.9922 0.64676 0.0
C1908 C 1.00589 0.37127 0.97595 0.0
C1909 C 0.99613 0.36576 1.01328 0.0
C1910 C 0.02559 0.38023 0.97414 0.0
C1911 C 0.03578 0.38382 1.00964 0.0
H1912 H 0.99836 0.36644 0.94845 0.0
H1913 H 0.03268 0.38197 0.94535 0.0
S1914 S 0.01677 0.37714 0.1137 0.0
N1915 N 0.99792 0.36827 0.08562 0.0
N1916 N 0.03511 0.38535 0.08214 0.0
C1917 C 0.02622 0.38135 0.04649 0.0
C1918 C 1.00619 0.3722 0.04836 0.0
C1919 C 0.65524 0.64173 0.98253 0.0
C1920 C 0.66067 0.63743 0.0198 0.0
C1921 C 0.64485 0.65098 0.98055 0.0
C1922 C 0.6397 0.65613 0.01583 0.0
H1923 H 0.66065 0.63951 0.95479 0.0
H1924 H 0.64275 0.65586 0.95136 0.0
S1925 S 0.64621 0.64391 0.12056 0.0
N1926 N 0.65707 0.63589 0.09259 0.0
N1927 N 0.63714 0.65308 0.08875 0.0
C1928 C 0.64262 0.64958 0.05315 0.0
C1929 C 0.65326 0.64023 0.0552 0.0
C1930 C 0.37475 0.01407 0.98398 0.0
C1931 C 0.37776 0.02453 0.01744 0.0
C1932 C 0.36528 0.9953 0.98843 0.0
C1933 C 0.35859 0.98662 0.02645 0.0
H1934 H 0.3781 0.0204 0.9539 0.0
H1935 H 0.36142 0.98768 0.96162 0.0
S1936 S 0.36691 0.00797 0.12413 0.0
N1937 N 0.37633 0.025 0.09026 0.0
N1938 N 0.3588 0.98957 0.09867 0.0
C1939 C 0.36383 0.99691 0.06055 0.0
C1940 C 0.37341 0.01601 0.05603 0.0
C1941 C 1.00356 0.67434 0.05735 0.0
C1942 C 0.01597 0.67718 0.02451 0.0
C1943 C 0.98382 0.66554 0.05337 0.0
C1944 C 0.97552 0.65895 0.01652 0.0
H1945 H 1.00916 0.67929 0.08637 0.0
H1946 H 0.975 0.66436 0.07905 0.0
S1947 S 1.00103 0.66198 0.9215 0.0
N1948 N 0.01796 0.67219 0.9537 0.0
N1949 N 0.98101 0.65505 0.94704 0.0
C1950 C 0.98757 0.66096 0.98392 0.0
C1951 C 1.00769 0.67015 0.98771 0.0
C1952 C 0.34109 0.33918 0.97542 0.0
C1953 C 0.35077 0.33621 1.00777 0.0
C1954 C 0.32889 0.34647 0.98106 0.0
C1955 C 0.32594 0.35115 0.01921 0.0
H1956 H 0.34236 0.33514 0.94571 0.0
H1957 H 0.3211 0.34774 0.95576 0.0
S1958 S 0.3488 0.34762 0.11321 0.0
N1959 N 0.35718 0.3396 0.07902 0.0
N1960 N 0.33466 0.35369 0.08923 0.0
C1961 C 0.33635 0.34934 0.05128 0.0
C1962 C 0.34868 0.34181 0.04565 0.0
C1963 C 0.66076 1.00008 1.005 0.0
C1964 C 0.67009 0.98965 1.00303 0.0
C1965 C 0.67084 0.01892 1.00898 0.0
C1966 C 0.69067 0.02814 1.01162 0.0
H1967 H 0.64553 0.99364 1.0039 0.0
H1968 H 0.66303 0.02633 1.00946 0.0
S1969 S 0.72194 0.00717 1.00834 0.0
N1970 N 0.70064 0.99045 1.00173 0.0
N1971 N 0.71903 0.02489 1.01437 0.0
C1972 C 0.70006 0.01773 1.01054 0.0
C1973 C 0.68996 0.99883 1.00487 0.0
C1974 C 0.69062 0.71116 0.38543 0.0
C1975 C 0.70018 0.71357 0.34858 0.0
C1976 C 0.67095 0.70217 0.38762 0.0
C1977 C 0.66048 0.69522 0.35309 0.0
H1978 H 0.69834 0.71446 0.4131 0.0
H1979 H 0.66397 0.6992 0.41691 0.0
S1980 S 0.67963 0.70138 0.24851 0.0
N1981 N 0.69835 0.7114 0.27638 0.0
N1982 N 0.66136 0.69382 0.28 0.0
C1983 C 0.67006 0.69967 0.31536 0.0
C1984 C 0.69003 0.70913 0.31325 0.0
C1985 C 0.32245 0.97392 0.38131 0.0
C1986 C 0.32922 0.97111 0.34501 0.0
C1987 C 0.31229 0.98339 0.38125 0.0
C1988 C 0.30865 0.99014 0.34493 0.0
H1989 H 0.32691 0.97075 0.40983 0.0
H1990 H 0.30919 0.98725 0.40969 0.0
S1991 S 0.31896 0.98193 0.24213 0.0
N1992 N 0.32814 0.97221 0.27207 0.0
N1993 N 0.30915 0.99034 0.27203 0.0
C1994 C 0.31283 0.98502 0.30855 0.0
C1995 C 0.32316 0.97538 0.30858 0.0
C1996 C 0.0312 0.32944 0.32359 0.0
C1997 C 0.02554 0.32126 0.36238 0.0
C1998 C 0.04091 0.34817 0.3179 0.0
C1999 C 0.04532 0.35909 0.35089 0.0
H2000 H 0.0264 0.32145 0.29741 0.0
H2001 H 0.04342 0.35414 0.28753 0.0
S2002 S 0.03716 0.34398 0.45853 0.0
N2003 N 0.02776 0.32518 0.43429 0.0
N2004 N 0.04608 0.36057 0.42353 0.0
C2005 C 0.04185 0.35105 0.38987 0.0
C2006 C 0.03188 0.332 0.39566 0.0
C2007 C 0.65765 0.9883 0.31755 0.0
C2008 C 0.64481 0.98568 0.34915 0.0
C2009 C 0.67733 0.99818 0.32247 0.0
C2010 C 0.68489 1.00591 0.35911 0.0
H2011 H 0.65241 0.98359 0.28816 0.0
H2012 H 0.68662 1.00077 0.29669 0.0
S2013 S 0.65729 1.00111 0.45233 0.0
N2014 N 0.64109 0.99027 0.41909 0.0
N2015 N 0.67785 0.0086 0.42861 0.0
C2016 C 0.67215 1.00232 0.39158 0.0
C2017 C 0.65219 0.99227 0.38655 0.0
C2018 C 0.98135 0.66815 0.32024 0.0
C2019 C 0.98901 0.68517 0.3364 0.0
C2020 C 0.99204 0.65922 0.3161 0.0
C2021 C 0.01128 0.66716 0.32619 0.0
H2022 H 0.96657 0.66118 0.31289 0.0
H2023 H 0.98472 0.64562 0.30625 0.0
S2024 S 0.03878 0.71306 0.36426 0.0
N2025 N 0.01718 0.71029 0.36037 0.0
N2026 N 0.03794 0.69444 0.34885 0.0
C2027 C 0.01945 0.68484 0.33987 0.0
C2028 C 1.00825 0.69365 0.34552 0.0
C2029 C 0.33759 0.34862 0.381 0.0
C2030 C 0.34499 0.3607 0.34719 0.0
C2031 C 0.32796 0.32988 0.37691 0.0
C2032 C 0.32507 0.32249 0.33884 0.0
H2033 H 0.34025 0.35364 0.41092 0.0
H2034 H 0.32343 0.32104 0.40386 0.0
S2035 S 0.33977 0.34838 0.24072 0.0
N2036 N 0.34744 0.36396 0.27424 0.0
N2037 N 0.3291 0.32883 0.26666 0.0
C2038 C 0.33128 0.33445 0.30475 0.0
C2039 C 0.34131 0.35351 0.3089 0.0
C2040 C 0.33454 0.03287 0.64543 0.0
C2041 C 0.32487 0.02656 0.68269 0.0
C2042 C 0.35422 0.04207 0.64351 0.0
C2043 C 0.36449 0.04507 0.67886 0.0
H2044 H 0.32697 0.02868 0.61773 0.0
H2045 H 0.36129 0.04475 0.61438 0.0
S2046 S 0.34555 0.03585 0.78345 0.0
N2047 N 0.32669 0.02735 0.75536 0.0
N2048 N 0.36387 0.04493 0.75177 0.0
C2049 C 0.35495 0.04148 0.71613 0.0
C2050 C 0.33494 0.03212 0.71806 0.0
C2051 C 0.97741 0.31769 0.656 0.0
C2052 C 0.97483 0.32437 0.69183 0.0
C2053 C 0.98693 0.3076 0.65607 0.0
C2054 C 0.994 0.30406 0.69196 0.0
H2055 H 0.97433 0.32221 0.62737 0.0
H2056 H 0.99083 0.30453 0.62748 0.0
S2057 S 0.98558 0.31409 0.79459 0.0
N2058 N 0.97583 0.32325 0.76467 0.0
N2059 N 0.99401 0.30438 0.76489 0.0
C2060 C 0.98864 0.30806 0.72853 0.0
C2061 C 0.97893 0.31829 0.72842 0.0
C2062 C 0.70998 0.68547 0.63908 0.0
C2063 C 0.71164 0.69567 0.67227 0.0
C2064 C 0.70014 0.66668 0.64278 0.0
C2065 C 0.69153 0.6577 0.67964 0.0
H2066 H 0.71493 0.69206 0.60953 0.0
H2067 H 0.69818 0.65918 0.61613 0.0
S2068 S 0.69336 0.67886 0.77593 0.0
N2069 N 0.70563 0.6959 0.74341 0.0
N2070 N 0.6865 0.66057 0.75058 0.0
C2071 C 0.69446 0.66788 0.71374 0.0
C2072 C 0.70474 0.68694 0.70997 0.0
C2073 C 0.3427 0.33844 0.6534 0.0
C2074 C 0.35217 0.34656 0.68831 0.0
C2075 C 0.323 0.33085 0.65113 0.0
C2076 C 0.31203 0.33123 0.68352 0.0
H2077 H 0.35061 0.33823 0.62737 0.0
H2078 H 0.31634 0.3252 0.62331 0.0
S2079 S 0.32964 0.35074 0.78153 0.0
N2080 N 0.34881 0.35426 0.75621 0.0
N2081 N 0.31184 0.34009 0.75148 0.0
C2082 C 0.32116 0.33889 0.71881 0.0
C2083 C 0.3412 0.34651 0.72133 0.0
C2084 C 0.6577 0.99447 0.66905 0.0
C2085 C 0.67762 1.00263 0.67036 0.0
C2086 C 0.64788 1.00409 0.67503 0.0
C2087 C 0.65721 0.02219 0.68488 0.0
H2088 H 0.64929 0.98029 0.66413 0.0
H2089 H 0.63265 0.99704 0.67333 0.0
S2090 S 0.70894 0.05042 0.69319 0.0
N2091 N 0.70629 0.03073 0.6806 0.0
N2092 N 0.68747 0.04805 0.69673 0.0
C2093 C 0.677 0.03064 0.68709 0.0
C2094 C 0.68722 0.02104 0.67906 0.0
C2095 C 0.01417 0.68182 0.7167 0.0
C2096 C 0.00957 0.69354 0.69402 0.0
C2097 C 1.00499 0.66325 0.71131 0.0
C2098 C 0.99116 0.65546 0.68195 0.0
H2099 H 0.02548 0.68718 0.73791 0.0
H2100 H 1.00935 0.65502 0.72952 0.0
S2101 S 0.97223 0.68014 0.61836 0.0
N2102 N 0.98855 0.69586 0.64497 0.0
N2103 N 0.97209 0.66111 0.6326 0.0
C2104 C 0.98554 0.66692 0.66088 0.0
C2105 C 0.99459 0.68589 0.66735 0.0
C2106 C 0.21633 0.38137 0.02321 0.0
C2107 C 0.22304 0.38044 0.06167 0.0
C2108 C 0.19938 0.38214 0.01801 0.0
C2109 C 0.18813 0.38175 0.05106 0.0
H2110 H 0.2241 0.38121 0.99687 0.0
H2111 H 0.1951 0.38298 0.98756 0.0
S2112 S 0.20052 0.38064 0.15848 0.0
N2113 N 0.2183 0.38098 0.13332 0.0
N2114 N 0.1858 0.38073 0.12425 0.0
C2115 C 0.19512 0.3813 0.08982 0.0
C2116 C 0.21268 0.38107 0.09491 0.0
C2117 C 0.62179 0.80429 0.03473 0.0
C2118 C 0.61479 0.79172 1.00459 0.0
C2119 C 0.62075 0.82045 0.03163 0.0
C2120 C 0.61302 0.82492 0.99786 0.0
H2121 H 0.62833 0.8017 0.06076 0.0
H2122 H 0.62668 0.82982 0.05523 0.0
S2123 S 0.59236 0.79654 0.91099 0.0
N2124 N 0.59938 0.78472 0.94036 0.0
N2125 N 0.59774 0.81513 0.93421 0.0
C2126 C 0.6057 0.81235 0.96783 0.0
C2127 C 0.60648 0.79576 0.97131 0.0
C2128 C 0.20084 0.79839 0.05119 0.0
C2129 C 0.18354 0.7975 0.04033 0.0
C2130 C 0.21758 0.81507 0.05284 0.0
C2131 C 0.21774 0.83165 0.04429 0.0
H2132 H 0.20155 0.78608 0.05777 0.0
H2133 H 0.23048 0.81497 0.06128 0.0
S2134 S 0.17613 0.83687 0.01509 0.0
N2135 N 0.16767 0.81491 0.02207 0.0
N2136 N 0.19885 0.84585 0.02405 0.0
C2137 C 0.20048 0.83089 0.03367 0.0
C2138 C 0.18352 0.81399 0.032 0.0
C2139 C 0.37992 0.19856 0.99749 0.0
C2140 C 0.39512 0.21461 0.9809 0.0
C2141 C 0.37955 0.18181 0.99612 0.0
C2142 C 0.39431 0.18007 0.97787 0.0
H2143 H 0.36801 0.19885 1.01168 0.0
H2144 H 0.36758 0.17012 1.01009 0.0
S2145 S 0.43734 0.21772 0.9288 0.0
N2146 N 0.42546 0.22754 0.94542 0.0
N2147 N 0.42446 0.19606 0.94155 0.0
C2148 C 0.40955 0.19595 0.96067 0.0
C2149 C 0.40998 0.21312 0.96228 0.0
C2150 C 0.84334 0.20647 0.01972 0.0
C2151 C 0.84426 0.22304 1.00757 0.0
C2152 C 0.8261 0.19044 0.02298 0.0
C2153 C 0.80887 0.19015 1.01439 0.0
H2154 H 0.85611 0.20589 0.02701 0.0
H2155 H 0.8263 0.1781 0.0323 0.0
S2156 S 0.80336 0.22993 0.9822 0.0
N2157 N 0.82633 0.23819 0.98715 0.0
N2158 N 0.7939 0.20809 0.99344 0.0
C2159 C 0.80957 0.20658 1.00165 0.0
C2160 C 0.82723 0.22298 0.99821 0.0
C2161 C 0.82245 0.60391 0.97529 0.0
C2162 C 0.83969 0.61802 0.98741 0.0
C2163 C 0.80521 0.6041 0.98145 0.0
C2164 C 0.80443 0.61853 0.99949 0.0
H2165 H 0.82231 0.59282 0.96012 0.0
H2166 H 0.79238 0.5928 0.97189 0.0
S2167 S 0.84611 0.65935 0.03427 0.0
N2168 N 0.85502 0.64686 0.01778 0.0
N2169 N 0.8232 0.64787 0.02732 0.0
C2170 C 0.82177 0.63283 1.01122 0.0
C2171 C 0.83918 0.63242 1.0056 0.0
C2172 C 0.86518 0.72396 0.41557 0.0
C2173 C 0.85775 0.72302 0.37681 0.0
C2174 C 0.88283 0.72477 0.42151 0.0
C2175 C 0.89361 0.72398 0.38925 0.0
H2176 H 0.85709 0.72348 0.44191 0.0
H2177 H 0.88776 0.72532 0.45191 0.0
S2178 S 0.88264 0.72451 0.28138 0.0
N2179 N 0.86456 0.72433 0.30498 0.0
N2180 N 0.89671 0.72417 0.31689 0.0
C2181 C 0.88699 0.72403 0.3503 0.0
C2182 C 0.8693 0.72381 0.34396 0.0
C2183 C 0.30864 0.16251 0.34518 0.0
C2184 C 0.29175 0.16274 0.35463 0.0
C2185 C 0.30996 0.14654 0.34841 0.0
C2186 C 0.29445 0.12995 0.36127 0.0
H2187 H 0.32102 0.17483 0.33492 0.0
H2188 H 0.32327 0.1472 0.34032 0.0
S2189 S 0.24691 0.12301 0.3898 0.0
N2190 N 0.25913 0.14481 0.37785 0.0
N2191 N 0.2616 0.11481 0.38384 0.0
C2192 C 0.27757 0.13 0.3718 0.0
C2193 C 0.27623 0.14634 0.36851 0.0
C2194 C 0.84956 0.15152 0.37502 0.0
C2195 C 0.84856 0.13509 0.38887 0.0
C2196 C 0.86648 0.16792 0.37526 0.0
C2197 C 0.88345 0.16884 0.38897 0.0
H2198 H 0.83709 0.15171 0.36362 0.0
H2199 H 0.86624 0.18005 0.36427 0.0
S2200 S 0.88862 0.1296 0.42801 0.0
N2201 N 0.86609 0.12078 0.41707 0.0
N2202 N 0.89794 0.15144 0.41681 0.0
C2203 C 0.88259 0.15251 0.40361 0.0
C2204 C 0.86521 0.13575 0.40368 0.0
C2205 C 0.05752 0.52242 0.28132 0.0
C2206 C 0.06166 0.51442 0.31525 0.0
C2207 C 0.0577 0.53917 0.2828 0.0
C2208 C 0.06175 0.54855 0.31845 0.0
H2209 H 0.05413 0.5157 0.25329 0.0
H2210 H 0.05411 0.54456 0.25609 0.0
S2211 S 0.07371 0.53369 0.41569 0.0
N2212 N 0.07 0.51743 0.38563 0.0
N2213 N 0.07053 0.54871 0.3882 0.0
C2214 C 0.06613 0.5408 0.35239 0.0
C2215 C 0.06605 0.52385 0.35085 0.0
C2216 C 0.48937 0.55239 0.33373 0.0
C2217 C 0.50686 0.55336 0.34319 0.0
C2218 C 0.4724 0.53595 0.33701 0.0
C2219 C 0.47215 0.51979 0.35033 0.0
H2220 H 0.48878 0.56445 0.32357 0.0
H2221 H 0.45934 0.53597 0.3298 0.0
S2222 S 0.51403 0.51481 0.37818 0.0
N2223 N 0.5227 0.53652 0.36649 0.0
N2224 N 0.49111 0.50576 0.37147 0.0
C2225 C 0.48956 0.52054 0.35933 0.0
C2226 C 0.50679 0.53724 0.35602 0.0
C2227 C 0.48307 0.95121 0.3609 0.0
C2228 C 0.47236 0.95108 0.32717 0.0
C2229 C 0.50066 0.9516 0.35685 0.0
C2230 C 0.50829 0.95159 0.31893 0.0
H2231 H 0.478 0.95127 0.39094 0.0
H2232 H 0.5086 0.9524 0.38358 0.0
S2233 S 0.48596 0.94998 0.22096 0.0
N2234 N 0.47108 0.95054 0.2541 0.0
N2235 N 0.50327 0.94994 0.24722 0.0
C2236 C 0.49739 0.9504 0.28516 0.0
C2237 C 0.4797 0.95048 0.28905 0.0
C2238 C 0.55721 0.07453 0.72266 0.0
C2239 C 0.56081 0.06061 0.71154 0.0
C2240 C 0.53955 0.07372 0.71618 0.0
C2241 C 0.5246 0.05881 0.69882 0.0
H2242 H 0.56802 0.086 0.73717 0.0
H2243 H 0.53764 0.0849 0.72491 0.0
S2244 S 0.52675 0.0183 0.66664 0.0
N2245 N 0.54808 0.03145 0.68284 0.0
N2246 N 0.51476 0.02931 0.67256 0.0
C2247 C 0.5281 0.0447 0.68804 0.0
C2248 C 0.54616 0.04573 0.69403 0.0
C2249 C 0.96632 0.47637 0.71678 0.0
C2250 C 0.96014 0.46375 0.68677 0.0
C2251 C 0.96421 0.49197 0.71308 0.0
C2252 C 0.95573 0.49556 0.6793 0.0
H2253 H 0.97347 0.4745 0.7426 0.0
H2254 H 0.96988 0.50161 0.73621 0.0
S2255 S 0.93465 0.46535 0.59531 0.0
N2256 N 0.94356 0.45503 0.62413 0.0
N2257 N 0.93932 0.48401 0.61747 0.0
C2258 C 0.94866 0.48254 0.65013 0.0
C2259 C 0.95091 0.46676 0.6538 0.0
C2260 C 0.54557 0.49216 0.68765 0.0
C2261 C 0.55125 0.50312 0.72097 0.0
C2262 C 0.52867 0.47556 0.68859 0.0
C2263 C 0.51652 0.46901 0.72291 0.0
H2264 H 0.55406 0.49663 0.66013 0.0
H2265 H 0.52488 0.46798 0.66175 0.0
S2266 S 0.52579 0.49133 0.81993 0.0
N2267 N 0.54385 0.5053 0.79053 0.0
N2268 N 0.51235 0.47437 0.79226 0.0
C2269 C 0.52229 0.4796 0.7568 0.0
C2270 C 0.5395 0.4965 0.75585 0.0
C2271 C 0.73646 0.87936 0.61832 0.0
C2272 C 0.7202 0.88042 0.62958 0.0
C2273 C 0.73645 0.86262 0.61842 0.0
C2274 C 0.72016 0.8463 0.62971 0.0
H2275 H 0.74947 0.89159 0.61088 0.0
H2276 H 0.74947 0.86254 0.61111 0.0
S2277 S 0.67318 0.84153 0.65543 0.0
N2278 N 0.6869 0.86346 0.648 0.0
N2279 N 0.68681 0.83232 0.64785 0.0
C2280 C 0.70359 0.8472 0.63877 0.0
C2281 C 0.70363 0.86413 0.63879 0.0
C2282 C 0.14714 0.85938 0.64521 0.0
C2283 C 0.13476 0.85485 0.67881 0.0
C2284 C 0.16454 0.87543 0.64267 0.0
C2285 C 0.17025 0.88757 0.67367 0.0
H2286 H 0.14371 0.85012 0.62139 0.0
H2287 H 0.1739 0.878 0.61703 0.0
S2288 S 0.14185 0.88344 0.76504 0.0
N2289 N 0.12868 0.86493 0.74153 0.0
N2290 N 0.16122 0.89483 0.73691 0.0
C2291 C 0.15758 0.88363 0.70636 0.0
C2292 C 0.13992 0.86737 0.70891 0.0
C2293 C 0.17132 0.29534 0.67823 0.0
C2294 C 0.17895 0.29666 0.63955 0.0
C2295 C 0.15333 0.29387 0.68394 0.0
C2296 C 0.14215 0.29384 0.6512 0.0
H2297 H 0.17952 0.29584 0.70433 0.0
H2298 H 0.14825 0.2929 0.71451 0.0
S2299 S 0.15543 0.29558 0.54342 0.0
N2300 N 0.17339 0.29606 0.56801 0.0
N2301 N 0.14038 0.29471 0.57812 0.0
C2302 C 0.14952 0.29455 0.61223 0.0
C2303 C 0.16766 0.2956 0.60659 0.0
C2304 C 0.08077 0.42552 0.16153 0.0
C2305 C 0.08262 0.42238 0.20312 0.0
C2306 C 0.08706 0.41824 0.13089 0.0
C2307 C 0.09632 0.40795 0.13962 0.0
H2308 H 0.07441 0.43377 0.15228 0.0
H2309 H 0.08458 0.42071 0.09985 0.0
S2310 S 0.10841 0.39875 0.24287 0.0
N2311 N 0.09594 0.40916 0.2505 0.0
N2312 N 0.10983 0.39785 0.19366 0.0
C2313 C 0.09966 0.40599 0.18087 0.0
C2314 C 0.09243 0.41261 0.21213 0.0
C2315 C 0.57542 0.66464 0.18845 0.0
C2316 C 0.58766 0.66004 0.21059 0.0
C2317 C 0.58168 0.6772 0.15434 0.0
C2318 C 0.60025 0.68489 0.1374 0.0
H2319 H 0.56065 0.65839 0.19719 0.0
H2320 H 0.57171 0.68096 0.14147 0.0
S2321 S 0.63835 0.67749 0.18231 0.0
N2322 N 0.62021 0.66595 0.2136 0.0
N2323 N 0.63068 0.68614 0.14618 0.0
C2324 C 0.6125 0.68001 0.15858 0.0
C2325 C 0.60656 0.66845 0.19525 0.0
C2326 C 0.33801 0.9377 0.17594 0.0
C2327 C 0.33103 0.92031 0.16089 0.0
C2328 C 0.35062 0.94364 0.20864 0.0
C2329 C 0.35771 0.93289 0.22791 0.0
H2330 H 0.33361 0.94691 0.16231 0.0
H2331 H 0.35498 0.957 0.21881 0.0
S2332 S 0.34493 0.88647 0.19962 0.0
N2333 N 0.33161 0.89196 0.17092 0.0
N2334 N 0.35788 0.90431 0.22535 0.0
C2335 C 0.35143 0.91573 0.21209 0.0
C2336 C 0.33758 0.90921 0.18067 0.0
C2337 C 0.40516 0.07342 0.85045 0.0
C2338 C 0.41594 0.09045 0.86694 0.0
C2339 C 0.41163 0.06775 0.81697 0.0
C2340 C 0.42969 0.07837 0.79835 0.0
H2341 H 0.39137 0.06427 0.86354 0.0
H2342 H 0.40233 0.0547 0.80568 0.0
S2343 S 0.46434 0.12385 0.83028 0.0
N2344 N 0.44548 0.11844 0.85879 0.0
N2345 N 0.45902 0.10634 0.80308 0.0
C2346 C 0.44095 0.09513 0.81561 0.0
C2347 C 0.43381 0.10146 0.84777 0.0
C2348 C 0.9422 0.35036 0.88878 0.0
C2349 C 0.93313 0.33152 0.8847 0.0
C2350 C 0.94811 0.36298 0.855 0.0
C2351 C 0.94604 0.35766 0.81474 0.0
H2352 H 0.94483 0.35546 0.9186 0.0
H2353 H 0.95434 0.37712 0.86074 0.0
S2354 S 0.92025 0.31007 0.78635 0.0
N2355 N 0.91942 0.30842 0.83599 0.0
N2356 N 0.93233 0.33179 0.77353 0.0
C2357 C 0.93623 0.33887 0.81025 0.0
C2358 C 0.92948 0.326 0.84464 0.0
C2359 C 0.68144 0.60802 0.87909 0.0
C2360 C 0.68799 0.59709 0.89969 0.0
C2361 C 0.66879 0.602 0.84639 0.0
C2362 C 0.66091 0.58425 0.83271 0.0
H2363 H 0.68629 0.62161 0.88818 0.0
H2364 H 0.66509 0.61151 0.83165 0.0
S2365 S 0.67342 0.54985 0.87435 0.0
N2366 N 0.68697 0.5679 0.89893 0.0
N2367 N 0.66039 0.55551 0.84512 0.0
C2368 C 0.66697 0.573 0.85364 0.0
C2369 C 0.68102 0.57959 0.88489 0.0
C2370 C 0.94718 0.61312 0.82154 0.0
C2371 C 0.93388 0.60134 0.85096 0.0
C2372 C 0.95425 0.6066 0.7917 0.0
C2373 C 0.94856 0.58817 0.79079 0.0
H2374 H 0.95202 0.62746 0.82127 0.0
H2375 H 0.96373 0.61594 0.76844 0.0
S2376 S 0.91446 0.55159 0.86008 0.0
N2377 N 0.91507 0.57004 0.87588 0.0
N2378 N 0.92972 0.55829 0.82189 0.0
C2379 C 0.93606 0.57636 0.82078 0.0
C2380 C 0.92832 0.5828 0.85026 0.0
C2381 C 0.40729 0.3265 0.83962 0.0
C2382 C 0.40647 0.32714 0.8816 0.0
C2383 C 0.41493 0.34228 0.81443 0.0
C2384 C 0.42327 0.3596 0.82995 0.0
H2385 H 0.40305 0.31388 0.82587 0.0
H2386 H 0.41514 0.34083 0.78236 0.0
S2387 S 0.42678 0.36883 0.93822 0.0
N2388 N 0.41469 0.34667 0.9377 0.0
N2389 N 0.43172 0.37623 0.89068 0.0
C2390 C 0.42314 0.36047 0.87197 0.0
C2391 C 0.41421 0.34434 0.89756 0.0
C2392 C 0.70076 0.11182 0.87642 0.0
C2393 C 0.70444 0.10069 0.90327 0.0
C2394 C 0.68606 0.10444 0.84931 0.0
C2395 C 0.67462 0.08565 0.84798 0.0
H2396 H 0.70894 0.12633 0.87729 0.0
H2397 H 0.6834 0.11354 0.82981 0.0
S2398 S 0.67979 0.05087 0.91058 0.0
N2399 N 0.69629 0.07022 0.92629 0.0
N2400 N 0.66898 0.05614 0.87447 0.0
C2401 C 0.67865 0.07441 0.87404 0.0
C2402 C 0.69354 0.08199 0.90179 0.0
C2403 C 0.5905 0.90945 0.13305 0.0
C2404 C 0.60729 0.91966 0.11061 0.0
C2405 C 0.58455 0.91729 0.1618 0.0
C2406 C 0.59557 0.93552 0.17068 0.0
H2407 H 0.58166 0.89534 0.12771 0.0
H2408 H 0.57112 0.90889 0.17716 0.0
S2409 S 0.6418 0.96755 0.1221 0.0
N2410 N 0.63525 0.94863 0.09936 0.0
N2411 N 0.62488 0.96326 0.1556 0.0
C2412 C 0.61279 0.94575 0.14911 0.0
C2413 C 0.61856 0.93779 0.11892 0.0
C2414 C 0.06614 0.66557 0.19503 0.0
C2415 C 0.0778 0.65864 0.21003 0.0
C2416 C 0.07277 0.67967 0.16515 0.0
C2417 C 0.09143 0.68761 0.14993 0.0
H2418 H 0.05175 0.65998 0.20641 0.0
H2419 H 0.0632 0.68428 0.15355 0.0
S2420 S 0.12772 0.67465 0.17967 0.0
N2421 N 0.10844 0.65989 0.20476 0.0
N2422 N 0.12194 0.68857 0.15489 0.0
C2423 C 0.10344 0.68131 0.16601 0.0
C2424 C 0.09632 0.66617 0.19418 0.0
C2425 C 0.3515 0.4084 0.25632 0.0
C2426 C 0.36148 0.42724 0.25135 0.0
C2427 C 0.33609 0.39829 0.23232 0.0
C2428 C 0.33002 0.40673 0.20287 0.0
H2429 H 0.35563 0.40146 0.27898 0.0
H2430 H 0.32895 0.38374 0.23652 0.0
S2431 S 0.352 0.45579 0.17742 0.0
N2432 N 0.3647 0.45399 0.21445 0.0
N2433 N 0.33558 0.43505 0.16951 0.0
C2434 C 0.3399 0.42561 0.19781 0.0
C2435 C 0.35571 0.43586 0.22197 0.0
C2436 C 0.74419 0.75905 0.49048 0.0
C2437 C 0.74635 0.7569 0.5324 0.0
C2438 C 0.75109 0.75182 0.4608 0.0
C2439 C 0.76138 0.74258 0.47067 0.0
H2440 H 0.73738 0.76673 0.48002 0.0
H2441 H 0.74835 0.75356 0.42954 0.0
S2442 S 0.77505 0.73675 0.57492 0.0
N2443 N 0.76143 0.74609 0.58115 0.0
N2444 N 0.77629 0.7349 0.52603 0.0
C2445 C 0.76509 0.74174 0.51215 0.0
C2446 C 0.75728 0.74833 0.5425 0.0
C2447 C 0.26668 1.00234 0.47745 0.0
C2448 C 0.2758 0.02119 0.48154 0.0
C2449 C 0.26009 0.98966 0.51122 0.0
C2450 C 0.26277 0.99491 0.55159 0.0
H2451 H 0.26462 0.99727 0.44761 0.0
H2452 H 0.25264 0.9755 0.50535 0.0
S2453 S 0.28269 0.0424 0.57991 0.0
N2454 N 0.28392 0.0441 0.53028 0.0
N2455 N 0.2737 0.02074 0.59272 0.0
C2456 C 0.2711 0.0137 0.55602 0.0
C2457 C 0.2771 0.0266 0.52162 0.0
C2458 C 0.01827 0.25336 0.54578 0.0
C2459 C 0.02389 0.27019 0.56264 0.0
C2460 C 1.0048 0.24675 0.5148 0.0
C2461 C 0.99725 0.25713 0.49565 0.0
H2462 H 0.02447 0.24512 0.55607 0.0
H2463 H 1.00013 0.23312 0.50649 0.0
S2464 S 1.00717 0.30237 0.52722 0.0
N2465 N 0.01959 0.29669 0.55834 0.0
N2466 N 0.99682 0.28559 0.49706 0.0
C2467 C 1.00304 0.27417 0.51168 0.0
C2468 C 0.01579 0.2804 0.54509 0.0
C2469 C 0.27113 0.2516 0.48824 0.0
C2470 C 0.27558 0.25722 0.44748 0.0
C2471 C 0.26519 0.26076 0.51375 0.0
C2472 C 0.26308 0.27554 0.49911 0.0
H2473 H 0.27207 0.23997 0.50039 0.0
H2474 H 0.26235 0.25635 0.54525 0.0
S2475 S 0.2723 0.29514 0.39469 0.0
N2476 N 0.27699 0.2782 0.39359 0.0
N2477 N 0.26571 0.29529 0.44156 0.0
C2478 C 0.26708 0.28104 0.45839 0.0
C2479 C 0.27328 0.27185 0.43253 0.0
C2480 C 0.72747 0.99203 0.49341 0.0
C2481 C 0.72787 0.99203 0.53559 0.0
C2482 C 0.73479 0.0082 0.46964 0.0
C2483 C 0.74384 0.02512 0.48678 0.0
H2484 H 0.72295 0.97969 0.47826 0.0
H2485 H 0.73476 0.00747 0.43724 0.0
S2486 S 0.74936 0.0325 0.59597 0.0
N2487 N 0.73694 0.01045 0.59365 0.0
N2488 N 0.75352 0.04067 0.54891 0.0
C2489 C 0.74425 0.02533 0.52893 0.0
C2490 C 0.73565 0.00885 0.55321 0.0
C2491 C 0.02703 0.76972 0.54361 0.0
C2492 C 0.03253 0.75987 0.57025 0.0
C2493 C 0.01291 0.76106 0.51604 0.0
C2494 C 1.00438 0.74229 0.51266 0.0
H2495 H 0.03337 0.78421 0.54477 0.0
H2496 H 1.00855 0.76917 0.49737 0.0
S2497 S 0.01776 0.71127 0.56818 0.0
N2498 N 0.03068 0.73092 0.5878 0.0
N2499 N 1.00489 0.71463 0.53373 0.0
C2500 C 0.01093 0.73248 0.53689 0.0
C2501 C 0.02501 0.74132 0.56586 0.0
C2502 C 0.07684 0.34183 0.87128 0.0
C2503 C 0.09562 0.35078 0.88456 0.0
C2504 C 0.07197 0.33272 0.8347 0.0
C2505 C 0.08561 0.33199 0.80929 0.0
H2506 H 0.06572 0.34183 0.88946 0.0
H2507 H 0.05734 0.32615 0.82621 0.0
S2508 S 0.13652 0.35158 0.8315 0.0
N2509 N 0.12769 0.35708 0.86985 0.0
N2510 N 0.11869 0.34027 0.80198 0.0
C2511 C 0.10435 0.34054 0.82267 0.0
C2512 C 0.10929 0.34979 0.85984 0.0
C2513 C 0.67633 0.76158 0.85696 0.0
C2514 C 0.66502 0.74337 0.87073 0.0
C2515 C 0.68615 0.76658 0.81895 0.0
C2516 C 0.68529 0.75368 0.79227 0.0
H2517 H 0.67747 0.77216 0.87563 0.0
H2518 H 0.69434 0.78076 0.81015 0.0
S2519 S 0.65783 0.70417 0.81294 0.0
N2520 N 0.65382 0.71242 0.85357 0.0
N2521 N 0.67187 0.7217 0.78305 0.0
C2522 C 0.67396 0.73546 0.80555 0.0
C2523 C 0.66402 0.73037 0.84425 0.0
C2524 C 0.28532 0.94035 0.87637 0.0
C2525 C 0.27093 0.92671 0.9014 0.0
C2526 C 0.28155 0.94615 0.8382 0.0
C2527 C 0.26315 0.93871 0.82282 0.0
H2528 H 0.29972 0.94661 0.88637 0.0
H2529 H 0.29323 0.95655 0.82041 0.0
S2530 S 0.22054 0.90158 0.87425 0.0
N2531 N 0.23753 0.90527 0.90613 0.0
N2532 N 0.23055 0.91606 0.83545 0.0
C2533 C 0.24871 0.92487 0.84725 0.0
C2534 C 0.25254 0.91895 0.88601 0.0
C2535 C 0.3521 0.09899 0.15583 0.0
C2536 C 0.35187 0.08614 0.12984 0.0
C2537 C 0.34281 0.09397 0.19432 0.0
C2538 C 0.33277 0.07581 0.20932 0.0
H2539 H 0.3596 0.11313 0.14633 0.0
H2540 H 0.3436 0.1045 0.21272 0.0
S2541 S 0.32729 0.03673 0.15341 0.0
N2542 N 0.34019 0.05423 0.1223 0.0
N2543 N 0.32301 0.04494 0.19381 0.0
C2544 C 0.33215 0.06283 0.18333 0.0
C2545 C 0.34158 0.06793 0.14411 0.0
C2546 C 0.95646 0.27991 0.21345 0.0
C2547 C 0.94202 0.26579 0.23739 0.0
C2548 C 0.95298 0.28568 0.17499 0.0
C2549 C 0.93484 0.27768 0.15829 0.0
H2550 H 0.97067 0.28657 0.22455 0.0
H2551 H 0.96466 0.29649 0.15802 0.0
S2552 S 0.89237 0.2391 0.20643 0.0
N2553 N 0.90898 0.24323 0.23958 0.0
N2554 N 0.9025 0.25403 0.16841 0.0
C2555 C 0.92038 0.26335 0.18159 0.0
C2556 C 0.92392 0.25744 0.22061 0.0
C2557 C 0.7419 0.67272 0.20792 0.0
C2558 C 0.76076 0.68199 0.22073 0.0
C2559 C 0.73683 0.66298 0.17208 0.0
C2560 C 0.75029 0.66183 0.14681 0.0
H2561 H 0.73086 0.67299 0.22586 0.0
H2562 H 0.72214 0.65627 0.16403 0.0
S2563 S 0.80136 0.68191 0.16837 0.0
N2564 N 0.79274 0.68815 0.20579 0.0
N2565 N 0.78337 0.66998 0.13976 0.0
C2566 C 0.76912 0.67064 0.15991 0.0
C2567 C 0.77427 0.6806 0.19624 0.0
C2568 C 0.91844 0.68774 0.18793 0.0
C2569 C 0.90476 0.67923 0.21901 0.0
C2570 C 0.91467 0.68237 0.14858 0.0
C2571 C 0.89707 0.66824 0.13885 0.0
H2572 H 0.93247 0.69823 0.19437 0.0
H2573 H 0.92603 0.68856 0.12622 0.0
S2574 S 0.85566 0.64326 0.20825 0.0
N2575 N 0.87244 0.65723 0.23703 0.0
N2576 N 0.86515 0.64706 0.1625 0.0
C2577 C 0.88288 0.66029 0.1692 0.0
C2578 C 0.8868 0.66574 0.20948 0.0
C2579 C 0.33863 0.2744 0.1838 0.0
C2580 C 0.33493 0.25829 0.20516 0.0
C2581 C 0.34627 0.2782 0.14443 0.0
C2582 C 0.35005 0.26583 0.12512 0.0
H2583 H 0.33547 0.28402 0.19755 0.0
H2584 H 0.34927 0.29087 0.12899 0.0
S2585 S 0.34269 0.22173 0.16809 0.0
N2586 N 0.33533 0.22982 0.20409 0.0
N2587 N 0.34995 0.23709 0.13038 0.0
C2588 C 0.34643 0.24971 0.14622 0.0
C2589 C 0.33873 0.24588 0.18617 0.0
C2590 C 0.77329 0.09546 0.2104 0.0
C2591 C 0.75939 0.07956 0.2301 0.0
C2592 C 0.77139 0.09986 0.1702 0.0
C2593 C 0.75563 0.08838 0.14842 0.0
H2594 H 0.78551 0.10469 0.22649 0.0
H2595 H 0.78187 0.11267 0.15657 0.0
S2596 S 0.71584 0.04488 0.18609 0.0
N2597 N 0.72985 0.05203 0.22482 0.0
N2598 N 0.72616 0.06036 0.14911 0.0
C2599 C 0.74195 0.07222 0.16751 0.0
C2600 C 0.74388 0.06776 0.20842 0.0
C2601 C 0.67836 0.91745 0.804 0.0
C2602 C 0.68215 0.93388 0.78409 0.0
C2603 C 0.6718 0.91354 0.84411 0.0
C2604 C 0.66913 0.92606 0.86561 0.0
H2605 H 0.68036 0.90754 0.78833 0.0
H2606 H 0.66816 0.90041 0.85797 0.0
S2607 S 0.67782 0.97122 0.82737 0.0
N2608 N 0.68351 0.96296 0.78894 0.0
N2609 N 0.67101 0.95556 0.86442 0.0
C2610 C 0.67332 0.94269 0.84628 0.0
C2611 C 0.67994 0.94664 0.80548 0.0
C2612 C 0.06468 0.74298 0.85047 0.0
C2613 C 0.07783 0.7591 0.8303 0.0
C2614 C 0.06758 0.73874 0.89014 0.0
C2615 C 0.08356 0.75065 0.91071 0.0
H2616 H 0.0523 0.7335 0.83523 0.0
H2617 H 0.05768 0.72582 0.90431 0.0
S2618 S 0.12157 0.79491 0.8714 0.0
N2619 N 0.10676 0.78741 0.8341 0.0
N2620 N 0.11251 0.77922 0.90832 0.0
C2621 C 0.09649 0.76703 0.89115 0.0
C2622 C 0.09353 0.77133 0.85096 0.0
C2623 C 0.24821 0.32516 0.84096 0.0
C2624 C 0.24054 0.33264 0.81275 0.0
C2625 C 0.25109 0.33038 0.88062 0.0
C2626 C 0.24665 0.34346 0.8936 0.0
H2627 H 0.25256 0.31552 0.8321 0.0
H2628 H 0.25748 0.3246 0.90093 0.0
S2629 S 0.22502 0.36633 0.8331 0.0
N2630 N 0.22743 0.35301 0.80163 0.0
N2631 N 0.23346 0.36326 0.87621 0.0
C2632 C 0.2387 0.35088 0.86618 0.0
C2633 C 0.23552 0.34539 0.82576 0.0
C2634 C 0.02395 0.43494 0.49205 0.0
C2635 C 0.02306 0.42204 0.46545 0.0
C2636 C 0.01453 0.42991 0.53036 0.0
C2637 C 1.00379 0.41168 0.54455 0.0
H2638 H 0.03196 0.44911 0.48306 0.0
H2639 H 0.01574 0.44046 0.54922 0.0
S2640 S 0.99647 0.37253 0.48666 0.0
N2641 N 0.01 0.39008 0.45627 0.0
N2642 N 0.99271 0.38074 0.52765 0.0
C2643 C 1.00258 0.39868 0.51798 0.0
C2644 C 0.01208 0.4038 0.47889 0.0
C2645 C 0.61502 0.60393 0.53792 0.0
C2646 C 0.6008 0.5914 0.56515 0.0
C2647 C 0.61085 0.60942 0.49973 0.0
C2648 C 0.59216 0.60277 0.48616 0.0
H2649 H 0.62964 0.60965 0.54631 0.0
H2650 H 0.62246 0.61905 0.48054 0.0
S2651 S 0.54953 0.56934 0.54462 0.0
N2652 N 0.56703 0.57231 0.57444 0.0
N2653 N 0.55931 0.58255 0.50385 0.0
C2654 C 0.57783 0.59025 0.51305 0.0
C2655 C 0.58207 0.58463 0.55189 0.0
C2656 C 0.44167 0.01842 0.51992 0.0
C2657 C 0.42764 0.0176 0.54675 0.0
C2658 C 0.43713 0.00866 0.48424 0.0
C2659 C 0.41827 0.99761 0.4729 0.0
H2660 H 0.45638 0.02657 0.52682 0.0
H2661 H 0.44858 0.00966 0.46552 0.0
S2662 S 0.3761 0.99017 0.53289 0.0
N2663 N 0.39394 1.00417 0.55944 0.0
N2664 N 0.3855 0.9863 0.49297 0.0
C2665 C 0.40415 0.99651 0.49978 0.0
C2666 C 0.40878 1.00633 0.53624 0.0
C2667 C 0.58059 0.98891 0.52067 0.0
C2668 C 0.57165 0.99381 0.49 0.0
C2669 C 0.58182 0.99497 0.55936 0.0
C2670 C 0.57426 1.00623 0.56881 0.0
H2671 H 0.58726 0.9808 0.51436 0.0
H2672 H 0.58971 0.99165 0.58138 0.0
S2673 S 0.54764 0.02135 0.50082 0.0
N2674 N 0.5537 0.0093 0.47261 0.0
N2675 N 0.55625 0.02095 0.54561 0.0
C2676 C 0.56458 0.01063 0.53901 0.0
C2677 C 0.56328 1.00441 0.4995 0.0
C2678 C 0.99354 0.60375 0.50083 0.0
C2679 C 0.98976 0.58765 0.52219 0.0
C2680 C 1.00036 0.6071 0.4609 0.0
C2681 C 1.00333 0.59431 0.44115 0.0
H2682 H 0.99173 0.614 0.51549 0.0
H2683 H 1.00428 0.62011 0.44603 0.0
S2684 S 0.99434 0.5496 0.48354 0.0
N2685 N 0.9882 0.55835 0.52028 0.0
N2686 N 1.00148 0.5648 0.44551 0.0
C2687 C 0.99879 0.57785 0.46174 0.0
C2688 C 0.99187 0.57446 0.50226 0.0
C2689 C 0.41509 0.40966 0.51114 0.0
C2690 C 0.4247 0.42618 0.48902 0.0
C2691 C 0.42055 0.40747 0.55007 0.0
C2692 C 0.43566 0.42182 0.56824 0.0
H2693 H 0.40303 0.39851 0.49857 0.0
H2694 H 0.41276 0.39453 0.56623 0.0
S2695 S 0.46536 0.46769 0.52257 0.0
N2696 N 0.45005 0.45705 0.48765 0.0
N2697 N 0.46032 0.4529 0.56097 0.0
C2698 C 0.44551 0.43831 0.5462 0.0
C2699 C 0.44002 0.44051 0.50652 0.0
loop_
_geom_bond_atom_site_label_1
_geom_bond_atom_site_label_2
_geom_bond_distance
_geom_bond_site_symmetry_2
_ccdc_geom_bond_type
C0 C1 1.443 . S
C0 N4 1.376 . S
C0 C38 1.389 . S
C1 C0 1.443 . S
C1 C2 1.340 . S
C1 H41 0.951 . S
C2 C1 1.340 . S
C2 C3 1.439 . S
C2 H42 0.950 . S
C3 C2 1.439 . S
C3 N4 1.374 . S
C3 C37 1.395 . S
N4 C0 1.376 . S
N4 C3 1.374 . S
N4 Co5 2.008 . S
Co5 N4 2.008 . S
Co5 N6 1.995 1_554 S
Co5 N11 2.008 1_554 S
Co5 N16 1.995 . S
Co5 N21 2.282 . S
Co5 N27 2.282 1_554 S
N6 Co5 1.995 1_556 S
N6 C7 1.376 1_556 S
N6 C10 1.383 . S
C7 N6 1.376 1_554 S
C7 C8 1.446 1_554 S
C7 C37 1.391 . S
C8 C7 1.446 1_556 S
C8 C9 1.339 . S
C8 H43 0.949 1_556 S
C9 C8 1.339 . S
C9 C10 1.439 . S
C9 H44 0.950 . S
C10 N6 1.383 . S
C10 C9 1.439 . S
C10 C39 1.392 . S
N11 Co5 2.008 1_556 S
N11 C12 1.376 . S
N11 C15 1.374 . S
C12 N11 1.376 . S
C12 C13 1.443 . S
C12 C39 1.389 . S
C13 C12 1.443 . S
C13 C14 1.340 . S
C13 H45 0.951 . S
C14 C13 1.340 . S
C14 C15 1.439 . S
C14 H46 0.950 . S
C15 N11 1.374 . S
C15 C14 1.439 . S
C15 C40 1.395 . S
N16 Co5 1.995 . S
N16 C17 1.376 1_554 S
N16 C20 1.383 . S
C17 N16 1.376 1_556 S
C17 C18 1.446 1_556 S
C17 C40 1.391 . S
C18 C17 1.446 1_554 S
C18 C19 1.339 . S
C18 H47 0.941 1_554 S
C19 C18 1.339 . S
C19 C20 1.439 . S
C19 H48 0.950 . S
C20 N16 1.383 . S
C20 C19 1.439 . S
C20 C38 1.392 . S
N21 Co5 2.282 . S
N21 C24 1.332 1_554 S
N21 C26 1.332 . S
C22 C23 1.386 . S
C22 C25 1.382 1_556 S
C23 C22 1.386 . S
C23 C24 1.382 . S
C23 H49 0.950 . S
C24 N21 1.332 1_556 S
C24 C23 1.382 . S
C24 H35 0.952 . S
C25 C22 1.382 1_554 S
C25 C26 1.386 . S
C25 H50 0.953 . S
C26 N21 1.332 . S
C26 C25 1.386 . S
C26 H36 0.948 . S
N27 Co5 2.282 1_556 S
N27 C31 1.332 1_556 S
N27 C32 1.332 . S
C28 C29 1.384 1_556 S
C28 C32 1.385 . S
C28 H51 0.952 . S
C29 C28 1.384 1_554 S
C29 C30 1.386 . S
C30 C29 1.386 . S
C30 C31 1.382 . S
C30 H52 0.950 . S
C31 N27 1.332 1_554 S
C31 C30 1.382 . S
C31 H33 0.952 . S
C32 N27 1.332 . S
C32 C28 1.385 . S
C32 H34 0.948 . S
H33 C31 0.952 . S
H34 C32 0.948 . S
H35 C24 0.952 . S
H36 C26 0.948 . S
C37 C3 1.395 . S
C37 C7 1.391 . S
C38 C0 1.389 . S
C38 C20 1.392 . S
C39 C10 1.392 . S
C39 C12 1.389 . S
C40 C15 1.395 . S
C40 C17 1.391 . S
H41 C1 0.951 . S
H42 C2 0.950 . S
H43 C8 0.949 1_554 S
H44 C9 0.950 . S
H45 C13 0.951 . S
H46 C14 0.950 . S
H47 C18 0.941 1_556 S
H48 C19 0.950 . S
H49 C23 0.950 . S
H50 C25 0.953 . S
H51 C28 0.952 . S
H52 C30 0.950 . S
C53 C54 1.443 . S
C53 N57 1.376 . S
C53 C91 1.389 . S
C54 C53 1.443 . S
C54 C55 1.340 . S
C54 H94 0.951 . S
C55 C54 1.340 . S
C55 C56 1.439 . S
C55 H95 0.950 . S
C56 C55 1.439 . S
C56 N57 1.374 . S
C56 C90 1.395 . S
N57 C53 1.376 . S
N57 C56 1.374 . S
N57 Co58 2.008 . S
Co58 N57 2.008 . S
Co58 N59 1.995 1_554 S
Co58 N64 2.008 1_554 S
Co58 N69 1.995 . S
Co58 N74 2.282 . S
Co58 N80 2.282 1_554 S
N59 Co58 1.995 1_556 S
N59 C60 1.376 1_556 S
N59 C63 1.383 . S
C60 N59 1.376 1_554 S
C60 C61 1.446 1_554 S
C60 C90 1.391 . S
C61 C60 1.446 1_556 S
C61 C62 1.339 . S
C61 H96 0.949 . S
C62 C61 1.339 . S
C62 C63 1.439 . S
C62 H97 0.950 . S
C63 N59 1.383 . S
C63 C62 1.439 . S
C63 C92 1.392 . S
N64 Co58 2.008 1_556 S
N64 C65 1.376 . S
N64 C68 1.374 . S
C65 N64 1.376 . S
C65 C66 1.443 . S
C65 C92 1.389 . S
C66 C65 1.443 . S
C66 C67 1.340 . S
C66 H98 0.951 . S
C67 C66 1.340 . S
C67 C68 1.439 . S
C67 H99 0.950 . S
C68 N64 1.374 . S
C68 C67 1.439 . S
C68 C93 1.395 . S
N69 Co58 1.995 . S
N69 C70 1.360 1_554 S
N69 C73 1.383 . S
C70 N69 1.360 1_556 S
C70 C71 1.429 1_556 S
C70 C93 1.421 . S
C71 C70 1.429 1_554 S
C71 C72 1.339 . S
C71 H100 0.949 . S
C72 C71 1.339 . S
C72 C73 1.439 . S
C72 H101 0.950 . S
C73 N69 1.383 . S
C73 C72 1.439 . S
C73 C91 1.392 . S
N74 Co58 2.282 . S
N74 C77 1.332 1_554 S
N74 C79 1.332 . S
C75 C76 1.386 . S
C75 C78 1.388 . S
C76 C75 1.386 . S
C76 C77 1.382 . S
C76 H102 0.950 . S
C77 N74 1.332 1_556 S
C77 C76 1.382 . S
C77 H88 0.952 . S
C78 C75 1.388 . S
C78 C79 1.382 1_556 S
C78 H103 0.950 . S
C79 N74 1.332 . S
C79 C78 1.382 1_554 S
C79 H89 0.948 . S
N80 Co58 2.282 1_556 S
N80 C84 1.332 1_556 S
N80 C85 1.332 . S
C81 C82 1.388 . S
C81 C85 1.382 1_554 S
C81 H104 0.950 . S
C82 C81 1.388 . S
C82 C83 1.386 . S
C83 C82 1.386 . S
C83 C84 1.382 . S
C83 H105 0.950 . S
C84 N80 1.332 1_554 S
C84 C83 1.382 . S
C84 H86 0.952 . S
C85 N80 1.332 . S
C85 C81 1.382 1_556 S
C85 H87 0.948 . S
H86 C84 0.952 . S
H87 C85 0.948 . S
H88 C77 0.952 . S
H89 C79 0.948 . S
C90 C56 1.395 . S
C90 C60 1.391 . S
C91 C53 1.389 . S
C91 C73 1.392 . S
C92 C63 1.392 . S
C92 C65 1.389 . S
C93 C68 1.395 . S
C93 C70 1.421 . S
H94 C54 0.951 . S
H95 C55 0.950 . S
H96 C61 0.949 . S
H97 C62 0.950 . S
H98 C66 0.951 . S
H99 C67 0.950 . S
H100 C71 0.949 . S
H101 C72 0.950 . S
H102 C76 0.950 . S
H103 C78 0.950 . S
H104 C81 0.950 . S
H105 C83 0.950 . S
C106 C107 1.443 . S
C106 N110 1.376 . S
C106 C144 1.389 . S
C107 C106 1.443 . S
C107 C108 1.340 . S
C107 H147 0.951 . S
C108 C107 1.340 . S
C108 C109 1.439 . S
C108 H148 0.950 . S
C109 C108 1.439 . S
C109 N110 1.374 . S
C109 C143 1.395 . S
N110 C106 1.376 . S
N110 C109 1.374 . S
N110 Co111 2.008 . S
Co111 N110 2.008 . S
Co111 N112 1.995 1_554 S
Co111 N117 2.008 1_554 S
Co111 N122 1.995 . S
Co111 N127 2.282 . S
Co111 N133 2.282 1_554 S
N112 Co111 1.995 1_556 S
N112 C113 1.376 1_556 S
N112 C116 1.383 . S
C113 N112 1.376 1_554 S
C113 C114 1.446 1_554 S
C113 C143 1.391 . S
C114 C113 1.446 1_556 S
C114 C115 1.339 . S
C114 H149 0.949 . S
C115 C114 1.339 . S
C115 C116 1.439 . S
C115 H150 0.950 . S
C116 N112 1.383 . S
C116 C115 1.439 . S
C116 C145 1.392 . S
N117 Co111 2.008 1_556 S
N117 C118 1.376 . S
N117 C121 1.374 . S
C118 N117 1.376 . S
C118 C119 1.443 . S
C118 C145 1.389 . S
C119 C118 1.443 . S
C119 C120 1.340 . S
C119 H151 0.951 . S
C120 C119 1.340 . S
C120 C121 1.439 . S
C120 H152 0.950 . S
C121 N117 1.374 . S
C121 C120 1.439 . S
C121 C146 1.395 . S
N122 Co111 1.995 . S
N122 C123 1.376 1_554 S
N122 C126 1.383 . S
C123 N122 1.376 1_556 S
C123 C124 1.446 1_556 S
C123 C146 1.391 . S
C124 C123 1.446 1_554 S
C124 C125 1.339 . S
C124 H153 0.949 . S
C125 C124 1.339 . S
C125 C126 1.439 . S
C125 H154 0.950 . S
C126 N122 1.383 . S
C126 C125 1.439 . S
C126 C144 1.392 . S
N127 Co111 2.282 . S
N127 C130 1.332 1_554 S
N127 C132 1.332 . S
C128 C129 1.386 . S
C128 C131 1.386 1_556 S
C129 C128 1.386 . S
C129 C130 1.382 . S
C129 H155 0.950 . S
C130 N127 1.332 1_556 S
C130 C129 1.382 . S
C130 H141 0.952 . S
C131 C128 1.386 1_554 S
C131 C132 1.384 . S
C131 H156 0.951 . S
C132 N127 1.332 . S
C132 C131 1.384 . S
C132 H142 0.948 . S
N133 Co111 2.282 1_556 S
N133 C137 1.332 1_556 S
N133 C138 1.332 . S
C134 C135 1.388 1_556 S
C134 C138 1.382 . S
C134 H157 0.950 . S
C135 C134 1.388 1_554 S
C135 C136 1.386 . S
C136 C135 1.386 . S
C136 C137 1.382 . S
C136 H158 0.950 . S
C137 N133 1.332 1_554 S
C137 C136 1.382 . S
C137 H139 0.952 . S
C138 N133 1.332 . S
C138 C134 1.382 . S
C138 H140 0.948 . S
H139 C137 0.952 . S
H140 C138 0.948 . S
H141 C130 0.952 . S
H142 C132 0.948 . S
C143 C109 1.395 . S
C143 C113 1.391 . S
C144 C106 1.389 . S
C144 C126 1.392 . S
C145 C116 1.392 . S
C145 C118 1.389 . S
C146 C121 1.395 . S
C146 C123 1.391 . S
H147 C107 0.951 . S
H148 C108 0.950 . S
H149 C114 0.949 . S
H150 C115 0.950 . S
H151 C119 0.951 . S
H152 C120 0.950 . S
H153 C124 0.949 . S
H154 C125 0.950 . S
H155 C129 0.950 . S
H156 C131 0.951 . S
H157 C134 0.950 . S
H158 C136 0.950 . S
C159 C160 1.443 . S
C159 N163 1.376 . S
C159 C197 1.389 . S
C160 C159 1.443 . S
C160 C161 1.340 . S
C160 H200 0.951 . S
C161 C160 1.340 . S
C161 C162 1.439 . S
C161 H201 0.950 . S
C162 C161 1.439 . S
C162 N163 1.374 . S
C162 C196 1.395 . S
N163 C159 1.376 . S
N163 C162 1.374 . S
N163 Co164 2.008 . S
Co164 N163 2.008 . S
Co164 N165 1.995 1_556 S
Co164 N170 2.008 1_556 S
Co164 N175 1.995 . S
Co164 N180 2.282 . S
Co164 N186 2.282 1_556 S
N165 Co164 1.995 1_554 S
N165 C166 1.376 1_554 S
N165 C169 1.383 . S
C166 N165 1.376 1_556 S
C166 C167 1.446 1_556 S
C166 C196 1.391 . S
C167 C166 1.446 1_554 S
C167 C168 1.339 . S
C167 H202 0.949 . S
C168 C167 1.339 . S
C168 C169 1.439 . S
C168 H203 0.950 . S
C169 N165 1.383 . S
C169 C168 1.439 . S
C169 C198 1.392 . S
N170 Co164 2.008 1_554 S
N170 C171 1.376 . S
N170 C174 1.374 . S
C171 N170 1.376 . S
C171 C172 1.443 . S
C171 C198 1.389 . S
C172 C171 1.443 . S
C172 C173 1.340 . S
C172 H204 0.951 . S
C173 C172 1.340 . S
C173 C174 1.439 . S
C173 H205 0.950 . S
C174 N170 1.374 . S
C174 C173 1.439 . S
C174 C199 1.395 . S
N175 Co164 1.995 . S
N175 C176 1.376 1_556 S
N175 C179 1.383 . S
C176 N175 1.376 1_554 S
C176 C177 1.446 1_554 S
C176 C199 1.391 . S
C177 C176 1.446 1_556 S
C177 C178 1.339 . S
C177 H206 0.949 . S
C178 C177 1.339 . S
C178 C179 1.439 . S
C178 H207 0.950 . S
C179 N175 1.383 . S
C179 C178 1.439 . S
C179 C197 1.392 . S
N180 Co164 2.282 . S
N180 C183 1.332 1_556 S
N180 C185 1.332 . S
C181 C182 1.386 . S
C181 C184 1.386 1_554 S
C182 C181 1.386 . S
C182 C183 1.382 . S
C182 H208 0.950 . S
C183 N180 1.332 1_554 S
C183 C182 1.382 . S
C183 H194 0.952 . S
C184 C181 1.386 1_556 S
C184 C185 1.384 . S
C184 H209 0.951 . S
C185 N180 1.332 . S
C185 C184 1.384 . S
C185 H195 0.948 . S
N186 Co164 2.282 1_554 S
N186 C190 1.332 1_554 S
N186 C191 1.332 . S
C187 C188 1.388 1_554 S
C187 C191 1.382 . S
C187 H210 0.950 . S
C188 C187 1.388 1_556 S
C188 C189 1.386 . S
C189 C188 1.386 . S
C189 C190 1.382 . S
C189 H211 0.950 . S
C190 N186 1.332 1_556 S
C190 C189 1.382 . S
C190 H192 0.952 . S
C191 N186 1.332 . S
C191 C187 1.382 . S
C191 H193 0.948 . S
H192 C190 0.952 . S
H193 C191 0.948 . S
H194 C183 0.952 . S
H195 C185 0.948 . S
C196 C162 1.395 . S
C196 C166 1.391 . S
C197 C159 1.389 . S
C197 C179 1.392 . S
C198 C169 1.392 . S
C198 C171 1.389 . S
C199 C174 1.395 . S
C199 C176 1.391 . S
H200 C160 0.951 . S
H201 C161 0.950 . S
H202 C167 0.949 . S
H203 C168 0.950 . S
H204 C172 0.951 . S
H205 C173 0.950 . S
H206 C177 0.949 . S
H207 C178 0.950 . S
H208 C182 0.950 . S
H209 C184 0.951 . S
H210 C187 0.950 . S
H211 C189 0.950 . S
C212 C213 1.443 . S
C212 N216 1.376 . S
C212 C250 1.389 . S
C213 C212 1.443 . S
C213 C214 1.340 . S
C213 H253 0.951 . S
C214 C213 1.340 . S
C214 C215 1.439 . S
C214 H254 0.950 . S
C215 C214 1.439 . S
C215 N216 1.374 . S
C215 C249 1.395 . S
N216 C212 1.376 . S
N216 C215 1.374 . S
N216 Co217 2.008 . S
Co217 N216 2.008 . S
Co217 N218 1.995 1_556 S
Co217 N223 2.008 1_556 S
Co217 N228 1.995 . S
Co217 N233 2.282 . S
Co217 N239 2.282 1_556 S
N218 Co217 1.995 1_554 S
N218 C219 1.376 1_554 S
N218 C222 1.383 . S
C219 N218 1.376 1_556 S
C219 C220 1.446 1_556 S
C219 C249 1.391 . S
C220 C219 1.446 1_554 S
C220 C221 1.339 . S
C220 H255 0.949 . S
C221 C220 1.339 . S
C221 C222 1.439 . S
C221 H256 0.950 . S
C222 N218 1.383 . S
C222 C221 1.439 . S
C222 C251 1.392 . S
N223 Co217 2.008 1_554 S
N223 C224 1.376 . S
N223 C227 1.374 . S
C224 N223 1.376 . S
C224 C225 1.443 . S
C224 C251 1.389 . S
C225 C224 1.443 . S
C225 C226 1.340 . S
C225 H257 0.951 . S
C226 C225 1.340 . S
C226 C227 1.439 . S
C226 H258 0.950 . S
C227 N223 1.374 . S
C227 C226 1.439 . S
C227 C252 1.395 . S
N228 Co217 1.995 . S
N228 C229 1.376 1_556 S
N228 C232 1.383 . S
C229 N228 1.376 1_554 S
C229 C230 1.446 1_554 S
C229 C252 1.391 . S
C230 C229 1.446 1_556 S
C230 C231 1.339 . S
C230 H259 0.949 . S
C231 C230 1.339 . S
C231 C232 1.439 . S
C231 H260 0.950 . S
C232 N228 1.383 . S
C232 C231 1.439 . S
C232 C250 1.392 . S
N233 Co217 2.282 . S
N233 C236 1.332 1_556 S
N233 C238 1.332 . S
C234 C235 1.386 . S
C234 C237 1.388 . S
C235 C234 1.386 . S
C235 C236 1.382 . S
C235 H261 0.950 . S
C236 N233 1.332 1_554 S
C236 C235 1.382 . S
C236 H247 0.952 . S
C237 C234 1.388 . S
C237 C238 1.382 1_554 S
C237 H262 0.950 . S
C238 N233 1.332 . S
C238 C237 1.382 1_556 S
C238 H248 0.948 . S
N239 Co217 2.282 1_554 S
N239 C243 1.332 1_554 S
N239 C244 1.332 . S
C240 C241 1.388 . S
C240 C244 1.382 1_556 S
C240 H263 0.950 . S
C241 C240 1.388 . S
C241 C242 1.386 . S
C242 C241 1.386 . S
C242 C243 1.382 . S
C242 H264 0.950 . S
C243 N239 1.332 1_556 S
C243 C242 1.382 . S
C243 H245 0.952 . S
C244 N239 1.332 . S
C244 C240 1.382 1_554 S
C244 H246 0.948 . S
H245 C243 0.952 . S
H246 C244 0.948 . S
H247 C236 0.952 . S
H248 C238 0.948 . S
C249 C215 1.395 . S
C249 C219 1.391 . S
C250 C212 1.389 . S
C250 C232 1.392 . S
C251 C222 1.392 . S
C251 C224 1.389 . S
C252 C227 1.395 . S
C252 C229 1.391 . S
H253 C213 0.951 . S
H254 C214 0.950 . S
H255 C220 0.949 . S
H256 C221 0.950 . S
H257 C225 0.951 . S
H258 C226 0.950 . S
H259 C230 0.949 . S
H260 C231 0.950 . S
H261 C235 0.950 . S
H262 C237 0.950 . S
H263 C240 0.950 . S
H264 C242 0.950 . S
C265 C266 1.443 . S
C265 N269 1.376 . S
C265 C303 1.389 . S
C266 C265 1.443 . S
C266 C267 1.340 . S
C266 H306 0.951 . S
C267 C266 1.340 . S
C267 C268 1.439 . S
C267 H307 0.950 . S
C268 C267 1.439 . S
C268 N269 1.374 . S
C268 C302 1.395 . S
N269 C265 1.376 . S
N269 C268 1.374 . S
N269 Co270 2.008 . S
Co270 N269 2.008 . S
Co270 N271 1.995 1_556 S
Co270 N276 2.008 1_556 S
Co270 N281 1.995 . S
Co270 N286 2.282 . S
Co270 N292 2.282 1_556 S
N271 Co270 1.995 1_554 S
N271 C272 1.376 1_554 S
N271 C275 1.383 . S
C272 N271 1.376 1_556 S
C272 C273 1.446 1_556 S
C272 C302 1.391 . S
C273 C272 1.446 1_554 S
C273 C274 1.339 . S
C273 H308 0.949 1_554 S
C274 C273 1.339 . S
C274 C275 1.439 . S
C274 H309 0.950 . S
C275 N271 1.383 . S
C275 C274 1.439 . S
C275 C304 1.392 . S
N276 Co270 2.008 1_554 S
N276 C277 1.376 . S
N276 C280 1.374 . S
C277 N276 1.376 . S
C277 C278 1.443 . S
C277 C304 1.389 . S
C278 C277 1.443 . S
C278 C279 1.340 . S
C278 H310 0.951 . S
C279 C278 1.340 . S
C279 C280 1.439 . S
C279 H311 0.950 . S
C280 N276 1.374 . S
C280 C279 1.439 . S
C280 C305 1.395 . S
N281 Co270 1.995 . S
N281 C282 1.376 1_556 S
N281 C285 1.383 . S
C282 N281 1.376 1_554 S
C282 C283 1.446 1_554 S
C282 C305 1.391 . S
C283 C282 1.446 1_556 S
C283 C284 1.339 . S
C283 H312 0.941 1_556 S
C284 C283 1.339 . S
C284 C285 1.439 . S
C284 H313 0.950 . S
C285 N281 1.383 . S
C285 C284 1.439 . S
C285 C303 1.392 . S
N286 Co270 2.282 . S
N286 C289 1.332 1_556 S
N286 C291 1.332 . S
C287 C288 1.386 . S
C287 C290 1.382 1_554 S
C288 C287 1.386 . S
C288 C289 1.382 . S
C288 H314 0.950 . S
C289 N286 1.332 1_554 S
C289 C288 1.382 . S
C289 H300 0.952 . S
C290 C287 1.382 1_556 S
C290 C291 1.386 . S
C290 H315 0.953 . S
C291 N286 1.332 . S
C291 C290 1.386 . S
C291 H301 0.948 . S
N292 Co270 2.282 1_554 S
N292 C296 1.332 1_554 S
N292 C297 1.332 . S
C293 C294 1.384 1_554 S
C293 C297 1.385 . S
C293 H316 0.952 . S
C294 C293 1.384 1_556 S
C294 C295 1.386 . S
C295 C294 1.386 . S
C295 C296 1.382 . S
C295 H317 0.950 . S
C296 N292 1.332 1_556 S
C296 C295 1.382 . S
C296 H298 0.952 . S
C297 N292 1.332 . S
C297 C293 1.385 . S
C297 H299 0.948 . S
H298 C296 0.952 . S
H299 C297 0.948 . S
H300 C289 0.952 . S
H301 C291 0.948 . S
C302 C268 1.395 . S
C302 C272 1.391 . S
C303 C265 1.389 . S
C303 C285 1.392 . S
C304 C275 1.392 . S
C304 C277 1.389 . S
C305 C280 1.395 . S
C305 C282 1.391 . S
H306 C266 0.951 . S
H307 C267 0.950 . S
H308 C273 0.949 1_556 S
H309 C274 0.950 . S
H310 C278 0.951 . S
H311 C279 0.950 . S
H312 C283 0.941 1_554 S
H313 C284 0.950 . S
H314 C288 0.950 . S
H315 C290 0.953 . S
H316 C293 0.952 . S
H317 C295 0.950 . S
C318 C319 1.443 . S
C318 N322 1.376 . S
C318 C356 1.389 1_556 S
C319 C318 1.443 . S
C319 C320 1.340 . S
C319 H359 0.951 . S
C320 C319 1.340 . S
C320 C321 1.439 . S
C320 H360 0.950 . S
C321 C320 1.439 . S
C321 N322 1.374 . S
C321 C355 1.395 . S
N322 C318 1.376 . S
N322 C321 1.374 . S
N322 Co323 2.008 . S
Co323 N322 2.008 . S
Co323 N324 1.995 . S
Co323 N329 2.008 1_556 S
Co323 N334 1.995 1_556 S
Co323 N339 2.282 . S
Co323 N345 2.282 1_556 S
N324 Co323 1.995 . S
N324 C325 1.376 . S
N324 C328 1.383 . S
C325 N324 1.376 . S
C325 C326 1.446 . S
C325 C355 1.391 . S
C326 C325 1.446 . S
C326 C327 1.339 . S
C326 H361 0.949 . S
C327 C326 1.339 . S
C327 C328 1.439 . S
C327 H362 0.950 . S
C328 N324 1.383 . S
C328 C327 1.439 . S
C328 C357 1.392 . S
N329 Co323 2.008 1_554 S
N329 C330 1.376 . S
N329 C333 1.374 . S
C330 N329 1.376 . S
C330 C331 1.443 . S
C330 C357 1.389 1_554 S
C331 C330 1.443 . S
C331 C332 1.340 . S
C331 H363 0.951 . S
C332 C331 1.340 . S
C332 C333 1.439 . S
C332 H364 0.950 . S
C333 N329 1.374 . S
C333 C332 1.439 . S
C333 C358 1.395 . S
N334 Co323 1.995 1_554 S
N334 C335 1.376 . S
N334 C338 1.383 . S
C335 N334 1.376 . S
C335 C336 1.446 . S
C335 C358 1.391 . S
C336 C335 1.446 . S
C336 C337 1.339 . S
C336 H365 0.949 . S
C337 C336 1.339 . S
C337 C338 1.439 . S
C337 H366 0.950 . S
C338 N334 1.383 . S
C338 C337 1.439 . S
C338 C356 1.392 . S
N339 Co323 2.282 . S
N339 C342 1.332 . S
N339 C344 1.332 . S
C340 C341 1.386 . S
C340 C343 1.388 . S
C341 C340 1.386 . S
C341 C342 1.382 . S
C341 H367 0.950 . S
C342 N339 1.332 . S
C342 C341 1.382 . S
C342 H353 0.952 . S
C343 C340 1.388 . S
C343 C344 1.382 . S
C343 H368 0.950 . S
C344 N339 1.332 . S
C344 C343 1.382 . S
C344 H354 0.948 . S
N345 Co323 2.282 1_554 S
N345 C349 1.332 . S
N345 C350 1.332 . S
C346 C347 1.388 . S
C346 C350 1.382 . S
C346 H369 0.950 . S
C347 C346 1.388 . S
C347 C348 1.386 . S
C348 C347 1.386 . S
C348 C349 1.382 . S
C348 H370 0.950 . S
C349 N345 1.332 . S
C349 C348 1.382 . S
C349 H351 0.952 . S
C350 N345 1.332 . S
C350 C346 1.382 . S
C350 H352 0.948 . S
H351 C349 0.952 . S
H352 C350 0.948 . S
H353 C342 0.952 . S
H354 C344 0.948 . S
C355 C321 1.395 . S
C355 C325 1.391 . S
C356 C318 1.389 1_554 S
C356 C338 1.392 . S
C357 C328 1.392 . S
C357 C330 1.389 1_556 S
C358 C333 1.395 . S
C358 C335 1.391 . S
H359 C319 0.951 . S
H360 C320 0.950 . S
H361 C326 0.949 . S
H362 C327 0.950 . S
H363 C331 0.951 . S
H364 C332 0.950 . S
H365 C336 0.949 . S
H366 C337 0.950 . S
H367 C341 0.950 . S
H368 C343 0.950 . S
H369 C346 0.950 . S
H370 C348 0.950 . S
C371 C372 1.443 . S
C371 N375 1.376 . S
C371 C409 1.389 . S
C372 C371 1.443 . S
C372 C373 1.340 . S
C372 H412 0.951 . S
C373 C372 1.340 . S
C373 C374 1.439 1_556 S
C373 H413 0.950 . S
C374 C373 1.439 1_554 S
C374 N375 1.374 1_554 S
C374 C408 1.395 . S
N375 C371 1.376 . S
N375 C374 1.374 1_556 S
N375 Co376 2.008 . S
Co376 N375 2.008 . S
Co376 N377 1.995 1_556 S
Co376 N382 2.008 1_556 S
Co376 N387 1.995 . S
Co376 N392 2.282 1_556 S
Co376 N398 2.282 . S
N377 Co376 1.995 1_554 S
N377 C378 1.376 . S
N377 C381 1.383 . S
C378 N377 1.376 . S
C378 C379 1.446 . S
C378 C408 1.391 . S
C379 C378 1.446 . S
C379 C380 1.339 . S
C379 H414 0.949 . S
C380 C379 1.339 . S
C380 C381 1.439 . S
C380 H415 0.950 . S
C381 N377 1.383 . S
C381 C380 1.439 . S
C381 C410 1.392 . S
N382 Co376 2.008 1_554 S
N382 C383 1.376 . S
N382 C386 1.374 1_554 S
C383 N382 1.376 . S
C383 C384 1.443 . S
C383 C410 1.389 . S
C384 C383 1.443 . S
C384 C385 1.340 . S
C384 H416 0.951 . S
C385 C384 1.340 . S
C385 C386 1.439 1_554 S
C385 H417 0.950 . S
C386 N382 1.374 1_556 S
C386 C385 1.439 1_556 S
C386 C411 1.395 . S
N387 Co376 1.995 . S
N387 C388 1.376 . S
N387 C391 1.383 . S
C388 N387 1.376 . S
C388 C389 1.446 . S
C388 C411 1.391 . S
C389 C388 1.446 . S
C389 C390 1.339 . S
C389 H418 0.949 . S
C390 C389 1.339 . S
C390 C391 1.439 . S
C390 H419 0.950 . S
C391 N387 1.383 . S
C391 C390 1.439 . S
C391 C409 1.392 . S
N392 Co376 2.282 1_554 S
N392 C395 1.332 1_554 S
N392 C397 1.332 . S
C393 C394 1.386 1_554 S
C393 C396 1.388 . S
C394 C393 1.386 1_556 S
C394 C395 1.382 . S
C394 H420 0.950 . S
C395 N392 1.332 1_556 S
C395 C394 1.382 . S
C395 H406 0.952 . S
C396 C393 1.388 . S
C396 C397 1.382 . S
C396 H421 0.950 . S
C397 N392 1.332 . S
C397 C396 1.382 . S
C397 H407 0.948 . S
N398 Co376 2.282 . S
N398 C402 1.332 1_556 S
N398 C403 1.332 . S
C399 C400 1.388 . S
C399 C403 1.382 . S
C399 H422 0.950 . S
C400 C399 1.388 . S
C400 C401 1.386 1_556 S
C401 C400 1.386 1_554 S
C401 C402 1.382 . S
C401 H423 0.950 . S
C402 N398 1.332 1_554 S
C402 C401 1.382 . S
C402 H404 0.952 . S
C403 N398 1.332 . S
C403 C399 1.382 . S
C403 H405 0.948 . S
H404 C402 0.952 . S
H405 C403 0.948 . S
H406 C395 0.952 . S
H407 C397 0.948 . S
C408 C374 1.395 . S
C408 C378 1.391 . S
C409 C371 1.389 . S
C409 C391 1.392 . S
C410 C381 1.392 . S
C410 C383 1.389 . S
C411 C386 1.395 . S
C411 C388 1.391 . S
H412 C372 0.951 . S
H413 C373 0.950 . S
H414 C379 0.949 . S
H415 C380 0.950 . S
H416 C384 0.951 . S
H417 C385 0.950 . S
H418 C389 0.949 . S
H419 C390 0.950 . S
H420 C394 0.950 . S
H421 C396 0.950 . S
H422 C399 0.950 . S
H423 C401 0.950 . S
C424 C425 1.443 . S
C424 N428 1.376 . S
C424 C462 1.389 . S
C425 C424 1.443 . S
C425 C426 1.340 . S
C425 H465 0.951 . S
C426 C425 1.340 . S
C426 C427 1.439 1_556 S
C426 H466 0.950 . S
C427 C426 1.439 1_554 S
C427 N428 1.374 1_554 S
C427 C461 1.395 . S
N428 C424 1.376 . S
N428 C427 1.374 1_556 S
N428 Co429 2.008 . S
Co429 N428 2.008 . S
Co429 N430 1.995 1_556 S
Co429 N435 2.008 1_556 S
Co429 N440 1.995 . S
Co429 N445 2.282 1_556 S
Co429 N451 2.281 . S
N430 Co429 1.995 1_554 S
N430 C431 1.376 . S
N430 C434 1.383 . S
C431 N430 1.376 . S
C431 C432 1.446 . S
C431 C461 1.391 . S
C432 C431 1.446 . S
C432 C433 1.339 . S
C432 H467 0.949 . S
C433 C432 1.339 . S
C433 C434 1.439 . S
C433 H468 0.950 . S
C434 N430 1.383 . S
C434 C433 1.439 . S
C434 C463 1.392 . S
N435 Co429 2.008 1_554 S
N435 C436 1.376 . S
N435 C439 1.374 1_554 S
C436 N435 1.376 . S
C436 C437 1.443 . S
C436 C463 1.389 . S
C437 C436 1.443 . S
C437 C438 1.340 . S
C437 H469 0.951 . S
C438 C437 1.340 . S
C438 C439 1.439 1_554 S
C438 H470 0.950 . S
C439 N435 1.374 1_556 S
C439 C438 1.439 1_556 S
C439 C464 1.395 . S
N440 Co429 1.995 . S
N440 C441 1.376 . S
N440 C444 1.383 . S
C441 N440 1.376 . S
C441 C442 1.446 . S
C441 C464 1.391 . S
C442 C441 1.446 . S
C442 C443 1.339 . S
C442 H471 0.949 . S
C443 C442 1.339 . S
C443 C444 1.439 . S
C443 H472 0.950 . S
C444 N440 1.383 . S
C444 C443 1.439 . S
C444 C462 1.392 . S
N445 Co429 2.282 1_554 S
N445 C448 1.325 1_554 S
N445 C450 1.343 . S
C446 C447 1.386 1_554 S
C446 C449 1.388 . S
C447 C446 1.386 1_556 S
C447 C448 1.382 . S
C447 H473 0.950 . S
C448 N445 1.325 1_556 S
C448 C447 1.382 . S
C448 H459 0.952 . S
C449 C446 1.388 . S
C449 C450 1.382 . S
C449 H474 0.950 . S
C450 N445 1.343 . S
C450 C449 1.382 . S
C450 H460 0.948 . S
N451 Co429 2.281 . S
N451 C455 1.322 1_556 S
N451 C456 1.347 . S
C452 C453 1.388 . S
C452 C456 1.382 . S
C452 H475 0.950 . S
C453 C452 1.388 . S
C453 C454 1.386 1_556 S
C454 C453 1.386 1_554 S
C454 C455 1.382 . S
C454 H476 0.950 . S
C455 N451 1.322 1_554 S
C455 C454 1.382 . S
C455 H457 0.952 . S
C456 N451 1.347 . S
C456 C452 1.382 . S
C456 H458 0.948 . S
H457 C455 0.952 . S
H458 C456 0.948 . S
H459 C448 0.952 . S
H460 C450 0.948 . S
C461 C427 1.395 . S
C461 C431 1.391 . S
C462 C424 1.389 . S
C462 C444 1.392 . S
C463 C434 1.392 . S
C463 C436 1.389 . S
C464 C439 1.395 . S
C464 C441 1.391 . S
H465 C425 0.951 . S
H466 C426 0.950 . S
H467 C432 0.949 . S
H468 C433 0.950 . S
H469 C437 0.951 . S
H470 C438 0.950 . S
H471 C442 0.949 . S
H472 C443 0.950 . S
H473 C447 0.950 . S
H474 C449 0.950 . S
H475 C452 0.950 . S
H476 C454 0.950 . S
C477 C478 1.443 . S
C477 N481 1.376 . S
C477 C515 1.389 . S
C478 C477 1.443 . S
C478 C479 1.340 . S
C478 H518 0.951 . S
C479 C478 1.340 . S
C479 C480 1.439 1_554 S
C479 H519 0.950 . S
C480 C479 1.439 1_556 S
C480 N481 1.374 1_556 S
C480 C514 1.395 . S
N481 C477 1.376 . S
N481 C480 1.374 1_554 S
N481 Co482 2.008 . S
Co482 N481 2.008 . S
Co482 N483 1.995 1_554 S
Co482 N488 2.008 1_554 S
Co482 N493 1.995 . S
Co482 N498 2.282 1_554 S
Co482 N504 2.281 . S
N483 Co482 1.995 1_556 S
N483 C484 1.376 . S
N483 C487 1.383 . S
C484 N483 1.376 . S
C484 C485 1.446 . S
C484 C514 1.391 . S
C485 C484 1.446 . S
C485 C486 1.339 . S
C485 H520 0.949 . S
C486 C485 1.339 . S
C486 C487 1.439 . S
C486 H521 0.950 . S
C487 N483 1.383 . S
C487 C486 1.439 . S
C487 C516 1.392 . S
N488 Co482 2.008 1_556 S
N488 C489 1.376 . S
N488 C492 1.374 1_556 S
C489 N488 1.376 . S
C489 C490 1.443 . S
C489 C516 1.389 . S
C490 C489 1.443 . S
C490 C491 1.340 . S
C490 H522 0.951 . S
C491 C490 1.340 . S
C491 C492 1.439 1_556 S
C491 H523 0.950 . S
C492 N488 1.374 1_554 S
C492 C491 1.439 1_554 S
C492 C517 1.395 . S
N493 Co482 1.995 . S
N493 C494 1.376 . S
N493 C497 1.383 . S
C494 N493 1.376 . S
C494 C495 1.446 . S
C494 C517 1.391 . S
C495 C494 1.446 . S
C495 C496 1.339 . S
C495 H524 0.949 . S
C496 C495 1.339 . S
C496 C497 1.439 . S
C496 H525 0.950 . S
C497 N493 1.383 . S
C497 C496 1.439 . S
C497 C515 1.392 . S
N498 Co482 2.282 1_556 S
N498 C501 1.325 1_556 S
N498 C503 1.342 . S
C499 C500 1.386 1_556 S
C499 C502 1.388 . S
C500 C499 1.386 1_554 S
C500 C501 1.382 . S
C500 H526 0.950 . S
C501 N498 1.325 1_554 S
C501 C500 1.382 . S
C501 H512 0.952 . S
C502 C499 1.388 . S
C502 C503 1.382 . S
C502 H527 0.950 . S
C503 N498 1.342 . S
C503 C502 1.382 . S
C503 H513 0.948 . S
N504 Co482 2.281 . S
N504 C508 1.322 1_554 S
N504 C509 1.347 . S
C505 C506 1.388 . S
C505 C509 1.382 . S
C505 H528 0.950 . S
C506 C505 1.388 . S
C506 C507 1.386 1_554 S
C507 C506 1.386 1_556 S
C507 C508 1.382 . S
C507 H529 0.950 . S
C508 N504 1.322 1_556 S
C508 C507 1.382 . S
C508 H510 0.952 . S
C509 N504 1.347 . S
C509 C505 1.382 . S
C509 H511 0.948 . S
H510 C508 0.952 . S
H511 C509 0.948 . S
H512 C501 0.952 . S
H513 C503 0.948 . S
C514 C480 1.395 . S
C514 C484 1.391 . S
C515 C477 1.389 . S
C515 C497 1.392 . S
C516 C487 1.392 . S
C516 C489 1.389 . S
C517 C492 1.395 . S
C517 C494 1.391 . S
H518 C478 0.951 . S
H519 C479 0.950 . S
H520 C485 0.949 . S
H521 C486 0.950 . S
H522 C490 0.951 . S
H523 C491 0.950 . S
H524 C495 0.949 . S
H525 C496 0.950 . S
H526 C500 0.950 . S
H527 C502 0.950 . S
H528 C505 0.950 . S
H529 C507 0.950 . S
C530 C531 1.443 . S
C530 N534 1.376 . S
C530 C568 1.389 . S
C531 C530 1.443 . S
C531 C532 1.340 . S
C531 H571 0.951 . S
C532 C531 1.340 . S
C532 C533 1.439 1_554 S
C532 H572 0.950 . S
C533 C532 1.439 1_556 S
C533 N534 1.374 1_556 S
C533 C567 1.395 . S
N534 C530 1.376 . S
N534 C533 1.374 1_554 S
N534 Co535 2.008 . S
Co535 N534 2.008 . S
Co535 N536 1.995 1_554 S
Co535 N541 2.008 1_554 S
Co535 N546 1.995 . S
Co535 N551 2.282 1_554 S
Co535 N557 2.282 . S
N536 Co535 1.995 1_556 S
N536 C537 1.376 . S
N536 C540 1.383 . S
C537 N536 1.376 . S
C537 C538 1.446 . S
C537 C567 1.391 . S
C538 C537 1.446 . S
C538 C539 1.339 . S
C538 H573 0.949 . S
C539 C538 1.339 . S
C539 C540 1.439 . S
C539 H574 0.950 . S
C540 N536 1.383 . S
C540 C539 1.439 . S
C540 C569 1.392 . S
N541 Co535 2.008 1_556 S
N541 C542 1.376 . S
N541 C545 1.374 1_556 S
C542 N541 1.376 . S
C542 C543 1.443 . S
C542 C569 1.389 . S
C543 C542 1.443 . S
C543 C544 1.340 . S
C543 H575 0.951 . S
C544 C543 1.340 . S
C544 C545 1.439 1_556 S
C544 H576 0.950 . S
C545 N541 1.374 1_554 S
C545 C544 1.439 1_554 S
C545 C570 1.395 . S
N546 Co535 1.995 . S
N546 C547 1.376 . S
N546 C550 1.383 . S
C547 N546 1.376 . S
C547 C548 1.446 . S
C547 C570 1.391 . S
C548 C547 1.446 . S
C548 C549 1.339 . S
C548 H577 0.949 . S
C549 C548 1.339 . S
C549 C550 1.439 . S
C549 H578 0.950 . S
C550 N546 1.383 . S
C550 C549 1.439 . S
C550 C568 1.392 . S
N551 Co535 2.282 1_556 S
N551 C554 1.332 1_556 S
N551 C556 1.332 . S
C552 C553 1.386 1_556 S
C552 C555 1.388 . S
C553 C552 1.386 1_554 S
C553 C554 1.382 . S
C553 H579 0.950 . S
C554 N551 1.332 1_554 S
C554 C553 1.382 . S
C554 H565 0.952 . S
C555 C552 1.388 . S
C555 C556 1.382 . S
C555 H580 0.950 . S
C556 N551 1.332 . S
C556 C555 1.382 . S
C556 H566 0.948 . S
N557 Co535 2.282 . S
N557 C561 1.332 1_554 S
N557 C562 1.332 . S
C558 C559 1.388 . S
C558 C562 1.382 . S
C558 H581 0.950 . S
C559 C558 1.388 . S
C559 C560 1.386 1_554 S
C560 C559 1.386 1_556 S
C560 C561 1.382 . S
C560 H582 0.950 . S
C561 N557 1.332 1_556 S
C561 C560 1.382 . S
C561 H563 0.952 . S
C562 N557 1.332 . S
C562 C558 1.382 . S
C562 H564 0.948 . S
H563 C561 0.952 . S
H564 C562 0.948 . S
H565 C554 0.952 . S
H566 C556 0.948 . S
C567 C533 1.395 . S
C567 C537 1.391 . S
C568 C530 1.389 . S
C568 C550 1.392 . S
C569 C540 1.392 . S
C569 C542 1.389 . S
C570 C545 1.395 . S
C570 C547 1.391 . S
H571 C531 0.951 . S
H572 C532 0.950 . S
H573 C538 0.949 . S
H574 C539 0.950 . S
H575 C543 0.951 . S
H576 C544 0.950 . S
H577 C548 0.949 . S
H578 C549 0.950 . S
H579 C553 0.950 . S
H580 C555 0.950 . S
H581 C558 0.950 . S
H582 C560 0.950 . S
C583 C584 1.443 . S
C583 N587 1.376 . S
C583 C621 1.389 1_554 S
C584 C583 1.443 . S
C584 C585 1.340 . S
C584 H624 0.951 . S
C585 C584 1.340 . S
C585 C586 1.439 . S
C585 H625 0.950 . S
C586 C585 1.439 . S
C586 N587 1.374 . S
C586 C620 1.395 . S
N587 C583 1.376 . S
N587 C586 1.374 . S
N587 Co588 2.008 . S
Co588 N587 2.008 . S
Co588 N589 1.995 . S
Co588 N594 2.008 1_554 S
Co588 N599 1.995 1_554 S
Co588 N604 2.282 . S
Co588 N610 2.282 1_554 S
N589 Co588 1.995 . S
N589 C590 1.376 . S
N589 C593 1.383 . S
C590 N589 1.376 . S
C590 C591 1.446 . S
C590 C620 1.391 . S
C591 C590 1.446 . S
C591 C592 1.339 . S
C591 H626 0.949 . S
C592 C591 1.339 . S
C592 C593 1.439 . S
C592 H627 0.950 . S
C593 N589 1.383 . S
C593 C592 1.439 . S
C593 C622 1.392 . S
N594 Co588 2.008 1_556 S
N594 C595 1.376 . S
N594 C598 1.374 . S
C595 N594 1.376 . S
C595 C596 1.443 . S
C595 C622 1.389 1_556 S
C596 C595 1.443 . S
C596 C597 1.340 . S
C596 H628 0.951 . S
C597 C596 1.340 . S
C597 C598 1.439 . S
C597 H629 0.950 . S
C598 N594 1.374 . S
C598 C597 1.439 . S
C598 C623 1.395 . S
N599 Co588 1.995 1_556 S
N599 C600 1.376 . S
N599 C603 1.383 . S
C600 N599 1.376 . S
C600 C601 1.446 . S
C600 C623 1.391 . S
C601 C600 1.446 . S
C601 C602 1.339 . S
C601 H630 0.949 . S
C602 C601 1.339 . S
C602 C603 1.439 . S
C602 H631 0.950 . S
C603 N599 1.383 . S
C603 C602 1.439 . S
C603 C621 1.392 . S
N604 Co588 2.282 . S
N604 C607 1.332 . S
N604 C609 1.332 . S
C605 C606 1.386 . S
C605 C608 1.388 . S
C606 C605 1.386 . S
C606 C607 1.382 . S
C606 H632 0.950 . S
C607 N604 1.332 . S
C607 C606 1.382 . S
C607 H618 0.952 . S
C608 C605 1.388 . S
C608 C609 1.382 . S
C608 H633 0.950 . S
C609 N604 1.332 . S
C609 C608 1.382 . S
C609 H619 0.948 . S
N610 Co588 2.282 1_556 S
N610 C614 1.332 . S
N610 C615 1.332 . S
C611 C612 1.388 . S
C611 C615 1.382 . S
C611 H634 0.950 . S
C612 C611 1.388 . S
C612 C613 1.386 . S
C613 C612 1.386 . S
C613 C614 1.382 . S
C613 H635 0.950 . S
C614 N610 1.332 . S
C614 C613 1.382 . S
C614 H616 0.952 . S
C615 N610 1.332 . S
C615 C611 1.382 . S
C615 H617 0.948 . S
H616 C614 0.952 . S
H617 C615 0.948 . S
H618 C607 0.952 . S
H619 C609 0.948 . S
C620 C586 1.395 . S
C620 C590 1.391 . S
C621 C583 1.389 1_556 S
C621 C603 1.392 . S
C622 C593 1.392 . S
C622 C595 1.389 1_554 S
C623 C598 1.395 . S
C623 C600 1.391 . S
H624 C584 0.951 . S
H625 C585 0.950 . S
H626 C591 0.949 . S
H627 C592 0.950 . S
H628 C596 0.951 . S
H629 C597 0.950 . S
H630 C601 0.949 . S
H631 C602 0.950 . S
H632 C606 0.950 . S
H633 C608 0.950 . S
H634 C611 0.950 . S
H635 C613 0.950 . S
C636 C637 1.443 . S
C636 N640 1.376 . S
C636 C674 1.389 . S
C637 C636 1.443 . S
C637 C638 1.340 . S
C637 H677 0.951 . S
C638 C637 1.340 . S
C638 C639 1.439 . S
C638 H678 0.950 . S
C639 C638 1.439 . S
C639 N640 1.374 . S
C639 C673 1.395 . S
N640 C636 1.376 . S
N640 C639 1.374 . S
N640 Co641 2.008 . S
Co641 N640 2.008 . S
Co641 N642 1.995 . S
Co641 N647 2.008 . S
Co641 N652 1.995 . S
Co641 N657 2.282 . S
Co641 N663 2.282 . S
N642 Co641 1.995 . S
N642 C643 1.376 . S
N642 C646 1.383 . S
C643 N642 1.376 . S
C643 C644 1.446 . S
C643 C673 1.391 . S
C644 C643 1.446 . S
C644 C645 1.339 . S
C644 H679 0.949 . S
C645 C644 1.339 . S
C645 C646 1.439 . S
C645 H680 0.950 . S
C646 N642 1.383 . S
C646 C645 1.439 . S
C646 C675 1.392 . S
N647 Co641 2.008 . S
N647 C648 1.376 . S
N647 C651 1.374 . S
C648 N647 1.376 . S
C648 C649 1.443 . S
C648 C675 1.389 . S
C649 C648 1.443 . S
C649 C650 1.340 . S
C649 H681 0.951 . S
C650 C649 1.340 . S
C650 C651 1.439 . S
C650 H682 0.950 . S
C651 N647 1.374 . S
C651 C650 1.439 . S
C651 C676 1.395 . S
N652 Co641 1.995 . S
N652 C653 1.376 . S
N652 C656 1.383 . S
C653 N652 1.376 . S
C653 C654 1.446 . S
C653 C676 1.391 . S
C654 C653 1.446 . S
C654 C655 1.339 . S
C654 H683 0.949 . S
C655 C654 1.339 . S
C655 C656 1.439 . S
C655 H684 0.950 . S
C656 N652 1.383 . S
C656 C655 1.439 . S
C656 C674 1.392 . S
N657 Co641 2.282 . S
N657 C660 1.332 . S
N657 C662 1.332 . S
C658 C659 1.386 . S
C658 C661 1.388 . S
C659 C658 1.386 . S
C659 C660 1.382 . S
C659 H685 0.950 . S
C660 N657 1.332 . S
C660 C659 1.382 . S
C660 H671 0.952 . S
C661 C658 1.388 . S
C661 C662 1.382 . S
C661 H686 0.950 . S
C662 N657 1.332 . S
C662 C661 1.382 . S
C662 H672 0.948 . S
N663 Co641 2.282 . S
N663 C667 1.332 . S
N663 C668 1.332 . S
C664 C665 1.388 . S
C664 C668 1.382 . S
C664 H687 0.950 . S
C665 C664 1.388 . S
C665 C666 1.386 . S
C666 C665 1.386 . S
C666 C667 1.382 . S
C666 H688 0.950 . S
C667 N663 1.332 . S
C667 C666 1.382 . S
C667 H669 0.952 . S
C668 N663 1.332 . S
C668 C664 1.382 . S
C668 H670 0.948 . S
H669 C667 0.952 . S
H670 C668 0.948 . S
H671 C660 0.952 . S
H672 C662 0.948 . S
C673 C639 1.395 . S
C673 C643 1.391 . S
C674 C636 1.389 . S
C674 C656 1.392 . S
C675 C646 1.392 . S
C675 C648 1.389 . S
C676 C651 1.395 . S
C676 C653 1.391 . S
H677 C637 0.951 . S
H678 C638 0.950 . S
H679 C644 0.949 . S
H680 C645 0.950 . S
H681 C649 0.951 . S
H682 C650 0.950 . S
H683 C654 0.949 . S
H684 C655 0.950 . S
H685 C659 0.950 . S
H686 C661 0.950 . S
H687 C664 0.950 . S
H688 C666 0.950 . S
C689 C690 1.443 . S
C689 N693 1.376 . S
C689 C727 1.389 . S
C690 C689 1.443 . S
C690 C691 1.340 . S
C690 H730 0.951 . S
C691 C690 1.340 . S
C691 C692 1.439 . S
C691 H731 0.950 . S
C692 C691 1.439 . S
C692 N693 1.374 . S
C692 C726 1.395 . S
N693 C689 1.376 . S
N693 C692 1.374 . S
N693 Co694 2.008 . S
Co694 N693 2.008 . S
Co694 N695 1.995 . S
Co694 N700 2.008 . S
Co694 N705 1.995 . S
Co694 N710 2.282 . S
Co694 N716 2.282 . S
N695 Co694 1.995 . S
N695 C696 1.376 . S
N695 C699 1.383 . S
C696 N695 1.376 . S
C696 C697 1.446 . S
C696 C726 1.391 . S
C697 C696 1.446 . S
C697 C698 1.339 . S
C697 H732 0.949 . S
C698 C697 1.339 . S
C698 C699 1.439 . S
C698 H733 0.950 . S
C699 N695 1.383 . S
C699 C698 1.439 . S
C699 C728 1.392 . S
N700 Co694 2.008 . S
N700 C701 1.376 . S
N700 C704 1.374 . S
C701 N700 1.376 . S
C701 C702 1.443 . S
C701 C728 1.389 . S
C702 C701 1.443 . S
C702 C703 1.340 . S
C702 H734 0.951 . S
C703 C702 1.340 . S
C703 C704 1.439 . S
C703 H735 0.950 . S
C704 N700 1.374 . S
C704 C703 1.439 . S
C704 C729 1.395 . S
N705 Co694 1.995 . S
N705 C706 1.376 . S
N705 C709 1.383 . S
C706 N705 1.376 . S
C706 C707 1.446 . S
C706 C729 1.391 . S
C707 C706 1.446 . S
C707 C708 1.339 . S
C707 H736 0.949 1_545 S
C708 C707 1.339 . S
C708 C709 1.439 . S
C708 H737 0.950 1_545 S
C709 N705 1.383 . S
C709 C708 1.439 . S
C709 C727 1.392 . S
N710 Co694 2.282 . S
N710 C713 1.332 . S
N710 C715 1.332 . S
C711 C712 1.386 . S
C711 C714 1.388 . S
C712 C711 1.386 . S
C712 C713 1.382 . S
C712 H738 0.950 . S
C713 N710 1.332 . S
C713 C712 1.382 . S
C713 H724 0.952 . S
C714 C711 1.388 . S
C714 C715 1.382 . S
C714 H739 0.950 . S
C715 N710 1.332 . S
C715 C714 1.382 . S
C715 H725 0.948 . S
N716 Co694 2.282 . S
N716 C720 1.332 . S
N716 C721 1.332 . S
C717 C718 1.388 . S
C717 C721 1.382 1_565 S
C717 H740 0.950 . S
C718 C717 1.388 . S
C718 C719 1.386 1_565 S
C719 C718 1.386 1_545 S
C719 C720 1.382 . S
C719 H741 0.950 . S
C720 N716 1.332 . S
C720 C719 1.382 . S
C720 H722 0.952 . S
C721 N716 1.332 . S
C721 C717 1.382 1_545 S
C721 H723 0.938 . S
H722 C720 0.952 . S
H723 C721 0.938 . S
H724 C713 0.952 . S
H725 C715 0.948 . S
C726 C692 1.395 . S
C726 C696 1.391 . S
C727 C689 1.389 . S
C727 C709 1.392 . S
C728 C699 1.392 . S
C728 C701 1.389 . S
C729 C704 1.395 . S
C729 C706 1.391 . S
H730 C690 0.951 . S
H731 C691 0.950 . S
H732 C697 0.949 . S
H733 C698 0.950 . S
H734 C702 0.951 . S
H735 C703 0.950 . S
H736 C707 0.949 1_565 S
H737 C708 0.950 1_565 S
H738 C712 0.950 . S
H739 C714 0.950 . S
H740 C717 0.950 . S
H741 C719 0.950 . S
C742 C743 1.443 . S
C742 N746 1.376 . S
C742 C780 1.389 . S
C743 C742 1.443 . S
C743 C744 1.340 . S
C743 H783 0.951 . S
C744 C743 1.340 . S
C744 C745 1.439 . S
C744 H784 0.950 . S
C745 C744 1.439 . S
C745 N746 1.374 . S
C745 C779 1.395 . S
N746 C742 1.376 . S
N746 C745 1.374 . S
N746 Co747 2.008 . S
Co747 N746 2.008 . S
Co747 N748 1.995 . S
Co747 N753 2.008 . S
Co747 N758 1.995 . S
Co747 N763 2.282 . S
Co747 N769 2.282 . S
N748 Co747 1.995 . S
N748 C749 1.376 . S
N748 C752 1.383 . S
C749 N748 1.376 . S
C749 C750 1.446 . S
C749 C779 1.391 . S
C750 C749 1.446 . S
C750 C751 1.339 . S
C750 H785 0.949 . S
C751 C750 1.339 . S
C751 C752 1.439 . S
C751 H786 0.950 . S
C752 N748 1.383 . S
C752 C751 1.439 . S
C752 C781 1.392 . S
N753 Co747 2.008 . S
N753 C754 1.376 . S
N753 C757 1.374 . S
C754 N753 1.376 . S
C754 C755 1.443 . S
C754 C781 1.389 . S
C755 C754 1.443 . S
C755 C756 1.340 . S
C755 H787 0.951 . S
C756 C755 1.340 . S
C756 C757 1.439 . S
C756 H788 0.950 . S
C757 N753 1.374 . S
C757 C756 1.439 . S
C757 C782 1.395 . S
N758 Co747 1.995 . S
N758 C759 1.376 . S
N758 C762 1.383 . S
C759 N758 1.376 . S
C759 C760 1.446 . S
C759 C782 1.391 . S
C760 C759 1.446 . S
C760 C761 1.339 . S
C760 H789 0.949 1_655 S
C761 C760 1.339 . S
C761 C762 1.439 . S
C761 H790 0.950 1_655 S
C762 N758 1.383 . S
C762 C761 1.439 . S
C762 C780 1.392 . S
N763 Co747 2.282 . S
N763 C766 1.332 . S
N763 C768 1.332 . S
C764 C765 1.386 . S
C764 C767 1.388 . S
C765 C764 1.386 . S
C765 C766 1.382 . S
C765 H791 0.950 . S
C766 N763 1.332 . S
C766 C765 1.382 . S
C766 H777 0.952 . S
C767 C764 1.388 . S
C767 C768 1.382 . S
C767 H792 0.950 . S
C768 N763 1.332 . S
C768 C767 1.382 . S
C768 H778 0.948 . S
N769 Co747 2.282 . S
N769 C773 1.332 . S
N769 C774 1.332 . S
C770 C771 1.388 . S
C770 C774 1.382 1_455 S
C770 H793 0.950 . S
C771 C770 1.388 . S
C771 C772 1.386 1_455 S
C772 C771 1.386 1_655 S
C772 C773 1.382 . S
C772 H794 0.950 . S
C773 N769 1.332 . S
C773 C772 1.382 . S
C773 H775 0.952 . S
C774 N769 1.332 . S
C774 C770 1.382 1_655 S
C774 H776 0.948 . S
H775 C773 0.952 . S
H776 C774 0.948 . S
H777 C766 0.952 . S
H778 C768 0.948 . S
C779 C745 1.395 . S
C779 C749 1.391 . S
C780 C742 1.389 . S
C780 C762 1.392 . S
C781 C752 1.392 . S
C781 C754 1.389 . S
C782 C757 1.395 . S
C782 C759 1.391 . S
H783 C743 0.951 . S
H784 C744 0.950 . S
H785 C750 0.949 . S
H786 C751 0.950 . S
H787 C755 0.951 . S
H788 C756 0.950 . S
H789 C760 0.949 1_455 S
H790 C761 0.950 1_455 S
H791 C765 0.950 . S
H792 C767 0.950 . S
H793 C770 0.950 . S
H794 C772 0.950 . S
C795 C796 1.443 . S
C795 N799 1.376 . S
C795 C833 1.389 . S
C796 C795 1.443 . S
C796 C797 1.340 . S
C796 H836 0.951 . S
C797 C796 1.340 . S
C797 C798 1.439 . S
C797 H837 0.950 . S
C798 C797 1.439 . S
C798 N799 1.374 . S
C798 C832 1.395 . S
N799 C795 1.376 . S
N799 C798 1.374 . S
N799 Co800 2.008 . S
Co800 N799 2.008 . S
Co800 N801 1.995 . S
Co800 N806 2.008 . S
Co800 N811 1.995 . S
Co800 N816 2.282 . S
Co800 N822 2.282 . S
N801 Co800 1.995 . S
N801 C802 1.376 . S
N801 C805 1.383 . S
C802 N801 1.376 . S
C802 C803 1.414 1_455 S
C802 C832 1.391 . S
C803 C802 1.414 1_655 S
C803 C804 1.329 1_655 S
C803 H838 0.985 . S
C804 C803 1.329 1_455 S
C804 C805 1.439 . S
C804 H839 0.950 1_455 S
C805 N801 1.383 . S
C805 C804 1.439 . S
C805 C834 1.392 . S
N806 Co800 2.008 . S
N806 C807 1.376 . S
N806 C810 1.374 . S
C807 N806 1.376 . S
C807 C808 1.443 . S
C807 C834 1.389 . S
C808 C807 1.443 . S
C808 C809 1.340 . S
C808 H840 0.951 . S
C809 C808 1.340 . S
C809 C810 1.439 . S
C809 H841 0.950 . S
C810 N806 1.374 . S
C810 C809 1.439 . S
C810 C835 1.395 . S
N811 Co800 1.995 . S
N811 C812 1.376 . S
N811 C815 1.383 . S
C812 N811 1.376 . S
C812 C813 1.446 . S
C812 C835 1.391 . S
C813 C812 1.446 . S
C813 C814 1.339 . S
C813 H842 0.949 . S
C814 C813 1.339 . S
C814 C815 1.439 . S
C814 H843 0.950 . S
C815 N811 1.383 . S
C815 C814 1.439 . S
C815 C833 1.392 . S
N816 Co800 2.282 . S
N816 C819 1.332 . S
N816 C821 1.332 . S
C817 C818 1.386 . S
C817 C820 1.388 . S
C818 C817 1.386 . S
C818 C819 1.382 . S
C818 H844 0.950 . S
C819 N816 1.332 . S
C819 C818 1.382 . S
C819 H830 0.952 . S
C820 C817 1.388 . S
C820 C821 1.382 . S
C820 H845 0.950 . S
C821 N816 1.332 . S
C821 C820 1.382 . S
C821 H831 0.948 . S
N822 Co800 2.282 . S
N822 C826 1.332 . S
N822 C827 1.332 . S
C823 C824 1.388 . S
C823 C827 1.382 . S
C823 H846 0.950 . S
C824 C823 1.388 . S
C824 C825 1.386 . S
C825 C824 1.386 . S
C825 C826 1.382 . S
C825 H847 0.950 . S
C826 N822 1.332 . S
C826 C825 1.382 . S
C826 H828 0.952 . S
C827 N822 1.332 . S
C827 C823 1.382 . S
C827 H829 0.948 . S
H828 C826 0.952 . S
H829 C827 0.948 . S
H830 C819 0.952 . S
H831 C821 0.948 . S
C832 C798 1.395 . S
C832 C802 1.391 . S
C833 C795 1.389 . S
C833 C815 1.392 . S
C834 C805 1.392 . S
C834 C807 1.389 . S
C835 C810 1.395 . S
C835 C812 1.391 . S
H836 C796 0.951 . S
H837 C797 0.950 . S
H838 C803 0.985 . S
H839 C804 0.950 1_655 S
H840 C808 0.951 . S
H841 C809 0.950 . S
H842 C813 0.949 . S
H843 C814 0.950 . S
H844 C818 0.950 . S
H845 C820 0.950 . S
H846 C823 0.950 . S
H847 C825 0.950 . S
C848 C849 1.443 . S
C848 N852 1.376 . S
C848 C886 1.389 . S
C849 C848 1.443 . S
C849 C850 1.340 . S
C849 H889 0.951 . S
C850 C849 1.340 . S
C850 C851 1.439 . S
C850 H890 0.950 . S
C851 C850 1.439 . S
C851 N852 1.374 . S
C851 C885 1.395 . S
N852 C848 1.376 . S
N852 C851 1.374 . S
N852 Co853 2.008 . S
Co853 N852 2.008 . S
Co853 N854 1.995 . S
Co853 N859 2.008 . S
Co853 N864 1.995 . S
Co853 N869 2.282 . S
Co853 N875 2.282 . S
N854 Co853 1.995 . S
N854 C855 1.376 . S
N854 C858 1.383 . S
C855 N854 1.376 . S
C855 C856 1.446 . S
C855 C885 1.391 . S
C856 C855 1.446 . S
C856 C857 1.339 . S
C856 H891 0.949 . S
C857 C856 1.339 . S
C857 C858 1.439 . S
C857 H892 0.950 . S
C858 N854 1.383 . S
C858 C857 1.439 . S
C858 C887 1.392 . S
N859 Co853 2.008 . S
N859 C860 1.376 . S
N859 C863 1.374 . S
C860 N859 1.376 . S
C860 C861 1.443 . S
C860 C887 1.389 . S
C861 C860 1.443 . S
C861 C862 1.340 . S
C861 H893 0.951 . S
C862 C861 1.340 . S
C862 C863 1.439 . S
C862 H894 0.950 . S
C863 N859 1.374 . S
C863 C862 1.439 . S
C863 C888 1.395 . S
N864 Co853 1.995 . S
N864 C865 1.376 . S
N864 C868 1.383 . S
C865 N864 1.376 . S
C865 C866 1.446 . S
C865 C888 1.391 . S
C866 C865 1.446 . S
C866 C867 1.339 . S
C866 H895 0.949 . S
C867 C866 1.339 . S
C867 C868 1.439 . S
C867 H896 0.950 . S
C868 N864 1.383 . S
C868 C867 1.439 . S
C868 C886 1.392 . S
N869 Co853 2.282 . S
N869 C872 1.332 . S
N869 C874 1.332 . S
C870 C871 1.386 . S
C870 C873 1.388 . S
C871 C870 1.386 . S
C871 C872 1.382 . S
C871 H897 0.950 . S
C872 N869 1.332 . S
C872 C871 1.382 . S
C872 H883 0.952 . S
C873 C870 1.388 . S
C873 C874 1.382 . S
C873 H898 0.950 . S
C874 N869 1.332 . S
C874 C873 1.382 . S
C874 H884 0.948 . S
N875 Co853 2.282 . S
N875 C879 1.332 . S
N875 C880 1.332 . S
C876 C877 1.388 . S
C876 C880 1.382 . S
C876 H899 0.950 . S
C877 C876 1.388 . S
C877 C878 1.386 . S
C878 C877 1.386 . S
C878 C879 1.382 . S
C878 H900 0.950 . S
C879 N875 1.332 . S
C879 C878 1.382 . S
C879 H881 0.952 . S
C880 N875 1.332 . S
C880 C876 1.382 . S
C880 H882 0.948 . S
H881 C879 0.952 . S
H882 C880 0.948 . S
H883 C872 0.952 . S
H884 C874 0.948 . S
C885 C851 1.395 . S
C885 C855 1.391 . S
C886 C848 1.389 . S
C886 C868 1.392 . S
C887 C858 1.392 . S
C887 C860 1.389 . S
C888 C863 1.395 . S
C888 C865 1.391 . S
H889 C849 0.951 . S
H890 C850 0.950 . S
H891 C856 0.949 . S
H892 C857 0.950 . S
H893 C861 0.951 . S
H894 C862 0.950 . S
H895 C866 0.949 . S
H896 C867 0.950 . S
H897 C871 0.950 . S
H898 C873 0.950 . S
H899 C876 0.950 . S
H900 C878 0.950 . S
C901 C902 1.443 . S
C901 N905 1.376 . S
C901 C939 1.389 . S
C902 C901 1.443 . S
C902 C903 1.340 . S
C902 H942 0.951 . S
C903 C902 1.340 . S
C903 C904 1.439 . S
C903 H943 0.950 . S
C904 C903 1.439 . S
C904 N905 1.374 . S
C904 C938 1.395 . S
N905 C901 1.376 . S
N905 C904 1.374 . S
N905 Co906 2.008 . S
Co906 N905 2.008 . S
Co906 N907 1.995 . S
Co906 N912 2.008 . S
Co906 N917 1.995 . S
Co906 N922 2.282 . S
Co906 N928 2.282 . S
N907 Co906 1.995 . S
N907 C908 1.376 . S
N907 C911 1.383 . S
C908 N907 1.376 . S
C908 C909 1.446 . S
C908 C938 1.391 . S
C909 C908 1.446 . S
C909 C910 1.339 . S
C909 H944 0.949 1_565 S
C910 C909 1.339 . S
C910 C911 1.439 . S
C910 H945 0.950 . S
C911 N907 1.383 . S
C911 C910 1.439 . S
C911 C940 1.392 . S
N912 Co906 2.008 . S
N912 C913 1.376 . S
N912 C916 1.374 . S
C913 N912 1.376 . S
C913 C914 1.443 . S
C913 C940 1.389 . S
C914 C913 1.443 . S
C914 C915 1.340 . S
C914 H946 0.951 . S
C915 C914 1.340 . S
C915 C916 1.439 . S
C915 H947 0.950 . S
C916 N912 1.374 . S
C916 C915 1.439 . S
C916 C941 1.395 . S
N917 Co906 1.995 . S
N917 C918 1.376 . S
N917 C921 1.383 . S
C918 N917 1.376 . S
C918 C919 1.446 . S
C918 C941 1.391 . S
C919 C918 1.446 . S
C919 C920 1.339 . S
C919 H948 0.949 . S
C920 C919 1.339 . S
C920 C921 1.439 . S
C920 H949 0.950 . S
C921 N917 1.383 . S
C921 C920 1.439 . S
C921 C939 1.392 . S
N922 Co906 2.282 . S
N922 C925 1.332 . S
N922 C927 1.332 . S
C923 C924 1.386 . S
C923 C926 1.388 . S
C924 C923 1.386 . S
C924 C925 1.382 . S
C924 H950 0.950 . S
C925 N922 1.332 . S
C925 C924 1.382 . S
C925 H936 0.952 . S
C926 C923 1.388 . S
C926 C927 1.382 . S
C926 H951 0.950 . S
C927 N922 1.332 . S
C927 C926 1.382 . S
C927 H937 0.948 . S
N928 Co906 2.282 . S
N928 C932 1.332 . S
N928 C933 1.332 . S
C929 C930 1.388 . S
C929 C933 1.382 . S
C929 H952 0.950 . S
C930 C929 1.388 . S
C930 C931 1.386 . S
C931 C930 1.386 . S
C931 C932 1.382 . S
C931 H953 0.950 . S
C932 N928 1.332 . S
C932 C931 1.382 . S
C932 H934 0.952 . S
C933 N928 1.332 . S
C933 C929 1.382 . S
C933 H935 0.948 . S
H934 C932 0.952 . S
H935 C933 0.948 . S
H936 C925 0.952 . S
H937 C927 0.948 . S
C938 C904 1.395 . S
C938 C908 1.391 . S
C939 C901 1.389 . S
C939 C921 1.392 . S
C940 C911 1.392 . S
C940 C913 1.389 . S
C941 C916 1.395 . S
C941 C918 1.391 . S
H942 C902 0.951 . S
H943 C903 0.950 . S
H944 C909 0.949 1_545 S
H945 C910 0.950 . S
H946 C914 0.951 . S
H947 C915 0.950 . S
H948 C919 0.949 . S
H949 C920 0.950 . S
H950 C924 0.950 . S
H951 C926 0.950 . S
H952 C929 0.950 . S
H953 C931 0.950 . S
C954 C955 1.443 . S
C954 N958 1.376 . S
C954 C992 1.389 . S
C955 C954 1.443 . S
C955 C956 1.340 . S
C955 H995 0.951 . S
C956 C955 1.340 . S
C956 C957 1.439 . S
C956 H996 0.950 . S
C957 C956 1.439 . S
C957 N958 1.374 . S
C957 C991 1.395 . S
N958 C954 1.376 . S
N958 C957 1.374 . S
N958 Co959 2.008 . S
Co959 N958 2.008 . S
Co959 N960 1.995 . S
Co959 N965 2.008 . S
Co959 N970 1.995 . S
Co959 N975 2.282 . S
Co959 N981 2.282 . S
N960 Co959 1.995 . S
N960 C961 1.376 . S
N960 C964 1.383 . S
C961 N960 1.376 . S
C961 C962 1.446 . S
C961 C991 1.391 . S
C962 C961 1.446 . S
C962 C963 1.339 . S
C962 H997 0.949 1_565 S
C963 C962 1.339 . S
C963 C964 1.439 . S
C963 H998 0.950 . S
C964 N960 1.383 . S
C964 C963 1.439 . S
C964 C993 1.392 . S
N965 Co959 2.008 . S
N965 C966 1.376 . S
N965 C969 1.374 . S
C966 N965 1.376 . S
C966 C967 1.443 . S
C966 C993 1.389 . S
C967 C966 1.443 . S
C967 C968 1.340 . S
C967 H999 0.951 . S
C968 C967 1.340 . S
C968 C969 1.439 . S
C968 H1000 0.950 . S
C969 N965 1.374 . S
C969 C968 1.439 . S
C969 C994 1.395 . S
N970 Co959 1.995 . S
N970 C971 1.376 . S
N970 C974 1.383 . S
C971 N970 1.376 . S
C971 C972 1.446 . S
C971 C994 1.391 . S
C972 C971 1.446 . S
C972 C973 1.339 . S
C972 H1001 0.949 . S
C973 C972 1.339 . S
C973 C974 1.439 . S
C973 H1002 0.950 . S
C974 N970 1.383 . S
C974 C973 1.439 . S
C974 C992 1.392 . S
N975 Co959 2.282 . S
N975 C978 1.332 . S
N975 C980 1.332 . S
C976 C977 1.386 . S
C976 C979 1.388 . S
C977 C976 1.386 . S
C977 C978 1.382 . S
C977 H1003 0.950 . S
C978 N975 1.332 . S
C978 C977 1.382 . S
C978 H989 0.952 . S
C979 C976 1.388 . S
C979 C980 1.382 . S
C979 H1004 0.950 . S
C980 N975 1.332 . S
C980 C979 1.382 . S
C980 H990 0.948 . S
N981 Co959 2.282 . S
N981 C985 1.332 . S
N981 C986 1.332 . S
C982 C983 1.388 . S
C982 C986 1.382 . S
C982 H1005 0.950 . S
C983 C982 1.388 . S
C983 C984 1.386 . S
C984 C983 1.386 . S
C984 C985 1.382 . S
C984 H1006 0.950 . S
C985 N981 1.332 . S
C985 C984 1.382 . S
C985 H987 0.952 . S
C986 N981 1.332 . S
C986 C982 1.382 . S
C986 H988 0.948 . S
H987 C985 0.952 . S
H988 C986 0.948 . S
H989 C978 0.952 . S
H990 C980 0.948 . S
C991 C957 1.395 . S
C991 C961 1.391 . S
C992 C954 1.389 . S
C992 C974 1.392 . S
C993 C964 1.392 . S
C993 C966 1.389 . S
C994 C969 1.395 . S
C994 C971 1.391 . S
H995 C955 0.951 . S
H996 C956 0.950 . S
H997 C962 0.949 1_545 S
H998 C963 0.950 . S
H999 C967 0.951 . S
H1000 C968 0.950 . S
H1001 C972 0.949 . S
H1002 C973 0.950 . S
H1003 C977 0.950 . S
H1004 C979 0.950 . S
H1005 C982 0.950 . S
H1006 C984 0.950 . S
C1007 C1008 1.443 . S
C1007 N1011 1.376 . S
C1007 C1045 1.389 . S
C1008 C1007 1.443 . S
C1008 C1009 1.340 . S
C1008 H1048 0.951 . S
C1009 C1008 1.340 . S
C1009 C1010 1.439 . S
C1009 H1049 0.950 . S
C1010 C1009 1.439 . S
C1010 N1011 1.374 . S
C1010 C1044 1.395 . S
N1011 C1007 1.376 . S
N1011 C1010 1.374 . S
N1011 Co1012 2.008 . S
Co1012 N1011 2.008 . S
Co1012 N1013 1.995 . S
Co1012 N1018 2.008 . S
Co1012 N1023 1.995 . S
Co1012 N1028 2.282 . S
Co1012 N1034 2.282 . S
N1013 Co1012 1.995 . S
N1013 C1014 1.376 . S
N1013 C1017 1.383 . S
C1014 N1013 1.376 . S
C1014 C1015 1.446 . S
C1014 C1044 1.391 . S
C1015 C1014 1.446 . S
C1015 C1016 1.339 . S
C1015 H1050 0.949 . S
C1016 C1015 1.339 . S
C1016 C1017 1.439 . S
C1016 H1051 0.950 . S
C1017 N1013 1.383 . S
C1017 C1016 1.439 . S
C1017 C1046 1.392 . S
N1018 Co1012 2.008 . S
N1018 C1019 1.376 . S
N1018 C1022 1.374 . S
C1019 N1018 1.376 . S
C1019 C1020 1.443 . S
C1019 C1046 1.389 . S
C1020 C1019 1.443 . S
C1020 C1021 1.340 . S
C1020 H1052 0.951 . S
C1021 C1020 1.340 . S
C1021 C1022 1.439 . S
C1021 H1053 0.950 1_455 S
C1022 N1018 1.374 . S
C1022 C1021 1.439 . S
C1022 C1047 1.395 . S
N1023 Co1012 1.995 . S
N1023 C1024 1.376 . S
N1023 C1027 1.383 . S
C1024 N1023 1.376 . S
C1024 C1025 1.446 . S
C1024 C1047 1.391 . S
C1025 C1024 1.446 . S
C1025 C1026 1.339 . S
C1025 H1054 0.949 . S
C1026 C1025 1.339 . S
C1026 C1027 1.439 . S
C1026 H1055 0.950 . S
C1027 N1023 1.383 . S
C1027 C1026 1.439 . S
C1027 C1045 1.392 . S
N1028 Co1012 2.282 . S
N1028 C1031 1.332 . S
N1028 C1033 1.332 . S
C1029 C1030 1.386 . S
C1029 C1032 1.388 . S
C1030 C1029 1.386 . S
C1030 C1031 1.382 . S
C1030 H1056 0.950 . S
C1031 N1028 1.332 . S
C1031 C1030 1.382 . S
C1031 H1042 0.952 . S
C1032 C1029 1.388 . S
C1032 C1033 1.382 . S
C1032 H1057 0.950 . S
C1033 N1028 1.332 . S
C1033 C1032 1.382 . S
C1033 H1043 0.948 . S
N1034 Co1012 2.282 . S
N1034 C1038 1.332 . S
N1034 C1039 1.332 . S
C1035 C1036 1.388 . S
C1035 C1039 1.382 . S
C1035 H1058 0.950 . S
C1036 C1035 1.388 . S
C1036 C1037 1.386 . S
C1037 C1036 1.386 . S
C1037 C1038 1.382 . S
C1037 H1059 0.950 . S
C1038 N1034 1.332 . S
C1038 C1037 1.382 . S
C1038 H1040 0.952 . S
C1039 N1034 1.332 . S
C1039 C1035 1.382 . S
C1039 H1041 0.948 . S
H1040 C1038 0.952 . S
H1041 C1039 0.948 . S
H1042 C1031 0.952 . S
H1043 C1033 0.948 . S
C1044 C1010 1.395 . S
C1044 C1014 1.391 . S
C1045 C1007 1.389 . S
C1045 C1027 1.392 . S
C1046 C1017 1.392 . S
C1046 C1019 1.389 . S
C1047 C1022 1.395 . S
C1047 C1024 1.391 . S
H1048 C1008 0.951 . S
H1049 C1009 0.950 . S
H1050 C1015 0.949 . S
H1051 C1016 0.950 . S
H1052 C1020 0.951 . S
H1053 C1021 0.950 1_655 S
H1054 C1025 0.949 . S
H1055 C1026 0.950 . S
H1056 C1030 0.950 . S
H1057 C1032 0.950 . S
H1058 C1035 0.950 . S
H1059 C1037 0.950 . S
C1060 C1061 1.443 . S
C1060 N1064 1.376 . S
C1060 C1098 1.389 . S
C1061 C1060 1.443 . S
C1061 C1062 1.340 . S
C1061 H1101 0.951 . S
C1062 C1061 1.340 . S
C1062 C1063 1.439 . S
C1062 H1102 0.950 . S
C1063 C1062 1.439 . S
C1063 N1064 1.374 . S
C1063 C1097 1.395 . S
N1064 C1060 1.376 . S
N1064 C1063 1.374 . S
N1064 Co1065 2.008 . S
Co1065 N1064 2.008 . S
Co1065 N1066 1.995 . S
Co1065 N1071 2.008 . S
Co1065 N1076 1.995 . S
Co1065 N1081 2.282 . S
Co1065 N1087 2.282 . S
N1066 Co1065 1.995 . S
N1066 C1067 1.376 . S
N1066 C1070 1.383 . S
C1067 N1066 1.376 . S
C1067 C1068 1.446 . S
C1067 C1097 1.391 . S
C1068 C1067 1.446 . S
C1068 C1069 1.339 . S
C1068 H1103 0.949 . S
C1069 C1068 1.339 . S
C1069 C1070 1.439 . S
C1069 H1104 0.950 . S
C1070 N1066 1.383 . S
C1070 C1069 1.439 . S
C1070 C1099 1.392 . S
N1071 Co1065 2.008 . S
N1071 C1072 1.376 . S
N1071 C1075 1.374 . S
C1072 N1071 1.376 . S
C1072 C1073 1.443 . S
C1072 C1099 1.389 . S
C1073 C1072 1.443 . S
C1073 C1074 1.340 . S
C1073 H1105 0.951 . S
C1074 C1073 1.340 . S
C1074 C1075 1.439 . S
C1074 H1106 0.950 . S
C1075 N1071 1.374 . S
C1075 C1074 1.439 . S
C1075 C1100 1.395 . S
N1076 Co1065 1.995 . S
N1076 C1077 1.376 . S
N1076 C1080 1.383 . S
C1077 N1076 1.376 . S
C1077 C1078 1.446 . S
C1077 C1100 1.391 . S
C1078 C1077 1.446 . S
C1078 C1079 1.339 . S
C1078 H1107 0.949 . S
C1079 C1078 1.339 . S
C1079 C1080 1.439 . S
C1079 H1108 0.950 . S
C1080 N1076 1.383 . S
C1080 C1079 1.439 . S
C1080 C1098 1.392 . S
N1081 Co1065 2.282 . S
N1081 C1084 1.332 . S
N1081 C1086 1.332 . S
C1082 C1083 1.386 . S
C1082 C1085 1.388 . S
C1083 C1082 1.386 . S
C1083 C1084 1.382 . S
C1083 H1109 0.950 . S
C1084 N1081 1.332 . S
C1084 C1083 1.382 . S
C1084 H1095 0.952 . S
C1085 C1082 1.388 . S
C1085 C1086 1.382 . S
C1085 H1110 0.950 . S
C1086 N1081 1.332 . S
C1086 C1085 1.382 . S
C1086 H1096 0.948 . S
N1087 Co1065 2.282 . S
N1087 C1091 1.332 . S
N1087 C1092 1.332 . S
C1088 C1089 1.388 . S
C1088 C1092 1.382 . S
C1088 H1111 0.950 . S
C1089 C1088 1.388 . S
C1089 C1090 1.386 . S
C1090 C1089 1.386 . S
C1090 C1091 1.382 . S
C1090 H1112 0.950 . S
C1091 N1087 1.332 . S
C1091 C1090 1.382 . S
C1091 H1093 0.952 . S
C1092 N1087 1.332 . S
C1092 C1088 1.382 . S
C1092 H1094 0.948 . S
H1093 C1091 0.952 . S
H1094 C1092 0.948 . S
H1095 C1084 0.952 . S
H1096 C1086 0.948 . S
C1097 C1063 1.395 . S
C1097 C1067 1.391 . S
C1098 C1060 1.389 . S
C1098 C1080 1.392 . S
C1099 C1070 1.392 . S
C1099 C1072 1.389 . S
C1100 C1075 1.395 . S
C1100 C1077 1.391 . S
H1101 C1061 0.951 . S
H1102 C1062 0.950 . S
H1103 C1068 0.949 . S
H1104 C1069 0.950 . S
H1105 C1073 0.951 . S
H1106 C1074 0.950 . S
H1107 C1078 0.949 . S
H1108 C1079 0.950 . S
H1109 C1083 0.950 . S
H1110 C1085 0.950 . S
H1111 C1088 0.950 . S
H1112 C1090 0.950 . S
C1113 C1114 1.443 . S
C1113 N1117 1.376 . S
C1113 C1151 1.389 . S
C1114 C1113 1.443 . S
C1114 C1115 1.340 . S
C1114 H1154 0.951 . S
C1115 C1114 1.340 . S
C1115 C1116 1.439 . S
C1115 H1155 0.950 . S
C1116 C1115 1.439 . S
C1116 N1117 1.374 . S
C1116 C1150 1.395 . S
N1117 C1113 1.376 . S
N1117 C1116 1.374 . S
N1117 Co1118 2.008 . S
Co1118 N1117 2.008 . S
Co1118 N1119 1.995 . S
Co1118 N1124 2.008 . S
Co1118 N1129 1.995 . S
Co1118 N1134 2.282 . S
Co1118 N1140 2.282 . S
N1119 Co1118 1.995 . S
N1119 C1120 1.376 . S
N1119 C1123 1.383 . S
C1120 N1119 1.376 . S
C1120 C1121 1.446 . S
C1120 C1150 1.391 . S
C1121 C1120 1.446 . S
C1121 C1122 1.339 . S
C1121 H1156 0.949 . S
C1122 C1121 1.339 . S
C1122 C1123 1.439 . S
C1122 H1157 0.950 . S
C1123 N1119 1.383 . S
C1123 C1122 1.439 . S
C1123 C1152 1.392 . S
N1124 Co1118 2.008 . S
N1124 C1125 1.376 . S
N1124 C1128 1.374 . S
C1125 N1124 1.376 . S
C1125 C1126 1.443 . S
C1125 C1152 1.389 . S
C1126 C1125 1.443 . S
C1126 C1127 1.340 . S
C1126 H1158 0.951 . S
C1127 C1126 1.340 . S
C1127 C1128 1.439 . S
C1127 H1159 0.950 . S
C1128 N1124 1.374 . S
C1128 C1127 1.439 . S
C1128 C1153 1.395 . S
N1129 Co1118 1.995 . S
N1129 C1130 1.376 . S
N1129 C1133 1.383 . S
C1130 N1129 1.376 . S
C1130 C1131 1.446 . S
C1130 C1153 1.391 . S
C1131 C1130 1.446 . S
C1131 C1132 1.339 . S
C1131 H1160 0.949 . S
C1132 C1131 1.339 . S
C1132 C1133 1.439 . S
C1132 H1161 0.950 . S
C1133 N1129 1.383 . S
C1133 C1132 1.439 . S
C1133 C1151 1.392 . S
N1134 Co1118 2.282 . S
N1134 C1137 1.332 . S
N1134 C1139 1.332 . S
C1135 C1136 1.386 . S
C1135 C1138 1.388 . S
C1136 C1135 1.386 . S
C1136 C1137 1.382 . S
C1136 H1162 0.950 . S
C1137 N1134 1.332 . S
C1137 C1136 1.382 . S
C1137 H1148 0.952 . S
C1138 C1135 1.388 . S
C1138 C1139 1.382 . S
C1138 H1163 0.950 . S
C1139 N1134 1.332 . S
C1139 C1138 1.382 . S
C1139 H1149 0.948 . S
N1140 Co1118 2.282 . S
N1140 C1144 1.332 . S
N1140 C1145 1.332 . S
C1141 C1142 1.388 . S
C1141 C1145 1.382 . S
C1141 H1164 0.950 . S
C1142 C1141 1.388 . S
C1142 C1143 1.386 . S
C1143 C1142 1.386 . S
C1143 C1144 1.382 . S
C1143 H1165 0.950 . S
C1144 N1140 1.332 . S
C1144 C1143 1.382 . S
C1144 H1146 0.952 . S
C1145 N1140 1.332 . S
C1145 C1141 1.382 . S
C1145 H1147 0.948 . S
H1146 C1144 0.952 . S
H1147 C1145 0.948 . S
H1148 C1137 0.952 . S
H1149 C1139 0.948 . S
C1150 C1116 1.395 . S
C1150 C1120 1.391 . S
C1151 C1113 1.389 . S
C1151 C1133 1.392 . S
C1152 C1123 1.392 . S
C1152 C1125 1.389 . S
C1153 C1128 1.395 . S
C1153 C1130 1.391 . S
H1154 C1114 0.951 . S
H1155 C1115 0.950 . S
H1156 C1121 0.949 . S
H1157 C1122 0.950 . S
H1158 C1126 0.951 . S
H1159 C1127 0.950 . S
H1160 C1131 0.949 . S
H1161 C1132 0.950 . S
H1162 C1136 0.950 . S
H1163 C1138 0.950 . S
H1164 C1141 0.950 . S
H1165 C1143 0.950 . S
C1166 C1167 1.443 . S
C1166 N1170 1.376 . S
C1166 C1204 1.389 . S
C1167 C1166 1.443 . S
C1167 C1168 1.340 1_545 S
C1167 H1207 0.951 1_545 S
C1168 C1167 1.340 1_565 S
C1168 C1169 1.439 1_565 S
C1168 H1208 0.950 . S
C1169 C1168 1.439 1_545 S
C1169 N1170 1.374 . S
C1169 C1203 1.395 . S
N1170 C1166 1.376 . S
N1170 C1169 1.374 . S
N1170 Co1171 2.008 . S
Co1171 N1170 2.008 . S
Co1171 N1172 1.995 . S
Co1171 N1177 2.008 . S
Co1171 N1182 1.995 . S
Co1171 N1187 2.282 . S
Co1171 N1193 2.282 . S
N1172 Co1171 1.995 . S
N1172 C1173 1.376 . S
N1172 C1176 1.383 . S
C1173 N1172 1.376 . S
C1173 C1174 1.446 . S
C1173 C1203 1.391 . S
C1174 C1173 1.446 . S
C1174 C1175 1.339 . S
C1174 H1209 0.949 . S
C1175 C1174 1.339 . S
C1175 C1176 1.439 . S
C1175 H1210 0.950 . S
C1176 N1172 1.383 . S
C1176 C1175 1.439 . S
C1176 C1205 1.392 . S
N1177 Co1171 2.008 . S
N1177 C1178 1.376 . S
N1177 C1181 1.374 . S
C1178 N1177 1.376 . S
C1178 C1179 1.443 . S
C1178 C1205 1.389 . S
C1179 C1178 1.443 . S
C1179 C1180 1.340 . S
C1179 H1211 0.951 . S
C1180 C1179 1.340 . S
C1180 C1181 1.439 . S
C1180 H1212 0.950 . S
C1181 N1177 1.374 . S
C1181 C1180 1.439 . S
C1181 C1206 1.395 . S
N1182 Co1171 1.995 . S
N1182 C1183 1.376 . S
N1182 C1186 1.383 . S
C1183 N1182 1.376 . S
C1183 C1184 1.446 . S
C1183 C1206 1.391 . S
C1184 C1183 1.446 . S
C1184 C1185 1.339 . S
C1184 H1213 0.949 . S
C1185 C1184 1.339 . S
C1185 C1186 1.439 . S
C1185 H1214 0.950 . S
C1186 N1182 1.383 . S
C1186 C1185 1.439 . S
C1186 C1204 1.392 . S
N1187 Co1171 2.282 . S
N1187 C1190 1.332 . S
N1187 C1192 1.332 . S
C1188 C1189 1.386 . S
C1188 C1191 1.388 . S
C1189 C1188 1.386 . S
C1189 C1190 1.382 . S
C1189 H1215 0.950 . S
C1190 N1187 1.332 . S
C1190 C1189 1.382 . S
C1190 H1201 0.952 . S
C1191 C1188 1.388 . S
C1191 C1192 1.382 . S
C1191 H1216 0.950 . S
C1192 N1187 1.332 . S
C1192 C1191 1.382 . S
C1192 H1202 0.948 . S
N1193 Co1171 2.282 . S
N1193 C1197 1.332 . S
N1193 C1198 1.332 . S
C1194 C1195 1.388 1_545 S
C1194 C1198 1.382 . S
C1194 H1217 0.950 . S
C1195 C1194 1.388 1_565 S
C1195 C1196 1.386 . S
C1196 C1195 1.386 . S
C1196 C1197 1.382 1_565 S
C1196 H1218 0.950 . S
C1197 N1193 1.332 . S
C1197 C1196 1.382 1_545 S
C1197 H1199 0.952 . S
C1198 N1193 1.332 . S
C1198 C1194 1.382 . S
C1198 H1200 0.948 . S
H1199 C1197 0.952 . S
H1200 C1198 0.948 . S
H1201 C1190 0.952 . S
H1202 C1192 0.948 . S
C1203 C1169 1.395 . S
C1203 C1173 1.391 . S
C1204 C1166 1.389 . S
C1204 C1186 1.392 . S
C1205 C1176 1.392 . S
C1205 C1178 1.389 . S
C1206 C1181 1.395 . S
C1206 C1183 1.391 . S
H1207 C1167 0.951 1_565 S
H1208 C1168 0.950 . S
H1209 C1174 0.949 . S
H1210 C1175 0.950 . S
H1211 C1179 0.951 . S
H1212 C1180 0.950 . S
H1213 C1184 0.949 . S
H1214 C1185 0.950 . S
H1215 C1189 0.950 . S
H1216 C1191 0.950 . S
H1217 C1194 0.950 . S
H1218 C1196 0.950 . S
C1219 C1220 1.443 . S
C1219 N1223 1.376 . S
C1219 C1257 1.389 . S
C1220 C1219 1.443 . S
C1220 C1221 1.340 . S
C1220 H1260 0.951 . S
C1221 C1220 1.340 . S
C1221 C1222 1.439 . S
C1221 H1261 0.950 . S
C1222 C1221 1.439 . S
C1222 N1223 1.374 . S
C1222 C1256 1.395 . S
N1223 C1219 1.376 . S
N1223 C1222 1.374 . S
N1223 Co1224 2.008 . S
Co1224 N1223 2.008 . S
Co1224 N1225 1.995 . S
Co1224 N1230 2.008 . S
Co1224 N1235 1.995 . S
Co1224 N1240 2.282 . S
Co1224 N1246 2.282 . S
N1225 Co1224 1.995 . S
N1225 C1226 1.376 . S
N1225 C1229 1.383 . S
C1226 N1225 1.376 . S
C1226 C1227 1.446 . S
C1226 C1256 1.391 . S
C1227 C1226 1.446 . S
C1227 C1228 1.339 . S
C1227 H1262 0.949 . S
C1228 C1227 1.339 . S
C1228 C1229 1.439 . S
C1228 H1263 0.950 . S
C1229 N1225 1.383 . S
C1229 C1228 1.439 . S
C1229 C1258 1.392 . S
N1230 Co1224 2.008 . S
N1230 C1231 1.376 . S
N1230 C1234 1.374 . S
C1231 N1230 1.376 . S
C1231 C1232 1.443 1_655 S
C1231 C1258 1.389 . S
C1232 C1231 1.443 1_455 S
C1232 C1233 1.340 . S
C1232 H1264 0.951 . S
C1233 C1232 1.340 . S
C1233 C1234 1.439 1_455 S
C1233 H1265 0.950 . S
C1234 N1230 1.374 . S
C1234 C1233 1.439 1_655 S
C1234 C1259 1.395 . S
N1235 Co1224 1.995 . S
N1235 C1236 1.376 . S
N1235 C1239 1.383 . S
C1236 N1235 1.376 . S
C1236 C1237 1.446 . S
C1236 C1259 1.391 . S
C1237 C1236 1.446 . S
C1237 C1238 1.339 . S
C1237 H1266 0.949 . S
C1238 C1237 1.339 . S
C1238 C1239 1.439 . S
C1238 H1267 0.950 . S
C1239 N1235 1.383 . S
C1239 C1238 1.439 . S
C1239 C1257 1.392 . S
N1240 Co1224 2.282 . S
N1240 C1243 1.332 . S
N1240 C1245 1.332 . S
C1241 C1242 1.386 . S
C1241 C1244 1.388 . S
C1242 C1241 1.386 . S
C1242 C1243 1.382 . S
C1242 H1268 0.950 . S
C1243 N1240 1.332 . S
C1243 C1242 1.382 . S
C1243 H1254 0.952 . S
C1244 C1241 1.388 . S
C1244 C1245 1.382 . S
C1244 H1269 0.950 . S
C1245 N1240 1.332 . S
C1245 C1244 1.382 . S
C1245 H1255 0.948 . S
N1246 Co1224 2.282 . S
N1246 C1250 1.332 . S
N1246 C1251 1.332 . S
C1247 C1248 1.388 . S
C1247 C1251 1.382 . S
C1247 H1270 0.950 . S
C1248 C1247 1.388 . S
C1248 C1249 1.386 . S
C1249 C1248 1.386 . S
C1249 C1250 1.382 . S
C1249 H1271 0.950 . S
C1250 N1246 1.332 . S
C1250 C1249 1.382 . S
C1250 H1252 0.952 . S
C1251 N1246 1.332 . S
C1251 C1247 1.382 . S
C1251 H1253 0.948 . S
H1252 C1250 0.952 . S
H1253 C1251 0.948 . S
H1254 C1243 0.952 . S
H1255 C1245 0.948 . S
C1256 C1222 1.395 . S
C1256 C1226 1.391 . S
C1257 C1219 1.389 . S
C1257 C1239 1.392 . S
C1258 C1229 1.392 . S
C1258 C1231 1.389 . S
C1259 C1234 1.395 . S
C1259 C1236 1.391 . S
H1260 C1220 0.951 . S
H1261 C1221 0.950 . S
H1262 C1227 0.949 . S
H1263 C1228 0.950 . S
H1264 C1232 0.951 . S
H1265 C1233 0.950 . S
H1266 C1237 0.949 . S
H1267 C1238 0.950 . S
H1268 C1242 0.950 . S
H1269 C1244 0.950 . S
H1270 C1247 0.950 . S
H1271 C1249 0.950 . S
C1272 C1273 1.443 . S
C1272 N1276 1.376 . S
C1272 C1310 1.389 . S
C1273 C1272 1.443 . S
C1273 C1274 1.340 . S
C1273 H1313 0.951 . S
C1274 C1273 1.340 . S
C1274 C1275 1.439 . S
C1274 H1314 0.950 . S
C1275 C1274 1.439 . S
C1275 N1276 1.374 . S
C1275 C1309 1.395 . S
N1276 C1272 1.376 . S
N1276 C1275 1.374 . S
N1276 Co1277 2.008 . S
Co1277 N1276 2.008 . S
Co1277 N1278 1.995 . S
Co1277 N1283 2.008 . S
Co1277 N1288 1.995 . S
Co1277 N1293 2.282 . S
Co1277 N1299 2.282 . S
N1278 Co1277 1.995 . S
N1278 C1279 1.376 . S
N1278 C1282 1.383 . S
C1279 N1278 1.376 . S
C1279 C1280 1.446 . S
C1279 C1309 1.391 . S
C1280 C1279 1.446 . S
C1280 C1281 1.339 . S
C1280 H1315 0.949 1_545 S
C1281 C1280 1.339 . S
C1281 C1282 1.439 . S
C1281 H1316 0.950 . S
C1282 N1278 1.383 . S
C1282 C1281 1.439 . S
C1282 C1311 1.392 . S
N1283 Co1277 2.008 . S
N1283 C1284 1.376 . S
N1283 C1287 1.374 . S
C1284 N1283 1.376 . S
C1284 C1285 1.443 . S
C1284 C1311 1.389 . S
C1285 C1284 1.443 . S
C1285 C1286 1.340 . S
C1285 H1317 0.951 . S
C1286 C1285 1.340 . S
C1286 C1287 1.439 . S
C1286 H1318 0.950 . S
C1287 N1283 1.374 . S
C1287 C1286 1.439 . S
C1287 C1312 1.395 . S
N1288 Co1277 1.995 . S
N1288 C1289 1.376 . S
N1288 C1292 1.383 . S
C1289 N1288 1.376 . S
C1289 C1290 1.446 . S
C1289 C1312 1.391 . S
C1290 C1289 1.446 . S
C1290 C1291 1.339 . S
C1290 H1319 0.949 . S
C1291 C1290 1.339 . S
C1291 C1292 1.439 . S
C1291 H1320 0.950 . S
C1292 N1288 1.383 . S
C1292 C1291 1.439 . S
C1292 C1310 1.392 . S
N1293 Co1277 2.282 . S
N1293 C1296 1.332 . S
N1293 C1298 1.332 . S
C1294 C1295 1.386 . S
C1294 C1297 1.388 . S
C1295 C1294 1.386 . S
C1295 C1296 1.382 . S
C1295 H1321 0.950 . S
C1296 N1293 1.332 . S
C1296 C1295 1.382 . S
C1296 H1307 0.952 . S
C1297 C1294 1.388 . S
C1297 C1298 1.382 . S
C1297 H1322 0.950 . S
C1298 N1293 1.332 . S
C1298 C1297 1.382 . S
C1298 H1308 0.948 . S
N1299 Co1277 2.282 . S
N1299 C1303 1.332 . S
N1299 C1304 1.332 . S
C1300 C1301 1.388 . S
C1300 C1304 1.382 . S
C1300 H1323 0.950 . S
C1301 C1300 1.388 . S
C1301 C1302 1.386 . S
C1302 C1301 1.386 . S
C1302 C1303 1.382 . S
C1302 H1324 0.950 . S
C1303 N1299 1.332 . S
C1303 C1302 1.382 . S
C1303 H1305 0.952 . S
C1304 N1299 1.332 . S
C1304 C1300 1.382 . S
C1304 H1306 0.948 . S
H1305 C1303 0.952 . S
H1306 C1304 0.948 . S
H1307 C1296 0.952 . S
H1308 C1298 0.948 . S
C1309 C1275 1.395 . S
C1309 C1279 1.391 . S
C1310 C1272 1.389 . S
C1310 C1292 1.392 . S
C1311 C1282 1.392 . S
C1311 C1284 1.389 . S
C1312 C1287 1.395 . S
C1312 C1289 1.391 . S
H1313 C1273 0.951 . S
H1314 C1274 0.950 . S
H1315 C1280 0.949 1_565 S
H1316 C1281 0.950 . S
H1317 C1285 0.951 . S
H1318 C1286 0.950 . S
H1319 C1290 0.949 . S
H1320 C1291 0.950 . S
H1321 C1295 0.950 . S
H1322 C1297 0.950 . S
H1323 C1300 0.950 . S
H1324 C1302 0.950 . S
C1325 C1326 1.443 . S
C1325 N1329 1.376 . S
C1325 C1363 1.389 . S
C1326 C1325 1.443 . S
C1326 C1327 1.340 . S
C1326 H1366 0.951 . S
C1327 C1326 1.340 . S
C1327 C1328 1.439 . S
C1327 H1367 0.950 . S
C1328 C1327 1.439 . S
C1328 N1329 1.374 . S
C1328 C1362 1.395 . S
N1329 C1325 1.376 . S
N1329 C1328 1.374 . S
N1329 Co1330 2.008 . S
Co1330 N1329 2.008 . S
Co1330 N1331 1.995 . S
Co1330 N1336 2.008 . S
Co1330 N1341 1.995 . S
Co1330 N1346 2.282 . S
Co1330 N1352 2.282 . S
N1331 Co1330 1.995 . S
N1331 C1332 1.376 . S
N1331 C1335 1.383 . S
C1332 N1331 1.376 . S
C1332 C1333 1.446 1_655 S
C1332 C1362 1.391 . S
C1333 C1332 1.446 1_455 S
C1333 C1334 1.339 1_455 S
C1333 H1368 0.949 . S
C1334 C1333 1.339 1_655 S
C1334 C1335 1.439 . S
C1334 H1369 0.950 1_655 S
C1335 N1331 1.383 . S
C1335 C1334 1.439 . S
C1335 C1364 1.392 . S
N1336 Co1330 2.008 . S
N1336 C1337 1.376 . S
N1336 C1340 1.374 . S
C1337 N1336 1.376 . S
C1337 C1338 1.443 . S
C1337 C1364 1.389 . S
C1338 C1337 1.443 . S
C1338 C1339 1.340 . S
C1338 H1370 0.951 . S
C1339 C1338 1.340 . S
C1339 C1340 1.439 . S
C1339 H1371 0.950 . S
C1340 N1336 1.374 . S
C1340 C1339 1.439 . S
C1340 C1365 1.395 . S
N1341 Co1330 1.995 . S
N1341 C1342 1.376 . S
N1341 C1345 1.383 . S
C1342 N1341 1.376 . S
C1342 C1343 1.446 . S
C1342 C1365 1.391 . S
C1343 C1342 1.446 . S
C1343 C1344 1.339 . S
C1343 H1372 0.949 . S
C1344 C1343 1.339 . S
C1344 C1345 1.439 . S
C1344 H1373 0.950 . S
C1345 N1341 1.383 . S
C1345 C1344 1.439 . S
C1345 C1363 1.392 . S
N1346 Co1330 2.282 . S
N1346 C1349 1.332 . S
N1346 C1351 1.332 . S
C1347 C1348 1.386 . S
C1347 C1350 1.388 . S
C1348 C1347 1.386 . S
C1348 C1349 1.382 . S
C1348 H1374 0.950 . S
C1349 N1346 1.332 . S
C1349 C1348 1.382 . S
C1349 H1360 0.952 . S
C1350 C1347 1.388 . S
C1350 C1351 1.382 . S
C1350 H1375 0.950 . S
C1351 N1346 1.332 . S
C1351 C1350 1.382 . S
C1351 H1361 0.948 . S
N1352 Co1330 2.282 . S
N1352 C1356 1.332 . S
N1352 C1357 1.332 . S
C1353 C1354 1.388 . S
C1353 C1357 1.382 . S
C1353 H1376 0.950 . S
C1354 C1353 1.388 . S
C1354 C1355 1.386 . S
C1355 C1354 1.386 . S
C1355 C1356 1.382 . S
C1355 H1377 0.950 . S
C1356 N1352 1.332 . S
C1356 C1355 1.382 . S
C1356 H1358 0.952 . S
C1357 N1352 1.332 . S
C1357 C1353 1.382 . S
C1357 H1359 0.948 . S
H1358 C1356 0.952 . S
H1359 C1357 0.948 . S
H1360 C1349 0.952 . S
H1361 C1351 0.948 . S
C1362 C1328 1.395 . S
C1362 C1332 1.391 . S
C1363 C1325 1.389 . S
C1363 C1345 1.392 . S
C1364 C1335 1.392 . S
C1364 C1337 1.389 . S
C1365 C1340 1.395 . S
C1365 C1342 1.391 . S
H1366 C1326 0.951 . S
H1367 C1327 0.950 . S
H1368 C1333 0.949 . S
H1369 C1334 0.950 1_455 S
H1370 C1338 0.951 . S
H1371 C1339 0.950 . S
H1372 C1343 0.949 . S
H1373 C1344 0.950 . S
H1374 C1348 0.950 . S
H1375 C1350 0.950 . S
H1376 C1353 0.950 . S
H1377 C1355 0.950 . S
C1378 C1379 1.443 . S
C1378 N1382 1.376 . S
C1378 C1416 1.389 . S
C1379 C1378 1.443 . S
C1379 C1380 1.340 . S
C1379 H1419 0.951 . S
C1380 C1379 1.340 . S
C1380 C1381 1.439 . S
C1380 H1420 0.950 . S
C1381 C1380 1.439 . S
C1381 N1382 1.374 . S
C1381 C1415 1.395 . S
N1382 C1378 1.376 . S
N1382 C1381 1.374 . S
N1382 Co1383 2.008 . S
Co1383 N1382 2.008 . S
Co1383 N1384 1.995 . S
Co1383 N1389 2.008 . S
Co1383 N1394 1.995 . S
Co1383 N1399 2.282 . S
Co1383 N1405 2.282 . S
N1384 Co1383 1.995 . S
N1384 C1385 1.376 . S
N1384 C1388 1.383 . S
C1385 N1384 1.376 . S
C1385 C1386 1.446 . S
C1385 C1415 1.391 . S
C1386 C1385 1.446 . S
C1386 C1387 1.339 . S
C1386 H1421 0.949 . S
C1387 C1386 1.339 . S
C1387 C1388 1.439 . S
C1387 H1422 0.950 . S
C1388 N1384 1.383 . S
C1388 C1387 1.439 . S
C1388 C1417 1.392 . S
N1389 Co1383 2.008 . S
N1389 C1390 1.376 . S
N1389 C1393 1.374 . S
C1390 N1389 1.376 . S
C1390 C1391 1.443 . S
C1390 C1417 1.389 . S
C1391 C1390 1.443 . S
C1391 C1392 1.340 . S
C1391 H1423 0.951 . S
C1392 C1391 1.340 . S
C1392 C1393 1.439 . S
C1392 H1424 0.950 . S
C1393 N1389 1.374 . S
C1393 C1392 1.439 . S
C1393 C1418 1.395 . S
N1394 Co1383 1.995 . S
N1394 C1395 1.376 . S
N1394 C1398 1.383 . S
C1395 N1394 1.376 . S
C1395 C1396 1.446 . S
C1395 C1418 1.391 . S
C1396 C1395 1.446 . S
C1396 C1397 1.339 . S
C1396 H1425 0.949 . S
C1397 C1396 1.339 . S
C1397 C1398 1.439 . S
C1397 H1426 0.950 . S
C1398 N1394 1.383 . S
C1398 C1397 1.439 . S
C1398 C1416 1.392 . S
N1399 Co1383 2.282 . S
N1399 C1402 1.332 . S
N1399 C1404 1.332 . S
C1400 C1401 1.386 . S
C1400 C1403 1.388 . S
C1401 C1400 1.386 . S
C1401 C1402 1.382 . S
C1401 H1427 0.950 . S
C1402 N1399 1.332 . S
C1402 C1401 1.382 . S
C1402 H1413 0.952 . S
C1403 C1400 1.388 . S
C1403 C1404 1.382 . S
C1403 H1428 0.950 . S
C1404 N1399 1.332 . S
C1404 C1403 1.382 . S
C1404 H1414 0.948 . S
N1405 Co1383 2.282 . S
N1405 C1409 1.332 . S
N1405 C1410 1.332 . S
C1406 C1407 1.388 . S
C1406 C1410 1.382 . S
C1406 H1429 0.950 . S
C1407 C1406 1.388 . S
C1407 C1408 1.386 . S
C1408 C1407 1.386 . S
C1408 C1409 1.382 . S
C1408 H1430 0.950 . S
C1409 N1405 1.332 . S
C1409 C1408 1.382 . S
C1409 H1411 0.952 . S
C1410 N1405 1.332 . S
C1410 C1406 1.382 . S
C1410 H1412 0.948 . S
H1411 C1409 0.952 . S
H1412 C1410 0.948 . S
H1413 C1402 0.952 . S
H1414 C1404 0.948 . S
C1415 C1381 1.395 . S
C1415 C1385 1.391 . S
C1416 C1378 1.389 . S
C1416 C1398 1.392 . S
C1417 C1388 1.392 . S
C1417 C1390 1.389 . S
C1418 C1393 1.395 . S
C1418 C1395 1.391 . S
H1419 C1379 0.951 . S
H1420 C1380 0.950 . S
H1421 C1386 0.949 . S
H1422 C1387 0.950 . S
H1423 C1391 0.951 . S
H1424 C1392 0.950 . S
H1425 C1396 0.949 . S
H1426 C1397 0.950 . S
H1427 C1401 0.950 . S
H1428 C1403 0.950 . S
H1429 C1406 0.950 . S
H1430 C1408 0.950 . S
C1431 C1432 1.443 . S
C1431 N1435 1.376 . S
C1431 C1469 1.389 . S
C1432 C1431 1.443 . S
C1432 C1433 1.340 . S
C1432 H1472 0.951 . S
C1433 C1432 1.340 . S
C1433 C1434 1.439 . S
C1433 H1473 0.950 . S
C1434 C1433 1.439 . S
C1434 N1435 1.374 . S
C1434 C1468 1.395 . S
N1435 C1431 1.376 . S
N1435 C1434 1.374 . S
N1435 Co1436 2.008 . S
Co1436 N1435 2.008 . S
Co1436 N1437 1.995 . S
Co1436 N1442 2.008 . S
Co1436 N1447 1.995 . S
Co1436 N1452 2.282 . S
Co1436 N1458 2.282 . S
N1437 Co1436 1.995 . S
N1437 C1438 1.376 . S
N1437 C1441 1.383 . S
C1438 N1437 1.376 . S
C1438 C1439 1.446 . S
C1438 C1468 1.391 . S
C1439 C1438 1.446 . S
C1439 C1440 1.339 . S
C1439 H1474 0.949 . S
C1440 C1439 1.339 . S
C1440 C1441 1.439 . S
C1440 H1475 0.950 . S
C1441 N1437 1.383 . S
C1441 C1440 1.439 . S
C1441 C1470 1.392 . S
N1442 Co1436 2.008 . S
N1442 C1443 1.376 . S
N1442 C1446 1.374 . S
C1443 N1442 1.376 . S
C1443 C1444 1.443 . S
C1443 C1470 1.389 . S
C1444 C1443 1.443 . S
C1444 C1445 1.340 . S
C1444 H1476 0.951 . S
C1445 C1444 1.340 . S
C1445 C1446 1.439 . S
C1445 H1477 0.950 . S
C1446 N1442 1.374 . S
C1446 C1445 1.439 . S
C1446 C1471 1.395 . S
N1447 Co1436 1.995 . S
N1447 C1448 1.376 . S
N1447 C1451 1.383 . S
C1448 N1447 1.376 . S
C1448 C1449 1.446 . S
C1448 C1471 1.391 . S
C1449 C1448 1.446 . S
C1449 C1450 1.339 . S
C1449 H1478 0.949 . S
C1450 C1449 1.339 . S
C1450 C1451 1.439 . S
C1450 H1479 0.950 . S
C1451 N1447 1.383 . S
C1451 C1450 1.439 . S
C1451 C1469 1.392 . S
N1452 Co1436 2.282 . S
N1452 C1455 1.332 . S
N1452 C1457 1.332 . S
C1453 C1454 1.386 . S
C1453 C1456 1.388 . S
C1454 C1453 1.386 . S
C1454 C1455 1.382 . S
C1454 H1480 0.950 . S
C1455 N1452 1.332 . S
C1455 C1454 1.382 . S
C1455 H1466 0.952 . S
C1456 C1453 1.388 . S
C1456 C1457 1.382 . S
C1456 H1481 0.950 . S
C1457 N1452 1.332 . S
C1457 C1456 1.382 . S
C1457 H1467 0.948 . S
N1458 Co1436 2.282 . S
N1458 C1462 1.332 . S
N1458 C1463 1.332 . S
C1459 C1460 1.388 . S
C1459 C1463 1.382 . S
C1459 H1482 0.950 . S
C1460 C1459 1.388 . S
C1460 C1461 1.386 . S
C1461 C1460 1.386 . S
C1461 C1462 1.382 . S
C1461 H1483 0.950 . S
C1462 N1458 1.332 . S
C1462 C1461 1.382 . S
C1462 H1464 0.952 . S
C1463 N1458 1.332 . S
C1463 C1459 1.382 . S
C1463 H1465 0.948 . S
H1464 C1462 0.952 . S
H1465 C1463 0.948 . S
H1466 C1455 0.952 . S
H1467 C1457 0.948 . S
C1468 C1434 1.395 . S
C1468 C1438 1.391 . S
C1469 C1431 1.389 . S
C1469 C1451 1.392 . S
C1470 C1441 1.392 . S
C1470 C1443 1.389 . S
C1471 C1446 1.395 . S
C1471 C1448 1.391 . S
H1472 C1432 0.951 . S
H1473 C1433 0.950 . S
H1474 C1439 0.949 . S
H1475 C1440 0.950 . S
H1476 C1444 0.951 . S
H1477 C1445 0.950 . S
H1478 C1449 0.949 . S
H1479 C1450 0.950 . S
H1480 C1454 0.950 . S
H1481 C1456 0.950 . S
H1482 C1459 0.950 . S
H1483 C1461 0.950 . S
C1484 C1485 1.443 . S
C1484 N1488 1.376 . S
C1484 C1522 1.389 . S
C1485 C1484 1.443 . S
C1485 C1486 1.340 . S
C1485 H1525 0.951 . S
C1486 C1485 1.340 . S
C1486 C1487 1.439 . S
C1486 H1526 0.950 . S
C1487 C1486 1.439 . S
C1487 N1488 1.374 . S
C1487 C1521 1.395 . S
N1488 C1484 1.376 . S
N1488 C1487 1.374 . S
N1488 Co1489 2.008 . S
Co1489 N1488 2.008 . S
Co1489 N1490 1.995 . S
Co1489 N1495 2.008 . S
Co1489 N1500 1.995 . S
Co1489 N1505 2.282 . S
Co1489 N1511 2.282 . S
N1490 Co1489 1.995 . S
N1490 C1491 1.376 . S
N1490 C1494 1.383 . S
C1491 N1490 1.376 . S
C1491 C1492 1.446 . S
C1491 C1521 1.391 . S
C1492 C1491 1.446 . S
C1492 C1493 1.339 . S
C1492 H1527 0.949 . S
C1493 C1492 1.339 . S
C1493 C1494 1.439 . S
C1493 H1528 0.950 . S
C1494 N1490 1.383 . S
C1494 C1493 1.439 . S
C1494 C1523 1.392 . S
N1495 Co1489 2.008 . S
N1495 C1496 1.376 . S
N1495 C1499 1.374 . S
C1496 N1495 1.376 . S
C1496 C1497 1.443 . S
C1496 C1523 1.389 . S
C1497 C1496 1.443 . S
C1497 C1498 1.340 . S
C1497 H1529 0.951 . S
C1498 C1497 1.340 . S
C1498 C1499 1.439 . S
C1498 H1530 0.950 . S
C1499 N1495 1.374 . S
C1499 C1498 1.439 . S
C1499 C1524 1.395 . S
N1500 Co1489 1.995 . S
N1500 C1501 1.376 . S
N1500 C1504 1.383 . S
C1501 N1500 1.376 . S
C1501 C1502 1.446 . S
C1501 C1524 1.391 . S
C1502 C1501 1.446 . S
C1502 C1503 1.339 . S
C1502 H1531 0.949 1_565 S
C1503 C1502 1.339 . S
C1503 C1504 1.439 . S
C1503 H1532 0.950 1_565 S
C1504 N1500 1.383 . S
C1504 C1503 1.439 . S
C1504 C1522 1.392 . S
N1505 Co1489 2.282 . S
N1505 C1508 1.332 . S
N1505 C1510 1.332 . S
C1506 C1507 1.386 . S
C1506 C1509 1.388 . S
C1507 C1506 1.386 . S
C1507 C1508 1.382 . S
C1507 H1533 0.950 . S
C1508 N1505 1.332 . S
C1508 C1507 1.382 . S
C1508 H1519 0.952 . S
C1509 C1506 1.388 . S
C1509 C1510 1.382 . S
C1509 H1534 0.950 . S
C1510 N1505 1.332 . S
C1510 C1509 1.382 . S
C1510 H1520 0.948 . S
N1511 Co1489 2.282 . S
N1511 C1515 1.332 . S
N1511 C1516 1.332 . S
C1512 C1513 1.388 . S
C1512 C1516 1.382 1_545 S
C1512 H1535 0.950 . S
C1513 C1512 1.388 . S
C1513 C1514 1.386 1_545 S
C1514 C1513 1.386 1_565 S
C1514 C1515 1.382 . S
C1514 H1536 0.950 . S
C1515 N1511 1.332 . S
C1515 C1514 1.382 . S
C1515 H1517 0.952 . S
C1516 N1511 1.332 . S
C1516 C1512 1.382 1_565 S
C1516 H1518 0.959 . S
H1517 C1515 0.952 . S
H1518 C1516 0.959 . S
H1519 C1508 0.952 . S
H1520 C1510 0.948 . S
C1521 C1487 1.395 . S
C1521 C1491 1.391 . S
C1522 C1484 1.389 . S
C1522 C1504 1.392 . S
C1523 C1494 1.392 . S
C1523 C1496 1.389 . S
C1524 C1499 1.395 . S
C1524 C1501 1.391 . S
H1525 C1485 0.951 . S
H1526 C1486 0.950 . S
H1527 C1492 0.949 . S
H1528 C1493 0.950 . S
H1529 C1497 0.951 . S
H1530 C1498 0.950 . S
H1531 C1502 0.949 1_545 S
H1532 C1503 0.950 1_545 S
H1533 C1507 0.950 . S
H1534 C1509 0.950 . S
H1535 C1512 0.950 . S
H1536 C1514 0.950 . S
C1537 C1538 1.443 . S
C1537 N1541 1.376 . S
C1537 C1575 1.389 . S
C1538 C1537 1.443 . S
C1538 C1539 1.340 . S
C1538 H1578 0.951 . S
C1539 C1538 1.340 . S
C1539 C1540 1.439 . S
C1539 H1579 0.950 . S
C1540 C1539 1.439 . S
C1540 N1541 1.374 . S
C1540 C1574 1.395 . S
N1541 C1537 1.376 . S
N1541 C1540 1.374 . S
N1541 Co1542 2.008 . S
Co1542 N1541 2.008 . S
Co1542 N1543 1.995 . S
Co1542 N1548 2.008 . S
Co1542 N1553 1.995 . S
Co1542 N1558 2.282 . S
Co1542 N1564 2.282 . S
N1543 Co1542 1.995 . S
N1543 C1544 1.376 . S
N1543 C1547 1.383 . S
C1544 N1543 1.376 . S
C1544 C1545 1.446 . S
C1544 C1574 1.391 . S
C1545 C1544 1.446 . S
C1545 C1546 1.339 . S
C1545 H1580 0.949 . S
C1546 C1545 1.339 . S
C1546 C1547 1.439 . S
C1546 H1581 0.950 . S
C1547 N1543 1.383 . S
C1547 C1546 1.439 . S
C1547 C1576 1.392 . S
N1548 Co1542 2.008 . S
N1548 C1549 1.376 . S
N1548 C1552 1.374 . S
C1549 N1548 1.376 . S
C1549 C1550 1.443 . S
C1549 C1576 1.389 . S
C1550 C1549 1.443 . S
C1550 C1551 1.340 . S
C1550 H1582 0.951 . S
C1551 C1550 1.340 . S
C1551 C1552 1.439 . S
C1551 H1583 0.950 . S
C1552 N1548 1.374 . S
C1552 C1551 1.439 . S
C1552 C1577 1.395 . S
N1553 Co1542 1.995 . S
N1553 C1554 1.376 . S
N1553 C1557 1.383 . S
C1554 N1553 1.376 . S
C1554 C1555 1.446 . S
C1554 C1577 1.391 . S
C1555 C1554 1.446 . S
C1555 C1556 1.339 . S
C1555 H1584 0.948 . S
C1556 C1555 1.339 . S
C1556 C1557 1.439 . S
C1556 H1585 0.950 . S
C1557 N1553 1.383 . S
C1557 C1556 1.439 . S
C1557 C1575 1.392 . S
N1558 Co1542 2.282 . S
N1558 C1561 1.332 . S
N1558 C1563 1.332 . S
C1559 C1560 1.386 . S
C1559 C1562 1.388 . S
C1560 C1559 1.386 . S
C1560 C1561 1.382 . S
C1560 H1586 0.950 . S
C1561 N1558 1.332 . S
C1561 C1560 1.382 . S
C1561 H1572 0.952 . S
C1562 C1559 1.388 . S
C1562 C1563 1.382 . S
C1562 H1587 0.950 . S
C1563 N1558 1.332 . S
C1563 C1562 1.382 . S
C1563 H1573 0.948 . S
N1564 Co1542 2.282 . S
N1564 C1568 1.332 . S
N1564 C1569 1.332 . S
C1565 C1566 1.397 1_655 S
C1565 C1569 1.382 1_655 S
C1565 H1588 0.950 . S
C1566 C1565 1.397 1_455 S
C1566 C1567 1.411 . S
C1567 C1566 1.411 . S
C1567 C1568 1.382 . S
C1567 H1589 0.950 . S
C1568 N1564 1.332 . S
C1568 C1567 1.382 . S
C1568 H1570 0.952 . S
C1569 N1564 1.332 . S
C1569 C1565 1.382 1_455 S
C1569 H1571 0.948 . S
H1570 C1568 0.952 . S
H1571 C1569 0.948 . S
H1572 C1561 0.952 . S
H1573 C1563 0.948 . S
C1574 C1540 1.395 . S
C1574 C1544 1.391 . S
C1575 C1537 1.389 . S
C1575 C1557 1.392 . S
C1576 C1547 1.392 . S
C1576 C1549 1.389 . S
C1577 C1552 1.395 . S
C1577 C1554 1.391 . S
H1578 C1538 0.951 . S
H1579 C1539 0.950 . S
H1580 C1545 0.949 . S
H1581 C1546 0.950 . S
H1582 C1550 0.951 . S
H1583 C1551 0.950 . S
H1584 C1555 0.948 . S
H1585 C1556 0.950 . S
H1586 C1560 0.950 . S
H1587 C1562 0.950 . S
H1588 C1565 0.950 . S
H1589 C1567 0.950 . S
C1590 C1591 1.443 . S
C1590 N1594 1.376 . S
C1590 C1628 1.389 . S
C1591 C1590 1.443 . S
C1591 C1592 1.340 . S
C1591 H1631 0.951 . S
C1592 C1591 1.340 . S
C1592 C1593 1.439 . S
C1592 H1632 0.950 . S
C1593 C1592 1.439 . S
C1593 N1594 1.374 . S
C1593 C1627 1.395 . S
N1594 C1590 1.376 . S
N1594 C1593 1.374 . S
N1594 Co1595 2.008 . S
Co1595 N1594 2.008 . S
Co1595 N1596 1.995 . S
Co1595 N1601 2.008 . S
Co1595 N1606 1.995 . S
Co1595 N1611 2.282 . S
Co1595 N1617 2.282 . S
N1596 Co1595 1.995 . S
N1596 C1597 1.376 . S
N1596 C1600 1.383 . S
C1597 N1596 1.376 . S
C1597 C1598 1.446 . S
C1597 C1627 1.391 . S
C1598 C1597 1.446 . S
C1598 C1599 1.339 . S
C1598 H1633 0.949 . S
C1599 C1598 1.339 . S
C1599 C1600 1.439 . S
C1599 H1634 0.950 . S
C1600 N1596 1.383 . S
C1600 C1599 1.439 . S
C1600 C1629 1.392 . S
N1601 Co1595 2.008 . S
N1601 C1602 1.376 . S
N1601 C1605 1.374 . S
C1602 N1601 1.376 . S
C1602 C1603 1.443 . S
C1602 C1629 1.389 . S
C1603 C1602 1.443 . S
C1603 C1604 1.340 . S
C1603 H1635 0.951 . S
C1604 C1603 1.340 . S
C1604 C1605 1.439 . S
C1604 H1636 0.950 . S
C1605 N1601 1.374 . S
C1605 C1604 1.439 . S
C1605 C1630 1.395 . S
N1606 Co1595 1.995 . S
N1606 C1607 1.376 . S
N1606 C1610 1.383 . S
C1607 N1606 1.376 . S
C1607 C1608 1.446 . S
C1607 C1630 1.391 . S
C1608 C1607 1.446 . S
C1608 C1609 1.339 . S
C1608 H1637 0.949 . S
C1609 C1608 1.339 . S
C1609 C1610 1.439 . S
C1609 H1638 0.950 . S
C1610 N1606 1.383 . S
C1610 C1609 1.439 . S
C1610 C1628 1.392 . S
N1611 Co1595 2.282 . S
N1611 C1614 1.332 . S
N1611 C1616 1.332 . S
C1612 C1613 1.386 . S
C1612 C1615 1.388 . S
C1613 C1612 1.386 . S
C1613 C1614 1.382 . S
C1613 H1639 0.950 . S
C1614 N1611 1.332 . S
C1614 C1613 1.382 . S
C1614 H1625 0.952 . S
C1615 C1612 1.388 . S
C1615 C1616 1.382 . S
C1615 H1640 0.950 . S
C1616 N1611 1.332 . S
C1616 C1615 1.382 . S
C1616 H1626 0.948 . S
N1617 Co1595 2.282 . S
N1617 C1621 1.332 . S
N1617 C1622 1.332 . S
C1618 C1619 1.388 . S
C1618 C1622 1.382 . S
C1618 H1641 0.950 . S
C1619 C1618 1.388 . S
C1619 C1620 1.386 . S
C1620 C1619 1.386 . S
C1620 C1621 1.382 . S
C1620 H1642 0.950 . S
C1621 N1617 1.332 . S
C1621 C1620 1.382 . S
C1621 H1623 0.952 . S
C1622 N1617 1.332 . S
C1622 C1618 1.382 . S
C1622 H1624 0.948 . S
H1623 C1621 0.952 . S
H1624 C1622 0.948 . S
H1625 C1614 0.952 . S
H1626 C1616 0.948 . S
C1627 C1593 1.395 . S
C1627 C1597 1.391 . S
C1628 C1590 1.389 . S
C1628 C1610 1.392 . S
C1629 C1600 1.392 . S
C1629 C1602 1.389 . S
C1630 C1605 1.395 . S
C1630 C1607 1.391 . S
H1631 C1591 0.951 . S
H1632 C1592 0.950 . S
H1633 C1598 0.949 . S
H1634 C1599 0.950 . S
H1635 C1603 0.951 . S
H1636 C1604 0.950 . S
H1637 C1608 0.949 . S
H1638 C1609 0.950 . S
H1639 C1613 0.950 . S
H1640 C1615 0.950 . S
H1641 C1618 0.950 . S
H1642 C1620 0.950 . S
C1643 C1644 1.443 . S
C1643 N1647 1.376 . S
C1643 C1681 1.389 . S
C1644 C1643 1.443 . S
C1644 C1645 1.340 1_565 S
C1644 H1684 0.951 1_565 S
C1645 C1644 1.340 1_545 S
C1645 C1646 1.439 1_545 S
C1645 H1685 0.950 . S
C1646 C1645 1.439 1_565 S
C1646 N1647 1.374 . S
C1646 C1680 1.395 . S
N1647 C1643 1.376 . S
N1647 C1646 1.374 . S
N1647 Co1648 2.008 . S
Co1648 N1647 2.008 . S
Co1648 N1649 1.995 . S
Co1648 N1654 2.008 . S
Co1648 N1659 1.995 . S
Co1648 N1664 2.282 . S
Co1648 N1670 2.282 . S
N1649 Co1648 1.995 . S
N1649 C1650 1.376 . S
N1649 C1653 1.383 . S
C1650 N1649 1.376 . S
C1650 C1651 1.446 . S
C1650 C1680 1.391 . S
C1651 C1650 1.446 . S
C1651 C1652 1.339 . S
C1651 H1686 0.949 . S
C1652 C1651 1.339 . S
C1652 C1653 1.439 . S
C1652 H1687 0.950 . S
C1653 N1649 1.383 . S
C1653 C1652 1.439 . S
C1653 C1682 1.392 . S
N1654 Co1648 2.008 . S
N1654 C1655 1.376 . S
N1654 C1658 1.374 . S
C1655 N1654 1.376 . S
C1655 C1656 1.443 . S
C1655 C1682 1.389 . S
C1656 C1655 1.443 . S
C1656 C1657 1.340 . S
C1656 H1688 0.951 . S
C1657 C1656 1.340 . S
C1657 C1658 1.439 . S
C1657 H1689 0.950 . S
C1658 N1654 1.374 . S
C1658 C1657 1.439 . S
C1658 C1683 1.395 . S
N1659 Co1648 1.995 . S
N1659 C1660 1.376 . S
N1659 C1663 1.383 . S
C1660 N1659 1.376 . S
C1660 C1661 1.446 . S
C1660 C1683 1.391 . S
C1661 C1660 1.446 . S
C1661 C1662 1.339 . S
C1661 H1690 0.949 . S
C1662 C1661 1.339 . S
C1662 C1663 1.439 . S
C1662 H1691 0.950 . S
C1663 N1659 1.383 . S
C1663 C1662 1.439 . S
C1663 C1681 1.392 . S
N1664 Co1648 2.282 . S
N1664 C1667 1.332 . S
N1664 C1669 1.332 . S
C1665 C1666 1.386 . S
C1665 C1668 1.388 . S
C1666 C1665 1.386 . S
C1666 C1667 1.382 . S
C1666 H1692 0.950 . S
C1667 N1664 1.332 . S
C1667 C1666 1.382 . S
C1667 H1678 0.952 . S
C1668 C1665 1.388 . S
C1668 C1669 1.382 . S
C1668 H1693 0.950 . S
C1669 N1664 1.332 . S
C1669 C1668 1.382 . S
C1669 H1679 0.948 . S
N1670 Co1648 2.282 . S
N1670 C1674 1.332 . S
N1670 C1675 1.332 . S
C1671 C1672 1.388 1_565 S
C1671 C1675 1.382 . S
C1671 H1694 0.950 . S
C1672 C1671 1.388 1_545 S
C1672 C1673 1.386 . S
C1673 C1672 1.386 . S
C1673 C1674 1.382 1_545 S
C1673 H1695 0.950 . S
C1674 N1670 1.332 . S
C1674 C1673 1.382 1_565 S
C1674 H1676 0.952 . S
C1675 N1670 1.332 . S
C1675 C1671 1.382 . S
C1675 H1677 0.948 . S
H1676 C1674 0.952 . S
H1677 C1675 0.948 . S
H1678 C1667 0.952 . S
H1679 C1669 0.948 . S
C1680 C1646 1.395 . S
C1680 C1650 1.391 . S
C1681 C1643 1.389 . S
C1681 C1663 1.392 . S
C1682 C1653 1.392 . S
C1682 C1655 1.389 . S
C1683 C1658 1.395 . S
C1683 C1660 1.391 . S
H1684 C1644 0.951 1_545 S
H1685 C1645 0.950 . S
H1686 C1651 0.949 . S
H1687 C1652 0.950 . S
H1688 C1656 0.951 . S
H1689 C1657 0.950 . S
H1690 C1661 0.949 . S
H1691 C1662 0.950 . S
H1692 C1666 0.950 . S
H1693 C1668 0.950 . S
H1694 C1671 0.950 . S
H1695 C1673 0.950 . S
C1696 C1697 1.443 1_455 S
C1696 N1700 1.376 . S
C1696 C1734 1.389 . S
C1697 C1696 1.443 1_655 S
C1697 C1698 1.340 . S
C1697 H1737 0.951 . S
C1698 C1697 1.340 . S
C1698 C1699 1.439 1_655 S
C1698 H1738 0.950 . S
C1699 C1698 1.439 1_455 S
C1699 N1700 1.374 . S
C1699 C1733 1.395 . S
N1700 C1696 1.376 . S
N1700 C1699 1.374 . S
N1700 Co1701 2.008 . S
Co1701 N1700 2.008 . S
Co1701 N1702 1.995 . S
Co1701 N1707 2.008 . S
Co1701 N1712 1.995 . S
Co1701 N1717 2.282 . S
Co1701 N1723 2.282 . S
N1702 Co1701 1.995 . S
N1702 C1703 1.376 . S
N1702 C1706 1.383 . S
C1703 N1702 1.376 . S
C1703 C1704 1.446 . S
C1703 C1733 1.391 . S
C1704 C1703 1.446 . S
C1704 C1705 1.339 . S
C1704 H1739 0.949 . S
C1705 C1704 1.339 . S
C1705 C1706 1.439 . S
C1705 H1740 0.950 . S
C1706 N1702 1.383 . S
C1706 C1705 1.439 . S
C1706 C1735 1.392 . S
N1707 Co1701 2.008 . S
N1707 C1708 1.376 . S
N1707 C1711 1.374 . S
C1708 N1707 1.376 . S
C1708 C1709 1.443 . S
C1708 C1735 1.389 . S
C1709 C1708 1.443 . S
C1709 C1710 1.340 . S
C1709 H1741 0.951 . S
C1710 C1709 1.340 . S
C1710 C1711 1.439 . S
C1710 H1742 0.950 . S
C1711 N1707 1.374 . S
C1711 C1710 1.439 . S
C1711 C1736 1.395 . S
N1712 Co1701 1.995 . S
N1712 C1713 1.376 . S
N1712 C1716 1.383 . S
C1713 N1712 1.376 . S
C1713 C1714 1.446 . S
C1713 C1736 1.391 . S
C1714 C1713 1.446 . S
C1714 C1715 1.339 . S
C1714 H1743 0.949 . S
C1715 C1714 1.339 . S
C1715 C1716 1.439 . S
C1715 H1744 0.950 . S
C1716 N1712 1.383 . S
C1716 C1715 1.439 . S
C1716 C1734 1.392 . S
N1717 Co1701 2.282 . S
N1717 C1720 1.332 . S
N1717 C1722 1.332 . S
C1718 C1719 1.386 . S
C1718 C1721 1.388 . S
C1719 C1718 1.386 . S
C1719 C1720 1.382 . S
C1719 H1745 0.950 . S
C1720 N1717 1.332 . S
C1720 C1719 1.382 . S
C1720 H1731 0.952 . S
C1721 C1718 1.388 . S
C1721 C1722 1.382 . S
C1721 H1746 0.950 . S
C1722 N1717 1.332 . S
C1722 C1721 1.382 . S
C1722 H1732 0.948 . S
N1723 Co1701 2.282 . S
N1723 C1727 1.332 . S
N1723 C1728 1.332 . S
C1724 C1725 1.388 1_455 S
C1724 C1728 1.382 . S
C1724 H1747 0.950 . S
C1725 C1724 1.388 1_655 S
C1725 C1726 1.386 . S
C1726 C1725 1.386 . S
C1726 C1727 1.382 1_655 S
C1726 H1748 0.950 . S
C1727 N1723 1.332 . S
C1727 C1726 1.382 1_455 S
C1727 H1729 0.952 . S
C1728 N1723 1.332 . S
C1728 C1724 1.382 . S
C1728 H1730 0.948 . S
H1729 C1727 0.952 . S
H1730 C1728 0.948 . S
H1731 C1720 0.952 . S
H1732 C1722 0.948 . S
C1733 C1699 1.395 . S
C1733 C1703 1.391 . S
C1734 C1696 1.389 . S
C1734 C1716 1.392 . S
C1735 C1706 1.392 . S
C1735 C1708 1.389 . S
C1736 C1711 1.395 . S
C1736 C1713 1.391 . S
H1737 C1697 0.951 . S
H1738 C1698 0.950 . S
H1739 C1704 0.949 . S
H1740 C1705 0.950 . S
H1741 C1709 0.951 . S
H1742 C1710 0.950 . S
H1743 C1714 0.949 . S
H1744 C1715 0.950 . S
H1745 C1719 0.950 . S
H1746 C1721 0.950 . S
H1747 C1724 0.950 . S
H1748 C1726 0.950 . S
C1749 C1750 1.443 . S
C1749 N1753 1.376 . S
C1749 C1787 1.389 . S
C1750 C1749 1.443 . S
C1750 C1751 1.340 . S
C1750 H1790 0.951 . S
C1751 C1750 1.340 . S
C1751 C1752 1.439 . S
C1751 H1791 0.950 . S
C1752 C1751 1.439 . S
C1752 N1753 1.374 . S
C1752 C1786 1.395 . S
N1753 C1749 1.376 . S
N1753 C1752 1.374 . S
N1753 Co1754 2.008 . S
Co1754 N1753 2.008 . S
Co1754 N1755 1.995 . S
Co1754 N1760 2.008 . S
Co1754 N1765 1.995 . S
Co1754 N1770 2.282 . S
Co1754 N1776 2.282 . S
N1755 Co1754 1.995 . S
N1755 C1756 1.376 . S
N1755 C1759 1.383 . S
C1756 N1755 1.376 . S
C1756 C1757 1.446 . S
C1756 C1786 1.391 . S
C1757 C1756 1.446 . S
C1757 C1758 1.339 . S
C1757 H1792 0.949 . S
C1758 C1757 1.339 . S
C1758 C1759 1.439 . S
C1758 H1793 0.950 . S
C1759 N1755 1.383 . S
C1759 C1758 1.439 . S
C1759 C1788 1.392 . S
N1760 Co1754 2.008 . S
N1760 C1761 1.376 . S
N1760 C1764 1.374 . S
C1761 N1760 1.376 . S
C1761 C1762 1.443 . S
C1761 C1788 1.389 . S
C1762 C1761 1.443 . S
C1762 C1763 1.352 . S
C1762 H1794 0.951 1_655 S
C1763 C1762 1.352 . S
C1763 C1764 1.474 . S
C1763 H1795 0.911 1_655 S
C1764 N1760 1.374 . S
C1764 C1763 1.474 . S
C1764 C1789 1.395 . S
N1765 Co1754 1.995 . S
N1765 C1766 1.376 . S
N1765 C1769 1.383 . S
C1766 N1765 1.376 . S
C1766 C1767 1.446 . S
C1766 C1789 1.391 . S
C1767 C1766 1.446 . S
C1767 C1768 1.339 . S
C1767 H1796 0.949 . S
C1768 C1767 1.339 . S
C1768 C1769 1.439 . S
C1768 H1797 0.950 . S
C1769 N1765 1.383 . S
C1769 C1768 1.439 . S
C1769 C1787 1.392 . S
N1770 Co1754 2.282 . S
N1770 C1773 1.332 . S
N1770 C1775 1.332 . S
C1771 C1772 1.386 . S
C1771 C1774 1.388 . S
C1772 C1771 1.386 . S
C1772 C1773 1.382 . S
C1772 H1798 0.950 . S
C1773 N1770 1.332 . S
C1773 C1772 1.382 . S
C1773 H1784 0.952 . S
C1774 C1771 1.388 . S
C1774 C1775 1.382 . S
C1774 H1799 0.950 . S
C1775 N1770 1.332 . S
C1775 C1774 1.382 . S
C1775 H1785 0.948 . S
N1776 Co1754 2.282 . S
N1776 C1780 1.332 . S
N1776 C1781 1.332 . S
C1777 C1778 1.388 . S
C1777 C1781 1.382 . S
C1777 H1800 0.950 . S
C1778 C1777 1.388 . S
C1778 C1779 1.386 . S
C1779 C1778 1.386 . S
C1779 C1780 1.382 . S
C1779 H1801 0.950 . S
C1780 N1776 1.332 . S
C1780 C1779 1.382 . S
C1780 H1782 0.952 . S
C1781 N1776 1.332 . S
C1781 C1777 1.382 . S
C1781 H1783 0.948 . S
H1782 C1780 0.952 . S
H1783 C1781 0.948 . S
H1784 C1773 0.952 . S
H1785 C1775 0.948 . S
C1786 C1752 1.395 . S
C1786 C1756 1.391 . S
C1787 C1749 1.389 . S
C1787 C1769 1.392 . S
C1788 C1759 1.392 . S
C1788 C1761 1.389 . S
C1789 C1764 1.395 . S
C1789 C1766 1.391 . S
H1790 C1750 0.951 . S
H1791 C1751 0.950 . S
H1792 C1757 0.949 . S
H1793 C1758 0.950 . S
H1794 C1762 0.951 1_455 S
H1795 C1763 0.911 1_455 S
H1796 C1767 0.949 . S
H1797 C1768 0.950 . S
H1798 C1772 0.950 . S
H1799 C1774 0.950 . S
H1800 C1777 0.950 . S
H1801 C1779 0.950 . S
C1802 C1803 1.443 . S
C1802 N1806 1.376 . S
C1802 C1840 1.389 . S
C1803 C1802 1.443 . S
C1803 C1804 1.340 . S
C1803 H1843 0.951 . S
C1804 C1803 1.340 . S
C1804 C1805 1.439 . S
C1804 H1844 0.950 . S
C1805 C1804 1.439 . S
C1805 N1806 1.374 . S
C1805 C1839 1.395 . S
N1806 C1802 1.376 . S
N1806 C1805 1.374 . S
N1806 Co1807 2.008 . S
Co1807 N1806 2.008 . S
Co1807 N1808 1.995 . S
Co1807 N1813 2.008 . S
Co1807 N1818 1.995 . S
Co1807 N1823 2.282 . S
Co1807 N1829 2.282 . S
N1808 Co1807 1.995 . S
N1808 C1809 1.376 . S
N1808 C1812 1.383 . S
C1809 N1808 1.376 . S
C1809 C1810 1.446 . S
C1809 C1839 1.391 . S
C1810 C1809 1.446 . S
C1810 C1811 1.339 . S
C1810 H1845 0.949 . S
C1811 C1810 1.339 . S
C1811 C1812 1.439 . S
C1811 H1846 0.950 . S
C1812 N1808 1.383 . S
C1812 C1811 1.439 . S
C1812 C1841 1.392 . S
N1813 Co1807 2.008 . S
N1813 C1814 1.376 . S
N1813 C1817 1.374 . S
C1814 N1813 1.376 . S
C1814 C1815 1.443 . S
C1814 C1841 1.389 . S
C1815 C1814 1.443 . S
C1815 C1816 1.340 . S
C1815 H1847 0.951 . S
C1816 C1815 1.340 . S
C1816 C1817 1.439 . S
C1816 H1848 0.950 . S
C1817 N1813 1.374 . S
C1817 C1816 1.439 . S
C1817 C1842 1.395 . S
N1818 Co1807 1.995 . S
N1818 C1819 1.376 . S
N1818 C1822 1.383 . S
C1819 N1818 1.376 . S
C1819 C1820 1.446 . S
C1819 C1842 1.391 . S
C1820 C1819 1.446 . S
C1820 C1821 1.339 . S
C1820 H1849 0.949 . S
C1821 C1820 1.339 . S
C1821 C1822 1.439 . S
C1821 H1850 0.950 . S
C1822 N1818 1.383 . S
C1822 C1821 1.439 . S
C1822 C1840 1.392 . S
N1823 Co1807 2.282 . S
N1823 C1826 1.332 . S
N1823 C1828 1.332 . S
C1824 C1825 1.386 . S
C1824 C1827 1.388 . S
C1825 C1824 1.386 . S
C1825 C1826 1.382 . S
C1825 H1851 0.950 . S
C1826 N1823 1.332 . S
C1826 C1825 1.382 . S
C1826 H1837 0.952 . S
C1827 C1824 1.388 . S
C1827 C1828 1.382 . S
C1827 H1852 0.950 . S
C1828 N1823 1.332 . S
C1828 C1827 1.382 . S
C1828 H1838 0.948 . S
N1829 Co1807 2.282 . S
N1829 C1833 1.332 . S
N1829 C1834 1.332 . S
C1830 C1831 1.388 . S
C1830 C1834 1.382 . S
C1830 H1853 0.950 . S
C1831 C1830 1.388 . S
C1831 C1832 1.386 . S
C1832 C1831 1.386 . S
C1832 C1833 1.382 . S
C1832 H1854 0.950 . S
C1833 N1829 1.332 . S
C1833 C1832 1.382 . S
C1833 H1835 0.952 . S
C1834 N1829 1.332 . S
C1834 C1830 1.382 . S
C1834 H1836 0.948 . S
H1835 C1833 0.952 . S
H1836 C1834 0.948 . S
H1837 C1826 0.952 . S
H1838 C1828 0.948 . S
C1839 C1805 1.395 . S
C1839 C1809 1.391 . S
C1840 C1802 1.389 . S
C1840 C1822 1.392 . S
C1841 C1812 1.392 . S
C1841 C1814 1.389 . S
C1842 C1817 1.395 . S
C1842 C1819 1.391 . S
H1843 C1803 0.951 . S
H1844 C1804 0.950 . S
H1845 C1810 0.949 . S
H1846 C1811 0.950 . S
H1847 C1815 0.951 . S
H1848 C1816 0.950 . S
H1849 C1820 0.949 . S
H1850 C1821 0.950 . S
H1851 C1825 0.950 . S
H1852 C1827 0.950 . S
H1853 C1830 0.950 . S
H1854 C1832 0.950 . S
C1855 C1856 1.443 . S
C1855 N1859 1.376 . S
C1855 C1893 1.389 . S
C1856 C1855 1.443 . S
C1856 C1857 1.340 . S
C1856 H1896 0.951 . S
C1857 C1856 1.340 . S
C1857 C1858 1.439 . S
C1857 H1897 0.950 . S
C1858 C1857 1.439 . S
C1858 N1859 1.374 . S
C1858 C1892 1.395 . S
N1859 C1855 1.376 . S
N1859 C1858 1.374 . S
N1859 Co1860 2.008 . S
Co1860 N1859 2.008 . S
Co1860 N1861 1.995 . S
Co1860 N1866 2.008 . S
Co1860 N1871 1.995 . S
Co1860 N1876 2.282 . S
Co1860 N1882 2.282 . S
N1861 Co1860 1.995 . S
N1861 C1862 1.376 . S
N1861 C1865 1.383 . S
C1862 N1861 1.376 . S
C1862 C1863 1.446 . S
C1862 C1892 1.391 . S
C1863 C1862 1.446 . S
C1863 C1864 1.339 . S
C1863 H1898 0.949 1_545 S
C1864 C1863 1.339 . S
C1864 C1865 1.439 . S
C1864 H1899 0.950 . S
C1865 N1861 1.383 . S
C1865 C1864 1.439 . S
C1865 C1894 1.392 . S
N1866 Co1860 2.008 . S
N1866 C1867 1.376 . S
N1866 C1870 1.374 . S
C1867 N1866 1.376 . S
C1867 C1868 1.443 . S
C1867 C1894 1.389 . S
C1868 C1867 1.443 . S
C1868 C1869 1.340 . S
C1868 H1900 0.951 . S
C1869 C1868 1.340 . S
C1869 C1870 1.439 . S
C1869 H1901 0.950 . S
C1870 N1866 1.374 . S
C1870 C1869 1.439 . S
C1870 C1895 1.395 . S
N1871 Co1860 1.995 . S
N1871 C1872 1.376 . S
N1871 C1875 1.383 . S
C1872 N1871 1.376 . S
C1872 C1873 1.446 . S
C1872 C1895 1.391 . S
C1873 C1872 1.446 . S
C1873 C1874 1.339 . S
C1873 H1902 0.949 . S
C1874 C1873 1.339 . S
C1874 C1875 1.439 . S
C1874 H1903 0.950 . S
C1875 N1871 1.383 . S
C1875 C1874 1.439 . S
C1875 C1893 1.392 . S
N1876 Co1860 2.282 . S
N1876 C1879 1.332 . S
N1876 C1881 1.332 . S
C1877 C1878 1.386 . S
C1877 C1880 1.388 . S
C1878 C1877 1.386 . S
C1878 C1879 1.382 . S
C1878 H1904 0.950 . S
C1879 N1876 1.332 . S
C1879 C1878 1.382 . S
C1879 H1890 0.952 . S
C1880 C1877 1.388 . S
C1880 C1881 1.382 . S
C1880 H1905 0.950 . S
C1881 N1876 1.332 . S
C1881 C1880 1.382 . S
C1881 H1891 0.948 . S
N1882 Co1860 2.282 . S
N1882 C1886 1.332 . S
N1882 C1887 1.332 . S
C1883 C1884 1.388 . S
C1883 C1887 1.382 . S
C1883 H1906 0.950 . S
C1884 C1883 1.388 . S
C1884 C1885 1.386 . S
C1885 C1884 1.386 . S
C1885 C1886 1.382 . S
C1885 H1907 0.950 . S
C1886 N1882 1.332 . S
C1886 C1885 1.382 . S
C1886 H1888 0.952 . S
C1887 N1882 1.332 . S
C1887 C1883 1.382 . S
C1887 H1889 0.948 . S
H1888 C1886 0.952 . S
H1889 C1887 0.948 . S
H1890 C1879 0.952 . S
H1891 C1881 0.948 . S
C1892 C1858 1.395 . S
C1892 C1862 1.391 . S
C1893 C1855 1.389 . S
C1893 C1875 1.392 . S
C1894 C1865 1.392 . S
C1894 C1867 1.389 . S
C1895 C1870 1.395 . S
C1895 C1872 1.391 . S
H1896 C1856 0.951 . S
H1897 C1857 0.950 . S
H1898 C1863 0.949 1_565 S
H1899 C1864 0.950 . S
H1900 C1868 0.951 . S
H1901 C1869 0.950 . S
H1902 C1873 0.949 . S
H1903 C1874 0.950 . S
H1904 C1878 0.950 . S
H1905 C1880 0.950 . S
H1906 C1883 0.950 . S
H1907 C1885 0.950 . S
C1908 C1909 1.369 . S
C1908 C1910 1.419 1_656 S
C1908 H1912 0.930 . S
C1909 C1908 1.369 . S
C1909 C1918 1.429 . S
C1910 C1908 1.419 1_454 S
C1910 C1911 1.363 . S
C1910 H1913 0.929 . S
C1911 C1910 1.363 . S
C1911 C1917 1.428 . S
H1912 C1908 0.930 . S
H1913 C1910 0.929 . S
S1914 N1915 1.560 1_454 S
S1914 N1916 1.634 . S
N1915 S1914 1.560 1_656 S
N1915 C1918 1.350 . S
N1916 S1914 1.634 . S
N1916 C1917 1.351 . S
C1917 C1911 1.428 . S
C1917 N1916 1.351 . S
C1917 C1918 1.434 1_454 S
C1918 C1909 1.429 . S
C1918 N1915 1.350 . S
C1918 C1917 1.434 1_656 S
C1919 C1920 1.369 . S
C1919 C1921 1.419 . S
C1919 H1923 0.930 . S
C1920 C1919 1.369 . S
C1920 C1929 1.429 1_556 S
C1921 C1919 1.419 . S
C1921 C1922 1.363 1_556 S
C1921 H1924 0.929 . S
C1922 C1921 1.363 1_554 S
C1922 C1928 1.428 . S
H1923 C1919 0.930 . S
H1924 C1921 0.929 . S
S1925 N1926 1.613 . S
S1925 N1927 1.610 . S
N1926 S1925 1.613 . S
N1926 C1929 1.350 . S
N1927 S1925 1.610 . S
N1927 C1928 1.351 . S
C1928 C1922 1.428 . S
C1928 N1927 1.351 . S
C1928 C1929 1.434 . S
C1929 C1920 1.429 1_554 S
C1929 N1926 1.350 . S
C1929 C1928 1.434 . S
C1930 C1931 1.369 . S
C1930 C1932 1.419 1_545 S
C1930 H1934 0.930 . S
C1931 C1930 1.369 . S
C1931 C1940 1.429 1_556 S
C1932 C1930 1.419 1_565 S
C1932 C1933 1.363 1_556 S
C1932 H1935 0.929 . S
C1933 C1932 1.363 1_554 S
C1933 C1939 1.428 . S
H1934 C1930 0.930 . S
H1935 C1932 0.929 . S
S1936 N1937 1.613 . S
S1936 N1938 1.610 1_545 S
N1937 S1936 1.613 . S
N1937 C1940 1.350 . S
N1938 S1936 1.610 1_565 S
N1938 C1939 1.351 . S
C1939 C1933 1.428 . S
C1939 N1938 1.351 . S
C1939 C1940 1.434 1_565 S
C1940 C1931 1.429 1_554 S
C1940 N1937 1.350 . S
C1940 C1939 1.434 1_545 S
C1941 C1942 1.369 1_655 S
C1941 C1943 1.419 . S
C1941 H1945 0.930 . S
C1942 C1941 1.369 1_455 S
C1942 C1951 1.404 1_454 S
C1943 C1941 1.419 . S
C1943 C1944 1.363 1_554 S
C1943 H1946 0.929 . S
C1944 C1943 1.363 1_556 S
C1944 C1950 1.428 . S
H1945 C1941 0.930 . S
H1946 C1943 0.929 . S
S1947 N1948 1.613 1_655 S
S1947 N1949 1.610 . S
N1948 S1947 1.613 1_455 S
N1948 C1951 1.340 1_455 S
N1949 S1947 1.610 . S
N1949 C1950 1.351 . S
C1950 C1944 1.428 . S
C1950 N1949 1.351 . S
C1950 C1951 1.475 . S
C1951 C1942 1.404 1_656 S
C1951 N1948 1.340 1_655 S
C1951 C1950 1.475 . S
C1952 C1953 1.369 . S
C1952 C1954 1.419 . S
C1952 H1956 0.930 . S
C1953 C1952 1.369 . S
C1953 C1962 1.429 1_556 S
C1954 C1952 1.419 . S
C1954 C1955 1.363 1_556 S
C1954 H1957 0.929 . S
C1955 C1954 1.363 1_554 S
C1955 C1961 1.428 . S
H1956 C1952 0.930 . S
H1957 C1954 0.929 . S
S1958 N1959 1.613 . S
S1958 N1960 1.610 . S
N1959 S1958 1.613 . S
N1959 C1962 1.350 . S
N1960 S1958 1.610 . S
N1960 C1961 1.351 . S
C1961 C1955 1.428 . S
C1961 N1960 1.351 . S
C1961 C1962 1.434 . S
C1962 C1953 1.429 1_554 S
C1962 N1959 1.350 . S
C1962 C1961 1.434 . S
C1963 C1964 1.369 1_556 S
C1963 C1965 1.419 1_565 S
C1963 H1967 0.930 . S
C1964 C1963 1.369 1_554 S
C1964 C1973 1.429 . S
C1965 C1963 1.419 1_545 S
C1965 C1966 1.363 . S
C1965 H1968 0.929 . S
C1966 C1965 1.363 . S
C1966 C1972 1.428 1_556 S
H1967 C1963 0.930 . S
H1968 C1965 0.929 . S
S1969 N1970 1.613 1_545 S
S1969 N1971 1.610 . S
N1970 S1969 1.613 1_565 S
N1970 C1973 1.350 . S
N1971 S1969 1.610 . S
N1971 C1972 1.351 . S
C1972 C1966 1.428 1_554 S
C1972 N1971 1.351 . S
C1972 C1973 1.434 1_545 S
C1973 C1964 1.429 . S
C1973 N1970 1.350 . S
C1973 C1972 1.434 1_565 S
C1974 C1975 1.369 . S
C1974 C1976 1.419 . S
C1974 H1978 0.930 . S
C1975 C1974 1.369 . S
C1975 C1984 1.429 . S
C1976 C1974 1.419 . S
C1976 C1977 1.363 . S
C1976 H1979 0.929 . S
C1977 C1976 1.363 . S
C1977 C1983 1.428 . S
H1978 C1974 0.930 . S
H1979 C1976 0.929 . S
S1980 N1981 1.613 . S
S1980 N1982 1.610 . S
N1981 S1980 1.613 . S
N1981 C1984 1.350 . S
N1982 S1980 1.610 . S
N1982 C1983 1.351 . S
C1983 C1977 1.428 . S
C1983 N1982 1.351 . S
C1983 C1984 1.434 . S
C1984 C1975 1.429 . S
C1984 N1981 1.350 . S
C1984 C1983 1.434 . S
C1985 C1986 1.369 . S
C1985 C1987 1.419 . S
C1985 H1989 0.930 . S
C1986 C1985 1.369 . S
C1986 C1995 1.429 . S
C1987 C1985 1.419 . S
C1987 C1988 1.363 . S
C1987 H1990 0.929 . S
C1988 C1987 1.363 . S
C1988 C1994 1.428 . S
H1989 C1985 0.930 . S
H1990 C1987 0.929 . S
S1991 N1992 1.613 . S
S1991 N1993 1.610 . S
N1992 S1991 1.613 . S
N1992 C1995 1.350 . S
N1993 S1991 1.610 . S
N1993 C1994 1.351 . S
C1994 C1988 1.428 . S
C1994 N1993 1.351 . S
C1994 C1995 1.434 . S
C1995 C1986 1.429 . S
C1995 N1992 1.350 . S
C1995 C1994 1.434 . S
C1996 C1997 1.369 . S
C1996 C1998 1.419 . S
C1996 H2000 0.910 1_455 S
C1997 C1996 1.369 . S
C1997 C2006 1.429 . S
C1998 C1996 1.419 . S
C1998 C1999 1.363 . S
C1998 H2001 0.929 . S
C1999 C1998 1.363 . S
C1999 C2005 1.428 . S
H2000 C1996 0.910 1_655 S
H2001 C1998 0.929 . S
S2002 N2003 1.613 . S
S2002 N2004 1.610 . S
N2003 S2002 1.613 . S
N2003 C2006 1.350 . S
N2004 S2002 1.610 . S
N2004 C2005 1.351 . S
C2005 C1999 1.428 . S
C2005 N2004 1.351 . S
C2005 C2006 1.434 . S
C2006 C1997 1.429 . S
C2006 N2003 1.350 . S
C2006 C2005 1.434 . S
C2007 C2008 1.369 . S
C2007 C2009 1.419 . S
C2007 H2011 0.930 . S
C2008 C2007 1.369 . S
C2008 C2017 1.429 . S
C2009 C2007 1.419 . S
C2009 C2010 1.363 . S
C2009 H2012 0.929 . S
C2010 C2009 1.363 . S
C2010 C2016 1.428 . S
H2011 C2007 0.930 . S
H2012 C2009 0.929 . S
S2013 N2014 1.613 . S
S2013 N2015 1.610 . S
N2014 S2013 1.613 . S
N2014 C2017 1.350 . S
N2015 S2013 1.610 . S
N2015 C2016 1.351 . S
C2016 C2010 1.428 . S
C2016 N2015 1.351 . S
C2016 C2017 1.434 . S
C2017 C2008 1.429 . S
C2017 N2014 1.350 . S
C2017 C2016 1.434 . S
C2018 C2019 1.360 . S
C2018 C2020 1.479 . S
C2018 H2022 0.879 1_455 S
C2019 C2018 1.360 . S
C2019 C2028 1.429 . S
C2020 C2018 1.479 . S
C2020 C2021 1.363 . S
C2020 H2023 0.929 . S
C2021 C2020 1.363 . S
C2021 C2027 1.428 . S
H2022 C2018 0.879 1_655 S
H2023 C2020 0.929 . S
S2024 N2025 1.613 . S
S2024 N2026 1.610 . S
N2025 S2024 1.613 . S
N2025 C2028 1.350 . S
N2026 S2024 1.610 . S
N2026 C2027 1.351 . S
C2027 C2021 1.428 . S
C2027 N2026 1.351 . S
C2027 C2028 1.434 . S
C2028 C2019 1.429 . S
C2028 N2025 1.350 . S
C2028 C2027 1.434 . S
C2029 C2030 1.369 . S
C2029 C2031 1.419 . S
C2029 H2033 0.930 . S
C2030 C2029 1.369 . S
C2030 C2039 1.429 . S
C2031 C2029 1.419 . S
C2031 C2032 1.363 . S
C2031 H2034 0.929 . S
C2032 C2031 1.363 . S
C2032 C2038 1.428 . S
H2033 C2029 0.930 . S
H2034 C2031 0.929 . S
S2035 N2036 1.613 . S
S2035 N2037 1.610 . S
N2036 S2035 1.613 . S
N2036 C2039 1.350 . S
N2037 S2035 1.610 . S
N2037 C2038 1.351 . S
C2038 C2032 1.428 . S
C2038 N2037 1.351 . S
C2038 C2039 1.434 . S
C2039 C2030 1.429 . S
C2039 N2036 1.350 . S
C2039 C2038 1.434 . S
C2040 C2041 1.369 . S
C2040 C2042 1.419 . S
C2040 H2044 0.930 . S
C2041 C2040 1.369 . S
C2041 C2050 1.429 . S
C2042 C2040 1.419 . S
C2042 C2043 1.363 . S
C2042 H2045 0.929 . S
C2043 C2042 1.363 . S
C2043 C2049 1.428 . S
H2044 C2040 0.930 . S
H2045 C2042 0.929 . S
S2046 N2047 1.613 . S
S2046 N2048 1.610 . S
N2047 S2046 1.613 . S
N2047 C2050 1.350 . S
N2048 S2046 1.610 . S
N2048 C2049 1.351 . S
C2049 C2043 1.428 . S
C2049 N2048 1.351 . S
C2049 C2050 1.434 . S
C2050 C2041 1.429 . S
C2050 N2047 1.350 . S
C2050 C2049 1.434 . S
C2051 C2052 1.369 . S
C2051 C2053 1.419 . S
C2051 H2055 0.930 . S
C2052 C2051 1.369 . S
C2052 C2061 1.429 . S
C2053 C2051 1.419 . S
C2053 C2054 1.363 . S
C2053 H2056 0.929 . S
C2054 C2053 1.363 . S
C2054 C2060 1.428 . S
H2055 C2051 0.930 . S
H2056 C2053 0.929 . S
S2057 N2058 1.613 . S
S2057 N2059 1.610 . S
N2058 S2057 1.613 . S
N2058 C2061 1.350 . S
N2059 S2057 1.610 . S
N2059 C2060 1.351 . S
C2060 C2054 1.428 . S
C2060 N2059 1.351 . S
C2060 C2061 1.434 . S
C2061 C2052 1.429 . S
C2061 N2058 1.350 . S
C2061 C2060 1.434 . S
C2062 C2063 1.369 . S
C2062 C2064 1.419 . S
C2062 H2066 0.930 . S
C2063 C2062 1.369 . S
C2063 C2072 1.429 . S
C2064 C2062 1.419 . S
C2064 C2065 1.363 . S
C2064 H2067 0.929 . S
C2065 C2064 1.363 . S
C2065 C2071 1.428 . S
H2066 C2062 0.930 . S
H2067 C2064 0.929 . S
S2068 N2069 1.613 . S
S2068 N2070 1.610 . S
N2069 S2068 1.613 . S
N2069 C2072 1.350 . S
N2070 S2068 1.610 . S
N2070 C2071 1.351 . S
C2071 C2065 1.428 . S
C2071 N2070 1.351 . S
C2071 C2072 1.434 . S
C2072 C2063 1.429 . S
C2072 N2069 1.350 . S
C2072 C2071 1.434 . S
C2073 C2074 1.369 . S
C2073 C2075 1.419 . S
C2073 H2077 0.930 . S
C2074 C2073 1.369 . S
C2074 C2083 1.429 . S
C2075 C2073 1.419 . S
C2075 C2076 1.363 . S
C2075 H2078 0.929 . S
C2076 C2075 1.363 . S
C2076 C2082 1.428 . S
H2077 C2073 0.930 . S
H2078 C2075 0.929 . S
S2079 N2080 1.613 . S
S2079 N2081 1.610 . S
N2080 S2079 1.613 . S
N2080 C2083 1.350 . S
N2081 S2079 1.610 . S
N2081 C2082 1.351 . S
C2082 C2076 1.428 . S
C2082 N2081 1.351 . S
C2082 C2083 1.434 . S
C2083 C2074 1.429 . S
C2083 N2080 1.350 . S
C2083 C2082 1.434 . S
C2084 C2085 1.369 . S
C2084 C2086 1.419 . S
C2084 H2088 0.930 1_545 S
C2085 C2084 1.369 . S
C2085 C2094 1.429 . S
C2086 C2084 1.419 . S
C2086 C2087 1.363 . S
C2086 H2089 0.929 . S
C2087 C2086 1.363 . S
C2087 C2093 1.428 . S
H2088 C2084 0.930 1_565 S
H2089 C2086 0.929 . S
S2090 N2091 1.613 . S
S2090 N2092 1.610 . S
N2091 S2090 1.613 . S
N2091 C2094 1.350 . S
N2092 S2090 1.610 . S
N2092 C2093 1.351 . S
C2093 C2087 1.428 . S
C2093 N2092 1.351 . S
C2093 C2094 1.434 . S
C2094 C2085 1.429 . S
C2094 N2091 1.350 . S
C2094 C2093 1.434 . S
C2095 C2096 1.369 . S
C2095 C2097 1.419 . S
C2095 H2099 0.930 . S
C2096 C2095 1.369 . S
C2096 C2105 1.429 . S
C2097 C2095 1.419 . S
C2097 C2098 1.363 . S
C2097 H2100 0.929 . S
C2098 C2097 1.363 . S
C2098 C2104 1.428 . S
H2099 C2095 0.930 . S
H2100 C2097 0.929 . S
S2101 N2102 1.613 . S
S2101 N2103 1.610 . S
N2102 S2101 1.613 . S
N2102 C2105 1.350 . S
N2103 S2101 1.610 . S
N2103 C2104 1.351 . S
C2104 C2098 1.428 . S
C2104 N2103 1.351 . S
C2104 C2105 1.434 . S
C2105 C2096 1.429 . S
C2105 N2102 1.350 . S
C2105 C2104 1.434 . S
C2106 C2107 1.369 . S
C2106 C2108 1.419 . S
C2106 H2110 0.930 . S
C2107 C2106 1.369 . S
C2107 C2116 1.431 . S
C2108 C2106 1.419 . S
C2108 C2109 1.363 . S
C2108 H2111 0.929 . S
C2109 C2108 1.363 . S
C2109 C2115 1.428 . S
H2110 C2106 0.930 . S
H2111 C2108 0.929 . S
S2112 N2113 1.613 . S
S2112 N2114 1.610 . S
N2113 S2112 1.613 . S
N2113 C2116 1.347 1_554 S
N2114 S2112 1.610 . S
N2114 C2115 1.351 1_554 S
C2115 C2109 1.428 . S
C2115 N2114 1.351 1_556 S
C2115 C2116 1.434 . S
C2116 C2107 1.431 . S
C2116 N2113 1.347 1_556 S
C2116 C2115 1.434 . S
C2117 C2118 1.369 1_554 S
C2117 C2119 1.419 . S
C2117 H2121 0.930 . S
C2118 C2117 1.369 1_556 S
C2118 C2127 1.429 . S
C2119 C2117 1.419 . S
C2119 C2120 1.363 1_554 S
C2119 H2122 0.929 . S
C2120 C2119 1.363 1_556 S
C2120 C2126 1.428 . S
H2121 C2117 0.930 . S
H2122 C2119 0.929 . S
S2123 N2124 1.613 . S
S2123 N2125 1.610 . S
N2124 S2123 1.613 . S
N2124 C2127 1.350 . S
N2125 S2123 1.610 . S
N2125 C2126 1.351 . S
C2126 C2120 1.428 . S
C2126 N2125 1.351 . S
C2126 C2127 1.434 . S
C2127 C2118 1.429 . S
C2127 N2124 1.350 . S
C2127 C2126 1.434 . S
C2128 C2129 1.357 1_554 S
C2128 C2130 1.421 . S
C2128 H2132 0.941 . S
C2129 C2128 1.357 1_556 S
C2129 C2138 1.429 . S
C2130 C2128 1.421 . S
C2130 C2131 1.363 1_554 S
C2130 H2133 0.929 . S
C2131 C2130 1.363 1_556 S
C2131 C2137 1.428 . S
H2132 C2128 0.941 . S
H2133 C2130 0.929 . S
S2134 N2135 1.613 . S
S2134 N2136 1.610 . S
N2135 S2134 1.613 . S
N2135 C2138 1.350 . S
N2136 S2134 1.610 . S
N2136 C2137 1.351 . S
C2137 C2131 1.428 . S
C2137 N2136 1.351 . S
C2137 C2138 1.434 . S
C2138 C2129 1.429 . S
C2138 N2135 1.350 . S
C2138 C2137 1.434 . S
C2139 C2140 1.369 . S
C2139 C2141 1.419 . S
C2139 H2143 0.930 . S
C2140 C2139 1.369 . S
C2140 C2149 1.429 1_554 S
C2141 C2139 1.419 . S
C2141 C2142 1.363 . S
C2141 H2144 0.929 . S
C2142 C2141 1.363 . S
C2142 C2148 1.428 1_554 S
H2143 C2139 0.930 . S
H2144 C2141 0.929 . S
S2145 N2146 1.613 . S
S2145 N2147 1.610 . S
N2146 S2145 1.613 . S
N2146 C2149 1.350 . S
N2147 S2145 1.610 . S
N2147 C2148 1.351 . S
C2148 C2142 1.428 1_556 S
C2148 N2147 1.351 . S
C2148 C2149 1.434 . S
C2149 C2140 1.429 1_556 S
C2149 N2146 1.350 . S
C2149 C2148 1.434 . S
C2150 C2151 1.369 . S
C2150 C2152 1.419 . S
C2150 H2154 0.930 . S
C2151 C2150 1.369 . S
C2151 C2160 1.429 1_554 S
C2152 C2150 1.419 . S
C2152 C2153 1.363 . S
C2152 H2155 0.929 . S
C2153 C2152 1.363 . S
C2153 C2159 1.428 1_554 S
H2154 C2150 0.930 . S
H2155 C2152 0.929 . S
S2156 N2157 1.613 . S
S2156 N2158 1.610 . S
N2157 S2156 1.613 . S
N2157 C2160 1.350 . S
N2158 S2156 1.610 . S
N2158 C2159 1.351 . S
C2159 C2153 1.428 1_556 S
C2159 N2158 1.351 . S
C2159 C2160 1.434 . S
C2160 C2151 1.429 1_556 S
C2160 N2157 1.350 . S
C2160 C2159 1.434 . S
C2161 C2162 1.369 1_556 S
C2161 C2163 1.419 . S
C2161 H2165 0.930 . S
C2162 C2161 1.369 1_554 S
C2162 C2171 1.429 . S
C2163 C2161 1.419 . S
C2163 C2164 1.363 1_556 S
C2163 H2166 0.929 . S
C2164 C2163 1.363 1_554 S
C2164 C2170 1.428 . S
H2165 C2161 0.930 . S
H2166 C2163 0.929 . S
S2167 N2168 1.613 . S
S2167 N2169 1.610 . S
N2168 S2167 1.613 . S
N2168 C2171 1.350 . S
N2169 S2167 1.610 . S
N2169 C2170 1.351 . S
C2170 C2164 1.428 . S
C2170 N2169 1.351 . S
C2170 C2171 1.434 . S
C2171 C2162 1.429 . S
C2171 N2168 1.350 . S
C2171 C2170 1.434 . S
C2172 C2173 1.369 . S
C2172 C2174 1.419 . S
C2172 H2176 0.930 . S
C2173 C2172 1.369 . S
C2173 C2182 1.429 . S
C2174 C2172 1.419 . S
C2174 C2175 1.363 . S
C2174 H2177 0.929 . S
C2175 C2174 1.363 . S
C2175 C2181 1.428 . S
H2176 C2172 0.930 . S
H2177 C2174 0.929 . S
S2178 N2179 1.613 . S
S2178 N2180 1.610 . S
N2179 S2178 1.613 . S
N2179 C2182 1.350 . S
N2180 S2178 1.610 . S
N2180 C2181 1.351 . S
C2181 C2175 1.428 . S
C2181 N2180 1.351 . S
C2181 C2182 1.434 . S
C2182 C2173 1.429 . S
C2182 N2179 1.350 . S
C2182 C2181 1.434 . S
C2183 C2184 1.369 . S
C2183 C2185 1.419 . S
C2183 H2187 0.930 . S
C2184 C2183 1.369 . S
C2184 C2193 1.429 . S
C2185 C2183 1.419 . S
C2185 C2186 1.363 . S
C2185 H2188 0.929 . S
C2186 C2185 1.363 . S
C2186 C2192 1.428 . S
H2187 C2183 0.930 . S
H2188 C2185 0.929 . S
S2189 N2190 1.613 . S
S2189 N2191 1.610 . S
N2190 S2189 1.613 . S
N2190 C2193 1.350 . S
N2191 S2189 1.610 . S
N2191 C2192 1.351 . S
C2192 C2186 1.428 . S
C2192 N2191 1.351 . S
C2192 C2193 1.434 . S
C2193 C2184 1.429 . S
C2193 N2190 1.350 . S
C2193 C2192 1.434 . S
C2194 C2195 1.369 . S
C2194 C2196 1.419 . S
C2194 H2198 0.930 . S
C2195 C2194 1.369 . S
C2195 C2204 1.429 . S
C2196 C2194 1.419 . S
C2196 C2197 1.363 . S
C2196 H2199 0.929 . S
C2197 C2196 1.363 . S
C2197 C2203 1.428 . S
H2198 C2194 0.930 . S
H2199 C2196 0.929 . S
S2200 N2201 1.613 . S
S2200 N2202 1.610 . S
N2201 S2200 1.613 . S
N2201 C2204 1.350 . S
N2202 S2200 1.610 . S
N2202 C2203 1.351 . S
C2203 C2197 1.428 . S
C2203 N2202 1.351 . S
C2203 C2204 1.434 . S
C2204 C2195 1.429 . S
C2204 N2201 1.350 . S
C2204 C2203 1.434 . S
C2205 C2206 1.369 . S
C2205 C2207 1.419 . S
C2205 H2209 0.930 . S
C2206 C2205 1.369 . S
C2206 C2215 1.429 . S
C2207 C2205 1.419 . S
C2207 C2208 1.363 . S
C2207 H2210 0.929 . S
C2208 C2207 1.363 . S
C2208 C2214 1.428 . S
H2209 C2205 0.930 . S
H2210 C2207 0.929 . S
S2211 N2212 1.613 . S
S2211 N2213 1.610 . S
N2212 S2211 1.613 . S
N2212 C2215 1.350 . S
N2213 S2211 1.610 . S
N2213 C2214 1.351 . S
C2214 C2208 1.428 . S
C2214 N2213 1.351 . S
C2214 C2215 1.434 . S
C2215 C2206 1.429 . S
C2215 N2212 1.350 . S
C2215 C2214 1.434 . S
C2216 C2217 1.369 . S
C2216 C2218 1.419 . S
C2216 H2220 0.930 . S
C2217 C2216 1.369 . S
C2217 C2226 1.429 . S
C2218 C2216 1.419 . S
C2218 C2219 1.363 . S
C2218 H2221 0.929 . S
C2219 C2218 1.363 . S
C2219 C2225 1.428 . S
H2220 C2216 0.930 . S
H2221 C2218 0.929 . S
S2222 N2223 1.613 . S
S2222 N2224 1.610 . S
N2223 S2222 1.613 . S
N2223 C2226 1.350 . S
N2224 S2222 1.610 . S
N2224 C2225 1.351 . S
C2225 C2219 1.428 . S
C2225 N2224 1.351 . S
C2225 C2226 1.434 . S
C2226 C2217 1.429 . S
C2226 N2223 1.350 . S
C2226 C2225 1.434 . S
C2227 C2228 1.369 . S
C2227 C2229 1.419 . S
C2227 H2231 0.930 . S
C2228 C2227 1.369 . S
C2228 C2237 1.429 . S
C2229 C2227 1.419 . S
C2229 C2230 1.363 . S
C2229 H2232 0.929 . S
C2230 C2229 1.363 . S
C2230 C2236 1.428 . S
H2231 C2227 0.930 . S
H2232 C2229 0.929 . S
S2233 N2234 1.613 . S
S2233 N2235 1.610 . S
N2234 S2233 1.613 . S
N2234 C2237 1.350 . S
N2235 S2233 1.610 . S
N2235 C2236 1.351 . S
C2236 C2230 1.428 . S
C2236 N2235 1.351 . S
C2236 C2237 1.434 . S
C2237 C2228 1.429 . S
C2237 N2234 1.350 . S
C2237 C2236 1.434 . S
C2238 C2239 1.369 . S
C2238 C2240 1.419 . S
C2238 H2242 0.930 . S
C2239 C2238 1.369 . S
C2239 C2248 1.429 . S
C2240 C2238 1.419 . S
C2240 C2241 1.363 . S
C2240 H2243 0.929 . S
C2241 C2240 1.363 . S
C2241 C2247 1.428 . S
H2242 C2238 0.930 . S
H2243 C2240 0.929 . S
S2244 N2245 1.613 . S
S2244 N2246 1.610 . S
N2245 S2244 1.613 . S
N2245 C2248 1.350 . S
N2246 S2244 1.610 . S
N2246 C2247 1.351 . S
C2247 C2241 1.428 . S
C2247 N2246 1.351 . S
C2247 C2248 1.434 . S
C2248 C2239 1.429 . S
C2248 N2245 1.350 . S
C2248 C2247 1.434 . S
C2249 C2250 1.369 . S
C2249 C2251 1.419 . S
C2249 H2253 0.930 . S
C2250 C2249 1.369 . S
C2250 C2259 1.429 . S
C2251 C2249 1.419 . S
C2251 C2252 1.363 . S
C2251 H2254 0.929 . S
C2252 C2251 1.363 . S
C2252 C2258 1.428 . S
H2253 C2249 0.930 . S
H2254 C2251 0.929 . S
S2255 N2256 1.613 . S
S2255 N2257 1.610 . S
N2256 S2255 1.613 . S
N2256 C2259 1.350 . S
N2257 S2255 1.610 . S
N2257 C2258 1.351 . S
C2258 C2252 1.428 . S
C2258 N2257 1.351 . S
C2258 C2259 1.434 . S
C2259 C2250 1.429 . S
C2259 N2256 1.350 . S
C2259 C2258 1.434 . S
C2260 C2261 1.369 . S
C2260 C2262 1.419 . S
C2260 H2264 0.930 . S
C2261 C2260 1.369 . S
C2261 C2270 1.429 . S
C2262 C2260 1.419 . S
C2262 C2263 1.363 . S
C2262 H2265 0.929 . S
C2263 C2262 1.363 . S
C2263 C2269 1.428 . S
H2264 C2260 0.930 . S
H2265 C2262 0.929 . S
S2266 N2267 1.613 . S
S2266 N2268 1.610 . S
N2267 S2266 1.613 . S
N2267 C2270 1.350 . S
N2268 S2266 1.610 . S
N2268 C2269 1.351 . S
C2269 C2263 1.428 . S
C2269 N2268 1.351 . S
C2269 C2270 1.434 . S
C2270 C2261 1.429 . S
C2270 N2267 1.350 . S
C2270 C2269 1.434 . S
C2271 C2272 1.369 . S
C2271 C2273 1.419 . S
C2271 H2275 0.930 . S
C2272 C2271 1.369 . S
C2272 C2281 1.429 . S
C2273 C2271 1.419 . S
C2273 C2274 1.363 . S
C2273 H2276 0.929 . S
C2274 C2273 1.363 . S
C2274 C2280 1.428 . S
H2275 C2271 0.930 . S
H2276 C2273 0.929 . S
S2277 N2278 1.613 . S
S2277 N2279 1.610 . S
N2278 S2277 1.613 . S
N2278 C2281 1.350 . S
N2279 S2277 1.610 . S
N2279 C2280 1.351 . S
C2280 C2274 1.428 . S
C2280 N2279 1.351 . S
C2280 C2281 1.434 . S
C2281 C2272 1.429 . S
C2281 N2278 1.350 . S
C2281 C2280 1.434 . S
C2282 C2283 1.369 . S
C2282 C2284 1.419 . S
C2282 H2286 0.930 . S
C2283 C2282 1.369 . S
C2283 C2292 1.429 . S
C2284 C2282 1.419 . S
C2284 C2285 1.363 . S
C2284 H2287 0.929 . S
C2285 C2284 1.363 . S
C2285 C2291 1.428 . S
H2286 C2282 0.930 . S
H2287 C2284 0.929 . S
S2288 N2289 1.613 . S
S2288 N2290 1.610 . S
N2289 S2288 1.613 . S
N2289 C2292 1.350 . S
N2290 S2288 1.610 . S
N2290 C2291 1.351 . S
C2291 C2285 1.428 . S
C2291 N2290 1.351 . S
C2291 C2292 1.434 . S
C2292 C2283 1.429 . S
C2292 N2289 1.350 . S
C2292 C2291 1.434 . S
C2293 C2294 1.369 . S
C2293 C2295 1.419 . S
C2293 H2297 0.930 . S
C2294 C2293 1.369 . S
C2294 C2303 1.429 . S
C2295 C2293 1.419 . S
C2295 C2296 1.363 . S
C2295 H2298 0.929 . S
C2296 C2295 1.363 . S
C2296 C2302 1.428 . S
H2297 C2293 0.930 . S
H2298 C2295 0.929 . S
S2299 N2300 1.613 . S
S2299 N2301 1.610 . S
N2300 S2299 1.613 . S
N2300 C2303 1.350 . S
N2301 S2299 1.610 . S
N2301 C2302 1.351 . S
C2302 C2296 1.428 . S
C2302 N2301 1.351 . S
C2302 C2303 1.434 . S
C2303 C2294 1.429 . S
C2303 N2300 1.350 . S
C2303 C2302 1.434 . S
C2304 C2305 1.369 . S
C2304 C2306 1.419 . S
C2304 H2308 0.930 . S
C2305 C2304 1.369 . S
C2305 C2314 1.429 . S
C2306 C2304 1.419 . S
C2306 C2307 1.363 . S
C2306 H2309 0.929 . S
C2307 C2306 1.363 . S
C2307 C2313 1.428 . S
H2308 C2304 0.930 . S
H2309 C2306 0.929 . S
S2310 N2311 1.613 . S
S2310 N2312 1.610 . S
N2311 S2310 1.613 . S
N2311 C2314 1.350 . S
N2312 S2310 1.610 . S
N2312 C2313 1.351 . S
C2313 C2307 1.428 . S
C2313 N2312 1.351 . S
C2313 C2314 1.434 . S
C2314 C2305 1.429 . S
C2314 N2311 1.350 . S
C2314 C2313 1.434 . S
C2315 C2316 1.369 . S
C2315 C2317 1.419 . S
C2315 H2319 0.930 . S
C2316 C2315 1.369 . S
C2316 C2325 1.429 . S
C2317 C2315 1.419 . S
C2317 C2318 1.363 . S
C2317 H2320 0.929 . S
C2318 C2317 1.363 . S
C2318 C2324 1.428 . S
H2319 C2315 0.930 . S
H2320 C2317 0.929 . S
S2321 N2322 1.613 . S
S2321 N2323 1.610 . S
N2322 S2321 1.613 . S
N2322 C2325 1.350 . S
N2323 S2321 1.610 . S
N2323 C2324 1.351 . S
C2324 C2318 1.428 . S
C2324 N2323 1.351 . S
C2324 C2325 1.434 . S
C2325 C2316 1.429 . S
C2325 N2322 1.350 . S
C2325 C2324 1.434 . S
C2326 C2327 1.369 . S
C2326 C2328 1.419 . S
C2326 H2330 0.930 . S
C2327 C2326 1.369 . S
C2327 C2336 1.429 . S
C2328 C2326 1.419 . S
C2328 C2329 1.363 . S
C2328 H2331 0.929 . S
C2329 C2328 1.363 . S
C2329 C2335 1.428 . S
H2330 C2326 0.930 . S
H2331 C2328 0.929 . S
S2332 N2333 1.613 . S
S2332 N2334 1.610 . S
N2333 S2332 1.613 . S
N2333 C2336 1.350 . S
N2334 S2332 1.610 . S
N2334 C2335 1.351 . S
C2335 C2329 1.428 . S
C2335 N2334 1.351 . S
C2335 C2336 1.434 . S
C2336 C2327 1.429 . S
C2336 N2333 1.350 . S
C2336 C2335 1.434 . S
C2337 C2338 1.369 . S
C2337 C2339 1.419 . S
C2337 H2341 0.930 . S
C2338 C2337 1.369 . S
C2338 C2347 1.429 . S
C2339 C2337 1.419 . S
C2339 C2340 1.363 . S
C2339 H2342 0.929 . S
C2340 C2339 1.363 . S
C2340 C2346 1.428 . S
H2341 C2337 0.930 . S
H2342 C2339 0.929 . S
S2343 N2344 1.613 . S
S2343 N2345 1.610 . S
N2344 S2343 1.613 . S
N2344 C2347 1.350 . S
N2345 S2343 1.610 . S
N2345 C2346 1.351 . S
C2346 C2340 1.428 . S
C2346 N2345 1.351 . S
C2346 C2347 1.434 . S
C2347 C2338 1.429 . S
C2347 N2344 1.350 . S
C2347 C2346 1.434 . S
C2348 C2349 1.369 . S
C2348 C2350 1.419 . S
C2348 H2352 0.930 . S
C2349 C2348 1.369 . S
C2349 C2358 1.429 . S
C2350 C2348 1.419 . S
C2350 C2351 1.363 . S
C2350 H2353 0.929 . S
C2351 C2350 1.363 . S
C2351 C2357 1.428 . S
H2352 C2348 0.930 . S
H2353 C2350 0.929 . S
S2354 N2355 1.613 . S
S2354 N2356 1.610 . S
N2355 S2354 1.613 . S
N2355 C2358 1.350 . S
N2356 S2354 1.610 . S
N2356 C2357 1.351 . S
C2357 C2351 1.428 . S
C2357 N2356 1.351 . S
C2357 C2358 1.434 . S
C2358 C2349 1.429 . S
C2358 N2355 1.350 . S
C2358 C2357 1.434 . S
C2359 C2360 1.369 . S
C2359 C2361 1.419 . S
C2359 H2363 0.930 . S
C2360 C2359 1.369 . S
C2360 C2369 1.429 . S
C2361 C2359 1.419 . S
C2361 C2362 1.363 . S
C2361 H2364 0.929 . S
C2362 C2361 1.363 . S
C2362 C2368 1.428 . S
H2363 C2359 0.930 . S
H2364 C2361 0.929 . S
S2365 N2366 1.613 . S
S2365 N2367 1.610 . S
N2366 S2365 1.613 . S
N2366 C2369 1.350 . S
N2367 S2365 1.610 . S
N2367 C2368 1.351 . S
C2368 C2362 1.428 . S
C2368 N2367 1.351 . S
C2368 C2369 1.434 . S
C2369 C2360 1.429 . S
C2369 N2366 1.350 . S
C2369 C2368 1.434 . S
C2370 C2371 1.369 . S
C2370 C2372 1.419 . S
C2370 H2374 0.930 . S
C2371 C2370 1.369 . S
C2371 C2380 1.429 . S
C2372 C2370 1.419 . S
C2372 C2373 1.363 . S
C2372 H2375 0.929 . S
C2373 C2372 1.363 . S
C2373 C2379 1.428 . S
H2374 C2370 0.930 . S
H2375 C2372 0.929 . S
S2376 N2377 1.613 . S
S2376 N2378 1.610 . S
N2377 S2376 1.613 . S
N2377 C2380 1.350 . S
N2378 S2376 1.610 . S
N2378 C2379 1.351 . S
C2379 C2373 1.428 . S
C2379 N2378 1.351 . S
C2379 C2380 1.434 . S
C2380 C2371 1.429 . S
C2380 N2377 1.350 . S
C2380 C2379 1.434 . S
C2381 C2382 1.369 . S
C2381 C2383 1.419 . S
C2381 H2385 0.930 . S
C2382 C2381 1.369 . S
C2382 C2391 1.429 . S
C2383 C2381 1.419 . S
C2383 C2384 1.363 . S
C2383 H2386 0.929 . S
C2384 C2383 1.363 . S
C2384 C2390 1.428 . S
H2385 C2381 0.930 . S
H2386 C2383 0.929 . S
S2387 N2388 1.613 . S
S2387 N2389 1.610 . S
N2388 S2387 1.613 . S
N2388 C2391 1.350 . S
N2389 S2387 1.610 . S
N2389 C2390 1.351 . S
C2390 C2384 1.428 . S
C2390 N2389 1.351 . S
C2390 C2391 1.434 . S
C2391 C2382 1.429 . S
C2391 N2388 1.350 . S
C2391 C2390 1.434 . S
C2392 C2393 1.369 . S
C2392 C2394 1.419 . S
C2392 H2396 0.930 . S
C2393 C2392 1.369 . S
C2393 C2402 1.429 . S
C2394 C2392 1.419 . S
C2394 C2395 1.363 . S
C2394 H2397 0.929 . S
C2395 C2394 1.363 . S
C2395 C2401 1.428 . S
H2396 C2392 0.930 . S
H2397 C2394 0.929 . S
S2398 N2399 1.613 . S
S2398 N2400 1.610 . S
N2399 S2398 1.613 . S
N2399 C2402 1.350 . S
N2400 S2398 1.610 . S
N2400 C2401 1.351 . S
C2401 C2395 1.428 . S
C2401 N2400 1.351 . S
C2401 C2402 1.434 . S
C2402 C2393 1.429 . S
C2402 N2399 1.350 . S
C2402 C2401 1.434 . S
C2403 C2404 1.369 . S
C2403 C2405 1.419 . S
C2403 H2407 0.930 . S
C2404 C2403 1.369 . S
C2404 C2413 1.429 . S
C2405 C2403 1.419 . S
C2405 C2406 1.363 . S
C2405 H2408 0.929 . S
C2406 C2405 1.363 . S
C2406 C2412 1.428 . S
H2407 C2403 0.930 . S
H2408 C2405 0.929 . S
S2409 N2410 1.613 . S
S2409 N2411 1.610 . S
N2410 S2409 1.613 . S
N2410 C2413 1.350 . S
N2411 S2409 1.610 . S
N2411 C2412 1.351 . S
C2412 C2406 1.428 . S
C2412 N2411 1.351 . S
C2412 C2413 1.434 . S
C2413 C2404 1.429 . S
C2413 N2410 1.350 . S
C2413 C2412 1.434 . S
C2414 C2415 1.369 . S
C2414 C2416 1.419 . S
C2414 H2418 0.930 . S
C2415 C2414 1.369 . S
C2415 C2424 1.429 . S
C2416 C2414 1.419 . S
C2416 C2417 1.363 . S
C2416 H2419 0.929 . S
C2417 C2416 1.363 . S
C2417 C2423 1.428 . S
H2418 C2414 0.930 . S
H2419 C2416 0.929 . S
S2420 N2421 1.613 . S
S2420 N2422 1.610 . S
N2421 S2420 1.613 . S
N2421 C2424 1.350 . S
N2422 S2420 1.610 . S
N2422 C2423 1.351 . S
C2423 C2417 1.428 . S
C2423 N2422 1.351 . S
C2423 C2424 1.434 . S
C2424 C2415 1.429 . S
C2424 N2421 1.350 . S
C2424 C2423 1.434 . S
C2425 C2426 1.369 . S
C2425 C2427 1.419 . S
C2425 H2429 0.930 . S
C2426 C2425 1.369 . S
C2426 C2435 1.429 . S
C2427 C2425 1.419 . S
C2427 C2428 1.363 . S
C2427 H2430 0.929 . S
C2428 C2427 1.363 . S
C2428 C2434 1.428 . S
H2429 C2425 0.930 . S
H2430 C2427 0.929 . S
S2431 N2432 1.613 . S
S2431 N2433 1.610 . S
N2432 S2431 1.613 . S
N2432 C2435 1.350 . S
N2433 S2431 1.610 . S
N2433 C2434 1.351 . S
C2434 C2428 1.428 . S
C2434 N2433 1.351 . S
C2434 C2435 1.434 . S
C2435 C2426 1.429 . S
C2435 N2432 1.350 . S
C2435 C2434 1.434 . S
C2436 C2437 1.369 . S
C2436 C2438 1.419 . S
C2436 H2440 0.930 . S
C2437 C2436 1.369 . S
C2437 C2446 1.429 . S
C2438 C2436 1.419 . S
C2438 C2439 1.363 . S
C2438 H2441 0.929 . S
C2439 C2438 1.363 . S
C2439 C2445 1.428 . S
H2440 C2436 0.930 . S
H2441 C2438 0.929 . S
S2442 N2443 1.613 . S
S2442 N2444 1.610 . S
N2443 S2442 1.613 . S
N2443 C2446 1.350 . S
N2444 S2442 1.610 . S
N2444 C2445 1.351 . S
C2445 C2439 1.428 . S
C2445 N2444 1.351 . S
C2445 C2446 1.434 . S
C2446 C2437 1.429 . S
C2446 N2443 1.350 . S
C2446 C2445 1.434 . S
C2447 C2448 1.369 1_565 S
C2447 C2449 1.419 . S
C2447 H2451 0.930 . S
C2448 C2447 1.369 1_545 S
C2448 C2457 1.429 . S
C2449 C2447 1.419 . S
C2449 C2450 1.363 . S
C2449 H2452 0.929 . S
C2450 C2449 1.363 . S
C2450 C2456 1.428 1_565 S
H2451 C2447 0.930 . S
H2452 C2449 0.929 . S
S2453 N2454 1.613 . S
S2453 N2455 1.610 . S
N2454 S2453 1.613 . S
N2454 C2457 1.350 . S
N2455 S2453 1.610 . S
N2455 C2456 1.351 . S
C2456 C2450 1.428 1_545 S
C2456 N2455 1.351 . S
C2456 C2457 1.434 . S
C2457 C2448 1.429 . S
C2457 N2454 1.350 . S
C2457 C2456 1.434 . S
C2458 C2459 1.369 . S
C2458 C2460 1.421 . S
C2458 H2462 0.930 . S
C2459 C2458 1.369 . S
C2459 C2468 1.429 . S
C2460 C2458 1.421 . S
C2460 C2461 1.358 1_455 S
C2460 H2463 0.948 1_455 S
C2461 C2460 1.358 1_655 S
C2461 C2467 1.428 . S
H2462 C2458 0.930 . S
H2463 C2460 0.948 1_655 S
S2464 N2465 1.613 1_655 S
S2464 N2466 1.610 . S
N2465 S2464 1.613 1_455 S
N2465 C2468 1.350 . S
N2466 S2464 1.610 . S
N2466 C2467 1.351 . S
C2467 C2461 1.428 . S
C2467 N2466 1.351 . S
C2467 C2468 1.434 1_655 S
C2468 C2459 1.429 . S
C2468 N2465 1.350 . S
C2468 C2467 1.434 1_455 S
C2469 C2470 1.369 . S
C2469 C2471 1.419 . S
C2469 H2473 0.930 . S
C2470 C2469 1.369 . S
C2470 C2479 1.429 . S
C2471 C2469 1.419 . S
C2471 C2472 1.363 . S
C2471 H2474 0.929 . S
C2472 C2471 1.363 . S
C2472 C2478 1.428 . S
H2473 C2469 0.930 . S
H2474 C2471 0.929 . S
S2475 N2476 1.613 . S
S2475 N2477 1.610 . S
N2476 S2475 1.613 . S
N2476 C2479 1.350 . S
N2477 S2475 1.610 . S
N2477 C2478 1.351 . S
C2478 C2472 1.428 . S
C2478 N2477 1.351 . S
C2478 C2479 1.434 . S
C2479 C2470 1.429 . S
C2479 N2476 1.350 . S
C2479 C2478 1.434 . S
C2480 C2481 1.369 . S
C2480 C2482 1.419 . S
C2480 H2484 0.930 . S
C2481 C2480 1.369 . S
C2481 C2490 1.429 1_565 S
C2482 C2480 1.419 . S
C2482 C2483 1.363 1_565 S
C2482 H2485 0.929 . S
C2483 C2482 1.363 1_545 S
C2483 C2489 1.428 . S
H2484 C2480 0.930 . S
H2485 C2482 0.929 . S
S2486 N2487 1.613 . S
S2486 N2488 1.610 . S
N2487 S2486 1.613 . S
N2487 C2490 1.350 . S
N2488 S2486 1.610 . S
N2488 C2489 1.351 . S
C2489 C2483 1.428 . S
C2489 N2488 1.351 . S
C2489 C2490 1.434 . S
C2490 C2481 1.429 1_545 S
C2490 N2487 1.350 . S
C2490 C2489 1.434 . S
C2491 C2492 1.369 1_655 S
C2491 C2493 1.419 . S
C2491 H2495 0.930 . S
C2492 C2491 1.369 1_455 S
C2492 C2501 1.429 . S
C2493 C2491 1.419 . S
C2493 C2494 1.363 . S
C2493 H2496 0.929 . S
C2494 C2493 1.363 . S
C2494 C2500 1.428 1_655 S
H2495 C2491 0.930 . S
H2496 C2493 0.929 . S
S2497 N2498 1.613 . S
S2497 N2499 1.610 . S
N2498 S2497 1.613 . S
N2498 C2501 1.350 . S
N2499 S2497 1.610 . S
N2499 C2500 1.351 . S
C2500 C2494 1.428 1_455 S
C2500 N2499 1.351 . S
C2500 C2501 1.434 . S
C2501 C2492 1.429 . S
C2501 N2498 1.350 . S
C2501 C2500 1.434 . S
C2502 C2503 1.369 . S
C2502 C2504 1.419 . S
C2502 H2506 0.930 . S
C2503 C2502 1.369 . S
C2503 C2512 1.429 . S
C2504 C2502 1.419 . S
C2504 C2505 1.363 . S
C2504 H2507 0.929 . S
C2505 C2504 1.363 . S
C2505 C2511 1.428 . S
H2506 C2502 0.930 . S
H2507 C2504 0.929 . S
S2508 N2509 1.613 . S
S2508 N2510 1.610 . S
N2509 S2508 1.613 . S
N2509 C2512 1.350 . S
N2510 S2508 1.610 . S
N2510 C2511 1.351 . S
C2511 C2505 1.428 . S
C2511 N2510 1.351 . S
C2511 C2512 1.434 . S
C2512 C2503 1.429 . S
C2512 N2509 1.350 . S
C2512 C2511 1.434 . S
C2513 C2514 1.369 . S
C2513 C2515 1.419 . S
C2513 H2517 0.930 . S
C2514 C2513 1.369 . S
C2514 C2523 1.429 . S
C2515 C2513 1.419 . S
C2515 C2516 1.363 . S
C2515 H2518 0.929 . S
C2516 C2515 1.363 . S
C2516 C2522 1.428 . S
H2517 C2513 0.930 . S
H2518 C2515 0.929 . S
S2519 N2520 1.613 . S
S2519 N2521 1.610 . S
N2520 S2519 1.613 . S
N2520 C2523 1.350 . S
N2521 S2519 1.610 . S
N2521 C2522 1.351 . S
C2522 C2516 1.428 . S
C2522 N2521 1.351 . S
C2522 C2523 1.434 . S
C2523 C2514 1.429 . S
C2523 N2520 1.350 . S
C2523 C2522 1.434 . S
C2524 C2525 1.369 . S
C2524 C2526 1.419 . S
C2524 H2528 0.930 . S
C2525 C2524 1.369 . S
C2525 C2534 1.429 . S
C2526 C2524 1.419 . S
C2526 C2527 1.363 . S
C2526 H2529 0.929 . S
C2527 C2526 1.363 . S
C2527 C2533 1.428 . S
H2528 C2524 0.930 . S
H2529 C2526 0.929 . S
S2530 N2531 1.613 . S
S2530 N2532 1.610 . S
N2531 S2530 1.613 . S
N2531 C2534 1.350 . S
N2532 S2530 1.610 . S
N2532 C2533 1.351 . S
C2533 C2527 1.428 . S
C2533 N2532 1.351 . S
C2533 C2534 1.434 . S
C2534 C2525 1.429 . S
C2534 N2531 1.350 . S
C2534 C2533 1.434 . S
C2535 C2536 1.369 . S
C2535 C2537 1.419 . S
C2535 H2539 0.930 . S
C2536 C2535 1.369 . S
C2536 C2545 1.429 . S
C2537 C2535 1.419 . S
C2537 C2538 1.363 . S
C2537 H2540 0.929 . S
C2538 C2537 1.363 . S
C2538 C2544 1.428 . S
H2539 C2535 0.930 . S
H2540 C2537 0.929 . S
S2541 N2542 1.613 . S
S2541 N2543 1.610 . S
N2542 S2541 1.613 . S
N2542 C2545 1.350 . S
N2543 S2541 1.610 . S
N2543 C2544 1.351 . S
C2544 C2538 1.428 . S
C2544 N2543 1.351 . S
C2544 C2545 1.434 . S
C2545 C2536 1.429 . S
C2545 N2542 1.350 . S
C2545 C2544 1.434 . S
C2546 C2547 1.369 . S
C2546 C2548 1.419 . S
C2546 H2550 0.930 . S
C2547 C2546 1.369 . S
C2547 C2556 1.429 . S
C2548 C2546 1.419 . S
C2548 C2549 1.363 . S
C2548 H2551 0.929 . S
C2549 C2548 1.363 . S
C2549 C2555 1.428 . S
H2550 C2546 0.930 . S
H2551 C2548 0.929 . S
S2552 N2553 1.613 . S
S2552 N2554 1.610 . S
N2553 S2552 1.613 . S
N2553 C2556 1.350 . S
N2554 S2552 1.610 . S
N2554 C2555 1.351 . S
C2555 C2549 1.428 . S
C2555 N2554 1.351 . S
C2555 C2556 1.434 . S
C2556 C2547 1.429 . S
C2556 N2553 1.350 . S
C2556 C2555 1.434 . S
C2557 C2558 1.369 . S
C2557 C2559 1.419 . S
C2557 H2561 0.930 . S
C2558 C2557 1.369 . S
C2558 C2567 1.429 . S
C2559 C2557 1.419 . S
C2559 C2560 1.363 . S
C2559 H2562 0.929 . S
C2560 C2559 1.363 . S
C2560 C2566 1.428 . S
H2561 C2557 0.930 . S
H2562 C2559 0.929 . S
S2563 N2564 1.613 . S
S2563 N2565 1.610 . S
N2564 S2563 1.613 . S
N2564 C2567 1.350 . S
N2565 S2563 1.610 . S
N2565 C2566 1.351 . S
C2566 C2560 1.428 . S
C2566 N2565 1.351 . S
C2566 C2567 1.434 . S
C2567 C2558 1.429 . S
C2567 N2564 1.350 . S
C2567 C2566 1.434 . S
C2568 C2569 1.369 . S
C2568 C2570 1.419 . S
C2568 H2572 0.930 . S
C2569 C2568 1.369 . S
C2569 C2578 1.429 . S
C2570 C2568 1.419 . S
C2570 C2571 1.363 . S
C2570 H2573 0.929 . S
C2571 C2570 1.363 . S
C2571 C2577 1.428 . S
H2572 C2568 0.930 . S
H2573 C2570 0.929 . S
S2574 N2575 1.613 . S
S2574 N2576 1.610 . S
N2575 S2574 1.613 . S
N2575 C2578 1.350 . S
N2576 S2574 1.610 . S
N2576 C2577 1.351 . S
C2577 C2571 1.428 . S
C2577 N2576 1.351 . S
C2577 C2578 1.434 . S
C2578 C2569 1.429 . S
C2578 N2575 1.350 . S
C2578 C2577 1.434 . S
C2579 C2580 1.369 . S
C2579 C2581 1.419 . S
C2579 H2583 0.930 . S
C2580 C2579 1.369 . S
C2580 C2589 1.429 . S
C2581 C2579 1.419 . S
C2581 C2582 1.363 . S
C2581 H2584 0.929 . S
C2582 C2581 1.363 . S
C2582 C2588 1.428 . S
H2583 C2579 0.930 . S
H2584 C2581 0.929 . S
S2585 N2586 1.613 . S
S2585 N2587 1.610 . S
N2586 S2585 1.613 . S
N2586 C2589 1.350 . S
N2587 S2585 1.610 . S
N2587 C2588 1.351 . S
C2588 C2582 1.428 . S
C2588 N2587 1.351 . S
C2588 C2589 1.434 . S
C2589 C2580 1.429 . S
C2589 N2586 1.350 . S
C2589 C2588 1.434 . S
C2590 C2591 1.369 . S
C2590 C2592 1.419 . S
C2590 H2594 0.930 . S
C2591 C2590 1.369 . S
C2591 C2600 1.429 . S
C2592 C2590 1.419 . S
C2592 C2593 1.363 . S
C2592 H2595 0.929 . S
C2593 C2592 1.363 . S
C2593 C2599 1.428 . S
H2594 C2590 0.930 . S
H2595 C2592 0.929 . S
S2596 N2597 1.613 . S
S2596 N2598 1.610 . S
N2597 S2596 1.613 . S
N2597 C2600 1.350 . S
N2598 S2596 1.610 . S
N2598 C2599 1.351 . S
C2599 C2593 1.428 . S
C2599 N2598 1.351 . S
C2599 C2600 1.434 . S
C2600 C2591 1.429 . S
C2600 N2597 1.350 . S
C2600 C2599 1.434 . S
C2601 C2602 1.369 . S
C2601 C2603 1.419 . S
C2601 H2605 0.930 . S
C2602 C2601 1.369 . S
C2602 C2611 1.429 . S
C2603 C2601 1.419 . S
C2603 C2604 1.363 . S
C2603 H2606 0.929 . S
C2604 C2603 1.363 . S
C2604 C2610 1.428 . S
H2605 C2601 0.930 . S
H2606 C2603 0.929 . S
S2607 N2608 1.613 . S
S2607 N2609 1.610 . S
N2608 S2607 1.613 . S
N2608 C2611 1.350 . S
N2609 S2607 1.610 . S
N2609 C2610 1.351 . S
C2610 C2604 1.428 . S
C2610 N2609 1.351 . S
C2610 C2611 1.434 . S
C2611 C2602 1.429 . S
C2611 N2608 1.350 . S
C2611 C2610 1.434 . S
C2612 C2613 1.369 . S
C2612 C2614 1.419 . S
C2612 H2616 0.930 . S
C2613 C2612 1.369 . S
C2613 C2622 1.429 . S
C2614 C2612 1.419 . S
C2614 C2615 1.363 . S
C2614 H2617 0.929 . S
C2615 C2614 1.363 . S
C2615 C2621 1.428 . S
H2616 C2612 0.930 . S
H2617 C2614 0.929 . S
S2618 N2619 1.613 . S
S2618 N2620 1.610 . S
N2619 S2618 1.613 . S
N2619 C2622 1.350 . S
N2620 S2618 1.610 . S
N2620 C2621 1.351 . S
C2621 C2615 1.428 . S
C2621 N2620 1.351 . S
C2621 C2622 1.434 . S
C2622 C2613 1.429 . S
C2622 N2619 1.350 . S
C2622 C2621 1.434 . S
C2623 C2624 1.369 . S
C2623 C2625 1.419 . S
C2623 H2627 0.930 . S
C2624 C2623 1.369 . S
C2624 C2633 1.429 . S
C2625 C2623 1.419 . S
C2625 C2626 1.363 . S
C2625 H2628 0.929 . S
C2626 C2625 1.363 . S
C2626 C2632 1.428 . S
H2627 C2623 0.930 . S
H2628 C2625 0.929 . S
S2629 N2630 1.613 . S
S2629 N2631 1.610 . S
N2630 S2629 1.613 . S
N2630 C2633 1.350 . S
N2631 S2629 1.610 . S
N2631 C2632 1.351 . S
C2632 C2626 1.428 . S
C2632 N2631 1.351 . S
C2632 C2633 1.434 . S
C2633 C2624 1.429 . S
C2633 N2630 1.350 . S
C2633 C2632 1.434 . S
C2634 C2635 1.369 . S
C2634 C2636 1.419 1_455 S
C2634 H2638 0.930 . S
C2635 C2634 1.369 . S
C2635 C2644 1.429 . S
C2636 C2634 1.419 1_655 S
C2636 C2637 1.363 . S
C2636 H2639 0.929 . S
C2637 C2636 1.363 . S
C2637 C2643 1.428 . S
H2638 C2634 0.930 . S
H2639 C2636 0.929 . S
S2640 N2641 1.613 1_655 S
S2640 N2642 1.610 . S
N2641 S2640 1.613 1_455 S
N2641 C2644 1.350 . S
N2642 S2640 1.610 . S
N2642 C2643 1.351 . S
C2643 C2637 1.428 . S
C2643 N2642 1.351 . S
C2643 C2644 1.434 1_655 S
C2644 C2635 1.429 . S
C2644 N2641 1.350 . S
C2644 C2643 1.434 1_455 S
C2645 C2646 1.369 . S
C2645 C2647 1.419 . S
C2645 H2649 0.930 . S
C2646 C2645 1.369 . S
C2646 C2655 1.429 . S
C2647 C2645 1.419 . S
C2647 C2648 1.363 . S
C2647 H2650 0.929 . S
C2648 C2647 1.363 . S
C2648 C2654 1.428 . S
H2649 C2645 0.930 . S
H2650 C2647 0.929 . S
S2651 N2652 1.613 . S
S2651 N2653 1.610 . S
N2652 S2651 1.613 . S
N2652 C2655 1.350 . S
N2653 S2651 1.610 . S
N2653 C2654 1.351 . S
C2654 C2648 1.428 . S
C2654 N2653 1.351 . S
C2654 C2655 1.434 . S
C2655 C2646 1.429 . S
C2655 N2652 1.350 . S
C2655 C2654 1.434 . S
C2656 C2657 1.369 . S
C2656 C2658 1.382 1_545 S
C2656 H2660 0.930 . S
C2657 C2656 1.369 . S
C2657 C2666 1.446 . S
C2658 C2656 1.382 1_565 S
C2658 C2659 1.396 . S
C2658 H2661 0.931 . S
C2659 C2658 1.396 . S
C2659 C2665 1.428 . S
H2660 C2656 0.930 . S
H2661 C2658 0.931 . S
S2662 N2663 1.613 . S
S2662 N2664 1.610 . S
N2663 S2662 1.613 . S
N2663 C2666 1.349 1_565 S
N2664 S2662 1.610 . S
N2664 C2665 1.351 . S
C2665 C2659 1.428 . S
C2665 N2664 1.351 . S
C2665 C2666 1.415 1_565 S
C2666 C2657 1.446 . S
C2666 N2663 1.349 1_545 S
C2666 C2665 1.415 1_545 S
C2667 C2668 1.369 . S
C2667 C2669 1.419 1_565 S
C2667 H2671 0.930 . S
C2668 C2667 1.369 . S
C2668 C2677 1.429 . S
C2669 C2667 1.419 1_545 S
C2669 C2670 1.363 . S
C2669 H2672 0.929 . S
C2670 C2669 1.363 . S
C2670 C2676 1.428 . S
H2671 C2667 0.930 . S
H2672 C2669 0.929 . S
S2673 N2674 1.613 1_545 S
S2673 N2675 1.610 . S
N2674 S2673 1.613 1_565 S
N2674 C2677 1.350 . S
N2675 S2673 1.610 . S
N2675 C2676 1.351 . S
C2676 C2670 1.428 . S
C2676 N2675 1.351 . S
C2676 C2677 1.434 1_545 S
C2677 C2668 1.429 . S
C2677 N2674 1.350 . S
C2677 C2676 1.434 1_565 S
C2678 C2679 1.369 . S
C2678 C2680 1.419 1_655 S
C2678 H2682 0.930 . S
C2679 C2678 1.369 . S
C2679 C2688 1.447 . S
C2680 C2678 1.419 1_455 S
C2680 C2681 1.363 . S
C2680 H2683 0.929 . S
C2681 C2680 1.363 . S
C2681 C2687 1.428 . S
H2682 C2678 0.930 . S
H2683 C2680 0.929 . S
S2684 N2685 1.590 1_455 S
S2684 N2686 1.610 . S
N2685 S2684 1.590 1_655 S
N2685 C2688 1.350 . S
N2686 S2684 1.610 . S
N2686 C2687 1.351 . S
C2687 C2681 1.428 . S
C2687 N2686 1.351 . S
C2687 C2688 1.415 1_455 S
C2688 C2679 1.447 . S
C2688 N2685 1.350 . S
C2688 C2687 1.415 1_655 S
C2689 C2690 1.369 . S
C2689 C2691 1.419 . S
C2689 H2693 0.930 . S
C2690 C2689 1.369 . S
C2690 C2699 1.429 . S
C2691 C2689 1.419 . S
C2691 C2692 1.363 . S
C2691 H2694 0.929 . S
C2692 C2691 1.363 . S
C2692 C2698 1.428 . S
H2693 C2689 0.930 . S
H2694 C2691 0.929 . S
S2695 N2696 1.613 . S
S2695 N2697 1.610 . S
N2696 S2695 1.613 . S
N2696 C2699 1.350 . S
N2697 S2695 1.610 . S
N2697 C2698 1.351 . S
C2698 C2692 1.428 . S
C2698 N2697 1.351 . S
C2698 C2699 1.434 . S
C2699 C2690 1.429 . S
C2699 N2696 1.350 . S
C2699 C2698 1.434 . S
C1909 C241 1.275 . S
C1911 C29 1.298 . S
C1920 C294 1.294 . S
C1922 C82 1.279 . S
C1931 C188 1.293 . S
C1933 C135 1.298 . S
C1942 C559 1.725 . S
C1944 C357 1.745 . S
C1953 C400 1.725 . S
C1955 C622 1.746 . S
C1964 C506 1.351 . S
C1966 C453 1.347 . S
C1975 C665 1.204 . S
C1977 C877 1.202 . S
C1986 C930 1.257 . S
C1988 C718 1.251 . S
C1997 C771 1.274 . S
C1999 C824 1.268 . S
C2008 C993 1.676 . S
C2010 C1195 1.659 . S
C2019 C1258 1.751 1_455 S
C2021 C1036 1.725 . S
C2030 C1089 1.402 . S
C2032 C1142 1.400 . S
C2041 C1513 1.251 . S
C2043 C1301 1.257 . S
C2052 C1354 1.203 . S
C2054 C1566 1.173 1_655 S
C2063 C1460 1.267 . S
C2065 C1407 1.268 . S
C2074 C1831 1.720 . S
C2076 C1629 1.750 . S
C2085 C1672 1.663 . S
C2087 C1894 1.679 . S
C2096 C1725 1.401 . S
C2098 C1778 1.406 . S
C2107 C621 1.762 . S
C2109 C22 1.759 . S
C2118 C75 1.660 . S
C2120 C499 1.681 . S
C2129 C552 1.846 . S
C2131 C128 1.842 . S
C2140 C393 1.845 . S
C2142 C181 1.843 . S
C2151 C234 1.661 . S
C2153 C446 1.681 . S
C2162 C356 1.762 . S
C2164 C287 1.760 . S
C2173 C658 1.849 . S
C2175 C1257 1.886 . S
C2184 C1135 1.828 . S
C2186 C711 1.836 . S
C2195 C1188 1.893 . S
C2197 C764 1.893 . S
C2206 C817 1.910 . S
C2208 C1029 1.908 . S
C2217 C870 1.756 . S
C2219 C1082 1.754 . S
C2228 C923 1.797 . S
C2230 C992 1.835 . S
C2239 C1893 1.836 . S
C2241 C1294 1.800 . S
C2250 C1347 1.756 . S
C2252 C1771 1.754 . S
C2261 C1400 1.910 . S
C2263 C1824 1.906 . S
C2272 C1665 1.895 . S
C2274 C1453 1.893 . S
C2283 C1718 1.832 . S
C2285 C1506 1.837 . S
C2294 C1628 1.887 . S
C2296 C1559 1.851 . S
C2305 C833 2.262 . S
C2307 C38 2.267 . S
C2316 C886 2.136 . S
C2318 C91 2.140 . S
C2327 C144 2.381 . S
C2329 C939 2.372 . S
C2338 C197 2.382 . S
C2340 C1310 2.372 . S
C2349 C250 2.142 . S
C2351 C1363 2.133 . S
C2360 C303 2.270 . S
C2362 C1416 2.259 . S
C2371 C340 1.638 . S
C2373 C1787 1.641 . S
C2382 C409 1.905 . S
C2384 C1840 1.897 . S
C2393 C462 1.406 . S
C2395 C1877 1.387 . S
C2404 C515 1.405 . S
C2406 C976 1.389 . S
C2415 C1045 1.901 . S
C2417 C568 1.900 . S
C2426 C1098 1.643 . S
C2428 C605 1.634 . S
C2437 C1469 2.581 . S
C2439 C674 2.579 . S
C2448 C727 2.457 . S
C2450 C1522 2.458 . S
C2459 C1575 2.578 . S
C2461 C780 2.579 . S
C2470 C1151 1.774 . S
C2472 C1612 1.763 . S
C2481 C1681 2.187 . S
C2483 C1204 2.187 . S
C2492 C1734 1.773 . S
C2494 C1241 1.764 . S
C2503 C39 2.339 . S
C2505 C1576 2.349 . S
C2514 C92 2.076 . S
C2516 C1470 2.085 . S
C2525 C145 2.019 . S
C2527 C1523 2.032 . S
C2536 C198 2.011 . S
C2538 C728 2.032 . S
C2547 C781 2.085 . S
C2549 C251 2.082 . S
C2558 C675 2.350 . S
C2560 C304 2.337 . S
C2569 C1248 1.538 . S
C2571 C347 1.537 . S
C2580 C1152 1.747 . S
C2582 C410 1.760 . S
C2591 C1205 1.817 . S
C2593 C463 1.783 . S
C2602 C1682 1.814 . S
C2604 C516 1.784 . S
C2613 C1735 1.745 . S
C2615 C569 1.760 . S
C2624 C1619 1.538 . S
C2626 C612 1.537 . S
C2635 C834 1.731 . S
C2637 C1364 1.743 . S
C2646 C1417 1.736 . S
C2648 C887 1.746 . S
C2657 C1311 2.158 . S
C2659 C940 2.163 . S
C2668 C983 1.167 . S
C2670 C1884 1.175 . S
C2679 C1788 1.566 . S
C2681 C1046 1.578 . S
C2690 C1099 1.569 . S
C2692 C1841 1.579 . S
