# Generated by pormake.
# Topology uox, (4)-cn, num edge types: 1
# Building blocks:
#     Node 0, Type 0, BuildingBlock: QUQFOY_clean_sbu_3, # of connection points: 4
#     Node 1, Type 0, BuildingBlock: QUQFOY_clean_sbu_3, # of connection points: 4
#     Node 2, Type 0, BuildingBlock: QUQFOY_clean_sbu_3, # of connection points: 4
#     Node 3, Type 0, BuildingBlock: QUQFOY_clean_sbu_3, # of connection points: 4
#     Node 4, Type 0, BuildingBlock: QUQFOY_clean_sbu_3, # of connection points: 4
#     Node 5, Type 0, BuildingBlock: QUQFOY_clean_sbu_3, # of connection points: 4
#     Node 6, Type 0, BuildingBlock: QUQFOY_clean_sbu_3, # of connection points: 4
#     Node 7, Type 0, BuildingBlock: QUQFOY_clean_sbu_3, # of connection points: 4
#     Node 8, Type 0, BuildingBlock: QUQFOY_clean_sbu_3, # of connection points: 4
#     Node 9, Type 0, BuildingBlock: QUQFOY_clean_sbu_3, # of connection points: 4
#     Node 10, Type 0, BuildingBlock: QUQFOY_clean_sbu_3, # of connection points: 4
#     Node 11, Type 0, BuildingBlock: QUQFOY_clean_sbu_3, # of connection points: 4
#     Node 12, Type 0, BuildingBlock: QUQFOY_clean_sbu_3, # of connection points: 4
#     Node 13, Type 0, BuildingBlock: QUQFOY_clean_sbu_3, # of connection points: 4
#     Node 14, Type 0, BuildingBlock: QUQFOY_clean_sbu_3, # of connection points: 4
#     Node 15, Type 0, BuildingBlock: QUQFOY_clean_sbu_3, # of connection points: 4
#     Node 16, Type 0, BuildingBlock: QUQFOY_clean_sbu_3, # of connection points: 4
#     Node 17, Type 0, BuildingBlock: QUQFOY_clean_sbu_3, # of connection points: 4
#     Node 18, Type 0, BuildingBlock: QUQFOY_clean_sbu_3, # of connection points: 4
#     Node 19, Type 0, BuildingBlock: QUQFOY_clean_sbu_3, # of connection points: 4
#     Node 20, Type 0, BuildingBlock: QUQFOY_clean_sbu_3, # of connection points: 4
#     Node 21, Type 0, BuildingBlock: QUQFOY_clean_sbu_3, # of connection points: 4
#     Node 22, Type 0, BuildingBlock: QUQFOY_clean_sbu_3, # of connection points: 4
#     Node 23, Type 0, BuildingBlock: QUQFOY_clean_sbu_3, # of connection points: 4
#     Node 24, Type 0, BuildingBlock: QUQFOY_clean_sbu_3, # of connection points: 4
#     Node 25, Type 0, BuildingBlock: QUQFOY_clean_sbu_3, # of connection points: 4
#     Node 26, Type 0, BuildingBlock: QUQFOY_clean_sbu_3, # of connection points: 4
#     Node 27, Type 0, BuildingBlock: QUQFOY_clean_sbu_3, # of connection points: 4
#     Node 28, Type 0, BuildingBlock: QUQFOY_clean_sbu_3, # of connection points: 4
#     Node 29, Type 0, BuildingBlock: QUQFOY_clean_sbu_3, # of connection points: 4
#     Node 30, Type 0, BuildingBlock: QUQFOY_clean_sbu_3, # of connection points: 4
#     Node 31, Type 0, BuildingBlock: QUQFOY_clean_sbu_3, # of connection points: 4
#     Edge 32, Type (0, 0), BuildingBlock: CIFDUS_clean_linker_0, # of connection points: 2
#     Edge 33, Type (0, 0), BuildingBlock: CIFDUS_clean_linker_0, # of connection points: 2
#     Edge 34, Type (0, 0), BuildingBlock: CIFDUS_clean_linker_0, # of connection points: 2
#     Edge 35, Type (0, 0), BuildingBlock: CIFDUS_clean_linker_0, # of connection points: 2
#     Edge 36, Type (0, 0), BuildingBlock: CIFDUS_clean_linker_0, # of connection points: 2
#     Edge 37, Type (0, 0), BuildingBlock: CIFDUS_clean_linker_0, # of connection points: 2
#     Edge 38, Type (0, 0), BuildingBlock: CIFDUS_clean_linker_0, # of connection points: 2
#     Edge 39, Type (0, 0), BuildingBlock: CIFDUS_clean_linker_0, # of connection points: 2
#     Edge 40, Type (0, 0), BuildingBlock: CIFDUS_clean_linker_0, # of connection points: 2
#     Edge 41, Type (0, 0), BuildingBlock: CIFDUS_clean_linker_0, # of connection points: 2
#     Edge 42, Type (0, 0), BuildingBlock: CIFDUS_clean_linker_0, # of connection points: 2
#     Edge 43, Type (0, 0), BuildingBlock: CIFDUS_clean_linker_0, # of connection points: 2
#     Edge 44, Type (0, 0), BuildingBlock: CIFDUS_clean_linker_0, # of connection points: 2
#     Edge 45, Type (0, 0), BuildingBlock: CIFDUS_clean_linker_0, # of connection points: 2
#     Edge 46, Type (0, 0), BuildingBlock: CIFDUS_clean_linker_0, # of connection points: 2
#     Edge 47, Type (0, 0), BuildingBlock: CIFDUS_clean_linker_0, # of connection points: 2
#     Edge 48, Type (0, 0), BuildingBlock: CIFDUS_clean_linker_0, # of connection points: 2
#     Edge 49, Type (0, 0), BuildingBlock: CIFDUS_clean_linker_0, # of connection points: 2
#     Edge 50, Type (0, 0), BuildingBlock: CIFDUS_clean_linker_0, # of connection points: 2
#     Edge 51, Type (0, 0), BuildingBlock: CIFDUS_clean_linker_0, # of connection points: 2
#     Edge 52, Type (0, 0), BuildingBlock: CIFDUS_clean_linker_0, # of connection points: 2
#     Edge 53, Type (0, 0), BuildingBlock: CIFDUS_clean_linker_0, # of connection points: 2
#     Edge 54, Type (0, 0), BuildingBlock: CIFDUS_clean_linker_0, # of connection points: 2
#     Edge 55, Type (0, 0), BuildingBlock: CIFDUS_clean_linker_0, # of connection points: 2
#     Edge 56, Type (0, 0), BuildingBlock: CIFDUS_clean_linker_0, # of connection points: 2
#     Edge 57, Type (0, 0), BuildingBlock: CIFDUS_clean_linker_0, # of connection points: 2
#     Edge 58, Type (0, 0), BuildingBlock: CIFDUS_clean_linker_0, # of connection points: 2
#     Edge 59, Type (0, 0), BuildingBlock: CIFDUS_clean_linker_0, # of connection points: 2
#     Edge 60, Type (0, 0), BuildingBlock: CIFDUS_clean_linker_0, # of connection points: 2
#     Edge 61, Type (0, 0), BuildingBlock: CIFDUS_clean_linker_0, # of connection points: 2
#     Edge 62, Type (0, 0), BuildingBlock: CIFDUS_clean_linker_0, # of connection points: 2
#     Edge 63, Type (0, 0), BuildingBlock: CIFDUS_clean_linker_0, # of connection points: 2
#     Edge 64, Type (0, 0), BuildingBlock: CIFDUS_clean_linker_0, # of connection points: 2
#     Edge 65, Type (0, 0), BuildingBlock: CIFDUS_clean_linker_0, # of connection points: 2
#     Edge 66, Type (0, 0), BuildingBlock: CIFDUS_clean_linker_0, # of connection points: 2
#     Edge 67, Type (0, 0), BuildingBlock: CIFDUS_clean_linker_0, # of connection points: 2
#     Edge 68, Type (0, 0), BuildingBlock: CIFDUS_clean_linker_0, # of connection points: 2
#     Edge 69, Type (0, 0), BuildingBlock: CIFDUS_clean_linker_0, # of connection points: 2
#     Edge 70, Type (0, 0), BuildingBlock: CIFDUS_clean_linker_0, # of connection points: 2
#     Edge 71, Type (0, 0), BuildingBlock: CIFDUS_clean_linker_0, # of connection points: 2
#     Edge 72, Type (0, 0), BuildingBlock: CIFDUS_clean_linker_0, # of connection points: 2
#     Edge 73, Type (0, 0), BuildingBlock: CIFDUS_clean_linker_0, # of connection points: 2
#     Edge 74, Type (0, 0), BuildingBlock: CIFDUS_clean_linker_0, # of connection points: 2
#     Edge 75, Type (0, 0), BuildingBlock: CIFDUS_clean_linker_0, # of connection points: 2
#     Edge 76, Type (0, 0), BuildingBlock: CIFDUS_clean_linker_0, # of connection points: 2
#     Edge 77, Type (0, 0), BuildingBlock: CIFDUS_clean_linker_0, # of connection points: 2
#     Edge 78, Type (0, 0), BuildingBlock: CIFDUS_clean_linker_0, # of connection points: 2
#     Edge 79, Type (0, 0), BuildingBlock: CIFDUS_clean_linker_0, # of connection points: 2
#     Edge 80, Type (0, 0), BuildingBlock: CIFDUS_clean_linker_0, # of connection points: 2
#     Edge 81, Type (0, 0), BuildingBlock: CIFDUS_clean_linker_0, # of connection points: 2
#     Edge 82, Type (0, 0), BuildingBlock: CIFDUS_clean_linker_0, # of connection points: 2
#     Edge 83, Type (0, 0), BuildingBlock: CIFDUS_clean_linker_0, # of connection points: 2
#     Edge 84, Type (0, 0), BuildingBlock: CIFDUS_clean_linker_0, # of connection points: 2
#     Edge 85, Type (0, 0), BuildingBlock: CIFDUS_clean_linker_0, # of connection points: 2
#     Edge 86, Type (0, 0), BuildingBlock: CIFDUS_clean_linker_0, # of connection points: 2
#     Edge 87, Type (0, 0), BuildingBlock: CIFDUS_clean_linker_0, # of connection points: 2
#     Edge 88, Type (0, 0), BuildingBlock: CIFDUS_clean_linker_0, # of connection points: 2
#     Edge 89, Type (0, 0), BuildingBlock: CIFDUS_clean_linker_0, # of connection points: 2
#     Edge 90, Type (0, 0), BuildingBlock: CIFDUS_clean_linker_0, # of connection points: 2
#     Edge 91, Type (0, 0), BuildingBlock: CIFDUS_clean_linker_0, # of connection points: 2
#     Edge 92, Type (0, 0), BuildingBlock: CIFDUS_clean_linker_0, # of connection points: 2
#     Edge 93, Type (0, 0), BuildingBlock: CIFDUS_clean_linker_0, # of connection points: 2
#     Edge 94, Type (0, 0), BuildingBlock: CIFDUS_clean_linker_0, # of connection points: 2
#     Edge 95, Type (0, 0), BuildingBlock: CIFDUS_clean_linker_0, # of connection points: 2
# Relax obj value: 0.058
# Max RMSD: 0.086
# Mean RMSD: 0.086
data_MOF--net-uox--node1-QUQFOY_clean_sbu_3--edge1-CIFDUS_clean_linker_0
_symmetry_space_group_name_H-M    P1
_symmetry_Int_Tables_number       1
_symmetry_cell_setting            triclinic
loop_
_symmetry_equiv_pos_as_xyz
'x, y, z'
_cell_length_a     41.281375
_cell_length_b     41.133594
_cell_length_c     71.588227
_cell_angle_alpha  89.82726
_cell_angle_beta   90.095555
_cell_angle_gamma 90.058662
loop_
_atom_site_label
_atom_site_type_symbol
_atom_site_fract_x
_atom_site_fract_y
_atom_site_fract_z
_atom_type_partial_charge
C0 C 0.50026 0.04626 0.12064 0.0
O1 O 0.48768 0.03557 0.10564 0.0
Cd2 Cd 0.43697 0.00686 0.10317 0.0
O3 O 0.48628 0.04189 0.13633 0.0
Cd4 Cd 0.43605 0.01684 0.14897 0.0
C5 C 0.38889 0.06672 0.12167 0.0
O6 O 0.43644 0.96932 0.12859 0.0
O7 O 0.3962 0.97285 0.14755 0.0
O8 O 0.46798 0.00497 0.17728 0.0
C9 C 0.41016 0.95738 0.13463 0.0
O10 O 0.39717 0.04966 0.10765 0.0
C11 C 0.44555 0.01309 0.18847 0.0
O12 O 0.40048 0.06092 0.13787 0.0
O13 O 0.4195 0.02378 0.18129 0.0
C14 C 0.18891 0.24833 0.36566 0.0
O15 O 0.19966 0.23044 0.35265 0.0
Cd16 Cd 0.21913 0.17578 0.35734 0.0
O17 O 0.18932 0.23836 0.38253 0.0
Cd18 Cd 0.20561 0.18976 0.40056 0.0
C19 C 0.15153 0.14242 0.37775 0.0
O20 O 0.25423 0.17204 0.38395 0.0
O21 O 0.23022 0.13667 0.40153 0.0
O22 O 0.23285 0.21516 0.42718 0.0
C23 C 0.25399 0.14372 0.39108 0.0
O24 O 0.1707 0.14345 0.36382 0.0
C25 C 0.21107 0.20762 0.43893 0.0
O26 O 0.15735 0.15884 0.39245 0.0
O27 O 0.18642 0.19263 0.43273 0.0
C28 C 0.98804 0.95791 0.61801 0.0
O29 O 0.00608 0.96674 0.60458 0.0
Cd30 Cd 0.05931 0.9887 0.60847 0.0
O31 O -0.00275 0.96182 0.63487 0.0
Cd32 Cd 0.04555 0.98368 0.65146 0.0
C33 C 0.09393 0.92581 0.63286 0.0
O34 O 0.05793 0.03053 0.63178 0.0
O35 O 0.09679 0.01319 0.64939 0.0
O36 O 0.01922 0.01491 0.67629 0.0
C37 C 0.08601 0.035 0.63847 0.0
O38 O 0.09256 0.94195 0.61766 0.0
C39 C 0.0281 -0.00388 0.68942 0.0
O40 O 0.07787 0.9348 0.6471 0.0
O41 O 0.04424 0.97114 0.68487 0.0
C42 C 0.28613 0.74179 0.86446 0.0
O43 O 0.27989 0.7608 0.85089 0.0
Cd44 Cd 0.25705 0.81442 0.85312 0.0
O45 O 0.2805 0.7504 0.88126 0.0
Cd46 Cd 0.25958 0.79844 0.89833 0.0
C47 C 0.31591 0.85091 0.87969 0.0
O48 O 0.21633 0.80987 0.87647 0.0
O49 O 0.22119 0.84415 0.89902 0.0
O50 O 0.23099 0.76878 0.92308 0.0
C51 C 0.2062 0.83534 0.88441 0.0
O52 O 0.3013 0.84873 0.86406 0.0
C53 C 0.2499 0.77789 0.93606 0.0
O54 O 0.30648 0.83442 0.89378 0.0
O55 O 0.27371 0.79571 0.93143 0.0
C56 C 0.48891 0.94851 0.36754 0.0
O57 O 0.47322 0.95929 0.38143 0.0
Cd58 Cd 0.41932 0.97966 0.3801 0.0
O59 O 0.47674 0.94978 0.35114 0.0
Cd60 Cd 0.42481 0.97003 0.33735 0.0
C61 C 0.38405 0.91219 0.36138 0.0
O62 O 0.41644 0.01976 0.35559 0.0
O63 O 0.37427 -0.00081 0.34244 0.0
O64 O 0.45046 0.98987 0.30813 0.0
C65 C 0.387 0.0229 0.35097 0.0
O66 O 0.38602 0.93067 0.37558 0.0
C67 C 0.42912 0.97703 0.29765 0.0
O68 O 0.39785 0.91995 0.34613 0.0
O69 O 0.40737 0.96022 0.30561 0.0
C70 C 0.29048 0.25594 0.61687 0.0
O71 O 0.28083 0.2387 0.63052 0.0
Cd72 Cd 0.26059 0.18401 0.62789 0.0
O73 O 0.28873 0.2451 0.60025 0.0
Cd74 Cd 0.27084 0.19489 0.58428 0.0
C75 C 0.32599 0.14828 0.60688 0.0
O76 O 0.22312 0.17918 0.60244 0.0
O77 O 0.24559 0.14184 0.58571 0.0
O78 O 0.24233 0.21787 0.55723 0.0
C79 C 0.22248 0.15027 0.59627 0.0
O80 O 0.30799 0.15032 0.62128 0.0
C81 C 0.26384 0.20967 0.54549 0.0
O82 O 0.31918 0.16394 0.59201 0.0
O83 O 0.28869 0.19524 0.55186 0.0
C84 C 0.98221 0.0504 0.86953 0.0
O85 O -0.00122 0.04252 0.88382 0.0
Cd86 Cd 0.05146 0.01767 0.88327 0.0
O87 O -0.00719 0.04475 0.85314 0.0
Cd88 Cd 0.04156 0.0212 0.83818 0.0
C89 C 0.09236 0.07638 0.85869 0.0
O90 O 0.05008 0.9764 0.85998 0.0
O91 O 0.08737 0.98373 0.83927 0.0
O92 O 0.01384 0.99252 0.81281 0.0
C93 C 0.07666 0.96723 0.85291 0.0
O94 O 0.08794 0.06132 0.87405 0.0
C95 C 0.02507 0.01053 0.79992 0.0
O96 O 0.07751 0.06771 0.8439 0.0
O97 O 0.04307 0.03405 0.80486 0.0
C98 C 0.19917 0.73335 0.11713 0.0
O99 O 0.20648 0.7512 0.13098 0.0
Cd100 Cd 0.23332 0.80313 0.12957 0.0
O101 O 0.20614 0.74226 0.10052 0.0
Cd102 Cd 0.23159 0.78979 0.08469 0.0
C103 C 0.17825 0.84508 0.10317 0.0
O104 O 0.2754 0.79774 0.10697 0.0
O105 O 0.2718 0.83384 0.08518 0.0
O106 O 0.25939 0.76108 0.05932 0.0
C107 C 0.28664 0.82331 0.09948 0.0
O108 O 0.19206 0.84136 0.11895 0.0
C109 C 0.24101 0.77208 0.04654 0.0
O110 O 0.18709 0.82848 0.08907 0.0
O111 O 0.21786 0.79032 0.05157 0.0
C112 C 0.48035 0.94977 0.86723 0.0
O113 O 0.49518 0.95516 0.88244 0.0
Cd114 Cd 0.55184 0.96962 0.88302 0.0
O115 O 0.49516 0.95252 0.85174 0.0
Cd116 Cd 0.55017 0.96575 0.8408 0.0
C117 C 0.58564 0.90276 0.86304 0.0
O118 O 0.56676 0.01135 0.86074 0.0
O119 O 0.60459 0.98408 0.84687 0.0
O120 O 0.53515 0.00164 0.81499 0.0
C121 C 0.59634 0.00905 0.85603 0.0
O122 O 0.58258 0.91971 0.87779 0.0
C123 C 0.54333 0.98204 0.80219 0.0
O124 O 0.57375 0.91261 0.8476 0.0
O125 O 0.55418 0.95454 0.80731 0.0
C126 C 0.78523 0.74508 0.61699 0.0
O127 O 0.77268 0.76116 0.63024 0.0
Cd128 Cd 0.75512 0.81657 0.62809 0.0
O129 O 0.78799 0.75761 0.60076 0.0
Cd130 Cd 0.77509 0.80971 0.58487 0.0
C131 C 0.82644 0.85137 0.6131 0.0
O132 O 0.72463 0.82491 0.60014 0.0
O133 O 0.75096 0.86303 0.58586 0.0
O134 O 0.74845 0.78861 0.55706 0.0
C135 C 0.72577 0.85427 0.59464 0.0
O136 O 0.80525 0.84777 0.62587 0.0
C137 C 0.7702 0.79773 0.54568 0.0
O138 O 0.82262 0.83852 0.59704 0.0
O139 O 0.79514 0.81133 0.55258 0.0
C140 C -0.00244 0.03192 0.35589 0.0
O141 O 0.98229 0.02366 0.37053 0.0
Cd142 Cd 0.92791 0.00299 0.37037 0.0
O143 O 0.98456 0.02879 0.33986 0.0
Cd144 Cd 0.9326 0.01031 0.32659 0.0
C145 C 0.89072 0.0684 0.34975 0.0
O146 O 0.92161 0.96304 0.34625 0.0
O147 O 0.88126 0.98267 0.33058 0.0
O148 O 0.95512 0.97965 0.30059 0.0
C149 C 0.89239 0.96026 0.34096 0.0
O150 O 0.89449 0.05087 0.36429 0.0
C151 C 0.94467 -0.00126 0.28799 0.0
O152 O 0.90363 0.0603 0.33429 0.0
O153 O 0.92901 0.02356 0.29335 0.0
C154 C 0.70747 0.25533 0.10643 0.0
O155 O 0.71384 0.23923 0.12112 0.0
Cd156 Cd 0.72759 0.18233 0.12014 0.0
O157 O 0.70906 0.24177 0.09051 0.0
Cd158 Cd 0.72175 0.18783 0.07745 0.0
C159 C 0.65973 0.15056 0.09964 0.0
O160 O 0.7676 0.16981 0.09671 0.0
O161 O 0.74123 0.13291 0.0814 0.0
O162 O 0.75666 0.20628 0.05208 0.0
C163 C 0.76574 0.14056 0.09114 0.0
O164 O 0.67718 0.15284 0.11427 0.0
C165 C 0.73691 0.19946 0.03908 0.0
O166 O 0.66905 0.16318 0.08428 0.0
O167 O 0.70971 0.18766 0.04388 0.0
C168 C 0.47951 0.03557 0.62582 0.0
O169 O 0.49218 0.0252 0.61084 0.0
Cd170 Cd 0.54594 0.0034 0.60883 0.0
O171 O 0.49482 0.03375 0.64123 0.0
Cd172 Cd 0.54786 0.01439 0.65253 0.0
C173 C 0.58771 0.06939 0.62584 0.0
O174 O 0.55655 0.96577 0.63364 0.0
O175 O 0.59858 0.98757 0.64671 0.0
O176 O 0.52778 0.98368 0.67912 0.0
C177 C 0.58654 0.96419 0.63751 0.0
O178 O 0.581 0.05075 0.61219 0.0
C179 C 0.54021 0.00189 0.69148 0.0
O180 O 0.57706 0.06324 0.6422 0.0
O181 O 0.55565 0.02675 0.68578 0.0
C182 C 0.69302 0.73675 0.37276 0.0
O183 O 0.70304 0.75 0.35781 0.0
Cd184 Cd 0.72047 0.80573 0.35572 0.0
O185 O 0.69272 0.75258 0.38801 0.0
Cd186 Cd 0.70641 0.8073 0.39963 0.0
C187 C 0.65097 0.84281 0.37096 0.0
O188 O 0.7547 0.82049 0.38148 0.0
O189 O 0.72939 0.8604 0.39464 0.0
O190 O 0.73576 0.79036 0.42763 0.0
C191 C 0.75355 0.85061 0.38532 0.0
O192 O 0.67044 0.83702 0.35759 0.0
C193 C 0.71449 0.8001 0.43909 0.0
O194 O 0.65712 0.8331 0.38754 0.0
O195 O 0.68911 0.81292 0.43223 0.0
C196 C 0.02104 0.95553 0.11331 0.0
O197 O 0.00779 0.96245 0.0978 0.0
Cd198 Cd 0.95243 0.98081 0.09574 0.0
O199 O 0.00534 0.95884 0.12845 0.0
Cd200 Cd 0.95061 0.97559 0.13815 0.0
C201 C 0.91278 0.91578 0.11432 0.0
O202 O 0.93922 0.02286 0.11805 0.0
O203 O 0.89851 -0.00078 0.13146 0.0
O204 O 0.96608 0.00823 0.1652 0.0
C205 C 0.90932 0.02325 0.12225 0.0
O206 O 0.91838 0.93262 0.09973 0.0
C207 C 0.95529 0.98825 0.17722 0.0
O208 O 0.92366 0.92474 0.13014 0.0
O209 O 0.94286 0.96213 0.17109 0.0
C210 C 0.78419 0.26435 0.85989 0.0
O211 O 0.77305 0.24941 0.84579 0.0
Cd212 Cd 0.75326 0.19443 0.84751 0.0
O213 O 0.78355 0.25099 0.87595 0.0
Cd214 Cd 0.76516 0.19901 0.88972 0.0
C215 C 0.82024 0.15634 0.86518 0.0
O216 O 0.71524 0.18549 0.8725 0.0
O217 O 0.74019 0.14649 0.88689 0.0
O218 O 0.73576 0.22161 0.91613 0.0
C219 C 0.71516 0.15622 0.87826 0.0
O220 O 0.80129 0.16043 0.85132 0.0
C221 C 0.75463 0.21029 0.92855 0.0
O222 O 0.81412 0.16947 0.88088 0.0
O223 O 0.77931 0.19476 0.9229 0.0
C224 C 0.98695 0.53963 0.62003 0.0
O225 O 0.97291 0.52601 0.60633 0.0
Cd226 Cd 0.91791 0.50662 0.60755 0.0
O227 O 0.97293 0.54142 0.63582 0.0
Cd228 Cd 0.92164 0.52526 0.65099 0.0
C229 C 0.88162 0.57734 0.62235 0.0
O230 O 0.90784 0.47468 0.63501 0.0
O231 O 0.86902 0.49995 0.64913 0.0
O232 O 0.94478 0.50012 0.67896 0.0
C233 C 0.87833 0.47525 0.64004 0.0
O234 O 0.88629 0.55671 0.60938 0.0
C235 C 0.93511 0.52192 0.69015 0.0
O236 O 0.89314 0.5728 0.6387 0.0
O237 O 0.91939 0.54555 0.68313 0.0
C238 C 0.68604 0.74044 0.88328 0.0
O239 O 0.69434 0.7267 0.86818 0.0
Cd240 Cd 0.71496 0.67238 0.8664 0.0
O241 O 0.68991 0.72597 0.89889 0.0
Cd242 Cd 0.71128 0.67266 0.90962 0.0
C243 C 0.65109 0.63374 0.88742 0.0
O244 O 0.75765 0.66342 0.88863 0.0
O245 O 0.73656 0.62144 0.90203 0.0
O246 O 0.73675 0.69803 0.93711 0.0
C247 C 0.75924 0.63326 0.89226 0.0
O248 O 0.66802 0.63771 0.87272 0.0
C249 C 0.72577 0.67701 0.9485 0.0
O250 O 0.65978 0.64647 0.90282 0.0
O251 O 0.70759 0.655 0.94185 0.0
C252 C 0.50039 0.44168 0.11465 0.0
O253 O 0.51718 0.4507 0.10069 0.0
Cd254 Cd 0.56895 0.47759 0.10231 0.0
O255 O 0.51026 0.44697 0.13126 0.0
Cd256 Cd 0.55776 0.47138 0.14712 0.0
C257 C 0.61072 0.41874 0.12614 0.0
O258 O 0.56426 0.51772 0.12621 0.0
O259 O 0.60092 0.51188 0.14754 0.0
O260 O 0.52709 0.49609 0.17257 0.0
C261 C 0.58961 0.52846 0.13409 0.0
O262 O 0.60662 0.4345 0.11098 0.0
C263 C 0.54021 0.47907 0.18533 0.0
O264 O 0.59509 0.42634 0.14083 0.0
O265 O 0.56045 0.45767 0.18023 0.0
C266 C 0.79667 0.23212 0.37469 0.0
O267 O 0.78813 0.24786 0.36022 0.0
Cd268 Cd 0.76581 0.30192 0.36132 0.0
O269 O 0.79375 0.24472 0.39083 0.0
Cd270 Cd 0.77536 0.29642 0.40468 0.0
C271 C 0.82856 0.34405 0.38078 0.0
O272 O 0.72637 0.30512 0.38605 0.0
O273 O 0.74369 0.34599 0.40214 0.0
O274 O 0.74936 0.27293 0.43233 0.0
C275 C 0.72179 0.33386 0.39185 0.0
O276 O 0.81111 0.33942 0.36634 0.0
C277 C 0.77029 0.28355 0.44381 0.0
O278 O 0.82204 0.32966 0.39609 0.0
O279 O 0.79361 0.29991 0.43708 0.0
C280 C 0.00304 0.45656 0.8699 0.0
O281 O 0.98689 0.46854 0.88329 0.0
Cd282 Cd 0.93339 0.49087 0.88095 0.0
O283 O 0.99156 0.45668 0.85333 0.0
Cd284 Cd 0.94081 0.47472 0.83747 0.0
C285 C 0.89334 0.42437 0.86356 0.0
O286 O 0.92989 0.5255 0.85408 0.0
O287 O 0.89027 0.50437 0.83858 0.0
O288 O 0.96145 0.49982 0.80872 0.0
C289 C 0.90099 0.52792 0.84817 0.0
O290 O 0.89783 0.44374 0.87719 0.0
C291 C 0.95144 0.4774 0.79801 0.0
O292 O 0.9074 0.42906 0.84794 0.0
O293 O 0.93771 0.4532 0.80569 0.0
C294 C 0.80491 0.75516 0.1238 0.0
O295 O 0.7942 0.74166 0.13856 0.0
Cd296 Cd 0.76645 0.69005 0.14008 0.0
O297 O 0.80084 0.74187 0.10791 0.0
Cd298 Cd 0.77608 0.6921 0.09487 0.0
C299 C 0.82591 0.64304 0.12084 0.0
O300 O 0.72795 0.68993 0.11504 0.0
O301 O 0.73449 0.65085 0.09535 0.0
O302 O 0.76231 0.72332 0.06658 0.0
C303 C 0.71757 0.66357 0.10808 0.0
O304 O 0.80921 0.65013 0.13521 0.0
C305 C 0.7721 0.70129 0.05553 0.0
O306 O 0.81983 0.65607 0.10505 0.0
O307 O 0.78485 0.67621 0.06282 0.0
C308 C 0.49044 0.5303 0.36311 0.0
O309 O 0.50658 0.52393 0.37777 0.0
Cd310 Cd 0.56235 0.50684 0.37762 0.0
O311 O 0.50321 0.52675 0.34707 0.0
Cd312 Cd 0.55604 0.51016 0.33402 0.0
C313 C 0.59624 0.57187 0.35485 0.0
O314 O 0.57283 0.46566 0.35472 0.0
O315 O 0.61025 0.48946 0.33852 0.0
O316 O 0.5379 0.47446 0.30884 0.0
C317 C 0.60218 0.46647 0.3494 0.0
O318 O 0.59358 0.55552 0.36991 0.0
C319 C 0.54449 0.49434 0.2958 0.0
O320 O 0.58292 0.56209 0.3398 0.0
O321 O 0.55605 0.52173 0.30052 0.0
C322 C 0.69063 0.23392 0.62278 0.0
O323 O 0.69915 0.25205 0.63624 0.0
Cd324 Cd 0.72206 0.30544 0.63242 0.0
O325 O 0.69436 0.24341 0.60595 0.0
Cd326 Cd 0.71446 0.29244 0.58945 0.0
C327 C 0.66049 0.34387 0.60935 0.0
O328 O 0.76251 0.3047 0.60826 0.0
O329 O 0.74461 0.3431 0.59039 0.0
O330 O 0.74247 0.26866 0.56251 0.0
C331 C 0.76658 0.3328 0.6013 0.0
O332 O 0.67719 0.3419 0.62429 0.0
C333 C 0.72085 0.2769 0.55079 0.0
O334 O 0.6677 0.3268 0.59517 0.0
O335 O 0.69616 0.29148 0.55712 0.0
C336 C 0.9825 0.4547 0.35863 0.0
O337 O -0.00412 0.4656 0.37332 0.0
Cd338 Cd 0.05145 0.48304 0.37514 0.0
O339 O -0.00216 0.45436 0.34322 0.0
Cd340 Cd 0.05176 0.46993 0.33112 0.0
C341 C 0.08712 0.41297 0.35851 0.0
O342 O 0.06774 0.51713 0.34979 0.0
O343 O 0.10566 0.48957 0.33621 0.0
O344 O 0.03472 0.50348 0.30491 0.0
C345 C 0.09763 0.51405 0.34587 0.0
O346 O 0.08157 0.43261 0.37187 0.0
C347 C 0.04363 0.48382 0.29231 0.0
O348 O 0.07733 0.41916 0.34194 0.0
O349 O 0.0557 0.45694 0.2977 0.0
C350 C 0.29042 0.23305 0.12118 0.0
O351 O 0.27995 0.24964 0.13481 0.0
Cd352 Cd 0.26534 0.30603 0.13224 0.0
O353 O 0.29231 0.24565 0.10495 0.0
Cd354 Cd 0.2809 0.29838 0.08956 0.0
C355 C 0.33673 0.33779 0.11565 0.0
O356 O 0.23182 0.31669 0.10549 0.0
O357 O 0.26058 0.35316 0.09128 0.0
O358 O 0.25126 0.27938 0.06217 0.0
C359 C 0.23469 0.34585 0.09982 0.0
O360 O 0.31646 0.33543 0.12899 0.0
C361 C 0.27328 0.28645 0.0505 0.0
O362 O 0.33096 0.32474 0.09985 0.0
O363 O 0.29945 0.29812 0.05702 0.0
C364 C 0.48887 0.53633 0.86434 0.0
O365 O 0.47406 0.52644 0.87884 0.0
Cd366 Cd 0.41956 0.50493 0.87874 0.0
O367 O 0.47517 0.53553 0.84841 0.0
Cd368 Cd 0.42295 0.52043 0.83438 0.0
C369 C 0.37949 0.57188 0.86235 0.0
O370 O 0.4145 0.47039 0.85196 0.0
O371 O 0.37601 0.48516 0.83316 0.0
O372 O 0.44745 0.49841 0.80631 0.0
C373 C 0.38709 0.46447 0.84465 0.0
O374 O 0.38491 0.55254 0.87592 0.0
C375 C 0.43573 0.51974 0.79539 0.0
O376 O 0.3915 0.56651 0.84626 0.0
O377 O 0.41867 0.54203 0.80266 0.0
C378 C 0.1865 0.75738 0.6197 0.0
O379 O 0.19645 0.74507 0.63493 0.0
Cd380 Cd 0.21363 0.68919 0.63673 0.0
O381 O 0.18682 0.74069 0.60477 0.0
Cd382 Cd 0.20343 0.68618 0.59426 0.0
C383 C 0.14576 0.6505 0.62017 0.0
O384 O 0.25264 0.67502 0.613 0.0
O385 O 0.22769 0.63437 0.60036 0.0
O386 O 0.2262 0.71354 0.56691 0.0
C387 C 0.25216 0.64489 0.60912 0.0
O388 O 0.16451 0.65625 0.63393 0.0
C389 C 0.21428 0.69378 0.55519 0.0
O390 O 0.15257 0.66093 0.60386 0.0
O391 O 0.19686 0.67087 0.56157 0.0
C392 C 0.98461 0.53379 0.11383 0.0
O393 O -0.00137 0.52292 0.09938 0.0
Cd394 Cd 0.05344 0.50351 0.09965 0.0
O395 O -0.00104 0.53326 0.12958 0.0
Cd396 Cd 0.05154 0.51529 0.14257 0.0
C397 C 0.09258 0.57079 0.11694 0.0
O398 O 0.06279 0.4658 0.12472 0.0
O399 O 0.10333 0.48943 0.13829 0.0
O400 O 0.03018 0.48462 0.16896 0.0
C401 C 0.09239 0.46497 0.12957 0.0
O402 O 0.08729 0.55185 0.10322 0.0
C403 C 0.04152 0.50319 0.18148 0.0
O404 O 0.08076 0.56459 0.13301 0.0
O405 O 0.0567 0.52833 0.17596 0.0
C406 C 0.19589 0.23703 0.87635 0.0
O407 O 0.20634 0.25033 0.86149 0.0
Cd408 Cd 0.22875 0.30461 0.86024 0.0
O409 O 0.19689 0.25213 0.89185 0.0
Cd410 Cd 0.21362 0.30486 0.90494 0.0
C411 C 0.1632 0.34796 0.87582 0.0
O412 O 0.26323 0.3116 0.88687 0.0
O413 O 0.2492 0.35143 0.90492 0.0
O414 O 0.23723 0.28023 0.93271 0.0
C415 C 0.2694 0.33951 0.89354 0.0
O416 O 0.18206 0.34029 0.86249 0.0
C417 C 0.2175 0.29286 0.94416 0.0
O418 O 0.16826 0.33751 0.89239 0.0
O419 O 0.19506 0.31043 0.93734 0.0
C420 C 0.50508 0.45597 0.62234 0.0
O421 O 0.49229 0.46564 0.60718 0.0
Cd422 Cd 0.4374 0.48603 0.60587 0.0
O423 O 0.48914 0.45693 0.63749 0.0
Cd424 Cd 0.4348 0.47219 0.64799 0.0
C425 C 0.39552 0.41898 0.61974 0.0
O426 O 0.42477 0.52341 0.63091 0.0
O427 O 0.38416 0.4997 0.6444 0.0
O428 O 0.45213 0.49811 0.67686 0.0
C429 C 0.39521 0.52439 0.63588 0.0
O430 O 0.40211 0.43841 0.6064 0.0
C431 C 0.44141 0.47588 0.68751 0.0
O432 O 0.40611 0.42439 0.63616 0.0
O433 O 0.42789 0.45166 0.67978 0.0
C434 C 0.29723 0.74274 0.38328 0.0
O435 O 0.28971 0.72857 0.36815 0.0
Cd436 Cd 0.26854 0.67459 0.36615 0.0
O437 O 0.2934 0.72829 0.3989 0.0
Cd438 Cd 0.27316 0.67382 0.40875 0.0
C439 C 0.33135 0.63292 0.38562 0.0
O440 O 0.22519 0.66927 0.38837 0.0
O441 O 0.24226 0.62525 0.40138 0.0
O442 O 0.25135 0.69839 0.43738 0.0
C443 C 0.22031 0.63957 0.39215 0.0
O444 O 0.31416 0.63738 0.37105 0.0
C445 C 0.26124 0.6756 0.44795 0.0
O446 O 0.32342 0.64604 0.40102 0.0
O447 O 0.27746 0.65306 0.44039 0.0
H448 H 0.47906 0.99227 0.27404 0.0
H449 H 0.37591 0.97537 0.27569 0.0
H450 H 0.37182 0.98682 0.24238 0.0
H451 H 0.39722 0.00121 0.21272 0.0
H452 H 0.50078 0.0135 0.20975 0.0
H453 H 0.50514 0.0044 0.24356 0.0
C454 C 0.45577 0.9911 0.26704 0.0
C455 C 0.42783 0.98304 0.2773 0.0
C456 C 0.45366 -0.00303 0.24768 0.0
C457 C 0.39781 0.98131 0.26808 0.0
C458 C 0.39539 0.98799 0.24904 0.0
C459 C 0.42073 0.00213 0.2195 0.0
C460 C 0.44859 0.00838 0.20886 0.0
C461 C 0.4231 -0.00416 0.23871 0.0
C462 C 0.47898 0.00883 0.21772 0.0
C463 C 0.48146 0.00362 0.23703 0.0
H464 H 0.20713 0.21595 0.52671 0.0
H465 H 0.31068 0.21378 0.5189 0.0
H466 H 0.30339 0.21676 0.48504 0.0
H467 H 0.26754 0.21538 0.45766 0.0
H468 H 0.164 0.21219 0.46543 0.0
H469 H 0.17122 0.21619 0.49927 0.0
C470 C 0.22807 0.21662 0.51758 0.0
C471 C 0.25938 0.21469 0.52523 0.0
C472 C 0.22366 0.21717 0.49812 0.0
C473 C 0.28633 0.21514 0.51328 0.0
C474 C 0.28218 0.21681 0.49394 0.0
C475 C 0.24657 0.21608 0.46676 0.0
C476 C 0.2153 0.21357 0.45911 0.0
C477 C 0.25095 0.21718 0.4862 0.0
C478 C 0.18832 0.21403 0.47104 0.0
C479 C 0.19244 0.21627 0.49037 0.0
H480 H 0.02293 0.0529 0.77085 0.0
H481 H 0.01593 0.95097 0.7845 0.0
H482 H 0.01483 0.93728 0.75128 0.0
H483 H 0.02035 0.9542 0.71838 0.0
H484 H 0.02336 0.0563 0.70468 0.0
H485 H 0.02121 0.07013 0.73786 0.0
C486 C 0.02076 0.02775 0.7665 0.0
C487 C 0.01987 0.00294 0.78002 0.0
C488 C 0.01959 0.02012 0.7474 0.0
C489 C 0.01663 0.97047 0.7743 0.0
C490 C 0.01617 0.96262 0.75532 0.0
C491 C 0.02014 0.97945 0.7227 0.0
C492 C 0.02238 0.00421 0.7092 0.0
C493 C 0.01832 0.98721 0.74176 0.0
C494 C 0.02164 0.03685 0.71487 0.0
C495 C 0.02058 0.04477 0.73383 0.0
H496 H 0.29334 0.77023 0.96419 0.0
H497 H 0.19095 0.76977 0.95219 0.0
H498 H 0.17887 0.76596 0.98557 0.0
H499 H 0.19755 0.76795 0.01825 0.0
H500 H 0.29988 0.76451 0.03022 0.0
H501 H 0.31196 0.76426 -0.00323 0.0
C502 C 0.26842 0.76884 0.96892 0.0
C503 C 0.24305 0.77067 0.95586 0.0
C504 C 0.26169 0.76611 0.98809 0.0
C505 C 0.21086 0.76839 0.96204 0.0
C506 C 0.20394 0.76639 0.98111 0.0
C507 C 0.22245 0.76665 0.01348 0.0
C508 C 0.24782 0.76662 0.02658 0.0
C509 C 0.22916 0.76601 -0.00573 0.0
C510 C 0.27997 0.76451 0.02034 0.0
C511 C 0.28689 0.76457 0.00123 0.0
H512 H 0.53645 0.94189 0.77254 0.0
H513 H 0.54574 0.04299 0.78741 0.0
H514 H 0.54564 0.05833 0.75437 0.0
H515 H 0.54453 0.0427 0.72117 0.0
H516 H 0.5313 0.94191 0.7065 0.0
H517 H 0.53117 0.92673 0.7395 0.0
C518 C 0.53836 0.96727 0.76851 0.0
C519 C 0.54137 0.99126 0.78231 0.0
C520 C 0.5376 0.97594 0.74954 0.0
C521 C 0.54337 0.0241 0.77698 0.0
C522 C 0.54341 0.03288 0.75811 0.0
C523 C 0.54151 0.01746 0.72525 0.0
C524 C 0.53817 0.99343 0.71148 0.0
C525 C 0.5408 0.00897 0.74426 0.0
C526 C 0.53386 0.96085 0.71689 0.0
C527 C 0.53388 0.95212 0.73574 0.0
H528 H 0.77169 0.79527 0.45755 0.0
H529 H 0.66841 0.79931 0.46628 0.0
H530 H 0.67663 0.79625 0.50009 0.0
H531 H 0.71322 0.79461 0.52714 0.0
H532 H 0.8166 0.79549 0.51858 0.0
H533 H 0.80839 0.79422 0.4847 0.0
C534 C 0.751 0.79524 0.46687 0.0
C535 C 0.71948 0.79738 0.45947 0.0
C536 C 0.75597 0.79438 0.48629 0.0
C537 C 0.69289 0.79776 0.47168 0.0
C538 C 0.69758 0.79596 0.49099 0.0
C539 C 0.73394 0.79415 0.51784 0.0
C540 C 0.76547 0.79488 0.5253 0.0
C541 C 0.72901 0.79453 0.49844 0.0
C542 C 0.79211 0.79488 0.51313 0.0
C543 C 0.78742 0.7942 0.49378 0.0
H544 H 0.9474 0.04197 0.25941 0.0
H545 H 0.95249 0.93949 0.27197 0.0
H546 H 0.95653 0.92705 0.23868 0.0
H547 H 0.95647 0.94529 0.20593 0.0
H548 H 0.95534 0.04792 0.19345 0.0
H549 H 0.9521 0.06042 0.22678 0.0
C550 C 0.94953 0.01695 0.25481 0.0
C551 C 0.94935 0.99165 0.26802 0.0
C552 C 0.95251 0.01005 0.2357 0.0
C553 C 0.9526 0.95936 0.262 0.0
C554 C 0.9548 0.95223 0.24299 0.0
C555 C 0.95566 0.97037 0.21056 0.0
C556 C 0.95584 -0.00435 0.19734 0.0
C557 C 0.95445 0.97736 0.22972 0.0
C558 C 0.95526 0.02807 0.20343 0.0
C559 C 0.95328 0.03522 0.22246 0.0
H560 H 0.79594 0.20535 0.958 0.0
H561 H 0.6954 0.22044 0.94395 0.0
H562 H 0.6809 0.21877 0.977 0.0
H563 H 0.69645 0.21011 0.00983 0.0
H564 H 0.79733 0.19858 0.02409 0.0
H565 H 0.81209 0.20186 0.99107 0.0
C566 C 0.77092 0.20855 0.96222 0.0
C567 C 0.74675 0.21275 0.9486 0.0
C568 C 0.7628 0.20801 0.98127 0.0
C569 C 0.71446 0.21723 0.95421 0.0
C570 C 0.70611 0.21611 0.97309 0.0
C571 C 0.72165 0.20847 0.00567 0.0
C572 C 0.74574 0.20377 0.01928 0.0
C573 C 0.73001 0.21104 0.98672 0.0
C574 C 0.77837 0.20218 0.01381 0.0
C575 C 0.78682 0.20397 -0.00505 0.0
H576 H 0.94641 0.46711 0.71022 0.0
H577 H 0.93644 0.57102 0.71562 0.0
H578 H 0.94399 0.56663 0.74943 0.0
H579 H 0.95047 0.5329 0.77763 0.0
H580 H 0.95499 0.4286 0.77248 0.0
H581 H 0.95285 0.43339 0.73841 0.0
C582 C 0.94618 0.4888 0.7188 0.0
C583 C 0.94098 0.51935 0.71047 0.0
C584 C 0.94954 0.48596 0.73827 0.0
C585 C 0.94031 0.54723 0.72175 0.0
C586 C 0.94467 0.54473 0.74106 0.0
C587 C 0.95146 0.51129 0.76901 0.0
C588 C 0.95315 0.48046 0.77748 0.0
C589 C 0.94893 0.51419 0.7495 0.0
C590 C 0.95376 0.45258 0.76622 0.0
C591 C 0.95247 0.45531 0.74677 0.0
H592 H 0.76182 0.65093 0.03256 0.0
H593 H 0.76795 0.75552 0.03332 0.0
H594 H 0.75555 0.75742 -0.00023 0.0
H595 H 0.74151 0.72888 0.97038 0.0
H596 H 0.73031 0.62458 0.97114 0.0
H597 H 0.74607 0.62293 0.00397 0.0
C598 C 0.76077 0.67413 0.02533 0.0
C599 C 0.76617 0.70302 0.03524 0.0
C600 C 0.75247 0.67502 0.00637 0.0
C601 C 0.76401 0.73297 0.02587 0.0
C602 C 0.75688 0.73403 0.00674 0.0
C603 C 0.74262 0.70587 0.97779 0.0
C604 C 0.73486 0.67688 0.96841 0.0
C605 C 0.75083 0.70518 -0.00313 0.0
C606 C 0.736 0.64721 0.97813 0.0
C607 C 0.74512 0.64622 -0.00313 0.0
H608 H 0.53008 0.53442 0.26689 0.0
H609 H 0.55 0.43425 0.28054 0.0
H610 H 0.54888 0.42006 0.24738 0.0
H611 H 0.54601 0.43708 0.2144 0.0
H612 H 0.52236 0.53651 0.20088 0.0
H613 H 0.5207 0.55005 0.23409 0.0
C614 C 0.5339 0.50947 0.26256 0.0
C615 C 0.54052 0.48546 0.27601 0.0
C616 C 0.53255 0.50141 0.24353 0.0
C617 C 0.54491 0.45311 0.27036 0.0
C618 C 0.54438 0.44502 0.25142 0.0
C619 C 0.5401 0.46159 0.21878 0.0
C620 C 0.53464 0.48584 0.20528 0.0
C621 C 0.53877 0.46908 0.23788 0.0
C622 C 0.52661 0.51743 0.21105 0.0
C623 C 0.52585 0.52523 0.23002 0.0
H624 H 0.77728 0.27592 0.53165 0.0
H625 H 0.67378 0.2686 0.52464 0.0
H626 H 0.68028 0.26679 0.4907 0.0
H627 H 0.7151 0.27161 0.46304 0.0
H628 H 0.81808 0.2846 0.47005 0.0
H629 H 0.81222 0.2798 0.50394 0.0
C630 C 0.75624 0.27339 0.52266 0.0
C631 C 0.72513 0.27221 0.53055 0.0
C632 C 0.7601 0.27372 0.50318 0.0
C633 C 0.69797 0.26954 0.51882 0.0
C634 C 0.70167 0.26858 0.49944 0.0
C635 C 0.73627 0.273 0.472 0.0
C636 C 0.76696 0.27841 0.46412 0.0
C637 C 0.73256 0.27131 0.49146 0.0
C638 C 0.79418 0.28057 0.47585 0.0
C639 C 0.79085 0.27781 0.4952 0.0
H640 H 0.03801 0.44317 0.26264 0.0
H641 H 0.04437 0.54455 0.27738 0.0
H642 H 0.04408 0.55978 0.24436 0.0
H643 H 0.04387 0.54411 0.21119 0.0
H644 H 0.03347 0.44302 0.1965 0.0
H645 H 0.03325 0.42784 0.22952 0.0
C646 C 0.03922 0.46857 0.25857 0.0
C647 C 0.04148 0.49268 0.27236 0.0
C648 C 0.03831 0.4772 0.23957 0.0
C649 C 0.04258 0.52555 0.26698 0.0
C650 C 0.04251 0.53428 0.24811 0.0
C651 C 0.04139 0.5188 0.21526 0.0
C652 C 0.03893 0.49471 0.20147 0.0
C653 C 0.04066 0.5103 0.23428 0.0
C654 C 0.03533 0.46203 0.20689 0.0
C655 C 0.03534 0.4533 0.22576 0.0
H656 H 0.21595 0.289 0.03222 0.0
H657 H 0.31863 0.27773 0.02336 0.0
H658 H 0.3099 0.27594 0.98955 0.0
H659 H 0.27339 0.28054 0.96255 0.0
H660 H 0.17144 0.2973 0.97131 0.0
H661 H 0.17943 0.29387 0.00517 0.0
C662 C 0.23634 0.28576 0.02287 0.0
C663 C 0.26786 0.28327 0.03021 0.0
C664 C 0.23124 0.28593 0.00347 0.0
C665 C 0.29416 0.27968 0.01799 0.0
C666 C 0.28918 0.27868 -0.00131 0.0
C667 C 0.25288 0.28308 0.97188 0.0
C668 C 0.22184 0.28896 0.96451 0.0
C669 C 0.25787 0.28219 0.99128 0.0
C670 C 0.19555 0.29276 0.97672 0.0
C671 C 0.20012 0.29081 -0.00396 0.0
H672 H 0.44354 0.46505 0.77524 0.0
H673 H 0.43634 0.56926 0.77005 0.0
H674 H 0.44007 0.56493 0.736 0.0
H675 H 0.44267 0.5312 0.70775 0.0
H676 H 0.44411 0.42673 0.71296 0.0
H677 H 0.44542 0.43133 0.74703 0.0
C678 C 0.44317 0.4868 0.76663 0.0
C679 C 0.43993 0.51743 0.77503 0.0
C680 C 0.4441 0.484 0.74713 0.0
C681 C 0.43885 0.54544 0.7638 0.0
C682 C 0.44096 0.54296 0.74438 0.0
C683 C 0.44357 0.50949 0.71638 0.0
C684 C 0.44347 0.47868 0.70797 0.0
C685 C 0.4432 0.51234 0.7359 0.0
C686 C 0.44411 0.45068 0.71921 0.0
C687 C 0.44489 0.45331 0.73865 0.0
H688 H 0.22274 0.64438 0.53114 0.0
H689 H 0.22342 0.74894 0.53469 0.0
H690 H 0.23707 0.75286 0.50143 0.0
H691 H 0.24945 0.72616 0.4714 0.0
H692 H 0.25397 0.62147 0.4691 0.0
H693 H 0.23783 0.61787 0.50182 0.0
C694 C 0.22567 0.66799 0.52456 0.0
C695 C 0.22173 0.69633 0.53515 0.0
C696 C 0.23465 0.66997 0.50572 0.0
C697 C 0.22625 0.72682 0.52668 0.0
C698 C 0.23405 0.72905 0.50771 0.0
C699 C 0.24689 0.70263 0.47812 0.0
C700 C 0.25275 0.67413 0.46791 0.0
C701 C 0.23844 0.70076 0.49711 0.0
C702 C 0.24974 0.64375 0.47675 0.0
C703 C 0.24039 0.64165 0.49542 0.0
H704 H 0.37541 0.90956 0.1508 0.0
H705 H 0.40705 0.9457 0.09729 0.0
H706 H 0.37213 0.90624 0.08141 0.0
H707 H 0.32922 0.86448 0.08297 0.0
H708 H 0.30059 0.82591 0.13655 0.0
H709 H 0.33799 0.863 0.15226 0.0
C710 C 0.37496 0.90835 0.13567 0.0
C711 C 0.39343 0.93046 0.12517 0.0
C712 C 0.35528 0.88535 0.1267 0.0
C713 C 0.39306 0.9287 0.1056 0.0
C714 C 0.37296 0.90633 0.09654 0.0
C715 C 0.33149 0.86404 0.09807 0.0
C716 C 0.31198 0.84289 0.10864 0.0
C717 C 0.35345 0.88502 0.10697 0.0
C718 C 0.31538 0.84206 0.12815 0.0
C719 C 0.33664 0.86333 0.13713 0.0
H720 H 0.31683 0.14942 0.38003 0.0
H721 H 0.23912 0.08019 0.38687 0.0
H722 H 0.27321 0.03704 0.37448 0.0
H723 H 0.32472 0.01893 0.36153 0.0
H724 H 0.40463 0.08598 0.35709 0.0
H725 H 0.37023 0.13014 0.36875 0.0
C726 C 0.30754 0.12484 0.3788 0.0
C727 C 0.27558 0.11793 0.38426 0.0
C728 C 0.3276 0.09987 0.3721 0.0
C729 C 0.26374 0.086 0.38284 0.0
C730 C 0.28315 0.06135 0.3757 0.0
C731 C 0.33454 0.04326 0.36306 0.0
C732 C 0.36689 0.04947 0.35828 0.0
C733 C 0.31502 0.06802 0.37025 0.0
C734 C 0.37966 0.08083 0.36067 0.0
C735 C 0.36002 0.10599 0.3673 0.0
H736 H 0.14974 0.03018 0.63112 0.0
H737 H 0.06944 0.09693 0.62902 0.0
H738 H 0.10498 0.13952 0.61644 0.0
H739 H 0.15915 0.15731 0.60566 0.0
H740 H 0.23749 0.08805 0.60485 0.0
H741 H 0.20259 0.04681 0.61891 0.0
C742 C 0.14014 0.05414 0.62801 0.0
C743 C 0.10728 0.06073 0.63115 0.0
C744 C 0.16035 0.07792 0.62018 0.0
C745 C 0.0948 0.09153 0.62673 0.0
C746 C 0.11507 0.1158 0.61956 0.0
C747 C 0.16841 0.13316 0.6086 0.0
C748 C 0.20072 0.12562 0.60432 0.0
C749 C 0.1479 0.10923 0.61617 0.0
C750 C 0.21257 0.09424 0.60794 0.0
C751 C 0.1927 0.07071 0.61604 0.0
H752 H 0.11671 0.92546 0.83544 0.0
H753 H 0.08085 0.95195 0.88982 0.0
H754 H 0.11782 0.91301 0.90455 0.0
H755 H 0.1624 0.87342 0.90192 0.0
H756 H 0.19494 0.84381 0.84736 0.0
H757 H 0.15712 0.88183 0.83266 0.0
C758 C 0.1169 0.92244 0.8505 0.0
C759 C 0.09647 0.94159 0.86159 0.0
C760 C 0.13765 0.89959 0.85879 0.0
C761 C 0.09643 0.93732 0.88105 0.0
C762 C 0.11762 0.91521 0.88946 0.0
C763 C 0.16097 0.87523 0.88682 0.0
C764 C 0.18151 0.85624 0.8757 0.0
C765 C 0.13865 0.89655 0.87848 0.0
C766 C 0.17926 0.85827 0.85616 0.0
C767 C 0.15777 0.88005 0.84776 0.0
H768 H 0.71856 0.09095 0.87832 0.0
H769 H 0.65251 0.17035 0.86845 0.0
H770 H 0.60873 0.13156 0.86198 0.0
H771 H 0.58978 0.07463 0.8586 0.0
H772 H 0.65797 -0.0037 0.86619 0.0
H773 H 0.70041 0.0351 0.87432 0.0
C774 C 0.69456 0.09982 0.87481 0.0
C775 C 0.68866 0.13339 0.87393 0.0
C776 C 0.66993 0.07753 0.8708 0.0
C777 C 0.65758 0.14454 0.86915 0.0
C778 C 0.63258 0.1224 0.86552 0.0
C779 C 0.61389 0.06623 0.86223 0.0
C780 C 0.62085 0.0328 0.86196 0.0
C781 C 0.63851 0.0888 0.86628 0.0
C782 C 0.6522 0.02199 0.86633 0.0
C783 C 0.67643 0.04412 0.87095 0.0
H784 H 0.64785 0.97288 0.62626 0.0
H785 H 0.57215 0.90087 0.62961 0.0
H786 H 0.60879 0.85982 0.61655 0.0
H787 H 0.66311 0.84456 0.60488 0.0
H788 H 0.73678 0.91856 0.59964 0.0
H789 H 0.7001 0.95887 0.61268 0.0
C790 C 0.63942 0.94816 0.62416 0.0
C791 C 0.60768 0.9396 0.62907 0.0
C792 C 0.66021 0.92519 0.61628 0.0
C793 C 0.59666 0.9078 0.62594 0.0
C794 C 0.61757 0.88441 0.61852 0.0
C795 C 0.67096 0.86955 0.60656 0.0
C796 C 0.70256 0.8786 0.60145 0.0
C797 C 0.64949 0.89282 0.61375 0.0
C798 C 0.71249 0.91108 0.60344 0.0
C799 C 0.69161 0.93411 0.61096 0.0
H800 H 0.81709 0.84193 0.37682 0.0
H801 H 0.73948 0.91201 0.37451 0.0
H802 H 0.77536 0.95152 0.35972 0.0
H803 H 0.82869 0.96643 0.34778 0.0
H804 H 0.90814 0.89897 0.35246 0.0
H805 H 0.87176 0.85803 0.36601 0.0
C806 C 0.80818 0.86586 0.37302 0.0
C807 C 0.7758 0.87412 0.37664 0.0
C808 C 0.82922 0.88882 0.36498 0.0
C809 C 0.76443 0.90524 0.37191 0.0
C810 C 0.78486 0.92779 0.36341 0.0
C811 C 0.83797 0.94268 0.35167 0.0
C812 C 0.87082 0.93545 0.349 0.0
C813 C 0.81726 0.91986 0.35992 0.0
C814 C 0.88281 0.90491 0.35441 0.0
C815 C 0.86206 0.88157 0.36212 0.0
H816 H 0.83032 0.14771 0.0975 0.0
H817 H 0.75281 0.0773 0.09814 0.0
H818 H 0.79051 0.03494 0.10802 0.0
H819 H 0.8452 0.01787 0.11641 0.0
H820 H 0.92416 0.08638 0.11359 0.0
H821 H 0.88633 0.1296 0.10444 0.0
C822 C 0.82182 0.12309 0.0999 0.0
C823 C 0.78892 0.11556 0.09727 0.0
C824 C 0.84385 0.09859 0.10506 0.0
C825 C 0.77809 0.08356 0.10009 0.0
C826 C 0.79959 0.05937 0.10574 0.0
C827 C 0.85414 0.04228 0.11379 0.0
C828 C 0.88727 0.0491 0.11579 0.0
C829 C 0.83247 0.06661 0.10823 0.0
C830 C 0.89868 0.08064 0.11209 0.0
C831 C 0.87707 0.10532 0.10695 0.0
H832 H 0.76119 0.39729 0.60625 0.0
H833 H 0.82794 0.31751 0.61258 0.0
H834 H 0.86947 0.35488 0.62451 0.0
H835 H 0.88633 0.41064 0.6334 0.0
H836 H 0.81682 0.48865 0.62972 0.0
H837 H 0.77675 0.45166 0.61649 0.0
C838 C 0.78492 0.38815 0.61014 0.0
C839 C 0.79179 0.35491 0.60837 0.0
C840 C 0.80806 0.40946 0.61752 0.0
C841 C 0.82229 0.34313 0.61381 0.0
C842 C 0.84596 0.36445 0.6206 0.0
C843 C 0.86239 0.41937 0.62966 0.0
C844 C 0.85446 0.45221 0.63244 0.0
C845 C 0.83908 0.3977 0.62256 0.0
C846 C 0.82333 0.46337 0.62778 0.0
C847 C 0.80046 0.44229 0.62017 0.0
H848 H 0.83647 0.52234 0.85217 0.0
H849 H 0.91582 0.58884 0.8609 0.0
H850 H 0.87841 0.62886 0.87424 0.0
H851 H 0.82298 0.64379 0.88453 0.0
H852 H 0.74564 0.57406 0.87825 0.0
H853 H 0.78233 0.53644 0.86275 0.0
C854 C 0.84556 0.54572 0.85682 0.0
C855 C 0.87873 0.55282 0.85545 0.0
C856 C 0.82424 0.56792 0.86498 0.0
C857 C 0.89029 0.58294 0.86183 0.0
C858 C 0.86894 0.60576 0.86944 0.0
C859 C 0.81431 0.62042 0.87963 0.0
C860 C 0.7818 0.6116 0.88246 0.0
C861 C 0.83586 0.59838 0.87125 0.0
C862 C 0.77069 0.58119 0.87629 0.0
C863 C 0.79159 0.55972 0.86741 0.0
H864 H 0.67345 0.62878 0.08909 0.0
H865 H 0.70107 0.65746 0.14473 0.0
H866 H 0.66215 0.61871 0.15798 0.0
H867 H 0.62456 0.57263 0.15347 0.0
H868 H 0.59473 0.54652 0.09773 0.0
H869 H 0.6301 0.58854 0.08466 0.0
C870 C 0.67041 0.62691 0.10411 0.0
C871 C 0.69008 0.64552 0.11598 0.0
C872 C 0.64792 0.60489 0.11153 0.0
C873 C 0.68595 0.64335 0.13539 0.0
C874 C 0.66395 0.62105 0.14293 0.0
C875 C 0.6256 0.57651 0.13848 0.0
C876 C 0.6076 0.55638 0.12651 0.0
C877 C 0.64551 0.60105 0.13112 0.0
C878 C 0.60853 0.56178 0.10716 0.0
C879 C 0.62879 0.58567 0.0997 0.0
H880 H 0.72351 0.39828 0.38531 0.0
H881 H 0.66106 0.31451 0.38162 0.0
H882 H 0.61734 0.34859 0.36906 0.0
H883 H 0.59747 0.40247 0.35854 0.0
H884 H 0.66265 0.48444 0.35945 0.0
H885 H 0.70477 0.45094 0.37373 0.0
C886 C 0.70023 0.38756 0.38187 0.0
C887 C 0.69524 0.35412 0.38452 0.0
C888 C 0.67581 0.407 0.37411 0.0
C889 C 0.66529 0.34029 0.37968 0.0
C890 C 0.64036 0.35974 0.37253 0.0
C891 C 0.62089 0.41285 0.36196 0.0
C892 C 0.62706 0.44576 0.35807 0.0
C893 C 0.6454 0.39314 0.36961 0.0
C894 C 0.65753 0.45906 0.36228 0.0
C895 C 0.68156 0.43998 0.37047 0.0
H896 H 0.09535 0.57829 0.35502 0.0
H897 H 0.15626 0.49319 0.35737 0.0
H898 H 0.19888 0.52434 0.37264 0.0
H899 H 0.21932 0.57557 0.3848 0.0
H900 H 0.1614 0.66243 0.38044 0.0
H901 H 0.11708 0.63094 0.36643 0.0
C902 C 0.11796 0.56673 0.35896 0.0
C903 C 0.12275 0.5336 0.35514 0.0
C904 C 0.14284 0.58506 0.3673 0.0
C905 C 0.15218 0.51876 0.36008 0.0
C906 C 0.17652 0.5365 0.36885 0.0
C907 C 0.19693 0.5876 0.38087 0.0
C908 C 0.19342 0.62112 0.38374 0.0
C909 C 0.17216 0.56963 0.37244 0.0
C910 C 0.16454 0.63655 0.37833 0.0
C911 C 0.13925 0.61858 0.37036 0.0
H912 H 0.17007 0.33943 0.10614 0.0
H913 H 0.24801 0.40941 0.10556 0.0
H914 H 0.21078 0.45222 0.11504 0.0
H915 H 0.15643 0.46979 0.12359 0.0
H916 H 0.07703 0.40169 0.12204 0.0
H917 H 0.11437 0.35801 0.11317 0.0
C918 C 0.17876 0.36407 0.10814 0.0
C919 C 0.21165 0.37132 0.10529 0.0
C920 C 0.15702 0.38881 0.11314 0.0
C921 C 0.22273 0.40334 0.10764 0.0
C922 C 0.2015 0.4278 0.11309 0.0
C923 C 0.14732 0.44536 0.12134 0.0
C924 C 0.11422 0.43875 0.1236 0.0
C925 C 0.16867 0.4208 0.11589 0.0
C926 C 0.10252 0.40721 0.12035 0.0
C927 C 0.12384 0.3823 0.11535 0.0
H928 H 0.38129 0.43983 0.87942 0.0
H929 H 0.34841 0.42736 0.82273 0.0
H930 H 0.31187 0.3837 0.83265 0.0
H931 H 0.28585 0.35257 0.85794 0.0
H932 H 0.31327 0.37077 0.91504 0.0
H933 H 0.35564 0.40842 0.90464 0.0
C934 C 0.36644 0.42712 0.86926 0.0
C935 C 0.36747 0.43642 0.85042 0.0
C936 C 0.34448 0.40322 0.87521 0.0
C937 C 0.34782 0.42042 0.83733 0.0
C938 C 0.32698 0.39554 0.843 0.0
C939 C 0.3016 0.3644 0.868 0.0
C940 C 0.29701 0.3589 0.88714 0.0
C941 C 0.32463 0.3872 0.86195 0.0
C942 C 0.31676 0.37475 0.90021 0.0
C943 C 0.34082 0.39626 0.89428 0.0
H944 H 0.33041 0.52566 0.63928 0.0
H945 H 0.41145 0.5844 0.6216 0.0
H946 H 0.37435 0.62875 0.61325 0.0
H947 H 0.31809 0.64965 0.60973 0.0
H948 H 0.23814 0.58795 0.62558 0.0
H949 H 0.27563 0.54603 0.63617 0.0
C950 C 0.34009 0.54821 0.63369 0.0
C951 C 0.37359 0.55175 0.63104 0.0
C952 C 0.31875 0.5731 0.62866 0.0
C953 C 0.38568 0.58107 0.62369 0.0
C954 C 0.3645 0.60642 0.61896 0.0
C955 C 0.30912 0.62716 0.61575 0.0
C956 C 0.27558 0.62175 0.61698 0.0
C957 C 0.3309 0.60259 0.62124 0.0
C958 C 0.26394 0.59245 0.6245 0.0
C959 C 0.28531 0.5685 0.63052 0.0
H960 H 0.36052 0.10509 0.14808 0.0
H961 H 0.36804 0.09163 0.08842 0.0
H962 H 0.33608 0.14047 0.08308 0.0
H963 H 0.30938 0.18908 0.09516 0.0
H964 H 0.30145 0.2029 0.15473 0.0
H965 H 0.32975 0.15167 0.16022 0.0
C966 C 0.35498 0.1127 0.13391 0.0
C967 C 0.36702 0.09483 0.1187 0.0
C968 C 0.33652 0.14093 0.13088 0.0
C969 C 0.35926 0.10491 0.10043 0.0
C970 C 0.341 0.13292 0.09732 0.0
C971 C 0.31352 0.18077 0.10935 0.0
C972 C 0.30357 0.20002 0.12449 0.0
C973 C 0.33 0.15142 0.11243 0.0
C974 C 0.30888 0.18864 0.14279 0.0
C975 C 0.32522 0.15939 0.14596 0.0
H976 H 0.12912 0.10816 0.34798 0.0
H977 H 0.10858 0.12931 0.40582 0.0
H978 H 0.06054 0.09481 0.4045 0.0
H979 H 0.02332 0.06033 0.38667 0.0
H980 H 0.04265 0.04093 0.32852 0.0
H981 H 0.09253 0.07277 0.33033 0.0
C982 C 0.11421 0.1052 0.36033 0.0
C983 C 0.12242 0.12145 0.37694 0.0
C984 C 0.08649 0.08553 0.35945 0.0
C985 C 0.10277 0.11728 0.3928 0.0
C986 C 0.07532 0.09747 0.39209 0.0
C987 C 0.03865 0.0627 0.37445 0.0
C988 C 0.02932 0.04825 0.35749 0.0
C989 C 0.06686 0.08165 0.37546 0.0
C990 C 0.04928 0.05186 0.34173 0.0
C991 C 0.07774 0.07013 0.34274 0.0
H992 H 0.12146 0.89328 0.60395 0.0
H993 H 0.11001 0.89032 0.66388 0.0
H994 H 0.13964 0.83903 0.66522 0.0
H995 H 0.1664 0.79364 0.64923 0.0
H996 H 0.1756 0.79565 0.58918 0.0
H997 H 0.14945 0.84878 0.58809 0.0
C998 C 0.12564 0.88158 0.61734 0.0
C999 C 0.11342 0.89563 0.63377 0.0
C1000 C 0.14224 0.85184 0.618 0.0
C1001 C 0.11898 0.88 0.65098 0.0
C1002 C 0.13595 0.85065 0.65178 0.0
C1003 C 0.163 0.80585 0.63593 0.0
C1004 C 0.1729 0.79065 0.61932 0.0
C1005 C 0.14735 0.83615 0.63535 0.0
C1006 C 0.16807 0.80672 0.60217 0.0
C1007 C 0.15311 0.83711 0.60153 0.0
H1008 H 0.44717 0.92413 0.89667 0.0
H1009 H 0.43819 0.94673 0.83795 0.0
H1010 H 0.38546 0.92002 0.83702 0.0
H1011 H 0.34402 0.88673 0.85217 0.0
H1012 H 0.3536 0.86207 0.91059 0.0
H1013 H 0.4039 0.89324 0.91233 0.0
C1014 C 0.43346 0.92365 0.88374 0.0
C1015 C 0.44671 0.93728 0.86739 0.0
C1016 C 0.4034 0.9076 0.88319 0.0
C1017 C 0.42867 0.93627 0.85072 0.0
C1018 C 0.39852 0.92093 0.85016 0.0
C1019 C 0.35691 0.88832 0.86535 0.0
C1020 C 0.3451 0.8718 0.88118 0.0
C1021 C 0.386 0.90591 0.8662 0.0
C1022 C 0.36217 0.87434 0.89814 0.0
C1023 C 0.39097 0.89217 0.89915 0.0
H1024 H 0.31478 0.77665 0.35238 0.0
H1025 H 0.31206 0.78308 0.41255 0.0
H1026 H 0.33751 0.83674 0.41109 0.0
H1027 H 0.36209 0.88111 0.39268 0.0
H1028 H 0.36585 0.87313 0.33257 0.0
H1029 H 0.33833 0.82082 0.33412 0.0
C1030 C 0.31956 0.78979 0.36521 0.0
C1031 C 0.31152 0.77578 0.38255 0.0
C1032 C 0.33448 0.82037 0.36429 0.0
C1033 C 0.31805 0.79321 0.399 0.0
C1034 C 0.33261 0.82392 0.39818 0.0
C1035 C 0.3567 0.86802 0.37992 0.0
C1036 C 0.36611 0.88106 0.36254 0.0
C1037 C 0.34115 0.83763 0.3809 0.0
C1038 C 0.35907 0.86366 0.34615 0.0
C1039 C 0.34329 0.83371 0.347 0.0
H1040 H 0.35149 0.11641 0.63686 0.0
H1041 H 0.36494 0.13162 0.57764 0.0
H1042 H 0.41208 0.09599 0.57809 0.0
H1043 H 0.45051 0.06203 0.5954 0.0
H1044 H 0.43865 0.0486 0.65482 0.0
H1045 H 0.38956 0.08172 0.65411 0.0
C1046 C 0.36468 0.11191 0.62403 0.0
C1047 C 0.35472 0.1268 0.60726 0.0
C1048 C 0.39195 0.09159 0.6244 0.0
C1049 C 0.37215 0.12068 0.59078 0.0
C1050 C 0.39907 0.1002 0.591 0.0
C1051 C 0.43696 0.06598 0.60816 0.0
C1052 C 0.44815 0.0528 0.62512 0.0
C1053 C 0.40927 0.08567 0.60774 0.0
C1054 C 0.43054 0.0585 0.64157 0.0
C1055 C 0.40253 0.0775 0.64119 0.0
H1056 H 0.12285 0.10432 0.88817 0.0
H1057 H 0.11048 0.11328 0.82847 0.0
H1058 H 0.14358 0.16258 0.82845 0.0
H1059 H 0.17343 0.20483 0.84571 0.0
H1060 H 0.1836 0.19638 0.90557 0.0
H1061 H 0.15414 0.14502 0.90513 0.0
C1062 C 0.12752 0.11686 0.8751 0.0
C1063 C 0.11401 0.10514 0.85837 0.0
C1064 C 0.14615 0.14536 0.87522 0.0
C1065 C 0.12042 0.1218 0.84158 0.0
C1066 C 0.13935 0.15001 0.84156 0.0
C1067 C 0.16953 0.19155 0.85862 0.0
C1068 C 0.18061 0.20451 0.87565 0.0
C1069 C 0.15198 0.16226 0.85833 0.0
C1070 C 0.17517 0.18709 0.89228 0.0
C1071 C 0.1583 0.1577 0.89206 0.0
H1072 H 0.15081 0.88124 0.13067 0.0
H1073 H 0.1437 0.86059 0.07169 0.0
H1074 H 0.09613 0.89556 0.06929 0.0
H1075 H 0.05436 0.92891 0.08435 0.0
H1076 H 0.06053 0.94766 0.14356 0.0
H1077 H 0.11088 0.91682 0.14535 0.0
C1078 C 0.13906 0.88453 0.11723 0.0
C1079 C 0.15075 0.86806 0.10142 0.0
C1080 C 0.11148 0.90435 0.11598 0.0
C1081 C 0.13517 0.87278 0.08413 0.0
C1082 C 0.10793 0.8928 0.08273 0.0
C1083 C 0.06697 0.92668 0.0976 0.0
C1084 C 0.05359 0.94048 0.11381 0.0
C1085 C 0.09558 0.90829 0.09862 0.0
C1086 C 0.07018 0.93716 0.13088 0.0
C1087 C 0.09895 0.91946 0.13193 0.0
H1088 H 0.66194 0.7712 0.85267 0.0
H1089 H 0.67267 0.78127 0.91238 0.0
H1090 H 0.64262 0.83239 0.91135 0.0
H1091 H 0.61234 0.87355 0.89361 0.0
H1092 H 0.6006 0.86252 0.83399 0.0
H1093 H 0.63189 0.8123 0.83496 0.0
C1094 C 0.65798 0.78468 0.86546 0.0
C1095 C 0.66966 0.77243 0.88257 0.0
C1096 C 0.64026 0.81375 0.86482 0.0
C1097 C 0.66398 0.79012 0.89901 0.0
C1098 C 0.64673 0.81933 0.89845 0.0
C1099 C 0.61657 0.86018 0.88081 0.0
C1100 C 0.60403 0.87185 0.86376 0.0
C1101 C 0.63454 0.83123 0.88145 0.0
C1102 C 0.60982 0.85413 0.84733 0.0
C1103 C 0.6278 0.82541 0.84785 0.0
H1104 H 0.94413 0.93433 0.64299 0.0
H1105 H 0.96312 0.94207 0.58382 0.0
H1106 H 0.91515 0.90952 0.57711 0.0
H1107 H 0.86861 0.87751 0.588 0.0
H1108 H 0.84925 0.87047 0.64712 0.0
H1109 H 0.89664 0.90392 0.65382 0.0
C1110 C 0.93769 0.92913 0.62861 0.0
C1111 C 0.95734 0.9406 0.61397 0.0
C1112 C 0.91012 0.91025 0.62481 0.0
C1113 C 0.9485 0.9336 0.59541 0.0
C1114 C 0.9211 0.91485 0.59153 0.0
C1115 C 0.87482 0.88319 0.60235 0.0
C1116 C 0.85551 0.87131 0.61702 0.0
C1117 C 0.90194 0.90275 0.60612 0.0
C1118 C 0.86369 0.87926 0.63554 0.0
C1119 C 0.8908 0.89842 0.6394 0.0
H1120 H 0.81736 0.20262 0.34284 0.0
H1121 H 0.80971 0.18846 0.40247 0.0
H1122 H 0.83704 0.13616 0.39985 0.0
H1123 H 0.86484 0.09546 0.38092 0.0
H1124 H 0.87397 0.11 0.32139 0.0
H1125 H 0.84426 0.16113 0.32374 0.0
C1126 C 0.82144 0.18799 0.35525 0.0
C1127 C 0.81153 0.19953 0.37283 0.0
C1128 C 0.83757 0.15808 0.3537 0.0
C1129 C 0.81717 0.18028 0.38877 0.0
C1130 C 0.83282 0.15034 0.3873 0.0
C1131 C 0.86024 0.10968 0.36842 0.0
C1132 C 0.87175 0.09888 0.35102 0.0
C1133 C 0.84342 0.13917 0.36987 0.0
C1134 C 0.86553 0.11774 0.33499 0.0
C1135 C 0.84851 0.147 0.33631 0.0
H1136 H 0.63042 0.12513 0.13042 0.0
H1137 H 0.61964 0.13436 0.07062 0.0
H1138 H 0.56986 0.10235 0.07183 0.0
H1139 H 0.52955 0.07153 0.0898 0.0
H1140 H 0.53978 0.06332 0.14967 0.0
H1141 H 0.58974 0.09505 0.14843 0.0
C1142 C 0.6172 0.12021 0.11763 0.0
C1143 C 0.62886 0.13215 0.10045 0.0
C1144 C 0.58855 0.10185 0.11841 0.0
C1145 C 0.61126 0.12558 0.08405 0.0
C1146 C 0.5828 0.10719 0.08471 0.0
C1147 C 0.54276 0.07653 0.10258 0.0
C1148 C 0.53096 0.06491 0.1198 0.0
C1149 C 0.57129 0.09511 0.10181 0.0
C1150 C 0.54827 0.07194 0.13623 0.0
C1151 C 0.57686 0.0901 0.13554 0.0
H1152 H 0.66897 0.18968 0.59752 0.0
H1153 H 0.67487 0.20779 0.65681 0.0
H1154 H 0.64391 0.15837 0.66305 0.0
H1155 H 0.61338 0.111 0.65161 0.0
H1156 H 0.60783 0.0933 0.59224 0.0
H1157 H 0.64034 0.14157 0.58619 0.0
C1158 C 0.6637 0.18277 0.61183 0.0
C1159 C 0.67417 0.20257 0.62664 0.0
C1160 C 0.64572 0.15445 0.61533 0.0
C1161 C 0.66714 0.19308 0.6451 0.0
C1162 C 0.64932 0.16484 0.6487 0.0
C1163 C 0.61928 0.11769 0.63735 0.0
C1164 C 0.60796 0.09857 0.62243 0.0
C1165 C 0.63815 0.14553 0.63391 0.0
C1166 C 0.61611 0.10752 0.60403 0.0
C1167 C 0.63474 0.13517 0.60052 0.0
H1168 H 0.52817 0.91932 0.34191 0.0
H1169 H 0.52012 0.94024 0.40083 0.0
H1170 H 0.56904 0.90907 0.40706 0.0
H1171 H 0.61332 0.87454 0.39606 0.0
H1172 H 0.62233 0.85433 0.33718 0.0
H1173 H 0.57382 0.88639 0.33074 0.0
C1174 C 0.53724 0.9173 0.35609 0.0
C1175 C 0.52032 0.93205 0.37085 0.0
C1176 C 0.56545 0.8992 0.35965 0.0
C1177 C 0.53254 0.92915 0.38915 0.0
C1178 C 0.56051 0.91121 0.39278 0.0
C1179 C 0.6046 0.87702 0.38183 0.0
C1180 C 0.62129 0.86185 0.36716 0.0
C1181 C 0.57694 0.89582 0.37818 0.0
C1182 C 0.60991 0.86571 0.34875 0.0
C1183 C 0.58217 0.88407 0.34504 0.0
H1184 H 0.82949 0.79143 0.09528 0.0
H1185 H 0.82252 0.7879 0.15545 0.0
H1186 H 0.8555 0.83697 0.15778 0.0
H1187 H 0.88699 0.88038 0.14282 0.0
H1188 H 0.89337 0.88429 0.08265 0.0
H1189 H 0.86001 0.83546 0.0803 0.0
C1190 C 0.83506 0.8014 0.10892 0.0
C1191 C 0.82355 0.78587 0.12515 0.0
C1192 C 0.85408 0.82962 0.11019 0.0
C1193 C 0.831 0.79929 0.1427 0.0
C1194 C 0.84994 0.82734 0.14406 0.0
C1195 C 0.88119 0.87052 0.12918 0.0
C1196 C 0.89283 0.88593 0.11295 0.0
C1197 C 0.86178 0.84258 0.12791 0.0
C1198 C 0.88478 0.87295 0.09539 0.0
C1199 C 0.86569 0.84501 0.09402 0.0
H1200 H 0.94066 0.07091 0.84238 0.0
H1201 H 0.95438 0.0703 0.90221 0.0
H1202 H 0.90563 0.10299 0.90612 0.0
H1203 H 0.85991 0.13307 0.89256 0.0
H1204 H 0.84602 0.13319 0.83275 0.0
H1205 H 0.89409 0.09948 0.82891 0.0
C1206 C 0.93294 0.07774 0.8563 0.0
C1207 C 0.9513 0.0682 0.87195 0.0
C1208 C 0.90493 0.09667 0.85848 0.0
C1209 C 0.94078 0.07726 0.88988 0.0
C1210 C 0.91292 0.09607 0.89215 0.0
C1211 C 0.86742 0.12578 0.87868 0.0
C1212 C 0.84945 0.13584 0.86298 0.0
C1213 C 0.89499 0.10618 0.87654 0.0
C1214 C 0.85938 0.12587 0.8451 0.0
C1215 C 0.88688 0.10656 0.84287 0.0
H1216 H 0.80957 0.70188 0.59193 0.0
H1217 H 0.79289 0.71549 0.65093 0.0
H1218 H 0.82098 0.66473 0.65777 0.0
H1219 H 0.85247 0.61771 0.64717 0.0
H1220 H 0.86814 0.60347 0.58815 0.0
H1221 H 0.8383 0.65325 0.58121 0.0
C1222 C 0.81184 0.69365 0.60628 0.0
C1223 C 0.7993 0.71264 0.62087 0.0
C1224 C 0.82808 0.66442 0.61015 0.0
C1225 C 0.8023 0.70142 0.63939 0.0
C1226 C 0.8185 0.67243 0.64334 0.0
C1227 C 0.84936 0.62551 0.63279 0.0
C1228 C 0.86277 0.60706 0.61823 0.0
C1229 C 0.8319 0.65399 0.62886 0.0
C1230 C 0.85812 0.61724 0.59964 0.0
C1231 C 0.84107 0.64573 0.59564 0.0
H1232 H 0.62388 0.6063 0.85669 0.0
H1233 H 0.61051 0.61729 0.91615 0.0
H1234 H 0.5602 0.58618 0.91446 0.0
H1235 H 0.51892 0.55772 0.89589 0.0
H1236 H 0.53182 0.54837 0.8363 0.0
H1237 H 0.58358 0.57673 0.83833 0.0
C1238 C 0.61007 0.60184 0.86931 0.0
C1239 C 0.62094 0.61428 0.8865 0.0
C1240 C 0.58108 0.58416 0.86824 0.0
C1241 C 0.60267 0.60817 0.90271 0.0
C1242 C 0.5739 0.59032 0.90177 0.0
C1243 C 0.53322 0.56156 0.88338 0.0
C1244 C 0.52147 0.55098 0.86597 0.0
C1245 C 0.56274 0.57842 0.88458 0.0
C1246 C 0.54022 0.55638 0.84987 0.0
C1247 C 0.56981 0.57264 0.85101 0.0
H1248 H 0.64345 0.39301 0.09678 0.0
H1249 H 0.62636 0.37946 0.15579 0.0
H1250 H 0.65763 0.3291 0.15525 0.0
H1251 H 0.68599 0.28674 0.13749 0.0
H1252 H 0.70092 0.29958 0.07824 0.0
H1253 H 0.67458 0.35256 0.0795 0.0
C1254 C 0.64678 0.37928 0.10959 0.0
C1255 C 0.63229 0.38994 0.12627 0.0
C1256 C 0.66432 0.3501 0.10913 0.0
C1257 C 0.63704 0.37178 0.14272 0.0
C1258 C 0.65491 0.34293 0.14243 0.0
C1259 C 0.68392 0.30133 0.1249 0.0
C1260 C 0.69525 0.28908 0.10778 0.0
C1261 C 0.66811 0.33153 0.12563 0.0
C1262 C 0.69223 0.30829 0.09159 0.0
C1263 C 0.67712 0.33859 0.09228 0.0
H1264 H 0.85368 0.37374 0.34992 0.0
H1265 H 0.86645 0.36515 0.40962 0.0
H1266 H 0.91328 0.40121 0.40818 0.0
H1267 H 0.95227 0.43285 0.38988 0.0
H1268 H 0.94126 0.43953 0.33003 0.0
H1269 H 0.89179 0.40696 0.33169 0.0
C1270 C 0.8666 0.37985 0.36264 0.0
C1271 C 0.8566 0.36654 0.37983 0.0
C1272 C 0.89378 0.40037 0.36171 0.0
C1273 C 0.87368 0.37479 0.39617 0.0
C1274 C 0.90045 0.39551 0.39538 0.0
C1275 C 0.9388 0.42764 0.37722 0.0
C1276 C 0.95044 0.43866 0.35986 0.0
C1277 C 0.9109 0.40817 0.37821 0.0
C1278 C 0.93285 0.43133 0.34357 0.0
C1279 C 0.90463 0.4126 0.3445 0.0
H1280 H 0.86527 0.38785 0.83635 0.0
H1281 H 0.87211 0.39762 0.89625 0.0
H1282 H 0.83736 0.35012 0.90038 0.0
H1283 H 0.80694 0.30453 0.88705 0.0
H1284 H 0.79928 0.29519 0.82713 0.0
H1285 H 0.83207 0.34407 0.823 0.0
C1286 C 0.85916 0.37958 0.85031 0.0
C1287 C 0.87155 0.39608 0.86596 0.0
C1288 C 0.8389 0.35242 0.8526 0.0
C1289 C 0.86299 0.38534 0.88396 0.0
C1290 C 0.84312 0.35816 0.88634 0.0
C1291 C 0.81218 0.3133 0.87307 0.0
C1292 C 0.80081 0.29602 0.85744 0.0
C1293 C 0.83117 0.34135 0.87077 0.0
C1294 C 0.80769 0.30795 0.83944 0.0
C1295 C 0.8266 0.33584 0.83704 0.0
H1296 H 0.9462 0.556 0.14185 0.0
H1297 H 0.95132 0.54808 0.08178 0.0
H1298 H 0.90194 0.58019 0.0787 0.0
H1299 H 0.85935 0.61348 0.09293 0.0
H1300 H 0.85411 0.62104 0.15301 0.0
H1301 H 0.90147 0.58605 0.15615 0.0
C1302 C 0.93639 0.56102 0.12808 0.0
C1303 C 0.95265 0.54986 0.11208 0.0
C1304 C 0.90808 0.57966 0.12637 0.0
C1305 C 0.93938 0.5564 0.09435 0.0
C1306 C 0.91119 0.57489 0.09256 0.0
C1307 C 0.86849 0.60739 0.10672 0.0
C1308 C 0.85338 0.62016 0.12269 0.0
C1309 C 0.8957 0.58716 0.10845 0.0
C1310 C 0.8653 0.61165 0.14046 0.0
C1311 C 0.89243 0.59166 0.14228 0.0
H1312 H 0.62378 0.60186 0.38471 0.0
H1313 H 0.61176 0.6105 0.32496 0.0
H1314 H 0.64284 0.66102 0.32508 0.0
H1315 H 0.67165 0.70376 0.3423 0.0
H1316 H 0.68179 0.69599 0.40217 0.0
H1317 H 0.65353 0.64384 0.40179 0.0
C1318 C 0.62799 0.61469 0.37168 0.0
C1319 C 0.6153 0.60241 0.35487 0.0
C1320 C 0.64566 0.64383 0.37186 0.0
C1321 C 0.62106 0.61945 0.33813 0.0
C1322 C 0.63892 0.64832 0.33818 0.0
C1323 C 0.66805 0.69047 0.35523 0.0
C1324 C 0.67885 0.70374 0.37223 0.0
C1325 C 0.65115 0.66084 0.35497 0.0
C1326 C 0.67367 0.68635 0.3889 0.0
C1327 C 0.65744 0.65657 0.3887 0.0
H1328 H 0.63437 0.37943 0.63759 0.0
H1329 H 0.62354 0.35873 0.5788 0.0
H1330 H 0.57636 0.39424 0.57724 0.0
H1331 H 0.53629 0.42872 0.5929 0.0
H1332 H 0.54571 0.44737 0.65196 0.0
H1333 H 0.59556 0.41553 0.65298 0.0
C1334 C 0.62181 0.38278 0.62441 0.0
C1335 C 0.63242 0.36622 0.60838 0.0
C1336 C 0.59446 0.40298 0.62362 0.0
C1337 C 0.61581 0.37094 0.59141 0.0
C1338 C 0.58884 0.39133 0.59047 0.0
C1339 C 0.54954 0.42625 0.60593 0.0
C1340 C 0.53732 0.44037 0.62232 0.0
C1341 C 0.57772 0.40718 0.60653 0.0
C1342 C 0.55457 0.43665 0.63914 0.0
C1343 C 0.58302 0.41836 0.63976 0.0
H1344 H 0.11626 0.37189 0.33371 0.0
H1345 H 0.09996 0.38683 0.39265 0.0
H1346 H 0.13128 0.33839 0.39999 0.0
H1347 H 0.16246 0.29137 0.38988 0.0
H1348 H 0.17941 0.27572 0.33109 0.0
H1349 H 0.14907 0.32504 0.32357 0.0
C1350 C 0.11947 0.36445 0.34814 0.0
C1351 C 0.10563 0.38295 0.36258 0.0
C1352 C 0.13783 0.33657 0.35234 0.0
C1353 C 0.11032 0.37313 0.38123 0.0
C1354 C 0.12827 0.3454 0.38548 0.0
C1355 C 0.15977 0.29878 0.37541 0.0
C1356 C 0.17318 0.27975 0.3611 0.0
C1357 C 0.1421 0.32695 0.37117 0.0
C1358 C 0.1694 0.28988 0.34242 0.0
C1359 C 0.15191 0.31803 0.33809 0.0
H1360 H 0.37865 0.35983 0.08911 0.0
H1361 H 0.36213 0.35889 0.14866 0.0
H1362 H 0.41078 0.39145 0.15353 0.0
H1363 H 0.45804 0.42005 0.14098 0.0
H1364 H 0.4743 0.42184 0.08141 0.0
H1365 H 0.42558 0.38932 0.0765 0.0
C1366 C 0.38577 0.3666 0.10317 0.0
C1367 C 0.36681 0.35678 0.11849 0.0
C1368 C 0.41363 0.38566 0.10588 0.0
C1369 C 0.37624 0.36609 0.13659 0.0
C1370 C 0.40407 0.38475 0.13941 0.0
C1371 C 0.45092 0.41345 0.1269 0.0
C1372 C 0.4699 0.42339 0.11161 0.0
C1373 C 0.42291 0.39471 0.12416 0.0
C1374 C 0.46018 0.41461 0.09346 0.0
C1375 C 0.43235 0.3959 0.09063 0.0
H1376 H 0.30116 0.69443 0.88967 0.0
H1377 H 0.30601 0.71755 0.83084 0.0
H1378 H 0.33444 0.66669 0.82494 0.0
H1379 H 0.35979 0.61664 0.83659 0.0
H1380 H 0.35483 0.59362 0.89543 0.0
H1381 H 0.32454 0.64341 0.90111 0.0
C1382 C 0.30827 0.68832 0.87553 0.0
C1383 C 0.30156 0.70994 0.86076 0.0
C1384 C 0.32473 0.65907 0.87221 0.0
C1385 C 0.31087 0.70146 0.84251 0.0
C1386 C 0.32721 0.67237 0.8391 0.0
C1387 C 0.35201 0.62242 0.85065 0.0
C1388 C 0.35979 0.60143 0.86555 0.0
C1389 C 0.33457 0.65116 0.85387 0.0
C1390 C 0.34929 0.6093 0.88367 0.0
C1391 C 0.33196 0.63782 0.88697 0.0
H1392 H 0.02391 0.56984 0.64624 0.0
H1393 H 0.02029 0.54787 0.58732 0.0
H1394 H 0.06875 0.5807 0.58212 0.0
H1395 H 0.11106 0.61726 0.59412 0.0
H1396 H 0.11504 0.63827 0.65312 0.0
H1397 H 0.06733 0.60441 0.6584 0.0
C1398 C 0.03382 0.57197 0.63227 0.0
C1399 C 0.01833 0.55647 0.6172 0.0
C1400 C 0.06157 0.59104 0.62934 0.0
C1401 C 0.03168 0.55947 0.5992 0.0
C1402 C 0.05932 0.5784 0.59618 0.0
C1403 C 0.10138 0.61456 0.60811 0.0
C1404 C 0.11641 0.63051 0.62317 0.0
C1405 C 0.07419 0.59465 0.61111 0.0
C1406 C 0.10388 0.62633 0.64127 0.0
C1407 C 0.07663 0.60693 0.64432 0.0
H1408 H 0.11618 0.61235 0.14334 0.0
H1409 H 0.11502 0.59506 0.08387 0.0
H1410 H 0.14858 0.643 0.07877 0.0
H1411 H 0.17762 0.69035 0.09102 0.0
H1412 H 0.17914 0.70769 0.15048 0.0
H1413 H 0.14635 0.65916 0.15568 0.0
C1414 C 0.12321 0.61908 0.12926 0.0
C1415 C 0.11292 0.60012 0.11403 0.0
C1416 C 0.14272 0.64668 0.12639 0.0
C1417 C 0.12251 0.60914 0.09589 0.0
C1418 C 0.14175 0.6366 0.09293 0.0
C1419 C 0.17095 0.68348 0.10514 0.0
C1420 C 0.18084 0.70278 0.12031 0.0
C1421 C 0.15194 0.65558 0.10806 0.0
C1422 C 0.17191 0.69337 0.13851 0.0
C1423 C 0.15306 0.66562 0.14152 0.0
H1424 H 0.12459 0.37993 0.90064 0.0
H1425 H 0.13816 0.36324 0.84165 0.0
H1426 H 0.09094 0.39655 0.83455 0.0
H1427 H 0.04463 0.42892 0.84504 0.0
H1428 H 0.03132 0.44637 0.90398 0.0
H1429 H 0.07967 0.41464 0.91104 0.0
C1430 C 0.11722 0.38359 0.88623 0.0
C1431 C 0.13483 0.36889 0.87174 0.0
C1432 C 0.09009 0.40303 0.88219 0.0
C1433 C 0.1251 0.3742 0.85312 0.0
C1434 C 0.09804 0.39326 0.84902 0.0
C1435 C 0.0524 0.42602 0.85942 0.0
C1436 C 0.03417 0.43993 0.87392 0.0
C1437 C 0.08022 0.40762 0.86344 0.0
C1438 C 0.04479 0.43597 0.89249 0.0
C1439 C 0.07242 0.41769 0.89658 0.0
H1440 H 0.31487 0.29845 0.59126 0.0
H1441 H 0.30266 0.28443 0.65065 0.0
H1442 H 0.33382 0.33368 0.65674 0.0
H1443 H 0.36653 0.37944 0.6453 0.0
H1444 H 0.37838 0.39363 0.58591 0.0
H1445 H 0.34545 0.34553 0.57979 0.0
C1446 C 0.31876 0.30626 0.60554 0.0
C1447 C 0.30652 0.28759 0.62045 0.0
C1448 C 0.3369 0.33451 0.60898 0.0
C1449 C 0.31178 0.29824 0.63887 0.0
C1450 C 0.32973 0.32637 0.64239 0.0
C1451 C 0.36195 0.37202 0.63101 0.0
C1452 C 0.37515 0.39001 0.61611 0.0
C1453 C 0.3428 0.34443 0.62756 0.0
C1454 C 0.36861 0.38022 0.59767 0.0
C1455 C 0.34976 0.3527 0.59414 0.0
H1456 H 0.46146 0.55385 0.39435 0.0
H1457 H 0.44633 0.54058 0.33517 0.0
H1458 H 0.39525 0.57024 0.33704 0.0
H1459 H 0.35641 0.60248 0.35511 0.0
H1460 H 0.37251 0.61696 0.41414 0.0
H1461 H 0.42169 0.58434 0.41262 0.0
C1462 C 0.44683 0.55706 0.38189 0.0
C1463 C 0.45781 0.54503 0.36464 0.0
C1464 C 0.41778 0.57467 0.38298 0.0
C1465 C 0.43855 0.54963 0.34863 0.0
C1466 C 0.40936 0.56669 0.34966 0.0
C1467 C 0.37059 0.59844 0.36767 0.0
C1468 C 0.36079 0.61239 0.38468 0.0
C1469 C 0.39901 0.57978 0.3667 0.0
C1470 C 0.37949 0.60673 0.40082 0.0
C1471 C 0.40764 0.58801 0.39998 0.0
loop_
_geom_bond_atom_site_label_1
_geom_bond_atom_site_label_2
_geom_bond_distance
_geom_bond_site_symmetry_2
_ccdc_geom_bond_type
C0 O1 1.306 . S
C0 O3 1.160 . S
O1 C0 1.306 . S
O1 Cd2 2.228 . S
Cd2 O1 2.228 . S
Cd2 O6 2.273 . S
Cd2 O10 2.277 . S
O3 C0 1.160 . S
O3 Cd4 2.203 . S
Cd4 O3 2.203 . S
Cd4 O6 2.411 . S
Cd4 O7 2.333 . S
Cd4 O8 2.352 . S
Cd4 O12 2.277 . S
Cd4 O13 2.356 . S
C5 O10 1.209 . S
C5 O12 1.226 . S
O6 Cd2 2.273 . S
O6 Cd4 2.411 . S
O6 C9 1.320 . S
O7 Cd4 2.333 . S
O7 C9 1.214 . S
O8 Cd4 2.352 . S
O8 C11 1.258 . S
C9 O6 1.320 . S
C9 O7 1.214 . S
O10 Cd2 2.277 . S
O10 C5 1.209 . S
C11 O8 1.258 . S
C11 O13 1.282 . S
O12 Cd4 2.277 . S
O12 C5 1.226 . S
O13 Cd4 2.356 . S
O13 C11 1.282 . S
C14 O15 1.306 . S
C14 O17 1.160 . S
O15 C14 1.306 . S
O15 Cd16 2.228 . S
Cd16 O15 2.228 . S
Cd16 O20 2.273 . S
Cd16 O24 2.277 . S
O17 C14 1.160 . S
O17 Cd18 2.203 . S
Cd18 O17 2.203 . S
Cd18 O20 2.411 . S
Cd18 O21 2.333 . S
Cd18 O22 2.352 . S
Cd18 O26 2.277 . S
Cd18 O27 2.356 . S
C19 O24 1.209 . S
C19 O26 1.226 . S
O20 Cd16 2.273 . S
O20 Cd18 2.411 . S
O20 C23 1.320 . S
O21 Cd18 2.333 . S
O21 C23 1.214 . S
O22 Cd18 2.352 . S
O22 C25 1.258 . S
C23 O20 1.320 . S
C23 O21 1.214 . S
O24 Cd16 2.277 . S
O24 C19 1.209 . S
C25 O22 1.258 . S
C25 O27 1.282 . S
O26 Cd18 2.277 . S
O26 C19 1.226 . S
O27 Cd18 2.356 . S
O27 C25 1.282 . S
C28 O29 1.306 . S
C28 O31 1.160 . S
O29 C28 1.306 . S
O29 Cd30 2.228 . S
Cd30 O29 2.228 . S
Cd30 O34 2.273 . S
Cd30 O38 2.277 . S
O31 C28 1.160 . S
O31 Cd32 2.203 . S
Cd32 O31 2.203 . S
Cd32 O34 2.411 . S
Cd32 O35 2.333 . S
Cd32 O36 2.352 . S
Cd32 O40 2.277 . S
Cd32 O41 2.356 . S
C33 O38 1.209 . S
C33 O40 1.226 . S
O34 Cd30 2.273 . S
O34 Cd32 2.411 . S
O34 C37 1.320 . S
O35 Cd32 2.333 . S
O35 C37 1.214 . S
O36 Cd32 2.352 . S
O36 C39 1.258 . S
C37 O34 1.320 . S
C37 O35 1.214 . S
O38 Cd30 2.277 . S
O38 C33 1.209 . S
C39 O36 1.258 . S
C39 O41 1.282 . S
O40 Cd32 2.277 . S
O40 C33 1.226 . S
O41 Cd32 2.356 . S
O41 C39 1.282 . S
C42 O43 1.306 . S
C42 O45 1.160 . S
O43 C42 1.306 . S
O43 Cd44 2.228 . S
Cd44 O43 2.228 . S
Cd44 O48 2.273 . S
Cd44 O52 2.277 . S
O45 C42 1.160 . S
O45 Cd46 2.203 . S
Cd46 O45 2.203 . S
Cd46 O48 2.411 . S
Cd46 O49 2.333 . S
Cd46 O50 2.352 . S
Cd46 O54 2.277 . S
Cd46 O55 2.356 . S
C47 O52 1.209 . S
C47 O54 1.226 . S
O48 Cd44 2.273 . S
O48 Cd46 2.411 . S
O48 C51 1.320 . S
O49 Cd46 2.333 . S
O49 C51 1.214 . S
O50 Cd46 2.352 . S
O50 C53 1.258 . S
C51 O48 1.320 . S
C51 O49 1.214 . S
O52 Cd44 2.277 . S
O52 C47 1.209 . S
C53 O50 1.258 . S
C53 O55 1.282 . S
O54 Cd46 2.277 . S
O54 C47 1.226 . S
O55 Cd46 2.356 . S
O55 C53 1.282 . S
C56 O57 1.306 . S
C56 O59 1.160 . S
O57 C56 1.306 . S
O57 Cd58 2.228 . S
Cd58 O57 2.228 . S
Cd58 O62 2.273 . S
Cd58 O66 2.277 . S
O59 C56 1.160 . S
O59 Cd60 2.203 . S
Cd60 O59 2.203 . S
Cd60 O62 2.411 . S
Cd60 O63 2.333 . S
Cd60 O64 2.352 . S
Cd60 O68 2.277 . S
Cd60 O69 2.356 . S
C61 O66 1.209 . S
C61 O68 1.226 . S
O62 Cd58 2.273 . S
O62 Cd60 2.411 . S
O62 C65 1.320 . S
O63 Cd60 2.333 . S
O63 C65 1.214 . S
O64 Cd60 2.352 . S
O64 C67 1.258 . S
C65 O62 1.320 . S
C65 O63 1.214 . S
O66 Cd58 2.277 . S
O66 C61 1.209 . S
C67 O64 1.258 . S
C67 O69 1.282 . S
O68 Cd60 2.277 . S
O68 C61 1.226 . S
O69 Cd60 2.356 . S
O69 C67 1.282 . S
C70 O71 1.306 . S
C70 O73 1.160 . S
O71 C70 1.306 . S
O71 Cd72 2.228 . S
Cd72 O71 2.228 . S
Cd72 O76 2.273 . S
Cd72 O80 2.277 . S
O73 C70 1.160 . S
O73 Cd74 2.203 . S
Cd74 O73 2.203 . S
Cd74 O76 2.411 . S
Cd74 O77 2.333 . S
Cd74 O78 2.352 . S
Cd74 O82 2.277 . S
Cd74 O83 2.356 . S
C75 O80 1.209 . S
C75 O82 1.226 . S
O76 Cd72 2.273 . S
O76 Cd74 2.411 . S
O76 C79 1.320 . S
O77 Cd74 2.333 . S
O77 C79 1.214 . S
O78 Cd74 2.352 . S
O78 C81 1.258 . S
C79 O76 1.320 . S
C79 O77 1.214 . S
O80 Cd72 2.277 . S
O80 C75 1.209 . S
C81 O78 1.258 . S
C81 O83 1.282 . S
O82 Cd74 2.277 . S
O82 C75 1.226 . S
O83 Cd74 2.356 . S
O83 C81 1.282 . S
C84 O85 1.306 . S
C84 O87 1.160 . S
O85 C84 1.306 . S
O85 Cd86 2.228 . S
Cd86 O85 2.228 . S
Cd86 O90 2.273 . S
Cd86 O94 2.277 . S
O87 C84 1.160 . S
O87 Cd88 2.203 . S
Cd88 O87 2.203 . S
Cd88 O90 2.411 . S
Cd88 O91 2.333 . S
Cd88 O92 2.352 . S
Cd88 O96 2.277 . S
Cd88 O97 2.356 . S
C89 O94 1.209 . S
C89 O96 1.226 . S
O90 Cd86 2.273 . S
O90 Cd88 2.411 . S
O90 C93 1.320 . S
O91 Cd88 2.333 . S
O91 C93 1.214 . S
O92 Cd88 2.352 . S
O92 C95 1.258 . S
C93 O90 1.320 . S
C93 O91 1.214 . S
O94 Cd86 2.277 . S
O94 C89 1.209 . S
C95 O92 1.258 . S
C95 O97 1.282 . S
O96 Cd88 2.277 . S
O96 C89 1.226 . S
O97 Cd88 2.356 . S
O97 C95 1.282 . S
C98 O99 1.306 . S
C98 O101 1.160 . S
O99 C98 1.306 . S
O99 Cd100 2.228 . S
Cd100 O99 2.228 . S
Cd100 O104 2.273 . S
Cd100 O108 2.277 . S
O101 C98 1.160 . S
O101 Cd102 2.203 . S
Cd102 O101 2.203 . S
Cd102 O104 2.411 . S
Cd102 O105 2.333 . S
Cd102 O106 2.352 . S
Cd102 O110 2.277 . S
Cd102 O111 2.356 . S
C103 O108 1.209 . S
C103 O110 1.226 . S
O104 Cd100 2.273 . S
O104 Cd102 2.411 . S
O104 C107 1.320 . S
O105 Cd102 2.333 . S
O105 C107 1.214 . S
O106 Cd102 2.352 . S
O106 C109 1.258 . S
C107 O104 1.320 . S
C107 O105 1.214 . S
O108 Cd100 2.277 . S
O108 C103 1.209 . S
C109 O106 1.258 . S
C109 O111 1.282 . S
O110 Cd102 2.277 . S
O110 C103 1.226 . S
O111 Cd102 2.356 . S
O111 C109 1.282 . S
C112 O113 1.306 . S
C112 O115 1.160 . S
O113 C112 1.306 . S
O113 Cd114 2.228 . S
Cd114 O113 2.228 . S
Cd114 O118 2.273 . S
Cd114 O122 2.277 . S
O115 C112 1.160 . S
O115 Cd116 2.203 . S
Cd116 O115 2.203 . S
Cd116 O118 2.411 . S
Cd116 O119 2.333 . S
Cd116 O120 2.352 . S
Cd116 O124 2.277 . S
Cd116 O125 2.356 . S
C117 O122 1.209 . S
C117 O124 1.226 . S
O118 Cd114 2.273 . S
O118 Cd116 2.411 . S
O118 C121 1.320 . S
O119 Cd116 2.333 . S
O119 C121 1.214 . S
O120 Cd116 2.352 . S
O120 C123 1.258 . S
C121 O118 1.320 . S
C121 O119 1.214 . S
O122 Cd114 2.277 . S
O122 C117 1.209 . S
C123 O120 1.258 . S
C123 O125 1.282 . S
O124 Cd116 2.277 . S
O124 C117 1.226 . S
O125 Cd116 2.356 . S
O125 C123 1.282 . S
C126 O127 1.306 . S
C126 O129 1.160 . S
O127 C126 1.306 . S
O127 Cd128 2.228 . S
Cd128 O127 2.228 . S
Cd128 O132 2.273 . S
Cd128 O136 2.277 . S
O129 C126 1.160 . S
O129 Cd130 2.203 . S
Cd130 O129 2.203 . S
Cd130 O132 2.411 . S
Cd130 O133 2.333 . S
Cd130 O134 2.352 . S
Cd130 O138 2.277 . S
Cd130 O139 2.356 . S
C131 O136 1.209 . S
C131 O138 1.226 . S
O132 Cd128 2.273 . S
O132 Cd130 2.411 . S
O132 C135 1.320 . S
O133 Cd130 2.333 . S
O133 C135 1.214 . S
O134 Cd130 2.352 . S
O134 C137 1.258 . S
C135 O132 1.320 . S
C135 O133 1.214 . S
O136 Cd128 2.277 . S
O136 C131 1.209 . S
C137 O134 1.258 . S
C137 O139 1.282 . S
O138 Cd130 2.277 . S
O138 C131 1.226 . S
O139 Cd130 2.356 . S
O139 C137 1.282 . S
C140 O141 1.306 . S
C140 O143 1.160 . S
O141 C140 1.306 . S
O141 Cd142 2.228 . S
Cd142 O141 2.228 . S
Cd142 O146 2.273 . S
Cd142 O150 2.277 . S
O143 C140 1.160 . S
O143 Cd144 2.203 . S
Cd144 O143 2.203 . S
Cd144 O146 2.411 . S
Cd144 O147 2.333 . S
Cd144 O148 2.352 . S
Cd144 O152 2.277 . S
Cd144 O153 2.356 . S
C145 O150 1.209 . S
C145 O152 1.226 . S
O146 Cd142 2.273 . S
O146 Cd144 2.411 . S
O146 C149 1.320 . S
O147 Cd144 2.333 . S
O147 C149 1.214 . S
O148 Cd144 2.352 . S
O148 C151 1.258 . S
C149 O146 1.320 . S
C149 O147 1.214 . S
O150 Cd142 2.277 . S
O150 C145 1.209 . S
C151 O148 1.258 . S
C151 O153 1.282 . S
O152 Cd144 2.277 . S
O152 C145 1.226 . S
O153 Cd144 2.356 . S
O153 C151 1.282 . S
C154 O155 1.306 . S
C154 O157 1.160 . S
O155 C154 1.306 . S
O155 Cd156 2.228 . S
Cd156 O155 2.228 . S
Cd156 O160 2.273 . S
Cd156 O164 2.277 . S
O157 C154 1.160 . S
O157 Cd158 2.203 . S
Cd158 O157 2.203 . S
Cd158 O160 2.411 . S
Cd158 O161 2.333 . S
Cd158 O162 2.352 . S
Cd158 O166 2.277 . S
Cd158 O167 2.356 . S
C159 O164 1.209 . S
C159 O166 1.226 . S
O160 Cd156 2.273 . S
O160 Cd158 2.411 . S
O160 C163 1.320 . S
O161 Cd158 2.333 . S
O161 C163 1.214 . S
O162 Cd158 2.352 . S
O162 C165 1.258 . S
C163 O160 1.320 . S
C163 O161 1.214 . S
O164 Cd156 2.277 . S
O164 C159 1.209 . S
C165 O162 1.258 . S
C165 O167 1.282 . S
O166 Cd158 2.277 . S
O166 C159 1.226 . S
O167 Cd158 2.356 . S
O167 C165 1.282 . S
C168 O169 1.306 . S
C168 O171 1.160 . S
O169 C168 1.306 . S
O169 Cd170 2.228 . S
Cd170 O169 2.228 . S
Cd170 O174 2.273 . S
Cd170 O178 2.277 . S
O171 C168 1.160 . S
O171 Cd172 2.203 . S
Cd172 O171 2.203 . S
Cd172 O174 2.411 . S
Cd172 O175 2.333 . S
Cd172 O176 2.352 . S
Cd172 O180 2.277 . S
Cd172 O181 2.356 . S
C173 O178 1.209 . S
C173 O180 1.226 . S
O174 Cd170 2.273 . S
O174 Cd172 2.411 . S
O174 C177 1.320 . S
O175 Cd172 2.333 . S
O175 C177 1.214 . S
O176 Cd172 2.352 . S
O176 C179 1.258 . S
C177 O174 1.320 . S
C177 O175 1.214 . S
O178 Cd170 2.277 . S
O178 C173 1.209 . S
C179 O176 1.258 . S
C179 O181 1.282 . S
O180 Cd172 2.277 . S
O180 C173 1.226 . S
O181 Cd172 2.356 . S
O181 C179 1.282 . S
C182 O183 1.306 . S
C182 O185 1.160 . S
O183 C182 1.306 . S
O183 Cd184 2.228 . S
Cd184 O183 2.228 . S
Cd184 O188 2.273 . S
Cd184 O192 2.277 . S
O185 C182 1.160 . S
O185 Cd186 2.203 . S
Cd186 O185 2.203 . S
Cd186 O188 2.411 . S
Cd186 O189 2.333 . S
Cd186 O190 2.352 . S
Cd186 O194 2.277 . S
Cd186 O195 2.356 . S
C187 O192 1.209 . S
C187 O194 1.226 . S
O188 Cd184 2.273 . S
O188 Cd186 2.411 . S
O188 C191 1.320 . S
O189 Cd186 2.333 . S
O189 C191 1.214 . S
O190 Cd186 2.352 . S
O190 C193 1.258 . S
C191 O188 1.320 . S
C191 O189 1.214 . S
O192 Cd184 2.277 . S
O192 C187 1.209 . S
C193 O190 1.258 . S
C193 O195 1.282 . S
O194 Cd186 2.277 . S
O194 C187 1.226 . S
O195 Cd186 2.356 . S
O195 C193 1.282 . S
C196 O197 1.306 . S
C196 O199 1.160 . S
O197 C196 1.306 . S
O197 Cd198 2.228 . S
Cd198 O197 2.228 . S
Cd198 O202 2.273 . S
Cd198 O206 2.277 . S
O199 C196 1.160 . S
O199 Cd200 2.203 . S
Cd200 O199 2.203 . S
Cd200 O202 2.411 . S
Cd200 O203 2.333 . S
Cd200 O204 2.352 . S
Cd200 O208 2.277 . S
Cd200 O209 2.356 . S
C201 O206 1.209 . S
C201 O208 1.226 . S
O202 Cd198 2.273 . S
O202 Cd200 2.411 . S
O202 C205 1.320 . S
O203 Cd200 2.333 . S
O203 C205 1.214 . S
O204 Cd200 2.352 . S
O204 C207 1.258 . S
C205 O202 1.320 . S
C205 O203 1.214 . S
O206 Cd198 2.277 . S
O206 C201 1.209 . S
C207 O204 1.258 . S
C207 O209 1.282 . S
O208 Cd200 2.277 . S
O208 C201 1.226 . S
O209 Cd200 2.356 . S
O209 C207 1.282 . S
C210 O211 1.306 . S
C210 O213 1.160 . S
O211 C210 1.306 . S
O211 Cd212 2.228 . S
Cd212 O211 2.228 . S
Cd212 O216 2.273 . S
Cd212 O220 2.277 . S
O213 C210 1.160 . S
O213 Cd214 2.203 . S
Cd214 O213 2.203 . S
Cd214 O216 2.411 . S
Cd214 O217 2.333 . S
Cd214 O218 2.352 . S
Cd214 O222 2.277 . S
Cd214 O223 2.356 . S
C215 O220 1.209 . S
C215 O222 1.226 . S
O216 Cd212 2.273 . S
O216 Cd214 2.411 . S
O216 C219 1.320 . S
O217 Cd214 2.333 . S
O217 C219 1.214 . S
O218 Cd214 2.352 . S
O218 C221 1.258 . S
C219 O216 1.320 . S
C219 O217 1.214 . S
O220 Cd212 2.277 . S
O220 C215 1.209 . S
C221 O218 1.258 . S
C221 O223 1.282 . S
O222 Cd214 2.277 . S
O222 C215 1.226 . S
O223 Cd214 2.356 . S
O223 C221 1.282 . S
C224 O225 1.306 . S
C224 O227 1.160 . S
O225 C224 1.306 . S
O225 Cd226 2.228 . S
Cd226 O225 2.228 . S
Cd226 O230 2.273 . S
Cd226 O234 2.277 . S
O227 C224 1.160 . S
O227 Cd228 2.203 . S
Cd228 O227 2.203 . S
Cd228 O230 2.411 . S
Cd228 O231 2.333 . S
Cd228 O232 2.352 . S
Cd228 O236 2.277 . S
Cd228 O237 2.356 . S
C229 O234 1.209 . S
C229 O236 1.226 . S
O230 Cd226 2.273 . S
O230 Cd228 2.411 . S
O230 C233 1.320 . S
O231 Cd228 2.333 . S
O231 C233 1.214 . S
O232 Cd228 2.352 . S
O232 C235 1.258 . S
C233 O230 1.320 . S
C233 O231 1.214 . S
O234 Cd226 2.277 . S
O234 C229 1.209 . S
C235 O232 1.258 . S
C235 O237 1.282 . S
O236 Cd228 2.277 . S
O236 C229 1.226 . S
O237 Cd228 2.356 . S
O237 C235 1.282 . S
C238 O239 1.306 . S
C238 O241 1.160 . S
O239 C238 1.306 . S
O239 Cd240 2.228 . S
Cd240 O239 2.228 . S
Cd240 O244 2.273 . S
Cd240 O248 2.277 . S
O241 C238 1.160 . S
O241 Cd242 2.203 . S
Cd242 O241 2.203 . S
Cd242 O244 2.411 . S
Cd242 O245 2.333 . S
Cd242 O246 2.352 . S
Cd242 O250 2.277 . S
Cd242 O251 2.356 . S
C243 O248 1.209 . S
C243 O250 1.226 . S
O244 Cd240 2.273 . S
O244 Cd242 2.411 . S
O244 C247 1.320 . S
O245 Cd242 2.333 . S
O245 C247 1.214 . S
O246 Cd242 2.352 . S
O246 C249 1.258 . S
C247 O244 1.320 . S
C247 O245 1.214 . S
O248 Cd240 2.277 . S
O248 C243 1.209 . S
C249 O246 1.258 . S
C249 O251 1.282 . S
O250 Cd242 2.277 . S
O250 C243 1.226 . S
O251 Cd242 2.356 . S
O251 C249 1.282 . S
C252 O253 1.306 . S
C252 O255 1.160 . S
O253 C252 1.306 . S
O253 Cd254 2.228 . S
Cd254 O253 2.228 . S
Cd254 O258 2.273 . S
Cd254 O262 2.277 . S
O255 C252 1.160 . S
O255 Cd256 2.203 . S
Cd256 O255 2.203 . S
Cd256 O258 2.411 . S
Cd256 O259 2.333 . S
Cd256 O260 2.352 . S
Cd256 O264 2.277 . S
Cd256 O265 2.356 . S
C257 O262 1.209 . S
C257 O264 1.226 . S
O258 Cd254 2.273 . S
O258 Cd256 2.411 . S
O258 C261 1.320 . S
O259 Cd256 2.333 . S
O259 C261 1.214 . S
O260 Cd256 2.352 . S
O260 C263 1.258 . S
C261 O258 1.320 . S
C261 O259 1.214 . S
O262 Cd254 2.277 . S
O262 C257 1.209 . S
C263 O260 1.258 . S
C263 O265 1.282 . S
O264 Cd256 2.277 . S
O264 C257 1.226 . S
O265 Cd256 2.356 . S
O265 C263 1.282 . S
C266 O267 1.306 . S
C266 O269 1.160 . S
O267 C266 1.306 . S
O267 Cd268 2.228 . S
Cd268 O267 2.228 . S
Cd268 O272 2.273 . S
Cd268 O276 2.277 . S
O269 C266 1.160 . S
O269 Cd270 2.203 . S
Cd270 O269 2.203 . S
Cd270 O272 2.411 . S
Cd270 O273 2.333 . S
Cd270 O274 2.352 . S
Cd270 O278 2.277 . S
Cd270 O279 2.356 . S
C271 O276 1.209 . S
C271 O278 1.226 . S
O272 Cd268 2.273 . S
O272 Cd270 2.411 . S
O272 C275 1.320 . S
O273 Cd270 2.333 . S
O273 C275 1.214 . S
O274 Cd270 2.352 . S
O274 C277 1.258 . S
C275 O272 1.320 . S
C275 O273 1.214 . S
O276 Cd268 2.277 . S
O276 C271 1.209 . S
C277 O274 1.258 . S
C277 O279 1.282 . S
O278 Cd270 2.277 . S
O278 C271 1.226 . S
O279 Cd270 2.356 . S
O279 C277 1.282 . S
C280 O281 1.306 . S
C280 O283 1.160 . S
O281 C280 1.306 . S
O281 Cd282 2.228 . S
Cd282 O281 2.228 . S
Cd282 O286 2.273 . S
Cd282 O290 2.277 . S
O283 C280 1.160 . S
O283 Cd284 2.203 . S
Cd284 O283 2.203 . S
Cd284 O286 2.411 . S
Cd284 O287 2.333 . S
Cd284 O288 2.352 . S
Cd284 O292 2.277 . S
Cd284 O293 2.356 . S
C285 O290 1.209 . S
C285 O292 1.226 . S
O286 Cd282 2.273 . S
O286 Cd284 2.411 . S
O286 C289 1.320 . S
O287 Cd284 2.333 . S
O287 C289 1.214 . S
O288 Cd284 2.352 . S
O288 C291 1.258 . S
C289 O286 1.320 . S
C289 O287 1.214 . S
O290 Cd282 2.277 . S
O290 C285 1.209 . S
C291 O288 1.258 . S
C291 O293 1.282 . S
O292 Cd284 2.277 . S
O292 C285 1.226 . S
O293 Cd284 2.356 . S
O293 C291 1.282 . S
C294 O295 1.306 . S
C294 O297 1.160 . S
O295 C294 1.306 . S
O295 Cd296 2.228 . S
Cd296 O295 2.228 . S
Cd296 O300 2.273 . S
Cd296 O304 2.277 . S
O297 C294 1.160 . S
O297 Cd298 2.203 . S
Cd298 O297 2.203 . S
Cd298 O300 2.411 . S
Cd298 O301 2.333 . S
Cd298 O302 2.352 . S
Cd298 O306 2.277 . S
Cd298 O307 2.356 . S
C299 O304 1.209 . S
C299 O306 1.226 . S
O300 Cd296 2.273 . S
O300 Cd298 2.411 . S
O300 C303 1.320 . S
O301 Cd298 2.333 . S
O301 C303 1.214 . S
O302 Cd298 2.352 . S
O302 C305 1.258 . S
C303 O300 1.320 . S
C303 O301 1.214 . S
O304 Cd296 2.277 . S
O304 C299 1.209 . S
C305 O302 1.258 . S
C305 O307 1.282 . S
O306 Cd298 2.277 . S
O306 C299 1.226 . S
O307 Cd298 2.356 . S
O307 C305 1.282 . S
C308 O309 1.306 . S
C308 O311 1.160 . S
O309 C308 1.306 . S
O309 Cd310 2.228 . S
Cd310 O309 2.228 . S
Cd310 O314 2.273 . S
Cd310 O318 2.277 . S
O311 C308 1.160 . S
O311 Cd312 2.203 . S
Cd312 O311 2.203 . S
Cd312 O314 2.411 . S
Cd312 O315 2.333 . S
Cd312 O316 2.352 . S
Cd312 O320 2.277 . S
Cd312 O321 2.356 . S
C313 O318 1.209 . S
C313 O320 1.226 . S
O314 Cd310 2.273 . S
O314 Cd312 2.411 . S
O314 C317 1.320 . S
O315 Cd312 2.333 . S
O315 C317 1.214 . S
O316 Cd312 2.352 . S
O316 C319 1.258 . S
C317 O314 1.320 . S
C317 O315 1.214 . S
O318 Cd310 2.277 . S
O318 C313 1.209 . S
C319 O316 1.258 . S
C319 O321 1.282 . S
O320 Cd312 2.277 . S
O320 C313 1.226 . S
O321 Cd312 2.356 . S
O321 C319 1.282 . S
C322 O323 1.306 . S
C322 O325 1.160 . S
O323 C322 1.306 . S
O323 Cd324 2.228 . S
Cd324 O323 2.228 . S
Cd324 O328 2.273 . S
Cd324 O332 2.277 . S
O325 C322 1.160 . S
O325 Cd326 2.203 . S
Cd326 O325 2.203 . S
Cd326 O328 2.411 . S
Cd326 O329 2.333 . S
Cd326 O330 2.352 . S
Cd326 O334 2.277 . S
Cd326 O335 2.356 . S
C327 O332 1.209 . S
C327 O334 1.226 . S
O328 Cd324 2.273 . S
O328 Cd326 2.411 . S
O328 C331 1.320 . S
O329 Cd326 2.333 . S
O329 C331 1.214 . S
O330 Cd326 2.352 . S
O330 C333 1.258 . S
C331 O328 1.320 . S
C331 O329 1.214 . S
O332 Cd324 2.277 . S
O332 C327 1.209 . S
C333 O330 1.258 . S
C333 O335 1.282 . S
O334 Cd326 2.277 . S
O334 C327 1.226 . S
O335 Cd326 2.356 . S
O335 C333 1.282 . S
C336 O337 1.306 . S
C336 O339 1.160 . S
O337 C336 1.306 . S
O337 Cd338 2.228 . S
Cd338 O337 2.228 . S
Cd338 O342 2.273 . S
Cd338 O346 2.277 . S
O339 C336 1.160 . S
O339 Cd340 2.203 . S
Cd340 O339 2.203 . S
Cd340 O342 2.411 . S
Cd340 O343 2.333 . S
Cd340 O344 2.352 . S
Cd340 O348 2.277 . S
Cd340 O349 2.356 . S
C341 O346 1.209 . S
C341 O348 1.226 . S
O342 Cd338 2.273 . S
O342 Cd340 2.411 . S
O342 C345 1.320 . S
O343 Cd340 2.333 . S
O343 C345 1.214 . S
O344 Cd340 2.352 . S
O344 C347 1.258 . S
C345 O342 1.320 . S
C345 O343 1.214 . S
O346 Cd338 2.277 . S
O346 C341 1.209 . S
C347 O344 1.258 . S
C347 O349 1.282 . S
O348 Cd340 2.277 . S
O348 C341 1.226 . S
O349 Cd340 2.356 . S
O349 C347 1.282 . S
C350 O351 1.306 . S
C350 O353 1.160 . S
O351 C350 1.306 . S
O351 Cd352 2.228 . S
Cd352 O351 2.228 . S
Cd352 O356 2.273 . S
Cd352 O360 2.277 . S
O353 C350 1.160 . S
O353 Cd354 2.203 . S
Cd354 O353 2.203 . S
Cd354 O356 2.411 . S
Cd354 O357 2.333 . S
Cd354 O358 2.352 . S
Cd354 O362 2.277 . S
Cd354 O363 2.356 . S
C355 O360 1.209 . S
C355 O362 1.226 . S
O356 Cd352 2.273 . S
O356 Cd354 2.411 . S
O356 C359 1.320 . S
O357 Cd354 2.333 . S
O357 C359 1.214 . S
O358 Cd354 2.352 . S
O358 C361 1.258 . S
C359 O356 1.320 . S
C359 O357 1.214 . S
O360 Cd352 2.277 . S
O360 C355 1.209 . S
C361 O358 1.258 . S
C361 O363 1.282 . S
O362 Cd354 2.277 . S
O362 C355 1.226 . S
O363 Cd354 2.356 . S
O363 C361 1.282 . S
C364 O365 1.306 . S
C364 O367 1.160 . S
O365 C364 1.306 . S
O365 Cd366 2.228 . S
Cd366 O365 2.228 . S
Cd366 O370 2.273 . S
Cd366 O374 2.277 . S
O367 C364 1.160 . S
O367 Cd368 2.203 . S
Cd368 O367 2.203 . S
Cd368 O370 2.411 . S
Cd368 O371 2.333 . S
Cd368 O372 2.352 . S
Cd368 O376 2.277 . S
Cd368 O377 2.356 . S
C369 O374 1.209 . S
C369 O376 1.226 . S
O370 Cd366 2.273 . S
O370 Cd368 2.411 . S
O370 C373 1.320 . S
O371 Cd368 2.333 . S
O371 C373 1.214 . S
O372 Cd368 2.352 . S
O372 C375 1.258 . S
C373 O370 1.320 . S
C373 O371 1.214 . S
O374 Cd366 2.277 . S
O374 C369 1.209 . S
C375 O372 1.258 . S
C375 O377 1.282 . S
O376 Cd368 2.277 . S
O376 C369 1.226 . S
O377 Cd368 2.356 . S
O377 C375 1.282 . S
C378 O379 1.306 . S
C378 O381 1.160 . S
O379 C378 1.306 . S
O379 Cd380 2.228 . S
Cd380 O379 2.228 . S
Cd380 O384 2.273 . S
Cd380 O388 2.277 . S
O381 C378 1.160 . S
O381 Cd382 2.203 . S
Cd382 O381 2.203 . S
Cd382 O384 2.411 . S
Cd382 O385 2.333 . S
Cd382 O386 2.352 . S
Cd382 O390 2.277 . S
Cd382 O391 2.356 . S
C383 O388 1.209 . S
C383 O390 1.226 . S
O384 Cd380 2.273 . S
O384 Cd382 2.411 . S
O384 C387 1.320 . S
O385 Cd382 2.333 . S
O385 C387 1.214 . S
O386 Cd382 2.352 . S
O386 C389 1.258 . S
C387 O384 1.320 . S
C387 O385 1.214 . S
O388 Cd380 2.277 . S
O388 C383 1.209 . S
C389 O386 1.258 . S
C389 O391 1.282 . S
O390 Cd382 2.277 . S
O390 C383 1.226 . S
O391 Cd382 2.356 . S
O391 C389 1.282 . S
C392 O393 1.306 . S
C392 O395 1.160 . S
O393 C392 1.306 . S
O393 Cd394 2.228 . S
Cd394 O393 2.228 . S
Cd394 O398 2.273 . S
Cd394 O402 2.277 . S
O395 C392 1.160 . S
O395 Cd396 2.203 . S
Cd396 O395 2.203 . S
Cd396 O398 2.411 . S
Cd396 O399 2.333 . S
Cd396 O400 2.352 . S
Cd396 O404 2.277 . S
Cd396 O405 2.356 . S
C397 O402 1.209 . S
C397 O404 1.226 . S
O398 Cd394 2.273 . S
O398 Cd396 2.411 . S
O398 C401 1.320 . S
O399 Cd396 2.333 . S
O399 C401 1.214 . S
O400 Cd396 2.352 . S
O400 C403 1.258 . S
C401 O398 1.320 . S
C401 O399 1.214 . S
O402 Cd394 2.277 . S
O402 C397 1.209 . S
C403 O400 1.258 . S
C403 O405 1.282 . S
O404 Cd396 2.277 . S
O404 C397 1.226 . S
O405 Cd396 2.356 . S
O405 C403 1.282 . S
C406 O407 1.306 . S
C406 O409 1.160 . S
O407 C406 1.306 . S
O407 Cd408 2.228 . S
Cd408 O407 2.228 . S
Cd408 O412 2.273 . S
Cd408 O416 2.277 . S
O409 C406 1.160 . S
O409 Cd410 2.203 . S
Cd410 O409 2.203 . S
Cd410 O412 2.411 . S
Cd410 O413 2.333 . S
Cd410 O414 2.352 . S
Cd410 O418 2.277 . S
Cd410 O419 2.356 . S
C411 O416 1.209 . S
C411 O418 1.226 . S
O412 Cd408 2.273 . S
O412 Cd410 2.411 . S
O412 C415 1.320 . S
O413 Cd410 2.333 . S
O413 C415 1.214 . S
O414 Cd410 2.352 . S
O414 C417 1.258 . S
C415 O412 1.320 . S
C415 O413 1.214 . S
O416 Cd408 2.277 . S
O416 C411 1.209 . S
C417 O414 1.258 . S
C417 O419 1.282 . S
O418 Cd410 2.277 . S
O418 C411 1.226 . S
O419 Cd410 2.356 . S
O419 C417 1.282 . S
C420 O421 1.306 . S
C420 O423 1.160 . S
O421 C420 1.306 . S
O421 Cd422 2.228 . S
Cd422 O421 2.228 . S
Cd422 O426 2.273 . S
Cd422 O430 2.277 . S
O423 C420 1.160 . S
O423 Cd424 2.203 . S
Cd424 O423 2.203 . S
Cd424 O426 2.411 . S
Cd424 O427 2.333 . S
Cd424 O428 2.352 . S
Cd424 O432 2.277 . S
Cd424 O433 2.356 . S
C425 O430 1.209 . S
C425 O432 1.226 . S
O426 Cd422 2.273 . S
O426 Cd424 2.411 . S
O426 C429 1.320 . S
O427 Cd424 2.333 . S
O427 C429 1.214 . S
O428 Cd424 2.352 . S
O428 C431 1.258 . S
C429 O426 1.320 . S
C429 O427 1.214 . S
O430 Cd422 2.277 . S
O430 C425 1.209 . S
C431 O428 1.258 . S
C431 O433 1.282 . S
O432 Cd424 2.277 . S
O432 C425 1.226 . S
O433 Cd424 2.356 . S
O433 C431 1.282 . S
C434 O435 1.306 . S
C434 O437 1.160 . S
O435 C434 1.306 . S
O435 Cd436 2.228 . S
Cd436 O435 2.228 . S
Cd436 O440 2.273 . S
Cd436 O444 2.277 . S
O437 C434 1.160 . S
O437 Cd438 2.203 . S
Cd438 O437 2.203 . S
Cd438 O440 2.411 . S
Cd438 O441 2.333 . S
Cd438 O442 2.352 . S
Cd438 O446 2.277 . S
Cd438 O447 2.356 . S
C439 O444 1.209 . S
C439 O446 1.226 . S
O440 Cd436 2.273 . S
O440 Cd438 2.411 . S
O440 C443 1.320 . S
O441 Cd438 2.333 . S
O441 C443 1.214 . S
O442 Cd438 2.352 . S
O442 C445 1.258 . S
C443 O440 1.320 . S
C443 O441 1.214 . S
O444 Cd436 2.277 . S
O444 C439 1.209 . S
C445 O442 1.258 . S
C445 O447 1.282 . S
O446 Cd438 2.277 . S
O446 C439 1.226 . S
O447 Cd438 2.356 . S
O447 C445 1.282 . S
H448 C454 0.933 . S
H449 C457 0.930 . S
H450 C458 0.930 . S
H451 C459 0.933 . S
H452 C462 0.930 . S
H453 C463 0.930 . S
C454 H448 0.933 . S
C454 C455 1.355 . S
C454 C456 1.415 1_565 S
C455 C454 1.355 . S
C455 C457 1.419 . S
C456 C454 1.415 1_545 S
C456 C461 1.425 1_545 S
C456 C463 1.409 . S
C457 H449 0.930 . S
C457 C455 1.419 . S
C457 C458 1.362 . S
C458 H450 0.930 . S
C458 C457 1.362 . S
C458 C461 1.409 . S
C459 H451 0.933 . S
C459 C460 1.355 . S
C459 C461 1.415 1_545 S
C460 C459 1.355 . S
C460 C462 1.419 . S
C461 C456 1.425 1_565 S
C461 C458 1.409 . S
C461 C459 1.415 1_565 S
C462 H452 0.930 . S
C462 C460 1.419 . S
C462 C463 1.362 . S
C463 H453 0.930 . S
C463 C456 1.409 . S
C463 C462 1.362 . S
H464 C470 0.930 . S
H465 C473 0.930 . S
H466 C474 0.930 . S
H467 C475 0.930 . S
H468 C478 0.930 . S
H469 C479 0.930 . S
C470 H464 0.930 . S
C470 C471 1.355 . S
C470 C472 1.415 . S
C471 C470 1.355 . S
C471 C473 1.419 . S
C472 C470 1.415 . S
C472 C477 1.425 . S
C472 C479 1.409 . S
C473 H465 0.930 . S
C473 C471 1.419 . S
C473 C474 1.362 . S
C474 H466 0.930 . S
C474 C473 1.362 . S
C474 C477 1.409 . S
C475 H467 0.930 . S
C475 C476 1.355 . S
C475 C477 1.415 . S
C476 C475 1.355 . S
C476 C478 1.419 . S
C477 C472 1.425 . S
C477 C474 1.409 . S
C477 C475 1.415 . S
C478 H468 0.930 . S
C478 C476 1.419 . S
C478 C479 1.362 . S
C479 H469 0.930 . S
C479 C472 1.409 . S
C479 C478 1.362 . S
H480 C486 0.930 . S
H481 C489 0.930 . S
H482 C490 0.930 . S
H483 C491 0.930 . S
H484 C494 0.930 . S
H485 C495 0.930 . S
C486 H480 0.930 . S
C486 C487 1.355 . S
C486 C488 1.415 . S
C487 C486 1.355 . S
C487 C489 1.419 1_545 S
C488 C486 1.415 . S
C488 C493 1.425 1_545 S
C488 C495 1.409 . S
C489 H481 0.930 . S
C489 C487 1.419 1_565 S
C489 C490 1.362 . S
C490 H482 0.930 . S
C490 C489 1.362 . S
C490 C493 1.409 . S
C491 H483 0.930 . S
C491 C492 1.355 . S
C491 C493 1.415 . S
C492 C491 1.355 . S
C492 C494 1.419 1_565 S
C493 C488 1.425 1_565 S
C493 C490 1.409 . S
C493 C491 1.415 . S
C494 H484 0.930 . S
C494 C492 1.419 1_545 S
C494 C495 1.362 . S
C495 H485 0.930 . S
C495 C488 1.409 . S
C495 C494 1.362 . S
H496 C502 0.930 . S
H497 C505 0.930 . S
H498 C506 0.930 . S
H499 C507 0.930 . S
H500 C510 0.930 . S
H501 C511 0.930 . S
C502 H496 0.930 . S
C502 C503 1.355 . S
C502 C504 1.415 . S
C503 C502 1.355 . S
C503 C505 1.419 . S
C504 C502 1.415 . S
C504 C509 1.425 1_556 S
C504 C511 1.409 1_556 S
C505 H497 0.930 . S
C505 C503 1.419 . S
C505 C506 1.362 . S
C506 H498 0.930 . S
C506 C505 1.362 . S
C506 C509 1.409 1_556 S
C507 H499 0.930 . S
C507 C508 1.355 . S
C507 C509 1.415 . S
C508 C507 1.355 . S
C508 C510 1.419 . S
C509 C504 1.425 1_554 S
C509 C506 1.409 1_554 S
C509 C507 1.415 . S
C510 H500 0.930 . S
C510 C508 1.419 . S
C510 C511 1.362 . S
C511 H501 0.930 . S
C511 C504 1.409 1_554 S
C511 C510 1.362 . S
H512 C518 0.930 . S
H513 C521 0.930 . S
H514 C522 0.930 . S
H515 C523 0.930 . S
H516 C526 0.930 . S
H517 C527 0.930 . S
C518 H512 0.930 . S
C518 C519 1.355 . S
C518 C520 1.415 . S
C519 C518 1.355 . S
C519 C521 1.419 1_565 S
C520 C518 1.415 . S
C520 C525 1.425 1_565 S
C520 C527 1.409 . S
C521 H513 0.930 . S
C521 C519 1.419 1_545 S
C521 C522 1.362 . S
C522 H514 0.930 . S
C522 C521 1.362 . S
C522 C525 1.409 . S
C523 H515 0.930 . S
C523 C524 1.355 . S
C523 C525 1.415 . S
C524 C523 1.355 . S
C524 C526 1.419 1_545 S
C525 C520 1.425 1_545 S
C525 C522 1.409 . S
C525 C523 1.415 . S
C526 H516 0.930 . S
C526 C524 1.419 1_565 S
C526 C527 1.362 . S
C527 H517 0.930 . S
C527 C520 1.409 . S
C527 C526 1.362 . S
H528 C534 0.930 . S
H529 C537 0.930 . S
H530 C538 0.930 . S
H531 C539 0.930 . S
H532 C542 0.930 . S
H533 C543 0.930 . S
C534 H528 0.930 . S
C534 C535 1.355 . S
C534 C536 1.415 . S
C535 C534 1.355 . S
C535 C537 1.419 . S
C536 C534 1.415 . S
C536 C541 1.425 . S
C536 C543 1.409 . S
C537 H529 0.930 . S
C537 C535 1.419 . S
C537 C538 1.362 . S
C538 H530 0.930 . S
C538 C537 1.362 . S
C538 C541 1.409 . S
C539 H531 0.930 . S
C539 C540 1.355 . S
C539 C541 1.415 . S
C540 C539 1.355 . S
C540 C542 1.419 . S
C541 C536 1.425 . S
C541 C538 1.409 . S
C541 C539 1.415 . S
C542 H532 0.930 . S
C542 C540 1.419 . S
C542 C543 1.362 . S
C543 H533 0.930 . S
C543 C536 1.409 . S
C543 C542 1.362 . S
H544 C550 0.930 . S
H545 C553 0.930 . S
H546 C554 0.930 . S
H547 C555 0.930 . S
H548 C558 0.930 . S
H549 C559 0.930 . S
C550 H544 0.930 . S
C550 C551 1.355 . S
C550 C552 1.415 . S
C551 C550 1.355 . S
C551 C553 1.419 1_545 S
C552 C550 1.415 . S
C552 C557 1.425 1_545 S
C552 C559 1.409 . S
C553 H545 0.930 . S
C553 C551 1.419 1_565 S
C553 C554 1.362 . S
C554 H546 0.930 . S
C554 C553 1.362 . S
C554 C557 1.409 . S
C555 H547 0.930 . S
C555 C556 1.355 . S
C555 C557 1.415 . S
C556 C555 1.355 . S
C556 C558 1.419 1_565 S
C557 C552 1.425 1_565 S
C557 C554 1.409 . S
C557 C555 1.415 . S
C558 H548 0.930 . S
C558 C556 1.419 1_545 S
C558 C559 1.362 . S
C559 H549 0.930 . S
C559 C552 1.409 . S
C559 C558 1.362 . S
H560 C566 0.930 . S
H561 C569 0.930 . S
H562 C570 0.930 . S
H563 C571 0.930 . S
H564 C574 0.930 . S
H565 C575 0.930 . S
C566 H560 0.930 . S
C566 C567 1.355 . S
C566 C568 1.415 . S
C567 C566 1.355 . S
C567 C569 1.419 . S
C568 C566 1.415 . S
C568 C573 1.425 1_556 S
C568 C575 1.409 1_556 S
C569 H561 0.930 . S
C569 C567 1.419 . S
C569 C570 1.362 . S
C570 H562 0.930 . S
C570 C569 1.362 . S
C570 C573 1.409 1_556 S
C571 H563 0.930 . S
C571 C572 1.355 . S
C571 C573 1.415 . S
C572 C571 1.355 . S
C572 C574 1.419 . S
C573 C568 1.425 1_554 S
C573 C570 1.409 1_554 S
C573 C571 1.415 . S
C574 H564 0.930 . S
C574 C572 1.419 . S
C574 C575 1.362 . S
C575 H565 0.930 . S
C575 C568 1.409 1_554 S
C575 C574 1.362 . S
H576 C582 0.930 . S
H577 C585 0.930 . S
H578 C586 0.930 . S
H579 C587 0.930 . S
H580 C590 0.930 . S
H581 C591 0.930 . S
C582 H576 0.930 . S
C582 C583 1.355 . S
C582 C584 1.415 . S
C583 C582 1.355 . S
C583 C585 1.419 . S
C584 C582 1.415 . S
C584 C589 1.425 . S
C584 C591 1.409 . S
C585 H577 0.930 . S
C585 C583 1.419 . S
C585 C586 1.362 . S
C586 H578 0.930 . S
C586 C585 1.362 . S
C586 C589 1.409 . S
C587 H579 0.930 . S
C587 C588 1.355 . S
C587 C589 1.415 . S
C588 C587 1.355 . S
C588 C590 1.419 . S
C589 C584 1.425 . S
C589 C586 1.409 . S
C589 C587 1.415 . S
C590 H580 0.930 . S
C590 C588 1.419 . S
C590 C591 1.362 . S
C591 H581 0.930 . S
C591 C584 1.409 . S
C591 C590 1.362 . S
H592 C598 0.930 . S
H593 C601 0.930 . S
H594 C602 0.930 . S
H595 C603 0.930 . S
H596 C606 0.930 . S
H597 C607 0.930 . S
C598 H592 0.930 . S
C598 C599 1.355 . S
C598 C600 1.415 . S
C599 C598 1.355 . S
C599 C601 1.419 . S
C600 C598 1.415 . S
C600 C605 1.425 1_554 S
C600 C607 1.409 1_554 S
C601 H593 0.930 . S
C601 C599 1.419 . S
C601 C602 1.362 . S
C602 H594 0.930 . S
C602 C601 1.362 . S
C602 C605 1.409 1_554 S
C603 H595 0.930 . S
C603 C604 1.355 . S
C603 C605 1.415 . S
C604 C603 1.355 . S
C604 C606 1.419 . S
C605 C600 1.425 1_556 S
C605 C602 1.409 1_556 S
C605 C603 1.415 . S
C606 H596 0.930 . S
C606 C604 1.419 . S
C606 C607 1.362 . S
C607 H597 0.930 . S
C607 C600 1.409 1_556 S
C607 C606 1.362 . S
H608 C614 0.930 . S
H609 C617 0.930 . S
H610 C618 0.930 . S
H611 C619 0.930 . S
H612 C622 0.930 . S
H613 C623 0.930 . S
C614 H608 0.930 . S
C614 C615 1.355 . S
C614 C616 1.415 . S
C615 C614 1.355 . S
C615 C617 1.419 . S
C616 C614 1.415 . S
C616 C621 1.425 . S
C616 C623 1.409 . S
C617 H609 0.930 . S
C617 C615 1.419 . S
C617 C618 1.362 . S
C618 H610 0.930 . S
C618 C617 1.362 . S
C618 C621 1.409 . S
C619 H611 0.930 . S
C619 C620 1.355 . S
C619 C621 1.415 . S
C620 C619 1.355 . S
C620 C622 1.419 . S
C621 C616 1.425 . S
C621 C618 1.409 . S
C621 C619 1.415 . S
C622 H612 0.930 . S
C622 C620 1.419 . S
C622 C623 1.362 . S
C623 H613 0.930 . S
C623 C616 1.409 . S
C623 C622 1.362 . S
H624 C630 0.930 . S
H625 C633 0.930 . S
H626 C634 0.930 . S
H627 C635 0.930 . S
H628 C638 0.930 . S
H629 C639 0.930 . S
C630 H624 0.930 . S
C630 C631 1.355 . S
C630 C632 1.415 . S
C631 C630 1.355 . S
C631 C633 1.419 . S
C632 C630 1.415 . S
C632 C637 1.425 . S
C632 C639 1.409 . S
C633 H625 0.930 . S
C633 C631 1.419 . S
C633 C634 1.362 . S
C634 H626 0.930 . S
C634 C633 1.362 . S
C634 C637 1.409 . S
C635 H627 0.930 . S
C635 C636 1.355 . S
C635 C637 1.415 . S
C636 C635 1.355 . S
C636 C638 1.419 . S
C637 C632 1.425 . S
C637 C634 1.409 . S
C637 C635 1.415 . S
C638 H628 0.930 . S
C638 C636 1.419 . S
C638 C639 1.362 . S
C639 H629 0.930 . S
C639 C632 1.409 . S
C639 C638 1.362 . S
H640 C646 0.930 . S
H641 C649 0.930 . S
H642 C650 0.930 . S
H643 C651 0.930 . S
H644 C654 0.930 . S
H645 C655 0.930 . S
C646 H640 0.930 . S
C646 C647 1.355 . S
C646 C648 1.415 . S
C647 C646 1.355 . S
C647 C649 1.419 . S
C648 C646 1.415 . S
C648 C653 1.425 . S
C648 C655 1.409 . S
C649 H641 0.930 . S
C649 C647 1.419 . S
C649 C650 1.362 . S
C650 H642 0.930 . S
C650 C649 1.362 . S
C650 C653 1.409 . S
C651 H643 0.930 . S
C651 C652 1.355 . S
C651 C653 1.415 . S
C652 C651 1.355 . S
C652 C654 1.419 . S
C653 C648 1.425 . S
C653 C650 1.409 . S
C653 C651 1.415 . S
C654 H644 0.930 . S
C654 C652 1.419 . S
C654 C655 1.362 . S
C655 H645 0.930 . S
C655 C648 1.409 . S
C655 C654 1.362 . S
H656 C662 0.930 . S
H657 C665 0.930 . S
H658 C666 0.930 . S
H659 C667 0.930 . S
H660 C670 0.930 . S
H661 C671 0.930 . S
C662 H656 0.930 . S
C662 C663 1.355 . S
C662 C664 1.415 . S
C663 C662 1.355 . S
C663 C665 1.419 . S
C664 C662 1.415 . S
C664 C669 1.425 1_554 S
C664 C671 1.409 1_554 S
C665 H657 0.930 . S
C665 C663 1.419 . S
C665 C666 1.362 . S
C666 H658 0.930 . S
C666 C665 1.362 . S
C666 C669 1.409 1_554 S
C667 H659 0.930 . S
C667 C668 1.355 . S
C667 C669 1.415 . S
C668 C667 1.355 . S
C668 C670 1.419 . S
C669 C664 1.425 1_556 S
C669 C666 1.409 1_556 S
C669 C667 1.415 . S
C670 H660 0.930 . S
C670 C668 1.419 . S
C670 C671 1.362 . S
C671 H661 0.930 . S
C671 C664 1.409 1_556 S
C671 C670 1.362 . S
H672 C678 0.930 . S
H673 C681 0.930 . S
H674 C682 0.930 . S
H675 C683 0.930 . S
H676 C686 0.930 . S
H677 C687 0.930 . S
C678 H672 0.930 . S
C678 C679 1.355 . S
C678 C680 1.415 . S
C679 C678 1.355 . S
C679 C681 1.419 . S
C680 C678 1.415 . S
C680 C685 1.425 . S
C680 C687 1.409 . S
C681 H673 0.930 . S
C681 C679 1.419 . S
C681 C682 1.362 . S
C682 H674 0.930 . S
C682 C681 1.362 . S
C682 C685 1.409 . S
C683 H675 0.930 . S
C683 C684 1.355 . S
C683 C685 1.415 . S
C684 C683 1.355 . S
C684 C686 1.419 . S
C685 C680 1.425 . S
C685 C682 1.409 . S
C685 C683 1.415 . S
C686 H676 0.930 . S
C686 C684 1.419 . S
C686 C687 1.362 . S
C687 H677 0.930 . S
C687 C680 1.409 . S
C687 C686 1.362 . S
H688 C694 0.930 . S
H689 C697 0.930 . S
H690 C698 0.930 . S
H691 C699 0.930 . S
H692 C702 0.930 . S
H693 C703 0.930 . S
C694 H688 0.930 . S
C694 C695 1.355 . S
C694 C696 1.415 . S
C695 C694 1.355 . S
C695 C697 1.419 . S
C696 C694 1.415 . S
C696 C701 1.425 . S
C696 C703 1.409 . S
C697 H689 0.930 . S
C697 C695 1.419 . S
C697 C698 1.362 . S
C698 H690 0.930 . S
C698 C697 1.362 . S
C698 C701 1.409 . S
C699 H691 0.930 . S
C699 C700 1.355 . S
C699 C701 1.415 . S
C700 C699 1.355 . S
C700 C702 1.419 . S
C701 C696 1.425 . S
C701 C698 1.409 . S
C701 C699 1.415 . S
C702 H692 0.930 . S
C702 C700 1.419 . S
C702 C703 1.362 . S
C703 H693 0.930 . S
C703 C696 1.409 . S
C703 C702 1.362 . S
H704 C710 0.930 . S
H705 C713 0.930 . S
H706 C714 0.930 . S
H707 C715 0.930 . S
H708 C718 0.930 . S
H709 C719 0.930 . S
C710 H704 0.930 . S
C710 C711 1.355 . S
C710 C712 1.415 . S
C711 C710 1.355 . S
C711 C713 1.419 1_565 S
C712 C710 1.415 . S
C712 C717 1.425 . S
C712 C719 1.409 . S
C713 H705 0.930 . S
C713 C711 1.419 1_545 S
C713 C714 1.362 1_545 S
C714 H706 0.930 . S
C714 C713 1.362 1_565 S
C714 C717 1.409 . S
C715 H707 0.930 . S
C715 C716 1.355 . S
C715 C717 1.415 . S
C716 C715 1.355 . S
C716 C718 1.419 . S
C717 C712 1.425 . S
C717 C714 1.409 . S
C717 C715 1.415 . S
C718 H708 0.930 . S
C718 C716 1.419 . S
C718 C719 1.362 . S
C719 H709 0.930 . S
C719 C712 1.409 . S
C719 C718 1.362 . S
H720 C726 0.930 . S
H721 C729 0.930 . S
H722 C730 0.930 . S
H723 C731 0.930 1_565 S
H724 C734 0.930 . S
H725 C735 0.930 . S
C726 H720 0.930 . S
C726 C727 1.355 . S
C726 C728 1.415 . S
C727 C726 1.355 . S
C727 C729 1.419 . S
C728 C726 1.415 . S
C728 C733 1.425 . S
C728 C735 1.409 . S
C729 H721 0.930 . S
C729 C727 1.419 . S
C729 C730 1.362 . S
C730 H722 0.930 . S
C730 C729 1.362 . S
C730 C733 1.409 . S
C731 H723 0.930 1_545 S
C731 C732 1.355 . S
C731 C733 1.415 . S
C732 C731 1.355 . S
C732 C734 1.419 . S
C733 C728 1.425 . S
C733 C730 1.409 . S
C733 C731 1.415 . S
C734 H724 0.930 . S
C734 C732 1.419 . S
C734 C735 1.362 . S
C735 H725 0.930 . S
C735 C728 1.409 . S
C735 C734 1.362 . S
H736 C742 0.930 1_565 S
H737 C745 0.930 . S
H738 C746 0.930 . S
H739 C747 0.930 . S
H740 C750 0.930 . S
H741 C751 0.930 . S
C742 H736 0.930 1_545 S
C742 C743 1.355 . S
C742 C744 1.415 . S
C743 C742 1.355 . S
C743 C745 1.419 . S
C744 C742 1.415 . S
C744 C749 1.425 . S
C744 C751 1.409 . S
C745 H737 0.930 . S
C745 C743 1.419 . S
C745 C746 1.362 . S
C746 H738 0.930 . S
C746 C745 1.362 . S
C746 C749 1.409 . S
C747 H739 0.930 . S
C747 C748 1.355 . S
C747 C749 1.415 . S
C748 C747 1.355 . S
C748 C750 1.419 . S
C749 C744 1.425 . S
C749 C746 1.409 . S
C749 C747 1.415 . S
C750 H740 0.930 . S
C750 C748 1.419 . S
C750 C751 1.362 . S
C751 H741 0.930 . S
C751 C744 1.409 . S
C751 C750 1.362 . S
H752 C758 0.930 . S
H753 C761 0.930 1_545 S
H754 C762 0.930 . S
H755 C763 0.930 . S
H756 C766 0.930 . S
H757 C767 0.930 . S
C758 H752 0.930 . S
C758 C759 1.355 . S
C758 C760 1.415 . S
C759 C758 1.355 . S
C759 C761 1.419 . S
C760 C758 1.415 . S
C760 C765 1.425 . S
C760 C767 1.409 . S
C761 H753 0.930 1_565 S
C761 C759 1.419 . S
C761 C762 1.362 . S
C762 H754 0.930 . S
C762 C761 1.362 . S
C762 C765 1.409 . S
C763 H755 0.930 . S
C763 C764 1.355 . S
C763 C765 1.415 . S
C764 C763 1.355 . S
C764 C766 1.419 . S
C765 C760 1.425 . S
C765 C762 1.409 . S
C765 C763 1.415 . S
C766 H756 0.930 . S
C766 C764 1.419 . S
C766 C767 1.362 . S
C767 H757 0.930 . S
C767 C760 1.409 . S
C767 C766 1.362 . S
H768 C774 0.930 . S
H769 C777 0.930 . S
H770 C778 0.930 . S
H771 C779 0.930 . S
H772 C782 0.930 . S
H773 C783 0.930 . S
C774 H768 0.930 . S
C774 C775 1.355 . S
C774 C776 1.415 . S
C775 C774 1.355 . S
C775 C777 1.419 . S
C776 C774 1.415 . S
C776 C781 1.425 . S
C776 C783 1.409 . S
C777 H769 0.930 . S
C777 C775 1.419 . S
C777 C778 1.362 . S
C778 H770 0.930 . S
C778 C777 1.362 . S
C778 C781 1.409 . S
C779 H771 0.930 . S
C779 C780 1.355 . S
C779 C781 1.415 . S
C780 C779 1.355 . S
C780 C782 1.419 1_545 S
C781 C776 1.425 . S
C781 C778 1.409 . S
C781 C779 1.415 . S
C782 H772 0.930 . S
C782 C780 1.419 1_565 S
C782 C783 1.362 1_565 S
C783 H773 0.930 . S
C783 C776 1.409 . S
C783 C782 1.362 1_545 S
H784 C790 0.930 1_545 S
H785 C793 0.930 . S
H786 C794 0.930 . S
H787 C795 0.930 . S
H788 C798 0.930 . S
H789 C799 0.930 . S
C790 H784 0.930 1_565 S
C790 C791 1.355 . S
C790 C792 1.415 . S
C791 C790 1.355 . S
C791 C793 1.419 . S
C792 C790 1.415 . S
C792 C797 1.425 . S
C792 C799 1.409 . S
C793 H785 0.930 . S
C793 C791 1.419 . S
C793 C794 1.362 . S
C794 H786 0.930 . S
C794 C793 1.362 . S
C794 C797 1.409 . S
C795 H787 0.930 . S
C795 C796 1.355 . S
C795 C797 1.415 . S
C796 C795 1.355 . S
C796 C798 1.419 . S
C797 C792 1.425 . S
C797 C794 1.409 . S
C797 C795 1.415 . S
C798 H788 0.930 . S
C798 C796 1.419 . S
C798 C799 1.362 . S
C799 H789 0.930 . S
C799 C792 1.409 . S
C799 C798 1.362 . S
H800 C806 0.930 . S
H801 C809 0.930 . S
H802 C810 0.930 . S
H803 C811 0.930 . S
H804 C814 0.930 . S
H805 C815 0.930 . S
C806 H800 0.930 . S
C806 C807 1.355 . S
C806 C808 1.415 . S
C807 C806 1.355 . S
C807 C809 1.419 . S
C808 C806 1.415 . S
C808 C813 1.425 . S
C808 C815 1.409 . S
C809 H801 0.930 . S
C809 C807 1.419 . S
C809 C810 1.362 . S
C810 H802 0.930 . S
C810 C809 1.362 . S
C810 C813 1.409 . S
C811 H803 0.930 . S
C811 C812 1.355 . S
C811 C813 1.415 . S
C812 C811 1.355 . S
C812 C814 1.419 . S
C813 C808 1.425 . S
C813 C810 1.409 . S
C813 C811 1.415 . S
C814 H804 0.930 . S
C814 C812 1.419 . S
C814 C815 1.362 . S
C815 H805 0.930 . S
C815 C808 1.409 . S
C815 C814 1.362 . S
H816 C822 0.930 . S
H817 C825 0.930 . S
H818 C826 0.930 . S
H819 C827 0.930 1_565 S
H820 C830 0.930 . S
H821 C831 0.930 . S
C822 H816 0.930 . S
C822 C823 1.355 . S
C822 C824 1.415 . S
C823 C822 1.355 . S
C823 C825 1.419 . S
C824 C822 1.415 . S
C824 C829 1.425 . S
C824 C831 1.409 . S
C825 H817 0.930 . S
C825 C823 1.419 . S
C825 C826 1.362 . S
C826 H818 0.930 . S
C826 C825 1.362 . S
C826 C829 1.409 . S
C827 H819 0.930 1_545 S
C827 C828 1.355 . S
C827 C829 1.415 . S
C828 C827 1.355 . S
C828 C830 1.419 . S
C829 C824 1.425 . S
C829 C826 1.409 . S
C829 C827 1.415 . S
C830 H820 0.930 . S
C830 C828 1.419 . S
C830 C831 1.362 . S
C831 H821 0.930 . S
C831 C824 1.409 . S
C831 C830 1.362 . S
H832 C838 0.930 . S
H833 C841 0.930 . S
H834 C842 0.930 . S
H835 C843 0.930 . S
H836 C846 0.930 . S
H837 C847 0.930 . S
C838 H832 0.930 . S
C838 C839 1.355 . S
C838 C840 1.415 . S
C839 C838 1.355 . S
C839 C841 1.419 . S
C840 C838 1.415 . S
C840 C845 1.425 . S
C840 C847 1.409 . S
C841 H833 0.930 . S
C841 C839 1.419 . S
C841 C842 1.362 . S
C842 H834 0.930 . S
C842 C841 1.362 . S
C842 C845 1.409 . S
C843 H835 0.930 . S
C843 C844 1.355 . S
C843 C845 1.415 . S
C844 C843 1.355 . S
C844 C846 1.419 . S
C845 C840 1.425 . S
C845 C842 1.409 . S
C845 C843 1.415 . S
C846 H836 0.930 . S
C846 C844 1.419 . S
C846 C847 1.362 . S
C847 H837 0.930 . S
C847 C840 1.409 . S
C847 C846 1.362 . S
H848 C854 0.930 . S
H849 C857 0.930 . S
H850 C858 0.930 . S
H851 C859 0.930 . S
H852 C862 0.930 . S
H853 C863 0.930 . S
C854 H848 0.930 . S
C854 C855 1.355 . S
C854 C856 1.415 . S
C855 C854 1.355 . S
C855 C857 1.419 . S
C856 C854 1.415 . S
C856 C861 1.425 . S
C856 C863 1.409 . S
C857 H849 0.930 . S
C857 C855 1.419 . S
C857 C858 1.362 . S
C858 H850 0.930 . S
C858 C857 1.362 . S
C858 C861 1.409 . S
C859 H851 0.930 . S
C859 C860 1.355 . S
C859 C861 1.415 . S
C860 C859 1.355 . S
C860 C862 1.419 . S
C861 C856 1.425 . S
C861 C858 1.409 . S
C861 C859 1.415 . S
C862 H852 0.930 . S
C862 C860 1.419 . S
C862 C863 1.362 . S
C863 H853 0.930 . S
C863 C856 1.409 . S
C863 C862 1.362 . S
H864 C870 0.930 . S
H865 C873 0.930 . S
H866 C874 0.930 . S
H867 C875 0.930 . S
H868 C878 0.930 . S
H869 C879 0.930 . S
C870 H864 0.930 . S
C870 C871 1.355 . S
C870 C872 1.415 . S
C871 C870 1.355 . S
C871 C873 1.419 . S
C872 C870 1.415 . S
C872 C877 1.425 . S
C872 C879 1.409 . S
C873 H865 0.930 . S
C873 C871 1.419 . S
C873 C874 1.362 . S
C874 H866 0.930 . S
C874 C873 1.362 . S
C874 C877 1.409 . S
C875 H867 0.930 . S
C875 C876 1.355 . S
C875 C877 1.415 . S
C876 C875 1.355 . S
C876 C878 1.419 . S
C877 C872 1.425 . S
C877 C874 1.409 . S
C877 C875 1.415 . S
C878 H868 0.930 . S
C878 C876 1.419 . S
C878 C879 1.362 . S
C879 H869 0.930 . S
C879 C872 1.409 . S
C879 C878 1.362 . S
H880 C886 0.930 . S
H881 C889 0.930 . S
H882 C890 0.930 . S
H883 C891 0.930 . S
H884 C894 0.930 . S
H885 C895 0.930 . S
C886 H880 0.930 . S
C886 C887 1.355 . S
C886 C888 1.415 . S
C887 C886 1.355 . S
C887 C889 1.419 . S
C888 C886 1.415 . S
C888 C893 1.425 . S
C888 C895 1.409 . S
C889 H881 0.930 . S
C889 C887 1.419 . S
C889 C890 1.362 . S
C890 H882 0.930 . S
C890 C889 1.362 . S
C890 C893 1.409 . S
C891 H883 0.930 . S
C891 C892 1.355 . S
C891 C893 1.415 . S
C892 C891 1.355 . S
C892 C894 1.419 . S
C893 C888 1.425 . S
C893 C890 1.409 . S
C893 C891 1.415 . S
C894 H884 0.930 . S
C894 C892 1.419 . S
C894 C895 1.362 . S
C895 H885 0.930 . S
C895 C888 1.409 . S
C895 C894 1.362 . S
H896 C902 0.930 . S
H897 C905 0.930 . S
H898 C906 0.930 . S
H899 C907 0.930 . S
H900 C910 0.930 . S
H901 C911 0.930 . S
C902 H896 0.930 . S
C902 C903 1.355 . S
C902 C904 1.415 . S
C903 C902 1.355 . S
C903 C905 1.419 . S
C904 C902 1.415 . S
C904 C909 1.425 . S
C904 C911 1.409 . S
C905 H897 0.930 . S
C905 C903 1.419 . S
C905 C906 1.362 . S
C906 H898 0.930 . S
C906 C905 1.362 . S
C906 C909 1.409 . S
C907 H899 0.930 . S
C907 C908 1.355 . S
C907 C909 1.415 . S
C908 C907 1.355 . S
C908 C910 1.419 . S
C909 C904 1.425 . S
C909 C906 1.409 . S
C909 C907 1.415 . S
C910 H900 0.930 . S
C910 C908 1.419 . S
C910 C911 1.362 . S
C911 H901 0.930 . S
C911 C904 1.409 . S
C911 C910 1.362 . S
H912 C918 0.930 . S
H913 C921 0.930 . S
H914 C922 0.930 . S
H915 C923 0.930 . S
H916 C926 0.930 . S
H917 C927 0.930 . S
C918 H912 0.930 . S
C918 C919 1.355 . S
C918 C920 1.415 . S
C919 C918 1.355 . S
C919 C921 1.419 . S
C920 C918 1.415 . S
C920 C925 1.425 . S
C920 C927 1.409 . S
C921 H913 0.930 . S
C921 C919 1.419 . S
C921 C922 1.362 . S
C922 H914 0.930 . S
C922 C921 1.362 . S
C922 C925 1.409 . S
C923 H915 0.930 . S
C923 C924 1.355 . S
C923 C925 1.415 . S
C924 C923 1.355 . S
C924 C926 1.419 . S
C925 C920 1.425 . S
C925 C922 1.409 . S
C925 C923 1.415 . S
C926 H916 0.930 . S
C926 C924 1.419 . S
C926 C927 1.362 . S
C927 H917 0.930 . S
C927 C920 1.409 . S
C927 C926 1.362 . S
H928 C934 0.930 . S
H929 C937 0.930 . S
H930 C938 0.930 . S
H931 C939 0.930 . S
H932 C942 0.930 . S
H933 C943 0.930 . S
C934 H928 0.930 . S
C934 C935 1.355 . S
C934 C936 1.415 . S
C935 C934 1.355 . S
C935 C937 1.419 . S
C936 C934 1.415 . S
C936 C941 1.425 . S
C936 C943 1.409 . S
C937 H929 0.930 . S
C937 C935 1.419 . S
C937 C938 1.362 . S
C938 H930 0.930 . S
C938 C937 1.362 . S
C938 C941 1.409 . S
C939 H931 0.930 . S
C939 C940 1.355 . S
C939 C941 1.415 . S
C940 C939 1.355 . S
C940 C942 1.419 . S
C941 C936 1.425 . S
C941 C938 1.409 . S
C941 C939 1.415 . S
C942 H932 0.930 . S
C942 C940 1.419 . S
C942 C943 1.362 . S
C943 H933 0.930 . S
C943 C936 1.409 . S
C943 C942 1.362 . S
H944 C950 0.930 . S
H945 C953 0.930 . S
H946 C954 0.930 . S
H947 C955 0.930 . S
H948 C958 0.930 . S
H949 C959 0.930 . S
C950 H944 0.930 . S
C950 C951 1.355 . S
C950 C952 1.415 . S
C951 C950 1.355 . S
C951 C953 1.419 . S
C952 C950 1.415 . S
C952 C957 1.425 . S
C952 C959 1.409 . S
C953 H945 0.930 . S
C953 C951 1.419 . S
C953 C954 1.362 . S
C954 H946 0.930 . S
C954 C953 1.362 . S
C954 C957 1.409 . S
C955 H947 0.930 . S
C955 C956 1.355 . S
C955 C957 1.415 . S
C956 C955 1.355 . S
C956 C958 1.419 . S
C957 C952 1.425 . S
C957 C954 1.409 . S
C957 C955 1.415 . S
C958 H948 0.930 . S
C958 C956 1.419 . S
C958 C959 1.362 . S
C959 H949 0.930 . S
C959 C952 1.409 . S
C959 C958 1.362 . S
H960 C966 0.930 . S
H961 C969 0.930 . S
H962 C970 0.930 . S
H963 C971 0.930 . S
H964 C974 0.930 . S
H965 C975 0.930 . S
C966 H960 0.930 . S
C966 C967 1.355 . S
C966 C968 1.415 . S
C967 C966 1.355 . S
C967 C969 1.419 . S
C968 C966 1.415 . S
C968 C973 1.425 . S
C968 C975 1.409 . S
C969 H961 0.930 . S
C969 C967 1.419 . S
C969 C970 1.362 . S
C970 H962 0.930 . S
C970 C969 1.362 . S
C970 C973 1.409 . S
C971 H963 0.930 . S
C971 C972 1.355 . S
C971 C973 1.415 . S
C972 C971 1.355 . S
C972 C974 1.419 . S
C973 C968 1.425 . S
C973 C970 1.409 . S
C973 C971 1.415 . S
C974 H964 0.930 . S
C974 C972 1.419 . S
C974 C975 1.362 . S
C975 H965 0.930 . S
C975 C968 1.409 . S
C975 C974 1.362 . S
H976 C982 0.930 . S
H977 C985 0.930 . S
H978 C986 0.930 . S
H979 C987 0.930 1_655 S
H980 C990 0.930 . S
H981 C991 0.930 . S
C982 H976 0.930 . S
C982 C983 1.355 . S
C982 C984 1.415 . S
C983 C982 1.355 . S
C983 C985 1.419 . S
C984 C982 1.415 . S
C984 C989 1.425 . S
C984 C991 1.409 . S
C985 H977 0.930 . S
C985 C983 1.419 . S
C985 C986 1.362 . S
C986 H978 0.930 . S
C986 C985 1.362 . S
C986 C989 1.409 . S
C987 H979 0.930 1_455 S
C987 C988 1.355 . S
C987 C989 1.415 . S
C988 C987 1.355 . S
C988 C990 1.419 . S
C989 C984 1.425 . S
C989 C986 1.409 . S
C989 C987 1.415 . S
C990 H980 0.930 . S
C990 C988 1.419 . S
C990 C991 1.362 . S
C991 H981 0.930 . S
C991 C984 1.409 . S
C991 C990 1.362 . S
H992 C998 0.930 . S
H993 C1001 0.930 . S
H994 C1002 0.930 . S
H995 C1003 0.930 . S
H996 C1006 0.930 . S
H997 C1007 0.930 . S
C998 H992 0.930 . S
C998 C999 1.355 . S
C998 C1000 1.415 . S
C999 C998 1.355 . S
C999 C1001 1.419 . S
C1000 C998 1.415 . S
C1000 C1005 1.425 . S
C1000 C1007 1.409 . S
C1001 H993 0.930 . S
C1001 C999 1.419 . S
C1001 C1002 1.362 . S
C1002 H994 0.930 . S
C1002 C1001 1.362 . S
C1002 C1005 1.409 . S
C1003 H995 0.930 . S
C1003 C1004 1.355 . S
C1003 C1005 1.415 . S
C1004 C1003 1.355 . S
C1004 C1006 1.419 . S
C1005 C1000 1.425 . S
C1005 C1002 1.409 . S
C1005 C1003 1.415 . S
C1006 H996 0.930 . S
C1006 C1004 1.419 . S
C1006 C1007 1.362 . S
C1007 H997 0.930 . S
C1007 C1000 1.409 . S
C1007 C1006 1.362 . S
H1008 C1014 0.930 . S
H1009 C1017 0.930 . S
H1010 C1018 0.930 . S
H1011 C1019 0.930 . S
H1012 C1022 0.930 . S
H1013 C1023 0.930 . S
C1014 H1008 0.930 . S
C1014 C1015 1.355 . S
C1014 C1016 1.415 . S
C1015 C1014 1.355 . S
C1015 C1017 1.419 . S
C1016 C1014 1.415 . S
C1016 C1021 1.425 . S
C1016 C1023 1.409 . S
C1017 H1009 0.930 . S
C1017 C1015 1.419 . S
C1017 C1018 1.362 . S
C1018 H1010 0.930 . S
C1018 C1017 1.362 . S
C1018 C1021 1.409 . S
C1019 H1011 0.930 . S
C1019 C1020 1.355 . S
C1019 C1021 1.415 . S
C1020 C1019 1.355 . S
C1020 C1022 1.419 . S
C1021 C1016 1.425 . S
C1021 C1018 1.409 . S
C1021 C1019 1.415 . S
C1022 H1012 0.930 . S
C1022 C1020 1.419 . S
C1022 C1023 1.362 . S
C1023 H1013 0.930 . S
C1023 C1016 1.409 . S
C1023 C1022 1.362 . S
H1024 C1030 0.930 . S
H1025 C1033 0.930 . S
H1026 C1034 0.930 . S
H1027 C1035 0.930 . S
H1028 C1038 0.930 . S
H1029 C1039 0.930 . S
C1030 H1024 0.930 . S
C1030 C1031 1.355 . S
C1030 C1032 1.415 . S
C1031 C1030 1.355 . S
C1031 C1033 1.419 . S
C1032 C1030 1.415 . S
C1032 C1037 1.425 . S
C1032 C1039 1.409 . S
C1033 H1025 0.930 . S
C1033 C1031 1.419 . S
C1033 C1034 1.362 . S
C1034 H1026 0.930 . S
C1034 C1033 1.362 . S
C1034 C1037 1.409 . S
C1035 H1027 0.930 . S
C1035 C1036 1.355 . S
C1035 C1037 1.415 . S
C1036 C1035 1.355 . S
C1036 C1038 1.419 . S
C1037 C1032 1.425 . S
C1037 C1034 1.409 . S
C1037 C1035 1.415 . S
C1038 H1028 0.930 . S
C1038 C1036 1.419 . S
C1038 C1039 1.362 . S
C1039 H1029 0.930 . S
C1039 C1032 1.409 . S
C1039 C1038 1.362 . S
H1040 C1046 0.930 . S
H1041 C1049 0.930 . S
H1042 C1050 0.930 . S
H1043 C1051 0.930 . S
H1044 C1054 0.930 . S
H1045 C1055 0.930 . S
C1046 H1040 0.930 . S
C1046 C1047 1.355 . S
C1046 C1048 1.415 . S
C1047 C1046 1.355 . S
C1047 C1049 1.419 . S
C1048 C1046 1.415 . S
C1048 C1053 1.425 . S
C1048 C1055 1.409 . S
C1049 H1041 0.930 . S
C1049 C1047 1.419 . S
C1049 C1050 1.362 . S
C1050 H1042 0.930 . S
C1050 C1049 1.362 . S
C1050 C1053 1.409 . S
C1051 H1043 0.930 . S
C1051 C1052 1.355 . S
C1051 C1053 1.415 . S
C1052 C1051 1.355 . S
C1052 C1054 1.419 . S
C1053 C1048 1.425 . S
C1053 C1050 1.409 . S
C1053 C1051 1.415 . S
C1054 H1044 0.930 . S
C1054 C1052 1.419 . S
C1054 C1055 1.362 . S
C1055 H1045 0.930 . S
C1055 C1048 1.409 . S
C1055 C1054 1.362 . S
H1056 C1062 0.930 . S
H1057 C1065 0.930 . S
H1058 C1066 0.930 . S
H1059 C1067 0.930 . S
H1060 C1070 0.930 . S
H1061 C1071 0.930 . S
C1062 H1056 0.930 . S
C1062 C1063 1.355 . S
C1062 C1064 1.415 . S
C1063 C1062 1.355 . S
C1063 C1065 1.419 . S
C1064 C1062 1.415 . S
C1064 C1069 1.425 . S
C1064 C1071 1.409 . S
C1065 H1057 0.930 . S
C1065 C1063 1.419 . S
C1065 C1066 1.362 . S
C1066 H1058 0.930 . S
C1066 C1065 1.362 . S
C1066 C1069 1.409 . S
C1067 H1059 0.930 . S
C1067 C1068 1.355 . S
C1067 C1069 1.415 . S
C1068 C1067 1.355 . S
C1068 C1070 1.419 . S
C1069 C1064 1.425 . S
C1069 C1066 1.409 . S
C1069 C1067 1.415 . S
C1070 H1060 0.930 . S
C1070 C1068 1.419 . S
C1070 C1071 1.362 . S
C1071 H1061 0.930 . S
C1071 C1064 1.409 . S
C1071 C1070 1.362 . S
H1072 C1078 0.930 . S
H1073 C1081 0.930 . S
H1074 C1082 0.930 . S
H1075 C1083 0.913 1_655 S
H1076 C1086 0.930 . S
H1077 C1087 0.930 . S
C1078 H1072 0.930 . S
C1078 C1079 1.355 . S
C1078 C1080 1.415 . S
C1079 C1078 1.355 . S
C1079 C1081 1.419 . S
C1080 C1078 1.415 . S
C1080 C1085 1.425 . S
C1080 C1087 1.409 . S
C1081 H1073 0.930 . S
C1081 C1079 1.419 . S
C1081 C1082 1.362 . S
C1082 H1074 0.930 . S
C1082 C1081 1.362 . S
C1082 C1085 1.409 . S
C1083 H1075 0.913 1_455 S
C1083 C1084 1.355 . S
C1083 C1085 1.415 . S
C1084 C1083 1.355 . S
C1084 C1086 1.419 . S
C1085 C1080 1.425 . S
C1085 C1082 1.409 . S
C1085 C1083 1.415 . S
C1086 H1076 0.930 . S
C1086 C1084 1.419 . S
C1086 C1087 1.362 . S
C1087 H1077 0.930 . S
C1087 C1080 1.409 . S
C1087 C1086 1.362 . S
H1088 C1094 0.930 . S
H1089 C1097 0.930 . S
H1090 C1098 0.930 . S
H1091 C1099 0.930 . S
H1092 C1102 0.930 . S
H1093 C1103 0.930 . S
C1094 H1088 0.930 . S
C1094 C1095 1.355 . S
C1094 C1096 1.415 . S
C1095 C1094 1.355 . S
C1095 C1097 1.419 . S
C1096 C1094 1.415 . S
C1096 C1101 1.425 . S
C1096 C1103 1.409 . S
C1097 H1089 0.930 . S
C1097 C1095 1.419 . S
C1097 C1098 1.362 . S
C1098 H1090 0.930 . S
C1098 C1097 1.362 . S
C1098 C1101 1.409 . S
C1099 H1091 0.930 . S
C1099 C1100 1.355 . S
C1099 C1101 1.415 . S
C1100 C1099 1.355 . S
C1100 C1102 1.419 . S
C1101 C1096 1.425 . S
C1101 C1098 1.409 . S
C1101 C1099 1.415 . S
C1102 H1092 0.930 . S
C1102 C1100 1.419 . S
C1102 C1103 1.362 . S
C1103 H1093 0.930 . S
C1103 C1096 1.409 . S
C1103 C1102 1.362 . S
H1104 C1110 0.930 . S
H1105 C1113 0.930 . S
H1106 C1114 0.930 . S
H1107 C1115 0.930 . S
H1108 C1118 0.930 . S
H1109 C1119 0.930 . S
C1110 H1104 0.930 . S
C1110 C1111 1.355 . S
C1110 C1112 1.415 . S
C1111 C1110 1.355 . S
C1111 C1113 1.419 1_655 S
C1112 C1110 1.415 . S
C1112 C1117 1.425 . S
C1112 C1119 1.409 . S
C1113 H1105 0.930 . S
C1113 C1111 1.419 1_455 S
C1113 C1114 1.362 1_455 S
C1114 H1106 0.930 . S
C1114 C1113 1.362 1_655 S
C1114 C1117 1.409 . S
C1115 H1107 0.930 . S
C1115 C1116 1.355 . S
C1115 C1117 1.415 . S
C1116 C1115 1.355 . S
C1116 C1118 1.419 . S
C1117 C1112 1.425 . S
C1117 C1114 1.409 . S
C1117 C1115 1.415 . S
C1118 H1108 0.930 . S
C1118 C1116 1.419 . S
C1118 C1119 1.362 . S
C1119 H1109 0.930 . S
C1119 C1112 1.409 . S
C1119 C1118 1.362 . S
H1120 C1126 0.930 . S
H1121 C1129 0.930 . S
H1122 C1130 0.930 . S
H1123 C1131 0.930 . S
H1124 C1134 0.930 . S
H1125 C1135 0.930 . S
C1126 H1120 0.930 . S
C1126 C1127 1.355 . S
C1126 C1128 1.415 . S
C1127 C1126 1.355 . S
C1127 C1129 1.419 . S
C1128 C1126 1.415 . S
C1128 C1133 1.425 . S
C1128 C1135 1.409 . S
C1129 H1121 0.930 . S
C1129 C1127 1.419 . S
C1129 C1130 1.362 . S
C1130 H1122 0.930 . S
C1130 C1129 1.362 . S
C1130 C1133 1.409 . S
C1131 H1123 0.930 . S
C1131 C1132 1.355 . S
C1131 C1133 1.415 . S
C1132 C1131 1.355 . S
C1132 C1134 1.419 . S
C1133 C1128 1.425 . S
C1133 C1130 1.409 . S
C1133 C1131 1.415 . S
C1134 H1124 0.930 . S
C1134 C1132 1.419 . S
C1134 C1135 1.362 . S
C1135 H1125 0.930 . S
C1135 C1128 1.409 . S
C1135 C1134 1.362 . S
H1136 C1142 0.930 . S
H1137 C1145 0.930 . S
H1138 C1146 0.930 . S
H1139 C1147 0.930 . S
H1140 C1150 0.930 . S
H1141 C1151 0.930 . S
C1142 H1136 0.930 . S
C1142 C1143 1.355 . S
C1142 C1144 1.415 . S
C1143 C1142 1.355 . S
C1143 C1145 1.419 . S
C1144 C1142 1.415 . S
C1144 C1149 1.425 . S
C1144 C1151 1.409 . S
C1145 H1137 0.930 . S
C1145 C1143 1.419 . S
C1145 C1146 1.362 . S
C1146 H1138 0.930 . S
C1146 C1145 1.362 . S
C1146 C1149 1.409 . S
C1147 H1139 0.930 . S
C1147 C1148 1.355 . S
C1147 C1149 1.415 . S
C1148 C1147 1.355 . S
C1148 C1150 1.419 . S
C1149 C1144 1.425 . S
C1149 C1146 1.409 . S
C1149 C1147 1.415 . S
C1150 H1140 0.930 . S
C1150 C1148 1.419 . S
C1150 C1151 1.362 . S
C1151 H1141 0.930 . S
C1151 C1144 1.409 . S
C1151 C1150 1.362 . S
H1152 C1158 0.930 . S
H1153 C1161 0.930 . S
H1154 C1162 0.930 . S
H1155 C1163 0.930 . S
H1156 C1166 0.930 . S
H1157 C1167 0.930 . S
C1158 H1152 0.930 . S
C1158 C1159 1.355 . S
C1158 C1160 1.415 . S
C1159 C1158 1.355 . S
C1159 C1161 1.419 . S
C1160 C1158 1.415 . S
C1160 C1165 1.425 . S
C1160 C1167 1.409 . S
C1161 H1153 0.930 . S
C1161 C1159 1.419 . S
C1161 C1162 1.362 . S
C1162 H1154 0.930 . S
C1162 C1161 1.362 . S
C1162 C1165 1.409 . S
C1163 H1155 0.930 . S
C1163 C1164 1.355 . S
C1163 C1165 1.415 . S
C1164 C1163 1.355 . S
C1164 C1166 1.419 . S
C1165 C1160 1.425 . S
C1165 C1162 1.409 . S
C1165 C1163 1.415 . S
C1166 H1156 0.930 . S
C1166 C1164 1.419 . S
C1166 C1167 1.362 . S
C1167 H1157 0.930 . S
C1167 C1160 1.409 . S
C1167 C1166 1.362 . S
H1168 C1174 0.930 . S
H1169 C1177 0.930 . S
H1170 C1178 0.930 . S
H1171 C1179 0.930 . S
H1172 C1182 0.930 . S
H1173 C1183 0.930 . S
C1174 H1168 0.930 . S
C1174 C1175 1.355 . S
C1174 C1176 1.415 . S
C1175 C1174 1.355 . S
C1175 C1177 1.419 . S
C1176 C1174 1.415 . S
C1176 C1181 1.425 . S
C1176 C1183 1.409 . S
C1177 H1169 0.930 . S
C1177 C1175 1.419 . S
C1177 C1178 1.362 . S
C1178 H1170 0.930 . S
C1178 C1177 1.362 . S
C1178 C1181 1.409 . S
C1179 H1171 0.930 . S
C1179 C1180 1.355 . S
C1179 C1181 1.415 . S
C1180 C1179 1.355 . S
C1180 C1182 1.419 . S
C1181 C1176 1.425 . S
C1181 C1178 1.409 . S
C1181 C1179 1.415 . S
C1182 H1172 0.930 . S
C1182 C1180 1.419 . S
C1182 C1183 1.362 . S
C1183 H1173 0.930 . S
C1183 C1176 1.409 . S
C1183 C1182 1.362 . S
H1184 C1190 0.930 . S
H1185 C1193 0.930 . S
H1186 C1194 0.930 . S
H1187 C1195 0.930 . S
H1188 C1198 0.930 . S
H1189 C1199 0.930 . S
C1190 H1184 0.930 . S
C1190 C1191 1.355 . S
C1190 C1192 1.415 . S
C1191 C1190 1.355 . S
C1191 C1193 1.419 . S
C1192 C1190 1.415 . S
C1192 C1197 1.425 . S
C1192 C1199 1.409 . S
C1193 H1185 0.930 . S
C1193 C1191 1.419 . S
C1193 C1194 1.362 . S
C1194 H1186 0.930 . S
C1194 C1193 1.362 . S
C1194 C1197 1.409 . S
C1195 H1187 0.930 . S
C1195 C1196 1.355 . S
C1195 C1197 1.415 . S
C1196 C1195 1.355 . S
C1196 C1198 1.419 . S
C1197 C1192 1.425 . S
C1197 C1194 1.409 . S
C1197 C1195 1.415 . S
C1198 H1188 0.930 . S
C1198 C1196 1.419 . S
C1198 C1199 1.362 . S
C1199 H1189 0.930 . S
C1199 C1192 1.409 . S
C1199 C1198 1.362 . S
H1200 C1206 0.930 . S
H1201 C1209 0.930 . S
H1202 C1210 0.930 . S
H1203 C1211 0.930 . S
H1204 C1214 0.930 . S
H1205 C1215 0.930 . S
C1206 H1200 0.930 . S
C1206 C1207 1.355 . S
C1206 C1208 1.415 . S
C1207 C1206 1.355 . S
C1207 C1209 1.419 1_655 S
C1208 C1206 1.415 . S
C1208 C1213 1.425 . S
C1208 C1215 1.409 . S
C1209 H1201 0.930 . S
C1209 C1207 1.419 1_455 S
C1209 C1210 1.362 1_455 S
C1210 H1202 0.930 . S
C1210 C1209 1.362 1_655 S
C1210 C1213 1.409 . S
C1211 H1203 0.930 . S
C1211 C1212 1.355 . S
C1211 C1213 1.415 . S
C1212 C1211 1.355 . S
C1212 C1214 1.419 . S
C1213 C1208 1.425 . S
C1213 C1210 1.409 . S
C1213 C1211 1.415 . S
C1214 H1204 0.930 . S
C1214 C1212 1.419 . S
C1214 C1215 1.362 . S
C1215 H1205 0.930 . S
C1215 C1208 1.409 . S
C1215 C1214 1.362 . S
H1216 C1222 0.930 . S
H1217 C1225 0.930 . S
H1218 C1226 0.930 . S
H1219 C1227 0.930 . S
H1220 C1230 0.930 . S
H1221 C1231 0.930 . S
C1222 H1216 0.930 . S
C1222 C1223 1.355 . S
C1222 C1224 1.415 . S
C1223 C1222 1.355 . S
C1223 C1225 1.419 . S
C1224 C1222 1.415 . S
C1224 C1229 1.425 . S
C1224 C1231 1.409 . S
C1225 H1217 0.930 . S
C1225 C1223 1.419 . S
C1225 C1226 1.362 . S
C1226 H1218 0.930 . S
C1226 C1225 1.362 . S
C1226 C1229 1.409 . S
C1227 H1219 0.930 . S
C1227 C1228 1.355 . S
C1227 C1229 1.415 . S
C1228 C1227 1.355 . S
C1228 C1230 1.419 . S
C1229 C1224 1.425 . S
C1229 C1226 1.409 . S
C1229 C1227 1.415 . S
C1230 H1220 0.930 . S
C1230 C1228 1.419 . S
C1230 C1231 1.362 . S
C1231 H1221 0.930 . S
C1231 C1224 1.409 . S
C1231 C1230 1.362 . S
H1232 C1238 0.930 . S
H1233 C1241 0.930 . S
H1234 C1242 0.930 . S
H1235 C1243 0.930 . S
H1236 C1246 0.930 . S
H1237 C1247 0.930 . S
C1238 H1232 0.930 . S
C1238 C1239 1.355 . S
C1238 C1240 1.415 . S
C1239 C1238 1.355 . S
C1239 C1241 1.419 . S
C1240 C1238 1.415 . S
C1240 C1245 1.425 . S
C1240 C1247 1.409 . S
C1241 H1233 0.930 . S
C1241 C1239 1.419 . S
C1241 C1242 1.362 . S
C1242 H1234 0.930 . S
C1242 C1241 1.362 . S
C1242 C1245 1.409 . S
C1243 H1235 0.930 . S
C1243 C1244 1.355 . S
C1243 C1245 1.415 . S
C1244 C1243 1.355 . S
C1244 C1246 1.419 . S
C1245 C1240 1.425 . S
C1245 C1242 1.409 . S
C1245 C1243 1.415 . S
C1246 H1236 0.930 . S
C1246 C1244 1.419 . S
C1246 C1247 1.362 . S
C1247 H1237 0.930 . S
C1247 C1240 1.409 . S
C1247 C1246 1.362 . S
H1248 C1254 0.930 . S
H1249 C1257 0.930 . S
H1250 C1258 0.930 . S
H1251 C1259 0.930 . S
H1252 C1262 0.930 . S
H1253 C1263 0.930 . S
C1254 H1248 0.930 . S
C1254 C1255 1.355 . S
C1254 C1256 1.415 . S
C1255 C1254 1.355 . S
C1255 C1257 1.419 . S
C1256 C1254 1.415 . S
C1256 C1261 1.425 . S
C1256 C1263 1.409 . S
C1257 H1249 0.930 . S
C1257 C1255 1.419 . S
C1257 C1258 1.362 . S
C1258 H1250 0.930 . S
C1258 C1257 1.362 . S
C1258 C1261 1.409 . S
C1259 H1251 0.930 . S
C1259 C1260 1.355 . S
C1259 C1261 1.415 . S
C1260 C1259 1.355 . S
C1260 C1262 1.419 . S
C1261 C1256 1.425 . S
C1261 C1258 1.409 . S
C1261 C1259 1.415 . S
C1262 H1252 0.930 . S
C1262 C1260 1.419 . S
C1262 C1263 1.362 . S
C1263 H1253 0.930 . S
C1263 C1256 1.409 . S
C1263 C1262 1.362 . S
H1264 C1270 0.930 . S
H1265 C1273 0.930 . S
H1266 C1274 0.930 . S
H1267 C1275 0.930 1_455 S
H1268 C1278 0.930 . S
H1269 C1279 0.930 . S
C1270 H1264 0.930 . S
C1270 C1271 1.355 . S
C1270 C1272 1.415 . S
C1271 C1270 1.355 . S
C1271 C1273 1.419 . S
C1272 C1270 1.415 . S
C1272 C1277 1.425 . S
C1272 C1279 1.409 . S
C1273 H1265 0.930 . S
C1273 C1271 1.419 . S
C1273 C1274 1.362 . S
C1274 H1266 0.930 . S
C1274 C1273 1.362 . S
C1274 C1277 1.409 . S
C1275 H1267 0.930 1_655 S
C1275 C1276 1.355 . S
C1275 C1277 1.415 . S
C1276 C1275 1.355 . S
C1276 C1278 1.419 . S
C1277 C1272 1.425 . S
C1277 C1274 1.409 . S
C1277 C1275 1.415 . S
C1278 H1268 0.930 . S
C1278 C1276 1.419 . S
C1278 C1279 1.362 . S
C1279 H1269 0.930 . S
C1279 C1272 1.409 . S
C1279 C1278 1.362 . S
H1280 C1286 0.930 . S
H1281 C1289 0.930 . S
H1282 C1290 0.930 . S
H1283 C1291 0.930 . S
H1284 C1294 0.930 . S
H1285 C1295 0.930 . S
C1286 H1280 0.930 . S
C1286 C1287 1.355 . S
C1286 C1288 1.415 . S
C1287 C1286 1.355 . S
C1287 C1289 1.419 . S
C1288 C1286 1.415 . S
C1288 C1293 1.425 . S
C1288 C1295 1.409 . S
C1289 H1281 0.930 . S
C1289 C1287 1.419 . S
C1289 C1290 1.362 . S
C1290 H1282 0.930 . S
C1290 C1289 1.362 . S
C1290 C1293 1.409 . S
C1291 H1283 0.930 . S
C1291 C1292 1.355 . S
C1291 C1293 1.415 . S
C1292 C1291 1.355 . S
C1292 C1294 1.419 . S
C1293 C1288 1.425 . S
C1293 C1290 1.409 . S
C1293 C1291 1.415 . S
C1294 H1284 0.930 . S
C1294 C1292 1.419 . S
C1294 C1295 1.362 . S
C1295 H1285 0.930 . S
C1295 C1288 1.409 . S
C1295 C1294 1.362 . S
H1296 C1302 0.930 . S
H1297 C1305 0.930 . S
H1298 C1306 0.930 . S
H1299 C1307 0.930 . S
H1300 C1310 0.930 . S
H1301 C1311 0.930 . S
C1302 H1296 0.930 . S
C1302 C1303 1.355 . S
C1302 C1304 1.415 . S
C1303 C1302 1.355 . S
C1303 C1305 1.419 . S
C1304 C1302 1.415 . S
C1304 C1309 1.425 . S
C1304 C1311 1.409 . S
C1305 H1297 0.930 . S
C1305 C1303 1.419 . S
C1305 C1306 1.362 . S
C1306 H1298 0.930 . S
C1306 C1305 1.362 . S
C1306 C1309 1.409 . S
C1307 H1299 0.930 . S
C1307 C1308 1.355 . S
C1307 C1309 1.415 . S
C1308 C1307 1.355 . S
C1308 C1310 1.419 . S
C1309 C1304 1.425 . S
C1309 C1306 1.409 . S
C1309 C1307 1.415 . S
C1310 H1300 0.930 . S
C1310 C1308 1.419 . S
C1310 C1311 1.362 . S
C1311 H1301 0.930 . S
C1311 C1304 1.409 . S
C1311 C1310 1.362 . S
H1312 C1318 0.930 . S
H1313 C1321 0.930 . S
H1314 C1322 0.930 . S
H1315 C1323 0.930 . S
H1316 C1326 0.930 . S
H1317 C1327 0.930 . S
C1318 H1312 0.930 . S
C1318 C1319 1.355 . S
C1318 C1320 1.415 . S
C1319 C1318 1.355 . S
C1319 C1321 1.419 . S
C1320 C1318 1.415 . S
C1320 C1325 1.425 . S
C1320 C1327 1.409 . S
C1321 H1313 0.930 . S
C1321 C1319 1.419 . S
C1321 C1322 1.362 . S
C1322 H1314 0.930 . S
C1322 C1321 1.362 . S
C1322 C1325 1.409 . S
C1323 H1315 0.930 . S
C1323 C1324 1.355 . S
C1323 C1325 1.415 . S
C1324 C1323 1.355 . S
C1324 C1326 1.419 . S
C1325 C1320 1.425 . S
C1325 C1322 1.409 . S
C1325 C1323 1.415 . S
C1326 H1316 0.930 . S
C1326 C1324 1.419 . S
C1326 C1327 1.362 . S
C1327 H1317 0.930 . S
C1327 C1320 1.409 . S
C1327 C1326 1.362 . S
H1328 C1334 0.930 . S
H1329 C1337 0.930 . S
H1330 C1338 0.930 . S
H1331 C1339 0.930 . S
H1332 C1342 0.930 . S
H1333 C1343 0.930 . S
C1334 H1328 0.930 . S
C1334 C1335 1.355 . S
C1334 C1336 1.415 . S
C1335 C1334 1.355 . S
C1335 C1337 1.419 . S
C1336 C1334 1.415 . S
C1336 C1341 1.425 . S
C1336 C1343 1.409 . S
C1337 H1329 0.930 . S
C1337 C1335 1.419 . S
C1337 C1338 1.362 . S
C1338 H1330 0.930 . S
C1338 C1337 1.362 . S
C1338 C1341 1.409 . S
C1339 H1331 0.930 . S
C1339 C1340 1.355 . S
C1339 C1341 1.415 . S
C1340 C1339 1.355 . S
C1340 C1342 1.419 . S
C1341 C1336 1.425 . S
C1341 C1338 1.409 . S
C1341 C1339 1.415 . S
C1342 H1332 0.930 . S
C1342 C1340 1.419 . S
C1342 C1343 1.362 . S
C1343 H1333 0.930 . S
C1343 C1336 1.409 . S
C1343 C1342 1.362 . S
H1344 C1350 0.930 . S
H1345 C1353 0.930 . S
H1346 C1354 0.930 . S
H1347 C1355 0.930 . S
H1348 C1358 0.930 . S
H1349 C1359 0.930 . S
C1350 H1344 0.930 . S
C1350 C1351 1.355 . S
C1350 C1352 1.415 . S
C1351 C1350 1.355 . S
C1351 C1353 1.419 . S
C1352 C1350 1.415 . S
C1352 C1357 1.425 . S
C1352 C1359 1.409 . S
C1353 H1345 0.930 . S
C1353 C1351 1.419 . S
C1353 C1354 1.362 . S
C1354 H1346 0.930 . S
C1354 C1353 1.362 . S
C1354 C1357 1.409 . S
C1355 H1347 0.930 . S
C1355 C1356 1.355 . S
C1355 C1357 1.415 . S
C1356 C1355 1.355 . S
C1356 C1358 1.419 . S
C1357 C1352 1.425 . S
C1357 C1354 1.409 . S
C1357 C1355 1.415 . S
C1358 H1348 0.930 . S
C1358 C1356 1.419 . S
C1358 C1359 1.362 . S
C1359 H1349 0.930 . S
C1359 C1352 1.409 . S
C1359 C1358 1.362 . S
H1360 C1366 0.930 . S
H1361 C1369 0.930 . S
H1362 C1370 0.930 . S
H1363 C1371 0.930 . S
H1364 C1374 0.930 . S
H1365 C1375 0.930 . S
C1366 H1360 0.930 . S
C1366 C1367 1.355 . S
C1366 C1368 1.415 . S
C1367 C1366 1.355 . S
C1367 C1369 1.419 . S
C1368 C1366 1.415 . S
C1368 C1373 1.425 . S
C1368 C1375 1.409 . S
C1369 H1361 0.930 . S
C1369 C1367 1.419 . S
C1369 C1370 1.362 . S
C1370 H1362 0.930 . S
C1370 C1369 1.362 . S
C1370 C1373 1.409 . S
C1371 H1363 0.930 . S
C1371 C1372 1.355 . S
C1371 C1373 1.415 . S
C1372 C1371 1.355 . S
C1372 C1374 1.419 . S
C1373 C1368 1.425 . S
C1373 C1370 1.409 . S
C1373 C1371 1.415 . S
C1374 H1364 0.930 . S
C1374 C1372 1.419 . S
C1374 C1375 1.362 . S
C1375 H1365 0.930 . S
C1375 C1368 1.409 . S
C1375 C1374 1.362 . S
H1376 C1382 0.930 . S
H1377 C1385 0.930 . S
H1378 C1386 0.930 . S
H1379 C1387 0.930 . S
H1380 C1390 0.930 . S
H1381 C1391 0.930 . S
C1382 H1376 0.930 . S
C1382 C1383 1.355 . S
C1382 C1384 1.415 . S
C1383 C1382 1.355 . S
C1383 C1385 1.419 . S
C1384 C1382 1.415 . S
C1384 C1389 1.425 . S
C1384 C1391 1.409 . S
C1385 H1377 0.930 . S
C1385 C1383 1.419 . S
C1385 C1386 1.362 . S
C1386 H1378 0.930 . S
C1386 C1385 1.362 . S
C1386 C1389 1.409 . S
C1387 H1379 0.930 . S
C1387 C1388 1.355 . S
C1387 C1389 1.415 . S
C1388 C1387 1.355 . S
C1388 C1390 1.419 . S
C1389 C1384 1.425 . S
C1389 C1386 1.409 . S
C1389 C1387 1.415 . S
C1390 H1380 0.930 . S
C1390 C1388 1.419 . S
C1390 C1391 1.362 . S
C1391 H1381 0.930 . S
C1391 C1384 1.409 . S
C1391 C1390 1.362 . S
H1392 C1398 0.930 . S
H1393 C1401 0.930 . S
H1394 C1402 0.930 . S
H1395 C1403 0.930 . S
H1396 C1406 0.930 . S
H1397 C1407 0.930 . S
C1398 H1392 0.930 . S
C1398 C1399 1.355 . S
C1398 C1400 1.415 . S
C1399 C1398 1.355 . S
C1399 C1401 1.419 1_455 S
C1400 C1398 1.415 . S
C1400 C1405 1.425 . S
C1400 C1407 1.409 . S
C1401 H1393 0.930 . S
C1401 C1399 1.419 1_655 S
C1401 C1402 1.362 1_655 S
C1402 H1394 0.930 . S
C1402 C1401 1.362 1_455 S
C1402 C1405 1.409 . S
C1403 H1395 0.930 . S
C1403 C1404 1.355 . S
C1403 C1405 1.415 . S
C1404 C1403 1.355 . S
C1404 C1406 1.419 . S
C1405 C1400 1.425 . S
C1405 C1402 1.409 . S
C1405 C1403 1.415 . S
C1406 H1396 0.930 . S
C1406 C1404 1.419 . S
C1406 C1407 1.362 . S
C1407 H1397 0.930 . S
C1407 C1400 1.409 . S
C1407 C1406 1.362 . S
H1408 C1414 0.930 . S
H1409 C1417 0.930 . S
H1410 C1418 0.930 . S
H1411 C1419 0.930 . S
H1412 C1422 0.930 . S
H1413 C1423 0.930 . S
C1414 H1408 0.930 . S
C1414 C1415 1.355 . S
C1414 C1416 1.415 . S
C1415 C1414 1.355 . S
C1415 C1417 1.419 . S
C1416 C1414 1.415 . S
C1416 C1421 1.425 . S
C1416 C1423 1.409 . S
C1417 H1409 0.930 . S
C1417 C1415 1.419 . S
C1417 C1418 1.362 . S
C1418 H1410 0.930 . S
C1418 C1417 1.362 . S
C1418 C1421 1.409 . S
C1419 H1411 0.930 . S
C1419 C1420 1.355 . S
C1419 C1421 1.415 . S
C1420 C1419 1.355 . S
C1420 C1422 1.419 . S
C1421 C1416 1.425 . S
C1421 C1418 1.409 . S
C1421 C1419 1.415 . S
C1422 H1412 0.930 . S
C1422 C1420 1.419 . S
C1422 C1423 1.362 . S
C1423 H1413 0.930 . S
C1423 C1416 1.409 . S
C1423 C1422 1.362 . S
H1424 C1430 0.930 . S
H1425 C1433 0.930 . S
H1426 C1434 0.930 . S
H1427 C1435 0.930 . S
H1428 C1438 0.930 . S
H1429 C1439 0.930 . S
C1430 H1424 0.930 . S
C1430 C1431 1.355 . S
C1430 C1432 1.415 . S
C1431 C1430 1.355 . S
C1431 C1433 1.419 . S
C1432 C1430 1.415 . S
C1432 C1437 1.425 . S
C1432 C1439 1.409 . S
C1433 H1425 0.930 . S
C1433 C1431 1.419 . S
C1433 C1434 1.362 . S
C1434 H1426 0.930 . S
C1434 C1433 1.362 . S
C1434 C1437 1.409 . S
C1435 H1427 0.930 . S
C1435 C1436 1.355 . S
C1435 C1437 1.415 . S
C1436 C1435 1.355 . S
C1436 C1438 1.419 1_455 S
C1437 C1432 1.425 . S
C1437 C1434 1.409 . S
C1437 C1435 1.415 . S
C1438 H1428 0.930 . S
C1438 C1436 1.419 1_655 S
C1438 C1439 1.362 1_655 S
C1439 H1429 0.930 . S
C1439 C1432 1.409 . S
C1439 C1438 1.362 1_455 S
H1440 C1446 0.930 . S
H1441 C1449 0.930 . S
H1442 C1450 0.930 . S
H1443 C1451 0.930 . S
H1444 C1454 0.930 . S
H1445 C1455 0.930 . S
C1446 H1440 0.930 . S
C1446 C1447 1.355 . S
C1446 C1448 1.415 . S
C1447 C1446 1.355 . S
C1447 C1449 1.419 . S
C1448 C1446 1.415 . S
C1448 C1453 1.425 . S
C1448 C1455 1.409 . S
C1449 H1441 0.930 . S
C1449 C1447 1.419 . S
C1449 C1450 1.362 . S
C1450 H1442 0.930 . S
C1450 C1449 1.362 . S
C1450 C1453 1.409 . S
C1451 H1443 0.930 . S
C1451 C1452 1.355 . S
C1451 C1453 1.415 . S
C1452 C1451 1.355 . S
C1452 C1454 1.419 . S
C1453 C1448 1.425 . S
C1453 C1450 1.409 . S
C1453 C1451 1.415 . S
C1454 H1444 0.930 . S
C1454 C1452 1.419 . S
C1454 C1455 1.362 . S
C1455 H1445 0.930 . S
C1455 C1448 1.409 . S
C1455 C1454 1.362 . S
H1456 C1462 0.930 . S
H1457 C1465 0.930 . S
H1458 C1466 0.930 . S
H1459 C1467 0.930 . S
H1460 C1470 0.930 . S
H1461 C1471 0.930 . S
C1462 H1456 0.930 . S
C1462 C1463 1.355 . S
C1462 C1464 1.415 . S
C1463 C1462 1.355 . S
C1463 C1465 1.419 . S
C1464 C1462 1.415 . S
C1464 C1469 1.425 . S
C1464 C1471 1.409 . S
C1465 H1457 0.930 . S
C1465 C1463 1.419 . S
C1465 C1466 1.362 . S
C1466 H1458 0.930 . S
C1466 C1465 1.362 . S
C1466 C1469 1.409 . S
C1467 H1459 0.930 . S
C1467 C1468 1.355 . S
C1467 C1469 1.415 . S
C1468 C1467 1.355 . S
C1468 C1470 1.419 . S
C1469 C1464 1.425 . S
C1469 C1466 1.409 . S
C1469 C1467 1.415 . S
C1470 H1460 0.930 . S
C1470 C1468 1.419 . S
C1470 C1471 1.362 . S
C1471 H1461 0.930 . S
C1471 C1464 1.409 . S
C1471 C1470 1.362 . S
C455 C67 1.496 . S
C460 C11 1.521 . S
C471 C81 1.491 . S
C476 C25 1.502 . S
C487 C95 1.523 . S
C492 C39 1.506 . S
C503 C53 1.519 . S
C508 C109 1.517 . S
C519 C123 1.503 . S
C524 C179 1.523 . S
C535 C193 1.523 . S
C540 C137 1.502 . S
C551 C151 1.519 . S
C556 C207 1.517 . S
C567 C221 1.502 . S
C572 C165 1.523 . S
C583 C235 1.492 . S
C588 C291 1.516 . S
C599 C305 1.514 . S
C604 C249 1.491 . S
C615 C319 1.515 . S
C620 C263 1.520 . S
C631 C333 1.490 . S
C636 C277 1.513 . S
C647 C347 1.515 . S
C652 C403 1.520 . S
C663 C361 1.521 . S
C668 C417 1.496 . S
C679 C375 1.507 . S
C684 C431 1.490 . S
C695 C389 1.523 . S
C700 C445 1.504 . S
C711 C9 1.314 1_565 S
C716 C107 1.318 . S
C727 C23 1.292 . S
C732 C65 1.302 1_545 S
C743 C37 1.287 1_545 S
C748 C79 1.281 . S
C759 C93 1.319 1_565 S
C764 C51 1.318 . S
C775 C219 1.313 . S
C780 C121 1.305 1_545 S
C791 C177 1.307 1_565 S
C796 C135 1.297 . S
C807 C191 1.298 . S
C812 C149 1.308 1_565 S
C823 C163 1.288 . S
C828 C205 1.298 1_545 S
C839 C331 1.311 . S
C844 C233 1.302 . S
C855 C289 1.283 . S
C860 C247 1.279 . S
C871 C303 1.303 . S
C876 C261 1.312 . S
C887 C275 1.282 . S
C892 C317 1.279 . S
C903 C345 1.300 . S
C908 C443 1.309 . S
C919 C359 1.280 . S
C924 C401 1.285 . S
C935 C373 1.283 . S
C940 C415 1.279 . S
C951 C429 1.317 . S
C956 C387 1.310 . S
C967 C5 1.472 . S
C972 C350 1.440 . S
C983 C19 1.463 . S
C988 C140 1.470 1_455 S
C999 C33 1.468 . S
C1004 C378 1.459 . S
C1015 C112 1.468 . S
C1020 C47 1.466 . S
C1031 C434 1.454 . S
C1036 C61 1.469 . S
C1047 C75 1.463 . S
C1052 C168 1.463 . S
C1063 C89 1.463 . S
C1068 C406 1.464 . S
C1079 C103 1.464 . S
C1084 C196 1.471 1_455 S
C1095 C238 1.468 . S
C1100 C117 1.463 . S
C1111 C28 1.429 1_655 S
C1116 C131 1.472 . S
C1127 C266 1.471 . S
C1132 C145 1.463 . S
C1143 C159 1.463 . S
C1148 C0 1.471 . S
C1159 C322 1.439 . S
C1164 C173 1.467 . S
C1175 C56 1.450 . S
C1180 C187 1.464 . S
C1191 C294 1.446 . S
C1196 C201 1.465 . S
C1207 C84 1.428 1_655 S
C1212 C215 1.472 . S
C1223 C126 1.430 . S
C1228 C229 1.469 . S
C1239 C243 1.463 . S
C1244 C364 1.471 . S
C1255 C257 1.464 . S
C1260 C154 1.471 . S
C1271 C271 1.463 . S
C1276 C336 1.468 1_655 S
C1287 C285 1.472 . S
C1292 C210 1.434 . S
C1303 C392 1.468 1_655 S
C1308 C299 1.463 . S
C1319 C313 1.466 . S
C1324 C182 1.469 . S
C1335 C327 1.472 . S
C1340 C420 1.441 . S
C1351 C341 1.463 . S
C1356 C14 1.459 . S
C1367 C355 1.467 . S
C1372 C252 1.436 . S
C1383 C42 1.439 . S
C1388 C369 1.472 . S
C1399 C224 1.427 1_455 S
C1404 C383 1.472 . S
C1415 C397 1.468 . S
C1420 C98 1.432 . S
C1431 C411 1.471 . S
C1436 C280 1.427 1_455 S
C1447 C70 1.432 . S
C1452 C425 1.468 . S
C1463 C308 1.469 . S
C1468 C439 1.463 . S
