# Generated by pormake.
# Topology wji, (4)-cn, num edge types: 1
# Building blocks:
#     Node 0, Type 0, BuildingBlock: ICAMEG_clean_sbu_1, # of connection points: 4
#     Node 1, Type 0, BuildingBlock: ICAMEG_clean_sbu_1, # of connection points: 4
#     Node 2, Type 0, BuildingBlock: ICAMEG_clean_sbu_1, # of connection points: 4
#     Node 3, Type 0, BuildingBlock: ICAMEG_clean_sbu_1, # of connection points: 4
#     Node 4, Type 0, BuildingBlock: ICAMEG_clean_sbu_1, # of connection points: 4
#     Node 5, Type 0, BuildingBlock: ICAMEG_clean_sbu_1, # of connection points: 4
#     Node 6, Type 0, BuildingBlock: ICAMEG_clean_sbu_1, # of connection points: 4
#     Node 7, Type 0, BuildingBlock: ICAMEG_clean_sbu_1, # of connection points: 4
#     Node 8, Type 0, BuildingBlock: ICAMEG_clean_sbu_1, # of connection points: 4
#     Node 9, Type 0, BuildingBlock: ICAMEG_clean_sbu_1, # of connection points: 4
#     Node 10, Type 0, BuildingBlock: ICAMEG_clean_sbu_1, # of connection points: 4
#     Node 11, Type 0, BuildingBlock: ICAMEG_clean_sbu_1, # of connection points: 4
#     Edge 12, Type (0, 0), BuildingBlock: XIVTED_clean_linker_0, # of connection points: 2
#     Edge 13, Type (0, 0), BuildingBlock: XIVTED_clean_linker_0, # of connection points: 2
#     Edge 14, Type (0, 0), BuildingBlock: XIVTED_clean_linker_0, # of connection points: 2
#     Edge 15, Type (0, 0), BuildingBlock: XIVTED_clean_linker_0, # of connection points: 2
#     Edge 16, Type (0, 0), BuildingBlock: XIVTED_clean_linker_0, # of connection points: 2
#     Edge 17, Type (0, 0), BuildingBlock: XIVTED_clean_linker_0, # of connection points: 2
#     Edge 18, Type (0, 0), BuildingBlock: XIVTED_clean_linker_0, # of connection points: 2
#     Edge 19, Type (0, 0), BuildingBlock: XIVTED_clean_linker_0, # of connection points: 2
#     Edge 20, Type (0, 0), BuildingBlock: XIVTED_clean_linker_0, # of connection points: 2
#     Edge 21, Type (0, 0), BuildingBlock: XIVTED_clean_linker_0, # of connection points: 2
#     Edge 22, Type (0, 0), BuildingBlock: XIVTED_clean_linker_0, # of connection points: 2
#     Edge 23, Type (0, 0), BuildingBlock: XIVTED_clean_linker_0, # of connection points: 2
#     Edge 24, Type (0, 0), BuildingBlock: XIVTED_clean_linker_0, # of connection points: 2
#     Edge 25, Type (0, 0), BuildingBlock: XIVTED_clean_linker_0, # of connection points: 2
#     Edge 26, Type (0, 0), BuildingBlock: XIVTED_clean_linker_0, # of connection points: 2
#     Edge 27, Type (0, 0), BuildingBlock: XIVTED_clean_linker_0, # of connection points: 2
#     Edge 28, Type (0, 0), BuildingBlock: XIVTED_clean_linker_0, # of connection points: 2
#     Edge 29, Type (0, 0), BuildingBlock: XIVTED_clean_linker_0, # of connection points: 2
#     Edge 30, Type (0, 0), BuildingBlock: XIVTED_clean_linker_0, # of connection points: 2
#     Edge 31, Type (0, 0), BuildingBlock: XIVTED_clean_linker_0, # of connection points: 2
#     Edge 32, Type (0, 0), BuildingBlock: XIVTED_clean_linker_0, # of connection points: 2
#     Edge 33, Type (0, 0), BuildingBlock: XIVTED_clean_linker_0, # of connection points: 2
#     Edge 34, Type (0, 0), BuildingBlock: XIVTED_clean_linker_0, # of connection points: 2
#     Edge 35, Type (0, 0), BuildingBlock: XIVTED_clean_linker_0, # of connection points: 2
# Relax obj value: 0.320
# Max RMSD: 0.211
# Mean RMSD: 0.211
data_MOF--net-wji--node1-ICAMEG_clean_sbu_1--edge1-XIVTED_clean_linker_0
_symmetry_space_group_name_H-M    P1
_symmetry_Int_Tables_number       1
_symmetry_cell_setting            triclinic
loop_
_symmetry_equiv_pos_as_xyz
'x, y, z'
_cell_length_a     60.850376
_cell_length_b     60.834843
_cell_length_c     23.533025
_cell_angle_alpha  90.027569
_cell_angle_beta   89.945372
_cell_angle_gamma 120.00806
loop_
_atom_site_label
_atom_site_type_symbol
_atom_site_fract_x
_atom_site_fract_y
_atom_site_fract_z
_atom_type_partial_charge
Co0 Co 0.42513 0.35826 0.46309 0.0
Co1 Co 0.44291 0.32344 0.381 0.0
O2 O 0.42588 0.32704 0.44816 0.0
C3 C 0.375 0.31536 0.50724 0.0
O4 O 0.37985 0.29785 0.48907 0.0
C5 C 0.46019 0.30423 0.4788 0.0
O6 O 0.46507 0.32502 0.506 0.0
O7 O 0.47539 0.35458 0.40326 0.0
O8 O 0.45959 0.37937 0.42877 0.0
H9 H 0.49834 0.35424 0.20747 0.0
H10 H 0.41726 0.32255 0.55873 0.0
O11 O 0.39055 0.33883 0.49852 0.0
H12 H 0.48912 0.40502 0.61729 0.0
H13 H 0.40624 0.4169 0.57758 0.0
H14 H 0.43889 0.40457 0.39561 0.0
H15 H 0.46824 0.40053 0.52499 0.0
H16 H 0.40826 0.37798 0.56007 0.0
O17 O 0.45256 0.30123 0.42725 0.0
H18 H 0.47615 0.35833 0.29111 0.0
H19 H 0.44685 0.28049 0.33093 0.0
H20 H 0.43738 0.44386 0.41152 0.0
H21 H 0.4372 0.32634 0.65165 0.0
H22 H 0.42098 0.45023 0.50308 0.0
H23 H 0.47351 0.3678 0.6816 0.0
O24 O 0.40914 0.35518 0.38805 0.0
H25 H 0.36535 0.2383 0.41512 0.0
H26 H 0.41291 0.30543 0.27367 0.0
H27 H 0.37277 0.26757 0.24592 0.0
H28 H 0.34871 0.23362 0.31685 0.0
H29 H 0.40542 0.27662 0.44128 0.0
H30 H 0.46888 0.2756 0.24802 0.0
H31 H 0.49476 0.31263 0.18549 0.0
O32 O 0.43265 0.34489 0.33257 0.0
C33 C 0.47817 0.37631 0.41506 0.0
C34 C 0.48706 0.33795 0.2343 0.0
C35 C 0.47056 0.29382 0.25711 0.0
N36 N 0.4601 0.31964 0.31559 0.0
C37 C 0.47441 0.34014 0.28162 0.0
C38 C 0.45818 0.29672 0.30408 0.0
C39 C 0.48507 0.3146 0.22203 0.0
C40 C 0.43259 0.34079 0.57163 0.0
N41 N 0.44112 0.36137 0.53658 0.0
C42 C 0.44403 0.34277 0.62426 0.0
C43 C 0.46444 0.36601 0.64096 0.0
C44 C 0.47322 0.38688 0.60489 0.0
C45 C 0.46132 0.38418 0.55256 0.0
C46 C 0.41348 0.41437 0.53756 0.0
C47 C 0.43187 0.40726 0.43569 0.0
C48 C 0.41462 0.39235 0.52733 0.0
N49 N 0.42391 0.38909 0.47702 0.0
C50 C 0.431 0.42952 0.4444 0.0
C51 C 0.42176 0.43307 0.49575 0.0
C52 C 0.41706 0.35318 0.33921 0.0
C53 C 0.37564 0.25297 0.38384 0.0
C54 C 0.40244 0.2909 0.30501 0.0
C55 C 0.37978 0.26942 0.28893 0.0
C56 C 0.36631 0.25037 0.32872 0.0
N57 N 0.41145 0.29337 0.35923 0.0
C58 C 0.39838 0.27471 0.39838 0.0
Co59 Co 0.07583 0.42028 0.63606 0.0
Co60 Co 0.12796 0.43959 0.55124 0.0
O61 O 0.10753 0.42146 0.61724 0.0
C62 C 0.04162 0.36543 0.65764 0.0
O63 O 0.02678 0.36568 0.61743 0.0
C64 C 0.16408 0.45698 0.64942 0.0
O65 O 0.14781 0.46152 0.67609 0.0
O66 O 0.12831 0.47145 0.57517 0.0
O67 O 0.08838 0.45539 0.60644 0.0
H68 H 0.1516 0.49663 0.38075 0.0
H69 H 0.10248 0.40817 0.72555 0.0
O70 O 0.06296 0.38526 0.6671 0.0
H71 H 0.09712 0.48119 0.79958 0.0
H72 H 1.00065 0.39981 0.76124 0.0
H73 H 0.04151 0.43391 0.57597 0.0
H74 H 0.07905 0.46284 0.70605 0.0
H75 H 0.04139 0.40253 0.73726 0.0
O76 O 0.15983 0.44949 0.5977 0.0
H77 H 0.12537 0.47302 0.46332 0.0
H78 H 0.17565 0.44561 0.50082 0.0
H79 H 1.00079 0.43159 0.59828 0.0
H80 H 0.12044 0.42569 0.81969 0.0
H81 H 0.98008 0.41443 0.69149 0.0
H82 H 0.11792 0.46253 0.85721 0.0
O83 O 0.0623 0.4063 0.55942 0.0
H84 H 0.1356 0.36191 0.58207 0.0
H85 H 0.11803 0.41136 0.44184 0.0
H86 H 0.11673 0.37188 0.41189 0.0
H87 H 0.12564 0.3469 0.48221 0.0
H88 H 0.13646 0.40137 0.61034 0.0
H89 H 0.20255 0.46908 0.41896 0.0
H90 H 0.1905 0.49474 0.35815 0.0
O91 O 0.09621 0.42895 0.50327 0.0
C92 C 0.10957 0.47404 0.59043 0.0
C93 C 0.15701 0.48546 0.40683 0.0
C94 C 0.18563 0.47003 0.42833 0.0
N95 N 0.14889 0.45784 0.48655 0.0
C96 C 0.1422 0.47201 0.45352 0.0
C97 C 0.17037 0.45684 0.47471 0.0
C98 C 0.17885 0.48441 0.39421 0.0
C99 C 0.10098 0.42398 0.74186 0.0
N100 N 0.08959 0.43436 0.71036 0.0
C101 C 0.11133 0.43391 0.79509 0.0
C102 C 0.10996 0.45462 0.81605 0.0
C103 C 0.09833 0.46512 0.7837 0.0
C104 C 0.08822 0.45471 0.73063 0.0
C105 C 1.00949 0.40735 0.72051 0.0
C106 C 0.03264 0.42647 0.61666 0.0
C107 C 0.03257 0.40894 0.70668 0.0
N108 N 0.04386 0.41843 0.65527 0.0
C109 C 1.00958 0.42518 0.62905 0.0
C110 C 0.99796 0.41555 0.68135 0.0
C111 C 0.07224 0.41395 0.51042 0.0
C112 C 0.13174 0.37266 0.55101 0.0
C113 C 0.12181 0.40054 0.47277 0.0
C114 C 0.12111 0.37823 0.45552 0.0
C115 C 0.12613 0.36424 0.49498 0.0
N116 N 0.12744 0.40874 0.52774 0.0
C117 C 0.13227 0.39506 0.56673 0.0
Co118 Co 0.65813 0.07173 0.80407 0.0
Co119 Co 0.69669 0.12288 0.7177 0.0
O120 O 0.69087 0.10158 0.7851 0.0
C121 C 0.69803 0.05778 0.83503 0.0
O122 O 0.71653 0.07923 0.81523 0.0
C123 C 0.71597 0.15921 0.81606 0.0
O124 O 0.69486 0.14365 0.84272 0.0
O125 O 0.66639 0.12634 0.73577 0.0
O126 O 0.63977 0.08982 0.78034 0.0
H127 H 0.67151 0.15014 0.53958 0.0
H128 H 0.69977 0.09744 0.89005 0.0
O129 O 0.67499 0.05234 0.8304 0.0
H130 H 0.62422 0.09293 0.97831 0.0
H131 H 0.59775 0.99575 0.92088 0.0
H132 H 0.60811 0.04527 0.74698 0.0
H133 H 0.6218 0.07576 0.88229 0.0
H134 H 0.6387 0.03392 0.89905 0.0
O135 O 0.71922 0.15436 0.76483 0.0
H136 H 0.66449 0.12326 0.62382 0.0
H137 H 0.74196 0.16863 0.67043 0.0
H138 H 0.56671 1.00733 0.76751 0.0
H139 H 0.70289 0.11432 0.98628 0.0
H140 H 0.56135 0.98229 0.85501 0.0
H141 H 0.66497 0.11225 0.03124 0.0
O142 O 0.65554 0.05775 0.72609 0.0
H143 H 0.77937 0.12641 0.76033 0.0
H144 H 0.71505 0.10914 0.61329 0.0
H145 H 0.75217 0.10481 0.58966 0.0
H146 H 0.78472 0.11357 0.66341 0.0
H147 H 0.74174 0.13007 0.78244 0.0
H148 H 0.74979 0.19611 0.58697 0.0
H149 H 0.71443 0.18687 0.52073 0.0
O150 O 0.67496 0.0918 0.66893 0.0
C151 C 0.64496 0.111 0.7581 0.0
C152 C 0.68709 0.15433 0.56805 0.0
C153 C 0.73102 0.18015 0.59469 0.0
N154 N 0.70281 0.1443 0.6518 0.0
C155 C 0.68323 0.13915 0.61573 0.0
C156 C 0.72645 0.16457 0.64197 0.0
C157 C 0.71117 0.17495 0.55753 0.0
C158 C 0.68301 0.09589 0.90931 0.0
N159 N 0.6605 0.08512 0.88048 0.0
C160 C 0.68497 0.10575 0.96388 0.0
C161 C 0.66371 0.10466 0.98901 0.0
C162 C 0.64087 0.09384 0.95933 0.0
C163 C 0.63964 0.08419 0.90483 0.0
C164 C 0.59984 1.00653 0.88266 0.0
C165 C 0.60585 0.03457 0.78534 0.0
C166 C 0.62301 0.02812 0.86996 0.0
N167 N 0.62574 0.04195 0.82197 0.0
C168 C 0.5824 0.01306 0.79665 0.0
C169 C 0.57942 0.999 0.84571 0.0
C170 C 0.66159 0.06774 0.67673 0.0
C171 C 0.76532 0.12253 0.72782 0.0
C172 C 0.72893 0.11266 0.64587 0.0
C173 C 0.75001 0.11034 0.63211 0.0
C174 C 0.76829 0.1153 0.67347 0.0
N175 N 0.72609 0.11968 0.69936 0.0
C176 C 0.744 0.12467 0.74004 0.0
Co177 Co 0.5992 0.65832 0.97084 0.0
Co178 Co 0.58186 0.6926 0.88541 0.0
O179 O 0.59914 0.6894 0.95187 0.0
C180 C 0.65387 0.6778 0.99259 0.0
O181 O 0.65323 0.66232 0.95285 0.0
C182 C 0.56431 0.71139 0.98334 0.0
O183 O 0.55913 0.69027 0.00943 0.0
O184 O 0.54944 0.66147 0.90802 0.0
O185 O 0.56399 0.63654 0.94091 0.0
H186 H 0.52596 0.6612 0.71291 0.0
H187 H 0.61214 0.69737 0.06021 0.0
O188 O 0.63428 0.67973 1.00214 0.0
H189 H 0.53765 0.62014 0.13377 0.0
H190 H 0.61741 0.60221 0.09654 0.0
H191 H 0.58423 0.60996 0.91104 0.0
H192 H 0.55594 0.61976 0.04053 0.0
H193 H 0.61604 0.64093 0.07222 0.0
O194 O 0.57231 0.71488 0.93197 0.0
H195 H 0.54855 0.65745 0.79609 0.0
H196 H 0.57749 0.73528 0.83543 0.0
H197 H 0.5852 0.57087 0.93367 0.0
H198 H 0.59468 0.69845 0.15404 0.0
H199 H 0.60189 0.56682 0.02701 0.0
H200 H 0.55709 0.65966 0.19133 0.0
O201 O 0.61316 0.65827 0.89444 0.0
H202 H 0.66051 0.77677 0.91972 0.0
H203 H 0.61105 0.71091 0.77714 0.0
H204 H 0.65125 0.74867 0.74891 0.0
H205 H 0.67623 0.78198 0.82042 0.0
H206 H 0.62033 0.73859 0.94626 0.0
H207 H 0.55506 0.73984 0.75298 0.0
H208 H 0.52916 0.70264 0.69094 0.0
O209 O 0.59212 0.67112 0.83743 0.0
C210 C 0.54594 0.63986 0.92391 0.0
C211 C 0.53725 0.67757 0.73953 0.0
C212 C 0.55355 0.7217 0.76207 0.0
N213 N 0.56444 0.69616 0.82025 0.0
C214 C 0.55013 0.67557 0.78656 0.0
C215 C 0.56615 0.71898 0.80877 0.0
C216 C 0.53903 0.70082 0.72726 0.0
C217 C 0.596 0.68031 0.07641 0.0
N218 N 0.58518 0.6585 0.04495 0.0
C219 C 0.5861 0.68108 0.12947 0.0
C220 C 0.56498 0.65933 0.1503 0.0
C221 C 0.55404 0.63716 0.118 0.0
C222 C 0.56443 0.6371 0.06509 0.0
C223 C 0.61006 0.60373 0.05576 0.0
C224 C 0.59147 0.60831 0.95178 0.0
C225 C 0.60924 0.6256 0.04174 0.0
N226 N 0.59999 0.62768 0.99028 0.0
C227 C 0.59199 0.58614 0.96435 0.0
C228 C 0.60136 0.58389 0.01672 0.0
C229 C 0.60629 0.66124 0.84514 0.0
C230 C 0.64976 0.76242 0.88814 0.0
C231 C 0.62187 0.72525 0.80858 0.0
C232 C 0.64459 0.74663 0.7923 0.0
C233 C 0.65859 0.76532 0.83243 0.0
N234 N 0.61328 0.7226 0.86325 0.0
C235 C 0.62695 0.74079 0.90289 0.0
Co236 Co 0.94966 0.59567 0.13396 0.0
Co237 Co 0.89686 0.57717 0.05171 0.0
O238 O 0.91775 0.59486 0.11803 0.0
C239 C 0.95731 0.64654 0.17384 0.0
O240 O 0.93493 0.64154 0.15555 0.0
C241 C 0.86083 0.56013 0.15038 0.0
O242 O 0.87696 0.5554 0.177 0.0
O243 O 0.89573 0.54491 0.07506 0.0
O244 O 0.93597 0.56059 0.10304 0.0
H245 H 0.87168 0.52031 0.88063 0.0
H246 H 0.9218 0.60509 0.22723 0.0
O247 O 0.96514 0.63086 0.16631 0.0
H248 H 0.93285 0.53463 0.29479 0.0
H249 H 0.02749 0.61622 0.24885 0.0
H250 H 0.98166 0.58029 0.0693 0.0
H251 H 0.94905 0.55381 0.20093 0.0
H252 H 0.98662 0.61414 0.23024 0.0
O253 O 0.86517 0.56767 0.0987 0.0
H254 H 0.89832 0.54334 0.96313 0.0
H255 H 0.84961 0.57251 1.0022 0.0
H256 H 0.0224 0.58184 0.08637 0.0
H257 H 0.90583 0.58685 0.3216 0.0
H258 H 0.04559 0.59989 0.17671 0.0
H259 H 0.9112 0.55126 0.35611 0.0
O260 O 0.96251 0.61035 0.05773 0.0
H261 H 0.88878 0.65461 0.08297 0.0
H262 H 0.90825 0.60633 0.94324 0.0
H263 H 0.91011 0.64611 0.91396 0.0
H264 H 0.90026 0.67053 0.98403 0.0
H265 H 0.88746 0.6149 0.11065 0.0
H266 H 0.82233 0.54965 0.92043 0.0
H267 H 0.83338 0.5234 0.85886 0.0
O268 O 0.9284 0.58725 1.00275 0.0
C269 C 0.91439 0.54201 0.08906 0.0
C270 C 0.86671 0.53174 0.90704 0.0
C271 C 0.83899 0.54818 0.92943 0.0
N272 N 0.87562 0.55937 0.98713 0.0
C273 C 0.88175 0.54487 0.9537 0.0
C274 C 0.85447 0.56103 0.97574 0.0
C275 C 0.84521 0.53347 0.89488 0.0
C276 C 0.92482 0.59008 0.24207 0.0
N277 N 0.93691 0.58101 0.20867 0.0
C278 C 0.91545 0.5796 0.29554 0.0
C279 C 0.9184 0.55958 0.3148 0.0
C280 C 0.93052 0.55023 0.2804 0.0
C281 C 0.93962 0.56117 0.22716 0.0
C282 C 0.01754 0.60826 0.20936 0.0
C283 C 0.99157 0.58805 0.10884 0.0
C284 C 0.99441 0.60709 0.19851 0.0
N285 N 0.98165 0.59691 0.14888 0.0
C286 C 0.01466 0.58894 0.11821 0.0
C287 C 0.02768 0.59909 0.16888 0.0
C288 C 0.95238 0.60247 0.00906 0.0
C289 C 0.89314 0.64416 0.05206 0.0
C290 C 0.90422 0.61696 0.9742 0.0
C291 C 0.90516 0.63942 0.95726 0.0
C292 C 0.8996 0.65309 0.99656 0.0
N293 N 0.89795 0.60836 0.02879 0.0
C294 C 0.89238 0.62162 0.06746 0.0
Co295 Co 0.35953 0.94273 0.29539 0.0
Co296 Co 0.32681 0.89057 0.21165 0.0
O297 O 0.32903 0.91084 0.2778 0.0
C298 C 0.33855 0.97626 0.32265 0.0
O299 O 0.35316 0.99177 0.28266 0.0
C300 C 0.30748 0.85404 0.3094 0.0
O301 O 0.32824 0.87004 0.33652 0.0
O302 O 0.35819 0.89014 0.23617 0.0
O303 O 0.38209 0.93075 0.26285 0.0
H304 H 0.36061 0.86721 0.04131 0.0
H305 H 0.32217 0.91544 0.38729 0.0
O306 O 0.33735 0.95492 0.32949 0.0
H307 H 0.40219 0.92231 0.4537 0.0
H308 H 0.41532 0.01795 0.41942 0.0
H309 H 0.40641 0.97773 0.23239 0.0
H310 H 0.40025 0.94024 0.36122 0.0
H311 H 0.37729 0.97699 0.39695 0.0
O312 O 0.30453 0.85858 0.25771 0.0
H313 H 0.36308 0.89325 0.12413 0.0
H314 H 0.2852 0.84308 0.16053 0.0
H315 H 0.44478 0.01868 0.25315 0.0
H316 H 0.32342 0.89766 0.48051 0.0
H317 H 0.44941 0.03908 0.34724 0.0
H318 H 0.36362 0.90094 0.5142 0.0
O319 O 0.35778 0.95616 0.21943 0.0
H320 H 0.24159 0.88327 0.24139 0.0
H321 H 0.30903 0.90092 0.10205 0.0
H322 H 0.27107 0.90249 0.07167 0.0
H323 H 0.23697 0.89354 0.14153 0.0
H324 H 0.27997 0.88213 0.27012 0.0
H325 H 0.28192 0.81637 0.07842 0.0
H326 H 0.31979 0.82846 0.01803 0.0
O327 O 0.34825 0.92248 0.16396 0.0
C328 C 0.37962 0.90933 0.24908 0.0
C329 C 0.34396 0.86178 0.06721 0.0
C330 C 0.2998 0.83322 0.0881 0.0
N331 N 0.32428 0.86977 0.14683 0.0
C332 C 0.34523 0.87648 0.11405 0.0
C333 C 0.30179 0.84838 0.13462 0.0
C334 C 0.32106 0.84002 0.05421 0.0
C335 C 0.33984 0.91729 0.40194 0.0
N336 N 0.36113 0.92901 0.36886 0.0
C337 C 0.34038 0.90703 0.45466 0.0
C338 C 0.36293 0.90882 0.47346 0.0
C339 C 0.38456 0.92077 0.4395 0.0
C340 C 0.38331 0.93079 0.38702 0.0
C341 C 0.41353 0.00925 0.37828 0.0
C342 C 0.40828 0.98646 0.27345 0.0
C343 C 0.39204 0.98605 0.36529 0.0
N344 N 0.38962 0.97494 0.31337 0.0
C345 C 0.43006 0.00966 0.28496 0.0
C346 C 0.43265 0.02109 0.33776 0.0
C347 C 0.35636 0.94634 0.1706 0.0
C348 C 0.25628 0.88714 0.21052 0.0
C349 C 0.29433 0.8971 0.13278 0.0
C350 C 0.27285 0.89796 0.11528 0.0
C351 C 0.25372 0.89292 0.1545 0.0
N352 N 0.29666 0.89129 0.18775 0.0
C353 C 0.27803 0.88645 0.2265 0.0
Co354 Co 0.66238 0.59541 0.38035 0.0
Co355 Co 0.69663 0.57691 0.46248 0.0
O356 O 0.69344 0.59449 0.39596 0.0
C357 C 0.70562 0.64592 0.33885 0.0
O358 O 0.72298 0.64086 0.35699 0.0
C359 C 0.71565 0.55977 0.36406 0.0
O360 O 0.69477 0.55494 0.33743 0.0
O361 O 0.66549 0.54465 0.43918 0.0
O362 O 0.64096 0.56053 0.41231 0.0
H363 H 0.6649 0.52027 0.63392 0.0
H364 H 0.69914 0.60409 0.28635 0.0
O365 O 0.68211 0.63039 0.34702 0.0
H366 H 0.61712 0.5335 0.22155 0.0
H367 H 0.60491 0.61578 0.26571 0.0
H368 H 0.61535 0.58068 0.44594 0.0
H369 H 0.62068 0.55329 0.31492 0.0
H370 H 0.64363 0.61352 0.28389 0.0
O371 O 0.71884 0.56737 0.41569 0.0
H372 H 0.66131 0.54319 0.55117 0.0
H373 H 0.7392 0.5723 0.51227 0.0
H374 H 0.57625 0.58243 0.42931 0.0
H375 H 0.69629 0.58525 0.19243 0.0
H376 H 0.57083 0.60007 0.33863 0.0
H377 H 0.65506 0.54959 0.15932 0.0
O378 O 0.66468 0.61053 0.45622 0.0
H379 H 0.78213 0.65435 0.43104 0.0
H380 H 0.71437 0.60619 0.57082 0.0
H381 H 0.75227 0.64601 0.59996 0.0
H382 H 0.78654 0.67037 0.52987 0.0
H383 H 0.74376 0.61459 0.40349 0.0
H384 H 0.7436 0.54956 0.5943 0.0
H385 H 0.70629 0.5234 0.6559 0.0
O386 O 0.67514 0.58705 0.51126 0.0
C387 C 0.64391 0.54187 0.42585 0.0
C388 C 0.68131 0.53167 0.60749 0.0
C389 C 0.72548 0.54808 0.5852 0.0
N390 N 0.70005 0.55919 0.52724 0.0
C391 C 0.67941 0.54473 0.56069 0.0
C392 C 0.72285 0.56086 0.53874 0.0
C393 C 0.70454 0.53341 0.61977 0.0
C394 C 0.681 0.58906 0.2721 0.0
N395 N 0.66002 0.58029 0.306 0.0
C396 C 0.67955 0.57824 0.21889 0.0
C397 C 0.65644 0.55818 0.20042 0.0
C398 C 0.63516 0.54914 0.23533 0.0
C399 C 0.63733 0.56042 0.28828 0.0
C400 C 0.60703 0.60801 0.30535 0.0
C401 C 0.61309 0.58826 0.40625 0.0
C402 C 0.62894 0.60673 0.31596 0.0
N403 N 0.63168 0.59678 0.36579 0.0
C404 C 0.59093 0.58926 0.39713 0.0
C405 C 0.58791 0.59918 0.34627 0.0
C406 C 0.66668 0.60251 0.50491 0.0
C407 C 0.76732 0.64392 0.46196 0.0
C408 C 0.72904 0.61679 0.53985 0.0
C409 C 0.75054 0.63928 0.55672 0.0
C410 C 0.76977 0.65291 0.5174 0.0
N411 N 0.72672 0.60813 0.48532 0.0
C412 C 0.74556 0.62135 0.44663 0.0
Co413 Co 0.07466 0.65956 0.54206 0.0
Co414 Co 0.12671 0.69195 0.62707 0.0
O415 O 0.10644 0.68993 0.56106 0.0
C416 C 0.04081 0.68063 0.52061 0.0
O417 O 0.0258 0.66548 0.56058 0.0
C418 C 0.16309 0.71098 0.529 0.0
O419 O 0.14681 0.69035 0.50181 0.0
O420 O 0.12692 0.66042 0.60267 0.0
O421 O 0.08694 0.63678 0.57159 0.0
H422 H 0.14983 0.65787 0.79707 0.0
H423 H 0.10159 0.69838 0.45269 0.0
O424 O 0.06207 0.68195 0.51114 0.0
H425 H 0.09569 0.61982 0.37833 0.0
H426 H 0.99951 0.6054 0.41653 0.0
H427 H 0.04002 0.61157 0.60183 0.0
H428 H 0.07765 0.62014 0.47194 0.0
H429 H 0.04035 0.64324 0.44078 0.0
O430 O 0.15872 0.71398 0.58082 0.0
H431 H 0.1238 0.65559 0.71449 0.0
H432 H 0.17439 0.73336 0.67796 0.0
H433 H 0.9992 0.57335 0.57926 0.0
H434 H 0.11952 0.69878 0.35848 0.0
H435 H 0.97867 0.57009 0.48603 0.0
H436 H 0.11672 0.65931 0.32078 0.0
O437 O 0.06108 0.65999 0.61869 0.0
H438 H 0.13483 0.77754 0.59741 0.0
H439 H 0.11668 0.71001 0.73673 0.0
H440 H 0.11552 0.7482 0.7672 0.0
H441 H 0.12473 0.78235 0.69734 0.0
H442 H 0.13555 0.73892 0.56861 0.0
H443 H 0.2011 0.73645 0.75982 0.0
H444 H 0.18879 0.69854 0.82016 0.0
O445 O 0.09482 0.67076 0.6749 0.0
C446 C 0.10808 0.63915 0.58743 0.0
C447 C 0.15535 0.67454 0.7712 0.0
C448 C 0.18415 0.71864 0.75024 0.0
N449 N 0.14749 0.69435 0.69175 0.0
C450 C 0.14066 0.67337 0.7245 0.0
C451 C 0.169 0.71676 0.70385 0.0
C452 C 0.17723 0.69736 0.78409 0.0
C453 C 0.09998 0.68104 0.43631 0.0
N454 N 0.08845 0.65924 0.46776 0.0
C455 C 0.11031 0.68142 0.38304 0.0
C456 C 0.10878 0.65929 0.36198 0.0
C457 C 0.09702 0.63713 0.39428 0.0
C458 C 0.08694 0.63746 0.4474 0.0
C459 C 1.00828 0.60657 0.45727 0.0
C460 C 0.03123 0.61028 0.56113 0.0
C461 C 0.03141 0.62795 0.47125 0.0
N462 N 0.0426 0.6296 0.52267 0.0
C463 C 1.00811 0.58859 0.5486 0.0
C464 C 0.99659 0.58678 0.49629 0.0
C465 C 0.07089 0.66196 0.6677 0.0
C466 C 0.13085 0.76282 0.62828 0.0
C467 C 0.1206 0.72472 0.706 0.0
C468 C 0.11997 0.74634 0.72355 0.0
C469 C 0.12516 0.7655 0.68434 0.0
N470 N 0.1263 0.72228 0.65099 0.0
C471 C 0.1313 0.74094 0.61226 0.0
Co472 Co 0.42982 0.07225 0.70782 0.0
Co473 Co 0.4418 0.1232 0.79421 0.0
O474 O 0.42671 0.10199 0.72651 0.0
C475 C 0.37603 0.05812 0.67592 0.0
O476 O 0.37874 0.07936 0.69645 0.0
C477 C 0.45914 0.15965 0.69606 0.0
O478 O 0.46487 0.14418 0.66961 0.0
O479 O 0.47571 0.12685 0.77698 0.0
O480 O 0.46612 0.09037 0.73263 0.0
H481 H 0.49339 0.15035 0.97354 0.0
H482 H 0.41399 0.09767 0.62099 0.0
O483 O 0.39374 0.05281 0.6804 0.0
H484 H 0.48623 0.09444 0.53562 0.0
H485 H 0.41536 0.99674 0.59069 0.0
H486 H 0.45312 0.04576 0.7659 0.0
H487 H 0.47096 0.07696 0.6312 0.0
H488 H 0.41224 0.03474 0.61231 0.0
O489 O 0.45085 0.15472 0.74714 0.0
H490 H 0.47402 0.12359 0.8889 0.0
H491 H 0.44184 0.16877 0.84126 0.0
H492 H 0.4569 1.00798 0.74562 0.0
H493 H 0.4283 0.11486 0.52516 0.0
H494 H 0.43794 0.9832 0.65746 0.0
H495 H 0.46477 0.11344 0.48168 0.0
O496 O 0.41802 0.0581 0.7855 0.0
H497 H 0.36269 0.12652 0.74958 0.0
H498 H 0.40918 0.10914 0.89782 0.0
H499 H 0.36758 0.10463 0.92042 0.0
H500 H 0.34405 0.11344 0.84607 0.0
H501 H 0.40415 0.13036 0.72848 0.0
H502 H 0.46101 0.19613 0.92512 0.0
H503 H 0.48692 0.18692 0.99207 0.0
O504 O 0.43234 0.09207 0.84287 0.0
C505 C 0.48195 0.11156 0.75503 0.0
C506 C 0.48209 0.15452 0.94476 0.0
C507 C 0.46395 0.18024 0.91753 0.0
N508 N 0.45673 0.14454 0.8604 0.0
C509 C 0.47104 0.13941 0.89685 0.0
C510 C 0.4532 0.16472 0.87004 0.0
C511 C 0.47847 0.17505 0.9551 0.0
C512 C 0.42948 0.0964 0.60234 0.0
N513 N 0.44126 0.08582 0.63173 0.0
C514 C 0.43768 0.10644 0.54801 0.0
C515 C 0.45818 0.1057 0.52371 0.0
C516 C 0.47024 0.09506 0.55395 0.0
C517 C 0.46151 0.08523 0.60819 0.0
C518 C 0.42375 1.0074 0.6292 0.0
C519 C 0.44497 0.03516 0.72727 0.0
C520 C 0.42197 0.0289 0.64178 0.0
N521 N 0.43268 0.04258 0.69015 0.0
C522 C 0.4471 0.01375 0.7161 0.0
C523 C 0.43643 0.99983 0.66666 0.0
C524 C 0.42172 0.06801 0.83492 0.0
C525 C 0.37275 0.12262 0.78235 0.0
C526 C 0.39895 0.11269 0.86497 0.0
C527 C 0.37545 0.11026 0.87816 0.0
C528 C 0.36229 0.11525 0.83646 0.0
N529 N 0.40906 0.11984 0.81172 0.0
C530 C 0.3963 0.12486 0.77071 0.0
Co531 Co 0.36135 0.42139 0.87485 0.0
Co532 Co 0.32744 0.43898 0.96102 0.0
O533 O 0.3304 0.42161 0.89434 0.0
C534 C 0.34168 0.36668 0.85319 0.0
O535 O 0.35711 0.3673 0.89297 0.0
C536 C 0.30856 0.45662 0.8636 0.0
O537 O 0.32959 0.46171 0.83714 0.0
O538 O 0.35861 0.47134 0.93821 0.0
O539 O 0.38329 0.45659 0.90467 0.0
H540 H 0.35939 0.49493 0.13348 0.0
H541 H 0.32214 0.40853 0.78604 0.0
O542 O 0.33979 0.38629 0.84365 0.0
H543 H 0.39935 0.48283 0.71173 0.0
H544 H 0.41697 0.4028 0.74814 0.0
H545 H 0.40978 0.43619 0.934 0.0
H546 H 0.39985 0.46454 0.80482 0.0
H547 H 0.37841 0.40438 0.77307 0.0
O548 O 0.30518 0.44866 0.91496 0.0
H549 H 0.36284 0.47224 0.05005 0.0
H550 H 0.285 0.44359 0.01177 0.0
H551 H 0.44871 0.43502 0.91075 0.0
H552 H 0.32094 0.426 0.69236 0.0
H553 H 0.45248 0.41822 0.81723 0.0
H554 H 0.35971 0.46348 0.6547 0.0
O555 O 0.36149 0.40744 0.95113 0.0
H556 H 0.24304 0.36053 0.92737 0.0
H557 H 0.30923 0.40984 0.06934 0.0
H558 H 0.27143 0.36972 0.09782 0.0
H559 H 0.23795 0.34481 0.02663 0.0
H560 H 0.28126 0.40062 0.90057 0.0
H561 H 0.28074 0.46613 0.09448 0.0
H562 H 0.3181 0.49194 0.15613 0.0
O563 O 0.34888 0.4286 0.00854 0.0
C564 C 0.38014 0.47471 0.92197 0.0
C565 C 0.34296 0.48368 0.10705 0.0
C566 C 0.29882 0.46755 0.0851 0.0
N567 N 0.32411 0.45648 0.02639 0.0
C568 C 0.34478 0.47075 0.05987 0.0
C569 C 0.30136 0.45489 0.03825 0.0
C570 C 0.31979 0.48202 0.11969 0.0
C571 C 0.3392 0.42463 0.76967 0.0
N572 N 0.36107 0.43539 0.80084 0.0
C573 C 0.33835 0.43453 0.7167 0.0
C574 C 0.3601 0.4556 0.69565 0.0
C575 C 0.38233 0.46648 0.72767 0.0
C576 C 0.38247 0.4561 0.78049 0.0
C577 C 0.41557 0.4102 0.789 0.0
C578 C 0.4113 0.42891 0.89317 0.0
C579 C 0.39379 0.41114 0.80336 0.0
N580 N 0.39187 0.42044 0.85492 0.0
C581 C 0.43338 0.42827 0.88026 0.0
C582 C 0.43548 0.41884 0.82779 0.0
C583 C 0.35864 0.41434 1.00053 0.0
C584 C 0.25746 0.37124 0.95882 0.0
C585 C 0.29481 0.39905 0.03803 0.0
C586 C 0.27341 0.37638 0.05446 0.0
C587 C 0.25463 0.36242 0.0145 0.0
N588 N 0.29741 0.40764 0.98339 0.0
C589 C 0.27912 0.394 0.94393 0.0
Co590 Co 0.94888 0.35852 0.05032 0.0
Co591 Co 0.89602 0.32297 0.13107 0.0
O592 O 0.91693 0.32709 0.0641 0.0
C593 C 0.95656 0.3161 1.00484 0.0
O594 O 0.93423 0.29841 0.02276 0.0
C595 C 0.8597 0.30385 0.03277 0.0
O596 O 0.87561 0.32466 1.00563 0.0
O597 O 0.89452 0.3541 0.10951 0.0
O598 O 0.93525 0.37924 0.08544 0.0
H599 H 0.87058 0.3526 0.30528 0.0
H600 H 0.9216 0.32346 0.95337 0.0
O601 O 0.96433 0.3395 0.01415 0.0
H602 H 0.93179 0.40611 0.89788 0.0
H603 H 0.02668 0.41828 0.93792 0.0
H604 H 0.981 0.40442 0.11943 0.0
H605 H 0.94794 0.40108 0.99 0.0
H606 H 0.98582 0.3791 0.95406 0.0
O607 O 0.86432 0.30082 0.08431 0.0
H608 H 0.89714 0.35729 0.22178 0.0
H609 H 0.84914 0.27957 0.18004 0.0
H610 H 0.0217 0.44397 0.10487 0.0
H611 H 0.90569 0.32779 0.86059 0.0
H612 H 0.04483 0.45111 0.01356 0.0
H613 H 0.91064 0.36935 0.8322 0.0
O614 O 0.9616 0.35501 0.1253 0.0
H615 H 0.8892 0.2383 0.09481 0.0
H616 H 0.90783 0.30455 0.23802 0.0
H617 H 0.91034 0.26671 0.26483 0.0
H618 H 0.90092 0.23321 0.193 0.0
H619 H 0.88722 0.27659 0.06961 0.0
H620 H 0.82194 0.27408 0.26278 0.0
H621 H 0.83267 0.31074 0.32621 0.0
O622 O 0.92752 0.34431 0.18011 0.0
C623 C 0.91349 0.37597 0.09878 0.0
C624 C 0.86574 0.33646 0.27804 0.0
C625 C 0.83842 0.2924 0.25415 0.0
N626 N 0.87478 0.3187 0.19633 0.0
C627 C 0.88074 0.33899 0.2308 0.0
C628 C 0.85385 0.29565 0.20727 0.0
C629 C 0.84446 0.31298 0.28973 0.0
C630 C 0.92441 0.34174 0.94115 0.0
N631 N 0.93621 0.36207 0.97696 0.0
C632 C 0.91509 0.34403 0.88859 0.0
C633 C 0.9178 0.36731 0.87276 0.0
C634 C 0.92965 0.38793 0.90961 0.0
C635 C 0.93872 0.38493 0.96183 0.0
C636 C 0.01675 0.41542 0.97785 0.0
C637 C 0.99086 0.40745 0.07945 0.0
C638 C 0.99363 0.39324 0.98731 0.0
N639 N 0.9809 0.38956 0.0375 0.0
C640 C 0.01394 0.42985 0.07151 0.0
C641 C 0.02692 0.43383 0.02029 0.0
C642 C 0.95144 0.35271 0.17397 0.0
C643 C 0.89337 0.25278 0.12648 0.0
C644 C 0.90398 0.29021 0.2063 0.0
C645 C 0.90529 0.26875 0.22185 0.0
C646 C 0.89997 0.24994 0.18156 0.0
N647 N 0.89758 0.29291 0.15211 0.0
C648 C 0.89224 0.2745 0.11248 0.0
Co649 Co 0.59916 0.94326 0.21446 0.0
Co650 Co 0.57961 0.89102 0.29839 0.0
O651 O 0.59798 0.91153 0.23277 0.0
C652 C 0.65385 0.97737 0.19009 0.0
O653 O 0.65413 0.9926 0.23003 0.0
C654 C 0.5628 0.85496 0.20008 0.0
O655 O 0.558 0.87107 0.17359 0.0
O656 O 0.54784 0.89047 0.27321 0.0
O657 O 0.56417 0.93082 0.24483 0.0
H658 H 0.5215 0.8669 0.46715 0.0
H659 H 0.61063 0.91632 0.12424 0.0
O660 O 0.63396 0.95589 0.1824 0.0
H661 H 0.53781 0.92243 0.05219 0.0
H662 H 0.61918 0.01848 0.08989 0.0
H663 H 0.58602 0.97773 0.27568 0.0
H664 H 0.55654 0.94041 0.14549 0.0
H665 H 0.61644 0.97768 0.11316 0.0
O666 O 0.57023 0.85923 0.25185 0.0
H667 H 0.54549 0.89328 0.38509 0.0
H668 H 0.57363 0.84343 0.34912 0.0
H669 H 0.58839 0.01853 0.25409 0.0
H670 H 0.59274 0.89848 0.03027 0.0
H671 H 0.60508 0.03919 0.16063 0.0
H672 H 0.55599 0.90138 0.99374 0.0
O673 O 0.61344 0.95669 0.29109 0.0
H674 H 0.65782 0.88406 0.27052 0.0
H675 H 0.6072 0.90115 0.40865 0.0
H676 H 0.64664 0.90277 0.44001 0.0
H677 H 0.6722 0.89409 0.37075 0.0
H678 H 0.61839 0.88288 0.24083 0.0
H679 H 0.54978 0.81638 0.43048 0.0
H680 H 0.52357 0.82813 0.49027 0.0
O681 O 0.58973 0.92276 0.34637 0.0
C682 C 0.54534 0.90936 0.25884 0.0
C683 C 0.53291 0.86161 0.44152 0.0
C684 C 0.54876 0.83324 0.42088 0.0
N685 N 0.56106 0.86998 0.36267 0.0
C686 C 0.54658 0.87651 0.39512 0.0
C687 C 0.56216 0.84858 0.37479 0.0
C688 C 0.53406 0.83985 0.45443 0.0
C689 C 0.59487 0.91799 0.10836 0.0
N690 N 0.58476 0.92954 0.14032 0.0
C691 C 0.58472 0.90771 0.05523 0.0
C692 C 0.56407 0.90928 0.03482 0.0
C693 C 0.55383 0.92106 0.06763 0.0
C694 C 0.56446 0.93111 0.12059 0.0
C695 C 0.61186 0.00967 0.13076 0.0
C696 C 0.59329 0.98659 0.2349 0.0
C697 C 0.61026 0.98655 0.1442 0.0
N698 N 0.60106 0.9753 0.19578 0.0
C699 C 0.59458 0.00969 0.22291 0.0
C700 C 0.60395 0.02127 0.17046 0.0
C701 C 0.60511 0.9467 0.33983 0.0
C702 C 0.64681 0.88781 0.30113 0.0
C703 C 0.61827 0.89746 0.37818 0.0
C704 C 0.64056 0.89834 0.39623 0.0
C705 C 0.65488 0.89346 0.35736 0.0
N706 N 0.61042 0.89179 0.32301 0.0
C707 C 0.62442 0.88709 0.2846 0.0
H708 H 0.38493 0.3884 0.99972 0.0
H709 H 0.38819 0.37635 0.33887 0.0
H710 H 0.35308 0.42004 0.11573 0.0
H711 H 0.42615 0.3507 0.22426 0.0
H712 H 0.37438 0.39129 0.25781 0.0
H713 H 0.39916 0.37365 0.08061 0.0
C714 C 0.38082 0.39226 0.04215 0.0
C715 C 0.36757 0.40551 0.05041 0.0
C716 C 0.38571 0.3824 0.2502 0.0
C717 C 0.38406 0.38844 0.14416 0.0
C718 C 0.39362 0.37373 0.29667 0.0
C719 C 0.40841 0.36205 0.2889 0.0
C720 C 0.39241 0.37941 0.19481 0.0
C721 C 0.41479 0.35949 0.23273 0.0
C722 C 0.38907 0.38381 0.0885 0.0
C723 C 0.36313 0.40993 0.10685 0.0
N724 N 0.40674 0.36802 0.18805 0.0
N725 N 0.37126 0.40138 0.1513 0.0
H726 H 0.08432 0.4214 0.39586 0.0
H727 H 0.93903 0.34911 0.2884 0.0
H728 H 0.02 0.38665 0.50934 0.0
H729 H 1.00355 0.37644 0.17596 0.0
H730 H 0.96822 0.36401 0.36975 0.0
H731 H 0.05502 0.40654 0.31491 0.0
C732 C 0.0641 0.41067 0.40395 0.0
C733 C 0.05481 0.40526 0.45996 0.0
C734 C 0.97597 0.3667 0.32723 0.0
C735 C 0.0209 0.38817 0.36682 0.0
C736 C 0.95926 0.35817 0.28064 0.0
C737 C 0.96865 0.36133 0.2248 0.0
C738 C 1.00238 0.3787 0.31827 0.0
C739 C 0.99521 0.37337 0.21792 0.0
C740 C 0.04731 0.40214 0.35755 0.0
C741 C 0.02824 0.39125 0.46722 0.0
N742 N 1.011 0.38159 0.26378 0.0
N743 N 0.01235 0.38329 0.42149 0.0
H744 H 0.59368 0.93458 0.45368 0.0
H745 H 0.67132 0.07969 0.56246 0.0
H746 H 0.63487 0.99883 0.3423 0.0
H747 H 0.63178 0.01554 0.67493 0.0
H748 H 0.65761 0.05043 0.48149 0.0
H749 H 0.60695 0.96377 0.53493 0.0
C750 C 0.60552 0.95476 0.44611 0.0
C751 C 0.61314 0.96405 0.39056 0.0
C752 C 0.65191 0.04274 0.52389 0.0
C753 C 0.62843 0.99784 0.4841 0.0
C754 C 0.65975 0.05951 0.57035 0.0
C755 C 0.65286 0.05027 0.62616 0.0
C756 C 0.63696 0.01637 0.53278 0.0
C757 C 0.63773 0.02375 0.63303 0.0
C758 C 0.6131 0.97148 0.4927 0.0
C759 C 0.6285 0.99056 0.38401 0.0
N760 N 0.63037 1.00787 0.5872 0.0
N761 N 0.63556 1.00637 0.42989 0.0
H762 H 0.64326 0.63115 0.50587 0.0
H763 H 0.63214 0.63485 0.84531 0.0
H764 H 0.66939 0.59348 0.61983 0.0
H765 H 0.60042 0.66678 0.73002 0.0
H766 H 0.64663 0.62048 0.7641 0.0
H767 H 0.62851 0.64502 0.58727 0.0
C768 C 0.64602 0.62578 0.54799 0.0
C769 C 0.65779 0.61106 0.55547 0.0
C770 C 0.63651 0.63062 0.75643 0.0
C771 C 0.64065 0.62715 0.64999 0.0
C772 C 0.62821 0.63895 0.80297 0.0
C773 C 0.615 0.65226 0.79503 0.0
C774 C 0.63178 0.63559 0.70087 0.0
C775 C 0.6105 0.65669 0.73868 0.0
C776 C 0.63746 0.63374 0.59467 0.0
C777 C 0.66053 0.60477 0.61157 0.0
N778 N 0.61889 0.64847 0.69403 0.0
N779 N 0.6521 0.61287 0.65646 0.0
H780 H 0.01866 0.6372 0.66809 0.0
H781 H 1.0045 0.63012 0.00779 0.0
H782 H 0.08248 0.66575 0.78261 0.0
H783 H 0.9404 0.59442 0.8941 0.0
H784 H 0.03298 0.64418 0.9261 0.0
H785 H 0.98996 0.62256 0.74958 0.0
C786 C 0.02676 0.64051 0.71032 0.0
C787 C 0.05328 0.65294 0.71797 0.0
C788 C 0.01271 0.63328 0.91883 0.0
C789 C 0.02001 0.63597 0.81245 0.0
C790 C 0.99628 0.62522 0.96567 0.0
C791 C 0.96975 0.61101 0.95836 0.0
C792 C 1.0028 0.62734 0.86351 0.0
C793 C 0.96059 0.60531 0.90224 0.0
C794 C 1.01022 0.63202 0.75702 0.0
C795 C 0.0623 0.65637 0.77418 0.0
N796 N 0.97703 0.61352 0.8572 0.0
N797 N 0.04577 0.64803 0.819 0.0
H798 H 0.42327 0.07975 0.94918 0.0
H799 H 0.35627 0.93449 0.05679 0.0
H800 H 0.39956 0.01584 0.83638 0.0
H801 H 0.37802 0.9984 0.16849 0.0
H802 H 0.37235 0.96385 0.97586 0.0
H803 H 0.40743 0.05033 0.02988 0.0
C804 C 0.4148 0.05959 0.94117 0.0
C805 C 0.41279 0.05046 0.88534 0.0
C806 C 0.37357 0.97145 0.01809 0.0
C807 C 0.39445 0.01639 0.97839 0.0
C808 C 0.36435 0.95463 0.06449 0.0
C809 C 0.36562 0.96378 0.12004 0.0
C810 C 0.3843 0.99776 0.02687 0.0
C811 C 0.37643 0.99024 0.12677 0.0
C812 C 0.40569 0.04273 0.98746 0.0
C813 C 0.40156 0.02397 0.8783 0.0
N814 N 0.3853 1.00615 0.08107 0.0
N815 N 0.39287 0.008 0.92396 0.0
H816 H 0.6393 0.49412 0.43815 0.0
H817 H 0.48801 0.42476 0.40473 0.0
H818 H 0.5951 0.53095 0.41232 0.0
H819 H 0.52632 0.38148 0.41968 0.0
H820 H 0.5284 0.46352 0.40759 0.0
H821 H 0.59971 0.4526 0.43305 0.0
C822 C 0.62141 0.49356 0.43164 0.0
C823 C 0.6207 0.51623 0.42558 0.0
C824 C 0.52825 0.44567 0.41015 0.0
C825 C 0.57556 0.46897 0.41948 0.0
C826 C 0.50499 0.42334 0.40852 0.0
C827 C 0.50359 0.39965 0.41229 0.0
C828 C 0.55075 0.44476 0.41591 0.0
C829 C 0.5265 0.39932 0.41652 0.0
C830 C 0.59887 0.46988 0.42851 0.0
C831 C 0.59692 0.51424 0.41707 0.0
N832 N 0.54921 0.42159 0.4186 0.0
N833 N 0.57557 0.49124 0.4143 0.0
H834 H 0.15221 0.52177 0.57515 0.0
H835 H 0.06938 0.59047 0.57663 0.0
H836 H 0.07131 0.48457 0.60346 0.0
H837 H 0.15061 0.63367 0.60009 0.0
H838 H 0.07131 0.55175 0.57647 0.0
H839 H 0.15356 0.56304 0.57515 0.0
C840 C 0.13479 0.5222 0.58124 0.0
C841 C 0.11161 0.49951 0.58927 0.0
C842 C 0.0888 0.56961 0.58183 0.0
C843 C 0.11305 0.54649 0.58902 0.0
C844 C 0.08775 0.59192 0.5818 0.0
C845 C 0.10989 0.6156 0.5885 0.0
C846 C 0.11219 0.57058 0.58824 0.0
C847 C 0.13304 0.61588 0.59504 0.0
C848 C 0.13561 0.54575 0.58146 0.0
C849 C 0.08967 0.50133 0.59715 0.0
N850 N 0.13362 0.59369 0.59454 0.0
N851 N 0.09097 0.52423 0.59659 0.0
H852 H 0.51005 0.11275 0.664 0.0
H853 H 0.61674 0.10991 0.84888 0.0
H854 H 0.51496 0.12521 0.84482 0.0
H855 H 0.62681 0.12694 0.66993 0.0
H856 H 0.57951 0.11525 0.84867 0.0
H857 H 0.55252 0.11776 0.66468 0.0
C858 C 0.52019 0.11671 0.70382 0.0
C859 C 0.50892 0.11832 0.7545 0.0
C860 C 0.58999 0.11813 0.80953 0.0
C861 C 0.5575 0.12385 0.75581 0.0
C862 C 0.61115 0.1149 0.80956 0.0
C863 C 0.62468 0.1177 0.75923 0.0
C864 C 0.58189 0.12368 0.75846 0.0
C865 C 0.61689 0.12464 0.70964 0.0
C866 C 0.54451 0.11974 0.70415 0.0
C867 C 0.52304 0.12389 0.80483 0.0
N868 N 0.59573 0.12698 0.71027 0.0
N869 N 0.54645 0.12604 0.8044 0.0
H870 H 0.49953 0.63711 0.90596 0.0
H871 H 0.3833 0.52129 0.94082 0.0
H872 H 0.53301 0.59037 0.93923 0.0
H873 H 0.42948 0.48732 0.90571 0.0
H874 H 0.42194 0.56328 0.94106 0.0
H875 H 0.4574 0.59866 0.90575 0.0
C876 C 0.49807 0.61886 0.91341 0.0
C877 C 0.51999 0.61713 0.9228 0.0
C878 C 0.42354 0.54666 0.93259 0.0
C879 C 0.47181 0.57304 0.92328 0.0
C880 C 0.40147 0.52262 0.93297 0.0
C881 C 0.40298 0.5006 0.92306 0.0
C882 C 0.44728 0.54861 0.92262 0.0
C883 C 0.42713 0.50358 0.91333 0.0
C884 C 0.47395 0.5969 0.91381 0.0
C885 C 0.51684 0.59288 0.93202 0.0
N886 N 0.44815 0.52697 0.91369 0.0
N887 N 0.49337 0.57197 0.9317 0.0
H888 H 0.95165 0.42395 0.11726 0.0
H889 H 0.87138 0.4945 0.07267 0.0
H890 H 0.87081 0.38138 0.08864 0.0
H891 H 0.95169 0.53063 0.1078 0.0
H892 H 0.86906 0.45282 0.07811 0.0
H893 H 0.95025 0.46288 0.11535 0.0
C894 C 0.93346 0.42274 0.11067 0.0
C895 C 0.91133 0.39923 0.10271 0.0
C896 C 0.8871 0.46997 0.08464 0.0
C897 C 0.90955 0.44448 0.10006 0.0
C898 C 0.88847 0.49376 0.08135 0.0
C899 C 0.91176 0.51628 0.08984 0.0
C900 C 0.90919 0.46881 0.09637 0.0
C901 C 0.93324 0.51405 0.10107 0.0
C902 C 0.93266 0.44515 0.10958 0.0
C903 C 0.88832 0.39909 0.09508 0.0
N904 N 0.93137 0.49094 0.10397 0.0
N905 N 0.88803 0.42144 0.09349 0.0
H906 H 0.42819 0.94857 0.24862 0.0
H907 H 0.49762 0.86655 0.2728 0.0
H908 H 0.38529 0.86664 0.24712 0.0
H909 H 0.53465 0.94735 0.24278 0.0
H910 H 0.45623 0.86482 0.26864 0.0
H911 H 0.46708 0.94711 0.2514 0.0
C912 C 0.42686 0.93014 0.24878 0.0
C913 C 0.40322 0.90767 0.24774 0.0
C914 C 0.4735 0.88284 0.26291 0.0
C915 C 0.44846 0.90587 0.2511 0.0
C916 C 0.49712 0.88387 0.2655 0.0
C917 C 0.5198 0.90713 0.25818 0.0
C918 C 0.47266 0.90524 0.25338 0.0
C919 C 0.5179 0.92892 0.24865 0.0
C920 C 0.44927 0.92934 0.25029 0.0
C921 C 0.40306 0.88445 0.2477 0.0
N922 N 0.49492 0.92739 0.24667 0.0
N923 N 0.42537 0.88412 0.24967 0.0
H924 H 0.31086 0.36047 0.76272 0.0
H925 H 0.36352 0.28285 0.59662 0.0
H926 H 0.35238 0.32806 0.84083 0.0
H927 H 0.34488 0.33605 0.52139 0.0
H928 H 0.34361 0.28495 0.68562 0.0
H929 H 0.30715 0.33683 0.67612 0.0
C930 C 0.31863 0.34787 0.76229 0.0
C931 C 0.33266 0.34687 0.80859 0.0
C932 C 0.34311 0.29546 0.64899 0.0
C933 C 0.32856 0.3199 0.70931 0.0
C934 C 0.35422 0.29407 0.59807 0.0
C935 C 0.35595 0.30947 0.55199 0.0
C936 C 0.33357 0.3122 0.65327 0.0
C937 C 0.34402 0.32402 0.55624 0.0
C938 C 0.31652 0.33441 0.71271 0.0
C939 C 0.34185 0.32982 0.8058 0.0
N940 N 0.33365 0.32532 0.6063 0.0
N941 N 0.34014 0.31742 0.75644 0.0
H942 H 0.9359 0.28309 0.91606 0.0
H943 H 0.06622 0.3601 0.74928 0.0
H944 H 1.00745 0.33772 0.99019 0.0
H945 H 0.99235 0.32676 0.67059 0.0
H946 H 0.04626 0.33733 0.83674 0.0
H947 H 0.95806 0.28488 0.82746 0.0
C948 C 0.9564 0.29461 0.91447 0.0
C949 C 0.96993 0.31044 0.96012 0.0
C950 C 0.03449 0.33451 0.79987 0.0
C951 C 0.99519 0.31277 0.85932 0.0
C952 C 0.04586 0.34746 0.74978 0.0
C953 C 0.03086 0.34596 0.70298 0.0
C954 C 1.00794 0.31998 0.80325 0.0
C955 C 1.00463 0.32889 0.70595 0.0
C956 C 0.96898 0.2958 0.86379 0.0
C957 C 0.99637 0.32534 0.95568 0.0
N958 N 0.99391 0.31699 0.75575 0.0
N959 N 1.00812 0.32641 0.90586 0.0
H960 H 0.69233 0.0265 0.17356 0.0
H961 H 0.67342 1.00675 0.85083 0.0
H962 H 0.65728 0.95195 0.09758 0.0
H963 H 0.73292 0.07698 0.92031 0.0
H964 H 0.67243 0.9852 0.93907 0.0
H965 H 0.71304 0.04476 0.0829 0.0
C966 C 0.68956 0.01387 0.13841 0.0
C967 C 0.67244 0.98771 0.14284 0.0
C968 C 0.68631 1.00516 0.93458 0.0
C969 C 0.69571 0.00854 0.03871 0.0
C970 C 0.68694 0.0174 0.88404 0.0
C971 C 0.70325 0.0436 0.87848 0.0
C972 C 0.70149 0.01944 0.98056 0.0
C973 C 0.72017 0.05668 0.92292 0.0
C974 C 0.70138 0.02433 0.08651 0.0
C975 C 0.66981 0.9723 0.09585 0.0
N976 N 0.71836 0.0446 0.97284 0.0
N977 N 0.68076 0.983 0.04539 0.0
H978 H 0.6603 0.70906 0.0824 0.0
H979 H 0.73806 0.657 0.24947 0.0
H980 H 0.69239 0.66699 1.00526 0.0
H981 H 0.68536 0.67641 0.32456 0.0
H982 H 0.73583 0.67652 0.16007 0.0
H983 H 0.68413 0.71321 0.16885 0.0
C984 C 0.67287 0.70125 0.083 0.0
C985 C 0.67373 0.68696 0.03704 0.0
C986 C 0.72547 0.67729 0.19675 0.0
C987 C 0.70094 0.69158 0.13616 0.0
C988 C 0.72695 0.66641 0.24791 0.0
C989 C 0.71171 0.665 0.2941 0.0
C990 C 0.70881 0.6869 0.19231 0.0
C991 C 0.69728 0.67704 0.28966 0.0
C992 C 0.68644 0.70362 0.1325 0.0
C993 C 0.69074 0.67774 0.04004 0.0
N994 N 0.69588 0.68716 0.23935 0.0
N995 N 0.70326 0.6797 0.08932 0.0
H996 H 0.06592 0.71108 0.42988 0.0
H997 H 0.93625 0.65874 0.26201 0.0
H998 H 0.99172 0.67049 0.50736 0.0
H999 H 1.00813 0.67661 0.18806 0.0
H1000 H 0.95811 0.67894 0.35085 0.0
H1001 H 0.0464 0.71469 0.34257 0.0
C1002 C 0.04558 0.70351 0.42916 0.0
C1003 C 0.03035 0.68976 0.47553 0.0
C1004 C 0.96917 0.67921 0.31451 0.0
C1005 C 1.00794 0.69373 0.37542 0.0
C1006 C 0.95676 0.66794 0.26365 0.0
C1007 C 0.97047 0.6659 0.218 0.0
C1008 C 0.9954 0.6886 0.31918 0.0
C1009 C 0.99693 0.67771 0.22255 0.0
C1010 C 0.03446 0.70555 0.37916 0.0
C1011 C 1.00417 0.68081 0.47231 0.0
N1012 N 1.00851 0.68823 0.27257 0.0
N1013 N 0.9937 0.68244 0.42258 0.0
H1014 H 0.31005 0.95006 0.41486 0.0
H1015 H 0.35955 0.07746 0.59249 0.0
H1016 H 0.34855 0.0251 0.34105 0.0
H1017 H 0.35039 1.00718 0.65786 0.0
H1018 H 0.33909 0.05567 0.50369 0.0
H1019 H 0.30802 0.96851 0.50534 0.0
C1020 C 0.31747 0.97035 0.41712 0.0
C1021 C 0.33019 0.98614 0.3706 0.0
C1022 C 0.3408 0.04488 0.53827 0.0
C1023 C 0.32785 1.00728 0.47427 0.0
C1024 C 0.35221 0.0572 0.58911 0.0
C1025 C 0.3567 0.04403 0.63228 0.0
C1026 C 0.33361 0.01922 0.53122 0.0
C1027 C 0.3473 0.01795 0.6254 0.0
C1028 C 0.31633 0.98085 0.46893 0.0
C1029 C 0.33898 0.01224 0.376 0.0
N1030 N 0.33646 1.00645 0.5755 0.0
N1031 N 0.33813 0.02208 0.42734 0.0
H1032 H 0.45708 0.26061 0.43505 0.0
H1033 H 0.45521 0.19975 0.73924 0.0
H1034 H 0.46607 0.29997 0.59342 0.0
H1035 H 0.4662 0.17027 0.58165 0.0
H1036 H 0.45647 0.23519 0.68661 0.0
H1037 H 0.45776 0.2261 0.4876 0.0
C1038 C 0.45931 0.2621 0.48079 0.0
C1039 C 0.46165 0.28343 0.5096 0.0
C1040 C 0.45872 0.22103 0.66355 0.0
C1041 C 0.4621 0.2436 0.57042 0.0
C1042 C 0.45798 0.20073 0.69364 0.0
C1043 C 0.46072 0.18192 0.6651 0.0
C1044 C 0.46187 0.22251 0.60413 0.0
C1045 C 0.46417 0.18431 0.60575 0.0
C1046 C 0.45971 0.24234 0.51083 0.0
C1047 C 0.46438 0.28408 0.56911 0.0
N1048 N 0.46449 0.20405 0.57738 0.0
N1049 N 0.46437 0.2645 0.59739 0.0
H1050 H 0.30565 0.46366 0.74912 0.0
H1051 H 0.17345 0.46299 0.76423 0.0
H1052 H 0.26435 0.45299 0.90535 0.0
H1053 H 0.20514 0.45426 0.60755 0.0
H1054 H 0.2086 0.46371 0.81636 0.0
H1055 H 0.27132 0.46459 0.69707 0.0
C1056 C 0.28947 0.46169 0.7727 0.0
C1057 C 0.28807 0.4583 0.83203 0.0
C1058 C 0.20794 0.46171 0.77058 0.0
C1059 C 0.2484 0.45939 0.77206 0.0
C1060 C 0.18788 0.46142 0.74058 0.0
C1061 C 0.18621 0.45863 0.68109 0.0
C1062 C 0.22683 0.45946 0.74115 0.0
C1063 C 0.20553 0.45647 0.65324 0.0
C1064 C 0.26976 0.46211 0.74274 0.0
C1065 C 0.26638 0.45567 0.85978 0.0
N1066 N 0.22498 0.45701 0.68338 0.0
N1067 N 0.24753 0.45635 0.82969 0.0
H1068 H 0.81927 0.26022 0.07656 0.0
H1069 H 0.75986 0.19941 0.77259 0.0
H1070 H 0.84946 0.29961 0.91816 0.0
H1071 H 0.71976 0.16978 0.93052 0.0
H1072 H 0.79409 0.23487 0.82505 0.0
H1073 H 0.78403 0.22571 0.02414 0.0
C1074 C 0.81848 0.26171 0.03083 0.0
C1075 C 0.83744 0.28306 1.00198 0.0
C1076 C 0.77775 0.22067 0.84821 0.0
C1077 C 0.7971 0.24322 0.94129 0.0
C1078 C 0.75816 0.20035 0.81823 0.0
C1079 C 0.73669 0.1815 0.84692 0.0
C1080 C 0.7762 0.22212 0.90767 0.0
C1081 C 0.73576 0.18386 0.9063 0.0
C1082 C 0.7983 0.24196 1.00086 0.0
C1083 C 0.8353 0.28372 0.94249 0.0
N1084 N 0.7552 0.20361 0.93457 0.0
N1085 N 0.81569 0.26412 0.91427 0.0
H1086 H 0.55697 0.84581 0.0852 0.0
H1087 H 0.55728 0.71405 0.09795 0.0
H1088 H 0.56606 0.81408 0.2413 0.0
H1089 H 0.56787 0.7557 0.9424 0.0
H1090 H 0.5562 0.74819 0.15066 0.0
H1091 H 0.55664 0.81095 0.03251 0.0
C1092 C 0.55872 0.83144 0.10861 0.0
C1093 C 0.56148 0.833 0.16811 0.0
C1094 C 0.5587 0.74987 0.105 0.0
C1095 C 0.56109 0.7927 0.10737 0.0
C1096 C 0.55921 0.73027 0.07466 0.0
C1097 C 0.56261 0.73181 0.01532 0.0
C1098 C 0.56133 0.77127 0.07606 0.0
C1099 C 0.56518 0.75355 0.98797 0.0
C1100 C 0.55865 0.81154 0.07828 0.0
C1101 C 0.56386 0.81376 0.19562 0.0
N1102 N 0.5644 0.77229 0.01842 0.0
N1103 N 0.56352 0.79445 0.16516 0.0
H1104 H 0.71902 0.55335 0.24938 0.0
H1105 H 0.85116 0.55385 0.26512 0.0
H1106 H 0.75967 0.56309 0.40603 0.0
H1107 H 0.81995 0.56312 0.10843 0.0
H1108 H 0.81584 0.55297 0.31708 0.0
H1109 H 0.75355 0.55266 0.19745 0.0
C1110 C 0.7351 0.55516 0.27307 0.0
C1111 C 0.73625 0.55822 0.33249 0.0
C1112 C 0.81665 0.55513 0.27133 0.0
C1113 C 0.77616 0.55741 0.27266 0.0
C1114 C 0.83681 0.55552 0.24143 0.0
C1115 C 0.83865 0.5585 0.18199 0.0
C1116 C 0.79784 0.55747 0.24185 0.0
C1117 C 0.81943 0.56076 0.15409 0.0
C1118 C 0.75492 0.55488 0.24319 0.0
C1119 C 0.75782 0.56067 0.36039 0.0
N1120 N 0.79988 0.56013 0.18412 0.0
N1121 N 0.77679 0.56013 0.33036 0.0
H1122 H 0.20408 0.75445 0.572 0.0
H1123 H 0.26353 0.81363 0.26646 0.0
H1124 H 0.17303 0.71484 0.41427 0.0
H1125 H 0.30361 0.8439 0.42402 0.0
H1126 H 0.22914 0.77855 0.31964 0.0
H1127 H 0.23948 0.78851 0.5188 0.0
C1128 C 0.20471 0.75281 0.52627 0.0
C1129 C 0.18546 0.73154 0.49785 0.0
C1130 C 0.24551 0.7928 0.34257 0.0
C1131 C 0.226 0.77085 0.43624 0.0
C1132 C 0.26521 0.81289 0.31215 0.0
C1133 C 0.28671 0.83183 0.34052 0.0
C1134 C 0.24701 0.79166 0.40212 0.0
C1135 C 0.28759 0.82975 0.40001 0.0
C1136 C 0.22498 0.77231 0.49584 0.0
C1137 C 0.18741 0.73069 0.43831 0.0
N1138 N 0.26807 0.81023 0.42866 0.0
N1139 N 0.20712 0.75001 0.40966 0.0
loop_
_geom_bond_atom_site_label_1
_geom_bond_atom_site_label_2
_geom_bond_distance
_geom_bond_site_symmetry_2
_ccdc_geom_bond_type
Co0 O2 2.143 . S
Co0 O8 2.074 . S
Co0 O11 2.093 . S
Co0 O24 2.097 . S
Co0 N41 2.151 . S
Co0 N49 2.214 . S
Co1 O2 2.160 . S
Co1 O7 2.058 . S
Co1 O17 2.057 . S
Co1 O32 2.037 . S
Co1 N36 2.145 . S
Co1 N57 2.257 . S
O2 Co0 2.143 . S
O2 Co1 2.160 . S
C3 O4 1.278 . S
C3 O11 1.224 . S
O4 C3 1.278 . S
C5 O6 1.245 . S
C5 O17 1.232 . S
O6 C5 1.245 . S
O7 Co1 2.058 . S
O7 C33 1.269 . S
O8 Co0 2.074 . S
O8 C33 1.257 . S
H9 C34 0.930 . S
H10 C40 0.930 . S
O11 Co0 2.093 . S
O11 C3 1.224 . S
H12 C44 0.929 . S
H13 C46 0.930 . S
H14 C47 0.930 . S
H15 C45 0.929 . S
H16 C48 0.928 . S
O17 Co1 2.057 . S
O17 C5 1.232 . S
H18 C37 0.929 . S
H19 C38 0.929 . S
H20 C50 0.931 . S
H21 C42 0.929 . S
H22 C51 0.930 . S
H23 C43 0.931 . S
O24 Co0 2.097 . S
O24 C52 1.214 . S
H25 C53 0.929 . S
H26 C54 0.929 . S
H27 C55 0.930 . S
H28 C56 0.929 . S
H29 C58 0.930 . S
H30 C35 0.930 . S
H31 C39 0.930 . S
O32 Co1 2.037 . S
O32 C52 1.234 . S
C33 O7 1.269 . S
C33 O8 1.257 . S
C34 H9 0.930 . S
C34 C37 1.388 . S
C34 C39 1.418 . S
C35 H30 0.930 . S
C35 C38 1.404 . S
C35 C39 1.353 . S
N36 Co1 2.145 . S
N36 C37 1.397 . S
N36 C38 1.334 . S
C37 H18 0.929 . S
C37 C34 1.388 . S
C37 N36 1.397 . S
C38 H19 0.929 . S
C38 C35 1.404 . S
C38 N36 1.334 . S
C39 H31 0.930 . S
C39 C34 1.418 . S
C39 C35 1.353 . S
C40 H10 0.930 . S
C40 N41 1.330 . S
C40 C42 1.446 . S
N41 Co0 2.151 . S
N41 C40 1.330 . S
N41 C45 1.418 . S
C42 H21 0.929 . S
C42 C40 1.446 . S
C42 C43 1.332 . S
C43 H23 0.931 . S
C43 C42 1.332 . S
C43 C44 1.267 . S
C44 H12 0.929 . S
C44 C43 1.267 . S
C44 C45 1.251 . S
C45 H15 0.929 . S
C45 N41 1.418 . S
C45 C44 1.251 . S
C46 H13 0.930 . S
C46 C48 1.406 . S
C46 C51 1.261 . S
C47 H14 0.930 . S
C47 N49 1.325 . S
C47 C50 1.357 . S
C48 H16 0.928 . S
C48 C46 1.406 . S
C48 N49 1.261 . S
N49 Co0 2.214 . S
N49 C47 1.325 . S
N49 C48 1.261 . S
C50 H20 0.931 . S
C50 C47 1.357 . S
C50 C51 1.312 . S
C51 H22 0.930 . S
C51 C46 1.261 . S
C51 C50 1.312 . S
C52 O24 1.214 . S
C52 O32 1.234 . S
C53 H25 0.929 . S
C53 C56 1.391 . S
C53 C58 1.391 . S
C54 H26 0.929 . S
C54 C55 1.390 . S
C54 N57 1.391 . S
C55 H27 0.930 . S
C55 C54 1.390 . S
C55 C56 1.392 . S
C56 H28 0.929 . S
C56 C53 1.391 . S
C56 C55 1.392 . S
N57 Co1 2.257 . S
N57 C54 1.391 . S
N57 C58 1.388 . S
C58 H29 0.930 . S
C58 C53 1.391 . S
C58 N57 1.388 . S
Co59 O61 2.143 . S
Co59 O67 2.074 . S
Co59 O70 2.093 . S
Co59 O83 2.097 . S
Co59 N100 2.151 . S
Co59 N108 2.214 . S
Co60 O61 2.160 . S
Co60 O66 2.058 . S
Co60 O76 2.057 . S
Co60 O91 2.037 . S
Co60 N95 2.145 . S
Co60 N116 2.257 . S
O61 Co59 2.143 . S
O61 Co60 2.160 . S
C62 O63 1.278 . S
C62 O70 1.224 . S
O63 C62 1.278 . S
C64 O65 1.245 . S
C64 O76 1.232 . S
O65 C64 1.245 . S
O66 Co60 2.058 . S
O66 C92 1.269 . S
O67 Co59 2.074 . S
O67 C92 1.257 . S
H68 C93 0.930 . S
H69 C99 0.930 . S
O70 Co59 2.093 . S
O70 C62 1.224 . S
H71 C103 0.929 . S
H72 C105 0.930 1_655 S
H73 C106 0.930 . S
H74 C104 0.929 . S
H75 C107 0.928 . S
O76 Co60 2.057 . S
O76 C64 1.232 . S
H77 C96 0.929 . S
H78 C97 0.929 . S
H79 C109 0.931 . S
H80 C101 0.929 . S
H81 C110 0.930 1_655 S
H82 C102 0.931 . S
O83 Co59 2.097 . S
O83 C111 1.214 . S
H84 C112 0.929 . S
H85 C113 0.929 . S
H86 C114 0.930 . S
H87 C115 0.929 . S
H88 C117 0.930 . S
H89 C94 0.930 . S
H90 C98 0.930 . S
O91 Co60 2.037 . S
O91 C111 1.234 . S
C92 O66 1.269 . S
C92 O67 1.257 . S
C93 H68 0.930 . S
C93 C96 1.388 . S
C93 C98 1.418 . S
C94 H89 0.930 . S
C94 C97 1.404 . S
C94 C98 1.353 . S
N95 Co60 2.145 . S
N95 C96 1.397 . S
N95 C97 1.334 . S
C96 H77 0.929 . S
C96 C93 1.388 . S
C96 N95 1.397 . S
C97 H78 0.929 . S
C97 C94 1.404 . S
C97 N95 1.334 . S
C98 H90 0.930 . S
C98 C93 1.418 . S
C98 C94 1.353 . S
C99 H69 0.930 . S
C99 N100 1.330 . S
C99 C101 1.446 . S
N100 Co59 2.151 . S
N100 C99 1.330 . S
N100 C104 1.418 . S
C101 H80 0.929 . S
C101 C99 1.446 . S
C101 C102 1.332 . S
C102 H82 0.931 . S
C102 C101 1.332 . S
C102 C103 1.267 . S
C103 H71 0.929 . S
C103 C102 1.267 . S
C103 C104 1.251 . S
C104 H74 0.929 . S
C104 N100 1.418 . S
C104 C103 1.251 . S
C105 H72 0.930 1_455 S
C105 C107 1.406 . S
C105 C110 1.261 . S
C106 H73 0.930 . S
C106 N108 1.325 . S
C106 C109 1.357 . S
C107 H75 0.928 . S
C107 C105 1.406 . S
C107 N108 1.261 . S
N108 Co59 2.214 . S
N108 C106 1.325 . S
N108 C107 1.261 . S
C109 H79 0.931 . S
C109 C106 1.357 . S
C109 C110 1.312 . S
C110 H81 0.930 1_455 S
C110 C105 1.261 . S
C110 C109 1.312 . S
C111 O83 1.214 . S
C111 O91 1.234 . S
C112 H84 0.929 . S
C112 C115 1.391 . S
C112 C117 1.391 . S
C113 H85 0.929 . S
C113 C114 1.390 . S
C113 N116 1.391 . S
C114 H86 0.930 . S
C114 C113 1.390 . S
C114 C115 1.392 . S
C115 H87 0.929 . S
C115 C112 1.391 . S
C115 C114 1.392 . S
N116 Co60 2.257 . S
N116 C113 1.391 . S
N116 C117 1.388 . S
C117 H88 0.930 . S
C117 C112 1.391 . S
C117 N116 1.388 . S
Co118 O120 2.143 . S
Co118 O126 2.074 . S
Co118 O129 2.093 . S
Co118 O142 2.097 . S
Co118 N159 2.151 . S
Co118 N167 2.214 . S
Co119 O120 2.160 . S
Co119 O125 2.058 . S
Co119 O135 2.057 . S
Co119 O150 2.037 . S
Co119 N154 2.145 . S
Co119 N175 2.257 . S
O120 Co118 2.143 . S
O120 Co119 2.160 . S
C121 O122 1.278 . S
C121 O129 1.224 . S
O122 C121 1.278 . S
C123 O124 1.245 . S
C123 O135 1.232 . S
O124 C123 1.245 . S
O125 Co119 2.058 . S
O125 C151 1.269 . S
O126 Co118 2.074 . S
O126 C151 1.257 . S
H127 C152 0.930 . S
H128 C158 0.930 . S
O129 Co118 2.093 . S
O129 C121 1.224 . S
H130 C162 0.929 . S
H131 C164 0.930 1_565 S
H132 C165 0.930 . S
H133 C163 0.929 . S
H134 C166 0.928 . S
O135 Co119 2.057 . S
O135 C123 1.232 . S
H136 C155 0.929 . S
H137 C156 0.929 . S
H138 C168 0.931 . S
H139 C160 0.929 . S
H140 C169 0.930 1_565 S
H141 C161 0.931 . S
O142 Co118 2.097 . S
O142 C170 1.214 . S
H143 C171 0.929 . S
H144 C172 0.929 . S
H145 C173 0.930 . S
H146 C174 0.929 . S
H147 C176 0.930 . S
H148 C153 0.930 . S
H149 C157 0.930 . S
O150 Co119 2.037 . S
O150 C170 1.234 . S
C151 O125 1.269 . S
C151 O126 1.257 . S
C152 H127 0.930 . S
C152 C155 1.388 . S
C152 C157 1.418 . S
C153 H148 0.930 . S
C153 C156 1.404 . S
C153 C157 1.353 . S
N154 Co119 2.145 . S
N154 C155 1.397 . S
N154 C156 1.334 . S
C155 H136 0.929 . S
C155 C152 1.388 . S
C155 N154 1.397 . S
C156 H137 0.929 . S
C156 C153 1.404 . S
C156 N154 1.334 . S
C157 H149 0.930 . S
C157 C152 1.418 . S
C157 C153 1.353 . S
C158 H128 0.930 . S
C158 N159 1.330 . S
C158 C160 1.446 . S
N159 Co118 2.151 . S
N159 C158 1.330 . S
N159 C163 1.418 . S
C160 H139 0.929 . S
C160 C158 1.446 . S
C160 C161 1.332 . S
C161 H141 0.931 . S
C161 C160 1.332 . S
C161 C162 1.267 . S
C162 H130 0.929 . S
C162 C161 1.267 . S
C162 C163 1.251 . S
C163 H133 0.929 . S
C163 N159 1.418 . S
C163 C162 1.251 . S
C164 H131 0.930 1_545 S
C164 C166 1.406 . S
C164 C169 1.261 . S
C165 H132 0.930 . S
C165 N167 1.325 . S
C165 C168 1.357 . S
C166 H134 0.928 . S
C166 C164 1.406 . S
C166 N167 1.261 . S
N167 Co118 2.214 . S
N167 C165 1.325 . S
N167 C166 1.261 . S
C168 H138 0.931 . S
C168 C165 1.357 . S
C168 C169 1.312 . S
C169 H140 0.930 1_545 S
C169 C164 1.261 . S
C169 C168 1.312 . S
C170 O142 1.214 . S
C170 O150 1.234 . S
C171 H143 0.929 . S
C171 C174 1.391 . S
C171 C176 1.391 . S
C172 H144 0.929 . S
C172 C173 1.390 . S
C172 N175 1.391 . S
C173 H145 0.930 . S
C173 C172 1.390 . S
C173 C174 1.392 . S
C174 H146 0.929 . S
C174 C171 1.391 . S
C174 C173 1.392 . S
N175 Co119 2.257 . S
N175 C172 1.391 . S
N175 C176 1.388 . S
C176 H147 0.930 . S
C176 C171 1.391 . S
C176 N175 1.388 . S
Co177 O179 2.143 . S
Co177 O185 2.074 . S
Co177 O188 2.093 1_556 S
Co177 O201 2.097 . S
Co177 N218 2.151 1_556 S
Co177 N226 2.214 . S
Co178 O179 2.160 . S
Co178 O184 2.058 . S
Co178 O194 2.057 . S
Co178 O209 2.037 . S
Co178 N213 2.145 . S
Co178 N234 2.257 . S
O179 Co177 2.143 . S
O179 Co178 2.160 . S
C180 O181 1.272 1_554 S
C180 O188 1.224 . S
O181 C180 1.272 1_556 S
C182 O183 1.245 1_556 S
C182 O194 1.232 . S
O183 C182 1.245 1_554 S
O184 Co178 2.058 . S
O184 C210 1.269 . S
O185 Co177 2.074 . S
O185 C210 1.257 . S
H186 C211 0.930 . S
H187 C217 0.930 . S
O188 Co177 2.093 1_554 S
O188 C180 1.224 . S
H189 C221 0.929 . S
H190 C223 0.935 . S
H191 C224 0.930 . S
H192 C222 0.929 . S
H193 C225 0.928 1_554 S
O194 Co178 2.057 . S
O194 C182 1.232 . S
H195 C214 0.929 . S
H196 C215 0.929 . S
H197 C227 0.931 . S
H198 C219 0.929 . S
H199 C228 0.930 . S
H200 C220 0.931 . S
O201 Co177 2.097 . S
O201 C229 1.214 . S
H202 C230 0.929 . S
H203 C231 0.929 . S
H204 C232 0.930 . S
H205 C233 0.929 . S
H206 C235 0.930 . S
H207 C212 0.930 . S
H208 C216 0.930 . S
O209 Co178 2.037 . S
O209 C229 1.234 . S
C210 O184 1.269 . S
C210 O185 1.257 . S
C211 H186 0.930 . S
C211 C214 1.388 . S
C211 C216 1.418 . S
C212 H207 0.930 . S
C212 C215 1.404 . S
C212 C216 1.353 . S
N213 Co178 2.145 . S
N213 C214 1.397 . S
N213 C215 1.334 . S
C214 H195 0.929 . S
C214 C211 1.388 . S
C214 N213 1.397 . S
C215 H196 0.929 . S
C215 C212 1.404 . S
C215 N213 1.334 . S
C216 H208 0.930 . S
C216 C211 1.418 . S
C216 C212 1.353 . S
C217 H187 0.930 . S
C217 N218 1.330 . S
C217 C219 1.446 . S
N218 Co177 2.151 1_554 S
N218 C217 1.330 . S
N218 C222 1.418 . S
C219 H198 0.929 . S
C219 C217 1.446 . S
C219 C220 1.332 . S
C220 H200 0.931 . S
C220 C219 1.332 . S
C220 C221 1.267 . S
C221 H189 0.929 . S
C221 C220 1.267 . S
C221 C222 1.251 . S
C222 H192 0.929 . S
C222 N218 1.418 . S
C222 C221 1.251 . S
C223 H190 0.935 . S
C223 C225 1.406 . S
C223 C228 1.261 . S
C224 H191 0.930 . S
C224 N226 1.325 . S
C224 C227 1.357 . S
C225 H193 0.928 1_556 S
C225 C223 1.406 . S
C225 N226 1.261 . S
N226 Co177 2.214 . S
N226 C224 1.325 . S
N226 C225 1.261 . S
C227 H197 0.931 . S
C227 C224 1.357 . S
C227 C228 1.312 . S
C228 H199 0.930 . S
C228 C223 1.261 . S
C228 C227 1.312 . S
C229 O201 1.214 . S
C229 O209 1.234 . S
C230 H202 0.929 . S
C230 C233 1.391 . S
C230 C235 1.391 . S
C231 H203 0.929 . S
C231 C232 1.390 . S
C231 N234 1.391 . S
C232 H204 0.930 . S
C232 C231 1.390 . S
C232 C233 1.392 . S
C233 H205 0.929 . S
C233 C230 1.391 . S
C233 C232 1.392 . S
N234 Co178 2.257 . S
N234 C231 1.391 . S
N234 C235 1.388 . S
C235 H206 0.930 . S
C235 C230 1.391 . S
C235 N234 1.388 . S
Co236 O238 2.143 . S
Co236 O244 2.074 . S
Co236 O247 2.093 . S
Co236 O260 2.097 . S
Co236 N277 2.151 . S
Co236 N285 2.214 . S
Co237 O238 2.160 . S
Co237 O243 2.058 . S
Co237 O253 2.057 . S
Co237 O268 2.037 1_554 S
Co237 N272 2.145 1_554 S
Co237 N293 2.257 . S
O238 Co236 2.143 . S
O238 Co237 2.160 . S
C239 O240 1.278 . S
C239 O247 1.224 . S
O240 C239 1.278 . S
C241 O242 1.245 . S
C241 O253 1.232 . S
O242 C241 1.245 . S
O243 Co237 2.058 . S
O243 C269 1.269 . S
O244 Co236 2.074 . S
O244 C269 1.257 . S
H245 C270 0.930 . S
H246 C276 0.930 . S
O247 Co236 2.093 . S
O247 C239 1.224 . S
H248 C280 0.929 . S
H249 C282 0.930 1_455 S
H250 C283 0.930 . S
H251 C281 0.929 . S
H252 C284 0.928 . S
O253 Co237 2.057 . S
O253 C241 1.232 . S
H254 C273 0.929 . S
H255 C274 0.929 1_554 S
H256 C286 0.931 . S
H257 C278 0.929 . S
H258 C287 0.930 1_455 S
H259 C279 0.931 . S
O260 Co236 2.097 . S
O260 C288 1.214 . S
H261 C289 0.929 . S
H262 C290 0.929 . S
H263 C291 0.930 . S
H264 C292 0.929 . S
H265 C294 0.930 . S
H266 C271 0.930 . S
H267 C275 0.930 . S
O268 Co237 2.037 1_556 S
O268 C288 1.234 1_556 S
C269 O243 1.269 . S
C269 O244 1.257 . S
C270 H245 0.930 . S
C270 C273 1.388 . S
C270 C275 1.418 . S
C271 H266 0.930 . S
C271 C274 1.404 . S
C271 C275 1.353 . S
N272 Co237 2.145 1_556 S
N272 C273 1.397 . S
N272 C274 1.334 . S
C273 H254 0.929 . S
C273 C270 1.388 . S
C273 N272 1.397 . S
C274 H255 0.929 1_556 S
C274 C271 1.404 . S
C274 N272 1.334 . S
C275 H267 0.930 . S
C275 C270 1.418 . S
C275 C271 1.353 . S
C276 H246 0.930 . S
C276 N277 1.330 . S
C276 C278 1.446 . S
N277 Co236 2.151 . S
N277 C276 1.330 . S
N277 C281 1.418 . S
C278 H257 0.929 . S
C278 C276 1.446 . S
C278 C279 1.332 . S
C279 H259 0.931 . S
C279 C278 1.332 . S
C279 C280 1.267 . S
C280 H248 0.929 . S
C280 C279 1.267 . S
C280 C281 1.251 . S
C281 H251 0.929 . S
C281 N277 1.418 . S
C281 C280 1.251 . S
C282 H249 0.930 1_655 S
C282 C284 1.406 . S
C282 C287 1.261 . S
C283 H250 0.930 . S
C283 N285 1.325 . S
C283 C286 1.357 . S
C284 H252 0.928 . S
C284 C282 1.406 . S
C284 N285 1.261 . S
N285 Co236 2.214 . S
N285 C283 1.325 . S
N285 C284 1.261 . S
C286 H256 0.931 . S
C286 C283 1.357 . S
C286 C287 1.312 . S
C287 H258 0.930 1_655 S
C287 C282 1.261 . S
C287 C286 1.312 . S
C288 O260 1.214 . S
C288 O268 1.234 1_554 S
C289 H261 0.929 . S
C289 C292 1.391 . S
C289 C294 1.391 . S
C290 H262 0.929 . S
C290 C291 1.390 . S
C290 N293 1.391 1_556 S
C291 H263 0.930 . S
C291 C290 1.390 . S
C291 C292 1.392 1_556 S
C292 H264 0.929 . S
C292 C289 1.391 . S
C292 C291 1.392 1_554 S
N293 Co237 2.257 . S
N293 C290 1.391 1_554 S
N293 C294 1.388 . S
C294 H265 0.930 . S
C294 C289 1.391 . S
C294 N293 1.388 . S
Co295 O297 2.143 . S
Co295 O303 2.074 . S
Co295 O306 2.093 . S
Co295 O319 2.097 . S
Co295 N336 2.151 . S
Co295 N344 2.214 . S
Co296 O297 2.160 . S
Co296 O302 2.058 . S
Co296 O312 2.057 . S
Co296 O327 2.037 . S
Co296 N331 2.145 . S
Co296 N352 2.257 . S
O297 Co295 2.143 . S
O297 Co296 2.160 . S
C298 O299 1.278 . S
C298 O306 1.224 . S
O299 C298 1.278 . S
C300 O301 1.245 . S
C300 O312 1.232 . S
O301 C300 1.245 . S
O302 Co296 2.058 . S
O302 C328 1.269 . S
O303 Co295 2.074 . S
O303 C328 1.257 . S
H304 C329 0.930 . S
H305 C335 0.930 . S
O306 Co295 2.093 . S
O306 C298 1.224 . S
H307 C339 0.929 . S
H308 C341 0.930 1_545 S
H309 C342 0.930 . S
H310 C340 0.929 . S
H311 C343 0.928 . S
O312 Co296 2.057 . S
O312 C300 1.232 . S
H313 C332 0.929 . S
H314 C333 0.929 . S
H315 C345 0.931 . S
H316 C337 0.929 . S
H317 C346 0.930 1_545 S
H318 C338 0.931 . S
O319 Co295 2.097 . S
O319 C347 1.214 . S
H320 C348 0.929 . S
H321 C349 0.929 . S
H322 C350 0.930 . S
H323 C351 0.929 . S
H324 C353 0.930 . S
H325 C330 0.930 . S
H326 C334 0.930 . S
O327 Co296 2.037 . S
O327 C347 1.234 . S
C328 O302 1.269 . S
C328 O303 1.257 . S
C329 H304 0.930 . S
C329 C332 1.388 . S
C329 C334 1.418 . S
C330 H325 0.930 . S
C330 C333 1.404 . S
C330 C334 1.353 . S
N331 Co296 2.145 . S
N331 C332 1.397 . S
N331 C333 1.334 . S
C332 H313 0.929 . S
C332 C329 1.388 . S
C332 N331 1.397 . S
C333 H314 0.929 . S
C333 C330 1.404 . S
C333 N331 1.334 . S
C334 H326 0.930 . S
C334 C329 1.418 . S
C334 C330 1.353 . S
C335 H305 0.930 . S
C335 N336 1.330 . S
C335 C337 1.446 . S
N336 Co295 2.151 . S
N336 C335 1.330 . S
N336 C340 1.418 . S
C337 H316 0.929 . S
C337 C335 1.446 . S
C337 C338 1.332 . S
C338 H318 0.931 . S
C338 C337 1.332 . S
C338 C339 1.267 . S
C339 H307 0.929 . S
C339 C338 1.267 . S
C339 C340 1.251 . S
C340 H310 0.929 . S
C340 N336 1.418 . S
C340 C339 1.251 . S
C341 H308 0.930 1_565 S
C341 C343 1.406 . S
C341 C346 1.261 . S
C342 H309 0.930 . S
C342 N344 1.325 . S
C342 C345 1.357 . S
C343 H311 0.928 . S
C343 C341 1.406 . S
C343 N344 1.261 . S
N344 Co295 2.214 . S
N344 C342 1.325 . S
N344 C343 1.261 . S
C345 H315 0.931 . S
C345 C342 1.357 . S
C345 C346 1.312 . S
C346 H317 0.930 1_565 S
C346 C341 1.261 . S
C346 C345 1.312 . S
C347 O319 1.214 . S
C347 O327 1.234 . S
C348 H320 0.929 . S
C348 C351 1.391 . S
C348 C353 1.391 . S
C349 H321 0.929 . S
C349 C350 1.390 . S
C349 N352 1.391 . S
C350 H322 0.930 . S
C350 C349 1.390 . S
C350 C351 1.392 . S
C351 H323 0.929 . S
C351 C348 1.391 . S
C351 C350 1.392 . S
N352 Co296 2.257 . S
N352 C349 1.391 . S
N352 C353 1.388 . S
C353 H324 0.930 . S
C353 C348 1.391 . S
C353 N352 1.388 . S
Co354 O356 2.143 . S
Co354 O362 2.074 . S
Co354 O365 2.093 . S
Co354 O378 2.097 . S
Co354 N395 2.151 . S
Co354 N403 2.214 . S
Co355 O356 2.160 . S
Co355 O361 2.058 . S
Co355 O371 2.057 . S
Co355 O386 2.037 . S
Co355 N390 2.145 . S
Co355 N411 2.257 . S
O356 Co354 2.143 . S
O356 Co355 2.160 . S
C357 O358 1.278 . S
C357 O365 1.224 . S
O358 C357 1.278 . S
C359 O360 1.245 . S
C359 O371 1.232 . S
O360 C359 1.245 . S
O361 Co355 2.058 . S
O361 C387 1.269 . S
O362 Co354 2.074 . S
O362 C387 1.257 . S
H363 C388 0.930 . S
H364 C394 0.930 . S
O365 Co354 2.093 . S
O365 C357 1.224 . S
H366 C398 0.929 . S
H367 C400 0.930 . S
H368 C401 0.930 . S
H369 C399 0.929 . S
H370 C402 0.928 . S
O371 Co355 2.057 . S
O371 C359 1.232 . S
H372 C391 0.929 . S
H373 C392 0.929 . S
H374 C404 0.931 . S
H375 C396 0.929 . S
H376 C405 0.930 . S
H377 C397 0.931 . S
O378 Co354 2.097 . S
O378 C406 1.214 . S
H379 C407 0.929 . S
H380 C408 0.929 . S
H381 C409 0.930 . S
H382 C410 0.929 . S
H383 C412 0.930 . S
H384 C389 0.930 . S
H385 C393 0.930 . S
O386 Co355 2.037 . S
O386 C406 1.234 . S
C387 O361 1.269 . S
C387 O362 1.257 . S
C388 H363 0.930 . S
C388 C391 1.388 . S
C388 C393 1.418 . S
C389 H384 0.930 . S
C389 C392 1.404 . S
C389 C393 1.353 . S
N390 Co355 2.145 . S
N390 C391 1.397 . S
N390 C392 1.334 . S
C391 H372 0.929 . S
C391 C388 1.388 . S
C391 N390 1.397 . S
C392 H373 0.929 . S
C392 C389 1.404 . S
C392 N390 1.334 . S
C393 H385 0.930 . S
C393 C388 1.418 . S
C393 C389 1.353 . S
C394 H364 0.930 . S
C394 N395 1.330 . S
C394 C396 1.446 . S
N395 Co354 2.151 . S
N395 C394 1.330 . S
N395 C399 1.418 . S
C396 H375 0.929 . S
C396 C394 1.446 . S
C396 C397 1.332 . S
C397 H377 0.931 . S
C397 C396 1.332 . S
C397 C398 1.267 . S
C398 H366 0.929 . S
C398 C397 1.267 . S
C398 C399 1.251 . S
C399 H369 0.929 . S
C399 N395 1.418 . S
C399 C398 1.251 . S
C400 H367 0.930 . S
C400 C402 1.406 . S
C400 C405 1.261 . S
C401 H368 0.930 . S
C401 N403 1.325 . S
C401 C404 1.357 . S
C402 H370 0.928 . S
C402 C400 1.406 . S
C402 N403 1.261 . S
N403 Co354 2.214 . S
N403 C401 1.325 . S
N403 C402 1.261 . S
C404 H374 0.931 . S
C404 C401 1.357 . S
C404 C405 1.312 . S
C405 H376 0.930 . S
C405 C400 1.261 . S
C405 C404 1.312 . S
C406 O378 1.214 . S
C406 O386 1.234 . S
C407 H379 0.929 . S
C407 C410 1.391 . S
C407 C412 1.391 . S
C408 H380 0.929 . S
C408 C409 1.390 . S
C408 N411 1.391 . S
C409 H381 0.930 . S
C409 C408 1.390 . S
C409 C410 1.392 . S
C410 H382 0.929 . S
C410 C407 1.391 . S
C410 C409 1.392 . S
N411 Co355 2.257 . S
N411 C408 1.391 . S
N411 C412 1.388 . S
C412 H383 0.930 . S
C412 C407 1.391 . S
C412 N411 1.388 . S
Co413 O415 2.143 . S
Co413 O421 2.074 . S
Co413 O424 2.093 . S
Co413 O437 2.097 . S
Co413 N454 2.151 . S
Co413 N462 2.214 . S
Co414 O415 2.160 . S
Co414 O420 2.058 . S
Co414 O430 2.057 . S
Co414 O445 2.037 . S
Co414 N449 2.145 . S
Co414 N470 2.257 . S
O415 Co413 2.143 . S
O415 Co414 2.160 . S
C416 O417 1.278 . S
C416 O424 1.224 . S
O417 C416 1.278 . S
C418 O419 1.245 . S
C418 O430 1.232 . S
O419 C418 1.245 . S
O420 Co414 2.058 . S
O420 C446 1.269 . S
O421 Co413 2.074 . S
O421 C446 1.257 . S
H422 C447 0.930 . S
H423 C453 0.930 . S
O424 Co413 2.093 . S
O424 C416 1.224 . S
H425 C457 0.929 . S
H426 C459 0.930 1_655 S
H427 C460 0.930 . S
H428 C458 0.929 . S
H429 C461 0.928 . S
O430 Co414 2.057 . S
O430 C418 1.232 . S
H431 C450 0.929 . S
H432 C451 0.929 . S
H433 C463 0.931 . S
H434 C455 0.929 . S
H435 C464 0.930 1_655 S
H436 C456 0.931 . S
O437 Co413 2.097 . S
O437 C465 1.214 . S
H438 C466 0.929 . S
H439 C467 0.929 . S
H440 C468 0.930 . S
H441 C469 0.929 . S
H442 C471 0.930 . S
H443 C448 0.930 . S
H444 C452 0.930 . S
O445 Co414 2.037 . S
O445 C465 1.234 . S
C446 O420 1.269 . S
C446 O421 1.257 . S
C447 H422 0.930 . S
C447 C450 1.388 . S
C447 C452 1.418 . S
C448 H443 0.930 . S
C448 C451 1.404 . S
C448 C452 1.353 . S
N449 Co414 2.145 . S
N449 C450 1.397 . S
N449 C451 1.334 . S
C450 H431 0.929 . S
C450 C447 1.388 . S
C450 N449 1.397 . S
C451 H432 0.929 . S
C451 C448 1.404 . S
C451 N449 1.334 . S
C452 H444 0.930 . S
C452 C447 1.418 . S
C452 C448 1.353 . S
C453 H423 0.930 . S
C453 N454 1.330 . S
C453 C455 1.446 . S
N454 Co413 2.151 . S
N454 C453 1.330 . S
N454 C458 1.418 . S
C455 H434 0.929 . S
C455 C453 1.446 . S
C455 C456 1.332 . S
C456 H436 0.931 . S
C456 C455 1.332 . S
C456 C457 1.267 . S
C457 H425 0.929 . S
C457 C456 1.267 . S
C457 C458 1.251 . S
C458 H428 0.929 . S
C458 N454 1.418 . S
C458 C457 1.251 . S
C459 H426 0.930 1_455 S
C459 C461 1.406 . S
C459 C464 1.261 . S
C460 H427 0.930 . S
C460 N462 1.325 . S
C460 C463 1.357 . S
C461 H429 0.928 . S
C461 C459 1.406 . S
C461 N462 1.261 . S
N462 Co413 2.214 . S
N462 C460 1.325 . S
N462 C461 1.261 . S
C463 H433 0.931 . S
C463 C460 1.357 . S
C463 C464 1.312 . S
C464 H435 0.930 1_455 S
C464 C459 1.261 . S
C464 C463 1.312 . S
C465 O437 1.214 . S
C465 O445 1.234 . S
C466 H438 0.929 . S
C466 C469 1.391 . S
C466 C471 1.391 . S
C467 H439 0.929 . S
C467 C468 1.390 . S
C467 N470 1.391 . S
C468 H440 0.930 . S
C468 C467 1.390 . S
C468 C469 1.392 . S
C469 H441 0.929 . S
C469 C466 1.391 . S
C469 C468 1.392 . S
N470 Co414 2.257 . S
N470 C467 1.391 . S
N470 C471 1.388 . S
C471 H442 0.930 . S
C471 C466 1.391 . S
C471 N470 1.388 . S
Co472 O474 2.143 . S
Co472 O480 2.074 . S
Co472 O483 2.093 . S
Co472 O496 2.097 . S
Co472 N513 2.151 . S
Co472 N521 2.214 . S
Co473 O474 2.160 . S
Co473 O479 2.058 . S
Co473 O489 2.057 . S
Co473 O504 2.037 . S
Co473 N508 2.145 . S
Co473 N529 2.257 . S
O474 Co472 2.143 . S
O474 Co473 2.160 . S
C475 O476 1.278 . S
C475 O483 1.224 . S
O476 C475 1.278 . S
C477 O478 1.245 . S
C477 O489 1.232 . S
O478 C477 1.245 . S
O479 Co473 2.058 . S
O479 C505 1.269 . S
O480 Co472 2.074 . S
O480 C505 1.257 . S
H481 C506 0.930 . S
H482 C512 0.930 . S
O483 Co472 2.093 . S
O483 C475 1.224 . S
H484 C516 0.929 . S
H485 C518 0.930 1_565 S
H486 C519 0.930 . S
H487 C517 0.929 . S
H488 C520 0.928 . S
O489 Co473 2.057 . S
O489 C477 1.232 . S
H490 C509 0.929 . S
H491 C510 0.929 . S
H492 C522 0.931 . S
H493 C514 0.929 . S
H494 C523 0.930 1_565 S
H495 C515 0.931 . S
O496 Co472 2.097 . S
O496 C524 1.214 . S
H497 C525 0.929 . S
H498 C526 0.929 . S
H499 C527 0.930 . S
H500 C528 0.929 . S
H501 C530 0.930 . S
H502 C507 0.930 . S
H503 C511 0.930 . S
O504 Co473 2.037 . S
O504 C524 1.234 . S
C505 O479 1.269 . S
C505 O480 1.257 . S
C506 H481 0.930 . S
C506 C509 1.388 . S
C506 C511 1.418 . S
C507 H502 0.930 . S
C507 C510 1.404 . S
C507 C511 1.353 . S
N508 Co473 2.145 . S
N508 C509 1.397 . S
N508 C510 1.334 . S
C509 H490 0.929 . S
C509 C506 1.388 . S
C509 N508 1.397 . S
C510 H491 0.929 . S
C510 C507 1.404 . S
C510 N508 1.334 . S
C511 H503 0.930 . S
C511 C506 1.418 . S
C511 C507 1.353 . S
C512 H482 0.930 . S
C512 N513 1.330 . S
C512 C514 1.446 . S
N513 Co472 2.151 . S
N513 C512 1.330 . S
N513 C517 1.418 . S
C514 H493 0.929 . S
C514 C512 1.446 . S
C514 C515 1.332 . S
C515 H495 0.931 . S
C515 C514 1.332 . S
C515 C516 1.267 . S
C516 H484 0.929 . S
C516 C515 1.267 . S
C516 C517 1.251 . S
C517 H487 0.929 . S
C517 N513 1.418 . S
C517 C516 1.251 . S
C518 H485 0.930 1_545 S
C518 C520 1.406 . S
C518 C523 1.261 . S
C519 H486 0.930 . S
C519 N521 1.325 . S
C519 C522 1.357 . S
C520 H488 0.928 . S
C520 C518 1.406 . S
C520 N521 1.261 . S
N521 Co472 2.214 . S
N521 C519 1.325 . S
N521 C520 1.261 . S
C522 H492 0.931 . S
C522 C519 1.357 . S
C522 C523 1.312 . S
C523 H494 0.930 1_545 S
C523 C518 1.261 . S
C523 C522 1.312 . S
C524 O496 1.214 . S
C524 O504 1.234 . S
C525 H497 0.929 . S
C525 C528 1.391 . S
C525 C530 1.391 . S
C526 H498 0.929 . S
C526 C527 1.390 . S
C526 N529 1.391 . S
C527 H499 0.930 . S
C527 C526 1.390 . S
C527 C528 1.392 . S
C528 H500 0.929 . S
C528 C525 1.391 . S
C528 C527 1.392 . S
N529 Co473 2.257 . S
N529 C526 1.391 . S
N529 C530 1.388 . S
C530 H501 0.930 . S
C530 C525 1.391 . S
C530 N529 1.388 . S
Co531 O533 2.143 . S
Co531 O539 2.074 . S
Co531 O542 2.093 . S
Co531 O555 2.097 . S
Co531 N572 2.151 . S
Co531 N580 2.214 . S
Co532 O533 2.160 . S
Co532 O538 2.058 . S
Co532 O548 2.057 . S
Co532 O563 2.037 1_556 S
Co532 N567 2.145 1_556 S
Co532 N588 2.257 . S
O533 Co531 2.143 . S
O533 Co532 2.160 . S
C534 O535 1.278 . S
C534 O542 1.224 . S
O535 C534 1.278 . S
C536 O537 1.245 . S
C536 O548 1.232 . S
O537 C536 1.245 . S
O538 Co532 2.058 . S
O538 C564 1.269 . S
O539 Co531 2.074 . S
O539 C564 1.257 . S
H540 C565 0.930 . S
H541 C571 0.930 . S
O542 Co531 2.093 . S
O542 C534 1.224 . S
H543 C575 0.929 . S
H544 C577 0.930 . S
H545 C578 0.930 . S
H546 C576 0.929 . S
H547 C579 0.928 . S
O548 Co532 2.057 . S
O548 C536 1.232 . S
H549 C568 0.929 . S
H550 C569 0.929 1_556 S
H551 C581 0.931 . S
H552 C573 0.929 . S
H553 C582 0.930 . S
H554 C574 0.931 . S
O555 Co531 2.097 . S
O555 C583 1.214 . S
H556 C584 0.929 . S
H557 C585 0.929 . S
H558 C586 0.930 . S
H559 C587 0.929 . S
H560 C589 0.930 . S
H561 C566 0.930 . S
H562 C570 0.930 . S
O563 Co532 2.037 1_554 S
O563 C583 1.234 1_554 S
C564 O538 1.269 . S
C564 O539 1.257 . S
C565 H540 0.930 . S
C565 C568 1.388 . S
C565 C570 1.418 . S
C566 H561 0.930 . S
C566 C569 1.404 . S
C566 C570 1.353 . S
N567 Co532 2.145 1_554 S
N567 C568 1.397 . S
N567 C569 1.334 . S
C568 H549 0.929 . S
C568 C565 1.388 . S
C568 N567 1.397 . S
C569 H550 0.929 1_554 S
C569 C566 1.404 . S
C569 N567 1.334 . S
C570 H562 0.930 . S
C570 C565 1.418 . S
C570 C566 1.353 . S
C571 H541 0.930 . S
C571 N572 1.330 . S
C571 C573 1.446 . S
N572 Co531 2.151 . S
N572 C571 1.330 . S
N572 C576 1.418 . S
C573 H552 0.929 . S
C573 C571 1.446 . S
C573 C574 1.332 . S
C574 H554 0.931 . S
C574 C573 1.332 . S
C574 C575 1.267 . S
C575 H543 0.929 . S
C575 C574 1.267 . S
C575 C576 1.251 . S
C576 H546 0.929 . S
C576 N572 1.418 . S
C576 C575 1.251 . S
C577 H544 0.930 . S
C577 C579 1.406 . S
C577 C582 1.261 . S
C578 H545 0.930 . S
C578 N580 1.325 . S
C578 C581 1.357 . S
C579 H547 0.928 . S
C579 C577 1.406 . S
C579 N580 1.261 . S
N580 Co531 2.214 . S
N580 C578 1.325 . S
N580 C579 1.261 . S
C581 H551 0.931 . S
C581 C578 1.357 . S
C581 C582 1.312 . S
C582 H553 0.930 . S
C582 C577 1.261 . S
C582 C581 1.312 . S
C583 O555 1.214 . S
C583 O563 1.234 1_556 S
C584 H556 0.929 . S
C584 C587 1.391 . S
C584 C589 1.391 . S
C585 H557 0.929 . S
C585 C586 1.390 . S
C585 N588 1.391 1_554 S
C586 H558 0.930 . S
C586 C585 1.390 . S
C586 C587 1.392 1_554 S
C587 H559 0.929 . S
C587 C584 1.391 . S
C587 C586 1.392 1_556 S
N588 Co532 2.257 . S
N588 C585 1.391 1_556 S
N588 C589 1.388 . S
C589 H560 0.930 . S
C589 C584 1.391 . S
C589 N588 1.388 . S
Co590 O592 2.143 . S
Co590 O598 2.074 . S
Co590 O601 2.093 1_554 S
Co590 O614 2.097 . S
Co590 N631 2.151 1_554 S
Co590 N639 2.214 . S
Co591 O592 2.160 . S
Co591 O597 2.058 . S
Co591 O607 2.057 . S
Co591 O622 2.037 . S
Co591 N626 2.145 . S
Co591 N647 2.257 . S
O592 Co590 2.143 . S
O592 Co591 2.160 . S
C593 O594 1.272 1_556 S
C593 O601 1.224 . S
O594 C593 1.272 1_554 S
C595 O596 1.245 1_554 S
C595 O607 1.232 . S
O596 C595 1.245 1_556 S
O597 Co591 2.058 . S
O597 C623 1.269 . S
O598 Co590 2.074 . S
O598 C623 1.257 . S
H599 C624 0.930 . S
H600 C630 0.930 . S
O601 Co590 2.093 1_556 S
O601 C593 1.224 . S
H602 C634 0.929 . S
H603 C636 0.935 1_455 S
H604 C637 0.930 . S
H605 C635 0.929 . S
H606 C638 0.928 1_556 S
O607 Co591 2.057 . S
O607 C595 1.232 . S
H608 C627 0.929 . S
H609 C628 0.929 . S
H610 C640 0.931 . S
H611 C632 0.929 . S
H612 C641 0.930 1_455 S
H613 C633 0.931 . S
O614 Co590 2.097 . S
O614 C642 1.214 . S
H615 C643 0.929 . S
H616 C644 0.929 . S
H617 C645 0.930 . S
H618 C646 0.929 . S
H619 C648 0.930 . S
H620 C625 0.930 . S
H621 C629 0.930 . S
O622 Co591 2.037 . S
O622 C642 1.234 . S
C623 O597 1.269 . S
C623 O598 1.257 . S
C624 H599 0.930 . S
C624 C627 1.388 . S
C624 C629 1.418 . S
C625 H620 0.930 . S
C625 C628 1.404 . S
C625 C629 1.353 . S
N626 Co591 2.145 . S
N626 C627 1.397 . S
N626 C628 1.334 . S
C627 H608 0.929 . S
C627 C624 1.388 . S
C627 N626 1.397 . S
C628 H609 0.929 . S
C628 C625 1.404 . S
C628 N626 1.334 . S
C629 H621 0.930 . S
C629 C624 1.418 . S
C629 C625 1.353 . S
C630 H600 0.930 . S
C630 N631 1.330 . S
C630 C632 1.446 . S
N631 Co590 2.151 1_556 S
N631 C630 1.330 . S
N631 C635 1.418 . S
C632 H611 0.929 . S
C632 C630 1.446 . S
C632 C633 1.332 . S
C633 H613 0.931 . S
C633 C632 1.332 . S
C633 C634 1.267 . S
C634 H602 0.929 . S
C634 C633 1.267 . S
C634 C635 1.251 . S
C635 H605 0.929 . S
C635 N631 1.418 . S
C635 C634 1.251 . S
C636 H603 0.935 1_655 S
C636 C638 1.406 . S
C636 C641 1.261 . S
C637 H604 0.930 . S
C637 N639 1.325 . S
C637 C640 1.357 . S
C638 H606 0.928 1_554 S
C638 C636 1.406 . S
C638 N639 1.261 . S
N639 Co590 2.214 . S
N639 C637 1.325 . S
N639 C638 1.261 . S
C640 H610 0.931 . S
C640 C637 1.357 . S
C640 C641 1.312 . S
C641 H612 0.930 1_655 S
C641 C636 1.261 . S
C641 C640 1.312 . S
C642 O614 1.214 . S
C642 O622 1.234 . S
C643 H615 0.929 . S
C643 C646 1.391 . S
C643 C648 1.391 . S
C644 H616 0.929 . S
C644 C645 1.390 . S
C644 N647 1.391 . S
C645 H617 0.930 . S
C645 C644 1.390 . S
C645 C646 1.392 . S
C646 H618 0.929 . S
C646 C643 1.391 . S
C646 C645 1.392 . S
N647 Co591 2.257 . S
N647 C644 1.391 . S
N647 C648 1.388 . S
C648 H619 0.930 . S
C648 C643 1.391 . S
C648 N647 1.388 . S
Co649 O651 2.143 . S
Co649 O657 2.074 . S
Co649 O660 2.093 . S
Co649 O673 2.097 . S
Co649 N690 2.151 . S
Co649 N698 2.214 . S
Co650 O651 2.160 . S
Co650 O656 2.058 . S
Co650 O666 2.057 . S
Co650 O681 2.037 . S
Co650 N685 2.145 . S
Co650 N706 2.257 . S
O651 Co649 2.143 . S
O651 Co650 2.160 . S
C652 O653 1.278 . S
C652 O660 1.224 . S
O653 C652 1.278 . S
C654 O655 1.245 . S
C654 O666 1.232 . S
O655 C654 1.245 . S
O656 Co650 2.058 . S
O656 C682 1.269 . S
O657 Co649 2.074 . S
O657 C682 1.257 . S
H658 C683 0.930 . S
H659 C689 0.930 . S
O660 Co649 2.093 . S
O660 C652 1.224 . S
H661 C693 0.929 . S
H662 C695 0.930 1_545 S
H663 C696 0.930 . S
H664 C694 0.929 . S
H665 C697 0.928 . S
O666 Co650 2.057 . S
O666 C654 1.232 . S
H667 C686 0.929 . S
H668 C687 0.929 . S
H669 C699 0.931 . S
H670 C691 0.929 . S
H671 C700 0.930 1_545 S
H672 C692 0.931 . S
O673 Co649 2.097 . S
O673 C701 1.214 . S
H674 C702 0.929 . S
H675 C703 0.929 . S
H676 C704 0.930 . S
H677 C705 0.929 . S
H678 C707 0.930 . S
H679 C684 0.930 . S
H680 C688 0.930 . S
O681 Co650 2.037 . S
O681 C701 1.234 . S
C682 O656 1.269 . S
C682 O657 1.257 . S
C683 H658 0.930 . S
C683 C686 1.388 . S
C683 C688 1.418 . S
C684 H679 0.930 . S
C684 C687 1.404 . S
C684 C688 1.353 . S
N685 Co650 2.145 . S
N685 C686 1.397 . S
N685 C687 1.334 . S
C686 H667 0.929 . S
C686 C683 1.388 . S
C686 N685 1.397 . S
C687 H668 0.929 . S
C687 C684 1.404 . S
C687 N685 1.334 . S
C688 H680 0.930 . S
C688 C683 1.418 . S
C688 C684 1.353 . S
C689 H659 0.930 . S
C689 N690 1.330 . S
C689 C691 1.446 . S
N690 Co649 2.151 . S
N690 C689 1.330 . S
N690 C694 1.418 . S
C691 H670 0.929 . S
C691 C689 1.446 . S
C691 C692 1.332 . S
C692 H672 0.931 . S
C692 C691 1.332 . S
C692 C693 1.267 . S
C693 H661 0.929 . S
C693 C692 1.267 . S
C693 C694 1.251 . S
C694 H664 0.929 . S
C694 N690 1.418 . S
C694 C693 1.251 . S
C695 H662 0.930 1_565 S
C695 C697 1.406 . S
C695 C700 1.261 . S
C696 H663 0.930 . S
C696 N698 1.325 . S
C696 C699 1.357 . S
C697 H665 0.928 . S
C697 C695 1.406 . S
C697 N698 1.261 . S
N698 Co649 2.214 . S
N698 C696 1.325 . S
N698 C697 1.261 . S
C699 H669 0.931 . S
C699 C696 1.357 . S
C699 C700 1.312 . S
C700 H671 0.930 1_565 S
C700 C695 1.261 . S
C700 C699 1.312 . S
C701 O673 1.214 . S
C701 O681 1.234 . S
C702 H674 0.929 . S
C702 C705 1.391 . S
C702 C707 1.391 . S
C703 H675 0.929 . S
C703 C704 1.390 . S
C703 N706 1.391 . S
C704 H676 0.930 . S
C704 C703 1.390 . S
C704 C705 1.392 . S
C705 H677 0.929 . S
C705 C702 1.391 . S
C705 C704 1.392 . S
N706 Co650 2.257 . S
N706 C703 1.391 . S
N706 C707 1.388 . S
C707 H678 0.930 . S
C707 C702 1.391 . S
C707 N706 1.388 . S
H708 C714 0.930 . S
H709 C718 0.930 . S
H710 C723 0.929 . S
H711 C721 0.929 . S
H712 C716 0.929 . S
H713 C722 0.929 . S
C714 H708 0.930 . S
C714 C715 1.367 . S
C714 C722 1.378 . S
C715 C714 1.367 . S
C715 C723 1.433 . S
C716 H712 0.929 . S
C716 C718 1.378 . S
C716 C720 1.350 . S
C717 C720 1.463 . S
C717 C722 1.350 . S
C717 N725 1.427 . S
C718 H709 0.930 . S
C718 C716 1.378 . S
C718 C719 1.367 . S
C719 C718 1.367 . S
C719 C721 1.433 . S
C720 C716 1.350 . S
C720 C717 1.463 . S
C720 N724 1.427 . S
C721 H711 0.929 . S
C721 C719 1.433 . S
C721 N724 1.384 . S
C722 H713 0.929 . S
C722 C714 1.378 . S
C722 C717 1.350 . S
C723 H710 0.929 . S
C723 C715 1.433 . S
C723 N725 1.384 . S
N724 C720 1.427 . S
N724 C721 1.384 . S
N725 C717 1.427 . S
N725 C723 1.384 . S
H726 C732 0.930 . S
H727 C736 0.930 . S
H728 C741 0.929 . S
H729 C739 0.929 . S
H730 C734 0.929 . S
H731 C740 0.929 . S
C732 H726 0.930 . S
C732 C733 1.367 . S
C732 C740 1.378 . S
C733 C732 1.367 . S
C733 C741 1.433 . S
C734 H730 0.929 . S
C734 C736 1.378 . S
C734 C738 1.350 . S
C735 C738 1.463 1_455 S
C735 C740 1.350 . S
C735 N743 1.427 . S
C736 H727 0.930 . S
C736 C734 1.378 . S
C736 C737 1.367 . S
C737 C736 1.367 . S
C737 C739 1.433 . S
C738 C734 1.350 . S
C738 C735 1.463 1_655 S
C738 N742 1.427 . S
C739 H729 0.929 . S
C739 C737 1.433 . S
C739 N742 1.384 . S
C740 H731 0.929 . S
C740 C732 1.378 . S
C740 C735 1.350 . S
C741 H728 0.929 . S
C741 C733 1.433 . S
C741 N743 1.384 . S
N742 C738 1.427 . S
N742 C739 1.384 . S
N743 C735 1.427 . S
N743 C741 1.384 . S
H744 C750 0.930 . S
H745 C754 0.930 . S
H746 C759 0.929 . S
H747 C757 0.929 . S
H748 C752 0.929 . S
H749 C758 0.929 . S
C750 H744 0.930 . S
C750 C751 1.367 . S
C750 C758 1.378 . S
C751 C750 1.367 . S
C751 C759 1.433 . S
C752 H748 0.929 . S
C752 C754 1.378 . S
C752 C756 1.350 . S
C753 C756 1.463 1_565 S
C753 C758 1.350 . S
C753 N761 1.427 . S
C754 H745 0.930 . S
C754 C752 1.378 . S
C754 C755 1.367 . S
C755 C754 1.367 . S
C755 C757 1.433 . S
C756 C752 1.350 . S
C756 C753 1.463 1_545 S
C756 N760 1.427 . S
C757 H747 0.929 . S
C757 C755 1.433 . S
C757 N760 1.384 . S
C758 H749 0.929 . S
C758 C750 1.378 . S
C758 C753 1.350 . S
C759 H746 0.929 . S
C759 C751 1.433 . S
C759 N761 1.384 . S
N760 C756 1.427 . S
N760 C757 1.384 . S
N761 C753 1.427 . S
N761 C759 1.384 . S
H762 C768 0.930 . S
H763 C772 0.930 . S
H764 C777 0.929 . S
H765 C775 0.929 . S
H766 C770 0.929 . S
H767 C776 0.929 . S
C768 H762 0.930 . S
C768 C769 1.367 . S
C768 C776 1.378 . S
C769 C768 1.367 . S
C769 C777 1.433 . S
C770 H766 0.929 . S
C770 C772 1.378 . S
C770 C774 1.350 . S
C771 C774 1.463 . S
C771 C776 1.350 . S
C771 N779 1.427 . S
C772 H763 0.930 . S
C772 C770 1.378 . S
C772 C773 1.367 . S
C773 C772 1.367 . S
C773 C775 1.433 . S
C774 C770 1.350 . S
C774 C771 1.463 . S
C774 N778 1.427 . S
C775 H765 0.929 . S
C775 C773 1.433 . S
C775 N778 1.384 . S
C776 H767 0.929 . S
C776 C768 1.378 . S
C776 C771 1.350 . S
C777 H764 0.929 . S
C777 C769 1.433 . S
C777 N779 1.384 . S
N778 C774 1.427 . S
N778 C775 1.384 . S
N779 C771 1.427 . S
N779 C777 1.384 . S
H780 C786 0.930 . S
H781 C790 0.930 . S
H782 C795 0.929 . S
H783 C793 0.929 . S
H784 C788 0.929 1_455 S
H785 C794 0.929 1_655 S
C786 H780 0.930 . S
C786 C787 1.367 . S
C786 C794 1.378 . S
C787 C786 1.367 . S
C787 C795 1.433 . S
C788 H784 0.929 1_655 S
C788 C790 1.378 . S
C788 C792 1.350 . S
C789 C792 1.463 1_455 S
C789 C794 1.350 . S
C789 N797 1.427 . S
C790 H781 0.930 . S
C790 C788 1.378 . S
C790 C791 1.367 . S
C791 C790 1.367 . S
C791 C793 1.433 . S
C792 C788 1.350 . S
C792 C789 1.463 1_655 S
C792 N796 1.427 . S
C793 H783 0.929 . S
C793 C791 1.433 . S
C793 N796 1.384 . S
C794 H785 0.929 1_455 S
C794 C786 1.378 . S
C794 C789 1.350 . S
C795 H782 0.929 . S
C795 C787 1.433 . S
C795 N797 1.384 . S
N796 C792 1.427 . S
N796 C793 1.384 . S
N797 C789 1.427 . S
N797 C795 1.384 . S
H798 C804 0.930 . S
H799 C808 0.930 . S
H800 C813 0.929 . S
H801 C811 0.929 . S
H802 C806 0.929 1_556 S
H803 C812 0.929 1_554 S
C804 H798 0.930 . S
C804 C805 1.367 . S
C804 C812 1.378 . S
C805 C804 1.367 . S
C805 C813 1.433 . S
C806 H802 0.929 1_554 S
C806 C808 1.378 . S
C806 C810 1.350 . S
C807 C810 1.463 1_546 S
C807 C812 1.350 . S
C807 N815 1.427 . S
C808 H799 0.930 . S
C808 C806 1.378 . S
C808 C809 1.367 . S
C809 C808 1.367 . S
C809 C811 1.433 . S
C810 C806 1.350 . S
C810 C807 1.463 1_564 S
C810 N814 1.427 . S
C811 H801 0.929 . S
C811 C809 1.433 . S
C811 N814 1.384 . S
C812 H803 0.929 1_556 S
C812 C804 1.378 . S
C812 C807 1.350 . S
C813 H800 0.929 . S
C813 C805 1.433 . S
C813 N815 1.384 . S
N814 C810 1.427 . S
N814 C811 1.384 . S
N815 C807 1.427 . S
N815 C813 1.384 . S
H816 C822 0.930 . S
H817 C826 0.930 . S
H818 C831 0.929 . S
H819 C829 0.929 . S
H820 C824 0.929 . S
H821 C830 0.929 . S
C822 H816 0.930 . S
C822 C823 1.367 . S
C822 C830 1.378 . S
C823 C822 1.367 . S
C823 C831 1.433 . S
C824 H820 0.929 . S
C824 C826 1.378 . S
C824 C828 1.350 . S
C825 C828 1.463 . S
C825 C830 1.350 . S
C825 N833 1.427 . S
C826 H817 0.930 . S
C826 C824 1.378 . S
C826 C827 1.367 . S
C827 C826 1.367 . S
C827 C829 1.433 . S
C828 C824 1.350 . S
C828 C825 1.463 . S
C828 N832 1.427 . S
C829 H819 0.929 . S
C829 C827 1.433 . S
C829 N832 1.384 . S
C830 H821 0.929 . S
C830 C822 1.378 . S
C830 C825 1.350 . S
C831 H818 0.929 . S
C831 C823 1.433 . S
C831 N833 1.384 . S
N832 C828 1.427 . S
N832 C829 1.384 . S
N833 C825 1.427 . S
N833 C831 1.384 . S
H834 C840 0.930 . S
H835 C844 0.930 . S
H836 C849 0.929 . S
H837 C847 0.929 . S
H838 C842 0.929 . S
H839 C848 0.929 . S
C840 H834 0.930 . S
C840 C841 1.367 . S
C840 C848 1.378 . S
C841 C840 1.367 . S
C841 C849 1.433 . S
C842 H838 0.929 . S
C842 C844 1.378 . S
C842 C846 1.350 . S
C843 C846 1.463 . S
C843 C848 1.350 . S
C843 N851 1.427 . S
C844 H835 0.930 . S
C844 C842 1.378 . S
C844 C845 1.367 . S
C845 C844 1.367 . S
C845 C847 1.433 . S
C846 C842 1.350 . S
C846 C843 1.463 . S
C846 N850 1.427 . S
C847 H837 0.929 . S
C847 C845 1.433 . S
C847 N850 1.384 . S
C848 H839 0.929 . S
C848 C840 1.378 . S
C848 C843 1.350 . S
C849 H836 0.929 . S
C849 C841 1.433 . S
C849 N851 1.384 . S
N850 C846 1.427 . S
N850 C847 1.384 . S
N851 C843 1.427 . S
N851 C849 1.384 . S
H852 C858 0.930 . S
H853 C862 0.930 . S
H854 C867 0.929 . S
H855 C865 0.929 . S
H856 C860 0.929 . S
H857 C866 0.929 . S
C858 H852 0.930 . S
C858 C859 1.367 . S
C858 C866 1.378 . S
C859 C858 1.367 . S
C859 C867 1.433 . S
C860 H856 0.929 . S
C860 C862 1.378 . S
C860 C864 1.350 . S
C861 C864 1.463 . S
C861 C866 1.350 . S
C861 N869 1.427 . S
C862 H853 0.930 . S
C862 C860 1.378 . S
C862 C863 1.367 . S
C863 C862 1.367 . S
C863 C865 1.433 . S
C864 C860 1.350 . S
C864 C861 1.463 . S
C864 N868 1.427 . S
C865 H855 0.929 . S
C865 C863 1.433 . S
C865 N868 1.384 . S
C866 H857 0.929 . S
C866 C858 1.378 . S
C866 C861 1.350 . S
C867 H854 0.929 . S
C867 C859 1.433 . S
C867 N869 1.384 . S
N868 C864 1.427 . S
N868 C865 1.384 . S
N869 C861 1.427 . S
N869 C867 1.384 . S
H870 C876 0.930 . S
H871 C880 0.930 . S
H872 C885 0.929 . S
H873 C883 0.929 1_554 S
H874 C878 0.929 . S
H875 C884 0.929 . S
C876 H870 0.930 . S
C876 C877 1.367 . S
C876 C884 1.378 . S
C877 C876 1.367 . S
C877 C885 1.433 . S
C878 H874 0.929 . S
C878 C880 1.378 . S
C878 C882 1.350 . S
C879 C882 1.463 . S
C879 C884 1.350 . S
C879 N887 1.427 . S
C880 H871 0.930 . S
C880 C878 1.378 . S
C880 C881 1.367 . S
C881 C880 1.367 . S
C881 C883 1.433 . S
C882 C878 1.350 . S
C882 C879 1.463 . S
C882 N886 1.427 . S
C883 H873 0.929 1_556 S
C883 C881 1.433 . S
C883 N886 1.384 . S
C884 H875 0.929 . S
C884 C876 1.378 . S
C884 C879 1.350 . S
C885 H872 0.929 . S
C885 C877 1.433 . S
C885 N887 1.384 . S
N886 C882 1.427 . S
N886 C883 1.384 . S
N887 C879 1.427 . S
N887 C885 1.384 . S
H888 C894 0.930 . S
H889 C898 0.930 1_556 S
H890 C903 0.929 . S
H891 C901 0.929 . S
H892 C896 0.929 . S
H893 C902 0.929 . S
C894 H888 0.930 . S
C894 C895 1.367 . S
C894 C902 1.378 . S
C895 C894 1.367 . S
C895 C903 1.433 . S
C896 H892 0.929 . S
C896 C898 1.378 . S
C896 C900 1.350 . S
C897 C900 1.463 . S
C897 C902 1.350 . S
C897 N905 1.427 . S
C898 H889 0.930 1_554 S
C898 C896 1.378 . S
C898 C899 1.367 . S
C899 C898 1.367 . S
C899 C901 1.433 . S
C900 C896 1.350 . S
C900 C897 1.463 . S
C900 N904 1.427 . S
C901 H891 0.929 . S
C901 C899 1.433 . S
C901 N904 1.384 . S
C902 H893 0.929 . S
C902 C894 1.378 . S
C902 C897 1.350 . S
C903 H890 0.929 . S
C903 C895 1.433 . S
C903 N905 1.384 . S
N904 C900 1.427 . S
N904 C901 1.384 . S
N905 C897 1.427 . S
N905 C903 1.384 . S
H906 C912 0.930 . S
H907 C916 0.930 . S
H908 C921 0.929 . S
H909 C919 0.929 . S
H910 C914 0.929 . S
H911 C920 0.929 . S
C912 H906 0.930 . S
C912 C913 1.367 . S
C912 C920 1.378 . S
C913 C912 1.367 . S
C913 C921 1.433 . S
C914 H910 0.929 . S
C914 C916 1.378 . S
C914 C918 1.350 . S
C915 C918 1.463 . S
C915 C920 1.350 . S
C915 N923 1.427 . S
C916 H907 0.930 . S
C916 C914 1.378 . S
C916 C917 1.367 . S
C917 C916 1.367 . S
C917 C919 1.433 . S
C918 C914 1.350 . S
C918 C915 1.463 . S
C918 N922 1.427 . S
C919 H909 0.929 . S
C919 C917 1.433 . S
C919 N922 1.384 . S
C920 H911 0.929 . S
C920 C912 1.378 . S
C920 C915 1.350 . S
C921 H908 0.929 . S
C921 C913 1.433 . S
C921 N923 1.384 . S
N922 C918 1.427 . S
N922 C919 1.384 . S
N923 C915 1.427 . S
N923 C921 1.384 . S
H924 C930 0.930 . S
H925 C934 0.930 . S
H926 C939 0.929 . S
H927 C937 0.929 . S
H928 C932 0.929 . S
H929 C938 0.929 . S
C930 H924 0.930 . S
C930 C931 1.367 . S
C930 C938 1.378 . S
C931 C930 1.367 . S
C931 C939 1.433 . S
C932 H928 0.929 . S
C932 C934 1.378 . S
C932 C936 1.350 . S
C933 C936 1.463 . S
C933 C938 1.350 . S
C933 N941 1.427 . S
C934 H925 0.930 . S
C934 C932 1.378 . S
C934 C935 1.367 . S
C935 C934 1.367 . S
C935 C937 1.433 . S
C936 C932 1.350 . S
C936 C933 1.463 . S
C936 N940 1.427 . S
C937 H927 0.929 . S
C937 C935 1.433 . S
C937 N940 1.384 . S
C938 H929 0.929 . S
C938 C930 1.378 . S
C938 C933 1.350 . S
C939 H926 0.929 . S
C939 C931 1.433 . S
C939 N941 1.384 . S
N940 C936 1.427 . S
N940 C937 1.384 . S
N941 C933 1.427 . S
N941 C939 1.384 . S
H942 C948 0.930 . S
H943 C952 0.930 . S
H944 C957 0.929 . S
H945 C955 0.929 . S
H946 C950 0.929 . S
H947 C956 0.929 . S
C948 H942 0.930 . S
C948 C949 1.367 . S
C948 C956 1.378 . S
C949 C948 1.367 . S
C949 C957 1.433 . S
C950 H946 0.929 . S
C950 C952 1.378 . S
C950 C954 1.350 . S
C951 C954 1.463 1_655 S
C951 C956 1.350 . S
C951 N959 1.433 . S
C952 H943 0.930 . S
C952 C950 1.378 . S
C952 C953 1.367 . S
C953 C952 1.367 . S
C953 C955 1.433 . S
C954 C950 1.350 . S
C954 C951 1.463 1_455 S
C954 N958 1.433 . S
C955 H945 0.929 . S
C955 C953 1.433 . S
C955 N958 1.414 . S
C956 H947 0.929 . S
C956 C948 1.378 . S
C956 C951 1.350 . S
C957 H944 0.929 . S
C957 C949 1.433 . S
C957 N959 1.414 . S
N958 C954 1.433 . S
N958 C955 1.414 . S
N959 C951 1.433 . S
N959 C957 1.414 . S
H960 C966 0.930 . S
H961 C970 0.930 . S
H962 C975 0.929 . S
H963 C973 0.929 . S
H964 C968 0.929 1_565 S
H965 C974 0.929 1_545 S
C966 H960 0.930 . S
C966 C967 1.367 . S
C966 C974 1.378 . S
C967 C966 1.367 . S
C967 C975 1.433 . S
C968 H964 0.929 1_545 S
C968 C970 1.378 . S
C968 C972 1.350 . S
C969 C972 1.463 1_564 S
C969 C974 1.350 . S
C969 N977 1.427 . S
C970 H961 0.930 . S
C970 C968 1.378 . S
C970 C971 1.367 . S
C971 C970 1.367 . S
C971 C973 1.433 . S
C972 C968 1.350 . S
C972 C969 1.463 1_546 S
C972 N976 1.427 . S
C973 H963 0.929 . S
C973 C971 1.433 . S
C973 N976 1.384 . S
C974 H965 0.929 1_565 S
C974 C966 1.378 . S
C974 C969 1.350 . S
C975 H962 0.929 . S
C975 C967 1.433 . S
C975 N977 1.384 . S
N976 C972 1.427 . S
N976 C973 1.384 . S
N977 C969 1.427 . S
N977 C975 1.384 . S
H978 C984 0.930 . S
H979 C988 0.930 . S
H980 C993 0.929 . S
H981 C991 0.929 . S
H982 C986 0.929 . S
H983 C992 0.929 . S
C984 H978 0.930 . S
C984 C985 1.367 . S
C984 C992 1.378 . S
C985 C984 1.367 . S
C985 C993 1.433 . S
C986 H982 0.929 . S
C986 C988 1.378 . S
C986 C990 1.350 . S
C987 C990 1.463 . S
C987 C992 1.350 . S
C987 N995 1.427 . S
C988 H979 0.930 . S
C988 C986 1.378 . S
C988 C989 1.367 . S
C989 C988 1.367 . S
C989 C991 1.433 . S
C990 C986 1.350 . S
C990 C987 1.463 . S
C990 N994 1.427 . S
C991 H981 0.929 . S
C991 C989 1.433 . S
C991 N994 1.384 . S
C992 H983 0.929 . S
C992 C984 1.378 . S
C992 C987 1.350 . S
C993 H980 0.929 . S
C993 C985 1.433 . S
C993 N995 1.384 . S
N994 C990 1.427 . S
N994 C991 1.384 . S
N995 C987 1.427 . S
N995 C993 1.384 . S
H996 C1002 0.930 . S
H997 C1006 0.930 . S
H998 C1011 0.929 . S
H999 C1009 0.929 . S
H1000 C1004 0.929 . S
H1001 C1010 0.929 . S
C1002 H996 0.930 . S
C1002 C1003 1.367 . S
C1002 C1010 1.378 . S
C1003 C1002 1.367 . S
C1003 C1011 1.433 . S
C1004 H1000 0.929 . S
C1004 C1006 1.378 . S
C1004 C1008 1.350 . S
C1005 C1008 1.463 1_455 S
C1005 C1010 1.350 . S
C1005 N1013 1.442 . S
C1006 H997 0.930 . S
C1006 C1004 1.378 . S
C1006 C1007 1.367 . S
C1007 C1006 1.367 . S
C1007 C1009 1.433 . S
C1008 C1004 1.350 . S
C1008 C1005 1.463 1_655 S
C1008 N1012 1.442 . S
C1009 H999 0.929 . S
C1009 C1007 1.433 . S
C1009 N1012 1.401 . S
C1010 H1001 0.929 . S
C1010 C1002 1.378 . S
C1010 C1005 1.350 . S
C1011 H998 0.929 . S
C1011 C1003 1.433 . S
C1011 N1013 1.402 . S
N1012 C1008 1.442 . S
N1012 C1009 1.401 . S
N1013 C1005 1.442 . S
N1013 C1011 1.402 . S
H1014 C1020 0.930 . S
H1015 C1024 0.930 . S
H1016 C1029 0.929 . S
H1017 C1027 0.929 . S
H1018 C1022 0.929 . S
H1019 C1028 0.929 . S
C1020 H1014 0.930 . S
C1020 C1021 1.367 . S
C1020 C1028 1.378 . S
C1021 C1020 1.367 . S
C1021 C1029 1.433 . S
C1022 H1018 0.929 . S
C1022 C1024 1.378 . S
C1022 C1026 1.350 . S
C1023 C1026 1.463 1_565 S
C1023 C1028 1.350 . S
C1023 N1031 1.427 . S
C1024 H1015 0.930 . S
C1024 C1022 1.378 . S
C1024 C1025 1.367 . S
C1025 C1024 1.367 . S
C1025 C1027 1.433 . S
C1026 C1022 1.350 . S
C1026 C1023 1.463 1_545 S
C1026 N1030 1.427 . S
C1027 H1017 0.929 . S
C1027 C1025 1.433 . S
C1027 N1030 1.384 . S
C1028 H1019 0.929 . S
C1028 C1020 1.378 . S
C1028 C1023 1.350 . S
C1029 H1016 0.929 . S
C1029 C1021 1.433 . S
C1029 N1031 1.384 . S
N1030 C1026 1.427 . S
N1030 C1027 1.384 . S
N1031 C1023 1.427 . S
N1031 C1029 1.384 . S
H1032 C1038 0.930 . S
H1033 C1042 0.930 . S
H1034 C1047 0.929 . S
H1035 C1045 0.929 . S
H1036 C1040 0.929 . S
H1037 C1046 0.929 . S
C1038 H1032 0.930 . S
C1038 C1039 1.367 . S
C1038 C1046 1.378 . S
C1039 C1038 1.367 . S
C1039 C1047 1.433 . S
C1040 H1036 0.929 . S
C1040 C1042 1.378 . S
C1040 C1044 1.350 . S
C1041 C1044 1.463 . S
C1041 C1046 1.350 . S
C1041 N1049 1.427 . S
C1042 H1033 0.930 . S
C1042 C1040 1.378 . S
C1042 C1043 1.367 . S
C1043 C1042 1.367 . S
C1043 C1045 1.433 . S
C1044 C1040 1.350 . S
C1044 C1041 1.463 . S
C1044 N1048 1.427 . S
C1045 H1035 0.929 . S
C1045 C1043 1.433 . S
C1045 N1048 1.384 . S
C1046 H1037 0.929 . S
C1046 C1038 1.378 . S
C1046 C1041 1.350 . S
C1047 H1034 0.929 . S
C1047 C1039 1.433 . S
C1047 N1049 1.384 . S
N1048 C1044 1.427 . S
N1048 C1045 1.384 . S
N1049 C1041 1.427 . S
N1049 C1047 1.384 . S
H1050 C1056 0.930 . S
H1051 C1060 0.930 . S
H1052 C1065 0.929 . S
H1053 C1063 0.929 . S
H1054 C1058 0.929 . S
H1055 C1064 0.929 . S
C1056 H1050 0.930 . S
C1056 C1057 1.367 . S
C1056 C1064 1.378 . S
C1057 C1056 1.367 . S
C1057 C1065 1.433 . S
C1058 H1054 0.929 . S
C1058 C1060 1.378 . S
C1058 C1062 1.350 . S
C1059 C1062 1.463 . S
C1059 C1064 1.350 . S
C1059 N1067 1.427 . S
C1060 H1051 0.930 . S
C1060 C1058 1.378 . S
C1060 C1061 1.367 . S
C1061 C1060 1.367 . S
C1061 C1063 1.433 . S
C1062 C1058 1.350 . S
C1062 C1059 1.463 . S
C1062 N1066 1.427 . S
C1063 H1053 0.929 . S
C1063 C1061 1.433 . S
C1063 N1066 1.384 . S
C1064 H1055 0.929 . S
C1064 C1056 1.378 . S
C1064 C1059 1.350 . S
C1065 H1052 0.929 . S
C1065 C1057 1.433 . S
C1065 N1067 1.384 . S
N1066 C1062 1.427 . S
N1066 C1063 1.384 . S
N1067 C1059 1.427 . S
N1067 C1065 1.384 . S
H1068 C1074 0.930 . S
H1069 C1078 0.930 . S
H1070 C1083 0.929 . S
H1071 C1081 0.929 . S
H1072 C1076 0.929 . S
H1073 C1082 0.929 1_554 S
C1074 H1068 0.930 . S
C1074 C1075 1.367 1_554 S
C1074 C1082 1.378 1_554 S
C1075 C1074 1.367 1_556 S
C1075 C1083 1.433 . S
C1076 H1072 0.929 . S
C1076 C1078 1.378 . S
C1076 C1080 1.350 . S
C1077 C1080 1.463 . S
C1077 C1082 1.350 . S
C1077 N1085 1.427 . S
C1078 H1069 0.930 . S
C1078 C1076 1.378 . S
C1078 C1079 1.367 . S
C1079 C1078 1.367 . S
C1079 C1081 1.433 . S
C1080 C1076 1.350 . S
C1080 C1077 1.463 . S
C1080 N1084 1.427 . S
C1081 H1071 0.929 . S
C1081 C1079 1.433 . S
C1081 N1084 1.384 . S
C1082 H1073 0.929 1_556 S
C1082 C1074 1.378 1_556 S
C1082 C1077 1.350 . S
C1083 H1070 0.929 . S
C1083 C1075 1.433 . S
C1083 N1085 1.384 . S
N1084 C1080 1.427 . S
N1084 C1081 1.384 . S
N1085 C1077 1.427 . S
N1085 C1083 1.384 . S
H1086 C1092 0.930 . S
H1087 C1096 0.930 . S
H1088 C1101 0.929 . S
H1089 C1099 0.929 . S
H1090 C1094 0.929 . S
H1091 C1100 0.929 . S
C1092 H1086 0.930 . S
C1092 C1093 1.367 . S
C1092 C1100 1.378 . S
C1093 C1092 1.367 . S
C1093 C1101 1.433 . S
C1094 H1090 0.929 . S
C1094 C1096 1.378 . S
C1094 C1098 1.350 . S
C1095 C1098 1.463 . S
C1095 C1100 1.350 . S
C1095 N1103 1.427 . S
C1096 H1087 0.930 . S
C1096 C1094 1.378 . S
C1096 C1097 1.367 . S
C1097 C1096 1.367 . S
C1097 C1099 1.433 1_554 S
C1098 C1094 1.350 . S
C1098 C1095 1.463 . S
C1098 N1102 1.427 . S
C1099 H1089 0.929 . S
C1099 C1097 1.433 1_556 S
C1099 N1102 1.384 1_556 S
C1100 H1091 0.929 . S
C1100 C1092 1.378 . S
C1100 C1095 1.350 . S
C1101 H1088 0.929 . S
C1101 C1093 1.433 . S
C1101 N1103 1.384 . S
N1102 C1098 1.427 . S
N1102 C1099 1.384 1_554 S
N1103 C1095 1.427 . S
N1103 C1101 1.384 . S
H1104 C1110 0.930 . S
H1105 C1114 0.930 . S
H1106 C1119 0.929 . S
H1107 C1117 0.929 . S
H1108 C1112 0.929 . S
H1109 C1118 0.929 . S
C1110 H1104 0.930 . S
C1110 C1111 1.367 . S
C1110 C1118 1.378 . S
C1111 C1110 1.367 . S
C1111 C1119 1.433 . S
C1112 H1108 0.929 . S
C1112 C1114 1.378 . S
C1112 C1116 1.350 . S
C1113 C1116 1.463 . S
C1113 C1118 1.350 . S
C1113 N1121 1.427 . S
C1114 H1105 0.930 . S
C1114 C1112 1.378 . S
C1114 C1115 1.367 . S
C1115 C1114 1.367 . S
C1115 C1117 1.433 . S
C1116 C1112 1.350 . S
C1116 C1113 1.463 . S
C1116 N1120 1.427 . S
C1117 H1107 0.929 . S
C1117 C1115 1.433 . S
C1117 N1120 1.384 . S
C1118 H1109 0.929 . S
C1118 C1110 1.378 . S
C1118 C1113 1.350 . S
C1119 H1106 0.929 . S
C1119 C1111 1.433 . S
C1119 N1121 1.384 . S
N1120 C1116 1.427 . S
N1120 C1117 1.384 . S
N1121 C1113 1.427 . S
N1121 C1119 1.384 . S
H1122 C1128 0.930 . S
H1123 C1132 0.930 . S
H1124 C1137 0.929 . S
H1125 C1135 0.929 . S
H1126 C1130 0.929 . S
H1127 C1136 0.929 . S
C1128 H1122 0.930 . S
C1128 C1129 1.367 . S
C1128 C1136 1.378 . S
C1129 C1128 1.367 . S
C1129 C1137 1.433 . S
C1130 H1126 0.929 . S
C1130 C1132 1.378 . S
C1130 C1134 1.350 . S
C1131 C1134 1.463 . S
C1131 C1136 1.350 . S
C1131 N1139 1.427 . S
C1132 H1123 0.930 . S
C1132 C1130 1.378 . S
C1132 C1133 1.367 . S
C1133 C1132 1.367 . S
C1133 C1135 1.433 . S
C1134 C1130 1.350 . S
C1134 C1131 1.463 . S
C1134 N1138 1.427 . S
C1135 H1125 0.929 . S
C1135 C1133 1.433 . S
C1135 N1138 1.384 . S
C1136 H1127 0.929 . S
C1136 C1128 1.378 . S
C1136 C1131 1.350 . S
C1137 H1124 0.929 . S
C1137 C1129 1.433 . S
C1137 N1139 1.384 . S
N1138 C1134 1.427 . S
N1138 C1135 1.384 . S
N1139 C1131 1.427 . S
N1139 C1137 1.384 . S
C715 C583 2.023 1_554 S
C719 C52 2.023 . S
C733 C111 2.026 . S
C737 C642 2.026 . S
C751 C701 2.026 . S
C755 C170 2.026 . S
C769 C406 2.023 . S
C773 C229 2.023 . S
C787 C465 2.024 . S
C791 C288 2.023 1_556 S
C805 C524 2.026 . S
C809 C347 2.026 . S
C823 C387 1.668 . S
C827 C33 1.659 . S
C841 C92 1.666 . S
C845 C446 1.658 . S
C859 C505 1.660 . S
C863 C151 1.657 . S
C877 C210 1.662 . S
C881 C564 1.657 . S
C895 C623 1.665 . S
C899 C269 1.671 . S
C913 C328 1.659 . S
C917 C682 1.668 . S
C931 C534 1.075 . S
C935 C3 1.086 . S
C949 C593 1.084 . S
C953 C62 1.079 . S
C967 C652 1.082 . S
C971 C121 1.072 . S
C985 C180 1.076 . S
C989 C357 1.086 . S
C1003 C416 1.079 . S
C1007 C239 1.084 . S
C1021 C298 1.077 . S
C1025 C475 1.085 . S
C1039 C5 1.258 . S
C1043 C477 1.258 . S
C1057 C536 1.251 . S
C1061 C64 1.252 . S
C1075 C595 1.258 1_556 S
C1079 C123 1.258 . S
C1093 C654 1.251 . S
C1097 C182 1.251 1_554 S
C1111 C359 1.254 . S
C1115 C241 1.253 . S
C1129 C418 1.256 . S
C1133 C300 1.256 . S
