# Generated by pormake.
# Topology umg, (4)-cn, num edge types: 1
# Building blocks:
#     Node 0, Type 0, BuildingBlock: GALJAG_clean_sbu_0, # of connection points: 4
#     Node 1, Type 0, BuildingBlock: GALJAG_clean_sbu_0, # of connection points: 4
#     Node 2, Type 0, BuildingBlock: GALJAG_clean_sbu_0, # of connection points: 4
#     Node 3, Type 0, BuildingBlock: GALJAG_clean_sbu_0, # of connection points: 4
#     Node 4, Type 0, BuildingBlock: GALJAG_clean_sbu_0, # of connection points: 4
#     Node 5, Type 0, BuildingBlock: GALJAG_clean_sbu_0, # of connection points: 4
#     Node 6, Type 0, BuildingBlock: GALJAG_clean_sbu_0, # of connection points: 4
#     Node 7, Type 0, BuildingBlock: GALJAG_clean_sbu_0, # of connection points: 4
#     Node 8, Type 0, BuildingBlock: GALJAG_clean_sbu_0, # of connection points: 4
#     Node 9, Type 0, BuildingBlock: GALJAG_clean_sbu_0, # of connection points: 4
#     Node 10, Type 0, BuildingBlock: GALJAG_clean_sbu_0, # of connection points: 4
#     Node 11, Type 0, BuildingBlock: GALJAG_clean_sbu_0, # of connection points: 4
#     Edge 12, Type (0, 0), BuildingBlock: TEMPAE_clean_linker_10, # of connection points: 2
#     Edge 13, Type (0, 0), BuildingBlock: TEMPAE_clean_linker_10, # of connection points: 2
#     Edge 14, Type (0, 0), BuildingBlock: TEMPAE_clean_linker_10, # of connection points: 2
#     Edge 15, Type (0, 0), BuildingBlock: TEMPAE_clean_linker_10, # of connection points: 2
#     Edge 16, Type (0, 0), BuildingBlock: TEMPAE_clean_linker_10, # of connection points: 2
#     Edge 17, Type (0, 0), BuildingBlock: TEMPAE_clean_linker_10, # of connection points: 2
#     Edge 18, Type (0, 0), BuildingBlock: TEMPAE_clean_linker_10, # of connection points: 2
#     Edge 19, Type (0, 0), BuildingBlock: TEMPAE_clean_linker_10, # of connection points: 2
#     Edge 20, Type (0, 0), BuildingBlock: TEMPAE_clean_linker_10, # of connection points: 2
#     Edge 21, Type (0, 0), BuildingBlock: TEMPAE_clean_linker_10, # of connection points: 2
#     Edge 22, Type (0, 0), BuildingBlock: TEMPAE_clean_linker_10, # of connection points: 2
#     Edge 23, Type (0, 0), BuildingBlock: TEMPAE_clean_linker_10, # of connection points: 2
#     Edge 24, Type (0, 0), BuildingBlock: TEMPAE_clean_linker_10, # of connection points: 2
#     Edge 25, Type (0, 0), BuildingBlock: TEMPAE_clean_linker_10, # of connection points: 2
#     Edge 26, Type (0, 0), BuildingBlock: TEMPAE_clean_linker_10, # of connection points: 2
#     Edge 27, Type (0, 0), BuildingBlock: TEMPAE_clean_linker_10, # of connection points: 2
#     Edge 28, Type (0, 0), BuildingBlock: TEMPAE_clean_linker_10, # of connection points: 2
#     Edge 29, Type (0, 0), BuildingBlock: TEMPAE_clean_linker_10, # of connection points: 2
#     Edge 30, Type (0, 0), BuildingBlock: TEMPAE_clean_linker_10, # of connection points: 2
#     Edge 31, Type (0, 0), BuildingBlock: TEMPAE_clean_linker_10, # of connection points: 2
#     Edge 32, Type (0, 0), BuildingBlock: TEMPAE_clean_linker_10, # of connection points: 2
#     Edge 33, Type (0, 0), BuildingBlock: TEMPAE_clean_linker_10, # of connection points: 2
#     Edge 34, Type (0, 0), BuildingBlock: TEMPAE_clean_linker_10, # of connection points: 2
#     Edge 35, Type (0, 0), BuildingBlock: TEMPAE_clean_linker_10, # of connection points: 2
# Relax obj value: 0.078
# Max RMSD: 0.205
# Mean RMSD: 0.205
data_MOF--net-umg--node1-GALJAG_clean_sbu_0--edge1-TEMPAE_clean_linker_10
_symmetry_space_group_name_H-M    P1
_symmetry_Int_Tables_number       1
_symmetry_cell_setting            triclinic
loop_
_symmetry_equiv_pos_as_xyz
'x, y, z'
_cell_length_a     28.952101
_cell_length_b     28.952265
_cell_length_c     87.334295
_cell_angle_alpha  90.031351
_cell_angle_beta   89.887085
_cell_angle_gamma 120.0346
loop_
_atom_site_label
_atom_site_type_symbol
_atom_site_fract_x
_atom_site_fract_y
_atom_site_fract_z
_atom_type_partial_charge
In0 In 0.33305 0.60957 0.07708 0.0
O1 O 0.3615 0.6847 0.06222 0.0
O2 O 0.35528 0.61459 0.05224 0.0
C3 C 0.34018 0.64469 0.10592 0.0
C4 C 0.39845 0.5685 0.0786 0.0
C5 C 0.22614 0.56104 0.07346 0.0
O6 O 0.36801 0.67588 0.09524 0.0
O7 O 0.30921 0.59714 0.1019 0.0
O8 O 0.24882 0.53618 0.0783 0.0
O9 O 0.25733 0.60932 0.07015 0.0
C10 C 0.36631 0.66224 0.05035 0.0
O11 O 0.35203 0.54254 0.07297 0.0
O12 O 0.41104 0.61422 0.08359 0.0
In13 In 0.70264 0.30761 0.40978 0.0
O14 O 0.78841 0.32283 0.40837 0.0
O15 O 0.77541 0.38863 0.40559 0.0
C16 C 0.63358 0.20192 0.41087 0.0
C17 C 0.67321 0.32266 0.38211 0.0
C18 C 0.69338 0.32965 0.43906 0.0
O19 O 0.68364 0.22069 0.41091 0.0
O20 O 0.61895 0.2363 0.41026 0.0
O21 O 0.67482 0.34489 0.42829 0.0
O22 O 0.71618 0.30439 0.43486 0.0
C23 C 0.80856 0.37248 0.40612 0.0
O24 O 0.66673 0.34437 0.39392 0.0
O25 O 0.69441 0.29428 0.38446 0.0
In26 In 0.39283 0.70177 0.74271 0.0
O27 O 0.31653 0.66709 0.72804 0.0
O28 O 0.39177 0.69072 0.71741 0.0
C29 C 0.36969 0.69378 0.77265 0.0
C30 C 0.43304 0.8073 0.73917 0.0
C31 C 0.43071 0.63407 0.74286 0.0
O32 O 0.33309 0.67352 0.76264 0.0
O33 O 0.41665 0.71697 0.76741 0.0
O34 O 0.4615 0.68416 0.7436 0.0
O35 O 0.38151 0.61871 0.74221 0.0
C36 C 0.3421 0.67102 0.71583 0.0
O37 O 0.46065 0.78545 0.73634 0.0
O38 O 0.38596 0.77598 0.74361 0.0
In39 In 0.72549 0.39338 0.07789 0.0
O40 O 0.68479 0.32053 0.06196 0.0
O41 O 0.72906 0.39864 0.05231 0.0
C42 C 0.7086 0.35681 0.10667 0.0
C43 C 0.66234 0.43728 0.07823 0.0
C44 C 0.83115 0.43002 0.07676 0.0
O45 O 0.68549 0.32602 0.09546 0.0
O46 O 0.74061 0.40482 0.1032 0.0
O47 O 0.81256 0.46074 0.07929 0.0
O48 O 0.79655 0.38144 0.07496 0.0
C49 C 0.70166 0.34903 0.05001 0.0
O50 O 0.71146 0.46459 0.07491 0.0
O51 O 0.64603 0.38898 0.08123 0.0
In52 In 0.30871 0.69928 0.41094 0.0
O53 O 0.22372 0.68622 0.4116 0.0
O54 O 0.23502 0.62263 0.40383 0.0
C55 C 0.37068 0.80655 0.4126 0.0
C56 C 0.33532 0.68324 0.38284 0.0
C57 C 0.3235 0.66741 0.43862 0.0
O58 O 0.32084 0.78363 0.4149 0.0
O59 O 0.38839 0.77561 0.40981 0.0
O60 O 0.35692 0.67917 0.42791 0.0
O61 O 0.2832 0.67092 0.43526 0.0
C62 C 0.20266 0.6387 0.40671 0.0
O63 O 0.33744 0.65748 0.39429 0.0
O64 O 0.31971 0.71601 0.38573 0.0
In65 In 0.6045 0.30735 0.7411 0.0
O66 O 0.53984 0.22272 0.73431 0.0
O67 O 0.61471 0.23509 0.74233 0.0
C68 C 0.56197 0.37105 0.74082 0.0
C69 C 0.65919 0.34217 0.71492 0.0
C70 C 0.62444 0.31652 0.77118 0.0
O71 O 0.53303 0.32074 0.74167 0.0
O72 O 0.61161 0.38865 0.74014 0.0
O73 O 0.66213 0.33648 0.76146 0.0
O74 O 0.57809 0.29281 0.76558 0.0
C75 C 0.56858 0.20246 0.73753 0.0
O76 O 0.68317 0.34641 0.72744 0.0
O77 O 0.60903 0.31996 0.71584 0.0
In78 In 0.39711 0.69942 0.58109 0.0
O79 O 0.46304 0.68016 0.58706 0.0
O80 O 0.38347 0.61593 0.58402 0.0
C81 C 0.44655 0.80622 0.57759 0.0
C82 C 0.34117 0.68836 0.60685 0.0
C83 C 0.37075 0.6745 0.55167 0.0
O84 O 0.47002 0.78359 0.58354 0.0
O85 O 0.39944 0.77496 0.57321 0.0
O86 O 0.33877 0.6767 0.56117 0.0
O87 O 0.41535 0.68474 0.55703 0.0
C88 C 0.43153 0.63014 0.58679 0.0
O89 O 0.3188 0.66031 0.59514 0.0
O90 O 0.3903 0.72083 0.60537 0.0
In91 In 0.68058 0.39317 0.91486 0.0
O92 O 0.76587 0.46099 0.91997 0.0
O93 O 0.7544 0.3864 0.91203 0.0
C94 C 0.61386 0.43209 0.91672 0.0
C95 C 0.65299 0.33979 0.94136 0.0
C96 C 0.66543 0.36882 0.88506 0.0
O97 O 0.66381 0.46247 0.91521 0.0
O98 O 0.59811 0.38276 0.91716 0.0
O99 O 0.65062 0.33278 0.8952 0.0
O100 O 0.68656 0.41591 0.89009 0.0
C101 C 0.7869 0.43336 0.91621 0.0
O102 O 0.64797 0.31565 0.92883 0.0
O103 O 0.67227 0.38957 0.94034 0.0
In104 In 0.3036 0.70433 0.24765 0.0
O105 O 0.31765 0.78938 0.25041 0.0
O106 O 0.37994 0.77431 0.25665 0.0
C107 C 0.19761 0.63914 0.24473 0.0
C108 C 0.31462 0.6587 0.27302 0.0
C109 C 0.33367 0.70853 0.21833 0.0
O110 O 0.21716 0.68513 0.25066 0.0
O111 O 0.23155 0.62703 0.24008 0.0
O112 O 0.34207 0.68167 0.22826 0.0
O113 O 0.31099 0.73301 0.22335 0.0
C114 C 0.36472 0.80798 0.25537 0.0
O115 O 0.34439 0.66713 0.26147 0.0
O116 O 0.28007 0.67276 0.27153 0.0
In117 In 0.60802 0.30569 0.58147 0.0
O118 O 0.68714 0.34772 0.59495 0.0
O119 O 0.61544 0.29174 0.60631 0.0
C120 C 0.62908 0.32574 0.55166 0.0
C121 C 0.56573 0.36925 0.58584 0.0
C122 C 0.57177 0.20026 0.57926 0.0
O123 O 0.66604 0.3434 0.56156 0.0
O124 O 0.58229 0.298 0.5569 0.0
O125 O 0.54191 0.21825 0.58359 0.0
O126 O 0.61907 0.2354 0.57596 0.0
C127 C 0.66498 0.32333 0.60721 0.0
O128 O 0.53867 0.31944 0.58821 0.0
O129 O 0.61316 0.38613 0.58162 0.0
In130 In 0.28845 0.60702 0.91556 0.0
O131 O 0.20317 0.53935 0.92006 0.0
O132 O 0.21444 0.61133 0.90993 0.0
C133 C 0.34954 0.56184 0.9194 0.0
C134 C 0.30798 0.66038 0.94212 0.0
C135 C 0.31154 0.6367 0.88615 0.0
O136 O 0.30115 0.5349 0.91538 0.0
O137 O 0.3663 0.61068 0.92175 0.0
O138 O 0.31767 0.67011 0.89647 0.0
O139 O 0.29483 0.58977 0.89083 0.0
C140 C 0.182 0.56526 0.91488 0.0
O141 O 0.33408 0.68321 0.93009 0.0
O142 O 0.27259 0.61211 0.94045 0.0
In143 In 0.69868 0.30032 0.2489 0.0
O144 O 0.68678 0.21649 0.25251 0.0
O145 O 0.62276 0.22986 0.25805 0.0
C146 C 0.8047 0.36577 0.24605 0.0
C147 C 0.684 0.34807 0.27322 0.0
C148 C 0.67111 0.29231 0.21929 0.0
O149 O 0.78522 0.32144 0.253 0.0
O150 O 0.77072 0.37619 0.24047 0.0
O151 O 0.66327 0.32173 0.22844 0.0
O152 O 0.69159 0.26713 0.22525 0.0
C153 C 0.6392 0.19704 0.25717 0.0
O154 O 0.65371 0.33553 0.26165 0.0
O155 O 0.72084 0.33698 0.27225 0.0
C156 C 0.28391 0.65985 0.96933 0.0
C157 C 0.32103 0.68467 0.9575 0.0
C158 C 0.29873 0.67228 0.98466 0.0
C159 C 0.35209 0.71074 0.98827 0.0
C160 C 0.38814 0.74028 0.97634 0.0
C161 C 0.37219 0.7267 0.961 0.0
C162 C 0.25859 0.64008 -0.00304 0.0
C163 C 0.44476 0.78289 0.97972 0.0
C164 C 0.36668 0.72721 0.03129 0.0
C165 C 0.377 0.68605 0.0349 0.0
C166 C 0.36402 0.74031 0.01592 0.0
C167 C 0.37146 0.7112 0.00407 0.0
C168 C 0.38759 0.67376 0.00778 0.0
C169 C 0.39019 0.66174 0.02315 0.0
C170 C 0.34863 0.78184 0.01243 0.0
C171 C 0.39663 0.64213 0.99556 0.0
H172 H 0.24397 0.62801 0.96663 0.0
H173 H 0.4009 0.74635 0.95187 0.0
H174 H 0.27002 0.61261 0.0024 0.0
H175 H 0.2581 0.66663 0.00603 0.0
H176 H 0.21756 0.61592 0.99232 0.0
H177 H 0.46225 0.81149 0.97005 0.0
H178 H 0.44695 0.80518 0.99028 0.0
H179 H 0.46951 0.76398 0.98149 0.0
H180 H 0.35696 0.7465 0.04036 0.0
H181 H 0.39921 0.63059 0.02593 0.0
H182 H 0.30493 0.7619 0.01055 0.0
H183 H 0.36868 0.80439 0.00188 0.0
H184 H 0.3588 0.81034 0.02208 0.0
H185 H 0.35794 0.61374 0.99016 0.0
H186 H 0.41454 0.61901 0.00026 0.0
H187 H 0.42322 0.66894 0.98645 0.0
C188 C 0.65796 0.29703 0.35476 0.0
C189 C 0.65965 0.33094 0.36645 0.0
C190 C 0.65286 0.30753 0.33944 0.0
C191 C 0.64947 0.35332 0.33565 0.0
C192 C 0.64715 0.38562 0.34748 0.0
C193 C 0.65238 0.37405 0.36282 0.0
C194 C 0.65483 0.2714 0.32726 0.0
C195 C 0.64252 0.43414 0.34398 0.0
C196 C 0.71677 0.39633 0.29765 0.0
C197 C 0.6737 0.36646 0.28786 0.0
C198 C 0.70869 0.3989 0.31335 0.0
C199 C 0.65625 0.37017 0.31934 0.0
C200 C 0.61226 0.34642 0.30919 0.0
C201 C 0.62153 0.34481 0.29343 0.0
C202 C 0.75678 0.42607 0.32368 0.0
C203 C 0.55572 0.31709 0.3151 0.0
H204 H 0.66258 0.26307 0.35755 0.0
H205 H 0.65327 0.40016 0.37186 0.0
H206 H 0.62079 0.25813 0.31926 0.0
H207 H 0.6921 0.29357 0.32047 0.0
H208 H 0.65365 0.23546 0.33219 0.0
H209 H 0.62482 0.44447 0.35377 0.0
H210 H 0.68289 0.46866 0.34181 0.0
H211 H 0.61796 0.42806 0.33362 0.0
H212 H 0.75715 0.41383 0.29324 0.0
H213 H 0.58814 0.32195 0.28582 0.0
H214 H 0.76342 0.39543 0.32926 0.0
H215 H 0.75027 0.44874 0.33284 0.0
H216 H 0.79348 0.45377 0.31723 0.0
H217 H 0.54568 0.2764 0.31876 0.0
H218 H 0.52689 0.31317 0.30611 0.0
H219 H 0.55097 0.33772 0.32518 0.0
C220 C 0.27444 0.66175 0.69627 0.0
C221 C 0.31782 0.65579 0.70051 0.0
C222 C 0.25994 0.65873 0.68076 0.0
C223 C 0.28971 0.64966 0.66944 0.0
C224 C 0.32978 0.63808 0.67398 0.0
C225 C 0.34336 0.64147 0.68944 0.0
C226 C 0.21588 0.66962 0.67646 0.0
C227 C 0.36218 0.62734 0.6624 0.0
C228 C 0.27375 0.63119 0.62662 0.0
C229 C 0.31491 0.68123 0.62184 0.0
C230 C 0.25967 0.62137 0.64221 0.0
C231 C 0.28773 0.66253 0.65305 0.0
C232 C 0.32439 0.71471 0.6479 0.0
C233 C 0.33759 0.72332 0.63236 0.0
C234 C 0.21883 0.56576 0.64719 0.0
C235 C 0.35466 0.7602 0.65897 0.0
H236 H 0.25436 0.67242 0.70488 0.0
H237 H 0.37622 0.63574 0.69278 0.0
H238 H 0.23327 0.71275 0.67396 0.0
H239 H 0.19439 0.647 0.66608 0.0
H240 H 0.18682 0.65921 0.68598 0.0
H241 H 0.38797 0.61385 0.6679 0.0
H242 H 0.33562 0.59644 0.65412 0.0
H243 H 0.3881 0.66434 0.65585 0.0
H244 H 0.25573 0.59867 0.61846 0.0
H245 H 0.36866 0.76237 0.62859 0.0
H246 H 0.1958 0.56668 0.65724 0.0
H247 H 0.23942 0.5437 0.65053 0.0
H248 H 0.19071 0.54342 0.63775 0.0
H249 H 0.32723 0.76176 0.66755 0.0
H250 H 0.37615 0.79937 0.65304 0.0
H251 H 0.38439 0.75388 0.66522 0.0
C252 C 0.64414 0.27924 0.0308 0.0
C253 C 0.69028 0.32752 0.03431 0.0
C254 C 0.62967 0.26403 0.01546 0.0
C255 C 0.66237 0.29794 0.00355 0.0
C256 C 0.71129 0.3443 0.00718 0.0
C257 C 0.72441 0.35857 0.0225 0.0
C258 C 0.57769 0.21389 0.01207 0.0
C259 C 0.74796 0.38138 0.99489 0.0
C260 C 0.65807 0.27923 0.96076 0.0
C261 C 0.63976 0.3138 0.95643 0.0
C262 C 0.65989 0.26777 0.97633 0.0
C263 C 0.64273 0.29135 0.98754 0.0
C264 C 0.61774 0.3204 0.98292 0.0
C265 C 0.61714 0.33176 0.96739 0.0
C266 C 0.68558 0.23553 0.9808 0.0
C267 C 0.59769 0.34527 0.99443 0.0
H268 H 0.6179 0.25498 0.03997 0.0
H269 H 0.76068 0.39541 0.02522 0.0
H270 H 0.54608 0.22429 0.01024 0.0
H271 H 0.58061 0.19407 0.00154 0.0
H272 H 0.56517 0.18521 0.02176 0.0
H273 H 0.78676 0.41265 -0.00039 0.0
H274 H 0.7559 0.35863 0.98608 0.0
H275 H 0.72858 0.40139 0.98911 0.0
H276 H 0.67543 0.26526 0.95221 0.0
H277 H 0.6023 0.35794 0.96392 0.0
H278 H 0.66588 0.21062 0.99103 0.0
H279 H 0.72806 0.26301 0.98371 0.0
H280 H 0.68412 0.20936 0.97128 0.0
H281 H 0.57479 0.31657 0.00367 0.0
H282 H 0.57188 0.35891 0.98902 0.0
H283 H 0.63221 0.3803 -0.00022 0.0
C284 C 0.37442 0.6563 0.2932 0.0
C285 C 0.32292 0.64082 0.28802 0.0
C286 C 0.38406 0.65422 0.3089 0.0
C287 C 0.34113 0.63624 0.31942 0.0
C288 C 0.28831 0.61408 0.31388 0.0
C289 C 0.27992 0.61694 0.29823 0.0
C290 C 0.44073 0.67669 0.31431 0.0
C291 C 0.24115 0.59342 0.32463 0.0
C292 C 0.34622 0.62737 0.36272 0.0
C293 C 0.34671 0.67431 0.36698 0.0
C294 C 0.3486 0.61574 0.34718 0.0
C295 C 0.35137 0.65193 0.33581 0.0
C296 C 0.35611 0.70122 0.34022 0.0
C297 C 0.35365 0.71168 0.35573 0.0
C298 C 0.34453 0.5633 0.34298 0.0
C299 C 0.35977 0.74142 0.32852 0.0
H300 H 0.40771 0.67452 0.28527 0.0
H301 H 0.23993 0.60413 0.29415 0.0
H302 H 0.45665 0.71865 0.31799 0.0
H303 H 0.44267 0.65397 0.32428 0.0
H304 H 0.46685 0.67622 0.30505 0.0
H305 H 0.20263 0.5703 0.31848 0.0
H306 H 0.24362 0.56765 0.33359 0.0
H307 H 0.24131 0.6276 0.33045 0.0
H308 H 0.34124 0.59853 0.37142 0.0
H309 H 0.35502 0.74848 0.35901 0.0
H310 H 0.36883 0.56739 0.33268 0.0
H311 H 0.30239 0.53374 0.34032 0.0
H312 H 0.35756 0.5473 0.35256 0.0
H313 H 0.39193 0.7502 0.32013 0.0
H314 H 0.36774 0.77953 0.33388 0.0
H315 H 0.32169 0.72469 0.3221 0.0
C316 C 0.73083 0.35594 0.69618 0.0
C317 C 0.68586 0.35984 0.69996 0.0
C318 C 0.74742 0.36028 0.68082 0.0
C319 C 0.71801 0.3684 0.66922 0.0
C320 C 0.67662 0.3786 0.67336 0.0
C321 C 0.66103 0.37401 0.68868 0.0
C322 C 0.79315 0.35139 0.67696 0.0
C323 C 0.6446 0.38844 0.66148 0.0
C324 C 0.73302 0.38333 0.62636 0.0
C325 C 0.6924 0.33247 0.62202 0.0
C326 C 0.74773 0.39474 0.64185 0.0
C327 C 0.72079 0.35436 0.653 0.0
C328 C 0.68508 0.3014 0.64826 0.0
C329 C 0.67122 0.29123 0.63281 0.0
C330 C 0.78786 0.45109 0.64638 0.0
C331 C 0.65616 0.25662 0.65966 0.0
H332 H 0.75047 0.34559 0.70497 0.0
H333 H 0.627 0.37829 0.6917 0.0
H334 H 0.77756 0.30825 0.67494 0.0
H335 H 0.81439 0.37338 0.66646 0.0
H336 H 0.82206 0.36399 0.68657 0.0
H337 H 0.61767 0.40109 0.66671 0.0
H338 H 0.67142 0.41966 0.65328 0.0
H339 H 0.61984 0.35129 0.65487 0.0
H340 H 0.74994 0.41514 0.61795 0.0
H341 H 0.64066 0.25156 0.62934 0.0
H342 H 0.81053 0.4518 0.6567 0.0
H343 H 0.76672 0.47317 0.64909 0.0
H344 H 0.81633 0.47237 0.6369 0.0
H345 H 0.68443 0.25644 0.66816 0.0
H346 H 0.63511 0.21694 0.65401 0.0
H347 H 0.62621 0.26258 0.66596 0.0
C348 C 0.37041 0.68117 0.19634 0.0
C349 C 0.3453 0.70853 0.20185 0.0
C350 C 0.37624 0.67661 0.18052 0.0
C351 C 0.35585 0.69937 0.17007 0.0
C352 C 0.33279 0.72916 0.17562 0.0
C353 C 0.32807 0.73361 0.19144 0.0
C354 C 0.40175 0.64516 0.17501 0.0
C355 C 0.31001 0.75353 0.16487 0.0
C356 C 0.38833 0.70765 0.12753 0.0
C357 C 0.34405 0.66096 0.1221 0.0
C358 C 0.39323 0.72067 0.14319 0.0
C359 C 0.35247 0.68652 0.15349 0.0
C360 C 0.30725 0.63993 0.14795 0.0
C361 C 0.30381 0.62758 0.13235 0.0
C362 C 0.44218 0.77041 0.14875 0.0
C363 C 0.26241 0.60295 0.15849 0.0
H364 H 0.38415 0.66209 0.20435 0.0
H365 H 0.30883 0.75506 0.19563 0.0
H366 H 0.37082 0.60698 0.16993 0.0
H367 H 0.4316 0.66747 0.16593 0.0
H368 H 0.42163 0.63602 0.18444 0.0
H369 H 0.29844 0.77997 0.17093 0.0
H370 H 0.33927 0.77693 0.15578 0.0
H371 H 0.27412 0.7213 0.15914 0.0
H372 H 0.41966 0.73329 0.11962 0.0
H373 H 0.26936 0.59154 0.12818 0.0
H374 H 0.46337 0.75964 0.15735 0.0
H375 H 0.43045 0.79716 0.15451 0.0
H376 H 0.47026 0.79273 0.13929 0.0
H377 H 0.27786 0.58705 0.16744 0.0
H378 H 0.22965 0.56877 0.15229 0.0
H379 H 0.24562 0.62522 0.16441 0.0
C380 C 0.70135 0.31149 0.46637 0.0
C381 C 0.68739 0.33787 0.45546 0.0
C382 C 0.69357 0.31547 0.482 0.0
C383 C 0.672 0.34733 0.4869 0.0
C384 C 0.65957 0.37571 0.47601 0.0
C385 C 0.667 0.37027 0.46033 0.0
C386 C 0.70662 0.28389 0.49321 0.0
C387 C 0.6374 0.41079 0.48091 0.0
C388 C 0.59913 0.30246 0.5247 0.0
C389 C 0.6392 0.33492 0.53508 0.0
C390 C 0.60859 0.30775 0.50891 0.0
C391 C 0.65906 0.34721 0.50336 0.0
C392 C 0.69882 0.38198 0.51375 0.0
C393 C 0.68862 0.37498 0.52956 0.0
C394 C 0.56552 0.26913 0.49822 0.0
C395 C 0.75272 0.42519 0.50821 0.0
H396 H 0.71717 0.28638 0.46267 0.0
H397 H 0.65652 0.39099 0.45192 0.0
H398 H 0.73487 0.31076 0.50201 0.0
H399 H 0.66977 0.25439 0.49925 0.0
H400 H 0.72452 0.26219 0.48753 0.0
H401 H 0.63486 0.43425 0.47121 0.0
H402 H 0.59686 0.38582 0.48578 0.0
H403 H 0.66265 0.43871 0.49002 0.0
H404 H 0.56082 0.27145 0.52895 0.0
H405 H 0.71943 0.40055 0.53758 0.0
H406 H 0.57877 0.24327 0.49264 0.0
H407 H 0.55818 0.29104 0.48902 0.0
H408 H 0.5273 0.24324 0.50429 0.0
H409 H 0.77559 0.40687 0.50362 0.0
H410 H 0.77638 0.45326 0.51752 0.0
H411 H 0.74806 0.44811 0.49875 0.0
C412 C 0.40289 0.71239 0.79946 0.0
C413 C 0.35955 0.69054 0.78932 0.0
C414 C 0.39503 0.70786 0.81534 0.0
C415 C 0.34248 0.68103 0.82125 0.0
C416 C 0.29846 0.66048 0.81109 0.0
C417 C 0.30753 0.66533 0.7952 0.0
C418 C 0.44304 0.72992 0.82575 0.0
C419 C 0.24185 0.63191 0.81702 0.0
C420 C 0.32361 0.61332 0.85966 0.0
C421 C 0.32112 0.64983 0.86969 0.0
C422 C 0.33027 0.62302 0.84389 0.0
C423 C 0.33394 0.67018 0.83795 0.0
C424 C 0.33143 0.70731 0.848 0.0
C425 C 0.32539 0.69685 0.86382 0.0
C426 C 0.33372 0.58284 0.83361 0.0
C427 C 0.33487 0.75784 0.84202 0.0
H428 H 0.44328 0.7322 0.795 0.0
H429 H 0.27394 0.64871 0.7874 0.0
H430 H 0.44062 0.75622 0.83457 0.0
H431 H 0.44373 0.69665 0.83185 0.0
H432 H 0.48118 0.75297 0.81938 0.0
H433 H 0.21227 0.62271 0.80775 0.0
H434 H 0.23326 0.59395 0.82257 0.0
H435 H 0.23653 0.65647 0.82584 0.0
H436 H 0.32051 0.57697 0.86416 0.0
H437 H 0.32307 0.72493 0.87155 0.0
H438 H 0.37247 0.60209 0.82744 0.0
H439 H 0.30178 0.56813 0.82485 0.0
H440 H 0.32993 0.54806 0.84007 0.0
H441 H 0.37357 0.78253 0.83609 0.0
H442 H 0.33103 0.782 0.85129 0.0
H443 H 0.30294 0.7479 0.83347 0.0
C444 C 0.64858 0.29568 0.12714 0.0
C445 C 0.69745 0.33967 0.12278 0.0
C446 C 0.63625 0.28266 0.14268 0.0
C447 C 0.67424 0.31377 0.15398 0.0
C448 C 0.7241 0.35745 0.14955 0.0
C449 C 0.73483 0.37015 0.13401 0.0
C450 C 0.5824 0.23637 0.14704 0.0
C451 C 0.7662 0.39091 0.16122 0.0
C452 C 0.64424 0.32261 0.19578 0.0
C453 C 0.66274 0.29114 0.20259 0.0
C454 C 0.64393 0.32729 0.17977 0.0
C455 C 0.66324 0.30041 0.17048 0.0
C456 C 0.6788 0.26604 0.1773 0.0
C457 C 0.67803 0.26158 0.19326 0.0
C458 C 0.62603 0.3635 0.17286 0.0
C459 C 0.70013 0.23709 0.16784 0.0
H460 H 0.61941 0.27252 0.11844 0.0
H461 H 0.7727 0.40413 0.13064 0.0
H462 H 0.58736 0.20668 0.15377 0.0
H463 H 0.5609 0.25065 0.15443 0.0
H464 H 0.55735 0.21617 0.13687 0.0
H465 H 0.80328 0.42285 0.15582 0.0
H466 H 0.75058 0.40976 0.16917 0.0
H467 H 0.77648 0.36525 0.16817 0.0
H468 H 0.63197 0.34517 0.20294 0.0
H469 H 0.69199 0.23679 0.19845 0.0
H470 H 0.5994 0.34391 0.16294 0.0
H471 H 0.66131 0.40043 0.16859 0.0
H472 H 0.60475 0.37489 0.18131 0.0
H473 H 0.67336 0.21634 0.15804 0.0
H474 H 0.70482 0.20737 0.17469 0.0
H475 H 0.73968 0.26642 0.16305 0.0
C476 C 0.33484 0.68861 0.52742 0.0
C477 C 0.35898 0.66421 0.53526 0.0
C478 C 0.32966 0.68474 0.51143 0.0
C479 C 0.34714 0.65392 0.50326 0.0
C480 C 0.36912 0.62701 0.51129 0.0
C481 C 0.37591 0.6335 0.5272 0.0
C482 C 0.30745 0.71533 0.50324 0.0
C483 C 0.38606 0.592 0.50306 0.0
C484 C 0.29018 0.61889 0.46318 0.0
C485 C 0.33284 0.65694 0.45443 0.0
C486 C 0.29549 0.61489 0.47901 0.0
C487 C 0.34385 0.65151 0.48627 0.0
C488 C 0.38771 0.6888 0.47734 0.0
C489 C 0.38191 0.69038 0.46142 0.0
C490 C 0.24858 0.57315 0.48803 0.0
C491 C 0.43942 0.72954 0.48469 0.0
H492 H 0.32244 0.71289 0.53371 0.0
H493 H 0.39445 0.61453 0.53336 0.0
H494 H 0.33731 0.74356 0.49494 0.0
H495 H 0.27141 0.68755 0.49665 0.0
H496 H 0.29669 0.73824 0.51127 0.0
H497 H 0.39763 0.56992 0.51114 0.0
H498 H 0.35317 0.56278 0.4957 0.0
H499 H 0.42052 0.6167 0.49548 0.0
H500 H 0.2522 0.59313 0.45769 0.0
H501 H 0.41453 0.72035 0.45462 0.0
H502 H 0.2308 0.59253 0.49492 0.0
H503 H 0.26172 0.55244 0.49611 0.0
H504 H 0.21711 0.54298 0.48047 0.0
H505 H 0.43215 0.75662 0.49202 0.0
H506 H 0.47047 0.75395 0.47609 0.0
H507 H 0.45505 0.70965 0.4922 0.0
C508 C 0.66642 0.39816 0.85831 0.0
C509 C 0.66009 0.35794 0.86847 0.0
C510 C 0.66278 0.38984 0.84247 0.0
C511 C 0.65334 0.34029 0.83663 0.0
C512 C 0.64764 0.29967 0.84682 0.0
C513 C 0.65064 0.30884 0.86268 0.0
C514 C 0.66805 0.43379 0.83201 0.0
C515 C 0.63813 0.24657 0.84094 0.0
C516 C 0.58851 0.3044 0.79762 0.0
C517 C 0.63264 0.32068 0.78791 0.0
C518 C 0.59463 0.30921 0.81352 0.0
C519 C 0.64613 0.33029 0.81991 0.0
C520 C 0.69076 0.3454 0.81021 0.0
C521 C 0.68353 0.34075 0.79426 0.0
C522 C 0.54614 0.29339 0.82345 0.0
C523 C 0.74617 0.36748 0.81668 0.0
H524 H 0.67366 0.43619 0.86275 0.0
H525 H 0.64626 0.2779 0.87053 0.0
H526 H 0.70066 0.44437 0.82362 0.0
H527 H 0.63066 0.41977 0.82541 0.0
H528 H 0.67641 0.47037 0.83839 0.0
H529 H 0.63762 0.22036 0.85031 0.0
H530 H 0.59942 0.22566 0.83483 0.0
H531 H 0.66966 0.25275 0.83259 0.0
H532 H 0.54902 0.28881 0.79277 0.0
H533 H 0.71764 0.35298 0.78677 0.0
H534 H 0.55045 0.329 0.82953 0.0
H535 H 0.54263 0.2643 0.83228 0.0
H536 H 0.50861 0.27547 0.81671 0.0
H537 H 0.75893 0.40652 0.82222 0.0
H538 H 0.77586 0.37313 0.80772 0.0
H539 H 0.74632 0.34034 0.82562 0.0
C540 C 0.92603 0.49503 0.08357 0.0
C541 C 0.88891 0.44888 0.07583 0.0
C542 C 0.98078 0.51183 0.08316 0.0
C543 C 0.99887 0.48266 0.07441 0.0
C544 C 0.9615 0.43662 0.06632 0.0
C545 C 0.90692 0.41986 0.06733 0.0
C546 C 0.0192 0.56039 0.09224 0.0
C547 C 0.97918 0.40534 0.0565 0.0
C548 C 0.14498 0.55766 0.06257 0.0
C549 C 0.16759 0.53743 0.07285 0.0
C550 C 0.0899 0.53904 0.06265 0.0
C551 C 0.05692 0.50052 0.07363 0.0
C552 C 0.07958 0.47968 0.08398 0.0
C553 C 0.13459 0.49782 0.0833 0.0
C554 C 0.06715 0.56103 0.0511 0.0
C555 C 0.04603 0.43954 0.09608 0.0
H556 H 0.91211 0.51728 0.09024 0.0
H557 H 0.87828 0.38434 0.06123 0.0
H558 H 0.04207 0.5498 0.10029 0.0
H559 H 0.04844 0.59157 0.08443 0.0
H560 H 0.99857 0.5775 0.09888 0.0
H561 H 0.94524 0.37145 0.05056 0.0
H562 H 0.00827 0.43192 0.04777 0.0
H563 H 0.99971 0.38943 0.06364 0.0
H564 H 0.17049 0.58824 0.05445 0.0
H565 H 0.15216 0.48266 0.09138 0.0
H566 H 0.05073 0.58352 0.05707 0.0
H567 H 0.03375 0.52789 0.0448 0.0
H568 H 0.09754 0.58803 0.04269 0.0
H569 H 0.02767 0.4568 0.10364 0.0
H570 H 0.06969 0.42725 0.10326 0.0
H571 H 0.01301 0.40348 0.09067 0.0
C572 C 0.54511 0.12444 0.40404 0.0
C573 C 0.59447 0.14421 0.41137 0.0
C574 C 0.50717 0.06978 0.40431 0.0
C575 C 0.51809 0.0343 0.41259 0.0
C576 C 0.56748 0.05437 0.42034 0.0
C577 C 0.60554 0.10902 0.41939 0.0
C578 C 0.45597 0.04986 0.39542 0.0
C579 C 0.58004 0.01813 0.42966 0.0
C580 C 0.39997 0.89795 0.42293 0.0
C581 C 0.40616 0.86499 0.41239 0.0
C582 C 0.43659 0.95317 0.42331 0.0
C583 C 0.47896 0.97589 0.41252 0.0
C584 C 0.48407 0.9427 0.40155 0.0
C585 C 0.44825 0.88758 0.40182 0.0
C586 C 0.43075 0.98698 0.43547 0.0
C587 C 0.52734 0.96537 0.38949 0.0
H588 H 0.53666 0.15168 0.39777 0.0
H589 H 0.64349 0.12444 0.42521 0.0
H590 H 0.45254 0.02026 0.38675 0.0
H591 H 0.42115 0.02929 0.4032 0.0
H592 H 0.45376 0.08262 0.38948 0.0
H593 H 0.61842 0.04055 0.43591 0.0
H594 H 0.54765 0.99545 0.43807 0.0
H595 H 0.58228 0.98861 0.42206 0.0
H596 H 0.36768 0.8803 0.43119 0.0
H597 H 0.45275 0.86202 0.3936 0.0
H598 H 0.4254 0.01864 0.43007 0.0
H599 H 0.46767 0.00715 0.44245 0.0
H600 H 0.39635 0.9631 0.4432 0.0
H601 H 0.52553 0.99741 0.38302 0.0
H602 H 0.52392 0.93454 0.38126 0.0
H603 H 0.56711 0.98356 0.395 0.0
C604 C 0.56233 0.45147 0.73085 0.0
C605 C 0.54016 0.40731 0.74066 0.0
C606 C 0.54377 0.48789 0.73087 0.0
C607 C 0.50371 0.48115 0.74144 0.0
C608 C 0.48156 0.43672 0.7515 0.0
C609 C 0.49935 0.39962 0.75077 0.0
C610 C 0.56691 0.53345 0.71954 0.0
C611 C 0.44007 0.42911 0.76327 0.0
C612 C 0.49568 0.60549 0.75061 0.0
C613 C 0.45015 0.59577 0.74244 0.0
C614 C 0.51287 0.56787 0.7507 0.0
C615 C 0.48498 0.52056 0.74191 0.0
C616 C 0.43963 0.5113 0.73337 0.0
C617 C 0.42218 0.54858 0.73397 0.0
C618 C 0.56041 0.5784 0.76033 0.0
C619 C 0.40997 0.46241 0.72341 0.0
H620 H 0.5938 0.4571 0.72299 0.0
H621 H 0.4828 0.3657 0.75847 0.0
H622 H 0.53442 0.53339 0.7128 0.0
H623 H 0.58792 0.57205 0.72571 0.0
H624 H 0.59548 0.53118 0.7115 0.0
H625 H 0.42809 0.39339 0.77055 0.0
H626 H 0.45585 0.46479 0.77076 0.0
H627 H 0.40403 0.4249 0.75753 0.0
H628 H 0.51697 0.64183 0.75726 0.0
H629 H 0.38715 0.54133 0.72755 0.0
H630 H 0.59294 0.58148 0.7529 0.0
H631 H 0.54931 0.54459 0.76831 0.0
H632 H 0.57598 0.61573 0.76711 0.0
H633 H 0.43781 0.4605 0.71503 0.0
H634 H 0.37662 0.46214 0.71706 0.0
H635 H 0.39354 0.42584 0.73053 0.0
C636 C 0.58296 0.12504 0.56979 0.0
C637 C 0.55379 0.1426 0.57843 0.0
C638 C 0.56764 0.07075 0.56914 0.0
C639 C 0.52271 0.03316 0.57761 0.0
C640 C 0.49326 0.05073 0.58644 0.0
C641 C 0.50882 0.1052 0.5866 0.0
C642 C 0.59934 0.05358 0.5593 0.0
C643 C 0.44562 0.01204 0.59582 0.0
C644 C 0.44948 0.8867 0.56631 0.0
C645 C 0.47004 0.8648 0.57674 0.0
C646 C 0.46738 0.9416 0.56619 0.0
C647 C 0.50588 0.97533 0.57702 0.0
C648 C 0.52742 0.95353 0.58744 0.0
C649 C 0.50966 0.89854 0.58705 0.0
C650 C 0.44438 0.96333 0.55464 0.0
C651 C 0.56792 0.988 0.59932 0.0
H652 H 0.61766 0.1538 0.56339 0.0
H653 H 0.48643 0.11868 0.59339 0.0
H654 H 0.61601 0.03382 0.56647 0.0
H655 H 0.57285 0.02397 0.55069 0.0
H656 H 0.6327 0.08766 0.55321 0.0
H657 H 0.42802 0.03227 0.60244 0.0
H658 H 0.41443 0.98188 0.58823 0.0
H659 H 0.45744 0.9903 0.60393 0.0
H660 H 0.41895 0.86072 0.55828 0.0
H661 H 0.52523 0.88162 0.59523 0.0
H662 H 0.47697 0.99667 0.54813 0.0
H663 H 0.42174 0.97956 0.56063 0.0
H664 H 0.41726 0.9324 0.54639 0.0
H665 H 0.60321 0.02143 0.5937 0.0
H666 H 0.58144 0.96517 0.60641 0.0
H667 H 0.55036 0.00579 0.60698 0.0
C668 C 0.37867 0.49867 0.91029 0.0
C669 C 0.38543 0.53949 0.92025 0.0
C670 C 0.4161 0.48128 0.90983 0.0
C671 C 0.46024 0.50406 0.91995 0.0
C672 C 0.46599 0.5439 0.93045 0.0
C673 C 0.42902 0.56182 0.93027 0.0
C674 C 0.40932 0.43975 0.8982 0.0
C675 C 0.5114 0.56789 0.94178 0.0
C676 C 0.52979 0.42413 0.92684 0.0
C677 C 0.57608 0.45207 0.91796 0.0
C678 C 0.49246 0.44143 0.92791 0.0
C679 C 0.5007 0.48662 0.91944 0.0
C680 C 0.54738 0.51484 0.91038 0.0
C681 C 0.58506 0.49774 0.90997 0.0
C682 C 0.44427 0.4114 0.93813 0.0
C683 C 0.55691 0.56232 0.90085 0.0
H684 H 0.34532 0.48192 0.9024 0.0
H685 H 0.43414 0.59334 0.93801 0.0
H686 H 0.44481 0.45615 0.89059 0.0
H687 H 0.40642 0.40441 0.90404 0.0
H688 H 0.3732 0.42651 0.89102 0.0
H689 H 0.50812 0.5958 0.94984 0.0
H690 H 0.51237 0.53584 0.94848 0.0
H691 H 0.54997 0.58989 0.9356 0.0
H692 H 0.52312 0.389 0.93312 0.0
H693 H 0.6207 0.51904 0.90301 0.0
H694 H 0.40734 0.39366 0.93117 0.0
H695 H 0.44183 0.43922 0.9464 0.0
H696 H 0.44534 0.37896 0.94463 0.0
H697 H 0.5232 0.55055 0.8928 0.0
H698 H 0.59455 0.57908 0.89415 0.0
H699 H 0.55868 0.59413 0.90832 0.0
C700 C 0.12042 0.55451 0.23508 0.0
C701 C 0.13961 0.6007 0.24405 0.0
C702 C 0.06599 0.51589 0.23493 0.0
C703 C 0.02993 0.52321 0.24417 0.0
C704 C 0.04901 0.56999 0.25317 0.0
C705 C 0.10362 0.60842 0.25291 0.0
C706 C 0.04714 0.46706 0.22498 0.0
C707 C 0.01188 0.57898 0.26328 0.0
C708 C 0.88195 0.44687 0.23475 0.0
C709 C 0.86264 0.40422 0.24513 0.0
C710 C 0.93636 0.48544 0.23417 0.0
C711 C 0.97225 0.48183 0.24442 0.0
C712 C 0.953 0.43868 0.25489 0.0
C713 C 0.89844 0.40009 0.25503 0.0
C714 C 0.9554 0.53021 0.22265 0.0
C715 C 0.98991 0.43379 0.26612 0.0
H716 H 0.14808 0.54842 0.22817 0.0
H717 H 0.11833 0.64388 0.25994 0.0
H718 H 0.02935 0.43066 0.23221 0.0
H719 H 0.01555 0.46345 0.21707 0.0
H720 H 0.08001 0.46819 0.2181 0.0
H721 H 0.03299 0.61739 0.26959 0.0
H722 H 0.97982 0.57875 0.25629 0.0
H723 H 0.99236 0.54601 0.27171 0.0
H724 H 0.85443 0.45012 0.22703 0.0
H725 H 0.8836 0.36741 0.26314 0.0
H726 H 0.98709 0.5309 0.21532 0.0
H727 H 0.97313 0.56912 0.22867 0.0
H728 H 0.92265 0.52639 0.21518 0.0
H729 H 0.02207 0.43143 0.25987 0.0
H730 H 0.96866 0.39804 0.27356 0.0
H731 H 0.00932 0.46981 0.27349 0.0
C732 C 0.63657 0.50453 0.0702 0.0
C733 C 0.62574 0.459 0.07861 0.0
C734 C 0.59984 0.52292 0.0699 0.0
C735 C 0.55196 0.49582 0.07852 0.0
C736 C 0.54163 0.4506 0.08732 0.0
C737 C 0.57831 0.4324 0.0871 0.0
C738 C 0.61178 0.5707 0.06017 0.0
C739 C 0.49178 0.42136 0.09697 0.0
C740 C 0.47953 0.57053 0.08903 0.0
C741 C 0.43646 0.54851 0.07881 0.0
C742 C 0.51727 0.5536 0.0891 0.0
C743 C 0.51256 0.51465 0.07843 0.0
C744 C 0.46932 0.49257 0.068 0.0
C745 C 0.43135 0.5093 0.06844 0.0
C746 C 0.56188 0.57705 0.10069 0.0
C747 C 0.46344 0.45164 0.05627 0.0
H748 H 0.67303 0.5249 0.06354 0.0
H749 H 0.56997 0.39735 0.0937 0.0
H750 H 0.57948 0.55954 0.05165 0.0
H751 H 0.61299 0.60276 0.06742 0.0
H752 H 0.65038 0.58687 0.05399 0.0
H753 H 0.49067 0.38805 0.10358 0.0
H754 H 0.48919 0.44942 0.10511 0.0
H755 H 0.45594 0.40493 0.08956 0.0
H756 H 0.48347 0.60077 0.0971 0.0
H757 H 0.39838 0.49262 0.06043 0.0
H758 H 0.60103 0.59708 0.09476 0.0
H759 H 0.56064 0.54476 0.10784 0.0
H760 H 0.55947 0.60645 0.10834 0.0
H761 H 0.50016 0.46766 0.04919 0.0
H762 H 0.4288 0.43998 0.04858 0.0
H763 H 0.45833 0.41535 0.0621 0.0
C764 C 0.88519 0.45734 0.39647 0.0
C765 C 0.86653 0.40992 0.40481 0.0
C766 C 0.93983 0.49524 0.39584 0.0
C767 C 0.97649 0.48629 0.40419 0.0
C768 C 0.9578 0.43826 0.4126 0.0
C769 C 0.90304 0.40021 0.41261 0.0
C770 C 0.95824 0.54499 0.38633 0.0
C771 C 0.99542 0.42777 0.42194 0.0
C772 C 0.12448 0.56133 0.39452 0.0
C773 C 0.14447 0.60285 0.40527 0.0
C774 C 0.06969 0.52411 0.39373 0.0
C775 C 0.0343 0.52743 0.40429 0.0
C776 C 0.05432 0.56961 0.4151 0.0
C777 C 0.10915 0.60737 0.41529 0.0
C778 C 0.0498 0.48094 0.38169 0.0
C779 C 0.01812 0.57385 0.42678 0.0
H780 H 0.85695 0.46474 0.39037 0.0
H781 H 0.88855 0.36378 0.41919 0.0
H782 H 0.97602 0.58065 0.39384 0.0
H783 H 0.98972 0.54957 0.37817 0.0
H784 H 0.92511 0.54431 0.37975 0.0
H785 H 0.97449 0.38878 0.42798 0.0
H786 H 0.02663 0.42827 0.41444 0.0
H787 H 0.01598 0.45987 0.43056 0.0
H788 H 0.15182 0.55796 0.38672 0.0
H789 H 0.12471 0.63914 0.42372 0.0
H790 H 0.01717 0.48075 0.37499 0.0
H791 H 0.0331 0.44131 0.38725 0.0
H792 H 0.0819 0.48615 0.37367 0.0
H793 H 0.98588 0.57712 0.42096 0.0
H794 H 0.03995 0.60884 0.43445 0.0
H795 H 0.99878 0.53714 0.43389 0.0
C796 C 0.50674 0.11135 0.727 0.0
C797 C 0.54974 0.1448 0.73643 0.0
C798 C 0.48878 0.05641 0.72614 0.0
C799 C 0.5135 0.03444 0.73526 0.0
C800 C 0.55708 0.06825 0.74475 0.0
C801 C 0.57508 0.12308 0.74505 0.0
C802 C 0.44305 0.02179 0.71562 0.0
C803 C 0.58364 0.0463 0.75495 0.0
C804 C 0.43143 0.88904 0.74691 0.0
C805 C 0.45385 0.86524 0.73788 0.0
C806 C 0.45044 0.94401 0.74612 0.0
C807 C 0.49186 0.97575 0.7357 0.0
C808 C 0.51389 0.95169 0.72629 0.0
C809 C 0.49516 0.8967 0.72767 0.0
C810 C 0.42695 0.96827 0.75669 0.0
C811 C 0.55714 0.98403 0.71477 0.0
H812 H 0.48742 0.12819 0.72023 0.0
H813 H 0.60822 0.14883 0.75241 0.0
H814 H 0.45413 0.99796 0.70808 0.0
H815 H 0.40796 0.99325 0.72246 0.0
H816 H 0.4312 0.0456 0.70834 0.0
H817 H 0.61763 0.07812 0.76146 0.0
H818 H 0.55413 0.01755 0.76323 0.0
H819 H 0.59848 0.02427 0.74804 0.0
H820 H 0.39966 0.86476 0.75488 0.0
H821 H 0.51213 0.87815 0.72058 0.0
H822 H 0.40981 0.98847 0.74992 0.0
H823 H 0.45877 0.999 0.76402 0.0
H824 H 0.3952 0.93804 0.7642 0.0
H825 H 0.54408 0.00587 0.70711 0.0
H826 H 0.56767 0.95879 0.70766 0.0
H827 H 0.59355 0.01428 0.72077 0.0
C828 C 0.42011 0.54074 0.58121 0.0
C829 C 0.44937 0.59061 0.58834 0.0
C830 C 0.43747 0.50339 0.58161 0.0
C831 C 0.48441 0.51545 0.58976 0.0
C832 C 0.51301 0.56499 0.59751 0.0
C833 C 0.49566 0.60245 0.59647 0.0
C834 C 0.40677 0.45195 0.57275 0.0
C835 C 0.56237 0.57872 0.60668 0.0
C836 C 0.50596 0.39824 0.59816 0.0
C837 C 0.54387 0.40554 0.58702 0.0
C838 C 0.48732 0.43463 0.59954 0.0
C839 C 0.50561 0.47796 0.58914 0.0
C840 C 0.54315 0.48465 0.57769 0.0
C841 C 0.5625 0.44895 0.57696 0.0
C842 C 0.44856 0.42712 0.61218 0.0
C843 C 0.56229 0.52902 0.56602 0.0
H844 H 0.38448 0.53162 0.57481 0.0
H845 H 0.5181 0.64083 0.60208 0.0
H846 H 0.43263 0.45004 0.56367 0.0
H847 H 0.39485 0.41723 0.58041 0.0
H848 H 0.37035 0.44807 0.56731 0.0
H849 H 0.57672 0.61618 0.61332 0.0
H850 H 0.55423 0.54581 0.61472 0.0
H851 H 0.59481 0.58354 0.5989 0.0
H852 H 0.49198 0.36492 0.60603 0.0
H853 H 0.59158 0.45439 0.56826 0.0
H854 H 0.4103 0.41999 0.60723 0.0
H855 H 0.46469 0.46394 0.61919 0.0
H856 H 0.44036 0.3931 0.61979 0.0
H857 H 0.52773 0.52631 0.55974 0.0
H858 H 0.59037 0.5277 0.55757 0.0
H859 H 0.58263 0.56831 0.57184 0.0
C860 C 0.10192 0.56716 0.90538 0.0
C861 C 0.12391 0.54471 0.91509 0.0
C862 C 0.04714 0.54961 0.90568 0.0
C863 C 0.01376 0.50952 0.91623 0.0
C864 C 0.03587 0.48699 0.92616 0.0
C865 C 0.09068 0.50443 0.92534 0.0
C866 C 0.02493 0.57363 0.89462 0.0
C867 C 1.0017 0.44481 0.93773 0.0
C868 C 0.87955 0.49795 0.92519 0.0
C869 C 0.84498 0.45372 0.91631 0.0
C870 C 0.93459 0.51604 0.92552 0.0
C871 C 0.95543 0.48999 0.91647 0.0
C872 C 0.92063 0.44573 0.90735 0.0
C873 C 0.86581 0.4278 0.90752 0.0
C874 C 0.97039 0.56274 0.93561 0.0
C875 C 0.94135 0.41764 0.89726 0.0
H876 H 0.12756 0.59822 0.8974 0.0
H877 H 0.10774 0.48742 0.93297 0.0
H878 H 0.99377 0.5418 0.88739 0.0
H879 H 0.00568 0.59264 0.90101 0.0
H880 H 0.05619 0.60401 0.88703 0.0
H881 H 0.02538 0.43286 0.94503 0.0
H882 H 0.98102 0.45977 0.94522 0.0
H883 H 0.97046 0.40888 0.93178 0.0
H884 H 0.86345 0.5178 0.93207 0.0
H885 H 0.83921 0.39375 0.90056 0.0
H886 H 1.00045 0.59605 0.92851 0.0
H887 H 0.9925 0.55112 0.94364 0.0
H888 H 0.94774 0.57739 0.94236 0.0
H889 H 0.97117 0.44644 0.88906 0.0
H890 H 0.90903 0.38431 0.89068 0.0
H891 H 0.96183 0.40149 0.90432 0.0
C892 C 0.44442 0.88116 0.26831 0.0
C893 C 0.40148 0.86526 0.25822 0.0
C894 C 0.4834 0.93515 0.2699 0.0
C895 C 0.48022 0.9739 0.26081 0.0
C896 C 0.43617 0.95811 0.25085 0.0
C897 C 0.39686 0.90396 0.24985 0.0
C898 C 0.52869 0.9505 0.28101 0.0
C899 C 0.43182 0.99807 0.24075 0.0
C900 C 0.55934 0.12221 0.26966 0.0
C901 C 0.60291 0.13947 0.25968 0.0
C902 C 0.52034 0.06802 0.27069 0.0
C903 C 0.52412 0.03055 0.26112 0.0
C904 C 0.56884 0.0477 0.2513 0.0
C905 C 0.60818 0.10194 0.25088 0.0
C906 C 0.47436 0.05111 0.2817 0.0
C907 C 0.57382 0.00923 0.24069 0.0
H908 H 0.44786 0.8512 0.27485 0.0
H909 H 0.36393 0.89162 0.24193 0.0
H910 H 0.56663 0.96507 0.27462 0.0
H911 H 0.53335 0.98354 0.2885 0.0
H912 H 0.52243 0.91645 0.28833 0.0
H913 H 0.39461 0.97952 0.23386 0.0
H914 H 0.43285 0.03044 0.2478 0.0
H915 H 0.46648 0.01679 0.23283 0.0
H916 H 0.55537 0.15131 0.2765 0.0
H917 H 0.64154 0.11539 0.24303 0.0
H918 H 0.46906 0.01688 0.28873 0.0
H919 H 0.43688 0.03771 0.27521 0.0
H920 H 0.48028 0.08404 0.28946 0.0
H921 H 0.57217 0.97576 0.24731 0.0
H922 H 0.61154 0.02871 0.23399 0.0
H923 H 0.53977 0.99182 0.23258 0.0
loop_
_geom_bond_atom_site_label_1
_geom_bond_atom_site_label_2
_geom_bond_distance
_geom_bond_site_symmetry_2
_ccdc_geom_bond_type
In0 O1 2.294 . S
In0 O2 2.326 . S
In0 O6 2.266 . S
In0 O7 2.326 . S
In0 O8 2.266 . S
In0 O9 2.326 . S
In0 O11 2.294 . S
In0 O12 2.326 . S
O1 In0 2.294 . S
O1 C10 1.240 . S
O2 In0 2.326 . S
O2 C10 1.252 . S
C3 O6 1.252 . S
C3 O7 1.260 . S
C4 O11 1.240 . S
C4 O12 1.252 . S
C5 O8 1.252 . S
C5 O9 1.260 . S
O6 In0 2.266 . S
O6 C3 1.252 . S
O7 In0 2.326 . S
O7 C3 1.260 . S
O8 In0 2.266 . S
O8 C5 1.252 . S
O9 In0 2.326 . S
O9 C5 1.260 . S
C10 O1 1.240 . S
C10 O2 1.252 . S
O11 In0 2.294 . S
O11 C4 1.240 . S
O12 In0 2.326 . S
O12 C4 1.252 . S
In13 O14 2.294 . S
In13 O15 2.326 . S
In13 O19 2.266 . S
In13 O20 2.326 . S
In13 O21 2.266 . S
In13 O22 2.326 . S
In13 O24 2.294 . S
In13 O25 2.326 . S
O14 In13 2.294 . S
O14 C23 1.240 . S
O15 In13 2.326 . S
O15 C23 1.252 . S
C16 O19 1.252 . S
C16 O20 1.260 . S
C17 O24 1.240 . S
C17 O25 1.252 . S
C18 O21 1.252 . S
C18 O22 1.260 . S
O19 In13 2.266 . S
O19 C16 1.252 . S
O20 In13 2.326 . S
O20 C16 1.260 . S
O21 In13 2.266 . S
O21 C18 1.252 . S
O22 In13 2.326 . S
O22 C18 1.260 . S
C23 O14 1.240 . S
C23 O15 1.252 . S
O24 In13 2.294 . S
O24 C17 1.240 . S
O25 In13 2.326 . S
O25 C17 1.252 . S
In26 O27 2.294 . S
In26 O28 2.326 . S
In26 O32 2.266 . S
In26 O33 2.326 . S
In26 O34 2.266 . S
In26 O35 2.326 . S
In26 O37 2.294 . S
In26 O38 2.326 . S
O27 In26 2.294 . S
O27 C36 1.240 . S
O28 In26 2.326 . S
O28 C36 1.252 . S
C29 O32 1.252 . S
C29 O33 1.260 . S
C30 O37 1.240 . S
C30 O38 1.252 . S
C31 O34 1.252 . S
C31 O35 1.260 . S
O32 In26 2.266 . S
O32 C29 1.252 . S
O33 In26 2.326 . S
O33 C29 1.260 . S
O34 In26 2.266 . S
O34 C31 1.252 . S
O35 In26 2.326 . S
O35 C31 1.260 . S
C36 O27 1.240 . S
C36 O28 1.252 . S
O37 In26 2.294 . S
O37 C30 1.240 . S
O38 In26 2.326 . S
O38 C30 1.252 . S
In39 O40 2.294 . S
In39 O41 2.326 . S
In39 O45 2.266 . S
In39 O46 2.326 . S
In39 O47 2.266 . S
In39 O48 2.326 . S
In39 O50 2.294 . S
In39 O51 2.326 . S
O40 In39 2.294 . S
O40 C49 1.240 . S
O41 In39 2.326 . S
O41 C49 1.252 . S
C42 O45 1.252 . S
C42 O46 1.260 . S
C43 O50 1.240 . S
C43 O51 1.252 . S
C44 O47 1.252 . S
C44 O48 1.260 . S
O45 In39 2.266 . S
O45 C42 1.252 . S
O46 In39 2.326 . S
O46 C42 1.260 . S
O47 In39 2.266 . S
O47 C44 1.252 . S
O48 In39 2.326 . S
O48 C44 1.260 . S
C49 O40 1.240 . S
C49 O41 1.252 . S
O50 In39 2.294 . S
O50 C43 1.240 . S
O51 In39 2.326 . S
O51 C43 1.252 . S
In52 O53 2.294 . S
In52 O54 2.326 . S
In52 O58 2.266 . S
In52 O59 2.326 . S
In52 O60 2.266 . S
In52 O61 2.326 . S
In52 O63 2.294 . S
In52 O64 2.326 . S
O53 In52 2.294 . S
O53 C62 1.240 . S
O54 In52 2.326 . S
O54 C62 1.252 . S
C55 O58 1.252 . S
C55 O59 1.260 . S
C56 O63 1.240 . S
C56 O64 1.252 . S
C57 O60 1.252 . S
C57 O61 1.260 . S
O58 In52 2.266 . S
O58 C55 1.252 . S
O59 In52 2.326 . S
O59 C55 1.260 . S
O60 In52 2.266 . S
O60 C57 1.252 . S
O61 In52 2.326 . S
O61 C57 1.260 . S
C62 O53 1.240 . S
C62 O54 1.252 . S
O63 In52 2.294 . S
O63 C56 1.240 . S
O64 In52 2.326 . S
O64 C56 1.252 . S
In65 O66 2.294 . S
In65 O67 2.326 . S
In65 O71 2.266 . S
In65 O72 2.326 . S
In65 O73 2.266 . S
In65 O74 2.326 . S
In65 O76 2.294 . S
In65 O77 2.326 . S
O66 In65 2.294 . S
O66 C75 1.240 . S
O67 In65 2.326 . S
O67 C75 1.252 . S
C68 O71 1.252 . S
C68 O72 1.260 . S
C69 O76 1.240 . S
C69 O77 1.252 . S
C70 O73 1.252 . S
C70 O74 1.260 . S
O71 In65 2.266 . S
O71 C68 1.252 . S
O72 In65 2.326 . S
O72 C68 1.260 . S
O73 In65 2.266 . S
O73 C70 1.252 . S
O74 In65 2.326 . S
O74 C70 1.260 . S
C75 O66 1.240 . S
C75 O67 1.252 . S
O76 In65 2.294 . S
O76 C69 1.240 . S
O77 In65 2.326 . S
O77 C69 1.252 . S
In78 O79 2.294 . S
In78 O80 2.326 . S
In78 O84 2.266 . S
In78 O85 2.326 . S
In78 O86 2.266 . S
In78 O87 2.326 . S
In78 O89 2.294 . S
In78 O90 2.326 . S
O79 In78 2.294 . S
O79 C88 1.240 . S
O80 In78 2.326 . S
O80 C88 1.252 . S
C81 O84 1.252 . S
C81 O85 1.260 . S
C82 O89 1.240 . S
C82 O90 1.252 . S
C83 O86 1.252 . S
C83 O87 1.260 . S
O84 In78 2.266 . S
O84 C81 1.252 . S
O85 In78 2.326 . S
O85 C81 1.260 . S
O86 In78 2.266 . S
O86 C83 1.252 . S
O87 In78 2.326 . S
O87 C83 1.260 . S
C88 O79 1.240 . S
C88 O80 1.252 . S
O89 In78 2.294 . S
O89 C82 1.240 . S
O90 In78 2.326 . S
O90 C82 1.252 . S
In91 O92 2.294 . S
In91 O93 2.326 . S
In91 O97 2.266 . S
In91 O98 2.326 . S
In91 O99 2.266 . S
In91 O100 2.326 . S
In91 O102 2.294 . S
In91 O103 2.326 . S
O92 In91 2.294 . S
O92 C101 1.240 . S
O93 In91 2.326 . S
O93 C101 1.252 . S
C94 O97 1.252 . S
C94 O98 1.260 . S
C95 O102 1.240 . S
C95 O103 1.252 . S
C96 O99 1.252 . S
C96 O100 1.260 . S
O97 In91 2.266 . S
O97 C94 1.252 . S
O98 In91 2.326 . S
O98 C94 1.260 . S
O99 In91 2.266 . S
O99 C96 1.252 . S
O100 In91 2.326 . S
O100 C96 1.260 . S
C101 O92 1.240 . S
C101 O93 1.252 . S
O102 In91 2.294 . S
O102 C95 1.240 . S
O103 In91 2.326 . S
O103 C95 1.252 . S
In104 O105 2.294 . S
In104 O106 2.326 . S
In104 O110 2.266 . S
In104 O111 2.326 . S
In104 O112 2.266 . S
In104 O113 2.326 . S
In104 O115 2.294 . S
In104 O116 2.326 . S
O105 In104 2.294 . S
O105 C114 1.240 . S
O106 In104 2.326 . S
O106 C114 1.252 . S
C107 O110 1.252 . S
C107 O111 1.260 . S
C108 O115 1.240 . S
C108 O116 1.252 . S
C109 O112 1.252 . S
C109 O113 1.260 . S
O110 In104 2.266 . S
O110 C107 1.252 . S
O111 In104 2.326 . S
O111 C107 1.260 . S
O112 In104 2.266 . S
O112 C109 1.252 . S
O113 In104 2.326 . S
O113 C109 1.260 . S
C114 O105 1.240 . S
C114 O106 1.252 . S
O115 In104 2.294 . S
O115 C108 1.240 . S
O116 In104 2.326 . S
O116 C108 1.252 . S
In117 O118 2.294 . S
In117 O119 2.326 . S
In117 O123 2.266 . S
In117 O124 2.326 . S
In117 O125 2.266 . S
In117 O126 2.326 . S
In117 O128 2.294 . S
In117 O129 2.326 . S
O118 In117 2.294 . S
O118 C127 1.240 . S
O119 In117 2.326 . S
O119 C127 1.252 . S
C120 O123 1.252 . S
C120 O124 1.260 . S
C121 O128 1.240 . S
C121 O129 1.252 . S
C122 O125 1.252 . S
C122 O126 1.260 . S
O123 In117 2.266 . S
O123 C120 1.252 . S
O124 In117 2.326 . S
O124 C120 1.260 . S
O125 In117 2.266 . S
O125 C122 1.252 . S
O126 In117 2.326 . S
O126 C122 1.260 . S
C127 O118 1.240 . S
C127 O119 1.252 . S
O128 In117 2.294 . S
O128 C121 1.240 . S
O129 In117 2.326 . S
O129 C121 1.252 . S
In130 O131 2.294 . S
In130 O132 2.326 . S
In130 O136 2.266 . S
In130 O137 2.326 . S
In130 O138 2.266 . S
In130 O139 2.326 . S
In130 O141 2.294 . S
In130 O142 2.326 . S
O131 In130 2.294 . S
O131 C140 1.240 . S
O132 In130 2.326 . S
O132 C140 1.252 . S
C133 O136 1.252 . S
C133 O137 1.260 . S
C134 O141 1.240 . S
C134 O142 1.252 . S
C135 O138 1.252 . S
C135 O139 1.260 . S
O136 In130 2.266 . S
O136 C133 1.252 . S
O137 In130 2.326 . S
O137 C133 1.260 . S
O138 In130 2.266 . S
O138 C135 1.252 . S
O139 In130 2.326 . S
O139 C135 1.260 . S
C140 O131 1.240 . S
C140 O132 1.252 . S
O141 In130 2.294 . S
O141 C134 1.240 . S
O142 In130 2.326 . S
O142 C134 1.252 . S
In143 O144 2.294 . S
In143 O145 2.326 . S
In143 O149 2.266 . S
In143 O150 2.326 . S
In143 O151 2.266 . S
In143 O152 2.326 . S
In143 O154 2.294 . S
In143 O155 2.326 . S
O144 In143 2.294 . S
O144 C153 1.240 . S
O145 In143 2.326 . S
O145 C153 1.252 . S
C146 O149 1.252 . S
C146 O150 1.260 . S
C147 O154 1.240 . S
C147 O155 1.252 . S
C148 O151 1.252 . S
C148 O152 1.260 . S
O149 In143 2.266 . S
O149 C146 1.252 . S
O150 In143 2.326 . S
O150 C146 1.260 . S
O151 In143 2.266 . S
O151 C148 1.252 . S
O152 In143 2.326 . S
O152 C148 1.260 . S
C153 O144 1.240 . S
C153 O145 1.252 . S
O154 In143 2.294 . S
O154 C147 1.240 . S
O155 In143 2.326 . S
O155 C147 1.252 . S
C156 C157 1.391 . S
C156 C158 1.394 . S
C156 H172 0.931 . S
C157 C156 1.391 . S
C157 C161 1.376 . S
C158 C156 1.394 . S
C158 C159 1.369 . S
C158 C162 1.531 . S
C159 C158 1.369 . S
C159 C160 1.410 . S
C159 C167 1.503 1_556 S
C160 C159 1.410 . S
C160 C161 1.392 . S
C160 C163 1.511 . S
C161 C157 1.376 . S
C161 C160 1.392 . S
C161 H173 0.929 . S
C162 C158 1.531 . S
C162 H174 0.960 1_556 S
C162 H175 0.962 . S
C162 H176 0.960 . S
C163 C160 1.511 . S
C163 H177 0.961 . S
C163 H178 0.896 1_556 S
C163 H179 0.961 . S
C164 C165 1.370 . S
C164 C166 1.363 . S
C164 H180 0.931 . S
C165 C164 1.370 . S
C165 C169 1.408 . S
C166 C164 1.363 . S
C166 C167 1.370 . S
C166 C170 1.524 . S
C167 C159 1.503 1_554 S
C167 C166 1.370 . S
C167 C168 1.403 . S
C168 C167 1.403 . S
C168 C169 1.404 . S
C168 C171 1.539 . S
C169 C165 1.408 . S
C169 C168 1.404 . S
C169 H181 0.930 . S
C170 C166 1.524 . S
C170 H182 0.956 . S
C170 H183 0.959 1_554 S
C170 H184 0.961 . S
C171 C168 1.539 . S
C171 H185 0.958 . S
C171 H186 0.961 . S
C171 H187 0.960 1_554 S
H172 C156 0.931 . S
H173 C161 0.929 . S
H174 C162 0.960 1_554 S
H175 C162 0.962 . S
H176 C162 0.960 . S
H177 C163 0.961 . S
H178 C163 0.896 1_554 S
H179 C163 0.961 . S
H180 C164 0.931 . S
H181 C169 0.930 . S
H182 C170 0.956 . S
H183 C170 0.959 1_556 S
H184 C170 0.961 . S
H185 C171 0.958 . S
H186 C171 0.961 . S
H187 C171 0.960 1_556 S
C188 C189 1.391 . S
C188 C190 1.394 . S
C188 H204 0.931 . S
C189 C188 1.391 . S
C189 C193 1.376 . S
C190 C188 1.394 . S
C190 C191 1.369 . S
C190 C194 1.531 . S
C191 C190 1.369 . S
C191 C192 1.410 . S
C191 C199 1.503 . S
C192 C191 1.410 . S
C192 C193 1.392 . S
C192 C195 1.511 . S
C193 C189 1.376 . S
C193 C192 1.392 . S
C193 H205 0.929 . S
C194 C190 1.531 . S
C194 H206 0.960 . S
C194 H207 0.962 . S
C194 H208 0.960 . S
C195 C192 1.511 . S
C195 H209 0.961 . S
C195 H210 0.961 . S
C195 H211 0.961 . S
C196 C197 1.370 . S
C196 C198 1.363 . S
C196 H212 0.931 . S
C197 C196 1.370 . S
C197 C201 1.408 . S
C198 C196 1.363 . S
C198 C199 1.370 . S
C198 C202 1.524 . S
C199 C191 1.503 . S
C199 C198 1.370 . S
C199 C200 1.403 . S
C200 C199 1.403 . S
C200 C201 1.404 . S
C200 C203 1.539 . S
C201 C197 1.408 . S
C201 C200 1.404 . S
C201 H213 0.930 . S
C202 C198 1.524 . S
C202 H214 0.956 . S
C202 H215 0.961 . S
C202 H216 0.961 . S
C203 C200 1.539 . S
C203 H217 0.958 . S
C203 H218 0.961 . S
C203 H219 0.960 . S
H204 C188 0.931 . S
H205 C193 0.929 . S
H206 C194 0.960 . S
H207 C194 0.962 . S
H208 C194 0.960 . S
H209 C195 0.961 . S
H210 C195 0.961 . S
H211 C195 0.961 . S
H212 C196 0.931 . S
H213 C201 0.930 . S
H214 C202 0.956 . S
H215 C202 0.961 . S
H216 C202 0.961 . S
H217 C203 0.958 . S
H218 C203 0.961 . S
H219 C203 0.960 . S
C220 C221 1.391 . S
C220 C222 1.394 . S
C220 H236 0.931 . S
C221 C220 1.391 . S
C221 C225 1.376 . S
C222 C220 1.394 . S
C222 C223 1.369 . S
C222 C226 1.531 . S
C223 C222 1.369 . S
C223 C224 1.410 . S
C223 C231 1.503 . S
C224 C223 1.410 . S
C224 C225 1.392 . S
C224 C227 1.511 . S
C225 C221 1.376 . S
C225 C224 1.392 . S
C225 H237 0.929 . S
C226 C222 1.531 . S
C226 H238 0.960 . S
C226 H239 0.962 . S
C226 H240 0.960 . S
C227 C224 1.511 . S
C227 H241 0.961 . S
C227 H242 0.961 . S
C227 H243 0.961 . S
C228 C229 1.370 . S
C228 C230 1.363 . S
C228 H244 0.931 . S
C229 C228 1.370 . S
C229 C233 1.408 . S
C230 C228 1.363 . S
C230 C231 1.370 . S
C230 C234 1.524 . S
C231 C223 1.503 . S
C231 C230 1.370 . S
C231 C232 1.403 . S
C232 C231 1.403 . S
C232 C233 1.404 . S
C232 C235 1.539 . S
C233 C229 1.408 . S
C233 C232 1.404 . S
C233 H245 0.930 . S
C234 C230 1.524 . S
C234 H246 0.956 . S
C234 H247 0.961 . S
C234 H248 0.961 . S
C235 C232 1.539 . S
C235 H249 0.958 . S
C235 H250 0.961 . S
C235 H251 0.960 . S
H236 C220 0.931 . S
H237 C225 0.929 . S
H238 C226 0.960 . S
H239 C226 0.962 . S
H240 C226 0.960 . S
H241 C227 0.961 . S
H242 C227 0.961 . S
H243 C227 0.961 . S
H244 C228 0.931 . S
H245 C233 0.930 . S
H246 C234 0.956 . S
H247 C234 0.961 . S
H248 C234 0.961 . S
H249 C235 0.958 . S
H250 C235 0.961 . S
H251 C235 0.960 . S
C252 C253 1.391 . S
C252 C254 1.394 . S
C252 H268 0.931 . S
C253 C252 1.391 . S
C253 C257 1.376 . S
C254 C252 1.394 . S
C254 C255 1.369 . S
C254 C258 1.531 . S
C255 C254 1.369 . S
C255 C256 1.410 . S
C255 C263 1.503 1_554 S
C256 C255 1.410 . S
C256 C257 1.392 . S
C256 C259 1.511 . S
C257 C253 1.376 . S
C257 C256 1.392 . S
C257 H269 0.929 . S
C258 C254 1.531 . S
C258 H270 0.960 1_554 S
C258 H271 0.962 . S
C258 H272 0.960 . S
C259 C256 1.511 . S
C259 H273 0.961 . S
C259 H274 0.961 1_554 S
C259 H275 0.961 . S
C260 C261 1.370 . S
C260 C262 1.363 . S
C260 H276 0.931 . S
C261 C260 1.370 . S
C261 C265 1.408 . S
C262 C260 1.363 . S
C262 C263 1.370 . S
C262 C266 1.524 . S
C263 C255 1.503 1_556 S
C263 C262 1.370 . S
C263 C264 1.403 . S
C264 C263 1.403 . S
C264 C265 1.404 . S
C264 C267 1.539 . S
C265 C261 1.408 . S
C265 C264 1.404 . S
C265 H277 0.930 . S
C266 C262 1.524 . S
C266 H278 0.950 1_556 S
C266 H279 0.961 1_556 S
C266 H280 0.961 . S
C267 C264 1.539 . S
C267 H281 0.958 . S
C267 H282 0.961 . S
C267 H283 0.960 . S
H268 C252 0.931 . S
H269 C257 0.929 . S
H270 C258 0.960 1_556 S
H271 C258 0.962 . S
H272 C258 0.960 . S
H273 C259 0.961 . S
H274 C259 0.961 1_556 S
H275 C259 0.961 . S
H276 C260 0.931 . S
H277 C265 0.930 . S
H278 C266 0.950 1_554 S
H279 C266 0.961 1_554 S
H280 C266 0.961 . S
H281 C267 0.958 . S
H282 C267 0.961 . S
H283 C267 0.960 . S
C284 C285 1.391 . S
C284 C286 1.394 . S
C284 H300 0.931 . S
C285 C284 1.391 . S
C285 C289 1.376 . S
C286 C284 1.394 . S
C286 C287 1.369 . S
C286 C290 1.531 . S
C287 C286 1.369 . S
C287 C288 1.410 . S
C287 C295 1.503 . S
C288 C287 1.410 . S
C288 C289 1.392 . S
C288 C291 1.511 . S
C289 C285 1.376 . S
C289 C288 1.392 . S
C289 H301 0.929 . S
C290 C286 1.531 . S
C290 H302 0.960 . S
C290 H303 0.962 . S
C290 H304 0.960 . S
C291 C288 1.511 . S
C291 H305 0.961 . S
C291 H306 0.961 . S
C291 H307 0.961 . S
C292 C293 1.370 . S
C292 C294 1.363 . S
C292 H308 0.931 . S
C293 C292 1.370 . S
C293 C297 1.408 . S
C294 C292 1.363 . S
C294 C295 1.370 . S
C294 C298 1.524 . S
C295 C287 1.503 . S
C295 C294 1.370 . S
C295 C296 1.403 . S
C296 C295 1.403 . S
C296 C297 1.404 . S
C296 C299 1.539 . S
C297 C293 1.408 . S
C297 C296 1.404 . S
C297 H309 0.930 . S
C298 C294 1.524 . S
C298 H310 0.956 . S
C298 H311 0.961 . S
C298 H312 0.961 . S
C299 C296 1.539 . S
C299 H313 0.958 . S
C299 H314 0.961 . S
C299 H315 0.960 . S
H300 C284 0.931 . S
H301 C289 0.929 . S
H302 C290 0.960 . S
H303 C290 0.962 . S
H304 C290 0.960 . S
H305 C291 0.961 . S
H306 C291 0.961 . S
H307 C291 0.961 . S
H308 C292 0.931 . S
H309 C297 0.930 . S
H310 C298 0.956 . S
H311 C298 0.961 . S
H312 C298 0.961 . S
H313 C299 0.958 . S
H314 C299 0.961 . S
H315 C299 0.960 . S
C316 C317 1.391 . S
C316 C318 1.394 . S
C316 H332 0.931 . S
C317 C316 1.391 . S
C317 C321 1.376 . S
C318 C316 1.394 . S
C318 C319 1.369 . S
C318 C322 1.531 . S
C319 C318 1.369 . S
C319 C320 1.410 . S
C319 C327 1.503 . S
C320 C319 1.410 . S
C320 C321 1.392 . S
C320 C323 1.511 . S
C321 C317 1.376 . S
C321 C320 1.392 . S
C321 H333 0.929 . S
C322 C318 1.531 . S
C322 H334 0.960 . S
C322 H335 0.962 . S
C322 H336 0.960 . S
C323 C320 1.511 . S
C323 H337 0.961 . S
C323 H338 0.961 . S
C323 H339 0.961 . S
C324 C325 1.370 . S
C324 C326 1.363 . S
C324 H340 0.931 . S
C325 C324 1.370 . S
C325 C329 1.408 . S
C326 C324 1.363 . S
C326 C327 1.370 . S
C326 C330 1.524 . S
C327 C319 1.503 . S
C327 C326 1.370 . S
C327 C328 1.403 . S
C328 C327 1.403 . S
C328 C329 1.404 . S
C328 C331 1.539 . S
C329 C325 1.408 . S
C329 C328 1.404 . S
C329 H341 0.930 . S
C330 C326 1.524 . S
C330 H342 0.956 . S
C330 H343 0.961 . S
C330 H344 0.961 . S
C331 C328 1.539 . S
C331 H345 0.958 . S
C331 H346 0.961 . S
C331 H347 0.960 . S
H332 C316 0.931 . S
H333 C321 0.929 . S
H334 C322 0.960 . S
H335 C322 0.962 . S
H336 C322 0.960 . S
H337 C323 0.961 . S
H338 C323 0.961 . S
H339 C323 0.961 . S
H340 C324 0.931 . S
H341 C329 0.930 . S
H342 C330 0.956 . S
H343 C330 0.961 . S
H344 C330 0.961 . S
H345 C331 0.958 . S
H346 C331 0.961 . S
H347 C331 0.960 . S
C348 C349 1.391 . S
C348 C350 1.394 . S
C348 H364 0.931 . S
C349 C348 1.391 . S
C349 C353 1.376 . S
C350 C348 1.394 . S
C350 C351 1.369 . S
C350 C354 1.531 . S
C351 C350 1.369 . S
C351 C352 1.410 . S
C351 C359 1.503 . S
C352 C351 1.410 . S
C352 C353 1.392 . S
C352 C355 1.511 . S
C353 C349 1.376 . S
C353 C352 1.392 . S
C353 H365 0.929 . S
C354 C350 1.531 . S
C354 H366 0.960 . S
C354 H367 0.962 . S
C354 H368 0.960 . S
C355 C352 1.511 . S
C355 H369 0.961 . S
C355 H370 0.961 . S
C355 H371 0.961 . S
C356 C357 1.370 . S
C356 C358 1.363 . S
C356 H372 0.931 . S
C357 C356 1.370 . S
C357 C361 1.408 . S
C358 C356 1.363 . S
C358 C359 1.370 . S
C358 C362 1.524 . S
C359 C351 1.503 . S
C359 C358 1.370 . S
C359 C360 1.403 . S
C360 C359 1.403 . S
C360 C361 1.404 . S
C360 C363 1.539 . S
C361 C357 1.408 . S
C361 C360 1.404 . S
C361 H373 0.930 . S
C362 C358 1.524 . S
C362 H374 0.956 . S
C362 H375 0.961 . S
C362 H376 0.961 . S
C363 C360 1.539 . S
C363 H377 0.958 . S
C363 H378 0.961 . S
C363 H379 0.960 . S
H364 C348 0.931 . S
H365 C353 0.929 . S
H366 C354 0.960 . S
H367 C354 0.962 . S
H368 C354 0.960 . S
H369 C355 0.961 . S
H370 C355 0.961 . S
H371 C355 0.961 . S
H372 C356 0.931 . S
H373 C361 0.930 . S
H374 C362 0.956 . S
H375 C362 0.961 . S
H376 C362 0.961 . S
H377 C363 0.958 . S
H378 C363 0.961 . S
H379 C363 0.960 . S
C380 C381 1.391 . S
C380 C382 1.394 . S
C380 H396 0.931 . S
C381 C380 1.391 . S
C381 C385 1.376 . S
C382 C380 1.394 . S
C382 C383 1.369 . S
C382 C386 1.531 . S
C383 C382 1.369 . S
C383 C384 1.410 . S
C383 C391 1.503 . S
C384 C383 1.410 . S
C384 C385 1.392 . S
C384 C387 1.511 . S
C385 C381 1.376 . S
C385 C384 1.392 . S
C385 H397 0.929 . S
C386 C382 1.531 . S
C386 H398 0.960 . S
C386 H399 0.962 . S
C386 H400 0.960 . S
C387 C384 1.511 . S
C387 H401 0.961 . S
C387 H402 0.961 . S
C387 H403 0.961 . S
C388 C389 1.370 . S
C388 C390 1.363 . S
C388 H404 0.931 . S
C389 C388 1.370 . S
C389 C393 1.408 . S
C390 C388 1.363 . S
C390 C391 1.370 . S
C390 C394 1.524 . S
C391 C383 1.503 . S
C391 C390 1.370 . S
C391 C392 1.403 . S
C392 C391 1.403 . S
C392 C393 1.404 . S
C392 C395 1.539 . S
C393 C389 1.408 . S
C393 C392 1.404 . S
C393 H405 0.930 . S
C394 C390 1.524 . S
C394 H406 0.956 . S
C394 H407 0.961 . S
C394 H408 0.961 . S
C395 C392 1.539 . S
C395 H409 0.958 . S
C395 H410 0.961 . S
C395 H411 0.960 . S
H396 C380 0.931 . S
H397 C385 0.929 . S
H398 C386 0.960 . S
H399 C386 0.962 . S
H400 C386 0.960 . S
H401 C387 0.961 . S
H402 C387 0.961 . S
H403 C387 0.961 . S
H404 C388 0.931 . S
H405 C393 0.930 . S
H406 C394 0.956 . S
H407 C394 0.961 . S
H408 C394 0.961 . S
H409 C395 0.958 . S
H410 C395 0.961 . S
H411 C395 0.960 . S
C412 C413 1.391 . S
C412 C414 1.394 . S
C412 H428 0.931 . S
C413 C412 1.391 . S
C413 C417 1.376 . S
C414 C412 1.394 . S
C414 C415 1.369 . S
C414 C418 1.531 . S
C415 C414 1.369 . S
C415 C416 1.410 . S
C415 C423 1.503 . S
C416 C415 1.410 . S
C416 C417 1.392 . S
C416 C419 1.511 . S
C417 C413 1.376 . S
C417 C416 1.392 . S
C417 H429 0.929 . S
C418 C414 1.531 . S
C418 H430 0.960 . S
C418 H431 0.962 . S
C418 H432 0.960 . S
C419 C416 1.511 . S
C419 H433 0.961 . S
C419 H434 0.961 . S
C419 H435 0.961 . S
C420 C421 1.370 . S
C420 C422 1.363 . S
C420 H436 0.931 . S
C421 C420 1.370 . S
C421 C425 1.408 . S
C422 C420 1.363 . S
C422 C423 1.370 . S
C422 C426 1.524 . S
C423 C415 1.503 . S
C423 C422 1.370 . S
C423 C424 1.403 . S
C424 C423 1.403 . S
C424 C425 1.404 . S
C424 C427 1.539 . S
C425 C421 1.408 . S
C425 C424 1.404 . S
C425 H437 0.930 . S
C426 C422 1.524 . S
C426 H438 0.956 . S
C426 H439 0.961 . S
C426 H440 0.961 . S
C427 C424 1.539 . S
C427 H441 0.958 . S
C427 H442 0.961 . S
C427 H443 0.960 . S
H428 C412 0.931 . S
H429 C417 0.929 . S
H430 C418 0.960 . S
H431 C418 0.962 . S
H432 C418 0.960 . S
H433 C419 0.961 . S
H434 C419 0.961 . S
H435 C419 0.961 . S
H436 C420 0.931 . S
H437 C425 0.930 . S
H438 C426 0.956 . S
H439 C426 0.961 . S
H440 C426 0.961 . S
H441 C427 0.958 . S
H442 C427 0.961 . S
H443 C427 0.960 . S
C444 C445 1.391 . S
C444 C446 1.394 . S
C444 H460 0.931 . S
C445 C444 1.391 . S
C445 C449 1.376 . S
C446 C444 1.394 . S
C446 C447 1.369 . S
C446 C450 1.531 . S
C447 C446 1.369 . S
C447 C448 1.410 . S
C447 C455 1.503 . S
C448 C447 1.410 . S
C448 C449 1.392 . S
C448 C451 1.511 . S
C449 C445 1.376 . S
C449 C448 1.392 . S
C449 H461 0.929 . S
C450 C446 1.531 . S
C450 H462 0.960 . S
C450 H463 0.962 . S
C450 H464 0.960 . S
C451 C448 1.511 . S
C451 H465 0.961 . S
C451 H466 0.961 . S
C451 H467 0.961 . S
C452 C453 1.370 . S
C452 C454 1.363 . S
C452 H468 0.931 . S
C453 C452 1.370 . S
C453 C457 1.408 . S
C454 C452 1.363 . S
C454 C455 1.370 . S
C454 C458 1.524 . S
C455 C447 1.503 . S
C455 C454 1.370 . S
C455 C456 1.403 . S
C456 C455 1.403 . S
C456 C457 1.404 . S
C456 C459 1.539 . S
C457 C453 1.408 . S
C457 C456 1.404 . S
C457 H469 0.930 . S
C458 C454 1.524 . S
C458 H470 0.956 . S
C458 H471 0.961 . S
C458 H472 0.961 . S
C459 C456 1.539 . S
C459 H473 0.958 . S
C459 H474 0.961 . S
C459 H475 0.960 . S
H460 C444 0.931 . S
H461 C449 0.929 . S
H462 C450 0.960 . S
H463 C450 0.962 . S
H464 C450 0.960 . S
H465 C451 0.961 . S
H466 C451 0.961 . S
H467 C451 0.961 . S
H468 C452 0.931 . S
H469 C457 0.930 . S
H470 C458 0.956 . S
H471 C458 0.961 . S
H472 C458 0.961 . S
H473 C459 0.958 . S
H474 C459 0.961 . S
H475 C459 0.960 . S
C476 C477 1.391 . S
C476 C478 1.394 . S
C476 H492 0.931 . S
C477 C476 1.391 . S
C477 C481 1.376 . S
C478 C476 1.394 . S
C478 C479 1.369 . S
C478 C482 1.531 . S
C479 C478 1.369 . S
C479 C480 1.410 . S
C479 C487 1.503 . S
C480 C479 1.410 . S
C480 C481 1.392 . S
C480 C483 1.511 . S
C481 C477 1.376 . S
C481 C480 1.392 . S
C481 H493 0.929 . S
C482 C478 1.531 . S
C482 H494 0.960 . S
C482 H495 0.962 . S
C482 H496 0.960 . S
C483 C480 1.511 . S
C483 H497 0.961 . S
C483 H498 0.961 . S
C483 H499 0.961 . S
C484 C485 1.370 . S
C484 C486 1.363 . S
C484 H500 0.931 . S
C485 C484 1.370 . S
C485 C489 1.408 . S
C486 C484 1.363 . S
C486 C487 1.370 . S
C486 C490 1.524 . S
C487 C479 1.503 . S
C487 C486 1.370 . S
C487 C488 1.403 . S
C488 C487 1.403 . S
C488 C489 1.404 . S
C488 C491 1.539 . S
C489 C485 1.408 . S
C489 C488 1.404 . S
C489 H501 0.930 . S
C490 C486 1.524 . S
C490 H502 0.956 . S
C490 H503 0.961 . S
C490 H504 0.961 . S
C491 C488 1.539 . S
C491 H505 0.958 . S
C491 H506 0.961 . S
C491 H507 0.960 . S
H492 C476 0.931 . S
H493 C481 0.929 . S
H494 C482 0.960 . S
H495 C482 0.962 . S
H496 C482 0.960 . S
H497 C483 0.961 . S
H498 C483 0.961 . S
H499 C483 0.961 . S
H500 C484 0.931 . S
H501 C489 0.930 . S
H502 C490 0.956 . S
H503 C490 0.961 . S
H504 C490 0.961 . S
H505 C491 0.958 . S
H506 C491 0.961 . S
H507 C491 0.960 . S
C508 C509 1.391 . S
C508 C510 1.394 . S
C508 H524 0.931 . S
C509 C508 1.391 . S
C509 C513 1.376 . S
C510 C508 1.394 . S
C510 C511 1.369 . S
C510 C514 1.531 . S
C511 C510 1.369 . S
C511 C512 1.410 . S
C511 C519 1.503 . S
C512 C511 1.410 . S
C512 C513 1.392 . S
C512 C515 1.511 . S
C513 C509 1.376 . S
C513 C512 1.392 . S
C513 H525 0.929 . S
C514 C510 1.531 . S
C514 H526 0.960 . S
C514 H527 0.962 . S
C514 H528 0.960 . S
C515 C512 1.511 . S
C515 H529 0.961 . S
C515 H530 0.961 . S
C515 H531 0.961 . S
C516 C517 1.370 . S
C516 C518 1.363 . S
C516 H532 0.931 . S
C517 C516 1.370 . S
C517 C521 1.408 . S
C518 C516 1.363 . S
C518 C519 1.370 . S
C518 C522 1.524 . S
C519 C511 1.503 . S
C519 C518 1.370 . S
C519 C520 1.403 . S
C520 C519 1.403 . S
C520 C521 1.404 . S
C520 C523 1.539 . S
C521 C517 1.408 . S
C521 C520 1.404 . S
C521 H533 0.930 . S
C522 C518 1.524 . S
C522 H534 0.956 . S
C522 H535 0.961 . S
C522 H536 0.961 . S
C523 C520 1.539 . S
C523 H537 0.958 . S
C523 H538 0.961 . S
C523 H539 0.960 . S
H524 C508 0.931 . S
H525 C513 0.929 . S
H526 C514 0.960 . S
H527 C514 0.962 . S
H528 C514 0.960 . S
H529 C515 0.961 . S
H530 C515 0.961 . S
H531 C515 0.961 . S
H532 C516 0.931 . S
H533 C521 0.930 . S
H534 C522 0.956 . S
H535 C522 0.961 . S
H536 C522 0.961 . S
H537 C523 0.958 . S
H538 C523 0.961 . S
H539 C523 0.960 . S
C540 C541 1.391 . S
C540 C542 1.394 . S
C540 H556 0.931 . S
C541 C540 1.391 . S
C541 C545 1.376 . S
C542 C540 1.394 . S
C542 C543 1.369 . S
C542 C546 1.531 1_655 S
C543 C542 1.369 . S
C543 C544 1.410 . S
C543 C551 1.503 1_655 S
C544 C543 1.410 . S
C544 C545 1.392 . S
C544 C547 1.511 . S
C545 C541 1.376 . S
C545 C544 1.392 . S
C545 H557 0.929 . S
C546 C542 1.531 1_455 S
C546 H558 0.960 . S
C546 H559 0.962 . S
C546 H560 0.960 1_455 S
C547 C544 1.511 . S
C547 H561 0.961 . S
C547 H562 0.961 . S
C547 H563 0.961 . S
C548 C549 1.370 . S
C548 C550 1.363 . S
C548 H564 0.931 . S
C549 C548 1.370 . S
C549 C553 1.408 . S
C550 C548 1.363 . S
C550 C551 1.370 . S
C550 C554 1.524 . S
C551 C543 1.503 1_455 S
C551 C550 1.370 . S
C551 C552 1.403 . S
C552 C551 1.403 . S
C552 C553 1.404 . S
C552 C555 1.539 . S
C553 C549 1.408 . S
C553 C552 1.404 . S
C553 H565 0.930 . S
C554 C550 1.524 . S
C554 H566 0.956 . S
C554 H567 0.961 1_455 S
C554 H568 0.961 . S
C555 C552 1.539 . S
C555 H569 0.958 . S
C555 H570 0.961 . S
C555 H571 0.960 1_455 S
H556 C540 0.931 . S
H557 C545 0.929 . S
H558 C546 0.960 . S
H559 C546 0.962 . S
H560 C546 0.960 1_655 S
H561 C547 0.961 . S
H562 C547 0.961 . S
H563 C547 0.961 . S
H564 C548 0.931 . S
H565 C553 0.930 . S
H566 C554 0.956 . S
H567 C554 0.961 1_655 S
H568 C554 0.961 . S
H569 C555 0.958 . S
H570 C555 0.961 . S
H571 C555 0.960 1_655 S
C572 C573 1.391 . S
C572 C574 1.394 . S
C572 H588 0.931 . S
C573 C572 1.391 . S
C573 C577 1.376 . S
C574 C572 1.394 . S
C574 C575 1.369 . S
C574 C578 1.531 . S
C575 C574 1.369 . S
C575 C576 1.410 . S
C575 C583 1.503 1_545 S
C576 C575 1.410 . S
C576 C577 1.392 . S
C576 C579 1.511 1_545 S
C577 C573 1.376 . S
C577 C576 1.392 . S
C577 H589 0.929 . S
C578 C574 1.531 . S
C578 H590 0.960 . S
C578 H591 0.962 . S
C578 H592 0.960 . S
C579 C576 1.511 1_565 S
C579 H593 0.961 1_565 S
C579 H594 0.961 . S
C579 H595 0.961 . S
C580 C581 1.370 . S
C580 C582 1.363 . S
C580 H596 0.931 . S
C581 C580 1.370 . S
C581 C585 1.408 . S
C582 C580 1.363 . S
C582 C583 1.370 . S
C582 C586 1.524 . S
C583 C575 1.503 1_565 S
C583 C582 1.370 . S
C583 C584 1.403 . S
C584 C583 1.403 . S
C584 C585 1.404 . S
C584 C587 1.539 . S
C585 C581 1.408 . S
C585 C584 1.404 . S
C585 H597 0.930 . S
C586 C582 1.524 . S
C586 H598 0.956 1_565 S
C586 H599 0.961 1_565 S
C586 H600 0.961 . S
C587 C584 1.539 . S
C587 H601 0.958 . S
C587 H602 0.961 . S
C587 H603 0.960 . S
H588 C572 0.931 . S
H589 C577 0.929 . S
H590 C578 0.960 . S
H591 C578 0.962 . S
H592 C578 0.960 . S
H593 C579 0.961 1_545 S
H594 C579 0.961 . S
H595 C579 0.961 . S
H596 C580 0.931 . S
H597 C585 0.930 . S
H598 C586 0.956 1_545 S
H599 C586 0.961 1_545 S
H600 C586 0.961 . S
H601 C587 0.958 . S
H602 C587 0.961 . S
H603 C587 0.960 . S
C604 C605 1.391 . S
C604 C606 1.394 . S
C604 H620 0.931 . S
C605 C604 1.391 . S
C605 C609 1.376 . S
C606 C604 1.394 . S
C606 C607 1.369 . S
C606 C610 1.531 . S
C607 C606 1.369 . S
C607 C608 1.410 . S
C607 C615 1.503 . S
C608 C607 1.410 . S
C608 C609 1.392 . S
C608 C611 1.511 . S
C609 C605 1.376 . S
C609 C608 1.392 . S
C609 H621 0.929 . S
C610 C606 1.531 . S
C610 H622 0.960 . S
C610 H623 0.962 . S
C610 H624 0.960 . S
C611 C608 1.511 . S
C611 H625 0.961 . S
C611 H626 0.961 . S
C611 H627 0.961 . S
C612 C613 1.370 . S
C612 C614 1.363 . S
C612 H628 0.931 . S
C613 C612 1.370 . S
C613 C617 1.408 . S
C614 C612 1.363 . S
C614 C615 1.370 . S
C614 C618 1.524 . S
C615 C607 1.503 . S
C615 C614 1.370 . S
C615 C616 1.403 . S
C616 C615 1.403 . S
C616 C617 1.404 . S
C616 C619 1.539 . S
C617 C613 1.408 . S
C617 C616 1.404 . S
C617 H629 0.930 . S
C618 C614 1.524 . S
C618 H630 0.956 . S
C618 H631 0.961 . S
C618 H632 0.961 . S
C619 C616 1.539 . S
C619 H633 0.958 . S
C619 H634 0.961 . S
C619 H635 0.960 . S
H620 C604 0.931 . S
H621 C609 0.929 . S
H622 C610 0.960 . S
H623 C610 0.962 . S
H624 C610 0.960 . S
H625 C611 0.961 . S
H626 C611 0.961 . S
H627 C611 0.961 . S
H628 C612 0.931 . S
H629 C617 0.930 . S
H630 C618 0.956 . S
H631 C618 0.961 . S
H632 C618 0.961 . S
H633 C619 0.958 . S
H634 C619 0.961 . S
H635 C619 0.960 . S
C636 C637 1.391 . S
C636 C638 1.394 . S
C636 H652 0.931 . S
C637 C636 1.391 . S
C637 C641 1.376 . S
C638 C636 1.394 . S
C638 C639 1.369 . S
C638 C642 1.531 . S
C639 C638 1.369 . S
C639 C640 1.410 . S
C639 C647 1.503 1_545 S
C640 C639 1.410 . S
C640 C641 1.392 . S
C640 C643 1.511 . S
C641 C637 1.376 . S
C641 C640 1.392 . S
C641 H653 0.929 . S
C642 C638 1.531 . S
C642 H654 0.960 . S
C642 H655 0.962 . S
C642 H656 0.960 . S
C643 C640 1.511 . S
C643 H657 0.961 . S
C643 H658 0.961 1_545 S
C643 H659 0.961 . S
C644 C645 1.370 . S
C644 C646 1.363 . S
C644 H660 0.931 . S
C645 C644 1.370 . S
C645 C649 1.408 . S
C646 C644 1.363 . S
C646 C647 1.370 . S
C646 C650 1.524 . S
C647 C639 1.503 1_565 S
C647 C646 1.370 . S
C647 C648 1.403 . S
C648 C647 1.403 . S
C648 C649 1.404 . S
C648 C651 1.539 1_565 S
C649 C645 1.408 . S
C649 C648 1.404 . S
C649 H661 0.930 . S
C650 C646 1.524 . S
C650 H662 0.956 . S
C650 H663 0.961 . S
C650 H664 0.961 . S
C651 C648 1.539 1_545 S
C651 H665 0.958 . S
C651 H666 0.961 1_545 S
C651 H667 0.960 . S
H652 C636 0.931 . S
H653 C641 0.929 . S
H654 C642 0.960 . S
H655 C642 0.962 . S
H656 C642 0.960 . S
H657 C643 0.961 . S
H658 C643 0.961 1_565 S
H659 C643 0.961 . S
H660 C644 0.931 . S
H661 C649 0.930 . S
H662 C650 0.956 . S
H663 C650 0.961 . S
H664 C650 0.961 . S
H665 C651 0.958 . S
H666 C651 0.961 1_565 S
H667 C651 0.960 . S
C668 C669 1.391 . S
C668 C670 1.394 . S
C668 H684 0.931 . S
C669 C668 1.391 . S
C669 C673 1.376 . S
C670 C668 1.394 . S
C670 C671 1.369 . S
C670 C674 1.531 . S
C671 C670 1.369 . S
C671 C672 1.410 . S
C671 C679 1.503 . S
C672 C671 1.410 . S
C672 C673 1.392 . S
C672 C675 1.511 . S
C673 C669 1.376 . S
C673 C672 1.392 . S
C673 H685 0.929 . S
C674 C670 1.531 . S
C674 H686 0.960 . S
C674 H687 0.962 . S
C674 H688 0.960 . S
C675 C672 1.511 . S
C675 H689 0.961 . S
C675 H690 0.961 . S
C675 H691 0.961 . S
C676 C677 1.370 . S
C676 C678 1.363 . S
C676 H692 0.931 . S
C677 C676 1.370 . S
C677 C681 1.408 . S
C678 C676 1.363 . S
C678 C679 1.370 . S
C678 C682 1.524 . S
C679 C671 1.503 . S
C679 C678 1.370 . S
C679 C680 1.403 . S
C680 C679 1.403 . S
C680 C681 1.404 . S
C680 C683 1.539 . S
C681 C677 1.408 . S
C681 C680 1.404 . S
C681 H693 0.930 . S
C682 C678 1.524 . S
C682 H694 0.956 . S
C682 H695 0.961 . S
C682 H696 0.961 . S
C683 C680 1.539 . S
C683 H697 0.958 . S
C683 H698 0.961 . S
C683 H699 0.960 . S
H684 C668 0.931 . S
H685 C673 0.929 . S
H686 C674 0.960 . S
H687 C674 0.962 . S
H688 C674 0.960 . S
H689 C675 0.961 . S
H690 C675 0.961 . S
H691 C675 0.961 . S
H692 C676 0.931 . S
H693 C681 0.930 . S
H694 C682 0.956 . S
H695 C682 0.961 . S
H696 C682 0.961 . S
H697 C683 0.958 . S
H698 C683 0.961 . S
H699 C683 0.960 . S
C700 C701 1.391 . S
C700 C702 1.394 . S
C700 H716 0.931 . S
C701 C700 1.391 . S
C701 C705 1.376 . S
C702 C700 1.394 . S
C702 C703 1.369 . S
C702 C706 1.531 . S
C703 C702 1.369 . S
C703 C704 1.410 . S
C703 C711 1.503 1_455 S
C704 C703 1.410 . S
C704 C705 1.392 . S
C704 C707 1.511 1_455 S
C705 C701 1.376 . S
C705 C704 1.392 . S
C705 H717 0.929 . S
C706 C702 1.531 . S
C706 H718 0.960 . S
C706 H719 0.962 . S
C706 H720 0.960 . S
C707 C704 1.511 1_655 S
C707 H721 0.961 1_655 S
C707 H722 0.961 . S
C707 H723 0.961 . S
C708 C709 1.370 . S
C708 C710 1.363 . S
C708 H724 0.931 . S
C709 C708 1.370 . S
C709 C713 1.408 . S
C710 C708 1.363 . S
C710 C711 1.370 . S
C710 C714 1.524 . S
C711 C703 1.503 1_655 S
C711 C710 1.370 . S
C711 C712 1.403 . S
C712 C711 1.403 . S
C712 C713 1.404 . S
C712 C715 1.539 . S
C713 C709 1.408 . S
C713 C712 1.404 . S
C713 H725 0.930 . S
C714 C710 1.524 . S
C714 H726 0.956 1_655 S
C714 H727 0.961 . S
C714 H728 0.961 . S
C715 C712 1.539 . S
C715 H729 0.958 . S
C715 H730 0.961 . S
C715 H731 0.960 . S
H716 C700 0.931 . S
H717 C705 0.929 . S
H718 C706 0.960 . S
H719 C706 0.962 . S
H720 C706 0.960 . S
H721 C707 0.961 1_455 S
H722 C707 0.961 . S
H723 C707 0.961 . S
H724 C708 0.931 . S
H725 C713 0.930 . S
H726 C714 0.956 1_455 S
H727 C714 0.961 . S
H728 C714 0.961 . S
H729 C715 0.958 . S
H730 C715 0.961 . S
H731 C715 0.960 . S
C732 C733 1.391 . S
C732 C734 1.394 . S
C732 H748 0.931 . S
C733 C732 1.391 . S
C733 C737 1.376 . S
C734 C732 1.394 . S
C734 C735 1.369 . S
C734 C738 1.531 . S
C735 C734 1.369 . S
C735 C736 1.410 . S
C735 C743 1.503 . S
C736 C735 1.410 . S
C736 C737 1.392 . S
C736 C739 1.511 . S
C737 C733 1.376 . S
C737 C736 1.392 . S
C737 H749 0.929 . S
C738 C734 1.531 . S
C738 H750 0.960 . S
C738 H751 0.962 . S
C738 H752 0.960 . S
C739 C736 1.511 . S
C739 H753 0.961 . S
C739 H754 0.961 . S
C739 H755 0.961 . S
C740 C741 1.370 . S
C740 C742 1.363 . S
C740 H756 0.931 . S
C741 C740 1.370 . S
C741 C745 1.408 . S
C742 C740 1.363 . S
C742 C743 1.370 . S
C742 C746 1.524 . S
C743 C735 1.503 . S
C743 C742 1.370 . S
C743 C744 1.403 . S
C744 C743 1.403 . S
C744 C745 1.404 . S
C744 C747 1.539 . S
C745 C741 1.408 . S
C745 C744 1.404 . S
C745 H757 0.930 . S
C746 C742 1.524 . S
C746 H758 0.956 . S
C746 H759 0.961 . S
C746 H760 0.961 . S
C747 C744 1.539 . S
C747 H761 0.958 . S
C747 H762 0.961 . S
C747 H763 0.960 . S
H748 C732 0.931 . S
H749 C737 0.929 . S
H750 C738 0.960 . S
H751 C738 0.962 . S
H752 C738 0.960 . S
H753 C739 0.961 . S
H754 C739 0.961 . S
H755 C739 0.961 . S
H756 C740 0.931 . S
H757 C745 0.930 . S
H758 C746 0.956 . S
H759 C746 0.961 . S
H760 C746 0.961 . S
H761 C747 0.958 . S
H762 C747 0.961 . S
H763 C747 0.960 . S
C764 C765 1.391 . S
C764 C766 1.394 . S
C764 H780 0.931 . S
C765 C764 1.391 . S
C765 C769 1.376 . S
C766 C764 1.394 . S
C766 C767 1.369 . S
C766 C770 1.531 . S
C767 C766 1.369 . S
C767 C768 1.410 . S
C767 C775 1.503 1_655 S
C768 C767 1.410 . S
C768 C769 1.392 . S
C768 C771 1.511 1_655 S
C769 C765 1.376 . S
C769 C768 1.392 . S
C769 H781 0.929 . S
C770 C766 1.531 . S
C770 H782 0.960 . S
C770 H783 0.962 . S
C770 H784 0.960 . S
C771 C768 1.511 1_455 S
C771 H785 0.961 1_455 S
C771 H786 0.961 . S
C771 H787 0.961 . S
C772 C773 1.370 . S
C772 C774 1.363 . S
C772 H788 0.931 . S
C773 C772 1.370 . S
C773 C777 1.408 . S
C774 C772 1.363 . S
C774 C775 1.370 . S
C774 C778 1.524 . S
C775 C767 1.503 1_455 S
C775 C774 1.370 . S
C775 C776 1.403 . S
C776 C775 1.403 . S
C776 C777 1.404 . S
C776 C779 1.539 . S
C777 C773 1.408 . S
C777 C776 1.404 . S
C777 H789 0.930 . S
C778 C774 1.524 . S
C778 H790 0.956 1_455 S
C778 H791 0.961 . S
C778 H792 0.961 . S
C779 C776 1.539 . S
C779 H793 0.958 . S
C779 H794 0.961 . S
C779 H795 0.960 . S
H780 C764 0.931 . S
H781 C769 0.929 . S
H782 C770 0.960 . S
H783 C770 0.962 . S
H784 C770 0.960 . S
H785 C771 0.961 1_655 S
H786 C771 0.961 . S
H787 C771 0.961 . S
H788 C772 0.931 . S
H789 C777 0.930 . S
H790 C778 0.956 1_655 S
H791 C778 0.961 . S
H792 C778 0.961 . S
H793 C779 0.958 . S
H794 C779 0.961 . S
H795 C779 0.960 . S
C796 C797 1.391 . S
C796 C798 1.394 . S
C796 H812 0.931 . S
C797 C796 1.391 . S
C797 C801 1.376 . S
C798 C796 1.394 . S
C798 C799 1.369 . S
C798 C802 1.531 1_545 S
C799 C798 1.369 . S
C799 C800 1.410 . S
C799 C807 1.503 1_545 S
C800 C799 1.410 . S
C800 C801 1.392 . S
C800 C803 1.511 . S
C801 C797 1.376 . S
C801 C800 1.392 . S
C801 H813 0.929 . S
C802 C798 1.531 1_565 S
C802 H814 0.960 . S
C802 H815 0.962 . S
C802 H816 0.960 1_565 S
C803 C800 1.511 . S
C803 H817 0.961 . S
C803 H818 0.961 . S
C803 H819 0.961 . S
C804 C805 1.370 . S
C804 C806 1.363 . S
C804 H820 0.931 . S
C805 C804 1.370 . S
C805 C809 1.408 . S
C806 C804 1.363 . S
C806 C807 1.370 . S
C806 C810 1.524 . S
C807 C799 1.503 1_565 S
C807 C806 1.370 . S
C807 C808 1.403 . S
C808 C807 1.403 . S
C808 C809 1.404 . S
C808 C811 1.539 . S
C809 C805 1.408 . S
C809 C808 1.404 . S
C809 H821 0.930 . S
C810 C806 1.524 . S
C810 H822 0.956 . S
C810 H823 0.961 1_565 S
C810 H824 0.961 . S
C811 C808 1.539 . S
C811 H825 0.958 . S
C811 H826 0.961 . S
C811 H827 0.960 1_565 S
H812 C796 0.931 . S
H813 C801 0.929 . S
H814 C802 0.960 . S
H815 C802 0.962 . S
H816 C802 0.960 1_545 S
H817 C803 0.961 . S
H818 C803 0.961 . S
H819 C803 0.961 . S
H820 C804 0.931 . S
H821 C809 0.930 . S
H822 C810 0.956 . S
H823 C810 0.961 1_545 S
H824 C810 0.961 . S
H825 C811 0.958 . S
H826 C811 0.961 . S
H827 C811 0.960 1_545 S
C828 C829 1.391 . S
C828 C830 1.394 . S
C828 H844 0.931 . S
C829 C828 1.391 . S
C829 C833 1.376 . S
C830 C828 1.394 . S
C830 C831 1.369 . S
C830 C834 1.531 . S
C831 C830 1.369 . S
C831 C832 1.410 . S
C831 C839 1.503 . S
C832 C831 1.410 . S
C832 C833 1.392 . S
C832 C835 1.511 . S
C833 C829 1.376 . S
C833 C832 1.392 . S
C833 H845 0.929 . S
C834 C830 1.531 . S
C834 H846 0.960 . S
C834 H847 0.962 . S
C834 H848 0.960 . S
C835 C832 1.511 . S
C835 H849 0.961 . S
C835 H850 0.961 . S
C835 H851 0.961 . S
C836 C837 1.370 . S
C836 C838 1.363 . S
C836 H852 0.931 . S
C837 C836 1.370 . S
C837 C841 1.408 . S
C838 C836 1.363 . S
C838 C839 1.370 . S
C838 C842 1.524 . S
C839 C831 1.503 . S
C839 C838 1.370 . S
C839 C840 1.403 . S
C840 C839 1.403 . S
C840 C841 1.404 . S
C840 C843 1.539 . S
C841 C837 1.408 . S
C841 C840 1.404 . S
C841 H853 0.930 . S
C842 C838 1.524 . S
C842 H854 0.956 . S
C842 H855 0.961 . S
C842 H856 0.961 . S
C843 C840 1.539 . S
C843 H857 0.958 . S
C843 H858 0.961 . S
C843 H859 0.960 . S
H844 C828 0.931 . S
H845 C833 0.929 . S
H846 C834 0.960 . S
H847 C834 0.962 . S
H848 C834 0.960 . S
H849 C835 0.961 . S
H850 C835 0.961 . S
H851 C835 0.961 . S
H852 C836 0.931 . S
H853 C841 0.930 . S
H854 C842 0.956 . S
H855 C842 0.961 . S
H856 C842 0.961 . S
H857 C843 0.958 . S
H858 C843 0.961 . S
H859 C843 0.960 . S
C860 C861 1.391 . S
C860 C862 1.394 . S
C860 H876 0.931 . S
C861 C860 1.391 . S
C861 C865 1.376 . S
C862 C860 1.394 . S
C862 C863 1.369 . S
C862 C866 1.531 . S
C863 C862 1.369 . S
C863 C864 1.410 . S
C863 C871 1.503 1_455 S
C864 C863 1.410 . S
C864 C865 1.392 . S
C864 C867 1.511 1_455 S
C865 C861 1.376 . S
C865 C864 1.392 . S
C865 H877 0.929 . S
C866 C862 1.531 . S
C866 H878 0.960 . S
C866 H879 0.962 . S
C866 H880 0.960 . S
C867 C864 1.511 1_655 S
C867 H881 0.961 1_655 S
C867 H882 0.961 . S
C867 H883 0.961 . S
C868 C869 1.370 . S
C868 C870 1.363 . S
C868 H884 0.931 . S
C869 C868 1.370 . S
C869 C873 1.408 . S
C870 C868 1.363 . S
C870 C871 1.370 . S
C870 C874 1.524 . S
C871 C863 1.503 1_655 S
C871 C870 1.370 . S
C871 C872 1.403 . S
C872 C871 1.403 . S
C872 C873 1.404 . S
C872 C875 1.539 . S
C873 C869 1.408 . S
C873 C872 1.404 . S
C873 H885 0.930 . S
C874 C870 1.524 . S
C874 H886 0.956 1_655 S
C874 H887 0.961 1_655 S
C874 H888 0.961 . S
C875 C872 1.539 . S
C875 H889 0.958 . S
C875 H890 0.961 . S
C875 H891 0.960 . S
H876 C860 0.931 . S
H877 C865 0.929 . S
H878 C866 0.960 . S
H879 C866 0.962 . S
H880 C866 0.960 . S
H881 C867 0.961 1_455 S
H882 C867 0.961 . S
H883 C867 0.961 . S
H884 C868 0.931 . S
H885 C873 0.930 . S
H886 C874 0.956 1_455 S
H887 C874 0.961 1_455 S
H888 C874 0.961 . S
H889 C875 0.958 . S
H890 C875 0.961 . S
H891 C875 0.960 . S
C892 C893 1.391 . S
C892 C894 1.394 . S
C892 H908 0.931 . S
C893 C892 1.391 . S
C893 C897 1.376 . S
C894 C892 1.394 . S
C894 C895 1.369 . S
C894 C898 1.531 . S
C895 C894 1.369 . S
C895 C896 1.410 . S
C895 C903 1.503 1_565 S
C896 C895 1.410 . S
C896 C897 1.392 . S
C896 C899 1.511 1_565 S
C897 C893 1.376 . S
C897 C896 1.392 . S
C897 H909 0.929 . S
C898 C894 1.531 . S
C898 H910 0.960 . S
C898 H911 0.962 . S
C898 H912 0.960 . S
C899 C896 1.511 1_545 S
C899 H913 0.961 1_545 S
C899 H914 0.961 . S
C899 H915 0.961 . S
C900 C901 1.370 . S
C900 C902 1.363 . S
C900 H916 0.931 . S
C901 C900 1.370 . S
C901 C905 1.408 . S
C902 C900 1.363 . S
C902 C903 1.370 . S
C902 C906 1.524 . S
C903 C895 1.503 1_545 S
C903 C902 1.370 . S
C903 C904 1.403 . S
C904 C903 1.403 . S
C904 C905 1.404 . S
C904 C907 1.539 . S
C905 C901 1.408 . S
C905 C904 1.404 . S
C905 H917 0.930 . S
C906 C902 1.524 . S
C906 H918 0.956 1_545 S
C906 H919 0.961 . S
C906 H920 0.961 . S
C907 C904 1.539 . S
C907 H921 0.958 . S
C907 H922 0.961 . S
C907 H923 0.960 . S
H908 C892 0.931 . S
H909 C897 0.929 . S
H910 C898 0.960 . S
H911 C898 0.962 . S
H912 C898 0.960 . S
H913 C899 0.961 1_565 S
H914 C899 0.961 . S
H915 C899 0.961 . S
H916 C900 0.931 . S
H917 C905 0.930 . S
H918 C906 0.956 1_565 S
H919 C906 0.961 . S
H920 C906 0.961 . S
H921 C907 0.958 . S
H922 C907 0.961 . S
H923 C907 0.960 . S
C157 C134 1.306 . S
C165 C10 1.325 . S
C189 C17 1.331 . S
C197 C147 1.334 . S
C221 C36 1.311 . S
C229 C82 1.317 . S
C253 C49 1.320 . S
C261 C95 1.318 . S
C285 C108 1.305 . S
C293 C56 1.317 . S
C317 C69 1.308 . S
C325 C127 1.317 . S
C349 C109 1.337 . S
C357 C3 1.307 . S
C381 C18 1.331 . S
C389 C120 1.319 . S
C413 C29 1.335 . S
C421 C135 1.316 . S
C445 C42 1.347 . S
C453 C148 1.306 . S
C477 C83 1.285 . S
C485 C57 1.329 . S
C509 C96 1.290 . S
C517 C70 1.332 . S
C541 C44 1.214 . S
C549 C5 1.224 . S
C573 C16 1.220 . S
C581 C55 1.210 . S
C605 C68 1.230 . S
C613 C31 1.210 . S
C637 C122 1.195 . S
C645 C81 1.224 . S
C669 C133 1.217 . S
C677 C94 1.223 . S
C701 C107 1.209 . S
C709 C146 1.213 . S
C733 C43 1.597 . S
C741 C4 1.611 . S
C765 C23 1.605 . S
C773 C62 1.609 . S
C797 C75 1.600 . S
C805 C30 1.609 . S
C829 C88 1.609 . S
C837 C121 1.607 . S
C861 C140 1.612 . S
C869 C101 1.606 . S
C893 C114 1.606 . S
C901 C153 1.609 . S
