# Generated by pormake.
# Topology umv, (4)-cn, num edge types: 1
# Building blocks:
#     Node 0, Type 0, BuildingBlock: GALJAG_clean_sbu_0, # of connection points: 4
#     Node 1, Type 0, BuildingBlock: GALJAG_clean_sbu_0, # of connection points: 4
#     Node 2, Type 0, BuildingBlock: GALJAG_clean_sbu_0, # of connection points: 4
#     Node 3, Type 0, BuildingBlock: GALJAG_clean_sbu_0, # of connection points: 4
#     Node 4, Type 0, BuildingBlock: GALJAG_clean_sbu_0, # of connection points: 4
#     Node 5, Type 0, BuildingBlock: GALJAG_clean_sbu_0, # of connection points: 4
#     Node 6, Type 0, BuildingBlock: GALJAG_clean_sbu_0, # of connection points: 4
#     Node 7, Type 0, BuildingBlock: GALJAG_clean_sbu_0, # of connection points: 4
#     Node 8, Type 0, BuildingBlock: GALJAG_clean_sbu_0, # of connection points: 4
#     Node 9, Type 0, BuildingBlock: GALJAG_clean_sbu_0, # of connection points: 4
#     Node 10, Type 0, BuildingBlock: GALJAG_clean_sbu_0, # of connection points: 4
#     Node 11, Type 0, BuildingBlock: GALJAG_clean_sbu_0, # of connection points: 4
#     Node 12, Type 0, BuildingBlock: GALJAG_clean_sbu_0, # of connection points: 4
#     Node 13, Type 0, BuildingBlock: GALJAG_clean_sbu_0, # of connection points: 4
#     Node 14, Type 0, BuildingBlock: GALJAG_clean_sbu_0, # of connection points: 4
#     Node 15, Type 0, BuildingBlock: GALJAG_clean_sbu_0, # of connection points: 4
#     Node 16, Type 0, BuildingBlock: GALJAG_clean_sbu_0, # of connection points: 4
#     Node 17, Type 0, BuildingBlock: GALJAG_clean_sbu_0, # of connection points: 4
#     Node 18, Type 0, BuildingBlock: GALJAG_clean_sbu_0, # of connection points: 4
#     Node 19, Type 0, BuildingBlock: GALJAG_clean_sbu_0, # of connection points: 4
#     Node 20, Type 0, BuildingBlock: GALJAG_clean_sbu_0, # of connection points: 4
#     Node 21, Type 0, BuildingBlock: GALJAG_clean_sbu_0, # of connection points: 4
#     Node 22, Type 0, BuildingBlock: GALJAG_clean_sbu_0, # of connection points: 4
#     Node 23, Type 0, BuildingBlock: GALJAG_clean_sbu_0, # of connection points: 4
#     Node 24, Type 0, BuildingBlock: GALJAG_clean_sbu_0, # of connection points: 4
#     Node 25, Type 0, BuildingBlock: GALJAG_clean_sbu_0, # of connection points: 4
#     Node 26, Type 0, BuildingBlock: GALJAG_clean_sbu_0, # of connection points: 4
#     Node 27, Type 0, BuildingBlock: GALJAG_clean_sbu_0, # of connection points: 4
#     Node 28, Type 0, BuildingBlock: GALJAG_clean_sbu_0, # of connection points: 4
#     Node 29, Type 0, BuildingBlock: GALJAG_clean_sbu_0, # of connection points: 4
#     Node 30, Type 0, BuildingBlock: GALJAG_clean_sbu_0, # of connection points: 4
#     Node 31, Type 0, BuildingBlock: GALJAG_clean_sbu_0, # of connection points: 4
#     Edge 32, Type (0, 0), BuildingBlock: XIVTED_clean_linker_0, # of connection points: 2
#     Edge 33, Type (0, 0), BuildingBlock: XIVTED_clean_linker_0, # of connection points: 2
#     Edge 34, Type (0, 0), BuildingBlock: XIVTED_clean_linker_0, # of connection points: 2
#     Edge 35, Type (0, 0), BuildingBlock: XIVTED_clean_linker_0, # of connection points: 2
#     Edge 36, Type (0, 0), BuildingBlock: XIVTED_clean_linker_0, # of connection points: 2
#     Edge 37, Type (0, 0), BuildingBlock: XIVTED_clean_linker_0, # of connection points: 2
#     Edge 38, Type (0, 0), BuildingBlock: XIVTED_clean_linker_0, # of connection points: 2
#     Edge 39, Type (0, 0), BuildingBlock: XIVTED_clean_linker_0, # of connection points: 2
#     Edge 40, Type (0, 0), BuildingBlock: XIVTED_clean_linker_0, # of connection points: 2
#     Edge 41, Type (0, 0), BuildingBlock: XIVTED_clean_linker_0, # of connection points: 2
#     Edge 42, Type (0, 0), BuildingBlock: XIVTED_clean_linker_0, # of connection points: 2
#     Edge 43, Type (0, 0), BuildingBlock: XIVTED_clean_linker_0, # of connection points: 2
#     Edge 44, Type (0, 0), BuildingBlock: XIVTED_clean_linker_0, # of connection points: 2
#     Edge 45, Type (0, 0), BuildingBlock: XIVTED_clean_linker_0, # of connection points: 2
#     Edge 46, Type (0, 0), BuildingBlock: XIVTED_clean_linker_0, # of connection points: 2
#     Edge 47, Type (0, 0), BuildingBlock: XIVTED_clean_linker_0, # of connection points: 2
#     Edge 48, Type (0, 0), BuildingBlock: XIVTED_clean_linker_0, # of connection points: 2
#     Edge 49, Type (0, 0), BuildingBlock: XIVTED_clean_linker_0, # of connection points: 2
#     Edge 50, Type (0, 0), BuildingBlock: XIVTED_clean_linker_0, # of connection points: 2
#     Edge 51, Type (0, 0), BuildingBlock: XIVTED_clean_linker_0, # of connection points: 2
#     Edge 52, Type (0, 0), BuildingBlock: XIVTED_clean_linker_0, # of connection points: 2
#     Edge 53, Type (0, 0), BuildingBlock: XIVTED_clean_linker_0, # of connection points: 2
#     Edge 54, Type (0, 0), BuildingBlock: XIVTED_clean_linker_0, # of connection points: 2
#     Edge 55, Type (0, 0), BuildingBlock: XIVTED_clean_linker_0, # of connection points: 2
#     Edge 56, Type (0, 0), BuildingBlock: XIVTED_clean_linker_0, # of connection points: 2
#     Edge 57, Type (0, 0), BuildingBlock: XIVTED_clean_linker_0, # of connection points: 2
#     Edge 58, Type (0, 0), BuildingBlock: XIVTED_clean_linker_0, # of connection points: 2
#     Edge 59, Type (0, 0), BuildingBlock: XIVTED_clean_linker_0, # of connection points: 2
#     Edge 60, Type (0, 0), BuildingBlock: XIVTED_clean_linker_0, # of connection points: 2
#     Edge 61, Type (0, 0), BuildingBlock: XIVTED_clean_linker_0, # of connection points: 2
#     Edge 62, Type (0, 0), BuildingBlock: XIVTED_clean_linker_0, # of connection points: 2
#     Edge 63, Type (0, 0), BuildingBlock: XIVTED_clean_linker_0, # of connection points: 2
#     Edge 64, Type (0, 0), BuildingBlock: XIVTED_clean_linker_0, # of connection points: 2
#     Edge 65, Type (0, 0), BuildingBlock: XIVTED_clean_linker_0, # of connection points: 2
#     Edge 66, Type (0, 0), BuildingBlock: XIVTED_clean_linker_0, # of connection points: 2
#     Edge 67, Type (0, 0), BuildingBlock: XIVTED_clean_linker_0, # of connection points: 2
#     Edge 68, Type (0, 0), BuildingBlock: XIVTED_clean_linker_0, # of connection points: 2
#     Edge 69, Type (0, 0), BuildingBlock: XIVTED_clean_linker_0, # of connection points: 2
#     Edge 70, Type (0, 0), BuildingBlock: XIVTED_clean_linker_0, # of connection points: 2
#     Edge 71, Type (0, 0), BuildingBlock: XIVTED_clean_linker_0, # of connection points: 2
#     Edge 72, Type (0, 0), BuildingBlock: XIVTED_clean_linker_0, # of connection points: 2
#     Edge 73, Type (0, 0), BuildingBlock: XIVTED_clean_linker_0, # of connection points: 2
#     Edge 74, Type (0, 0), BuildingBlock: XIVTED_clean_linker_0, # of connection points: 2
#     Edge 75, Type (0, 0), BuildingBlock: XIVTED_clean_linker_0, # of connection points: 2
#     Edge 76, Type (0, 0), BuildingBlock: XIVTED_clean_linker_0, # of connection points: 2
#     Edge 77, Type (0, 0), BuildingBlock: XIVTED_clean_linker_0, # of connection points: 2
#     Edge 78, Type (0, 0), BuildingBlock: XIVTED_clean_linker_0, # of connection points: 2
#     Edge 79, Type (0, 0), BuildingBlock: XIVTED_clean_linker_0, # of connection points: 2
#     Edge 80, Type (0, 0), BuildingBlock: XIVTED_clean_linker_0, # of connection points: 2
#     Edge 81, Type (0, 0), BuildingBlock: XIVTED_clean_linker_0, # of connection points: 2
#     Edge 82, Type (0, 0), BuildingBlock: XIVTED_clean_linker_0, # of connection points: 2
#     Edge 83, Type (0, 0), BuildingBlock: XIVTED_clean_linker_0, # of connection points: 2
#     Edge 84, Type (0, 0), BuildingBlock: XIVTED_clean_linker_0, # of connection points: 2
#     Edge 85, Type (0, 0), BuildingBlock: XIVTED_clean_linker_0, # of connection points: 2
#     Edge 86, Type (0, 0), BuildingBlock: XIVTED_clean_linker_0, # of connection points: 2
#     Edge 87, Type (0, 0), BuildingBlock: XIVTED_clean_linker_0, # of connection points: 2
#     Edge 88, Type (0, 0), BuildingBlock: XIVTED_clean_linker_0, # of connection points: 2
#     Edge 89, Type (0, 0), BuildingBlock: XIVTED_clean_linker_0, # of connection points: 2
#     Edge 90, Type (0, 0), BuildingBlock: XIVTED_clean_linker_0, # of connection points: 2
#     Edge 91, Type (0, 0), BuildingBlock: XIVTED_clean_linker_0, # of connection points: 2
#     Edge 92, Type (0, 0), BuildingBlock: XIVTED_clean_linker_0, # of connection points: 2
#     Edge 93, Type (0, 0), BuildingBlock: XIVTED_clean_linker_0, # of connection points: 2
#     Edge 94, Type (0, 0), BuildingBlock: XIVTED_clean_linker_0, # of connection points: 2
#     Edge 95, Type (0, 0), BuildingBlock: XIVTED_clean_linker_0, # of connection points: 2
# Relax obj value: 0.083
# Max RMSD: 0.091
# Mean RMSD: 0.091
data_MOF--net-umv--node1-GALJAG_clean_sbu_0--edge1-XIVTED_clean_linker_0
_symmetry_space_group_name_H-M    P1
_symmetry_Int_Tables_number       1
_symmetry_cell_setting            triclinic
loop_
_symmetry_equiv_pos_as_xyz
'x, y, z'
_cell_length_a     107.23979
_cell_length_b     27.423729
_cell_length_c     50.676238
_cell_angle_alpha  90.010007
_cell_angle_beta   89.985406
_cell_angle_gamma 89.944763
loop_
_atom_site_label
_atom_site_type_symbol
_atom_site_fract_x
_atom_site_fract_y
_atom_site_fract_z
_atom_type_partial_charge
In0 In 0.05198 0.1213 0.31388 0.0
O1 O 0.04998 0.17244 0.34919 0.0
O2 O 0.06081 0.1961 0.31644 0.0
C3 C 0.04552 0.03475 0.33454 0.0
C4 C 0.03188 0.15371 0.28732 0.0
C5 C 0.07542 0.09874 0.29981 0.0
O6 O 0.04786 0.07177 0.34852 0.0
O7 O 0.0462 0.04158 0.30987 0.0
O8 O 0.06742 0.11167 0.28277 0.0
O9 O 0.07141 0.09631 0.32319 0.0
C10 C 0.05639 0.20596 0.33882 0.0
O11 O 0.04211 0.14522 0.27572 0.0
O12 O 0.03173 0.1428 0.31145 0.0
In13 In 0.19252 0.12708 0.30593 0.0
O14 O 0.20123 0.10666 0.2661 0.0
O15 O 0.21317 0.12902 0.29727 0.0
C16 C 0.16783 0.11953 0.2983 0.0
C17 C 0.19502 0.04152 0.33092 0.0
C18 C 0.19452 0.2179 0.3255 0.0
O19 O 0.17505 0.13116 0.27951 0.0
O20 O 0.17308 0.11356 0.32033 0.0
O21 O 0.19888 0.18103 0.33726 0.0
O22 O 0.18934 0.20919 0.30361 0.0
C23 C 0.21229 0.11153 0.27436 0.0
O24 O 0.19564 0.08162 0.34324 0.0
O25 O 0.1931 0.04516 0.30648 0.0
In26 In 0.05591 0.13209 0.93559 0.0
O27 O 0.0575 0.08373 0.89908 0.0
O28 O 0.05932 0.05097 0.93703 0.0
C29 C 0.05081 0.21955 0.91422 0.0
C30 C 0.03456 0.10713 0.95969 0.0
C31 C 0.07979 0.14021 0.95091 0.0
O32 O 0.05145 0.18088 0.90077 0.0
O33 O 0.0527 0.21416 0.93869 0.0
O34 O 0.07104 0.13985 0.96773 0.0
O35 O 0.07629 0.13951 0.92718 0.0
C36 C 0.05934 0.04532 0.91235 0.0
O37 O 0.04447 0.11488 0.97262 0.0
O38 O 0.03539 0.11476 0.93523 0.0
In39 In 0.19291 0.1159 0.94285 0.0
O40 O 0.2052 0.13547 0.97836 0.0
O41 O 0.21276 0.14206 0.93968 0.0
C42 C 0.17023 0.09376 0.96203 0.0
C43 C 0.18656 0.19936 0.91863 0.0
C44 C 0.19928 0.03047 0.92084 0.0
O45 O 0.17853 0.1122 0.97667 0.0
O46 O 0.1736 0.08544 0.93864 0.0
O47 O 0.19677 0.06812 0.90749 0.0
O48 O 0.19888 0.03613 0.94564 0.0
C49 C 0.21428 0.14858 0.96407 0.0
O50 O 0.19013 0.16228 0.90591 0.0
O51 O 0.18596 0.19372 0.94324 0.0
In52 In 0.94137 0.86828 0.68994 0.0
O53 O 0.94473 0.82312 0.6528 0.0
O54 O 0.94317 0.78633 0.68975 0.0
C55 C 0.94167 0.95674 0.66677 0.0
C56 C 0.96237 0.85784 0.71832 0.0
C57 C 0.91742 0.8568 0.70473 0.0
O58 O 0.94205 0.91744 0.65384 0.0
O59 O 0.94114 0.95151 0.6915 0.0
O60 O 0.92518 0.87776 0.71969 0.0
O61 O 0.92169 0.84363 0.68274 0.0
C62 C 0.94487 0.78304 0.66518 0.0
O63 O 0.95168 0.85382 0.72863 0.0
O64 O 0.96234 0.87095 0.69449 0.0
In65 In 0.8039 0.87027 0.68436 0.0
O66 O 0.79171 0.88599 0.72043 0.0
O67 O 0.78428 0.90022 0.68222 0.0
C68 C 0.82629 0.84558 0.70423 0.0
C69 C 0.81078 0.95405 0.6609 0.0
C70 C 0.79684 0.78485 0.663 0.0
O71 O 0.81805 0.86573 0.71838 0.0
O72 O 0.82306 0.83726 0.68075 0.0
O73 O 0.79965 0.82161 0.64917 0.0
O74 O 0.79732 0.79157 0.68767 0.0
C75 C 0.78272 0.9023 0.70685 0.0
O76 O 0.80723 0.91745 0.64773 0.0
O77 O 0.81102 0.94779 0.68551 0.0
In78 In 0.94087 0.89414 0.05387 0.0
O79 O 0.93987 0.94025 0.09133 0.0
O80 O 0.94011 0.97619 0.05395 0.0
C81 C 0.94385 0.80841 0.07928 0.0
C82 C 0.96243 0.91607 0.02943 0.0
C83 C 0.91808 0.88784 0.03137 0.0
O84 O 0.94076 0.84709 0.09114 0.0
O85 O 0.94532 0.81302 0.05471 0.0
O86 O 0.92731 0.86485 0.02218 0.0
O87 O 0.92034 0.91266 0.05165 0.0
C88 C 0.93978 0.98016 0.07875 0.0
O89 O 0.95218 0.91409 0.01719 0.0
O90 O 0.96185 0.90401 0.05339 0.0
In91 In 0.80566 0.85825 0.05591 0.0
O92 O 0.79409 0.83927 0.01953 0.0
O93 O 0.78456 0.85273 0.05558 0.0
C94 C 0.8283 0.86226 0.03259 0.0
C95 C 0.80579 0.77201 0.08069 0.0
C96 C 0.80386 0.94358 0.08214 0.0
O97 O 0.81921 0.88697 0.02412 0.0
O98 O 0.82597 0.8367 0.05257 0.0
O99 O 0.80696 0.90433 0.09339 0.0
O100 O 0.80175 0.93974 0.05773 0.0
C101 C 0.78383 0.83966 0.03179 0.0
O102 O 0.80595 0.81186 0.09331 0.0
O103 O 0.80575 0.77613 0.05589 0.0
In104 In 0.05578 0.63224 0.80728 0.0
O105 O 0.05914 0.67733 0.84451 0.0
O106 O 0.06289 0.70991 0.80732 0.0
C107 C 0.04921 0.54768 0.82991 0.0
C108 C 0.03419 0.66406 0.7865 0.0
C109 C 0.07791 0.60752 0.78597 0.0
O110 O 0.05233 0.58493 0.84302 0.0
O111 O 0.04915 0.55332 0.8051 0.0
O112 O 0.06989 0.63116 0.77291 0.0
O113 O 0.07458 0.59582 0.80893 0.0
C114 C 0.06258 0.71478 0.83201 0.0
O115 O 0.04315 0.65023 0.77205 0.0
O116 O 0.03598 0.65921 0.81091 0.0
In117 In 0.1923 0.61538 0.81378 0.0
O118 O 0.19066 0.56665 0.85012 0.0
O119 O 0.18908 0.5344 0.81194 0.0
C120 C 0.19698 0.70256 0.83591 0.0
C121 C 0.2137 0.58789 0.79057 0.0
C122 C 0.16861 0.6227 0.79713 0.0
O123 O 0.19601 0.66378 0.84917 0.0
O124 O 0.19561 0.69743 0.81128 0.0
O125 O 0.17759 0.62887 0.78122 0.0
O126 O 0.17173 0.61609 0.82082 0.0
C127 C 0.18899 0.52838 0.8366 0.0
O128 O 0.20377 0.59401 0.77747 0.0
O129 O 0.21295 0.59922 0.81462 0.0
In130 In 0.05398 0.62209 0.44071 0.0
O131 O 0.04733 0.57179 0.47381 0.0
O132 O 0.03439 0.62244 0.45791 0.0
C133 C 0.07665 0.6439 0.46052 0.0
C134 C 0.05556 0.54615 0.40699 0.0
C135 C 0.04708 0.70733 0.41906 0.0
O136 O 0.06893 0.61853 0.47338 0.0
O137 O 0.07277 0.65881 0.43851 0.0
O138 O 0.04961 0.67001 0.40542 0.0
O139 O 0.04785 0.70143 0.44377 0.0
C140 C 0.0362 0.58672 0.47309 0.0
O141 O 0.04554 0.56857 0.41145 0.0
O142 O 0.06497 0.56371 0.41834 0.0
In143 In 0.19228 0.62764 0.44122 0.0
O144 O 0.20148 0.64744 0.48054 0.0
O145 O 0.21298 0.62106 0.44965 0.0
C146 C 0.16826 0.63612 0.45576 0.0
C147 C 0.19464 0.71267 0.41546 0.0
C148 C 0.19384 0.54013 0.41717 0.0
O149 O 0.17614 0.615 0.47048 0.0
O150 O 0.17249 0.65118 0.43403 0.0
O151 O 0.19915 0.57773 0.40829 0.0
O152 O 0.18782 0.54635 0.4383 0.0
C153 C 0.21242 0.63988 0.47228 0.0
O154 O 0.19298 0.67294 0.40327 0.0
O155 O 0.19498 0.70908 0.44022 0.0
In156 In 0.94417 0.39494 0.18862 0.0
O157 O 0.95466 0.37624 0.2267 0.0
O158 O 0.96479 0.37884 0.1906 0.0
C159 C 0.92002 0.40665 0.20132 0.0
C160 C 0.94154 0.3095 0.16333 0.0
C161 C 0.94891 0.48416 0.16913 0.0
O162 O 0.92811 0.39799 0.21892 0.0
O163 O 0.92425 0.41023 0.1782 0.0
O164 O 0.94889 0.44611 0.15506 0.0
O165 O 0.94693 0.47709 0.19345 0.0
C166 C 0.96493 0.36937 0.21494 0.0
O167 O 0.9446 0.34809 0.15134 0.0
O168 O 0.93971 0.31443 0.18773 0.0
In169 In 0.8035 0.35837 0.19247 0.0
O170 O 0.79365 0.37454 0.23171 0.0
O171 O 0.78269 0.36623 0.19697 0.0
C172 C 0.82817 0.35772 0.20179 0.0
C173 C 0.80335 0.44555 0.16851 0.0
C174 C 0.80026 0.26892 0.17182 0.0
O175 O 0.82043 0.35435 0.22062 0.0
O176 O 0.82336 0.35947 0.17912 0.0
O177 O 0.79896 0.30762 0.15859 0.0
O178 O 0.80294 0.27524 0.19589 0.0
C179 C 0.78296 0.37689 0.22116 0.0
O180 O 0.80133 0.40643 0.15599 0.0
O181 O 0.80541 0.44035 0.19283 0.0
In182 In 0.94245 0.37097 0.55388 0.0
O183 O 0.95289 0.38874 0.51579 0.0
O184 O 0.96346 0.36696 0.54927 0.0
C185 C 0.91842 0.38075 0.53925 0.0
C186 C 0.94553 0.45614 0.57896 0.0
C187 C 0.94283 0.28226 0.57663 0.0
O188 O 0.92635 0.36157 0.52393 0.0
O189 O 0.92261 0.39314 0.56145 0.0
O190 O 0.9434 0.32138 0.58969 0.0
O191 O 0.94215 0.28778 0.55192 0.0
C192 C 0.96356 0.38292 0.52594 0.0
O193 O 0.94562 0.41592 0.5912 0.0
O194 O 0.94381 0.45299 0.5544 0.0
In195 In 0.80473 0.36992 0.5595 0.0
O196 O 0.79248 0.35442 0.52341 0.0
O197 O 0.78523 0.33902 0.56162 0.0
C198 C 0.82713 0.3948 0.53971 0.0
C199 C 0.81163 0.28662 0.58348 0.0
C200 C 0.79745 0.4552 0.58077 0.0
O201 O 0.81908 0.37313 0.52577 0.0
O202 O 0.82372 0.40451 0.56291 0.0
O203 O 0.80042 0.41865 0.59463 0.0
O204 O 0.7979 0.44835 0.5561 0.0
C205 C 0.78359 0.33742 0.53702 0.0
O206 O 0.80793 0.32332 0.5964 0.0
O207 O 0.81205 0.29261 0.55886 0.0
In208 In 0.5519 0.12437 0.80741 0.0
O209 O 0.54203 0.13882 0.76818 0.0
O210 O 0.53096 0.12714 0.80243 0.0
C211 C 0.5762 0.13076 0.79462 0.0
C212 C 0.54992 0.21117 0.83148 0.0
C213 C 0.5504 0.03531 0.82973 0.0
O214 O 0.56824 0.116 0.77802 0.0
O215 O 0.57189 0.14033 0.81715 0.0
O216 O 0.5494 0.07432 0.84277 0.0
O217 O 0.55199 0.04111 0.80523 0.0
C218 C 0.53125 0.13841 0.77832 0.0
O219 O 0.54917 0.17147 0.84411 0.0
O220 O 0.55167 0.20673 0.80699 0.0
In221 In 0.69115 0.12225 0.80865 0.0
O222 O 0.69213 0.0733 0.84501 0.0
O223 O 0.68335 0.04528 0.81063 0.0
C224 C 0.69693 0.20955 0.8295 0.0
C225 C 0.71185 0.09408 0.78272 0.0
C226 C 0.66792 0.14341 0.79263 0.0
O227 O 0.69504 0.17204 0.8434 0.0
O228 O 0.69623 0.20281 0.80484 0.0
O229 O 0.67588 0.12572 0.77685 0.0
O230 O 0.67177 0.15044 0.81582 0.0
C231 C 0.6868 0.03765 0.83402 0.0
O232 O 0.70196 0.10538 0.77054 0.0
O233 O 0.71135 0.09958 0.80736 0.0
In234 In 0.55225 0.12486 0.43754 0.0
O235 O 0.54868 0.07938 0.40065 0.0
O236 O 0.55118 0.04266 0.43736 0.0
C237 C 0.55122 0.21328 0.41432 0.0
C238 C 0.53175 0.1124 0.46746 0.0
C239 C 0.57654 0.11478 0.45015 0.0
O240 O 0.55036 0.17386 0.40164 0.0
O241 O 0.55249 0.2083 0.43896 0.0
O242 O 0.56886 0.13293 0.46637 0.0
O243 O 0.572 0.10382 0.42804 0.0
C244 C 0.54912 0.03925 0.41292 0.0
O245 O 0.54262 0.11059 0.4771 0.0
O246 O 0.53132 0.12449 0.44348 0.0
In247 In 0.69117 0.11642 0.43866 0.0
O248 O 0.70307 0.13105 0.47544 0.0
O249 O 0.7108 0.14555 0.43752 0.0
C250 C 0.66821 0.09273 0.45568 0.0
C251 C 0.68484 0.20144 0.41595 0.0
C252 C 0.69845 0.03144 0.4171 0.0
O253 O 0.67622 0.11079 0.47117 0.0
O254 O 0.67197 0.08565 0.43243 0.0
O255 O 0.69609 0.06891 0.40343 0.0
O256 O 0.69737 0.03718 0.44177 0.0
C257 C 0.71219 0.14723 0.46221 0.0
O258 O 0.68839 0.16516 0.40248 0.0
O259 O 0.68437 0.19429 0.44048 0.0
In260 In 0.44064 0.87122 0.18544 0.0
O261 O 0.4532 0.85008 0.2202 0.0
O262 O 0.46032 0.8431 0.18112 0.0
C263 C 0.41836 0.89681 0.20545 0.0
C264 C 0.43323 0.78759 0.16269 0.0
C265 C 0.44765 0.9573 0.16488 0.0
O266 O 0.42673 0.87824 0.2199 0.0
O267 O 0.42142 0.90327 0.18169 0.0
O268 O 0.44476 0.92103 0.15072 0.0
O269 O 0.44724 0.94977 0.18951 0.0
C270 C 0.4621 0.83661 0.20545 0.0
O271 O 0.43683 0.82367 0.14914 0.0
O272 O 0.43321 0.7944 0.18726 0.0
In273 In 0.30309 0.87913 0.18877 0.0
O274 O 0.29255 0.89904 0.2265 0.0
O275 O 0.28202 0.88012 0.1925 0.0
C276 C 0.32711 0.88701 0.20383 0.0
C277 C 0.30097 0.96423 0.16331 0.0
C278 C 0.30204 0.79032 0.16615 0.0
O279 O 0.31906 0.86825 0.21901 0.0
O280 O 0.32306 0.89956 0.18155 0.0
O281 O 0.30186 0.82945 0.15307 0.0
O282 O 0.30265 0.79584 0.19089 0.0
C283 C 0.28193 0.89624 0.2158 0.0
O284 O 0.30062 0.92391 0.15117 0.0
O285 O 0.30251 0.96115 0.18793 0.0
In286 In 0.44134 0.87627 0.56299 0.0
O287 O 0.45284 0.89738 0.52664 0.0
O288 O 0.46087 0.90674 0.56475 0.0
C289 C 0.41877 0.84845 0.54555 0.0
C290 C 0.4341 0.95949 0.58641 0.0
C291 C 0.44934 0.79137 0.58334 0.0
O292 O 0.4267 0.86726 0.53011 0.0
O293 O 0.42241 0.84296 0.56901 0.0
O294 O 0.44652 0.82768 0.59754 0.0
O295 O 0.44841 0.79835 0.55873 0.0
C296 C 0.46197 0.91249 0.54018 0.0
O297 O 0.43817 0.92369 0.59957 0.0
O298 O 0.43351 0.95262 0.56187 0.0
In299 In 0.3027 0.86835 0.55767 0.0
O300 O 0.30069 0.82211 0.59508 0.0
O301 O 0.30125 0.78651 0.55773 0.0
C302 C 0.30108 0.95771 0.57943 0.0
C303 C 0.28246 0.85494 0.52717 0.0
C304 C 0.32705 0.86039 0.546 0.0
O305 O 0.29663 0.9202 0.59034 0.0
O306 O 0.30625 0.95039 0.55737 0.0
O307 O 0.3193 0.87601 0.52912 0.0
O308 O 0.3225 0.85059 0.56833 0.0
C309 C 0.30029 0.78238 0.5824 0.0
O310 O 0.2934 0.84886 0.51841 0.0
O311 O 0.28194 0.87278 0.55005 0.0
In312 In 0.55458 0.62763 0.30151 0.0
O313 O 0.54463 0.64437 0.26253 0.0
O314 O 0.53366 0.62556 0.29593 0.0
C315 C 0.57884 0.63598 0.28809 0.0
C316 C 0.5512 0.71289 0.32632 0.0
C317 C 0.55344 0.53974 0.32521 0.0
O318 O 0.5711 0.61604 0.27268 0.0
O319 O 0.57436 0.64994 0.30976 0.0
O320 O 0.55329 0.57939 0.33783 0.0
O321 O 0.55415 0.54426 0.30044 0.0
C322 C 0.53384 0.64002 0.27233 0.0
O323 O 0.551 0.67268 0.33855 0.0
O324 O 0.55323 0.70977 0.30185 0.0
In325 In 0.69239 0.6159 0.31421 0.0
O326 O 0.68872 0.5687 0.35066 0.0
O327 O 0.68473 0.53923 0.31278 0.0
C328 C 0.6995 0.70081 0.33601 0.0
C329 C 0.71367 0.58129 0.29314 0.0
C330 C 0.67025 0.64259 0.29375 0.0
O331 O 0.6965 0.66397 0.34958 0.0
O332 O 0.6992 0.69446 0.31128 0.0
O333 O 0.67854 0.62261 0.27965 0.0
O334 O 0.67331 0.64977 0.31744 0.0
C335 C 0.68495 0.53261 0.33736 0.0
O336 O 0.70476 0.5962 0.27888 0.0
O337 O 0.71203 0.58644 0.31761 0.0
In338 In 0.5544 0.62293 0.94473 0.0
O339 O 0.54394 0.6062 0.98301 0.0
O340 O 0.53335 0.62057 0.94842 0.0
C341 C 0.57808 0.61997 0.96267 0.0
C342 C 0.55249 0.5369 0.91993 0.0
C343 C 0.55292 0.71037 0.92046 0.0
O344 O 0.56961 0.64205 0.97524 0.0
O345 O 0.57462 0.60079 0.94136 0.0
O346 O 0.55419 0.6709 0.90794 0.0
O347 O 0.55239 0.70573 0.94522 0.0
C348 C 0.5333 0.60784 0.97232 0.0
O349 O 0.55231 0.57687 0.90744 0.0
O350 O 0.55379 0.54071 0.94459 0.0
In351 In 0.69092 0.62327 0.94021 0.0
O352 O 0.69966 0.68811 0.91992 0.0
O353 O 0.68098 0.67148 0.90954 0.0
C354 C 0.69455 0.53837 0.91443 0.0
C355 C 0.71059 0.64619 0.9709 0.0
C356 C 0.66911 0.61715 0.96694 0.0
O357 O 0.69097 0.57661 0.90275 0.0
O358 O 0.69626 0.54314 0.93893 0.0
O359 O 0.67418 0.65722 0.96129 0.0
O360 O 0.67529 0.58013 0.9601 0.0
C361 C 0.69012 0.70011 0.90704 0.0
O362 O 0.69951 0.65399 0.97818 0.0
O363 O 0.71158 0.62382 0.94929 0.0
In364 In 0.44081 0.37661 0.68453 0.0
O365 O 0.45256 0.35591 0.72054 0.0
O366 O 0.46028 0.34561 0.68219 0.0
C367 C 0.41841 0.40385 0.70326 0.0
C368 C 0.4335 0.29346 0.66115 0.0
C369 C 0.44871 0.46138 0.6639 0.0
O370 O 0.42652 0.38463 0.71811 0.0
O371 O 0.4218 0.41019 0.67969 0.0
O372 O 0.44566 0.42527 0.6498 0.0
O373 O 0.44802 0.45434 0.68854 0.0
C374 C 0.46157 0.34029 0.70675 0.0
O375 O 0.43742 0.32944 0.64794 0.0
O376 O 0.43307 0.30017 0.68571 0.0
In377 In 0.30282 0.36944 0.69332 0.0
O378 O 0.30081 0.41571 0.65595 0.0
O379 O 0.29993 0.45087 0.69337 0.0
C380 C 0.3018 0.28077 0.67043 0.0
C381 C 0.28309 0.37817 0.7258 0.0
C382 C 0.32706 0.38152 0.70495 0.0
O383 O 0.29618 0.31739 0.66117 0.0
O384 O 0.30783 0.28856 0.69138 0.0
O385 O 0.31958 0.36303 0.7215 0.0
O386 O 0.32233 0.39207 0.68289 0.0
C387 C 0.29952 0.45514 0.66864 0.0
O388 O 0.29413 0.38467 0.73376 0.0
O389 O 0.28225 0.36267 0.70247 0.0
In390 In 0.44137 0.37355 0.06228 0.0
O391 O 0.45413 0.39318 0.02766 0.0
O392 O 0.46078 0.40451 0.06676 0.0
C393 C 0.41967 0.34707 0.03993 0.0
C394 C 0.43334 0.45625 0.0853 0.0
C395 C 0.44836 0.28823 0.08391 0.0
O396 O 0.42807 0.36849 0.0268 0.0
O397 O 0.42242 0.33825 0.06363 0.0
O398 O 0.44488 0.32436 0.09758 0.0
O399 O 0.44858 0.29556 0.05925 0.0
C400 C 0.46275 0.4091 0.04237 0.0
O401 O 0.43726 0.4205 0.09871 0.0
O402 O 0.43327 0.44952 0.06074 0.0
In403 In 0.30492 0.37684 0.05235 0.0
O404 O 0.29461 0.36046 0.01385 0.0
O405 O 0.28393 0.37531 0.04828 0.0
C406 C 0.32897 0.36797 0.03777 0.0
C407 C 0.30234 0.29123 0.07712 0.0
C408 C 0.30375 0.46535 0.07536 0.0
O409 O 0.321 0.38649 0.02233 0.0
O410 O 0.32484 0.35625 0.06013 0.0
O411 O 0.30375 0.42607 0.0883 0.0
O412 O 0.30431 0.46014 0.05061 0.0
C413 C 0.28394 0.36196 0.02448 0.0
O414 O 0.30194 0.33133 0.08946 0.0
O415 O 0.30417 0.29469 0.05261 0.0
H416 H 0.08909 0.13264 0.25754 0.0
H417 H 0.15258 0.07537 0.33326 0.0
H418 H 0.09217 0.05001 0.32966 0.0
H419 H 0.15234 0.14386 0.2566 0.0
H420 H 0.13032 0.0624 0.32994 0.0
H421 H 0.112 0.13256 0.2539 0.0
C422 C 0.09457 0.11362 0.27224 0.0
C423 C 0.08878 0.09174 0.29408 0.0
C424 C 0.13505 0.08012 0.31368 0.0
C425 C 0.11479 0.09196 0.29025 0.0
C426 C 0.14781 0.08778 0.31565 0.0
C427 C 0.1543 0.11118 0.29528 0.0
C428 C 0.12858 0.09643 0.29129 0.0
C429 C 0.14763 0.12588 0.2728 0.0
C430 C 0.10762 0.11383 0.27025 0.0
C431 C 0.09626 0.06784 0.31267 0.0
N432 N 0.13506 0.1187 0.27148 0.0
N433 N 0.10884 0.06897 0.31044 0.0
H434 H 0.15334 0.03259 0.94066 0.0
H435 H 0.09148 0.14793 -0.00037 0.0
H436 H 0.15704 0.14537 -0.00053 0.0
H437 H 0.09837 0.11749 0.91729 0.0
H438 H 0.11369 0.12976 0.00898 0.0
H439 H 0.13074 0.04056 0.94319 0.0
C440 C 0.14937 0.05816 0.95464 0.0
C441 C 0.15702 0.08895 0.96955 0.0
C442 C 0.11021 0.12732 0.98896 0.0
C443 C 0.13122 0.09881 0.97216 0.0
C444 C 0.09763 0.1378 0.9836 0.0
C445 C 0.0931 0.13437 0.95764 0.0
C446 C 0.11801 0.11201 0.9683 0.0
C447 C 0.10142 0.12085 0.93758 0.0
C448 C 0.1365 0.06287 0.95596 0.0
C449 C 0.1514 0.12116 0.98757 0.0
N450 N 0.11338 0.10973 0.94338 0.0
N451 N 0.13874 0.12606 0.98804 0.0
H452 H 0.90297 0.78461 0.68572 0.0
H453 H 0.83956 0.89373 0.7426 0.0
H454 H 0.90221 0.90605 0.73978 0.0
H455 H 0.84241 0.77875 0.68487 0.0
H456 H 0.86227 0.8894 0.74924 0.0
H457 H 0.88081 0.77244 0.69272 0.0
C458 C 0.8981 0.80864 0.69923 0.0
C459 C 0.90434 0.84693 0.71184 0.0
C460 C 0.85786 0.86452 0.73553 0.0
C461 C 0.87881 0.83374 0.7197 0.0
C462 C 0.84492 0.86675 0.73187 0.0
C463 C 0.83919 0.83692 0.71293 0.0
C464 C 0.86498 0.832 0.72022 0.0
C465 C 0.84651 0.80281 0.69941 0.0
C466 C 0.88543 0.80162 0.70328 0.0
C467 C 0.89766 0.87635 0.72953 0.0
N468 N 0.85901 0.80162 0.70314 0.0
N469 N 0.88514 0.86971 0.73262 0.0
H470 H 0.90653 0.80903 0.009 0.0
H471 H 0.83982 0.94003 0.00912 0.0
H472 H 0.90081 0.95978 0.02995 0.0
H473 H 0.84554 0.78999 0.03152 0.0
H474 H 0.86221 0.94668 -0.00088 0.0
H475 H 0.88406 0.80176 -0.00033 0.0
C476 C 0.9006 0.84084 0.01089 0.0
C477 C 0.90539 0.88485 0.02056 0.0
C478 C 0.85846 0.91205 0.00562 0.0
C479 C 0.87999 0.87708 0.00969 0.0
C480 C 0.84573 0.90821 0.01121 0.0
C481 C 0.84096 0.86464 0.02149 0.0
C482 C 0.8663 0.87172 0.00987 0.0
C483 C 0.84896 0.82443 0.02398 0.0
C484 C 0.88783 0.83666 0.00569 0.0
C485 C 0.89737 0.92505 0.02285 0.0
N486 N 0.86128 0.82899 0.01839 0.0
N487 N 0.88503 0.92016 0.01763 0.0
H488 H 0.09292 0.53278 0.79972 0.0
H489 H 0.15622 0.66129 0.75379 0.0
H490 H 0.0923 0.66463 0.75341 0.0
H491 H 0.15131 0.56917 0.82201 0.0
H492 H 0.13384 0.65032 0.74325 0.0
H493 H 0.11554 0.53018 0.79562 0.0
C494 C 0.09757 0.56061 0.78815 0.0
C495 C 0.09082 0.59932 0.77721 0.0
C496 C 0.13778 0.63235 0.76035 0.0
C497 C 0.11673 0.59757 0.77315 0.0
C498 C 0.15047 0.63863 0.76636 0.0
C499 C 0.15551 0.61674 0.78902 0.0
C500 C 0.13035 0.60294 0.77677 0.0
C501 C 0.14776 0.58745 0.80462 0.0
C502 C 0.11047 0.55932 0.78594 0.0
C503 C 0.09725 0.63426 0.7622 0.0
N504 N 0.13563 0.58143 0.79819 0.0
N505 N 0.10995 0.63323 0.76106 0.0
H506 H 0.09081 0.58896 0.49471 0.0
H507 H 0.15296 0.70586 0.43676 0.0
H508 H 0.09233 0.71448 0.44357 0.0
H509 H 0.15364 0.58449 0.49085 0.0
H510 H 0.13078 0.71546 0.44463 0.0
H511 H 0.11363 0.59267 0.49948 0.0
C512 C 0.09591 0.61798 0.48505 0.0
C513 C 0.08975 0.65112 0.46845 0.0
C514 C 0.13571 0.68684 0.45501 0.0
C515 C 0.11568 0.6553 0.47356 0.0
C516 C 0.1484 0.68126 0.45044 0.0
C517 C 0.15508 0.64388 0.46289 0.0
C518 C 0.1295 0.6542 0.47183 0.0
C519 C 0.14876 0.61359 0.48075 0.0
C520 C 0.10892 0.61991 0.48764 0.0
C521 C 0.09675 0.68783 0.45627 0.0
N522 N 0.13623 0.61889 0.48441 0.0
N523 N 0.10932 0.6886 0.45886 0.0
H524 H 0.90255 0.4454 0.16932 0.0
H525 H 0.84221 0.35699 0.24782 0.0
H526 H 0.90665 0.37089 0.24381 0.0
H527 H 0.84507 0.37328 0.16328 0.0
H528 H 0.8648 0.37404 0.25135 0.0
H529 H 0.8801 0.43587 0.1724 0.0
C530 C 0.89869 0.42747 0.18654 0.0
C531 C 0.90646 0.40828 0.20616 0.0
C532 C 0.86039 0.37362 0.23213 0.0
C533 C 0.88068 0.39645 0.2096 0.0
C534 C 0.84757 0.36381 0.23009 0.0
C535 C 0.84176 0.36379 0.20523 0.0
C536 C 0.86724 0.38424 0.20919 0.0
C537 C 0.8491 0.37296 0.18287 0.0
C538 C 0.88587 0.4218 0.18822 0.0
C539 C 0.90094 0.386 0.22822 0.0
N540 N 0.86137 0.38309 0.18544 0.0
N541 N 0.88831 0.38009 0.22925 0.0
H542 H 0.90393 0.3352 0.50146 0.0
H543 H 0.84267 0.46519 0.55731 0.0
H544 H 0.90301 0.44669 0.56148 0.0
H545 H 0.84104 0.34342 0.5036 0.0
H546 H 0.86511 0.46955 0.55081 0.0
H547 H 0.88133 0.34665 0.49473 0.0
C548 C 0.89901 0.36244 0.51291 0.0
C549 C 0.90525 0.38949 0.53235 0.0
C550 C 0.85989 0.44215 0.54012 0.0
C551 C 0.87966 0.40307 0.52467 0.0
C552 C 0.84705 0.43985 0.54376 0.0
C553 C 0.84007 0.40357 0.53121 0.0
C554 C 0.86586 0.40722 0.52423 0.0
C555 C 0.84616 0.37187 0.51368 0.0
C556 C 0.88615 0.36894 0.50911 0.0
C557 C 0.89851 0.42444 0.54662 0.0
N558 N 0.8588 0.37377 0.51107 0.0
N559 N 0.88612 0.42998 0.54259 0.0
H560 H 0.65237 0.20878 0.81503 0.0
H561 H 0.59041 0.09219 0.7541 0.0
H562 H 0.65359 0.09686 0.75531 0.0
H563 H 0.59217 0.18776 0.82163 0.0
H564 H 0.61306 0.10308 0.74781 0.0
H565 H 0.62986 0.21319 0.81023 0.0
C566 C 0.64786 0.18554 0.80061 0.0
C567 C 0.65477 0.15199 0.78579 0.0
C568 C 0.60841 0.12193 0.76381 0.0
C569 C 0.6289 0.15574 0.78063 0.0
C570 C 0.59553 0.11573 0.76738 0.0
C571 C 0.5895 0.13853 0.78865 0.0
C572 C 0.61512 0.1516 0.78144 0.0
C573 C 0.59649 0.16884 0.80524 0.0
C574 C 0.63499 0.1879 0.79791 0.0
C575 C 0.64852 0.12311 0.76715 0.0
N576 N 0.60889 0.1743 0.80133 0.0
N577 N 0.63584 0.12497 0.7654 0.0
H578 H 0.65436 0.13915 0.49393 0.0
H579 H 0.59158 0.05132 0.42487 0.0
H580 H 0.65196 0.03118 0.43228 0.0
H581 H 0.5915 0.15466 0.48905 0.0
H582 H 0.61362 0.03711 0.4319 0.0
H583 H 0.63147 0.13846 0.49751 0.0
C584 C 0.64903 0.11441 0.48167 0.0
C585 C 0.65499 0.08554 0.46258 0.0
C586 C 0.60886 0.06277 0.44465 0.0
C587 C 0.62899 0.08496 0.46631 0.0
C588 C 0.59624 0.07107 0.44054 0.0
C589 C 0.58975 0.10476 0.45616 0.0
C590 C 0.61521 0.08892 0.46429 0.0
C591 C 0.59622 0.12863 0.47647 0.0
C592 C 0.63599 0.11428 0.48359 0.0
C593 C 0.64771 0.05442 0.44704 0.0
N594 N 0.60869 0.12077 0.47976 0.0
N595 N 0.63512 0.05533 0.44908 0.0
H596 H 0.34192 0.95753 0.18446 0.0
H597 H 0.40488 0.84814 0.24336 0.0
H598 H 0.34203 0.83772 0.23956 0.0
H599 H 0.40243 0.96435 0.18632 0.0
H600 H 0.3821 0.85221 0.24926 0.0
H601 H 0.36405 0.96902 0.1919 0.0
C602 C 0.34664 0.93367 0.19828 0.0
C603 C 0.34021 0.8961 0.21109 0.0
C604 C 0.3866 0.87746 0.23589 0.0
C605 C 0.36576 0.90853 0.21949 0.0
C606 C 0.39958 0.8754 0.23268 0.0
C607 C 0.40545 0.90567 0.21413 0.0
C608 C 0.37959 0.91022 0.22053 0.0
C609 C 0.39822 0.94002 0.2006 0.0
C610 C 0.35931 0.94032 0.2026 0.0
C611 C 0.34673 0.86689 0.22917 0.0
N612 N 0.38569 0.94103 0.20389 0.0
N613 N 0.35925 0.87315 0.23253 0.0
H614 H 0.34142 0.89684 0.50524 0.0
H615 H 0.40333 0.78288 0.56815 0.0
H616 H 0.34303 0.80515 0.57434 0.0
H617 H 0.40453 0.89244 0.50719 0.0
H618 H 0.38081 0.77818 0.56324 0.0
H619 H 0.36407 0.88546 0.49935 0.0
C620 C 0.34651 0.87406 0.51898 0.0
C621 C 0.34041 0.85245 0.54051 0.0
C622 C 0.38595 0.80292 0.55065 0.0
C623 C 0.36607 0.83881 0.53375 0.0
C624 C 0.39883 0.80539 0.55337 0.0
C625 C 0.40573 0.83846 0.53826 0.0
C626 C 0.37985 0.83444 0.53301 0.0
C627 C 0.39948 0.86651 0.51924 0.0
C628 C 0.35939 0.86757 0.51561 0.0
C629 C 0.34738 0.82311 0.55769 0.0
N630 N 0.38681 0.86455 0.51745 0.0
N631 N 0.35979 0.81733 0.55397 0.0
H632 H 0.65473 0.71287 0.31156 0.0
H633 H 0.59371 0.58812 0.25172 0.0
H634 H 0.65662 0.59364 0.25626 0.0
H635 H 0.59422 0.70159 0.31067 0.0
H636 H 0.61645 0.59761 0.24646 0.0
H637 H 0.6324 0.71891 0.30397 0.0
C638 C 0.65043 0.68846 0.29744 0.0
C639 C 0.65745 0.65245 0.28471 0.0
C640 C 0.61151 0.62077 0.26027 0.0
C641 C 0.63175 0.65793 0.27646 0.0
C642 C 0.59857 0.61539 0.26324 0.0
C643 C 0.59215 0.64357 0.28196 0.0
C644 C 0.61792 0.65487 0.27597 0.0
C645 C 0.59883 0.67849 0.29634 0.0
C646 C 0.63765 0.69171 0.29316 0.0
C647 C 0.65146 0.62191 0.26645 0.0
N648 N 0.61131 0.68289 0.29315 0.0
N649 N 0.63886 0.62467 0.26322 0.0
H650 H 0.65479 0.53554 0.97215 0.0
H651 H 0.59133 0.68402 0.99358 0.0
H652 H 0.65385 0.69158 0.98307 0.0
H653 H 0.5944 0.5476 0.95172 0.0
H654 H 0.61388 0.6805 0.00291 0.0
H655 H 0.63223 0.53291 0.97883 0.0
C656 C 0.64988 0.56912 0.97655 0.0
C657 C 0.65615 0.61396 0.97661 0.0
C658 C 0.60952 0.65107 0.99205 0.0
C659 C 0.63037 0.61119 0.9841 0.0
C660 C 0.59671 0.653 0.98681 0.0
C661 C 0.59111 0.61636 0.97159 0.0
C662 C 0.61661 0.61173 0.98243 0.0
C663 C 0.59843 0.57693 0.96321 0.0
C664 C 0.63701 0.56761 0.98022 0.0
C665 C 0.64933 0.65631 0.98253 0.0
N666 N 0.6108 0.57572 0.96866 0.0
N667 N 0.63675 0.65402 0.98571 0.0
H668 H 0.34196 0.34442 0.74461 0.0
H669 H 0.40244 0.46936 0.68211 0.0
H670 H 0.34225 0.44203 0.67786 0.0
H671 H 0.40479 0.35758 0.74172 0.0
H672 H 0.37994 0.47199 0.68792 0.0
H673 H 0.36448 0.35884 0.75037 0.0
C674 C 0.34673 0.36916 0.73138 0.0
C675 C 0.34031 0.3915 0.71049 0.0
C676 C 0.38533 0.44723 0.70004 0.0
C677 C 0.36583 0.40856 0.71709 0.0
C678 C 0.3982 0.44595 0.6968 0.0
C679 C 0.40542 0.41284 0.71124 0.0
C680 C 0.37957 0.41444 0.7175 0.0
C681 C 0.3995 0.38357 0.73018 0.0
C682 C 0.35954 0.37739 0.73466 0.0
C683 C 0.34687 0.42342 0.69396 0.0
N684 N 0.38683 0.38434 0.73245 0.0
N685 N 0.35923 0.43078 0.69756 0.0
H686 H 0.34366 0.41313 0.00017 0.0
H687 H 0.40397 0.27509 0.05468 0.0
H688 H 0.34395 0.29989 0.05923 0.0
H689 H 0.40644 0.40062 0.00377 0.0
H690 H 0.38159 0.27204 0.04705 0.0
H691 H 0.36617 0.39937 0.99303 0.0
C692 C 0.34843 0.38504 0.01133 0.0
C693 C 0.34206 0.3582 0.03065 0.0
C694 C 0.38699 0.29994 0.03717 0.0
C695 C 0.3675 0.34189 0.02244 0.0
C696 C 0.39979 0.30145 0.04143 0.0
C697 C 0.40697 0.33845 0.03007 0.0
C698 C 0.38126 0.33646 0.02194 0.0
C699 C 0.40115 0.37156 0.01291 0.0
C700 C 0.36122 0.37721 0.00727 0.0
C701 C 0.34857 0.32208 0.04451 0.0
N702 N 0.38853 0.37049 0.00978 0.0
N703 N 0.3609 0.31521 0.04023 0.0
H704 H 0.00902 0.17145 0.30852 0.0
H705 H 0.98784 0.35293 0.19338 0.0
H706 H 0.03128 0.20002 0.23929 0.0
H707 H 0.96617 0.32627 0.26366 0.0
H708 H 0.00408 0.29884 0.21025 0.0
H709 H 0.9931 0.22698 0.29191 0.0
C710 C 0.01048 0.18895 0.28961 0.0
C711 C 0.02149 0.18109 0.27523 0.0
C712 C 0.99583 0.3051 0.2221 0.0
C713 C 0.00336 0.24554 0.2563 0.0
C714 C 0.98659 0.33628 0.21259 0.0
C715 C 0.97563 0.34407 0.22715 0.0
C716 C 0.99408 0.28129 0.24633 0.0
C717 C 0.97448 0.32143 0.25184 0.0
C718 C 0.00142 0.22097 0.28023 0.0
C719 C 0.0229 0.20486 0.25092 0.0
N720 N 0.98356 0.29076 0.26056 0.0
N721 N 0.01396 0.23626 0.24227 0.0
H722 H 0.23667 0.1167 0.28908 0.0
H723 H 0.25826 0.8968 0.19586 0.0
H724 H 0.21229 0.04841 0.23235 0.0
H725 H 0.28056 0.95484 0.25937 0.0
H726 H 0.2414 0.95247 0.2081 0.0
H727 H 0.25337 0.06148 0.27579 0.0
C728 C 0.23491 0.09075 0.27339 0.0
C729 C 0.22306 0.0871 0.26183 0.0
C730 C 0.24992 0.95268 0.21953 0.0
C731 C 0.24207 0.02281 0.24698 0.0
C732 C 0.25951 0.92056 0.21274 0.0
C733 C 0.27083 0.92116 0.22664 0.0
C734 C 0.25171 0.98592 0.24026 0.0
C735 C 0.27197 0.95295 0.24819 0.0
C736 C 0.24441 0.05881 0.26604 0.0
C737 C 0.2213 0.05263 0.2417 0.0
N738 N 0.26258 0.98438 0.25417 0.0
N739 N 0.23068 0.02149 0.23507 0.0
H740 H 0.01218 0.09214 0.93582 0.0
H741 H 0.98502 0.92872 0.05321 0.0
H742 H 0.03171 0.06777 0.00909 0.0
H743 H 0.96534 0.95652 0.98047 0.0
H744 H 0.00248 0.97737 0.03699 0.0
H745 H 0.99487 0.04316 0.95215 0.0
C746 C 0.01275 0.07698 0.95552 0.0
C747 C 0.02339 0.08401 0.97115 0.0
C748 C 0.99439 0.97257 0.02449 0.0
C749 C 0.00368 0.02709 0.9898 0.0
C750 C 0.98445 0.94448 0.03365 0.0
C751 C 0.97372 0.93861 0.01814 0.0
C752 C 0.99357 0.99504 -0.00033 0.0
C753 C 0.97345 0.96003 0.99303 0.0
C754 C 0.00289 0.04873 0.96477 0.0
C755 C 0.02364 0.06342 0.99647 0.0
N756 N 0.98321 0.98753 0.98463 0.0
N757 N 0.01395 0.03558 0.00496 0.0
H758 H 0.21743 0.18878 0.01314 0.0
H759 H 0.28201 0.31802 0.97608 0.0
H760 H 0.23536 0.17341 0.93734 0.0
H761 H 0.2609 0.35103 0.04638 0.0
H762 H 0.26509 0.26479 0.96133 0.0
H763 H 0.23392 0.2453 0.0266 0.0
C764 C 0.22494 0.19669 -0.00049 0.0
C765 C 0.22505 0.17638 0.97413 0.0
C766 C 0.2641 0.28415 0.97984 0.0
C767 C 0.24378 0.24156 0.98912 0.0
C768 C 0.27371 0.3149 0.98813 0.0
C769 C 0.27288 0.33888 0.01251 0.0
C770 C 0.25366 0.27707 0.99617 0.0
C771 C 0.26194 0.3332 0.02745 0.0
C772 C 0.23427 0.22936 0.00706 0.0
C773 C 0.23493 0.18827 0.95712 0.0
N774 N 0.25282 0.30247 0.01918 0.0
N775 N 0.24388 0.22016 0.9649 0.0
H776 H 0.98579 0.85378 0.69753 0.0
H777 H 0.01303 0.68723 0.81338 0.0
H778 H 0.9647 0.81555 0.76705 0.0
H779 H 0.03044 0.70152 0.73701 0.0
H780 H 0.99597 0.73939 0.79842 0.0
H781 H 0.00336 0.80631 0.71424 0.0
C782 C 0.98494 0.83617 0.71658 0.0
C783 C 0.97375 0.83841 0.73089 0.0
C784 C 0.00348 0.7309 0.78487 0.0
C785 C 0.99374 0.7833 0.74987 0.0
C786 C 0.01318 0.70093 0.79333 0.0
C787 C 0.02313 0.68994 0.77634 0.0
C788 C 0.00378 0.75046 0.7593 0.0
C789 C 0.0229 0.70882 0.75065 0.0
C790 C 0.99493 0.80865 0.72596 0.0
C791 C 0.97316 0.81477 0.7554 0.0
N792 N 0.0134 0.73846 0.74295 0.0
N793 N 0.983 0.78786 0.76404 0.0
H794 H 0.71472 0.06759 0.73079 0.0
H795 H 0.77844 0.92342 0.75886 0.0
H796 H 0.73343 0.06532 0.80618 0.0
H797 H 0.76236 0.93851 0.68123 0.0
H798 H 0.76134 0.97221 0.77689 0.0
H799 H 0.73182 0.01919 0.71208 0.0
C800 C 0.7225 0.05744 0.74329 0.0
C801 C 0.72267 0.07044 0.77004 0.0
C802 C 0.76152 0.9647 0.75591 0.0
C803 C 0.74209 0.01453 0.74902 0.0
C804 C 0.77123 0.93655 0.74567 0.0
C805 C 0.77181 0.92695 0.71854 0.0
C806 C 0.75231 0.98327 0.73889 0.0
C807 C 0.76227 0.94509 0.70229 0.0
C808 C 0.73221 0.0296 0.73268 0.0
C809 C 0.73291 0.05608 0.78544 0.0
N810 N 0.75292 0.97248 0.7127 0.0
N811 N 0.74216 0.0287 0.77475 0.0
H812 H 0.71094 0.70736 0.01374 0.0
H813 H 0.78103 0.79159 0.98498 0.0
H814 H 0.73483 0.64106 0.95527 0.0
H815 H 0.76078 0.83556 0.05466 0.0
H816 H 0.76315 0.74253 0.9714 0.0
H817 H 0.7285 0.75802 0.02815 0.0
C818 C 0.71993 0.70282 0.00428 0.0
C819 C 0.72144 0.67002 0.98328 0.0
C820 C 0.76258 0.76316 0.98959 0.0
C821 C 0.74139 0.72856 -0.00089 0.0
C822 C 0.77273 0.79161 0.99718 0.0
C823 C 0.77239 0.81756 0.02099 0.0
C824 C 0.75199 0.76079 0.00588 0.0
C825 C 0.76143 0.81602 0.03614 0.0
C826 C 0.7299 0.73201 0.01235 0.0
C827 C 0.73324 0.66589 0.97155 0.0
N828 N 0.75167 0.78787 0.02839 0.0
N829 N 0.74273 0.69514 0.97946 0.0
H830 H 0.23639 0.57627 0.81398 0.0
H831 H 0.25877 0.37444 0.71036 0.0
H832 H 0.2155 0.53616 0.74454 0.0
H833 H 0.28268 0.43248 0.77119 0.0
H834 H 0.24188 0.42647 0.72616 0.0
H835 H 0.25295 0.52012 0.80065 0.0
C836 C 0.23538 0.55619 0.79569 0.0
C837 C 0.22458 0.56099 0.78027 0.0
C838 C 0.25077 0.42747 0.73625 0.0
C839 C 0.24334 0.49576 0.76528 0.0
C840 C 0.26038 0.39733 0.72744 0.0
C841 C 0.27218 0.39934 0.73939 0.0
C842 C 0.25295 0.45986 0.75719 0.0
C843 C 0.27374 0.42977 0.76141 0.0
C844 C 0.24479 0.52387 0.78821 0.0
C845 C 0.22372 0.53386 0.75689 0.0
N846 N 0.26426 0.45923 0.76945 0.0
N847 N 0.23293 0.50211 0.7502 0.0
H848 H 0.03734 0.5062 0.50508 0.0
H849 H 0.96534 0.443 0.48315 0.0
H850 H 0.01135 0.60089 0.46499 0.0
H851 H 0.98756 0.37344 0.54336 0.0
H852 H 0.98334 0.49283 0.47102 0.0
H853 H 0.02005 0.45139 0.51611 0.0
C854 C 0.02797 0.51588 0.49901 0.0
C855 C 0.02577 0.55824 0.48418 0.0
C856 C 0.98431 0.46629 0.48671 0.0
C857 C 0.00608 0.49511 0.49597 0.0
C858 C 0.97409 0.43737 0.49339 0.0
C859 C 0.97495 0.4042 0.51436 0.0
C860 C 0.99548 0.46176 0.50097 0.0
C861 C 0.9865 0.39872 0.52711 0.0
C862 C 0.01814 0.48441 0.50511 0.0
C863 C 0.01347 0.56877 0.47657 0.0
N864 N 0.99631 0.42747 0.52033 0.0
N865 N 0.00412 0.53719 0.48233 0.0
H866 H 0.23669 0.6326 0.45656 0.0
H867 H 0.25821 0.86187 0.54293 0.0
H868 H 0.21302 0.70456 0.5134 0.0
H869 H 0.28193 0.79012 0.4861 0.0
H870 H 0.24133 0.80621 0.53132 0.0
H871 H 0.25361 0.68814 0.46819 0.0
C872 C 0.23514 0.65937 0.47195 0.0
C873 C 0.22341 0.664 0.48401 0.0
C874 C 0.25018 0.80292 0.52116 0.0
C875 C 0.24263 0.72866 0.49686 0.0
C876 C 0.25978 0.8351 0.52755 0.0
C877 C 0.2715 0.83059 0.51547 0.0
C878 C 0.25232 0.76577 0.50264 0.0
C879 C 0.27303 0.79505 0.49581 0.0
C880 C 0.24476 0.69148 0.47834 0.0
C881 C 0.22191 0.69955 0.50367 0.0
N882 N 0.26358 0.76366 0.49019 0.0
N883 N 0.23137 0.73085 0.50929 0.0
H884 H 0.75958 0.38757 0.2011 0.0
H885 H 0.73463 0.55328 0.31964 0.0
H886 H 0.78162 0.4191 0.27027 0.0
H887 H 0.71707 0.54581 0.24315 0.0
H888 H 0.7512 0.49951 0.30367 0.0
H889 H 0.74281 0.43796 0.21877 0.0
C890 C 0.76082 0.40445 0.22026 0.0
C891 C 0.77204 0.39926 0.23421 0.0
C892 C 0.74377 0.50988 0.29033 0.0
C893 C 0.75291 0.45777 0.25436 0.0
C894 C 0.73434 0.54075 0.29937 0.0
C895 C 0.72448 0.55412 0.28264 0.0
C896 C 0.74327 0.49181 0.26445 0.0
C897 C 0.72453 0.53665 0.25665 0.0
C898 C 0.75127 0.43361 0.23021 0.0
C899 C 0.77311 0.42205 0.2589 0.0
N900 N 0.73374 0.50612 0.2484 0.0
N901 N 0.76368 0.45062 0.26814 0.0
H902 H 0.77875 0.3195 0.4848 0.0
H903 H 0.71662 0.16621 0.51457 0.0
H904 H 0.76372 0.29821 0.56296 0.0
H905 H 0.73247 0.18418 0.43689 0.0
H906 H 0.73386 0.21405 0.5329 0.0
H907 H 0.76154 0.27136 0.46675 0.0
C908 C 0.77176 0.30512 0.49811 0.0
C909 C 0.77265 0.31285 0.52538 0.0
C910 C 0.73359 0.20729 0.51186 0.0
C911 C 0.75304 0.25726 0.505 0.0
C912 C 0.7238 0.17975 0.50144 0.0
C913 C 0.72312 0.17124 0.4742 0.0
C914 C 0.74273 0.22647 0.49487 0.0
C915 C 0.73262 0.18989 0.45803 0.0
C916 C 0.76198 0.27739 0.48785 0.0
C917 C 0.76338 0.29314 0.54178 0.0
N918 N 0.74199 0.21676 0.46859 0.0
N919 N 0.75399 0.26614 0.53135 0.0
H920 H 0.46441 0.30628 0.7572 0.0
H921 H 0.52971 0.17574 0.72825 0.0
H922 H 0.48249 0.30948 0.68113 0.0
H923 H 0.50794 0.15094 0.79862 0.0
H924 H 0.51263 0.22493 0.71038 0.0
H925 H 0.48086 0.25206 0.77338 0.0
C926 C 0.47192 0.29605 0.74402 0.0
C927 C 0.47211 0.31245 0.71783 0.0
C928 C 0.51154 0.20823 0.7296 0.0
C929 C 0.49085 0.24999 0.73602 0.0
C930 C 0.52125 0.17983 0.7397 0.0
C931 C 0.52026 0.15938 0.76498 0.0
C932 C 0.50084 0.21653 0.74501 0.0
C933 C 0.50911 0.16612 0.77905 0.0
C934 C 0.48124 0.26473 0.75316 0.0
C935 C 0.482 0.2977 0.70149 0.0
N936 N 0.4999 0.19456 0.76901 0.0
N937 N 0.49097 0.26731 0.71085 0.0
H938 H 0.46452 0.9475 0.48983 0.0
H939 H 0.53043 0.07408 0.51734 0.0
H940 H 0.48317 0.94181 0.56522 0.0
H941 H 0.50826 0.10153 0.44785 0.0
H942 H 0.51333 0.02538 0.53545 0.0
H943 H 0.48101 0.00123 0.47339 0.0
C944 C 0.47216 0.95709 0.5028 0.0
C945 C 0.4725 0.94012 0.52888 0.0
C946 C 0.51215 0.04256 0.51638 0.0
C947 C 0.49129 0.00202 0.5104 0.0
C948 C 0.52187 0.07068 0.50614 0.0
C949 C 0.52077 0.09177 0.48104 0.0
C950 C 0.50132 0.03514 0.50127 0.0
C951 C 0.50951 0.08588 0.46728 0.0
C952 C 0.48151 0.98812 0.49352 0.0
C953 C 0.48255 0.95404 0.54495 0.0
N954 N 0.50028 0.05769 0.47744 0.0
N955 N 0.49154 0.98416 0.53546 0.0
H956 H 0.48325 0.81394 0.17822 0.0
H957 H 0.51022 0.6421 0.2921 0.0
H958 H 0.46582 0.79674 0.25439 0.0
H959 H 0.5319 0.68597 0.2244 0.0
H960 H 0.4927 0.69001 0.27556 0.0
H961 H 0.50034 0.76135 0.19269 0.0
C962 C 0.48309 0.79948 0.19811 0.0
C963 C 0.47313 0.80985 0.2152 0.0
C964 C 0.50125 0.68884 0.26419 0.0
C965 C 0.49253 0.74884 0.23166 0.0
C966 C 0.51122 0.66107 0.27347 0.0
C967 C 0.52256 0.6602 0.25964 0.0
C968 C 0.50259 0.71584 0.24085 0.0
C969 C 0.52333 0.68562 0.23567 0.0
C970 C 0.49282 0.76929 0.20629 0.0
C971 C 0.47336 0.78996 0.24067 0.0
N972 N 0.51349 0.71271 0.22711 0.0
N973 N 0.48287 0.76013 0.24809 0.0
H974 H 0.48316 0.4392 0.06994 0.0
H975 H 0.51015 0.59816 0.95075 0.0
H976 H 0.46673 0.44287 0.99224 0.0
H977 H 0.53101 0.56853 0.0218 0.0
H978 H 0.49287 0.54996 0.9681 0.0
H979 H 0.49988 0.49248 0.05438 0.0
C980 C 0.48315 0.45083 0.04952 0.0
C981 C 0.47359 0.43645 0.0323 0.0
C982 C 0.50119 0.55431 0.98 0.0
C983 C 0.49254 0.49816 0.01453 0.0
C984 C 0.51101 0.58223 0.97023 0.0
C985 C 0.52206 0.58716 0.98483 0.0
C986 C 0.50239 0.53127 0.00459 0.0
C987 C 0.52266 0.56561 0.0099 0.0
C988 C 0.49266 0.48141 0.0407 0.0
C989 C 0.47398 0.45281 0.0061 0.0
N990 N 0.51298 0.53831 0.01894 0.0
N991 N 0.48327 0.48305 0.99805 0.0
H992 H 0.03581 0.48807 0.39534 0.0
H993 H 0.07399 0.27474 0.32808 0.0
H994 H 0.0759 0.49588 0.3889 0.0
H995 H 0.04101 0.24872 0.37479 0.0
H996 H 0.07412 0.35968 0.34335 0.0
H997 H 0.03655 0.4041 0.37925 0.0
C998 C 0.04475 0.47238 0.39008 0.0
C999 C 0.05582 0.49876 0.39345 0.0
C1000 C 0.06694 0.33514 0.35038 0.0
C1001 C 0.0567 0.40302 0.37526 0.0
C1002 C 0.06686 0.28686 0.34176 0.0
C1003 C 0.05749 0.25492 0.35031 0.0
C1004 C 0.0574 0.35159 0.36706 0.0
C1005 C 0.04844 0.27221 0.36793 0.0
C1006 C 0.04516 0.42439 0.38121 0.0
C1007 C 0.06716 0.4766 0.38657 0.0
N1008 N 0.04852 0.31969 0.37548 0.0
N1009 N 0.06732 0.42982 0.37772 0.0
H1010 H 0.19324 0.73255 0.36257 0.0
H1011 H 0.19843 0.0215 0.38344 0.0
H1012 H 0.1985 0.80092 0.43848 0.0
H1013 H 0.19398 0.95257 0.30743 0.0
H1014 H 0.1993 0.9407 0.40396 0.0
H1015 H 0.1943 0.81294 0.34171 0.0
C1016 C 0.19467 0.76447 0.3748 0.0
C1017 C 0.19572 0.76023 0.40224 0.0
C1018 C 0.19818 0.94331 0.38278 0.0
C1019 C 0.19692 0.85204 0.37868 0.0
C1020 C 0.19768 0.98937 0.3711 0.0
C1021 C 0.19607 0.9936 0.34378 0.0
C1022 C 0.19702 0.90141 0.36696 0.0
C1023 C 0.19518 0.95091 0.32863 0.0
C1024 C 0.19527 0.81031 0.36293 0.0
C1025 C 0.19758 0.80264 0.41723 0.0
N1026 N 0.19562 0.9066 0.34043 0.0
N1027 N 0.19808 0.84681 0.40526 0.0
H1028 H 0.06147 0.02323 0.85987 0.0
H1029 H 0.06203 0.73604 0.88472 0.0
H1030 H 0.06187 0.95815 0.93742 0.0
H1031 H 0.06767 0.80148 0.80819 0.0
H1032 H 0.06283 0.81715 0.9047 0.0
H1033 H 0.06431 0.94221 0.84052 0.0
C1034 C 0.06218 0.99188 0.87279 0.0
C1035 C 0.06135 0.99722 0.90022 0.0
C1036 C 0.06403 0.81372 0.88356 0.0
C1037 C 0.06459 0.90473 0.87836 0.0
C1038 C 0.06359 0.76745 0.87219 0.0
C1039 C 0.06469 0.76222 0.84479 0.0
C1040 C 0.06544 0.85491 0.86734 0.0
C1041 C 0.06672 0.804 0.82942 0.0
C1042 C 0.06385 0.94572 0.86178 0.0
C1043 C 0.0624 0.95556 0.91613 0.0
N1044 N 0.0669 0.84869 0.84088 0.0
N1045 N 0.06389 0.911 0.90495 0.0
H1046 H 0.18651 0.44197 0.81084 0.0
H1047 H 0.18079 0.28498 0.94297 0.0
H1048 H 0.18703 0.50477 0.88895 0.0
H1049 H 0.1877 0.22236 0.86618 0.0
H1050 H 0.17978 0.36573 0.92283 0.0
H1051 H 0.18391 0.36133 0.83032 0.0
C1052 C 0.18604 0.43877 0.83213 0.0
C1053 C 0.18708 0.47997 0.84837 0.0
C1054 C 0.18143 0.3343 0.91037 0.0
C1055 C 0.18407 0.38788 0.87074 0.0
C1056 C 0.18195 0.2882 0.92181 0.0
C1057 C 0.18444 0.24708 0.90619 0.0
C1058 C 0.18337 0.33923 0.88313 0.0
C1059 C 0.18584 0.25322 0.87891 0.0
C1060 C 0.18456 0.39273 0.84321 0.0
C1061 C 0.18635 0.47382 0.87577 0.0
N1062 N 0.18536 0.29858 0.86824 0.0
N1063 N 0.18492 0.42849 0.88613 0.0
H1064 H 0.94728 0.76449 0.61236 0.0
H1065 H 0.94772 0.47461 0.63186 0.0
H1066 H 0.9461 0.69365 0.68838 0.0
H1067 H 0.94653 0.54561 0.55589 0.0
H1068 H 0.94896 0.55468 0.65304 0.0
H1069 H 0.94884 0.68446 0.59125 0.0
C1070 C 0.94741 0.73209 0.62458 0.0
C1071 C 0.94647 0.73555 0.65209 0.0
C1072 C 0.94848 0.5527 0.63173 0.0
C1073 C 0.94823 0.64413 0.62821 0.0
C1074 C 0.94779 0.50705 0.61967 0.0
C1075 C 0.94693 0.50362 0.59214 0.0
C1076 C 0.94833 0.59506 0.6161 0.0
C1077 C 0.94709 0.54669 0.57721 0.0
C1078 C 0.9483 0.68645 0.61256 0.0
C1079 C 0.94673 0.69253 0.66706 0.0
N1080 N 0.94772 0.59065 0.58939 0.0
N1081 N 0.94753 0.64856 0.65492 0.0
H1082 H 0.81178 0.97767 0.60841 0.0
H1083 H 0.81188 0.26319 0.63604 0.0
H1084 H 0.81578 0.03927 0.68633 0.0
H1085 H 0.81701 0.2013 0.55848 0.0
H1086 H 0.8139 0.1815 0.65507 0.0
H1087 H 0.81426 0.0593 0.58958 0.0
C1088 C 0.8133 0.00831 0.62151 0.0
C1089 C 0.81348 0.00185 0.64893 0.0
C1090 C 0.81472 0.1859 0.63391 0.0
C1091 C 0.81619 0.09515 0.62766 0.0
C1092 C 0.81357 0.23248 0.62307 0.0
C1093 C 0.81419 0.23887 0.59567 0.0
C1094 C 0.81636 0.14551 0.61716 0.0
C1095 C 0.81641 0.19792 0.57972 0.0
C1096 C 0.81473 0.05486 0.61079 0.0
C1097 C 0.81552 0.0427 0.66505 0.0
N1098 N 0.81728 0.1529 0.59068 0.0
N1099 N 0.81666 0.08771 0.65419 0.0
H1100 H 0.94435 0.28865 0.11086 0.0
H1101 H 0.93793 0.00032 0.13157 0.0
H1102 H 0.93668 0.22171 0.18621 0.0
H1103 H 0.94094 0.06918 0.05525 0.0
H1104 H 0.93781 0.08107 0.15223 0.0
H1105 H 0.94345 0.20817 0.09013 0.0
C1106 C 0.94243 0.25702 0.12299 0.0
C1107 C 0.94059 0.26173 0.15024 0.0
C1108 C 0.93846 0.07846 0.13096 0.0
C1109 C 0.93961 0.16973 0.1268 0.0
C1110 C 0.93854 0.03243 0.1192 0.0
C1111 C 0.93945 0.02818 0.09171 0.0
C1112 C 0.93936 0.12035 0.11507 0.0
C1113 C 0.94022 0.07086 0.07654 0.0
C1114 C 0.94191 0.21112 0.11119 0.0
C1115 C 0.93815 0.21964 0.1651 0.0
N1116 N 0.94019 0.11516 0.08843 0.0
N1117 N 0.93777 0.17535 0.1532 0.0
H1118 H 0.80655 0.53377 0.19223 0.0
H1119 H 0.80409 0.68326 0.057 0.0
H1120 H 0.8005 0.46714 0.11613 0.0
H1121 H 0.80671 0.75148 0.13357 0.0
H1122 H 0.80332 0.60365 0.0783 0.0
H1123 H 0.80711 0.61367 0.17109 0.0
C1124 C 0.80532 0.536 0.17104 0.0
C1125 C 0.80348 0.49385 0.15586 0.0
C1126 C 0.80406 0.63597 0.09048 0.0
C1127 C 0.80415 0.58511 0.13156 0.0
C1128 C 0.80453 0.68144 0.07834 0.0
C1129 C 0.80548 0.72396 0.09359 0.0
C1130 C 0.80459 0.63293 0.11809 0.0
C1131 C 0.80598 0.71953 0.12111 0.0
C1132 C 0.80564 0.58163 0.15901 0.0
C1133 C 0.80194 0.49878 0.12854 0.0
N1134 N 0.80554 0.67472 0.13251 0.0
N1135 N 0.80233 0.54366 0.11723 0.0
H1136 H 0.5502 0.30017 0.80764 0.0
H1137 H 0.55129 0.44789 0.94352 0.0
H1138 H 0.54813 0.23175 0.88421 0.0
H1139 H 0.55098 0.51706 0.86703 0.0
H1140 H 0.54974 0.36851 0.9221 0.0
H1141 H 0.55002 0.37997 0.82895 0.0
C1142 C 0.54966 0.30198 0.82897 0.0
C1143 C 0.54923 0.25935 0.84423 0.0
C1144 C 0.54998 0.40099 0.90997 0.0
C1145 C 0.54908 0.35052 0.86874 0.0
C1146 C 0.55089 0.44634 0.92218 0.0
C1147 C 0.55132 0.48904 0.90698 0.0
C1148 C 0.54955 0.39827 0.88233 0.0
C1149 C 0.5507 0.48496 0.87945 0.0
C1150 C 0.54956 0.34755 0.84111 0.0
C1151 C 0.5485 0.26376 0.87174 0.0
N1152 N 0.54989 0.44028 0.86797 0.0
N1153 N 0.5485 0.3086 0.88314 0.0
H1154 H 0.67108 0.73615 0.87623 0.0
H1155 H 0.6987 0.00549 0.87821 0.0
H1156 H 0.70724 0.77275 0.908 0.0
H1157 H 0.67309 0.9594 0.81746 0.0
H1158 H 0.69913 0.9221 0.89521 0.0
H1159 H 0.66934 0.81964 0.85876 0.0
C1160 C 0.67869 0.76151 0.87926 0.0
C1161 C 0.68932 0.74759 0.89351 0.0
C1162 C 0.69337 0.93034 0.87823 0.0
C1163 C 0.68725 0.8427 0.87439 0.0
C1164 C 0.69304 0.97794 0.86868 0.0
C1165 C 0.6859 0.98916 0.84635 0.0
C1166 C 0.6864 0.89389 0.86556 0.0
C1167 C 0.67877 0.95205 0.83467 0.0
C1168 C 0.67767 0.80902 0.86941 0.0
C1169 C 0.69888 0.78186 0.89705 0.0
N1170 N 0.67919 0.90589 0.84442 0.0
N1171 N 0.69756 0.82792 0.8878 0.0
H1172 H 0.54839 0.7309 0.37909 0.0
H1173 H 0.54656 0.02078 0.36015 0.0
H1174 H 0.55008 0.80247 0.30332 0.0
H1175 H 0.54881 0.94962 0.43597 0.0
H1176 H 0.5457 0.94074 0.33889 0.0
H1177 H 0.54644 0.81068 0.40034 0.0
C1178 C 0.5483 0.76341 0.36695 0.0
C1179 C 0.54949 0.76024 0.33947 0.0
C1180 C 0.54633 0.94267 0.36019 0.0
C1181 C 0.54726 0.85134 0.36352 0.0
C1182 C 0.5468 0.9883 0.3723 0.0
C1183 C 0.54785 0.99168 0.39979 0.0
C1184 C 0.54689 0.90028 0.37573 0.0
C1185 C 0.54808 0.94856 0.41467 0.0
C1186 C 0.54719 0.80889 0.37905 0.0
C1187 C 0.54927 0.80337 0.32461 0.0
N1188 N 0.54766 0.9046 0.40243 0.0
N1189 N 0.54822 0.84719 0.33683 0.0
H1190 H 0.67959 0.28571 0.44211 0.0
H1191 H 0.67903 0.44871 0.31156 0.0
H1192 H 0.68437 0.22705 0.3637 0.0
H1193 H 0.68462 0.50748 0.38968 0.0
H1194 H 0.67676 0.36746 0.33062 0.0
H1195 H 0.67729 0.36712 0.42322 0.0
C1196 C 0.68003 0.28991 0.42087 0.0
C1197 C 0.68229 0.2497 0.40441 0.0
C1198 C 0.67838 0.39819 0.34361 0.0
C1199 C 0.67965 0.34266 0.38275 0.0
C1200 C 0.67963 0.44459 0.33278 0.0
C1201 C 0.68213 0.48475 0.34909 0.0
C1202 C 0.67958 0.39195 0.37095 0.0
C1203 C 0.68278 0.47738 0.37642 0.0
C1204 C 0.67875 0.33639 0.41014 0.0
C1205 C 0.68273 0.25717 0.37707 0.0
N1206 N 0.68159 0.43172 0.38651 0.0
N1207 N 0.68148 0.30289 0.36707 0.0
H1208 H 0.42698 0.53936 0.0592 0.0
H1209 H 0.42746 0.70417 0.18905 0.0
H1210 H 0.4328 0.48203 0.13756 0.0
H1211 H 0.4324 0.76167 0.11046 0.0
H1212 H 0.42489 0.62271 0.17044 0.0
H1213 H 0.42441 0.62077 0.07793 0.0
C1214 C 0.42756 0.54381 0.08041 0.0
C1215 C 0.43024 0.50402 0.09688 0.0
C1216 C 0.42643 0.6532 0.15726 0.0
C1217 C 0.42733 0.59703 0.11834 0.0
C1218 C 0.42786 0.69973 0.16783 0.0
C1219 C 0.43028 0.7396 0.15124 0.0
C1220 C 0.42736 0.64653 0.1299 0.0
C1221 C 0.43065 0.73181 0.12392 0.0
C1222 C 0.42614 0.59032 0.09104 0.0
C1223 C 0.43084 0.51182 0.12418 0.0
N1224 N 0.42928 0.68602 0.11408 0.0
N1225 N 0.42948 0.55758 0.13407 0.0
H1226 H 0.29937 0.98262 0.11031 0.0
H1227 H 0.2997 0.27252 0.12984 0.0
H1228 H 0.30031 0.05376 0.18628 0.0
H1229 H 0.30195 0.20178 0.05388 0.0
H1230 H 0.29823 0.19243 0.15085 0.0
H1231 H 0.29861 0.06274 0.08904 0.0
C1232 C 0.29937 0.0151 0.12247 0.0
C1233 C 0.29999 0.01172 0.15002 0.0
C1234 C 0.29901 0.19445 0.12958 0.0
C1235 C 0.29913 0.10312 0.126 0.0
C1236 C 0.29984 0.24012 0.11762 0.0
C1237 C 0.30102 0.24362 0.09016 0.0
C1238 C 0.29935 0.15216 0.11392 0.0
C1239 C 0.30112 0.20061 0.07517 0.0
C1240 C 0.29895 0.06076 0.11037 0.0
C1241 C 0.29992 0.05481 0.16493 0.0
N1242 N 0.30033 0.15661 0.08726 0.0
N1243 N 0.29954 0.09876 0.15272 0.0
H1244 H 0.433 0.26854 0.6088 0.0
H1245 H 0.43372 0.98449 0.63875 0.0
H1246 H 0.42794 0.20928 0.68698 0.0
H1247 H 0.42817 0.04338 0.56064 0.0
H1248 H 0.43116 0.06655 0.65703 0.0
H1249 H 0.43076 0.18634 0.59055 0.0
C1250 C 0.43128 0.23831 0.62206 0.0
C1251 C 0.43076 0.24555 0.6494 0.0
C1252 C 0.43035 0.06138 0.63591 0.0
C1253 C 0.42834 0.15167 0.62882 0.0
C1254 C 0.43183 0.01461 0.62551 0.0
C1255 C 0.43125 0.00732 0.59818 0.0
C1256 C 0.42846 0.10104 0.61879 0.0
C1257 C 0.42875 0.04749 0.58186 0.0
C1258 C 0.42999 0.19145 0.61167 0.0
C1259 C 0.42847 0.20522 0.66575 0.0
N1260 N 0.42759 0.09275 0.59239 0.0
N1261 N 0.4275 0.1599 0.65524 0.0
H1262 H 0.2966 0.54305 0.69275 0.0
H1263 H 0.29898 0.69417 0.55812 0.0
H1264 H 0.2996 0.47645 0.61582 0.0
H1265 H 0.29877 0.76119 0.63519 0.0
H1266 H 0.29761 0.61421 0.57883 0.0
H1267 H 0.29572 0.6231 0.67191 0.0
C1268 C 0.29702 0.54529 0.67142 0.0
C1269 C 0.29825 0.50313 0.65594 0.0
C1270 C 0.29783 0.64633 0.59125 0.0
C1271 C 0.29728 0.59466 0.63199 0.0
C1272 C 0.29862 0.69203 0.57945 0.0
C1273 C 0.29906 0.7343 0.59502 0.0
C1274 C 0.2975 0.64281 0.61885 0.0
C1275 C 0.2985 0.72944 0.62251 0.0
C1276 C 0.29653 0.59102 0.65955 0.0
C1277 C 0.29869 0.5081 0.62845 0.0
N1278 N 0.29779 0.6844 0.63359 0.0
N1279 N 0.29826 0.55314 0.61733 0.0
H1280 H 0.04274 0.79433 0.44385 0.0
H1281 H 0.04259 0.94722 0.30924 0.0
H1282 H 0.04522 0.72889 0.36657 0.0
H1283 H 0.04315 0.01238 0.38675 0.0
H1284 H 0.0408 0.86668 0.32972 0.0
H1285 H 0.04014 0.8742 0.42312 0.0
C1286 C 0.04262 0.79673 0.42251 0.0
C1287 C 0.0443 0.75503 0.4069 0.0
C1288 C 0.04121 0.89864 0.34224 0.0
C1289 C 0.04139 0.84625 0.38303 0.0
C1290 C 0.0422 0.9446 0.33056 0.0
C1291 C 0.04312 0.98645 0.34634 0.0
C1292 C 0.04114 0.89458 0.36989 0.0
C1293 C 0.04255 0.98101 0.37384 0.0
C1294 C 0.04115 0.84233 0.41068 0.0
C1295 C 0.04403 0.76019 0.37935 0.0
N1296 N 0.04168 0.93591 0.38475 0.0
N1297 N 0.0427 0.80502 0.36829 0.0
H1298 H 0.21332 0.50207 0.38936 0.0
H1299 H 0.17709 0.2896 0.32088 0.0
H1300 H 0.17559 0.47151 0.41367 0.0
H1301 H 0.2125 0.25698 0.35716 0.0
H1302 H 0.17701 0.3691 0.34341 0.0
H1303 H 0.2139 0.42312 0.36617 0.0
C1304 C 0.20517 0.47876 0.38971 0.0
C1305 C 0.19441 0.49286 0.40347 0.0
C1306 C 0.1848 0.34449 0.3462 0.0
C1307 C 0.1949 0.40424 0.37656 0.0
C1308 C 0.18491 0.29951 0.3333 0.0
C1309 C 0.19481 0.26695 0.33729 0.0
C1310 C 0.19486 0.35737 0.36242 0.0
C1311 C 0.20468 0.28117 0.35373 0.0
C1312 C 0.20553 0.43396 0.37661 0.0
C1313 C 0.18408 0.46156 0.40343 0.0
N1314 N 0.20453 0.3257 0.36556 0.0
N1315 N 0.18451 0.41884 0.38984 0.0
H1316 H 0.04831 0.52822 0.88264 0.0
H1317 H 0.0464 0.23933 0.86226 0.0
H1318 H 0.04508 0.45914 0.80644 0.0
H1319 H 0.04999 0.30889 0.93827 0.0
H1320 H 0.04393 0.31941 0.84181 0.0
H1321 H 0.04683 0.44838 0.90366 0.0
C1322 C 0.04716 0.49624 0.87033 0.0
C1323 C 0.04691 0.50022 0.84274 0.0
C1324 C 0.04518 0.31719 0.86298 0.0
C1325 C 0.04532 0.40861 0.86667 0.0
C1326 C 0.04659 0.27148 0.87467 0.0
C1327 C 0.0485 0.26754 0.90198 0.0
C1328 C 0.04571 0.35932 0.8787 0.0
C1329 C 0.0486 0.31033 0.91712 0.0
C1330 C 0.04634 0.45063 0.88235 0.0
C1331 C 0.04536 0.45764 0.82777 0.0
N1332 N 0.04731 0.35448 0.90525 0.0
N1333 N 0.04473 0.41352 0.83993 0.0
H1334 H 0.20098 0.01091 0.86822 0.0
H1335 H 0.20036 0.72178 0.88829 0.0
H1336 H 0.20218 0.94135 0.94455 0.0
H1337 H 0.19861 0.79198 0.81217 0.0
H1338 H 0.20288 0.80154 0.90909 0.0
H1339 H 0.20212 0.93094 0.84724 0.0
C1340 C 0.20161 0.97878 0.88058 0.0
C1341 C 0.2014 0.98271 0.90818 0.0
C1342 C 0.20201 0.79953 0.88783 0.0
C1343 C 0.20259 0.89094 0.88428 0.0
C1344 C 0.20057 0.754 0.87593 0.0
C1345 C 0.19918 0.75034 0.84847 0.0
C1346 C 0.20205 0.84175 0.87215 0.0
C1347 C 0.19958 0.79321 0.83342 0.0
C1348 C 0.20224 0.9331 0.86858 0.0
C1349 C 0.20228 0.93991 0.92321 0.0
N1350 N 0.20091 0.83717 0.84548 0.0
N1351 N 0.20274 0.89574 0.91105 0.0
H1352 H 0.94201 0.19246 0.55307 0.0
H1353 H 0.94155 0.04664 0.69017 0.0
H1354 H 0.94352 0.26214 0.62937 0.0
H1355 H 0.94219 0.97651 0.61395 0.0
H1356 H 0.94189 0.12605 0.66822 0.0
H1357 H 0.94173 0.11292 0.57495 0.0
C1358 C 0.9423 0.19099 0.57443 0.0
C1359 C 0.9428 0.2339 0.58944 0.0
C1360 C 0.94197 0.09331 0.65629 0.0
C1361 C 0.94245 0.14316 0.61461 0.0
C1362 C 0.94176 0.04798 0.66881 0.0
C1363 C 0.94185 0.00498 0.65385 0.0
C1364 C 0.94224 0.09563 0.62858 0.0
C1365 C 0.94212 0.0088 0.62624 0.0
C1366 C 0.94214 0.14561 0.58691 0.0
C1367 C 0.94314 0.22993 0.61704 0.0
N1368 N 0.9423 0.05332 0.61449 0.0
N1369 N 0.94295 0.18538 0.62873 0.0
H1370 H 0.79308 0.54143 0.55522 0.0
H1371 H 0.79275 0.69842 0.68851 0.0
H1372 H 0.7957 0.47862 0.63309 0.0
H1373 H 0.79518 0.76144 0.61066 0.0
H1374 H 0.79068 0.61764 0.66852 0.0
H1375 H 0.79071 0.62213 0.57519 0.0
C1376 C 0.79302 0.54456 0.57653 0.0
C1377 C 0.79469 0.50333 0.59253 0.0
C1378 C 0.79156 0.64918 0.6558 0.0
C1379 C 0.79203 0.59554 0.61551 0.0
C1380 C 0.79271 0.69531 0.6672 0.0
C1381 C 0.79424 0.73663 0.65121 0.0
C1382 C 0.79194 0.64433 0.6282 0.0
C1383 C 0.7941 0.7305 0.62372 0.0
C1384 C 0.7917 0.59065 0.58792 0.0
C1385 C 0.79452 0.50949 0.62002 0.0
N1386 N 0.79305 0.68518 0.61309 0.0
N1387 N 0.7933 0.55476 0.63063 0.0
H1388 H 0.94613 0.57286 0.19349 0.0
H1389 H 0.95074 0.72138 0.05768 0.0
H1390 H 0.954 0.50711 0.11793 0.0
H1391 H 0.9411 0.78842 0.13199 0.0
H1392 H 0.95339 0.64351 0.08026 0.0
H1393 H 0.94587 0.6532 0.17229 0.0
C1394 C 0.94795 0.5754 0.17251 0.0
C1395 C 0.95004 0.53328 0.15742 0.0
C1396 C 0.95072 0.67521 0.09169 0.0
C1397 C 0.94966 0.6248 0.13303 0.0
C1398 C 0.94919 0.7197 0.07878 0.0
C1399 C 0.94563 0.76136 0.09297 0.0
C1400 C 0.94867 0.67221 0.11903 0.0
C1401 C 0.94381 0.7571 0.1203 0.0
C1402 C 0.94775 0.6212 0.1604 0.0
C1403 C 0.9523 0.5386 0.13031 0.0
N1404 N 0.94531 0.71325 0.13245 0.0
N1405 N 0.95199 0.58345 0.11898 0.0
H1406 H 0.79398 0.24758 0.12102 0.0
H1407 H 0.80795 0.9617 0.13461 0.0
H1408 H 0.80486 0.17966 0.1943 0.0
H1409 H 0.79713 0.032 0.06196 0.0
H1410 H 0.80615 0.04017 0.15743 0.0
H1411 H 0.79416 0.16786 0.09973 0.0
C1412 C 0.79633 0.21578 0.13269 0.0
C1413 C 0.79945 0.22025 0.15945 0.0
C1414 C 0.80414 0.03838 0.13651 0.0
C1415 C 0.79977 0.12869 0.13512 0.0
C1416 C 0.80519 0.99364 0.12348 0.0
C1417 C 0.80273 0.99042 0.09634 0.0
C1418 C 0.80062 0.08014 0.12227 0.0
C1419 C 0.79915 0.03286 0.08288 0.0
C1420 C 0.79646 0.17022 0.1205 0.0
C1421 C 0.8024 0.1778 0.17361 0.0
N1422 N 0.79823 0.07593 0.09597 0.0
N1423 N 0.80255 0.13376 0.16123 0.0
H1424 H 0.54996 0.79994 0.94325 0.0
H1425 H 0.55268 0.94573 0.80628 0.0
H1426 H 0.55413 0.72973 0.86755 0.0
H1427 H 0.54761 0.01462 0.88209 0.0
H1428 H 0.55296 0.86611 0.82812 0.0
H1429 H 0.54887 0.87889 0.92102 0.0
C1430 C 0.55064 0.80116 0.92193 0.0
C1431 C 0.55215 0.75826 0.90721 0.0
C1432 C 0.55175 0.89864 0.83997 0.0
C1433 C 0.55092 0.84851 0.8816 0.0
C1434 C 0.55158 0.94407 0.8275 0.0
C1435 C 0.55013 0.98681 0.84241 0.0
C1436 C 0.55048 0.89598 0.86754 0.0
C1437 C 0.54875 0.98258 0.86984 0.0
C1438 C 0.55001 0.84625 0.90924 0.0
C1439 C 0.55297 0.76195 0.87965 0.0
N1440 N 0.54899 0.93801 0.88152 0.0
N1441 N 0.55236 0.80631 0.86773 0.0
H1442 H 0.69217 0.51845 0.86163 0.0
H1443 H 0.70079 0.23126 0.88136 0.0
H1444 H 0.70098 0.45103 0.93628 0.0
H1445 H 0.6969 0.2985 0.80483 0.0
H1446 H 0.70157 0.31203 0.90149 0.0
H1447 H 0.69438 0.43891 0.84006 0.0
C1448 C 0.69462 0.48695 0.87345 0.0
C1449 C 0.69633 0.49125 0.9008 0.0
C1450 C 0.70065 0.30924 0.88027 0.0
C1451 C 0.69884 0.40029 0.87632 0.0
C1452 C 0.70022 0.26309 0.86876 0.0
C1453 C 0.69872 0.25821 0.8414 0.0
C1454 C 0.69946 0.35093 0.86435 0.0
C1455 C 0.69805 0.30068 0.82602 0.0
C1456 C 0.6959 0.44161 0.86113 0.0
C1457 C 0.69953 0.44934 0.91516 0.0
N1458 N 0.69831 0.34531 0.83773 0.0
N1459 N 0.70061 0.40562 0.90278 0.0
H1460 H 0.55278 0.52183 0.37818 0.0
H1461 H 0.54945 0.23176 0.36154 0.0
H1462 H 0.55275 0.44897 0.3027 0.0
H1463 H 0.55267 0.30388 0.43692 0.0
H1464 H 0.54973 0.31115 0.33972 0.0
H1465 H 0.55189 0.44257 0.4001 0.0
C1466 C 0.55257 0.48911 0.36621 0.0
C1467 C 0.55285 0.49194 0.33858 0.0
C1468 C 0.55037 0.30968 0.36103 0.0
C1469 C 0.55182 0.40106 0.36354 0.0
C1470 C 0.55019 0.26436 0.37351 0.0
C1471 C 0.55106 0.26126 0.40109 0.0
C1472 C 0.5514 0.35231 0.37622 0.0
C1473 C 0.55199 0.30465 0.41561 0.0
C1474 C 0.55208 0.44386 0.37875 0.0
C1475 C 0.55256 0.44841 0.32406 0.0
N1476 N 0.55215 0.3484 0.403 0.0
N1477 N 0.55206 0.40475 0.33672 0.0
H1478 H 0.70141 0.01025 0.36474 0.0
H1479 H 0.70139 0.72233 0.38848 0.0
H1480 H 0.70172 0.94376 0.4419 0.0
H1481 H 0.70329 0.78838 0.31131 0.0
H1482 H 0.70335 0.80303 0.40844 0.0
H1483 H 0.70392 0.92961 0.34485 0.0
C1484 C 0.70213 0.9787 0.37751 0.0
C1485 C 0.70126 0.98364 0.405 0.0
C1486 C 0.70346 0.79991 0.38715 0.0
C1487 C 0.70404 0.89118 0.38238 0.0
C1488 C 0.70235 0.75381 0.37573 0.0
C1489 C 0.70208 0.74871 0.34819 0.0
C1490 C 0.70422 0.84133 0.37091 0.0
C1491 C 0.70341 0.79071 0.33264 0.0
C1492 C 0.70356 0.93266 0.36614 0.0
C1493 C 0.70229 0.94157 0.4206 0.0
N1494 N 0.7043 0.83531 0.34421 0.0
N1495 N 0.70352 0.89707 0.40906 0.0
H1496 H 0.45339 0.2024 0.05847 0.0
H1497 H 0.4514 0.04338 0.19103 0.0
H1498 H 0.44894 0.26409 0.13625 0.0
H1499 H 0.44984 0.98167 0.11278 0.0
H1500 H 0.45374 0.1245 0.17154 0.0
H1501 H 0.45536 0.12143 0.07832 0.0
C1502 C 0.45297 0.19897 0.07975 0.0
C1503 C 0.4509 0.23996 0.09573 0.0
C1504 C 0.45298 0.09317 0.15863 0.0
C1505 C 0.45309 0.14745 0.11857 0.0
C1506 C 0.45168 0.04685 0.16975 0.0
C1507 C 0.45033 0.00579 0.15349 0.0
C1508 C 0.45295 0.09846 0.13105 0.0
C1509 C 0.45077 0.0124 0.12604 0.0
C1510 C 0.45405 0.15273 0.09106 0.0
C1511 C 0.45045 0.23341 0.12318 0.0
N1512 N 0.45198 0.05787 0.11569 0.0
N1513 N 0.45146 0.188 0.13372 0.0
H1514 H 0.30248 0.70029 0.18958 0.0
H1515 H 0.30317 0.55542 0.0521 0.0
H1516 H 0.30118 0.77048 0.11342 0.0
H1517 H 0.30305 0.48478 0.12818 0.0
H1518 H 0.30241 0.63467 0.07424 0.0
H1519 H 0.30262 0.62086 0.16752 0.0
C1520 C 0.30219 0.69896 0.16823 0.0
C1521 C 0.30183 0.74198 0.1533 0.0
C1522 C 0.30253 0.60184 0.0861 0.0
C1523 C 0.30202 0.65138 0.12792 0.0
C1524 C 0.30298 0.55662 0.07346 0.0
C1525 C 0.30319 0.51352 0.08834 0.0
C1526 C 0.30232 0.60396 0.11382 0.0
C1527 C 0.30291 0.51714 0.11596 0.0
C1528 C 0.30228 0.65364 0.15564 0.0
C1529 C 0.30147 0.73819 0.12569 0.0
N1530 N 0.30251 0.56156 0.12781 0.0
N1531 N 0.3016 0.69371 0.1139 0.0
H1532 H 0.45343 0.5469 0.68986 0.0
H1533 H 0.45346 0.70548 0.55725 0.0
H1534 H 0.45081 0.4852 0.61172 0.0
H1535 H 0.45178 0.76746 0.63545 0.0
H1536 H 0.45582 0.62446 0.57683 0.0
H1537 H 0.45614 0.62769 0.67022 0.0
C1538 C 0.45357 0.55028 0.66857 0.0
C1539 C 0.45178 0.50938 0.65239 0.0
C1540 C 0.45506 0.65583 0.58971 0.0
C1541 C 0.4548 0.60167 0.62978 0.0
C1542 C 0.45375 0.7021 0.57854 0.0
C1543 C 0.4523 0.74317 0.59476 0.0
C1544 C 0.45492 0.65062 0.6173 0.0
C1545 C 0.45277 0.73671 0.62221 0.0
C1546 C 0.45509 0.59642 0.65736 0.0
C1547 C 0.45208 0.51583 0.62493 0.0
N1548 N 0.45394 0.69126 0.63262 0.0
N1549 N 0.45345 0.56115 0.61449 0.0
H1550 H 0.28274 0.99518 0.61069 0.0
H1551 H 0.32044 0.21339 0.66856 0.0
H1552 H 0.31862 0.02933 0.57702 0.0
H1553 H 0.28276 0.23988 0.64245 0.0
H1554 H 0.32018 0.13475 0.64517 0.0
H1555 H 0.28262 0.07535 0.63261 0.0
C1556 C 0.29057 0.0196 0.60796 0.0
C1557 C 0.30068 0.00605 0.59201 0.0
C1558 C 0.31199 0.1579 0.64469 0.0
C1559 C 0.30075 0.09617 0.61745 0.0
C1560 C 0.3121 0.20239 0.65808 0.0
C1561 C 0.30161 0.23288 0.65731 0.0
C1562 C 0.30119 0.14335 0.63128 0.0
C1563 C 0.29104 0.2173 0.64335 0.0
C1564 C 0.29047 0.06509 0.62034 0.0
C1565 C 0.31062 0.03879 0.58903 0.0
N1566 N 0.29103 0.17317 0.63111 0.0
N1567 N 0.3105 0.08221 0.60198 0.0
loop_
_geom_bond_atom_site_label_1
_geom_bond_atom_site_label_2
_geom_bond_distance
_geom_bond_site_symmetry_2
_ccdc_geom_bond_type
In0 O1 2.294 . S
In0 O2 2.326 . S
In0 O6 2.266 . S
In0 O7 2.326 . S
In0 O8 2.266 . S
In0 O9 2.326 . S
In0 O11 2.294 . S
In0 O12 2.326 . S
O1 In0 2.294 . S
O1 C10 1.240 . S
O2 In0 2.326 . S
O2 C10 1.252 . S
C3 O6 1.252 . S
C3 O7 1.260 . S
C4 O11 1.240 . S
C4 O12 1.252 . S
C5 O8 1.252 . S
C5 O9 1.260 . S
O6 In0 2.266 . S
O6 C3 1.252 . S
O7 In0 2.326 . S
O7 C3 1.260 . S
O8 In0 2.266 . S
O8 C5 1.252 . S
O9 In0 2.326 . S
O9 C5 1.260 . S
C10 O1 1.240 . S
C10 O2 1.252 . S
O11 In0 2.294 . S
O11 C4 1.240 . S
O12 In0 2.326 . S
O12 C4 1.252 . S
In13 O14 2.294 . S
In13 O15 2.326 . S
In13 O19 2.266 . S
In13 O20 2.326 . S
In13 O21 2.266 . S
In13 O22 2.326 . S
In13 O24 2.294 . S
In13 O25 2.326 . S
O14 In13 2.294 . S
O14 C23 1.240 . S
O15 In13 2.326 . S
O15 C23 1.252 . S
C16 O19 1.252 . S
C16 O20 1.260 . S
C17 O24 1.240 . S
C17 O25 1.252 . S
C18 O21 1.252 . S
C18 O22 1.260 . S
O19 In13 2.266 . S
O19 C16 1.252 . S
O20 In13 2.326 . S
O20 C16 1.260 . S
O21 In13 2.266 . S
O21 C18 1.252 . S
O22 In13 2.326 . S
O22 C18 1.260 . S
C23 O14 1.240 . S
C23 O15 1.252 . S
O24 In13 2.294 . S
O24 C17 1.240 . S
O25 In13 2.326 . S
O25 C17 1.252 . S
In26 O27 2.294 . S
In26 O28 2.326 . S
In26 O32 2.266 . S
In26 O33 2.326 . S
In26 O34 2.266 . S
In26 O35 2.326 . S
In26 O37 2.294 . S
In26 O38 2.326 . S
O27 In26 2.294 . S
O27 C36 1.240 . S
O28 In26 2.326 . S
O28 C36 1.252 . S
C29 O32 1.252 . S
C29 O33 1.260 . S
C30 O37 1.240 . S
C30 O38 1.252 . S
C31 O34 1.252 . S
C31 O35 1.260 . S
O32 In26 2.266 . S
O32 C29 1.252 . S
O33 In26 2.326 . S
O33 C29 1.260 . S
O34 In26 2.266 . S
O34 C31 1.252 . S
O35 In26 2.326 . S
O35 C31 1.260 . S
C36 O27 1.240 . S
C36 O28 1.252 . S
O37 In26 2.294 . S
O37 C30 1.240 . S
O38 In26 2.326 . S
O38 C30 1.252 . S
In39 O40 2.294 . S
In39 O41 2.326 . S
In39 O45 2.266 . S
In39 O46 2.326 . S
In39 O47 2.266 . S
In39 O48 2.326 . S
In39 O50 2.294 . S
In39 O51 2.326 . S
O40 In39 2.294 . S
O40 C49 1.240 . S
O41 In39 2.326 . S
O41 C49 1.252 . S
C42 O45 1.252 . S
C42 O46 1.260 . S
C43 O50 1.240 . S
C43 O51 1.252 . S
C44 O47 1.252 . S
C44 O48 1.260 . S
O45 In39 2.266 . S
O45 C42 1.252 . S
O46 In39 2.326 . S
O46 C42 1.260 . S
O47 In39 2.266 . S
O47 C44 1.252 . S
O48 In39 2.326 . S
O48 C44 1.260 . S
C49 O40 1.240 . S
C49 O41 1.252 . S
O50 In39 2.294 . S
O50 C43 1.240 . S
O51 In39 2.326 . S
O51 C43 1.252 . S
In52 O53 2.294 . S
In52 O54 2.326 . S
In52 O58 2.266 . S
In52 O59 2.326 . S
In52 O60 2.266 . S
In52 O61 2.326 . S
In52 O63 2.294 . S
In52 O64 2.326 . S
O53 In52 2.294 . S
O53 C62 1.240 . S
O54 In52 2.326 . S
O54 C62 1.252 . S
C55 O58 1.252 . S
C55 O59 1.260 . S
C56 O63 1.240 . S
C56 O64 1.252 . S
C57 O60 1.252 . S
C57 O61 1.260 . S
O58 In52 2.266 . S
O58 C55 1.252 . S
O59 In52 2.326 . S
O59 C55 1.260 . S
O60 In52 2.266 . S
O60 C57 1.252 . S
O61 In52 2.326 . S
O61 C57 1.260 . S
C62 O53 1.240 . S
C62 O54 1.252 . S
O63 In52 2.294 . S
O63 C56 1.240 . S
O64 In52 2.326 . S
O64 C56 1.252 . S
In65 O66 2.294 . S
In65 O67 2.326 . S
In65 O71 2.266 . S
In65 O72 2.326 . S
In65 O73 2.266 . S
In65 O74 2.326 . S
In65 O76 2.294 . S
In65 O77 2.326 . S
O66 In65 2.294 . S
O66 C75 1.240 . S
O67 In65 2.326 . S
O67 C75 1.252 . S
C68 O71 1.252 . S
C68 O72 1.260 . S
C69 O76 1.240 . S
C69 O77 1.252 . S
C70 O73 1.252 . S
C70 O74 1.260 . S
O71 In65 2.266 . S
O71 C68 1.252 . S
O72 In65 2.326 . S
O72 C68 1.260 . S
O73 In65 2.266 . S
O73 C70 1.252 . S
O74 In65 2.326 . S
O74 C70 1.260 . S
C75 O66 1.240 . S
C75 O67 1.252 . S
O76 In65 2.294 . S
O76 C69 1.240 . S
O77 In65 2.326 . S
O77 C69 1.252 . S
In78 O79 2.294 . S
In78 O80 2.326 . S
In78 O84 2.266 . S
In78 O85 2.326 . S
In78 O86 2.266 . S
In78 O87 2.326 . S
In78 O89 2.294 . S
In78 O90 2.326 . S
O79 In78 2.294 . S
O79 C88 1.240 . S
O80 In78 2.326 . S
O80 C88 1.252 . S
C81 O84 1.252 . S
C81 O85 1.260 . S
C82 O89 1.240 . S
C82 O90 1.252 . S
C83 O86 1.252 . S
C83 O87 1.260 . S
O84 In78 2.266 . S
O84 C81 1.252 . S
O85 In78 2.326 . S
O85 C81 1.260 . S
O86 In78 2.266 . S
O86 C83 1.252 . S
O87 In78 2.326 . S
O87 C83 1.260 . S
C88 O79 1.240 . S
C88 O80 1.252 . S
O89 In78 2.294 . S
O89 C82 1.240 . S
O90 In78 2.326 . S
O90 C82 1.252 . S
In91 O92 2.294 . S
In91 O93 2.326 . S
In91 O97 2.266 . S
In91 O98 2.326 . S
In91 O99 2.266 . S
In91 O100 2.326 . S
In91 O102 2.294 . S
In91 O103 2.326 . S
O92 In91 2.294 . S
O92 C101 1.240 . S
O93 In91 2.326 . S
O93 C101 1.252 . S
C94 O97 1.252 . S
C94 O98 1.260 . S
C95 O102 1.240 . S
C95 O103 1.252 . S
C96 O99 1.252 . S
C96 O100 1.260 . S
O97 In91 2.266 . S
O97 C94 1.252 . S
O98 In91 2.326 . S
O98 C94 1.260 . S
O99 In91 2.266 . S
O99 C96 1.252 . S
O100 In91 2.326 . S
O100 C96 1.260 . S
C101 O92 1.240 . S
C101 O93 1.252 . S
O102 In91 2.294 . S
O102 C95 1.240 . S
O103 In91 2.326 . S
O103 C95 1.252 . S
In104 O105 2.294 . S
In104 O106 2.326 . S
In104 O110 2.266 . S
In104 O111 2.326 . S
In104 O112 2.266 . S
In104 O113 2.326 . S
In104 O115 2.294 . S
In104 O116 2.326 . S
O105 In104 2.294 . S
O105 C114 1.240 . S
O106 In104 2.326 . S
O106 C114 1.252 . S
C107 O110 1.252 . S
C107 O111 1.260 . S
C108 O115 1.240 . S
C108 O116 1.252 . S
C109 O112 1.252 . S
C109 O113 1.260 . S
O110 In104 2.266 . S
O110 C107 1.252 . S
O111 In104 2.326 . S
O111 C107 1.260 . S
O112 In104 2.266 . S
O112 C109 1.252 . S
O113 In104 2.326 . S
O113 C109 1.260 . S
C114 O105 1.240 . S
C114 O106 1.252 . S
O115 In104 2.294 . S
O115 C108 1.240 . S
O116 In104 2.326 . S
O116 C108 1.252 . S
In117 O118 2.294 . S
In117 O119 2.326 . S
In117 O123 2.266 . S
In117 O124 2.326 . S
In117 O125 2.266 . S
In117 O126 2.326 . S
In117 O128 2.294 . S
In117 O129 2.326 . S
O118 In117 2.294 . S
O118 C127 1.240 . S
O119 In117 2.326 . S
O119 C127 1.252 . S
C120 O123 1.252 . S
C120 O124 1.260 . S
C121 O128 1.240 . S
C121 O129 1.252 . S
C122 O125 1.252 . S
C122 O126 1.260 . S
O123 In117 2.266 . S
O123 C120 1.252 . S
O124 In117 2.326 . S
O124 C120 1.260 . S
O125 In117 2.266 . S
O125 C122 1.252 . S
O126 In117 2.326 . S
O126 C122 1.260 . S
C127 O118 1.240 . S
C127 O119 1.252 . S
O128 In117 2.294 . S
O128 C121 1.240 . S
O129 In117 2.326 . S
O129 C121 1.252 . S
In130 O131 2.294 . S
In130 O132 2.326 . S
In130 O136 2.266 . S
In130 O137 2.326 . S
In130 O138 2.266 . S
In130 O139 2.326 . S
In130 O141 2.294 . S
In130 O142 2.326 . S
O131 In130 2.294 . S
O131 C140 1.240 . S
O132 In130 2.326 . S
O132 C140 1.252 . S
C133 O136 1.252 . S
C133 O137 1.260 . S
C134 O141 1.240 . S
C134 O142 1.252 . S
C135 O138 1.252 . S
C135 O139 1.260 . S
O136 In130 2.266 . S
O136 C133 1.252 . S
O137 In130 2.326 . S
O137 C133 1.260 . S
O138 In130 2.266 . S
O138 C135 1.252 . S
O139 In130 2.326 . S
O139 C135 1.260 . S
C140 O131 1.240 . S
C140 O132 1.252 . S
O141 In130 2.294 . S
O141 C134 1.240 . S
O142 In130 2.326 . S
O142 C134 1.252 . S
In143 O144 2.294 . S
In143 O145 2.326 . S
In143 O149 2.266 . S
In143 O150 2.326 . S
In143 O151 2.266 . S
In143 O152 2.326 . S
In143 O154 2.294 . S
In143 O155 2.326 . S
O144 In143 2.294 . S
O144 C153 1.240 . S
O145 In143 2.326 . S
O145 C153 1.252 . S
C146 O149 1.252 . S
C146 O150 1.260 . S
C147 O154 1.240 . S
C147 O155 1.252 . S
C148 O151 1.252 . S
C148 O152 1.260 . S
O149 In143 2.266 . S
O149 C146 1.252 . S
O150 In143 2.326 . S
O150 C146 1.260 . S
O151 In143 2.266 . S
O151 C148 1.252 . S
O152 In143 2.326 . S
O152 C148 1.260 . S
C153 O144 1.240 . S
C153 O145 1.252 . S
O154 In143 2.294 . S
O154 C147 1.240 . S
O155 In143 2.326 . S
O155 C147 1.252 . S
In156 O157 2.294 . S
In156 O158 2.326 . S
In156 O162 2.266 . S
In156 O163 2.326 . S
In156 O164 2.266 . S
In156 O165 2.326 . S
In156 O167 2.294 . S
In156 O168 2.326 . S
O157 In156 2.294 . S
O157 C166 1.240 . S
O158 In156 2.326 . S
O158 C166 1.252 . S
C159 O162 1.252 . S
C159 O163 1.260 . S
C160 O167 1.240 . S
C160 O168 1.252 . S
C161 O164 1.252 . S
C161 O165 1.260 . S
O162 In156 2.266 . S
O162 C159 1.252 . S
O163 In156 2.326 . S
O163 C159 1.260 . S
O164 In156 2.266 . S
O164 C161 1.252 . S
O165 In156 2.326 . S
O165 C161 1.260 . S
C166 O157 1.240 . S
C166 O158 1.252 . S
O167 In156 2.294 . S
O167 C160 1.240 . S
O168 In156 2.326 . S
O168 C160 1.252 . S
In169 O170 2.294 . S
In169 O171 2.326 . S
In169 O175 2.266 . S
In169 O176 2.326 . S
In169 O177 2.266 . S
In169 O178 2.326 . S
In169 O180 2.294 . S
In169 O181 2.326 . S
O170 In169 2.294 . S
O170 C179 1.240 . S
O171 In169 2.326 . S
O171 C179 1.252 . S
C172 O175 1.252 . S
C172 O176 1.260 . S
C173 O180 1.240 . S
C173 O181 1.252 . S
C174 O177 1.252 . S
C174 O178 1.260 . S
O175 In169 2.266 . S
O175 C172 1.252 . S
O176 In169 2.326 . S
O176 C172 1.260 . S
O177 In169 2.266 . S
O177 C174 1.252 . S
O178 In169 2.326 . S
O178 C174 1.260 . S
C179 O170 1.240 . S
C179 O171 1.252 . S
O180 In169 2.294 . S
O180 C173 1.240 . S
O181 In169 2.326 . S
O181 C173 1.252 . S
In182 O183 2.294 . S
In182 O184 2.326 . S
In182 O188 2.266 . S
In182 O189 2.326 . S
In182 O190 2.266 . S
In182 O191 2.326 . S
In182 O193 2.294 . S
In182 O194 2.326 . S
O183 In182 2.294 . S
O183 C192 1.240 . S
O184 In182 2.326 . S
O184 C192 1.252 . S
C185 O188 1.252 . S
C185 O189 1.260 . S
C186 O193 1.240 . S
C186 O194 1.252 . S
C187 O190 1.252 . S
C187 O191 1.260 . S
O188 In182 2.266 . S
O188 C185 1.252 . S
O189 In182 2.326 . S
O189 C185 1.260 . S
O190 In182 2.266 . S
O190 C187 1.252 . S
O191 In182 2.326 . S
O191 C187 1.260 . S
C192 O183 1.240 . S
C192 O184 1.252 . S
O193 In182 2.294 . S
O193 C186 1.240 . S
O194 In182 2.326 . S
O194 C186 1.252 . S
In195 O196 2.294 . S
In195 O197 2.326 . S
In195 O201 2.266 . S
In195 O202 2.326 . S
In195 O203 2.266 . S
In195 O204 2.326 . S
In195 O206 2.294 . S
In195 O207 2.326 . S
O196 In195 2.294 . S
O196 C205 1.240 . S
O197 In195 2.326 . S
O197 C205 1.252 . S
C198 O201 1.252 . S
C198 O202 1.260 . S
C199 O206 1.240 . S
C199 O207 1.252 . S
C200 O203 1.252 . S
C200 O204 1.260 . S
O201 In195 2.266 . S
O201 C198 1.252 . S
O202 In195 2.326 . S
O202 C198 1.260 . S
O203 In195 2.266 . S
O203 C200 1.252 . S
O204 In195 2.326 . S
O204 C200 1.260 . S
C205 O196 1.240 . S
C205 O197 1.252 . S
O206 In195 2.294 . S
O206 C199 1.240 . S
O207 In195 2.326 . S
O207 C199 1.252 . S
In208 O209 2.294 . S
In208 O210 2.326 . S
In208 O214 2.266 . S
In208 O215 2.326 . S
In208 O216 2.266 . S
In208 O217 2.326 . S
In208 O219 2.294 . S
In208 O220 2.326 . S
O209 In208 2.294 . S
O209 C218 1.240 . S
O210 In208 2.326 . S
O210 C218 1.252 . S
C211 O214 1.252 . S
C211 O215 1.260 . S
C212 O219 1.240 . S
C212 O220 1.252 . S
C213 O216 1.252 . S
C213 O217 1.260 . S
O214 In208 2.266 . S
O214 C211 1.252 . S
O215 In208 2.326 . S
O215 C211 1.260 . S
O216 In208 2.266 . S
O216 C213 1.252 . S
O217 In208 2.326 . S
O217 C213 1.260 . S
C218 O209 1.240 . S
C218 O210 1.252 . S
O219 In208 2.294 . S
O219 C212 1.240 . S
O220 In208 2.326 . S
O220 C212 1.252 . S
In221 O222 2.294 . S
In221 O223 2.326 . S
In221 O227 2.266 . S
In221 O228 2.326 . S
In221 O229 2.266 . S
In221 O230 2.326 . S
In221 O232 2.294 . S
In221 O233 2.326 . S
O222 In221 2.294 . S
O222 C231 1.240 . S
O223 In221 2.326 . S
O223 C231 1.252 . S
C224 O227 1.252 . S
C224 O228 1.260 . S
C225 O232 1.240 . S
C225 O233 1.252 . S
C226 O229 1.252 . S
C226 O230 1.260 . S
O227 In221 2.266 . S
O227 C224 1.252 . S
O228 In221 2.326 . S
O228 C224 1.260 . S
O229 In221 2.266 . S
O229 C226 1.252 . S
O230 In221 2.326 . S
O230 C226 1.260 . S
C231 O222 1.240 . S
C231 O223 1.252 . S
O232 In221 2.294 . S
O232 C225 1.240 . S
O233 In221 2.326 . S
O233 C225 1.252 . S
In234 O235 2.294 . S
In234 O236 2.326 . S
In234 O240 2.266 . S
In234 O241 2.326 . S
In234 O242 2.266 . S
In234 O243 2.326 . S
In234 O245 2.294 . S
In234 O246 2.326 . S
O235 In234 2.294 . S
O235 C244 1.240 . S
O236 In234 2.326 . S
O236 C244 1.252 . S
C237 O240 1.252 . S
C237 O241 1.260 . S
C238 O245 1.240 . S
C238 O246 1.252 . S
C239 O242 1.252 . S
C239 O243 1.260 . S
O240 In234 2.266 . S
O240 C237 1.252 . S
O241 In234 2.326 . S
O241 C237 1.260 . S
O242 In234 2.266 . S
O242 C239 1.252 . S
O243 In234 2.326 . S
O243 C239 1.260 . S
C244 O235 1.240 . S
C244 O236 1.252 . S
O245 In234 2.294 . S
O245 C238 1.240 . S
O246 In234 2.326 . S
O246 C238 1.252 . S
In247 O248 2.294 . S
In247 O249 2.326 . S
In247 O253 2.266 . S
In247 O254 2.326 . S
In247 O255 2.266 . S
In247 O256 2.326 . S
In247 O258 2.294 . S
In247 O259 2.326 . S
O248 In247 2.294 . S
O248 C257 1.240 . S
O249 In247 2.326 . S
O249 C257 1.252 . S
C250 O253 1.252 . S
C250 O254 1.260 . S
C251 O258 1.240 . S
C251 O259 1.252 . S
C252 O255 1.252 . S
C252 O256 1.260 . S
O253 In247 2.266 . S
O253 C250 1.252 . S
O254 In247 2.326 . S
O254 C250 1.260 . S
O255 In247 2.266 . S
O255 C252 1.252 . S
O256 In247 2.326 . S
O256 C252 1.260 . S
C257 O248 1.240 . S
C257 O249 1.252 . S
O258 In247 2.294 . S
O258 C251 1.240 . S
O259 In247 2.326 . S
O259 C251 1.252 . S
In260 O261 2.294 . S
In260 O262 2.326 . S
In260 O266 2.266 . S
In260 O267 2.326 . S
In260 O268 2.266 . S
In260 O269 2.326 . S
In260 O271 2.294 . S
In260 O272 2.326 . S
O261 In260 2.294 . S
O261 C270 1.240 . S
O262 In260 2.326 . S
O262 C270 1.252 . S
C263 O266 1.252 . S
C263 O267 1.260 . S
C264 O271 1.240 . S
C264 O272 1.252 . S
C265 O268 1.252 . S
C265 O269 1.260 . S
O266 In260 2.266 . S
O266 C263 1.252 . S
O267 In260 2.326 . S
O267 C263 1.260 . S
O268 In260 2.266 . S
O268 C265 1.252 . S
O269 In260 2.326 . S
O269 C265 1.260 . S
C270 O261 1.240 . S
C270 O262 1.252 . S
O271 In260 2.294 . S
O271 C264 1.240 . S
O272 In260 2.326 . S
O272 C264 1.252 . S
In273 O274 2.294 . S
In273 O275 2.326 . S
In273 O279 2.266 . S
In273 O280 2.326 . S
In273 O281 2.266 . S
In273 O282 2.326 . S
In273 O284 2.294 . S
In273 O285 2.326 . S
O274 In273 2.294 . S
O274 C283 1.240 . S
O275 In273 2.326 . S
O275 C283 1.252 . S
C276 O279 1.252 . S
C276 O280 1.260 . S
C277 O284 1.240 . S
C277 O285 1.252 . S
C278 O281 1.252 . S
C278 O282 1.260 . S
O279 In273 2.266 . S
O279 C276 1.252 . S
O280 In273 2.326 . S
O280 C276 1.260 . S
O281 In273 2.266 . S
O281 C278 1.252 . S
O282 In273 2.326 . S
O282 C278 1.260 . S
C283 O274 1.240 . S
C283 O275 1.252 . S
O284 In273 2.294 . S
O284 C277 1.240 . S
O285 In273 2.326 . S
O285 C277 1.252 . S
In286 O287 2.294 . S
In286 O288 2.326 . S
In286 O292 2.266 . S
In286 O293 2.326 . S
In286 O294 2.266 . S
In286 O295 2.326 . S
In286 O297 2.294 . S
In286 O298 2.326 . S
O287 In286 2.294 . S
O287 C296 1.240 . S
O288 In286 2.326 . S
O288 C296 1.252 . S
C289 O292 1.252 . S
C289 O293 1.260 . S
C290 O297 1.240 . S
C290 O298 1.252 . S
C291 O294 1.252 . S
C291 O295 1.260 . S
O292 In286 2.266 . S
O292 C289 1.252 . S
O293 In286 2.326 . S
O293 C289 1.260 . S
O294 In286 2.266 . S
O294 C291 1.252 . S
O295 In286 2.326 . S
O295 C291 1.260 . S
C296 O287 1.240 . S
C296 O288 1.252 . S
O297 In286 2.294 . S
O297 C290 1.240 . S
O298 In286 2.326 . S
O298 C290 1.252 . S
In299 O300 2.294 . S
In299 O301 2.326 . S
In299 O305 2.266 . S
In299 O306 2.326 . S
In299 O307 2.266 . S
In299 O308 2.326 . S
In299 O310 2.294 . S
In299 O311 2.326 . S
O300 In299 2.294 . S
O300 C309 1.240 . S
O301 In299 2.326 . S
O301 C309 1.252 . S
C302 O305 1.252 . S
C302 O306 1.260 . S
C303 O310 1.240 . S
C303 O311 1.252 . S
C304 O307 1.252 . S
C304 O308 1.260 . S
O305 In299 2.266 . S
O305 C302 1.252 . S
O306 In299 2.326 . S
O306 C302 1.260 . S
O307 In299 2.266 . S
O307 C304 1.252 . S
O308 In299 2.326 . S
O308 C304 1.260 . S
C309 O300 1.240 . S
C309 O301 1.252 . S
O310 In299 2.294 . S
O310 C303 1.240 . S
O311 In299 2.326 . S
O311 C303 1.252 . S
In312 O313 2.294 . S
In312 O314 2.326 . S
In312 O318 2.266 . S
In312 O319 2.326 . S
In312 O320 2.266 . S
In312 O321 2.326 . S
In312 O323 2.294 . S
In312 O324 2.326 . S
O313 In312 2.294 . S
O313 C322 1.240 . S
O314 In312 2.326 . S
O314 C322 1.252 . S
C315 O318 1.252 . S
C315 O319 1.260 . S
C316 O323 1.240 . S
C316 O324 1.252 . S
C317 O320 1.252 . S
C317 O321 1.260 . S
O318 In312 2.266 . S
O318 C315 1.252 . S
O319 In312 2.326 . S
O319 C315 1.260 . S
O320 In312 2.266 . S
O320 C317 1.252 . S
O321 In312 2.326 . S
O321 C317 1.260 . S
C322 O313 1.240 . S
C322 O314 1.252 . S
O323 In312 2.294 . S
O323 C316 1.240 . S
O324 In312 2.326 . S
O324 C316 1.252 . S
In325 O326 2.294 . S
In325 O327 2.326 . S
In325 O331 2.266 . S
In325 O332 2.326 . S
In325 O333 2.266 . S
In325 O334 2.326 . S
In325 O336 2.294 . S
In325 O337 2.326 . S
O326 In325 2.294 . S
O326 C335 1.240 . S
O327 In325 2.326 . S
O327 C335 1.252 . S
C328 O331 1.252 . S
C328 O332 1.260 . S
C329 O336 1.240 . S
C329 O337 1.252 . S
C330 O333 1.252 . S
C330 O334 1.260 . S
O331 In325 2.266 . S
O331 C328 1.252 . S
O332 In325 2.326 . S
O332 C328 1.260 . S
O333 In325 2.266 . S
O333 C330 1.252 . S
O334 In325 2.326 . S
O334 C330 1.260 . S
C335 O326 1.240 . S
C335 O327 1.252 . S
O336 In325 2.294 . S
O336 C329 1.240 . S
O337 In325 2.326 . S
O337 C329 1.252 . S
In338 O339 2.294 . S
In338 O340 2.326 . S
In338 O344 2.266 . S
In338 O345 2.326 . S
In338 O346 2.266 . S
In338 O347 2.326 . S
In338 O349 2.294 . S
In338 O350 2.326 . S
O339 In338 2.294 . S
O339 C348 1.240 . S
O340 In338 2.326 . S
O340 C348 1.252 . S
C341 O344 1.252 . S
C341 O345 1.260 . S
C342 O349 1.240 . S
C342 O350 1.252 . S
C343 O346 1.252 . S
C343 O347 1.260 . S
O344 In338 2.266 . S
O344 C341 1.252 . S
O345 In338 2.326 . S
O345 C341 1.260 . S
O346 In338 2.266 . S
O346 C343 1.252 . S
O347 In338 2.326 . S
O347 C343 1.260 . S
C348 O339 1.240 . S
C348 O340 1.252 . S
O349 In338 2.294 . S
O349 C342 1.240 . S
O350 In338 2.326 . S
O350 C342 1.252 . S
In351 O352 2.294 . S
In351 O353 2.326 . S
In351 O357 2.266 . S
In351 O358 2.326 . S
In351 O359 2.266 . S
In351 O360 2.326 . S
In351 O362 2.294 . S
In351 O363 2.326 . S
O352 In351 2.294 . S
O352 C361 1.240 . S
O353 In351 2.326 . S
O353 C361 1.252 . S
C354 O357 1.252 . S
C354 O358 1.260 . S
C355 O362 1.240 . S
C355 O363 1.252 . S
C356 O359 1.252 . S
C356 O360 1.260 . S
O357 In351 2.266 . S
O357 C354 1.252 . S
O358 In351 2.326 . S
O358 C354 1.260 . S
O359 In351 2.266 . S
O359 C356 1.252 . S
O360 In351 2.326 . S
O360 C356 1.260 . S
C361 O352 1.240 . S
C361 O353 1.252 . S
O362 In351 2.294 . S
O362 C355 1.240 . S
O363 In351 2.326 . S
O363 C355 1.252 . S
In364 O365 2.294 . S
In364 O366 2.326 . S
In364 O370 2.266 . S
In364 O371 2.326 . S
In364 O372 2.266 . S
In364 O373 2.326 . S
In364 O375 2.294 . S
In364 O376 2.326 . S
O365 In364 2.294 . S
O365 C374 1.240 . S
O366 In364 2.326 . S
O366 C374 1.252 . S
C367 O370 1.252 . S
C367 O371 1.260 . S
C368 O375 1.240 . S
C368 O376 1.252 . S
C369 O372 1.252 . S
C369 O373 1.260 . S
O370 In364 2.266 . S
O370 C367 1.252 . S
O371 In364 2.326 . S
O371 C367 1.260 . S
O372 In364 2.266 . S
O372 C369 1.252 . S
O373 In364 2.326 . S
O373 C369 1.260 . S
C374 O365 1.240 . S
C374 O366 1.252 . S
O375 In364 2.294 . S
O375 C368 1.240 . S
O376 In364 2.326 . S
O376 C368 1.252 . S
In377 O378 2.294 . S
In377 O379 2.326 . S
In377 O383 2.266 . S
In377 O384 2.326 . S
In377 O385 2.266 . S
In377 O386 2.326 . S
In377 O388 2.294 . S
In377 O389 2.326 . S
O378 In377 2.294 . S
O378 C387 1.240 . S
O379 In377 2.326 . S
O379 C387 1.252 . S
C380 O383 1.252 . S
C380 O384 1.260 . S
C381 O388 1.240 . S
C381 O389 1.252 . S
C382 O385 1.252 . S
C382 O386 1.260 . S
O383 In377 2.266 . S
O383 C380 1.252 . S
O384 In377 2.326 . S
O384 C380 1.260 . S
O385 In377 2.266 . S
O385 C382 1.252 . S
O386 In377 2.326 . S
O386 C382 1.260 . S
C387 O378 1.240 . S
C387 O379 1.252 . S
O388 In377 2.294 . S
O388 C381 1.240 . S
O389 In377 2.326 . S
O389 C381 1.252 . S
In390 O391 2.294 . S
In390 O392 2.326 . S
In390 O396 2.266 . S
In390 O397 2.326 . S
In390 O398 2.266 . S
In390 O399 2.326 . S
In390 O401 2.294 . S
In390 O402 2.326 . S
O391 In390 2.294 . S
O391 C400 1.240 . S
O392 In390 2.326 . S
O392 C400 1.252 . S
C393 O396 1.252 . S
C393 O397 1.260 . S
C394 O401 1.240 . S
C394 O402 1.252 . S
C395 O398 1.252 . S
C395 O399 1.260 . S
O396 In390 2.266 . S
O396 C393 1.252 . S
O397 In390 2.326 . S
O397 C393 1.260 . S
O398 In390 2.266 . S
O398 C395 1.252 . S
O399 In390 2.326 . S
O399 C395 1.260 . S
C400 O391 1.240 . S
C400 O392 1.252 . S
O401 In390 2.294 . S
O401 C394 1.240 . S
O402 In390 2.326 . S
O402 C394 1.252 . S
In403 O404 2.294 . S
In403 O405 2.326 . S
In403 O409 2.266 . S
In403 O410 2.326 . S
In403 O411 2.266 . S
In403 O412 2.326 . S
In403 O414 2.294 . S
In403 O415 2.326 . S
O404 In403 2.294 . S
O404 C413 1.240 . S
O405 In403 2.326 . S
O405 C413 1.252 . S
C406 O409 1.252 . S
C406 O410 1.260 . S
C407 O414 1.240 . S
C407 O415 1.252 . S
C408 O411 1.252 . S
C408 O412 1.260 . S
O409 In403 2.266 . S
O409 C406 1.252 . S
O410 In403 2.326 . S
O410 C406 1.260 . S
O411 In403 2.266 . S
O411 C408 1.252 . S
O412 In403 2.326 . S
O412 C408 1.260 . S
C413 O404 1.240 . S
C413 O405 1.252 . S
O414 In403 2.294 . S
O414 C407 1.240 . S
O415 In403 2.326 . S
O415 C407 1.252 . S
H416 C422 0.930 . S
H417 C426 0.930 . S
H418 C431 0.929 . S
H419 C429 0.929 . S
H420 C424 0.929 . S
H421 C430 0.929 . S
C422 H416 0.930 . S
C422 C423 1.367 . S
C422 C430 1.378 . S
C423 C422 1.367 . S
C423 C431 1.433 . S
C424 H420 0.929 . S
C424 C426 1.378 . S
C424 C428 1.350 . S
C425 C428 1.463 . S
C425 C430 1.350 . S
C425 N433 1.427 . S
C426 H417 0.930 . S
C426 C424 1.378 . S
C426 C427 1.367 . S
C427 C426 1.367 . S
C427 C429 1.433 . S
C428 C424 1.350 . S
C428 C425 1.463 . S
C428 N432 1.427 . S
C429 H419 0.929 . S
C429 C427 1.433 . S
C429 N432 1.384 . S
C430 H421 0.929 . S
C430 C422 1.378 . S
C430 C425 1.350 . S
C431 H418 0.929 . S
C431 C423 1.433 . S
C431 N433 1.384 . S
N432 C428 1.427 . S
N432 C429 1.384 . S
N433 C425 1.427 . S
N433 C431 1.384 . S
H434 C440 0.930 . S
H435 C444 0.930 . S
H436 C449 0.929 . S
H437 C447 0.929 . S
H438 C442 0.929 . S
H439 C448 0.929 . S
C440 H434 0.930 . S
C440 C441 1.367 . S
C440 C448 1.378 . S
C441 C440 1.367 . S
C441 C449 1.433 . S
C442 H438 0.929 . S
C442 C444 1.378 . S
C442 C446 1.350 . S
C443 C446 1.463 . S
C443 C448 1.350 . S
C443 N451 1.427 . S
C444 H435 0.930 . S
C444 C442 1.378 . S
C444 C445 1.367 . S
C445 C444 1.367 . S
C445 C447 1.433 . S
C446 C442 1.350 . S
C446 C443 1.463 . S
C446 N450 1.427 . S
C447 H437 0.929 . S
C447 C445 1.433 . S
C447 N450 1.384 . S
C448 H439 0.929 . S
C448 C440 1.378 . S
C448 C443 1.350 . S
C449 H436 0.929 . S
C449 C441 1.433 . S
C449 N451 1.384 . S
N450 C446 1.427 . S
N450 C447 1.384 . S
N451 C443 1.427 . S
N451 C449 1.384 . S
H452 C458 0.930 . S
H453 C462 0.930 . S
H454 C467 0.929 . S
H455 C465 0.929 . S
H456 C460 0.929 . S
H457 C466 0.929 . S
C458 H452 0.930 . S
C458 C459 1.367 . S
C458 C466 1.378 . S
C459 C458 1.367 . S
C459 C467 1.433 . S
C460 H456 0.929 . S
C460 C462 1.378 . S
C460 C464 1.350 . S
C461 C464 1.463 . S
C461 C466 1.350 . S
C461 N469 1.427 . S
C462 H453 0.930 . S
C462 C460 1.378 . S
C462 C463 1.367 . S
C463 C462 1.367 . S
C463 C465 1.433 . S
C464 C460 1.350 . S
C464 C461 1.463 . S
C464 N468 1.427 . S
C465 H455 0.929 . S
C465 C463 1.433 . S
C465 N468 1.384 . S
C466 H457 0.929 . S
C466 C458 1.378 . S
C466 C461 1.350 . S
C467 H454 0.929 . S
C467 C459 1.433 . S
C467 N469 1.384 . S
N468 C464 1.427 . S
N468 C465 1.384 . S
N469 C461 1.427 . S
N469 C467 1.384 . S
H470 C476 0.930 . S
H471 C480 0.930 . S
H472 C485 0.929 . S
H473 C483 0.929 . S
H474 C478 0.929 . S
H475 C484 0.929 . S
C476 H470 0.930 . S
C476 C477 1.367 . S
C476 C484 1.378 . S
C477 C476 1.367 . S
C477 C485 1.433 . S
C478 H474 0.929 . S
C478 C480 1.378 . S
C478 C482 1.350 . S
C479 C482 1.463 . S
C479 C484 1.350 . S
C479 N487 1.427 . S
C480 H471 0.930 . S
C480 C478 1.378 . S
C480 C481 1.367 . S
C481 C480 1.367 . S
C481 C483 1.433 . S
C482 C478 1.350 . S
C482 C479 1.463 . S
C482 N486 1.427 . S
C483 H473 0.929 . S
C483 C481 1.433 . S
C483 N486 1.384 . S
C484 H475 0.929 . S
C484 C476 1.378 . S
C484 C479 1.350 . S
C485 H472 0.929 . S
C485 C477 1.433 . S
C485 N487 1.384 . S
N486 C482 1.427 . S
N486 C483 1.384 . S
N487 C479 1.427 . S
N487 C485 1.384 . S
H488 C494 0.930 . S
H489 C498 0.930 . S
H490 C503 0.929 . S
H491 C501 0.929 . S
H492 C496 0.929 . S
H493 C502 0.929 . S
C494 H488 0.930 . S
C494 C495 1.367 . S
C494 C502 1.378 . S
C495 C494 1.367 . S
C495 C503 1.433 . S
C496 H492 0.929 . S
C496 C498 1.378 . S
C496 C500 1.350 . S
C497 C500 1.463 . S
C497 C502 1.350 . S
C497 N505 1.427 . S
C498 H489 0.930 . S
C498 C496 1.378 . S
C498 C499 1.367 . S
C499 C498 1.367 . S
C499 C501 1.433 . S
C500 C496 1.350 . S
C500 C497 1.463 . S
C500 N504 1.427 . S
C501 H491 0.929 . S
C501 C499 1.433 . S
C501 N504 1.384 . S
C502 H493 0.929 . S
C502 C494 1.378 . S
C502 C497 1.350 . S
C503 H490 0.929 . S
C503 C495 1.433 . S
C503 N505 1.384 . S
N504 C500 1.427 . S
N504 C501 1.384 . S
N505 C497 1.427 . S
N505 C503 1.384 . S
H506 C512 0.930 . S
H507 C516 0.930 . S
H508 C521 0.929 . S
H509 C519 0.929 . S
H510 C514 0.929 . S
H511 C520 0.929 . S
C512 H506 0.930 . S
C512 C513 1.367 . S
C512 C520 1.378 . S
C513 C512 1.367 . S
C513 C521 1.433 . S
C514 H510 0.929 . S
C514 C516 1.378 . S
C514 C518 1.350 . S
C515 C518 1.463 . S
C515 C520 1.350 . S
C515 N523 1.427 . S
C516 H507 0.930 . S
C516 C514 1.378 . S
C516 C517 1.367 . S
C517 C516 1.367 . S
C517 C519 1.433 . S
C518 C514 1.350 . S
C518 C515 1.463 . S
C518 N522 1.427 . S
C519 H509 0.929 . S
C519 C517 1.433 . S
C519 N522 1.384 . S
C520 H511 0.929 . S
C520 C512 1.378 . S
C520 C515 1.350 . S
C521 H508 0.929 . S
C521 C513 1.433 . S
C521 N523 1.384 . S
N522 C518 1.427 . S
N522 C519 1.384 . S
N523 C515 1.427 . S
N523 C521 1.384 . S
H524 C530 0.930 . S
H525 C534 0.930 . S
H526 C539 0.929 . S
H527 C537 0.929 . S
H528 C532 0.929 . S
H529 C538 0.929 . S
C530 H524 0.930 . S
C530 C531 1.367 . S
C530 C538 1.378 . S
C531 C530 1.367 . S
C531 C539 1.433 . S
C532 H528 0.929 . S
C532 C534 1.378 . S
C532 C536 1.350 . S
C533 C536 1.463 . S
C533 C538 1.350 . S
C533 N541 1.427 . S
C534 H525 0.930 . S
C534 C532 1.378 . S
C534 C535 1.367 . S
C535 C534 1.367 . S
C535 C537 1.433 . S
C536 C532 1.350 . S
C536 C533 1.463 . S
C536 N540 1.427 . S
C537 H527 0.929 . S
C537 C535 1.433 . S
C537 N540 1.384 . S
C538 H529 0.929 . S
C538 C530 1.378 . S
C538 C533 1.350 . S
C539 H526 0.929 . S
C539 C531 1.433 . S
C539 N541 1.384 . S
N540 C536 1.427 . S
N540 C537 1.384 . S
N541 C533 1.427 . S
N541 C539 1.384 . S
H542 C548 0.930 . S
H543 C552 0.930 . S
H544 C557 0.929 . S
H545 C555 0.929 . S
H546 C550 0.929 . S
H547 C556 0.929 . S
C548 H542 0.930 . S
C548 C549 1.367 . S
C548 C556 1.378 . S
C549 C548 1.367 . S
C549 C557 1.433 . S
C550 H546 0.929 . S
C550 C552 1.378 . S
C550 C554 1.350 . S
C551 C554 1.463 . S
C551 C556 1.350 . S
C551 N559 1.427 . S
C552 H543 0.930 . S
C552 C550 1.378 . S
C552 C553 1.367 . S
C553 C552 1.367 . S
C553 C555 1.433 . S
C554 C550 1.350 . S
C554 C551 1.463 . S
C554 N558 1.427 . S
C555 H545 0.929 . S
C555 C553 1.433 . S
C555 N558 1.384 . S
C556 H547 0.929 . S
C556 C548 1.378 . S
C556 C551 1.350 . S
C557 H544 0.929 . S
C557 C549 1.433 . S
C557 N559 1.384 . S
N558 C554 1.427 . S
N558 C555 1.384 . S
N559 C551 1.427 . S
N559 C557 1.384 . S
H560 C566 0.930 . S
H561 C570 0.930 . S
H562 C575 0.929 . S
H563 C573 0.929 . S
H564 C568 0.929 . S
H565 C574 0.929 . S
C566 H560 0.930 . S
C566 C567 1.367 . S
C566 C574 1.378 . S
C567 C566 1.367 . S
C567 C575 1.433 . S
C568 H564 0.929 . S
C568 C570 1.378 . S
C568 C572 1.350 . S
C569 C572 1.463 . S
C569 C574 1.350 . S
C569 N577 1.427 . S
C570 H561 0.930 . S
C570 C568 1.378 . S
C570 C571 1.367 . S
C571 C570 1.367 . S
C571 C573 1.433 . S
C572 C568 1.350 . S
C572 C569 1.463 . S
C572 N576 1.427 . S
C573 H563 0.929 . S
C573 C571 1.433 . S
C573 N576 1.384 . S
C574 H565 0.929 . S
C574 C566 1.378 . S
C574 C569 1.350 . S
C575 H562 0.929 . S
C575 C567 1.433 . S
C575 N577 1.384 . S
N576 C572 1.427 . S
N576 C573 1.384 . S
N577 C569 1.427 . S
N577 C575 1.384 . S
H578 C584 0.930 . S
H579 C588 0.930 . S
H580 C593 0.929 . S
H581 C591 0.929 . S
H582 C586 0.929 . S
H583 C592 0.929 . S
C584 H578 0.930 . S
C584 C585 1.367 . S
C584 C592 1.378 . S
C585 C584 1.367 . S
C585 C593 1.433 . S
C586 H582 0.929 . S
C586 C588 1.378 . S
C586 C590 1.350 . S
C587 C590 1.463 . S
C587 C592 1.350 . S
C587 N595 1.427 . S
C588 H579 0.930 . S
C588 C586 1.378 . S
C588 C589 1.367 . S
C589 C588 1.367 . S
C589 C591 1.433 . S
C590 C586 1.350 . S
C590 C587 1.463 . S
C590 N594 1.427 . S
C591 H581 0.929 . S
C591 C589 1.433 . S
C591 N594 1.384 . S
C592 H583 0.929 . S
C592 C584 1.378 . S
C592 C587 1.350 . S
C593 H580 0.929 . S
C593 C585 1.433 . S
C593 N595 1.384 . S
N594 C590 1.427 . S
N594 C591 1.384 . S
N595 C587 1.427 . S
N595 C593 1.384 . S
H596 C602 0.930 . S
H597 C606 0.930 . S
H598 C611 0.929 . S
H599 C609 0.929 . S
H600 C604 0.929 . S
H601 C610 0.929 . S
C602 H596 0.930 . S
C602 C603 1.367 . S
C602 C610 1.378 . S
C603 C602 1.367 . S
C603 C611 1.433 . S
C604 H600 0.929 . S
C604 C606 1.378 . S
C604 C608 1.350 . S
C605 C608 1.463 . S
C605 C610 1.350 . S
C605 N613 1.427 . S
C606 H597 0.930 . S
C606 C604 1.378 . S
C606 C607 1.367 . S
C607 C606 1.367 . S
C607 C609 1.433 . S
C608 C604 1.350 . S
C608 C605 1.463 . S
C608 N612 1.427 . S
C609 H599 0.929 . S
C609 C607 1.433 . S
C609 N612 1.384 . S
C610 H601 0.929 . S
C610 C602 1.378 . S
C610 C605 1.350 . S
C611 H598 0.929 . S
C611 C603 1.433 . S
C611 N613 1.384 . S
N612 C608 1.427 . S
N612 C609 1.384 . S
N613 C605 1.427 . S
N613 C611 1.384 . S
H614 C620 0.930 . S
H615 C624 0.930 . S
H616 C629 0.929 . S
H617 C627 0.929 . S
H618 C622 0.929 . S
H619 C628 0.929 . S
C620 H614 0.930 . S
C620 C621 1.367 . S
C620 C628 1.378 . S
C621 C620 1.367 . S
C621 C629 1.433 . S
C622 H618 0.929 . S
C622 C624 1.378 . S
C622 C626 1.350 . S
C623 C626 1.463 . S
C623 C628 1.350 . S
C623 N631 1.427 . S
C624 H615 0.930 . S
C624 C622 1.378 . S
C624 C625 1.367 . S
C625 C624 1.367 . S
C625 C627 1.433 . S
C626 C622 1.350 . S
C626 C623 1.463 . S
C626 N630 1.427 . S
C627 H617 0.929 . S
C627 C625 1.433 . S
C627 N630 1.384 . S
C628 H619 0.929 . S
C628 C620 1.378 . S
C628 C623 1.350 . S
C629 H616 0.929 . S
C629 C621 1.433 . S
C629 N631 1.384 . S
N630 C626 1.427 . S
N630 C627 1.384 . S
N631 C623 1.427 . S
N631 C629 1.384 . S
H632 C638 0.930 . S
H633 C642 0.930 . S
H634 C647 0.929 . S
H635 C645 0.929 . S
H636 C640 0.929 . S
H637 C646 0.929 . S
C638 H632 0.930 . S
C638 C639 1.367 . S
C638 C646 1.378 . S
C639 C638 1.367 . S
C639 C647 1.433 . S
C640 H636 0.929 . S
C640 C642 1.378 . S
C640 C644 1.350 . S
C641 C644 1.463 . S
C641 C646 1.350 . S
C641 N649 1.427 . S
C642 H633 0.930 . S
C642 C640 1.378 . S
C642 C643 1.367 . S
C643 C642 1.367 . S
C643 C645 1.433 . S
C644 C640 1.350 . S
C644 C641 1.463 . S
C644 N648 1.427 . S
C645 H635 0.929 . S
C645 C643 1.433 . S
C645 N648 1.384 . S
C646 H637 0.929 . S
C646 C638 1.378 . S
C646 C641 1.350 . S
C647 H634 0.929 . S
C647 C639 1.433 . S
C647 N649 1.384 . S
N648 C644 1.427 . S
N648 C645 1.384 . S
N649 C641 1.427 . S
N649 C647 1.384 . S
H650 C656 0.930 . S
H651 C660 0.930 . S
H652 C665 0.929 . S
H653 C663 0.929 . S
H654 C658 0.929 . S
H655 C664 0.929 . S
C656 H650 0.930 . S
C656 C657 1.367 . S
C656 C664 1.378 . S
C657 C656 1.367 . S
C657 C665 1.433 . S
C658 H654 0.929 . S
C658 C660 1.378 . S
C658 C662 1.350 . S
C659 C662 1.463 . S
C659 C664 1.350 . S
C659 N667 1.427 . S
C660 H651 0.930 . S
C660 C658 1.378 . S
C660 C661 1.367 . S
C661 C660 1.367 . S
C661 C663 1.433 . S
C662 C658 1.350 . S
C662 C659 1.463 . S
C662 N666 1.427 . S
C663 H653 0.929 . S
C663 C661 1.433 . S
C663 N666 1.384 . S
C664 H655 0.929 . S
C664 C656 1.378 . S
C664 C659 1.350 . S
C665 H652 0.929 . S
C665 C657 1.433 . S
C665 N667 1.384 . S
N666 C662 1.427 . S
N666 C663 1.384 . S
N667 C659 1.427 . S
N667 C665 1.384 . S
H668 C674 0.930 . S
H669 C678 0.930 . S
H670 C683 0.929 . S
H671 C681 0.929 . S
H672 C676 0.929 . S
H673 C682 0.929 . S
C674 H668 0.930 . S
C674 C675 1.367 . S
C674 C682 1.378 . S
C675 C674 1.367 . S
C675 C683 1.433 . S
C676 H672 0.929 . S
C676 C678 1.378 . S
C676 C680 1.350 . S
C677 C680 1.463 . S
C677 C682 1.350 . S
C677 N685 1.427 . S
C678 H669 0.930 . S
C678 C676 1.378 . S
C678 C679 1.367 . S
C679 C678 1.367 . S
C679 C681 1.433 . S
C680 C676 1.350 . S
C680 C677 1.463 . S
C680 N684 1.427 . S
C681 H671 0.929 . S
C681 C679 1.433 . S
C681 N684 1.384 . S
C682 H673 0.929 . S
C682 C674 1.378 . S
C682 C677 1.350 . S
C683 H670 0.929 . S
C683 C675 1.433 . S
C683 N685 1.384 . S
N684 C680 1.427 . S
N684 C681 1.384 . S
N685 C677 1.427 . S
N685 C683 1.384 . S
H686 C692 0.930 . S
H687 C696 0.930 . S
H688 C701 0.929 . S
H689 C699 0.929 . S
H690 C694 0.929 . S
H691 C700 0.929 . S
C692 H686 0.930 . S
C692 C693 1.367 . S
C692 C700 1.378 . S
C693 C692 1.367 . S
C693 C701 1.433 . S
C694 H690 0.929 . S
C694 C696 1.378 . S
C694 C698 1.350 . S
C695 C698 1.463 . S
C695 C700 1.350 . S
C695 N703 1.427 . S
C696 H687 0.930 . S
C696 C694 1.378 . S
C696 C697 1.367 . S
C697 C696 1.367 . S
C697 C699 1.433 . S
C698 C694 1.350 . S
C698 C695 1.463 . S
C698 N702 1.427 . S
C699 H689 0.929 . S
C699 C697 1.433 . S
C699 N702 1.384 . S
C700 H691 0.929 . S
C700 C692 1.378 . S
C700 C695 1.350 . S
C701 H688 0.929 . S
C701 C693 1.433 . S
C701 N703 1.384 . S
N702 C698 1.427 . S
N702 C699 1.384 . S
N703 C695 1.427 . S
N703 C701 1.384 . S
H704 C710 0.930 . S
H705 C714 0.930 . S
H706 C719 0.929 . S
H707 C717 0.929 . S
H708 C712 0.929 1_455 S
H709 C718 0.929 1_655 S
C710 H704 0.930 . S
C710 C711 1.367 . S
C710 C718 1.378 . S
C711 C710 1.367 . S
C711 C719 1.433 . S
C712 H708 0.929 1_655 S
C712 C714 1.378 . S
C712 C716 1.350 . S
C713 C716 1.463 1_455 S
C713 C718 1.350 . S
C713 N721 1.427 . S
C714 H705 0.930 . S
C714 C712 1.378 . S
C714 C715 1.367 . S
C715 C714 1.367 . S
C715 C717 1.433 . S
C716 C712 1.350 . S
C716 C713 1.463 1_655 S
C716 N720 1.427 . S
C717 H707 0.929 . S
C717 C715 1.433 . S
C717 N720 1.384 . S
C718 H709 0.929 1_455 S
C718 C710 1.378 . S
C718 C713 1.350 . S
C719 H706 0.929 . S
C719 C711 1.433 . S
C719 N721 1.384 . S
N720 C716 1.427 . S
N720 C717 1.384 . S
N721 C713 1.427 . S
N721 C719 1.384 . S
H722 C728 0.930 . S
H723 C732 0.930 . S
H724 C737 0.929 . S
H725 C735 0.929 . S
H726 C730 0.929 . S
H727 C736 0.929 . S
C728 H722 0.930 . S
C728 C729 1.367 . S
C728 C736 1.378 1_545 S
C729 C728 1.367 . S
C729 C737 1.433 . S
C730 H726 0.929 . S
C730 C732 1.378 1_545 S
C730 C734 1.350 1_545 S
C731 C734 1.463 1_545 S
C731 C736 1.350 1_545 S
C731 N739 1.427 . S
C732 H723 0.930 . S
C732 C730 1.378 1_565 S
C732 C733 1.367 . S
C733 C732 1.367 . S
C733 C735 1.433 . S
C734 C730 1.350 1_565 S
C734 C731 1.463 1_565 S
C734 N738 1.427 . S
C735 H725 0.929 . S
C735 C733 1.433 . S
C735 N738 1.384 . S
C736 H727 0.929 . S
C736 C728 1.378 1_565 S
C736 C731 1.350 1_565 S
C737 H724 0.929 . S
C737 C729 1.433 . S
C737 N739 1.384 . S
N738 C734 1.427 . S
N738 C735 1.384 . S
N739 C731 1.427 . S
N739 C737 1.384 . S
H740 C746 0.930 . S
H741 C750 0.930 . S
H742 C755 0.929 . S
H743 C753 0.929 . S
H744 C748 0.929 . S
H745 C754 0.929 . S
C746 H740 0.930 . S
C746 C747 1.367 . S
C746 C754 1.378 1_545 S
C747 C746 1.367 . S
C747 C755 1.433 . S
C748 H744 0.929 . S
C748 C750 1.378 1_545 S
C748 C752 1.350 1_545 S
C749 C752 1.463 1_446 S
C749 C754 1.350 1_545 S
C749 N757 1.427 1_556 S
C750 H741 0.930 . S
C750 C748 1.378 1_565 S
C750 C751 1.367 . S
C751 C750 1.367 . S
C751 C753 1.433 . S
C752 C748 1.350 1_565 S
C752 C749 1.463 1_664 S
C752 N756 1.427 1_554 S
C753 H743 0.929 . S
C753 C751 1.433 . S
C753 N756 1.384 1_554 S
C754 H745 0.929 . S
C754 C746 1.378 1_565 S
C754 C749 1.350 1_565 S
C755 H742 0.929 . S
C755 C747 1.433 . S
C755 N757 1.384 1_556 S
N756 C752 1.427 1_556 S
N756 C753 1.384 1_556 S
N757 C749 1.427 1_554 S
N757 C755 1.384 1_554 S
H758 C764 0.930 1_554 S
H759 C768 0.930 1_556 S
H760 C773 0.929 . S
H761 C771 0.929 . S
H762 C766 0.929 . S
H763 C772 0.929 . S
C764 H758 0.930 1_556 S
C764 C765 1.367 . S
C764 C772 1.378 1_556 S
C765 C764 1.367 . S
C765 C773 1.433 . S
C766 H762 0.929 . S
C766 C768 1.378 1_556 S
C766 C770 1.350 1_556 S
C767 C770 1.463 1_556 S
C767 C772 1.350 1_556 S
C767 N775 1.427 . S
C768 H759 0.930 1_554 S
C768 C766 1.378 1_554 S
C768 C769 1.367 . S
C769 C768 1.367 . S
C769 C771 1.433 . S
C770 C766 1.350 1_554 S
C770 C767 1.463 1_554 S
C770 N774 1.427 . S
C771 H761 0.929 . S
C771 C769 1.433 . S
C771 N774 1.384 . S
C772 H763 0.929 . S
C772 C764 1.378 1_554 S
C772 C767 1.350 1_554 S
C773 H760 0.929 . S
C773 C765 1.433 . S
C773 N775 1.384 . S
N774 C770 1.427 . S
N774 C771 1.384 . S
N775 C767 1.427 . S
N775 C773 1.384 . S
H776 C782 0.930 . S
H777 C786 0.930 . S
H778 C791 0.929 . S
H779 C789 0.929 . S
H780 C784 0.929 . S
H781 C790 0.929 . S
C782 H776 0.930 . S
C782 C783 1.367 . S
C782 C790 1.378 . S
C783 C782 1.367 . S
C783 C791 1.433 . S
C784 H780 0.929 . S
C784 C786 1.378 . S
C784 C788 1.350 . S
C785 C788 1.463 1_655 S
C785 C790 1.350 . S
C785 N793 1.427 . S
C786 H777 0.930 . S
C786 C784 1.378 . S
C786 C787 1.367 . S
C787 C786 1.367 . S
C787 C789 1.433 . S
C788 C784 1.350 . S
C788 C785 1.463 1_455 S
C788 N792 1.427 . S
C789 H779 0.929 . S
C789 C787 1.433 . S
C789 N792 1.384 . S
C790 H781 0.929 . S
C790 C782 1.378 . S
C790 C785 1.350 . S
C791 H778 0.929 . S
C791 C783 1.433 . S
C791 N793 1.384 . S
N792 C788 1.427 . S
N792 C789 1.384 . S
N793 C785 1.427 . S
N793 C791 1.384 . S
H794 C800 0.930 . S
H795 C804 0.930 . S
H796 C809 0.929 . S
H797 C807 0.929 . S
H798 C802 0.934 . S
H799 C808 0.934 . S
C800 H794 0.930 . S
C800 C801 1.367 . S
C800 C808 1.374 1_545 S
C801 C800 1.367 . S
C801 C809 1.433 . S
C802 H798 0.934 . S
C802 C804 1.374 1_545 S
C802 C806 1.348 1_545 S
C803 C806 1.463 1_545 S
C803 C808 1.348 1_545 S
C803 N811 1.427 . S
C804 H795 0.930 . S
C804 C802 1.374 1_565 S
C804 C805 1.367 . S
C805 C804 1.367 . S
C805 C807 1.433 . S
C806 C802 1.348 1_565 S
C806 C803 1.463 1_565 S
C806 N810 1.427 . S
C807 H797 0.929 . S
C807 C805 1.433 . S
C807 N810 1.384 . S
C808 H799 0.934 . S
C808 C800 1.374 1_565 S
C808 C803 1.348 1_565 S
C809 H796 0.929 . S
C809 C801 1.433 . S
C809 N811 1.384 . S
N810 C806 1.427 . S
N810 C807 1.384 . S
N811 C803 1.427 . S
N811 C809 1.384 . S
H812 C818 0.930 . S
H813 C822 0.930 . S
H814 C827 0.929 . S
H815 C825 0.929 . S
H816 C820 0.929 . S
H817 C826 0.929 . S
C818 H812 0.930 . S
C818 C819 1.367 . S
C818 C826 1.378 . S
C819 C818 1.367 . S
C819 C827 1.433 . S
C820 H816 0.929 . S
C820 C822 1.378 . S
C820 C824 1.350 . S
C821 C824 1.463 1_556 S
C821 C826 1.350 . S
C821 N829 1.422 1_556 S
C822 H813 0.930 . S
C822 C820 1.378 . S
C822 C823 1.367 . S
C823 C822 1.367 . S
C823 C825 1.433 . S
C824 C820 1.350 . S
C824 C821 1.463 1_554 S
C824 N828 1.422 1_554 S
C825 H815 0.929 . S
C825 C823 1.433 . S
C825 N828 1.374 1_554 S
C826 H817 0.929 . S
C826 C818 1.378 . S
C826 C821 1.350 . S
C827 H814 0.929 . S
C827 C819 1.433 . S
C827 N829 1.374 1_556 S
N828 C824 1.422 1_556 S
N828 C825 1.374 1_556 S
N829 C821 1.422 1_554 S
N829 C827 1.374 1_554 S
H830 C836 0.930 . S
H831 C840 0.930 . S
H832 C845 0.929 . S
H833 C843 0.929 . S
H834 C838 0.929 . S
H835 C844 0.929 . S
C836 H830 0.930 . S
C836 C837 1.367 . S
C836 C844 1.378 . S
C837 C836 1.367 . S
C837 C845 1.433 . S
C838 H834 0.929 . S
C838 C840 1.378 . S
C838 C842 1.350 . S
C839 C842 1.463 . S
C839 C844 1.350 . S
C839 N847 1.427 . S
C840 H831 0.930 . S
C840 C838 1.378 . S
C840 C841 1.367 . S
C841 C840 1.367 . S
C841 C843 1.433 . S
C842 C838 1.350 . S
C842 C839 1.463 . S
C842 N846 1.427 . S
C843 H833 0.929 . S
C843 C841 1.433 . S
C843 N846 1.384 . S
C844 H835 0.929 . S
C844 C836 1.378 . S
C844 C839 1.350 . S
C845 H832 0.929 . S
C845 C837 1.433 . S
C845 N847 1.384 . S
N846 C842 1.427 . S
N846 C843 1.384 . S
N847 C839 1.427 . S
N847 C845 1.384 . S
H848 C854 0.930 . S
H849 C858 0.930 . S
H850 C863 0.929 . S
H851 C861 0.929 . S
H852 C856 0.929 . S
H853 C862 0.929 . S
C854 H848 0.930 . S
C854 C855 1.367 . S
C854 C862 1.378 . S
C855 C854 1.367 . S
C855 C863 1.433 . S
C856 H852 0.929 . S
C856 C858 1.378 . S
C856 C860 1.350 . S
C857 C860 1.463 1_455 S
C857 C862 1.350 . S
C857 N865 1.427 . S
C858 H849 0.930 . S
C858 C856 1.378 . S
C858 C859 1.367 . S
C859 C858 1.367 . S
C859 C861 1.433 . S
C860 C856 1.350 . S
C860 C857 1.463 1_655 S
C860 N864 1.427 . S
C861 H851 0.929 . S
C861 C859 1.433 . S
C861 N864 1.384 . S
C862 H853 0.929 . S
C862 C854 1.378 . S
C862 C857 1.350 . S
C863 H850 0.929 . S
C863 C855 1.433 . S
C863 N865 1.384 . S
N864 C860 1.427 . S
N864 C861 1.384 . S
N865 C857 1.427 . S
N865 C863 1.384 . S
H866 C872 0.930 . S
H867 C876 0.930 . S
H868 C881 0.929 . S
H869 C879 0.929 . S
H870 C874 0.929 . S
H871 C880 0.929 . S
C872 H866 0.930 . S
C872 C873 1.367 . S
C872 C880 1.378 . S
C873 C872 1.367 . S
C873 C881 1.433 . S
C874 H870 0.929 . S
C874 C876 1.378 . S
C874 C878 1.350 . S
C875 C878 1.463 . S
C875 C880 1.350 . S
C875 N883 1.427 . S
C876 H867 0.930 . S
C876 C874 1.378 . S
C876 C877 1.367 . S
C877 C876 1.367 . S
C877 C879 1.433 . S
C878 C874 1.350 . S
C878 C875 1.463 . S
C878 N882 1.427 . S
C879 H869 0.929 . S
C879 C877 1.433 . S
C879 N882 1.384 . S
C880 H871 0.929 . S
C880 C872 1.378 . S
C880 C875 1.350 . S
C881 H868 0.929 . S
C881 C873 1.433 . S
C881 N883 1.384 . S
N882 C878 1.427 . S
N882 C879 1.384 . S
N883 C875 1.427 . S
N883 C881 1.384 . S
H884 C890 0.930 . S
H885 C894 0.930 . S
H886 C899 0.929 . S
H887 C897 0.929 . S
H888 C892 0.929 . S
H889 C898 0.929 . S
C890 H884 0.930 . S
C890 C891 1.367 . S
C890 C898 1.378 . S
C891 C890 1.367 . S
C891 C899 1.433 . S
C892 H888 0.929 . S
C892 C894 1.378 . S
C892 C896 1.350 . S
C893 C896 1.463 . S
C893 C898 1.350 . S
C893 N901 1.427 . S
C894 H885 0.930 . S
C894 C892 1.378 . S
C894 C895 1.367 . S
C895 C894 1.367 . S
C895 C897 1.433 . S
C896 C892 1.350 . S
C896 C893 1.463 . S
C896 N900 1.427 . S
C897 H887 0.929 . S
C897 C895 1.433 . S
C897 N900 1.384 . S
C898 H889 0.929 . S
C898 C890 1.378 . S
C898 C893 1.350 . S
C899 H886 0.929 . S
C899 C891 1.433 . S
C899 N901 1.384 . S
N900 C896 1.427 . S
N900 C897 1.384 . S
N901 C893 1.427 . S
N901 C899 1.384 . S
H902 C908 0.930 . S
H903 C912 0.930 . S
H904 C917 0.929 . S
H905 C915 0.929 . S
H906 C910 0.929 . S
H907 C916 0.929 . S
C908 H902 0.930 . S
C908 C909 1.367 . S
C908 C916 1.378 . S
C909 C908 1.367 . S
C909 C917 1.433 . S
C910 H906 0.929 . S
C910 C912 1.378 . S
C910 C914 1.350 . S
C911 C914 1.463 . S
C911 C916 1.350 . S
C911 N919 1.427 . S
C912 H903 0.930 . S
C912 C910 1.378 . S
C912 C913 1.367 . S
C913 C912 1.367 . S
C913 C915 1.433 . S
C914 C910 1.350 . S
C914 C911 1.463 . S
C914 N918 1.427 . S
C915 H905 0.929 . S
C915 C913 1.433 . S
C915 N918 1.384 . S
C916 H907 0.929 . S
C916 C908 1.378 . S
C916 C911 1.350 . S
C917 H904 0.929 . S
C917 C909 1.433 . S
C917 N919 1.384 . S
N918 C914 1.427 . S
N918 C915 1.384 . S
N919 C911 1.427 . S
N919 C917 1.384 . S
H920 C926 0.930 . S
H921 C930 0.930 . S
H922 C935 0.929 . S
H923 C933 0.929 . S
H924 C928 0.929 . S
H925 C934 0.929 . S
C926 H920 0.930 . S
C926 C927 1.367 . S
C926 C934 1.378 . S
C927 C926 1.367 . S
C927 C935 1.433 . S
C928 H924 0.929 . S
C928 C930 1.378 . S
C928 C932 1.350 . S
C929 C932 1.463 . S
C929 C934 1.350 . S
C929 N937 1.427 . S
C930 H921 0.930 . S
C930 C928 1.378 . S
C930 C931 1.367 . S
C931 C930 1.367 . S
C931 C933 1.433 . S
C932 C928 1.350 . S
C932 C929 1.463 . S
C932 N936 1.427 . S
C933 H923 0.929 . S
C933 C931 1.433 . S
C933 N936 1.384 . S
C934 H925 0.929 . S
C934 C926 1.378 . S
C934 C929 1.350 . S
C935 H922 0.929 . S
C935 C927 1.433 . S
C935 N937 1.384 . S
N936 C932 1.427 . S
N936 C933 1.384 . S
N937 C929 1.427 . S
N937 C935 1.384 . S
H938 C944 0.930 . S
H939 C948 0.930 . S
H940 C953 0.929 . S
H941 C951 0.929 . S
H942 C946 0.929 . S
H943 C952 0.929 . S
C944 H938 0.930 . S
C944 C945 1.367 . S
C944 C952 1.378 . S
C945 C944 1.367 . S
C945 C953 1.433 . S
C946 H942 0.929 . S
C946 C948 1.378 . S
C946 C950 1.350 . S
C947 C950 1.463 1_565 S
C947 C952 1.350 . S
C947 N955 1.427 . S
C948 H939 0.930 . S
C948 C946 1.378 . S
C948 C949 1.367 . S
C949 C948 1.367 . S
C949 C951 1.433 . S
C950 C946 1.350 . S
C950 C947 1.463 1_545 S
C950 N954 1.427 . S
C951 H941 0.929 . S
C951 C949 1.433 . S
C951 N954 1.384 . S
C952 H943 0.929 . S
C952 C944 1.378 . S
C952 C947 1.350 . S
C953 H940 0.929 . S
C953 C945 1.433 . S
C953 N955 1.384 . S
N954 C950 1.427 . S
N954 C951 1.384 . S
N955 C947 1.427 . S
N955 C953 1.384 . S
H956 C962 0.930 . S
H957 C966 0.930 . S
H958 C971 0.929 . S
H959 C969 0.929 . S
H960 C964 0.929 . S
H961 C970 0.929 . S
C962 H956 0.930 . S
C962 C963 1.367 . S
C962 C970 1.378 . S
C963 C962 1.367 . S
C963 C971 1.433 . S
C964 H960 0.929 . S
C964 C966 1.378 . S
C964 C968 1.350 . S
C965 C968 1.463 . S
C965 C970 1.350 . S
C965 N973 1.427 . S
C966 H957 0.930 . S
C966 C964 1.378 . S
C966 C967 1.367 . S
C967 C966 1.367 . S
C967 C969 1.433 . S
C968 C964 1.350 . S
C968 C965 1.463 . S
C968 N972 1.427 . S
C969 H959 0.929 . S
C969 C967 1.433 . S
C969 N972 1.384 . S
C970 H961 0.929 . S
C970 C962 1.378 . S
C970 C965 1.350 . S
C971 H958 0.929 . S
C971 C963 1.433 . S
C971 N973 1.384 . S
N972 C968 1.427 . S
N972 C969 1.384 . S
N973 C965 1.427 . S
N973 C971 1.384 . S
H974 C980 0.930 . S
H975 C984 0.930 . S
H976 C989 0.940 . S
H977 C987 0.940 . S
H978 C982 0.929 . S
H979 C988 0.929 . S
C980 H974 0.930 . S
C980 C981 1.367 . S
C980 C988 1.378 . S
C981 C980 1.367 . S
C981 C989 1.415 1_554 S
C982 H978 0.929 . S
C982 C984 1.378 . S
C982 C986 1.350 . S
C983 C986 1.463 1_554 S
C983 C988 1.350 . S
C983 N991 1.427 1_554 S
C984 H975 0.930 . S
C984 C982 1.378 . S
C984 C985 1.367 . S
C985 C984 1.367 . S
C985 C987 1.415 1_556 S
C986 C982 1.350 . S
C986 C983 1.463 1_556 S
C986 N990 1.427 1_556 S
C987 H977 0.940 . S
C987 C985 1.415 1_554 S
C987 N990 1.391 . S
C988 H979 0.929 . S
C988 C980 1.378 . S
C988 C983 1.350 . S
C989 H976 0.940 . S
C989 C981 1.415 1_556 S
C989 N991 1.391 . S
N990 C986 1.427 1_554 S
N990 C987 1.391 . S
N991 C983 1.427 1_556 S
N991 C989 1.391 . S
H992 C998 0.930 . S
H993 C1002 0.930 . S
H994 C1007 0.929 . S
H995 C1005 0.929 . S
H996 C1000 0.929 . S
H997 C1006 0.929 . S
C998 H992 0.930 . S
C998 C999 1.367 . S
C998 C1006 1.378 . S
C999 C998 1.367 . S
C999 C1007 1.433 . S
C1000 H996 0.929 . S
C1000 C1002 1.378 . S
C1000 C1004 1.350 . S
C1001 C1004 1.463 . S
C1001 C1006 1.350 . S
C1001 N1009 1.427 . S
C1002 H993 0.930 . S
C1002 C1000 1.378 . S
C1002 C1003 1.367 . S
C1003 C1002 1.367 . S
C1003 C1005 1.433 . S
C1004 C1000 1.350 . S
C1004 C1001 1.463 . S
C1004 N1008 1.427 . S
C1005 H995 0.929 . S
C1005 C1003 1.433 . S
C1005 N1008 1.384 . S
C1006 H997 0.929 . S
C1006 C998 1.378 . S
C1006 C1001 1.350 . S
C1007 H994 0.929 . S
C1007 C999 1.433 . S
C1007 N1009 1.384 . S
N1008 C1004 1.427 . S
N1008 C1005 1.384 . S
N1009 C1001 1.427 . S
N1009 C1007 1.384 . S
H1010 C1016 0.930 . S
H1011 C1020 0.930 1_545 S
H1012 C1025 0.929 . S
H1013 C1023 0.929 . S
H1014 C1018 0.929 . S
H1015 C1024 0.929 . S
C1016 H1010 0.930 . S
C1016 C1017 1.367 . S
C1016 C1024 1.378 . S
C1017 C1016 1.367 . S
C1017 C1025 1.433 . S
C1018 H1014 0.929 . S
C1018 C1020 1.378 . S
C1018 C1022 1.350 . S
C1019 C1022 1.463 . S
C1019 C1024 1.350 . S
C1019 N1027 1.427 . S
C1020 H1011 0.930 1_565 S
C1020 C1018 1.378 . S
C1020 C1021 1.367 . S
C1021 C1020 1.367 . S
C1021 C1023 1.433 . S
C1022 C1018 1.350 . S
C1022 C1019 1.463 . S
C1022 N1026 1.427 . S
C1023 H1013 0.929 . S
C1023 C1021 1.433 . S
C1023 N1026 1.384 . S
C1024 H1015 0.929 . S
C1024 C1016 1.378 . S
C1024 C1019 1.350 . S
C1025 H1012 0.929 . S
C1025 C1017 1.433 . S
C1025 N1027 1.384 . S
N1026 C1022 1.427 . S
N1026 C1023 1.384 . S
N1027 C1019 1.427 . S
N1027 C1025 1.384 . S
H1028 C1034 0.930 1_545 S
H1029 C1038 0.930 . S
H1030 C1043 0.929 . S
H1031 C1041 0.929 . S
H1032 C1036 0.929 . S
H1033 C1042 0.929 . S
C1034 H1028 0.930 1_565 S
C1034 C1035 1.367 . S
C1034 C1042 1.378 . S
C1035 C1034 1.367 . S
C1035 C1043 1.433 . S
C1036 H1032 0.929 . S
C1036 C1038 1.378 . S
C1036 C1040 1.350 . S
C1037 C1040 1.463 . S
C1037 C1042 1.350 . S
C1037 N1045 1.427 . S
C1038 H1029 0.930 . S
C1038 C1036 1.378 . S
C1038 C1039 1.367 . S
C1039 C1038 1.367 . S
C1039 C1041 1.433 . S
C1040 C1036 1.350 . S
C1040 C1037 1.463 . S
C1040 N1044 1.427 . S
C1041 H1031 0.929 . S
C1041 C1039 1.433 . S
C1041 N1044 1.384 . S
C1042 H1033 0.929 . S
C1042 C1034 1.378 . S
C1042 C1037 1.350 . S
C1043 H1030 0.929 . S
C1043 C1035 1.433 . S
C1043 N1045 1.384 . S
N1044 C1040 1.427 . S
N1044 C1041 1.384 . S
N1045 C1037 1.427 . S
N1045 C1043 1.384 . S
H1046 C1052 0.930 . S
H1047 C1056 0.930 . S
H1048 C1061 0.929 . S
H1049 C1059 0.929 . S
H1050 C1054 0.929 . S
H1051 C1060 0.929 . S
C1052 H1046 0.930 . S
C1052 C1053 1.367 . S
C1052 C1060 1.378 . S
C1053 C1052 1.367 . S
C1053 C1061 1.433 . S
C1054 H1050 0.929 . S
C1054 C1056 1.378 . S
C1054 C1058 1.350 . S
C1055 C1058 1.463 . S
C1055 C1060 1.350 . S
C1055 N1063 1.427 . S
C1056 H1047 0.930 . S
C1056 C1054 1.378 . S
C1056 C1057 1.367 . S
C1057 C1056 1.367 . S
C1057 C1059 1.433 . S
C1058 C1054 1.350 . S
C1058 C1055 1.463 . S
C1058 N1062 1.427 . S
C1059 H1049 0.929 . S
C1059 C1057 1.433 . S
C1059 N1062 1.384 . S
C1060 H1051 0.929 . S
C1060 C1052 1.378 . S
C1060 C1055 1.350 . S
C1061 H1048 0.929 . S
C1061 C1053 1.433 . S
C1061 N1063 1.384 . S
N1062 C1058 1.427 . S
N1062 C1059 1.384 . S
N1063 C1055 1.427 . S
N1063 C1061 1.384 . S
H1064 C1070 0.930 . S
H1065 C1074 0.930 . S
H1066 C1079 0.929 . S
H1067 C1077 0.929 . S
H1068 C1072 0.929 . S
H1069 C1078 0.929 . S
C1070 H1064 0.930 . S
C1070 C1071 1.367 . S
C1070 C1078 1.378 . S
C1071 C1070 1.367 . S
C1071 C1079 1.433 . S
C1072 H1068 0.929 . S
C1072 C1074 1.378 . S
C1072 C1076 1.350 . S
C1073 C1076 1.463 . S
C1073 C1078 1.350 . S
C1073 N1081 1.427 . S
C1074 H1065 0.930 . S
C1074 C1072 1.378 . S
C1074 C1075 1.367 . S
C1075 C1074 1.367 . S
C1075 C1077 1.433 . S
C1076 C1072 1.350 . S
C1076 C1073 1.463 . S
C1076 N1080 1.427 . S
C1077 H1067 0.929 . S
C1077 C1075 1.433 . S
C1077 N1080 1.384 . S
C1078 H1069 0.929 . S
C1078 C1070 1.378 . S
C1078 C1073 1.350 . S
C1079 H1066 0.929 . S
C1079 C1071 1.433 . S
C1079 N1081 1.384 . S
N1080 C1076 1.427 . S
N1080 C1077 1.384 . S
N1081 C1073 1.427 . S
N1081 C1079 1.384 . S
H1082 C1088 0.930 1_565 S
H1083 C1092 0.930 . S
H1084 C1097 0.929 . S
H1085 C1095 0.929 . S
H1086 C1090 0.929 . S
H1087 C1096 0.929 . S
C1088 H1082 0.930 1_545 S
C1088 C1089 1.367 . S
C1088 C1096 1.378 . S
C1089 C1088 1.367 . S
C1089 C1097 1.433 . S
C1090 H1086 0.929 . S
C1090 C1092 1.378 . S
C1090 C1094 1.350 . S
C1091 C1094 1.463 . S
C1091 C1096 1.350 . S
C1091 N1099 1.427 . S
C1092 H1083 0.930 . S
C1092 C1090 1.378 . S
C1092 C1093 1.367 . S
C1093 C1092 1.367 . S
C1093 C1095 1.433 . S
C1094 C1090 1.350 . S
C1094 C1091 1.463 . S
C1094 N1098 1.427 . S
C1095 H1085 0.929 . S
C1095 C1093 1.433 . S
C1095 N1098 1.384 . S
C1096 H1087 0.929 . S
C1096 C1088 1.378 . S
C1096 C1091 1.350 . S
C1097 H1084 0.929 . S
C1097 C1089 1.433 . S
C1097 N1099 1.384 . S
N1098 C1094 1.427 . S
N1098 C1095 1.384 . S
N1099 C1091 1.427 . S
N1099 C1097 1.384 . S
H1100 C1106 0.930 . S
H1101 C1110 0.930 1_565 S
H1102 C1115 0.929 . S
H1103 C1113 0.929 . S
H1104 C1108 0.929 . S
H1105 C1114 0.929 . S
C1106 H1100 0.930 . S
C1106 C1107 1.367 . S
C1106 C1114 1.378 . S
C1107 C1106 1.367 . S
C1107 C1115 1.433 . S
C1108 H1104 0.929 . S
C1108 C1110 1.378 . S
C1108 C1112 1.350 . S
C1109 C1112 1.463 . S
C1109 C1114 1.350 . S
C1109 N1117 1.427 . S
C1110 H1101 0.930 1_545 S
C1110 C1108 1.378 . S
C1110 C1111 1.367 . S
C1111 C1110 1.367 . S
C1111 C1113 1.433 . S
C1112 C1108 1.350 . S
C1112 C1109 1.463 . S
C1112 N1116 1.427 . S
C1113 H1103 0.929 . S
C1113 C1111 1.433 . S
C1113 N1116 1.384 . S
C1114 H1105 0.929 . S
C1114 C1106 1.378 . S
C1114 C1109 1.350 . S
C1115 H1102 0.929 . S
C1115 C1107 1.433 . S
C1115 N1117 1.384 . S
N1116 C1112 1.427 . S
N1116 C1113 1.384 . S
N1117 C1109 1.427 . S
N1117 C1115 1.384 . S
H1118 C1124 0.930 . S
H1119 C1128 0.930 . S
H1120 C1133 0.929 . S
H1121 C1131 0.929 . S
H1122 C1126 0.929 . S
H1123 C1132 0.929 . S
C1124 H1118 0.930 . S
C1124 C1125 1.367 . S
C1124 C1132 1.378 . S
C1125 C1124 1.367 . S
C1125 C1133 1.433 . S
C1126 H1122 0.929 . S
C1126 C1128 1.378 . S
C1126 C1130 1.350 . S
C1127 C1130 1.463 . S
C1127 C1132 1.350 . S
C1127 N1135 1.427 . S
C1128 H1119 0.930 . S
C1128 C1126 1.378 . S
C1128 C1129 1.367 . S
C1129 C1128 1.367 . S
C1129 C1131 1.433 . S
C1130 C1126 1.350 . S
C1130 C1127 1.463 . S
C1130 N1134 1.427 . S
C1131 H1121 0.929 . S
C1131 C1129 1.433 . S
C1131 N1134 1.384 . S
C1132 H1123 0.929 . S
C1132 C1124 1.378 . S
C1132 C1127 1.350 . S
C1133 H1120 0.929 . S
C1133 C1125 1.433 . S
C1133 N1135 1.384 . S
N1134 C1130 1.427 . S
N1134 C1131 1.384 . S
N1135 C1127 1.427 . S
N1135 C1133 1.384 . S
H1136 C1142 0.930 . S
H1137 C1146 0.930 . S
H1138 C1151 0.929 . S
H1139 C1149 0.929 . S
H1140 C1144 0.929 . S
H1141 C1150 0.929 . S
C1142 H1136 0.930 . S
C1142 C1143 1.367 . S
C1142 C1150 1.378 . S
C1143 C1142 1.367 . S
C1143 C1151 1.433 . S
C1144 H1140 0.929 . S
C1144 C1146 1.378 . S
C1144 C1148 1.350 . S
C1145 C1148 1.463 . S
C1145 C1150 1.350 . S
C1145 N1153 1.427 . S
C1146 H1137 0.930 . S
C1146 C1144 1.378 . S
C1146 C1147 1.367 . S
C1147 C1146 1.367 . S
C1147 C1149 1.433 . S
C1148 C1144 1.350 . S
C1148 C1145 1.463 . S
C1148 N1152 1.427 . S
C1149 H1139 0.929 . S
C1149 C1147 1.433 . S
C1149 N1152 1.384 . S
C1150 H1141 0.929 . S
C1150 C1142 1.378 . S
C1150 C1145 1.350 . S
C1151 H1138 0.929 . S
C1151 C1143 1.433 . S
C1151 N1153 1.384 . S
N1152 C1148 1.427 . S
N1152 C1149 1.384 . S
N1153 C1145 1.427 . S
N1153 C1151 1.384 . S
H1154 C1160 0.930 . S
H1155 C1164 0.930 . S
H1156 C1169 0.929 . S
H1157 C1167 0.929 . S
H1158 C1162 0.929 . S
H1159 C1168 0.929 . S
C1160 H1154 0.930 . S
C1160 C1161 1.367 . S
C1160 C1168 1.378 . S
C1161 C1160 1.367 . S
C1161 C1169 1.433 . S
C1162 H1158 0.929 . S
C1162 C1164 1.378 . S
C1162 C1166 1.350 . S
C1163 C1166 1.463 . S
C1163 C1168 1.350 . S
C1163 N1171 1.427 . S
C1164 H1155 0.930 . S
C1164 C1162 1.378 . S
C1164 C1165 1.367 . S
C1165 C1164 1.367 . S
C1165 C1167 1.433 . S
C1166 C1162 1.350 . S
C1166 C1163 1.463 . S
C1166 N1170 1.427 . S
C1167 H1157 0.929 . S
C1167 C1165 1.433 . S
C1167 N1170 1.384 . S
C1168 H1159 0.929 . S
C1168 C1160 1.378 . S
C1168 C1163 1.350 . S
C1169 H1156 0.929 . S
C1169 C1161 1.433 . S
C1169 N1171 1.384 . S
N1170 C1166 1.427 . S
N1170 C1167 1.384 . S
N1171 C1163 1.427 . S
N1171 C1169 1.384 . S
H1172 C1178 0.930 . S
H1173 C1182 0.930 1_545 S
H1174 C1187 0.929 . S
H1175 C1185 0.929 . S
H1176 C1180 0.929 . S
H1177 C1186 0.929 . S
C1178 H1172 0.930 . S
C1178 C1179 1.367 . S
C1178 C1186 1.378 . S
C1179 C1178 1.367 . S
C1179 C1187 1.433 . S
C1180 H1176 0.929 . S
C1180 C1182 1.378 . S
C1180 C1184 1.350 . S
C1181 C1184 1.463 . S
C1181 C1186 1.350 . S
C1181 N1189 1.427 . S
C1182 H1173 0.930 1_565 S
C1182 C1180 1.378 . S
C1182 C1183 1.367 . S
C1183 C1182 1.367 . S
C1183 C1185 1.433 . S
C1184 C1180 1.350 . S
C1184 C1181 1.463 . S
C1184 N1188 1.427 . S
C1185 H1175 0.929 . S
C1185 C1183 1.433 . S
C1185 N1188 1.384 . S
C1186 H1177 0.929 . S
C1186 C1178 1.378 . S
C1186 C1181 1.350 . S
C1187 H1174 0.929 . S
C1187 C1179 1.433 . S
C1187 N1189 1.384 . S
N1188 C1184 1.427 . S
N1188 C1185 1.384 . S
N1189 C1181 1.427 . S
N1189 C1187 1.384 . S
H1190 C1196 0.930 . S
H1191 C1200 0.930 . S
H1192 C1205 0.929 . S
H1193 C1203 0.929 . S
H1194 C1198 0.929 . S
H1195 C1204 0.929 . S
C1196 H1190 0.930 . S
C1196 C1197 1.367 . S
C1196 C1204 1.378 . S
C1197 C1196 1.367 . S
C1197 C1205 1.433 . S
C1198 H1194 0.929 . S
C1198 C1200 1.378 . S
C1198 C1202 1.350 . S
C1199 C1202 1.463 . S
C1199 C1204 1.350 . S
C1199 N1207 1.427 . S
C1200 H1191 0.930 . S
C1200 C1198 1.378 . S
C1200 C1201 1.367 . S
C1201 C1200 1.367 . S
C1201 C1203 1.433 . S
C1202 C1198 1.350 . S
C1202 C1199 1.463 . S
C1202 N1206 1.427 . S
C1203 H1193 0.929 . S
C1203 C1201 1.433 . S
C1203 N1206 1.384 . S
C1204 H1195 0.929 . S
C1204 C1196 1.378 . S
C1204 C1199 1.350 . S
C1205 H1192 0.929 . S
C1205 C1197 1.433 . S
C1205 N1207 1.384 . S
N1206 C1202 1.427 . S
N1206 C1203 1.384 . S
N1207 C1199 1.427 . S
N1207 C1205 1.384 . S
H1208 C1214 0.930 . S
H1209 C1218 0.930 . S
H1210 C1223 0.929 . S
H1211 C1221 0.929 . S
H1212 C1216 0.929 . S
H1213 C1222 0.929 . S
C1214 H1208 0.930 . S
C1214 C1215 1.367 . S
C1214 C1222 1.378 . S
C1215 C1214 1.367 . S
C1215 C1223 1.433 . S
C1216 H1212 0.929 . S
C1216 C1218 1.378 . S
C1216 C1220 1.350 . S
C1217 C1220 1.463 . S
C1217 C1222 1.350 . S
C1217 N1225 1.427 . S
C1218 H1209 0.930 . S
C1218 C1216 1.378 . S
C1218 C1219 1.367 . S
C1219 C1218 1.367 . S
C1219 C1221 1.433 . S
C1220 C1216 1.350 . S
C1220 C1217 1.463 . S
C1220 N1224 1.427 . S
C1221 H1211 0.929 . S
C1221 C1219 1.433 . S
C1221 N1224 1.384 . S
C1222 H1213 0.929 . S
C1222 C1214 1.378 . S
C1222 C1217 1.350 . S
C1223 H1210 0.929 . S
C1223 C1215 1.433 . S
C1223 N1225 1.384 . S
N1224 C1220 1.427 . S
N1224 C1221 1.384 . S
N1225 C1217 1.427 . S
N1225 C1223 1.384 . S
H1226 C1232 0.945 . S
H1227 C1236 0.930 . S
H1228 C1241 0.929 . S
H1229 C1239 0.929 . S
H1230 C1234 0.929 . S
H1231 C1240 0.929 . S
C1232 H1226 0.945 . S
C1232 C1233 1.367 . S
C1232 C1240 1.378 . S
C1233 C1232 1.367 . S
C1233 C1241 1.433 . S
C1234 H1230 0.929 . S
C1234 C1236 1.378 . S
C1234 C1238 1.350 . S
C1235 C1238 1.463 . S
C1235 C1240 1.350 . S
C1235 N1243 1.427 . S
C1236 H1227 0.930 . S
C1236 C1234 1.378 . S
C1236 C1237 1.367 . S
C1237 C1236 1.367 . S
C1237 C1239 1.433 . S
C1238 C1234 1.350 . S
C1238 C1235 1.463 . S
C1238 N1242 1.427 . S
C1239 H1229 0.929 . S
C1239 C1237 1.433 . S
C1239 N1242 1.384 . S
C1240 H1231 0.929 . S
C1240 C1232 1.378 . S
C1240 C1235 1.350 . S
C1241 H1228 0.929 . S
C1241 C1233 1.433 . S
C1241 N1243 1.384 . S
N1242 C1238 1.427 . S
N1242 C1239 1.384 . S
N1243 C1235 1.427 . S
N1243 C1241 1.384 . S
H1244 C1250 0.930 . S
H1245 C1254 0.920 1_565 S
H1246 C1259 0.929 . S
H1247 C1257 0.929 . S
H1248 C1252 0.929 . S
H1249 C1258 0.929 . S
C1250 H1244 0.930 . S
C1250 C1251 1.367 . S
C1250 C1258 1.378 . S
C1251 C1250 1.367 . S
C1251 C1259 1.433 . S
C1252 H1248 0.929 . S
C1252 C1254 1.378 . S
C1252 C1256 1.350 . S
C1253 C1256 1.463 . S
C1253 C1258 1.350 . S
C1253 N1261 1.427 . S
C1254 H1245 0.920 1_545 S
C1254 C1252 1.378 . S
C1254 C1255 1.367 . S
C1255 C1254 1.367 . S
C1255 C1257 1.433 . S
C1256 C1252 1.350 . S
C1256 C1253 1.463 . S
C1256 N1260 1.427 . S
C1257 H1247 0.929 . S
C1257 C1255 1.433 . S
C1257 N1260 1.384 . S
C1258 H1249 0.929 . S
C1258 C1250 1.378 . S
C1258 C1253 1.350 . S
C1259 H1246 0.929 . S
C1259 C1251 1.433 . S
C1259 N1261 1.384 . S
N1260 C1256 1.427 . S
N1260 C1257 1.384 . S
N1261 C1253 1.427 . S
N1261 C1259 1.384 . S
H1262 C1268 0.930 . S
H1263 C1272 0.930 . S
H1264 C1277 0.929 . S
H1265 C1275 0.929 . S
H1266 C1270 0.929 . S
H1267 C1276 0.929 . S
C1268 H1262 0.930 . S
C1268 C1269 1.367 . S
C1268 C1276 1.378 . S
C1269 C1268 1.367 . S
C1269 C1277 1.433 . S
C1270 H1266 0.929 . S
C1270 C1272 1.378 . S
C1270 C1274 1.350 . S
C1271 C1274 1.463 . S
C1271 C1276 1.350 . S
C1271 N1279 1.427 . S
C1272 H1263 0.930 . S
C1272 C1270 1.378 . S
C1272 C1273 1.367 . S
C1273 C1272 1.367 . S
C1273 C1275 1.433 . S
C1274 C1270 1.350 . S
C1274 C1271 1.463 . S
C1274 N1278 1.427 . S
C1275 H1265 0.929 . S
C1275 C1273 1.433 . S
C1275 N1278 1.384 . S
C1276 H1267 0.929 . S
C1276 C1268 1.378 . S
C1276 C1271 1.350 . S
C1277 H1264 0.929 . S
C1277 C1269 1.433 . S
C1277 N1279 1.384 . S
N1278 C1274 1.427 . S
N1278 C1275 1.384 . S
N1279 C1271 1.427 . S
N1279 C1277 1.384 . S
H1280 C1286 0.930 . S
H1281 C1290 0.930 . S
H1282 C1295 0.929 . S
H1283 C1293 0.929 . S
H1284 C1288 0.929 . S
H1285 C1294 0.929 . S
C1286 H1280 0.930 . S
C1286 C1287 1.367 . S
C1286 C1294 1.378 . S
C1287 C1286 1.367 . S
C1287 C1295 1.433 . S
C1288 H1284 0.929 . S
C1288 C1290 1.378 . S
C1288 C1292 1.350 . S
C1289 C1292 1.463 . S
C1289 C1294 1.350 . S
C1289 N1297 1.427 . S
C1290 H1281 0.930 . S
C1290 C1288 1.378 . S
C1290 C1291 1.367 . S
C1291 C1290 1.367 . S
C1291 C1293 1.433 . S
C1292 C1288 1.350 . S
C1292 C1289 1.463 . S
C1292 N1296 1.427 . S
C1293 H1283 0.929 . S
C1293 C1291 1.433 . S
C1293 N1296 1.384 . S
C1294 H1285 0.929 . S
C1294 C1286 1.378 . S
C1294 C1289 1.350 . S
C1295 H1282 0.929 . S
C1295 C1287 1.433 . S
C1295 N1297 1.384 . S
N1296 C1292 1.427 . S
N1296 C1293 1.384 . S
N1297 C1289 1.427 . S
N1297 C1295 1.384 . S
H1298 C1304 0.930 . S
H1299 C1308 0.930 . S
H1300 C1313 0.929 . S
H1301 C1311 0.929 . S
H1302 C1306 0.929 . S
H1303 C1312 0.929 . S
C1304 H1298 0.930 . S
C1304 C1305 1.367 . S
C1304 C1312 1.378 . S
C1305 C1304 1.367 . S
C1305 C1313 1.433 . S
C1306 H1302 0.929 . S
C1306 C1308 1.378 . S
C1306 C1310 1.350 . S
C1307 C1310 1.463 . S
C1307 C1312 1.350 . S
C1307 N1315 1.427 . S
C1308 H1299 0.930 . S
C1308 C1306 1.378 . S
C1308 C1309 1.367 . S
C1309 C1308 1.367 . S
C1309 C1311 1.433 . S
C1310 C1306 1.350 . S
C1310 C1307 1.463 . S
C1310 N1314 1.427 . S
C1311 H1301 0.929 . S
C1311 C1309 1.433 . S
C1311 N1314 1.384 . S
C1312 H1303 0.929 . S
C1312 C1304 1.378 . S
C1312 C1307 1.350 . S
C1313 H1300 0.929 . S
C1313 C1305 1.433 . S
C1313 N1315 1.384 . S
N1314 C1310 1.427 . S
N1314 C1311 1.384 . S
N1315 C1307 1.427 . S
N1315 C1313 1.384 . S
H1316 C1322 0.930 . S
H1317 C1326 0.930 . S
H1318 C1331 0.929 . S
H1319 C1329 0.929 . S
H1320 C1324 0.929 . S
H1321 C1330 0.929 . S
C1322 H1316 0.930 . S
C1322 C1323 1.367 . S
C1322 C1330 1.378 . S
C1323 C1322 1.367 . S
C1323 C1331 1.433 . S
C1324 H1320 0.929 . S
C1324 C1326 1.378 . S
C1324 C1328 1.350 . S
C1325 C1328 1.463 . S
C1325 C1330 1.350 . S
C1325 N1333 1.427 . S
C1326 H1317 0.930 . S
C1326 C1324 1.378 . S
C1326 C1327 1.367 . S
C1327 C1326 1.367 . S
C1327 C1329 1.433 . S
C1328 C1324 1.350 . S
C1328 C1325 1.463 . S
C1328 N1332 1.427 . S
C1329 H1319 0.929 . S
C1329 C1327 1.433 . S
C1329 N1332 1.384 . S
C1330 H1321 0.929 . S
C1330 C1322 1.378 . S
C1330 C1325 1.350 . S
C1331 H1318 0.929 . S
C1331 C1323 1.433 . S
C1331 N1333 1.384 . S
N1332 C1328 1.427 . S
N1332 C1329 1.384 . S
N1333 C1325 1.427 . S
N1333 C1331 1.384 . S
H1334 C1340 0.930 1_545 S
H1335 C1344 0.930 . S
H1336 C1349 0.929 . S
H1337 C1347 0.929 . S
H1338 C1342 0.929 . S
H1339 C1348 0.929 . S
C1340 H1334 0.930 1_565 S
C1340 C1341 1.367 . S
C1340 C1348 1.378 . S
C1341 C1340 1.367 . S
C1341 C1349 1.433 . S
C1342 H1338 0.929 . S
C1342 C1344 1.378 . S
C1342 C1346 1.350 . S
C1343 C1346 1.463 . S
C1343 C1348 1.350 . S
C1343 N1351 1.427 . S
C1344 H1335 0.930 . S
C1344 C1342 1.378 . S
C1344 C1345 1.367 . S
C1345 C1344 1.367 . S
C1345 C1347 1.433 . S
C1346 C1342 1.350 . S
C1346 C1343 1.463 . S
C1346 N1350 1.427 . S
C1347 H1337 0.929 . S
C1347 C1345 1.433 . S
C1347 N1350 1.384 . S
C1348 H1339 0.929 . S
C1348 C1340 1.378 . S
C1348 C1343 1.350 . S
C1349 H1336 0.929 . S
C1349 C1341 1.433 . S
C1349 N1351 1.384 . S
N1350 C1346 1.427 . S
N1350 C1347 1.384 . S
N1351 C1343 1.427 . S
N1351 C1349 1.384 . S
H1352 C1358 0.930 . S
H1353 C1362 0.930 . S
H1354 C1367 0.929 . S
H1355 C1365 0.929 1_565 S
H1356 C1360 0.929 . S
H1357 C1366 0.929 . S
C1358 H1352 0.930 . S
C1358 C1359 1.367 . S
C1358 C1366 1.378 . S
C1359 C1358 1.367 . S
C1359 C1367 1.433 . S
C1360 H1356 0.929 . S
C1360 C1362 1.378 . S
C1360 C1364 1.350 . S
C1361 C1364 1.463 . S
C1361 C1366 1.350 . S
C1361 N1369 1.427 . S
C1362 H1353 0.930 . S
C1362 C1360 1.378 . S
C1362 C1363 1.367 . S
C1363 C1362 1.367 . S
C1363 C1365 1.433 . S
C1364 C1360 1.350 . S
C1364 C1361 1.463 . S
C1364 N1368 1.427 . S
C1365 H1355 0.929 1_545 S
C1365 C1363 1.433 . S
C1365 N1368 1.384 . S
C1366 H1357 0.929 . S
C1366 C1358 1.378 . S
C1366 C1361 1.350 . S
C1367 H1354 0.929 . S
C1367 C1359 1.433 . S
C1367 N1369 1.384 . S
N1368 C1364 1.427 . S
N1368 C1365 1.384 . S
N1369 C1361 1.427 . S
N1369 C1367 1.384 . S
H1370 C1376 0.930 . S
H1371 C1380 0.930 . S
H1372 C1385 0.929 . S
H1373 C1383 0.929 . S
H1374 C1378 0.929 . S
H1375 C1384 0.929 . S
C1376 H1370 0.930 . S
C1376 C1377 1.367 . S
C1376 C1384 1.378 . S
C1377 C1376 1.367 . S
C1377 C1385 1.433 . S
C1378 H1374 0.929 . S
C1378 C1380 1.378 . S
C1378 C1382 1.350 . S
C1379 C1382 1.463 . S
C1379 C1384 1.350 . S
C1379 N1387 1.427 . S
C1380 H1371 0.930 . S
C1380 C1378 1.378 . S
C1380 C1381 1.367 . S
C1381 C1380 1.367 . S
C1381 C1383 1.433 . S
C1382 C1378 1.350 . S
C1382 C1379 1.463 . S
C1382 N1386 1.427 . S
C1383 H1373 0.929 . S
C1383 C1381 1.433 . S
C1383 N1386 1.384 . S
C1384 H1375 0.929 . S
C1384 C1376 1.378 . S
C1384 C1379 1.350 . S
C1385 H1372 0.929 . S
C1385 C1377 1.433 . S
C1385 N1387 1.384 . S
N1386 C1382 1.427 . S
N1386 C1383 1.384 . S
N1387 C1379 1.427 . S
N1387 C1385 1.384 . S
H1388 C1394 0.930 . S
H1389 C1398 0.930 . S
H1390 C1403 0.929 . S
H1391 C1401 0.929 . S
H1392 C1396 0.929 . S
H1393 C1402 0.929 . S
C1394 H1388 0.930 . S
C1394 C1395 1.367 . S
C1394 C1402 1.378 . S
C1395 C1394 1.367 . S
C1395 C1403 1.433 . S
C1396 H1392 0.929 . S
C1396 C1398 1.378 . S
C1396 C1400 1.350 . S
C1397 C1400 1.463 . S
C1397 C1402 1.350 . S
C1397 N1405 1.427 . S
C1398 H1389 0.930 . S
C1398 C1396 1.378 . S
C1398 C1399 1.367 . S
C1399 C1398 1.367 . S
C1399 C1401 1.433 . S
C1400 C1396 1.350 . S
C1400 C1397 1.463 . S
C1400 N1404 1.427 . S
C1401 H1391 0.929 . S
C1401 C1399 1.433 . S
C1401 N1404 1.384 . S
C1402 H1393 0.929 . S
C1402 C1394 1.378 . S
C1402 C1397 1.350 . S
C1403 H1390 0.929 . S
C1403 C1395 1.433 . S
C1403 N1405 1.384 . S
N1404 C1400 1.427 . S
N1404 C1401 1.384 . S
N1405 C1397 1.427 . S
N1405 C1403 1.384 . S
H1406 C1412 0.930 . S
H1407 C1416 0.930 1_565 S
H1408 C1421 0.929 . S
H1409 C1419 0.929 . S
H1410 C1414 0.929 . S
H1411 C1420 0.929 . S
C1412 H1406 0.930 . S
C1412 C1413 1.367 . S
C1412 C1420 1.378 . S
C1413 C1412 1.367 . S
C1413 C1421 1.433 . S
C1414 H1410 0.929 . S
C1414 C1416 1.378 . S
C1414 C1418 1.350 . S
C1415 C1418 1.463 . S
C1415 C1420 1.350 . S
C1415 N1423 1.427 . S
C1416 H1407 0.930 1_545 S
C1416 C1414 1.378 . S
C1416 C1417 1.367 . S
C1417 C1416 1.367 . S
C1417 C1419 1.433 . S
C1418 C1414 1.350 . S
C1418 C1415 1.463 . S
C1418 N1422 1.427 . S
C1419 H1409 0.929 . S
C1419 C1417 1.433 . S
C1419 N1422 1.384 . S
C1420 H1411 0.929 . S
C1420 C1412 1.378 . S
C1420 C1415 1.350 . S
C1421 H1408 0.929 . S
C1421 C1413 1.433 . S
C1421 N1423 1.384 . S
N1422 C1418 1.427 . S
N1422 C1419 1.384 . S
N1423 C1415 1.427 . S
N1423 C1421 1.384 . S
H1424 C1430 0.930 . S
H1425 C1434 0.930 . S
H1426 C1439 0.929 . S
H1427 C1437 0.929 1_545 S
H1428 C1432 0.929 . S
H1429 C1438 0.929 . S
C1430 H1424 0.930 . S
C1430 C1431 1.367 . S
C1430 C1438 1.378 . S
C1431 C1430 1.367 . S
C1431 C1439 1.433 . S
C1432 H1428 0.929 . S
C1432 C1434 1.378 . S
C1432 C1436 1.350 . S
C1433 C1436 1.463 . S
C1433 C1438 1.350 . S
C1433 N1441 1.427 . S
C1434 H1425 0.930 . S
C1434 C1432 1.378 . S
C1434 C1435 1.367 . S
C1435 C1434 1.367 . S
C1435 C1437 1.433 . S
C1436 C1432 1.350 . S
C1436 C1433 1.463 . S
C1436 N1440 1.427 . S
C1437 H1427 0.929 1_565 S
C1437 C1435 1.433 . S
C1437 N1440 1.384 . S
C1438 H1429 0.929 . S
C1438 C1430 1.378 . S
C1438 C1433 1.350 . S
C1439 H1426 0.929 . S
C1439 C1431 1.433 . S
C1439 N1441 1.384 . S
N1440 C1436 1.427 . S
N1440 C1437 1.384 . S
N1441 C1433 1.427 . S
N1441 C1439 1.384 . S
H1442 C1448 0.930 . S
H1443 C1452 0.930 . S
H1444 C1457 0.929 . S
H1445 C1455 0.929 . S
H1446 C1450 0.929 . S
H1447 C1456 0.929 . S
C1448 H1442 0.930 . S
C1448 C1449 1.367 . S
C1448 C1456 1.378 . S
C1449 C1448 1.367 . S
C1449 C1457 1.433 . S
C1450 H1446 0.929 . S
C1450 C1452 1.378 . S
C1450 C1454 1.350 . S
C1451 C1454 1.463 . S
C1451 C1456 1.350 . S
C1451 N1459 1.427 . S
C1452 H1443 0.930 . S
C1452 C1450 1.378 . S
C1452 C1453 1.367 . S
C1453 C1452 1.367 . S
C1453 C1455 1.433 . S
C1454 C1450 1.350 . S
C1454 C1451 1.463 . S
C1454 N1458 1.427 . S
C1455 H1445 0.929 . S
C1455 C1453 1.433 . S
C1455 N1458 1.384 . S
C1456 H1447 0.929 . S
C1456 C1448 1.378 . S
C1456 C1451 1.350 . S
C1457 H1444 0.929 . S
C1457 C1449 1.433 . S
C1457 N1459 1.384 . S
N1458 C1454 1.427 . S
N1458 C1455 1.384 . S
N1459 C1451 1.427 . S
N1459 C1457 1.384 . S
H1460 C1466 0.930 . S
H1461 C1470 0.930 . S
H1462 C1475 0.929 . S
H1463 C1473 0.929 . S
H1464 C1468 0.929 . S
H1465 C1474 0.929 . S
C1466 H1460 0.930 . S
C1466 C1467 1.367 . S
C1466 C1474 1.378 . S
C1467 C1466 1.367 . S
C1467 C1475 1.433 . S
C1468 H1464 0.929 . S
C1468 C1470 1.378 . S
C1468 C1472 1.350 . S
C1469 C1472 1.463 . S
C1469 C1474 1.350 . S
C1469 N1477 1.427 . S
C1470 H1461 0.930 . S
C1470 C1468 1.378 . S
C1470 C1471 1.367 . S
C1471 C1470 1.367 . S
C1471 C1473 1.433 . S
C1472 C1468 1.350 . S
C1472 C1469 1.463 . S
C1472 N1476 1.427 . S
C1473 H1463 0.929 . S
C1473 C1471 1.433 . S
C1473 N1476 1.384 . S
C1474 H1465 0.929 . S
C1474 C1466 1.378 . S
C1474 C1469 1.350 . S
C1475 H1462 0.929 . S
C1475 C1467 1.433 . S
C1475 N1477 1.384 . S
N1476 C1472 1.427 . S
N1476 C1473 1.384 . S
N1477 C1469 1.427 . S
N1477 C1475 1.384 . S
H1478 C1484 0.930 1_545 S
H1479 C1488 0.930 . S
H1480 C1493 0.929 . S
H1481 C1491 0.929 . S
H1482 C1486 0.929 . S
H1483 C1492 0.929 . S
C1484 H1478 0.930 1_565 S
C1484 C1485 1.367 . S
C1484 C1492 1.378 . S
C1485 C1484 1.367 . S
C1485 C1493 1.433 . S
C1486 H1482 0.929 . S
C1486 C1488 1.378 . S
C1486 C1490 1.350 . S
C1487 C1490 1.463 . S
C1487 C1492 1.350 . S
C1487 N1495 1.427 . S
C1488 H1479 0.930 . S
C1488 C1486 1.378 . S
C1488 C1489 1.367 . S
C1489 C1488 1.367 . S
C1489 C1491 1.433 . S
C1490 C1486 1.350 . S
C1490 C1487 1.463 . S
C1490 N1494 1.427 . S
C1491 H1481 0.929 . S
C1491 C1489 1.433 . S
C1491 N1494 1.384 . S
C1492 H1483 0.929 . S
C1492 C1484 1.378 . S
C1492 C1487 1.350 . S
C1493 H1480 0.929 . S
C1493 C1485 1.433 . S
C1493 N1495 1.384 . S
N1494 C1490 1.427 . S
N1494 C1491 1.384 . S
N1495 C1487 1.427 . S
N1495 C1493 1.384 . S
H1496 C1502 0.930 . S
H1497 C1506 0.930 . S
H1498 C1511 0.929 . S
H1499 C1509 0.929 1_565 S
H1500 C1504 0.929 . S
H1501 C1510 0.929 . S
C1502 H1496 0.930 . S
C1502 C1503 1.367 . S
C1502 C1510 1.378 . S
C1503 C1502 1.367 . S
C1503 C1511 1.433 . S
C1504 H1500 0.929 . S
C1504 C1506 1.378 . S
C1504 C1508 1.350 . S
C1505 C1508 1.463 . S
C1505 C1510 1.350 . S
C1505 N1513 1.427 . S
C1506 H1497 0.930 . S
C1506 C1504 1.378 . S
C1506 C1507 1.367 . S
C1507 C1506 1.367 . S
C1507 C1509 1.433 . S
C1508 C1504 1.350 . S
C1508 C1505 1.463 . S
C1508 N1512 1.427 . S
C1509 H1499 0.929 1_545 S
C1509 C1507 1.433 . S
C1509 N1512 1.384 . S
C1510 H1501 0.929 . S
C1510 C1502 1.378 . S
C1510 C1505 1.350 . S
C1511 H1498 0.929 . S
C1511 C1503 1.433 . S
C1511 N1513 1.384 . S
N1512 C1508 1.427 . S
N1512 C1509 1.384 . S
N1513 C1505 1.427 . S
N1513 C1511 1.384 . S
H1514 C1520 0.930 . S
H1515 C1524 0.930 . S
H1516 C1529 0.929 . S
H1517 C1527 0.929 . S
H1518 C1522 0.929 . S
H1519 C1528 0.929 . S
C1520 H1514 0.930 . S
C1520 C1521 1.367 . S
C1520 C1528 1.378 . S
C1521 C1520 1.367 . S
C1521 C1529 1.433 . S
C1522 H1518 0.929 . S
C1522 C1524 1.378 . S
C1522 C1526 1.350 . S
C1523 C1526 1.463 . S
C1523 C1528 1.350 . S
C1523 N1531 1.427 . S
C1524 H1515 0.930 . S
C1524 C1522 1.378 . S
C1524 C1525 1.367 . S
C1525 C1524 1.367 . S
C1525 C1527 1.433 . S
C1526 C1522 1.350 . S
C1526 C1523 1.463 . S
C1526 N1530 1.427 . S
C1527 H1517 0.929 . S
C1527 C1525 1.433 . S
C1527 N1530 1.384 . S
C1528 H1519 0.929 . S
C1528 C1520 1.378 . S
C1528 C1523 1.350 . S
C1529 H1516 0.929 . S
C1529 C1521 1.433 . S
C1529 N1531 1.384 . S
N1530 C1526 1.427 . S
N1530 C1527 1.384 . S
N1531 C1523 1.427 . S
N1531 C1529 1.384 . S
H1532 C1538 0.930 . S
H1533 C1542 0.930 . S
H1534 C1547 0.929 . S
H1535 C1545 0.929 . S
H1536 C1540 0.929 . S
H1537 C1546 0.929 . S
C1538 H1532 0.930 . S
C1538 C1539 1.367 . S
C1538 C1546 1.378 . S
C1539 C1538 1.367 . S
C1539 C1547 1.433 . S
C1540 H1536 0.929 . S
C1540 C1542 1.378 . S
C1540 C1544 1.350 . S
C1541 C1544 1.463 . S
C1541 C1546 1.350 . S
C1541 N1549 1.427 . S
C1542 H1533 0.930 . S
C1542 C1540 1.378 . S
C1542 C1543 1.367 . S
C1543 C1542 1.367 . S
C1543 C1545 1.433 . S
C1544 C1540 1.350 . S
C1544 C1541 1.463 . S
C1544 N1548 1.427 . S
C1545 H1535 0.929 . S
C1545 C1543 1.433 . S
C1545 N1548 1.384 . S
C1546 H1537 0.929 . S
C1546 C1538 1.378 . S
C1546 C1541 1.350 . S
C1547 H1534 0.929 . S
C1547 C1539 1.433 . S
C1547 N1549 1.384 . S
N1548 C1544 1.427 . S
N1548 C1545 1.384 . S
N1549 C1541 1.427 . S
N1549 C1547 1.384 . S
H1550 C1556 0.930 . S
H1551 C1560 0.930 . S
H1552 C1565 0.929 . S
H1553 C1563 0.929 . S
H1554 C1558 0.929 . S
H1555 C1564 0.929 . S
C1556 H1550 0.930 . S
C1556 C1557 1.367 . S
C1556 C1564 1.378 . S
C1557 C1556 1.367 . S
C1557 C1565 1.433 . S
C1558 H1554 0.929 . S
C1558 C1560 1.378 . S
C1558 C1562 1.350 . S
C1559 C1562 1.463 . S
C1559 C1564 1.350 . S
C1559 N1567 1.427 . S
C1560 H1551 0.930 . S
C1560 C1558 1.378 . S
C1560 C1561 1.367 . S
C1561 C1560 1.367 . S
C1561 C1563 1.433 . S
C1562 C1558 1.350 . S
C1562 C1559 1.463 . S
C1562 N1566 1.427 . S
C1563 H1553 0.929 . S
C1563 C1561 1.433 . S
C1563 N1566 1.384 . S
C1564 H1555 0.929 . S
C1564 C1556 1.378 . S
C1564 C1559 1.350 . S
C1565 H1552 0.929 . S
C1565 C1557 1.433 . S
C1565 N1567 1.384 . S
N1566 C1562 1.427 . S
N1566 C1563 1.384 . S
N1567 C1559 1.427 . S
N1567 C1565 1.384 . S
C423 C5 1.475 . S
C427 C16 1.473 . S
C441 C42 1.470 . S
C445 C31 1.475 . S
C459 C57 1.468 . S
C463 C68 1.470 . S
C477 C83 1.474 . S
C481 C94 1.474 . S
C495 C109 1.470 . S
C499 C122 1.475 . S
C513 C133 1.471 . S
C517 C146 1.468 . S
C531 C159 1.469 . S
C535 C172 1.474 . S
C549 C185 1.475 . S
C553 C198 1.471 . S
C567 C226 1.470 . S
C571 C211 1.475 . S
C585 C250 1.473 . S
C589 C239 1.468 . S
C603 C276 1.468 . S
C607 C263 1.472 . S
C621 C304 1.472 . S
C625 C289 1.468 . S
C639 C330 1.471 . S
C643 C315 1.475 . S
C657 C356 1.472 . S
C661 C341 1.475 . S
C675 C382 1.475 . S
C679 C367 1.470 . S
C693 C406 1.475 . S
C697 C393 1.471 . S
C711 C4 1.437 . S
C715 C166 1.437 . S
C729 C23 1.427 . S
C733 C283 1.427 . S
C747 C30 1.427 . S
C751 C82 1.427 . S
C765 C49 1.438 . S
C769 C413 1.438 . S
C783 C56 1.428 . S
C787 C108 1.428 . S
C801 C225 1.431 . S
C805 C75 1.431 . S
C819 C355 1.427 . S
C823 C101 1.427 . S
C837 C121 1.434 . S
C841 C381 1.434 . S
C855 C140 1.430 . S
C859 C192 1.430 . S
C873 C153 1.437 . S
C877 C303 1.437 . S
C891 C179 1.437 . S
C895 C329 1.437 . S
C909 C205 1.435 . S
C913 C257 1.435 . S
C927 C374 1.431 . S
C931 C218 1.431 . S
C945 C296 1.437 . S
C949 C238 1.437 . S
C963 C270 1.438 . S
C967 C322 1.438 . S
C981 C400 1.427 . S
C985 C348 1.427 . S
C999 C134 0.823 . S
C1003 C10 0.821 . S
C1017 C147 0.824 . S
C1021 C17 0.825 1_565 S
C1035 C36 0.824 1_565 S
C1039 C114 0.825 . S
C1053 C127 0.820 . S
C1057 C43 0.820 . S
C1071 C62 0.825 . S
C1075 C186 0.824 . S
C1089 C69 0.825 1_545 S
C1093 C199 0.824 . S
C1107 C160 0.825 . S
C1111 C88 0.824 1_545 S
C1125 C173 0.820 . S
C1129 C95 0.821 . S
C1143 C212 0.820 . S
C1147 C342 0.820 . S
C1161 C361 0.822 . S
C1165 C231 0.824 1_565 S
C1179 C316 0.824 . S
C1183 C244 0.825 1_565 S
C1197 C251 0.820 . S
C1201 C335 0.820 . S
C1215 C394 0.820 . S
C1219 C264 0.822 . S
C1233 C277 0.825 1_545 S
C1237 C407 0.823 . S
C1251 C368 0.825 . S
C1255 C290 0.823 1_545 S
C1269 C387 0.820 . S
C1273 C309 0.822 . S
C1287 C135 1.743 . S
C1291 C3 1.746 1_565 S
C1305 C148 1.746 . S
C1309 C18 1.743 . S
C1323 C107 1.744 . S
C1327 C29 1.743 . S
C1341 C44 1.744 1_565 S
C1345 C120 1.743 . S
C1359 C187 1.745 . S
C1363 C55 1.745 1_545 S
C1377 C200 1.746 . S
C1381 C70 1.744 . S
C1395 C161 1.746 . S
C1399 C81 1.744 . S
C1413 C174 1.743 . S
C1417 C96 1.743 1_545 S
C1431 C343 1.745 . S
C1435 C213 1.745 1_565 S
C1449 C354 1.745 . S
C1453 C224 1.743 . S
C1467 C317 1.745 . S
C1471 C237 1.743 . S
C1485 C252 1.744 1_565 S
C1489 C328 1.743 . S
C1503 C395 1.746 . S
C1507 C265 1.744 1_545 S
C1521 C278 1.745 . S
C1525 C408 1.745 . S
C1539 C369 1.746 . S
C1543 C291 1.744 . S
C1557 C302 1.746 1_545 S
C1561 C380 1.743 . S
