# Generated by pormake.
# Topology uoh, (4)-cn, num edge types: 1
# Building blocks:
#     Node 0, Type 0, BuildingBlock: GALJAG_clean_sbu_0, # of connection points: 4
#     Node 1, Type 0, BuildingBlock: GALJAG_clean_sbu_0, # of connection points: 4
#     Node 2, Type 0, BuildingBlock: GALJAG_clean_sbu_0, # of connection points: 4
#     Node 3, Type 0, BuildingBlock: GALJAG_clean_sbu_0, # of connection points: 4
#     Node 4, Type 0, BuildingBlock: GALJAG_clean_sbu_0, # of connection points: 4
#     Node 5, Type 0, BuildingBlock: GALJAG_clean_sbu_0, # of connection points: 4
#     Node 6, Type 0, BuildingBlock: GALJAG_clean_sbu_0, # of connection points: 4
#     Node 7, Type 0, BuildingBlock: GALJAG_clean_sbu_0, # of connection points: 4
#     Node 8, Type 0, BuildingBlock: GALJAG_clean_sbu_0, # of connection points: 4
#     Node 9, Type 0, BuildingBlock: GALJAG_clean_sbu_0, # of connection points: 4
#     Node 10, Type 0, BuildingBlock: GALJAG_clean_sbu_0, # of connection points: 4
#     Node 11, Type 0, BuildingBlock: GALJAG_clean_sbu_0, # of connection points: 4
#     Node 12, Type 0, BuildingBlock: GALJAG_clean_sbu_0, # of connection points: 4
#     Node 13, Type 0, BuildingBlock: GALJAG_clean_sbu_0, # of connection points: 4
#     Node 14, Type 0, BuildingBlock: GALJAG_clean_sbu_0, # of connection points: 4
#     Node 15, Type 0, BuildingBlock: GALJAG_clean_sbu_0, # of connection points: 4
#     Node 16, Type 0, BuildingBlock: GALJAG_clean_sbu_0, # of connection points: 4
#     Node 17, Type 0, BuildingBlock: GALJAG_clean_sbu_0, # of connection points: 4
#     Node 18, Type 0, BuildingBlock: GALJAG_clean_sbu_0, # of connection points: 4
#     Node 19, Type 0, BuildingBlock: GALJAG_clean_sbu_0, # of connection points: 4
#     Node 20, Type 0, BuildingBlock: GALJAG_clean_sbu_0, # of connection points: 4
#     Node 21, Type 0, BuildingBlock: GALJAG_clean_sbu_0, # of connection points: 4
#     Node 22, Type 0, BuildingBlock: GALJAG_clean_sbu_0, # of connection points: 4
#     Node 23, Type 0, BuildingBlock: GALJAG_clean_sbu_0, # of connection points: 4
#     Node 24, Type 0, BuildingBlock: GALJAG_clean_sbu_0, # of connection points: 4
#     Node 25, Type 0, BuildingBlock: GALJAG_clean_sbu_0, # of connection points: 4
#     Node 26, Type 0, BuildingBlock: GALJAG_clean_sbu_0, # of connection points: 4
#     Node 27, Type 0, BuildingBlock: GALJAG_clean_sbu_0, # of connection points: 4
#     Node 28, Type 0, BuildingBlock: GALJAG_clean_sbu_0, # of connection points: 4
#     Node 29, Type 0, BuildingBlock: GALJAG_clean_sbu_0, # of connection points: 4
#     Node 30, Type 0, BuildingBlock: GALJAG_clean_sbu_0, # of connection points: 4
#     Node 31, Type 0, BuildingBlock: GALJAG_clean_sbu_0, # of connection points: 4
#     Node 32, Type 0, BuildingBlock: GALJAG_clean_sbu_0, # of connection points: 4
#     Node 33, Type 0, BuildingBlock: GALJAG_clean_sbu_0, # of connection points: 4
#     Node 34, Type 0, BuildingBlock: GALJAG_clean_sbu_0, # of connection points: 4
#     Node 35, Type 0, BuildingBlock: GALJAG_clean_sbu_0, # of connection points: 4
#     Edge 36, Type (0, 0), BuildingBlock: XIVTED_clean_linker_0, # of connection points: 2
#     Edge 37, Type (0, 0), BuildingBlock: XIVTED_clean_linker_0, # of connection points: 2
#     Edge 38, Type (0, 0), BuildingBlock: XIVTED_clean_linker_0, # of connection points: 2
#     Edge 39, Type (0, 0), BuildingBlock: XIVTED_clean_linker_0, # of connection points: 2
#     Edge 40, Type (0, 0), BuildingBlock: XIVTED_clean_linker_0, # of connection points: 2
#     Edge 41, Type (0, 0), BuildingBlock: XIVTED_clean_linker_0, # of connection points: 2
#     Edge 42, Type (0, 0), BuildingBlock: XIVTED_clean_linker_0, # of connection points: 2
#     Edge 43, Type (0, 0), BuildingBlock: XIVTED_clean_linker_0, # of connection points: 2
#     Edge 44, Type (0, 0), BuildingBlock: XIVTED_clean_linker_0, # of connection points: 2
#     Edge 45, Type (0, 0), BuildingBlock: XIVTED_clean_linker_0, # of connection points: 2
#     Edge 46, Type (0, 0), BuildingBlock: XIVTED_clean_linker_0, # of connection points: 2
#     Edge 47, Type (0, 0), BuildingBlock: XIVTED_clean_linker_0, # of connection points: 2
#     Edge 48, Type (0, 0), BuildingBlock: XIVTED_clean_linker_0, # of connection points: 2
#     Edge 49, Type (0, 0), BuildingBlock: XIVTED_clean_linker_0, # of connection points: 2
#     Edge 50, Type (0, 0), BuildingBlock: XIVTED_clean_linker_0, # of connection points: 2
#     Edge 51, Type (0, 0), BuildingBlock: XIVTED_clean_linker_0, # of connection points: 2
#     Edge 52, Type (0, 0), BuildingBlock: XIVTED_clean_linker_0, # of connection points: 2
#     Edge 53, Type (0, 0), BuildingBlock: XIVTED_clean_linker_0, # of connection points: 2
#     Edge 54, Type (0, 0), BuildingBlock: XIVTED_clean_linker_0, # of connection points: 2
#     Edge 55, Type (0, 0), BuildingBlock: XIVTED_clean_linker_0, # of connection points: 2
#     Edge 56, Type (0, 0), BuildingBlock: XIVTED_clean_linker_0, # of connection points: 2
#     Edge 57, Type (0, 0), BuildingBlock: XIVTED_clean_linker_0, # of connection points: 2
#     Edge 58, Type (0, 0), BuildingBlock: XIVTED_clean_linker_0, # of connection points: 2
#     Edge 59, Type (0, 0), BuildingBlock: XIVTED_clean_linker_0, # of connection points: 2
#     Edge 60, Type (0, 0), BuildingBlock: XIVTED_clean_linker_0, # of connection points: 2
#     Edge 61, Type (0, 0), BuildingBlock: XIVTED_clean_linker_0, # of connection points: 2
#     Edge 62, Type (0, 0), BuildingBlock: XIVTED_clean_linker_0, # of connection points: 2
#     Edge 63, Type (0, 0), BuildingBlock: XIVTED_clean_linker_0, # of connection points: 2
#     Edge 64, Type (0, 0), BuildingBlock: XIVTED_clean_linker_0, # of connection points: 2
#     Edge 65, Type (0, 0), BuildingBlock: XIVTED_clean_linker_0, # of connection points: 2
#     Edge 66, Type (0, 0), BuildingBlock: XIVTED_clean_linker_0, # of connection points: 2
#     Edge 67, Type (0, 0), BuildingBlock: XIVTED_clean_linker_0, # of connection points: 2
#     Edge 68, Type (0, 0), BuildingBlock: XIVTED_clean_linker_0, # of connection points: 2
#     Edge 69, Type (0, 0), BuildingBlock: XIVTED_clean_linker_0, # of connection points: 2
#     Edge 70, Type (0, 0), BuildingBlock: XIVTED_clean_linker_0, # of connection points: 2
#     Edge 71, Type (0, 0), BuildingBlock: XIVTED_clean_linker_0, # of connection points: 2
#     Edge 72, Type (0, 0), BuildingBlock: XIVTED_clean_linker_0, # of connection points: 2
#     Edge 73, Type (0, 0), BuildingBlock: XIVTED_clean_linker_0, # of connection points: 2
#     Edge 74, Type (0, 0), BuildingBlock: XIVTED_clean_linker_0, # of connection points: 2
#     Edge 75, Type (0, 0), BuildingBlock: XIVTED_clean_linker_0, # of connection points: 2
#     Edge 76, Type (0, 0), BuildingBlock: XIVTED_clean_linker_0, # of connection points: 2
#     Edge 77, Type (0, 0), BuildingBlock: XIVTED_clean_linker_0, # of connection points: 2
#     Edge 78, Type (0, 0), BuildingBlock: XIVTED_clean_linker_0, # of connection points: 2
#     Edge 79, Type (0, 0), BuildingBlock: XIVTED_clean_linker_0, # of connection points: 2
#     Edge 80, Type (0, 0), BuildingBlock: XIVTED_clean_linker_0, # of connection points: 2
#     Edge 81, Type (0, 0), BuildingBlock: XIVTED_clean_linker_0, # of connection points: 2
#     Edge 82, Type (0, 0), BuildingBlock: XIVTED_clean_linker_0, # of connection points: 2
#     Edge 83, Type (0, 0), BuildingBlock: XIVTED_clean_linker_0, # of connection points: 2
#     Edge 84, Type (0, 0), BuildingBlock: XIVTED_clean_linker_0, # of connection points: 2
#     Edge 85, Type (0, 0), BuildingBlock: XIVTED_clean_linker_0, # of connection points: 2
#     Edge 86, Type (0, 0), BuildingBlock: XIVTED_clean_linker_0, # of connection points: 2
#     Edge 87, Type (0, 0), BuildingBlock: XIVTED_clean_linker_0, # of connection points: 2
#     Edge 88, Type (0, 0), BuildingBlock: XIVTED_clean_linker_0, # of connection points: 2
#     Edge 89, Type (0, 0), BuildingBlock: XIVTED_clean_linker_0, # of connection points: 2
#     Edge 90, Type (0, 0), BuildingBlock: XIVTED_clean_linker_0, # of connection points: 2
#     Edge 91, Type (0, 0), BuildingBlock: XIVTED_clean_linker_0, # of connection points: 2
#     Edge 92, Type (0, 0), BuildingBlock: XIVTED_clean_linker_0, # of connection points: 2
#     Edge 93, Type (0, 0), BuildingBlock: XIVTED_clean_linker_0, # of connection points: 2
#     Edge 94, Type (0, 0), BuildingBlock: XIVTED_clean_linker_0, # of connection points: 2
#     Edge 95, Type (0, 0), BuildingBlock: XIVTED_clean_linker_0, # of connection points: 2
#     Edge 96, Type (0, 0), BuildingBlock: XIVTED_clean_linker_0, # of connection points: 2
#     Edge 97, Type (0, 0), BuildingBlock: XIVTED_clean_linker_0, # of connection points: 2
#     Edge 98, Type (0, 0), BuildingBlock: XIVTED_clean_linker_0, # of connection points: 2
#     Edge 99, Type (0, 0), BuildingBlock: XIVTED_clean_linker_0, # of connection points: 2
#     Edge 100, Type (0, 0), BuildingBlock: XIVTED_clean_linker_0, # of connection points: 2
#     Edge 101, Type (0, 0), BuildingBlock: XIVTED_clean_linker_0, # of connection points: 2
#     Edge 102, Type (0, 0), BuildingBlock: XIVTED_clean_linker_0, # of connection points: 2
#     Edge 103, Type (0, 0), BuildingBlock: XIVTED_clean_linker_0, # of connection points: 2
#     Edge 104, Type (0, 0), BuildingBlock: XIVTED_clean_linker_0, # of connection points: 2
#     Edge 105, Type (0, 0), BuildingBlock: XIVTED_clean_linker_0, # of connection points: 2
#     Edge 106, Type (0, 0), BuildingBlock: XIVTED_clean_linker_0, # of connection points: 2
#     Edge 107, Type (0, 0), BuildingBlock: XIVTED_clean_linker_0, # of connection points: 2
# Relax obj value: 0.044
# Max RMSD: 0.095
# Mean RMSD: 0.095
data_MOF--net-uoh--node1-GALJAG_clean_sbu_0--edge1-XIVTED_clean_linker_0
_symmetry_space_group_name_H-M    P1
_symmetry_Int_Tables_number       1
_symmetry_cell_setting            triclinic
loop_
_symmetry_equiv_pos_as_xyz
'x, y, z'
_cell_length_a     87.202966
_cell_length_b     87.094483
_cell_length_c     28.902347
_cell_angle_alpha  89.963388
_cell_angle_beta   90.035678
_cell_angle_gamma 119.98266
loop_
_atom_site_label
_atom_site_type_symbol
_atom_site_fract_x
_atom_site_fract_y
_atom_site_fract_z
_atom_type_partial_charge
In0 In 0.23094 0.14592 0.16435 0.0
O1 O 0.23151 0.17215 0.17349 0.0
O2 O 0.20646 0.14827 0.16902 0.0
C3 C 0.26525 0.15515 0.15817 0.0
C4 C 0.22308 0.13171 0.24973 0.0
C5 C 0.21972 0.1335 0.07856 0.0
O6 O 0.26039 0.1666 0.15969 0.0
O7 O 0.25284 0.13928 0.15966 0.0
O8 O 0.21568 0.12324 0.1131 0.0
O9 O 0.22926 0.14977 0.08761 0.0
C10 C 0.21479 0.1649 0.17433 0.0
O11 O 0.21829 0.12204 0.21393 0.0
O12 O 0.23179 0.14814 0.24207 0.0
In13 In 0.8459 0.08176 0.17304 0.0
O14 O 0.81916 0.05677 0.18195 0.0
O15 O 0.84217 0.05424 0.17411 0.0
C16 C 0.83724 0.10741 0.17267 0.0
C17 C 0.86058 0.08607 0.25746 0.0
C18 C 0.85799 0.08396 0.08626 0.0
O19 O 0.8257 0.09116 0.17075 0.0
O20 O 0.85301 0.11061 0.17456 0.0
O21 O 0.86835 0.08976 0.12064 0.0
O22 O 0.84179 0.07714 0.09592 0.0
C23 C 0.82563 0.04661 0.18058 0.0
O24 O 0.87002 0.09138 0.22132 0.0
O25 O 0.84416 0.07899 0.25063 0.0
In26 In 0.90085 0.76083 0.18278 0.0
O27 O 0.89112 0.77519 0.2312 0.0
O28 O 0.90166 0.75991 0.26037 0.0
C29 C 0.89978 0.77161 0.09617 0.0
C30 C 0.93573 0.77605 0.19603 0.0
C31 C 0.8756 0.72645 0.17854 0.0
O32 O 0.89267 0.775 0.12983 0.0
O33 O 0.90746 0.76307 0.10652 0.0
O34 O 0.8919 0.73136 0.17775 0.0
O35 O 0.87215 0.73886 0.18131 0.0
C36 C 0.8953 0.76989 0.26735 0.0
O37 O 0.92592 0.75939 0.19319 0.0
O38 O 0.92797 0.78488 0.1903 0.0
In39 In 0.12764 0.23309 0.33493 0.0
O40 O 0.1541 0.23628 0.31109 0.0
O41 O 0.13119 0.21062 0.30935 0.0
C42 C 0.14218 0.26804 0.34918 0.0
C43 C 0.10735 0.22732 0.25878 0.0
C44 C 0.11676 0.21988 0.42087 0.0
O45 O 0.15104 0.26118 0.33437 0.0
O46 O 0.12606 0.25719 0.35752 0.0
O47 O 0.10621 0.21945 0.39027 0.0
O48 O 0.13262 0.22675 0.40788 0.0
C49 C 0.14749 0.22008 0.30107 0.0
O50 O 0.10599 0.21479 0.28357 0.0
O51 O 0.11813 0.24253 0.27372 0.0
In52 In 0.75166 0.89202 0.34694 0.0
O53 O 0.74843 0.91485 0.31901 0.0
O54 O 0.7744 0.91875 0.32694 0.0
C55 C 0.71635 0.87182 0.35395 0.0
C56 C 0.75992 0.87842 0.27289 0.0
C57 C 0.76306 0.89349 0.43476 0.0
O58 O 0.72379 0.88775 0.34031 0.0
O59 O 0.72678 0.86627 0.36482 0.0
O60 O 0.76461 0.88409 0.40396 0.0
O61 O 0.75588 0.90214 0.4212 0.0
C62 C 0.76488 0.92506 0.31393 0.0
O63 O 0.77149 0.89126 0.29591 0.0
O64 O 0.74448 0.87185 0.28876 0.0
In65 In 0.09563 0.85599 0.3187 0.0
O66 O 0.1063 0.88079 0.2723 0.0
O67 O 0.09286 0.8552 0.24124 0.0
C68 C 0.09848 0.8672 0.40677 0.0
C69 C 0.06045 0.83732 0.31017 0.0
C70 C 0.11971 0.84528 0.31501 0.0
O71 O 0.10484 0.87793 0.37325 0.0
O72 O 0.09076 0.85105 0.39566 0.0
O73 O 0.10327 0.83447 0.31587 0.0
O74 O 0.12393 0.86139 0.31658 0.0
C75 C 0.10058 0.87173 0.23559 0.0
O76 O 0.06985 0.83 0.31028 0.0
O77 O 0.06881 0.85393 0.31612 0.0
In78 In 0.75191 0.85006 0.84597 0.0
O79 O 0.75131 0.82428 0.82969 0.0
O80 O 0.77628 0.84746 0.84332 0.0
C81 C 0.71791 0.84182 0.84197 0.0
C82 C 0.7633 0.86759 0.76558 0.0
C83 C 0.75859 0.85618 0.93685 0.0
O84 O 0.72247 0.83017 0.83884 0.0
O85 O 0.73049 0.85749 0.84725 0.0
O86 O 0.7662 0.86853 0.9074 0.0
O87 O 0.74782 0.84121 0.92014 0.0
C88 C 0.76799 0.83126 0.83212 0.0
O89 O 0.76593 0.87598 0.80334 0.0
O90 O 0.7549 0.85096 0.76909 0.0
In91 In 0.14359 0.9063 0.82367 0.0
O92 O 0.12012 0.89453 0.77273 0.0
O93 O 0.1464 0.9054 0.74663 0.0
C94 C 0.13109 0.90602 0.90884 0.0
C95 C 0.16125 0.94105 0.80639 0.0
C96 C 0.15372 0.88204 0.8352 0.0
O97 O 0.12085 0.89844 0.87493 0.0
O98 O 0.14738 0.91384 0.89932 0.0
O99 O 0.16482 0.89842 0.83251 0.0
O100 O 0.13773 0.87809 0.83215 0.0
C101 C 0.13011 0.89824 0.73772 0.0
O102 O 0.16916 0.93235 0.81248 0.0
O103 O 0.14461 0.93229 0.81105 0.0
In104 In 0.08577 0.23281 0.82975 0.0
O105 O 0.06067 0.23369 0.81446 0.0
O106 O 0.05853 0.20872 0.8305 0.0
C107 C 0.1115 0.26674 0.82122 0.0
C108 C 0.09078 0.21998 0.7503 0.0
C109 C 0.08666 0.22733 0.92099 0.0
O110 O 0.09528 0.26219 0.82053 0.0
O111 O 0.11465 0.25417 0.82633 0.0
O112 O 0.09022 0.2188 0.89148 0.0
O113 O 0.0829 0.2384 0.90416 0.0
C114 C 0.05076 0.21709 0.81877 0.0
O115 O 0.09727 0.21826 0.78793 0.0
O116 O 0.08234 0.22818 0.75343 0.0
In117 In 0.85366 0.76091 0.68095 0.0
O118 O 0.82691 0.75887 0.69119 0.0
O119 O 0.85009 0.78454 0.69221 0.0
C120 C 0.84436 0.72657 0.67259 0.0
C121 C 0.86778 0.76864 0.76632 0.0
C122 C 0.86616 0.77322 0.59566 0.0
O123 O 0.8331 0.73165 0.6725 0.0
O124 O 0.86022 0.7388 0.6767 0.0
O125 O 0.87638 0.77578 0.62949 0.0
O126 O 0.84989 0.76477 0.60526 0.0
C127 C 0.83347 0.77539 0.69668 0.0
O128 O 0.87743 0.77469 0.73066 0.0
O129 O 0.85154 0.75858 0.75842 0.0
In130 In 0.23245 0.09887 0.66811 0.0
O131 O 0.23417 0.0739 0.6773 0.0
O132 O 0.20857 0.07133 0.67165 0.0
C133 C 0.26702 0.12372 0.67205 0.0
C134 C 0.2213 0.10362 0.75086 0.0
C135 C 0.22325 0.1013 0.58052 0.0
O136 O 0.26181 0.10737 0.66992 0.0
O137 O 0.25483 0.1275 0.67139 0.0
O138 O 0.21856 0.10711 0.61455 0.0
O139 O 0.23242 0.0943 0.59085 0.0
C140 C 0.21756 0.06376 0.67793 0.0
O141 O 0.21806 0.10933 0.71399 0.0
O142 O 0.23015 0.09593 0.74557 0.0
In143 In 0.89432 0.12896 0.67118 0.0
O144 O 0.9192 0.1556 0.68121 0.0
O145 O 0.92143 0.13226 0.68238 0.0
C146 C 0.86972 0.13892 0.66498 0.0
C147 C 0.88771 0.11435 0.75607 0.0
C148 C 0.89363 0.11647 0.58546 0.0
O149 O 0.8861 0.14996 0.66447 0.0
O150 O 0.86582 0.12293 0.66818 0.0
O151 O 0.88625 0.10624 0.61946 0.0
O152 O 0.90143 0.13275 0.59507 0.0
C153 C 0.92904 0.14892 0.68676 0.0
O154 O 0.88367 0.10485 0.72 0.0
O155 O 0.89454 0.13074 0.74884 0.0
In156 In 0.89769 0.46871 0.50061 0.0
O157 O 0.89826 0.4948 0.51205 0.0
O158 O 0.87321 0.47087 0.50913 0.0
C159 C 0.93205 0.47826 0.49303 0.0
C160 C 0.89011 0.45435 0.58557 0.0
C161 C 0.88602 0.45649 0.41499 0.0
O162 O 0.92695 0.48953 0.49347 0.0
O163 O 0.91984 0.46234 0.49627 0.0
O164 O 0.88276 0.44614 0.44898 0.0
O165 O 0.89496 0.47278 0.42453 0.0
C166 C 0.88158 0.48747 0.51513 0.0
O167 O 0.88472 0.44473 0.5497 0.0
O168 O 0.89945 0.47075 0.5781 0.0
In169 In 0.51996 0.42909 0.47847 0.0
O170 O 0.49362 0.40486 0.49986 0.0
O171 O 0.51706 0.40298 0.49969 0.0
C172 C 0.51089 0.45395 0.46455 0.0
C173 C 0.53817 0.44171 0.55779 0.0
C174 C 0.52925 0.42596 0.39169 0.0
O175 O 0.49952 0.43802 0.47385 0.0
O176 O 0.52665 0.45708 0.46096 0.0
O177 O 0.54064 0.43473 0.42246 0.0
O178 O 0.51337 0.41884 0.40492 0.0
C179 C 0.50068 0.39547 0.50766 0.0
O180 O 0.54388 0.43601 0.52576 0.0
O181 O 0.52384 0.44134 0.54915 0.0
In182 In 0.56097 0.08737 0.51062 0.0
O183 O 0.58681 0.08749 0.5212 0.0
O184 O 0.5875 0.11233 0.51695 0.0
C185 C 0.53738 0.05241 0.50893 0.0
C186 C 0.55465 0.09637 0.59448 0.0
C187 C 0.55898 0.09736 0.42372 0.0
O188 O 0.55387 0.05834 0.50756 0.0
O189 O 0.53289 0.06409 0.51065 0.0
O190 O 0.55187 0.10067 0.4575 0.0
O191 O 0.56703 0.08918 0.43403 0.0
C192 C 0.59597 0.10422 0.52316 0.0
O193 O 0.54962 0.10056 0.55788 0.0
O194 O 0.56233 0.08754 0.58832 0.0
In195 In 0.79969 0.56379 0.6522 0.0
O196 O 0.82614 0.56519 0.64168 0.0
O197 O 0.80275 0.5397 0.64525 0.0
C198 C 0.80927 0.5983 0.65616 0.0
C199 C 0.78493 0.55464 0.56776 0.0
C200 C 0.78787 0.5531 0.73881 0.0
O201 O 0.82046 0.59314 0.65714 0.0
O202 O 0.79335 0.58608 0.65335 0.0
O203 O 0.77737 0.54984 0.70521 0.0
O204 O 0.80406 0.56148 0.72839 0.0
C205 C 0.81932 0.54853 0.6393 0.0
O206 O 0.7755 0.54967 0.60398 0.0
O207 O 0.8013 0.56434 0.5746 0.0
In208 In 0.42908 0.24052 0.67486 0.0
O209 O 0.42676 0.26476 0.65555 0.0
O210 O 0.45226 0.26708 0.65562 0.0
C211 C 0.39476 0.21733 0.68989 0.0
C212 C 0.43391 0.2279 0.59415 0.0
C213 C 0.44145 0.24139 0.761 0.0
O214 O 0.40029 0.23353 0.68139 0.0
O215 O 0.40664 0.21307 0.69188 0.0
O216 O 0.4429 0.23234 0.72889 0.0
O217 O 0.43411 0.25012 0.74926 0.0
C218 C 0.44318 0.27446 0.64844 0.0
O219 O 0.44592 0.23435 0.62459 0.0
O220 O 0.41978 0.22757 0.605 0.0
In221 In 0.75385 0.18665 0.66233 0.0
O222 O 0.72874 0.16027 0.6516 0.0
O223 O 0.72678 0.18375 0.6549 0.0
C224 C 0.7784 0.17654 0.66473 0.0
C225 C 0.75978 0.202 0.57862 0.0
C226 C 0.75507 0.19845 0.74898 0.0
O227 O 0.76201 0.16553 0.66591 0.0
O228 O 0.78233 0.19255 0.66275 0.0
O229 O 0.76202 0.20895 0.71524 0.0
O230 O 0.74754 0.18223 0.73873 0.0
C231 C 0.71898 0.16716 0.6489 0.0
O232 O 0.76465 0.21122 0.61522 0.0
O233 O 0.75249 0.18551 0.5847 0.0
In234 In 0.42571 0.19246 0.16923 0.0
O235 O 0.42215 0.16521 0.15543 0.0
O236 O 0.44824 0.18669 0.16854 0.0
C237 C 0.39207 0.18537 0.16162 0.0
C238 C 0.43886 0.20991 0.08907 0.0
C239 C 0.43214 0.19971 0.26019 0.0
O240 O 0.39619 0.17338 0.1612 0.0
O241 O 0.40493 0.20095 0.16583 0.0
O242 O 0.44116 0.21117 0.22972 0.0
O243 O 0.42027 0.18506 0.24444 0.0
C244 C 0.43853 0.17051 0.15822 0.0
O245 O 0.4407 0.21829 0.12643 0.0
O246 O 0.43047 0.1933 0.09279 0.0
In247 In 0.80045 0.23125 0.1637 0.0
O248 O 0.82701 0.25615 0.15157 0.0
O249 O 0.80374 0.25843 0.15559 0.0
C250 C 0.80908 0.20567 0.16981 0.0
C251 C 0.78572 0.22517 0.07923 0.0
C252 C 0.78861 0.23115 0.24955 0.0
O253 O 0.82064 0.22194 0.17009 0.0
O254 O 0.79331 0.20243 0.16675 0.0
O255 O 0.77816 0.22434 0.21565 0.0
O256 O 0.80481 0.23794 0.23987 0.0
C257 C 0.82026 0.26605 0.14889 0.0
O258 O 0.77631 0.22098 0.11544 0.0
O259 O 0.80209 0.23181 0.0861 0.0
In260 In 0.75361 0.56538 0.15379 0.0
O261 O 0.72855 0.56674 0.14196 0.0
O262 O 0.72682 0.54138 0.14227 0.0
C263 C 0.77877 0.59963 0.16223 0.0
C264 C 0.7602 0.5578 0.06861 0.0
C265 C 0.75355 0.55316 0.23929 0.0
O266 O 0.76247 0.59472 0.16212 0.0
O267 O 0.78226 0.58728 0.1583 0.0
O268 O 0.76112 0.55037 0.20566 0.0
O269 O 0.74597 0.56185 0.22942 0.0
C270 C 0.71899 0.55015 0.13664 0.0
O271 O 0.76375 0.55171 0.10431 0.0
O272 O 0.75404 0.56792 0.07643 0.0
In273 In 0.51277 0.08827 0.00935 0.0
O274 O 0.48697 0.08824 0.02154 0.0
O275 O 0.51106 0.11307 0.01643 0.0
C276 C 0.50317 0.05378 0.00512 0.0
C277 C 0.52691 0.09628 0.09447 0.0
C278 C 0.52516 0.09904 0.92325 0.0
O279 O 0.49206 0.05896 0.00037 0.0
O280 O 0.51891 0.06595 0.01159 0.0
O281 O 0.53543 0.10254 0.95751 0.0
O282 O 0.50888 0.09033 0.93276 0.0
C283 C 0.49456 0.10499 0.02367 0.0
O284 O 0.53662 0.10138 0.05872 0.0
O285 O 0.51052 0.08706 0.08679 0.0
In286 In 0.89891 0.42297 0.00297 0.0
O287 O 0.88474 0.43336 0.04977 0.0
O288 O 0.89859 0.42158 0.08062 0.0
C289 C 0.88858 0.42444 0.91621 0.0
C290 C 0.88339 0.38802 0.01596 0.0
C291 C 0.93344 0.44779 0.00116 0.0
O292 O 0.88489 0.43123 0.95001 0.0
O293 O 0.89731 0.41693 0.92643 0.0
O294 O 0.92823 0.43142 0.9994 0.0
O295 O 0.92125 0.45155 0.00346 0.0
C296 C 0.88914 0.4286 0.08648 0.0
O297 O 0.90006 0.39776 0.01449 0.0
O298 O 0.87473 0.39588 0.00889 0.0
In299 In 0.56366 0.46881 0.9855 0.0
O300 O 0.58787 0.49529 0.0019 0.0
O301 O 0.59159 0.47363 0.98325 0.0
C302 C 0.53887 0.4782 0.99715 0.0
C303 C 0.55834 0.44953 0.06289 0.0
C304 C 0.56254 0.46251 0.89396 0.0
O305 O 0.55524 0.48934 0.99751 0.0
O306 O 0.53503 0.46233 0.99096 0.0
O307 O 0.56019 0.45072 0.92331 0.0
O308 O 0.5652 0.47693 0.91108 0.0
C309 C 0.59855 0.48961 0.99611 0.0
O310 O 0.55003 0.4423 0.02596 0.0
O311 O 0.56896 0.46591 0.06003 0.0
In312 In 0.55855 0.8086 0.8336 0.0
O313 O 0.55408 0.78621 0.88315 0.0
O314 O 0.53634 0.79604 0.88775 0.0
C315 C 0.548 0.80125 0.74409 0.0
C316 C 0.55656 0.83706 0.86055 0.0
C317 C 0.59241 0.81583 0.83221 0.0
O318 O 0.53995 0.79015 0.77603 0.0
O319 O 0.561 0.81559 0.75758 0.0
O320 O 0.58818 0.82741 0.84106 0.0
O321 O 0.57955 0.80058 0.82385 0.0
C322 C 0.54141 0.78598 0.90464 0.0
O323 O 0.56601 0.83205 0.8815 0.0
O324 O 0.54829 0.82781 0.82584 0.0
In325 In 0.19142 0.75911 0.83223 0.0
O326 O 0.21761 0.77023 0.87346 0.0
O327 O 0.19294 0.75452 0.90787 0.0
C328 C 0.19763 0.75938 0.741 0.0
C329 C 0.1705 0.72416 0.84241 0.0
C330 C 0.18375 0.78525 0.84107 0.0
O331 O 0.20954 0.76238 0.77059 0.0
O332 O 0.18312 0.75663 0.75773 0.0
O333 O 0.17202 0.76905 0.84229 0.0
O334 O 0.19937 0.78825 0.83551 0.0
C335 C 0.20956 0.76304 0.91075 0.0
O336 O 0.16483 0.73485 0.84839 0.0
O337 O 0.18647 0.73114 0.82964 0.0
In338 In 0.23309 0.42761 0.83061 0.0
O339 O 0.22176 0.44088 0.87784 0.0
O340 O 0.23092 0.42436 0.9072 0.0
C341 C 0.23738 0.43946 0.7434 0.0
C342 C 0.2672 0.44369 0.85384 0.0
C343 C 0.20761 0.39377 0.81954 0.0
O344 O 0.22957 0.44382 0.77322 0.0
O345 O 0.24263 0.4292 0.75789 0.0
O346 O 0.22367 0.39818 0.82544 0.0
O347 O 0.2045 0.40646 0.81899 0.0
C348 C 0.22477 0.43453 0.91404 0.0
O349 O 0.25814 0.42701 0.84908 0.0
O350 O 0.25914 0.45204 0.84506 0.0
In351 In 0.46399 0.89225 0.00112 0.0
O352 O 0.4898 0.90282 0.96127 0.0
O353 O 0.48542 0.88567 0.01854 0.0
C354 C 0.47323 0.92684 0.00188 0.0
C355 C 0.4444 0.87267 0.92768 0.0
C356 C 0.44826 0.87868 0.08404 0.0
O357 O 0.4802 0.92062 0.02864 0.0
O358 O 0.46181 0.91571 0.97469 0.0
O359 O 0.44368 0.88723 0.05781 0.0
O360 O 0.46014 0.87613 0.06748 0.0
C361 C 0.49544 0.89462 0.98562 0.0
O362 O 0.43991 0.88157 0.95274 0.0
O363 O 0.45791 0.87244 0.94187 0.0
In364 In 0.09538 0.56752 0.99092 0.0
O365 O 0.1082 0.55688 0.94015 0.0
O366 O 0.09289 0.56782 0.91361 0.0
C367 C 0.10769 0.56664 0.0757 0.0
C368 C 0.11077 0.60234 0.97569 0.0
C369 C 0.061 0.54278 0.99863 0.0
O370 O 0.11042 0.55941 0.04116 0.0
O371 O 0.09905 0.57437 0.06708 0.0
O372 O 0.06622 0.55917 0.9994 0.0
O373 O 0.07311 0.53899 0.99443 0.0
C374 C 0.10235 0.56099 0.90496 0.0
O375 O 0.09424 0.59284 0.98196 0.0
O376 O 0.11945 0.59433 0.97933 0.0
In377 In 0.42382 0.52653 -0.00018 0.0
O378 O 0.39858 0.50006 0.9919 0.0
O379 O 0.3968 0.52366 0.99103 0.0
C380 C 0.448 0.51609 0.00768 0.0
C381 C 0.43052 0.54036 0.91385 0.0
C382 C 0.42486 0.53983 0.08457 0.0
O383 O 0.43158 0.5052 0.00655 0.0
O384 O 0.45213 0.53216 0.00513 0.0
O385 O 0.41758 0.52345 0.07634 0.0
O386 O 0.43164 0.54975 0.0497 0.0
C387 C 0.38888 0.50696 0.98761 0.0
O388 O 0.43537 0.5502 0.94931 0.0
O389 O 0.42272 0.52398 0.92214 0.0
In390 In 0.09363 0.51894 0.48701 0.0
O391 O 0.10816 0.5434 0.43993 0.0
O392 O 0.09561 0.51768 0.40954 0.0
C393 C 0.10226 0.53052 0.57449 0.0
C394 C 0.10975 0.49979 0.48249 0.0
C395 C 0.05916 0.50941 0.48525 0.0
O396 O 0.107 0.54114 0.5406 0.0
O397 O 0.09323 0.51433 0.56399 0.0
O398 O 0.06422 0.49813 0.48674 0.0
O399 O 0.07145 0.52535 0.48469 0.0
C400 C 0.10466 0.53419 0.40348 0.0
O401 O 0.09313 0.49274 0.47831 0.0
O402 O 0.11798 0.51631 0.48968 0.0
In403 In 0.47225 0.57621 0.49468 0.0
O404 O 0.44753 0.5658 0.44848 0.0
O405 O 0.47311 0.57909 0.41727 0.0
C406 C 0.46163 0.57288 0.58326 0.0
C407 C 0.48991 0.61156 0.48761 0.0
C408 C 0.4813 0.55091 0.489 0.0
O409 O 0.45073 0.5674 0.54997 0.0
O410 O 0.47771 0.57998 0.57165 0.0
O411 O 0.49284 0.56722 0.49011 0.0
O412 O 0.4655 0.5476 0.49145 0.0
C413 C 0.45658 0.57141 0.41171 0.0
O414 O 0.49778 0.60266 0.48544 0.0
O415 O 0.47345 0.6026 0.49501 0.0
In416 In 0.42158 0.88888 0.50903 0.0
O417 O 0.43055 0.87542 0.45461 0.0
O418 O 0.42075 0.89224 0.43241 0.0
C419 C 0.42239 0.87727 0.595 0.0
C420 C 0.38653 0.87323 0.49849 0.0
C421 C 0.4461 0.92337 0.51569 0.0
O422 O 0.42977 0.87419 0.56132 0.0
O423 O 0.41498 0.8861 0.58487 0.0
O424 O 0.42969 0.91791 0.51666 0.0
O425 O 0.45015 0.91138 0.51208 0.0
C426 C 0.42655 0.88214 0.42099 0.0
O427 O 0.39617 0.88989 0.50186 0.0
O428 O 0.39458 0.86458 0.50178 0.0
In429 In 0.20059 0.43386 0.33852 0.0
O430 O 0.17353 0.42865 0.3636 0.0
O431 O 0.1947 0.45534 0.35832 0.0
C432 C 0.18741 0.39862 0.34108 0.0
C433 C 0.22416 0.44608 0.40924 0.0
C434 C 0.2084 0.44353 0.2489 0.0
O435 O 0.17898 0.40582 0.35669 0.0
O436 O 0.20234 0.4092 0.32372 0.0
O437 O 0.22014 0.44649 0.27866 0.0
O438 O 0.19285 0.4359 0.26443 0.0
C439 C 0.1788 0.44493 0.3694 0.0
O440 O 0.21897 0.45549 0.38922 0.0
O441 O 0.21835 0.43094 0.39181 0.0
In442 In 0.55017 0.76692 0.33195 0.0
O443 O 0.53052 0.76277 0.39024 0.0
O444 O 0.55281 0.78831 0.38305 0.0
C445 C 0.54031 0.76534 0.24191 0.0
C446 C 0.53952 0.73369 0.35986 0.0
C447 C 0.58552 0.78849 0.33395 0.0
O448 O 0.53587 0.77268 0.2726 0.0
O449 O 0.54938 0.75882 0.25682 0.0
O450 O 0.57815 0.77251 0.3469 0.0
O451 O 0.57505 0.79349 0.31942 0.0
C452 C 0.53933 0.77817 0.40649 0.0
O453 O 0.55572 0.74541 0.35785 0.0
O454 O 0.5289 0.73867 0.34653 0.0
In455 In 0.23285 0.7953 0.32621 0.0
O456 O 0.25653 0.82124 0.35149 0.0
O457 O 0.2581 0.79762 0.35337 0.0
C458 C 0.21087 0.80767 0.30818 0.0
C459 C 0.21779 0.77603 0.40307 0.0
C460 C 0.23645 0.78557 0.24017 0.0
O461 O 0.22679 0.81777 0.3204 0.0
O462 O 0.2063 0.79148 0.30414 0.0
O463 O 0.22616 0.77448 0.26969 0.0
O464 O 0.24504 0.80132 0.25448 0.0
C465 C 0.26546 0.81395 0.36216 0.0
O466 O 0.22612 0.77178 0.37493 0.0
O467 O 0.21658 0.7893 0.39138 0.0
H468 H 0.21347 0.12893 0.78009 0.0
H469 H 0.20662 0.09974 0.0457 0.0
H470 H 0.21703 0.0838 0.82712 0.0
H471 H 0.22177 0.15288 0.00241 0.0
H472 H 0.20236 0.09055 0.96435 0.0
H473 H 0.20857 0.13466 0.86054 0.0
C474 C 0.21291 0.12008 0.80723 0.0
C475 C 0.21589 0.10604 0.79728 0.0
C476 C 0.2064 0.10417 0.97278 0.0
C477 C 0.21021 0.11237 0.88861 0.0
C478 C 0.20878 0.10939 0.01912 0.0
C479 C 0.2148 0.12713 0.03062 0.0
C480 C 0.20992 0.11677 0.9379 0.0
C481 C 0.21735 0.13911 0.9949 0.0
C482 C 0.21018 0.12337 0.853 0.0
C483 C 0.21504 0.09493 0.83354 0.0
N484 N 0.21502 0.13375 0.95007 0.0
N485 N 0.21237 0.09838 0.87763 0.0
H486 H 0.86341 0.08104 0.78702 0.0
H487 H 0.89137 0.10561 0.05257 0.0
H488 H 0.9057 0.13179 0.8329 0.0
H489 H 0.83854 0.06658 0.01029 0.0
H490 H 0.90023 0.11085 0.97097 0.0
H491 H 0.85752 0.07122 0.86826 0.0
C492 C 0.87158 0.08998 0.81412 0.0
C493 C 0.8849 0.10729 0.80354 0.0
C494 C 0.88676 0.101 0.97969 0.0
C495 C 0.87845 0.09619 0.89566 0.0
C496 C 0.88172 0.09797 0.02615 0.0
C497 C 0.86417 0.08581 0.03801 0.0
C498 C 0.87418 0.09164 0.94506 0.0
C499 C 0.85217 0.07624 0.00248 0.0
C500 C 0.8682 0.08443 0.8603 0.0
C501 C 0.89514 0.11841 0.83976 0.0
N502 N 0.85738 0.07941 0.95753 0.0
N503 N 0.89169 0.11269 0.8842 0.0
H504 H 0.91875 0.77127 0.02162 0.0
H505 H 0.84934 0.76794 0.84221 0.0
H506 H 0.87679 0.7813 0.06044 0.0
H507 H 0.90127 0.77918 0.79894 0.0
H508 H 0.85928 0.77272 0.92244 0.0
H509 H 0.9131 0.77432 0.94015 0.0
C510 C 0.9085 0.77435 0.01297 0.0
C511 C 0.89809 0.77588 0.04771 0.0
C512 C 0.8686 0.77435 0.89547 0.0
C513 C 0.89143 0.77914 0.95475 0.0
C514 C 0.8629 0.77152 0.84969 0.0
C515 C 0.87448 0.77301 0.81408 0.0
C516 C 0.88591 0.77835 0.90593 0.0
C517 C 0.89195 0.77786 0.82554 0.0
C518 C 0.90532 0.77614 0.96651 0.0
C519 C 0.88506 0.77997 0.0347 0.0
N520 N 0.89709 0.78009 0.87071 0.0
N521 N 0.8819 0.78117 0.98916 0.0
H522 H 0.08365 0.20566 0.45826 0.0
H523 H 0.11874 0.21658 0.71875 0.0
H524 H 0.13765 0.22145 0.49342 0.0
H525 H 0.06798 0.20953 0.67863 0.0
H526 H 0.12395 0.21163 0.63778 0.0
H527 H 0.07581 0.20023 0.5401 0.0
C528 C 0.09381 0.20778 0.48317 0.0
C529 C 0.11137 0.21428 0.46918 0.0
C530 C 0.11155 0.21086 0.64698 0.0
C531 C 0.10256 0.20824 0.56295 0.0
C532 C 0.10856 0.21357 0.69311 0.0
C533 C 0.09304 0.21368 0.70496 0.0
C534 C 0.09884 0.20813 0.61304 0.0
C535 C 0.08025 0.20981 0.67063 0.0
C536 C 0.08935 0.20469 0.52991 0.0
C537 C 0.12398 0.21664 0.50287 0.0
N538 N 0.0835 0.20734 0.62622 0.0
N539 N 0.11938 0.21383 0.54832 0.0
H540 H 0.77779 0.87517 0.47293 0.0
H541 H 0.76611 0.89873 0.73371 0.0
H542 H 0.75973 0.91171 0.50755 0.0
H543 H 0.77316 0.855 0.69335 0.0
H544 H 0.77044 0.90863 0.65242 0.0
H545 H 0.78288 0.87267 0.55498 0.0
C546 C 0.77507 0.88281 0.49779 0.0
C547 C 0.76808 0.89344 0.48354 0.0
C548 C 0.77133 0.89704 0.66164 0.0
C549 C 0.77377 0.8906 0.57755 0.0
C550 C 0.76898 0.8915 0.70793 0.0
C551 C 0.76908 0.87595 0.71984 0.0
C552 C 0.77397 0.88702 0.62764 0.0
C553 C 0.77275 0.86694 0.68533 0.0
C554 C 0.77796 0.88138 0.54464 0.0
C555 C 0.76495 0.90319 0.51719 0.0
N556 N 0.77492 0.87253 0.64083 0.0
N557 N 0.76763 0.90139 0.56276 0.0
H558 H 0.14877 0.91535 0.66139 0.0
H559 H 0.0807 0.84728 0.48192 0.0
H560 H 0.09712 0.87397 0.7045 0.0
H561 H 0.12135 0.89989 0.44266 0.0
H562 H 0.08652 0.85598 0.56342 0.0
H563 H 0.13929 0.90917 0.58089 0.0
C564 C 0.13537 0.90498 0.65382 0.0
C565 C 0.12373 0.89505 0.68952 0.0
C566 C 0.094 0.86567 0.53695 0.0
C567 C 0.11284 0.8878 0.59735 0.0
C568 C 0.09074 0.86072 0.49048 0.0
C569 C 0.10067 0.87287 0.45559 0.0
C570 C 0.1075 0.88279 0.54854 0.0
C571 C 0.11343 0.89012 0.46851 0.0
C572 C 0.12995 0.90153 0.60788 0.0
C573 C 0.10648 0.88189 0.67787 0.0
N574 N 0.11666 0.89449 0.51402 0.0
N575 N 0.1016 0.87844 0.63258 0.0
H576 H 0.78803 0.89798 0.21554 0.0
H577 H 0.7427 0.83126 0.00382 0.0
H578 H 0.73927 0.848 0.22513 0.0
H579 H 0.78103 0.88666 0.98479 0.0
H580 H 0.74587 0.83541 0.08724 0.0
H581 H 0.79021 0.89197 0.13353 0.0
C582 C 0.77803 0.88555 0.20067 0.0
C583 C 0.76339 0.87348 0.22695 0.0
C584 C 0.75367 0.84666 0.0649 0.0
C585 C 0.76574 0.86664 0.13359 0.0
C586 C 0.75187 0.84432 0.0172 0.0
C587 C 0.76146 0.85871 0.9873 0.0
C588 C 0.76519 0.8635 0.08309 0.0
C589 C 0.77327 0.87526 0.00668 0.0
C590 C 0.7792 0.88222 0.15386 0.0
C591 C 0.75072 0.85768 0.20599 0.0
N592 N 0.77474 0.87725 0.05351 0.0
N593 N 0.75213 0.85476 0.16048 0.0
H594 H 0.08058 0.85586 0.15993 0.0
H595 H 0.1501 0.92474 0.98412 0.0
H596 H 0.12559 0.90488 0.20522 0.0
H597 H 0.09795 0.88372 0.94308 0.0
H598 H 0.14089 0.91904 0.06513 0.0
H599 H 0.08602 0.86685 0.08067 0.0
C600 C 0.09155 0.86904 0.15314 0.0
C601 C 0.10279 0.87943 0.18897 0.0
C602 C 0.13137 0.91148 0.03841 0.0
C603 C 0.10923 0.89204 0.09812 0.0
C604 C 0.13661 0.9147 0.99217 0.0
C605 C 0.12481 0.90453 0.95693 0.0
C606 C 0.11427 0.8978 0.0495 0.0
C607 C 0.10749 0.89179 0.96921 0.0
C608 C 0.0946 0.87535 0.10788 0.0
C609 C 0.11666 0.89647 0.17844 0.0
N610 N 0.10282 0.88859 0.01455 0.0
N611 N 0.11969 0.90216 0.13371 0.0
H612 H 0.0923 0.20322 0.96899 0.0
H613 H 0.1013 0.25049 0.21035 0.0
H614 H 0.08168 0.24618 0.98806 0.0
H615 H 0.09625 0.19873 0.20128 0.0
H616 H 0.09357 0.24866 0.12864 0.0
H617 H 0.09377 0.20092 0.05352 0.0
C618 C 0.09021 0.21209 0.99092 0.0
C619 C 0.08701 0.225 0.97154 0.0
C620 C 0.09387 0.23755 0.14455 0.0
C621 C 0.08866 0.22247 0.0677 0.0
C622 C 0.09823 0.23859 0.19124 0.0
C623 C 0.0994 0.22475 0.21244 0.0
C624 C 0.09103 0.22273 0.11855 0.0
C625 C 0.09537 0.20964 0.18615 0.0
C626 C 0.09095 0.21072 0.03905 0.0
C627 C 0.08429 0.2361 0.00146 0.0
N628 N 0.09163 0.20914 0.14025 0.0
N629 N 0.08532 0.23467 0.04791 0.0
H630 H 0.91382 0.77058 0.34316 0.0
H631 H 0.84738 0.77395 0.52108 0.0
H632 H 0.87222 0.7804 0.29909 0.0
H633 H 0.89897 0.78308 0.56082 0.0
H634 H 0.85636 0.77739 0.43986 0.0
H635 H 0.90889 0.77597 0.42301 0.0
C636 C 0.90369 0.774 0.35037 0.0
C637 C 0.89326 0.77487 0.31468 0.0
C638 C 0.86582 0.77894 0.46637 0.0
C639 C 0.88742 0.78088 0.40613 0.0
C640 C 0.8607 0.77695 0.5127 0.0
C641 C 0.87241 0.77804 0.5476 0.0
C642 C 0.88265 0.78174 0.45488 0.0
C643 C 0.88952 0.78205 0.53494 0.0
C644 C 0.90096 0.77718 0.39594 0.0
C645 C 0.88049 0.77955 0.32577 0.0
N646 N 0.89404 0.78346 0.4895 0.0
N647 N 0.8777 0.7821 0.37077 0.0
H648 H 0.21127 0.12274 0.54656 0.0
H649 H 0.21545 0.09882 0.28095 0.0
H650 H 0.22629 0.08457 0.50427 0.0
H651 H 0.2221 0.14893 0.32674 0.0
H652 H 0.21215 0.08916 0.36219 0.0
H653 H 0.20779 0.1281 0.46498 0.0
C654 C 0.21361 0.11533 0.52013 0.0
C655 C 0.21926 0.10335 0.53204 0.0
C656 C 0.21416 0.1022 0.35423 0.0
C657 C 0.21522 0.10932 0.43901 0.0
C658 C 0.21596 0.10766 0.30803 0.0
C659 C 0.21923 0.12474 0.29737 0.0
C660 C 0.21531 0.11381 0.3896 0.0
C661 C 0.21981 0.13572 0.33361 0.0
C662 C 0.21168 0.11843 0.47367 0.0
C663 C 0.22209 0.09407 0.49646 0.0
N664 N 0.2179 0.13009 0.3781 0.0
N665 N 0.22011 0.0973 0.45148 0.0
H666 H 0.91251 0.13535 0.51025 0.0
H667 H 0.84345 0.06687 0.33331 0.0
H668 H 0.87091 0.08343 0.55114 0.0
H669 H 0.89385 0.1101 0.28896 0.0
H670 H 0.85388 0.07225 0.41314 0.0
H671 H 0.90685 0.12611 0.42923 0.0
C672 C 0.90234 0.12192 0.50217 0.0
C673 C 0.89202 0.11017 0.53736 0.0
C674 C 0.86278 0.08044 0.386 0.0
C675 C 0.88534 0.09961 0.4448 0.0
C676 C 0.85681 0.07742 0.34043 0.0
C677 C 0.86777 0.08818 0.30466 0.0
C678 C 0.87974 0.09457 0.39609 0.0
C679 C 0.885 0.10155 0.31566 0.0
C680 C 0.89915 0.11665 0.45593 0.0
C681 C 0.8791 0.09291 0.52504 0.0
N682 N 0.89038 0.10457 0.36062 0.0
N683 N 0.87594 0.08823 0.47968 0.0
H684 H 0.87979 0.45277 0.1163 0.0
H685 H 0.87412 0.42311 0.38105 0.0
H686 H 0.88656 0.40944 0.16271 0.0
H687 H 0.88697 0.47584 0.33975 0.0
H688 H 0.87034 0.41437 0.29944 0.0
H689 H 0.87442 0.45788 0.19695 0.0
C690 C 0.87988 0.4442 0.14336 0.0
C691 C 0.88387 0.43085 0.1332 0.0
C692 C 0.87376 0.42779 0.30837 0.0
C693 C 0.87757 0.43641 0.22461 0.0
C694 C 0.87585 0.43275 0.35486 0.0
C695 C 0.88112 0.45027 0.36697 0.0
C696 C 0.87683 0.44042 0.27396 0.0
C697 C 0.88314 0.46224 0.33173 0.0
C698 C 0.87687 0.44713 0.18921 0.0
C699 C 0.8838 0.42006 0.16931 0.0
N700 N 0.88113 0.45714 0.28671 0.0
N701 N 0.88079 0.42311 0.21342 0.0
H702 H 0.58203 0.45749 0.13186 0.0
H703 H 0.5069 0.40786 0.32031 0.0
H704 H 0.52746 0.42168 0.09656 0.0
H705 H 0.56222 0.44175 0.35249 0.0
H706 H 0.51455 0.40898 0.23854 0.0
H707 H 0.57564 0.44773 0.21204 0.0
C708 C 0.56874 0.44726 0.14097 0.0
C709 C 0.55519 0.44047 0.10782 0.0
C710 C 0.52504 0.41598 0.26352 0.0
C711 C 0.54762 0.42957 0.19989 0.0
C712 C 0.52069 0.41539 0.31022 0.0
C713 C 0.53394 0.42495 0.34313 0.0
C714 C 0.54277 0.4263 0.24961 0.0
C715 C 0.55158 0.43434 0.32821 0.0
C716 C 0.56507 0.44173 0.18681 0.0
C717 C 0.53824 0.42721 0.12122 0.0
N718 N 0.55545 0.43493 0.28248 0.0
N719 N 0.53483 0.42241 0.16657 0.0
H720 H 0.57746 0.09659 0.34855 0.0
H721 H 0.50916 0.09696 0.17046 0.0
H722 H 0.53616 0.10743 0.38879 0.0
H723 H 0.55997 0.10505 0.1268 0.0
H724 H 0.51911 0.1011 0.25063 0.0
H725 H 0.57186 0.1001 0.26737 0.0
C726 C 0.56734 0.0999 0.34028 0.0
C727 C 0.55712 0.10155 0.37533 0.0
C728 C 0.52819 0.10219 0.2236 0.0
C729 C 0.55055 0.10539 0.28267 0.0
C730 C 0.5225 0.09974 0.17784 0.0
C731 C 0.53374 0.10051 0.14213 0.0
C732 C 0.54515 0.10508 0.23393 0.0
C733 C 0.55092 0.10432 0.15346 0.0
C734 C 0.5642 0.10196 0.29398 0.0
C735 C 0.54428 0.10597 0.36279 0.0
N736 N 0.55604 0.1062 0.1986 0.0
N737 N 0.54118 0.10748 0.3174 0.0
H738 H 0.80709 0.55302 0.81307 0.0
H739 H 0.74254 0.55877 0.99278 0.0
H740 H 0.75544 0.5441 0.77486 0.0
H741 H 0.78261 0.54657 0.03605 0.0
H742 H 0.74725 0.55346 0.91267 0.0
H743 H 0.79866 0.55037 0.89465 0.0
C744 C 0.79388 0.55026 0.82189 0.0
C745 C 0.78198 0.54895 0.78729 0.0
C746 C 0.7549 0.55174 0.93962 0.0
C747 C 0.77238 0.54616 0.88036 0.0
C748 C 0.75231 0.55489 0.98533 0.0
C749 C 0.76236 0.55328 0.02089 0.0
C750 C 0.76791 0.5473 0.92917 0.0
C751 C 0.77466 0.54801 0.00948 0.0
C752 C 0.78907 0.5487 0.86841 0.0
C753 C 0.76502 0.54527 0.8005 0.0
N754 N 0.77732 0.54547 0.96435 0.0
N755 N 0.76081 0.54429 0.84608 0.0
H756 H 0.44042 0.26056 0.83457 0.0
H757 H 0.4481 0.19669 0.01668 0.0
H758 H 0.45336 0.22033 0.79811 0.0
H759 H 0.44336 0.24175 0.05741 0.0
H760 H 0.45343 0.20742 0.93725 0.0
H761 H 0.44459 0.25621 0.91623 0.0
C762 C 0.44438 0.25097 0.84372 0.0
C763 C 0.44634 0.24062 0.80956 0.0
C764 C 0.45149 0.21516 0.96347 0.0
C765 C 0.451 0.2355 0.90296 0.0
C766 C 0.44844 0.20903 0.00887 0.0
C767 C 0.44512 0.21828 0.04343 0.0
C768 C 0.45087 0.23051 0.95218 0.0
C769 C 0.44585 0.23424 0.03164 0.0
C770 C 0.44678 0.24852 0.89036 0.0
C771 C 0.45158 0.2285 0.82332 0.0
N772 N 0.44834 0.23972 0.9867 0.0
N773 N 0.45351 0.22611 0.86899 0.0
H774 H 0.77732 0.23146 0.78398 0.0
H775 H 0.75216 0.20174 0.04826 0.0
H776 H 0.73665 0.17893 0.8239 0.0
H777 H 0.80325 0.24355 0.00298 0.0
H778 H 0.74211 0.19682 0.96717 0.0
H779 H 0.78253 0.23977 0.86588 0.0
C780 C 0.7693 0.22178 0.80995 0.0
C781 C 0.75672 0.20443 0.79734 0.0
C782 C 0.75545 0.20718 0.97526 0.0
C783 C 0.76255 0.21381 0.89066 0.0
C784 C 0.76114 0.21 0.02134 0.0
C785 C 0.7786 0.22288 0.03199 0.0
C786 C 0.76723 0.21757 0.94012 0.0
C787 C 0.78976 0.2333 0.99604 0.0
C788 C 0.77232 0.22649 0.85659 0.0
C789 C 0.74665 0.19239 0.83231 0.0
N790 N 0.7839 0.23039 0.9517 0.0
N791 N 0.74986 0.19726 0.87748 0.0
H792 H 0.46403 0.24089 0.54105 0.0
H793 H 0.4119 0.17747 0.32848 0.0
H794 H 0.40839 0.20198 0.54211 0.0
H795 H 0.45769 0.22915 0.30683 0.0
H796 H 0.41429 0.183 0.41136 0.0
H797 H 0.46552 0.23342 0.45939 0.0
C798 C 0.45226 0.23054 0.52437 0.0
C799 C 0.43606 0.22201 0.54806 0.0
C800 C 0.42389 0.19312 0.38856 0.0
C801 C 0.43767 0.21346 0.4557 0.0
C802 C 0.42256 0.18998 0.34118 0.0
C803 C 0.43451 0.20296 0.31061 0.0
C804 C 0.43734 0.20933 0.40589 0.0
C805 C 0.44811 0.21887 0.32924 0.0
C806 C 0.45308 0.22642 0.47787 0.0
C807 C 0.42112 0.20889 0.52494 0.0
N808 N 0.44915 0.22166 0.37585 0.0
N809 N 0.42229 0.20501 0.48013 0.0
H810 H 0.7849 0.23505 0.54815 0.0
H811 H 0.75506 0.21095 0.2836 0.0
H812 H 0.74027 0.18575 0.50272 0.0
H813 H 0.80838 0.24909 0.32466 0.0
H814 H 0.74625 0.20666 0.36517 0.0
H815 H 0.79047 0.24521 0.46717 0.0
C816 C 0.77614 0.22653 0.52123 0.0
C817 C 0.76229 0.20948 0.53176 0.0
C818 C 0.75983 0.21613 0.35619 0.0
C819 C 0.76838 0.22096 0.43999 0.0
C820 C 0.76483 0.21861 0.30973 0.0
C821 C 0.78251 0.23018 0.29757 0.0
C822 C 0.77257 0.22539 0.39055 0.0
C823 C 0.79465 0.23985 0.33272 0.0
C824 C 0.77933 0.23227 0.4752 0.0
C825 C 0.75127 0.1989 0.49583 0.0
N826 N 0.78949 0.23714 0.37773 0.0
N827 N 0.75459 0.20478 0.45153 0.0
H828 H 0.80223 0.55278 0.49233 0.0
H829 H 0.73438 0.55325 0.31373 0.0
H830 H 0.75171 0.54549 0.5358 0.0
H831 H 0.7755 0.54204 0.27434 0.0
H832 H 0.73946 0.54925 0.39496 0.0
H833 H 0.79201 0.54783 0.41239 0.0
C834 C 0.78889 0.54999 0.48496 0.0
C835 C 0.77783 0.54973 0.5205 0.0
C836 C 0.74716 0.54737 0.36852 0.0
C837 C 0.7661 0.54424 0.42893 0.0
C838 C 0.74432 0.5497 0.32218 0.0
C839 C 0.7547 0.54817 0.28739 0.0
C840 C 0.7607 0.54379 0.38012 0.0
C841 C 0.76728 0.54343 0.30014 0.0
C842 C 0.78303 0.54707 0.43934 0.0
C843 C 0.76063 0.54585 0.50923 0.0
N844 N 0.77013 0.54169 0.34558 0.0
N845 N 0.75536 0.54356 0.46417 0.0
H846 H 0.52989 0.10493 0.6241 0.0
H847 H 0.55851 0.11044 0.88987 0.0
H848 H 0.57335 0.09863 0.67148 0.0
H849 H 0.506 0.09761 0.84714 0.0
H850 H 0.56742 0.11387 0.80841 0.0
H851 H 0.5242 0.10972 0.70473 0.0
C852 C 0.53835 0.1048 0.65137 0.0
C853 C 0.55193 0.10115 0.64142 0.0
C854 C 0.554 0.11051 0.81697 0.0
C855 C 0.54569 0.10677 0.73291 0.0
C856 C 0.54895 0.10861 0.86338 0.0
C857 C 0.53145 0.1035 0.8751 0.0
C858 C 0.5415 0.10741 0.7822 0.0
C859 C 0.51958 0.10134 0.83947 0.0
C860 C 0.53509 0.10748 0.69723 0.0
C861 C 0.56257 0.10115 0.67785 0.0
N862 N 0.52478 0.10319 0.79454 0.0
N863 N 0.55919 0.10384 0.72198 0.0
H864 H 0.8808 0.421 0.61697 0.0
H865 H 0.87753 0.44651 0.88157 0.0
H866 H 0.88979 0.47206 0.66205 0.0
H867 H 0.88992 0.40626 0.841 0.0
H868 H 0.87409 0.45162 0.79981 0.0
H869 H 0.87655 0.41124 0.69828 0.0
C870 C 0.88165 0.43004 0.64391 0.0
C871 C 0.88586 0.4474 0.6331 0.0
C872 C 0.87736 0.44153 0.80893 0.0
C873 C 0.88081 0.43636 0.72524 0.0
C874 C 0.87926 0.43857 0.85549 0.0
C875 C 0.88424 0.42612 0.86788 0.0
C876 C 0.88029 0.43183 0.7747 0.0
C877 C 0.88629 0.41615 0.83277 0.0
C878 C 0.87928 0.42451 0.69011 0.0
C879 C 0.8868 0.45863 0.66908 0.0
N880 N 0.8844 0.41929 0.78767 0.0
N881 N 0.88433 0.45293 0.71355 0.0
H882 H 0.54022 0.46829 0.61007 0.0
H883 H 0.55845 0.43353 0.84463 0.0
H884 H 0.55401 0.42717 0.60993 0.0
H885 H 0.56543 0.48591 0.82794 0.0
H886 H 0.55613 0.42989 0.75991 0.0
H887 H 0.54901 0.47436 0.69104 0.0
C888 C 0.54543 0.46076 0.62707 0.0
C889 C 0.54651 0.44731 0.60353 0.0
C890 C 0.55837 0.44222 0.775 0.0
C891 C 0.55607 0.45374 0.69661 0.0
C892 C 0.55959 0.44426 0.82321 0.0
C893 C 0.56195 0.45996 0.84332 0.0
C894 C 0.55931 0.45591 0.74714 0.0
C895 C 0.56346 0.47351 0.81404 0.0
C896 C 0.55042 0.46419 0.67329 0.0
C897 C 0.55321 0.4378 0.62702 0.0
N898 N 0.56195 0.4711 0.76761 0.0
N899 N 0.55747 0.44099 0.67274 0.0
H900 H 0.52329 0.77028 0.70157 0.0
H901 H 0.55618 0.8106 0.44842 0.0
H902 H 0.56207 0.82484 0.67344 0.0
H903 H 0.51618 0.75613 0.47233 0.0
H904 H 0.5555 0.81673 0.53055 0.0
H905 H 0.51784 0.76527 0.61796 0.0
C906 C 0.53052 0.78122 0.67788 0.0
C907 C 0.54327 0.79794 0.69444 0.0
C908 C 0.54667 0.80347 0.51785 0.0
C909 C 0.53714 0.79236 0.59905 0.0
C910 C 0.54699 0.80001 0.47083 0.0
C911 C 0.53631 0.78282 0.45355 0.0
C912 C 0.53574 0.78961 0.54806 0.0
C913 C 0.52466 0.76958 0.48423 0.0
C914 C 0.52742 0.77837 0.63021 0.0
C915 C 0.55224 0.81167 0.66225 0.0
N916 N 0.52487 0.77319 0.53013 0.0
N917 N 0.54909 0.80855 0.61626 0.0
H918 H 0.18955 0.77231 0.45108 0.0
H919 H 0.22645 0.76254 0.69324 0.0
H920 H 0.23345 0.76281 0.46035 0.0
H921 H 0.17408 0.7551 0.67386 0.0
H922 H 0.22972 0.76257 0.60866 0.0
H923 H 0.18352 0.76531 0.53305 0.0
C924 C 0.19768 0.76835 0.47034 0.0
C925 C 0.21195 0.76806 0.44914 0.0
C926 C 0.21748 0.76076 0.62311 0.0
C927 C 0.20557 0.76062 0.54337 0.0
C928 C 0.21565 0.76086 0.67125 0.0
C929 C 0.20005 0.759 0.69053 0.0
C930 C 0.20365 0.75896 0.59437 0.0
C931 C 0.1864 0.75672 0.66055 0.0
C932 C 0.1943 0.76443 0.51717 0.0
C933 C 0.2222 0.76299 0.47554 0.0
N934 N 0.18859 0.75692 0.6141 0.0
N935 N 0.21901 0.75977 0.52168 0.0
H936 H 0.24135 0.43122 0.45244 0.0
H937 H 0.22564 0.45965 0.69897 0.0
H938 H 0.22588 0.47078 0.4703 0.0
H939 H 0.25476 0.43223 0.67678 0.0
H940 H 0.22756 0.46601 0.61573 0.0
H941 H 0.249 0.43378 0.53438 0.0
C942 C 0.23997 0.44076 0.47347 0.0
C943 C 0.23285 0.45069 0.45481 0.0
C944 C 0.23375 0.45884 0.62929 0.0
C945 C 0.24102 0.45332 0.54884 0.0
C946 C 0.23259 0.45516 0.67669 0.0
C947 C 0.23979 0.44515 0.69458 0.0
C948 C 0.24203 0.45231 0.59982 0.0
C949 C 0.24878 0.43976 0.66435 0.0
C950 C 0.24427 0.44219 0.5203 0.0
C951 C 0.23132 0.46286 0.48348 0.0
N952 N 0.24945 0.44321 0.61845 0.0
N953 N 0.235 0.46357 0.52939 0.0
H954 H 0.46011 0.86517 0.15224 0.0
H955 H 0.4112 0.88895 0.34872 0.0
H956 H 0.42286 0.88311 0.12655 0.0
H957 H 0.44462 0.86691 0.38069 0.0
H958 H 0.41402 0.88465 0.267 0.0
H959 H 0.45311 0.8631 0.23507 0.0
C960 C 0.45023 0.86837 0.16391 0.0
C961 C 0.44214 0.87446 0.13252 0.0
C962 C 0.42071 0.88063 0.29163 0.0
C963 C 0.43425 0.87232 0.22705 0.0
C964 C 0.41916 0.88316 0.33849 0.0
C965 C 0.42785 0.87845 0.37161 0.0
C966 C 0.43121 0.8735 0.27724 0.0
C967 C 0.43777 0.87079 0.35621 0.0
C968 C 0.4463 0.86725 0.21119 0.0
C969 C 0.42949 0.87846 0.14949 0.0
N970 N 0.43935 0.86871 0.30997 0.0
N971 N 0.42608 0.87748 0.19555 0.0
H972 H 0.11853 0.54406 0.10813 0.0
H973 H 0.11442 0.56784 0.37396 0.0
H974 H 0.10792 0.58522 0.1518 0.0
H975 H 0.10705 0.51761 0.32674 0.0
H976 H 0.11977 0.57848 0.29351 0.0
H977 H 0.12229 0.53853 0.18936 0.0
C978 C 0.1173 0.55213 0.13475 0.0
C979 C 0.11267 0.56493 0.1234 0.0
C980 C 0.11719 0.56521 0.30099 0.0
C981 C 0.11693 0.55871 0.21604 0.0
C982 C 0.1142 0.55918 0.34677 0.0
C983 C 0.11006 0.54177 0.35673 0.0
C984 C 0.11626 0.5538 0.26532 0.0
C985 C 0.10995 0.53106 0.32036 0.0
C986 C 0.11937 0.54893 0.18104 0.0
C987 C 0.11127 0.57505 0.1592 0.0
N988 N 0.11291 0.5372 0.27626 0.0
N989 N 0.11325 0.57163 0.20399 0.0
H990 H 0.44638 0.57362 0.11612 0.0
H991 H 0.42332 0.54638 0.38264 0.0
H992 H 0.40693 0.52132 0.16117 0.0
H993 H 0.47245 0.59059 0.33476 0.0
H994 H 0.41274 0.54035 0.30216 0.0
H995 H 0.45152 0.58331 0.19706 0.0
C996 C 0.43861 0.56427 0.14298 0.0
C997 C 0.42641 0.5466 0.13211 0.0
C998 C 0.42574 0.5515 0.3095 0.0
C999 C 0.43216 0.55754 0.22442 0.0
C1000 C 0.43172 0.55497 0.3553 0.0
C1001 C 0.44884 0.56883 0.36507 0.0
C1002 C 0.43689 0.56215 0.27365 0.0
C1003 C 0.45924 0.5796 0.32852 0.0
C1004 C 0.44158 0.56977 0.18911 0.0
C1005 C 0.41664 0.53502 0.1682 0.0
N1006 N 0.45315 0.57598 0.28441 0.0
N1007 N 0.41982 0.54065 0.21281 0.0
H1008 H 0.10192 0.57912 0.8294 0.0
H1009 H 0.1003 0.51065 0.64939 0.0
H1010 H 0.11123 0.53693 0.87137 0.0
H1011 H 0.11299 0.5635 0.60997 0.0
H1012 H 0.1039 0.51954 0.73072 0.0
H1013 H 0.10552 0.57333 0.74875 0.0
C1014 C 0.10484 0.56868 0.82155 0.0
C1015 C 0.10613 0.55836 0.85691 0.0
C1016 C 0.10613 0.52925 0.70426 0.0
C1017 C 0.11008 0.55155 0.76467 0.0
C1018 C 0.104 0.52418 0.65789 0.0
C1019 C 0.1062 0.53634 0.62305 0.0
C1020 C 0.11015 0.5465 0.71584 0.0
C1021 C 0.11112 0.55372 0.63585 0.0
C1022 C 0.10699 0.56546 0.77554 0.0
C1023 C 0.1101 0.54514 0.84498 0.0
N1024 N 0.11268 0.55822 0.68133 0.0
N1025 N 0.11166 0.5419 0.79964 0.0
H1026 H 0.41203 0.52282 0.83755 0.0
H1027 H 0.48223 0.58915 0.65872 0.0
H1028 H 0.45599 0.5729 0.88119 0.0
H1029 H 0.42867 0.55118 0.61923 0.0
H1030 H 0.47356 0.58322 0.7402 0.0
H1031 H 0.4184 0.53258 0.7572 0.0
C1032 C 0.42298 0.53594 0.83014 0.0
C1033 C 0.43359 0.54705 0.86592 0.0
C1034 C 0.46367 0.57635 0.7137 0.0
C1035 C 0.44108 0.55822 0.77397 0.0
C1036 C 0.46861 0.57966 0.66723 0.0
C1037 C 0.45615 0.57053 0.63226 0.0
C1038 C 0.44624 0.56359 0.72522 0.0
C1039 C 0.43868 0.55847 0.64515 0.0
C1040 C 0.42655 0.54153 0.78429 0.0
C1041 C 0.44752 0.56396 0.8545 0.0
N1042 N 0.43429 0.55516 0.69064 0.0
N1043 N 0.45105 0.56896 0.80932 0.0
H1044 H 0.45661 0.85955 0.85984 0.0
H1045 H 0.40191 0.87687 0.66606 0.0
H1046 H 0.41601 0.87279 0.888 0.0
H1047 H 0.44318 0.865 0.63389 0.0
H1048 H 0.40392 0.87069 0.7472 0.0
H1049 H 0.4487 0.85643 0.77769 0.0
C1050 C 0.44573 0.86136 0.84893 0.0
C1051 C 0.43705 0.86661 0.88076 0.0
C1052 C 0.41246 0.86926 0.72253 0.0
C1053 C 0.42815 0.86332 0.78676 0.0
C1054 C 0.41135 0.87283 0.67608 0.0
C1055 C 0.42256 0.87167 0.64323 0.0
C1056 C 0.42504 0.86466 0.73667 0.0
C1057 C 0.43436 0.86615 0.65818 0.0
C1058 C 0.44131 0.8597 0.80195 0.0
C1059 C 0.42313 0.86884 0.86466 0.0
N1060 N 0.43546 0.86307 0.70399 0.0
N1061 N 0.41926 0.8674 0.81877 0.0
H1062 H 0.23993 0.45464 0.20524 0.0
H1063 H 0.20148 0.44456 0.94846 0.0
H1064 H 0.18564 0.44037 0.17948 0.0
H1065 H 0.24452 0.43616 0.98723 0.0
H1066 H 0.19852 0.45077 0.03042 0.0
H1067 H 0.24506 0.45635 0.12182 0.0
C1068 C 0.22916 0.45213 0.18203 0.0
C1069 C 0.21228 0.44709 0.19916 0.0
C1070 C 0.20868 0.44772 0.02059 0.0
C1071 C 0.21803 0.44899 0.10388 0.0
C1072 C 0.21038 0.44422 0.97408 0.0
C1073 C 0.22308 0.43961 0.96148 0.0
C1074 C 0.22008 0.447 0.05389 0.0
C1075 C 0.23436 0.43938 0.99571 0.0
C1076 C 0.23207 0.45305 0.13447 0.0
C1077 C 0.19881 0.44408 0.16754 0.0
N1078 N 0.2326 0.44301 0.04025 0.0
N1079 N 0.20192 0.44492 0.12125 0.0
H1080 H 0.54954 0.76288 0.94689 0.0
H1081 H 0.52349 0.78088 0.19777 0.0
H1082 H 0.52126 0.79113 0.96871 0.0
H1083 H 0.54812 0.74933 0.17226 0.0
H1084 H 0.51965 0.78231 0.11399 0.0
H1085 H 0.54583 0.75481 0.02871 0.0
C1086 C 0.54222 0.76707 0.96872 0.0
C1087 C 0.5358 0.77778 0.95098 0.0
C1088 C 0.52572 0.77492 0.1268 0.0
C1089 C 0.53185 0.76896 0.04518 0.0
C1090 C 0.52791 0.77411 0.17461 0.0
C1091 C 0.53628 0.76512 0.192 0.0
C1092 C 0.532 0.76672 0.09625 0.0
C1093 C 0.54173 0.75654 0.16042 0.0
C1094 C 0.54017 0.76254 0.01558 0.0
C1095 C 0.52643 0.78285 0.98094 0.0
N1096 N 0.53962 0.75768 0.11421 0.0
N1097 N 0.52497 0.77864 0.02671 0.0
H1098 H 0.25694 0.80751 0.17063 0.0
H1099 H 0.19824 0.73827 0.97781 0.0
H1100 H 0.21729 0.75322 0.19844 0.0
H1101 H 0.24013 0.79109 0.94562 0.0
H1102 H 0.20865 0.7422 0.05739 0.0
H1103 H 0.25451 0.80071 0.08797 0.0
C1104 C 0.24791 0.79408 0.15939 0.0
C1105 C 0.23709 0.78095 0.19134 0.0
C1106 C 0.2158 0.75289 0.03298 0.0
C1107 C 0.23419 0.77312 0.09685 0.0
C1108 C 0.20986 0.75063 0.9875 0.0
C1109 C 0.21825 0.76447 0.95546 0.0
C1110 C 0.23003 0.76928 0.04693 0.0
C1111 C 0.23332 0.78014 0.96949 0.0
C1112 C 0.24655 0.79021 0.11218 0.0
C1113 C 0.22574 0.76378 0.17495 0.0
N1114 N 0.23855 0.78228 0.0146 0.0
N1115 N 0.22443 0.76042 0.1288 0.0
H1116 H 0.13478 0.18658 0.26928 0.0
H1117 H 0.22917 0.19978 0.19951 0.0
H1118 H 0.18318 0.23674 0.28323 0.0
H1119 H 0.1793 0.15206 0.17478 0.0
H1120 H 0.21298 0.21432 0.22703 0.0
H1121 H 0.15128 0.17422 0.23266 0.0
C1122 C 0.14893 0.195 0.26471 0.0
C1123 C 0.15767 0.21267 0.27954 0.0
C1124 C 0.20562 0.20073 0.21512 0.0
C1125 C 0.1767 0.19861 0.23739 0.0
C1126 C 0.21483 0.19246 0.1993 0.0
C1127 C 0.20553 0.17467 0.18526 0.0
C1128 C 0.18704 0.19106 0.21695 0.0
C1129 C 0.18699 0.16576 0.18565 0.0
C1130 C 0.15835 0.18795 0.24357 0.0
C1131 C 0.17599 0.22301 0.27242 0.0
N1132 N 0.17837 0.17401 0.20159 0.0
N1133 N 0.18496 0.21579 0.25198 0.0
H1134 H 0.74825 0.94351 0.28839 0.0
H1135 H 0.83683 0.02258 0.17867 0.0
H1136 H 0.79904 0.9462 0.28805 0.0
H1137 H 0.79086 0.02743 0.20733 0.0
H1138 H 0.82098 0.99219 0.20695 0.0
H1139 H 0.76185 0.97242 0.24916 0.0
C1140 C 0.76224 0.95019 0.28014 0.0
C1141 C 0.77259 0.94257 0.29171 0.0
C1142 C 0.81429 -0.00016 0.20681 0.0
C1143 C 0.78804 0.97524 0.24651 0.0
C1144 C 0.8233 0.01716 0.19044 0.0
C1145 C 0.81519 0.02756 0.19115 0.0
C1146 C 0.79703 0.99285 0.22414 0.0
C1147 C 0.7976 0.01984 0.20647 0.0
C1148 C 0.76995 0.96661 0.25773 0.0
C1149 C 0.7906 0.95167 0.28009 0.0
N1150 N 0.78912 0.00294 0.22281 0.0
N1151 N 0.79773 0.96749 0.25809 0.0
H1152 H 0.95548 0.76026 0.21454 0.0
H1153 H 0.03823 0.8507 0.30372 0.0
H1154 H 0.95833 0.81117 0.21055 0.0
H1155 H 0.03971 0.80214 0.28902 0.0
H1156 H 0.00785 0.8355 0.27541 0.0
H1157 H 0.98571 0.77467 0.2453 0.0
C1158 C 0.96253 0.77448 0.21971 0.0
C1159 C 0.95444 0.78456 0.21 0.0
C1160 C 0.01477 0.82812 0.27852 0.0
C1161 C 0.98875 0.80102 0.24569 0.0
C1162 C 0.03208 0.83677 0.29497 0.0
C1163 C 0.04149 0.82766 0.29853 0.0
C1164 C 0.00679 0.81022 0.26554 0.0
C1165 C 0.03289 0.80963 0.28672 0.0
C1166 C 0.97972 0.78267 0.23744 0.0
C1167 C 0.96409 0.8029 0.21751 0.0
N1168 N 0.01601 0.80149 0.27051 0.0
N1169 N 0.9807 0.81052 0.23511 0.0
H1170 H 0.79772 0.75873 0.71193 0.0
H1171 H 0.80355 0.84437 0.83005 0.0
H1172 H 0.84537 0.80983 0.71932 0.0
H1173 H 0.75379 0.79739 0.7989 0.0
H1174 H 0.81915 0.83053 0.79582 0.0
H1175 H 0.78125 0.77166 0.74746 0.0
C1176 C 0.80465 0.7727 0.72055 0.0
C1177 C 0.82291 0.78324 0.71275 0.0
C1178 C 0.80482 0.8232 0.79658 0.0
C1179 C 0.80432 0.79797 0.75394 0.0
C1180 C 0.79591 0.83104 0.81644 0.0
C1181 C 0.77736 0.82202 0.81712 0.0
C1182 C 0.79513 0.80618 0.77732 0.0
C1183 C 0.76812 0.80479 0.799 0.0
C1184 C 0.79528 0.78004 0.74098 0.0
C1185 C 0.8313 0.80123 0.7247 0.0
N1186 N 0.77712 0.79742 0.7796 0.0
N1187 N 0.82195 0.808 0.74497 0.0
H1188 H 0.18235 0.03999 0.68583 0.0
H1189 H 0.19656 0.96257 0.78799 0.0
H1190 H 0.23388 0.04495 0.70121 0.0
H1191 H 0.14646 0.96133 0.78636 0.0
H1192 H 0.21059 0.99221 0.75334 0.0
H1193 H 0.16886 0.01007 0.7174 0.0
C1194 C 0.19081 0.03469 0.69537 0.0
C1195 C 0.20925 0.04495 0.69108 0.0
C1196 C 0.19654 0.98546 0.76079 0.0
C1197 C 0.19394 0.01082 0.72786 0.0
C1198 C 0.18857 0.96861 0.78076 0.0
C1199 C 0.17035 0.95953 0.79006 0.0
C1200 C 0.18617 0.99316 0.74992 0.0
C1201 C 0.16056 0.96788 0.77981 0.0
C1202 C 0.18312 0.01765 0.71368 0.0
C1203 C 0.21959 0.03745 0.704 0.0
N1204 N 0.16858 0.98419 0.76012 0.0
N1205 N 0.21179 0.02083 0.72209 0.0
H1206 H 0.9514 0.13683 0.70976 0.0
H1207 H 0.03118 0.23139 0.78552 0.0
H1208 H 0.94836 0.18473 0.70142 0.0
H1209 H 0.02799 0.18152 0.81856 0.0
H1210 H 0.00141 0.21511 0.75201 0.0
H1211 H 0.98066 0.15371 0.7446 0.0
C1212 C 0.95699 0.15096 0.71483 0.0
C1213 C 0.94747 0.15942 0.70276 0.0
C1214 C 0.0072 0.20776 0.76699 0.0
C1215 C 0.98086 0.17879 0.74316 0.0
C1216 C 0.02412 0.21703 0.7863 0.0
C1217 C 0.03204 0.20776 0.80467 0.0
C1218 C -0.0017 0.18916 0.76581 0.0
C1219 C 0.02238 0.18919 0.80467 0.0
C1220 C 0.97363 0.16057 0.73507 0.0
C1221 C 0.9553 0.17773 0.71025 0.0
N1222 N 0.00608 0.1805 0.78518 0.0
N1223 N 0.97158 0.18684 0.73009 0.0
H1224 H 0.85468 0.56436 0.61901 0.0
H1225 H 0.84622 0.47398 0.52674 0.0
H1226 H 0.80694 0.51334 0.62644 0.0
H1227 H 0.89634 0.52261 0.53764 0.0
H1228 H 0.83148 0.48904 0.55878 0.0
H1229 H 0.87031 0.54994 0.58704 0.0
C1230 C 0.84756 0.55012 0.6144 0.0
C1231 C 0.8295 0.54001 0.62527 0.0
C1232 C 0.8457 0.49647 0.55409 0.0
C1233 C 0.84714 0.52355 0.58822 0.0
C1234 C 0.85411 0.4879 0.53551 0.0
C1235 C 0.87252 0.49708 0.52965 0.0
C1236 C 0.85575 0.51437 0.56689 0.0
C1237 C 0.8821 0.51508 0.54162 0.0
C1238 C 0.85645 0.54192 0.59599 0.0
C1239 C 0.82086 0.52163 0.61849 0.0
N1240 N 0.87359 0.52317 0.55986 0.0
N1241 N 0.82974 0.51401 0.60015 0.0
H1242 H 0.47801 0.29705 0.63216 0.0
H1243 H 0.46555 0.3759 0.53268 0.0
H1244 H 0.4268 0.29326 0.62372 0.0
H1245 H 0.5141 0.37409 0.52716 0.0
H1246 H 0.45086 0.34638 0.56889 0.0
H1247 H 0.49142 0.32642 0.59802 0.0
C1248 C 0.46958 0.30246 0.62329 0.0
C1249 C 0.45127 0.2927 0.63061 0.0
C1250 C 0.46471 0.35248 0.55955 0.0
C1251 C 0.46654 0.32639 0.59102 0.0
C1252 C 0.47306 0.36926 0.53885 0.0
C1253 C 0.49105 0.37742 0.52698 0.0
C1254 C 0.4745 0.34398 0.56847 0.0
C1255 C 0.50021 0.36832 0.53576 0.0
C1256 C 0.47724 0.31924 0.6036 0.0
C1257 C 0.441 0.30039 0.61855 0.0
N1258 N 0.49186 0.35216 0.55605 0.0
N1259 N 0.44878 0.31683 0.59915 0.0
H1260 H 0.61756 0.13976 0.53429 0.0
H1261 H 0.69942 0.13175 0.62919 0.0
H1262 H 0.61673 0.08991 0.5451 0.0
H1263 H 0.69642 0.17972 0.63399 0.0
H1264 H 0.66956 0.11612 0.59626 0.0
H1265 H 0.6474 0.15483 0.56634 0.0
C1266 C 0.62375 0.13201 0.54298 0.0
C1267 C 0.61468 0.11357 0.53718 0.0
C1268 C 0.67542 0.13004 0.6048 0.0
C1269 C 0.64873 0.13068 0.57443 0.0
C1270 C 0.69239 0.13893 0.62379 0.0
C1271 C 0.70036 0.15703 0.63426 0.0
C1272 C 0.66646 0.13939 0.59607 0.0
C1273 C 0.69075 0.16575 0.62643 0.0
C1274 C 0.64074 0.1406 0.56157 0.0
C1275 C 0.6233 0.10417 0.54905 0.0
N1276 N 0.67434 0.15686 0.60756 0.0
N1277 N 0.63986 0.11284 0.56733 0.0
H1278 H 0.42085 0.13572 0.13102 0.0
H1279 H 0.50904 0.14044 0.03686 0.0
H1280 H 0.47336 0.18038 0.15106 0.0
H1281 H 0.45964 0.09105 0.04762 0.0
H1282 H 0.49508 0.15573 0.07212 0.0
H1283 H 0.43393 0.11917 0.09661 0.0
C1284 C 0.43512 0.14194 0.12876 0.0
C1285 C 0.44606 0.15945 0.14376 0.0
C1286 C 0.48725 0.14155 0.0667 0.0
C1287 C 0.461 0.14082 0.1038 0.0
C1288 C 0.49517 0.13283 0.0462 0.0
C1289 C 0.48547 0.11444 0.03943 0.0
C1290 C 0.46945 0.13186 0.08039 0.0
C1291 C 0.46756 0.10525 0.05226 0.0
C1292 C 0.44256 0.13254 0.10897 0.0
C1293 C 0.46444 0.16692 0.13991 0.0
N1294 N 0.46009 0.11407 0.07229 0.0
N1295 N 0.47133 0.15762 0.11994 0.0
H1296 H 0.89877 0.36828 0.03945 0.0
H1297 H 0.80791 0.28889 0.13686 0.0
H1298 H 0.84813 0.3656 0.02766 0.0
H1299 H 0.85532 0.28522 0.12479 0.0
H1300 H 0.82354 0.31832 0.10254 0.0
H1301 H 0.88391 0.33856 0.07379 0.0
C1302 C 0.88451 0.36135 0.04355 0.0
C1303 C 0.87464 0.36938 0.03084 0.0
C1304 C 0.83058 0.31113 0.10747 0.0
C1305 C 0.8577 0.33571 0.07064 0.0
C1306 C 0.82169 0.29437 0.12739 0.0
C1307 C 0.83034 0.28462 0.13352 0.0
C1308 C 0.84827 0.31823 0.09362 0.0
C1309 C 0.84819 0.29235 0.12062 0.0
C1310 C 0.87607 0.34446 0.06332 0.0
C1311 C 0.85624 0.3599 0.03703 0.0
N1312 N 0.85659 0.30874 0.10107 0.0
N1313 N 0.84839 0.34362 0.05679 0.0
H1314 H 0.69897 0.56573 0.11881 0.0
H1315 H 0.62301 0.47893 0.99497 0.0
H1316 H 0.69777 0.5156 0.1131 0.0
H1317 H 0.61635 0.52337 0.03065 0.0
H1318 H 0.65243 0.49415 0.02953 0.0
H1319 H 0.66995 0.55188 0.08072 0.0
C1320 C 0.69251 0.55178 0.11002 0.0
C1321 C 0.70073 0.54177 0.1191 0.0
C1322 C 0.64459 0.50063 0.02961 0.0
C1323 C 0.66792 0.52604 0.07492 0.0
C1324 C 0.62785 0.49201 0.00954 0.0
C1325 C 0.61723 0.49988 0.01024 0.0
C1326 C 0.65076 0.51726 0.05043 0.0
C1327 C 0.62415 0.51685 0.02955 0.0
C1328 C 0.67603 0.54393 0.08813 0.0
C1329 C 0.69188 0.5238 0.10681 0.0
N1330 N 0.64049 0.52497 0.04918 0.0
N1331 N 0.67601 0.51655 0.08509 0.0
H1332 H 0.51223 0.88084 0.036 0.0
H1333 H 0.54404 0.85549 0.81295 0.0
H1334 H 0.51333 0.90434 0.90368 0.0
H1335 H 0.56249 0.8508 0.94785 0.0
H1336 H 0.53487 0.87554 0.84543 0.0
H1337 H 0.53297 0.87209 0.00616 0.0
C1338 C 0.51716 0.88451 0.001 0.0
C1339 C 0.51086 0.89305 0.97197 0.0
C1340 C 0.54126 0.87043 0.86779 0.0
C1341 C 0.53424 0.88281 0.9374 0.0
C1342 C 0.54641 0.85894 0.84929 0.0
C1343 C 0.5538 0.85135 0.87796 0.0
C1344 C 0.5431 0.87397 0.9155 0.0
C1345 C 0.55674 0.85632 0.92469 0.0
C1346 C 0.52901 0.87954 0.98399 0.0
C1347 C 0.51775 0.89761 0.92704 0.0
N1348 N 0.55102 0.86705 0.9423 0.0
N1349 N 0.52877 0.89207 0.91074 0.0
H1350 H 0.0953 0.62276 0.96292 0.0
H1351 H 0.18086 0.69952 0.83697 0.0
H1352 H 0.14501 0.62357 0.94979 0.0
H1353 H 0.13715 0.70627 0.87955 0.0
H1354 H 0.16585 0.6698 0.86984 0.0
H1355 H 0.1089 0.65218 0.92689 0.0
C1356 C 0.10911 0.62921 0.95293 0.0
C1357 C 0.11908 0.62077 0.95934 0.0
C1358 C 0.15948 0.67773 0.87183 0.0
C1359 C 0.13451 0.65406 0.9175 0.0
C1360 C 0.16798 0.69465 0.85275 0.0
C1361 C 0.16027 0.70538 0.85583 0.0
C1362 C 0.14312 0.67147 0.89411 0.0
C1363 C 0.14355 0.6984 0.87657 0.0
C1364 C 0.11682 0.64592 0.93222 0.0
C1365 C 0.13686 0.62963 0.94559 0.0
N1366 N 0.13554 0.68186 0.89523 0.0
N1367 N 0.14398 0.64574 0.92506 0.0
H1368 H 0.28783 0.47886 0.8713 0.0
H1369 H 0.36931 0.47133 0.97053 0.0
H1370 H 0.28748 0.4292 0.88007 0.0
H1371 H 0.36599 0.51914 0.97326 0.0
H1372 H 0.33929 0.4553 0.93869 0.0
H1373 H 0.3168 0.49371 0.90793 0.0
C1374 C 0.29394 0.47109 0.88065 0.0
C1375 C 0.2853 0.45279 0.87255 0.0
C1376 C 0.34509 0.46926 0.94664 0.0
C1377 C 0.31845 0.46969 0.91498 0.0
C1378 C 0.36217 0.47839 0.96497 0.0
C1379 C 0.37013 0.49659 0.97426 0.0
C1380 C 0.33603 0.47847 0.93743 0.0
C1381 C 0.36036 0.50512 0.9664 0.0
C1382 C 0.31045 0.47957 0.90185 0.0
C1383 C 0.29377 0.44337 0.88559 0.0
N1384 N 0.34386 0.49601 0.94813 0.0
N1385 N 0.30993 0.45194 0.90622 0.0
H1386 H 0.14482 0.51193 0.49495 0.0
H1387 H 0.14302 0.42659 0.3866 0.0
H1388 H 0.09629 0.4655 0.45288 0.0
H1389 H 0.18968 0.47823 0.39964 0.0
H1390 H 0.12541 0.43851 0.42147 0.0
H1391 H 0.16122 0.49726 0.47283 0.0
C1392 C 0.13759 0.49855 0.48145 0.0
C1393 C 0.11922 0.48998 0.47515 0.0
C1394 C 0.13951 0.44716 0.41671 0.0
C1395 C 0.13793 0.47316 0.44923 0.0
C1396 C 0.14952 0.44039 0.39682 0.0
C1397 C 0.16776 0.45151 0.3899 0.0
C1398 C 0.14792 0.46505 0.43011 0.0
C1399 C 0.17562 0.46924 0.40391 0.0
C1400 C 0.14697 0.4902 0.46867 0.0
C1401 C 0.11049 0.47258 0.45797 0.0
N1402 N 0.16566 0.47545 0.42334 0.0
N1403 N 0.11997 0.46476 0.44511 0.0
H1404 H 0.47518 0.63262 0.48947 0.0
H1405 H 0.5592 0.71837 0.38511 0.0
H1406 H 0.52424 0.63374 0.45987 0.0
H1407 H 0.50565 0.7088 0.38038 0.0
H1408 H 0.54819 0.6892 0.42146 0.0
H1409 H 0.48805 0.66285 0.46087 0.0
C1410 C 0.48876 0.63931 0.47743 0.0
C1411 C 0.49862 0.63062 0.47667 0.0
C1412 C 0.5389 0.69353 0.41233 0.0
C1413 C 0.51339 0.66522 0.44333 0.0
C1414 C 0.54515 0.71011 0.39156 0.0
C1415 C 0.53329 0.71593 0.37958 0.0
C1416 C 0.52074 0.6829 0.42161 0.0
C1417 C 0.51524 0.70479 0.38881 0.0
C1418 C 0.49606 0.65655 0.46083 0.0
C1419 C 0.51618 0.63998 0.46088 0.0
N1420 N 0.50954 0.68885 0.40942 0.0
N1421 N 0.52301 0.6568 0.44449 0.0
H1422 H 0.36314 0.83786 0.49397 0.0
H1423 H 0.28521 0.84933 0.38386 0.0
H1424 H 0.36702 0.88886 0.47544 0.0
H1425 H 0.28502 0.79977 0.3933 0.0
H1426 H 0.314 0.8641 0.42338 0.0
H1427 H 0.33292 0.82357 0.46483 0.0
C1428 C 0.35754 0.84604 0.48419 0.0
C1429 C 0.3676 0.86455 0.48673 0.0
C1430 C 0.3076 0.84999 0.41681 0.0
C1431 C 0.33308 0.84832 0.4527 0.0
C1432 C 0.29124 0.84159 0.39419 0.0
C1433 C 0.28284 0.82336 0.38507 0.0
C1434 C 0.31546 0.84 0.43042 0.0
C1435 C 0.2911 0.81389 0.39936 0.0
C1436 C 0.3403 0.83789 0.46737 0.0
C1437 C 0.35968 0.87453 0.47384 0.0
N1438 N 0.30694 0.82232 0.42126 0.0
N1439 N 0.34288 0.86628 0.45693 0.0
H1440 H 0.27812 0.1325 0.15182 0.0
H1441 H 0.37984 0.20881 0.1624 0.0
H1442 H 0.29487 0.18819 0.15899 0.0
H1443 H 0.36228 0.15296 0.15343 0.0
H1444 H 0.34896 0.2018 0.159 0.0
H1445 H 0.30903 0.13999 0.15011 0.0
C1446 C 0.28833 0.14633 0.15292 0.0
C1447 C 0.28395 0.15976 0.15569 0.0
C1448 C 0.35187 0.19109 0.15765 0.0
C1449 C 0.31942 0.16846 0.15386 0.0
C1450 C 0.36948 0.19508 0.15959 0.0
C1451 C 0.37358 0.18143 0.15833 0.0
C1452 C 0.33831 0.17332 0.15448 0.0
C1453 C 0.35969 0.16388 0.1546 0.0
C1454 C 0.30599 0.15061 0.15194 0.0
C1455 C 0.2977 0.17745 0.15691 0.0
N1456 N 0.34267 0.16034 0.15293 0.0
N1457 N 0.31486 0.1813 0.15613 0.0
H1458 H 0.84193 0.20897 0.17541 0.0
H1459 H 0.80437 0.10413 0.16949 0.0
H1460 H 0.78631 0.16999 0.16884 0.0
H1461 H 0.85999 0.14307 0.17662 0.0
H1462 H 0.79744 0.1281 0.17005 0.0
H1463 H 0.84885 0.18499 0.17699 0.0
C1464 C 0.83118 0.19537 0.17441 0.0
C1465 C 0.81354 0.19144 0.17193 0.0
C1466 C 0.81117 0.1314 0.17152 0.0
C1467 C 0.82131 0.16397 0.17362 0.0
C1468 C 0.81511 0.11773 0.17116 0.0
C1469 C 0.83277 0.12164 0.17294 0.0
C1470 C 0.82498 0.1491 0.17365 0.0
C1471 C 0.84619 0.13947 0.17515 0.0
C1472 C 0.83513 0.18169 0.17528 0.0
C1473 C 0.80011 0.1736 0.17072 0.0
N1474 N 0.84202 0.15255 0.17541 0.0
N1475 N 0.80428 0.16052 0.1715 0.0
H1476 H 0.77492 0.62884 0.16999 0.0
H1477 H 0.87941 0.69718 0.17275 0.0
H1478 H 0.81449 0.61297 0.16262 0.0
H1479 H 0.83988 0.71309 0.17999 0.0
H1480 H 0.85579 0.66617 0.16966 0.0
H1481 H 0.79854 0.65982 0.17458 0.0
C1482 C 0.78858 0.63189 0.16942 0.0
C1483 C 0.79278 0.61836 0.16588 0.0
C1484 C 0.85228 0.67645 0.17194 0.0
C1485 C 0.81984 0.6537 0.17102 0.0
C1486 C 0.86576 0.69413 0.17368 0.0
C1487 C 0.86157 0.70769 0.17658 0.0
C1488 C 0.8345 0.67232 0.17311 0.0
C1489 C 0.84368 0.70303 0.17772 0.0
C1490 C 0.80206 0.64956 0.17201 0.0
C1491 C 0.81068 0.62301 0.16528 0.0
N1492 N 0.8308 0.68573 0.17597 0.0
N1493 N 0.82355 0.6403 0.16778 0.0
H1494 H 0.15565 0.37301 0.37586 0.0
H1495 H 0.1757 0.29416 0.32742 0.0
H1496 H 0.20398 0.38057 0.31403 0.0
H1497 H 0.12564 0.2859 0.3786 0.0
H1498 H 0.18707 0.32612 0.32767 0.0
H1499 H 0.14502 0.34122 0.38162 0.0
C1500 C 0.164 0.36796 0.36345 0.0
C1501 C 0.18068 0.3794 0.34426 0.0
C1502 C 0.17362 0.31733 0.33905 0.0
C1503 C 0.16868 0.34312 0.35095 0.0
C1504 C 0.16715 0.29909 0.33907 0.0
C1505 C 0.14969 0.28738 0.35284 0.0
C1506 C 0.16255 0.3239 0.35292 0.0
C1507 C 0.13918 0.29447 0.36759 0.0
C1508 C 0.15795 0.34983 0.3668 0.0
C1509 C 0.191 0.37219 0.32888 0.0
N1510 N 0.14575 0.31228 0.36707 0.0
N1511 N 0.18484 0.35451 0.33255 0.0
H1512 H 0.61066 0.78097 0.365 0.0
H1513 H 0.69108 0.87996 0.32779 0.0
H1514 H 0.60421 0.82359 0.31076 0.0
H1515 H 0.69751 0.83703 0.37969 0.0
H1516 H 0.6591 0.85976 0.32353 0.0
H1517 H 0.64247 0.80147 0.37202 0.0
C1518 C 0.61596 0.79464 0.35446 0.0
C1519 C 0.60481 0.8006 0.3372 0.0
C1520 C 0.66749 0.85477 0.33602 0.0
C1521 C 0.64117 0.82415 0.34533 0.0
C1522 C 0.68574 0.86631 0.33858 0.0
C1523 C 0.69694 0.86014 0.35407 0.0
C1524 C 0.66042 0.83694 0.34901 0.0
C1525 C 0.68934 0.84233 0.36752 0.0
C1526 C 0.63411 0.80635 0.35855 0.0
C1527 C 0.61235 0.81844 0.32416 0.0
N1528 N 0.67156 0.83135 0.36456 0.0
N1529 N 0.63007 0.8296 0.32851 0.0
H1530 H 0.21693 0.84156 0.31658 0.0
H1531 H 0.11403 0.8116 0.30539 0.0
H1532 H 0.17555 0.78788 0.28963 0.0
H1533 H 0.15568 0.86615 0.31666 0.0
H1534 H 0.13644 0.80265 0.29947 0.0
H1535 H 0.19479 0.85099 0.31561 0.0
C1536 C 0.20321 0.8318 0.31003 0.0
C1537 C 0.19804 0.81392 0.30332 0.0
C1538 C 0.14069 0.81659 0.30312 0.0
C1539 C 0.17265 0.82453 0.30266 0.0
C1540 C 0.1279 0.82168 0.30665 0.0
C1541 C 0.13303 0.83963 0.31166 0.0
C1542 C 0.15873 0.82953 0.30484 0.0
C1543 C 0.15117 0.85216 0.31292 0.0
C1544 C 0.19058 0.83717 0.30958 0.0
C1545 C 0.1801 0.8018 0.29503 0.0
N1546 N 0.16337 0.84687 0.30968 0.0
N1547 N 0.16803 0.80731 0.29524 0.0
H1548 H 0.68833 0.80937 0.82876 0.0
H1549 H 0.62211 0.8478 0.84692 0.0
H1550 H 0.70525 0.86465 0.84984 0.0
H1551 H 0.60478 0.79289 0.81808 0.0
H1552 H 0.6527 0.85409 0.84852 0.0
H1553 H 0.65759 0.80286 0.82525 0.0
C1554 C 0.68556 0.82012 0.83264 0.0
C1555 C 0.69932 0.83756 0.83965 0.0
C1556 C 0.64223 0.84066 0.84176 0.0
C1557 C 0.66429 0.83025 0.8357 0.0
C1558 C 0.62477 0.83707 0.84085 0.0
C1559 C 0.61093 0.8198 0.83239 0.0
C1560 C 0.64588 0.82687 0.83427 0.0
C1561 C 0.61509 0.8064 0.82472 0.0
C1562 C 0.66804 0.81641 0.8306 0.0
C1563 C 0.69504 0.85101 0.84441 0.0
N1564 N 0.63222 0.81021 0.82593 0.0
N1565 N 0.6779 0.84706 0.84241 0.0
H1566 H 0.15121 0.782 0.85258 0.0
H1567 H 0.18712 0.88639 0.83689 0.0
H1568 H 0.20652 0.82105 0.83746 0.0
H1569 H 0.13184 0.8465 0.84511 0.0
H1570 H 0.19485 0.86297 0.84214 0.0
H1571 H 0.14416 0.80581 0.85508 0.0
C1572 C 0.16188 0.79561 0.84995 0.0
C1573 C 0.17946 0.79958 0.84457 0.0
C1574 C 0.18104 0.85937 0.84296 0.0
C1575 C 0.17151 0.82691 0.84728 0.0
C1576 C 0.17664 0.87272 0.84001 0.0
C1577 C 0.15882 0.86834 0.84033 0.0
C1578 C 0.16752 0.84157 0.84629 0.0
C1579 C 0.14574 0.85045 0.84451 0.0
C1580 C 0.15786 0.8092 0.85135 0.0
C1581 C 0.19278 0.81743 0.84148 0.0
N1582 N 0.15035 0.83773 0.84719 0.0
N1583 N 0.18852 0.83046 0.84271 0.0
H1584 H 0.17221 0.38112 0.80794 0.0
H1585 H 0.14712 0.27941 0.82137 0.0
H1586 H 0.21074 0.36408 0.82148 0.0
H1587 H 0.10837 0.29631 0.81174 0.0
H1588 H 0.17067 0.31033 0.81702 0.0
H1589 H 0.14871 0.35012 0.80466 0.0
C1590 C 0.17572 0.37084 0.81002 0.0
C1591 C 0.19342 0.37514 0.81522 0.0
C1592 C 0.15703 0.3073 0.81572 0.0
C1593 C 0.16663 0.33967 0.81163 0.0
C1594 C 0.14357 0.28965 0.81822 0.0
C1595 C 0.12578 0.28533 0.81715 0.0
C1596 C 0.15266 0.32074 0.81219 0.0
C1597 C 0.12193 0.29909 0.81286 0.0
C1598 C 0.16231 0.35315 0.80817 0.0
C1599 C 0.19725 0.36133 0.81761 0.0
N1600 N 0.13528 0.31621 0.81069 0.0
N1601 N 0.18394 0.34419 0.81597 0.0
H1602 H 0.86635 0.71273 0.67231 0.0
H1603 H 0.78738 0.61225 0.65416 0.0
H1604 H 0.81117 0.69772 0.66467 0.0
H1605 H 0.84254 0.62718 0.66218 0.0
H1606 H 0.79587 0.64352 0.65716 0.0
H1607 H 0.85793 0.68149 0.66763 0.0
C1608 C 0.85246 0.70284 0.66957 0.0
C1609 C 0.83942 0.70778 0.66892 0.0
C1610 C 0.80613 0.63998 0.65825 0.0
C1611 C 0.82969 0.67203 0.66363 0.0
C1612 C 0.80129 0.62213 0.65656 0.0
C1613 C 0.81429 0.61715 0.65798 0.0
C1614 C 0.8241 0.65295 0.6614 0.0
C1615 C 0.83211 0.63047 0.66104 0.0
C1616 C 0.84766 0.68501 0.66692 0.0
C1617 C 0.82163 0.69446 0.6653 0.0
N1618 N 0.83649 0.64779 0.66268 0.0
N1619 N 0.81728 0.67717 0.66285 0.0
H1620 H 0.29555 0.11886 0.67963 0.0
H1621 H 0.36641 0.22264 0.68405 0.0
H1622 H 0.28125 0.15965 0.67462 0.0
H1623 H 0.37998 0.18165 0.70174 0.0
H1624 H 0.33508 0.19986 0.68189 0.0
H1625 H 0.32661 0.14176 0.68797 0.0
C1626 C 0.29896 0.13264 0.6802 0.0
C1627 C 0.28584 0.13739 0.6763 0.0
C1628 C 0.34491 0.19586 0.68656 0.0
C1629 C 0.32131 0.16366 0.68597 0.0
C1630 C 0.36278 0.20886 0.68791 0.0
C1631 C 0.37579 0.204 0.69294 0.0
C1632 C 0.34005 0.17789 0.69 0.0
C1633 C 0.37037 0.18597 0.69773 0.0
C1634 C 0.31668 0.14571 0.68513 0.0
C1635 C 0.29097 0.15543 0.67743 0.0
N1636 N 0.35292 0.17356 0.69586 0.0
N1637 N 0.30832 0.16792 0.68206 0.0
H1638 H 0.83383 0.11744 0.66632 0.0
H1639 H 0.81427 0.19796 0.66156 0.0
H1640 H 0.8747 0.17246 0.6602 0.0
H1641 H 0.77338 0.14294 0.66774 0.0
H1642 H 0.8366 0.18887 0.66053 0.0
H1643 H 0.81147 0.1265 0.6659 0.0
C1644 C 0.83809 0.13144 0.66475 0.0
C1645 C 0.85613 0.14424 0.66333 0.0
C1646 C 0.82275 0.17877 0.66213 0.0
C1647 C 0.83063 0.1547 0.66299 0.0
C1648 C 0.81 0.18395 0.66277 0.0
C1649 C 0.79196 0.17117 0.66478 0.0
C1650 C 0.81743 0.16067 0.66351 0.0
C1651 C 0.78716 0.15322 0.66622 0.0
C1652 C 0.82532 0.1366 0.66457 0.0
C1653 C 0.86092 0.16217 0.66135 0.0
N1654 N 0.79983 0.1485 0.66555 0.0
N1655 N 0.84824 0.16688 0.66131 0.0
H1656 H 0.03007 0.47614 0.48674 0.0
H1657 H 0.96105 0.51151 0.48692 0.0
H1658 H 0.04552 0.53156 0.48229 0.0
H1659 H 0.94569 0.45612 0.49183 0.0
H1660 H 0.99212 0.51916 0.48332 0.0
H1661 H -0.00101 0.46849 0.48683 0.0
C1662 C 0.02691 0.48669 0.48572 0.0
C1663 C 0.04035 0.50449 0.48461 0.0
C1664 C 0.98195 0.50533 0.4851 0.0
C1665 C 0.0049 0.49589 0.48473 0.0
C1666 C 0.96423 0.50098 0.48713 0.0
C1667 C 0.95082 0.48318 0.48977 0.0
C1668 C 0.98624 0.49178 0.48574 0.0
C1669 C 0.95564 0.47003 0.48991 0.0
C1670 C 0.00918 0.48233 0.48577 0.0
C1671 C 0.03555 0.51765 0.48325 0.0
N1672 N 0.97296 0.4746 0.48801 0.0
N1673 N 0.01821 0.51308 0.48342 0.0
H1674 H 0.45837 0.51534 0.48851 0.0
H1675 H 0.53349 0.48934 0.45128 0.0
H1676 H 0.51397 0.55396 0.47767 0.0
H1677 H 0.47837 0.45115 0.47413 0.0
H1678 H 0.52642 0.51316 0.4553 0.0
H1679 H 0.46534 0.4917 0.47882 0.0
C1680 C 0.47208 0.51885 0.48415 0.0
C1681 C 0.48563 0.53664 0.48403 0.0
C1682 C 0.51586 0.49957 0.4592 0.0
C1683 C 0.49371 0.50959 0.47267 0.0
C1684 C 0.51986 0.48596 0.4567 0.0
C1685 C 0.50648 0.46824 0.46248 0.0
C1686 C 0.49834 0.49544 0.46749 0.0
C1687 C 0.48908 0.46462 0.46952 0.0
C1688 C 0.47604 0.50532 0.47856 0.0
C1689 C 0.50314 0.5404 0.47813 0.0
N1690 N 0.48553 0.47811 0.472 0.0
N1691 N 0.50668 0.52697 0.47267 0.0
H1692 H 0.5435 0.0245 0.50631 0.0
H1693 H 0.44054 0.95148 0.52158 0.0
H1694 H 0.50146 0.03693 0.51341 0.0
H1695 H 0.48212 0.93846 0.51176 0.0
H1696 H 0.46284 0.98292 0.52017 0.0
H1697 H 0.52136 0.9929 0.50914 0.0
C1698 C 0.52961 0.02056 0.50838 0.0
C1699 C 0.52428 0.03331 0.5096 0.0
C1700 C 0.46712 0.97321 0.51841 0.0
C1701 C 0.49894 -0.00271 0.51302 0.0
C1702 C 0.45438 0.95526 0.51931 0.0
C1703 C 0.45951 0.94238 0.51677 0.0
C1704 C 0.48512 0.97832 0.51492 0.0
C1705 C 0.47762 0.94799 0.51381 0.0
C1706 C 0.51699 0.00255 0.51005 0.0
C1707 C 0.50614 0.02753 0.51235 0.0
N1708 N 0.48979 0.96556 0.51289 0.0
N1709 N 0.49412 0.00995 0.51399 0.0
H1710 H 0.47161 0.02512 0.97887 0.0
H1711 H 0.50061 0.9544 0.04745 0.0
H1712 H 0.52375 0.03971 0.02916 0.0
H1713 H 0.45624 0.94183 0.95791 0.0
H1714 H 0.50782 0.9854 0.04821 0.0
H1715 H 0.46415 0.99398 0.97785 0.0
C1716 C 0.48146 0.02176 0.98971 0.0
C1717 C 0.49831 0.03496 0.00405 0.0
C1718 C 0.49653 0.97586 0.02833 0.0
C1719 C 0.48989 -0.00047 0.00331 0.0
C1720 C 0.49239 0.95818 0.02799 0.0
C1721 C 0.47784 0.94559 0.00252 0.0
C1722 C 0.48589 0.9809 0.00348 0.0
C1723 C 0.46762 0.95117 0.97787 0.0
C1724 C 0.47723 0.00403 0.989 0.0
C1725 C 0.51062 0.02993 0.01771 0.0
N1726 N 0.4718 0.96842 0.97911 0.0
N1727 N 0.50614 0.0126 0.0172 0.0
H1728 H 0.96225 0.44324 0.99716 0.0
H1729 H 0.03224 0.54734 0.00576 0.0
H1730 H 0.94746 0.48362 0.00547 0.0
H1731 H 0.04697 0.50693 0.99669 0.0
H1732 H 0.00106 0.52416 0.00715 0.0
H1733 H 0.99343 0.4664 0.99796 0.0
C1734 C 0.96558 0.45698 0.99911 0.0
C1735 C 0.9523 0.46155 0.00118 0.0
C1736 C 0.01112 0.52036 0.00495 0.0
C1737 C 0.98787 0.48808 0.00221 0.0
C1738 C 0.0289 0.53359 0.00422 0.0
C1739 C 0.04217 0.52902 0.00105 0.0
C1740 C 0.0066 0.50247 0.00247 0.0
C1741 C 0.03714 0.51101 0.99912 0.0
C1742 C 0.98337 0.4702 0.99961 0.0
C1743 C 0.95731 0.47954 0.00375 0.0
N1744 N 0.01975 0.49839 -0.00022 0.0
N1745 N 0.97471 0.49216 0.00418 0.0
H1746 H 0.50295 0.45662 0.99829 0.0
H1747 H 0.48384 0.53727 0.01277 0.0
H1748 H 0.54387 0.51153 0.00797 0.0
H1749 H 0.44264 0.48235 0.0083 0.0
H1750 H 0.50599 0.52797 0.01362 0.0
H1751 H 0.48059 0.46563 0.00439 0.0
C1752 C 0.50722 0.47057 0.00185 0.0
C1753 C 0.52527 0.48337 0.00245 0.0
C1754 C 0.49211 0.51793 0.01264 0.0
C1755 C 0.49981 0.49377 0.00934 0.0
C1756 C 0.47946 0.52324 0.01215 0.0
C1757 C 0.4614 0.51055 0.01029 0.0
C1758 C 0.48667 0.4998 0.01108 0.0
C1759 C 0.45645 0.49255 0.00966 0.0
C1760 C 0.49446 0.47571 0.00535 0.0
C1761 C 0.53009 0.50125 0.00724 0.0
N1762 N 0.46903 0.48771 0.00985 0.0
N1763 N 0.51742 0.50592 0.01034 0.0
loop_
_geom_bond_atom_site_label_1
_geom_bond_atom_site_label_2
_geom_bond_distance
_geom_bond_site_symmetry_2
_ccdc_geom_bond_type
In0 O1 2.294 . S
In0 O2 2.326 . S
In0 O6 2.266 . S
In0 O7 2.326 . S
In0 O8 2.266 . S
In0 O9 2.326 . S
In0 O11 2.294 . S
In0 O12 2.326 . S
O1 In0 2.294 . S
O1 C10 1.240 . S
O2 In0 2.326 . S
O2 C10 1.252 . S
C3 O6 1.252 . S
C3 O7 1.260 . S
C4 O11 1.240 . S
C4 O12 1.252 . S
C5 O8 1.252 . S
C5 O9 1.260 . S
O6 In0 2.266 . S
O6 C3 1.252 . S
O7 In0 2.326 . S
O7 C3 1.260 . S
O8 In0 2.266 . S
O8 C5 1.252 . S
O9 In0 2.326 . S
O9 C5 1.260 . S
C10 O1 1.240 . S
C10 O2 1.252 . S
O11 In0 2.294 . S
O11 C4 1.240 . S
O12 In0 2.326 . S
O12 C4 1.252 . S
In13 O14 2.294 . S
In13 O15 2.326 . S
In13 O19 2.266 . S
In13 O20 2.326 . S
In13 O21 2.266 . S
In13 O22 2.326 . S
In13 O24 2.294 . S
In13 O25 2.326 . S
O14 In13 2.294 . S
O14 C23 1.240 . S
O15 In13 2.326 . S
O15 C23 1.252 . S
C16 O19 1.252 . S
C16 O20 1.260 . S
C17 O24 1.240 . S
C17 O25 1.252 . S
C18 O21 1.252 . S
C18 O22 1.260 . S
O19 In13 2.266 . S
O19 C16 1.252 . S
O20 In13 2.326 . S
O20 C16 1.260 . S
O21 In13 2.266 . S
O21 C18 1.252 . S
O22 In13 2.326 . S
O22 C18 1.260 . S
C23 O14 1.240 . S
C23 O15 1.252 . S
O24 In13 2.294 . S
O24 C17 1.240 . S
O25 In13 2.326 . S
O25 C17 1.252 . S
In26 O27 2.294 . S
In26 O28 2.326 . S
In26 O32 2.266 . S
In26 O33 2.326 . S
In26 O34 2.266 . S
In26 O35 2.326 . S
In26 O37 2.294 . S
In26 O38 2.326 . S
O27 In26 2.294 . S
O27 C36 1.240 . S
O28 In26 2.326 . S
O28 C36 1.252 . S
C29 O32 1.252 . S
C29 O33 1.260 . S
C30 O37 1.240 . S
C30 O38 1.252 . S
C31 O34 1.252 . S
C31 O35 1.260 . S
O32 In26 2.266 . S
O32 C29 1.252 . S
O33 In26 2.326 . S
O33 C29 1.260 . S
O34 In26 2.266 . S
O34 C31 1.252 . S
O35 In26 2.326 . S
O35 C31 1.260 . S
C36 O27 1.240 . S
C36 O28 1.252 . S
O37 In26 2.294 . S
O37 C30 1.240 . S
O38 In26 2.326 . S
O38 C30 1.252 . S
In39 O40 2.294 . S
In39 O41 2.326 . S
In39 O45 2.266 . S
In39 O46 2.326 . S
In39 O47 2.266 . S
In39 O48 2.326 . S
In39 O50 2.294 . S
In39 O51 2.326 . S
O40 In39 2.294 . S
O40 C49 1.240 . S
O41 In39 2.326 . S
O41 C49 1.252 . S
C42 O45 1.252 . S
C42 O46 1.260 . S
C43 O50 1.240 . S
C43 O51 1.252 . S
C44 O47 1.252 . S
C44 O48 1.260 . S
O45 In39 2.266 . S
O45 C42 1.252 . S
O46 In39 2.326 . S
O46 C42 1.260 . S
O47 In39 2.266 . S
O47 C44 1.252 . S
O48 In39 2.326 . S
O48 C44 1.260 . S
C49 O40 1.240 . S
C49 O41 1.252 . S
O50 In39 2.294 . S
O50 C43 1.240 . S
O51 In39 2.326 . S
O51 C43 1.252 . S
In52 O53 2.294 . S
In52 O54 2.326 . S
In52 O58 2.266 . S
In52 O59 2.326 . S
In52 O60 2.266 . S
In52 O61 2.326 . S
In52 O63 2.294 . S
In52 O64 2.326 . S
O53 In52 2.294 . S
O53 C62 1.240 . S
O54 In52 2.326 . S
O54 C62 1.252 . S
C55 O58 1.252 . S
C55 O59 1.260 . S
C56 O63 1.240 . S
C56 O64 1.252 . S
C57 O60 1.252 . S
C57 O61 1.260 . S
O58 In52 2.266 . S
O58 C55 1.252 . S
O59 In52 2.326 . S
O59 C55 1.260 . S
O60 In52 2.266 . S
O60 C57 1.252 . S
O61 In52 2.326 . S
O61 C57 1.260 . S
C62 O53 1.240 . S
C62 O54 1.252 . S
O63 In52 2.294 . S
O63 C56 1.240 . S
O64 In52 2.326 . S
O64 C56 1.252 . S
In65 O66 2.294 . S
In65 O67 2.326 . S
In65 O71 2.266 . S
In65 O72 2.326 . S
In65 O73 2.266 . S
In65 O74 2.326 . S
In65 O76 2.294 . S
In65 O77 2.326 . S
O66 In65 2.294 . S
O66 C75 1.240 . S
O67 In65 2.326 . S
O67 C75 1.252 . S
C68 O71 1.252 . S
C68 O72 1.260 . S
C69 O76 1.240 . S
C69 O77 1.252 . S
C70 O73 1.252 . S
C70 O74 1.260 . S
O71 In65 2.266 . S
O71 C68 1.252 . S
O72 In65 2.326 . S
O72 C68 1.260 . S
O73 In65 2.266 . S
O73 C70 1.252 . S
O74 In65 2.326 . S
O74 C70 1.260 . S
C75 O66 1.240 . S
C75 O67 1.252 . S
O76 In65 2.294 . S
O76 C69 1.240 . S
O77 In65 2.326 . S
O77 C69 1.252 . S
In78 O79 2.294 . S
In78 O80 2.326 . S
In78 O84 2.266 . S
In78 O85 2.326 . S
In78 O86 2.266 . S
In78 O87 2.326 . S
In78 O89 2.294 . S
In78 O90 2.326 . S
O79 In78 2.294 . S
O79 C88 1.240 . S
O80 In78 2.326 . S
O80 C88 1.252 . S
C81 O84 1.252 . S
C81 O85 1.260 . S
C82 O89 1.240 . S
C82 O90 1.252 . S
C83 O86 1.252 . S
C83 O87 1.260 . S
O84 In78 2.266 . S
O84 C81 1.252 . S
O85 In78 2.326 . S
O85 C81 1.260 . S
O86 In78 2.266 . S
O86 C83 1.252 . S
O87 In78 2.326 . S
O87 C83 1.260 . S
C88 O79 1.240 . S
C88 O80 1.252 . S
O89 In78 2.294 . S
O89 C82 1.240 . S
O90 In78 2.326 . S
O90 C82 1.252 . S
In91 O92 2.294 . S
In91 O93 2.326 . S
In91 O97 2.266 . S
In91 O98 2.326 . S
In91 O99 2.266 . S
In91 O100 2.326 . S
In91 O102 2.294 . S
In91 O103 2.326 . S
O92 In91 2.294 . S
O92 C101 1.240 . S
O93 In91 2.326 . S
O93 C101 1.252 . S
C94 O97 1.252 . S
C94 O98 1.260 . S
C95 O102 1.240 . S
C95 O103 1.252 . S
C96 O99 1.252 . S
C96 O100 1.260 . S
O97 In91 2.266 . S
O97 C94 1.252 . S
O98 In91 2.326 . S
O98 C94 1.260 . S
O99 In91 2.266 . S
O99 C96 1.252 . S
O100 In91 2.326 . S
O100 C96 1.260 . S
C101 O92 1.240 . S
C101 O93 1.252 . S
O102 In91 2.294 . S
O102 C95 1.240 . S
O103 In91 2.326 . S
O103 C95 1.252 . S
In104 O105 2.294 . S
In104 O106 2.326 . S
In104 O110 2.266 . S
In104 O111 2.326 . S
In104 O112 2.266 . S
In104 O113 2.326 . S
In104 O115 2.294 . S
In104 O116 2.326 . S
O105 In104 2.294 . S
O105 C114 1.240 . S
O106 In104 2.326 . S
O106 C114 1.252 . S
C107 O110 1.252 . S
C107 O111 1.260 . S
C108 O115 1.240 . S
C108 O116 1.252 . S
C109 O112 1.252 . S
C109 O113 1.260 . S
O110 In104 2.266 . S
O110 C107 1.252 . S
O111 In104 2.326 . S
O111 C107 1.260 . S
O112 In104 2.266 . S
O112 C109 1.252 . S
O113 In104 2.326 . S
O113 C109 1.260 . S
C114 O105 1.240 . S
C114 O106 1.252 . S
O115 In104 2.294 . S
O115 C108 1.240 . S
O116 In104 2.326 . S
O116 C108 1.252 . S
In117 O118 2.294 . S
In117 O119 2.326 . S
In117 O123 2.266 . S
In117 O124 2.326 . S
In117 O125 2.266 . S
In117 O126 2.326 . S
In117 O128 2.294 . S
In117 O129 2.326 . S
O118 In117 2.294 . S
O118 C127 1.240 . S
O119 In117 2.326 . S
O119 C127 1.252 . S
C120 O123 1.252 . S
C120 O124 1.260 . S
C121 O128 1.240 . S
C121 O129 1.252 . S
C122 O125 1.252 . S
C122 O126 1.260 . S
O123 In117 2.266 . S
O123 C120 1.252 . S
O124 In117 2.326 . S
O124 C120 1.260 . S
O125 In117 2.266 . S
O125 C122 1.252 . S
O126 In117 2.326 . S
O126 C122 1.260 . S
C127 O118 1.240 . S
C127 O119 1.252 . S
O128 In117 2.294 . S
O128 C121 1.240 . S
O129 In117 2.326 . S
O129 C121 1.252 . S
In130 O131 2.294 . S
In130 O132 2.326 . S
In130 O136 2.266 . S
In130 O137 2.326 . S
In130 O138 2.266 . S
In130 O139 2.326 . S
In130 O141 2.294 . S
In130 O142 2.326 . S
O131 In130 2.294 . S
O131 C140 1.240 . S
O132 In130 2.326 . S
O132 C140 1.252 . S
C133 O136 1.252 . S
C133 O137 1.260 . S
C134 O141 1.240 . S
C134 O142 1.252 . S
C135 O138 1.252 . S
C135 O139 1.260 . S
O136 In130 2.266 . S
O136 C133 1.252 . S
O137 In130 2.326 . S
O137 C133 1.260 . S
O138 In130 2.266 . S
O138 C135 1.252 . S
O139 In130 2.326 . S
O139 C135 1.260 . S
C140 O131 1.240 . S
C140 O132 1.252 . S
O141 In130 2.294 . S
O141 C134 1.240 . S
O142 In130 2.326 . S
O142 C134 1.252 . S
In143 O144 2.294 . S
In143 O145 2.326 . S
In143 O149 2.266 . S
In143 O150 2.326 . S
In143 O151 2.266 . S
In143 O152 2.326 . S
In143 O154 2.294 . S
In143 O155 2.326 . S
O144 In143 2.294 . S
O144 C153 1.240 . S
O145 In143 2.326 . S
O145 C153 1.252 . S
C146 O149 1.252 . S
C146 O150 1.260 . S
C147 O154 1.240 . S
C147 O155 1.252 . S
C148 O151 1.252 . S
C148 O152 1.260 . S
O149 In143 2.266 . S
O149 C146 1.252 . S
O150 In143 2.326 . S
O150 C146 1.260 . S
O151 In143 2.266 . S
O151 C148 1.252 . S
O152 In143 2.326 . S
O152 C148 1.260 . S
C153 O144 1.240 . S
C153 O145 1.252 . S
O154 In143 2.294 . S
O154 C147 1.240 . S
O155 In143 2.326 . S
O155 C147 1.252 . S
In156 O157 2.294 . S
In156 O158 2.326 . S
In156 O162 2.266 . S
In156 O163 2.326 . S
In156 O164 2.266 . S
In156 O165 2.326 . S
In156 O167 2.294 . S
In156 O168 2.326 . S
O157 In156 2.294 . S
O157 C166 1.240 . S
O158 In156 2.326 . S
O158 C166 1.252 . S
C159 O162 1.252 . S
C159 O163 1.260 . S
C160 O167 1.240 . S
C160 O168 1.252 . S
C161 O164 1.252 . S
C161 O165 1.260 . S
O162 In156 2.266 . S
O162 C159 1.252 . S
O163 In156 2.326 . S
O163 C159 1.260 . S
O164 In156 2.266 . S
O164 C161 1.252 . S
O165 In156 2.326 . S
O165 C161 1.260 . S
C166 O157 1.240 . S
C166 O158 1.252 . S
O167 In156 2.294 . S
O167 C160 1.240 . S
O168 In156 2.326 . S
O168 C160 1.252 . S
In169 O170 2.294 . S
In169 O171 2.326 . S
In169 O175 2.266 . S
In169 O176 2.326 . S
In169 O177 2.266 . S
In169 O178 2.326 . S
In169 O180 2.294 . S
In169 O181 2.326 . S
O170 In169 2.294 . S
O170 C179 1.240 . S
O171 In169 2.326 . S
O171 C179 1.252 . S
C172 O175 1.252 . S
C172 O176 1.260 . S
C173 O180 1.240 . S
C173 O181 1.252 . S
C174 O177 1.252 . S
C174 O178 1.260 . S
O175 In169 2.266 . S
O175 C172 1.252 . S
O176 In169 2.326 . S
O176 C172 1.260 . S
O177 In169 2.266 . S
O177 C174 1.252 . S
O178 In169 2.326 . S
O178 C174 1.260 . S
C179 O170 1.240 . S
C179 O171 1.252 . S
O180 In169 2.294 . S
O180 C173 1.240 . S
O181 In169 2.326 . S
O181 C173 1.252 . S
In182 O183 2.294 . S
In182 O184 2.326 . S
In182 O188 2.266 . S
In182 O189 2.326 . S
In182 O190 2.266 . S
In182 O191 2.326 . S
In182 O193 2.294 . S
In182 O194 2.326 . S
O183 In182 2.294 . S
O183 C192 1.240 . S
O184 In182 2.326 . S
O184 C192 1.252 . S
C185 O188 1.252 . S
C185 O189 1.260 . S
C186 O193 1.240 . S
C186 O194 1.252 . S
C187 O190 1.252 . S
C187 O191 1.260 . S
O188 In182 2.266 . S
O188 C185 1.252 . S
O189 In182 2.326 . S
O189 C185 1.260 . S
O190 In182 2.266 . S
O190 C187 1.252 . S
O191 In182 2.326 . S
O191 C187 1.260 . S
C192 O183 1.240 . S
C192 O184 1.252 . S
O193 In182 2.294 . S
O193 C186 1.240 . S
O194 In182 2.326 . S
O194 C186 1.252 . S
In195 O196 2.294 . S
In195 O197 2.326 . S
In195 O201 2.266 . S
In195 O202 2.326 . S
In195 O203 2.266 . S
In195 O204 2.326 . S
In195 O206 2.294 . S
In195 O207 2.326 . S
O196 In195 2.294 . S
O196 C205 1.240 . S
O197 In195 2.326 . S
O197 C205 1.252 . S
C198 O201 1.252 . S
C198 O202 1.260 . S
C199 O206 1.240 . S
C199 O207 1.252 . S
C200 O203 1.252 . S
C200 O204 1.260 . S
O201 In195 2.266 . S
O201 C198 1.252 . S
O202 In195 2.326 . S
O202 C198 1.260 . S
O203 In195 2.266 . S
O203 C200 1.252 . S
O204 In195 2.326 . S
O204 C200 1.260 . S
C205 O196 1.240 . S
C205 O197 1.252 . S
O206 In195 2.294 . S
O206 C199 1.240 . S
O207 In195 2.326 . S
O207 C199 1.252 . S
In208 O209 2.294 . S
In208 O210 2.326 . S
In208 O214 2.266 . S
In208 O215 2.326 . S
In208 O216 2.266 . S
In208 O217 2.326 . S
In208 O219 2.294 . S
In208 O220 2.326 . S
O209 In208 2.294 . S
O209 C218 1.240 . S
O210 In208 2.326 . S
O210 C218 1.252 . S
C211 O214 1.252 . S
C211 O215 1.260 . S
C212 O219 1.240 . S
C212 O220 1.252 . S
C213 O216 1.252 . S
C213 O217 1.260 . S
O214 In208 2.266 . S
O214 C211 1.252 . S
O215 In208 2.326 . S
O215 C211 1.260 . S
O216 In208 2.266 . S
O216 C213 1.252 . S
O217 In208 2.326 . S
O217 C213 1.260 . S
C218 O209 1.240 . S
C218 O210 1.252 . S
O219 In208 2.294 . S
O219 C212 1.240 . S
O220 In208 2.326 . S
O220 C212 1.252 . S
In221 O222 2.294 . S
In221 O223 2.326 . S
In221 O227 2.266 . S
In221 O228 2.326 . S
In221 O229 2.266 . S
In221 O230 2.326 . S
In221 O232 2.294 . S
In221 O233 2.326 . S
O222 In221 2.294 . S
O222 C231 1.240 . S
O223 In221 2.326 . S
O223 C231 1.252 . S
C224 O227 1.252 . S
C224 O228 1.260 . S
C225 O232 1.240 . S
C225 O233 1.252 . S
C226 O229 1.252 . S
C226 O230 1.260 . S
O227 In221 2.266 . S
O227 C224 1.252 . S
O228 In221 2.326 . S
O228 C224 1.260 . S
O229 In221 2.266 . S
O229 C226 1.252 . S
O230 In221 2.326 . S
O230 C226 1.260 . S
C231 O222 1.240 . S
C231 O223 1.252 . S
O232 In221 2.294 . S
O232 C225 1.240 . S
O233 In221 2.326 . S
O233 C225 1.252 . S
In234 O235 2.294 . S
In234 O236 2.326 . S
In234 O240 2.266 . S
In234 O241 2.326 . S
In234 O242 2.266 . S
In234 O243 2.326 . S
In234 O245 2.294 . S
In234 O246 2.326 . S
O235 In234 2.294 . S
O235 C244 1.240 . S
O236 In234 2.326 . S
O236 C244 1.252 . S
C237 O240 1.252 . S
C237 O241 1.260 . S
C238 O245 1.240 . S
C238 O246 1.252 . S
C239 O242 1.252 . S
C239 O243 1.260 . S
O240 In234 2.266 . S
O240 C237 1.252 . S
O241 In234 2.326 . S
O241 C237 1.260 . S
O242 In234 2.266 . S
O242 C239 1.252 . S
O243 In234 2.326 . S
O243 C239 1.260 . S
C244 O235 1.240 . S
C244 O236 1.252 . S
O245 In234 2.294 . S
O245 C238 1.240 . S
O246 In234 2.326 . S
O246 C238 1.252 . S
In247 O248 2.294 . S
In247 O249 2.326 . S
In247 O253 2.266 . S
In247 O254 2.326 . S
In247 O255 2.266 . S
In247 O256 2.326 . S
In247 O258 2.294 . S
In247 O259 2.326 . S
O248 In247 2.294 . S
O248 C257 1.240 . S
O249 In247 2.326 . S
O249 C257 1.252 . S
C250 O253 1.252 . S
C250 O254 1.260 . S
C251 O258 1.240 . S
C251 O259 1.252 . S
C252 O255 1.252 . S
C252 O256 1.260 . S
O253 In247 2.266 . S
O253 C250 1.252 . S
O254 In247 2.326 . S
O254 C250 1.260 . S
O255 In247 2.266 . S
O255 C252 1.252 . S
O256 In247 2.326 . S
O256 C252 1.260 . S
C257 O248 1.240 . S
C257 O249 1.252 . S
O258 In247 2.294 . S
O258 C251 1.240 . S
O259 In247 2.326 . S
O259 C251 1.252 . S
In260 O261 2.294 . S
In260 O262 2.326 . S
In260 O266 2.266 . S
In260 O267 2.326 . S
In260 O268 2.266 . S
In260 O269 2.326 . S
In260 O271 2.294 . S
In260 O272 2.326 . S
O261 In260 2.294 . S
O261 C270 1.240 . S
O262 In260 2.326 . S
O262 C270 1.252 . S
C263 O266 1.252 . S
C263 O267 1.260 . S
C264 O271 1.240 . S
C264 O272 1.252 . S
C265 O268 1.252 . S
C265 O269 1.260 . S
O266 In260 2.266 . S
O266 C263 1.252 . S
O267 In260 2.326 . S
O267 C263 1.260 . S
O268 In260 2.266 . S
O268 C265 1.252 . S
O269 In260 2.326 . S
O269 C265 1.260 . S
C270 O261 1.240 . S
C270 O262 1.252 . S
O271 In260 2.294 . S
O271 C264 1.240 . S
O272 In260 2.326 . S
O272 C264 1.252 . S
In273 O274 2.294 . S
In273 O275 2.326 . S
In273 O279 2.266 . S
In273 O280 2.326 . S
In273 O281 2.266 1_554 S
In273 O282 2.326 1_554 S
In273 O284 2.294 . S
In273 O285 2.326 . S
O274 In273 2.294 . S
O274 C283 1.240 . S
O275 In273 2.326 . S
O275 C283 1.252 . S
C276 O279 1.252 . S
C276 O280 1.260 . S
C277 O284 1.240 . S
C277 O285 1.252 . S
C278 O281 1.252 . S
C278 O282 1.260 . S
O279 In273 2.266 . S
O279 C276 1.252 . S
O280 In273 2.326 . S
O280 C276 1.260 . S
O281 In273 2.266 1_556 S
O281 C278 1.252 . S
O282 In273 2.326 1_556 S
O282 C278 1.260 . S
C283 O274 1.240 . S
C283 O275 1.252 . S
O284 In273 2.294 . S
O284 C277 1.240 . S
O285 In273 2.326 . S
O285 C277 1.252 . S
In286 O287 2.294 . S
In286 O288 2.326 . S
In286 O292 2.266 1_554 S
In286 O293 2.326 1_554 S
In286 O294 2.266 . S
In286 O295 2.326 . S
In286 O297 2.294 . S
In286 O298 2.326 . S
O287 In286 2.294 . S
O287 C296 1.240 . S
O288 In286 2.326 . S
O288 C296 1.252 . S
C289 O292 1.252 . S
C289 O293 1.260 . S
C290 O297 1.240 . S
C290 O298 1.252 . S
C291 O294 1.252 . S
C291 O295 1.260 . S
O292 In286 2.266 1_556 S
O292 C289 1.252 . S
O293 In286 2.326 1_556 S
O293 C289 1.260 . S
O294 In286 2.266 . S
O294 C291 1.252 . S
O295 In286 2.326 . S
O295 C291 1.260 . S
C296 O287 1.240 . S
C296 O288 1.252 . S
O297 In286 2.294 . S
O297 C290 1.240 . S
O298 In286 2.326 . S
O298 C290 1.252 . S
In299 O300 2.294 . S
In299 O301 2.326 . S
In299 O305 2.266 . S
In299 O306 2.326 . S
In299 O307 2.266 1_554 S
In299 O308 2.326 1_554 S
In299 O310 2.294 . S
In299 O311 2.326 . S
O300 In299 2.294 . S
O300 C309 1.240 . S
O301 In299 2.326 . S
O301 C309 1.252 . S
C302 O305 1.252 . S
C302 O306 1.260 . S
C303 O310 1.240 . S
C303 O311 1.252 . S
C304 O307 1.252 . S
C304 O308 1.260 . S
O305 In299 2.266 . S
O305 C302 1.252 . S
O306 In299 2.326 . S
O306 C302 1.260 . S
O307 In299 2.266 1_556 S
O307 C304 1.252 . S
O308 In299 2.326 1_556 S
O308 C304 1.260 . S
C309 O300 1.240 . S
C309 O301 1.252 . S
O310 In299 2.294 . S
O310 C303 1.240 . S
O311 In299 2.326 . S
O311 C303 1.252 . S
In312 O313 2.294 . S
In312 O314 2.326 . S
In312 O318 2.266 . S
In312 O319 2.326 . S
In312 O320 2.266 . S
In312 O321 2.326 . S
In312 O323 2.294 . S
In312 O324 2.326 . S
O313 In312 2.294 . S
O313 C322 1.240 . S
O314 In312 2.326 . S
O314 C322 1.252 . S
C315 O318 1.252 . S
C315 O319 1.260 . S
C316 O323 1.240 . S
C316 O324 1.252 . S
C317 O320 1.252 . S
C317 O321 1.260 . S
O318 In312 2.266 . S
O318 C315 1.252 . S
O319 In312 2.326 . S
O319 C315 1.260 . S
O320 In312 2.266 . S
O320 C317 1.252 . S
O321 In312 2.326 . S
O321 C317 1.260 . S
C322 O313 1.240 . S
C322 O314 1.252 . S
O323 In312 2.294 . S
O323 C316 1.240 . S
O324 In312 2.326 . S
O324 C316 1.252 . S
In325 O326 2.294 . S
In325 O327 2.326 . S
In325 O331 2.266 . S
In325 O332 2.326 . S
In325 O333 2.266 . S
In325 O334 2.326 . S
In325 O336 2.294 . S
In325 O337 2.326 . S
O326 In325 2.294 . S
O326 C335 1.240 . S
O327 In325 2.326 . S
O327 C335 1.252 . S
C328 O331 1.252 . S
C328 O332 1.260 . S
C329 O336 1.240 . S
C329 O337 1.252 . S
C330 O333 1.252 . S
C330 O334 1.260 . S
O331 In325 2.266 . S
O331 C328 1.252 . S
O332 In325 2.326 . S
O332 C328 1.260 . S
O333 In325 2.266 . S
O333 C330 1.252 . S
O334 In325 2.326 . S
O334 C330 1.260 . S
C335 O326 1.240 . S
C335 O327 1.252 . S
O336 In325 2.294 . S
O336 C329 1.240 . S
O337 In325 2.326 . S
O337 C329 1.252 . S
In338 O339 2.294 . S
In338 O340 2.326 . S
In338 O344 2.266 . S
In338 O345 2.326 . S
In338 O346 2.266 . S
In338 O347 2.326 . S
In338 O349 2.294 . S
In338 O350 2.326 . S
O339 In338 2.294 . S
O339 C348 1.240 . S
O340 In338 2.326 . S
O340 C348 1.252 . S
C341 O344 1.252 . S
C341 O345 1.260 . S
C342 O349 1.240 . S
C342 O350 1.252 . S
C343 O346 1.252 . S
C343 O347 1.260 . S
O344 In338 2.266 . S
O344 C341 1.252 . S
O345 In338 2.326 . S
O345 C341 1.260 . S
O346 In338 2.266 . S
O346 C343 1.252 . S
O347 In338 2.326 . S
O347 C343 1.260 . S
C348 O339 1.240 . S
C348 O340 1.252 . S
O349 In338 2.294 . S
O349 C342 1.240 . S
O350 In338 2.326 . S
O350 C342 1.252 . S
In351 O352 2.294 . S
In351 O353 2.326 . S
In351 O357 2.266 . S
In351 O358 2.326 . S
In351 O359 2.266 1_556 S
In351 O360 2.326 1_556 S
In351 O362 2.294 . S
In351 O363 2.326 . S
O352 In351 2.294 . S
O352 C361 1.240 . S
O353 In351 2.326 . S
O353 C361 1.252 . S
C354 O357 1.252 . S
C354 O358 1.260 . S
C355 O362 1.240 . S
C355 O363 1.252 . S
C356 O359 1.252 . S
C356 O360 1.260 . S
O357 In351 2.266 . S
O357 C354 1.252 . S
O358 In351 2.326 . S
O358 C354 1.260 . S
O359 In351 2.266 1_554 S
O359 C356 1.252 . S
O360 In351 2.326 1_554 S
O360 C356 1.260 . S
C361 O352 1.240 . S
C361 O353 1.252 . S
O362 In351 2.294 . S
O362 C355 1.240 . S
O363 In351 2.326 . S
O363 C355 1.252 . S
In364 O365 2.294 . S
In364 O366 2.326 . S
In364 O370 2.266 1_556 S
In364 O371 2.326 1_556 S
In364 O372 2.266 . S
In364 O373 2.326 . S
In364 O375 2.294 . S
In364 O376 2.326 . S
O365 In364 2.294 . S
O365 C374 1.240 . S
O366 In364 2.326 . S
O366 C374 1.252 . S
C367 O370 1.252 . S
C367 O371 1.260 . S
C368 O375 1.240 . S
C368 O376 1.252 . S
C369 O372 1.252 . S
C369 O373 1.260 . S
O370 In364 2.266 1_554 S
O370 C367 1.252 . S
O371 In364 2.326 1_554 S
O371 C367 1.260 . S
O372 In364 2.266 . S
O372 C369 1.252 . S
O373 In364 2.326 . S
O373 C369 1.260 . S
C374 O365 1.240 . S
C374 O366 1.252 . S
O375 In364 2.294 . S
O375 C368 1.240 . S
O376 In364 2.326 . S
O376 C368 1.252 . S
In377 O378 2.294 . S
In377 O379 2.326 . S
In377 O383 2.266 . S
In377 O384 2.326 . S
In377 O385 2.266 1_556 S
In377 O386 2.326 1_556 S
In377 O388 2.294 . S
In377 O389 2.326 . S
O378 In377 2.294 . S
O378 C387 1.240 . S
O379 In377 2.326 . S
O379 C387 1.252 . S
C380 O383 1.252 . S
C380 O384 1.260 . S
C381 O388 1.240 . S
C381 O389 1.252 . S
C382 O385 1.252 . S
C382 O386 1.260 . S
O383 In377 2.266 . S
O383 C380 1.252 . S
O384 In377 2.326 . S
O384 C380 1.260 . S
O385 In377 2.266 1_554 S
O385 C382 1.252 . S
O386 In377 2.326 1_554 S
O386 C382 1.260 . S
C387 O378 1.240 . S
C387 O379 1.252 . S
O388 In377 2.294 . S
O388 C381 1.240 . S
O389 In377 2.326 . S
O389 C381 1.252 . S
In390 O391 2.294 . S
In390 O392 2.326 . S
In390 O396 2.266 . S
In390 O397 2.326 . S
In390 O398 2.266 . S
In390 O399 2.326 . S
In390 O401 2.294 . S
In390 O402 2.326 . S
O391 In390 2.294 . S
O391 C400 1.240 . S
O392 In390 2.326 . S
O392 C400 1.252 . S
C393 O396 1.252 . S
C393 O397 1.260 . S
C394 O401 1.240 . S
C394 O402 1.252 . S
C395 O398 1.252 . S
C395 O399 1.260 . S
O396 In390 2.266 . S
O396 C393 1.252 . S
O397 In390 2.326 . S
O397 C393 1.260 . S
O398 In390 2.266 . S
O398 C395 1.252 . S
O399 In390 2.326 . S
O399 C395 1.260 . S
C400 O391 1.240 . S
C400 O392 1.252 . S
O401 In390 2.294 . S
O401 C394 1.240 . S
O402 In390 2.326 . S
O402 C394 1.252 . S
In403 O404 2.294 . S
In403 O405 2.326 . S
In403 O409 2.266 . S
In403 O410 2.326 . S
In403 O411 2.266 . S
In403 O412 2.326 . S
In403 O414 2.294 . S
In403 O415 2.326 . S
O404 In403 2.294 . S
O404 C413 1.240 . S
O405 In403 2.326 . S
O405 C413 1.252 . S
C406 O409 1.252 . S
C406 O410 1.260 . S
C407 O414 1.240 . S
C407 O415 1.252 . S
C408 O411 1.252 . S
C408 O412 1.260 . S
O409 In403 2.266 . S
O409 C406 1.252 . S
O410 In403 2.326 . S
O410 C406 1.260 . S
O411 In403 2.266 . S
O411 C408 1.252 . S
O412 In403 2.326 . S
O412 C408 1.260 . S
C413 O404 1.240 . S
C413 O405 1.252 . S
O414 In403 2.294 . S
O414 C407 1.240 . S
O415 In403 2.326 . S
O415 C407 1.252 . S
In416 O417 2.294 . S
In416 O418 2.326 . S
In416 O422 2.266 . S
In416 O423 2.326 . S
In416 O424 2.266 . S
In416 O425 2.326 . S
In416 O427 2.294 . S
In416 O428 2.326 . S
O417 In416 2.294 . S
O417 C426 1.240 . S
O418 In416 2.326 . S
O418 C426 1.252 . S
C419 O422 1.252 . S
C419 O423 1.260 . S
C420 O427 1.240 . S
C420 O428 1.252 . S
C421 O424 1.252 . S
C421 O425 1.260 . S
O422 In416 2.266 . S
O422 C419 1.252 . S
O423 In416 2.326 . S
O423 C419 1.260 . S
O424 In416 2.266 . S
O424 C421 1.252 . S
O425 In416 2.326 . S
O425 C421 1.260 . S
C426 O417 1.240 . S
C426 O418 1.252 . S
O427 In416 2.294 . S
O427 C420 1.240 . S
O428 In416 2.326 . S
O428 C420 1.252 . S
In429 O430 2.294 . S
In429 O431 2.326 . S
In429 O435 2.266 . S
In429 O436 2.326 . S
In429 O437 2.266 . S
In429 O438 2.326 . S
In429 O440 2.294 . S
In429 O441 2.326 . S
O430 In429 2.294 . S
O430 C439 1.240 . S
O431 In429 2.326 . S
O431 C439 1.252 . S
C432 O435 1.252 . S
C432 O436 1.260 . S
C433 O440 1.240 . S
C433 O441 1.252 . S
C434 O437 1.252 . S
C434 O438 1.260 . S
O435 In429 2.266 . S
O435 C432 1.252 . S
O436 In429 2.326 . S
O436 C432 1.260 . S
O437 In429 2.266 . S
O437 C434 1.252 . S
O438 In429 2.326 . S
O438 C434 1.260 . S
C439 O430 1.240 . S
C439 O431 1.252 . S
O440 In429 2.294 . S
O440 C433 1.240 . S
O441 In429 2.326 . S
O441 C433 1.252 . S
In442 O443 2.294 . S
In442 O444 2.326 . S
In442 O448 2.266 . S
In442 O449 2.326 . S
In442 O450 2.266 . S
In442 O451 2.326 . S
In442 O453 2.294 . S
In442 O454 2.326 . S
O443 In442 2.294 . S
O443 C452 1.240 . S
O444 In442 2.326 . S
O444 C452 1.252 . S
C445 O448 1.252 . S
C445 O449 1.260 . S
C446 O453 1.240 . S
C446 O454 1.252 . S
C447 O450 1.252 . S
C447 O451 1.260 . S
O448 In442 2.266 . S
O448 C445 1.252 . S
O449 In442 2.326 . S
O449 C445 1.260 . S
O450 In442 2.266 . S
O450 C447 1.252 . S
O451 In442 2.326 . S
O451 C447 1.260 . S
C452 O443 1.240 . S
C452 O444 1.252 . S
O453 In442 2.294 . S
O453 C446 1.240 . S
O454 In442 2.326 . S
O454 C446 1.252 . S
In455 O456 2.294 . S
In455 O457 2.326 . S
In455 O461 2.266 . S
In455 O462 2.326 . S
In455 O463 2.266 . S
In455 O464 2.326 . S
In455 O466 2.294 . S
In455 O467 2.326 . S
O456 In455 2.294 . S
O456 C465 1.240 . S
O457 In455 2.326 . S
O457 C465 1.252 . S
C458 O461 1.252 . S
C458 O462 1.260 . S
C459 O466 1.240 . S
C459 O467 1.252 . S
C460 O463 1.252 . S
C460 O464 1.260 . S
O461 In455 2.266 . S
O461 C458 1.252 . S
O462 In455 2.326 . S
O462 C458 1.260 . S
O463 In455 2.266 . S
O463 C460 1.252 . S
O464 In455 2.326 . S
O464 C460 1.260 . S
C465 O456 1.240 . S
C465 O457 1.252 . S
O466 In455 2.294 . S
O466 C459 1.240 . S
O467 In455 2.326 . S
O467 C459 1.252 . S
H468 C474 0.930 . S
H469 C478 0.930 . S
H470 C483 0.929 . S
H471 C481 0.929 . S
H472 C476 0.929 1_556 S
H473 C482 0.929 . S
C474 H468 0.930 . S
C474 C475 1.367 . S
C474 C482 1.378 . S
C475 C474 1.367 . S
C475 C483 1.433 . S
C476 H472 0.929 1_554 S
C476 C478 1.378 . S
C476 C480 1.350 1_554 S
C477 C480 1.463 . S
C477 C482 1.350 . S
C477 N485 1.427 . S
C478 H469 0.930 . S
C478 C476 1.378 . S
C478 C479 1.367 . S
C479 C478 1.367 . S
C479 C481 1.433 . S
C480 C476 1.350 1_556 S
C480 C477 1.463 . S
C480 N484 1.427 1_556 S
C481 H471 0.929 . S
C481 C479 1.433 . S
C481 N484 1.384 . S
C482 H473 0.929 . S
C482 C474 1.378 . S
C482 C477 1.350 . S
C483 H470 0.929 . S
C483 C475 1.433 . S
C483 N485 1.384 . S
N484 C480 1.427 1_554 S
N484 C481 1.384 . S
N485 C477 1.427 . S
N485 C483 1.384 . S
H486 C492 0.930 . S
H487 C496 0.930 . S
H488 C501 0.929 . S
H489 C499 0.929 . S
H490 C494 0.929 1_556 S
H491 C500 0.929 . S
C492 H486 0.930 . S
C492 C493 1.367 . S
C492 C500 1.378 . S
C493 C492 1.367 . S
C493 C501 1.433 . S
C494 H490 0.929 1_554 S
C494 C496 1.378 . S
C494 C498 1.350 1_554 S
C495 C498 1.463 . S
C495 C500 1.350 . S
C495 N503 1.427 . S
C496 H487 0.930 . S
C496 C494 1.378 . S
C496 C497 1.367 . S
C497 C496 1.367 . S
C497 C499 1.433 . S
C498 C494 1.350 1_556 S
C498 C495 1.463 . S
C498 N502 1.427 1_556 S
C499 H489 0.929 . S
C499 C497 1.433 . S
C499 N502 1.384 . S
C500 H491 0.929 . S
C500 C492 1.378 . S
C500 C495 1.350 . S
C501 H488 0.929 . S
C501 C493 1.433 . S
C501 N503 1.384 . S
N502 C498 1.427 1_554 S
N502 C499 1.384 . S
N503 C495 1.427 . S
N503 C501 1.384 . S
H504 C510 0.930 . S
H505 C514 0.930 . S
H506 C519 0.929 . S
H507 C517 0.929 . S
H508 C512 0.929 . S
H509 C518 0.929 1_556 S
C510 H504 0.930 . S
C510 C511 1.367 . S
C510 C518 1.378 . S
C511 C510 1.367 . S
C511 C519 1.433 . S
C512 H508 0.929 . S
C512 C514 1.378 . S
C512 C516 1.350 . S
C513 C516 1.463 . S
C513 C518 1.350 1_556 S
C513 N521 1.427 1_556 S
C514 H505 0.930 . S
C514 C512 1.378 . S
C514 C515 1.367 . S
C515 C514 1.367 . S
C515 C517 1.433 . S
C516 C512 1.350 . S
C516 C513 1.463 . S
C516 N520 1.427 . S
C517 H507 0.929 . S
C517 C515 1.433 . S
C517 N520 1.384 . S
C518 H509 0.929 1_554 S
C518 C510 1.378 . S
C518 C513 1.350 1_554 S
C519 H506 0.929 . S
C519 C511 1.433 . S
C519 N521 1.384 . S
N520 C516 1.427 . S
N520 C517 1.384 . S
N521 C513 1.427 1_554 S
N521 C519 1.384 . S
H522 C528 0.930 . S
H523 C532 0.930 . S
H524 C537 0.929 . S
H525 C535 0.929 . S
H526 C530 0.929 . S
H527 C536 0.929 . S
C528 H522 0.930 . S
C528 C529 1.367 . S
C528 C536 1.378 . S
C529 C528 1.367 . S
C529 C537 1.433 . S
C530 H526 0.929 . S
C530 C532 1.378 . S
C530 C534 1.350 . S
C531 C534 1.463 . S
C531 C536 1.350 . S
C531 N539 1.427 . S
C532 H523 0.930 . S
C532 C530 1.378 . S
C532 C533 1.367 . S
C533 C532 1.367 . S
C533 C535 1.433 . S
C534 C530 1.350 . S
C534 C531 1.463 . S
C534 N538 1.427 . S
C535 H525 0.929 . S
C535 C533 1.433 . S
C535 N538 1.384 . S
C536 H527 0.929 . S
C536 C528 1.378 . S
C536 C531 1.350 . S
C537 H524 0.929 . S
C537 C529 1.433 . S
C537 N539 1.384 . S
N538 C534 1.427 . S
N538 C535 1.384 . S
N539 C531 1.427 . S
N539 C537 1.384 . S
H540 C546 0.930 . S
H541 C550 0.930 . S
H542 C555 0.929 . S
H543 C553 0.929 . S
H544 C548 0.929 . S
H545 C554 0.929 . S
C546 H540 0.930 . S
C546 C547 1.367 . S
C546 C554 1.378 . S
C547 C546 1.367 . S
C547 C555 1.433 . S
C548 H544 0.929 . S
C548 C550 1.378 . S
C548 C552 1.350 . S
C549 C552 1.463 . S
C549 C554 1.350 . S
C549 N557 1.427 . S
C550 H541 0.930 . S
C550 C548 1.378 . S
C550 C551 1.367 . S
C551 C550 1.367 . S
C551 C553 1.433 . S
C552 C548 1.350 . S
C552 C549 1.463 . S
C552 N556 1.427 . S
C553 H543 0.929 . S
C553 C551 1.433 . S
C553 N556 1.384 . S
C554 H545 0.929 . S
C554 C546 1.378 . S
C554 C549 1.350 . S
C555 H542 0.929 . S
C555 C547 1.433 . S
C555 N557 1.384 . S
N556 C552 1.427 . S
N556 C553 1.384 . S
N557 C549 1.427 . S
N557 C555 1.384 . S
H558 C564 0.930 . S
H559 C568 0.930 . S
H560 C573 0.929 . S
H561 C571 0.929 . S
H562 C566 0.929 . S
H563 C572 0.929 . S
C564 H558 0.930 . S
C564 C565 1.367 . S
C564 C572 1.378 . S
C565 C564 1.367 . S
C565 C573 1.433 . S
C566 H562 0.929 . S
C566 C568 1.378 . S
C566 C570 1.350 . S
C567 C570 1.463 . S
C567 C572 1.350 . S
C567 N575 1.427 . S
C568 H559 0.930 . S
C568 C566 1.378 . S
C568 C569 1.367 . S
C569 C568 1.367 . S
C569 C571 1.433 . S
C570 C566 1.350 . S
C570 C567 1.463 . S
C570 N574 1.427 . S
C571 H561 0.929 . S
C571 C569 1.433 . S
C571 N574 1.384 . S
C572 H563 0.929 . S
C572 C564 1.378 . S
C572 C567 1.350 . S
C573 H560 0.929 . S
C573 C565 1.433 . S
C573 N575 1.384 . S
N574 C570 1.427 . S
N574 C571 1.384 . S
N575 C567 1.427 . S
N575 C573 1.384 . S
H576 C582 0.930 . S
H577 C586 0.930 . S
H578 C591 0.929 . S
H579 C589 0.929 . S
H580 C584 0.929 1_554 S
H581 C590 0.929 . S
C582 H576 0.930 . S
C582 C583 1.367 . S
C582 C590 1.378 . S
C583 C582 1.367 . S
C583 C591 1.433 . S
C584 H580 0.929 1_556 S
C584 C586 1.378 . S
C584 C588 1.350 1_556 S
C585 C588 1.463 . S
C585 C590 1.350 . S
C585 N593 1.427 . S
C586 H577 0.930 . S
C586 C584 1.378 . S
C586 C587 1.367 . S
C587 C586 1.367 . S
C587 C589 1.433 . S
C588 C584 1.350 1_554 S
C588 C585 1.463 . S
C588 N592 1.427 1_554 S
C589 H579 0.929 . S
C589 C587 1.433 . S
C589 N592 1.384 . S
C590 H581 0.929 . S
C590 C582 1.378 . S
C590 C585 1.350 . S
C591 H578 0.929 . S
C591 C583 1.433 . S
C591 N593 1.384 . S
N592 C588 1.427 1_556 S
N592 C589 1.384 . S
N593 C585 1.427 . S
N593 C591 1.384 . S
H594 C600 0.930 . S
H595 C604 0.930 . S
H596 C609 0.929 . S
H597 C607 0.929 . S
H598 C602 0.929 1_554 S
H599 C608 0.929 . S
C600 H594 0.930 . S
C600 C601 1.367 . S
C600 C608 1.378 . S
C601 C600 1.367 . S
C601 C609 1.433 . S
C602 H598 0.929 1_556 S
C602 C604 1.378 . S
C602 C606 1.350 1_556 S
C603 C606 1.463 . S
C603 C608 1.350 . S
C603 N611 1.427 . S
C604 H595 0.930 . S
C604 C602 1.378 . S
C604 C605 1.367 . S
C605 C604 1.367 . S
C605 C607 1.433 . S
C606 C602 1.350 1_554 S
C606 C603 1.463 . S
C606 N610 1.427 1_554 S
C607 H597 0.929 . S
C607 C605 1.433 . S
C607 N610 1.384 . S
C608 H599 0.929 . S
C608 C600 1.378 . S
C608 C603 1.350 . S
C609 H596 0.929 . S
C609 C601 1.433 . S
C609 N611 1.384 . S
N610 C606 1.427 1_556 S
N610 C607 1.384 . S
N611 C603 1.427 . S
N611 C609 1.384 . S
H612 C618 0.930 . S
H613 C622 0.930 . S
H614 C627 0.929 . S
H615 C625 0.929 . S
H616 C620 0.929 . S
H617 C626 0.929 1_554 S
C618 H612 0.930 . S
C618 C619 1.367 . S
C618 C626 1.378 . S
C619 C618 1.367 . S
C619 C627 1.433 . S
C620 H616 0.929 . S
C620 C622 1.378 . S
C620 C624 1.350 . S
C621 C624 1.463 . S
C621 C626 1.350 1_554 S
C621 N629 1.427 1_554 S
C622 H613 0.930 . S
C622 C620 1.378 . S
C622 C623 1.367 . S
C623 C622 1.367 . S
C623 C625 1.433 . S
C624 C620 1.350 . S
C624 C621 1.463 . S
C624 N628 1.427 . S
C625 H615 0.929 . S
C625 C623 1.433 . S
C625 N628 1.384 . S
C626 H617 0.929 1_556 S
C626 C618 1.378 . S
C626 C621 1.350 1_556 S
C627 H614 0.929 . S
C627 C619 1.433 . S
C627 N629 1.384 . S
N628 C624 1.427 . S
N628 C625 1.384 . S
N629 C621 1.427 1_556 S
N629 C627 1.384 . S
H630 C636 0.930 . S
H631 C640 0.930 . S
H632 C645 0.929 . S
H633 C643 0.929 . S
H634 C638 0.929 . S
H635 C644 0.929 . S
C636 H630 0.930 . S
C636 C637 1.367 . S
C636 C644 1.378 . S
C637 C636 1.367 . S
C637 C645 1.433 . S
C638 H634 0.929 . S
C638 C640 1.378 . S
C638 C642 1.350 . S
C639 C642 1.463 . S
C639 C644 1.350 . S
C639 N647 1.427 . S
C640 H631 0.930 . S
C640 C638 1.378 . S
C640 C641 1.367 . S
C641 C640 1.367 . S
C641 C643 1.433 . S
C642 C638 1.350 . S
C642 C639 1.463 . S
C642 N646 1.427 . S
C643 H633 0.929 . S
C643 C641 1.433 . S
C643 N646 1.384 . S
C644 H635 0.929 . S
C644 C636 1.378 . S
C644 C639 1.350 . S
C645 H632 0.929 . S
C645 C637 1.433 . S
C645 N647 1.384 . S
N646 C642 1.427 . S
N646 C643 1.384 . S
N647 C639 1.427 . S
N647 C645 1.384 . S
H648 C654 0.930 . S
H649 C658 0.930 . S
H650 C663 0.929 . S
H651 C661 0.929 . S
H652 C656 0.929 . S
H653 C662 0.929 . S
C654 H648 0.930 . S
C654 C655 1.367 . S
C654 C662 1.378 . S
C655 C654 1.367 . S
C655 C663 1.433 . S
C656 H652 0.929 . S
C656 C658 1.378 . S
C656 C660 1.350 . S
C657 C660 1.463 . S
C657 C662 1.350 . S
C657 N665 1.427 . S
C658 H649 0.930 . S
C658 C656 1.378 . S
C658 C659 1.367 . S
C659 C658 1.367 . S
C659 C661 1.433 . S
C660 C656 1.350 . S
C660 C657 1.463 . S
C660 N664 1.427 . S
C661 H651 0.929 . S
C661 C659 1.433 . S
C661 N664 1.384 . S
C662 H653 0.929 . S
C662 C654 1.378 . S
C662 C657 1.350 . S
C663 H650 0.929 . S
C663 C655 1.433 . S
C663 N665 1.384 . S
N664 C660 1.427 . S
N664 C661 1.384 . S
N665 C657 1.427 . S
N665 C663 1.384 . S
H666 C672 0.930 . S
H667 C676 0.930 . S
H668 C681 0.929 . S
H669 C679 0.929 . S
H670 C674 0.929 . S
H671 C680 0.929 . S
C672 H666 0.930 . S
C672 C673 1.367 . S
C672 C680 1.378 . S
C673 C672 1.367 . S
C673 C681 1.433 . S
C674 H670 0.929 . S
C674 C676 1.378 . S
C674 C678 1.350 . S
C675 C678 1.463 . S
C675 C680 1.350 . S
C675 N683 1.427 . S
C676 H667 0.930 . S
C676 C674 1.378 . S
C676 C677 1.367 . S
C677 C676 1.367 . S
C677 C679 1.433 . S
C678 C674 1.350 . S
C678 C675 1.463 . S
C678 N682 1.427 . S
C679 H669 0.929 . S
C679 C677 1.433 . S
C679 N682 1.384 . S
C680 H671 0.929 . S
C680 C672 1.378 . S
C680 C675 1.350 . S
C681 H668 0.929 . S
C681 C673 1.433 . S
C681 N683 1.384 . S
N682 C678 1.427 . S
N682 C679 1.384 . S
N683 C675 1.427 . S
N683 C681 1.384 . S
H684 C690 0.930 . S
H685 C694 0.930 . S
H686 C699 0.929 . S
H687 C697 0.929 . S
H688 C692 0.929 . S
H689 C698 0.929 . S
C690 H684 0.930 . S
C690 C691 1.367 . S
C690 C698 1.378 . S
C691 C690 1.367 . S
C691 C699 1.433 . S
C692 H688 0.929 . S
C692 C694 1.378 . S
C692 C696 1.350 . S
C693 C696 1.463 . S
C693 C698 1.350 . S
C693 N701 1.427 . S
C694 H685 0.930 . S
C694 C692 1.378 . S
C694 C695 1.367 . S
C695 C694 1.367 . S
C695 C697 1.433 . S
C696 C692 1.350 . S
C696 C693 1.463 . S
C696 N700 1.427 . S
C697 H687 0.929 . S
C697 C695 1.433 . S
C697 N700 1.384 . S
C698 H689 0.929 . S
C698 C690 1.378 . S
C698 C693 1.350 . S
C699 H686 0.929 . S
C699 C691 1.433 . S
C699 N701 1.384 . S
N700 C696 1.427 . S
N700 C697 1.384 . S
N701 C693 1.427 . S
N701 C699 1.384 . S
H702 C708 0.930 . S
H703 C712 0.930 . S
H704 C717 0.929 . S
H705 C715 0.929 . S
H706 C710 0.929 . S
H707 C716 0.929 . S
C708 H702 0.930 . S
C708 C709 1.367 . S
C708 C716 1.378 . S
C709 C708 1.367 . S
C709 C717 1.433 . S
C710 H706 0.929 . S
C710 C712 1.378 . S
C710 C714 1.350 . S
C711 C714 1.463 . S
C711 C716 1.350 . S
C711 N719 1.427 . S
C712 H703 0.930 . S
C712 C710 1.378 . S
C712 C713 1.367 . S
C713 C712 1.367 . S
C713 C715 1.433 . S
C714 C710 1.350 . S
C714 C711 1.463 . S
C714 N718 1.427 . S
C715 H705 0.929 . S
C715 C713 1.433 . S
C715 N718 1.384 . S
C716 H707 0.929 . S
C716 C708 1.378 . S
C716 C711 1.350 . S
C717 H704 0.929 . S
C717 C709 1.433 . S
C717 N719 1.384 . S
N718 C714 1.427 . S
N718 C715 1.384 . S
N719 C711 1.427 . S
N719 C717 1.384 . S
H720 C726 0.930 . S
H721 C730 0.930 . S
H722 C735 0.929 . S
H723 C733 0.929 . S
H724 C728 0.929 . S
H725 C734 0.929 . S
C726 H720 0.930 . S
C726 C727 1.367 . S
C726 C734 1.378 . S
C727 C726 1.367 . S
C727 C735 1.433 . S
C728 H724 0.929 . S
C728 C730 1.378 . S
C728 C732 1.350 . S
C729 C732 1.463 . S
C729 C734 1.350 . S
C729 N737 1.427 . S
C730 H721 0.930 . S
C730 C728 1.378 . S
C730 C731 1.367 . S
C731 C730 1.367 . S
C731 C733 1.433 . S
C732 C728 1.350 . S
C732 C729 1.463 . S
C732 N736 1.427 . S
C733 H723 0.929 . S
C733 C731 1.433 . S
C733 N736 1.384 . S
C734 H725 0.929 . S
C734 C726 1.378 . S
C734 C729 1.350 . S
C735 H722 0.929 . S
C735 C727 1.433 . S
C735 N737 1.384 . S
N736 C732 1.427 . S
N736 C733 1.384 . S
N737 C729 1.427 . S
N737 C735 1.384 . S
H738 C744 0.930 . S
H739 C748 0.930 . S
H740 C753 0.929 . S
H741 C751 0.929 . S
H742 C746 0.929 . S
H743 C752 0.929 . S
C744 H738 0.930 . S
C744 C745 1.367 . S
C744 C752 1.378 . S
C745 C744 1.367 . S
C745 C753 1.433 . S
C746 H742 0.929 . S
C746 C748 1.378 . S
C746 C750 1.350 . S
C747 C750 1.463 . S
C747 C752 1.350 . S
C747 N755 1.427 . S
C748 H739 0.930 . S
C748 C746 1.378 . S
C748 C749 1.367 . S
C749 C748 1.367 . S
C749 C751 1.433 . S
C750 C746 1.350 . S
C750 C747 1.463 . S
C750 N754 1.427 . S
C751 H741 0.929 . S
C751 C749 1.433 . S
C751 N754 1.384 . S
C752 H743 0.929 . S
C752 C744 1.378 . S
C752 C747 1.350 . S
C753 H740 0.929 . S
C753 C745 1.433 . S
C753 N755 1.384 . S
N754 C750 1.427 . S
N754 C751 1.384 . S
N755 C747 1.427 . S
N755 C753 1.384 . S
H756 C762 0.930 . S
H757 C766 0.930 . S
H758 C771 0.929 . S
H759 C769 0.929 . S
H760 C764 0.929 . S
H761 C770 0.929 . S
C762 H756 0.930 . S
C762 C763 1.367 . S
C762 C770 1.378 . S
C763 C762 1.367 . S
C763 C771 1.433 . S
C764 H760 0.929 . S
C764 C766 1.378 . S
C764 C768 1.350 . S
C765 C768 1.463 . S
C765 C770 1.350 . S
C765 N773 1.427 . S
C766 H757 0.930 . S
C766 C764 1.378 . S
C766 C767 1.367 . S
C767 C766 1.367 . S
C767 C769 1.433 . S
C768 C764 1.350 . S
C768 C765 1.463 . S
C768 N772 1.427 . S
C769 H759 0.929 . S
C769 C767 1.433 . S
C769 N772 1.384 . S
C770 H761 0.929 . S
C770 C762 1.378 . S
C770 C765 1.350 . S
C771 H758 0.929 . S
C771 C763 1.433 . S
C771 N773 1.384 . S
N772 C768 1.427 . S
N772 C769 1.384 . S
N773 C765 1.427 . S
N773 C771 1.384 . S
H774 C780 0.930 . S
H775 C784 0.930 . S
H776 C789 0.929 . S
H777 C787 0.929 . S
H778 C782 0.929 . S
H779 C788 0.929 . S
C780 H774 0.930 . S
C780 C781 1.367 . S
C780 C788 1.378 . S
C781 C780 1.367 . S
C781 C789 1.433 . S
C782 H778 0.929 . S
C782 C784 1.378 . S
C782 C786 1.350 . S
C783 C786 1.463 . S
C783 C788 1.350 . S
C783 N791 1.427 . S
C784 H775 0.930 . S
C784 C782 1.378 . S
C784 C785 1.367 . S
C785 C784 1.367 . S
C785 C787 1.433 . S
C786 C782 1.350 . S
C786 C783 1.463 . S
C786 N790 1.427 . S
C787 H777 0.929 . S
C787 C785 1.433 . S
C787 N790 1.384 . S
C788 H779 0.929 . S
C788 C780 1.378 . S
C788 C783 1.350 . S
C789 H776 0.929 . S
C789 C781 1.433 . S
C789 N791 1.384 . S
N790 C786 1.427 . S
N790 C787 1.384 . S
N791 C783 1.427 . S
N791 C789 1.384 . S
H792 C798 0.930 . S
H793 C802 0.930 . S
H794 C807 0.929 . S
H795 C805 0.929 . S
H796 C800 0.929 . S
H797 C806 0.929 . S
C798 H792 0.930 . S
C798 C799 1.367 . S
C798 C806 1.378 . S
C799 C798 1.367 . S
C799 C807 1.433 . S
C800 H796 0.929 . S
C800 C802 1.378 . S
C800 C804 1.350 . S
C801 C804 1.463 . S
C801 C806 1.350 . S
C801 N809 1.427 . S
C802 H793 0.930 . S
C802 C800 1.378 . S
C802 C803 1.367 . S
C803 C802 1.367 . S
C803 C805 1.433 . S
C804 C800 1.350 . S
C804 C801 1.463 . S
C804 N808 1.427 . S
C805 H795 0.929 . S
C805 C803 1.433 . S
C805 N808 1.384 . S
C806 H797 0.929 . S
C806 C798 1.378 . S
C806 C801 1.350 . S
C807 H794 0.929 . S
C807 C799 1.433 . S
C807 N809 1.384 . S
N808 C804 1.427 . S
N808 C805 1.384 . S
N809 C801 1.427 . S
N809 C807 1.384 . S
H810 C816 0.930 . S
H811 C820 0.930 . S
H812 C825 0.929 . S
H813 C823 0.929 . S
H814 C818 0.929 . S
H815 C824 0.929 . S
C816 H810 0.930 . S
C816 C817 1.367 . S
C816 C824 1.378 . S
C817 C816 1.367 . S
C817 C825 1.433 . S
C818 H814 0.929 . S
C818 C820 1.378 . S
C818 C822 1.350 . S
C819 C822 1.463 . S
C819 C824 1.350 . S
C819 N827 1.427 . S
C820 H811 0.930 . S
C820 C818 1.378 . S
C820 C821 1.367 . S
C821 C820 1.367 . S
C821 C823 1.433 . S
C822 C818 1.350 . S
C822 C819 1.463 . S
C822 N826 1.427 . S
C823 H813 0.929 . S
C823 C821 1.433 . S
C823 N826 1.384 . S
C824 H815 0.929 . S
C824 C816 1.378 . S
C824 C819 1.350 . S
C825 H812 0.929 . S
C825 C817 1.433 . S
C825 N827 1.384 . S
N826 C822 1.427 . S
N826 C823 1.384 . S
N827 C819 1.427 . S
N827 C825 1.384 . S
H828 C834 0.930 . S
H829 C838 0.930 . S
H830 C843 0.929 . S
H831 C841 0.929 . S
H832 C836 0.929 . S
H833 C842 0.929 . S
C834 H828 0.930 . S
C834 C835 1.367 . S
C834 C842 1.378 . S
C835 C834 1.367 . S
C835 C843 1.433 . S
C836 H832 0.929 . S
C836 C838 1.378 . S
C836 C840 1.350 . S
C837 C840 1.463 . S
C837 C842 1.350 . S
C837 N845 1.427 . S
C838 H829 0.930 . S
C838 C836 1.378 . S
C838 C839 1.367 . S
C839 C838 1.367 . S
C839 C841 1.433 . S
C840 C836 1.350 . S
C840 C837 1.463 . S
C840 N844 1.427 . S
C841 H831 0.929 . S
C841 C839 1.433 . S
C841 N844 1.384 . S
C842 H833 0.929 . S
C842 C834 1.378 . S
C842 C837 1.350 . S
C843 H830 0.929 . S
C843 C835 1.433 . S
C843 N845 1.384 . S
N844 C840 1.427 . S
N844 C841 1.384 . S
N845 C837 1.427 . S
N845 C843 1.384 . S
H846 C852 0.930 . S
H847 C856 0.930 . S
H848 C861 0.929 . S
H849 C859 0.929 . S
H850 C854 0.929 . S
H851 C860 0.929 . S
C852 H846 0.930 . S
C852 C853 1.367 . S
C852 C860 1.378 . S
C853 C852 1.367 . S
C853 C861 1.433 . S
C854 H850 0.929 . S
C854 C856 1.378 . S
C854 C858 1.350 . S
C855 C858 1.463 . S
C855 C860 1.350 . S
C855 N863 1.427 . S
C856 H847 0.930 . S
C856 C854 1.378 . S
C856 C857 1.367 . S
C857 C856 1.367 . S
C857 C859 1.433 . S
C858 C854 1.350 . S
C858 C855 1.463 . S
C858 N862 1.427 . S
C859 H849 0.929 . S
C859 C857 1.433 . S
C859 N862 1.384 . S
C860 H851 0.929 . S
C860 C852 1.378 . S
C860 C855 1.350 . S
C861 H848 0.929 . S
C861 C853 1.433 . S
C861 N863 1.384 . S
N862 C858 1.427 . S
N862 C859 1.384 . S
N863 C855 1.427 . S
N863 C861 1.384 . S
H864 C870 0.930 . S
H865 C874 0.930 . S
H866 C879 0.929 . S
H867 C877 0.929 . S
H868 C872 0.929 . S
H869 C878 0.929 . S
C870 H864 0.930 . S
C870 C871 1.367 . S
C870 C878 1.378 . S
C871 C870 1.367 . S
C871 C879 1.433 . S
C872 H868 0.929 . S
C872 C874 1.378 . S
C872 C876 1.350 . S
C873 C876 1.463 . S
C873 C878 1.350 . S
C873 N881 1.427 . S
C874 H865 0.930 . S
C874 C872 1.378 . S
C874 C875 1.367 . S
C875 C874 1.367 . S
C875 C877 1.433 . S
C876 C872 1.350 . S
C876 C873 1.463 . S
C876 N880 1.427 . S
C877 H867 0.929 . S
C877 C875 1.433 . S
C877 N880 1.384 . S
C878 H869 0.929 . S
C878 C870 1.378 . S
C878 C873 1.350 . S
C879 H866 0.929 . S
C879 C871 1.433 . S
C879 N881 1.384 . S
N880 C876 1.427 . S
N880 C877 1.384 . S
N881 C873 1.427 . S
N881 C879 1.384 . S
H882 C888 0.930 . S
H883 C892 0.930 . S
H884 C897 0.929 . S
H885 C895 0.929 . S
H886 C890 0.929 . S
H887 C896 0.929 . S
C888 H882 0.930 . S
C888 C889 1.367 . S
C888 C896 1.378 . S
C889 C888 1.367 . S
C889 C897 1.433 . S
C890 H886 0.929 . S
C890 C892 1.378 . S
C890 C894 1.350 . S
C891 C894 1.463 . S
C891 C896 1.350 . S
C891 N899 1.427 . S
C892 H883 0.930 . S
C892 C890 1.378 . S
C892 C893 1.367 . S
C893 C892 1.367 . S
C893 C895 1.433 . S
C894 C890 1.350 . S
C894 C891 1.463 . S
C894 N898 1.427 . S
C895 H885 0.929 . S
C895 C893 1.433 . S
C895 N898 1.384 . S
C896 H887 0.929 . S
C896 C888 1.378 . S
C896 C891 1.350 . S
C897 H884 0.929 . S
C897 C889 1.433 . S
C897 N899 1.384 . S
N898 C894 1.427 . S
N898 C895 1.384 . S
N899 C891 1.427 . S
N899 C897 1.384 . S
H900 C906 0.930 . S
H901 C910 0.930 . S
H902 C915 0.929 . S
H903 C913 0.929 . S
H904 C908 0.929 . S
H905 C914 0.929 . S
C906 H900 0.930 . S
C906 C907 1.367 . S
C906 C914 1.378 . S
C907 C906 1.367 . S
C907 C915 1.433 . S
C908 H904 0.929 . S
C908 C910 1.378 . S
C908 C912 1.350 . S
C909 C912 1.463 . S
C909 C914 1.350 . S
C909 N917 1.427 . S
C910 H901 0.930 . S
C910 C908 1.378 . S
C910 C911 1.367 . S
C911 C910 1.367 . S
C911 C913 1.433 . S
C912 C908 1.350 . S
C912 C909 1.463 . S
C912 N916 1.427 . S
C913 H903 0.929 . S
C913 C911 1.433 . S
C913 N916 1.384 . S
C914 H905 0.929 . S
C914 C906 1.378 . S
C914 C909 1.350 . S
C915 H902 0.929 . S
C915 C907 1.433 . S
C915 N917 1.384 . S
N916 C912 1.427 . S
N916 C913 1.384 . S
N917 C909 1.427 . S
N917 C915 1.384 . S
H918 C924 0.930 . S
H919 C928 0.930 . S
H920 C933 0.929 . S
H921 C931 0.929 . S
H922 C926 0.929 . S
H923 C932 0.929 . S
C924 H918 0.930 . S
C924 C925 1.367 . S
C924 C932 1.378 . S
C925 C924 1.367 . S
C925 C933 1.433 . S
C926 H922 0.929 . S
C926 C928 1.378 . S
C926 C930 1.350 . S
C927 C930 1.463 . S
C927 C932 1.350 . S
C927 N935 1.427 . S
C928 H919 0.930 . S
C928 C926 1.378 . S
C928 C929 1.367 . S
C929 C928 1.367 . S
C929 C931 1.433 . S
C930 C926 1.350 . S
C930 C927 1.463 . S
C930 N934 1.427 . S
C931 H921 0.929 . S
C931 C929 1.433 . S
C931 N934 1.384 . S
C932 H923 0.929 . S
C932 C924 1.378 . S
C932 C927 1.350 . S
C933 H920 0.929 . S
C933 C925 1.433 . S
C933 N935 1.384 . S
N934 C930 1.427 . S
N934 C931 1.384 . S
N935 C927 1.427 . S
N935 C933 1.384 . S
H936 C942 0.930 . S
H937 C946 0.930 . S
H938 C951 0.929 . S
H939 C949 0.929 . S
H940 C944 0.929 . S
H941 C950 0.929 . S
C942 H936 0.930 . S
C942 C943 1.367 . S
C942 C950 1.378 . S
C943 C942 1.367 . S
C943 C951 1.433 . S
C944 H940 0.929 . S
C944 C946 1.378 . S
C944 C948 1.350 . S
C945 C948 1.463 . S
C945 C950 1.350 . S
C945 N953 1.427 . S
C946 H937 0.930 . S
C946 C944 1.378 . S
C946 C947 1.367 . S
C947 C946 1.367 . S
C947 C949 1.433 . S
C948 C944 1.350 . S
C948 C945 1.463 . S
C948 N952 1.427 . S
C949 H939 0.929 . S
C949 C947 1.433 . S
C949 N952 1.384 . S
C950 H941 0.929 . S
C950 C942 1.378 . S
C950 C945 1.350 . S
C951 H938 0.929 . S
C951 C943 1.433 . S
C951 N953 1.384 . S
N952 C948 1.427 . S
N952 C949 1.384 . S
N953 C945 1.427 . S
N953 C951 1.384 . S
H954 C960 0.930 . S
H955 C964 0.930 . S
H956 C969 0.929 . S
H957 C967 0.929 . S
H958 C962 0.929 . S
H959 C968 0.929 . S
C960 H954 0.930 . S
C960 C961 1.367 . S
C960 C968 1.378 . S
C961 C960 1.367 . S
C961 C969 1.433 . S
C962 H958 0.929 . S
C962 C964 1.378 . S
C962 C966 1.350 . S
C963 C966 1.463 . S
C963 C968 1.350 . S
C963 N971 1.427 . S
C964 H955 0.930 . S
C964 C962 1.378 . S
C964 C965 1.367 . S
C965 C964 1.367 . S
C965 C967 1.433 . S
C966 C962 1.350 . S
C966 C963 1.463 . S
C966 N970 1.427 . S
C967 H957 0.929 . S
C967 C965 1.433 . S
C967 N970 1.384 . S
C968 H959 0.929 . S
C968 C960 1.378 . S
C968 C963 1.350 . S
C969 H956 0.929 . S
C969 C961 1.433 . S
C969 N971 1.384 . S
N970 C966 1.427 . S
N970 C967 1.384 . S
N971 C963 1.427 . S
N971 C969 1.384 . S
H972 C978 0.930 . S
H973 C982 0.930 . S
H974 C987 0.929 . S
H975 C985 0.929 . S
H976 C980 0.929 . S
H977 C986 0.929 . S
C978 H972 0.930 . S
C978 C979 1.367 . S
C978 C986 1.378 . S
C979 C978 1.367 . S
C979 C987 1.433 . S
C980 H976 0.929 . S
C980 C982 1.378 . S
C980 C984 1.350 . S
C981 C984 1.463 . S
C981 C986 1.350 . S
C981 N989 1.427 . S
C982 H973 0.930 . S
C982 C980 1.378 . S
C982 C983 1.367 . S
C983 C982 1.367 . S
C983 C985 1.433 . S
C984 C980 1.350 . S
C984 C981 1.463 . S
C984 N988 1.427 . S
C985 H975 0.929 . S
C985 C983 1.433 . S
C985 N988 1.384 . S
C986 H977 0.929 . S
C986 C978 1.378 . S
C986 C981 1.350 . S
C987 H974 0.929 . S
C987 C979 1.433 . S
C987 N989 1.384 . S
N988 C984 1.427 . S
N988 C985 1.384 . S
N989 C981 1.427 . S
N989 C987 1.384 . S
H990 C996 0.930 . S
H991 C1000 0.930 . S
H992 C1005 0.929 . S
H993 C1003 0.929 . S
H994 C998 0.929 . S
H995 C1004 0.929 . S
C996 H990 0.930 . S
C996 C997 1.367 . S
C996 C1004 1.378 . S
C997 C996 1.367 . S
C997 C1005 1.433 . S
C998 H994 0.929 . S
C998 C1000 1.378 . S
C998 C1002 1.350 . S
C999 C1002 1.463 . S
C999 C1004 1.350 . S
C999 N1007 1.427 . S
C1000 H991 0.930 . S
C1000 C998 1.378 . S
C1000 C1001 1.367 . S
C1001 C1000 1.367 . S
C1001 C1003 1.433 . S
C1002 C998 1.350 . S
C1002 C999 1.463 . S
C1002 N1006 1.427 . S
C1003 H993 0.929 . S
C1003 C1001 1.433 . S
C1003 N1006 1.384 . S
C1004 H995 0.929 . S
C1004 C996 1.378 . S
C1004 C999 1.350 . S
C1005 H992 0.929 . S
C1005 C997 1.433 . S
C1005 N1007 1.384 . S
N1006 C1002 1.427 . S
N1006 C1003 1.384 . S
N1007 C999 1.427 . S
N1007 C1005 1.384 . S
H1008 C1014 0.930 . S
H1009 C1018 0.930 . S
H1010 C1023 0.929 . S
H1011 C1021 0.929 . S
H1012 C1016 0.929 . S
H1013 C1022 0.929 . S
C1014 H1008 0.930 . S
C1014 C1015 1.367 . S
C1014 C1022 1.378 . S
C1015 C1014 1.367 . S
C1015 C1023 1.433 . S
C1016 H1012 0.929 . S
C1016 C1018 1.378 . S
C1016 C1020 1.350 . S
C1017 C1020 1.463 . S
C1017 C1022 1.350 . S
C1017 N1025 1.427 . S
C1018 H1009 0.930 . S
C1018 C1016 1.378 . S
C1018 C1019 1.367 . S
C1019 C1018 1.367 . S
C1019 C1021 1.433 . S
C1020 C1016 1.350 . S
C1020 C1017 1.463 . S
C1020 N1024 1.427 . S
C1021 H1011 0.929 . S
C1021 C1019 1.433 . S
C1021 N1024 1.384 . S
C1022 H1013 0.929 . S
C1022 C1014 1.378 . S
C1022 C1017 1.350 . S
C1023 H1010 0.929 . S
C1023 C1015 1.433 . S
C1023 N1025 1.384 . S
N1024 C1020 1.427 . S
N1024 C1021 1.384 . S
N1025 C1017 1.427 . S
N1025 C1023 1.384 . S
H1026 C1032 0.930 . S
H1027 C1036 0.930 . S
H1028 C1041 0.929 . S
H1029 C1039 0.929 . S
H1030 C1034 0.929 . S
H1031 C1040 0.929 . S
C1032 H1026 0.930 . S
C1032 C1033 1.367 . S
C1032 C1040 1.378 . S
C1033 C1032 1.367 . S
C1033 C1041 1.433 . S
C1034 H1030 0.929 . S
C1034 C1036 1.378 . S
C1034 C1038 1.350 . S
C1035 C1038 1.463 . S
C1035 C1040 1.350 . S
C1035 N1043 1.427 . S
C1036 H1027 0.930 . S
C1036 C1034 1.378 . S
C1036 C1037 1.367 . S
C1037 C1036 1.367 . S
C1037 C1039 1.433 . S
C1038 C1034 1.350 . S
C1038 C1035 1.463 . S
C1038 N1042 1.427 . S
C1039 H1029 0.929 . S
C1039 C1037 1.433 . S
C1039 N1042 1.384 . S
C1040 H1031 0.929 . S
C1040 C1032 1.378 . S
C1040 C1035 1.350 . S
C1041 H1028 0.929 . S
C1041 C1033 1.433 . S
C1041 N1043 1.384 . S
N1042 C1038 1.427 . S
N1042 C1039 1.384 . S
N1043 C1035 1.427 . S
N1043 C1041 1.384 . S
H1044 C1050 0.930 . S
H1045 C1054 0.930 . S
H1046 C1059 0.929 . S
H1047 C1057 0.929 . S
H1048 C1052 0.929 . S
H1049 C1058 0.929 . S
C1050 H1044 0.930 . S
C1050 C1051 1.367 . S
C1050 C1058 1.378 . S
C1051 C1050 1.367 . S
C1051 C1059 1.433 . S
C1052 H1048 0.929 . S
C1052 C1054 1.378 . S
C1052 C1056 1.350 . S
C1053 C1056 1.463 . S
C1053 C1058 1.350 . S
C1053 N1061 1.427 . S
C1054 H1045 0.930 . S
C1054 C1052 1.378 . S
C1054 C1055 1.367 . S
C1055 C1054 1.367 . S
C1055 C1057 1.433 . S
C1056 C1052 1.350 . S
C1056 C1053 1.463 . S
C1056 N1060 1.427 . S
C1057 H1047 0.929 . S
C1057 C1055 1.433 . S
C1057 N1060 1.384 . S
C1058 H1049 0.929 . S
C1058 C1050 1.378 . S
C1058 C1053 1.350 . S
C1059 H1046 0.929 . S
C1059 C1051 1.433 . S
C1059 N1061 1.384 . S
N1060 C1056 1.427 . S
N1060 C1057 1.384 . S
N1061 C1053 1.427 . S
N1061 C1059 1.384 . S
H1062 C1068 0.930 . S
H1063 C1072 0.930 . S
H1064 C1077 0.929 . S
H1065 C1075 0.929 . S
H1066 C1070 0.929 . S
H1067 C1076 0.929 . S
C1068 H1062 0.930 . S
C1068 C1069 1.367 . S
C1068 C1076 1.378 . S
C1069 C1068 1.367 . S
C1069 C1077 1.433 . S
C1070 H1066 0.929 . S
C1070 C1072 1.378 . S
C1070 C1074 1.350 . S
C1071 C1074 1.463 . S
C1071 C1076 1.350 . S
C1071 N1079 1.427 . S
C1072 H1063 0.930 . S
C1072 C1070 1.378 . S
C1072 C1073 1.367 . S
C1073 C1072 1.367 . S
C1073 C1075 1.433 . S
C1074 C1070 1.350 . S
C1074 C1071 1.463 . S
C1074 N1078 1.427 . S
C1075 H1065 0.929 . S
C1075 C1073 1.433 . S
C1075 N1078 1.384 . S
C1076 H1067 0.929 . S
C1076 C1068 1.378 . S
C1076 C1071 1.350 . S
C1077 H1064 0.929 . S
C1077 C1069 1.433 . S
C1077 N1079 1.384 . S
N1078 C1074 1.427 . S
N1078 C1075 1.384 . S
N1079 C1071 1.427 . S
N1079 C1077 1.384 . S
H1080 C1086 0.930 . S
H1081 C1090 0.930 . S
H1082 C1095 0.929 . S
H1083 C1093 0.929 . S
H1084 C1088 0.929 . S
H1085 C1094 0.929 . S
C1086 H1080 0.930 . S
C1086 C1087 1.367 . S
C1086 C1094 1.378 . S
C1087 C1086 1.367 . S
C1087 C1095 1.433 . S
C1088 H1084 0.929 . S
C1088 C1090 1.378 . S
C1088 C1092 1.350 . S
C1089 C1092 1.463 . S
C1089 C1094 1.350 . S
C1089 N1097 1.427 . S
C1090 H1081 0.930 . S
C1090 C1088 1.378 . S
C1090 C1091 1.367 . S
C1091 C1090 1.367 . S
C1091 C1093 1.433 . S
C1092 C1088 1.350 . S
C1092 C1089 1.463 . S
C1092 N1096 1.427 . S
C1093 H1083 0.929 . S
C1093 C1091 1.433 . S
C1093 N1096 1.384 . S
C1094 H1085 0.929 . S
C1094 C1086 1.378 . S
C1094 C1089 1.350 . S
C1095 H1082 0.929 . S
C1095 C1087 1.433 . S
C1095 N1097 1.384 . S
N1096 C1092 1.427 . S
N1096 C1093 1.384 . S
N1097 C1089 1.427 . S
N1097 C1095 1.384 . S
H1098 C1104 0.930 . S
H1099 C1108 0.930 . S
H1100 C1113 0.929 . S
H1101 C1111 0.929 . S
H1102 C1106 0.929 . S
H1103 C1112 0.929 . S
C1104 H1098 0.930 . S
C1104 C1105 1.367 . S
C1104 C1112 1.378 . S
C1105 C1104 1.367 . S
C1105 C1113 1.433 . S
C1106 H1102 0.929 . S
C1106 C1108 1.378 . S
C1106 C1110 1.350 . S
C1107 C1110 1.463 . S
C1107 C1112 1.350 . S
C1107 N1115 1.427 . S
C1108 H1099 0.930 . S
C1108 C1106 1.378 . S
C1108 C1109 1.367 . S
C1109 C1108 1.367 . S
C1109 C1111 1.433 . S
C1110 C1106 1.350 . S
C1110 C1107 1.463 . S
C1110 N1114 1.427 . S
C1111 H1101 0.929 . S
C1111 C1109 1.433 . S
C1111 N1114 1.384 . S
C1112 H1103 0.929 . S
C1112 C1104 1.378 . S
C1112 C1107 1.350 . S
C1113 H1100 0.929 . S
C1113 C1105 1.433 . S
C1113 N1115 1.384 . S
N1114 C1110 1.427 . S
N1114 C1111 1.384 . S
N1115 C1107 1.427 . S
N1115 C1113 1.384 . S
H1116 C1122 0.930 . S
H1117 C1126 0.930 . S
H1118 C1131 0.929 . S
H1119 C1129 0.929 . S
H1120 C1124 0.929 . S
H1121 C1130 0.929 . S
C1122 H1116 0.930 . S
C1122 C1123 1.367 . S
C1122 C1130 1.378 . S
C1123 C1122 1.367 . S
C1123 C1131 1.433 . S
C1124 H1120 0.929 . S
C1124 C1126 1.378 . S
C1124 C1128 1.350 . S
C1125 C1128 1.463 . S
C1125 C1130 1.350 . S
C1125 N1133 1.427 . S
C1126 H1117 0.930 . S
C1126 C1124 1.378 . S
C1126 C1127 1.367 . S
C1127 C1126 1.367 . S
C1127 C1129 1.433 . S
C1128 C1124 1.350 . S
C1128 C1125 1.463 . S
C1128 N1132 1.427 . S
C1129 H1119 0.929 . S
C1129 C1127 1.433 . S
C1129 N1132 1.384 . S
C1130 H1121 0.929 . S
C1130 C1122 1.378 . S
C1130 C1125 1.350 . S
C1131 H1118 0.929 . S
C1131 C1123 1.433 . S
C1131 N1133 1.384 . S
N1132 C1128 1.427 . S
N1132 C1129 1.384 . S
N1133 C1125 1.427 . S
N1133 C1131 1.384 . S
H1134 C1140 0.930 . S
H1135 C1144 0.930 . S
H1136 C1149 0.929 . S
H1137 C1147 0.929 . S
H1138 C1142 0.929 . S
H1139 C1148 0.929 . S
C1140 H1134 0.930 . S
C1140 C1141 1.367 . S
C1140 C1148 1.378 . S
C1141 C1140 1.367 . S
C1141 C1149 1.433 . S
C1142 H1138 0.929 . S
C1142 C1144 1.378 . S
C1142 C1146 1.350 . S
C1143 C1146 1.463 1_565 S
C1143 C1148 1.350 . S
C1143 N1151 1.427 . S
C1144 H1135 0.930 . S
C1144 C1142 1.378 . S
C1144 C1145 1.367 . S
C1145 C1144 1.367 . S
C1145 C1147 1.433 . S
C1146 C1142 1.350 . S
C1146 C1143 1.463 1_545 S
C1146 N1150 1.427 . S
C1147 H1137 0.929 . S
C1147 C1145 1.433 . S
C1147 N1150 1.384 . S
C1148 H1139 0.929 . S
C1148 C1140 1.378 . S
C1148 C1143 1.350 . S
C1149 H1136 0.929 . S
C1149 C1141 1.433 . S
C1149 N1151 1.384 . S
N1150 C1146 1.427 . S
N1150 C1147 1.384 . S
N1151 C1143 1.427 . S
N1151 C1149 1.384 . S
H1152 C1158 0.930 . S
H1153 C1162 0.930 . S
H1154 C1167 0.929 . S
H1155 C1165 0.929 . S
H1156 C1160 0.929 . S
H1157 C1166 0.929 . S
C1158 H1152 0.930 . S
C1158 C1159 1.367 . S
C1158 C1166 1.378 . S
C1159 C1158 1.367 . S
C1159 C1167 1.433 . S
C1160 H1156 0.929 . S
C1160 C1162 1.378 . S
C1160 C1164 1.350 . S
C1161 C1164 1.463 1_655 S
C1161 C1166 1.350 . S
C1161 N1169 1.427 . S
C1162 H1153 0.930 . S
C1162 C1160 1.378 . S
C1162 C1163 1.367 . S
C1163 C1162 1.367 . S
C1163 C1165 1.433 . S
C1164 C1160 1.350 . S
C1164 C1161 1.463 1_455 S
C1164 N1168 1.427 . S
C1165 H1155 0.929 . S
C1165 C1163 1.433 . S
C1165 N1168 1.384 . S
C1166 H1157 0.929 . S
C1166 C1158 1.378 . S
C1166 C1161 1.350 . S
C1167 H1154 0.929 . S
C1167 C1159 1.433 . S
C1167 N1169 1.384 . S
N1168 C1164 1.427 . S
N1168 C1165 1.384 . S
N1169 C1161 1.427 . S
N1169 C1167 1.384 . S
H1170 C1176 0.930 . S
H1171 C1180 0.930 . S
H1172 C1185 0.929 . S
H1173 C1183 0.929 . S
H1174 C1178 0.929 . S
H1175 C1184 0.929 . S
C1176 H1170 0.930 . S
C1176 C1177 1.367 . S
C1176 C1184 1.378 . S
C1177 C1176 1.367 . S
C1177 C1185 1.433 . S
C1178 H1174 0.929 . S
C1178 C1180 1.378 . S
C1178 C1182 1.350 . S
C1179 C1182 1.463 . S
C1179 C1184 1.350 . S
C1179 N1187 1.427 . S
C1180 H1171 0.930 . S
C1180 C1178 1.378 . S
C1180 C1181 1.367 . S
C1181 C1180 1.367 . S
C1181 C1183 1.433 . S
C1182 C1178 1.350 . S
C1182 C1179 1.463 . S
C1182 N1186 1.427 . S
C1183 H1173 0.929 . S
C1183 C1181 1.433 . S
C1183 N1186 1.384 . S
C1184 H1175 0.929 . S
C1184 C1176 1.378 . S
C1184 C1179 1.350 . S
C1185 H1172 0.929 . S
C1185 C1177 1.433 . S
C1185 N1187 1.384 . S
N1186 C1182 1.427 . S
N1186 C1183 1.384 . S
N1187 C1179 1.427 . S
N1187 C1185 1.384 . S
H1188 C1194 0.930 . S
H1189 C1198 0.930 . S
H1190 C1203 0.929 . S
H1191 C1201 0.929 . S
H1192 C1196 0.929 . S
H1193 C1202 0.929 . S
C1194 H1188 0.930 . S
C1194 C1195 1.367 . S
C1194 C1202 1.378 . S
C1195 C1194 1.367 . S
C1195 C1203 1.433 . S
C1196 H1192 0.929 . S
C1196 C1198 1.378 . S
C1196 C1200 1.350 . S
C1197 C1200 1.463 1_545 S
C1197 C1202 1.350 . S
C1197 N1205 1.427 . S
C1198 H1189 0.930 . S
C1198 C1196 1.378 . S
C1198 C1199 1.367 . S
C1199 C1198 1.367 . S
C1199 C1201 1.433 . S
C1200 C1196 1.350 . S
C1200 C1197 1.463 1_565 S
C1200 N1204 1.427 . S
C1201 H1191 0.929 . S
C1201 C1199 1.433 . S
C1201 N1204 1.384 . S
C1202 H1193 0.929 . S
C1202 C1194 1.378 . S
C1202 C1197 1.350 . S
C1203 H1190 0.929 . S
C1203 C1195 1.433 . S
C1203 N1205 1.384 . S
N1204 C1200 1.427 . S
N1204 C1201 1.384 . S
N1205 C1197 1.427 . S
N1205 C1203 1.384 . S
H1206 C1212 0.930 . S
H1207 C1216 0.930 . S
H1208 C1221 0.929 . S
H1209 C1219 0.929 . S
H1210 C1214 0.929 . S
H1211 C1220 0.929 . S
C1212 H1206 0.930 . S
C1212 C1213 1.367 . S
C1212 C1220 1.378 . S
C1213 C1212 1.367 . S
C1213 C1221 1.433 . S
C1214 H1210 0.929 . S
C1214 C1216 1.378 . S
C1214 C1218 1.350 . S
C1215 C1218 1.463 1_655 S
C1215 C1220 1.350 . S
C1215 N1223 1.427 . S
C1216 H1207 0.930 . S
C1216 C1214 1.378 . S
C1216 C1217 1.367 . S
C1217 C1216 1.367 . S
C1217 C1219 1.433 . S
C1218 C1214 1.350 . S
C1218 C1215 1.463 1_455 S
C1218 N1222 1.427 . S
C1219 H1209 0.929 . S
C1219 C1217 1.433 . S
C1219 N1222 1.384 . S
C1220 H1211 0.929 . S
C1220 C1212 1.378 . S
C1220 C1215 1.350 . S
C1221 H1208 0.929 . S
C1221 C1213 1.433 . S
C1221 N1223 1.384 . S
N1222 C1218 1.427 . S
N1222 C1219 1.384 . S
N1223 C1215 1.427 . S
N1223 C1221 1.384 . S
H1224 C1230 0.930 . S
H1225 C1234 0.930 . S
H1226 C1239 0.929 . S
H1227 C1237 0.929 . S
H1228 C1232 0.929 . S
H1229 C1238 0.929 . S
C1230 H1224 0.930 . S
C1230 C1231 1.367 . S
C1230 C1238 1.378 . S
C1231 C1230 1.367 . S
C1231 C1239 1.433 . S
C1232 H1228 0.929 . S
C1232 C1234 1.378 . S
C1232 C1236 1.350 . S
C1233 C1236 1.463 . S
C1233 C1238 1.350 . S
C1233 N1241 1.427 . S
C1234 H1225 0.930 . S
C1234 C1232 1.378 . S
C1234 C1235 1.367 . S
C1235 C1234 1.367 . S
C1235 C1237 1.433 . S
C1236 C1232 1.350 . S
C1236 C1233 1.463 . S
C1236 N1240 1.427 . S
C1237 H1227 0.929 . S
C1237 C1235 1.433 . S
C1237 N1240 1.384 . S
C1238 H1229 0.929 . S
C1238 C1230 1.378 . S
C1238 C1233 1.350 . S
C1239 H1226 0.929 . S
C1239 C1231 1.433 . S
C1239 N1241 1.384 . S
N1240 C1236 1.427 . S
N1240 C1237 1.384 . S
N1241 C1233 1.427 . S
N1241 C1239 1.384 . S
H1242 C1248 0.930 . S
H1243 C1252 0.930 . S
H1244 C1257 0.929 . S
H1245 C1255 0.929 . S
H1246 C1250 0.929 . S
H1247 C1256 0.929 . S
C1248 H1242 0.930 . S
C1248 C1249 1.367 . S
C1248 C1256 1.378 . S
C1249 C1248 1.367 . S
C1249 C1257 1.433 . S
C1250 H1246 0.929 . S
C1250 C1252 1.378 . S
C1250 C1254 1.350 . S
C1251 C1254 1.463 . S
C1251 C1256 1.350 . S
C1251 N1259 1.427 . S
C1252 H1243 0.930 . S
C1252 C1250 1.378 . S
C1252 C1253 1.367 . S
C1253 C1252 1.367 . S
C1253 C1255 1.433 . S
C1254 C1250 1.350 . S
C1254 C1251 1.463 . S
C1254 N1258 1.427 . S
C1255 H1245 0.929 . S
C1255 C1253 1.433 . S
C1255 N1258 1.384 . S
C1256 H1247 0.929 . S
C1256 C1248 1.378 . S
C1256 C1251 1.350 . S
C1257 H1244 0.929 . S
C1257 C1249 1.433 . S
C1257 N1259 1.384 . S
N1258 C1254 1.427 . S
N1258 C1255 1.384 . S
N1259 C1251 1.427 . S
N1259 C1257 1.384 . S
H1260 C1266 0.930 . S
H1261 C1270 0.930 . S
H1262 C1275 0.929 . S
H1263 C1273 0.929 . S
H1264 C1268 0.929 . S
H1265 C1274 0.929 . S
C1266 H1260 0.930 . S
C1266 C1267 1.367 . S
C1266 C1274 1.378 . S
C1267 C1266 1.367 . S
C1267 C1275 1.433 . S
C1268 H1264 0.929 . S
C1268 C1270 1.378 . S
C1268 C1272 1.350 . S
C1269 C1272 1.463 . S
C1269 C1274 1.350 . S
C1269 N1277 1.427 . S
C1270 H1261 0.930 . S
C1270 C1268 1.378 . S
C1270 C1271 1.367 . S
C1271 C1270 1.367 . S
C1271 C1273 1.433 . S
C1272 C1268 1.350 . S
C1272 C1269 1.463 . S
C1272 N1276 1.427 . S
C1273 H1263 0.929 . S
C1273 C1271 1.433 . S
C1273 N1276 1.384 . S
C1274 H1265 0.929 . S
C1274 C1266 1.378 . S
C1274 C1269 1.350 . S
C1275 H1262 0.929 . S
C1275 C1267 1.433 . S
C1275 N1277 1.384 . S
N1276 C1272 1.427 . S
N1276 C1273 1.384 . S
N1277 C1269 1.427 . S
N1277 C1275 1.384 . S
H1278 C1284 0.930 . S
H1279 C1288 0.930 1_556 S
H1280 C1293 0.929 . S
H1281 C1291 0.929 . S
H1282 C1286 0.929 . S
H1283 C1292 0.929 . S
C1284 H1278 0.930 . S
C1284 C1285 1.367 . S
C1284 C1292 1.378 . S
C1285 C1284 1.367 . S
C1285 C1293 1.433 . S
C1286 H1282 0.929 . S
C1286 C1288 1.378 . S
C1286 C1290 1.350 . S
C1287 C1290 1.463 . S
C1287 C1292 1.350 . S
C1287 N1295 1.427 . S
C1288 H1279 0.930 1_554 S
C1288 C1286 1.378 . S
C1288 C1289 1.367 . S
C1289 C1288 1.367 . S
C1289 C1291 1.433 . S
C1290 C1286 1.350 . S
C1290 C1287 1.463 . S
C1290 N1294 1.427 . S
C1291 H1281 0.929 . S
C1291 C1289 1.433 . S
C1291 N1294 1.384 . S
C1292 H1283 0.929 . S
C1292 C1284 1.378 . S
C1292 C1287 1.350 . S
C1293 H1280 0.929 . S
C1293 C1285 1.433 . S
C1293 N1295 1.384 . S
N1294 C1290 1.427 . S
N1294 C1291 1.384 . S
N1295 C1287 1.427 . S
N1295 C1293 1.384 . S
H1296 C1302 0.930 . S
H1297 C1306 0.930 . S
H1298 C1311 0.929 . S
H1299 C1309 0.929 . S
H1300 C1304 0.929 . S
H1301 C1310 0.929 . S
C1302 H1296 0.930 . S
C1302 C1303 1.367 . S
C1302 C1310 1.378 . S
C1303 C1302 1.367 . S
C1303 C1311 1.433 . S
C1304 H1300 0.929 . S
C1304 C1306 1.378 . S
C1304 C1308 1.350 . S
C1305 C1308 1.463 . S
C1305 C1310 1.350 . S
C1305 N1313 1.427 . S
C1306 H1297 0.930 . S
C1306 C1304 1.378 . S
C1306 C1307 1.367 . S
C1307 C1306 1.367 . S
C1307 C1309 1.433 . S
C1308 C1304 1.350 . S
C1308 C1305 1.463 . S
C1308 N1312 1.427 . S
C1309 H1299 0.929 . S
C1309 C1307 1.433 . S
C1309 N1312 1.384 . S
C1310 H1301 0.929 . S
C1310 C1302 1.378 . S
C1310 C1305 1.350 . S
C1311 H1298 0.929 . S
C1311 C1303 1.433 . S
C1311 N1313 1.384 . S
N1312 C1308 1.427 . S
N1312 C1309 1.384 . S
N1313 C1305 1.427 . S
N1313 C1311 1.384 . S
H1314 C1320 0.930 . S
H1315 C1324 0.919 1_556 S
H1316 C1329 0.929 . S
H1317 C1327 0.929 . S
H1318 C1322 0.929 . S
H1319 C1328 0.929 . S
C1320 H1314 0.930 . S
C1320 C1321 1.367 . S
C1320 C1328 1.378 . S
C1321 C1320 1.367 . S
C1321 C1329 1.433 . S
C1322 H1318 0.929 . S
C1322 C1324 1.378 . S
C1322 C1326 1.350 . S
C1323 C1326 1.463 . S
C1323 C1328 1.350 . S
C1323 N1331 1.427 . S
C1324 H1315 0.919 1_554 S
C1324 C1322 1.378 . S
C1324 C1325 1.367 . S
C1325 C1324 1.367 . S
C1325 C1327 1.433 . S
C1326 C1322 1.350 . S
C1326 C1323 1.463 . S
C1326 N1330 1.427 . S
C1327 H1317 0.929 . S
C1327 C1325 1.433 . S
C1327 N1330 1.384 . S
C1328 H1319 0.929 . S
C1328 C1320 1.378 . S
C1328 C1323 1.350 . S
C1329 H1316 0.929 . S
C1329 C1321 1.433 . S
C1329 N1331 1.384 . S
N1330 C1326 1.427 . S
N1330 C1327 1.384 . S
N1331 C1323 1.427 . S
N1331 C1329 1.384 . S
H1332 C1338 0.930 1_554 S
H1333 C1342 0.930 . S
H1334 C1347 0.929 . S
H1335 C1345 0.929 . S
H1336 C1340 0.929 . S
H1337 C1346 0.929 . S
C1338 H1332 0.930 1_556 S
C1338 C1339 1.367 . S
C1338 C1346 1.378 . S
C1339 C1338 1.367 . S
C1339 C1347 1.433 . S
C1340 H1336 0.929 . S
C1340 C1342 1.378 . S
C1340 C1344 1.350 . S
C1341 C1344 1.463 . S
C1341 C1346 1.350 . S
C1341 N1349 1.427 . S
C1342 H1333 0.930 . S
C1342 C1340 1.378 . S
C1342 C1343 1.367 . S
C1343 C1342 1.367 . S
C1343 C1345 1.433 . S
C1344 C1340 1.350 . S
C1344 C1341 1.463 . S
C1344 N1348 1.427 . S
C1345 H1335 0.929 . S
C1345 C1343 1.433 . S
C1345 N1348 1.384 . S
C1346 H1337 0.929 . S
C1346 C1338 1.378 . S
C1346 C1341 1.350 . S
C1347 H1334 0.929 . S
C1347 C1339 1.433 . S
C1347 N1349 1.384 . S
N1348 C1344 1.427 . S
N1348 C1345 1.384 . S
N1349 C1341 1.427 . S
N1349 C1347 1.384 . S
H1350 C1356 0.930 . S
H1351 C1360 0.930 . S
H1352 C1365 0.929 . S
H1353 C1363 0.929 . S
H1354 C1358 0.929 . S
H1355 C1364 0.929 . S
C1356 H1350 0.930 . S
C1356 C1357 1.367 . S
C1356 C1364 1.378 . S
C1357 C1356 1.367 . S
C1357 C1365 1.433 . S
C1358 H1354 0.929 . S
C1358 C1360 1.378 . S
C1358 C1362 1.350 . S
C1359 C1362 1.463 . S
C1359 C1364 1.350 . S
C1359 N1367 1.427 . S
C1360 H1351 0.930 . S
C1360 C1358 1.378 . S
C1360 C1361 1.367 . S
C1361 C1360 1.367 . S
C1361 C1363 1.433 . S
C1362 C1358 1.350 . S
C1362 C1359 1.463 . S
C1362 N1366 1.427 . S
C1363 H1353 0.929 . S
C1363 C1361 1.433 . S
C1363 N1366 1.384 . S
C1364 H1355 0.929 . S
C1364 C1356 1.378 . S
C1364 C1359 1.350 . S
C1365 H1352 0.929 . S
C1365 C1357 1.433 . S
C1365 N1367 1.384 . S
N1366 C1362 1.427 . S
N1366 C1363 1.384 . S
N1367 C1359 1.427 . S
N1367 C1365 1.384 . S
H1368 C1374 0.930 . S
H1369 C1378 0.930 . S
H1370 C1383 0.929 . S
H1371 C1381 0.929 . S
H1372 C1376 0.929 . S
H1373 C1382 0.929 . S
C1374 H1368 0.930 . S
C1374 C1375 1.367 . S
C1374 C1382 1.378 . S
C1375 C1374 1.367 . S
C1375 C1383 1.433 . S
C1376 H1372 0.929 . S
C1376 C1378 1.378 . S
C1376 C1380 1.350 . S
C1377 C1380 1.463 . S
C1377 C1382 1.350 . S
C1377 N1385 1.427 . S
C1378 H1369 0.930 . S
C1378 C1376 1.378 . S
C1378 C1379 1.367 . S
C1379 C1378 1.367 . S
C1379 C1381 1.433 . S
C1380 C1376 1.350 . S
C1380 C1377 1.463 . S
C1380 N1384 1.427 . S
C1381 H1371 0.929 . S
C1381 C1379 1.433 . S
C1381 N1384 1.384 . S
C1382 H1373 0.929 . S
C1382 C1374 1.378 . S
C1382 C1377 1.350 . S
C1383 H1370 0.929 . S
C1383 C1375 1.433 . S
C1383 N1385 1.384 . S
N1384 C1380 1.427 . S
N1384 C1381 1.384 . S
N1385 C1377 1.427 . S
N1385 C1383 1.384 . S
H1386 C1392 0.930 . S
H1387 C1396 0.930 . S
H1388 C1401 0.929 . S
H1389 C1399 0.929 . S
H1390 C1394 0.929 . S
H1391 C1400 0.929 . S
C1392 H1386 0.930 . S
C1392 C1393 1.367 . S
C1392 C1400 1.378 . S
C1393 C1392 1.367 . S
C1393 C1401 1.433 . S
C1394 H1390 0.929 . S
C1394 C1396 1.378 . S
C1394 C1398 1.350 . S
C1395 C1398 1.463 . S
C1395 C1400 1.350 . S
C1395 N1403 1.427 . S
C1396 H1387 0.930 . S
C1396 C1394 1.378 . S
C1396 C1397 1.367 . S
C1397 C1396 1.367 . S
C1397 C1399 1.433 . S
C1398 C1394 1.350 . S
C1398 C1395 1.463 . S
C1398 N1402 1.427 . S
C1399 H1389 0.929 . S
C1399 C1397 1.433 . S
C1399 N1402 1.384 . S
C1400 H1391 0.929 . S
C1400 C1392 1.378 . S
C1400 C1395 1.350 . S
C1401 H1388 0.929 . S
C1401 C1393 1.433 . S
C1401 N1403 1.384 . S
N1402 C1398 1.427 . S
N1402 C1399 1.384 . S
N1403 C1395 1.427 . S
N1403 C1401 1.384 . S
H1404 C1410 0.930 . S
H1405 C1414 0.930 . S
H1406 C1419 0.929 . S
H1407 C1417 0.929 . S
H1408 C1412 0.929 . S
H1409 C1418 0.929 . S
C1410 H1404 0.930 . S
C1410 C1411 1.367 . S
C1410 C1418 1.378 . S
C1411 C1410 1.367 . S
C1411 C1419 1.433 . S
C1412 H1408 0.929 . S
C1412 C1414 1.378 . S
C1412 C1416 1.350 . S
C1413 C1416 1.463 . S
C1413 C1418 1.350 . S
C1413 N1421 1.427 . S
C1414 H1405 0.930 . S
C1414 C1412 1.378 . S
C1414 C1415 1.367 . S
C1415 C1414 1.367 . S
C1415 C1417 1.433 . S
C1416 C1412 1.350 . S
C1416 C1413 1.463 . S
C1416 N1420 1.427 . S
C1417 H1407 0.929 . S
C1417 C1415 1.433 . S
C1417 N1420 1.384 . S
C1418 H1409 0.929 . S
C1418 C1410 1.378 . S
C1418 C1413 1.350 . S
C1419 H1406 0.929 . S
C1419 C1411 1.433 . S
C1419 N1421 1.384 . S
N1420 C1416 1.427 . S
N1420 C1417 1.384 . S
N1421 C1413 1.427 . S
N1421 C1419 1.384 . S
H1422 C1428 0.930 . S
H1423 C1432 0.930 . S
H1424 C1437 0.929 . S
H1425 C1435 0.929 . S
H1426 C1430 0.929 . S
H1427 C1436 0.929 . S
C1428 H1422 0.930 . S
C1428 C1429 1.367 . S
C1428 C1436 1.378 . S
C1429 C1428 1.367 . S
C1429 C1437 1.433 . S
C1430 H1426 0.929 . S
C1430 C1432 1.378 . S
C1430 C1434 1.350 . S
C1431 C1434 1.463 . S
C1431 C1436 1.350 . S
C1431 N1439 1.427 . S
C1432 H1423 0.930 . S
C1432 C1430 1.378 . S
C1432 C1433 1.367 . S
C1433 C1432 1.367 . S
C1433 C1435 1.433 . S
C1434 C1430 1.350 . S
C1434 C1431 1.463 . S
C1434 N1438 1.427 . S
C1435 H1425 0.929 . S
C1435 C1433 1.433 . S
C1435 N1438 1.384 . S
C1436 H1427 0.929 . S
C1436 C1428 1.378 . S
C1436 C1431 1.350 . S
C1437 H1424 0.929 . S
C1437 C1429 1.433 . S
C1437 N1439 1.384 . S
N1438 C1434 1.427 . S
N1438 C1435 1.384 . S
N1439 C1431 1.427 . S
N1439 C1437 1.384 . S
H1440 C1446 0.930 . S
H1441 C1450 0.930 . S
H1442 C1455 0.929 . S
H1443 C1453 0.929 . S
H1444 C1448 0.929 . S
H1445 C1454 0.929 . S
C1446 H1440 0.930 . S
C1446 C1447 1.367 . S
C1446 C1454 1.378 . S
C1447 C1446 1.367 . S
C1447 C1455 1.433 . S
C1448 H1444 0.929 . S
C1448 C1450 1.378 . S
C1448 C1452 1.350 . S
C1449 C1452 1.463 . S
C1449 C1454 1.350 . S
C1449 N1457 1.427 . S
C1450 H1441 0.930 . S
C1450 C1448 1.378 . S
C1450 C1451 1.367 . S
C1451 C1450 1.367 . S
C1451 C1453 1.433 . S
C1452 C1448 1.350 . S
C1452 C1449 1.463 . S
C1452 N1456 1.427 . S
C1453 H1443 0.929 . S
C1453 C1451 1.433 . S
C1453 N1456 1.384 . S
C1454 H1445 0.929 . S
C1454 C1446 1.378 . S
C1454 C1449 1.350 . S
C1455 H1442 0.929 . S
C1455 C1447 1.433 . S
C1455 N1457 1.384 . S
N1456 C1452 1.427 . S
N1456 C1453 1.384 . S
N1457 C1449 1.427 . S
N1457 C1455 1.384 . S
H1458 C1464 0.930 . S
H1459 C1468 0.930 . S
H1460 C1473 0.929 . S
H1461 C1471 0.929 . S
H1462 C1466 0.929 . S
H1463 C1472 0.929 . S
C1464 H1458 0.930 . S
C1464 C1465 1.367 . S
C1464 C1472 1.378 . S
C1465 C1464 1.367 . S
C1465 C1473 1.433 . S
C1466 H1462 0.929 . S
C1466 C1468 1.378 . S
C1466 C1470 1.350 . S
C1467 C1470 1.463 . S
C1467 C1472 1.350 . S
C1467 N1475 1.427 . S
C1468 H1459 0.930 . S
C1468 C1466 1.378 . S
C1468 C1469 1.367 . S
C1469 C1468 1.367 . S
C1469 C1471 1.433 . S
C1470 C1466 1.350 . S
C1470 C1467 1.463 . S
C1470 N1474 1.427 . S
C1471 H1461 0.929 . S
C1471 C1469 1.433 . S
C1471 N1474 1.384 . S
C1472 H1463 0.929 . S
C1472 C1464 1.378 . S
C1472 C1467 1.350 . S
C1473 H1460 0.929 . S
C1473 C1465 1.433 . S
C1473 N1475 1.384 . S
N1474 C1470 1.427 . S
N1474 C1471 1.384 . S
N1475 C1467 1.427 . S
N1475 C1473 1.384 . S
H1476 C1482 0.930 . S
H1477 C1486 0.930 . S
H1478 C1491 0.929 . S
H1479 C1489 0.929 . S
H1480 C1484 0.929 . S
H1481 C1490 0.929 . S
C1482 H1476 0.930 . S
C1482 C1483 1.367 . S
C1482 C1490 1.378 . S
C1483 C1482 1.367 . S
C1483 C1491 1.433 . S
C1484 H1480 0.929 . S
C1484 C1486 1.378 . S
C1484 C1488 1.350 . S
C1485 C1488 1.463 . S
C1485 C1490 1.350 . S
C1485 N1493 1.427 . S
C1486 H1477 0.930 . S
C1486 C1484 1.378 . S
C1486 C1487 1.367 . S
C1487 C1486 1.367 . S
C1487 C1489 1.433 . S
C1488 C1484 1.350 . S
C1488 C1485 1.463 . S
C1488 N1492 1.427 . S
C1489 H1479 0.929 . S
C1489 C1487 1.433 . S
C1489 N1492 1.384 . S
C1490 H1481 0.929 . S
C1490 C1482 1.378 . S
C1490 C1485 1.350 . S
C1491 H1478 0.929 . S
C1491 C1483 1.433 . S
C1491 N1493 1.384 . S
N1492 C1488 1.427 . S
N1492 C1489 1.384 . S
N1493 C1485 1.427 . S
N1493 C1491 1.384 . S
H1494 C1500 0.930 . S
H1495 C1504 0.930 . S
H1496 C1509 0.929 . S
H1497 C1507 0.929 . S
H1498 C1502 0.929 . S
H1499 C1508 0.929 . S
C1500 H1494 0.930 . S
C1500 C1501 1.367 . S
C1500 C1508 1.378 . S
C1501 C1500 1.367 . S
C1501 C1509 1.433 . S
C1502 H1498 0.929 . S
C1502 C1504 1.378 . S
C1502 C1506 1.350 . S
C1503 C1506 1.463 . S
C1503 C1508 1.350 . S
C1503 N1511 1.427 . S
C1504 H1495 0.930 . S
C1504 C1502 1.378 . S
C1504 C1505 1.367 . S
C1505 C1504 1.367 . S
C1505 C1507 1.433 . S
C1506 C1502 1.350 . S
C1506 C1503 1.463 . S
C1506 N1510 1.427 . S
C1507 H1497 0.929 . S
C1507 C1505 1.433 . S
C1507 N1510 1.384 . S
C1508 H1499 0.929 . S
C1508 C1500 1.378 . S
C1508 C1503 1.350 . S
C1509 H1496 0.929 . S
C1509 C1501 1.433 . S
C1509 N1511 1.384 . S
N1510 C1506 1.427 . S
N1510 C1507 1.384 . S
N1511 C1503 1.427 . S
N1511 C1509 1.384 . S
H1512 C1518 0.930 . S
H1513 C1522 0.930 . S
H1514 C1527 0.929 . S
H1515 C1525 0.929 . S
H1516 C1520 0.929 . S
H1517 C1526 0.929 . S
C1518 H1512 0.930 . S
C1518 C1519 1.367 . S
C1518 C1526 1.378 . S
C1519 C1518 1.367 . S
C1519 C1527 1.433 . S
C1520 H1516 0.929 . S
C1520 C1522 1.378 . S
C1520 C1524 1.350 . S
C1521 C1524 1.463 . S
C1521 C1526 1.350 . S
C1521 N1529 1.427 . S
C1522 H1513 0.930 . S
C1522 C1520 1.378 . S
C1522 C1523 1.367 . S
C1523 C1522 1.367 . S
C1523 C1525 1.433 . S
C1524 C1520 1.350 . S
C1524 C1521 1.463 . S
C1524 N1528 1.427 . S
C1525 H1515 0.929 . S
C1525 C1523 1.433 . S
C1525 N1528 1.384 . S
C1526 H1517 0.929 . S
C1526 C1518 1.378 . S
C1526 C1521 1.350 . S
C1527 H1514 0.929 . S
C1527 C1519 1.433 . S
C1527 N1529 1.384 . S
N1528 C1524 1.427 . S
N1528 C1525 1.384 . S
N1529 C1521 1.427 . S
N1529 C1527 1.384 . S
H1530 C1536 0.930 . S
H1531 C1540 0.930 . S
H1532 C1545 0.929 . S
H1533 C1543 0.929 . S
H1534 C1538 0.929 . S
H1535 C1544 0.929 . S
C1536 H1530 0.930 . S
C1536 C1537 1.367 . S
C1536 C1544 1.378 . S
C1537 C1536 1.367 . S
C1537 C1545 1.433 . S
C1538 H1534 0.929 . S
C1538 C1540 1.378 . S
C1538 C1542 1.350 . S
C1539 C1542 1.463 . S
C1539 C1544 1.350 . S
C1539 N1547 1.427 . S
C1540 H1531 0.930 . S
C1540 C1538 1.378 . S
C1540 C1541 1.367 . S
C1541 C1540 1.367 . S
C1541 C1543 1.433 . S
C1542 C1538 1.350 . S
C1542 C1539 1.463 . S
C1542 N1546 1.427 . S
C1543 H1533 0.929 . S
C1543 C1541 1.433 . S
C1543 N1546 1.384 . S
C1544 H1535 0.929 . S
C1544 C1536 1.378 . S
C1544 C1539 1.350 . S
C1545 H1532 0.929 . S
C1545 C1537 1.433 . S
C1545 N1547 1.384 . S
N1546 C1542 1.427 . S
N1546 C1543 1.384 . S
N1547 C1539 1.427 . S
N1547 C1545 1.384 . S
H1548 C1554 0.930 . S
H1549 C1558 0.930 . S
H1550 C1563 0.929 . S
H1551 C1561 0.929 . S
H1552 C1556 0.929 . S
H1553 C1562 0.929 . S
C1554 H1548 0.930 . S
C1554 C1555 1.367 . S
C1554 C1562 1.378 . S
C1555 C1554 1.367 . S
C1555 C1563 1.433 . S
C1556 H1552 0.929 . S
C1556 C1558 1.378 . S
C1556 C1560 1.350 . S
C1557 C1560 1.463 . S
C1557 C1562 1.350 . S
C1557 N1565 1.427 . S
C1558 H1549 0.930 . S
C1558 C1556 1.378 . S
C1558 C1559 1.367 . S
C1559 C1558 1.367 . S
C1559 C1561 1.433 . S
C1560 C1556 1.350 . S
C1560 C1557 1.463 . S
C1560 N1564 1.427 . S
C1561 H1551 0.929 . S
C1561 C1559 1.433 . S
C1561 N1564 1.384 . S
C1562 H1553 0.929 . S
C1562 C1554 1.378 . S
C1562 C1557 1.350 . S
C1563 H1550 0.929 . S
C1563 C1555 1.433 . S
C1563 N1565 1.384 . S
N1564 C1560 1.427 . S
N1564 C1561 1.384 . S
N1565 C1557 1.427 . S
N1565 C1563 1.384 . S
H1566 C1572 0.930 . S
H1567 C1576 0.930 . S
H1568 C1581 0.929 . S
H1569 C1579 0.929 . S
H1570 C1574 0.929 . S
H1571 C1580 0.929 . S
C1572 H1566 0.930 . S
C1572 C1573 1.367 . S
C1572 C1580 1.378 . S
C1573 C1572 1.367 . S
C1573 C1581 1.433 . S
C1574 H1570 0.929 . S
C1574 C1576 1.378 . S
C1574 C1578 1.350 . S
C1575 C1578 1.463 . S
C1575 C1580 1.350 . S
C1575 N1583 1.427 . S
C1576 H1567 0.930 . S
C1576 C1574 1.378 . S
C1576 C1577 1.367 . S
C1577 C1576 1.367 . S
C1577 C1579 1.433 . S
C1578 C1574 1.350 . S
C1578 C1575 1.463 . S
C1578 N1582 1.427 . S
C1579 H1569 0.929 . S
C1579 C1577 1.433 . S
C1579 N1582 1.384 . S
C1580 H1571 0.929 . S
C1580 C1572 1.378 . S
C1580 C1575 1.350 . S
C1581 H1568 0.929 . S
C1581 C1573 1.433 . S
C1581 N1583 1.384 . S
N1582 C1578 1.427 . S
N1582 C1579 1.384 . S
N1583 C1575 1.427 . S
N1583 C1581 1.384 . S
H1584 C1590 0.930 . S
H1585 C1594 0.930 . S
H1586 C1599 0.929 . S
H1587 C1597 0.929 . S
H1588 C1592 0.929 . S
H1589 C1598 0.929 . S
C1590 H1584 0.930 . S
C1590 C1591 1.367 . S
C1590 C1598 1.378 . S
C1591 C1590 1.367 . S
C1591 C1599 1.433 . S
C1592 H1588 0.929 . S
C1592 C1594 1.378 . S
C1592 C1596 1.350 . S
C1593 C1596 1.463 . S
C1593 C1598 1.350 . S
C1593 N1601 1.427 . S
C1594 H1585 0.930 . S
C1594 C1592 1.378 . S
C1594 C1595 1.367 . S
C1595 C1594 1.367 . S
C1595 C1597 1.433 . S
C1596 C1592 1.350 . S
C1596 C1593 1.463 . S
C1596 N1600 1.427 . S
C1597 H1587 0.929 . S
C1597 C1595 1.433 . S
C1597 N1600 1.384 . S
C1598 H1589 0.929 . S
C1598 C1590 1.378 . S
C1598 C1593 1.350 . S
C1599 H1586 0.929 . S
C1599 C1591 1.433 . S
C1599 N1601 1.384 . S
N1600 C1596 1.427 . S
N1600 C1597 1.384 . S
N1601 C1593 1.427 . S
N1601 C1599 1.384 . S
H1602 C1608 0.930 . S
H1603 C1612 0.930 . S
H1604 C1617 0.929 . S
H1605 C1615 0.929 . S
H1606 C1610 0.929 . S
H1607 C1616 0.929 . S
C1608 H1602 0.930 . S
C1608 C1609 1.367 . S
C1608 C1616 1.378 . S
C1609 C1608 1.367 . S
C1609 C1617 1.433 . S
C1610 H1606 0.929 . S
C1610 C1612 1.378 . S
C1610 C1614 1.350 . S
C1611 C1614 1.463 . S
C1611 C1616 1.350 . S
C1611 N1619 1.427 . S
C1612 H1603 0.930 . S
C1612 C1610 1.378 . S
C1612 C1613 1.367 . S
C1613 C1612 1.367 . S
C1613 C1615 1.433 . S
C1614 C1610 1.350 . S
C1614 C1611 1.463 . S
C1614 N1618 1.427 . S
C1615 H1605 0.929 . S
C1615 C1613 1.433 . S
C1615 N1618 1.384 . S
C1616 H1607 0.929 . S
C1616 C1608 1.378 . S
C1616 C1611 1.350 . S
C1617 H1604 0.929 . S
C1617 C1609 1.433 . S
C1617 N1619 1.384 . S
N1618 C1614 1.427 . S
N1618 C1615 1.384 . S
N1619 C1611 1.427 . S
N1619 C1617 1.384 . S
H1620 C1626 0.930 . S
H1621 C1630 0.930 . S
H1622 C1635 0.929 . S
H1623 C1633 0.929 . S
H1624 C1628 0.929 . S
H1625 C1634 0.929 . S
C1626 H1620 0.930 . S
C1626 C1627 1.367 . S
C1626 C1634 1.378 . S
C1627 C1626 1.367 . S
C1627 C1635 1.433 . S
C1628 H1624 0.929 . S
C1628 C1630 1.378 . S
C1628 C1632 1.350 . S
C1629 C1632 1.463 . S
C1629 C1634 1.350 . S
C1629 N1637 1.427 . S
C1630 H1621 0.930 . S
C1630 C1628 1.378 . S
C1630 C1631 1.367 . S
C1631 C1630 1.367 . S
C1631 C1633 1.433 . S
C1632 C1628 1.350 . S
C1632 C1629 1.463 . S
C1632 N1636 1.427 . S
C1633 H1623 0.929 . S
C1633 C1631 1.433 . S
C1633 N1636 1.384 . S
C1634 H1625 0.929 . S
C1634 C1626 1.378 . S
C1634 C1629 1.350 . S
C1635 H1622 0.929 . S
C1635 C1627 1.433 . S
C1635 N1637 1.384 . S
N1636 C1632 1.427 . S
N1636 C1633 1.384 . S
N1637 C1629 1.427 . S
N1637 C1635 1.384 . S
H1638 C1644 0.930 . S
H1639 C1648 0.930 . S
H1640 C1653 0.929 . S
H1641 C1651 0.929 . S
H1642 C1646 0.929 . S
H1643 C1652 0.929 . S
C1644 H1638 0.930 . S
C1644 C1645 1.367 . S
C1644 C1652 1.378 . S
C1645 C1644 1.367 . S
C1645 C1653 1.433 . S
C1646 H1642 0.929 . S
C1646 C1648 1.378 . S
C1646 C1650 1.350 . S
C1647 C1650 1.463 . S
C1647 C1652 1.350 . S
C1647 N1655 1.427 . S
C1648 H1639 0.930 . S
C1648 C1646 1.378 . S
C1648 C1649 1.367 . S
C1649 C1648 1.367 . S
C1649 C1651 1.433 . S
C1650 C1646 1.350 . S
C1650 C1647 1.463 . S
C1650 N1654 1.427 . S
C1651 H1641 0.929 . S
C1651 C1649 1.433 . S
C1651 N1654 1.384 . S
C1652 H1643 0.929 . S
C1652 C1644 1.378 . S
C1652 C1647 1.350 . S
C1653 H1640 0.929 . S
C1653 C1645 1.433 . S
C1653 N1655 1.384 . S
N1654 C1650 1.427 . S
N1654 C1651 1.384 . S
N1655 C1647 1.427 . S
N1655 C1653 1.384 . S
H1656 C1662 0.930 . S
H1657 C1666 0.930 . S
H1658 C1671 0.929 . S
H1659 C1669 0.929 . S
H1660 C1664 0.929 . S
H1661 C1670 0.929 . S
C1662 H1656 0.930 . S
C1662 C1663 1.367 . S
C1662 C1670 1.378 . S
C1663 C1662 1.367 . S
C1663 C1671 1.433 . S
C1664 H1660 0.929 . S
C1664 C1666 1.378 . S
C1664 C1668 1.350 . S
C1665 C1668 1.463 1_455 S
C1665 C1670 1.350 . S
C1665 N1673 1.427 . S
C1666 H1657 0.930 . S
C1666 C1664 1.378 . S
C1666 C1667 1.367 . S
C1667 C1666 1.367 . S
C1667 C1669 1.433 . S
C1668 C1664 1.350 . S
C1668 C1665 1.463 1_655 S
C1668 N1672 1.427 . S
C1669 H1659 0.929 . S
C1669 C1667 1.433 . S
C1669 N1672 1.384 . S
C1670 H1661 0.929 . S
C1670 C1662 1.378 . S
C1670 C1665 1.350 . S
C1671 H1658 0.929 . S
C1671 C1663 1.433 . S
C1671 N1673 1.384 . S
N1672 C1668 1.427 . S
N1672 C1669 1.384 . S
N1673 C1665 1.427 . S
N1673 C1671 1.384 . S
H1674 C1680 0.930 . S
H1675 C1684 0.930 . S
H1676 C1689 0.929 . S
H1677 C1687 0.929 . S
H1678 C1682 0.929 . S
H1679 C1688 0.929 . S
C1680 H1674 0.930 . S
C1680 C1681 1.367 . S
C1680 C1688 1.378 . S
C1681 C1680 1.367 . S
C1681 C1689 1.433 . S
C1682 H1678 0.929 . S
C1682 C1684 1.378 . S
C1682 C1686 1.350 . S
C1683 C1686 1.463 . S
C1683 C1688 1.350 . S
C1683 N1691 1.427 . S
C1684 H1675 0.930 . S
C1684 C1682 1.378 . S
C1684 C1685 1.367 . S
C1685 C1684 1.367 . S
C1685 C1687 1.433 . S
C1686 C1682 1.350 . S
C1686 C1683 1.463 . S
C1686 N1690 1.427 . S
C1687 H1677 0.929 . S
C1687 C1685 1.433 . S
C1687 N1690 1.384 . S
C1688 H1679 0.929 . S
C1688 C1680 1.378 . S
C1688 C1683 1.350 . S
C1689 H1676 0.929 . S
C1689 C1681 1.433 . S
C1689 N1691 1.384 . S
N1690 C1686 1.427 . S
N1690 C1687 1.384 . S
N1691 C1683 1.427 . S
N1691 C1689 1.384 . S
H1692 C1698 0.930 . S
H1693 C1702 0.930 . S
H1694 C1707 0.929 . S
H1695 C1705 0.929 . S
H1696 C1700 0.929 . S
H1697 C1706 0.929 . S
C1698 H1692 0.930 . S
C1698 C1699 1.367 . S
C1698 C1706 1.378 . S
C1699 C1698 1.367 . S
C1699 C1707 1.433 . S
C1700 H1696 0.929 . S
C1700 C1702 1.378 . S
C1700 C1704 1.350 . S
C1701 C1704 1.463 1_545 S
C1701 C1706 1.350 . S
C1701 N1709 1.427 . S
C1702 H1693 0.930 . S
C1702 C1700 1.378 . S
C1702 C1703 1.367 . S
C1703 C1702 1.367 . S
C1703 C1705 1.433 . S
C1704 C1700 1.350 . S
C1704 C1701 1.463 1_565 S
C1704 N1708 1.427 . S
C1705 H1695 0.929 . S
C1705 C1703 1.433 . S
C1705 N1708 1.384 . S
C1706 H1697 0.929 . S
C1706 C1698 1.378 . S
C1706 C1701 1.350 . S
C1707 H1694 0.929 . S
C1707 C1699 1.433 . S
C1707 N1709 1.384 . S
N1708 C1704 1.427 . S
N1708 C1705 1.384 . S
N1709 C1701 1.427 . S
N1709 C1707 1.384 . S
H1710 C1716 0.930 . S
H1711 C1720 0.930 . S
H1712 C1725 0.929 . S
H1713 C1723 0.929 . S
H1714 C1718 0.929 . S
H1715 C1724 0.929 . S
C1716 H1710 0.930 . S
C1716 C1717 1.367 1_556 S
C1716 C1724 1.378 . S
C1717 C1716 1.367 1_554 S
C1717 C1725 1.433 . S
C1718 H1714 0.929 . S
C1718 C1720 1.378 . S
C1718 C1722 1.350 1_554 S
C1719 C1722 1.463 1_544 S
C1719 C1724 1.350 1_554 S
C1719 N1727 1.427 . S
C1720 H1711 0.930 . S
C1720 C1718 1.378 . S
C1720 C1721 1.367 1_554 S
C1721 C1720 1.367 1_556 S
C1721 C1723 1.433 . S
C1722 C1718 1.350 1_556 S
C1722 C1719 1.463 1_566 S
C1722 N1726 1.427 . S
C1723 H1713 0.929 . S
C1723 C1721 1.433 . S
C1723 N1726 1.384 . S
C1724 H1715 0.929 . S
C1724 C1716 1.378 . S
C1724 C1719 1.350 1_556 S
C1725 H1712 0.929 . S
C1725 C1717 1.433 . S
C1725 N1727 1.384 . S
N1726 C1722 1.427 . S
N1726 C1723 1.384 . S
N1727 C1719 1.427 . S
N1727 C1725 1.384 . S
H1728 C1734 0.930 . S
H1729 C1738 0.930 . S
H1730 C1743 0.929 . S
H1731 C1741 0.929 . S
H1732 C1736 0.929 . S
H1733 C1742 0.929 . S
C1734 H1728 0.930 . S
C1734 C1735 1.367 . S
C1734 C1742 1.378 . S
C1735 C1734 1.367 . S
C1735 C1743 1.433 . S
C1736 H1732 0.929 . S
C1736 C1738 1.378 . S
C1736 C1740 1.350 . S
C1737 C1740 1.463 1_654 S
C1737 C1742 1.350 . S
C1737 N1745 1.428 . S
C1738 H1729 0.930 . S
C1738 C1736 1.378 . S
C1738 C1739 1.367 . S
C1739 C1738 1.367 . S
C1739 C1741 1.433 . S
C1740 C1736 1.350 . S
C1740 C1737 1.463 1_456 S
C1740 N1744 1.428 . S
C1741 H1731 0.929 . S
C1741 C1739 1.433 . S
C1741 N1744 1.384 . S
C1742 H1733 0.929 . S
C1742 C1734 1.378 . S
C1742 C1737 1.350 . S
C1743 H1730 0.929 . S
C1743 C1735 1.433 . S
C1743 N1745 1.384 . S
N1744 C1740 1.428 . S
N1744 C1741 1.384 . S
N1745 C1737 1.428 . S
N1745 C1743 1.384 . S
H1746 C1752 0.930 . S
H1747 C1756 0.930 . S
H1748 C1761 0.929 . S
H1749 C1759 0.929 . S
H1750 C1754 0.929 . S
H1751 C1760 0.929 . S
C1752 H1746 0.930 . S
C1752 C1753 1.367 . S
C1752 C1760 1.378 . S
C1753 C1752 1.367 . S
C1753 C1761 1.433 1_554 S
C1754 H1750 0.929 . S
C1754 C1756 1.378 . S
C1754 C1758 1.350 . S
C1755 C1758 1.463 1_554 S
C1755 C1760 1.350 . S
C1755 N1763 1.427 1_554 S
C1756 H1747 0.930 . S
C1756 C1754 1.378 . S
C1756 C1757 1.367 . S
C1757 C1756 1.367 . S
C1757 C1759 1.433 1_556 S
C1758 C1754 1.350 . S
C1758 C1755 1.463 1_556 S
C1758 N1762 1.427 1_556 S
C1759 H1749 0.929 . S
C1759 C1757 1.433 1_554 S
C1759 N1762 1.384 . S
C1760 H1751 0.929 . S
C1760 C1752 1.378 . S
C1760 C1755 1.350 . S
C1761 H1748 0.929 . S
C1761 C1753 1.433 1_556 S
C1761 N1763 1.384 . S
N1762 C1758 1.427 1_554 S
N1762 C1759 1.384 . S
N1763 C1755 1.427 1_556 S
N1763 C1761 1.384 . S
C475 C134 1.361 . S
C479 C5 1.354 . S
C493 C147 1.359 . S
C497 C18 1.349 . S
C511 C29 1.352 . S
C515 C121 1.351 . S
C529 C44 1.355 . S
C533 C108 1.361 . S
C547 C57 1.359 . S
C551 C82 1.357 . S
C565 C101 1.352 . S
C569 C68 1.349 . S
C583 C56 1.356 . S
C587 C83 1.348 . S
C601 C75 1.352 . S
C605 C94 1.349 . S
C619 C109 1.359 . S
C623 C43 1.357 . S
C637 C36 1.351 . S
C641 C122 1.352 . S
C655 C135 1.355 . S
C659 C4 1.362 . S
C673 C148 1.349 . S
C677 C17 1.352 . S
C691 C296 1.361 . S
C695 C161 1.357 . S
C709 C303 1.352 . S
C713 C174 1.349 . S
C727 C187 1.348 . S
C731 C277 1.356 . S
C745 C200 1.357 . S
C749 C264 1.353 1_556 S
C763 C213 1.349 . S
C767 C238 1.353 1_556 S
C781 C226 1.358 . S
C785 C251 1.360 1_556 S
C799 C212 1.358 . S
C803 C239 1.349 . S
C817 C225 1.361 . S
C821 C252 1.357 . S
C835 C199 1.352 . S
C839 C265 1.350 . S
C853 C186 1.362 . S
C857 C278 1.355 . S
C871 C160 1.360 . S
C875 C289 1.359 . S
C889 C173 1.356 . S
C893 C304 1.359 . S
C907 C315 1.359 . S
C911 C452 1.356 . S
C925 C459 1.356 . S
C929 C328 1.359 . S
C943 C433 1.357 . S
C947 C341 1.359 . S
C961 C356 1.354 . S
C965 C426 1.351 . S
C979 C367 1.357 . S
C983 C400 1.361 . S
C997 C382 1.349 . S
C1001 C413 1.358 . S
C1015 C374 1.354 . S
C1019 C393 1.357 . S
C1033 C381 1.353 . S
C1037 C406 1.348 . S
C1051 C355 1.353 . S
C1055 C419 1.348 . S
C1069 C434 1.350 . S
C1073 C348 1.360 1_554 S
C1087 C322 1.361 1_554 S
C1091 C445 1.357 . S
C1105 C460 1.348 . S
C1109 C335 1.353 1_554 S
C1123 C49 1.569 . S
C1127 C10 1.567 . S
C1141 C62 1.567 . S
C1145 C23 1.568 . S
C1159 C30 1.567 . S
C1163 C69 1.568 . S
C1177 C127 1.567 . S
C1181 C88 1.568 . S
C1195 C140 1.568 . S
C1199 C95 1.567 . S
C1213 C153 1.568 . S
C1217 C114 1.567 . S
C1231 C205 1.568 . S
C1235 C166 1.569 . S
C1249 C218 1.569 . S
C1253 C179 1.568 . S
C1267 C192 1.569 . S
C1271 C231 1.567 . S
C1285 C244 1.568 . S
C1289 C283 1.568 . S
C1303 C290 1.568 . S
C1307 C257 1.569 . S
C1321 C270 1.568 . S
C1325 C309 1.568 . S
C1339 C361 1.568 . S
C1343 C316 1.568 . S
C1357 C368 1.567 . S
C1361 C329 1.568 . S
C1375 C342 1.568 . S
C1379 C387 1.567 . S
C1393 C394 1.569 . S
C1397 C439 1.568 . S
C1411 C407 1.568 . S
C1415 C446 1.567 . S
C1429 C420 1.569 . S
C1433 C465 1.568 . S
C1447 C3 1.553 . S
C1451 C237 1.553 . S
C1465 C250 1.554 . S
C1469 C16 1.554 . S
C1483 C263 1.554 . S
C1487 C31 1.554 . S
C1501 C432 1.554 . S
C1505 C42 1.554 . S
C1519 C447 1.554 . S
C1523 C55 1.554 . S
C1537 C458 1.553 . S
C1541 C70 1.553 . S
C1555 C81 1.554 . S
C1559 C317 1.554 . S
C1573 C330 1.554 . S
C1577 C96 1.554 . S
C1591 C343 1.554 . S
C1595 C107 1.554 . S
C1609 C120 1.553 . S
C1613 C198 1.553 . S
C1627 C133 1.554 . S
C1631 C211 1.554 . S
C1645 C146 1.554 . S
C1649 C224 1.554 . S
C1663 C395 1.553 . S
C1667 C159 1.553 . S
C1681 C408 1.553 . S
C1685 C172 1.553 . S
C1699 C185 1.554 . S
C1703 C421 1.554 . S
C1717 C276 1.554 . S
C1721 C354 1.554 . S
C1735 C291 1.554 . S
C1739 C369 1.554 . S
C1753 C302 1.553 . S
C1757 C380 1.553 . S
