# Generated by pormake.
# Topology umd, (4)-cn, num edge types: 1
# Building blocks:
#     Node 0, Type 0, BuildingBlock: CEKHIL_clean_sbu_0, # of connection points: 4
#     Node 1, Type 0, BuildingBlock: CEKHIL_clean_sbu_0, # of connection points: 4
#     Node 2, Type 0, BuildingBlock: CEKHIL_clean_sbu_0, # of connection points: 4
#     Node 3, Type 0, BuildingBlock: CEKHIL_clean_sbu_0, # of connection points: 4
#     Node 4, Type 0, BuildingBlock: CEKHIL_clean_sbu_0, # of connection points: 4
#     Node 5, Type 0, BuildingBlock: CEKHIL_clean_sbu_0, # of connection points: 4
#     Node 6, Type 0, BuildingBlock: CEKHIL_clean_sbu_0, # of connection points: 4
#     Node 7, Type 0, BuildingBlock: CEKHIL_clean_sbu_0, # of connection points: 4
#     Node 8, Type 0, BuildingBlock: CEKHIL_clean_sbu_0, # of connection points: 4
#     Node 9, Type 0, BuildingBlock: CEKHIL_clean_sbu_0, # of connection points: 4
#     Node 10, Type 0, BuildingBlock: CEKHIL_clean_sbu_0, # of connection points: 4
#     Node 11, Type 0, BuildingBlock: CEKHIL_clean_sbu_0, # of connection points: 4
#     Node 12, Type 0, BuildingBlock: CEKHIL_clean_sbu_0, # of connection points: 4
#     Node 13, Type 0, BuildingBlock: CEKHIL_clean_sbu_0, # of connection points: 4
#     Node 14, Type 0, BuildingBlock: CEKHIL_clean_sbu_0, # of connection points: 4
#     Node 15, Type 0, BuildingBlock: CEKHIL_clean_sbu_0, # of connection points: 4
#     Edge 16, Type (0, 0), BuildingBlock: ZUJKAS_clean_linker_0, # of connection points: 2
#     Edge 17, Type (0, 0), BuildingBlock: ZUJKAS_clean_linker_0, # of connection points: 2
#     Edge 18, Type (0, 0), BuildingBlock: ZUJKAS_clean_linker_0, # of connection points: 2
#     Edge 19, Type (0, 0), BuildingBlock: ZUJKAS_clean_linker_0, # of connection points: 2
#     Edge 20, Type (0, 0), BuildingBlock: ZUJKAS_clean_linker_0, # of connection points: 2
#     Edge 21, Type (0, 0), BuildingBlock: ZUJKAS_clean_linker_0, # of connection points: 2
#     Edge 22, Type (0, 0), BuildingBlock: ZUJKAS_clean_linker_0, # of connection points: 2
#     Edge 23, Type (0, 0), BuildingBlock: ZUJKAS_clean_linker_0, # of connection points: 2
#     Edge 24, Type (0, 0), BuildingBlock: ZUJKAS_clean_linker_0, # of connection points: 2
#     Edge 25, Type (0, 0), BuildingBlock: ZUJKAS_clean_linker_0, # of connection points: 2
#     Edge 26, Type (0, 0), BuildingBlock: ZUJKAS_clean_linker_0, # of connection points: 2
#     Edge 27, Type (0, 0), BuildingBlock: ZUJKAS_clean_linker_0, # of connection points: 2
#     Edge 28, Type (0, 0), BuildingBlock: ZUJKAS_clean_linker_0, # of connection points: 2
#     Edge 29, Type (0, 0), BuildingBlock: ZUJKAS_clean_linker_0, # of connection points: 2
#     Edge 30, Type (0, 0), BuildingBlock: ZUJKAS_clean_linker_0, # of connection points: 2
#     Edge 31, Type (0, 0), BuildingBlock: ZUJKAS_clean_linker_0, # of connection points: 2
#     Edge 32, Type (0, 0), BuildingBlock: ZUJKAS_clean_linker_0, # of connection points: 2
#     Edge 33, Type (0, 0), BuildingBlock: ZUJKAS_clean_linker_0, # of connection points: 2
#     Edge 34, Type (0, 0), BuildingBlock: ZUJKAS_clean_linker_0, # of connection points: 2
#     Edge 35, Type (0, 0), BuildingBlock: ZUJKAS_clean_linker_0, # of connection points: 2
#     Edge 36, Type (0, 0), BuildingBlock: ZUJKAS_clean_linker_0, # of connection points: 2
#     Edge 37, Type (0, 0), BuildingBlock: ZUJKAS_clean_linker_0, # of connection points: 2
#     Edge 38, Type (0, 0), BuildingBlock: ZUJKAS_clean_linker_0, # of connection points: 2
#     Edge 39, Type (0, 0), BuildingBlock: ZUJKAS_clean_linker_0, # of connection points: 2
#     Edge 40, Type (0, 0), BuildingBlock: ZUJKAS_clean_linker_0, # of connection points: 2
#     Edge 41, Type (0, 0), BuildingBlock: ZUJKAS_clean_linker_0, # of connection points: 2
#     Edge 42, Type (0, 0), BuildingBlock: ZUJKAS_clean_linker_0, # of connection points: 2
#     Edge 43, Type (0, 0), BuildingBlock: ZUJKAS_clean_linker_0, # of connection points: 2
#     Edge 44, Type (0, 0), BuildingBlock: ZUJKAS_clean_linker_0, # of connection points: 2
#     Edge 45, Type (0, 0), BuildingBlock: ZUJKAS_clean_linker_0, # of connection points: 2
#     Edge 46, Type (0, 0), BuildingBlock: ZUJKAS_clean_linker_0, # of connection points: 2
#     Edge 47, Type (0, 0), BuildingBlock: ZUJKAS_clean_linker_0, # of connection points: 2
# Relax obj value: 0.093
# Max RMSD: 0.228
# Mean RMSD: 0.228
data_MOF--net-umd--node1-CEKHIL_clean_sbu_0--edge1-ZUJKAS_clean_linker_0
_symmetry_space_group_name_H-M    P1
_symmetry_Int_Tables_number       1
_symmetry_cell_setting            triclinic
loop_
_symmetry_equiv_pos_as_xyz
'x, y, z'
_cell_length_a     49.870921
_cell_length_b     49.874284
_cell_length_c     72.713011
_cell_angle_alpha  90.002913
_cell_angle_beta   90.006603
_cell_angle_gamma 90.023522
loop_
_atom_site_label
_atom_site_type_symbol
_atom_site_fract_x
_atom_site_fract_y
_atom_site_fract_z
_atom_type_partial_charge
Co0 Co 0.19599 0.45082 0.12032 0.0
O1 O 0.22845 0.43034 0.12091 0.0
O2 O 0.19076 0.41659 0.10791 0.0
C3 C 0.19644 0.46291 0.15006 0.0
O4 O 0.15835 0.46681 0.11783 0.0
Co5 Co 0.1996 0.5119 0.12738 0.0
O6 O 0.16 0.50917 0.12844 0.0
C7 C 0.21593 0.49095 0.09145 0.0
C8 C 0.2158 0.41187 0.11188 0.0
C9 C 0.14688 0.48899 0.12251 0.0
O10 O 0.20764 0.46769 0.09651 0.0
O11 O 0.21609 0.51133 0.10216 0.0
O12 O 0.18699 0.43971 0.14517 0.0
O13 O 0.2079 0.47671 0.1372 0.0
Co14 Co 0.55594 0.19589 0.62102 0.0
O15 O 0.5754 0.22902 0.6215 0.0
O16 O 0.59011 0.19178 0.60843 0.0
C17 C 0.54417 0.19586 0.6509 0.0
O18 O 0.5413 0.15772 0.6186 0.0
Co19 Co 0.49474 0.19721 0.62857 0.0
O20 O 0.49853 0.15766 0.62857 0.0
C21 C 0.5147 0.21482 0.5926 0.0
C22 C 0.59421 0.2169 0.61245 0.0
C23 C 0.51934 0.14545 0.62277 0.0
O24 O 0.53828 0.2069 0.59728 0.0
O25 O 0.49471 0.21458 0.60364 0.0
O26 O 0.56769 0.18745 0.64587 0.0
O27 O 0.52981 0.20665 0.63807 0.0
Co28 Co 0.80913 0.55383 0.12127 0.0
O29 O 0.77594 0.57313 0.1217 0.0
O30 O 0.81315 0.58806 0.10869 0.0
C31 C 0.80886 0.542 0.15108 0.0
O32 O 0.84739 0.53931 0.11897 0.0
Co33 Co 0.80826 0.49266 0.12866 0.0
O34 O 0.84754 0.4977 0.13094 0.0
C35 C 0.7909 0.51259 0.09264 0.0
C36 C 0.78798 0.59201 0.11266 0.0
C37 C 0.85981 0.51813 0.12459 0.0
O38 O 0.79823 0.53625 0.09754 0.0
O39 O 0.79174 0.49233 0.10343 0.0
O40 O 0.81736 0.56554 0.14613 0.0
O41 O 0.79827 0.5276 0.13818 0.0
Co42 Co 0.45405 0.8089 0.61885 0.0
O43 O 0.43343 0.77648 0.6193 0.0
O44 O 0.41987 0.81438 0.6065 0.0
C45 C 0.46622 0.8082 0.64859 0.0
O46 O 0.46992 0.84655 0.61654 0.0
Co47 Co 0.51513 0.80573 0.62586 0.0
O48 O 0.51242 0.84535 0.62691 0.0
C49 C 0.49416 0.78918 0.58994 0.0
C50 C 0.41497 0.78935 0.61039 0.0
C51 C 0.49201 0.85824 0.62113 0.0
O52 O 0.47088 0.7975 0.59494 0.0
O53 O 0.51444 0.78896 0.60073 0.0
O54 O 0.443 0.81764 0.64375 0.0
O55 O 0.48003 0.7969 0.63567 0.0
Co56 Co 0.19423 0.55142 0.37026 0.0
O57 O 0.22676 0.57177 0.36916 0.0
O58 O 0.18942 0.58591 0.38239 0.0
C59 C 0.19415 0.53875 0.34061 0.0
O60 O 0.15656 0.53575 0.37321 0.0
Co61 Co 0.19718 0.4902 0.3637 0.0
O62 O 0.15753 0.4927 0.36388 0.0
C63 C 0.2152 0.51186 0.39907 0.0
C64 C 0.21437 0.59051 0.37809 0.0
C65 C 0.14481 0.51336 0.36941 0.0
O66 O 0.20629 0.53494 0.39414 0.0
O67 O 0.21534 0.49149 0.38835 0.0
O68 O 0.18483 0.56206 0.34537 0.0
O69 O 0.20568 0.52514 0.35352 0.0
Co70 Co 0.44888 0.19252 0.8696 0.0
O71 O 0.4298 0.22584 0.86883 0.0
O72 O 0.41428 0.18879 0.88175 0.0
C73 C 0.46149 0.19238 0.83988 0.0
O74 O 0.46317 0.15422 0.87229 0.0
Co75 Co 0.51031 0.19348 0.86284 0.0
O76 O 0.50635 0.15399 0.86312 0.0
C77 C 0.48947 0.21106 0.89859 0.0
C78 C 0.41064 0.21398 0.8777 0.0
C79 C 0.48529 0.14188 0.86861 0.0
O80 O 0.46591 0.20354 0.89356 0.0
O81 O 0.50985 0.21043 0.8879 0.0
O82 O 0.43778 0.18409 0.8446 0.0
O83 O 0.47555 0.20307 0.85291 0.0
Co84 Co 0.80745 0.4486 0.37 0.0
O85 O 0.77435 0.42911 0.36989 0.0
O86 O 0.81186 0.41452 0.38268 0.0
C87 C 0.80683 0.46018 0.34012 0.0
O88 O 0.84565 0.46341 0.37198 0.0
Co89 Co 0.80579 0.50978 0.36223 0.0
O90 O 0.84526 0.50562 0.36099 0.0
C91 C 0.78851 0.48991 0.3983 0.0
C92 C 0.78665 0.4104 0.37891 0.0
C93 C 0.85777 0.48511 0.36699 0.0
O94 O 0.79674 0.4664 0.39373 0.0
O95 O 0.78853 0.50983 0.3872 0.0
O96 O 0.8154 0.43668 0.34511 0.0
O97 O 0.7963 0.47457 0.35303 0.0
Co98 Co 0.55194 0.80519 0.86925 0.0
O99 O 0.57207 0.77252 0.86844 0.0
O100 O 0.58608 0.80975 0.8819 0.0
C101 C 0.54021 0.80551 0.83942 0.0
O102 O 0.53644 0.84298 0.87201 0.0
Co103 Co 0.49091 0.80272 0.86176 0.0
O104 O 0.4942 0.84232 0.86111 0.0
C105 C 0.51118 0.78503 0.89761 0.0
C106 C 0.59063 0.78478 0.87764 0.0
C107 C 0.51454 0.85494 0.86729 0.0
O108 O 0.53462 0.79329 0.89289 0.0
O109 O 0.49108 0.78525 0.88667 0.0
O110 O 0.56346 0.81455 0.84454 0.0
O111 O 0.5261 0.79401 0.85209 0.0
Co112 Co 0.80763 0.55074 0.86956 0.0
O113 O 0.77488 0.57073 0.86856 0.0
O114 O 0.81206 0.5851 0.88192 0.0
C115 C 0.80811 0.53836 0.83989 0.0
O116 O 0.84546 0.53544 0.87249 0.0
Co117 Co 0.80515 0.48953 0.86281 0.0
O118 O 0.84477 0.49247 0.86297 0.0
C119 C 0.78749 0.51059 0.89836 0.0
C120 C 0.78704 0.58943 0.8777 0.0
C121 C 0.85734 0.51317 0.86859 0.0
O122 O 0.79569 0.53389 0.89332 0.0
O123 O 0.78781 0.49013 0.88774 0.0
O124 O 0.81703 0.56177 0.84477 0.0
O125 O 0.79655 0.52449 0.85267 0.0
Co126 Co 0.44809 0.80725 0.36824 0.0
O127 O 0.42859 0.77413 0.36834 0.0
O128 O 0.41408 0.81179 0.38098 0.0
C129 C 0.45949 0.80636 0.33831 0.0
O130 O 0.46289 0.84545 0.37007 0.0
Co131 Co 0.50918 0.80574 0.36031 0.0
O132 O 0.50504 0.84521 0.35899 0.0
C133 C 0.48965 0.78895 0.3966 0.0
C134 C 0.40993 0.78654 0.37737 0.0
C135 C 0.48453 0.85765 0.36506 0.0
O136 O 0.46602 0.79678 0.39199 0.0
O137 O 0.50954 0.78906 0.38547 0.0
O138 O 0.43604 0.81499 0.34335 0.0
O139 O 0.47398 0.79595 0.35122 0.0
Co140 Co 0.19509 0.45087 0.86758 0.0
O141 O 0.22817 0.43133 0.86695 0.0
O142 O 0.19068 0.41622 0.87949 0.0
C143 C 0.19559 0.46393 0.83799 0.0
O144 O 0.15693 0.46552 0.87005 0.0
Co145 Co 0.1965 0.51236 0.8613 0.0
O146 O 0.15698 0.50839 0.86036 0.0
C147 C 0.21364 0.49083 0.89694 0.0
C148 C 0.21586 0.41222 0.87559 0.0
C149 C 0.14465 0.48747 0.86587 0.0
O150 O 0.20586 0.46747 0.89168 0.0
O151 O 0.21336 0.51139 0.88641 0.0
O152 O 0.187 0.44021 0.84246 0.0
O153 O 0.20618 0.47771 0.8512 0.0
Co154 Co 0.55205 0.19453 0.3709 0.0
O155 O 0.5717 0.22755 0.3708 0.0
O156 O 0.58618 0.18991 0.38349 0.0
C157 C 0.54034 0.19524 0.34102 0.0
O158 O 0.53706 0.15642 0.37293 0.0
Co159 Co 0.49087 0.19674 0.36353 0.0
O160 O 0.49403 0.15716 0.36346 0.0
C161 C 0.51122 0.21371 0.3995 0.0
C162 C 0.59036 0.21514 0.37981 0.0
C163 C 0.5148 0.14456 0.36892 0.0
O164 O 0.53456 0.20527 0.39473 0.0
O165 O 0.49114 0.21395 0.38854 0.0
O166 O 0.56379 0.18656 0.34601 0.0
O167 O 0.52601 0.20586 0.35394 0.0
Co168 Co 0.81039 0.45204 0.61933 0.0
O169 O 0.77778 0.43183 0.62026 0.0
O170 O 0.81501 0.4178 0.60683 0.0
C171 C 0.8107 0.46406 0.6491 0.0
O172 O 0.84809 0.46771 0.61644 0.0
Co173 Co 0.80739 0.51315 0.62654 0.0
O174 O 0.84704 0.51068 0.62597 0.0
C175 C 0.78939 0.49229 0.59095 0.0
C176 C 0.79003 0.41327 0.61107 0.0
C177 C 0.85976 0.49013 0.62026 0.0
O178 O 0.79828 0.46908 0.59565 0.0
O179 O 0.78926 0.51241 0.60187 0.0
O180 O 0.81989 0.44082 0.64409 0.0
O181 O 0.7991 0.47796 0.63636 0.0
Co182 Co 0.55135 0.80636 0.11892 0.0
O183 O 0.57118 0.77351 0.1197 0.0
O184 O 0.58557 0.81067 0.10634 0.0
C185 C 0.53948 0.80658 0.14876 0.0
O186 O 0.53616 0.8443 0.11622 0.0
Co187 Co 0.49019 0.80424 0.12627 0.0
O188 O 0.49368 0.8438 0.12671 0.0
C189 C 0.51063 0.78621 0.09054 0.0
C190 C 0.58989 0.78565 0.11056 0.0
C191 C 0.51419 0.85633 0.12072 0.0
O192 O 0.53402 0.79465 0.09523 0.0
O193 O 0.49051 0.78644 0.10147 0.0
O194 O 0.56288 0.81535 0.14371 0.0
O195 O 0.52532 0.79543 0.13597 0.0
Co196 Co 0.19653 0.55898 0.61941 0.0
O197 O 0.2295 0.57871 0.61937 0.0
O198 O 0.19188 0.59278 0.60643 0.0
C199 C 0.19717 0.548 0.6494 0.0
O200 O 0.15848 0.54388 0.61745 0.0
Co201 Co 0.19847 0.49803 0.62769 0.0
O202 O 0.15892 0.50176 0.62859 0.0
C203 C 0.21598 0.51735 0.59153 0.0
C204 C 0.21707 0.59711 0.61012 0.0
C205 C 0.1464 0.52215 0.62242 0.0
O206 O 0.20748 0.54085 0.59587 0.0
O207 O 0.21604 0.49764 0.60281 0.0
O208 O 0.18838 0.5713 0.64417 0.0
O209 O 0.20785 0.53342 0.63664 0.0
Co210 Co 0.44803 0.19329 0.12162 0.0
O211 O 0.42832 0.22624 0.12226 0.0
O212 O 0.41354 0.18884 0.10942 0.0
C213 C 0.46051 0.19365 0.15137 0.0
O214 O 0.46304 0.15525 0.11911 0.0
Co215 Co 0.50936 0.19544 0.12846 0.0
O216 O 0.50612 0.15586 0.12845 0.0
C217 C 0.48835 0.21218 0.09257 0.0
C218 C 0.4094 0.21398 0.11341 0.0
C219 C 0.48533 0.14333 0.12294 0.0
O220 O 0.46491 0.20437 0.09764 0.0
O221 O 0.5087 0.21205 0.1033 0.0
O222 O 0.437 0.18483 0.14662 0.0
O223 O 0.47443 0.20452 0.13834 0.0
H224 H 0.10935 0.45053 0.11331 0.0
H225 H 0.06047 0.45603 0.11181 0.0
H226 H 0.06881 0.53942 0.12636 0.0
H227 H 0.11718 0.53419 0.12812 0.0
H228 H 0.03138 0.51297 0.14747 0.0
H229 H 0.0141 0.4944 0.07305 0.0
H230 H 0.03251 0.46864 0.08485 0.0
H231 H 0.04694 0.50145 0.08237 0.0
C232 C 0.10078 0.47007 0.11607 0.0
C233 C 0.1173 0.49185 0.12089 0.0
C234 C 0.07286 0.47322 0.11509 0.0
C235 C 0.06103 0.49823 0.11878 0.0
C236 C 0.07749 0.51997 0.12342 0.0
H237 H 0.89456 0.55175 0.10614 0.0
H238 H 0.94364 0.54787 0.10419 0.0
C239 C 0.10523 0.51686 0.12443 0.0
C240 C 0.03147 0.50174 0.11887 0.0
H241 H 0.9754 0.49906 0.09187 0.0
C242 C 0.01917 0.50998 0.13529 0.0
C243 C 0.01561 0.49816 0.10291 0.0
C244 C 0.0279 0.4904 0.08473 0.0
C245 C 0.99142 0.5143 0.13629 0.0
C246 C 0.97548 0.51006 0.12048 0.0
C247 C 0.98774 0.50225 0.10395 0.0
C248 C 0.9459 0.51241 0.12124 0.0
C249 C 0.97929 0.52347 0.15423 0.0
C250 C 0.93107 0.49369 0.13136 0.0
C251 C 0.90324 0.49578 0.13247 0.0
C252 C 0.88952 0.51671 0.12348 0.0
C253 C 0.90447 0.5355 0.1133 0.0
C254 C 0.93246 0.53324 0.1121 0.0
H255 H 0.99472 0.53142 0.16382 0.0
H256 H 0.96398 0.53925 0.15181 0.0
H257 H 0.96922 0.50624 0.16098 0.0
H258 H 0.94108 0.47737 0.13841 0.0
H259 H 0.8925 0.48093 0.14047 0.0
H260 H 0.53738 0.8886 0.62437 0.0
H261 H 0.54146 0.93725 0.62289 0.0
H262 H 0.45655 0.94404 0.61292 0.0
H263 H 0.4521 0.89508 0.61439 0.0
H264 H 0.52556 0.97353 0.59302 0.0
H265 H 0.47251 0.99203 0.65915 0.0
H266 H 0.48615 0.95965 0.65315 0.0
H267 H 0.45559 0.97101 0.64272 0.0
C268 C 0.51947 0.90032 0.62185 0.0
C269 C 0.49432 0.88785 0.61962 0.0
C270 C 0.52193 0.92817 0.62094 0.0
C271 C 0.49931 0.9442 0.61796 0.0
C272 C 0.47421 0.93195 0.61542 0.0
H273 H 0.47392 0.11526 0.62089 0.0
H274 H 0.47006 0.06677 0.61848 0.0
C275 C 0.47173 0.90399 0.61621 0.0
C276 C 0.50211 0.97377 0.61786 0.0
H277 H 0.4866 0.02991 0.64244 0.0
C278 C 0.51703 0.98594 0.60378 0.0
C279 C 0.49105 0.98978 0.63198 0.0
C280 C 0.47557 0.97757 0.64772 0.0
C281 C 0.52076 0.01387 0.60325 0.0
C282 C 0.50984 0.02992 0.61745 0.0
C283 C 0.49498 0.01763 0.63155 0.0
C284 C 0.51282 0.05957 0.61783 0.0
C285 C 0.53577 0.02594 0.58724 0.0
C286 C 0.53823 0.07182 0.6182 0.0
C287 C 0.54055 0.09979 0.6194 0.0
C288 C 0.51749 0.11592 0.6206 0.0
C289 C 0.49214 0.10351 0.62014 0.0
C290 C 0.48986 0.07572 0.61874 0.0
H291 H 0.5362 0.01216 0.57524 0.0
H292 H 0.52661 0.04521 0.58289 0.0
H293 H 0.5568 0.02989 0.59142 0.0
H294 H 0.55626 0.05975 0.61794 0.0
H295 H 0.56035 0.10871 0.61986 0.0
H296 H 0.10727 0.5537 0.37096 0.0
H297 H 0.05826 0.54873 0.37234 0.0
H298 H 0.06684 0.46278 0.37382 0.0
H299 H 0.11549 0.46741 0.37231 0.0
H300 H 0.02722 0.51453 0.34466 0.0
H301 H 0.0144 0.48394 0.41775 0.0
H302 H 0.04294 0.50316 0.40992 0.0
H303 H 0.04086 0.46801 0.40493 0.0
C304 C 0.09872 0.53378 0.37178 0.0
C305 C 0.11531 0.51098 0.37146 0.0
C306 C 0.07076 0.53097 0.37254 0.0
C307 C 0.05904 0.50539 0.37333 0.0
C308 C 0.07554 0.48268 0.37341 0.0
H309 H 0.89423 0.44531 0.37542 0.0
H310 H 0.94328 0.44939 0.3768 0.0
C311 C 0.10335 0.48542 0.37244 0.0
C312 C 0.02954 0.50214 0.37294 0.0
H313 H 0.97602 0.48172 0.3987 0.0
C314 C 0.01595 0.50754 0.35649 0.0
C315 C 0.01509 0.49253 0.38831 0.0
C316 C 0.02892 0.48667 0.40631 0.0
C317 C 0.9882 0.5034 0.35493 0.0
C318 C 0.97356 0.4943 0.37041 0.0
C319 C 0.98725 0.48869 0.38685 0.0
C320 C 0.94392 0.49163 0.36997 0.0
C321 C 0.97494 0.50827 0.33657 0.0
C322 C 0.92804 0.51408 0.36607 0.0
C323 C 0.90021 0.51181 0.36517 0.0
C324 C 0.88744 0.48704 0.36839 0.0
C325 C 0.90335 0.46464 0.37279 0.0
C326 C 0.93138 0.46694 0.3736 0.0
H327 H 0.98959 0.50699 0.32508 0.0
H328 H 0.9586 0.4936 0.33402 0.0
H329 H 0.96618 0.52871 0.33642 0.0
H330 H 0.9372 0.53347 0.3637 0.0
H331 H 0.88871 0.52963 0.36197 0.0
H332 H 0.46986 0.88572 0.86219 0.0
H333 H 0.46572 0.93423 0.86452 0.0
H334 H 0.54924 0.94027 0.87919 0.0
H335 H 0.55378 0.89137 0.87682 0.0
H336 H 0.47702 0.96872 0.89546 0.0
H337 H 0.53985 0.99105 0.8341 0.0
H338 H 0.52608 0.95816 0.83844 0.0
H339 H 0.55464 0.96966 0.85123 0.0
C340 C 0.48747 0.89722 0.86592 0.0
C341 C 0.51226 0.88453 0.8692 0.0
C342 C 0.48497 0.92501 0.8673 0.0
C343 C 0.50718 0.94084 0.87187 0.0
C344 C 0.53191 0.92837 0.87543 0.0
H345 H 0.5305 0.11245 0.87381 0.0
H346 H 0.53478 0.06398 0.87607 0.0
C347 C 0.53444 0.90044 0.87413 0.0
C348 C 0.50429 0.97041 0.87255 0.0
H349 H 0.52285 0.02792 0.85058 0.0
C350 C 0.48708 0.98174 0.8857 0.0
C351 C 0.51735 0.98724 0.85974 0.0
C352 C 0.53538 0.97602 0.84496 0.0
C353 C 0.48288 0.0096 0.88657 0.0
C354 C 0.49573 0.02645 0.87363 0.0
C355 C 0.51297 0.01502 0.86049 0.0
C356 C 0.49228 0.05608 0.87359 0.0
C357 C 0.46521 0.02069 0.9016 0.0
C358 C 0.46685 0.06796 0.8716 0.0
C359 C 0.46426 0.09593 0.8705 0.0
C360 C 0.48713 0.11241 0.871 0.0
C361 C 0.51246 0.10038 0.87319 0.0
C362 C 0.51497 0.07261 0.87452 0.0
H363 H 0.46323 0.0064 0.91324 0.0
H364 H 0.4732 0.03995 0.90694 0.0
H365 H 0.44486 0.02436 0.89597 0.0
H366 H 0.44907 0.05561 0.87042 0.0
H367 H 0.44452 0.10457 0.86869 0.0
H368 H 0.89491 0.55361 0.86964 0.0
H369 H 0.94391 0.54867 0.87062 0.0
H370 H 0.93515 0.46277 0.87377 0.0
H371 H 0.8866 0.46743 0.87231 0.0
H372 H 0.97827 0.52596 0.89579 0.0
H373 H 0.98395 0.47043 0.82986 0.0
H374 H 0.95392 0.48743 0.83727 0.0
H375 H 0.9621 0.45482 0.84627 0.0
C376 C 0.90347 0.5337 0.8706 0.0
C377 C 0.88685 0.51091 0.87062 0.0
C378 C 0.93144 0.5309 0.87114 0.0
C379 C 0.94321 0.5053 0.87179 0.0
C380 C 0.92659 0.48266 0.87268 0.0
H381 H 0.10866 0.44686 0.87318 0.0
H382 H 0.05971 0.4506 0.87588 0.0
C383 C 0.89878 0.48541 0.87193 0.0
C384 C 0.97282 0.50206 0.87142 0.0
H385 H 0.02379 0.47189 0.84776 0.0
C386 C 0.98823 0.51424 0.88525 0.0
C387 C 0.98582 0.48671 0.85765 0.0
C388 C 0.97064 0.47432 0.84182 0.0
C389 C 0.01624 0.51121 0.88581 0.0
C390 C 0.02914 0.49575 0.87211 0.0
C391 C 0.01377 0.48348 0.85835 0.0
C392 C 0.05874 0.49341 0.87116 0.0
C393 C 0.03181 0.52434 0.90115 0.0
C394 C 0.07427 0.51616 0.8674 0.0
C395 C 0.10206 0.5141 0.86574 0.0
C396 C 0.11503 0.48918 0.86779 0.0
C397 C 0.09939 0.46635 0.87158 0.0
C398 C 0.07143 0.46844 0.87313 0.0
H399 H 0.01868 0.52972 0.91293 0.0
H400 H 0.04805 0.51095 0.90615 0.0
H401 H 0.04121 0.54302 0.89593 0.0
H402 H 0.06482 0.53552 0.86551 0.0
H403 H 0.11334 0.53216 0.86281 0.0
H404 H 0.46909 0.11556 0.3734 0.0
H405 H 0.46415 0.06707 0.37502 0.0
H406 H 0.54981 0.05783 0.36969 0.0
H407 H 0.55501 0.10674 0.36865 0.0
H408 H 0.47563 0.0313 0.34941 0.0
H409 H 0.53495 0.00796 0.41187 0.0
H410 H 0.5255 0.04175 0.40583 0.0
H411 H 0.55371 0.02598 0.39483 0.0
C412 C 0.48697 0.10328 0.37273 0.0
C413 C 0.51248 0.11504 0.37086 0.0
C414 C 0.48408 0.0755 0.37367 0.0
C415 C 0.50658 0.05872 0.37267 0.0
C416 C 0.53217 0.07034 0.37094 0.0
H417 H 0.5286 0.88896 0.35902 0.0
H418 H 0.53243 0.93746 0.36153 0.0
C419 C 0.53513 0.0983 0.37024 0.0
C420 C 0.5028 0.02913 0.37241 0.0
H421 H 0.5213 0.97076 0.39351 0.0
C422 C 0.48546 0.01811 0.35917 0.0
C423 C 0.51556 0.01188 0.38516 0.0
C424 C 0.53326 0.02249 0.40034 0.0
C425 C 0.48094 0.99037 0.35808 0.0
C426 C 0.49401 0.97316 0.37064 0.0
C427 C 0.51126 0.98408 0.38393 0.0
C428 C 0.49116 0.94362 0.36953 0.0
C429 C 0.46279 0.97956 0.34322 0.0
C430 C 0.46662 0.93093 0.37332 0.0
C431 C 0.46427 0.90298 0.37192 0.0
C432 C 0.48645 0.8873 0.36667 0.0
C433 C 0.511 0.90026 0.36302 0.0
C434 C 0.51332 0.92805 0.3645 0.0
H435 H 0.45794 0.99498 0.33271 0.0
H436 H 0.47222 0.96212 0.33628 0.0
H437 H 0.44373 0.97263 0.34951 0.0
H438 H 0.44933 0.94263 0.37741 0.0
H439 H 0.44511 0.89371 0.3749 0.0
H440 H 0.8882 0.53624 0.61579 0.0
H441 H 0.93661 0.54165 0.61364 0.0
H442 H 0.94676 0.456 0.61806 0.0
H443 H 0.89794 0.45032 0.61965 0.0
H444 H 0.97306 0.52989 0.63881 0.0
H445 H 0.99556 0.47221 0.5755 0.0
H446 H 0.96182 0.48127 0.58196 0.0
H447 H 0.97801 0.4529 0.59249 0.0
C448 C 0.90066 0.51846 0.61614 0.0
C449 C 0.88918 0.4928 0.61792 0.0
C450 C 0.92839 0.52162 0.6149 0.0
C451 C 0.9454 0.49926 0.61549 0.0
C452 C 0.93405 0.47354 0.61712 0.0
H453 H 0.11537 0.47771 0.62781 0.0
H454 H 0.06686 0.47371 0.62535 0.0
C455 C 0.90615 0.4703 0.61813 0.0
C456 C 0.97496 0.50328 0.61549 0.0
H457 H 0.03304 0.48553 0.59374 0.0
C458 C 0.98612 0.52037 0.62884 0.0
C459 C 0.99204 0.4909 0.60247 0.0
C460 C 0.98125 0.47351 0.58718 0.0
C461 C 0.01387 0.52495 0.62976 0.0
C462 C 0.03092 0.51225 0.61694 0.0
C463 C 0.01984 0.49529 0.60353 0.0
C464 C 0.06047 0.51515 0.61789 0.0
C465 C 0.02484 0.54277 0.64475 0.0
C466 C 0.07303 0.53983 0.61434 0.0
C467 C 0.10097 0.54228 0.6157 0.0
C468 C 0.11678 0.52006 0.62068 0.0
C469 C 0.10396 0.49534 0.62404 0.0
C470 C 0.07617 0.49293 0.62258 0.0
H471 H 0.00957 0.5473 0.65544 0.0
H472 H 0.04242 0.53323 0.65146 0.0
H473 H 0.03161 0.56201 0.63864 0.0
H474 H 0.06122 0.55717 0.61051 0.0
H475 H 0.11014 0.56156 0.61296 0.0
H476 H 0.445 0.10555 0.12155 0.0
H477 H 0.45018 0.05661 0.11974 0.0
H478 H 0.53604 0.06592 0.11673 0.0
H479 H 0.53116 0.11433 0.11902 0.0
H480 H 0.47307 0.02355 0.0938 0.0
H481 H 0.52881 0.01499 0.15948 0.0
H482 H 0.51161 0.04526 0.15279 0.0
H483 H 0.5443 0.03777 0.14363 0.0
C484 C 0.46495 0.09712 0.12049 0.0
C485 C 0.48766 0.11384 0.12072 0.0
C486 C 0.4679 0.06918 0.11946 0.0
C487 C 0.49356 0.05757 0.11858 0.0
C488 C 0.51611 0.07433 0.11801 0.0
H489 H 0.55426 0.89309 0.11374 0.0
H490 H 0.54979 0.94207 0.11177 0.0
C491 C 0.51323 0.10208 0.11924 0.0
C492 C 0.497 0.02798 0.11826 0.0
H493 H 0.52802 0.97617 0.1405 0.0
C494 C 0.48496 0.01318 0.10406 0.0
C495 C 0.51259 0.01443 0.13165 0.0
C496 C 0.52485 0.02888 0.14784 0.0
C497 C 0.48842 0.98527 0.10274 0.0
C498 C 0.50415 0.97183 0.11604 0.0
C499 C 0.51624 0.9866 0.1302 0.0
C500 C 0.5069 0.94223 0.11625 0.0
C501 C 0.47544 0.97039 0.08702 0.0
C502 C 0.48434 0.92622 0.11957 0.0
C503 C 0.48683 0.89842 0.12081 0.0
C504 C 0.51199 0.88591 0.11879 0.0
C505 C 0.5346 0.90201 0.11531 0.0
C506 C 0.53208 0.92998 0.11418 0.0
H507 H 0.46997 0.98409 0.07557 0.0
H508 H 0.48895 0.95453 0.08164 0.0
H509 H 0.45681 0.96061 0.09199 0.0
H510 H 0.46481 0.93529 0.12154 0.0
H511 H 0.46892 0.88677 0.12349 0.0
H512 H 0.22693 0.50251 0.32386 0.0
H513 H 0.22745 0.49032 0.29123 0.0
H514 H 0.15828 0.54051 0.28189 0.0
H515 H 0.1587 0.5539 0.31424 0.0
H516 H 0.19465 0.46585 0.26958 0.0
H517 H 0.20631 0.56919 0.24321 0.0
H518 H 0.20898 0.56131 0.26733 0.0
H519 H 0.17655 0.56592 0.25683 0.0
C520 C 0.21186 0.5109 0.3148 0.0
C521 C 0.19299 0.52939 0.32144 0.0
C522 C 0.21217 0.50396 0.29618 0.0
C523 C 0.19337 0.51509 0.28397 0.0
C524 C 0.17363 0.53248 0.29086 0.0
H525 H 0.16088 0.44721 0.17619 0.0
H526 H 0.15974 0.46059 0.20851 0.0
C527 C 0.17372 0.53991 0.30937 0.0
C528 C 0.19428 0.5083 0.2641 0.0
H529 H 0.19458 0.5358 0.22109 0.0
C530 C 0.19483 0.48116 0.25898 0.0
C531 C 0.19509 0.52826 0.25024 0.0
C532 C 0.19701 0.55777 0.25468 0.0
C533 C 0.19575 0.47342 0.24045 0.0
C534 C 0.1949 0.49336 0.22658 0.0
C535 C 0.1948 0.52049 0.23169 0.0
C536 C 0.19449 0.48653 0.20671 0.0
C537 C 0.19835 0.44395 0.23603 0.0
C538 C 0.21336 0.49792 0.19466 0.0
C539 C 0.21349 0.49095 0.17603 0.0
C540 C 0.19498 0.47219 0.16925 0.0
C541 C 0.17564 0.46141 0.18117 0.0
C542 C 0.17514 0.46884 0.19967 0.0
H543 H 0.20762 0.43273 0.2476 0.0
H544 H 0.17811 0.43537 0.23367 0.0
H545 H 0.21066 0.44066 0.22351 0.0
H546 H 0.22835 0.51181 0.19973 0.0
H547 H 0.22858 0.49956 0.16709 0.0
H548 H 0.49671 0.21333 0.66551 0.0
H549 H 0.48263 0.21124 0.69779 0.0
H550 H 0.55672 0.17171 0.7119 0.0
H551 H 0.57082 0.17349 0.67973 0.0
H552 H 0.51079 0.14816 0.72783 0.0
H553 H 0.5146 0.25833 0.73907 0.0
H554 H 0.49433 0.24776 0.71996 0.0
H555 H 0.52994 0.24234 0.71943 0.0
C556 C 0.50995 0.20414 0.67549 0.0
C557 C 0.53494 0.19375 0.67014 0.0
C558 C 0.50195 0.20308 0.69391 0.0
C559 C 0.51884 0.19169 0.70723 0.0
C560 C 0.54348 0.1807 0.70183 0.0
H561 H 0.5091 0.21039 0.82589 0.0
H562 H 0.52392 0.20886 0.79375 0.0
C563 C 0.5515 0.18178 0.68345 0.0
C564 C 0.51102 0.19131 0.72686 0.0
H565 H 0.49727 0.23197 0.76342 0.0
C566 C 0.50784 0.16646 0.73564 0.0
C567 C 0.50761 0.21524 0.73703 0.0
C568 C 0.51201 0.24246 0.72849 0.0
C569 C 0.50089 0.16489 0.75432 0.0
C570 C 0.49675 0.18882 0.76435 0.0
C571 C 0.50034 0.21367 0.75564 0.0
C572 C 0.48836 0.18858 0.78387 0.0
C573 C 0.49839 0.13768 0.76322 0.0
C574 C 0.46347 0.17773 0.78889 0.0
C575 C 0.45498 0.17858 0.80717 0.0
C576 C 0.47119 0.19044 0.82075 0.0
C577 C 0.49622 0.2011 0.81573 0.0
C578 C 0.50468 0.20027 0.7974 0.0
H579 H 0.50878 0.12191 0.7551 0.0
H580 H 0.5068 0.13788 0.77736 0.0
H581 H 0.47687 0.13217 0.76415 0.0
H582 H 0.45038 0.16905 0.7786 0.0
H583 H 0.43555 0.17028 0.81062 0.0
H584 H 0.78915 0.49554 0.16579 0.0
H585 H 0.79021 0.48175 0.19815 0.0
H586 H 0.8333 0.55394 0.21208 0.0
H587 H 0.83246 0.5678 0.17983 0.0
H588 H 0.85421 0.50597 0.22818 0.0
H589 H 0.74453 0.51795 0.23908 0.0
H590 H 0.75386 0.49727 0.21987 0.0
H591 H 0.76185 0.53238 0.21964 0.0
C592 C 0.79892 0.5084 0.17574 0.0
C593 C 0.81055 0.53283 0.17033 0.0
C594 C 0.7994 0.50057 0.1942 0.0
C595 C 0.8115 0.51705 0.20748 0.0
C596 C 0.82376 0.54105 0.20202 0.0
H597 H 0.79115 0.50853 0.32606 0.0
H598 H 0.79363 0.52324 0.29394 0.0
C599 C 0.82321 0.54893 0.18361 0.0
C600 C 0.81121 0.50945 0.22712 0.0
H601 H 0.7694 0.49891 0.26355 0.0
C602 C 0.8357 0.50443 0.23595 0.0
C603 C 0.78704 0.50793 0.23722 0.0
C604 C 0.7603 0.51438 0.22857 0.0
C605 C 0.83663 0.49741 0.25463 0.0
C606 C 0.81238 0.49508 0.26459 0.0
C607 C 0.78793 0.50057 0.25582 0.0
C608 C 0.81187 0.48659 0.28408 0.0
C609 C 0.86355 0.49291 0.26359 0.0
C610 C 0.82117 0.4611 0.2891 0.0
C611 C 0.81982 0.45269 0.30738 0.0
C612 C 0.80894 0.46956 0.32094 0.0
C613 C 0.79966 0.49512 0.3159 0.0
C614 C 0.80104 0.50353 0.29758 0.0
H615 H 0.88003 0.50238 0.25562 0.0
H616 H 0.86384 0.50102 0.27781 0.0
H617 H 0.86759 0.47106 0.26431 0.0
H618 H 0.82909 0.44752 0.27882 0.0
H619 H 0.82701 0.43282 0.31083 0.0
H620 H 0.55711 0.84126 0.81376 0.0
H621 H 0.54357 0.84403 0.78151 0.0
H622 H 0.49067 0.77642 0.78925 0.0
H623 H 0.50309 0.77462 0.8218 0.0
H624 H 0.55057 0.81067 0.75503 0.0
H625 H 0.44124 0.82507 0.76283 0.0
H626 H 0.46394 0.8272 0.78207 0.0
H627 H 0.45222 0.79505 0.77406 0.0
C628 C 0.54231 0.82724 0.80861 0.0
C629 C 0.53101 0.80781 0.82023 0.0
C630 C 0.53463 0.82878 0.79018 0.0
C631 C 0.51579 0.81069 0.78295 0.0
C632 C 0.5046 0.79114 0.79458 0.0
H633 H 0.50245 0.77584 0.66582 0.0
H634 H 0.51516 0.77674 0.69834 0.0
C635 C 0.51183 0.78999 0.81315 0.0
C636 C 0.50897 0.81154 0.76306 0.0
H637 H 0.45659 0.81266 0.73289 0.0
C638 C 0.53 0.81136 0.7502 0.0
C639 C 0.48217 0.81285 0.75671 0.0
C640 C 0.45865 0.81535 0.76966 0.0
C641 C 0.52502 0.8122 0.73122 0.0
C642 C 0.4982 0.81203 0.72485 0.0
C643 C 0.47717 0.81248 0.73772 0.0
C644 C 0.49132 0.81177 0.70497 0.0
C645 C 0.54863 0.81396 0.71828 0.0
C646 C 0.4731 0.83063 0.69792 0.0
C647 C 0.46522 0.8296 0.67952 0.0
C648 C 0.47572 0.80995 0.66772 0.0
C649 C 0.49433 0.79139 0.67461 0.0
C650 C 0.50174 0.79203 0.69316 0.0
H651 H 0.56641 0.82291 0.72517 0.0
H652 H 0.55426 0.79348 0.71375 0.0
H653 H 0.54382 0.82617 0.70595 0.0
H654 H 0.46477 0.84605 0.70672 0.0
H655 H 0.45088 0.84419 0.67451 0.0
H656 H 0.84433 0.554 0.81418 0.0
H657 H 0.84619 0.54066 0.78186 0.0
H658 H 0.77742 0.48939 0.78992 0.0
H659 H 0.7765 0.50157 0.82256 0.0
H660 H 0.81151 0.46559 0.76868 0.0
H661 H 0.79888 0.56899 0.74261 0.0
H662 H 0.82822 0.56606 0.75669 0.0
H663 H 0.79552 0.5608 0.76664 0.0
C664 C 0.82971 0.53978 0.80904 0.0
C665 C 0.81011 0.52898 0.82075 0.0
C666 C 0.83062 0.53237 0.79054 0.0
C667 C 0.8114 0.5147 0.78329 0.0
C668 C 0.79231 0.50326 0.79515 0.0
H669 H 0.77832 0.50019 0.66631 0.0
H670 H 0.77833 0.51197 0.699 0.0
C671 C 0.79179 0.5102 0.81378 0.0
C672 C 0.81126 0.50808 0.76339 0.0
H673 H 0.81158 0.53601 0.72053 0.0
C674 C 0.81134 0.48099 0.75815 0.0
C675 C 0.8105 0.52816 0.74962 0.0
C676 C 0.80797 0.55759 0.75417 0.0
C677 C 0.811 0.47342 0.73957 0.0
C678 C 0.81179 0.49352 0.7258 0.0
C679 C 0.81138 0.5206 0.73105 0.0
C680 C 0.8124 0.48694 0.70589 0.0
C681 C 0.809 0.44395 0.73498 0.0
C682 C 0.83193 0.46953 0.69877 0.0
C683 C 0.83154 0.46233 0.68021 0.0
C684 C 0.81215 0.47311 0.66834 0.0
C685 C 0.79347 0.4916 0.67521 0.0
C686 C 0.79347 0.49831 0.69388 0.0
H687 H 0.79983 0.43241 0.74645 0.0
H688 H 0.79688 0.44057 0.72239 0.0
H689 H 0.82943 0.43581 0.73268 0.0
H690 H 0.84738 0.46131 0.70758 0.0
H691 H 0.84642 0.44833 0.67516 0.0
H692 H 0.50702 0.78893 0.32387 0.0
H693 H 0.52128 0.79086 0.29163 0.0
H694 H 0.44676 0.82927 0.27711 0.0
H695 H 0.43249 0.82765 0.30924 0.0
H696 H 0.49506 0.76768 0.26125 0.0
H697 H 0.50375 0.8781 0.25374 0.0
H698 H 0.50226 0.86174 0.27588 0.0
H699 H 0.47213 0.86697 0.2628 0.0
C700 C 0.49378 0.79796 0.31382 0.0
C701 C 0.46867 0.80818 0.31906 0.0
C702 C 0.50193 0.79902 0.29543 0.0
C703 C 0.4852 0.8105 0.28206 0.0
C704 C 0.46017 0.82078 0.28728 0.0
H705 H 0.49265 0.78775 0.16352 0.0
H706 H 0.47898 0.789 0.19591 0.0
C707 C 0.452 0.81971 0.30563 0.0
C708 C 0.4934 0.81077 0.26251 0.0
H709 H 0.50591 0.85238 0.22623 0.0
C710 C 0.49754 0.78618 0.25359 0.0
C711 C 0.49681 0.83497 0.25264 0.0
C712 C 0.49376 0.86197 0.26176 0.0
C713 C 0.50463 0.78511 0.23493 0.0
C714 C 0.50726 0.80928 0.22492 0.0
C715 C 0.50354 0.83389 0.23392 0.0
C716 C 0.51478 0.80944 0.20524 0.0
C717 C 0.50968 0.75815 0.22616 0.0
C718 C 0.53901 0.82122 0.19975 0.0
C719 C 0.54679 0.82063 0.18132 0.0
C720 C 0.53039 0.80836 0.16804 0.0
C721 C 0.50576 0.79719 0.17348 0.0
C722 C 0.498 0.79777 0.19196 0.0
H723 H 0.51289 0.74222 0.23661 0.0
H724 H 0.49204 0.75246 0.21771 0.0
H725 H 0.52747 0.75894 0.21699 0.0
H726 H 0.55215 0.83044 0.2098 0.0
H727 H 0.56583 0.82951 0.17753 0.0
H728 H 0.21287 0.51224 0.82472 0.0
H729 H 0.2112 0.528 0.7928 0.0
H730 H 0.17318 0.45404 0.77647 0.0
H731 H 0.1745 0.4383 0.80827 0.0
H732 H 0.23494 0.50328 0.76216 0.0
H733 H 0.12466 0.51167 0.75378 0.0
H734 H 0.14057 0.50926 0.77602 0.0
H735 H 0.13565 0.47971 0.76228 0.0
C736 C 0.20395 0.49946 0.81434 0.0
C737 C 0.19377 0.47407 0.81897 0.0
C738 C 0.20304 0.50846 0.79614 0.0
C739 C 0.19177 0.49231 0.78236 0.0
C740 C 0.18149 0.46702 0.78698 0.0
H741 H 0.21606 0.5014 0.66436 0.0
H742 H 0.21462 0.48791 0.69677 0.0
C743 C 0.1824 0.45801 0.80514 0.0
C744 C 0.19183 0.50131 0.76298 0.0
H745 H 0.15088 0.51453 0.72647 0.0
C746 C 0.21658 0.50589 0.75436 0.0
C747 C 0.16781 0.50487 0.75293 0.0
C748 C 0.14064 0.50138 0.76174 0.0
C749 C 0.21798 0.51346 0.73581 0.0
C750 C 0.194 0.51615 0.72561 0.0
C751 C 0.16923 0.51211 0.73431 0.0
C752 C 0.19421 0.52377 0.70596 0.0
C753 C 0.24508 0.51884 0.72733 0.0
C754 C 0.18258 0.54803 0.70039 0.0
C755 C 0.1833 0.55573 0.68195 0.0
C756 C 0.19554 0.5392 0.66873 0.0
C757 C 0.20664 0.5146 0.67427 0.0
C758 C 0.20595 0.50694 0.69275 0.0
H759 H 0.26079 0.52195 0.73796 0.0
H760 H 0.25102 0.50139 0.71879 0.0
H761 H 0.24437 0.53678 0.7183 0.0
H762 H 0.17331 0.56121 0.71039 0.0
H763 H 0.17448 0.57476 0.67808 0.0
H764 H 0.56959 0.17928 0.31145 0.0
H765 H 0.55592 0.17875 0.27922 0.0
H766 H 0.47732 0.20708 0.29454 0.0
H767 H 0.4911 0.20826 0.32691 0.0
H768 H 0.51583 0.1509 0.26209 0.0
H769 H 0.49959 0.26061 0.2551 0.0
H770 H 0.51661 0.24606 0.2746 0.0
H771 H 0.48063 0.2452 0.27324 0.0
C772 C 0.54938 0.18543 0.30798 0.0
C773 C 0.53145 0.194 0.32168 0.0
C774 C 0.54161 0.18509 0.28955 0.0
C775 C 0.51577 0.19328 0.28445 0.0
C776 C 0.49756 0.20126 0.29814 0.0
H777 H 0.43662 0.16795 0.18004 0.0
H778 H 0.45106 0.16713 0.21217 0.0
C779 C 0.5054 0.20177 0.31662 0.0
C780 C 0.50801 0.1932 0.26478 0.0
H781 H 0.48706 0.23356 0.22966 0.0
C782 C 0.50955 0.16897 0.255 0.0
C783 C 0.50019 0.21689 0.25551 0.0
C784 C 0.49936 0.24373 0.26507 0.0
C785 C 0.50313 0.16773 0.23623 0.0
C786 C 0.49469 0.19126 0.22711 0.0
C787 C 0.49345 0.21555 0.23679 0.0
C788 C 0.48665 0.19098 0.20755 0.0
C789 C 0.50572 0.14137 0.2262 0.0
C790 C 0.50188 0.20478 0.19437 0.0
C791 C 0.49375 0.20521 0.17596 0.0
C792 C 0.47007 0.19212 0.17055 0.0
C793 C 0.45497 0.17821 0.1838 0.0
C794 C 0.46321 0.17763 0.20214 0.0
H795 H 0.51759 0.12654 0.23418 0.0
H796 H 0.48545 0.13288 0.22382 0.0
H797 H 0.51537 0.14434 0.21259 0.0
H798 H 0.52001 0.21527 0.19836 0.0
H799 H 0.50574 0.21614 0.16606 0.0
H800 H 0.22213 0.5377 0.916 0.0
H801 H 0.22923 0.54258 0.94918 0.0
H802 H 0.22996 0.45659 0.95514 0.0
H803 H 0.22277 0.45141 0.92219 0.0
H804 H 0.19081 0.48542 0.97672 0.0
H805 H 0.29411 0.52652 0.98445 0.0
H806 H 0.27237 0.54198 0.96775 0.0
H807 H 0.28368 0.50826 0.96419 0.0
C808 C 0.22433 0.51982 0.92431 0.0
C809 C 0.22158 0.49415 0.91645 0.0
C810 C 0.22851 0.52267 0.94325 0.0
C811 C 0.23022 0.49993 0.95454 0.0
C812 C 0.22874 0.47436 0.94661 0.0
H813 H 0.2271 0.45173 0.06649 0.0
H814 H 0.23307 0.45679 0.03339 0.0
C815 C 0.22453 0.47147 0.92777 0.0
C816 C 0.23039 0.50244 0.97479 0.0
H817 H 0.26904 0.51991 0.01169 0.0
C818 C 0.20787 0.49307 0.98436 0.0
C819 C 0.25255 0.51274 0.98463 0.0
C820 C 0.27719 0.52287 0.97483 0.0
C821 C 0.20712 0.49313 0.00359 0.0
C822 C 0.22968 0.50238 0.01349 0.0
C823 C 0.25189 0.51267 0.00398 0.0
C824 C 0.23062 0.50007 0.03373 0.0
C825 C 0.18224 0.48303 0.0132 0.0
C826 C 0.22843 0.52287 0.0449 0.0
C827 C 0.22504 0.52009 0.06392 0.0
C828 C 0.22371 0.49443 0.07195 0.0
C829 C 0.22763 0.47177 0.06075 0.0
C830 C 0.23112 0.47459 0.04183 0.0
H831 H 0.16461 0.48271 0.00386 0.0
H832 H 0.18579 0.46227 0.01811 0.0
H833 H 0.17741 0.49569 0.02532 0.0
H834 H 0.22805 0.5427 0.03882 0.0
H835 H 0.22216 0.53795 0.07216 0.0
H836 H 0.46392 0.22399 0.41758 0.0
H837 H 0.45802 0.23395 0.45034 0.0
H838 H 0.54376 0.23202 0.45793 0.0
H839 H 0.54991 0.22242 0.42539 0.0
H840 H 0.47431 0.20028 0.47837 0.0
H841 H 0.52278 0.2993 0.48618 0.0
H842 H 0.51243 0.28626 0.4641 0.0
H843 H 0.5438 0.27599 0.47414 0.0
C844 C 0.48154 0.22617 0.42616 0.0
C845 C 0.50739 0.22228 0.41885 0.0
C846 C 0.47812 0.23186 0.44486 0.0
C847 C 0.50046 0.23412 0.4565 0.0
C848 C 0.52626 0.23098 0.44913 0.0
H849 H 0.55235 0.22033 0.56552 0.0
H850 H 0.54475 0.2289 0.53294 0.0
C851 C 0.5297 0.22521 0.43052 0.0
C852 C 0.49707 0.23687 0.47665 0.0
H853 H 0.51988 0.27218 0.5137 0.0
C854 C 0.4837 0.21632 0.48612 0.0
C855 C 0.50933 0.25784 0.48668 0.0
C856 C 0.52266 0.28124 0.47723 0.0
C857 C 0.4839 0.21515 0.5054 0.0
C858 C 0.49748 0.23534 0.51542 0.0
C859 C 0.50958 0.25668 0.50597 0.0
C860 C 0.50174 0.23305 0.5355 0.0
C861 C 0.47105 0.19145 0.51484 0.0
C862 C 0.48011 0.23329 0.54783 0.0
C863 C 0.48434 0.22828 0.56654 0.0
C864 C 0.51032 0.223 0.57322 0.0
C865 C 0.53204 0.22406 0.56089 0.0
C866 C 0.52777 0.22907 0.54224 0.0
H867 H 0.46537 0.17542 0.50497 0.0
H868 H 0.48485 0.1828 0.52526 0.0
H869 H 0.45263 0.19814 0.52206 0.0
H870 H 0.4599 0.23675 0.54291 0.0
H871 H 0.46716 0.2278 0.57564 0.0
H872 H 0.7877 0.46543 0.07321 0.0
H873 H 0.7806 0.46048 0.03999 0.0
H874 H 0.76839 0.54575 0.03517 0.0
H875 H 0.77567 0.55101 0.06814 0.0
H876 H 0.73735 0.47866 0.01406 0.0
H877 H 0.83639 0.52735 0.00371 0.0
H878 H 0.82605 0.51366 0.02557 0.0
H879 H 0.8138 0.54579 0.0182 0.0
C880 C 0.78304 0.48306 0.06513 0.0
C881 C 0.78272 0.50868 0.07326 0.0
C882 C 0.77895 0.48017 0.04618 0.0
C883 C 0.77439 0.50281 0.03518 0.0
C884 C 0.77225 0.5281 0.04345 0.0
H885 H 0.77457 0.54986 0.92287 0.0
H886 H 0.76783 0.54516 0.95591 0.0
C887 C 0.77648 0.53105 0.06228 0.0
C888 C 0.77445 0.50071 0.01492 0.0
H889 H 0.80931 0.5216 0.97724 0.0
C890 C 0.75313 0.48781 0.00593 0.0
C891 C 0.79526 0.51245 0.00447 0.0
C892 C 0.81932 0.52539 0.01344 0.0
C893 C 0.75154 0.48743 0.98661 0.0
C894 C 0.7719 0.50009 0.97623 0.0
C895 C 0.79358 0.51218 0.98528 0.0
C896 C 0.77114 0.50192 0.95595 0.0
C897 C 0.72781 0.47433 0.97743 0.0
C898 C 0.77455 0.47904 0.94497 0.0
C899 C 0.7784 0.48164 0.92598 0.0
C900 C 0.77921 0.50719 0.91778 0.0
C901 C 0.77437 0.5299 0.92875 0.0
C902 C 0.77041 0.52727 0.94763 0.0
H903 H 0.71155 0.46968 0.98738 0.0
H904 H 0.71965 0.48749 0.96645 0.0
H905 H 0.73433 0.45531 0.97091 0.0
H906 H 0.77559 0.45934 0.95119 0.0
H907 H 0.78213 0.46376 0.91793 0.0
H908 H 0.54112 0.77711 0.57192 0.0
H909 H 0.54693 0.76825 0.53902 0.0
H910 H 0.46149 0.77439 0.53102 0.0
H911 H 0.45536 0.78288 0.56375 0.0
H912 H 0.48634 0.73151 0.51126 0.0
H913 H 0.53807 0.8295 0.5012 0.0
H914 H 0.55214 0.80716 0.51803 0.0
H915 H 0.51972 0.82173 0.52191 0.0
C916 C 0.52352 0.77626 0.56321 0.0
C917 C 0.49779 0.78105 0.57048 0.0
C918 C 0.52692 0.77131 0.54441 0.0
C919 C 0.50467 0.77109 0.53259 0.0
C920 C 0.47892 0.77458 0.53993 0.0
H921 H 0.45185 0.78005 0.4231 0.0
H922 H 0.45917 0.77102 0.45563 0.0
C923 C 0.47549 0.77955 0.55866 0.0
C924 C 0.50797 0.76885 0.51242 0.0
H925 H 0.52851 0.8043 0.47483 0.0
C926 C 0.49589 0.74721 0.50327 0.0
C927 C 0.52053 0.78934 0.50208 0.0
C928 C 0.53324 0.81338 0.51121 0.0
C929 C 0.49524 0.74598 0.484 0.0
C930 C 0.50657 0.76717 0.47367 0.0
C931 C 0.51985 0.78809 0.48281 0.0
C932 C 0.50244 0.7696 0.45357 0.0
C933 C 0.48203 0.72225 0.47486 0.0
C934 C 0.52437 0.77202 0.4416 0.0
C935 C 0.52027 0.77736 0.42292 0.0
C936 C 0.49414 0.78073 0.41595 0.0
C937 C 0.47224 0.77764 0.42796 0.0
C938 C 0.47637 0.77221 0.44657 0.0
H939 H 0.48246 0.70429 0.4839 0.0
H940 H 0.46072 0.72713 0.47202 0.0
H941 H 0.49195 0.71726 0.46162 0.0
H942 H 0.54466 0.77032 0.44679 0.0
H943 H 0.5376 0.77967 0.41408 0.0
H944 H 0.23082 0.4655 0.41654 0.0
H945 H 0.24102 0.45979 0.44925 0.0
H946 H 0.22963 0.54452 0.45801 0.0
H947 H 0.21985 0.55059 0.42545 0.0
H948 H 0.27424 0.5224 0.47721 0.0
H949 H 0.1803 0.46369 0.48763 0.0
H950 H 0.20342 0.45142 0.47064 0.0
H951 H 0.18643 0.48268 0.46694 0.0
C952 C 0.23079 0.48299 0.42537 0.0
C953 C 0.22414 0.50846 0.41838 0.0
C954 C 0.23653 0.47963 0.44407 0.0
C955 C 0.23564 0.50166 0.45605 0.0
C956 C 0.23032 0.52725 0.44897 0.0
H957 H 0.22347 0.55491 0.56469 0.0
H958 H 0.23359 0.54733 0.53237 0.0
C959 C 0.22461 0.53065 0.43034 0.0
C960 C 0.23848 0.49822 0.47617 0.0
H961 H 0.20482 0.47529 0.51387 0.0
C962 C 0.25931 0.51175 0.48524 0.0
C963 C 0.21905 0.48418 0.48658 0.0
C964 C 0.1959 0.46977 0.47755 0.0
C965 C 0.26062 0.51253 0.50451 0.0
C966 C 0.24029 0.49985 0.51491 0.0
C967 C 0.22036 0.48501 0.50584 0.0
C968 C 0.23738 0.50427 0.53495 0.0
C969 C 0.28342 0.52742 0.51354 0.0
C970 C 0.23587 0.48252 0.54715 0.0
C971 C 0.22984 0.48675 0.56572 0.0
C972 C 0.22488 0.51281 0.57233 0.0
C973 C 0.2271 0.53457 0.56011 0.0
C974 C 0.23318 0.53031 0.54162 0.0
H975 H 0.30146 0.52773 0.50458 0.0
H976 H 0.27729 0.54851 0.51598 0.0
H977 H 0.28886 0.51828 0.52696 0.0
H978 H 0.23879 0.46223 0.54221 0.0
H979 H 0.22826 0.46953 0.57472 0.0
H980 H 0.45101 0.22602 0.92329 0.0
H981 H 0.45668 0.2343 0.95617 0.0
H982 H 0.54193 0.22224 0.95093 0.0
H983 H 0.53654 0.214 0.91792 0.0
H984 H 0.51436 0.18914 0.97777 0.0
H985 H 0.4911 0.29734 0.98594 0.0
H986 H 0.46812 0.27901 0.9716 0.0
H987 H 0.50236 0.283 0.96444 0.0
C988 C 0.47104 0.22554 0.92904 0.0
C989 C 0.49332 0.21921 0.91799 0.0
C990 C 0.47425 0.23048 0.94781 0.0
C991 C 0.49974 0.22913 0.95589 0.0
C992 C 0.52213 0.2236 0.94486 0.0
H993 H 0.53566 0.21839 0.07379 0.0
H994 H 0.54134 0.22563 0.04071 0.0
C995 C 0.51899 0.21893 0.92602 0.0
C996 C 0.5024 0.23052 0.97612 0.0
H997 H 0.48994 0.27058 0.01322 0.0
C998 C 0.50953 0.20706 0.98555 0.0
C999 C 0.49591 0.25392 0.98613 0.0
C1000 C 0.48915 0.27986 0.97655 0.0
C1001 C 0.50918 0.20602 0.00481 0.0
C1002 C 0.5019 0.22918 0.01484 0.0
C1003 C 0.49556 0.25291 0.00544 0.0
C1004 C 0.49887 0.2283 0.03504 0.0
C1005 C 0.5153 0.17983 0.01433 0.0
C1006 C 0.47313 0.22821 0.04276 0.0
C1007 C 0.46977 0.22396 0.0616 0.0
C1008 C 0.49214 0.2199 0.07307 0.0
C1009 C 0.518 0.2214 0.06537 0.0
C1010 C 0.52131 0.22548 0.04648 0.0
H1011 H 0.5172 0.16292 0.00447 0.0
H1012 H 0.53443 0.18171 0.02202 0.0
H1013 H 0.49929 0.17495 0.02441 0.0
H1014 H 0.45559 0.23039 0.0341 0.0
H1015 H 0.44959 0.22316 0.06708 0.0
H1016 H 0.78037 0.45193 0.4248 0.0
H1017 H 0.77058 0.45906 0.45723 0.0
H1018 H 0.76729 0.54446 0.44824 0.0
H1019 H 0.77744 0.5376 0.41563 0.0
H1020 H 0.80124 0.52975 0.47641 0.0
H1021 H 0.70307 0.47996 0.48524 0.0
H1022 H 0.72668 0.45889 0.47352 0.0
H1023 H 0.71586 0.48971 0.46297 0.0
C1024 C 0.77722 0.47226 0.42959 0.0
C1025 C 0.77985 0.49421 0.41758 0.0
C1026 C 0.77134 0.47626 0.44814 0.0
C1027 C 0.76779 0.50225 0.45508 0.0
C1028 C 0.76971 0.52422 0.44309 0.0
H1029 H 0.77498 0.53919 0.57371 0.0
H1030 H 0.76508 0.54552 0.541 0.0
C1031 C 0.77552 0.52024 0.42447 0.0
C1032 C 0.76503 0.50633 0.47516 0.0
H1033 H 0.73029 0.48426 0.51265 0.0
C1034 C 0.78539 0.52038 0.48435 0.0
C1035 C 0.7443 0.4941 0.48544 0.0
C1036 C 0.72109 0.48006 0.47625 0.0
C1037 C 0.78666 0.52088 0.50362 0.0
C1038 C 0.76676 0.50732 0.51391 0.0
C1039 C 0.74556 0.49455 0.50471 0.0
C1040 C 0.76937 0.50358 0.53401 0.0
C1041 C 0.81022 0.53442 0.51279 0.0
C1042 C 0.77397 0.47779 0.54097 0.0
C1043 C 0.77952 0.47405 0.5596 0.0
C1044 C 0.78053 0.49608 0.57167 0.0
C1045 C 0.77457 0.5218 0.56479 0.0
C1046 C 0.76901 0.5255 0.5461 0.0
H1047 H 0.82604 0.54015 0.50278 0.0
H1048 H 0.80326 0.55289 0.51982 0.0
H1049 H 0.81924 0.52105 0.52333 0.0
H1050 H 0.77425 0.4606 0.53185 0.0
H1051 H 0.78374 0.45393 0.5644 0.0
H1052 H 0.46324 0.77529 0.07276 0.0
H1053 H 0.45705 0.76497 0.0401 0.0
H1054 H 0.5427 0.7672 0.03209 0.0
H1055 H 0.54915 0.77717 0.06456 0.0
H1056 H 0.47292 0.79875 0.01208 0.0
H1057 H 0.52157 0.69992 0.00383 0.0
H1058 H 0.51148 0.71287 0.02599 0.0
H1059 H 0.54265 0.72334 0.01575 0.0
C1060 C 0.4808 0.77308 0.06412 0.0
C1061 C 0.5067 0.7772 0.07129 0.0
C1062 C 0.4772 0.76718 0.04547 0.0
C1063 C 0.49942 0.76495 0.03373 0.0
C1064 C 0.52529 0.76822 0.04097 0.0
H1065 H 0.54931 0.77897 0.92429 0.0
H1066 H 0.54233 0.77008 0.95689 0.0
C1067 C 0.52891 0.7742 0.05954 0.0
C1068 C 0.49577 0.76222 0.0136 0.0
H1069 H 0.51792 0.72698 0.97634 0.0
C1070 C 0.48219 0.78274 0.00425 0.0
C1071 C 0.5079 0.7413 0.00346 0.0
C1072 C 0.52148 0.71797 0.0128 0.0
C1073 C 0.48201 0.78391 0.98497 0.0
C1074 C 0.49539 0.76374 0.97482 0.0
C1075 C 0.50775 0.74245 0.98417 0.0
C1076 C 0.49927 0.76607 0.9547 0.0
C1077 C 0.46897 0.80761 0.97566 0.0
C1078 C 0.47739 0.76599 0.94257 0.0
C1079 C 0.48126 0.7712 0.92384 0.0
C1080 C 0.50712 0.77652 0.91696 0.0
C1081 C 0.52909 0.77523 0.92909 0.0
C1082 C 0.52517 0.77004 0.94774 0.0
H1083 H 0.46354 0.82366 0.98558 0.0
H1084 H 0.48252 0.81625 0.96508 0.0
H1085 H 0.45036 0.80092 0.96866 0.0
H1086 H 0.45727 0.76253 0.94765 0.0
H1087 H 0.46392 0.77184 0.91489 0.0
H1088 H 0.26941 0.40395 0.11163 0.0
H1089 H 0.29386 0.3631 0.10462 0.0
H1090 H 0.21955 0.32222 0.09304 0.0
H1091 H 0.19454 0.36367 0.10006 0.0
H1092 H 0.25637 0.29513 0.11839 0.0
H1093 H 0.30737 0.32636 0.05442 0.0
H1094 H 0.30934 0.35155 0.072 0.0
H1095 H 0.27716 0.34238 0.06268 0.0
C1096 C 0.25814 0.38641 0.10745 0.0
C1097 C 0.23 0.38704 0.10643 0.0
C1098 C 0.27221 0.36309 0.1033 0.0
C1099 C 0.25858 0.33974 0.09804 0.0
C1100 C 0.23045 0.34015 0.09689 0.0
H1101 H 0.36206 0.19387 0.09921 0.0
H1102 H 0.32099 0.21941 0.09207 0.0
C1103 C 0.21622 0.36378 0.10088 0.0
C1104 C 0.27428 0.31486 0.09512 0.0
H1105 H 0.33072 0.29334 0.0731 0.0
C1106 C 0.27207 0.29414 0.1081 0.0
C1107 C 0.29468 0.31361 0.08164 0.0
C1108 C 0.29713 0.33456 0.06678 0.0
C1109 C 0.29138 0.27362 0.10905 0.0
C1110 C 0.3132 0.27387 0.09663 0.0
C1111 C 0.31401 0.29324 0.08265 0.0
C1112 C 0.33766 0.25776 0.10006 0.0
C1113 C 0.28971 0.25318 0.12429 0.0
C1114 C 0.36053 0.27091 0.10666 0.0
C1115 C 0.38369 0.25654 0.11077 0.0
C1116 C 0.38466 0.2286 0.10827 0.0
C1117 C 0.36189 0.21537 0.1013 0.0
C1118 C 0.33845 0.22988 0.09727 0.0
H1119 H 0.27174 0.25609 0.13309 0.0
H1120 H 0.28898 0.23272 0.11831 0.0
H1121 H 0.30791 0.25442 0.13305 0.0
H1122 H 0.36032 0.29239 0.10891 0.0
H1123 H 0.40086 0.26743 0.11602 0.0
H1124 H 0.81047 0.365 0.59876 0.0
H1125 H 0.78481 0.32389 0.59177 0.0
H1126 H 0.71128 0.36535 0.60452 0.0
H1127 H 0.73635 0.40584 0.61152 0.0
H1128 H 0.74788 0.29686 0.61746 0.0
H1129 H 0.69662 0.32969 0.55394 0.0
H1130 H 0.72727 0.34503 0.56208 0.0
H1131 H 0.69544 0.35466 0.5717 0.0
C1132 C 0.78881 0.3653 0.59986 0.0
C1133 C 0.77543 0.38862 0.60571 0.0
C1134 C 0.77423 0.34187 0.59589 0.0
C1135 C 0.74612 0.34174 0.59737 0.0
C1136 C 0.73289 0.36513 0.60296 0.0
H1137 H 0.60283 0.27038 0.6151 0.0
H1138 H 0.64349 0.29527 0.60806 0.0
C1139 C 0.74733 0.38825 0.60709 0.0
C1140 C 0.73005 0.31711 0.59437 0.0
H1141 H 0.67313 0.29662 0.57244 0.0
C1142 C 0.73208 0.2962 0.60722 0.0
C1143 C 0.70951 0.31632 0.58098 0.0
C1144 C 0.70721 0.33752 0.56627 0.0
C1145 C 0.71249 0.27593 0.60813 0.0
C1146 C 0.69059 0.27661 0.59578 0.0
C1147 C 0.68991 0.29619 0.58194 0.0
C1148 C 0.66602 0.26061 0.59911 0.0
C1149 C 0.71402 0.25527 0.62323 0.0
C1150 C 0.6651 0.23277 0.59622 0.0
C1151 C 0.64161 0.21831 0.60021 0.0
C1152 C 0.6189 0.23156 0.60724 0.0
C1153 C 0.61996 0.25948 0.60981 0.0
C1154 C 0.64319 0.27381 0.60573 0.0
H1155 H 0.73196 0.25801 0.6321 0.0
H1156 H 0.69579 0.2564 0.63196 0.0
H1157 H 0.71474 0.2349 0.61711 0.0
H1158 H 0.68251 0.22227 0.591 0.0
H1159 H 0.64137 0.19682 0.59808 0.0
H1160 H 0.80698 0.63785 0.09569 0.0
H1161 H 0.78102 0.67837 0.08786 0.0
H1162 H 0.70971 0.64159 0.10995 0.0
H1163 H 0.73505 0.60156 0.11765 0.0
H1164 H 0.70453 0.66658 0.07346 0.0
H1165 H 0.7496 0.73314 0.12685 0.0
H1166 H 0.77099 0.71435 0.11157 0.0
H1167 H 0.75185 0.69711 0.12876 0.0
C1168 C 0.78576 0.63848 0.09881 0.0
C1169 C 0.77311 0.61653 0.10735 0.0
C1170 C 0.77101 0.66162 0.09439 0.0
C1171 C 0.74348 0.66297 0.09842 0.0
C1172 C 0.73091 0.64094 0.1067 0.0
H1173 H 0.59928 0.73255 0.11466 0.0
H1174 H 0.63969 0.7076 0.10736 0.0
C1175 C 0.74551 0.61806 0.11115 0.0
C1176 C 0.72708 0.68707 0.09444 0.0
H1177 H 0.70873 0.74673 0.11376 0.0
C1178 C 0.7059 0.6845 0.08187 0.0
C1179 C 0.72901 0.7105 0.10532 0.0
C1180 C 0.75151 0.71417 0.11895 0.0
C1181 C 0.6854 0.7037 0.08097 0.0
C1182 C 0.68592 0.7258 0.09314 0.0
C1183 C 0.70836 0.72969 0.10449 0.0
C1184 C 0.6614 0.74178 0.0967 0.0
C1185 C 0.66245 0.6993 0.0678 0.0
C1186 C 0.66031 0.76953 0.09342 0.0
C1187 C 0.63693 0.78406 0.0976 0.0
C1188 C 0.61461 0.77102 0.10538 0.0
C1189 C 0.61602 0.74328 0.10866 0.0
C1190 C 0.6391 0.72889 0.10439 0.0
H1191 H 0.66886 0.68727 0.05572 0.0
H1192 H 0.64627 0.68807 0.07493 0.0
H1193 H 0.65408 0.71866 0.06292 0.0
H1194 H 0.67745 0.77987 0.08765 0.0
H1195 H 0.63646 0.80543 0.09499 0.0
H1196 H 0.19635 0.64578 0.599 0.0
H1197 H 0.22192 0.68673 0.59155 0.0
H1198 H 0.29584 0.64392 0.60066 0.0
H1199 H 0.27081 0.60354 0.60815 0.0
H1200 H 0.26053 0.71216 0.61631 0.0
H1201 H 0.30756 0.68205 0.5507 0.0
H1202 H 0.2774 0.66644 0.55942 0.0
H1203 H 0.30979 0.65619 0.5678 0.0
C1204 C 0.21806 0.64513 0.59916 0.0
C1205 C 0.23159 0.6215 0.6042 0.0
C1206 C 0.23259 0.66847 0.59492 0.0
C1207 C 0.26077 0.66821 0.59529 0.0
C1208 C 0.27414 0.64445 0.59995 0.0
H1209 H 0.40513 0.73604 0.61198 0.0
H1210 H 0.36373 0.71245 0.60487 0.0
C1211 C 0.25976 0.62141 0.60437 0.0
C1212 C 0.27683 0.69285 0.59233 0.0
H1213 H 0.33273 0.71378 0.5694 0.0
C1214 C 0.27574 0.71315 0.60568 0.0
C1215 C 0.29657 0.6941 0.57841 0.0
C1216 C 0.29776 0.67364 0.56315 0.0
C1217 C 0.29561 0.73315 0.60653 0.0
C1218 C 0.31683 0.73279 0.59364 0.0
C1219 C 0.31647 0.71394 0.57932 0.0
C1220 C 0.34188 0.74803 0.59688 0.0
C1221 C 0.29519 0.75306 0.62214 0.0
C1222 C 0.34341 0.77596 0.59455 0.0
C1223 C 0.36733 0.78966 0.59857 0.0
C1224 C 0.38984 0.77555 0.6051 0.0
C1225 C 0.38817 0.74757 0.60709 0.0
C1226 C 0.36452 0.734 0.60297 0.0
H1227 H 0.27748 0.75038 0.63122 0.0
H1228 H 0.31367 0.75092 0.63054 0.0
H1229 H 0.29489 0.77375 0.61653 0.0
H1230 H 0.32613 0.7871 0.58976 0.0
H1231 H 0.36806 0.81122 0.59689 0.0
H1232 H 0.36162 0.80722 0.38926 0.0
H1233 H 0.32059 0.78177 0.39665 0.0
H1234 H 0.36233 0.70785 0.38547 0.0
H1235 H 0.40282 0.73277 0.37808 0.0
H1236 H 0.2937 0.74437 0.37175 0.0
H1237 H 0.32615 0.69461 0.43588 0.0
H1238 H 0.3418 0.72485 0.42733 0.0
H1239 H 0.35115 0.69264 0.41819 0.0
C1240 C 0.36203 0.78553 0.38861 0.0
C1241 C 0.38542 0.772 0.38307 0.0
C1242 C 0.33863 0.77106 0.39281 0.0
C1243 C 0.33857 0.74291 0.39187 0.0
C1244 C 0.36205 0.72951 0.38662 0.0
H1245 H 0.26759 0.59992 0.37487 0.0
H1246 H 0.29209 0.64088 0.38162 0.0
C1247 C 0.38517 0.74385 0.38227 0.0
C1248 C 0.31389 0.72697 0.39502 0.0
H1249 H 0.29309 0.67069 0.41757 0.0
C1250 C 0.29297 0.72882 0.38216 0.0
C1251 C 0.31297 0.70678 0.40866 0.0
C1252 C 0.33411 0.70474 0.42342 0.0
C1253 C 0.27258 0.70933 0.38147 0.0
C1254 C 0.27317 0.6877 0.39404 0.0
C1255 C 0.29273 0.68726 0.4079 0.0
C1256 C 0.25732 0.66301 0.39081 0.0
C1257 C 0.25191 0.71061 0.36637 0.0
C1258 C 0.22953 0.6618 0.3939 0.0
C1259 C 0.21528 0.63811 0.39008 0.0
C1260 C 0.2287 0.61553 0.38301 0.0
C1261 C 0.25655 0.61694 0.3802 0.0
C1262 C 0.27066 0.64034 0.38411 0.0
H1263 H 0.25439 0.72862 0.35753 0.0
H1264 H 0.25336 0.69242 0.35761 0.0
H1265 H 0.23151 0.71096 0.37246 0.0
H1266 H 0.21892 0.67911 0.39917 0.0
H1267 H 0.19384 0.6376 0.39239 0.0
H1268 H 0.40429 0.26783 0.8771 0.0
H1269 H 0.36414 0.29367 0.88374 0.0
H1270 H 0.32109 0.22094 0.89627 0.0
H1271 H 0.36179 0.19453 0.88963 0.0
H1272 H 0.29497 0.25788 0.87055 0.0
H1273 H 0.32808 0.3094 0.9339 0.0
H1274 H 0.35315 0.31024 0.9162 0.0
H1275 H 0.34317 0.27857 0.92591 0.0
C1276 C 0.38641 0.2572 0.88141 0.0
C1277 C 0.38622 0.2291 0.88283 0.0
C1278 C 0.36349 0.27207 0.88534 0.0
C1279 C 0.33976 0.25928 0.89077 0.0
C1280 C 0.33934 0.23119 0.89228 0.0
H1281 H 0.19557 0.36496 0.88967 0.0
H1282 H 0.22085 0.32371 0.89666 0.0
C1283 C 0.36254 0.21617 0.88851 0.0
C1284 C 0.31535 0.27576 0.89357 0.0
H1285 H 0.2953 0.33302 0.91525 0.0
C1286 C 0.29445 0.2738 0.8807 0.0
C1287 C 0.31473 0.29643 0.90687 0.0
C1288 C 0.33587 0.29866 0.92163 0.0
C1289 C 0.27434 0.29352 0.8797 0.0
C1290 C 0.27518 0.31552 0.89196 0.0
C1291 C 0.29476 0.31618 0.90581 0.0
C1292 C 0.25926 0.34012 0.8886 0.0
C1293 C 0.25366 0.29199 0.86461 0.0
C1294 C 0.27255 0.36293 0.88202 0.0
C1295 C 0.25831 0.38623 0.878 0.0
C1296 C 0.2304 0.38737 0.88058 0.0
C1297 C 0.21705 0.36465 0.88752 0.0
C1298 C 0.23142 0.34111 0.89146 0.0
H1299 H 0.25637 0.27406 0.85574 0.0
H1300 H 0.2333 0.29126 0.87074 0.0
H1301 H 0.25479 0.31023 0.85588 0.0
H1302 H 0.29401 0.36258 0.87971 0.0
H1303 H 0.26928 0.40335 0.87277 0.0
H1304 H 0.63886 0.19449 0.39137 0.0
H1305 H 0.67988 0.22002 0.39867 0.0
H1306 H 0.63772 0.2939 0.38814 0.0
H1307 H 0.59724 0.2689 0.38083 0.0
H1308 H 0.70618 0.2575 0.37375 0.0
H1309 H 0.6748 0.30708 0.43819 0.0
H1310 H 0.659 0.27687 0.42971 0.0
H1311 H 0.6495 0.30913 0.4207 0.0
C1312 C 0.63836 0.21618 0.39085 0.0
C1313 C 0.61486 0.22969 0.38549 0.0
C1314 C 0.66175 0.2307 0.395 0.0
C1315 C 0.66169 0.25886 0.39422 0.0
C1316 C 0.63809 0.27223 0.38919 0.0
H1317 H 0.73303 0.40229 0.37751 0.0
H1318 H 0.70817 0.36168 0.3847 0.0
C1319 C 0.61499 0.25785 0.38487 0.0
C1320 C 0.68639 0.27484 0.3972 0.0
H1321 H 0.70754 0.33107 0.41965 0.0
C1322 C 0.70707 0.27304 0.38417 0.0
C1323 C 0.68751 0.29502 0.41084 0.0
C1324 C 0.66662 0.297 0.42577 0.0
C1325 C 0.72742 0.29255 0.38332 0.0
C1326 C 0.72705 0.31414 0.39593 0.0
C1327 C 0.70772 0.31455 0.40995 0.0
C1328 C 0.74305 0.33875 0.39272 0.0
C1329 C 0.74779 0.2913 0.36802 0.0
C1330 C 0.77101 0.33944 0.39506 0.0
C1331 C 0.78545 0.3629 0.39098 0.0
C1332 C 0.77206 0.38579 0.38439 0.0
C1333 C 0.74403 0.38499 0.38243 0.0
C1334 C 0.72972 0.3618 0.38661 0.0
H1335 H 0.74467 0.27372 0.35889 0.0
H1336 H 0.74675 0.30985 0.3596 0.0
H1337 H 0.76826 0.2901 0.37396 0.0
H1338 H 0.78162 0.32185 0.39989 0.0
H1339 H 0.80703 0.36295 0.39263 0.0
H1340 H 0.80721 0.63734 0.89088 0.0
H1341 H 0.78146 0.6782 0.89824 0.0
H1342 H 0.7082 0.63735 0.88384 0.0
H1343 H 0.73338 0.59708 0.87646 0.0
H1344 H 0.74499 0.70635 0.87268 0.0
H1345 H 0.69267 0.67078 0.9351 0.0
H1346 H 0.7235 0.65588 0.92693 0.0
H1347 H 0.69188 0.64658 0.91683 0.0
C1348 C 0.7856 0.63711 0.88946 0.0
C1349 C 0.77234 0.61401 0.88307 0.0
C1350 C 0.77096 0.6604 0.89366 0.0
C1351 C 0.7429 0.66062 0.89184 0.0
C1352 C 0.72977 0.63748 0.88565 0.0
H1353 H 0.59987 0.73153 0.87443 0.0
H1354 H 0.64062 0.70689 0.88147 0.0
C1355 C 0.74427 0.61449 0.88131 0.0
C1356 C 0.72679 0.68512 0.8952 0.0
H1357 H 0.66954 0.70464 0.9171 0.0
C1358 C 0.72903 0.70657 0.8828 0.0
C1359 C 0.70605 0.68534 0.90846 0.0
C1360 C 0.70351 0.66351 0.92271 0.0
C1361 C 0.70945 0.72686 0.88214 0.0
C1362 C 0.68734 0.72563 0.89429 0.0
C1363 C 0.68647 0.7055 0.90776 0.0
C1364 C 0.6627 0.74153 0.89098 0.0
C1365 C 0.71121 0.74814 0.86746 0.0
C1366 C 0.66149 0.7693 0.89417 0.0
C1367 C 0.63793 0.78363 0.89017 0.0
C1368 C 0.61545 0.77033 0.88283 0.0
C1369 C 0.61681 0.74248 0.87996 0.0
C1370 C 0.6401 0.72829 0.88404 0.0
H1371 H 0.72932 0.74581 0.8587 0.0
H1372 H 0.69314 0.74731 0.85855 0.0
H1373 H 0.71178 0.76825 0.87398 0.0
H1374 H 0.67872 0.77984 0.89964 0.0
H1375 H 0.63744 0.80506 0.89254 0.0
loop_
_geom_bond_atom_site_label_1
_geom_bond_atom_site_label_2
_geom_bond_distance
_geom_bond_site_symmetry_2
_ccdc_geom_bond_type
Co0 O1 2.216 . S
Co0 O2 2.091 . S
Co0 O4 2.004 . S
Co0 O10 2.021 . S
Co0 O12 2.137 . S
Co0 O13 2.244 . S
O1 Co0 2.216 . S
O1 C8 1.247 . S
O2 Co0 2.091 . S
O2 C8 1.261 . S
C3 O12 1.247 . S
C3 O13 1.272 . S
O4 Co0 2.004 . S
O4 C9 1.259 . S
Co5 O6 2.061 . S
Co5 O11 2.052 . S
Co5 O13 2.135 . S
O6 Co5 2.061 . S
O6 C9 1.235 . S
C7 O10 1.238 . S
C7 O11 1.241 . S
C8 O1 1.247 . S
C8 O2 1.261 . S
C9 O4 1.259 . S
C9 O6 1.235 . S
O10 Co0 2.021 . S
O10 C7 1.238 . S
O11 Co5 2.052 . S
O11 C7 1.241 . S
O12 Co0 2.137 . S
O12 C3 1.247 . S
O13 Co0 2.244 . S
O13 C3 1.272 . S
O13 Co5 2.135 . S
Co14 O15 2.216 . S
Co14 O16 2.091 . S
Co14 O18 2.004 . S
Co14 O24 2.021 . S
Co14 O26 2.137 . S
Co14 O27 2.244 . S
O15 Co14 2.216 . S
O15 C22 1.247 . S
O16 Co14 2.091 . S
O16 C22 1.261 . S
C17 O26 1.247 . S
C17 O27 1.272 . S
O18 Co14 2.004 . S
O18 C23 1.259 . S
Co19 O20 2.061 . S
Co19 O25 2.052 . S
Co19 O27 2.135 . S
O20 Co19 2.061 . S
O20 C23 1.235 . S
C21 O24 1.238 . S
C21 O25 1.241 . S
C22 O15 1.247 . S
C22 O16 1.261 . S
C23 O18 1.259 . S
C23 O20 1.235 . S
O24 Co14 2.021 . S
O24 C21 1.238 . S
O25 Co19 2.052 . S
O25 C21 1.241 . S
O26 Co14 2.137 . S
O26 C17 1.247 . S
O27 Co14 2.244 . S
O27 C17 1.272 . S
O27 Co19 2.135 . S
Co28 O29 2.216 . S
Co28 O30 2.091 . S
Co28 O32 2.004 . S
Co28 O38 2.021 . S
Co28 O40 2.137 . S
Co28 O41 2.244 . S
O29 Co28 2.216 . S
O29 C36 1.247 . S
O30 Co28 2.091 . S
O30 C36 1.261 . S
C31 O40 1.247 . S
C31 O41 1.272 . S
O32 Co28 2.004 . S
O32 C37 1.259 . S
Co33 O34 2.061 . S
Co33 O39 2.052 . S
Co33 O41 2.135 . S
O34 Co33 2.061 . S
O34 C37 1.235 . S
C35 O38 1.238 . S
C35 O39 1.241 . S
C36 O29 1.247 . S
C36 O30 1.261 . S
C37 O32 1.259 . S
C37 O34 1.235 . S
O38 Co28 2.021 . S
O38 C35 1.238 . S
O39 Co33 2.052 . S
O39 C35 1.241 . S
O40 Co28 2.137 . S
O40 C31 1.247 . S
O41 Co28 2.244 . S
O41 C31 1.272 . S
O41 Co33 2.135 . S
Co42 O43 2.216 . S
Co42 O44 2.091 . S
Co42 O46 2.004 . S
Co42 O52 2.021 . S
Co42 O54 2.137 . S
Co42 O55 2.244 . S
O43 Co42 2.216 . S
O43 C50 1.247 . S
O44 Co42 2.091 . S
O44 C50 1.261 . S
C45 O54 1.247 . S
C45 O55 1.272 . S
O46 Co42 2.004 . S
O46 C51 1.259 . S
Co47 O48 2.061 . S
Co47 O53 2.052 . S
Co47 O55 2.135 . S
O48 Co47 2.061 . S
O48 C51 1.235 . S
C49 O52 1.238 . S
C49 O53 1.241 . S
C50 O43 1.247 . S
C50 O44 1.261 . S
C51 O46 1.259 . S
C51 O48 1.235 . S
O52 Co42 2.021 . S
O52 C49 1.238 . S
O53 Co47 2.052 . S
O53 C49 1.241 . S
O54 Co42 2.137 . S
O54 C45 1.247 . S
O55 Co42 2.244 . S
O55 C45 1.272 . S
O55 Co47 2.135 . S
Co56 O57 2.216 . S
Co56 O58 2.091 . S
Co56 O60 2.004 . S
Co56 O66 2.021 . S
Co56 O68 2.137 . S
Co56 O69 2.244 . S
O57 Co56 2.216 . S
O57 C64 1.247 . S
O58 Co56 2.091 . S
O58 C64 1.261 . S
C59 O68 1.247 . S
C59 O69 1.272 . S
O60 Co56 2.004 . S
O60 C65 1.259 . S
Co61 O62 2.061 . S
Co61 O67 2.052 . S
Co61 O69 2.135 . S
O62 Co61 2.061 . S
O62 C65 1.235 . S
C63 O66 1.238 . S
C63 O67 1.241 . S
C64 O57 1.247 . S
C64 O58 1.261 . S
C65 O60 1.259 . S
C65 O62 1.235 . S
O66 Co56 2.021 . S
O66 C63 1.238 . S
O67 Co61 2.052 . S
O67 C63 1.241 . S
O68 Co56 2.137 . S
O68 C59 1.247 . S
O69 Co56 2.244 . S
O69 C59 1.272 . S
O69 Co61 2.135 . S
Co70 O71 2.216 . S
Co70 O72 2.091 . S
Co70 O74 2.004 . S
Co70 O80 2.021 . S
Co70 O82 2.137 . S
Co70 O83 2.244 . S
O71 Co70 2.216 . S
O71 C78 1.247 . S
O72 Co70 2.091 . S
O72 C78 1.261 . S
C73 O82 1.247 . S
C73 O83 1.272 . S
O74 Co70 2.004 . S
O74 C79 1.259 . S
Co75 O76 2.061 . S
Co75 O81 2.052 . S
Co75 O83 2.135 . S
O76 Co75 2.061 . S
O76 C79 1.235 . S
C77 O80 1.238 . S
C77 O81 1.241 . S
C78 O71 1.247 . S
C78 O72 1.261 . S
C79 O74 1.259 . S
C79 O76 1.235 . S
O80 Co70 2.021 . S
O80 C77 1.238 . S
O81 Co75 2.052 . S
O81 C77 1.241 . S
O82 Co70 2.137 . S
O82 C73 1.247 . S
O83 Co70 2.244 . S
O83 C73 1.272 . S
O83 Co75 2.135 . S
Co84 O85 2.216 . S
Co84 O86 2.091 . S
Co84 O88 2.004 . S
Co84 O94 2.021 . S
Co84 O96 2.137 . S
Co84 O97 2.244 . S
O85 Co84 2.216 . S
O85 C92 1.247 . S
O86 Co84 2.091 . S
O86 C92 1.261 . S
C87 O96 1.247 . S
C87 O97 1.272 . S
O88 Co84 2.004 . S
O88 C93 1.259 . S
Co89 O90 2.061 . S
Co89 O95 2.052 . S
Co89 O97 2.135 . S
O90 Co89 2.061 . S
O90 C93 1.235 . S
C91 O94 1.238 . S
C91 O95 1.241 . S
C92 O85 1.247 . S
C92 O86 1.261 . S
C93 O88 1.259 . S
C93 O90 1.235 . S
O94 Co84 2.021 . S
O94 C91 1.238 . S
O95 Co89 2.052 . S
O95 C91 1.241 . S
O96 Co84 2.137 . S
O96 C87 1.247 . S
O97 Co84 2.244 . S
O97 C87 1.272 . S
O97 Co89 2.135 . S
Co98 O99 2.216 . S
Co98 O100 2.091 . S
Co98 O102 2.004 . S
Co98 O108 2.021 . S
Co98 O110 2.137 . S
Co98 O111 2.244 . S
O99 Co98 2.216 . S
O99 C106 1.247 . S
O100 Co98 2.091 . S
O100 C106 1.261 . S
C101 O110 1.247 . S
C101 O111 1.272 . S
O102 Co98 2.004 . S
O102 C107 1.259 . S
Co103 O104 2.061 . S
Co103 O109 2.052 . S
Co103 O111 2.135 . S
O104 Co103 2.061 . S
O104 C107 1.235 . S
C105 O108 1.238 . S
C105 O109 1.241 . S
C106 O99 1.247 . S
C106 O100 1.261 . S
C107 O102 1.259 . S
C107 O104 1.235 . S
O108 Co98 2.021 . S
O108 C105 1.238 . S
O109 Co103 2.052 . S
O109 C105 1.241 . S
O110 Co98 2.137 . S
O110 C101 1.247 . S
O111 Co98 2.244 . S
O111 C101 1.272 . S
O111 Co103 2.135 . S
Co112 O113 2.216 . S
Co112 O114 2.091 . S
Co112 O116 2.004 . S
Co112 O122 2.021 . S
Co112 O124 2.137 . S
Co112 O125 2.244 . S
O113 Co112 2.216 . S
O113 C120 1.247 . S
O114 Co112 2.091 . S
O114 C120 1.261 . S
C115 O124 1.247 . S
C115 O125 1.272 . S
O116 Co112 2.004 . S
O116 C121 1.259 . S
Co117 O118 2.061 . S
Co117 O123 2.052 . S
Co117 O125 2.135 . S
O118 Co117 2.061 . S
O118 C121 1.235 . S
C119 O122 1.238 . S
C119 O123 1.241 . S
C120 O113 1.247 . S
C120 O114 1.261 . S
C121 O116 1.259 . S
C121 O118 1.235 . S
O122 Co112 2.021 . S
O122 C119 1.238 . S
O123 Co117 2.052 . S
O123 C119 1.241 . S
O124 Co112 2.137 . S
O124 C115 1.247 . S
O125 Co112 2.244 . S
O125 C115 1.272 . S
O125 Co117 2.135 . S
Co126 O127 2.216 . S
Co126 O128 2.091 . S
Co126 O130 2.004 . S
Co126 O136 2.021 . S
Co126 O138 2.137 . S
Co126 O139 2.244 . S
O127 Co126 2.216 . S
O127 C134 1.247 . S
O128 Co126 2.091 . S
O128 C134 1.261 . S
C129 O138 1.247 . S
C129 O139 1.272 . S
O130 Co126 2.004 . S
O130 C135 1.259 . S
Co131 O132 2.061 . S
Co131 O137 2.052 . S
Co131 O139 2.135 . S
O132 Co131 2.061 . S
O132 C135 1.235 . S
C133 O136 1.238 . S
C133 O137 1.241 . S
C134 O127 1.247 . S
C134 O128 1.261 . S
C135 O130 1.259 . S
C135 O132 1.235 . S
O136 Co126 2.021 . S
O136 C133 1.238 . S
O137 Co131 2.052 . S
O137 C133 1.241 . S
O138 Co126 2.137 . S
O138 C129 1.247 . S
O139 Co126 2.244 . S
O139 C129 1.272 . S
O139 Co131 2.135 . S
Co140 O141 2.216 . S
Co140 O142 2.091 . S
Co140 O144 2.004 . S
Co140 O150 2.021 . S
Co140 O152 2.137 . S
Co140 O153 2.244 . S
O141 Co140 2.216 . S
O141 C148 1.247 . S
O142 Co140 2.091 . S
O142 C148 1.261 . S
C143 O152 1.247 . S
C143 O153 1.272 . S
O144 Co140 2.004 . S
O144 C149 1.259 . S
Co145 O146 2.061 . S
Co145 O151 2.052 . S
Co145 O153 2.135 . S
O146 Co145 2.061 . S
O146 C149 1.235 . S
C147 O150 1.238 . S
C147 O151 1.241 . S
C148 O141 1.247 . S
C148 O142 1.261 . S
C149 O144 1.259 . S
C149 O146 1.235 . S
O150 Co140 2.021 . S
O150 C147 1.238 . S
O151 Co145 2.052 . S
O151 C147 1.241 . S
O152 Co140 2.137 . S
O152 C143 1.247 . S
O153 Co140 2.244 . S
O153 C143 1.272 . S
O153 Co145 2.135 . S
Co154 O155 2.216 . S
Co154 O156 2.091 . S
Co154 O158 2.004 . S
Co154 O164 2.021 . S
Co154 O166 2.137 . S
Co154 O167 2.244 . S
O155 Co154 2.216 . S
O155 C162 1.247 . S
O156 Co154 2.091 . S
O156 C162 1.261 . S
C157 O166 1.247 . S
C157 O167 1.272 . S
O158 Co154 2.004 . S
O158 C163 1.259 . S
Co159 O160 2.061 . S
Co159 O165 2.052 . S
Co159 O167 2.135 . S
O160 Co159 2.061 . S
O160 C163 1.235 . S
C161 O164 1.238 . S
C161 O165 1.241 . S
C162 O155 1.247 . S
C162 O156 1.261 . S
C163 O158 1.259 . S
C163 O160 1.235 . S
O164 Co154 2.021 . S
O164 C161 1.238 . S
O165 Co159 2.052 . S
O165 C161 1.241 . S
O166 Co154 2.137 . S
O166 C157 1.247 . S
O167 Co154 2.244 . S
O167 C157 1.272 . S
O167 Co159 2.135 . S
Co168 O169 2.216 . S
Co168 O170 2.091 . S
Co168 O172 2.004 . S
Co168 O178 2.021 . S
Co168 O180 2.137 . S
Co168 O181 2.244 . S
O169 Co168 2.216 . S
O169 C176 1.247 . S
O170 Co168 2.091 . S
O170 C176 1.261 . S
C171 O180 1.247 . S
C171 O181 1.272 . S
O172 Co168 2.004 . S
O172 C177 1.259 . S
Co173 O174 2.061 . S
Co173 O179 2.052 . S
Co173 O181 2.135 . S
O174 Co173 2.061 . S
O174 C177 1.235 . S
C175 O178 1.238 . S
C175 O179 1.241 . S
C176 O169 1.247 . S
C176 O170 1.261 . S
C177 O172 1.259 . S
C177 O174 1.235 . S
O178 Co168 2.021 . S
O178 C175 1.238 . S
O179 Co173 2.052 . S
O179 C175 1.241 . S
O180 Co168 2.137 . S
O180 C171 1.247 . S
O181 Co168 2.244 . S
O181 C171 1.272 . S
O181 Co173 2.135 . S
Co182 O183 2.216 . S
Co182 O184 2.091 . S
Co182 O186 2.004 . S
Co182 O192 2.021 . S
Co182 O194 2.137 . S
Co182 O195 2.244 . S
O183 Co182 2.216 . S
O183 C190 1.247 . S
O184 Co182 2.091 . S
O184 C190 1.261 . S
C185 O194 1.247 . S
C185 O195 1.272 . S
O186 Co182 2.004 . S
O186 C191 1.259 . S
Co187 O188 2.061 . S
Co187 O193 2.052 . S
Co187 O195 2.135 . S
O188 Co187 2.061 . S
O188 C191 1.235 . S
C189 O192 1.238 . S
C189 O193 1.241 . S
C190 O183 1.247 . S
C190 O184 1.261 . S
C191 O186 1.259 . S
C191 O188 1.235 . S
O192 Co182 2.021 . S
O192 C189 1.238 . S
O193 Co187 2.052 . S
O193 C189 1.241 . S
O194 Co182 2.137 . S
O194 C185 1.247 . S
O195 Co182 2.244 . S
O195 C185 1.272 . S
O195 Co187 2.135 . S
Co196 O197 2.216 . S
Co196 O198 2.091 . S
Co196 O200 2.004 . S
Co196 O206 2.021 . S
Co196 O208 2.137 . S
Co196 O209 2.244 . S
O197 Co196 2.216 . S
O197 C204 1.247 . S
O198 Co196 2.091 . S
O198 C204 1.261 . S
C199 O208 1.247 . S
C199 O209 1.272 . S
O200 Co196 2.004 . S
O200 C205 1.259 . S
Co201 O202 2.061 . S
Co201 O207 2.052 . S
Co201 O209 2.135 . S
O202 Co201 2.061 . S
O202 C205 1.235 . S
C203 O206 1.238 . S
C203 O207 1.241 . S
C204 O197 1.247 . S
C204 O198 1.261 . S
C205 O200 1.259 . S
C205 O202 1.235 . S
O206 Co196 2.021 . S
O206 C203 1.238 . S
O207 Co201 2.052 . S
O207 C203 1.241 . S
O208 Co196 2.137 . S
O208 C199 1.247 . S
O209 Co196 2.244 . S
O209 C199 1.272 . S
O209 Co201 2.135 . S
Co210 O211 2.216 . S
Co210 O212 2.091 . S
Co210 O214 2.004 . S
Co210 O220 2.021 . S
Co210 O222 2.137 . S
Co210 O223 2.244 . S
O211 Co210 2.216 . S
O211 C218 1.247 . S
O212 Co210 2.091 . S
O212 C218 1.261 . S
C213 O222 1.247 . S
C213 O223 1.272 . S
O214 Co210 2.004 . S
O214 C219 1.259 . S
Co215 O216 2.061 . S
Co215 O221 2.052 . S
Co215 O223 2.135 . S
O216 Co215 2.061 . S
O216 C219 1.235 . S
C217 O220 1.238 . S
C217 O221 1.241 . S
C218 O211 1.247 . S
C218 O212 1.261 . S
C219 O214 1.259 . S
C219 O216 1.235 . S
O220 Co210 2.021 . S
O220 C217 1.238 . S
O221 Co215 2.052 . S
O221 C217 1.241 . S
O222 Co210 2.137 . S
O222 C213 1.247 . S
O223 Co210 2.244 . S
O223 C213 1.272 . S
O223 Co215 2.135 . S
H224 C232 0.929 . S
H225 C234 0.930 . S
H226 C236 0.930 . S
H227 C239 0.929 . S
H228 C242 0.930 . S
H229 C244 0.960 . S
H230 C244 0.960 . S
H231 C244 0.960 . S
C232 H224 0.929 . S
C232 C233 1.377 . S
C232 C234 1.384 . S
C233 C232 1.377 . S
C233 C239 1.390 . S
C234 H225 0.930 . S
C234 C232 1.384 . S
C234 C235 1.372 . S
C235 C234 1.372 . S
C235 C236 1.400 . S
C235 C240 1.490 . S
C236 H226 0.930 . S
C236 C235 1.400 . S
C236 C239 1.386 . S
H237 C253 0.930 . S
H238 C254 0.931 . S
C239 H227 0.929 . S
C239 C233 1.390 . S
C239 C236 1.386 . S
C240 C235 1.490 . S
C240 C242 1.395 . S
C240 C243 1.403 . S
H241 C247 0.930 . S
C242 H228 0.930 . S
C242 C240 1.395 . S
C242 C245 1.403 1_455 S
C243 C240 1.403 . S
C243 C244 1.524 . S
C243 C247 1.400 1_455 S
C244 H229 0.960 . S
C244 H230 0.960 . S
C244 H231 0.960 . S
C244 C243 1.524 . S
C245 C242 1.403 1_655 S
C245 C246 1.392 . S
C245 C249 1.495 . S
C246 C245 1.392 . S
C246 C247 1.385 . S
C246 C248 1.478 . S
C247 H241 0.930 . S
C247 C243 1.400 1_655 S
C247 C246 1.385 . S
C248 C246 1.478 . S
C248 C250 1.381 . S
C248 C254 1.383 . S
C249 C245 1.495 . S
C249 H255 0.959 . S
C249 H256 0.961 . S
C249 H257 0.960 . S
C250 C248 1.381 . S
C250 C251 1.394 . S
C250 H258 0.930 . S
C251 C250 1.394 . S
C251 C252 1.383 . S
C251 H259 0.929 . S
C252 C251 1.383 . S
C252 C253 1.377 . S
C253 H237 0.930 . S
C253 C252 1.377 . S
C253 C254 1.379 . S
C254 H238 0.931 . S
C254 C248 1.383 . S
C254 C253 1.379 . S
H255 C249 0.959 . S
H256 C249 0.961 . S
H257 C249 0.960 . S
H258 C250 0.930 . S
H259 C251 0.929 . S
H260 C268 0.929 . S
H261 C270 0.930 . S
H262 C272 0.930 . S
H263 C275 0.929 . S
H264 C278 0.930 . S
H265 C280 0.960 1_545 S
H266 C280 0.960 . S
H267 C280 0.960 . S
C268 H260 0.929 . S
C268 C269 1.377 . S
C268 C270 1.384 . S
C269 C268 1.377 . S
C269 C275 1.390 . S
C270 H261 0.930 . S
C270 C268 1.384 . S
C270 C271 1.372 . S
C271 C270 1.372 . S
C271 C272 1.400 . S
C271 C276 1.490 . S
C272 H262 0.930 . S
C272 C271 1.400 . S
C272 C275 1.386 . S
H273 C289 0.930 . S
H274 C290 0.931 . S
C275 H263 0.929 . S
C275 C269 1.390 . S
C275 C272 1.386 . S
C276 C271 1.490 . S
C276 C278 1.395 . S
C276 C279 1.403 . S
H277 C283 0.930 . S
C278 H264 0.930 . S
C278 C276 1.395 . S
C278 C281 1.403 1_565 S
C279 C276 1.403 . S
C279 C280 1.524 . S
C279 C283 1.400 1_565 S
C280 H265 0.960 1_565 S
C280 H266 0.960 . S
C280 H267 0.960 . S
C280 C279 1.524 . S
C281 C278 1.403 1_545 S
C281 C282 1.392 . S
C281 C285 1.495 . S
C282 C281 1.392 . S
C282 C283 1.385 . S
C282 C284 1.478 . S
C283 H277 0.930 . S
C283 C279 1.400 1_545 S
C283 C282 1.385 . S
C284 C282 1.478 . S
C284 C286 1.381 . S
C284 C290 1.383 . S
C285 C281 1.495 . S
C285 H291 0.946 1_545 S
C285 H292 0.961 . S
C285 H293 0.960 . S
C286 C284 1.381 . S
C286 C287 1.394 . S
C286 H294 0.930 . S
C287 C286 1.394 . S
C287 C288 1.383 . S
C287 H295 0.929 . S
C288 C287 1.383 . S
C288 C289 1.377 . S
C289 H273 0.930 . S
C289 C288 1.377 . S
C289 C290 1.379 . S
C290 H274 0.931 . S
C290 C284 1.383 . S
C290 C289 1.379 . S
H291 C285 0.946 1_565 S
H292 C285 0.961 . S
H293 C285 0.960 . S
H294 C286 0.930 . S
H295 C287 0.929 . S
H296 C304 0.929 . S
H297 C306 0.930 . S
H298 C308 0.930 . S
H299 C311 0.929 . S
H300 C314 0.930 . S
H301 C316 0.960 . S
H302 C316 0.960 . S
H303 C316 0.960 . S
C304 H296 0.929 . S
C304 C305 1.377 . S
C304 C306 1.384 . S
C305 C304 1.377 . S
C305 C311 1.390 . S
C306 H297 0.930 . S
C306 C304 1.384 . S
C306 C307 1.372 . S
C307 C306 1.372 . S
C307 C308 1.400 . S
C307 C312 1.490 . S
C308 H298 0.930 . S
C308 C307 1.400 . S
C308 C311 1.386 . S
H309 C325 0.930 . S
H310 C326 0.931 . S
C311 H299 0.929 . S
C311 C305 1.390 . S
C311 C308 1.386 . S
C312 C307 1.490 . S
C312 C314 1.395 . S
C312 C315 1.403 . S
H313 C319 0.930 . S
C314 H300 0.930 . S
C314 C312 1.395 . S
C314 C317 1.403 1_455 S
C315 C312 1.403 . S
C315 C316 1.524 . S
C315 C319 1.400 1_455 S
C316 H301 0.960 . S
C316 H302 0.960 . S
C316 H303 0.960 . S
C316 C315 1.524 . S
C317 C314 1.403 1_655 S
C317 C318 1.392 . S
C317 C321 1.495 . S
C318 C317 1.392 . S
C318 C319 1.385 . S
C318 C320 1.478 . S
C319 H313 0.930 . S
C319 C315 1.400 1_655 S
C319 C318 1.385 . S
C320 C318 1.478 . S
C320 C322 1.381 . S
C320 C326 1.383 . S
C321 C317 1.495 . S
C321 H327 0.959 . S
C321 H328 0.961 . S
C321 H329 0.960 . S
C322 C320 1.381 . S
C322 C323 1.394 . S
C322 H330 0.930 . S
C323 C322 1.394 . S
C323 C324 1.383 . S
C323 H331 0.929 . S
C324 C323 1.383 . S
C324 C325 1.377 . S
C325 H309 0.930 . S
C325 C324 1.377 . S
C325 C326 1.379 . S
C326 H310 0.931 . S
C326 C320 1.383 . S
C326 C325 1.379 . S
H327 C321 0.959 . S
H328 C321 0.961 . S
H329 C321 0.960 . S
H330 C322 0.930 . S
H331 C323 0.929 . S
H332 C340 0.929 . S
H333 C342 0.930 . S
H334 C344 0.930 . S
H335 C347 0.929 . S
H336 C350 0.930 . S
H337 C352 0.960 1_545 S
H338 C352 0.960 . S
H339 C352 0.960 . S
C340 H332 0.929 . S
C340 C341 1.377 . S
C340 C342 1.384 . S
C341 C340 1.377 . S
C341 C347 1.390 . S
C342 H333 0.930 . S
C342 C340 1.384 . S
C342 C343 1.372 . S
C343 C342 1.372 . S
C343 C344 1.400 . S
C343 C348 1.490 . S
C344 H334 0.930 . S
C344 C343 1.400 . S
C344 C347 1.386 . S
H345 C361 0.930 . S
H346 C362 0.931 . S
C347 H335 0.929 . S
C347 C341 1.390 . S
C347 C344 1.386 . S
C348 C343 1.490 . S
C348 C350 1.395 . S
C348 C351 1.403 . S
H349 C355 0.930 . S
C350 H336 0.930 . S
C350 C348 1.395 . S
C350 C353 1.403 1_565 S
C351 C348 1.403 . S
C351 C352 1.524 . S
C351 C355 1.400 1_565 S
C352 H337 0.960 1_565 S
C352 H338 0.960 . S
C352 H339 0.960 . S
C352 C351 1.524 . S
C353 C350 1.403 1_545 S
C353 C354 1.392 . S
C353 C357 1.495 . S
C354 C353 1.392 . S
C354 C355 1.385 . S
C354 C356 1.478 . S
C355 H349 0.930 . S
C355 C351 1.400 1_545 S
C355 C354 1.385 . S
C356 C354 1.478 . S
C356 C358 1.381 . S
C356 C362 1.383 . S
C357 C353 1.495 . S
C357 H363 0.959 1_545 S
C357 H364 0.961 . S
C357 H365 0.960 . S
C358 C356 1.381 . S
C358 C359 1.394 . S
C358 H366 0.930 . S
C359 C358 1.394 . S
C359 C360 1.383 . S
C359 H367 0.929 . S
C360 C359 1.383 . S
C360 C361 1.377 . S
C361 H345 0.930 . S
C361 C360 1.377 . S
C361 C362 1.379 . S
C362 H346 0.931 . S
C362 C356 1.383 . S
C362 C361 1.379 . S
H363 C357 0.959 1_565 S
H364 C357 0.961 . S
H365 C357 0.960 . S
H366 C358 0.930 . S
H367 C359 0.929 . S
H368 C376 0.929 . S
H369 C378 0.930 . S
H370 C380 0.930 . S
H371 C383 0.929 . S
H372 C386 0.930 . S
H373 C388 0.960 . S
H374 C388 0.960 . S
H375 C388 0.960 . S
C376 H368 0.929 . S
C376 C377 1.377 . S
C376 C378 1.384 . S
C377 C376 1.377 . S
C377 C383 1.390 . S
C378 H369 0.930 . S
C378 C376 1.384 . S
C378 C379 1.372 . S
C379 C378 1.372 . S
C379 C380 1.400 . S
C379 C384 1.490 . S
C380 H370 0.930 . S
C380 C379 1.400 . S
C380 C383 1.386 . S
H381 C397 0.930 . S
H382 C398 0.931 . S
C383 H371 0.929 . S
C383 C377 1.390 . S
C383 C380 1.386 . S
C384 C379 1.490 . S
C384 C386 1.395 . S
C384 C387 1.403 . S
H385 C391 0.930 . S
C386 H372 0.930 . S
C386 C384 1.395 . S
C386 C389 1.403 1_655 S
C387 C384 1.403 . S
C387 C388 1.524 . S
C387 C391 1.400 1_655 S
C388 H373 0.960 . S
C388 H374 0.960 . S
C388 H375 0.960 . S
C388 C387 1.524 . S
C389 C386 1.403 1_455 S
C389 C390 1.392 . S
C389 C393 1.495 . S
C390 C389 1.392 . S
C390 C391 1.385 . S
C390 C392 1.478 . S
C391 H385 0.930 . S
C391 C387 1.400 1_455 S
C391 C390 1.385 . S
C392 C390 1.478 . S
C392 C394 1.381 . S
C392 C398 1.383 . S
C393 C389 1.495 . S
C393 H399 0.959 . S
C393 H400 0.961 . S
C393 H401 0.960 . S
C394 C392 1.381 . S
C394 C395 1.394 . S
C394 H402 0.930 . S
C395 C394 1.394 . S
C395 C396 1.383 . S
C395 H403 0.929 . S
C396 C395 1.383 . S
C396 C397 1.377 . S
C397 H381 0.930 . S
C397 C396 1.377 . S
C397 C398 1.379 . S
C398 H382 0.931 . S
C398 C392 1.383 . S
C398 C397 1.379 . S
H399 C393 0.959 . S
H400 C393 0.961 . S
H401 C393 0.960 . S
H402 C394 0.930 . S
H403 C395 0.929 . S
H404 C412 0.929 . S
H405 C414 0.930 . S
H406 C416 0.930 . S
H407 C419 0.929 . S
H408 C422 0.930 . S
H409 C424 0.960 1_565 S
H410 C424 0.960 . S
H411 C424 0.960 . S
C412 H404 0.929 . S
C412 C413 1.377 . S
C412 C414 1.384 . S
C413 C412 1.377 . S
C413 C419 1.390 . S
C414 H405 0.930 . S
C414 C412 1.384 . S
C414 C415 1.372 . S
C415 C414 1.372 . S
C415 C416 1.400 . S
C415 C420 1.490 . S
C416 H406 0.930 . S
C416 C415 1.400 . S
C416 C419 1.386 . S
H417 C433 0.930 . S
H418 C434 0.931 . S
C419 H407 0.929 . S
C419 C413 1.390 . S
C419 C416 1.386 . S
C420 C415 1.490 . S
C420 C422 1.395 . S
C420 C423 1.403 . S
H421 C427 0.930 . S
C422 H408 0.930 . S
C422 C420 1.395 . S
C422 C425 1.403 1_545 S
C423 C420 1.403 . S
C423 C424 1.524 . S
C423 C427 1.400 1_545 S
C424 H409 0.960 1_545 S
C424 H410 0.960 . S
C424 H411 0.960 . S
C424 C423 1.524 . S
C425 C422 1.403 1_565 S
C425 C426 1.392 . S
C425 C429 1.495 . S
C426 C425 1.392 . S
C426 C427 1.385 . S
C426 C428 1.478 . S
C427 H421 0.930 . S
C427 C423 1.400 1_565 S
C427 C426 1.385 . S
C428 C426 1.478 . S
C428 C430 1.381 . S
C428 C434 1.383 . S
C429 C425 1.495 . S
C429 H435 0.959 1_565 S
C429 H436 0.961 . S
C429 H437 0.960 . S
C430 C428 1.381 . S
C430 C431 1.394 . S
C430 H438 0.930 . S
C431 C430 1.394 . S
C431 C432 1.383 . S
C431 H439 0.929 . S
C432 C431 1.383 . S
C432 C433 1.377 . S
C433 H417 0.930 . S
C433 C432 1.377 . S
C433 C434 1.379 . S
C434 H418 0.931 . S
C434 C428 1.383 . S
C434 C433 1.379 . S
H435 C429 0.959 1_545 S
H436 C429 0.961 . S
H437 C429 0.960 . S
H438 C430 0.930 . S
H439 C431 0.929 . S
H440 C448 0.929 . S
H441 C450 0.930 . S
H442 C452 0.930 . S
H443 C455 0.929 . S
H444 C458 0.930 . S
H445 C460 0.960 1_455 S
H446 C460 0.960 . S
H447 C460 0.960 . S
C448 H440 0.929 . S
C448 C449 1.377 . S
C448 C450 1.384 . S
C449 C448 1.377 . S
C449 C455 1.390 . S
C450 H441 0.930 . S
C450 C448 1.384 . S
C450 C451 1.372 . S
C451 C450 1.372 . S
C451 C452 1.400 . S
C451 C456 1.490 . S
C452 H442 0.930 . S
C452 C451 1.400 . S
C452 C455 1.386 . S
H453 C469 0.930 . S
H454 C470 0.931 . S
C455 H443 0.929 . S
C455 C449 1.390 . S
C455 C452 1.386 . S
C456 C451 1.490 . S
C456 C458 1.395 . S
C456 C459 1.403 . S
H457 C463 0.930 . S
C458 H444 0.930 . S
C458 C456 1.395 . S
C458 C461 1.403 1_655 S
C459 C456 1.403 . S
C459 C460 1.524 . S
C459 C463 1.400 1_655 S
C460 H445 0.960 1_655 S
C460 H446 0.960 . S
C460 H447 0.960 . S
C460 C459 1.524 . S
C461 C458 1.403 1_455 S
C461 C462 1.392 . S
C461 C465 1.495 . S
C462 C461 1.392 . S
C462 C463 1.385 . S
C462 C464 1.478 . S
C463 H457 0.930 . S
C463 C459 1.400 1_455 S
C463 C462 1.385 . S
C464 C462 1.478 . S
C464 C466 1.381 . S
C464 C470 1.383 . S
C465 C461 1.495 . S
C465 H471 0.959 1_455 S
C465 H472 0.961 . S
C465 H473 0.960 . S
C466 C464 1.381 . S
C466 C467 1.394 . S
C466 H474 0.930 . S
C467 C466 1.394 . S
C467 C468 1.383 . S
C467 H475 0.929 . S
C468 C467 1.383 . S
C468 C469 1.377 . S
C469 H453 0.930 . S
C469 C468 1.377 . S
C469 C470 1.379 . S
C470 H454 0.931 . S
C470 C464 1.383 . S
C470 C469 1.379 . S
H471 C465 0.959 1_655 S
H472 C465 0.961 . S
H473 C465 0.960 . S
H474 C466 0.930 . S
H475 C467 0.929 . S
H476 C484 0.929 . S
H477 C486 0.930 . S
H478 C488 0.930 . S
H479 C491 0.929 . S
H480 C494 0.930 . S
H481 C496 0.960 . S
H482 C496 0.960 . S
H483 C496 0.960 . S
C484 H476 0.929 . S
C484 C485 1.377 . S
C484 C486 1.384 . S
C485 C484 1.377 . S
C485 C491 1.390 . S
C486 H477 0.930 . S
C486 C484 1.384 . S
C486 C487 1.372 . S
C487 C486 1.372 . S
C487 C488 1.400 . S
C487 C492 1.490 . S
C488 H478 0.930 . S
C488 C487 1.400 . S
C488 C491 1.386 . S
H489 C505 0.930 . S
H490 C506 0.931 . S
C491 H479 0.929 . S
C491 C485 1.390 . S
C491 C488 1.386 . S
C492 C487 1.490 . S
C492 C494 1.395 . S
C492 C495 1.403 . S
H493 C499 0.930 . S
C494 H480 0.930 . S
C494 C492 1.395 . S
C494 C497 1.403 1_545 S
C495 C492 1.403 . S
C495 C496 1.524 . S
C495 C499 1.400 1_545 S
C496 H481 0.960 . S
C496 H482 0.960 . S
C496 H483 0.960 . S
C496 C495 1.524 . S
C497 C494 1.403 1_565 S
C497 C498 1.392 . S
C497 C501 1.495 . S
C498 C497 1.392 . S
C498 C499 1.385 . S
C498 C500 1.478 . S
C499 H493 0.930 . S
C499 C495 1.400 1_565 S
C499 C498 1.385 . S
C500 C498 1.478 . S
C500 C502 1.381 . S
C500 C506 1.383 . S
C501 C497 1.495 . S
C501 H507 0.959 . S
C501 H508 0.961 . S
C501 H509 0.960 . S
C502 C500 1.381 . S
C502 C503 1.394 . S
C502 H510 0.930 . S
C503 C502 1.394 . S
C503 C504 1.383 . S
C503 H511 0.929 . S
C504 C503 1.383 . S
C504 C505 1.377 . S
C505 H489 0.930 . S
C505 C504 1.377 . S
C505 C506 1.379 . S
C506 H490 0.931 . S
C506 C500 1.383 . S
C506 C505 1.379 . S
H507 C501 0.959 . S
H508 C501 0.961 . S
H509 C501 0.960 . S
H510 C502 0.930 . S
H511 C503 0.929 . S
H512 C520 0.929 . S
H513 C522 0.930 . S
H514 C524 0.930 . S
H515 C527 0.929 . S
H516 C530 0.930 . S
H517 C532 0.960 . S
H518 C532 0.960 . S
H519 C532 0.960 . S
C520 H512 0.929 . S
C520 C521 1.377 . S
C520 C522 1.384 . S
C521 C520 1.377 . S
C521 C527 1.390 . S
C522 H513 0.930 . S
C522 C520 1.384 . S
C522 C523 1.372 . S
C523 C522 1.372 . S
C523 C524 1.400 . S
C523 C528 1.490 . S
C524 H514 0.930 . S
C524 C523 1.400 . S
C524 C527 1.386 . S
H525 C541 0.930 . S
H526 C542 0.931 . S
C527 H515 0.929 . S
C527 C521 1.390 . S
C527 C524 1.386 . S
C528 C523 1.490 . S
C528 C530 1.395 . S
C528 C531 1.403 . S
H529 C535 0.930 . S
C530 H516 0.930 . S
C530 C528 1.395 . S
C530 C533 1.403 . S
C531 C528 1.403 . S
C531 C532 1.524 . S
C531 C535 1.400 . S
C532 H517 0.960 . S
C532 H518 0.960 . S
C532 H519 0.960 . S
C532 C531 1.524 . S
C533 C530 1.403 . S
C533 C534 1.392 . S
C533 C537 1.495 . S
C534 C533 1.392 . S
C534 C535 1.385 . S
C534 C536 1.478 . S
C535 H529 0.930 . S
C535 C531 1.400 . S
C535 C534 1.385 . S
C536 C534 1.478 . S
C536 C538 1.381 . S
C536 C542 1.383 . S
C537 C533 1.495 . S
C537 H543 0.959 . S
C537 H544 0.961 . S
C537 H545 0.960 . S
C538 C536 1.381 . S
C538 C539 1.394 . S
C538 H546 0.930 . S
C539 C538 1.394 . S
C539 C540 1.383 . S
C539 H547 0.929 . S
C540 C539 1.383 . S
C540 C541 1.377 . S
C541 H525 0.930 . S
C541 C540 1.377 . S
C541 C542 1.379 . S
C542 H526 0.931 . S
C542 C536 1.383 . S
C542 C541 1.379 . S
H543 C537 0.959 . S
H544 C537 0.961 . S
H545 C537 0.960 . S
H546 C538 0.930 . S
H547 C539 0.929 . S
H548 C556 0.929 . S
H549 C558 0.930 . S
H550 C560 0.930 . S
H551 C563 0.929 . S
H552 C566 0.930 . S
H553 C568 0.960 . S
H554 C568 0.960 . S
H555 C568 0.960 . S
C556 H548 0.929 . S
C556 C557 1.377 . S
C556 C558 1.384 . S
C557 C556 1.377 . S
C557 C563 1.390 . S
C558 H549 0.930 . S
C558 C556 1.384 . S
C558 C559 1.372 . S
C559 C558 1.372 . S
C559 C560 1.400 . S
C559 C564 1.490 . S
C560 H550 0.930 . S
C560 C559 1.400 . S
C560 C563 1.386 . S
H561 C577 0.930 . S
H562 C578 0.931 . S
C563 H551 0.929 . S
C563 C557 1.390 . S
C563 C560 1.386 . S
C564 C559 1.490 . S
C564 C566 1.395 . S
C564 C567 1.403 . S
H565 C571 0.930 . S
C566 H552 0.930 . S
C566 C564 1.395 . S
C566 C569 1.403 . S
C567 C564 1.403 . S
C567 C568 1.524 . S
C567 C571 1.400 . S
C568 H553 0.960 . S
C568 H554 0.960 . S
C568 H555 0.960 . S
C568 C567 1.524 . S
C569 C566 1.403 . S
C569 C570 1.392 . S
C569 C573 1.495 . S
C570 C569 1.392 . S
C570 C571 1.385 . S
C570 C572 1.478 . S
C571 H565 0.930 . S
C571 C567 1.400 . S
C571 C570 1.385 . S
C572 C570 1.478 . S
C572 C574 1.381 . S
C572 C578 1.383 . S
C573 C569 1.495 . S
C573 H579 0.959 . S
C573 H580 0.961 . S
C573 H581 0.960 . S
C574 C572 1.381 . S
C574 C575 1.394 . S
C574 H582 0.930 . S
C575 C574 1.394 . S
C575 C576 1.383 . S
C575 H583 0.929 . S
C576 C575 1.383 . S
C576 C577 1.377 . S
C577 H561 0.930 . S
C577 C576 1.377 . S
C577 C578 1.379 . S
C578 H562 0.931 . S
C578 C572 1.383 . S
C578 C577 1.379 . S
H579 C573 0.959 . S
H580 C573 0.961 . S
H581 C573 0.960 . S
H582 C574 0.930 . S
H583 C575 0.929 . S
H584 C592 0.929 . S
H585 C594 0.930 . S
H586 C596 0.930 . S
H587 C599 0.929 . S
H588 C602 0.930 . S
H589 C604 0.960 . S
H590 C604 0.960 . S
H591 C604 0.960 . S
C592 H584 0.929 . S
C592 C593 1.377 . S
C592 C594 1.384 . S
C593 C592 1.377 . S
C593 C599 1.390 . S
C594 H585 0.930 . S
C594 C592 1.384 . S
C594 C595 1.372 . S
C595 C594 1.372 . S
C595 C596 1.400 . S
C595 C600 1.490 . S
C596 H586 0.930 . S
C596 C595 1.400 . S
C596 C599 1.386 . S
H597 C613 0.930 . S
H598 C614 0.931 . S
C599 H587 0.929 . S
C599 C593 1.390 . S
C599 C596 1.386 . S
C600 C595 1.490 . S
C600 C602 1.395 . S
C600 C603 1.403 . S
H601 C607 0.930 . S
C602 H588 0.930 . S
C602 C600 1.395 . S
C602 C605 1.403 . S
C603 C600 1.403 . S
C603 C604 1.524 . S
C603 C607 1.400 . S
C604 H589 0.960 . S
C604 H590 0.960 . S
C604 H591 0.960 . S
C604 C603 1.524 . S
C605 C602 1.403 . S
C605 C606 1.392 . S
C605 C609 1.495 . S
C606 C605 1.392 . S
C606 C607 1.385 . S
C606 C608 1.478 . S
C607 H601 0.930 . S
C607 C603 1.400 . S
C607 C606 1.385 . S
C608 C606 1.478 . S
C608 C610 1.381 . S
C608 C614 1.383 . S
C609 C605 1.495 . S
C609 H615 0.959 . S
C609 H616 0.961 . S
C609 H617 0.960 . S
C610 C608 1.381 . S
C610 C611 1.394 . S
C610 H618 0.930 . S
C611 C610 1.394 . S
C611 C612 1.383 . S
C611 H619 0.929 . S
C612 C611 1.383 . S
C612 C613 1.377 . S
C613 H597 0.930 . S
C613 C612 1.377 . S
C613 C614 1.379 . S
C614 H598 0.931 . S
C614 C608 1.383 . S
C614 C613 1.379 . S
H615 C609 0.959 . S
H616 C609 0.961 . S
H617 C609 0.960 . S
H618 C610 0.930 . S
H619 C611 0.929 . S
H620 C628 0.929 . S
H621 C630 0.930 . S
H622 C632 0.930 . S
H623 C635 0.929 . S
H624 C638 0.930 . S
H625 C640 0.960 . S
H626 C640 0.960 . S
H627 C640 0.960 . S
C628 H620 0.929 . S
C628 C629 1.377 . S
C628 C630 1.384 . S
C629 C628 1.377 . S
C629 C635 1.390 . S
C630 H621 0.930 . S
C630 C628 1.384 . S
C630 C631 1.372 . S
C631 C630 1.372 . S
C631 C632 1.400 . S
C631 C636 1.490 . S
C632 H622 0.930 . S
C632 C631 1.400 . S
C632 C635 1.386 . S
H633 C649 0.930 . S
H634 C650 0.931 . S
C635 H623 0.929 . S
C635 C629 1.390 . S
C635 C632 1.386 . S
C636 C631 1.490 . S
C636 C638 1.395 . S
C636 C639 1.403 . S
H637 C643 0.930 . S
C638 H624 0.930 . S
C638 C636 1.395 . S
C638 C641 1.403 . S
C639 C636 1.403 . S
C639 C640 1.524 . S
C639 C643 1.400 . S
C640 H625 0.960 . S
C640 H626 0.960 . S
C640 H627 0.960 . S
C640 C639 1.524 . S
C641 C638 1.403 . S
C641 C642 1.392 . S
C641 C645 1.495 . S
C642 C641 1.392 . S
C642 C643 1.385 . S
C642 C644 1.478 . S
C643 H637 0.930 . S
C643 C639 1.400 . S
C643 C642 1.385 . S
C644 C642 1.478 . S
C644 C646 1.381 . S
C644 C650 1.383 . S
C645 C641 1.495 . S
C645 H651 0.959 . S
C645 H652 0.961 . S
C645 H653 0.960 . S
C646 C644 1.381 . S
C646 C647 1.394 . S
C646 H654 0.930 . S
C647 C646 1.394 . S
C647 C648 1.383 . S
C647 H655 0.929 . S
C648 C647 1.383 . S
C648 C649 1.377 . S
C649 H633 0.930 . S
C649 C648 1.377 . S
C649 C650 1.379 . S
C650 H634 0.931 . S
C650 C644 1.383 . S
C650 C649 1.379 . S
H651 C645 0.959 . S
H652 C645 0.961 . S
H653 C645 0.960 . S
H654 C646 0.930 . S
H655 C647 0.929 . S
H656 C664 0.929 . S
H657 C666 0.930 . S
H658 C668 0.930 . S
H659 C671 0.929 . S
H660 C674 0.930 . S
H661 C676 0.960 . S
H662 C676 0.960 . S
H663 C676 0.960 . S
C664 H656 0.929 . S
C664 C665 1.377 . S
C664 C666 1.384 . S
C665 C664 1.377 . S
C665 C671 1.390 . S
C666 H657 0.930 . S
C666 C664 1.384 . S
C666 C667 1.372 . S
C667 C666 1.372 . S
C667 C668 1.400 . S
C667 C672 1.490 . S
C668 H658 0.930 . S
C668 C667 1.400 . S
C668 C671 1.386 . S
H669 C685 0.930 . S
H670 C686 0.931 . S
C671 H659 0.929 . S
C671 C665 1.390 . S
C671 C668 1.386 . S
C672 C667 1.490 . S
C672 C674 1.395 . S
C672 C675 1.403 . S
H673 C679 0.930 . S
C674 H660 0.930 . S
C674 C672 1.395 . S
C674 C677 1.403 . S
C675 C672 1.403 . S
C675 C676 1.524 . S
C675 C679 1.400 . S
C676 H661 0.960 . S
C676 H662 0.960 . S
C676 H663 0.960 . S
C676 C675 1.524 . S
C677 C674 1.403 . S
C677 C678 1.392 . S
C677 C681 1.495 . S
C678 C677 1.392 . S
C678 C679 1.385 . S
C678 C680 1.478 . S
C679 H673 0.930 . S
C679 C675 1.400 . S
C679 C678 1.385 . S
C680 C678 1.478 . S
C680 C682 1.381 . S
C680 C686 1.383 . S
C681 C677 1.495 . S
C681 H687 0.959 . S
C681 H688 0.961 . S
C681 H689 0.960 . S
C682 C680 1.381 . S
C682 C683 1.394 . S
C682 H690 0.930 . S
C683 C682 1.394 . S
C683 C684 1.383 . S
C683 H691 0.929 . S
C684 C683 1.383 . S
C684 C685 1.377 . S
C685 H669 0.930 . S
C685 C684 1.377 . S
C685 C686 1.379 . S
C686 H670 0.931 . S
C686 C680 1.383 . S
C686 C685 1.379 . S
H687 C681 0.959 . S
H688 C681 0.961 . S
H689 C681 0.960 . S
H690 C682 0.930 . S
H691 C683 0.929 . S
H692 C700 0.929 . S
H693 C702 0.930 . S
H694 C704 0.930 . S
H695 C707 0.929 . S
H696 C710 0.930 . S
H697 C712 0.960 . S
H698 C712 0.960 . S
H699 C712 0.960 . S
C700 H692 0.929 . S
C700 C701 1.377 . S
C700 C702 1.384 . S
C701 C700 1.377 . S
C701 C707 1.390 . S
C702 H693 0.930 . S
C702 C700 1.384 . S
C702 C703 1.372 . S
C703 C702 1.372 . S
C703 C704 1.400 . S
C703 C708 1.490 . S
C704 H694 0.930 . S
C704 C703 1.400 . S
C704 C707 1.386 . S
H705 C721 0.930 . S
H706 C722 0.931 . S
C707 H695 0.929 . S
C707 C701 1.390 . S
C707 C704 1.386 . S
C708 C703 1.490 . S
C708 C710 1.395 . S
C708 C711 1.403 . S
H709 C715 0.930 . S
C710 H696 0.930 . S
C710 C708 1.395 . S
C710 C713 1.403 . S
C711 C708 1.403 . S
C711 C712 1.524 . S
C711 C715 1.400 . S
C712 H697 0.960 . S
C712 H698 0.960 . S
C712 H699 0.960 . S
C712 C711 1.524 . S
C713 C710 1.403 . S
C713 C714 1.392 . S
C713 C717 1.495 . S
C714 C713 1.392 . S
C714 C715 1.385 . S
C714 C716 1.478 . S
C715 H709 0.930 . S
C715 C711 1.400 . S
C715 C714 1.385 . S
C716 C714 1.478 . S
C716 C718 1.381 . S
C716 C722 1.383 . S
C717 C713 1.495 . S
C717 H723 0.959 . S
C717 H724 0.961 . S
C717 H725 0.960 . S
C718 C716 1.381 . S
C718 C719 1.394 . S
C718 H726 0.930 . S
C719 C718 1.394 . S
C719 C720 1.383 . S
C719 H727 0.929 . S
C720 C719 1.383 . S
C720 C721 1.377 . S
C721 H705 0.930 . S
C721 C720 1.377 . S
C721 C722 1.379 . S
C722 H706 0.931 . S
C722 C716 1.383 . S
C722 C721 1.379 . S
H723 C717 0.959 . S
H724 C717 0.961 . S
H725 C717 0.960 . S
H726 C718 0.930 . S
H727 C719 0.929 . S
H728 C736 0.929 . S
H729 C738 0.930 . S
H730 C740 0.930 . S
H731 C743 0.929 . S
H732 C746 0.930 . S
H733 C748 0.960 . S
H734 C748 0.960 . S
H735 C748 0.960 . S
C736 H728 0.929 . S
C736 C737 1.377 . S
C736 C738 1.384 . S
C737 C736 1.377 . S
C737 C743 1.390 . S
C738 H729 0.930 . S
C738 C736 1.384 . S
C738 C739 1.372 . S
C739 C738 1.372 . S
C739 C740 1.400 . S
C739 C744 1.490 . S
C740 H730 0.930 . S
C740 C739 1.400 . S
C740 C743 1.386 . S
H741 C757 0.930 . S
H742 C758 0.931 . S
C743 H731 0.929 . S
C743 C737 1.390 . S
C743 C740 1.386 . S
C744 C739 1.490 . S
C744 C746 1.395 . S
C744 C747 1.403 . S
H745 C751 0.930 . S
C746 H732 0.930 . S
C746 C744 1.395 . S
C746 C749 1.403 . S
C747 C744 1.403 . S
C747 C748 1.524 . S
C747 C751 1.400 . S
C748 H733 0.960 . S
C748 H734 0.960 . S
C748 H735 0.960 . S
C748 C747 1.524 . S
C749 C746 1.403 . S
C749 C750 1.392 . S
C749 C753 1.495 . S
C750 C749 1.392 . S
C750 C751 1.385 . S
C750 C752 1.478 . S
C751 H745 0.930 . S
C751 C747 1.400 . S
C751 C750 1.385 . S
C752 C750 1.478 . S
C752 C754 1.381 . S
C752 C758 1.383 . S
C753 C749 1.495 . S
C753 H759 0.959 . S
C753 H760 0.961 . S
C753 H761 0.960 . S
C754 C752 1.381 . S
C754 C755 1.394 . S
C754 H762 0.930 . S
C755 C754 1.394 . S
C755 C756 1.383 . S
C755 H763 0.929 . S
C756 C755 1.383 . S
C756 C757 1.377 . S
C757 H741 0.930 . S
C757 C756 1.377 . S
C757 C758 1.379 . S
C758 H742 0.931 . S
C758 C752 1.383 . S
C758 C757 1.379 . S
H759 C753 0.959 . S
H760 C753 0.961 . S
H761 C753 0.960 . S
H762 C754 0.930 . S
H763 C755 0.929 . S
H764 C772 0.929 . S
H765 C774 0.930 . S
H766 C776 0.930 . S
H767 C779 0.929 . S
H768 C782 0.930 . S
H769 C784 0.960 . S
H770 C784 0.960 . S
H771 C784 0.960 . S
C772 H764 0.929 . S
C772 C773 1.377 . S
C772 C774 1.384 . S
C773 C772 1.377 . S
C773 C779 1.390 . S
C774 H765 0.930 . S
C774 C772 1.384 . S
C774 C775 1.372 . S
C775 C774 1.372 . S
C775 C776 1.400 . S
C775 C780 1.490 . S
C776 H766 0.930 . S
C776 C775 1.400 . S
C776 C779 1.386 . S
H777 C793 0.930 . S
H778 C794 0.931 . S
C779 H767 0.929 . S
C779 C773 1.390 . S
C779 C776 1.386 . S
C780 C775 1.490 . S
C780 C782 1.395 . S
C780 C783 1.403 . S
H781 C787 0.930 . S
C782 H768 0.930 . S
C782 C780 1.395 . S
C782 C785 1.403 . S
C783 C780 1.403 . S
C783 C784 1.524 . S
C783 C787 1.400 . S
C784 H769 0.960 . S
C784 H770 0.960 . S
C784 H771 0.960 . S
C784 C783 1.524 . S
C785 C782 1.403 . S
C785 C786 1.392 . S
C785 C789 1.495 . S
C786 C785 1.392 . S
C786 C787 1.385 . S
C786 C788 1.478 . S
C787 H781 0.930 . S
C787 C783 1.400 . S
C787 C786 1.385 . S
C788 C786 1.478 . S
C788 C790 1.381 . S
C788 C794 1.383 . S
C789 C785 1.495 . S
C789 H795 0.959 . S
C789 H796 0.961 . S
C789 H797 0.960 . S
C790 C788 1.381 . S
C790 C791 1.394 . S
C790 H798 0.930 . S
C791 C790 1.394 . S
C791 C792 1.383 . S
C791 H799 0.929 . S
C792 C791 1.383 . S
C792 C793 1.377 . S
C793 H777 0.930 . S
C793 C792 1.377 . S
C793 C794 1.379 . S
C794 H778 0.931 . S
C794 C788 1.383 . S
C794 C793 1.379 . S
H795 C789 0.959 . S
H796 C789 0.961 . S
H797 C789 0.960 . S
H798 C790 0.930 . S
H799 C791 0.929 . S
H800 C808 0.929 . S
H801 C810 0.930 . S
H802 C812 0.930 . S
H803 C815 0.929 . S
H804 C818 0.930 . S
H805 C820 0.960 . S
H806 C820 0.960 . S
H807 C820 0.960 . S
C808 H800 0.929 . S
C808 C809 1.377 . S
C808 C810 1.384 . S
C809 C808 1.377 . S
C809 C815 1.390 . S
C810 H801 0.930 . S
C810 C808 1.384 . S
C810 C811 1.372 . S
C811 C810 1.372 . S
C811 C812 1.400 . S
C811 C816 1.490 . S
C812 H802 0.930 . S
C812 C811 1.400 . S
C812 C815 1.386 . S
H813 C829 0.930 . S
H814 C830 0.931 . S
C815 H803 0.929 . S
C815 C809 1.390 . S
C815 C812 1.386 . S
C816 C811 1.490 . S
C816 C818 1.395 . S
C816 C819 1.403 . S
H817 C823 0.930 . S
C818 H804 0.930 . S
C818 C816 1.395 . S
C818 C821 1.403 1_556 S
C819 C816 1.403 . S
C819 C820 1.524 . S
C819 C823 1.400 1_556 S
C820 H805 0.960 . S
C820 H806 0.960 . S
C820 H807 0.960 . S
C820 C819 1.524 . S
C821 C818 1.403 1_554 S
C821 C822 1.392 . S
C821 C825 1.495 . S
C822 C821 1.392 . S
C822 C823 1.385 . S
C822 C824 1.478 . S
C823 H817 0.930 . S
C823 C819 1.400 1_554 S
C823 C822 1.385 . S
C824 C822 1.478 . S
C824 C826 1.381 . S
C824 C830 1.383 . S
C825 C821 1.495 . S
C825 H831 0.959 . S
C825 H832 0.961 . S
C825 H833 0.960 . S
C826 C824 1.381 . S
C826 C827 1.394 . S
C826 H834 0.930 . S
C827 C826 1.394 . S
C827 C828 1.383 . S
C827 H835 0.929 . S
C828 C827 1.383 . S
C828 C829 1.377 . S
C829 H813 0.930 . S
C829 C828 1.377 . S
C829 C830 1.379 . S
C830 H814 0.931 . S
C830 C824 1.383 . S
C830 C829 1.379 . S
H831 C825 0.959 . S
H832 C825 0.961 . S
H833 C825 0.960 . S
H834 C826 0.930 . S
H835 C827 0.929 . S
H836 C844 0.929 . S
H837 C846 0.930 . S
H838 C848 0.930 . S
H839 C851 0.929 . S
H840 C854 0.930 . S
H841 C856 0.960 . S
H842 C856 0.960 . S
H843 C856 0.960 . S
C844 H836 0.929 . S
C844 C845 1.377 . S
C844 C846 1.384 . S
C845 C844 1.377 . S
C845 C851 1.390 . S
C846 H837 0.930 . S
C846 C844 1.384 . S
C846 C847 1.372 . S
C847 C846 1.372 . S
C847 C848 1.400 . S
C847 C852 1.490 . S
C848 H838 0.930 . S
C848 C847 1.400 . S
C848 C851 1.386 . S
H849 C865 0.930 . S
H850 C866 0.931 . S
C851 H839 0.929 . S
C851 C845 1.390 . S
C851 C848 1.386 . S
C852 C847 1.490 . S
C852 C854 1.395 . S
C852 C855 1.403 . S
H853 C859 0.930 . S
C854 H840 0.930 . S
C854 C852 1.395 . S
C854 C857 1.403 . S
C855 C852 1.403 . S
C855 C856 1.524 . S
C855 C859 1.400 . S
C856 H841 0.960 . S
C856 H842 0.960 . S
C856 H843 0.960 . S
C856 C855 1.524 . S
C857 C854 1.403 . S
C857 C858 1.392 . S
C857 C861 1.495 . S
C858 C857 1.392 . S
C858 C859 1.385 . S
C858 C860 1.478 . S
C859 H853 0.930 . S
C859 C855 1.400 . S
C859 C858 1.385 . S
C860 C858 1.478 . S
C860 C862 1.381 . S
C860 C866 1.383 . S
C861 C857 1.495 . S
C861 H867 0.959 . S
C861 H868 0.961 . S
C861 H869 0.960 . S
C862 C860 1.381 . S
C862 C863 1.394 . S
C862 H870 0.930 . S
C863 C862 1.394 . S
C863 C864 1.383 . S
C863 H871 0.929 . S
C864 C863 1.383 . S
C864 C865 1.377 . S
C865 H849 0.930 . S
C865 C864 1.377 . S
C865 C866 1.379 . S
C866 H850 0.931 . S
C866 C860 1.383 . S
C866 C865 1.379 . S
H867 C861 0.959 . S
H868 C861 0.961 . S
H869 C861 0.960 . S
H870 C862 0.930 . S
H871 C863 0.929 . S
H872 C880 0.929 . S
H873 C882 0.930 . S
H874 C884 0.930 . S
H875 C887 0.929 . S
H876 C890 0.930 . S
H877 C892 0.960 . S
H878 C892 0.960 . S
H879 C892 0.960 . S
C880 H872 0.929 . S
C880 C881 1.377 . S
C880 C882 1.384 . S
C881 C880 1.377 . S
C881 C887 1.390 . S
C882 H873 0.930 . S
C882 C880 1.384 . S
C882 C883 1.372 . S
C883 C882 1.372 . S
C883 C884 1.400 . S
C883 C888 1.490 . S
C884 H874 0.930 . S
C884 C883 1.400 . S
C884 C887 1.386 . S
H885 C901 0.930 . S
H886 C902 0.931 . S
C887 H875 0.929 . S
C887 C881 1.390 . S
C887 C884 1.386 . S
C888 C883 1.490 . S
C888 C890 1.395 . S
C888 C891 1.403 . S
H889 C895 0.930 . S
C890 H876 0.930 . S
C890 C888 1.395 . S
C890 C893 1.403 1_554 S
C891 C888 1.403 . S
C891 C892 1.524 . S
C891 C895 1.400 1_554 S
C892 H877 0.960 . S
C892 H878 0.960 . S
C892 H879 0.960 . S
C892 C891 1.524 . S
C893 C890 1.403 1_556 S
C893 C894 1.392 . S
C893 C897 1.495 . S
C894 C893 1.392 . S
C894 C895 1.385 . S
C894 C896 1.478 . S
C895 H889 0.930 . S
C895 C891 1.400 1_556 S
C895 C894 1.385 . S
C896 C894 1.478 . S
C896 C898 1.381 . S
C896 C902 1.383 . S
C897 C893 1.495 . S
C897 H903 0.959 . S
C897 H904 0.961 . S
C897 H905 0.960 . S
C898 C896 1.381 . S
C898 C899 1.394 . S
C898 H906 0.930 . S
C899 C898 1.394 . S
C899 C900 1.383 . S
C899 H907 0.929 . S
C900 C899 1.383 . S
C900 C901 1.377 . S
C901 H885 0.930 . S
C901 C900 1.377 . S
C901 C902 1.379 . S
C902 H886 0.931 . S
C902 C896 1.383 . S
C902 C901 1.379 . S
H903 C897 0.959 . S
H904 C897 0.961 . S
H905 C897 0.960 . S
H906 C898 0.930 . S
H907 C899 0.929 . S
H908 C916 0.929 . S
H909 C918 0.930 . S
H910 C920 0.930 . S
H911 C923 0.929 . S
H912 C926 0.930 . S
H913 C928 0.960 . S
H914 C928 0.960 . S
H915 C928 0.960 . S
C916 H908 0.929 . S
C916 C917 1.377 . S
C916 C918 1.384 . S
C917 C916 1.377 . S
C917 C923 1.390 . S
C918 H909 0.930 . S
C918 C916 1.384 . S
C918 C919 1.372 . S
C919 C918 1.372 . S
C919 C920 1.400 . S
C919 C924 1.490 . S
C920 H910 0.930 . S
C920 C919 1.400 . S
C920 C923 1.386 . S
H921 C937 0.930 . S
H922 C938 0.931 . S
C923 H911 0.929 . S
C923 C917 1.390 . S
C923 C920 1.386 . S
C924 C919 1.490 . S
C924 C926 1.395 . S
C924 C927 1.403 . S
H925 C931 0.930 . S
C926 H912 0.930 . S
C926 C924 1.395 . S
C926 C929 1.403 . S
C927 C924 1.403 . S
C927 C928 1.524 . S
C927 C931 1.400 . S
C928 H913 0.960 . S
C928 H914 0.960 . S
C928 H915 0.960 . S
C928 C927 1.524 . S
C929 C926 1.403 . S
C929 C930 1.392 . S
C929 C933 1.495 . S
C930 C929 1.392 . S
C930 C931 1.385 . S
C930 C932 1.478 . S
C931 H925 0.930 . S
C931 C927 1.400 . S
C931 C930 1.385 . S
C932 C930 1.478 . S
C932 C934 1.381 . S
C932 C938 1.383 . S
C933 C929 1.495 . S
C933 H939 0.959 . S
C933 H940 0.961 . S
C933 H941 0.960 . S
C934 C932 1.381 . S
C934 C935 1.394 . S
C934 H942 0.930 . S
C935 C934 1.394 . S
C935 C936 1.383 . S
C935 H943 0.929 . S
C936 C935 1.383 . S
C936 C937 1.377 . S
C937 H921 0.930 . S
C937 C936 1.377 . S
C937 C938 1.379 . S
C938 H922 0.931 . S
C938 C932 1.383 . S
C938 C937 1.379 . S
H939 C933 0.959 . S
H940 C933 0.961 . S
H941 C933 0.960 . S
H942 C934 0.930 . S
H943 C935 0.929 . S
H944 C952 0.929 . S
H945 C954 0.930 . S
H946 C956 0.930 . S
H947 C959 0.929 . S
H948 C962 0.930 . S
H949 C964 0.960 . S
H950 C964 0.960 . S
H951 C964 0.960 . S
C952 H944 0.929 . S
C952 C953 1.377 . S
C952 C954 1.384 . S
C953 C952 1.377 . S
C953 C959 1.390 . S
C954 H945 0.930 . S
C954 C952 1.384 . S
C954 C955 1.372 . S
C955 C954 1.372 . S
C955 C956 1.400 . S
C955 C960 1.490 . S
C956 H946 0.930 . S
C956 C955 1.400 . S
C956 C959 1.386 . S
H957 C973 0.930 . S
H958 C974 0.931 . S
C959 H947 0.929 . S
C959 C953 1.390 . S
C959 C956 1.386 . S
C960 C955 1.490 . S
C960 C962 1.395 . S
C960 C963 1.403 . S
H961 C967 0.930 . S
C962 H948 0.930 . S
C962 C960 1.395 . S
C962 C965 1.403 . S
C963 C960 1.403 . S
C963 C964 1.524 . S
C963 C967 1.400 . S
C964 H949 0.960 . S
C964 H950 0.960 . S
C964 H951 0.960 . S
C964 C963 1.524 . S
C965 C962 1.403 . S
C965 C966 1.392 . S
C965 C969 1.495 . S
C966 C965 1.392 . S
C966 C967 1.385 . S
C966 C968 1.478 . S
C967 H961 0.930 . S
C967 C963 1.400 . S
C967 C966 1.385 . S
C968 C966 1.478 . S
C968 C970 1.381 . S
C968 C974 1.383 . S
C969 C965 1.495 . S
C969 H975 0.959 . S
C969 H976 0.961 . S
C969 H977 0.960 . S
C970 C968 1.381 . S
C970 C971 1.394 . S
C970 H978 0.930 . S
C971 C970 1.394 . S
C971 C972 1.383 . S
C971 H979 0.929 . S
C972 C971 1.383 . S
C972 C973 1.377 . S
C973 H957 0.930 . S
C973 C972 1.377 . S
C973 C974 1.379 . S
C974 H958 0.931 . S
C974 C968 1.383 . S
C974 C973 1.379 . S
H975 C969 0.959 . S
H976 C969 0.961 . S
H977 C969 0.960 . S
H978 C970 0.930 . S
H979 C971 0.929 . S
H980 C988 0.929 . S
H981 C990 0.930 . S
H982 C992 0.930 . S
H983 C995 0.929 . S
H984 C998 0.930 . S
H985 C1000 0.960 . S
H986 C1000 0.960 . S
H987 C1000 0.960 . S
C988 H980 0.929 . S
C988 C989 1.377 . S
C988 C990 1.384 . S
C989 C988 1.377 . S
C989 C995 1.390 . S
C990 H981 0.930 . S
C990 C988 1.384 . S
C990 C991 1.372 . S
C991 C990 1.372 . S
C991 C992 1.400 . S
C991 C996 1.490 . S
C992 H982 0.930 . S
C992 C991 1.400 . S
C992 C995 1.386 . S
H993 C1009 0.930 . S
H994 C1010 0.931 . S
C995 H983 0.929 . S
C995 C989 1.390 . S
C995 C992 1.386 . S
C996 C991 1.490 . S
C996 C998 1.395 . S
C996 C999 1.403 . S
H997 C1003 0.930 . S
C998 H984 0.930 . S
C998 C996 1.395 . S
C998 C1001 1.403 1_556 S
C999 C996 1.403 . S
C999 C1000 1.524 . S
C999 C1003 1.400 1_556 S
C1000 H985 0.960 . S
C1000 H986 0.960 . S
C1000 H987 0.960 . S
C1000 C999 1.524 . S
C1001 C998 1.403 1_554 S
C1001 C1002 1.392 . S
C1001 C1005 1.495 . S
C1002 C1001 1.392 . S
C1002 C1003 1.385 . S
C1002 C1004 1.478 . S
C1003 H997 0.930 . S
C1003 C999 1.400 1_554 S
C1003 C1002 1.385 . S
C1004 C1002 1.478 . S
C1004 C1006 1.381 . S
C1004 C1010 1.383 . S
C1005 C1001 1.495 . S
C1005 H1011 0.959 . S
C1005 H1012 0.961 . S
C1005 H1013 0.960 . S
C1006 C1004 1.381 . S
C1006 C1007 1.394 . S
C1006 H1014 0.930 . S
C1007 C1006 1.394 . S
C1007 C1008 1.383 . S
C1007 H1015 0.929 . S
C1008 C1007 1.383 . S
C1008 C1009 1.377 . S
C1009 H993 0.930 . S
C1009 C1008 1.377 . S
C1009 C1010 1.379 . S
C1010 H994 0.931 . S
C1010 C1004 1.383 . S
C1010 C1009 1.379 . S
H1011 C1005 0.959 . S
H1012 C1005 0.961 . S
H1013 C1005 0.960 . S
H1014 C1006 0.930 . S
H1015 C1007 0.929 . S
H1016 C1024 0.929 . S
H1017 C1026 0.930 . S
H1018 C1028 0.930 . S
H1019 C1031 0.929 . S
H1020 C1034 0.930 . S
H1021 C1036 0.960 . S
H1022 C1036 0.960 . S
H1023 C1036 0.960 . S
C1024 H1016 0.929 . S
C1024 C1025 1.377 . S
C1024 C1026 1.384 . S
C1025 C1024 1.377 . S
C1025 C1031 1.390 . S
C1026 H1017 0.930 . S
C1026 C1024 1.384 . S
C1026 C1027 1.372 . S
C1027 C1026 1.372 . S
C1027 C1028 1.400 . S
C1027 C1032 1.490 . S
C1028 H1018 0.930 . S
C1028 C1027 1.400 . S
C1028 C1031 1.386 . S
H1029 C1045 0.930 . S
H1030 C1046 0.931 . S
C1031 H1019 0.929 . S
C1031 C1025 1.390 . S
C1031 C1028 1.386 . S
C1032 C1027 1.490 . S
C1032 C1034 1.395 . S
C1032 C1035 1.403 . S
H1033 C1039 0.930 . S
C1034 H1020 0.930 . S
C1034 C1032 1.395 . S
C1034 C1037 1.403 . S
C1035 C1032 1.403 . S
C1035 C1036 1.524 . S
C1035 C1039 1.400 . S
C1036 H1021 0.960 . S
C1036 H1022 0.960 . S
C1036 H1023 0.960 . S
C1036 C1035 1.524 . S
C1037 C1034 1.403 . S
C1037 C1038 1.392 . S
C1037 C1041 1.495 . S
C1038 C1037 1.392 . S
C1038 C1039 1.385 . S
C1038 C1040 1.478 . S
C1039 H1033 0.930 . S
C1039 C1035 1.400 . S
C1039 C1038 1.385 . S
C1040 C1038 1.478 . S
C1040 C1042 1.381 . S
C1040 C1046 1.383 . S
C1041 C1037 1.495 . S
C1041 H1047 0.959 . S
C1041 H1048 0.961 . S
C1041 H1049 0.960 . S
C1042 C1040 1.381 . S
C1042 C1043 1.394 . S
C1042 H1050 0.930 . S
C1043 C1042 1.394 . S
C1043 C1044 1.383 . S
C1043 H1051 0.929 . S
C1044 C1043 1.383 . S
C1044 C1045 1.377 . S
C1045 H1029 0.930 . S
C1045 C1044 1.377 . S
C1045 C1046 1.379 . S
C1046 H1030 0.931 . S
C1046 C1040 1.383 . S
C1046 C1045 1.379 . S
H1047 C1041 0.959 . S
H1048 C1041 0.961 . S
H1049 C1041 0.960 . S
H1050 C1042 0.930 . S
H1051 C1043 0.929 . S
H1052 C1060 0.929 . S
H1053 C1062 0.930 . S
H1054 C1064 0.930 . S
H1055 C1067 0.929 . S
H1056 C1070 0.930 . S
H1057 C1072 0.960 . S
H1058 C1072 0.960 . S
H1059 C1072 0.960 . S
C1060 H1052 0.929 . S
C1060 C1061 1.377 . S
C1060 C1062 1.384 . S
C1061 C1060 1.377 . S
C1061 C1067 1.390 . S
C1062 H1053 0.930 . S
C1062 C1060 1.384 . S
C1062 C1063 1.372 . S
C1063 C1062 1.372 . S
C1063 C1064 1.400 . S
C1063 C1068 1.490 . S
C1064 H1054 0.930 . S
C1064 C1063 1.400 . S
C1064 C1067 1.386 . S
H1065 C1081 0.930 . S
H1066 C1082 0.931 . S
C1067 H1055 0.929 . S
C1067 C1061 1.390 . S
C1067 C1064 1.386 . S
C1068 C1063 1.490 . S
C1068 C1070 1.395 . S
C1068 C1071 1.403 . S
H1069 C1075 0.930 . S
C1070 H1056 0.930 . S
C1070 C1068 1.395 . S
C1070 C1073 1.403 1_554 S
C1071 C1068 1.403 . S
C1071 C1072 1.524 . S
C1071 C1075 1.400 1_554 S
C1072 H1057 0.960 . S
C1072 H1058 0.960 . S
C1072 H1059 0.960 . S
C1072 C1071 1.524 . S
C1073 C1070 1.403 1_556 S
C1073 C1074 1.392 . S
C1073 C1077 1.495 . S
C1074 C1073 1.392 . S
C1074 C1075 1.385 . S
C1074 C1076 1.478 . S
C1075 H1069 0.930 . S
C1075 C1071 1.400 1_556 S
C1075 C1074 1.385 . S
C1076 C1074 1.478 . S
C1076 C1078 1.381 . S
C1076 C1082 1.383 . S
C1077 C1073 1.495 . S
C1077 H1083 0.959 . S
C1077 H1084 0.961 . S
C1077 H1085 0.960 . S
C1078 C1076 1.381 . S
C1078 C1079 1.394 . S
C1078 H1086 0.930 . S
C1079 C1078 1.394 . S
C1079 C1080 1.383 . S
C1079 H1087 0.929 . S
C1080 C1079 1.383 . S
C1080 C1081 1.377 . S
C1081 H1065 0.930 . S
C1081 C1080 1.377 . S
C1081 C1082 1.379 . S
C1082 H1066 0.931 . S
C1082 C1076 1.383 . S
C1082 C1081 1.379 . S
H1083 C1077 0.959 . S
H1084 C1077 0.961 . S
H1085 C1077 0.960 . S
H1086 C1078 0.930 . S
H1087 C1079 0.929 . S
H1088 C1096 0.929 . S
H1089 C1098 0.930 . S
H1090 C1100 0.930 . S
H1091 C1103 0.929 . S
H1092 C1106 0.930 . S
H1093 C1108 0.960 . S
H1094 C1108 0.960 . S
H1095 C1108 0.960 . S
C1096 H1088 0.929 . S
C1096 C1097 1.377 . S
C1096 C1098 1.384 . S
C1097 C1096 1.377 . S
C1097 C1103 1.390 . S
C1098 H1089 0.930 . S
C1098 C1096 1.384 . S
C1098 C1099 1.372 . S
C1099 C1098 1.372 . S
C1099 C1100 1.400 . S
C1099 C1104 1.490 . S
C1100 H1090 0.930 . S
C1100 C1099 1.400 . S
C1100 C1103 1.386 . S
H1101 C1117 0.930 . S
H1102 C1118 0.931 . S
C1103 H1091 0.929 . S
C1103 C1097 1.390 . S
C1103 C1100 1.386 . S
C1104 C1099 1.490 . S
C1104 C1106 1.395 . S
C1104 C1107 1.403 . S
H1105 C1111 0.930 . S
C1106 H1092 0.930 . S
C1106 C1104 1.395 . S
C1106 C1109 1.403 . S
C1107 C1104 1.403 . S
C1107 C1108 1.524 . S
C1107 C1111 1.400 . S
C1108 H1093 0.960 . S
C1108 H1094 0.960 . S
C1108 H1095 0.960 . S
C1108 C1107 1.524 . S
C1109 C1106 1.403 . S
C1109 C1110 1.392 . S
C1109 C1113 1.495 . S
C1110 C1109 1.392 . S
C1110 C1111 1.385 . S
C1110 C1112 1.478 . S
C1111 H1105 0.930 . S
C1111 C1107 1.400 . S
C1111 C1110 1.385 . S
C1112 C1110 1.478 . S
C1112 C1114 1.381 . S
C1112 C1118 1.383 . S
C1113 C1109 1.495 . S
C1113 H1119 0.959 . S
C1113 H1120 0.961 . S
C1113 H1121 0.960 . S
C1114 C1112 1.381 . S
C1114 C1115 1.394 . S
C1114 H1122 0.930 . S
C1115 C1114 1.394 . S
C1115 C1116 1.383 . S
C1115 H1123 0.929 . S
C1116 C1115 1.383 . S
C1116 C1117 1.377 . S
C1117 H1101 0.930 . S
C1117 C1116 1.377 . S
C1117 C1118 1.379 . S
C1118 H1102 0.931 . S
C1118 C1112 1.383 . S
C1118 C1117 1.379 . S
H1119 C1113 0.959 . S
H1120 C1113 0.961 . S
H1121 C1113 0.960 . S
H1122 C1114 0.930 . S
H1123 C1115 0.929 . S
H1124 C1132 0.929 . S
H1125 C1134 0.930 . S
H1126 C1136 0.930 . S
H1127 C1139 0.929 . S
H1128 C1142 0.930 . S
H1129 C1144 0.960 . S
H1130 C1144 0.960 . S
H1131 C1144 0.960 . S
C1132 H1124 0.929 . S
C1132 C1133 1.377 . S
C1132 C1134 1.384 . S
C1133 C1132 1.377 . S
C1133 C1139 1.390 . S
C1134 H1125 0.930 . S
C1134 C1132 1.384 . S
C1134 C1135 1.372 . S
C1135 C1134 1.372 . S
C1135 C1136 1.400 . S
C1135 C1140 1.490 . S
C1136 H1126 0.930 . S
C1136 C1135 1.400 . S
C1136 C1139 1.386 . S
H1137 C1153 0.930 . S
H1138 C1154 0.931 . S
C1139 H1127 0.929 . S
C1139 C1133 1.390 . S
C1139 C1136 1.386 . S
C1140 C1135 1.490 . S
C1140 C1142 1.395 . S
C1140 C1143 1.403 . S
H1141 C1147 0.930 . S
C1142 H1128 0.930 . S
C1142 C1140 1.395 . S
C1142 C1145 1.403 . S
C1143 C1140 1.403 . S
C1143 C1144 1.524 . S
C1143 C1147 1.400 . S
C1144 H1129 0.960 . S
C1144 H1130 0.960 . S
C1144 H1131 0.960 . S
C1144 C1143 1.524 . S
C1145 C1142 1.403 . S
C1145 C1146 1.392 . S
C1145 C1149 1.495 . S
C1146 C1145 1.392 . S
C1146 C1147 1.385 . S
C1146 C1148 1.478 . S
C1147 H1141 0.930 . S
C1147 C1143 1.400 . S
C1147 C1146 1.385 . S
C1148 C1146 1.478 . S
C1148 C1150 1.381 . S
C1148 C1154 1.383 . S
C1149 C1145 1.495 . S
C1149 H1155 0.959 . S
C1149 H1156 0.961 . S
C1149 H1157 0.960 . S
C1150 C1148 1.381 . S
C1150 C1151 1.394 . S
C1150 H1158 0.930 . S
C1151 C1150 1.394 . S
C1151 C1152 1.383 . S
C1151 H1159 0.929 . S
C1152 C1151 1.383 . S
C1152 C1153 1.377 . S
C1153 H1137 0.930 . S
C1153 C1152 1.377 . S
C1153 C1154 1.379 . S
C1154 H1138 0.931 . S
C1154 C1148 1.383 . S
C1154 C1153 1.379 . S
H1155 C1149 0.959 . S
H1156 C1149 0.961 . S
H1157 C1149 0.960 . S
H1158 C1150 0.930 . S
H1159 C1151 0.929 . S
H1160 C1168 0.929 . S
H1161 C1170 0.930 . S
H1162 C1172 0.930 . S
H1163 C1175 0.929 . S
H1164 C1178 0.930 . S
H1165 C1180 0.960 . S
H1166 C1180 0.960 . S
H1167 C1180 0.960 . S
C1168 H1160 0.929 . S
C1168 C1169 1.377 . S
C1168 C1170 1.384 . S
C1169 C1168 1.377 . S
C1169 C1175 1.390 . S
C1170 H1161 0.930 . S
C1170 C1168 1.384 . S
C1170 C1171 1.372 . S
C1171 C1170 1.372 . S
C1171 C1172 1.400 . S
C1171 C1176 1.490 . S
C1172 H1162 0.930 . S
C1172 C1171 1.400 . S
C1172 C1175 1.386 . S
H1173 C1189 0.930 . S
H1174 C1190 0.931 . S
C1175 H1163 0.929 . S
C1175 C1169 1.390 . S
C1175 C1172 1.386 . S
C1176 C1171 1.490 . S
C1176 C1178 1.395 . S
C1176 C1179 1.403 . S
H1177 C1183 0.930 . S
C1178 H1164 0.930 . S
C1178 C1176 1.395 . S
C1178 C1181 1.403 . S
C1179 C1176 1.403 . S
C1179 C1180 1.524 . S
C1179 C1183 1.400 . S
C1180 H1165 0.960 . S
C1180 H1166 0.960 . S
C1180 H1167 0.960 . S
C1180 C1179 1.524 . S
C1181 C1178 1.403 . S
C1181 C1182 1.392 . S
C1181 C1185 1.495 . S
C1182 C1181 1.392 . S
C1182 C1183 1.385 . S
C1182 C1184 1.478 . S
C1183 H1177 0.930 . S
C1183 C1179 1.400 . S
C1183 C1182 1.385 . S
C1184 C1182 1.478 . S
C1184 C1186 1.381 . S
C1184 C1190 1.383 . S
C1185 C1181 1.495 . S
C1185 H1191 0.959 . S
C1185 H1192 0.961 . S
C1185 H1193 0.960 . S
C1186 C1184 1.381 . S
C1186 C1187 1.394 . S
C1186 H1194 0.930 . S
C1187 C1186 1.394 . S
C1187 C1188 1.383 . S
C1187 H1195 0.929 . S
C1188 C1187 1.383 . S
C1188 C1189 1.377 . S
C1189 H1173 0.930 . S
C1189 C1188 1.377 . S
C1189 C1190 1.379 . S
C1190 H1174 0.931 . S
C1190 C1184 1.383 . S
C1190 C1189 1.379 . S
H1191 C1185 0.959 . S
H1192 C1185 0.961 . S
H1193 C1185 0.960 . S
H1194 C1186 0.930 . S
H1195 C1187 0.929 . S
H1196 C1204 0.929 . S
H1197 C1206 0.930 . S
H1198 C1208 0.930 . S
H1199 C1211 0.929 . S
H1200 C1214 0.930 . S
H1201 C1216 0.960 . S
H1202 C1216 0.960 . S
H1203 C1216 0.960 . S
C1204 H1196 0.929 . S
C1204 C1205 1.377 . S
C1204 C1206 1.384 . S
C1205 C1204 1.377 . S
C1205 C1211 1.390 . S
C1206 H1197 0.930 . S
C1206 C1204 1.384 . S
C1206 C1207 1.372 . S
C1207 C1206 1.372 . S
C1207 C1208 1.400 . S
C1207 C1212 1.490 . S
C1208 H1198 0.930 . S
C1208 C1207 1.400 . S
C1208 C1211 1.386 . S
H1209 C1225 0.930 . S
H1210 C1226 0.931 . S
C1211 H1199 0.929 . S
C1211 C1205 1.390 . S
C1211 C1208 1.386 . S
C1212 C1207 1.490 . S
C1212 C1214 1.395 . S
C1212 C1215 1.403 . S
H1213 C1219 0.930 . S
C1214 H1200 0.930 . S
C1214 C1212 1.395 . S
C1214 C1217 1.403 . S
C1215 C1212 1.403 . S
C1215 C1216 1.524 . S
C1215 C1219 1.400 . S
C1216 H1201 0.960 . S
C1216 H1202 0.960 . S
C1216 H1203 0.960 . S
C1216 C1215 1.524 . S
C1217 C1214 1.403 . S
C1217 C1218 1.392 . S
C1217 C1221 1.495 . S
C1218 C1217 1.392 . S
C1218 C1219 1.385 . S
C1218 C1220 1.478 . S
C1219 H1213 0.930 . S
C1219 C1215 1.400 . S
C1219 C1218 1.385 . S
C1220 C1218 1.478 . S
C1220 C1222 1.381 . S
C1220 C1226 1.383 . S
C1221 C1217 1.495 . S
C1221 H1227 0.959 . S
C1221 H1228 0.961 . S
C1221 H1229 0.960 . S
C1222 C1220 1.381 . S
C1222 C1223 1.394 . S
C1222 H1230 0.930 . S
C1223 C1222 1.394 . S
C1223 C1224 1.383 . S
C1223 H1231 0.929 . S
C1224 C1223 1.383 . S
C1224 C1225 1.377 . S
C1225 H1209 0.930 . S
C1225 C1224 1.377 . S
C1225 C1226 1.379 . S
C1226 H1210 0.931 . S
C1226 C1220 1.383 . S
C1226 C1225 1.379 . S
H1227 C1221 0.959 . S
H1228 C1221 0.961 . S
H1229 C1221 0.960 . S
H1230 C1222 0.930 . S
H1231 C1223 0.929 . S
H1232 C1240 0.929 . S
H1233 C1242 0.930 . S
H1234 C1244 0.930 . S
H1235 C1247 0.929 . S
H1236 C1250 0.930 . S
H1237 C1252 0.960 . S
H1238 C1252 0.960 . S
H1239 C1252 0.960 . S
C1240 H1232 0.929 . S
C1240 C1241 1.377 . S
C1240 C1242 1.384 . S
C1241 C1240 1.377 . S
C1241 C1247 1.390 . S
C1242 H1233 0.930 . S
C1242 C1240 1.384 . S
C1242 C1243 1.372 . S
C1243 C1242 1.372 . S
C1243 C1244 1.400 . S
C1243 C1248 1.490 . S
C1244 H1234 0.930 . S
C1244 C1243 1.400 . S
C1244 C1247 1.386 . S
H1245 C1261 0.930 . S
H1246 C1262 0.931 . S
C1247 H1235 0.929 . S
C1247 C1241 1.390 . S
C1247 C1244 1.386 . S
C1248 C1243 1.490 . S
C1248 C1250 1.395 . S
C1248 C1251 1.403 . S
H1249 C1255 0.930 . S
C1250 H1236 0.930 . S
C1250 C1248 1.395 . S
C1250 C1253 1.403 . S
C1251 C1248 1.403 . S
C1251 C1252 1.524 . S
C1251 C1255 1.400 . S
C1252 H1237 0.960 . S
C1252 H1238 0.960 . S
C1252 H1239 0.960 . S
C1252 C1251 1.524 . S
C1253 C1250 1.403 . S
C1253 C1254 1.392 . S
C1253 C1257 1.495 . S
C1254 C1253 1.392 . S
C1254 C1255 1.385 . S
C1254 C1256 1.478 . S
C1255 H1249 0.930 . S
C1255 C1251 1.400 . S
C1255 C1254 1.385 . S
C1256 C1254 1.478 . S
C1256 C1258 1.381 . S
C1256 C1262 1.383 . S
C1257 C1253 1.495 . S
C1257 H1263 0.959 . S
C1257 H1264 0.961 . S
C1257 H1265 0.960 . S
C1258 C1256 1.381 . S
C1258 C1259 1.394 . S
C1258 H1266 0.930 . S
C1259 C1258 1.394 . S
C1259 C1260 1.383 . S
C1259 H1267 0.929 . S
C1260 C1259 1.383 . S
C1260 C1261 1.377 . S
C1261 H1245 0.930 . S
C1261 C1260 1.377 . S
C1261 C1262 1.379 . S
C1262 H1246 0.931 . S
C1262 C1256 1.383 . S
C1262 C1261 1.379 . S
H1263 C1257 0.959 . S
H1264 C1257 0.961 . S
H1265 C1257 0.960 . S
H1266 C1258 0.930 . S
H1267 C1259 0.929 . S
H1268 C1276 0.929 . S
H1269 C1278 0.930 . S
H1270 C1280 0.930 . S
H1271 C1283 0.929 . S
H1272 C1286 0.930 . S
H1273 C1288 0.960 . S
H1274 C1288 0.960 . S
H1275 C1288 0.960 . S
C1276 H1268 0.929 . S
C1276 C1277 1.377 . S
C1276 C1278 1.384 . S
C1277 C1276 1.377 . S
C1277 C1283 1.390 . S
C1278 H1269 0.930 . S
C1278 C1276 1.384 . S
C1278 C1279 1.372 . S
C1279 C1278 1.372 . S
C1279 C1280 1.400 . S
C1279 C1284 1.490 . S
C1280 H1270 0.930 . S
C1280 C1279 1.400 . S
C1280 C1283 1.386 . S
H1281 C1297 0.930 . S
H1282 C1298 0.931 . S
C1283 H1271 0.929 . S
C1283 C1277 1.390 . S
C1283 C1280 1.386 . S
C1284 C1279 1.490 . S
C1284 C1286 1.395 . S
C1284 C1287 1.403 . S
H1285 C1291 0.930 . S
C1286 H1272 0.930 . S
C1286 C1284 1.395 . S
C1286 C1289 1.403 . S
C1287 C1284 1.403 . S
C1287 C1288 1.524 . S
C1287 C1291 1.400 . S
C1288 H1273 0.960 . S
C1288 H1274 0.960 . S
C1288 H1275 0.960 . S
C1288 C1287 1.524 . S
C1289 C1286 1.403 . S
C1289 C1290 1.392 . S
C1289 C1293 1.495 . S
C1290 C1289 1.392 . S
C1290 C1291 1.385 . S
C1290 C1292 1.478 . S
C1291 H1285 0.930 . S
C1291 C1287 1.400 . S
C1291 C1290 1.385 . S
C1292 C1290 1.478 . S
C1292 C1294 1.381 . S
C1292 C1298 1.383 . S
C1293 C1289 1.495 . S
C1293 H1299 0.959 . S
C1293 H1300 0.961 . S
C1293 H1301 0.960 . S
C1294 C1292 1.381 . S
C1294 C1295 1.394 . S
C1294 H1302 0.930 . S
C1295 C1294 1.394 . S
C1295 C1296 1.383 . S
C1295 H1303 0.929 . S
C1296 C1295 1.383 . S
C1296 C1297 1.377 . S
C1297 H1281 0.930 . S
C1297 C1296 1.377 . S
C1297 C1298 1.379 . S
C1298 H1282 0.931 . S
C1298 C1292 1.383 . S
C1298 C1297 1.379 . S
H1299 C1293 0.959 . S
H1300 C1293 0.961 . S
H1301 C1293 0.960 . S
H1302 C1294 0.930 . S
H1303 C1295 0.929 . S
H1304 C1312 0.929 . S
H1305 C1314 0.930 . S
H1306 C1316 0.930 . S
H1307 C1319 0.929 . S
H1308 C1322 0.930 . S
H1309 C1324 0.960 . S
H1310 C1324 0.960 . S
H1311 C1324 0.960 . S
C1312 H1304 0.929 . S
C1312 C1313 1.377 . S
C1312 C1314 1.384 . S
C1313 C1312 1.377 . S
C1313 C1319 1.390 . S
C1314 H1305 0.930 . S
C1314 C1312 1.384 . S
C1314 C1315 1.372 . S
C1315 C1314 1.372 . S
C1315 C1316 1.400 . S
C1315 C1320 1.490 . S
C1316 H1306 0.930 . S
C1316 C1315 1.400 . S
C1316 C1319 1.386 . S
H1317 C1333 0.930 . S
H1318 C1334 0.931 . S
C1319 H1307 0.929 . S
C1319 C1313 1.390 . S
C1319 C1316 1.386 . S
C1320 C1315 1.490 . S
C1320 C1322 1.395 . S
C1320 C1323 1.403 . S
H1321 C1327 0.930 . S
C1322 H1308 0.930 . S
C1322 C1320 1.395 . S
C1322 C1325 1.403 . S
C1323 C1320 1.403 . S
C1323 C1324 1.524 . S
C1323 C1327 1.400 . S
C1324 H1309 0.960 . S
C1324 H1310 0.960 . S
C1324 H1311 0.960 . S
C1324 C1323 1.524 . S
C1325 C1322 1.403 . S
C1325 C1326 1.392 . S
C1325 C1329 1.495 . S
C1326 C1325 1.392 . S
C1326 C1327 1.385 . S
C1326 C1328 1.478 . S
C1327 H1321 0.930 . S
C1327 C1323 1.400 . S
C1327 C1326 1.385 . S
C1328 C1326 1.478 . S
C1328 C1330 1.381 . S
C1328 C1334 1.383 . S
C1329 C1325 1.495 . S
C1329 H1335 0.959 . S
C1329 H1336 0.961 . S
C1329 H1337 0.960 . S
C1330 C1328 1.381 . S
C1330 C1331 1.394 . S
C1330 H1338 0.930 . S
C1331 C1330 1.394 . S
C1331 C1332 1.383 . S
C1331 H1339 0.929 . S
C1332 C1331 1.383 . S
C1332 C1333 1.377 . S
C1333 H1317 0.930 . S
C1333 C1332 1.377 . S
C1333 C1334 1.379 . S
C1334 H1318 0.931 . S
C1334 C1328 1.383 . S
C1334 C1333 1.379 . S
H1335 C1329 0.959 . S
H1336 C1329 0.961 . S
H1337 C1329 0.960 . S
H1338 C1330 0.930 . S
H1339 C1331 0.929 . S
H1340 C1348 0.929 . S
H1341 C1350 0.930 . S
H1342 C1352 0.930 . S
H1343 C1355 0.929 . S
H1344 C1358 0.930 . S
H1345 C1360 0.960 . S
H1346 C1360 0.960 . S
H1347 C1360 0.960 . S
C1348 H1340 0.929 . S
C1348 C1349 1.377 . S
C1348 C1350 1.384 . S
C1349 C1348 1.377 . S
C1349 C1355 1.390 . S
C1350 H1341 0.930 . S
C1350 C1348 1.384 . S
C1350 C1351 1.372 . S
C1351 C1350 1.372 . S
C1351 C1352 1.400 . S
C1351 C1356 1.490 . S
C1352 H1342 0.930 . S
C1352 C1351 1.400 . S
C1352 C1355 1.386 . S
H1353 C1369 0.930 . S
H1354 C1370 0.931 . S
C1355 H1343 0.929 . S
C1355 C1349 1.390 . S
C1355 C1352 1.386 . S
C1356 C1351 1.490 . S
C1356 C1358 1.395 . S
C1356 C1359 1.403 . S
H1357 C1363 0.930 . S
C1358 H1344 0.930 . S
C1358 C1356 1.395 . S
C1358 C1361 1.403 . S
C1359 C1356 1.403 . S
C1359 C1360 1.524 . S
C1359 C1363 1.400 . S
C1360 H1345 0.960 . S
C1360 H1346 0.960 . S
C1360 H1347 0.960 . S
C1360 C1359 1.524 . S
C1361 C1358 1.403 . S
C1361 C1362 1.392 . S
C1361 C1365 1.495 . S
C1362 C1361 1.392 . S
C1362 C1363 1.385 . S
C1362 C1364 1.478 . S
C1363 H1357 0.930 . S
C1363 C1359 1.400 . S
C1363 C1362 1.385 . S
C1364 C1362 1.478 . S
C1364 C1366 1.381 . S
C1364 C1370 1.383 . S
C1365 C1361 1.495 . S
C1365 H1371 0.959 . S
C1365 H1372 0.961 . S
C1365 H1373 0.960 . S
C1366 C1364 1.381 . S
C1366 C1367 1.394 . S
C1366 H1374 0.930 . S
C1367 C1366 1.394 . S
C1367 C1368 1.383 . S
C1367 H1375 0.929 . S
C1368 C1367 1.383 . S
C1368 C1369 1.377 . S
C1369 H1353 0.930 . S
C1369 C1368 1.377 . S
C1369 C1370 1.379 . S
C1370 H1354 0.931 . S
C1370 C1364 1.383 . S
C1370 C1369 1.379 . S
H1371 C1365 0.959 . S
H1372 C1365 0.961 . S
H1373 C1365 0.960 . S
H1374 C1366 0.930 . S
H1375 C1367 0.929 . S
C233 C9 1.325 . S
C252 C37 1.333 . S
C269 C51 1.318 . S
C288 C23 1.335 . S
C305 C65 1.324 . S
C324 C93 1.315 . S
C341 C107 1.321 . S
C360 C79 1.341 . S
C377 C121 1.319 . S
C396 C149 1.294 . S
C413 C163 1.321 . S
C432 C135 1.341 . S
C449 C177 1.321 . S
C468 C205 1.340 . S
C485 C219 1.318 . S
C504 C191 1.292 . S
C521 C59 1.132 . S
C540 C3 1.105 . S
C557 C17 1.144 . S
C576 C73 1.118 . S
C593 C31 1.141 . S
C612 C87 1.098 . S
C629 C101 1.139 . S
C648 C45 1.169 . S
C665 C115 1.129 . S
C684 C171 1.095 . S
C701 C129 1.142 . S
C720 C185 1.149 . S
C737 C143 1.138 . S
C756 C199 1.127 . S
C773 C157 1.140 . S
C792 C213 1.165 . S
C809 C147 1.119 . S
C828 C7 1.102 . S
C845 C161 1.125 . S
C864 C21 1.099 . S
C881 C35 1.116 . S
C900 C119 1.116 . S
C917 C49 1.117 . S
C936 C133 1.141 . S
C953 C63 1.123 . S
C972 C203 1.127 . S
C989 C77 1.124 . S
C1008 C217 1.096 . S
C1025 C91 1.119 . S
C1044 C175 1.101 . S
C1061 C189 1.124 . S
C1080 C105 1.098 . S
C1097 C8 1.348 . S
C1116 C218 1.347 . S
C1133 C176 1.349 . S
C1152 C22 1.346 . S
C1169 C36 1.349 . S
C1188 C190 1.344 . S
C1205 C204 1.349 . S
C1224 C50 1.345 . S
C1241 C134 1.349 . S
C1260 C64 1.347 . S
C1277 C78 1.348 . S
C1296 C148 1.346 . S
C1313 C162 1.349 . S
C1332 C92 1.347 . S
C1349 C120 1.349 . S
C1368 C106 1.347 . S
