# Generated by pormake.
# Topology sod, (4)-cn, num edge types: 1
# Building blocks:
#     Node 0, Type 0, BuildingBlock: QUQFOY_clean_sbu_3, # of connection points: 4
#     Node 1, Type 0, BuildingBlock: QUQFOY_clean_sbu_3, # of connection points: 4
#     Node 2, Type 0, BuildingBlock: QUQFOY_clean_sbu_3, # of connection points: 4
#     Node 3, Type 0, BuildingBlock: QUQFOY_clean_sbu_3, # of connection points: 4
#     Node 4, Type 0, BuildingBlock: QUQFOY_clean_sbu_3, # of connection points: 4
#     Node 5, Type 0, BuildingBlock: QUQFOY_clean_sbu_3, # of connection points: 4
#     Node 6, Type 0, BuildingBlock: QUQFOY_clean_sbu_3, # of connection points: 4
#     Node 7, Type 0, BuildingBlock: QUQFOY_clean_sbu_3, # of connection points: 4
#     Node 8, Type 0, BuildingBlock: QUQFOY_clean_sbu_3, # of connection points: 4
#     Node 9, Type 0, BuildingBlock: QUQFOY_clean_sbu_3, # of connection points: 4
#     Node 10, Type 0, BuildingBlock: QUQFOY_clean_sbu_3, # of connection points: 4
#     Node 11, Type 0, BuildingBlock: QUQFOY_clean_sbu_3, # of connection points: 4
#     Edge 12, Type (0, 0), BuildingBlock: XIVTED_clean_linker_0, # of connection points: 2
#     Edge 13, Type (0, 0), BuildingBlock: XIVTED_clean_linker_0, # of connection points: 2
#     Edge 14, Type (0, 0), BuildingBlock: XIVTED_clean_linker_0, # of connection points: 2
#     Edge 15, Type (0, 0), BuildingBlock: XIVTED_clean_linker_0, # of connection points: 2
#     Edge 16, Type (0, 0), BuildingBlock: XIVTED_clean_linker_0, # of connection points: 2
#     Edge 17, Type (0, 0), BuildingBlock: XIVTED_clean_linker_0, # of connection points: 2
#     Edge 18, Type (0, 0), BuildingBlock: XIVTED_clean_linker_0, # of connection points: 2
#     Edge 19, Type (0, 0), BuildingBlock: XIVTED_clean_linker_0, # of connection points: 2
#     Edge 20, Type (0, 0), BuildingBlock: XIVTED_clean_linker_0, # of connection points: 2
#     Edge 21, Type (0, 0), BuildingBlock: XIVTED_clean_linker_0, # of connection points: 2
#     Edge 22, Type (0, 0), BuildingBlock: XIVTED_clean_linker_0, # of connection points: 2
#     Edge 23, Type (0, 0), BuildingBlock: XIVTED_clean_linker_0, # of connection points: 2
#     Edge 24, Type (0, 0), BuildingBlock: XIVTED_clean_linker_0, # of connection points: 2
#     Edge 25, Type (0, 0), BuildingBlock: XIVTED_clean_linker_0, # of connection points: 2
#     Edge 26, Type (0, 0), BuildingBlock: XIVTED_clean_linker_0, # of connection points: 2
#     Edge 27, Type (0, 0), BuildingBlock: XIVTED_clean_linker_0, # of connection points: 2
#     Edge 28, Type (0, 0), BuildingBlock: XIVTED_clean_linker_0, # of connection points: 2
#     Edge 29, Type (0, 0), BuildingBlock: XIVTED_clean_linker_0, # of connection points: 2
#     Edge 30, Type (0, 0), BuildingBlock: XIVTED_clean_linker_0, # of connection points: 2
#     Edge 31, Type (0, 0), BuildingBlock: XIVTED_clean_linker_0, # of connection points: 2
#     Edge 32, Type (0, 0), BuildingBlock: XIVTED_clean_linker_0, # of connection points: 2
#     Edge 33, Type (0, 0), BuildingBlock: XIVTED_clean_linker_0, # of connection points: 2
#     Edge 34, Type (0, 0), BuildingBlock: XIVTED_clean_linker_0, # of connection points: 2
#     Edge 35, Type (0, 0), BuildingBlock: XIVTED_clean_linker_0, # of connection points: 2
# Relax obj value: 0.139
# Max RMSD: 0.178
# Mean RMSD: 0.168
data_MOF--net-sod--node1-QUQFOY_clean_sbu_3--edge1-XIVTED_clean_linker_0
_symmetry_space_group_name_H-M    P1
_symmetry_Int_Tables_number       1
_symmetry_cell_setting            triclinic
loop_
_symmetry_equiv_pos_as_xyz
'x, y, z'
_cell_length_a     43.920606
_cell_length_b     44.163834
_cell_length_c     44.158064
_cell_angle_alpha  93.309436
_cell_angle_beta   90.415719
_cell_angle_gamma 91.695142
loop_
_atom_site_label
_atom_site_type_symbol
_atom_site_fract_x
_atom_site_fract_y
_atom_site_fract_z
_atom_type_partial_charge
C0 C -0.01433 0.20038 0.51128 0.0
O1 O -0.00332 0.20684 0.53762 0.0
Cd2 Cd 0.03192 0.24742 0.55034 0.0
O3 O -0.00577 0.21524 0.48871 0.0
Cd4 Cd 0.03211 0.25744 0.48147 0.0
C5 C 0.09073 0.21911 0.51024 0.0
O6 O 0.0106 0.28735 0.52283 0.0
O7 O 0.05142 0.3072 0.50491 0.0
O8 O 0.00316 0.27002 0.43638 0.0
C9 C 0.02823 0.3103 0.52159 0.0
O10 O 0.08132 0.22674 0.53668 0.0
C11 C 0.02666 0.27548 0.42075 0.0
O12 O 0.07595 0.22612 0.48698 0.0
O13 O 0.05228 0.27146 0.43308 0.0
C14 C 0.69663 0.04883 0.44914 0.0
O15 O 0.70163 0.07632 0.45833 0.0
Cd16 Cd 0.73724 0.09103 0.49805 0.0
O17 O 0.71079 0.02758 0.46094 0.0
Cd18 Cd 0.74973 0.02187 0.50071 0.0
C19 C 0.70481 0.0531 0.55522 0.0
O20 O 0.78213 0.06336 0.48465 0.0
O21 O 0.79568 0.04406 0.52623 0.0
O22 O 0.76711 0.97766 0.47064 0.0
C23 C 0.80198 0.06164 0.50533 0.0
O24 O 0.71131 0.07882 0.54495 0.0
C25 C 0.7691 0.96102 0.49305 0.0
O26 O 0.71475 0.02897 0.54231 0.0
O27 O 0.7613 0.97252 0.51872 0.0
C28 C 0.90309 0.78413 0.47837 0.0
O29 O 0.91318 0.77637 0.45228 0.0
Cd30 Cd 0.95466 0.74374 0.44289 0.0
O31 O 0.91524 0.77453 0.5022 0.0
Cd32 Cd 0.95807 0.74102 0.51301 0.0
C33 C 0.0102 0.78649 0.48051 0.0
O34 O 0.94419 0.70203 0.47411 0.0
O35 O -0.01131 0.6979 0.49379 0.0
O36 O 0.93208 0.72233 0.55743 0.0
C37 C 0.96735 0.68615 0.47713 0.0
O38 O 0.00098 0.77472 0.45496 0.0
C39 C 0.9552 0.72607 0.57484 0.0
O40 O -0.00295 0.77961 0.50481 0.0
O41 O 0.97893 0.73804 0.56377 0.0
C42 C 0.2917 0.94795 0.44052 0.0
O43 O 0.28935 0.92208 0.45162 0.0
Cd44 Cd 0.25543 0.90893 0.4911 0.0
O45 O 0.27605 0.97001 0.45108 0.0
Cd46 Cd 0.23803 0.97748 0.4923 0.0
C47 C 0.28413 0.95473 0.54891 0.0
O48 O 0.20916 0.93186 0.47553 0.0
O49 O 0.19186 0.95519 0.51559 0.0
O50 O 0.21681 0.02036 0.46659 0.0
C51 C 0.18827 0.93424 0.49494 0.0
O52 O 0.27979 0.92726 0.53918 0.0
C53 C 0.21746 0.03801 0.49041 0.0
O54 O 0.27279 0.97605 0.53486 0.0
O55 O 0.22784 0.02744 0.51436 0.0
C56 C 0.54359 -0.0024 0.28335 0.0
O57 O 0.54037 0.96981 0.27449 0.0
Cd58 Cd 0.50553 0.94989 0.23671 0.0
O59 O 0.5275 0.0177 0.27183 0.0
Cd60 Cd 0.48668 0.01798 0.23227 0.0
C61 C 0.44087 0.97235 0.27268 0.0
O62 O 0.51347 0.98453 0.19746 0.0
O63 O 0.46742 -0.0077 0.18391 0.0
O64 O 0.50419 0.06878 0.21948 0.0
C65 C 0.49307 0.9815 0.17716 0.0
O66 O 0.45667 0.95008 0.26321 0.0
C67 C 0.4776 0.0793 0.21843 0.0
O68 O 0.44794 -0.00086 0.26569 0.0
O69 O 0.45562 0.06156 0.22478 0.0
C70 C 0.03789 0.53375 0.2099 0.0
O71 O 0.02269 0.55691 0.21768 0.0
Cd72 Cd 0.9831 0.55844 0.25401 0.0
O73 O 0.03201 0.50824 0.22114 0.0
Cd74 Cd -0.00574 0.48966 0.25851 0.0
C75 C 0.93243 0.50907 0.2181 0.0
O76 O 0.00508 0.53192 0.2945 0.0
O77 O 0.96668 0.50376 0.30609 0.0
O78 O 0.02898 0.45051 0.27369 0.0
C79 C -0.01429 0.52488 0.31405 0.0
O80 O 0.93749 0.53648 0.22771 0.0
C81 C 0.00849 0.42954 0.2729 0.0
O82 O 0.95065 0.4886 0.22468 0.0
O83 O 0.98213 0.43644 0.26424 0.0
C84 C 0.54168 0.03353 0.71039 0.0
O85 O 0.52657 0.0571 0.71674 0.0
Cd86 Cd 0.48521 0.06019 0.75098 0.0
O87 O 0.53485 0.00851 0.7222 0.0
Cd88 Cd 0.49536 -0.00836 0.75868 0.0
C89 C 0.43591 0.0098 0.71433 0.0
O90 O 0.50492 0.03509 0.79353 0.0
O91 O 0.46577 0.00765 0.80447 0.0
O92 O 0.52922 0.95299 0.77652 0.0
C93 C 0.48459 0.02895 0.81246 0.0
O94 O 0.44084 0.03748 0.72306 0.0
C95 C 0.50865 0.93208 0.77562 0.0
O96 O 0.45347 -0.01049 0.72275 0.0
O97 O 0.48263 0.93879 0.76589 0.0
C98 C 0.04384 0.49199 0.78593 0.0
O99 O 0.04057 0.46389 0.77839 0.0
Cd100 Cd 0.0044 0.44286 0.74232 0.0
O101 O 0.02731 0.51141 0.77389 0.0
Cd102 Cd -0.01428 0.51046 0.73518 0.0
C103 C 0.94062 0.4673 0.77869 0.0
O104 O 0.01162 0.47545 0.70111 0.0
O105 O 0.96553 0.48365 0.68785 0.0
O106 O 0.00405 0.56049 0.72103 0.0
C107 C -0.00909 0.47221 0.68112 0.0
O108 O 0.95627 0.44461 0.77014 0.0
C109 C 0.9777 0.57149 0.71979 0.0
O110 O 0.94748 0.49357 0.77009 0.0
O111 O 0.95538 0.5543 0.72645 0.0
C112 C 0.19524 0.55714 0.94929 0.0
O113 O 0.19898 0.58481 0.95839 0.0
Cd114 Cd 0.23319 0.60047 -0.00089 0.0
O115 O 0.20994 0.53658 0.9616 0.0
Cd116 Cd 0.24823 0.53219 0.00215 0.0
C117 C 0.20068 0.56137 0.05539 0.0
O118 O 0.27963 0.57474 -0.01327 0.0
O119 O 0.29314 0.5556 0.02843 0.0
O120 O 0.26683 0.4886 0.97201 0.0
C121 C 0.29926 0.57344 0.00768 0.0
O122 O 0.20629 0.58734 0.04526 0.0
C123 C 0.26901 0.47185 -0.00569 0.0
O124 O 0.21209 0.53779 0.04284 0.0
O125 O 0.26102 0.48307 0.02003 0.0
C126 C 0.39788 0.29095 0.9767 0.0
O127 O 0.40775 0.28339 0.95046 0.0
Cd128 Cd 0.44891 0.2505 0.94025 0.0
O129 O 0.41 0.28085 0.0003 0.0
Cd130 Cd 0.45251 0.24676 0.01032 0.0
C131 C 0.50458 0.29264 0.97815 0.0
O132 O 0.43871 0.2082 0.97081 0.0
O133 O 0.48317 0.20399 -0.00944 0.0
O134 O 0.4273 0.22745 0.05496 0.0
C135 C 0.46197 0.1924 0.97362 0.0
O136 O 0.49541 0.28121 0.95244 0.0
C137 C 0.4506 0.23158 0.07212 0.0
O138 O 0.4914 0.28539 0.00231 0.0
O139 O 0.47399 0.2439 0.06077 0.0
C140 C 0.79076 0.44629 0.9468 0.0
O141 O 0.78685 0.42061 0.95799 0.0
Cd142 Cd 0.75079 0.40894 -0.00394 0.0
O143 O 0.77567 0.46908 0.95657 0.0
Cd144 Cd 0.73653 0.47834 -0.00354 0.0
C145 C 0.77928 0.45366 0.05473 0.0
O146 O 0.70646 0.43393 0.97864 0.0
O147 O 0.68864 0.45785 0.01811 0.0
O148 O 0.7177 0.52201 0.9702 0.0
C149 C 0.68495 0.43712 -0.00275 0.0
O150 O 0.77403 0.42635 0.04492 0.0
C151 C 0.71841 0.53968 -0.006 0.0
O152 O 0.76952 0.47545 0.04024 0.0
O153 O 0.72787 0.52879 0.01817 0.0
C154 C 0.48807 0.7056 0.01573 0.0
O155 O 0.49972 0.71179 0.04185 0.0
Cd156 Cd 0.53597 0.75176 0.05363 0.0
O157 O 0.49666 0.72015 -0.00704 0.0
Cd158 Cd 0.53564 0.76117 0.98497 0.0
C159 C 0.594 0.72221 0.01345 0.0
O160 O 0.51488 0.7919 0.02616 0.0
O161 O 0.55565 0.81109 0.00744 0.0
O162 O 0.50658 0.77394 0.94002 0.0
C163 C 0.53259 0.81468 0.02421 0.0
O164 O 0.58497 0.73025 0.03992 0.0
C165 C 0.53004 0.77882 0.92413 0.0
O166 O 0.57905 0.72918 -0.00972 0.0
O167 O 0.55565 0.77431 0.93622 0.0
H168 H 0.97537 0.28621 0.38782 0.0
H169 H 0.06208 0.40775 0.29371 0.0
H170 H 0.07339 0.29643 0.38644 0.0
H171 H 0.96678 0.38356 0.28035 0.0
H172 H 0.06787 0.36271 0.32265 0.0
H173 H 0.9724 0.31706 0.34376 0.0
C174 C -0.00372 0.29451 0.37794 0.0
C175 C 0.02462 0.28919 0.39112 0.0
C176 C 0.04579 0.36695 0.31292 0.0
C177 C 0.02143 0.32484 0.34101 0.0
C178 C 0.04251 0.39267 0.29639 0.0
C179 C 0.01381 0.39969 0.28508 0.0
C180 C 0.02011 0.34842 0.31853 0.0
C181 C -0.01073 0.37923 0.28902 0.0
C182 C -0.00539 0.31212 0.35276 0.0
C183 C 0.05101 0.30029 0.37723 0.0
N184 N -0.00715 0.35482 0.30588 0.0
N185 N 0.04876 0.31804 0.35326 0.0
H186 H 0.68097 -0.00717 0.4231 0.0
H187 H 0.55799 0.05454 0.30894 0.0
H188 H 0.66123 0.08778 0.41911 0.0
H189 H 0.58076 0.96032 0.31277 0.0
H190 H 0.59546 0.06759 0.34928 0.0
H191 H 0.64392 0.98083 0.3826 0.0
C192 C 0.66885 0.01119 0.41372 0.0
C193 C 0.67422 0.04136 0.42455 0.0
C194 C 0.59221 0.04408 0.34122 0.0
C195 C 0.63168 0.02776 0.37807 0.0
C196 C 0.57085 0.03662 0.31821 0.0
C197 C 0.5662 0.0063 0.30745 0.0
C198 C 0.60897 0.02103 0.35352 0.0
C199 C 0.58352 0.98402 0.32031 0.0
C200 C 0.64767 0.00431 0.39055 0.0
C201 C 0.65781 0.06418 0.41147 0.0
N202 N 0.60407 -0.00816 0.34263 0.0
N203 N 0.63724 0.0569 0.3889 0.0
H204 H 0.93645 0.53059 0.3516 0.0
H205 H 0.01989 0.6566 0.46326 0.0
H206 H 0.02999 0.5609 0.34178 0.0
H207 H 0.92258 0.65113 0.44862 0.0
H208 H 0.02505 0.61233 0.42773 0.0
H209 H 0.93239 0.56584 0.39639 0.0
C210 C 0.9562 0.54435 0.35912 0.0
C211 C -0.01655 0.54323 0.34283 0.0
C212 C 0.00257 0.6207 0.43259 0.0
C213 C 0.97909 0.5831 0.39385 0.0
C214 C -0.00039 0.64585 0.45288 0.0
C215 C 0.97082 0.65772 0.45849 0.0
C216 C 0.9765 0.6072 0.41822 0.0
C217 C 0.94524 0.6429 0.44454 0.0
C218 C 0.95386 0.56446 0.38455 0.0
C219 C 0.00842 0.56144 0.35351 0.0
N220 N 0.94869 0.61845 0.42492 0.0
N221 N 0.00562 0.58073 0.3783 0.0
H222 H 0.30385 -0.00024 0.41056 0.0
H223 H 0.42144 0.91914 0.29637 0.0
H224 H 0.32631 0.90522 0.41112 0.0
H225 H 0.40316 0.01479 0.2983 0.0
H226 H 0.38351 0.91296 0.33582 0.0
H227 H 0.33772 0.00526 0.36736 0.0
C228 C 0.31589 0.98017 0.40165 0.0
C229 C 0.3123 0.95202 0.4146 0.0
C230 C 0.38767 0.93527 0.32749 0.0
C231 C 0.35094 0.95811 0.36509 0.0
C232 C 0.40926 0.9388 0.30486 0.0
C233 C 0.41569 0.96757 0.29412 0.0
C234 C 0.37238 0.96069 0.33954 0.0
C235 C 0.39911 -0.0078 0.30599 0.0
C236 C 0.33517 0.98331 0.37694 0.0
C237 C 0.32841 0.92741 0.402 0.0
N238 N 0.37836 -0.01177 0.32818 0.0
N239 N 0.34702 0.93105 0.37801 0.0
H240 H 0.92353 0.598 0.70897 0.0
H241 H 0.00341 0.72581 0.6143 0.0
H242 H 0.0208 0.61361 0.70393 0.0
H243 H 0.90906 0.69661 0.60376 0.0
H244 H 0.00756 0.695 0.65822 0.0
H245 H 0.91596 0.64375 0.68162 0.0
C246 C 0.9433 0.61133 0.70257 0.0
C247 C 0.97287 0.60168 0.70819 0.0
C248 C -0.01419 0.69576 0.64661 0.0
C249 C 0.96433 0.65394 0.67685 0.0
C250 C 0.98337 0.71343 0.6216 0.0
C251 C 0.95599 0.71326 0.60498 0.0
C252 C 0.96071 0.67781 0.65503 0.0
C253 C 0.93072 0.69702 0.61565 0.0
C254 C 0.93894 0.63742 0.68692 0.0
C255 C -0.00238 0.61999 0.69965 0.0
N256 N 0.93382 0.67956 0.63975 0.0
N257 N -0.0072 0.64505 0.68404 0.0
H258 H 0.4178 0.95261 0.69315 0.0
H259 H 0.29504 0.01072 0.57722 0.0
H260 H 0.39605 0.04682 0.68711 0.0
H261 H 0.31693 0.91648 0.58273 0.0
H262 H 0.32913 0.02382 0.62001 0.0
H263 H 0.37825 0.93858 0.65551 0.0
C264 C 0.4046 0.97038 0.68405 0.0
C265 C 0.41046 0.00101 0.69318 0.0
C266 C 0.32638 0.00025 0.612 0.0
C267 C 0.3651 0.98499 0.64988 0.0
C268 C 0.3069 -0.00729 0.58751 0.0
C269 C 0.30327 0.96242 0.57616 0.0
C270 C 0.34251 0.97741 0.62528 0.0
C271 C 0.31911 0.94012 0.59061 0.0
C272 C 0.38199 0.9623 0.66252 0.0
C273 C 0.39245 0.02295 0.68068 0.0
N274 N 0.3382 0.94809 0.61431 0.0
N275 N 0.37072 0.01452 0.65953 0.0
H276 H 0.06872 0.3569 0.53862 0.0
H277 H 0.94752 0.44573 0.64228 0.0
H278 H 0.97504 0.32675 0.54777 0.0
H279 H 0.04473 0.4546 0.65685 0.0
H280 H 0.95624 0.40969 0.59906 0.0
H281 H 0.05906 0.40061 0.57384 0.0
C282 C 0.04611 0.35966 0.5478 0.0
C283 C 0.02275 0.33806 0.54067 0.0
C284 C 0.97562 0.41977 0.61162 0.0
C285 C 0.0115 0.38782 0.58046 0.0
C286 C 0.97067 0.44036 0.63616 0.0
C287 C -0.00457 0.4528 0.65333 0.0
C288 C 0.00553 0.41196 0.60407 0.0
C289 C 0.02499 0.44517 0.64442 0.0
C290 C 0.04062 0.38449 0.56789 0.0
C291 C -0.0062 0.3427 0.55305 0.0
N292 N 0.02923 0.42515 0.62045 0.0
N293 N -0.01099 0.36703 0.5724 0.0
H294 H 0.57792 -0.01209 0.68769 0.0
H295 H 0.6762 0.09916 0.58678 0.0
H296 H 0.56465 0.08427 0.68525 0.0
H297 H 0.68555 0.00192 0.58262 0.0
H298 H 0.63839 0.09437 0.62654 0.0
H299 H 0.62022 -0.00725 0.65226 0.0
C300 C 0.5839 0.01005 0.67978 0.0
C301 C 0.56758 0.03567 0.68933 0.0
C302 C 0.64882 0.07408 0.61703 0.0
C303 C 0.61593 0.04139 0.64899 0.0
C304 C 0.67049 0.07682 0.59437 0.0
C305 C 0.68392 0.05089 0.58116 0.0
C306 C 0.64045 0.0452 0.62657 0.0
C307 C 0.67566 0.02253 0.59201 0.0
C308 C 0.60805 0.01281 0.65958 0.0
C309 C 0.57641 0.06383 0.6784 0.0
N310 N 0.65433 0.02042 0.61397 0.0
N311 N 0.59991 0.06589 0.65882 0.0
H312 H 0.37211 0.31501 0.02887 0.0
H313 H 0.28555 0.4408 0.94194 0.0
H314 H 0.36799 0.31773 0.9313 0.0
H315 H 0.28239 0.43388 0.03899 0.0
H316 H 0.31202 0.39295 0.9374 0.0
H317 H 0.33557 0.35569 0.03301 0.0
C318 C 0.36332 0.32393 0.00832 0.0
C319 C 0.37344 0.31319 0.97971 0.0
C320 C 0.30529 0.40172 0.95968 0.0
C321 C 0.33178 0.35982 0.98429 0.0
C322 C 0.29019 0.42906 0.96227 0.0
C323 C 0.28207 0.44147 -0.00909 0.0
C324 C 0.31256 0.38684 -0.01405 0.0
C325 C 0.28844 0.4252 0.01648 0.0
C326 C 0.34245 0.34716 0.01069 0.0
C327 C 0.36111 0.32549 0.95386 0.0
N328 N 0.30361 0.39887 0.01343 0.0
N329 N 0.34117 0.34832 0.95678 0.0
H330 H 0.31919 0.61103 0.96451 0.0
H331 H 0.4697 0.66539 0.05707 0.0
H332 H 0.34484 0.5768 0.05041 0.0
H333 H 0.44885 0.69379 0.96748 0.0
H334 H 0.42498 0.63144 0.05404 0.0
H335 H 0.36703 0.64065 0.96454 0.0
C336 C 0.33489 0.60977 0.9834 0.0
C337 C 0.32798 0.59156 0.0076 0.0
C338 C 0.43026 0.6449 0.03494 0.0
C339 C 0.38279 0.62531 0.00769 0.0
C340 C 0.45583 0.66433 0.03662 0.0
C341 C 0.46291 0.68267 0.01256 0.0
C342 C 0.41142 0.64391 0.00908 0.0
C343 C 0.44422 0.68012 -0.01342 0.0
C344 C 0.36224 0.6266 0.98333 0.0
C345 C 0.34921 0.59065 0.03136 0.0
N346 N 0.41914 0.66128 -0.01436 0.0
N347 N 0.37561 0.60738 0.03086 0.0
H348 H 0.54391 0.30801 0.93315 0.0
H349 H 0.63823 0.43229 0.03786 0.0
H350 H 0.5246 0.32759 0.02791 0.0
H351 H 0.66931 0.39606 0.951 0.0
H352 H 0.59343 0.39781 0.03298 0.0
H353 H 0.58717 0.34417 0.9376 0.0
C354 C 0.54871 0.31993 0.95487 0.0
C355 C 0.53067 0.31465 0.98022 0.0
C356 C 0.6101 0.39745 0.01502 0.0
C357 C 0.58004 0.35613 -0.01457 0.0
C358 C 0.6356 0.41714 0.01778 0.0
C359 C 0.65755 0.41692 -0.00513 0.0
C360 C 0.60647 0.37768 -0.01095 0.0
C361 C 0.65302 0.39687 0.96929 0.0
C362 C 0.57345 0.34052 0.95741 0.0
C363 C 0.53798 0.33079 0.0078 0.0
N364 N 0.62799 0.3781 0.96705 0.0
N365 N 0.56207 0.35083 0.00966 0.0
H366 H 0.69372 0.56911 0.94696 0.0
H367 H 0.63141 0.70166 0.05738 0.0
H368 H 0.71688 0.58112 0.04216 0.0
H369 H 0.61506 0.69518 0.96063 0.0
H370 H 0.66788 0.66119 0.0511 0.0
H371 H 0.66964 0.61846 0.95021 0.0
C372 C 0.69405 0.58228 0.96844 0.0
C373 C 0.70696 0.57082 -0.00559 0.0
C374 C 0.65661 0.66889 0.03118 0.0
C375 C 0.67933 0.62713 -0.00163 0.0
C376 C 0.6358 0.69206 0.03476 0.0
C377 C 0.61977 0.70155 0.00957 0.0
C378 C 0.66124 0.65489 0.00225 0.0
C379 C 0.62661 0.6884 0.98077 0.0
C380 C 0.68032 0.61045 0.9703 0.0
C381 C 0.70691 0.58891 0.02163 0.0
N382 N 0.6465 0.66545 0.97795 0.0
N383 N 0.693 0.61598 0.02296 0.0
H384 H 0.57687 0.7979 0.88887 0.0
H385 H 0.4667 0.88615 0.78244 0.0
H386 H 0.47869 0.79144 0.89212 0.0
H387 H 0.5616 0.91065 0.79835 0.0
H388 H 0.47289 0.84145 0.81171 0.0
H389 H 0.57318 0.82891 0.84503 0.0
C390 C 0.55452 0.80252 0.88003 0.0
C391 C 0.52801 0.79253 0.89449 0.0
C392 C 0.49245 0.85637 0.8084 0.0
C393 C 0.52371 0.82805 0.84443 0.0
C394 C 0.48899 0.88186 0.79163 0.0
C395 C 0.51358 0.90244 0.78842 0.0
C396 C 0.52071 0.85139 0.82196 0.0
C397 C 0.54196 0.89558 0.80061 0.0
C398 C 0.55246 0.8203 0.85506 0.0
C399 C 0.4997 0.79901 0.8819 0.0
N400 N 0.54467 0.87078 0.81716 0.0
N401 N 0.49828 0.81669 0.85778 0.0
H402 H 0.15868 0.59423 0.91815 0.0
H403 H 0.08316 0.45672 0.81528 0.0
H404 H 0.18225 0.50041 0.92363 0.0
H405 H 0.05725 0.54984 0.80954 0.0
H406 H 0.12055 0.47296 0.85416 0.0
H407 H 0.12235 0.57899 0.87751 0.0
C408 C 0.15627 0.57045 0.9108 0.0
C409 C 0.1735 0.54854 0.92438 0.0
C410 C 0.10674 0.4899 0.84441 0.0
C411 C 0.132 0.53102 0.87794 0.0
C412 C 0.08534 0.48063 0.82216 0.0
C413 C 0.06695 0.50195 0.80915 0.0
C414 C 0.10986 0.52072 0.85384 0.0
C415 C 0.0709 0.53262 0.81898 0.0
C416 C 0.13552 0.56178 0.88761 0.0
C417 C 0.16944 0.51808 0.9139 0.0
N418 N 0.09193 0.5411 0.84082 0.0
N419 N 0.1491 0.51025 0.89135 0.0
H420 H 0.43383 0.03625 0.84773 0.0
H421 H 0.51463 0.16269 0.96083 0.0
H422 H 0.52797 0.06565 0.84076 0.0
H423 H 0.41776 0.15809 0.94322 0.0
H424 H 0.52046 0.11855 0.92533 0.0
H425 H 0.42837 0.07262 0.89145 0.0
C426 C 0.45339 0.05008 0.85564 0.0
C427 C 0.48127 0.04829 0.84048 0.0
C428 C 0.49793 0.1271 0.92949 0.0
C429 C 0.47531 0.08945 0.8903 0.0
C430 C 0.49457 0.15218 0.94976 0.0
C431 C 0.46572 0.16422 0.95462 0.0
C432 C 0.47219 0.11381 0.91434 0.0
C433 C 0.44046 0.1497 0.93978 0.0
C434 C 0.45026 0.07083 0.88045 0.0
C435 C 0.50596 0.06664 0.85162 0.0
N436 N 0.44429 0.12528 0.9202 0.0
N437 N 0.50239 0.08652 0.87582 0.0
H438 H 0.90262 0.51078 0.80179 0.0
H439 H 0.82582 0.40225 0.92022 0.0
H440 H 0.92229 0.4159 0.80641 0.0
H441 H 0.80477 0.49678 0.91539 0.0
H442 H 0.86029 0.40674 0.87771 0.0
H443 H 0.8652 0.50571 0.84188 0.0
C444 C 0.89892 0.4888 0.81104 0.0
C445 C 0.91578 0.46374 0.80078 0.0
C446 C 0.84814 0.42652 0.8859 0.0
C447 C 0.87307 0.4579 0.84692 0.0
C448 C 0.82846 0.42401 0.91028 0.0
C449 C 0.81236 0.44921 0.92149 0.0
C450 C 0.85186 0.45443 0.87254 0.0
C451 C 0.81674 0.47677 0.90757 0.0
C452 C 0.87757 0.48597 0.83401 0.0
C453 C 0.9099 0.43585 0.81361 0.0
N454 N 0.83611 0.47865 0.88382 0.0
N455 N 0.88916 0.43373 0.83612 0.0
H456 H 0.42283 0.10492 0.20834 0.0
H457 H 0.49918 0.23274 0.11121 0.0
H458 H 0.51978 0.12218 0.20215 0.0
H459 H 0.40539 0.20134 0.10166 0.0
H460 H 0.50438 0.20272 0.15558 0.0
H461 H 0.41408 0.15017 0.18058 0.0
C462 C 0.44228 0.11853 0.20164 0.0
C463 C 0.47211 0.10945 0.20702 0.0
C464 C 0.48252 0.20282 0.14409 0.0
C465 C 0.46221 0.16112 0.17516 0.0
C466 C 0.47948 0.22002 0.1188 0.0
C467 C 0.45196 0.21903 0.10235 0.0
C468 C 0.45789 0.18451 0.15296 0.0
C469 C 0.42714 0.2024 0.11341 0.0
C470 C 0.43725 0.14432 0.18573 0.0
C471 C 0.49642 0.12811 0.19808 0.0
N472 N 0.43083 0.18541 0.13779 0.0
N473 N 0.49094 0.15286 0.1822 0.0
H474 H 0.89106 0.54688 0.19433 0.0
H475 H 0.80959 0.41406 0.08916 0.0
H476 H 0.91367 0.45245 0.19581 0.0
H477 H 0.79163 0.5092 0.08346 0.0
H478 H 0.84361 0.42704 0.13237 0.0
H479 H 0.85029 0.53281 0.15776 0.0
C480 C 0.88732 0.52318 0.18717 0.0
C481 C 0.90604 0.50087 0.19794 0.0
C482 C 0.83206 0.44504 0.12176 0.0
C483 C 0.85948 0.48461 0.15602 0.0
C484 C 0.81259 0.43763 0.09712 0.0
C485 C 0.79796 0.46058 0.08244 0.0
C486 C 0.83691 0.47561 0.13179 0.0
C487 C 0.80263 0.49074 0.09385 0.0
C488 C 0.86406 0.51515 0.16625 0.0
C489 C 0.90001 0.47048 0.18793 0.0
N490 N 0.82182 0.49737 0.11769 0.0
N491 N 0.87741 0.46329 0.16741 0.0
H492 H 0.57273 0.86221 0.03927 0.0
H493 H 0.45014 0.95397 0.1385 0.0
H494 H 0.47921 0.83196 0.04935 0.0
H495 H 0.54722 0.96467 0.15309 0.0
H496 H 0.45944 0.91682 0.09638 0.0
H497 H 0.56252 0.90749 0.07218 0.0
C498 C 0.55004 0.86525 0.04817 0.0
C499 C 0.52689 0.84319 0.042 0.0
C500 C 0.47867 0.92758 0.10866 0.0
C501 C 0.51501 0.89474 0.0791 0.0
C502 C 0.47338 0.94881 0.13256 0.0
C503 C 0.49794 0.96201 0.1495 0.0
C504 C 0.50871 0.91986 0.10153 0.0
C505 C 0.52763 0.95464 0.14083 0.0
C506 C 0.54424 0.89099 0.06692 0.0
C507 C 0.49783 0.84823 0.05394 0.0
N508 N 0.5322 0.93391 0.11754 0.0
N509 N 0.49273 0.87343 0.07198 0.0
H510 H 0.16856 0.60578 0.08572 0.0
H511 H 0.07554 0.48985 0.18612 0.0
H512 H 0.18355 0.50943 0.08257 0.0
H513 H 0.05769 0.58539 0.18413 0.0
H514 H 0.11716 0.49673 0.15032 0.0
H515 H 0.13016 0.59903 0.1246 0.0
C516 C 0.16396 0.58324 0.09334 0.0
C517 C 0.1792 0.55813 0.08071 0.0
C518 C 0.10411 0.51616 0.15779 0.0
C519 C 0.13508 0.55018 0.12511 0.0
C520 C 0.08033 0.51223 0.17818 0.0
C521 C 0.063 0.53704 0.18809 0.0
C522 C 0.11061 0.54509 0.14732 0.0
C523 C 0.07032 0.56555 0.17709 0.0
C524 C 0.14194 0.57937 0.11549 0.0
C525 C 0.17228 0.52944 0.09155 0.0
N526 N 0.09351 0.56876 0.15732 0.0
N527 N 0.15063 0.52623 0.11302 0.0
H528 H 0.78615 0.92969 0.44099 0.0
H529 H 0.87609 0.80782 0.53005 0.0
H530 H 0.78237 0.92347 0.5381 0.0
H531 H 0.87295 0.80971 0.43237 0.0
H532 H 0.83796 0.84706 0.53337 0.0
H533 H 0.81388 0.88255 0.43712 0.0
C534 C 0.79086 0.91821 0.46146 0.0
C535 C 0.78228 0.93067 0.48993 0.0
C536 C 0.84542 0.83866 0.51121 0.0
C537 C 0.81426 0.87691 0.48575 0.0
C538 C 0.86722 0.81628 0.5093 0.0
C539 C 0.87804 0.80573 0.48091 0.0
C540 C 0.83452 0.85067 0.48455 0.0
C541 C 0.86555 0.81736 0.45478 0.0
C542 C 0.8067 0.8913 0.45926 0.0
C543 C 0.78878 0.91475 0.5157 0.0
N544 N 0.84469 0.83939 0.45726 0.0
N545 N 0.80472 0.88887 0.51304 0.0
H546 H 0.94836 0.18663 0.46187 0.0
H547 H 0.84771 0.06473 0.54787 0.0
H548 H 0.96759 0.1599 0.55244 0.0
H549 H 0.82174 0.09945 0.4623 0.0
H550 H 0.89483 0.09551 0.54736 0.0
H551 H 0.9051 0.15031 0.45881 0.0
C552 C 0.9437 0.17293 0.48097 0.0
C553 C 0.96143 0.17653 0.50756 0.0
C554 C 0.87885 0.09634 0.52865 0.0
C555 C 0.912 0.13514 0.50427 0.0
C556 C 0.85195 0.07881 0.52897 0.0
C557 C 0.83071 0.07975 0.50523 0.0
C558 C 0.88456 0.11489 0.50439 0.0
C559 C 0.83743 0.09823 0.48119 0.0
C560 C 0.91894 0.1523 0.47926 0.0
C561 C 0.95436 0.15814 0.5316 0.0
N562 N 0.86375 0.11516 0.48142 0.0
N563 N 0.93012 0.13838 0.52943 0.0
H564 H 0.04906 0.80144 0.43501 0.0
H565 H 0.14286 0.92839 0.53684 0.0
H566 H 0.03068 0.82197 0.52981 0.0
H567 H 0.17283 0.89206 0.44959 0.0
H568 H 0.09895 0.89271 0.53335 0.0
H569 H 0.09203 0.83794 0.43854 0.0
C570 C 0.05402 0.81362 0.45655 0.0
C571 C 0.03627 0.80855 0.48216 0.0
C572 C 0.11519 0.89257 0.51501 0.0
C573 C 0.08535 0.85046 0.48633 0.0
C574 C 0.14019 0.91294 0.51698 0.0
C575 C 0.16154 0.91311 0.49352 0.0
C576 C 0.11144 0.87249 0.48929 0.0
C577 C 0.15699 0.89263 0.46827 0.0
C578 C 0.0786 0.83442 0.45858 0.0
C579 C 0.04381 0.82503 0.5095 0.0
N580 N 0.13242 0.87322 0.4668 0.0
N581 N 0.06773 0.84529 0.51085 0.0
H582 H 0.1279 0.19848 0.55433 0.0
H583 H 0.19184 0.06707 0.44361 0.0
H584 H 0.11251 0.19273 0.45743 0.0
H585 H 0.21507 0.07909 0.5388 0.0
H586 H 0.16704 0.11604 0.44705 0.0
H587 H 0.16463 0.15825 0.54808 0.0
C588 C 0.13255 0.1891 0.53169 0.0
C589 C 0.11672 0.19871 0.50644 0.0
C590 C 0.17787 0.10811 0.4671 0.0
C591 C 0.15847 0.15232 0.49914 0.0
C592 C 0.19199 0.08014 0.46514 0.0
C593 C 0.20519 0.06882 0.49103 0.0
C594 C 0.17677 0.12471 0.49521 0.0
C595 C 0.2049 0.0868 0.51831 0.0
C596 C 0.15352 0.16606 0.52813 0.0
C597 C 0.12391 0.18584 0.47761 0.0
N598 N 0.19063 0.11367 0.51975 0.0
N599 N 0.14392 0.16301 0.47481 0.0
loop_
_geom_bond_atom_site_label_1
_geom_bond_atom_site_label_2
_geom_bond_distance
_geom_bond_site_symmetry_2
_ccdc_geom_bond_type
C0 O1 1.306 . S
C0 O3 1.160 . S
O1 C0 1.306 . S
O1 Cd2 2.228 . S
Cd2 O1 2.228 . S
Cd2 O6 2.273 . S
Cd2 O10 2.277 1_655 S
O3 C0 1.160 . S
O3 Cd4 2.203 1_655 S
Cd4 O3 2.203 1_455 S
Cd4 O6 2.411 1_455 S
Cd4 O7 2.333 . S
Cd4 O8 2.352 1_455 S
Cd4 O12 2.277 . S
Cd4 O13 2.356 . S
C5 O10 1.209 . S
C5 O12 1.226 . S
O6 Cd2 2.273 . S
O6 Cd4 2.411 1_655 S
O6 C9 1.320 1_655 S
O7 Cd4 2.333 . S
O7 C9 1.214 . S
O8 Cd4 2.352 1_655 S
O8 C11 1.258 . S
C9 O6 1.320 1_455 S
C9 O7 1.214 . S
O10 Cd2 2.277 1_455 S
O10 C5 1.209 . S
C11 O8 1.258 . S
C11 O13 1.282 1_655 S
O12 Cd4 2.277 . S
O12 C5 1.226 . S
O13 Cd4 2.356 . S
O13 C11 1.282 1_455 S
C14 O15 1.306 . S
C14 O17 1.160 1_545 S
O15 C14 1.306 . S
O15 Cd16 2.228 . S
Cd16 O15 2.228 . S
Cd16 O20 2.273 . S
Cd16 O24 2.277 . S
O17 C14 1.160 1_565 S
O17 Cd18 2.203 1_565 S
Cd18 O17 2.203 1_545 S
Cd18 O20 2.411 . S
Cd18 O21 2.333 . S
Cd18 O22 2.352 1_545 S
Cd18 O26 2.274 1_545 S
Cd18 O27 2.356 1_545 S
C19 O24 1.209 . S
C19 O26 1.202 1_545 S
O20 Cd16 2.273 . S
O20 Cd18 2.411 . S
O20 C23 1.320 . S
O21 Cd18 2.333 . S
O21 C23 1.214 . S
O22 Cd18 2.352 1_565 S
O22 C25 1.258 . S
C23 O20 1.320 . S
C23 O21 1.214 . S
O24 Cd16 2.277 . S
O24 C19 1.209 . S
C25 O22 1.258 . S
C25 O27 1.282 . S
O26 Cd18 2.274 1_565 S
O26 C19 1.202 1_565 S
O27 Cd18 2.356 1_565 S
O27 C25 1.282 . S
C28 O29 1.306 . S
C28 O31 1.160 . S
O29 C28 1.306 . S
O29 Cd30 2.228 1_655 S
Cd30 O29 2.228 1_455 S
Cd30 O34 2.273 . S
Cd30 O38 2.277 . S
O31 C28 1.160 . S
O31 Cd32 2.203 1_655 S
Cd32 O31 2.203 1_455 S
Cd32 O34 2.411 . S
Cd32 O35 2.333 . S
Cd32 O36 2.352 1_455 S
Cd32 O40 2.277 . S
Cd32 O41 2.356 . S
C33 O38 1.209 . S
C33 O40 1.226 . S
O34 Cd30 2.273 . S
O34 Cd32 2.411 . S
O34 C37 1.320 . S
O35 Cd32 2.333 . S
O35 C37 1.214 . S
O36 Cd32 2.352 1_655 S
O36 C39 1.258 1_655 S
C37 O34 1.320 . S
C37 O35 1.214 . S
O38 Cd30 2.277 . S
O38 C33 1.209 . S
C39 O36 1.258 1_455 S
C39 O41 1.282 . S
O40 Cd32 2.277 . S
O40 C33 1.226 . S
O41 Cd32 2.356 . S
O41 C39 1.282 . S
C42 O43 1.306 1_545 S
C42 O45 1.160 . S
O43 C42 1.306 1_565 S
O43 Cd44 2.228 . S
Cd44 O43 2.228 . S
Cd44 O48 2.273 . S
Cd44 O52 2.277 . S
O45 C42 1.160 . S
O45 Cd46 2.203 . S
Cd46 O45 2.203 . S
Cd46 O48 2.411 1_545 S
Cd46 O49 2.333 1_545 S
Cd46 O50 2.352 . S
Cd46 O54 2.277 . S
Cd46 O55 2.356 . S
C47 O52 1.209 1_545 S
C47 O54 1.226 . S
O48 Cd44 2.273 . S
O48 Cd46 2.411 1_565 S
O48 C51 1.320 . S
O49 Cd46 2.333 1_565 S
O49 C51 1.214 . S
O50 Cd46 2.352 . S
O50 C53 1.258 . S
C51 O48 1.320 . S
C51 O49 1.214 . S
O52 Cd44 2.277 . S
O52 C47 1.209 1_565 S
C53 O50 1.258 . S
C53 O55 1.282 . S
O54 Cd46 2.277 . S
O54 C47 1.226 . S
O55 Cd46 2.356 . S
O55 C53 1.282 . S
C56 O57 1.306 1_545 S
C56 O59 1.160 . S
O57 C56 1.306 1_565 S
O57 Cd58 2.228 . S
Cd58 O57 2.228 . S
Cd58 O62 2.273 . S
Cd58 O66 2.277 . S
O59 C56 1.160 . S
O59 Cd60 2.203 . S
Cd60 O59 2.203 . S
Cd60 O62 2.411 1_545 S
Cd60 O63 2.333 1_545 S
Cd60 O64 2.352 . S
Cd60 O68 2.277 . S
Cd60 O69 2.356 . S
C61 O66 1.209 1_545 S
C61 O68 1.226 . S
O62 Cd58 2.273 . S
O62 Cd60 2.411 1_565 S
O62 C65 1.320 . S
O63 Cd60 2.333 1_565 S
O63 C65 1.214 . S
O64 Cd60 2.352 . S
O64 C67 1.258 . S
C65 O62 1.320 . S
C65 O63 1.214 . S
O66 Cd58 2.277 . S
O66 C61 1.209 1_565 S
C67 O64 1.258 . S
C67 O69 1.282 . S
O68 Cd60 2.277 . S
O68 C61 1.226 . S
O69 Cd60 2.356 . S
O69 C67 1.282 . S
C70 O71 1.306 . S
C70 O73 1.160 . S
O71 C70 1.306 . S
O71 Cd72 2.228 . S
Cd72 O71 2.228 . S
Cd72 O76 2.273 . S
Cd72 O80 2.277 1_455 S
O73 C70 1.160 . S
O73 Cd74 2.203 . S
Cd74 O73 2.203 . S
Cd74 O76 2.411 . S
Cd74 O77 2.333 1_455 S
Cd74 O78 2.352 . S
Cd74 O82 2.277 1_455 S
Cd74 O83 2.356 1_455 S
C75 O80 1.209 . S
C75 O82 1.226 . S
O76 Cd72 2.273 . S
O76 Cd74 2.411 . S
O76 C79 1.337 . S
O77 Cd74 2.333 1_655 S
O77 C79 1.200 1_655 S
O78 Cd74 2.352 . S
O78 C81 1.258 . S
C79 O76 1.337 . S
C79 O77 1.200 1_455 S
O80 Cd72 2.277 1_655 S
O80 C75 1.209 . S
C81 O78 1.258 . S
C81 O83 1.282 1_455 S
O82 Cd74 2.277 1_655 S
O82 C75 1.226 . S
O83 Cd74 2.356 1_655 S
O83 C81 1.282 1_655 S
C84 O85 1.306 . S
C84 O87 1.160 1_545 S
O85 C84 1.306 . S
O85 Cd86 2.228 . S
Cd86 O85 2.228 . S
Cd86 O90 2.273 . S
Cd86 O94 2.277 . S
O87 C84 1.160 1_565 S
O87 Cd88 2.203 1_565 S
Cd88 O87 2.203 1_545 S
Cd88 O90 2.411 . S
Cd88 O91 2.333 . S
Cd88 O92 2.352 1_545 S
Cd88 O96 2.277 . S
Cd88 O97 2.356 1_545 S
C89 O94 1.209 . S
C89 O96 1.226 . S
O90 Cd86 2.273 . S
O90 Cd88 2.411 . S
O90 C93 1.320 . S
O91 Cd88 2.333 . S
O91 C93 1.214 . S
O92 Cd88 2.352 1_565 S
O92 C95 1.258 . S
C93 O90 1.320 . S
C93 O91 1.214 . S
O94 Cd86 2.277 . S
O94 C89 1.209 . S
C95 O92 1.258 . S
C95 O97 1.282 . S
O96 Cd88 2.277 . S
O96 C89 1.226 . S
O97 Cd88 2.356 1_565 S
O97 C95 1.282 . S
C98 O99 1.306 . S
C98 O101 1.160 . S
O99 C98 1.306 . S
O99 Cd100 2.228 . S
Cd100 O99 2.228 . S
Cd100 O104 2.273 . S
Cd100 O108 2.277 1_455 S
O101 C98 1.160 . S
O101 Cd102 2.203 . S
Cd102 O101 2.203 . S
Cd102 O104 2.411 . S
Cd102 O105 2.333 1_455 S
Cd102 O106 2.352 . S
Cd102 O110 2.277 1_455 S
Cd102 O111 2.356 1_455 S
C103 O108 1.209 . S
C103 O110 1.226 . S
O104 Cd100 2.273 . S
O104 Cd102 2.411 . S
O104 C107 1.320 1_455 S
O105 Cd102 2.333 1_655 S
O105 C107 1.214 . S
O106 Cd102 2.352 . S
O106 C109 1.258 . S
C107 O104 1.320 1_655 S
C107 O105 1.214 . S
O108 Cd100 2.277 1_655 S
O108 C103 1.209 . S
C109 O106 1.258 . S
C109 O111 1.282 1_455 S
O110 Cd102 2.277 1_655 S
O110 C103 1.226 . S
O111 Cd102 2.356 1_655 S
O111 C109 1.282 1_655 S
C112 O113 1.306 . S
C112 O115 1.160 . S
O113 C112 1.306 . S
O113 Cd114 2.226 . S
Cd114 O113 2.226 . S
Cd114 O118 2.273 1_556 S
Cd114 O122 2.279 1_556 S
O115 C112 1.160 . S
O115 Cd116 2.203 1_556 S
Cd116 O115 2.203 1_554 S
Cd116 O118 2.419 . S
Cd116 O119 2.333 . S
Cd116 O120 2.352 1_554 S
Cd116 O124 2.277 . S
Cd116 O125 2.356 . S
C117 O122 1.209 . S
C117 O124 1.226 . S
O118 Cd114 2.273 1_554 S
O118 Cd116 2.419 . S
O118 C121 1.338 . S
O119 Cd116 2.333 . S
O119 C121 1.214 . S
O120 Cd116 2.352 1_556 S
O120 C123 1.258 1_556 S
C121 O118 1.338 . S
C121 O119 1.214 . S
O122 Cd114 2.279 1_554 S
O122 C117 1.209 . S
C123 O120 1.258 1_554 S
C123 O125 1.282 . S
O124 Cd116 2.277 . S
O124 C117 1.226 . S
O125 Cd116 2.356 . S
O125 C123 1.282 . S
C126 O127 1.306 1_554 S
C126 O129 1.160 . S
O127 C126 1.306 1_556 S
O127 Cd128 2.228 . S
Cd128 O127 2.228 . S
Cd128 O132 2.273 . S
Cd128 O136 2.277 . S
O129 C126 1.160 . S
O129 Cd130 2.203 . S
Cd130 O129 2.203 . S
Cd130 O132 2.411 1_554 S
Cd130 O133 2.333 1_554 S
Cd130 O134 2.352 . S
Cd130 O138 2.277 . S
Cd130 O139 2.356 . S
C131 O136 1.222 . S
C131 O138 1.210 1_556 S
O132 Cd128 2.273 . S
O132 Cd130 2.411 1_556 S
O132 C135 1.320 . S
O133 Cd130 2.333 1_556 S
O133 C135 1.214 . S
O134 Cd130 2.352 . S
O134 C137 1.258 . S
C135 O132 1.320 . S
C135 O133 1.214 . S
O136 Cd128 2.277 . S
O136 C131 1.222 . S
C137 O134 1.258 . S
C137 O139 1.282 . S
O138 Cd130 2.277 . S
O138 C131 1.210 1_554 S
O139 Cd130 2.356 . S
O139 C137 1.282 . S
C140 O141 1.306 . S
C140 O143 1.160 . S
O141 C140 1.306 . S
O141 Cd142 2.228 . S
Cd142 O141 2.228 . S
Cd142 O146 2.273 . S
Cd142 O150 2.277 1_556 S
O143 C140 1.160 . S
O143 Cd144 2.203 1_556 S
Cd144 O143 2.203 1_554 S
Cd144 O146 2.411 1_554 S
Cd144 O147 2.333 . S
Cd144 O148 2.352 1_554 S
Cd144 O152 2.277 . S
Cd144 O153 2.356 . S
C145 O150 1.209 . S
C145 O152 1.226 . S
O146 Cd142 2.273 . S
O146 Cd144 2.411 1_556 S
O146 C149 1.320 1_556 S
O147 Cd144 2.333 . S
O147 C149 1.214 . S
O148 Cd144 2.352 1_556 S
O148 C151 1.258 1_556 S
C149 O146 1.320 1_554 S
C149 O147 1.214 . S
O150 Cd142 2.277 1_554 S
O150 C145 1.209 . S
C151 O148 1.258 1_554 S
C151 O153 1.282 . S
O152 Cd144 2.277 . S
O152 C145 1.226 . S
O153 Cd144 2.356 . S
O153 C151 1.282 . S
C154 O155 1.306 . S
C154 O157 1.160 1_554 S
O155 C154 1.306 . S
O155 Cd156 2.228 . S
Cd156 O155 2.228 . S
Cd156 O160 2.273 . S
Cd156 O164 2.277 . S
O157 C154 1.160 1_556 S
O157 Cd158 2.203 1_556 S
Cd158 O157 2.203 1_554 S
Cd158 O160 2.411 . S
Cd158 O161 2.333 . S
Cd158 O162 2.352 1_554 S
Cd158 O166 2.277 . S
Cd158 O167 2.356 1_554 S
C159 O164 1.209 . S
C159 O166 1.226 . S
O160 Cd156 2.273 . S
O160 Cd158 2.411 . S
O160 C163 1.320 . S
O161 Cd158 2.333 . S
O161 C163 1.214 . S
O162 Cd158 2.352 1_556 S
O162 C165 1.258 . S
C163 O160 1.320 . S
C163 O161 1.214 . S
O164 Cd156 2.277 . S
O164 C159 1.209 . S
C165 O162 1.258 . S
C165 O167 1.282 . S
O166 Cd158 2.277 . S
O166 C159 1.226 . S
O167 Cd158 2.356 1_556 S
O167 C165 1.282 . S
H168 C174 0.930 . S
H169 C178 0.930 . S
H170 C183 0.929 . S
H171 C181 0.929 . S
H172 C176 0.929 . S
H173 C182 0.929 . S
C174 H168 0.930 . S
C174 C175 1.367 . S
C174 C182 1.378 . S
C175 C174 1.367 . S
C175 C183 1.433 1_655 S
C176 H172 0.929 . S
C176 C178 1.378 . S
C176 C180 1.350 . S
C177 C180 1.463 . S
C177 C182 1.350 1_455 S
C177 N185 1.427 . S
C178 H169 0.930 . S
C178 C176 1.378 . S
C178 C179 1.367 . S
C179 C178 1.367 . S
C179 C181 1.433 1_455 S
C180 C176 1.350 . S
C180 C177 1.463 . S
C180 N184 1.427 1_455 S
C181 H171 0.929 . S
C181 C179 1.433 1_655 S
C181 N184 1.384 . S
C182 H173 0.929 . S
C182 C174 1.378 . S
C182 C177 1.350 1_655 S
C183 H170 0.929 . S
C183 C175 1.433 1_455 S
C183 N185 1.384 . S
N184 C180 1.427 1_655 S
N184 C181 1.384 . S
N185 C177 1.427 . S
N185 C183 1.384 . S
H186 C192 0.930 . S
H187 C196 0.930 . S
H188 C201 0.929 . S
H189 C199 0.929 . S
H190 C194 0.929 . S
H191 C200 0.929 . S
C192 H186 0.930 . S
C192 C193 1.368 1_565 S
C192 C200 1.378 . S
C193 C192 1.368 1_545 S
C193 C201 1.432 . S
C194 H190 0.929 . S
C194 C196 1.378 . S
C194 C198 1.350 . S
C195 C198 1.463 . S
C195 C200 1.350 1_545 S
C195 N203 1.427 . S
C196 H187 0.930 . S
C196 C194 1.378 . S
C196 C197 1.367 . S
C197 C196 1.367 . S
C197 C199 1.433 1_545 S
C198 C194 1.350 . S
C198 C195 1.463 . S
C198 N202 1.427 1_545 S
C199 H189 0.929 . S
C199 C197 1.433 1_565 S
C199 N202 1.384 . S
C200 H191 0.929 . S
C200 C192 1.378 . S
C200 C195 1.350 1_565 S
C201 H188 0.929 . S
C201 C193 1.432 . S
C201 N203 1.384 . S
N202 C198 1.427 1_565 S
N202 C199 1.384 . S
N203 C195 1.427 . S
N203 C201 1.384 . S
H204 C210 0.930 . S
H205 C214 0.930 . S
H206 C219 0.929 . S
H207 C217 0.929 1_655 S
H208 C212 0.929 . S
H209 C218 0.929 . S
C210 H204 0.930 . S
C210 C211 1.367 1_655 S
C210 C218 1.378 . S
C211 C210 1.367 1_455 S
C211 C219 1.433 . S
C212 H208 0.929 . S
C212 C214 1.378 . S
C212 C216 1.350 . S
C213 C216 1.463 . S
C213 C218 1.350 1_455 S
C213 N221 1.427 . S
C214 H205 0.930 . S
C214 C212 1.378 . S
C214 C215 1.367 . S
C215 C214 1.367 . S
C215 C217 1.433 . S
C216 C212 1.350 . S
C216 C213 1.463 . S
C216 N220 1.427 1_455 S
C217 H207 0.929 1_455 S
C217 C215 1.433 . S
C217 N220 1.384 1_455 S
C218 H209 0.929 . S
C218 C210 1.378 . S
C218 C213 1.350 1_655 S
C219 H206 0.929 . S
C219 C211 1.433 . S
C219 N221 1.384 . S
N220 C216 1.427 1_655 S
N220 C217 1.384 1_655 S
N221 C213 1.427 . S
N221 C219 1.384 . S
H222 C228 0.930 . S
H223 C232 0.930 . S
H224 C237 0.929 1_565 S
H225 C235 0.929 . S
H226 C230 0.929 . S
H227 C236 0.929 . S
C228 H222 0.930 . S
C228 C229 1.367 . S
C228 C236 1.378 . S
C229 C228 1.367 . S
C229 C237 1.433 . S
C230 H226 0.929 . S
C230 C232 1.378 . S
C230 C234 1.350 1_565 S
C231 C234 1.463 . S
C231 C236 1.350 . S
C231 N239 1.427 1_545 S
C232 H223 0.930 . S
C232 C230 1.378 . S
C232 C233 1.367 1_565 S
C233 C232 1.367 1_545 S
C233 C235 1.433 . S
C234 C230 1.350 1_545 S
C234 C231 1.463 . S
C234 N238 1.427 . S
C235 H225 0.929 . S
C235 C233 1.433 . S
C235 N238 1.384 . S
C236 H227 0.929 . S
C236 C228 1.378 . S
C236 C231 1.350 . S
C237 H224 0.929 1_545 S
C237 C229 1.433 . S
C237 N239 1.384 1_545 S
N238 C234 1.427 . S
N238 C235 1.384 . S
N239 C231 1.427 1_565 S
N239 C237 1.384 1_565 S
H240 C246 0.920 1_655 S
H241 C250 0.930 . S
H242 C255 0.929 . S
H243 C253 0.929 . S
H244 C248 0.929 . S
H245 C254 0.929 1_655 S
C246 H240 0.920 1_455 S
C246 C247 1.367 . S
C246 C254 1.378 . S
C247 C246 1.367 . S
C247 C255 1.433 . S
C248 H244 0.929 . S
C248 C250 1.378 . S
C248 C252 1.350 . S
C249 C252 1.463 . S
C249 C254 1.350 . S
C249 N257 1.427 . S
C250 H241 0.930 . S
C250 C248 1.378 . S
C250 C251 1.367 . S
C251 C250 1.367 . S
C251 C253 1.433 1_455 S
C252 C248 1.350 . S
C252 C249 1.463 . S
C252 N256 1.427 1_455 S
C253 H243 0.929 . S
C253 C251 1.433 1_655 S
C253 N256 1.384 . S
C254 H245 0.929 1_455 S
C254 C246 1.378 . S
C254 C249 1.350 . S
C255 H242 0.929 . S
C255 C247 1.433 . S
C255 N257 1.384 . S
N256 C252 1.427 1_655 S
N256 C253 1.384 . S
N257 C249 1.427 . S
N257 C255 1.384 . S
H258 C264 0.930 . S
H259 C268 0.930 . S
H260 C273 0.929 . S
H261 C271 0.929 . S
H262 C266 0.929 . S
H263 C272 0.929 . S
C264 H258 0.930 . S
C264 C265 1.367 1_565 S
C264 C272 1.378 . S
C265 C264 1.367 1_545 S
C265 C273 1.433 . S
C266 H262 0.929 . S
C266 C268 1.378 . S
C266 C270 1.350 . S
C267 C270 1.463 . S
C267 C272 1.350 1_545 S
C267 N275 1.427 . S
C268 H259 0.930 . S
C268 C266 1.378 . S
C268 C269 1.367 . S
C269 C268 1.367 . S
C269 C271 1.433 1_545 S
C270 C266 1.350 . S
C270 C267 1.463 . S
C270 N274 1.427 1_545 S
C271 H261 0.929 . S
C271 C269 1.433 1_565 S
C271 N274 1.384 . S
C272 H263 0.929 . S
C272 C264 1.378 . S
C272 C267 1.350 1_565 S
C273 H260 0.929 . S
C273 C265 1.433 . S
C273 N275 1.384 . S
N274 C270 1.427 1_565 S
N274 C271 1.384 . S
N275 C267 1.427 . S
N275 C273 1.384 . S
H276 C282 0.930 . S
H277 C286 0.930 . S
H278 C291 0.929 . S
H279 C289 0.929 . S
H280 C284 0.929 . S
H281 C290 0.929 . S
C282 H276 0.930 . S
C282 C283 1.367 . S
C282 C290 1.378 . S
C283 C282 1.367 . S
C283 C291 1.433 1_455 S
C284 H280 0.929 . S
C284 C286 1.378 . S
C284 C288 1.350 1_655 S
C285 C288 1.463 . S
C285 C290 1.350 . S
C285 N293 1.427 1_455 S
C286 H277 0.930 . S
C286 C284 1.378 . S
C286 C287 1.367 . S
C287 C286 1.367 . S
C287 C289 1.433 1_655 S
C288 C284 1.350 1_455 S
C288 C285 1.463 . S
C288 N292 1.427 . S
C289 H279 0.929 . S
C289 C287 1.433 1_455 S
C289 N292 1.384 . S
C290 H281 0.929 . S
C290 C282 1.378 . S
C290 C285 1.350 . S
C291 H278 0.929 . S
C291 C283 1.433 1_655 S
C291 N293 1.384 . S
N292 C288 1.427 . S
N292 C289 1.384 . S
N293 C285 1.427 1_655 S
N293 C291 1.384 . S
H294 C300 0.930 . S
H295 C304 0.930 . S
H296 C309 0.929 . S
H297 C307 0.929 1_565 S
H298 C302 0.929 . S
H299 C308 0.929 . S
C300 H294 0.930 . S
C300 C301 1.367 1_565 S
C300 C308 1.378 . S
C301 C300 1.367 1_545 S
C301 C309 1.433 . S
C302 H298 0.929 . S
C302 C304 1.378 . S
C302 C306 1.350 . S
C303 C306 1.463 . S
C303 C308 1.350 1_545 S
C303 N311 1.427 . S
C304 H295 0.930 . S
C304 C302 1.378 . S
C304 C305 1.367 . S
C305 C304 1.367 . S
C305 C307 1.433 . S
C306 C302 1.350 . S
C306 C303 1.463 . S
C306 N310 1.427 . S
C307 H297 0.929 1_545 S
C307 C305 1.433 . S
C307 N310 1.384 . S
C308 H299 0.929 . S
C308 C300 1.378 . S
C308 C303 1.350 1_565 S
C309 H296 0.929 . S
C309 C301 1.433 . S
C309 N311 1.384 . S
N310 C306 1.427 . S
N310 C307 1.384 . S
N311 C303 1.427 . S
N311 C309 1.384 . S
H312 C318 0.930 . S
H313 C322 0.930 . S
H314 C327 0.930 . S
H315 C325 0.929 . S
H316 C320 0.929 . S
H317 C326 0.929 . S
C318 H312 0.930 . S
C318 C319 1.367 . S
C318 C326 1.378 . S
C319 C318 1.367 . S
C319 C327 1.433 1_554 S
C320 H316 0.929 . S
C320 C322 1.378 . S
C320 C324 1.350 1_556 S
C321 C324 1.463 . S
C321 C326 1.350 . S
C321 N329 1.427 1_554 S
C322 H313 0.930 . S
C322 C320 1.378 . S
C322 C323 1.383 . S
C323 C322 1.383 . S
C323 C325 1.412 1_556 S
C324 C320 1.350 1_554 S
C324 C321 1.463 . S
C324 N328 1.427 . S
C325 H315 0.929 . S
C325 C323 1.412 1_554 S
C325 N328 1.384 . S
C326 H317 0.929 . S
C326 C318 1.378 . S
C326 C321 1.350 . S
C327 H314 0.930 . S
C327 C319 1.433 1_556 S
C327 N329 1.384 . S
N328 C324 1.427 . S
N328 C325 1.384 . S
N329 C321 1.427 1_556 S
N329 C327 1.384 . S
H330 C336 0.917 1_556 S
H331 C340 0.930 . S
H332 C345 0.929 . S
H333 C343 0.929 . S
H334 C338 0.929 . S
H335 C344 0.929 . S
C336 H330 0.917 1_554 S
C336 C337 1.384 . S
C336 C344 1.374 1_554 S
C337 C336 1.384 . S
C337 C345 1.433 . S
C338 H334 0.929 . S
C338 C340 1.378 . S
C338 C342 1.350 . S
C339 C342 1.463 . S
C339 C344 1.350 1_554 S
C339 N347 1.427 . S
C340 H331 0.930 . S
C340 C338 1.378 . S
C340 C341 1.367 . S
C341 C340 1.367 . S
C341 C343 1.433 1_554 S
C342 C338 1.350 . S
C342 C339 1.463 . S
C342 N346 1.427 1_554 S
C343 H333 0.929 . S
C343 C341 1.433 1_556 S
C343 N346 1.384 . S
C344 H335 0.929 . S
C344 C336 1.374 1_556 S
C344 C339 1.350 1_556 S
C345 H332 0.929 . S
C345 C337 1.433 . S
C345 N347 1.384 . S
N346 C342 1.427 1_556 S
N346 C343 1.384 . S
N347 C339 1.427 . S
N347 C345 1.384 . S
H348 C354 0.930 . S
H349 C358 0.930 . S
H350 C363 0.929 . S
H351 C361 0.929 . S
H352 C356 0.929 . S
H353 C362 0.929 . S
C354 H348 0.930 . S
C354 C355 1.367 . S
C354 C362 1.378 . S
C355 C354 1.367 . S
C355 C363 1.433 1_556 S
C356 H352 0.929 . S
C356 C358 1.378 . S
C356 C360 1.350 . S
C357 C360 1.463 . S
C357 C362 1.350 1_554 S
C357 N365 1.427 . S
C358 H349 0.930 . S
C358 C356 1.378 . S
C358 C359 1.367 . S
C359 C358 1.367 . S
C359 C361 1.433 1_554 S
C360 C356 1.350 . S
C360 C357 1.463 . S
C360 N364 1.427 1_554 S
C361 H351 0.929 . S
C361 C359 1.433 1_556 S
C361 N364 1.384 . S
C362 H353 0.929 . S
C362 C354 1.378 . S
C362 C357 1.350 1_556 S
C363 H350 0.929 . S
C363 C355 1.433 1_554 S
C363 N365 1.384 . S
N364 C360 1.427 1_556 S
N364 C361 1.384 . S
N365 C357 1.427 . S
N365 C363 1.384 . S
H366 C372 0.930 . S
H367 C376 0.930 . S
H368 C381 0.929 . S
H369 C379 0.936 . S
H370 C374 0.929 . S
H371 C380 0.929 . S
C372 H366 0.930 . S
C372 C373 1.367 1_556 S
C372 C380 1.378 . S
C373 C372 1.367 1_554 S
C373 C381 1.433 . S
C374 H370 0.929 . S
C374 C376 1.378 . S
C374 C378 1.350 . S
C375 C378 1.463 . S
C375 C380 1.350 1_554 S
C375 N383 1.427 . S
C376 H367 0.930 . S
C376 C374 1.378 . S
C376 C377 1.367 . S
C377 C376 1.367 . S
C377 C379 1.425 1_554 S
C378 C374 1.350 . S
C378 C375 1.463 . S
C378 N382 1.427 1_554 S
C379 H369 0.936 . S
C379 C377 1.425 1_556 S
C379 N382 1.385 . S
C380 H371 0.929 . S
C380 C372 1.378 . S
C380 C375 1.350 1_556 S
C381 H368 0.929 . S
C381 C373 1.433 . S
C381 N383 1.384 . S
N382 C378 1.427 1_556 S
N382 C379 1.385 . S
N383 C375 1.427 . S
N383 C381 1.384 . S
H384 C390 0.930 . S
H385 C394 0.930 . S
H386 C399 0.929 . S
H387 C397 0.929 . S
H388 C392 0.929 . S
H389 C398 0.929 . S
C390 H384 0.930 . S
C390 C391 1.367 . S
C390 C398 1.378 . S
C391 C390 1.367 . S
C391 C399 1.433 . S
C392 H388 0.929 . S
C392 C394 1.378 . S
C392 C396 1.350 . S
C393 C396 1.463 . S
C393 C398 1.350 . S
C393 N401 1.427 . S
C394 H385 0.930 . S
C394 C392 1.378 . S
C394 C395 1.367 . S
C395 C394 1.367 . S
C395 C397 1.433 . S
C396 C392 1.350 . S
C396 C393 1.463 . S
C396 N400 1.427 . S
C397 H387 0.929 . S
C397 C395 1.433 . S
C397 N400 1.384 . S
C398 H389 0.929 . S
C398 C390 1.378 . S
C398 C393 1.350 . S
C399 H386 0.929 . S
C399 C391 1.433 . S
C399 N401 1.384 . S
N400 C396 1.427 . S
N400 C397 1.384 . S
N401 C393 1.427 . S
N401 C399 1.384 . S
H402 C408 0.930 . S
H403 C412 0.930 . S
H404 C417 0.929 . S
H405 C415 0.929 . S
H406 C410 0.929 . S
H407 C416 0.929 . S
C408 H402 0.930 . S
C408 C409 1.367 . S
C408 C416 1.378 . S
C409 C408 1.367 . S
C409 C417 1.433 . S
C410 H406 0.929 . S
C410 C412 1.378 . S
C410 C414 1.350 . S
C411 C414 1.463 . S
C411 C416 1.350 . S
C411 N419 1.427 . S
C412 H403 0.930 . S
C412 C410 1.378 . S
C412 C413 1.367 . S
C413 C412 1.367 . S
C413 C415 1.433 . S
C414 C410 1.350 . S
C414 C411 1.463 . S
C414 N418 1.427 . S
C415 H405 0.929 . S
C415 C413 1.433 . S
C415 N418 1.384 . S
C416 H407 0.929 . S
C416 C408 1.378 . S
C416 C411 1.350 . S
C417 H404 0.929 . S
C417 C409 1.433 . S
C417 N419 1.384 . S
N418 C414 1.427 . S
N418 C415 1.384 . S
N419 C411 1.427 . S
N419 C417 1.384 . S
H420 C426 0.930 . S
H421 C430 0.930 . S
H422 C435 0.929 . S
H423 C433 0.929 . S
H424 C428 0.929 . S
H425 C434 0.929 . S
C426 H420 0.930 . S
C426 C427 1.367 . S
C426 C434 1.378 . S
C427 C426 1.367 . S
C427 C435 1.433 . S
C428 H424 0.929 . S
C428 C430 1.378 . S
C428 C432 1.350 . S
C429 C432 1.463 . S
C429 C434 1.350 . S
C429 N437 1.427 . S
C430 H421 0.930 . S
C430 C428 1.378 . S
C430 C431 1.367 . S
C431 C430 1.367 . S
C431 C433 1.433 . S
C432 C428 1.350 . S
C432 C429 1.463 . S
C432 N436 1.427 . S
C433 H423 0.929 . S
C433 C431 1.433 . S
C433 N436 1.384 . S
C434 H425 0.929 . S
C434 C426 1.378 . S
C434 C429 1.350 . S
C435 H422 0.929 . S
C435 C427 1.433 . S
C435 N437 1.384 . S
N436 C432 1.427 . S
N436 C433 1.384 . S
N437 C429 1.427 . S
N437 C435 1.384 . S
H438 C444 0.930 . S
H439 C448 0.930 . S
H440 C453 0.929 . S
H441 C451 0.929 . S
H442 C446 0.929 . S
H443 C452 0.929 . S
C444 H438 0.930 . S
C444 C445 1.367 . S
C444 C452 1.378 . S
C445 C444 1.367 . S
C445 C453 1.433 . S
C446 H442 0.929 . S
C446 C448 1.378 . S
C446 C450 1.350 . S
C447 C450 1.463 . S
C447 C452 1.350 . S
C447 N455 1.427 . S
C448 H439 0.930 . S
C448 C446 1.378 . S
C448 C449 1.367 . S
C449 C448 1.367 . S
C449 C451 1.433 . S
C450 C446 1.350 . S
C450 C447 1.463 . S
C450 N454 1.427 . S
C451 H441 0.929 . S
C451 C449 1.433 . S
C451 N454 1.384 . S
C452 H443 0.929 . S
C452 C444 1.378 . S
C452 C447 1.350 . S
C453 H440 0.929 . S
C453 C445 1.433 . S
C453 N455 1.384 . S
N454 C450 1.427 . S
N454 C451 1.384 . S
N455 C447 1.427 . S
N455 C453 1.384 . S
H456 C462 0.930 . S
H457 C466 0.930 . S
H458 C471 0.929 . S
H459 C469 0.929 . S
H460 C464 0.929 . S
H461 C470 0.929 . S
C462 H456 0.930 . S
C462 C463 1.367 . S
C462 C470 1.378 . S
C463 C462 1.367 . S
C463 C471 1.433 . S
C464 H460 0.929 . S
C464 C466 1.378 . S
C464 C468 1.350 . S
C465 C468 1.463 . S
C465 C470 1.350 . S
C465 N473 1.427 . S
C466 H457 0.930 . S
C466 C464 1.378 . S
C466 C467 1.367 . S
C467 C466 1.367 . S
C467 C469 1.433 . S
C468 C464 1.350 . S
C468 C465 1.463 . S
C468 N472 1.427 . S
C469 H459 0.929 . S
C469 C467 1.433 . S
C469 N472 1.384 . S
C470 H461 0.929 . S
C470 C462 1.378 . S
C470 C465 1.350 . S
C471 H458 0.929 . S
C471 C463 1.433 . S
C471 N473 1.384 . S
N472 C468 1.427 . S
N472 C469 1.384 . S
N473 C465 1.427 . S
N473 C471 1.384 . S
H474 C480 0.930 . S
H475 C484 0.930 . S
H476 C489 0.929 . S
H477 C487 0.929 . S
H478 C482 0.929 . S
H479 C488 0.929 . S
C480 H474 0.930 . S
C480 C481 1.367 . S
C480 C488 1.378 . S
C481 C480 1.367 . S
C481 C489 1.433 . S
C482 H478 0.929 . S
C482 C484 1.378 . S
C482 C486 1.350 . S
C483 C486 1.463 . S
C483 C488 1.350 . S
C483 N491 1.427 . S
C484 H475 0.930 . S
C484 C482 1.378 . S
C484 C485 1.367 . S
C485 C484 1.367 . S
C485 C487 1.433 . S
C486 C482 1.350 . S
C486 C483 1.463 . S
C486 N490 1.427 . S
C487 H477 0.929 . S
C487 C485 1.433 . S
C487 N490 1.384 . S
C488 H479 0.929 . S
C488 C480 1.378 . S
C488 C483 1.350 . S
C489 H476 0.929 . S
C489 C481 1.433 . S
C489 N491 1.384 . S
N490 C486 1.427 . S
N490 C487 1.384 . S
N491 C483 1.427 . S
N491 C489 1.384 . S
H492 C498 0.930 . S
H493 C502 0.930 . S
H494 C507 0.929 . S
H495 C505 0.929 . S
H496 C500 0.929 . S
H497 C506 0.929 . S
C498 H492 0.930 . S
C498 C499 1.367 . S
C498 C506 1.378 . S
C499 C498 1.367 . S
C499 C507 1.433 . S
C500 H496 0.929 . S
C500 C502 1.378 . S
C500 C504 1.350 . S
C501 C504 1.463 . S
C501 C506 1.350 . S
C501 N509 1.427 . S
C502 H493 0.930 . S
C502 C500 1.378 . S
C502 C503 1.367 . S
C503 C502 1.367 . S
C503 C505 1.433 . S
C504 C500 1.350 . S
C504 C501 1.463 . S
C504 N508 1.427 . S
C505 H495 0.929 . S
C505 C503 1.433 . S
C505 N508 1.384 . S
C506 H497 0.929 . S
C506 C498 1.378 . S
C506 C501 1.350 . S
C507 H494 0.929 . S
C507 C499 1.433 . S
C507 N509 1.384 . S
N508 C504 1.427 . S
N508 C505 1.384 . S
N509 C501 1.427 . S
N509 C507 1.384 . S
H510 C516 0.930 . S
H511 C520 0.930 . S
H512 C525 0.929 . S
H513 C523 0.929 . S
H514 C518 0.929 . S
H515 C524 0.929 . S
C516 H510 0.930 . S
C516 C517 1.367 . S
C516 C524 1.378 . S
C517 C516 1.367 . S
C517 C525 1.433 . S
C518 H514 0.929 . S
C518 C520 1.378 . S
C518 C522 1.350 . S
C519 C522 1.463 . S
C519 C524 1.350 . S
C519 N527 1.427 . S
C520 H511 0.930 . S
C520 C518 1.378 . S
C520 C521 1.367 . S
C521 C520 1.367 . S
C521 C523 1.433 . S
C522 C518 1.350 . S
C522 C519 1.463 . S
C522 N526 1.427 . S
C523 H513 0.929 . S
C523 C521 1.433 . S
C523 N526 1.384 . S
C524 H515 0.929 . S
C524 C516 1.378 . S
C524 C519 1.350 . S
C525 H512 0.929 . S
C525 C517 1.433 . S
C525 N527 1.384 . S
N526 C522 1.427 . S
N526 C523 1.384 . S
N527 C519 1.427 . S
N527 C525 1.384 . S
H528 C534 0.930 . S
H529 C538 0.930 . S
H530 C543 0.929 . S
H531 C541 0.929 . S
H532 C536 0.929 . S
H533 C542 0.929 . S
C534 H528 0.930 . S
C534 C535 1.367 . S
C534 C542 1.378 . S
C535 C534 1.367 . S
C535 C543 1.433 . S
C536 H532 0.929 . S
C536 C538 1.378 . S
C536 C540 1.350 . S
C537 C540 1.463 . S
C537 C542 1.350 . S
C537 N545 1.427 . S
C538 H529 0.930 . S
C538 C536 1.378 . S
C538 C539 1.367 . S
C539 C538 1.367 . S
C539 C541 1.433 . S
C540 C536 1.350 . S
C540 C537 1.463 . S
C540 N544 1.427 . S
C541 H531 0.929 . S
C541 C539 1.433 . S
C541 N544 1.384 . S
C542 H533 0.929 . S
C542 C534 1.378 . S
C542 C537 1.350 . S
C543 H530 0.929 . S
C543 C535 1.433 . S
C543 N545 1.384 . S
N544 C540 1.427 . S
N544 C541 1.384 . S
N545 C537 1.427 . S
N545 C543 1.384 . S
H546 C552 0.930 . S
H547 C556 0.930 . S
H548 C561 0.929 . S
H549 C559 0.929 . S
H550 C554 0.929 . S
H551 C560 0.929 . S
C552 H546 0.930 . S
C552 C553 1.367 . S
C552 C560 1.378 . S
C553 C552 1.367 . S
C553 C561 1.433 . S
C554 H550 0.929 . S
C554 C556 1.378 . S
C554 C558 1.350 . S
C555 C558 1.463 . S
C555 C560 1.350 . S
C555 N563 1.427 . S
C556 H547 0.930 . S
C556 C554 1.378 . S
C556 C557 1.367 . S
C557 C556 1.367 . S
C557 C559 1.433 . S
C558 C554 1.350 . S
C558 C555 1.463 . S
C558 N562 1.427 . S
C559 H549 0.929 . S
C559 C557 1.433 . S
C559 N562 1.384 . S
C560 H551 0.929 . S
C560 C552 1.378 . S
C560 C555 1.350 . S
C561 H548 0.929 . S
C561 C553 1.433 . S
C561 N563 1.384 . S
N562 C558 1.427 . S
N562 C559 1.384 . S
N563 C555 1.427 . S
N563 C561 1.384 . S
H564 C570 0.930 . S
H565 C574 0.930 . S
H566 C579 0.929 . S
H567 C577 0.929 . S
H568 C572 0.929 . S
H569 C578 0.929 . S
C570 H564 0.930 . S
C570 C571 1.367 . S
C570 C578 1.378 . S
C571 C570 1.367 . S
C571 C579 1.433 . S
C572 H568 0.929 . S
C572 C574 1.378 . S
C572 C576 1.350 . S
C573 C576 1.463 . S
C573 C578 1.350 . S
C573 N581 1.427 . S
C574 H565 0.930 . S
C574 C572 1.378 . S
C574 C575 1.367 . S
C575 C574 1.367 . S
C575 C577 1.433 . S
C576 C572 1.350 . S
C576 C573 1.463 . S
C576 N580 1.427 . S
C577 H567 0.929 . S
C577 C575 1.433 . S
C577 N580 1.384 . S
C578 H569 0.929 . S
C578 C570 1.378 . S
C578 C573 1.350 . S
C579 H566 0.929 . S
C579 C571 1.433 . S
C579 N581 1.384 . S
N580 C576 1.427 . S
N580 C577 1.384 . S
N581 C573 1.427 . S
N581 C579 1.384 . S
H582 C588 0.930 . S
H583 C592 0.930 . S
H584 C597 0.929 . S
H585 C595 0.929 . S
H586 C590 0.929 . S
H587 C596 0.929 . S
C588 H582 0.930 . S
C588 C589 1.367 . S
C588 C596 1.378 . S
C589 C588 1.367 . S
C589 C597 1.433 . S
C590 H586 0.929 . S
C590 C592 1.378 . S
C590 C594 1.350 . S
C591 C594 1.463 . S
C591 C596 1.350 . S
C591 N599 1.427 . S
C592 H583 0.930 . S
C592 C590 1.378 . S
C592 C593 1.367 . S
C593 C592 1.367 . S
C593 C595 1.433 . S
C594 C590 1.350 . S
C594 C591 1.463 . S
C594 N598 1.427 . S
C595 H585 0.929 . S
C595 C593 1.433 . S
C595 N598 1.384 . S
C596 H587 0.929 . S
C596 C588 1.378 . S
C596 C591 1.350 . S
C597 H584 0.929 . S
C597 C589 1.433 . S
C597 N599 1.384 . S
N598 C594 1.427 . S
N598 C595 1.384 . S
N599 C591 1.427 . S
N599 C597 1.384 . S
C175 C11 1.474 . S
C179 C81 1.476 . S
C193 C14 1.433 . S
C197 C56 1.438 . S
C211 C79 1.404 . S
C215 C37 1.399 . S
C229 C42 1.428 . S
C233 C61 1.451 . S
C247 C109 1.466 . S
C251 C39 1.471 . S
C265 C89 1.430 . S
C269 C47 1.432 . S
C283 C9 1.403 . S
C287 C107 1.396 . S
C301 C84 1.428 . S
C305 C19 1.451 . S
C319 C126 1.452 . S
C323 C123 1.459 1_556 S
C337 C121 1.425 . S
C341 C154 1.400 . S
C355 C131 1.422 . S
C359 C149 1.421 . S
C373 C151 1.451 . S
C377 C159 1.465 . S
C391 C165 1.463 . S
C395 C95 1.467 . S
C409 C112 1.421 . S
C413 C98 1.427 . S
C427 C93 1.404 . S
C431 C135 1.398 . S
C445 C103 1.447 . S
C449 C140 1.420 . S
C463 C67 1.466 . S
C467 C137 1.471 . S
C481 C75 1.436 . S
C485 C145 1.438 . S
C499 C163 1.403 . S
C503 C65 1.398 . S
C517 C117 1.451 . S
C521 C70 1.432 . S
C535 C25 1.457 . S
C539 C28 1.454 . S
C553 C0 1.413 . S
C557 C23 1.428 . S
C571 C33 1.421 . S
C575 C51 1.415 . S
C589 C5 1.465 . S
C593 C53 1.452 . S
