# Generated by pormake.
# Topology fnw, (5)-cn, num edge types: 1
# Building blocks:
#     Node 0, Type 0, BuildingBlock: XOMCOT_clean_sbu_0, # of connection points: 5
#     Node 1, Type 0, BuildingBlock: XOMCOT_clean_sbu_0, # of connection points: 5
#     Node 2, Type 0, BuildingBlock: XOMCOT_clean_sbu_0, # of connection points: 5
#     Node 3, Type 0, BuildingBlock: XOMCOT_clean_sbu_0, # of connection points: 5
#     Node 4, Type 0, BuildingBlock: XOMCOT_clean_sbu_0, # of connection points: 5
#     Node 5, Type 0, BuildingBlock: XOMCOT_clean_sbu_0, # of connection points: 5
#     Node 6, Type 0, BuildingBlock: XOMCOT_clean_sbu_0, # of connection points: 5
#     Node 7, Type 0, BuildingBlock: XOMCOT_clean_sbu_0, # of connection points: 5
#     Node 8, Type 0, BuildingBlock: XOMCOT_clean_sbu_0, # of connection points: 5
#     Node 9, Type 0, BuildingBlock: XOMCOT_clean_sbu_0, # of connection points: 5
#     Node 10, Type 0, BuildingBlock: XOMCOT_clean_sbu_0, # of connection points: 5
#     Node 11, Type 0, BuildingBlock: XOMCOT_clean_sbu_0, # of connection points: 5
#     Edge 12, Type (0, 0), BuildingBlock: XIVTED_clean_linker_0, # of connection points: 2
#     Edge 13, Type (0, 0), BuildingBlock: XIVTED_clean_linker_0, # of connection points: 2
#     Edge 14, Type (0, 0), BuildingBlock: XIVTED_clean_linker_0, # of connection points: 2
#     Edge 15, Type (0, 0), BuildingBlock: XIVTED_clean_linker_0, # of connection points: 2
#     Edge 16, Type (0, 0), BuildingBlock: XIVTED_clean_linker_0, # of connection points: 2
#     Edge 17, Type (0, 0), BuildingBlock: XIVTED_clean_linker_0, # of connection points: 2
#     Edge 18, Type (0, 0), BuildingBlock: XIVTED_clean_linker_0, # of connection points: 2
#     Edge 19, Type (0, 0), BuildingBlock: XIVTED_clean_linker_0, # of connection points: 2
#     Edge 20, Type (0, 0), BuildingBlock: XIVTED_clean_linker_0, # of connection points: 2
#     Edge 21, Type (0, 0), BuildingBlock: XIVTED_clean_linker_0, # of connection points: 2
#     Edge 22, Type (0, 0), BuildingBlock: XIVTED_clean_linker_0, # of connection points: 2
#     Edge 23, Type (0, 0), BuildingBlock: XIVTED_clean_linker_0, # of connection points: 2
#     Edge 24, Type (0, 0), BuildingBlock: XIVTED_clean_linker_0, # of connection points: 2
#     Edge 25, Type (0, 0), BuildingBlock: XIVTED_clean_linker_0, # of connection points: 2
#     Edge 26, Type (0, 0), BuildingBlock: XIVTED_clean_linker_0, # of connection points: 2
#     Edge 27, Type (0, 0), BuildingBlock: XIVTED_clean_linker_0, # of connection points: 2
#     Edge 28, Type (0, 0), BuildingBlock: XIVTED_clean_linker_0, # of connection points: 2
#     Edge 29, Type (0, 0), BuildingBlock: XIVTED_clean_linker_0, # of connection points: 2
#     Edge 30, Type (0, 0), BuildingBlock: XIVTED_clean_linker_0, # of connection points: 2
#     Edge 31, Type (0, 0), BuildingBlock: XIVTED_clean_linker_0, # of connection points: 2
#     Edge 32, Type (0, 0), BuildingBlock: XIVTED_clean_linker_0, # of connection points: 2
#     Edge 33, Type (0, 0), BuildingBlock: XIVTED_clean_linker_0, # of connection points: 2
#     Edge 34, Type (0, 0), BuildingBlock: XIVTED_clean_linker_0, # of connection points: 2
#     Edge 35, Type (0, 0), BuildingBlock: XIVTED_clean_linker_0, # of connection points: 2
#     Edge 36, Type (0, 0), BuildingBlock: XIVTED_clean_linker_0, # of connection points: 2
#     Edge 37, Type (0, 0), BuildingBlock: XIVTED_clean_linker_0, # of connection points: 2
#     Edge 38, Type (0, 0), BuildingBlock: XIVTED_clean_linker_0, # of connection points: 2
#     Edge 39, Type (0, 0), BuildingBlock: XIVTED_clean_linker_0, # of connection points: 2
#     Edge 40, Type (0, 0), BuildingBlock: XIVTED_clean_linker_0, # of connection points: 2
#     Edge 41, Type (0, 0), BuildingBlock: XIVTED_clean_linker_0, # of connection points: 2
# Relax obj value: 0.264
# Max RMSD: 0.156
# Mean RMSD: 0.156
data_MOF--net-fnw--node1-XOMCOT_clean_sbu_0--edge1-XIVTED_clean_linker_0
_symmetry_space_group_name_H-M    P1
_symmetry_Int_Tables_number       1
_symmetry_cell_setting            triclinic
loop_
_symmetry_equiv_pos_as_xyz
'x, y, z'
_cell_length_a     51.592755
_cell_length_b     51.58521
_cell_length_c     31.824934
_cell_angle_alpha  90.043439
_cell_angle_beta   89.977453
_cell_angle_gamma 119.96667
loop_
_atom_site_label
_atom_site_type_symbol
_atom_site_fract_x
_atom_site_fract_y
_atom_site_fract_z
_atom_type_partial_charge
Co0 Co 0.26394 0.45427 0.28638 0.0
C1 C 0.29486 0.41906 0.27258 0.0
C2 C 0.31777 0.45582 0.31559 0.0
C3 C 0.33507 0.44287 0.30946 0.0
N4 N 0.29276 0.44114 0.29227 0.0
N5 N 0.32076 0.41993 0.28236 0.0
H6 H 0.27877 0.40387 0.24995 0.0
H7 H 0.32354 0.4754 0.3345 0.0
C8 C 0.30234 0.51508 0.24505 0.0
O9 O 0.28131 0.5105 0.21784 0.0
N10 N 0.23543 0.46849 0.28214 0.0
C11 C 0.20563 0.45249 0.27529 0.0
C12 C 0.19433 0.47166 0.27416 0.0
C13 C 0.24128 0.49686 0.28775 0.0
N14 N 0.21694 0.49962 0.2814 0.0
C15 C 0.2298 0.4193 0.21544 0.0
C16 C 0.27358 0.44954 0.15579 0.0
C17 C 0.24421 0.43001 0.14246 0.0
C18 C 0.22253 0.41352 0.1729 0.0
C19 C 0.27985 0.45436 0.19871 0.0
N20 N 0.25738 0.44152 0.2277 0.0
H21 H 0.21293 0.4064 0.23847 0.0
H22 H 0.30264 0.46922 0.20843 0.0
H23 H 0.19258 0.42852 0.27198 0.0
H24 H 0.26288 0.51526 0.29669 0.0
O25 O 0.23355 0.41787 0.31319 0.0
O26 O 0.26531 0.46006 0.34599 0.0
O27 O 0.29831 0.49516 0.27216 0.0
C28 C 0.24357 0.43257 0.34829 0.0
H29 H 0.35696 0.45028 0.32288 0.0
H30 H 0.1714 0.46557 0.26752 0.0
H31 H 0.29137 0.46157 0.13325 0.0
H32 H 0.19978 0.39742 0.16406 0.0
Co33 Co 0.8021 0.2652 0.79192 0.0
C34 C 0.86768 0.29118 0.78414 0.0
C35 C 0.85588 0.31759 0.82347 0.0
C36 C 0.88655 0.33092 0.82237 0.0
N37 N 0.84417 0.29278 0.79945 0.0
N38 N 0.89385 0.31435 0.79753 0.0
H39 H 0.86573 0.27352 0.76366 0.0
H40 H 0.84296 0.32544 0.84047 0.0
C41 C 0.78553 0.30697 0.74622 0.0
O42 O 0.77335 0.2885 0.71444 0.0
N43 N 0.75924 0.23734 0.7856 0.0
C44 C 0.74532 0.20714 0.78566 0.0
C45 C 0.71526 0.19571 0.77866 0.0
C46 C 0.73688 0.2436 0.78102 0.0
N47 N 0.71004 0.21873 0.77526 0.0
C48 C 0.80068 0.22997 0.7213 0.0
C49 C 0.82458 0.27597 0.66345 0.0
C50 C 0.812 0.24636 0.64922 0.0
C51 C 0.80133 0.22334 0.679 0.0
C52 C 0.82372 0.28156 0.70626 0.0
N53 N 0.80938 0.25843 0.73395 0.0
H54 H 0.79254 0.21202 0.74372 0.0
H55 H 0.83337 0.30445 0.71686 0.0
H56 H 0.756 0.19396 0.79067 0.0
H57 H 0.73968 0.26569 0.78321 0.0
O58 O 0.80694 0.23434 0.81944 0.0
O59 O 0.79664 0.2666 0.85119 0.0
O60 O 0.79695 0.30036 0.7771 0.0
C61 C 0.8022 0.24472 0.85416 0.0
H62 H 0.9023 0.35169 0.83758 0.0
H63 H 0.69869 0.17225 0.77557 0.0
H64 H 0.83419 0.29453 0.64159 0.0
H65 H 0.79214 0.2002 0.6696 0.0
Co66 Co 0.53939 0.80342 0.2885 0.0
C67 C 0.58023 0.86875 0.27886 0.0
C68 C 0.54357 0.85818 0.32075 0.0
C69 C 0.56157 0.88874 0.31936 0.0
N70 N 0.55527 0.84575 0.29537 0.0
N71 N 0.58447 0.89527 0.29297 0.0
H72 H 0.59497 0.86619 0.25718 0.0
H73 H 0.52334 0.8458 0.33903 0.0
C74 C 0.47982 0.78668 0.24777 0.0
O75 O 0.48408 0.77173 0.21769 0.0
N76 N 0.52295 0.76022 0.28342 0.0
C77 C 0.53847 0.74548 0.28247 0.0
C78 C 0.51883 0.71523 0.28031 0.0
C79 C 0.49394 0.73829 0.28441 0.0
N80 N 0.49083 0.7108 0.28111 0.0
C81 C 0.56905 0.79936 0.21485 0.0
C82 C 0.54823 0.82637 0.16023 0.0
C83 C 0.56403 0.81297 0.14386 0.0
C84 C 0.57527 0.80018 0.17218 0.0
C85 C 0.54206 0.82452 0.20325 0.0
N86 N 0.55082 0.80939 0.22952 0.0
H87 H 0.57877 0.79036 0.23598 0.0
H88 H 0.52978 0.83482 0.21533 0.0
H89 H 0.56249 0.75565 0.28441 0.0
H90 H 0.47533 0.74194 0.28923 0.0
O91 O 0.5757 0.80739 0.31245 0.0
O92 O 0.53508 0.79899 0.34819 0.0
O93 O 0.49929 0.79958 0.27666 0.0
C94 C 0.56216 0.80336 0.34841 0.0
H95 H 0.55772 0.90496 0.3356 0.0
H96 H 0.52476 0.6979 0.27804 0.0
H97 H 0.5403 0.83783 0.14006 0.0
H98 H 0.58799 0.7899 0.16166 0.0
Co99 Co 0.74071 0.5469 0.78553 0.0
C100 C 0.71554 0.58716 0.77942 0.0
C101 C 0.68985 0.54976 0.82028 0.0
C102 C 0.67714 0.56769 0.82022 0.0
N103 N 0.71383 0.56201 0.7947 0.0
N104 N 0.69329 0.5911 0.79448 0.0
H105 H 0.73275 0.60232 0.758 0.0
H106 H 0.6822 0.52923 0.83776 0.0
C107 C 0.70041 0.48587 0.74693 0.0
O108 O 0.72093 0.48998 0.71906 0.0
N109 N 0.76786 0.53132 0.77761 0.0
C110 C 0.79595 0.54559 0.76197 0.0
C111 C 0.8061 0.5256 0.7586 0.0
C112 C 0.76228 0.50335 0.78629 0.0
N113 N 0.78478 0.49904 0.77354 0.0
C114 C 0.77176 0.58267 0.71358 0.0
C115 C 0.72672 0.55086 0.65625 0.0
C116 C 0.75555 0.57088 0.6415 0.0
C117 C 0.77777 0.58832 0.67078 0.0
C118 C 0.72177 0.54615 0.69938 0.0
N119 N 0.74507 0.55952 0.72699 0.0
H120 H 0.78905 0.59619 0.73583 0.0
H121 H 0.69939 0.53095 0.71025 0.0
H122 H 0.80866 0.56887 0.75359 0.0
H123 H 0.74158 0.48601 0.79974 0.0
O124 O 0.77298 0.58291 0.81051 0.0
O125 O 0.74148 0.54131 0.84482 0.0
O126 O 0.70493 0.50639 0.77333 0.0
C127 C 0.76378 0.56856 0.84595 0.0
H128 H 0.65709 0.56341 0.8369 0.0
H129 H 0.82739 0.53013 0.74571 0.0
H130 H 0.70844 0.53823 0.63463 0.0
H131 H 0.80007 0.60491 0.66083 0.0
Co132 Co 0.18931 0.72831 0.29791 0.0
C133 C 0.12448 0.7042 0.28373 0.0
C134 C 0.1335 0.67611 0.32384 0.0
C135 C 0.10303 0.66366 0.32024 0.0
N136 N 0.14684 0.70144 0.30099 0.0
N137 N 0.09749 0.68129 0.29498 0.0
H138 H 0.12784 0.72256 0.26366 0.0
H139 H 0.14519 0.66738 0.34195 0.0
C140 C 0.20835 0.688 0.25406 0.0
O141 O 0.22494 0.70893 0.22681 0.0
N142 N 0.23252 0.75542 0.29638 0.0
C143 C 0.24702 0.78566 0.29659 0.0
C144 C 0.27734 0.79649 0.29505 0.0
C145 C 0.25458 0.74852 0.29742 0.0
N146 N 0.28201 0.77305 0.29503 0.0
C147 C 0.19458 0.76575 0.22772 0.0
C148 C 0.17434 0.72139 0.16736 0.0
C149 C 0.18728 0.75132 0.15452 0.0
C150 C 0.19617 0.77351 0.18542 0.0
C151 C 0.17298 0.71467 0.2101 0.0
N152 N 0.18541 0.737 0.23937 0.0
H153 H 0.20119 0.78303 0.251 0.0
H154 H 0.16278 0.6915 0.21951 0.0
H155 H 0.23659 0.79928 0.29845 0.0
H156 H 0.25099 0.72617 0.30097 0.0
O157 O 0.18419 0.75902 0.32551 0.0
O158 O 0.19158 0.72496 0.35757 0.0
O159 O 0.19388 0.69286 0.28258 0.0
C160 C 0.18689 0.7474 0.36045 0.0
H161 H 0.08623 0.64287 0.33425 0.0
H162 H 0.29456 0.8198 0.29323 0.0
H163 H 0.16592 0.7034 0.14455 0.0
H164 H 0.2055 0.79684 0.17704 0.0
Co165 Co 0.46301 0.1962 0.78212 0.0
C166 C 0.42065 0.13081 0.77529 0.0
C167 C 0.46126 0.14115 0.80765 0.0
C168 C 0.44303 0.11062 0.80694 0.0
N169 N 0.4472 0.15376 0.78795 0.0
N170 N 0.41763 0.10421 0.78653 0.0
H171 H 0.4039 0.13345 0.7584 0.0
H172 H 0.48333 0.15339 0.82144 0.0
C173 C 0.51739 0.2137 0.72604 0.0
O174 O 0.51274 0.23212 0.70299 0.0
N175 N 0.47962 0.23926 0.77761 0.0
C176 C 0.46463 0.25449 0.77728 0.0
C177 C 0.48483 0.28465 0.77593 0.0
C178 C 0.50881 0.26063 0.77874 0.0
N179 N 0.51262 0.28845 0.77647 0.0
C180 C 0.41991 0.19606 0.72427 0.0
C181 C 0.43838 0.17739 0.65488 0.0
C182 C 0.4181 0.1877 0.64916 0.0
C183 C 0.40795 0.19599 0.68481 0.0
C184 C 0.44988 0.17807 0.69485 0.0
N185 N 0.44242 0.18962 0.72833 0.0
H186 H 0.41121 0.20158 0.75148 0.0
H187 H 0.46514 0.16966 0.69854 0.0
H188 H 0.44073 0.24482 0.77946 0.0
H189 H 0.52699 0.25606 0.78225 0.0
O190 O 0.43256 0.19371 0.82107 0.0
O191 O 0.47759 0.20168 0.83836 0.0
O192 O 0.49953 0.19866 0.75567 0.0
C193 C 0.45189 0.19777 0.85048 0.0
H194 H 0.44838 0.09431 0.81937 0.0
H195 H 0.47942 0.30238 0.77448 0.0
H196 H 0.4463 0.16997 0.62851 0.0
H197 H 0.39116 0.20265 0.68218 0.0
Co198 Co 0.53715 0.73401 0.69906 0.0
C199 C 0.58023 0.71268 0.71467 0.0
C200 C 0.54232 0.68211 0.67756 0.0
C201 C 0.56139 0.67091 0.68094 0.0
N202 N 0.55413 0.70823 0.69858 0.0
N203 N 0.58509 0.69009 0.70425 0.0
H204 H 0.59546 0.73209 0.73295 0.0
H205 H 0.52142 0.67214 0.66045 0.0
C206 C 0.47925 0.6932 0.74538 0.0
O207 O 0.48353 0.71438 0.77218 0.0
N208 N 0.51933 0.75977 0.6976 0.0
C209 C 0.53378 0.7898 0.69246 0.0
C210 C 0.51334 0.7995 0.69295 0.0
C211 C 0.49003 0.75166 0.69837 0.0
N212 N 0.48584 0.77546 0.69716 0.0
C213 C 0.56675 0.77472 0.7667 0.0
C214 C 0.54861 0.73254 0.82993 0.0
C215 C 0.56264 0.76296 0.84044 0.0
C216 C 0.57275 0.78419 0.80828 0.0
C217 C 0.54261 0.72405 0.78771 0.0
N218 N 0.54976 0.74511 0.75704 0.0
H219 H 0.57544 0.79135 0.74237 0.0
H220 H 0.53122 0.70053 0.77981 0.0
H221 H 0.55758 0.80401 0.68802 0.0
H222 H 0.47183 0.72887 0.69823 0.0
O223 O 0.5724 0.76469 0.671 0.0
O224 O 0.53175 0.72878 0.63945 0.0
O225 O 0.49798 0.69822 0.71591 0.0
C226 C 0.55849 0.75189 0.63632 0.0
H227 H 0.55794 0.65003 0.66787 0.0
H228 H 0.51844 0.82252 0.69106 0.0
H229 H 0.54114 0.71555 0.85413 0.0
H230 H 0.58476 0.80792 0.8153 0.0
Co231 Co 0.80001 0.53754 0.1986 0.0
C232 C 0.86538 0.57796 0.20677 0.0
C233 C 0.85439 0.53987 0.16763 0.0
C234 C 0.88501 0.55758 0.16904 0.0
N235 N 0.84221 0.55263 0.19139 0.0
N236 N 0.8918 0.58138 0.19378 0.0
H237 H 0.86299 0.59345 0.22715 0.0
H238 H 0.84183 0.51904 0.15066 0.0
C239 C 0.78413 0.4793 0.24362 0.0
O240 O 0.77181 0.48541 0.27542 0.0
N241 N 0.75699 0.52187 0.20443 0.0
C242 C 0.74245 0.53758 0.20405 0.0
C243 C 0.71231 0.51829 0.20964 0.0
C244 C 0.73502 0.49301 0.2079 0.0
N245 N 0.70777 0.49029 0.21255 0.0
C246 C 0.79758 0.57018 0.26993 0.0
C247 C 0.82365 0.5496 0.32666 0.0
C248 C 0.81092 0.56636 0.34141 0.0
C249 C 0.79898 0.57783 0.31219 0.0
C250 C 0.82203 0.54277 0.28391 0.0
N251 N 0.80687 0.55098 0.2568 0.0
H252 H 0.78859 0.57944 0.24793 0.0
H253 H 0.83198 0.5299 0.27288 0.0
H254 H 0.75274 0.56146 0.19959 0.0
H255 H 0.73837 0.47406 0.20555 0.0
O256 O 0.80454 0.57336 0.17206 0.0
O257 O 0.79504 0.5314 0.13919 0.0
O258 O 0.79537 0.49735 0.21274 0.0
C259 C 0.80035 0.55878 0.13696 0.0
H260 H 0.90107 0.55282 0.15422 0.0
H261 H 0.69519 0.52449 0.21206 0.0
H262 H 0.8341 0.54125 0.34808 0.0
H263 H 0.78952 0.59146 0.32205 0.0
Co264 Co 0.25625 0.80311 0.70997 0.0
C265 C 0.28223 0.86885 0.71673 0.0
C266 C 0.30442 0.8565 0.67041 0.0
C267 C 0.31764 0.88716 0.67091 0.0
N268 N 0.28225 0.8451 0.69907 0.0
N269 N 0.30373 0.89484 0.7001 0.0
H270 H 0.2669 0.86725 0.74116 0.0
H271 H 0.31065 0.84338 0.65075 0.0
C272 C 0.29868 0.78389 0.74539 0.0
O273 O 0.2792 0.76726 0.77423 0.0
N274 N 0.23007 0.76045 0.71968 0.0
C275 C 0.20272 0.74661 0.73774 0.0
C276 C 0.193 0.71659 0.74124 0.0
C277 C 0.23558 0.73813 0.70991 0.0
N278 N 0.2138 0.71139 0.72407 0.0
C279 C 0.22683 0.80907 0.78303 0.0
C280 C 0.27255 0.82217 0.83909 0.0
C281 C 0.24409 0.81414 0.85473 0.0
C282 C 0.22155 0.80932 0.82601 0.0
C283 C 0.27681 0.82184 0.79579 0.0
N284 N 0.25317 0.81212 0.76879 0.0
H285 H 0.20917 0.80508 0.76132 0.0
H286 H 0.29896 0.82863 0.78434 0.0
H287 H 0.19023 0.7571 0.74769 0.0
H288 H 0.25577 0.74154 0.69457 0.0
O289 O 0.22277 0.80548 0.68635 0.0
O290 O 0.25394 0.7956 0.65077 0.0
O291 O 0.29294 0.79956 0.72006 0.0
C292 C 0.23115 0.79979 0.65057 0.0
H293 H 0.33667 0.90268 0.65224 0.0
H294 H 0.17235 0.69986 0.75566 0.0
H295 H 0.2911 0.8278 0.86017 0.0
H296 H 0.19949 0.80407 0.83655 0.0
Co297 Co 0.45808 0.25712 0.21633 0.0
C298 C 0.42114 0.28668 0.20748 0.0
C299 C 0.456 0.30118 0.16134 0.0
C300 C 0.44174 0.31737 0.15615 0.0
N301 N 0.44316 0.28193 0.19349 0.0
N302 N 0.42001 0.30846 0.18537 0.0
H303 H 0.40731 0.27574 0.23456 0.0
H304 H 0.47527 0.30418 0.14384 0.0
C305 C 0.51526 0.301 0.26171 0.0
O306 O 0.51244 0.28091 0.28945 0.0
N307 N 0.47409 0.23271 0.23804 0.0
C308 C 0.4626 0.2105 0.26682 0.0
C309 C 0.48308 0.2014 0.27458 0.0
C310 C 0.50095 0.23594 0.22768 0.0
N311 N 0.50716 0.21751 0.25007 0.0
C312 C 0.41049 0.22702 0.27601 0.0
C313 C 0.43674 0.26759 0.34076 0.0
C314 C 0.41247 0.23916 0.34988 0.0
C315 C 0.39819 0.21947 0.31632 0.0
C316 C 0.44826 0.2742 0.29996 0.0
N317 N 0.43685 0.25291 0.26915 0.0
H318 H 0.40024 0.21071 0.25125 0.0
H319 H 0.46688 0.29617 0.29399 0.0
H320 H 0.44118 0.20139 0.28196 0.0
H321 H 0.51639 0.25271 0.20597 0.0
O322 O 0.4275 0.22293 0.18513 0.0
O323 O 0.47298 0.25517 0.16194 0.0
O324 O 0.49499 0.29498 0.23427 0.0
C325 C 0.44717 0.23167 0.15499 0.0
H326 H 0.44763 0.33507 0.13345 0.0
H327 H 0.48057 0.18441 0.29679 0.0
H328 H 0.44801 0.284 0.3653 0.0
H329 H 0.37863 0.19773 0.32152 0.0
Co330 Co 0.19236 0.45801 0.69881 0.0
C331 C 0.12679 0.41901 0.70906 0.0
C332 C 0.13835 0.45636 0.66813 0.0
C333 C 0.1077 0.43931 0.6701 0.0
N334 N 0.15022 0.44364 0.69254 0.0
N335 N 0.10055 0.41598 0.69591 0.0
H336 H 0.12885 0.40367 0.73012 0.0
H337 H 0.15116 0.47669 0.65019 0.0
C338 C 0.21096 0.5171 0.74303 0.0
O339 O 0.22425 0.51091 0.77341 0.0
N340 N 0.23526 0.47294 0.70357 0.0
C341 C 0.24923 0.45668 0.70415 0.0
C342 C 0.27959 0.47566 0.70752 0.0
C343 C 0.25771 0.5017 0.70409 0.0
N344 N 0.2848 0.50396 0.70796 0.0
C345 C 0.19484 0.42549 0.77057 0.0
C346 C 0.17252 0.44942 0.82818 0.0
C347 C 0.18519 0.43256 0.84279 0.0
C348 C 0.19506 0.41928 0.8132 0.0
C349 C 0.17249 0.45477 0.78512 0.0
N350 N 0.18606 0.44507 0.75738 0.0
H351 H 0.20232 0.41494 0.74833 0.0
H352 H 0.16278 0.4679 0.7743 0.0
H353 H 0.23843 0.43264 0.70145 0.0
H354 H 0.25472 0.5208 0.70017 0.0
O355 O 0.18708 0.42184 0.67208 0.0
O356 O 0.19688 0.46382 0.63923 0.0
O357 O 0.198 0.49867 0.71293 0.0
C358 C 0.19152 0.43644 0.63694 0.0
H359 H 0.09186 0.44413 0.65472 0.0
H360 H 0.29643 0.46909 0.70996 0.0
H361 H 0.16346 0.45903 0.84988 0.0
H362 H 0.20423 0.40538 0.8229 0.0
Co363 Co 0.73866 0.19438 0.20782 0.0
C364 C 0.71237 0.12872 0.21201 0.0
C365 C 0.68773 0.1417 0.17106 0.0
C366 C 0.67426 0.111 0.17072 0.0
N367 N 0.71152 0.15268 0.19696 0.0
N368 N 0.68974 0.10295 0.19657 0.0
H369 H 0.72911 0.13005 0.23378 0.0
H370 H 0.6806 0.15513 0.15388 0.0
C371 C 0.69876 0.21387 0.25056 0.0
O372 O 0.7191 0.22823 0.27962 0.0
N373 N 0.76592 0.23683 0.21748 0.0
C374 C 0.79431 0.25041 0.232 0.0
C375 C 0.80457 0.2805 0.23654 0.0
C376 C 0.76017 0.25933 0.21075 0.0
N377 N 0.78297 0.28595 0.22341 0.0
C378 C 0.77012 0.18845 0.2784 0.0
C379 C 0.72495 0.17302 0.33634 0.0
C380 C 0.75396 0.18218 0.35071 0.0
C381 C 0.77626 0.18801 0.32101 0.0
C382 C 0.71988 0.17356 0.29334 0.0
N383 N 0.74322 0.1847 0.26564 0.0
H384 H 0.78745 0.19297 0.25583 0.0
H385 H 0.69741 0.16625 0.28269 0.0
H386 H 0.80724 0.23974 0.23851 0.0
H387 H 0.73929 0.25621 0.19828 0.0
O388 O 0.77071 0.191 0.18129 0.0
O389 O 0.7393 0.20216 0.14891 0.0
O390 O 0.70314 0.1992 0.22176 0.0
C391 C 0.7615 0.19709 0.14656 0.0
H392 H 0.65408 0.09574 0.15388 0.0
H393 H 0.82622 0.29713 0.24855 0.0
H394 H 0.70665 0.16662 0.3582 0.0
H395 H 0.79871 0.19398 0.33057 0.0
H396 H 0.36486 0.28349 0.22159 0.0
H397 H 0.37735 0.44174 0.25626 0.0
H398 H 0.43629 0.36642 0.17207 0.0
H399 H 0.29248 0.36025 0.26618 0.0
H400 H 0.39974 0.41332 0.22893 0.0
H401 H 0.33797 0.3098 0.24174 0.0
C402 C 0.37478 0.30711 0.21477 0.0
C403 C 0.40286 0.32276 0.1951 0.0
C404 C 0.37616 0.40153 0.23676 0.0
C405 C 0.37246 0.35282 0.21805 0.0
C406 C 0.36346 0.41775 0.25258 0.0
C407 C 0.33317 0.40319 0.26369 0.0
C408 C 0.35857 0.37036 0.23254 0.0
C409 C 0.31594 0.37215 0.2578 0.0
C410 C 0.35938 0.32202 0.226 0.0
C411 C 0.4146 0.3533 0.18664 0.0
N412 N 0.32899 0.35658 0.24302 0.0
N413 N 0.39949 0.36732 0.19848 0.0
H414 H 0.94391 0.34005 0.84503 0.0
H415 H 0.05048 0.39023 0.64862 0.0
H416 H 0.91131 0.30649 0.72069 0.0
H417 H 0.08329 0.39303 0.77399 0.0
H418 H -0.00076 0.35873 0.67404 0.0
H419 H 0.9952 0.35895 0.82024 0.0
C420 C 0.94763 0.33642 0.81261 0.0
C421 C 0.92352 0.32196 0.78473 0.0
C422 C 0.01765 0.36581 0.69589 0.0
C423 C 0.98189 0.34368 0.75605 0.0
C424 C 0.0468 0.38386 0.68143 0.0
C425 C 0.07095 0.39431 0.70938 0.0
C426 C 0.01263 0.35874 0.7388 0.0
C427 C 0.06519 0.38529 0.75151 0.0
C428 C 0.97681 0.34702 0.79853 0.0
C429 C 0.92936 0.31745 0.74314 0.0
N430 N 0.03652 0.36841 0.76516 0.0
N431 N 0.95803 0.32874 0.72983 0.0
H432 H 0.66405 0.05356 0.14749 0.0
H433 H 0.6123 0.94454 0.34156 0.0
H434 H 0.69639 0.08404 0.273 0.0
H435 H 0.60697 0.91292 0.21476 0.0
H436 H 0.64478 0.99585 0.31724 0.0
H437 H 0.64441 0.00184 0.17075 0.0
C438 C 0.66725 0.0493 0.17984 0.0
C439 C 0.68156 0.07297 0.2085 0.0
C440 C 0.63694 0.97769 0.29479 0.0
C441 C 0.65908 0.01409 0.23539 0.0
C442 C 0.61835 0.9485 0.30865 0.0
C443 C 0.60686 0.92469 0.28 0.0
C444 C 0.64354 0.98312 0.2518 0.0
C445 C 0.6155 0.93077 0.23776 0.0
C446 C 0.65623 0.01987 0.19305 0.0
C447 C 0.68555 0.0664 0.24993 0.0
N448 N 0.63294 0.95951 0.22473 0.0
N449 N 0.67392 0.03751 0.26234 0.0
H450 H 0.70177 0.61773 0.71851 0.0
H451 H 0.60993 0.69914 0.78151 0.0
H452 H 0.66842 0.6158 0.84339 0.0
H453 H 0.6144 0.67021 0.65608 0.0
H454 H 0.64458 0.68241 0.80524 0.0
H455 H 0.68305 0.65084 0.69639 0.0
C456 C 0.69105 0.62478 0.74145 0.0
C457 C 0.6862 0.61372 0.78266 0.0
C458 C 0.63838 0.68026 0.77238 0.0
C459 C 0.66476 0.6514 0.75766 0.0
C460 C 0.61886 0.68995 0.75888 0.0
C461 C 0.60922 0.68563 0.717 0.0
C462 C 0.64849 0.66662 0.74354 0.0
C463 C 0.62111 0.67346 0.68876 0.0
C464 C 0.68025 0.64351 0.72879 0.0
C465 C 0.67203 0.6234 0.81113 0.0
N466 N 0.63999 0.66416 0.70258 0.0
N467 N 0.66157 0.64153 0.79803 0.0
H468 H 0.08267 0.68996 0.21685 0.0
H469 H 0.90797 0.60676 0.27075 0.0
H470 H 0.04663 0.65814 0.34039 0.0
H471 H 0.94259 0.60601 0.14773 0.0
H472 H 0.95928 0.6389 0.29587 0.0
H473 H 0.03173 0.67233 0.19073 0.0
C474 C 0.06405 0.67983 0.23857 0.0
C475 C 0.0686 0.67512 0.28064 0.0
C476 C 0.95557 0.63204 0.26323 0.0
C477 C 0.01073 0.6551 0.2513 0.0
C478 C 0.92637 0.61391 0.24886 0.0
C479 C 0.92122 0.60354 0.20727 0.0
C480 C 0.97964 0.64006 0.23564 0.0
C481 C 0.94578 0.61321 0.18019 0.0
C482 C 0.03509 0.66965 0.22368 0.0
C483 C 0.04384 0.66171 0.3076 0.0
N484 N 0.97401 0.63081 0.1949 0.0
N485 N 0.0159 0.65201 0.29244 0.0
H486 H 0.30284 0.91367 0.77923 0.0
H487 H 0.38692 0.08646 0.71333 0.0
H488 H 0.32487 0.94411 0.6512 0.0
H489 H 0.39474 0.055 0.83545 0.0
H490 H 0.35189 0.03457 0.69247 0.0
H491 H 0.32426 0.9658 0.80221 0.0
C492 C 0.31165 0.93131 0.75592 0.0
C493 C 0.31245 0.92474 0.71335 0.0
C494 C 0.36096 0.03913 0.72403 0.0
C495 C 0.33689 0.98412 0.73926 0.0
C496 C 0.38072 0.06865 0.73597 0.0
C497 C 0.39385 0.07479 0.77596 0.0
C498 C 0.35408 0.01579 0.75255 0.0
C499 C 0.38535 0.051 0.80413 0.0
C500 C 0.32401 0.96099 0.76903 0.0
C501 C 0.32431 0.94839 0.68438 0.0
N502 N 0.3661 0.0225 0.79184 0.0
N503 N 0.33624 0.97709 0.69788 0.0
H504 H 0.20676 0.47795 0.89999 0.0
H505 H 0.20786 0.38046 0.09444 0.0
H506 H 0.17663 0.38371 0.88889 0.0
H507 H 0.2605 0.47678 0.08893 0.0
H508 H 0.19135 0.38001 0.02193 0.0
H509 H 0.22059 0.47658 0.97295 0.0
C510 C 0.2026 0.45684 0.91312 0.0
C511 C 0.19049 0.4309 0.88831 0.0
C512 C 0.20665 0.40119 0.0366 0.0
C513 C 0.20675 0.42928 0.97174 0.0
C514 C 0.21603 0.40147 0.07791 0.0
C515 C 0.23572 0.4287 0.09763 0.0
C516 C 0.21664 0.42837 0.0152 0.0
C517 C 0.24568 0.45526 0.07475 0.0
C518 C 0.21083 0.45615 0.95464 0.0
C519 C 0.18612 0.40428 0.90683 0.0
N520 N 0.23589 0.45444 0.03492 0.0
N521 N 0.19424 0.40414 0.94748 0.0
H522 H 0.78961 0.16856 0.39968 0.0
H523 H 0.79132 0.26999 0.5906 0.0
H524 H 0.73682 0.21219 0.40366 0.0
H525 H 0.82082 0.20556 0.60485 0.0
H526 H 0.77747 0.25373 0.51802 0.0
H527 H 0.80606 0.18528 0.47205 0.0
C528 C 0.78131 0.18143 0.4159 0.0
C529 C 0.76168 0.18885 0.39577 0.0
C530 C 0.78711 0.24323 0.53694 0.0
C531 C 0.78075 0.20841 0.47787 0.0
C532 C 0.79537 0.25277 0.57821 0.0
C533 C 0.80725 0.23912 0.60379 0.0
C534 C 0.79089 0.21997 0.5209 0.0
C535 C 0.8115 0.2165 0.58626 0.0
C536 C 0.79069 0.19094 0.45709 0.0
C537 C 0.75159 0.20555 0.41818 0.0
N538 N 0.8033 0.20759 0.54583 0.0
N539 N 0.76141 0.21494 0.45785 0.0
H540 H 0.61057 0.81306 0.10054 0.0
H541 H 0.54071 0.79643 0.87351 0.0
H542 H 0.52477 0.8071 0.08121 0.0
H543 H 0.58941 0.75161 0.90674 0.0
H544 H 0.54335 0.81213 0.94685 0.0
H545 H 0.61163 0.80205 0.0261 0.0
C546 C 0.59196 0.80952 0.0809 0.0
C547 C 0.56727 0.81059 0.09771 0.0
C548 C 0.55354 0.79897 0.938 0.0
C549 C 0.56907 0.799 0.01224 0.0
C550 C 0.55214 0.79012 0.89634 0.0
C551 C 0.56483 0.77272 0.88444 0.0
C552 C 0.56827 0.79085 0.96767 0.0
C553 C 0.57925 0.76489 0.91499 0.0
C554 C 0.59274 0.80338 0.03838 0.0
C555 C 0.54443 0.80685 0.06998 0.0
N556 N 0.58076 0.7742 0.95538 0.0
N557 N 0.54589 0.8012 0.02863 0.0
H558 H 0.82052 0.61647 0.38492 0.0
H559 H 0.73896 0.52298 0.59031 0.0
H560 H 0.79213 0.52298 0.40115 0.0
H561 H 0.79022 0.61949 0.59093 0.0
H562 H 0.75476 0.52295 0.51819 0.0
H563 H 0.80754 0.61867 0.45852 0.0
C564 C 0.81185 0.59652 0.40411 0.0
C565 C 0.80736 0.56949 0.38697 0.0
C566 C 0.76254 0.54417 0.53401 0.0
C567 C 0.79212 0.57174 0.47061 0.0
C568 C 0.75321 0.54422 0.57501 0.0
C569 C 0.76312 0.57129 0.59653 0.0
C570 C 0.7818 0.5714 0.5141 0.0
C571 C 0.78214 0.59812 0.57545 0.0
C572 C 0.80448 0.5978 0.44601 0.0
C573 C 0.79624 0.54434 0.41319 0.0
N574 N 0.79081 0.59752 0.53525 0.0
N575 N 0.78872 0.54601 0.45355 0.0
H576 H 0.21041 0.82947 0.90529 0.0
H577 H 0.21009 0.72915 0.09669 0.0
H578 H 0.2612 0.7837 0.90707 0.0
H579 H 0.17954 0.79281 0.11017 0.0
H580 H 0.22433 0.74552 0.02426 0.0
H581 H 0.19538 0.81395 0.97833 0.0
C582 C 0.21856 0.81636 0.92113 0.0
C583 C 0.23719 0.80797 0.90012 0.0
C584 C 0.21445 0.75589 0.04298 0.0
C585 C 0.21981 0.78986 0.98321 0.0
C586 C 0.206 0.74631 0.08421 0.0
C587 C 0.19354 0.75958 0.10949 0.0
C588 C 0.21026 0.77882 0.02665 0.0
C589 C 0.18928 0.78214 0.09184 0.0
C590 C 0.21001 0.80755 0.96275 0.0
C591 C 0.24718 0.79106 0.92218 0.0
N592 N 0.19759 0.79103 0.05143 0.0
N593 N 0.23819 0.78239 0.96234 0.0
H594 H 0.40356 0.1498 0.5814 0.0
H595 H 0.41031 0.27077 0.41855 0.0
H596 H 0.41269 0.23441 0.6187 0.0
H597 H 0.39763 0.18447 0.38264 0.0
H598 H 0.40536 0.25569 0.49235 0.0
H599 H 0.39551 0.15982 0.50896 0.0
C600 C 0.40365 0.17039 0.57441 0.0
C601 C 0.40913 0.19143 0.60616 0.0
C602 C 0.40325 0.23991 0.46826 0.0
C603 C 0.39998 0.20312 0.52313 0.0
C604 C 0.40615 0.24855 0.4261 0.0
C605 C 0.40462 0.22898 0.39421 0.0
C606 C 0.39902 0.21158 0.47872 0.0
C607 C 0.39874 0.20028 0.40597 0.0
C608 C 0.39894 0.17607 0.53304 0.0
C609 C 0.40845 0.21749 0.59533 0.0
N610 N 0.39652 0.19261 0.44718 0.0
N611 N 0.40435 0.22276 0.55469 0.0
H612 H 0.7766 0.59326 0.11197 0.0
H613 H 0.82095 0.58926 0.8724 0.0
H614 H 0.8299 0.5554 0.06931 0.0
H615 H 0.73552 0.57703 0.91109 0.0
H616 H 0.83777 0.59907 0.94606 0.0
H617 H 0.77484 0.60876 0.03922 0.0
C618 C 0.78851 0.58895 0.08742 0.0
C619 C 0.80294 0.57267 0.09595 0.0
C620 C 0.8157 0.59521 0.93808 0.0
C621 C 0.80169 0.59072 0.01403 0.0
C622 C 0.80624 0.58979 0.89627 0.0
C623 C 0.77689 0.58222 0.88634 0.0
C624 C 0.79567 0.5933 0.9695 0.0
C625 C 0.75831 0.58267 0.91803 0.0
C626 C 0.78752 0.59774 0.04619 0.0
C627 C 0.8181 0.56749 0.06347 0.0
N628 N 0.76791 0.58782 0.95845 0.0
N629 N 0.81694 0.57633 0.02377 0.0
H630 H 0.17415 0.75976 0.6271 0.0
H631 H 0.20922 0.80558 0.38497 0.0
H632 H 0.25578 0.83588 0.58361 0.0
H633 H 0.16028 0.71467 0.42982 0.0
H634 H 0.21283 0.82334 0.45781 0.0
H635 H 0.15533 0.75022 0.55438 0.0
C636 C 0.18754 0.77506 0.6024 0.0
C637 C 0.21642 0.79854 0.61079 0.0
C638 C 0.20069 0.79954 0.45138 0.0
C639 C 0.1954 0.7879 0.52851 0.0
C640 C 0.19859 0.78946 0.41004 0.0
C641 C 0.18484 0.75872 0.4019 0.0
C642 C 0.18835 0.77862 0.48421 0.0
C643 C 0.17147 0.73859 0.43519 0.0
C644 C 0.17696 0.76955 0.56108 0.0
C645 C 0.23334 0.81753 0.57795 0.0
N646 N 0.1737 0.74889 0.47501 0.0
N647 N 0.22268 0.81167 0.53803 0.0
H648 H 0.40576 0.20072 0.89101 0.0
H649 H 0.48289 0.21631 0.1139 0.0
H650 H 0.48353 0.19196 0.91347 0.0
H651 H 0.39925 0.2154 0.10242 0.0
H652 H 0.47952 0.20201 0.04047 0.0
H653 H 0.39926 0.2019 0.96776 0.0
C654 C 0.42125 0.19883 0.91199 0.0
C655 C 0.4455 0.19676 0.89589 0.0
C656 C 0.46154 0.20442 0.05382 0.0
C657 C 0.43814 0.1978 0.98295 0.0
C658 C 0.46344 0.21242 0.09586 0.0
C659 C 0.44127 0.21683 0.11394 0.0
C660 C 0.43764 0.20159 0.02917 0.0
C661 C 0.4166 0.21182 0.0894 0.0
C662 C 0.41752 0.19943 0.95565 0.0
C663 C 0.46482 0.19415 0.92433 0.0
N664 N 0.41566 0.20494 0.04782 0.0
N665 N 0.4608 0.19491 0.9662 0.0
H666 H 0.27373 0.43192 0.41718 0.0
H667 H 0.16248 0.43807 0.56738 0.0
H668 H 0.18514 0.40564 0.37255 0.0
H669 H 0.22006 0.40619 0.61341 0.0
H670 H 0.16905 0.42488 0.4958 0.0
H671 H 0.25452 0.42089 0.48922 0.0
C672 C 0.25004 0.42305 0.42265 0.0
C673 C 0.23087 0.41961 0.38933 0.0
C674 C 0.17962 0.42002 0.52163 0.0
C675 C 0.20905 0.40801 0.47123 0.0
C676 C 0.176 0.42767 0.56232 0.0
C677 C 0.19088 0.42324 0.59589 0.0
C678 C 0.19915 0.40895 0.51447 0.0
C679 C 0.2082 0.40979 0.58808 0.0
C680 C 0.23909 0.41669 0.46361 0.0
C681 C 0.20045 0.40833 0.39766 0.0
N682 N 0.21255 0.40381 0.54786 0.0
N683 N 0.19054 0.40366 0.43809 0.0
H684 H 0.77711 0.18649 0.87967 0.0
H685 H 0.81885 0.23336 0.12042 0.0
H686 H 0.83093 0.27753 0.92234 0.0
H687 H 0.73278 0.16223 0.07998 0.0
H688 H 0.83604 0.24095 0.04687 0.0
H689 H 0.77346 0.16928 0.95286 0.0
C690 C 0.78877 0.20268 0.90434 0.0
C691 C 0.80396 0.23337 0.89558 0.0
C692 C 0.81371 0.22311 0.05442 0.0
C693 C 0.80049 0.21411 0.97809 0.0
C694 C 0.80402 0.21873 0.09616 0.0
C695 C 0.77445 0.19732 0.10563 0.0
C696 C 0.7937 0.20558 0.02259 0.0
C697 C 0.75574 0.17907 0.07343 0.0
C698 C 0.78667 0.19294 0.94584 0.0
C699 C 0.81866 0.25367 0.92829 0.0
N700 N 0.76561 0.18374 0.03312 0.0
N701 N 0.81645 0.24369 0.96826 0.0
H702 H 0.59357 0.81009 0.61271 0.0
H703 H 0.58479 0.76763 0.36993 0.0
H704 H 0.55289 0.71953 0.56643 0.0
H705 H 0.56953 0.83727 0.41679 0.0
H706 H 0.59604 0.75891 0.44204 0.0
H707 H 0.60735 0.82844 0.54018 0.0
C708 C 0.58833 0.79418 0.58738 0.0
C709 C 0.5717 0.76336 0.59499 0.0
C710 C 0.59119 0.77673 0.43614 0.0
C711 C 0.5878 0.78396 0.51315 0.0
C712 C 0.58493 0.78175 0.39525 0.0
C713 C 0.5761 0.80297 0.3881 0.0
C714 C 0.58907 0.7935 0.46937 0.0
C715 C 0.57611 0.82056 0.42158 0.0
C716 C 0.59614 0.80461 0.54626 0.0
C717 C 0.56529 0.7435 0.56142 0.0
N718 N 0.58227 0.81529 0.46103 0.0
N719 N 0.57318 0.75414 0.52175 0.0
H720 H 0.26171 0.55366 0.25557 0.0
H721 H 0.16746 0.63601 0.29151 0.0
H722 H 0.17016 0.50807 0.29849 0.0
H723 H 0.24919 0.67485 0.21933 0.0
H724 H 0.16933 0.58985 0.29787 0.0
H725 H 0.2592 0.59941 0.24674 0.0
C726 C 0.24117 0.55336 0.26357 0.0
C727 C 0.21612 0.52703 0.27802 0.0
C728 C 0.18677 0.60837 0.28041 0.0
C729 C 0.213 0.57924 0.26748 0.0
C730 C 0.18575 0.63476 0.27678 0.0
C731 C 0.20825 0.65932 0.25488 0.0
C732 C 0.21066 0.60658 0.26246 0.0
C733 C 0.23132 0.6564 0.2363 0.0
C734 C 0.23967 0.5794 0.25809 0.0
C735 C 0.18991 0.5278 0.28708 0.0
N736 N 0.23207 0.63055 0.24081 0.0
N737 N 0.18907 0.55352 0.28182 0.0
H738 H 0.65399 0.17203 0.7882 0.0
H739 H 0.57217 0.25711 0.69625 0.0
H740 H 0.70195 0.26167 0.73796 0.0
H741 H 0.52655 0.16845 0.74982 0.0
H742 H 0.61989 0.2578 0.70421 0.0
H743 H 0.60704 0.16922 0.76866 0.0
C744 C 0.6547 0.19111 0.77295 0.0
C745 C 0.68205 0.21717 0.76498 0.0
C746 C 0.59936 0.23807 0.71371 0.0
C747 C 0.62812 0.21419 0.74256 0.0
C748 C 0.57214 0.23758 0.7088 0.0
C749 C 0.54546 0.21278 0.72269 0.0
C750 C 0.59972 0.21355 0.73248 0.0
C751 C 0.54666 0.18816 0.7391 0.0
C752 C 0.62782 0.18953 0.76182 0.0
C753 C 0.68143 0.24131 0.74544 0.0
N754 N 0.57331 0.18928 0.74382 0.0
N755 N 0.65491 0.23926 0.73497 0.0
H756 H 0.48067 0.65611 0.30507 0.0
H757 H 0.31475 0.56883 0.20997 0.0
H758 H 0.4385 0.70118 0.24703 0.0
H759 H 0.35389 0.52746 0.28497 0.0
H760 H 0.36085 0.6172 0.21855 0.0
H761 H 0.43503 0.60832 0.29401 0.0
C762 C 0.46179 0.65594 0.28998 0.0
C763 C 0.46341 0.68266 0.27697 0.0
C764 C 0.3593 0.59747 0.23299 0.0
C765 C 0.41095 0.62797 0.26413 0.0
C766 C 0.3331 0.56987 0.22788 0.0
C767 C 0.33046 0.54412 0.24687 0.0
C768 C 0.38299 0.59918 0.25697 0.0
C769 C 0.35484 0.54675 0.26998 0.0
C770 C 0.43567 0.62865 0.28377 0.0
C771 C 0.43809 0.68113 0.258 0.0
N772 N 0.38001 0.57374 0.27437 0.0
N773 N 0.41292 0.65421 0.25198 0.0
H774 H 0.7819 0.34028 0.68173 0.0
H775 H 0.76228 0.45381 0.83001 0.0
H776 H 0.78506 0.33633 0.81697 0.0
H777 H 0.80519 0.48022 0.70902 0.0
H778 H 0.7608 0.40559 0.82275 0.0
H779 H 0.7807 0.3872 0.68805 0.0
C780 C 0.78216 0.34919 0.71266 0.0
C781 C 0.7838 0.33461 0.74885 0.0
C782 C 0.77057 0.42203 0.79789 0.0
C783 C 0.78198 0.38762 0.75626 0.0
C784 C 0.77135 0.44937 0.802 0.0
C785 C 0.78419 0.47098 0.77031 0.0
C786 C 0.78206 0.41612 0.76137 0.0
C787 C 0.7956 0.46427 0.73445 0.0
C788 C 0.7816 0.37592 0.71623 0.0
C789 C 0.78411 0.34706 0.78824 0.0
N790 N 0.7941 0.43732 0.73079 0.0
N791 N 0.78305 0.37277 0.79092 0.0
H792 H 0.29142 0.73124 0.25731 0.0
H793 H 0.46818 0.8241 0.29398 0.0
H794 H 0.33697 0.81725 0.31881 0.0
H795 H 0.42574 0.74747 0.21162 0.0
H796 H 0.41985 0.82054 0.30578 0.0
H797 H 0.3398 0.73482 0.24389 0.0
C798 C 0.31157 0.75072 0.26841 0.0
C799 C 0.31016 0.77399 0.28931 0.0
C800 C 0.42106 0.80458 0.28492 0.0
C801 C 0.36558 0.77839 0.27354 0.0
C802 C 0.44867 0.80659 0.27815 0.0
C803 C 0.45098 0.78602 0.25178 0.0
C804 C 0.39539 0.78164 0.26554 0.0
C805 C 0.42497 0.76389 0.232 0.0
C806 C 0.33919 0.75288 0.26034 0.0
C807 C 0.33703 0.79894 0.3023 0.0
N808 N 0.39817 0.76214 0.23953 0.0
N809 N 0.36361 0.80045 0.29428 0.0
H810 H 0.64985 0.47344 0.79014 0.0
H811 H 0.56481 0.29773 0.74224 0.0
H812 H 0.68681 0.43224 0.71034 0.0
H813 H 0.52376 0.34303 0.80293 0.0
H814 H 0.61092 0.34594 0.73392 0.0
H815 H 0.60443 0.42513 0.79787 0.0
C816 C 0.64838 0.45422 0.77408 0.0
C817 C 0.67219 0.4569 0.74952 0.0
C818 C 0.59181 0.34529 0.74906 0.0
C819 C 0.62014 0.40129 0.75854 0.0
C820 C 0.56559 0.31777 0.75416 0.0
C821 C 0.54038 0.31636 0.7733 0.0
C822 C 0.59288 0.37155 0.7635 0.0
C823 C 0.5425 0.34309 0.78759 0.0
C824 C 0.62238 0.42661 0.77851 0.0
C825 C 0.66893 0.43121 0.72939 0.0
N826 N 0.56826 0.36953 0.78246 0.0
N827 N 0.64342 0.40441 0.73452 0.0
H828 H 0.34679 0.82134 0.6973 0.0
H829 H 0.43656 0.73461 0.73962 0.0
H830 H 0.31505 0.7456 0.78089 0.0
H831 H 0.47183 0.8165 0.66842 0.0
H832 H 0.39088 0.73663 0.75245 0.0
H833 H 0.39206 0.81883 0.68493 0.0
C834 C 0.34939 0.80423 0.71325 0.0
C835 C 0.32704 0.78362 0.74021 0.0
C836 C 0.4086 0.75413 0.73397 0.0
C837 C 0.37893 0.78051 0.72583 0.0
C838 C 0.43459 0.75285 0.72628 0.0
C839 C 0.45811 0.77543 0.70283 0.0
C840 C 0.40601 0.77809 0.71796 0.0
C841 C 0.45446 0.79879 0.68699 0.0
C842 C 0.37529 0.80281 0.70612 0.0
C843 C 0.33174 0.76201 0.76002 0.0
N844 N 0.42894 0.7995 0.69482 0.0
N845 N 0.35713 0.76092 0.75227 0.0
H846 H 0.52329 0.35114 0.22145 0.0
H847 H 0.70054 0.44062 0.25251 0.0
H848 H 0.57004 0.31813 0.29716 0.0
H849 H 0.65151 0.47837 0.19375 0.0
H850 H 0.65325 0.3954 0.26852 0.0
H851 H 0.57005 0.39802 0.21165 0.0
C852 C 0.54338 0.35385 0.23636 0.0
C853 C 0.54278 0.33061 0.26006 0.0
C854 C 0.65283 0.4136 0.25221 0.0
C855 C 0.5966 0.38426 0.24846 0.0
C856 C 0.67984 0.43933 0.24267 0.0
C857 C 0.68002 0.46329 0.22145 0.0
C858 C 0.62573 0.41167 0.24024 0.0
C859 C 0.65245 0.46056 0.21031 0.0
C860 C 0.57011 0.38067 0.23071 0.0
C861 C 0.56948 0.33549 0.27876 0.0
N862 N 0.62646 0.43518 0.21966 0.0
N863 N 0.59539 0.36168 0.27222 0.0
H864 H 0.21858 0.555 0.80825 0.0
H865 H 0.23329 0.6879 0.66411 0.0
H866 H 0.20804 0.54635 0.67356 0.0
H867 H 0.19657 0.67286 0.78919 0.0
H868 H 0.2342 0.64072 0.6689 0.0
H869 H 0.22057 0.60354 0.8038 0.0
C870 C 0.21684 0.56339 0.7778 0.0
C871 C 0.21292 0.54661 0.74128 0.0
C872 C 0.22593 0.64783 0.69522 0.0
C873 C 0.21567 0.60198 0.73593 0.0
C874 C 0.22551 0.67465 0.69251 0.0
C875 C 0.21452 0.68393 0.72609 0.0
C876 C 0.216 0.6307 0.73217 0.0
C877 C 0.20471 0.66612 0.76238 0.0
C878 C 0.21787 0.59094 0.77531 0.0
C879 C 0.21077 0.55846 0.70255 0.0
N880 N 0.20585 0.64042 0.76459 0.0
N881 N 0.21234 0.58551 0.70085 0.0
H882 H 0.53417 0.2096 0.31768 0.0
H883 H 0.66073 0.2024 0.18473 0.0
H884 H 0.54323 0.22488 0.184 0.0
H885 H 0.67279 0.2275 0.31573 0.0
H886 H 0.61411 0.20389 0.18448 0.0
H887 H 0.58157 0.20936 0.31827 0.0
C888 C 0.54609 0.21269 0.28843 0.0
C889 C 0.53482 0.21713 0.25067 0.0
C890 C 0.62701 0.20914 0.21323 0.0
C891 C 0.58881 0.21684 0.25109 0.0
C892 C 0.65352 0.20816 0.2135 0.0
C893 C 0.67063 0.21482 0.25036 0.0
C894 C 0.61722 0.21631 0.25026 0.0
C895 C 0.66031 0.22231 0.28662 0.0
C896 C 0.57319 0.21281 0.28884 0.0
C897 C 0.55131 0.22152 0.21372 0.0
N898 N 0.6341 0.22262 0.28577 0.0
N899 N 0.5774 0.22102 0.21476 0.0
H900 H 0.42582 0.67933 0.78278 0.0
H901 H 0.33981 0.51361 0.68644 0.0
H902 H 0.46806 0.64156 0.70672 0.0
H903 H 0.2945 0.55573 0.74408 0.0
H904 H 0.38767 0.55893 0.69937 0.0
H905 H 0.37806 0.63248 0.7754 0.0
C906 C 0.42512 0.66108 0.765 0.0
C907 C 0.45088 0.66436 0.74518 0.0
C908 C 0.36725 0.55829 0.70914 0.0
C909 C 0.39648 0.61096 0.73638 0.0
C910 C 0.33993 0.53238 0.70186 0.0
C911 C 0.31311 0.53092 0.714 0.0
C912 C 0.36782 0.58292 0.72899 0.0
C913 C 0.3146 0.55605 0.73359 0.0
C914 C 0.39785 0.63445 0.76054 0.0
C915 C 0.44869 0.64008 0.72225 0.0
N916 N 0.3415 0.581 0.74056 0.0
N917 N 0.42198 0.61448 0.71842 0.0
H918 H 0.80536 0.32578 0.28707 0.0
H919 H 0.78339 0.44939 0.17283 0.0
H920 H 0.76002 0.30886 0.16795 0.0
H921 H 0.78162 0.44284 0.3081 0.0
H922 H 0.782 0.40142 0.16817 0.0
H923 H 0.80426 0.37264 0.29322 0.0
C924 C 0.7954 0.33213 0.26209 0.0
C925 C 0.78293 0.31368 0.22681 0.0
C926 C 0.7818 0.41045 0.19884 0.0
C927 C 0.78166 0.36697 0.23356 0.0
C928 C 0.78277 0.43786 0.20158 0.0
C929 C 0.78269 0.45008 0.24097 0.0
C930 C 0.78144 0.39546 0.23572 0.0
C931 C 0.78162 0.43409 0.27717 0.0
C932 C 0.79453 0.35862 0.2658 0.0
C933 C 0.76981 0.32254 0.1956 0.0
N934 N 0.78137 0.40767 0.27371 0.0
N935 N 0.76978 0.34877 0.19947 0.0
loop_
_geom_bond_atom_site_label_1
_geom_bond_atom_site_label_2
_geom_bond_distance
_geom_bond_site_symmetry_2
_ccdc_geom_bond_type
Co0 N4 2.148 . S
Co0 N10 2.128 . S
Co0 N20 2.194 . S
Co0 O25 2.351 . S
Co0 O26 2.155 . S
Co0 O27 2.096 . S
C1 N4 1.301 . S
C1 N5 1.328 . S
C1 H6 0.930 . S
C2 C3 1.333 . S
C2 N4 1.317 . S
C2 H7 0.930 . S
C3 C2 1.333 . S
C3 N5 1.350 . S
C3 H29 0.931 . S
N4 Co0 2.148 . S
N4 C1 1.301 . S
N4 C2 1.317 . S
N5 C1 1.328 . S
N5 C3 1.350 . S
H6 C1 0.930 . S
H7 C2 0.930 . S
C8 O9 1.224 . S
C8 O27 1.247 . S
O9 C8 1.224 . S
N10 Co0 2.128 . S
N10 C11 1.355 . S
N10 C13 1.311 . S
C11 N10 1.355 . S
C11 C12 1.363 . S
C11 H23 0.929 . S
C12 C11 1.363 . S
C12 N14 1.375 . S
C12 H30 0.931 . S
C13 N10 1.311 . S
C13 N14 1.347 . S
C13 H24 0.929 . S
N14 C12 1.375 . S
N14 C13 1.347 . S
C15 C18 1.365 . S
C15 N20 1.328 . S
C15 H21 0.929 . S
C16 C17 1.362 . S
C16 C19 1.378 . S
C16 H31 0.929 . S
C17 C16 1.362 . S
C17 C18 1.366 . S
C18 C15 1.365 . S
C18 C17 1.366 . S
C18 H32 0.930 . S
C19 C16 1.378 . S
C19 N20 1.315 . S
C19 H22 0.930 . S
N20 Co0 2.194 . S
N20 C15 1.328 . S
N20 C19 1.315 . S
H21 C15 0.929 . S
H22 C19 0.930 . S
H23 C11 0.929 . S
H24 C13 0.929 . S
O25 Co0 2.351 . S
O25 C28 1.244 . S
O26 Co0 2.155 . S
O26 C28 1.240 . S
O27 Co0 2.096 . S
O27 C8 1.247 . S
C28 O25 1.244 . S
C28 O26 1.240 . S
H29 C3 0.931 . S
H30 C12 0.931 . S
H31 C16 0.929 . S
H32 C18 0.930 . S
Co33 N37 2.148 . S
Co33 N43 2.128 . S
Co33 N53 2.194 . S
Co33 O58 2.351 . S
Co33 O59 2.155 . S
Co33 O60 2.096 . S
C34 N37 1.301 . S
C34 N38 1.328 . S
C34 H39 0.930 . S
C35 C36 1.333 . S
C35 N37 1.317 . S
C35 H40 0.930 . S
C36 C35 1.333 . S
C36 N38 1.350 . S
C36 H62 0.931 . S
N37 Co33 2.148 . S
N37 C34 1.301 . S
N37 C35 1.317 . S
N38 C34 1.328 . S
N38 C36 1.350 . S
H39 C34 0.930 . S
H40 C35 0.930 . S
C41 O42 1.224 . S
C41 O60 1.247 . S
O42 C41 1.224 . S
N43 Co33 2.128 . S
N43 C44 1.355 . S
N43 C46 1.311 . S
C44 N43 1.355 . S
C44 C45 1.363 . S
C44 H56 0.929 . S
C45 C44 1.363 . S
C45 N47 1.375 . S
C45 H63 0.931 . S
C46 N43 1.311 . S
C46 N47 1.347 . S
C46 H57 0.929 . S
N47 C45 1.375 . S
N47 C46 1.347 . S
C48 C51 1.365 . S
C48 N53 1.328 . S
C48 H54 0.929 . S
C49 C50 1.362 . S
C49 C52 1.378 . S
C49 H64 0.929 . S
C50 C49 1.362 . S
C50 C51 1.366 . S
C51 C48 1.365 . S
C51 C50 1.366 . S
C51 H65 0.930 . S
C52 C49 1.378 . S
C52 N53 1.315 . S
C52 H55 0.930 . S
N53 Co33 2.194 . S
N53 C48 1.328 . S
N53 C52 1.315 . S
H54 C48 0.929 . S
H55 C52 0.930 . S
H56 C44 0.929 . S
H57 C46 0.929 . S
O58 Co33 2.351 . S
O58 C61 1.244 . S
O59 Co33 2.155 . S
O59 C61 1.240 . S
O60 Co33 2.096 . S
O60 C41 1.247 . S
C61 O58 1.244 . S
C61 O59 1.240 . S
H62 C36 0.931 . S
H63 C45 0.931 . S
H64 C49 0.929 . S
H65 C51 0.930 . S
Co66 N70 2.148 . S
Co66 N76 2.128 . S
Co66 N86 2.194 . S
Co66 O91 2.351 . S
Co66 O92 2.155 . S
Co66 O93 2.096 . S
C67 N70 1.301 . S
C67 N71 1.328 . S
C67 H72 0.930 . S
C68 C69 1.333 . S
C68 N70 1.317 . S
C68 H73 0.930 . S
C69 C68 1.333 . S
C69 N71 1.350 . S
C69 H95 0.931 . S
N70 Co66 2.148 . S
N70 C67 1.301 . S
N70 C68 1.317 . S
N71 C67 1.328 . S
N71 C69 1.350 . S
H72 C67 0.930 . S
H73 C68 0.930 . S
C74 O75 1.224 . S
C74 O93 1.247 . S
O75 C74 1.224 . S
N76 Co66 2.128 . S
N76 C77 1.355 . S
N76 C79 1.311 . S
C77 N76 1.355 . S
C77 C78 1.363 . S
C77 H89 0.929 . S
C78 C77 1.363 . S
C78 N80 1.375 . S
C78 H96 0.931 . S
C79 N76 1.311 . S
C79 N80 1.347 . S
C79 H90 0.929 . S
N80 C78 1.375 . S
N80 C79 1.347 . S
C81 C84 1.365 . S
C81 N86 1.328 . S
C81 H87 0.929 . S
C82 C83 1.362 . S
C82 C85 1.378 . S
C82 H97 0.929 . S
C83 C82 1.362 . S
C83 C84 1.366 . S
C84 C81 1.365 . S
C84 C83 1.366 . S
C84 H98 0.930 . S
C85 C82 1.378 . S
C85 N86 1.315 . S
C85 H88 0.930 . S
N86 Co66 2.194 . S
N86 C81 1.328 . S
N86 C85 1.315 . S
H87 C81 0.929 . S
H88 C85 0.930 . S
H89 C77 0.929 . S
H90 C79 0.929 . S
O91 Co66 2.351 . S
O91 C94 1.244 . S
O92 Co66 2.155 . S
O92 C94 1.240 . S
O93 Co66 2.096 . S
O93 C74 1.247 . S
C94 O91 1.244 . S
C94 O92 1.240 . S
H95 C69 0.931 . S
H96 C78 0.931 . S
H97 C82 0.929 . S
H98 C84 0.930 . S
Co99 N103 2.148 . S
Co99 N109 2.128 . S
Co99 N119 2.194 . S
Co99 O124 2.351 . S
Co99 O125 2.155 . S
Co99 O126 2.096 . S
C100 N103 1.301 . S
C100 N104 1.328 . S
C100 H105 0.930 . S
C101 C102 1.333 . S
C101 N103 1.317 . S
C101 H106 0.930 . S
C102 C101 1.333 . S
C102 N104 1.350 . S
C102 H128 0.931 . S
N103 Co99 2.148 . S
N103 C100 1.301 . S
N103 C101 1.317 . S
N104 C100 1.328 . S
N104 C102 1.350 . S
H105 C100 0.930 . S
H106 C101 0.930 . S
C107 O108 1.224 . S
C107 O126 1.247 . S
O108 C107 1.224 . S
N109 Co99 2.128 . S
N109 C110 1.355 . S
N109 C112 1.311 . S
C110 N109 1.355 . S
C110 C111 1.363 . S
C110 H122 0.929 . S
C111 C110 1.363 . S
C111 N113 1.375 . S
C111 H129 0.931 . S
C112 N109 1.311 . S
C112 N113 1.347 . S
C112 H123 0.929 . S
N113 C111 1.375 . S
N113 C112 1.347 . S
C114 C117 1.365 . S
C114 N119 1.328 . S
C114 H120 0.929 . S
C115 C116 1.362 . S
C115 C118 1.378 . S
C115 H130 0.929 . S
C116 C115 1.362 . S
C116 C117 1.366 . S
C117 C114 1.365 . S
C117 C116 1.366 . S
C117 H131 0.930 . S
C118 C115 1.378 . S
C118 N119 1.315 . S
C118 H121 0.930 . S
N119 Co99 2.194 . S
N119 C114 1.328 . S
N119 C118 1.315 . S
H120 C114 0.929 . S
H121 C118 0.930 . S
H122 C110 0.929 . S
H123 C112 0.929 . S
O124 Co99 2.351 . S
O124 C127 1.244 . S
O125 Co99 2.155 . S
O125 C127 1.240 . S
O126 Co99 2.096 . S
O126 C107 1.247 . S
C127 O124 1.244 . S
C127 O125 1.240 . S
H128 C102 0.931 . S
H129 C111 0.931 . S
H130 C115 0.929 . S
H131 C117 0.930 . S
Co132 N136 2.148 . S
Co132 N142 2.128 . S
Co132 N152 2.194 . S
Co132 O157 2.351 . S
Co132 O158 2.155 . S
Co132 O159 2.096 . S
C133 N136 1.301 . S
C133 N137 1.328 . S
C133 H138 0.930 . S
C134 C135 1.333 . S
C134 N136 1.317 . S
C134 H139 0.930 . S
C135 C134 1.333 . S
C135 N137 1.350 . S
C135 H161 0.931 . S
N136 Co132 2.148 . S
N136 C133 1.301 . S
N136 C134 1.317 . S
N137 C133 1.328 . S
N137 C135 1.350 . S
H138 C133 0.930 . S
H139 C134 0.930 . S
C140 O141 1.224 . S
C140 O159 1.247 . S
O141 C140 1.224 . S
N142 Co132 2.128 . S
N142 C143 1.355 . S
N142 C145 1.311 . S
C143 N142 1.355 . S
C143 C144 1.363 . S
C143 H155 0.929 . S
C144 C143 1.363 . S
C144 N146 1.375 . S
C144 H162 0.931 . S
C145 N142 1.311 . S
C145 N146 1.347 . S
C145 H156 0.929 . S
N146 C144 1.375 . S
N146 C145 1.347 . S
C147 C150 1.365 . S
C147 N152 1.328 . S
C147 H153 0.929 . S
C148 C149 1.362 . S
C148 C151 1.378 . S
C148 H163 0.929 . S
C149 C148 1.362 . S
C149 C150 1.366 . S
C150 C147 1.365 . S
C150 C149 1.366 . S
C150 H164 0.930 . S
C151 C148 1.378 . S
C151 N152 1.315 . S
C151 H154 0.930 . S
N152 Co132 2.194 . S
N152 C147 1.328 . S
N152 C151 1.315 . S
H153 C147 0.929 . S
H154 C151 0.930 . S
H155 C143 0.929 . S
H156 C145 0.929 . S
O157 Co132 2.351 . S
O157 C160 1.244 . S
O158 Co132 2.155 . S
O158 C160 1.240 . S
O159 Co132 2.096 . S
O159 C140 1.247 . S
C160 O157 1.244 . S
C160 O158 1.240 . S
H161 C135 0.931 . S
H162 C144 0.931 . S
H163 C148 0.929 . S
H164 C150 0.930 . S
Co165 N169 2.148 . S
Co165 N175 2.128 . S
Co165 N185 2.194 . S
Co165 O190 2.351 . S
Co165 O191 2.155 . S
Co165 O192 2.096 . S
C166 N169 1.301 . S
C166 N170 1.328 . S
C166 H171 0.930 . S
C167 C168 1.333 . S
C167 N169 1.317 . S
C167 H172 0.930 . S
C168 C167 1.333 . S
C168 N170 1.350 . S
C168 H194 0.931 . S
N169 Co165 2.148 . S
N169 C166 1.301 . S
N169 C167 1.317 . S
N170 C166 1.328 . S
N170 C168 1.350 . S
H171 C166 0.930 . S
H172 C167 0.930 . S
C173 O174 1.224 . S
C173 O192 1.247 . S
O174 C173 1.224 . S
N175 Co165 2.128 . S
N175 C176 1.355 . S
N175 C178 1.311 . S
C176 N175 1.355 . S
C176 C177 1.363 . S
C176 H188 0.929 . S
C177 C176 1.363 . S
C177 N179 1.375 . S
C177 H195 0.931 . S
C178 N175 1.311 . S
C178 N179 1.347 . S
C178 H189 0.929 . S
N179 C177 1.375 . S
N179 C178 1.347 . S
C180 C183 1.365 . S
C180 N185 1.328 . S
C180 H186 0.929 . S
C181 C182 1.362 . S
C181 C184 1.378 . S
C181 H196 0.929 . S
C182 C181 1.362 . S
C182 C183 1.366 . S
C183 C180 1.365 . S
C183 C182 1.366 . S
C183 H197 0.930 . S
C184 C181 1.378 . S
C184 N185 1.315 . S
C184 H187 0.930 . S
N185 Co165 2.194 . S
N185 C180 1.328 . S
N185 C184 1.315 . S
H186 C180 0.929 . S
H187 C184 0.930 . S
H188 C176 0.929 . S
H189 C178 0.929 . S
O190 Co165 2.351 . S
O190 C193 1.244 . S
O191 Co165 2.155 . S
O191 C193 1.240 . S
O192 Co165 2.096 . S
O192 C173 1.247 . S
C193 O190 1.244 . S
C193 O191 1.240 . S
H194 C168 0.931 . S
H195 C177 0.931 . S
H196 C181 0.929 . S
H197 C183 0.930 . S
Co198 N202 2.148 . S
Co198 N208 2.128 . S
Co198 N218 2.194 . S
Co198 O223 2.351 . S
Co198 O224 2.155 . S
Co198 O225 2.096 . S
C199 N202 1.301 . S
C199 N203 1.328 . S
C199 H204 0.930 . S
C200 C201 1.333 . S
C200 N202 1.317 . S
C200 H205 0.930 . S
C201 C200 1.333 . S
C201 N203 1.350 . S
C201 H227 0.931 . S
N202 Co198 2.148 . S
N202 C199 1.301 . S
N202 C200 1.317 . S
N203 C199 1.328 . S
N203 C201 1.350 . S
H204 C199 0.930 . S
H205 C200 0.930 . S
C206 O207 1.224 . S
C206 O225 1.247 . S
O207 C206 1.224 . S
N208 Co198 2.128 . S
N208 C209 1.355 . S
N208 C211 1.311 . S
C209 N208 1.355 . S
C209 C210 1.363 . S
C209 H221 0.929 . S
C210 C209 1.363 . S
C210 N212 1.375 . S
C210 H228 0.931 . S
C211 N208 1.311 . S
C211 N212 1.347 . S
C211 H222 0.929 . S
N212 C210 1.375 . S
N212 C211 1.347 . S
C213 C216 1.365 . S
C213 N218 1.328 . S
C213 H219 0.929 . S
C214 C215 1.362 . S
C214 C217 1.378 . S
C214 H229 0.929 . S
C215 C214 1.362 . S
C215 C216 1.366 . S
C216 C213 1.365 . S
C216 C215 1.366 . S
C216 H230 0.930 . S
C217 C214 1.378 . S
C217 N218 1.315 . S
C217 H220 0.930 . S
N218 Co198 2.194 . S
N218 C213 1.328 . S
N218 C217 1.315 . S
H219 C213 0.929 . S
H220 C217 0.930 . S
H221 C209 0.929 . S
H222 C211 0.929 . S
O223 Co198 2.351 . S
O223 C226 1.244 . S
O224 Co198 2.155 . S
O224 C226 1.240 . S
O225 Co198 2.096 . S
O225 C206 1.247 . S
C226 O223 1.244 . S
C226 O224 1.240 . S
H227 C201 0.931 . S
H228 C210 0.931 . S
H229 C214 0.929 . S
H230 C216 0.930 . S
Co231 N235 2.148 . S
Co231 N241 2.128 . S
Co231 N251 2.194 . S
Co231 O256 2.351 . S
Co231 O257 2.155 . S
Co231 O258 2.096 . S
C232 N235 1.301 . S
C232 N236 1.328 . S
C232 H237 0.930 . S
C233 C234 1.333 . S
C233 N235 1.317 . S
C233 H238 0.930 . S
C234 C233 1.333 . S
C234 N236 1.350 . S
C234 H260 0.931 . S
N235 Co231 2.148 . S
N235 C232 1.301 . S
N235 C233 1.317 . S
N236 C232 1.328 . S
N236 C234 1.350 . S
H237 C232 0.930 . S
H238 C233 0.930 . S
C239 O240 1.224 . S
C239 O258 1.247 . S
O240 C239 1.224 . S
N241 Co231 2.128 . S
N241 C242 1.355 . S
N241 C244 1.311 . S
C242 N241 1.355 . S
C242 C243 1.363 . S
C242 H254 0.929 . S
C243 C242 1.363 . S
C243 N245 1.375 . S
C243 H261 0.931 . S
C244 N241 1.311 . S
C244 N245 1.347 . S
C244 H255 0.929 . S
N245 C243 1.375 . S
N245 C244 1.347 . S
C246 C249 1.365 . S
C246 N251 1.328 . S
C246 H252 0.929 . S
C247 C248 1.362 . S
C247 C250 1.378 . S
C247 H262 0.929 . S
C248 C247 1.362 . S
C248 C249 1.366 . S
C249 C246 1.365 . S
C249 C248 1.366 . S
C249 H263 0.930 . S
C250 C247 1.378 . S
C250 N251 1.315 . S
C250 H253 0.930 . S
N251 Co231 2.194 . S
N251 C246 1.328 . S
N251 C250 1.315 . S
H252 C246 0.929 . S
H253 C250 0.930 . S
H254 C242 0.929 . S
H255 C244 0.929 . S
O256 Co231 2.351 . S
O256 C259 1.244 . S
O257 Co231 2.155 . S
O257 C259 1.240 . S
O258 Co231 2.096 . S
O258 C239 1.247 . S
C259 O256 1.244 . S
C259 O257 1.240 . S
H260 C234 0.931 . S
H261 C243 0.931 . S
H262 C247 0.929 . S
H263 C249 0.930 . S
Co264 N268 2.148 . S
Co264 N274 2.128 . S
Co264 N284 2.194 . S
Co264 O289 2.351 . S
Co264 O290 2.155 . S
Co264 O291 2.096 . S
C265 N268 1.301 . S
C265 N269 1.328 . S
C265 H270 0.930 . S
C266 C267 1.333 . S
C266 N268 1.317 . S
C266 H271 0.930 . S
C267 C266 1.333 . S
C267 N269 1.350 . S
C267 H293 0.931 . S
N268 Co264 2.148 . S
N268 C265 1.301 . S
N268 C266 1.317 . S
N269 C265 1.328 . S
N269 C267 1.350 . S
H270 C265 0.930 . S
H271 C266 0.930 . S
C272 O273 1.224 . S
C272 O291 1.247 . S
O273 C272 1.224 . S
N274 Co264 2.128 . S
N274 C275 1.355 . S
N274 C277 1.311 . S
C275 N274 1.355 . S
C275 C276 1.363 . S
C275 H287 0.929 . S
C276 C275 1.363 . S
C276 N278 1.375 . S
C276 H294 0.931 . S
C277 N274 1.311 . S
C277 N278 1.347 . S
C277 H288 0.929 . S
N278 C276 1.375 . S
N278 C277 1.347 . S
C279 C282 1.365 . S
C279 N284 1.328 . S
C279 H285 0.929 . S
C280 C281 1.362 . S
C280 C283 1.378 . S
C280 H295 0.929 . S
C281 C280 1.362 . S
C281 C282 1.366 . S
C282 C279 1.365 . S
C282 C281 1.366 . S
C282 H296 0.930 . S
C283 C280 1.378 . S
C283 N284 1.315 . S
C283 H286 0.930 . S
N284 Co264 2.194 . S
N284 C279 1.328 . S
N284 C283 1.315 . S
H285 C279 0.929 . S
H286 C283 0.930 . S
H287 C275 0.929 . S
H288 C277 0.929 . S
O289 Co264 2.351 . S
O289 C292 1.244 . S
O290 Co264 2.155 . S
O290 C292 1.240 . S
O291 Co264 2.096 . S
O291 C272 1.247 . S
C292 O289 1.244 . S
C292 O290 1.240 . S
H293 C267 0.931 . S
H294 C276 0.931 . S
H295 C280 0.929 . S
H296 C282 0.930 . S
Co297 N301 2.148 . S
Co297 N307 2.128 . S
Co297 N317 2.194 . S
Co297 O322 2.351 . S
Co297 O323 2.155 . S
Co297 O324 2.096 . S
C298 N301 1.301 . S
C298 N302 1.328 . S
C298 H303 0.930 . S
C299 C300 1.333 . S
C299 N301 1.317 . S
C299 H304 0.930 . S
C300 C299 1.333 . S
C300 N302 1.350 . S
C300 H326 0.931 . S
N301 Co297 2.148 . S
N301 C298 1.301 . S
N301 C299 1.317 . S
N302 C298 1.328 . S
N302 C300 1.350 . S
H303 C298 0.930 . S
H304 C299 0.930 . S
C305 O306 1.224 . S
C305 O324 1.247 . S
O306 C305 1.224 . S
N307 Co297 2.128 . S
N307 C308 1.355 . S
N307 C310 1.311 . S
C308 N307 1.355 . S
C308 C309 1.363 . S
C308 H320 0.929 . S
C309 C308 1.363 . S
C309 N311 1.375 . S
C309 H327 0.931 . S
C310 N307 1.311 . S
C310 N311 1.347 . S
C310 H321 0.929 . S
N311 C309 1.375 . S
N311 C310 1.347 . S
C312 C315 1.365 . S
C312 N317 1.328 . S
C312 H318 0.929 . S
C313 C314 1.362 . S
C313 C316 1.378 . S
C313 H328 0.929 . S
C314 C313 1.362 . S
C314 C315 1.366 . S
C315 C312 1.365 . S
C315 C314 1.366 . S
C315 H329 0.930 . S
C316 C313 1.378 . S
C316 N317 1.315 . S
C316 H319 0.930 . S
N317 Co297 2.194 . S
N317 C312 1.328 . S
N317 C316 1.315 . S
H318 C312 0.929 . S
H319 C316 0.930 . S
H320 C308 0.929 . S
H321 C310 0.929 . S
O322 Co297 2.351 . S
O322 C325 1.244 . S
O323 Co297 2.155 . S
O323 C325 1.240 . S
O324 Co297 2.096 . S
O324 C305 1.247 . S
C325 O322 1.244 . S
C325 O323 1.240 . S
H326 C300 0.931 . S
H327 C309 0.931 . S
H328 C313 0.929 . S
H329 C315 0.930 . S
Co330 N334 2.148 . S
Co330 N340 2.128 . S
Co330 N350 2.194 . S
Co330 O355 2.351 . S
Co330 O356 2.155 . S
Co330 O357 2.096 . S
C331 N334 1.301 . S
C331 N335 1.328 . S
C331 H336 0.930 . S
C332 C333 1.333 . S
C332 N334 1.317 . S
C332 H337 0.930 . S
C333 C332 1.333 . S
C333 N335 1.350 . S
C333 H359 0.931 . S
N334 Co330 2.148 . S
N334 C331 1.301 . S
N334 C332 1.317 . S
N335 C331 1.328 . S
N335 C333 1.350 . S
H336 C331 0.930 . S
H337 C332 0.930 . S
C338 O339 1.224 . S
C338 O357 1.247 . S
O339 C338 1.224 . S
N340 Co330 2.128 . S
N340 C341 1.355 . S
N340 C343 1.311 . S
C341 N340 1.355 . S
C341 C342 1.363 . S
C341 H353 0.929 . S
C342 C341 1.363 . S
C342 N344 1.375 . S
C342 H360 0.931 . S
C343 N340 1.311 . S
C343 N344 1.347 . S
C343 H354 0.929 . S
N344 C342 1.375 . S
N344 C343 1.347 . S
C345 C348 1.365 . S
C345 N350 1.328 . S
C345 H351 0.929 . S
C346 C347 1.362 . S
C346 C349 1.378 . S
C346 H361 0.929 . S
C347 C346 1.362 . S
C347 C348 1.366 . S
C348 C345 1.365 . S
C348 C347 1.366 . S
C348 H362 0.930 . S
C349 C346 1.378 . S
C349 N350 1.315 . S
C349 H352 0.930 . S
N350 Co330 2.194 . S
N350 C345 1.328 . S
N350 C349 1.315 . S
H351 C345 0.929 . S
H352 C349 0.930 . S
H353 C341 0.929 . S
H354 C343 0.929 . S
O355 Co330 2.351 . S
O355 C358 1.244 . S
O356 Co330 2.155 . S
O356 C358 1.240 . S
O357 Co330 2.096 . S
O357 C338 1.247 . S
C358 O355 1.244 . S
C358 O356 1.240 . S
H359 C333 0.931 . S
H360 C342 0.931 . S
H361 C346 0.929 . S
H362 C348 0.930 . S
Co363 N367 2.148 . S
Co363 N373 2.128 . S
Co363 N383 2.194 . S
Co363 O388 2.351 . S
Co363 O389 2.155 . S
Co363 O390 2.096 . S
C364 N367 1.301 . S
C364 N368 1.328 . S
C364 H369 0.930 . S
C365 C366 1.333 . S
C365 N367 1.317 . S
C365 H370 0.930 . S
C366 C365 1.333 . S
C366 N368 1.350 . S
C366 H392 0.931 . S
N367 Co363 2.148 . S
N367 C364 1.301 . S
N367 C365 1.317 . S
N368 C364 1.328 . S
N368 C366 1.350 . S
H369 C364 0.930 . S
H370 C365 0.930 . S
C371 O372 1.224 . S
C371 O390 1.247 . S
O372 C371 1.224 . S
N373 Co363 2.128 . S
N373 C374 1.355 . S
N373 C376 1.311 . S
C374 N373 1.355 . S
C374 C375 1.363 . S
C374 H386 0.929 . S
C375 C374 1.363 . S
C375 N377 1.375 . S
C375 H393 0.931 . S
C376 N373 1.311 . S
C376 N377 1.347 . S
C376 H387 0.929 . S
N377 C375 1.375 . S
N377 C376 1.347 . S
C378 C381 1.365 . S
C378 N383 1.328 . S
C378 H384 0.929 . S
C379 C380 1.362 . S
C379 C382 1.378 . S
C379 H394 0.929 . S
C380 C379 1.362 . S
C380 C381 1.366 . S
C381 C378 1.365 . S
C381 C380 1.366 . S
C381 H395 0.930 . S
C382 C379 1.378 . S
C382 N383 1.315 . S
C382 H385 0.930 . S
N383 Co363 2.194 . S
N383 C378 1.328 . S
N383 C382 1.315 . S
H384 C378 0.929 . S
H385 C382 0.930 . S
H386 C374 0.929 . S
H387 C376 0.929 . S
O388 Co363 2.351 . S
O388 C391 1.244 . S
O389 Co363 2.155 . S
O389 C391 1.240 . S
O390 Co363 2.096 . S
O390 C371 1.247 . S
C391 O388 1.244 . S
C391 O389 1.240 . S
H392 C366 0.931 . S
H393 C375 0.931 . S
H394 C379 0.929 . S
H395 C381 0.930 . S
H396 C402 0.930 . S
H397 C406 0.930 . S
H398 C411 0.929 . S
H399 C409 0.929 . S
H400 C404 0.929 . S
H401 C410 0.929 . S
C402 H396 0.930 . S
C402 C403 1.367 . S
C402 C410 1.378 . S
C403 C402 1.367 . S
C403 C411 1.433 . S
C404 H400 0.929 . S
C404 C406 1.378 . S
C404 C408 1.350 . S
C405 C408 1.463 . S
C405 C410 1.350 . S
C405 N413 1.427 . S
C406 H397 0.930 . S
C406 C404 1.378 . S
C406 C407 1.367 . S
C407 C406 1.367 . S
C407 C409 1.433 . S
C408 C404 1.350 . S
C408 C405 1.463 . S
C408 N412 1.427 . S
C409 H399 0.929 . S
C409 C407 1.433 . S
C409 N412 1.384 . S
C410 H401 0.929 . S
C410 C402 1.378 . S
C410 C405 1.350 . S
C411 H398 0.929 . S
C411 C403 1.433 . S
C411 N413 1.384 . S
N412 C408 1.427 . S
N412 C409 1.384 . S
N413 C405 1.427 . S
N413 C411 1.384 . S
H414 C420 0.930 . S
H415 C424 0.930 . S
H416 C429 0.929 . S
H417 C427 0.929 . S
H418 C422 0.929 . S
H419 C428 0.929 . S
C420 H414 0.930 . S
C420 C421 1.367 . S
C420 C428 1.378 . S
C421 C420 1.367 . S
C421 C429 1.433 . S
C422 H418 0.929 . S
C422 C424 1.378 . S
C422 C426 1.350 . S
C423 C426 1.463 1_655 S
C423 C428 1.350 . S
C423 N431 1.427 . S
C424 H415 0.930 . S
C424 C422 1.378 . S
C424 C425 1.367 . S
C425 C424 1.367 . S
C425 C427 1.433 . S
C426 C422 1.350 . S
C426 C423 1.463 1_455 S
C426 N430 1.427 . S
C427 H417 0.929 . S
C427 C425 1.433 . S
C427 N430 1.384 . S
C428 H419 0.929 . S
C428 C420 1.378 . S
C428 C423 1.350 . S
C429 H416 0.929 . S
C429 C421 1.433 . S
C429 N431 1.384 . S
N430 C426 1.427 . S
N430 C427 1.384 . S
N431 C423 1.427 . S
N431 C429 1.384 . S
H432 C438 0.930 . S
H433 C442 0.930 . S
H434 C447 0.929 . S
H435 C445 0.929 . S
H436 C440 0.929 . S
H437 C446 0.929 . S
C438 H432 0.930 . S
C438 C439 1.367 . S
C438 C446 1.378 . S
C439 C438 1.367 . S
C439 C447 1.433 . S
C440 H436 0.929 . S
C440 C442 1.378 . S
C440 C444 1.350 . S
C441 C444 1.463 1_545 S
C441 C446 1.350 . S
C441 N449 1.427 . S
C442 H433 0.930 . S
C442 C440 1.378 . S
C442 C443 1.367 . S
C443 C442 1.367 . S
C443 C445 1.433 . S
C444 C440 1.350 . S
C444 C441 1.463 1_565 S
C444 N448 1.427 . S
C445 H435 0.929 . S
C445 C443 1.433 . S
C445 N448 1.384 . S
C446 H437 0.929 . S
C446 C438 1.378 . S
C446 C441 1.350 . S
C447 H434 0.929 . S
C447 C439 1.433 . S
C447 N449 1.384 . S
N448 C444 1.427 . S
N448 C445 1.384 . S
N449 C441 1.427 . S
N449 C447 1.384 . S
H450 C456 0.930 . S
H451 C460 0.930 . S
H452 C465 0.929 . S
H453 C463 0.929 . S
H454 C458 0.929 . S
H455 C464 0.929 . S
C456 H450 0.930 . S
C456 C457 1.367 . S
C456 C464 1.378 . S
C457 C456 1.367 . S
C457 C465 1.433 . S
C458 H454 0.929 . S
C458 C460 1.378 . S
C458 C462 1.350 . S
C459 C462 1.463 . S
C459 C464 1.350 . S
C459 N467 1.427 . S
C460 H451 0.930 . S
C460 C458 1.378 . S
C460 C461 1.367 . S
C461 C460 1.367 . S
C461 C463 1.433 . S
C462 C458 1.350 . S
C462 C459 1.463 . S
C462 N466 1.427 . S
C463 H453 0.929 . S
C463 C461 1.433 . S
C463 N466 1.384 . S
C464 H455 0.929 . S
C464 C456 1.378 . S
C464 C459 1.350 . S
C465 H452 0.929 . S
C465 C457 1.433 . S
C465 N467 1.384 . S
N466 C462 1.427 . S
N466 C463 1.384 . S
N467 C459 1.427 . S
N467 C465 1.384 . S
H468 C474 0.930 . S
H469 C478 0.930 . S
H470 C483 0.929 . S
H471 C481 0.929 . S
H472 C476 0.929 . S
H473 C482 0.929 . S
C474 H468 0.930 . S
C474 C475 1.367 . S
C474 C482 1.378 . S
C475 C474 1.367 . S
C475 C483 1.433 . S
C476 H472 0.929 . S
C476 C478 1.378 . S
C476 C480 1.350 . S
C477 C480 1.463 1_455 S
C477 C482 1.350 . S
C477 N485 1.427 . S
C478 H469 0.930 . S
C478 C476 1.378 . S
C478 C479 1.367 . S
C479 C478 1.367 . S
C479 C481 1.433 . S
C480 C476 1.350 . S
C480 C477 1.463 1_655 S
C480 N484 1.427 . S
C481 H471 0.929 . S
C481 C479 1.433 . S
C481 N484 1.384 . S
C482 H473 0.929 . S
C482 C474 1.378 . S
C482 C477 1.350 . S
C483 H470 0.929 . S
C483 C475 1.433 . S
C483 N485 1.384 . S
N484 C480 1.427 . S
N484 C481 1.384 . S
N485 C477 1.427 . S
N485 C483 1.384 . S
H486 C492 0.930 . S
H487 C496 0.930 . S
H488 C501 0.929 . S
H489 C499 0.929 . S
H490 C494 0.929 . S
H491 C500 0.929 . S
C492 H486 0.930 . S
C492 C493 1.367 . S
C492 C500 1.378 . S
C493 C492 1.367 . S
C493 C501 1.433 . S
C494 H490 0.929 . S
C494 C496 1.378 . S
C494 C498 1.350 . S
C495 C498 1.463 1_565 S
C495 C500 1.350 . S
C495 N503 1.427 . S
C496 H487 0.930 . S
C496 C494 1.378 . S
C496 C497 1.367 . S
C497 C496 1.367 . S
C497 C499 1.433 . S
C498 C494 1.350 . S
C498 C495 1.463 1_545 S
C498 N502 1.427 . S
C499 H489 0.929 . S
C499 C497 1.433 . S
C499 N502 1.384 . S
C500 H491 0.929 . S
C500 C492 1.378 . S
C500 C495 1.350 . S
C501 H488 0.929 . S
C501 C493 1.433 . S
C501 N503 1.384 . S
N502 C498 1.427 . S
N502 C499 1.384 . S
N503 C495 1.427 . S
N503 C501 1.384 . S
H504 C510 0.930 . S
H505 C514 0.930 . S
H506 C519 0.929 . S
H507 C517 0.929 . S
H508 C512 0.929 . S
H509 C518 0.929 . S
C510 H504 0.930 . S
C510 C511 1.367 . S
C510 C518 1.378 . S
C511 C510 1.367 . S
C511 C519 1.433 . S
C512 H508 0.929 . S
C512 C514 1.378 . S
C512 C516 1.350 . S
C513 C516 1.463 1_556 S
C513 C518 1.350 . S
C513 N521 1.427 . S
C514 H505 0.930 . S
C514 C512 1.378 . S
C514 C515 1.367 . S
C515 C514 1.367 . S
C515 C517 1.433 . S
C516 C512 1.350 . S
C516 C513 1.463 1_554 S
C516 N520 1.427 . S
C517 H507 0.929 . S
C517 C515 1.433 . S
C517 N520 1.384 . S
C518 H509 0.929 . S
C518 C510 1.378 . S
C518 C513 1.350 . S
C519 H506 0.929 . S
C519 C511 1.433 . S
C519 N521 1.384 . S
N520 C516 1.427 . S
N520 C517 1.384 . S
N521 C513 1.427 . S
N521 C519 1.384 . S
H522 C528 0.930 . S
H523 C532 0.930 . S
H524 C537 0.929 . S
H525 C535 0.929 . S
H526 C530 0.929 . S
H527 C536 0.929 . S
C528 H522 0.930 . S
C528 C529 1.367 . S
C528 C536 1.378 . S
C529 C528 1.367 . S
C529 C537 1.433 . S
C530 H526 0.929 . S
C530 C532 1.378 . S
C530 C534 1.350 . S
C531 C534 1.463 . S
C531 C536 1.350 . S
C531 N539 1.427 . S
C532 H523 0.930 . S
C532 C530 1.378 . S
C532 C533 1.367 . S
C533 C532 1.367 . S
C533 C535 1.433 . S
C534 C530 1.350 . S
C534 C531 1.463 . S
C534 N538 1.427 . S
C535 H525 0.929 . S
C535 C533 1.433 . S
C535 N538 1.384 . S
C536 H527 0.929 . S
C536 C528 1.378 . S
C536 C531 1.350 . S
C537 H524 0.929 . S
C537 C529 1.433 . S
C537 N539 1.384 . S
N538 C534 1.427 . S
N538 C535 1.384 . S
N539 C531 1.427 . S
N539 C537 1.384 . S
H540 C546 0.930 . S
H541 C550 0.930 . S
H542 C555 0.929 . S
H543 C553 0.929 . S
H544 C548 0.929 . S
H545 C554 0.929 . S
C546 H540 0.930 . S
C546 C547 1.367 . S
C546 C554 1.378 . S
C547 C546 1.367 . S
C547 C555 1.433 . S
C548 H544 0.929 . S
C548 C550 1.378 . S
C548 C552 1.350 . S
C549 C552 1.463 1_554 S
C549 C554 1.350 . S
C549 N557 1.427 . S
C550 H541 0.930 . S
C550 C548 1.378 . S
C550 C551 1.367 . S
C551 C550 1.367 . S
C551 C553 1.433 . S
C552 C548 1.350 . S
C552 C549 1.463 1_556 S
C552 N556 1.427 . S
C553 H543 0.929 . S
C553 C551 1.433 . S
C553 N556 1.384 . S
C554 H545 0.929 . S
C554 C546 1.378 . S
C554 C549 1.350 . S
C555 H542 0.929 . S
C555 C547 1.433 . S
C555 N557 1.384 . S
N556 C552 1.427 . S
N556 C553 1.384 . S
N557 C549 1.427 . S
N557 C555 1.384 . S
H558 C564 0.930 . S
H559 C568 0.930 . S
H560 C573 0.929 . S
H561 C571 0.929 . S
H562 C566 0.929 . S
H563 C572 0.929 . S
C564 H558 0.930 . S
C564 C565 1.367 . S
C564 C572 1.378 . S
C565 C564 1.367 . S
C565 C573 1.433 . S
C566 H562 0.929 . S
C566 C568 1.378 . S
C566 C570 1.350 . S
C567 C570 1.463 . S
C567 C572 1.350 . S
C567 N575 1.427 . S
C568 H559 0.930 . S
C568 C566 1.378 . S
C568 C569 1.367 . S
C569 C568 1.367 . S
C569 C571 1.433 . S
C570 C566 1.350 . S
C570 C567 1.463 . S
C570 N574 1.427 . S
C571 H561 0.929 . S
C571 C569 1.433 . S
C571 N574 1.384 . S
C572 H563 0.929 . S
C572 C564 1.378 . S
C572 C567 1.350 . S
C573 H560 0.929 . S
C573 C565 1.433 . S
C573 N575 1.384 . S
N574 C570 1.427 . S
N574 C571 1.384 . S
N575 C567 1.427 . S
N575 C573 1.384 . S
H576 C582 0.930 . S
H577 C586 0.930 . S
H578 C591 0.929 . S
H579 C589 0.929 . S
H580 C584 0.929 . S
H581 C590 0.929 . S
C582 H576 0.930 . S
C582 C583 1.367 . S
C582 C590 1.378 . S
C583 C582 1.367 . S
C583 C591 1.433 . S
C584 H580 0.929 . S
C584 C586 1.378 . S
C584 C588 1.350 . S
C585 C588 1.463 1_556 S
C585 C590 1.350 . S
C585 N593 1.427 . S
C586 H577 0.930 . S
C586 C584 1.378 . S
C586 C587 1.367 . S
C587 C586 1.367 . S
C587 C589 1.433 . S
C588 C584 1.350 . S
C588 C585 1.463 1_554 S
C588 N592 1.427 . S
C589 H579 0.929 . S
C589 C587 1.433 . S
C589 N592 1.384 . S
C590 H581 0.929 . S
C590 C582 1.378 . S
C590 C585 1.350 . S
C591 H578 0.929 . S
C591 C583 1.433 . S
C591 N593 1.384 . S
N592 C588 1.427 . S
N592 C589 1.384 . S
N593 C585 1.427 . S
N593 C591 1.384 . S
H594 C600 0.930 . S
H595 C604 0.930 . S
H596 C609 0.929 . S
H597 C607 0.929 . S
H598 C602 0.929 . S
H599 C608 0.929 . S
C600 H594 0.930 . S
C600 C601 1.367 . S
C600 C608 1.378 . S
C601 C600 1.367 . S
C601 C609 1.433 . S
C602 H598 0.929 . S
C602 C604 1.378 . S
C602 C606 1.350 . S
C603 C606 1.463 . S
C603 C608 1.350 . S
C603 N611 1.427 . S
C604 H595 0.930 . S
C604 C602 1.378 . S
C604 C605 1.367 . S
C605 C604 1.367 . S
C605 C607 1.433 . S
C606 C602 1.350 . S
C606 C603 1.463 . S
C606 N610 1.427 . S
C607 H597 0.929 . S
C607 C605 1.433 . S
C607 N610 1.384 . S
C608 H599 0.929 . S
C608 C600 1.378 . S
C608 C603 1.350 . S
C609 H596 0.929 . S
C609 C601 1.433 . S
C609 N611 1.384 . S
N610 C606 1.427 . S
N610 C607 1.384 . S
N611 C603 1.427 . S
N611 C609 1.384 . S
H612 C618 0.930 . S
H613 C622 0.930 . S
H614 C627 0.929 . S
H615 C625 0.929 . S
H616 C620 0.929 . S
H617 C626 0.929 . S
C618 H612 0.930 . S
C618 C619 1.367 . S
C618 C626 1.378 . S
C619 C618 1.367 . S
C619 C627 1.433 . S
C620 H616 0.929 . S
C620 C622 1.378 . S
C620 C624 1.350 . S
C621 C624 1.463 1_554 S
C621 C626 1.350 . S
C621 N629 1.427 . S
C622 H613 0.930 . S
C622 C620 1.378 . S
C622 C623 1.367 . S
C623 C622 1.367 . S
C623 C625 1.433 . S
C624 C620 1.350 . S
C624 C621 1.463 1_556 S
C624 N628 1.427 . S
C625 H615 0.929 . S
C625 C623 1.433 . S
C625 N628 1.384 . S
C626 H617 0.929 . S
C626 C618 1.378 . S
C626 C621 1.350 . S
C627 H614 0.929 . S
C627 C619 1.433 . S
C627 N629 1.384 . S
N628 C624 1.427 . S
N628 C625 1.384 . S
N629 C621 1.427 . S
N629 C627 1.384 . S
H630 C636 0.930 . S
H631 C640 0.930 . S
H632 C645 0.929 . S
H633 C643 0.929 . S
H634 C638 0.929 . S
H635 C644 0.929 . S
C636 H630 0.930 . S
C636 C637 1.367 . S
C636 C644 1.378 . S
C637 C636 1.367 . S
C637 C645 1.433 . S
C638 H634 0.929 . S
C638 C640 1.378 . S
C638 C642 1.350 . S
C639 C642 1.463 . S
C639 C644 1.350 . S
C639 N647 1.427 . S
C640 H631 0.930 . S
C640 C638 1.378 . S
C640 C641 1.367 . S
C641 C640 1.367 . S
C641 C643 1.433 . S
C642 C638 1.350 . S
C642 C639 1.463 . S
C642 N646 1.427 . S
C643 H633 0.929 . S
C643 C641 1.433 . S
C643 N646 1.384 . S
C644 H635 0.929 . S
C644 C636 1.378 . S
C644 C639 1.350 . S
C645 H632 0.929 . S
C645 C637 1.433 . S
C645 N647 1.384 . S
N646 C642 1.427 . S
N646 C643 1.384 . S
N647 C639 1.427 . S
N647 C645 1.384 . S
H648 C654 0.930 . S
H649 C658 0.930 . S
H650 C663 0.929 . S
H651 C661 0.929 . S
H652 C656 0.929 . S
H653 C662 0.929 . S
C654 H648 0.930 . S
C654 C655 1.367 . S
C654 C662 1.378 . S
C655 C654 1.367 . S
C655 C663 1.433 . S
C656 H652 0.929 . S
C656 C658 1.378 . S
C656 C660 1.350 . S
C657 C660 1.463 1_556 S
C657 C662 1.350 . S
C657 N665 1.427 . S
C658 H649 0.930 . S
C658 C656 1.378 . S
C658 C659 1.367 . S
C659 C658 1.367 . S
C659 C661 1.433 . S
C660 C656 1.350 . S
C660 C657 1.463 1_554 S
C660 N664 1.427 . S
C661 H651 0.929 . S
C661 C659 1.433 . S
C661 N664 1.384 . S
C662 H653 0.929 . S
C662 C654 1.378 . S
C662 C657 1.350 . S
C663 H650 0.929 . S
C663 C655 1.433 . S
C663 N665 1.384 . S
N664 C660 1.427 . S
N664 C661 1.384 . S
N665 C657 1.427 . S
N665 C663 1.384 . S
H666 C672 0.930 . S
H667 C676 0.930 . S
H668 C681 0.929 . S
H669 C679 0.929 . S
H670 C674 0.929 . S
H671 C680 0.929 . S
C672 H666 0.930 . S
C672 C673 1.367 . S
C672 C680 1.378 . S
C673 C672 1.367 . S
C673 C681 1.433 . S
C674 H670 0.929 . S
C674 C676 1.378 . S
C674 C678 1.350 . S
C675 C678 1.463 . S
C675 C680 1.350 . S
C675 N683 1.427 . S
C676 H667 0.930 . S
C676 C674 1.378 . S
C676 C677 1.367 . S
C677 C676 1.367 . S
C677 C679 1.433 . S
C678 C674 1.350 . S
C678 C675 1.463 . S
C678 N682 1.427 . S
C679 H669 0.929 . S
C679 C677 1.433 . S
C679 N682 1.384 . S
C680 H671 0.929 . S
C680 C672 1.378 . S
C680 C675 1.350 . S
C681 H668 0.929 . S
C681 C673 1.433 . S
C681 N683 1.384 . S
N682 C678 1.427 . S
N682 C679 1.384 . S
N683 C675 1.427 . S
N683 C681 1.384 . S
H684 C690 0.930 . S
H685 C694 0.930 . S
H686 C699 0.929 . S
H687 C697 0.929 . S
H688 C692 0.929 . S
H689 C698 0.929 . S
C690 H684 0.930 . S
C690 C691 1.367 . S
C690 C698 1.378 . S
C691 C690 1.367 . S
C691 C699 1.433 . S
C692 H688 0.929 . S
C692 C694 1.378 . S
C692 C696 1.350 . S
C693 C696 1.463 1_556 S
C693 C698 1.350 . S
C693 N701 1.427 . S
C694 H685 0.930 . S
C694 C692 1.378 . S
C694 C695 1.367 . S
C695 C694 1.367 . S
C695 C697 1.433 . S
C696 C692 1.350 . S
C696 C693 1.463 1_554 S
C696 N700 1.427 . S
C697 H687 0.929 . S
C697 C695 1.433 . S
C697 N700 1.384 . S
C698 H689 0.929 . S
C698 C690 1.378 . S
C698 C693 1.350 . S
C699 H686 0.929 . S
C699 C691 1.433 . S
C699 N701 1.384 . S
N700 C696 1.427 . S
N700 C697 1.384 . S
N701 C693 1.427 . S
N701 C699 1.384 . S
H702 C708 0.930 . S
H703 C712 0.930 . S
H704 C717 0.929 . S
H705 C715 0.929 . S
H706 C710 0.929 . S
H707 C716 0.929 . S
C708 H702 0.930 . S
C708 C709 1.367 . S
C708 C716 1.378 . S
C709 C708 1.367 . S
C709 C717 1.433 . S
C710 H706 0.929 . S
C710 C712 1.378 . S
C710 C714 1.350 . S
C711 C714 1.463 . S
C711 C716 1.350 . S
C711 N719 1.427 . S
C712 H703 0.930 . S
C712 C710 1.378 . S
C712 C713 1.367 . S
C713 C712 1.367 . S
C713 C715 1.433 . S
C714 C710 1.350 . S
C714 C711 1.463 . S
C714 N718 1.427 . S
C715 H705 0.929 . S
C715 C713 1.433 . S
C715 N718 1.384 . S
C716 H707 0.929 . S
C716 C708 1.378 . S
C716 C711 1.350 . S
C717 H704 0.929 . S
C717 C709 1.433 . S
C717 N719 1.384 . S
N718 C714 1.427 . S
N718 C715 1.384 . S
N719 C711 1.427 . S
N719 C717 1.384 . S
H720 C726 0.930 . S
H721 C730 0.930 . S
H722 C735 0.929 . S
H723 C733 0.929 . S
H724 C728 0.929 . S
H725 C734 0.929 . S
C726 H720 0.930 . S
C726 C727 1.367 . S
C726 C734 1.378 . S
C727 C726 1.367 . S
C727 C735 1.433 . S
C728 H724 0.929 . S
C728 C730 1.378 . S
C728 C732 1.350 . S
C729 C732 1.463 . S
C729 C734 1.350 . S
C729 N737 1.427 . S
C730 H721 0.930 . S
C730 C728 1.378 . S
C730 C731 1.367 . S
C731 C730 1.367 . S
C731 C733 1.433 . S
C732 C728 1.350 . S
C732 C729 1.463 . S
C732 N736 1.427 . S
C733 H723 0.929 . S
C733 C731 1.433 . S
C733 N736 1.384 . S
C734 H725 0.929 . S
C734 C726 1.378 . S
C734 C729 1.350 . S
C735 H722 0.929 . S
C735 C727 1.433 . S
C735 N737 1.384 . S
N736 C732 1.427 . S
N736 C733 1.384 . S
N737 C729 1.427 . S
N737 C735 1.384 . S
H738 C744 0.930 . S
H739 C748 0.930 . S
H740 C753 0.929 . S
H741 C751 0.929 . S
H742 C746 0.929 . S
H743 C752 0.929 . S
C744 H738 0.930 . S
C744 C745 1.367 . S
C744 C752 1.378 . S
C745 C744 1.367 . S
C745 C753 1.433 . S
C746 H742 0.929 . S
C746 C748 1.378 . S
C746 C750 1.350 . S
C747 C750 1.463 . S
C747 C752 1.350 . S
C747 N755 1.427 . S
C748 H739 0.930 . S
C748 C746 1.378 . S
C748 C749 1.367 . S
C749 C748 1.367 . S
C749 C751 1.433 . S
C750 C746 1.350 . S
C750 C747 1.463 . S
C750 N754 1.427 . S
C751 H741 0.929 . S
C751 C749 1.433 . S
C751 N754 1.384 . S
C752 H743 0.929 . S
C752 C744 1.378 . S
C752 C747 1.350 . S
C753 H740 0.929 . S
C753 C745 1.433 . S
C753 N755 1.384 . S
N754 C750 1.427 . S
N754 C751 1.384 . S
N755 C747 1.427 . S
N755 C753 1.384 . S
H756 C762 0.930 . S
H757 C766 0.930 . S
H758 C771 0.929 . S
H759 C769 0.929 . S
H760 C764 0.929 . S
H761 C770 0.929 . S
C762 H756 0.930 . S
C762 C763 1.367 . S
C762 C770 1.378 . S
C763 C762 1.367 . S
C763 C771 1.433 . S
C764 H760 0.929 . S
C764 C766 1.378 . S
C764 C768 1.350 . S
C765 C768 1.463 . S
C765 C770 1.350 . S
C765 N773 1.427 . S
C766 H757 0.930 . S
C766 C764 1.378 . S
C766 C767 1.367 . S
C767 C766 1.367 . S
C767 C769 1.433 . S
C768 C764 1.350 . S
C768 C765 1.463 . S
C768 N772 1.427 . S
C769 H759 0.929 . S
C769 C767 1.433 . S
C769 N772 1.384 . S
C770 H761 0.929 . S
C770 C762 1.378 . S
C770 C765 1.350 . S
C771 H758 0.929 . S
C771 C763 1.433 . S
C771 N773 1.384 . S
N772 C768 1.427 . S
N772 C769 1.384 . S
N773 C765 1.427 . S
N773 C771 1.384 . S
H774 C780 0.930 . S
H775 C784 0.930 . S
H776 C789 0.929 . S
H777 C787 0.929 . S
H778 C782 0.929 . S
H779 C788 0.929 . S
C780 H774 0.930 . S
C780 C781 1.367 . S
C780 C788 1.378 . S
C781 C780 1.367 . S
C781 C789 1.433 . S
C782 H778 0.929 . S
C782 C784 1.378 . S
C782 C786 1.350 . S
C783 C786 1.463 . S
C783 C788 1.350 . S
C783 N791 1.427 . S
C784 H775 0.930 . S
C784 C782 1.378 . S
C784 C785 1.367 . S
C785 C784 1.367 . S
C785 C787 1.433 . S
C786 C782 1.350 . S
C786 C783 1.463 . S
C786 N790 1.427 . S
C787 H777 0.929 . S
C787 C785 1.433 . S
C787 N790 1.384 . S
C788 H779 0.929 . S
C788 C780 1.378 . S
C788 C783 1.350 . S
C789 H776 0.929 . S
C789 C781 1.433 . S
C789 N791 1.384 . S
N790 C786 1.427 . S
N790 C787 1.384 . S
N791 C783 1.427 . S
N791 C789 1.384 . S
H792 C798 0.930 . S
H793 C802 0.930 . S
H794 C807 0.929 . S
H795 C805 0.929 . S
H796 C800 0.929 . S
H797 C806 0.929 . S
C798 H792 0.930 . S
C798 C799 1.367 . S
C798 C806 1.378 . S
C799 C798 1.367 . S
C799 C807 1.433 . S
C800 H796 0.929 . S
C800 C802 1.378 . S
C800 C804 1.350 . S
C801 C804 1.463 . S
C801 C806 1.350 . S
C801 N809 1.427 . S
C802 H793 0.930 . S
C802 C800 1.378 . S
C802 C803 1.367 . S
C803 C802 1.367 . S
C803 C805 1.433 . S
C804 C800 1.350 . S
C804 C801 1.463 . S
C804 N808 1.427 . S
C805 H795 0.929 . S
C805 C803 1.433 . S
C805 N808 1.384 . S
C806 H797 0.929 . S
C806 C798 1.378 . S
C806 C801 1.350 . S
C807 H794 0.929 . S
C807 C799 1.433 . S
C807 N809 1.384 . S
N808 C804 1.427 . S
N808 C805 1.384 . S
N809 C801 1.427 . S
N809 C807 1.384 . S
H810 C816 0.930 . S
H811 C820 0.930 . S
H812 C825 0.929 . S
H813 C823 0.929 . S
H814 C818 0.929 . S
H815 C824 0.929 . S
C816 H810 0.930 . S
C816 C817 1.367 . S
C816 C824 1.378 . S
C817 C816 1.367 . S
C817 C825 1.433 . S
C818 H814 0.929 . S
C818 C820 1.378 . S
C818 C822 1.350 . S
C819 C822 1.463 . S
C819 C824 1.350 . S
C819 N827 1.427 . S
C820 H811 0.930 . S
C820 C818 1.378 . S
C820 C821 1.367 . S
C821 C820 1.367 . S
C821 C823 1.433 . S
C822 C818 1.350 . S
C822 C819 1.463 . S
C822 N826 1.427 . S
C823 H813 0.929 . S
C823 C821 1.433 . S
C823 N826 1.384 . S
C824 H815 0.929 . S
C824 C816 1.378 . S
C824 C819 1.350 . S
C825 H812 0.929 . S
C825 C817 1.433 . S
C825 N827 1.384 . S
N826 C822 1.427 . S
N826 C823 1.384 . S
N827 C819 1.427 . S
N827 C825 1.384 . S
H828 C834 0.930 . S
H829 C838 0.930 . S
H830 C843 0.929 . S
H831 C841 0.929 . S
H832 C836 0.929 . S
H833 C842 0.929 . S
C834 H828 0.930 . S
C834 C835 1.367 . S
C834 C842 1.378 . S
C835 C834 1.367 . S
C835 C843 1.433 . S
C836 H832 0.929 . S
C836 C838 1.378 . S
C836 C840 1.350 . S
C837 C840 1.463 . S
C837 C842 1.350 . S
C837 N845 1.427 . S
C838 H829 0.930 . S
C838 C836 1.378 . S
C838 C839 1.367 . S
C839 C838 1.367 . S
C839 C841 1.433 . S
C840 C836 1.350 . S
C840 C837 1.463 . S
C840 N844 1.427 . S
C841 H831 0.929 . S
C841 C839 1.433 . S
C841 N844 1.384 . S
C842 H833 0.929 . S
C842 C834 1.378 . S
C842 C837 1.350 . S
C843 H830 0.929 . S
C843 C835 1.433 . S
C843 N845 1.384 . S
N844 C840 1.427 . S
N844 C841 1.384 . S
N845 C837 1.427 . S
N845 C843 1.384 . S
H846 C852 0.930 . S
H847 C856 0.930 . S
H848 C861 0.929 . S
H849 C859 0.929 . S
H850 C854 0.929 . S
H851 C860 0.929 . S
C852 H846 0.930 . S
C852 C853 1.367 . S
C852 C860 1.378 . S
C853 C852 1.367 . S
C853 C861 1.433 . S
C854 H850 0.929 . S
C854 C856 1.378 . S
C854 C858 1.350 . S
C855 C858 1.463 . S
C855 C860 1.350 . S
C855 N863 1.427 . S
C856 H847 0.930 . S
C856 C854 1.378 . S
C856 C857 1.367 . S
C857 C856 1.367 . S
C857 C859 1.433 . S
C858 C854 1.350 . S
C858 C855 1.463 . S
C858 N862 1.427 . S
C859 H849 0.929 . S
C859 C857 1.433 . S
C859 N862 1.384 . S
C860 H851 0.929 . S
C860 C852 1.378 . S
C860 C855 1.350 . S
C861 H848 0.929 . S
C861 C853 1.433 . S
C861 N863 1.384 . S
N862 C858 1.427 . S
N862 C859 1.384 . S
N863 C855 1.427 . S
N863 C861 1.384 . S
H864 C870 0.930 . S
H865 C874 0.930 . S
H866 C879 0.929 . S
H867 C877 0.929 . S
H868 C872 0.929 . S
H869 C878 0.929 . S
C870 H864 0.930 . S
C870 C871 1.367 . S
C870 C878 1.378 . S
C871 C870 1.367 . S
C871 C879 1.433 . S
C872 H868 0.929 . S
C872 C874 1.378 . S
C872 C876 1.350 . S
C873 C876 1.463 . S
C873 C878 1.350 . S
C873 N881 1.427 . S
C874 H865 0.930 . S
C874 C872 1.378 . S
C874 C875 1.367 . S
C875 C874 1.367 . S
C875 C877 1.433 . S
C876 C872 1.350 . S
C876 C873 1.463 . S
C876 N880 1.427 . S
C877 H867 0.929 . S
C877 C875 1.433 . S
C877 N880 1.384 . S
C878 H869 0.929 . S
C878 C870 1.378 . S
C878 C873 1.350 . S
C879 H866 0.929 . S
C879 C871 1.433 . S
C879 N881 1.384 . S
N880 C876 1.427 . S
N880 C877 1.384 . S
N881 C873 1.427 . S
N881 C879 1.384 . S
H882 C888 0.930 . S
H883 C892 0.930 . S
H884 C897 0.929 . S
H885 C895 0.929 . S
H886 C890 0.929 . S
H887 C896 0.929 . S
C888 H882 0.930 . S
C888 C889 1.367 . S
C888 C896 1.378 . S
C889 C888 1.367 . S
C889 C897 1.433 . S
C890 H886 0.929 . S
C890 C892 1.378 . S
C890 C894 1.350 . S
C891 C894 1.463 . S
C891 C896 1.350 . S
C891 N899 1.427 . S
C892 H883 0.930 . S
C892 C890 1.378 . S
C892 C893 1.367 . S
C893 C892 1.367 . S
C893 C895 1.433 . S
C894 C890 1.350 . S
C894 C891 1.463 . S
C894 N898 1.427 . S
C895 H885 0.929 . S
C895 C893 1.433 . S
C895 N898 1.384 . S
C896 H887 0.929 . S
C896 C888 1.378 . S
C896 C891 1.350 . S
C897 H884 0.929 . S
C897 C889 1.433 . S
C897 N899 1.384 . S
N898 C894 1.427 . S
N898 C895 1.384 . S
N899 C891 1.427 . S
N899 C897 1.384 . S
H900 C906 0.930 . S
H901 C910 0.930 . S
H902 C915 0.929 . S
H903 C913 0.929 . S
H904 C908 0.929 . S
H905 C914 0.929 . S
C906 H900 0.930 . S
C906 C907 1.367 . S
C906 C914 1.378 . S
C907 C906 1.367 . S
C907 C915 1.433 . S
C908 H904 0.929 . S
C908 C910 1.378 . S
C908 C912 1.350 . S
C909 C912 1.463 . S
C909 C914 1.350 . S
C909 N917 1.427 . S
C910 H901 0.930 . S
C910 C908 1.378 . S
C910 C911 1.367 . S
C911 C910 1.367 . S
C911 C913 1.433 . S
C912 C908 1.350 . S
C912 C909 1.463 . S
C912 N916 1.427 . S
C913 H903 0.929 . S
C913 C911 1.433 . S
C913 N916 1.384 . S
C914 H905 0.929 . S
C914 C906 1.378 . S
C914 C909 1.350 . S
C915 H902 0.929 . S
C915 C907 1.433 . S
C915 N917 1.384 . S
N916 C912 1.427 . S
N916 C913 1.384 . S
N917 C909 1.427 . S
N917 C915 1.384 . S
H918 C924 0.930 . S
H919 C928 0.930 . S
H920 C933 0.929 . S
H921 C931 0.929 . S
H922 C926 0.929 . S
H923 C932 0.929 . S
C924 H918 0.930 . S
C924 C925 1.367 . S
C924 C932 1.378 . S
C925 C924 1.367 . S
C925 C933 1.433 . S
C926 H922 0.929 . S
C926 C928 1.378 . S
C926 C930 1.350 . S
C927 C930 1.463 . S
C927 C932 1.350 . S
C927 N935 1.427 . S
C928 H919 0.930 . S
C928 C926 1.378 . S
C928 C929 1.367 . S
C929 C928 1.367 . S
C929 C931 1.433 . S
C930 C926 1.350 . S
C930 C927 1.463 . S
C930 N934 1.427 . S
C931 H921 0.929 . S
C931 C929 1.433 . S
C931 N934 1.384 . S
C932 H923 0.929 . S
C932 C924 1.378 . S
C932 C927 1.350 . S
C933 H920 0.929 . S
C933 C925 1.433 . S
C933 N935 1.384 . S
N934 C930 1.427 . S
N934 C931 1.384 . S
N935 C927 1.427 . S
N935 C933 1.384 . S
C403 N302 1.698 . S
C407 N5 1.684 . S
C421 N38 1.694 . S
C425 N335 1.694 . S
C439 N368 1.699 . S
C443 N71 1.686 . S
C457 N104 1.692 . S
C461 N203 1.685 . S
C475 N137 1.688 . S
C479 N236 1.689 . S
C493 N269 1.684 . S
C497 N170 1.694 . S
C511 C347 1.080 . S
C515 C17 1.093 . S
C529 C380 1.087 . S
C533 C50 1.077 . S
C547 C83 1.092 . S
C551 C215 1.080 . S
C565 C248 1.093 . S
C569 C116 1.081 . S
C583 C281 1.089 . S
C587 C149 1.078 . S
C601 C182 1.084 . S
C605 C314 1.076 . S
C619 C259 1.525 . S
C623 C127 1.535 . S
C637 C292 1.533 . S
C641 C160 1.529 . S
C655 C193 1.535 . S
C659 C325 1.520 . S
C673 C28 1.534 . S
C677 C358 1.520 . S
C691 C61 1.536 . S
C695 C391 1.524 . S
C709 C226 1.536 . S
C713 C94 1.523 . S
C727 N14 1.447 . S
C731 C140 1.450 . S
C745 N47 1.446 . S
C749 C173 1.448 . S
C763 N80 1.446 . S
C767 C8 1.448 . S
C781 C41 1.448 . S
C785 N113 1.448 . S
C799 N146 1.447 . S
C803 C74 1.449 . S
C817 C107 1.449 . S
C821 N179 1.449 . S
C835 C272 1.449 . S
C839 N212 1.449 . S
C853 C305 1.449 . S
C857 N245 1.448 . S
C871 C338 1.448 . S
C875 N278 1.448 . S
C889 N311 1.447 . S
C893 C371 1.450 . S
C907 C206 1.448 . S
C911 N344 1.445 . S
C925 N377 1.446 . S
C929 C239 1.449 . S
