# Generated by pormake.
# Topology wna, (6)-cn, num edge types: 1
# Building blocks:
#     Node 0, Type 0, BuildingBlock: BETGAK_clean_sbu_0, # of connection points: 6
#     Node 1, Type 0, BuildingBlock: BETGAK_clean_sbu_0, # of connection points: 6
#     Node 2, Type 0, BuildingBlock: BETGAK_clean_sbu_0, # of connection points: 6
#     Node 3, Type 0, BuildingBlock: BETGAK_clean_sbu_0, # of connection points: 6
#     Node 4, Type 0, BuildingBlock: BETGAK_clean_sbu_0, # of connection points: 6
#     Node 5, Type 0, BuildingBlock: BETGAK_clean_sbu_0, # of connection points: 6
#     Node 6, Type 0, BuildingBlock: BETGAK_clean_sbu_0, # of connection points: 6
#     Node 7, Type 0, BuildingBlock: BETGAK_clean_sbu_0, # of connection points: 6
#     Node 8, Type 0, BuildingBlock: BETGAK_clean_sbu_0, # of connection points: 6
#     Node 9, Type 0, BuildingBlock: BETGAK_clean_sbu_0, # of connection points: 6
#     Node 10, Type 0, BuildingBlock: BETGAK_clean_sbu_0, # of connection points: 6
#     Node 11, Type 0, BuildingBlock: BETGAK_clean_sbu_0, # of connection points: 6
#     Node 12, Type 0, BuildingBlock: BETGAK_clean_sbu_0, # of connection points: 6
#     Node 13, Type 0, BuildingBlock: BETGAK_clean_sbu_0, # of connection points: 6
#     Node 14, Type 0, BuildingBlock: BETGAK_clean_sbu_0, # of connection points: 6
#     Node 15, Type 0, BuildingBlock: BETGAK_clean_sbu_0, # of connection points: 6
#     Node 16, Type 0, BuildingBlock: BETGAK_clean_sbu_0, # of connection points: 6
#     Node 17, Type 0, BuildingBlock: BETGAK_clean_sbu_0, # of connection points: 6
#     Node 18, Type 0, BuildingBlock: BETGAK_clean_sbu_0, # of connection points: 6
#     Node 19, Type 0, BuildingBlock: BETGAK_clean_sbu_0, # of connection points: 6
#     Node 20, Type 0, BuildingBlock: BETGAK_clean_sbu_0, # of connection points: 6
#     Node 21, Type 0, BuildingBlock: BETGAK_clean_sbu_0, # of connection points: 6
#     Node 22, Type 0, BuildingBlock: BETGAK_clean_sbu_0, # of connection points: 6
#     Node 23, Type 0, BuildingBlock: BETGAK_clean_sbu_0, # of connection points: 6
#     Node 24, Type 0, BuildingBlock: BETGAK_clean_sbu_0, # of connection points: 6
#     Node 25, Type 0, BuildingBlock: BETGAK_clean_sbu_0, # of connection points: 6
#     Node 26, Type 0, BuildingBlock: BETGAK_clean_sbu_0, # of connection points: 6
#     Node 27, Type 0, BuildingBlock: BETGAK_clean_sbu_0, # of connection points: 6
#     Node 28, Type 0, BuildingBlock: BETGAK_clean_sbu_0, # of connection points: 6
#     Node 29, Type 0, BuildingBlock: BETGAK_clean_sbu_0, # of connection points: 6
#     Node 30, Type 0, BuildingBlock: BETGAK_clean_sbu_0, # of connection points: 6
#     Node 31, Type 0, BuildingBlock: BETGAK_clean_sbu_0, # of connection points: 6
#     Node 32, Type 0, BuildingBlock: BETGAK_clean_sbu_0, # of connection points: 6
#     Node 33, Type 0, BuildingBlock: BETGAK_clean_sbu_0, # of connection points: 6
#     Node 34, Type 0, BuildingBlock: BETGAK_clean_sbu_0, # of connection points: 6
#     Node 35, Type 0, BuildingBlock: BETGAK_clean_sbu_0, # of connection points: 6
#     Edge 36, Type (0, 0), BuildingBlock: OJICUG_clean_linker_0, # of connection points: 2
#     Edge 37, Type (0, 0), BuildingBlock: OJICUG_clean_linker_0, # of connection points: 2
#     Edge 38, Type (0, 0), BuildingBlock: OJICUG_clean_linker_0, # of connection points: 2
#     Edge 39, Type (0, 0), BuildingBlock: OJICUG_clean_linker_0, # of connection points: 2
#     Edge 40, Type (0, 0), BuildingBlock: OJICUG_clean_linker_0, # of connection points: 2
#     Edge 41, Type (0, 0), BuildingBlock: OJICUG_clean_linker_0, # of connection points: 2
#     Edge 42, Type (0, 0), BuildingBlock: OJICUG_clean_linker_0, # of connection points: 2
#     Edge 43, Type (0, 0), BuildingBlock: OJICUG_clean_linker_0, # of connection points: 2
#     Edge 44, Type (0, 0), BuildingBlock: OJICUG_clean_linker_0, # of connection points: 2
#     Edge 45, Type (0, 0), BuildingBlock: OJICUG_clean_linker_0, # of connection points: 2
#     Edge 46, Type (0, 0), BuildingBlock: OJICUG_clean_linker_0, # of connection points: 2
#     Edge 47, Type (0, 0), BuildingBlock: OJICUG_clean_linker_0, # of connection points: 2
#     Edge 48, Type (0, 0), BuildingBlock: OJICUG_clean_linker_0, # of connection points: 2
#     Edge 49, Type (0, 0), BuildingBlock: OJICUG_clean_linker_0, # of connection points: 2
#     Edge 50, Type (0, 0), BuildingBlock: OJICUG_clean_linker_0, # of connection points: 2
#     Edge 51, Type (0, 0), BuildingBlock: OJICUG_clean_linker_0, # of connection points: 2
#     Edge 52, Type (0, 0), BuildingBlock: OJICUG_clean_linker_0, # of connection points: 2
#     Edge 53, Type (0, 0), BuildingBlock: OJICUG_clean_linker_0, # of connection points: 2
#     Edge 54, Type (0, 0), BuildingBlock: OJICUG_clean_linker_0, # of connection points: 2
#     Edge 55, Type (0, 0), BuildingBlock: OJICUG_clean_linker_0, # of connection points: 2
#     Edge 56, Type (0, 0), BuildingBlock: OJICUG_clean_linker_0, # of connection points: 2
#     Edge 57, Type (0, 0), BuildingBlock: OJICUG_clean_linker_0, # of connection points: 2
#     Edge 58, Type (0, 0), BuildingBlock: OJICUG_clean_linker_0, # of connection points: 2
#     Edge 59, Type (0, 0), BuildingBlock: OJICUG_clean_linker_0, # of connection points: 2
#     Edge 60, Type (0, 0), BuildingBlock: OJICUG_clean_linker_0, # of connection points: 2
#     Edge 61, Type (0, 0), BuildingBlock: OJICUG_clean_linker_0, # of connection points: 2
#     Edge 62, Type (0, 0), BuildingBlock: OJICUG_clean_linker_0, # of connection points: 2
#     Edge 63, Type (0, 0), BuildingBlock: OJICUG_clean_linker_0, # of connection points: 2
#     Edge 64, Type (0, 0), BuildingBlock: OJICUG_clean_linker_0, # of connection points: 2
#     Edge 65, Type (0, 0), BuildingBlock: OJICUG_clean_linker_0, # of connection points: 2
#     Edge 66, Type (0, 0), BuildingBlock: OJICUG_clean_linker_0, # of connection points: 2
#     Edge 67, Type (0, 0), BuildingBlock: OJICUG_clean_linker_0, # of connection points: 2
#     Edge 68, Type (0, 0), BuildingBlock: OJICUG_clean_linker_0, # of connection points: 2
#     Edge 69, Type (0, 0), BuildingBlock: OJICUG_clean_linker_0, # of connection points: 2
#     Edge 70, Type (0, 0), BuildingBlock: OJICUG_clean_linker_0, # of connection points: 2
#     Edge 71, Type (0, 0), BuildingBlock: OJICUG_clean_linker_0, # of connection points: 2
#     Edge 72, Type (0, 0), BuildingBlock: OJICUG_clean_linker_0, # of connection points: 2
#     Edge 73, Type (0, 0), BuildingBlock: OJICUG_clean_linker_0, # of connection points: 2
#     Edge 74, Type (0, 0), BuildingBlock: OJICUG_clean_linker_0, # of connection points: 2
#     Edge 75, Type (0, 0), BuildingBlock: OJICUG_clean_linker_0, # of connection points: 2
#     Edge 76, Type (0, 0), BuildingBlock: OJICUG_clean_linker_0, # of connection points: 2
#     Edge 77, Type (0, 0), BuildingBlock: OJICUG_clean_linker_0, # of connection points: 2
#     Edge 78, Type (0, 0), BuildingBlock: OJICUG_clean_linker_0, # of connection points: 2
#     Edge 79, Type (0, 0), BuildingBlock: OJICUG_clean_linker_0, # of connection points: 2
#     Edge 80, Type (0, 0), BuildingBlock: OJICUG_clean_linker_0, # of connection points: 2
#     Edge 81, Type (0, 0), BuildingBlock: OJICUG_clean_linker_0, # of connection points: 2
#     Edge 82, Type (0, 0), BuildingBlock: OJICUG_clean_linker_0, # of connection points: 2
#     Edge 83, Type (0, 0), BuildingBlock: OJICUG_clean_linker_0, # of connection points: 2
#     Edge 84, Type (0, 0), BuildingBlock: OJICUG_clean_linker_0, # of connection points: 2
#     Edge 85, Type (0, 0), BuildingBlock: OJICUG_clean_linker_0, # of connection points: 2
#     Edge 86, Type (0, 0), BuildingBlock: OJICUG_clean_linker_0, # of connection points: 2
#     Edge 87, Type (0, 0), BuildingBlock: OJICUG_clean_linker_0, # of connection points: 2
#     Edge 88, Type (0, 0), BuildingBlock: OJICUG_clean_linker_0, # of connection points: 2
#     Edge 89, Type (0, 0), BuildingBlock: OJICUG_clean_linker_0, # of connection points: 2
#     Edge 90, Type (0, 0), BuildingBlock: OJICUG_clean_linker_0, # of connection points: 2
#     Edge 91, Type (0, 0), BuildingBlock: OJICUG_clean_linker_0, # of connection points: 2
#     Edge 92, Type (0, 0), BuildingBlock: OJICUG_clean_linker_0, # of connection points: 2
#     Edge 93, Type (0, 0), BuildingBlock: OJICUG_clean_linker_0, # of connection points: 2
#     Edge 94, Type (0, 0), BuildingBlock: OJICUG_clean_linker_0, # of connection points: 2
#     Edge 95, Type (0, 0), BuildingBlock: OJICUG_clean_linker_0, # of connection points: 2
#     Edge 96, Type (0, 0), BuildingBlock: OJICUG_clean_linker_0, # of connection points: 2
#     Edge 97, Type (0, 0), BuildingBlock: OJICUG_clean_linker_0, # of connection points: 2
#     Edge 98, Type (0, 0), BuildingBlock: OJICUG_clean_linker_0, # of connection points: 2
#     Edge 99, Type (0, 0), BuildingBlock: OJICUG_clean_linker_0, # of connection points: 2
#     Edge 100, Type (0, 0), BuildingBlock: OJICUG_clean_linker_0, # of connection points: 2
#     Edge 101, Type (0, 0), BuildingBlock: OJICUG_clean_linker_0, # of connection points: 2
#     Edge 102, Type (0, 0), BuildingBlock: OJICUG_clean_linker_0, # of connection points: 2
#     Edge 103, Type (0, 0), BuildingBlock: OJICUG_clean_linker_0, # of connection points: 2
#     Edge 104, Type (0, 0), BuildingBlock: OJICUG_clean_linker_0, # of connection points: 2
#     Edge 105, Type (0, 0), BuildingBlock: OJICUG_clean_linker_0, # of connection points: 2
#     Edge 106, Type (0, 0), BuildingBlock: OJICUG_clean_linker_0, # of connection points: 2
#     Edge 107, Type (0, 0), BuildingBlock: OJICUG_clean_linker_0, # of connection points: 2
#     Edge 108, Type (0, 0), BuildingBlock: OJICUG_clean_linker_0, # of connection points: 2
#     Edge 109, Type (0, 0), BuildingBlock: OJICUG_clean_linker_0, # of connection points: 2
#     Edge 110, Type (0, 0), BuildingBlock: OJICUG_clean_linker_0, # of connection points: 2
#     Edge 111, Type (0, 0), BuildingBlock: OJICUG_clean_linker_0, # of connection points: 2
#     Edge 112, Type (0, 0), BuildingBlock: OJICUG_clean_linker_0, # of connection points: 2
#     Edge 113, Type (0, 0), BuildingBlock: OJICUG_clean_linker_0, # of connection points: 2
#     Edge 114, Type (0, 0), BuildingBlock: OJICUG_clean_linker_0, # of connection points: 2
#     Edge 115, Type (0, 0), BuildingBlock: OJICUG_clean_linker_0, # of connection points: 2
#     Edge 116, Type (0, 0), BuildingBlock: OJICUG_clean_linker_0, # of connection points: 2
#     Edge 117, Type (0, 0), BuildingBlock: OJICUG_clean_linker_0, # of connection points: 2
#     Edge 118, Type (0, 0), BuildingBlock: OJICUG_clean_linker_0, # of connection points: 2
#     Edge 119, Type (0, 0), BuildingBlock: OJICUG_clean_linker_0, # of connection points: 2
#     Edge 120, Type (0, 0), BuildingBlock: OJICUG_clean_linker_0, # of connection points: 2
#     Edge 121, Type (0, 0), BuildingBlock: OJICUG_clean_linker_0, # of connection points: 2
#     Edge 122, Type (0, 0), BuildingBlock: OJICUG_clean_linker_0, # of connection points: 2
#     Edge 123, Type (0, 0), BuildingBlock: OJICUG_clean_linker_0, # of connection points: 2
#     Edge 124, Type (0, 0), BuildingBlock: OJICUG_clean_linker_0, # of connection points: 2
#     Edge 125, Type (0, 0), BuildingBlock: OJICUG_clean_linker_0, # of connection points: 2
#     Edge 126, Type (0, 0), BuildingBlock: OJICUG_clean_linker_0, # of connection points: 2
#     Edge 127, Type (0, 0), BuildingBlock: OJICUG_clean_linker_0, # of connection points: 2
#     Edge 128, Type (0, 0), BuildingBlock: OJICUG_clean_linker_0, # of connection points: 2
#     Edge 129, Type (0, 0), BuildingBlock: OJICUG_clean_linker_0, # of connection points: 2
#     Edge 130, Type (0, 0), BuildingBlock: OJICUG_clean_linker_0, # of connection points: 2
#     Edge 131, Type (0, 0), BuildingBlock: OJICUG_clean_linker_0, # of connection points: 2
#     Edge 132, Type (0, 0), BuildingBlock: OJICUG_clean_linker_0, # of connection points: 2
#     Edge 133, Type (0, 0), BuildingBlock: OJICUG_clean_linker_0, # of connection points: 2
#     Edge 134, Type (0, 0), BuildingBlock: OJICUG_clean_linker_0, # of connection points: 2
#     Edge 135, Type (0, 0), BuildingBlock: OJICUG_clean_linker_0, # of connection points: 2
#     Edge 136, Type (0, 0), BuildingBlock: OJICUG_clean_linker_0, # of connection points: 2
#     Edge 137, Type (0, 0), BuildingBlock: OJICUG_clean_linker_0, # of connection points: 2
#     Edge 138, Type (0, 0), BuildingBlock: OJICUG_clean_linker_0, # of connection points: 2
#     Edge 139, Type (0, 0), BuildingBlock: OJICUG_clean_linker_0, # of connection points: 2
#     Edge 140, Type (0, 0), BuildingBlock: OJICUG_clean_linker_0, # of connection points: 2
#     Edge 141, Type (0, 0), BuildingBlock: OJICUG_clean_linker_0, # of connection points: 2
#     Edge 142, Type (0, 0), BuildingBlock: OJICUG_clean_linker_0, # of connection points: 2
#     Edge 143, Type (0, 0), BuildingBlock: OJICUG_clean_linker_0, # of connection points: 2
# Relax obj value: 0.146
# Max RMSD: 0.227
# Mean RMSD: 0.209
data_MOF--net-wna--node1-BETGAK_clean_sbu_0--edge1-OJICUG_clean_linker_0
_symmetry_space_group_name_H-M    P1
_symmetry_Int_Tables_number       1
_symmetry_cell_setting            triclinic
loop_
_symmetry_equiv_pos_as_xyz
'x, y, z'
_cell_length_a     29.376983
_cell_length_b     29.383548
_cell_length_c     127.88981
_cell_angle_alpha  90.127365
_cell_angle_beta   90.001642
_cell_angle_gamma 120.04896
loop_
_atom_site_label
_atom_site_type_symbol
_atom_site_fract_x
_atom_site_fract_y
_atom_site_fract_z
_atom_type_partial_charge
La0 La 0.15757 0.28095 0.18552 0.0
La1 La 0.16362 0.26611 0.21058 0.0
C2 C 0.14455 0.31428 0.16828 0.0
C3 C 0.16552 0.32718 0.1575 0.0
C4 C 0.1783 0.29422 0.15176 0.0
C5 C 0.19142 0.30381 0.14113 0.0
C6 C 0.19221 0.34662 0.13601 0.0
C7 C 0.18117 0.38048 0.14191 0.0
C8 C 0.16792 0.37078 0.15251 0.0
C9 C 0.188 0.21154 0.19024 0.0
C10 C 0.26854 0.33909 0.19704 0.0
C11 C 0.1707 0.23593 0.22869 0.0
C12 C 0.14646 0.22735 0.23922 0.0
C13 C 0.12854 0.25994 0.24336 0.0
C14 C 0.10651 0.2508 0.25344 0.0
C15 C 0.10163 0.20872 0.25958 0.0
C16 C 0.11955 0.17622 0.25533 0.0
C17 C 0.14162 0.18546 0.2453 0.0
C18 C 0.12809 0.33232 0.20547 0.0
C19 C 0.05914 0.19155 0.19775 0.0
O20 O 0.12041 0.26447 0.17094 0.0
O21 O 0.1736 0.34548 0.17589 0.0
O22 O 0.18356 0.22484 0.18075 0.0
O23 O 0.17682 0.23863 0.1962 0.0
O24 O 0.23969 0.33791 0.1889 0.0
O25 O 0.24745 0.31108 0.20574 0.0
O26 O 0.1994 0.28462 0.22542 0.0
O27 O 0.14103 0.20415 0.22125 0.0
O28 O 0.13492 0.32111 0.21493 0.0
O29 O 0.14181 0.30654 0.19979 0.0
O30 O 0.08764 0.19806 0.20629 0.0
O31 O 0.07632 0.22482 0.18975 0.0
H32 H 0.17685 0.26029 0.15541 0.0
H33 H 0.20038 0.27732 0.13689 0.0
H34 H 0.18067 0.41341 0.13824 0.0
H35 H 0.15778 0.39647 0.15673 0.0
H36 H 0.13153 0.29238 0.23882 0.0
H37 H 0.09265 0.27631 0.25637 0.0
H38 H 0.11732 0.14397 0.25982 0.0
H39 H 0.15527 0.15986 0.2423 0.0
La40 La 0.80243 0.88923 0.18651 0.0
La41 La 0.81311 0.90905 0.20952 0.0
C42 C 0.76948 0.84784 0.16879 0.0
C43 C 0.75126 0.85358 0.15838 0.0
C44 C 0.78263 0.89706 0.15198 0.0
C45 C 0.77029 0.89649 0.1414 0.0
C46 C 0.72631 0.85248 0.13699 0.0
C47 C 0.69331 0.81046 0.14358 0.0
C48 C 0.70581 0.81096 0.15415 0.0
C49 C 0.87806 0.98503 0.19135 0.0
C50 C 0.73904 0.93935 0.19703 0.0
C51 C 0.84121 0.93745 0.22828 0.0
C52 C 0.85246 0.91959 0.23831 0.0
C53 C 0.81369 0.87551 0.24372 0.0
C54 C 0.82399 0.8631 0.25372 0.0
C55 C 0.8732 0.89455 0.25856 0.0
C56 C 0.91227 0.93777 0.25298 0.0
C57 C 0.90194 0.95015 0.24302 0.0
C58 C 0.74303 0.81027 0.20374 0.0
C59 C 0.8911 0.88071 0.19788 0.0
O60 O 0.81894 0.87973 0.17108 0.0
O61 O 0.73846 0.83804 0.17687 0.0
O62 O 0.87558 0.96058 0.18275 0.0
O63 O 0.83492 0.95926 0.19615 0.0
O64 O 0.74157 0.91123 0.18915 0.0
O65 O 0.77002 0.94989 0.20533 0.0
O66 O 0.79248 0.9145 0.22502 0.0
O67 O 0.87407 0.94735 0.22058 0.0
O68 O 0.73895 0.83382 0.21192 0.0
O69 O 0.78703 0.84044 0.19979 0.0
O70 O 0.88416 0.90458 0.20599 0.0
O71 O 0.8559 0.86082 0.1903 0.0
H72 H 0.81812 0.93045 0.155 0.0
H73 H 0.79679 0.92942 0.13657 0.0
H74 H 0.65851 0.77644 0.14052 0.0
H75 H 0.68118 0.77686 0.15891 0.0
H76 H 0.77499 0.85126 0.24035 0.0
H77 H 0.79277 0.8298 0.25778 0.0
H78 H 0.95092 0.96237 0.25633 0.0
H79 H 0.93248 0.98448 0.23906 0.0
La80 La 0.19344 0.92884 0.18576 0.0
La81 La 0.17082 0.92047 0.21003 0.0
C82 C 0.23417 0.93507 0.16804 0.0
C83 C 0.22081 0.9133 0.15728 0.0
C84 C 0.18785 0.92302 0.1508 0.0
C85 C 0.18247 0.90987 0.14017 0.0
C86 C 0.20971 0.88653 0.13576 0.0
C87 C 0.24068 0.87458 0.14234 0.0
C88 C 0.24636 0.88808 0.15297 0.0
C89 C 0.09891 0.91172 0.19084 0.0
C90 C 0.14155 0.81571 0.19682 0.0
C91 C 0.13343 0.9139 0.2281 0.0
C92 C 0.15049 0.9381 0.23865 0.0
C93 C 0.18314 0.92765 0.24505 0.0
C94 C 0.19608 0.94838 0.25521 0.0
C95 C 0.17662 0.97998 0.25925 0.0
C96 C 0.14434 0.99071 0.25279 0.0
C97 C 0.13134 0.96991 0.24265 0.0
C98 C 0.27367 0.9577 0.20565 0.0
C99 C 0.20529 1.02649 0.19792 0.0
O100 O 0.21504 0.96466 0.17111 0.0
O101 O 0.23401 0.90468 0.17556 0.0
O102 O 0.12164 0.93005 0.18191 0.0
O103 O 0.12562 0.89608 0.19581 0.0
O104 O 0.16482 0.8447 0.1884 0.0
O105 O 0.13624 0.8367 0.20568 0.0
O106 O 0.15139 0.88363 0.2247 0.0
O107 O 0.13196 0.94392 0.22068 0.0
O108 O 0.254 0.94897 0.21497 0.0
O109 O 0.23526 0.9451 0.19977 0.0
O110 O 0.17636 0.99501 0.20559 0.0
O111 O 0.22687 1.01072 0.1907 0.0
H112 H 0.16755 0.94245 0.15384 0.0
H113 H 0.1578 0.919 0.13535 0.0
H114 H 0.26259 0.85707 0.13918 0.0
H115 H 0.27245 0.88066 0.15773 0.0
H116 H 0.19822 0.90288 0.24229 0.0
H117 H 0.22044 0.93863 0.25998 0.0
H118 H 0.12921 1.01547 0.25553 0.0
H119 H 0.10581 0.97839 0.23795 0.0
La120 La 0.29503 0.13517 0.37356 0.0
La121 La 0.28787 0.14555 0.35047 0.0
C122 C 0.32628 0.12578 0.39135 0.0
C123 C 0.34439 0.14934 0.4018 0.0
C124 C 0.31335 0.16198 0.4082 0.0
C125 C 0.32549 0.17338 0.4188 0.0
C126 C 0.36891 0.17245 0.42321 0.0
C127 C 0.40162 0.1629 0.41663 0.0
C128 C 0.38933 0.15127 0.40604 0.0
C129 C 0.22004 0.15513 0.36832 0.0
C130 C 0.35955 0.24941 0.36335 0.0
C131 C 0.263 0.14619 0.33149 0.0
C132 C 0.25206 0.11616 0.32153 0.0
C133 C 0.28888 0.13623 0.31335 0.0
C134 C 0.2771 0.11192 0.30351 0.0
C135 C 0.22792 0.06699 0.30154 0.0
C136 C 0.19138 0.04632 0.30979 0.0
C137 C 0.20324 0.07061 0.31965 0.0
C138 C 0.35726 0.1174 0.35685 0.0
C139 C 0.20827 0.03824 0.3616 0.0
O140 O 0.27712 0.10919 0.38896 0.0
O141 O 0.35794 0.14673 0.38335 0.0
O142 O 0.22143 0.13286 0.37694 0.0
O143 O 0.26385 0.17301 0.36373 0.0
O144 O 0.35576 0.2185 0.37126 0.0
O145 O 0.33005 0.22927 0.35485 0.0
O146 O 0.31137 0.17033 0.33497 0.0
O147 O 0.22902 0.12532 0.3391 0.0
O148 O 0.36311 0.14575 0.34872 0.0
O149 O 0.31239 0.10282 0.36041 0.0
O150 O 0.21673 0.0694 0.3535 0.0
O151 O 0.24187 0.0534 0.36948 0.0
H152 H 0.27825 0.16055 0.40515 0.0
H153 H 0.29926 0.18027 0.42363 0.0
H154 H 0.43599 0.16298 0.41971 0.0
H155 H 0.41367 0.14138 0.40128 0.0
H156 H 0.32646 0.17175 0.31447 0.0
H157 H 0.30598 0.12952 0.29734 0.0
H158 H 0.15336 1.01145 0.30862 0.0
H159 H 0.17366 0.05425 0.32573 0.0
La160 La 0.94133 0.16955 0.3739 0.0
La161 La 0.93332 0.15136 0.35076 0.0
C162 C 0.94734 0.2071 0.39202 0.0
C163 C 0.92269 0.19911 0.40252 0.0
C164 C 0.93035 0.16905 0.41013 0.0
C165 C 0.91688 0.17011 0.4206 0.0
C166 C 0.89543 0.20134 0.42377 0.0
C167 C 0.8853 0.22929 0.41605 0.0
C168 C 0.89904 0.22842 0.40557 0.0
C169 C 0.92139 0.07411 0.36874 0.0
C170 C 0.82859 0.12097 0.36298 0.0
C171 C 0.93468 0.12473 0.3319 0.0
C172 C 0.96536 0.14266 0.32199 0.0
C173 C 0.97159 0.18682 0.31647 0.0
C174 C 0.99529 0.1991 0.30654 0.0
C175 C 1.01319 0.16744 0.30185 0.0
C176 C 1.00812 0.12414 0.30755 0.0
C177 C 0.98444 0.1119 0.31745 0.0
C178 C 0.95982 0.24903 0.35681 0.0
C179 C 1.04037 0.18194 0.36244 0.0
O180 O 0.9663 0.17681 0.38942 0.0
O181 O 0.9264 0.21776 0.384 0.0
O182 O 0.94352 0.09823 0.37734 0.0
O183 O 0.90413 0.10017 0.36403 0.0
O184 O 0.85894 0.14861 0.37095 0.0
O185 O 0.84916 0.11029 0.35473 0.0
O186 O 0.91027 0.14911 0.33511 0.0
O187 O 0.95512 0.11229 0.3397 0.0
O188 O 0.93283 0.22571 0.34855 0.0
O189 O 0.97447 0.21943 0.36073 0.0
O190 O 1.00985 0.15824 0.35428 0.0
O191 O 1.02394 0.19992 0.3702 0.0
H192 H 0.94922 0.14659 0.40814 0.0
H193 H 0.92598 0.14854 0.42628 0.0
H194 H 0.868 0.25307 0.41813 0.0
H195 H 0.89316 0.2525 0.39994 0.0
H196 H 0.95699 0.21121 0.31968 0.0
H197 H 0.99796 0.23245 0.30241 0.0
H198 H 1.02217 0.0993 0.30434 0.0
H199 H 0.97994 0.07745 0.32146 0.0
La200 La 0.9097 0.78177 0.374 0.0
La201 La 0.92329 0.79284 0.34972 0.0
C202 C 0.88958 0.75452 0.39275 0.0
C203 C 0.88017 0.73924 0.40391 0.0
C204 C 0.92243 0.7475 0.41036 0.0
C205 C 0.91491 0.73605 0.42103 0.0
C206 C 0.86487 0.71589 0.42556 0.0
C207 C 0.82236 0.70686 0.41907 0.0
C208 C 0.82994 0.71845 0.40836 0.0
C209 C 0.99911 0.86202 0.36727 0.0
C210 C 0.94996 0.71477 0.36174 0.0
C211 C 0.95839 0.82302 0.3315 0.0
C212 C 0.94268 0.8329 0.32113 0.0
C213 C 0.89206 0.80082 0.31698 0.0
C214 C 0.87943 0.81053 0.30695 0.0
C215 C 0.91707 0.85264 0.30089 0.0
C216 C 0.96752 0.8848 0.30515 0.0
C217 C 0.98008 0.87499 0.31514 0.0
C218 C 0.82267 0.72509 0.35498 0.0
C219 C 0.89174 0.86612 0.36286 0.0
O220 O 0.93621 0.77267 0.38857 0.0
O221 O 0.85322 0.75066 0.38622 0.0
O222 O 0.97554 0.86125 0.37588 0.0
O223 O 0.97455 0.81699 0.36309 0.0
O224 O 0.92194 0.71638 0.36971 0.0
O225 O 0.96059 0.74602 0.35351 0.0
O226 O 0.93696 0.77401 0.33462 0.0
O227 O 0.96252 0.85498 0.33908 0.0
O228 O 0.83991 0.73684 0.3455 0.0
O229 O 0.86223 0.75076 0.36067 0.0
O230 O 0.91281 0.85935 0.35421 0.0
O231 O 0.87926 0.83444 0.37106 0.0
H232 H 0.96174 0.76376 0.4072 0.0
H233 H 0.94874 0.74433 0.42578 0.0
H234 H 0.78313 0.69076 0.42226 0.0
H235 H 0.79662 0.71161 0.40359 0.0
H236 H 0.86239 0.7682 0.32147 0.0
H237 H 0.84004 0.78533 0.30398 0.0
H238 H 0.99779 0.91708 0.3007 0.0
H239 H 1.01944 0.90013 0.31816 0.0
La240 La 0.93513 0.79713 0.85073 0.0
La241 La 0.94208 0.78329 0.87582 0.0
C242 C 0.92856 0.82712 0.83254 0.0
C243 C 0.95312 0.83573 0.82202 0.0
C244 C 0.96969 0.80225 0.81777 0.0
C245 C 0.99193 0.81142 0.8077 0.0
C246 C 0.99837 0.85443 0.80167 0.0
C247 C 0.98183 0.88784 0.80603 0.0
C248 C 0.95957 0.87857 0.81604 0.0
C249 C 0.97099 0.73131 0.85591 0.0
C250 C 1.04043 0.87068 0.8634 0.0
C251 C 0.95509 0.75066 0.89315 0.0
C252 C 0.93421 0.73836 0.90395 0.0
C253 C 0.92151 0.77164 0.90959 0.0
C254 C 0.90832 0.76253 0.92023 0.0
C255 C 0.90739 0.71988 0.92545 0.0
C256 C 0.91839 0.68572 0.91965 0.0
C257 C 0.93171 0.69495 0.90904 0.0
C258 C 0.91295 0.85362 0.87096 0.0
C259 C 0.83066 0.72495 0.86448 0.0
O260 O 0.89973 0.77847 0.83584 0.0
O261 O 0.95794 0.85895 0.84 0.0
O262 O 0.96406 0.74229 0.84644 0.0
O263 O 0.95693 0.75687 0.86157 0.0
O264 O 1.01116 0.86505 0.85503 0.0
O265 O 1.02344 0.83698 0.87132 0.0
O266 O 0.97946 0.80035 0.89039 0.0
O267 O 0.92582 0.71915 0.88559 0.0
O268 O 0.91773 0.84085 0.88047 0.0
O269 O 0.92308 0.82556 0.86507 0.0
O270 O 0.85981 0.72647 0.87259 0.0
O271 O 0.85142 0.75246 0.85571 0.0
H272 H 0.96549 0.76903 0.82222 0.0
H273 H 1.00469 0.78514 0.80471 0.0
H274 H 0.98523 0.92084 0.80163 0.0
H275 H 0.94698 0.90491 0.81911 0.0
H276 H 0.92305 0.80543 0.90585 0.0
H277 H 0.8994 0.78924 0.92439 0.0
H278 H 0.91878 0.6529 0.92339 0.0
H279 H 0.94177 0.669 0.90489 0.0
La280 La 0.28215 0.14843 0.85028 0.0
La281 La 0.29743 0.17199 0.87527 0.0
C282 C 0.25143 0.11029 0.83221 0.0
C283 C 0.24284 0.12624 0.8217 0.0
C284 C 0.27929 0.17417 0.81704 0.0
C285 C 0.26996 0.18731 0.80701 0.0
C286 C 0.22394 0.15291 0.80139 0.0
C287 C 0.18744 0.10524 0.80618 0.0
C288 C 0.19686 0.09214 0.81617 0.0
C289 C 0.3487 0.25058 0.85508 0.0
C290 C 0.2091 0.18125 0.86273 0.0
C291 C 0.3289 0.21833 0.89262 0.0
C292 C 0.33673 0.20859 0.9037 0.0
C293 C 0.30178 0.20733 0.91136 0.0
C294 C 0.31049 0.203 0.92196 0.0
C295 C 0.35468 0.20014 0.92526 0.0
C296 C 0.38937 0.20064 0.91758 0.0
C297 C 0.38055 0.20487 0.90693 0.0
C298 C 0.22702 0.07202 0.87078 0.0
C299 C 0.35559 0.11833 0.86415 0.0
O300 O 0.30009 0.12975 0.83551 0.0
O301 O 0.21989 0.10849 0.83965 0.0
O302 O 0.33663 0.23177 0.84568 0.0
O303 O 0.32365 0.21161 0.86089 0.0
O304 O 0.21413 0.15648 0.85449 0.0
O305 O 0.24363 0.19929 0.87054 0.0
O306 O 0.28006 0.19643 0.88935 0.0
O307 O 0.36064 0.21757 0.88545 0.0
O308 O 0.24026 0.09053 0.88023 0.0
O309 O 0.25454 0.10961 0.86476 0.0
O310 O 0.35487 0.14728 0.87211 0.0
O311 O 0.32701 0.10995 0.85545 0.0
H312 H 0.31507 0.20137 0.82112 0.0
H313 H 0.2993 0.22411 0.80359 0.0
H314 H 0.15109 0.07807 0.80227 0.0
H315 H 0.16798 0.05508 0.81959 0.0
H316 H 0.26817 0.21105 0.90916 0.0
H317 H 0.28343 0.20378 0.92761 0.0
H318 H 0.42359 0.19809 0.91981 0.0
H319 H 0.40854 0.20614 0.90126 0.0
La320 La 0.92779 0.1446 0.85056 0.0
La321 La 0.90935 0.13879 0.87563 0.0
C322 C 0.96214 0.15068 0.83219 0.0
C323 C 0.94413 0.12651 0.82163 0.0
C324 C 0.91785 0.14311 0.81477 0.0
C325 C 0.90493 0.1229 0.80455 0.0
C326 C 0.91823 0.08579 0.80088 0.0
C327 C 0.94401 0.06886 0.8078 0.0
C328 C 0.9569 0.08904 0.818 0.0
C329 C 0.82651 0.10987 0.85614 0.0
C330 C 0.89786 0.03998 0.86321 0.0
C331 C 0.86604 0.12653 0.89318 0.0
C332 C 0.87825 0.147 0.90405 0.0
C333 C 0.90562 0.13166 0.91091 0.0
C334 C 0.91092 0.14538 0.9215 0.0
C335 C 0.88902 0.17473 0.92552 0.0
C336 C 0.86334 0.19171 0.9186 0.0
C337 C 0.85778 0.17775 0.908 0.0
C338 C 1.00843 0.16765 0.87053 0.0
C339 C 0.96157 0.24976 0.8642 0.0
O340 O 0.94477 0.18112 0.83581 0.0
O341 O 0.96464 0.12081 0.83952 0.0
O342 O 0.84349 0.11612 0.8466 0.0
O343 O 0.86665 0.12364 0.8616 0.0
O344 O 0.9208 0.06896 0.85479 0.0
O345 O 0.88134 0.05721 0.87115 0.0
O346 O 0.88743 0.09915 0.8899 0.0
O347 O 0.86496 0.15746 0.88589 0.0
O348 O 0.99147 0.16329 0.88008 0.0
O349 O 0.96991 0.15723 0.86472 0.0
O350 O 0.93425 0.22088 0.87236 0.0
O351 O 0.96785 0.22857 0.85543 0.0
H352 H 0.90802 0.17246 0.81721 0.0
H353 H 0.88571 0.13748 0.79945 0.0
H354 H 0.95428 0.03984 0.80536 0.0
H355 H 0.97763 0.07573 0.82301 0.0
H356 H 0.92173 0.10772 0.90818 0.0
H357 H 0.93144 0.13218 0.92659 0.0
H358 H 0.84548 0.21386 0.92145 0.0
H359 H 0.83591 0.18958 0.90296 0.0
La360 La 0.81081 0.92165 0.70901 0.0
La361 La 0.80469 0.92966 0.68586 0.0
C362 C 0.83596 0.92385 0.7281 0.0
C363 C 0.84668 0.9544 0.73803 0.0
C364 C 0.80718 0.93911 0.74566 0.0
C365 C 0.81859 0.963 0.75556 0.0
C366 C 0.86998 1.00264 0.75817 0.0
C367 C 0.90924 1.01874 0.75045 0.0
C368 C 0.8978 0.99488 0.74054 0.0
C369 C 0.74055 0.94814 0.70232 0.0
C370 C 0.8902 1.0288 0.6975 0.0
C371 C 0.7741 0.93501 0.66768 0.0
C372 C 0.75456 0.9089 0.65742 0.0
C373 C 0.78229 0.89027 0.65152 0.0
C374 C 0.76948 0.8762 0.641 0.0
C375 C 0.72873 0.8805 0.63615 0.0
C376 C 0.69918 0.89623 0.64227 0.0
C377 C 0.71206 0.91035 0.65277 0.0
C378 C 0.88011 0.91133 0.69184 0.0
C379 C 0.74061 0.8158 0.69649 0.0
O380 O 0.78764 0.8987 0.72461 0.0
O381 O 0.86984 0.9445 0.72047 0.0
O382 O 0.73533 0.92055 0.71054 0.0
O383 O 0.78556 0.96303 0.69871 0.0
O384 O 0.88171 0.99815 0.70572 0.0
O385 O 0.857 1.01233 0.68954 0.0
O386 O 0.82283 0.94996 0.67015 0.0
O387 O 0.7426 0.91797 0.67578 0.0
O388 O 0.87984 0.93373 0.68315 0.0
O389 O 0.83555 0.89312 0.69609 0.0
O390 O 0.74498 0.84617 0.68842 0.0
O391 O 0.76894 0.83692 0.70509 0.0
H392 H 0.76761 0.90741 0.74411 0.0
H393 H 0.78739 0.94889 0.76131 0.0
H394 H 0.94912 0.04956 0.75208 0.0
H395 H 0.92945 1.00732 0.73493 0.0
H396 H 0.81534 0.88874 0.65488 0.0
H397 H 0.79251 0.86343 0.63657 0.0
H398 H 0.66793 0.90058 0.63881 0.0
H399 H 0.69048 0.92518 0.65711 0.0
La400 La 0.16405 0.91071 0.71011 0.0
La401 La 0.15416 0.89261 0.6869 0.0
C402 C 0.16325 0.93723 0.72902 0.0
C403 C 0.13326 0.91968 0.73903 0.0
C404 C 0.12633 0.87506 0.74448 0.0
C405 C 0.10314 0.86305 0.75446 0.0
C406 C 0.08652 0.89545 0.7593 0.0
C407 C 0.09242 0.93932 0.75369 0.0
C408 C 0.11553 0.95126 0.74373 0.0
C409 C 0.13803 0.81338 0.70395 0.0
C410 C 0.05606 0.87935 0.69865 0.0
C411 C 0.14755 0.85671 0.66861 0.0
C412 C 0.1716 0.86828 0.65801 0.0
C413 C 0.15125 0.88682 0.6502 0.0
C414 C 0.16701 0.89016 0.63979 0.0
C415 C 0.20353 0.87488 0.63682 0.0
C416 C 0.22532 0.85799 0.64469 0.0
C417 C 0.20936 0.8545 0.65515 0.0
C418 C 0.17329 0.98742 0.69233 0.0
C419 C 0.26813 0.94281 0.69735 0.0
O420 O 0.18768 0.91299 0.72574 0.0
O421 O 0.14223 0.9493 0.72128 0.0
O422 O 0.16526 0.83671 0.71218 0.0
O423 O 0.12275 0.84264 0.70011 0.0
O424 O 0.08722 0.90381 0.70671 0.0
O425 O 0.07188 0.86039 0.69098 0.0
O426 O 0.12581 0.88394 0.67162 0.0
O427 O 0.17114 0.84751 0.67635 0.0
O428 O 0.1507 0.96354 0.68374 0.0
O429 O 0.19141 0.9616 0.6968 0.0
O430 O 0.23695 0.91475 0.68951 0.0
O431 O 0.24816 0.95263 0.70582 0.0
H432 H 0.1399 0.85004 0.74115 0.0
H433 H 0.09982 0.82922 0.75852 0.0
H434 H 0.07939 0.96479 0.757 0.0
H435 H 0.12061 0.98609 0.73978 0.0
H436 H 0.1213 0.89678 0.65206 0.0
H437 H 0.14849 0.9024 0.63399 0.0
H438 H 0.25402 0.84648 0.64275 0.0
H439 H 0.2254 0.83946 0.66093 0.0
La440 La 0.17226 0.26811 0.71149 0.0
La441 La 0.19377 0.28421 0.68642 0.0
C442 C 0.13522 0.23692 0.72958 0.0
C443 C 0.15122 0.22603 0.73988 0.0
C444 C 0.19999 0.2606 0.74453 0.0
C445 C 0.21313 0.24931 0.75439 0.0
C446 C 0.17798 0.20305 0.75979 0.0
C447 C 0.12936 0.16853 0.75504 0.0
C448 C 0.11621 0.17994 0.74524 0.0
C449 C 0.27414 0.33355 0.70636 0.0
C450 C 0.20261 0.19452 0.69862 0.0
C451 C 0.24235 0.31795 0.66941 0.0
C452 C 0.23792 0.33281 0.65858 0.0
C453 C 0.1909 0.30616 0.65283 0.0
C454 C 0.19029 0.31617 0.64211 0.0
C455 C 0.23675 0.35268 0.63695 0.0
C456 C 0.28304 0.38084 0.64289 0.0
C457 C 0.28357 0.37097 0.65356 0.0
C458 C 0.09369 0.21486 0.69101 0.0
C459 C 0.14252 0.34304 0.69811 0.0
O460 O 0.15682 0.28615 0.72654 0.0
O461 O 0.13063 0.20532 0.72188 0.0
O462 O 0.25627 0.32258 0.71584 0.0
O463 O 0.23447 0.30802 0.70073 0.0
O464 O 0.18061 0.2007 0.70717 0.0
O465 O 0.21842 0.22772 0.69061 0.0
O466 O 0.2142 0.26792 0.6718 0.0
O467 O 0.24452 0.34898 0.67705 0.0
O468 O 0.11165 0.22891 0.68155 0.0
O469 O 0.13188 0.24144 0.69705 0.0
O470 O 0.17011 0.34215 0.68993 0.0
O471 O 0.13453 0.31392 0.70668 0.0
H472 H 0.22796 0.29634 0.74057 0.0
H473 H 0.25114 0.27656 0.75772 0.0
H474 H 0.10089 0.13296 0.75899 0.0
H475 H 0.07828 0.15271 0.74186 0.0
H476 H 0.15515 0.27639 0.65652 0.0
H477 H 0.15402 0.29367 0.63777 0.0
H478 H 0.31929 0.40988 0.63922 0.0
H479 H 0.32027 0.39194 0.65784 0.0
La480 La 0.82318 0.61995 0.52025 0.0
La481 La 0.82979 0.60396 0.54526 0.0
C482 C 0.80686 0.65331 0.50336 0.0
C483 C 0.8241 0.66532 0.49236 0.0
C484 C 0.83054 0.62974 0.48604 0.0
C485 C 0.83935 0.63861 0.47527 0.0
C486 C 0.84193 0.68322 0.47061 0.0
C487 C 0.83753 0.71971 0.47706 0.0
C488 C 0.82857 0.71073 0.4878 0.0
C489 C 0.85291 0.54983 0.52463 0.0
C490 C 0.93401 0.67844 0.53171 0.0
C491 C 0.83747 0.57375 0.5633 0.0
C492 C 0.81129 0.56346 0.57364 0.0
C493 C 0.79638 0.59772 0.57815 0.0
C494 C 0.77194 0.58666 0.588 0.0
C495 C 0.76153 0.54093 0.5935 0.0
C496 C 0.77644 0.50677 0.58891 0.0
C497 C 0.80103 0.51797 0.57912 0.0
C498 C 0.79291 0.6691 0.54027 0.0
C499 C 0.7255 0.53007 0.53262 0.0
O500 O 0.78251 0.60362 0.5061 0.0
O501 O 0.83872 0.68451 0.51067 0.0
O502 O 0.84846 0.56382 0.51519 0.0
O503 O 0.84252 0.577 0.53075 0.0
O504 O 0.90532 0.67753 0.52357 0.0
O505 O 0.91306 0.64956 0.54031 0.0
O506 O 0.86493 0.62283 0.56015 0.0
O507 O 0.80964 0.54175 0.55572 0.0
O508 O 0.79938 0.65757 0.54973 0.0
O509 O 0.80786 0.64443 0.53461 0.0
O510 O 0.75412 0.53609 0.54108 0.0
O511 O 0.74227 0.56368 0.52468 0.0
H512 H 0.82709 0.59423 0.48934 0.0
H513 H 0.84217 0.60946 0.47056 0.0
H514 H 0.84037 0.75501 0.4738 0.0
H515 H 0.82357 0.73863 0.49251 0.0
H516 H 0.80347 0.63294 0.57407 0.0
H517 H 0.76054 0.61358 0.59123 0.0
H518 H 0.76981 0.47161 0.59295 0.0
H519 H 0.81224 0.49099 0.57582 0.0
La520 La 0.46676 0.23319 0.51972 0.0
La521 La 0.47872 0.24762 0.54382 0.0
C522 C 0.43964 0.21369 0.50098 0.0
C523 C 0.42518 0.20562 0.48979 0.0
C524 C 0.43865 0.24937 0.48339 0.0
C525 C 0.4278 0.24307 0.4727 0.0
C526 C 0.40301 0.19281 0.46812 0.0
C527 C 0.38895 0.14885 0.47455 0.0
C528 C 0.39999 0.15522 0.48529 0.0
C529 C 0.54754 0.32254 0.52627 0.0
C530 C 0.40094 0.27542 0.5319 0.0
C531 C 0.50962 0.28183 0.56209 0.0
C532 C 0.51899 0.26425 0.57236 0.0
C533 C 0.4785 0.24025 0.5798 0.0
C534 C 0.48868 0.22773 0.58978 0.0
C535 C 0.53967 0.23922 0.59261 0.0
C536 C 0.58 0.26274 0.58512 0.0
C537 C 0.56983 0.27523 0.57515 0.0
C538 C 0.41082 0.14633 0.53878 0.0
C539 C 0.55173 0.21556 0.5307 0.0
O540 O 0.45921 0.2604 0.5052 0.0
O541 O 0.4339 0.17653 0.50747 0.0
O542 O 0.5466 0.29795 0.5178 0.0
O543 O 0.50265 0.2987 0.53049 0.0
O544 O 0.40229 0.24726 0.52391 0.0
O545 O 0.43199 0.28537 0.54016 0.0
O546 O 0.46072 0.26199 0.55894 0.0
O547 O 0.54126 0.28658 0.55439 0.0
O548 O 0.42316 0.16448 0.5482 0.0
O549 O 0.43589 0.18551 0.53298 0.0
O550 O 0.54559 0.23763 0.53927 0.0
O551 O 0.51922 0.20227 0.5226 0.0
H552 H 0.4585 0.28884 0.48659 0.0
H553 H 0.44005 0.27787 0.46798 0.0
H554 H 0.36926 0.10951 0.4713 0.0
H555 H 0.38918 0.12083 0.49005 0.0
H556 H 0.43906 0.23199 0.578 0.0
H557 H 0.45678 0.21036 0.59537 0.0
H558 H 0.6196 0.27159 0.58696 0.0
H559 H 0.60212 0.29427 0.56968 0.0
La560 La 0.85447 0.26281 0.51859 0.0
La561 La 0.83356 0.25528 0.54357 0.0
C562 C 0.89898 0.27625 0.50109 0.0
C563 C 0.8881 0.25708 0.49008 0.0
C564 C 0.86536 0.27659 0.48299 0.0
C565 C 0.86156 0.2641 0.47234 0.0
C566 C 0.88049 0.23187 0.46845 0.0
C567 C 0.90163 0.21091 0.47558 0.0
C568 C 0.90565 0.2236 0.48625 0.0
C569 C 0.75452 0.23275 0.52329 0.0
C570 C 0.80195 0.15116 0.52979 0.0
C571 C 0.79793 0.24848 0.56185 0.0
C572 C 0.8158 0.2725 0.57244 0.0
C573 C 0.84615 0.25938 0.57895 0.0
C574 C 0.85959 0.27987 0.58914 0.0
C575 C 0.84288 0.31387 0.59314 0.0
C576 C 0.81288 0.32721 0.58656 0.0
C577 C 0.79943 0.3067 0.57639 0.0
C578 C 0.93563 0.29124 0.5385 0.0
C579 C 0.86459 0.36075 0.53117 0.0
O580 O 0.87728 0.30329 0.5044 0.0
O581 O 0.89943 0.24473 0.50832 0.0
O582 O 0.77269 0.23814 0.51382 0.0
O583 O 0.79252 0.24304 0.52926 0.0
O584 O 0.82979 0.18057 0.52174 0.0
O585 O 0.79468 0.17171 0.53855 0.0
O586 O 0.81526 0.218 0.55824 0.0
O587 O 0.79585 0.27861 0.55453 0.0
O588 O 0.91726 0.28395 0.54793 0.0
O589 O 0.89621 0.27751 0.53279 0.0
O590 O 0.84081 0.33104 0.53946 0.0
O591 O 0.8816 0.34413 0.52322 0.0
H592 H 0.85175 0.30283 0.4856 0.0
H593 H 0.84445 0.28041 0.4671 0.0
H594 H 0.91712 0.18642 0.47286 0.0
H595 H 0.92407 0.20853 0.49146 0.0
H596 H 0.85898 0.23268 0.57625 0.0
H597 H 0.88211 0.26802 0.59397 0.0
H598 H 0.79985 0.35379 0.58924 0.0
H599 H 0.77562 0.31729 0.57164 0.0
La600 La 0.96463 0.47401 0.70789 0.0
La601 La 0.95793 0.48211 0.68467 0.0
C602 C 0.99472 0.46751 0.72608 0.0
C603 C 1.01374 0.49275 0.73644 0.0
C604 C 0.98601 0.51141 0.74234 0.0
C605 C 0.99831 0.52485 0.75291 0.0
C606 C 1.03854 0.51989 0.75782 0.0
C607 C 0.06798 0.5039 0.75172 0.0
C608 C 0.05561 0.49042 0.74117 0.0
C609 C 0.88933 0.49291 0.70214 0.0
C610 C 1.02963 0.58695 0.69717 0.0
C611 C 0.93295 0.48048 0.66558 0.0
C612 C 0.92126 0.44959 0.65567 0.0
C613 C 0.95913 0.4666 0.64767 0.0
C614 C 0.94673 0.44219 0.63782 0.0
C615 C 0.89589 0.40021 0.63562 0.0
C616 C 0.85828 0.38248 0.64371 0.0
C617 C 0.87072 0.40687 0.65358 0.0
C618 C 1.02744 0.45465 0.69137 0.0
C619 C 0.87861 0.3758 0.69611 0.0
O620 O 0.94611 0.45269 0.72355 0.0
O621 O 1.02648 0.48518 0.71801 0.0
O622 O 0.89031 0.47092 0.71083 0.0
O623 O 0.93351 0.51083 0.69769 0.0
O624 O 1.0257 0.55676 0.70523 0.0
O625 O 1.00013 0.5662 0.6887 0.0
O626 O 0.98134 0.50441 0.66905 0.0
O627 O 0.89905 0.46089 0.67324 0.0
O628 O 1.03304 0.4824 0.68315 0.0
O629 O 0.98256 0.44029 0.69495 0.0
O630 O 0.88733 0.40618 0.68787 0.0
O631 O 0.91161 0.39174 0.7041 0.0
H632 H 0.9534 0.51356 0.73892 0.0
H633 H 0.97537 0.53783 0.7573 0.0
H634 H 0.09882 0.499 0.75521 0.0
H635 H 0.07714 0.4755 0.73685 0.0
H636 H 0.99811 0.49998 0.64892 0.0
H637 H 0.97663 0.45762 0.6318 0.0
H638 H 0.81892 0.34988 0.6424 0.0
H639 H 0.84027 0.39295 0.65948 0.0
La640 La 0.61166 0.51071 0.70869 0.0
La641 La 0.60281 0.48735 0.68373 0.0
C642 C 0.62679 0.55983 0.72568 0.0
C643 C 0.60742 0.5548 0.73651 0.0
C644 C 0.58669 0.50739 0.7421 0.0
C645 C 0.57568 0.50606 0.75282 0.0
C646 C 0.58558 0.55219 0.75813 0.0
C647 C 0.60405 0.59888 0.75236 0.0
C648 C 0.61483 0.60011 0.74168 0.0
C649 C 0.581 0.41042 0.70421 0.0
C650 C 0.49929 0.45616 0.6977 0.0
C651 C 0.59487 0.44872 0.66571 0.0
C652 C 0.61926 0.46448 0.65521 0.0
C653 C 0.63039 0.51219 0.65052 0.0
C654 C 0.65285 0.52526 0.6405 0.0
C655 C 0.66482 0.49101 0.63495 0.0
C656 C 0.65398 0.44355 0.63977 0.0
C657 C 0.63143 0.4305 0.64974 0.0
C658 C 0.63893 0.58965 0.68854 0.0
C659 C 0.70886 0.51893 0.6961 0.0
O660 O 0.64941 0.53244 0.72321 0.0
O661 O 0.59731 0.56122 0.71809 0.0
O662 O 0.58671 0.42918 0.71367 0.0
O663 O 0.5912 0.44806 0.69817 0.0
O664 O 0.52894 0.4844 0.70572 0.0
O665 O 0.51952 0.44882 0.6889 0.0
O666 O 0.56585 0.46838 0.669 0.0
O667 O 0.62478 0.44707 0.67313 0.0
O668 O 0.63094 0.57064 0.67914 0.0
O669 O 0.62589 0.5507 0.69432 0.0
O670 O 0.67929 0.49589 0.68773 0.0
O671 O 0.69251 0.53569 0.70415 0.0
H672 H 0.58072 0.47188 0.73827 0.0
H673 H 0.56166 0.46952 0.75703 0.0
H674 H 0.61123 0.63488 0.75616 0.0
H675 H 0.63076 0.63709 0.73753 0.0
H676 H 0.62157 0.53927 0.65457 0.0
H677 H 0.66006 0.56188 0.63704 0.0
H678 H 0.66346 0.41654 0.6359 0.0
H679 H 0.62349 0.39361 0.65321 0.0
La680 La 0.57864 0.1213 0.70745 0.0
La681 La 0.59361 0.13374 0.6833 0.0
C682 C 0.55542 0.09358 0.72602 0.0
C683 C 0.54504 0.07949 0.73715 0.0
C684 C 0.58686 0.1019 0.74431 0.0
C685 C 0.57812 0.08956 0.75488 0.0
C686 C 0.52739 0.0542 0.75856 0.0
C687 C 0.48526 1.03228 0.75141 0.0
C688 C 0.49404 0.04492 0.74077 0.0
C689 C 0.66838 0.20172 0.70107 0.0
C690 C 0.62203 0.0563 0.69529 0.0
C691 C 0.62776 0.16472 0.66507 0.0
C692 C 0.61 0.17428 0.65482 0.0
C693 C 0.58458 0.13361 0.64744 0.0
C694 C 0.57177 0.14388 0.63749 0.0
C695 C 0.58433 0.19513 0.63465 0.0
C696 C 0.60927 0.23566 0.64209 0.0
C697 C 0.6221 0.2254 0.65202 0.0
C698 C 0.49256 0.06574 0.68839 0.0
C699 C 0.56203 0.20695 0.69653 0.0
O700 O 0.60334 0.1149 0.72233 0.0
O701 O 0.51931 0.08602 0.71908 0.0
O702 O 0.64396 0.20069 0.70957 0.0
O703 O 0.6442 0.15701 0.69675 0.0
O704 O 0.59445 0.05784 0.70336 0.0
O705 O 0.63135 0.08699 0.68699 0.0
O706 O 0.60778 0.11578 0.66816 0.0
O707 O 0.63279 0.19635 0.67281 0.0
O708 O 0.51012 0.07767 0.67893 0.0
O709 O 0.53204 0.09134 0.69407 0.0
O710 O 0.58393 0.20077 0.68794 0.0
O711 O 0.54845 0.17423 0.70457 0.0
H712 H 0.62649 0.12937 0.74175 0.0
H713 H 0.61124 0.10805 0.7602 0.0
H714 H 0.44577 1.00464 0.75401 0.0
H715 H 0.46113 1.02734 0.73539 0.0
H716 H 0.5754 0.09392 0.64925 0.0
H717 H 0.55329 0.1118 0.63194 0.0
H718 H 0.61899 0.27548 0.64024 0.0
H719 H 0.64222 0.25781 0.65746 0.0
La720 La 0.60219 0.12726 0.18431 0.0
La721 La 0.61316 0.11848 0.20739 0.0
C722 C 0.60091 0.15447 0.16555 0.0
C723 C 0.62946 0.16547 0.15546 0.0
C724 C 0.64257 0.12998 0.15087 0.0
C725 C 0.66516 0.13955 0.14086 0.0
C726 C 0.67523 0.18482 0.13522 0.0
C727 C 0.66292 0.22063 0.13996 0.0
C728 C 0.64032 0.211 0.14993 0.0
C729 C 0.62994 0.05682 0.19011 0.0
C730 C 0.71039 0.20494 0.19564 0.0
C731 C 0.62203 0.08621 0.22513 0.0
C732 C 0.59837 0.06701 0.23553 0.0
C733 C 0.58278 0.09584 0.24191 0.0
C734 C 0.5709 0.08286 0.25247 0.0
C735 C 0.57446 0.04088 0.25688 0.0
C736 C 0.58722 1.0104 0.25032 0.0
C737 C 0.59917 1.02345 0.23977 0.0
C738 C 0.5944 0.19469 0.20239 0.0
C739 C 0.49828 0.05588 0.19722 0.0
O740 O 0.57573 0.10586 0.16884 0.0
O741 O 0.62415 0.18771 0.17321 0.0
O742 O 0.60213 0.05253 0.18197 0.0
O743 O 0.64455 0.10115 0.19402 0.0
O744 O 0.67901 0.19764 0.18759 0.0
O745 O 0.69504 0.1706 0.20335 0.0
O746 O 0.63802 0.1354 0.22292 0.0
O747 O 0.60179 0.05512 0.217 0.0
O748 O 0.61737 0.19302 0.2109 0.0
O749 O 0.57578 0.15082 0.19778 0.0
O750 O 0.52946 0.05932 0.20508 0.0
O751 O 0.5183 0.08493 0.18869 0.0
H752 H 0.63468 0.09449 0.15495 0.0
H753 H 0.67472 0.11143 0.13754 0.0
H754 H 0.6693 0.2555 0.13584 0.0
H755 H 0.63013 0.23873 0.15323 0.0
H756 H 0.58209 0.12988 0.23887 0.0
H757 H 0.56149 0.10737 0.25729 0.0
H758 H 0.58928 0.97715 0.25339 0.0
H759 H 0.61139 1.00083 0.23504 0.0
La760 La 0.95539 0.49041 0.18465 0.0
La761 La 0.96373 0.50693 0.20784 0.0
C762 C 0.92803 0.46463 0.16572 0.0
C763 C 0.91656 0.48248 0.15567 0.0
C764 C 0.95477 0.52729 0.15034 0.0
C765 C 0.94455 0.5394 0.14029 0.0
C766 C 0.89601 0.50687 0.13528 0.0
C767 C 0.85747 0.4629 0.14078 0.0
C768 C 0.86767 0.45089 0.1508 0.0
C769 C 1.02636 0.58796 0.19091 0.0
C770 C 0.87802 0.52025 0.19638 0.0
C771 C 0.99454 0.54289 0.22607 0.0
C772 C 1.01179 0.5342 0.23641 0.0
C773 C 0.98187 0.4873 0.24203 0.0
C774 C 0.99309 0.48396 0.25257 0.0
C775 C 1.03445 0.52739 0.25774 0.0
C776 C 0.0659 0.57329 0.25191 0.0
C777 C 0.05459 0.57663 0.2414 0.0
C778 C 0.88772 0.41264 0.20215 0.0
C779 C 1.02699 0.45655 0.19712 0.0
O780 O 0.97666 0.48777 0.16904 0.0
O781 O 0.89492 0.45361 0.17342 0.0
O782 O 1.03025 0.56489 0.18265 0.0
O783 O 0.98194 0.55808 0.19479 0.0
O784 O 0.88496 0.4964 0.18824 0.0
O785 O 0.91262 0.53843 0.2041 0.0
O786 O 0.94543 0.51156 0.22345 0.0
O787 O 1.02642 0.55536 0.21805 0.0
O788 O 0.8888 0.43591 0.21083 0.0
O789 O 0.93189 0.43866 0.19776 0.0
O790 O 1.02357 0.48367 0.20511 0.0
O791 O 0.99769 0.4481 0.18862 0.0
H792 H 0.99304 0.55234 0.15381 0.0
H793 H 0.97541 0.57334 0.13631 0.0
H794 H 0.81929 0.43739 0.13732 0.0
H795 H 0.83756 0.41594 0.15467 0.0
H796 H 0.9485 0.45387 0.23841 0.0
H797 H 0.96855 0.4477 0.25674 0.0
H798 H 0.09769 0.60776 0.25562 0.0
H799 H 0.07784 0.61345 0.2373 0.0
La800 La 0.59594 0.47823 0.18382 0.0
La801 La 0.57579 0.47225 0.2089 0.0
C802 C 0.6333 0.48731 0.16566 0.0
C803 C 0.61716 0.46469 0.15501 0.0
C804 C 0.56688 0.44869 0.15095 0.0
C805 C 0.55359 0.42863 0.14072 0.0
C806 C 0.59027 0.4241 0.13432 0.0
C807 C 0.64034 0.43968 0.13852 0.0
C808 C 0.65354 0.45972 0.14871 0.0
C809 C 0.49428 0.44227 0.18902 0.0
C810 C 0.56666 0.37409 0.19641 0.0
C811 C 0.5307 0.45727 0.22637 0.0
C812 C 0.54022 0.47562 0.23742 0.0
C813 C 0.54344 0.44336 0.24513 0.0
C814 C 0.54708 0.45669 0.25572 0.0
C815 C 0.54727 0.5026 0.25894 0.0
C816 C 0.54495 0.53547 0.2512 0.0
C817 C 0.54138 0.52211 0.24056 0.0
C818 C 0.67551 0.50266 0.20397 0.0
C819 C 0.62675 0.58268 0.19751 0.0
O820 O 0.61412 0.51622 0.16925 0.0
O821 O 0.63475 0.45627 0.17284 0.0
O822 O 0.5121 0.44874 0.17955 0.0
O823 O 0.53392 0.45665 0.19469 0.0
O824 O 0.58887 0.40274 0.18793 0.0
O825 O 0.55027 0.39107 0.20442 0.0
O826 O 0.55428 0.43191 0.22314 0.0
O827 O 0.52937 0.48833 0.21913 0.0
O828 O 0.65828 0.49871 0.2135 0.0
O829 O 0.63691 0.49117 0.19812 0.0
O830 O 0.59917 0.55404 0.20565 0.0
O831 O 0.6344 0.56156 0.18888 0.0
H832 H 0.53799 0.45199 0.15565 0.0
H833 H 0.51483 0.41752 0.13778 0.0
H834 H 0.66937 0.43593 0.13397 0.0
H835 H 0.69247 0.47152 0.15168 0.0
H836 H 0.54169 0.4068 0.243 0.0
H837 H 0.54776 0.42982 0.26142 0.0
H838 H 0.54547 0.57137 0.25336 0.0
H839 H 0.53851 0.54768 0.23484 0.0
La840 La 0.47624 0.25514 0.04316 0.0
La841 La 0.46713 0.26256 1.01998 0.0
C842 C 0.50397 0.25706 0.06204 0.0
C843 C 0.51692 0.28823 0.0719 0.0
C844 C 0.47928 0.29532 0.07735 0.0
C845 C 0.49102 0.31984 0.0872 0.0
C846 C 0.54063 0.33786 0.09188 0.0
C847 C 0.5785 0.33169 0.08628 0.0
C848 C 0.56673 0.30712 0.07646 0.0
C849 C 0.4054 0.28149 0.03696 0.0
C850 C 0.55311 0.36188 0.03146 0.0
C851 C 0.43626 0.26781 1.00179 0.0
C852 C 0.41898 0.24205 0.99142 0.0
C853 C 0.45209 0.23162 0.98514 0.0
C854 C 0.43997 0.21775 0.97459 0.0
C855 C 0.39448 0.21392 0.97007 0.0
C856 C 0.36004 0.22158 0.97652 0.0
C857 C 0.37227 0.23563 0.98705 0.0
C858 C 0.54276 0.24346 1.0255 0.0
C859 C 0.40264 0.15008 0.03085 0.0
O860 O 0.45514 0.23272 0.05882 0.0
O861 O 0.53693 0.27714 0.05425 0.0
O862 O 0.40141 0.25468 0.04523 0.0
O863 O 0.44974 0.29601 0.03306 0.0
O864 O 0.54598 0.3317 0.03967 0.0
O865 O 0.51897 0.34521 1.02366 0.0
O866 O 0.48538 0.28578 1.0044 0.0
O867 O 0.40441 0.24825 1.00981 0.0
O868 O 0.54133 0.26535 1.01683 0.0
O869 O 0.49888 0.2259 1.03 0.0
O870 O 0.40574 0.1802 1.02285 0.0
O871 O 0.43331 0.17089 0.03918 0.0
H872 H 0.44041 0.2811 0.0741 0.0
H873 H 0.46105 0.32447 0.09118 0.0
H874 H 0.61686 0.34427 0.08964 0.0
H875 H 0.5963 0.3016 0.07253 0.0
H876 H 0.48851 0.23633 0.98824 0.0
H877 H 0.46697 0.21135 0.96991 0.0
H878 H 0.32494 0.21952 0.97331 0.0
H879 H 0.34642 0.24412 0.99166 0.0
La880 La 0.82761 0.2418 0.04282 0.0
La881 La 0.81993 0.22851 1.01964 0.0
C882 C 0.82759 0.26599 0.06188 0.0
C883 C 0.79863 0.24831 0.07194 0.0
C884 C 0.78963 0.20197 0.07696 0.0
C885 C 0.76811 0.18998 0.08707 0.0
C886 C 0.75539 0.22416 0.09241 0.0
C887 C 0.76305 0.26964 0.0872 0.0
C888 C 0.78445 0.28154 0.07713 0.0
C889 C 0.80164 0.14554 0.03589 0.0
C890 C 0.72053 0.21331 0.03133 0.0
C891 C 0.81458 0.19458 1.00124 0.0
C892 C 0.84104 0.20425 0.99094 0.0
C893 C 0.83092 0.23183 0.98316 0.0
C894 C 0.84665 0.23235 0.97283 0.0
C895 C 0.87282 0.20515 0.96996 0.0
C896 C 0.88533 0.17979 0.97785 0.0
C897 C 0.86937 0.17911 0.98821 0.0
C898 C 0.83812 0.3221 1.02582 0.0
C899 C 0.93287 0.27633 1.03039 0.0
O900 O 0.85112 0.24133 0.05833 0.0
O901 O 0.80628 0.27906 0.05436 0.0
O902 O 0.8288 0.16743 0.04422 0.0
O903 O 0.78665 0.17561 0.03236 0.0
O904 O 0.75076 0.23516 0.03963 0.0
O905 O 0.73727 0.197 1.02335 0.0
O906 O 0.79746 0.22617 1.00406 0.0
O907 O 0.83299 0.18049 1.00918 0.0
O908 O 0.81606 0.29972 1.01707 0.0
O909 O 0.85641 0.29573 1.03002 0.0
O910 O 0.9028 0.2503 1.02228 0.0
O911 O 0.91181 0.28451 0.03887 0.0
H912 H 0.80045 0.17566 0.07322 0.0
H913 H 0.76315 0.15481 0.09084 0.0
H914 H 0.75288 0.29644 0.09095 0.0
H915 H 0.79122 0.31766 0.07348 0.0
H916 H 0.80839 0.2509 0.98493 0.0
H917 H 0.83556 0.25166 0.96699 0.0
H918 H 0.90614 0.1591 0.97597 0.0
H919 H 0.8773 0.157 0.99397 0.0
La920 La 0.83638 0.6067 0.04356 0.0
La921 La 0.8557 0.6153 1.02034 0.0
C922 C 0.80843 0.57941 0.06238 0.0
C923 C 0.82575 0.56769 0.07245 0.0
C924 C 0.87559 0.60131 0.07681 0.0
C925 C 0.88867 0.59129 0.0868 0.0
C926 C 0.85228 0.54742 0.09266 0.0
C927 C 0.8028 0.51349 0.08815 0.0
C928 C 0.7898 0.52355 0.0782 0.0
C929 C 0.9342 0.67718 0.03765 0.0
C930 C 0.86716 0.52926 0.03215 0.0
C931 C 0.89485 0.64675 1.00238 0.0
C932 C 0.88865 0.66506 0.99196 0.0
C933 C 0.84217 0.63706 0.98608 0.0
C934 C 0.84094 0.64892 0.9755 0.0
C935 C 0.88612 0.689 0.97056 0.0
C936 C 0.93166 0.71865 0.97664 0.0
C937 C 0.93287 0.70672 0.9872 0.0
C938 C 0.76059 0.53982 1.02555 0.0
C939 C 0.80533 0.67921 0.0307 0.0
O940 O 0.83264 0.62808 0.05912 0.0
O941 O 0.79748 0.54622 0.05468 0.0
O942 O 0.91101 0.68134 0.04586 0.0
O943 O 0.90451 0.63283 0.03372 0.0
O944 O 0.84316 0.5366 0.04021 0.0
O945 O 0.88578 0.56339 1.02438 0.0
O946 O 0.86228 0.59765 1.00477 0.0
O947 O 0.90645 0.67823 1.01046 0.0
O948 O 0.78462 0.54105 1.01698 0.0
O949 O 0.78647 0.58373 1.03009 0.0
O950 O 0.83303 0.67558 1.02287 0.0
O951 O 0.7954 0.64963 0.0392 0.0
H952 H 0.90421 0.63572 0.07258 0.0
H953 H 0.92738 0.61796 0.08991 0.0
H954 H 0.77334 0.47978 0.09242 0.0
H955 H 0.75093 0.49728 0.07509 0.0
H956 H 0.80741 0.60462 0.98953 0.0
H957 H 0.80493 0.62581 0.97113 0.0
H958 H 0.96739 0.74938 0.97312 0.0
H959 H 0.96937 0.72847 0.99151 0.0
La960 La 0.49149 0.94159 0.854 0.0
La961 La 0.49716 0.93324 0.87817 0.0
C962 C 0.49338 0.96635 0.83529 0.0
C963 C 0.4953 0.97855 0.82409 0.0
C964 C 0.5105 0.95258 0.81689 0.0
C965 C 0.51305 0.96368 0.80626 0.0
C966 C 0.50086 1.00133 0.80258 0.0
C967 C 0.48459 1.02666 0.80977 0.0
C968 C 0.48173 1.01524 0.82046 0.0
C969 C 0.50131 0.862 0.86079 0.0
C970 C 0.60186 1.00847 0.86545 0.0
C971 C 0.50328 0.9051 0.89651 0.0
C972 C 0.47822 0.89692 0.90692 0.0
C973 C 0.46079 0.93024 0.91086 0.0
C974 C 0.43922 0.92243 0.92094 0.0
C975 C 0.43457 0.88111 0.92729 0.0
C976 C 0.45142 0.84748 0.9232 0.0
C977 C 0.473 0.85537 0.91315 0.0
C978 C 0.46242 0.99965 0.87283 0.0
C979 C 0.39037 0.85876 0.86554 0.0
O980 O 0.51897 0.94388 0.83891 0.0
O981 O 0.46736 0.97669 0.84235 0.0
O982 O 0.47666 0.86166 0.85237 0.0
O983 O 0.52263 0.90749 0.86479 0.0
O984 O 0.57144 1.00509 0.85747 0.0
O985 O 0.58161 0.98004 0.87407 0.0
O986 O 0.53107 0.95364 0.89313 0.0
O987 O 0.47485 0.87227 0.88908 0.0
O988 O 0.46945 0.98924 0.88232 0.0
O989 O 0.47628 0.97374 0.86723 0.0
O990 O 0.41965 0.86537 0.87399 0.0
O991 O 0.40872 0.89073 0.8574 0.0
H992 H 0.52035 0.92345 0.81946 0.0
H993 H 0.52457 0.94261 0.80091 0.0
H994 H 0.47527 0.05611 0.80717 0.0
H995 H 0.46968 0.03559 0.82588 0.0
H996 H 0.46431 0.96258 0.9062 0.0
H997 H 0.42714 0.94943 0.92383 0.0
H998 H 0.44763 0.81466 0.92773 0.0
H999 H 0.48598 0.82903 0.91027 0.0
La1000 La 0.13432 0.55787 0.85254 0.0
La1001 La 0.14801 0.57783 0.87763 0.0
C1002 C 0.10205 0.51237 0.83514 0.0
C1003 C 0.08942 0.52099 0.82437 0.0
C1004 C 0.12247 0.56712 0.81878 0.0
C1005 C 0.1131 0.57127 0.80816 0.0
C1006 C 0.07041 0.52947 0.80291 0.0
C1007 C 1.03645 0.48416 0.80866 0.0
C1008 C 1.04594 0.47999 0.81925 0.0
C1009 C 0.20379 0.65749 0.85759 0.0
C1010 C 0.07537 0.60993 0.86395 0.0
C1011 C 0.17676 0.61497 0.89582 0.0
C1012 C 0.18395 0.59927 0.90644 0.0
C1013 C 0.14856 0.55008 0.91078 0.0
C1014 C 0.15604 0.53747 0.921 0.0
C1015 C 0.19906 0.57377 0.92711 0.0
C1016 C 0.23465 0.62266 0.92263 0.0
C1017 C 0.22711 0.63518 0.91246 0.0
C1018 C 0.08282 0.476 0.87232 0.0
C1019 C 0.22344 0.54907 0.86488 0.0
O1020 O 0.15174 0.53833 0.83793 0.0
O1021 O 0.07037 0.50932 0.84271 0.0
O1022 O 0.19104 0.64028 0.84804 0.0
O1023 O 0.17605 0.61893 0.8634 0.0
O1024 O 0.07718 0.58281 0.85576 0.0
O1025 O 0.10285 0.61641 0.87272 0.0
O1026 O 0.12847 0.59553 0.89231 0.0
O1027 O 0.20909 0.61661 0.88857 0.0
O1028 O 0.09382 0.49387 0.88181 0.0
O1029 O 0.10802 0.51577 0.8667 0.0
O1030 O 0.21677 0.57101 0.87342 0.0
O1031 O 0.1901 0.53259 0.85687 0.0
H1032 H 0.1563 0.59945 0.82253 0.0
H1033 H 0.13966 0.60701 0.80403 0.0
H1034 H 1.0036 0.45089 0.80489 0.0
H1035 H 1.02017 0.44387 0.82336 0.0
H1036 H 0.11495 0.52155 0.90631 0.0
H1037 H 0.12754 0.49962 0.92418 0.0
H1038 H 0.26879 0.6513 0.92696 0.0
H1039 H 0.2551 0.67327 0.90928 0.0
La1040 La 0.52412 0.5914 0.85299 0.0
La1041 La 0.50155 0.57907 0.87729 0.0
C1042 C 0.56843 0.60135 0.83556 0.0
C1043 C 0.56482 0.57965 0.82495 0.0
C1044 C 0.51911 0.56051 0.8188 0.0
C1045 C 0.52038 0.55009 0.80811 0.0
C1046 C 0.56746 0.5591 0.80338 0.0
C1047 C 0.61216 0.57535 0.80972 0.0
C1048 C 0.6108 0.5855 0.82037 0.0
C1049 C 0.43015 0.5748 0.85832 0.0
C1050 C 0.47075 0.47611 0.86328 0.0
C1051 C 0.46422 0.57134 0.89541 0.0
C1052 C 0.4803 0.59792 0.90574 0.0
C1053 C 0.52976 0.61341 0.91018 0.0
C1054 C 0.54311 0.63762 0.92007 0.0
C1055 C 0.50746 0.64721 0.9257 0.0
C1056 C 0.45817 0.63188 0.92115 0.0
C1057 C 0.44481 0.60751 0.91132 0.0
C1058 C 0.60472 0.61939 0.87267 0.0
C1059 C 0.53568 0.68697 0.8659 0.0
O1060 O 0.53746 0.62022 0.8377 0.0
O1061 O 0.57511 0.57749 0.84357 0.0
O1062 O 0.45382 0.59561 0.84957 0.0
O1063 O 0.45594 0.55707 0.86305 0.0
O1064 O 0.4923 0.5064 0.85491 0.0
O1065 O 0.46789 0.49578 0.87252 0.0
O1066 O 0.48658 0.54467 0.89221 0.0
O1067 O 0.45895 0.59837 0.88784 0.0
O1068 O 0.58525 0.6083 0.88201 0.0
O1069 O 0.56579 0.60685 0.86695 0.0
O1070 O 0.50822 0.65476 0.8736 0.0
O1071 O 0.55606 0.67243 0.85822 0.0
H1072 H 0.48313 0.55587 0.82213 0.0
H1073 H 0.48531 0.53775 0.80345 0.0
H1074 H 0.64879 0.58181 0.80637 0.0
H1075 H 0.64658 0.60042 0.82493 0.0
H1076 H 0.5581 0.60682 0.90603 0.0
H1077 H 0.58162 0.64939 0.92325 0.0
H1078 H 0.42939 0.63788 0.92527 0.0
H1079 H 0.40639 0.59583 0.90808 0.0
La1080 La 0.62756 0.81336 0.04041 0.0
La1081 La 0.61578 0.814 1.01615 0.0
C1082 C 0.65477 0.8222 0.05917 0.0
C1083 C 0.66962 0.82917 0.07035 0.0
C1084 C 0.65777 0.86094 0.07671 0.0
C1085 C 0.66865 0.86568 0.0874 0.0
C1086 C 0.69187 0.8389 0.09204 0.0
C1087 C 0.70451 0.80769 0.08564 0.0
C1088 C 0.69341 0.80282 0.0749 0.0
C1089 C 0.54723 0.82209 0.03362 0.0
C1090 C 0.6942 0.91985 1.028 0.0
C1091 C 0.58503 0.81642 0.99783 0.0
C1092 C 0.5746 0.789 0.98759 0.0
C1093 C 0.61138 0.77861 0.98272 0.0
C1094 C 0.60126 0.7554 0.97274 0.0
C1095 C 0.55416 0.74204 0.9674 0.0
C1096 C 0.51717 0.75173 0.97242 0.0
C1097 C 0.52734 0.77497 0.98236 0.0
C1098 C 0.68374 0.78163 1.02159 0.0
C1099 C 0.54279 0.71008 1.02956 0.0
O1100 O 0.63637 0.85004 0.05483 0.0
O1101 O 0.6592 0.78946 0.0528 0.0
O1102 O 0.54812 0.7995 0.04223 0.0
O1103 O 0.59214 0.84236 1.02942 0.0
O1104 O 0.69299 0.89061 0.03599 0.0
O1105 O 0.66265 0.89864 1.01979 0.0
O1106 O 0.63413 0.84458 1.00093 0.0
O1107 O 0.5532 0.79014 1.00553 0.0
O1108 O 0.67185 0.78652 1.01208 0.0
O1109 O 0.6581 0.79579 1.0272 0.0
O1110 O 0.54922 0.73724 1.02084 0.0
O1111 O 0.57497 0.72997 0.0377 0.0
H1112 H 0.63905 0.8815 0.07346 0.0
H1113 H 0.65757 0.88934 0.09208 0.0
H1114 H 0.72306 0.78706 0.08892 0.0
H1115 H 0.70301 0.7781 0.07019 0.0
H1116 H 0.64823 0.78902 0.98654 0.0
H1117 H 0.63095 0.74905 0.96912 0.0
H1118 H 0.48005 0.74119 0.9687 0.0
H1119 H 0.4983 0.7825 0.98594 0.0
La1120 La 0.27436 0.84336 0.04094 0.0
La1121 La 0.26352 0.82588 1.01783 0.0
C1122 C 0.28194 0.87983 0.0592 0.0
C1123 C 0.25759 0.8688 0.06975 0.0
C1124 C 0.27296 0.84456 0.07735 0.0
C1125 C 0.25793 0.84214 0.08779 0.0
C1126 C 0.22715 0.86402 0.09098 0.0
C1127 C 0.20988 0.88633 0.0833 0.0
C1128 C 0.22515 0.88894 0.07283 0.0
C1129 C 0.25446 0.74841 0.03551 0.0
C1130 C 0.16027 0.79445 0.03059 0.0
C1131 C 0.26301 0.79953 0.99891 0.0
C1132 C 0.29416 0.81731 0.98909 0.0
C1133 C 0.30151 0.86199 0.98362 0.0
C1134 C 0.3265 0.87468 0.97383 0.0
C1135 C 0.34474 0.84305 0.96928 0.0
C1136 C 0.33821 0.799 0.97489 0.0
C1137 C 0.31315 0.78627 0.98464 0.0
C1138 C 0.29084 0.9234 1.02416 0.0
C1139 C 0.37172 0.8559 1.02882 0.0
O1140 O 0.30259 0.85156 0.05621 0.0
O1141 O 0.25907 0.88984 0.05144 0.0
O1142 O 0.27728 0.77224 0.04409 0.0
O1143 O 0.23625 0.77425 0.03105 0.0
O1144 O 0.19139 0.82177 0.03849 0.0
O1145 O 0.18003 0.78455 1.02213 0.0
O1146 O 0.24031 0.82539 1.00225 0.0
O1147 O 0.2825 0.78547 1.00661 0.0
O1148 O 0.26259 0.90024 1.01602 0.0
O1149 O 0.30599 0.89368 1.02781 0.0
O1150 O 0.34021 0.8325 1.02078 0.0
O1151 O 0.35646 0.87395 0.03675 0.0
H1152 H 0.29874 0.82944 0.07533 0.0
H1153 H 0.27285 0.82545 0.09344 0.0
H1154 H 0.18554 0.90295 0.08542 0.0
H1155 H 0.2131 0.90842 0.06721 0.0
H1156 H 0.28721 0.8867 0.98679 0.0
H1157 H 0.33139 0.90926 0.96982 0.0
H1158 H 0.35099 0.77325 0.97161 0.0
H1159 H 0.30744 0.75122 0.9886 0.0
La1160 La 0.24006 0.45547 0.04133 0.0
La1161 La 0.25764 0.46511 1.0182 0.0
C1162 C 0.20223 0.4233 0.05936 0.0
C1163 C 0.20893 0.40433 0.06966 0.0
C1164 C 0.25565 0.43203 0.07548 0.0
C1165 C 0.25733 0.4196 0.086 0.0
C1166 C 0.21235 0.37926 0.09095 0.0
C1167 C 0.16659 0.34987 0.08492 0.0
C1168 C 0.16494 0.36236 0.07442 0.0
C1169 C 0.33516 0.53137 0.0361 0.0
C1170 C 0.28923 0.39185 1.03046 0.0
C1171 C 0.28398 0.49288 0.99936 0.0
C1172 C 0.26557 0.50528 0.9895 0.0
C1173 C 0.2192 0.46815 0.98439 0.0
C1174 C 0.2059 0.47916 0.97453 0.0
C1175 C 0.23857 0.52753 0.96954 0.0
C1176 C 0.28432 0.56494 0.9748 0.0
C1177 C 0.29763 0.55388 0.98462 0.0
C1178 C 0.16006 0.39386 1.02424 0.0
C1179 C 0.22714 0.54173 1.02989 0.0
O1180 O 0.23491 0.47244 0.05702 0.0
O1181 O 0.1898 0.39222 0.0512 0.0
O1182 O 0.31118 0.52965 0.04471 0.0
O1183 O 0.30913 0.48775 0.03144 0.0
O1184 O 0.26192 0.39471 0.03845 0.0
O1185 O 0.29915 0.42255 1.02217 0.0
O1186 O 0.2598 0.4441 1.00256 0.0
O1187 O 0.2964 0.52589 1.00715 0.0
O1188 O 0.18337 0.39006 1.016 0.0
O1189 O 0.18975 0.43826 1.02817 0.0
O1190 O 0.25032 0.53453 1.02169 0.0
O1191 O 0.20991 0.50789 0.03772 0.0
H1192 H 0.29026 0.46469 0.07203 0.0
H1193 H 0.29351 0.44252 0.09034 0.0
H1194 H 0.131 0.31895 0.08845 0.0
H1195 H 0.12826 0.34083 0.07015 0.0
H1196 H 0.19361 0.43022 0.9879 0.0
H1197 H 0.17003 0.44962 0.97081 0.0
H1198 H 0.31091 0.60232 0.97119 0.0
H1199 H 0.33391 0.58299 0.9883 0.0
La1200 La 0.26744 0.46495 0.51793 0.0
La1201 La 0.27265 0.45271 0.54225 0.0
C1202 C 0.26796 0.49441 0.49927 0.0
C1203 C 0.29551 0.5048 0.48905 0.0
C1204 C 0.3081 0.46908 0.48441 0.0
C1205 C 0.33009 0.47838 0.47433 0.0
C1206 C 0.34003 0.52361 0.46866 0.0
C1207 C 0.32802 0.55953 0.47346 0.0
C1208 C 0.30607 0.55019 0.48349 0.0
C1209 C 0.29276 0.39367 0.52448 0.0
C1210 C 0.37197 0.54432 0.53062 0.0
C1211 C 0.28609 0.41946 0.55945 0.0
C1212 C 0.26568 0.40184 0.57014 0.0
C1213 C 0.24556 0.42755 0.57626 0.0
C1214 C 0.23556 0.41606 0.58695 0.0
C1215 C 0.2459 0.37899 0.59172 0.0
C1216 C 0.26339 0.3515 0.58541 0.0
C1217 C 0.27317 0.36284 0.57475 0.0
C1218 C 0.23843 0.51901 0.53761 0.0
C1219 C 0.16204 0.39393 0.53072 0.0
O1220 O 0.24046 0.4456 0.50243 0.0
O1221 O 0.29302 0.52661 0.50699 0.0
O1222 O 0.2698 0.39151 0.51571 0.0
O1223 O 0.30492 0.43713 0.52861 0.0
O1224 O 0.34524 0.53305 0.52168 0.0
O1225 O 0.35306 0.51453 0.53908 0.0
O1226 O 0.30458 0.46932 0.5573 0.0
O1227 O 0.26091 0.38834 0.55153 0.0
O1228 O 0.24403 0.50662 0.54709 0.0
O1229 O 0.24997 0.49228 0.53166 0.0
O1230 O 0.19151 0.39235 0.53846 0.0
O1231 O 0.18354 0.42535 0.52249 0.0
H1232 H 0.30038 0.43367 0.48849 0.0
H1233 H 0.33938 0.45012 0.47098 0.0
H1234 H 0.33424 0.59435 0.46934 0.0
H1235 H 0.29623 0.57809 0.48684 0.0
H1236 H 0.23964 0.45799 0.5729 0.0
H1237 H 0.22227 0.43807 0.59158 0.0
H1238 H 0.27089 0.32207 0.58877 0.0
H1239 H 0.28884 0.34264 0.5702 0.0
La1240 La 0.6186 0.82212 0.51697 0.0
La1241 La 0.63198 0.84564 0.54194 0.0
C1242 C 0.59024 0.78307 0.4989 0.0
C1243 C 0.58401 0.79854 0.4882 0.0
C1244 C 0.61799 0.84886 0.48415 0.0
C1245 C 0.61123 0.86175 0.47391 0.0
C1246 C 0.5703 0.82465 0.46749 0.0
C1247 C 0.53621 0.77449 0.47166 0.0
C1248 C 0.54306 0.76168 0.48186 0.0
C1249 C 0.68402 0.92457 0.52184 0.0
C1250 C 0.54435 0.85423 0.52913 0.0
C1251 C 0.66511 0.89305 0.55911 0.0
C1252 C 0.67732 0.88411 0.56987 0.0
C1253 C 0.64511 0.83695 0.57523 0.0
C1254 C 0.65449 0.83185 0.5858 0.0
C1255 C 0.6964 0.87368 0.5912 0.0
C1256 C 0.72945 0.92015 0.58568 0.0
C1257 C 0.71992 0.92527 0.57514 0.0
C1258 C 0.56085 0.74581 0.53742 0.0
C1259 C 0.68968 0.79052 0.53126 0.0
O1260 O 0.63831 0.80232 0.50253 0.0
O1261 O 0.55781 0.78248 0.50601 0.0
O1262 O 0.67269 0.90575 0.51242 0.0
O1263 O 0.65928 0.88531 0.5276 0.0
O1264 O 0.55013 0.82976 0.52092 0.0
O1265 O 0.57829 0.87254 0.53704 0.0
O1266 O 0.61536 0.86786 0.55634 0.0
O1267 O 0.69638 0.89465 0.55159 0.0
O1268 O 0.57368 0.76464 0.54687 0.0
O1269 O 0.58947 0.78303 0.53139 0.0
O1270 O 0.6879 0.8187 0.53924 0.0
O1271 O 0.66286 0.78349 0.52238 0.0
H1272 H 0.64987 0.87811 0.48888 0.0
H1273 H 0.6386 0.90059 0.47098 0.0
H1274 H 0.50366 0.74511 0.46709 0.0
H1275 H 0.51616 0.72271 0.48482 0.0
H1276 H 0.61203 0.80447 0.57132 0.0
H1277 H 0.62865 0.79531 0.58977 0.0
H1278 H 0.76164 0.95343 0.58959 0.0
H1279 H 0.74506 0.9621 0.57119 0.0
La1280 La 0.25763 0.81443 0.51858 0.0
La1281 La 0.24363 0.80708 0.54176 0.0
C1282 C 0.28065 0.81205 0.49948 0.0
C1283 C 0.25987 0.78307 0.4894 0.0
C1284 C 0.23326 0.79808 0.48228 0.0
C1285 C 0.21983 0.77569 0.47224 0.0
C1286 C 0.23295 0.73785 0.46898 0.0
C1287 C 0.25862 0.72207 0.4762 0.0
C1288 C 0.27201 0.74445 0.48624 0.0
C1289 C 0.16103 0.78897 0.52522 0.0
C1290 C 0.22707 0.7072 0.53018 0.0
C1291 C 0.21086 0.80251 0.56024 0.0
C1292 C 0.22282 0.8277 0.57074 0.0
C1293 C 0.2591 0.82439 0.57745 0.0
C1294 C 0.26227 0.83816 0.58802 0.0
C1295 C 0.22938 0.85566 0.59218 0.0
C1296 C 0.19514 0.86167 0.58535 0.0
C1297 C 0.19171 0.84756 0.57478 0.0
C1298 C 0.33733 0.82491 0.53573 0.0
C1299 C 0.29195 0.92001 0.53099 0.0
O1300 O 0.26032 0.83965 0.50307 0.0
O1301 O 0.29114 0.7888 0.50704 0.0
O1302 O 0.18336 0.81555 0.5169 0.0
O1303 O 0.19089 0.77408 0.52892 0.0
O1304 O 0.25144 0.73788 0.52208 0.0
O1305 O 0.20939 0.72424 0.53787 0.0
O1306 O 0.23865 0.78149 0.55715 0.0
O1307 O 0.19958 0.82447 0.55251 0.0
O1308 O 0.3147 0.80293 0.54444 0.0
O1309 O 0.31114 0.84318 0.53148 0.0
O1310 O 0.26527 0.88963 0.539 0.0
O1311 O 0.30053 0.89908 0.52252 0.0
H1312 H 0.22412 0.82839 0.48433 0.0
H1313 H 0.20079 0.78952 0.46691 0.0
H1314 H 0.2688 0.69258 0.47407 0.0
H1315 H 0.2931 0.73237 0.49144 0.0
H1316 H 0.28352 0.80896 0.57466 0.0
H1317 H 0.28957 0.83373 0.59302 0.0
H1318 H 0.16889 0.87458 0.5883 0.0
H1319 H 0.16283 0.84978 0.56987 0.0
La1320 La 0.13658 0.58019 0.37644 0.0
La1321 La 0.13268 0.58928 0.35315 0.0
C1322 C 0.15934 0.5806 0.39564 0.0
C1323 C 0.1688 0.60989 0.40572 0.0
C1324 C 0.12813 0.59415 0.4131 0.0
C1325 C 0.13818 0.61666 0.42313 0.0
C1326 C 0.18934 0.65535 0.42613 0.0
C1327 C 0.22982 0.67188 0.41866 0.0
C1328 C 0.21974 0.64939 0.40862 0.0
C1329 C 0.06644 0.60582 0.36938 0.0
C1330 C 0.21567 0.68806 0.36535 0.0
C1331 C 0.10504 0.59551 0.33471 0.0
C1332 C 0.08813 0.57007 0.3243 0.0
C1333 C 0.11885 0.55453 0.31852 0.0
C1334 C 0.10781 0.54056 0.30794 0.0
C1335 C 0.06585 0.54182 0.30288 0.0
C1336 C 1.03366 0.55484 0.30885 0.0
C1337 C 1.04478 0.56889 0.3194 0.0
C1338 C 0.208 0.57148 0.35949 0.0
C1339 C 0.06752 0.47565 0.36363 0.0
O1340 O 0.11147 0.55591 0.3919 0.0
O1341 O 0.19421 0.60199 0.38819 0.0
O1342 O 0.0607 0.57839 0.37766 0.0
O1343 O 0.11184 0.62124 0.36596 0.0
O1344 O 0.20668 0.65722 0.37354 0.0
O1345 O 0.18358 0.67177 0.3572 0.0
O1346 O 0.15349 0.61158 0.33758 0.0
O1347 O 0.07206 0.57702 0.34257 0.0
O1348 O 0.20818 0.59378 0.35076 0.0
O1349 O 0.16298 0.55277 0.36356 0.0
O1350 O 0.07198 0.50606 0.35557 0.0
O1351 O 0.09602 0.49633 0.37222 0.0
H1352 H 0.08863 0.56313 0.41125 0.0
H1353 H 0.10604 0.60225 0.42867 0.0
H1354 H 0.26958 0.70202 0.42058 0.0
H1355 H 0.25225 0.66212 0.40321 0.0
H1356 H 0.15268 0.55514 0.32204 0.0
H1357 H 0.13294 0.52995 0.30365 0.0
H1358 H 1.0014 0.55689 0.30524 0.0
H1359 H 1.02091 0.58139 0.32362 0.0
La1360 La 0.49461 0.57375 0.37657 0.0
La1361 La 0.48331 0.55445 0.35346 0.0
C1362 C 0.49562 0.60194 0.3954 0.0
C1363 C 0.46646 0.58531 0.40547 0.0
C1364 C 0.45625 0.53883 0.41061 0.0
C1365 C 0.43409 0.52742 0.42068 0.0
C1366 C 0.42179 0.56227 0.42588 0.0
C1367 C 0.43076 0.60798 0.42056 0.0
C1368 C 0.45285 0.61932 0.41052 0.0
C1369 C 0.46734 0.47581 0.37058 0.0
C1370 C 0.38573 0.54202 0.36543 0.0
C1371 C 0.4763 0.51658 0.33536 0.0
C1372 C 0.50172 0.52503 0.32496 0.0
C1373 C 0.51063 0.56775 0.3186 0.0
C1374 C 0.52472 0.56947 0.30807 0.0
C1375 C 0.53034 0.52862 0.30366 0.0
C1376 C 0.52408 0.48737 0.31019 0.0
C1377 C 0.50976 0.48554 0.3207 0.0
C1378 C 0.50254 0.64948 0.35869 0.0
C1379 C 0.59799 0.605 0.36372 0.0
O1380 O 0.51929 0.57693 0.39212 0.0
O1381 O 0.47416 0.61368 0.38769 0.0
O1382 O 0.4952 0.49936 0.37874 0.0
O1383 O 0.45229 0.50525 0.36675 0.0
O1384 O 0.41742 0.56638 0.37342 0.0
O1385 O 0.40117 0.52349 0.3576 0.0
O1386 O 0.458 0.54744 0.33797 0.0
O1387 O 0.49676 0.50523 0.34335 0.0
O1388 O 0.47886 0.62468 0.35024 0.0
O1389 O 0.52136 0.62419 0.36316 0.0
O1390 O 0.56653 0.57742 0.35587 0.0
O1391 O 0.57846 0.6148 0.37224 0.0
H1392 H 0.46653 0.51186 0.40698 0.0
H1393 H 0.42823 0.49207 0.42451 0.0
H1394 H 0.421 0.63535 0.42418 0.0
H1395 H 0.46047 0.65553 0.40679 0.0
H1396 H 0.50467 0.59885 0.32161 0.0
H1397 H 0.53 0.60222 0.30332 0.0
H1398 H 0.52754 0.45496 0.30706 0.0
H1399 H 0.50249 0.45183 0.32537 0.0
La1400 La 0.50682 0.93684 0.37665 0.0
La1401 La 0.51419 0.94316 0.35366 0.0
C1402 C 0.4862 0.91087 0.39573 0.0
C1403 C 0.50558 0.89753 0.40535 0.0
C1404 C 0.55042 0.9353 0.41078 0.0
C1405 C 0.56383 0.92349 0.42055 0.0
C1406 C 0.53273 0.87368 0.42515 0.0
C1407 C 0.4887 0.83563 0.41955 0.0
C1408 C 0.47529 0.84747 0.40982 0.0
C1409 C 0.6016 1.00851 0.36945 0.0
C1410 C 0.53191 0.85752 0.36388 0.0
C1411 C 0.53113 0.96782 0.3347 0.0
C1412 C 0.53863 0.98117 0.32344 0.0
C1413 C 0.49464 0.96458 0.31689 0.0
C1414 C 0.50089 0.97551 0.30619 0.0
C1415 C 0.55133 1.00339 0.30175 0.0
C1416 C 0.59543 1.02039 0.30833 0.0
C1417 C 0.58913 1.00938 0.31906 0.0
C1418 C 0.4239 0.86562 0.36066 0.0
C1419 C 0.47608 1.01165 0.36547 0.0
O1420 O 0.51136 0.95945 0.39241 0.0
O1421 O 0.47015 0.87724 0.38798 0.0
O1422 O 0.58019 1.01302 0.37792 0.0
O1423 O 0.57136 0.9636 0.36574 0.0
O1424 O 0.51712 0.86909 0.37284 0.0
O1425 O 0.54001 0.88625 0.3554 0.0
O1426 O 0.48419 0.94265 0.33881 0.0
O1427 O 0.56949 0.98003 0.34137 0.0
O1428 O 0.44756 0.86405 0.35227 0.0
O1429 O 0.44894 0.91136 0.36454 0.0
O1430 O 0.50687 1.01167 0.35795 0.0
O1431 O 0.46298 0.97766 0.37325 0.0
H1432 H 0.57456 0.9744 0.40762 0.0
H1433 H 0.59842 0.95361 0.42453 0.0
H1434 H 0.4633 0.79711 0.42286 0.0
H1435 H 0.44007 0.81779 0.40592 0.0
H1436 H 0.45513 0.94254 0.32 0.0
H1437 H 0.46604 0.96108 0.30137 0.0
H1438 H 0.63488 0.04252 0.3052 0.0
H1439 H 0.62375 1.02275 0.32392 0.0
C1440 C 0.22055 0.15049 0.18536 0.0
C1441 C 0.19913 0.16891 0.19297 0.0
H1442 H 0.24049 0.09224 0.18099 0.0
C1443 C 0.18449 0.14308 0.20265 0.0
H1444 H 0.23226 0.16959 0.17781 0.0
C1445 C 0.18867 0.09814 0.20447 0.0
C1446 C 0.20823 0.07843 0.19668 0.0
H1447 H 0.16748 0.15598 0.20861 0.0
H1448 H 0.17493 0.07787 0.21186 0.0
C1449 C 0.22543 0.10613 0.1872 0.0
C1450 C 0.98966 0.12274 0.18632 0.0
C1451 C 1.00809 0.14174 0.19645 0.0
H1452 H 0.93479 0.05844 0.17685 0.0
C1453 C 0.98 0.11021 0.20505 0.0
H1454 H 1.0103 0.14553 0.1795 0.0
C1455 C 0.93538 0.06025 0.20349 0.0
C1456 C 0.91922 0.04039 0.19333 0.0
H1457 H 0.99314 0.12365 0.21295 0.0
H1458 H 0.91518 0.03633 0.21021 0.0
C1459 C 0.94636 0.07256 0.18479 0.0
C1460 C 1.01095 0.89215 0.18457 0.0
C1461 C 1.04394 0.89788 0.19302 0.0
H1462 H 0.93665 0.88065 0.17953 0.0
C1463 C 1.02463 0.89339 0.20324 0.0
H1464 H 1.02453 0.89508 0.17659 0.0
C1465 C 0.97426 0.88655 0.20496 0.0
C1466 C 0.94181 0.88195 0.19646 0.0
H1467 H 0.04897 0.89707 0.20987 0.0
H1468 H 0.96101 0.88551 0.21291 0.0
C1469 C 0.96033 0.88353 0.18626 0.0
C1470 C 0.15638 0.18069 0.37491 0.0
C1471 C 0.18011 0.17078 0.36635 0.0
H1472 H 0.09499 0.1936 0.38034 0.0
C1473 C 0.16098 0.17009 0.35625 0.0
H1474 H 0.17034 0.18149 0.38279 0.0
C1475 C 0.11657 0.17575 0.35484 0.0
C1476 C 0.09164 0.18373 0.36349 0.0
H1477 H 0.17839 0.16231 0.34954 0.0
H1478 H 0.10089 0.17238 0.34703 0.0
C1479 C 0.11322 0.18782 0.37349 0.0
C1480 C 0.89401 0.94699 0.35539 0.0
C1481 C 0.89003 0.91569 0.36407 0.0
H1482 H 0.9053 1.0214 0.35002 0.0
C1483 C 0.89095 0.93536 0.37414 0.0
H1484 H 0.8935 0.93307 0.34751 0.0
C1485 C 0.89912 0.98608 0.37553 0.0
C1486 C 0.90521 1.01816 0.36691 0.0
H1487 H 0.88837 0.91277 0.38103 0.0
H1488 H 0.90208 1.00076 0.38343 0.0
C1489 C 0.90078 0.99755 0.3568 0.0
C1490 C 0.0743 0.91986 0.35525 0.0
C1491 C 0.05472 0.90203 0.36534 0.0
H1492 H 0.13845 0.97803 0.34606 0.0
C1493 C 0.08788 0.92597 0.37397 0.0
H1494 H 0.04974 0.90202 0.34848 0.0
C1495 C 0.13883 0.96795 0.3726 0.0
C1496 C 0.1576 0.9882 0.36259 0.0
H1497 H 0.07401 0.91286 0.38184 0.0
H1498 H 0.16251 0.98626 0.3795 0.0
C1499 C 0.1251 0.96328 0.35388 0.0
C1500 C 0.8815 0.91547 0.87573 0.0
C1501 C 0.90265 0.8967 0.86815 0.0
H1502 H 0.86218 0.97399 0.88007 0.0
C1503 C 0.91773 0.92258 0.85847 0.0
H1504 H 0.86941 0.89635 0.88327 0.0
C1505 C 0.91412 0.96787 0.85662 0.0
C1506 C 0.89483 0.98792 0.86439 0.0
H1507 H 0.93466 0.90945 0.85253 0.0
H1508 H 0.92817 0.98816 0.84923 0.0
C1509 C 0.8773 0.96013 0.87387 0.0
C1510 C 0.16517 0.97928 0.87581 0.0
C1511 C 0.184 1.01844 0.86811 0.0
H1512 H 0.10632 0.90191 0.88033 0.0
C1513 C 0.15825 1.00686 0.8584 0.0
H1514 H 0.18428 0.98699 0.88338 0.0
C1515 C 0.11287 0.95794 0.85663 0.0
C1516 C 0.09266 0.91941 0.86452 0.0
H1517 H 0.17153 0.03636 0.85237 0.0
H1518 H 0.09264 0.9511 0.84921 0.0
C1519 C 0.12038 0.93033 0.87403 0.0
C1520 C 0.10207 0.20003 0.87509 0.0
C1521 C 0.06165 0.17782 0.86762 0.0
H1522 H 0.18012 0.21976 0.87936 0.0
C1523 C 0.07174 0.16132 0.85801 0.0
H1524 H 0.09554 0.21322 0.88257 0.0
C1525 C 0.1205 0.1645 0.85616 0.0
C1526 C 0.16031 0.18477 0.86386 0.0
H1527 H 1.04123 0.14359 0.85215 0.0
H1528 H 0.12623 0.14931 0.84886 0.0
C1529 C 0.15076 0.20383 0.87323 0.0
C1530 C 0.93789 0.89627 0.70425 0.0
C1531 C 0.91919 0.89487 0.69408 0.0
H1532 H 0.99676 0.89316 0.71375 0.0
C1533 C 0.94225 0.88286 0.6857 0.0
H1534 H 0.92094 0.90565 0.71084 0.0
C1535 C 0.98431 0.87424 0.68737 0.0
C1536 C 1.00552 0.87894 0.69743 0.0
H1537 H 0.92857 0.88144 0.67778 0.0
H1538 H 1.00205 0.86681 0.68064 0.0
C1539 C 0.98128 0.88917 0.70591 0.0
C1540 C 0.19947 0.11319 0.70596 0.0
C1541 C 0.20399 0.14497 0.69734 0.0
H1542 H 0.18813 0.0386 0.71116 0.0
C1543 C 0.20389 0.12615 0.68723 0.0
H1544 H 0.19945 0.12658 0.71386 0.0
C1545 C 0.19596 0.07564 0.68572 0.0
C1546 C 0.18936 0.04309 0.69428 0.0
H1547 H 0.20695 0.14923 0.68039 0.0
H1548 H 0.19358 0.06151 0.6778 0.0
C1549 C 0.19301 0.06288 0.70444 0.0
C1550 C 0.95091 0.1105 0.68749 0.0
C1551 C 0.93974 0.08072 0.69671 0.0
H1552 H 1.00795 0.17589 0.67857 0.0
C1553 C 0.9786 0.09869 0.70457 0.0
H1554 H 0.92225 0.0982 0.68123 0.0
C1555 C 1.02802 0.14396 0.70304 0.0
C1556 C 1.03973 0.17193 0.69359 0.0
H1557 H 0.97161 0.07674 0.71176 0.0
H1558 H 0.05776 0.1554 0.70901 0.0
C1559 C 1.00023 0.15519 0.68594 0.0
C1560 C 0.84956 0.43286 0.53821 0.0
C1561 C 0.86836 0.41324 0.53025 0.0
H1562 H 0.83019 0.49156 0.54272 0.0
C1563 C 0.88638 0.44211 0.52091 0.0
H1564 H 0.83519 0.41176 0.5455 0.0
C1565 C 0.88316 0.48756 0.51936 0.0
C1566 C 0.86251 0.50596 0.52712 0.0
H1567 H 0.90113 0.42857 0.51458 0.0
H1568 H 0.89559 0.50759 0.51191 0.0
C1569 C 0.84687 0.47884 0.53666 0.0
C1570 C 0.60225 0.39906 0.53831 0.0
C1571 C 0.58853 0.37779 0.52819 0.0
H1572 H 0.65748 0.46422 0.54776 0.0
C1573 C 0.61689 0.40897 0.51964 0.0
H1574 H 0.58074 0.37607 0.54503 0.0
C1575 C 0.65915 0.45965 0.52113 0.0
C1576 C 0.67521 0.48004 0.53126 0.0
H1577 H 0.60697 0.39382 0.51173 0.0
H1578 H 0.68095 0.48176 0.51434 0.0
C1579 C 0.64598 0.44951 0.53986 0.0
C1580 C 0.6387 0.22912 0.53757 0.0
C1581 C 0.60073 0.21237 0.52952 0.0
H1582 H 0.71698 0.24819 0.542 0.0
C1583 C 0.61266 0.19781 0.51986 0.0
H1584 H 0.63112 0.24077 0.54511 0.0
C1585 C 0.66192 0.20263 0.5181 0.0
C1586 C 0.70059 0.22152 0.52596 0.0
H1587 H 0.58477 0.18471 0.51346 0.0
H1588 H 0.67027 0.1929 0.51043 0.0
C1589 C 0.68802 0.23339 0.53581 0.0
C1590 C 0.82601 0.51931 0.70856 0.0
C1591 C 0.84942 0.50859 0.70006 0.0
H1592 H 0.76481 0.53249 0.71396 0.0
C1593 C 0.82969 0.50678 0.68997 0.0
H1594 H 0.84036 0.52097 0.71644 0.0
C1595 C 0.7851 0.5122 0.68853 0.0
C1596 C 0.7604 0.52089 0.69714 0.0
H1597 H 0.84676 0.49827 0.68328 0.0
H1598 H 0.76908 0.50801 0.68073 0.0
C1599 C 0.78262 0.52606 0.70712 0.0
C1600 C 0.57485 0.29365 0.68978 0.0
C1601 C 0.55937 0.25614 0.69785 0.0
H1602 H 0.59312 0.37152 0.68539 0.0
C1603 C 0.54662 0.2687 0.70765 0.0
H1604 H 0.58505 0.28558 0.68214 0.0
C1605 C 0.55195 0.31814 0.70949 0.0
C1606 C 0.5695 0.35632 0.70158 0.0
H1607 H 0.53459 0.24118 0.71408 0.0
H1608 H 0.54363 0.32698 0.71725 0.0
C1609 C 0.57953 0.34306 0.69162 0.0
C1610 C 0.79674 0.30054 0.68819 0.0
C1611 C 0.82795 0.32595 0.69702 0.0
H1612 H 0.72183 0.23951 0.68252 0.0
C1613 C 0.80756 0.30684 0.70701 0.0
H1614 H 0.81143 0.31448 0.6804 0.0
C1615 C 0.75614 0.26553 0.70819 0.0
C1616 C 0.72426 0.24125 0.69942 0.0
H1617 H 0.83027 0.32565 0.71398 0.0
H1618 H 0.74094 0.25323 0.71602 0.0
C1619 C 0.74548 0.25781 0.68939 0.0
C1620 C 0.57518 0.25124 0.19041 0.0
C1621 C 0.57939 0.23523 0.20053 0.0
H1622 H 0.56862 0.30859 0.18108 0.0
C1623 C 0.57409 0.26196 0.20914 0.0
H1624 H 0.57909 0.23134 0.18364 0.0
C1625 C 0.56656 0.30484 0.20771 0.0
C1626 C 0.56561 0.32322 0.19762 0.0
H1627 H 0.57699 0.25043 0.21705 0.0
H1628 H 0.56432 0.32529 0.21458 0.0
C1629 C 0.5692 0.29545 0.18896 0.0
C1630 C 0.82931 0.33927 0.18983 0.0
C1631 C 0.84805 0.35715 0.19999 0.0
H1632 H 0.77006 0.27692 0.18041 0.0
C1633 C 0.82457 0.32278 0.20843 0.0
H1634 H 0.84664 0.36504 0.18321 0.0
C1635 C 0.78211 0.27222 0.20684 0.0
C1636 C 0.76093 0.25514 0.19678 0.0
H1637 H 0.83826 0.33548 0.21635 0.0
H1638 H 0.76413 0.24758 0.21361 0.0
C1639 C 0.78549 0.28889 0.18825 0.0
C1640 C 0.81866 0.54175 0.20675 0.0
C1641 C 0.82868 0.52271 0.19744 0.0
H1642 H 0.76265 0.55023 0.21603 0.0
C1643 C 0.78888 0.50135 0.18976 0.0
H1644 H 0.84807 0.55844 0.21287 0.0
C1645 C 0.73967 0.49718 0.19157 0.0
C1646 C 0.72913 0.51377 0.20112 0.0
H1647 H 0.79501 0.48608 0.1825 0.0
H1648 H 0.70918 0.4786 0.18574 0.0
C1649 C 0.76952 0.53699 0.20859 0.0
C1650 C 0.64823 0.20889 1.02033 0.0
C1651 C 0.66959 0.21234 1.03033 0.0
H1652 H 0.59189 0.21648 1.01103 0.0
C1653 C 0.6449 0.22058 0.03899 0.0
H1654 H 0.6662 0.20288 1.01346 0.0
C1655 C 0.601 0.22713 0.03758 0.0
C1656 C 0.58218 0.22711 1.02748 0.0
H1657 H 0.6604 0.2235 0.0468 0.0
H1658 H 0.58372 0.23501 0.04431 0.0
C1659 C 0.60563 0.21689 1.01891 0.0
C1660 C 0.86885 0.41317 1.01973 0.0
C1661 C 0.85459 0.37768 1.02808 0.0
H1662 H 0.88557 0.48899 1.01454 0.0
C1663 C 0.84996 0.39436 0.03812 0.0
H1664 H 0.87265 0.40135 1.0119 0.0
C1665 C 0.85617 0.44462 0.03964 0.0
C1666 C 0.86842 0.47941 0.03116 0.0
H1667 H 0.83858 0.36765 0.04467 0.0
H1668 H 0.84971 0.45554 0.04736 0.0
C1669 C 0.87637 0.46356 1.02127 0.0
C1670 C 0.62125 0.43265 1.0203 0.0
C1671 C 0.60289 0.41273 1.03035 0.0
H1672 H 0.68563 0.48798 1.01097 0.0
C1673 C 0.63521 0.43874 0.03902 0.0
H1674 H 0.59767 0.4135 1.01344 0.0
C1675 C 0.68557 0.4827 0.03759 0.0
C1676 C 0.70489 0.50012 1.02746 0.0
H1677 H 0.62217 0.42429 0.04687 0.0
H1678 H 0.71023 0.50116 0.04433 0.0
C1679 C 0.67184 0.47527 1.01887 0.0
C1680 C 0.51997 0.80459 0.87254 0.0
C1681 C 0.51818 0.82288 0.86251 0.0
H1682 H 0.52644 0.74634 0.88154 0.0
C1683 C 0.52836 0.80012 0.85381 0.0
H1684 H 0.51235 0.82146 0.87937 0.0
C1685 C 0.53807 0.75851 0.85503 0.0
C1686 C 0.53633 0.73761 0.86499 0.0
H1687 H 0.52752 0.81368 0.84597 0.0
H1688 H 0.54376 0.74072 0.8481 0.0
C1689 C 0.52813 0.76168 0.87376 0.0
C1690 C 0.26485 0.75127 0.85308 0.0
C1691 C 0.24663 0.71093 0.86053 0.0
H1692 H 0.323 0.82946 0.84889 0.0
C1693 C 0.27294 0.72137 0.87018 0.0
H1694 H 0.24536 0.74455 0.84557 0.0
C1695 C 0.31827 0.77033 0.8721 0.0
C1696 C 0.33791 0.81001 0.86442 0.0
H1697 H 0.2602 0.69097 0.87602 0.0
H1698 H 0.33903 0.77625 0.87942 0.0
C1699 C 0.30953 0.80016 0.85501 0.0
C1700 C 0.35392 0.55438 0.87049 0.0
C1701 C 0.37502 0.56149 0.86036 0.0
H1702 H 0.28954 0.546 0.87999 0.0
C1703 C 0.34389 0.5597 0.85185 0.0
H1704 H 0.37656 0.55485 0.87717 0.0
C1705 C 0.29375 0.55268 0.85339 0.0
C1706 C 0.27359 0.5487 0.86352 0.0
H1707 H 0.35868 0.56466 0.84393 0.0
H1708 H 0.27181 0.55296 0.84661 0.0
C1709 C 0.30401 0.5491 0.87208 0.0
C1710 C 0.48668 0.85063 0.04059 0.0
C1711 C 0.5081 0.83889 0.03188 0.0
H1712 H 0.42817 0.86693 0.0464 0.0
C1713 C 0.48828 0.83885 1.02189 0.0
H1714 H 0.50146 0.85128 0.04838 0.0
C1715 C 0.44515 0.84675 1.02075 0.0
C1716 C 0.42233 0.85634 1.02956 0.0
H1717 H 0.50414 0.83001 1.01506 0.0
H1718 H 0.42867 0.84372 1.01303 0.0
C1719 C 0.44481 0.85993 0.03943 0.0
C1720 C 0.22834 0.65932 0.04219 0.0
C1721 C 0.23821 0.69262 0.0336 0.0
H1722 H 0.21552 0.58528 0.04772 0.0
C1723 C 0.23863 0.67371 1.02353 0.0
H1724 H 0.22774 0.67284 0.05006 0.0
C1725 C 0.23289 0.62358 1.02218 0.0
C1726 C 0.22514 0.59109 0.03087 0.0
H1727 H 0.24634 0.6986 1.01678 0.0
H1728 H 0.23613 0.61094 1.01439 0.0
C1729 C 0.22117 0.60897 0.04084 0.0
C1730 C 0.42312 0.59936 0.04267 0.0
C1731 C 0.39085 0.57168 0.03414 0.0
H1732 H 0.49648 0.66315 0.04792 0.0
C1733 C 0.41112 0.58635 1.02398 0.0
H1734 H 0.40875 0.58888 0.0506 0.0
C1735 C 0.46153 0.6302 1.0224 0.0
C1736 C 0.49309 0.65904 0.03097 0.0
H1737 H 0.38718 0.56566 1.01727 0.0
H1738 H 0.4752 0.64233 1.01448 0.0
C1739 C 0.47371 0.64192 0.04112 0.0
C1740 C 0.20788 0.58138 0.54244 0.0
C1741 C 0.22881 0.56248 0.53484 0.0
H1742 H 0.18976 0.64064 0.54685 0.0
C1743 C 0.24461 0.58869 0.5252 0.0
H1744 H 0.19527 0.56195 0.54994 0.0
C1745 C 0.24213 0.63466 0.52343 0.0
C1746 C 0.2231 0.65479 0.53123 0.0
H1747 H 0.26119 0.57521 0.51924 0.0
H1748 H 0.25674 0.65532 0.5161 0.0
C1749 C 0.20469 0.62661 0.54064 0.0
C1750 C 0.49726 0.65408 0.54272 0.0
C1751 C 0.51692 0.69234 0.53483 0.0
H1752 H 0.43762 0.57778 0.54754 0.0
C1753 C 0.49112 0.67995 0.5251 0.0
H1754 H 0.51629 0.66229 0.5503 0.0
C1755 C 0.44509 0.63106 0.52349 0.0
C1756 C 0.42424 0.59351 0.53158 0.0
H1757 H 0.50502 0.70875 0.51892 0.0
H1758 H 0.42492 0.6235 0.51605 0.0
C1759 C 0.4519 0.6054 0.54111 0.0
C1760 C 0.47819 0.86096 0.5403 0.0
C1761 C 0.49456 0.85545 0.53028 0.0
H1762 H 0.4156 0.85512 0.54982 0.0
C1763 C 0.46022 0.84534 0.52177 0.0
H1764 H 0.5032 0.86842 0.54706 0.0
C1765 C 0.40994 0.83891 0.52337 0.0
C1766 C 0.39279 0.84105 0.53351 0.0
H1767 H 0.47156 0.84081 0.51395 0.0
H1768 H 0.38359 0.82939 0.51678 0.0
C1769 C 0.42777 0.85314 0.54191 0.0
C1770 C 0.2665 0.53853 0.35336 0.0
C1771 C 0.24665 0.5545 0.3617 0.0
H1772 H 0.32459 0.52046 0.34807 0.0
C1773 C 0.26915 0.56062 0.37166 0.0
H1774 H 0.24991 0.53361 0.34559 0.0
C1775 C 0.31309 0.55418 0.37308 0.0
C1776 C 0.33441 0.54039 0.36459 0.0
H1777 H 0.25492 0.57344 0.37819 0.0
H1778 H 0.33148 0.56188 0.38071 0.0
C1779 C 0.30933 0.53089 0.35481 0.0
C1780 C 0.52436 0.73671 0.35165 0.0
C1781 C 0.51887 0.70548 0.36038 0.0
H1782 H 0.53435 0.80921 0.34591 0.0
C1783 C 0.52356 0.72683 0.37043 0.0
H1784 H 0.52121 0.72145 0.3438 0.0
C1785 C 0.53004 0.77736 0.37168 0.0
C1786 C 0.53327 0.80773 0.36289 0.0
H1787 H 0.51946 0.70358 0.37728 0.0
H1788 H 0.53085 0.79192 0.37951 0.0
C1789 C 0.5321 0.78729 0.35288 0.0
C1790 C 0.28306 0.76408 0.355 0.0
C1791 C 0.26538 0.73948 0.36475 0.0
H1792 H 0.34721 0.82312 0.34614 0.0
C1793 C 0.29858 0.76129 0.37352 0.0
H1794 H 0.25885 0.74847 0.34807 0.0
C1795 C 0.34928 0.80518 0.37241 0.0
C1796 C 0.36784 0.82709 0.3625 0.0
H1797 H 0.2862 0.74328 0.38114 0.0
H1798 H 0.37488 0.81983 0.37916 0.0
C1799 C 0.33384 0.80688 0.35388 0.0
C1800 C 0.34882 0.39393 0.18607 0.0
C1801 C 0.32732 0.36974 0.19574 0.0
H1802 H 0.41732 0.43509 0.17653 0.0
C1803 C 0.36246 0.37272 0.20362 0.0
H1804 H 0.32374 0.39289 0.17976 0.0
C1805 C 0.41724 0.398 0.20173 0.0
C1806 C 0.43784 0.42023 0.19189 0.0
H1807 H 0.34762 0.35458 0.21115 0.0
H1808 H 0.44312 0.39852 0.20782 0.0
C1809 C 0.4029 0.41831 0.18418 0.0
C1810 C 0.68799 0.03497 0.20099 0.0
C1811 C 0.65456 1.02404 0.19232 0.0
H1812 H 0.74006 1.01668 0.20937 0.0
C1813 C 0.64671 0.98289 0.18556 0.0
H1814 H 0.69489 0.06636 0.20636 0.0
C1815 C 0.67296 0.95454 0.18723 0.0
C1816 C 0.70741 0.96621 0.19577 0.0
H1817 H 0.62119 0.97337 0.17882 0.0
H1818 H 0.66684 0.92399 0.18171 0.0
C1819 C 0.71385 1.00632 0.20273 0.0
C1820 C 0.12537 0.7336 0.18722 0.0
C1821 C 0.11514 0.75702 0.19585 0.0
H1822 H 0.1062 0.66238 0.179 0.0
C1823 C 0.0771 0.7237 0.20315 0.0
H1824 H 0.15437 0.75769 0.18143 0.0
C1825 C 0.04895 0.66883 0.20168 0.0
C1826 C 0.05851 0.64573 0.19292 0.0
H1827 H 0.06787 0.74006 0.20988 0.0
H1828 H 1.01911 0.64453 0.20731 0.0
C1829 C 0.09771 0.67878 0.18582 0.0
C1830 C 0.38495 0.34157 0.35772 0.0
C1831 C 0.39085 0.30787 0.36472 0.0
H1832 H 0.40403 0.42058 0.35412 0.0
C1833 C 0.42446 0.33058 0.37339 0.0
H1834 H 0.35938 0.32576 0.35098 0.0
C1835 C 0.45045 0.38517 0.37512 0.0
C1836 C 0.44309 0.41847 0.36831 0.0
H1837 H 0.43013 0.30608 0.37894 0.0
H1838 H 0.47535 0.40114 0.38196 0.0
C1839 C 0.41049 0.39606 0.35953 0.0
C1840 C 0.68145 1.02762 0.35875 0.0
C1841 C 0.65911 0.04019 0.36721 0.0
H1842 H 0.75194 0.04339 0.35068 0.0
C1843 C 0.69277 0.08168 0.37388 0.0
H1844 H 0.65672 0.99583 0.35348 0.0
C1845 C 0.74748 0.10869 0.37236 0.0
C1846 C 0.77009 0.09534 0.36405 0.0
H1847 H 0.67695 0.09249 0.38047 0.0
H1848 H 0.77212 0.13955 0.37781 0.0
C1849 C 0.73616 0.05499 0.35716 0.0
C1850 C 0.96188 0.6459 0.3711 0.0
C1851 C 0.97566 0.68203 0.36282 0.0
H1852 H 0.97915 0.59333 0.37956 0.0
C1853 C 1.01759 0.69 0.35627 0.0
H1854 H 0.92988 0.63855 0.37632 0.0
C1855 C 1.04625 0.66429 0.35822 0.0
C1856 C 1.03347 0.62965 0.36671 0.0
H1857 H 1.02962 0.71762 0.34985 0.0
H1858 H 0.07924 0.67251 0.35321 0.0
C1859 C 0.99022 0.61993 0.37298 0.0
C1860 C 0.68181 0.66592 0.86008 0.0
C1861 C 0.66142 0.64261 0.86986 0.0
H1862 H 0.75107 0.71036 0.85063 0.0
C1863 C 0.69663 0.64422 0.87747 0.0
H1864 H 0.65577 0.66577 0.85408 0.0
C1865 C 0.75073 0.66917 0.87552 0.0
C1866 C 0.77193 0.69412 0.86589 0.0
H1867 H 0.68239 0.62671 0.88508 0.0
H1868 H 0.77607 0.66987 0.88174 0.0
C1869 C 0.73651 0.69159 0.85813 0.0
C1870 C 0.41413 0.09735 0.87509 0.0
C1871 C 0.38684 0.09093 0.86564 0.0
H1872 H 0.45879 0.07398 0.88464 0.0
C1873 C 0.38735 0.05578 0.85815 0.0
H1874 H 0.415 0.12376 0.88111 0.0
C1875 C 0.41331 1.02717 0.86021 0.0
C1876 C 0.43914 0.03285 0.86981 0.0
H1877 H 0.3666 0.04932 0.85081 0.0
H1878 H 0.41126 0.99912 0.85448 0.0
C1879 C 0.43945 0.06864 0.87715 0.0
C1880 C 0.98679 0.33011 0.87522 0.0
C1881 C 0.98957 0.30861 0.86554 0.0
H1882 H 1.01355 0.39862 0.88479 0.0
C1883 C 1.02154 0.34388 0.85767 0.0
H1884 H 0.96289 0.30498 0.88153 0.0
C1885 C 0.05067 0.39875 0.85957 0.0
C1886 C 0.04885 0.41937 0.86942 0.0
H1887 H 1.02494 0.32909 0.85012 0.0
H1888 H 0.07587 0.42469 0.85348 0.0
C1889 C 1.01606 0.38426 0.87712 0.0
C1890 C 0.68249 0.66745 0.70113 0.0
C1891 C 0.66078 0.64639 0.69127 0.0
H1892 H 0.72475 0.73725 0.71058 0.0
C1893 C 0.66286 0.68109 0.68348 0.0
H1894 H 0.68207 0.64195 0.70728 0.0
C1895 C 0.68682 0.73531 0.68535 0.0
C1896 C 0.71022 0.75706 0.69507 0.0
H1897 H 0.64655 0.66634 0.67579 0.0
H1898 H 0.68817 0.76035 0.67901 0.0
C1899 C 0.70711 0.72218 0.703 0.0
C1900 C 0.41638 0.03516 0.7011 0.0
C1901 C 0.43637 1.03103 0.69137 0.0
H1902 H 0.34781 1.0107 0.71069 0.0
C1903 C 0.40106 0.99544 0.68397 0.0
H1904 H 0.44223 0.06306 0.70687 0.0
C1905 C 0.34713 0.96543 0.68612 0.0
C1906 C 0.32651 0.97051 0.69571 0.0
H1907 H 0.41508 0.99135 0.67639 0.0
H1908 H 0.32141 0.93929 0.68008 0.0
C1909 C 0.36206 1.00532 0.70324 0.0
C1910 C 0.10187 0.43847 0.68729 0.0
C1911 C 0.05937 0.42927 0.69373 0.0
H1912 H 0.16128 0.4191 0.68361 0.0
C1913 C 1.04651 0.39393 0.70212 0.0
H1914 H 0.11299 0.46553 0.68079 0.0
C1915 C 0.0746 0.36735 0.70382 0.0
C1916 C 0.11601 0.37514 0.69712 0.0
H1917 H 1.01405 0.38604 0.70725 0.0
H1918 H 0.06276 0.33949 0.71019 0.0
C1919 C 0.12959 0.41168 0.68892 0.0
C1920 C 1.01592 0.7458 0.52236 0.0
C1921 C 0.99269 0.71026 0.53071 0.0
H1922 H 0.08675 0.79869 0.51418 0.0
C1923 C 1.02609 0.70328 0.53761 0.0
H1924 H 0.99182 0.75257 0.51688 0.0
C1925 C 0.08083 0.72966 0.53599 0.0
C1926 C 0.10362 0.764 0.52747 0.0
H1927 H 1.00988 0.67624 0.54411 0.0
H1928 H 0.10523 0.72243 0.5413 0.0
C1929 C 0.07055 0.77241 0.5208 0.0
C1930 C 0.37518 0.34229 0.5377 0.0
C1931 C 0.36855 0.30174 0.53083 0.0
H1932 H 0.35686 0.40318 0.5411 0.0
C1933 C 0.33395 0.28985 0.52231 0.0
H1934 H 0.40159 0.35294 0.54432 0.0
C1935 C 0.30823 0.31855 0.5205 0.0
C1936 C 0.31644 0.36032 0.52711 0.0
H1937 H 0.3276 0.25904 0.51683 0.0
H1938 H 0.2829 0.30884 0.51372 0.0
C1939 C 0.34959 0.37128 0.53584 0.0
C1940 C 0.71515 1.00206 0.53446 0.0
C1941 C 0.71682 0.98154 0.5246 0.0
H1942 H 0.74032 0.07154 0.54391 0.0
C1943 C 0.74853 1.01686 0.51681 0.0
H1944 H 0.69073 0.97597 0.54061 0.0
C1945 C 0.77707 0.0711 0.51868 0.0
C1946 C 0.77455 0.09239 0.52841 0.0
H1947 H 0.75084 1.00255 0.50912 0.0
H1948 H 0.80022 0.09645 0.51233 0.0
C1949 C 0.7435 0.05692 0.53633 0.0
C1950 C 0.12115 0.72306 0.70862 0.0
C1951 C 0.11386 0.75609 0.70173 0.0
H1952 H 0.10056 0.64416 0.71263 0.0
C1953 C 0.0813 0.7334 0.69295 0.0
H1954 H 0.14604 0.73927 0.71545 0.0
C1955 C 0.05554 0.67882 0.69126 0.0
C1956 C 0.06127 0.64542 0.69836 0.0
H1957 H 0.075 0.75778 0.68747 0.0
H1958 H 1.0299 0.66271 0.68453 0.0
C1959 C 0.09499 0.66844 0.707 0.0
C1960 C 0.35038 0.36565 0.69351 0.0
C1961 C 0.33046 0.3679 0.7034 0.0
H1962 H 0.41922 0.39143 0.68388 0.0
C1963 C 0.36593 0.40142 0.71101 0.0
H1964 H 0.32414 0.33975 0.68751 0.0
C1965 C 0.41989 0.43112 0.70895 0.0
C1966 C 0.44066 0.42794 0.69922 0.0
H1967 H 0.35202 0.40417 0.7187 0.0
H1968 H 0.44546 0.45562 0.71518 0.0
C1969 C 0.40496 0.39518 0.69146 0.0
C1970 C 0.66476 0.96264 0.70631 0.0
C1971 C 0.70749 0.97232 0.69987 0.0
H1972 H 0.60435 0.98086 0.70991 0.0
C1973 C 0.71936 1.00691 0.69138 0.0
H1974 H 0.65432 0.93612 0.71289 0.0
C1975 C 0.69023 1.03236 0.68958 0.0
C1976 C 0.64867 1.02423 0.69628 0.0
H1977 H 0.75191 1.01516 0.68624 0.0
H1978 H 0.70151 0.0598 0.68315 0.0
C1979 C 0.63598 0.98835 0.70458 0.0
C1980 C 0.3652 0.98208 0.21078 0.0
C1981 C 0.33006 0.97867 0.20295 0.0
H1982 H 0.44478 1.0077 0.21511 0.0
C1983 C 0.3501 0.99784 0.19292 0.0
H1984 H 0.35106 0.9676 0.21858 0.0
C1985 C 0.4045 1.02159 0.19092 0.0
C1986 C 0.43991 1.02611 0.19886 0.0
H1987 H 0.32403 0.99593 0.18674 0.0
H1988 H 0.41888 0.03734 0.1832 0.0
C1989 C 0.41915 1.00507 0.20876 0.0
C1990 C 0.08078 0.43058 0.20834 0.0
C1991 C 0.05742 0.42836 0.1986 0.0
H1992 H 0.12076 0.40231 0.21803 0.0
C1993 C 0.06055 0.39615 0.19074 0.0
H1994 H 0.07943 0.45462 0.21463 0.0
C1995 C 0.08515 0.36614 0.1927 0.0
C1996 C 0.10664 0.36727 0.2026 0.0
H1997 H 1.04298 0.39318 0.18314 0.0
H1998 H 0.08567 0.34076 0.18661 0.0
C1999 C 0.10458 0.40036 0.21032 0.0
C2000 C 0.69348 0.6747 0.1915 0.0
C2001 C 0.6537 0.64142 0.19853 0.0
H2002 H 0.75288 0.75377 0.18765 0.0
C2003 C 0.6421 0.66489 0.20697 0.0
H2004 H 0.70381 0.65836 0.18493 0.0
C2005 C 0.67008 0.71962 0.20847 0.0
C2006 C 0.71085 0.75258 0.20165 0.0
H2007 H 0.61176 0.64089 0.21254 0.0
H2008 H 0.66049 0.73602 0.21514 0.0
C2009 C 0.72179 0.72951 0.19307 0.0
C2010 C 0.3083 1.01412 1.01965 0.0
C2011 C 0.31602 0.98081 1.02639 0.0
H2012 H 0.32926 0.09322 1.01575 0.0
C2013 C 0.34993 1.00331 0.035 0.0
H2014 H 0.28239 0.99808 1.01296 0.0
C2015 C 0.37654 0.05796 0.03667 0.0
C2016 C 0.37031 0.0916 1.02972 0.0
H2017 H 0.35661 0.97873 0.04035 0.0
H2018 H 0.40318 0.07391 0.04326 0.0
C2019 C 0.33527 0.06877 1.02126 0.0
C2020 C 0.07943 0.37099 0.03499 0.0
C2021 C 0.10248 0.36115 1.02628 0.0
H2022 H 1.00835 0.35174 0.04321 0.0
C2023 C 0.06956 0.32108 1.01927 0.0
H2024 H 0.10365 0.4015 0.04055 0.0
C2025 C 1.01481 0.29279 1.02073 0.0
C2026 C 0.99146 0.30334 1.02932 0.0
H2027 H 0.086 0.3124 1.01249 0.0
H2028 H 0.99071 0.2631 1.01503 0.0
C2029 C 1.02469 0.3423 0.03652 0.0
C2030 C 0.78221 0.73454 1.01934 0.0
C2031 C 0.77813 0.71029 1.02905 0.0
H2032 H 0.7558 0.77558 1.00949 0.0
C2033 C 0.74489 0.71301 0.03669 0.0
H2034 H 0.80717 0.7335 1.01322 0.0
C2035 C 0.7155 0.73795 0.03453 0.0
C2036 C 0.7184 0.7603 1.02467 0.0
H2037 H 0.74048 0.69469 0.04425 0.0
H2038 H 0.689 0.73779 0.04042 0.0
C2039 C 0.75259 0.75876 1.01717 0.0
C2040 C 0.73457 0.08717 0.85188 0.0
C2041 C 0.77047 0.08873 0.85933 0.0
H2042 H 0.65484 0.06254 0.84799 0.0
C2043 C 0.75113 0.06708 0.86927 0.0
H2044 H 0.74798 0.10354 0.84416 0.0
C2045 C 0.69669 0.04256 0.87149 0.0
C2046 C 0.66052 0.03975 0.86387 0.0
H2047 H 0.77769 0.06733 0.87517 0.0
H2048 H 0.68284 1.02459 0.87908 0.0
C2049 C 0.68079 0.06356 0.85412 0.0
C2050 C 1.0159 0.69922 0.86862 0.0
C2051 C 0.99338 0.69723 0.85879 0.0
H2052 H 0.05975 0.67357 0.87805 0.0
C2053 C 0.99538 0.66416 0.85108 0.0
H2054 H 1.0154 0.72465 0.87471 0.0
C2055 C 1.02008 0.6348 0.85297 0.0
C2056 C 1.04449 0.63779 0.86264 0.0
H2057 H 0.97843 0.66154 0.84342 0.0
H2058 H 1.02113 0.6107 0.84666 0.0
C2059 C 1.04144 0.67 0.87051 0.0
C2060 C 0.41287 0.34259 0.84986 0.0
C2061 C 0.38292 0.30724 0.8578 0.0
H2062 H 0.46422 0.42227 0.84534 0.0
C2063 C 0.38443 0.32739 0.86787 0.0
H2064 H 0.41275 0.32846 0.84202 0.0
C2065 C 0.41411 0.38203 0.86981 0.0
C2066 C 0.4431 0.41759 0.86174 0.0
H2067 H 0.3615 0.30121 0.87414 0.0
H2068 H 0.41329 0.39643 0.87757 0.0
C2069 C 0.44259 0.3967 0.85179 0.0
C2070 C 0.71826 1.01222 1.02259 0.0
C2071 C 0.72662 0.97844 1.0291 0.0
H2072 H 0.73506 0.09123 1.01964 0.0
C2073 C 0.76271 1.00107 0.03742 0.0
H2074 H 0.69064 0.99644 1.01615 0.0
C2075 C 0.7882 0.05538 0.03939 0.0
C2076 C 0.77811 0.08871 0.03316 0.0
H2077 H 0.77039 0.97662 0.04261 0.0
H2078 H 0.81476 0.07104 0.04599 0.0
C2079 C 0.74355 0.06662 1.02462 0.0
C2080 C 1.0136 0.69971 1.02662 0.0
C2081 C 0.99144 0.71007 0.03541 0.0
H2082 H 0.0837 0.71846 1.01812 0.0
C2083 C 1.02492 0.75062 0.04227 0.0
H2084 H 0.9889 0.66878 1.02118 0.0
C2085 C 0.07949 0.77893 0.04058 0.0
C2086 C 0.10193 0.76778 0.03192 0.0
H2087 H 1.00909 0.75963 0.04911 0.0
H2088 H 0.10417 0.80899 0.04617 0.0
C2089 C 0.06806 0.72836 1.02487 0.0
C2090 C 0.35509 0.36573 1.02449 0.0
C2091 C 0.31569 0.35986 0.03156 0.0
H2092 H 0.41431 0.34585 1.02066 0.0
C2093 C 0.30425 0.3255 0.04008 0.0
H2094 H 0.36518 0.39183 1.01785 0.0
C2095 C 0.33226 0.29889 0.04164 0.0
C2096 C 0.37282 0.30626 0.03478 0.0
H2097 H 0.27417 0.31976 0.04568 0.0
H2098 H 0.32298 0.27352 0.04838 0.0
C2099 C 0.38342 0.33945 1.02611 0.0
C2100 C 0.06834 0.36154 0.52416 0.0
C2101 C 0.10319 0.36373 0.53203 0.0
H2102 H 0.98789 0.3363 0.51986 0.0
C2103 C 0.08129 0.33903 0.54163 0.0
H2104 H 0.08349 0.38008 0.51667 0.0
C2105 C 1.02706 0.31475 0.54345 0.0
C2106 C 0.99235 0.31341 0.53573 0.0
H2107 H 0.10621 0.33965 0.54793 0.0
H2108 H 1.0123 0.29753 0.55106 0.0
C2109 C 1.01346 0.33632 0.52596 0.0
C2110 C 0.72415 0.7304 0.52516 0.0
C2111 C 0.71983 0.76223 0.53294 0.0
H2112 H 0.75087 0.67606 0.52128 0.0
C2113 C 0.7423 0.76457 0.54281 0.0
H2114 H 0.70729 0.72731 0.51748 0.0
C2115 C 0.76665 0.7351 0.54495 0.0
C2116 C 0.77017 0.70268 0.5373 0.0
H2117 H 0.74007 0.78829 0.54906 0.0
H2118 H 0.78229 0.73728 0.55273 0.0
C2119 C 0.7493 0.70113 0.52731 0.0
C2120 C 0.35056 1.01379 0.52443 0.0
C2121 C 0.31883 0.97867 0.53233 0.0
H2122 H 0.40437 0.09435 0.52015 0.0
C2123 C 0.31551 1.0002 0.54195 0.0
H2124 H 0.35433 0.99887 0.51692 0.0
C2125 C 0.34428 0.05452 0.54377 0.0
C2126 C 0.37692 0.08951 0.53602 0.0
H2127 H 0.29172 0.97495 0.54826 0.0
H2128 H 0.34159 0.06914 0.5514 0.0
C2129 C 0.37913 0.06863 0.52624 0.0
C2130 C 1.0419 0.38376 0.36952 0.0
C2131 C 1.0364 0.41715 0.36237 0.0
H2132 H 1.02242 0.30481 0.37335 0.0
C2133 C 1.00321 0.3941 0.35366 0.0
H2134 H 0.06714 0.39988 0.3763 0.0
C2135 C 0.97723 0.33947 0.35204 0.0
C2136 C 0.98417 0.30643 0.359 0.0
H2137 H 0.99783 0.41835 0.348 0.0
H2138 H 0.95265 0.32325 0.34517 0.0
C2139 C 1.01634 0.32916 0.36782 0.0
C2140 C 0.73076 0.65707 0.35036 0.0
C2141 C 0.76639 0.69083 0.35794 0.0
H2142 H 0.65081 0.60319 0.34625 0.0
C2143 C 0.74664 0.69374 0.36778 0.0
H2144 H 0.74461 0.65388 0.34269 0.0
C2145 C 0.69217 0.66473 0.36984 0.0
C2146 C 0.65633 0.6319 0.36211 0.0
H2147 H 0.77288 0.71995 0.37372 0.0
H2148 H 0.67808 0.6691 0.37739 0.0
C2149 C 0.67673 0.62785 0.35242 0.0
C2150 C 0.43477 0.10469 0.35366 0.0
C2151 C 0.39052 0.09408 0.35967 0.0
H2152 H 0.49662 0.08762 0.3508 0.0
C2153 C 0.37716 0.05927 0.36816 0.0
H2154 H 0.44628 0.13142 0.34709 0.0
C2155 C 0.40633 0.03437 0.37037 0.0
C2156 C 0.44945 0.04336 0.36409 0.0
H2157 H 0.34337 0.05035 0.37298 0.0
H2158 H 0.39391 1.00668 0.37678 0.0
C2159 C 0.46373 0.07957 0.35581 0.0
C2160 C 0.23583 0.41326 0.10944 0.0
C2161 C 0.21163 0.37037 0.10249 0.0
H2162 H 0.24943 0.43953 0.12537 0.0
C2163 C 0.18387 0.31935 0.1067 0.0
H2164 H 0.25708 0.45315 0.10652 0.0
C2165 C 0.17903 0.31157 0.11755 0.0
C2166 C 0.20167 0.3546 0.12449 0.0
H2167 H 0.16517 0.28533 0.10161 0.0
H2168 H 0.15589 0.27184 0.12048 0.0
C2169 C 0.23089 0.40548 0.12028 0.0
C2170 C 0.71865 0.89046 0.10889 0.0
C2171 C 0.70149 0.84267 0.10354 0.0
H2172 H 0.73885 0.93091 0.12359 0.0
C2173 C 0.69222 0.79817 0.1093 0.0
H2174 H 0.72674 0.92571 0.10469 0.0
C2175 C 0.69984 0.80134 0.12013 0.0
C2176 C 0.71675 0.84905 0.1255 0.0
H2177 H 0.67837 0.76057 0.10548 0.0
H2178 H 0.69313 0.76641 0.12427 0.0
C2179 C 0.7261 0.8936 0.11973 0.0
C2180 C 0.21463 0.91777 0.11729 0.0
C2181 C 0.20897 0.87822 0.12423 0.0
H2182 H 0.22553 0.94479 0.10148 0.0
C2183 C 0.20558 0.83227 0.12009 0.0
H2184 H 0.21813 0.954 0.12021 0.0
C2185 C 0.20923 0.82665 0.10929 0.0
C2186 C 0.21693 0.86708 0.10235 0.0
H2187 H 0.2005 0.80077 0.12522 0.0
H2188 H 0.20667 0.79078 0.1064 0.0
C2189 C 0.21871 0.91236 0.1065 0.0
C2190 C 0.37722 0.21836 0.45132 0.0
C2191 C 0.39321 0.18684 0.45664 0.0
H2192 H 0.3581 0.23944 0.43663 0.0
C2193 C 0.40132 0.15078 0.45087 0.0
H2194 H 0.37003 0.24616 0.45553 0.0
C2195 C 0.39383 0.14648 0.44004 0.0
C2196 C 0.37819 0.17825 0.4347 0.0
H2197 H 0.41422 0.12632 0.45469 0.0
H2198 H 0.39968 0.11769 0.43587 0.0
C2199 C 0.36989 0.21418 0.44048 0.0
C2200 C 0.89911 0.25707 0.43915 0.0
C2201 C 0.88757 0.20774 0.43514 0.0
H2202 H 0.90644 0.30336 0.45266 0.0
C2203 C 0.87161 0.16572 0.44221 0.0
H2204 H 0.91261 0.29073 0.43404 0.0
C2205 C 0.86854 0.17318 0.45297 0.0
C2206 C 0.88096 0.22276 0.45696 0.0
H2207 H 0.86162 0.12695 0.43944 0.0
H2208 H 0.85638 0.14006 0.45818 0.0
C2209 C 0.89572 0.26441 0.44988 0.0
C2210 C 0.88523 0.68531 0.44244 0.0
C2211 C 0.85771 0.70586 0.43705 0.0
H2212 H 0.9026 0.66282 0.45716 0.0
C2213 C 0.82455 0.71829 0.4428 0.0
H2214 H 0.91066 0.67469 0.43827 0.0
C2215 C 0.81945 0.71086 0.45364 0.0
C2216 C 0.84744 0.6909 0.45904 0.0
H2217 H 0.80318 0.73471 0.43896 0.0
H2218 H 0.79316 0.72046 0.45777 0.0
C2219 C 0.88019 0.67796 0.45328 0.0
C2220 C 0.92027 0.75563 0.94385 0.0
C2221 C 0.89774 0.71234 0.93697 0.0
H2222 H 0.93375 0.78249 0.95975 0.0
C2223 C 0.86841 0.66162 0.94125 0.0
H2224 H 0.9435 0.79524 0.94087 0.0
C2225 C 0.86321 0.65427 0.9521 0.0
C2226 C 0.88725 0.69742 0.959 0.0
H2227 H 0.84995 0.62738 0.93621 0.0
H2228 H 0.84185 0.61449 0.95508 0.0
C2229 C 0.91516 0.74827 0.95471 0.0
C2230 C 0.32418 0.17124 0.94378 0.0
C2231 C 0.36552 0.1994 0.93667 0.0
H2232 H 0.30082 0.15285 0.9598 0.0
C2233 C 0.41693 0.22938 0.94064 0.0
H2234 H 0.28421 0.14695 0.94101 0.0
C2235 C 0.42645 0.23261 0.95143 0.0
C2236 C 0.38485 0.20599 0.95855 0.0
H2237 H 0.44968 0.25218 0.93544 0.0
H2238 H 0.46626 0.25781 0.95419 0.0
C2239 C 0.33369 0.17456 0.95457 0.0
C2240 C 0.89923 0.23328 0.94084 0.0
C2241 C 0.88975 0.18447 0.93697 0.0
H2242 H 0.90316 0.2788 0.95427 0.0
C2243 C 0.87827 0.14382 0.94412 0.0
H2244 H 0.90886 0.26561 0.93555 0.0
C2245 C 0.8746 0.15117 0.95482 0.0
C2246 C 0.88258 0.1995 0.9587 0.0
H2247 H 0.86997 0.10547 0.9414 0.0
H2248 H 0.86328 0.11811 0.96 0.0
C2249 C 0.8959 0.24078 0.95157 0.0
C2250 C 0.75523 0.89211 0.60687 0.0
C2251 C 0.7043 0.87029 0.60265 0.0
H2252 H 0.80284 0.91247 0.62065 0.0
C2253 C 0.66116 0.84809 0.60953 0.0
H2254 H 0.78934 0.90898 0.60181 0.0
C2255 C 0.66887 0.84962 0.62037 0.0
C2256 C 0.71992 0.87322 0.62461 0.0
H2257 H 0.6214 0.83127 0.60657 0.0
H2258 H 0.6348 0.8331 0.62544 0.0
C2259 C 0.76293 0.89352 0.6177 0.0
C2260 C 0.22353 0.90604 0.60764 0.0
C2261 C 0.22777 0.86365 0.60368 0.0
H2262 H 0.2145 0.94399 0.62115 0.0
C2263 C 0.22752 0.82702 0.61078 0.0
H2264 H 0.22428 0.93534 0.60241 0.0
C2265 C 0.2214 0.83162 0.62153 0.0
C2266 C 0.21562 0.87316 0.62549 0.0
H2267 H 0.22991 0.79343 0.608 0.0
H2268 H 0.21904 0.80126 0.62666 0.0
C2269 C 0.2178 0.91088 0.6184 0.0
C2270 C 0.20014 0.36863 0.60907 0.0
C2271 C 0.24234 0.37156 0.6033 0.0
H2272 H 0.16499 0.36014 0.62421 0.0
C2273 C 0.2823 0.36833 0.60871 0.0
H2274 H 0.16863 0.37082 0.60514 0.0
C2275 C 0.28028 0.36235 0.61956 0.0
C2276 C 0.23817 0.3593 0.62536 0.0
H2277 H 0.31577 0.37117 0.60456 0.0
H2278 H 0.31164 0.35958 0.62341 0.0
C2279 C 0.19788 0.36217 0.61998 0.0
C2280 C 0.09819 0.5503 0.77366 0.0
C2281 C 1.04724 0.52727 0.76938 0.0
H2282 H 0.14547 0.56899 0.78749 0.0
C2283 C 1.00422 0.50808 0.77628 0.0
H2284 H 0.1323 0.56599 0.76861 0.0
C2285 C 1.01181 0.5102 0.78712 0.0
C2286 C 0.06263 0.53166 0.7914 0.0
H2287 H 0.96437 0.48958 0.77331 0.0
H2288 H 0.97766 0.49433 0.79217 0.0
C2289 C 0.10578 0.55253 0.78451 0.0
C2290 C 0.61939 0.59442 0.77564 0.0
C2291 C 0.58013 0.5529 0.76973 0.0
H2292 H 0.646 0.6289 0.79075 0.0
C2293 C 0.53651 0.5126 0.775 0.0
H2294 H 0.65384 0.62576 0.77187 0.0
C2295 C 0.53206 0.51433 0.78592 0.0
C2296 C 0.57154 0.55594 0.7918 0.0
H2297 H 0.50551 0.48016 0.77067 0.0
H2298 H 0.498 0.4829 0.78976 0.0
C2299 C 0.61521 0.59588 0.7865 0.0
C2300 C 0.47584 0.03526 0.77529 0.0
C2301 C 0.51935 0.03976 0.76979 0.0
H2302 H 0.43567 1.01944 0.79 0.0
C2303 C 0.55625 1.03137 0.77515 0.0
H2304 H 0.44696 0.04191 0.7714 0.0
C2305 C 0.55026 1.01939 0.78576 0.0
C2306 C 0.50691 1.01492 0.7913 0.0
H2307 H 0.58985 0.03385 0.77112 0.0
H2308 H 0.58002 1.01409 0.78966 0.0
C2309 C 0.46972 1.02304 0.78596 0.0
C2310 C 0.52935 0.03541 0.274 0.0
C2311 C 0.56792 1.03076 0.26836 0.0
H2312 H 0.49436 1.03128 0.28891 0.0
C2313 C 0.60138 1.0177 0.27383 0.0
H2314 H 0.50275 0.04516 0.27005 0.0
C2315 C 0.59627 1.00925 0.28463 0.0
C2316 C 0.55759 1.01369 0.29027 0.0
H2317 H 0.63213 1.01464 0.26979 0.0
H2318 H 0.62226 0.99854 0.28854 0.0
C2319 C 0.52424 1.02696 0.28482 0.0
C2320 C 0.10102 0.55487 0.28446 0.0
C2321 C 0.05777 0.5334 0.29132 0.0
H2322 H 0.12782 0.56925 0.26858 0.0
C2323 C 1.00686 0.50683 0.287 0.0
H2324 H 0.14082 0.57608 0.28747 0.0
C2325 C 0.9994 0.50334 0.27613 0.0
C2326 C 1.04263 0.52644 0.26927 0.0
H2327 H 0.9726 0.48929 0.29202 0.0
H2328 H 0.95957 0.48416 0.27313 0.0
C2329 C 0.09356 0.5515 0.2736 0.0
C2330 C 0.57621 0.50296 0.27756 0.0
C2331 C 0.54704 0.51422 0.27033 0.0
H2332 H 0.59463 0.49943 0.29366 0.0
C2333 C 0.51513 0.53366 0.27417 0.0
H2334 H 0.60197 0.48886 0.27491 0.0
C2335 C 0.51112 0.53993 0.28493 0.0
C2336 C 0.53883 0.52686 0.29217 0.0
H2337 H 0.49149 0.54207 0.26888 0.0
H2338 H 0.48455 0.55301 0.28759 0.0
C2339 C 0.57208 0.50908 0.28833 0.0
C2340 C 1.02461 0.13685 0.28404 0.0
C2341 C 1.03559 0.17842 0.29098 0.0
H2342 H 1.03555 0.11355 0.2688 0.0
C2343 C 0.06779 0.23027 0.2874 0.0
H2344 H 0.99909 0.09641 0.28637 0.0
C2345 C 0.08873 0.24016 0.27723 0.0
C2346 C 0.07816 0.19851 0.27034 0.0
H2347 H 0.07772 0.26337 0.29251 0.0
H2348 H 0.11417 0.28054 0.27486 0.0
C2349 C 1.04554 0.14672 0.2739 0.0
C2350 C 0.87408 0.82144 0.28317 0.0
C2351 C 0.90433 0.86302 0.29013 0.0
H2352 H 0.84134 0.79853 0.26778 0.0
C2353 C 0.92341 0.91486 0.28665 0.0
H2354 H 0.85929 0.78105 0.28552 0.0
C2355 C 0.91312 0.92489 0.27648 0.0
C2356 C 0.88348 0.88341 0.26946 0.0
H2357 H 0.946 0.94789 0.29183 0.0
H2358 H 0.92798 0.96535 0.27417 0.0
C2359 C 0.86382 0.8315 0.27297 0.0
C2360 C 0.25213 0.03988 0.2846 0.0
C2361 C 0.21432 0.0431 0.29083 0.0
H2362 H 0.27036 1.01825 0.26984 0.0
C2363 C 0.16377 1.02464 0.28661 0.0
H2364 H 0.29131 0.05316 0.28759 0.0
C2365 C 0.15156 1.00407 0.27644 0.0
C2366 C 0.18952 1.0013 0.27017 0.0
H2367 H 0.13373 1.02695 0.2911 0.0
H2368 H 0.11212 0.99002 0.27352 0.0
C2369 C 0.23991 1.01926 0.27443 0.0
C2370 C 0.0554 0.9163 0.78737 0.0
C2371 C 1.02191 0.86457 0.79089 0.0
H2372 H 0.10241 0.96649 0.77493 0.0
C2373 C 1.01049 0.82293 0.78393 0.0
H2374 H 0.06612 0.94948 0.79252 0.0
C2375 C 1.03138 0.83276 0.77375 0.0
C2376 C 0.06439 0.88455 0.77021 0.0
H2377 H 0.98438 0.7826 0.78625 0.0
H2378 H 1.02072 0.79965 0.76859 0.0
C2379 C 0.07627 0.92611 0.77722 0.0
C2380 C 0.17753 0.13888 0.773 0.0
C2381 C 0.19148 0.19074 0.77034 0.0
H2382 H 0.17766 0.08655 0.7846 0.0
C2383 C 0.21744 0.23037 0.77793 0.0
H2384 H 0.1584 0.10738 0.76734 0.0
C2385 C 0.22834 0.21833 0.78792 0.0
C2386 C 0.21376 0.16631 0.79062 0.0
H2387 H 0.22824 0.27064 0.77624 0.0
H2388 H 0.24711 0.24976 0.7936 0.0
C2389 C 0.18857 0.12689 0.78296 0.0
C2390 C 0.94182 0.05637 0.78414 0.0
C2391 C 0.90611 0.0654 0.78986 0.0
H2392 H 0.95858 1.0295 0.76985 0.0
C2393 C 0.8588 0.05463 0.78495 0.0
H2394 H 0.97899 0.06481 0.78755 0.0
C2395 C 0.84733 0.03488 0.77469 0.0
C2396 C 0.88287 1.02545 0.76901 0.0
H2397 H 0.83008 0.06062 0.7891 0.0
H2398 H 0.81057 1.02723 0.7712 0.0
C2399 C 0.9304 0.03674 0.77388 0.0
C2400 C 0.67431 0.46489 0.61657 0.0
C2401 C 0.68846 0.50438 0.62421 0.0
H2402 H 0.68534 0.44534 0.60099 0.0
C2403 C 0.72593 0.55643 0.62152 0.0
H2404 H 0.64485 0.42454 0.61822 0.0
C2405 C 0.74902 0.56843 0.61155 0.0
C2406 C 0.7355 0.52872 0.604 0.0
H2407 H 0.73847 0.58787 0.62719 0.0
H2408 H 0.77852 0.60871 0.60985 0.0
C2409 C 0.69754 0.47685 0.60664 0.0
C2410 C 0.52568 0.17098 0.61873 0.0
C2411 C 0.57259 0.2065 0.6239 0.0
H2412 H 0.47874 0.15297 0.60487 0.0
C2413 C 0.60853 0.25284 0.61866 0.0
H2414 H 0.49682 0.13515 0.62254 0.0
C2415 C 0.59789 0.26333 0.60856 0.0
C2416 C 0.55101 0.22778 0.60338 0.0
H2417 H 0.64536 0.28086 0.62231 0.0
H2418 H 0.62627 0.29972 0.60485 0.0
C2419 C 0.51502 0.18149 0.60862 0.0
C2420 C 0.91807 0.3699 0.61877 0.0
C2421 C 0.88178 0.3765 0.62485 0.0
H2422 H 0.93484 0.3458 0.60412 0.0
C2423 C 0.83229 0.3615 0.62043 0.0
H2424 H 0.95636 0.38039 0.6219 0.0
C2425 C 0.8197 0.34108 0.61024 0.0
C2426 C 0.85617 0.33495 0.60411 0.0
H2427 H 0.8034 0.36643 0.62477 0.0
H2428 H 0.78107 0.32978 0.60719 0.0
C2429 C 0.90546 0.34942 0.60857 0.0
C2430 C 0.7527 0.25491 0.11073 0.0
C2431 C 0.73567 0.21351 0.10345 0.0
H2432 H 0.74823 0.27842 0.12637 0.0
C2433 C 0.69978 0.1622 0.10682 0.0
H2434 H 0.78118 0.2948 0.10852 0.0
C2435 C 0.6808 0.15275 0.11713 0.0
C2436 C 0.69724 0.19433 0.12435 0.0
H2437 H 0.68535 0.12937 0.10143 0.0
H2438 H 0.65218 0.11293 0.11935 0.0
C2439 C 0.7338 0.24548 0.12101 0.0
C2440 C 0.90427 0.56939 0.12077 0.0
C2441 C 0.88587 0.51768 0.1243 0.0
H2442 H 0.90775 0.61933 0.10822 0.0
C2443 C 0.85757 0.47608 0.11721 0.0
H2444 H 0.92569 0.60247 0.126 0.0
C2445 C 0.84737 0.48577 0.10698 0.0
C2446 C 0.86511 0.53739 0.10349 0.0
H2447 H 0.84369 0.43579 0.11951 0.0
H2448 H 0.82589 0.45259 0.10178 0.0
C2449 C 0.89402 0.57909 0.11053 0.0
C2450 C 0.61455 0.42435 0.11533 0.0
C2451 C 0.57672 0.40323 0.12335 0.0
H2452 H 0.63285 0.42137 0.09921 0.0
C2453 C 0.52628 0.36148 0.12081 0.0
H2454 H 0.65348 0.45718 0.11688 0.0
C2455 C 0.51436 0.34093 0.11062 0.0
C2456 C 0.55251 0.36148 0.10264 0.0
H2457 H 0.49625 0.34362 0.12677 0.0
H2458 H 0.47556 0.30789 0.10906 0.0
C2459 C 0.60266 0.40379 0.10515 0.0
C2460 C 0.43345 0.85684 0.94628 0.0
C2461 C 0.4125 0.87303 0.93813 0.0
H2462 H 0.42944 0.83566 0.96241 0.0
C2463 C 0.36995 0.88071 0.94043 0.0
H2464 H 0.46684 0.85148 0.9449 0.0
C2465 C 0.34855 0.87177 0.95053 0.0
C2466 C 0.36904 0.85484 0.95862 0.0
H2467 H 0.35222 0.89242 0.93437 0.0
H2468 H 0.315 0.87685 0.95192 0.0
C2469 C 0.41201 0.84782 0.95636 0.0
C2470 C 0.23584 0.58913 0.95609 0.0
C2471 C 0.22606 0.53859 0.95879 0.0
H2472 H 0.23412 0.6395 0.94422 0.0
C2473 C 0.20576 0.49922 0.95102 0.0
H2474 H 0.25054 0.62029 0.96188 0.0
C2475 C 0.19642 0.51031 0.94083 0.0
C2476 C 0.20707 0.56112 0.93809 0.0
H2477 H 0.1984 0.46002 0.95272 0.0
H2478 H 0.18213 0.47929 0.93502 0.0
C2479 C 0.22645 0.60019 0.94592 0.0
C2480 C 0.54804 0.65949 0.94368 0.0
C2481 C 0.52115 0.67271 0.93627 0.0
H2482 H 0.57865 0.66988 0.95927 0.0
C2483 C 0.50639 0.70981 0.93912 0.0
H2484 H 0.55949 0.63064 0.94183 0.0
C2485 C 0.51753 0.73248 0.94912 0.0
C2486 C 0.54364 0.71867 0.95661 0.0
H2487 H 0.48653 0.72179 0.93358 0.0
H2488 H 0.50601 0.76132 0.95093 0.0
C2489 C 0.55907 0.68208 0.95371 0.0
C2490 C 0.39832 0.58425 0.45438 0.0
C2491 C 0.36191 0.5331 0.45777 0.0
H2492 H 0.44609 0.63339 0.4419 0.0
C2493 C 0.34579 0.49143 0.45057 0.0
H2494 H 0.41251 0.61731 0.4597 0.0
C2495 C 0.36511 0.50071 0.44028 0.0
C2496 C 0.40113 0.55196 0.43687 0.0
H2497 H 0.31725 0.45161 0.4528 0.0
H2498 H 0.35095 0.46774 0.43494 0.0
C2499 C 0.41759 0.59352 0.44411 0.0
C2500 C 0.56212 0.90001 0.44389 0.0
C2501 C 0.54478 0.86193 0.43588 0.0
H2502 H 0.58289 0.91821 0.46004 0.0
C2503 C 0.53737 0.81196 0.43832 0.0
H2504 H 0.5675 0.93866 0.44238 0.0
C2505 C 0.54626 0.80021 0.44848 0.0
C2506 C 0.56276 0.838 0.45654 0.0
H2507 H 0.52491 0.78182 0.43236 0.0
H2508 H 0.54047 0.76141 0.44998 0.0
C2509 C 0.57096 0.88823 0.45405 0.0
C2510 C 0.17484 0.7059 0.45285 0.0
C2511 C 0.22144 0.7163 0.45802 0.0
H2512 H 0.12845 0.67944 0.43885 0.0
C2513 C 0.25747 0.70675 0.45255 0.0
H2514 H 0.14585 0.71224 0.45679 0.0
C2515 C 0.24725 0.68746 0.44225 0.0
C2516 C 0.20063 0.677 0.43708 0.0
H2517 H 0.29411 0.71483 0.45616 0.0
H2518 H 0.27575 0.68008 0.4384 0.0
C2519 C 0.16457 0.68651 0.44256 0.0
loop_
_geom_bond_atom_site_label_1
_geom_bond_atom_site_label_2
_geom_bond_distance
_geom_bond_site_symmetry_2
_ccdc_geom_bond_type
La0 C2 2.928 . S
La0 O20 2.521 . S
La0 O21 2.628 . S
La0 O22 2.554 . S
La0 O23 2.757 . S
La0 O24 2.470 . S
La0 O29 2.482 . S
La0 O31 2.503 . S
La1 C11 2.928 . S
La1 O23 2.482 . S
La1 O25 2.503 . S
La1 O26 2.521 . S
La1 O27 2.628 . S
La1 O28 2.554 . S
La1 O29 2.757 . S
La1 O30 2.470 . S
C2 La0 2.928 . S
C2 C3 1.503 . S
C2 O20 1.261 . S
C2 O21 1.243 . S
C3 C2 1.503 . S
C3 C4 1.394 . S
C3 C8 1.373 . S
C4 C3 1.394 . S
C4 C5 1.380 . S
C4 H32 0.930 . S
C5 C4 1.380 . S
C5 C6 1.376 . S
C5 H33 0.930 . S
C6 C5 1.376 . S
C6 C7 1.370 . S
C7 C6 1.370 . S
C7 C8 1.396 . S
C7 H34 0.929 . S
C8 C3 1.373 . S
C8 C7 1.396 . S
C8 H35 0.929 . S
C9 O22 1.240 . S
C9 O23 1.289 . S
C10 O24 1.258 . S
C10 O25 1.256 . S
C11 La1 2.928 . S
C11 C12 1.503 . S
C11 O26 1.261 . S
C11 O27 1.243 . S
C12 C11 1.503 . S
C12 C13 1.394 . S
C12 C17 1.373 . S
C13 C12 1.394 . S
C13 C14 1.380 . S
C13 H36 0.930 . S
C14 C13 1.380 . S
C14 C15 1.376 . S
C14 H37 0.930 . S
C15 C14 1.376 . S
C15 C16 1.370 . S
C16 C15 1.370 . S
C16 C17 1.396 . S
C16 H38 0.929 . S
C17 C12 1.373 . S
C17 C16 1.396 . S
C17 H39 0.929 . S
C18 O28 1.240 . S
C18 O29 1.289 . S
C19 O30 1.258 . S
C19 O31 1.256 . S
O20 La0 2.521 . S
O20 C2 1.261 . S
O21 La0 2.628 . S
O21 C2 1.243 . S
O22 La0 2.554 . S
O22 C9 1.240 . S
O23 La0 2.757 . S
O23 La1 2.482 . S
O23 C9 1.289 . S
O24 La0 2.470 . S
O24 C10 1.258 . S
O25 La1 2.503 . S
O25 C10 1.256 . S
O26 La1 2.521 . S
O26 C11 1.261 . S
O27 La1 2.628 . S
O27 C11 1.243 . S
O28 La1 2.554 . S
O28 C18 1.240 . S
O29 La0 2.482 . S
O29 La1 2.757 . S
O29 C18 1.289 . S
O30 La1 2.470 . S
O30 C19 1.258 . S
O31 La0 2.503 . S
O31 C19 1.256 . S
H32 C4 0.930 . S
H33 C5 0.930 . S
H34 C7 0.929 . S
H35 C8 0.929 . S
H36 C13 0.930 . S
H37 C14 0.930 . S
H38 C16 0.929 . S
H39 C17 0.929 . S
La40 C42 2.928 . S
La40 O60 2.521 . S
La40 O61 2.628 . S
La40 O62 2.553 1_565 S
La40 O63 2.757 . S
La40 O64 2.470 . S
La40 O69 2.482 . S
La40 O71 2.503 . S
La41 C51 2.928 . S
La41 O63 2.482 . S
La41 O65 2.503 . S
La41 O66 2.521 . S
La41 O67 2.628 . S
La41 O68 2.554 . S
La41 O69 2.757 . S
La41 O70 2.470 . S
C42 La40 2.928 . S
C42 C43 1.503 . S
C42 O60 1.261 . S
C42 O61 1.243 . S
C43 C42 1.503 . S
C43 C44 1.394 . S
C43 C48 1.373 . S
C44 C43 1.394 . S
C44 C45 1.380 . S
C44 H72 0.930 . S
C45 C44 1.380 . S
C45 C46 1.376 . S
C45 H73 0.930 . S
C46 C45 1.376 . S
C46 C47 1.370 . S
C47 C46 1.370 . S
C47 C48 1.396 . S
C47 H74 0.929 . S
C48 C43 1.373 . S
C48 C47 1.396 . S
C48 H75 0.929 . S
C49 O62 1.240 1_565 S
C49 O63 1.289 . S
C50 O64 1.258 . S
C50 O65 1.256 . S
C51 La41 2.928 . S
C51 C52 1.503 . S
C51 O66 1.261 . S
C51 O67 1.243 . S
C52 C51 1.503 . S
C52 C53 1.394 . S
C52 C57 1.373 . S
C53 C52 1.394 . S
C53 C54 1.380 . S
C53 H76 0.930 . S
C54 C53 1.380 . S
C54 C55 1.376 . S
C54 H77 0.930 . S
C55 C54 1.376 . S
C55 C56 1.370 . S
C56 C55 1.370 . S
C56 C57 1.396 . S
C56 H78 0.929 . S
C57 C52 1.373 . S
C57 C56 1.396 . S
C57 H79 0.929 . S
C58 O68 1.240 . S
C58 O69 1.289 . S
C59 O70 1.258 . S
C59 O71 1.256 . S
O60 La40 2.521 . S
O60 C42 1.261 . S
O61 La40 2.628 . S
O61 C42 1.243 . S
O62 La40 2.553 1_545 S
O62 C49 1.240 1_545 S
O63 La40 2.757 . S
O63 La41 2.482 . S
O63 C49 1.289 . S
O64 La40 2.470 . S
O64 C50 1.258 . S
O65 La41 2.503 . S
O65 C50 1.256 . S
O66 La41 2.521 . S
O66 C51 1.261 . S
O67 La41 2.628 . S
O67 C51 1.243 . S
O68 La41 2.554 . S
O68 C58 1.240 . S
O69 La40 2.482 . S
O69 La41 2.757 . S
O69 C58 1.289 . S
O70 La41 2.470 . S
O70 C59 1.258 . S
O71 La40 2.503 . S
O71 C59 1.256 . S
H72 C44 0.930 . S
H73 C45 0.930 . S
H74 C47 0.929 . S
H75 C48 0.929 . S
H76 C53 0.930 . S
H77 C54 0.930 . S
H78 C56 0.929 . S
H79 C57 0.929 . S
La80 C82 2.928 . S
La80 O100 2.521 . S
La80 O101 2.628 . S
La80 O102 2.553 1_455 S
La80 O103 2.757 . S
La80 O104 2.470 . S
La80 O109 2.482 . S
La80 O111 2.503 . S
La81 C91 2.928 . S
La81 O103 2.482 . S
La81 O105 2.503 . S
La81 O106 2.521 . S
La81 O107 2.628 . S
La81 O108 2.554 . S
La81 O109 2.757 . S
La81 O110 2.470 . S
C82 La80 2.928 . S
C82 C83 1.503 . S
C82 O100 1.261 . S
C82 O101 1.243 . S
C83 C82 1.503 . S
C83 C84 1.394 . S
C83 C88 1.373 . S
C84 C83 1.394 . S
C84 C85 1.380 . S
C84 H112 0.930 . S
C85 C84 1.380 . S
C85 C86 1.376 . S
C85 H113 0.930 . S
C86 C85 1.376 . S
C86 C87 1.370 . S
C87 C86 1.370 . S
C87 C88 1.396 . S
C87 H114 0.929 . S
C88 C83 1.373 . S
C88 C87 1.396 . S
C88 H115 0.929 . S
C89 O102 1.240 1_455 S
C89 O103 1.289 . S
C90 O104 1.258 . S
C90 O105 1.256 . S
C91 La81 2.928 . S
C91 C92 1.503 . S
C91 O106 1.261 . S
C91 O107 1.243 . S
C92 C91 1.503 . S
C92 C93 1.394 . S
C92 C97 1.373 . S
C93 C92 1.394 . S
C93 C94 1.380 . S
C93 H116 0.930 . S
C94 C93 1.380 . S
C94 C95 1.376 . S
C94 H117 0.930 . S
C95 C94 1.376 . S
C95 C96 1.370 . S
C96 C95 1.370 . S
C96 C97 1.396 . S
C96 H118 0.929 . S
C97 C92 1.373 . S
C97 C96 1.396 . S
C97 H119 0.929 . S
C98 O108 1.240 . S
C98 O109 1.289 . S
C99 O110 1.258 . S
C99 O111 1.256 . S
O100 La80 2.521 . S
O100 C82 1.261 . S
O101 La80 2.628 . S
O101 C82 1.243 . S
O102 La80 2.553 1_655 S
O102 C89 1.240 1_655 S
O103 La80 2.757 . S
O103 La81 2.482 . S
O103 C89 1.289 . S
O104 La80 2.470 . S
O104 C90 1.258 . S
O105 La81 2.503 . S
O105 C90 1.256 . S
O106 La81 2.521 . S
O106 C91 1.261 . S
O107 La81 2.628 . S
O107 C91 1.243 . S
O108 La81 2.554 . S
O108 C98 1.240 . S
O109 La80 2.482 . S
O109 La81 2.757 . S
O109 C98 1.289 . S
O110 La81 2.470 . S
O110 C99 1.258 . S
O111 La80 2.503 . S
O111 C99 1.256 . S
H112 C84 0.930 . S
H113 C85 0.930 . S
H114 C87 0.929 . S
H115 C88 0.929 . S
H116 C93 0.930 . S
H117 C94 0.930 . S
H118 C96 0.929 . S
H119 C97 0.929 . S
La120 C122 2.928 . S
La120 O140 2.521 . S
La120 O141 2.628 . S
La120 O142 2.554 . S
La120 O143 2.757 . S
La120 O144 2.470 . S
La120 O149 2.482 . S
La120 O151 2.503 . S
La121 C131 2.928 . S
La121 O143 2.482 . S
La121 O145 2.503 . S
La121 O146 2.521 . S
La121 O147 2.628 . S
La121 O148 2.554 . S
La121 O149 2.757 . S
La121 O150 2.470 . S
C122 La120 2.928 . S
C122 C123 1.503 . S
C122 O140 1.261 . S
C122 O141 1.243 . S
C123 C122 1.503 . S
C123 C124 1.394 . S
C123 C128 1.373 . S
C124 C123 1.394 . S
C124 C125 1.380 . S
C124 H152 0.930 . S
C125 C124 1.380 . S
C125 C126 1.376 . S
C125 H153 0.930 . S
C126 C125 1.376 . S
C126 C127 1.370 . S
C127 C126 1.370 . S
C127 C128 1.396 . S
C127 H154 0.929 . S
C128 C123 1.373 . S
C128 C127 1.396 . S
C128 H155 0.929 . S
C129 O142 1.240 . S
C129 O143 1.289 . S
C130 O144 1.258 . S
C130 O145 1.256 . S
C131 La121 2.928 . S
C131 C132 1.503 . S
C131 O146 1.261 . S
C131 O147 1.243 . S
C132 C131 1.503 . S
C132 C133 1.394 . S
C132 C137 1.373 . S
C133 C132 1.394 . S
C133 C134 1.380 . S
C133 H156 0.930 . S
C134 C133 1.380 . S
C134 C135 1.376 . S
C134 H157 0.930 . S
C135 C134 1.376 . S
C135 C136 1.370 . S
C136 C135 1.370 . S
C136 C137 1.396 . S
C136 H158 0.929 . S
C137 C132 1.373 . S
C137 C136 1.396 . S
C137 H159 0.929 . S
C138 O148 1.240 . S
C138 O149 1.289 . S
C139 O150 1.258 . S
C139 O151 1.256 . S
O140 La120 2.521 . S
O140 C122 1.261 . S
O141 La120 2.628 . S
O141 C122 1.243 . S
O142 La120 2.554 . S
O142 C129 1.240 . S
O143 La120 2.757 . S
O143 La121 2.482 . S
O143 C129 1.289 . S
O144 La120 2.470 . S
O144 C130 1.258 . S
O145 La121 2.503 . S
O145 C130 1.256 . S
O146 La121 2.521 . S
O146 C131 1.261 . S
O147 La121 2.628 . S
O147 C131 1.243 . S
O148 La121 2.554 . S
O148 C138 1.240 . S
O149 La120 2.482 . S
O149 La121 2.757 . S
O149 C138 1.289 . S
O150 La121 2.470 . S
O150 C139 1.258 . S
O151 La120 2.503 . S
O151 C139 1.256 . S
H152 C124 0.930 . S
H153 C125 0.930 . S
H154 C127 0.929 . S
H155 C128 0.929 . S
H156 C133 0.930 . S
H157 C134 0.930 . S
H158 C136 0.929 . S
H159 C137 0.929 . S
La160 C162 2.928 . S
La160 O180 2.521 . S
La160 O181 2.628 . S
La160 O182 2.554 . S
La160 O183 2.757 . S
La160 O184 2.470 . S
La160 O189 2.482 . S
La160 O191 2.503 . S
La161 C171 2.928 . S
La161 O183 2.482 . S
La161 O185 2.503 . S
La161 O186 2.521 . S
La161 O187 2.628 . S
La161 O188 2.554 . S
La161 O189 2.757 . S
La161 O190 2.470 . S
C162 La160 2.928 . S
C162 C163 1.503 . S
C162 O180 1.261 . S
C162 O181 1.243 . S
C163 C162 1.503 . S
C163 C164 1.394 . S
C163 C168 1.373 . S
C164 C163 1.394 . S
C164 C165 1.380 . S
C164 H192 0.930 . S
C165 C164 1.380 . S
C165 C166 1.376 . S
C165 H193 0.930 . S
C166 C165 1.376 . S
C166 C167 1.370 . S
C167 C166 1.370 . S
C167 C168 1.396 . S
C167 H194 0.929 . S
C168 C163 1.373 . S
C168 C167 1.396 . S
C168 H195 0.929 . S
C169 O182 1.240 . S
C169 O183 1.289 . S
C170 O184 1.258 . S
C170 O185 1.256 . S
C171 La161 2.928 . S
C171 C172 1.503 . S
C171 O186 1.261 . S
C171 O187 1.243 . S
C172 C171 1.503 . S
C172 C173 1.394 . S
C172 C177 1.373 . S
C173 C172 1.394 . S
C173 C174 1.380 . S
C173 H196 0.930 . S
C174 C173 1.380 . S
C174 C175 1.376 . S
C174 H197 0.930 . S
C175 C174 1.376 . S
C175 C176 1.370 . S
C176 C175 1.370 . S
C176 C177 1.396 . S
C176 H198 0.929 . S
C177 C172 1.373 . S
C177 C176 1.396 . S
C177 H199 0.929 . S
C178 O188 1.240 . S
C178 O189 1.289 . S
C179 O190 1.258 . S
C179 O191 1.256 . S
O180 La160 2.521 . S
O180 C162 1.261 . S
O181 La160 2.628 . S
O181 C162 1.243 . S
O182 La160 2.554 . S
O182 C169 1.240 . S
O183 La160 2.757 . S
O183 La161 2.482 . S
O183 C169 1.289 . S
O184 La160 2.470 . S
O184 C170 1.258 . S
O185 La161 2.503 . S
O185 C170 1.256 . S
O186 La161 2.521 . S
O186 C171 1.261 . S
O187 La161 2.628 . S
O187 C171 1.243 . S
O188 La161 2.554 . S
O188 C178 1.240 . S
O189 La160 2.482 . S
O189 La161 2.757 . S
O189 C178 1.289 . S
O190 La161 2.470 . S
O190 C179 1.258 . S
O191 La160 2.503 . S
O191 C179 1.256 . S
H192 C164 0.930 . S
H193 C165 0.930 . S
H194 C167 0.929 . S
H195 C168 0.929 . S
H196 C173 0.930 . S
H197 C174 0.930 . S
H198 C176 0.929 . S
H199 C177 0.929 . S
La200 C202 2.928 . S
La200 O220 2.521 . S
La200 O221 2.628 . S
La200 O222 2.554 . S
La200 O223 2.757 . S
La200 O224 2.470 . S
La200 O229 2.482 . S
La200 O231 2.503 . S
La201 C211 2.928 . S
La201 O223 2.482 . S
La201 O225 2.503 . S
La201 O226 2.521 . S
La201 O227 2.628 . S
La201 O228 2.554 . S
La201 O229 2.757 . S
La201 O230 2.470 . S
C202 La200 2.928 . S
C202 C203 1.503 . S
C202 O220 1.261 . S
C202 O221 1.243 . S
C203 C202 1.503 . S
C203 C204 1.394 . S
C203 C208 1.373 . S
C204 C203 1.394 . S
C204 C205 1.380 . S
C204 H232 0.930 . S
C205 C204 1.380 . S
C205 C206 1.376 . S
C205 H233 0.930 . S
C206 C205 1.376 . S
C206 C207 1.370 . S
C207 C206 1.370 . S
C207 C208 1.396 . S
C207 H234 0.929 . S
C208 C203 1.373 . S
C208 C207 1.396 . S
C208 H235 0.929 . S
C209 O222 1.240 . S
C209 O223 1.289 . S
C210 O224 1.258 . S
C210 O225 1.256 . S
C211 La201 2.928 . S
C211 C212 1.503 . S
C211 O226 1.261 . S
C211 O227 1.243 . S
C212 C211 1.503 . S
C212 C213 1.394 . S
C212 C217 1.373 . S
C213 C212 1.394 . S
C213 C214 1.380 . S
C213 H236 0.930 . S
C214 C213 1.380 . S
C214 C215 1.376 . S
C214 H237 0.930 . S
C215 C214 1.376 . S
C215 C216 1.370 . S
C216 C215 1.370 . S
C216 C217 1.396 . S
C216 H238 0.929 . S
C217 C212 1.373 . S
C217 C216 1.396 . S
C217 H239 0.929 . S
C218 O228 1.240 . S
C218 O229 1.289 . S
C219 O230 1.258 . S
C219 O231 1.256 . S
O220 La200 2.521 . S
O220 C202 1.261 . S
O221 La200 2.628 . S
O221 C202 1.243 . S
O222 La200 2.554 . S
O222 C209 1.240 . S
O223 La200 2.757 . S
O223 La201 2.482 . S
O223 C209 1.289 . S
O224 La200 2.470 . S
O224 C210 1.258 . S
O225 La201 2.503 . S
O225 C210 1.256 . S
O226 La201 2.521 . S
O226 C211 1.261 . S
O227 La201 2.628 . S
O227 C211 1.243 . S
O228 La201 2.554 . S
O228 C218 1.240 . S
O229 La200 2.482 . S
O229 La201 2.757 . S
O229 C218 1.289 . S
O230 La201 2.470 . S
O230 C219 1.258 . S
O231 La200 2.503 . S
O231 C219 1.256 . S
H232 C204 0.930 . S
H233 C205 0.930 . S
H234 C207 0.929 . S
H235 C208 0.929 . S
H236 C213 0.930 . S
H237 C214 0.930 . S
H238 C216 0.929 . S
H239 C217 0.929 . S
La240 C242 2.928 . S
La240 O260 2.521 . S
La240 O261 2.628 . S
La240 O262 2.554 . S
La240 O263 2.757 . S
La240 O264 2.470 . S
La240 O269 2.482 . S
La240 O271 2.503 . S
La241 C251 2.928 . S
La241 O263 2.482 . S
La241 O265 2.503 . S
La241 O266 2.521 . S
La241 O267 2.628 . S
La241 O268 2.554 . S
La241 O269 2.757 . S
La241 O270 2.470 . S
C242 La240 2.928 . S
C242 C243 1.503 . S
C242 O260 1.261 . S
C242 O261 1.243 . S
C243 C242 1.503 . S
C243 C244 1.394 . S
C243 C248 1.373 . S
C244 C243 1.394 . S
C244 C245 1.380 . S
C244 H272 0.930 . S
C245 C244 1.380 . S
C245 C246 1.376 . S
C245 H273 0.930 . S
C246 C245 1.376 . S
C246 C247 1.370 . S
C247 C246 1.370 . S
C247 C248 1.396 . S
C247 H274 0.929 . S
C248 C243 1.373 . S
C248 C247 1.396 . S
C248 H275 0.929 . S
C249 O262 1.240 . S
C249 O263 1.289 . S
C250 O264 1.258 . S
C250 O265 1.256 . S
C251 La241 2.928 . S
C251 C252 1.503 . S
C251 O266 1.261 . S
C251 O267 1.243 . S
C252 C251 1.503 . S
C252 C253 1.394 . S
C252 C257 1.373 . S
C253 C252 1.394 . S
C253 C254 1.380 . S
C253 H276 0.930 . S
C254 C253 1.380 . S
C254 C255 1.376 . S
C254 H277 0.930 . S
C255 C254 1.376 . S
C255 C256 1.370 . S
C256 C255 1.370 . S
C256 C257 1.396 . S
C256 H278 0.929 . S
C257 C252 1.373 . S
C257 C256 1.396 . S
C257 H279 0.929 . S
C258 O268 1.240 . S
C258 O269 1.289 . S
C259 O270 1.258 . S
C259 O271 1.256 . S
O260 La240 2.521 . S
O260 C242 1.261 . S
O261 La240 2.628 . S
O261 C242 1.243 . S
O262 La240 2.554 . S
O262 C249 1.240 . S
O263 La240 2.757 . S
O263 La241 2.482 . S
O263 C249 1.289 . S
O264 La240 2.470 . S
O264 C250 1.258 . S
O265 La241 2.503 . S
O265 C250 1.256 . S
O266 La241 2.521 . S
O266 C251 1.261 . S
O267 La241 2.628 . S
O267 C251 1.243 . S
O268 La241 2.554 . S
O268 C258 1.240 . S
O269 La240 2.482 . S
O269 La241 2.757 . S
O269 C258 1.289 . S
O270 La241 2.470 . S
O270 C259 1.258 . S
O271 La240 2.503 . S
O271 C259 1.256 . S
H272 C244 0.930 . S
H273 C245 0.930 . S
H274 C247 0.929 . S
H275 C248 0.929 . S
H276 C253 0.930 . S
H277 C254 0.930 . S
H278 C256 0.929 . S
H279 C257 0.929 . S
La280 C282 2.928 . S
La280 O300 2.521 . S
La280 O301 2.628 . S
La280 O302 2.554 . S
La280 O303 2.757 . S
La280 O304 2.470 . S
La280 O309 2.482 . S
La280 O311 2.503 . S
La281 C291 2.928 . S
La281 O303 2.482 . S
La281 O305 2.503 . S
La281 O306 2.521 . S
La281 O307 2.628 . S
La281 O308 2.553 1_545 S
La281 O309 2.757 . S
La281 O310 2.470 . S
C282 La280 2.928 . S
C282 C283 1.503 . S
C282 O300 1.261 . S
C282 O301 1.243 . S
C283 C282 1.503 . S
C283 C284 1.394 . S
C283 C288 1.373 . S
C284 C283 1.394 . S
C284 C285 1.380 . S
C284 H312 0.930 . S
C285 C284 1.380 . S
C285 C286 1.376 . S
C285 H313 0.930 . S
C286 C285 1.376 . S
C286 C287 1.370 . S
C287 C286 1.370 . S
C287 C288 1.396 . S
C287 H314 0.929 . S
C288 C283 1.373 . S
C288 C287 1.396 . S
C288 H315 0.929 . S
C289 O302 1.240 . S
C289 O303 1.289 . S
C290 O304 1.258 . S
C290 O305 1.256 . S
C291 La281 2.928 . S
C291 C292 1.503 . S
C291 O306 1.261 . S
C291 O307 1.243 . S
C292 C291 1.503 . S
C292 C293 1.394 . S
C292 C297 1.373 . S
C293 C292 1.394 . S
C293 C294 1.380 . S
C293 H316 0.930 . S
C294 C293 1.380 . S
C294 C295 1.376 . S
C294 H317 0.930 . S
C295 C294 1.376 . S
C295 C296 1.370 . S
C296 C295 1.370 . S
C296 C297 1.396 . S
C296 H318 0.929 . S
C297 C292 1.373 . S
C297 C296 1.396 . S
C297 H319 0.929 . S
C298 O308 1.240 1_545 S
C298 O309 1.289 . S
C299 O310 1.258 . S
C299 O311 1.256 . S
O300 La280 2.521 . S
O300 C282 1.261 . S
O301 La280 2.628 . S
O301 C282 1.243 . S
O302 La280 2.554 . S
O302 C289 1.240 . S
O303 La280 2.757 . S
O303 La281 2.482 . S
O303 C289 1.289 . S
O304 La280 2.470 . S
O304 C290 1.258 . S
O305 La281 2.503 . S
O305 C290 1.256 . S
O306 La281 2.521 . S
O306 C291 1.261 . S
O307 La281 2.628 . S
O307 C291 1.243 . S
O308 La281 2.553 1_565 S
O308 C298 1.240 1_565 S
O309 La280 2.482 . S
O309 La281 2.757 . S
O309 C298 1.289 . S
O310 La281 2.470 . S
O310 C299 1.258 . S
O311 La280 2.503 . S
O311 C299 1.256 . S
H312 C284 0.930 . S
H313 C285 0.930 . S
H314 C287 0.929 . S
H315 C288 0.929 . S
H316 C293 0.930 . S
H317 C294 0.930 . S
H318 C296 0.929 . S
H319 C297 0.929 . S
La320 C322 2.928 . S
La320 O340 2.521 . S
La320 O341 2.628 . S
La320 O342 2.554 . S
La320 O343 2.757 . S
La320 O344 2.470 . S
La320 O349 2.482 . S
La320 O351 2.503 . S
La321 C331 2.928 . S
La321 O343 2.482 . S
La321 O345 2.503 . S
La321 O346 2.521 . S
La321 O347 2.628 . S
La321 O348 2.553 1_655 S
La321 O349 2.757 . S
La321 O350 2.470 . S
C322 La320 2.928 . S
C322 C323 1.503 . S
C322 O340 1.261 . S
C322 O341 1.243 . S
C323 C322 1.503 . S
C323 C324 1.394 . S
C323 C328 1.373 . S
C324 C323 1.394 . S
C324 C325 1.380 . S
C324 H352 0.930 . S
C325 C324 1.380 . S
C325 C326 1.376 . S
C325 H353 0.930 . S
C326 C325 1.376 . S
C326 C327 1.370 . S
C327 C326 1.370 . S
C327 C328 1.396 . S
C327 H354 0.929 . S
C328 C323 1.373 . S
C328 C327 1.396 . S
C328 H355 0.929 . S
C329 O342 1.240 . S
C329 O343 1.289 . S
C330 O344 1.258 . S
C330 O345 1.256 . S
C331 La321 2.928 . S
C331 C332 1.503 . S
C331 O346 1.261 . S
C331 O347 1.243 . S
C332 C331 1.503 . S
C332 C333 1.394 . S
C332 C337 1.373 . S
C333 C332 1.394 . S
C333 C334 1.380 . S
C333 H356 0.930 . S
C334 C333 1.380 . S
C334 C335 1.376 . S
C334 H357 0.930 . S
C335 C334 1.376 . S
C335 C336 1.370 . S
C336 C335 1.370 . S
C336 C337 1.396 . S
C336 H358 0.929 . S
C337 C332 1.373 . S
C337 C336 1.396 . S
C337 H359 0.929 . S
C338 O348 1.240 1_655 S
C338 O349 1.289 . S
C339 O350 1.258 . S
C339 O351 1.256 . S
O340 La320 2.521 . S
O340 C322 1.261 . S
O341 La320 2.628 . S
O341 C322 1.243 . S
O342 La320 2.554 . S
O342 C329 1.240 . S
O343 La320 2.757 . S
O343 La321 2.482 . S
O343 C329 1.289 . S
O344 La320 2.470 . S
O344 C330 1.258 . S
O345 La321 2.503 . S
O345 C330 1.256 . S
O346 La321 2.521 . S
O346 C331 1.261 . S
O347 La321 2.628 . S
O347 C331 1.243 . S
O348 La321 2.553 1_455 S
O348 C338 1.240 1_455 S
O349 La320 2.482 . S
O349 La321 2.757 . S
O349 C338 1.289 . S
O350 La321 2.470 . S
O350 C339 1.258 . S
O351 La320 2.503 . S
O351 C339 1.256 . S
H352 C324 0.930 . S
H353 C325 0.930 . S
H354 C327 0.929 . S
H355 C328 0.929 . S
H356 C333 0.930 . S
H357 C334 0.930 . S
H358 C336 0.929 . S
H359 C337 0.929 . S
La360 C362 2.928 . S
La360 O380 2.521 . S
La360 O381 2.628 . S
La360 O382 2.554 . S
La360 O383 2.757 . S
La360 O384 2.470 . S
La360 O389 2.482 . S
La360 O391 2.503 . S
La361 C371 2.928 . S
La361 O383 2.482 . S
La361 O385 2.503 . S
La361 O386 2.521 . S
La361 O387 2.628 . S
La361 O388 2.554 . S
La361 O389 2.757 . S
La361 O390 2.470 . S
C362 La360 2.928 . S
C362 C363 1.503 . S
C362 O380 1.261 . S
C362 O381 1.243 . S
C363 C362 1.503 . S
C363 C364 1.394 . S
C363 C368 1.373 . S
C364 C363 1.394 . S
C364 C365 1.380 . S
C364 H392 0.930 . S
C365 C364 1.380 . S
C365 C366 1.376 . S
C365 H393 0.930 . S
C366 C365 1.376 . S
C366 C367 1.370 . S
C367 C366 1.370 . S
C367 C368 1.396 . S
C367 H394 0.929 . S
C368 C363 1.373 . S
C368 C367 1.396 . S
C368 H395 0.929 . S
C369 O382 1.240 . S
C369 O383 1.289 . S
C370 O384 1.258 . S
C370 O385 1.256 . S
C371 La361 2.928 . S
C371 C372 1.503 . S
C371 O386 1.261 . S
C371 O387 1.243 . S
C372 C371 1.503 . S
C372 C373 1.394 . S
C372 C377 1.373 . S
C373 C372 1.394 . S
C373 C374 1.380 . S
C373 H396 0.930 . S
C374 C373 1.380 . S
C374 C375 1.376 . S
C374 H397 0.930 . S
C375 C374 1.376 . S
C375 C376 1.370 . S
C376 C375 1.370 . S
C376 C377 1.396 . S
C376 H398 0.929 . S
C377 C372 1.373 . S
C377 C376 1.396 . S
C377 H399 0.929 . S
C378 O388 1.240 . S
C378 O389 1.289 . S
C379 O390 1.258 . S
C379 O391 1.256 . S
O380 La360 2.521 . S
O380 C362 1.261 . S
O381 La360 2.628 . S
O381 C362 1.243 . S
O382 La360 2.554 . S
O382 C369 1.240 . S
O383 La360 2.757 . S
O383 La361 2.482 . S
O383 C369 1.289 . S
O384 La360 2.470 . S
O384 C370 1.258 . S
O385 La361 2.503 . S
O385 C370 1.256 . S
O386 La361 2.521 . S
O386 C371 1.261 . S
O387 La361 2.628 . S
O387 C371 1.243 . S
O388 La361 2.554 . S
O388 C378 1.240 . S
O389 La360 2.482 . S
O389 La361 2.757 . S
O389 C378 1.289 . S
O390 La361 2.470 . S
O390 C379 1.258 . S
O391 La360 2.503 . S
O391 C379 1.256 . S
H392 C364 0.930 . S
H393 C365 0.930 . S
H394 C367 0.929 . S
H395 C368 0.929 . S
H396 C373 0.930 . S
H397 C374 0.930 . S
H398 C376 0.929 . S
H399 C377 0.929 . S
La400 C402 2.928 . S
La400 O420 2.521 . S
La400 O421 2.628 . S
La400 O422 2.554 . S
La400 O423 2.757 . S
La400 O424 2.470 . S
La400 O429 2.482 . S
La400 O431 2.503 . S
La401 C411 2.928 . S
La401 O423 2.482 . S
La401 O425 2.503 . S
La401 O426 2.521 . S
La401 O427 2.628 . S
La401 O428 2.554 . S
La401 O429 2.757 . S
La401 O430 2.470 . S
C402 La400 2.928 . S
C402 C403 1.503 . S
C402 O420 1.261 . S
C402 O421 1.243 . S
C403 C402 1.503 . S
C403 C404 1.394 . S
C403 C408 1.373 . S
C404 C403 1.394 . S
C404 C405 1.380 . S
C404 H432 0.930 . S
C405 C404 1.380 . S
C405 C406 1.376 . S
C405 H433 0.930 . S
C406 C405 1.376 . S
C406 C407 1.370 . S
C407 C406 1.370 . S
C407 C408 1.396 . S
C407 H434 0.929 . S
C408 C403 1.373 . S
C408 C407 1.396 . S
C408 H435 0.929 . S
C409 O422 1.240 . S
C409 O423 1.289 . S
C410 O424 1.258 . S
C410 O425 1.256 . S
C411 La401 2.928 . S
C411 C412 1.503 . S
C411 O426 1.261 . S
C411 O427 1.243 . S
C412 C411 1.503 . S
C412 C413 1.394 . S
C412 C417 1.373 . S
C413 C412 1.394 . S
C413 C414 1.380 . S
C413 H436 0.930 . S
C414 C413 1.380 . S
C414 C415 1.376 . S
C414 H437 0.930 . S
C415 C414 1.376 . S
C415 C416 1.370 . S
C416 C415 1.370 . S
C416 C417 1.396 . S
C416 H438 0.929 . S
C417 C412 1.373 . S
C417 C416 1.396 . S
C417 H439 0.929 . S
C418 O428 1.240 . S
C418 O429 1.289 . S
C419 O430 1.258 . S
C419 O431 1.256 . S
O420 La400 2.521 . S
O420 C402 1.261 . S
O421 La400 2.628 . S
O421 C402 1.243 . S
O422 La400 2.554 . S
O422 C409 1.240 . S
O423 La400 2.757 . S
O423 La401 2.482 . S
O423 C409 1.289 . S
O424 La400 2.470 . S
O424 C410 1.258 . S
O425 La401 2.503 . S
O425 C410 1.256 . S
O426 La401 2.521 . S
O426 C411 1.261 . S
O427 La401 2.628 . S
O427 C411 1.243 . S
O428 La401 2.554 . S
O428 C418 1.240 . S
O429 La400 2.482 . S
O429 La401 2.757 . S
O429 C418 1.289 . S
O430 La401 2.470 . S
O430 C419 1.258 . S
O431 La400 2.503 . S
O431 C419 1.256 . S
H432 C404 0.930 . S
H433 C405 0.930 . S
H434 C407 0.929 . S
H435 C408 0.929 . S
H436 C413 0.930 . S
H437 C414 0.930 . S
H438 C416 0.929 . S
H439 C417 0.929 . S
La440 C442 2.928 . S
La440 O460 2.521 . S
La440 O461 2.628 . S
La440 O462 2.554 . S
La440 O463 2.757 . S
La440 O464 2.470 . S
La440 O469 2.482 . S
La440 O471 2.503 . S
La441 C451 2.928 . S
La441 O463 2.482 . S
La441 O465 2.503 . S
La441 O466 2.521 . S
La441 O467 2.628 . S
La441 O468 2.554 . S
La441 O469 2.757 . S
La441 O470 2.470 . S
C442 La440 2.928 . S
C442 C443 1.503 . S
C442 O460 1.261 . S
C442 O461 1.243 . S
C443 C442 1.503 . S
C443 C444 1.394 . S
C443 C448 1.373 . S
C444 C443 1.394 . S
C444 C445 1.380 . S
C444 H472 0.930 . S
C445 C444 1.380 . S
C445 C446 1.376 . S
C445 H473 0.930 . S
C446 C445 1.376 . S
C446 C447 1.370 . S
C447 C446 1.370 . S
C447 C448 1.396 . S
C447 H474 0.929 . S
C448 C443 1.373 . S
C448 C447 1.396 . S
C448 H475 0.929 . S
C449 O462 1.240 . S
C449 O463 1.289 . S
C450 O464 1.258 . S
C450 O465 1.256 . S
C451 La441 2.928 . S
C451 C452 1.503 . S
C451 O466 1.261 . S
C451 O467 1.243 . S
C452 C451 1.503 . S
C452 C453 1.394 . S
C452 C457 1.373 . S
C453 C452 1.394 . S
C453 C454 1.380 . S
C453 H476 0.930 . S
C454 C453 1.380 . S
C454 C455 1.376 . S
C454 H477 0.930 . S
C455 C454 1.376 . S
C455 C456 1.370 . S
C456 C455 1.370 . S
C456 C457 1.396 . S
C456 H478 0.929 . S
C457 C452 1.373 . S
C457 C456 1.396 . S
C457 H479 0.929 . S
C458 O468 1.240 . S
C458 O469 1.289 . S
C459 O470 1.258 . S
C459 O471 1.256 . S
O460 La440 2.521 . S
O460 C442 1.261 . S
O461 La440 2.628 . S
O461 C442 1.243 . S
O462 La440 2.554 . S
O462 C449 1.240 . S
O463 La440 2.757 . S
O463 La441 2.482 . S
O463 C449 1.289 . S
O464 La440 2.470 . S
O464 C450 1.258 . S
O465 La441 2.503 . S
O465 C450 1.256 . S
O466 La441 2.521 . S
O466 C451 1.261 . S
O467 La441 2.628 . S
O467 C451 1.243 . S
O468 La441 2.554 . S
O468 C458 1.240 . S
O469 La440 2.482 . S
O469 La441 2.757 . S
O469 C458 1.289 . S
O470 La441 2.470 . S
O470 C459 1.258 . S
O471 La440 2.503 . S
O471 C459 1.256 . S
H472 C444 0.930 . S
H473 C445 0.930 . S
H474 C447 0.929 . S
H475 C448 0.929 . S
H476 C453 0.930 . S
H477 C454 0.930 . S
H478 C456 0.929 . S
H479 C457 0.929 . S
La480 C482 2.928 . S
La480 O500 2.521 . S
La480 O501 2.628 . S
La480 O502 2.554 . S
La480 O503 2.757 . S
La480 O504 2.470 . S
La480 O509 2.482 . S
La480 O511 2.503 . S
La481 C491 2.928 . S
La481 O503 2.482 . S
La481 O505 2.503 . S
La481 O506 2.521 . S
La481 O507 2.628 . S
La481 O508 2.554 . S
La481 O509 2.757 . S
La481 O510 2.470 . S
C482 La480 2.928 . S
C482 C483 1.503 . S
C482 O500 1.261 . S
C482 O501 1.243 . S
C483 C482 1.503 . S
C483 C484 1.394 . S
C483 C488 1.373 . S
C484 C483 1.394 . S
C484 C485 1.380 . S
C484 H512 0.930 . S
C485 C484 1.380 . S
C485 C486 1.376 . S
C485 H513 0.930 . S
C486 C485 1.376 . S
C486 C487 1.370 . S
C487 C486 1.370 . S
C487 C488 1.396 . S
C487 H514 0.929 . S
C488 C483 1.373 . S
C488 C487 1.396 . S
C488 H515 0.929 . S
C489 O502 1.240 . S
C489 O503 1.289 . S
C490 O504 1.258 . S
C490 O505 1.256 . S
C491 La481 2.928 . S
C491 C492 1.503 . S
C491 O506 1.261 . S
C491 O507 1.243 . S
C492 C491 1.503 . S
C492 C493 1.394 . S
C492 C497 1.373 . S
C493 C492 1.394 . S
C493 C494 1.380 . S
C493 H516 0.930 . S
C494 C493 1.380 . S
C494 C495 1.376 . S
C494 H517 0.930 . S
C495 C494 1.376 . S
C495 C496 1.370 . S
C496 C495 1.370 . S
C496 C497 1.396 . S
C496 H518 0.929 . S
C497 C492 1.373 . S
C497 C496 1.396 . S
C497 H519 0.929 . S
C498 O508 1.240 . S
C498 O509 1.289 . S
C499 O510 1.258 . S
C499 O511 1.256 . S
O500 La480 2.521 . S
O500 C482 1.261 . S
O501 La480 2.628 . S
O501 C482 1.243 . S
O502 La480 2.554 . S
O502 C489 1.240 . S
O503 La480 2.757 . S
O503 La481 2.482 . S
O503 C489 1.289 . S
O504 La480 2.470 . S
O504 C490 1.258 . S
O505 La481 2.503 . S
O505 C490 1.256 . S
O506 La481 2.521 . S
O506 C491 1.261 . S
O507 La481 2.628 . S
O507 C491 1.243 . S
O508 La481 2.554 . S
O508 C498 1.240 . S
O509 La480 2.482 . S
O509 La481 2.757 . S
O509 C498 1.289 . S
O510 La481 2.470 . S
O510 C499 1.258 . S
O511 La480 2.503 . S
O511 C499 1.256 . S
H512 C484 0.930 . S
H513 C485 0.930 . S
H514 C487 0.929 . S
H515 C488 0.929 . S
H516 C493 0.930 . S
H517 C494 0.930 . S
H518 C496 0.929 . S
H519 C497 0.929 . S
La520 C522 2.928 . S
La520 O540 2.521 . S
La520 O541 2.628 . S
La520 O542 2.554 . S
La520 O543 2.757 . S
La520 O544 2.470 . S
La520 O549 2.482 . S
La520 O551 2.503 . S
La521 C531 2.928 . S
La521 O543 2.482 . S
La521 O545 2.503 . S
La521 O546 2.521 . S
La521 O547 2.628 . S
La521 O548 2.554 . S
La521 O549 2.757 . S
La521 O550 2.470 . S
C522 La520 2.928 . S
C522 C523 1.503 . S
C522 O540 1.261 . S
C522 O541 1.243 . S
C523 C522 1.503 . S
C523 C524 1.394 . S
C523 C528 1.373 . S
C524 C523 1.394 . S
C524 C525 1.380 . S
C524 H552 0.930 . S
C525 C524 1.380 . S
C525 C526 1.376 . S
C525 H553 0.930 . S
C526 C525 1.376 . S
C526 C527 1.370 . S
C527 C526 1.370 . S
C527 C528 1.396 . S
C527 H554 0.929 . S
C528 C523 1.373 . S
C528 C527 1.396 . S
C528 H555 0.929 . S
C529 O542 1.240 . S
C529 O543 1.289 . S
C530 O544 1.258 . S
C530 O545 1.256 . S
C531 La521 2.928 . S
C531 C532 1.503 . S
C531 O546 1.261 . S
C531 O547 1.243 . S
C532 C531 1.503 . S
C532 C533 1.394 . S
C532 C537 1.373 . S
C533 C532 1.394 . S
C533 C534 1.380 . S
C533 H556 0.930 . S
C534 C533 1.380 . S
C534 C535 1.376 . S
C534 H557 0.930 . S
C535 C534 1.376 . S
C535 C536 1.370 . S
C536 C535 1.370 . S
C536 C537 1.396 . S
C536 H558 0.929 . S
C537 C532 1.373 . S
C537 C536 1.396 . S
C537 H559 0.929 . S
C538 O548 1.240 . S
C538 O549 1.289 . S
C539 O550 1.258 . S
C539 O551 1.256 . S
O540 La520 2.521 . S
O540 C522 1.261 . S
O541 La520 2.628 . S
O541 C522 1.243 . S
O542 La520 2.554 . S
O542 C529 1.240 . S
O543 La520 2.757 . S
O543 La521 2.482 . S
O543 C529 1.289 . S
O544 La520 2.470 . S
O544 C530 1.258 . S
O545 La521 2.503 . S
O545 C530 1.256 . S
O546 La521 2.521 . S
O546 C531 1.261 . S
O547 La521 2.628 . S
O547 C531 1.243 . S
O548 La521 2.554 . S
O548 C538 1.240 . S
O549 La520 2.482 . S
O549 La521 2.757 . S
O549 C538 1.289 . S
O550 La521 2.470 . S
O550 C539 1.258 . S
O551 La520 2.503 . S
O551 C539 1.256 . S
H552 C524 0.930 . S
H553 C525 0.930 . S
H554 C527 0.929 . S
H555 C528 0.929 . S
H556 C533 0.930 . S
H557 C534 0.930 . S
H558 C536 0.929 . S
H559 C537 0.929 . S
La560 C562 2.928 . S
La560 O580 2.521 . S
La560 O581 2.628 . S
La560 O582 2.554 . S
La560 O583 2.757 . S
La560 O584 2.470 . S
La560 O589 2.482 . S
La560 O591 2.503 . S
La561 C571 2.928 . S
La561 O583 2.482 . S
La561 O585 2.503 . S
La561 O586 2.521 . S
La561 O587 2.628 . S
La561 O588 2.554 . S
La561 O589 2.757 . S
La561 O590 2.470 . S
C562 La560 2.928 . S
C562 C563 1.503 . S
C562 O580 1.261 . S
C562 O581 1.243 . S
C563 C562 1.503 . S
C563 C564 1.394 . S
C563 C568 1.373 . S
C564 C563 1.394 . S
C564 C565 1.380 . S
C564 H592 0.930 . S
C565 C564 1.380 . S
C565 C566 1.376 . S
C565 H593 0.930 . S
C566 C565 1.376 . S
C566 C567 1.370 . S
C567 C566 1.370 . S
C567 C568 1.396 . S
C567 H594 0.929 . S
C568 C563 1.373 . S
C568 C567 1.396 . S
C568 H595 0.929 . S
C569 O582 1.240 . S
C569 O583 1.289 . S
C570 O584 1.258 . S
C570 O585 1.256 . S
C571 La561 2.928 . S
C571 C572 1.503 . S
C571 O586 1.261 . S
C571 O587 1.243 . S
C572 C571 1.503 . S
C572 C573 1.394 . S
C572 C577 1.373 . S
C573 C572 1.394 . S
C573 C574 1.380 . S
C573 H596 0.930 . S
C574 C573 1.380 . S
C574 C575 1.376 . S
C574 H597 0.930 . S
C575 C574 1.376 . S
C575 C576 1.370 . S
C576 C575 1.370 . S
C576 C577 1.396 . S
C576 H598 0.929 . S
C577 C572 1.373 . S
C577 C576 1.396 . S
C577 H599 0.929 . S
C578 O588 1.240 . S
C578 O589 1.289 . S
C579 O590 1.258 . S
C579 O591 1.256 . S
O580 La560 2.521 . S
O580 C562 1.261 . S
O581 La560 2.628 . S
O581 C562 1.243 . S
O582 La560 2.554 . S
O582 C569 1.240 . S
O583 La560 2.757 . S
O583 La561 2.482 . S
O583 C569 1.289 . S
O584 La560 2.470 . S
O584 C570 1.258 . S
O585 La561 2.503 . S
O585 C570 1.256 . S
O586 La561 2.521 . S
O586 C571 1.261 . S
O587 La561 2.628 . S
O587 C571 1.243 . S
O588 La561 2.554 . S
O588 C578 1.240 . S
O589 La560 2.482 . S
O589 La561 2.757 . S
O589 C578 1.289 . S
O590 La561 2.470 . S
O590 C579 1.258 . S
O591 La560 2.503 . S
O591 C579 1.256 . S
H592 C564 0.930 . S
H593 C565 0.930 . S
H594 C567 0.929 . S
H595 C568 0.929 . S
H596 C573 0.930 . S
H597 C574 0.930 . S
H598 C576 0.929 . S
H599 C577 0.929 . S
La600 C602 2.928 . S
La600 O620 2.521 . S
La600 O621 2.628 . S
La600 O622 2.554 . S
La600 O623 2.757 . S
La600 O624 2.470 . S
La600 O629 2.482 . S
La600 O631 2.503 . S
La601 C611 2.928 . S
La601 O623 2.482 . S
La601 O625 2.503 . S
La601 O626 2.521 . S
La601 O627 2.628 . S
La601 O628 2.554 . S
La601 O629 2.757 . S
La601 O630 2.470 . S
C602 La600 2.928 . S
C602 C603 1.503 . S
C602 O620 1.261 . S
C602 O621 1.243 . S
C603 C602 1.503 . S
C603 C604 1.394 . S
C603 C608 1.373 1_655 S
C604 C603 1.394 . S
C604 C605 1.380 . S
C604 H632 0.930 . S
C605 C604 1.380 . S
C605 C606 1.376 1_655 S
C605 H633 0.930 . S
C606 C605 1.376 1_455 S
C606 C607 1.370 . S
C607 C606 1.370 . S
C607 C608 1.396 . S
C607 H634 0.929 . S
C608 C603 1.373 1_455 S
C608 C607 1.396 . S
C608 H635 0.929 . S
C609 O622 1.240 . S
C609 O623 1.289 . S
C610 O624 1.258 . S
C610 O625 1.256 . S
C611 La601 2.928 . S
C611 C612 1.503 . S
C611 O626 1.261 . S
C611 O627 1.243 . S
C612 C611 1.503 . S
C612 C613 1.394 . S
C612 C617 1.373 . S
C613 C612 1.394 . S
C613 C614 1.380 . S
C613 H636 0.930 . S
C614 C613 1.380 . S
C614 C615 1.376 . S
C614 H637 0.930 . S
C615 C614 1.376 . S
C615 C616 1.370 . S
C616 C615 1.370 . S
C616 C617 1.396 . S
C616 H638 0.929 . S
C617 C612 1.373 . S
C617 C616 1.396 . S
C617 H639 0.929 . S
C618 O628 1.240 . S
C618 O629 1.289 . S
C619 O630 1.258 . S
C619 O631 1.256 . S
O620 La600 2.521 . S
O620 C602 1.261 . S
O621 La600 2.628 . S
O621 C602 1.243 . S
O622 La600 2.554 . S
O622 C609 1.240 . S
O623 La600 2.757 . S
O623 La601 2.482 . S
O623 C609 1.289 . S
O624 La600 2.470 . S
O624 C610 1.258 . S
O625 La601 2.503 . S
O625 C610 1.256 . S
O626 La601 2.521 . S
O626 C611 1.261 . S
O627 La601 2.628 . S
O627 C611 1.243 . S
O628 La601 2.554 . S
O628 C618 1.240 . S
O629 La600 2.482 . S
O629 La601 2.757 . S
O629 C618 1.289 . S
O630 La601 2.470 . S
O630 C619 1.258 . S
O631 La600 2.503 . S
O631 C619 1.256 . S
H632 C604 0.930 . S
H633 C605 0.930 . S
H634 C607 0.929 . S
H635 C608 0.929 . S
H636 C613 0.930 . S
H637 C614 0.930 . S
H638 C616 0.929 . S
H639 C617 0.929 . S
La640 C642 2.928 . S
La640 O660 2.521 . S
La640 O661 2.628 . S
La640 O662 2.554 . S
La640 O663 2.757 . S
La640 O664 2.470 . S
La640 O669 2.482 . S
La640 O671 2.503 . S
La641 C651 2.928 . S
La641 O663 2.482 . S
La641 O665 2.503 . S
La641 O666 2.521 . S
La641 O667 2.628 . S
La641 O668 2.554 . S
La641 O669 2.757 . S
La641 O670 2.470 . S
C642 La640 2.928 . S
C642 C643 1.503 . S
C642 O660 1.261 . S
C642 O661 1.243 . S
C643 C642 1.503 . S
C643 C644 1.394 . S
C643 C648 1.373 . S
C644 C643 1.394 . S
C644 C645 1.380 . S
C644 H672 0.930 . S
C645 C644 1.380 . S
C645 C646 1.376 . S
C645 H673 0.930 . S
C646 C645 1.376 . S
C646 C647 1.370 . S
C647 C646 1.370 . S
C647 C648 1.396 . S
C647 H674 0.929 . S
C648 C643 1.373 . S
C648 C647 1.396 . S
C648 H675 0.929 . S
C649 O662 1.240 . S
C649 O663 1.289 . S
C650 O664 1.258 . S
C650 O665 1.256 . S
C651 La641 2.928 . S
C651 C652 1.503 . S
C651 O666 1.261 . S
C651 O667 1.243 . S
C652 C651 1.503 . S
C652 C653 1.394 . S
C652 C657 1.373 . S
C653 C652 1.394 . S
C653 C654 1.380 . S
C653 H676 0.930 . S
C654 C653 1.380 . S
C654 C655 1.376 . S
C654 H677 0.930 . S
C655 C654 1.376 . S
C655 C656 1.370 . S
C656 C655 1.370 . S
C656 C657 1.396 . S
C656 H678 0.929 . S
C657 C652 1.373 . S
C657 C656 1.396 . S
C657 H679 0.929 . S
C658 O668 1.240 . S
C658 O669 1.289 . S
C659 O670 1.258 . S
C659 O671 1.256 . S
O660 La640 2.521 . S
O660 C642 1.261 . S
O661 La640 2.628 . S
O661 C642 1.243 . S
O662 La640 2.554 . S
O662 C649 1.240 . S
O663 La640 2.757 . S
O663 La641 2.482 . S
O663 C649 1.289 . S
O664 La640 2.470 . S
O664 C650 1.258 . S
O665 La641 2.503 . S
O665 C650 1.256 . S
O666 La641 2.521 . S
O666 C651 1.261 . S
O667 La641 2.628 . S
O667 C651 1.243 . S
O668 La641 2.554 . S
O668 C658 1.240 . S
O669 La640 2.482 . S
O669 La641 2.757 . S
O669 C658 1.289 . S
O670 La641 2.470 . S
O670 C659 1.258 . S
O671 La640 2.503 . S
O671 C659 1.256 . S
H672 C644 0.930 . S
H673 C645 0.930 . S
H674 C647 0.929 . S
H675 C648 0.929 . S
H676 C653 0.930 . S
H677 C654 0.930 . S
H678 C656 0.929 . S
H679 C657 0.929 . S
La680 C682 2.928 . S
La680 O700 2.521 . S
La680 O701 2.628 . S
La680 O702 2.554 . S
La680 O703 2.757 . S
La680 O704 2.470 . S
La680 O709 2.482 . S
La680 O711 2.503 . S
La681 C691 2.928 . S
La681 O703 2.482 . S
La681 O705 2.503 . S
La681 O706 2.521 . S
La681 O707 2.628 . S
La681 O708 2.554 . S
La681 O709 2.757 . S
La681 O710 2.470 . S
C682 La680 2.928 . S
C682 C683 1.503 . S
C682 O700 1.261 . S
C682 O701 1.243 . S
C683 C682 1.503 . S
C683 C684 1.394 . S
C683 C688 1.373 1_545 S
C684 C683 1.394 . S
C684 C685 1.380 . S
C684 H712 0.930 . S
C685 C684 1.380 . S
C685 C686 1.376 1_545 S
C685 H713 0.930 . S
C686 C685 1.376 1_565 S
C686 C687 1.370 . S
C687 C686 1.370 . S
C687 C688 1.396 . S
C687 H714 0.929 . S
C688 C683 1.373 1_565 S
C688 C687 1.396 . S
C688 H715 0.929 . S
C689 O702 1.240 . S
C689 O703 1.289 . S
C690 O704 1.258 . S
C690 O705 1.256 . S
C691 La681 2.928 . S
C691 C692 1.503 . S
C691 O706 1.261 . S
C691 O707 1.243 . S
C692 C691 1.503 . S
C692 C693 1.394 . S
C692 C697 1.373 . S
C693 C692 1.394 . S
C693 C694 1.380 . S
C693 H716 0.930 . S
C694 C693 1.380 . S
C694 C695 1.376 . S
C694 H717 0.930 . S
C695 C694 1.376 . S
C695 C696 1.370 . S
C696 C695 1.370 . S
C696 C697 1.396 . S
C696 H718 0.929 . S
C697 C692 1.373 . S
C697 C696 1.396 . S
C697 H719 0.929 . S
C698 O708 1.240 . S
C698 O709 1.289 . S
C699 O710 1.258 . S
C699 O711 1.256 . S
O700 La680 2.521 . S
O700 C682 1.261 . S
O701 La680 2.628 . S
O701 C682 1.243 . S
O702 La680 2.554 . S
O702 C689 1.240 . S
O703 La680 2.757 . S
O703 La681 2.482 . S
O703 C689 1.289 . S
O704 La680 2.470 . S
O704 C690 1.258 . S
O705 La681 2.503 . S
O705 C690 1.256 . S
O706 La681 2.521 . S
O706 C691 1.261 . S
O707 La681 2.628 . S
O707 C691 1.243 . S
O708 La681 2.554 . S
O708 C698 1.240 . S
O709 La680 2.482 . S
O709 La681 2.757 . S
O709 C698 1.289 . S
O710 La681 2.470 . S
O710 C699 1.258 . S
O711 La680 2.503 . S
O711 C699 1.256 . S
H712 C684 0.930 . S
H713 C685 0.930 . S
H714 C687 0.929 . S
H715 C688 0.929 . S
H716 C693 0.930 . S
H717 C694 0.930 . S
H718 C696 0.929 . S
H719 C697 0.929 . S
La720 C722 2.928 . S
La720 O740 2.521 . S
La720 O741 2.628 . S
La720 O742 2.554 . S
La720 O743 2.757 . S
La720 O744 2.470 . S
La720 O749 2.482 . S
La720 O751 2.503 . S
La721 C731 2.928 . S
La721 O743 2.482 . S
La721 O745 2.503 . S
La721 O746 2.521 . S
La721 O747 2.628 . S
La721 O748 2.554 . S
La721 O749 2.757 . S
La721 O750 2.470 . S
C722 La720 2.928 . S
C722 C723 1.503 . S
C722 O740 1.261 . S
C722 O741 1.243 . S
C723 C722 1.503 . S
C723 C724 1.394 . S
C723 C728 1.373 . S
C724 C723 1.394 . S
C724 C725 1.380 . S
C724 H752 0.930 . S
C725 C724 1.380 . S
C725 C726 1.376 . S
C725 H753 0.930 . S
C726 C725 1.376 . S
C726 C727 1.370 . S
C727 C726 1.370 . S
C727 C728 1.396 . S
C727 H754 0.929 . S
C728 C723 1.373 . S
C728 C727 1.396 . S
C728 H755 0.929 . S
C729 O742 1.240 . S
C729 O743 1.289 . S
C730 O744 1.258 . S
C730 O745 1.256 . S
C731 La721 2.928 . S
C731 C732 1.503 . S
C731 O746 1.261 . S
C731 O747 1.243 . S
C732 C731 1.503 . S
C732 C733 1.394 . S
C732 C737 1.373 1_545 S
C733 C732 1.394 . S
C733 C734 1.380 . S
C733 H756 0.930 . S
C734 C733 1.380 . S
C734 C735 1.376 1_545 S
C734 H757 0.930 . S
C735 C734 1.376 1_565 S
C735 C736 1.370 . S
C736 C735 1.370 . S
C736 C737 1.396 . S
C736 H758 0.929 . S
C737 C732 1.373 1_565 S
C737 C736 1.396 . S
C737 H759 0.929 . S
C738 O748 1.240 . S
C738 O749 1.289 . S
C739 O750 1.258 . S
C739 O751 1.256 . S
O740 La720 2.521 . S
O740 C722 1.261 . S
O741 La720 2.628 . S
O741 C722 1.243 . S
O742 La720 2.554 . S
O742 C729 1.240 . S
O743 La720 2.757 . S
O743 La721 2.482 . S
O743 C729 1.289 . S
O744 La720 2.470 . S
O744 C730 1.258 . S
O745 La721 2.503 . S
O745 C730 1.256 . S
O746 La721 2.521 . S
O746 C731 1.261 . S
O747 La721 2.628 . S
O747 C731 1.243 . S
O748 La721 2.554 . S
O748 C738 1.240 . S
O749 La720 2.482 . S
O749 La721 2.757 . S
O749 C738 1.289 . S
O750 La721 2.470 . S
O750 C739 1.258 . S
O751 La720 2.503 . S
O751 C739 1.256 . S
H752 C724 0.930 . S
H753 C725 0.930 . S
H754 C727 0.929 . S
H755 C728 0.929 . S
H756 C733 0.930 . S
H757 C734 0.930 . S
H758 C736 0.929 . S
H759 C737 0.929 . S
La760 C762 2.928 . S
La760 O780 2.521 . S
La760 O781 2.628 . S
La760 O782 2.554 . S
La760 O783 2.757 . S
La760 O784 2.470 . S
La760 O789 2.482 . S
La760 O791 2.503 . S
La761 C771 2.928 . S
La761 O783 2.482 . S
La761 O785 2.503 . S
La761 O786 2.521 . S
La761 O787 2.628 . S
La761 O788 2.554 . S
La761 O789 2.757 . S
La761 O790 2.470 . S
C762 La760 2.928 . S
C762 C763 1.503 . S
C762 O780 1.261 . S
C762 O781 1.243 . S
C763 C762 1.503 . S
C763 C764 1.394 . S
C763 C768 1.373 . S
C764 C763 1.394 . S
C764 C765 1.380 . S
C764 H792 0.930 . S
C765 C764 1.380 . S
C765 C766 1.376 . S
C765 H793 0.930 . S
C766 C765 1.376 . S
C766 C767 1.370 . S
C767 C766 1.370 . S
C767 C768 1.396 . S
C767 H794 0.929 . S
C768 C763 1.373 . S
C768 C767 1.396 . S
C768 H795 0.929 . S
C769 O782 1.240 . S
C769 O783 1.289 . S
C770 O784 1.258 . S
C770 O785 1.256 . S
C771 La761 2.928 . S
C771 C772 1.503 . S
C771 O786 1.261 . S
C771 O787 1.243 . S
C772 C771 1.503 . S
C772 C773 1.394 . S
C772 C777 1.373 1_655 S
C773 C772 1.394 . S
C773 C774 1.380 . S
C773 H796 0.930 . S
C774 C773 1.380 . S
C774 C775 1.376 1_655 S
C774 H797 0.930 . S
C775 C774 1.376 1_455 S
C775 C776 1.370 . S
C776 C775 1.370 . S
C776 C777 1.396 . S
C776 H798 0.929 . S
C777 C772 1.373 1_455 S
C777 C776 1.396 . S
C777 H799 0.929 . S
C778 O788 1.240 . S
C778 O789 1.289 . S
C779 O790 1.258 . S
C779 O791 1.256 . S
O780 La760 2.521 . S
O780 C762 1.261 . S
O781 La760 2.628 . S
O781 C762 1.243 . S
O782 La760 2.554 . S
O782 C769 1.240 . S
O783 La760 2.757 . S
O783 La761 2.482 . S
O783 C769 1.289 . S
O784 La760 2.470 . S
O784 C770 1.258 . S
O785 La761 2.503 . S
O785 C770 1.256 . S
O786 La761 2.521 . S
O786 C771 1.261 . S
O787 La761 2.628 . S
O787 C771 1.243 . S
O788 La761 2.554 . S
O788 C778 1.240 . S
O789 La760 2.482 . S
O789 La761 2.757 . S
O789 C778 1.289 . S
O790 La761 2.470 . S
O790 C779 1.258 . S
O791 La760 2.503 . S
O791 C779 1.256 . S
H792 C764 0.930 . S
H793 C765 0.930 . S
H794 C767 0.929 . S
H795 C768 0.929 . S
H796 C773 0.930 . S
H797 C774 0.930 . S
H798 C776 0.929 . S
H799 C777 0.929 . S
La800 C802 2.928 . S
La800 O820 2.521 . S
La800 O821 2.628 . S
La800 O822 2.554 . S
La800 O823 2.757 . S
La800 O824 2.470 . S
La800 O829 2.482 . S
La800 O831 2.503 . S
La801 C811 2.928 . S
La801 O823 2.482 . S
La801 O825 2.503 . S
La801 O826 2.521 . S
La801 O827 2.628 . S
La801 O828 2.554 . S
La801 O829 2.757 . S
La801 O830 2.470 . S
C802 La800 2.928 . S
C802 C803 1.503 . S
C802 O820 1.261 . S
C802 O821 1.243 . S
C803 C802 1.503 . S
C803 C804 1.394 . S
C803 C808 1.373 . S
C804 C803 1.394 . S
C804 C805 1.380 . S
C804 H832 0.930 . S
C805 C804 1.380 . S
C805 C806 1.376 . S
C805 H833 0.930 . S
C806 C805 1.376 . S
C806 C807 1.370 . S
C807 C806 1.370 . S
C807 C808 1.396 . S
C807 H834 0.929 . S
C808 C803 1.373 . S
C808 C807 1.396 . S
C808 H835 0.929 . S
C809 O822 1.240 . S
C809 O823 1.289 . S
C810 O824 1.258 . S
C810 O825 1.256 . S
C811 La801 2.928 . S
C811 C812 1.503 . S
C811 O826 1.261 . S
C811 O827 1.243 . S
C812 C811 1.503 . S
C812 C813 1.394 . S
C812 C817 1.373 . S
C813 C812 1.394 . S
C813 C814 1.380 . S
C813 H836 0.930 . S
C814 C813 1.380 . S
C814 C815 1.376 . S
C814 H837 0.930 . S
C815 C814 1.376 . S
C815 C816 1.370 . S
C816 C815 1.370 . S
C816 C817 1.396 . S
C816 H838 0.929 . S
C817 C812 1.373 . S
C817 C816 1.396 . S
C817 H839 0.929 . S
C818 O828 1.240 . S
C818 O829 1.289 . S
C819 O830 1.258 . S
C819 O831 1.256 . S
O820 La800 2.521 . S
O820 C802 1.261 . S
O821 La800 2.628 . S
O821 C802 1.243 . S
O822 La800 2.554 . S
O822 C809 1.240 . S
O823 La800 2.757 . S
O823 La801 2.482 . S
O823 C809 1.289 . S
O824 La800 2.470 . S
O824 C810 1.258 . S
O825 La801 2.503 . S
O825 C810 1.256 . S
O826 La801 2.521 . S
O826 C811 1.261 . S
O827 La801 2.628 . S
O827 C811 1.243 . S
O828 La801 2.554 . S
O828 C818 1.240 . S
O829 La800 2.482 . S
O829 La801 2.757 . S
O829 C818 1.289 . S
O830 La801 2.470 . S
O830 C819 1.258 . S
O831 La800 2.503 . S
O831 C819 1.256 . S
H832 C804 0.930 . S
H833 C805 0.930 . S
H834 C807 0.929 . S
H835 C808 0.929 . S
H836 C813 0.930 . S
H837 C814 0.930 . S
H838 C816 0.929 . S
H839 C817 0.929 . S
La840 C842 2.928 . S
La840 O860 2.521 . S
La840 O861 2.628 . S
La840 O862 2.554 . S
La840 O863 2.757 1_554 S
La840 O864 2.470 . S
La840 O869 2.482 . S
La840 O871 2.503 . S
La841 C851 2.928 . S
La841 O863 2.482 . S
La841 O865 2.503 . S
La841 O866 2.521 . S
La841 O867 2.628 . S
La841 O868 2.554 . S
La841 O869 2.757 1_556 S
La841 O870 2.470 . S
C842 La840 2.928 . S
C842 C843 1.503 . S
C842 O860 1.261 . S
C842 O861 1.243 . S
C843 C842 1.503 . S
C843 C844 1.394 . S
C843 C848 1.373 . S
C844 C843 1.394 . S
C844 C845 1.380 . S
C844 H872 0.930 . S
C845 C844 1.380 . S
C845 C846 1.376 . S
C845 H873 0.930 . S
C846 C845 1.376 . S
C846 C847 1.370 . S
C847 C846 1.370 . S
C847 C848 1.396 . S
C847 H874 0.929 . S
C848 C843 1.373 . S
C848 C847 1.396 . S
C848 H875 0.929 . S
C849 O862 1.240 . S
C849 O863 1.289 1_554 S
C850 O864 1.258 . S
C850 O865 1.256 1_554 S
C851 La841 2.928 . S
C851 C852 1.503 . S
C851 O866 1.261 . S
C851 O867 1.243 . S
C852 C851 1.503 . S
C852 C853 1.394 . S
C852 C857 1.373 . S
C853 C852 1.394 . S
C853 C854 1.380 . S
C853 H876 0.930 . S
C854 C853 1.380 . S
C854 C855 1.376 . S
C854 H877 0.930 . S
C855 C854 1.376 . S
C855 C856 1.370 . S
C856 C855 1.370 . S
C856 C857 1.396 . S
C856 H878 0.929 . S
C857 C852 1.373 . S
C857 C856 1.396 . S
C857 H879 0.929 . S
C858 O868 1.240 . S
C858 O869 1.289 1_556 S
C859 O870 1.258 . S
C859 O871 1.256 1_556 S
O860 La840 2.521 . S
O860 C842 1.261 . S
O861 La840 2.628 . S
O861 C842 1.243 . S
O862 La840 2.554 . S
O862 C849 1.240 . S
O863 La840 2.757 1_556 S
O863 La841 2.482 . S
O863 C849 1.289 1_556 S
O864 La840 2.470 . S
O864 C850 1.258 . S
O865 La841 2.503 . S
O865 C850 1.256 1_556 S
O866 La841 2.521 . S
O866 C851 1.261 . S
O867 La841 2.628 . S
O867 C851 1.243 . S
O868 La841 2.554 . S
O868 C858 1.240 . S
O869 La840 2.482 . S
O869 La841 2.757 1_554 S
O869 C858 1.289 1_554 S
O870 La841 2.470 . S
O870 C859 1.258 . S
O871 La840 2.503 . S
O871 C859 1.256 1_554 S
H872 C844 0.930 . S
H873 C845 0.930 . S
H874 C847 0.929 . S
H875 C848 0.929 . S
H876 C853 0.930 . S
H877 C854 0.930 . S
H878 C856 0.929 . S
H879 C857 0.929 . S
La880 C882 2.928 . S
La880 O900 2.521 . S
La880 O901 2.628 . S
La880 O902 2.554 . S
La880 O903 2.757 1_554 S
La880 O904 2.470 . S
La880 O909 2.482 . S
La880 O911 2.503 . S
La881 C891 2.928 . S
La881 O903 2.482 . S
La881 O905 2.503 . S
La881 O906 2.521 . S
La881 O907 2.628 . S
La881 O908 2.554 . S
La881 O909 2.757 1_556 S
La881 O910 2.470 . S
C882 La880 2.928 . S
C882 C883 1.503 . S
C882 O900 1.261 . S
C882 O901 1.243 . S
C883 C882 1.503 . S
C883 C884 1.394 . S
C883 C888 1.373 . S
C884 C883 1.394 . S
C884 C885 1.380 . S
C884 H912 0.930 . S
C885 C884 1.380 . S
C885 C886 1.376 . S
C885 H913 0.930 . S
C886 C885 1.376 . S
C886 C887 1.370 . S
C887 C886 1.370 . S
C887 C888 1.396 . S
C887 H914 0.929 . S
C888 C883 1.373 . S
C888 C887 1.396 . S
C888 H915 0.929 . S
C889 O902 1.240 . S
C889 O903 1.289 1_554 S
C890 O904 1.258 . S
C890 O905 1.256 1_554 S
C891 La881 2.928 . S
C891 C892 1.503 . S
C891 O906 1.261 . S
C891 O907 1.243 . S
C892 C891 1.503 . S
C892 C893 1.394 . S
C892 C897 1.373 . S
C893 C892 1.394 . S
C893 C894 1.380 . S
C893 H916 0.930 . S
C894 C893 1.380 . S
C894 C895 1.376 . S
C894 H917 0.930 . S
C895 C894 1.376 . S
C895 C896 1.370 . S
C896 C895 1.370 . S
C896 C897 1.396 . S
C896 H918 0.929 . S
C897 C892 1.373 . S
C897 C896 1.396 . S
C897 H919 0.929 . S
C898 O908 1.240 . S
C898 O909 1.289 1_556 S
C899 O910 1.258 . S
C899 O911 1.256 1_556 S
O900 La880 2.521 . S
O900 C882 1.261 . S
O901 La880 2.628 . S
O901 C882 1.243 . S
O902 La880 2.554 . S
O902 C889 1.240 . S
O903 La880 2.757 1_556 S
O903 La881 2.482 . S
O903 C889 1.289 1_556 S
O904 La880 2.470 . S
O904 C890 1.258 . S
O905 La881 2.503 . S
O905 C890 1.256 1_556 S
O906 La881 2.521 . S
O906 C891 1.261 . S
O907 La881 2.628 . S
O907 C891 1.243 . S
O908 La881 2.554 . S
O908 C898 1.240 . S
O909 La880 2.482 . S
O909 La881 2.757 1_554 S
O909 C898 1.289 1_554 S
O910 La881 2.470 . S
O910 C899 1.258 . S
O911 La880 2.503 . S
O911 C899 1.256 1_554 S
H912 C884 0.930 . S
H913 C885 0.930 . S
H914 C887 0.929 . S
H915 C888 0.929 . S
H916 C893 0.930 . S
H917 C894 0.930 . S
H918 C896 0.929 . S
H919 C897 0.929 . S
La920 C922 2.928 . S
La920 O940 2.521 . S
La920 O941 2.628 . S
La920 O942 2.554 . S
La920 O943 2.757 1_554 S
La920 O944 2.470 . S
La920 O949 2.482 . S
La920 O951 2.503 . S
La921 C931 2.928 . S
La921 O943 2.482 . S
La921 O945 2.503 . S
La921 O946 2.521 . S
La921 O947 2.628 . S
La921 O948 2.554 . S
La921 O949 2.757 1_556 S
La921 O950 2.470 . S
C922 La920 2.928 . S
C922 C923 1.503 . S
C922 O940 1.261 . S
C922 O941 1.243 . S
C923 C922 1.503 . S
C923 C924 1.394 . S
C923 C928 1.373 . S
C924 C923 1.394 . S
C924 C925 1.380 . S
C924 H952 0.930 . S
C925 C924 1.380 . S
C925 C926 1.376 . S
C925 H953 0.930 . S
C926 C925 1.376 . S
C926 C927 1.370 . S
C927 C926 1.370 . S
C927 C928 1.396 . S
C927 H954 0.929 . S
C928 C923 1.373 . S
C928 C927 1.396 . S
C928 H955 0.929 . S
C929 O942 1.240 . S
C929 O943 1.289 1_554 S
C930 O944 1.258 . S
C930 O945 1.256 1_554 S
C931 La921 2.928 . S
C931 C932 1.503 . S
C931 O946 1.261 . S
C931 O947 1.243 . S
C932 C931 1.503 . S
C932 C933 1.394 . S
C932 C937 1.373 . S
C933 C932 1.394 . S
C933 C934 1.380 . S
C933 H956 0.930 . S
C934 C933 1.380 . S
C934 C935 1.376 . S
C934 H957 0.930 . S
C935 C934 1.376 . S
C935 C936 1.370 . S
C936 C935 1.370 . S
C936 C937 1.396 . S
C936 H958 0.929 . S
C937 C932 1.373 . S
C937 C936 1.396 . S
C937 H959 0.929 . S
C938 O948 1.240 . S
C938 O949 1.289 1_556 S
C939 O950 1.258 . S
C939 O951 1.256 1_556 S
O940 La920 2.521 . S
O940 C922 1.261 . S
O941 La920 2.628 . S
O941 C922 1.243 . S
O942 La920 2.554 . S
O942 C929 1.240 . S
O943 La920 2.757 1_556 S
O943 La921 2.482 . S
O943 C929 1.289 1_556 S
O944 La920 2.470 . S
O944 C930 1.258 . S
O945 La921 2.503 . S
O945 C930 1.256 1_556 S
O946 La921 2.521 . S
O946 C931 1.261 . S
O947 La921 2.628 . S
O947 C931 1.243 . S
O948 La921 2.554 . S
O948 C938 1.240 . S
O949 La920 2.482 . S
O949 La921 2.757 1_554 S
O949 C938 1.289 1_554 S
O950 La921 2.470 . S
O950 C939 1.258 . S
O951 La920 2.503 . S
O951 C939 1.256 1_554 S
H952 C924 0.930 . S
H953 C925 0.930 . S
H954 C927 0.929 . S
H955 C928 0.929 . S
H956 C933 0.930 . S
H957 C934 0.930 . S
H958 C936 0.929 . S
H959 C937 0.929 . S
La960 C962 2.928 . S
La960 O980 2.521 . S
La960 O981 2.628 . S
La960 O982 2.554 . S
La960 O983 2.757 . S
La960 O984 2.470 . S
La960 O989 2.482 . S
La960 O991 2.503 . S
La961 C971 2.928 . S
La961 O983 2.482 . S
La961 O985 2.503 . S
La961 O986 2.521 . S
La961 O987 2.628 . S
La961 O988 2.554 . S
La961 O989 2.757 . S
La961 O990 2.470 . S
C962 La960 2.928 . S
C962 C963 1.503 . S
C962 O980 1.261 . S
C962 O981 1.243 . S
C963 C962 1.503 . S
C963 C964 1.394 . S
C963 C968 1.373 1_565 S
C964 C963 1.394 . S
C964 C965 1.380 . S
C964 H992 0.930 . S
C965 C964 1.380 . S
C965 C966 1.376 1_565 S
C965 H993 0.930 . S
C966 C965 1.376 1_545 S
C966 C967 1.370 . S
C967 C966 1.370 . S
C967 C968 1.396 . S
C967 H994 0.929 . S
C968 C963 1.373 1_545 S
C968 C967 1.396 . S
C968 H995 0.929 . S
C969 O982 1.240 . S
C969 O983 1.289 . S
C970 O984 1.258 . S
C970 O985 1.256 . S
C971 La961 2.928 . S
C971 C972 1.503 . S
C971 O986 1.261 . S
C971 O987 1.243 . S
C972 C971 1.503 . S
C972 C973 1.394 . S
C972 C977 1.373 . S
C973 C972 1.394 . S
C973 C974 1.380 . S
C973 H996 0.930 . S
C974 C973 1.380 . S
C974 C975 1.376 . S
C974 H997 0.930 . S
C975 C974 1.376 . S
C975 C976 1.370 . S
C976 C975 1.370 . S
C976 C977 1.396 . S
C976 H998 0.929 . S
C977 C972 1.373 . S
C977 C976 1.396 . S
C977 H999 0.929 . S
C978 O988 1.240 . S
C978 O989 1.289 . S
C979 O990 1.258 . S
C979 O991 1.256 . S
O980 La960 2.521 . S
O980 C962 1.261 . S
O981 La960 2.628 . S
O981 C962 1.243 . S
O982 La960 2.554 . S
O982 C969 1.240 . S
O983 La960 2.757 . S
O983 La961 2.482 . S
O983 C969 1.289 . S
O984 La960 2.470 . S
O984 C970 1.258 . S
O985 La961 2.503 . S
O985 C970 1.256 . S
O986 La961 2.521 . S
O986 C971 1.261 . S
O987 La961 2.628 . S
O987 C971 1.243 . S
O988 La961 2.554 . S
O988 C978 1.240 . S
O989 La960 2.482 . S
O989 La961 2.757 . S
O989 C978 1.289 . S
O990 La961 2.470 . S
O990 C979 1.258 . S
O991 La960 2.503 . S
O991 C979 1.256 . S
H992 C964 0.930 . S
H993 C965 0.930 . S
H994 C967 0.929 . S
H995 C968 0.929 . S
H996 C973 0.930 . S
H997 C974 0.930 . S
H998 C976 0.929 . S
H999 C977 0.929 . S
La1000 C1002 2.928 . S
La1000 O1020 2.521 . S
La1000 O1021 2.628 . S
La1000 O1022 2.554 . S
La1000 O1023 2.757 . S
La1000 O1024 2.470 . S
La1000 O1029 2.482 . S
La1000 O1031 2.503 . S
La1001 C1011 2.928 . S
La1001 O1023 2.482 . S
La1001 O1025 2.503 . S
La1001 O1026 2.521 . S
La1001 O1027 2.628 . S
La1001 O1028 2.554 . S
La1001 O1029 2.757 . S
La1001 O1030 2.470 . S
C1002 La1000 2.928 . S
C1002 C1003 1.503 . S
C1002 O1020 1.261 . S
C1002 O1021 1.243 . S
C1003 C1002 1.503 . S
C1003 C1004 1.394 . S
C1003 C1008 1.373 1_455 S
C1004 C1003 1.394 . S
C1004 C1005 1.380 . S
C1004 H1032 0.930 . S
C1005 C1004 1.380 . S
C1005 C1006 1.376 1_455 S
C1005 H1033 0.930 . S
C1006 C1005 1.376 1_655 S
C1006 C1007 1.370 . S
C1007 C1006 1.370 . S
C1007 C1008 1.396 . S
C1007 H1034 0.929 . S
C1008 C1003 1.373 1_655 S
C1008 C1007 1.396 . S
C1008 H1035 0.929 . S
C1009 O1022 1.240 . S
C1009 O1023 1.289 . S
C1010 O1024 1.258 . S
C1010 O1025 1.256 . S
C1011 La1001 2.928 . S
C1011 C1012 1.503 . S
C1011 O1026 1.261 . S
C1011 O1027 1.243 . S
C1012 C1011 1.503 . S
C1012 C1013 1.394 . S
C1012 C1017 1.373 . S
C1013 C1012 1.394 . S
C1013 C1014 1.380 . S
C1013 H1036 0.930 . S
C1014 C1013 1.380 . S
C1014 C1015 1.376 . S
C1014 H1037 0.930 . S
C1015 C1014 1.376 . S
C1015 C1016 1.370 . S
C1016 C1015 1.370 . S
C1016 C1017 1.396 . S
C1016 H1038 0.929 . S
C1017 C1012 1.373 . S
C1017 C1016 1.396 . S
C1017 H1039 0.929 . S
C1018 O1028 1.240 . S
C1018 O1029 1.289 . S
C1019 O1030 1.258 . S
C1019 O1031 1.256 . S
O1020 La1000 2.521 . S
O1020 C1002 1.261 . S
O1021 La1000 2.628 . S
O1021 C1002 1.243 . S
O1022 La1000 2.554 . S
O1022 C1009 1.240 . S
O1023 La1000 2.757 . S
O1023 La1001 2.482 . S
O1023 C1009 1.289 . S
O1024 La1000 2.470 . S
O1024 C1010 1.258 . S
O1025 La1001 2.503 . S
O1025 C1010 1.256 . S
O1026 La1001 2.521 . S
O1026 C1011 1.261 . S
O1027 La1001 2.628 . S
O1027 C1011 1.243 . S
O1028 La1001 2.554 . S
O1028 C1018 1.240 . S
O1029 La1000 2.482 . S
O1029 La1001 2.757 . S
O1029 C1018 1.289 . S
O1030 La1001 2.470 . S
O1030 C1019 1.258 . S
O1031 La1000 2.503 . S
O1031 C1019 1.256 . S
H1032 C1004 0.930 . S
H1033 C1005 0.930 . S
H1034 C1007 0.929 . S
H1035 C1008 0.929 . S
H1036 C1013 0.930 . S
H1037 C1014 0.930 . S
H1038 C1016 0.929 . S
H1039 C1017 0.929 . S
La1040 C1042 2.928 . S
La1040 O1060 2.521 . S
La1040 O1061 2.628 . S
La1040 O1062 2.554 . S
La1040 O1063 2.757 . S
La1040 O1064 2.470 . S
La1040 O1069 2.482 . S
La1040 O1071 2.503 . S
La1041 C1051 2.928 . S
La1041 O1063 2.482 . S
La1041 O1065 2.503 . S
La1041 O1066 2.521 . S
La1041 O1067 2.628 . S
La1041 O1068 2.554 . S
La1041 O1069 2.757 . S
La1041 O1070 2.470 . S
C1042 La1040 2.928 . S
C1042 C1043 1.503 . S
C1042 O1060 1.261 . S
C1042 O1061 1.243 . S
C1043 C1042 1.503 . S
C1043 C1044 1.394 . S
C1043 C1048 1.373 . S
C1044 C1043 1.394 . S
C1044 C1045 1.380 . S
C1044 H1072 0.930 . S
C1045 C1044 1.380 . S
C1045 C1046 1.376 . S
C1045 H1073 0.930 . S
C1046 C1045 1.376 . S
C1046 C1047 1.370 . S
C1047 C1046 1.370 . S
C1047 C1048 1.396 . S
C1047 H1074 0.929 . S
C1048 C1043 1.373 . S
C1048 C1047 1.396 . S
C1048 H1075 0.929 . S
C1049 O1062 1.240 . S
C1049 O1063 1.289 . S
C1050 O1064 1.258 . S
C1050 O1065 1.256 . S
C1051 La1041 2.928 . S
C1051 C1052 1.503 . S
C1051 O1066 1.261 . S
C1051 O1067 1.243 . S
C1052 C1051 1.503 . S
C1052 C1053 1.394 . S
C1052 C1057 1.373 . S
C1053 C1052 1.394 . S
C1053 C1054 1.380 . S
C1053 H1076 0.930 . S
C1054 C1053 1.380 . S
C1054 C1055 1.376 . S
C1054 H1077 0.930 . S
C1055 C1054 1.376 . S
C1055 C1056 1.370 . S
C1056 C1055 1.370 . S
C1056 C1057 1.396 . S
C1056 H1078 0.929 . S
C1057 C1052 1.373 . S
C1057 C1056 1.396 . S
C1057 H1079 0.929 . S
C1058 O1068 1.240 . S
C1058 O1069 1.289 . S
C1059 O1070 1.258 . S
C1059 O1071 1.256 . S
O1060 La1040 2.521 . S
O1060 C1042 1.261 . S
O1061 La1040 2.628 . S
O1061 C1042 1.243 . S
O1062 La1040 2.554 . S
O1062 C1049 1.240 . S
O1063 La1040 2.757 . S
O1063 La1041 2.482 . S
O1063 C1049 1.289 . S
O1064 La1040 2.470 . S
O1064 C1050 1.258 . S
O1065 La1041 2.503 . S
O1065 C1050 1.256 . S
O1066 La1041 2.521 . S
O1066 C1051 1.261 . S
O1067 La1041 2.628 . S
O1067 C1051 1.243 . S
O1068 La1041 2.554 . S
O1068 C1058 1.240 . S
O1069 La1040 2.482 . S
O1069 La1041 2.757 . S
O1069 C1058 1.289 . S
O1070 La1041 2.470 . S
O1070 C1059 1.258 . S
O1071 La1040 2.503 . S
O1071 C1059 1.256 . S
H1072 C1044 0.930 . S
H1073 C1045 0.930 . S
H1074 C1047 0.929 . S
H1075 C1048 0.929 . S
H1076 C1053 0.930 . S
H1077 C1054 0.930 . S
H1078 C1056 0.929 . S
H1079 C1057 0.929 . S
La1080 C1082 2.928 . S
La1080 O1100 2.521 . S
La1080 O1101 2.628 . S
La1080 O1102 2.554 . S
La1080 O1103 2.757 1_554 S
La1080 O1104 2.470 . S
La1080 O1109 2.482 . S
La1080 O1111 2.503 . S
La1081 C1091 2.928 . S
La1081 O1103 2.482 . S
La1081 O1105 2.503 . S
La1081 O1106 2.521 . S
La1081 O1107 2.628 . S
La1081 O1108 2.554 . S
La1081 O1109 2.757 1_556 S
La1081 O1110 2.470 . S
C1082 La1080 2.928 . S
C1082 C1083 1.503 . S
C1082 O1100 1.261 . S
C1082 O1101 1.243 . S
C1083 C1082 1.503 . S
C1083 C1084 1.394 . S
C1083 C1088 1.373 . S
C1084 C1083 1.394 . S
C1084 C1085 1.380 . S
C1084 H1112 0.930 . S
C1085 C1084 1.380 . S
C1085 C1086 1.376 . S
C1085 H1113 0.930 . S
C1086 C1085 1.376 . S
C1086 C1087 1.370 . S
C1087 C1086 1.370 . S
C1087 C1088 1.396 . S
C1087 H1114 0.929 . S
C1088 C1083 1.373 . S
C1088 C1087 1.396 . S
C1088 H1115 0.929 . S
C1089 O1102 1.240 . S
C1089 O1103 1.289 1_554 S
C1090 O1104 1.258 . S
C1090 O1105 1.256 1_554 S
C1091 La1081 2.928 . S
C1091 C1092 1.503 . S
C1091 O1106 1.261 . S
C1091 O1107 1.243 . S
C1092 C1091 1.503 . S
C1092 C1093 1.394 . S
C1092 C1097 1.373 . S
C1093 C1092 1.394 . S
C1093 C1094 1.380 . S
C1093 H1116 0.930 . S
C1094 C1093 1.380 . S
C1094 C1095 1.376 . S
C1094 H1117 0.930 . S
C1095 C1094 1.376 . S
C1095 C1096 1.370 . S
C1096 C1095 1.370 . S
C1096 C1097 1.396 . S
C1096 H1118 0.929 . S
C1097 C1092 1.373 . S
C1097 C1096 1.396 . S
C1097 H1119 0.929 . S
C1098 O1108 1.240 . S
C1098 O1109 1.289 1_556 S
C1099 O1110 1.258 . S
C1099 O1111 1.256 1_556 S
O1100 La1080 2.521 . S
O1100 C1082 1.261 . S
O1101 La1080 2.628 . S
O1101 C1082 1.243 . S
O1102 La1080 2.554 . S
O1102 C1089 1.240 . S
O1103 La1080 2.757 1_556 S
O1103 La1081 2.482 . S
O1103 C1089 1.289 1_556 S
O1104 La1080 2.470 . S
O1104 C1090 1.258 . S
O1105 La1081 2.503 . S
O1105 C1090 1.256 1_556 S
O1106 La1081 2.521 . S
O1106 C1091 1.261 . S
O1107 La1081 2.628 . S
O1107 C1091 1.243 . S
O1108 La1081 2.554 . S
O1108 C1098 1.240 . S
O1109 La1080 2.482 . S
O1109 La1081 2.757 1_554 S
O1109 C1098 1.289 1_554 S
O1110 La1081 2.470 . S
O1110 C1099 1.258 . S
O1111 La1080 2.503 . S
O1111 C1099 1.256 1_554 S
H1112 C1084 0.930 . S
H1113 C1085 0.930 . S
H1114 C1087 0.929 . S
H1115 C1088 0.929 . S
H1116 C1093 0.930 . S
H1117 C1094 0.930 . S
H1118 C1096 0.929 . S
H1119 C1097 0.929 . S
La1120 C1122 2.928 . S
La1120 O1140 2.521 . S
La1120 O1141 2.628 . S
La1120 O1142 2.554 . S
La1120 O1143 2.757 1_554 S
La1120 O1144 2.470 . S
La1120 O1149 2.482 . S
La1120 O1151 2.503 . S
La1121 C1131 2.928 . S
La1121 O1143 2.482 . S
La1121 O1145 2.503 . S
La1121 O1146 2.521 . S
La1121 O1147 2.628 . S
La1121 O1148 2.554 . S
La1121 O1149 2.757 1_556 S
La1121 O1150 2.470 . S
C1122 La1120 2.928 . S
C1122 C1123 1.503 . S
C1122 O1140 1.261 . S
C1122 O1141 1.243 . S
C1123 C1122 1.503 . S
C1123 C1124 1.394 . S
C1123 C1128 1.373 . S
C1124 C1123 1.394 . S
C1124 C1125 1.380 . S
C1124 H1152 0.930 . S
C1125 C1124 1.380 . S
C1125 C1126 1.376 . S
C1125 H1153 0.930 . S
C1126 C1125 1.376 . S
C1126 C1127 1.370 . S
C1127 C1126 1.370 . S
C1127 C1128 1.396 . S
C1127 H1154 0.929 . S
C1128 C1123 1.373 . S
C1128 C1127 1.396 . S
C1128 H1155 0.929 . S
C1129 O1142 1.240 . S
C1129 O1143 1.289 1_554 S
C1130 O1144 1.258 . S
C1130 O1145 1.256 1_554 S
C1131 La1121 2.928 . S
C1131 C1132 1.503 . S
C1131 O1146 1.261 . S
C1131 O1147 1.243 . S
C1132 C1131 1.503 . S
C1132 C1133 1.394 . S
C1132 C1137 1.373 . S
C1133 C1132 1.394 . S
C1133 C1134 1.380 . S
C1133 H1156 0.930 . S
C1134 C1133 1.380 . S
C1134 C1135 1.376 . S
C1134 H1157 0.930 . S
C1135 C1134 1.376 . S
C1135 C1136 1.370 . S
C1136 C1135 1.370 . S
C1136 C1137 1.396 . S
C1136 H1158 0.929 . S
C1137 C1132 1.373 . S
C1137 C1136 1.396 . S
C1137 H1159 0.929 . S
C1138 O1148 1.240 . S
C1138 O1149 1.289 1_556 S
C1139 O1150 1.258 . S
C1139 O1151 1.256 1_556 S
O1140 La1120 2.521 . S
O1140 C1122 1.261 . S
O1141 La1120 2.628 . S
O1141 C1122 1.243 . S
O1142 La1120 2.554 . S
O1142 C1129 1.240 . S
O1143 La1120 2.757 1_556 S
O1143 La1121 2.482 . S
O1143 C1129 1.289 1_556 S
O1144 La1120 2.470 . S
O1144 C1130 1.258 . S
O1145 La1121 2.503 . S
O1145 C1130 1.256 1_556 S
O1146 La1121 2.521 . S
O1146 C1131 1.261 . S
O1147 La1121 2.628 . S
O1147 C1131 1.243 . S
O1148 La1121 2.554 . S
O1148 C1138 1.240 . S
O1149 La1120 2.482 . S
O1149 La1121 2.757 1_554 S
O1149 C1138 1.289 1_554 S
O1150 La1121 2.470 . S
O1150 C1139 1.258 . S
O1151 La1120 2.503 . S
O1151 C1139 1.256 1_554 S
H1152 C1124 0.930 . S
H1153 C1125 0.930 . S
H1154 C1127 0.929 . S
H1155 C1128 0.929 . S
H1156 C1133 0.930 . S
H1157 C1134 0.930 . S
H1158 C1136 0.929 . S
H1159 C1137 0.929 . S
La1160 C1162 2.928 . S
La1160 O1180 2.521 . S
La1160 O1181 2.628 . S
La1160 O1182 2.554 . S
La1160 O1183 2.757 1_554 S
La1160 O1184 2.470 . S
La1160 O1189 2.482 . S
La1160 O1191 2.503 . S
La1161 C1171 2.928 . S
La1161 O1183 2.482 . S
La1161 O1185 2.503 . S
La1161 O1186 2.521 . S
La1161 O1187 2.628 . S
La1161 O1188 2.554 . S
La1161 O1189 2.757 1_556 S
La1161 O1190 2.470 . S
C1162 La1160 2.928 . S
C1162 C1163 1.503 . S
C1162 O1180 1.261 . S
C1162 O1181 1.243 . S
C1163 C1162 1.503 . S
C1163 C1164 1.394 . S
C1163 C1168 1.373 . S
C1164 C1163 1.394 . S
C1164 C1165 1.380 . S
C1164 H1192 0.930 . S
C1165 C1164 1.380 . S
C1165 C1166 1.376 . S
C1165 H1193 0.930 . S
C1166 C1165 1.376 . S
C1166 C1167 1.370 . S
C1167 C1166 1.370 . S
C1167 C1168 1.396 . S
C1167 H1194 0.929 . S
C1168 C1163 1.373 . S
C1168 C1167 1.396 . S
C1168 H1195 0.929 . S
C1169 O1182 1.240 . S
C1169 O1183 1.289 1_554 S
C1170 O1184 1.258 . S
C1170 O1185 1.256 1_554 S
C1171 La1161 2.928 . S
C1171 C1172 1.503 . S
C1171 O1186 1.261 . S
C1171 O1187 1.243 . S
C1172 C1171 1.503 . S
C1172 C1173 1.394 . S
C1172 C1177 1.373 . S
C1173 C1172 1.394 . S
C1173 C1174 1.380 . S
C1173 H1196 0.930 . S
C1174 C1173 1.380 . S
C1174 C1175 1.376 . S
C1174 H1197 0.930 . S
C1175 C1174 1.376 . S
C1175 C1176 1.370 . S
C1176 C1175 1.370 . S
C1176 C1177 1.396 . S
C1176 H1198 0.929 . S
C1177 C1172 1.373 . S
C1177 C1176 1.396 . S
C1177 H1199 0.929 . S
C1178 O1188 1.240 . S
C1178 O1189 1.289 1_556 S
C1179 O1190 1.258 . S
C1179 O1191 1.256 1_556 S
O1180 La1160 2.521 . S
O1180 C1162 1.261 . S
O1181 La1160 2.628 . S
O1181 C1162 1.243 . S
O1182 La1160 2.554 . S
O1182 C1169 1.240 . S
O1183 La1160 2.757 1_556 S
O1183 La1161 2.482 . S
O1183 C1169 1.289 1_556 S
O1184 La1160 2.470 . S
O1184 C1170 1.258 . S
O1185 La1161 2.503 . S
O1185 C1170 1.256 1_556 S
O1186 La1161 2.521 . S
O1186 C1171 1.261 . S
O1187 La1161 2.628 . S
O1187 C1171 1.243 . S
O1188 La1161 2.554 . S
O1188 C1178 1.240 . S
O1189 La1160 2.482 . S
O1189 La1161 2.757 1_554 S
O1189 C1178 1.289 1_554 S
O1190 La1161 2.470 . S
O1190 C1179 1.258 . S
O1191 La1160 2.503 . S
O1191 C1179 1.256 1_554 S
H1192 C1164 0.930 . S
H1193 C1165 0.930 . S
H1194 C1167 0.929 . S
H1195 C1168 0.929 . S
H1196 C1173 0.930 . S
H1197 C1174 0.930 . S
H1198 C1176 0.929 . S
H1199 C1177 0.929 . S
La1200 C1202 2.928 . S
La1200 O1220 2.521 . S
La1200 O1221 2.628 . S
La1200 O1222 2.554 . S
La1200 O1223 2.757 . S
La1200 O1224 2.470 . S
La1200 O1229 2.482 . S
La1200 O1231 2.503 . S
La1201 C1211 2.928 . S
La1201 O1223 2.482 . S
La1201 O1225 2.503 . S
La1201 O1226 2.521 . S
La1201 O1227 2.628 . S
La1201 O1228 2.554 . S
La1201 O1229 2.757 . S
La1201 O1230 2.470 . S
C1202 La1200 2.928 . S
C1202 C1203 1.503 . S
C1202 O1220 1.261 . S
C1202 O1221 1.243 . S
C1203 C1202 1.503 . S
C1203 C1204 1.394 . S
C1203 C1208 1.373 . S
C1204 C1203 1.394 . S
C1204 C1205 1.380 . S
C1204 H1232 0.930 . S
C1205 C1204 1.380 . S
C1205 C1206 1.376 . S
C1205 H1233 0.930 . S
C1206 C1205 1.376 . S
C1206 C1207 1.370 . S
C1207 C1206 1.370 . S
C1207 C1208 1.396 . S
C1207 H1234 0.929 . S
C1208 C1203 1.373 . S
C1208 C1207 1.396 . S
C1208 H1235 0.929 . S
C1209 O1222 1.240 . S
C1209 O1223 1.289 . S
C1210 O1224 1.258 . S
C1210 O1225 1.256 . S
C1211 La1201 2.928 . S
C1211 C1212 1.503 . S
C1211 O1226 1.261 . S
C1211 O1227 1.243 . S
C1212 C1211 1.503 . S
C1212 C1213 1.394 . S
C1212 C1217 1.373 . S
C1213 C1212 1.394 . S
C1213 C1214 1.380 . S
C1213 H1236 0.930 . S
C1214 C1213 1.380 . S
C1214 C1215 1.376 . S
C1214 H1237 0.930 . S
C1215 C1214 1.376 . S
C1215 C1216 1.370 . S
C1216 C1215 1.370 . S
C1216 C1217 1.396 . S
C1216 H1238 0.929 . S
C1217 C1212 1.373 . S
C1217 C1216 1.396 . S
C1217 H1239 0.929 . S
C1218 O1228 1.240 . S
C1218 O1229 1.289 . S
C1219 O1230 1.258 . S
C1219 O1231 1.256 . S
O1220 La1200 2.521 . S
O1220 C1202 1.261 . S
O1221 La1200 2.628 . S
O1221 C1202 1.243 . S
O1222 La1200 2.554 . S
O1222 C1209 1.240 . S
O1223 La1200 2.757 . S
O1223 La1201 2.482 . S
O1223 C1209 1.289 . S
O1224 La1200 2.470 . S
O1224 C1210 1.258 . S
O1225 La1201 2.503 . S
O1225 C1210 1.256 . S
O1226 La1201 2.521 . S
O1226 C1211 1.261 . S
O1227 La1201 2.628 . S
O1227 C1211 1.243 . S
O1228 La1201 2.554 . S
O1228 C1218 1.240 . S
O1229 La1200 2.482 . S
O1229 La1201 2.757 . S
O1229 C1218 1.289 . S
O1230 La1201 2.470 . S
O1230 C1219 1.258 . S
O1231 La1200 2.503 . S
O1231 C1219 1.256 . S
H1232 C1204 0.930 . S
H1233 C1205 0.930 . S
H1234 C1207 0.929 . S
H1235 C1208 0.929 . S
H1236 C1213 0.930 . S
H1237 C1214 0.930 . S
H1238 C1216 0.929 . S
H1239 C1217 0.929 . S
La1240 C1242 2.928 . S
La1240 O1260 2.521 . S
La1240 O1261 2.628 . S
La1240 O1262 2.554 . S
La1240 O1263 2.757 . S
La1240 O1264 2.470 . S
La1240 O1269 2.482 . S
La1240 O1271 2.503 . S
La1241 C1251 2.928 . S
La1241 O1263 2.482 . S
La1241 O1265 2.503 . S
La1241 O1266 2.521 . S
La1241 O1267 2.628 . S
La1241 O1268 2.554 . S
La1241 O1269 2.757 . S
La1241 O1270 2.470 . S
C1242 La1240 2.928 . S
C1242 C1243 1.503 . S
C1242 O1260 1.261 . S
C1242 O1261 1.243 . S
C1243 C1242 1.503 . S
C1243 C1244 1.394 . S
C1243 C1248 1.373 . S
C1244 C1243 1.394 . S
C1244 C1245 1.380 . S
C1244 H1272 0.930 . S
C1245 C1244 1.380 . S
C1245 C1246 1.376 . S
C1245 H1273 0.930 . S
C1246 C1245 1.376 . S
C1246 C1247 1.370 . S
C1247 C1246 1.370 . S
C1247 C1248 1.396 . S
C1247 H1274 0.929 . S
C1248 C1243 1.373 . S
C1248 C1247 1.396 . S
C1248 H1275 0.929 . S
C1249 O1262 1.240 . S
C1249 O1263 1.289 . S
C1250 O1264 1.258 . S
C1250 O1265 1.256 . S
C1251 La1241 2.928 . S
C1251 C1252 1.503 . S
C1251 O1266 1.261 . S
C1251 O1267 1.243 . S
C1252 C1251 1.503 . S
C1252 C1253 1.394 . S
C1252 C1257 1.373 . S
C1253 C1252 1.394 . S
C1253 C1254 1.380 . S
C1253 H1276 0.930 . S
C1254 C1253 1.380 . S
C1254 C1255 1.376 . S
C1254 H1277 0.930 . S
C1255 C1254 1.376 . S
C1255 C1256 1.370 . S
C1256 C1255 1.370 . S
C1256 C1257 1.396 . S
C1256 H1278 0.929 . S
C1257 C1252 1.373 . S
C1257 C1256 1.396 . S
C1257 H1279 0.929 . S
C1258 O1268 1.240 . S
C1258 O1269 1.289 . S
C1259 O1270 1.258 . S
C1259 O1271 1.256 . S
O1260 La1240 2.521 . S
O1260 C1242 1.261 . S
O1261 La1240 2.628 . S
O1261 C1242 1.243 . S
O1262 La1240 2.554 . S
O1262 C1249 1.240 . S
O1263 La1240 2.757 . S
O1263 La1241 2.482 . S
O1263 C1249 1.289 . S
O1264 La1240 2.470 . S
O1264 C1250 1.258 . S
O1265 La1241 2.503 . S
O1265 C1250 1.256 . S
O1266 La1241 2.521 . S
O1266 C1251 1.261 . S
O1267 La1241 2.628 . S
O1267 C1251 1.243 . S
O1268 La1241 2.554 . S
O1268 C1258 1.240 . S
O1269 La1240 2.482 . S
O1269 La1241 2.757 . S
O1269 C1258 1.289 . S
O1270 La1241 2.470 . S
O1270 C1259 1.258 . S
O1271 La1240 2.503 . S
O1271 C1259 1.256 . S
H1272 C1244 0.930 . S
H1273 C1245 0.930 . S
H1274 C1247 0.929 . S
H1275 C1248 0.929 . S
H1276 C1253 0.930 . S
H1277 C1254 0.930 . S
H1278 C1256 0.929 . S
H1279 C1257 0.929 . S
La1280 C1282 2.928 . S
La1280 O1300 2.521 . S
La1280 O1301 2.628 . S
La1280 O1302 2.554 . S
La1280 O1303 2.757 . S
La1280 O1304 2.470 . S
La1280 O1309 2.482 . S
La1280 O1311 2.503 . S
La1281 C1291 2.928 . S
La1281 O1303 2.482 . S
La1281 O1305 2.503 . S
La1281 O1306 2.521 . S
La1281 O1307 2.628 . S
La1281 O1308 2.554 . S
La1281 O1309 2.757 . S
La1281 O1310 2.470 . S
C1282 La1280 2.928 . S
C1282 C1283 1.503 . S
C1282 O1300 1.261 . S
C1282 O1301 1.243 . S
C1283 C1282 1.503 . S
C1283 C1284 1.394 . S
C1283 C1288 1.373 . S
C1284 C1283 1.394 . S
C1284 C1285 1.380 . S
C1284 H1312 0.930 . S
C1285 C1284 1.380 . S
C1285 C1286 1.376 . S
C1285 H1313 0.930 . S
C1286 C1285 1.376 . S
C1286 C1287 1.370 . S
C1287 C1286 1.370 . S
C1287 C1288 1.396 . S
C1287 H1314 0.929 . S
C1288 C1283 1.373 . S
C1288 C1287 1.396 . S
C1288 H1315 0.929 . S
C1289 O1302 1.240 . S
C1289 O1303 1.289 . S
C1290 O1304 1.258 . S
C1290 O1305 1.256 . S
C1291 La1281 2.928 . S
C1291 C1292 1.503 . S
C1291 O1306 1.261 . S
C1291 O1307 1.243 . S
C1292 C1291 1.503 . S
C1292 C1293 1.394 . S
C1292 C1297 1.373 . S
C1293 C1292 1.394 . S
C1293 C1294 1.380 . S
C1293 H1316 0.930 . S
C1294 C1293 1.380 . S
C1294 C1295 1.376 . S
C1294 H1317 0.930 . S
C1295 C1294 1.376 . S
C1295 C1296 1.370 . S
C1296 C1295 1.370 . S
C1296 C1297 1.396 . S
C1296 H1318 0.929 . S
C1297 C1292 1.373 . S
C1297 C1296 1.396 . S
C1297 H1319 0.929 . S
C1298 O1308 1.240 . S
C1298 O1309 1.289 . S
C1299 O1310 1.258 . S
C1299 O1311 1.256 . S
O1300 La1280 2.521 . S
O1300 C1282 1.261 . S
O1301 La1280 2.628 . S
O1301 C1282 1.243 . S
O1302 La1280 2.554 . S
O1302 C1289 1.240 . S
O1303 La1280 2.757 . S
O1303 La1281 2.482 . S
O1303 C1289 1.289 . S
O1304 La1280 2.470 . S
O1304 C1290 1.258 . S
O1305 La1281 2.503 . S
O1305 C1290 1.256 . S
O1306 La1281 2.521 . S
O1306 C1291 1.261 . S
O1307 La1281 2.628 . S
O1307 C1291 1.243 . S
O1308 La1281 2.554 . S
O1308 C1298 1.240 . S
O1309 La1280 2.482 . S
O1309 La1281 2.757 . S
O1309 C1298 1.289 . S
O1310 La1281 2.470 . S
O1310 C1299 1.258 . S
O1311 La1280 2.503 . S
O1311 C1299 1.256 . S
H1312 C1284 0.930 . S
H1313 C1285 0.930 . S
H1314 C1287 0.929 . S
H1315 C1288 0.929 . S
H1316 C1293 0.930 . S
H1317 C1294 0.930 . S
H1318 C1296 0.929 . S
H1319 C1297 0.929 . S
La1320 C1322 2.928 . S
La1320 O1340 2.521 . S
La1320 O1341 2.628 . S
La1320 O1342 2.554 . S
La1320 O1343 2.757 . S
La1320 O1344 2.470 . S
La1320 O1349 2.482 . S
La1320 O1351 2.503 . S
La1321 C1331 2.928 . S
La1321 O1343 2.482 . S
La1321 O1345 2.503 . S
La1321 O1346 2.521 . S
La1321 O1347 2.628 . S
La1321 O1348 2.554 . S
La1321 O1349 2.757 . S
La1321 O1350 2.470 . S
C1322 La1320 2.928 . S
C1322 C1323 1.503 . S
C1322 O1340 1.261 . S
C1322 O1341 1.243 . S
C1323 C1322 1.503 . S
C1323 C1324 1.394 . S
C1323 C1328 1.373 . S
C1324 C1323 1.394 . S
C1324 C1325 1.380 . S
C1324 H1352 0.930 . S
C1325 C1324 1.380 . S
C1325 C1326 1.376 . S
C1325 H1353 0.930 . S
C1326 C1325 1.376 . S
C1326 C1327 1.370 . S
C1327 C1326 1.370 . S
C1327 C1328 1.396 . S
C1327 H1354 0.929 . S
C1328 C1323 1.373 . S
C1328 C1327 1.396 . S
C1328 H1355 0.929 . S
C1329 O1342 1.240 . S
C1329 O1343 1.289 . S
C1330 O1344 1.258 . S
C1330 O1345 1.256 . S
C1331 La1321 2.928 . S
C1331 C1332 1.503 . S
C1331 O1346 1.261 . S
C1331 O1347 1.243 . S
C1332 C1331 1.503 . S
C1332 C1333 1.394 . S
C1332 C1337 1.373 1_455 S
C1333 C1332 1.394 . S
C1333 C1334 1.380 . S
C1333 H1356 0.930 . S
C1334 C1333 1.380 . S
C1334 C1335 1.376 1_455 S
C1334 H1357 0.930 . S
C1335 C1334 1.376 1_655 S
C1335 C1336 1.370 . S
C1336 C1335 1.370 . S
C1336 C1337 1.396 . S
C1336 H1358 0.929 . S
C1337 C1332 1.373 1_655 S
C1337 C1336 1.396 . S
C1337 H1359 0.929 . S
C1338 O1348 1.240 . S
C1338 O1349 1.289 . S
C1339 O1350 1.258 . S
C1339 O1351 1.256 . S
O1340 La1320 2.521 . S
O1340 C1322 1.261 . S
O1341 La1320 2.628 . S
O1341 C1322 1.243 . S
O1342 La1320 2.554 . S
O1342 C1329 1.240 . S
O1343 La1320 2.757 . S
O1343 La1321 2.482 . S
O1343 C1329 1.289 . S
O1344 La1320 2.470 . S
O1344 C1330 1.258 . S
O1345 La1321 2.503 . S
O1345 C1330 1.256 . S
O1346 La1321 2.521 . S
O1346 C1331 1.261 . S
O1347 La1321 2.628 . S
O1347 C1331 1.243 . S
O1348 La1321 2.554 . S
O1348 C1338 1.240 . S
O1349 La1320 2.482 . S
O1349 La1321 2.757 . S
O1349 C1338 1.289 . S
O1350 La1321 2.470 . S
O1350 C1339 1.258 . S
O1351 La1320 2.503 . S
O1351 C1339 1.256 . S
H1352 C1324 0.930 . S
H1353 C1325 0.930 . S
H1354 C1327 0.929 . S
H1355 C1328 0.929 . S
H1356 C1333 0.930 . S
H1357 C1334 0.930 . S
H1358 C1336 0.929 . S
H1359 C1337 0.929 . S
La1360 C1362 2.928 . S
La1360 O1380 2.521 . S
La1360 O1381 2.628 . S
La1360 O1382 2.554 . S
La1360 O1383 2.757 . S
La1360 O1384 2.470 . S
La1360 O1389 2.482 . S
La1360 O1391 2.503 . S
La1361 C1371 2.928 . S
La1361 O1383 2.482 . S
La1361 O1385 2.503 . S
La1361 O1386 2.521 . S
La1361 O1387 2.628 . S
La1361 O1388 2.554 . S
La1361 O1389 2.757 . S
La1361 O1390 2.470 . S
C1362 La1360 2.928 . S
C1362 C1363 1.503 . S
C1362 O1380 1.261 . S
C1362 O1381 1.243 . S
C1363 C1362 1.503 . S
C1363 C1364 1.394 . S
C1363 C1368 1.373 . S
C1364 C1363 1.394 . S
C1364 C1365 1.380 . S
C1364 H1392 0.930 . S
C1365 C1364 1.380 . S
C1365 C1366 1.376 . S
C1365 H1393 0.930 . S
C1366 C1365 1.376 . S
C1366 C1367 1.370 . S
C1367 C1366 1.370 . S
C1367 C1368 1.396 . S
C1367 H1394 0.929 . S
C1368 C1363 1.373 . S
C1368 C1367 1.396 . S
C1368 H1395 0.929 . S
C1369 O1382 1.240 . S
C1369 O1383 1.289 . S
C1370 O1384 1.258 . S
C1370 O1385 1.256 . S
C1371 La1361 2.928 . S
C1371 C1372 1.503 . S
C1371 O1386 1.261 . S
C1371 O1387 1.243 . S
C1372 C1371 1.503 . S
C1372 C1373 1.394 . S
C1372 C1377 1.373 . S
C1373 C1372 1.394 . S
C1373 C1374 1.380 . S
C1373 H1396 0.930 . S
C1374 C1373 1.380 . S
C1374 C1375 1.376 . S
C1374 H1397 0.930 . S
C1375 C1374 1.376 . S
C1375 C1376 1.370 . S
C1376 C1375 1.370 . S
C1376 C1377 1.396 . S
C1376 H1398 0.929 . S
C1377 C1372 1.373 . S
C1377 C1376 1.396 . S
C1377 H1399 0.929 . S
C1378 O1388 1.240 . S
C1378 O1389 1.289 . S
C1379 O1390 1.258 . S
C1379 O1391 1.256 . S
O1380 La1360 2.521 . S
O1380 C1362 1.261 . S
O1381 La1360 2.628 . S
O1381 C1362 1.243 . S
O1382 La1360 2.554 . S
O1382 C1369 1.240 . S
O1383 La1360 2.757 . S
O1383 La1361 2.482 . S
O1383 C1369 1.289 . S
O1384 La1360 2.470 . S
O1384 C1370 1.258 . S
O1385 La1361 2.503 . S
O1385 C1370 1.256 . S
O1386 La1361 2.521 . S
O1386 C1371 1.261 . S
O1387 La1361 2.628 . S
O1387 C1371 1.243 . S
O1388 La1361 2.554 . S
O1388 C1378 1.240 . S
O1389 La1360 2.482 . S
O1389 La1361 2.757 . S
O1389 C1378 1.289 . S
O1390 La1361 2.470 . S
O1390 C1379 1.258 . S
O1391 La1360 2.503 . S
O1391 C1379 1.256 . S
H1392 C1364 0.930 . S
H1393 C1365 0.930 . S
H1394 C1367 0.929 . S
H1395 C1368 0.929 . S
H1396 C1373 0.930 . S
H1397 C1374 0.930 . S
H1398 C1376 0.929 . S
H1399 C1377 0.929 . S
La1400 C1402 2.928 . S
La1400 O1420 2.521 . S
La1400 O1421 2.628 . S
La1400 O1422 2.554 . S
La1400 O1423 2.757 . S
La1400 O1424 2.470 . S
La1400 O1429 2.482 . S
La1400 O1431 2.503 . S
La1401 C1411 2.928 . S
La1401 O1423 2.482 . S
La1401 O1425 2.503 . S
La1401 O1426 2.521 . S
La1401 O1427 2.628 . S
La1401 O1428 2.554 . S
La1401 O1429 2.757 . S
La1401 O1430 2.470 . S
C1402 La1400 2.928 . S
C1402 C1403 1.503 . S
C1402 O1420 1.261 . S
C1402 O1421 1.243 . S
C1403 C1402 1.503 . S
C1403 C1404 1.394 . S
C1403 C1408 1.373 . S
C1404 C1403 1.394 . S
C1404 C1405 1.380 . S
C1404 H1432 0.930 . S
C1405 C1404 1.380 . S
C1405 C1406 1.376 . S
C1405 H1433 0.930 . S
C1406 C1405 1.376 . S
C1406 C1407 1.370 . S
C1407 C1406 1.370 . S
C1407 C1408 1.396 . S
C1407 H1434 0.929 . S
C1408 C1403 1.373 . S
C1408 C1407 1.396 . S
C1408 H1435 0.929 . S
C1409 O1422 1.240 . S
C1409 O1423 1.289 . S
C1410 O1424 1.258 . S
C1410 O1425 1.256 . S
C1411 La1401 2.928 . S
C1411 C1412 1.503 . S
C1411 O1426 1.261 . S
C1411 O1427 1.243 . S
C1412 C1411 1.503 . S
C1412 C1413 1.394 . S
C1412 C1417 1.373 1_565 S
C1413 C1412 1.394 . S
C1413 C1414 1.380 . S
C1413 H1436 0.930 . S
C1414 C1413 1.380 . S
C1414 C1415 1.376 1_565 S
C1414 H1437 0.930 . S
C1415 C1414 1.376 1_545 S
C1415 C1416 1.370 . S
C1416 C1415 1.370 . S
C1416 C1417 1.396 . S
C1416 H1438 0.929 . S
C1417 C1412 1.373 1_545 S
C1417 C1416 1.396 . S
C1417 H1439 0.929 . S
C1418 O1428 1.240 . S
C1418 O1429 1.289 . S
C1419 O1430 1.258 . S
C1419 O1431 1.256 . S
O1420 La1400 2.521 . S
O1420 C1402 1.261 . S
O1421 La1400 2.628 . S
O1421 C1402 1.243 . S
O1422 La1400 2.554 . S
O1422 C1409 1.240 . S
O1423 La1400 2.757 . S
O1423 La1401 2.482 . S
O1423 C1409 1.289 . S
O1424 La1400 2.470 . S
O1424 C1410 1.258 . S
O1425 La1401 2.503 . S
O1425 C1410 1.256 . S
O1426 La1401 2.521 . S
O1426 C1411 1.261 . S
O1427 La1401 2.628 . S
O1427 C1411 1.243 . S
O1428 La1401 2.554 . S
O1428 C1418 1.240 . S
O1429 La1400 2.482 . S
O1429 La1401 2.757 . S
O1429 C1418 1.289 . S
O1430 La1401 2.470 . S
O1430 C1419 1.258 . S
O1431 La1400 2.503 . S
O1431 C1419 1.256 . S
H1432 C1404 0.930 . S
H1433 C1405 0.930 . S
H1434 C1407 0.929 . S
H1435 C1408 0.929 . S
H1436 C1413 0.930 . S
H1437 C1414 0.930 . S
H1438 C1416 0.929 . S
H1439 C1417 0.929 . S
C1440 C1441 1.387 . S
C1440 H1444 0.950 . S
C1440 C1449 1.390 . S
C1441 C1440 1.387 . S
C1441 C1443 1.387 . S
H1442 C1449 0.950 . S
C1443 C1441 1.387 . S
C1443 C1445 1.390 . S
C1443 H1447 0.950 . S
H1444 C1440 0.950 . S
C1445 C1443 1.390 . S
C1445 C1446 1.387 . S
C1445 H1448 0.950 . S
C1446 C1445 1.387 . S
C1446 C1449 1.387 . S
H1447 C1443 0.950 . S
H1448 C1445 0.950 . S
C1449 C1440 1.390 . S
C1449 H1442 0.950 . S
C1449 C1446 1.387 . S
C1450 C1451 1.387 . S
C1450 H1454 0.950 . S
C1450 C1459 1.390 . S
C1451 C1450 1.387 . S
C1451 C1453 1.387 . S
H1452 C1459 0.950 . S
C1453 C1451 1.387 . S
C1453 C1455 1.390 . S
C1453 H1457 0.950 . S
H1454 C1450 0.950 . S
C1455 C1453 1.390 . S
C1455 C1456 1.387 . S
C1455 H1458 0.950 . S
C1456 C1455 1.387 . S
C1456 C1459 1.387 . S
H1457 C1453 0.950 . S
H1458 C1455 0.950 . S
C1459 C1450 1.390 . S
C1459 H1452 0.950 . S
C1459 C1456 1.387 . S
C1460 C1461 1.387 . S
C1460 H1464 0.950 . S
C1460 C1469 1.390 . S
C1461 C1460 1.387 . S
C1461 C1463 1.387 . S
H1462 C1469 0.950 . S
C1463 C1461 1.387 . S
C1463 C1465 1.390 . S
C1463 H1467 0.950 . S
H1464 C1460 0.950 . S
C1465 C1463 1.390 . S
C1465 C1466 1.387 . S
C1465 H1468 0.950 . S
C1466 C1465 1.387 . S
C1466 C1469 1.387 . S
H1467 C1463 0.950 . S
H1468 C1465 0.950 . S
C1469 C1460 1.390 . S
C1469 H1462 0.950 . S
C1469 C1466 1.387 . S
C1470 C1471 1.387 . S
C1470 H1474 0.950 . S
C1470 C1479 1.390 . S
C1471 C1470 1.387 . S
C1471 C1473 1.387 . S
H1472 C1479 0.950 . S
C1473 C1471 1.387 . S
C1473 C1475 1.390 . S
C1473 H1477 0.950 . S
H1474 C1470 0.950 . S
C1475 C1473 1.390 . S
C1475 C1476 1.387 . S
C1475 H1478 0.950 . S
C1476 C1475 1.387 . S
C1476 C1479 1.387 . S
H1477 C1473 0.950 . S
H1478 C1475 0.950 . S
C1479 C1470 1.390 . S
C1479 H1472 0.950 . S
C1479 C1476 1.387 . S
C1480 C1481 1.387 . S
C1480 H1484 0.950 . S
C1480 C1489 1.390 . S
C1481 C1480 1.387 . S
C1481 C1483 1.387 . S
H1482 C1489 0.950 . S
C1483 C1481 1.387 . S
C1483 C1485 1.390 . S
C1483 H1487 0.950 . S
H1484 C1480 0.950 . S
C1485 C1483 1.390 . S
C1485 C1486 1.387 . S
C1485 H1488 0.950 . S
C1486 C1485 1.387 . S
C1486 C1489 1.387 . S
H1487 C1483 0.950 . S
H1488 C1485 0.950 . S
C1489 C1480 1.390 . S
C1489 H1482 0.950 . S
C1489 C1486 1.387 . S
C1490 C1491 1.387 . S
C1490 H1494 0.950 . S
C1490 C1499 1.390 . S
C1491 C1490 1.387 . S
C1491 C1493 1.387 . S
H1492 C1499 0.950 . S
C1493 C1491 1.387 . S
C1493 C1495 1.390 . S
C1493 H1497 0.950 . S
H1494 C1490 0.950 . S
C1495 C1493 1.390 . S
C1495 C1496 1.387 . S
C1495 H1498 0.950 . S
C1496 C1495 1.387 . S
C1496 C1499 1.387 . S
H1497 C1493 0.950 . S
H1498 C1495 0.950 . S
C1499 C1490 1.390 . S
C1499 H1492 0.950 . S
C1499 C1496 1.387 . S
C1500 C1501 1.387 . S
C1500 H1504 0.950 . S
C1500 C1509 1.390 . S
C1501 C1500 1.387 . S
C1501 C1503 1.387 . S
H1502 C1509 0.950 . S
C1503 C1501 1.387 . S
C1503 C1505 1.390 . S
C1503 H1507 0.950 . S
H1504 C1500 0.950 . S
C1505 C1503 1.390 . S
C1505 C1506 1.387 . S
C1505 H1508 0.950 . S
C1506 C1505 1.387 . S
C1506 C1509 1.387 . S
H1507 C1503 0.950 . S
H1508 C1505 0.950 . S
C1509 C1500 1.390 . S
C1509 H1502 0.950 . S
C1509 C1506 1.387 . S
C1510 C1511 1.387 . S
C1510 H1514 0.950 . S
C1510 C1519 1.390 . S
C1511 C1510 1.387 . S
C1511 C1513 1.387 . S
H1512 C1519 0.950 . S
C1513 C1511 1.387 . S
C1513 C1515 1.390 . S
C1513 H1517 0.950 . S
H1514 C1510 0.950 . S
C1515 C1513 1.390 . S
C1515 C1516 1.387 . S
C1515 H1518 0.950 . S
C1516 C1515 1.387 . S
C1516 C1519 1.387 . S
H1517 C1513 0.950 . S
H1518 C1515 0.950 . S
C1519 C1510 1.390 . S
C1519 H1512 0.950 . S
C1519 C1516 1.387 . S
C1520 C1521 1.387 . S
C1520 H1524 0.950 . S
C1520 C1529 1.390 . S
C1521 C1520 1.387 . S
C1521 C1523 1.387 . S
H1522 C1529 0.950 . S
C1523 C1521 1.387 . S
C1523 C1525 1.390 . S
C1523 H1527 0.950 . S
H1524 C1520 0.950 . S
C1525 C1523 1.390 . S
C1525 C1526 1.387 . S
C1525 H1528 0.950 . S
C1526 C1525 1.387 . S
C1526 C1529 1.387 . S
H1527 C1523 0.950 . S
H1528 C1525 0.950 . S
C1529 C1520 1.390 . S
C1529 H1522 0.950 . S
C1529 C1526 1.387 . S
C1530 C1531 1.387 . S
C1530 H1534 0.950 . S
C1530 C1539 1.390 . S
C1531 C1530 1.387 . S
C1531 C1533 1.387 . S
H1532 C1539 0.950 . S
C1533 C1531 1.387 . S
C1533 C1535 1.390 . S
C1533 H1537 0.950 . S
H1534 C1530 0.950 . S
C1535 C1533 1.390 . S
C1535 C1536 1.387 . S
C1535 H1538 0.950 . S
C1536 C1535 1.387 . S
C1536 C1539 1.387 . S
H1537 C1533 0.950 . S
H1538 C1535 0.950 . S
C1539 C1530 1.390 . S
C1539 H1532 0.950 . S
C1539 C1536 1.387 . S
C1540 C1541 1.387 . S
C1540 H1544 0.950 . S
C1540 C1549 1.390 . S
C1541 C1540 1.387 . S
C1541 C1543 1.387 . S
H1542 C1549 0.950 . S
C1543 C1541 1.387 . S
C1543 C1545 1.390 . S
C1543 H1547 0.950 . S
H1544 C1540 0.950 . S
C1545 C1543 1.390 . S
C1545 C1546 1.387 . S
C1545 H1548 0.950 . S
C1546 C1545 1.387 . S
C1546 C1549 1.387 . S
H1547 C1543 0.950 . S
H1548 C1545 0.950 . S
C1549 C1540 1.390 . S
C1549 H1542 0.950 . S
C1549 C1546 1.387 . S
C1550 C1551 1.387 . S
C1550 H1554 0.950 . S
C1550 C1559 1.390 . S
C1551 C1550 1.387 . S
C1551 C1553 1.387 . S
H1552 C1559 0.950 . S
C1553 C1551 1.387 . S
C1553 C1555 1.390 . S
C1553 H1557 0.950 . S
H1554 C1550 0.950 . S
C1555 C1553 1.390 . S
C1555 C1556 1.387 . S
C1555 H1558 0.950 . S
C1556 C1555 1.387 . S
C1556 C1559 1.387 . S
H1557 C1553 0.950 . S
H1558 C1555 0.950 . S
C1559 C1550 1.390 . S
C1559 H1552 0.950 . S
C1559 C1556 1.387 . S
C1560 C1561 1.387 . S
C1560 H1564 0.950 . S
C1560 C1569 1.390 . S
C1561 C1560 1.387 . S
C1561 C1563 1.387 . S
H1562 C1569 0.950 . S
C1563 C1561 1.387 . S
C1563 C1565 1.390 . S
C1563 H1567 0.950 . S
H1564 C1560 0.950 . S
C1565 C1563 1.390 . S
C1565 C1566 1.387 . S
C1565 H1568 0.950 . S
C1566 C1565 1.387 . S
C1566 C1569 1.387 . S
H1567 C1563 0.950 . S
H1568 C1565 0.950 . S
C1569 C1560 1.390 . S
C1569 H1562 0.950 . S
C1569 C1566 1.387 . S
C1570 C1571 1.387 . S
C1570 H1574 0.950 . S
C1570 C1579 1.390 . S
C1571 C1570 1.387 . S
C1571 C1573 1.387 . S
H1572 C1579 0.950 . S
C1573 C1571 1.387 . S
C1573 C1575 1.390 . S
C1573 H1577 0.950 . S
H1574 C1570 0.950 . S
C1575 C1573 1.390 . S
C1575 C1576 1.387 . S
C1575 H1578 0.950 . S
C1576 C1575 1.387 . S
C1576 C1579 1.387 . S
H1577 C1573 0.950 . S
H1578 C1575 0.950 . S
C1579 C1570 1.390 . S
C1579 H1572 0.950 . S
C1579 C1576 1.387 . S
C1580 C1581 1.387 . S
C1580 H1584 0.950 . S
C1580 C1589 1.390 . S
C1581 C1580 1.387 . S
C1581 C1583 1.387 . S
H1582 C1589 0.950 . S
C1583 C1581 1.387 . S
C1583 C1585 1.390 . S
C1583 H1587 0.950 . S
H1584 C1580 0.950 . S
C1585 C1583 1.390 . S
C1585 C1586 1.387 . S
C1585 H1588 0.950 . S
C1586 C1585 1.387 . S
C1586 C1589 1.387 . S
H1587 C1583 0.950 . S
H1588 C1585 0.950 . S
C1589 C1580 1.390 . S
C1589 H1582 0.950 . S
C1589 C1586 1.387 . S
C1590 C1591 1.387 . S
C1590 H1594 0.950 . S
C1590 C1599 1.390 . S
C1591 C1590 1.387 . S
C1591 C1593 1.387 . S
H1592 C1599 0.950 . S
C1593 C1591 1.387 . S
C1593 C1595 1.390 . S
C1593 H1597 0.950 . S
H1594 C1590 0.950 . S
C1595 C1593 1.390 . S
C1595 C1596 1.387 . S
C1595 H1598 0.950 . S
C1596 C1595 1.387 . S
C1596 C1599 1.387 . S
H1597 C1593 0.950 . S
H1598 C1595 0.950 . S
C1599 C1590 1.390 . S
C1599 H1592 0.950 . S
C1599 C1596 1.387 . S
C1600 C1601 1.387 . S
C1600 H1604 0.950 . S
C1600 C1609 1.390 . S
C1601 C1600 1.387 . S
C1601 C1603 1.387 . S
H1602 C1609 0.950 . S
C1603 C1601 1.387 . S
C1603 C1605 1.390 . S
C1603 H1607 0.950 . S
H1604 C1600 0.950 . S
C1605 C1603 1.390 . S
C1605 C1606 1.387 . S
C1605 H1608 0.950 . S
C1606 C1605 1.387 . S
C1606 C1609 1.387 . S
H1607 C1603 0.950 . S
H1608 C1605 0.950 . S
C1609 C1600 1.390 . S
C1609 H1602 0.950 . S
C1609 C1606 1.387 . S
C1610 C1611 1.387 . S
C1610 H1614 0.950 . S
C1610 C1619 1.390 . S
C1611 C1610 1.387 . S
C1611 C1613 1.387 . S
H1612 C1619 0.950 . S
C1613 C1611 1.387 . S
C1613 C1615 1.390 . S
C1613 H1617 0.950 . S
H1614 C1610 0.950 . S
C1615 C1613 1.390 . S
C1615 C1616 1.387 . S
C1615 H1618 0.950 . S
C1616 C1615 1.387 . S
C1616 C1619 1.387 . S
H1617 C1613 0.950 . S
H1618 C1615 0.950 . S
C1619 C1610 1.390 . S
C1619 H1612 0.950 . S
C1619 C1616 1.387 . S
C1620 C1621 1.387 . S
C1620 H1624 0.950 . S
C1620 C1629 1.390 . S
C1621 C1620 1.387 . S
C1621 C1623 1.387 . S
H1622 C1629 0.950 . S
C1623 C1621 1.387 . S
C1623 C1625 1.390 . S
C1623 H1627 0.950 . S
H1624 C1620 0.950 . S
C1625 C1623 1.390 . S
C1625 C1626 1.387 . S
C1625 H1628 0.950 . S
C1626 C1625 1.387 . S
C1626 C1629 1.387 . S
H1627 C1623 0.950 . S
H1628 C1625 0.950 . S
C1629 C1620 1.390 . S
C1629 H1622 0.950 . S
C1629 C1626 1.387 . S
C1630 C1631 1.387 . S
C1630 H1634 0.950 . S
C1630 C1639 1.390 . S
C1631 C1630 1.387 . S
C1631 C1633 1.387 . S
H1632 C1639 0.950 . S
C1633 C1631 1.387 . S
C1633 C1635 1.390 . S
C1633 H1637 0.950 . S
H1634 C1630 0.950 . S
C1635 C1633 1.390 . S
C1635 C1636 1.387 . S
C1635 H1638 0.950 . S
C1636 C1635 1.387 . S
C1636 C1639 1.387 . S
H1637 C1633 0.950 . S
H1638 C1635 0.950 . S
C1639 C1630 1.390 . S
C1639 H1632 0.950 . S
C1639 C1636 1.387 . S
C1640 C1641 1.387 . S
C1640 H1644 0.950 . S
C1640 C1649 1.390 . S
C1641 C1640 1.387 . S
C1641 C1643 1.387 . S
H1642 C1649 0.950 . S
C1643 C1641 1.387 . S
C1643 C1645 1.390 . S
C1643 H1647 0.950 . S
H1644 C1640 0.950 . S
C1645 C1643 1.390 . S
C1645 C1646 1.387 . S
C1645 H1648 0.950 . S
C1646 C1645 1.387 . S
C1646 C1649 1.387 . S
H1647 C1643 0.950 . S
H1648 C1645 0.950 . S
C1649 C1640 1.390 . S
C1649 H1642 0.950 . S
C1649 C1646 1.387 . S
C1650 C1651 1.387 1_556 S
C1650 H1654 0.950 . S
C1650 C1659 1.390 . S
C1651 C1650 1.387 1_554 S
C1651 C1653 1.387 . S
H1652 C1659 0.950 . S
C1653 C1651 1.387 . S
C1653 C1655 1.390 . S
C1653 H1657 0.950 . S
H1654 C1650 0.950 . S
C1655 C1653 1.390 . S
C1655 C1656 1.387 . S
C1655 H1658 0.950 . S
C1656 C1655 1.387 . S
C1656 C1659 1.387 1_554 S
H1657 C1653 0.950 . S
H1658 C1655 0.950 . S
C1659 C1650 1.390 . S
C1659 H1652 0.950 . S
C1659 C1656 1.387 1_556 S
C1660 C1661 1.387 1_556 S
C1660 H1664 0.950 . S
C1660 C1669 1.390 . S
C1661 C1660 1.387 1_554 S
C1661 C1663 1.387 . S
H1662 C1669 0.950 . S
C1663 C1661 1.387 . S
C1663 C1665 1.390 . S
C1663 H1667 0.950 . S
H1664 C1660 0.950 . S
C1665 C1663 1.390 . S
C1665 C1666 1.387 . S
C1665 H1668 0.950 . S
C1666 C1665 1.387 . S
C1666 C1669 1.387 1_554 S
H1667 C1663 0.950 . S
H1668 C1665 0.950 . S
C1669 C1660 1.390 . S
C1669 H1662 0.950 . S
C1669 C1666 1.387 1_556 S
C1670 C1671 1.387 1_556 S
C1670 H1674 0.950 . S
C1670 C1679 1.390 . S
C1671 C1670 1.387 1_554 S
C1671 C1673 1.387 . S
H1672 C1679 0.950 . S
C1673 C1671 1.387 . S
C1673 C1675 1.390 . S
C1673 H1677 0.950 . S
H1674 C1670 0.950 . S
C1675 C1673 1.390 . S
C1675 C1676 1.387 . S
C1675 H1678 0.950 . S
C1676 C1675 1.387 . S
C1676 C1679 1.387 1_554 S
H1677 C1673 0.950 . S
H1678 C1675 0.950 . S
C1679 C1670 1.390 . S
C1679 H1672 0.950 . S
C1679 C1676 1.387 1_556 S
C1680 C1681 1.387 . S
C1680 H1684 0.950 . S
C1680 C1689 1.390 . S
C1681 C1680 1.387 . S
C1681 C1683 1.387 . S
H1682 C1689 0.950 . S
C1683 C1681 1.387 . S
C1683 C1685 1.390 . S
C1683 H1687 0.950 . S
H1684 C1680 0.950 . S
C1685 C1683 1.390 . S
C1685 C1686 1.387 . S
C1685 H1688 0.950 . S
C1686 C1685 1.387 . S
C1686 C1689 1.387 . S
H1687 C1683 0.950 . S
H1688 C1685 0.950 . S
C1689 C1680 1.390 . S
C1689 H1682 0.950 . S
C1689 C1686 1.387 . S
C1690 C1691 1.387 . S
C1690 H1694 0.950 . S
C1690 C1699 1.390 . S
C1691 C1690 1.387 . S
C1691 C1693 1.387 . S
H1692 C1699 0.950 . S
C1693 C1691 1.387 . S
C1693 C1695 1.390 . S
C1693 H1697 0.950 . S
H1694 C1690 0.950 . S
C1695 C1693 1.390 . S
C1695 C1696 1.387 . S
C1695 H1698 0.950 . S
C1696 C1695 1.387 . S
C1696 C1699 1.387 . S
H1697 C1693 0.950 . S
H1698 C1695 0.950 . S
C1699 C1690 1.390 . S
C1699 H1692 0.950 . S
C1699 C1696 1.387 . S
C1700 C1701 1.387 . S
C1700 H1704 0.950 . S
C1700 C1709 1.390 . S
C1701 C1700 1.387 . S
C1701 C1703 1.387 . S
H1702 C1709 0.950 . S
C1703 C1701 1.387 . S
C1703 C1705 1.390 . S
C1703 H1707 0.950 . S
H1704 C1700 0.950 . S
C1705 C1703 1.390 . S
C1705 C1706 1.387 . S
C1705 H1708 0.950 . S
C1706 C1705 1.387 . S
C1706 C1709 1.387 . S
H1707 C1703 0.950 . S
H1708 C1705 0.950 . S
C1709 C1700 1.390 . S
C1709 H1702 0.950 . S
C1709 C1706 1.387 . S
C1710 C1711 1.387 1_554 S
C1710 H1714 0.950 . S
C1710 C1719 1.390 . S
C1711 C1710 1.387 1_556 S
C1711 C1713 1.387 . S
H1712 C1719 0.950 . S
C1713 C1711 1.387 . S
C1713 C1715 1.390 . S
C1713 H1717 0.950 . S
H1714 C1710 0.950 . S
C1715 C1713 1.390 . S
C1715 C1716 1.387 . S
C1715 H1718 0.950 . S
C1716 C1715 1.387 . S
C1716 C1719 1.387 1_556 S
H1717 C1713 0.950 . S
H1718 C1715 0.950 . S
C1719 C1710 1.390 . S
C1719 H1712 0.950 . S
C1719 C1716 1.387 1_554 S
C1720 C1721 1.387 1_554 S
C1720 H1724 0.950 . S
C1720 C1729 1.390 . S
C1721 C1720 1.387 1_556 S
C1721 C1723 1.387 . S
H1722 C1729 0.950 . S
C1723 C1721 1.387 . S
C1723 C1725 1.390 . S
C1723 H1727 0.950 . S
H1724 C1720 0.950 . S
C1725 C1723 1.390 . S
C1725 C1726 1.387 . S
C1725 H1728 0.950 . S
C1726 C1725 1.387 . S
C1726 C1729 1.387 1_556 S
H1727 C1723 0.950 . S
H1728 C1725 0.950 . S
C1729 C1720 1.390 . S
C1729 H1722 0.950 . S
C1729 C1726 1.387 1_554 S
C1730 C1731 1.387 1_554 S
C1730 H1734 0.950 . S
C1730 C1739 1.390 . S
C1731 C1730 1.387 1_556 S
C1731 C1733 1.387 . S
H1732 C1739 0.950 . S
C1733 C1731 1.387 . S
C1733 C1735 1.390 . S
C1733 H1737 0.950 . S
H1734 C1730 0.950 . S
C1735 C1733 1.390 . S
C1735 C1736 1.387 . S
C1735 H1738 0.950 . S
C1736 C1735 1.387 . S
C1736 C1739 1.387 1_556 S
H1737 C1733 0.950 . S
H1738 C1735 0.950 . S
C1739 C1730 1.390 . S
C1739 H1732 0.950 . S
C1739 C1736 1.387 1_554 S
C1740 C1741 1.387 . S
C1740 H1744 0.950 . S
C1740 C1749 1.390 . S
C1741 C1740 1.387 . S
C1741 C1743 1.387 . S
H1742 C1749 0.950 . S
C1743 C1741 1.387 . S
C1743 C1745 1.390 . S
C1743 H1747 0.950 . S
H1744 C1740 0.950 . S
C1745 C1743 1.390 . S
C1745 C1746 1.387 . S
C1745 H1748 0.950 . S
C1746 C1745 1.387 . S
C1746 C1749 1.387 . S
H1747 C1743 0.950 . S
H1748 C1745 0.950 . S
C1749 C1740 1.390 . S
C1749 H1742 0.950 . S
C1749 C1746 1.387 . S
C1750 C1751 1.387 . S
C1750 H1754 0.950 . S
C1750 C1759 1.390 . S
C1751 C1750 1.387 . S
C1751 C1753 1.387 . S
H1752 C1759 0.950 . S
C1753 C1751 1.387 . S
C1753 C1755 1.390 . S
C1753 H1757 0.950 . S
H1754 C1750 0.950 . S
C1755 C1753 1.390 . S
C1755 C1756 1.387 . S
C1755 H1758 0.950 . S
C1756 C1755 1.387 . S
C1756 C1759 1.387 . S
H1757 C1753 0.950 . S
H1758 C1755 0.950 . S
C1759 C1750 1.390 . S
C1759 H1752 0.950 . S
C1759 C1756 1.387 . S
C1760 C1761 1.387 . S
C1760 H1764 0.950 . S
C1760 C1769 1.390 . S
C1761 C1760 1.387 . S
C1761 C1763 1.387 . S
H1762 C1769 0.950 . S
C1763 C1761 1.387 . S
C1763 C1765 1.390 . S
C1763 H1767 0.950 . S
H1764 C1760 0.950 . S
C1765 C1763 1.390 . S
C1765 C1766 1.387 . S
C1765 H1768 0.950 . S
C1766 C1765 1.387 . S
C1766 C1769 1.387 . S
H1767 C1763 0.950 . S
H1768 C1765 0.950 . S
C1769 C1760 1.390 . S
C1769 H1762 0.950 . S
C1769 C1766 1.387 . S
C1770 C1771 1.387 . S
C1770 H1774 0.950 . S
C1770 C1779 1.390 . S
C1771 C1770 1.387 . S
C1771 C1773 1.387 . S
H1772 C1779 0.950 . S
C1773 C1771 1.387 . S
C1773 C1775 1.390 . S
C1773 H1777 0.950 . S
H1774 C1770 0.950 . S
C1775 C1773 1.390 . S
C1775 C1776 1.387 . S
C1775 H1778 0.950 . S
C1776 C1775 1.387 . S
C1776 C1779 1.387 . S
H1777 C1773 0.950 . S
H1778 C1775 0.950 . S
C1779 C1770 1.390 . S
C1779 H1772 0.950 . S
C1779 C1776 1.387 . S
C1780 C1781 1.387 . S
C1780 H1784 0.950 . S
C1780 C1789 1.390 . S
C1781 C1780 1.387 . S
C1781 C1783 1.387 . S
H1782 C1789 0.950 . S
C1783 C1781 1.387 . S
C1783 C1785 1.390 . S
C1783 H1787 0.950 . S
H1784 C1780 0.950 . S
C1785 C1783 1.390 . S
C1785 C1786 1.387 . S
C1785 H1788 0.950 . S
C1786 C1785 1.387 . S
C1786 C1789 1.387 . S
H1787 C1783 0.950 . S
H1788 C1785 0.950 . S
C1789 C1780 1.390 . S
C1789 H1782 0.950 . S
C1789 C1786 1.387 . S
C1790 C1791 1.387 . S
C1790 H1794 0.950 . S
C1790 C1799 1.390 . S
C1791 C1790 1.387 . S
C1791 C1793 1.387 . S
H1792 C1799 0.950 . S
C1793 C1791 1.387 . S
C1793 C1795 1.390 . S
C1793 H1797 0.950 . S
H1794 C1790 0.950 . S
C1795 C1793 1.390 . S
C1795 C1796 1.387 . S
C1795 H1798 0.950 . S
C1796 C1795 1.387 . S
C1796 C1799 1.387 . S
H1797 C1793 0.950 . S
H1798 C1795 0.950 . S
C1799 C1790 1.390 . S
C1799 H1792 0.950 . S
C1799 C1796 1.387 . S
C1800 C1801 1.387 . S
C1800 H1804 0.950 . S
C1800 C1809 1.390 . S
C1801 C1800 1.387 . S
C1801 C1803 1.387 . S
H1802 C1809 0.950 . S
C1803 C1801 1.387 . S
C1803 C1805 1.390 . S
C1803 H1807 0.950 . S
H1804 C1800 0.950 . S
C1805 C1803 1.390 . S
C1805 C1806 1.387 . S
C1805 H1808 0.950 . S
C1806 C1805 1.387 . S
C1806 C1809 1.387 . S
H1807 C1803 0.950 . S
H1808 C1805 0.950 . S
C1809 C1800 1.390 . S
C1809 H1802 0.950 . S
C1809 C1806 1.387 . S
C1810 C1811 1.387 1_545 S
C1810 H1814 0.950 . S
C1810 C1819 1.390 1_545 S
C1811 C1810 1.387 1_565 S
C1811 C1813 1.387 . S
H1812 C1819 0.950 1_545 S
C1813 C1811 1.387 . S
C1813 C1815 1.390 . S
C1813 H1817 0.950 . S
H1814 C1810 0.950 . S
C1815 C1813 1.390 . S
C1815 C1816 1.387 . S
C1815 H1818 0.950 . S
C1816 C1815 1.387 . S
C1816 C1819 1.387 . S
H1817 C1813 0.950 . S
H1818 C1815 0.950 . S
C1819 C1810 1.390 1_565 S
C1819 H1812 0.950 1_565 S
C1819 C1816 1.387 . S
C1820 C1821 1.387 . S
C1820 H1824 0.950 . S
C1820 C1829 1.390 . S
C1821 C1820 1.387 . S
C1821 C1823 1.387 . S
H1822 C1829 0.950 . S
C1823 C1821 1.387 . S
C1823 C1825 1.390 1_455 S
C1823 H1827 0.950 1_455 S
H1824 C1820 0.950 . S
C1825 C1823 1.390 1_655 S
C1825 C1826 1.387 1_655 S
C1825 H1828 0.950 . S
C1826 C1825 1.387 1_455 S
C1826 C1829 1.387 . S
H1827 C1823 0.950 1_655 S
H1828 C1825 0.950 . S
C1829 C1820 1.390 . S
C1829 H1822 0.950 . S
C1829 C1826 1.387 . S
C1830 C1831 1.387 . S
C1830 H1834 0.950 . S
C1830 C1839 1.390 . S
C1831 C1830 1.387 . S
C1831 C1833 1.387 . S
H1832 C1839 0.950 . S
C1833 C1831 1.387 . S
C1833 C1835 1.390 . S
C1833 H1837 0.950 . S
H1834 C1830 0.950 . S
C1835 C1833 1.390 . S
C1835 C1836 1.387 . S
C1835 H1838 0.950 . S
C1836 C1835 1.387 . S
C1836 C1839 1.387 . S
H1837 C1833 0.950 . S
H1838 C1835 0.950 . S
C1839 C1830 1.390 . S
C1839 H1832 0.950 . S
C1839 C1836 1.387 . S
C1840 C1841 1.387 . S
C1840 H1844 0.950 . S
C1840 C1849 1.390 . S
C1841 C1840 1.387 . S
C1841 C1843 1.387 . S
H1842 C1849 0.950 . S
C1843 C1841 1.387 . S
C1843 C1845 1.390 . S
C1843 H1847 0.950 . S
H1844 C1840 0.950 . S
C1845 C1843 1.390 . S
C1845 C1846 1.387 . S
C1845 H1848 0.950 . S
C1846 C1845 1.387 . S
C1846 C1849 1.387 . S
H1847 C1843 0.950 . S
H1848 C1845 0.950 . S
C1849 C1840 1.390 . S
C1849 H1842 0.950 . S
C1849 C1846 1.387 . S
C1850 C1851 1.387 . S
C1850 H1854 0.950 . S
C1850 C1859 1.390 . S
C1851 C1850 1.387 . S
C1851 C1853 1.387 . S
H1852 C1859 0.950 . S
C1853 C1851 1.387 . S
C1853 C1855 1.390 1_655 S
C1853 H1857 0.950 1_655 S
H1854 C1850 0.950 . S
C1855 C1853 1.390 1_455 S
C1855 C1856 1.387 1_455 S
C1855 H1858 0.950 . S
C1856 C1855 1.387 1_655 S
C1856 C1859 1.387 . S
H1857 C1853 0.950 1_455 S
H1858 C1855 0.950 . S
C1859 C1850 1.390 . S
C1859 H1852 0.950 . S
C1859 C1856 1.387 . S
C1860 C1861 1.387 . S
C1860 H1864 0.950 . S
C1860 C1869 1.390 . S
C1861 C1860 1.387 . S
C1861 C1863 1.387 . S
H1862 C1869 0.950 . S
C1863 C1861 1.387 . S
C1863 C1865 1.390 . S
C1863 H1867 0.950 . S
H1864 C1860 0.950 . S
C1865 C1863 1.390 . S
C1865 C1866 1.387 . S
C1865 H1868 0.950 . S
C1866 C1865 1.387 . S
C1866 C1869 1.387 . S
H1867 C1863 0.950 . S
H1868 C1865 0.950 . S
C1869 C1860 1.390 . S
C1869 H1862 0.950 . S
C1869 C1866 1.387 . S
C1870 C1871 1.387 . S
C1870 H1874 0.950 . S
C1870 C1879 1.390 . S
C1871 C1870 1.387 . S
C1871 C1873 1.387 . S
H1872 C1879 0.950 . S
C1873 C1871 1.387 . S
C1873 C1875 1.390 . S
C1873 H1877 0.950 . S
H1874 C1870 0.950 . S
C1875 C1873 1.390 . S
C1875 C1876 1.387 . S
C1875 H1878 0.950 1_545 S
C1876 C1875 1.387 . S
C1876 C1879 1.387 . S
H1877 C1873 0.950 . S
H1878 C1875 0.950 1_565 S
C1879 C1870 1.390 . S
C1879 H1872 0.950 . S
C1879 C1876 1.387 . S
C1880 C1881 1.387 . S
C1880 H1884 0.950 . S
C1880 C1889 1.390 . S
C1881 C1880 1.387 . S
C1881 C1883 1.387 . S
H1882 C1889 0.950 . S
C1883 C1881 1.387 . S
C1883 C1885 1.390 . S
C1883 H1887 0.950 . S
H1884 C1880 0.950 . S
C1885 C1883 1.390 . S
C1885 C1886 1.387 . S
C1885 H1888 0.950 . S
C1886 C1885 1.387 . S
C1886 C1889 1.387 . S
H1887 C1883 0.950 . S
H1888 C1885 0.950 . S
C1889 C1880 1.390 . S
C1889 H1882 0.950 . S
C1889 C1886 1.387 . S
C1890 C1891 1.387 . S
C1890 H1894 0.950 . S
C1890 C1899 1.390 . S
C1891 C1890 1.387 . S
C1891 C1893 1.387 . S
H1892 C1899 0.950 . S
C1893 C1891 1.387 . S
C1893 C1895 1.390 . S
C1893 H1897 0.950 . S
H1894 C1890 0.950 . S
C1895 C1893 1.390 . S
C1895 C1896 1.387 . S
C1895 H1898 0.950 . S
C1896 C1895 1.387 . S
C1896 C1899 1.387 . S
H1897 C1893 0.950 . S
H1898 C1895 0.950 . S
C1899 C1890 1.390 . S
C1899 H1892 0.950 . S
C1899 C1896 1.387 . S
C1900 C1901 1.387 . S
C1900 H1904 0.950 . S
C1900 C1909 1.390 . S
C1901 C1900 1.387 . S
C1901 C1903 1.387 . S
H1902 C1909 0.950 . S
C1903 C1901 1.387 . S
C1903 C1905 1.390 . S
C1903 H1907 0.950 . S
H1904 C1900 0.950 . S
C1905 C1903 1.390 . S
C1905 C1906 1.387 . S
C1905 H1908 0.950 . S
C1906 C1905 1.387 . S
C1906 C1909 1.387 . S
H1907 C1903 0.950 . S
H1908 C1905 0.950 . S
C1909 C1900 1.390 . S
C1909 H1902 0.950 . S
C1909 C1906 1.387 . S
C1910 C1911 1.387 . S
C1910 H1914 0.950 . S
C1910 C1919 1.390 . S
C1911 C1910 1.387 . S
C1911 C1913 1.387 . S
H1912 C1919 0.950 . S
C1913 C1911 1.387 . S
C1913 C1915 1.390 . S
C1913 H1917 0.950 . S
H1914 C1910 0.950 . S
C1915 C1913 1.390 . S
C1915 C1916 1.387 . S
C1915 H1918 0.950 . S
C1916 C1915 1.387 . S
C1916 C1919 1.387 . S
H1917 C1913 0.950 . S
H1918 C1915 0.950 . S
C1919 C1910 1.390 . S
C1919 H1912 0.950 . S
C1919 C1916 1.387 . S
C1920 C1921 1.387 1_455 S
C1920 H1924 0.950 1_455 S
C1920 C1929 1.390 . S
C1921 C1920 1.387 1_655 S
C1921 C1923 1.387 1_655 S
H1922 C1929 0.950 . S
C1923 C1921 1.387 1_455 S
C1923 C1925 1.390 . S
C1923 H1927 0.950 1_455 S
H1924 C1920 0.950 1_655 S
C1925 C1923 1.390 . S
C1925 C1926 1.387 . S
C1925 H1928 0.950 . S
C1926 C1925 1.387 . S
C1926 C1929 1.387 . S
H1927 C1923 0.950 1_655 S
H1928 C1925 0.950 . S
C1929 C1920 1.390 . S
C1929 H1922 0.950 . S
C1929 C1926 1.387 . S
C1930 C1931 1.387 . S
C1930 H1934 0.950 . S
C1930 C1939 1.390 . S
C1931 C1930 1.387 . S
C1931 C1933 1.387 . S
H1932 C1939 0.950 . S
C1933 C1931 1.387 . S
C1933 C1935 1.390 . S
C1933 H1937 0.950 . S
H1934 C1930 0.950 . S
C1935 C1933 1.390 . S
C1935 C1936 1.387 . S
C1935 H1938 0.950 . S
C1936 C1935 1.387 . S
C1936 C1939 1.387 . S
H1937 C1933 0.950 . S
H1938 C1935 0.950 . S
C1939 C1930 1.390 . S
C1939 H1932 0.950 . S
C1939 C1936 1.387 . S
C1940 C1941 1.387 . S
C1940 H1944 0.950 . S
C1940 C1949 1.390 . S
C1941 C1940 1.387 . S
C1941 C1943 1.387 . S
H1942 C1949 0.950 1_545 S
C1943 C1941 1.387 . S
C1943 C1945 1.378 1_565 S
C1943 H1947 0.950 . S
H1944 C1940 0.950 . S
C1945 C1943 1.378 1_545 S
C1945 C1946 1.393 . S
C1945 H1948 0.956 . S
C1946 C1945 1.393 . S
C1946 C1949 1.387 1_545 S
H1947 C1943 0.950 . S
H1948 C1945 0.956 . S
C1949 C1940 1.390 . S
C1949 H1942 0.950 1_565 S
C1949 C1946 1.387 1_565 S
C1950 C1951 1.387 . S
C1950 H1954 0.950 . S
C1950 C1959 1.390 . S
C1951 C1950 1.387 . S
C1951 C1953 1.387 . S
H1952 C1959 0.950 . S
C1953 C1951 1.387 . S
C1953 C1955 1.390 . S
C1953 H1957 0.950 . S
H1954 C1950 0.950 . S
C1955 C1953 1.390 . S
C1955 C1956 1.387 . S
C1955 H1958 0.950 . S
C1956 C1955 1.387 . S
C1956 C1959 1.387 . S
H1957 C1953 0.950 . S
H1958 C1955 0.950 . S
C1959 C1950 1.390 . S
C1959 H1952 0.950 . S
C1959 C1956 1.387 . S
C1960 C1961 1.387 . S
C1960 H1964 0.950 . S
C1960 C1969 1.390 . S
C1961 C1960 1.387 . S
C1961 C1963 1.387 . S
H1962 C1969 0.950 . S
C1963 C1961 1.387 . S
C1963 C1965 1.390 . S
C1963 H1967 0.950 . S
H1964 C1960 0.950 . S
C1965 C1963 1.390 . S
C1965 C1966 1.387 . S
C1965 H1968 0.950 . S
C1966 C1965 1.387 . S
C1966 C1969 1.387 . S
H1967 C1963 0.950 . S
H1968 C1965 0.950 . S
C1969 C1960 1.390 . S
C1969 H1962 0.950 . S
C1969 C1966 1.387 . S
C1970 C1971 1.387 . S
C1970 H1974 0.950 . S
C1970 C1979 1.390 . S
C1971 C1970 1.387 . S
C1971 C1973 1.387 . S
H1972 C1979 0.950 . S
C1973 C1971 1.387 . S
C1973 C1975 1.390 . S
C1973 H1977 0.950 . S
H1974 C1970 0.950 . S
C1975 C1973 1.390 . S
C1975 C1976 1.387 . S
C1975 H1978 0.950 . S
C1976 C1975 1.387 . S
C1976 C1979 1.387 . S
H1977 C1973 0.950 . S
H1978 C1975 0.950 . S
C1979 C1970 1.390 . S
C1979 H1972 0.950 . S
C1979 C1976 1.387 . S
C1980 C1981 1.387 . S
C1980 H1984 0.950 . S
C1980 C1989 1.390 . S
C1981 C1980 1.387 . S
C1981 C1983 1.387 . S
H1982 C1989 0.950 . S
C1983 C1981 1.387 . S
C1983 C1985 1.390 . S
C1983 H1987 0.950 . S
H1984 C1980 0.950 . S
C1985 C1983 1.390 . S
C1985 C1986 1.387 . S
C1985 H1988 0.950 . S
C1986 C1985 1.387 . S
C1986 C1989 1.387 . S
H1987 C1983 0.950 . S
H1988 C1985 0.950 . S
C1989 C1980 1.390 . S
C1989 H1982 0.950 . S
C1989 C1986 1.387 . S
C1990 C1991 1.387 . S
C1990 H1994 0.950 . S
C1990 C1999 1.390 . S
C1991 C1990 1.387 . S
C1991 C1993 1.387 . S
H1992 C1999 0.950 . S
C1993 C1991 1.387 . S
C1993 C1995 1.390 . S
C1993 H1997 0.950 . S
H1994 C1990 0.950 . S
C1995 C1993 1.390 . S
C1995 C1996 1.387 . S
C1995 H1998 0.950 . S
C1996 C1995 1.387 . S
C1996 C1999 1.387 . S
H1997 C1993 0.950 . S
H1998 C1995 0.950 . S
C1999 C1990 1.390 . S
C1999 H1992 0.950 . S
C1999 C1996 1.387 . S
C2000 C2001 1.387 . S
C2000 H2004 0.950 . S
C2000 C2009 1.390 . S
C2001 C2000 1.387 . S
C2001 C2003 1.387 . S
H2002 C2009 0.950 . S
C2003 C2001 1.387 . S
C2003 C2005 1.390 . S
C2003 H2007 0.950 . S
H2004 C2000 0.950 . S
C2005 C2003 1.390 . S
C2005 C2006 1.387 . S
C2005 H2008 0.950 . S
C2006 C2005 1.387 . S
C2006 C2009 1.387 . S
H2007 C2003 0.950 . S
H2008 C2005 0.950 . S
C2009 C2000 1.390 . S
C2009 H2002 0.950 . S
C2009 C2006 1.387 . S
C2010 C2011 1.421 . S
C2010 H2014 0.950 . S
C2010 C2019 1.390 . S
C2011 C2010 1.421 . S
C2011 C2013 1.362 1_556 S
H2012 C2019 0.950 1_545 S
C2013 C2011 1.362 1_554 S
C2013 C2015 1.390 1_565 S
C2013 H2017 0.950 . S
H2014 C2010 0.950 . S
C2015 C2013 1.390 1_545 S
C2015 C2016 1.387 1_554 S
C2015 H2018 0.950 . S
C2016 C2015 1.387 1_556 S
C2016 C2019 1.387 1_545 S
H2017 C2013 0.950 . S
H2018 C2015 0.950 . S
C2019 C2010 1.390 . S
C2019 H2012 0.950 1_565 S
C2019 C2016 1.387 1_565 S
C2020 C2021 1.364 1_554 S
C2020 H2024 0.950 . S
C2020 C2029 1.390 1_455 S
C2021 C2020 1.364 1_556 S
C2021 C2023 1.422 . S
H2022 C2029 0.950 . S
C2023 C2021 1.422 . S
C2023 C2025 1.390 . S
C2023 H2027 0.950 . S
H2024 C2020 0.950 . S
C2025 C2023 1.390 . S
C2025 C2026 1.387 1_455 S
C2025 H2028 0.950 1_455 S
C2026 C2025 1.387 1_655 S
C2026 C2029 1.387 1_556 S
H2027 C2023 0.950 . S
H2028 C2025 0.950 1_655 S
C2029 C2020 1.390 1_655 S
C2029 H2022 0.950 . S
C2029 C2026 1.387 1_554 S
C2030 C2031 1.387 . S
C2030 H2034 0.950 . S
C2030 C2039 1.390 . S
C2031 C2030 1.387 . S
C2031 C2033 1.387 1_556 S
H2032 C2039 0.950 . S
C2033 C2031 1.387 1_554 S
C2033 C2035 1.390 . S
C2033 H2037 0.950 . S
H2034 C2030 0.950 . S
C2035 C2033 1.390 . S
C2035 C2036 1.336 1_554 S
C2035 H2038 0.950 . S
C2036 C2035 1.336 1_556 S
C2036 C2039 1.454 . S
H2037 C2033 0.950 . S
H2038 C2035 0.950 . S
C2039 C2030 1.390 . S
C2039 H2032 0.950 . S
C2039 C2036 1.454 . S
C2040 C2041 1.387 . S
C2040 H2044 0.950 . S
C2040 C2049 1.390 . S
C2041 C2040 1.387 . S
C2041 C2043 1.387 . S
H2042 C2049 0.950 . S
C2043 C2041 1.387 . S
C2043 C2045 1.390 . S
C2043 H2047 0.950 . S
H2044 C2040 0.950 . S
C2045 C2043 1.390 . S
C2045 C2046 1.387 . S
C2045 H2048 0.950 . S
C2046 C2045 1.387 . S
C2046 C2049 1.387 . S
H2047 C2043 0.950 . S
H2048 C2045 0.950 . S
C2049 C2040 1.390 . S
C2049 H2042 0.950 . S
C2049 C2046 1.387 . S
C2050 C2051 1.387 . S
C2050 H2054 0.950 . S
C2050 C2059 1.390 . S
C2051 C2050 1.387 . S
C2051 C2053 1.387 . S
H2052 C2059 0.950 . S
C2053 C2051 1.387 . S
C2053 C2055 1.390 . S
C2053 H2057 0.950 . S
H2054 C2050 0.950 . S
C2055 C2053 1.390 . S
C2055 C2056 1.387 . S
C2055 H2058 0.950 . S
C2056 C2055 1.387 . S
C2056 C2059 1.387 . S
H2057 C2053 0.950 . S
H2058 C2055 0.950 . S
C2059 C2050 1.390 . S
C2059 H2052 0.950 . S
C2059 C2056 1.387 . S
C2060 C2061 1.387 . S
C2060 H2064 0.950 . S
C2060 C2069 1.390 . S
C2061 C2060 1.387 . S
C2061 C2063 1.387 . S
H2062 C2069 0.950 . S
C2063 C2061 1.387 . S
C2063 C2065 1.390 . S
C2063 H2067 0.950 . S
H2064 C2060 0.950 . S
C2065 C2063 1.390 . S
C2065 C2066 1.387 . S
C2065 H2068 0.950 . S
C2066 C2065 1.387 . S
C2066 C2069 1.387 . S
H2067 C2063 0.950 . S
H2068 C2065 0.950 . S
C2069 C2060 1.390 . S
C2069 H2062 0.950 . S
C2069 C2066 1.387 . S
C2070 C2071 1.387 1_556 S
C2070 H2074 0.950 . S
C2070 C2079 1.390 1_565 S
C2071 C2070 1.387 1_554 S
C2071 C2073 1.387 1_565 S
H2072 C2079 0.950 . S
C2073 C2071 1.387 1_545 S
C2073 C2075 1.390 . S
C2073 H2077 0.950 1_545 S
H2074 C2070 0.950 . S
C2075 C2073 1.390 . S
C2075 C2076 1.458 . S
C2075 H2078 0.950 . S
C2076 C2075 1.458 . S
C2076 C2079 1.331 1_554 S
H2077 C2073 0.950 1_565 S
H2078 C2075 0.950 . S
C2079 C2070 1.390 1_545 S
C2079 H2072 0.950 . S
C2079 C2076 1.331 1_556 S
C2080 C2081 1.356 1_556 S
C2080 H2084 0.950 . S
C2080 C2089 1.390 1_655 S
C2081 C2080 1.356 1_554 S
C2081 C2083 1.428 . S
H2082 C2089 0.950 . S
C2083 C2081 1.428 . S
C2083 C2085 1.390 . S
C2083 H2087 0.950 . S
H2084 C2080 0.950 . S
C2085 C2083 1.390 . S
C2085 C2086 1.387 1_655 S
C2085 H2088 0.950 1_655 S
C2086 C2085 1.387 1_455 S
C2086 C2089 1.387 1_554 S
H2087 C2083 0.950 . S
H2088 C2085 0.950 1_455 S
C2089 C2080 1.390 1_455 S
C2089 H2082 0.950 . S
C2089 C2086 1.387 1_556 S
C2090 C2091 1.387 1_556 S
C2090 H2094 0.950 . S
C2090 C2099 1.390 . S
C2091 C2090 1.387 1_554 S
C2091 C2093 1.387 . S
H2092 C2099 0.950 . S
C2093 C2091 1.387 . S
C2093 C2095 1.390 . S
C2093 H2097 0.950 . S
H2094 C2090 0.950 . S
C2095 C2093 1.390 . S
C2095 C2096 1.464 . S
C2095 H2098 0.950 . S
C2096 C2095 1.464 . S
C2096 C2099 1.324 1_554 S
H2097 C2093 0.950 . S
H2098 C2095 0.950 . S
C2099 C2090 1.390 . S
C2099 H2092 0.950 . S
C2099 C2096 1.324 1_556 S
C2100 C2101 1.387 1_655 S
C2100 H2104 0.950 1_655 S
C2100 C2109 1.390 . S
C2101 C2100 1.387 1_455 S
C2101 C2103 1.387 1_455 S
H2102 C2109 0.950 . S
C2103 C2101 1.387 1_655 S
C2103 C2105 1.390 . S
C2103 H2107 0.950 1_655 S
H2104 C2100 0.950 1_455 S
C2105 C2103 1.390 . S
C2105 C2106 1.387 . S
C2105 H2108 0.950 . S
C2106 C2105 1.387 . S
C2106 C2109 1.387 . S
H2107 C2103 0.950 1_455 S
H2108 C2105 0.950 . S
C2109 C2100 1.390 . S
C2109 H2102 0.950 . S
C2109 C2106 1.387 . S
C2110 C2111 1.387 . S
C2110 H2114 0.950 . S
C2110 C2119 1.390 . S
C2111 C2110 1.387 . S
C2111 C2113 1.387 . S
H2112 C2119 0.950 . S
C2113 C2111 1.387 . S
C2113 C2115 1.390 . S
C2113 H2117 0.950 . S
H2114 C2110 0.950 . S
C2115 C2113 1.390 . S
C2115 C2116 1.387 . S
C2115 H2118 0.950 . S
C2116 C2115 1.387 . S
C2116 C2119 1.387 . S
H2117 C2113 0.950 . S
H2118 C2115 0.950 . S
C2119 C2110 1.390 . S
C2119 H2112 0.950 . S
C2119 C2116 1.387 . S
C2120 C2121 1.387 1_545 S
C2120 H2124 0.950 1_545 S
C2120 C2129 1.390 . S
C2121 C2120 1.387 1_565 S
C2121 C2123 1.391 . S
H2122 C2129 0.950 . S
C2123 C2121 1.391 . S
C2123 C2125 1.382 1_565 S
C2123 H2127 0.954 . S
H2124 C2120 0.950 1_565 S
C2125 C2123 1.382 1_545 S
C2125 C2126 1.387 . S
C2125 H2128 0.950 . S
C2126 C2125 1.387 . S
C2126 C2129 1.387 . S
H2127 C2123 0.954 . S
H2128 C2125 0.950 . S
C2129 C2120 1.390 . S
C2129 H2122 0.950 . S
C2129 C2126 1.387 . S
C2130 C2131 1.387 . S
C2130 H2134 0.950 . S
C2130 C2139 1.390 . S
C2131 C2130 1.387 . S
C2131 C2133 1.387 . S
H2132 C2139 0.950 . S
C2133 C2131 1.387 . S
C2133 C2135 1.390 . S
C2133 H2137 0.950 . S
H2134 C2130 0.950 . S
C2135 C2133 1.390 . S
C2135 C2136 1.387 . S
C2135 H2138 0.950 . S
C2136 C2135 1.387 . S
C2136 C2139 1.387 . S
H2137 C2133 0.950 . S
H2138 C2135 0.950 . S
C2139 C2130 1.390 . S
C2139 H2132 0.950 . S
C2139 C2136 1.387 . S
C2140 C2141 1.387 . S
C2140 H2144 0.950 . S
C2140 C2149 1.390 . S
C2141 C2140 1.387 . S
C2141 C2143 1.387 . S
H2142 C2149 0.950 . S
C2143 C2141 1.387 . S
C2143 C2145 1.390 . S
C2143 H2147 0.950 . S
H2144 C2140 0.950 . S
C2145 C2143 1.390 . S
C2145 C2146 1.387 . S
C2145 H2148 0.950 . S
C2146 C2145 1.387 . S
C2146 C2149 1.387 . S
H2147 C2143 0.950 . S
H2148 C2145 0.950 . S
C2149 C2140 1.390 . S
C2149 H2142 0.950 . S
C2149 C2146 1.387 . S
C2150 C2151 1.387 . S
C2150 H2154 0.950 . S
C2150 C2159 1.390 . S
C2151 C2150 1.387 . S
C2151 C2153 1.387 . S
H2152 C2159 0.950 . S
C2153 C2151 1.387 . S
C2153 C2155 1.390 . S
C2153 H2157 0.950 . S
H2154 C2150 0.950 . S
C2155 C2153 1.390 . S
C2155 C2156 1.387 . S
C2155 H2158 0.950 . S
C2156 C2155 1.387 . S
C2156 C2159 1.387 . S
H2157 C2153 0.950 . S
H2158 C2155 0.950 . S
C2159 C2150 1.390 . S
C2159 H2152 0.950 . S
C2159 C2156 1.387 . S
C2160 C2161 1.387 . S
C2160 H2164 0.950 . S
C2160 C2169 1.390 . S
C2161 C2160 1.387 . S
C2161 C2163 1.387 . S
H2162 C2169 0.950 . S
C2163 C2161 1.387 . S
C2163 C2165 1.390 . S
C2163 H2167 0.950 . S
H2164 C2160 0.950 . S
C2165 C2163 1.390 . S
C2165 C2166 1.387 . S
C2165 H2168 0.950 . S
C2166 C2165 1.387 . S
C2166 C2169 1.387 . S
H2167 C2163 0.950 . S
H2168 C2165 0.950 . S
C2169 C2160 1.390 . S
C2169 H2162 0.950 . S
C2169 C2166 1.387 . S
C2170 C2171 1.387 . S
C2170 H2174 0.950 1_565 S
C2170 C2179 1.390 . S
C2171 C2170 1.387 . S
C2171 C2173 1.387 . S
H2172 C2179 0.950 1_545 S
C2173 C2171 1.387 . S
C2173 C2175 1.390 . S
C2173 H2177 0.950 . S
H2174 C2170 0.950 1_545 S
C2175 C2173 1.390 . S
C2175 C2176 1.387 . S
C2175 H2178 0.950 . S
C2176 C2175 1.387 . S
C2176 C2179 1.387 . S
H2177 C2173 0.950 . S
H2178 C2175 0.950 . S
C2179 C2170 1.390 . S
C2179 H2172 0.950 1_565 S
C2179 C2176 1.387 . S
C2180 C2181 1.387 . S
C2180 H2184 0.950 . S
C2180 C2189 1.390 . S
C2181 C2180 1.387 . S
C2181 C2183 1.387 . S
H2182 C2189 0.950 . S
C2183 C2181 1.387 . S
C2183 C2185 1.390 . S
C2183 H2187 0.950 . S
H2184 C2180 0.950 . S
C2185 C2183 1.390 . S
C2185 C2186 1.387 . S
C2185 H2188 0.950 . S
C2186 C2185 1.387 . S
C2186 C2189 1.387 . S
H2187 C2183 0.950 . S
H2188 C2185 0.950 . S
C2189 C2180 1.390 . S
C2189 H2182 0.950 . S
C2189 C2186 1.387 . S
C2190 C2191 1.387 . S
C2190 H2194 0.950 . S
C2190 C2199 1.390 . S
C2191 C2190 1.387 . S
C2191 C2193 1.387 . S
H2192 C2199 0.950 . S
C2193 C2191 1.387 . S
C2193 C2195 1.390 . S
C2193 H2197 0.950 . S
H2194 C2190 0.950 . S
C2195 C2193 1.390 . S
C2195 C2196 1.387 . S
C2195 H2198 0.950 . S
C2196 C2195 1.387 . S
C2196 C2199 1.387 . S
H2197 C2193 0.950 . S
H2198 C2195 0.950 . S
C2199 C2190 1.390 . S
C2199 H2192 0.950 . S
C2199 C2196 1.387 . S
C2200 C2201 1.387 . S
C2200 H2204 0.950 . S
C2200 C2209 1.390 . S
C2201 C2200 1.387 . S
C2201 C2203 1.387 . S
H2202 C2209 0.950 . S
C2203 C2201 1.387 . S
C2203 C2205 1.390 . S
C2203 H2207 0.950 1_545 S
H2204 C2200 0.950 . S
C2205 C2203 1.390 . S
C2205 C2206 1.387 . S
C2205 H2208 0.950 1_545 S
C2206 C2205 1.387 . S
C2206 C2209 1.387 . S
H2207 C2203 0.950 1_565 S
H2208 C2205 0.950 1_565 S
C2209 C2200 1.390 . S
C2209 H2202 0.950 . S
C2209 C2206 1.387 . S
C2210 C2211 1.387 . S
C2210 H2214 0.950 . S
C2210 C2219 1.390 . S
C2211 C2210 1.387 . S
C2211 C2213 1.387 . S
H2212 C2219 0.950 1_455 S
C2213 C2211 1.387 . S
C2213 C2215 1.390 . S
C2213 H2217 0.950 . S
H2214 C2210 0.950 . S
C2215 C2213 1.390 . S
C2215 C2216 1.387 . S
C2215 H2218 0.950 . S
C2216 C2215 1.387 . S
C2216 C2219 1.387 . S
H2217 C2213 0.950 . S
H2218 C2215 0.950 . S
C2219 C2210 1.390 . S
C2219 H2212 0.950 1_655 S
C2219 C2216 1.387 . S
C2220 C2221 1.387 . S
C2220 H2224 0.950 . S
C2220 C2229 1.390 . S
C2221 C2220 1.387 . S
C2221 C2223 1.387 . S
H2222 C2229 0.950 . S
C2223 C2221 1.387 . S
C2223 C2225 1.390 . S
C2223 H2227 0.950 . S
H2224 C2220 0.950 . S
C2225 C2223 1.390 . S
C2225 C2226 1.387 . S
C2225 H2228 0.950 . S
C2226 C2225 1.387 . S
C2226 C2229 1.387 . S
H2227 C2223 0.950 . S
H2228 C2225 0.950 . S
C2229 C2220 1.390 . S
C2229 H2222 0.950 . S
C2229 C2226 1.387 . S
C2230 C2231 1.387 . S
C2230 H2234 0.950 1_545 S
C2230 C2239 1.390 . S
C2231 C2230 1.387 . S
C2231 C2233 1.387 . S
H2232 C2239 0.950 1_565 S
C2233 C2231 1.387 . S
C2233 C2235 1.390 . S
C2233 H2237 0.950 . S
H2234 C2230 0.950 1_565 S
C2235 C2233 1.390 . S
C2235 C2236 1.387 . S
C2235 H2238 0.950 . S
C2236 C2235 1.387 . S
C2236 C2239 1.387 . S
H2237 C2233 0.950 . S
H2238 C2235 0.950 . S
C2239 C2230 1.390 . S
C2239 H2232 0.950 1_545 S
C2239 C2236 1.387 . S
C2240 C2241 1.387 . S
C2240 H2244 0.950 . S
C2240 C2249 1.390 . S
C2241 C2240 1.387 . S
C2241 C2243 1.387 . S
H2242 C2249 0.950 . S
C2243 C2241 1.387 . S
C2243 C2245 1.390 . S
C2243 H2247 0.950 . S
H2244 C2240 0.950 . S
C2245 C2243 1.390 . S
C2245 C2246 1.387 . S
C2245 H2248 0.950 . S
C2246 C2245 1.387 . S
C2246 C2249 1.387 . S
H2247 C2243 0.950 . S
H2248 C2245 0.950 . S
C2249 C2240 1.390 . S
C2249 H2242 0.950 . S
C2249 C2246 1.387 . S
C2250 C2251 1.387 . S
C2250 H2254 0.950 . S
C2250 C2259 1.390 . S
C2251 C2250 1.387 . S
C2251 C2253 1.387 . S
H2252 C2259 0.950 . S
C2253 C2251 1.387 . S
C2253 C2255 1.390 . S
C2253 H2257 0.950 . S
H2254 C2250 0.950 . S
C2255 C2253 1.390 . S
C2255 C2256 1.387 . S
C2255 H2258 0.950 . S
C2256 C2255 1.387 . S
C2256 C2259 1.387 . S
H2257 C2253 0.950 . S
H2258 C2255 0.950 . S
C2259 C2250 1.390 . S
C2259 H2252 0.950 . S
C2259 C2256 1.387 . S
C2260 C2261 1.387 . S
C2260 H2264 0.950 1_565 S
C2260 C2269 1.390 . S
C2261 C2260 1.387 . S
C2261 C2263 1.387 . S
H2262 C2269 0.950 1_545 S
C2263 C2261 1.387 . S
C2263 C2265 1.390 . S
C2263 H2267 0.950 . S
H2264 C2260 0.950 1_545 S
C2265 C2263 1.390 . S
C2265 C2266 1.387 . S
C2265 H2268 0.950 . S
C2266 C2265 1.387 . S
C2266 C2269 1.387 . S
H2267 C2263 0.950 . S
H2268 C2265 0.950 . S
C2269 C2260 1.390 . S
C2269 H2262 0.950 1_565 S
C2269 C2266 1.387 . S
C2270 C2271 1.387 . S
C2270 H2274 0.950 1_455 S
C2270 C2279 1.390 . S
C2271 C2270 1.387 . S
C2271 C2273 1.387 . S
H2272 C2279 0.955 . S
C2273 C2271 1.387 . S
C2273 C2275 1.390 . S
C2273 H2277 0.950 . S
H2274 C2270 0.950 1_655 S
C2275 C2273 1.390 . S
C2275 C2276 1.387 . S
C2275 H2278 0.950 . S
C2276 C2275 1.387 . S
C2276 C2279 1.387 . S
H2277 C2273 0.950 . S
H2278 C2275 0.950 . S
C2279 C2270 1.390 . S
C2279 H2272 0.955 . S
C2279 C2276 1.387 . S
C2280 C2281 1.387 . S
C2280 H2284 0.950 . S
C2280 C2289 1.390 . S
C2281 C2280 1.387 . S
C2281 C2283 1.387 1_455 S
H2282 C2289 0.950 . S
C2283 C2281 1.387 1_655 S
C2283 C2285 1.390 . S
C2283 H2287 0.950 . S
H2284 C2280 0.950 . S
C2285 C2283 1.390 . S
C2285 C2286 1.387 . S
C2285 H2288 0.950 . S
C2286 C2285 1.387 . S
C2286 C2289 1.387 1_655 S
H2287 C2283 0.950 . S
H2288 C2285 0.950 . S
C2289 C2280 1.390 . S
C2289 H2282 0.950 . S
C2289 C2286 1.387 1_455 S
C2290 C2291 1.387 . S
C2290 H2294 0.950 . S
C2290 C2299 1.390 . S
C2291 C2290 1.387 . S
C2291 C2293 1.387 . S
H2292 C2299 0.950 . S
C2293 C2291 1.387 . S
C2293 C2295 1.390 . S
C2293 H2297 0.950 . S
H2294 C2290 0.950 . S
C2295 C2293 1.390 . S
C2295 C2296 1.387 . S
C2295 H2298 0.950 . S
C2296 C2295 1.387 . S
C2296 C2299 1.387 . S
H2297 C2293 0.950 . S
H2298 C2295 0.950 . S
C2299 C2290 1.390 . S
C2299 H2292 0.950 . S
C2299 C2296 1.387 . S
C2300 C2301 1.387 . S
C2300 H2304 0.950 . S
C2300 C2309 1.391 . S
C2301 C2300 1.387 . S
C2301 C2303 1.387 . S
H2302 C2309 0.945 1_545 S
C2303 C2301 1.387 . S
C2303 C2305 1.390 . S
C2303 H2307 0.950 . S
H2304 C2300 0.950 . S
C2305 C2303 1.390 . S
C2305 C2306 1.387 1_565 S
C2305 H2308 0.949 . S
C2306 C2305 1.387 1_545 S
C2306 C2309 1.392 1_545 S
H2307 C2303 0.950 . S
H2308 C2305 0.949 . S
C2309 C2300 1.391 . S
C2309 H2302 0.945 1_565 S
C2309 C2306 1.392 1_565 S
C2310 C2311 1.388 . S
C2310 H2314 0.949 . S
C2310 C2319 1.390 1_565 S
C2311 C2310 1.388 . S
C2311 C2313 1.387 1_565 S
H2312 C2319 0.950 . S
C2313 C2311 1.387 1_545 S
C2313 C2315 1.390 . S
C2313 H2317 0.950 . S
H2314 C2310 0.949 . S
C2315 C2313 1.390 . S
C2315 C2316 1.387 . S
C2315 H2318 0.950 . S
C2316 C2315 1.387 . S
C2316 C2319 1.387 . S
H2317 C2313 0.950 . S
H2318 C2315 0.950 . S
C2319 C2310 1.390 1_545 S
C2319 H2312 0.950 . S
C2319 C2316 1.387 . S
C2320 C2321 1.387 1_455 S
C2320 H2324 0.950 . S
C2320 C2329 1.390 . S
C2321 C2320 1.387 1_655 S
C2321 C2323 1.387 . S
H2322 C2329 0.950 . S
C2323 C2321 1.387 . S
C2323 C2325 1.390 . S
C2323 H2327 0.950 . S
H2324 C2320 0.950 . S
C2325 C2323 1.390 . S
C2325 C2326 1.387 1_655 S
C2325 H2328 0.950 . S
C2326 C2325 1.387 1_455 S
C2326 C2329 1.387 . S
H2327 C2323 0.950 . S
H2328 C2325 0.950 . S
C2329 C2320 1.390 . S
C2329 H2322 0.950 . S
C2329 C2326 1.387 . S
C2330 C2331 1.387 . S
C2330 H2334 0.950 . S
C2330 C2339 1.390 . S
C2331 C2330 1.387 . S
C2331 C2333 1.387 . S
H2332 C2339 0.950 . S
C2333 C2331 1.387 . S
C2333 C2335 1.390 . S
C2333 H2337 0.950 . S
H2334 C2330 0.950 . S
C2335 C2333 1.390 . S
C2335 C2336 1.387 . S
C2335 H2338 0.950 . S
C2336 C2335 1.387 . S
C2336 C2339 1.387 . S
H2337 C2333 0.950 . S
H2338 C2335 0.950 . S
C2339 C2330 1.390 . S
C2339 H2332 0.950 . S
C2339 C2336 1.387 . S
C2340 C2341 1.387 . S
C2340 H2344 0.950 . S
C2340 C2349 1.390 . S
C2341 C2340 1.387 . S
C2341 C2343 1.387 1_655 S
H2342 C2349 0.950 . S
C2343 C2341 1.387 1_455 S
C2343 C2345 1.390 . S
C2343 H2347 0.950 . S
H2344 C2340 0.950 . S
C2345 C2343 1.390 . S
C2345 C2346 1.387 . S
C2345 H2348 0.950 . S
C2346 C2345 1.387 . S
C2346 C2349 1.387 1_455 S
H2347 C2343 0.950 . S
H2348 C2345 0.950 . S
C2349 C2340 1.390 . S
C2349 H2342 0.950 . S
C2349 C2346 1.387 1_655 S
C2350 C2351 1.387 . S
C2350 H2354 0.950 . S
C2350 C2359 1.390 . S
C2351 C2350 1.387 . S
C2351 C2353 1.387 . S
H2352 C2359 0.950 . S
C2353 C2351 1.387 . S
C2353 C2355 1.390 . S
C2353 H2357 0.950 . S
H2354 C2350 0.950 . S
C2355 C2353 1.390 . S
C2355 C2356 1.387 . S
C2355 H2358 0.950 . S
C2356 C2355 1.387 . S
C2356 C2359 1.387 . S
H2357 C2353 0.950 . S
H2358 C2355 0.950 . S
C2359 C2350 1.390 . S
C2359 H2352 0.950 . S
C2359 C2356 1.387 . S
C2360 C2361 1.387 . S
C2360 H2364 0.950 . S
C2360 C2369 1.390 1_545 S
C2361 C2360 1.387 . S
C2361 C2363 1.387 . S
H2362 C2369 0.950 . S
C2363 C2361 1.387 . S
C2363 C2365 1.390 1_545 S
C2363 H2367 0.950 . S
H2364 C2360 0.950 . S
C2365 C2363 1.390 1_565 S
C2365 C2366 1.387 . S
C2365 H2368 0.950 . S
C2366 C2365 1.387 . S
C2366 C2369 1.387 . S
H2367 C2363 0.950 . S
H2368 C2365 0.950 . S
C2369 C2360 1.390 1_565 S
C2369 H2362 0.950 . S
C2369 C2366 1.387 . S
C2370 C2371 1.387 1_455 S
C2370 H2374 0.950 . S
C2370 C2379 1.390 . S
C2371 C2370 1.387 1_655 S
C2371 C2373 1.387 . S
H2372 C2379 0.950 . S
C2373 C2371 1.387 . S
C2373 C2375 1.390 . S
C2373 H2377 0.950 . S
H2374 C2370 0.950 . S
C2375 C2373 1.390 . S
C2375 C2376 1.387 1_655 S
C2375 H2378 0.950 . S
C2376 C2375 1.387 1_455 S
C2376 C2379 1.387 . S
H2377 C2373 0.950 . S
H2378 C2375 0.950 . S
C2379 C2370 1.390 . S
C2379 H2372 0.950 . S
C2379 C2376 1.387 . S
C2380 C2381 1.387 . S
C2380 H2384 0.950 . S
C2380 C2389 1.390 . S
C2381 C2380 1.387 . S
C2381 C2383 1.387 . S
H2382 C2389 0.950 . S
C2383 C2381 1.387 . S
C2383 C2385 1.390 . S
C2383 H2387 0.950 . S
H2384 C2380 0.950 . S
C2385 C2383 1.390 . S
C2385 C2386 1.387 . S
C2385 H2388 0.950 . S
C2386 C2385 1.387 . S
C2386 C2389 1.387 . S
H2387 C2383 0.950 . S
H2388 C2385 0.950 . S
C2389 C2380 1.390 . S
C2389 H2382 0.950 . S
C2389 C2386 1.387 . S
C2390 C2391 1.387 . S
C2390 H2394 0.950 . S
C2390 C2399 1.390 1_545 S
C2391 C2390 1.387 . S
C2391 C2393 1.387 . S
H2392 C2399 0.950 . S
C2393 C2391 1.387 . S
C2393 C2395 1.390 1_545 S
C2393 H2397 0.950 . S
H2394 C2390 0.950 . S
C2395 C2393 1.390 1_565 S
C2395 C2396 1.387 . S
C2395 H2398 0.950 . S
C2396 C2395 1.387 . S
C2396 C2399 1.387 . S
H2397 C2393 0.950 . S
H2398 C2395 0.950 . S
C2399 C2390 1.390 1_565 S
C2399 H2392 0.950 . S
C2399 C2396 1.387 . S
C2400 C2401 1.387 . S
C2400 H2404 0.950 . S
C2400 C2409 1.390 . S
C2401 C2400 1.387 . S
C2401 C2403 1.387 . S
H2402 C2409 0.950 . S
C2403 C2401 1.387 . S
C2403 C2405 1.390 . S
C2403 H2407 0.950 . S
H2404 C2400 0.950 . S
C2405 C2403 1.390 . S
C2405 C2406 1.387 . S
C2405 H2408 0.950 . S
C2406 C2405 1.387 . S
C2406 C2409 1.387 . S
H2407 C2403 0.950 . S
H2408 C2405 0.950 . S
C2409 C2400 1.390 . S
C2409 H2402 0.950 . S
C2409 C2406 1.387 . S
C2410 C2411 1.387 . S
C2410 H2414 0.950 . S
C2410 C2419 1.390 . S
C2411 C2410 1.387 . S
C2411 C2413 1.387 . S
H2412 C2419 0.950 . S
C2413 C2411 1.387 . S
C2413 C2415 1.390 . S
C2413 H2417 0.950 . S
H2414 C2410 0.950 . S
C2415 C2413 1.390 . S
C2415 C2416 1.387 . S
C2415 H2418 0.950 . S
C2416 C2415 1.387 . S
C2416 C2419 1.387 . S
H2417 C2413 0.950 . S
H2418 C2415 0.950 . S
C2419 C2410 1.390 . S
C2419 H2412 0.950 . S
C2419 C2416 1.387 . S
C2420 C2421 1.387 . S
C2420 H2424 0.950 . S
C2420 C2429 1.390 . S
C2421 C2420 1.387 . S
C2421 C2423 1.387 . S
H2422 C2429 0.950 . S
C2423 C2421 1.387 . S
C2423 C2425 1.390 . S
C2423 H2427 0.950 . S
H2424 C2420 0.950 . S
C2425 C2423 1.390 . S
C2425 C2426 1.387 . S
C2425 H2428 0.950 . S
C2426 C2425 1.387 . S
C2426 C2429 1.387 . S
H2427 C2423 0.950 . S
H2428 C2425 0.950 . S
C2429 C2420 1.390 . S
C2429 H2422 0.950 . S
C2429 C2426 1.387 . S
C2430 C2431 1.387 . S
C2430 H2434 0.950 . S
C2430 C2439 1.390 . S
C2431 C2430 1.387 . S
C2431 C2433 1.387 . S
H2432 C2439 0.950 . S
C2433 C2431 1.387 . S
C2433 C2435 1.390 . S
C2433 H2437 0.950 . S
H2434 C2430 0.950 . S
C2435 C2433 1.390 . S
C2435 C2436 1.387 . S
C2435 H2438 0.950 . S
C2436 C2435 1.387 . S
C2436 C2439 1.387 . S
H2437 C2433 0.950 . S
H2438 C2435 0.950 . S
C2439 C2430 1.390 . S
C2439 H2432 0.950 . S
C2439 C2436 1.387 . S
C2440 C2441 1.387 . S
C2440 H2444 0.950 . S
C2440 C2449 1.390 . S
C2441 C2440 1.387 . S
C2441 C2443 1.387 . S
H2442 C2449 0.950 . S
C2443 C2441 1.387 . S
C2443 C2445 1.390 . S
C2443 H2447 0.950 . S
H2444 C2440 0.950 . S
C2445 C2443 1.390 . S
C2445 C2446 1.387 . S
C2445 H2448 0.950 . S
C2446 C2445 1.387 . S
C2446 C2449 1.387 . S
H2447 C2443 0.950 . S
H2448 C2445 0.950 . S
C2449 C2440 1.390 . S
C2449 H2442 0.950 . S
C2449 C2446 1.387 . S
C2450 C2451 1.387 . S
C2450 H2454 0.950 . S
C2450 C2459 1.390 . S
C2451 C2450 1.387 . S
C2451 C2453 1.387 . S
H2452 C2459 0.950 . S
C2453 C2451 1.387 . S
C2453 C2455 1.390 . S
C2453 H2457 0.950 . S
H2454 C2450 0.950 . S
C2455 C2453 1.390 . S
C2455 C2456 1.387 . S
C2455 H2458 0.950 . S
C2456 C2455 1.387 . S
C2456 C2459 1.387 . S
H2457 C2453 0.950 . S
H2458 C2455 0.950 . S
C2459 C2450 1.390 . S
C2459 H2452 0.950 . S
C2459 C2456 1.387 . S
C2460 C2461 1.387 . S
C2460 H2464 0.950 . S
C2460 C2469 1.390 . S
C2461 C2460 1.387 . S
C2461 C2463 1.387 . S
H2462 C2469 0.950 . S
C2463 C2461 1.387 . S
C2463 C2465 1.390 . S
C2463 H2467 0.950 . S
H2464 C2460 0.950 . S
C2465 C2463 1.390 . S
C2465 C2466 1.387 . S
C2465 H2468 0.950 . S
C2466 C2465 1.387 . S
C2466 C2469 1.387 . S
H2467 C2463 0.950 . S
H2468 C2465 0.950 . S
C2469 C2460 1.390 . S
C2469 H2462 0.950 . S
C2469 C2466 1.387 . S
C2470 C2471 1.387 . S
C2470 H2474 0.950 . S
C2470 C2479 1.390 . S
C2471 C2470 1.387 . S
C2471 C2473 1.387 . S
H2472 C2479 0.950 . S
C2473 C2471 1.387 . S
C2473 C2475 1.390 . S
C2473 H2477 0.950 . S
H2474 C2470 0.950 . S
C2475 C2473 1.390 . S
C2475 C2476 1.387 . S
C2475 H2478 0.950 . S
C2476 C2475 1.387 . S
C2476 C2479 1.387 . S
H2477 C2473 0.950 . S
H2478 C2475 0.950 . S
C2479 C2470 1.390 . S
C2479 H2472 0.950 . S
C2479 C2476 1.387 . S
C2480 C2481 1.387 . S
C2480 H2484 0.950 . S
C2480 C2489 1.390 . S
C2481 C2480 1.387 . S
C2481 C2483 1.387 . S
H2482 C2489 0.950 . S
C2483 C2481 1.387 . S
C2483 C2485 1.390 . S
C2483 H2487 0.950 . S
H2484 C2480 0.950 . S
C2485 C2483 1.390 . S
C2485 C2486 1.387 . S
C2485 H2488 0.950 . S
C2486 C2485 1.387 . S
C2486 C2489 1.387 . S
H2487 C2483 0.950 . S
H2488 C2485 0.950 . S
C2489 C2480 1.390 . S
C2489 H2482 0.950 . S
C2489 C2486 1.387 . S
C2490 C2491 1.387 . S
C2490 H2494 0.950 . S
C2490 C2499 1.390 . S
C2491 C2490 1.387 . S
C2491 C2493 1.387 . S
H2492 C2499 0.950 . S
C2493 C2491 1.387 . S
C2493 C2495 1.390 . S
C2493 H2497 0.950 . S
H2494 C2490 0.950 . S
C2495 C2493 1.390 . S
C2495 C2496 1.387 . S
C2495 H2498 0.950 . S
C2496 C2495 1.387 . S
C2496 C2499 1.387 . S
H2497 C2493 0.950 . S
H2498 C2495 0.950 . S
C2499 C2490 1.390 . S
C2499 H2492 0.950 . S
C2499 C2496 1.387 . S
C2500 C2501 1.387 . S
C2500 H2504 0.950 . S
C2500 C2509 1.390 . S
C2501 C2500 1.387 . S
C2501 C2503 1.387 . S
H2502 C2509 0.950 . S
C2503 C2501 1.387 . S
C2503 C2505 1.390 . S
C2503 H2507 0.950 . S
H2504 C2500 0.950 . S
C2505 C2503 1.390 . S
C2505 C2506 1.387 . S
C2505 H2508 0.950 . S
C2506 C2505 1.387 . S
C2506 C2509 1.387 . S
H2507 C2503 0.950 . S
H2508 C2505 0.950 . S
C2509 C2500 1.390 . S
C2509 H2502 0.950 . S
C2509 C2506 1.387 . S
C2510 C2511 1.387 . S
C2510 H2514 0.950 . S
C2510 C2519 1.390 . S
C2511 C2510 1.387 . S
C2511 C2513 1.387 . S
H2512 C2519 0.950 . S
C2513 C2511 1.387 . S
C2513 C2515 1.390 . S
C2513 H2517 0.950 . S
H2514 C2510 0.950 . S
C2515 C2513 1.390 . S
C2515 C2516 1.387 . S
C2515 H2518 0.950 . S
C2516 C2515 1.387 . S
C2516 C2519 1.387 . S
H2517 C2513 0.950 . S
H2518 C2515 0.950 . S
C2519 C2510 1.390 . S
C2519 H2512 0.950 . S
C2519 C2516 1.387 . S
C1441 C9 1.770 . S
C1446 C99 1.827 1_545 S
C1451 C19 1.826 1_655 S
C1456 C49 1.768 1_545 S
C1461 C89 1.771 1_655 S
C1466 C59 1.827 . S
C1471 C129 1.835 . S
C1476 C179 1.890 1_455 S
C1481 C219 1.893 . S
C1486 C169 1.837 1_565 S
C1491 C209 1.835 1_455 S
C1496 C139 1.889 1_565 S
C1501 C258 1.772 . S
C1506 C330 1.828 1_565 S
C1511 C298 1.771 1_565 S
C1516 C250 1.827 1_455 S
C1521 C338 1.772 1_455 S
C1526 C290 1.829 . S
C1531 C378 1.835 . S
C1536 C410 1.890 1_655 S
C1541 C450 1.891 . S
C1546 C418 1.834 1_545 S
C1551 C370 1.891 1_545 S
C1556 C458 1.835 1_655 S
C1561 C579 1.883 . S
C1566 C489 1.826 . S
C1571 C529 1.826 . S
C1576 C499 1.883 . S
C1581 C539 1.883 . S
C1586 C569 1.827 . S
C1591 C609 1.851 . S
C1596 C659 1.905 . S
C1601 C699 1.907 . S
C1606 C649 1.851 . S
C1611 C619 1.907 . S
C1616 C689 1.851 . S
C1621 C738 1.795 . S
C1626 C810 1.851 . S
C1631 C778 1.795 . S
C1636 C730 1.852 . S
C1641 C770 1.854 . S
C1646 C818 1.797 . S
C1651 C890 1.759 . S
C1656 C858 1.713 1_554 S
C1661 C898 1.715 1_554 S
C1666 C930 1.758 . S
C1671 C850 1.758 . S
C1676 C938 1.715 1_554 S
C1681 C969 1.797 . S
C1686 C1059 1.852 . S
C1691 C1009 1.795 . S
C1696 C979 1.852 . S
C1701 C1049 1.796 . S
C1706 C1019 1.854 . S
C1711 C1089 1.712 1_556 S
C1716 C1139 1.757 . S
C1721 C1129 1.712 1_556 S
C1726 C1179 1.757 . S
C1731 C1169 1.712 1_556 S
C1736 C1099 1.757 . S
C1741 C1218 1.826 . S
C1746 C1290 1.883 . S
C1751 C1258 1.826 . S
C1756 C1210 1.883 . S
C1761 C1250 1.884 . S
C1766 C1298 1.825 . S
C1771 C1338 1.850 . S
C1776 C1370 1.907 . S
C1781 C1378 1.851 . S
C1786 C1410 1.907 . S
C1791 C1330 1.907 . S
C1796 C1418 1.851 . S
C1801 C10 1.852 . S
C1806 C809 1.833 . S
C1811 C729 1.832 1_565 S
C1816 C50 1.854 . S
C1821 C90 1.853 . S
C1826 C769 1.832 1_455 S
C1831 C130 1.774 . S
C1836 C1369 1.741 . S
C1841 C1409 1.740 1_545 S
C1846 C170 1.772 . S
C1851 C210 1.773 . S
C1856 C1329 1.744 1_655 S
C1861 C1058 1.833 . S
C1866 C259 1.853 . S
C1871 C299 1.855 . S
C1876 C978 1.832 1_545 S
C1881 C339 1.853 . S
C1886 C1018 1.830 1_655 S
C1891 C658 1.743 . S
C1896 C379 1.772 . S
C1901 C698 1.742 1_565 S
C1906 C419 1.771 . S
C1911 C618 1.742 1_455 S
C1916 C459 1.774 . S
C1921 C490 1.812 . S
C1926 C1289 1.788 . S
C1931 C530 1.815 . S
C1936 C1209 1.787 . S
C1941 C1249 1.786 . S
C1946 C570 1.813 . S
C1951 C409 1.778 . S
C1956 C610 1.804 1_455 S
C1961 C449 1.777 . S
C1966 C650 1.806 . S
C1971 C369 1.779 . S
C1976 C690 1.805 1_565 S
C1981 C98 1.828 . S
C1986 C739 1.848 1_565 S
C1991 C779 1.848 1_455 S
C1996 C18 1.828 . S
C2001 C819 1.846 . S
C2006 C58 1.828 . S
C2011 C1138 1.800 . S
C2016 C859 1.831 . S
C2021 C1178 1.798 . S
C2026 C899 1.827 . S
C2031 C939 1.829 . S
C2036 C1098 1.798 . S
C2041 C329 1.829 . S
C2046 C970 1.846 1_545 S
C2051 C249 1.829 . S
C2056 C1010 1.848 1_655 S
C2061 C289 1.829 . S
C2066 C1050 1.846 . S
C2071 C1090 1.831 . S
C2076 C889 1.799 . S
C2081 C929 1.798 . S
C2086 C1130 1.830 . S
C2091 C1170 1.830 . S
C2096 C849 1.798 . S
C2101 C1219 1.812 . S
C2106 C578 1.788 . S
C2111 C1259 1.813 . S
C2116 C498 1.789 . S
C2121 C1299 1.812 . S
C2126 C538 1.787 . S
C2131 C1339 1.804 1_655 S
C2136 C178 1.778 . S
C2141 C218 1.777 . S
C2146 C1379 1.806 . S
C2151 C138 1.778 . S
C2156 C1419 1.807 1_545 S
C2161 C1166 2.260 . S
C2166 C6 2.250 . S
C2171 C1086 2.260 . S
C2176 C46 2.251 . S
C2181 C86 2.263 . S
C2186 C1126 2.244 . S
C2191 C526 2.425 . S
C2196 C126 2.423 . S
C2201 C166 2.422 . S
C2206 C566 2.424 . S
C2211 C206 2.423 . S
C2216 C486 2.426 . S
C2221 C255 2.263 . S
C2226 C935 2.246 . S
C2231 C295 2.263 . S
C2236 C855 2.245 . S
C2241 C335 2.263 . S
C2246 C895 2.244 . S
C2251 C1255 2.424 . S
C2256 C375 2.422 . S
C2261 C1295 2.424 . S
C2266 C415 2.422 . S
C2271 C1215 2.424 . S
C2276 C455 2.422 . S
C2281 C606 2.455 . S
C2286 C1006 2.459 . S
C2291 C646 2.455 . S
C2296 C1046 2.459 . S
C2301 C686 2.455 . S
C2306 C966 2.459 . S
C2311 C735 2.459 . S
C2316 C1415 2.455 . S
C2321 C1335 2.456 . S
C2326 C775 2.460 . S
C2331 C815 2.459 . S
C2336 C1375 2.455 . S
C2341 C175 1.244 . S
C2346 C15 1.245 . S
C2351 C215 1.243 . S
C2356 C55 1.244 . S
C2361 C135 1.243 . S
C2366 C95 1.245 . S
C2371 C246 1.245 . S
C2376 C406 1.243 . S
C2381 C446 1.243 . S
C2386 C286 1.244 . S
C2391 C326 1.245 . S
C2396 C366 1.243 . S
C2401 C655 1.309 . S
C2406 C495 1.310 . S
C2411 C695 1.307 . S
C2416 C535 1.308 . S
C2421 C615 1.308 . S
C2426 C575 1.309 . S
C2431 C886 1.527 . S
C2436 C726 1.558 . S
C2441 C766 1.546 . S
C2446 C926 1.541 . S
C2451 C806 1.545 . S
C2456 C846 1.540 . S
C2461 C975 1.546 . S
C2466 C1135 1.540 . S
C2471 C1175 1.528 . S
C2476 C1015 1.559 . S
C2481 C1055 1.545 . S
C2486 C1095 1.540 . S
C2491 C1206 1.309 . S
C2496 C1366 1.308 . S
C2501 C1406 1.308 . S
C2506 C1246 1.310 . S
C2511 C1286 1.310 . S
C2516 C1326 1.309 . S
