# Generated by pormake.
# Topology smd, (6)-cn, num edge types: 1
# Building blocks:
#     Node 0, Type 0, BuildingBlock: IZENUY_clean_sbu_0, # of connection points: 6
#     Node 1, Type 0, BuildingBlock: IZENUY_clean_sbu_0, # of connection points: 6
#     Node 2, Type 0, BuildingBlock: IZENUY_clean_sbu_0, # of connection points: 6
#     Node 3, Type 0, BuildingBlock: IZENUY_clean_sbu_0, # of connection points: 6
#     Node 4, Type 0, BuildingBlock: IZENUY_clean_sbu_0, # of connection points: 6
#     Node 5, Type 0, BuildingBlock: IZENUY_clean_sbu_0, # of connection points: 6
#     Node 6, Type 0, BuildingBlock: IZENUY_clean_sbu_0, # of connection points: 6
#     Node 7, Type 0, BuildingBlock: IZENUY_clean_sbu_0, # of connection points: 6
#     Node 8, Type 0, BuildingBlock: IZENUY_clean_sbu_0, # of connection points: 6
#     Node 9, Type 0, BuildingBlock: IZENUY_clean_sbu_0, # of connection points: 6
#     Node 10, Type 0, BuildingBlock: IZENUY_clean_sbu_0, # of connection points: 6
#     Node 11, Type 0, BuildingBlock: IZENUY_clean_sbu_0, # of connection points: 6
#     Node 12, Type 0, BuildingBlock: IZENUY_clean_sbu_0, # of connection points: 6
#     Node 13, Type 0, BuildingBlock: IZENUY_clean_sbu_0, # of connection points: 6
#     Node 14, Type 0, BuildingBlock: IZENUY_clean_sbu_0, # of connection points: 6
#     Node 15, Type 0, BuildingBlock: IZENUY_clean_sbu_0, # of connection points: 6
#     Node 16, Type 0, BuildingBlock: IZENUY_clean_sbu_0, # of connection points: 6
#     Node 17, Type 0, BuildingBlock: IZENUY_clean_sbu_0, # of connection points: 6
#     Edge 18, Type (0, 0), BuildingBlock: XIVTED_clean_linker_0, # of connection points: 2
#     Edge 19, Type (0, 0), BuildingBlock: XIVTED_clean_linker_0, # of connection points: 2
#     Edge 20, Type (0, 0), BuildingBlock: XIVTED_clean_linker_0, # of connection points: 2
#     Edge 21, Type (0, 0), BuildingBlock: XIVTED_clean_linker_0, # of connection points: 2
#     Edge 22, Type (0, 0), BuildingBlock: XIVTED_clean_linker_0, # of connection points: 2
#     Edge 23, Type (0, 0), BuildingBlock: XIVTED_clean_linker_0, # of connection points: 2
#     Edge 24, Type (0, 0), BuildingBlock: XIVTED_clean_linker_0, # of connection points: 2
#     Edge 25, Type (0, 0), BuildingBlock: XIVTED_clean_linker_0, # of connection points: 2
#     Edge 26, Type (0, 0), BuildingBlock: XIVTED_clean_linker_0, # of connection points: 2
#     Edge 27, Type (0, 0), BuildingBlock: XIVTED_clean_linker_0, # of connection points: 2
#     Edge 28, Type (0, 0), BuildingBlock: XIVTED_clean_linker_0, # of connection points: 2
#     Edge 29, Type (0, 0), BuildingBlock: XIVTED_clean_linker_0, # of connection points: 2
#     Edge 30, Type (0, 0), BuildingBlock: XIVTED_clean_linker_0, # of connection points: 2
#     Edge 31, Type (0, 0), BuildingBlock: XIVTED_clean_linker_0, # of connection points: 2
#     Edge 32, Type (0, 0), BuildingBlock: XIVTED_clean_linker_0, # of connection points: 2
#     Edge 33, Type (0, 0), BuildingBlock: XIVTED_clean_linker_0, # of connection points: 2
#     Edge 34, Type (0, 0), BuildingBlock: XIVTED_clean_linker_0, # of connection points: 2
#     Edge 35, Type (0, 0), BuildingBlock: XIVTED_clean_linker_0, # of connection points: 2
#     Edge 36, Type (0, 0), BuildingBlock: XIVTED_clean_linker_0, # of connection points: 2
#     Edge 37, Type (0, 0), BuildingBlock: XIVTED_clean_linker_0, # of connection points: 2
#     Edge 38, Type (0, 0), BuildingBlock: XIVTED_clean_linker_0, # of connection points: 2
#     Edge 39, Type (0, 0), BuildingBlock: XIVTED_clean_linker_0, # of connection points: 2
#     Edge 40, Type (0, 0), BuildingBlock: XIVTED_clean_linker_0, # of connection points: 2
#     Edge 41, Type (0, 0), BuildingBlock: XIVTED_clean_linker_0, # of connection points: 2
#     Edge 42, Type (0, 0), BuildingBlock: XIVTED_clean_linker_0, # of connection points: 2
#     Edge 43, Type (0, 0), BuildingBlock: XIVTED_clean_linker_0, # of connection points: 2
#     Edge 44, Type (0, 0), BuildingBlock: XIVTED_clean_linker_0, # of connection points: 2
#     Edge 45, Type (0, 0), BuildingBlock: XIVTED_clean_linker_0, # of connection points: 2
#     Edge 46, Type (0, 0), BuildingBlock: XIVTED_clean_linker_0, # of connection points: 2
#     Edge 47, Type (0, 0), BuildingBlock: XIVTED_clean_linker_0, # of connection points: 2
#     Edge 48, Type (0, 0), BuildingBlock: XIVTED_clean_linker_0, # of connection points: 2
#     Edge 49, Type (0, 0), BuildingBlock: XIVTED_clean_linker_0, # of connection points: 2
#     Edge 50, Type (0, 0), BuildingBlock: XIVTED_clean_linker_0, # of connection points: 2
#     Edge 51, Type (0, 0), BuildingBlock: XIVTED_clean_linker_0, # of connection points: 2
#     Edge 52, Type (0, 0), BuildingBlock: XIVTED_clean_linker_0, # of connection points: 2
#     Edge 53, Type (0, 0), BuildingBlock: XIVTED_clean_linker_0, # of connection points: 2
#     Edge 54, Type (0, 0), BuildingBlock: XIVTED_clean_linker_0, # of connection points: 2
#     Edge 55, Type (0, 0), BuildingBlock: XIVTED_clean_linker_0, # of connection points: 2
#     Edge 56, Type (0, 0), BuildingBlock: XIVTED_clean_linker_0, # of connection points: 2
#     Edge 57, Type (0, 0), BuildingBlock: XIVTED_clean_linker_0, # of connection points: 2
#     Edge 58, Type (0, 0), BuildingBlock: XIVTED_clean_linker_0, # of connection points: 2
#     Edge 59, Type (0, 0), BuildingBlock: XIVTED_clean_linker_0, # of connection points: 2
#     Edge 60, Type (0, 0), BuildingBlock: XIVTED_clean_linker_0, # of connection points: 2
#     Edge 61, Type (0, 0), BuildingBlock: XIVTED_clean_linker_0, # of connection points: 2
#     Edge 62, Type (0, 0), BuildingBlock: XIVTED_clean_linker_0, # of connection points: 2
#     Edge 63, Type (0, 0), BuildingBlock: XIVTED_clean_linker_0, # of connection points: 2
#     Edge 64, Type (0, 0), BuildingBlock: XIVTED_clean_linker_0, # of connection points: 2
#     Edge 65, Type (0, 0), BuildingBlock: XIVTED_clean_linker_0, # of connection points: 2
#     Edge 66, Type (0, 0), BuildingBlock: XIVTED_clean_linker_0, # of connection points: 2
#     Edge 67, Type (0, 0), BuildingBlock: XIVTED_clean_linker_0, # of connection points: 2
#     Edge 68, Type (0, 0), BuildingBlock: XIVTED_clean_linker_0, # of connection points: 2
#     Edge 69, Type (0, 0), BuildingBlock: XIVTED_clean_linker_0, # of connection points: 2
#     Edge 70, Type (0, 0), BuildingBlock: XIVTED_clean_linker_0, # of connection points: 2
#     Edge 71, Type (0, 0), BuildingBlock: XIVTED_clean_linker_0, # of connection points: 2
# Relax obj value: 0.180
# Max RMSD: 0.220
# Mean RMSD: 0.218
data_MOF--net-smd--node1-IZENUY_clean_sbu_0--edge1-XIVTED_clean_linker_0
_symmetry_space_group_name_H-M    P1
_symmetry_Int_Tables_number       1
_symmetry_cell_setting            triclinic
loop_
_symmetry_equiv_pos_as_xyz
'x, y, z'
_cell_length_a     74.029227
_cell_length_b     74.110255
_cell_length_c     15.326534
_cell_angle_alpha  90.04138
_cell_angle_beta   89.873566
_cell_angle_gamma 120.14997
loop_
_atom_site_label
_atom_site_type_symbol
_atom_site_fract_x
_atom_site_fract_y
_atom_site_fract_z
_atom_type_partial_charge
Fe0 Fe 0.04408 0.25973 0.59078 0.0
Fe1 Fe 0.02717 0.21525 0.52091 0.0
O2 O 0.02767 0.23941 0.51875 0.0
Fe3 Fe 0.01174 0.24326 0.44397 0.0
O4 O 0.9979 0.24763 0.5312 0.0
O5 O 0.02614 0.2701 0.60223 0.0
O6 O 0.03142 0.24372 0.68457 0.0
C7 C 0.03051 0.22665 0.70071 0.0
C8 C 0.04928 0.28278 0.44582 0.0
O9 O 0.03215 0.2159 0.63991 0.0
C10 C 0.02606 0.22322 0.34073 0.0
O11 O 0.065 0.25302 0.5919 0.0
O12 O 0.05468 0.2278 0.4953 0.0
O13 O 0.02993 0.27154 0.42985 0.0
O14 O 0.05792 0.27727 0.50202 0.0
C15 C 0.98575 0.2013 0.49956 0.0
O16 O 0.0223 0.21025 0.40196 0.0
O17 O 0.02486 0.23936 0.35321 0.0
C18 C 0.06903 0.24232 0.53897 0.0
O19 O 0.99965 0.20126 0.54668 0.0
O20 O 0.9905 0.21566 0.44376 0.0
C21 C 1.00675 0.26204 0.58659 0.0
Fe22 Fe 0.83586 0.83209 0.50545 0.0
Fe23 Fe 0.8084 0.78709 0.44054 0.0
O24 O 0.81208 0.80795 0.50838 0.0
Fe25 Fe 0.79184 0.80448 0.58028 0.0
O26 O 0.80831 0.80866 0.67314 0.0
O27 O 0.83563 0.83741 0.62407 0.0
O28 O 0.85089 0.81985 0.53392 0.0
C29 C 0.8508 0.80509 0.49285 0.0
C30 C 0.80842 0.84621 0.52196 0.0
O31 O 0.83602 0.79384 0.44116 0.0
C32 C 0.76877 0.78489 0.4378 0.0
O33 O 0.84029 0.83087 0.38669 0.0
O34 O 0.81207 0.80221 0.34364 0.0
O35 O 0.79845 0.83208 0.57823 0.0
O36 O 0.82251 0.84599 0.47665 0.0
C37 C 0.78978 0.76514 0.58689 0.0
O38 O 0.78 0.77654 0.4271 0.0
O39 O 0.77427 0.79986 0.49032 0.0
C40 C 0.82807 0.81947 0.32649 0.0
O41 O 0.80458 0.77056 0.5336 0.0
O42 O 0.78128 0.7762 0.59653 0.0
C43 C 0.82587 0.82465 0.68566 0.0
Fe44 Fe 0.21782 0.0228 0.50879 0.0
Fe45 Fe 0.246 0.00786 0.58807 0.0
O46 O 0.24198 0.02319 0.51052 0.0
Fe47 Fe 0.26197 0.03892 0.43558 0.0
O48 O 0.24537 0.02581 0.34396 0.0
O49 O 0.21816 0.02749 0.38969 0.0
O50 O 0.20383 0.99525 0.48495 0.0
C51 C 0.20405 0.98157 0.53294 0.0
C52 C 0.24515 0.06445 0.48751 0.0
O53 O 0.21832 0.98661 0.58957 0.0
C54 C 0.28576 0.04506 0.57962 0.0
O55 O 0.21286 0.01825 0.62792 0.0
O56 O 0.24228 0.02165 0.67655 0.0
O57 O 0.25554 0.06008 0.43398 0.0
O58 O 0.23063 0.05035 0.53241 0.0
C59 C 0.26421 1.00155 0.44612 0.0
O60 O 0.27428 0.02604 0.6003 0.0
O61 O 0.28025 0.05323 0.52136 0.0
C62 C 0.22598 0.02257 0.68889 0.0
O63 O 0.25036 0.99338 0.50434 0.0
O64 O 0.27188 0.02058 0.42464 0.0
C65 C 0.22846 0.02529 0.3285 0.0
Fe66 Fe 0.01004 0.7862 0.44713 0.0
Fe67 Fe 0.02803 0.83118 0.51266 0.0
O68 O 0.02738 0.80697 0.51508 0.0
Fe69 Fe 0.04403 0.80337 0.58661 0.0
O70 O 0.05698 0.79881 0.49627 0.0
O71 O 0.02781 0.7756 0.43289 0.0
O72 O 0.02162 0.80136 0.35029 0.0
C73 C 0.02307 0.81867 0.33354 0.0
C74 C 1.0065 0.76405 0.59275 0.0
O75 O 0.02239 0.83007 0.39404 0.0
C76 C 0.03037 0.82356 0.69264 0.0
O77 O 0.98927 0.79306 0.44858 0.0
O78 O 1.00072 0.81907 0.54154 0.0
O79 O 0.02612 0.77509 0.60234 0.0
O80 O 0.99719 0.76959 0.54005 0.0
C81 C 0.06959 0.84509 0.52878 0.0
O82 O 0.03361 0.8364 0.63128 0.0
O83 O 0.03172 0.80749 0.67976 0.0
C84 C 0.98591 0.8044 0.50045 0.0
O85 O 0.05536 0.84494 0.48346 0.0
O86 O 0.06523 0.83095 0.58503 0.0
C87 C 0.04743 0.78391 0.44343 0.0
Fe88 Fe 0.21803 0.21414 0.51083 0.0
Fe89 Fe 0.24571 0.25767 0.58868 0.0
O90 O 0.24212 0.23801 0.51343 0.0
Fe91 Fe 0.26267 0.24215 0.44223 0.0
O92 O 0.24689 0.23856 0.34765 0.0
O93 O 0.21892 0.20989 0.3918 0.0
O94 O 0.204 0.22749 0.48476 0.0
C95 C 0.20386 0.24135 0.53189 0.0
C96 C 0.24537 0.19974 0.49368 0.0
O97 O 0.21799 0.2509 0.58865 0.0
C98 C 0.28534 0.26023 0.58816 0.0
O99 O 0.21282 0.2139 0.62976 0.0
O100 O 0.24187 0.2406 0.67897 0.0
O101 O 0.25622 0.21459 0.4413 0.0
O102 O 0.23067 0.19938 0.53669 0.0
C103 C 0.26454 0.28166 0.44681 0.0
O104 O 0.27404 0.26829 0.6025 0.0
O105 O 0.27997 0.246 0.53232 0.0
C106 C 0.22575 0.22314 0.69114 0.0
O107 O 0.25011 0.27595 0.50242 0.0
O108 O 0.27271 0.2705 0.43015 0.0
C109 C 0.22983 0.22232 0.33119 0.0
Fe110 Fe 0.79215 0.00709 0.57823 0.0
Fe111 Fe 0.83626 0.02308 0.50632 0.0
O112 O 0.81247 0.02335 0.50563 0.0
Fe113 Fe 0.809 0.03988 0.43283 0.0
O114 O 0.80457 0.05335 0.52089 0.0
O115 O 0.78189 0.02511 0.5912 0.0
O116 O 0.80852 0.01991 0.67095 0.0
C117 C 0.8258 0.02112 0.68552 0.0
C118 C 0.76923 1.00247 0.43331 0.0
O119 O 0.83551 0.01771 0.6252 0.0
C120 C 0.82936 0.0267 0.32572 0.0
O121 O 0.79859 0.98597 0.57897 0.0
O122 O 0.823 0.99569 0.47888 0.0
O123 O 0.78068 0.02187 0.41848 0.0
O124 O 0.77452 0.9935 0.4891 0.0
C125 C 0.85102 0.06488 0.48975 0.0
O126 O 0.84148 0.02856 0.38792 0.0
O127 O 0.81306 0.02756 0.3396 0.0
C128 C 0.80864 0.98155 0.52403 0.0
O129 O 0.85091 0.05046 0.53372 0.0
O130 O 0.83669 0.0609 0.43471 0.0
C131 C 0.79005 0.04447 0.57577 0.0
Fe132 Fe 0.67633 0.57553 0.776 0.0
Fe133 Fe 0.71047 0.59254 0.9148 0.0
O134 O 0.6935 0.57206 0.84459 0.0
Fe135 Fe 0.69365 0.54825 0.84405 0.0
O136 O 0.66635 0.53352 0.87379 0.0
O137 O 0.65528 0.54797 0.7789 0.0
O138 O 0.66373 0.57986 0.86837 0.0
C139 C 0.67326 0.59481 0.92062 0.0
C140 C 0.6888 0.55528 0.66436 0.0
O141 O 0.69287 0.60323 0.92992 0.0
C142 C 0.73538 0.57559 0.85813 0.0
O143 O 0.69435 0.60383 0.76027 0.0
O144 O 0.72345 0.60969 0.82345 0.0
O145 O 0.68775 0.54326 0.72578 0.0
O146 O 0.68768 0.57138 0.67967 0.0
C147 C 0.69656 0.55905 0.02336 0.0
O148 O 0.73137 0.58583 0.91347 0.0
O149 O 0.72093 0.56134 0.81407 0.0
C150 C 0.71399 0.61507 0.77052 0.0
O151 O 0.69817 0.57652 1.00906 0.0
O152 O 0.69942 0.54902 0.96264 0.0
C153 C 0.65168 0.53342 0.83201 0.0
Fe154 Fe 0.47432 0.12105 0.7648 0.0
Fe155 Fe 0.45877 0.13627 0.91833 0.0
O156 O 0.47858 0.14045 0.84268 0.0
Fe157 Fe 0.50283 0.16423 0.84407 0.0
O158 O 0.5167 0.15056 0.86718 0.0
O159 O 0.50194 0.12739 0.76253 0.0
O160 O 0.46992 0.10213 0.8482 0.0
C161 C 0.45623 0.09654 0.90707 0.0
C162 C 0.49444 0.15583 0.66408 0.0
O163 O 0.44872 0.10797 0.92911 0.0
C164 C 0.47572 0.17868 0.86652 0.0
O165 O 0.44605 0.11105 0.75331 0.0
O166 O 0.44038 0.13234 0.83325 0.0
O167 O 0.50764 0.16459 0.72484 0.0
O168 O 0.47806 0.13863 0.6766 0.0
C169 C 0.49245 0.15615 0.02455 0.0
O170 O 0.46537 0.16392 0.9202 0.0
O171 O 0.49014 0.17907 0.82112 0.0
C172 C 0.43471 0.11867 0.77472 0.0
O173 O 0.47549 0.13973 1.00935 0.0
O174 O 0.50269 0.16864 0.96322 0.0
C175 C 0.51631 0.1366 0.81884 0.0
Fe176 Fe 0.91131 0.33817 0.91935 0.0
Fe177 Fe 0.88372 0.35544 0.85413 0.0
O178 O 0.90752 0.35522 0.85125 0.0
Fe179 Fe 0.92769 0.37199 0.77906 0.0
O180 O 0.94526 0.38518 0.8688 0.0
O181 O 0.9397 0.35624 0.93249 0.0
O182 O 0.90762 0.34969 0.01605 0.0
C183 C 0.89159 0.35083 0.03315 0.0
C184 C 0.92992 0.33482 0.77299 0.0
O185 O 0.87933 0.34988 0.97294 0.0
C186 C 0.89362 0.35782 0.67391 0.0
O187 O 0.8837 0.31713 0.91908 0.0
O188 O 0.86879 0.32809 0.826 0.0
O189 O 0.93835 0.3544 0.7632 0.0
O190 O 0.91517 0.3254 0.82648 0.0
C191 C 0.91107 0.39707 0.83686 0.0
O192 O 0.8839 0.36086 0.73545 0.0
O193 O 0.91119 0.35946 0.68642 0.0
C194 C 0.86893 0.31347 0.86726 0.0
O195 O 0.89701 0.38279 0.8825 0.0
O196 O 0.92099 0.39286 0.78066 0.0
C197 C 0.95084 0.37585 0.92153 0.0
Fe198 Fe 0.7081 0.13502 0.91707 0.0
Fe199 Fe 0.69247 0.16303 0.84241 0.0
O200 O 0.69252 0.13912 0.84123 0.0
Fe201 Fe 0.67693 0.1195 0.76491 0.0
O202 O 0.66276 0.10071 0.84954 0.0
O203 O 0.69005 0.10669 0.92806 0.0
O204 O 0.69433 0.13821 1.00732 0.0
C205 C 0.69333 0.15437 0.02167 0.0
C206 C 0.71451 0.11753 0.77295 0.0
O207 O 0.69727 0.16759 0.96147 0.0
C208 C 0.69031 0.15358 0.66133 0.0
O209 O 0.72919 0.16277 0.91922 0.0
O210 O 0.71998 0.17748 0.81748 0.0
O211 O 0.69548 0.10989 0.75167 0.0
O212 O 0.72262 0.13115 0.83182 0.0
C213 C 0.65094 0.13544 0.82115 0.0
O214 O 0.6875 0.1631 0.72391 0.0
O215 O 0.68999 0.13668 0.67433 0.0
C216 C 0.7339 0.1773 0.86404 0.0
O217 O 0.66493 0.14968 0.86732 0.0
O218 O 0.65554 0.12564 0.7655 0.0
C219 C 0.67103 0.09516 0.90729 0.0
Fe220 Fe 0.91246 0.59203 0.92208 0.0
Fe221 Fe 0.88445 0.54718 0.85647 0.0
O222 O 0.90846 0.5711 0.85396 0.0
Fe223 Fe 0.92859 0.57426 0.7822 0.0
O224 O 0.94599 0.57846 0.87231 0.0
O225 O 0.94078 0.60208 0.93588 0.0
O226 O 0.90844 0.57674 0.01878 0.0
C227 C 0.89225 0.55963 0.03558 0.0
C228 C 0.93148 0.61398 0.7762 0.0
O229 O 0.87996 0.54842 0.97516 0.0
C230 C 0.8946 0.55462 0.67642 0.0
O231 O 0.88498 0.58575 0.92104 0.0
O232 O 0.86988 0.55986 0.82778 0.0
O233 O 0.93965 0.60262 0.76636 0.0
O234 O 0.91668 0.60875 0.8293 0.0
C235 C 0.91138 0.53245 0.84025 0.0
O236 O 0.88469 0.54187 0.73783 0.0
O237 O 0.91227 0.57045 0.68921 0.0
C238 C 0.87021 0.57475 0.86888 0.0
O239 O 0.89739 0.53288 0.88543 0.0
O240 O 0.9215 0.54653 0.78396 0.0
C241 C 0.9517 0.5934 0.92516 0.0
Fe242 Fe 0.45789 0.3384 0.92012 0.0
Fe243 Fe 0.50196 0.35487 0.84617 0.0
O244 O 0.47824 0.35525 0.84872 0.0
Fe245 Fe 0.47472 0.37252 0.78105 0.0
O246 O 0.47079 0.38516 0.8742 0.0
O247 O 0.44735 0.3561 0.93621 0.0
O248 O 0.47425 0.35067 0.01337 0.0
C249 C 0.49177 0.35222 0.02618 0.0
C250 C 0.43506 0.33501 0.77709 0.0
O251 O 0.50156 0.34922 0.96475 0.0
C252 C 0.49444 0.35986 0.66715 0.0
O253 O 0.46444 0.31739 0.91816 0.0
O254 O 0.48855 0.32758 0.81688 0.0
O255 O 0.44634 0.35464 0.76688 0.0
O256 O 0.44043 0.32547 0.82967 0.0
C257 C 0.51704 0.39689 0.83444 0.0
O258 O 0.50656 0.36061 0.72753 0.0
O259 O 0.47848 0.36116 0.68405 0.0
C260 C 0.47444 0.31324 0.86205 0.0
O261 O 0.51703 0.38214 0.87521 0.0
O262 O 0.50235 0.39342 0.78244 0.0
C263 C 0.45587 0.3757 0.9269 0.0
Fe264 Fe 0.36113 0.88153 0.18465 0.0
Fe265 Fe 0.34495 0.90927 0.11081 0.0
O266 O 0.36064 0.90522 0.18613 0.0
Fe267 Fe 0.37582 0.92468 0.26379 0.0
O268 O 0.36189 0.90711 0.35216 0.0
O269 O 0.36555 0.88123 0.30385 0.0
O270 O 0.33353 0.86656 0.20794 0.0
C271 C 0.31945 0.86681 0.16276 0.0
C272 C 0.40232 0.90925 0.20973 0.0
O273 O 0.32383 0.88158 0.10931 0.0
C274 C 0.38231 0.94909 0.12138 0.0
O275 O 0.35658 0.87706 0.06557 0.0
O276 O 0.35822 0.90585 0.01949 0.0
O277 O 0.39713 0.91843 0.26603 0.0
O278 O 0.38875 0.89533 0.1612 0.0
C279 C 0.33854 0.92692 0.2544 0.0
O280 O 0.36329 0.9376 0.09974 0.0
O281 O 0.39042 0.94356 0.18011 0.0
C282 C 0.35879 0.8895 1.00424 0.0
O283 O 0.33048 0.91317 0.19621 0.0
O284 O 0.35756 0.93462 0.27539 0.0
C285 C 0.36107 0.88996 0.36466 0.0
Fe286 Fe 0.14122 0.45463 0.08945 0.0
Fe287 Fe 0.12482 0.46966 0.23937 0.0
O288 O 0.14512 0.47403 0.1665 0.0
Fe289 Fe 0.16928 0.49783 0.16984 0.0
O290 O 0.18328 0.48425 0.19234 0.0
O291 O 0.16888 0.46121 0.08731 0.0
O292 O 0.1369 0.43592 0.17384 0.0
C293 C 0.12264 0.4301 0.23026 0.0
C294 C 0.16108 0.48957 0.98903 0.0
O295 O 0.11454 0.44125 0.24849 0.0
C296 C 0.14219 0.51234 0.19213 0.0
O297 O 0.11289 0.44428 0.07747 0.0
O298 O 0.1073 0.46641 0.15093 0.0
O299 O 0.17417 0.49858 0.05023 0.0
O300 O 0.14495 0.4721 1.00114 0.0
C301 C 0.15819 0.48829 0.34918 0.0
O302 O 0.13152 0.4973 0.244 0.0
O303 O 0.15673 0.51282 0.14751 0.0
C304 C 0.10166 0.45232 0.09418 0.0
O305 O 0.14089 0.47246 0.33166 0.0
O306 O 0.16873 0.50145 0.28991 0.0
C307 C 0.18317 0.47049 0.14373 0.0
Fe308 Fe 0.59551 0.70606 0.11121 0.0
Fe309 Fe 0.55158 0.68984 0.18604 0.0
O310 O 0.57531 0.68947 0.18365 0.0
Fe311 Fe 0.57898 0.67247 0.25252 0.0
O312 O 0.58282 0.65953 0.16031 0.0
O313 O 0.60609 0.68837 0.0964 0.0
O314 O 0.57899 0.69341 0.01874 0.0
C315 C 0.56148 0.69189 1.00597 0.0
C316 C 0.61857 0.7101 0.25433 0.0
O317 O 0.55183 0.69514 0.06721 0.0
C318 C 0.55929 0.68536 0.36536 0.0
O319 O 0.58892 0.72702 0.11168 0.0
O320 O 0.56503 0.71725 0.21376 0.0
O321 O 0.6074 0.6905 0.2658 0.0
O322 O 0.61307 0.71936 0.20084 0.0
C323 C 0.53657 0.64785 0.20024 0.0
O324 O 0.54711 0.68442 0.30488 0.0
O325 O 0.57531 0.68415 0.3487 0.0
C326 C 0.57906 0.73141 0.16758 0.0
O327 O 0.53653 0.66247 0.15853 0.0
O328 O 0.55133 0.65149 0.25218 0.0
C329 C 0.5976 0.66881 0.10689 0.0
Fe330 Fe 0.34413 0.45392 0.09665 0.0
Fe331 Fe 0.35946 0.49719 0.17628 0.0
O332 O 0.35975 0.47343 0.17319 0.0
Fe333 Fe 0.37572 0.4692 0.24586 0.0
O334 O 0.38998 0.46593 0.15719 0.0
O335 O 0.36214 0.44365 0.08442 0.0
O336 O 0.35789 0.47131 1.00786 0.0
C337 C 0.35927 0.48874 0.99553 0.0
C338 C 0.33822 0.42954 0.23757 0.0
O339 O 0.35527 0.49781 0.05674 0.0
C340 C 0.36095 0.48781 0.35561 0.0
O341 O 0.32302 0.46044 0.09486 0.0
O342 O 0.33185 0.48359 0.19951 0.0
O343 O 0.35752 0.44077 0.25541 0.0
O344 O 0.32972 0.4353 0.18152 0.0
C345 C 0.40114 0.51185 0.19788 0.0
O346 O 0.3637 0.50094 0.29625 0.0
O347 O 0.36243 0.47201 0.33832 0.0
C348 C 0.3181 0.4698 0.15126 0.0
O349 O 0.38706 0.5122 0.15326 0.0
O350 O 0.39675 0.49688 0.24999 0.0
C351 C 0.38146 0.45176 0.10077 0.0
Fe352 Fe 0.55067 0.8804 0.19178 0.0
Fe353 Fe 0.57892 0.92415 0.26665 0.0
O354 O 0.57474 0.90427 0.19181 0.0
Fe355 Fe 0.59466 0.90824 0.11742 0.0
O356 O 0.57804 0.90498 0.02648 0.0
O357 O 0.55067 0.87602 0.07206 0.0
O358 O 0.53645 0.89366 0.16816 0.0
C359 C 0.53678 0.90785 0.21451 0.0
C360 C 0.57774 0.86596 0.16953 0.0
O361 O 0.55125 0.91758 0.26977 0.0
C362 C 0.61844 0.92633 0.26047 0.0
O363 O 0.54627 0.88042 0.31153 0.0
O364 O 0.57556 0.90733 0.35706 0.0
O365 O 0.5879 0.88055 0.11508 0.0
O366 O 0.56352 0.86578 0.21535 0.0
C367 C 0.59697 0.94786 0.12335 0.0
O368 O 0.6073 0.93449 0.27696 0.0
O369 O 0.61263 0.91199 0.20469 0.0
C370 C 0.55946 0.89001 0.37185 0.0
O371 O 0.58286 0.94228 0.18029 0.0
O372 O 0.60499 0.93662 0.1058 0.0
C373 C 0.56053 0.88915 1.01181 0.0
Fe374 Fe 0.12499 0.67248 0.24909 0.0
Fe375 Fe 0.16901 0.68899 0.1745 0.0
O376 O 0.14525 0.68929 0.17727 0.0
Fe377 Fe 0.14161 0.70646 0.10936 0.0
O378 O 0.13775 0.71918 0.20238 0.0
O379 O 0.11443 0.69017 0.2652 0.0
O380 O 0.14143 0.68485 0.34204 0.0
C381 C 0.15898 0.68645 0.35464 0.0
C382 C 0.10199 0.66889 0.10642 0.0
O383 O 0.16874 0.68345 0.29312 0.0
C384 C 0.1613 0.69377 0.99548 0.0
O385 O 0.13159 0.6515 0.2472 0.0
O386 O 0.15565 0.66167 0.14568 0.0
O387 O 0.11322 0.68851 0.0958 0.0
O388 O 0.10746 0.65945 0.15903 0.0
C389 C 0.18399 0.73098 0.16187 0.0
O390 O 0.17349 0.69463 0.05576 0.0
O391 O 0.1453 0.69499 1.0125 0.0
C392 C 0.14158 0.64734 0.19107 0.0
O393 O 0.18402 0.7163 0.20306 0.0
O394 O 0.16925 0.72742 0.11002 0.0
C395 C 0.12293 0.70977 0.25557 0.0
H396 H 0.116 0.39572 0.13984 0.0
H397 H 0.07743 0.31735 0.53392 0.0
H398 H 0.10621 0.41524 0.39216 0.0
H399 H 0.04715 0.29729 0.28383 0.0
H400 H 0.09539 0.35354 0.48203 0.0
H401 H 0.09786 0.35941 0.1909 0.0
C402 C 0.11022 0.39236 0.2063 0.0
C403 C 0.11264 0.40843 0.26224 0.0
C404 C 0.08487 0.34117 0.43863 0.0
C405 C 0.09224 0.36719 0.32069 0.0
C406 C 0.07477 0.32056 0.4677 0.0
C407 C 0.06089 0.30436 0.41269 0.0
C408 C 0.08151 0.34553 0.35326 0.0
C409 C 0.05775 0.30938 0.32801 0.0
C410 C 0.09977 0.3717 0.2349 0.0
C411 C 0.10463 0.40325 0.34724 0.0
N412 N 0.0682 0.32957 0.30033 0.0
N413 N 0.09496 0.38303 0.3744 0.0
H414 H 0.74566 0.74494 0.37616 0.0
H415 H 0.64407 0.75231 0.27133 0.0
H416 H 0.74245 0.80069 0.42386 0.0
H417 H 0.64238 0.69389 0.31316 0.0
H418 H 0.68095 0.77097 0.31332 0.0
H419 H 0.70878 0.72673 0.33495 0.0
C420 C 0.73729 0.75344 0.3769 0.0
C421 C 0.74717 0.77438 0.40357 0.0
C422 C 0.67245 0.75407 0.31389 0.0
C423 C 0.70492 0.75356 0.35706 0.0
C424 C 0.65141 0.74341 0.29008 0.0
C425 C 0.64012 0.7215 0.28888 0.0
C426 C 0.68237 0.74275 0.33525 0.0
C427 C 0.65043 0.71077 0.31374 0.0
C428 C 0.71618 0.74297 0.35419 0.0
C429 C 0.73545 0.78453 0.40399 0.0
N430 N 0.67103 0.72151 0.3351 0.0
N431 N 0.71495 0.77403 0.38099 0.0
H432 H 0.28094 1.00301 0.28478 0.0
H433 H 0.33988 0.94342 0.41591 0.0
H434 H 0.27057 0.97384 0.53765 0.0
H435 H 0.31088 0.9334 0.16302 0.0
H436 H 0.32096 0.96124 0.46282 0.0
H437 H 0.29863 0.98398 0.2379 0.0
C438 C 0.28236 0.99259 0.33013 0.0
C439 C 0.27415 0.98979 0.41473 0.0
C440 C 0.31876 0.95502 0.39725 0.0
C441 C 0.29474 0.96869 0.36289 0.0
C442 C 0.32951 0.94493 0.37058 0.0
C443 C 0.32673 0.9368 0.28594 0.0
C444 C 0.30578 0.95754 0.3378 0.0
C445 C 0.31321 0.93923 0.22927 0.0
C446 C 0.29237 0.98177 0.30347 0.0
C447 C 0.27646 0.9762 0.47142 0.0
N448 N 0.30341 0.94962 0.25585 0.0
N449 N 0.28677 0.96632 0.44484 0.0
H450 H 0.30058 0.04336 0.74128 0.0
H451 H 0.41973 0.1025 0.61261 0.0
H452 H 0.32024 0.07289 0.48927 0.0
H453 H 0.4004 0.11211 0.86586 0.0
H454 H 0.383 0.08501 0.56493 0.0
H455 H 0.33731 0.06213 0.78902 0.0
C456 C 0.31261 0.05382 0.69631 0.0
C457 C 0.30744 0.05678 0.61168 0.0
C458 C 0.38694 0.09106 0.63076 0.0
C459 C 0.34914 0.07758 0.66449 0.0
C460 C 0.40777 0.10096 0.65788 0.0
C461 C 0.41303 0.10889 0.74284 0.0
C462 C 0.37134 0.08852 0.69005 0.0
C463 C 0.39699 0.10643 0.79939 0.0
C464 C 0.33345 0.06449 0.72346 0.0
C465 C 0.32359 0.07041 0.5555 0.0
N466 N 0.3768 0.09623 0.77234 0.0
N467 N 0.34377 0.08013 0.58253 0.0
H468 H 0.91316 0.29275 0.75128 0.0
H469 H 0.023 0.30125 0.65537 0.0
H470 H 0.97025 0.35154 0.71615 0.0
H471 H 0.96442 0.24609 0.5927 0.0
H472 H 1.0039 0.31894 0.69677 0.0
H473 H 0.93164 0.27449 0.70779 0.0
C474 C 0.92953 0.30181 0.73363 0.0
C475 C 0.94018 0.32369 0.73718 0.0
C476 C 0.99524 0.30295 0.67416 0.0
C477 C 0.96146 0.30292 0.6893 0.0
C478 C 1.0061 0.29276 0.65132 0.0
C479 C 0.99528 0.27215 0.62042 0.0
C480 C 0.97338 0.29238 0.66724 0.0
C481 C 0.97339 0.26201 0.61588 0.0
C482 C 0.94005 0.29138 0.70898 0.0
C483 C 0.96139 0.33466 0.71372 0.0
N484 N 0.96314 0.27221 0.63919 0.0
N485 N 0.97138 0.32415 0.69165 0.0
H486 H 0.80667 0.73999 0.60701 0.0
H487 H 0.69716 0.63803 0.70804 0.0
H488 H 0.74949 0.7412 0.64455 0.0
H489 H 0.75623 0.64144 0.75664 0.0
H490 H 0.71593 0.67493 0.66731 0.0
H491 H 0.78836 0.70313 0.64896 0.0
C492 C 0.79031 0.73255 0.62492 0.0
C493 C 0.7796 0.74369 0.6224 0.0
C494 C 0.72477 0.66756 0.68661 0.0
C495 C 0.75848 0.70145 0.66867 0.0
C496 C 0.71408 0.64645 0.70901 0.0
C497 C 0.72515 0.63662 0.73585 0.0
C498 C 0.74668 0.67889 0.69001 0.0
C499 C 0.74707 0.6484 0.73661 0.0
C500 C 0.77988 0.71152 0.64866 0.0
C501 C 0.7584 0.73326 0.64617 0.0
N502 N 0.75712 0.66891 0.71398 0.0
N503 N 0.74849 0.71267 0.66748 0.0
H504 H 0.96429 0.73872 0.61189 0.0
H505 H 0.9715 0.63691 0.71399 0.0
H506 H 0.02274 0.74012 0.64962 0.0
H507 H 0.91567 0.64018 0.76035 0.0
H508 H 0.98982 0.67379 0.67248 0.0
H509 H 0.94559 0.70181 0.65294 0.0
C510 C 0.97319 0.73131 0.62963 0.0
C511 C 0.99511 0.74253 0.62751 0.0
C512 C 0.97354 0.66639 0.69144 0.0
C513 C 0.97381 0.70023 0.67277 0.0
C514 C 0.96301 0.6453 0.71427 0.0
C515 C 0.94202 0.63546 0.7408 0.0
C516 C 0.96295 0.67767 0.69411 0.0
C517 C 0.93187 0.64717 0.74065 0.0
C518 C 0.96251 0.71025 0.65285 0.0
C519 C 1.00584 0.73213 0.651 0.0
N520 N 0.94243 0.66765 0.71768 0.0
N521 N 0.99508 0.71151 0.67187 0.0
H522 H 0.31083 0.24352 0.6009 0.0
H523 H 0.4121 0.35201 0.71682 0.0
H524 H 0.3089 0.29976 0.65329 0.0
H525 H 0.40875 0.29286 0.76046 0.0
H526 H 0.37531 0.3334 0.67446 0.0
H527 H 0.34761 0.26155 0.64456 0.0
C528 C 0.3181 0.2596 0.62231 0.0
C529 C 0.30678 0.27015 0.62357 0.0
C530 C 0.38266 0.32451 0.69307 0.0
C531 C 0.34889 0.29094 0.67179 0.0
C532 C 0.40372 0.33511 0.71642 0.0
C533 C 0.41353 0.32397 0.74228 0.0
C534 C 0.37138 0.30261 0.6944 0.0
C535 C 0.40179 0.30206 0.74124 0.0
C536 C 0.33907 0.26987 0.64708 0.0
C537 C 0.31698 0.29098 0.65186 0.0
N538 N 0.38134 0.29209 0.71756 0.0
N539 N 0.33752 0.30076 0.67401 0.0
H540 H 0.71335 0.10151 0.61038 0.0
H541 H 0.77256 0.04182 0.73638 0.0
H542 H 0.74202 0.1107 0.86362 0.0
H543 H 0.78366 0.07242 0.48654 0.0
H544 H 0.7544 0.06032 0.78464 0.0
H545 H 0.73241 0.08393 0.5621 0.0
C546 C 0.72367 0.09986 0.65552 0.0
C547 C 0.72633 0.10772 0.74063 0.0
C548 C 0.76091 0.06295 0.71942 0.0
C549 C 0.74743 0.08722 0.68719 0.0
C550 C 0.77119 0.05244 0.69199 0.0
C551 C 0.77976 0.05583 0.60791 0.0
C552 C 0.75864 0.0763 0.66117 0.0
C553 C 0.77751 0.06964 0.55239 0.0
C554 C 0.7345 0.08991 0.62807 0.0
C555 C 0.73979 0.1051 0.79702 0.0
N556 N 0.76693 0.0792 0.57962 0.0
N557 N 0.74966 0.09484 0.76965 0.0
H558 H 0.64414 0.90974 0.26938 0.0
H559 H 0.74618 0.01892 0.36848 0.0
H560 H 0.64248 0.96614 0.32157 0.0
H561 H 0.74293 0.9602 0.4227 0.0
H562 H 0.70919 0.99993 0.32888 0.0
H563 H 0.6813 0.92807 0.30783 0.0
C564 C 0.65155 0.92592 0.28963 0.0
C565 C 0.6402 0.93642 0.29251 0.0
C566 C 0.71662 0.99122 0.34909 0.0
C567 C 0.68269 0.95753 0.3345 0.0
C568 C 0.73778 1.00202 0.37083 0.0
C569 C 0.74766 0.99112 0.39905 0.0
C570 C 0.70532 0.96936 0.35434 0.0
C571 C 0.73591 0.96922 0.4016 0.0
C572 C 0.67273 0.93635 0.31139 0.0
C573 C 0.65058 0.95738 0.31906 0.0
N574 N 0.71535 0.95904 0.37943 0.0
N575 N 0.67129 0.96731 0.33818 0.0
H576 H 0.03045 0.74401 0.38101 0.0
H577 H 0.1398 0.75188 0.27562 0.0
H578 H 0.08963 0.79979 0.42886 0.0
H579 H 0.08267 0.69328 0.3138 0.0
H580 H 0.12153 0.77034 0.31867 0.0
H581 H 0.04912 0.7259 0.33897 0.0
C582 C 0.04737 0.75253 0.38161 0.0
C583 C 0.0585 0.77346 0.40858 0.0
C584 C 0.11305 0.75345 0.31825 0.0
C585 C 0.07992 0.75276 0.36115 0.0
C586 C 0.12346 0.7429 0.29386 0.0
C587 C 0.11275 0.721 0.29127 0.0
C588 C 0.09168 0.74204 0.33884 0.0
C589 C 0.09158 0.71016 0.31548 0.0
C590 C 0.058 0.74212 0.35842 0.0
C591 C 0.08042 0.78364 0.40879 0.0
N592 N 0.08169 0.72079 0.33744 0.0
N593 N 0.09042 0.77321 0.38537 0.0
H594 H 0.31061 0.39518 0.14637 0.0
H595 H 0.27082 0.3159 0.53693 0.0
H596 H 0.3398 0.41449 0.39879 0.0
H597 H 0.28167 0.29676 0.28567 0.0
H598 H 0.28905 0.35224 0.48679 0.0
H599 H 0.29267 0.35878 0.19603 0.0
C600 C 0.31304 0.39175 0.21258 0.0
C601 C 0.3266 0.4078 0.26895 0.0
C602 C 0.28735 0.34004 0.44277 0.0
C603 C 0.30602 0.36643 0.3258 0.0
C604 C 0.27685 0.31935 0.47085 0.0
C605 C 0.27468 0.30336 0.41497 0.0
C606 C 0.2952 0.34469 0.35751 0.0
C607 C 0.28303 0.30868 0.33051 0.0
C608 C 0.30297 0.37103 0.24038 0.0
C609 C 0.32946 0.40252 0.35358 0.0
N610 N 0.29275 0.32894 0.30378 0.0
N611 N 0.31903 0.38224 0.37997 0.0
H612 H 0.9745 0.35936 0.97886 0.0
H613 H 0.07562 0.46854 0.08838 0.0
H614 H 0.97668 0.41807 0.93814 0.0
H615 H 0.07807 0.41289 0.02843 0.0
H616 H 0.0385 0.45009 0.04955 0.0
H617 H 0.01152 0.37845 0.01781 0.0
C618 C 0.98267 0.37626 0.97929 0.0
C619 C 0.97248 0.38715 0.95512 0.0
C620 C 0.04723 0.44201 0.04433 0.0
C621 C 0.01487 0.40904 0.99906 0.0
C622 C 0.0684 0.45251 0.06629 0.0
C623 C 0.07997 0.44225 0.06146 0.0
C624 C 0.03749 0.42098 0.01892 0.0
C625 C 0.06981 0.42147 0.03255 0.0
C626 C 1.00385 0.38713 1.00066 0.0
C627 C 0.98395 0.40906 0.95607 0.0
N628 N 0.04911 0.41145 0.01323 0.0
N629 N 1.00454 0.4193 0.97778 0.0
H630 H 0.6902 0.63475 0.98226 0.0
H631 H 0.58084 0.62664 0.08948 0.0
H632 H 0.63108 0.57871 0.93688 0.0
H633 H 0.63775 0.68524 0.0476 0.0
H634 H 0.59915 0.60816 0.04732 0.0
H635 H 0.67145 0.65277 0.02441 0.0
C636 C 0.67327 0.62615 0.98226 0.0
C637 C 0.66218 0.60519 0.95587 0.0
C638 C 0.60757 0.62506 0.04676 0.0
C639 C 0.64067 0.62578 1.00339 0.0
C640 C 0.59713 0.63561 0.07064 0.0
C641 C 0.60778 0.65751 0.0719 0.0
C642 C 0.62889 0.63647 0.02536 0.0
C643 C 0.62889 0.66835 0.04696 0.0
C644 C 0.6626 0.63651 1.00549 0.0
C645 C 0.64025 0.59489 0.95645 0.0
N646 N 0.63881 0.65772 0.0255 0.0
N647 N 0.63021 0.60529 0.97987 0.0
H648 H 0.44969 0.06214 0.81695 0.0
H649 H 0.41033 0.98353 0.21103 0.0
H650 H 0.44002 0.08169 0.06952 0.0
H651 H 0.38092 0.96387 0.95909 0.0
H652 H 0.42863 0.01978 0.15978 0.0
H653 H 0.43164 0.02588 0.86808 0.0
C654 C 0.44397 0.05881 0.8835 0.0
C655 C 0.44638 0.07489 0.93942 0.0
C656 C 0.41822 0.00748 0.11587 0.0
C657 C 0.42606 0.03365 0.99796 0.0
C658 C 0.40792 0.98684 0.14458 0.0
C659 C 0.39416 0.97073 0.08889 0.0
C660 C 0.41519 0.01196 0.03021 0.0
C661 C 0.39139 0.97588 1.00388 0.0
C662 C 0.43357 0.03816 0.91215 0.0
C663 C 0.43845 0.0697 0.02456 0.0
N664 N 0.40201 0.99609 0.97664 0.0
N665 N 0.4288 0.04949 0.05172 0.0
H666 H 0.64326 0.06062 0.81754 0.0
H667 H 0.60361 0.98237 0.21249 0.0
H668 H 0.67248 0.08049 0.06969 0.0
H669 H 0.61348 0.96249 0.96112 0.0
H670 H 0.62184 0.01859 0.16077 0.0
H671 H 0.62508 0.02438 0.86905 0.0
C672 C 0.64566 0.05736 0.88406 0.0
C673 C 0.65931 0.07352 0.93977 0.0
C674 C 0.61992 0.00625 0.11708 0.0
C675 C 0.63843 0.03231 0.99876 0.0
C676 C 0.60941 0.98563 0.14606 0.0
C677 C 0.607 0.96948 0.09063 0.0
C678 C 0.62753 0.01065 0.0314 0.0
C679 C 0.61506 0.97454 1.00566 0.0
C680 C 0.63543 0.03672 0.91293 0.0
C681 C 0.66209 0.06844 0.0249 0.0
N682 N 0.6248 0.99474 0.97811 0.0
N683 N 0.65153 0.04824 0.0523 0.0
H684 H 0.07903 0.68571 0.04396 0.0
H685 H 0.97698 0.57651 0.94218 0.0
H686 H 0.07557 0.62669 0.09312 0.0
H687 H 0.97578 0.63354 0.98312 0.0
H688 H 0.01392 0.59473 0.98333 0.0
H689 H 0.04213 0.66698 1.00307 0.0
C690 C 0.0706 0.66881 0.04508 0.0
C691 C 0.0804 0.65775 0.07213 0.0
C692 C 1.00551 0.60319 0.98389 0.0
C693 C 0.03814 0.63625 0.026 0.0
C694 C 0.98444 0.59281 0.96058 0.0
C695 C 0.97327 0.60351 0.95937 0.0
C696 C 0.01558 0.62451 1.00472 0.0
C697 C 0.98373 0.62463 0.98373 0.0
C698 C 0.04948 0.65814 0.02255 0.0
C699 C 0.06861 0.63584 0.07298 0.0
N700 N 1.00434 0.63449 1.0046 0.0
N701 N 0.0481 0.62581 0.05019 0.0
H702 H 0.42383 0.46806 0.09469 0.0
H703 H 0.41553 0.35897 0.98405 0.0
H704 H 0.36551 0.41225 0.03579 0.0
H705 H 0.47242 0.41782 0.94622 0.0
H706 H 0.39755 0.37791 0.02374 0.0
H707 H 0.44249 0.44965 0.05636 0.0
C708 C 0.41497 0.452 0.07293 0.0
C709 C 0.39308 0.44169 0.06823 0.0
C710 C 0.41399 0.38666 1.00712 0.0
C711 C 0.41428 0.42046 0.02624 0.0
C712 C 0.42433 0.37587 0.98535 0.0
C713 C 0.44552 0.38685 0.96169 0.0
C714 C 0.42498 0.40857 1.00637 0.0
C715 C 0.45606 0.40875 0.96373 0.0
C716 C 0.42562 0.44151 0.05127 0.0
C717 C 0.38239 0.42087 0.03976 0.0
N718 N 0.44568 0.41891 0.98571 0.0
N719 N 0.39308 0.41088 0.02067 0.0
H720 H 0.1027 0.26548 0.64684 0.0
H721 H 0.17316 0.22617 0.40885 0.0
H722 H 0.0839 0.22555 0.42006 0.0
H723 H 0.19262 0.26322 0.64406 0.0
H724 H 0.14171 0.22873 0.40633 0.0
H725 H 0.13689 0.26767 0.64147 0.0
C726 C 0.10579 0.25731 0.59561 0.0
C727 C 0.09031 0.24516 0.53428 0.0
C728 C 0.15284 0.23639 0.45847 0.0
C729 C 0.12933 0.2476 0.52782 0.0
C730 C 0.17086 0.23492 0.46 0.0
C731 C 0.18551 0.24431 0.52732 0.0
C732 C 0.14924 0.24727 0.52491 0.0
C733 C 0.18172 0.25565 0.59112 0.0
C734 C 0.12529 0.25853 0.59273 0.0
C735 C 0.09522 0.23493 0.46933 0.0
N736 N 0.16386 0.25669 0.58874 0.0
N737 N 0.11421 0.23633 0.46809 0.0
H738 H 0.78528 0.94804 0.6328 0.0
H739 H 0.82442 0.87702 0.39903 0.0
H740 H 0.82498 0.96626 0.40485 0.0
H741 H 0.78607 0.85751 0.63112 0.0
H742 H 0.82211 0.9086 0.39498 0.0
H743 H 0.78278 0.91375 0.62826 0.0
C744 C 0.79334 0.94481 0.58148 0.0
C745 C 0.80552 0.96016 0.5196 0.0
C746 C 0.8141 0.89742 0.44672 0.0
C747 C 0.80273 0.921 0.51411 0.0
C748 C 0.81542 0.87932 0.44911 0.0
C749 C 0.80559 0.86462 0.51604 0.0
C750 C 0.80294 0.90104 0.51192 0.0
C751 C 0.79397 0.86844 0.5785 0.0
C752 C 0.79193 0.92524 0.57905 0.0
C753 C 0.81558 0.95505 0.45453 0.0
N754 N 0.7931 0.88636 0.57533 0.0
N755 N 0.81403 0.93601 0.4538 0.0
H756 H 0.08509 0.87525 0.40328 0.0
H757 H 0.19345 0.94882 0.64661 0.0
H758 H 0.10268 0.8571 0.64164 0.0
H759 H 0.17336 0.96508 0.40999 0.0
H760 H 0.16193 0.91414 0.64178 0.0
H761 H 0.11895 0.90707 0.40019 0.0
C762 C 0.09613 0.8779 0.45493 0.0
C763 C 0.09091 0.86353 0.52332 0.0
C764 C 0.16454 0.92529 0.59076 0.0
C765 C 0.12993 0.90023 0.52042 0.0
C766 C 0.18253 0.94508 0.5934 0.0
C767 C 0.18598 0.96 0.52911 0.0
C768 C 0.14997 0.92041 0.52322 0.0
C769 C 0.1713 0.95423 0.4616 0.0
C770 C 0.11553 0.89613 0.4531 0.0
C771 C 0.10601 0.86777 0.58782 0.0
N772 N 0.15398 0.935 0.46073 0.0
N773 N 0.12479 0.88584 0.58523 0.0
H774 H 0.22916 0.16858 0.61468 0.0
H775 H 0.2683 0.09791 0.37789 0.0
H776 H 0.26801 0.18886 0.38409 0.0
H777 H 0.22912 0.0798 0.60745 0.0
H778 H 0.27084 0.13225 0.38309 0.0
H779 H 0.23151 0.13705 0.61732 0.0
C780 C 0.23827 0.16644 0.56458 0.0
C781 C 0.24823 0.18135 0.49852 0.0
C782 C 0.2618 0.12076 0.43249 0.0
C783 C 0.25094 0.14497 0.50097 0.0
C784 C 0.26037 0.10117 0.42967 0.0
C785 C 0.2483 0.08584 0.49181 0.0
C786 C 0.25115 0.12501 0.49807 0.0
C787 C 0.2384 0.09098 0.55748 0.0
C788 C 0.23962 0.14838 0.56618 0.0
C789 C 0.26001 0.17776 0.43607 0.0
N790 N 0.23998 0.11002 0.55856 0.0
N791 N 0.2609 0.15983 0.43838 0.0
H792 H 0.88152 0.07958 0.61368 0.0
H793 H 0.95286 0.19083 0.38722 0.0
H794 H 0.8625 0.09882 0.38226 0.0
H795 H 0.96987 0.16956 0.61838 0.0
H796 H 0.91871 0.15864 0.38849 0.0
H797 H 0.91288 0.11374 0.62054 0.0
C798 C 0.8839 0.09102 0.56427 0.0
C799 C 0.86939 0.0862 0.49677 0.0
C800 C 0.9299 0.16112 0.43915 0.0
C801 C 0.90556 0.12561 0.50419 0.0
C802 C 0.94938 0.17951 0.43859 0.0
C803 C 0.96437 0.18285 0.50232 0.0
C804 C 0.92538 0.14602 0.504 0.0
C805 C 0.95895 0.16763 0.56734 0.0
C806 C 0.90186 0.1106 0.56832 0.0
C807 C 0.87328 0.10182 0.43529 0.0
N808 N 0.94001 0.14991 0.56617 0.0
N809 N 0.89109 0.12079 0.44006 0.0
H810 H 0.97269 0.82376 0.61429 0.0
H811 H 0.86001 0.77941 0.39576 0.0
H812 H 0.95108 0.77989 0.40055 0.0
H813 H 0.88394 0.82472 0.60415 0.0
H814 H 0.8919 0.77715 0.40248 0.0
H815 H 0.93897 0.82199 0.61763 0.0
C816 C 0.96082 0.81367 0.56812 0.0
C817 C 0.96485 0.8021 0.50647 0.0
C818 C 0.89009 0.7875 0.44694 0.0
C819 C 0.92599 0.80004 0.50986 0.0
C820 C 0.87188 0.78878 0.44326 0.0
C821 C 0.86933 0.80242 0.49897 0.0
C822 C 0.90584 0.79989 0.50692 0.0
C823 C 0.88524 0.81413 0.5593 0.0
C824 C 0.94151 0.81266 0.57012 0.0
C825 C 0.94871 0.78915 0.44899 0.0
N826 N 0.90278 0.81265 0.56135 0.0
N827 N 0.93004 0.78857 0.45168 0.0
H828 H 0.86069 0.59971 0.96939 0.0
H829 H 0.74974 0.55835 0.73896 0.0
H830 H 0.83797 0.55665 0.75284 0.0
H831 H 0.7694 0.59883 0.96406 0.0
H832 H 0.78358 0.56041 0.73616 0.0
H833 H 0.82899 0.60233 0.96177 0.0
C834 C 0.84914 0.59093 0.9199 0.0
C835 C 0.85194 0.57778 0.8622 0.0
C836 C 0.78059 0.56894 0.78606 0.0
C837 C 0.81568 0.58072 0.85318 0.0
C838 C 0.76121 0.56776 0.78773 0.0
C839 C 0.75659 0.57826 0.85244 0.0
C840 C 0.79558 0.58065 0.84972 0.0
C841 C 0.77223 0.5904 0.91323 0.0
C842 C 0.83104 0.59241 0.91572 0.0
C843 C 0.83644 0.56682 0.79933 0.0
N844 N 0.79099 0.59114 0.9108 0.0
N845 N 0.81901 0.56848 0.79681 0.0
H846 H 0.49031 0.29838 0.73898 0.0
H847 H 0.45242 0.18873 0.97604 0.0
H848 H 0.45241 0.27972 0.97232 0.0
H849 H 0.49187 0.21029 0.74734 0.0
H850 H 0.44963 0.22036 0.97104 0.0
H851 H 0.48831 0.26462 0.73593 0.0
C852 C 0.48147 0.28714 0.78954 0.0
C853 C 0.47169 0.29202 0.85653 0.0
C854 C 0.45879 0.21807 0.9218 0.0
C855 C 0.46939 0.25311 0.85362 0.0
C856 C 0.46037 0.20001 0.92452 0.0
C857 C 0.47257 0.19691 0.86252 0.0
C858 C 0.46942 0.23306 0.85643 0.0
C859 C 0.48248 0.21206 0.79717 0.0
C860 C 0.48033 0.2678 0.78774 0.0
C861 C 0.46027 0.27666 0.91962 0.0
N862 N 0.48075 0.22943 0.79613 0.0
N863 N 0.45957 0.25794 0.91704 0.0
H864 H 0.76707 0.18785 0.97523 0.0
H865 H 0.83749 0.29914 0.74762 0.0
H866 H 0.74953 0.2089 0.7449 0.0
H867 H 0.85816 0.27931 0.97221 0.0
H868 H 0.80599 0.26504 0.74254 0.0
H869 H 0.80129 0.22002 0.97221 0.0
C870 C 0.77044 0.19911 0.92374 0.0
C871 C 0.75529 0.19573 0.86077 0.0
C872 C 0.81741 0.26803 0.79285 0.0
C873 C 0.79431 0.2325 0.85705 0.0
C874 C 0.83544 0.28758 0.79587 0.0
C875 C 0.85045 0.29221 0.86094 0.0
C876 C 0.81415 0.25289 0.85567 0.0
C877 C 0.84698 0.27645 0.92104 0.0
C878 C 0.78995 0.21748 0.92214 0.0
C879 C 0.76056 0.21087 0.79547 0.0
N880 N 0.8291 0.25753 0.9174 0.0
N881 N 0.77952 0.22855 0.79567 0.0
H882 H 0.89437 0.50117 0.96113 0.0
H883 H 0.93485 0.43093 0.73086 0.0
H884 H 0.93418 0.52131 0.73336 0.0
H885 H 0.89385 0.4118 0.95483 0.0
H886 H 0.93721 0.46512 0.73606 0.0
H887 H 0.89648 0.46947 0.96523 0.0
C888 C 0.90364 0.49898 0.91202 0.0
C889 C 0.91395 0.51389 0.84626 0.0
C890 C 0.9278 0.45345 0.78427 0.0
C891 C 0.91639 0.47738 0.8505 0.0
C892 C 0.92646 0.43394 0.78145 0.0
C893 C 0.91398 0.41836 0.84203 0.0
C894 C 0.91661 0.45743 0.84823 0.0
C895 C 0.90351 0.4232 0.90622 0.0
C896 C 0.90484 0.48082 0.91445 0.0
C897 C 0.9259 0.51021 0.78503 0.0
N898 N 0.90499 0.44222 0.90731 0.0
N899 N 0.92667 0.49225 0.78825 0.0
H900 H 0.54951 0.41043 0.94906 0.0
H901 H 0.61692 0.52358 0.73288 0.0
H902 H 0.52698 0.43173 0.73565 0.0
H903 H 0.63809 0.50064 0.94527 0.0
H904 H 0.58296 0.4913 0.73855 0.0
H905 H 0.58106 0.44455 0.9542 0.0
C906 C 0.55115 0.42231 0.90332 0.0
C907 C 0.5356 0.41809 0.84125 0.0
C908 C 0.59502 0.49342 0.78418 0.0
C909 C 0.57191 0.45739 0.84673 0.0
C910 C 0.61441 0.51186 0.7811 0.0
C911 C 0.63049 0.51479 0.83818 0.0
C912 C 0.5917 0.47782 0.84483 0.0
C913 C 0.62628 0.49905 0.89937 0.0
C914 C 0.56921 0.44184 0.90638 0.0
C915 C 0.53858 0.43423 0.78437 0.0
N916 N 0.60738 0.48126 0.90072 0.0
N917 N 0.55646 0.45313 0.78806 0.0
H918 H 0.63459 0.14841 0.94937 0.0
H919 H 0.52716 0.11521 0.70199 0.0
H920 H 0.61848 0.11532 0.7041 0.0
H921 H 0.54664 0.14999 0.94299 0.0
H922 H 0.55869 0.11213 0.7056 0.0
H923 H 0.60066 0.14602 0.95242 0.0
C924 C 0.62386 0.14054 0.89612 0.0
C925 C 0.62952 0.13224 0.82588 0.0
C926 C 0.55594 0.12031 0.75782 0.0
C927 C 0.59038 0.12953 0.82874 0.0
C928 C 0.53794 0.12205 0.75592 0.0
C929 C 0.53432 0.13306 0.82182 0.0
C930 C 0.57032 0.12958 0.82632 0.0
C931 C 0.54883 0.14156 0.89016 0.0
C932 C 0.60441 0.13917 0.89793 0.0
C933 C 0.61479 0.12199 0.7594 0.0
N934 N 0.56615 0.13971 0.89033 0.0
N935 N 0.59594 0.12108 0.76204 0.0
H936 H 0.50764 0.89506 0.08603 0.0
H937 H 0.43424 0.93002 0.32856 0.0
H938 H 0.52474 0.92845 0.3306 0.0
H939 H 0.41945 0.89607 0.08553 0.0
H940 H 0.4686 0.93246 0.32695 0.0
H941 H 0.47656 0.89819 0.08113 0.0
C942 C 0.50488 0.90312 0.13882 0.0
C943 C 0.51874 0.91129 0.20939 0.0
C944 C 0.45785 0.92462 0.27381 0.0
C945 C 0.48286 0.91489 0.20432 0.0
C946 C 0.43826 0.92325 0.27456 0.0
C947 C 0.42383 0.91262 0.20754 0.0
C948 C 0.463 0.91535 0.2054 0.0
C949 C 0.42991 0.90419 0.1392 0.0
C950 C 0.48708 0.90494 0.1359 0.0
C951 C 0.51443 0.92183 0.27515 0.0
N952 N 0.44892 0.90566 0.1402 0.0
N953 N 0.49674 0.92318 0.27146 0.0
H954 H 0.15766 0.63258 0.06846 0.0
H955 H 0.11854 0.52214 0.30089 0.0
H956 H 0.11937 0.61368 0.30071 0.0
H957 H 0.1591 0.54449 0.07565 0.0
H958 H 0.11601 0.55395 0.29712 0.0
H959 H 0.15556 0.59879 0.06493 0.0
C960 C 0.14872 0.62128 0.1187 0.0
C961 C 0.13884 0.62611 0.18549 0.0
C962 C 0.12537 0.55179 0.24839 0.0
C963 C 0.13644 0.58714 0.18201 0.0
C964 C 0.12679 0.53363 0.2504 0.0
C965 C 0.13921 0.53069 0.18899 0.0
C966 C 0.13636 0.56703 0.18429 0.0
C967 C 0.14951 0.5461 0.12497 0.0
C968 C 0.14752 0.60192 0.11663 0.0
C969 C 0.1273 0.61068 0.24817 0.0
N970 N 0.14791 0.56355 0.12457 0.0
N971 N 0.12654 0.59192 0.2453 0.0
H972 H 0.50487 0.63374 0.08191 0.0
H973 H 0.43477 0.52183 0.30569 0.0
H974 H 0.52578 0.61356 0.30461 0.0
H975 H 0.41623 0.54422 0.08259 0.0
H976 H 0.46901 0.55398 0.30268 0.0
H977 H 0.47322 0.59978 0.07732 0.0
C978 C 0.50284 0.62214 0.12986 0.0
C979 C 0.51798 0.62664 0.19425 0.0
C980 C 0.45745 0.55175 0.25422 0.0
C981 C 0.48148 0.58744 0.18953 0.0
C982 C 0.43791 0.53339 0.25581 0.0
C983 C 0.42248 0.53036 0.19484 0.0
C984 C 0.46155 0.56711 0.19108 0.0
C985 C 0.42749 0.54589 0.13158 0.0
C986 C 0.48472 0.60266 0.12714 0.0
C987 C 0.51451 0.61081 0.25397 0.0
N988 N 0.44647 0.56354 0.13168 0.0
N989 N 0.49654 0.59195 0.25059 0.0
H990 H 0.60182 0.76473 0.05731 0.0
H991 H 0.5624 0.83528 0.2925 0.0
H992 H 0.56279 0.74667 0.28731 0.0
H993 H 0.59989 0.8548 0.058 0.0
H994 H 0.56507 0.80396 0.29619 0.0
H995 H 0.60392 0.79884 0.06102 0.0
C996 C 0.59383 0.76796 0.10892 0.0
C997 C 0.58195 0.7527 0.17167 0.0
C998 C 0.57281 0.81507 0.24393 0.0
C999 C 0.58429 0.79165 0.17615 0.0
C1000 C 0.57127 0.83302 0.24169 0.0
C1001 C 0.58075 0.84765 0.17426 0.0
C1002 C 0.58385 0.81149 0.17807 0.0
C1003 C 0.59225 0.8439 0.11099 0.0
C1004 C 0.59501 0.78742 0.11085 0.0
C1005 C 0.57197 0.75781 0.23703 0.0
N1006 N 0.59335 0.82609 0.11404 0.0
N1007 N 0.5733 0.77675 0.23726 0.0
H1008 H 0.28589 0.85663 0.05449 0.0
H1009 H 0.21572 0.74501 0.28012 0.0
H1010 H 0.30427 0.83477 0.2798 0.0
H1011 H 0.19473 0.7653 0.05799 0.0
H1012 H 0.24739 0.77899 0.28466 0.0
H1013 H 0.25163 0.82455 0.05824 0.0
C1014 C 0.2827 0.8452 0.10504 0.0
C1015 C 0.2981 0.84835 0.1664 0.0
C1016 C 0.23587 0.77612 0.23501 0.0
C1017 C 0.25901 0.81166 0.17095 0.0
C1018 C 0.21773 0.75665 0.23231 0.0
C1019 C 0.20258 0.75218 0.16807 0.0
C1020 C 0.23908 0.79135 0.17273 0.0
C1021 C 0.20602 0.76803 0.10851 0.0
C1022 C 0.26316 0.82688 0.10704 0.0
C1023 C 0.29305 0.83299 0.23048 0.0
N1024 N 0.224 0.78687 0.11185 0.0
N1025 N 0.27404 0.81535 0.23075 0.0
H1026 H 0.30143 0.48271 0.27835 0.0
H1027 H 0.19433 0.44924 0.02747 0.0
H1028 H 0.28595 0.44985 0.03254 0.0
H1029 H 0.21346 0.48418 0.26813 0.0
H1030 H 0.22599 0.44638 0.03198 0.0
H1031 H 0.2675 0.48031 0.2798 0.0
C1032 C 0.29084 0.4749 0.22461 0.0
C1033 C 0.29669 0.46667 0.15471 0.0
C1034 C 0.22314 0.45456 0.08391 0.0
C1035 C 0.25753 0.46393 0.15577 0.0
C1036 C 0.20507 0.45617 0.08149 0.0
C1037 C 0.2013 0.46715 0.14707 0.0
C1038 C 0.23744 0.46391 0.1526 0.0
C1039 C 0.21575 0.47577 0.21554 0.0
C1040 C 0.27139 0.47352 0.22551 0.0
C1041 C 0.28213 0.45649 0.08758 0.0
N1042 N 0.23313 0.47403 0.21624 0.0
N1043 N 0.26326 0.45556 0.08936 0.0
H1044 H 0.05835 0.24975 0.24075 0.0
H1045 H 0.00825 0.18967 0.793 0.0
H1046 H 1.0034 0.18864 0.23672 0.0
H1047 H 0.05705 0.25388 0.81822 0.0
H1048 H 0.00973 0.18541 0.95255 0.0
H1049 H 0.06228 0.24753 0.08412 0.0
C1050 C 0.04734 0.23565 0.20664 0.0
C1051 C 0.03055 0.21939 0.25117 0.0
C1052 C 0.02027 0.20031 0.92263 0.0
C1053 C 0.03437 0.21696 0.07066 0.0
C1054 C 0.01946 0.2027 0.83191 0.0
C1055 C 0.03236 0.22222 0.7931 0.0
C1056 C 0.0343 0.2175 0.97358 0.0
C1057 C 0.04661 0.23865 0.84588 0.0
C1058 C 0.04947 0.2344 0.11705 0.0
C1059 C 0.01664 0.20145 0.20428 0.0
N1060 N 0.04712 0.23593 0.93298 0.0
N1061 N 0.01863 0.20083 0.11586 0.0
H1062 H 0.84366 0.85681 0.23627 0.0
H1063 H 0.83155 0.79785 0.78277 0.0
H1064 H 0.82568 0.7921 0.20531 0.0
H1065 H 0.83789 0.85886 0.79241 0.0
H1066 H 0.83776 0.79951 0.93919 0.0
H1067 H 0.84889 0.86144 0.07646 0.0
C1068 C 0.84117 0.84373 0.19606 0.0
C1069 C 0.83399 0.82399 0.23352 0.0
C1070 C 0.8381 0.81274 0.90753 0.0
C1071 C 0.84008 0.82913 0.05258 0.0
C1072 C 0.8347 0.81182 0.81805 0.0
C1073 C 0.83421 0.82822 0.77513 0.0
C1074 C 0.84056 0.83 0.95547 0.0
C1075 C 0.8383 0.84596 0.82355 0.0
C1076 C 0.84406 0.84634 0.10518 0.0
C1077 C 0.83092 0.80751 0.17893 0.0
N1078 N 0.84097 0.84627 0.91185 0.0
N1079 N 0.83391 0.81045 0.09173 0.0
H1080 H 0.19166 1.00293 0.23549 0.0
H1081 H 0.25224 0.05473 0.78979 0.0
H1082 H 0.25564 0.05253 0.21245 0.0
H1083 H 0.19122 0.99962 0.792 0.0
H1084 H 0.24972 0.05825 0.94654 0.0
H1085 H 0.18757 1.00489 0.0761 0.0
C1086 C 0.20466 0.01443 0.19709 0.0
C1087 C 0.22408 0.02742 0.2364 0.0
C1088 C 0.23667 0.0455 0.91317 0.0
C1089 C 0.21957 0.02989 0.05612 0.0
C1090 C 0.23809 0.0436 0.8235 0.0
C1091 C 0.22194 0.02689 0.77843 0.0
C1092 C 0.21918 0.03023 0.95905 0.0
C1093 C 0.20393 0.01281 0.82485 0.0
C1094 C 0.20238 0.01551 0.10646 0.0
C1095 C 0.24049 0.04203 0.18432 0.0
N1096 N 0.20316 0.01457 0.91331 0.0
N1097 N 0.23789 0.04279 0.09727 0.0
H1098 H 0.99779 0.79679 0.79053 0.0
H1099 H 0.04546 0.85589 0.24284 0.0
H1100 H 0.0528 0.85781 0.79899 0.0
H1101 H 0.99744 0.79149 0.21326 0.0
H1102 H 0.04487 0.86046 0.08306 0.0
H1103 H 0.99327 0.79856 0.94698 0.0
C1104 C 0.0087 0.81078 0.82557 0.0
C1105 C 0.02567 0.82715 0.7823 0.0
C1106 C 0.0343 0.84545 0.11208 0.0
C1107 C 0.02114 0.82907 0.96271 0.0
C1108 C 0.03459 0.84288 0.20295 0.0
C1109 C 0.02165 0.82323 0.24075 0.0
C1110 C 0.02074 0.8283 0.05984 0.0
C1111 C 1.00789 0.80683 0.18657 0.0
C1112 C 1.00623 0.81177 0.91508 0.0
C1113 C 0.03943 0.84493 0.83042 0.0
N1114 N 1.00786 0.80972 0.09936 0.0
N1115 N 0.03709 0.84531 0.91874 0.0
H1116 H 0.19255 0.20646 0.24041 0.0
H1117 H 0.25216 0.21709 0.78955 0.0
H1118 H 0.25738 0.22437 0.21155 0.0
H1119 H 0.1913 0.21131 0.79638 0.0
H1120 H 0.25013 0.21105 0.94626 0.0
H1121 H 0.1881 0.20065 0.08088 0.0
C1122 C 0.20569 0.20883 0.20072 0.0
C1123 C 0.22541 0.21615 0.23857 0.0
C1124 C 0.23701 0.21079 0.91389 0.0
C1125 C 0.22047 0.20938 0.0581 0.0
C1126 C 0.23814 0.21409 0.82426 0.0
C1127 C 0.2219 0.21471 0.78051 0.0
C1128 C 0.21971 0.20859 0.96106 0.0
C1129 C 0.20408 0.2108 0.8282 0.0
C1130 C 0.20318 0.20559 0.11002 0.0
C1131 C 0.24198 0.21903 0.18474 0.0
N1132 N 0.20358 0.20826 0.91661 0.0
N1133 N 0.23914 0.21571 0.09771 0.0
H1134 H 0.83682 0.05818 0.21791 0.0
H1135 H 0.84211 1.00119 0.7822 0.0
H1136 H 0.837 1.00017 0.22591 0.0
H1137 H 0.82592 0.04945 0.7957 0.0
H1138 H 0.84857 1.00469 0.94116 0.0
H1139 H 0.84195 0.05967 0.06047 0.0
C1140 C 0.8383 0.04591 0.1862 0.0
C1141 C 0.83639 0.02899 0.23434 0.0
C1142 C 0.84395 0.01471 0.90877 0.0
C1143 C 0.8417 0.03023 0.05338 0.0
C1144 C 0.84043 0.01284 0.81828 0.0
C1145 C 0.83341 0.02502 0.77635 0.0
C1146 C 0.84073 0.0291 0.95645 0.0
C1147 C 0.8312 0.03969 0.82579 0.0
C1148 C 0.84113 0.04669 0.09628 0.0
C1149 C 0.83845 0.01349 0.19058 0.0
N1150 N 0.83477 0.04126 0.91291 0.0
N1151 N 0.8407 0.01429 0.10192 0.0
H1152 H 0.71622 0.54284 0.12288 0.0
H1153 H 0.65896 0.55086 0.5529 0.0
H1154 H 0.66753 0.55854 0.13037 0.0
H1155 H 0.71409 0.54531 0.5668 0.0
H1156 H 0.65787 0.54582 0.39582 0.0
H1157 H 0.71207 0.53648 0.282 0.0
C1158 C 0.70434 0.54442 0.15768 0.0
C1159 C 0.69223 0.55129 0.11403 0.0
C1160 C 0.67016 0.54548 0.4327 0.0
C1161 C 0.68745 0.54416 0.29435 0.0
C1162 C 0.67072 0.5483 0.52252 0.0
C1163 C 0.68672 0.54866 0.57237 0.0
C1164 C 0.68597 0.5434 0.39138 0.0
C1165 C 0.7015 0.54512 0.53018 0.0
C1166 C 0.70208 0.54095 0.24828 0.0
C1167 C 0.67725 0.55339 0.16182 0.0
N1168 N 0.70099 0.54295 0.44149 0.0
N1169 N 0.67537 0.54994 0.24904 0.0
H1170 H 0.4682 0.16153 0.56258 0.0
H1171 H 0.52904 0.17003 0.11831 0.0
H1172 H 0.52928 0.16779 0.56151 0.0
H1173 H 0.46553 0.15699 0.13955 0.0
H1174 H 0.53302 0.17608 0.27773 0.0
H1175 H 0.47089 0.16765 0.40593 0.0
C1176 C 0.4824 0.16464 0.52913 0.0
C1177 C 0.49851 0.16414 0.5745 0.0
C1178 C 0.51835 0.17219 0.24698 0.0
C1179 C 0.50148 0.17035 0.39396 0.0
C1180 C 0.51613 0.16882 0.15633 0.0
C1181 C 0.49686 0.16277 0.11653 0.0
C1182 C 0.50124 0.16972 0.29686 0.0
C1183 C 0.48055 0.16134 0.16811 0.0
C1184 C 0.48392 0.168 0.43951 0.0
C1185 C 0.51659 0.1682 0.52842 0.0
N1186 N 0.48309 0.16468 0.25522 0.0
N1187 N 0.51746 0.17077 0.43999 0.0
H1188 H 0.87608 0.37256 0.1239 0.0
H1189 H 0.88808 0.32541 0.57623 0.0
H1190 H 0.89377 0.32566 0.15362 0.0
H1191 H 0.88149 0.37992 0.56773 0.0
H1192 H 0.88187 0.32091 0.41979 0.0
H1193 H 0.87078 0.3718 0.28371 0.0
C1194 C 0.87849 0.3619 0.16384 0.0
C1195 C 0.88561 0.34933 0.12606 0.0
C1196 C 0.88148 0.33375 0.4517 0.0
C1197 C 0.87945 0.34822 0.30697 0.0
C1198 C 0.88489 0.33621 0.54119 0.0
C1199 C 0.8853 0.35304 0.58443 0.0
C1200 C 0.87896 0.34854 0.40408 0.0
C1201 C 0.88115 0.36666 0.53633 0.0
C1202 C 0.87556 0.36152 0.25472 0.0
C1203 C 0.88858 0.33583 0.18028 0.0
N1204 N 0.87848 0.36434 0.44802 0.0
N1205 N 0.88556 0.3357 0.26749 0.0
H1206 H 0.71408 0.19078 0.11683 0.0
H1207 H 0.65778 0.13013 0.557 0.0
H1208 H 0.6648 0.12658 0.13342 0.0
H1209 H 0.71736 0.18703 0.5592 0.0
H1210 H 0.65564 0.13357 0.39967 0.0
H1211 H 0.71128 0.19415 0.27598 0.0
C1212 C 0.70234 0.17761 0.15366 0.0
C1213 C 0.68967 0.15835 0.11252 0.0
C1214 C 0.6691 0.14551 0.43427 0.0
C1215 C 0.6864 0.16205 0.29288 0.0
C1216 C 0.67026 0.14358 0.52406 0.0
C1217 C 0.68779 0.15828 0.57041 0.0
C1218 C 0.68577 0.16211 0.38985 0.0
C1219 C 0.70357 0.17543 0.52521 0.0
C1220 C 0.70087 0.17948 0.24424 0.0
C1221 C 0.67492 0.14165 0.1629 0.0
N1222 N 0.70235 0.17676 0.43677 0.0
N1223 N 0.67374 0.14387 0.25019 0.0
H1224 H 0.87663 0.52235 0.12626 0.0
H1225 H 0.88975 0.5819 0.57889 0.0
H1226 H 0.89442 0.58703 0.156 0.0
H1227 H 0.88184 0.52024 0.56992 0.0
H1228 H 0.88345 0.58026 0.42258 0.0
H1229 H 0.87145 0.51787 0.28611 0.0
C1230 C 0.87907 0.53545 0.16621 0.0
C1231 C 0.88619 0.55514 0.12843 0.0
C1232 C 0.8828 0.5669 0.45434 0.0
C1233 C 0.8802 0.55018 0.30944 0.0
C1234 C 0.88626 0.56781 0.54377 0.0
C1235 C 0.88632 0.55121 0.58686 0.0
C1236 C 0.87985 0.54942 0.40658 0.0
C1237 C 0.88178 0.53331 0.53865 0.0
C1238 C 0.87621 0.53293 0.25713 0.0
C1239 C 0.88921 0.57166 0.18267 0.0
N1240 N 0.87906 0.53299 0.45038 0.0
N1241 N 0.88628 0.56881 0.26994 0.0
H1242 H 0.49721 0.38459 0.12381 0.0
H1243 H 0.50936 0.33763 0.57631 0.0
H1244 H 0.50396 0.33019 0.13263 0.0
H1245 H 0.49283 0.38538 0.54676 0.0
H1246 H 0.51443 0.33817 0.41642 0.0
H1247 H 0.50356 0.38924 0.28009 0.0
C1248 C 0.50045 0.37384 0.1589 0.0
C1249 C 0.50006 0.35701 0.11577 0.0
C1250 C 0.50997 0.34869 0.44545 0.0
C1251 C 0.50659 0.36168 0.29603 0.0
C1252 C 0.50718 0.34844 0.5364 0.0
C1253 C 0.50044 0.36131 0.57426 0.0
C1254 C 0.5063 0.36215 0.39319 0.0
C1255 C 0.49773 0.37498 0.52005 0.0
C1256 C 0.50395 0.37639 0.24831 0.0
C1257 C 0.50429 0.34345 0.16394 0.0
N1258 N 0.50059 0.37497 0.43276 0.0
N1259 N 0.50705 0.34586 0.2522 0.0
H1260 H 0.32914 0.88428 0.46706 0.0
H1261 H 0.38179 0.87611 0.9095 0.0
H1262 H 0.38394 0.87803 0.46643 0.0
H1263 H 0.33069 0.88811 0.8903 0.0
H1264 H 0.3797 0.8701 0.75005 0.0
H1265 H 0.3257 0.87811 0.62368 0.0
C1266 C 0.34023 0.88117 0.50014 0.0
C1267 C 0.35683 0.88168 0.4543 0.0
C1268 C 0.36878 0.87374 0.78125 0.0
C1269 C 0.35358 0.8754 0.6348 0.0
C1270 C 0.36993 0.87708 0.87192 0.0
C1271 C 0.35655 0.88284 0.9123 0.0
C1272 C 0.35397 0.87596 0.73191 0.0
C1273 C 0.34149 0.88398 0.86128 0.0
C1274 C 0.33837 0.87777 0.58974 0.0
C1275 C 0.37084 0.87762 0.49989 0.0
N1276 N 0.34069 0.8807 0.77412 0.0
N1277 N 0.36914 0.87502 0.58831 0.0
H1278 H 0.13267 0.48835 0.87688 0.0
H1279 H 0.18949 0.52416 0.43007 0.0
H1280 H 0.19815 0.5081 0.89501 0.0
H1281 H 0.14002 0.46119 0.48318 0.0
H1282 H 0.19442 0.53028 0.5896 0.0
H1283 H 0.13622 0.49257 0.71883 0.0
C1284 C 0.14795 0.49414 0.84765 0.0
C1285 C 0.16509 0.49764 0.89873 0.0
C1286 C 0.18274 0.51513 0.56524 0.0
C1287 C 0.16915 0.50237 0.71796 0.0
C1288 C 0.1799 0.5116 0.47469 0.0
C1289 C 0.16407 0.49223 0.44288 0.0
C1290 C 0.16942 0.49927 0.62301 0.0
C1291 C 0.15215 0.47651 0.50388 0.0
C1292 C 0.14993 0.49652 0.75768 0.0
C1293 C 0.18459 0.50525 0.85756 0.0
N1294 N 0.15484 0.48049 0.59046 0.0
N1295 N 0.18606 0.50697 0.76866 0.0
H1296 H 0.55619 0.65969 0.9074 0.0
H1297 H 0.54461 0.70769 0.45696 0.0
H1298 H 0.54918 0.71395 0.90053 0.0
H1299 H 0.56035 0.65933 0.48445 0.0
H1300 H 0.53932 0.70679 0.61679 0.0
H1301 H 0.54985 0.65525 0.75107 0.0
C1302 C 0.55289 0.67045 0.87273 0.0
C1303 C 0.55322 0.68719 0.91639 0.0
C1304 C 0.54365 0.69622 0.58732 0.0
C1305 C 0.54671 0.68278 0.73613 0.0
C1306 C 0.54657 0.69668 0.49642 0.0
C1307 C 0.55317 0.68375 0.45807 0.0
C1308 C 0.54705 0.68249 0.63899 0.0
C1309 C 0.55557 0.66979 0.51164 0.0
C1310 C 0.54939 0.66803 0.78329 0.0
C1311 C 0.54891 0.70077 0.86878 0.0
N1312 N 0.55261 0.66961 0.5989 0.0
N1313 N 0.54618 0.69849 0.7805 0.0
H1314 H 0.38582 0.48674 0.88144 0.0
H1315 H 0.36704 0.52412 0.43708 0.0
H1316 H 0.34125 0.50781 0.90287 0.0
H1317 H 0.35005 0.46019 0.48858 0.0
H1318 H 0.36813 0.53008 0.59671 0.0
H1319 H 0.38634 0.49098 0.7235 0.0
C1320 C 0.37655 0.49281 0.85296 0.0
C1321 C 0.36327 0.49668 0.90499 0.0
C1322 C 0.36389 0.51476 0.572 0.0
C1323 C 0.36381 0.50148 0.72431 0.0
C1324 C 0.36325 0.51132 0.48139 0.0
C1325 C 0.35881 0.49172 0.44916 0.0
C1326 C 0.36032 0.49853 0.62941 0.0
C1327 C 0.35397 0.47568 0.50973 0.0
C1328 C 0.37687 0.49521 0.76304 0.0
C1329 C 0.35168 0.50465 0.86472 0.0
N1330 N 0.35522 0.47955 0.59643 0.0
N1331 N 0.35186 0.50641 0.77585 0.0
H1332 H 0.56849 0.91857 0.89069 0.0
H1333 H 0.52157 0.86517 0.45655 0.0
H1334 H 0.5369 0.85171 0.92302 0.0
H1335 H 0.58824 0.89941 0.49793 0.0
H1336 H 0.51652 0.86071 0.61668 0.0
H1337 H 0.56387 0.91384 0.73338 0.0
C1338 C 0.56019 0.90284 0.86481 0.0
C1339 C 0.55337 0.88551 0.91996 0.0
C1340 C 0.53216 0.86872 0.58971 0.0
C1341 C 0.54797 0.88011 0.73969 0.0
C1342 C 0.53508 0.87126 0.49881 0.0
C1343 C 0.55536 0.883 0.46404 0.0
C1344 C 0.54966 0.8781 0.64475 0.0
C1345 C 0.57232 0.89062 0.52175 0.0
C1346 C 0.55755 0.90021 0.77518 0.0
C1347 C 0.54245 0.86547 0.88259 0.0
N1348 N 0.56908 0.8884 0.60901 0.0
N1349 N 0.54038 0.86326 0.79394 0.0
H1350 H 0.16453 0.71888 0.45223 0.0
H1351 H 0.17654 0.67181 0.90474 0.0
H1352 H 0.17109 0.66436 0.46099 0.0
H1353 H 0.15937 0.71909 0.87499 0.0
H1354 H 0.18174 0.67246 0.7449 0.0
H1355 H 0.17081 0.72345 0.6086 0.0
C1356 C 0.16773 0.70809 0.48731 0.0
C1357 C 0.16729 0.69124 0.44416 0.0
C1358 C 0.17711 0.68284 0.77389 0.0
C1359 C 0.17372 0.69583 0.62447 0.0
C1360 C 0.17423 0.68253 0.86479 0.0
C1361 C 0.16728 0.69524 0.90258 0.0
C1362 C 0.17331 0.69622 0.7216 0.0
C1363 C 0.16443 0.70881 0.84833 0.0
C1364 C 0.17118 0.71059 0.57677 0.0
C1365 C 0.17146 0.67763 0.49232 0.0
N1366 N 0.16738 0.70887 0.76109 0.0
N1367 N 0.17416 0.68 0.58061 0.0
loop_
_geom_bond_atom_site_label_1
_geom_bond_atom_site_label_2
_geom_bond_distance
_geom_bond_site_symmetry_2
_ccdc_geom_bond_type
Fe0 O2 1.918 . S
Fe0 O5 1.997 . S
Fe0 O6 2.002 . S
Fe0 O11 1.976 . S
Fe0 O14 1.996 . S
Fe1 O2 1.918 . S
Fe1 O9 1.997 . S
Fe1 O12 1.996 . S
Fe1 O16 1.976 . S
Fe1 O19 2.002 1_455 S
O2 Fe0 1.918 . S
O2 Fe1 1.918 . S
O2 Fe3 1.918 . S
Fe3 O2 1.918 . S
Fe3 O4 2.002 1_455 S
Fe3 O13 1.976 . S
Fe3 O17 1.996 . S
Fe3 O20 1.997 1_455 S
O4 Fe3 2.002 1_655 S
O4 C21 1.295 . S
O5 Fe0 1.997 . S
O5 C21 1.235 1_455 S
O6 Fe0 2.002 . S
O6 C7 1.295 . S
C7 O6 1.295 . S
C7 O9 1.235 . S
C8 O13 1.287 . S
C8 O14 1.255 . S
O9 Fe1 1.997 . S
O9 C7 1.235 . S
C10 O16 1.287 . S
C10 O17 1.255 . S
O11 Fe0 1.976 . S
O11 C18 1.287 . S
O12 Fe1 1.996 . S
O12 C18 1.255 . S
O13 Fe3 1.976 . S
O13 C8 1.287 . S
O14 Fe0 1.996 . S
O14 C8 1.255 . S
C15 O19 1.295 . S
C15 O20 1.235 . S
O16 Fe1 1.976 . S
O16 C10 1.287 . S
O17 Fe3 1.996 . S
O17 C10 1.255 . S
C18 O11 1.287 . S
C18 O12 1.255 . S
O19 Fe1 2.002 1_655 S
O19 C15 1.295 . S
O20 Fe3 1.997 1_655 S
O20 C15 1.235 . S
C21 O4 1.295 . S
C21 O5 1.235 1_655 S
Fe22 O24 1.918 . S
Fe22 O27 1.997 . S
Fe22 O28 2.002 . S
Fe22 O33 1.976 . S
Fe22 O36 1.996 . S
Fe23 O24 1.918 . S
Fe23 O31 1.997 . S
Fe23 O34 1.996 . S
Fe23 O38 1.976 . S
Fe23 O41 2.002 . S
O24 Fe22 1.918 . S
O24 Fe23 1.918 . S
O24 Fe25 1.918 . S
Fe25 O24 1.918 . S
Fe25 O26 2.002 . S
Fe25 O35 1.976 . S
Fe25 O39 1.996 . S
Fe25 O42 1.997 . S
O26 Fe25 2.002 . S
O26 C43 1.295 . S
O27 Fe22 1.997 . S
O27 C43 1.235 . S
O28 Fe22 2.002 . S
O28 C29 1.295 . S
C29 O28 1.295 . S
C29 O31 1.235 . S
C30 O35 1.287 . S
C30 O36 1.255 . S
O31 Fe23 1.997 . S
O31 C29 1.235 . S
C32 O38 1.287 . S
C32 O39 1.255 . S
O33 Fe22 1.976 . S
O33 C40 1.287 . S
O34 Fe23 1.996 . S
O34 C40 1.255 . S
O35 Fe25 1.976 . S
O35 C30 1.287 . S
O36 Fe22 1.996 . S
O36 C30 1.255 . S
C37 O41 1.295 . S
C37 O42 1.235 . S
O38 Fe23 1.976 . S
O38 C32 1.287 . S
O39 Fe25 1.996 . S
O39 C32 1.255 . S
C40 O33 1.287 . S
C40 O34 1.255 . S
O41 Fe23 2.002 . S
O41 C37 1.295 . S
O42 Fe25 1.997 . S
O42 C37 1.235 . S
C43 O26 1.295 . S
C43 O27 1.235 . S
Fe44 O46 1.918 . S
Fe44 O49 1.997 . S
Fe44 O50 2.002 1_545 S
Fe44 O55 1.976 . S
Fe44 O58 1.996 . S
Fe45 O46 1.874 1_565 S
Fe45 O53 2.020 . S
Fe45 O56 1.971 1_565 S
Fe45 O60 1.959 1_565 S
Fe45 O63 2.040 . S
O46 Fe44 1.918 . S
O46 Fe45 1.874 1_545 S
O46 Fe47 1.918 . S
Fe47 O46 1.918 . S
Fe47 O48 2.002 . S
Fe47 O57 1.976 . S
Fe47 O61 1.996 . S
Fe47 O64 1.997 . S
O48 Fe47 2.002 . S
O48 C65 1.295 . S
O49 Fe44 1.997 . S
O49 C65 1.235 . S
O50 Fe44 2.002 1_565 S
O50 C51 1.295 . S
C51 O50 1.295 . S
C51 O53 1.235 . S
C52 O57 1.287 . S
C52 O58 1.255 . S
O53 Fe45 2.020 . S
O53 C51 1.235 . S
C54 O60 1.287 . S
C54 O61 1.255 . S
O55 Fe44 1.976 . S
O55 C62 1.287 . S
O56 Fe45 1.971 1_545 S
O56 C62 1.255 . S
O57 Fe47 1.976 . S
O57 C52 1.287 . S
O58 Fe44 1.996 . S
O58 C52 1.255 . S
C59 O63 1.295 . S
C59 O64 1.235 1_565 S
O60 Fe45 1.959 1_545 S
O60 C54 1.287 . S
O61 Fe47 1.996 . S
O61 C54 1.255 . S
C62 O55 1.287 . S
C62 O56 1.255 . S
O63 Fe45 2.040 . S
O63 C59 1.295 . S
O64 Fe47 1.997 . S
O64 C59 1.235 1_545 S
C65 O48 1.295 . S
C65 O49 1.235 . S
Fe66 O68 1.918 . S
Fe66 O71 1.997 . S
Fe66 O72 2.002 . S
Fe66 O77 1.976 1_455 S
Fe66 O80 1.996 1_455 S
Fe67 O68 1.918 . S
Fe67 O75 1.997 . S
Fe67 O78 1.996 1_455 S
Fe67 O82 1.976 . S
Fe67 O85 2.002 . S
O68 Fe66 1.918 . S
O68 Fe67 1.918 . S
O68 Fe69 1.918 . S
Fe69 O68 1.918 . S
Fe69 O70 2.002 . S
Fe69 O79 1.976 . S
Fe69 O83 1.996 . S
Fe69 O86 1.997 . S
O70 Fe69 2.002 . S
O70 C87 1.295 . S
O71 Fe66 1.997 . S
O71 C87 1.235 . S
O72 Fe66 2.002 . S
O72 C73 1.295 . S
C73 O72 1.295 . S
C73 O75 1.235 . S
C74 O79 1.287 1_655 S
C74 O80 1.255 . S
O75 Fe67 1.997 . S
O75 C73 1.235 . S
C76 O82 1.287 . S
C76 O83 1.255 . S
O77 Fe66 1.976 1_655 S
O77 C84 1.287 . S
O78 Fe67 1.996 1_655 S
O78 C84 1.255 . S
O79 Fe69 1.976 . S
O79 C74 1.287 1_455 S
O80 Fe66 1.996 1_655 S
O80 C74 1.255 . S
C81 O85 1.295 . S
C81 O86 1.235 . S
O82 Fe67 1.976 . S
O82 C76 1.287 . S
O83 Fe69 1.996 . S
O83 C76 1.255 . S
C84 O77 1.287 . S
C84 O78 1.255 . S
O85 Fe67 2.002 . S
O85 C81 1.295 . S
O86 Fe69 1.997 . S
O86 C81 1.235 . S
C87 O70 1.295 . S
C87 O71 1.235 . S
Fe88 O90 1.918 . S
Fe88 O93 1.997 . S
Fe88 O94 2.002 . S
Fe88 O99 1.976 . S
Fe88 O102 1.996 . S
Fe89 O90 1.918 . S
Fe89 O97 1.997 . S
Fe89 O100 1.996 . S
Fe89 O104 1.976 . S
Fe89 O107 2.002 . S
O90 Fe88 1.918 . S
O90 Fe89 1.918 . S
O90 Fe91 1.918 . S
Fe91 O90 1.918 . S
Fe91 O92 2.002 . S
Fe91 O101 1.976 . S
Fe91 O105 1.996 . S
Fe91 O108 1.997 . S
O92 Fe91 2.002 . S
O92 C109 1.295 . S
O93 Fe88 1.997 . S
O93 C109 1.235 . S
O94 Fe88 2.002 . S
O94 C95 1.295 . S
C95 O94 1.295 . S
C95 O97 1.235 . S
C96 O101 1.287 . S
C96 O102 1.255 . S
O97 Fe89 1.997 . S
O97 C95 1.235 . S
C98 O104 1.287 . S
C98 O105 1.255 . S
O99 Fe88 1.976 . S
O99 C106 1.287 . S
O100 Fe89 1.996 . S
O100 C106 1.255 . S
O101 Fe91 1.976 . S
O101 C96 1.287 . S
O102 Fe88 1.996 . S
O102 C96 1.255 . S
C103 O107 1.295 . S
C103 O108 1.235 . S
O104 Fe89 1.976 . S
O104 C98 1.287 . S
O105 Fe91 1.996 . S
O105 C98 1.255 . S
C106 O99 1.287 . S
C106 O100 1.255 . S
O107 Fe89 2.002 . S
O107 C103 1.295 . S
O108 Fe91 1.997 . S
O108 C103 1.235 . S
C109 O92 1.295 . S
C109 O93 1.235 . S
Fe110 O112 1.919 . S
Fe110 O115 2.000 . S
Fe110 O116 2.002 . S
Fe110 O121 1.972 1_545 S
Fe110 O124 1.996 1_545 S
Fe111 O112 1.918 . S
Fe111 O119 1.997 . S
Fe111 O122 1.996 1_545 S
Fe111 O126 1.976 . S
Fe111 O129 2.002 . S
O112 Fe110 1.919 . S
O112 Fe111 1.918 . S
O112 Fe113 1.918 . S
Fe113 O112 1.918 . S
Fe113 O114 2.002 . S
Fe113 O123 1.976 . S
Fe113 O127 1.996 . S
Fe113 O130 1.997 . S
O114 Fe113 2.002 . S
O114 C131 1.295 . S
O115 Fe110 2.000 . S
O115 C131 1.235 . S
O116 Fe110 2.002 . S
O116 C117 1.295 . S
C117 O116 1.295 . S
C117 O119 1.235 . S
C118 O123 1.287 1_565 S
C118 O124 1.255 . S
O119 Fe111 1.997 . S
O119 C117 1.235 . S
C120 O126 1.287 . S
C120 O127 1.255 . S
O121 Fe110 1.972 1_565 S
O121 C128 1.287 . S
O122 Fe111 1.996 1_565 S
O122 C128 1.255 . S
O123 Fe113 1.976 . S
O123 C118 1.287 1_545 S
O124 Fe110 1.996 1_565 S
O124 C118 1.255 . S
C125 O129 1.295 . S
C125 O130 1.235 . S
O126 Fe111 1.976 . S
O126 C120 1.287 . S
O127 Fe113 1.996 . S
O127 C120 1.255 . S
C128 O121 1.287 . S
C128 O122 1.255 . S
O129 Fe111 2.002 . S
O129 C125 1.295 . S
O130 Fe113 1.997 . S
O130 C125 1.235 . S
C131 O114 1.295 . S
C131 O115 1.235 . S
Fe132 O134 1.918 . S
Fe132 O137 1.997 . S
Fe132 O138 2.002 . S
Fe132 O143 1.976 . S
Fe132 O146 1.996 . S
Fe133 O134 1.918 . S
Fe133 O141 1.997 . S
Fe133 O144 1.996 . S
Fe133 O148 1.976 . S
Fe133 O151 2.002 1_556 S
O134 Fe132 1.918 . S
O134 Fe133 1.918 . S
O134 Fe135 1.918 . S
Fe135 O134 1.918 . S
Fe135 O136 2.002 . S
Fe135 O145 1.976 . S
Fe135 O149 1.996 . S
Fe135 O152 1.997 . S
O136 Fe135 2.002 . S
O136 C153 1.295 . S
O137 Fe132 1.997 . S
O137 C153 1.235 . S
O138 Fe132 2.002 . S
O138 C139 1.295 . S
C139 O138 1.295 . S
C139 O141 1.235 . S
C140 O145 1.287 . S
C140 O146 1.255 . S
O141 Fe133 1.997 . S
O141 C139 1.235 . S
C142 O148 1.287 . S
C142 O149 1.255 . S
O143 Fe132 1.976 . S
O143 C150 1.287 . S
O144 Fe133 1.996 . S
O144 C150 1.255 . S
O145 Fe135 1.976 . S
O145 C140 1.287 . S
O146 Fe132 1.996 . S
O146 C140 1.255 . S
C147 O151 1.295 . S
C147 O152 1.235 1_554 S
O148 Fe133 1.976 . S
O148 C142 1.287 . S
O149 Fe135 1.996 . S
O149 C142 1.255 . S
C150 O143 1.287 . S
C150 O144 1.255 . S
O151 Fe133 2.002 1_554 S
O151 C147 1.295 . S
O152 Fe135 1.997 . S
O152 C147 1.235 1_556 S
C153 O136 1.295 . S
C153 O137 1.235 . S
Fe154 O156 1.918 . S
Fe154 O159 1.997 . S
Fe154 O160 2.002 . S
Fe154 O165 1.976 . S
Fe154 O168 1.996 . S
Fe155 O156 1.918 . S
Fe155 O163 1.997 . S
Fe155 O166 1.996 . S
Fe155 O170 1.976 . S
Fe155 O173 2.002 1_556 S
O156 Fe154 1.918 . S
O156 Fe155 1.918 . S
O156 Fe157 1.918 . S
Fe157 O156 1.918 . S
Fe157 O158 2.002 . S
Fe157 O167 1.976 . S
Fe157 O171 1.996 . S
Fe157 O174 1.997 . S
O158 Fe157 2.002 . S
O158 C175 1.295 . S
O159 Fe154 1.997 . S
O159 C175 1.235 . S
O160 Fe154 2.002 . S
O160 C161 1.295 . S
C161 O160 1.295 . S
C161 O163 1.235 . S
C162 O167 1.287 . S
C162 O168 1.255 . S
O163 Fe155 1.997 . S
O163 C161 1.235 . S
C164 O170 1.287 . S
C164 O171 1.255 . S
O165 Fe154 1.976 . S
O165 C172 1.287 . S
O166 Fe155 1.996 . S
O166 C172 1.255 . S
O167 Fe157 1.976 . S
O167 C162 1.287 . S
O168 Fe154 1.996 . S
O168 C162 1.255 . S
C169 O173 1.295 . S
C169 O174 1.235 1_554 S
O170 Fe155 1.976 . S
O170 C164 1.287 . S
O171 Fe157 1.996 . S
O171 C164 1.255 . S
C172 O165 1.287 . S
C172 O166 1.255 . S
O173 Fe155 2.002 1_554 S
O173 C169 1.295 . S
O174 Fe157 1.997 . S
O174 C169 1.235 1_556 S
C175 O158 1.295 . S
C175 O159 1.235 . S
Fe176 O178 1.918 . S
Fe176 O181 1.997 . S
Fe176 O182 2.002 1_556 S
Fe176 O187 1.976 . S
Fe176 O190 1.996 . S
Fe177 O178 1.918 . S
Fe177 O185 1.997 . S
Fe177 O188 1.996 . S
Fe177 O192 1.976 . S
Fe177 O195 2.002 . S
O178 Fe176 1.918 . S
O178 Fe177 1.918 . S
O178 Fe179 1.918 . S
Fe179 O178 1.918 . S
Fe179 O180 2.002 . S
Fe179 O189 1.976 . S
Fe179 O193 1.996 . S
Fe179 O196 1.997 . S
O180 Fe179 2.002 . S
O180 C197 1.295 . S
O181 Fe176 1.997 . S
O181 C197 1.235 . S
O182 Fe176 2.002 1_554 S
O182 C183 1.295 . S
C183 O182 1.295 . S
C183 O185 1.235 1_554 S
C184 O189 1.287 . S
C184 O190 1.255 . S
O185 Fe177 1.997 . S
O185 C183 1.235 1_556 S
C186 O192 1.287 . S
C186 O193 1.255 . S
O187 Fe176 1.976 . S
O187 C194 1.287 . S
O188 Fe177 1.996 . S
O188 C194 1.255 . S
O189 Fe179 1.976 . S
O189 C184 1.287 . S
O190 Fe176 1.996 . S
O190 C184 1.255 . S
C191 O195 1.295 . S
C191 O196 1.235 . S
O192 Fe177 1.976 . S
O192 C186 1.287 . S
O193 Fe179 1.996 . S
O193 C186 1.255 . S
C194 O187 1.287 . S
C194 O188 1.255 . S
O195 Fe177 2.002 . S
O195 C191 1.295 . S
O196 Fe179 1.997 . S
O196 C191 1.235 . S
C197 O180 1.295 . S
C197 O181 1.235 . S
Fe198 O200 1.918 . S
Fe198 O203 1.997 . S
Fe198 O204 2.002 1_556 S
Fe198 O209 1.976 . S
Fe198 O212 1.996 . S
Fe199 O200 1.918 . S
Fe199 O207 1.997 . S
Fe199 O210 1.996 . S
Fe199 O214 1.976 . S
Fe199 O217 2.002 . S
O200 Fe198 1.918 . S
O200 Fe199 1.918 . S
O200 Fe201 1.918 . S
Fe201 O200 1.918 . S
Fe201 O202 2.002 . S
Fe201 O211 1.976 . S
Fe201 O215 1.996 . S
Fe201 O218 1.997 . S
O202 Fe201 2.002 . S
O202 C219 1.295 . S
O203 Fe198 1.997 . S
O203 C219 1.235 . S
O204 Fe198 2.002 1_554 S
O204 C205 1.295 . S
C205 O204 1.295 . S
C205 O207 1.235 1_554 S
C206 O211 1.287 . S
C206 O212 1.255 . S
O207 Fe199 1.997 . S
O207 C205 1.235 1_556 S
C208 O214 1.287 . S
C208 O215 1.255 . S
O209 Fe198 1.976 . S
O209 C216 1.287 . S
O210 Fe199 1.996 . S
O210 C216 1.255 . S
O211 Fe201 1.976 . S
O211 C206 1.287 . S
O212 Fe198 1.996 . S
O212 C206 1.255 . S
C213 O217 1.295 . S
C213 O218 1.235 . S
O214 Fe199 1.976 . S
O214 C208 1.287 . S
O215 Fe201 1.996 . S
O215 C208 1.255 . S
C216 O209 1.287 . S
C216 O210 1.255 . S
O217 Fe199 2.002 . S
O217 C213 1.295 . S
O218 Fe201 1.997 . S
O218 C213 1.235 . S
C219 O202 1.295 . S
C219 O203 1.235 . S
Fe220 O222 1.918 . S
Fe220 O225 1.997 . S
Fe220 O226 2.002 1_556 S
Fe220 O231 1.976 . S
Fe220 O234 1.996 . S
Fe221 O222 1.918 . S
Fe221 O229 1.997 . S
Fe221 O232 1.996 . S
Fe221 O236 1.976 . S
Fe221 O239 2.002 . S
O222 Fe220 1.918 . S
O222 Fe221 1.918 . S
O222 Fe223 1.918 . S
Fe223 O222 1.918 . S
Fe223 O224 2.002 . S
Fe223 O233 1.976 . S
Fe223 O237 1.996 . S
Fe223 O240 1.997 . S
O224 Fe223 2.002 . S
O224 C241 1.295 . S
O225 Fe220 1.997 . S
O225 C241 1.235 . S
O226 Fe220 2.002 1_554 S
O226 C227 1.295 . S
C227 O226 1.295 . S
C227 O229 1.235 1_554 S
C228 O233 1.287 . S
C228 O234 1.255 . S
O229 Fe221 1.997 . S
O229 C227 1.235 1_556 S
C230 O236 1.287 . S
C230 O237 1.255 . S
O231 Fe220 1.976 . S
O231 C238 1.287 . S
O232 Fe221 1.996 . S
O232 C238 1.255 . S
O233 Fe223 1.976 . S
O233 C228 1.287 . S
O234 Fe220 1.996 . S
O234 C228 1.255 . S
C235 O239 1.295 . S
C235 O240 1.235 . S
O236 Fe221 1.976 . S
O236 C230 1.287 . S
O237 Fe223 1.996 . S
O237 C230 1.255 . S
C238 O231 1.287 . S
C238 O232 1.255 . S
O239 Fe221 2.002 . S
O239 C235 1.295 . S
O240 Fe223 1.997 . S
O240 C235 1.235 . S
C241 O224 1.295 . S
C241 O225 1.235 . S
Fe242 O244 1.918 . S
Fe242 O247 1.997 . S
Fe242 O248 2.002 1_556 S
Fe242 O253 1.976 . S
Fe242 O256 1.996 . S
Fe243 O244 1.918 . S
Fe243 O251 1.997 . S
Fe243 O254 1.996 . S
Fe243 O258 1.976 . S
Fe243 O261 2.002 . S
O244 Fe242 1.918 . S
O244 Fe243 1.918 . S
O244 Fe245 1.918 . S
Fe245 O244 1.918 . S
Fe245 O246 2.002 . S
Fe245 O255 1.976 . S
Fe245 O259 1.996 . S
Fe245 O262 1.997 . S
O246 Fe245 2.002 . S
O246 C263 1.295 . S
O247 Fe242 1.997 . S
O247 C263 1.235 . S
O248 Fe242 2.002 1_554 S
O248 C249 1.295 . S
C249 O248 1.295 . S
C249 O251 1.235 1_554 S
C250 O255 1.287 . S
C250 O256 1.255 . S
O251 Fe243 1.997 . S
O251 C249 1.235 1_556 S
C252 O258 1.287 . S
C252 O259 1.255 . S
O253 Fe242 1.976 . S
O253 C260 1.287 . S
O254 Fe243 1.996 . S
O254 C260 1.255 . S
O255 Fe245 1.976 . S
O255 C250 1.287 . S
O256 Fe242 1.996 . S
O256 C250 1.255 . S
C257 O261 1.295 . S
C257 O262 1.235 . S
O258 Fe243 1.976 . S
O258 C252 1.287 . S
O259 Fe245 1.996 . S
O259 C252 1.255 . S
C260 O253 1.287 . S
C260 O254 1.255 . S
O261 Fe243 2.002 . S
O261 C257 1.295 . S
O262 Fe245 1.997 . S
O262 C257 1.235 . S
C263 O246 1.295 . S
C263 O247 1.235 . S
Fe264 O266 1.918 . S
Fe264 O269 1.997 . S
Fe264 O270 2.002 . S
Fe264 O275 1.976 . S
Fe264 O278 1.996 . S
Fe265 O266 1.918 . S
Fe265 O273 1.997 . S
Fe265 O276 1.996 1_554 S
Fe265 O280 1.976 . S
Fe265 O283 2.002 . S
O266 Fe264 1.918 . S
O266 Fe265 1.918 . S
O266 Fe267 1.918 . S
Fe267 O266 1.918 . S
Fe267 O268 2.002 . S
Fe267 O277 1.976 . S
Fe267 O281 1.996 . S
Fe267 O284 1.997 . S
O268 Fe267 2.002 . S
O268 C285 1.295 . S
O269 Fe264 1.997 . S
O269 C285 1.235 . S
O270 Fe264 2.002 . S
O270 C271 1.295 . S
C271 O270 1.295 . S
C271 O273 1.235 . S
C272 O277 1.287 . S
C272 O278 1.255 . S
O273 Fe265 1.997 . S
O273 C271 1.235 . S
C274 O280 1.287 . S
C274 O281 1.255 . S
O275 Fe264 1.976 . S
O275 C282 1.287 1_554 S
O276 Fe265 1.996 1_556 S
O276 C282 1.255 . S
O277 Fe267 1.976 . S
O277 C272 1.287 . S
O278 Fe264 1.996 . S
O278 C272 1.255 . S
C279 O283 1.295 . S
C279 O284 1.235 . S
O280 Fe265 1.976 . S
O280 C274 1.287 . S
O281 Fe267 1.996 . S
O281 C274 1.255 . S
C282 O275 1.287 1_556 S
C282 O276 1.255 . S
O283 Fe265 2.002 . S
O283 C279 1.295 . S
O284 Fe267 1.997 . S
O284 C279 1.235 . S
C285 O268 1.295 . S
C285 O269 1.235 . S
Fe286 O288 1.918 . S
Fe286 O291 1.997 . S
Fe286 O292 2.002 . S
Fe286 O297 1.976 . S
Fe286 O300 1.996 1_554 S
Fe287 O288 1.918 . S
Fe287 O295 1.997 . S
Fe287 O298 1.996 . S
Fe287 O302 1.976 . S
Fe287 O305 2.002 . S
O288 Fe286 1.918 . S
O288 Fe287 1.918 . S
O288 Fe289 1.918 . S
Fe289 O288 1.918 . S
Fe289 O290 2.002 . S
Fe289 O299 1.976 . S
Fe289 O303 1.996 . S
Fe289 O306 1.997 . S
O290 Fe289 2.002 . S
O290 C307 1.295 . S
O291 Fe286 1.997 . S
O291 C307 1.235 . S
O292 Fe286 2.002 . S
O292 C293 1.295 . S
C293 O292 1.295 . S
C293 O295 1.235 . S
C294 O299 1.287 1_556 S
C294 O300 1.255 . S
O295 Fe287 1.997 . S
O295 C293 1.235 . S
C296 O302 1.287 . S
C296 O303 1.255 . S
O297 Fe286 1.976 . S
O297 C304 1.287 . S
O298 Fe287 1.996 . S
O298 C304 1.255 . S
O299 Fe289 1.976 . S
O299 C294 1.287 1_554 S
O300 Fe286 1.996 1_556 S
O300 C294 1.255 . S
C301 O305 1.295 . S
C301 O306 1.235 . S
O302 Fe287 1.976 . S
O302 C296 1.287 . S
O303 Fe289 1.996 . S
O303 C296 1.255 . S
C304 O297 1.287 . S
C304 O298 1.255 . S
O305 Fe287 2.002 . S
O305 C301 1.295 . S
O306 Fe289 1.997 . S
O306 C301 1.235 . S
C307 O290 1.295 . S
C307 O291 1.235 . S
Fe308 O310 1.918 . S
Fe308 O313 1.997 . S
Fe308 O314 2.002 1_554 S
Fe308 O319 1.976 . S
Fe308 O322 1.996 . S
Fe309 O310 1.918 . S
Fe309 O317 1.997 . S
Fe309 O320 1.996 . S
Fe309 O324 1.976 . S
Fe309 O327 2.002 . S
O310 Fe308 1.918 . S
O310 Fe309 1.918 . S
O310 Fe311 1.918 . S
Fe311 O310 1.918 . S
Fe311 O312 2.002 . S
Fe311 O321 1.976 . S
Fe311 O325 1.996 . S
Fe311 O328 1.997 . S
O312 Fe311 2.002 . S
O312 C329 1.295 . S
O313 Fe308 1.997 . S
O313 C329 1.235 . S
O314 Fe308 2.002 1_556 S
O314 C315 1.295 . S
C315 O314 1.295 . S
C315 O317 1.235 1_556 S
C316 O321 1.287 . S
C316 O322 1.255 . S
O317 Fe309 1.997 . S
O317 C315 1.235 1_554 S
C318 O324 1.287 . S
C318 O325 1.255 . S
O319 Fe308 1.976 . S
O319 C326 1.287 . S
O320 Fe309 1.996 . S
O320 C326 1.255 . S
O321 Fe311 1.976 . S
O321 C316 1.287 . S
O322 Fe308 1.996 . S
O322 C316 1.255 . S
C323 O327 1.295 . S
C323 O328 1.235 . S
O324 Fe309 1.976 . S
O324 C318 1.287 . S
O325 Fe311 1.996 . S
O325 C318 1.255 . S
C326 O319 1.287 . S
C326 O320 1.255 . S
O327 Fe309 2.002 . S
O327 C323 1.295 . S
O328 Fe311 1.997 . S
O328 C323 1.235 . S
C329 O312 1.295 . S
C329 O313 1.235 . S
Fe330 O332 1.918 . S
Fe330 O335 1.997 . S
Fe330 O336 2.002 1_554 S
Fe330 O341 1.976 . S
Fe330 O344 1.996 . S
Fe331 O332 1.918 . S
Fe331 O339 1.997 . S
Fe331 O342 1.996 . S
Fe331 O346 1.976 . S
Fe331 O349 2.002 . S
O332 Fe330 1.918 . S
O332 Fe331 1.918 . S
O332 Fe333 1.918 . S
Fe333 O332 1.918 . S
Fe333 O334 2.002 . S
Fe333 O343 1.976 . S
Fe333 O347 1.996 . S
Fe333 O350 1.997 . S
O334 Fe333 2.002 . S
O334 C351 1.295 . S
O335 Fe330 1.997 . S
O335 C351 1.235 . S
O336 Fe330 2.002 1_556 S
O336 C337 1.295 . S
C337 O336 1.295 . S
C337 O339 1.235 1_556 S
C338 O343 1.287 . S
C338 O344 1.255 . S
O339 Fe331 1.997 . S
O339 C337 1.235 1_554 S
C340 O346 1.287 . S
C340 O347 1.255 . S
O341 Fe330 1.976 . S
O341 C348 1.287 . S
O342 Fe331 1.996 . S
O342 C348 1.255 . S
O343 Fe333 1.976 . S
O343 C338 1.287 . S
O344 Fe330 1.996 . S
O344 C338 1.255 . S
C345 O349 1.295 . S
C345 O350 1.235 . S
O346 Fe331 1.976 . S
O346 C340 1.287 . S
O347 Fe333 1.996 . S
O347 C340 1.255 . S
C348 O341 1.287 . S
C348 O342 1.255 . S
O349 Fe331 2.002 . S
O349 C345 1.295 . S
O350 Fe333 1.997 . S
O350 C345 1.235 . S
C351 O334 1.295 . S
C351 O335 1.235 . S
Fe352 O354 1.918 . S
Fe352 O357 1.997 . S
Fe352 O358 2.002 . S
Fe352 O363 1.976 . S
Fe352 O366 1.996 . S
Fe353 O354 1.918 . S
Fe353 O361 1.997 . S
Fe353 O364 1.996 . S
Fe353 O368 1.976 . S
Fe353 O371 2.002 . S
O354 Fe352 1.918 . S
O354 Fe353 1.918 . S
O354 Fe355 1.918 . S
Fe355 O354 1.918 . S
Fe355 O356 2.002 1_554 S
Fe355 O365 1.976 . S
Fe355 O369 1.996 . S
Fe355 O372 1.997 . S
O356 Fe355 2.002 1_556 S
O356 C373 1.295 . S
O357 Fe352 1.997 . S
O357 C373 1.235 1_554 S
O358 Fe352 2.002 . S
O358 C359 1.295 . S
C359 O358 1.295 . S
C359 O361 1.235 . S
C360 O365 1.287 . S
C360 O366 1.255 . S
O361 Fe353 1.997 . S
O361 C359 1.235 . S
C362 O368 1.287 . S
C362 O369 1.255 . S
O363 Fe352 1.976 . S
O363 C370 1.287 . S
O364 Fe353 1.996 . S
O364 C370 1.255 . S
O365 Fe355 1.976 . S
O365 C360 1.287 . S
O366 Fe352 1.996 . S
O366 C360 1.255 . S
C367 O371 1.295 . S
C367 O372 1.235 . S
O368 Fe353 1.976 . S
O368 C362 1.287 . S
O369 Fe355 1.996 . S
O369 C362 1.255 . S
C370 O363 1.287 . S
C370 O364 1.255 . S
O371 Fe353 2.002 . S
O371 C367 1.295 . S
O372 Fe355 1.997 . S
O372 C367 1.235 . S
C373 O356 1.295 . S
C373 O357 1.235 1_556 S
Fe374 O376 1.918 . S
Fe374 O379 1.997 . S
Fe374 O380 2.002 . S
Fe374 O385 1.976 . S
Fe374 O388 1.996 . S
Fe375 O376 1.918 . S
Fe375 O383 1.997 . S
Fe375 O386 1.996 . S
Fe375 O390 1.976 . S
Fe375 O393 2.002 . S
O376 Fe374 1.918 . S
O376 Fe375 1.918 . S
O376 Fe377 1.918 . S
Fe377 O376 1.918 . S
Fe377 O378 2.002 . S
Fe377 O387 1.976 . S
Fe377 O391 1.996 1_554 S
Fe377 O394 1.997 . S
O378 Fe377 2.002 . S
O378 C395 1.295 . S
O379 Fe374 1.997 . S
O379 C395 1.235 . S
O380 Fe374 2.002 . S
O380 C381 1.295 . S
C381 O380 1.295 . S
C381 O383 1.235 . S
C382 O387 1.287 . S
C382 O388 1.255 . S
O383 Fe375 1.997 . S
O383 C381 1.235 . S
C384 O390 1.287 1_556 S
C384 O391 1.255 . S
O385 Fe374 1.976 . S
O385 C392 1.287 . S
O386 Fe375 1.996 . S
O386 C392 1.255 . S
O387 Fe377 1.976 . S
O387 C382 1.287 . S
O388 Fe374 1.996 . S
O388 C382 1.255 . S
C389 O393 1.295 . S
C389 O394 1.235 . S
O390 Fe375 1.976 . S
O390 C384 1.287 1_554 S
O391 Fe377 1.996 1_556 S
O391 C384 1.255 . S
C392 O385 1.287 . S
C392 O386 1.255 . S
O393 Fe375 2.002 . S
O393 C389 1.295 . S
O394 Fe377 1.997 . S
O394 C389 1.235 . S
C395 O378 1.295 . S
C395 O379 1.235 . S
H396 C402 0.930 . S
H397 C406 0.930 . S
H398 C411 0.929 . S
H399 C409 0.929 . S
H400 C404 0.929 . S
H401 C410 0.929 . S
C402 H396 0.930 . S
C402 C403 1.367 . S
C402 C410 1.378 . S
C403 C402 1.367 . S
C403 C411 1.433 . S
C404 H400 0.929 . S
C404 C406 1.378 . S
C404 C408 1.350 . S
C405 C408 1.463 . S
C405 C410 1.350 . S
C405 N413 1.427 . S
C406 H397 0.930 . S
C406 C404 1.378 . S
C406 C407 1.367 . S
C407 C406 1.367 . S
C407 C409 1.433 . S
C408 C404 1.350 . S
C408 C405 1.463 . S
C408 N412 1.427 . S
C409 H399 0.929 . S
C409 C407 1.433 . S
C409 N412 1.384 . S
C410 H401 0.929 . S
C410 C402 1.378 . S
C410 C405 1.350 . S
C411 H398 0.929 . S
C411 C403 1.433 . S
C411 N413 1.384 . S
N412 C408 1.427 . S
N412 C409 1.384 . S
N413 C405 1.427 . S
N413 C411 1.384 . S
H414 C420 0.930 . S
H415 C424 0.930 . S
H416 C429 0.929 . S
H417 C427 0.929 . S
H418 C422 0.929 . S
H419 C428 0.929 . S
C420 H414 0.930 . S
C420 C421 1.367 . S
C420 C428 1.378 . S
C421 C420 1.367 . S
C421 C429 1.433 . S
C422 H418 0.929 . S
C422 C424 1.378 . S
C422 C426 1.350 . S
C423 C426 1.463 . S
C423 C428 1.350 . S
C423 N431 1.427 . S
C424 H415 0.930 . S
C424 C422 1.378 . S
C424 C425 1.367 . S
C425 C424 1.367 . S
C425 C427 1.433 . S
C426 C422 1.350 . S
C426 C423 1.463 . S
C426 N430 1.427 . S
C427 H417 0.929 . S
C427 C425 1.433 . S
C427 N430 1.384 . S
C428 H419 0.929 . S
C428 C420 1.378 . S
C428 C423 1.350 . S
C429 H416 0.929 . S
C429 C421 1.433 . S
C429 N431 1.384 . S
N430 C426 1.427 . S
N430 C427 1.384 . S
N431 C423 1.427 . S
N431 C429 1.384 . S
H432 C438 0.930 . S
H433 C442 0.930 . S
H434 C447 0.929 . S
H435 C445 0.929 . S
H436 C440 0.929 . S
H437 C446 0.929 . S
C438 H432 0.930 . S
C438 C439 1.367 . S
C438 C446 1.378 . S
C439 C438 1.367 . S
C439 C447 1.433 . S
C440 H436 0.929 . S
C440 C442 1.378 . S
C440 C444 1.350 . S
C441 C444 1.463 . S
C441 C446 1.350 . S
C441 N449 1.427 . S
C442 H433 0.930 . S
C442 C440 1.378 . S
C442 C443 1.367 . S
C443 C442 1.367 . S
C443 C445 1.433 . S
C444 C440 1.350 . S
C444 C441 1.463 . S
C444 N448 1.427 . S
C445 H435 0.929 . S
C445 C443 1.433 . S
C445 N448 1.384 . S
C446 H437 0.929 . S
C446 C438 1.378 . S
C446 C441 1.350 . S
C447 H434 0.929 . S
C447 C439 1.433 . S
C447 N449 1.384 . S
N448 C444 1.427 . S
N448 C445 1.384 . S
N449 C441 1.427 . S
N449 C447 1.384 . S
H450 C456 0.930 . S
H451 C460 0.930 . S
H452 C465 0.929 . S
H453 C463 0.929 . S
H454 C458 0.929 . S
H455 C464 0.929 . S
C456 H450 0.930 . S
C456 C457 1.367 . S
C456 C464 1.378 . S
C457 C456 1.367 . S
C457 C465 1.433 . S
C458 H454 0.929 . S
C458 C460 1.378 . S
C458 C462 1.350 . S
C459 C462 1.463 . S
C459 C464 1.350 . S
C459 N467 1.427 . S
C460 H451 0.930 . S
C460 C458 1.378 . S
C460 C461 1.367 . S
C461 C460 1.367 . S
C461 C463 1.433 . S
C462 C458 1.350 . S
C462 C459 1.463 . S
C462 N466 1.427 . S
C463 H453 0.929 . S
C463 C461 1.433 . S
C463 N466 1.384 . S
C464 H455 0.929 . S
C464 C456 1.378 . S
C464 C459 1.350 . S
C465 H452 0.929 . S
C465 C457 1.433 . S
C465 N467 1.384 . S
N466 C462 1.427 . S
N466 C463 1.384 . S
N467 C459 1.427 . S
N467 C465 1.384 . S
H468 C474 0.930 . S
H469 C478 0.894 1_455 S
H470 C483 0.929 . S
H471 C481 0.929 . S
H472 C476 0.929 . S
H473 C482 0.929 . S
C474 H468 0.930 . S
C474 C475 1.367 . S
C474 C482 1.378 . S
C475 C474 1.367 . S
C475 C483 1.433 . S
C476 H472 0.929 . S
C476 C478 1.413 . S
C476 C480 1.350 . S
C477 C480 1.463 . S
C477 C482 1.350 . S
C477 N485 1.427 . S
C478 H469 0.894 1_655 S
C478 C476 1.413 . S
C478 C479 1.369 . S
C479 C478 1.369 . S
C479 C481 1.433 . S
C480 C476 1.350 . S
C480 C477 1.463 . S
C480 N484 1.427 . S
C481 H471 0.929 . S
C481 C479 1.433 . S
C481 N484 1.384 . S
C482 H473 0.929 . S
C482 C474 1.378 . S
C482 C477 1.350 . S
C483 H470 0.929 . S
C483 C475 1.433 . S
C483 N485 1.384 . S
N484 C480 1.427 . S
N484 C481 1.384 . S
N485 C477 1.427 . S
N485 C483 1.384 . S
H486 C492 0.930 . S
H487 C496 0.930 . S
H488 C501 0.929 . S
H489 C499 0.929 . S
H490 C494 0.929 . S
H491 C500 0.929 . S
C492 H486 0.930 . S
C492 C493 1.367 . S
C492 C500 1.378 . S
C493 C492 1.367 . S
C493 C501 1.433 . S
C494 H490 0.929 . S
C494 C496 1.378 . S
C494 C498 1.350 . S
C495 C498 1.463 . S
C495 C500 1.350 . S
C495 N503 1.427 . S
C496 H487 0.930 . S
C496 C494 1.378 . S
C496 C497 1.367 . S
C497 C496 1.367 . S
C497 C499 1.433 . S
C498 C494 1.350 . S
C498 C495 1.463 . S
C498 N502 1.427 . S
C499 H489 0.929 . S
C499 C497 1.433 . S
C499 N502 1.384 . S
C500 H491 0.929 . S
C500 C492 1.378 . S
C500 C495 1.350 . S
C501 H488 0.929 . S
C501 C493 1.433 . S
C501 N503 1.384 . S
N502 C498 1.427 . S
N502 C499 1.384 . S
N503 C495 1.427 . S
N503 C501 1.384 . S
H504 C510 0.930 . S
H505 C514 0.930 . S
H506 C519 0.929 . S
H507 C517 0.929 . S
H508 C512 0.929 . S
H509 C518 0.929 . S
C510 H504 0.930 . S
C510 C511 1.367 . S
C510 C518 1.378 . S
C511 C510 1.367 . S
C511 C519 1.433 . S
C512 H508 0.929 . S
C512 C514 1.378 . S
C512 C516 1.350 . S
C513 C516 1.463 . S
C513 C518 1.350 . S
C513 N521 1.427 . S
C514 H505 0.930 . S
C514 C512 1.378 . S
C514 C515 1.367 . S
C515 C514 1.367 . S
C515 C517 1.433 . S
C516 C512 1.350 . S
C516 C513 1.463 . S
C516 N520 1.427 . S
C517 H507 0.929 . S
C517 C515 1.433 . S
C517 N520 1.384 . S
C518 H509 0.929 . S
C518 C510 1.378 . S
C518 C513 1.350 . S
C519 H506 0.929 . S
C519 C511 1.433 . S
C519 N521 1.384 . S
N520 C516 1.427 . S
N520 C517 1.384 . S
N521 C513 1.427 . S
N521 C519 1.384 . S
H522 C528 0.930 . S
H523 C532 0.930 . S
H524 C537 0.929 . S
H525 C535 0.929 . S
H526 C530 0.929 . S
H527 C536 0.929 . S
C528 H522 0.930 . S
C528 C529 1.367 . S
C528 C536 1.378 . S
C529 C528 1.367 . S
C529 C537 1.433 . S
C530 H526 0.929 . S
C530 C532 1.378 . S
C530 C534 1.350 . S
C531 C534 1.463 . S
C531 C536 1.350 . S
C531 N539 1.427 . S
C532 H523 0.930 . S
C532 C530 1.378 . S
C532 C533 1.367 . S
C533 C532 1.367 . S
C533 C535 1.433 . S
C534 C530 1.350 . S
C534 C531 1.463 . S
C534 N538 1.427 . S
C535 H525 0.929 . S
C535 C533 1.433 . S
C535 N538 1.384 . S
C536 H527 0.929 . S
C536 C528 1.378 . S
C536 C531 1.350 . S
C537 H524 0.929 . S
C537 C529 1.433 . S
C537 N539 1.384 . S
N538 C534 1.427 . S
N538 C535 1.384 . S
N539 C531 1.427 . S
N539 C537 1.384 . S
H540 C546 0.930 . S
H541 C550 0.930 . S
H542 C555 0.929 . S
H543 C553 0.929 . S
H544 C548 0.929 . S
H545 C554 0.929 . S
C546 H540 0.930 . S
C546 C547 1.367 . S
C546 C554 1.378 . S
C547 C546 1.367 . S
C547 C555 1.433 . S
C548 H544 0.929 . S
C548 C550 1.378 . S
C548 C552 1.350 . S
C549 C552 1.463 . S
C549 C554 1.350 . S
C549 N557 1.427 . S
C550 H541 0.930 . S
C550 C548 1.378 . S
C550 C551 1.367 . S
C551 C550 1.367 . S
C551 C553 1.433 . S
C552 C548 1.350 . S
C552 C549 1.463 . S
C552 N556 1.427 . S
C553 H543 0.929 . S
C553 C551 1.433 . S
C553 N556 1.384 . S
C554 H545 0.929 . S
C554 C546 1.378 . S
C554 C549 1.350 . S
C555 H542 0.929 . S
C555 C547 1.433 . S
C555 N557 1.384 . S
N556 C552 1.427 . S
N556 C553 1.384 . S
N557 C549 1.427 . S
N557 C555 1.384 . S
H558 C564 0.930 . S
H559 C568 0.930 . S
H560 C573 0.929 . S
H561 C571 0.929 . S
H562 C566 0.929 . S
H563 C572 0.929 . S
C564 H558 0.930 . S
C564 C565 1.367 . S
C564 C572 1.378 . S
C565 C564 1.367 . S
C565 C573 1.433 . S
C566 H562 0.929 . S
C566 C568 1.378 . S
C566 C570 1.350 . S
C567 C570 1.463 . S
C567 C572 1.350 . S
C567 N575 1.427 . S
C568 H559 0.930 . S
C568 C566 1.378 . S
C568 C569 1.367 . S
C569 C568 1.367 . S
C569 C571 1.433 . S
C570 C566 1.350 . S
C570 C567 1.463 . S
C570 N574 1.427 . S
C571 H561 0.929 . S
C571 C569 1.433 . S
C571 N574 1.384 . S
C572 H563 0.929 . S
C572 C564 1.378 . S
C572 C567 1.350 . S
C573 H560 0.929 . S
C573 C565 1.433 . S
C573 N575 1.384 . S
N574 C570 1.427 . S
N574 C571 1.384 . S
N575 C567 1.427 . S
N575 C573 1.384 . S
H576 C582 0.930 . S
H577 C586 0.930 . S
H578 C591 0.929 . S
H579 C589 0.929 . S
H580 C584 0.929 . S
H581 C590 0.929 . S
C582 H576 0.930 . S
C582 C583 1.367 . S
C582 C590 1.378 . S
C583 C582 1.367 . S
C583 C591 1.433 . S
C584 H580 0.929 . S
C584 C586 1.378 . S
C584 C588 1.350 . S
C585 C588 1.463 . S
C585 C590 1.350 . S
C585 N593 1.427 . S
C586 H577 0.930 . S
C586 C584 1.378 . S
C586 C587 1.367 . S
C587 C586 1.367 . S
C587 C589 1.433 . S
C588 C584 1.350 . S
C588 C585 1.463 . S
C588 N592 1.427 . S
C589 H579 0.929 . S
C589 C587 1.433 . S
C589 N592 1.384 . S
C590 H581 0.929 . S
C590 C582 1.378 . S
C590 C585 1.350 . S
C591 H578 0.929 . S
C591 C583 1.433 . S
C591 N593 1.384 . S
N592 C588 1.427 . S
N592 C589 1.384 . S
N593 C585 1.427 . S
N593 C591 1.384 . S
H594 C600 0.930 . S
H595 C604 0.930 . S
H596 C609 0.929 . S
H597 C607 0.929 . S
H598 C602 0.929 . S
H599 C608 0.929 . S
C600 H594 0.930 . S
C600 C601 1.367 . S
C600 C608 1.378 . S
C601 C600 1.367 . S
C601 C609 1.433 . S
C602 H598 0.929 . S
C602 C604 1.378 . S
C602 C606 1.350 . S
C603 C606 1.463 . S
C603 C608 1.350 . S
C603 N611 1.427 . S
C604 H595 0.930 . S
C604 C602 1.378 . S
C604 C605 1.367 . S
C605 C604 1.367 . S
C605 C607 1.433 . S
C606 C602 1.350 . S
C606 C603 1.463 . S
C606 N610 1.427 . S
C607 H597 0.929 . S
C607 C605 1.433 . S
C607 N610 1.384 . S
C608 H599 0.929 . S
C608 C600 1.378 . S
C608 C603 1.350 . S
C609 H596 0.929 . S
C609 C601 1.433 . S
C609 N611 1.384 . S
N610 C606 1.427 . S
N610 C607 1.384 . S
N611 C603 1.427 . S
N611 C609 1.384 . S
H612 C618 0.930 . S
H613 C622 0.930 . S
H614 C627 0.929 . S
H615 C625 0.929 . S
H616 C620 0.929 . S
H617 C626 0.929 . S
C618 H612 0.930 . S
C618 C619 1.367 . S
C618 C626 1.378 1_655 S
C619 C618 1.367 . S
C619 C627 1.433 1_556 S
C620 H616 0.929 . S
C620 C622 1.378 . S
C620 C624 1.350 . S
C621 C624 1.463 1_556 S
C621 C626 1.350 . S
C621 N629 1.427 1_456 S
C622 H613 0.930 . S
C622 C620 1.378 . S
C622 C623 1.367 . S
C623 C622 1.367 . S
C623 C625 1.433 1_554 S
C624 C620 1.350 . S
C624 C621 1.463 1_554 S
C624 N628 1.427 1_554 S
C625 H615 0.929 . S
C625 C623 1.433 1_556 S
C625 N628 1.384 . S
C626 H617 0.929 . S
C626 C618 1.378 1_455 S
C626 C621 1.350 . S
C627 H614 0.929 . S
C627 C619 1.433 1_554 S
C627 N629 1.384 . S
N628 C624 1.427 1_556 S
N628 C625 1.384 . S
N629 C621 1.427 1_654 S
N629 C627 1.384 . S
H630 C636 0.930 . S
H631 C640 0.930 . S
H632 C645 0.929 . S
H633 C643 0.929 . S
H634 C638 0.929 . S
H635 C644 0.929 . S
C636 H630 0.930 . S
C636 C637 1.367 1_554 S
C636 C644 1.378 . S
C637 C636 1.367 1_556 S
C637 C645 1.433 . S
C638 H634 0.929 . S
C638 C640 1.378 . S
C638 C642 1.350 1_556 S
C639 C642 1.463 1_556 S
C639 C644 1.350 1_556 S
C639 N647 1.427 . S
C640 H631 0.930 . S
C640 C638 1.378 . S
C640 C641 1.367 1_556 S
C641 C640 1.367 1_554 S
C641 C643 1.433 . S
C642 C638 1.350 1_554 S
C642 C639 1.463 1_554 S
C642 N646 1.427 . S
C643 H633 0.929 . S
C643 C641 1.433 . S
C643 N646 1.384 . S
C644 H635 0.929 . S
C644 C636 1.378 . S
C644 C639 1.350 1_554 S
C645 H632 0.929 . S
C645 C637 1.433 . S
C645 N647 1.384 . S
N646 C642 1.427 . S
N646 C643 1.384 . S
N647 C639 1.427 . S
N647 C645 1.384 . S
H648 C654 0.930 . S
H649 C658 0.930 . S
H650 C663 0.929 . S
H651 C661 0.929 . S
H652 C656 0.929 . S
H653 C662 0.929 . S
C654 H648 0.930 . S
C654 C655 1.367 . S
C654 C662 1.378 . S
C655 C654 1.367 . S
C655 C663 1.433 1_556 S
C656 H652 0.929 . S
C656 C658 1.378 1_545 S
C656 C660 1.350 . S
C657 C660 1.463 1_556 S
C657 C662 1.350 . S
C657 N665 1.427 1_556 S
C658 H649 0.930 . S
C658 C656 1.378 1_565 S
C658 C659 1.367 . S
C659 C658 1.367 . S
C659 C661 1.433 1_554 S
C660 C656 1.350 . S
C660 C657 1.463 1_554 S
C660 N664 1.427 1_544 S
C661 H651 0.929 . S
C661 C659 1.433 1_556 S
C661 N664 1.384 . S
C662 H653 0.929 . S
C662 C654 1.378 . S
C662 C657 1.350 . S
C663 H650 0.929 . S
C663 C655 1.433 1_554 S
C663 N665 1.384 . S
N664 C660 1.427 1_566 S
N664 C661 1.384 . S
N665 C657 1.427 1_554 S
N665 C663 1.384 . S
H666 C672 0.930 . S
H667 C676 0.930 . S
H668 C681 0.929 . S
H669 C679 0.929 . S
H670 C674 0.950 . S
H671 C680 0.929 . S
C672 H666 0.930 . S
C672 C673 1.367 . S
C672 C680 1.378 . S
C673 C672 1.367 . S
C673 C681 1.433 1_556 S
C674 H670 0.950 . S
C674 C676 1.352 1_545 S
C674 C678 1.354 . S
C675 C678 1.463 1_556 S
C675 C680 1.350 . S
C675 N683 1.427 1_556 S
C676 H667 0.930 . S
C676 C674 1.352 1_565 S
C676 C677 1.367 . S
C677 C676 1.367 . S
C677 C679 1.433 1_554 S
C678 C674 1.354 . S
C678 C675 1.463 1_554 S
C678 N682 1.427 1_544 S
C679 H669 0.929 . S
C679 C677 1.433 1_556 S
C679 N682 1.384 . S
C680 H671 0.929 . S
C680 C672 1.378 . S
C680 C675 1.350 . S
C681 H668 0.929 . S
C681 C673 1.433 1_554 S
C681 N683 1.384 . S
N682 C678 1.427 1_566 S
N682 C679 1.384 . S
N683 C675 1.427 1_554 S
N683 C681 1.384 . S
H684 C690 0.930 . S
H685 C694 0.930 . S
H686 C699 0.929 . S
H687 C697 0.929 . S
H688 C692 0.929 . S
H689 C698 0.929 . S
C690 H684 0.930 . S
C690 C691 1.367 1_556 S
C690 C698 1.378 . S
C691 C690 1.367 1_554 S
C691 C699 1.433 . S
C692 H688 0.929 . S
C692 C694 1.378 . S
C692 C696 1.350 1_654 S
C693 C696 1.463 1_554 S
C693 C698 1.350 1_554 S
C693 N701 1.427 . S
C694 H685 0.930 . S
C694 C692 1.378 . S
C694 C695 1.367 1_554 S
C695 C694 1.367 1_556 S
C695 C697 1.433 . S
C696 C692 1.350 1_456 S
C696 C693 1.463 1_556 S
C696 N700 1.458 . S
C697 H687 0.929 . S
C697 C695 1.433 . S
C697 N700 1.331 1_655 S
C698 H689 0.929 . S
C698 C690 1.378 . S
C698 C693 1.350 1_556 S
C699 H686 0.929 . S
C699 C691 1.433 . S
C699 N701 1.384 . S
N700 C696 1.458 . S
N700 C697 1.331 1_455 S
N701 C693 1.427 . S
N701 C699 1.384 . S
H702 C708 0.930 . S
H703 C712 0.930 . S
H704 C717 0.929 . S
H705 C715 0.929 . S
H706 C710 0.929 . S
H707 C716 0.929 . S
C708 H702 0.930 . S
C708 C709 1.367 1_556 S
C708 C716 1.378 . S
C709 C708 1.367 1_554 S
C709 C717 1.433 . S
C710 H706 0.929 . S
C710 C712 1.378 . S
C710 C714 1.350 1_554 S
C711 C714 1.463 1_554 S
C711 C716 1.350 1_554 S
C711 N719 1.427 . S
C712 H703 0.930 . S
C712 C710 1.378 . S
C712 C713 1.367 1_554 S
C713 C712 1.367 1_556 S
C713 C715 1.433 . S
C714 C710 1.350 1_556 S
C714 C711 1.463 1_556 S
C714 N718 1.427 . S
C715 H705 0.929 . S
C715 C713 1.433 . S
C715 N718 1.384 . S
C716 H707 0.929 . S
C716 C708 1.378 . S
C716 C711 1.350 1_556 S
C717 H704 0.929 . S
C717 C709 1.433 . S
C717 N719 1.384 . S
N718 C714 1.427 . S
N718 C715 1.384 . S
N719 C711 1.427 . S
N719 C717 1.384 . S
H720 C726 0.930 . S
H721 C730 0.930 . S
H722 C735 0.929 . S
H723 C733 0.929 . S
H724 C728 0.929 . S
H725 C734 0.929 . S
C726 H720 0.930 . S
C726 C727 1.367 . S
C726 C734 1.378 . S
C727 C726 1.367 . S
C727 C735 1.433 . S
C728 H724 0.929 . S
C728 C730 1.378 . S
C728 C732 1.350 . S
C729 C732 1.463 . S
C729 C734 1.350 . S
C729 N737 1.427 . S
C730 H721 0.930 . S
C730 C728 1.378 . S
C730 C731 1.367 . S
C731 C730 1.367 . S
C731 C733 1.433 . S
C732 C728 1.350 . S
C732 C729 1.463 . S
C732 N736 1.427 . S
C733 H723 0.929 . S
C733 C731 1.433 . S
C733 N736 1.384 . S
C734 H725 0.929 . S
C734 C726 1.378 . S
C734 C729 1.350 . S
C735 H722 0.929 . S
C735 C727 1.433 . S
C735 N737 1.384 . S
N736 C732 1.427 . S
N736 C733 1.384 . S
N737 C729 1.427 . S
N737 C735 1.384 . S
H738 C744 0.930 . S
H739 C748 0.930 . S
H740 C753 0.929 . S
H741 C751 0.929 . S
H742 C746 0.929 . S
H743 C752 0.929 . S
C744 H738 0.930 . S
C744 C745 1.367 . S
C744 C752 1.378 . S
C745 C744 1.367 . S
C745 C753 1.433 . S
C746 H742 0.929 . S
C746 C748 1.378 . S
C746 C750 1.350 . S
C747 C750 1.463 . S
C747 C752 1.350 . S
C747 N755 1.427 . S
C748 H739 0.930 . S
C748 C746 1.378 . S
C748 C749 1.367 . S
C749 C748 1.367 . S
C749 C751 1.433 . S
C750 C746 1.350 . S
C750 C747 1.463 . S
C750 N754 1.427 . S
C751 H741 0.929 . S
C751 C749 1.433 . S
C751 N754 1.384 . S
C752 H743 0.929 . S
C752 C744 1.378 . S
C752 C747 1.350 . S
C753 H740 0.929 . S
C753 C745 1.433 . S
C753 N755 1.384 . S
N754 C750 1.427 . S
N754 C751 1.384 . S
N755 C747 1.427 . S
N755 C753 1.384 . S
H756 C762 0.930 . S
H757 C766 0.930 . S
H758 C771 0.929 . S
H759 C769 0.929 . S
H760 C764 0.929 . S
H761 C770 0.929 . S
C762 H756 0.930 . S
C762 C763 1.367 . S
C762 C770 1.378 . S
C763 C762 1.367 . S
C763 C771 1.433 . S
C764 H760 0.929 . S
C764 C766 1.378 . S
C764 C768 1.350 . S
C765 C768 1.463 . S
C765 C770 1.350 . S
C765 N773 1.427 . S
C766 H757 0.930 . S
C766 C764 1.378 . S
C766 C767 1.367 . S
C767 C766 1.367 . S
C767 C769 1.433 . S
C768 C764 1.350 . S
C768 C765 1.463 . S
C768 N772 1.427 . S
C769 H759 0.929 . S
C769 C767 1.433 . S
C769 N772 1.384 . S
C770 H761 0.929 . S
C770 C762 1.378 . S
C770 C765 1.350 . S
C771 H758 0.929 . S
C771 C763 1.433 . S
C771 N773 1.384 . S
N772 C768 1.427 . S
N772 C769 1.384 . S
N773 C765 1.427 . S
N773 C771 1.384 . S
H774 C780 0.930 . S
H775 C784 0.930 . S
H776 C789 0.929 . S
H777 C787 0.929 . S
H778 C782 0.929 . S
H779 C788 0.929 . S
C780 H774 0.930 . S
C780 C781 1.367 . S
C780 C788 1.378 . S
C781 C780 1.367 . S
C781 C789 1.433 . S
C782 H778 0.929 . S
C782 C784 1.378 . S
C782 C786 1.350 . S
C783 C786 1.463 . S
C783 C788 1.350 . S
C783 N791 1.427 . S
C784 H775 0.930 . S
C784 C782 1.378 . S
C784 C785 1.367 . S
C785 C784 1.367 . S
C785 C787 1.433 . S
C786 C782 1.350 . S
C786 C783 1.463 . S
C786 N790 1.427 . S
C787 H777 0.929 . S
C787 C785 1.433 . S
C787 N790 1.384 . S
C788 H779 0.929 . S
C788 C780 1.378 . S
C788 C783 1.350 . S
C789 H776 0.929 . S
C789 C781 1.433 . S
C789 N791 1.384 . S
N790 C786 1.427 . S
N790 C787 1.384 . S
N791 C783 1.427 . S
N791 C789 1.384 . S
H792 C798 0.930 . S
H793 C802 0.930 . S
H794 C807 0.929 . S
H795 C805 0.929 . S
H796 C800 0.929 . S
H797 C806 0.929 . S
C798 H792 0.930 . S
C798 C799 1.367 . S
C798 C806 1.378 . S
C799 C798 1.367 . S
C799 C807 1.433 . S
C800 H796 0.929 . S
C800 C802 1.378 . S
C800 C804 1.350 . S
C801 C804 1.463 . S
C801 C806 1.350 . S
C801 N809 1.427 . S
C802 H793 0.930 . S
C802 C800 1.378 . S
C802 C803 1.367 . S
C803 C802 1.367 . S
C803 C805 1.433 . S
C804 C800 1.350 . S
C804 C801 1.463 . S
C804 N808 1.427 . S
C805 H795 0.929 . S
C805 C803 1.433 . S
C805 N808 1.384 . S
C806 H797 0.929 . S
C806 C798 1.378 . S
C806 C801 1.350 . S
C807 H794 0.929 . S
C807 C799 1.433 . S
C807 N809 1.384 . S
N808 C804 1.427 . S
N808 C805 1.384 . S
N809 C801 1.427 . S
N809 C807 1.384 . S
H810 C816 0.930 . S
H811 C820 0.930 . S
H812 C825 0.929 . S
H813 C823 0.929 . S
H814 C818 0.929 . S
H815 C824 0.929 . S
C816 H810 0.930 . S
C816 C817 1.367 . S
C816 C824 1.378 . S
C817 C816 1.367 . S
C817 C825 1.433 . S
C818 H814 0.929 . S
C818 C820 1.378 . S
C818 C822 1.350 . S
C819 C822 1.463 . S
C819 C824 1.350 . S
C819 N827 1.427 . S
C820 H811 0.930 . S
C820 C818 1.378 . S
C820 C821 1.367 . S
C821 C820 1.367 . S
C821 C823 1.433 . S
C822 C818 1.350 . S
C822 C819 1.463 . S
C822 N826 1.427 . S
C823 H813 0.929 . S
C823 C821 1.433 . S
C823 N826 1.384 . S
C824 H815 0.929 . S
C824 C816 1.378 . S
C824 C819 1.350 . S
C825 H812 0.929 . S
C825 C817 1.433 . S
C825 N827 1.384 . S
N826 C822 1.427 . S
N826 C823 1.384 . S
N827 C819 1.427 . S
N827 C825 1.384 . S
H828 C834 0.930 . S
H829 C838 0.930 . S
H830 C843 0.929 . S
H831 C841 0.929 . S
H832 C836 0.929 . S
H833 C842 0.929 . S
C834 H828 0.930 . S
C834 C835 1.367 . S
C834 C842 1.378 . S
C835 C834 1.367 . S
C835 C843 1.433 . S
C836 H832 0.929 . S
C836 C838 1.378 . S
C836 C840 1.350 . S
C837 C840 1.463 . S
C837 C842 1.350 . S
C837 N845 1.427 . S
C838 H829 0.930 . S
C838 C836 1.378 . S
C838 C839 1.367 . S
C839 C838 1.367 . S
C839 C841 1.433 . S
C840 C836 1.350 . S
C840 C837 1.463 . S
C840 N844 1.427 . S
C841 H831 0.929 . S
C841 C839 1.433 . S
C841 N844 1.384 . S
C842 H833 0.929 . S
C842 C834 1.378 . S
C842 C837 1.350 . S
C843 H830 0.929 . S
C843 C835 1.433 . S
C843 N845 1.384 . S
N844 C840 1.427 . S
N844 C841 1.384 . S
N845 C837 1.427 . S
N845 C843 1.384 . S
H846 C852 0.930 . S
H847 C856 0.930 . S
H848 C861 0.929 . S
H849 C859 0.929 . S
H850 C854 0.929 . S
H851 C860 0.929 . S
C852 H846 0.930 . S
C852 C853 1.367 . S
C852 C860 1.378 . S
C853 C852 1.367 . S
C853 C861 1.433 . S
C854 H850 0.929 . S
C854 C856 1.378 . S
C854 C858 1.350 . S
C855 C858 1.463 . S
C855 C860 1.350 . S
C855 N863 1.427 . S
C856 H847 0.930 . S
C856 C854 1.378 . S
C856 C857 1.367 . S
C857 C856 1.367 . S
C857 C859 1.433 . S
C858 C854 1.350 . S
C858 C855 1.463 . S
C858 N862 1.427 . S
C859 H849 0.929 . S
C859 C857 1.433 . S
C859 N862 1.384 . S
C860 H851 0.929 . S
C860 C852 1.378 . S
C860 C855 1.350 . S
C861 H848 0.929 . S
C861 C853 1.433 . S
C861 N863 1.384 . S
N862 C858 1.427 . S
N862 C859 1.384 . S
N863 C855 1.427 . S
N863 C861 1.384 . S
H864 C870 0.930 . S
H865 C874 0.930 . S
H866 C879 0.929 . S
H867 C877 0.929 . S
H868 C872 0.929 . S
H869 C878 0.929 . S
C870 H864 0.930 . S
C870 C871 1.367 . S
C870 C878 1.378 . S
C871 C870 1.367 . S
C871 C879 1.433 . S
C872 H868 0.929 . S
C872 C874 1.378 . S
C872 C876 1.350 . S
C873 C876 1.463 . S
C873 C878 1.350 . S
C873 N881 1.427 . S
C874 H865 0.930 . S
C874 C872 1.378 . S
C874 C875 1.367 . S
C875 C874 1.367 . S
C875 C877 1.433 . S
C876 C872 1.350 . S
C876 C873 1.463 . S
C876 N880 1.427 . S
C877 H867 0.929 . S
C877 C875 1.433 . S
C877 N880 1.384 . S
C878 H869 0.929 . S
C878 C870 1.378 . S
C878 C873 1.350 . S
C879 H866 0.929 . S
C879 C871 1.433 . S
C879 N881 1.384 . S
N880 C876 1.427 . S
N880 C877 1.384 . S
N881 C873 1.427 . S
N881 C879 1.384 . S
H882 C888 0.930 . S
H883 C892 0.930 . S
H884 C897 0.929 . S
H885 C895 0.929 . S
H886 C890 0.929 . S
H887 C896 0.929 . S
C888 H882 0.930 . S
C888 C889 1.367 . S
C888 C896 1.378 . S
C889 C888 1.367 . S
C889 C897 1.433 . S
C890 H886 0.929 . S
C890 C892 1.378 . S
C890 C894 1.350 . S
C891 C894 1.463 . S
C891 C896 1.350 . S
C891 N899 1.427 . S
C892 H883 0.930 . S
C892 C890 1.378 . S
C892 C893 1.367 . S
C893 C892 1.367 . S
C893 C895 1.433 . S
C894 C890 1.350 . S
C894 C891 1.463 . S
C894 N898 1.427 . S
C895 H885 0.929 . S
C895 C893 1.433 . S
C895 N898 1.384 . S
C896 H887 0.929 . S
C896 C888 1.378 . S
C896 C891 1.350 . S
C897 H884 0.929 . S
C897 C889 1.433 . S
C897 N899 1.384 . S
N898 C894 1.427 . S
N898 C895 1.384 . S
N899 C891 1.427 . S
N899 C897 1.384 . S
H900 C906 0.930 . S
H901 C910 0.930 . S
H902 C915 0.929 . S
H903 C913 0.929 . S
H904 C908 0.929 . S
H905 C914 0.929 . S
C906 H900 0.930 . S
C906 C907 1.367 . S
C906 C914 1.378 . S
C907 C906 1.367 . S
C907 C915 1.433 . S
C908 H904 0.929 . S
C908 C910 1.378 . S
C908 C912 1.350 . S
C909 C912 1.463 . S
C909 C914 1.350 . S
C909 N917 1.427 . S
C910 H901 0.930 . S
C910 C908 1.378 . S
C910 C911 1.367 . S
C911 C910 1.367 . S
C911 C913 1.433 . S
C912 C908 1.350 . S
C912 C909 1.463 . S
C912 N916 1.427 . S
C913 H903 0.929 . S
C913 C911 1.433 . S
C913 N916 1.384 . S
C914 H905 0.929 . S
C914 C906 1.378 . S
C914 C909 1.350 . S
C915 H902 0.929 . S
C915 C907 1.433 . S
C915 N917 1.384 . S
N916 C912 1.427 . S
N916 C913 1.384 . S
N917 C909 1.427 . S
N917 C915 1.384 . S
H918 C924 0.930 . S
H919 C928 0.930 . S
H920 C933 0.929 . S
H921 C931 0.929 . S
H922 C926 0.929 . S
H923 C932 0.929 . S
C924 H918 0.930 . S
C924 C925 1.367 . S
C924 C932 1.378 . S
C925 C924 1.367 . S
C925 C933 1.433 . S
C926 H922 0.929 . S
C926 C928 1.378 . S
C926 C930 1.350 . S
C927 C930 1.463 . S
C927 C932 1.350 . S
C927 N935 1.427 . S
C928 H919 0.930 . S
C928 C926 1.378 . S
C928 C929 1.367 . S
C929 C928 1.367 . S
C929 C931 1.433 . S
C930 C926 1.350 . S
C930 C927 1.463 . S
C930 N934 1.427 . S
C931 H921 0.929 . S
C931 C929 1.433 . S
C931 N934 1.384 . S
C932 H923 0.929 . S
C932 C924 1.378 . S
C932 C927 1.350 . S
C933 H920 0.929 . S
C933 C925 1.433 . S
C933 N935 1.384 . S
N934 C930 1.427 . S
N934 C931 1.384 . S
N935 C927 1.427 . S
N935 C933 1.384 . S
H936 C942 0.930 . S
H937 C946 0.930 . S
H938 C951 0.929 . S
H939 C949 0.929 . S
H940 C944 0.929 . S
H941 C950 0.929 . S
C942 H936 0.930 . S
C942 C943 1.367 . S
C942 C950 1.378 . S
C943 C942 1.367 . S
C943 C951 1.433 . S
C944 H940 0.929 . S
C944 C946 1.378 . S
C944 C948 1.350 . S
C945 C948 1.463 . S
C945 C950 1.350 . S
C945 N953 1.427 . S
C946 H937 0.930 . S
C946 C944 1.378 . S
C946 C947 1.367 . S
C947 C946 1.367 . S
C947 C949 1.433 . S
C948 C944 1.350 . S
C948 C945 1.463 . S
C948 N952 1.427 . S
C949 H939 0.929 . S
C949 C947 1.433 . S
C949 N952 1.384 . S
C950 H941 0.929 . S
C950 C942 1.378 . S
C950 C945 1.350 . S
C951 H938 0.929 . S
C951 C943 1.433 . S
C951 N953 1.384 . S
N952 C948 1.427 . S
N952 C949 1.384 . S
N953 C945 1.427 . S
N953 C951 1.384 . S
H954 C960 0.930 . S
H955 C964 0.930 . S
H956 C969 0.929 . S
H957 C967 0.929 . S
H958 C962 0.929 . S
H959 C968 0.929 . S
C960 H954 0.930 . S
C960 C961 1.367 . S
C960 C968 1.378 . S
C961 C960 1.367 . S
C961 C969 1.433 . S
C962 H958 0.929 . S
C962 C964 1.378 . S
C962 C966 1.350 . S
C963 C966 1.463 . S
C963 C968 1.350 . S
C963 N971 1.427 . S
C964 H955 0.930 . S
C964 C962 1.378 . S
C964 C965 1.367 . S
C965 C964 1.367 . S
C965 C967 1.433 . S
C966 C962 1.350 . S
C966 C963 1.463 . S
C966 N970 1.427 . S
C967 H957 0.929 . S
C967 C965 1.433 . S
C967 N970 1.384 . S
C968 H959 0.929 . S
C968 C960 1.378 . S
C968 C963 1.350 . S
C969 H956 0.929 . S
C969 C961 1.433 . S
C969 N971 1.384 . S
N970 C966 1.427 . S
N970 C967 1.384 . S
N971 C963 1.427 . S
N971 C969 1.384 . S
H972 C978 0.930 . S
H973 C982 0.930 . S
H974 C987 0.929 . S
H975 C985 0.929 . S
H976 C980 0.929 . S
H977 C986 0.929 . S
C978 H972 0.930 . S
C978 C979 1.367 . S
C978 C986 1.378 . S
C979 C978 1.367 . S
C979 C987 1.433 . S
C980 H976 0.929 . S
C980 C982 1.378 . S
C980 C984 1.350 . S
C981 C984 1.463 . S
C981 C986 1.350 . S
C981 N989 1.427 . S
C982 H973 0.930 . S
C982 C980 1.378 . S
C982 C983 1.367 . S
C983 C982 1.367 . S
C983 C985 1.433 . S
C984 C980 1.350 . S
C984 C981 1.463 . S
C984 N988 1.427 . S
C985 H975 0.929 . S
C985 C983 1.433 . S
C985 N988 1.384 . S
C986 H977 0.929 . S
C986 C978 1.378 . S
C986 C981 1.350 . S
C987 H974 0.929 . S
C987 C979 1.433 . S
C987 N989 1.384 . S
N988 C984 1.427 . S
N988 C985 1.384 . S
N989 C981 1.427 . S
N989 C987 1.384 . S
H990 C996 0.930 . S
H991 C1000 0.930 . S
H992 C1005 0.929 . S
H993 C1003 0.929 . S
H994 C998 0.929 . S
H995 C1004 0.929 . S
C996 H990 0.930 . S
C996 C997 1.367 . S
C996 C1004 1.378 . S
C997 C996 1.367 . S
C997 C1005 1.433 . S
C998 H994 0.929 . S
C998 C1000 1.378 . S
C998 C1002 1.350 . S
C999 C1002 1.463 . S
C999 C1004 1.350 . S
C999 N1007 1.427 . S
C1000 H991 0.930 . S
C1000 C998 1.378 . S
C1000 C1001 1.367 . S
C1001 C1000 1.367 . S
C1001 C1003 1.433 . S
C1002 C998 1.350 . S
C1002 C999 1.463 . S
C1002 N1006 1.427 . S
C1003 H993 0.929 . S
C1003 C1001 1.433 . S
C1003 N1006 1.384 . S
C1004 H995 0.929 . S
C1004 C996 1.378 . S
C1004 C999 1.350 . S
C1005 H992 0.929 . S
C1005 C997 1.433 . S
C1005 N1007 1.384 . S
N1006 C1002 1.427 . S
N1006 C1003 1.384 . S
N1007 C999 1.427 . S
N1007 C1005 1.384 . S
H1008 C1014 0.930 . S
H1009 C1018 0.930 . S
H1010 C1023 0.929 . S
H1011 C1021 0.929 . S
H1012 C1016 0.929 . S
H1013 C1022 0.929 . S
C1014 H1008 0.930 . S
C1014 C1015 1.367 . S
C1014 C1022 1.378 . S
C1015 C1014 1.367 . S
C1015 C1023 1.433 . S
C1016 H1012 0.929 . S
C1016 C1018 1.378 . S
C1016 C1020 1.350 . S
C1017 C1020 1.463 . S
C1017 C1022 1.350 . S
C1017 N1025 1.427 . S
C1018 H1009 0.930 . S
C1018 C1016 1.378 . S
C1018 C1019 1.367 . S
C1019 C1018 1.367 . S
C1019 C1021 1.433 . S
C1020 C1016 1.350 . S
C1020 C1017 1.463 . S
C1020 N1024 1.427 . S
C1021 H1011 0.929 . S
C1021 C1019 1.433 . S
C1021 N1024 1.384 . S
C1022 H1013 0.929 . S
C1022 C1014 1.378 . S
C1022 C1017 1.350 . S
C1023 H1010 0.929 . S
C1023 C1015 1.433 . S
C1023 N1025 1.384 . S
N1024 C1020 1.427 . S
N1024 C1021 1.384 . S
N1025 C1017 1.427 . S
N1025 C1023 1.384 . S
H1026 C1032 0.930 . S
H1027 C1036 0.930 . S
H1028 C1041 0.929 . S
H1029 C1039 0.929 . S
H1030 C1034 0.929 . S
H1031 C1040 0.929 . S
C1032 H1026 0.930 . S
C1032 C1033 1.367 . S
C1032 C1040 1.378 . S
C1033 C1032 1.367 . S
C1033 C1041 1.433 . S
C1034 H1030 0.929 . S
C1034 C1036 1.378 . S
C1034 C1038 1.350 . S
C1035 C1038 1.463 . S
C1035 C1040 1.350 . S
C1035 N1043 1.427 . S
C1036 H1027 0.930 . S
C1036 C1034 1.378 . S
C1036 C1037 1.367 . S
C1037 C1036 1.367 . S
C1037 C1039 1.433 . S
C1038 C1034 1.350 . S
C1038 C1035 1.463 . S
C1038 N1042 1.427 . S
C1039 H1029 0.929 . S
C1039 C1037 1.433 . S
C1039 N1042 1.384 . S
C1040 H1031 0.929 . S
C1040 C1032 1.378 . S
C1040 C1035 1.350 . S
C1041 H1028 0.929 . S
C1041 C1033 1.433 . S
C1041 N1043 1.384 . S
N1042 C1038 1.427 . S
N1042 C1039 1.384 . S
N1043 C1035 1.427 . S
N1043 C1041 1.384 . S
H1044 C1050 0.930 . S
H1045 C1054 0.930 1_655 S
H1046 C1059 0.961 . S
H1047 C1057 0.929 . S
H1048 C1052 0.903 1_655 S
H1049 C1058 0.929 . S
C1050 H1044 0.930 . S
C1050 C1051 1.367 . S
C1050 C1058 1.378 . S
C1051 C1050 1.367 . S
C1051 C1059 1.402 1_455 S
C1052 H1048 0.903 1_455 S
C1052 C1054 1.379 . S
C1052 C1056 1.376 . S
C1053 C1056 1.463 1_554 S
C1053 C1058 1.350 . S
C1053 N1061 1.425 1_455 S
C1054 H1045 0.930 1_455 S
C1054 C1052 1.379 . S
C1054 C1055 1.367 . S
C1055 C1054 1.367 . S
C1055 C1057 1.433 . S
C1056 C1052 1.376 . S
C1056 C1053 1.463 1_556 S
C1056 N1060 1.427 . S
C1057 H1047 0.929 . S
C1057 C1055 1.433 . S
C1057 N1060 1.384 . S
C1058 H1049 0.929 . S
C1058 C1050 1.378 . S
C1058 C1053 1.350 . S
C1059 H1046 0.961 . S
C1059 C1051 1.402 1_655 S
C1059 N1061 1.384 . S
N1060 C1056 1.427 . S
N1060 C1057 1.384 . S
N1061 C1053 1.425 1_655 S
N1061 C1059 1.384 . S
H1062 C1068 0.930 . S
H1063 C1072 0.930 . S
H1064 C1077 0.929 . S
H1065 C1075 0.929 . S
H1066 C1070 0.929 . S
H1067 C1076 0.929 . S
C1068 H1062 0.930 . S
C1068 C1069 1.367 . S
C1068 C1076 1.378 . S
C1069 C1068 1.367 . S
C1069 C1077 1.433 . S
C1070 H1066 0.929 . S
C1070 C1072 1.378 . S
C1070 C1074 1.350 . S
C1071 C1074 1.463 1_554 S
C1071 C1076 1.350 . S
C1071 N1079 1.427 . S
C1072 H1063 0.930 . S
C1072 C1070 1.378 . S
C1072 C1073 1.367 . S
C1073 C1072 1.367 . S
C1073 C1075 1.433 . S
C1074 C1070 1.350 . S
C1074 C1071 1.463 1_556 S
C1074 N1078 1.427 . S
C1075 H1065 0.929 . S
C1075 C1073 1.433 . S
C1075 N1078 1.384 . S
C1076 H1067 0.929 . S
C1076 C1068 1.378 . S
C1076 C1071 1.350 . S
C1077 H1064 0.929 . S
C1077 C1069 1.433 . S
C1077 N1079 1.384 . S
N1078 C1074 1.427 . S
N1078 C1075 1.384 . S
N1079 C1071 1.427 . S
N1079 C1077 1.384 . S
H1080 C1086 0.930 . S
H1081 C1090 0.930 . S
H1082 C1095 0.929 . S
H1083 C1093 0.929 . S
H1084 C1088 0.929 . S
H1085 C1094 0.929 . S
C1086 H1080 0.930 . S
C1086 C1087 1.367 1_565 S
C1086 C1094 1.378 . S
C1087 C1086 1.367 1_545 S
C1087 C1095 1.433 . S
C1088 H1084 0.929 . S
C1088 C1090 1.378 . S
C1088 C1092 1.350 . S
C1089 C1092 1.463 1_554 S
C1089 C1094 1.350 1_545 S
C1089 N1097 1.427 . S
C1090 H1081 0.930 . S
C1090 C1088 1.378 . S
C1090 C1091 1.367 . S
C1091 C1090 1.367 . S
C1091 C1093 1.433 1_545 S
C1092 C1088 1.350 . S
C1092 C1089 1.463 1_556 S
C1092 N1096 1.427 1_545 S
C1093 H1083 0.929 . S
C1093 C1091 1.433 1_565 S
C1093 N1096 1.384 . S
C1094 H1085 0.929 . S
C1094 C1086 1.378 . S
C1094 C1089 1.350 1_565 S
C1095 H1082 0.929 . S
C1095 C1087 1.433 . S
C1095 N1097 1.384 . S
N1096 C1092 1.427 1_565 S
N1096 C1093 1.384 . S
N1097 C1089 1.427 . S
N1097 C1095 1.384 . S
H1098 C1104 0.930 1_655 S
H1099 C1108 0.930 . S
H1100 C1113 0.929 . S
H1101 C1111 0.929 1_655 S
H1102 C1106 0.929 . S
H1103 C1112 0.920 1_655 S
C1104 H1098 0.930 1_455 S
C1104 C1105 1.367 . S
C1104 C1112 1.378 . S
C1105 C1104 1.367 . S
C1105 C1113 1.433 . S
C1106 H1102 0.929 . S
C1106 C1108 1.378 . S
C1106 C1110 1.350 . S
C1107 C1110 1.463 1_556 S
C1107 C1112 1.350 . S
C1107 N1115 1.427 . S
C1108 H1099 0.930 . S
C1108 C1106 1.378 . S
C1108 C1109 1.367 . S
C1109 C1108 1.367 . S
C1109 C1111 1.433 . S
C1110 C1106 1.350 . S
C1110 C1107 1.463 1_554 S
C1110 N1114 1.427 . S
C1111 H1101 0.929 1_455 S
C1111 C1109 1.433 . S
C1111 N1114 1.384 . S
C1112 H1103 0.920 1_455 S
C1112 C1104 1.378 . S
C1112 C1107 1.350 . S
C1113 H1100 0.929 . S
C1113 C1105 1.433 . S
C1113 N1115 1.384 . S
N1114 C1110 1.427 . S
N1114 C1111 1.384 . S
N1115 C1107 1.427 . S
N1115 C1113 1.384 . S
H1116 C1122 0.930 . S
H1117 C1126 0.930 . S
H1118 C1131 0.929 . S
H1119 C1129 0.929 . S
H1120 C1124 0.929 . S
H1121 C1130 0.929 . S
C1122 H1116 0.930 . S
C1122 C1123 1.367 . S
C1122 C1130 1.378 . S
C1123 C1122 1.367 . S
C1123 C1131 1.433 . S
C1124 H1120 0.929 . S
C1124 C1126 1.378 . S
C1124 C1128 1.350 . S
C1125 C1128 1.463 1_554 S
C1125 C1130 1.350 . S
C1125 N1133 1.427 . S
C1126 H1117 0.930 . S
C1126 C1124 1.378 . S
C1126 C1127 1.367 . S
C1127 C1126 1.367 . S
C1127 C1129 1.433 . S
C1128 C1124 1.350 . S
C1128 C1125 1.463 1_556 S
C1128 N1132 1.427 . S
C1129 H1119 0.929 . S
C1129 C1127 1.433 . S
C1129 N1132 1.384 . S
C1130 H1121 0.929 . S
C1130 C1122 1.378 . S
C1130 C1125 1.350 . S
C1131 H1118 0.929 . S
C1131 C1123 1.433 . S
C1131 N1133 1.384 . S
N1132 C1128 1.427 . S
N1132 C1129 1.384 . S
N1133 C1125 1.427 . S
N1133 C1131 1.384 . S
H1134 C1140 0.930 . S
H1135 C1144 0.930 1_565 S
H1136 C1149 0.929 1_565 S
H1137 C1147 0.929 . S
H1138 C1142 0.929 1_565 S
H1139 C1148 0.929 . S
C1140 H1134 0.930 . S
C1140 C1141 1.367 . S
C1140 C1148 1.378 . S
C1141 C1140 1.367 . S
C1141 C1149 1.433 . S
C1142 H1138 0.929 1_545 S
C1142 C1144 1.378 . S
C1142 C1146 1.350 . S
C1143 C1146 1.463 1_554 S
C1143 C1148 1.350 . S
C1143 N1151 1.427 . S
C1144 H1135 0.930 1_545 S
C1144 C1142 1.378 . S
C1144 C1145 1.367 . S
C1145 C1144 1.367 . S
C1145 C1147 1.433 . S
C1146 C1142 1.350 . S
C1146 C1143 1.463 1_556 S
C1146 N1150 1.427 . S
C1147 H1137 0.929 . S
C1147 C1145 1.433 . S
C1147 N1150 1.384 . S
C1148 H1139 0.929 . S
C1148 C1140 1.378 . S
C1148 C1143 1.350 . S
C1149 H1136 0.929 1_545 S
C1149 C1141 1.433 . S
C1149 N1151 1.384 . S
N1150 C1146 1.427 . S
N1150 C1147 1.384 . S
N1151 C1143 1.427 . S
N1151 C1149 1.384 . S
H1152 C1158 0.930 . S
H1153 C1162 0.930 . S
H1154 C1167 0.929 . S
H1155 C1165 0.929 . S
H1156 C1160 0.929 . S
H1157 C1166 0.929 . S
C1158 H1152 0.930 . S
C1158 C1159 1.367 . S
C1158 C1166 1.378 . S
C1159 C1158 1.367 . S
C1159 C1167 1.433 . S
C1160 H1156 0.929 . S
C1160 C1162 1.378 . S
C1160 C1164 1.350 . S
C1161 C1164 1.463 . S
C1161 C1166 1.350 . S
C1161 N1169 1.427 . S
C1162 H1153 0.930 . S
C1162 C1160 1.378 . S
C1162 C1163 1.367 . S
C1163 C1162 1.367 . S
C1163 C1165 1.433 . S
C1164 C1160 1.350 . S
C1164 C1161 1.463 . S
C1164 N1168 1.427 . S
C1165 H1155 0.929 . S
C1165 C1163 1.433 . S
C1165 N1168 1.384 . S
C1166 H1157 0.929 . S
C1166 C1158 1.378 . S
C1166 C1161 1.350 . S
C1167 H1154 0.929 . S
C1167 C1159 1.433 . S
C1167 N1169 1.384 . S
N1168 C1164 1.427 . S
N1168 C1165 1.384 . S
N1169 C1161 1.427 . S
N1169 C1167 1.384 . S
H1170 C1176 0.930 . S
H1171 C1180 0.930 . S
H1172 C1185 0.929 . S
H1173 C1183 0.929 . S
H1174 C1178 0.929 . S
H1175 C1184 0.929 . S
C1176 H1170 0.930 . S
C1176 C1177 1.367 . S
C1176 C1184 1.378 . S
C1177 C1176 1.367 . S
C1177 C1185 1.433 . S
C1178 H1174 0.929 . S
C1178 C1180 1.378 . S
C1178 C1182 1.350 . S
C1179 C1182 1.463 . S
C1179 C1184 1.350 . S
C1179 N1187 1.427 . S
C1180 H1171 0.930 . S
C1180 C1178 1.378 . S
C1180 C1181 1.367 . S
C1181 C1180 1.367 . S
C1181 C1183 1.433 . S
C1182 C1178 1.350 . S
C1182 C1179 1.463 . S
C1182 N1186 1.427 . S
C1183 H1173 0.929 . S
C1183 C1181 1.433 . S
C1183 N1186 1.384 . S
C1184 H1175 0.929 . S
C1184 C1176 1.378 . S
C1184 C1179 1.350 . S
C1185 H1172 0.929 . S
C1185 C1177 1.433 . S
C1185 N1187 1.384 . S
N1186 C1182 1.427 . S
N1186 C1183 1.384 . S
N1187 C1179 1.427 . S
N1187 C1185 1.384 . S
H1188 C1194 0.930 . S
H1189 C1198 0.930 . S
H1190 C1203 0.929 . S
H1191 C1201 0.929 . S
H1192 C1196 0.929 . S
H1193 C1202 0.929 . S
C1194 H1188 0.930 . S
C1194 C1195 1.367 . S
C1194 C1202 1.378 . S
C1195 C1194 1.367 . S
C1195 C1203 1.433 . S
C1196 H1192 0.929 . S
C1196 C1198 1.378 . S
C1196 C1200 1.350 . S
C1197 C1200 1.463 . S
C1197 C1202 1.350 . S
C1197 N1205 1.427 . S
C1198 H1189 0.930 . S
C1198 C1196 1.378 . S
C1198 C1199 1.367 . S
C1199 C1198 1.367 . S
C1199 C1201 1.433 . S
C1200 C1196 1.350 . S
C1200 C1197 1.463 . S
C1200 N1204 1.427 . S
C1201 H1191 0.929 . S
C1201 C1199 1.433 . S
C1201 N1204 1.384 . S
C1202 H1193 0.929 . S
C1202 C1194 1.378 . S
C1202 C1197 1.350 . S
C1203 H1190 0.929 . S
C1203 C1195 1.433 . S
C1203 N1205 1.384 . S
N1204 C1200 1.427 . S
N1204 C1201 1.384 . S
N1205 C1197 1.427 . S
N1205 C1203 1.384 . S
H1206 C1212 0.930 . S
H1207 C1216 0.930 . S
H1208 C1221 0.929 . S
H1209 C1219 0.929 . S
H1210 C1214 0.929 . S
H1211 C1220 0.929 . S
C1212 H1206 0.930 . S
C1212 C1213 1.367 . S
C1212 C1220 1.378 . S
C1213 C1212 1.367 . S
C1213 C1221 1.433 . S
C1214 H1210 0.929 . S
C1214 C1216 1.378 . S
C1214 C1218 1.350 . S
C1215 C1218 1.463 . S
C1215 C1220 1.350 . S
C1215 N1223 1.427 . S
C1216 H1207 0.930 . S
C1216 C1214 1.378 . S
C1216 C1217 1.367 . S
C1217 C1216 1.367 . S
C1217 C1219 1.433 . S
C1218 C1214 1.350 . S
C1218 C1215 1.463 . S
C1218 N1222 1.427 . S
C1219 H1209 0.929 . S
C1219 C1217 1.433 . S
C1219 N1222 1.384 . S
C1220 H1211 0.929 . S
C1220 C1212 1.378 . S
C1220 C1215 1.350 . S
C1221 H1208 0.929 . S
C1221 C1213 1.433 . S
C1221 N1223 1.384 . S
N1222 C1218 1.427 . S
N1222 C1219 1.384 . S
N1223 C1215 1.427 . S
N1223 C1221 1.384 . S
H1224 C1230 0.930 . S
H1225 C1234 0.930 . S
H1226 C1239 0.929 . S
H1227 C1237 0.929 . S
H1228 C1232 0.929 . S
H1229 C1238 0.929 . S
C1230 H1224 0.930 . S
C1230 C1231 1.367 . S
C1230 C1238 1.378 . S
C1231 C1230 1.367 . S
C1231 C1239 1.433 . S
C1232 H1228 0.929 . S
C1232 C1234 1.378 . S
C1232 C1236 1.350 . S
C1233 C1236 1.463 . S
C1233 C1238 1.350 . S
C1233 N1241 1.427 . S
C1234 H1225 0.930 . S
C1234 C1232 1.378 . S
C1234 C1235 1.367 . S
C1235 C1234 1.367 . S
C1235 C1237 1.433 . S
C1236 C1232 1.350 . S
C1236 C1233 1.463 . S
C1236 N1240 1.427 . S
C1237 H1227 0.929 . S
C1237 C1235 1.433 . S
C1237 N1240 1.384 . S
C1238 H1229 0.929 . S
C1238 C1230 1.378 . S
C1238 C1233 1.350 . S
C1239 H1226 0.929 . S
C1239 C1231 1.433 . S
C1239 N1241 1.384 . S
N1240 C1236 1.427 . S
N1240 C1237 1.384 . S
N1241 C1233 1.427 . S
N1241 C1239 1.384 . S
H1242 C1248 0.930 . S
H1243 C1252 0.930 . S
H1244 C1257 0.929 . S
H1245 C1255 0.929 . S
H1246 C1250 0.929 . S
H1247 C1256 0.929 . S
C1248 H1242 0.930 . S
C1248 C1249 1.367 . S
C1248 C1256 1.378 . S
C1249 C1248 1.367 . S
C1249 C1257 1.433 . S
C1250 H1246 0.929 . S
C1250 C1252 1.378 . S
C1250 C1254 1.350 . S
C1251 C1254 1.463 . S
C1251 C1256 1.350 . S
C1251 N1259 1.427 . S
C1252 H1243 0.930 . S
C1252 C1250 1.378 . S
C1252 C1253 1.367 . S
C1253 C1252 1.367 . S
C1253 C1255 1.433 . S
C1254 C1250 1.350 . S
C1254 C1251 1.463 . S
C1254 N1258 1.427 . S
C1255 H1245 0.929 . S
C1255 C1253 1.433 . S
C1255 N1258 1.384 . S
C1256 H1247 0.929 . S
C1256 C1248 1.378 . S
C1256 C1251 1.350 . S
C1257 H1244 0.929 . S
C1257 C1249 1.433 . S
C1257 N1259 1.384 . S
N1258 C1254 1.427 . S
N1258 C1255 1.384 . S
N1259 C1251 1.427 . S
N1259 C1257 1.384 . S
H1260 C1266 0.930 . S
H1261 C1270 0.930 . S
H1262 C1275 0.929 . S
H1263 C1273 0.929 . S
H1264 C1268 0.929 . S
H1265 C1274 0.929 . S
C1266 H1260 0.930 . S
C1266 C1267 1.367 . S
C1266 C1274 1.378 . S
C1267 C1266 1.367 . S
C1267 C1275 1.433 . S
C1268 H1264 0.929 . S
C1268 C1270 1.378 . S
C1268 C1272 1.350 . S
C1269 C1272 1.463 . S
C1269 C1274 1.350 . S
C1269 N1277 1.427 . S
C1270 H1261 0.930 . S
C1270 C1268 1.378 . S
C1270 C1271 1.367 . S
C1271 C1270 1.367 . S
C1271 C1273 1.433 . S
C1272 C1268 1.350 . S
C1272 C1269 1.463 . S
C1272 N1276 1.427 . S
C1273 H1263 0.929 . S
C1273 C1271 1.433 . S
C1273 N1276 1.384 . S
C1274 H1265 0.929 . S
C1274 C1266 1.378 . S
C1274 C1269 1.350 . S
C1275 H1262 0.929 . S
C1275 C1267 1.433 . S
C1275 N1277 1.384 . S
N1276 C1272 1.427 . S
N1276 C1273 1.384 . S
N1277 C1269 1.427 . S
N1277 C1275 1.384 . S
H1278 C1284 0.930 . S
H1279 C1288 0.930 . S
H1280 C1293 0.929 . S
H1281 C1291 0.929 . S
H1282 C1286 0.929 . S
H1283 C1292 0.929 . S
C1284 H1278 0.930 . S
C1284 C1285 1.367 . S
C1284 C1292 1.378 . S
C1285 C1284 1.367 . S
C1285 C1293 1.433 . S
C1286 H1282 0.929 . S
C1286 C1288 1.378 . S
C1286 C1290 1.350 . S
C1287 C1290 1.463 . S
C1287 C1292 1.350 . S
C1287 N1295 1.427 . S
C1288 H1279 0.930 . S
C1288 C1286 1.378 . S
C1288 C1289 1.367 . S
C1289 C1288 1.367 . S
C1289 C1291 1.433 . S
C1290 C1286 1.350 . S
C1290 C1287 1.463 . S
C1290 N1294 1.427 . S
C1291 H1281 0.929 . S
C1291 C1289 1.433 . S
C1291 N1294 1.384 . S
C1292 H1283 0.929 . S
C1292 C1284 1.378 . S
C1292 C1287 1.350 . S
C1293 H1280 0.929 . S
C1293 C1285 1.433 . S
C1293 N1295 1.384 . S
N1294 C1290 1.427 . S
N1294 C1291 1.384 . S
N1295 C1287 1.427 . S
N1295 C1293 1.384 . S
H1296 C1302 0.930 . S
H1297 C1306 0.930 . S
H1298 C1311 0.929 . S
H1299 C1309 0.929 . S
H1300 C1304 0.929 . S
H1301 C1310 0.929 . S
C1302 H1296 0.930 . S
C1302 C1303 1.367 . S
C1302 C1310 1.378 . S
C1303 C1302 1.367 . S
C1303 C1311 1.433 . S
C1304 H1300 0.929 . S
C1304 C1306 1.378 . S
C1304 C1308 1.350 . S
C1305 C1308 1.463 . S
C1305 C1310 1.350 . S
C1305 N1313 1.427 . S
C1306 H1297 0.930 . S
C1306 C1304 1.378 . S
C1306 C1307 1.367 . S
C1307 C1306 1.367 . S
C1307 C1309 1.433 . S
C1308 C1304 1.350 . S
C1308 C1305 1.463 . S
C1308 N1312 1.427 . S
C1309 H1299 0.929 . S
C1309 C1307 1.433 . S
C1309 N1312 1.384 . S
C1310 H1301 0.929 . S
C1310 C1302 1.378 . S
C1310 C1305 1.350 . S
C1311 H1298 0.929 . S
C1311 C1303 1.433 . S
C1311 N1313 1.384 . S
N1312 C1308 1.427 . S
N1312 C1309 1.384 . S
N1313 C1305 1.427 . S
N1313 C1311 1.384 . S
H1314 C1320 0.930 . S
H1315 C1324 0.930 . S
H1316 C1329 0.929 . S
H1317 C1327 0.929 . S
H1318 C1322 0.929 . S
H1319 C1328 0.929 . S
C1320 H1314 0.930 . S
C1320 C1321 1.367 . S
C1320 C1328 1.378 . S
C1321 C1320 1.367 . S
C1321 C1329 1.433 . S
C1322 H1318 0.929 . S
C1322 C1324 1.378 . S
C1322 C1326 1.350 . S
C1323 C1326 1.463 . S
C1323 C1328 1.350 . S
C1323 N1331 1.427 . S
C1324 H1315 0.930 . S
C1324 C1322 1.378 . S
C1324 C1325 1.367 . S
C1325 C1324 1.367 . S
C1325 C1327 1.433 . S
C1326 C1322 1.350 . S
C1326 C1323 1.463 . S
C1326 N1330 1.427 . S
C1327 H1317 0.929 . S
C1327 C1325 1.433 . S
C1327 N1330 1.384 . S
C1328 H1319 0.929 . S
C1328 C1320 1.378 . S
C1328 C1323 1.350 . S
C1329 H1316 0.929 . S
C1329 C1321 1.433 . S
C1329 N1331 1.384 . S
N1330 C1326 1.427 . S
N1330 C1327 1.384 . S
N1331 C1323 1.427 . S
N1331 C1329 1.384 . S
H1332 C1338 0.930 . S
H1333 C1342 0.930 . S
H1334 C1347 0.929 . S
H1335 C1345 0.929 . S
H1336 C1340 0.929 . S
H1337 C1346 0.929 . S
C1338 H1332 0.930 . S
C1338 C1339 1.367 . S
C1338 C1346 1.378 . S
C1339 C1338 1.367 . S
C1339 C1347 1.433 . S
C1340 H1336 0.929 . S
C1340 C1342 1.378 . S
C1340 C1344 1.350 . S
C1341 C1344 1.463 . S
C1341 C1346 1.350 . S
C1341 N1349 1.427 . S
C1342 H1333 0.930 . S
C1342 C1340 1.378 . S
C1342 C1343 1.367 . S
C1343 C1342 1.367 . S
C1343 C1345 1.433 . S
C1344 C1340 1.350 . S
C1344 C1341 1.463 . S
C1344 N1348 1.427 . S
C1345 H1335 0.929 . S
C1345 C1343 1.433 . S
C1345 N1348 1.384 . S
C1346 H1337 0.929 . S
C1346 C1338 1.378 . S
C1346 C1341 1.350 . S
C1347 H1334 0.929 . S
C1347 C1339 1.433 . S
C1347 N1349 1.384 . S
N1348 C1344 1.427 . S
N1348 C1345 1.384 . S
N1349 C1341 1.427 . S
N1349 C1347 1.384 . S
H1350 C1356 0.930 . S
H1351 C1360 0.930 . S
H1352 C1365 0.929 . S
H1353 C1363 0.929 . S
H1354 C1358 0.929 . S
H1355 C1364 0.929 . S
C1356 H1350 0.930 . S
C1356 C1357 1.367 . S
C1356 C1364 1.378 . S
C1357 C1356 1.367 . S
C1357 C1365 1.433 . S
C1358 H1354 0.929 . S
C1358 C1360 1.378 . S
C1358 C1362 1.350 . S
C1359 C1362 1.463 . S
C1359 C1364 1.350 . S
C1359 N1367 1.427 . S
C1360 H1351 0.930 . S
C1360 C1358 1.378 . S
C1360 C1361 1.367 . S
C1361 C1360 1.367 . S
C1361 C1363 1.433 . S
C1362 C1358 1.350 . S
C1362 C1359 1.463 . S
C1362 N1366 1.427 . S
C1363 H1353 0.929 . S
C1363 C1361 1.433 . S
C1363 N1366 1.384 . S
C1364 H1355 0.929 . S
C1364 C1356 1.378 . S
C1364 C1359 1.350 . S
C1365 H1352 0.929 . S
C1365 C1357 1.433 . S
C1365 N1367 1.384 . S
N1366 C1362 1.427 . S
N1366 C1363 1.384 . S
N1367 C1359 1.427 . S
N1367 C1365 1.384 . S
C403 C293 1.241 . S
C407 C8 1.254 . S
C421 C32 1.229 . S
C425 C316 1.231 . S
C439 C59 1.277 . S
C443 C279 1.276 . S
C457 C54 1.230 . S
C461 C172 1.230 . S
C475 C184 1.256 . S
C479 C21 1.239 . S
C493 C37 1.253 . S
C497 C150 1.266 . S
C511 C74 1.215 . S
C515 C228 1.214 . S
C529 C98 1.223 . S
C533 C250 1.222 . S
C547 C206 1.259 . S
C551 C131 1.246 . S
C565 C362 1.229 . S
C569 C118 1.228 . S
C583 C87 1.265 . S
C587 C395 1.269 . S
C601 C338 1.255 . S
C605 C103 1.239 . S
C619 C197 1.242 . S
C623 C304 1.258 . S
C637 C139 1.280 . S
C641 C329 1.284 . S
C655 C161 1.229 . S
C659 C274 1.244 . S
C673 C219 1.287 . S
C677 C367 1.288 . S
C691 C382 1.267 . S
C695 C241 1.256 . S
C709 C351 1.286 . S
C713 C263 1.280 . S
C727 C18 1.540 . S
C731 C95 1.538 . S
C745 C128 1.545 . S
C749 C30 1.542 . S
C763 C81 1.534 . S
C767 C51 1.531 . S
C781 C96 1.544 . S
C785 C52 1.546 . S
C799 C125 1.576 . S
C803 C15 1.573 . S
C817 C84 1.564 . S
C821 C29 1.554 . S
C835 C238 1.541 . S
C839 C142 1.540 . S
C853 C260 1.556 . S
C857 C164 1.559 . S
C871 C216 1.525 . S
C875 C194 1.521 . S
C889 C235 1.576 . S
C893 C191 1.571 . S
C907 C257 1.542 . S
C911 C153 1.535 . S
C925 C213 1.555 . S
C929 C175 1.557 . S
C943 C359 1.529 . S
C947 C272 1.542 . S
C961 C392 1.523 . S
C965 C296 1.520 . S
C979 C323 1.548 . S
C983 C345 1.555 . S
C997 C326 1.565 . S
C1001 C360 1.562 . S
C1015 C271 1.550 . S
C1019 C389 1.556 . S
C1033 C348 1.563 . S
C1037 C307 1.552 . S
C1051 C10 1.498 . S
C1055 C7 1.506 . S
C1069 C40 1.506 . S
C1073 C43 1.500 . S
C1087 C65 1.507 . S
C1091 C62 1.499 . S
C1105 C76 1.496 . S
C1109 C73 1.507 . S
C1123 C109 1.508 . S
C1127 C106 1.495 . S
C1141 C120 1.495 . S
C1145 C117 1.503 . S
C1159 C147 1.506 . S
C1163 C140 1.494 . S
C1177 C162 1.495 . S
C1181 C169 1.508 . S
C1195 C183 1.507 . S
C1199 C186 1.498 . S
C1213 C205 1.502 . S
C1217 C208 1.496 . S
C1231 C227 1.506 . S
C1235 C230 1.500 . S
C1249 C249 1.501 . S
C1253 C252 1.505 . S
C1267 C285 1.498 . S
C1271 C282 1.505 . S
C1285 C294 1.494 . S
C1289 C301 1.508 . S
C1303 C315 1.505 . S
C1307 C318 1.501 . S
C1321 C337 1.497 . S
C1325 C340 1.505 . S
C1339 C373 1.498 . S
C1343 C370 1.506 . S
C1357 C381 1.499 . S
C1361 C384 1.505 . S
