# Generated by pormake.
# Topology cbo, (4)-cn, num edge types: 1
# Building blocks:
#     Node 0, Type 0, BuildingBlock: NAHDIM_clean_sbu_0, # of connection points: 4
#     Node 1, Type 0, BuildingBlock: NAHDIM_clean_sbu_0, # of connection points: 4
#     Node 2, Type 0, BuildingBlock: NAHDIM_clean_sbu_0, # of connection points: 4
#     Node 3, Type 0, BuildingBlock: NAHDIM_clean_sbu_0, # of connection points: 4
#     Node 4, Type 0, BuildingBlock: NAHDIM_clean_sbu_0, # of connection points: 4
#     Node 5, Type 0, BuildingBlock: NAHDIM_clean_sbu_0, # of connection points: 4
#     Node 6, Type 0, BuildingBlock: NAHDIM_clean_sbu_0, # of connection points: 4
#     Node 7, Type 0, BuildingBlock: NAHDIM_clean_sbu_0, # of connection points: 4
#     Node 8, Type 0, BuildingBlock: NAHDIM_clean_sbu_0, # of connection points: 4
#     Node 9, Type 0, BuildingBlock: NAHDIM_clean_sbu_0, # of connection points: 4
#     Node 10, Type 0, BuildingBlock: NAHDIM_clean_sbu_0, # of connection points: 4
#     Node 11, Type 0, BuildingBlock: NAHDIM_clean_sbu_0, # of connection points: 4
#     Node 12, Type 0, BuildingBlock: NAHDIM_clean_sbu_0, # of connection points: 4
#     Node 13, Type 0, BuildingBlock: NAHDIM_clean_sbu_0, # of connection points: 4
#     Node 14, Type 0, BuildingBlock: NAHDIM_clean_sbu_0, # of connection points: 4
#     Node 15, Type 0, BuildingBlock: NAHDIM_clean_sbu_0, # of connection points: 4
#     Node 16, Type 0, BuildingBlock: NAHDIM_clean_sbu_0, # of connection points: 4
#     Node 17, Type 0, BuildingBlock: NAHDIM_clean_sbu_0, # of connection points: 4
#     Node 18, Type 0, BuildingBlock: NAHDIM_clean_sbu_0, # of connection points: 4
#     Node 19, Type 0, BuildingBlock: NAHDIM_clean_sbu_0, # of connection points: 4
#     Node 20, Type 0, BuildingBlock: NAHDIM_clean_sbu_0, # of connection points: 4
#     Node 21, Type 0, BuildingBlock: NAHDIM_clean_sbu_0, # of connection points: 4
#     Node 22, Type 0, BuildingBlock: NAHDIM_clean_sbu_0, # of connection points: 4
#     Node 23, Type 0, BuildingBlock: NAHDIM_clean_sbu_0, # of connection points: 4
#     Edge 24, Type (0, 0), BuildingBlock: AJUNOK_clean_linker_0, # of connection points: 2
#     Edge 25, Type (0, 0), BuildingBlock: AJUNOK_clean_linker_0, # of connection points: 2
#     Edge 26, Type (0, 0), BuildingBlock: AJUNOK_clean_linker_0, # of connection points: 2
#     Edge 27, Type (0, 0), BuildingBlock: AJUNOK_clean_linker_0, # of connection points: 2
#     Edge 28, Type (0, 0), BuildingBlock: AJUNOK_clean_linker_0, # of connection points: 2
#     Edge 29, Type (0, 0), BuildingBlock: AJUNOK_clean_linker_0, # of connection points: 2
#     Edge 30, Type (0, 0), BuildingBlock: AJUNOK_clean_linker_0, # of connection points: 2
#     Edge 31, Type (0, 0), BuildingBlock: AJUNOK_clean_linker_0, # of connection points: 2
#     Edge 32, Type (0, 0), BuildingBlock: AJUNOK_clean_linker_0, # of connection points: 2
#     Edge 33, Type (0, 0), BuildingBlock: AJUNOK_clean_linker_0, # of connection points: 2
#     Edge 34, Type (0, 0), BuildingBlock: AJUNOK_clean_linker_0, # of connection points: 2
#     Edge 35, Type (0, 0), BuildingBlock: AJUNOK_clean_linker_0, # of connection points: 2
#     Edge 36, Type (0, 0), BuildingBlock: AJUNOK_clean_linker_0, # of connection points: 2
#     Edge 37, Type (0, 0), BuildingBlock: AJUNOK_clean_linker_0, # of connection points: 2
#     Edge 38, Type (0, 0), BuildingBlock: AJUNOK_clean_linker_0, # of connection points: 2
#     Edge 39, Type (0, 0), BuildingBlock: AJUNOK_clean_linker_0, # of connection points: 2
#     Edge 40, Type (0, 0), BuildingBlock: AJUNOK_clean_linker_0, # of connection points: 2
#     Edge 41, Type (0, 0), BuildingBlock: AJUNOK_clean_linker_0, # of connection points: 2
#     Edge 42, Type (0, 0), BuildingBlock: AJUNOK_clean_linker_0, # of connection points: 2
#     Edge 43, Type (0, 0), BuildingBlock: AJUNOK_clean_linker_0, # of connection points: 2
#     Edge 44, Type (0, 0), BuildingBlock: AJUNOK_clean_linker_0, # of connection points: 2
#     Edge 45, Type (0, 0), BuildingBlock: AJUNOK_clean_linker_0, # of connection points: 2
#     Edge 46, Type (0, 0), BuildingBlock: AJUNOK_clean_linker_0, # of connection points: 2
#     Edge 47, Type (0, 0), BuildingBlock: AJUNOK_clean_linker_0, # of connection points: 2
#     Edge 48, Type (0, 0), BuildingBlock: AJUNOK_clean_linker_0, # of connection points: 2
#     Edge 49, Type (0, 0), BuildingBlock: AJUNOK_clean_linker_0, # of connection points: 2
#     Edge 50, Type (0, 0), BuildingBlock: AJUNOK_clean_linker_0, # of connection points: 2
#     Edge 51, Type (0, 0), BuildingBlock: AJUNOK_clean_linker_0, # of connection points: 2
#     Edge 52, Type (0, 0), BuildingBlock: AJUNOK_clean_linker_0, # of connection points: 2
#     Edge 53, Type (0, 0), BuildingBlock: AJUNOK_clean_linker_0, # of connection points: 2
#     Edge 54, Type (0, 0), BuildingBlock: AJUNOK_clean_linker_0, # of connection points: 2
#     Edge 55, Type (0, 0), BuildingBlock: AJUNOK_clean_linker_0, # of connection points: 2
#     Edge 56, Type (0, 0), BuildingBlock: AJUNOK_clean_linker_0, # of connection points: 2
#     Edge 57, Type (0, 0), BuildingBlock: AJUNOK_clean_linker_0, # of connection points: 2
#     Edge 58, Type (0, 0), BuildingBlock: AJUNOK_clean_linker_0, # of connection points: 2
#     Edge 59, Type (0, 0), BuildingBlock: AJUNOK_clean_linker_0, # of connection points: 2
#     Edge 60, Type (0, 0), BuildingBlock: AJUNOK_clean_linker_0, # of connection points: 2
#     Edge 61, Type (0, 0), BuildingBlock: AJUNOK_clean_linker_0, # of connection points: 2
#     Edge 62, Type (0, 0), BuildingBlock: AJUNOK_clean_linker_0, # of connection points: 2
#     Edge 63, Type (0, 0), BuildingBlock: AJUNOK_clean_linker_0, # of connection points: 2
#     Edge 64, Type (0, 0), BuildingBlock: AJUNOK_clean_linker_0, # of connection points: 2
#     Edge 65, Type (0, 0), BuildingBlock: AJUNOK_clean_linker_0, # of connection points: 2
#     Edge 66, Type (0, 0), BuildingBlock: AJUNOK_clean_linker_0, # of connection points: 2
#     Edge 67, Type (0, 0), BuildingBlock: AJUNOK_clean_linker_0, # of connection points: 2
#     Edge 68, Type (0, 0), BuildingBlock: AJUNOK_clean_linker_0, # of connection points: 2
#     Edge 69, Type (0, 0), BuildingBlock: AJUNOK_clean_linker_0, # of connection points: 2
#     Edge 70, Type (0, 0), BuildingBlock: AJUNOK_clean_linker_0, # of connection points: 2
#     Edge 71, Type (0, 0), BuildingBlock: AJUNOK_clean_linker_0, # of connection points: 2
# Relax obj value: 0.272
# Max RMSD: 0.283
# Mean RMSD: 0.265
data_MOF--net-cbo--node1-NAHDIM_clean_sbu_0--edge1-AJUNOK_clean_linker_0
_symmetry_space_group_name_H-M    P1
_symmetry_Int_Tables_number       1
_symmetry_cell_setting            triclinic
loop_
_symmetry_equiv_pos_as_xyz
'x, y, z'
_cell_length_a     38.423306
_cell_length_b     36.529228
_cell_length_c     37.391968
_cell_angle_alpha  90.040055
_cell_angle_beta   89.989167
_cell_angle_gamma 90.059493
loop_
_atom_site_label
_atom_site_type_symbol
_atom_site_fract_x
_atom_site_fract_y
_atom_site_fract_z
_atom_type_partial_charge
C0 C 0.97282 0.12868 0.27029 0.0
O1 O 0.97896 0.15983 0.25392 0.0
O2 O 0.05136 0.16064 0.23076 0.0
Zn3 Zn 0.04741 0.12746 0.2737 0.0
O4 O 0.0629 0.15297 0.31892 0.0
C5 C 0.10226 0.07352 0.28616 0.0
O6 O 0.09918 0.0828 0.31994 0.0
O7 O 0.99842 0.10933 0.28052 0.0
C8 C 0.09372 0.16504 0.32277 0.0
O9 O 0.11556 0.16247 0.29582 0.0
C10 C 0.05727 0.19482 0.23215 0.0
O11 O 0.05771 0.21138 0.26332 0.0
O12 O 0.08109 0.08646 0.26332 0.0
C13 C 0.53883 0.84587 0.7737 0.0
O14 O 0.53276 0.81085 0.76866 0.0
O15 O 0.46141 0.81215 0.72976 0.0
Zn16 Zn 0.46477 0.84699 0.77135 0.0
O17 O 0.45242 0.82482 0.81904 0.0
C18 C 0.40514 0.89618 0.78006 0.0
O19 O 0.40392 0.88309 0.81271 0.0
O20 O 0.51315 0.86773 0.77506 0.0
C21 C 0.42815 0.80217 0.82566 0.0
O22 O 0.40974 0.78865 0.79915 0.0
C23 C 0.46315 0.77751 0.72742 0.0
O24 O 0.46874 0.75795 0.75631 0.0
O25 O 0.42986 0.88643 0.75953 0.0
C26 C 0.46078 0.36058 0.72008 0.0
O27 O 0.46601 0.32542 0.72517 0.0
O28 O 0.53976 0.32807 0.76404 0.0
Zn29 Zn 0.53484 0.35953 0.72008 0.0
O30 O 0.54317 0.33252 0.67367 0.0
C31 C 0.59769 0.40361 0.70642 0.0
O32 O 0.59948 0.38561 0.67608 0.0
O33 O 0.48702 0.38166 0.71794 0.0
C34 C 0.56736 0.30984 0.66691 0.0
O35 O 0.58924 0.30064 0.69235 0.0
C36 C 0.54084 0.29346 0.76688 0.0
O37 O 0.53622 0.27294 0.73842 0.0
O38 O 0.57163 0.39853 0.72683 0.0
C39 C 0.01228 0.60863 0.20476 0.0
O40 O 0.00655 0.64405 0.20549 0.0
O41 O 0.94434 0.64569 0.2619 0.0
Zn42 Zn 0.94078 0.61124 0.21982 0.0
O43 O 0.92642 0.6379 0.17496 0.0
C44 C 0.87602 0.56848 0.21621 0.0
O45 O 0.87265 0.58239 0.18403 0.0
O46 O 0.98697 0.58708 0.21081 0.0
C47 C 0.90032 0.65923 0.17382 0.0
O48 O 0.88247 0.66501 0.20325 0.0
C49 C 0.94864 0.68015 0.26074 0.0
O50 O 0.95275 0.69622 0.22961 0.0
O51 O 0.90351 0.57504 0.23406 0.0
C52 C 0.36128 0.07098 0.17782 0.0
O53 O 0.35775 0.06379 0.14356 0.0
O54 O 0.27737 0.10593 0.14291 0.0
Zn55 Zn 0.28819 0.06198 0.17359 0.0
O56 O 0.29183 0.01629 0.14365 0.0
C57 C 0.22839 0.03209 0.21396 0.0
O58 O 0.23057 0.00365 0.19262 0.0
O59 O 0.33426 0.07126 0.19739 0.0
C60 C 0.26892 0.00499 0.12172 0.0
O61 O 0.23997 0.02366 0.11771 0.0
C62 C 0.27996 0.10797 0.10906 0.0
O63 O 0.29104 0.07963 0.09072 0.0
O64 O 0.25017 0.05815 0.21089 0.0
C65 C 0.14099 0.93583 0.69154 0.0
O66 O 0.142 0.94897 0.65885 0.0
O67 O 0.22513 0.91714 0.64507 0.0
Zn68 Zn 0.21339 0.95151 0.68582 0.0
O69 O 0.20795 0.00361 0.66878 0.0
C70 C 0.28358 0.95477 0.70836 0.0
O71 O 0.28673 0.96578 0.67506 0.0
O72 O 0.16903 0.93479 0.7095 0.0
C73 C 0.21594 0.01399 0.63739 0.0
O74 O 0.22841 0.9899 0.61466 0.0
C75 C 0.2151 0.88396 0.64552 0.0
O76 O 0.19499 0.87281 0.67176 0.0
O77 O 0.25331 0.94803 0.72038 0.0
C78 C 0.85803 0.44839 0.81408 0.0
O79 O 0.85064 0.46536 0.84411 0.0
O80 O 0.77159 0.41108 0.84454 0.0
Zn81 Zn 0.78501 0.45179 0.81082 0.0
O82 O 0.78658 0.50263 0.83215 0.0
C83 C 0.71891 0.46083 0.77942 0.0
O84 O 0.71395 0.47517 0.81125 0.0
O85 O 0.8332 0.43956 0.79327 0.0
C86 C 0.77227 0.51511 0.86026 0.0
O87 O 0.75285 0.49348 0.87998 0.0
C88 C 0.77689 0.40543 0.87763 0.0
O89 O 0.79326 0.42995 0.89706 0.0
O90 O 0.74931 0.44992 0.77127 0.0
C91 C 0.62328 0.57755 0.34285 0.0
O92 O 0.62811 0.56195 0.3741 0.0
O93 O 0.71857 0.60479 0.36951 0.0
Zn94 Zn 0.69622 0.56525 0.34002 0.0
O95 O 0.68889 0.51899 0.36794 0.0
C96 C 0.75698 0.53837 0.30539 0.0
O97 O 0.76141 0.52472 0.33753 0.0
O98 O 0.64941 0.58243 0.32252 0.0
C99 C 0.70432 0.5089 0.3963 0.0
O100 O 0.72919 0.52935 0.40985 0.0
C101 C 0.70901 0.6184 0.39922 0.0
O102 O 0.68096 0.60573 0.41503 0.0
O103 O 0.72913 0.55595 0.2989 0.0
C104 C 0.14574 0.27293 0.96273 0.0
O105 O 0.1793 0.26698 0.96608 0.0
O106 O 0.18783 0.23475 0.0389 0.0
Zn107 Zn 0.1509 0.27435 0.0391 0.0
O108 O 0.17107 0.3246 0.05029 0.0
C109 C 0.12745 0.24443 0.1055 0.0
O110 O 0.1604 0.23521 0.10713 0.0
O111 O 0.12748 0.27652 0.99087 0.0
C112 C 0.18054 0.33261 0.08195 0.0
O113 O 0.17772 0.30775 0.10704 0.0
C114 C 0.21874 0.23902 0.05028 0.0
O115 O 0.22928 0.27178 0.05988 0.0
O116 O 0.11598 0.26111 0.07805 0.0
C117 C 0.66389 0.22059 0.02551 0.0
O118 O 0.69701 0.22546 0.01815 0.0
O119 O 0.69304 0.2686 0.94632 0.0
Zn120 Zn 0.65913 0.22603 0.94919 0.0
O121 O 0.68066 0.17748 0.93419 0.0
C122 C 0.6249 0.25394 0.887 0.0
O123 O 0.65679 0.26458 0.87996 0.0
O124 O 0.64211 0.22043 -0.0001 0.0
C125 C 0.68304 0.16795 0.90154 0.0
O126 O 0.67309 0.19096 0.87666 0.0
C127 C 0.72092 0.26745 0.92807 0.0
O128 O 0.72972 0.23668 0.91233 0.0
O129 O 0.6185 0.23698 0.91596 0.0
C130 C 0.87427 0.74944 0.52379 0.0
O131 O 0.85689 0.72009 0.51414 0.0
O132 O 0.82502 0.74002 0.44031 0.0
Zn133 Zn 0.86617 0.77278 0.44887 0.0
O134 O 0.85545 0.82408 0.4329 0.0
C135 C 0.90063 0.76236 0.38307 0.0
O136 O 0.87712 0.78682 0.37431 0.0
O137 O 0.88146 0.77367 0.50051 0.0
C138 C 0.83269 0.8457 0.44547 0.0
O139 O 0.81346 0.83504 0.4726 0.0
C140 C 0.79687 0.73426 0.45723 0.0
O141 O 0.79045 0.75238 0.48685 0.0
O142 O 0.90298 0.75249 0.41564 0.0
C143 C 0.33924 0.73337 0.47047 0.0
O144 O 0.30663 0.74032 0.47849 0.0
O145 O 0.3124 0.77144 0.55667 0.0
Zn146 Zn 0.34534 0.7295 0.54724 0.0
O147 O 0.32357 0.68103 0.56018 0.0
C148 C 0.40107 0.71595 0.60021 0.0
O149 O 0.39208 0.6813 0.5984 0.0
O150 O 0.36084 0.72833 0.49575 0.0
C151 C 0.3125 0.67503 0.59166 0.0
O152 O 0.31433 0.70148 0.61544 0.0
C153 C 0.27982 0.76886 0.56197 0.0
O154 O 0.26464 0.7368 0.55867 0.0
O155 O 0.38601 0.7391 0.58008 0.0
C156 C 0.01326 0.86479 0.73956 0.0
O157 O 0.00893 0.85173 0.77198 0.0
O158 O 0.9476 0.79755 0.76623 0.0
Zn159 Zn 0.94498 0.83182 0.72388 0.0
O160 O 0.93374 0.80629 0.67747 0.0
C161 C 0.88304 0.87887 0.71544 0.0
O162 O 0.88364 0.86931 0.68159 0.0
O163 O 0.98967 0.85951 0.7163 0.0
C164 C 0.90748 0.78601 0.67149 0.0
O165 O 0.88557 0.77915 0.69763 0.0
C166 C 0.94728 0.76274 0.76635 0.0
O167 O 0.94808 0.74508 0.73576 0.0
O168 O 0.90668 0.86718 0.73629 0.0
C169 C 0.49782 0.11687 0.22904 0.0
O170 O 0.50339 0.12807 0.26193 0.0
O171 O 0.5636 0.18047 0.25637 0.0
Zn172 Zn 0.56827 0.14324 0.21691 0.0
O173 O 0.58682 0.16551 0.17133 0.0
C174 C 0.62729 0.09102 0.221 0.0
O175 O 0.6315 0.09606 0.18648 0.0
O176 O 0.52203 0.12004 0.20609 0.0
C177 C 0.61663 0.18034 0.16852 0.0
O178 O 0.6366 0.18243 0.19697 0.0
C179 C 0.56534 0.21506 0.25354 0.0
O180 O 0.56811 0.2297 0.22159 0.0
O181 O 0.6021 0.10662 0.23685 0.0
C182 C 0.48309 0.62636 0.30726 0.0
O183 O 0.45807 0.6208 0.33061 0.0
O184 O 0.43096 0.70355 0.23303 0.0
Zn185 Zn 0.42905 0.66678 0.27285 0.0
O186 O 0.41311 0.6887 0.31967 0.0
C187 C 0.3695 0.61536 0.27293 0.0
O188 O 0.36602 0.62326 0.30701 0.0
O189 O 0.47648 0.64493 0.27941 0.0
C190 C 0.38375 0.70408 0.32407 0.0
O191 O 0.36286 0.70748 0.29647 0.0
C192 C 0.42844 0.73814 0.23481 0.0
O193 O 0.42555 0.75398 0.26622 0.0
O194 O 0.39467 0.62911 0.25543 0.0
C195 C 0.99809 0.39228 0.79142 0.0
O196 O 0.0252 0.40533 0.80863 0.0
O197 O 0.04943 0.30428 0.72757 0.0
Zn198 Zn 0.04906 0.34026 0.76837 0.0
O199 O 0.0618 0.31709 0.81556 0.0
C200 C 0.10727 0.39241 0.77672 0.0
O201 O 0.10467 0.38599 0.81117 0.0
O202 O 0.00203 0.3641 0.77191 0.0
C203 C 0.09148 0.30248 0.82009 0.0
O204 O 0.11298 0.30077 0.7928 0.0
C205 C 0.05107 0.26955 0.72864 0.0
O206 O 0.05074 0.25294 0.75978 0.0
O207 O 0.08573 0.37747 0.75537 0.0
C208 C 0.71795 0.02036 0.85477 0.0
O209 O 0.72072 0.01417 0.82027 0.0
O210 O 0.76366 0.94036 0.82055 0.0
Zn211 Zn 0.72367 0.94275 0.85534 0.0
O212 O 0.67881 0.92775 0.83157 0.0
C213 C 0.71575 0.88209 0.9066 0.0
O214 O 0.68284 0.88177 0.89714 0.0
O215 O 0.7189 0.99331 0.87605 0.0
C216 C 0.67645 0.89703 0.81577 0.0
O217 O 0.70403 0.87584 0.81442 0.0
C218 C 0.76194 0.93977 0.7866 0.0
O219 O 0.73155 0.94364 0.77099 0.0
O220 O 0.73597 0.90622 0.89359 0.0
C221 C 0.80903 0.98894 0.38103 0.0
O222 O 0.8214 0.99706 0.34926 0.0
O223 O 0.74526 0.05933 0.33884 0.0
Zn224 Zn 0.78552 0.06172 0.37327 0.0
O225 O 0.83063 0.07441 0.3482 0.0
C226 C 0.77788 0.13445 0.40044 0.0
O227 O 0.7929 0.14159 0.36972 0.0
O228 O 0.79136 0.01294 0.39763 0.0
C229 C 0.83322 0.09172 0.31882 0.0
O230 O 0.80484 0.10305 0.3027 0.0
C231 C 0.74419 0.04537 0.30771 0.0
O232 O 0.77216 0.02995 0.29428 0.0
O233 O 0.77322 0.10115 0.40918 0.0
C234 C 0.218 0.48147 0.12174 0.0
O235 O 0.22839 0.48897 0.15438 0.0
O236 O 0.25435 0.56229 0.15587 0.0
Zn237 Zn 0.21428 0.55898 0.12114 0.0
O238 O 0.16945 0.57324 0.14544 0.0
C239 C 0.22225 0.62948 0.09402 0.0
O240 O 0.2119 0.63531 0.12704 0.0
O241 O 0.21056 0.50788 0.10099 0.0
C242 C 0.14474 0.55167 0.15362 0.0
O243 O 0.14771 0.51664 0.14635 0.0
C244 C 0.25146 0.56513 0.18961 0.0
O245 O 0.22029 0.56487 0.20405 0.0
O246 O 0.22451 0.59659 0.08311 0.0
C247 C 0.27803 0.52774 0.63984 0.0
O248 O 0.27638 0.52177 0.67445 0.0
O249 O 0.23105 0.44835 0.6741 0.0
Zn250 Zn 0.27173 0.4503 0.64024 0.0
O251 O 0.31673 0.43788 0.665 0.0
C252 C 0.28128 0.38731 0.59163 0.0
O253 O 0.31378 0.38726 0.6025 0.0
O254 O 0.27597 0.50056 0.61871 0.0
C255 C 0.3211 0.40825 0.68217 0.0
O256 O 0.29501 0.38512 0.6848 0.0
C257 C 0.23148 0.44912 0.70808 0.0
O258 O 0.26125 0.45363 0.72478 0.0
O259 O 0.26079 0.41217 0.60274 0.0
C260 C 0.8511 0.70595 0.03373 0.0
O261 O 0.81921 0.71799 0.02929 0.0
O262 O 0.81709 0.75156 0.95781 0.0
Zn263 Zn 0.84892 0.70783 0.95733 0.0
O264 O 0.8233 0.66232 0.94185 0.0
C265 C 0.89896 0.69695 0.89855 0.0
O266 O 0.89211 0.66195 0.90244 0.0
O267 O 0.86969 0.6998 0.00622 0.0
C268 C 0.81187 0.66004 0.91004 0.0
O269 O 0.81509 0.68843 0.88874 0.0
C270 C 0.78403 0.75122 0.95727 0.0
O271 O 0.76755 0.71969 0.95774 0.0
O272 O 0.8855 0.71982 0.92018 0.0
C273 C 0.37798 0.77765 0.97031 0.0
O274 O 0.37268 0.74465 0.98313 0.0
O275 O 0.30814 0.76961 0.04387 0.0
Zn276 Zn 0.34671 0.80639 0.03724 0.0
O277 O 0.32947 0.85731 0.04728 0.0
C278 C 0.37913 0.80876 0.10627 0.0
O279 O 0.35561 0.83436 0.11101 0.0
O280 O 0.36882 0.80551 0.98839 0.0
C281 C 0.2978 0.86647 0.05108 0.0
O282 O 0.27333 0.84193 0.04582 0.0
C283 C 0.29207 0.74905 0.02194 0.0
O284 O 0.29874 0.75133 0.98758 0.0
O285 O 0.38169 0.79373 0.07565 0.0
C286 C 0.14743 0.20308 0.46376 0.0
O287 O 0.18113 0.20769 0.46768 0.0
O288 O 0.18238 0.25431 0.53891 0.0
Zn289 Zn 0.14999 0.2109 0.53981 0.0
O290 O 0.17412 0.16458 0.55547 0.0
C291 C 0.09908 0.20106 0.59787 0.0
O292 O 0.10452 0.16584 0.59365 0.0
O293 O 0.12819 0.20356 0.49141 0.0
C294 C 0.18425 0.16133 0.58768 0.0
O295 O 0.18143 0.18957 0.60926 0.0
C296 C 0.21531 0.25419 0.54189 0.0
O297 O 0.23173 0.22276 0.54425 0.0
O298 O 0.11378 0.22365 0.57684 0.0
C299 C 0.60405 0.26795 0.52207 0.0
O300 O 0.61029 0.23407 0.51223 0.0
O301 O 0.67764 0.2644 0.44799 0.0
Zn302 Zn 0.63428 0.29505 0.45268 0.0
O303 O 0.64616 0.34739 0.44255 0.0
C304 C 0.60586 0.29197 0.38246 0.0
O305 O 0.62865 0.31847 0.37857 0.0
O306 O 0.612 0.29432 0.50147 0.0
C307 C 0.6736 0.36401 0.45224 0.0
O308 O 0.69699 0.34643 0.47124 0.0
C309 C 0.69348 0.24403 0.47018 0.0
O310 O 0.6823 0.24153 0.50326 0.0
O311 O 0.60206 0.27758 0.41325 0.0
C312 C 0.07684 0.21376 0.13456 0.0
C313 C 0.1053 0.23774 0.13685 0.0
C314 C 0.05998 0.20143 0.16564 0.0
C315 C 0.07062 0.21337 0.19979 0.0
H316 H 0.06896 0.20278 0.10888 0.0
H317 H 0.03936 0.18135 0.16301 0.0
S318 S 0.14194 0.27904 0.21915 0.0
N319 N 0.14215 0.27476 0.1752 0.0
N320 N 0.10991 0.25268 0.23351 0.0
C321 C 0.09762 0.23929 0.20202 0.0
C322 C 0.11518 0.25113 0.17051 0.0
C323 C 0.44123 0.7235 0.69257 0.0
C324 C 0.45363 0.75976 0.69308 0.0
C325 C 0.42627 0.70852 0.66158 0.0
C326 C 0.42315 0.72929 0.63001 0.0
H327 H 0.44128 0.7072 0.71676 0.0
H328 H 0.41529 0.68124 0.66307 0.0
S329 S 0.45766 0.82301 0.61542 0.0
N330 N 0.4663 0.81415 0.65777 0.0
N331 N 0.43808 0.78609 0.59979 0.0
C332 C 0.43796 0.76448 0.62939 0.0
C333 C 0.45323 0.77969 0.66084 0.0
C334 C 0.58121 0.25009 0.79701 0.0
C335 C 0.556 0.27784 0.79977 0.0
C336 C 0.60227 0.24101 0.82628 0.0
C337 C 0.5981 0.25859 0.85942 0.0
H338 H 0.58649 0.23723 0.77146 0.0
H339 H 0.62297 0.22124 0.82254 0.0
S340 S 0.53323 0.32977 0.88177 0.0
N341 N 0.52628 0.32073 0.83905 0.0
N342 N 0.56529 0.30255 0.89438 0.0
C343 C 0.57141 0.28433 0.86333 0.0
C344 C 0.55044 0.29421 0.83337 0.0
C345 C 0.93326 0.73927 0.29037 0.0
C346 C 0.94292 0.70229 0.29349 0.0
C347 C 0.92161 0.75912 0.3201 0.0
C348 C 0.91957 0.74297 0.35421 0.0
H349 H 0.9328 0.75251 0.26447 0.0
H350 H 0.91279 0.78697 0.31597 0.0
S351 S 0.94676 0.64856 0.37768 0.0
N352 N 0.95332 0.65144 0.33414 0.0
N353 N 0.93166 0.68892 0.39006 0.0
C354 C 0.93169 0.70691 0.35825 0.0
C355 C 0.94326 0.68652 0.32786 0.0
C356 C 0.16483 0.02404 0.22505 0.0
C357 C 0.19735 0.03709 0.23679 0.0
C358 C 0.13403 0.0342 0.24253 0.0
C359 C 0.13478 0.05683 0.27294 0.0
H360 H 0.16291 0.0078 0.20088 0.0
H361 H 0.10936 0.02548 0.23135 0.0
S362 S 0.21362 0.0949 0.31664 0.0
N363 N 0.22872 0.0716 0.28209 0.0
N364 N 0.17093 0.08976 0.31563 0.0
C365 C 0.16731 0.0679 0.28643 0.0
C366 C 0.19859 0.05828 0.26814 0.0
C367 C 0.37705 0.92997 0.72963 0.0
C368 C 0.37518 0.91667 0.76491 0.0
C369 C 0.34766 0.944 0.7123 0.0
C370 C 0.31505 0.94517 0.7294 0.0
H371 H 0.40113 0.92831 0.71465 0.0
H372 H 0.35036 0.95249 0.68469 0.0
S373 S 0.29701 0.9185 0.82342 0.0
N374 N 0.33866 0.90918 0.81766 0.0
N375 N 0.2834 0.93541 0.78496 0.0
C376 C 0.31322 0.93417 0.76543 0.0
C377 C 0.34327 0.92001 0.78321 0.0
C378 C 0.65463 0.45768 0.77002 0.0
C379 C 0.68841 0.45189 0.75657 0.0
C380 C 0.62528 0.44393 0.75237 0.0
C381 C 0.62836 0.42396 0.72034 0.0
H382 H 0.65074 0.47145 0.79537 0.0
H383 H 0.60009 0.44769 0.76485 0.0
S384 S 0.71046 0.40631 0.67072 0.0
N385 N 0.72291 0.42857 0.70697 0.0
N386 N 0.66771 0.40286 0.6736 0.0
C387 C 0.66172 0.42048 0.70503 0.0
C388 C 0.69174 0.43437 0.72319 0.0
C389 C 0.81167 0.56485 0.22496 0.0
C390 C 0.84524 0.55344 0.23499 0.0
C391 C 0.78279 0.5579 0.24686 0.0
C392 C 0.78633 0.53902 0.27948 0.0
H393 H 0.80791 0.58135 0.20122 0.0
H394 H 0.75785 0.56907 0.23894 0.0
S395 S 0.86774 0.49714 0.31415 0.0
N396 N 0.87971 0.51807 0.27701 0.0
N397 N 0.8255 0.5044 0.31796 0.0
C398 C 0.8193 0.52461 0.28812 0.0
C399 C 0.84873 0.532 0.26596 0.0
C400 C 0.27251 0.17567 0.10769 0.0
C401 C 0.26834 0.14159 0.09072 0.0
C402 C 0.2584 0.2076 0.09296 0.0
C403 C 0.23885 0.20645 0.06118 0.0
H404 H 0.28615 0.17755 0.13299 0.0
H405 H 0.26122 0.23299 0.10768 0.0
S406 S 0.22216 0.12444 0.00525 0.0
N407 N 0.24527 0.1089 0.03925 0.0
N408 N 0.21771 0.16887 0.01211 0.0
C409 C 0.23556 0.17279 0.04326 0.0
C410 C 0.25061 0.14036 0.05787 0.0
C411 C 0.76718 0.33839 0.87186 0.0
C412 C 0.76568 0.37013 0.89312 0.0
C413 C 0.75435 0.30488 0.8843 0.0
C414 C 0.73874 0.30195 0.91819 0.0
H415 H 0.77799 0.33954 0.84511 0.0
H416 H 0.75532 0.28149 0.86649 0.0
S417 S 0.72994 0.37655 0.98496 0.0
N418 N 0.74919 0.39622 0.95043 0.0
N419 N 0.72394 0.3333 0.97354 0.0
C420 C 0.73789 0.33325 0.94015 0.0
C421 C 0.75171 0.36731 0.92771 0.0
C422 C 0.77808 0.69177 0.40886 0.0
C423 C 0.77256 0.706 0.44338 0.0
C424 C 0.75722 0.66384 0.39506 0.0
C425 C 0.72975 0.64868 0.41506 0.0
H426 H 0.79892 0.70212 0.39215 0.0
H427 H 0.76295 0.65402 0.36836 0.0
S428 S 0.70385 0.67632 0.5069 0.0
N429 N 0.73725 0.70307 0.49733 0.0
N430 N 0.69778 0.65034 0.47127 0.0
C431 C 0.72347 0.6629 0.44951 0.0
C432 C 0.74488 0.69158 0.46366 0.0
C433 C 0.2147 0.82149 0.61811 0.0
C434 C 0.22912 0.85691 0.61959 0.0
C435 C 0.2301 0.79373 0.59764 0.0
C436 C 0.26078 0.80014 0.57808 0.0
H437 H 0.19189 0.81472 0.63381 0.0
H438 H 0.21872 0.7666 0.59862 0.0
S439 S 0.30678 0.88916 0.56947 0.0
N440 N 0.27416 0.89771 0.59696 0.0
N441 N 0.30321 0.84548 0.55873 0.0
C442 C 0.27439 0.83595 0.57765 0.0
C443 C 0.25853 0.86434 0.5983 0.0
C444 C 0.92797 0.74742 0.86471 0.0
C445 C 0.91685 0.71074 0.86599 0.0
C446 C 0.93964 0.76325 0.83279 0.0
C447 C 0.94053 0.74321 0.8006 0.0
H448 H 0.92653 0.76454 0.88833 0.0
H449 H 0.94672 0.79196 0.8332 0.0
S450 S 0.91726 0.64503 0.79012 0.0
N451 N 0.90998 0.65386 0.83277 0.0
N452 N 0.9318 0.68365 0.77271 0.0
C453 C 0.93144 0.70584 0.80189 0.0
C454 C 0.91963 0.68962 0.83457 0.0
C455 C 0.56763 0.22057 0.32025 0.0
C456 C 0.56984 0.23748 0.28643 0.0
C457 C 0.57723 0.23914 0.35155 0.0
C458 C 0.58961 0.27534 0.35032 0.0
H459 H 0.55977 0.19219 0.32257 0.0
H460 H 0.57664 0.22429 0.37661 0.0
S461 S 0.59513 0.33408 0.26947 0.0
N462 N 0.58144 0.29414 0.2543 0.0
N463 N 0.59951 0.32897 0.31309 0.0
C464 C 0.58958 0.29347 0.31708 0.0
C465 C 0.57966 0.27459 0.28517 0.0
C466 C 0.40478 0.79283 0.20289 0.0
C467 C 0.42233 0.75912 0.20147 0.0
C468 C 0.39273 0.80976 0.17165 0.0
C469 C 0.39787 0.79377 0.13775 0.0
H470 H 0.39853 0.80529 0.22839 0.0
H471 H 0.37786 0.83479 0.17439 0.0
S472 S 0.44789 0.70893 0.11915 0.0
N473 N 0.44837 0.71276 0.16314 0.0
N474 N 0.42579 0.74459 0.10446 0.0
C475 C 0.4179 0.7616 0.13577 0.0
C476 C 0.43007 0.74427 0.16762 0.0
C477 C 0.06954 0.25169 0.63062 0.0
C478 C 0.0813 0.21527 0.63021 0.0
C479 C 0.05803 0.2682 0.66223 0.0
C480 C 0.05803 0.24912 0.69497 0.0
H481 H 0.07033 0.26809 0.60649 0.0
H482 H 0.05034 0.2967 0.6611 0.0
S483 S 0.08348 0.15194 0.70781 0.0
N484 N 0.08991 0.15962 0.66481 0.0
N485 N 0.06841 0.19071 0.7244 0.0
C486 C 0.06784 0.21197 0.6946 0.0
C487 C 0.07944 0.19504 0.6622 0.0
C488 C 0.82548 0.92591 0.78363 0.0
C489 C 0.79341 0.92949 0.76579 0.0
C490 C 0.85462 0.91114 0.76652 0.0
C491 C 0.85311 0.89931 0.73074 0.0
H492 H 0.82794 0.93341 0.81156 0.0
H493 H 0.87826 0.90794 0.78199 0.0
S494 S 0.77647 0.90634 0.67061 0.0
N495 N 0.76268 0.9228 0.70922 0.0
N496 N 0.81758 0.89503 0.67699 0.0
C497 C 0.82184 0.90472 0.71182 0.0
C498 C 0.79199 0.9198 0.72934 0.0
C499 C 0.68731 0.06463 0.22699 0.0
C500 C 0.65493 0.07315 0.24261 0.0
C501 C 0.71571 0.05363 0.24801 0.0
C502 C 0.71281 0.05097 0.28541 0.0
H503 H 0.69132 0.06809 0.19852 0.0
H504 H 0.74052 0.04905 0.23501 0.0
S505 S 0.63245 0.0642 0.33891 0.0
N506 N 0.62068 0.07351 0.29747 0.0
N507 N 0.67408 0.05336 0.33675 0.0
C508 C 0.68006 0.05697 0.30108 0.0
C509 C 0.65111 0.06788 0.27974 0.0
C510 C 0.30739 0.59511 0.26816 0.0
C511 C 0.34101 0.59666 0.2533 0.0
C512 C 0.27879 0.58336 0.24785 0.0
C513 C 0.28269 0.5726 0.2119 0.0
H514 H 0.30273 0.60473 0.29515 0.0
H515 H 0.25325 0.58417 0.26009 0.0
S516 S 0.36622 0.56605 0.1622 0.0
N517 N 0.37722 0.58242 0.20177 0.0
N518 N 0.32365 0.56024 0.16366 0.0
C519 C 0.31657 0.57167 0.1975 0.0
C520 C 0.34565 0.58371 0.21816 0.0
C521 C 0.16783 0.43534 0.70879 0.0
C522 C 0.19907 0.44011 0.72793 0.0
C523 C 0.13786 0.42171 0.72532 0.0
C524 C 0.13768 0.41232 0.7618 0.0
H525 H 0.16669 0.44093 0.68037 0.0
H526 H 0.11496 0.41737 0.70895 0.0
S527 S 0.21144 0.42348 0.82509 0.0
N528 N 0.22709 0.43733 0.78626 0.0
N529 N 0.17062 0.41172 0.8174 0.0
C530 C 0.16803 0.41908 0.78188 0.0
C531 C 0.19874 0.43295 0.76494 0.0
C532 C 0.73033 0.78476 0.93813 0.0
C533 C 0.76483 0.78581 0.95078 0.0
C534 C 0.71366 0.81659 0.92605 0.0
C535 C 0.7309 0.85061 0.92613 0.0
H536 H 0.71665 0.75894 0.93576 0.0
H537 H 0.68783 0.81403 0.91471 0.0
S538 S 0.81887 0.86928 0.96286 0.0
N539 N 0.8138 0.82465 0.96732 0.0
N540 N 0.78254 0.88427 0.94448 0.0
C541 C 0.76433 0.8525 0.94132 0.0
C542 C 0.78127 0.82016 0.95368 0.0
C543 C 0.2383 0.69535 0.08827 0.0
C544 C 0.23543 0.66057 0.07229 0.0
C545 C 0.25508 0.72426 0.07086 0.0
C546 C 0.26938 0.71985 0.03652 0.0
H547 H 0.22883 0.70009 0.11516 0.0
H548 H 0.25782 0.75002 0.08498 0.0
S549 S 0.26531 0.63572 0.981 0.0
N550 N 0.24567 0.6243 0.01867 0.0
N551 N 0.27703 0.67896 0.98577 0.0
C552 C 0.26474 0.68602 0.01915 0.0
C553 C 0.24786 0.6563 0.03708 0.0
C554 C 0.28413 0.32119 0.57415 0.0
C555 C 0.26675 0.35506 0.57262 0.0
C556 C 0.26807 0.28888 0.56227 0.0
C557 C 0.23403 0.28921 0.54833 0.0
H558 H 0.30961 0.31918 0.58639 0.0
H559 H 0.28186 0.26328 0.56573 0.0
S560 S 0.17988 0.37185 0.53249 0.0
N561 N 0.2155 0.38767 0.55175 0.0
N562 N 0.18539 0.32717 0.52925 0.0
C563 C 0.21748 0.32334 0.54409 0.0
C564 C 0.2338 0.35618 0.55628 0.0
C565 C 0.7229 0.18301 0.47036 0.0
C566 C 0.72033 0.21868 0.45651 0.0
C567 C 0.74308 0.1563 0.45311 0.0
C568 C 0.7617 0.1644 0.42161 0.0
H569 H 0.70758 0.17503 0.4934 0.0
H570 H 0.74281 0.12872 0.46373 0.0
S571 S 0.76814 0.2558 0.37836 0.0
N572 N 0.7412 0.26203 0.4122 0.0
N573 N 0.77959 0.2123 0.38007 0.0
C574 C 0.76149 0.20086 0.40925 0.0
C575 C 0.74066 0.22786 0.4266 0.0
C576 C 0.15487 0.19178 0.39816 0.0
C577 C 0.13254 0.19573 0.42777 0.0
C578 C 0.14196 0.18292 0.3642 0.0
C579 C 0.10613 0.1776 0.35834 0.0
H580 H 0.18275 0.19487 0.40124 0.0
H581 H 0.16043 0.17937 0.34259 0.0
S582 S 0.03616 0.18741 0.42625 0.0
N583 N 0.07245 0.19555 0.44849 0.0
N584 N 0.04821 0.17894 0.3847 0.0
C585 C 0.08333 0.18254 0.38744 0.0
C586 C 0.0965 0.19158 0.4221 0.0
C587 C 0.38658 0.7573 0.90693 0.0
C588 C 0.39321 0.78276 0.93433 0.0
C589 C 0.3984 0.76344 0.87188 0.0
C590 C 0.41796 0.79483 0.86324 0.0
H591 H 0.37116 0.73307 0.9123 0.0
H592 H 0.39193 0.7436 0.85138 0.0
S593 S 0.44424 0.86862 0.9262 0.0
N594 N 0.42165 0.83973 0.95095 0.0
N595 N 0.44451 0.85096 0.88556 0.0
C596 C 0.42579 0.81982 0.89081 0.0
C597 C 0.41322 0.81388 0.92622 0.0
C598 C 0.60169 0.25524 0.58779 0.0
C599 C 0.59097 0.2763 0.55834 0.0
C600 C 0.59332 0.26581 0.62288 0.0
C601 C 0.57332 0.29736 0.62965 0.0
H602 H 0.61792 0.23134 0.58384 0.0
H603 H 0.60305 0.24946 0.64486 0.0
S604 S 0.5365 0.36001 0.56119 0.0
N605 N 0.55786 0.32889 0.53791 0.0
N606 N 0.54145 0.34838 0.60353 0.0
C607 C 0.56111 0.31764 0.6002 0.0
C608 C 0.57014 0.30722 0.56463 0.0
C609 C 0.90727 0.66602 0.10758 0.0
C610 C 0.8885 0.67421 0.13894 0.0
C611 C 0.89547 0.67724 0.07389 0.0
C612 C 0.86431 0.69704 0.07003 0.0
H613 H 0.93104 0.65016 0.10887 0.0
H614 H 0.91057 0.66949 0.05062 0.0
S615 S 0.80677 0.72824 0.14387 0.0
N616 N 0.83814 0.70539 0.16407 0.0
N617 N 0.81595 0.72641 0.10079 0.0
C618 C 0.84584 0.70654 0.10124 0.0
C619 C 0.85793 0.69518 0.13564 0.0
C620 C 0.42498 0.08181 0.16957 0.0
C621 C 0.39601 0.08058 0.19256 0.0
C622 C 0.45776 0.09277 0.18187 0.0
C623 C 0.46313 0.10302 0.21775 0.0
H624 H 0.42234 0.0748 0.14155 0.0
H625 H 0.47894 0.09373 0.16277 0.0
S626 S 0.39632 0.10258 0.28959 0.0
N627 N 0.37516 0.08907 0.2535 0.0
N628 N 0.43683 0.10969 0.27664 0.0
C629 C 0.43462 0.10099 0.24137 0.0
C630 C 0.4011 0.08979 0.22879 0.0
C631 C 0.04843 0.89968 0.69479 0.0
C632 C 0.04565 0.88444 0.72926 0.0
C633 C 0.079 0.9169 0.68332 0.0
C634 C 0.1083 0.9196 0.70572 0.0
H635 H 0.02691 0.89801 0.67615 0.0
H636 H 0.07974 0.9276 0.65632 0.0
S637 S 0.11424 0.88587 0.79925 0.0
N638 N 0.07461 0.87447 0.78632 0.0
N639 N 0.13216 0.90678 0.76472 0.0
C640 C 0.10572 0.90526 0.74061 0.0
C641 C 0.07443 0.88774 0.75237 0.0
C642 C 0.93442 0.39453 0.777 0.0
C643 C 0.96308 0.40895 0.79585 0.0
C644 C 0.90072 0.40826 0.78212 0.0
C645 C 0.89425 0.4368 0.80649 0.0
H646 H 0.93783 0.37199 0.7585 0.0
H647 H 0.87947 0.39562 0.76761 0.0
S648 S 0.96049 0.4864 0.86028 0.0
N649 N 0.98288 0.45515 0.83823 0.0
N650 N 0.91961 0.48074 0.84791 0.0
C651 C 0.92277 0.45232 0.82464 0.0
C652 C 0.95714 0.43848 0.8193 0.0
C653 C 0.52599 0.5949 0.34692 0.0
C654 C 0.51889 0.61299 0.31455 0.0
C655 C 0.55969 0.5834 0.35553 0.0
C656 C 0.58784 0.58943 0.33214 0.0
H657 H 0.50545 0.58985 0.36614 0.0
H658 H 0.56362 0.56987 0.38097 0.0
S659 S 0.58312 0.63441 0.24322 0.0
N660 N 0.5428 0.63555 0.25838 0.0
N661 N 0.60615 0.61391 0.2746 0.0
C662 C 0.58109 0.60697 0.29935 0.0
C663 C 0.54666 0.61873 0.29055 0.0
C664 C 0.18629 0.39947 0.0681 0.0
C665 C 0.19314 0.36983 0.09104 0.0
C666 C 0.1953 0.43537 0.07775 0.0
C667 C 0.21165 0.44299 0.11065 0.0
H668 H 0.17292 0.39512 0.04295 0.0
H669 H 0.18856 0.45735 0.05962 0.0
S670 S 0.23885 0.3744 0.17845 0.0
N671 N 0.21976 0.35011 0.14683 0.0
N672 N 0.23681 0.41731 0.16488 0.0
C673 C 0.22002 0.41335 0.1331 0.0
C674 C 0.21073 0.37686 0.12333 0.0
C675 C 0.70706 0.08672 0.84342 0.0
C676 C 0.71163 0.05809 0.86811 0.0
C677 C 0.69876 0.12217 0.85468 0.0
C678 C 0.69475 0.13069 0.89117 0.0
H679 H 0.70921 0.08169 0.81495 0.0
H680 H 0.69492 0.14292 0.83438 0.0
S681 S 0.70626 0.06625 0.96702 0.0
N682 N 0.71325 0.04107 0.93105 0.0
N683 N 0.69767 0.10784 0.95222 0.0
C684 C 0.70038 0.10266 0.91633 0.0
C685 C 0.70877 0.06637 0.90481 0.0
C686 C 0.79727 0.94128 0.42779 0.0
C687 C 0.81576 0.95253 0.39719 0.0
C688 C 0.80295 0.90682 0.44327 0.0
C689 C 0.82751 0.88229 0.42893 0.0
H690 H 0.77798 0.95908 0.43977 0.0
H691 H 0.78785 0.8994 0.46664 0.0
S692 S 0.88376 0.89907 0.34962 0.0
N693 N 0.86026 0.93663 0.35355 0.0
N694 N 0.87108 0.87221 0.38257 0.0
C695 C 0.84649 0.89342 0.39853 0.0
C696 C 0.84057 0.9284 0.38268 0.0
C697 C 0.28721 0.59464 0.65046 0.0
C698 C 0.2843 0.56535 0.62615 0.0
C699 C 0.29533 0.63009 0.63889 0.0
C700 C 0.30102 0.63782 0.6025 0.0
H701 H 0.28378 0.59018 0.67888 0.0
H702 H 0.29795 0.65138 0.65888 0.0
S703 S 0.29404 0.57148 0.52747 0.0
N704 N 0.28592 0.54694 0.56358 0.0
N705 N 0.30123 0.61354 0.54184 0.0
C706 C 0.29713 0.60906 0.57769 0.0
C707 C 0.28876 0.57288 0.58949 0.0
C708 C 0.90919 0.78224 0.57012 0.0
C709 C 0.88385 0.75578 0.56174 0.0
C710 C 0.91727 0.7909 0.60562 0.0
C711 C 0.90006 0.77381 0.63437 0.0
H712 H 0.92275 0.79678 0.54905 0.0
H713 H 0.9366 0.81195 0.61044 0.0
S714 S 0.83262 0.70135 0.62708 0.0
N715 N 0.84245 0.71142 0.58523 0.0
N716 N 0.85742 0.728 0.65207 0.0
C717 C 0.87519 0.74667 0.62647 0.0
C718 C 0.86719 0.73754 0.59017 0.0
C719 C 0.61775 0.20164 0.06904 0.0
C720 C 0.65225 0.21283 0.06268 0.0
C721 C 0.60645 0.1919 0.10337 0.0
C722 C 0.6291 0.19305 0.13296 0.0
H723 H 0.59931 0.19965 0.04721 0.0
H724 H 0.57975 0.18294 0.10653 0.0
S725 S 0.72163 0.22259 0.13127 0.0
N726 N 0.7087 0.22607 0.08932 0.0
N727 N 0.68746 0.20783 0.15381 0.0
C728 C 0.66346 0.20517 0.12723 0.0
C729 C 0.67502 0.21501 0.09215 0.0
C730 C 0.39493 0.70937 0.38982 0.0
C731 C 0.37231 0.71466 0.36065 0.0
C732 C 0.38424 0.71634 0.42498 0.0
C733 C 0.35041 0.72884 0.43263 0.0
H734 H 0.42105 0.69908 0.38566 0.0
H735 H 0.40257 0.7111 0.44638 0.0
S736 S 0.28168 0.74961 0.36578 0.0
N737 N 0.31491 0.73506 0.3417 0.0
N738 N 0.29481 0.74812 0.40777 0.0
C739 C 0.32779 0.73535 0.40367 0.0
C740 C 0.33873 0.7283 0.36774 0.0
C741 C 0.15146 0.27484 0.89609 0.0
C742 C 0.13017 0.27768 0.92662 0.0
C743 C 0.13838 0.28171 0.86178 0.0
C744 C 0.10343 0.2918 0.85642 0.0
H745 H 0.17875 0.26795 0.89863 0.0
H746 H 0.15619 0.27995 0.83939 0.0
S747 S 0.03591 0.3003 0.92709 0.0
N748 N 0.07168 0.28922 0.94897 0.0
N749 N 0.04712 0.30215 0.88452 0.0
C750 C 0.08146 0.29349 0.88656 0.0
C751 C 0.0948 0.28643 0.92159 0.0
C752 C 0.6128 0.90683 0.80526 0.0
C753 C 0.6423 0.88425 0.80191 0.0
C754 C 0.5797 0.8946 0.79503 0.0
C755 C 0.57463 0.85918 0.78113 0.0
H756 H 0.61505 0.93404 0.81658 0.0
H757 H 0.55781 0.91281 0.799 0.0
S758 S 0.64365 0.79027 0.76384 0.0
N759 N 0.66452 0.82547 0.78139 0.0
N760 N 0.60234 0.80248 0.76227 0.0
C761 C 0.60405 0.83674 0.77639 0.0
C762 C 0.63784 0.84926 0.78672 0.0
C763 C 0.89765 0.08252 0.3182 0.0
C764 C 0.86815 0.10017 0.30406 0.0
C765 C 0.93121 0.09112 0.30629 0.0
C766 C 0.93677 0.118 0.27996 0.0
H767 H 0.89491 0.06205 0.33896 0.0
H768 H 0.95301 0.07717 0.31857 0.0
S769 S 0.86828 0.17086 0.23272 0.0
N770 N 0.84664 0.14469 0.26101 0.0
N771 N 0.90977 0.16101 0.23878 0.0
C772 C 0.90749 0.13524 0.26488 0.0
C773 C 0.8732 0.12626 0.27685 0.0
C774 C 0.08282 0.54339 0.17305 0.0
C775 C 0.11205 0.56632 0.16921 0.0
C776 C 0.05093 0.55706 0.18545 0.0
C777 C 0.04696 0.59424 0.19446 0.0
H778 H 0.08425 0.51474 0.16573 0.0
H779 H 0.02904 0.53844 0.18714 0.0
S780 S 0.11633 0.66515 0.19249 0.0
N781 N 0.13553 0.62766 0.17782 0.0
N782 N 0.07573 0.65327 0.20101 0.0
C783 C 0.0763 0.61722 0.19195 0.0
C784 C 0.10878 0.6033 0.17937 0.0
C785 C 0.36298 0.36159 0.70539 0.0
C786 C 0.35623 0.39797 0.69525 0.0
C787 C 0.39665 0.35012 0.71438 0.0
C788 C 0.425 0.37456 0.71375 0.0
H789 H 0.34233 0.34138 0.70537 0.0
H790 H 0.40049 0.32156 0.72106 0.0
S791 S 0.42064 0.47384 0.69265 0.0
N792 N 0.38029 0.45915 0.68771 0.0
N793 N 0.44351 0.43766 0.70464 0.0
C794 C 0.41836 0.41146 0.70519 0.0
C795 C 0.38404 0.42312 0.69593 0.0
C796 C 0.78567 0.59812 0.91993 0.0
C797 C 0.79901 0.62453 0.8962 0.0
C798 C 0.77586 0.56323 0.90787 0.0
C799 C 0.77964 0.5532 0.87174 0.0
H800 H 0.78314 0.60431 0.94815 0.0
H801 H 0.76632 0.54362 0.92727 0.0
S802 S 0.81241 0.61273 0.79855 0.0
N803 N 0.81454 0.63863 0.83466 0.0
N804 N 0.79654 0.57308 0.81206 0.0
C805 C 0.79228 0.57965 0.84759 0.0
C806 C 0.80182 0.6153 0.85979 0.0
C807 C 0.31635 0.92445 0.08079 0.0
C808 C 0.28943 0.90302 0.06611 0.0
C809 C 0.30936 0.95751 0.09819 0.0
C810 C 0.2752 0.97085 0.10135 0.0
H811 H 0.34313 0.91525 0.07977 0.0
H812 H 0.33103 0.97256 0.10952 0.0
S813 S 0.19544 0.92652 0.06572 0.0
N814 N 0.22724 0.89835 0.0546 0.0
N815 N 0.21414 0.96087 0.0871 0.0
C816 C 0.24805 0.95043 0.08579 0.0
C817 C 0.25515 0.91643 0.06827 0.0
C818 C 0.2125 0.06178 0.58953 0.0
C819 C 0.20979 0.0524 0.62595 0.0
C820 C 0.20498 0.09726 0.57755 0.0
C821 C 0.19484 0.12497 0.60151 0.0
H822 H 0.21979 0.0414 0.56987 0.0
H823 H 0.2068 0.10287 0.54916 0.0
S824 S 0.18483 0.11519 0.69985 0.0
N825 N 0.19702 0.07422 0.68609 0.0
N826 N 0.18311 0.14083 0.66358 0.0
C827 C 0.19286 0.11629 0.63814 0.0
C828 C 0.20023 0.08005 0.65033 0.0
C829 C 0.71193 0.41944 0.44731 0.0
C830 C 0.67993 0.40211 0.44008 0.0
C831 C 0.71932 0.45449 0.43396 0.0
C832 C 0.6951 0.47336 0.41268 0.0
H833 H 0.73177 0.40561 0.4628 0.0
H834 H 0.7446 0.46638 0.43949 0.0
S835 S 0.60615 0.44189 0.38885 0.0
N836 N 0.62277 0.40795 0.41235 0.0
N837 N 0.63685 0.47344 0.38721 0.0
C838 C 0.66256 0.45694 0.40629 0.0
C839 C 0.65493 0.42144 0.42001 0.0
loop_
_geom_bond_atom_site_label_1
_geom_bond_atom_site_label_2
_geom_bond_distance
_geom_bond_site_symmetry_2
_ccdc_geom_bond_type
C0 O1 1.160 . S
C0 O7 1.185 . S
O1 C0 1.160 . S
O2 Zn3 1.899 . S
O2 C10 1.284 . S
Zn3 O2 1.899 . S
Zn3 O4 2.032 . S
Zn3 O7 2.086 . S
Zn3 O12 1.977 . S
O4 Zn3 2.032 . S
O4 C8 1.278 . S
C5 O6 1.203 . S
C5 O12 1.267 . S
O6 C5 1.203 . S
O7 C0 1.185 . S
O7 Zn3 2.086 . S
C8 O4 1.278 . S
C8 O9 1.211 . S
O9 C8 1.211 . S
C10 O2 1.284 . S
C10 O11 1.273 . S
O11 C10 1.273 . S
O12 Zn3 1.977 . S
O12 C5 1.267 . S
C13 O14 1.160 . S
C13 O20 1.185 . S
O14 C13 1.160 . S
O15 Zn16 1.899 . S
O15 C23 1.284 . S
Zn16 O15 1.899 . S
Zn16 O17 2.032 . S
Zn16 O20 2.086 . S
Zn16 O25 1.977 . S
O17 Zn16 2.032 . S
O17 C21 1.278 . S
C18 O19 1.203 . S
C18 O25 1.267 . S
O19 C18 1.203 . S
O20 C13 1.185 . S
O20 Zn16 2.086 . S
C21 O17 1.278 . S
C21 O22 1.211 . S
O22 C21 1.211 . S
C23 O15 1.284 . S
C23 O24 1.273 . S
O24 C23 1.273 . S
O25 Zn16 1.977 . S
O25 C18 1.267 . S
C26 O27 1.160 . S
C26 O33 1.185 . S
O27 C26 1.160 . S
O28 Zn29 1.899 . S
O28 C36 1.284 . S
Zn29 O28 1.899 . S
Zn29 O30 2.032 . S
Zn29 O33 2.086 . S
Zn29 O38 1.977 . S
O30 Zn29 2.032 . S
O30 C34 1.278 . S
C31 O32 1.203 . S
C31 O38 1.267 . S
O32 C31 1.203 . S
O33 C26 1.185 . S
O33 Zn29 2.086 . S
C34 O30 1.278 . S
C34 O35 1.211 . S
O35 C34 1.211 . S
C36 O28 1.284 . S
C36 O37 1.273 . S
O37 C36 1.273 . S
O38 Zn29 1.977 . S
O38 C31 1.267 . S
C39 O40 1.160 . S
C39 O46 1.185 . S
O40 C39 1.160 . S
O41 Zn42 1.899 . S
O41 C49 1.284 . S
Zn42 O41 1.899 . S
Zn42 O43 2.032 . S
Zn42 O46 2.086 . S
Zn42 O51 1.977 . S
O43 Zn42 2.032 . S
O43 C47 1.278 . S
C44 O45 1.203 . S
C44 O51 1.267 . S
O45 C44 1.203 . S
O46 C39 1.185 . S
O46 Zn42 2.086 . S
C47 O43 1.278 . S
C47 O48 1.211 . S
O48 C47 1.211 . S
C49 O41 1.284 . S
C49 O50 1.273 . S
O50 C49 1.273 . S
O51 Zn42 1.977 . S
O51 C44 1.267 . S
C52 O53 1.160 . S
C52 O59 1.185 . S
O53 C52 1.160 . S
O54 Zn55 1.899 . S
O54 C62 1.284 . S
Zn55 O54 1.899 . S
Zn55 O56 2.032 . S
Zn55 O59 2.086 . S
Zn55 O64 1.977 . S
O56 Zn55 2.032 . S
O56 C60 1.278 . S
C57 O58 1.203 . S
C57 O64 1.267 . S
O58 C57 1.203 . S
O59 C52 1.185 . S
O59 Zn55 2.086 . S
C60 O56 1.278 . S
C60 O61 1.211 . S
O61 C60 1.211 . S
C62 O54 1.284 . S
C62 O63 1.273 . S
O63 C62 1.273 . S
O64 Zn55 1.977 . S
O64 C57 1.267 . S
C65 O66 1.160 . S
C65 O72 1.185 . S
O66 C65 1.160 . S
O67 Zn68 1.899 . S
O67 C75 1.284 . S
Zn68 O67 1.899 . S
Zn68 O69 2.032 . S
Zn68 O72 2.086 . S
Zn68 O77 1.977 . S
O69 Zn68 2.032 . S
O69 C73 1.278 . S
C70 O71 1.203 . S
C70 O77 1.267 . S
O71 C70 1.203 . S
O72 C65 1.185 . S
O72 Zn68 2.086 . S
C73 O69 1.278 . S
C73 O74 1.211 . S
O74 C73 1.211 . S
C75 O67 1.284 . S
C75 O76 1.273 . S
O76 C75 1.273 . S
O77 Zn68 1.977 . S
O77 C70 1.267 . S
C78 O79 1.160 . S
C78 O85 1.185 . S
O79 C78 1.160 . S
O80 Zn81 1.899 . S
O80 C88 1.284 . S
Zn81 O80 1.899 . S
Zn81 O82 2.032 . S
Zn81 O85 2.086 . S
Zn81 O90 1.977 . S
O82 Zn81 2.032 . S
O82 C86 1.278 . S
C83 O84 1.203 . S
C83 O90 1.267 . S
O84 C83 1.203 . S
O85 C78 1.185 . S
O85 Zn81 2.086 . S
C86 O82 1.278 . S
C86 O87 1.211 . S
O87 C86 1.211 . S
C88 O80 1.284 . S
C88 O89 1.273 . S
O89 C88 1.273 . S
O90 Zn81 1.977 . S
O90 C83 1.267 . S
C91 O92 1.160 . S
C91 O98 1.185 . S
O92 C91 1.160 . S
O93 Zn94 1.899 . S
O93 C101 1.284 . S
Zn94 O93 1.899 . S
Zn94 O95 2.032 . S
Zn94 O98 2.086 . S
Zn94 O103 1.977 . S
O95 Zn94 2.032 . S
O95 C99 1.278 . S
C96 O97 1.203 . S
C96 O103 1.267 . S
O97 C96 1.203 . S
O98 C91 1.185 . S
O98 Zn94 2.086 . S
C99 O95 1.278 . S
C99 O100 1.211 . S
O100 C99 1.211 . S
C101 O93 1.284 . S
C101 O102 1.273 . S
O102 C101 1.273 . S
O103 Zn94 1.977 . S
O103 C96 1.267 . S
C104 O105 1.160 . S
C104 O111 1.185 . S
O105 C104 1.160 . S
O106 Zn107 1.899 . S
O106 C114 1.284 . S
Zn107 O106 1.899 . S
Zn107 O108 2.032 . S
Zn107 O111 2.086 . S
Zn107 O116 1.977 . S
O108 Zn107 2.032 . S
O108 C112 1.278 . S
C109 O110 1.203 . S
C109 O116 1.267 . S
O110 C109 1.203 . S
O111 C104 1.185 . S
O111 Zn107 2.086 . S
C112 O108 1.278 . S
C112 O113 1.211 . S
O113 C112 1.211 . S
C114 O106 1.284 . S
C114 O115 1.273 . S
O115 C114 1.273 . S
O116 Zn107 1.977 . S
O116 C109 1.267 . S
C117 O118 1.160 . S
C117 O124 1.185 . S
O118 C117 1.160 . S
O119 Zn120 1.899 . S
O119 C127 1.284 . S
Zn120 O119 1.899 . S
Zn120 O121 2.032 . S
Zn120 O124 2.086 . S
Zn120 O129 1.977 . S
O121 Zn120 2.032 . S
O121 C125 1.278 . S
C122 O123 1.203 . S
C122 O129 1.267 . S
O123 C122 1.203 . S
O124 C117 1.185 . S
O124 Zn120 2.086 . S
C125 O121 1.278 . S
C125 O126 1.211 . S
O126 C125 1.211 . S
C127 O119 1.284 . S
C127 O128 1.273 . S
O128 C127 1.273 . S
O129 Zn120 1.977 . S
O129 C122 1.267 . S
C130 O131 1.160 . S
C130 O137 1.185 . S
O131 C130 1.160 . S
O132 Zn133 1.899 . S
O132 C140 1.284 . S
Zn133 O132 1.899 . S
Zn133 O134 2.032 . S
Zn133 O137 2.086 . S
Zn133 O142 1.977 . S
O134 Zn133 2.032 . S
O134 C138 1.278 . S
C135 O136 1.203 . S
C135 O142 1.267 . S
O136 C135 1.203 . S
O137 C130 1.185 . S
O137 Zn133 2.086 . S
C138 O134 1.278 . S
C138 O139 1.211 . S
O139 C138 1.211 . S
C140 O132 1.284 . S
C140 O141 1.273 . S
O141 C140 1.273 . S
O142 Zn133 1.977 . S
O142 C135 1.267 . S
C143 O144 1.160 . S
C143 O150 1.185 . S
O144 C143 1.160 . S
O145 Zn146 1.899 . S
O145 C153 1.284 . S
Zn146 O145 1.899 . S
Zn146 O147 2.032 . S
Zn146 O150 2.086 . S
Zn146 O155 1.977 . S
O147 Zn146 2.032 . S
O147 C151 1.278 . S
C148 O149 1.203 . S
C148 O155 1.267 . S
O149 C148 1.203 . S
O150 C143 1.185 . S
O150 Zn146 2.086 . S
C151 O147 1.278 . S
C151 O152 1.211 . S
O152 C151 1.211 . S
C153 O145 1.284 . S
C153 O154 1.273 . S
O154 C153 1.273 . S
O155 Zn146 1.977 . S
O155 C148 1.267 . S
C156 O157 1.160 . S
C156 O163 1.185 . S
O157 C156 1.160 . S
O158 Zn159 1.899 . S
O158 C166 1.284 . S
Zn159 O158 1.899 . S
Zn159 O160 2.032 . S
Zn159 O163 2.086 . S
Zn159 O168 1.977 . S
O160 Zn159 2.032 . S
O160 C164 1.278 . S
C161 O162 1.203 . S
C161 O168 1.267 . S
O162 C161 1.203 . S
O163 C156 1.185 . S
O163 Zn159 2.086 . S
C164 O160 1.278 . S
C164 O165 1.211 . S
O165 C164 1.211 . S
C166 O158 1.284 . S
C166 O167 1.273 . S
O167 C166 1.273 . S
O168 Zn159 1.977 . S
O168 C161 1.267 . S
C169 O170 1.160 . S
C169 O176 1.185 . S
O170 C169 1.160 . S
O171 Zn172 1.899 . S
O171 C179 1.284 . S
Zn172 O171 1.899 . S
Zn172 O173 2.032 . S
Zn172 O176 2.086 . S
Zn172 O181 1.977 . S
O173 Zn172 2.032 . S
O173 C177 1.278 . S
C174 O175 1.203 . S
C174 O181 1.267 . S
O175 C174 1.203 . S
O176 C169 1.185 . S
O176 Zn172 2.086 . S
C177 O173 1.278 . S
C177 O178 1.211 . S
O178 C177 1.211 . S
C179 O171 1.284 . S
C179 O180 1.273 . S
O180 C179 1.273 . S
O181 Zn172 1.977 . S
O181 C174 1.267 . S
C182 O183 1.160 . S
C182 O189 1.185 . S
O183 C182 1.160 . S
O184 Zn185 1.899 . S
O184 C192 1.284 . S
Zn185 O184 1.899 . S
Zn185 O186 2.032 . S
Zn185 O189 2.086 . S
Zn185 O194 1.977 . S
O186 Zn185 2.032 . S
O186 C190 1.278 . S
C187 O188 1.203 . S
C187 O194 1.267 . S
O188 C187 1.203 . S
O189 C182 1.185 . S
O189 Zn185 2.086 . S
C190 O186 1.278 . S
C190 O191 1.211 . S
O191 C190 1.211 . S
C192 O184 1.284 . S
C192 O193 1.273 . S
O193 C192 1.273 . S
O194 Zn185 1.977 . S
O194 C187 1.267 . S
C195 O196 1.160 . S
C195 O202 1.185 . S
O196 C195 1.160 . S
O197 Zn198 1.899 . S
O197 C205 1.284 . S
Zn198 O197 1.899 . S
Zn198 O199 2.032 . S
Zn198 O202 2.086 . S
Zn198 O207 1.977 . S
O199 Zn198 2.032 . S
O199 C203 1.278 . S
C200 O201 1.203 . S
C200 O207 1.267 . S
O201 C200 1.203 . S
O202 C195 1.185 . S
O202 Zn198 2.086 . S
C203 O199 1.278 . S
C203 O204 1.211 . S
O204 C203 1.211 . S
C205 O197 1.284 . S
C205 O206 1.273 . S
O206 C205 1.273 . S
O207 Zn198 1.977 . S
O207 C200 1.267 . S
C208 O209 1.160 . S
C208 O215 1.185 . S
O209 C208 1.160 . S
O210 Zn211 1.899 . S
O210 C218 1.284 . S
Zn211 O210 1.899 . S
Zn211 O212 2.032 . S
Zn211 O215 2.086 . S
Zn211 O220 1.977 . S
O212 Zn211 2.032 . S
O212 C216 1.278 . S
C213 O214 1.203 . S
C213 O220 1.267 . S
O214 C213 1.203 . S
O215 C208 1.185 . S
O215 Zn211 2.086 . S
C216 O212 1.278 . S
C216 O217 1.211 . S
O217 C216 1.211 . S
C218 O210 1.284 . S
C218 O219 1.273 . S
O219 C218 1.273 . S
O220 Zn211 1.977 . S
O220 C213 1.267 . S
C221 O222 1.160 . S
C221 O228 1.185 . S
O222 C221 1.160 . S
O223 Zn224 1.899 . S
O223 C231 1.284 . S
Zn224 O223 1.899 . S
Zn224 O225 2.032 . S
Zn224 O228 2.086 . S
Zn224 O233 1.977 . S
O225 Zn224 2.032 . S
O225 C229 1.278 . S
C226 O227 1.203 . S
C226 O233 1.267 . S
O227 C226 1.203 . S
O228 C221 1.185 . S
O228 Zn224 2.086 . S
C229 O225 1.278 . S
C229 O230 1.211 . S
O230 C229 1.211 . S
C231 O223 1.284 . S
C231 O232 1.273 . S
O232 C231 1.273 . S
O233 Zn224 1.977 . S
O233 C226 1.267 . S
C234 O235 1.160 . S
C234 O241 1.185 . S
O235 C234 1.160 . S
O236 Zn237 1.899 . S
O236 C244 1.284 . S
Zn237 O236 1.899 . S
Zn237 O238 2.032 . S
Zn237 O241 2.086 . S
Zn237 O246 1.977 . S
O238 Zn237 2.032 . S
O238 C242 1.278 . S
C239 O240 1.203 . S
C239 O246 1.267 . S
O240 C239 1.203 . S
O241 C234 1.185 . S
O241 Zn237 2.086 . S
C242 O238 1.278 . S
C242 O243 1.211 . S
O243 C242 1.211 . S
C244 O236 1.284 . S
C244 O245 1.273 . S
O245 C244 1.273 . S
O246 Zn237 1.977 . S
O246 C239 1.267 . S
C247 O248 1.160 . S
C247 O254 1.185 . S
O248 C247 1.160 . S
O249 Zn250 1.899 . S
O249 C257 1.284 . S
Zn250 O249 1.899 . S
Zn250 O251 2.032 . S
Zn250 O254 2.086 . S
Zn250 O259 1.977 . S
O251 Zn250 2.032 . S
O251 C255 1.278 . S
C252 O253 1.203 . S
C252 O259 1.267 . S
O253 C252 1.203 . S
O254 C247 1.185 . S
O254 Zn250 2.086 . S
C255 O251 1.278 . S
C255 O256 1.211 . S
O256 C255 1.211 . S
C257 O249 1.284 . S
C257 O258 1.273 . S
O258 C257 1.273 . S
O259 Zn250 1.977 . S
O259 C252 1.267 . S
C260 O261 1.160 . S
C260 O267 1.185 . S
O261 C260 1.160 . S
O262 Zn263 1.899 . S
O262 C270 1.284 . S
Zn263 O262 1.899 . S
Zn263 O264 2.032 . S
Zn263 O267 2.086 . S
Zn263 O272 1.977 . S
O264 Zn263 2.032 . S
O264 C268 1.278 . S
C265 O266 1.203 . S
C265 O272 1.267 . S
O266 C265 1.203 . S
O267 C260 1.185 . S
O267 Zn263 2.086 . S
C268 O264 1.278 . S
C268 O269 1.211 . S
O269 C268 1.211 . S
C270 O262 1.284 . S
C270 O271 1.273 . S
O271 C270 1.273 . S
O272 Zn263 1.977 . S
O272 C265 1.267 . S
C273 O274 1.160 . S
C273 O280 1.185 . S
O274 C273 1.160 . S
O275 Zn276 1.899 . S
O275 C283 1.284 . S
Zn276 O275 1.899 . S
Zn276 O277 2.032 . S
Zn276 O280 2.086 . S
Zn276 O285 1.977 . S
O277 Zn276 2.032 . S
O277 C281 1.278 . S
C278 O279 1.203 . S
C278 O285 1.267 . S
O279 C278 1.203 . S
O280 C273 1.185 . S
O280 Zn276 2.086 . S
C281 O277 1.278 . S
C281 O282 1.211 . S
O282 C281 1.211 . S
C283 O275 1.284 . S
C283 O284 1.273 . S
O284 C283 1.273 . S
O285 Zn276 1.977 . S
O285 C278 1.267 . S
C286 O287 1.160 . S
C286 O293 1.185 . S
O287 C286 1.160 . S
O288 Zn289 1.899 . S
O288 C296 1.284 . S
Zn289 O288 1.899 . S
Zn289 O290 2.032 . S
Zn289 O293 2.086 . S
Zn289 O298 1.977 . S
O290 Zn289 2.032 . S
O290 C294 1.278 . S
C291 O292 1.203 . S
C291 O298 1.267 . S
O292 C291 1.203 . S
O293 C286 1.185 . S
O293 Zn289 2.086 . S
C294 O290 1.278 . S
C294 O295 1.211 . S
O295 C294 1.211 . S
C296 O288 1.284 . S
C296 O297 1.273 . S
O297 C296 1.273 . S
O298 Zn289 1.977 . S
O298 C291 1.267 . S
C299 O300 1.160 . S
C299 O306 1.185 . S
O300 C299 1.160 . S
O301 Zn302 1.899 . S
O301 C309 1.284 . S
Zn302 O301 1.899 . S
Zn302 O303 2.032 . S
Zn302 O306 2.086 . S
Zn302 O311 1.977 . S
O303 Zn302 2.032 . S
O303 C307 1.278 . S
C304 O305 1.203 . S
C304 O311 1.267 . S
O305 C304 1.203 . S
O306 C299 1.185 . S
O306 Zn302 2.086 . S
C307 O303 1.278 . S
C307 O308 1.211 . S
O308 C307 1.211 . S
C309 O301 1.284 . S
C309 O310 1.273 . S
O310 C309 1.273 . S
O311 Zn302 1.977 . S
O311 C304 1.267 . S
C312 C313 1.369 . S
C312 C314 1.419 . S
C312 H316 0.930 . S
C313 C312 1.369 . S
C313 C322 1.429 . S
C314 C312 1.419 . S
C314 C315 1.363 . S
C314 H317 0.929 . S
C315 C314 1.363 . S
C315 C321 1.428 . S
H316 C312 0.930 . S
H317 C314 0.929 . S
S318 N319 1.613 . S
S318 N320 1.610 . S
N319 S318 1.613 . S
N319 C322 1.350 . S
N320 S318 1.610 . S
N320 C321 1.351 . S
C321 C315 1.428 . S
C321 N320 1.351 . S
C321 C322 1.434 . S
C322 C313 1.429 . S
C322 N319 1.350 . S
C322 C321 1.434 . S
C323 C324 1.369 . S
C323 C325 1.419 . S
C323 H327 0.930 . S
C324 C323 1.369 . S
C324 C333 1.429 . S
C325 C323 1.419 . S
C325 C326 1.363 . S
C325 H328 0.929 . S
C326 C325 1.363 . S
C326 C332 1.428 . S
H327 C323 0.930 . S
H328 C325 0.929 . S
S329 N330 1.613 . S
S329 N331 1.610 . S
N330 S329 1.613 . S
N330 C333 1.350 . S
N331 S329 1.610 . S
N331 C332 1.351 . S
C332 C326 1.428 . S
C332 N331 1.351 . S
C332 C333 1.434 . S
C333 C324 1.429 . S
C333 N330 1.350 . S
C333 C332 1.434 . S
C334 C335 1.369 . S
C334 C336 1.419 . S
C334 H338 0.930 . S
C335 C334 1.369 . S
C335 C344 1.429 . S
C336 C334 1.419 . S
C336 C337 1.363 . S
C336 H339 0.929 . S
C337 C336 1.363 . S
C337 C343 1.428 . S
H338 C334 0.930 . S
H339 C336 0.929 . S
S340 N341 1.613 . S
S340 N342 1.610 . S
N341 S340 1.613 . S
N341 C344 1.350 . S
N342 S340 1.610 . S
N342 C343 1.351 . S
C343 C337 1.428 . S
C343 N342 1.351 . S
C343 C344 1.434 . S
C344 C335 1.429 . S
C344 N341 1.350 . S
C344 C343 1.434 . S
C345 C346 1.369 . S
C345 C347 1.419 . S
C345 H349 0.930 . S
C346 C345 1.369 . S
C346 C355 1.429 . S
C347 C345 1.419 . S
C347 C348 1.363 . S
C347 H350 0.929 . S
C348 C347 1.363 . S
C348 C354 1.428 . S
H349 C345 0.930 . S
H350 C347 0.929 . S
S351 N352 1.613 . S
S351 N353 1.610 . S
N352 S351 1.613 . S
N352 C355 1.350 . S
N353 S351 1.610 . S
N353 C354 1.351 . S
C354 C348 1.428 . S
C354 N353 1.351 . S
C354 C355 1.434 . S
C355 C346 1.429 . S
C355 N352 1.350 . S
C355 C354 1.434 . S
C356 C357 1.369 . S
C356 C358 1.419 . S
C356 H360 0.930 . S
C357 C356 1.369 . S
C357 C366 1.429 . S
C358 C356 1.419 . S
C358 C359 1.363 . S
C358 H361 0.929 . S
C359 C358 1.363 . S
C359 C365 1.428 . S
H360 C356 0.930 . S
H361 C358 0.929 . S
S362 N363 1.613 . S
S362 N364 1.610 . S
N363 S362 1.613 . S
N363 C366 1.350 . S
N364 S362 1.610 . S
N364 C365 1.351 . S
C365 C359 1.428 . S
C365 N364 1.351 . S
C365 C366 1.434 . S
C366 C357 1.429 . S
C366 N363 1.350 . S
C366 C365 1.434 . S
C367 C368 1.369 . S
C367 C369 1.419 . S
C367 H371 0.930 . S
C368 C367 1.369 . S
C368 C377 1.429 . S
C369 C367 1.419 . S
C369 C370 1.363 . S
C369 H372 0.929 . S
C370 C369 1.363 . S
C370 C376 1.428 . S
H371 C367 0.930 . S
H372 C369 0.929 . S
S373 N374 1.613 . S
S373 N375 1.610 . S
N374 S373 1.613 . S
N374 C377 1.350 . S
N375 S373 1.610 . S
N375 C376 1.351 . S
C376 C370 1.428 . S
C376 N375 1.351 . S
C376 C377 1.434 . S
C377 C368 1.429 . S
C377 N374 1.350 . S
C377 C376 1.434 . S
C378 C379 1.369 . S
C378 C380 1.419 . S
C378 H382 0.930 . S
C379 C378 1.369 . S
C379 C388 1.429 . S
C380 C378 1.419 . S
C380 C381 1.363 . S
C380 H383 0.929 . S
C381 C380 1.363 . S
C381 C387 1.428 . S
H382 C378 0.930 . S
H383 C380 0.929 . S
S384 N385 1.613 . S
S384 N386 1.610 . S
N385 S384 1.613 . S
N385 C388 1.350 . S
N386 S384 1.610 . S
N386 C387 1.351 . S
C387 C381 1.428 . S
C387 N386 1.351 . S
C387 C388 1.434 . S
C388 C379 1.429 . S
C388 N385 1.350 . S
C388 C387 1.434 . S
C389 C390 1.369 . S
C389 C391 1.419 . S
C389 H393 0.930 . S
C390 C389 1.369 . S
C390 C399 1.429 . S
C391 C389 1.419 . S
C391 C392 1.363 . S
C391 H394 0.929 . S
C392 C391 1.363 . S
C392 C398 1.428 . S
H393 C389 0.930 . S
H394 C391 0.929 . S
S395 N396 1.613 . S
S395 N397 1.610 . S
N396 S395 1.613 . S
N396 C399 1.350 . S
N397 S395 1.610 . S
N397 C398 1.351 . S
C398 C392 1.428 . S
C398 N397 1.351 . S
C398 C399 1.434 . S
C399 C390 1.429 . S
C399 N396 1.350 . S
C399 C398 1.434 . S
C400 C401 1.369 . S
C400 C402 1.419 . S
C400 H404 0.930 . S
C401 C400 1.369 . S
C401 C410 1.429 . S
C402 C400 1.419 . S
C402 C403 1.363 . S
C402 H405 0.929 . S
C403 C402 1.363 . S
C403 C409 1.428 . S
H404 C400 0.930 . S
H405 C402 0.929 . S
S406 N407 1.613 . S
S406 N408 1.610 . S
N407 S406 1.613 . S
N407 C410 1.350 . S
N408 S406 1.610 . S
N408 C409 1.351 . S
C409 C403 1.428 . S
C409 N408 1.351 . S
C409 C410 1.434 . S
C410 C401 1.429 . S
C410 N407 1.350 . S
C410 C409 1.434 . S
C411 C412 1.369 . S
C411 C413 1.419 . S
C411 H415 0.930 . S
C412 C411 1.369 . S
C412 C421 1.429 . S
C413 C411 1.419 . S
C413 C414 1.363 . S
C413 H416 0.929 . S
C414 C413 1.363 . S
C414 C420 1.428 . S
H415 C411 0.930 . S
H416 C413 0.929 . S
S417 N418 1.613 . S
S417 N419 1.610 . S
N418 S417 1.613 . S
N418 C421 1.350 . S
N419 S417 1.610 . S
N419 C420 1.351 . S
C420 C414 1.428 . S
C420 N419 1.351 . S
C420 C421 1.434 . S
C421 C412 1.429 . S
C421 N418 1.350 . S
C421 C420 1.434 . S
C422 C423 1.369 . S
C422 C424 1.419 . S
C422 H426 0.930 . S
C423 C422 1.369 . S
C423 C432 1.429 . S
C424 C422 1.419 . S
C424 C425 1.363 . S
C424 H427 0.929 . S
C425 C424 1.363 . S
C425 C431 1.428 . S
H426 C422 0.930 . S
H427 C424 0.929 . S
S428 N429 1.613 . S
S428 N430 1.610 . S
N429 S428 1.613 . S
N429 C432 1.350 . S
N430 S428 1.610 . S
N430 C431 1.351 . S
C431 C425 1.428 . S
C431 N430 1.351 . S
C431 C432 1.434 . S
C432 C423 1.429 . S
C432 N429 1.350 . S
C432 C431 1.434 . S
C433 C434 1.369 . S
C433 C435 1.419 . S
C433 H437 0.930 . S
C434 C433 1.369 . S
C434 C443 1.429 . S
C435 C433 1.419 . S
C435 C436 1.363 . S
C435 H438 0.929 . S
C436 C435 1.363 . S
C436 C442 1.428 . S
H437 C433 0.930 . S
H438 C435 0.929 . S
S439 N440 1.613 . S
S439 N441 1.610 . S
N440 S439 1.613 . S
N440 C443 1.350 . S
N441 S439 1.610 . S
N441 C442 1.351 . S
C442 C436 1.428 . S
C442 N441 1.351 . S
C442 C443 1.434 . S
C443 C434 1.429 . S
C443 N440 1.350 . S
C443 C442 1.434 . S
C444 C445 1.369 . S
C444 C446 1.419 . S
C444 H448 0.930 . S
C445 C444 1.369 . S
C445 C454 1.429 . S
C446 C444 1.419 . S
C446 C447 1.363 . S
C446 H449 0.929 . S
C447 C446 1.363 . S
C447 C453 1.428 . S
H448 C444 0.930 . S
H449 C446 0.929 . S
S450 N451 1.613 . S
S450 N452 1.610 . S
N451 S450 1.613 . S
N451 C454 1.350 . S
N452 S450 1.610 . S
N452 C453 1.351 . S
C453 C447 1.428 . S
C453 N452 1.351 . S
C453 C454 1.434 . S
C454 C445 1.429 . S
C454 N451 1.350 . S
C454 C453 1.434 . S
C455 C456 1.369 . S
C455 C457 1.419 . S
C455 H459 0.930 . S
C456 C455 1.369 . S
C456 C465 1.429 . S
C457 C455 1.419 . S
C457 C458 1.363 . S
C457 H460 0.929 . S
C458 C457 1.363 . S
C458 C464 1.428 . S
H459 C455 0.930 . S
H460 C457 0.929 . S
S461 N462 1.613 . S
S461 N463 1.610 . S
N462 S461 1.613 . S
N462 C465 1.350 . S
N463 S461 1.610 . S
N463 C464 1.351 . S
C464 C458 1.428 . S
C464 N463 1.351 . S
C464 C465 1.434 . S
C465 C456 1.429 . S
C465 N462 1.350 . S
C465 C464 1.434 . S
C466 C467 1.369 . S
C466 C468 1.419 . S
C466 H470 0.930 . S
C467 C466 1.369 . S
C467 C476 1.429 . S
C468 C466 1.419 . S
C468 C469 1.363 . S
C468 H471 0.929 . S
C469 C468 1.363 . S
C469 C475 1.428 . S
H470 C466 0.930 . S
H471 C468 0.929 . S
S472 N473 1.613 . S
S472 N474 1.610 . S
N473 S472 1.613 . S
N473 C476 1.350 . S
N474 S472 1.610 . S
N474 C475 1.351 . S
C475 C469 1.428 . S
C475 N474 1.351 . S
C475 C476 1.434 . S
C476 C467 1.429 . S
C476 N473 1.350 . S
C476 C475 1.434 . S
C477 C478 1.369 . S
C477 C479 1.419 . S
C477 H481 0.930 . S
C478 C477 1.369 . S
C478 C487 1.429 . S
C479 C477 1.419 . S
C479 C480 1.363 . S
C479 H482 0.929 . S
C480 C479 1.363 . S
C480 C486 1.428 . S
H481 C477 0.930 . S
H482 C479 0.929 . S
S483 N484 1.613 . S
S483 N485 1.610 . S
N484 S483 1.613 . S
N484 C487 1.350 . S
N485 S483 1.610 . S
N485 C486 1.351 . S
C486 C480 1.428 . S
C486 N485 1.351 . S
C486 C487 1.434 . S
C487 C478 1.429 . S
C487 N484 1.350 . S
C487 C486 1.434 . S
C488 C489 1.369 . S
C488 C490 1.419 . S
C488 H492 0.930 . S
C489 C488 1.369 . S
C489 C498 1.429 . S
C490 C488 1.419 . S
C490 C491 1.363 . S
C490 H493 0.929 . S
C491 C490 1.363 . S
C491 C497 1.428 . S
H492 C488 0.930 . S
H493 C490 0.929 . S
S494 N495 1.613 . S
S494 N496 1.610 . S
N495 S494 1.613 . S
N495 C498 1.350 . S
N496 S494 1.610 . S
N496 C497 1.351 . S
C497 C491 1.428 . S
C497 N496 1.351 . S
C497 C498 1.434 . S
C498 C489 1.429 . S
C498 N495 1.350 . S
C498 C497 1.434 . S
C499 C500 1.369 . S
C499 C501 1.419 . S
C499 H503 0.930 . S
C500 C499 1.369 . S
C500 C509 1.429 . S
C501 C499 1.419 . S
C501 C502 1.363 . S
C501 H504 0.929 . S
C502 C501 1.363 . S
C502 C508 1.428 . S
H503 C499 0.930 . S
H504 C501 0.929 . S
S505 N506 1.613 . S
S505 N507 1.610 . S
N506 S505 1.613 . S
N506 C509 1.350 . S
N507 S505 1.610 . S
N507 C508 1.351 . S
C508 C502 1.428 . S
C508 N507 1.351 . S
C508 C509 1.434 . S
C509 C500 1.429 . S
C509 N506 1.350 . S
C509 C508 1.434 . S
C510 C511 1.369 . S
C510 C512 1.419 . S
C510 H514 0.930 . S
C511 C510 1.369 . S
C511 C520 1.429 . S
C512 C510 1.419 . S
C512 C513 1.363 . S
C512 H515 0.929 . S
C513 C512 1.363 . S
C513 C519 1.428 . S
H514 C510 0.930 . S
H515 C512 0.929 . S
S516 N517 1.613 . S
S516 N518 1.610 . S
N517 S516 1.613 . S
N517 C520 1.350 . S
N518 S516 1.610 . S
N518 C519 1.351 . S
C519 C513 1.428 . S
C519 N518 1.351 . S
C519 C520 1.434 . S
C520 C511 1.429 . S
C520 N517 1.350 . S
C520 C519 1.434 . S
C521 C522 1.369 . S
C521 C523 1.419 . S
C521 H525 0.930 . S
C522 C521 1.369 . S
C522 C531 1.429 . S
C523 C521 1.419 . S
C523 C524 1.363 . S
C523 H526 0.929 . S
C524 C523 1.363 . S
C524 C530 1.428 . S
H525 C521 0.930 . S
H526 C523 0.929 . S
S527 N528 1.613 . S
S527 N529 1.610 . S
N528 S527 1.613 . S
N528 C531 1.350 . S
N529 S527 1.610 . S
N529 C530 1.351 . S
C530 C524 1.428 . S
C530 N529 1.351 . S
C530 C531 1.434 . S
C531 C522 1.429 . S
C531 N528 1.350 . S
C531 C530 1.434 . S
C532 C533 1.369 . S
C532 C534 1.419 . S
C532 H536 0.930 . S
C533 C532 1.369 . S
C533 C542 1.429 . S
C534 C532 1.419 . S
C534 C535 1.363 . S
C534 H537 0.929 . S
C535 C534 1.363 . S
C535 C541 1.428 . S
H536 C532 0.930 . S
H537 C534 0.929 . S
S538 N539 1.613 . S
S538 N540 1.610 . S
N539 S538 1.613 . S
N539 C542 1.350 . S
N540 S538 1.610 . S
N540 C541 1.351 . S
C541 C535 1.428 . S
C541 N540 1.351 . S
C541 C542 1.434 . S
C542 C533 1.429 . S
C542 N539 1.350 . S
C542 C541 1.434 . S
C543 C544 1.369 . S
C543 C545 1.419 . S
C543 H547 0.930 . S
C544 C543 1.369 . S
C544 C553 1.429 . S
C545 C543 1.419 . S
C545 C546 1.363 . S
C545 H548 0.929 . S
C546 C545 1.363 . S
C546 C552 1.428 . S
H547 C543 0.930 . S
H548 C545 0.929 . S
S549 N550 1.613 . S
S549 N551 1.610 . S
N550 S549 1.613 . S
N550 C553 1.350 . S
N551 S549 1.610 . S
N551 C552 1.351 . S
C552 C546 1.428 . S
C552 N551 1.351 . S
C552 C553 1.434 . S
C553 C544 1.429 . S
C553 N550 1.350 . S
C553 C552 1.434 . S
C554 C555 1.369 . S
C554 C556 1.419 . S
C554 H558 0.930 . S
C555 C554 1.369 . S
C555 C564 1.429 . S
C556 C554 1.419 . S
C556 C557 1.363 . S
C556 H559 0.929 . S
C557 C556 1.363 . S
C557 C563 1.428 . S
H558 C554 0.930 . S
H559 C556 0.929 . S
S560 N561 1.613 . S
S560 N562 1.610 . S
N561 S560 1.613 . S
N561 C564 1.350 . S
N562 S560 1.610 . S
N562 C563 1.351 . S
C563 C557 1.428 . S
C563 N562 1.351 . S
C563 C564 1.434 . S
C564 C555 1.429 . S
C564 N561 1.350 . S
C564 C563 1.434 . S
C565 C566 1.369 . S
C565 C567 1.419 . S
C565 H569 0.930 . S
C566 C565 1.369 . S
C566 C575 1.429 . S
C567 C565 1.419 . S
C567 C568 1.363 . S
C567 H570 0.929 . S
C568 C567 1.363 . S
C568 C574 1.428 . S
H569 C565 0.930 . S
H570 C567 0.929 . S
S571 N572 1.613 . S
S571 N573 1.610 . S
N572 S571 1.613 . S
N572 C575 1.350 . S
N573 S571 1.610 . S
N573 C574 1.351 . S
C574 C568 1.428 . S
C574 N573 1.351 . S
C574 C575 1.434 . S
C575 C566 1.429 . S
C575 N572 1.350 . S
C575 C574 1.434 . S
C576 C577 1.369 . S
C576 C578 1.419 . S
C576 H580 0.930 . S
C577 C576 1.369 . S
C577 C586 1.429 . S
C578 C576 1.419 . S
C578 C579 1.363 . S
C578 H581 0.929 . S
C579 C578 1.363 . S
C579 C585 1.428 . S
H580 C576 0.930 . S
H581 C578 0.929 . S
S582 N583 1.613 . S
S582 N584 1.610 . S
N583 S582 1.613 . S
N583 C586 1.350 . S
N584 S582 1.610 . S
N584 C585 1.351 . S
C585 C579 1.428 . S
C585 N584 1.351 . S
C585 C586 1.434 . S
C586 C577 1.429 . S
C586 N583 1.350 . S
C586 C585 1.434 . S
C587 C588 1.369 . S
C587 C589 1.419 . S
C587 H591 0.930 . S
C588 C587 1.369 . S
C588 C597 1.429 . S
C589 C587 1.419 . S
C589 C590 1.363 . S
C589 H592 0.929 . S
C590 C589 1.363 . S
C590 C596 1.428 . S
H591 C587 0.930 . S
H592 C589 0.929 . S
S593 N594 1.613 . S
S593 N595 1.610 . S
N594 S593 1.613 . S
N594 C597 1.350 . S
N595 S593 1.610 . S
N595 C596 1.351 . S
C596 C590 1.428 . S
C596 N595 1.351 . S
C596 C597 1.434 . S
C597 C588 1.429 . S
C597 N594 1.350 . S
C597 C596 1.434 . S
C598 C599 1.369 . S
C598 C600 1.419 . S
C598 H602 0.930 . S
C599 C598 1.369 . S
C599 C608 1.429 . S
C600 C598 1.419 . S
C600 C601 1.363 . S
C600 H603 0.929 . S
C601 C600 1.363 . S
C601 C607 1.428 . S
H602 C598 0.930 . S
H603 C600 0.929 . S
S604 N605 1.613 . S
S604 N606 1.610 . S
N605 S604 1.613 . S
N605 C608 1.350 . S
N606 S604 1.610 . S
N606 C607 1.351 . S
C607 C601 1.428 . S
C607 N606 1.351 . S
C607 C608 1.434 . S
C608 C599 1.429 . S
C608 N605 1.350 . S
C608 C607 1.434 . S
C609 C610 1.369 . S
C609 C611 1.419 . S
C609 H613 0.930 . S
C610 C609 1.369 . S
C610 C619 1.429 . S
C611 C609 1.419 . S
C611 C612 1.363 . S
C611 H614 0.929 . S
C612 C611 1.363 . S
C612 C618 1.428 . S
H613 C609 0.930 . S
H614 C611 0.929 . S
S615 N616 1.613 . S
S615 N617 1.610 . S
N616 S615 1.613 . S
N616 C619 1.350 . S
N617 S615 1.610 . S
N617 C618 1.351 . S
C618 C612 1.428 . S
C618 N617 1.351 . S
C618 C619 1.434 . S
C619 C610 1.429 . S
C619 N616 1.350 . S
C619 C618 1.434 . S
C620 C621 1.369 . S
C620 C622 1.419 . S
C620 H624 0.930 . S
C621 C620 1.369 . S
C621 C630 1.429 . S
C622 C620 1.419 . S
C622 C623 1.363 . S
C622 H625 0.929 . S
C623 C622 1.363 . S
C623 C629 1.428 . S
H624 C620 0.930 . S
H625 C622 0.929 . S
S626 N627 1.613 . S
S626 N628 1.610 . S
N627 S626 1.613 . S
N627 C630 1.350 . S
N628 S626 1.610 . S
N628 C629 1.351 . S
C629 C623 1.428 . S
C629 N628 1.351 . S
C629 C630 1.434 . S
C630 C621 1.429 . S
C630 N627 1.350 . S
C630 C629 1.434 . S
C631 C632 1.369 . S
C631 C633 1.419 . S
C631 H635 0.930 . S
C632 C631 1.369 . S
C632 C641 1.429 . S
C633 C631 1.419 . S
C633 C634 1.363 . S
C633 H636 0.929 . S
C634 C633 1.363 . S
C634 C640 1.428 . S
H635 C631 0.930 . S
H636 C633 0.929 . S
S637 N638 1.613 . S
S637 N639 1.610 . S
N638 S637 1.613 . S
N638 C641 1.350 . S
N639 S637 1.610 . S
N639 C640 1.351 . S
C640 C634 1.428 . S
C640 N639 1.351 . S
C640 C641 1.434 . S
C641 C632 1.429 . S
C641 N638 1.350 . S
C641 C640 1.434 . S
C642 C643 1.369 . S
C642 C644 1.419 . S
C642 H646 0.930 . S
C643 C642 1.369 . S
C643 C652 1.429 . S
C644 C642 1.419 . S
C644 C645 1.363 . S
C644 H647 0.929 . S
C645 C644 1.363 . S
C645 C651 1.428 . S
H646 C642 0.930 . S
H647 C644 0.929 . S
S648 N649 1.613 . S
S648 N650 1.610 . S
N649 S648 1.613 . S
N649 C652 1.350 . S
N650 S648 1.610 . S
N650 C651 1.351 . S
C651 C645 1.428 . S
C651 N650 1.351 . S
C651 C652 1.434 . S
C652 C643 1.429 . S
C652 N649 1.350 . S
C652 C651 1.434 . S
C653 C654 1.369 . S
C653 C655 1.419 . S
C653 H657 0.930 . S
C654 C653 1.369 . S
C654 C663 1.429 . S
C655 C653 1.419 . S
C655 C656 1.363 . S
C655 H658 0.929 . S
C656 C655 1.363 . S
C656 C662 1.428 . S
H657 C653 0.930 . S
H658 C655 0.929 . S
S659 N660 1.613 . S
S659 N661 1.610 . S
N660 S659 1.613 . S
N660 C663 1.350 . S
N661 S659 1.610 . S
N661 C662 1.351 . S
C662 C656 1.428 . S
C662 N661 1.351 . S
C662 C663 1.434 . S
C663 C654 1.429 . S
C663 N660 1.350 . S
C663 C662 1.434 . S
C664 C665 1.369 . S
C664 C666 1.419 . S
C664 H668 0.930 . S
C665 C664 1.369 . S
C665 C674 1.429 . S
C666 C664 1.419 . S
C666 C667 1.363 . S
C666 H669 0.929 . S
C667 C666 1.363 . S
C667 C673 1.428 . S
H668 C664 0.930 . S
H669 C666 0.929 . S
S670 N671 1.613 . S
S670 N672 1.610 . S
N671 S670 1.613 . S
N671 C674 1.350 . S
N672 S670 1.610 . S
N672 C673 1.351 . S
C673 C667 1.428 . S
C673 N672 1.351 . S
C673 C674 1.434 . S
C674 C665 1.429 . S
C674 N671 1.350 . S
C674 C673 1.434 . S
C675 C676 1.369 . S
C675 C677 1.419 . S
C675 H679 0.930 . S
C676 C675 1.369 . S
C676 C685 1.429 . S
C677 C675 1.419 . S
C677 C678 1.363 . S
C677 H680 0.929 . S
C678 C677 1.363 . S
C678 C684 1.428 . S
H679 C675 0.930 . S
H680 C677 0.929 . S
S681 N682 1.613 . S
S681 N683 1.610 . S
N682 S681 1.613 . S
N682 C685 1.350 . S
N683 S681 1.610 . S
N683 C684 1.351 . S
C684 C678 1.428 . S
C684 N683 1.351 . S
C684 C685 1.434 . S
C685 C676 1.429 . S
C685 N682 1.350 . S
C685 C684 1.434 . S
C686 C687 1.369 . S
C686 C688 1.419 . S
C686 H690 0.930 . S
C687 C686 1.369 . S
C687 C696 1.429 . S
C688 C686 1.419 . S
C688 C689 1.363 . S
C688 H691 0.929 . S
C689 C688 1.363 . S
C689 C695 1.428 . S
H690 C686 0.930 . S
H691 C688 0.929 . S
S692 N693 1.613 . S
S692 N694 1.610 . S
N693 S692 1.613 . S
N693 C696 1.350 . S
N694 S692 1.610 . S
N694 C695 1.351 . S
C695 C689 1.428 . S
C695 N694 1.351 . S
C695 C696 1.434 . S
C696 C687 1.429 . S
C696 N693 1.350 . S
C696 C695 1.434 . S
C697 C698 1.369 . S
C697 C699 1.419 . S
C697 H701 0.930 . S
C698 C697 1.369 . S
C698 C707 1.429 . S
C699 C697 1.419 . S
C699 C700 1.363 . S
C699 H702 0.929 . S
C700 C699 1.363 . S
C700 C706 1.428 . S
H701 C697 0.930 . S
H702 C699 0.929 . S
S703 N704 1.613 . S
S703 N705 1.610 . S
N704 S703 1.613 . S
N704 C707 1.350 . S
N705 S703 1.610 . S
N705 C706 1.351 . S
C706 C700 1.428 . S
C706 N705 1.351 . S
C706 C707 1.434 . S
C707 C698 1.429 . S
C707 N704 1.350 . S
C707 C706 1.434 . S
C708 C709 1.369 . S
C708 C710 1.419 . S
C708 H712 0.930 . S
C709 C708 1.369 . S
C709 C718 1.429 . S
C710 C708 1.419 . S
C710 C711 1.363 . S
C710 H713 0.929 . S
C711 C710 1.363 . S
C711 C717 1.428 . S
H712 C708 0.930 . S
H713 C710 0.929 . S
S714 N715 1.613 . S
S714 N716 1.610 . S
N715 S714 1.613 . S
N715 C718 1.350 . S
N716 S714 1.610 . S
N716 C717 1.351 . S
C717 C711 1.428 . S
C717 N716 1.351 . S
C717 C718 1.434 . S
C718 C709 1.429 . S
C718 N715 1.350 . S
C718 C717 1.434 . S
C719 C720 1.369 . S
C719 C721 1.419 . S
C719 H723 0.930 . S
C720 C719 1.369 . S
C720 C729 1.429 . S
C721 C719 1.419 . S
C721 C722 1.363 . S
C721 H724 0.929 . S
C722 C721 1.363 . S
C722 C728 1.428 . S
H723 C719 0.930 . S
H724 C721 0.929 . S
S725 N726 1.613 . S
S725 N727 1.610 . S
N726 S725 1.613 . S
N726 C729 1.350 . S
N727 S725 1.610 . S
N727 C728 1.351 . S
C728 C722 1.428 . S
C728 N727 1.351 . S
C728 C729 1.434 . S
C729 C720 1.429 . S
C729 N726 1.350 . S
C729 C728 1.434 . S
C730 C731 1.369 . S
C730 C732 1.419 . S
C730 H734 0.930 . S
C731 C730 1.369 . S
C731 C740 1.429 . S
C732 C730 1.419 . S
C732 C733 1.363 . S
C732 H735 0.929 . S
C733 C732 1.363 . S
C733 C739 1.428 . S
H734 C730 0.930 . S
H735 C732 0.929 . S
S736 N737 1.613 . S
S736 N738 1.610 . S
N737 S736 1.613 . S
N737 C740 1.350 . S
N738 S736 1.610 . S
N738 C739 1.351 . S
C739 C733 1.428 . S
C739 N738 1.351 . S
C739 C740 1.434 . S
C740 C731 1.429 . S
C740 N737 1.350 . S
C740 C739 1.434 . S
C741 C742 1.369 . S
C741 C743 1.419 . S
C741 H745 0.930 . S
C742 C741 1.369 . S
C742 C751 1.429 . S
C743 C741 1.419 . S
C743 C744 1.363 . S
C743 H746 0.929 . S
C744 C743 1.363 . S
C744 C750 1.428 . S
H745 C741 0.930 . S
H746 C743 0.929 . S
S747 N748 1.613 . S
S747 N749 1.610 . S
N748 S747 1.613 . S
N748 C751 1.350 . S
N749 S747 1.610 . S
N749 C750 1.351 . S
C750 C744 1.428 . S
C750 N749 1.351 . S
C750 C751 1.434 . S
C751 C742 1.429 . S
C751 N748 1.350 . S
C751 C750 1.434 . S
C752 C753 1.369 . S
C752 C754 1.419 . S
C752 H756 0.930 . S
C753 C752 1.369 . S
C753 C762 1.429 . S
C754 C752 1.419 . S
C754 C755 1.363 . S
C754 H757 0.929 . S
C755 C754 1.363 . S
C755 C761 1.428 . S
H756 C752 0.930 . S
H757 C754 0.929 . S
S758 N759 1.613 . S
S758 N760 1.610 . S
N759 S758 1.613 . S
N759 C762 1.350 . S
N760 S758 1.610 . S
N760 C761 1.351 . S
C761 C755 1.428 . S
C761 N760 1.351 . S
C761 C762 1.434 . S
C762 C753 1.429 . S
C762 N759 1.350 . S
C762 C761 1.434 . S
C763 C764 1.369 . S
C763 C765 1.419 . S
C763 H767 0.930 . S
C764 C763 1.369 . S
C764 C773 1.429 . S
C765 C763 1.419 . S
C765 C766 1.363 . S
C765 H768 0.929 . S
C766 C765 1.363 . S
C766 C772 1.428 . S
H767 C763 0.930 . S
H768 C765 0.929 . S
S769 N770 1.613 . S
S769 N771 1.610 . S
N770 S769 1.613 . S
N770 C773 1.350 . S
N771 S769 1.610 . S
N771 C772 1.351 . S
C772 C766 1.428 . S
C772 N771 1.351 . S
C772 C773 1.434 . S
C773 C764 1.429 . S
C773 N770 1.350 . S
C773 C772 1.434 . S
C774 C775 1.369 . S
C774 C776 1.419 . S
C774 H778 0.930 . S
C775 C774 1.369 . S
C775 C784 1.429 . S
C776 C774 1.419 . S
C776 C777 1.363 . S
C776 H779 0.929 . S
C777 C776 1.363 . S
C777 C783 1.428 . S
H778 C774 0.930 . S
H779 C776 0.929 . S
S780 N781 1.613 . S
S780 N782 1.610 . S
N781 S780 1.613 . S
N781 C784 1.350 . S
N782 S780 1.610 . S
N782 C783 1.351 . S
C783 C777 1.428 . S
C783 N782 1.351 . S
C783 C784 1.434 . S
C784 C775 1.429 . S
C784 N781 1.350 . S
C784 C783 1.434 . S
C785 C786 1.369 . S
C785 C787 1.419 . S
C785 H789 0.930 . S
C786 C785 1.369 . S
C786 C795 1.429 . S
C787 C785 1.419 . S
C787 C788 1.363 . S
C787 H790 0.929 . S
C788 C787 1.363 . S
C788 C794 1.428 . S
H789 C785 0.930 . S
H790 C787 0.929 . S
S791 N792 1.613 . S
S791 N793 1.610 . S
N792 S791 1.613 . S
N792 C795 1.350 . S
N793 S791 1.610 . S
N793 C794 1.351 . S
C794 C788 1.428 . S
C794 N793 1.351 . S
C794 C795 1.434 . S
C795 C786 1.429 . S
C795 N792 1.350 . S
C795 C794 1.434 . S
C796 C797 1.369 . S
C796 C798 1.419 . S
C796 H800 0.930 . S
C797 C796 1.369 . S
C797 C806 1.429 . S
C798 C796 1.419 . S
C798 C799 1.363 . S
C798 H801 0.929 . S
C799 C798 1.363 . S
C799 C805 1.428 . S
H800 C796 0.930 . S
H801 C798 0.929 . S
S802 N803 1.613 . S
S802 N804 1.610 . S
N803 S802 1.613 . S
N803 C806 1.350 . S
N804 S802 1.610 . S
N804 C805 1.351 . S
C805 C799 1.428 . S
C805 N804 1.351 . S
C805 C806 1.434 . S
C806 C797 1.429 . S
C806 N803 1.350 . S
C806 C805 1.434 . S
C807 C808 1.369 . S
C807 C809 1.419 . S
C807 H811 0.930 . S
C808 C807 1.369 . S
C808 C817 1.429 . S
C809 C807 1.419 . S
C809 C810 1.363 . S
C809 H812 0.929 . S
C810 C809 1.363 . S
C810 C816 1.428 . S
H811 C807 0.930 . S
H812 C809 0.929 . S
S813 N814 1.613 . S
S813 N815 1.610 1_565 S
N814 S813 1.613 . S
N814 C817 1.350 . S
N815 S813 1.610 1_545 S
N815 C816 1.351 1_545 S
C816 C810 1.428 . S
C816 N815 1.351 1_565 S
C816 C817 1.434 . S
C817 C808 1.429 . S
C817 N814 1.350 . S
C817 C816 1.434 . S
C818 C819 1.369 . S
C818 C820 1.419 . S
C818 H822 0.926 1_545 S
C819 C818 1.369 . S
C819 C828 1.429 . S
C820 C818 1.419 . S
C820 C821 1.363 . S
C820 H823 0.929 . S
C821 C820 1.363 . S
C821 C827 1.428 . S
H822 C818 0.926 1_565 S
H823 C820 0.929 . S
S824 N825 1.613 . S
S824 N826 1.610 . S
N825 S824 1.613 . S
N825 C828 1.350 . S
N826 S824 1.610 . S
N826 C827 1.351 . S
C827 C821 1.428 . S
C827 N826 1.351 . S
C827 C828 1.434 . S
C828 C819 1.429 . S
C828 N825 1.350 . S
C828 C827 1.434 . S
C829 C830 1.369 . S
C829 C831 1.419 . S
C829 H833 0.930 . S
C830 C829 1.369 . S
C830 C839 1.429 . S
C831 C829 1.419 . S
C831 C832 1.363 . S
C831 H834 0.929 . S
C832 C831 1.363 . S
C832 C838 1.428 . S
H833 C829 0.930 . S
H834 C831 0.929 . S
S835 N836 1.613 . S
S835 N837 1.610 . S
N836 S835 1.613 . S
N836 C839 1.350 . S
N837 S835 1.610 . S
N837 C838 1.351 . S
C838 C832 1.428 . S
C838 N837 1.351 . S
C838 C839 1.434 . S
C839 C830 1.429 . S
C839 N836 1.350 . S
C839 C838 1.434 . S
C313 C109 1.142 . S
C315 C10 1.210 . S
C324 C23 1.206 . S
C326 C148 1.152 . S
C335 C36 1.207 . S
C337 C122 1.154 . S
C346 C49 1.207 . S
C348 C135 1.155 . S
C357 C57 1.073 . S
C359 C5 1.100 . S
C368 C18 1.103 . S
C370 C70 1.074 . S
C379 C83 1.075 . S
C381 C31 1.109 . S
C390 C44 1.112 . S
C392 C96 1.072 . S
C401 C62 1.201 . S
C403 C114 1.180 . S
C412 C88 1.201 . S
C414 C127 1.180 . S
C423 C140 1.181 . S
C425 C101 1.201 . S
C434 C75 1.201 . S
C436 C153 1.176 . S
C445 C265 1.099 . S
C447 C166 1.173 . S
C456 C179 1.169 . S
C458 C304 1.099 . S
C467 C192 1.172 . S
C469 C278 1.112 . S
C478 C291 1.102 . S
C480 C205 1.174 . S
C489 C218 1.172 . S
C491 C161 1.097 . S
C500 C174 1.111 . S
C502 C231 1.172 . S
C511 C187 1.100 . S
C513 C244 1.168 . S
C522 C257 1.172 . S
C524 C200 1.097 . S
C533 C270 1.232 . S
C535 C213 1.171 . S
C544 C239 1.175 . S
C546 C283 1.237 . S
C555 C252 1.170 . S
C557 C296 1.231 . S
C566 C309 1.232 . S
C568 C226 1.161 . S
C577 C286 1.401 . S
C579 C8 1.350 . S
C588 C273 1.401 1_556 S
C590 C21 1.348 . S
C599 C299 1.401 . S
C601 C34 1.350 . S
C610 C47 1.345 . S
C612 C260 1.395 1_554 S
C621 C52 1.323 . S
C623 C169 1.360 . S
C632 C156 1.358 1_455 S
C634 C65 1.329 . S
C643 C195 1.363 1_655 S
C645 C78 1.324 . S
C654 C182 1.361 . S
C656 C91 1.333 . S
C665 C112 1.314 . S
C667 C234 1.340 . S
C676 C208 1.344 1_545 S
C678 C125 1.323 . S
C687 C221 1.342 1_565 S
C689 C138 1.315 . S
C698 C247 1.345 . S
C700 C151 1.322 . S
C709 C130 1.308 . S
C711 C164 1.293 . S
C720 C117 1.310 1_554 S
C722 C177 1.289 . S
C731 C190 1.292 . S
C733 C143 1.309 . S
C742 C104 1.311 1_556 S
C744 C203 1.296 . S
C753 C216 1.333 . S
C755 C13 1.339 . S
C764 C229 1.325 . S
C766 C0 1.340 1_655 S
C775 C242 1.324 . S
C777 C39 1.342 1_455 S
C786 C255 1.324 . S
C788 C26 1.344 . S
C797 C268 1.313 . S
C799 C86 1.352 . S
C808 C281 1.324 . S
C810 C60 1.353 1_565 S
C819 C73 1.351 1_545 S
C821 C294 1.314 . S
C830 C307 1.315 . S
C832 C99 1.356 . S
