# Generated by pormake.
# Topology rac, (4)-cn, num edge types: 1
# Building blocks:
#     Node 0, Type 0, BuildingBlock: CEKHIL_clean_sbu_0, # of connection points: 4
#     Node 1, Type 0, BuildingBlock: CEKHIL_clean_sbu_0, # of connection points: 4
#     Node 2, Type 0, BuildingBlock: CEKHIL_clean_sbu_0, # of connection points: 4
#     Node 3, Type 0, BuildingBlock: CEKHIL_clean_sbu_0, # of connection points: 4
#     Node 4, Type 0, BuildingBlock: CEKHIL_clean_sbu_0, # of connection points: 4
#     Node 5, Type 0, BuildingBlock: CEKHIL_clean_sbu_0, # of connection points: 4
#     Node 6, Type 0, BuildingBlock: CEKHIL_clean_sbu_0, # of connection points: 4
#     Node 7, Type 0, BuildingBlock: CEKHIL_clean_sbu_0, # of connection points: 4
#     Edge 8, Type (0, 0), BuildingBlock: EZIPEK_clean_linker_0, # of connection points: 2
#     Edge 9, Type (0, 0), BuildingBlock: EZIPEK_clean_linker_0, # of connection points: 2
#     Edge 10, Type (0, 0), BuildingBlock: EZIPEK_clean_linker_0, # of connection points: 2
#     Edge 11, Type (0, 0), BuildingBlock: EZIPEK_clean_linker_0, # of connection points: 2
#     Edge 12, Type (0, 0), BuildingBlock: EZIPEK_clean_linker_0, # of connection points: 2
#     Edge 13, Type (0, 0), BuildingBlock: EZIPEK_clean_linker_0, # of connection points: 2
#     Edge 14, Type (0, 0), BuildingBlock: EZIPEK_clean_linker_0, # of connection points: 2
#     Edge 15, Type (0, 0), BuildingBlock: EZIPEK_clean_linker_0, # of connection points: 2
#     Edge 16, Type (0, 0), BuildingBlock: EZIPEK_clean_linker_0, # of connection points: 2
#     Edge 17, Type (0, 0), BuildingBlock: EZIPEK_clean_linker_0, # of connection points: 2
#     Edge 18, Type (0, 0), BuildingBlock: EZIPEK_clean_linker_0, # of connection points: 2
#     Edge 19, Type (0, 0), BuildingBlock: EZIPEK_clean_linker_0, # of connection points: 2
#     Edge 20, Type (0, 0), BuildingBlock: EZIPEK_clean_linker_0, # of connection points: 2
#     Edge 21, Type (0, 0), BuildingBlock: EZIPEK_clean_linker_0, # of connection points: 2
#     Edge 22, Type (0, 0), BuildingBlock: EZIPEK_clean_linker_0, # of connection points: 2
#     Edge 23, Type (0, 0), BuildingBlock: EZIPEK_clean_linker_0, # of connection points: 2
# Relax obj value: 0.220
# Max RMSD: 0.073
# Mean RMSD: 0.073
data_MOF--net-rac--node1-CEKHIL_clean_sbu_0--edge1-EZIPEK_clean_linker_0
_symmetry_space_group_name_H-M    P1
_symmetry_Int_Tables_number       1
_symmetry_cell_setting            triclinic
loop_
_symmetry_equiv_pos_as_xyz
'x, y, z'
_cell_length_a     29.918273
_cell_length_b     15.531065
_cell_length_c     25.997706
_cell_angle_alpha  90.101986
_cell_angle_beta   89.866806
_cell_angle_gamma 89.984047
loop_
_atom_site_label
_atom_site_type_symbol
_atom_site_fract_x
_atom_site_fract_y
_atom_site_fract_z
_atom_type_partial_charge
Co0 Co 0.36546 0.31697 0.05174 0.0
O1 O 0.39903 0.42288 0.05952 0.0
O2 O 0.42141 0.31493 0.0114 0.0
C3 C 0.35231 0.29734 0.1369 0.0
O4 O 0.33663 0.1972 0.03734 0.0
Co5 Co 0.26586 0.32543 0.08441 0.0
O6 O 0.26303 0.20782 0.057 0.0
C7 C 0.29219 0.38486 0.98123 0.0
C8 C 0.42906 0.39246 0.02886 0.0
C9 C 0.29639 0.16552 0.04027 0.0
O10 O 0.33317 0.36702 0.99079 0.0
O11 O 0.26099 0.37723 0.01465 0.0
O12 O 0.3895 0.27265 0.11601 0.0
O13 O 0.32653 0.34262 0.10764 0.0
Co14 Co 0.14205 0.69109 0.05488 0.0
O15 O 0.10681 0.58725 0.05976 0.0
O16 O 0.089 0.69515 0.00955 0.0
C17 C 0.15014 0.71097 0.14088 0.0
O18 O 0.17575 0.80737 0.04446 0.0
Co19 Co 0.23928 0.66186 0.09859 0.0
O20 O 0.24479 0.78291 0.07771 0.0
C21 C 0.21813 0.61357 0.99152 0.0
C22 C 0.07945 0.61799 0.02641 0.0
C23 C 0.21626 0.83191 0.05611 0.0
O24 O 0.1778 0.63986 0.99681 0.0
O25 O 0.2464 0.61154 0.0284 0.0
O26 O 0.11417 0.73642 0.11773 0.0
O27 O 0.17627 0.66476 0.11262 0.0
Co28 Co 0.37733 0.18914 0.43541 0.0
O29 O 0.41347 0.08652 0.42961 0.0
O30 O 0.43069 0.19497 0.47996 0.0
C31 C 0.36803 0.21004 0.3498 0.0
O32 O 0.34275 0.30417 0.44682 0.0
Co33 Co 0.27989 0.15678 0.39307 0.0
O34 O 0.27355 0.27754 0.4146 0.0
C35 C 0.30297 0.10678 0.4991 0.0
C36 C 0.4409 0.11832 0.46261 0.0
C37 C 0.30192 0.32744 0.43582 0.0
O38 O 0.34269 0.13619 0.49371 0.0
O39 O 0.27446 0.10342 0.46251 0.0
O40 O 0.40415 0.23595 0.37251 0.0
O41 O 0.34269 0.16244 0.37808 0.0
Co42 Co 0.1531 0.81291 0.44128 0.0
O43 O 0.12011 0.91951 0.43438 0.0
O44 O 0.09806 0.81244 0.48321 0.0
C45 C 0.16455 0.79268 0.35571 0.0
O46 O 0.18146 0.69272 0.45512 0.0
Co47 Co 0.25212 0.81892 0.40607 0.0
O48 O 0.25484 0.70195 0.43423 0.0
C49 C 0.22814 0.87851 0.51013 0.0
C50 C 0.0907 0.89023 0.46615 0.0
C51 C 0.22155 0.66048 0.45175 0.0
O52 O 0.18684 0.86232 0.50141 0.0
O53 O 0.2587 0.86981 0.47601 0.0
O54 O 0.12761 0.76887 0.37749 0.0
O55 O 0.19112 0.83732 0.38444 0.0
Co56 Co 0.64027 0.687 0.94287 0.0
O57 O 0.59965 0.59109 0.93845 0.0
O58 O 0.5907 0.69682 0.99346 0.0
C59 C 0.64287 0.71062 0.85722 0.0
O60 O 0.68092 0.79524 0.95272 0.0
Co61 Co 0.73171 0.64266 0.88962 0.0
O62 O 0.74697 0.75806 0.91567 0.0
C63 C 0.71327 0.58258 0.99458 0.0
C64 C 0.57625 0.62337 0.97517 0.0
C65 C 0.72219 0.81195 0.93938 0.0
O66 O 0.67636 0.62399 0.99564 0.0
O67 O 0.73811 0.57598 0.95466 0.0
O68 O 0.61091 0.74324 0.88474 0.0
O69 O 0.66832 0.65701 0.8811 0.0
Co70 Co 0.87743 0.29393 0.94581 0.0
O71 O 0.91 0.40111 0.94021 0.0
O72 O 0.93065 0.29568 0.99083 0.0
C73 C 0.87074 0.27395 0.85946 0.0
O74 O 0.84865 0.17339 0.95848 0.0
Co75 Co 0.78058 0.29869 0.90385 0.0
O76 O 0.77719 0.1806 0.93004 0.0
C77 C 0.7989 0.35934 0.00929 0.0
C78 C 0.93826 0.37328 0.9735 0.0
C79 C 0.8091 0.14029 0.95136 0.0
O80 O 0.84063 0.34349 0.00353 0.0
O81 O 0.7703 0.35015 0.97317 0.0
O82 O 0.90628 0.24973 0.88381 0.0
O83 O 0.84254 0.318 0.88652 0.0
Co84 Co 0.6466 0.81697 0.55494 0.0
O85 O 0.60621 0.91311 0.55958 0.0
O86 O 0.59846 0.8098 0.50273 0.0
C87 C 0.64689 0.79032 0.64034 0.0
O88 O 0.68739 0.70889 0.54499 0.0
Co89 Co 0.73651 0.86092 0.61103 0.0
O90 O 0.75253 0.74661 0.58365 0.0
C91 C 0.71979 0.92629 0.50725 0.0
C92 C 0.58389 0.88285 0.52156 0.0
C93 C 0.72846 0.6927 0.55911 0.0
O94 O 0.68399 0.88185 0.50412 0.0
O95 O 0.74325 0.93297 0.5481 0.0
O96 O 0.61561 0.75892 0.61149 0.0
O97 O 0.67305 0.84436 0.61774 0.0
Co98 Co 0.88963 0.21471 0.55093 0.0
O99 O 0.92127 0.10632 0.55386 0.0
O100 O 0.94125 0.21252 0.50327 0.0
C101 C 0.88599 0.23167 0.63818 0.0
O102 O 0.8602 0.33598 0.54126 0.0
Co103 Co 0.79337 0.2066 0.60025 0.0
O104 O 0.79195 0.32813 0.57973 0.0
C105 C 0.80855 0.14984 0.49251 0.0
C106 C 0.94886 0.13441 0.51975 0.0
C107 C 0.82144 0.36867 0.55403 0.0
O108 O 0.85018 0.16854 0.49499 0.0
O109 O 0.7818 0.15523 0.53097 0.0
O110 O 0.92139 0.25357 0.61266 0.0
O111 O 0.85651 0.19224 0.6107 0.0
C112 C 0.25722 0.04399 0.99469 0.0
C113 C 0.28687 0.07208 0.03405 0.0
C114 C 0.25969 0.95684 0.08934 0.0
C115 C 0.23328 0.92205 0.04873 0.0
N116 N 0.21393 0.92593 0.95863 0.0
N117 N 0.32605 0.03728 0.11169 0.0
C118 C 0.23392 0.96373 2e-05 0.0
C119 C 0.29155 0.02182 0.07872 0.0
N120 N 0.25079 0.09506 0.95271 0.0
N121 N 0.25334 0.92954 0.13877 0.0
H122 H 0.35015 0.08427 0.1044 0.0
H123 H 0.33296 0.99796 0.14316 0.0
H124 H 0.22863 0.88525 0.14878 0.0
H125 H 0.26915 0.95792 0.17022 0.0
H126 H 0.22601 0.08367 0.92543 0.0
H127 H 0.26938 0.15109 0.94676 0.0
H128 H 0.21725 0.94924 0.92126 0.0
H129 H 0.19659 0.86791 0.9611 0.0
C130 C 0.22549 0.51603 0.41413 0.0
C131 C 0.23081 0.56713 0.45844 0.0
C132 C 0.28432 0.45955 0.49194 0.0
C133 C 0.28439 0.41719 0.44335 0.0
N134 N 0.26305 0.42323 0.35365 0.0
N135 N 0.26778 0.59146 0.53913 0.0
C136 C 0.25731 0.45111 0.40312 0.0
C137 C 0.26095 0.53974 0.49741 0.0
N138 N 0.19047 0.53076 0.3818 0.0
N139 N 0.30494 0.42249 0.53309 0.0
H140 H 0.2491 0.64741 0.54519 0.0
H141 H 0.2929 0.58066 0.56605 0.0
H142 H 0.32228 0.36446 0.53052 0.0
H143 H 0.30212 0.44639 0.57043 0.0
H144 H 0.18316 0.49089 0.35063 0.0
H145 H 0.16641 0.57776 0.38943 0.0
H146 H 0.24671 0.45106 0.32244 0.0
H147 H 0.28778 0.37914 0.34325 0.0
C148 C 0.74506 0.9424 0.99484 0.0
C149 C 0.74399 0.89868 0.94664 0.0
C150 C 0.80382 0.99479 0.91557 0.0
C151 C 0.79921 0.04735 0.95938 0.0
N152 N 0.7633 0.07501 0.04043 0.0
N153 N 0.76555 0.90129 0.85651 0.0
C154 C 0.76928 0.0219 -0.00086 0.0
C155 C 0.7716 0.92999 0.90575 0.0
N156 N 0.72458 0.90722 0.03677 0.0
N157 N 0.83835 0.00889 0.88223 0.0
H158 H 0.74068 0.85765 0.84628 0.0
H159 H 0.78181 0.92836 0.82493 0.0
H160 H 0.86239 0.05629 0.8889 0.0
H161 H 0.84545 0.96817 0.85134 0.0
H162 H 0.72791 0.93222 0.07377 0.0
H163 H 0.7072 0.84915 0.03532 0.0
H164 H 0.73834 0.06589 0.06789 0.0
H165 H 0.78255 0.13044 0.04557 0.0
C166 C 0.77504 0.5752 0.59688 0.0
C167 C 0.75039 0.60575 0.55366 0.0
C168 C 0.78158 0.48457 0.50322 0.0
C169 C 0.80914 0.46082 0.54545 0.0
N170 N 0.84091 0.50041 0.62631 0.0
N171 N 0.73685 0.59625 0.46236 0.0
C172 C 0.80889 0.51265 0.58992 0.0
C173 C 0.75549 0.56235 0.50566 0.0
N174 N 0.76511 0.6037 0.64538 0.0
N175 N 0.7795 0.4315 0.46145 0.0
H176 H 0.71768 0.6523 0.46287 0.0
H177 H 0.74303 0.57204 0.42563 0.0
H178 H 0.79991 0.37722 0.45798 0.0
H179 H 0.75646 0.43938 0.43183 0.0
H180 H 0.77907 0.57697 0.6784 0.0
H181 H 0.73955 0.64736 0.65313 0.0
H182 H 0.84489 0.54038 0.65823 0.0
H183 H 0.8665 0.45617 0.62042 0.0
C184 C 0.3239 0.21339 0.21199 0.0
C185 C 0.34538 0.28779 0.19303 0.0
C186 C 0.36829 0.32351 0.28069 0.0
C187 C 0.35621 0.23901 0.29696 0.0
N188 N 0.32776 0.09791 0.27345 0.0
N189 N 0.38962 0.4145 0.20912 0.0
C190 C 0.3348 0.18254 0.26167 0.0
C191 C 0.36791 0.34344 0.22739 0.0
N192 N 0.29271 0.17269 0.18275 0.0
N193 N 0.37818 0.38589 0.31601 0.0
H194 H 0.38786 0.43365 0.17072 0.0
H195 H 0.41121 0.4514 0.23154 0.0
H196 H 0.37521 0.37636 0.35553 0.0
H197 H 0.38359 0.45003 0.30613 0.0
H198 H 0.27312 0.12209 0.19639 0.0
H199 H 0.28303 0.19714 0.14733 0.0
H200 H 0.31608 0.05339 0.2466 0.0
H201 H 0.33818 0.0695 0.30759 0.0
C202 C 0.19164 0.70834 0.27975 0.0
C203 C 0.17057 0.78289 0.29939 0.0
C204 C 0.14846 0.82164 0.2119 0.0
C205 C 0.16071 0.73775 0.19454 0.0
N206 N 0.18779 0.59515 0.21651 0.0
N207 N 0.12666 0.91046 0.28448 0.0
C208 C 0.1812 0.67955 0.22943 0.0
C209 C 0.1484 0.8398 0.2655 0.0
N210 N 0.22203 0.66548 0.30894 0.0
N211 N 0.13884 0.88518 0.17735 0.0
H212 H 0.12797 0.92829 0.32316 0.0
H213 H 0.10534 0.94825 0.26231 0.0
H214 H 0.14194 0.87689 0.13772 0.0
H215 H 0.13342 0.94902 0.18804 0.0
H216 H 0.2414 0.61479 0.29488 0.0
H217 H 0.23133 0.68798 0.34499 0.0
H218 H 0.19872 0.5493 0.24289 0.0
H219 H 0.17762 0.56831 0.18176 0.0
C220 C 0.65011 0.8177 0.78578 0.0
C221 C 0.64742 0.73048 0.80183 0.0
C222 C 0.64995 0.6827 0.71195 0.0
C223 C 0.64934 0.77009 0.69585 0.0
N224 N 0.63891 0.92032 0.7171 0.0
N225 N 0.63547 0.58087 0.78039 0.0
C226 C 0.64708 0.83765 0.73262 0.0
C227 C 0.64515 0.66303 0.76503 0.0
N228 N 0.65608 0.8817 0.82129 0.0
N229 N 0.6557 0.6183 0.6766 0.0
H230 H 0.63051 0.5636 0.81869 0.0
H231 H 0.62808 0.53106 0.75495 0.0
H232 H 0.65902 0.62953 0.63727 0.0
H233 H 0.66165 0.5544 0.68652 0.0
H234 H 0.6636 0.94507 0.81153 0.0
H235 H 0.65793 0.87032 0.8607 0.0
H236 H 0.63166 0.97043 0.74243 0.0
H237 H 0.63486 0.93793 0.67874 0.0
C238 C 0.89931 0.3205 0.71951 0.0
C239 C 0.88131 0.24557 0.69502 0.0
C240 C 0.84749 0.20251 0.77729 0.0
C241 C 0.86951 0.27101 0.80245 0.0
N242 N 0.92011 0.39137 0.79911 0.0
N243 N 0.85037 0.10252 0.70644 0.0
C244 C 0.89644 0.32889 0.77396 0.0
C245 C 0.85837 0.18326 0.72537 0.0
N246 N 0.91805 0.38543 0.69135 0.0
N247 N 0.81624 0.1553 0.80302 0.0
H248 H 0.86244 0.08108 0.67106 0.0
H249 H 0.8373 0.05285 0.72879 0.0
H250 H 0.80743 0.16881 0.84089 0.0
H251 H 0.79608 0.1094 0.78523 0.0
H252 H 0.92546 0.44577 0.70663 0.0
H253 H 0.92329 0.38329 0.65195 0.0
H254 H 0.94569 0.4268 0.78204 0.0
H255 H 0.91591 0.40472 0.83812 0.0
C256 C 0.47624 0.47423 0.96389 0.0
C257 C 0.46918 0.4469 0.01537 0.0
C258 C 0.53073 0.5435 0.04336 0.0
C259 C 0.53515 0.57526 0.99237 0.0
N260 N 0.50444 0.58559 0.90712 0.0
N261 N 0.48797 0.45992 0.10531 0.0
C262 C 0.50558 0.54469 0.95364 0.0
C263 C 0.49578 0.48346 0.05544 0.0
N264 N 0.45552 0.43236 0.92436 0.0
N265 N 0.56126 0.56709 0.07974 0.0
H266 H 0.46663 0.40958 0.1154 0.0
H267 H 0.5014 0.49212 0.13684 0.0
H268 H 0.5861 0.61269 0.07299 0.0
H269 H 0.56379 0.53797 0.11565 0.0
H270 H 0.46303 0.44339 0.88579 0.0
H271 H 0.43389 0.38071 0.92982 0.0
H272 H 0.48068 0.57265 0.87894 0.0
H273 H 0.52416 0.63931 0.89895 0.0
C274 C 0.0123 0.52877 0.05096 0.0
C275 C 0.03948 0.56453 0.01124 0.0
C276 C 1.00409 0.46612 0.94881 0.0
C277 C 0.97698 0.43012 0.98849 0.0
N278 N 0.9595 0.41874 0.07862 0.0
N279 N 0.05469 0.57935 0.92075 0.0
C280 C 0.98236 0.45903 0.03999 0.0
C281 C 0.03335 0.53684 0.95966 0.0
N282 N 0.01334 0.56566 0.09879 0.0
N283 N 1.00386 0.4285 0.90119 0.0
H284 H 0.07594 0.63129 0.92708 0.0
H285 H 0.04842 0.56872 0.88192 0.0
H286 H 0.98484 0.374 0.89275 0.0
H287 H 0.02567 0.44494 0.87157 0.0
H288 H 0.99199 0.5493 0.12882 0.0
H289 H 0.033 0.61929 0.10729 0.0
H290 H 0.96488 0.42987 0.11757 0.0
H291 H 0.93707 0.36871 0.07211 0.0
C292 C 0.51354 0.96462 0.54051 0.0
C293 C 0.54428 0.93362 0.50293 0.0
C294 C 0.50925 0.02997 0.43919 0.0
C295 C 0.48104 0.06582 0.47816 0.0
N296 N 0.46407 0.07914 0.56851 0.0
N297 N 0.57484 0.94453 0.41741 0.0
C298 C 0.48566 0.03693 0.52961 0.0
C299 C 0.54282 0.96785 0.45232 0.0
N300 N 0.50988 0.92246 0.58646 0.0
N301 N 0.50421 0.0561 0.38935 0.0
H302 H 0.59891 0.89776 0.42487 0.0
H303 H 0.57945 0.97511 0.3822 0.0
H304 H 0.48411 0.10811 0.37895 0.0
H305 H 0.51874 0.02465 0.35812 0.0
H306 H 0.48514 0.93593 0.61355 0.0
H307 H 0.52849 0.86748 0.59501 0.0
H308 H 0.46971 0.06649 0.60728 0.0
H309 H 0.44379 0.13261 0.56246 0.0
C310 C 0.01483 0.0421 0.54346 0.0
C311 C 0.9877 0.07825 0.50406 0.0
C312 C 0.02489 0.98326 0.44059 0.0
C313 C 0.05124 0.9459 0.48049 0.0
N314 N 0.06473 0.92814 0.57121 0.0
N315 N 0.96906 0.08926 0.41438 0.0
C316 C 0.04416 0.97177 0.53229 0.0
C317 C 0.99349 0.05066 0.45228 0.0
N318 N 0.01453 0.07899 0.59131 0.0
N319 N 0.02839 0.95036 0.39185 0.0
H320 H 0.94574 0.1375 0.4217 0.0
H321 H 0.97286 0.0774 0.37528 0.0
H322 H 0.04867 0.89775 0.38289 0.0
H323 H 1.00944 0.97012 0.3606 0.0
H324 H 0.03677 0.06271 0.62044 0.0
H325 H 0.99519 0.13282 0.60039 0.0
H326 H 0.0571 0.93694 0.60994 0.0
H327 H 0.0867 0.87725 0.565 0.0
C328 C 0.27862 0.58348 0.93059 0.0
C329 C 0.2326 0.57588 0.94203 0.0
C330 C 0.23493 0.42497 0.91946 0.0
C331 C 0.28059 0.42853 0.93255 0.0
N332 N 0.34797 0.50515 0.91428 0.0
N333 N 0.16457 0.50439 0.91856 0.0
C334 C 0.30329 0.50642 0.92382 0.0
C335 C 0.20967 0.50176 0.92495 0.0
N336 N 0.29833 0.6624 0.93297 0.0
N337 N 0.21605 0.34694 0.90974 0.0
H338 H 0.14731 0.56251 0.92146 0.0
H339 H 0.14529 0.45162 0.90783 0.0
H340 H 0.23581 0.29145 0.90847 0.0
H341 H 0.18223 0.3378 0.90224 0.0
H342 H 0.33253 0.67254 0.92873 0.0
H343 H 0.27914 0.7177 0.9393 0.0
H344 H 0.36712 0.56009 0.90794 0.0
H345 H 0.36457 0.44655 0.9096 0.0
C346 C 0.24374 0.0763 0.56142 0.0
C347 C 0.28944 0.06793 0.5485 0.0
C348 C 0.28681 0.91688 0.57052 0.0
C349 C 0.24092 0.92143 0.55874 0.0
N350 N 0.17433 0.99921 0.57924 0.0
N351 N 0.35775 0.99396 0.56783 0.0
C352 C 0.21882 0.99968 0.56851 0.0
C353 C 0.31242 0.99295 0.56406 0.0
N354 N 0.2244 0.15564 0.56017 0.0
N355 N 0.30537 0.83852 0.57996 0.0
H356 H 0.37538 0.05148 0.56422 0.0
H357 H 0.37707 0.94031 0.57671 0.0
H358 H 0.28529 0.78355 0.58183 0.0
H359 H 0.3392 0.82872 0.58709 0.0
H360 H 0.19038 0.16646 0.56562 0.0
H361 H 0.24372 0.21065 0.5536 0.0
H362 H 0.1556 0.05446 0.58637 0.0
H363 H 0.15746 0.94092 0.58395 0.0
C364 C 0.70874 0.46091 0.05549 0.0
C365 C 0.72907 0.53965 0.04138 0.0
C366 C 0.80169 0.48356 0.06537 0.0
C367 C 0.78325 0.40162 0.05698 0.0
N368 N 0.72203 0.31123 0.07972 0.0
N369 N 0.79022 0.63748 0.05304 0.0
C370 C 0.73737 0.39086 0.06703 0.0
C371 C 0.77402 0.55557 0.05527 0.0
N372 N 0.66357 0.45156 0.05215 0.0
N373 N 0.84575 0.49057 0.07741 0.0
H374 H 0.76909 0.68937 0.04506 0.0
H375 H 0.82354 0.65356 0.05926 0.0
H376 H 0.86489 0.43543 0.08385 0.0
H377 H 0.86199 0.54886 0.08377 0.0
H378 H 0.64697 0.39349 0.05792 0.0
H379 H 0.64286 0.5036 0.04373 0.0
H380 H 0.68868 0.29766 0.08782 0.0
H381 H 0.74437 0.2602 0.08475 0.0
C382 C 0.71611 0.05219 0.4495 0.0
C383 C 0.736 0.97214 0.46167 0.0
C384 C 0.8086 0.02649 0.43589 0.0
C385 C 0.79109 0.10888 0.44544 0.0
N386 N 0.73014 0.2021 0.42641 0.0
N387 N 0.79619 0.87274 0.4476 0.0
C388 C 0.74507 0.12155 0.43755 0.0
C389 C 0.78057 0.95517 0.44646 0.0
N390 N 0.67119 0.06324 0.45515 0.0
N391 N 0.85235 0.01827 0.42236 0.0
H392 H 0.77484 0.82121 0.45569 0.0
H393 H 0.82928 0.85583 0.44039 0.0
H394 H 0.87191 0.07283 0.41576 0.0
H395 H 0.8679 0.95959 0.41494 0.0
H396 H 0.65504 0.12214 0.45084 0.0
H397 H 0.65021 0.01193 0.46432 0.0
H398 H 0.69673 0.21705 0.41976 0.0
H399 H 0.75279 0.25253 0.42103 0.0
loop_
_geom_bond_atom_site_label_1
_geom_bond_atom_site_label_2
_geom_bond_distance
_geom_bond_site_symmetry_2
_ccdc_geom_bond_type
Co0 O1 2.216 . S
Co0 O2 2.091 1_554 S
Co0 O4 2.004 . S
Co0 O10 2.019 1_554 S
Co0 O12 2.137 . S
Co0 O13 2.244 . S
O1 Co0 2.216 . S
O1 C8 1.247 . S
O2 Co0 2.091 1_556 S
O2 C8 1.261 1_556 S
C3 O12 1.247 . S
C3 O13 1.272 . S
O4 Co0 2.004 . S
O4 C9 1.259 . S
Co5 O6 2.061 . S
Co5 O11 2.052 . S
Co5 O13 2.135 . S
O6 Co5 2.061 . S
O6 C9 1.235 . S
C7 O10 1.237 1_554 S
C7 O11 1.241 . S
C8 O1 1.247 . S
C8 O2 1.261 1_554 S
C9 O4 1.259 . S
C9 O6 1.235 . S
O10 Co0 2.019 1_556 S
O10 C7 1.237 1_556 S
O11 Co5 2.052 . S
O11 C7 1.241 . S
O12 Co0 2.137 . S
O12 C3 1.247 . S
O13 Co0 2.244 . S
O13 C3 1.272 . S
O13 Co5 2.135 . S
Co14 O15 2.216 . S
Co14 O16 2.091 1_554 S
Co14 O18 2.004 . S
Co14 O24 2.019 1_554 S
Co14 O26 2.137 . S
Co14 O27 2.244 . S
O15 Co14 2.216 . S
O15 C22 1.247 . S
O16 Co14 2.091 1_556 S
O16 C22 1.261 1_556 S
C17 O26 1.247 . S
C17 O27 1.272 . S
O18 Co14 2.004 . S
O18 C23 1.259 . S
Co19 O20 2.061 . S
Co19 O25 2.052 . S
Co19 O27 2.135 . S
O20 Co19 2.061 . S
O20 C23 1.235 . S
C21 O24 1.237 1_554 S
C21 O25 1.241 . S
C22 O15 1.247 . S
C22 O16 1.261 1_554 S
C23 O18 1.259 . S
C23 O20 1.235 . S
O24 Co14 2.019 1_556 S
O24 C21 1.237 1_556 S
O25 Co19 2.052 . S
O25 C21 1.241 . S
O26 Co14 2.137 . S
O26 C17 1.247 . S
O27 Co14 2.244 . S
O27 C17 1.272 . S
O27 Co19 2.135 . S
Co28 O29 2.216 . S
Co28 O30 2.091 . S
Co28 O32 2.004 . S
Co28 O38 2.021 . S
Co28 O40 2.137 . S
Co28 O41 2.244 . S
O29 Co28 2.216 . S
O29 C36 1.247 . S
O30 Co28 2.091 . S
O30 C36 1.261 . S
C31 O40 1.247 . S
C31 O41 1.272 . S
O32 Co28 2.004 . S
O32 C37 1.259 . S
Co33 O34 2.061 . S
Co33 O39 2.052 . S
Co33 O41 2.135 . S
O34 Co33 2.061 . S
O34 C37 1.235 . S
C35 O38 1.238 . S
C35 O39 1.241 . S
C36 O29 1.247 . S
C36 O30 1.261 . S
C37 O32 1.259 . S
C37 O34 1.235 . S
O38 Co28 2.021 . S
O38 C35 1.238 . S
O39 Co33 2.052 . S
O39 C35 1.241 . S
O40 Co28 2.137 . S
O40 C31 1.247 . S
O41 Co28 2.244 . S
O41 C31 1.272 . S
O41 Co33 2.135 . S
Co42 O43 2.216 . S
Co42 O44 2.091 . S
Co42 O46 2.004 . S
Co42 O52 2.021 . S
Co42 O54 2.137 . S
Co42 O55 2.244 . S
O43 Co42 2.216 . S
O43 C50 1.247 . S
O44 Co42 2.091 . S
O44 C50 1.261 . S
C45 O54 1.247 . S
C45 O55 1.272 . S
O46 Co42 2.004 . S
O46 C51 1.259 . S
Co47 O48 2.061 . S
Co47 O53 2.052 . S
Co47 O55 2.135 . S
O48 Co47 2.061 . S
O48 C51 1.235 . S
C49 O52 1.238 . S
C49 O53 1.241 . S
C50 O43 1.247 . S
C50 O44 1.261 . S
C51 O46 1.259 . S
C51 O48 1.235 . S
O52 Co42 2.021 . S
O52 C49 1.238 . S
O53 Co47 2.052 . S
O53 C49 1.241 . S
O54 Co42 2.137 . S
O54 C45 1.247 . S
O55 Co42 2.244 . S
O55 C45 1.272 . S
O55 Co47 2.135 . S
Co56 O57 2.216 . S
Co56 O58 2.091 1_556 S
Co56 O60 2.004 . S
Co56 O66 2.019 1_556 S
Co56 O68 2.137 . S
Co56 O69 2.244 . S
O57 Co56 2.216 . S
O57 C64 1.247 . S
O58 Co56 2.091 1_554 S
O58 C64 1.261 1_554 S
C59 O68 1.247 . S
C59 O69 1.272 . S
O60 Co56 2.004 . S
O60 C65 1.259 . S
Co61 O62 2.061 . S
Co61 O67 2.052 . S
Co61 O69 2.135 . S
O62 Co61 2.061 . S
O62 C65 1.235 . S
C63 O66 1.237 1_556 S
C63 O67 1.241 . S
C64 O57 1.247 . S
C64 O58 1.261 1_556 S
C65 O60 1.259 . S
C65 O62 1.235 . S
O66 Co56 2.019 1_554 S
O66 C63 1.237 1_554 S
O67 Co61 2.052 . S
O67 C63 1.241 . S
O68 Co56 2.137 . S
O68 C59 1.247 . S
O69 Co56 2.244 . S
O69 C59 1.272 . S
O69 Co61 2.135 . S
Co70 O71 2.216 . S
Co70 O72 2.091 1_556 S
Co70 O74 2.004 . S
Co70 O80 2.019 1_556 S
Co70 O82 2.137 . S
Co70 O83 2.244 . S
O71 Co70 2.216 . S
O71 C78 1.247 . S
O72 Co70 2.091 1_554 S
O72 C78 1.261 1_554 S
C73 O82 1.247 . S
C73 O83 1.272 . S
O74 Co70 2.004 . S
O74 C79 1.259 . S
Co75 O76 2.061 . S
Co75 O81 2.052 . S
Co75 O83 2.135 . S
O76 Co75 2.061 . S
O76 C79 1.235 . S
C77 O80 1.237 1_556 S
C77 O81 1.241 . S
C78 O71 1.247 . S
C78 O72 1.261 1_556 S
C79 O74 1.259 . S
C79 O76 1.235 . S
O80 Co70 2.019 1_554 S
O80 C77 1.237 1_554 S
O81 Co75 2.052 . S
O81 C77 1.241 . S
O82 Co70 2.137 . S
O82 C73 1.247 . S
O83 Co70 2.244 . S
O83 C73 1.272 . S
O83 Co75 2.135 . S
Co84 O85 2.216 . S
Co84 O86 2.091 . S
Co84 O88 2.004 . S
Co84 O94 2.021 . S
Co84 O96 2.137 . S
Co84 O97 2.244 . S
O85 Co84 2.216 . S
O85 C92 1.247 . S
O86 Co84 2.091 . S
O86 C92 1.261 . S
C87 O96 1.247 . S
C87 O97 1.272 . S
O88 Co84 2.004 . S
O88 C93 1.259 . S
Co89 O90 2.061 . S
Co89 O95 2.052 . S
Co89 O97 2.135 . S
O90 Co89 2.061 . S
O90 C93 1.235 . S
C91 O94 1.238 . S
C91 O95 1.241 . S
C92 O85 1.247 . S
C92 O86 1.261 . S
C93 O88 1.259 . S
C93 O90 1.235 . S
O94 Co84 2.021 . S
O94 C91 1.238 . S
O95 Co89 2.052 . S
O95 C91 1.241 . S
O96 Co84 2.137 . S
O96 C87 1.247 . S
O97 Co84 2.244 . S
O97 C87 1.272 . S
O97 Co89 2.135 . S
Co98 O99 2.216 . S
Co98 O100 2.091 . S
Co98 O102 2.004 . S
Co98 O108 2.021 . S
Co98 O110 2.137 . S
Co98 O111 2.244 . S
O99 Co98 2.216 . S
O99 C106 1.247 . S
O100 Co98 2.091 . S
O100 C106 1.261 . S
C101 O110 1.247 . S
C101 O111 1.272 . S
O102 Co98 2.004 . S
O102 C107 1.259 . S
Co103 O104 2.061 . S
Co103 O109 2.052 . S
Co103 O111 2.135 . S
O104 Co103 2.061 . S
O104 C107 1.235 . S
C105 O108 1.238 . S
C105 O109 1.241 . S
C106 O99 1.247 . S
C106 O100 1.261 . S
C107 O102 1.259 . S
C107 O104 1.235 . S
O108 Co98 2.021 . S
O108 C105 1.238 . S
O109 Co103 2.052 . S
O109 C105 1.241 . S
O110 Co98 2.137 . S
O110 C101 1.247 . S
O111 Co98 2.244 . S
O111 C101 1.272 . S
O111 Co103 2.135 . S
C112 C113 1.363 1_556 S
C112 C118 1.379 . S
C112 N120 1.356 . S
C113 C112 1.363 1_554 S
C113 C119 1.363 1_545 S
C114 C115 1.363 . S
C114 C119 1.379 . S
C114 N121 1.356 . S
C115 C114 1.363 . S
C115 C118 1.363 1_564 S
N116 C118 1.356 1_565 S
N116 H128 0.984 1_565 S
N116 H129 0.985 . S
N117 C119 1.356 1_545 S
N117 H122 0.984 . S
N117 H123 0.985 1_545 S
C118 C112 1.379 . S
C118 C115 1.363 1_546 S
C118 N116 1.356 1_545 S
C119 C113 1.363 1_565 S
C119 C114 1.379 . S
C119 N117 1.356 1_565 S
N120 C112 1.356 . S
N120 H126 0.984 . S
N120 H127 0.984 . S
N121 C114 1.356 . S
N121 H124 0.984 . S
N121 H125 0.985 . S
H122 N117 0.984 . S
H123 N117 0.985 1_565 S
H124 N121 0.984 . S
H125 N121 0.985 . S
H126 N120 0.984 . S
H127 N120 0.984 . S
H128 N116 0.984 1_545 S
H129 N116 0.985 . S
C130 C131 1.363 . S
C130 C136 1.379 . S
C130 N138 1.356 . S
C131 C130 1.363 . S
C131 C137 1.363 . S
C132 C133 1.363 . S
C132 C137 1.379 . S
C132 N139 1.356 . S
C133 C132 1.363 . S
C133 C136 1.363 . S
N134 C136 1.356 . S
N134 H146 0.984 . S
N134 H147 0.985 . S
N135 C137 1.356 . S
N135 H140 0.984 . S
N135 H141 0.985 . S
C136 C130 1.379 . S
C136 C133 1.363 . S
C136 N134 1.356 . S
C137 C131 1.363 . S
C137 C132 1.379 . S
C137 N135 1.356 . S
N138 C130 1.356 . S
N138 H144 0.984 . S
N138 H145 0.984 . S
N139 C132 1.356 . S
N139 H142 0.984 . S
N139 H143 0.985 . S
H140 N135 0.984 . S
H141 N135 0.985 . S
H142 N139 0.984 . S
H143 N139 0.985 . S
H144 N138 0.984 . S
H145 N138 0.984 . S
H146 N134 0.984 . S
H147 N134 0.985 . S
C148 C149 1.363 1_544 S
C148 C154 1.379 . S
C148 N156 1.356 1_545 S
C149 C148 1.363 1_566 S
C149 C155 1.363 . S
C150 C151 1.363 1_565 S
C150 C155 1.379 . S
C150 N157 1.356 1_565 S
C151 C150 1.363 1_545 S
C151 C154 1.363 1_556 S
N152 C154 1.356 . S
N152 H164 0.984 . S
N152 H165 0.985 . S
N153 C155 1.356 . S
N153 H158 0.984 . S
N153 H159 0.985 . S
C154 C148 1.379 . S
C154 C151 1.363 1_554 S
C154 N152 1.356 . S
C155 C149 1.363 . S
C155 C150 1.379 . S
C155 N153 1.356 . S
N156 C148 1.356 1_565 S
N156 H162 0.984 1_565 S
N156 H163 0.984 . S
N157 C150 1.356 1_545 S
N157 H160 0.984 . S
N157 H161 0.985 1_545 S
H158 N153 0.984 . S
H159 N153 0.985 . S
H160 N157 0.984 . S
H161 N157 0.985 1_565 S
H162 N156 0.984 1_545 S
H163 N156 0.984 . S
H164 N152 0.984 . S
H165 N152 0.985 . S
C166 C167 1.363 . S
C166 C172 1.379 . S
C166 N174 1.356 . S
C167 C166 1.363 . S
C167 C173 1.363 . S
C168 C169 1.363 . S
C168 C173 1.379 . S
C168 N175 1.356 . S
C169 C168 1.363 . S
C169 C172 1.363 . S
N170 C172 1.356 . S
N170 H182 0.984 . S
N170 H183 0.985 . S
N171 C173 1.356 . S
N171 H176 0.984 . S
N171 H177 0.985 . S
C172 C166 1.379 . S
C172 C169 1.363 . S
C172 N170 1.356 . S
C173 C167 1.363 . S
C173 C168 1.379 . S
C173 N171 1.356 . S
N174 C166 1.356 . S
N174 H180 0.984 . S
N174 H181 0.984 . S
N175 C168 1.356 . S
N175 H178 0.984 . S
N175 H179 0.985 . S
H176 N171 0.984 . S
H177 N171 0.985 . S
H178 N175 0.984 . S
H179 N175 0.985 . S
H180 N174 0.984 . S
H181 N174 0.984 . S
H182 N170 0.984 . S
H183 N170 0.985 . S
C184 C185 1.363 . S
C184 C190 1.379 . S
C184 N192 1.356 . S
C185 C184 1.363 . S
C185 C191 1.363 . S
C186 C187 1.363 . S
C186 C191 1.379 . S
C186 N193 1.356 . S
C187 C186 1.363 . S
C187 C190 1.363 . S
N188 C190 1.356 . S
N188 H200 0.984 . S
N188 H201 0.985 . S
N189 C191 1.356 . S
N189 H194 0.984 . S
N189 H195 0.985 . S
C190 C184 1.379 . S
C190 C187 1.363 . S
C190 N188 1.356 . S
C191 C185 1.363 . S
C191 C186 1.379 . S
C191 N189 1.356 . S
N192 C184 1.356 . S
N192 H198 0.984 . S
N192 H199 0.984 . S
N193 C186 1.356 . S
N193 H196 0.984 . S
N193 H197 0.985 . S
H194 N189 0.984 . S
H195 N189 0.985 . S
H196 N193 0.984 . S
H197 N193 0.985 . S
H198 N192 0.984 . S
H199 N192 0.984 . S
H200 N188 0.984 . S
H201 N188 0.985 . S
C202 C203 1.363 . S
C202 C208 1.379 . S
C202 N210 1.356 . S
C203 C202 1.363 . S
C203 C209 1.363 . S
C204 C205 1.363 . S
C204 C209 1.379 . S
C204 N211 1.356 . S
C205 C204 1.363 . S
C205 C208 1.363 . S
N206 C208 1.356 . S
N206 H218 0.984 . S
N206 H219 0.985 . S
N207 C209 1.356 . S
N207 H212 0.984 . S
N207 H213 0.985 . S
C208 C202 1.379 . S
C208 C205 1.363 . S
C208 N206 1.356 . S
C209 C203 1.363 . S
C209 C204 1.379 . S
C209 N207 1.356 . S
N210 C202 1.356 . S
N210 H216 0.984 . S
N210 H217 0.984 . S
N211 C204 1.356 . S
N211 H214 0.984 . S
N211 H215 0.985 . S
H212 N207 0.984 . S
H213 N207 0.985 . S
H214 N211 0.984 . S
H215 N211 0.985 . S
H216 N210 0.984 . S
H217 N210 0.984 . S
H218 N206 0.984 . S
H219 N206 0.985 . S
C220 C221 1.363 . S
C220 C226 1.379 . S
C220 N228 1.356 . S
C221 C220 1.363 . S
C221 C227 1.363 . S
C222 C223 1.363 . S
C222 C227 1.379 . S
C222 N229 1.356 . S
C223 C222 1.363 . S
C223 C226 1.363 . S
N224 C226 1.356 . S
N224 H236 0.984 . S
N224 H237 0.985 . S
N225 C227 1.356 . S
N225 H230 0.984 . S
N225 H231 0.985 . S
C226 C220 1.379 . S
C226 C223 1.363 . S
C226 N224 1.356 . S
C227 C221 1.363 . S
C227 C222 1.379 . S
C227 N225 1.356 . S
N228 C220 1.356 . S
N228 H234 0.984 . S
N228 H235 0.984 . S
N229 C222 1.356 . S
N229 H232 0.984 . S
N229 H233 0.985 . S
H230 N225 0.984 . S
H231 N225 0.985 . S
H232 N229 0.984 . S
H233 N229 0.985 . S
H234 N228 0.984 . S
H235 N228 0.984 . S
H236 N224 0.984 . S
H237 N224 0.985 . S
C238 C239 1.363 . S
C238 C244 1.379 . S
C238 N246 1.356 . S
C239 C238 1.363 . S
C239 C245 1.363 . S
C240 C241 1.363 . S
C240 C245 1.379 . S
C240 N247 1.356 . S
C241 C240 1.363 . S
C241 C244 1.363 . S
N242 C244 1.356 . S
N242 H254 0.984 . S
N242 H255 0.985 . S
N243 C245 1.356 . S
N243 H248 0.984 . S
N243 H249 0.985 . S
C244 C238 1.379 . S
C244 C241 1.363 . S
C244 N242 1.356 . S
C245 C239 1.363 . S
C245 C240 1.379 . S
C245 N243 1.356 . S
N246 C238 1.356 . S
N246 H252 0.984 . S
N246 H253 0.984 . S
N247 C240 1.356 . S
N247 H250 0.984 . S
N247 H251 0.985 . S
H248 N243 0.984 . S
H249 N243 0.985 . S
H250 N247 0.984 . S
H251 N247 0.985 . S
H252 N246 0.984 . S
H253 N246 0.984 . S
H254 N242 0.984 . S
H255 N242 0.985 . S
C256 C257 1.363 . S
C256 C262 1.379 . S
C256 N264 1.356 . S
C257 C256 1.363 . S
C257 C263 1.363 1_556 S
C258 C259 1.363 . S
C258 C263 1.379 . S
C258 N265 1.356 . S
C259 C258 1.363 . S
C259 C262 1.363 1_554 S
N260 C262 1.356 . S
N260 H272 0.984 . S
N260 H273 0.985 . S
N261 C263 1.356 . S
N261 H266 0.984 . S
N261 H267 0.985 . S
C262 C256 1.379 . S
C262 C259 1.363 1_556 S
C262 N260 1.356 . S
C263 C257 1.363 1_554 S
C263 C258 1.379 . S
C263 N261 1.356 . S
N264 C256 1.356 . S
N264 H270 0.984 . S
N264 H271 0.984 . S
N265 C258 1.356 . S
N265 H268 0.984 . S
N265 H269 0.985 . S
H266 N261 0.984 . S
H267 N261 0.985 . S
H268 N265 0.984 . S
H269 N265 0.985 . S
H270 N264 0.984 . S
H271 N264 0.984 . S
H272 N260 0.984 . S
H273 N260 0.985 . S
C274 C275 1.363 1_554 S
C274 C280 1.379 . S
C274 N282 1.356 . S
C275 C274 1.363 1_556 S
C275 C281 1.363 1_455 S
C276 C277 1.363 1_556 S
C276 C281 1.379 . S
C276 N283 1.356 . S
C277 C276 1.363 1_554 S
C277 C280 1.363 1_655 S
N278 C280 1.356 . S
N278 H290 0.984 . S
N278 H291 0.985 1_455 S
N279 C281 1.356 . S
N279 H284 0.984 1_655 S
N279 H285 0.985 . S
C280 C274 1.379 . S
C280 C277 1.363 1_455 S
C280 N278 1.356 . S
C281 C275 1.363 1_655 S
C281 C276 1.379 . S
C281 N279 1.356 . S
N282 C274 1.356 . S
N282 H288 0.984 . S
N282 H289 0.984 . S
N283 C276 1.356 . S
N283 H286 0.984 . S
N283 H287 0.985 . S
H284 N279 0.984 1_455 S
H285 N279 0.985 . S
H286 N283 0.984 . S
H287 N283 0.985 . S
H288 N282 0.984 . S
H289 N282 0.984 . S
H290 N278 0.984 . S
H291 N278 0.985 1_655 S
C292 C293 1.363 . S
C292 C298 1.379 1_565 S
C292 N300 1.356 . S
C293 C292 1.363 . S
C293 C299 1.363 . S
C294 C295 1.363 . S
C294 C299 1.379 1_545 S
C294 N301 1.356 . S
C295 C294 1.363 . S
C295 C298 1.363 . S
N296 C298 1.356 . S
N296 H308 0.984 . S
N296 H309 0.985 . S
N297 C299 1.356 . S
N297 H302 0.984 . S
N297 H303 0.985 . S
C298 C292 1.379 1_545 S
C298 C295 1.363 . S
C298 N296 1.356 . S
C299 C293 1.363 . S
C299 C294 1.379 1_565 S
C299 N297 1.356 . S
N300 C292 1.356 . S
N300 H306 0.984 . S
N300 H307 0.984 . S
N301 C294 1.356 . S
N301 H304 0.984 . S
N301 H305 0.985 . S
H302 N297 0.984 . S
H303 N297 0.985 . S
H304 N301 0.984 . S
H305 N301 0.985 . S
H306 N300 0.984 . S
H307 N300 0.984 . S
H308 N296 0.984 . S
H309 N296 0.985 . S
C310 C311 1.363 1_455 S
C310 C316 1.379 1_545 S
C310 N318 1.356 . S
C311 C310 1.363 1_655 S
C311 C317 1.363 . S
C312 C313 1.363 1_655 S
C312 C317 1.379 1_565 S
C312 N319 1.356 . S
C313 C312 1.363 1_455 S
C313 C316 1.363 . S
N314 C316 1.356 . S
N314 H326 0.984 . S
N314 H327 0.985 . S
N315 C317 1.356 . S
N315 H320 0.984 . S
N315 H321 0.985 . S
C316 C310 1.379 1_565 S
C316 C313 1.363 . S
C316 N314 1.356 . S
C317 C311 1.363 . S
C317 C312 1.379 1_545 S
C317 N315 1.356 . S
N318 C310 1.356 . S
N318 H324 0.984 . S
N318 H325 0.984 1_455 S
N319 C312 1.356 . S
N319 H322 0.984 1_655 S
N319 H323 0.985 . S
H320 N315 0.984 . S
H321 N315 0.985 . S
H322 N319 0.984 1_455 S
H323 N319 0.985 . S
H324 N318 0.984 . S
H325 N318 0.984 1_655 S
H326 N314 0.984 . S
H327 N314 0.985 . S
C328 C329 1.363 . S
C328 C334 1.379 . S
C328 N336 1.356 . S
C329 C328 1.363 . S
C329 C335 1.363 1_554 S
C330 C331 1.363 1_556 S
C330 C335 1.379 . S
C330 N337 1.356 . S
C331 C330 1.363 1_554 S
C331 C334 1.363 . S
N332 C334 1.356 . S
N332 H344 0.984 . S
N332 H345 0.985 . S
N333 C335 1.356 . S
N333 H338 0.984 . S
N333 H339 0.985 . S
C334 C328 1.379 . S
C334 C331 1.363 . S
C334 N332 1.356 . S
C335 C329 1.363 1_556 S
C335 C330 1.379 . S
C335 N333 1.356 . S
N336 C328 1.356 . S
N336 H342 0.984 . S
N336 H343 0.984 . S
N337 C330 1.356 . S
N337 H340 0.984 . S
N337 H341 0.985 . S
H338 N333 0.984 . S
H339 N333 0.985 . S
H340 N337 0.984 . S
H341 N337 0.985 . S
H342 N336 0.984 . S
H343 N336 0.984 . S
H344 N332 0.984 . S
H345 N332 0.985 . S
C346 C347 1.363 . S
C346 C352 1.379 1_545 S
C346 N354 1.356 . S
C347 C346 1.363 . S
C347 C353 1.363 . S
C348 C349 1.363 . S
C348 C353 1.379 1_565 S
C348 N355 1.356 . S
C349 C348 1.363 . S
C349 C352 1.363 . S
N350 C352 1.356 . S
N350 H362 0.984 1_565 S
N350 H363 0.985 . S
N351 C353 1.356 . S
N351 H356 0.984 . S
N351 H357 0.985 1_545 S
C352 C346 1.379 1_565 S
C352 C349 1.363 . S
C352 N350 1.356 . S
C353 C347 1.363 . S
C353 C348 1.379 1_545 S
C353 N351 1.356 . S
N354 C346 1.356 . S
N354 H360 0.984 . S
N354 H361 0.984 . S
N355 C348 1.356 . S
N355 H358 0.984 . S
N355 H359 0.985 . S
H356 N351 0.984 . S
H357 N351 0.985 1_565 S
H358 N355 0.984 . S
H359 N355 0.985 . S
H360 N354 0.984 . S
H361 N354 0.984 . S
H362 N350 0.984 1_545 S
H363 N350 0.985 . S
C364 C365 1.363 . S
C364 C370 1.379 . S
C364 N372 1.356 . S
C365 C364 1.363 . S
C365 C371 1.363 1_556 S
C366 C367 1.363 1_554 S
C366 C371 1.379 . S
C366 N373 1.356 . S
C367 C366 1.363 1_556 S
C367 C370 1.363 . S
N368 C370 1.356 . S
N368 H380 0.984 . S
N368 H381 0.985 . S
N369 C371 1.356 . S
N369 H374 0.984 . S
N369 H375 0.985 . S
C370 C364 1.379 . S
C370 C367 1.363 . S
C370 N368 1.356 . S
C371 C365 1.363 1_554 S
C371 C366 1.379 . S
C371 N369 1.356 . S
N372 C364 1.356 . S
N372 H378 0.984 . S
N372 H379 0.984 . S
N373 C366 1.356 . S
N373 H376 0.984 . S
N373 H377 0.985 . S
H374 N369 0.984 . S
H375 N369 0.985 . S
H376 N373 0.984 . S
H377 N373 0.985 . S
H378 N372 0.984 . S
H379 N372 0.984 . S
H380 N368 0.984 . S
H381 N368 0.985 . S
C382 C383 1.373 . S
C382 C388 1.369 1_565 S
C382 N390 1.360 . S
C383 C382 1.373 . S
C383 C389 1.363 . S
C384 C385 1.373 . S
C384 C389 1.369 1_545 S
C384 N391 1.360 . S
C385 C384 1.373 . S
C385 C388 1.363 . S
N386 C388 1.356 . S
N386 H398 0.984 . S
N386 H399 0.985 . S
N387 C389 1.356 . S
N387 H392 0.984 . S
N387 H393 0.985 . S
C388 C382 1.369 1_545 S
C388 C385 1.363 . S
C388 N386 1.356 . S
C389 C383 1.363 . S
C389 C384 1.369 1_565 S
C389 N387 1.356 . S
N390 C382 1.360 . S
N390 H396 0.984 1_565 S
N390 H397 0.984 . S
N391 C384 1.360 . S
N391 H394 0.984 . S
N391 H395 0.985 1_545 S
H392 N387 0.984 . S
H393 N387 0.985 . S
H394 N391 0.984 . S
H395 N391 0.985 1_565 S
H396 N390 0.984 1_545 S
H397 N390 0.984 . S
H398 N386 0.984 . S
H399 N386 0.985 . S
C113 C9 1.543 . S
C115 C23 1.543 . S
C131 C51 1.543 . S
C133 C37 1.543 . S
C149 C65 1.543 . S
C151 C79 1.543 . S
C167 C93 1.543 . S
C169 C107 1.543 . S
C185 C3 1.669 . S
C187 C31 1.669 . S
C203 C45 1.669 . S
C205 C17 1.669 . S
C221 C59 1.669 . S
C223 C87 1.669 . S
C239 C101 1.669 . S
C241 C73 1.669 . S
C257 C8 1.539 1_556 S
C259 C64 1.539 1_554 S
C275 C22 1.539 1_556 S
C277 C78 1.539 1_554 S
C293 C92 1.539 . S
C295 C36 1.539 . S
C311 C106 1.539 . S
C313 C50 1.539 . S
C329 C21 1.153 . S
C331 C7 1.153 . S
C347 C35 1.153 . S
C349 C49 1.153 . S
C365 C63 1.153 . S
C367 C77 1.153 . S
C383 C91 1.153 . S
C385 C105 1.153 . S
