# Generated by pormake.
# Topology afi, (4)-cn, num edge types: 1
# Building blocks:
#     Node 0, Type 0, BuildingBlock: GALJAG_clean_sbu_0, # of connection points: 4
#     Node 1, Type 0, BuildingBlock: GALJAG_clean_sbu_0, # of connection points: 4
#     Node 2, Type 0, BuildingBlock: GALJAG_clean_sbu_0, # of connection points: 4
#     Node 3, Type 0, BuildingBlock: GALJAG_clean_sbu_0, # of connection points: 4
#     Node 4, Type 0, BuildingBlock: GALJAG_clean_sbu_0, # of connection points: 4
#     Node 5, Type 0, BuildingBlock: GALJAG_clean_sbu_0, # of connection points: 4
#     Node 6, Type 0, BuildingBlock: GALJAG_clean_sbu_0, # of connection points: 4
#     Node 7, Type 0, BuildingBlock: GALJAG_clean_sbu_0, # of connection points: 4
#     Node 8, Type 0, BuildingBlock: GALJAG_clean_sbu_0, # of connection points: 4
#     Node 9, Type 0, BuildingBlock: GALJAG_clean_sbu_0, # of connection points: 4
#     Node 10, Type 0, BuildingBlock: GALJAG_clean_sbu_0, # of connection points: 4
#     Node 11, Type 0, BuildingBlock: GALJAG_clean_sbu_0, # of connection points: 4
#     Node 12, Type 0, BuildingBlock: GALJAG_clean_sbu_0, # of connection points: 4
#     Node 13, Type 0, BuildingBlock: GALJAG_clean_sbu_0, # of connection points: 4
#     Node 14, Type 0, BuildingBlock: GALJAG_clean_sbu_0, # of connection points: 4
#     Node 15, Type 0, BuildingBlock: GALJAG_clean_sbu_0, # of connection points: 4
#     Node 16, Type 0, BuildingBlock: GALJAG_clean_sbu_0, # of connection points: 4
#     Node 17, Type 0, BuildingBlock: GALJAG_clean_sbu_0, # of connection points: 4
#     Node 18, Type 0, BuildingBlock: GALJAG_clean_sbu_0, # of connection points: 4
#     Node 19, Type 0, BuildingBlock: GALJAG_clean_sbu_0, # of connection points: 4
#     Node 20, Type 0, BuildingBlock: GALJAG_clean_sbu_0, # of connection points: 4
#     Node 21, Type 0, BuildingBlock: GALJAG_clean_sbu_0, # of connection points: 4
#     Node 22, Type 0, BuildingBlock: GALJAG_clean_sbu_0, # of connection points: 4
#     Node 23, Type 0, BuildingBlock: GALJAG_clean_sbu_0, # of connection points: 4
#     Edge 24, Type (0, 0), BuildingBlock: XIVTED_clean_linker_0, # of connection points: 2
#     Edge 25, Type (0, 0), BuildingBlock: XIVTED_clean_linker_0, # of connection points: 2
#     Edge 26, Type (0, 0), BuildingBlock: XIVTED_clean_linker_0, # of connection points: 2
#     Edge 27, Type (0, 0), BuildingBlock: XIVTED_clean_linker_0, # of connection points: 2
#     Edge 28, Type (0, 0), BuildingBlock: XIVTED_clean_linker_0, # of connection points: 2
#     Edge 29, Type (0, 0), BuildingBlock: XIVTED_clean_linker_0, # of connection points: 2
#     Edge 30, Type (0, 0), BuildingBlock: XIVTED_clean_linker_0, # of connection points: 2
#     Edge 31, Type (0, 0), BuildingBlock: XIVTED_clean_linker_0, # of connection points: 2
#     Edge 32, Type (0, 0), BuildingBlock: XIVTED_clean_linker_0, # of connection points: 2
#     Edge 33, Type (0, 0), BuildingBlock: XIVTED_clean_linker_0, # of connection points: 2
#     Edge 34, Type (0, 0), BuildingBlock: XIVTED_clean_linker_0, # of connection points: 2
#     Edge 35, Type (0, 0), BuildingBlock: XIVTED_clean_linker_0, # of connection points: 2
#     Edge 36, Type (0, 0), BuildingBlock: XIVTED_clean_linker_0, # of connection points: 2
#     Edge 37, Type (0, 0), BuildingBlock: XIVTED_clean_linker_0, # of connection points: 2
#     Edge 38, Type (0, 0), BuildingBlock: XIVTED_clean_linker_0, # of connection points: 2
#     Edge 39, Type (0, 0), BuildingBlock: XIVTED_clean_linker_0, # of connection points: 2
#     Edge 40, Type (0, 0), BuildingBlock: XIVTED_clean_linker_0, # of connection points: 2
#     Edge 41, Type (0, 0), BuildingBlock: XIVTED_clean_linker_0, # of connection points: 2
#     Edge 42, Type (0, 0), BuildingBlock: XIVTED_clean_linker_0, # of connection points: 2
#     Edge 43, Type (0, 0), BuildingBlock: XIVTED_clean_linker_0, # of connection points: 2
#     Edge 44, Type (0, 0), BuildingBlock: XIVTED_clean_linker_0, # of connection points: 2
#     Edge 45, Type (0, 0), BuildingBlock: XIVTED_clean_linker_0, # of connection points: 2
#     Edge 46, Type (0, 0), BuildingBlock: XIVTED_clean_linker_0, # of connection points: 2
#     Edge 47, Type (0, 0), BuildingBlock: XIVTED_clean_linker_0, # of connection points: 2
#     Edge 48, Type (0, 0), BuildingBlock: XIVTED_clean_linker_0, # of connection points: 2
#     Edge 49, Type (0, 0), BuildingBlock: XIVTED_clean_linker_0, # of connection points: 2
#     Edge 50, Type (0, 0), BuildingBlock: XIVTED_clean_linker_0, # of connection points: 2
#     Edge 51, Type (0, 0), BuildingBlock: XIVTED_clean_linker_0, # of connection points: 2
#     Edge 52, Type (0, 0), BuildingBlock: XIVTED_clean_linker_0, # of connection points: 2
#     Edge 53, Type (0, 0), BuildingBlock: XIVTED_clean_linker_0, # of connection points: 2
#     Edge 54, Type (0, 0), BuildingBlock: XIVTED_clean_linker_0, # of connection points: 2
#     Edge 55, Type (0, 0), BuildingBlock: XIVTED_clean_linker_0, # of connection points: 2
#     Edge 56, Type (0, 0), BuildingBlock: XIVTED_clean_linker_0, # of connection points: 2
#     Edge 57, Type (0, 0), BuildingBlock: XIVTED_clean_linker_0, # of connection points: 2
#     Edge 58, Type (0, 0), BuildingBlock: XIVTED_clean_linker_0, # of connection points: 2
#     Edge 59, Type (0, 0), BuildingBlock: XIVTED_clean_linker_0, # of connection points: 2
#     Edge 60, Type (0, 0), BuildingBlock: XIVTED_clean_linker_0, # of connection points: 2
#     Edge 61, Type (0, 0), BuildingBlock: XIVTED_clean_linker_0, # of connection points: 2
#     Edge 62, Type (0, 0), BuildingBlock: XIVTED_clean_linker_0, # of connection points: 2
#     Edge 63, Type (0, 0), BuildingBlock: XIVTED_clean_linker_0, # of connection points: 2
#     Edge 64, Type (0, 0), BuildingBlock: XIVTED_clean_linker_0, # of connection points: 2
#     Edge 65, Type (0, 0), BuildingBlock: XIVTED_clean_linker_0, # of connection points: 2
#     Edge 66, Type (0, 0), BuildingBlock: XIVTED_clean_linker_0, # of connection points: 2
#     Edge 67, Type (0, 0), BuildingBlock: XIVTED_clean_linker_0, # of connection points: 2
#     Edge 68, Type (0, 0), BuildingBlock: XIVTED_clean_linker_0, # of connection points: 2
#     Edge 69, Type (0, 0), BuildingBlock: XIVTED_clean_linker_0, # of connection points: 2
#     Edge 70, Type (0, 0), BuildingBlock: XIVTED_clean_linker_0, # of connection points: 2
#     Edge 71, Type (0, 0), BuildingBlock: XIVTED_clean_linker_0, # of connection points: 2
# Relax obj value: 0.135
# Max RMSD: 0.138
# Mean RMSD: 0.138
data_MOF--net-afi--node1-GALJAG_clean_sbu_0--edge1-XIVTED_clean_linker_0
_symmetry_space_group_name_H-M    P1
_symmetry_Int_Tables_number       1
_symmetry_cell_setting            triclinic
loop_
_symmetry_equiv_pos_as_xyz
'x, y, z'
_cell_length_a     68.651214
_cell_length_b     68.67919
_cell_length_c     40.389743
_cell_angle_alpha  89.997659
_cell_angle_beta   90.018693
_cell_angle_gamma 120.04532
loop_
_atom_site_label
_atom_site_type_symbol
_atom_site_fract_x
_atom_site_fract_y
_atom_site_fract_z
_atom_type_partial_charge
In0 In 0.45181 0.12343 0.19281 0.0
O1 O 0.46792 0.13145 0.14178 0.0
O2 O 0.43306 0.12059 0.14452 0.0
C3 C 0.4889 0.12541 0.21927 0.0
C4 C 0.44965 0.15964 0.21436 0.0
C5 C 0.42115 0.08076 0.20928 0.0
O6 O 0.48761 0.12975 0.18928 0.0
O7 O 0.47142 0.11998 0.23608 0.0
O8 O 0.42472 0.09744 0.22681 0.0
O9 O 0.43294 0.08562 0.18338 0.0
C10 C 0.45017 0.12694 0.12641 0.0
O11 O 0.4323 0.14102 0.20841 0.0
O12 O 0.46788 0.1599 0.20965 0.0
In13 In 0.33148 0.45669 0.18705 0.0
O14 O 0.29539 0.43738 0.20693 0.0
O15 O 0.30985 0.47238 0.19797 0.0
C16 C 0.34076 0.42518 0.20964 0.0
C17 C 0.325 0.45552 0.12108 0.0
C18 C 0.36932 0.49366 0.20784 0.0
O19 O 0.33392 0.43521 0.22835 0.0
O20 O 0.34251 0.43074 0.17959 0.0
O21 O 0.36835 0.48368 0.18115 0.0
O22 O 0.35121 0.48498 0.22411 0.0
C23 C 0.29292 0.45439 0.20748 0.0
O24 O 0.33714 0.47354 0.13668 0.0
O25 O 0.31598 0.43804 0.13878 0.0
In26 In 0.87388 0.32782 0.1844 0.0
O27 O 0.86466 0.33488 0.13365 0.0
O28 O 0.87865 0.31339 0.13607 0.0
C29 C 0.87219 0.36432 0.20548 0.0
C30 C 0.83842 0.28792 0.20285 0.0
C31 C 0.91485 0.33823 0.20784 0.0
O32 O 0.88268 0.36444 0.17981 0.0
O33 O 0.86243 0.34575 0.22055 0.0
O34 O 0.91067 0.33754 0.17734 0.0
O35 O 0.89828 0.33324 0.2265 0.0
C36 C 0.87087 0.32297 0.11813 0.0
O37 O 0.85842 0.29337 0.20979 0.0
O38 O 0.83637 0.30255 0.18689 0.0
In39 In 0.54024 0.87585 0.18837 0.0
O40 O 0.52362 0.86049 0.13912 0.0
O41 O 0.55934 0.87934 0.14033 0.0
C42 C 0.50295 0.87553 0.21024 0.0
C43 C 0.54296 0.84088 0.21364 0.0
C44 C 0.57026 0.91901 0.20363 0.0
O45 O 0.50847 0.87777 0.18012 0.0
O46 O 0.51629 0.87348 0.22953 0.0
O47 O 0.56699 0.90285 0.22218 0.0
O48 O 0.5587 0.91331 0.17749 0.0
C49 C 0.54179 0.86803 0.12326 0.0
O50 O 0.56023 0.85958 0.20745 0.0
O51 O 0.52457 0.84003 0.2074 0.0
In52 In 0.66511 0.54824 0.18594 0.0
O53 O 0.70204 0.56575 0.20201 0.0
O54 O 0.68368 0.53007 0.20182 0.0
C55 C 0.65961 0.58262 0.20659 0.0
C56 C 0.66681 0.55004 0.11925 0.0
C57 C 0.62863 0.51064 0.20864 0.0
O58 O 0.66642 0.57266 0.22552 0.0
O59 O 0.65609 0.57558 0.17717 0.0
O60 O 0.63826 0.51115 0.18181 0.0
O61 O 0.63755 0.52899 0.22426 0.0
C62 C 0.70216 0.54771 0.20726 0.0
O63 O 0.6486 0.54044 0.13525 0.0
O64 O 0.68434 0.55898 0.1369 0.0
In65 In 0.11747 0.66555 0.18823 0.0
O66 O 0.13222 0.66304 0.13911 0.0
O67 O 0.1128 0.67933 0.1392 0.0
C68 C 0.11615 0.62736 0.20811 0.0
C69 C 0.1531 0.70391 0.21097 0.0
C70 C 0.07589 0.65479 0.20925 0.0
O71 O 0.1116 0.63023 0.1789 0.0
O72 O 0.12141 0.64376 0.22728 0.0
O73 O 0.09286 0.66362 0.22798 0.0
O74 O 0.07998 0.65193 0.1798 0.0
C75 C 0.12412 0.6729 0.12256 0.0
O76 O 0.13441 0.70245 0.20473 0.0
O77 O 0.1537 0.68613 0.20586 0.0
In78 In 0.87483 0.54115 0.30637 0.0
O79 O 0.85777 0.56105 0.29045 0.0
O80 O 0.83845 0.52547 0.28901 0.0
C81 C 0.91706 0.57147 0.28733 0.0
C82 C 0.87045 0.54368 0.37237 0.0
C83 C 0.87405 0.50372 0.28387 0.0
O84 O 0.90005 0.56663 0.26972 0.0
O85 O 0.91276 0.56118 0.31459 0.0
O86 O 0.87391 0.50781 0.31427 0.0
O87 O 0.87464 0.51852 0.26473 0.0
C88 C 0.83905 0.54387 0.28421 0.0
O89 O 0.86207 0.52527 0.35693 0.0
O90 O 0.88092 0.56095 0.35448 0.0
In91 In 0.32945 0.88106 0.30688 0.0
O92 O 0.34635 0.89041 0.35722 0.0
O93 O 0.3106 0.8743 0.35603 0.0
C94 C 0.36475 0.87746 0.28512 0.0
C95 C 0.29131 0.84367 0.28772 0.0
C96 C 0.33756 0.92155 0.28417 0.0
O97 O 0.35695 0.87193 0.31401 0.0
O98 O 0.35462 0.88455 0.26712 0.0
O99 O 0.33206 0.90494 0.26539 0.0
O100 O 0.33826 0.91756 0.31444 0.0
C101 C 0.32827 0.88272 0.37344 0.0
O102 O 0.2926 0.8626 0.28993 0.0
O103 O 0.30912 0.84367 0.2952 0.0
In104 In 0.4516 0.33692 0.31064 0.0
O105 O 0.46945 0.34212 0.35996 0.0
O106 O 0.43387 0.32123 0.35952 0.0
C107 C 0.48813 0.37457 0.28846 0.0
C108 C 0.45006 0.29898 0.2891 0.0
C109 C 0.41962 0.34623 0.29041 0.0
O110 O 0.47956 0.3734 0.31653 0.0
O111 O 0.47815 0.35683 0.27143 0.0
O112 O 0.42784 0.33757 0.27152 0.0
O113 O 0.42721 0.34977 0.31954 0.0
C114 C 0.45179 0.33 0.37631 0.0
O115 O 0.43253 0.30038 0.29243 0.0
O116 O 0.4681 0.3166 0.29646 0.0
In117 In 0.11521 0.45084 0.3061 0.0
O118 O 0.13355 0.43203 0.29082 0.0
O119 O 0.15083 0.46752 0.28567 0.0
C120 C 0.07324 0.41942 0.28755 0.0
C121 C 0.1219 0.44957 0.37167 0.0
C122 C 0.11384 0.48751 0.28541 0.0
O123 O 0.09024 0.42481 0.26962 0.0
O124 O 0.07748 0.4296 0.31489 0.0
O125 O 0.11279 0.48226 0.31554 0.0
O126 O 0.11551 0.47421 0.2656 0.0
C127 C 0.15139 0.44958 0.2824 0.0
O128 O 0.13002 0.46765 0.35545 0.0
O129 O 0.11053 0.43196 0.35475 0.0
In130 In 0.66163 0.11834 0.30912 0.0
O131 O 0.68342 0.14071 0.26685 0.0
O132 O 0.69999 0.14148 0.31136 0.0
C133 C 0.65041 0.07814 0.28128 0.0
C134 C 0.66461 0.12107 0.37567 0.0
C135 C 0.62639 0.1248 0.29922 0.0
O136 O 0.66242 0.08532 0.3069 0.0
O137 O 0.64452 0.09135 0.26945 0.0
O138 O 0.62457 0.10809 0.31496 0.0
O139 O 0.64603 0.13846 0.28931 0.0
C140 C 0.70171 0.149 0.28244 0.0
O141 O 0.6644 0.13618 0.3581 0.0
O142 O 0.66321 0.10463 0.35967 0.0
In143 In 0.54723 0.66668 0.30993 0.0
O144 O 0.53898 0.64955 0.3602 0.0
O145 O 0.55803 0.68527 0.35944 0.0
C146 C 0.5089 0.63106 0.28713 0.0
C147 C 0.54802 0.70454 0.28945 0.0
C148 C 0.5811 0.66054 0.28867 0.0
O149 O 0.50974 0.64111 0.31367 0.0
O150 O 0.52734 0.63909 0.27184 0.0
O151 O 0.57429 0.65719 0.31821 0.0
O152 O 0.57112 0.66741 0.26988 0.0
C153 C 0.54874 0.66756 0.37665 0.0
O154 O 0.56576 0.70386 0.29493 0.0
O155 O 0.53007 0.68621 0.29414 0.0
In156 In 0.54322 0.87546 0.81064 0.0
O157 O 0.52611 0.86305 0.86052 0.0
O158 O 0.56175 0.87834 0.85899 0.0
C159 C 0.50634 0.87634 0.78948 0.0
C160 C 0.54521 0.83925 0.78923 0.0
C161 C 0.57466 0.91689 0.78997 0.0
O162 O 0.51518 0.88376 0.81742 0.0
O163 O 0.51614 0.86854 0.77215 0.0
O164 O 0.56564 0.90019 0.77075 0.0
O165 O 0.56818 0.91258 0.81962 0.0
C166 C 0.54409 0.86911 0.87634 0.0
O167 O 0.56248 0.85852 0.79113 0.0
O168 O 0.52717 0.8384 0.79785 0.0
In169 In 0.6687 0.54745 0.80459 0.0
O170 O 0.70551 0.56576 0.78763 0.0
O171 O 0.68821 0.53012 0.78933 0.0
C172 C 0.66253 0.58153 0.78453 0.0
C173 C 0.6699 0.54917 0.87126 0.0
C174 C 0.63241 0.50939 0.78247 0.0
O175 O 0.66109 0.57565 0.81438 0.0
O176 O 0.66762 0.57057 0.76475 0.0
O177 O 0.64224 0.51024 0.80925 0.0
O178 O 0.64104 0.52765 0.7666 0.0
C179 C 0.7063 0.54801 0.78313 0.0
O180 O 0.6518 0.53971 0.85495 0.0
O181 O 0.68758 0.5579 0.85393 0.0
In182 In 0.12215 0.66365 0.80938 0.0
O183 O 0.13923 0.70056 0.7931 0.0
O184 O 0.15845 0.68419 0.79167 0.0
C185 C 0.08007 0.6522 0.79011 0.0
C186 C 0.12745 0.67114 0.87521 0.0
C187 C 0.12198 0.62641 0.78734 0.0
O188 O 0.09709 0.66371 0.77217 0.0
O189 O 0.0843 0.64673 0.81785 0.0
O190 O 0.12094 0.63017 0.81767 0.0
O191 O 0.12313 0.64142 0.76813 0.0
C192 C 0.15789 0.702 0.78673 0.0
O193 O 0.13597 0.66133 0.85952 0.0
O194 O 0.11638 0.67739 0.85763 0.0
In195 In 0.44963 0.11801 0.81322 0.0
O196 O 0.43082 0.13625 0.79745 0.0
O197 O 0.46644 0.15403 0.7943 0.0
C198 C 0.4175 0.07623 0.7951 0.0
C199 C 0.44936 0.12496 0.87889 0.0
C200 C 0.48567 0.11601 0.79082 0.0
O201 O 0.42362 0.09315 0.77668 0.0
O202 O 0.42732 0.08046 0.82273 0.0
O203 O 0.48036 0.11401 0.82103 0.0
O204 O 0.47277 0.11895 0.77185 0.0
C205 C 0.44843 0.15435 0.7901 0.0
O206 O 0.46725 0.13224 0.86232 0.0
O207 O 0.43148 0.11433 0.86226 0.0
In208 In 0.33137 0.45113 0.80823 0.0
O209 O 0.31214 0.45755 0.76777 0.0
O210 O 0.29295 0.43397 0.80509 0.0
C211 C 0.34119 0.41972 0.78666 0.0
C212 C 0.32469 0.45278 0.87382 0.0
C213 C 0.36892 0.49047 0.79406 0.0
O214 O 0.3337 0.42902 0.76764 0.0
O215 O 0.3433 0.42597 0.81638 0.0
O216 O 0.36957 0.47371 0.80546 0.0
O217 O 0.34938 0.48751 0.79028 0.0
C218 C 0.2929 0.44429 0.7793 0.0
O219 O 0.33493 0.47023 0.85626 0.0
O220 O 0.31759 0.43456 0.85824 0.0
In221 In 0.87743 0.32965 0.80461 0.0
O222 O 0.85909 0.29266 0.78817 0.0
O223 O 0.8409 0.31012 0.78792 0.0
C224 C 0.91927 0.33965 0.78618 0.0
C225 C 0.87128 0.32299 0.87043 0.0
C226 C 0.87939 0.36771 0.78252 0.0
O227 O 0.90251 0.32975 0.76718 0.0
O228 O 0.91482 0.34405 0.81452 0.0
O229 O 0.88163 0.36438 0.81263 0.0
O230 O 0.87617 0.35183 0.76342 0.0
C231 C 0.84065 0.29193 0.78264 0.0
O232 O 0.86441 0.33402 0.85408 0.0
O233 O 0.88108 0.31497 0.8535 0.0
In234 In 0.1192 0.44965 0.68519 0.0
O235 O 0.13485 0.42992 0.70751 0.0
O236 O 0.15679 0.46331 0.69126 0.0
C237 C 0.07756 0.41873 0.70592 0.0
C238 C 0.12343 0.44832 0.61908 0.0
C239 C 0.12034 0.48727 0.7079 0.0
O240 O 0.09414 0.42814 0.72532 0.0
O241 O 0.08206 0.42463 0.67607 0.0
O242 O 0.11254 0.47889 0.6799 0.0
O243 O 0.12761 0.47671 0.72456 0.0
C244 C 0.15486 0.44567 0.70394 0.0
O245 O 0.12996 0.4664 0.63486 0.0
O246 O 0.11478 0.43076 0.63669 0.0
In247 In 0.6615 0.11655 0.6894 0.0
O248 O 0.65894 0.13085 0.63975 0.0
O249 O 0.67375 0.11009 0.64038 0.0
C250 C 0.62393 0.11558 0.71188 0.0
C251 C 0.70018 0.15265 0.71044 0.0
C252 C 0.65107 0.07479 0.70876 0.0
O253 O 0.62697 0.11309 0.68175 0.0
O254 O 0.63984 0.11857 0.73075 0.0
O255 O 0.66168 0.09178 0.72717 0.0
O256 O 0.64603 0.07896 0.68066 0.0
C257 C 0.66775 0.1216 0.62338 0.0
O258 O 0.69864 0.13385 0.70494 0.0
O259 O 0.68231 0.15311 0.70555 0.0
In260 In 0.54609 0.66361 0.69148 0.0
O261 O 0.53564 0.64675 0.64099 0.0
O262 O 0.55606 0.68234 0.64206 0.0
C263 C 0.50869 0.62801 0.71654 0.0
C264 C 0.54785 0.70138 0.71478 0.0
C265 C 0.58066 0.65757 0.70885 0.0
O266 O 0.50809 0.63974 0.69295 0.0
O267 O 0.52812 0.63425 0.72758 0.0
O268 O 0.5715 0.66457 0.72902 0.0
O269 O 0.57262 0.65399 0.67998 0.0
C270 C 0.54578 0.66479 0.62469 0.0
O271 O 0.56531 0.7007 0.70712 0.0
O272 O 0.52973 0.68308 0.71094 0.0
In273 In 0.88089 0.54473 0.68553 0.0
O274 O 0.86374 0.56452 0.70176 0.0
O275 O 0.84452 0.52889 0.70249 0.0
C276 C 0.92259 0.57573 0.70594 0.0
C277 C 0.87438 0.54536 0.61981 0.0
C278 C 0.88175 0.50788 0.70672 0.0
O279 O 0.90559 0.56828 0.72453 0.0
O280 O 0.91848 0.56792 0.67692 0.0
O281 O 0.88571 0.51454 0.6771 0.0
O282 O 0.8774 0.5198 0.72566 0.0
C283 C 0.84501 0.54722 0.7076 0.0
O284 O 0.86649 0.52741 0.63635 0.0
O285 O 0.88551 0.56315 0.63647 0.0
In286 In 0.33248 0.87976 0.68805 0.0
O287 O 0.34916 0.88941 0.63751 0.0
O288 O 0.31342 0.87272 0.63901 0.0
C289 C 0.36853 0.87743 0.70981 0.0
C290 C 0.29498 0.84216 0.70841 0.0
C291 C 0.33893 0.91964 0.71057 0.0
O292 O 0.35902 0.86916 0.68254 0.0
O293 O 0.35976 0.8867 0.72621 0.0
O294 O 0.34095 0.9161 0.68051 0.0
O295 O 0.33311 0.9029 0.72925 0.0
C296 C 0.331 0.8815 0.62146 0.0
O297 O 0.29572 0.86078 0.70519 0.0
O298 O 0.31304 0.84255 0.70135 0.0
In299 In 0.45447 0.33284 0.68928 0.0
O300 O 0.43521 0.29683 0.70948 0.0
O301 O 0.47026 0.31139 0.70081 0.0
C302 C 0.42292 0.3427 0.70979 0.0
C303 C 0.45321 0.32598 0.62343 0.0
C304 C 0.49161 0.37036 0.7106 0.0
O305 O 0.43177 0.33485 0.72903 0.0
O306 O 0.42974 0.34525 0.68031 0.0
O307 O 0.48262 0.36918 0.6829 0.0
O308 O 0.48179 0.35266 0.72774 0.0
C309 C 0.45229 0.29448 0.7104 0.0
O310 O 0.47124 0.33815 0.63901 0.0
O311 O 0.43572 0.31698 0.64115 0.0
H312 H 0.39822 0.06577 0.26765 0.0
H313 H 0.34434 0.93571 0.21979 0.0
H314 H 0.40798 0.0425 0.17322 0.0
H315 H 0.34829 0.95942 0.31987 0.0
H316 H 0.36157 0.97453 0.20004 0.0
H317 H 0.37408 0.02664 0.28484 0.0
C318 C 0.39512 0.05242 0.25044 0.0
C319 C 0.40524 0.05734 0.21907 0.0
C320 C 0.35847 0.97121 0.22628 0.0
C321 C 0.37765 0.01262 0.23851 0.0
C322 C 0.34854 0.94906 0.23755 0.0
C323 C 0.34506 0.9444 0.27154 0.0
C324 C 0.36486 0.98879 0.24916 0.0
C325 C 0.35082 0.96231 0.29347 0.0
C326 C 0.38138 0.03011 0.26028 0.0
C327 C 0.40063 0.03942 0.19773 0.0
N328 N 0.36057 0.98375 0.28193 0.0
N329 N 0.38723 0.01784 0.20788 0.0
H330 H 0.40405 0.34435 0.22746 0.0
H331 H 0.34271 0.41378 0.27396 0.0
H332 H 0.39934 0.36458 0.32691 0.0
H333 H 0.35517 0.40108 0.17376 0.0
H334 H 0.35826 0.39081 0.29427 0.0
H335 H 0.38102 0.36002 0.20791 0.0
C336 C 0.39795 0.35187 0.24523 0.0
C337 C 0.40377 0.35337 0.2788 0.0
C338 C 0.35742 0.39289 0.26783 0.0
C339 C 0.37753 0.37141 0.25663 0.0
C340 C 0.34849 0.40595 0.25624 0.0
C341 C 0.34785 0.40949 0.22215 0.0
C342 C 0.36573 0.3833 0.24516 0.0
C343 C 0.35551 0.39891 0.20026 0.0
C344 C 0.38486 0.36086 0.23406 0.0
C345 C 0.39538 0.36323 0.30077 0.0
N346 N 0.36428 0.38642 0.21215 0.0
N347 N 0.38282 0.37202 0.28927 0.0
H348 H 0.92855 0.34456 0.27239 0.0
H349 H 0.05913 0.39949 0.22685 0.0
H350 H 0.95313 0.34972 0.17261 0.0
H351 H 0.03457 0.40358 0.32344 0.0
H352 H 0.02021 0.37615 0.20802 0.0
H353 H 0.9671 0.36099 0.29292 0.0
C354 C 0.94205 0.34894 0.25483 0.0
C355 C 0.93769 0.34596 0.22074 0.0
C356 C 0.02335 0.38202 0.23341 0.0
C357 C 0.98183 0.36486 0.24401 0.0
C358 C 0.04555 0.39528 0.24418 0.0
C359 C 0.05004 0.40361 0.27666 0.0
C360 C 0.00556 0.37702 0.25534 0.0
C361 C 0.03183 0.39763 0.29811 0.0
C362 C 0.96405 0.35837 0.26655 0.0
C363 C 0.95579 0.35187 0.19909 0.0
N364 N 0.0104 0.3848 0.28702 0.0
N365 N 0.97711 0.36118 0.21107 0.0
H366 H 0.57811 0.956 0.16827 0.0
H367 H 0.65551 0.04407 0.30722 0.0
H368 H 0.59655 0.93623 0.25911 0.0
H369 H 0.62672 0.06054 0.22436 0.0
H370 H 0.63872 0.00543 0.28637 0.0
H371 H 0.60058 0.9953 0.18489 0.0
C372 C 0.58705 0.95995 0.19164 0.0
C373 C 0.58534 0.94283 0.21248 0.0
C374 C 0.63623 0.01757 0.27266 0.0
C375 C 0.61107 0.98784 0.23174 0.0
C376 C 0.64586 0.03961 0.28446 0.0
C377 C 0.64237 0.05545 0.26757 0.0
C378 C 0.62313 0.01142 0.24371 0.0
C379 C 0.62974 0.04882 0.23824 0.0
C380 C 0.59985 0.98241 0.20115 0.0
C381 C 0.59734 0.94893 0.24241 0.0
N382 N 0.62051 0.0273 0.22734 0.0
N383 N 0.60963 0.97097 0.25126 0.0
H384 H 0.59517 0.66187 0.22493 0.0
H385 H 0.66137 0.59719 0.27012 0.0
H386 H 0.60485 0.64574 0.32464 0.0
H387 H 0.64446 0.60598 0.17044 0.0
H388 H 0.64679 0.62098 0.29036 0.0
H389 H 0.61914 0.64751 0.20456 0.0
C390 C 0.60259 0.65558 0.24257 0.0
C391 C 0.59782 0.65474 0.27647 0.0
C392 C 0.6465 0.61792 0.26402 0.0
C393 C 0.62513 0.63819 0.25337 0.0
C394 C 0.65488 0.60439 0.25245 0.0
C395 C 0.65387 0.59941 0.21861 0.0
C396 C 0.63703 0.62649 0.24156 0.0
C397 C 0.64537 0.60925 0.19678 0.0
C398 C 0.61622 0.64734 0.23093 0.0
C399 C 0.60793 0.64651 0.29826 0.0
N400 N 0.63707 0.62215 0.20867 0.0
N401 N 0.62094 0.63836 0.2863 0.0
H402 H 0.06193 0.65214 0.2733 0.0
H403 H 0.93111 0.59038 0.22611 0.0
H404 H 0.03732 0.63863 0.17279 0.0
H405 H 0.95579 0.58799 0.32343 0.0
H406 H 0.96999 0.61401 0.20732 0.0
H407 H 0.02308 0.63474 0.29312 0.0
C408 C 0.04836 0.64576 0.2554 0.0
C409 C 0.0528 0.64666 0.22137 0.0
C410 C 0.96687 0.60842 0.23283 0.0
C411 C 0.00841 0.62673 0.24384 0.0
C412 C 0.94471 0.595 0.24358 0.0
C413 C 0.94028 0.5871 0.27629 0.0
C414 C 0.98468 0.61411 0.25504 0.0
C415 C 0.9585 0.5936 0.29793 0.0
C416 C 0.02621 0.63575 0.26673 0.0
C417 C 0.0346 0.63813 0.19925 0.0
N418 N 0.97992 0.60668 0.28689 0.0
N419 N 0.01318 0.62843 0.21088 0.0
H420 H 0.59771 0.95494 0.82729 0.0
H421 H 0.63212 0.03658 0.67139 0.0
H422 H 0.58643 0.93144 0.72621 0.0
H423 H 0.65329 0.06035 0.7711 0.0
H424 H 0.61698 0.99798 0.69078 0.0
H425 H 0.61986 0.9936 0.80725 0.0
C426 C 0.60011 0.95791 0.80087 0.0
C427 C 0.5901 0.93999 0.77834 0.0
C428 C 0.62512 0.01162 0.7084 0.0
C429 C 0.61521 0.98418 0.75523 0.0
C430 C 0.63374 0.03367 0.69735 0.0
C431 C 0.64381 0.05165 0.71974 0.0
C432 C 0.62635 0.0075 0.74218 0.0
C433 C 0.64558 0.04694 0.75305 0.0
C434 C 0.61276 0.97999 0.78945 0.0
C435 C 0.59379 0.94478 0.74441 0.0
N436 N 0.6367 0.02529 0.76334 0.0
N437 N 0.60586 0.96644 0.73387 0.0
H438 H 0.65144 0.60732 0.82277 0.0
H439 H 0.60317 0.6431 0.66943 0.0
H440 H 0.65908 0.59324 0.72098 0.0
H441 H 0.59714 0.65885 0.771 0.0
H442 H 0.62799 0.6292 0.68727 0.0
H443 H 0.63602 0.63065 0.80388 0.0
C444 C 0.65014 0.60939 0.79642 0.0
C445 C 0.6563 0.59815 0.77339 0.0
C446 C 0.62147 0.63593 0.70565 0.0
C447 C 0.63845 0.62461 0.75159 0.0
C448 C 0.6073 0.64388 0.69547 0.0
C449 C 0.5979 0.6519 0.71885 0.0
C450 C 0.62614 0.63584 0.73949 0.0
C451 C 0.60392 0.65266 0.7522 0.0
C452 C 0.64131 0.62269 0.78564 0.0
C453 C 0.65439 0.60151 0.73957 0.0
N454 N 0.61746 0.64447 0.76159 0.0
N455 N 0.64538 0.61423 0.72968 0.0
H456 H 0.96115 0.59717 0.66934 0.0
H457 H 0.04141 0.63156 0.82656 0.0
H458 H 0.93659 0.58845 0.76968 0.0
H459 H 0.06601 0.65515 0.72791 0.0
H460 H 0.00287 0.6161 0.80637 0.0
H461 H -0.00031 0.61902 0.69015 0.0
C462 C 0.96388 0.60005 0.69574 0.0
C463 C 0.94569 0.59089 0.71786 0.0
C464 C 0.01669 0.62485 0.78919 0.0
C465 C 0.9897 0.61562 0.74187 0.0
C466 C 0.03868 0.63363 0.80069 0.0
C467 C 0.05689 0.64452 0.77881 0.0
C468 C 0.01287 0.62671 0.75547 0.0
C469 C 0.05243 0.64682 0.74559 0.0
C470 C 0.98587 0.61254 0.7076 0.0
C471 C 0.95015 0.59518 0.75179 0.0
N472 N 0.03085 0.63777 0.73484 0.0
N473 N 0.97173 0.60703 0.7628 0.0
H474 H 0.39976 0.03777 0.83192 0.0
H475 H 0.35014 0.95761 0.67489 0.0
H476 H 0.39885 0.06205 0.73372 0.0
H477 H 0.34248 0.93304 0.7751 0.0
H478 H 0.36534 0.99579 0.69632 0.0
H479 H 0.3763 -0.00079 0.81224 0.0
C480 C 0.39442 0.03498 0.80627 0.0
C481 C 0.4014 0.05309 0.78433 0.0
C482 C 0.36008 0.98203 0.71367 0.0
C483 C 0.37472 0.00902 0.76154 0.0
C484 C 0.3514 0.96023 0.70144 0.0
C485 C 0.34524 0.94219 0.72327 0.0
C486 C 0.36285 0.98583 0.74797 0.0
C487 C 0.34713 0.9465 0.75741 0.0
C488 C 0.381 0.01296 0.79504 0.0
C489 C 0.39392 0.04854 0.75142 0.0
N490 N 0.35602 0.96792 0.7687 0.0
N491 N 0.38118 0.02693 0.74092 0.0
H492 H 0.34304 0.40735 0.72281 0.0
H493 H 0.40838 0.34241 0.77296 0.0
H494 H 0.35677 0.39712 0.82363 0.0
H495 H 0.40137 0.35931 0.67243 0.0
H496 H 0.38476 0.3576 0.79168 0.0
H497 H 0.35955 0.38496 0.70365 0.0
C498 C 0.3493 0.40017 0.74092 0.0
C499 C 0.34873 0.40424 0.77482 0.0
C500 C 0.38824 0.35783 0.76549 0.0
C501 C 0.36772 0.37876 0.75314 0.0
C502 C 0.40169 0.34912 0.7548 0.0
C503 C 0.40699 0.3498 0.72115 0.0
C504 C 0.38005 0.36727 0.74234 0.0
C505 C 0.39782 0.35861 0.69866 0.0
C506 C 0.35877 0.38745 0.72998 0.0
C507 C 0.35702 0.39452 0.79723 0.0
N508 N 0.38492 0.36714 0.70968 0.0
N509 N 0.36631 0.38236 0.78598 0.0
H510 H 0.03966 0.3951 0.66843 0.0
H511 H 0.95732 0.35847 0.82403 0.0
H512 H 0.06284 0.40734 0.76968 0.0
H513 H 0.93414 0.33829 0.72383 0.0
H514 H 0.9961 0.3745 0.80487 0.0
H515 H 0.00099 0.37235 0.68826 0.0
C516 C 0.03661 0.39282 0.69484 0.0
C517 C 0.05444 0.40324 0.71747 0.0
C518 C 0.98255 0.36637 0.78709 0.0
C519 C 0.01025 0.37739 0.74035 0.0
C520 C 0.9604 0.35722 0.79802 0.0
C521 C 0.94253 0.34719 0.77542 0.0
C522 C 0.98688 0.36569 0.75325 0.0
C523 C 0.94746 0.34595 0.74205 0.0
C524 C 0.01454 0.37982 0.70615 0.0
C525 C 0.04957 0.39967 0.7514 0.0
N526 N 0.9692 0.35532 0.7319 0.0
N527 N 0.02791 0.38722 0.76182 0.0
H528 H 0.41252 0.16392 0.22513 0.0
H529 H 0.486 0.29313 0.27929 0.0
H530 H 0.48509 0.20098 0.22893 0.0
H531 H 0.4135 0.25806 0.27331 0.0
H532 H 0.48561 0.25912 0.2612 0.0
H533 H 0.41209 0.19779 0.24322 0.0
C534 C 0.42834 0.17917 0.22981 0.0
C535 C 0.44887 0.17968 0.22556 0.0
C536 C 0.46975 0.25879 0.26379 0.0
C537 C 0.44852 0.21836 0.24616 0.0
C538 C 0.46997 0.27824 0.27413 0.0
C539 C 0.44975 0.2784 0.27779 0.0
C540 C 0.44914 0.23928 0.25707 0.0
C541 C 0.42947 0.25863 0.27076 0.0
C542 C 0.42809 0.19848 0.24009 0.0
C543 C 0.46888 0.19984 0.23191 0.0
N544 N 0.42967 0.23981 0.26074 0.0
N545 N 0.46819 0.21835 0.24188 0.0
H546 H 0.15785 0.41346 0.2757 0.0
H547 H 0.28453 0.48911 0.21113 0.0
H548 H 0.19094 0.48536 0.26192 0.0
H549 H 0.25357 0.41765 0.22799 0.0
H550 H 0.24982 0.4876 0.22854 0.0
H551 H 0.19215 0.41412 0.25699 0.0
C552 C 0.17231 0.42935 0.26864 0.0
C553 C 0.17159 0.44939 0.27038 0.0
C554 C 0.25056 0.47222 0.22847 0.0
C555 C 0.21079 0.45029 0.24908 0.0
C556 C 0.2704 0.47308 0.21852 0.0
C557 C 0.27193 0.45348 0.21816 0.0
C558 C 0.23203 0.45159 0.23814 0.0
C559 C 0.25308 0.43316 0.22797 0.0
C560 C 0.19187 0.42973 0.25803 0.0
C561 C 0.19077 0.46952 0.261 0.0
N562 N 0.23388 0.43274 0.23757 0.0
N563 N 0.20957 0.46945 0.25079 0.0
H564 H 0.7438 0.16871 0.31011 0.0
H565 H 0.79533 0.2696 0.1807 0.0
H566 H 0.70783 0.17127 0.2241 0.0
H567 H 0.83699 0.25706 0.24727 0.0
H568 H 0.76272 0.23426 0.19811 0.0
H569 H 0.77801 0.20152 0.28913 0.0
C570 C 0.74317 0.17605 0.28668 0.0
C571 C 0.72296 0.16735 0.26886 0.0
C572 C 0.779 0.23914 0.2088 0.0
C573 C 0.76182 0.20491 0.245 0.0
C574 C 0.7976 0.25936 0.19897 0.0
C575 C 0.81884 0.26626 0.21266 0.0
C576 C 0.78158 0.22584 0.23286 0.0
C577 C 0.82087 0.25231 0.23612 0.0
C578 C 0.76267 0.19474 0.27473 0.0
C579 C 0.72305 0.17747 0.23866 0.0
N580 N 0.80241 0.2328 0.24572 0.0
N581 N 0.74212 0.19584 0.22785 0.0
H582 H 0.50774 0.79965 0.22921 0.0
H583 H 0.58436 0.74629 0.27736 0.0
H584 H 0.58032 0.83736 0.22662 0.0
H585 H 0.51174 0.70956 0.27739 0.0
H586 H 0.58364 0.78011 0.25986 0.0
H587 H 0.50924 0.76678 0.2483 0.0
C588 C 0.52403 0.80102 0.23276 0.0
C589 C 0.54394 0.82124 0.22628 0.0
C590 C 0.56788 0.76464 0.26372 0.0
C591 C 0.54582 0.78358 0.24806 0.0
C592 C 0.56829 0.74536 0.27367 0.0
C593 C 0.54808 0.72511 0.27877 0.0
C594 C 0.54712 0.76362 0.25889 0.0
C595 C 0.52772 0.72481 0.2737 0.0
C596 C 0.52488 0.78222 0.24363 0.0
C597 C 0.56457 0.82206 0.23133 0.0
N598 N 0.52777 0.74375 0.26404 0.0
N599 N 0.56498 0.80346 0.24187 0.0
H600 H 0.70605 0.51077 0.2196 0.0
H601 H 0.8359 0.58147 0.27223 0.0
H602 H 0.74407 0.58333 0.22066 0.0
H603 H 0.79727 0.50895 0.26975 0.0
H604 H 0.80265 0.58275 0.25337 0.0
H605 H 0.73947 0.50997 0.2381 0.0
C606 C 0.72146 0.52655 0.22375 0.0
C607 C 0.72231 0.54716 0.21861 0.0
C608 C 0.80146 0.56657 0.25694 0.0
C609 C 0.76069 0.54639 0.2398 0.0
C610 C 0.82043 0.56583 0.26768 0.0
C611 C 0.81931 0.54507 0.27255 0.0
C612 C 0.78126 0.54639 0.25105 0.0
C613 C 0.79886 0.52532 0.26631 0.0
C614 C 0.74055 0.52609 0.23431 0.0
C615 C 0.74271 0.56708 0.22435 0.0
N616 N 0.78066 0.52647 0.25591 0.0
N617 N 0.76112 0.56621 0.23466 0.0
H618 H 0.15693 0.74512 0.22189 0.0
H619 H 0.28544 0.80163 0.28058 0.0
H620 H 0.19427 0.71002 0.22742 0.0
H621 H 0.2504 0.83882 0.27078 0.0
H622 H 0.25157 0.76767 0.26262 0.0
H623 H 0.19036 0.77943 0.24123 0.0
C624 C 0.17214 0.74464 0.22722 0.0
C625 C 0.17287 0.72473 0.22302 0.0
C626 C 0.25122 0.78323 0.26438 0.0
C627 C 0.21107 0.7638 0.2451 0.0
C628 C 0.27058 0.80263 0.27466 0.0
C629 C 0.27072 0.82307 0.27712 0.0
C630 C 0.23179 0.78419 0.25649 0.0
C631 C 0.25099 0.82339 0.26917 0.0
C632 C 0.19121 0.76421 0.23822 0.0
C633 C 0.19298 0.72501 0.23027 0.0
N634 N 0.23228 0.80422 0.25918 0.0
N635 N 0.21126 0.74421 0.24093 0.0
H636 H 0.58452 0.74351 0.72308 0.0
H637 H 0.50984 0.79669 0.78265 0.0
H638 H 0.51223 0.70605 0.73297 0.0
H639 H 0.58193 0.83589 0.77091 0.0
H640 H 0.5108 0.76326 0.76508 0.0
H641 H 0.5844 0.77749 0.74136 0.0
C642 C 0.56865 0.74244 0.72918 0.0
C643 C 0.54835 0.72196 0.72651 0.0
C644 C 0.52645 0.77914 0.7663 0.0
C645 C 0.54807 0.76065 0.74731 0.0
C646 C 0.5259 0.79826 0.77633 0.0
C647 C 0.54584 0.81909 0.77821 0.0
C648 C 0.5471 0.78079 0.75809 0.0
C649 C 0.56616 0.82013 0.76974 0.0
C650 C 0.56858 0.76182 0.73956 0.0
C651 C 0.52827 0.72149 0.73467 0.0
N652 N 0.56629 0.80122 0.76005 0.0
N653 N 0.52864 0.74053 0.74466 0.0
H654 H 0.7114 0.5117 0.77187 0.0
H655 H 0.84113 0.58447 0.71938 0.0
H656 H 0.74769 0.58426 0.76891 0.0
H657 H 0.8035 0.51192 0.72191 0.0
H658 H 0.80743 0.5851 0.73784 0.0
H659 H 0.7453 0.51174 0.75375 0.0
C660 C 0.72653 0.52766 0.76737 0.0
C661 C 0.72675 0.54801 0.77188 0.0
C662 C 0.80657 0.56906 0.73437 0.0
C663 C 0.76571 0.54822 0.75114 0.0
C664 C 0.82579 0.5687 0.72387 0.0
C665 C 0.82508 0.54811 0.71912 0.0
C666 C 0.78655 0.54868 0.74014 0.0
C667 C 0.8048 0.52817 0.72525 0.0
C668 C 0.74591 0.52769 0.75703 0.0
C669 C 0.74682 0.56819 0.76571 0.0
N670 N 0.78637 0.52896 0.73542 0.0
N671 N 0.76553 0.5678 0.75565 0.0
H672 H 0.29009 0.80061 0.71743 0.0
H673 H 0.1614 0.74299 0.77547 0.0
H674 H 0.25376 0.83666 0.72467 0.0
H675 H 0.19926 0.7084 0.77069 0.0
H676 H 0.19463 0.77736 0.75599 0.0
H677 H 0.25657 0.76651 0.73604 0.0
C678 C 0.27502 0.80133 0.72294 0.0
C679 C 0.27469 0.82148 0.71954 0.0
C680 C 0.19565 0.76224 0.75919 0.0
C681 C 0.23619 0.78247 0.74088 0.0
C682 C 0.1767 0.74264 0.77028 0.0
C683 C 0.17761 0.72285 0.77471 0.0
C684 C 0.21561 0.76201 0.75247 0.0
C685 C 0.19783 0.7233 0.76764 0.0
C686 C 0.25587 0.78185 0.73358 0.0
C687 C 0.25472 0.82146 0.72699 0.0
N688 N 0.21601 0.74255 0.75689 0.0
N689 N 0.23624 0.80223 0.73734 0.0
H690 H 0.48729 0.28659 0.71561 0.0
H691 H 0.41205 0.16016 0.78122 0.0
H692 H 0.4156 0.2551 0.73098 0.0
H693 H 0.48431 0.19431 0.77113 0.0
H694 H 0.4125 0.19413 0.76142 0.0
H695 H 0.48606 0.25228 0.73447 0.0
C696 C 0.47126 0.27242 0.72297 0.0
C697 C 0.45152 0.27368 0.72178 0.0
C698 C 0.42824 0.19416 0.76354 0.0
C699 C 0.44996 0.23426 0.74342 0.0
C700 C 0.42799 0.17479 0.77479 0.0
C701 C 0.44818 0.17446 0.77783 0.0
C702 C 0.44883 0.21327 0.75523 0.0
C703 C 0.46835 0.19385 0.7692 0.0
C704 C 0.47057 0.25282 0.73376 0.0
C705 C 0.43122 0.25481 0.73158 0.0
N706 N 0.46815 0.21244 0.7583 0.0
N707 N 0.43096 0.23584 0.742 0.0
H708 H 0.15561 0.41204 0.73949 0.0
H709 H 0.28952 0.46834 0.72819 0.0
H710 H 0.19893 0.47496 0.69016 0.0
H711 H 0.24925 0.41607 0.79834 0.0
H712 H 0.25551 0.46733 0.70795 0.0
H713 H 0.18893 0.40991 0.75584 0.0
C714 C 0.17212 0.42535 0.73203 0.0
C715 C 0.17457 0.44376 0.7136 0.0
C716 C 0.25408 0.456 0.72768 0.0
C717 C 0.21258 0.44135 0.7319 0.0
C718 C 0.27348 0.4565 0.73914 0.0
C719 C 0.27219 0.44235 0.76509 0.0
C720 C 0.23321 0.44116 0.74214 0.0
C721 C 0.25096 0.42733 0.77836 0.0
C722 C 0.19109 0.42414 0.74139 0.0
C723 C 0.1963 0.46053 0.70453 0.0
N724 N 0.23227 0.42716 0.76679 0.0
N725 N 0.21445 0.45891 0.71374 0.0
H726 H 0.79954 0.28708 0.76956 0.0
H727 H 0.7413 0.15642 0.72232 0.0
H728 H 0.83513 0.25013 0.77044 0.0
H729 H 0.70688 0.19451 0.72314 0.0
H730 H 0.77594 0.19027 0.73969 0.0
H731 H 0.76555 0.2531 0.75206 0.0
C732 C 0.8002 0.27179 0.76601 0.0
C733 C 0.82018 0.27141 0.77146 0.0
C734 C 0.7608 0.19119 0.73607 0.0
C735 C 0.78123 0.23233 0.75144 0.0
C736 C 0.74104 0.17189 0.7262 0.0
C737 C 0.72121 0.17268 0.7213 0.0
C738 C 0.76067 0.21138 0.74105 0.0
C739 C 0.72179 0.19314 0.72663 0.0
C740 C 0.78076 0.25236 0.75603 0.0
C741 C 0.82006 0.25113 0.76648 0.0
N742 N 0.74118 0.21165 0.73618 0.0
N743 N 0.80086 0.23236 0.75676 0.0
H744 H 0.41335 0.11381 0.08653 0.0
H745 H 0.48584 0.14647 0.91946 0.0
H746 H 0.48556 0.14356 0.08359 0.0
H747 H 0.41323 0.1096 0.92075 0.0
H748 H 0.48595 0.14884 0.97973 0.0
H749 H 0.41285 0.1152 0.02591 0.0
C750 C 0.42909 0.12074 0.07313 0.0
C751 C 0.44951 0.12848 0.09003 0.0
C752 C 0.46997 0.1403 0.96688 0.0
C753 C 0.44909 0.13015 0.02089 0.0
C754 C 0.4699 0.13898 0.93245 0.0
C755 C 0.44949 0.12771 0.91513 0.0
C756 C 0.44948 0.13026 0.98419 0.0
C757 C 0.42934 0.11838 0.93319 0.0
C758 C 0.4288 0.1215 0.03857 0.0
C759 C 0.46942 0.1373 0.07152 0.0
N760 N 0.42984 0.11977 0.9668 0.0
N761 N 0.46871 0.13785 0.03797 0.0
H762 H 0.34044 0.48997 0.91333 0.0
H763 H 0.30148 0.41867 0.08149 0.0
H764 H 0.30347 0.41741 0.91656 0.0
H765 H 0.34254 0.49101 0.07817 0.0
H766 H 0.2991 0.41799 0.02104 0.0
H767 H 0.3384 0.49082 0.97371 0.0
C768 C 0.33176 0.47422 0.92675 0.0
C769 C 0.32222 0.45359 0.90999 0.0
C770 C 0.30854 0.43402 0.03353 0.0
C771 C 0.31989 0.45441 0.97901 0.0
C772 C 0.30988 0.43441 0.06802 0.0
C773 C 0.32233 0.45491 0.08479 0.0
C774 C 0.31973 0.45429 0.01571 0.0
C775 C 0.33285 0.47482 0.06618 0.0
C776 C 0.33063 0.47471 0.96121 0.0
C777 C 0.31114 0.43369 0.92856 0.0
N778 N 0.33138 0.47401 0.03262 0.0
N779 N 0.31037 0.4346 0.9621 0.0
H780 H 0.851 0.33903 0.91134 0.0
H781 H 0.8852 0.30038 0.07812 0.0
H782 H 0.88654 0.30203 0.91214 0.0
H783 H 0.85335 0.34088 0.07538 0.0
H784 H 0.88369 0.29843 0.01751 0.0
H785 H 0.84934 0.33735 0.97164 0.0
C786 C 0.85835 0.33043 0.92424 0.0
C787 C 0.86901 0.32074 0.90676 0.0
C788 C 0.87697 0.30767 0.0302 0.0
C789 C 0.86729 0.31883 0.97588 0.0
C790 C 0.87782 0.30878 0.06476 0.0
C791 C 0.86947 0.32089 0.08173 0.0
C792 C 0.86767 0.31873 0.01259 0.0
C793 C 0.86006 0.33143 0.06327 0.0
C794 C 0.85744 0.3295 0.95869 0.0
C795 C 0.87821 0.30977 0.92471 0.0
N796 N 0.85946 0.33015 0.02972 0.0
N797 N 0.87723 0.30919 0.95836 0.0
H798 H 0.50611 0.84449 0.08195 0.0
H799 H 0.58074 0.88385 0.91701 0.0
H800 H 0.57858 0.88488 0.0825 0.0
H801 H 0.50812 0.84828 0.91794 0.0
H802 H 0.58062 0.88111 0.97748 0.0
H803 H 0.50688 0.84225 0.02172 0.0
C804 C 0.52221 0.85275 0.06938 0.0
C805 C 0.54231 0.86503 0.08718 0.0
C806 C 0.56472 0.87379 0.96442 0.0
C807 C 0.54332 0.86266 0.0182 0.0
C808 C 0.56478 0.87533 0.92994 0.0
C809 C 0.54441 0.86641 0.91252 0.0
C810 C 0.54414 0.86322 0.98152 0.0
C811 C 0.52422 0.85551 0.93043 0.0
C812 C 0.52264 0.8515 0.03498 0.0
C813 C 0.56269 0.87533 0.06966 0.0
N814 N 0.5246 0.85431 0.96395 0.0
N815 N 0.56267 0.87403 0.03607 0.0
H816 H 0.63111 0.53229 0.07695 0.0
H817 H 0.70649 0.56831 0.91259 0.0
H818 H 0.70372 0.56873 0.07857 0.0
H819 H 0.63387 0.53183 0.9129 0.0
H820 H 0.70616 0.56913 0.97324 0.0
H821 H 0.63207 0.53249 0.01662 0.0
C822 C 0.64728 0.54037 0.06457 0.0
C823 C 0.66737 0.55049 0.08275 0.0
C824 C 0.69031 0.56097 0.96001 0.0
C825 C 0.66862 0.55077 0.0136 0.0
C826 C 0.69049 0.56049 0.92543 0.0
C827 C 0.67018 0.54997 0.90776 0.0
C828 C 0.66965 0.55085 0.97693 0.0
C829 C 0.64993 0.54011 0.92556 0.0
C830 C 0.64782 0.54048 0.03009 0.0
C831 C 0.68784 0.56073 0.06544 0.0
N832 N 0.65019 0.54078 0.95914 0.0
N833 N 0.68795 0.56059 0.03177 0.0
H834 H 0.15063 0.65924 0.9177 0.0
H835 H 0.10657 0.69155 0.08065 0.0
H836 H 0.10869 0.68952 0.91523 0.0
H837 H 0.1476 0.66024 0.08199 0.0
H838 H 0.10929 0.69352 0.02017 0.0
H839 H 0.15188 0.66203 0.978 0.0
C840 C 0.14178 0.6666 0.92987 0.0
C841 C 0.12944 0.67406 0.91148 0.0
C842 C 0.1178 0.68634 0.03371 0.0
C843 C 0.1307 0.67722 0.98055 0.0
C844 C 0.11628 0.68524 0.06822 0.0
C845 C 0.12678 0.67562 0.0863 0.0
C846 C 0.1299 0.67773 0.01723 0.0
C847 C 0.13916 0.66772 0.06899 0.0
C848 C 0.14249 0.66818 0.96431 0.0
C849 C 0.11835 0.68351 0.9285 0.0
N850 N 0.14028 0.66885 0.03543 0.0
N851 N 0.11914 0.68471 0.96212 0.0
H852 H 0.8505 0.50915 0.57957 0.0
H853 H 0.88903 0.58107 0.41203 0.0
H854 H 0.89184 0.58149 0.5777 0.0
H855 H 0.84867 0.50867 0.41538 0.0
H856 H 0.88823 0.58202 0.47261 0.0
H857 H 0.84759 0.50906 0.51937 0.0
C858 C 0.85888 0.52505 0.56646 0.0
C859 C 0.87152 0.54536 0.5836 0.0
C860 C 0.87945 0.56594 0.46007 0.0
C861 C 0.86836 0.54539 0.5146 0.0
C862 C 0.87988 0.56539 0.42552 0.0
C863 C 0.86899 0.54475 0.40872 0.0
C864 C 0.86806 0.54569 0.47789 0.0
C865 C 0.85737 0.52495 0.42736 0.0
C866 C 0.85722 0.52499 0.53207 0.0
C867 C 0.88197 0.56545 0.5654 0.0
N868 N 0.8573 0.52591 0.46092 0.0
N869 N 0.88025 0.56496 0.53182 0.0
H870 H 0.36678 0.90003 0.57933 0.0
H871 H 0.29168 0.86618 0.41467 0.0
H872 H 0.29419 0.86516 0.58067 0.0
H873 H 0.36426 0.90037 0.41522 0.0
H874 H 0.29195 0.86643 0.47535 0.0
H875 H 0.36594 0.90108 0.51903 0.0
C876 C 0.35065 0.89261 0.5669 0.0
C877 C 0.33052 0.88245 0.58499 0.0
C878 C 0.30781 0.87392 0.46217 0.0
C879 C 0.3294 0.88356 0.51586 0.0
C880 C 0.30766 0.8738 0.42757 0.0
C881 C 0.32798 0.88323 0.40995 0.0
C882 C 0.32843 0.88354 0.47917 0.0
C883 C 0.3482 0.89287 0.42784 0.0
C884 C 0.35017 0.89321 0.53244 0.0
C885 C 0.3101 0.87314 0.56761 0.0
N886 N 0.3479 0.89274 0.46143 0.0
N887 N 0.31005 0.87388 0.53396 0.0
H888 H 0.41632 0.30296 0.58352 0.0
H889 H 0.48846 0.34653 0.4167 0.0
H890 H 0.48873 0.34373 0.58075 0.0
H891 H 0.41595 0.30681 0.41803 0.0
H892 H 0.48885 0.34323 0.47678 0.0
H893 H 0.41577 0.30165 0.52292 0.0
C894 C 0.43211 0.31148 0.57015 0.0
C895 C 0.4526 0.32358 0.58711 0.0
C896 C 0.47283 0.33514 0.46399 0.0
C897 C 0.4521 0.32225 0.51795 0.0
C898 C 0.47261 0.33702 0.42966 0.0
C899 C 0.45213 0.32704 0.41242 0.0
C900 C 0.45242 0.32324 0.48127 0.0
C901 C 0.43211 0.31483 0.43043 0.0
C902 C 0.43178 0.31077 0.53559 0.0
C903 C 0.47255 0.3343 0.56863 0.0
N904 N 0.43274 0.31337 0.46394 0.0
N905 N 0.47179 0.33347 0.53506 0.0
H906 H 0.1077 0.4115 0.57854 0.0
H907 H 0.14507 0.48543 0.41278 0.0
H908 H 0.14299 0.48407 0.57694 0.0
H909 H 0.10474 0.41299 0.41289 0.0
H910 H 0.14738 0.48492 0.47302 0.0
H911 H 0.10921 0.41137 0.51794 0.0
C912 C 0.11587 0.42739 0.56543 0.0
C913 C 0.12513 0.44783 0.58272 0.0
C914 C 0.13809 0.46911 0.45991 0.0
C915 C 0.12691 0.44781 0.51357 0.0
C916 C 0.1368 0.46939 0.4255 0.0
C917 C 0.12459 0.44922 0.40787 0.0
C918 C 0.12706 0.4485 0.47688 0.0
C919 C 0.11426 0.42893 0.42559 0.0
C920 C 0.1167 0.42731 0.53087 0.0
C921 C 0.13554 0.46793 0.56457 0.0
N922 N 0.11565 0.42908 0.45918 0.0
N923 N 0.13609 0.46741 0.531 0.0
H924 H 0.66332 0.15225 0.41639 0.0
H925 H 0.68082 0.09876 0.58205 0.0
H926 H 0.67007 0.09307 0.41773 0.0
H927 H 0.65881 0.14763 0.58194 0.0
H928 H 0.68146 0.09961 0.52151 0.0
H929 H 0.66584 0.15377 0.47692 0.0
C930 C 0.66538 0.13961 0.42943 0.0
C931 C 0.6664 0.12246 0.41209 0.0
C932 C 0.67657 0.11021 0.53473 0.0
C933 C 0.66941 0.12415 0.48115 0.0
C934 C 0.67629 0.1098 0.56927 0.0
C935 C 0.66967 0.12308 0.58697 0.0
C936 C 0.67033 0.12412 0.5178 0.0
C937 C 0.66394 0.13705 0.5692 0.0
C938 C 0.66679 0.14047 0.46394 0.0
C939 C 0.66911 0.10653 0.43017 0.0
N940 N 0.66437 0.13719 0.53556 0.0
N941 N 0.67054 0.10777 0.46372 0.0
H942 H 0.56848 0.70401 0.41805 0.0
H943 H 0.52555 0.62903 0.5826 0.0
H944 H 0.52929 0.6315 0.41825 0.0
H945 H 0.56647 0.70141 0.58379 0.0
H946 H 0.52645 0.62981 0.5222 0.0
H947 H 0.56783 0.70366 0.47868 0.0
C948 C 0.55978 0.68803 0.43087 0.0
C949 C 0.54892 0.66775 0.41316 0.0
C950 C 0.53524 0.64555 0.53562 0.0
C951 C 0.54806 0.66721 0.48235 0.0
C952 C 0.5347 0.6451 0.57011 0.0
C953 C 0.54595 0.66519 0.58818 0.0
C954 C 0.54711 0.66624 0.51902 0.0
C955 C 0.55756 0.68554 0.57076 0.0
C956 C 0.5594 0.68783 0.46545 0.0
C957 C 0.53789 0.64752 0.43095 0.0
N958 N 0.55785 0.68555 0.53711 0.0
N959 N 0.53772 0.64777 0.46454 0.0
H960 H 0.49391 0.11066 0.27997 0.0
H961 H 0.62474 0.15364 0.25444 0.0
H962 H 0.5303 0.14295 0.19069 0.0
H963 H 0.58357 0.10139 0.32406 0.0
H964 H 0.5915 0.15522 0.23671 0.0
H965 H 0.52793 0.11214 0.30207 0.0
C966 C 0.50907 0.11812 0.2651 0.0
C967 C 0.5093 0.1266 0.2334 0.0
C968 C 0.58977 0.14351 0.256 0.0
C969 C 0.54816 0.12852 0.25858 0.0
C970 C 0.60874 0.14267 0.26626 0.0
C971 C 0.60684 0.12727 0.29063 0.0
C972 C 0.5688 0.12902 0.27049 0.0
C973 C 0.5857 0.11342 0.30505 0.0
C974 C 0.52842 0.11892 0.27768 0.0
C975 C 0.52938 0.13612 0.21517 0.0
N976 N 0.56745 0.1146 0.29474 0.0
N977 N 0.54801 0.13687 0.22805 0.0
H978 H 0.46749 0.6105 0.31646 0.0
H979 H 0.41028 0.51514 0.17716 0.0
H980 H 0.50296 0.60644 0.23095 0.0
H981 H 0.37531 0.5184 0.26386 0.0
H982 H 0.44427 0.54888 0.196 0.0
H983 H 0.43336 0.57715 0.29708 0.0
C984 C 0.46807 0.6026 0.29356 0.0
C985 C 0.48807 0.61122 0.27528 0.0
C986 C 0.42917 0.54223 0.21092 0.0
C987 C 0.4491 0.57303 0.25296 0.0
C988 C 0.40977 0.52297 0.20017 0.0
C989 C 0.38997 0.51397 0.219 0.0
C990 C 0.42877 0.55258 0.24071 0.0
C991 C 0.39023 0.52478 0.24861 0.0
C992 C 0.44859 0.58355 0.28251 0.0
C993 C 0.48789 0.60034 0.2458 0.0
N994 N 0.40933 0.54352 0.25855 0.0
N995 N 0.46871 0.58179 0.23556 0.0
H996 H 0.88006 0.49383 0.22045 0.0
H997 H 0.85589 0.37009 0.2642 0.0
H998 H 0.8666 0.46685 0.31962 0.0
H999 H 0.88732 0.40427 0.17316 0.0
H1000 H 0.85591 0.40395 0.28327 0.0
H1001 H 0.8791 0.4596 0.20094 0.0
C1002 C 0.87688 0.48068 0.23809 0.0
C1003 C 0.87346 0.48316 0.27169 0.0
C1004 C 0.8628 0.40403 0.25913 0.0
C1005 C 0.8722 0.44398 0.24957 0.0
C1006 C 0.86273 0.38471 0.2482 0.0
C1007 C 0.87166 0.38443 0.2171 0.0
C1008 C 0.87166 0.42311 0.23865 0.0
C1009 C 0.88034 0.40382 0.19736 0.0
C1010 C 0.87638 0.46119 0.22697 0.0
C1011 C 0.86941 0.46563 0.29352 0.0
N1012 N 0.88007 0.42236 0.20844 0.0
N1013 N 0.86882 0.44674 0.28206 0.0
H1014 H 0.48618 0.86886 0.2733 0.0
H1015 H 0.38315 0.88645 0.2232 0.0
H1016 H 0.47309 0.88162 0.17346 0.0
H1017 H 0.39141 0.86599 0.32076 0.0
H1018 H 0.41658 0.88553 0.20486 0.0
H1019 H 0.45207 0.86861 0.29167 0.0
C1020 C 0.47612 0.87161 0.25527 0.0
C1021 C 0.48245 0.87528 0.22183 0.0
C1022 C 0.41107 0.88117 0.23026 0.0
C1023 C 0.44349 0.87505 0.2426 0.0
C1024 C 0.39198 0.88171 0.24073 0.0
C1025 C 0.38453 0.8763 0.27354 0.0
C1026 C 0.42287 0.8753 0.2528 0.0
C1027 C 0.39659 0.87026 0.29523 0.0
C1028 C 0.45664 0.87142 0.26574 0.0
C1029 C 0.46881 0.87872 0.19948 0.0
N1030 N 0.41522 0.87 0.2845 0.0
N1031 N 0.45001 0.87857 0.21028 0.0
H1032 H 0.60562 0.46972 0.17811 0.0
H1033 H 0.51218 0.41485 0.3204 0.0
H1034 H 0.60512 0.50542 0.26573 0.0
H1035 H 0.51065 0.38045 0.23018 0.0
H1036 H 0.54656 0.44803 0.30124 0.0
H1037 H 0.57127 0.43655 0.19734 0.0
C1038 C 0.5983 0.47054 0.20145 0.0
C1039 C 0.60821 0.49032 0.22038 0.0
C1040 C 0.5387 0.43324 0.28559 0.0
C1041 C 0.56888 0.45248 0.24251 0.0
C1042 C 0.51907 0.41431 0.29651 0.0
C1043 C 0.50857 0.3949 0.27683 0.0
C1044 C 0.54793 0.43274 0.25479 0.0
C1045 C 0.51821 0.39509 0.24612 0.0
C1046 C 0.57867 0.45162 0.21239 0.0
C1047 C 0.59802 0.49049 0.25039 0.0
N1048 N 0.53737 0.41371 0.23606 0.0
N1049 N 0.5789 0.47185 0.26053 0.0
H1050 H 0.10872 0.59127 0.17027 0.0
H1051 H 0.11407 0.52035 0.32378 0.0
H1052 H 0.12176 0.61594 0.27075 0.0
H1053 H 0.11297 0.50092 0.22189 0.0
H1054 H 0.11423 0.55427 0.30504 0.0
H1055 H 0.10765 0.55685 0.18892 0.0
C1056 C 0.11134 0.58942 0.19626 0.0
C1057 C 0.11537 0.60647 0.21901 0.0
C1058 C 0.11396 0.5426 0.28676 0.0
C1059 C 0.1141 0.56716 0.24053 0.0
C1060 C 0.11381 0.52321 0.29745 0.0
C1061 C 0.11354 0.50784 0.27433 0.0
C1062 C 0.1137 0.54659 0.2527 0.0
C1063 C 0.11323 0.51238 0.24053 0.0
C1064 C 0.11076 0.5698 0.20688 0.0
C1065 C 0.11866 0.60322 0.25238 0.0
N1066 N 0.1133 0.53134 0.23072 0.0
N1067 N 0.11791 0.58393 0.26215 0.0
H1068 H 0.48258 0.8925 0.8223 0.0
H1069 H 0.39111 0.85951 0.67806 0.0
H1070 H 0.48386 0.86065 0.73088 0.0
H1071 H 0.39147 0.89371 0.76787 0.0
H1072 H 0.42465 0.85906 0.6974 0.0
H1073 H 0.4488 0.89251 0.80318 0.0
C1074 C 0.47575 0.88552 0.79818 0.0
C1075 C 0.48602 0.87657 0.77812 0.0
C1076 C 0.41739 0.86665 0.7129 0.0
C1077 C 0.44736 0.87649 0.75607 0.0
C1078 C 0.39824 0.86688 0.70189 0.0
C1079 C 0.38852 0.87667 0.72141 0.0
C1080 C 0.42689 0.87625 0.74368 0.0
C1081 C 0.39844 0.886 0.75204 0.0
C1082 C 0.45646 0.88552 0.78727 0.0
C1083 C 0.47646 0.86773 0.74711 0.0
N1084 N 0.41708 0.88557 0.76223 0.0
N1085 N 0.45766 0.8679 0.73704 0.0
H1086 H 0.60859 0.50347 0.72546 0.0
H1087 H 0.51482 0.37656 0.76837 0.0
H1088 H 0.60982 0.46868 0.81371 0.0
H1089 H 0.5154 0.41042 0.67806 0.0
H1090 H 0.54936 0.41029 0.78581 0.0
H1091 H 0.57428 0.46961 0.70785 0.0
C1092 C 0.60166 0.48867 0.74108 0.0
C1093 C 0.61205 0.48886 0.77108 0.0
C1094 C 0.54194 0.41035 0.76218 0.0
C1095 C 0.57274 0.45008 0.75118 0.0
C1096 C 0.5222 0.39111 0.75225 0.0
C1097 C 0.51225 0.39071 0.72174 0.0
C1098 C 0.55176 0.42934 0.74146 0.0
C1099 C 0.52253 0.41002 0.70179 0.0
C1100 C 0.58206 0.46935 0.73104 0.0
C1101 C 0.60235 0.46924 0.79038 0.0
N1102 N 0.54172 0.42855 0.71201 0.0
N1103 N 0.58321 0.45065 0.78013 0.0
H1104 H 0.11913 0.61229 0.72337 0.0
H1105 H 0.13166 0.50582 0.7698 0.0
H1106 H 0.12463 0.5943 0.82389 0.0
H1107 H 0.11025 0.51539 0.6737 0.0
H1108 H 0.13222 0.53985 0.7894 0.0
H1109 H 0.1189 0.57844 0.70392 0.0
C1110 C 0.12031 0.60122 0.74134 0.0
C1111 C 0.12188 0.60607 0.77529 0.0
C1112 C 0.12738 0.53448 0.76404 0.0
C1113 C 0.12171 0.56739 0.75324 0.0
C1114 C 0.1271 0.51511 0.75283 0.0
C1115 C 0.12088 0.50779 0.72011 0.0
C1116 C 0.12157 0.54671 0.74226 0.0
C1117 C 0.11511 0.52042 0.69916 0.0
C1118 C 0.12012 0.58188 0.73024 0.0
C1119 C 0.12334 0.59114 0.7975 0.0
N1120 N 0.11566 0.5393 0.71056 0.0
N1121 N 0.12329 0.5725 0.78608 0.0
H1122 H 0.61236 0.11788 0.77595 0.0
H1123 H 0.49905 0.11728 0.72672 0.0
H1124 H 0.58893 0.11236 0.67536 0.0
H1125 H 0.51767 0.11324 0.82747 0.0
H1126 H 0.53253 0.11673 0.70737 0.0
H1127 H 0.57841 0.11748 0.79535 0.0
C1128 C 0.60005 0.11657 0.75796 0.0
C1129 C 0.60344 0.11516 0.72401 0.0
C1130 C 0.52927 0.11591 0.73371 0.0
C1131 C 0.56461 0.11476 0.74598 0.0
C1132 C 0.51018 0.11625 0.74476 0.0
C1133 C 0.50561 0.11531 0.77874 0.0
C1134 C 0.54397 0.11476 0.75682 0.0
C1135 C 0.52057 0.11397 0.80104 0.0
C1136 C 0.58066 0.11631 0.76904 0.0
C1137 C 0.58696 0.11347 0.70177 0.0
N1138 N 0.53912 0.11381 0.78969 0.0
N1139 N 0.56828 0.11338 0.71314 0.0
H1140 H 0.37148 0.52681 0.76234 0.0
H1141 H 0.50615 0.59739 0.76211 0.0
H1142 H 0.41283 0.50217 0.80445 0.0
H1143 H 0.46483 0.61399 0.70126 0.0
H1144 H 0.4721 0.56444 0.78288 0.0
H1145 H 0.40554 0.56101 0.74489 0.0
C1146 C 0.38774 0.52866 0.76806 0.0
C1147 C 0.38936 0.51162 0.78476 0.0
C1148 C 0.47049 0.57531 0.76501 0.0
C1149 C 0.42837 0.55068 0.7649 0.0
C1150 C 0.4899 0.59413 0.75321 0.0
C1151 C 0.48828 0.60837 0.72986 0.0
C1152 C 0.44931 0.57082 0.75357 0.0
C1153 C 0.46683 0.60338 0.71916 0.0
C1154 C 0.40717 0.54815 0.758 0.0
C1155 C 0.41084 0.51488 0.79153 0.0
N1156 N 0.44817 0.58502 0.73113 0.0
N1157 N 0.42952 0.53403 0.78157 0.0
H1158 H 0.87843 0.38037 0.71858 0.0
H1159 H 0.87751 0.49241 0.77013 0.0
H1160 H 0.88226 0.40224 0.81974 0.0
H1161 H 0.88635 0.47715 0.66951 0.0
H1162 H 0.87736 0.45845 0.78864 0.0
H1163 H 0.87947 0.41479 0.69985 0.0
C1164 C 0.8795 0.39243 0.73683 0.0
C1165 C 0.88025 0.38847 0.77075 0.0
C1166 C 0.87939 0.46255 0.76251 0.0
C1167 C 0.88136 0.42778 0.74957 0.0
C1168 C 0.87943 0.48191 0.75194 0.0
C1169 C 0.88194 0.48758 0.71825 0.0
C1170 C 0.8817 0.44866 0.73919 0.0
C1171 C 0.8844 0.47339 0.69574 0.0
C1172 C 0.88014 0.41208 0.72614 0.0
C1173 C 0.88167 0.40464 0.79335 0.0
N1174 N 0.88414 0.45453 0.7066 0.0
N1175 N 0.8821 0.42355 0.78236 0.0
loop_
_geom_bond_atom_site_label_1
_geom_bond_atom_site_label_2
_geom_bond_distance
_geom_bond_site_symmetry_2
_ccdc_geom_bond_type
In0 O1 2.294 . S
In0 O2 2.326 . S
In0 O6 2.266 . S
In0 O7 2.326 . S
In0 O8 2.266 . S
In0 O9 2.326 . S
In0 O11 2.294 . S
In0 O12 2.326 . S
O1 In0 2.294 . S
O1 C10 1.240 . S
O2 In0 2.326 . S
O2 C10 1.252 . S
C3 O6 1.252 . S
C3 O7 1.260 . S
C4 O11 1.240 . S
C4 O12 1.252 . S
C5 O8 1.252 . S
C5 O9 1.260 . S
O6 In0 2.266 . S
O6 C3 1.252 . S
O7 In0 2.326 . S
O7 C3 1.260 . S
O8 In0 2.266 . S
O8 C5 1.252 . S
O9 In0 2.326 . S
O9 C5 1.260 . S
C10 O1 1.240 . S
C10 O2 1.252 . S
O11 In0 2.294 . S
O11 C4 1.240 . S
O12 In0 2.326 . S
O12 C4 1.252 . S
In13 O14 2.294 . S
In13 O15 2.326 . S
In13 O19 2.266 . S
In13 O20 2.326 . S
In13 O21 2.266 . S
In13 O22 2.326 . S
In13 O24 2.294 . S
In13 O25 2.326 . S
O14 In13 2.294 . S
O14 C23 1.240 . S
O15 In13 2.326 . S
O15 C23 1.252 . S
C16 O19 1.252 . S
C16 O20 1.260 . S
C17 O24 1.240 . S
C17 O25 1.252 . S
C18 O21 1.252 . S
C18 O22 1.260 . S
O19 In13 2.266 . S
O19 C16 1.252 . S
O20 In13 2.326 . S
O20 C16 1.260 . S
O21 In13 2.266 . S
O21 C18 1.252 . S
O22 In13 2.326 . S
O22 C18 1.260 . S
C23 O14 1.240 . S
C23 O15 1.252 . S
O24 In13 2.294 . S
O24 C17 1.240 . S
O25 In13 2.326 . S
O25 C17 1.252 . S
In26 O27 2.294 . S
In26 O28 2.326 . S
In26 O32 2.266 . S
In26 O33 2.326 . S
In26 O34 2.266 . S
In26 O35 2.326 . S
In26 O37 2.294 . S
In26 O38 2.326 . S
O27 In26 2.294 . S
O27 C36 1.240 . S
O28 In26 2.326 . S
O28 C36 1.252 . S
C29 O32 1.252 . S
C29 O33 1.260 . S
C30 O37 1.240 . S
C30 O38 1.252 . S
C31 O34 1.252 . S
C31 O35 1.260 . S
O32 In26 2.266 . S
O32 C29 1.252 . S
O33 In26 2.326 . S
O33 C29 1.260 . S
O34 In26 2.266 . S
O34 C31 1.252 . S
O35 In26 2.326 . S
O35 C31 1.260 . S
C36 O27 1.240 . S
C36 O28 1.252 . S
O37 In26 2.294 . S
O37 C30 1.240 . S
O38 In26 2.326 . S
O38 C30 1.252 . S
In39 O40 2.294 . S
In39 O41 2.326 . S
In39 O45 2.266 . S
In39 O46 2.326 . S
In39 O47 2.266 . S
In39 O48 2.326 . S
In39 O50 2.294 . S
In39 O51 2.326 . S
O40 In39 2.294 . S
O40 C49 1.240 . S
O41 In39 2.326 . S
O41 C49 1.252 . S
C42 O45 1.252 . S
C42 O46 1.260 . S
C43 O50 1.240 . S
C43 O51 1.252 . S
C44 O47 1.252 . S
C44 O48 1.260 . S
O45 In39 2.266 . S
O45 C42 1.252 . S
O46 In39 2.326 . S
O46 C42 1.260 . S
O47 In39 2.266 . S
O47 C44 1.252 . S
O48 In39 2.326 . S
O48 C44 1.260 . S
C49 O40 1.240 . S
C49 O41 1.252 . S
O50 In39 2.294 . S
O50 C43 1.240 . S
O51 In39 2.326 . S
O51 C43 1.252 . S
In52 O53 2.294 . S
In52 O54 2.326 . S
In52 O58 2.266 . S
In52 O59 2.326 . S
In52 O60 2.266 . S
In52 O61 2.326 . S
In52 O63 2.294 . S
In52 O64 2.326 . S
O53 In52 2.294 . S
O53 C62 1.240 . S
O54 In52 2.326 . S
O54 C62 1.252 . S
C55 O58 1.252 . S
C55 O59 1.260 . S
C56 O63 1.240 . S
C56 O64 1.252 . S
C57 O60 1.252 . S
C57 O61 1.260 . S
O58 In52 2.266 . S
O58 C55 1.252 . S
O59 In52 2.326 . S
O59 C55 1.260 . S
O60 In52 2.266 . S
O60 C57 1.252 . S
O61 In52 2.326 . S
O61 C57 1.260 . S
C62 O53 1.240 . S
C62 O54 1.252 . S
O63 In52 2.294 . S
O63 C56 1.240 . S
O64 In52 2.326 . S
O64 C56 1.252 . S
In65 O66 2.294 . S
In65 O67 2.326 . S
In65 O71 2.266 . S
In65 O72 2.326 . S
In65 O73 2.266 . S
In65 O74 2.326 . S
In65 O76 2.294 . S
In65 O77 2.326 . S
O66 In65 2.294 . S
O66 C75 1.240 . S
O67 In65 2.326 . S
O67 C75 1.252 . S
C68 O71 1.252 . S
C68 O72 1.260 . S
C69 O76 1.240 . S
C69 O77 1.252 . S
C70 O73 1.252 . S
C70 O74 1.260 . S
O71 In65 2.266 . S
O71 C68 1.252 . S
O72 In65 2.326 . S
O72 C68 1.260 . S
O73 In65 2.266 . S
O73 C70 1.252 . S
O74 In65 2.326 . S
O74 C70 1.260 . S
C75 O66 1.240 . S
C75 O67 1.252 . S
O76 In65 2.294 . S
O76 C69 1.240 . S
O77 In65 2.326 . S
O77 C69 1.252 . S
In78 O79 2.294 . S
In78 O80 2.326 . S
In78 O84 2.266 . S
In78 O85 2.326 . S
In78 O86 2.266 . S
In78 O87 2.326 . S
In78 O89 2.294 . S
In78 O90 2.326 . S
O79 In78 2.294 . S
O79 C88 1.240 . S
O80 In78 2.326 . S
O80 C88 1.252 . S
C81 O84 1.252 . S
C81 O85 1.260 . S
C82 O89 1.240 . S
C82 O90 1.252 . S
C83 O86 1.252 . S
C83 O87 1.260 . S
O84 In78 2.266 . S
O84 C81 1.252 . S
O85 In78 2.326 . S
O85 C81 1.260 . S
O86 In78 2.266 . S
O86 C83 1.252 . S
O87 In78 2.326 . S
O87 C83 1.260 . S
C88 O79 1.240 . S
C88 O80 1.252 . S
O89 In78 2.294 . S
O89 C82 1.240 . S
O90 In78 2.326 . S
O90 C82 1.252 . S
In91 O92 2.294 . S
In91 O93 2.326 . S
In91 O97 2.266 . S
In91 O98 2.326 . S
In91 O99 2.266 . S
In91 O100 2.326 . S
In91 O102 2.294 . S
In91 O103 2.326 . S
O92 In91 2.294 . S
O92 C101 1.240 . S
O93 In91 2.326 . S
O93 C101 1.252 . S
C94 O97 1.252 . S
C94 O98 1.260 . S
C95 O102 1.240 . S
C95 O103 1.252 . S
C96 O99 1.252 . S
C96 O100 1.260 . S
O97 In91 2.266 . S
O97 C94 1.252 . S
O98 In91 2.326 . S
O98 C94 1.260 . S
O99 In91 2.266 . S
O99 C96 1.252 . S
O100 In91 2.326 . S
O100 C96 1.260 . S
C101 O92 1.240 . S
C101 O93 1.252 . S
O102 In91 2.294 . S
O102 C95 1.240 . S
O103 In91 2.326 . S
O103 C95 1.252 . S
In104 O105 2.294 . S
In104 O106 2.326 . S
In104 O110 2.266 . S
In104 O111 2.326 . S
In104 O112 2.266 . S
In104 O113 2.326 . S
In104 O115 2.294 . S
In104 O116 2.326 . S
O105 In104 2.294 . S
O105 C114 1.240 . S
O106 In104 2.326 . S
O106 C114 1.252 . S
C107 O110 1.252 . S
C107 O111 1.260 . S
C108 O115 1.240 . S
C108 O116 1.252 . S
C109 O112 1.252 . S
C109 O113 1.260 . S
O110 In104 2.266 . S
O110 C107 1.252 . S
O111 In104 2.326 . S
O111 C107 1.260 . S
O112 In104 2.266 . S
O112 C109 1.252 . S
O113 In104 2.326 . S
O113 C109 1.260 . S
C114 O105 1.240 . S
C114 O106 1.252 . S
O115 In104 2.294 . S
O115 C108 1.240 . S
O116 In104 2.326 . S
O116 C108 1.252 . S
In117 O118 2.294 . S
In117 O119 2.326 . S
In117 O123 2.266 . S
In117 O124 2.326 . S
In117 O125 2.266 . S
In117 O126 2.326 . S
In117 O128 2.294 . S
In117 O129 2.326 . S
O118 In117 2.294 . S
O118 C127 1.240 . S
O119 In117 2.326 . S
O119 C127 1.252 . S
C120 O123 1.252 . S
C120 O124 1.260 . S
C121 O128 1.240 . S
C121 O129 1.252 . S
C122 O125 1.252 . S
C122 O126 1.260 . S
O123 In117 2.266 . S
O123 C120 1.252 . S
O124 In117 2.326 . S
O124 C120 1.260 . S
O125 In117 2.266 . S
O125 C122 1.252 . S
O126 In117 2.326 . S
O126 C122 1.260 . S
C127 O118 1.240 . S
C127 O119 1.252 . S
O128 In117 2.294 . S
O128 C121 1.240 . S
O129 In117 2.326 . S
O129 C121 1.252 . S
In130 O131 2.294 . S
In130 O132 2.326 . S
In130 O136 2.266 . S
In130 O137 2.326 . S
In130 O138 2.266 . S
In130 O139 2.326 . S
In130 O141 2.294 . S
In130 O142 2.326 . S
O131 In130 2.294 . S
O131 C140 1.240 . S
O132 In130 2.326 . S
O132 C140 1.252 . S
C133 O136 1.252 . S
C133 O137 1.260 . S
C134 O141 1.240 . S
C134 O142 1.252 . S
C135 O138 1.252 . S
C135 O139 1.260 . S
O136 In130 2.266 . S
O136 C133 1.252 . S
O137 In130 2.326 . S
O137 C133 1.260 . S
O138 In130 2.266 . S
O138 C135 1.252 . S
O139 In130 2.326 . S
O139 C135 1.260 . S
C140 O131 1.240 . S
C140 O132 1.252 . S
O141 In130 2.294 . S
O141 C134 1.240 . S
O142 In130 2.326 . S
O142 C134 1.252 . S
In143 O144 2.294 . S
In143 O145 2.326 . S
In143 O149 2.266 . S
In143 O150 2.326 . S
In143 O151 2.266 . S
In143 O152 2.326 . S
In143 O154 2.294 . S
In143 O155 2.326 . S
O144 In143 2.294 . S
O144 C153 1.240 . S
O145 In143 2.326 . S
O145 C153 1.252 . S
C146 O149 1.252 . S
C146 O150 1.260 . S
C147 O154 1.240 . S
C147 O155 1.252 . S
C148 O151 1.252 . S
C148 O152 1.260 . S
O149 In143 2.266 . S
O149 C146 1.252 . S
O150 In143 2.326 . S
O150 C146 1.260 . S
O151 In143 2.266 . S
O151 C148 1.252 . S
O152 In143 2.326 . S
O152 C148 1.260 . S
C153 O144 1.240 . S
C153 O145 1.252 . S
O154 In143 2.294 . S
O154 C147 1.240 . S
O155 In143 2.326 . S
O155 C147 1.252 . S
In156 O157 2.294 . S
In156 O158 2.326 . S
In156 O162 2.266 . S
In156 O163 2.326 . S
In156 O164 2.266 . S
In156 O165 2.326 . S
In156 O167 2.294 . S
In156 O168 2.326 . S
O157 In156 2.294 . S
O157 C166 1.240 . S
O158 In156 2.326 . S
O158 C166 1.252 . S
C159 O162 1.252 . S
C159 O163 1.260 . S
C160 O167 1.240 . S
C160 O168 1.252 . S
C161 O164 1.252 . S
C161 O165 1.260 . S
O162 In156 2.266 . S
O162 C159 1.252 . S
O163 In156 2.326 . S
O163 C159 1.260 . S
O164 In156 2.266 . S
O164 C161 1.252 . S
O165 In156 2.326 . S
O165 C161 1.260 . S
C166 O157 1.240 . S
C166 O158 1.252 . S
O167 In156 2.294 . S
O167 C160 1.240 . S
O168 In156 2.326 . S
O168 C160 1.252 . S
In169 O170 2.294 . S
In169 O171 2.326 . S
In169 O175 2.266 . S
In169 O176 2.326 . S
In169 O177 2.266 . S
In169 O178 2.326 . S
In169 O180 2.294 . S
In169 O181 2.326 . S
O170 In169 2.294 . S
O170 C179 1.240 . S
O171 In169 2.326 . S
O171 C179 1.252 . S
C172 O175 1.252 . S
C172 O176 1.260 . S
C173 O180 1.240 . S
C173 O181 1.252 . S
C174 O177 1.252 . S
C174 O178 1.260 . S
O175 In169 2.266 . S
O175 C172 1.252 . S
O176 In169 2.326 . S
O176 C172 1.260 . S
O177 In169 2.266 . S
O177 C174 1.252 . S
O178 In169 2.326 . S
O178 C174 1.260 . S
C179 O170 1.240 . S
C179 O171 1.252 . S
O180 In169 2.294 . S
O180 C173 1.240 . S
O181 In169 2.326 . S
O181 C173 1.252 . S
In182 O183 2.294 . S
In182 O184 2.326 . S
In182 O188 2.266 . S
In182 O189 2.326 . S
In182 O190 2.266 . S
In182 O191 2.326 . S
In182 O193 2.294 . S
In182 O194 2.326 . S
O183 In182 2.294 . S
O183 C192 1.240 . S
O184 In182 2.326 . S
O184 C192 1.252 . S
C185 O188 1.252 . S
C185 O189 1.260 . S
C186 O193 1.240 . S
C186 O194 1.252 . S
C187 O190 1.252 . S
C187 O191 1.260 . S
O188 In182 2.266 . S
O188 C185 1.252 . S
O189 In182 2.326 . S
O189 C185 1.260 . S
O190 In182 2.266 . S
O190 C187 1.252 . S
O191 In182 2.326 . S
O191 C187 1.260 . S
C192 O183 1.240 . S
C192 O184 1.252 . S
O193 In182 2.294 . S
O193 C186 1.240 . S
O194 In182 2.326 . S
O194 C186 1.252 . S
In195 O196 2.294 . S
In195 O197 2.326 . S
In195 O201 2.266 . S
In195 O202 2.326 . S
In195 O203 2.266 . S
In195 O204 2.326 . S
In195 O206 2.294 . S
In195 O207 2.326 . S
O196 In195 2.294 . S
O196 C205 1.240 . S
O197 In195 2.326 . S
O197 C205 1.252 . S
C198 O201 1.252 . S
C198 O202 1.260 . S
C199 O206 1.240 . S
C199 O207 1.252 . S
C200 O203 1.252 . S
C200 O204 1.260 . S
O201 In195 2.266 . S
O201 C198 1.252 . S
O202 In195 2.326 . S
O202 C198 1.260 . S
O203 In195 2.266 . S
O203 C200 1.252 . S
O204 In195 2.326 . S
O204 C200 1.260 . S
C205 O196 1.240 . S
C205 O197 1.252 . S
O206 In195 2.294 . S
O206 C199 1.240 . S
O207 In195 2.326 . S
O207 C199 1.252 . S
In208 O209 2.294 . S
In208 O210 2.326 . S
In208 O214 2.266 . S
In208 O215 2.326 . S
In208 O216 2.266 . S
In208 O217 2.326 . S
In208 O219 2.294 . S
In208 O220 2.326 . S
O209 In208 2.294 . S
O209 C218 1.240 . S
O210 In208 2.326 . S
O210 C218 1.252 . S
C211 O214 1.252 . S
C211 O215 1.260 . S
C212 O219 1.240 . S
C212 O220 1.252 . S
C213 O216 1.252 . S
C213 O217 1.260 . S
O214 In208 2.266 . S
O214 C211 1.252 . S
O215 In208 2.326 . S
O215 C211 1.260 . S
O216 In208 2.266 . S
O216 C213 1.252 . S
O217 In208 2.326 . S
O217 C213 1.260 . S
C218 O209 1.240 . S
C218 O210 1.252 . S
O219 In208 2.294 . S
O219 C212 1.240 . S
O220 In208 2.326 . S
O220 C212 1.252 . S
In221 O222 2.294 . S
In221 O223 2.326 . S
In221 O227 2.266 . S
In221 O228 2.326 . S
In221 O229 2.266 . S
In221 O230 2.326 . S
In221 O232 2.294 . S
In221 O233 2.326 . S
O222 In221 2.294 . S
O222 C231 1.240 . S
O223 In221 2.326 . S
O223 C231 1.252 . S
C224 O227 1.252 . S
C224 O228 1.260 . S
C225 O232 1.240 . S
C225 O233 1.252 . S
C226 O229 1.252 . S
C226 O230 1.260 . S
O227 In221 2.266 . S
O227 C224 1.252 . S
O228 In221 2.326 . S
O228 C224 1.260 . S
O229 In221 2.266 . S
O229 C226 1.252 . S
O230 In221 2.326 . S
O230 C226 1.260 . S
C231 O222 1.240 . S
C231 O223 1.252 . S
O232 In221 2.294 . S
O232 C225 1.240 . S
O233 In221 2.326 . S
O233 C225 1.252 . S
In234 O235 2.294 . S
In234 O236 2.326 . S
In234 O240 2.266 . S
In234 O241 2.326 . S
In234 O242 2.266 . S
In234 O243 2.326 . S
In234 O245 2.294 . S
In234 O246 2.326 . S
O235 In234 2.294 . S
O235 C244 1.240 . S
O236 In234 2.326 . S
O236 C244 1.252 . S
C237 O240 1.252 . S
C237 O241 1.260 . S
C238 O245 1.240 . S
C238 O246 1.252 . S
C239 O242 1.252 . S
C239 O243 1.260 . S
O240 In234 2.266 . S
O240 C237 1.252 . S
O241 In234 2.326 . S
O241 C237 1.260 . S
O242 In234 2.266 . S
O242 C239 1.252 . S
O243 In234 2.326 . S
O243 C239 1.260 . S
C244 O235 1.240 . S
C244 O236 1.252 . S
O245 In234 2.294 . S
O245 C238 1.240 . S
O246 In234 2.326 . S
O246 C238 1.252 . S
In247 O248 2.294 . S
In247 O249 2.326 . S
In247 O253 2.266 . S
In247 O254 2.326 . S
In247 O255 2.266 . S
In247 O256 2.326 . S
In247 O258 2.294 . S
In247 O259 2.326 . S
O248 In247 2.294 . S
O248 C257 1.240 . S
O249 In247 2.326 . S
O249 C257 1.252 . S
C250 O253 1.252 . S
C250 O254 1.260 . S
C251 O258 1.240 . S
C251 O259 1.252 . S
C252 O255 1.252 . S
C252 O256 1.260 . S
O253 In247 2.266 . S
O253 C250 1.252 . S
O254 In247 2.326 . S
O254 C250 1.260 . S
O255 In247 2.266 . S
O255 C252 1.252 . S
O256 In247 2.326 . S
O256 C252 1.260 . S
C257 O248 1.240 . S
C257 O249 1.252 . S
O258 In247 2.294 . S
O258 C251 1.240 . S
O259 In247 2.326 . S
O259 C251 1.252 . S
In260 O261 2.294 . S
In260 O262 2.326 . S
In260 O266 2.266 . S
In260 O267 2.326 . S
In260 O268 2.266 . S
In260 O269 2.326 . S
In260 O271 2.294 . S
In260 O272 2.326 . S
O261 In260 2.294 . S
O261 C270 1.240 . S
O262 In260 2.326 . S
O262 C270 1.252 . S
C263 O266 1.252 . S
C263 O267 1.260 . S
C264 O271 1.240 . S
C264 O272 1.252 . S
C265 O268 1.252 . S
C265 O269 1.260 . S
O266 In260 2.266 . S
O266 C263 1.252 . S
O267 In260 2.326 . S
O267 C263 1.260 . S
O268 In260 2.266 . S
O268 C265 1.252 . S
O269 In260 2.326 . S
O269 C265 1.260 . S
C270 O261 1.240 . S
C270 O262 1.252 . S
O271 In260 2.294 . S
O271 C264 1.240 . S
O272 In260 2.326 . S
O272 C264 1.252 . S
In273 O274 2.294 . S
In273 O275 2.326 . S
In273 O279 2.266 . S
In273 O280 2.326 . S
In273 O281 2.266 . S
In273 O282 2.326 . S
In273 O284 2.294 . S
In273 O285 2.326 . S
O274 In273 2.294 . S
O274 C283 1.240 . S
O275 In273 2.326 . S
O275 C283 1.252 . S
C276 O279 1.252 . S
C276 O280 1.260 . S
C277 O284 1.240 . S
C277 O285 1.252 . S
C278 O281 1.252 . S
C278 O282 1.260 . S
O279 In273 2.266 . S
O279 C276 1.252 . S
O280 In273 2.326 . S
O280 C276 1.260 . S
O281 In273 2.266 . S
O281 C278 1.252 . S
O282 In273 2.326 . S
O282 C278 1.260 . S
C283 O274 1.240 . S
C283 O275 1.252 . S
O284 In273 2.294 . S
O284 C277 1.240 . S
O285 In273 2.326 . S
O285 C277 1.252 . S
In286 O287 2.294 . S
In286 O288 2.326 . S
In286 O292 2.266 . S
In286 O293 2.326 . S
In286 O294 2.266 . S
In286 O295 2.326 . S
In286 O297 2.294 . S
In286 O298 2.326 . S
O287 In286 2.294 . S
O287 C296 1.240 . S
O288 In286 2.326 . S
O288 C296 1.252 . S
C289 O292 1.252 . S
C289 O293 1.260 . S
C290 O297 1.240 . S
C290 O298 1.252 . S
C291 O294 1.252 . S
C291 O295 1.260 . S
O292 In286 2.266 . S
O292 C289 1.252 . S
O293 In286 2.326 . S
O293 C289 1.260 . S
O294 In286 2.266 . S
O294 C291 1.252 . S
O295 In286 2.326 . S
O295 C291 1.260 . S
C296 O287 1.240 . S
C296 O288 1.252 . S
O297 In286 2.294 . S
O297 C290 1.240 . S
O298 In286 2.326 . S
O298 C290 1.252 . S
In299 O300 2.294 . S
In299 O301 2.326 . S
In299 O305 2.266 . S
In299 O306 2.326 . S
In299 O307 2.266 . S
In299 O308 2.326 . S
In299 O310 2.294 . S
In299 O311 2.326 . S
O300 In299 2.294 . S
O300 C309 1.240 . S
O301 In299 2.326 . S
O301 C309 1.252 . S
C302 O305 1.252 . S
C302 O306 1.260 . S
C303 O310 1.240 . S
C303 O311 1.252 . S
C304 O307 1.252 . S
C304 O308 1.260 . S
O305 In299 2.266 . S
O305 C302 1.252 . S
O306 In299 2.326 . S
O306 C302 1.260 . S
O307 In299 2.266 . S
O307 C304 1.252 . S
O308 In299 2.326 . S
O308 C304 1.260 . S
C309 O300 1.240 . S
C309 O301 1.252 . S
O310 In299 2.294 . S
O310 C303 1.240 . S
O311 In299 2.326 . S
O311 C303 1.252 . S
H312 C318 0.930 . S
H313 C322 0.930 . S
H314 C327 0.929 . S
H315 C325 0.929 . S
H316 C320 0.929 . S
H317 C326 0.929 . S
C318 H312 0.930 . S
C318 C319 1.367 . S
C318 C326 1.378 . S
C319 C318 1.367 . S
C319 C327 1.433 . S
C320 H316 0.929 . S
C320 C322 1.378 . S
C320 C324 1.350 . S
C321 C324 1.463 1_545 S
C321 C326 1.350 . S
C321 N329 1.427 . S
C322 H313 0.930 . S
C322 C320 1.378 . S
C322 C323 1.367 . S
C323 C322 1.367 . S
C323 C325 1.433 . S
C324 C320 1.350 . S
C324 C321 1.463 1_565 S
C324 N328 1.427 . S
C325 H315 0.929 . S
C325 C323 1.433 . S
C325 N328 1.384 . S
C326 H317 0.929 . S
C326 C318 1.378 . S
C326 C321 1.350 . S
C327 H314 0.929 . S
C327 C319 1.433 . S
C327 N329 1.384 . S
N328 C324 1.427 . S
N328 C325 1.384 . S
N329 C321 1.427 . S
N329 C327 1.384 . S
H330 C336 0.930 . S
H331 C340 0.930 . S
H332 C345 0.929 . S
H333 C343 0.929 . S
H334 C338 0.929 . S
H335 C344 0.929 . S
C336 H330 0.930 . S
C336 C337 1.367 . S
C336 C344 1.378 . S
C337 C336 1.367 . S
C337 C345 1.433 . S
C338 H334 0.929 . S
C338 C340 1.378 . S
C338 C342 1.350 . S
C339 C342 1.463 . S
C339 C344 1.350 . S
C339 N347 1.427 . S
C340 H331 0.930 . S
C340 C338 1.378 . S
C340 C341 1.367 . S
C341 C340 1.367 . S
C341 C343 1.433 . S
C342 C338 1.350 . S
C342 C339 1.463 . S
C342 N346 1.427 . S
C343 H333 0.929 . S
C343 C341 1.433 . S
C343 N346 1.384 . S
C344 H335 0.929 . S
C344 C336 1.378 . S
C344 C339 1.350 . S
C345 H332 0.929 . S
C345 C337 1.433 . S
C345 N347 1.384 . S
N346 C342 1.427 . S
N346 C343 1.384 . S
N347 C339 1.427 . S
N347 C345 1.384 . S
H348 C354 0.930 . S
H349 C358 0.930 . S
H350 C363 0.929 . S
H351 C361 0.929 . S
H352 C356 0.929 . S
H353 C362 0.929 . S
C354 H348 0.930 . S
C354 C355 1.367 . S
C354 C362 1.378 . S
C355 C354 1.367 . S
C355 C363 1.433 . S
C356 H352 0.929 . S
C356 C358 1.378 . S
C356 C360 1.350 . S
C357 C360 1.463 1_655 S
C357 C362 1.350 . S
C357 N365 1.427 . S
C358 H349 0.930 . S
C358 C356 1.378 . S
C358 C359 1.367 . S
C359 C358 1.367 . S
C359 C361 1.433 . S
C360 C356 1.350 . S
C360 C357 1.463 1_455 S
C360 N364 1.427 . S
C361 H351 0.929 . S
C361 C359 1.433 . S
C361 N364 1.384 . S
C362 H353 0.929 . S
C362 C354 1.378 . S
C362 C357 1.350 . S
C363 H350 0.929 . S
C363 C355 1.433 . S
C363 N365 1.384 . S
N364 C360 1.427 . S
N364 C361 1.384 . S
N365 C357 1.427 . S
N365 C363 1.384 . S
H366 C372 0.930 . S
H367 C376 0.930 . S
H368 C381 0.929 . S
H369 C379 0.929 . S
H370 C374 0.929 . S
H371 C380 0.929 . S
C372 H366 0.930 . S
C372 C373 1.367 . S
C372 C380 1.378 . S
C373 C372 1.367 . S
C373 C381 1.433 . S
C374 H370 0.929 . S
C374 C376 1.378 . S
C374 C378 1.350 . S
C375 C378 1.463 1_565 S
C375 C380 1.350 . S
C375 N383 1.427 . S
C376 H367 0.930 . S
C376 C374 1.378 . S
C376 C377 1.367 . S
C377 C376 1.367 . S
C377 C379 1.433 . S
C378 C374 1.350 . S
C378 C375 1.463 1_545 S
C378 N382 1.427 . S
C379 H369 0.929 . S
C379 C377 1.433 . S
C379 N382 1.384 . S
C380 H371 0.929 . S
C380 C372 1.378 . S
C380 C375 1.350 . S
C381 H368 0.929 . S
C381 C373 1.433 . S
C381 N383 1.384 . S
N382 C378 1.427 . S
N382 C379 1.384 . S
N383 C375 1.427 . S
N383 C381 1.384 . S
H384 C390 0.930 . S
H385 C394 0.930 . S
H386 C399 0.929 . S
H387 C397 0.929 . S
H388 C392 0.929 . S
H389 C398 0.929 . S
C390 H384 0.930 . S
C390 C391 1.367 . S
C390 C398 1.378 . S
C391 C390 1.367 . S
C391 C399 1.433 . S
C392 H388 0.929 . S
C392 C394 1.378 . S
C392 C396 1.350 . S
C393 C396 1.463 . S
C393 C398 1.350 . S
C393 N401 1.427 . S
C394 H385 0.930 . S
C394 C392 1.378 . S
C394 C395 1.367 . S
C395 C394 1.367 . S
C395 C397 1.433 . S
C396 C392 1.350 . S
C396 C393 1.463 . S
C396 N400 1.427 . S
C397 H387 0.929 . S
C397 C395 1.433 . S
C397 N400 1.384 . S
C398 H389 0.929 . S
C398 C390 1.378 . S
C398 C393 1.350 . S
C399 H386 0.929 . S
C399 C391 1.433 . S
C399 N401 1.384 . S
N400 C396 1.427 . S
N400 C397 1.384 . S
N401 C393 1.427 . S
N401 C399 1.384 . S
H402 C408 0.930 . S
H403 C412 0.930 . S
H404 C417 0.929 . S
H405 C415 0.929 . S
H406 C410 0.929 . S
H407 C416 0.929 . S
C408 H402 0.930 . S
C408 C409 1.367 . S
C408 C416 1.378 . S
C409 C408 1.367 . S
C409 C417 1.433 . S
C410 H406 0.929 . S
C410 C412 1.378 . S
C410 C414 1.350 . S
C411 C414 1.463 1_455 S
C411 C416 1.350 . S
C411 N419 1.427 . S
C412 H403 0.930 . S
C412 C410 1.378 . S
C412 C413 1.367 . S
C413 C412 1.367 . S
C413 C415 1.433 . S
C414 C410 1.350 . S
C414 C411 1.463 1_655 S
C414 N418 1.427 . S
C415 H405 0.929 . S
C415 C413 1.433 . S
C415 N418 1.384 . S
C416 H407 0.929 . S
C416 C408 1.378 . S
C416 C411 1.350 . S
C417 H404 0.929 . S
C417 C409 1.433 . S
C417 N419 1.384 . S
N418 C414 1.427 . S
N418 C415 1.384 . S
N419 C411 1.427 . S
N419 C417 1.384 . S
H420 C426 0.930 . S
H421 C430 0.930 . S
H422 C435 0.929 . S
H423 C433 0.929 . S
H424 C428 0.929 . S
H425 C434 0.929 . S
C426 H420 0.930 . S
C426 C427 1.367 . S
C426 C434 1.378 . S
C427 C426 1.367 . S
C427 C435 1.433 . S
C428 H424 0.929 . S
C428 C430 1.378 . S
C428 C432 1.350 . S
C429 C432 1.463 1_565 S
C429 C434 1.350 . S
C429 N437 1.427 . S
C430 H421 0.930 . S
C430 C428 1.378 . S
C430 C431 1.367 . S
C431 C430 1.367 . S
C431 C433 1.433 . S
C432 C428 1.350 . S
C432 C429 1.463 1_545 S
C432 N436 1.427 . S
C433 H423 0.929 . S
C433 C431 1.433 . S
C433 N436 1.384 . S
C434 H425 0.929 . S
C434 C426 1.378 . S
C434 C429 1.350 . S
C435 H422 0.929 . S
C435 C427 1.433 . S
C435 N437 1.384 . S
N436 C432 1.427 . S
N436 C433 1.384 . S
N437 C429 1.427 . S
N437 C435 1.384 . S
H438 C444 0.930 . S
H439 C448 0.930 . S
H440 C453 0.929 . S
H441 C451 0.929 . S
H442 C446 0.929 . S
H443 C452 0.929 . S
C444 H438 0.930 . S
C444 C445 1.367 . S
C444 C452 1.378 . S
C445 C444 1.367 . S
C445 C453 1.433 . S
C446 H442 0.929 . S
C446 C448 1.378 . S
C446 C450 1.350 . S
C447 C450 1.463 . S
C447 C452 1.350 . S
C447 N455 1.427 . S
C448 H439 0.930 . S
C448 C446 1.378 . S
C448 C449 1.367 . S
C449 C448 1.367 . S
C449 C451 1.433 . S
C450 C446 1.350 . S
C450 C447 1.463 . S
C450 N454 1.427 . S
C451 H441 0.929 . S
C451 C449 1.433 . S
C451 N454 1.384 . S
C452 H443 0.929 . S
C452 C444 1.378 . S
C452 C447 1.350 . S
C453 H440 0.929 . S
C453 C445 1.433 . S
C453 N455 1.384 . S
N454 C450 1.427 . S
N454 C451 1.384 . S
N455 C447 1.427 . S
N455 C453 1.384 . S
H456 C462 0.930 . S
H457 C466 0.930 . S
H458 C471 0.929 . S
H459 C469 0.929 . S
H460 C464 0.929 . S
H461 C470 0.929 . S
C462 H456 0.930 . S
C462 C463 1.367 . S
C462 C470 1.378 . S
C463 C462 1.367 . S
C463 C471 1.433 . S
C464 H460 0.929 . S
C464 C466 1.378 . S
C464 C468 1.350 . S
C465 C468 1.463 1_655 S
C465 C470 1.350 . S
C465 N473 1.427 . S
C466 H457 0.930 . S
C466 C464 1.378 . S
C466 C467 1.367 . S
C467 C466 1.367 . S
C467 C469 1.433 . S
C468 C464 1.350 . S
C468 C465 1.463 1_455 S
C468 N472 1.427 . S
C469 H459 0.929 . S
C469 C467 1.433 . S
C469 N472 1.384 . S
C470 H461 0.929 . S
C470 C462 1.378 . S
C470 C465 1.350 . S
C471 H458 0.929 . S
C471 C463 1.433 . S
C471 N473 1.384 . S
N472 C468 1.427 . S
N472 C469 1.384 . S
N473 C465 1.427 . S
N473 C471 1.384 . S
H474 C480 0.930 . S
H475 C484 0.930 . S
H476 C489 0.929 . S
H477 C487 0.929 . S
H478 C482 0.929 . S
H479 C488 0.929 . S
C480 H474 0.930 . S
C480 C481 1.367 . S
C480 C488 1.378 . S
C481 C480 1.367 . S
C481 C489 1.433 . S
C482 H478 0.929 . S
C482 C484 1.378 . S
C482 C486 1.350 . S
C483 C486 1.463 1_545 S
C483 C488 1.350 . S
C483 N491 1.427 . S
C484 H475 0.930 . S
C484 C482 1.378 . S
C484 C485 1.367 . S
C485 C484 1.367 . S
C485 C487 1.433 . S
C486 C482 1.350 . S
C486 C483 1.463 1_565 S
C486 N490 1.427 . S
C487 H477 0.929 . S
C487 C485 1.433 . S
C487 N490 1.384 . S
C488 H479 0.929 . S
C488 C480 1.378 . S
C488 C483 1.350 . S
C489 H476 0.929 . S
C489 C481 1.433 . S
C489 N491 1.384 . S
N490 C486 1.427 . S
N490 C487 1.384 . S
N491 C483 1.427 . S
N491 C489 1.384 . S
H492 C498 0.930 . S
H493 C502 0.930 . S
H494 C507 0.929 . S
H495 C505 0.929 . S
H496 C500 0.929 . S
H497 C506 0.929 . S
C498 H492 0.930 . S
C498 C499 1.367 . S
C498 C506 1.378 . S
C499 C498 1.367 . S
C499 C507 1.433 . S
C500 H496 0.929 . S
C500 C502 1.378 . S
C500 C504 1.350 . S
C501 C504 1.463 . S
C501 C506 1.350 . S
C501 N509 1.427 . S
C502 H493 0.930 . S
C502 C500 1.378 . S
C502 C503 1.367 . S
C503 C502 1.367 . S
C503 C505 1.433 . S
C504 C500 1.350 . S
C504 C501 1.463 . S
C504 N508 1.427 . S
C505 H495 0.929 . S
C505 C503 1.433 . S
C505 N508 1.384 . S
C506 H497 0.929 . S
C506 C498 1.378 . S
C506 C501 1.350 . S
C507 H494 0.929 . S
C507 C499 1.433 . S
C507 N509 1.384 . S
N508 C504 1.427 . S
N508 C505 1.384 . S
N509 C501 1.427 . S
N509 C507 1.384 . S
H510 C516 0.930 . S
H511 C520 0.930 . S
H512 C525 0.929 . S
H513 C523 0.929 . S
H514 C518 0.929 . S
H515 C524 0.929 . S
C516 H510 0.930 . S
C516 C517 1.367 . S
C516 C524 1.378 . S
C517 C516 1.367 . S
C517 C525 1.433 . S
C518 H514 0.929 . S
C518 C520 1.378 . S
C518 C522 1.350 . S
C519 C522 1.463 1_455 S
C519 C524 1.350 . S
C519 N527 1.427 . S
C520 H511 0.930 . S
C520 C518 1.378 . S
C520 C521 1.367 . S
C521 C520 1.367 . S
C521 C523 1.433 . S
C522 C518 1.350 . S
C522 C519 1.463 1_655 S
C522 N526 1.427 . S
C523 H513 0.929 . S
C523 C521 1.433 . S
C523 N526 1.384 . S
C524 H515 0.929 . S
C524 C516 1.378 . S
C524 C519 1.350 . S
C525 H512 0.929 . S
C525 C517 1.433 . S
C525 N527 1.384 . S
N526 C522 1.427 . S
N526 C523 1.384 . S
N527 C519 1.427 . S
N527 C525 1.384 . S
H528 C534 0.930 . S
H529 C538 0.930 . S
H530 C543 0.929 . S
H531 C541 0.929 . S
H532 C536 0.929 . S
H533 C542 0.929 . S
C534 H528 0.930 . S
C534 C535 1.367 . S
C534 C542 1.378 . S
C535 C534 1.367 . S
C535 C543 1.433 . S
C536 H532 0.929 . S
C536 C538 1.378 . S
C536 C540 1.350 . S
C537 C540 1.463 . S
C537 C542 1.350 . S
C537 N545 1.427 . S
C538 H529 0.930 . S
C538 C536 1.378 . S
C538 C539 1.367 . S
C539 C538 1.367 . S
C539 C541 1.433 . S
C540 C536 1.350 . S
C540 C537 1.463 . S
C540 N544 1.427 . S
C541 H531 0.929 . S
C541 C539 1.433 . S
C541 N544 1.384 . S
C542 H533 0.929 . S
C542 C534 1.378 . S
C542 C537 1.350 . S
C543 H530 0.929 . S
C543 C535 1.433 . S
C543 N545 1.384 . S
N544 C540 1.427 . S
N544 C541 1.384 . S
N545 C537 1.427 . S
N545 C543 1.384 . S
H546 C552 0.930 . S
H547 C556 0.930 . S
H548 C561 0.929 . S
H549 C559 0.929 . S
H550 C554 0.929 . S
H551 C560 0.929 . S
C552 H546 0.930 . S
C552 C553 1.367 . S
C552 C560 1.378 . S
C553 C552 1.367 . S
C553 C561 1.433 . S
C554 H550 0.929 . S
C554 C556 1.378 . S
C554 C558 1.350 . S
C555 C558 1.463 . S
C555 C560 1.350 . S
C555 N563 1.427 . S
C556 H547 0.930 . S
C556 C554 1.378 . S
C556 C557 1.367 . S
C557 C556 1.367 . S
C557 C559 1.433 . S
C558 C554 1.350 . S
C558 C555 1.463 . S
C558 N562 1.427 . S
C559 H549 0.929 . S
C559 C557 1.433 . S
C559 N562 1.384 . S
C560 H551 0.929 . S
C560 C552 1.378 . S
C560 C555 1.350 . S
C561 H548 0.929 . S
C561 C553 1.433 . S
C561 N563 1.384 . S
N562 C558 1.427 . S
N562 C559 1.384 . S
N563 C555 1.427 . S
N563 C561 1.384 . S
H564 C570 0.930 . S
H565 C574 0.930 . S
H566 C579 0.929 . S
H567 C577 0.929 . S
H568 C572 0.929 . S
H569 C578 0.929 . S
C570 H564 0.930 . S
C570 C571 1.367 . S
C570 C578 1.378 . S
C571 C570 1.367 . S
C571 C579 1.433 . S
C572 H568 0.929 . S
C572 C574 1.378 . S
C572 C576 1.350 . S
C573 C576 1.463 . S
C573 C578 1.350 . S
C573 N581 1.427 . S
C574 H565 0.930 . S
C574 C572 1.378 . S
C574 C575 1.367 . S
C575 C574 1.367 . S
C575 C577 1.433 . S
C576 C572 1.350 . S
C576 C573 1.463 . S
C576 N580 1.427 . S
C577 H567 0.929 . S
C577 C575 1.433 . S
C577 N580 1.384 . S
C578 H569 0.929 . S
C578 C570 1.378 . S
C578 C573 1.350 . S
C579 H566 0.929 . S
C579 C571 1.433 . S
C579 N581 1.384 . S
N580 C576 1.427 . S
N580 C577 1.384 . S
N581 C573 1.427 . S
N581 C579 1.384 . S
H582 C588 0.930 . S
H583 C592 0.930 . S
H584 C597 0.929 . S
H585 C595 0.929 . S
H586 C590 0.929 . S
H587 C596 0.929 . S
C588 H582 0.930 . S
C588 C589 1.367 . S
C588 C596 1.378 . S
C589 C588 1.367 . S
C589 C597 1.433 . S
C590 H586 0.929 . S
C590 C592 1.378 . S
C590 C594 1.350 . S
C591 C594 1.463 . S
C591 C596 1.350 . S
C591 N599 1.427 . S
C592 H583 0.930 . S
C592 C590 1.378 . S
C592 C593 1.367 . S
C593 C592 1.367 . S
C593 C595 1.433 . S
C594 C590 1.350 . S
C594 C591 1.463 . S
C594 N598 1.427 . S
C595 H585 0.929 . S
C595 C593 1.433 . S
C595 N598 1.384 . S
C596 H587 0.929 . S
C596 C588 1.378 . S
C596 C591 1.350 . S
C597 H584 0.929 . S
C597 C589 1.433 . S
C597 N599 1.384 . S
N598 C594 1.427 . S
N598 C595 1.384 . S
N599 C591 1.427 . S
N599 C597 1.384 . S
H600 C606 0.930 . S
H601 C610 0.930 . S
H602 C615 0.929 . S
H603 C613 0.929 . S
H604 C608 0.929 . S
H605 C614 0.929 . S
C606 H600 0.930 . S
C606 C607 1.367 . S
C606 C614 1.378 . S
C607 C606 1.367 . S
C607 C615 1.433 . S
C608 H604 0.929 . S
C608 C610 1.378 . S
C608 C612 1.350 . S
C609 C612 1.463 . S
C609 C614 1.350 . S
C609 N617 1.427 . S
C610 H601 0.930 . S
C610 C608 1.378 . S
C610 C611 1.367 . S
C611 C610 1.367 . S
C611 C613 1.433 . S
C612 C608 1.350 . S
C612 C609 1.463 . S
C612 N616 1.427 . S
C613 H603 0.929 . S
C613 C611 1.433 . S
C613 N616 1.384 . S
C614 H605 0.929 . S
C614 C606 1.378 . S
C614 C609 1.350 . S
C615 H602 0.929 . S
C615 C607 1.433 . S
C615 N617 1.384 . S
N616 C612 1.427 . S
N616 C613 1.384 . S
N617 C609 1.427 . S
N617 C615 1.384 . S
H618 C624 0.930 . S
H619 C628 0.930 . S
H620 C633 0.929 . S
H621 C631 0.929 . S
H622 C626 0.929 . S
H623 C632 0.929 . S
C624 H618 0.930 . S
C624 C625 1.367 . S
C624 C632 1.378 . S
C625 C624 1.367 . S
C625 C633 1.433 . S
C626 H622 0.929 . S
C626 C628 1.378 . S
C626 C630 1.350 . S
C627 C630 1.463 . S
C627 C632 1.350 . S
C627 N635 1.427 . S
C628 H619 0.930 . S
C628 C626 1.378 . S
C628 C629 1.367 . S
C629 C628 1.367 . S
C629 C631 1.433 . S
C630 C626 1.350 . S
C630 C627 1.463 . S
C630 N634 1.427 . S
C631 H621 0.929 . S
C631 C629 1.433 . S
C631 N634 1.384 . S
C632 H623 0.929 . S
C632 C624 1.378 . S
C632 C627 1.350 . S
C633 H620 0.929 . S
C633 C625 1.433 . S
C633 N635 1.384 . S
N634 C630 1.427 . S
N634 C631 1.384 . S
N635 C627 1.427 . S
N635 C633 1.384 . S
H636 C642 0.930 . S
H637 C646 0.930 . S
H638 C651 0.929 . S
H639 C649 0.929 . S
H640 C644 0.929 . S
H641 C650 0.929 . S
C642 H636 0.930 . S
C642 C643 1.367 . S
C642 C650 1.378 . S
C643 C642 1.367 . S
C643 C651 1.433 . S
C644 H640 0.929 . S
C644 C646 1.378 . S
C644 C648 1.350 . S
C645 C648 1.463 . S
C645 C650 1.350 . S
C645 N653 1.427 . S
C646 H637 0.930 . S
C646 C644 1.378 . S
C646 C647 1.367 . S
C647 C646 1.367 . S
C647 C649 1.433 . S
C648 C644 1.350 . S
C648 C645 1.463 . S
C648 N652 1.427 . S
C649 H639 0.929 . S
C649 C647 1.433 . S
C649 N652 1.384 . S
C650 H641 0.929 . S
C650 C642 1.378 . S
C650 C645 1.350 . S
C651 H638 0.929 . S
C651 C643 1.433 . S
C651 N653 1.384 . S
N652 C648 1.427 . S
N652 C649 1.384 . S
N653 C645 1.427 . S
N653 C651 1.384 . S
H654 C660 0.930 . S
H655 C664 0.930 . S
H656 C669 0.929 . S
H657 C667 0.929 . S
H658 C662 0.929 . S
H659 C668 0.929 . S
C660 H654 0.930 . S
C660 C661 1.367 . S
C660 C668 1.378 . S
C661 C660 1.367 . S
C661 C669 1.433 . S
C662 H658 0.929 . S
C662 C664 1.378 . S
C662 C666 1.350 . S
C663 C666 1.463 . S
C663 C668 1.350 . S
C663 N671 1.427 . S
C664 H655 0.930 . S
C664 C662 1.378 . S
C664 C665 1.367 . S
C665 C664 1.367 . S
C665 C667 1.433 . S
C666 C662 1.350 . S
C666 C663 1.463 . S
C666 N670 1.427 . S
C667 H657 0.929 . S
C667 C665 1.433 . S
C667 N670 1.384 . S
C668 H659 0.929 . S
C668 C660 1.378 . S
C668 C663 1.350 . S
C669 H656 0.929 . S
C669 C661 1.433 . S
C669 N671 1.384 . S
N670 C666 1.427 . S
N670 C667 1.384 . S
N671 C663 1.427 . S
N671 C669 1.384 . S
H672 C678 0.930 . S
H673 C682 0.930 . S
H674 C687 0.929 . S
H675 C685 0.929 . S
H676 C680 0.929 . S
H677 C686 0.929 . S
C678 H672 0.930 . S
C678 C679 1.367 . S
C678 C686 1.378 . S
C679 C678 1.367 . S
C679 C687 1.433 . S
C680 H676 0.929 . S
C680 C682 1.378 . S
C680 C684 1.350 . S
C681 C684 1.463 . S
C681 C686 1.350 . S
C681 N689 1.427 . S
C682 H673 0.930 . S
C682 C680 1.378 . S
C682 C683 1.367 . S
C683 C682 1.367 . S
C683 C685 1.433 . S
C684 C680 1.350 . S
C684 C681 1.463 . S
C684 N688 1.427 . S
C685 H675 0.929 . S
C685 C683 1.433 . S
C685 N688 1.384 . S
C686 H677 0.929 . S
C686 C678 1.378 . S
C686 C681 1.350 . S
C687 H674 0.929 . S
C687 C679 1.433 . S
C687 N689 1.384 . S
N688 C684 1.427 . S
N688 C685 1.384 . S
N689 C681 1.427 . S
N689 C687 1.384 . S
H690 C696 0.930 . S
H691 C700 0.930 . S
H692 C705 0.929 . S
H693 C703 0.929 . S
H694 C698 0.929 . S
H695 C704 0.929 . S
C696 H690 0.930 . S
C696 C697 1.367 . S
C696 C704 1.378 . S
C697 C696 1.367 . S
C697 C705 1.433 . S
C698 H694 0.929 . S
C698 C700 1.378 . S
C698 C702 1.350 . S
C699 C702 1.463 . S
C699 C704 1.350 . S
C699 N707 1.427 . S
C700 H691 0.930 . S
C700 C698 1.378 . S
C700 C701 1.367 . S
C701 C700 1.367 . S
C701 C703 1.433 . S
C702 C698 1.350 . S
C702 C699 1.463 . S
C702 N706 1.427 . S
C703 H693 0.929 . S
C703 C701 1.433 . S
C703 N706 1.384 . S
C704 H695 0.929 . S
C704 C696 1.378 . S
C704 C699 1.350 . S
C705 H692 0.929 . S
C705 C697 1.433 . S
C705 N707 1.384 . S
N706 C702 1.427 . S
N706 C703 1.384 . S
N707 C699 1.427 . S
N707 C705 1.384 . S
H708 C714 0.930 . S
H709 C718 0.930 . S
H710 C723 0.929 . S
H711 C721 0.929 . S
H712 C716 0.929 . S
H713 C722 0.929 . S
C714 H708 0.930 . S
C714 C715 1.367 . S
C714 C722 1.378 . S
C715 C714 1.367 . S
C715 C723 1.433 . S
C716 H712 0.929 . S
C716 C718 1.378 . S
C716 C720 1.350 . S
C717 C720 1.463 . S
C717 C722 1.350 . S
C717 N725 1.427 . S
C718 H709 0.930 . S
C718 C716 1.378 . S
C718 C719 1.367 . S
C719 C718 1.367 . S
C719 C721 1.433 . S
C720 C716 1.350 . S
C720 C717 1.463 . S
C720 N724 1.427 . S
C721 H711 0.929 . S
C721 C719 1.433 . S
C721 N724 1.384 . S
C722 H713 0.929 . S
C722 C714 1.378 . S
C722 C717 1.350 . S
C723 H710 0.929 . S
C723 C715 1.433 . S
C723 N725 1.384 . S
N724 C720 1.427 . S
N724 C721 1.384 . S
N725 C717 1.427 . S
N725 C723 1.384 . S
H726 C732 0.930 . S
H727 C736 0.930 . S
H728 C741 0.929 . S
H729 C739 0.929 . S
H730 C734 0.929 . S
H731 C740 0.929 . S
C732 H726 0.930 . S
C732 C733 1.367 . S
C732 C740 1.378 . S
C733 C732 1.367 . S
C733 C741 1.433 . S
C734 H730 0.929 . S
C734 C736 1.378 . S
C734 C738 1.350 . S
C735 C738 1.463 . S
C735 C740 1.350 . S
C735 N743 1.427 . S
C736 H727 0.930 . S
C736 C734 1.378 . S
C736 C737 1.367 . S
C737 C736 1.367 . S
C737 C739 1.433 . S
C738 C734 1.350 . S
C738 C735 1.463 . S
C738 N742 1.427 . S
C739 H729 0.929 . S
C739 C737 1.433 . S
C739 N742 1.384 . S
C740 H731 0.929 . S
C740 C732 1.378 . S
C740 C735 1.350 . S
C741 H728 0.929 . S
C741 C733 1.433 . S
C741 N743 1.384 . S
N742 C738 1.427 . S
N742 C739 1.384 . S
N743 C735 1.427 . S
N743 C741 1.384 . S
H744 C750 0.930 . S
H745 C754 0.930 . S
H746 C759 0.929 . S
H747 C757 0.929 . S
H748 C752 0.929 . S
H749 C758 0.929 . S
C750 H744 0.930 . S
C750 C751 1.367 . S
C750 C758 1.378 . S
C751 C750 1.367 . S
C751 C759 1.433 . S
C752 H748 0.929 . S
C752 C754 1.378 . S
C752 C756 1.350 . S
C753 C756 1.463 1_554 S
C753 C758 1.350 . S
C753 N761 1.427 . S
C754 H745 0.930 . S
C754 C752 1.378 . S
C754 C755 1.367 . S
C755 C754 1.367 . S
C755 C757 1.433 . S
C756 C752 1.350 . S
C756 C753 1.463 1_556 S
C756 N760 1.427 . S
C757 H747 0.929 . S
C757 C755 1.433 . S
C757 N760 1.384 . S
C758 H749 0.929 . S
C758 C750 1.378 . S
C758 C753 1.350 . S
C759 H746 0.929 . S
C759 C751 1.433 . S
C759 N761 1.384 . S
N760 C756 1.427 . S
N760 C757 1.384 . S
N761 C753 1.427 . S
N761 C759 1.384 . S
H762 C768 0.930 . S
H763 C772 0.930 . S
H764 C777 0.929 . S
H765 C775 0.929 . S
H766 C770 0.929 . S
H767 C776 0.929 . S
C768 H762 0.930 . S
C768 C769 1.367 . S
C768 C776 1.378 . S
C769 C768 1.367 . S
C769 C777 1.433 . S
C770 H766 0.929 . S
C770 C772 1.378 . S
C770 C774 1.350 . S
C771 C774 1.463 1_556 S
C771 C776 1.350 . S
C771 N779 1.427 . S
C772 H763 0.930 . S
C772 C770 1.378 . S
C772 C773 1.367 . S
C773 C772 1.367 . S
C773 C775 1.433 . S
C774 C770 1.350 . S
C774 C771 1.463 1_554 S
C774 N778 1.427 . S
C775 H765 0.929 . S
C775 C773 1.433 . S
C775 N778 1.384 . S
C776 H767 0.929 . S
C776 C768 1.378 . S
C776 C771 1.350 . S
C777 H764 0.929 . S
C777 C769 1.433 . S
C777 N779 1.384 . S
N778 C774 1.427 . S
N778 C775 1.384 . S
N779 C771 1.427 . S
N779 C777 1.384 . S
H780 C786 0.930 . S
H781 C790 0.930 . S
H782 C795 0.929 . S
H783 C793 0.929 . S
H784 C788 0.929 . S
H785 C794 0.929 . S
C786 H780 0.930 . S
C786 C787 1.367 . S
C786 C794 1.378 . S
C787 C786 1.367 . S
C787 C795 1.433 . S
C788 H784 0.929 . S
C788 C790 1.378 . S
C788 C792 1.350 . S
C789 C792 1.463 1_556 S
C789 C794 1.350 . S
C789 N797 1.427 . S
C790 H781 0.930 . S
C790 C788 1.378 . S
C790 C791 1.367 . S
C791 C790 1.367 . S
C791 C793 1.433 . S
C792 C788 1.350 . S
C792 C789 1.463 1_554 S
C792 N796 1.427 . S
C793 H783 0.929 . S
C793 C791 1.433 . S
C793 N796 1.384 . S
C794 H785 0.929 . S
C794 C786 1.378 . S
C794 C789 1.350 . S
C795 H782 0.929 . S
C795 C787 1.433 . S
C795 N797 1.384 . S
N796 C792 1.427 . S
N796 C793 1.384 . S
N797 C789 1.427 . S
N797 C795 1.384 . S
H798 C804 0.930 . S
H799 C808 0.930 . S
H800 C813 0.929 . S
H801 C811 0.929 . S
H802 C806 0.929 . S
H803 C812 0.929 . S
C804 H798 0.930 . S
C804 C805 1.367 . S
C804 C812 1.378 . S
C805 C804 1.367 . S
C805 C813 1.433 . S
C806 H802 0.929 . S
C806 C808 1.378 . S
C806 C810 1.350 . S
C807 C810 1.463 1_554 S
C807 C812 1.350 . S
C807 N815 1.427 . S
C808 H799 0.930 . S
C808 C806 1.378 . S
C808 C809 1.367 . S
C809 C808 1.367 . S
C809 C811 1.433 . S
C810 C806 1.350 . S
C810 C807 1.463 1_556 S
C810 N814 1.427 . S
C811 H801 0.929 . S
C811 C809 1.433 . S
C811 N814 1.384 . S
C812 H803 0.929 . S
C812 C804 1.378 . S
C812 C807 1.350 . S
C813 H800 0.929 . S
C813 C805 1.433 . S
C813 N815 1.384 . S
N814 C810 1.427 . S
N814 C811 1.384 . S
N815 C807 1.427 . S
N815 C813 1.384 . S
H816 C822 0.930 . S
H817 C826 0.930 . S
H818 C831 0.929 . S
H819 C829 0.929 . S
H820 C824 0.929 . S
H821 C830 0.929 . S
C822 H816 0.930 . S
C822 C823 1.367 . S
C822 C830 1.378 . S
C823 C822 1.367 . S
C823 C831 1.433 . S
C824 H820 0.929 . S
C824 C826 1.378 . S
C824 C828 1.350 . S
C825 C828 1.463 1_554 S
C825 C830 1.350 . S
C825 N833 1.427 . S
C826 H817 0.930 . S
C826 C824 1.378 . S
C826 C827 1.367 . S
C827 C826 1.367 . S
C827 C829 1.433 . S
C828 C824 1.350 . S
C828 C825 1.463 1_556 S
C828 N832 1.427 . S
C829 H819 0.929 . S
C829 C827 1.433 . S
C829 N832 1.384 . S
C830 H821 0.929 . S
C830 C822 1.378 . S
C830 C825 1.350 . S
C831 H818 0.929 . S
C831 C823 1.433 . S
C831 N833 1.384 . S
N832 C828 1.427 . S
N832 C829 1.384 . S
N833 C825 1.427 . S
N833 C831 1.384 . S
H834 C840 0.930 . S
H835 C844 0.930 . S
H836 C849 0.929 . S
H837 C847 0.929 . S
H838 C842 0.929 . S
H839 C848 0.929 . S
C840 H834 0.930 . S
C840 C841 1.367 . S
C840 C848 1.378 . S
C841 C840 1.367 . S
C841 C849 1.433 . S
C842 H838 0.929 . S
C842 C844 1.378 . S
C842 C846 1.350 . S
C843 C846 1.463 1_556 S
C843 C848 1.350 . S
C843 N851 1.427 . S
C844 H835 0.930 . S
C844 C842 1.378 . S
C844 C845 1.367 . S
C845 C844 1.367 . S
C845 C847 1.433 . S
C846 C842 1.350 . S
C846 C843 1.463 1_554 S
C846 N850 1.427 . S
C847 H837 0.929 . S
C847 C845 1.433 . S
C847 N850 1.384 . S
C848 H839 0.929 . S
C848 C840 1.378 . S
C848 C843 1.350 . S
C849 H836 0.929 . S
C849 C841 1.433 . S
C849 N851 1.384 . S
N850 C846 1.427 . S
N850 C847 1.384 . S
N851 C843 1.427 . S
N851 C849 1.384 . S
H852 C858 0.930 . S
H853 C862 0.930 . S
H854 C867 0.929 . S
H855 C865 0.929 . S
H856 C860 0.929 . S
H857 C866 0.929 . S
C858 H852 0.930 . S
C858 C859 1.367 . S
C858 C866 1.378 . S
C859 C858 1.367 . S
C859 C867 1.433 . S
C860 H856 0.929 . S
C860 C862 1.378 . S
C860 C864 1.350 . S
C861 C864 1.463 . S
C861 C866 1.350 . S
C861 N869 1.427 . S
C862 H853 0.930 . S
C862 C860 1.378 . S
C862 C863 1.367 . S
C863 C862 1.367 . S
C863 C865 1.433 . S
C864 C860 1.350 . S
C864 C861 1.463 . S
C864 N868 1.427 . S
C865 H855 0.929 . S
C865 C863 1.433 . S
C865 N868 1.384 . S
C866 H857 0.929 . S
C866 C858 1.378 . S
C866 C861 1.350 . S
C867 H854 0.929 . S
C867 C859 1.433 . S
C867 N869 1.384 . S
N868 C864 1.427 . S
N868 C865 1.384 . S
N869 C861 1.427 . S
N869 C867 1.384 . S
H870 C876 0.930 . S
H871 C880 0.930 . S
H872 C885 0.929 . S
H873 C883 0.929 . S
H874 C878 0.929 . S
H875 C884 0.929 . S
C876 H870 0.930 . S
C876 C877 1.367 . S
C876 C884 1.378 . S
C877 C876 1.367 . S
C877 C885 1.433 . S
C878 H874 0.929 . S
C878 C880 1.378 . S
C878 C882 1.350 . S
C879 C882 1.463 . S
C879 C884 1.350 . S
C879 N887 1.427 . S
C880 H871 0.930 . S
C880 C878 1.378 . S
C880 C881 1.367 . S
C881 C880 1.367 . S
C881 C883 1.433 . S
C882 C878 1.350 . S
C882 C879 1.463 . S
C882 N886 1.427 . S
C883 H873 0.929 . S
C883 C881 1.433 . S
C883 N886 1.384 . S
C884 H875 0.929 . S
C884 C876 1.378 . S
C884 C879 1.350 . S
C885 H872 0.929 . S
C885 C877 1.433 . S
C885 N887 1.384 . S
N886 C882 1.427 . S
N886 C883 1.384 . S
N887 C879 1.427 . S
N887 C885 1.384 . S
H888 C894 0.930 . S
H889 C898 0.930 . S
H890 C903 0.929 . S
H891 C901 0.929 . S
H892 C896 0.929 . S
H893 C902 0.929 . S
C894 H888 0.930 . S
C894 C895 1.367 . S
C894 C902 1.378 . S
C895 C894 1.367 . S
C895 C903 1.433 . S
C896 H892 0.929 . S
C896 C898 1.378 . S
C896 C900 1.350 . S
C897 C900 1.463 . S
C897 C902 1.350 . S
C897 N905 1.427 . S
C898 H889 0.930 . S
C898 C896 1.378 . S
C898 C899 1.367 . S
C899 C898 1.367 . S
C899 C901 1.433 . S
C900 C896 1.350 . S
C900 C897 1.463 . S
C900 N904 1.427 . S
C901 H891 0.929 . S
C901 C899 1.433 . S
C901 N904 1.384 . S
C902 H893 0.929 . S
C902 C894 1.378 . S
C902 C897 1.350 . S
C903 H890 0.929 . S
C903 C895 1.433 . S
C903 N905 1.384 . S
N904 C900 1.427 . S
N904 C901 1.384 . S
N905 C897 1.427 . S
N905 C903 1.384 . S
H906 C912 0.930 . S
H907 C916 0.930 . S
H908 C921 0.929 . S
H909 C919 0.929 . S
H910 C914 0.929 . S
H911 C920 0.929 . S
C912 H906 0.930 . S
C912 C913 1.367 . S
C912 C920 1.378 . S
C913 C912 1.367 . S
C913 C921 1.433 . S
C914 H910 0.929 . S
C914 C916 1.378 . S
C914 C918 1.350 . S
C915 C918 1.463 . S
C915 C920 1.350 . S
C915 N923 1.427 . S
C916 H907 0.930 . S
C916 C914 1.378 . S
C916 C917 1.367 . S
C917 C916 1.367 . S
C917 C919 1.433 . S
C918 C914 1.350 . S
C918 C915 1.463 . S
C918 N922 1.427 . S
C919 H909 0.929 . S
C919 C917 1.433 . S
C919 N922 1.384 . S
C920 H911 0.929 . S
C920 C912 1.378 . S
C920 C915 1.350 . S
C921 H908 0.929 . S
C921 C913 1.433 . S
C921 N923 1.384 . S
N922 C918 1.427 . S
N922 C919 1.384 . S
N923 C915 1.427 . S
N923 C921 1.384 . S
H924 C930 0.930 . S
H925 C934 0.930 . S
H926 C939 0.929 . S
H927 C937 0.929 . S
H928 C932 0.929 . S
H929 C938 0.929 . S
C930 H924 0.930 . S
C930 C931 1.367 . S
C930 C938 1.378 . S
C931 C930 1.367 . S
C931 C939 1.433 . S
C932 H928 0.929 . S
C932 C934 1.378 . S
C932 C936 1.350 . S
C933 C936 1.463 . S
C933 C938 1.350 . S
C933 N941 1.427 . S
C934 H925 0.930 . S
C934 C932 1.378 . S
C934 C935 1.367 . S
C935 C934 1.367 . S
C935 C937 1.433 . S
C936 C932 1.350 . S
C936 C933 1.463 . S
C936 N940 1.427 . S
C937 H927 0.929 . S
C937 C935 1.433 . S
C937 N940 1.384 . S
C938 H929 0.929 . S
C938 C930 1.378 . S
C938 C933 1.350 . S
C939 H926 0.929 . S
C939 C931 1.433 . S
C939 N941 1.384 . S
N940 C936 1.427 . S
N940 C937 1.384 . S
N941 C933 1.427 . S
N941 C939 1.384 . S
H942 C948 0.930 . S
H943 C952 0.930 . S
H944 C957 0.929 . S
H945 C955 0.929 . S
H946 C950 0.929 . S
H947 C956 0.929 . S
C948 H942 0.930 . S
C948 C949 1.367 . S
C948 C956 1.378 . S
C949 C948 1.367 . S
C949 C957 1.433 . S
C950 H946 0.929 . S
C950 C952 1.378 . S
C950 C954 1.350 . S
C951 C954 1.463 . S
C951 C956 1.350 . S
C951 N959 1.427 . S
C952 H943 0.930 . S
C952 C950 1.378 . S
C952 C953 1.367 . S
C953 C952 1.367 . S
C953 C955 1.433 . S
C954 C950 1.350 . S
C954 C951 1.463 . S
C954 N958 1.427 . S
C955 H945 0.929 . S
C955 C953 1.433 . S
C955 N958 1.384 . S
C956 H947 0.929 . S
C956 C948 1.378 . S
C956 C951 1.350 . S
C957 H944 0.929 . S
C957 C949 1.433 . S
C957 N959 1.384 . S
N958 C954 1.427 . S
N958 C955 1.384 . S
N959 C951 1.427 . S
N959 C957 1.384 . S
H960 C966 0.930 . S
H961 C970 0.930 . S
H962 C975 0.929 . S
H963 C973 0.929 . S
H964 C968 0.929 . S
H965 C974 0.929 . S
C966 H960 0.930 . S
C966 C967 1.367 . S
C966 C974 1.378 . S
C967 C966 1.367 . S
C967 C975 1.433 . S
C968 H964 0.929 . S
C968 C970 1.378 . S
C968 C972 1.350 . S
C969 C972 1.463 . S
C969 C974 1.350 . S
C969 N977 1.427 . S
C970 H961 0.930 . S
C970 C968 1.378 . S
C970 C971 1.367 . S
C971 C970 1.367 . S
C971 C973 1.433 . S
C972 C968 1.350 . S
C972 C969 1.463 . S
C972 N976 1.427 . S
C973 H963 0.929 . S
C973 C971 1.433 . S
C973 N976 1.384 . S
C974 H965 0.929 . S
C974 C966 1.378 . S
C974 C969 1.350 . S
C975 H962 0.929 . S
C975 C967 1.433 . S
C975 N977 1.384 . S
N976 C972 1.427 . S
N976 C973 1.384 . S
N977 C969 1.427 . S
N977 C975 1.384 . S
H978 C984 0.930 . S
H979 C988 0.930 . S
H980 C993 0.929 . S
H981 C991 0.929 . S
H982 C986 0.929 . S
H983 C992 0.929 . S
C984 H978 0.930 . S
C984 C985 1.367 . S
C984 C992 1.378 . S
C985 C984 1.367 . S
C985 C993 1.433 . S
C986 H982 0.929 . S
C986 C988 1.378 . S
C986 C990 1.350 . S
C987 C990 1.463 . S
C987 C992 1.350 . S
C987 N995 1.427 . S
C988 H979 0.930 . S
C988 C986 1.378 . S
C988 C989 1.367 . S
C989 C988 1.367 . S
C989 C991 1.433 . S
C990 C986 1.350 . S
C990 C987 1.463 . S
C990 N994 1.427 . S
C991 H981 0.929 . S
C991 C989 1.433 . S
C991 N994 1.384 . S
C992 H983 0.929 . S
C992 C984 1.378 . S
C992 C987 1.350 . S
C993 H980 0.929 . S
C993 C985 1.433 . S
C993 N995 1.384 . S
N994 C990 1.427 . S
N994 C991 1.384 . S
N995 C987 1.427 . S
N995 C993 1.384 . S
H996 C1002 0.930 . S
H997 C1006 0.930 . S
H998 C1011 0.929 . S
H999 C1009 0.929 . S
H1000 C1004 0.929 . S
H1001 C1010 0.929 . S
C1002 H996 0.930 . S
C1002 C1003 1.367 . S
C1002 C1010 1.378 . S
C1003 C1002 1.367 . S
C1003 C1011 1.433 . S
C1004 H1000 0.929 . S
C1004 C1006 1.378 . S
C1004 C1008 1.350 . S
C1005 C1008 1.463 . S
C1005 C1010 1.350 . S
C1005 N1013 1.427 . S
C1006 H997 0.930 . S
C1006 C1004 1.378 . S
C1006 C1007 1.367 . S
C1007 C1006 1.367 . S
C1007 C1009 1.433 . S
C1008 C1004 1.350 . S
C1008 C1005 1.463 . S
C1008 N1012 1.427 . S
C1009 H999 0.929 . S
C1009 C1007 1.433 . S
C1009 N1012 1.384 . S
C1010 H1001 0.929 . S
C1010 C1002 1.378 . S
C1010 C1005 1.350 . S
C1011 H998 0.929 . S
C1011 C1003 1.433 . S
C1011 N1013 1.384 . S
N1012 C1008 1.427 . S
N1012 C1009 1.384 . S
N1013 C1005 1.427 . S
N1013 C1011 1.384 . S
H1014 C1020 0.930 . S
H1015 C1024 0.930 . S
H1016 C1029 0.929 . S
H1017 C1027 0.929 . S
H1018 C1022 0.929 . S
H1019 C1028 0.929 . S
C1020 H1014 0.930 . S
C1020 C1021 1.367 . S
C1020 C1028 1.378 . S
C1021 C1020 1.367 . S
C1021 C1029 1.433 . S
C1022 H1018 0.929 . S
C1022 C1024 1.378 . S
C1022 C1026 1.350 . S
C1023 C1026 1.463 . S
C1023 C1028 1.350 . S
C1023 N1031 1.427 . S
C1024 H1015 0.930 . S
C1024 C1022 1.378 . S
C1024 C1025 1.367 . S
C1025 C1024 1.367 . S
C1025 C1027 1.433 . S
C1026 C1022 1.350 . S
C1026 C1023 1.463 . S
C1026 N1030 1.427 . S
C1027 H1017 0.929 . S
C1027 C1025 1.433 . S
C1027 N1030 1.384 . S
C1028 H1019 0.929 . S
C1028 C1020 1.378 . S
C1028 C1023 1.350 . S
C1029 H1016 0.929 . S
C1029 C1021 1.433 . S
C1029 N1031 1.384 . S
N1030 C1026 1.427 . S
N1030 C1027 1.384 . S
N1031 C1023 1.427 . S
N1031 C1029 1.384 . S
H1032 C1038 0.930 . S
H1033 C1042 0.930 . S
H1034 C1047 0.929 . S
H1035 C1045 0.929 . S
H1036 C1040 0.929 . S
H1037 C1046 0.929 . S
C1038 H1032 0.930 . S
C1038 C1039 1.367 . S
C1038 C1046 1.378 . S
C1039 C1038 1.367 . S
C1039 C1047 1.433 . S
C1040 H1036 0.929 . S
C1040 C1042 1.378 . S
C1040 C1044 1.350 . S
C1041 C1044 1.463 . S
C1041 C1046 1.350 . S
C1041 N1049 1.427 . S
C1042 H1033 0.930 . S
C1042 C1040 1.378 . S
C1042 C1043 1.367 . S
C1043 C1042 1.367 . S
C1043 C1045 1.433 . S
C1044 C1040 1.350 . S
C1044 C1041 1.463 . S
C1044 N1048 1.427 . S
C1045 H1035 0.929 . S
C1045 C1043 1.433 . S
C1045 N1048 1.384 . S
C1046 H1037 0.929 . S
C1046 C1038 1.378 . S
C1046 C1041 1.350 . S
C1047 H1034 0.929 . S
C1047 C1039 1.433 . S
C1047 N1049 1.384 . S
N1048 C1044 1.427 . S
N1048 C1045 1.384 . S
N1049 C1041 1.427 . S
N1049 C1047 1.384 . S
H1050 C1056 0.930 . S
H1051 C1060 0.930 . S
H1052 C1065 0.929 . S
H1053 C1063 0.929 . S
H1054 C1058 0.929 . S
H1055 C1064 0.929 . S
C1056 H1050 0.930 . S
C1056 C1057 1.367 . S
C1056 C1064 1.378 . S
C1057 C1056 1.367 . S
C1057 C1065 1.433 . S
C1058 H1054 0.929 . S
C1058 C1060 1.378 . S
C1058 C1062 1.350 . S
C1059 C1062 1.463 . S
C1059 C1064 1.350 . S
C1059 N1067 1.427 . S
C1060 H1051 0.930 . S
C1060 C1058 1.378 . S
C1060 C1061 1.367 . S
C1061 C1060 1.367 . S
C1061 C1063 1.433 . S
C1062 C1058 1.350 . S
C1062 C1059 1.463 . S
C1062 N1066 1.427 . S
C1063 H1053 0.929 . S
C1063 C1061 1.433 . S
C1063 N1066 1.384 . S
C1064 H1055 0.929 . S
C1064 C1056 1.378 . S
C1064 C1059 1.350 . S
C1065 H1052 0.929 . S
C1065 C1057 1.433 . S
C1065 N1067 1.384 . S
N1066 C1062 1.427 . S
N1066 C1063 1.384 . S
N1067 C1059 1.427 . S
N1067 C1065 1.384 . S
H1068 C1074 0.930 . S
H1069 C1078 0.930 . S
H1070 C1083 0.929 . S
H1071 C1081 0.929 . S
H1072 C1076 0.929 . S
H1073 C1082 0.929 . S
C1074 H1068 0.930 . S
C1074 C1075 1.367 . S
C1074 C1082 1.378 . S
C1075 C1074 1.367 . S
C1075 C1083 1.433 . S
C1076 H1072 0.929 . S
C1076 C1078 1.378 . S
C1076 C1080 1.350 . S
C1077 C1080 1.463 . S
C1077 C1082 1.350 . S
C1077 N1085 1.427 . S
C1078 H1069 0.930 . S
C1078 C1076 1.378 . S
C1078 C1079 1.367 . S
C1079 C1078 1.367 . S
C1079 C1081 1.433 . S
C1080 C1076 1.350 . S
C1080 C1077 1.463 . S
C1080 N1084 1.427 . S
C1081 H1071 0.929 . S
C1081 C1079 1.433 . S
C1081 N1084 1.384 . S
C1082 H1073 0.929 . S
C1082 C1074 1.378 . S
C1082 C1077 1.350 . S
C1083 H1070 0.929 . S
C1083 C1075 1.433 . S
C1083 N1085 1.384 . S
N1084 C1080 1.427 . S
N1084 C1081 1.384 . S
N1085 C1077 1.427 . S
N1085 C1083 1.384 . S
H1086 C1092 0.930 . S
H1087 C1096 0.930 . S
H1088 C1101 0.929 . S
H1089 C1099 0.929 . S
H1090 C1094 0.929 . S
H1091 C1100 0.929 . S
C1092 H1086 0.930 . S
C1092 C1093 1.367 . S
C1092 C1100 1.378 . S
C1093 C1092 1.367 . S
C1093 C1101 1.433 . S
C1094 H1090 0.929 . S
C1094 C1096 1.378 . S
C1094 C1098 1.350 . S
C1095 C1098 1.463 . S
C1095 C1100 1.350 . S
C1095 N1103 1.427 . S
C1096 H1087 0.930 . S
C1096 C1094 1.378 . S
C1096 C1097 1.367 . S
C1097 C1096 1.367 . S
C1097 C1099 1.433 . S
C1098 C1094 1.350 . S
C1098 C1095 1.463 . S
C1098 N1102 1.427 . S
C1099 H1089 0.929 . S
C1099 C1097 1.433 . S
C1099 N1102 1.384 . S
C1100 H1091 0.929 . S
C1100 C1092 1.378 . S
C1100 C1095 1.350 . S
C1101 H1088 0.929 . S
C1101 C1093 1.433 . S
C1101 N1103 1.384 . S
N1102 C1098 1.427 . S
N1102 C1099 1.384 . S
N1103 C1095 1.427 . S
N1103 C1101 1.384 . S
H1104 C1110 0.930 . S
H1105 C1114 0.930 . S
H1106 C1119 0.929 . S
H1107 C1117 0.929 . S
H1108 C1112 0.929 . S
H1109 C1118 0.929 . S
C1110 H1104 0.930 . S
C1110 C1111 1.367 . S
C1110 C1118 1.378 . S
C1111 C1110 1.367 . S
C1111 C1119 1.433 . S
C1112 H1108 0.929 . S
C1112 C1114 1.378 . S
C1112 C1116 1.350 . S
C1113 C1116 1.463 . S
C1113 C1118 1.350 . S
C1113 N1121 1.427 . S
C1114 H1105 0.930 . S
C1114 C1112 1.378 . S
C1114 C1115 1.367 . S
C1115 C1114 1.367 . S
C1115 C1117 1.433 . S
C1116 C1112 1.350 . S
C1116 C1113 1.463 . S
C1116 N1120 1.427 . S
C1117 H1107 0.929 . S
C1117 C1115 1.433 . S
C1117 N1120 1.384 . S
C1118 H1109 0.929 . S
C1118 C1110 1.378 . S
C1118 C1113 1.350 . S
C1119 H1106 0.929 . S
C1119 C1111 1.433 . S
C1119 N1121 1.384 . S
N1120 C1116 1.427 . S
N1120 C1117 1.384 . S
N1121 C1113 1.427 . S
N1121 C1119 1.384 . S
H1122 C1128 0.930 . S
H1123 C1132 0.930 . S
H1124 C1137 0.929 . S
H1125 C1135 0.929 . S
H1126 C1130 0.929 . S
H1127 C1136 0.929 . S
C1128 H1122 0.930 . S
C1128 C1129 1.367 . S
C1128 C1136 1.378 . S
C1129 C1128 1.367 . S
C1129 C1137 1.433 . S
C1130 H1126 0.929 . S
C1130 C1132 1.378 . S
C1130 C1134 1.350 . S
C1131 C1134 1.463 . S
C1131 C1136 1.350 . S
C1131 N1139 1.427 . S
C1132 H1123 0.930 . S
C1132 C1130 1.378 . S
C1132 C1133 1.367 . S
C1133 C1132 1.367 . S
C1133 C1135 1.433 . S
C1134 C1130 1.350 . S
C1134 C1131 1.463 . S
C1134 N1138 1.427 . S
C1135 H1125 0.929 . S
C1135 C1133 1.433 . S
C1135 N1138 1.384 . S
C1136 H1127 0.929 . S
C1136 C1128 1.378 . S
C1136 C1131 1.350 . S
C1137 H1124 0.929 . S
C1137 C1129 1.433 . S
C1137 N1139 1.384 . S
N1138 C1134 1.427 . S
N1138 C1135 1.384 . S
N1139 C1131 1.427 . S
N1139 C1137 1.384 . S
H1140 C1146 0.930 . S
H1141 C1150 0.930 . S
H1142 C1155 0.929 . S
H1143 C1153 0.929 . S
H1144 C1148 0.929 . S
H1145 C1154 0.929 . S
C1146 H1140 0.930 . S
C1146 C1147 1.367 . S
C1146 C1154 1.378 . S
C1147 C1146 1.367 . S
C1147 C1155 1.433 . S
C1148 H1144 0.929 . S
C1148 C1150 1.378 . S
C1148 C1152 1.350 . S
C1149 C1152 1.463 . S
C1149 C1154 1.350 . S
C1149 N1157 1.427 . S
C1150 H1141 0.930 . S
C1150 C1148 1.378 . S
C1150 C1151 1.367 . S
C1151 C1150 1.367 . S
C1151 C1153 1.433 . S
C1152 C1148 1.350 . S
C1152 C1149 1.463 . S
C1152 N1156 1.427 . S
C1153 H1143 0.929 . S
C1153 C1151 1.433 . S
C1153 N1156 1.384 . S
C1154 H1145 0.929 . S
C1154 C1146 1.378 . S
C1154 C1149 1.350 . S
C1155 H1142 0.929 . S
C1155 C1147 1.433 . S
C1155 N1157 1.384 . S
N1156 C1152 1.427 . S
N1156 C1153 1.384 . S
N1157 C1149 1.427 . S
N1157 C1155 1.384 . S
H1158 C1164 0.930 . S
H1159 C1168 0.930 . S
H1160 C1173 0.929 . S
H1161 C1171 0.929 . S
H1162 C1166 0.929 . S
H1163 C1172 0.929 . S
C1164 H1158 0.930 . S
C1164 C1165 1.367 . S
C1164 C1172 1.378 . S
C1165 C1164 1.367 . S
C1165 C1173 1.433 . S
C1166 H1162 0.929 . S
C1166 C1168 1.378 . S
C1166 C1170 1.350 . S
C1167 C1170 1.463 . S
C1167 C1172 1.350 . S
C1167 N1175 1.427 . S
C1168 H1159 0.930 . S
C1168 C1166 1.378 . S
C1168 C1169 1.367 . S
C1169 C1168 1.367 . S
C1169 C1171 1.433 . S
C1170 C1166 1.350 . S
C1170 C1167 1.463 . S
C1170 N1174 1.427 . S
C1171 H1161 0.929 . S
C1171 C1169 1.433 . S
C1171 N1174 1.384 . S
C1172 H1163 0.929 . S
C1172 C1164 1.378 . S
C1172 C1167 1.350 . S
C1173 H1160 0.929 . S
C1173 C1165 1.433 . S
C1173 N1175 1.384 . S
N1174 C1170 1.427 . S
N1174 C1171 1.384 . S
N1175 C1167 1.427 . S
N1175 C1173 1.384 . S
C319 C5 1.565 . S
C323 C96 1.564 . S
C337 C109 1.565 . S
C341 C16 1.563 . S
C355 C31 1.563 . S
C359 C120 1.566 . S
C373 C44 1.563 . S
C377 C133 1.566 . S
C391 C148 1.563 . S
C395 C55 1.566 . S
C409 C70 1.565 . S
C413 C81 1.564 . S
C427 C161 1.566 . S
C431 C252 1.566 . S
C445 C172 1.567 . S
C449 C265 1.564 . S
C463 C276 1.566 . S
C467 C185 1.565 . S
C481 C198 1.564 . S
C485 C291 1.567 . S
C499 C211 1.564 . S
C503 C302 1.564 . S
C517 C237 1.566 . S
C521 C224 1.566 . S
C535 C4 1.573 . S
C539 C108 1.573 . S
C553 C127 1.573 . S
C557 C23 1.573 . S
C571 C140 1.577 . S
C575 C30 1.577 . S
C589 C43 1.575 . S
C593 C147 1.575 . S
C607 C62 1.575 . S
C611 C88 1.576 . S
C625 C69 1.577 . S
C629 C95 1.577 . S
C643 C264 1.572 . S
C647 C160 1.572 . S
C661 C179 1.576 . S
C665 C283 1.576 . S
C679 C290 1.576 . S
C683 C192 1.577 . S
C697 C309 1.574 . S
C701 C205 1.574 . S
C715 C244 1.572 . S
C719 C218 1.572 . S
C733 C231 1.577 . S
C737 C251 1.577 . S
C751 C10 1.671 . S
C755 C199 1.668 . S
C769 C212 1.667 . S
C773 C17 1.672 . S
C787 C225 1.666 . S
C791 C36 1.673 . S
C805 C49 1.668 . S
C809 C166 1.671 . S
C823 C56 1.668 . S
C827 C173 1.672 . S
C841 C186 1.667 . S
C845 C75 1.673 . S
C859 C277 1.668 . S
C863 C82 1.671 . S
C877 C296 1.667 . S
C881 C101 1.673 . S
C895 C303 1.673 . S
C899 C114 1.666 . S
C913 C238 1.671 . S
C917 C121 1.668 . S
C931 C134 1.668 . S
C935 C257 1.672 . S
C949 C153 1.671 . S
C953 C270 1.668 . S
C967 C3 1.568 . S
C971 C135 1.567 . S
C985 C146 1.559 . S
C989 C18 1.559 . S
C1003 C83 1.567 . S
C1007 C29 1.567 . S
C1021 C42 1.565 . S
C1025 C94 1.564 . S
C1039 C57 1.561 . S
C1043 C107 1.560 . S
C1057 C68 1.562 . S
C1061 C122 1.560 . S
C1075 C159 1.559 . S
C1079 C289 1.560 . S
C1093 C174 1.567 . S
C1097 C304 1.565 . S
C1111 C187 1.567 . S
C1115 C239 1.568 . S
C1129 C250 1.567 . S
C1133 C200 1.566 . S
C1147 C213 1.567 . S
C1151 C263 1.566 . S
C1165 C226 1.568 . S
C1169 C278 1.567 . S
