# Generated by pormake.
# Topology uoq, (4)-cn, num edge types: 1
# Building blocks:
#     Node 0, Type 0, BuildingBlock: QUQFOY_clean_sbu_1, # of connection points: 4
#     Node 1, Type 0, BuildingBlock: QUQFOY_clean_sbu_1, # of connection points: 4
#     Node 2, Type 0, BuildingBlock: QUQFOY_clean_sbu_1, # of connection points: 4
#     Node 3, Type 0, BuildingBlock: QUQFOY_clean_sbu_1, # of connection points: 4
#     Node 4, Type 0, BuildingBlock: QUQFOY_clean_sbu_1, # of connection points: 4
#     Node 5, Type 0, BuildingBlock: QUQFOY_clean_sbu_1, # of connection points: 4
#     Node 6, Type 0, BuildingBlock: QUQFOY_clean_sbu_1, # of connection points: 4
#     Node 7, Type 0, BuildingBlock: QUQFOY_clean_sbu_1, # of connection points: 4
#     Node 8, Type 0, BuildingBlock: QUQFOY_clean_sbu_1, # of connection points: 4
#     Node 9, Type 0, BuildingBlock: QUQFOY_clean_sbu_1, # of connection points: 4
#     Node 10, Type 0, BuildingBlock: QUQFOY_clean_sbu_1, # of connection points: 4
#     Node 11, Type 0, BuildingBlock: QUQFOY_clean_sbu_1, # of connection points: 4
#     Edge 12, Type (0, 0), BuildingBlock: OJICUG_clean_linker_0, # of connection points: 2
#     Edge 13, Type (0, 0), BuildingBlock: OJICUG_clean_linker_0, # of connection points: 2
#     Edge 14, Type (0, 0), BuildingBlock: OJICUG_clean_linker_0, # of connection points: 2
#     Edge 15, Type (0, 0), BuildingBlock: OJICUG_clean_linker_0, # of connection points: 2
#     Edge 16, Type (0, 0), BuildingBlock: OJICUG_clean_linker_0, # of connection points: 2
#     Edge 17, Type (0, 0), BuildingBlock: OJICUG_clean_linker_0, # of connection points: 2
#     Edge 18, Type (0, 0), BuildingBlock: OJICUG_clean_linker_0, # of connection points: 2
#     Edge 19, Type (0, 0), BuildingBlock: OJICUG_clean_linker_0, # of connection points: 2
#     Edge 20, Type (0, 0), BuildingBlock: OJICUG_clean_linker_0, # of connection points: 2
#     Edge 21, Type (0, 0), BuildingBlock: OJICUG_clean_linker_0, # of connection points: 2
#     Edge 22, Type (0, 0), BuildingBlock: OJICUG_clean_linker_0, # of connection points: 2
#     Edge 23, Type (0, 0), BuildingBlock: OJICUG_clean_linker_0, # of connection points: 2
#     Edge 24, Type (0, 0), BuildingBlock: OJICUG_clean_linker_0, # of connection points: 2
#     Edge 25, Type (0, 0), BuildingBlock: OJICUG_clean_linker_0, # of connection points: 2
#     Edge 26, Type (0, 0), BuildingBlock: OJICUG_clean_linker_0, # of connection points: 2
#     Edge 27, Type (0, 0), BuildingBlock: OJICUG_clean_linker_0, # of connection points: 2
#     Edge 28, Type (0, 0), BuildingBlock: OJICUG_clean_linker_0, # of connection points: 2
#     Edge 29, Type (0, 0), BuildingBlock: OJICUG_clean_linker_0, # of connection points: 2
#     Edge 30, Type (0, 0), BuildingBlock: OJICUG_clean_linker_0, # of connection points: 2
#     Edge 31, Type (0, 0), BuildingBlock: OJICUG_clean_linker_0, # of connection points: 2
#     Edge 32, Type (0, 0), BuildingBlock: OJICUG_clean_linker_0, # of connection points: 2
#     Edge 33, Type (0, 0), BuildingBlock: OJICUG_clean_linker_0, # of connection points: 2
#     Edge 34, Type (0, 0), BuildingBlock: OJICUG_clean_linker_0, # of connection points: 2
#     Edge 35, Type (0, 0), BuildingBlock: OJICUG_clean_linker_0, # of connection points: 2
# Relax obj value: 0.138
# Max RMSD: 0.202
# Mean RMSD: 0.202
data_MOF--net-uoq--node1-QUQFOY_clean_sbu_1--edge1-OJICUG_clean_linker_0
_symmetry_space_group_name_H-M    P1
_symmetry_Int_Tables_number       1
_symmetry_cell_setting            triclinic
loop_
_symmetry_equiv_pos_as_xyz
'x, y, z'
_cell_length_a     48.148182
_cell_length_b     48.032435
_cell_length_c     17.587391
_cell_angle_alpha  89.960589
_cell_angle_beta   90.080075
_cell_angle_gamma 120.09213
loop_
_atom_site_label
_atom_site_type_symbol
_atom_site_fract_x
_atom_site_fract_y
_atom_site_fract_z
_atom_type_partial_charge
O0 O 0.28008 0.48784 0.33099 0.0
Cd1 Cd 0.304 0.4894 0.23251 0.0
Cd2 Cd 0.31453 0.44821 0.32449 0.0
O3 O 0.27322 0.44167 0.37367 0.0
O4 O 0.29166 0.5139 0.16187 0.0
O5 O 0.27742 0.46301 0.14288 0.0
C6 C 0.27615 0.48813 0.12185 0.0
C7 C 0.32382 0.40498 0.32512 0.0
C8 C 0.26671 0.46415 0.37636 0.0
C9 C 0.36911 0.515 0.2932 0.0
O10 O 0.35606 0.49187 0.34019 0.0
O11 O 0.35348 0.51598 0.23597 0.0
O12 O 0.32404 0.41945 0.38682 0.0
O13 O 0.31699 0.41428 0.26244 0.0
O14 O 0.80299 0.26611 0.6372 0.0
Cd15 Cd 0.82377 0.29851 0.5493 0.0
Cd16 Cd 0.87725 0.31702 0.65554 0.0
O17 O 0.8452 0.27468 0.70522 0.0
O18 O 0.78586 0.28531 0.4816 0.0
O19 O 0.82689 0.27944 0.4491 0.0
C20 C 0.79879 0.27511 0.43348 0.0
C21 C 0.93132 0.33159 0.65769 0.0
C22 C 0.81531 0.25876 0.69199 0.0
C23 C 0.85448 0.36394 0.62421 0.0
O24 O 0.86918 0.35482 0.66855 0.0
O25 O 0.83828 0.34664 0.56816 0.0
O26 O 0.91631 0.33092 0.71873 0.0
O27 O 0.91529 0.32303 0.59479 0.0
O28 O 0.51906 0.79537 0.00907 0.0
Cd29 Cd 0.51062 0.81264 0.91116 0.0
Cd30 Cd 0.54702 0.87108 -0.00359 0.0
O31 O 0.55646 0.84082 0.06066 0.0
O32 O 0.48982 0.77337 0.84625 0.0
O33 O 0.5365 0.81584 0.81753 0.0
C34 C 0.51424 0.78687 0.80168 0.0
C35 C 0.58742 0.92494 0.98887 0.0
C36 C 0.53991 0.81033 0.06015 0.0
C37 C 0.47626 0.84631 0.96302 0.0
O38 O 0.50145 0.86542 -0.00013 0.0
O39 O 0.47573 0.82501 0.91931 0.0
O40 O 0.57253 0.91251 0.05144 0.0
O41 O 0.58011 0.9064 0.93018 0.0
O42 O 0.70679 0.50894 0.32955 0.0
Cd43 Cd 0.68199 0.50635 0.2318 0.0
Cd44 Cd 0.67007 0.54599 0.32572 0.0
O45 O 0.71231 0.55439 0.37353 0.0
O46 O 0.69476 0.48202 0.16185 0.0
O47 O 0.70773 0.53242 0.14087 0.0
C48 C 0.70959 0.50755 0.12082 0.0
C49 C 0.65932 0.58831 0.32491 0.0
C50 C 0.71972 0.53255 0.37525 0.0
C51 C 0.61739 0.47808 0.29633 0.0
O52 O 0.63002 0.50123 0.34338 0.0
O53 O 0.63267 0.47819 0.23736 0.0
O54 O 0.65955 0.57427 0.38703 0.0
O55 O 0.66612 0.57886 0.26251 0.0
O56 O 0.18105 0.71664 0.64391 0.0
Cd57 Cd 0.15567 0.68932 0.55172 0.0
Cd58 Cd 0.10902 0.67914 0.65749 0.0
O59 O 0.14333 0.72351 0.69577 0.0
O60 O 0.1914 0.69882 0.48016 0.0
O61 O 0.15545 0.71343 0.45723 0.0
C62 C 0.18129 0.71354 0.43717 0.0
C63 C 0.05509 0.66473 0.65778 0.0
C64 C 0.17253 0.73106 0.69065 0.0
C65 C 0.12374 0.6268 0.62729 0.0
O66 O 0.11648 0.64096 0.67772 0.0
O67 O 0.13445 0.64011 0.56324 0.0
O68 O 0.07046 0.66794 0.72017 0.0
O69 O 0.07089 0.67126 0.5947 0.0
O70 O 0.44989 0.18903 0.0163 0.0
Cd71 Cd 0.46729 0.17602 0.92521 0.0
Cd72 Cd 0.43593 0.11558 0.0193 0.0
O73 O 0.42803 0.14531 0.08825 0.0
O74 O 0.4881 0.21669 0.86476 0.0
O75 O 0.44553 0.17231 0.82406 0.0
C76 C 0.46638 0.2023 0.81364 0.0
C77 C 0.39563 0.06166 0.0149 0.0
C78 C 0.43519 0.17417 0.07604 0.0
C79 C 0.50645 0.14558 0.97837 0.0
O80 O 0.48173 0.1232 0.01063 0.0
O81 O 0.50533 0.16798 0.94232 0.0
O82 O 0.41296 0.07394 0.0747 0.0
O83 O 0.40076 0.08028 0.95718 0.0
O84 O 0.52456 0.71704 0.34029 0.0
Cd85 Cd 0.5225 0.69001 0.43317 0.0
Cd86 Cd 0.55853 0.67897 0.32761 0.0
O87 O 0.5689 0.7233 0.28825 0.0
O88 O 0.49639 0.69998 0.50402 0.0
O89 O 0.54686 0.71437 0.52742 0.0
C90 C 0.52121 0.7147 0.54706 0.0
C91 C 0.59778 0.6642 0.32781 0.0
C92 C 0.54744 0.73112 0.29322 0.0
C93 C 0.49133 0.62714 0.35911 0.0
O94 O 0.51269 0.64094 0.30833 0.0
O95 O 0.49419 0.64079 0.42281 0.0
O96 O 0.58557 0.66722 0.26531 0.0
O97 O 0.58871 0.6711 0.39069 0.0
O98 O 0.79084 0.50935 0.65936 0.0
Cd99 Cd 0.8132 0.50693 0.75702 0.0
Cd100 Cd 0.86461 0.54663 0.66258 0.0
O101 O 0.83061 0.55485 0.61509 0.0
O102 O 0.77611 0.48239 0.82695 0.0
O103 O 0.81336 0.53286 0.84806 0.0
C104 C 0.78669 0.50788 0.86807 0.0
C105 C 0.91767 0.58903 0.66256 0.0
C106 C 0.80138 0.53291 0.61356 0.0
C107 C 0.84959 0.4788 0.6922 0.0
O108 O 0.85997 0.5019 0.64503 0.0
O109 O 0.83451 0.47892 0.75133 0.0
O110 O 0.90325 0.57486 0.60068 0.0
O111 O 0.90158 0.57967 0.7252 0.0
O112 O 0.26499 0.79462 0.97504 0.0
Cd113 Cd 0.29029 0.81153 0.07362 0.0
Cd114 Cd 0.31248 0.87042 0.9901 0.0
O115 O 0.27315 0.84029 0.92458 0.0
O116 O 0.27155 0.7721 0.13803 0.0
O117 O 0.2673 0.81454 0.16682 0.0
C118 C 0.26052 0.78553 0.18247 0.0
C119 C 0.3255 0.92414 -0.00182 0.0
C120 C 0.25929 0.8098 0.9242 0.0
C121 C 0.35859 0.8458 0.02369 0.0
O122 O 0.35258 0.86507 0.9874 0.0
O123 O 0.33764 0.82412 0.06638 0.0
O124 O 0.32842 0.91198 0.93567 0.0
O125 O 0.31413 0.90543 0.05654 0.0
O126 O 0.44992 0.26557 0.35132 0.0
Cd127 Cd 0.46198 0.29812 0.43904 0.0
Cd128 Cd 0.42741 0.31712 0.33291 0.0
O129 O 0.41662 0.27464 0.28329 0.0
O130 O 0.4864 0.2846 0.5068 0.0
O131 O 0.43974 0.27932 0.53936 0.0
C132 C 0.46332 0.27469 0.55499 0.0
C133 C 0.38823 0.33211 0.33125 0.0
C134 C 0.43025 0.2584 0.29658 0.0
C135 C 0.49726 0.36352 0.36397 0.0
O136 O 0.47345 0.35463 0.31971 0.0
O137 O 0.49598 0.34612 0.41998 0.0
O138 O 0.40243 0.33133 0.27006 0.0
O139 O 0.39569 0.32346 0.39403 0.0
O140 O 0.19514 0.4876 0.6593 0.0
Cd141 Cd 0.17263 0.48911 0.75756 0.0
Cd142 Cd 0.12107 0.44771 0.66553 0.0
O143 O 0.15599 0.44131 0.61666 0.0
O144 O 0.2094 0.51372 0.82834 0.0
O145 O 0.17283 0.46281 0.84737 0.0
C146 C 0.19917 0.48798 0.86843 0.0
C147 C 0.06859 0.40436 0.66468 0.0
C148 C 0.18494 0.46389 0.614 0.0
C149 C 0.13311 0.51451 0.69612 0.0
O150 O 0.12309 0.49129 0.6494 0.0
O151 O 0.14968 0.51562 0.75355 0.0
O152 O 0.08289 0.41882 0.60303 0.0
O153 O 0.08464 0.41373 0.72746 0.0
O154 O 0.72587 0.18986 0.97248 0.0
Cd155 Cd 0.69551 0.1767 0.0637 0.0
Cd156 Cd 0.66656 0.11627 0.96971 0.0
O157 O 0.70402 0.14614 0.90052 0.0
O158 O 0.71535 0.21728 0.12446 0.0
O159 O 0.71368 0.17289 0.16456 0.0
C160 C 0.72278 0.20286 0.17527 0.0
C161 C 0.65334 0.06246 0.97363 0.0
C162 C 0.72569 0.17503 0.91266 0.0
C163 C 0.62581 0.14594 0.01116 0.0
O164 O 0.6282 0.12359 0.97893 0.0
O165 O 0.64933 0.16846 0.04692 0.0
O166 O 0.64804 0.0747 0.91409 0.0
O167 O 0.66679 0.08105 0.03141 0.0
C168 C 0.34213 0.37115 0.25812 0.0
C169 C 0.33449 0.38104 0.32613 0.0
H170 H 0.36504 0.34762 0.2065 0.0
C171 C 0.34079 0.37084 0.39579 0.0
H172 H 0.33746 0.37849 0.20359 0.0
C173 C 0.35653 0.35309 0.39754 0.0
C174 C 0.36641 0.34536 0.32965 0.0
H175 H 0.33491 0.37785 0.44923 0.0
H176 H 0.36245 0.34695 0.45214 0.0
C177 C 0.35803 0.35354 0.25988 0.0
C178 C 0.98286 0.35288 0.72943 0.0
C179 C 0.96638 0.34471 0.65954 0.0
H180 H 0.02832 0.37784 0.786 0.0
C181 C 0.98407 0.3524 0.59178 0.0
H182 H 0.96987 0.34699 0.78272 0.0
C183 C 0.01757 0.37014 0.59375 0.0
C184 C 0.03398 0.38036 0.66351 0.0
H185 H 0.97207 0.34627 0.53711 0.0
H186 H 0.03051 0.37715 0.54039 0.0
C187 C 0.01637 0.37047 0.7314 0.0
C188 C 0.61648 0.97561 0.91319 0.0
C189 C 0.60965 0.95995 0.9838 0.0
H190 H 0.63577 0.0206 0.85469 0.0
C191 C 0.62106 0.97847 0.05049 0.0
H192 H 0.60801 0.96198 0.86088 0.0
C193 C 0.63723 0.01204 0.04697 0.0
C194 C 0.64183 0.02764 0.97676 0.0
H195 H 0.61634 0.96701 0.10575 0.0
H196 H 0.64445 0.02564 0.0995 0.0
C197 C 0.63224 0.00918 0.90973 0.0
C198 C 0.64238 0.62323 0.25702 0.0
C199 C 0.64883 0.61243 0.32537 0.0
H200 H 0.62141 0.64846 0.20422 0.0
C201 C 0.64216 0.62248 0.39469 0.0
H202 H 0.6474 0.61606 0.20273 0.0
C203 C 0.62734 0.64111 0.39564 0.0
C204 C 0.6188 0.64997 0.32727 0.0
H205 H 0.64713 0.6148 0.44842 0.0
H206 H 0.62115 0.64716 0.44994 0.0
C207 C 0.62746 0.64179 0.25796 0.0
C208 C 0.96969 0.62416 0.72967 0.0
C209 C 0.95228 0.61317 0.66157 0.0
H210 H 0.01603 0.64949 0.78183 0.0
C211 C 0.96883 0.62301 0.59201 0.0
H212 H 0.95762 0.61714 0.78412 0.0
C213 C 0.00229 0.64161 0.5906 0.0
C214 C 0.01986 0.65063 0.65874 0.0
H215 H 0.95606 0.6152 0.53846 0.0
H216 H 0.0144 0.64748 0.53614 0.0
C217 C 0.00318 0.64268 0.72826 0.0
C218 C 0.34498 0.97768 0.93704 0.0
C219 C 0.33789 0.95908 0.00357 0.0
H220 H 0.36839 0.02494 0.88852 0.0
C221 C 0.34631 0.97461 0.07436 0.0
H222 H 0.33854 0.96631 0.88164 0.0
C223 C 0.36374 0.00819 0.07818 0.0
C224 C 0.37262 0.02677 0.01134 0.0
H225 H 0.34114 0.9609 0.12654 0.0
H226 H 0.37136 0.01954 0.13338 0.0
C227 C 0.362 0.01126 0.94092 0.0
C228 C 0.24241 0.51656 0.96506 0.0
C229 C 0.21803 0.48746 0.9345 0.0
H230 H 0.27973 0.5395 0.04777 0.0
C231 C 0.21314 0.45831 0.9653 0.0
H232 H 0.24685 0.53944 0.94258 0.0
C233 C 0.23248 0.45835 0.0251 0.0
C234 C 0.2567 0.48754 0.05587 0.0
H235 H 0.19471 0.4355 0.94251 0.0
H236 H 0.22818 0.43557 0.04789 0.0
C237 C 0.26133 0.5166 0.02531 0.0
C238 C 0.78351 0.23175 0.33602 0.0
C239 C 0.7808 0.25754 0.36501 0.0
H240 H 0.7663 0.19335 0.25438 0.0
C241 C 0.75873 0.26489 0.33174 0.0
H242 H 0.80008 0.22537 0.36136 0.0
C243 C 0.73992 0.24703 0.27012 0.0
C244 C 0.74207 0.22082 0.24202 0.0
H245 H 0.75607 0.28456 0.35328 0.0
H246 H 0.72335 0.25348 0.24505 0.0
C247 C 0.76394 0.21322 0.27562 0.0
C248 C 0.54639 0.77722 0.70348 0.0
C249 C 0.51657 0.76895 0.73602 0.0
H250 H 0.57141 0.76586 0.61907 0.0
C251 C 0.48869 0.74224 0.70748 0.0
H252 H 0.56829 0.79752 0.72488 0.0
C253 C 0.49043 0.72444 0.64692 0.0
C254 C 0.52017 0.73252 0.61444 0.0
H255 H 0.46537 0.73522 0.73147 0.0
H256 H 0.46841 0.70428 0.62552 0.0
C257 C 0.54821 0.75892 0.64362 0.0
C258 C 0.72447 0.47915 0.02445 0.0
C259 C 0.72902 0.50818 0.0549 0.0
H260 H 0.73905 0.45637 0.94195 0.0
C261 C 0.75323 0.5374 0.02427 0.0
H262 H 0.70609 0.45623 0.04685 0.0
C263 C 0.77265 0.53748 0.96474 0.0
C264 C 0.76782 0.50835 0.93403 0.0
H265 H 0.75748 0.56016 0.04702 0.0
H266 H 0.79107 0.5603 0.94204 0.0
C267 C 0.74345 0.47923 0.96441 0.0
C268 C 0.22144 0.72288 0.33665 0.0
C269 C 0.20002 0.73119 0.3695 0.0
H270 H 0.25715 0.73346 0.25187 0.0
C271 C 0.19858 0.75772 0.34054 0.0
H272 H 0.22313 0.7026 0.35787 0.0
C273 C 0.21872 0.77597 0.28065 0.0
C274 C 0.2401 0.76752 0.24786 0.0
H275 H 0.1825 0.76484 0.36536 0.0
H276 H 0.21732 0.79641 0.25952 0.0
C277 C 0.241 0.74063 0.27607 0.0
C278 C 0.4937 0.24644 0.71883 0.0
C279 C 0.46523 0.22031 0.74681 0.0
H280 H 0.51531 0.28392 0.63562 0.0
C281 C 0.43583 0.21284 0.71299 0.0
H282 H 0.51667 0.25279 0.74408 0.0
C283 C 0.43497 0.2314 0.65247 0.0
C284 C 0.46356 0.2571 0.62359 0.0
H285 H 0.41352 0.19303 0.73413 0.0
H286 H 0.41206 0.22512 0.62695 0.0
C287 C 0.49291 0.26432 0.65708 0.0
C288 C 0.20132 0.43457 0.52426 0.0
C289 C 0.20615 0.46373 0.55437 0.0
H290 H 0.21719 0.41187 0.44432 0.0
C291 C 0.23066 0.49292 0.52489 0.0
H292 H 0.1825 0.41176 0.54612 0.0
C293 C 0.24982 0.49298 0.46552 0.0
C294 C 0.24529 0.46385 0.43605 0.0
H295 H 0.23464 0.51573 0.54673 0.0
H296 H 0.26856 0.51583 0.44366 0.0
C297 C 0.22106 0.43463 0.46618 0.0
C298 C 0.76362 0.20924 0.72335 0.0
C299 C 0.79414 0.23382 0.74604 0.0
H300 H 0.71798 0.17045 0.75916 0.0
C301 C 0.80312 0.23644 0.82282 0.0
H302 H 0.75626 0.20672 0.66432 0.0
C303 C 0.78109 0.2163 0.87689 0.0
C304 C 0.75011 0.1927 0.85469 0.0
H305 H 0.82648 0.25525 0.84181 0.0
H306 H 0.78795 0.21979 0.93635 0.0
C307 C 0.74185 0.18849 0.77734 0.0
C308 C 0.51463 0.76652 0.1541 0.0
C309 C 0.54272 0.79177 0.12261 0.0
H310 H 0.49433 0.72812 0.23445 0.0
C311 C 0.57277 0.79827 0.15 0.0
H312 H 0.49122 0.76131 0.13399 0.0
C313 C 0.5746 0.77869 0.2064 0.0
C314 C 0.54638 0.75327 0.23748 0.0
H315 H 0.59467 0.81771 0.12613 0.0
H316 H 0.59793 0.78332 0.22556 0.0
C317 C 0.51643 0.74773 0.2118 0.0
C318 C 0.73668 0.50393 0.4647 0.0
C319 C 0.74123 0.53304 0.43502 0.0
H320 H 0.75176 0.48121 0.54629 0.0
C321 C 0.76542 0.56229 0.46518 0.0
H322 H 0.71794 0.48106 0.44284 0.0
C323 C 0.78515 0.56238 0.52352 0.0
C324 C 0.78025 0.53322 0.55383 0.0
H325 H 0.76925 0.58503 0.44313 0.0
H326 H 0.80399 0.58518 0.54543 0.0
C327 C 0.75576 0.50402 0.52431 0.0
C328 C 0.22045 0.74778 0.77121 0.0
C329 C 0.19595 0.75328 0.74605 0.0
H330 H 0.25928 0.76124 0.84887 0.0
C331 C 0.19312 0.7786 0.77764 0.0
H332 H 0.22297 0.72825 0.74815 0.0
C333 C 0.21453 0.79805 0.8342 0.0
C334 C 0.23811 0.79153 0.86122 0.0
H335 H 0.17435 0.7832 0.7589 0.0
H336 H 0.21199 0.81736 0.85859 0.0
C337 C 0.24104 0.76645 0.82906 0.0
C338 C 0.43255 0.18765 0.21137 0.0
C339 C 0.42846 0.19186 0.13404 0.0
H340 H 0.4367 0.20604 0.32432 0.0
C341 C 0.42123 0.21556 0.11187 0.0
H342 H 0.43826 0.16953 0.22952 0.0
C343 C 0.41962 0.23585 0.16592 0.0
C344 C 0.42609 0.23328 0.24265 0.0
H345 H 0.41784 0.21904 0.05242 0.0
H346 H 0.41523 0.25477 0.14693 0.0
C347 C 0.4318 0.20855 0.26533 0.0
C348 C 0.41336 0.54874 0.38382 0.0
C349 C 0.4017 0.54206 0.30877 0.0
H350 H 0.45079 0.58117 0.45873 0.0
C351 C 0.42077 0.5624 0.24992 0.0
H352 H 0.39914 0.53353 0.43041 0.0
C353 C 0.45066 0.58928 0.26602 0.0
C354 C 0.46164 0.59674 0.34148 0.0
H355 H 0.41243 0.55774 0.19155 0.0
H356 H 0.46458 0.60493 0.21969 0.0
C357 C 0.44287 0.57604 0.40011 0.0
C358 C 0.85502 0.43194 0.73357 0.0
C359 C 0.8528 0.45051 0.67484 0.0
H360 H 0.85807 0.3903 0.76314 0.0
C361 C 0.85213 0.44098 0.59895 0.0
H362 H 0.85557 0.43879 0.79248 0.0
C363 C 0.85267 0.4128 0.5822 0.0
C364 C 0.85487 0.39423 0.64095 0.0
H365 H 0.85018 0.45477 0.5526 0.0
H366 H 0.85143 0.40558 0.52337 0.0
C367 C 0.85654 0.40431 0.71671 0.0
C368 C 0.44657 0.87588 0.98653 0.0
C369 C 0.44636 0.84675 0.9769 0.0
H370 H 0.41843 0.89845 0.00739 0.0
C371 C 0.41736 0.81756 0.98424 0.0
H372 H 0.46874 0.89867 0.98139 0.0
C373 C 0.38907 0.81743 0.00193 0.0
C374 C 0.38908 0.84649 0.01017 0.0
H375 H 0.41669 0.79479 0.97791 0.0
H376 H 0.36701 0.79456 0.00746 0.0
C377 C 0.41796 0.87576 0.00155 0.0
C378 C 0.57691 0.44027 0.38943 0.0
C379 C 0.58585 0.44979 0.31357 0.0
H380 H 0.54205 0.40496 0.4649 0.0
C381 C 0.56507 0.43128 0.25477 0.0
H382 H 0.59265 0.45403 0.43583 0.0
C383 C 0.53583 0.40372 0.27154 0.0
C384 C 0.52731 0.39366 0.34727 0.0
H385 H 0.57142 0.43812 0.19588 0.0
H386 H 0.52027 0.38977 0.22506 0.0
C387 C 0.54811 0.41216 0.40609 0.0
C388 C 0.1206 0.57532 0.58762 0.0
C389 C 0.12279 0.59634 0.64572 0.0
H390 H 0.12145 0.53253 0.55842 0.0
C391 C 0.12635 0.58915 0.72139 0.0
H392 H 0.11777 0.58025 0.52886 0.0
C393 C 0.12916 0.56221 0.7382 0.0
C394 C 0.12765 0.54156 0.67987 0.0
H395 H 0.12827 0.60504 0.7673 0.0
H396 H 0.1329 0.55777 0.7967 0.0
C397 C 0.12261 0.54797 0.60464 0.0
C398 C 0.59518 0.17517 3e-05 0.0
C399 C 0.59533 0.14604 0.00447 0.0
H400 H 0.5668 0.19784 0.98593 0.0
C401 C 0.56615 0.11686 -0.00076 0.0
H402 H 0.61741 0.19799 0.00323 0.0
C403 C 0.53726 0.11678 0.99086 0.0
C404 C 0.53712 0.14587 0.98526 0.0
H405 H 0.56562 0.09408 0.00244 0.0
H406 H 0.51505 0.09393 0.98789 0.0
C407 C 0.56633 0.17508 0.98941 0.0
loop_
_geom_bond_atom_site_label_1
_geom_bond_atom_site_label_2
_geom_bond_distance
_geom_bond_site_symmetry_2
_ccdc_geom_bond_type
O0 Cd1 2.223 . S
O0 C8 1.315 . S
Cd1 O0 2.223 . S
Cd1 O4 2.297 . S
Cd1 O5 2.439 . S
Cd1 O11 2.240 . S
Cd2 O3 2.240 . S
Cd2 O10 2.223 . S
Cd2 O12 2.297 . S
Cd2 O13 2.439 . S
O3 Cd2 2.240 . S
O3 C8 1.279 . S
O4 Cd1 2.297 . S
O4 C6 1.247 . S
O5 Cd1 2.439 . S
O5 C6 1.208 . S
C6 O4 1.247 . S
C6 O5 1.208 . S
C7 O12 1.247 . S
C7 O13 1.208 . S
C8 O0 1.315 . S
C8 O3 1.279 . S
C9 O10 1.315 . S
C9 O11 1.279 . S
O10 Cd2 2.223 . S
O10 C9 1.315 . S
O11 Cd1 2.240 . S
O11 C9 1.279 . S
O12 Cd2 2.297 . S
O12 C7 1.247 . S
O13 Cd2 2.439 . S
O13 C7 1.208 . S
O14 Cd15 2.223 . S
O14 C22 1.315 . S
Cd15 O14 2.223 . S
Cd15 O18 2.297 . S
Cd15 O19 2.439 . S
Cd15 O25 2.240 . S
Cd16 O17 2.240 . S
Cd16 O24 2.223 . S
Cd16 O26 2.297 . S
Cd16 O27 2.439 . S
O17 Cd16 2.240 . S
O17 C22 1.279 . S
O18 Cd15 2.297 . S
O18 C20 1.247 . S
O19 Cd15 2.439 . S
O19 C20 1.208 . S
C20 O18 1.247 . S
C20 O19 1.208 . S
C21 O26 1.247 . S
C21 O27 1.208 . S
C22 O14 1.315 . S
C22 O17 1.279 . S
C23 O24 1.315 . S
C23 O25 1.279 . S
O24 Cd16 2.223 . S
O24 C23 1.315 . S
O25 Cd15 2.240 . S
O25 C23 1.279 . S
O26 Cd16 2.297 . S
O26 C21 1.247 . S
O27 Cd16 2.439 . S
O27 C21 1.208 . S
O28 Cd29 2.223 . S
O28 C36 1.315 1_556 S
Cd29 O28 2.223 . S
Cd29 O32 2.297 . S
Cd29 O33 2.439 . S
Cd29 O39 2.240 . S
Cd30 O31 2.240 . S
Cd30 O38 2.223 . S
Cd30 O40 2.297 . S
Cd30 O41 2.439 1_554 S
O31 Cd30 2.240 . S
O31 C36 1.279 . S
O32 Cd29 2.297 . S
O32 C34 1.247 . S
O33 Cd29 2.439 . S
O33 C34 1.208 . S
C34 O32 1.247 . S
C34 O33 1.208 . S
C35 O40 1.247 1_556 S
C35 O41 1.208 . S
C36 O28 1.315 1_554 S
C36 O31 1.279 . S
C37 O38 1.315 . S
C37 O39 1.279 1_554 S
O38 Cd30 2.223 . S
O38 C37 1.315 . S
O39 Cd29 2.240 . S
O39 C37 1.279 1_556 S
O40 Cd30 2.297 . S
O40 C35 1.247 1_554 S
O41 Cd30 2.439 1_556 S
O41 C35 1.208 . S
O42 Cd43 2.223 . S
O42 C50 1.315 . S
Cd43 O42 2.223 . S
Cd43 O46 2.297 . S
Cd43 O47 2.439 . S
Cd43 O53 2.240 . S
Cd44 O45 2.240 . S
Cd44 O52 2.223 . S
Cd44 O54 2.297 . S
Cd44 O55 2.439 . S
O45 Cd44 2.240 . S
O45 C50 1.279 . S
O46 Cd43 2.297 . S
O46 C48 1.247 . S
O47 Cd43 2.439 . S
O47 C48 1.208 . S
C48 O46 1.247 . S
C48 O47 1.208 . S
C49 O54 1.247 . S
C49 O55 1.208 . S
C50 O42 1.315 . S
C50 O45 1.279 . S
C51 O52 1.315 . S
C51 O53 1.279 . S
O52 Cd44 2.223 . S
O52 C51 1.315 . S
O53 Cd43 2.240 . S
O53 C51 1.279 . S
O54 Cd44 2.297 . S
O54 C49 1.247 . S
O55 Cd44 2.439 . S
O55 C49 1.208 . S
O56 Cd57 2.223 . S
O56 C64 1.315 . S
Cd57 O56 2.223 . S
Cd57 O60 2.297 . S
Cd57 O61 2.439 . S
Cd57 O67 2.240 . S
Cd58 O59 2.240 . S
Cd58 O66 2.223 . S
Cd58 O68 2.297 . S
Cd58 O69 2.439 . S
O59 Cd58 2.240 . S
O59 C64 1.279 . S
O60 Cd57 2.297 . S
O60 C62 1.247 . S
O61 Cd57 2.439 . S
O61 C62 1.208 . S
C62 O60 1.247 . S
C62 O61 1.208 . S
C63 O68 1.247 . S
C63 O69 1.208 . S
C64 O56 1.315 . S
C64 O59 1.279 . S
C65 O66 1.315 . S
C65 O67 1.279 . S
O66 Cd58 2.223 . S
O66 C65 1.315 . S
O67 Cd57 2.240 . S
O67 C65 1.279 . S
O68 Cd58 2.297 . S
O68 C63 1.247 . S
O69 Cd58 2.439 . S
O69 C63 1.208 . S
O70 Cd71 2.223 . S
O70 C78 1.315 1_556 S
Cd71 O70 2.223 . S
Cd71 O74 2.297 . S
Cd71 O75 2.439 . S
Cd71 O81 2.240 . S
Cd72 O73 2.240 . S
Cd72 O80 2.223 . S
Cd72 O82 2.297 . S
Cd72 O83 2.439 1_554 S
O73 Cd72 2.240 . S
O73 C78 1.279 . S
O74 Cd71 2.297 . S
O74 C76 1.247 . S
O75 Cd71 2.439 . S
O75 C76 1.208 . S
C76 O74 1.247 . S
C76 O75 1.208 . S
C77 O82 1.247 1_556 S
C77 O83 1.208 . S
C78 O70 1.315 1_554 S
C78 O73 1.279 . S
C79 O80 1.315 . S
C79 O81 1.279 1_554 S
O80 Cd72 2.223 . S
O80 C79 1.315 . S
O81 Cd71 2.240 . S
O81 C79 1.279 1_556 S
O82 Cd72 2.297 . S
O82 C77 1.247 1_554 S
O83 Cd72 2.439 1_556 S
O83 C77 1.208 . S
O84 Cd85 2.223 . S
O84 C92 1.315 . S
Cd85 O84 2.223 . S
Cd85 O88 2.297 . S
Cd85 O89 2.439 . S
Cd85 O95 2.240 . S
Cd86 O87 2.240 . S
Cd86 O94 2.223 . S
Cd86 O96 2.297 . S
Cd86 O97 2.439 . S
O87 Cd86 2.240 . S
O87 C92 1.279 . S
O88 Cd85 2.297 . S
O88 C90 1.247 . S
O89 Cd85 2.439 . S
O89 C90 1.208 . S
C90 O88 1.247 . S
C90 O89 1.208 . S
C91 O96 1.247 . S
C91 O97 1.208 . S
C92 O84 1.315 . S
C92 O87 1.279 . S
C93 O94 1.315 . S
C93 O95 1.279 . S
O94 Cd86 2.223 . S
O94 C93 1.315 . S
O95 Cd85 2.240 . S
O95 C93 1.279 . S
O96 Cd86 2.297 . S
O96 C91 1.247 . S
O97 Cd86 2.439 . S
O97 C91 1.208 . S
O98 Cd99 2.223 . S
O98 C106 1.315 . S
Cd99 O98 2.223 . S
Cd99 O102 2.297 . S
Cd99 O103 2.439 . S
Cd99 O109 2.240 . S
Cd100 O101 2.240 . S
Cd100 O108 2.223 . S
Cd100 O110 2.297 . S
Cd100 O111 2.439 . S
O101 Cd100 2.240 . S
O101 C106 1.279 . S
O102 Cd99 2.297 . S
O102 C104 1.247 . S
O103 Cd99 2.439 . S
O103 C104 1.208 . S
C104 O102 1.247 . S
C104 O103 1.208 . S
C105 O110 1.247 . S
C105 O111 1.208 . S
C106 O98 1.315 . S
C106 O101 1.279 . S
C107 O108 1.315 . S
C107 O109 1.279 . S
O108 Cd100 2.223 . S
O108 C107 1.315 . S
O109 Cd99 2.240 . S
O109 C107 1.279 . S
O110 Cd100 2.297 . S
O110 C105 1.247 . S
O111 Cd100 2.439 . S
O111 C105 1.208 . S
O112 Cd113 2.223 . S
O112 C120 1.315 1_554 S
Cd113 O112 2.223 . S
Cd113 O116 2.297 . S
Cd113 O117 2.439 . S
Cd113 O123 2.240 . S
Cd114 O115 2.240 . S
Cd114 O122 2.223 . S
Cd114 O124 2.297 . S
Cd114 O125 2.439 1_556 S
O115 Cd114 2.240 . S
O115 C120 1.279 . S
O116 Cd113 2.297 . S
O116 C118 1.247 . S
O117 Cd113 2.439 . S
O117 C118 1.208 . S
C118 O116 1.247 . S
C118 O117 1.208 . S
C119 O124 1.247 1_554 S
C119 O125 1.208 . S
C120 O112 1.315 1_556 S
C120 O115 1.279 . S
C121 O122 1.315 . S
C121 O123 1.279 1_556 S
O122 Cd114 2.223 . S
O122 C121 1.315 . S
O123 Cd113 2.240 . S
O123 C121 1.279 1_554 S
O124 Cd114 2.297 . S
O124 C119 1.247 1_556 S
O125 Cd114 2.439 1_554 S
O125 C119 1.208 . S
O126 Cd127 2.223 . S
O126 C134 1.315 . S
Cd127 O126 2.223 . S
Cd127 O130 2.297 . S
Cd127 O131 2.439 . S
Cd127 O137 2.240 . S
Cd128 O129 2.240 . S
Cd128 O136 2.223 . S
Cd128 O138 2.297 . S
Cd128 O139 2.439 . S
O129 Cd128 2.240 . S
O129 C134 1.279 . S
O130 Cd127 2.297 . S
O130 C132 1.247 . S
O131 Cd127 2.439 . S
O131 C132 1.208 . S
C132 O130 1.247 . S
C132 O131 1.208 . S
C133 O138 1.247 . S
C133 O139 1.208 . S
C134 O126 1.315 . S
C134 O129 1.279 . S
C135 O136 1.315 . S
C135 O137 1.279 . S
O136 Cd128 2.223 . S
O136 C135 1.315 . S
O137 Cd127 2.240 . S
O137 C135 1.279 . S
O138 Cd128 2.297 . S
O138 C133 1.247 . S
O139 Cd128 2.439 . S
O139 C133 1.208 . S
O140 Cd141 2.223 . S
O140 C148 1.315 . S
Cd141 O140 2.223 . S
Cd141 O144 2.297 . S
Cd141 O145 2.439 . S
Cd141 O151 2.240 . S
Cd142 O143 2.240 . S
Cd142 O150 2.223 . S
Cd142 O152 2.297 . S
Cd142 O153 2.439 . S
O143 Cd142 2.240 . S
O143 C148 1.279 . S
O144 Cd141 2.297 . S
O144 C146 1.247 . S
O145 Cd141 2.439 . S
O145 C146 1.208 . S
C146 O144 1.247 . S
C146 O145 1.208 . S
C147 O152 1.247 . S
C147 O153 1.208 . S
C148 O140 1.315 . S
C148 O143 1.279 . S
C149 O150 1.315 . S
C149 O151 1.279 . S
O150 Cd142 2.223 . S
O150 C149 1.315 . S
O151 Cd141 2.240 . S
O151 C149 1.279 . S
O152 Cd142 2.297 . S
O152 C147 1.247 . S
O153 Cd142 2.439 . S
O153 C147 1.208 . S
O154 Cd155 2.223 . S
O154 C162 1.315 1_554 S
Cd155 O154 2.223 . S
Cd155 O158 2.297 . S
Cd155 O159 2.439 . S
Cd155 O165 2.240 . S
Cd156 O157 2.240 . S
Cd156 O164 2.223 . S
Cd156 O166 2.297 . S
Cd156 O167 2.439 1_556 S
O157 Cd156 2.240 . S
O157 C162 1.279 . S
O158 Cd155 2.297 . S
O158 C160 1.247 . S
O159 Cd155 2.439 . S
O159 C160 1.208 . S
C160 O158 1.247 . S
C160 O159 1.208 . S
C161 O166 1.247 1_554 S
C161 O167 1.208 . S
C162 O154 1.315 1_556 S
C162 O157 1.279 . S
C163 O164 1.315 . S
C163 O165 1.279 1_556 S
O164 Cd156 2.223 . S
O164 C163 1.315 . S
O165 Cd155 2.240 . S
O165 C163 1.279 1_554 S
O166 Cd156 2.297 . S
O166 C161 1.247 1_556 S
O167 Cd156 2.439 1_554 S
O167 C161 1.208 . S
C168 C169 1.387 . S
C168 H172 0.950 . S
C168 C177 1.390 . S
C169 C168 1.387 . S
C169 C171 1.387 . S
H170 C177 0.950 . S
C171 C169 1.387 . S
C171 C173 1.390 . S
C171 H175 0.950 . S
H172 C168 0.950 . S
C173 C171 1.390 . S
C173 C174 1.387 . S
C173 H176 0.950 . S
C174 C173 1.387 . S
C174 C177 1.387 . S
H175 C171 0.950 . S
H176 C173 0.950 . S
C177 C168 1.390 . S
C177 H170 0.950 . S
C177 C174 1.387 . S
C178 C179 1.387 . S
C178 H182 0.950 . S
C178 C187 1.390 1_655 S
C179 C178 1.387 . S
C179 C181 1.387 . S
H180 C187 0.950 . S
C181 C179 1.387 . S
C181 C183 1.390 1_655 S
C181 H185 0.950 . S
H182 C178 0.950 . S
C183 C181 1.390 1_455 S
C183 C184 1.387 . S
C183 H186 0.950 . S
C184 C183 1.387 . S
C184 C187 1.387 . S
H185 C181 0.950 . S
H186 C183 0.950 . S
C187 C178 1.390 1_455 S
C187 H180 0.950 . S
C187 C184 1.387 . S
C188 C189 1.387 . S
C188 H192 0.950 . S
C188 C197 1.390 1_566 S
C189 C188 1.387 . S
C189 C191 1.387 . S
H190 C197 0.950 . S
C191 C189 1.387 . S
C191 C193 1.390 1_566 S
C191 H195 0.950 . S
H192 C188 0.950 . S
C193 C191 1.390 1_544 S
C193 C194 1.387 . S
C193 H196 0.950 . S
C194 C193 1.387 . S
C194 C197 1.387 . S
H195 C191 0.950 . S
H196 C193 0.950 . S
C197 C188 1.390 1_544 S
C197 H190 0.950 . S
C197 C194 1.387 . S
C198 C199 1.387 . S
C198 H202 0.950 . S
C198 C207 1.390 . S
C199 C198 1.387 . S
C199 C201 1.387 . S
H200 C207 0.950 . S
C201 C199 1.387 . S
C201 C203 1.390 . S
C201 H205 0.950 . S
H202 C198 0.950 . S
C203 C201 1.390 . S
C203 C204 1.387 . S
C203 H206 0.950 . S
C204 C203 1.387 . S
C204 C207 1.387 . S
H205 C201 0.950 . S
H206 C203 0.950 . S
C207 C198 1.390 . S
C207 H200 0.950 . S
C207 C204 1.387 . S
C208 C209 1.387 . S
C208 H212 0.950 . S
C208 C217 1.390 1_655 S
C209 C208 1.387 . S
C209 C211 1.387 . S
H210 C217 0.950 . S
C211 C209 1.387 . S
C211 C213 1.390 1_655 S
C211 H215 0.950 . S
H212 C208 0.950 . S
C213 C211 1.390 1_455 S
C213 C214 1.387 . S
C213 H216 0.950 . S
C214 C213 1.387 . S
C214 C217 1.387 . S
H215 C211 0.950 . S
H216 C213 0.950 . S
C217 C208 1.390 1_455 S
C217 H210 0.950 . S
C217 C214 1.387 . S
C218 C219 1.387 . S
C218 H222 0.950 . S
C218 C227 1.390 1_564 S
C219 C218 1.387 . S
C219 C221 1.387 . S
H220 C227 0.950 . S
C221 C219 1.387 . S
C221 C223 1.390 1_564 S
C221 H225 0.950 . S
H222 C218 0.950 . S
C223 C221 1.390 1_546 S
C223 C224 1.387 . S
C223 H226 0.950 . S
C224 C223 1.387 . S
C224 C227 1.387 . S
H225 C221 0.950 . S
H226 C223 0.950 . S
C227 C218 1.390 1_546 S
C227 H220 0.950 . S
C227 C224 1.387 . S
C228 C229 1.387 . S
C228 H232 0.950 . S
C228 C237 1.390 1_556 S
C229 C228 1.387 . S
C229 C231 1.387 . S
H230 C237 0.950 . S
C231 C229 1.387 . S
C231 C233 1.390 1_556 S
C231 H235 0.950 . S
H232 C228 0.950 . S
C233 C231 1.390 1_554 S
C233 C234 1.387 . S
C233 H236 0.950 . S
C234 C233 1.387 . S
C234 C237 1.387 . S
H235 C231 0.950 . S
H236 C233 0.950 . S
C237 C228 1.390 1_554 S
C237 H230 0.950 . S
C237 C234 1.387 . S
C238 C239 1.387 . S
C238 H242 0.950 . S
C238 C247 1.390 . S
C239 C238 1.387 . S
C239 C241 1.387 . S
H240 C247 0.950 . S
C241 C239 1.387 . S
C241 C243 1.390 . S
C241 H245 0.950 . S
H242 C238 0.950 . S
C243 C241 1.390 . S
C243 C244 1.387 . S
C243 H246 0.950 . S
C244 C243 1.387 . S
C244 C247 1.387 . S
H245 C241 0.950 . S
H246 C243 0.950 . S
C247 C238 1.390 . S
C247 H240 0.950 . S
C247 C244 1.387 . S
C248 C249 1.387 . S
C248 H252 0.950 . S
C248 C257 1.390 . S
C249 C248 1.387 . S
C249 C251 1.387 . S
H250 C257 0.950 . S
C251 C249 1.387 . S
C251 C253 1.390 . S
C251 H255 0.950 . S
H252 C248 0.950 . S
C253 C251 1.390 . S
C253 C254 1.387 . S
C253 H256 0.950 . S
C254 C253 1.387 . S
C254 C257 1.387 . S
H255 C251 0.950 . S
H256 C253 0.950 . S
C257 C248 1.390 . S
C257 H250 0.950 . S
C257 C254 1.387 . S
C258 C259 1.387 . S
C258 H262 0.950 . S
C258 C267 1.390 1_554 S
C259 C258 1.387 . S
C259 C261 1.387 . S
H260 C267 0.950 . S
C261 C259 1.387 . S
C261 C263 1.390 1_554 S
C261 H265 0.950 . S
H262 C258 0.950 . S
C263 C261 1.390 1_556 S
C263 C264 1.387 . S
C263 H266 0.950 . S
C264 C263 1.387 . S
C264 C267 1.387 . S
H265 C261 0.950 . S
H266 C263 0.950 . S
C267 C258 1.390 1_556 S
C267 H260 0.950 . S
C267 C264 1.387 . S
C268 C269 1.387 . S
C268 H272 0.950 . S
C268 C277 1.390 . S
C269 C268 1.387 . S
C269 C271 1.387 . S
H270 C277 0.950 . S
C271 C269 1.387 . S
C271 C273 1.390 . S
C271 H275 0.950 . S
H272 C268 0.950 . S
C273 C271 1.390 . S
C273 C274 1.387 . S
C273 H276 0.950 . S
C274 C273 1.387 . S
C274 C277 1.387 . S
H275 C271 0.950 . S
H276 C273 0.950 . S
C277 C268 1.390 . S
C277 H270 0.950 . S
C277 C274 1.387 . S
C278 C279 1.387 . S
C278 H282 0.950 . S
C278 C287 1.390 . S
C279 C278 1.387 . S
C279 C281 1.387 . S
H280 C287 0.950 . S
C281 C279 1.387 . S
C281 C283 1.390 . S
C281 H285 0.950 . S
H282 C278 0.950 . S
C283 C281 1.390 . S
C283 C284 1.387 . S
C283 H286 0.950 . S
C284 C283 1.387 . S
C284 C287 1.387 . S
H285 C281 0.950 . S
H286 C283 0.950 . S
C287 C278 1.390 . S
C287 H280 0.950 . S
C287 C284 1.387 . S
C288 C289 1.387 . S
C288 H292 0.950 . S
C288 C297 1.390 . S
C289 C288 1.387 . S
C289 C291 1.387 . S
H290 C297 0.950 . S
C291 C289 1.387 . S
C291 C293 1.390 . S
C291 H295 0.950 . S
H292 C288 0.950 . S
C293 C291 1.390 . S
C293 C294 1.387 . S
C293 H296 0.950 . S
C294 C293 1.387 . S
C294 C297 1.387 . S
H295 C291 0.950 . S
H296 C293 0.950 . S
C297 C288 1.390 . S
C297 H290 0.950 . S
C297 C294 1.387 . S
C298 C299 1.387 . S
C298 H302 0.950 . S
C298 C307 1.390 . S
C299 C298 1.387 . S
C299 C301 1.387 . S
H300 C307 0.950 . S
C301 C299 1.387 . S
C301 C303 1.390 . S
C301 H305 0.950 . S
H302 C298 0.950 . S
C303 C301 1.390 . S
C303 C304 1.387 . S
C303 H306 0.950 . S
C304 C303 1.387 . S
C304 C307 1.387 . S
H305 C301 0.950 . S
H306 C303 0.950 . S
C307 C298 1.390 . S
C307 H300 0.950 . S
C307 C304 1.387 . S
C308 C309 1.387 . S
C308 H312 0.950 . S
C308 C317 1.390 . S
C309 C308 1.387 . S
C309 C311 1.387 . S
H310 C317 0.950 . S
C311 C309 1.387 . S
C311 C313 1.390 . S
C311 H315 0.950 . S
H312 C308 0.950 . S
C313 C311 1.390 . S
C313 C314 1.387 . S
C313 H316 0.950 . S
C314 C313 1.387 . S
C314 C317 1.387 . S
H315 C311 0.950 . S
H316 C313 0.950 . S
C317 C308 1.390 . S
C317 H310 0.950 . S
C317 C314 1.387 . S
C318 C319 1.387 . S
C318 H322 0.950 . S
C318 C327 1.390 . S
C319 C318 1.387 . S
C319 C321 1.387 . S
H320 C327 0.950 . S
C321 C319 1.387 . S
C321 C323 1.390 . S
C321 H325 0.950 . S
H322 C318 0.950 . S
C323 C321 1.390 . S
C323 C324 1.387 . S
C323 H326 0.950 . S
C324 C323 1.387 . S
C324 C327 1.387 . S
H325 C321 0.950 . S
H326 C323 0.950 . S
C327 C318 1.390 . S
C327 H320 0.950 . S
C327 C324 1.387 . S
C328 C329 1.387 . S
C328 H332 0.950 . S
C328 C337 1.390 . S
C329 C328 1.387 . S
C329 C331 1.387 . S
H330 C337 0.950 . S
C331 C329 1.387 . S
C331 C333 1.390 . S
C331 H335 0.950 . S
H332 C328 0.950 . S
C333 C331 1.390 . S
C333 C334 1.387 . S
C333 H336 0.950 . S
C334 C333 1.387 . S
C334 C337 1.387 . S
H335 C331 0.950 . S
H336 C333 0.950 . S
C337 C328 1.390 . S
C337 H330 0.950 . S
C337 C334 1.387 . S
C338 C339 1.387 . S
C338 H342 0.950 . S
C338 C347 1.390 . S
C339 C338 1.387 . S
C339 C341 1.387 . S
H340 C347 0.950 . S
C341 C339 1.387 . S
C341 C343 1.390 . S
C341 H345 0.950 . S
H342 C338 0.950 . S
C343 C341 1.390 . S
C343 C344 1.387 . S
C343 H346 0.950 . S
C344 C343 1.387 . S
C344 C347 1.387 . S
H345 C341 0.950 . S
H346 C343 0.950 . S
C347 C338 1.390 . S
C347 H340 0.950 . S
C347 C344 1.387 . S
C348 C349 1.387 . S
C348 H352 0.950 . S
C348 C357 1.390 . S
C349 C348 1.387 . S
C349 C351 1.387 . S
H350 C357 0.950 . S
C351 C349 1.387 . S
C351 C353 1.390 . S
C351 H355 0.950 . S
H352 C348 0.950 . S
C353 C351 1.390 . S
C353 C354 1.387 . S
C353 H356 0.950 . S
C354 C353 1.387 . S
C354 C357 1.387 . S
H355 C351 0.950 . S
H356 C353 0.950 . S
C357 C348 1.390 . S
C357 H350 0.950 . S
C357 C354 1.387 . S
C358 C359 1.387 . S
C358 H362 0.950 . S
C358 C367 1.390 . S
C359 C358 1.387 . S
C359 C361 1.387 . S
H360 C367 0.950 . S
C361 C359 1.387 . S
C361 C363 1.390 . S
C361 H365 0.950 . S
H362 C358 0.950 . S
C363 C361 1.390 . S
C363 C364 1.387 . S
C363 H366 0.950 . S
C364 C363 1.387 . S
C364 C367 1.387 . S
H365 C361 0.950 . S
H366 C363 0.950 . S
C367 C358 1.390 . S
C367 H360 0.950 . S
C367 C364 1.387 . S
C368 C369 1.387 . S
C368 H372 0.950 . S
C368 C377 1.390 1_554 S
C369 C368 1.387 . S
C369 C371 1.387 . S
H370 C377 0.950 . S
C371 C369 1.387 . S
C371 C373 1.390 1_554 S
C371 H375 0.950 . S
H372 C368 0.950 . S
C373 C371 1.390 1_556 S
C373 C374 1.387 . S
C373 H376 0.950 . S
C374 C373 1.387 . S
C374 C377 1.387 . S
H375 C371 0.950 . S
H376 C373 0.950 . S
C377 C368 1.390 1_556 S
C377 H370 0.950 . S
C377 C374 1.387 . S
C378 C379 1.387 . S
C378 H382 0.950 . S
C378 C387 1.390 . S
C379 C378 1.387 . S
C379 C381 1.387 . S
H380 C387 0.950 . S
C381 C379 1.387 . S
C381 C383 1.390 . S
C381 H385 0.950 . S
H382 C378 0.950 . S
C383 C381 1.390 . S
C383 C384 1.387 . S
C383 H386 0.950 . S
C384 C383 1.387 . S
C384 C387 1.387 . S
H385 C381 0.950 . S
H386 C383 0.950 . S
C387 C378 1.390 . S
C387 H380 0.950 . S
C387 C384 1.387 . S
C388 C389 1.387 . S
C388 H392 0.950 . S
C388 C397 1.390 . S
C389 C388 1.387 . S
C389 C391 1.387 . S
H390 C397 0.950 . S
C391 C389 1.387 . S
C391 C393 1.390 . S
C391 H395 0.950 . S
H392 C388 0.950 . S
C393 C391 1.390 . S
C393 C394 1.387 . S
C393 H396 0.950 . S
C394 C393 1.387 . S
C394 C397 1.387 . S
H395 C391 0.950 . S
H396 C393 0.950 . S
C397 C388 1.390 . S
C397 H390 0.950 . S
C397 C394 1.387 . S
C398 C399 1.387 . S
C398 H402 0.950 . S
C398 C407 1.390 1_556 S
C399 C398 1.387 . S
C399 C401 1.387 . S
H400 C407 0.950 . S
C401 C399 1.387 . S
C401 C403 1.390 1_556 S
C401 H405 0.950 . S
H402 C398 0.950 . S
C403 C401 1.390 1_554 S
C403 C404 1.387 . S
C403 H406 0.950 . S
C404 C403 1.387 . S
C404 C407 1.387 . S
H405 C401 0.950 . S
H406 C403 0.950 . S
C407 C398 1.390 1_554 S
C407 H400 0.950 . S
C407 C404 1.387 . S
C169 C7 1.465 . S
C174 C133 1.465 . S
C179 C21 1.466 . S
C184 C147 1.466 . S
C189 C35 1.470 . S
C194 C161 1.470 . S
C199 C49 1.466 . S
C204 C91 1.466 . S
C209 C105 1.470 . S
C214 C63 1.470 . S
C219 C119 1.465 . S
C224 C77 1.465 . S
C229 C146 1.494 . S
C234 C6 1.494 . S
C239 C20 1.495 . S
C244 C160 1.492 . S
C249 C34 1.495 . S
C254 C90 1.492 . S
C259 C48 1.494 . S
C264 C104 1.494 . S
C269 C62 1.492 . S
C274 C118 1.495 . S
C279 C76 1.495 . S
C284 C132 1.492 . S
C289 C148 1.553 . S
C294 C8 1.553 . S
C299 C22 1.554 . S
C304 C162 1.554 . S
C309 C36 1.554 . S
C314 C92 1.554 . S
C319 C50 1.554 . S
C324 C106 1.554 . S
C329 C64 1.554 . S
C334 C120 1.554 . S
C339 C78 1.554 . S
C344 C134 1.554 . S
C349 C9 1.700 . S
C354 C93 1.699 . S
C359 C107 1.699 . S
C364 C23 1.700 . S
C369 C37 1.700 . S
C374 C121 1.700 . S
C379 C51 1.699 . S
C384 C135 1.699 . S
C389 C65 1.699 . S
C394 C149 1.700 . S
C399 C163 1.699 . S
C404 C79 1.699 . S
