# Generated by pormake.
# Topology wme, (6)-cn, num edge types: 1
# Building blocks:
#     Node 0, Type 0, BuildingBlock: BETDAH_clean_sbu_0, # of connection points: 6
#     Node 1, Type 0, BuildingBlock: BETDAH_clean_sbu_0, # of connection points: 6
#     Node 2, Type 0, BuildingBlock: BETDAH_clean_sbu_0, # of connection points: 6
#     Node 3, Type 0, BuildingBlock: BETDAH_clean_sbu_0, # of connection points: 6
#     Node 4, Type 0, BuildingBlock: BETDAH_clean_sbu_0, # of connection points: 6
#     Node 5, Type 0, BuildingBlock: BETDAH_clean_sbu_0, # of connection points: 6
#     Node 6, Type 0, BuildingBlock: BETDAH_clean_sbu_0, # of connection points: 6
#     Node 7, Type 0, BuildingBlock: BETDAH_clean_sbu_0, # of connection points: 6
#     Node 8, Type 0, BuildingBlock: BETDAH_clean_sbu_0, # of connection points: 6
#     Node 9, Type 0, BuildingBlock: BETDAH_clean_sbu_0, # of connection points: 6
#     Node 10, Type 0, BuildingBlock: BETDAH_clean_sbu_0, # of connection points: 6
#     Node 11, Type 0, BuildingBlock: BETDAH_clean_sbu_0, # of connection points: 6
#     Edge 12, Type (0, 0), None
#     Edge 13, Type (0, 0), None
#     Edge 14, Type (0, 0), None
#     Edge 15, Type (0, 0), None
#     Edge 16, Type (0, 0), None
#     Edge 17, Type (0, 0), None
#     Edge 18, Type (0, 0), None
#     Edge 19, Type (0, 0), None
#     Edge 20, Type (0, 0), None
#     Edge 21, Type (0, 0), None
#     Edge 22, Type (0, 0), None
#     Edge 23, Type (0, 0), None
#     Edge 24, Type (0, 0), None
#     Edge 25, Type (0, 0), None
#     Edge 26, Type (0, 0), None
#     Edge 27, Type (0, 0), None
#     Edge 28, Type (0, 0), None
#     Edge 29, Type (0, 0), None
#     Edge 30, Type (0, 0), None
#     Edge 31, Type (0, 0), None
#     Edge 32, Type (0, 0), None
#     Edge 33, Type (0, 0), None
#     Edge 34, Type (0, 0), None
#     Edge 35, Type (0, 0), None
#     Edge 36, Type (0, 0), None
#     Edge 37, Type (0, 0), None
#     Edge 38, Type (0, 0), None
#     Edge 39, Type (0, 0), None
#     Edge 40, Type (0, 0), None
#     Edge 41, Type (0, 0), None
#     Edge 42, Type (0, 0), None
#     Edge 43, Type (0, 0), None
#     Edge 44, Type (0, 0), None
#     Edge 45, Type (0, 0), None
#     Edge 46, Type (0, 0), None
#     Edge 47, Type (0, 0), None
# Relax obj value: 0.130
# Max RMSD: 0.286
# Mean RMSD: 0.286
data_MOF--net-wme--node1-BETDAH_clean_sbu_0--edge1-none
_symmetry_space_group_name_H-M    P1
_symmetry_Int_Tables_number       1
_symmetry_cell_setting            triclinic
loop_
_symmetry_equiv_pos_as_xyz
'x, y, z'
_cell_length_a     23.579325
_cell_length_b     23.594857
_cell_length_c     21.750102
_cell_angle_alpha  89.987339
_cell_angle_beta   90.005665
_cell_angle_gamma 120.07512
loop_
_atom_site_label
_atom_site_type_symbol
_atom_site_fract_x
_atom_site_fract_y
_atom_site_fract_z
_atom_type_partial_charge
Ho0 Ho 0.23697 0.40121 0.05149 0.0
Ho1 Ho 0.27316 0.32968 0.1114 0.0
C2 C 0.38001 0.48337 0.08902 0.0
C3 C 0.20629 0.48359 0.0003 0.0
C4 C 0.18981 0.53465 0.02633 0.0
C5 C 0.22755 0.5792 0.07321 0.0
C6 C 0.21507 0.62919 0.09389 0.0
C7 C 0.16332 0.63699 0.07 0.0
C8 C 0.12429 0.59133 0.02423 0.0
C9 C 0.13773 0.54188 0.00264 0.0
C10 C 0.31936 0.34127 -0.01987 0.0
C11 C 0.11623 0.26777 0.08843 0.0
C12 C 0.29468 0.23624 0.14708 0.0
C13 C 0.27118 0.16669 0.12891 0.0
C14 C 0.31492 0.14962 0.10228 0.0
C15 C 0.29481 0.08417 0.08787 0.0
C16 C 0.23024 0.03364 0.09964 0.0
C17 C 0.18604 0.05076 0.12537 0.0
C18 C 0.20625 0.11629 0.13998 0.0
C19 C 0.24383 0.39857 0.19564 0.0
O20 O 0.32553 0.4842 0.0941 0.0
O21 O 0.37385 0.42405 0.08762 0.0
O22 O 0.16428 0.4212 0.00833 0.0
O23 O 0.26638 0.49491 0.0066 0.0
O24 O 0.26479 0.32939 0.00824 0.0
O25 O 0.26658 0.33178 0.00826 0.0
O26 O 0.16361 0.2538 0.09716 0.0
O27 O 0.13299 0.32843 0.0749 0.0
O28 O 0.2527 0.24914 0.17298 0.0
O29 O 0.33215 0.28206 0.10845 0.0
O30 O 0.29494 0.39138 0.19757 0.0
O31 O 0.21264 0.37183 0.14752 0.0
H32 H 0.26833 0.57669 0.09315 0.0
H33 H 0.24762 0.66335 0.12813 0.0
H34 H 0.08543 0.59592 0.00259 0.0
H35 H 0.10862 0.51038 0.96552 0.0
H36 H 0.36523 0.18694 0.09333 0.0
H37 H 0.33034 0.07311 0.06813 0.0
H38 H 0.13612 1.01332 0.1356 0.0
H39 H 0.17106 0.12721 0.16076 0.0
Ho40 Ho 0.88 0.23276 0.54713 0.0
Ho41 Ho 0.99189 0.26749 0.60342 0.0
C42 C 0.94056 0.37307 0.5918 0.0
C43 C 0.76688 0.20565 0.50078 0.0
C44 C 0.70169 0.18836 0.53162 0.0
C45 C 0.69567 0.23396 0.56914 0.0
C46 C 0.63483 0.21992 0.59488 0.0
C47 C 0.57669 0.15939 0.58501 0.0
C48 C 0.58282 0.11269 0.54919 0.0
C49 C 0.64404 0.12697 0.52298 0.0
C50 C 1.01337 0.32915 0.47523 0.0
C51 C 0.89653 0.11227 0.57086 0.0
C52 C 0.10659 0.28056 0.63043 0.0
C53 C 0.14698 0.25017 0.61005 0.0
C54 C 0.13622 0.18975 0.63395 0.0
C55 C 0.17823 0.16498 0.61907 0.0
C56 C 0.23276 0.19985 0.58001 0.0
C57 C 0.24211 0.25914 0.5547 0.0
C58 C 0.20019 0.28375 0.56943 0.0
C59 C 0.89409 0.2329 0.68991 0.0
O60 O 0.88562 0.31783 0.59683 0.0
O61 O 0.99493 0.36852 0.58921 0.0
O62 O 0.78694 0.16297 0.50303 0.0
O63 O 0.81604 0.26533 0.50816 0.0
O64 O 0.97978 0.27124 0.50106 0.0
O65 O 0.97873 0.27232 0.50129 0.0
O66 O 0.95743 0.15966 0.58119 0.0
O67 O 0.85159 0.12812 0.55996 0.0
O68 O 0.09852 0.31841 0.59206 0.0
O69 O 0.05313 0.24436 0.6614 0.0
O70 O 0.95289 0.28371 0.69318 0.0
O71 O 0.88948 0.20376 0.64026 0.0
H72 H 0.73797 0.2817 0.57778 0.0
H73 H 0.63308 0.25788 0.62137 0.0
H74 H 0.5397 0.06606 0.53897 0.0
H75 H 0.64594 0.09035 0.49451 0.0
H76 H 0.09621 0.16221 0.66562 0.0
H77 H 0.16943 0.11974 0.64026 0.0
H78 H 0.28335 0.28794 0.52461 0.0
H79 H 0.2107 0.33036 0.55012 0.0
Ho80 Ho 0.67468 0.86104 0.05391 0.0
Ho81 Ho 0.74373 0.9704 0.11577 0.0
C82 C 0.58874 0.91388 0.10332 0.0
C83 C 0.5869 0.74773 0.00655 0.0
C84 C 0.54116 0.67922 0.03352 0.0
C85 C 0.49657 0.67014 0.08116 0.0
C86 C 0.44834 0.60699 0.10132 0.0
C87 C 0.44222 0.54899 0.07587 0.0
C88 C 0.48856 0.55755 0.03004 0.0
C89 C 0.53684 0.62135 0.00917 0.0
C90 C 0.76609 1.00125 -0.01986 0.0
C91 C 0.81594 0.8866 0.0754 0.0
C92 C 0.83888 0.08729 0.14672 0.0
C93 C 0.90976 0.13058 0.12912 0.0
C94 C 0.9583 0.11377 0.14176 0.0
C95 C 1.02489 0.15693 0.12709 0.0
C96 C 1.045 0.21829 0.09958 0.0
C97 C 0.99613 0.23431 0.08624 0.0
C98 C 0.92989 0.19131 0.10072 0.0
C99 C 0.68364 0.86868 0.19776 0.0
O100 O 0.59186 0.85994 0.10508 0.0
O101 O 0.6455 0.96994 0.10447 0.0
O102 O 0.65022 0.77036 0.00319 0.0
O103 O 0.57537 0.79431 0.02256 0.0
O104 O 0.71521 0.96442 0.01532 0.0
O105 O 0.71686 0.96319 0.01484 0.0
O106 O 0.82369 0.94343 0.09474 0.0
O107 O 0.75831 0.8423 0.05515 0.0
O108 O 0.82264 0.03436 0.17806 0.0
O109 O 0.79487 0.07684 0.10531 0.0
O110 O 0.6872 0.92539 0.20328 0.0
O111 O 0.71088 0.86785 0.14807 0.0
H112 H 0.49716 0.71217 0.10185 0.0
H113 H 0.41373 0.60358 0.13594 0.0
H114 H 0.48522 0.51497 0.00771 0.0
H115 H 0.56938 0.62522 -0.02777 0.0
H116 H 0.94508 0.0676 0.16376 0.0
H117 H 0.06077 0.14278 0.13861 0.0
H118 H 1.00911 0.28089 0.06521 0.0
H119 H 0.89426 0.20615 0.09036 0.0
Ho120 Ho 0.85456 0.66327 0.54445 0.0
Ho121 Ho 0.82028 0.73992 0.60254 0.0
C122 C 0.71518 0.5836 0.59294 0.0
C123 C 0.88095 0.57599 0.49844 0.0
C124 C 0.90192 0.5296 0.52755 0.0
C125 C 0.86553 0.48568 0.57541 0.0
C126 C 0.8813 0.43884 0.59847 0.0
C127 C 0.93511 0.43383 0.57608 0.0
C128 C 0.97305 0.47921 0.52974 0.0
C129 C 0.95639 0.52548 0.50568 0.0
C130 C 0.75518 0.69884 0.47445 0.0
C131 C 0.97686 0.8007 0.57205 0.0
C132 C 0.80223 0.83755 0.63116 0.0
C133 C 0.82971 0.90739 0.61089 0.0
C134 C 0.79061 0.92576 0.57701 0.0
C135 C 0.81349 0.99167 0.56179 0.0
C136 C 0.87637 0.04152 0.57983 0.0
C137 C 0.91645 1.02303 0.61199 0.0
C138 C 0.89338 0.957 0.62753 0.0
C139 C 0.8561 0.67726 0.68767 0.0
O140 O 0.77054 0.58398 0.59561 0.0
O141 O 0.71941 0.64214 0.59055 0.0
O142 O 0.92261 0.63922 0.49733 0.0
O143 O 0.82168 0.56468 0.51021 0.0
O144 O 0.81356 0.72364 0.49981 0.0
O145 O 0.81265 0.72163 0.50005 0.0
O146 O 0.92961 0.81446 0.5831 0.0
O147 O 0.95983 0.73993 0.55859 0.0
O148 O 0.8406 0.82261 0.66132 0.0
O149 O 0.76564 0.79157 0.59238 0.0
O150 O 0.80558 0.68538 0.69255 0.0
O151 O 0.88413 0.70129 0.6375 0.0
H152 H 0.82308 0.48592 0.5941 0.0
H153 H 0.84948 0.40462 0.63306 0.0
H154 H 1.01348 0.47643 0.50954 0.0
H155 H 0.98478 0.5567 0.46802 0.0
H156 H 0.74143 0.88918 0.56341 0.0
H157 H 0.78108 1.00372 0.53698 0.0
H158 H 0.96483 0.05986 0.62725 0.0
H159 H 0.92508 0.94515 0.65381 0.0
Ho160 Ho 0.22597 0.84501 0.05197 0.0
Ho161 Ho 0.11278 0.80672 0.10889 0.0
C162 C 0.16066 0.69963 0.0848 0.0
C163 C 0.33872 0.87708 0.00243 0.0
C164 C 0.40229 0.88848 0.03198 0.0
C165 C 0.40563 0.83801 0.06374 0.0
C166 C 0.46496 0.84784 0.08947 0.0
C167 C 0.52386 0.90868 0.08522 0.0
C168 C 0.52032 0.95991 0.05507 0.0
C169 C 0.46069 0.94991 0.02894 0.0
C170 C 0.09011 0.76742 -0.02478 0.0
C171 C 0.21077 0.96352 0.08863 0.0
C172 C 0.99771 0.79175 0.13683 0.0
C173 C 0.95595 0.82037 0.11584 0.0
C174 C 0.96633 0.88128 0.13785 0.0
C175 C 0.92335 0.90467 0.12234 0.0
C176 C 0.86823 0.86792 0.08443 0.0
C177 C 0.85919 0.80808 0.06097 0.0
C178 C 0.90206 0.78479 0.07639 0.0
C179 C 0.2095 0.8314 0.19422 0.0
O180 O 0.21669 0.7535 0.09148 0.0
O181 O 0.10747 0.7064 0.08377 0.0
O182 O 0.31998 0.91972 0.01372 0.0
O183 O 0.28865 0.81718 0.00254 0.0
O184 O 0.12911 0.81978 0.00721 0.0
O185 O 0.12979 0.81826 0.00706 0.0
O186 O 0.14912 0.9161 0.09477 0.0
O187 O 0.2559 0.94782 0.07749 0.0
O188 O 1.00597 0.75331 0.09929 0.0
O189 O 0.05149 0.82969 0.1668 0.0
O190 O 0.14967 0.78227 0.19589 0.0
O191 O 0.21496 0.86459 0.14745 0.0
H192 H 0.36237 0.79004 0.06803 0.0
H193 H 0.46491 0.80669 0.11161 0.0
H194 H 0.56423 1.00715 0.04946 0.0
H195 H 0.46052 0.99014 0.00521 0.0
H196 H 1.0069 0.91038 0.1685 0.0
H197 H 0.93201 0.95046 0.14207 0.0
H198 H 0.81751 0.77785 0.03184 0.0
H199 H 0.89184 0.73775 0.05851 0.0
Ho200 Ho 0.42548 0.20493 0.55235 0.0
Ho201 Ho 0.35378 0.09285 0.61218 0.0
C202 C 0.51044 0.1518 0.60273 0.0
C203 C 0.5143 0.31892 0.50752 0.0
C204 C 0.5582 0.38712 0.53567 0.0
C205 C 0.60239 0.39654 0.58385 0.0
C206 C 0.6491 0.45982 0.60505 0.0
C207 C 0.65381 0.51742 0.58015 0.0
C208 C 0.60772 0.50834 0.53393 0.0
C209 C 0.5611 0.44453 0.51197 0.0
C210 C 0.33542 0.065 0.47807 0.0
C211 C 0.28454 0.18032 0.57175 0.0
C212 C 0.25462 0.97583 0.6376 0.0
C213 C 0.18412 0.9349 0.61642 0.0
C214 C 0.13567 0.95159 0.63025 0.0
C215 C 0.06914 0.90995 0.61377 0.0
C216 C 1.04863 0.85006 0.58299 0.0
C217 C 0.09753 0.83452 0.56781 0.0
C218 C 0.16377 0.87602 0.58416 0.0
C219 C 0.41219 0.19208 0.69561 0.0
O220 O 0.50655 0.20526 0.60568 0.0
O221 O 0.45377 0.09517 0.60225 0.0
O222 O 0.45107 0.29582 0.50162 0.0
O223 O 0.52582 0.27257 0.52448 0.0
O224 O 0.3863 0.10229 0.51299 0.0
O225 O 0.38438 0.10348 0.51247 0.0
O226 O 0.27588 0.12299 0.59084 0.0
O227 O 0.34258 0.22446 0.55238 0.0
O228 O 0.27084 1.02786 0.6704 0.0
O229 O 0.30083 0.98648 0.59871 0.0
O230 O 0.40711 0.13469 0.70147 0.0
O231 O 0.38651 0.19457 0.64554 0.0
H232 H 0.6028 0.3548 0.60405 0.0
H233 H 0.68381 0.46375 0.63981 0.0
H234 H 0.61029 0.55074 0.51201 0.0
H235 H 0.52889 0.44034 0.4746 0.0
H236 H 0.14882 0.99633 0.655 0.0
H237 H 1.03346 0.92382 0.62692 0.0
H238 H 0.08444 0.78913 0.54426 0.0
H239 H 0.19911 0.86117 0.57255 0.0
Ho240 Ho 0.67592 0.83259 0.3964 0.0
Ho241 Ho 0.74892 0.79623 0.33622 0.0
C242 C 0.59365 0.69205 0.35209 0.0
C243 C 0.59223 0.86256 0.44562 0.0
C244 C 0.54339 0.88145 0.4183 0.0
C245 C 0.49471 0.84055 0.37568 0.0
C246 C 0.44613 0.85451 0.35418 0.0
C247 C 0.44325 0.91053 0.37328 0.0
C248 C 0.49321 0.95298 0.4144 0.0
C249 C 0.54199 0.93862 0.43645 0.0
C250 C 0.71592 0.73619 0.46627 0.0
C251 C 0.81313 0.95247 0.36701 0.0
C252 C 0.84384 0.77607 0.30273 0.0
C253 C 0.91387 0.8022 0.3211 0.0
C254 C 0.93243 0.76116 0.35102 0.0
C255 C 0.99836 0.7833 0.36525 0.0
C256 C 1.04799 0.84727 0.34999 0.0
C257 C 1.02938 0.88904 0.32142 0.0
C258 C 0.96326 0.86678 0.30704 0.0
C259 C 0.68397 0.8309 0.25241 0.0
O260 O 0.59417 0.74741 0.34884 0.0
O261 O 0.6521 0.69611 0.35279 0.0
O262 O 0.65529 0.90403 0.4415 0.0
O263 O 0.58022 0.80256 0.43701 0.0
O264 O 0.73897 0.79381 0.43973 0.0
O265 O 0.73673 0.79268 0.43948 0.0
O266 O 0.82557 0.90454 0.35532 0.0
O267 O 0.7529 0.93685 0.3809 0.0
O268 O 0.82922 0.81572 0.27459 0.0
O269 O 0.79869 0.73948 0.34226 0.0
O270 O 0.6909 0.77973 0.24813 0.0
O271 O 0.70995 0.8601 0.30173 0.0
H272 H 0.49285 0.79615 0.35977 0.0
H273 H 0.40896 0.81958 0.32335 0.0
H274 H 0.49289 0.99575 0.43197 0.0
H275 H 0.57773 0.97156 0.46939 0.0
H276 H 0.89592 0.71127 0.36255 0.0
H277 H 1.01053 0.74964 0.38739 0.0
H278 H 0.06609 0.93838 0.30854 0.0
H279 H 0.95112 0.89998 0.28392 0.0
Ho280 Ho 0.88268 0.66162 0.88464 0.0
Ho281 Ho 0.99491 0.7354 0.82525 0.0
C282 C 0.93754 0.57862 0.83346 0.0
C283 C 0.77091 0.57192 0.9309 0.0
C284 C 0.7045 0.52566 0.90176 0.0
C285 C 0.6968 0.47517 0.86162 0.0
C286 C 0.63481 0.42809 0.83869 0.0
C287 C 0.5773 0.42933 0.85405 0.0
C288 C 0.58487 0.48127 0.89212 0.0
C289 C 0.64731 0.52843 0.91573 0.0
C290 C 1.01935 0.75057 0.96176 0.0
C291 C 0.90677 0.80261 0.86763 0.0
C292 C 0.11114 0.83733 0.80203 0.0
C293 C 0.14999 0.90814 0.82385 0.0
C294 C 0.13918 0.95792 0.80034 0.0
C295 C 0.17971 1.02461 0.81733 0.0
C296 C 0.23273 0.04416 0.85845 0.0
C297 C 0.24201 0.99397 0.88326 0.0
C298 C 0.20168 0.92763 0.86633 0.0
C299 C 0.895 0.67758 0.74154 0.0
O300 O 0.8836 0.58177 0.83018 0.0
O301 O 0.99382 0.63582 0.83442 0.0
O302 O 0.79118 0.63471 0.93432 0.0
O303 O 0.8191 0.56222 0.91658 0.0
O304 O 0.98492 0.70204 0.9239 0.0
O305 O 0.98367 0.70346 0.92448 0.0
O306 O 0.96442 0.81191 0.84916 0.0
O307 O 0.86224 0.74407 0.8856 0.0
O308 O 0.05962 0.8196 0.76785 0.0
O309 O 0.101 0.79109 0.84076 0.0
O310 O 0.95269 0.6832 0.73537 0.0
O311 O 0.89248 0.70225 0.79219 0.0
H312 H 0.73867 0.47049 0.84905 0.0
H313 H 0.63168 0.38894 0.81024 0.0
H314 H 0.54206 0.48355 0.90643 0.0
H315 H 0.65047 0.56598 0.94652 0.0
H316 H 0.10018 0.94565 0.76752 0.0
H317 H 0.17093 0.06114 0.79635 0.0
H318 H 0.28206 1.00611 0.9148 0.0
H319 H 0.21223 0.89156 0.88559 0.0
Ho320 Ho 0.23805 0.85356 0.39398 0.0
Ho321 Ho 0.27504 0.96342 0.33521 0.0
C322 C 0.38156 0.91495 0.35829 0.0
C323 C 0.20619 0.74087 0.44478 0.0
C324 C 0.19153 0.6752 0.41676 0.0
C325 C 0.23719 0.66992 0.37872 0.0
C326 C 0.22508 0.60872 0.35551 0.0
C327 C 0.16639 0.54939 0.36831 0.0
C328 C 0.11953 0.55477 0.40447 0.0
C329 C 0.13213 0.61635 0.42848 0.0
C330 C 0.31973 0.99388 0.46568 0.0
C331 C 0.11857 0.86766 0.35979 0.0
C332 C 0.29255 0.07833 0.30292 0.0
C333 C 0.26721 0.12295 0.32291 0.0
C334 C 0.20204 0.10781 0.31157 0.0
C335 C 0.18062 0.15236 0.32668 0.0
C336 C 0.22368 0.21372 0.35333 0.0
C337 C 0.28836 0.22811 0.36567 0.0
C338 C 0.30967 0.18364 0.35072 0.0
C339 C 0.24578 0.86522 0.25072 0.0
O340 O 0.32698 0.85976 0.35198 0.0
O341 O 0.37566 0.96851 0.35932 0.0
O342 O 0.16408 0.76074 0.43535 0.0
O343 O 0.26646 0.79009 0.44145 0.0
O344 O 0.265 0.95201 0.43775 0.0
O345 O 0.26699 0.95142 0.43765 0.0
O346 O 0.16603 0.929 0.35156 0.0
O347 O 0.13457 0.82293 0.37135 0.0
O348 O 0.33158 0.07052 0.33999 0.0
O349 O 0.25173 1.02346 0.27611 0.0
O350 O 0.29667 0.92388 0.24869 0.0
O351 O 0.21436 0.8608 0.29854 0.0
H352 H 0.28346 0.71317 0.36774 0.0
H353 H 0.2632 0.60777 0.32852 0.0
H354 H 0.07429 0.51097 0.41649 0.0
H355 H 0.096 0.61795 0.4578 0.0
H356 H 0.16766 0.06192 0.28988 0.0
H357 H 0.13069 0.13933 0.3159 0.0
H358 H 0.32334 0.27465 0.38596 0.0
H359 H 0.36014 0.19747 0.35991 0.0
Ho360 Ho 0.42439 0.23275 0.89282 0.0
Ho361 Ho 0.3554 0.2734 0.83168 0.0
C362 C 0.51076 0.37014 0.83985 0.0
C363 C 0.51443 0.20784 0.93656 0.0
C364 C 0.55916 0.18349 0.9091 0.0
C365 C 0.60222 0.21672 0.85965 0.0
C366 C 0.64981 0.20076 0.83914 0.0
C367 C 0.65706 0.14994 0.86591 0.0
C368 C 0.61243 0.11467 0.91393 0.0
C369 C 0.5649 0.1313 0.93514 0.0
C370 C 0.33392 0.28448 0.96591 0.0
C371 C 0.28347 0.11581 0.86951 0.0
C372 C 0.26136 0.29677 0.80153 0.0
C373 C 0.19061 0.26886 0.81878 0.0
C374 C 0.17043 0.30891 0.84811 0.0
C375 C 0.10415 0.28532 0.86226 0.0
C376 C 0.05558 0.22067 0.84768 0.0
C377 C 0.0758 0.17989 0.81955 0.0
C378 C 0.14236 0.20367 0.80517 0.0
C379 C 0.41308 0.23091 0.74931 0.0
O380 O 0.5063 0.31253 0.83897 0.0
O381 O 0.4547 0.37067 0.8406 0.0
O382 O 0.45118 0.1678 0.94323 0.0
O383 O 0.52538 0.26533 0.91889 0.0
O384 O 0.38572 0.29756 0.93206 0.0
O385 O 0.38353 0.29414 0.9324 0.0
O386 O 0.2756 0.16482 0.84974 0.0
O387 O 0.34074 0.12997 0.89158 0.0
O388 O 0.27762 0.26081 0.76914 0.0
O389 O 0.30478 0.32882 0.84376 0.0
O390 O 0.41026 0.28441 0.74342 0.0
O391 O 0.38676 0.20321 0.79932 0.0
H392 H 0.60103 0.25731 0.83772 0.0
H393 H 0.68312 0.23047 0.80302 0.0
H394 H 0.61661 0.0766 0.93769 0.0
H395 H 0.53418 0.10474 -0.02617 0.0
H396 H 0.20602 0.35919 0.8594 0.0
H397 H 0.09087 0.31837 0.88394 0.0
H398 H 1.04001 0.13006 0.80711 0.0
H399 H 0.15578 0.17116 0.78259 0.0
Ho400 Ho 0.22169 0.40171 0.39499 0.0
Ho401 Ho 0.10968 0.32758 0.33737 0.0
C402 C 0.16195 0.48384 0.35306 0.0
C403 C 0.33502 0.48404 0.44417 0.0
C404 C 0.40134 0.53239 0.41542 0.0
C405 C 0.40752 0.58133 0.37407 0.0
C406 C 0.46915 0.62945 0.35091 0.0
C407 C 0.52808 0.63108 0.36715 0.0
C408 C 0.52201 0.58061 0.40651 0.0
C409 C 0.45987 0.53234 0.4303 0.0
C410 C 0.08906 0.36605 0.46659 0.0
C411 C 0.20388 0.26479 0.36375 0.0
C412 C 0.99388 0.22943 0.30828 0.0
C413 C 0.95143 0.15892 0.32774 0.0
C414 C 0.96599 0.10966 0.31111 0.0
C415 C 0.92295 0.04316 0.32595 0.0
C416 C 0.86376 1.02367 0.35756 0.0
C417 C 0.85022 0.07322 0.3754 0.0
C418 C 0.89318 0.13947 0.36077 0.0
C419 C 0.20714 0.39567 0.25211 0.0
O420 O 0.21718 0.48384 0.34968 0.0
O421 O 0.10728 0.42517 0.35315 0.0
O422 O 0.31357 0.42115 0.43928 0.0
O423 O 0.28705 0.49629 0.43693 0.0
O424 O 0.12135 0.34059 0.44022 0.0
O425 O 0.12247 0.34282 0.43993 0.0
O426 O 0.14304 0.25211 0.35448 0.0
O427 O 0.24893 0.32511 0.37677 0.0
O428 O 1.04735 0.24528 0.27786 0.0
O429 O 1.00306 0.27499 0.34756 0.0
O430 O 0.14814 0.38699 0.24978 0.0
O431 O 0.21193 0.36841 0.29989 0.0
H432 H 0.3646 0.58379 0.36056 0.0
H433 H 0.4708 0.66723 0.32138 0.0
H434 H 0.56563 0.58027 0.42141 0.0
H435 H 0.4579 0.49593 0.4619 0.0
H436 H 1.01009 0.1222 0.28542 0.0
H437 H 0.9351 1.00679 0.31085 0.0
H438 H 0.80536 0.06071 0.39974 0.0
H439 H 0.87995 0.17553 0.37429 0.0
Ho440 Ho 0.86236 0.21023 0.88882 0.0
Ho441 Ho 0.82824 0.09976 0.83308 0.0
C442 C 0.71926 0.14601 0.85172 0.0
C443 C 0.89022 0.32358 0.93521 0.0
C444 C 0.9049 0.38821 0.90455 0.0
C445 C 0.8584 0.39305 0.86724 0.0
C446 C 0.87102 0.45364 0.84164 0.0
C447 C 0.93092 0.51266 0.85144 0.0
C448 C 0.97833 0.50758 0.88718 0.0
C449 C 0.96536 0.44672 0.91323 0.0
C450 C 0.78159 0.07214 0.96501 0.0
C451 C 0.98441 0.19867 0.85762 0.0
C452 C 0.81371 0.98489 0.80532 0.0
C453 C 0.84145 0.94279 0.82706 0.0
C454 C 0.90367 0.95447 0.80774 0.0
C455 C 0.92657 0.91131 0.82364 0.0
C456 C 0.88793 0.85466 0.85909 0.0
C457 C 0.82667 0.84419 0.87994 0.0
C458 C 0.8039 0.88736 0.86421 0.0
C459 C 0.85769 0.19583 0.74567 0.0
O460 O 0.77333 0.20135 0.84412 0.0
O461 O 0.7264 0.09324 0.8551 0.0
O462 O 0.93349 0.30453 0.92984 0.0
O463 O 0.8305 0.27358 0.93093 0.0
O464 O 0.83581 0.11314 0.93578 0.0
O465 O 0.83406 0.11379 0.93563 0.0
O466 O 0.93784 0.13677 0.85026 0.0
O467 O 0.96688 0.24253 0.86802 0.0
O468 O 0.77439 0.99289 0.84182 0.0
O469 O 0.85276 0.03894 0.77642 0.0
O470 O 0.80784 0.13646 0.74348 0.0
O471 O 0.88823 0.20172 0.7945 0.0
H472 H 0.81121 0.34999 0.85857 0.0
H473 H 0.83259 0.45442 0.81506 0.0
H474 H 1.02454 0.55121 0.89737 0.0
H475 H 1.00216 0.44542 0.94171 0.0
H476 H 0.93423 0.99618 0.77881 0.0
H477 H 0.97358 0.92108 0.806 0.0
H478 H 0.79505 0.80125 0.90705 0.0
H479 H 0.75578 0.87621 0.87987 0.0
loop_
_geom_bond_atom_site_label_1
_geom_bond_atom_site_label_2
_geom_bond_distance
_geom_bond_site_symmetry_2
_ccdc_geom_bond_type
Ho0 C3 2.811 . S
Ho0 O20 2.322 . S
Ho0 O22 2.378 1_554 S
Ho0 O23 2.524 . S
Ho0 O24 2.381 1_554 S
Ho0 O25 2.669 . S
Ho0 O27 2.346 . S
Ho0 O31 2.305 . S
Ho1 C12 2.811 . S
Ho1 O21 2.346 . S
Ho1 O25 2.305 . S
Ho1 O26 2.322 . S
Ho1 O28 2.378 . S
Ho1 O29 2.524 . S
Ho1 O30 2.381 . S
Ho1 O31 2.669 . S
C2 O20 1.259 . S
C2 O21 1.268 . S
C3 Ho0 2.811 . S
C3 C4 1.488 . S
C3 O22 1.215 1_554 S
C3 O23 1.289 . S
C4 C3 1.488 . S
C4 C5 1.348 . S
C4 C9 1.413 1_554 S
C5 C4 1.348 . S
C5 C6 1.442 . S
C5 H32 0.930 . S
C6 C5 1.442 . S
C6 C7 1.381 . S
C6 H33 0.931 . S
C7 C6 1.381 . S
C7 C8 1.321 1_554 S
C8 C7 1.321 1_556 S
C8 C9 1.403 . S
C8 H34 0.934 . S
C9 C4 1.413 1_556 S
C9 C8 1.403 . S
C9 H35 0.930 . S
C10 O24 1.275 . S
C10 O25 1.256 1_556 S
C11 O26 1.259 . S
C11 O27 1.268 . S
C12 Ho1 2.811 . S
C12 C13 1.488 . S
C12 O28 1.215 . S
C12 O29 1.289 . S
C13 C12 1.488 . S
C13 C14 1.348 . S
C13 C18 1.413 . S
C14 C13 1.348 . S
C14 C15 1.442 1_545 S
C14 H36 0.930 . S
C15 C14 1.442 1_565 S
C15 C16 1.381 . S
C15 H37 0.931 . S
C16 C15 1.381 . S
C16 C17 1.321 1_565 S
C17 C16 1.321 1_545 S
C17 C18 1.403 . S
C17 H38 0.934 . S
C18 C13 1.413 . S
C18 C17 1.403 . S
C18 H39 0.930 . S
C19 O30 1.275 . S
C19 O31 1.256 . S
O20 Ho0 2.322 . S
O20 C2 1.259 . S
O21 Ho1 2.346 . S
O21 C2 1.268 . S
O22 Ho0 2.378 1_556 S
O22 C3 1.215 1_556 S
O23 Ho0 2.524 . S
O23 C3 1.289 . S
O24 Ho0 2.381 1_556 S
O24 C10 1.275 . S
O25 Ho0 2.669 . S
O25 Ho1 2.305 . S
O25 C10 1.256 1_554 S
O26 Ho1 2.322 . S
O26 C11 1.259 . S
O27 Ho0 2.346 . S
O27 C11 1.268 . S
O28 Ho1 2.378 . S
O28 C12 1.215 . S
O29 Ho1 2.524 . S
O29 C12 1.289 . S
O30 Ho1 2.381 . S
O30 C19 1.275 . S
O31 Ho0 2.305 . S
O31 Ho1 2.669 . S
O31 C19 1.256 . S
H32 C5 0.930 . S
H33 C6 0.931 . S
H34 C8 0.934 . S
H35 C9 0.930 . S
H36 C14 0.930 . S
H37 C15 0.931 . S
H38 C17 0.934 . S
H39 C18 0.930 . S
Ho40 C43 2.811 . S
Ho40 O60 2.322 . S
Ho40 O62 2.378 . S
Ho40 O63 2.524 . S
Ho40 O64 2.381 . S
Ho40 O65 2.669 . S
Ho40 O67 2.346 . S
Ho40 O71 2.305 . S
Ho41 C52 2.811 1_655 S
Ho41 O61 2.346 . S
Ho41 O65 2.305 . S
Ho41 O66 2.322 . S
Ho41 O68 2.378 1_655 S
Ho41 O69 2.524 1_655 S
Ho41 O70 2.381 . S
Ho41 O71 2.669 . S
C42 O60 1.259 . S
C42 O61 1.268 . S
C43 Ho40 2.811 . S
C43 C44 1.488 . S
C43 O62 1.215 . S
C43 O63 1.289 . S
C44 C43 1.488 . S
C44 C45 1.348 . S
C44 C49 1.413 . S
C45 C44 1.348 . S
C45 C46 1.442 . S
C45 H72 0.930 . S
C46 C45 1.442 . S
C46 C47 1.381 . S
C46 H73 0.931 . S
C47 C46 1.381 . S
C47 C48 1.321 . S
C48 C47 1.321 . S
C48 C49 1.403 . S
C48 H74 0.934 . S
C49 C44 1.413 . S
C49 C48 1.403 . S
C49 H75 0.930 . S
C50 O64 1.275 . S
C50 O65 1.256 . S
C51 O66 1.259 . S
C51 O67 1.268 . S
C52 Ho41 2.811 1_455 S
C52 C53 1.488 . S
C52 O68 1.215 . S
C52 O69 1.289 . S
C53 C52 1.488 . S
C53 C54 1.348 . S
C53 C58 1.413 . S
C54 C53 1.348 . S
C54 C55 1.442 . S
C54 H76 0.930 . S
C55 C54 1.442 . S
C55 C56 1.381 . S
C55 H77 0.931 . S
C56 C55 1.381 . S
C56 C57 1.321 . S
C57 C56 1.321 . S
C57 C58 1.403 . S
C57 H78 0.934 . S
C58 C53 1.413 . S
C58 C57 1.403 . S
C58 H79 0.930 . S
C59 O70 1.275 . S
C59 O71 1.256 . S
O60 Ho40 2.322 . S
O60 C42 1.259 . S
O61 Ho41 2.346 . S
O61 C42 1.268 . S
O62 Ho40 2.378 . S
O62 C43 1.215 . S
O63 Ho40 2.524 . S
O63 C43 1.289 . S
O64 Ho40 2.381 . S
O64 C50 1.275 . S
O65 Ho40 2.669 . S
O65 Ho41 2.305 . S
O65 C50 1.256 . S
O66 Ho41 2.322 . S
O66 C51 1.259 . S
O67 Ho40 2.346 . S
O67 C51 1.268 . S
O68 Ho41 2.378 1_455 S
O68 C52 1.215 . S
O69 Ho41 2.524 1_455 S
O69 C52 1.289 . S
O70 Ho41 2.381 . S
O70 C59 1.275 . S
O71 Ho40 2.305 . S
O71 Ho41 2.669 . S
O71 C59 1.256 . S
H72 C45 0.930 . S
H73 C46 0.931 . S
H74 C48 0.934 . S
H75 C49 0.930 . S
H76 C54 0.930 . S
H77 C55 0.931 . S
H78 C57 0.934 . S
H79 C58 0.930 . S
Ho80 C83 2.811 . S
Ho80 O100 2.322 . S
Ho80 O102 2.378 1_554 S
Ho80 O103 2.524 . S
Ho80 O104 2.381 1_554 S
Ho80 O105 2.669 . S
Ho80 O107 2.346 . S
Ho80 O111 2.305 . S
Ho81 C92 2.811 1_565 S
Ho81 O101 2.346 . S
Ho81 O105 2.305 . S
Ho81 O106 2.322 . S
Ho81 O108 2.378 1_565 S
Ho81 O109 2.524 1_565 S
Ho81 O110 2.381 . S
Ho81 O111 2.669 . S
C82 O100 1.259 . S
C82 O101 1.268 . S
C83 Ho80 2.811 . S
C83 C84 1.488 . S
C83 O102 1.215 1_554 S
C83 O103 1.289 . S
C84 C83 1.488 . S
C84 C85 1.348 . S
C84 C89 1.413 1_554 S
C85 C84 1.348 . S
C85 C86 1.442 . S
C85 H112 0.930 . S
C86 C85 1.442 . S
C86 C87 1.381 . S
C86 H113 0.931 . S
C87 C86 1.381 . S
C87 C88 1.321 1_554 S
C88 C87 1.321 1_556 S
C88 C89 1.403 . S
C88 H114 0.934 . S
C89 C84 1.413 1_556 S
C89 C88 1.403 . S
C89 H115 0.930 . S
C90 O104 1.275 . S
C90 O105 1.256 1_556 S
C91 O106 1.259 . S
C91 O107 1.268 . S
C92 Ho81 2.811 1_545 S
C92 C93 1.488 . S
C92 O108 1.215 . S
C92 O109 1.289 . S
C93 C92 1.488 . S
C93 C94 1.348 . S
C93 C98 1.413 . S
C94 C93 1.348 . S
C94 C95 1.442 1_655 S
C94 H116 0.930 . S
C95 C94 1.442 1_455 S
C95 C96 1.381 . S
C95 H117 0.931 . S
C96 C95 1.381 . S
C96 C97 1.321 1_455 S
C97 C96 1.321 1_655 S
C97 C98 1.403 . S
C97 H118 0.934 . S
C98 C93 1.413 . S
C98 C97 1.403 . S
C98 H119 0.930 . S
C99 O110 1.275 . S
C99 O111 1.256 . S
O100 Ho80 2.322 . S
O100 C82 1.259 . S
O101 Ho81 2.346 . S
O101 C82 1.268 . S
O102 Ho80 2.378 1_556 S
O102 C83 1.215 1_556 S
O103 Ho80 2.524 . S
O103 C83 1.289 . S
O104 Ho80 2.381 1_556 S
O104 C90 1.275 . S
O105 Ho80 2.669 . S
O105 Ho81 2.305 . S
O105 C90 1.256 1_554 S
O106 Ho81 2.322 . S
O106 C91 1.259 . S
O107 Ho80 2.346 . S
O107 C91 1.268 . S
O108 Ho81 2.378 1_545 S
O108 C92 1.215 . S
O109 Ho81 2.524 1_545 S
O109 C92 1.289 . S
O110 Ho81 2.381 . S
O110 C99 1.275 . S
O111 Ho80 2.305 . S
O111 Ho81 2.669 . S
O111 C99 1.256 . S
H112 C85 0.930 . S
H113 C86 0.931 . S
H114 C88 0.934 . S
H115 C89 0.930 . S
H116 C94 0.930 . S
H117 C95 0.931 . S
H118 C97 0.934 . S
H119 C98 0.930 . S
Ho120 C123 2.811 . S
Ho120 O140 2.322 . S
Ho120 O142 2.378 . S
Ho120 O143 2.524 . S
Ho120 O144 2.381 . S
Ho120 O145 2.669 . S
Ho120 O147 2.346 . S
Ho120 O151 2.305 . S
Ho121 C132 2.811 . S
Ho121 O141 2.346 . S
Ho121 O145 2.305 . S
Ho121 O146 2.322 . S
Ho121 O148 2.378 . S
Ho121 O149 2.524 . S
Ho121 O150 2.381 . S
Ho121 O151 2.669 . S
C122 O140 1.259 . S
C122 O141 1.268 . S
C123 Ho120 2.811 . S
C123 C124 1.488 . S
C123 O142 1.215 . S
C123 O143 1.289 . S
C124 C123 1.488 . S
C124 C125 1.348 . S
C124 C129 1.413 . S
C125 C124 1.348 . S
C125 C126 1.442 . S
C125 H152 0.930 . S
C126 C125 1.442 . S
C126 C127 1.381 . S
C126 H153 0.931 . S
C127 C126 1.381 . S
C127 C128 1.321 . S
C128 C127 1.321 . S
C128 C129 1.403 . S
C128 H154 0.934 . S
C129 C124 1.413 . S
C129 C128 1.403 . S
C129 H155 0.930 . S
C130 O144 1.275 . S
C130 O145 1.256 . S
C131 O146 1.259 . S
C131 O147 1.268 . S
C132 Ho121 2.811 . S
C132 C133 1.488 . S
C132 O148 1.215 . S
C132 O149 1.289 . S
C133 C132 1.488 . S
C133 C134 1.348 . S
C133 C138 1.413 . S
C134 C133 1.348 . S
C134 C135 1.442 1_565 S
C134 H156 0.930 . S
C135 C134 1.442 1_545 S
C135 C136 1.381 . S
C135 H157 0.931 . S
C136 C135 1.381 . S
C136 C137 1.321 1_545 S
C137 C136 1.321 1_565 S
C137 C138 1.403 . S
C137 H158 0.934 . S
C138 C133 1.413 . S
C138 C137 1.403 . S
C138 H159 0.930 . S
C139 O150 1.275 . S
C139 O151 1.256 . S
O140 Ho120 2.322 . S
O140 C122 1.259 . S
O141 Ho121 2.346 . S
O141 C122 1.268 . S
O142 Ho120 2.378 . S
O142 C123 1.215 . S
O143 Ho120 2.524 . S
O143 C123 1.289 . S
O144 Ho120 2.381 . S
O144 C130 1.275 . S
O145 Ho120 2.669 . S
O145 Ho121 2.305 . S
O145 C130 1.256 . S
O146 Ho121 2.322 . S
O146 C131 1.259 . S
O147 Ho120 2.346 . S
O147 C131 1.268 . S
O148 Ho121 2.378 . S
O148 C132 1.215 . S
O149 Ho121 2.524 . S
O149 C132 1.289 . S
O150 Ho121 2.381 . S
O150 C139 1.275 . S
O151 Ho120 2.305 . S
O151 Ho121 2.669 . S
O151 C139 1.256 . S
H152 C125 0.930 . S
H153 C126 0.931 . S
H154 C128 0.934 . S
H155 C129 0.930 . S
H156 C134 0.930 . S
H157 C135 0.931 . S
H158 C137 0.934 . S
H159 C138 0.930 . S
Ho160 C163 2.811 . S
Ho160 O180 2.322 . S
Ho160 O182 2.378 1_554 S
Ho160 O183 2.524 . S
Ho160 O184 2.381 1_554 S
Ho160 O185 2.669 . S
Ho160 O187 2.346 . S
Ho160 O191 2.305 . S
Ho161 C172 2.811 1_455 S
Ho161 O181 2.346 . S
Ho161 O185 2.305 . S
Ho161 O186 2.322 . S
Ho161 O188 2.378 1_455 S
Ho161 O189 2.524 1_455 S
Ho161 O190 2.381 . S
Ho161 O191 2.669 . S
C162 O180 1.259 . S
C162 O181 1.268 . S
C163 Ho160 2.811 . S
C163 C164 1.488 . S
C163 O182 1.215 1_554 S
C163 O183 1.289 . S
C164 C163 1.488 . S
C164 C165 1.348 . S
C164 C169 1.413 1_554 S
C165 C164 1.348 . S
C165 C166 1.442 . S
C165 H192 0.930 . S
C166 C165 1.442 . S
C166 C167 1.381 . S
C166 H193 0.931 . S
C167 C166 1.381 . S
C167 C168 1.321 1_554 S
C168 C167 1.321 1_556 S
C168 C169 1.403 . S
C168 H194 0.934 . S
C169 C164 1.413 1_556 S
C169 C168 1.403 . S
C169 H195 0.930 . S
C170 O184 1.275 . S
C170 O185 1.256 1_556 S
C171 O186 1.259 . S
C171 O187 1.268 . S
C172 Ho161 2.811 1_655 S
C172 C173 1.488 . S
C172 O188 1.215 . S
C172 O189 1.289 . S
C173 C172 1.488 . S
C173 C174 1.348 . S
C173 C178 1.413 . S
C174 C173 1.348 . S
C174 C175 1.442 . S
C174 H196 0.930 . S
C175 C174 1.442 . S
C175 C176 1.381 . S
C175 H197 0.931 . S
C176 C175 1.381 . S
C176 C177 1.321 . S
C177 C176 1.321 . S
C177 C178 1.403 . S
C177 H198 0.934 . S
C178 C173 1.413 . S
C178 C177 1.403 . S
C178 H199 0.930 . S
C179 O190 1.275 . S
C179 O191 1.256 . S
O180 Ho160 2.322 . S
O180 C162 1.259 . S
O181 Ho161 2.346 . S
O181 C162 1.268 . S
O182 Ho160 2.378 1_556 S
O182 C163 1.215 1_556 S
O183 Ho160 2.524 . S
O183 C163 1.289 . S
O184 Ho160 2.381 1_556 S
O184 C170 1.275 . S
O185 Ho160 2.669 . S
O185 Ho161 2.305 . S
O185 C170 1.256 1_554 S
O186 Ho161 2.322 . S
O186 C171 1.259 . S
O187 Ho160 2.346 . S
O187 C171 1.268 . S
O188 Ho161 2.378 1_655 S
O188 C172 1.215 . S
O189 Ho161 2.524 1_655 S
O189 C172 1.289 . S
O190 Ho161 2.381 . S
O190 C179 1.275 . S
O191 Ho160 2.305 . S
O191 Ho161 2.669 . S
O191 C179 1.256 . S
H192 C165 0.930 . S
H193 C166 0.931 . S
H194 C168 0.934 . S
H195 C169 0.930 . S
H196 C174 0.930 . S
H197 C175 0.931 . S
H198 C177 0.934 . S
H199 C178 0.930 . S
Ho200 C203 2.811 . S
Ho200 O220 2.322 . S
Ho200 O222 2.378 . S
Ho200 O223 2.524 . S
Ho200 O224 2.381 . S
Ho200 O225 2.669 . S
Ho200 O227 2.346 . S
Ho200 O231 2.305 . S
Ho201 C212 2.811 1_545 S
Ho201 O221 2.346 . S
Ho201 O225 2.305 . S
Ho201 O226 2.322 . S
Ho201 O228 2.378 1_545 S
Ho201 O229 2.524 1_545 S
Ho201 O230 2.381 . S
Ho201 O231 2.669 . S
C202 O220 1.259 . S
C202 O221 1.268 . S
C203 Ho200 2.811 . S
C203 C204 1.488 . S
C203 O222 1.215 . S
C203 O223 1.289 . S
C204 C203 1.488 . S
C204 C205 1.348 . S
C204 C209 1.413 . S
C205 C204 1.348 . S
C205 C206 1.442 . S
C205 H232 0.930 . S
C206 C205 1.442 . S
C206 C207 1.381 . S
C206 H233 0.931 . S
C207 C206 1.381 . S
C207 C208 1.321 . S
C208 C207 1.321 . S
C208 C209 1.403 . S
C208 H234 0.934 . S
C209 C204 1.413 . S
C209 C208 1.403 . S
C209 H235 0.930 . S
C210 O224 1.275 . S
C210 O225 1.256 . S
C211 O226 1.259 . S
C211 O227 1.268 . S
C212 Ho201 2.811 1_565 S
C212 C213 1.488 . S
C212 O228 1.215 . S
C212 O229 1.289 . S
C213 C212 1.488 . S
C213 C214 1.348 . S
C213 C218 1.413 . S
C214 C213 1.348 . S
C214 C215 1.442 1_455 S
C214 H236 0.930 . S
C215 C214 1.442 1_655 S
C215 C216 1.381 . S
C215 H237 0.931 . S
C216 C215 1.381 . S
C216 C217 1.321 1_655 S
C217 C216 1.321 1_455 S
C217 C218 1.403 . S
C217 H238 0.934 . S
C218 C213 1.413 . S
C218 C217 1.403 . S
C218 H239 0.930 . S
C219 O230 1.275 . S
C219 O231 1.256 . S
O220 Ho200 2.322 . S
O220 C202 1.259 . S
O221 Ho201 2.346 . S
O221 C202 1.268 . S
O222 Ho200 2.378 . S
O222 C203 1.215 . S
O223 Ho200 2.524 . S
O223 C203 1.289 . S
O224 Ho200 2.381 . S
O224 C210 1.275 . S
O225 Ho200 2.669 . S
O225 Ho201 2.305 . S
O225 C210 1.256 . S
O226 Ho201 2.322 . S
O226 C211 1.259 . S
O227 Ho200 2.346 . S
O227 C211 1.268 . S
O228 Ho201 2.378 1_565 S
O228 C212 1.215 . S
O229 Ho201 2.524 1_565 S
O229 C212 1.289 . S
O230 Ho201 2.381 . S
O230 C219 1.275 . S
O231 Ho200 2.305 . S
O231 Ho201 2.669 . S
O231 C219 1.256 . S
H232 C205 0.930 . S
H233 C206 0.931 . S
H234 C208 0.934 . S
H235 C209 0.930 . S
H236 C214 0.930 . S
H237 C215 0.931 . S
H238 C217 0.934 . S
H239 C218 0.930 . S
Ho240 C243 2.811 . S
Ho240 O260 2.322 . S
Ho240 O262 2.378 . S
Ho240 O263 2.524 . S
Ho240 O264 2.381 . S
Ho240 O265 2.669 . S
Ho240 O267 2.346 . S
Ho240 O271 2.305 . S
Ho241 C252 2.811 . S
Ho241 O261 2.346 . S
Ho241 O265 2.305 . S
Ho241 O266 2.322 . S
Ho241 O268 2.378 . S
Ho241 O269 2.524 . S
Ho241 O270 2.381 . S
Ho241 O271 2.669 . S
C242 O260 1.259 . S
C242 O261 1.268 . S
C243 Ho240 2.811 . S
C243 C244 1.488 . S
C243 O262 1.215 . S
C243 O263 1.289 . S
C244 C243 1.488 . S
C244 C245 1.348 . S
C244 C249 1.413 . S
C245 C244 1.348 . S
C245 C246 1.442 . S
C245 H272 0.930 . S
C246 C245 1.442 . S
C246 C247 1.381 . S
C246 H273 0.931 . S
C247 C246 1.381 . S
C247 C248 1.321 . S
C248 C247 1.321 . S
C248 C249 1.403 . S
C248 H274 0.934 . S
C249 C244 1.413 . S
C249 C248 1.403 . S
C249 H275 0.930 . S
C250 O264 1.275 . S
C250 O265 1.256 . S
C251 O266 1.259 . S
C251 O267 1.268 . S
C252 Ho241 2.811 . S
C252 C253 1.488 . S
C252 O268 1.215 . S
C252 O269 1.289 . S
C253 C252 1.488 . S
C253 C254 1.348 . S
C253 C258 1.413 . S
C254 C253 1.348 . S
C254 C255 1.442 1_655 S
C254 H276 0.930 . S
C255 C254 1.442 1_455 S
C255 C256 1.381 . S
C255 H277 0.931 . S
C256 C255 1.381 . S
C256 C257 1.321 1_455 S
C257 C256 1.321 1_655 S
C257 C258 1.403 . S
C257 H278 0.934 . S
C258 C253 1.413 . S
C258 C257 1.403 . S
C258 H279 0.930 . S
C259 O270 1.275 . S
C259 O271 1.256 . S
O260 Ho240 2.322 . S
O260 C242 1.259 . S
O261 Ho241 2.346 . S
O261 C242 1.268 . S
O262 Ho240 2.378 . S
O262 C243 1.215 . S
O263 Ho240 2.524 . S
O263 C243 1.289 . S
O264 Ho240 2.381 . S
O264 C250 1.275 . S
O265 Ho240 2.669 . S
O265 Ho241 2.305 . S
O265 C250 1.256 . S
O266 Ho241 2.322 . S
O266 C251 1.259 . S
O267 Ho240 2.346 . S
O267 C251 1.268 . S
O268 Ho241 2.378 . S
O268 C252 1.215 . S
O269 Ho241 2.524 . S
O269 C252 1.289 . S
O270 Ho241 2.381 . S
O270 C259 1.275 . S
O271 Ho240 2.305 . S
O271 Ho241 2.669 . S
O271 C259 1.256 . S
H272 C245 0.930 . S
H273 C246 0.931 . S
H274 C248 0.934 . S
H275 C249 0.930 . S
H276 C254 0.930 . S
H277 C255 0.931 . S
H278 C257 0.934 . S
H279 C258 0.930 . S
Ho280 C283 2.811 . S
Ho280 O300 2.322 . S
Ho280 O302 2.378 1_556 S
Ho280 O303 2.524 . S
Ho280 O304 2.381 1_556 S
Ho280 O305 2.669 . S
Ho280 O307 2.346 . S
Ho280 O311 2.305 . S
Ho281 C292 2.811 1_655 S
Ho281 O301 2.346 . S
Ho281 O305 2.305 . S
Ho281 O306 2.322 . S
Ho281 O308 2.378 1_655 S
Ho281 O309 2.524 1_655 S
Ho281 O310 2.381 . S
Ho281 O311 2.669 . S
C282 O300 1.259 . S
C282 O301 1.268 . S
C283 Ho280 2.811 . S
C283 C284 1.488 . S
C283 O302 1.215 1_556 S
C283 O303 1.289 . S
C284 C283 1.488 . S
C284 C285 1.348 . S
C284 C289 1.413 1_556 S
C285 C284 1.348 . S
C285 C286 1.442 . S
C285 H312 0.930 . S
C286 C285 1.442 . S
C286 C287 1.381 . S
C286 H313 0.931 . S
C287 C286 1.381 . S
C287 C288 1.321 1_556 S
C288 C287 1.321 1_554 S
C288 C289 1.403 . S
C288 H314 0.934 . S
C289 C284 1.413 1_554 S
C289 C288 1.403 . S
C289 H315 0.930 . S
C290 O304 1.275 . S
C290 O305 1.256 1_554 S
C291 O306 1.259 . S
C291 O307 1.268 . S
C292 Ho281 2.811 1_455 S
C292 C293 1.488 . S
C292 O308 1.215 . S
C292 O309 1.289 . S
C293 C292 1.488 . S
C293 C294 1.348 . S
C293 C298 1.413 . S
C294 C293 1.348 . S
C294 C295 1.442 1_565 S
C294 H316 0.930 . S
C295 C294 1.442 1_545 S
C295 C296 1.381 . S
C295 H317 0.931 . S
C296 C295 1.381 . S
C296 C297 1.321 1_545 S
C297 C296 1.321 1_565 S
C297 C298 1.403 . S
C297 H318 0.934 . S
C298 C293 1.413 . S
C298 C297 1.403 . S
C298 H319 0.930 . S
C299 O310 1.275 . S
C299 O311 1.256 . S
O300 Ho280 2.322 . S
O300 C282 1.259 . S
O301 Ho281 2.346 . S
O301 C282 1.268 . S
O302 Ho280 2.378 1_554 S
O302 C283 1.215 1_554 S
O303 Ho280 2.524 . S
O303 C283 1.289 . S
O304 Ho280 2.381 1_554 S
O304 C290 1.275 . S
O305 Ho280 2.669 . S
O305 Ho281 2.305 . S
O305 C290 1.256 1_556 S
O306 Ho281 2.322 . S
O306 C291 1.259 . S
O307 Ho280 2.346 . S
O307 C291 1.268 . S
O308 Ho281 2.378 1_455 S
O308 C292 1.215 . S
O309 Ho281 2.524 1_455 S
O309 C292 1.289 . S
O310 Ho281 2.381 . S
O310 C299 1.275 . S
O311 Ho280 2.305 . S
O311 Ho281 2.669 . S
O311 C299 1.256 . S
H312 C285 0.930 . S
H313 C286 0.931 . S
H314 C288 0.934 . S
H315 C289 0.930 . S
H316 C294 0.930 . S
H317 C295 0.931 . S
H318 C297 0.934 . S
H319 C298 0.930 . S
Ho320 C323 2.811 . S
Ho320 O340 2.322 . S
Ho320 O342 2.378 . S
Ho320 O343 2.524 . S
Ho320 O344 2.381 . S
Ho320 O345 2.669 . S
Ho320 O347 2.346 . S
Ho320 O351 2.305 . S
Ho321 C332 2.811 1_565 S
Ho321 O341 2.346 . S
Ho321 O345 2.305 . S
Ho321 O346 2.322 . S
Ho321 O348 2.378 1_565 S
Ho321 O349 2.524 1_565 S
Ho321 O350 2.381 . S
Ho321 O351 2.669 . S
C322 O340 1.259 . S
C322 O341 1.268 . S
C323 Ho320 2.811 . S
C323 C324 1.488 . S
C323 O342 1.215 . S
C323 O343 1.289 . S
C324 C323 1.488 . S
C324 C325 1.348 . S
C324 C329 1.413 . S
C325 C324 1.348 . S
C325 C326 1.442 . S
C325 H352 0.930 . S
C326 C325 1.442 . S
C326 C327 1.381 . S
C326 H353 0.931 . S
C327 C326 1.381 . S
C327 C328 1.321 . S
C328 C327 1.321 . S
C328 C329 1.403 . S
C328 H354 0.934 . S
C329 C324 1.413 . S
C329 C328 1.403 . S
C329 H355 0.930 . S
C330 O344 1.275 . S
C330 O345 1.256 . S
C331 O346 1.259 . S
C331 O347 1.268 . S
C332 Ho321 2.811 1_545 S
C332 C333 1.488 . S
C332 O348 1.215 . S
C332 O349 1.289 . S
C333 C332 1.488 . S
C333 C334 1.348 . S
C333 C338 1.413 . S
C334 C333 1.348 . S
C334 C335 1.442 . S
C334 H356 0.930 . S
C335 C334 1.442 . S
C335 C336 1.381 . S
C335 H357 0.931 . S
C336 C335 1.381 . S
C336 C337 1.321 . S
C337 C336 1.321 . S
C337 C338 1.403 . S
C337 H358 0.934 . S
C338 C333 1.413 . S
C338 C337 1.403 . S
C338 H359 0.930 . S
C339 O350 1.275 . S
C339 O351 1.256 . S
O340 Ho320 2.322 . S
O340 C322 1.259 . S
O341 Ho321 2.346 . S
O341 C322 1.268 . S
O342 Ho320 2.378 . S
O342 C323 1.215 . S
O343 Ho320 2.524 . S
O343 C323 1.289 . S
O344 Ho320 2.381 . S
O344 C330 1.275 . S
O345 Ho320 2.669 . S
O345 Ho321 2.305 . S
O345 C330 1.256 . S
O346 Ho321 2.322 . S
O346 C331 1.259 . S
O347 Ho320 2.346 . S
O347 C331 1.268 . S
O348 Ho321 2.378 1_545 S
O348 C332 1.215 . S
O349 Ho321 2.524 1_545 S
O349 C332 1.289 . S
O350 Ho321 2.381 . S
O350 C339 1.275 . S
O351 Ho320 2.305 . S
O351 Ho321 2.669 . S
O351 C339 1.256 . S
H352 C325 0.930 . S
H353 C326 0.931 . S
H354 C328 0.934 . S
H355 C329 0.930 . S
H356 C334 0.930 . S
H357 C335 0.931 . S
H358 C337 0.934 . S
H359 C338 0.930 . S
Ho360 C363 2.811 . S
Ho360 O380 2.322 . S
Ho360 O382 2.378 1_556 S
Ho360 O383 2.524 . S
Ho360 O384 2.381 1_556 S
Ho360 O385 2.669 . S
Ho360 O387 2.346 . S
Ho360 O391 2.305 . S
Ho361 C372 2.811 . S
Ho361 O381 2.346 . S
Ho361 O385 2.305 . S
Ho361 O386 2.322 . S
Ho361 O388 2.378 . S
Ho361 O389 2.524 . S
Ho361 O390 2.381 . S
Ho361 O391 2.669 . S
C362 O380 1.259 . S
C362 O381 1.268 . S
C363 Ho360 2.811 . S
C363 C364 1.488 . S
C363 O382 1.215 1_556 S
C363 O383 1.289 . S
C364 C363 1.488 . S
C364 C365 1.348 . S
C364 C369 1.413 1_556 S
C365 C364 1.348 . S
C365 C366 1.442 . S
C365 H392 0.930 . S
C366 C365 1.442 . S
C366 C367 1.381 . S
C366 H393 0.931 . S
C367 C366 1.381 . S
C367 C368 1.321 1_556 S
C368 C367 1.321 1_554 S
C368 C369 1.403 . S
C368 H394 0.934 . S
C369 C364 1.413 1_554 S
C369 C368 1.403 . S
C369 H395 0.930 . S
C370 O384 1.275 . S
C370 O385 1.256 1_554 S
C371 O386 1.259 . S
C371 O387 1.268 . S
C372 Ho361 2.811 . S
C372 C373 1.488 . S
C372 O388 1.215 . S
C372 O389 1.289 . S
C373 C372 1.488 . S
C373 C374 1.348 . S
C373 C378 1.413 . S
C374 C373 1.348 . S
C374 C375 1.442 1_455 S
C374 H396 0.930 . S
C375 C374 1.442 1_655 S
C375 C376 1.381 . S
C375 H397 0.931 . S
C376 C375 1.381 . S
C376 C377 1.321 1_655 S
C377 C376 1.321 1_455 S
C377 C378 1.403 . S
C377 H398 0.934 . S
C378 C373 1.413 . S
C378 C377 1.403 . S
C378 H399 0.930 . S
C379 O390 1.275 . S
C379 O391 1.256 . S
O380 Ho360 2.322 . S
O380 C362 1.259 . S
O381 Ho361 2.346 . S
O381 C362 1.268 . S
O382 Ho360 2.378 1_554 S
O382 C363 1.215 1_554 S
O383 Ho360 2.524 . S
O383 C363 1.289 . S
O384 Ho360 2.381 1_554 S
O384 C370 1.275 . S
O385 Ho360 2.669 . S
O385 Ho361 2.305 . S
O385 C370 1.256 1_556 S
O386 Ho361 2.322 . S
O386 C371 1.259 . S
O387 Ho360 2.346 . S
O387 C371 1.268 . S
O388 Ho361 2.378 . S
O388 C372 1.215 . S
O389 Ho361 2.524 . S
O389 C372 1.289 . S
O390 Ho361 2.381 . S
O390 C379 1.275 . S
O391 Ho360 2.305 . S
O391 Ho361 2.669 . S
O391 C379 1.256 . S
H392 C365 0.930 . S
H393 C366 0.931 . S
H394 C368 0.934 . S
H395 C369 0.930 . S
H396 C374 0.930 . S
H397 C375 0.931 . S
H398 C377 0.934 . S
H399 C378 0.930 . S
Ho400 C403 2.811 . S
Ho400 O420 2.322 . S
Ho400 O422 2.378 . S
Ho400 O423 2.524 . S
Ho400 O424 2.381 . S
Ho400 O425 2.669 . S
Ho400 O427 2.346 . S
Ho400 O431 2.305 . S
Ho401 C412 2.811 1_455 S
Ho401 O421 2.346 . S
Ho401 O425 2.305 . S
Ho401 O426 2.322 . S
Ho401 O428 2.378 1_455 S
Ho401 O429 2.524 1_455 S
Ho401 O430 2.381 . S
Ho401 O431 2.669 . S
C402 O420 1.259 . S
C402 O421 1.268 . S
C403 Ho400 2.811 . S
C403 C404 1.488 . S
C403 O422 1.215 . S
C403 O423 1.289 . S
C404 C403 1.488 . S
C404 C405 1.348 . S
C404 C409 1.413 . S
C405 C404 1.348 . S
C405 C406 1.442 . S
C405 H432 0.930 . S
C406 C405 1.442 . S
C406 C407 1.381 . S
C406 H433 0.931 . S
C407 C406 1.381 . S
C407 C408 1.321 . S
C408 C407 1.321 . S
C408 C409 1.403 . S
C408 H434 0.934 . S
C409 C404 1.413 . S
C409 C408 1.403 . S
C409 H435 0.930 . S
C410 O424 1.275 . S
C410 O425 1.256 . S
C411 O426 1.259 . S
C411 O427 1.268 . S
C412 Ho401 2.811 1_655 S
C412 C413 1.488 . S
C412 O428 1.215 . S
C412 O429 1.289 . S
C413 C412 1.488 . S
C413 C414 1.348 . S
C413 C418 1.413 . S
C414 C413 1.348 . S
C414 C415 1.442 1_545 S
C414 H436 0.930 . S
C415 C414 1.442 1_565 S
C415 C416 1.381 . S
C415 H437 0.931 . S
C416 C415 1.381 . S
C416 C417 1.321 1_565 S
C417 C416 1.321 1_545 S
C417 C418 1.403 . S
C417 H438 0.934 . S
C418 C413 1.413 . S
C418 C417 1.403 . S
C418 H439 0.930 . S
C419 O430 1.275 . S
C419 O431 1.256 . S
O420 Ho400 2.322 . S
O420 C402 1.259 . S
O421 Ho401 2.346 . S
O421 C402 1.268 . S
O422 Ho400 2.378 . S
O422 C403 1.215 . S
O423 Ho400 2.524 . S
O423 C403 1.289 . S
O424 Ho400 2.381 . S
O424 C410 1.275 . S
O425 Ho400 2.669 . S
O425 Ho401 2.305 . S
O425 C410 1.256 . S
O426 Ho401 2.322 . S
O426 C411 1.259 . S
O427 Ho400 2.346 . S
O427 C411 1.268 . S
O428 Ho401 2.378 1_655 S
O428 C412 1.215 . S
O429 Ho401 2.524 1_655 S
O429 C412 1.289 . S
O430 Ho401 2.381 . S
O430 C419 1.275 . S
O431 Ho400 2.305 . S
O431 Ho401 2.669 . S
O431 C419 1.256 . S
H432 C405 0.930 . S
H433 C406 0.931 . S
H434 C408 0.934 . S
H435 C409 0.930 . S
H436 C414 0.930 . S
H437 C415 0.931 . S
H438 C417 0.934 . S
H439 C418 0.930 . S
Ho440 C443 2.811 . S
Ho440 O460 2.322 . S
Ho440 O462 2.378 1_556 S
Ho440 O463 2.524 . S
Ho440 O464 2.381 1_556 S
Ho440 O465 2.669 . S
Ho440 O467 2.346 . S
Ho440 O471 2.305 . S
Ho441 C452 2.811 1_545 S
Ho441 O461 2.346 . S
Ho441 O465 2.305 . S
Ho441 O466 2.322 . S
Ho441 O468 2.378 1_545 S
Ho441 O469 2.524 1_545 S
Ho441 O470 2.381 . S
Ho441 O471 2.669 . S
C442 O460 1.259 . S
C442 O461 1.268 . S
C443 Ho440 2.811 . S
C443 C444 1.488 . S
C443 O462 1.215 1_556 S
C443 O463 1.289 . S
C444 C443 1.488 . S
C444 C445 1.348 . S
C444 C449 1.413 1_556 S
C445 C444 1.348 . S
C445 C446 1.442 . S
C445 H472 0.930 . S
C446 C445 1.442 . S
C446 C447 1.381 . S
C446 H473 0.931 . S
C447 C446 1.381 . S
C447 C448 1.321 1_556 S
C448 C447 1.321 1_554 S
C448 C449 1.403 . S
C448 H474 0.934 . S
C449 C444 1.413 1_554 S
C449 C448 1.403 . S
C449 H475 0.930 . S
C450 O464 1.275 . S
C450 O465 1.256 1_554 S
C451 O466 1.259 . S
C451 O467 1.268 . S
C452 Ho441 2.811 1_565 S
C452 C453 1.488 . S
C452 O468 1.215 . S
C452 O469 1.289 . S
C453 C452 1.488 . S
C453 C454 1.348 . S
C453 C458 1.413 . S
C454 C453 1.348 . S
C454 C455 1.442 . S
C454 H476 0.930 . S
C455 C454 1.442 . S
C455 C456 1.381 . S
C455 H477 0.931 . S
C456 C455 1.381 . S
C456 C457 1.321 . S
C457 C456 1.321 . S
C457 C458 1.403 . S
C457 H478 0.934 . S
C458 C453 1.413 . S
C458 C457 1.403 . S
C458 H479 0.930 . S
C459 O470 1.275 . S
C459 O471 1.256 . S
O460 Ho440 2.322 . S
O460 C442 1.259 . S
O461 Ho441 2.346 . S
O461 C442 1.268 . S
O462 Ho440 2.378 1_554 S
O462 C443 1.215 1_554 S
O463 Ho440 2.524 . S
O463 C443 1.289 . S
O464 Ho440 2.381 1_554 S
O464 C450 1.275 . S
O465 Ho440 2.669 . S
O465 Ho441 2.305 . S
O465 C450 1.256 1_556 S
O466 Ho441 2.322 . S
O466 C451 1.259 . S
O467 Ho440 2.346 . S
O467 C451 1.268 . S
O468 Ho441 2.378 1_565 S
O468 C452 1.215 . S
O469 Ho441 2.524 1_565 S
O469 C452 1.289 . S
O470 Ho441 2.381 . S
O470 C459 1.275 . S
O471 Ho440 2.305 . S
O471 Ho441 2.669 . S
O471 C459 1.256 . S
H472 C445 0.930 . S
H473 C446 0.931 . S
H474 C448 0.934 . S
H475 C449 0.930 . S
H476 C454 0.930 . S
H477 C455 0.931 . S
H478 C457 0.934 . S
H479 C458 0.930 . S
C171 C16 2.310 . S
C211 C56 2.310 . S
C96 C11 2.310 . S
C136 C51 2.310 . S
C176 C91 2.310 . S
C131 C216 2.310 . S
C331 C256 2.310 . S
C296 C371 2.310 . S
C411 C336 2.310 . S
C376 C451 2.310 . S
C416 C251 2.310 . S
C291 C456 2.310 . S
C162 C7 3.114 . S
C47 C202 3.114 . S
C87 C2 3.113 . S
C127 C42 3.114 . S
C82 C167 3.114 . S
C122 C207 3.113 . S
C322 C247 3.114 . S
C287 C362 3.113 . S
C327 C402 3.114 . S
C442 C367 3.114 . S
C407 C242 3.113 . S
C282 C447 3.114 . S
C419 C19 1.577 . S
C59 C459 1.577 . S
C99 C259 1.577 . S
C139 C299 1.577 . S
C179 C339 1.577 . S
C379 C219 1.577 . S
C370 C10 4.794 1_554 S
C410 C50 4.794 1_455 S
C90 C450 4.794 1_566 S
C130 C250 4.794 . S
C290 C170 4.794 1_654 S
C330 C210 4.794 1_565 S
