# Generated by pormake.
# Topology qtz-e, (6)-cn, num edge types: 1
# Building blocks:
#     Node 0, Type 0, BuildingBlock: BETDIP_clean_sbu_0, # of connection points: 6
#     Node 1, Type 0, BuildingBlock: BETDIP_clean_sbu_0, # of connection points: 6
#     Node 2, Type 0, BuildingBlock: BETDIP_clean_sbu_0, # of connection points: 6
#     Node 3, Type 0, BuildingBlock: BETDIP_clean_sbu_0, # of connection points: 6
#     Node 4, Type 0, BuildingBlock: BETDIP_clean_sbu_0, # of connection points: 6
#     Node 5, Type 0, BuildingBlock: BETDIP_clean_sbu_0, # of connection points: 6
#     Edge 6, Type (0, 0), BuildingBlock: XIVTED_clean_linker_0, # of connection points: 2
#     Edge 7, Type (0, 0), BuildingBlock: XIVTED_clean_linker_0, # of connection points: 2
#     Edge 8, Type (0, 0), BuildingBlock: XIVTED_clean_linker_0, # of connection points: 2
#     Edge 9, Type (0, 0), BuildingBlock: XIVTED_clean_linker_0, # of connection points: 2
#     Edge 10, Type (0, 0), BuildingBlock: XIVTED_clean_linker_0, # of connection points: 2
#     Edge 11, Type (0, 0), BuildingBlock: XIVTED_clean_linker_0, # of connection points: 2
#     Edge 12, Type (0, 0), BuildingBlock: XIVTED_clean_linker_0, # of connection points: 2
#     Edge 13, Type (0, 0), BuildingBlock: XIVTED_clean_linker_0, # of connection points: 2
#     Edge 14, Type (0, 0), BuildingBlock: XIVTED_clean_linker_0, # of connection points: 2
#     Edge 15, Type (0, 0), BuildingBlock: XIVTED_clean_linker_0, # of connection points: 2
#     Edge 16, Type (0, 0), BuildingBlock: XIVTED_clean_linker_0, # of connection points: 2
#     Edge 17, Type (0, 0), BuildingBlock: XIVTED_clean_linker_0, # of connection points: 2
#     Edge 18, Type (0, 0), BuildingBlock: XIVTED_clean_linker_0, # of connection points: 2
#     Edge 19, Type (0, 0), BuildingBlock: XIVTED_clean_linker_0, # of connection points: 2
#     Edge 20, Type (0, 0), BuildingBlock: XIVTED_clean_linker_0, # of connection points: 2
#     Edge 21, Type (0, 0), BuildingBlock: XIVTED_clean_linker_0, # of connection points: 2
#     Edge 22, Type (0, 0), BuildingBlock: XIVTED_clean_linker_0, # of connection points: 2
#     Edge 23, Type (0, 0), BuildingBlock: XIVTED_clean_linker_0, # of connection points: 2
# Relax obj value: 0.118
# Max RMSD: 0.192
# Mean RMSD: 0.192
data_MOF--net-qtz-e--node1-BETDIP_clean_sbu_0--edge1-XIVTED_clean_linker_0
_symmetry_space_group_name_H-M    P1
_symmetry_Int_Tables_number       1
_symmetry_cell_setting            triclinic
loop_
_symmetry_equiv_pos_as_xyz
'x, y, z'
_cell_length_a     25.692412
_cell_length_b     25.83866
_cell_length_c     51.620844
_cell_angle_alpha  89.815023
_cell_angle_beta   90.057654
_cell_angle_gamma 120.68921
loop_
_atom_site_label
_atom_site_type_symbol
_atom_site_fract_x
_atom_site_fract_y
_atom_site_fract_z
_atom_type_partial_charge
Tb0 Tb 0.18821 0.46258 0.07316 0.0
Tb1 Tb 0.13856 0.33373 0.05489 0.0
C2 C 0.20719 0.56402 0.08564 0.0
C3 C 0.21523 0.59124 0.11146 0.0
C4 C 0.18443 0.62126 0.1179 0.0
C5 C 0.18559 0.64046 0.14334 0.0
C6 C 0.21763 0.62994 0.16276 0.0
C7 C 0.2495 0.60101 0.15606 0.0
C8 C 0.24813 0.58168 0.13072 0.0
C9 C 0.25084 0.41277 0.08821 0.0
C10 C 0.11256 0.35386 0.11155 0.0
C11 C 0.1258 0.24144 0.0327 0.0
C12 C 0.15046 0.23273 1.00826 0.0
C13 C 0.20675 0.27766 0.99855 0.0
C14 C 0.22655 0.27182 0.97404 0.0
C15 C 0.19076 0.22064 0.95867 0.0
C16 C 0.13509 0.17501 0.96885 0.0
C17 C 0.11513 0.18117 0.99329 0.0
C18 C 0.06535 0.37653 0.05371 0.0
C19 C 0.21501 0.4436 1.01557 0.0
O20 O 0.15278 0.51798 0.08125 0.0
O21 O 0.25031 0.55458 0.07776 0.0
O22 O 0.22505 0.40598 0.0667 0.0
O23 O 0.2439 0.45099 0.10166 0.0
O24 O 0.1248 0.40794 0.1038 0.0
O25 O 0.12333 0.31874 0.09653 0.0
O26 O 0.16429 0.26874 0.05168 0.0
O27 O 0.08827 0.26115 0.02983 0.0
O28 O 0.11993 0.40271 0.04798 0.0
O29 O 0.0473 0.32168 0.06089 0.0
O30 O 0.18593 0.38494 1.02019 0.0
O31 O 0.22092 0.48306 0.03335 0.0
H32 H 0.15814 0.62838 0.10341 0.0
H33 H 0.16099 0.66307 0.14785 0.0
H34 H 0.27378 0.59131 0.1706 0.0
H35 H 0.27143 0.55767 0.12644 0.0
H36 H 0.23487 0.31808 1.00962 0.0
H37 H 0.26919 0.30838 0.96686 0.0
H38 H 0.10667 0.13445 0.95792 0.0
H39 H 0.07147 0.146 1.00033 0.0
Tb40 Tb 0.68354 0.1814 0.40357 0.0
Tb41 Tb 0.7947 0.17441 0.39258 0.0
C42 C 0.58061 0.15573 0.4193 0.0
C43 C 0.56044 0.15534 0.44595 0.0
C44 C 0.49892 0.12297 0.45255 0.0
C45 C 0.48093 0.12192 0.47828 0.0
C46 C 0.52438 0.15309 0.49772 0.0
C47 C 0.586 0.18448 0.4909 0.0
C48 C 0.60376 0.18574 0.46531 0.0
C49 C 0.7838 0.28261 0.41081 0.0
C50 C 0.74554 0.14054 0.44826 0.0
C51 C 0.89278 0.19281 0.37353 0.0
C52 C 0.91856 0.20984 0.34692 0.0
C53 C 0.94519 0.26952 0.33792 0.0
C54 C 0.96537 0.28415 0.31226 0.0
C55 C 0.95969 0.2396 0.29491 0.0
C56 C 0.93437 0.18021 0.30413 0.0
C57 C 0.91428 0.16561 0.32979 0.0
C58 C 0.68929 0.07686 0.38396 0.0
C59 C 0.73989 0.22248 0.34924 0.0
O60 O 0.59572 0.11546 0.41458 0.0
O61 O 0.62063 0.20878 0.41022 0.0
O62 O 0.77586 0.2313 0.41602 0.0
O63 O 0.73346 0.27835 0.40376 0.0
O64 O 0.69802 0.14314 0.43964 0.0
O65 O 0.79403 0.15765 0.43368 0.0
O66 O 0.8879 0.23331 0.38679 0.0
O67 O 0.84472 0.13924 0.37603 0.0
O68 O 0.70485 0.12998 0.37904 0.0
O69 O 0.73375 0.07528 0.39499 0.0
O70 O 0.78823 0.22485 0.35958 0.0
O71 O 0.6876 0.19664 0.36183 0.0
H72 H 0.46493 0.09865 0.43786 0.0
H73 H 0.43309 0.09752 0.48286 0.0
H74 H 0.6208 0.20769 0.50539 0.0
H75 H 0.6516 0.21026 0.46066 0.0
H76 H 0.94969 0.30496 0.35056 0.0
H77 H -0.01439 0.33057 0.30607 0.0
H78 H 0.92866 0.14452 0.29137 0.0
H79 H 0.89427 0.11926 0.33609 0.0
Tb80 Tb 0.49761 0.73275 0.74253 0.0
Tb81 Tb 0.6254 0.82097 0.72452 0.0
C82 C 0.39541 0.64758 0.75475 0.0
C83 C 0.368 0.62477 0.78049 0.0
C84 C 0.35117 0.5659 0.7878 0.0
C85 C 0.33342 0.54619 0.81325 0.0
C86 C 0.33168 0.58487 0.83193 0.0
C87 C 0.34638 0.64311 0.82428 0.0
C88 C 0.36466 0.66297 0.7989 0.0
C89 C 0.54463 0.84262 0.76188 0.0
C90 C 0.60706 0.76176 0.77885 0.0
C91 C 0.71832 0.90721 0.70401 0.0
C92 C 0.72831 0.94498 0.68078 0.0
C93 C 0.68567 0.96053 0.67302 0.0
C94 C 0.69056 -0.01258 0.6488 0.0
C95 C 0.73871 0.00013 0.63184 0.0
C96 C 0.78331 -0.0123 0.64052 0.0
C97 C 0.77785 0.96004 0.66457 0.0
C98 C 0.58375 0.70547 0.71662 0.0
C99 C 0.51325 0.7923 0.68758 0.0
O100 O 0.44128 0.64046 0.74933 0.0
O101 O 0.40531 0.70098 0.74801 0.0
O102 O 0.55167 0.82834 0.73942 0.0
O103 O 0.51125 0.7931 0.77446 0.0
O104 O 0.5544 0.71885 0.76969 0.0
O105 O 0.64112 0.81225 0.76562 0.0
O106 O 0.68993 0.91367 0.72375 0.0
O107 O 0.6988 0.85061 0.69908 0.0
O108 O 0.55672 0.73362 0.71437 0.0
O109 O 0.63889 0.74244 0.724 0.0
O110 O 0.57199 0.82617 0.6925 0.0
O111 O 0.47548 0.74994 0.70382 0.0
H112 H 0.35398 0.53583 0.77403 0.0
H113 H 0.32319 0.50133 0.81846 0.0
H114 H 0.34445 0.67374 0.83797 0.0
H115 H 0.37769 0.7088 0.79395 0.0
H116 H 0.64712 0.94967 0.68522 0.0
H117 H 0.65493 -0.00433 0.64303 0.0
H118 H 0.82218 -0.00162 0.62861 0.0
H119 H 0.81153 0.94876 0.67018 0.0
Tb120 Tb 0.77099 0.49352 0.0683 0.0
Tb121 Tb 0.76773 0.60672 0.05954 0.0
C122 C 0.79639 0.41771 0.08506 0.0
C123 C 0.79137 0.39546 0.11172 0.0
C124 C 0.82253 0.36673 0.11963 0.0
C125 C 0.81764 0.34662 0.14526 0.0
C126 C 0.78154 0.35511 0.16332 0.0
C127 C 0.7511 0.38465 0.15523 0.0
C128 C 0.75592 0.40452 0.12973 0.0
C129 C 0.66287 0.47921 0.0704 0.0
C130 C 0.79676 0.58667 0.11531 0.0
C131 C 0.74084 0.68136 0.04222 0.0
C132 C 0.72376 0.6919 1.01609 0.0
C133 C 0.67921 0.64431 1.00128 0.0
C134 C 0.66769 0.65394 0.97572 0.0
C135 C 0.69991 0.71159 0.96431 0.0
C136 C 0.74328 0.75951 0.97952 0.0
C137 C 0.75512 0.74969 1.00504 0.0
C138 C 0.87436 0.61663 0.05649 0.0
C139 C 0.74508 0.51438 1.01279 0.0
O140 O 0.83672 0.47452 0.0816 0.0
O141 O 0.7449 0.40305 0.07397 0.0
O142 O 0.71025 0.52373 0.07933 0.0
O143 O 0.67466 0.43949 0.06174 0.0
O144 O 0.80104 0.54169 0.10539 0.0
O145 O 0.77641 0.6159 0.10144 0.0
O146 O 0.70215 0.63142 0.05418 0.0
O147 O 0.79644 0.69282 0.04445 0.0
O148 O 0.82518 0.57493 0.04806 0.0
O149 O 0.86608 0.6569 0.06746 0.0
O150 O 0.73409 0.55496 1.02308 0.0
O151 O 0.77126 0.49065 0.02648 0.0
H152 H 0.85048 0.35982 0.10602 0.0
H153 H 0.84147 0.3238 0.15085 0.0
H154 H 0.72404 0.39315 0.1687 0.0
H155 H 0.73194 0.42717 0.12408 0.0
H156 H 0.65433 0.59911 1.00915 0.0
H157 H 0.63466 0.61552 0.9647 0.0
H158 H 0.76824 0.80477 0.97175 0.0
H159 H 0.78958 0.78724 1.01605 0.0
Tb160 Tb 0.25995 0.77821 0.40434 0.0
Tb161 Tb 0.14825 0.78248 0.39013 0.0
C162 C 0.36078 0.80257 0.42234 0.0
C163 C 0.38297 0.80974 0.44935 0.0
C164 C 0.39548 0.86048 0.46417 0.0
C165 C 0.40931 0.86307 0.49054 0.0
C166 C 0.41085 0.81502 0.50261 0.0
C167 C 0.40083 0.76556 0.48753 0.0
C168 C 0.38733 0.76309 0.4612 0.0
C169 C 0.15905 0.67698 0.4114 0.0
C170 C 0.19641 0.82276 0.44569 0.0
C171 C 0.04863 0.76105 0.37116 0.0
C172 C 0.02269 0.74667 0.34478 0.0
C173 C 0.96058 0.72348 0.34101 0.0
C174 C 0.93551 0.70833 0.31608 0.0
C175 C -0.02793 0.71545 0.29449 0.0
C176 C 0.03447 0.73934 0.29838 0.0
C177 C 0.05954 0.75519 0.32322 0.0
C178 C 0.25318 0.88079 0.38185 0.0
C179 C 0.21041 0.73638 0.34916 0.0
O180 O 0.34936 0.84329 0.41356 0.0
O181 O 0.31842 0.74816 0.4159 0.0
O182 O 0.1666 0.7284 0.41573 0.0
O183 O 0.20962 0.68118 0.40492 0.0
O184 O 0.24552 0.82253 0.43781 0.0
O185 O 0.14715 0.80051 0.43113 0.0
O186 O 0.05671 0.72013 0.38233 0.0
O187 O 0.09525 0.81521 0.37434 0.0
O188 O 0.23929 0.82774 0.37809 0.0
O189 O 0.20682 0.882 0.39085 0.0
O190 O 0.16048 0.73407 0.35764 0.0
O191 O 0.26065 0.76201 0.36313 0.0
H192 H 0.39288 0.89745 0.45564 0.0
H193 H 0.41678 0.90177 0.50165 0.0
H194 H 0.403 0.72843 0.49616 0.0
H195 H 0.37862 0.72377 0.45024 0.0
H196 H 0.93136 0.71666 0.35737 0.0
H197 H 0.88726 0.68967 0.31378 0.0
H198 H 0.06405 0.74613 0.28216 0.0
H199 H 0.10775 0.77392 0.32559 0.0
Tb200 Tb 0.43333 0.22539 0.73778 0.0
Tb201 Tb 0.30414 0.14237 0.72124 0.0
C202 C 0.52892 0.31275 0.75546 0.0
C203 C 0.55267 0.33623 0.78151 0.0
C204 C 0.51956 0.34938 0.79925 0.0
C205 C 0.54243 0.37036 0.82401 0.0
C206 C 0.59869 0.37841 0.83156 0.0
C207 C 0.63171 0.36526 0.81378 0.0
C208 C 0.60896 0.34456 0.78896 0.0
C209 C 0.39689 0.11176 0.74164 0.0
C210 C 0.32216 0.18823 0.77788 0.0
C211 C 0.2121 0.05793 0.6999 0.0
C212 C 0.20407 0.02698 0.67475 0.0
C213 C 0.23671 -0.00165 0.66882 0.0
C214 C 0.23313 0.97447 0.64414 0.0
C215 C 0.19694 0.97866 0.62472 0.0
C216 C 0.16298 0.0058 0.63093 0.0
C217 C 0.16651 0.02963 0.65565 0.0
C218 C 0.34866 0.25849 0.71444 0.0
C219 C 0.41397 0.17471 0.68228 0.0
O220 O 0.48259 0.3167 0.74757 0.0
O221 O 0.52321 0.26075 0.74984 0.0
O222 O 0.36505 0.13455 0.74711 0.0
O223 O 0.45191 0.15336 0.73654 0.0
O224 O 0.38039 0.22344 0.7719 0.0
O225 O 0.28285 0.14795 0.76143 0.0
O226 O 0.24329 0.04949 0.71781 0.0
O227 O 0.22665 0.11432 0.69835 0.0
O228 O 0.37425 0.22921 0.71093 0.0
O229 O 0.29322 0.22215 0.72172 0.0
O230 O 0.35855 0.13456 0.6901 0.0
O231 O 0.44963 0.22215 0.69667 0.0
H232 H 0.47583 0.34312 0.79412 0.0
H233 H 0.5156 0.3794 0.8374 0.0
H234 H 0.67546 0.37161 0.81895 0.0
H235 H 0.63527 0.33478 0.77558 0.0
H236 H 0.26625 -0.00443 0.68303 0.0
H237 H 0.25915 0.95305 0.64024 0.0
H238 H 0.135 0.0103 0.61645 0.0
H239 H 0.141 0.05157 0.65965 0.0
H240 H 0.30783 0.74931 0.32181 0.0
H241 H 0.12051 0.61727 0.19031 0.0
H242 H 0.11559 0.67895 0.31531 0.0
H243 H 0.31102 0.68 0.19772 0.0
H244 H 0.11811 0.64111 0.23592 0.0
H245 H 0.30973 0.72342 0.27649 0.0
C246 C 0.26593 0.72812 0.31093 0.0
C247 C 0.21155 0.71676 0.32237 0.0
C248 C 0.16047 0.64969 0.22757 0.0
C249 C 0.21352 0.68746 0.27036 0.0
C250 C 0.16198 0.63659 0.20146 0.0
C251 C 0.21608 0.64671 0.19014 0.0
C252 C 0.21346 0.67323 0.24251 0.0
C253 C 0.26816 0.67083 0.20569 0.0
C254 C 0.2671 0.71354 0.285 0.0
C255 C 0.1587 0.6892 0.30726 0.0
N256 N 0.26555 0.68327 0.23105 0.0
N257 N 0.16107 0.67576 0.28203 0.0
H258 H 0.5151 0.25722 0.6558 0.0
H259 H 0.43362 0.06066 0.52627 0.0
H260 H 0.35673 0.08022 0.64858 0.0
H261 H 0.57386 0.24775 0.53149 0.0
H262 H 0.40754 0.06378 0.57166 0.0
H263 H 0.54199 0.2505 0.61113 0.0
C264 C 0.48613 0.21674 0.6449 0.0
C265 C 0.43329 0.16937 0.65592 0.0
C266 C 0.44408 0.10406 0.56283 0.0
C267 C 0.46362 0.16149 0.60462 0.0
C268 C 0.45872 0.10244 0.53686 0.0
C269 C 0.50629 0.15393 0.52502 0.0
C270 C 0.47736 0.15749 0.57704 0.0
C271 C 0.53767 0.20658 0.53986 0.0
C272 C 0.50135 0.21303 0.61932 0.0
C273 C 0.39753 0.11803 0.6408 0.0
N274 N 0.52275 0.20692 0.56504 0.0
N275 N 0.41323 0.11548 0.6159 0.0
H276 H 0.19411 0.37483 0.97235 0.0
H277 H 0.38112 0.65174 0.87607 0.0
H278 H 0.28525 0.55981 0.99776 0.0
H279 H 0.24797 0.47294 0.85068 0.0
H280 H 0.35578 0.61822 0.921 0.0
H281 H 0.22474 0.40931 0.92804 0.0
C282 C 0.22104 0.42276 0.9687 0.0
C283 C 0.23703 0.4645 0.9889 0.0
C284 C 0.33213 0.58644 0.90556 0.0
C285 C 0.27186 0.50428 0.93793 0.0
C286 C 0.34621 0.60558 0.87986 0.0
C287 C 0.31644 0.56522 0.85942 0.0
C288 C 0.28839 0.52633 0.91093 0.0
C289 C 0.27272 0.50555 0.86569 0.0
C290 C 0.23817 0.44239 0.9433 0.0
C291 C 0.2717 0.52604 0.98281 0.0
N292 N 0.26012 0.48796 0.89085 0.0
N293 N 0.28794 0.5441 0.95784 0.0
H294 H 0.64955 0.21501 0.3178 0.0
H295 H 0.86986 0.36036 0.19519 0.0
H296 H 0.84097 0.27857 0.31895 0.0
H297 H 0.67951 0.3014 0.19362 0.0
H298 H 0.85933 0.32853 0.24045 0.0
H299 H 0.65907 0.24633 0.27233 0.0
C300 C 0.69356 0.23579 0.30858 0.0
C301 C 0.74445 0.24399 0.32224 0.0
C302 C 0.81983 0.32255 0.23021 0.0
C303 C 0.75564 0.27948 0.27022 0.0
C304 C 0.82576 0.34033 0.20428 0.0
C305 C 0.77558 0.33382 0.19056 0.0
C306 C 0.76328 0.29796 0.24256 0.0
C307 C 0.71968 0.30821 0.20352 0.0
C308 C 0.69896 0.25348 0.2826 0.0
C309 C 0.80037 0.27104 0.30924 0.0
N310 N 0.71507 0.29131 0.22877 0.0
N311 N 0.80439 0.28761 0.28402 0.0
H312 H 0.40726 0.71274 0.66298 0.0
H313 H 0.49499 0.90842 0.5323 0.0
H314 H 0.56815 0.88703 0.65398 0.0
H315 H 0.35091 0.72297 0.53736 0.0
H316 H 0.51435 0.90644 0.57864 0.0
H317 H 0.37738 0.72099 0.61878 0.0
C318 C 0.43603 0.75307 0.65185 0.0
C319 C 0.49084 0.79906 0.6621 0.0
C320 C 0.47833 0.86624 0.56962 0.0
C321 C 0.45709 0.80868 0.61152 0.0
C322 C 0.46714 0.86745 0.54321 0.0
C323 C 0.42172 0.81559 0.5309 0.0
C324 C 0.44358 0.81291 0.58389 0.0
C325 C 0.38716 0.76363 0.54597 0.0
C326 C 0.4191 0.75761 0.62657 0.0
C327 C 0.52622 0.85019 0.64675 0.0
N328 N 0.3989 0.76356 0.57163 0.0
N329 N 0.50897 0.85354 0.62223 0.0
H330 H 0.74595 0.42257 0.98655 0.0
H331 H 0.59877 0.46956 0.85841 0.0
H332 H 0.70564 0.56431 0.97683 0.0
H333 H 0.65336 0.33736 0.86465 0.0
H334 H 0.63705 0.50415 0.90209 0.0
H335 H 0.71275 0.39047 0.94201 0.0
C336 C 0.73034 0.44713 0.97505 0.0
C337 C 0.72801 0.49596 0.98555 0.0
C338 C 0.64083 0.46765 0.89391 0.0
C339 C 0.68974 0.45933 0.93464 0.0
C340 C 0.61864 0.44767 0.86903 0.0
C341 C 0.62275 0.40042 0.85791 0.0
C342 C 0.66708 0.44 0.9079 0.0
C343 C 0.64979 0.37431 0.8724 0.0
C344 C 0.71129 0.42871 0.94964 0.0
C345 C 0.70736 0.526 0.96973 0.0
N346 N 0.67072 0.39428 0.8967 0.0
N347 N 0.68884 0.50712 0.94514 0.0
H348 H 0.33842 0.4642 0.12522 0.0
H349 H 0.56135 0.38782 0.04957 0.0
H350 H 0.28755 0.35283 0.05693 0.0
H351 H 0.62384 0.53915 0.1012 0.0
H352 H 0.45721 0.36119 0.05785 0.0
H353 H 0.4391 0.47611 0.12324 0.0
C354 C 0.34803 0.44113 0.11017 0.0
C355 C 0.30512 0.40813 0.09097 0.0
C356 C 0.49361 0.40017 0.06741 0.0
C357 C 0.4197 0.42201 0.08853 0.0
C358 C 0.55298 0.41549 0.06266 0.0
C359 C 0.60089 0.46584 0.07468 0.0
C360 C 0.48209 0.43531 0.08442 0.0
C361 C 0.58788 0.50021 0.09146 0.0
C362 C 0.40556 0.44841 0.10893 0.0
C363 C 0.3196 0.37896 0.07198 0.0
N364 N 0.52939 0.48422 0.09589 0.0
N365 N 0.37604 0.38709 0.07107 0.0
H366 H 0.1483 0.56749 0.41151 0.0
H367 H 0.7946 0.39211 0.40931 0.0
H368 H 0.04693 0.65614 0.42515 0.0
H369 H 0.89495 0.30376 0.42638 0.0
H370 H 0.88598 0.48924 0.41596 0.0
H371 H 0.05645 0.47048 0.41787 0.0
C372 C 0.10657 0.56644 0.41599 0.0
C373 C 0.10452 0.61952 0.41728 0.0
C374 C 0.88795 0.44866 0.41857 0.0
C375 C -0.00043 0.50894 0.42442 0.0
C376 C 0.83598 0.39325 0.41461 0.0
C377 C 0.83792 0.3402 0.41681 0.0
C378 C 0.94235 0.45091 0.42429 0.0
C379 C 0.8922 0.34391 0.42401 0.0
C380 C 0.05433 0.5111 0.41978 0.0
C381 C 0.0498 0.61594 0.42346 0.0
N382 N 0.94282 0.39868 0.42712 0.0
N383 N -0.00106 0.56122 0.42642 0.0
H384 H 0.37578 0.02272 0.70937 0.0
H385 H 0.4948 0.86573 0.80395 0.0
H386 H 0.39841 0.0717 0.79 0.0
H387 H 0.56248 0.92845 0.72667 0.0
H388 H 0.44016 0.92083 0.80202 0.0
H389 H 0.41336 0.95459 0.71813 0.0
C390 C 0.38544 0.01637 0.7292 0.0
C391 C 0.38423 0.0523 0.74904 0.0
C392 C 0.46775 0.92291 0.78574 0.0
C393 C 0.42985 0.97777 0.75891 0.0
C394 C 0.4996 0.89247 0.78693 0.0
C395 C 0.53208 0.89162 0.7652 0.0
C396 C 0.46807 0.95139 0.76258 0.0
C397 C 0.53719 0.92712 0.74369 0.0
C398 C 0.40823 0.97882 0.73407 0.0
C399 C 0.39844 0.04391 0.77435 0.0
N400 N 0.50418 0.95442 0.74268 0.0
N401 N 0.42223 0.00821 0.77858 0.0
H402 H 0.47134 0.63428 0.69825 0.0
H403 H 0.46073 0.33036 0.69513 0.0
H404 H 0.62368 0.62756 0.72958 0.0
H405 H 0.31103 0.3363 0.72981 0.0
H406 H 0.52109 0.43984 0.69656 0.0
H407 H 0.41189 0.52477 0.69857 0.0
C408 C 0.49241 0.60965 0.70514 0.0
C409 C 0.55211 0.63976 0.71446 0.0
C410 C 0.47512 0.41701 0.70388 0.0
C411 C 0.48476 0.51496 0.71399 0.0
C412 C 0.44042 0.35475 0.70298 0.0
C413 C 0.3812 0.32438 0.7129 0.0
C414 C 0.44953 0.44917 0.71375 0.0
C415 C 0.3567 0.35819 0.72223 0.0
C416 C 0.45826 0.54738 0.70538 0.0
C417 C 0.57761 0.6058 0.72251 0.0
N418 N 0.39107 0.41933 0.72228 0.0
N419 N 0.54367 0.5446 0.72194 0.0
H420 H 0.06232 0.44232 1.0149 0.0
H421 H 0.92981 0.60633 0.09984 0.0
H422 H 0.00153 0.38939 0.0935 0.0
H423 H 0.93361 0.60632 1.01643 0.0
H424 H -0.01829 0.54824 0.10033 0.0
H425 H 0.03399 0.51867 1.01729 0.0
C426 C 0.04111 0.44579 0.03244 0.0
C427 C 0.03244 0.40873 0.05376 0.0
C428 C -0.02722 0.56269 0.08199 0.0
C429 C 0.00242 0.49777 0.05713 0.0
C430 C 0.94452 0.59687 0.08172 0.0
C431 C 0.92758 0.61053 0.05801 0.0
C432 C -0.01584 0.54333 0.05839 0.0
C433 C 0.94611 0.5964 0.03504 0.0
C434 C 0.02593 0.48997 0.03396 0.0
C435 C 0.00691 0.41608 0.07641 0.0
N436 N -0.02741 0.5627 0.03577 0.0
N437 N -0.00716 0.46026 0.07759 0.0
H438 H 0.32052 0.9145 0.33915 0.0
H439 H 0.61367 0.00487 0.42265 0.0
H440 H 0.32788 0.95024 0.42092 0.0
H441 H 0.62167 0.04768 0.34148 0.0
H442 H 0.50347 0.96448 0.42186 0.0
H443 H 0.42925 0.9546 0.33904 0.0
C444 C 0.34584 0.93369 0.35685 0.0
C445 C 0.31583 0.92964 0.38002 0.0
C446 C 0.52945 -0.0184 0.40416 0.0
C447 C 0.4391 0.97184 0.38046 0.0
C448 C 0.5917 0.00283 0.40444 0.0
C449 C 0.62604 0.02926 0.38205 0.0
C450 C 0.50258 -0.01326 0.38129 0.0
C451 C 0.59626 0.02742 0.35907 0.0
C452 C 0.40756 0.95526 0.35692 0.0
C453 C 0.35 0.95367 0.40261 0.0
N454 N 0.53629 0.00736 0.35933 0.0
N455 N 0.41015 0.97264 0.40245 0.0
H456 H 0.20567 0.13531 0.79658 0.0
H457 H 0.30646 0.25894 0.94123 0.0
H458 H 0.39168 0.25105 0.81971 0.0
H459 H 0.12108 0.17076 0.91493 0.0
H460 H 0.33811 0.25196 0.89742 0.0
H461 H 0.17349 0.14278 0.84036 0.0
C462 C 0.2398 0.16231 0.81081 0.0
C463 C 0.30156 0.19268 0.8043 0.0
C464 C 0.29048 0.23412 0.90124 0.0
C465 C 0.26489 0.2012 0.85465 0.0
C466 C 0.27229 0.23836 0.9263 0.0
C467 C 0.21081 0.21548 0.93203 0.0
C468 C 0.24702 0.20648 0.88158 0.0
C469 C 0.16883 0.18823 0.91174 0.0
C470 C 0.22135 0.16664 0.83583 0.0
C471 C 0.34359 0.22707 0.82367 0.0
N472 N 0.18767 0.18448 0.88753 0.0
N473 N 0.32452 0.23021 0.8479 0.0
H474 H 0.94914 0.31874 0.26258 0.0
H475 H 0.09856 0.25608 0.13915 0.0
H476 H 0.0152 0.19502 0.26394 0.0
H477 H 0.06664 0.40439 0.14404 0.0
H478 H 0.05891 0.22609 0.18328 0.0
H479 H -0.01668 0.34418 0.21773 0.0
C480 C -0.02881 0.29717 0.25357 0.0
C481 C -0.02041 0.2549 0.26731 0.0
C482 C 0.06051 0.26512 0.17464 0.0
C483 C 0.01817 0.28332 0.21555 0.0
C484 C 0.08295 0.28215 0.1494 0.0
C485 C 0.08626 0.33302 0.13782 0.0
C486 C 0.0407 0.29885 0.18838 0.0
C487 C 0.0654 0.36508 0.15215 0.0
C488 C -0.00959 0.3115 0.22785 0.0
C489 C 0.00714 0.22742 0.25419 0.0
N490 N 0.04358 0.34748 0.17659 0.0
N491 N 0.02547 0.24215 0.22914 0.0
H492 H 0.69732 0.0744 0.61421 0.0
H493 H 0.81947 0.10428 0.46971 0.0
H494 H 0.78454 -0.02094 0.58727 0.0
H495 H 0.67087 0.13038 0.48856 0.0
H496 H 0.8185 0.07128 0.51432 0.0
H497 H 0.69768 0.10755 0.56979 0.0
C498 C 0.71641 0.0601 0.59913 0.0
C499 C 0.74095 0.02353 0.60491 0.0
C500 C 0.7861 0.08422 0.50867 0.0
C501 C 0.7428 0.06314 0.55382 0.0
C502 C 0.78673 0.10328 0.48321 0.0
C503 C 0.74518 0.12022 0.47529 0.0
C504 C 0.74431 0.08297 0.52656 0.0
C505 C 0.70365 0.11766 0.49372 0.0
C506 C 0.71681 0.07945 0.57372 0.0
C507 C 0.76622 0.0081 0.58424 0.0
N508 N 0.70453 0.09981 0.51851 0.0
N509 N 0.76669 0.02813 0.55977 0.0
H510 H 0.54157 0.66828 0.81217 0.0
H511 H 0.78164 0.78988 0.92793 0.0
H512 H 0.71179 0.83607 0.80646 0.0
H513 H 0.59257 0.65534 0.93707 0.0
H514 H 0.76193 0.80302 0.88267 0.0
H515 H 0.56562 0.65711 0.85659 0.0
C516 C 0.58438 0.70276 0.82013 0.0
C517 C 0.62467 0.7534 0.80536 0.0
C518 C 0.72488 0.7707 0.89465 0.0
C519 C 0.65243 0.74063 0.85682 0.0
C520 C 0.73591 0.76335 0.92062 0.0
C521 C 0.68878 0.72123 0.93665 0.0
C522 C 0.66642 0.73531 0.88442 0.0
C523 C 0.6308 0.6875 0.92561 0.0
C524 C 0.5979 0.69637 0.84568 0.0
C525 C 0.67932 0.79633 0.81704 0.0
N526 N 0.62145 0.69514 0.9003 0.0
N527 N 0.69163 0.78899 0.84208 0.0
H528 H -0.00535 0.65194 0.25843 0.0
H529 H 0.78949 0.67039 0.14609 0.0
H530 H 0.88829 0.73584 0.27041 0.0
H531 H 0.85436 0.54564 0.14625 0.0
H532 H 0.83079 0.7021 0.19001 0.0
H533 H 0.95041 0.62082 0.21532 0.0
C534 C 0.96218 0.66412 0.25194 0.0
C535 C 0.94524 0.69662 0.26811 0.0
C536 C 0.8356 0.66759 0.18039 0.0
C537 C 0.89402 0.66084 0.21858 0.0
C538 C 0.81208 0.64949 0.15532 0.0
C539 C 0.81831 0.60522 0.14235 0.0
C540 C 0.86626 0.64181 0.19239 0.0
C541 C 0.84817 0.57982 0.15535 0.0
C542 C 0.93659 0.64597 0.22735 0.0
C543 C 0.90229 0.71041 0.25869 0.0
N544 N 0.87121 0.5987 0.17945 0.0
N545 N 0.87839 0.69275 0.2345 0.0
H546 H 0.09971 0.91909 0.59174 0.0
H547 H 0.29165 0.87918 0.47941 0.0
H548 H 0.29169 -0.013 0.59652 0.0
H549 H 0.10245 0.82195 0.47174 0.0
H550 H 0.2919 0.91778 0.52247 0.0
H551 H 0.09935 0.88277 0.54799 0.0
C552 C 0.14186 0.92664 0.58359 0.0
C553 C 0.19576 0.956 0.59801 0.0
C554 C 0.25027 0.89682 0.51141 0.0
C555 C 0.1955 0.91387 0.54785 0.0
C556 C 0.25003 0.87458 0.48675 0.0
C557 C 0.19684 0.84694 0.47184 0.0
C558 C 0.19687 0.89137 0.52144 0.0
C559 C 0.14451 0.8428 0.48247 0.0
C560 C 0.14154 0.9056 0.55861 0.0
C561 C 0.2488 0.96371 0.58642 0.0
N562 N 0.14581 0.86461 0.50661 0.0
N563 N 0.24729 0.94279 0.56212 0.0
loop_
_geom_bond_atom_site_label_1
_geom_bond_atom_site_label_2
_geom_bond_distance
_geom_bond_site_symmetry_2
_ccdc_geom_bond_type
Tb0 C2 2.809 . S
Tb0 O20 2.484 . S
Tb0 O21 2.440 . S
Tb0 O22 2.658 . S
Tb0 O23 2.409 . S
Tb0 O24 2.378 . S
Tb0 O28 2.325 . S
Tb0 O31 2.341 . S
Tb1 C11 2.809 1_554 S
Tb1 O22 2.325 . S
Tb1 O25 2.341 . S
Tb1 O26 2.484 1_554 S
Tb1 O27 2.440 1_554 S
Tb1 O28 2.658 . S
Tb1 O29 2.409 . S
Tb1 O30 2.378 1_554 S
C2 Tb0 2.809 . S
C2 C3 1.514 . S
C2 O20 1.248 . S
C2 O21 1.266 . S
C3 C2 1.514 . S
C3 C4 1.359 . S
C3 C8 1.348 . S
C4 C3 1.359 . S
C4 C5 1.380 . S
C4 H32 0.929 . S
C5 C4 1.380 . S
C5 C6 1.347 . S
C5 H33 0.931 . S
C6 C5 1.347 . S
C6 C7 1.369 . S
C7 C6 1.369 . S
C7 C8 1.408 . S
C7 H34 0.930 . S
C8 C3 1.348 . S
C8 C7 1.408 . S
C8 H35 0.930 . S
C9 O22 1.281 . S
C9 O23 1.254 . S
C10 O24 1.236 . S
C10 O25 1.266 . S
C11 Tb1 2.809 1_556 S
C11 C12 1.514 . S
C11 O26 1.248 . S
C11 O27 1.266 . S
C12 C11 1.514 . S
C12 C13 1.359 . S
C12 C17 1.348 . S
C13 C12 1.359 . S
C13 C14 1.380 . S
C13 H36 0.929 . S
C14 C13 1.380 . S
C14 C15 1.347 . S
C14 H37 0.931 . S
C15 C14 1.347 . S
C15 C16 1.369 . S
C16 C15 1.369 . S
C16 C17 1.408 . S
C16 H38 0.930 . S
C17 C12 1.348 . S
C17 C16 1.408 . S
C17 H39 0.930 . S
C18 O28 1.281 . S
C18 O29 1.254 . S
C19 O30 1.236 . S
C19 O31 1.266 1_556 S
O20 Tb0 2.484 . S
O20 C2 1.248 . S
O21 Tb0 2.440 . S
O21 C2 1.266 . S
O22 Tb0 2.658 . S
O22 Tb1 2.325 . S
O22 C9 1.281 . S
O23 Tb0 2.409 . S
O23 C9 1.254 . S
O24 Tb0 2.378 . S
O24 C10 1.236 . S
O25 Tb1 2.341 . S
O25 C10 1.266 . S
O26 Tb1 2.484 1_556 S
O26 C11 1.248 . S
O27 Tb1 2.440 1_556 S
O27 C11 1.266 . S
O28 Tb0 2.325 . S
O28 Tb1 2.658 . S
O28 C18 1.281 . S
O29 Tb1 2.409 . S
O29 C18 1.254 . S
O30 Tb1 2.378 1_556 S
O30 C19 1.236 . S
O31 Tb0 2.341 . S
O31 C19 1.266 1_554 S
H32 C4 0.929 . S
H33 C5 0.931 . S
H34 C7 0.930 . S
H35 C8 0.930 . S
H36 C13 0.929 . S
H37 C14 0.931 . S
H38 C16 0.930 . S
H39 C17 0.930 . S
Tb40 C42 2.809 . S
Tb40 O60 2.484 . S
Tb40 O61 2.440 . S
Tb40 O62 2.658 . S
Tb40 O63 2.409 . S
Tb40 O64 2.378 . S
Tb40 O68 2.325 . S
Tb40 O71 2.341 . S
Tb41 C51 2.809 . S
Tb41 O62 2.325 . S
Tb41 O65 2.341 . S
Tb41 O66 2.484 . S
Tb41 O67 2.440 . S
Tb41 O68 2.658 . S
Tb41 O69 2.409 . S
Tb41 O70 2.378 . S
C42 Tb40 2.809 . S
C42 C43 1.514 . S
C42 O60 1.248 . S
C42 O61 1.266 . S
C43 C42 1.514 . S
C43 C44 1.359 . S
C43 C48 1.348 . S
C44 C43 1.359 . S
C44 C45 1.380 . S
C44 H72 0.929 . S
C45 C44 1.380 . S
C45 C46 1.347 . S
C45 H73 0.931 . S
C46 C45 1.347 . S
C46 C47 1.369 . S
C47 C46 1.369 . S
C47 C48 1.408 . S
C47 H74 0.930 . S
C48 C43 1.348 . S
C48 C47 1.408 . S
C48 H75 0.930 . S
C49 O62 1.281 . S
C49 O63 1.254 . S
C50 O64 1.236 . S
C50 O65 1.266 . S
C51 Tb41 2.809 . S
C51 C52 1.514 . S
C51 O66 1.248 . S
C51 O67 1.266 . S
C52 C51 1.514 . S
C52 C53 1.359 . S
C52 C57 1.348 . S
C53 C52 1.359 . S
C53 C54 1.380 . S
C53 H76 0.929 . S
C54 C53 1.380 . S
C54 C55 1.347 . S
C54 H77 0.931 1_655 S
C55 C54 1.347 . S
C55 C56 1.369 . S
C56 C55 1.369 . S
C56 C57 1.408 . S
C56 H78 0.930 . S
C57 C52 1.348 . S
C57 C56 1.408 . S
C57 H79 0.930 . S
C58 O68 1.281 . S
C58 O69 1.254 . S
C59 O70 1.236 . S
C59 O71 1.266 . S
O60 Tb40 2.484 . S
O60 C42 1.248 . S
O61 Tb40 2.440 . S
O61 C42 1.266 . S
O62 Tb40 2.658 . S
O62 Tb41 2.325 . S
O62 C49 1.281 . S
O63 Tb40 2.409 . S
O63 C49 1.254 . S
O64 Tb40 2.378 . S
O64 C50 1.236 . S
O65 Tb41 2.341 . S
O65 C50 1.266 . S
O66 Tb41 2.484 . S
O66 C51 1.248 . S
O67 Tb41 2.440 . S
O67 C51 1.266 . S
O68 Tb40 2.325 . S
O68 Tb41 2.658 . S
O68 C58 1.281 . S
O69 Tb41 2.409 . S
O69 C58 1.254 . S
O70 Tb41 2.378 . S
O70 C59 1.236 . S
O71 Tb40 2.341 . S
O71 C59 1.266 . S
H72 C44 0.929 . S
H73 C45 0.931 . S
H74 C47 0.930 . S
H75 C48 0.930 . S
H76 C53 0.929 . S
H77 C54 0.931 1_455 S
H78 C56 0.930 . S
H79 C57 0.930 . S
Tb80 C82 2.809 . S
Tb80 O100 2.484 . S
Tb80 O101 2.440 . S
Tb80 O102 2.658 . S
Tb80 O103 2.409 . S
Tb80 O104 2.378 . S
Tb80 O108 2.325 . S
Tb80 O111 2.341 . S
Tb81 C91 2.809 . S
Tb81 O102 2.325 . S
Tb81 O105 2.341 . S
Tb81 O106 2.484 . S
Tb81 O107 2.440 . S
Tb81 O108 2.658 . S
Tb81 O109 2.409 . S
Tb81 O110 2.378 . S
C82 Tb80 2.809 . S
C82 C83 1.514 . S
C82 O100 1.248 . S
C82 O101 1.266 . S
C83 C82 1.514 . S
C83 C84 1.359 . S
C83 C88 1.348 . S
C84 C83 1.359 . S
C84 C85 1.380 . S
C84 H112 0.929 . S
C85 C84 1.380 . S
C85 C86 1.347 . S
C85 H113 0.931 . S
C86 C85 1.347 . S
C86 C87 1.369 . S
C87 C86 1.369 . S
C87 C88 1.408 . S
C87 H114 0.930 . S
C88 C83 1.348 . S
C88 C87 1.408 . S
C88 H115 0.930 . S
C89 O102 1.281 . S
C89 O103 1.254 . S
C90 O104 1.236 . S
C90 O105 1.266 . S
C91 Tb81 2.809 . S
C91 C92 1.514 . S
C91 O106 1.248 . S
C91 O107 1.266 . S
C92 C91 1.514 . S
C92 C93 1.359 . S
C92 C97 1.348 . S
C93 C92 1.359 . S
C93 C94 1.380 . S
C93 H116 0.929 . S
C94 C93 1.380 . S
C94 C95 1.347 . S
C94 H117 0.931 1_565 S
C95 C94 1.347 . S
C95 C96 1.369 . S
C96 C95 1.369 . S
C96 C97 1.408 . S
C96 H118 0.930 . S
C97 C92 1.348 . S
C97 C96 1.408 . S
C97 H119 0.930 . S
C98 O108 1.281 . S
C98 O109 1.254 . S
C99 O110 1.236 . S
C99 O111 1.266 . S
O100 Tb80 2.484 . S
O100 C82 1.248 . S
O101 Tb80 2.440 . S
O101 C82 1.266 . S
O102 Tb80 2.658 . S
O102 Tb81 2.325 . S
O102 C89 1.281 . S
O103 Tb80 2.409 . S
O103 C89 1.254 . S
O104 Tb80 2.378 . S
O104 C90 1.236 . S
O105 Tb81 2.341 . S
O105 C90 1.266 . S
O106 Tb81 2.484 . S
O106 C91 1.248 . S
O107 Tb81 2.440 . S
O107 C91 1.266 . S
O108 Tb80 2.325 . S
O108 Tb81 2.658 . S
O108 C98 1.281 . S
O109 Tb81 2.409 . S
O109 C98 1.254 . S
O110 Tb81 2.378 . S
O110 C99 1.236 . S
O111 Tb80 2.341 . S
O111 C99 1.266 . S
H112 C84 0.929 . S
H113 C85 0.931 . S
H114 C87 0.930 . S
H115 C88 0.930 . S
H116 C93 0.929 . S
H117 C94 0.931 1_545 S
H118 C96 0.930 . S
H119 C97 0.930 . S
Tb120 C122 2.809 . S
Tb120 O140 2.484 . S
Tb120 O141 2.440 . S
Tb120 O142 2.658 . S
Tb120 O143 2.409 . S
Tb120 O144 2.378 . S
Tb120 O148 2.325 . S
Tb120 O151 2.341 . S
Tb121 C131 2.809 1_554 S
Tb121 O142 2.325 . S
Tb121 O145 2.341 . S
Tb121 O146 2.484 1_554 S
Tb121 O147 2.440 1_554 S
Tb121 O148 2.658 . S
Tb121 O149 2.409 . S
Tb121 O150 2.378 1_554 S
C122 Tb120 2.809 . S
C122 C123 1.514 . S
C122 O140 1.248 . S
C122 O141 1.266 . S
C123 C122 1.514 . S
C123 C124 1.359 . S
C123 C128 1.348 . S
C124 C123 1.359 . S
C124 C125 1.380 . S
C124 H152 0.929 . S
C125 C124 1.380 . S
C125 C126 1.347 . S
C125 H153 0.931 . S
C126 C125 1.347 . S
C126 C127 1.369 . S
C127 C126 1.369 . S
C127 C128 1.408 . S
C127 H154 0.930 . S
C128 C123 1.348 . S
C128 C127 1.408 . S
C128 H155 0.930 . S
C129 O142 1.281 . S
C129 O143 1.254 . S
C130 O144 1.236 . S
C130 O145 1.266 . S
C131 Tb121 2.809 1_556 S
C131 C132 1.514 . S
C131 O146 1.248 . S
C131 O147 1.266 . S
C132 C131 1.514 . S
C132 C133 1.359 . S
C132 C137 1.348 . S
C133 C132 1.359 . S
C133 C134 1.380 . S
C133 H156 0.929 . S
C134 C133 1.380 . S
C134 C135 1.347 . S
C134 H157 0.931 . S
C135 C134 1.347 . S
C135 C136 1.369 . S
C136 C135 1.369 . S
C136 C137 1.408 . S
C136 H158 0.930 . S
C137 C132 1.348 . S
C137 C136 1.408 . S
C137 H159 0.930 . S
C138 O148 1.281 . S
C138 O149 1.254 . S
C139 O150 1.236 . S
C139 O151 1.266 1_556 S
O140 Tb120 2.484 . S
O140 C122 1.248 . S
O141 Tb120 2.440 . S
O141 C122 1.266 . S
O142 Tb120 2.658 . S
O142 Tb121 2.325 . S
O142 C129 1.281 . S
O143 Tb120 2.409 . S
O143 C129 1.254 . S
O144 Tb120 2.378 . S
O144 C130 1.236 . S
O145 Tb121 2.341 . S
O145 C130 1.266 . S
O146 Tb121 2.484 1_556 S
O146 C131 1.248 . S
O147 Tb121 2.440 1_556 S
O147 C131 1.266 . S
O148 Tb120 2.325 . S
O148 Tb121 2.658 . S
O148 C138 1.281 . S
O149 Tb121 2.409 . S
O149 C138 1.254 . S
O150 Tb121 2.378 1_556 S
O150 C139 1.236 . S
O151 Tb120 2.341 . S
O151 C139 1.266 1_554 S
H152 C124 0.929 . S
H153 C125 0.931 . S
H154 C127 0.930 . S
H155 C128 0.930 . S
H156 C133 0.929 . S
H157 C134 0.931 . S
H158 C136 0.930 . S
H159 C137 0.930 . S
Tb160 C162 2.809 . S
Tb160 O180 2.484 . S
Tb160 O181 2.440 . S
Tb160 O182 2.658 . S
Tb160 O183 2.409 . S
Tb160 O184 2.378 . S
Tb160 O188 2.325 . S
Tb160 O191 2.341 . S
Tb161 C171 2.809 . S
Tb161 O182 2.325 . S
Tb161 O185 2.341 . S
Tb161 O186 2.484 . S
Tb161 O187 2.440 . S
Tb161 O188 2.658 . S
Tb161 O189 2.409 . S
Tb161 O190 2.378 . S
C162 Tb160 2.809 . S
C162 C163 1.514 . S
C162 O180 1.248 . S
C162 O181 1.266 . S
C163 C162 1.514 . S
C163 C164 1.359 . S
C163 C168 1.348 . S
C164 C163 1.359 . S
C164 C165 1.380 . S
C164 H192 0.929 . S
C165 C164 1.380 . S
C165 C166 1.347 . S
C165 H193 0.931 . S
C166 C165 1.347 . S
C166 C167 1.369 . S
C167 C166 1.369 . S
C167 C168 1.408 . S
C167 H194 0.930 . S
C168 C163 1.348 . S
C168 C167 1.408 . S
C168 H195 0.930 . S
C169 O182 1.281 . S
C169 O183 1.254 . S
C170 O184 1.236 . S
C170 O185 1.266 . S
C171 Tb161 2.809 . S
C171 C172 1.514 . S
C171 O186 1.248 . S
C171 O187 1.266 . S
C172 C171 1.514 . S
C172 C173 1.359 . S
C172 C177 1.348 . S
C173 C172 1.359 . S
C173 C174 1.380 . S
C173 H196 0.929 . S
C174 C173 1.380 . S
C174 C175 1.347 . S
C174 H197 0.931 1_455 S
C175 C174 1.347 . S
C175 C176 1.369 . S
C176 C175 1.369 . S
C176 C177 1.408 . S
C176 H198 0.930 . S
C177 C172 1.348 . S
C177 C176 1.408 . S
C177 H199 0.930 . S
C178 O188 1.281 . S
C178 O189 1.254 . S
C179 O190 1.236 . S
C179 O191 1.266 . S
O180 Tb160 2.484 . S
O180 C162 1.248 . S
O181 Tb160 2.440 . S
O181 C162 1.266 . S
O182 Tb160 2.658 . S
O182 Tb161 2.325 . S
O182 C169 1.281 . S
O183 Tb160 2.409 . S
O183 C169 1.254 . S
O184 Tb160 2.378 . S
O184 C170 1.236 . S
O185 Tb161 2.341 . S
O185 C170 1.266 . S
O186 Tb161 2.484 . S
O186 C171 1.248 . S
O187 Tb161 2.440 . S
O187 C171 1.266 . S
O188 Tb160 2.325 . S
O188 Tb161 2.658 . S
O188 C178 1.281 . S
O189 Tb161 2.409 . S
O189 C178 1.254 . S
O190 Tb161 2.378 . S
O190 C179 1.236 . S
O191 Tb160 2.341 . S
O191 C179 1.266 . S
H192 C164 0.929 . S
H193 C165 0.931 . S
H194 C167 0.930 . S
H195 C168 0.930 . S
H196 C173 0.929 . S
H197 C174 0.931 1_655 S
H198 C176 0.930 . S
H199 C177 0.930 . S
Tb200 C202 2.809 . S
Tb200 O220 2.484 . S
Tb200 O221 2.440 . S
Tb200 O222 2.658 . S
Tb200 O223 2.409 . S
Tb200 O224 2.378 . S
Tb200 O228 2.325 . S
Tb200 O231 2.341 . S
Tb201 C211 2.809 . S
Tb201 O222 2.325 . S
Tb201 O225 2.341 . S
Tb201 O226 2.484 . S
Tb201 O227 2.440 . S
Tb201 O228 2.658 . S
Tb201 O229 2.409 . S
Tb201 O230 2.378 . S
C202 Tb200 2.809 . S
C202 C203 1.514 . S
C202 O220 1.248 . S
C202 O221 1.266 . S
C203 C202 1.514 . S
C203 C204 1.359 . S
C203 C208 1.348 . S
C204 C203 1.359 . S
C204 C205 1.380 . S
C204 H232 0.929 . S
C205 C204 1.380 . S
C205 C206 1.347 . S
C205 H233 0.931 . S
C206 C205 1.347 . S
C206 C207 1.369 . S
C207 C206 1.369 . S
C207 C208 1.408 . S
C207 H234 0.930 . S
C208 C203 1.348 . S
C208 C207 1.408 . S
C208 H235 0.930 . S
C209 O222 1.281 . S
C209 O223 1.254 . S
C210 O224 1.236 . S
C210 O225 1.266 . S
C211 Tb201 2.809 . S
C211 C212 1.514 . S
C211 O226 1.248 . S
C211 O227 1.266 . S
C212 C211 1.514 . S
C212 C213 1.359 . S
C212 C217 1.348 . S
C213 C212 1.359 . S
C213 C214 1.380 . S
C213 H236 0.929 . S
C214 C213 1.380 . S
C214 C215 1.347 . S
C214 H237 0.931 1_545 S
C215 C214 1.347 . S
C215 C216 1.369 . S
C216 C215 1.369 . S
C216 C217 1.408 . S
C216 H238 0.930 . S
C217 C212 1.348 . S
C217 C216 1.408 . S
C217 H239 0.930 . S
C218 O228 1.281 . S
C218 O229 1.254 . S
C219 O230 1.236 . S
C219 O231 1.266 . S
O220 Tb200 2.484 . S
O220 C202 1.248 . S
O221 Tb200 2.440 . S
O221 C202 1.266 . S
O222 Tb200 2.658 . S
O222 Tb201 2.325 . S
O222 C209 1.281 . S
O223 Tb200 2.409 . S
O223 C209 1.254 . S
O224 Tb200 2.378 . S
O224 C210 1.236 . S
O225 Tb201 2.341 . S
O225 C210 1.266 . S
O226 Tb201 2.484 . S
O226 C211 1.248 . S
O227 Tb201 2.440 . S
O227 C211 1.266 . S
O228 Tb200 2.325 . S
O228 Tb201 2.658 . S
O228 C218 1.281 . S
O229 Tb201 2.409 . S
O229 C218 1.254 . S
O230 Tb201 2.378 . S
O230 C219 1.236 . S
O231 Tb200 2.341 . S
O231 C219 1.266 . S
H232 C204 0.929 . S
H233 C205 0.931 . S
H234 C207 0.930 . S
H235 C208 0.930 . S
H236 C213 0.929 . S
H237 C214 0.931 1_565 S
H238 C216 0.930 . S
H239 C217 0.930 . S
H240 C246 0.930 . S
H241 C250 0.930 . S
H242 C255 0.929 . S
H243 C253 0.929 . S
H244 C248 0.929 . S
H245 C254 0.929 . S
C246 H240 0.930 . S
C246 C247 1.367 . S
C246 C254 1.378 . S
C247 C246 1.367 . S
C247 C255 1.433 . S
C248 H244 0.929 . S
C248 C250 1.378 . S
C248 C252 1.350 . S
C249 C252 1.463 . S
C249 C254 1.350 . S
C249 N257 1.427 . S
C250 H241 0.930 . S
C250 C248 1.378 . S
C250 C251 1.367 . S
C251 C250 1.367 . S
C251 C253 1.433 . S
C252 C248 1.350 . S
C252 C249 1.463 . S
C252 N256 1.427 . S
C253 H243 0.929 . S
C253 C251 1.433 . S
C253 N256 1.384 . S
C254 H245 0.929 . S
C254 C246 1.378 . S
C254 C249 1.350 . S
C255 H242 0.929 . S
C255 C247 1.433 . S
C255 N257 1.384 . S
N256 C252 1.427 . S
N256 C253 1.384 . S
N257 C249 1.427 . S
N257 C255 1.384 . S
H258 C264 0.930 . S
H259 C268 0.930 . S
H260 C273 0.929 . S
H261 C271 0.929 . S
H262 C266 0.929 . S
H263 C272 0.929 . S
C264 H258 0.930 . S
C264 C265 1.367 . S
C264 C272 1.378 . S
C265 C264 1.367 . S
C265 C273 1.433 . S
C266 H262 0.929 . S
C266 C268 1.378 . S
C266 C270 1.350 . S
C267 C270 1.463 . S
C267 C272 1.350 . S
C267 N275 1.427 . S
C268 H259 0.930 . S
C268 C266 1.378 . S
C268 C269 1.367 . S
C269 C268 1.367 . S
C269 C271 1.433 . S
C270 C266 1.350 . S
C270 C267 1.463 . S
C270 N274 1.427 . S
C271 H261 0.929 . S
C271 C269 1.433 . S
C271 N274 1.384 . S
C272 H263 0.929 . S
C272 C264 1.378 . S
C272 C267 1.350 . S
C273 H260 0.929 . S
C273 C265 1.433 . S
C273 N275 1.384 . S
N274 C270 1.427 . S
N274 C271 1.384 . S
N275 C267 1.427 . S
N275 C273 1.384 . S
H276 C282 0.930 . S
H277 C286 0.930 . S
H278 C291 0.929 . S
H279 C289 0.929 . S
H280 C284 0.929 . S
H281 C290 0.929 . S
C282 H276 0.930 . S
C282 C283 1.367 . S
C282 C290 1.378 . S
C283 C282 1.367 . S
C283 C291 1.433 . S
C284 H280 0.929 . S
C284 C286 1.378 . S
C284 C288 1.350 . S
C285 C288 1.463 . S
C285 C290 1.350 . S
C285 N293 1.427 . S
C286 H277 0.930 . S
C286 C284 1.378 . S
C286 C287 1.367 . S
C287 C286 1.367 . S
C287 C289 1.433 . S
C288 C284 1.350 . S
C288 C285 1.463 . S
C288 N292 1.427 . S
C289 H279 0.929 . S
C289 C287 1.433 . S
C289 N292 1.384 . S
C290 H281 0.929 . S
C290 C282 1.378 . S
C290 C285 1.350 . S
C291 H278 0.929 . S
C291 C283 1.433 . S
C291 N293 1.384 . S
N292 C288 1.427 . S
N292 C289 1.384 . S
N293 C285 1.427 . S
N293 C291 1.384 . S
H294 C300 0.930 . S
H295 C304 0.930 . S
H296 C309 0.929 . S
H297 C307 0.929 . S
H298 C302 0.929 . S
H299 C308 0.929 . S
C300 H294 0.930 . S
C300 C301 1.367 . S
C300 C308 1.378 . S
C301 C300 1.367 . S
C301 C309 1.433 . S
C302 H298 0.929 . S
C302 C304 1.378 . S
C302 C306 1.350 . S
C303 C306 1.463 . S
C303 C308 1.350 . S
C303 N311 1.427 . S
C304 H295 0.930 . S
C304 C302 1.378 . S
C304 C305 1.367 . S
C305 C304 1.367 . S
C305 C307 1.433 . S
C306 C302 1.350 . S
C306 C303 1.463 . S
C306 N310 1.427 . S
C307 H297 0.929 . S
C307 C305 1.433 . S
C307 N310 1.384 . S
C308 H299 0.929 . S
C308 C300 1.378 . S
C308 C303 1.350 . S
C309 H296 0.929 . S
C309 C301 1.433 . S
C309 N311 1.384 . S
N310 C306 1.427 . S
N310 C307 1.384 . S
N311 C303 1.427 . S
N311 C309 1.384 . S
H312 C318 0.930 . S
H313 C322 0.930 . S
H314 C327 0.929 . S
H315 C325 0.929 . S
H316 C320 0.929 . S
H317 C326 0.929 . S
C318 H312 0.930 . S
C318 C319 1.367 . S
C318 C326 1.378 . S
C319 C318 1.367 . S
C319 C327 1.433 . S
C320 H316 0.929 . S
C320 C322 1.378 . S
C320 C324 1.350 . S
C321 C324 1.463 . S
C321 C326 1.350 . S
C321 N329 1.427 . S
C322 H313 0.930 . S
C322 C320 1.378 . S
C322 C323 1.367 . S
C323 C322 1.367 . S
C323 C325 1.433 . S
C324 C320 1.350 . S
C324 C321 1.463 . S
C324 N328 1.427 . S
C325 H315 0.929 . S
C325 C323 1.433 . S
C325 N328 1.384 . S
C326 H317 0.929 . S
C326 C318 1.378 . S
C326 C321 1.350 . S
C327 H314 0.929 . S
C327 C319 1.433 . S
C327 N329 1.384 . S
N328 C324 1.427 . S
N328 C325 1.384 . S
N329 C321 1.427 . S
N329 C327 1.384 . S
H330 C336 0.930 . S
H331 C340 0.930 . S
H332 C345 0.929 . S
H333 C343 0.929 . S
H334 C338 0.929 . S
H335 C344 0.929 . S
C336 H330 0.930 . S
C336 C337 1.367 . S
C336 C344 1.378 . S
C337 C336 1.367 . S
C337 C345 1.433 . S
C338 H334 0.929 . S
C338 C340 1.378 . S
C338 C342 1.350 . S
C339 C342 1.463 . S
C339 C344 1.350 . S
C339 N347 1.427 . S
C340 H331 0.930 . S
C340 C338 1.378 . S
C340 C341 1.367 . S
C341 C340 1.367 . S
C341 C343 1.433 . S
C342 C338 1.350 . S
C342 C339 1.463 . S
C342 N346 1.427 . S
C343 H333 0.929 . S
C343 C341 1.433 . S
C343 N346 1.384 . S
C344 H335 0.929 . S
C344 C336 1.378 . S
C344 C339 1.350 . S
C345 H332 0.929 . S
C345 C337 1.433 . S
C345 N347 1.384 . S
N346 C342 1.427 . S
N346 C343 1.384 . S
N347 C339 1.427 . S
N347 C345 1.384 . S
H348 C354 0.930 . S
H349 C358 0.930 . S
H350 C363 0.929 . S
H351 C361 0.929 . S
H352 C356 0.929 . S
H353 C362 0.929 . S
C354 H348 0.930 . S
C354 C355 1.367 . S
C354 C362 1.378 . S
C355 C354 1.367 . S
C355 C363 1.433 . S
C356 H352 0.929 . S
C356 C358 1.378 . S
C356 C360 1.350 . S
C357 C360 1.463 . S
C357 C362 1.350 . S
C357 N365 1.427 . S
C358 H349 0.930 . S
C358 C356 1.378 . S
C358 C359 1.367 . S
C359 C358 1.367 . S
C359 C361 1.433 . S
C360 C356 1.350 . S
C360 C357 1.463 . S
C360 N364 1.427 . S
C361 H351 0.929 . S
C361 C359 1.433 . S
C361 N364 1.384 . S
C362 H353 0.929 . S
C362 C354 1.378 . S
C362 C357 1.350 . S
C363 H350 0.929 . S
C363 C355 1.433 . S
C363 N365 1.384 . S
N364 C360 1.427 . S
N364 C361 1.384 . S
N365 C357 1.427 . S
N365 C363 1.384 . S
H366 C372 0.930 . S
H367 C376 0.930 . S
H368 C381 0.929 . S
H369 C379 0.929 . S
H370 C374 0.929 . S
H371 C380 0.929 . S
C372 H366 0.930 . S
C372 C373 1.367 . S
C372 C380 1.378 . S
C373 C372 1.367 . S
C373 C381 1.433 . S
C374 H370 0.929 . S
C374 C376 1.378 . S
C374 C378 1.350 . S
C375 C378 1.463 1_455 S
C375 C380 1.350 . S
C375 N383 1.427 . S
C376 H367 0.930 . S
C376 C374 1.378 . S
C376 C377 1.367 . S
C377 C376 1.367 . S
C377 C379 1.433 . S
C378 C374 1.350 . S
C378 C375 1.463 1_655 S
C378 N382 1.427 . S
C379 H369 0.929 . S
C379 C377 1.433 . S
C379 N382 1.384 . S
C380 H371 0.929 . S
C380 C372 1.378 . S
C380 C375 1.350 . S
C381 H368 0.929 . S
C381 C373 1.433 . S
C381 N383 1.384 . S
N382 C378 1.427 . S
N382 C379 1.384 . S
N383 C375 1.427 . S
N383 C381 1.384 . S
H384 C390 0.930 . S
H385 C394 0.930 . S
H386 C399 0.929 . S
H387 C397 0.929 . S
H388 C392 0.929 . S
H389 C398 0.929 . S
C390 H384 0.930 . S
C390 C391 1.367 . S
C390 C398 1.378 1_545 S
C391 C390 1.367 . S
C391 C399 1.433 . S
C392 H388 0.929 . S
C392 C394 1.378 1_545 S
C392 C396 1.350 1_545 S
C393 C396 1.463 1_545 S
C393 C398 1.350 1_545 S
C393 N401 1.427 . S
C394 H385 0.930 . S
C394 C392 1.378 1_565 S
C394 C395 1.367 . S
C395 C394 1.367 . S
C395 C397 1.433 . S
C396 C392 1.350 1_565 S
C396 C393 1.463 1_565 S
C396 N400 1.427 . S
C397 H387 0.929 . S
C397 C395 1.433 . S
C397 N400 1.384 . S
C398 H389 0.929 . S
C398 C390 1.378 1_565 S
C398 C393 1.350 1_565 S
C399 H386 0.929 . S
C399 C391 1.433 . S
C399 N401 1.384 . S
N400 C396 1.427 . S
N400 C397 1.384 . S
N401 C393 1.427 . S
N401 C399 1.384 . S
H402 C408 0.930 . S
H403 C412 0.930 . S
H404 C417 0.929 . S
H405 C415 0.929 . S
H406 C410 0.929 . S
H407 C416 0.929 . S
C408 H402 0.930 . S
C408 C409 1.367 . S
C408 C416 1.378 . S
C409 C408 1.367 . S
C409 C417 1.433 . S
C410 H406 0.929 . S
C410 C412 1.378 . S
C410 C414 1.350 . S
C411 C414 1.463 . S
C411 C416 1.350 . S
C411 N419 1.427 . S
C412 H403 0.930 . S
C412 C410 1.378 . S
C412 C413 1.367 . S
C413 C412 1.367 . S
C413 C415 1.433 . S
C414 C410 1.350 . S
C414 C411 1.463 . S
C414 N418 1.427 . S
C415 H405 0.929 . S
C415 C413 1.433 . S
C415 N418 1.384 . S
C416 H407 0.929 . S
C416 C408 1.378 . S
C416 C411 1.350 . S
C417 H404 0.929 . S
C417 C409 1.433 . S
C417 N419 1.384 . S
N418 C414 1.427 . S
N418 C415 1.384 . S
N419 C411 1.427 . S
N419 C417 1.384 . S
H420 C426 0.930 1_556 S
H421 C430 0.930 . S
H422 C435 0.929 . S
H423 C433 0.929 1_556 S
H424 C428 0.929 . S
H425 C434 0.929 1_556 S
C426 H420 0.930 1_554 S
C426 C427 1.367 . S
C426 C434 1.378 . S
C427 C426 1.367 . S
C427 C435 1.433 . S
C428 H424 0.929 . S
C428 C430 1.378 . S
C428 C432 1.350 . S
C429 C432 1.463 1_455 S
C429 C434 1.350 . S
C429 N437 1.427 . S
C430 H421 0.930 . S
C430 C428 1.378 . S
C430 C431 1.367 . S
C431 C430 1.367 . S
C431 C433 1.433 . S
C432 C428 1.350 . S
C432 C429 1.463 1_655 S
C432 N436 1.427 . S
C433 H423 0.929 1_554 S
C433 C431 1.433 . S
C433 N436 1.384 . S
C434 H425 0.929 1_554 S
C434 C426 1.378 . S
C434 C429 1.350 . S
C435 H422 0.929 . S
C435 C427 1.433 . S
C435 N437 1.384 . S
N436 C432 1.427 . S
N436 C433 1.384 . S
N437 C429 1.427 . S
N437 C435 1.384 . S
H438 C444 0.930 . S
H439 C448 0.930 . S
H440 C453 0.929 . S
H441 C451 0.929 . S
H442 C446 0.929 . S
H443 C452 0.929 . S
C444 H438 0.930 . S
C444 C445 1.367 . S
C444 C452 1.378 . S
C445 C444 1.367 . S
C445 C453 1.433 . S
C446 H442 0.929 . S
C446 C448 1.378 . S
C446 C450 1.350 . S
C447 C450 1.463 1_565 S
C447 C452 1.350 . S
C447 N455 1.427 . S
C448 H439 0.930 . S
C448 C446 1.378 . S
C448 C449 1.367 . S
C449 C448 1.367 . S
C449 C451 1.433 . S
C450 C446 1.350 . S
C450 C447 1.463 1_545 S
C450 N454 1.427 . S
C451 H441 0.929 . S
C451 C449 1.433 . S
C451 N454 1.384 . S
C452 H443 0.929 . S
C452 C444 1.378 . S
C452 C447 1.350 . S
C453 H440 0.929 . S
C453 C445 1.433 . S
C453 N455 1.384 . S
N454 C450 1.427 . S
N454 C451 1.384 . S
N455 C447 1.427 . S
N455 C453 1.384 . S
H456 C462 0.930 . S
H457 C466 0.930 . S
H458 C471 0.929 . S
H459 C469 0.929 . S
H460 C464 0.929 . S
H461 C470 0.929 . S
C462 H456 0.930 . S
C462 C463 1.367 . S
C462 C470 1.378 . S
C463 C462 1.367 . S
C463 C471 1.433 . S
C464 H460 0.929 . S
C464 C466 1.378 . S
C464 C468 1.350 . S
C465 C468 1.463 . S
C465 C470 1.350 . S
C465 N473 1.427 . S
C466 H457 0.930 . S
C466 C464 1.378 . S
C466 C467 1.367 . S
C467 C466 1.367 . S
C467 C469 1.433 . S
C468 C464 1.350 . S
C468 C465 1.463 . S
C468 N472 1.427 . S
C469 H459 0.929 . S
C469 C467 1.433 . S
C469 N472 1.384 . S
C470 H461 0.929 . S
C470 C462 1.378 . S
C470 C465 1.350 . S
C471 H458 0.929 . S
C471 C463 1.433 . S
C471 N473 1.384 . S
N472 C468 1.427 . S
N472 C469 1.384 . S
N473 C465 1.427 . S
N473 C471 1.384 . S
H474 C480 0.930 . S
H475 C484 0.930 . S
H476 C489 0.929 . S
H477 C487 0.929 . S
H478 C482 0.929 . S
H479 C488 0.929 . S
C480 H474 0.930 . S
C480 C481 1.368 . S
C480 C488 1.378 1_655 S
C481 C480 1.368 . S
C481 C489 1.431 1_655 S
C482 H478 0.929 . S
C482 C484 1.378 . S
C482 C486 1.350 . S
C483 C486 1.463 . S
C483 C488 1.350 . S
C483 N491 1.427 . S
C484 H475 0.930 . S
C484 C482 1.378 . S
C484 C485 1.367 . S
C485 C484 1.367 . S
C485 C487 1.433 . S
C486 C482 1.350 . S
C486 C483 1.463 . S
C486 N490 1.427 . S
C487 H477 0.929 . S
C487 C485 1.433 . S
C487 N490 1.384 . S
C488 H479 0.929 . S
C488 C480 1.378 1_455 S
C488 C483 1.350 . S
C489 H476 0.929 . S
C489 C481 1.431 1_455 S
C489 N491 1.384 . S
N490 C486 1.427 . S
N490 C487 1.384 . S
N491 C483 1.427 . S
N491 C489 1.384 . S
H492 C498 0.930 . S
H493 C502 0.930 . S
H494 C507 0.929 . S
H495 C505 0.929 . S
H496 C500 0.929 . S
H497 C506 0.929 . S
C498 H492 0.930 . S
C498 C499 1.367 . S
C498 C506 1.378 . S
C499 C498 1.367 . S
C499 C507 1.433 1_545 S
C500 H496 0.929 . S
C500 C502 1.378 . S
C500 C504 1.350 . S
C501 C504 1.463 . S
C501 C506 1.350 . S
C501 N509 1.427 1_545 S
C502 H493 0.930 . S
C502 C500 1.378 . S
C502 C503 1.367 . S
C503 C502 1.367 . S
C503 C505 1.433 . S
C504 C500 1.350 . S
C504 C501 1.463 . S
C504 N508 1.427 . S
C505 H495 0.929 . S
C505 C503 1.433 . S
C505 N508 1.384 . S
C506 H497 0.929 . S
C506 C498 1.378 . S
C506 C501 1.350 . S
C507 H494 0.929 . S
C507 C499 1.433 1_565 S
C507 N509 1.384 . S
N508 C504 1.427 . S
N508 C505 1.384 . S
N509 C501 1.427 1_565 S
N509 C507 1.384 . S
H510 C516 0.930 . S
H511 C520 0.930 . S
H512 C525 0.929 . S
H513 C523 0.929 . S
H514 C518 0.929 . S
H515 C524 0.929 . S
C516 H510 0.930 . S
C516 C517 1.367 . S
C516 C524 1.378 . S
C517 C516 1.367 . S
C517 C525 1.433 . S
C518 H514 0.929 . S
C518 C520 1.378 . S
C518 C522 1.350 . S
C519 C522 1.463 . S
C519 C524 1.350 . S
C519 N527 1.427 . S
C520 H511 0.930 . S
C520 C518 1.378 . S
C520 C521 1.367 . S
C521 C520 1.367 . S
C521 C523 1.433 . S
C522 C518 1.350 . S
C522 C519 1.463 . S
C522 N526 1.427 . S
C523 H513 0.929 . S
C523 C521 1.433 . S
C523 N526 1.384 . S
C524 H515 0.929 . S
C524 C516 1.378 . S
C524 C519 1.350 . S
C525 H512 0.929 . S
C525 C517 1.433 . S
C525 N527 1.384 . S
N526 C522 1.427 . S
N526 C523 1.384 . S
N527 C519 1.427 . S
N527 C525 1.384 . S
H528 C534 0.930 . S
H529 C538 0.930 . S
H530 C543 0.929 . S
H531 C541 0.929 . S
H532 C536 0.929 . S
H533 C542 0.929 . S
C534 H528 0.930 . S
C534 C535 1.376 . S
C534 C542 1.378 . S
C535 C534 1.376 . S
C535 C543 1.420 1_455 S
C536 H532 0.929 . S
C536 C538 1.378 . S
C536 C540 1.350 . S
C537 C540 1.463 . S
C537 C542 1.350 1_655 S
C537 N545 1.427 . S
C538 H529 0.930 . S
C538 C536 1.378 . S
C538 C539 1.367 . S
C539 C538 1.367 . S
C539 C541 1.433 . S
C540 C536 1.350 . S
C540 C537 1.463 . S
C540 N544 1.427 . S
C541 H531 0.929 . S
C541 C539 1.433 . S
C541 N544 1.384 . S
C542 H533 0.929 . S
C542 C534 1.378 . S
C542 C537 1.350 1_455 S
C543 H530 0.929 . S
C543 C535 1.420 1_655 S
C543 N545 1.384 . S
N544 C540 1.427 . S
N544 C541 1.384 . S
N545 C537 1.427 . S
N545 C543 1.384 . S
H546 C552 0.930 . S
H547 C556 0.930 . S
H548 C561 0.929 . S
H549 C559 0.929 . S
H550 C554 0.929 . S
H551 C560 0.929 . S
C552 H546 0.930 . S
C552 C553 1.367 . S
C552 C560 1.378 . S
C553 C552 1.367 . S
C553 C561 1.433 1_565 S
C554 H550 0.929 . S
C554 C556 1.378 . S
C554 C558 1.350 . S
C555 C558 1.463 . S
C555 C560 1.350 . S
C555 N563 1.427 . S
C556 H547 0.930 . S
C556 C554 1.378 . S
C556 C557 1.367 . S
C557 C556 1.367 . S
C557 C559 1.433 . S
C558 C554 1.350 . S
C558 C555 1.463 . S
C558 N562 1.427 . S
C559 H549 0.929 . S
C559 C557 1.433 . S
C559 N562 1.384 . S
C560 H551 0.929 . S
C560 C552 1.378 . S
C560 C555 1.350 . S
C561 H548 0.929 . S
C561 C553 1.433 1_545 S
C561 N563 1.384 1_545 S
N562 C558 1.427 . S
N562 C559 1.384 . S
N563 C555 1.427 . S
N563 C561 1.384 1_565 S
C247 C179 1.187 . S
C251 C6 1.194 . S
C265 C219 1.187 . S
C269 C46 1.194 . S
C283 C19 1.189 . S
C287 C86 1.193 . S
C301 C59 1.187 . S
C305 C126 1.194 . S
C319 C99 1.190 . S
C323 C166 1.195 . S
C337 C139 1.191 . S
C341 C206 1.195 . S
C355 C9 0.843 . S
C359 C129 0.844 . S
C373 C169 0.822 . S
C377 C49 0.823 . S
C391 C209 0.843 . S
C395 C89 0.842 . S
C409 C98 0.949 . S
C413 C218 0.950 . S
C427 C18 0.950 . S
C431 C138 0.951 . S
C445 C178 0.950 . S
C449 C58 0.951 . S
C463 C210 1.266 . S
C467 C15 1.243 . S
C481 C55 1.241 . S
C485 C10 1.264 . S
C499 C95 1.246 1_545 S
C503 C50 1.266 . S
C517 C90 1.263 . S
C521 C135 1.246 . S
C535 C175 1.247 . S
C539 C130 1.263 . S
C553 C215 1.249 1_565 S
C557 C170 1.266 . S
