# Generated by pormake.
# Topology vmc, (5)-cn, num edge types: 1
# Building blocks:
#     Node 0, Type 0, BuildingBlock: XOMCOT_clean_sbu_1, # of connection points: 5
#     Node 1, Type 0, BuildingBlock: XOMCOT_clean_sbu_1, # of connection points: 5
#     Node 2, Type 0, BuildingBlock: XOMCOT_clean_sbu_1, # of connection points: 5
#     Node 3, Type 0, BuildingBlock: XOMCOT_clean_sbu_1, # of connection points: 5
#     Node 4, Type 0, BuildingBlock: XOMCOT_clean_sbu_1, # of connection points: 5
#     Node 5, Type 0, BuildingBlock: XOMCOT_clean_sbu_1, # of connection points: 5
#     Node 6, Type 0, BuildingBlock: XOMCOT_clean_sbu_1, # of connection points: 5
#     Node 7, Type 0, BuildingBlock: XOMCOT_clean_sbu_1, # of connection points: 5
#     Edge 8, Type (0, 0), BuildingBlock: AJUNOK_clean_linker_0, # of connection points: 2
#     Edge 9, Type (0, 0), BuildingBlock: AJUNOK_clean_linker_0, # of connection points: 2
#     Edge 10, Type (0, 0), BuildingBlock: AJUNOK_clean_linker_0, # of connection points: 2
#     Edge 11, Type (0, 0), BuildingBlock: AJUNOK_clean_linker_0, # of connection points: 2
#     Edge 12, Type (0, 0), BuildingBlock: AJUNOK_clean_linker_0, # of connection points: 2
#     Edge 13, Type (0, 0), BuildingBlock: AJUNOK_clean_linker_0, # of connection points: 2
#     Edge 14, Type (0, 0), BuildingBlock: AJUNOK_clean_linker_0, # of connection points: 2
#     Edge 15, Type (0, 0), BuildingBlock: AJUNOK_clean_linker_0, # of connection points: 2
#     Edge 16, Type (0, 0), BuildingBlock: AJUNOK_clean_linker_0, # of connection points: 2
#     Edge 17, Type (0, 0), BuildingBlock: AJUNOK_clean_linker_0, # of connection points: 2
#     Edge 18, Type (0, 0), BuildingBlock: AJUNOK_clean_linker_0, # of connection points: 2
#     Edge 19, Type (0, 0), BuildingBlock: AJUNOK_clean_linker_0, # of connection points: 2
#     Edge 20, Type (0, 0), BuildingBlock: AJUNOK_clean_linker_0, # of connection points: 2
#     Edge 21, Type (0, 0), BuildingBlock: AJUNOK_clean_linker_0, # of connection points: 2
#     Edge 22, Type (0, 0), BuildingBlock: AJUNOK_clean_linker_0, # of connection points: 2
#     Edge 23, Type (0, 0), BuildingBlock: AJUNOK_clean_linker_0, # of connection points: 2
#     Edge 24, Type (0, 0), BuildingBlock: AJUNOK_clean_linker_0, # of connection points: 2
#     Edge 25, Type (0, 0), BuildingBlock: AJUNOK_clean_linker_0, # of connection points: 2
#     Edge 26, Type (0, 0), BuildingBlock: AJUNOK_clean_linker_0, # of connection points: 2
#     Edge 27, Type (0, 0), BuildingBlock: AJUNOK_clean_linker_0, # of connection points: 2
# Relax obj value: 0.407
# Max RMSD: 0.213
# Mean RMSD: 0.213
data_MOF--net-vmc--node1-XOMCOT_clean_sbu_1--edge1-AJUNOK_clean_linker_0
_symmetry_space_group_name_H-M    P1
_symmetry_Int_Tables_number       1
_symmetry_cell_setting            triclinic
loop_
_symmetry_equiv_pos_as_xyz
'x, y, z'
_cell_length_a     22.704658
_cell_length_b     38.507258
_cell_length_c     21.093182
_cell_angle_alpha  89.782427
_cell_angle_beta   95.261652
_cell_angle_gamma 89.956833
loop_
_atom_site_label
_atom_site_type_symbol
_atom_site_fract_x
_atom_site_fract_y
_atom_site_fract_z
_atom_type_partial_charge
C0 C 0.35392 0.37726 0.09717 0.0
C1 C 0.39637 0.36664 0.14376 0.0
N2 N 0.39708 0.38915 0.1926 0.0
N3 N 0.32791 0.40637 0.11632 0.0
C4 C 0.35547 0.41322 0.17444 0.0
H5 H 0.34377 0.36517 0.05127 0.0
Co6 Co 0.27248 0.43192 0.06471 0.0
C7 C 0.19498 0.45453 0.16755 0.0
O8 O 0.14711 0.43888 0.14256 0.0
N9 N 0.21848 0.45768 1.0093 0.0
C10 C 0.13956 0.47516 0.94648 0.0
C11 C 0.15871 0.45735 1.00131 0.0
C12 C 0.2342 0.47559 0.95812 0.0
N13 N 0.18731 0.48656 0.91927 0.0
O14 O 0.32852 0.46797 0.06459 0.0
H15 H 0.13053 0.44227 1.02917 0.0
H16 H 0.27934 0.47909 0.94732 0.0
O17 O 0.24287 0.45273 0.14023 0.0
C18 C 0.36966 0.46104 1.02954 0.0
O19 O 0.36387 0.43382 0.99208 0.0
N20 N 0.22121 0.39423 0.06331 0.0
C21 C 0.20259 0.32336 0.05504 0.0
C22 C 0.20346 0.34005 0.11396 0.0
C23 C 0.21322 0.3757 0.11723 0.0
C24 C 0.21347 0.37899 1.00495 0.0
C25 C 0.20376 0.34339 0.99966 0.0
H26 H 0.22326 0.38704 0.16368 0.0
H27 H 0.22289 0.39345 0.96301 0.0
H28 H 0.34605 0.43571 0.20237 0.0
H29 H 0.4261 0.34488 0.14052 0.0
H30 H 0.09428 0.477 0.92569 0.0
H31 H 0.20311 0.32519 0.15764 0.0
H32 H 0.20433 0.33125 0.95347 0.0
C33 C 0.60289 0.37841 0.51414 0.0
C34 C 0.55878 0.36811 0.46924 0.0
N35 N 0.55938 0.38925 0.41821 0.0
N36 N 0.63126 0.4059 0.49164 0.0
C37 C 0.60345 0.41217 0.43333 0.0
H38 H 0.61258 0.36731 0.56112 0.0
Co39 Co 0.68927 0.43093 0.53979 0.0
C40 C 0.76904 0.44896 0.43787 0.0
O41 O 0.81555 0.43499 0.46994 0.0
N42 N 0.74468 0.45676 0.59193 0.0
C43 C 0.80441 0.49765 0.63615 0.0
C44 C 0.78439 0.48157 0.58002 0.0
C45 C 0.74038 0.45915 0.65529 0.0
N46 N 0.77642 0.48351 0.68347 0.0
O47 O 0.63697 0.46858 0.538 0.0
H48 H 0.79455 0.49014 0.53361 0.0
H49 H 0.70869 0.44454 0.67989 0.0
O50 O 0.71922 0.44871 0.46165 0.0
C51 C 0.59676 0.46536 0.57566 0.0
O52 O 0.60089 0.43998 0.61767 0.0
N53 N 0.73801 0.39146 0.54319 0.0
C54 C 0.75272 0.31997 0.55202 0.0
C55 C 0.75186 0.33663 0.49292 0.0
C56 C 0.74391 0.37249 0.48938 0.0
C57 C 0.74581 0.37596 0.60161 0.0
C58 C 0.75352 0.34012 0.60713 0.0
H59 H 0.73379 0.3838 0.44277 0.0
H60 H 0.73832 0.39031 0.64383 0.0
H61 H 0.61444 0.43351 0.4031 0.0
H62 H 0.52714 0.34762 0.47507 0.0
H63 H 0.83339 0.51998 0.64079 0.0
H64 H 0.75051 0.32177 0.44929 0.0
H65 H 0.7546 0.32799 0.65365 0.0
C66 C 0.60959 0.61346 1.01529 0.0
C67 C 0.56561 0.62466 0.97086 0.0
N68 N 0.56466 0.60364 0.91982 0.0
N69 N 0.6363 0.58551 0.99248 0.0
C70 C 0.60765 0.5799 0.93447 0.0
H71 H 0.62027 0.62424 0.06221 0.0
Co72 Co 0.69325 0.55929 1.04005 0.0
C73 C 0.77107 0.53921 0.93783 0.0
O74 O 0.81864 0.55176 0.96992 0.0
N75 N 0.74759 0.53232 0.09175 0.0
C76 C 0.80359 0.48943 0.13558 0.0
C77 C 0.78426 0.50599 0.07948 0.0
C78 C 0.74426 0.53039 0.15535 0.0
N79 N 0.77812 0.5048 0.18331 0.0
O80 O 0.63896 0.52271 1.03903 0.0
H81 H 0.79225 0.49669 1.03293 0.0
H82 H 0.71432 0.54609 0.18022 0.0
O83 O 0.72132 0.54089 0.96159 0.0
C84 C 0.59868 0.52641 0.07642 0.0
O85 O 0.60383 0.55145 0.11873 0.0
N86 N 0.74418 0.59775 1.04237 0.0
C87 C 0.76435 0.66889 0.04908 0.0
C88 C 0.7616 0.65185 0.99043 0.0
C89 C 0.75103 0.61623 0.98798 0.0
C90 C 0.75303 0.61344 0.1003 0.0
C91 C 0.76328 0.64909 0.10474 0.0
H92 H 0.73978 0.60494 0.94172 0.0
H93 H 0.74452 0.59958 0.14292 0.0
H94 H 0.61721 0.55842 0.90415 0.0
H95 H 0.53507 0.6457 0.97703 0.0
H96 H 0.82992 0.46595 0.13995 0.0
H97 H 0.76072 0.66639 0.94628 0.0
H98 H 0.765 0.66151 0.15089 0.0
C99 C 0.35987 0.61949 0.59916 0.0
C100 C 0.40252 0.62938 0.64591 0.0
N101 N 0.40165 0.60697 0.69505 0.0
N102 N 0.33213 0.59097 0.61857 0.0
C103 C 0.35888 0.5837 0.67698 0.0
H104 H 0.3508 0.63163 0.55296 0.0
Co105 Co 0.27597 0.56631 0.56692 0.0
C106 C 0.1948 0.54654 0.66758 0.0
O107 O 0.14854 0.56227 0.63877 0.0
N108 N 0.22108 0.5414 0.51117 0.0
C109 C 0.14343 0.52828 0.44286 0.0
C110 C 0.16178 0.54476 0.49911 0.0
C111 C 0.23716 0.52257 0.46149 0.0
N112 N 0.19125 0.51488 0.41868 0.0
O113 O 0.33013 0.52916 0.56866 0.0
H114 H 0.1341 0.56136 0.52475 0.0
H115 H 0.28225 0.51598 0.45484 0.0
O116 O 0.24403 0.54675 0.64263 0.0
C117 C 0.37137 0.53547 0.53327 0.0
O118 O 0.36633 0.56265 0.49526 0.0
N119 N 0.22707 0.60519 0.56332 0.0
C120 C 0.2143 0.67638 0.5518 0.0
C121 C 0.21252 0.66036 0.61128 0.0
C122 C 0.21934 0.62448 0.61619 0.0
C123 C 0.22154 0.62002 0.50431 0.0
C124 C 0.21437 0.65574 0.49737 0.0
H125 H 0.22755 0.61332 0.66321 0.0
H126 H 0.2305 0.6049 0.46317 0.0
H127 H 0.34812 0.5614 0.70509 0.0
H128 H 0.43351 0.65049 0.64258 0.0
H129 H 0.09916 0.52876 0.41895 0.0
H130 H 0.21298 0.67565 0.65433 0.0
H131 H 0.21506 0.66739 0.45061 0.0
C132 C 0.86711 0.87545 0.09119 0.0
C133 C 0.91053 0.86777 0.13895 0.0
N134 N 0.91285 0.89369 0.18192 0.0
N135 N 0.84156 0.90585 0.10439 0.0
C136 C 0.87089 0.91659 0.15937 0.0
H137 H 0.8551 0.86001 0.04927 0.0
Co138 Co 0.78314 0.92901 0.0527 0.0
C139 C 0.70397 0.94759 0.15621 0.0
O140 O 0.65767 0.9309 0.1296 0.0
N141 N 0.72713 0.95297 0.99777 0.0
C142 C 0.66162 0.98994 0.95013 0.0
C143 C 0.68195 0.97467 1.00715 0.0
C144 C 0.73385 0.95616 0.93496 0.0
N145 N 0.69443 0.97823 0.90466 0.0
O146 O 0.83422 0.96734 0.05119 0.0
H147 H 0.66705 0.9814 0.05251 0.0
H148 H 0.76873 0.94336 0.91224 0.0
O149 O 0.75195 0.94822 0.12888 0.0
C150 C 0.87648 0.96335 1.01633 0.0
O151 O 0.87589 0.93603 0.9791 0.0
N152 N 0.73562 0.88911 0.05245 0.0
C153 C 0.72207 0.81751 1.04719 0.0
C154 C 0.72348 0.83472 0.10557 0.0
C155 C 0.73071 0.87065 0.10731 0.0
C156 C 0.72707 0.87309 0.99481 0.0
C157 C 0.71978 0.83719 0.99108 0.0
H158 H 0.74131 0.88248 0.15325 0.0
H159 H 0.73346 0.88717 0.95172 0.0
H160 H 0.86328 0.94145 0.18074 0.0
H161 H 0.9383 0.84486 0.14174 0.0
H162 H 0.62816 0.01 0.94371 0.0
H163 H 0.72583 0.82029 0.14993 0.0
H164 H 0.7179 0.82466 0.94503 0.0
C165 C 0.11595 0.87861 0.49981 0.0
C166 C 0.07339 0.87031 0.45158 0.0
N167 N 0.07253 0.89563 0.40754 0.0
N168 N 0.14186 0.90884 0.48548 0.0
C169 C 0.11406 0.91871 0.42893 0.0
H170 H 0.12666 0.86395 0.54318 0.0
Co171 Co 0.19758 0.93284 0.53893 0.0
C172 C 0.27643 0.95563 0.43707 0.0
O173 O 0.32369 0.93895 0.46131 0.0
N174 N 0.25203 0.95716 0.5954 0.0
C175 C 0.33151 0.97302 0.6585 0.0
C176 C 0.31176 0.95593 0.6034 0.0
C177 C 0.23688 0.97491 0.64672 0.0
N178 N 0.28417 0.98493 0.68577 0.0
O179 O 0.14276 0.96958 0.53986 0.0
H180 H 0.33937 0.94077 0.57516 0.0
H181 H 0.19177 0.97903 0.65725 0.0
O182 O 0.22862 0.95418 0.46454 0.0
C183 C 0.1004 0.96184 0.57286 0.0
O184 O 0.10537 0.93376 0.60857 0.0
N185 N 0.24744 0.89448 0.53987 0.0
C186 C 0.26535 0.8235 0.54806 0.0
C187 C 0.26521 0.84046 0.48922 0.0
C188 C 0.25578 0.87621 0.486 0.0
C189 C 0.25409 0.87885 0.59815 0.0
C190 C 0.26346 0.84323 0.60338 0.0
H191 H 0.24636 0.88791 0.43956 0.0
H192 H 0.24448 0.89312 0.64004 0.0
H193 H 0.12281 0.94272 0.40472 0.0
H194 H 0.04463 0.84785 0.44937 0.0
H195 H 0.37685 0.97407 0.6793 0.0
H196 H 0.26521 0.82585 0.44543 0.0
H197 H 0.26324 0.8308 0.64953 0.0
C198 C 0.11307 0.12043 0.99556 0.0
C199 C 0.06968 0.12857 0.94818 0.0
N200 N 0.06889 0.10378 0.90319 0.0
N201 N 0.14016 0.09087 0.98022 0.0
C202 C 0.11241 0.08132 0.92363 0.0
H203 H 0.12312 0.13454 1.03945 0.0
Co204 Co 0.19579 0.06701 1.03447 0.0
C205 C 0.27827 0.04512 0.93655 0.0
O206 O 0.32465 0.0607 0.96505 0.0
N207 N 0.25002 0.04303 0.0926 0.0
C208 C 0.32747 0.02985 0.16133 0.0
C209 C 0.30934 0.04613 0.10463 0.0
C210 C 0.23354 0.02487 0.14314 0.0
N211 N 0.27947 0.01696 0.18597 0.0
O212 O 0.14177 0.02972 1.03428 0.0
H213 H 0.33728 0.06234 0.07842 0.0
H214 H 0.18821 0.01892 0.15018 0.0
O215 O 0.22873 0.04624 0.96076 0.0
C216 C 0.09854 0.03709 0.0662 0.0
O217 O 0.1024 0.06505 0.10189 0.0
N218 N 0.2446 0.1058 1.03598 0.0
C219 C 0.25757 0.17708 1.04165 0.0
C220 C 0.26089 0.15976 0.98387 0.0
C221 C 0.25375 0.12386 0.98185 0.0
C222 C 0.24882 0.12187 0.09366 0.0
C223 C 0.25582 0.1577 0.09766 0.0
H224 H 0.24656 0.11177 0.93571 0.0
H225 H 0.23866 0.10768 0.13563 0.0
H226 H 0.12348 0.05809 0.89861 0.0
H227 H 0.03959 0.1504 0.94795 0.0
H228 H 0.37182 0.02999 0.18507 0.0
H229 H 0.26245 0.17413 0.9398 0.0
H230 H 0.25282 0.17038 0.14303 0.0
C231 C 0.8598 0.11495 0.58538 0.0
C232 C 0.90388 0.12398 0.63125 0.0
N233 N 0.90492 0.10053 0.67895 0.0
N234 N 0.83261 0.0861 0.60416 0.0
C235 C 0.86094 0.0779 0.66135 0.0
H236 H 0.84939 0.12791 0.54017 0.0
Co237 Co 0.77614 0.06172 0.5525 0.0
C238 C 0.69641 0.03548 0.64998 0.0
O239 O 0.64787 0.04715 0.61859 0.0
N240 N 0.72087 0.0372 0.49645 0.0
C241 C 0.64431 0.02489 0.42594 0.0
C242 C 0.66222 0.04226 0.48142 0.0
C243 C 0.73699 0.01654 0.44922 0.0
N244 N 0.69184 0.00925 0.40521 0.0
O245 O 0.83061 0.02485 0.55212 0.0
H246 H 0.6351 0.06041 0.50469 0.0
H247 H 0.78191 0.00857 0.44467 0.0
O248 O 0.74622 0.04058 0.62784 0.0
C249 C 0.87406 0.03061 0.51959 0.0
O250 O 0.8718 0.05772 0.48138 0.0
N251 N 0.72658 0.10019 0.55214 0.0
C252 C 0.70973 0.17148 0.54881 0.0
C253 C 0.70744 0.15307 0.606 0.0
C254 C 0.71613 0.11718 0.60675 0.0
C255 C 0.72265 0.11721 0.49518 0.0
C256 C 0.7138 0.15297 0.49237 0.0
H257 H 0.72293 0.10424 0.65233 0.0
H258 H 0.73375 0.10378 0.45291 0.0
H259 H 0.84988 0.05556 0.68889 0.0
H260 H 0.93416 0.14552 0.62865 0.0
H261 H 0.60102 0.02634 0.39987 0.0
H262 H 0.70559 0.16658 0.65071 0.0
H263 H 0.71565 0.16639 0.44736 0.0
C264 C 0.23469 0.50735 0.75668 0.0
C265 C 0.19158 0.53133 0.73211 0.0
C266 C 0.23314 0.49297 0.81775 0.0
C267 C 0.18864 0.50213 0.85697 0.0
H268 H 0.26971 0.49933 0.72831 0.0
H269 H 0.26661 0.4741 0.83392 0.0
S270 S 0.06881 0.56629 0.81806 0.0
N271 N 0.10489 0.56505 0.75363 0.0
N272 N 0.10275 0.53832 0.8685 0.0
C273 C 0.14592 0.52651 0.83355 0.0
C274 C 0.14723 0.54105 0.77121 0.0
C275 C 0.72351 0.4985 0.77698 0.0
C276 C 0.77666 0.49605 0.74788 0.0
C277 C 0.72236 0.5121 0.83844 0.0
C278 C 0.77436 0.52379 0.87354 0.0
H279 H 0.68217 0.49061 0.75146 0.0
H280 H 0.68008 0.51371 0.85818 0.0
S281 S 0.92584 0.52005 0.82032 0.0
N282 N 0.88296 0.50435 0.75974 0.0
N283 N 0.8813 0.53007 0.87515 0.0
C284 C 0.82812 0.52067 0.84538 0.0
C285 C 0.82912 0.50684 0.78263 0.0
C286 C 0.72285 0.47861 0.33942 0.0
C287 C 0.77353 0.46438 0.37358 0.0
C288 C 0.72493 0.49228 0.27795 0.0
C289 C 0.77772 0.49227 0.24786 0.0
H290 H 0.68083 0.47896 0.35991 0.0
H291 H 0.68444 0.50213 0.25319 0.0
S292 S 0.92392 0.46063 0.3174 0.0
N293 N 0.87905 0.45278 0.3731 0.0
N294 N 0.88252 0.47868 0.25773 0.0
C295 C 0.82898 0.47887 0.28166 0.0
C296 C 0.82702 0.46496 0.34442 0.0
C297 C 0.14736 0.46509 0.26849 0.0
C298 C 0.19487 0.47101 0.23123 0.0
C299 C 0.14673 0.47934 0.32955 0.0
C300 C 0.19353 0.5001 0.35603 0.0
H301 H 0.11046 0.44894 0.25081 0.0
H302 H 0.10956 0.47375 0.35662 0.0
S303 S 0.32628 0.526 0.27629 0.0
N304 N 0.2888 0.50053 0.22441 0.0
N305 N 0.28706 0.52782 0.33831 0.0
C306 C 0.24086 0.50683 0.31887 0.0
C307 C 0.24163 0.49219 0.25675 0.0
C308 C 0.74674 0.99543 0.81157 0.0
C309 C 0.69355 0.99062 0.83983 0.0
C310 C 0.74707 0.00924 0.74993 0.0
C311 C 0.69423 0.01897 0.71387 0.0
H312 H 0.78867 0.98931 0.83788 0.0
H313 H 0.78935 0.01263 0.73091 0.0
S314 S 0.5425 0.00782 0.76384 0.0
N315 N 0.58641 0.99386 0.82539 0.0
N316 N 0.58663 0.02019 0.71001 0.0
C317 C 0.6405 0.01317 0.74095 0.0
C318 C 0.64028 -0.00099 0.80376 0.0
C319 C 0.23694 0.00667 0.84768 0.0
C320 C 0.28145 0.02957 0.87254 0.0
C321 C 0.23803 0.99231 0.78677 0.0
C322 C 0.28348 0.0004 0.74799 0.0
H323 H 0.20104 -0.00044 0.87562 0.0
H324 H 0.20338 0.97432 0.77036 0.0
S325 S 0.40774 0.06126 0.78806 0.0
N326 N 0.37092 0.06092 0.85199 0.0
N327 N 0.37214 0.03433 0.73733 0.0
C328 C 0.32776 0.02363 0.77178 0.0
C329 C 0.32693 0.03812 0.83399 0.0
C330 C 0.32334 0.98018 0.27413 0.0
C331 C 0.27744 0.00205 0.24869 0.0
C332 C 0.32298 0.96573 0.33525 0.0
C333 C 0.27669 0.9726 0.37362 0.0
H334 H 0.35952 0.97386 0.24615 0.0
H335 H 0.35902 0.94863 0.35206 0.0
S336 S 0.14849 0.03087 0.33153 0.0
N337 N 0.18636 0.03183 0.26838 0.0
N338 N 0.18523 0.00443 0.38272 0.0
C339 C 0.23098 0.995 0.34918 0.0
C340 C 0.23142 0.00975 0.28691 0.0
C341 C 0.6502 0.97262 0.31599 0.0
C342 C 0.69578 0.994 0.34327 0.0
C343 C 0.65299 0.95794 0.25542 0.0
C344 C 0.70135 0.96426 0.21952 0.0
H345 H 0.61242 0.96692 0.34207 0.0
H346 H 0.61708 0.94128 0.23696 0.0
S347 S 0.82962 0.02122 0.26748 0.0
N348 N 0.78874 0.0227 0.32808 0.0
N349 N 0.79439 0.99515 0.21498 0.0
C350 C 0.74668 0.98622 0.24594 0.0
C351 C 0.74381 0.00106 0.30756 0.0
C352 C 0.4437 0.49543 0.09707 0.0
C353 C 0.42692 0.479 1.03884 0.0
C354 C 0.5001 0.50978 0.10944 0.0
C355 C 0.5417 0.50822 0.06406 0.0
H356 H 0.41356 0.49662 0.13399 0.0
H357 H 0.51108 0.52223 0.15497 0.0
S358 S 0.518 0.46963 0.90256 0.0
N359 N 0.45522 0.46298 0.93442 0.0
N360 N 0.56135 0.48997 0.95749 0.0
C361 C 0.52524 0.49207 1.00533 0.0
C362 C 0.46775 0.47751 0.99275 0.0
C363 C 0.50043 0.48438 0.61106 0.0
C364 C 0.54081 0.48474 0.56432 0.0
C365 C 0.44478 0.49992 0.59988 0.0
C366 C 0.42759 0.51635 0.54153 0.0
H367 H 0.51182 0.47198 0.65674 0.0
H368 H 0.4156 0.49966 0.63775 0.0
S369 S 0.51533 0.52274 0.40197 0.0
N370 N 0.55877 0.50181 0.4564 0.0
N371 N 0.45399 0.53102 0.43552 0.0
C372 C 0.46716 0.51663 0.49409 0.0
C373 C 0.5239 0.50088 0.50547 0.0
C374 C 0.03444 0.99293 1.0076 0.0
C375 C 0.04182 0.01832 0.05535 0.0
C376 C 0.98009 0.97629 0.99376 0.0
C377 C 0.93096 0.98432 1.02717 0.0
H378 H 0.07076 0.98592 0.98026 0.0
H379 H 0.977 0.95661 0.95705 0.0
S380 S 0.92635 0.05022 0.15466 0.0
N381 N -0.0051 0.05152 0.13492 0.0
N382 N 0.89266 0.02038 0.10862 0.0
C383 C 0.93738 0.01016 0.07424 0.0
C384 C -0.00716 0.02704 0.0885 0.0
C385 C 0.97776 0.01881 0.49662 0.0
C386 C 0.92997 0.01118 0.5323 0.0
C387 C 0.03315 0.00346 0.51121 0.0
C388 C 0.04291 0.97982 0.56202 0.0
H389 H 0.97267 0.03705 0.45726 0.0
H390 H 0.0683 0.00993 0.48179 0.0
S391 S 0.93207 0.95057 0.66985 0.0
N392 N 0.89578 0.97806 0.6204 0.0
N393 N -1e-05 0.94925 0.64802 0.0
C394 C -0.00458 0.97176 0.59798 0.0
C395 C 0.9389 0.98734 0.58298 0.0
C396 C 0.26243 0.27149 0.08989 0.0
C397 C 0.21358 0.28567 0.05254 0.0
C398 C 0.27743 0.23644 0.08513 0.0
C399 C 0.24446 0.21455 1.0424 0.0
H400 H 0.28997 0.28777 0.12221 0.0
H401 H 0.31511 0.2264 0.11487 0.0
S402 S 0.11035 0.23846 0.93722 0.0
N403 N 0.13106 0.275 0.97349 0.0
N404 N 0.15894 0.20885 0.96461 0.0
C405 C 0.19516 0.2283 1.00525 0.0
C406 C 0.17985 0.26397 1.01023 0.0
C407 C 0.7788 0.25938 0.52331 0.0
C408 C 0.74287 0.28208 0.55464 0.0
C409 C 0.76712 0.22371 0.52113 0.0
C410 C 0.71871 0.20954 0.54962 0.0
H411 H 0.81619 0.2693 0.5004 0.0
H412 H 0.7967 0.20701 0.49759 0.0
S413 S 0.60875 0.2584 0.63332 0.0
N414 N 0.6553 0.2883 0.6121 0.0
N415 N 0.63352 0.22107 0.60798 0.0
C416 C 0.6822 0.23199 0.58066 0.0
C417 C 0.69418 0.26832 0.58307 0.0
C418 C 0.69874 0.75698 0.08015 0.0
C419 C 0.73268 0.77962 1.04599 0.0
C420 C 0.71053 0.72128 0.08233 0.0
C421 C 0.75698 0.70703 0.05085 0.0
H422 H 0.66254 0.76692 0.1049 0.0
H423 H 0.68218 0.70458 0.10766 0.0
S424 S 0.86226 0.75568 0.95999 0.0
N425 N 0.81713 0.78567 0.98356 0.0
N426 N 0.83885 0.71842 0.98739 0.0
C427 C 0.79192 0.72945 1.01756 0.0
C428 C 0.77992 0.76579 1.01527 0.0
C429 C 0.20567 0.77314 0.57902 0.0
C430 C 0.25502 0.78575 0.55022 0.0
C431 C 0.1919 0.73776 0.57832 0.0
C432 C 0.22677 0.71388 0.54834 0.0
H433 H 0.17684 0.79088 0.60134 0.0
H434 H 0.15366 0.72902 0.60111 0.0
S435 S 0.36293 0.73349 0.46998 0.0
N436 N 0.33994 0.7717 0.4932 0.0
N437 N 0.31468 0.7049 0.49233 0.0
C438 C 0.27666 0.72611 0.52 0.0
C439 C 0.29058 0.76215 0.52072 0.0
C440 C 0.49957 0.42006 0.33145 0.0
C441 C 0.51892 0.38879 0.36132 0.0
C442 C 0.45912 0.42007 0.27694 0.0
C443 C 0.43688 0.38879 0.25 0.0
H444 H 0.51524 0.4447 0.3508 0.0
H445 H 0.44592 0.44471 0.25514 0.0
S446 S 0.47357 0.29992 0.30997 0.0
N447 N 0.5135 0.32576 0.35913 0.0
N448 N 0.43613 0.32581 0.25833 0.0
C449 C 0.4557 0.3574 0.2796 0.0
C450 C 0.49696 0.35739 0.33485 0.0
C451 C 0.46224 0.57484 0.77936 0.0
C452 C 0.44136 0.60654 0.75246 0.0
C453 C 0.50284 0.57405 0.8337 0.0
C454 C 0.52375 0.60492 0.86336 0.0
H455 H 0.4479 0.55049 0.75761 0.0
H456 H 0.51747 0.54911 0.85301 0.0
S457 S 0.48221 0.69463 0.81204 0.0
N458 N 0.44344 0.66948 0.76061 0.0
N459 N 0.52114 0.66804 0.86111 0.0
C460 C 0.50308 0.63675 0.83698 0.0
C461 C 0.46164 0.63754 0.78191 0.0
C462 C 0.04978 0.88221 0.29462 0.0
C463 C 0.03375 0.8978 0.35036 0.0
C464 C 0.01043 0.88163 0.23947 0.0
C465 C 0.95356 0.89649 0.23839 0.0
H466 H 0.09271 0.86998 0.29421 0.0
H467 H 0.02462 0.86931 0.19741 0.0
S468 S 0.89185 0.94086 0.37392 0.0
N469 N 0.95916 0.92899 0.40226 0.0
N470 N 0.88395 0.9275 0.29925 0.0
C471 C 0.93767 0.91275 0.29418 0.0
C472 C 0.97808 0.91341 0.35013 0.0
C473 C 0.0081 0.13262 0.81564 0.0
C474 C 0.02829 0.10188 0.84658 0.0
C475 C 0.96766 0.13182 0.76149 0.0
C476 C 0.94563 0.10023 0.73574 0.0
H477 H 0.02403 0.1576 0.83321 0.0
H478 H 0.95313 0.15627 0.73992 0.0
S479 S 0.984 0.0122 0.79943 0.0
N480 N 0.0219 0.03885 0.84879 0.0
N481 N 0.94792 0.03718 0.74515 0.0
C482 C 0.96549 0.06917 0.76614 0.0
C483 C 0.00647 0.07003 0.82182 0.0
loop_
_geom_bond_atom_site_label_1
_geom_bond_atom_site_label_2
_geom_bond_distance
_geom_bond_site_symmetry_2
_ccdc_geom_bond_type
C0 C1 1.351 . S
C0 N3 1.368 . S
C0 H5 0.931 . S
C1 C0 1.351 . S
C1 N2 1.373 . S
C1 H29 0.930 . S
N2 C1 1.373 . S
N2 C4 1.340 . S
N3 C0 1.368 . S
N3 C4 1.321 . S
N3 Co6 2.135 . S
C4 N2 1.340 . S
C4 N3 1.321 . S
C4 H28 0.930 . S
H5 C0 0.931 . S
Co6 N3 2.135 . S
Co6 N9 2.121 1_554 S
Co6 O14 2.055 . S
Co6 O17 2.039 . S
Co6 N20 2.140 . S
C7 O8 1.227 . S
C7 O17 1.265 . S
O8 C7 1.227 . S
N9 Co6 2.121 1_556 S
N9 C11 1.375 . S
N9 C12 1.313 . S
C10 C11 1.338 . S
C10 N13 1.377 . S
C10 H30 0.930 . S
C11 N9 1.375 . S
C11 C10 1.338 . S
C11 H15 0.931 1_556 S
C12 N9 1.313 . S
C12 N13 1.344 . S
C12 H16 0.930 . S
N13 C10 1.377 . S
N13 C12 1.344 . S
O14 Co6 2.055 . S
O14 C18 1.253 1_554 S
H15 C11 0.931 1_554 S
H16 C12 0.930 . S
O17 Co6 2.039 . S
O17 C7 1.265 . S
C18 O14 1.253 1_556 S
C18 O19 1.227 . S
O19 C18 1.227 . S
N20 Co6 2.140 . S
N20 C23 1.346 . S
N20 C24 1.345 1_554 S
C21 C22 1.387 . S
C21 C25 1.391 1_554 S
C22 C21 1.387 . S
C22 C23 1.369 . S
C22 H31 0.929 . S
C23 N20 1.346 . S
C23 C22 1.369 . S
C23 H26 0.928 . S
C24 N20 1.345 1_556 S
C24 C25 1.371 . S
C24 H27 0.931 . S
C25 C21 1.391 1_556 S
C25 C24 1.371 . S
C25 H32 0.930 . S
H26 C23 0.928 . S
H27 C24 0.931 . S
H28 C4 0.930 . S
H29 C1 0.930 . S
H30 C10 0.930 . S
H31 C22 0.929 . S
H32 C25 0.930 . S
C33 C34 1.351 . S
C33 N36 1.368 . S
C33 H38 0.931 . S
C34 C33 1.351 . S
C34 N35 1.373 . S
C34 H62 0.930 . S
N35 C34 1.373 . S
N35 C37 1.340 . S
N36 C33 1.368 . S
N36 C37 1.321 . S
N36 Co39 2.135 . S
C37 N35 1.340 . S
C37 N36 1.321 . S
C37 H61 0.930 . S
H38 C33 0.931 . S
Co39 N36 2.135 . S
Co39 N42 2.121 . S
Co39 O47 2.055 . S
Co39 O50 2.039 . S
Co39 N53 2.140 . S
C40 O41 1.227 . S
C40 O50 1.265 . S
O41 C40 1.227 . S
N42 Co39 2.121 . S
N42 C44 1.375 . S
N42 C45 1.313 . S
C43 C44 1.338 . S
C43 N46 1.377 . S
C43 H63 0.930 . S
C44 N42 1.375 . S
C44 C43 1.338 . S
C44 H48 0.931 . S
C45 N42 1.313 . S
C45 N46 1.344 . S
C45 H49 0.930 . S
N46 C43 1.377 . S
N46 C45 1.344 . S
O47 Co39 2.055 . S
O47 C51 1.253 . S
H48 C44 0.931 . S
H49 C45 0.930 . S
O50 Co39 2.039 . S
O50 C40 1.265 . S
C51 O47 1.253 . S
C51 O52 1.227 . S
O52 C51 1.227 . S
N53 Co39 2.140 . S
N53 C56 1.346 . S
N53 C57 1.345 . S
C54 C55 1.387 . S
C54 C58 1.391 . S
C55 C54 1.387 . S
C55 C56 1.369 . S
C55 H64 0.929 . S
C56 N53 1.346 . S
C56 C55 1.369 . S
C56 H59 0.928 . S
C57 N53 1.345 . S
C57 C58 1.371 . S
C57 H60 0.931 . S
C58 C54 1.391 . S
C58 C57 1.371 . S
C58 H65 0.930 . S
H59 C56 0.928 . S
H60 C57 0.931 . S
H61 C37 0.930 . S
H62 C34 0.930 . S
H63 C43 0.930 . S
H64 C55 0.929 . S
H65 C58 0.930 . S
C66 C67 1.351 . S
C66 N69 1.368 . S
C66 H71 0.931 . S
C67 C66 1.351 . S
C67 N68 1.373 . S
C67 H95 0.930 . S
N68 C67 1.373 . S
N68 C70 1.340 . S
N69 C66 1.368 . S
N69 C70 1.321 . S
N69 Co72 2.135 . S
C70 N68 1.340 . S
C70 N69 1.321 . S
C70 H94 0.930 . S
H71 C66 0.931 . S
Co72 N69 2.135 . S
Co72 N75 2.121 1_556 S
Co72 O80 2.055 . S
Co72 O83 2.039 . S
Co72 N86 2.140 . S
C73 O74 1.227 . S
C73 O83 1.265 . S
O74 C73 1.227 . S
N75 Co72 2.121 1_554 S
N75 C77 1.375 . S
N75 C78 1.313 . S
C76 C77 1.338 . S
C76 N79 1.377 . S
C76 H96 0.930 . S
C77 N75 1.375 . S
C77 C76 1.338 . S
C77 H81 0.931 1_554 S
C78 N75 1.313 . S
C78 N79 1.344 . S
C78 H82 0.930 . S
N79 C76 1.377 . S
N79 C78 1.344 . S
O80 Co72 2.055 . S
O80 C84 1.253 1_556 S
H81 C77 0.931 1_556 S
H82 C78 0.930 . S
O83 Co72 2.039 . S
O83 C73 1.265 . S
C84 O80 1.253 1_554 S
C84 O85 1.227 . S
O85 C84 1.227 . S
N86 Co72 2.140 . S
N86 C89 1.346 . S
N86 C90 1.345 1_556 S
C87 C88 1.387 . S
C87 C91 1.391 1_556 S
C88 C87 1.387 . S
C88 C89 1.369 . S
C88 H97 0.929 . S
C89 N86 1.346 . S
C89 C88 1.369 . S
C89 H92 0.928 . S
C90 N86 1.345 1_554 S
C90 C91 1.371 . S
C90 H93 0.931 . S
C91 C87 1.391 1_554 S
C91 C90 1.371 . S
C91 H98 0.930 . S
H92 C89 0.928 . S
H93 C90 0.931 . S
H94 C70 0.930 . S
H95 C67 0.930 . S
H96 C76 0.930 . S
H97 C88 0.929 . S
H98 C91 0.930 . S
C99 C100 1.351 . S
C99 N102 1.368 . S
C99 H104 0.931 . S
C100 C99 1.351 . S
C100 N101 1.373 . S
C100 H128 0.930 . S
N101 C100 1.373 . S
N101 C103 1.340 . S
N102 C99 1.368 . S
N102 C103 1.321 . S
N102 Co105 2.135 . S
C103 N101 1.340 . S
C103 N102 1.321 . S
C103 H127 0.930 . S
H104 C99 0.931 . S
Co105 N102 2.135 . S
Co105 N108 2.121 . S
Co105 O113 2.055 . S
Co105 O116 2.039 . S
Co105 N119 2.140 . S
C106 O107 1.227 . S
C106 O116 1.265 . S
O107 C106 1.227 . S
N108 Co105 2.121 . S
N108 C110 1.375 . S
N108 C111 1.313 . S
C109 C110 1.338 . S
C109 N112 1.377 . S
C109 H129 0.930 . S
C110 N108 1.375 . S
C110 C109 1.338 . S
C110 H114 0.931 . S
C111 N108 1.313 . S
C111 N112 1.344 . S
C111 H115 0.930 . S
N112 C109 1.377 . S
N112 C111 1.344 . S
O113 Co105 2.055 . S
O113 C117 1.253 . S
H114 C110 0.931 . S
H115 C111 0.930 . S
O116 Co105 2.039 . S
O116 C106 1.265 . S
C117 O113 1.253 . S
C117 O118 1.227 . S
O118 C117 1.227 . S
N119 Co105 2.140 . S
N119 C122 1.346 . S
N119 C123 1.345 . S
C120 C121 1.387 . S
C120 C124 1.391 . S
C121 C120 1.387 . S
C121 C122 1.369 . S
C121 H130 0.929 . S
C122 N119 1.346 . S
C122 C121 1.369 . S
C122 H125 0.928 . S
C123 N119 1.345 . S
C123 C124 1.371 . S
C123 H126 0.931 . S
C124 C120 1.391 . S
C124 C123 1.371 . S
C124 H131 0.930 . S
H125 C122 0.928 . S
H126 C123 0.931 . S
H127 C103 0.930 . S
H128 C100 0.930 . S
H129 C109 0.930 . S
H130 C121 0.929 . S
H131 C124 0.930 . S
C132 C133 1.351 . S
C132 N135 1.368 . S
C132 H137 0.931 . S
C133 C132 1.351 . S
C133 N134 1.373 . S
C133 H161 0.930 . S
N134 C133 1.373 . S
N134 C136 1.340 . S
N135 C132 1.368 . S
N135 C136 1.321 . S
N135 Co138 2.135 . S
C136 N134 1.340 . S
C136 N135 1.321 . S
C136 H160 0.930 . S
H137 C132 0.931 . S
Co138 N135 2.135 . S
Co138 N141 2.121 1_554 S
Co138 O146 2.055 . S
Co138 O149 2.039 . S
Co138 N152 2.140 . S
C139 O140 1.227 . S
C139 O149 1.265 . S
O140 C139 1.227 . S
N141 Co138 2.121 1_556 S
N141 C143 1.375 . S
N141 C144 1.313 . S
C142 C143 1.338 . S
C142 N145 1.377 . S
C142 H162 0.930 . S
C143 N141 1.375 . S
C143 C142 1.338 . S
C143 H147 0.931 1_556 S
C144 N141 1.313 . S
C144 N145 1.344 . S
C144 H148 0.930 . S
N145 C142 1.377 . S
N145 C144 1.344 . S
O146 Co138 2.055 . S
O146 C150 1.253 1_554 S
H147 C143 0.931 1_554 S
H148 C144 0.930 . S
O149 Co138 2.039 . S
O149 C139 1.265 . S
C150 O146 1.253 1_556 S
C150 O151 1.227 . S
O151 C150 1.227 . S
N152 Co138 2.140 . S
N152 C155 1.346 . S
N152 C156 1.345 1_554 S
C153 C154 1.387 . S
C153 C157 1.391 1_554 S
C154 C153 1.387 . S
C154 C155 1.369 . S
C154 H163 0.929 . S
C155 N152 1.346 . S
C155 C154 1.369 . S
C155 H158 0.928 . S
C156 N152 1.345 1_556 S
C156 C157 1.371 . S
C156 H159 0.931 . S
C157 C153 1.391 1_556 S
C157 C156 1.371 . S
C157 H164 0.930 . S
H158 C155 0.928 . S
H159 C156 0.931 . S
H160 C136 0.930 . S
H161 C133 0.930 . S
H162 C142 0.930 . S
H163 C154 0.929 . S
H164 C157 0.930 . S
C165 C166 1.351 . S
C165 N168 1.368 . S
C165 H170 0.931 . S
C166 C165 1.351 . S
C166 N167 1.373 . S
C166 H194 0.930 . S
N167 C166 1.373 . S
N167 C169 1.340 . S
N168 C165 1.368 . S
N168 C169 1.321 . S
N168 Co171 2.135 . S
C169 N167 1.340 . S
C169 N168 1.321 . S
C169 H193 0.930 . S
H170 C165 0.931 . S
Co171 N168 2.135 . S
Co171 N174 2.121 . S
Co171 O179 2.055 . S
Co171 O182 2.039 . S
Co171 N185 2.140 . S
C172 O173 1.227 . S
C172 O182 1.265 . S
O173 C172 1.227 . S
N174 Co171 2.121 . S
N174 C176 1.375 . S
N174 C177 1.313 . S
C175 C176 1.338 . S
C175 N178 1.377 . S
C175 H195 0.930 . S
C176 N174 1.375 . S
C176 C175 1.338 . S
C176 H180 0.931 . S
C177 N174 1.313 . S
C177 N178 1.344 . S
C177 H181 0.930 . S
N178 C175 1.377 . S
N178 C177 1.344 . S
O179 Co171 2.055 . S
O179 C183 1.253 . S
H180 C176 0.931 . S
H181 C177 0.930 . S
O182 Co171 2.039 . S
O182 C172 1.265 . S
C183 O179 1.253 . S
C183 O184 1.227 . S
O184 C183 1.227 . S
N185 Co171 2.140 . S
N185 C188 1.346 . S
N185 C189 1.345 . S
C186 C187 1.387 . S
C186 C190 1.391 . S
C187 C186 1.387 . S
C187 C188 1.369 . S
C187 H196 0.929 . S
C188 N185 1.346 . S
C188 C187 1.369 . S
C188 H191 0.928 . S
C189 N185 1.345 . S
C189 C190 1.371 . S
C189 H192 0.931 . S
C190 C186 1.391 . S
C190 C189 1.371 . S
C190 H197 0.930 . S
H191 C188 0.928 . S
H192 C189 0.931 . S
H193 C169 0.930 . S
H194 C166 0.930 . S
H195 C175 0.930 . S
H196 C187 0.929 . S
H197 C190 0.930 . S
C198 C199 1.351 . S
C198 N201 1.368 . S
C198 H203 0.931 . S
C199 C198 1.351 . S
C199 N200 1.373 . S
C199 H227 0.930 . S
N200 C199 1.373 . S
N200 C202 1.340 . S
N201 C198 1.368 . S
N201 C202 1.321 . S
N201 Co204 2.135 . S
C202 N200 1.340 . S
C202 N201 1.321 . S
C202 H226 0.930 . S
H203 C198 0.931 . S
Co204 N201 2.135 . S
Co204 N207 2.121 1_556 S
Co204 O212 2.055 . S
Co204 O215 2.039 . S
Co204 N218 2.140 . S
C205 O206 1.227 . S
C205 O215 1.265 . S
O206 C205 1.227 . S
N207 Co204 2.121 1_554 S
N207 C209 1.375 . S
N207 C210 1.313 . S
C208 C209 1.338 . S
C208 N211 1.377 . S
C208 H228 0.930 . S
C209 N207 1.375 . S
C209 C208 1.338 . S
C209 H213 0.931 1_554 S
C210 N207 1.313 . S
C210 N211 1.344 . S
C210 H214 0.930 . S
N211 C208 1.377 . S
N211 C210 1.344 . S
O212 Co204 2.055 . S
O212 C216 1.253 1_556 S
H213 C209 0.931 1_556 S
H214 C210 0.930 . S
O215 Co204 2.039 . S
O215 C205 1.265 . S
C216 O212 1.253 1_554 S
C216 O217 1.227 . S
O217 C216 1.227 . S
N218 Co204 2.140 . S
N218 C221 1.346 . S
N218 C222 1.345 1_556 S
C219 C220 1.387 . S
C219 C223 1.391 1_556 S
C220 C219 1.387 . S
C220 C221 1.369 . S
C220 H229 0.929 . S
C221 N218 1.346 . S
C221 C220 1.369 . S
C221 H224 0.928 . S
C222 N218 1.345 1_554 S
C222 C223 1.371 . S
C222 H225 0.931 . S
C223 C219 1.391 1_554 S
C223 C222 1.371 . S
C223 H230 0.930 . S
H224 C221 0.928 . S
H225 C222 0.931 . S
H226 C202 0.930 . S
H227 C199 0.930 . S
H228 C208 0.930 . S
H229 C220 0.929 . S
H230 C223 0.930 . S
C231 C232 1.351 . S
C231 N234 1.368 . S
C231 H236 0.931 . S
C232 C231 1.351 . S
C232 N233 1.373 . S
C232 H260 0.930 . S
N233 C232 1.373 . S
N233 C235 1.340 . S
N234 C231 1.368 . S
N234 C235 1.321 . S
N234 Co237 2.135 . S
C235 N233 1.340 . S
C235 N234 1.321 . S
C235 H259 0.930 . S
H236 C231 0.931 . S
Co237 N234 2.135 . S
Co237 N240 2.121 . S
Co237 O245 2.055 . S
Co237 O248 2.039 . S
Co237 N251 2.140 . S
C238 O239 1.227 . S
C238 O248 1.265 . S
O239 C238 1.227 . S
N240 Co237 2.121 . S
N240 C242 1.375 . S
N240 C243 1.313 . S
C241 C242 1.338 . S
C241 N244 1.377 . S
C241 H261 0.930 . S
C242 N240 1.375 . S
C242 C241 1.338 . S
C242 H246 0.931 . S
C243 N240 1.313 . S
C243 N244 1.344 . S
C243 H247 0.930 . S
N244 C241 1.377 . S
N244 C243 1.344 . S
O245 Co237 2.055 . S
O245 C249 1.253 . S
H246 C242 0.931 . S
H247 C243 0.930 . S
O248 Co237 2.039 . S
O248 C238 1.265 . S
C249 O245 1.253 . S
C249 O250 1.227 . S
O250 C249 1.227 . S
N251 Co237 2.140 . S
N251 C254 1.346 . S
N251 C255 1.345 . S
C252 C253 1.387 . S
C252 C256 1.391 . S
C253 C252 1.387 . S
C253 C254 1.369 . S
C253 H262 0.929 . S
C254 N251 1.346 . S
C254 C253 1.369 . S
C254 H257 0.928 . S
C255 N251 1.345 . S
C255 C256 1.371 . S
C255 H258 0.931 . S
C256 C252 1.391 . S
C256 C255 1.371 . S
C256 H263 0.930 . S
H257 C254 0.928 . S
H258 C255 0.931 . S
H259 C235 0.930 . S
H260 C232 0.930 . S
H261 C241 0.930 . S
H262 C253 0.929 . S
H263 C256 0.930 . S
C264 C265 1.369 . S
C264 C266 1.419 . S
C264 H268 0.930 . S
C265 C264 1.369 . S
C265 C274 1.429 . S
C266 C264 1.419 . S
C266 C267 1.363 . S
C266 H269 0.929 . S
C267 C266 1.363 . S
C267 C273 1.428 . S
H268 C264 0.930 . S
H269 C266 0.929 . S
S270 N271 1.613 . S
S270 N272 1.610 . S
N271 S270 1.613 . S
N271 C274 1.350 . S
N272 S270 1.610 . S
N272 C273 1.351 . S
C273 C267 1.428 . S
C273 N272 1.351 . S
C273 C274 1.434 . S
C274 C265 1.429 . S
C274 N271 1.350 . S
C274 C273 1.434 . S
C275 C276 1.369 . S
C275 C277 1.419 . S
C275 H279 0.930 . S
C276 C275 1.369 . S
C276 C285 1.429 . S
C277 C275 1.419 . S
C277 C278 1.363 . S
C277 H280 0.929 . S
C278 C277 1.363 . S
C278 C284 1.428 . S
H279 C275 0.930 . S
H280 C277 0.929 . S
S281 N282 1.613 . S
S281 N283 1.610 . S
N282 S281 1.613 . S
N282 C285 1.350 . S
N283 S281 1.610 . S
N283 C284 1.351 . S
C284 C278 1.428 . S
C284 N283 1.351 . S
C284 C285 1.434 . S
C285 C276 1.429 . S
C285 N282 1.350 . S
C285 C284 1.434 . S
C286 C287 1.369 . S
C286 C288 1.419 . S
C286 H290 0.930 . S
C287 C286 1.369 . S
C287 C296 1.429 . S
C288 C286 1.419 . S
C288 C289 1.363 . S
C288 H291 0.929 . S
C289 C288 1.363 . S
C289 C295 1.428 . S
H290 C286 0.930 . S
H291 C288 0.929 . S
S292 N293 1.613 . S
S292 N294 1.610 . S
N293 S292 1.613 . S
N293 C296 1.350 . S
N294 S292 1.610 . S
N294 C295 1.351 . S
C295 C289 1.428 . S
C295 N294 1.351 . S
C295 C296 1.434 . S
C296 C287 1.429 . S
C296 N293 1.350 . S
C296 C295 1.434 . S
C297 C298 1.369 . S
C297 C299 1.419 . S
C297 H301 0.930 . S
C298 C297 1.369 . S
C298 C307 1.429 . S
C299 C297 1.419 . S
C299 C300 1.363 . S
C299 H302 0.929 . S
C300 C299 1.363 . S
C300 C306 1.428 . S
H301 C297 0.930 . S
H302 C299 0.929 . S
S303 N304 1.613 . S
S303 N305 1.610 . S
N304 S303 1.613 . S
N304 C307 1.350 . S
N305 S303 1.610 . S
N305 C306 1.351 . S
C306 C300 1.428 . S
C306 N305 1.351 . S
C306 C307 1.434 . S
C307 C298 1.429 . S
C307 N304 1.350 . S
C307 C306 1.434 . S
C308 C309 1.369 1_545 S
C308 C310 1.419 . S
C308 H312 0.930 . S
C309 C308 1.369 1_565 S
C309 C318 1.429 . S
C310 C308 1.419 . S
C310 C311 1.363 . S
C310 H313 0.929 . S
C311 C310 1.363 . S
C311 C317 1.428 1_545 S
H312 C308 0.930 . S
H313 C310 0.929 . S
S314 N315 1.613 . S
S314 N316 1.610 . S
N315 S314 1.613 . S
N315 C318 1.350 . S
N316 S314 1.610 . S
N316 C317 1.351 . S
C317 C311 1.428 1_565 S
C317 N316 1.351 . S
C317 C318 1.434 . S
C318 C309 1.429 . S
C318 N315 1.350 . S
C318 C317 1.434 . S
C319 C320 1.369 1_565 S
C319 C321 1.419 . S
C319 H323 0.930 . S
C320 C319 1.369 1_545 S
C320 C329 1.429 . S
C321 C319 1.419 . S
C321 C322 1.363 . S
C321 H324 0.929 . S
C322 C321 1.363 . S
C322 C328 1.428 1_565 S
H323 C319 0.930 . S
H324 C321 0.929 . S
S325 N326 1.613 . S
S325 N327 1.610 . S
N326 S325 1.613 . S
N326 C329 1.350 . S
N327 S325 1.610 . S
N327 C328 1.351 . S
C328 C322 1.428 1_545 S
C328 N327 1.351 . S
C328 C329 1.434 . S
C329 C320 1.429 . S
C329 N326 1.350 . S
C329 C328 1.434 . S
C330 C331 1.369 1_565 S
C330 C332 1.419 . S
C330 H334 0.930 . S
C331 C330 1.369 1_545 S
C331 C340 1.429 . S
C332 C330 1.419 . S
C332 C333 1.363 . S
C332 H335 0.929 . S
C333 C332 1.363 . S
C333 C339 1.428 1_565 S
H334 C330 0.930 . S
H335 C332 0.929 . S
S336 N337 1.613 . S
S336 N338 1.610 . S
N337 S336 1.613 . S
N337 C340 1.350 . S
N338 S336 1.610 . S
N338 C339 1.351 . S
C339 C333 1.428 1_545 S
C339 N338 1.351 . S
C339 C340 1.434 . S
C340 C331 1.429 . S
C340 N337 1.350 . S
C340 C339 1.434 . S
C341 C342 1.369 . S
C341 C343 1.419 . S
C341 H345 0.930 . S
C342 C341 1.369 . S
C342 C351 1.429 1_545 S
C343 C341 1.419 . S
C343 C344 1.361 1_545 S
C343 H346 0.930 . S
C344 C343 1.361 1_565 S
C344 C350 1.428 . S
H345 C341 0.930 . S
H346 C343 0.930 . S
S347 N348 1.613 . S
S347 N349 1.610 . S
N348 S347 1.613 . S
N348 C351 1.350 . S
N349 S347 1.610 . S
N349 C350 1.351 . S
C350 C344 1.428 . S
C350 N349 1.351 . S
C350 C351 1.434 . S
C351 C342 1.429 1_565 S
C351 N348 1.350 . S
C351 C350 1.434 . S
C352 C353 1.369 1_554 S
C352 C354 1.419 . S
C352 H356 0.930 . S
C353 C352 1.369 1_556 S
C353 C362 1.429 . S
C354 C352 1.419 . S
C354 C355 1.363 . S
C354 H357 0.929 . S
C355 C354 1.363 . S
C355 C361 1.428 1_554 S
H356 C352 0.930 . S
H357 C354 0.929 . S
S358 N359 1.613 . S
S358 N360 1.610 . S
N359 S358 1.613 . S
N359 C362 1.350 . S
N360 S358 1.610 . S
N360 C361 1.351 . S
C361 C355 1.428 1_556 S
C361 N360 1.351 . S
C361 C362 1.434 . S
C362 C353 1.429 . S
C362 N359 1.350 . S
C362 C361 1.434 . S
C363 C364 1.369 . S
C363 C365 1.419 . S
C363 H367 0.930 . S
C364 C363 1.369 . S
C364 C373 1.429 . S
C365 C363 1.419 . S
C365 C366 1.363 . S
C365 H368 0.929 . S
C366 C365 1.363 . S
C366 C372 1.428 . S
H367 C363 0.930 . S
H368 C365 0.929 . S
S369 N370 1.613 . S
S369 N371 1.610 . S
N370 S369 1.613 . S
N370 C373 1.350 . S
N371 S369 1.610 . S
N371 C372 1.351 . S
C372 C366 1.428 . S
C372 N371 1.351 . S
C372 C373 1.434 . S
C373 C364 1.429 . S
C373 N370 1.350 . S
C373 C372 1.434 . S
C374 C375 1.369 . S
C374 C376 1.419 1_445 S
C374 H378 0.930 . S
C375 C374 1.369 . S
C375 C384 1.429 1_554 S
C376 C374 1.419 1_665 S
C376 C377 1.363 1_554 S
C376 H379 0.929 . S
C377 C376 1.363 1_556 S
C377 C383 1.428 . S
H378 C374 0.930 . S
H379 C376 0.929 . S
S380 N381 1.613 . S
S380 N382 1.617 1_455 S
N381 S380 1.613 . S
N381 C384 1.350 . S
N382 S380 1.617 1_655 S
N382 C383 1.350 1_545 S
C383 C377 1.428 . S
C383 N382 1.350 1_565 S
C383 C384 1.434 1_665 S
C384 C375 1.429 1_556 S
C384 N381 1.350 . S
C384 C383 1.434 1_445 S
C385 C386 1.369 . S
C385 C387 1.419 1_645 S
C385 H389 0.930 . S
C386 C385 1.369 . S
C386 C395 1.429 . S
C387 C385 1.419 1_465 S
C387 C388 1.363 . S
C387 H390 0.929 . S
C388 C387 1.363 . S
C388 C394 1.428 . S
H389 C385 0.930 . S
H390 C387 0.929 . S
S391 N392 1.613 . S
S391 N393 1.610 1_645 S
N392 S391 1.613 . S
N392 C395 1.350 . S
N393 S391 1.610 1_465 S
N393 C394 1.351 . S
C394 C388 1.428 . S
C394 N393 1.351 . S
C394 C395 1.434 1_465 S
C395 C386 1.429 . S
C395 N392 1.350 . S
C395 C394 1.434 1_645 S
C396 C397 1.379 . S
C396 C398 1.419 . S
C396 H400 0.930 . S
C397 C396 1.379 . S
C397 C406 1.418 1_554 S
C398 C396 1.419 . S
C398 C399 1.363 1_554 S
C398 H401 0.929 . S
C399 C398 1.363 1_556 S
C399 C405 1.428 . S
H400 C396 0.930 . S
H401 C398 0.929 . S
S402 N403 1.613 . S
S402 N404 1.610 . S
N403 S402 1.613 . S
N403 C406 1.350 . S
N404 S402 1.610 . S
N404 C405 1.351 . S
C405 C399 1.428 . S
C405 N404 1.351 . S
C405 C406 1.434 . S
C406 C397 1.418 1_556 S
C406 N403 1.350 . S
C406 C405 1.434 . S
C407 C408 1.369 . S
C407 C409 1.419 . S
C407 H411 0.930 . S
C408 C407 1.369 . S
C408 C417 1.429 . S
C409 C407 1.419 . S
C409 C410 1.363 . S
C409 H412 0.929 . S
C410 C409 1.363 . S
C410 C416 1.428 . S
H411 C407 0.930 . S
H412 C409 0.929 . S
S413 N414 1.613 . S
S413 N415 1.610 . S
N414 S413 1.613 . S
N414 C417 1.350 . S
N415 S413 1.610 . S
N415 C416 1.351 . S
C416 C410 1.428 . S
C416 N415 1.351 . S
C416 C417 1.434 . S
C417 C408 1.429 . S
C417 N414 1.350 . S
C417 C416 1.434 . S
C418 C419 1.372 . S
C418 C420 1.419 . S
C418 H422 0.930 . S
C419 C418 1.372 . S
C419 C428 1.425 1_554 S
C420 C418 1.419 . S
C420 C421 1.363 1_554 S
C420 H423 0.929 . S
C421 C420 1.363 1_556 S
C421 C427 1.428 . S
H422 C418 0.930 . S
H423 C420 0.929 . S
S424 N425 1.613 . S
S424 N426 1.610 . S
N425 S424 1.613 . S
N425 C428 1.350 . S
N426 S424 1.610 . S
N426 C427 1.351 . S
C427 C421 1.428 . S
C427 N426 1.351 . S
C427 C428 1.434 . S
C428 C419 1.425 1_556 S
C428 N425 1.350 . S
C428 C427 1.434 . S
C429 C430 1.369 . S
C429 C431 1.419 . S
C429 H433 0.930 . S
C430 C429 1.369 . S
C430 C439 1.429 . S
C431 C429 1.419 . S
C431 C432 1.363 . S
C431 H434 0.929 . S
C432 C431 1.363 . S
C432 C438 1.428 . S
H433 C429 0.930 . S
H434 C431 0.929 . S
S435 N436 1.613 . S
S435 N437 1.610 . S
N436 S435 1.613 . S
N436 C439 1.350 . S
N437 S435 1.610 . S
N437 C438 1.351 . S
C438 C432 1.428 . S
C438 N437 1.351 . S
C438 C439 1.434 . S
C439 C430 1.429 . S
C439 N436 1.350 . S
C439 C438 1.434 . S
C440 C441 1.369 . S
C440 C442 1.419 . S
C440 H444 0.930 . S
C441 C440 1.369 . S
C441 C450 1.429 . S
C442 C440 1.419 . S
C442 C443 1.363 . S
C442 H445 0.929 . S
C443 C442 1.363 . S
C443 C449 1.428 . S
H444 C440 0.930 . S
H445 C442 0.929 . S
S446 N447 1.613 . S
S446 N448 1.610 . S
N447 S446 1.613 . S
N447 C450 1.350 . S
N448 S446 1.610 . S
N448 C449 1.351 . S
C449 C443 1.428 . S
C449 N448 1.351 . S
C449 C450 1.434 . S
C450 C441 1.429 . S
C450 N447 1.350 . S
C450 C449 1.434 . S
C451 C452 1.369 . S
C451 C453 1.419 . S
C451 H455 0.930 . S
C452 C451 1.369 . S
C452 C461 1.429 . S
C453 C451 1.419 . S
C453 C454 1.363 . S
C453 H456 0.929 . S
C454 C453 1.363 . S
C454 C460 1.428 . S
H455 C451 0.930 . S
H456 C453 0.929 . S
S457 N458 1.613 . S
S457 N459 1.610 . S
N458 S457 1.613 . S
N458 C461 1.350 . S
N459 S457 1.610 . S
N459 C460 1.351 . S
C460 C454 1.428 . S
C460 N459 1.351 . S
C460 C461 1.434 . S
C461 C452 1.429 . S
C461 N458 1.350 . S
C461 C460 1.434 . S
C462 C463 1.369 . S
C462 C464 1.419 1_455 S
C462 H466 0.930 . S
C463 C462 1.369 . S
C463 C472 1.429 . S
C464 C462 1.419 1_655 S
C464 C465 1.363 . S
C464 H467 0.929 . S
C465 C464 1.363 . S
C465 C471 1.428 . S
H466 C462 0.930 . S
H467 C464 0.929 . S
S468 N469 1.613 1_655 S
S468 N470 1.610 . S
N469 S468 1.613 1_455 S
N469 C472 1.350 . S
N470 S468 1.610 . S
N470 C471 1.351 . S
C471 C465 1.428 . S
C471 N470 1.351 . S
C471 C472 1.434 1_655 S
C472 C463 1.429 . S
C472 N469 1.350 . S
C472 C471 1.434 1_455 S
C473 C474 1.369 . S
C473 C475 1.419 1_455 S
C473 H477 0.930 . S
C474 C473 1.369 . S
C474 C483 1.429 . S
C475 C473 1.419 1_655 S
C475 C476 1.363 . S
C475 H478 0.929 . S
C476 C475 1.363 . S
C476 C482 1.428 . S
H477 C473 0.930 . S
H478 C475 0.929 . S
S479 N480 1.613 1_655 S
S479 N481 1.610 . S
N480 S479 1.613 1_455 S
N480 C483 1.350 . S
N481 S479 1.610 . S
N481 C482 1.351 . S
C482 C476 1.428 . S
C482 N481 1.351 . S
C482 C483 1.434 1_655 S
C483 C474 1.429 . S
C483 N480 1.350 . S
C483 C482 1.434 1_455 S
C265 C106 1.852 . S
C267 N13 1.952 . S
C276 N46 1.951 . S
C278 C73 1.856 . S
C287 C40 1.858 . S
C289 N79 1.952 . S
C298 C7 1.854 . S
C300 N112 1.950 . S
C309 N145 1.950 . S
C311 C238 1.856 . S
C320 C205 1.852 . S
C322 N178 1.952 . S
C331 N211 1.950 . S
C333 C172 1.855 . S
C342 N244 1.949 . S
C344 C139 1.851 . S
C353 C18 1.330 . S
C355 C84 1.321 . S
C364 C51 1.324 . S
C366 C117 1.327 . S
C375 C216 1.320 . S
C377 C150 1.330 . S
C386 C249 1.320 . S
C388 C183 1.331 . S
C397 C21 1.564 . S
C399 C219 1.555 . S
C408 C54 1.557 . S
C410 C252 1.559 . S
C419 C153 1.557 . S
C421 C87 1.560 . S
C430 C186 1.559 . S
C432 C120 1.557 . S
C441 N35 0.883 . S
C443 N2 0.865 . S
C452 N101 0.881 . S
C454 N68 0.866 . S
C463 N167 0.857 . S
C465 N134 0.880 . S
C474 N200 0.868 . S
C476 N233 0.865 . S
