# Generated by pormake.
# Topology ukt, (4)-cn, num edge types: 1
# Building blocks:
#     Node 0, Type 0, BuildingBlock: CEKHIL_clean_sbu_0, # of connection points: 4
#     Node 1, Type 0, BuildingBlock: CEKHIL_clean_sbu_0, # of connection points: 4
#     Node 2, Type 0, BuildingBlock: CEKHIL_clean_sbu_0, # of connection points: 4
#     Node 3, Type 0, BuildingBlock: CEKHIL_clean_sbu_0, # of connection points: 4
#     Node 4, Type 0, BuildingBlock: CEKHIL_clean_sbu_0, # of connection points: 4
#     Node 5, Type 0, BuildingBlock: CEKHIL_clean_sbu_0, # of connection points: 4
#     Node 6, Type 0, BuildingBlock: CEKHIL_clean_sbu_0, # of connection points: 4
#     Node 7, Type 0, BuildingBlock: CEKHIL_clean_sbu_0, # of connection points: 4
#     Node 8, Type 0, BuildingBlock: CEKHIL_clean_sbu_0, # of connection points: 4
#     Node 9, Type 0, BuildingBlock: CEKHIL_clean_sbu_0, # of connection points: 4
#     Node 10, Type 0, BuildingBlock: CEKHIL_clean_sbu_0, # of connection points: 4
#     Node 11, Type 0, BuildingBlock: CEKHIL_clean_sbu_0, # of connection points: 4
#     Node 12, Type 0, BuildingBlock: CEKHIL_clean_sbu_0, # of connection points: 4
#     Node 13, Type 0, BuildingBlock: CEKHIL_clean_sbu_0, # of connection points: 4
#     Node 14, Type 0, BuildingBlock: CEKHIL_clean_sbu_0, # of connection points: 4
#     Node 15, Type 0, BuildingBlock: CEKHIL_clean_sbu_0, # of connection points: 4
#     Edge 16, Type (0, 0), BuildingBlock: XUDNAN_clean_linker_2, # of connection points: 2
#     Edge 17, Type (0, 0), BuildingBlock: XUDNAN_clean_linker_2, # of connection points: 2
#     Edge 18, Type (0, 0), BuildingBlock: XUDNAN_clean_linker_2, # of connection points: 2
#     Edge 19, Type (0, 0), BuildingBlock: XUDNAN_clean_linker_2, # of connection points: 2
#     Edge 20, Type (0, 0), BuildingBlock: XUDNAN_clean_linker_2, # of connection points: 2
#     Edge 21, Type (0, 0), BuildingBlock: XUDNAN_clean_linker_2, # of connection points: 2
#     Edge 22, Type (0, 0), BuildingBlock: XUDNAN_clean_linker_2, # of connection points: 2
#     Edge 23, Type (0, 0), BuildingBlock: XUDNAN_clean_linker_2, # of connection points: 2
#     Edge 24, Type (0, 0), BuildingBlock: XUDNAN_clean_linker_2, # of connection points: 2
#     Edge 25, Type (0, 0), BuildingBlock: XUDNAN_clean_linker_2, # of connection points: 2
#     Edge 26, Type (0, 0), BuildingBlock: XUDNAN_clean_linker_2, # of connection points: 2
#     Edge 27, Type (0, 0), BuildingBlock: XUDNAN_clean_linker_2, # of connection points: 2
#     Edge 28, Type (0, 0), BuildingBlock: XUDNAN_clean_linker_2, # of connection points: 2
#     Edge 29, Type (0, 0), BuildingBlock: XUDNAN_clean_linker_2, # of connection points: 2
#     Edge 30, Type (0, 0), BuildingBlock: XUDNAN_clean_linker_2, # of connection points: 2
#     Edge 31, Type (0, 0), BuildingBlock: XUDNAN_clean_linker_2, # of connection points: 2
#     Edge 32, Type (0, 0), BuildingBlock: XUDNAN_clean_linker_2, # of connection points: 2
#     Edge 33, Type (0, 0), BuildingBlock: XUDNAN_clean_linker_2, # of connection points: 2
#     Edge 34, Type (0, 0), BuildingBlock: XUDNAN_clean_linker_2, # of connection points: 2
#     Edge 35, Type (0, 0), BuildingBlock: XUDNAN_clean_linker_2, # of connection points: 2
#     Edge 36, Type (0, 0), BuildingBlock: XUDNAN_clean_linker_2, # of connection points: 2
#     Edge 37, Type (0, 0), BuildingBlock: XUDNAN_clean_linker_2, # of connection points: 2
#     Edge 38, Type (0, 0), BuildingBlock: XUDNAN_clean_linker_2, # of connection points: 2
#     Edge 39, Type (0, 0), BuildingBlock: XUDNAN_clean_linker_2, # of connection points: 2
#     Edge 40, Type (0, 0), BuildingBlock: XUDNAN_clean_linker_2, # of connection points: 2
#     Edge 41, Type (0, 0), BuildingBlock: XUDNAN_clean_linker_2, # of connection points: 2
#     Edge 42, Type (0, 0), BuildingBlock: XUDNAN_clean_linker_2, # of connection points: 2
#     Edge 43, Type (0, 0), BuildingBlock: XUDNAN_clean_linker_2, # of connection points: 2
#     Edge 44, Type (0, 0), BuildingBlock: XUDNAN_clean_linker_2, # of connection points: 2
#     Edge 45, Type (0, 0), BuildingBlock: XUDNAN_clean_linker_2, # of connection points: 2
#     Edge 46, Type (0, 0), BuildingBlock: XUDNAN_clean_linker_2, # of connection points: 2
#     Edge 47, Type (0, 0), BuildingBlock: XUDNAN_clean_linker_2, # of connection points: 2
# Relax obj value: 0.283
# Max RMSD: 0.165
# Mean RMSD: 0.165
data_MOF--net-ukt--node1-CEKHIL_clean_sbu_0--edge1-XUDNAN_clean_linker_2
_symmetry_space_group_name_H-M    P1
_symmetry_Int_Tables_number       1
_symmetry_cell_setting            triclinic
loop_
_symmetry_equiv_pos_as_xyz
'x, y, z'
_cell_length_a     41.695292
_cell_length_b     41.740195
_cell_length_c     34.3595
_cell_angle_alpha  89.999289
_cell_angle_beta   89.96833
_cell_angle_gamma 89.974421
loop_
_atom_site_label
_atom_site_type_symbol
_atom_site_fract_x
_atom_site_fract_y
_atom_site_fract_z
_atom_type_partial_charge
Co0 Co 0.53513 0.14926 0.0963 0.0
O1 O 0.52187 0.10481 0.10069 0.0
O2 O 0.51638 0.13548 0.04846 0.0
C3 C 0.51664 0.16978 0.15235 0.0
O4 O 0.54406 0.19479 0.07948 0.0
Co5 Co 0.58638 0.17989 0.14896 0.0
O6 O 0.57403 0.22092 0.1233 0.0
C7 C 0.60687 0.13392 0.08966 0.0
C8 C 0.51361 0.10738 0.06421 0.0
C9 C 0.55698 0.22053 0.09253 0.0
O10 O 0.578 0.13427 0.07678 0.0
O11 O 0.61542 0.1492 0.12025 0.0
O12 O 0.49724 0.16484 0.12328 0.0
O13 O 0.5451 0.15759 0.14872 0.0
Co14 Co 0.35791 0.54229 0.09298 0.0
O15 O 0.40086 0.52443 0.09237 0.0
O16 O 0.37015 0.53211 0.04061 0.0
C17 C 0.33604 0.51548 0.14326 0.0
O18 O 0.31337 0.55901 0.08079 0.0
Co19 Co 0.33326 0.58379 0.1615 0.0
O20 O 0.29089 0.57861 0.13529 0.0
C21 C 0.37951 0.61137 0.10678 0.0
C22 C 0.39782 0.52371 0.05464 0.0
C23 C 0.28921 0.57002 0.09973 0.0
O24 O 0.3765 0.58615 0.08576 0.0
O25 O 0.36621 0.61446 0.14017 0.0
O26 O 0.33866 0.50184 0.1093 0.0
O27 O 0.3511 0.54239 0.14697 0.0
Co28 Co 0.95799 0.35981 0.10788 0.0
O29 O 0.96672 0.40251 0.12686 0.0
O30 O 0.97713 0.38506 0.06726 0.0
C31 C 0.97654 0.3311 0.15898 0.0
O32 O 0.95321 0.31847 0.07713 0.0
Co33 Co 0.90899 0.31485 0.14859 0.0
O34 O 0.92545 0.28219 0.11172 0.0
C35 C 0.8853 0.36673 0.09839 0.0
C36 C 0.97678 0.40874 0.09178 0.0
C37 C 0.9418 0.29013 0.08193 0.0
O38 O 0.91431 0.3744 0.08993 0.0
O39 O 0.87792 0.3445 0.12241 0.0
O40 O 0.99645 0.34255 0.13332 0.0
O41 O 0.94721 0.34069 0.15554 0.0
Co42 Co 0.14819 0.96802 0.08935 0.0
O43 O 0.10461 0.98366 0.09361 0.0
O44 O 0.13664 0.99072 0.04285 0.0
C45 C 0.16721 0.9819 0.14838 0.0
O46 O 0.19372 0.95623 0.07378 0.0
Co47 Co 0.17213 0.9118 0.14072 0.0
O48 O 0.21481 0.92346 0.11908 0.0
C49 C 0.12973 0.89797 0.07482 0.0
C50 C 0.10841 0.9943 0.0583 0.0
C51 C 0.21737 0.94079 0.08873 0.0
O52 O 0.13174 0.92756 0.06501 0.0
O53 O 0.14227 0.88684 0.10603 0.0
O54 O 0.16483 0.0032 0.12087 0.0
O55 O 0.15374 0.95462 0.14105 0.0
Co56 Co 0.54669 0.35004 0.41625 0.0
O57 O 0.52683 0.39193 0.41516 0.0
O58 O 0.53002 0.36039 0.46689 0.0
C59 C 0.52541 0.3295 0.36107 0.0
O60 O 0.56402 0.30597 0.42933 0.0
Co61 Co 0.5958 0.32966 0.35296 0.0
O62 O 0.59549 0.28788 0.38082 0.0
C63 C 0.61492 0.37632 0.41217 0.0
C64 C 0.52122 0.38763 0.45206 0.0
C65 C 0.58136 0.28417 0.41342 0.0
O66 O 0.58893 0.37023 0.43089 0.0
O67 O 0.62084 0.36518 0.37822 0.0
O68 O 0.50877 0.32992 0.39306 0.0
O69 O 0.55237 0.34477 0.36229 0.0
Co70 Co 0.14591 0.5478 0.39339 0.0
O71 O 0.10415 0.52898 0.38944 0.0
O72 O 0.13125 0.53437 0.44452 0.0
C73 C 0.16911 0.52396 0.34171 0.0
O74 O 0.18937 0.56652 0.4079 0.0
Co75 Co 0.16615 0.59378 0.32647 0.0
O76 O 0.20627 0.59669 0.35743 0.0
C77 C 0.12009 0.61638 0.38427 0.0
C78 C 0.10454 0.52685 0.42713 0.0
C79 C 0.21016 0.58487 0.39138 0.0
O80 O 0.12529 0.59051 0.40341 0.0
O81 O 0.13183 0.62151 0.35042 0.0
O82 O 0.1673 0.50883 0.37475 0.0
O83 O 0.15337 0.55052 0.33984 0.0
Co84 Co 0.95562 0.14129 0.40217 0.0
O85 O 0.9656 0.096 0.40447 0.0
O86 O 0.97092 0.13028 0.45323 0.0
C87 C 0.97903 0.15418 0.34486 0.0
O88 O 0.94914 0.18897 0.41162 0.0
Co89 Co 0.91174 0.17065 0.33848 0.0
O90 O 0.92737 0.2123 0.35894 0.0
C91 C 0.88235 0.13752 0.40521 0.0
C92 C 0.97302 0.10098 0.44077 0.0
C93 C 0.94037 0.21396 0.39241 0.0
O94 O 0.91025 0.13232 0.41984 0.0
O95 O 0.87786 0.15125 0.37238 0.0
O96 O 0.99631 0.15097 0.37614 0.0
O97 O 0.94959 0.14486 0.3482 0.0
Co98 Co 0.36312 0.94411 0.39791 0.0
O99 O 0.40604 0.95402 0.38138 0.0
O100 O 0.38707 0.96238 0.44074 0.0
C101 C 0.33624 0.96386 0.34618 0.0
O102 O 0.32015 0.93735 0.42496 0.0
Co103 Co 0.32371 0.8944 0.35032 0.0
O104 O 0.28797 0.91091 0.38311 0.0
C105 C 0.37599 0.8721 0.40026 0.0
C106 C 0.41138 0.96309 0.41696 0.0
C107 C 0.29261 0.92634 0.41464 0.0
O108 O 0.37786 0.90041 0.41465 0.0
O109 O 0.35789 0.86504 0.37142 0.0
O110 O 0.34616 0.98303 0.37352 0.0
O111 O 0.34664 0.93476 0.3486 0.0
Co112 Co 0.4671 0.85404 0.91547 0.0
O113 O 0.47835 0.89575 0.89622 0.0
O114 O 0.49099 0.87704 0.95462 0.0
C115 C 0.47931 0.82499 0.86211 0.0
O116 O 0.45997 0.81265 0.94529 0.0
Co117 Co 0.41043 0.81704 0.87794 0.0
O118 O 0.42595 0.78144 0.9115 0.0
C119 C 0.39658 0.87069 0.93042 0.0
C120 C 0.49073 0.90097 0.93035 0.0
C121 C 0.44499 0.78608 0.94 0.0
O122 O 0.42665 0.87229 0.93809 0.0
O123 O 0.38502 0.85176 0.90467 0.0
O124 O 0.50185 0.83367 0.88611 0.0
O125 O 0.45147 0.83753 0.86857 0.0
Co126 Co 0.64318 0.45557 0.90364 0.0
O127 O 0.60289 0.47261 0.8862 0.0
O128 O 0.62676 0.48558 0.94165 0.0
C129 C 0.67079 0.45817 0.84693 0.0
O130 O 0.68483 0.44322 0.93052 0.0
Co131 Co 0.66588 0.39048 0.86906 0.0
O132 O 0.70347 0.39756 0.90354 0.0
C133 C 0.61183 0.39174 0.9222 0.0
C134 C 0.6017 0.48775 0.9192 0.0
C135 C 0.70581 0.4207 0.92765 0.0
O136 O 0.61968 0.42033 0.93212 0.0
O137 O 0.62459 0.37687 0.89364 0.0
O138 O 0.66777 0.48381 0.86827 0.0
O139 O 0.65357 0.43422 0.85794 0.0
Co140 Co 0.0404 0.64833 0.91735 0.0
O141 O 0.0234 0.60525 0.91645 0.0
O142 O 0.01948 0.6391 0.96591 0.0
C143 C 0.02442 0.66579 0.85841 0.0
O144 O 0.05407 0.69388 0.92966 0.0
Co145 Co 0.09518 0.66869 0.86173 0.0
O146 O 0.0851 0.71246 0.88107 0.0
C147 C 0.11066 0.62857 0.92919 0.0
C148 C 0.01452 0.61051 0.95223 0.0
C149 C 0.06928 0.71658 0.9124 0.0
O150 O 0.08136 0.63144 0.93996 0.0
O151 O 0.12121 0.6401 0.8971 0.0
O152 O 0.00437 0.66491 0.88742 0.0
O153 O 0.05171 0.65177 0.86449 0.0
Co154 Co 0.85502 0.05433 0.90723 0.0
O155 O 0.89779 0.04401 0.89075 0.0
O156 O 0.87903 0.0364 0.95035 0.0
C157 C 0.82847 0.0341 0.85562 0.0
O158 O 0.81207 0.06178 0.93421 0.0
Co159 Co 0.81572 0.10345 0.85835 0.0
O160 O 0.78005 0.08821 0.89208 0.0
C161 C 0.86886 0.12598 0.90676 0.0
C162 C 0.90324 0.03532 0.92642 0.0
C163 C 0.78465 0.0732 0.92392 0.0
O164 O 0.87005 0.0982 0.92272 0.0
O165 O 0.85085 0.13243 0.87762 0.0
O166 O 0.83791 0.01517 0.88345 0.0
O167 O 0.83881 0.06319 0.85782 0.0
Co168 Co 0.44571 0.63683 0.60352 0.0
O169 O 0.44776 0.59248 0.61935 0.0
O170 O 0.46566 0.61158 0.56325 0.0
C171 C 0.46284 0.65938 0.65967 0.0
O172 O 0.44842 0.68007 0.57655 0.0
Co173 Co 0.39994 0.68582 0.64345 0.0
O174 O 0.42248 0.71791 0.61076 0.0
C175 C 0.37495 0.64262 0.58235 0.0
C176 C 0.46094 0.58697 0.58568 0.0
C177 C 0.43969 0.7093 0.58192 0.0
O178 O 0.4027 0.62967 0.57827 0.0
O179 O 0.3687 0.66452 0.60729 0.0
O180 O 0.48335 0.64737 0.63514 0.0
O181 O 0.43306 0.6541 0.65165 0.0
Co182 Co 0.86583 0.45497 0.59126 0.0
O183 O 0.90925 0.46826 0.60324 0.0
O184 O 0.8798 0.48636 0.5542 0.0
C185 C 0.84435 0.45642 0.65174 0.0
O186 O 0.8212 0.44777 0.56904 0.0
Co187 Co 0.8373 0.39153 0.62312 0.0
O188 O 0.79676 0.40646 0.59865 0.0
C189 C 0.88636 0.38938 0.56183 0.0
C190 C 0.90719 0.48604 0.57222 0.0
C191 C 0.79661 0.42972 0.5746 0.0
O192 O 0.88359 0.41983 0.55711 0.0
O193 O 0.87237 0.37408 0.58928 0.0
O194 O 0.84737 0.48281 0.63186 0.0
O195 O 0.85787 0.43162 0.63648 0.0
Co196 Co 0.04479 0.85273 0.59343 0.0
O197 O 0.03393 0.89492 0.61258 0.0
O198 O 0.02232 0.87642 0.55383 0.0
C199 C 0.03019 0.82368 0.64597 0.0
O200 O 0.05092 0.81151 0.56288 0.0
Co201 Co 0.09864 0.81205 0.63092 0.0
O202 O 0.08307 0.77774 0.5955 0.0
C203 C 0.11622 0.86662 0.58129 0.0
C204 C 0.02192 0.9002 0.57821 0.0
C205 C 0.06463 0.78412 0.56696 0.0
O206 O 0.08643 0.86995 0.57274 0.0
O207 O 0.12625 0.84615 0.60627 0.0
O208 O 0.00873 0.83346 0.62117 0.0
O209 O 0.0588 0.83488 0.64073 0.0
Co210 Co 0.65063 0.03235 0.58698 0.0
O211 O 0.61004 0.01013 0.58907 0.0
O212 O 0.64198 0.01247 0.53757 0.0
C213 C 0.6718 0.01627 0.644 0.0
O214 O 0.69345 0.05293 0.57324 0.0
Co215 Co 0.66398 0.08665 0.64688 0.0
O216 O 0.70439 0.09169 0.61699 0.0
C217 C 0.62238 0.10018 0.58029 0.0
C218 C 0.6147 0.00363 0.55246 0.0
C219 C 0.71114 0.07573 0.58642 0.0
O220 O 0.62814 0.07179 0.56783 0.0
O221 O 0.63259 0.1105 0.61311 0.0
O222 O 0.67283 0.9975 0.61379 0.0
O223 O 0.65417 0.04156 0.64017 0.0
H224 H 0.58955 0.27764 0.09986 0.0
H225 H 0.51615 0.22986 0.03157 0.0
H226 H 0.51497 0.27535 0.98632 0.0
H227 H 0.55982 0.3628 0.08047 0.0
H228 H 0.60036 0.37762 0.07788 0.0
H229 H 0.59075 0.34465 0.10975 0.0
H230 H 0.63474 0.31022 0.07665 0.0
H231 H 0.64439 0.34292 0.04481 0.0
H232 H 0.63362 0.30454 0.02464 0.0
H233 H 0.52992 0.3185 0.9413 0.0
H234 H 0.55868 0.35847 0.90127 0.0
H235 H 0.61974 0.3813 0.99926 0.0
C236 C 0.57247 0.27726 0.07615 0.0
C237 C 0.55307 0.2501 0.06925 0.0
C238 C 0.53141 0.25029 0.03745 0.0
C239 C 0.53034 0.27617 0.01167 0.0
C240 C 0.55066 0.302 0.01834 0.0
C241 C 0.571 0.30306 0.05011 0.0
C242 C 0.59297 0.33193 0.04801 0.0
C243 C 0.58551 0.35566 0.08099 0.0
C244 C 0.62851 0.32177 0.04853 0.0
C245 C 0.5833 0.34554 0.00885 0.0
C246 C 0.55843 0.32821 0.99254 0.0
C247 C 0.54854 0.33308 0.95422 0.0
C248 C 0.56497 0.35569 0.93167 0.0
C249 C 0.59062 0.37332 0.94776 0.0
C250 C 0.59925 0.36892 0.98705 0.0
H251 H 0.17658 0.62229 0.92359 0.0
H252 H 0.09542 0.59987 0.99826 0.0
H253 H 0.13221 0.57972 0.04835 0.0
H254 H 0.22591 0.55225 0.95279 0.0
H255 H 0.26272 0.57482 0.95072 0.0
H256 H 0.22986 0.58507 0.91902 0.0
H257 H 0.23111 0.64331 0.94506 0.0
H258 H 0.26373 0.6332 0.97706 0.0
H259 H 0.22747 0.65034 0.99665 0.0
H260 H 0.17746 0.56826 0.0937 0.0
H261 H 0.2289 0.5612 0.12868 0.0
H262 H 0.2807 0.58781 0.02405 0.0
C263 C 0.1665 0.61258 0.95013 0.0
C264 C 0.13304 0.61294 0.95688 0.0
C265 C 0.12093 0.60013 0.99226 0.0
C266 C 0.14163 0.58853 0.02102 0.0
C267 C 0.17444 0.58942 0.01394 0.0
C268 C 0.18686 0.60059 0.97917 0.0
C269 C 0.2232 0.59986 0.97964 0.0
C270 C 0.23618 0.57661 0.94871 0.0
C271 C 0.23719 0.63369 0.9743 0.0
C272 C 0.22913 0.58733 0.02041 0.0
C273 C 0.20067 0.58155 0.03974 0.0
C274 C 0.19995 0.57213 0.07869 0.0
C275 C 0.22918 0.5684 0.09838 0.0
C276 C 0.25857 0.57371 0.07889 0.0
C277 C 0.25849 0.58303 0.03936 0.0
H278 H 0.88944 0.12944 0.98177 0.0
H279 H 0.89009 0.18149 0.87248 0.0
H280 H 0.91881 0.22621 0.9044 0.0
H281 H 0.86957 0.19387 0.03838 0.0
H282 H 0.89315 0.18226 0.08002 0.0
H283 H 0.87864 0.15223 0.04702 0.0
H284 H 0.93677 0.13183 0.03656 0.0
H285 H 0.95149 0.16204 0.06953 0.0
H286 H 0.96739 0.15943 0.02084 0.0
H287 H 0.94213 0.26718 0.94954 0.0
H288 H 0.95198 0.30342 0.00494 0.0
H289 H 0.93356 0.22523 0.08513 0.0
C290 C 0.89641 0.14986 0.96425 0.0
C291 C 0.8879 0.15191 0.92457 0.0
C292 C 0.89653 0.17944 0.90291 0.0
C293 C 0.91308 0.20478 0.92071 0.0
C294 C 0.92067 0.20219 0.96012 0.0
C295 C 0.9124 0.17547 0.98167 0.0
C296 C 0.91916 0.18027 0.02452 0.0
C297 C 0.8883 0.17698 0.04889 0.0
C298 C 0.94526 0.15701 0.03868 0.0
C299 C 0.93128 0.2144 0.02401 0.0
C300 C 0.93293 0.2263 0.9865 0.0
C301 C 0.94136 0.258 0.97898 0.0
C302 C 0.94702 0.2784 0.01067 0.0
C303 C 0.94349 0.26712 0.04933 0.0
C304 C 0.93661 0.23445 0.05589 0.0
H305 H 0.3315 0.87982 0.92103 0.0
H306 H 0.41168 0.90467 0.99593 0.0
H307 H 0.37465 0.93107 0.04141 0.0
H308 H 0.2846 0.95478 0.93981 0.0
H309 H 0.24696 0.93358 0.93863 0.0
H310 H 0.28016 0.91985 0.90943 0.0
H311 H 0.27595 0.86374 0.94131 0.0
H312 H 0.2429 0.87729 0.97065 0.0
H313 H 0.27787 0.8603 0.99357 0.0
H314 H 0.32873 0.94607 0.08414 0.0
H315 H 0.27667 0.95362 0.11781 0.0
H316 H 0.22656 0.92388 0.0135 0.0
C317 C 0.34136 0.8914 0.94655 0.0
C318 C 0.37452 0.88996 0.95486 0.0
C319 C 0.38639 0.90537 0.98875 0.0
C320 C 0.36555 0.92052 0.01485 0.0
C321 C 0.33294 0.92071 0.00637 0.0
C322 C 0.32092 0.90711 0.9727 0.0
C323 C 0.28466 0.9092 0.97158 0.0
C324 C 0.27344 0.93064 0.93786 0.0
C325 C 0.26947 0.87564 0.96915 0.0
C326 C 0.27819 0.92483 0.01059 0.0
C327 C 0.30639 0.93129 0.03023 0.0
C328 C 0.30648 0.94213 0.06865 0.0
C329 C 0.27696 0.94627 0.08756 0.0
C330 C 0.24795 0.94014 0.06771 0.0
C331 C 0.24856 0.92982 0.02864 0.0
H332 H 0.58725 0.27279 0.49141 0.0
H333 H 0.58177 0.22544 0.37935 0.0
H334 H 0.58337 0.17271 0.41197 0.0
H335 H 0.64592 0.2196 0.52903 0.0
H336 H 0.63103 0.2208 0.57827 0.0
H337 H 0.62491 0.25452 0.54652 0.0
H338 H 0.56368 0.25119 0.55902 0.0
H339 H 0.56962 0.21713 0.59047 0.0
H340 H 0.54277 0.21421 0.54952 0.0
H341 H 0.58641 0.12574 0.45611 0.0
H342 H 0.60095 0.08703 0.50686 0.0
H343 H 0.61015 0.16472 0.59042 0.0
C344 C 0.58595 0.25124 0.47392 0.0
C345 C 0.58365 0.25293 0.43299 0.0
C346 C 0.58306 0.22445 0.41077 0.0
C347 C 0.58376 0.19449 0.42906 0.0
C348 C 0.58579 0.19355 0.46953 0.0
C349 C 0.58766 0.22112 0.49167 0.0
C350 C 0.59381 0.2134 0.53412 0.0
C351 C 0.62582 0.22793 0.54777 0.0
C352 C 0.56579 0.22465 0.55979 0.0
C353 C 0.59545 0.17717 0.53227 0.0
C354 C 0.58988 0.16629 0.49489 0.0
C355 C 0.59088 0.13392 0.4855 0.0
C356 C 0.59914 0.1121 0.5147 0.0
C357 C 0.60702 0.12278 0.55274 0.0
C358 C 0.60415 0.15572 0.56179 0.0
H359 H 0.33847 0.58889 0.56596 0.0
H360 H 0.35957 0.68577 0.52833 0.0
H361 H 0.32262 0.6795 0.4728 0.0
H362 H 0.329 0.55366 0.46925 0.0
H363 H 0.29565 0.5286 0.48294 0.0
H364 H 0.32542 0.53946 0.51861 0.0
H365 H 0.28101 0.56277 0.56318 0.0
H366 H 0.25114 0.55178 0.52779 0.0
H367 H 0.25407 0.59271 0.54415 0.0
H368 H 0.28511 0.6632 0.42158 0.0
H369 H 0.24245 0.64051 0.38091 0.0
H370 H 0.24074 0.55514 0.45329 0.0
C371 C 0.33515 0.6086 0.54587 0.0
C372 C 0.35162 0.63783 0.55103 0.0
C373 C 0.34685 0.66333 0.52463 0.0
C374 C 0.32616 0.6599 0.49297 0.0
C375 C 0.31018 0.6309 0.48845 0.0
C376 C 0.31388 0.60581 0.51435 0.0
C377 C 0.29202 0.57807 0.50365 0.0
C378 C 0.3117 0.54818 0.49298 0.0
C379 C 0.26814 0.57093 0.53666 0.0
C380 C 0.27522 0.59181 0.46816 0.0
C381 C 0.2868 0.622 0.45955 0.0
C382 C 0.27571 0.63962 0.428 0.0
C383 C 0.25155 0.62639 0.40494 0.0
C384 C 0.2382 0.59605 0.41392 0.0
C385 C 0.25043 0.57841 0.44581 0.0
H386 H 0.90955 0.32858 0.56973 0.0
H387 H 0.90232 0.40702 0.48731 0.0
H388 H 0.9237 0.37191 0.43553 0.0
H389 H 0.9836 0.29097 0.5264 0.0
H390 H 0.96883 0.25129 0.53673 0.0
H391 H 0.95859 0.28418 0.56842 0.0
H392 H 0.89822 0.27147 0.55904 0.0
H393 H 0.90821 0.23881 0.52726 0.0
H394 H 0.88185 0.27015 0.5105 0.0
H395 H 0.93579 0.32571 0.39081 0.0
H396 H 0.94076 0.27324 0.35792 0.0
H397 H 0.94222 0.22588 0.47028 0.0
C398 C 0.91328 0.33867 0.54105 0.0
C399 C 0.9042 0.37049 0.53253 0.0
C400 C 0.90931 0.38275 0.49458 0.0
C401 C 0.92145 0.36298 0.46498 0.0
C402 C 0.92898 0.33129 0.47405 0.0
C403 C 0.92563 0.31941 0.5114 0.0
C404 C 0.93265 0.28389 0.51305 0.0
C405 C 0.96271 0.2772 0.5376 0.0
C406 C 0.9035 0.265 0.52834 0.0
C407 C 0.93874 0.27721 0.47045 0.0
C408 C 0.93691 0.30488 0.44841 0.0
C409 C 0.93814 0.30404 0.40785 0.0
C410 C 0.9408 0.27414 0.38943 0.0
C411 C 0.94223 0.24556 0.41159 0.0
C412 C 0.94201 0.24735 0.45259 0.0
H413 H 0.18236 0.86431 0.58483 0.0
H414 H 0.10343 0.91231 0.52633 0.0
H415 H 0.14171 0.93933 0.48303 0.0
H416 H 0.24117 0.93255 0.57513 0.0
H417 H 0.27416 0.90542 0.5671 0.0
H418 H 0.24108 0.89355 0.59769 0.0
H419 H 0.23259 0.84298 0.5552 0.0
H420 H 0.26549 0.85469 0.52453 0.0
H421 H 0.22655 0.84747 0.50352 0.0
H422 H 0.18653 0.9532 0.43879 0.0
H423 H 0.23604 0.95545 0.3991 0.0
H424 H 0.28692 0.90198 0.48767 0.0
C425 C 0.17316 0.88115 0.56363 0.0
C426 C 0.13979 0.88601 0.55906 0.0
C427 C 0.12881 0.90802 0.53053 0.0
C428 C 0.15041 0.92367 0.5058 0.0
C429 C 0.18301 0.91758 0.51026 0.0
C430 C 0.19446 0.89724 0.53881 0.0
C431 C 0.23046 0.89291 0.5353 0.0
C432 C 0.24773 0.90695 0.57093 0.0
C433 C 0.23926 0.85742 0.52926 0.0
C434 C 0.23712 0.91261 0.49912 0.0
C435 C 0.20941 0.92691 0.48538 0.0
C436 C 0.20861 0.94306 0.44987 0.0
C437 C 0.23671 0.94421 0.42752 0.0
C438 C 0.26519 0.9297 0.44108 0.0
C439 C 0.26561 0.9143 0.47761 0.0
H440 H 0.4323 0.72224 0.93222 0.0
H441 H 0.4597 0.7942 0.01699 0.0
H442 H 0.45174 0.75494 0.0699 0.0
H443 H 0.37053 0.69001 0.98303 0.0
H444 H 0.37732 0.64888 0.96934 0.0
H445 H 0.39046 0.68063 0.93786 0.0
H446 H 0.44852 0.6584 0.93941 0.0
H447 H 0.43545 0.62623 0.97063 0.0
H448 H 0.468 0.65184 0.98555 0.0
H449 H 0.431 0.71098 0.11379 0.0
H450 H 0.40462 0.66411 0.14434 0.0
H451 H 0.39364 0.62067 0.03034 0.0
C452 C 0.43757 0.72945 0.96182 0.0
C453 C 0.44662 0.76121 0.97052 0.0
C454 C 0.45306 0.76987 0.00962 0.0
C455 C 0.44852 0.74775 0.03989 0.0
C456 C 0.43824 0.71695 0.03044 0.0
C457 C 0.4336 0.7076 0.99222 0.0
C458 C 0.42037 0.67394 0.98981 0.0
C459 C 0.38774 0.67337 0.96879 0.0
C460 C 0.44453 0.65127 0.9702 0.0
C461 C 0.41682 0.66641 0.03261 0.0
C462 C 0.42739 0.69134 0.05571 0.0
C463 C 0.42343 0.69094 0.09606 0.0
C464 C 0.40827 0.66435 0.11314 0.0
C465 C 0.39741 0.63858 0.08982 0.0
C466 C 0.40227 0.63962 0.04915 0.0
H467 H 0.73289 0.36844 0.96093 0.0
H468 H 0.73979 0.47199 0.95599 0.0
H469 H 0.78655 0.47015 1.0007 0.0
H470 H 0.75135 0.3615 0.063 0.0
H471 H 0.77321 0.32456 0.05695 0.0
H472 H 0.74105 0.33443 0.02409 0.0
H473 H 0.77968 0.32818 0.96538 0.0
H474 H 0.81192 0.31825 0.99804 0.0
H475 H 0.81639 0.35096 0.96423 0.0
H476 H 0.83549 0.45569 0.04204 0.0
H477 H 0.87841 0.43055 0.08181 0.0
H478 H 0.83479 0.33748 0.06421 0.0
C479 C 0.74432 0.39074 0.96916 0.0
C480 C 0.73315 0.42034 0.95478 0.0
C481 C 0.7482 0.44908 0.96673 0.0
C482 C 0.77472 0.44823 0.99197 0.0
C483 C 0.78526 0.4185 0.00551 0.0
C484 C 0.77014 0.39035 0.99493 0.0
C485 C 0.7853 0.36155 0.01419 0.0
C486 C 0.76129 0.34452 0.04116 0.0
C487 C 0.79915 0.33838 0.98364 0.0
C488 C 0.81159 0.37775 0.03709 0.0
C489 C 0.8116 0.41055 0.03135 0.0
C490 C 0.8353 0.43014 0.04735 0.0
C491 C 0.85952 0.41574 0.06979 0.0
C492 C 0.85925 0.38232 0.07665 0.0
C493 C 0.83489 0.36324 0.06029 0.0
H494 H 0.07876 0.72799 0.9893 0.0
H495 H 0.066 0.77539 0.87813 0.0
H496 H 0.07417 0.82803 0.90992 0.0
H497 H 0.04348 0.79038 0.05256 0.0
H498 H 0.07353 0.78487 0.08966 0.0
H499 H 0.0617 0.75161 0.05946 0.0
H500 H 0.12097 0.74286 0.03935 0.0
H501 H 0.13297 0.77609 0.06932 0.0
H502 H 0.14321 0.77562 0.01835 0.0
H503 H 0.08691 0.8746 0.95272 0.0
H504 H 0.10792 0.91197 0.00171 0.0
H505 H 0.11647 0.83368 0.0845 0.0
C506 C 0.07677 0.74959 0.97197 0.0
C507 C 0.07111 0.74797 0.93155 0.0
C508 C 0.06996 0.77641 0.90927 0.0
C509 C 0.07444 0.8063 0.92709 0.0
C510 C 0.08052 0.8071 0.967 0.0
C511 C 0.082 0.77948 0.98912 0.0
C512 C 0.09267 0.78657 0.03037 0.0
C513 C 0.06626 0.77784 0.05974 0.0
C514 C 0.12433 0.76927 0.03988 0.0
C515 C 0.09734 0.82247 0.0279 0.0
C516 C 0.08961 0.83385 0.9913 0.0
C517 C 0.09287 0.86601 0.98154 0.0
C518 C 0.10488 0.88705 0.00969 0.0
C519 C 0.11399 0.87581 0.04708 0.0
C520 C 0.10967 0.84309 0.05632 0.0
H521 H 0.67311 0.13765 0.09286 0.0
H522 H 0.59485 0.08883 0.03417 0.0
H523 H 0.63346 0.06193 0.99118 0.0
H524 H 0.71758 0.15408 0.01038 0.0
H525 H 0.75649 0.14748 0.03179 0.0
H526 H 0.72336 0.15947 0.06197 0.0
H527 H 0.73219 0.1097 0.10574 0.0
H528 H 0.76543 0.09753 0.07557 0.0
H529 H 0.73261 0.07034 0.08415 0.0
H530 H 0.67855 0.04691 0.94823 0.0
H531 H 0.7283 0.04363 0.90919 0.0
H532 H 0.77857 0.09933 0.99623 0.0
C533 C 0.6642 0.12069 0.07162 0.0
C534 C 0.63089 0.11547 0.06695 0.0
C535 C 0.62019 0.09346 0.0383 0.0
C536 C 0.64197 0.07783 0.01381 0.0
C537 C 0.6745 0.08411 0.01844 0.0
C538 C 0.68571 0.10476 0.0468 0.0
C539 C 0.72173 0.10923 0.04332 0.0
C540 C 0.73027 0.14466 0.03644 0.0
C541 C 0.73901 0.0959 0.07934 0.0
C542 C 0.72866 0.08898 0.0076 0.0
C543 C 0.70106 0.07443 0.99402 0.0
C544 C 0.70052 0.05737 0.95913 0.0
C545 C 0.72879 0.0556 0.93717 0.0
C546 C 0.75718 0.07044 0.95044 0.0
C547 C 0.75733 0.08678 0.98639 0.0
H548 H 0.43213 0.77454 0.58438 0.0
H549 H 0.45562 0.6962 0.50632 0.0
H550 H 0.44868 0.73209 0.45014 0.0
H551 H 0.37109 0.80459 0.5333 0.0
H552 H 0.3788 0.84652 0.54162 0.0
H553 H 0.39257 0.8173 0.57614 0.0
H554 H 0.45085 0.83804 0.56924 0.0
H555 H 0.43719 0.8679 0.53513 0.0
H556 H 0.46887 0.84069 0.52165 0.0
H557 H 0.4268 0.77222 0.40294 0.0
H558 H 0.39907 0.81632 0.36841 0.0
H559 H 0.39277 0.86941 0.47666 0.0
C560 C 0.43711 0.76526 0.55557 0.0
C561 C 0.44439 0.73253 0.54985 0.0
C562 C 0.45031 0.72122 0.5116 0.0
C563 C 0.44631 0.74144 0.47938 0.0
C564 C 0.43719 0.77309 0.48592 0.0
C565 C 0.4336 0.78523 0.52313 0.0
C566 C 0.42086 0.8192 0.52224 0.0
C567 C 0.38895 0.82203 0.54463 0.0
C568 C 0.44594 0.84286 0.53799 0.0
C569 C 0.41601 0.8235 0.47893 0.0
C570 C 0.42576 0.79676 0.45837 0.0
C571 C 0.42003 0.79372 0.41852 0.0
C572 C 0.40405 0.81871 0.39921 0.0
C573 C 0.39423 0.84639 0.41978 0.0
C574 C 0.40076 0.84887 0.45999 0.0
H575 H 0.73572 0.40623 0.58532 0.0
H576 H 0.79427 0.46072 0.50451 0.0
H577 H 0.7507 0.45878 0.45614 0.0
H578 H 0.70436 0.35361 0.52011 0.0
H579 H 0.66452 0.3518 0.54039 0.0
H580 H 0.69793 0.36187 0.57104 0.0
H581 H 0.66993 0.41476 0.59128 0.0
H582 H 0.63617 0.40469 0.56088 0.0
H583 H 0.65662 0.44234 0.55428 0.0
H584 H 0.70556 0.44197 0.41258 0.0
H585 H 0.65958 0.41619 0.37954 0.0
H586 H 0.62862 0.37596 0.48966 0.0
C587 C 0.73902 0.41854 0.55787 0.0
C588 C 0.76844 0.4336 0.54875 0.0
C589 C 0.77189 0.44925 0.51237 0.0
C590 C 0.74727 0.44824 0.48461 0.0
C591 C 0.71904 0.43215 0.49398 0.0
C592 C 0.71448 0.41821 0.53007 0.0
C593 C 0.68276 0.40059 0.53193 0.0
C594 C 0.68772 0.36487 0.54141 0.0
C595 C 0.66002 0.41656 0.56134 0.0
C596 C 0.67104 0.4053 0.49062 0.0
C597 C 0.6922 0.42374 0.46923 0.0
C598 C 0.68832 0.4283 0.42928 0.0
C599 C 0.66228 0.41346 0.41072 0.0
C600 C 0.64033 0.3946 0.4322 0.0
C601 C 0.64452 0.39104 0.47275 0.0
H602 H 0.10998 0.622 0.46224 0.0
H603 H 0.09154 0.66993 0.3524 0.0
H604 H 0.06721 0.71539 0.38814 0.0
H605 H 0.03887 0.65195 0.51661 0.0
H606 H 0.06183 0.65641 0.56072 0.0
H607 H 0.07206 0.62544 0.52629 0.0
H608 H 0.13019 0.64727 0.52275 0.0
H609 H 0.12015 0.67826 0.55693 0.0
H610 H 0.13673 0.68869 0.51016 0.0
H611 H 0.04997 0.75769 0.43628 0.0
H612 H 0.04571 0.79496 0.49178 0.0
H613 H 0.07858 0.71996 0.56966 0.0
C614 C 0.10001 0.64159 0.44549 0.0
C615 C 0.10232 0.64224 0.40443 0.0
C616 C 0.08983 0.66883 0.38383 0.0
C617 C 0.07583 0.69465 0.40389 0.0
C618 C 0.07465 0.69351 0.44448 0.0
C619 C 0.08654 0.66764 0.465 0.0
C620 C 0.08626 0.67377 0.50841 0.0
C621 C 0.06338 0.65051 0.52923 0.0
C622 C 0.12035 0.6719 0.52554 0.0
C623 C 0.0734 0.70763 0.50918 0.0
C624 C 0.06604 0.71832 0.47214 0.0
C625 C 0.05532 0.74945 0.46542 0.0
C626 C 0.05293 0.77043 0.4972 0.0
C627 C 0.06186 0.76039 0.5351 0.0
C628 C 0.07147 0.72833 0.5411 0.0
H629 H 0.76407 0.04599 0.55308 0.0
H630 H 0.71267 0.13615 0.56108 0.0
H631 H 0.74991 0.16048 0.51397 0.0
H632 H 0.84359 0.08309 0.54827 0.0
H633 H 0.8596 0.05382 0.51492 0.0
H634 H 0.8283 0.04269 0.54846 0.0
H635 H 0.79343 0.02311 0.4908 0.0
H636 H 0.82454 0.03443 0.45707 0.0
H637 H 0.78458 0.05023 0.4514 0.0
H638 H 0.78922 0.17416 0.46355 0.0
H639 H 0.83507 0.17975 0.4188 0.0
H640 H 0.86629 0.08342 0.44744 0.0
C641 C 0.76099 0.07086 0.54493 0.0
C642 C 0.73568 0.08935 0.56057 0.0
C643 C 0.73219 0.12182 0.54958 0.0
C644 C 0.75303 0.13576 0.52268 0.0
C645 C 0.77766 0.11706 0.50759 0.0
C646 C 0.78235 0.08558 0.51879 0.0
C647 C 0.81196 0.07173 0.4992 0.0
C648 C 0.83737 0.06228 0.52952 0.0
C649 C 0.80309 0.04318 0.47307 0.0
C650 C 0.82281 0.1003 0.47515 0.0
C651 C 0.80213 0.12588 0.48 0.0
C652 C 0.80585 0.1545 0.45977 0.0
C653 C 0.83179 0.15736 0.43427 0.0
C654 C 0.85404 0.13205 0.42986 0.0
C655 C 0.84959 0.10313 0.45058 0.0
H656 H 0.50592 0.92195 0.00411 0.0
H657 H 0.49158 0.95472 0.8854 0.0
H658 H 0.49447 0.0107 0.90773 0.0
H659 H 0.45856 0.9807 0.04969 0.0
H660 H 0.48425 0.98622 0.09134 0.0
H661 H 0.48368 0.94831 0.06632 0.0
H662 H 0.54509 0.95137 0.05543 0.0
H663 H 0.54599 0.98894 0.08123 0.0
H664 H 0.5621 0.98637 0.03263 0.0
H665 H 0.49386 0.06247 0.94285 0.0
H666 H 0.49774 0.1082 0.98757 0.0
H667 H 0.5141 0.04306 0.08418 0.0
C668 C 0.5042 0.9409 0.98268 0.0
C669 C 0.49859 0.93394 0.94294 0.0
C670 C 0.496 0.95943 0.91593 0.0
C671 C 0.49742 0.99134 0.92836 0.0
C672 C 0.50169 0.99738 0.96787 0.0
C673 C 0.50569 0.97301 0.9946 0.0
C674 C 0.50954 0.98633 0.03547 0.0
C675 C 0.48239 0.97469 0.06228 0.0
C676 C 0.54266 0.97774 0.05217 0.0
C677 C 0.50675 0.02198 0.02747 0.0
C678 C 0.50195 0.02764 0.98827 0.0
C679 C 0.49797 0.0584 0.97355 0.0
C680 C 0.50002 0.08424 0.99934 0.0
C681 C 0.50627 0.07929 0.03945 0.0
C682 C 0.50914 0.04763 0.05375 0.0
H683 H 0.4607 0.50981 0.07404 0.0
H684 H 0.39764 0.52627 0.97547 0.0
H685 H 0.44391 0.52365 0.93113 0.0
H686 H 0.52747 0.55587 0.03903 0.0
H687 H 0.55761 0.52843 0.05645 0.0
H688 H 0.51961 0.53138 0.08119 0.0
H689 H 0.5104 0.4704 0.07258 0.0
H690 H 0.54864 0.46718 0.04852 0.0
H691 H 0.51288 0.45306 0.02461 0.0
H692 H 0.49641 0.51936 0.89714 0.0
H693 H 0.55161 0.50817 0.87497 0.0
H694 H 0.58153 0.49488 0.9948 0.0
C695 C 0.45661 0.51252 0.0431 0.0
C696 C 0.42545 0.5182 0.02829 0.0
C697 C 0.42118 0.52176 0.98759 0.0
C698 C 0.44737 0.52054 0.96211 0.0
C699 C 0.47779 0.51563 0.97765 0.0
C700 C 0.48258 0.51123 0.01709 0.0
C701 C 0.51779 0.50539 0.02585 0.0
C702 C 0.53142 0.53185 0.05219 0.0
C703 C 0.52271 0.47202 0.04395 0.0
C704 C 0.53193 0.50719 0.98517 0.0
C705 C 0.50838 0.51333 0.95789 0.0
C706 C 0.51513 0.51471 0.91821 0.0
C707 C 0.54657 0.5085 0.9059 0.0
C708 C 0.57092 0.50112 0.93314 0.0
C709 C 0.5636 0.50128 0.97337 0.0
H710 H 0.01109 0.54618 0.93566 0.0
H711 H 0.99515 0.61539 0.02797 0.0
H712 H 0.98481 0.5713 0.07412 0.0
H713 H 0.95005 0.48859 0.96741 0.0
H714 H 0.97414 0.45449 0.9539 0.0
H715 H 0.97829 0.4917 0.92784 0.0
H716 H 0.03923 0.49159 0.9427 0.0
H717 H 0.03517 0.45469 0.96941 0.0
H718 H 0.05263 0.48932 0.99251 0.0
H719 H 0.97904 0.51954 0.11118 0.0
H720 H 0.97385 0.46388 0.135 0.0
H721 H 0.9939 0.42858 0.01866 0.0
C722 C 0.0048 0.5521 0.96538 0.0
C723 C 0.00377 0.58427 0.97813 0.0
C724 C 0.9959 0.59095 0.01744 0.0
C725 C 0.99013 0.56605 0.04396 0.0
C726 C 0.99224 0.53459 0.03072 0.0
C727 C 0.99899 0.52753 0.99227 0.0
C728 C 1.00036 0.49166 0.9857 0.0
C729 C 0.97414 0.48099 0.95702 0.0
C730 C 0.03384 0.48122 0.97176 0.0
C731 C 0.99358 0.47969 0.02651 0.0
C732 C 0.98902 0.50481 0.05208 0.0
C733 C 0.98245 0.49966 0.09138 0.0
C734 C 0.97973 0.46797 0.1047 0.0
C735 C 0.98358 0.44187 0.07878 0.0
C736 C 0.99102 0.44797 0.0393 0.0
H737 H 0.04422 0.99588 0.07791 0.0
H738 H 0.1108 0.01746 0.98426 0.0
H739 H 0.06542 0.02927 0.94076 0.0
H740 H 0.98597 0.95682 0.02003 0.0
H741 H 0.95166 0.97276 0.04545 0.0
H742 H 0.98921 0.96774 0.07064 0.0
H743 H 0.98907 0.02775 0.08994 0.0
H744 H 0.95124 0.03282 0.06539 0.0
H745 H 0.98486 0.05784 0.05263 0.0
H746 H 0.0136 0.03482 0.90598 0.0
H747 H 0.95785 0.03993 0.88347 0.0
H748 H 0.92373 0.01633 0.99945 0.0
C749 C 0.04924 0.00372 0.04849 0.0
C750 C 0.08112 0.00582 0.03454 0.0
C751 C 0.08665 0.01576 0.99569 0.0
C752 C 0.06101 0.02241 0.97066 0.0
C753 C 0.02993 0.01919 0.98492 0.0
C754 C 0.02384 0.01059 0.02304 0.0
C755 C 0.988 0.00861 0.03061 0.0
C756 C 0.97814 0.97445 0.04237 0.0
C757 C 0.97769 0.03323 0.06147 0.0
C758 C 0.97501 0.01724 0.9907 0.0
C759 C 0.99971 0.02299 0.96482 0.0
C760 C 0.99402 0.03066 0.92603 0.0
C761 C 0.9622 0.03332 0.91349 0.0
C762 C 0.93636 0.02856 0.93967 0.0
C763 C 0.94294 0.02008 0.97873 0.0
H764 H 0.48235 0.568 0.51375 0.0
H765 H 0.4564 0.53149 0.6278 0.0
H766 H 0.46715 0.47633 0.60518 0.0
H767 H 0.447 0.50402 0.45832 0.0
H768 H 0.47835 0.50342 0.42218 0.0
H769 H 0.46895 0.54012 0.44732 0.0
H770 H 0.52812 0.54531 0.46948 0.0
H771 H 0.53775 0.50879 0.44415 0.0
H772 H 0.54674 0.5126 0.49524 0.0
H773 H 0.48142 0.42529 0.57048 0.0
H774 H 0.49908 0.38196 0.52651 0.0
H775 H 0.51447 0.4515 0.43447 0.0
C776 C 0.47906 0.54843 0.53404 0.0
C777 C 0.46863 0.55405 0.57261 0.0
C778 C 0.46444 0.52776 0.59816 0.0
C779 C 0.47041 0.49634 0.58556 0.0
C780 C 0.48041 0.49161 0.54727 0.0
C781 C 0.48476 0.51691 0.52188 0.0
C782 C 0.49575 0.5053 0.48225 0.0
C783 C 0.47103 0.51372 0.45066 0.0
C784 C 0.52907 0.5188 0.47221 0.0
C785 C 0.49707 0.4695 0.48936 0.0
C786 C 0.48812 0.46213 0.52706 0.0
C787 C 0.48832 0.43075 0.54085 0.0
C788 C 0.49836 0.4063 0.51563 0.0
C789 C 0.50792 0.41331 0.47699 0.0
C790 C 0.50688 0.44533 0.46366 0.0
H791 H 0.08756 0.49152 0.49291 0.0
H792 H 0.05238 0.561 0.40924 0.0
H793 H 1.00052 0.56301 0.44321 0.0
H794 H 0.0139 0.44761 0.49782 0.0
H795 H 0.01687 0.43844 0.54894 0.0
H796 H 0.05269 0.44473 0.5207 0.0
H797 H 0.07053 0.48896 0.56897 0.0
H798 H 0.03451 0.483 0.59711 0.0
H799 H 0.04416 0.52227 0.57867 0.0
H800 H 0.952 0.55601 0.48256 0.0
H801 H 0.9069 0.53622 0.52213 0.0
H802 H 0.97087 0.46975 0.58049 0.0
C803 C 0.06889 0.50722 0.4821 0.0
C804 C 0.0738 0.52601 0.44839 0.0
C805 C 0.04888 0.5461 0.43473 0.0
C806 C 0.01945 0.54769 0.45405 0.0
C807 C 0.01507 0.52878 0.48692 0.0
C808 C 0.0388 0.50857 0.5007 0.0
C809 C 0.02633 0.48873 0.5346 0.0
C810 C 0.02752 0.45275 0.52492 0.0
C811 C 0.045 0.4962 0.57206 0.0
C812 C 0.99194 0.50078 0.53717 0.0
C813 C 0.9863 0.52425 0.50968 0.0
C814 C 0.95611 0.53787 0.5045 0.0
C815 C 0.93065 0.52651 0.52714 0.0
C816 C 0.93545 0.50175 0.55462 0.0
C817 C 0.96669 0.48927 0.56037 0.0
H818 H 0.00401 0.91946 0.50511 0.0
H819 H 0.01797 0.95448 0.62284 0.0
H820 H 0.0066 0.00961 0.60043 0.0
H821 H 0.04202 0.98424 0.45745 0.0
H822 H 0.01477 0.98515 0.41675 0.0
H823 H 0.02182 0.94815 0.44231 0.0
H824 H 0.96088 0.94206 0.45519 0.0
H825 H 0.95358 0.97886 0.42925 0.0
H826 H 0.93929 0.97424 0.47845 0.0
H827 H 0.99649 0.06118 0.56454 0.0
H828 H 0.98568 0.10526 0.51857 0.0
H829 H 0.97853 0.03667 0.42398 0.0
C830 C 0.00415 0.93863 0.52635 0.0
C831 C 0.01169 0.93263 0.56583 0.0
C832 C 0.01207 0.95847 0.59253 0.0
C833 C 0.00574 0.98987 0.58004 0.0
C834 C 0.99907 0.99502 0.54077 0.0
C835 C 0.99799 0.97009 0.51437 0.0
C836 C 0.99114 0.98219 0.47359 0.0
C837 C 0.01911 0.97447 0.4459 0.0
C838 C 0.95933 0.96853 0.45823 0.0
C839 C 0.98866 0.01786 0.48113 0.0
C840 C 0.99335 0.02474 0.52007 0.0
C841 C 0.99263 0.05605 0.53403 0.0
C842 C 0.98659 0.08095 0.50761 0.0
C843 C 0.98129 0.07446 0.46763 0.0
C844 C 0.98252 0.04244 0.45432 0.0
H845 H 0.55113 0.99598 0.57157 0.0
H846 H 0.61857 0.98623 0.47599 0.0
H847 H 0.57372 0.97514 0.43118 0.0
H848 H 0.49462 0.93355 0.53889 0.0
H849 H 0.46004 0.95599 0.55469 0.0
H850 H 0.49773 0.9605 0.57973 0.0
H851 H 0.49525 0.02178 0.56798 0.0
H852 H 0.45789 0.01739 0.54225 0.0
H853 H 0.49144 0.03675 0.51898 0.0
H854 H 0.52168 0.96914 0.39587 0.0
H855 H 0.46592 0.9636 0.37313 0.0
H856 H 0.43174 0.9772 0.49139 0.0
C857 C 0.55654 0.99072 0.54142 0.0
C858 C 0.58843 0.99175 0.52734 0.0
C859 C 0.5944 0.98537 0.4875 0.0
C860 C 0.56906 0.97918 0.46177 0.0
C861 C 0.53786 0.9794 0.47631 0.0
C862 C 0.53148 0.98457 0.51527 0.0
C863 C 0.49565 0.98447 0.52307 0.0
C864 C 0.48648 0.95698 0.55073 0.0
C865 C 0.48441 0.01703 0.53901 0.0
C866 C 0.48291 0.97869 0.48235 0.0
C867 C 0.50771 0.97594 0.45585 0.0
C868 C 0.50206 0.97102 0.41638 0.0
C869 C 0.47025 0.96808 0.40372 0.0
C870 C 0.44441 0.97002 0.43042 0.0
C871 C 0.45093 0.97576 0.47021 0.0
H872 H 0.54698 0.26898 0.34675 0.0
H873 H 0.48395 0.34243 0.30161 0.0
H874 H 0.47131 0.30759 0.24495 0.0
H875 H 0.58142 0.24691 0.25653 0.0
H876 H 0.58442 0.20498 0.26854 0.0
H877 H 0.58565 0.23461 0.30653 0.0
H878 H 0.53732 0.20648 0.34109 0.0
H879 H 0.53687 0.17689 0.30295 0.0
H880 H 0.5011 0.19941 0.314 0.0
H881 H 0.46709 0.26456 0.19245 0.0
H882 H 0.47439 0.21959 0.14644 0.0
H883 H 0.54386 0.17656 0.22443 0.0
C884 C 0.53082 0.2779 0.32487 0.0
C885 C 0.51677 0.30851 0.32816 0.0
C886 C 0.49493 0.31898 0.29941 0.0
C887 C 0.48764 0.29935 0.26728 0.0
C888 C 0.50245 0.26938 0.26455 0.0
C889 C 0.52368 0.25881 0.29259 0.0
C890 C 0.53776 0.22647 0.2821 0.0
C891 C 0.57448 0.22837 0.27819 0.0
C892 C 0.52768 0.20081 0.3118 0.0
C893 C 0.52186 0.22077 0.24315 0.0
C894 C 0.50098 0.24539 0.23393 0.0
C895 C 0.48333 0.24518 0.19948 0.0
C896 C 0.48752 0.21944 0.17362 0.0
C897 C 0.50962 0.19456 0.18198 0.0
C898 C 0.52678 0.19523 0.21735 0.0
H899 H 0.23312 0.53571 0.33701 0.0
H900 H 0.15405 0.49154 0.27558 0.0
H901 H 0.19028 0.47893 0.22029 0.0
H902 H 0.26561 0.5746 0.25568 0.0
H903 H 0.30689 0.56976 0.2701 0.0
H904 H 0.27588 0.57118 0.30648 0.0
H905 H 0.29484 0.51644 0.33357 0.0
H906 H 0.3259 0.51476 0.29711 0.0
H907 H 0.2975 0.48242 0.30139 0.0
H908 H 0.23466 0.47389 0.17048 0.0
H909 H 0.28185 0.48087 0.12778 0.0
H910 H 0.33103 0.53168 0.22024 0.0
C911 C 0.2237 0.52287 0.31216 0.0
C912 C 0.1911 0.51403 0.31048 0.0
C913 C 0.17919 0.49795 0.27735 0.0
C914 C 0.19958 0.4907 0.24597 0.0
C915 C 0.23169 0.5 0.24822 0.0
C916 C 0.24363 0.51592 0.28041 0.0
C917 C 0.2782 0.52589 0.27421 0.0
C918 C 0.28184 0.56253 0.27675 0.0
C919 C 0.30042 0.50885 0.3033 0.0
C920 C 0.28367 0.51381 0.23313 0.0
C921 C 0.2568 0.49831 0.21898 0.0
C922 C 0.25591 0.48573 0.18139 0.0
C923 C 0.28292 0.48964 0.15741 0.0
C924 C 0.31021 0.50655 0.17082 0.0
C925 C 0.31063 0.51837 0.20936 0.0
H926 H 0.93738 0.28424 0.18715 0.0
H927 H 0.03562 0.31792 0.19103 0.0
H928 H 0.0493 0.27338 0.23616 0.0
H929 H 0.92913 0.25874 0.28337 0.0
H930 H 0.90594 0.22368 0.27138 0.0
H931 H 0.90469 0.25819 0.24009 0.0
H932 H 0.92203 0.22301 0.18146 0.0
H933 H 0.92338 0.18832 0.21263 0.0
H934 H 0.95822 0.19954 0.18471 0.0
H935 H 0.04963 0.22734 0.28677 0.0
H936 H 0.03766 0.18335 0.3331 0.0
H937 H 0.94162 0.17619 0.28549 0.0
C938 C 0.96186 0.2823 0.19707 0.0
C939 C 0.98539 0.30469 0.18571 0.0
C940 C 0.01719 0.30101 0.19949 0.0
C941 C 0.02515 0.27578 0.22502 0.0
C942 C 0.00123 0.25393 0.23538 0.0
C943 C 0.97039 0.25674 0.2211 0.0
C944 C 0.94901 0.23005 0.23552 0.0
C945 C 0.92053 0.24347 0.25898 0.0
C946 C 0.93749 0.20898 0.20156 0.0
C947 C 0.97225 0.2122 0.26133 0.0
C948 C 0.00222 0.22635 0.26134 0.0
C949 C 0.02643 0.21571 0.28628 0.0
C950 C 0.01947 0.19064 0.31243 0.0
C951 C 0.98869 0.17623 0.31302 0.0
C952 C 0.9654 0.1865 0.28594 0.0
H953 H 0.29761 0.92478 0.30256 0.0
H954 H 0.3185 0.02476 0.32574 0.0
H955 H 0.27607 0.04078 0.27918 0.0
H956 H 0.27992 0.93207 0.20101 0.0
H957 H 0.24767 0.90336 0.20236 0.0
H958 H 0.2803 0.90021 0.23646 0.0
H959 H 0.23972 0.90155 0.29373 0.0
H960 H 0.207 0.90493 0.25975 0.0
H961 H 0.21189 0.93446 0.29757 0.0
H962 H 0.23293 0.04542 0.22705 0.0
H963 H 0.19114 0.03833 0.1766 0.0
H964 H 0.19503 0.93546 0.19374 0.0
C965 C 0.29337 0.95006 0.29784 0.0
C966 C 0.3115 0.97356 0.31761 0.0
C967 C 0.30494 0.00637 0.3108 0.0
C968 C 0.28088 0.01568 0.28446 0.0
C969 C 0.26324 0.99185 0.26571 0.0
C970 C 0.26902 0.95971 0.2724 0.0
C971 C 0.24621 0.93877 0.24943 0.0
C972 C 0.26463 0.91735 0.22062 0.0
C973 C 0.22494 0.91875 0.27675 0.0
C974 C 0.22688 0.9641 0.22837 0.0
C975 C 0.23725 0.99457 0.23777 0.0
C976 C 0.22435 0.02167 0.21991 0.0
C977 C 0.20061 0.01743 0.19133 0.0
C978 C 0.18966 0.98638 0.18135 0.0
C979 C 0.20259 0.95953 0.20084 0.0
H980 H 0.43341 0.79554 0.81805 0.0
H981 H 0.536 0.79743 0.83887 0.0
H982 H 0.54344 0.75462 0.78971 0.0
H983 H 0.42679 0.71045 0.80727 0.0
H984 H 0.39655 0.71287 0.76991 0.0
H985 H 0.39971 0.7441 0.80586 0.0
H986 H 0.40562 0.78647 0.75112 0.0
H987 H 0.40241 0.75538 0.71499 0.0
H988 H 0.43668 0.78167 0.71505 0.0
H989 H 0.53924 0.71189 0.73666 0.0
H990 H 0.52364 0.67248 0.68613 0.0
H991 H 0.42366 0.69751 0.70358 0.0
C992 C 0.45749 0.78708 0.81224 0.0
C993 C 0.48416 0.79992 0.83217 0.0
C994 C 0.51523 0.78798 0.82385 0.0
C995 C 0.51967 0.76367 0.796 0.0
C996 C 0.49277 0.75142 0.777 0.0
C997 C 0.46228 0.76269 0.78494 0.0
C998 C 0.43722 0.74529 0.76116 0.0
C999 C 0.41369 0.7271 0.78764 0.0
C1000 C 0.41944 0.76859 0.73397 0.0
C1001 C 0.4583 0.72248 0.73842 0.0
C1002 C 0.4903 0.72643 0.74769 0.0
C1003 C 0.51422 0.70851 0.72939 0.0
C1004 C 0.50515 0.68618 0.70076 0.0
C1005 C 0.47245 0.6818 0.691 0.0
C1006 C 0.44885 0.70009 0.71045 0.0
H1007 H 0.81057 0.50331 0.69298 0.0
H1008 H 0.82566 0.40047 0.68459 0.0
H1009 H 0.78249 0.39132 0.73119 0.0
H1010 H 0.7953 0.50046 0.79979 0.0
H1011 H 0.76592 0.53213 0.79851 0.0
H1012 H 0.79816 0.53155 0.76353 0.0
H1013 H 0.75673 0.53341 0.70749 0.0
H1014 H 0.72437 0.53364 0.74227 0.0
H1015 H 0.72584 0.50326 0.70502 0.0
H1016 H 0.73465 0.39188 0.77118 0.0
H1017 H 0.69026 0.40191 0.81561 0.0
H1018 H 0.70851 0.50432 0.80964 0.0
C1019 C 0.80491 0.47895 0.70132 0.0
C1020 C 0.82105 0.45258 0.68407 0.0
C1021 C 0.81331 0.4211 0.69631 0.0
C1022 C 0.78876 0.41555 0.72298 0.0
C1023 C 0.77271 0.44175 0.73844 0.0
C1024 C 0.78092 0.47288 0.7293 0.0
C1025 C 0.76033 0.49635 0.75242 0.0
C1026 C 0.78118 0.5163 0.78022 0.0
C1027 C 0.74065 0.51794 0.72516 0.0
C1028 C 0.73882 0.47329 0.77482 0.0
C1029 C 0.74637 0.44201 0.76551 0.0
C1030 C 0.72902 0.41619 0.77972 0.0
C1031 C 0.7037 0.42226 0.80511 0.0
C1032 C 0.69627 0.45386 0.81722 0.0
C1033 C 0.71397 0.47986 0.80153 0.0
H1034 H 0.0722 0.78469 0.68546 0.0
H1035 H 0.97129 0.80862 0.67542 0.0
H1036 H 0.95849 0.76912 0.7268 0.0
H1037 H 0.05982 0.69926 0.70007 0.0
H1038 H 0.09271 0.69535 0.73377 0.0
H1039 H 0.09395 0.72558 0.69635 0.0
H1040 H 0.10259 0.76944 0.74878 0.0
H1041 H 0.10149 0.73932 0.78626 0.0
H1042 H 0.07441 0.77293 0.7884 0.0
H1043 H 0.95715 0.72919 0.78184 0.0
H1044 H 0.96702 0.6903 0.83469 0.0
H1045 H 0.0683 0.68938 0.80568 0.0
C1046 C 0.04742 0.78163 0.6941 0.0
C1047 C 0.02271 0.79986 0.67662 0.0
C1048 C 0.99056 0.7949 0.68842 0.0
C1049 C 0.98308 0.77253 0.71758 0.0
C1050 C 0.00797 0.7549 0.73419 0.0
C1051 C 0.03946 0.75897 0.72266 0.0
C1052 C 0.06164 0.73667 0.74484 0.0
C1053 C 0.07799 0.7128 0.7171 0.0
C1054 C 0.08649 0.75574 0.76847 0.0
C1055 C 0.03781 0.71992 0.77124 0.0
C1056 C 0.00698 0.73086 0.76469 0.0
C1057 C 0.98112 0.72018 0.78688 0.0
C1058 C 0.98697 0.69807 0.81684 0.0
C1059 C 0.01837 0.6866 0.82419 0.0
C1060 C 0.04397 0.69736 0.80055 0.0
H1061 H 0.69628 0.06217 0.69219 0.0
H1062 H 0.69682 0.95983 0.67072 0.0
H1063 H 0.73552 0.95246 0.72475 0.0
H1064 H 0.77982 0.0682 0.70859 0.0
H1065 H 0.77635 0.09897 0.74516 0.0
H1066 H 0.74636 0.09556 0.70772 0.0
H1067 H 0.70201 0.09073 0.76034 0.0
H1068 H 0.73187 0.09421 0.79797 0.0
H1069 H 0.70526 0.0602 0.79726 0.0
H1070 H 0.7746 0.95685 0.78165 0.0
H1071 H 0.81352 0.97299 0.83257 0.0
H1072 H 0.79041 0.07277 0.81124 0.0
C1073 C 0.70409 0.03814 0.69922 0.0
C1074 C 0.69325 0.01149 0.6777 0.0
C1075 C 0.70471 0.98052 0.68715 0.0
C1076 C 0.72662 0.97613 0.71777 0.0
C1077 C 0.73719 0.00304 0.73813 0.0
C1078 C 0.72649 0.03347 0.72894 0.0
C1079 C 0.74325 0.05872 0.75308 0.0
C1080 C 0.76259 0.08171 0.72708 0.0
C1081 C 0.71916 0.07703 0.77868 0.0
C1082 C 0.76506 0.0378 0.77737 0.0
C1083 C 0.76093 0.00571 0.76886 0.0
C1084 C 0.77812 0.98193 0.78838 0.0
C1085 C 0.80013 0.99129 0.81722 0.0
C1086 C 0.80512 0.0241 0.82565 0.0
C1087 C 0.78734 0.04751 0.80531 0.0
loop_
_geom_bond_atom_site_label_1
_geom_bond_atom_site_label_2
_geom_bond_distance
_geom_bond_site_symmetry_2
_ccdc_geom_bond_type
Co0 O1 2.216 . S
Co0 O2 2.091 . S
Co0 O4 2.004 . S
Co0 O10 2.021 . S
Co0 O12 2.137 . S
Co0 O13 2.244 . S
O1 Co0 2.216 . S
O1 C8 1.247 . S
O2 Co0 2.091 . S
O2 C8 1.261 . S
C3 O12 1.247 . S
C3 O13 1.272 . S
O4 Co0 2.004 . S
O4 C9 1.259 . S
Co5 O6 2.061 . S
Co5 O11 2.052 . S
Co5 O13 2.135 . S
O6 Co5 2.061 . S
O6 C9 1.235 . S
C7 O10 1.238 . S
C7 O11 1.241 . S
C8 O1 1.247 . S
C8 O2 1.261 . S
C9 O4 1.259 . S
C9 O6 1.235 . S
O10 Co0 2.021 . S
O10 C7 1.238 . S
O11 Co5 2.052 . S
O11 C7 1.241 . S
O12 Co0 2.137 . S
O12 C3 1.247 . S
O13 Co0 2.244 . S
O13 C3 1.272 . S
O13 Co5 2.135 . S
Co14 O15 2.216 . S
Co14 O16 2.091 . S
Co14 O18 2.004 . S
Co14 O24 2.021 . S
Co14 O26 2.137 . S
Co14 O27 2.244 . S
O15 Co14 2.216 . S
O15 C22 1.247 . S
O16 Co14 2.091 . S
O16 C22 1.261 . S
C17 O26 1.247 . S
C17 O27 1.272 . S
O18 Co14 2.004 . S
O18 C23 1.259 . S
Co19 O20 2.061 . S
Co19 O25 2.052 . S
Co19 O27 2.135 . S
O20 Co19 2.061 . S
O20 C23 1.235 . S
C21 O24 1.238 . S
C21 O25 1.241 . S
C22 O15 1.247 . S
C22 O16 1.261 . S
C23 O18 1.259 . S
C23 O20 1.235 . S
O24 Co14 2.021 . S
O24 C21 1.238 . S
O25 Co19 2.052 . S
O25 C21 1.241 . S
O26 Co14 2.137 . S
O26 C17 1.247 . S
O27 Co14 2.244 . S
O27 C17 1.272 . S
O27 Co19 2.135 . S
Co28 O29 2.216 . S
Co28 O30 2.079 1_655 S
Co28 O32 2.004 . S
Co28 O38 2.021 . S
Co28 O40 2.137 . S
Co28 O41 2.244 . S
O29 Co28 2.216 . S
O29 C36 1.247 . S
O30 Co28 2.079 1_455 S
O30 C36 1.259 1_455 S
C31 O40 1.247 . S
C31 O41 1.272 . S
O32 Co28 2.004 . S
O32 C37 1.259 . S
Co33 O34 2.061 . S
Co33 O39 2.052 . S
Co33 O41 2.135 . S
O34 Co33 2.061 . S
O34 C37 1.235 . S
C35 O38 1.238 . S
C35 O39 1.241 . S
C36 O29 1.247 . S
C36 O30 1.259 1_655 S
C37 O32 1.259 . S
C37 O34 1.235 . S
O38 Co28 2.021 . S
O38 C35 1.238 . S
O39 Co33 2.052 . S
O39 C35 1.241 . S
O40 Co28 2.137 . S
O40 C31 1.247 . S
O41 Co28 2.244 . S
O41 C31 1.272 . S
O41 Co33 2.135 . S
Co42 O43 2.216 . S
Co42 O44 2.079 1_565 S
Co42 O46 2.004 . S
Co42 O52 2.021 . S
Co42 O54 2.137 . S
Co42 O55 2.244 . S
O43 Co42 2.216 . S
O43 C50 1.247 . S
O44 Co42 2.079 1_545 S
O44 C50 1.259 1_545 S
C45 O54 1.247 . S
C45 O55 1.272 . S
O46 Co42 2.004 . S
O46 C51 1.259 . S
Co47 O48 2.061 . S
Co47 O53 2.052 . S
Co47 O55 2.135 . S
O48 Co47 2.061 . S
O48 C51 1.235 . S
C49 O52 1.238 . S
C49 O53 1.241 . S
C50 O43 1.247 . S
C50 O44 1.259 1_565 S
C51 O46 1.259 . S
C51 O48 1.235 . S
O52 Co42 2.021 . S
O52 C49 1.238 . S
O53 Co47 2.052 . S
O53 C49 1.241 . S
O54 Co42 2.137 . S
O54 C45 1.247 . S
O55 Co42 2.244 . S
O55 C45 1.272 . S
O55 Co47 2.135 . S
Co56 O57 2.216 . S
Co56 O58 2.091 . S
Co56 O60 2.004 . S
Co56 O66 2.021 . S
Co56 O68 2.137 . S
Co56 O69 2.244 . S
O57 Co56 2.216 . S
O57 C64 1.247 . S
O58 Co56 2.091 . S
O58 C64 1.261 . S
C59 O68 1.247 . S
C59 O69 1.272 . S
O60 Co56 2.004 . S
O60 C65 1.259 . S
Co61 O62 2.061 . S
Co61 O67 2.052 . S
Co61 O69 2.135 . S
O62 Co61 2.061 . S
O62 C65 1.235 . S
C63 O66 1.238 . S
C63 O67 1.241 . S
C64 O57 1.247 . S
C64 O58 1.261 . S
C65 O60 1.259 . S
C65 O62 1.235 . S
O66 Co56 2.021 . S
O66 C63 1.238 . S
O67 Co61 2.052 . S
O67 C63 1.241 . S
O68 Co56 2.137 . S
O68 C59 1.247 . S
O69 Co56 2.244 . S
O69 C59 1.272 . S
O69 Co61 2.135 . S
Co70 O71 2.216 . S
Co70 O72 2.091 . S
Co70 O74 2.004 . S
Co70 O80 2.021 . S
Co70 O82 2.137 . S
Co70 O83 2.244 . S
O71 Co70 2.216 . S
O71 C78 1.247 . S
O72 Co70 2.091 . S
O72 C78 1.261 . S
C73 O82 1.247 . S
C73 O83 1.272 . S
O74 Co70 2.004 . S
O74 C79 1.259 . S
Co75 O76 2.061 . S
Co75 O81 2.052 . S
Co75 O83 2.135 . S
O76 Co75 2.061 . S
O76 C79 1.235 . S
C77 O80 1.238 . S
C77 O81 1.241 . S
C78 O71 1.247 . S
C78 O72 1.261 . S
C79 O74 1.259 . S
C79 O76 1.235 . S
O80 Co70 2.021 . S
O80 C77 1.238 . S
O81 Co75 2.052 . S
O81 C77 1.241 . S
O82 Co70 2.137 . S
O82 C73 1.247 . S
O83 Co70 2.244 . S
O83 C73 1.272 . S
O83 Co75 2.135 . S
Co84 O85 2.216 . S
Co84 O86 2.079 1_655 S
Co84 O88 2.004 . S
Co84 O94 2.021 . S
Co84 O96 2.137 . S
Co84 O97 2.244 . S
O85 Co84 2.216 . S
O85 C92 1.247 . S
O86 Co84 2.079 1_455 S
O86 C92 1.259 1_455 S
C87 O96 1.247 . S
C87 O97 1.272 . S
O88 Co84 2.004 . S
O88 C93 1.259 . S
Co89 O90 2.061 . S
Co89 O95 2.052 . S
Co89 O97 2.135 . S
O90 Co89 2.061 . S
O90 C93 1.235 . S
C91 O94 1.238 . S
C91 O95 1.241 . S
C92 O85 1.247 . S
C92 O86 1.259 1_655 S
C93 O88 1.259 . S
C93 O90 1.235 . S
O94 Co84 2.021 . S
O94 C91 1.238 . S
O95 Co89 2.052 . S
O95 C91 1.241 . S
O96 Co84 2.137 . S
O96 C87 1.247 . S
O97 Co84 2.244 . S
O97 C87 1.272 . S
O97 Co89 2.135 . S
Co98 O99 2.216 . S
Co98 O100 2.079 1_565 S
Co98 O102 2.004 . S
Co98 O108 2.021 . S
Co98 O110 2.137 . S
Co98 O111 2.244 . S
O99 Co98 2.216 . S
O99 C106 1.247 . S
O100 Co98 2.079 1_545 S
O100 C106 1.259 1_545 S
C101 O110 1.247 . S
C101 O111 1.272 . S
O102 Co98 2.004 . S
O102 C107 1.259 . S
Co103 O104 2.061 . S
Co103 O109 2.052 . S
Co103 O111 2.135 . S
O104 Co103 2.061 . S
O104 C107 1.235 . S
C105 O108 1.238 . S
C105 O109 1.241 . S
C106 O99 1.247 . S
C106 O100 1.259 1_565 S
C107 O102 1.259 . S
C107 O104 1.235 . S
O108 Co98 2.021 . S
O108 C105 1.238 . S
O109 Co103 2.052 . S
O109 C105 1.241 . S
O110 Co98 2.137 . S
O110 C101 1.247 . S
O111 Co98 2.244 . S
O111 C101 1.272 . S
O111 Co103 2.135 . S
Co112 O113 2.216 . S
Co112 O114 2.091 . S
Co112 O116 2.004 . S
Co112 O122 2.021 . S
Co112 O124 2.137 . S
Co112 O125 2.244 . S
O113 Co112 2.216 . S
O113 C120 1.247 . S
O114 Co112 2.091 . S
O114 C120 1.261 . S
C115 O124 1.247 . S
C115 O125 1.272 . S
O116 Co112 2.004 . S
O116 C121 1.259 . S
Co117 O118 2.061 . S
Co117 O123 2.052 . S
Co117 O125 2.135 . S
O118 Co117 2.061 . S
O118 C121 1.235 . S
C119 O122 1.238 . S
C119 O123 1.241 . S
C120 O113 1.247 . S
C120 O114 1.261 . S
C121 O116 1.259 . S
C121 O118 1.235 . S
O122 Co112 2.021 . S
O122 C119 1.238 . S
O123 Co117 2.052 . S
O123 C119 1.241 . S
O124 Co112 2.137 . S
O124 C115 1.247 . S
O125 Co112 2.244 . S
O125 C115 1.272 . S
O125 Co117 2.135 . S
Co126 O127 2.216 . S
Co126 O128 2.091 . S
Co126 O130 2.004 . S
Co126 O136 2.021 . S
Co126 O138 2.137 . S
Co126 O139 2.244 . S
O127 Co126 2.216 . S
O127 C134 1.247 . S
O128 Co126 2.091 . S
O128 C134 1.261 . S
C129 O138 1.247 . S
C129 O139 1.272 . S
O130 Co126 2.004 . S
O130 C135 1.259 . S
Co131 O132 2.061 . S
Co131 O137 2.052 . S
Co131 O139 2.135 . S
O132 Co131 2.061 . S
O132 C135 1.235 . S
C133 O136 1.238 . S
C133 O137 1.241 . S
C134 O127 1.247 . S
C134 O128 1.261 . S
C135 O130 1.259 . S
C135 O132 1.235 . S
O136 Co126 2.021 . S
O136 C133 1.238 . S
O137 Co131 2.052 . S
O137 C133 1.241 . S
O138 Co126 2.137 . S
O138 C129 1.247 . S
O139 Co126 2.244 . S
O139 C129 1.272 . S
O139 Co131 2.135 . S
Co140 O141 2.216 . S
Co140 O142 2.079 1_455 S
Co140 O144 2.004 . S
Co140 O150 2.021 . S
Co140 O152 2.137 . S
Co140 O153 2.244 . S
O141 Co140 2.216 . S
O141 C148 1.247 . S
O142 Co140 2.079 1_655 S
O142 C148 1.259 1_655 S
C143 O152 1.247 . S
C143 O153 1.272 . S
O144 Co140 2.004 . S
O144 C149 1.259 . S
Co145 O146 2.061 . S
Co145 O151 2.052 . S
Co145 O153 2.135 . S
O146 Co145 2.061 . S
O146 C149 1.235 . S
C147 O150 1.238 . S
C147 O151 1.241 . S
C148 O141 1.247 . S
C148 O142 1.259 1_455 S
C149 O144 1.259 . S
C149 O146 1.235 . S
O150 Co140 2.021 . S
O150 C147 1.238 . S
O151 Co145 2.052 . S
O151 C147 1.241 . S
O152 Co140 2.137 . S
O152 C143 1.247 . S
O153 Co140 2.244 . S
O153 C143 1.272 . S
O153 Co145 2.135 . S
Co154 O155 2.216 . S
Co154 O156 2.079 1_545 S
Co154 O158 2.004 . S
Co154 O164 2.021 . S
Co154 O166 2.137 . S
Co154 O167 2.244 . S
O155 Co154 2.216 . S
O155 C162 1.247 . S
O156 Co154 2.079 1_565 S
O156 C162 1.259 1_565 S
C157 O166 1.247 . S
C157 O167 1.272 . S
O158 Co154 2.004 . S
O158 C163 1.259 . S
Co159 O160 2.061 . S
Co159 O165 2.052 . S
Co159 O167 2.135 . S
O160 Co159 2.061 . S
O160 C163 1.235 . S
C161 O164 1.238 . S
C161 O165 1.241 . S
C162 O155 1.247 . S
C162 O156 1.259 1_545 S
C163 O158 1.259 . S
C163 O160 1.235 . S
O164 Co154 2.021 . S
O164 C161 1.238 . S
O165 Co159 2.052 . S
O165 C161 1.241 . S
O166 Co154 2.137 . S
O166 C157 1.247 . S
O167 Co154 2.244 . S
O167 C157 1.272 . S
O167 Co159 2.135 . S
Co168 O169 2.216 . S
Co168 O170 2.091 . S
Co168 O172 2.004 . S
Co168 O178 2.021 . S
Co168 O180 2.137 . S
Co168 O181 2.244 . S
O169 Co168 2.216 . S
O169 C176 1.247 . S
O170 Co168 2.091 . S
O170 C176 1.261 . S
C171 O180 1.247 . S
C171 O181 1.272 . S
O172 Co168 2.004 . S
O172 C177 1.259 . S
Co173 O174 2.061 . S
Co173 O179 2.052 . S
Co173 O181 2.135 . S
O174 Co173 2.061 . S
O174 C177 1.235 . S
C175 O178 1.238 . S
C175 O179 1.241 . S
C176 O169 1.247 . S
C176 O170 1.261 . S
C177 O172 1.259 . S
C177 O174 1.235 . S
O178 Co168 2.021 . S
O178 C175 1.238 . S
O179 Co173 2.052 . S
O179 C175 1.241 . S
O180 Co168 2.137 . S
O180 C171 1.247 . S
O181 Co168 2.244 . S
O181 C171 1.272 . S
O181 Co173 2.135 . S
Co182 O183 2.216 . S
Co182 O184 2.091 . S
Co182 O186 2.004 . S
Co182 O192 2.021 . S
Co182 O194 2.137 . S
Co182 O195 2.244 . S
O183 Co182 2.216 . S
O183 C190 1.247 . S
O184 Co182 2.091 . S
O184 C190 1.261 . S
C185 O194 1.247 . S
C185 O195 1.272 . S
O186 Co182 2.004 . S
O186 C191 1.259 . S
Co187 O188 2.061 . S
Co187 O193 2.052 . S
Co187 O195 2.135 . S
O188 Co187 2.061 . S
O188 C191 1.235 . S
C189 O192 1.238 . S
C189 O193 1.241 . S
C190 O183 1.247 . S
C190 O184 1.261 . S
C191 O186 1.259 . S
C191 O188 1.235 . S
O192 Co182 2.021 . S
O192 C189 1.238 . S
O193 Co187 2.052 . S
O193 C189 1.241 . S
O194 Co182 2.137 . S
O194 C185 1.247 . S
O195 Co182 2.244 . S
O195 C185 1.272 . S
O195 Co187 2.135 . S
Co196 O197 2.216 . S
Co196 O198 2.079 1_455 S
Co196 O200 2.004 . S
Co196 O206 2.021 . S
Co196 O208 2.137 . S
Co196 O209 2.244 . S
O197 Co196 2.216 . S
O197 C204 1.247 . S
O198 Co196 2.079 1_655 S
O198 C204 1.259 1_655 S
C199 O208 1.247 . S
C199 O209 1.272 . S
O200 Co196 2.004 . S
O200 C205 1.259 . S
Co201 O202 2.061 . S
Co201 O207 2.052 . S
Co201 O209 2.135 . S
O202 Co201 2.061 . S
O202 C205 1.235 . S
C203 O206 1.238 . S
C203 O207 1.241 . S
C204 O197 1.247 . S
C204 O198 1.259 1_455 S
C205 O200 1.259 . S
C205 O202 1.235 . S
O206 Co196 2.021 . S
O206 C203 1.238 . S
O207 Co201 2.052 . S
O207 C203 1.241 . S
O208 Co196 2.137 . S
O208 C199 1.247 . S
O209 Co196 2.244 . S
O209 C199 1.272 . S
O209 Co201 2.135 . S
Co210 O211 2.216 . S
Co210 O212 2.079 1_545 S
Co210 O214 2.004 . S
Co210 O220 2.021 . S
Co210 O222 2.137 . S
Co210 O223 2.244 . S
O211 Co210 2.216 . S
O211 C218 1.247 . S
O212 Co210 2.079 1_565 S
O212 C218 1.259 1_565 S
C213 O222 1.247 . S
C213 O223 1.272 . S
O214 Co210 2.004 . S
O214 C219 1.259 . S
Co215 O216 2.061 . S
Co215 O221 2.052 . S
Co215 O223 2.135 . S
O216 Co215 2.061 . S
O216 C219 1.235 . S
C217 O220 1.238 . S
C217 O221 1.241 . S
C218 O211 1.247 . S
C218 O212 1.259 1_545 S
C219 O214 1.259 . S
C219 O216 1.235 . S
O220 Co210 2.021 . S
O220 C217 1.238 . S
O221 Co215 2.052 . S
O221 C217 1.241 . S
O222 Co210 2.137 . S
O222 C213 1.247 . S
O223 Co210 2.244 . S
O223 C213 1.272 . S
O223 Co215 2.135 . S
H224 C236 0.930 . S
H225 C238 0.930 . S
H226 C239 0.930 . S
H227 C243 0.959 . S
H228 C243 0.959 . S
H229 C243 0.961 . S
H230 C244 0.960 . S
H231 C244 0.961 . S
H232 C244 0.959 . S
H233 C247 0.929 . S
H234 C248 0.931 . S
H235 C250 0.930 . S
C236 H224 0.930 . S
C236 C237 1.399 . S
C236 C241 1.399 . S
C237 C236 1.399 . S
C237 C238 1.376 1_554 S
C238 H225 0.930 . S
C238 C237 1.376 1_556 S
C238 C239 1.388 . S
C239 H226 0.930 . S
C239 C238 1.388 . S
C239 C240 1.390 . S
C240 C239 1.390 . S
C240 C241 1.394 1_556 S
C240 C246 1.465 . S
C241 C236 1.399 . S
C241 C240 1.394 1_554 S
C241 C242 1.516 . S
C242 C241 1.516 . S
C242 C243 1.502 . S
C242 C244 1.561 . S
C242 C245 1.526 . S
C243 H227 0.959 . S
C243 H228 0.959 . S
C243 H229 0.961 . S
C243 C242 1.502 . S
C244 H230 0.960 . S
C244 H231 0.961 . S
C244 H232 0.959 . S
C244 C242 1.561 . S
C245 C242 1.526 . S
C245 C246 1.396 1_554 S
C245 C250 1.390 . S
C246 C240 1.465 . S
C246 C245 1.396 1_556 S
C246 C247 1.399 . S
C247 H233 0.929 . S
C247 C246 1.399 . S
C247 C248 1.385 . S
C248 H234 0.931 . S
C248 C247 1.385 . S
C248 C249 1.389 . S
C249 C248 1.389 . S
C249 C250 1.387 1_556 S
C250 H235 0.930 . S
C250 C245 1.390 . S
C250 C249 1.387 1_554 S
H251 C263 0.930 . S
H252 C265 0.930 . S
H253 C266 0.930 . S
H254 C270 0.959 . S
H255 C270 0.959 . S
H256 C270 0.961 . S
H257 C271 0.960 . S
H258 C271 0.961 . S
H259 C271 0.959 . S
H260 C274 0.929 . S
H261 C275 0.931 . S
H262 C277 0.930 . S
C263 H251 0.930 . S
C263 C264 1.399 . S
C263 C268 1.399 . S
C264 C263 1.399 . S
C264 C265 1.376 1_556 S
C265 H252 0.930 . S
C265 C264 1.376 1_554 S
C265 C266 1.388 . S
C266 H253 0.930 . S
C266 C265 1.388 . S
C266 C267 1.390 . S
C267 C266 1.390 . S
C267 C268 1.394 1_554 S
C267 C273 1.465 . S
C268 C263 1.399 . S
C268 C267 1.394 1_556 S
C268 C269 1.516 . S
C269 C268 1.516 . S
C269 C270 1.502 . S
C269 C271 1.561 . S
C269 C272 1.526 . S
C270 H254 0.959 . S
C270 H255 0.959 . S
C270 H256 0.961 . S
C270 C269 1.502 . S
C271 H257 0.960 . S
C271 H258 0.961 . S
C271 H259 0.959 . S
C271 C269 1.561 . S
C272 C269 1.526 . S
C272 C273 1.396 1_556 S
C272 C277 1.390 . S
C273 C267 1.465 . S
C273 C272 1.396 1_554 S
C273 C274 1.399 . S
C274 H260 0.929 . S
C274 C273 1.399 . S
C274 C275 1.385 . S
C275 H261 0.931 . S
C275 C274 1.385 . S
C275 C276 1.389 . S
C276 C275 1.389 . S
C276 C277 1.387 1_554 S
C277 H262 0.930 . S
C277 C272 1.390 . S
C277 C276 1.387 1_556 S
H278 C290 0.930 . S
H279 C292 0.930 . S
H280 C293 0.930 . S
H281 C297 0.959 . S
H282 C297 0.959 . S
H283 C297 0.961 . S
H284 C298 0.960 . S
H285 C298 0.961 . S
H286 C298 0.959 . S
H287 C301 0.929 . S
H288 C302 0.931 . S
H289 C304 0.930 . S
C290 H278 0.930 . S
C290 C291 1.399 1_554 S
C290 C295 1.399 . S
C291 C290 1.399 1_556 S
C291 C292 1.376 . S
C292 H279 0.930 . S
C292 C291 1.376 . S
C292 C293 1.388 . S
C293 H280 0.930 . S
C293 C292 1.388 . S
C293 C294 1.390 . S
C294 C293 1.390 . S
C294 C295 1.394 1_556 S
C294 C300 1.465 . S
C295 C290 1.399 . S
C295 C294 1.394 1_554 S
C295 C296 1.516 . S
C296 C295 1.516 . S
C296 C297 1.502 . S
C296 C298 1.561 . S
C296 C299 1.526 . S
C297 H281 0.959 . S
C297 H282 0.959 . S
C297 H283 0.961 . S
C297 C296 1.502 . S
C298 H284 0.960 . S
C298 H285 0.961 . S
C298 H286 0.959 . S
C298 C296 1.561 . S
C299 C296 1.526 . S
C299 C300 1.396 1_554 S
C299 C304 1.390 . S
C300 C294 1.465 . S
C300 C299 1.396 1_556 S
C300 C301 1.399 . S
C301 H287 0.929 . S
C301 C300 1.399 . S
C301 C302 1.385 . S
C302 H288 0.931 . S
C302 C301 1.385 . S
C302 C303 1.389 1_556 S
C303 C302 1.389 1_554 S
C303 C304 1.387 . S
C304 H289 0.930 . S
C304 C299 1.390 . S
C304 C303 1.387 . S
H305 C317 0.930 . S
H306 C319 0.930 . S
H307 C320 0.930 . S
H308 C324 0.959 . S
H309 C324 0.959 . S
H310 C324 0.961 . S
H311 C325 0.960 . S
H312 C325 0.961 . S
H313 C325 0.959 . S
H314 C328 0.929 . S
H315 C329 0.931 . S
H316 C331 0.930 . S
C317 H305 0.930 . S
C317 C318 1.399 . S
C317 C322 1.399 . S
C318 C317 1.399 . S
C318 C319 1.376 1_556 S
C319 H306 0.930 . S
C319 C318 1.376 1_554 S
C319 C320 1.388 . S
C320 H307 0.930 . S
C320 C319 1.388 . S
C320 C321 1.390 . S
C321 C320 1.390 . S
C321 C322 1.394 1_554 S
C321 C327 1.465 . S
C322 C317 1.399 . S
C322 C321 1.394 1_556 S
C322 C323 1.516 . S
C323 C322 1.516 . S
C323 C324 1.502 . S
C323 C325 1.561 . S
C323 C326 1.526 . S
C324 H308 0.959 . S
C324 H309 0.959 . S
C324 H310 0.961 . S
C324 C323 1.502 . S
C325 H311 0.960 . S
C325 H312 0.961 . S
C325 H313 0.959 . S
C325 C323 1.561 . S
C326 C323 1.526 . S
C326 C327 1.396 1_556 S
C326 C331 1.390 . S
C327 C321 1.465 . S
C327 C326 1.396 1_554 S
C327 C328 1.399 . S
C328 H314 0.929 . S
C328 C327 1.399 . S
C328 C329 1.385 . S
C329 H315 0.931 . S
C329 C328 1.385 . S
C329 C330 1.389 . S
C330 C329 1.389 . S
C330 C331 1.387 1_554 S
C331 H316 0.930 . S
C331 C326 1.390 . S
C331 C330 1.387 1_556 S
H332 C344 0.930 . S
H333 C346 0.930 . S
H334 C347 0.930 . S
H335 C351 0.959 . S
H336 C351 0.959 . S
H337 C351 0.961 . S
H338 C352 0.960 . S
H339 C352 0.961 . S
H340 C352 0.959 . S
H341 C355 0.929 . S
H342 C356 0.931 . S
H343 C358 0.930 . S
C344 H332 0.930 . S
C344 C345 1.399 . S
C344 C349 1.399 . S
C345 C344 1.399 . S
C345 C346 1.376 . S
C346 H333 0.930 . S
C346 C345 1.376 . S
C346 C347 1.388 . S
C347 H334 0.930 . S
C347 C346 1.388 . S
C347 C348 1.390 . S
C348 C347 1.390 . S
C348 C349 1.394 . S
C348 C354 1.465 . S
C349 C344 1.399 . S
C349 C348 1.394 . S
C349 C350 1.516 . S
C350 C349 1.516 . S
C350 C351 1.502 . S
C350 C352 1.561 . S
C350 C353 1.526 . S
C351 H335 0.959 . S
C351 H336 0.959 . S
C351 H337 0.961 . S
C351 C350 1.502 . S
C352 H338 0.960 . S
C352 H339 0.961 . S
C352 H340 0.959 . S
C352 C350 1.561 . S
C353 C350 1.526 . S
C353 C354 1.396 . S
C353 C358 1.390 . S
C354 C348 1.465 . S
C354 C353 1.396 . S
C354 C355 1.399 . S
C355 H341 0.929 . S
C355 C354 1.399 . S
C355 C356 1.385 . S
C356 H342 0.931 . S
C356 C355 1.385 . S
C356 C357 1.389 . S
C357 C356 1.389 . S
C357 C358 1.387 . S
C358 H343 0.930 . S
C358 C353 1.390 . S
C358 C357 1.387 . S
H359 C371 0.930 . S
H360 C373 0.930 . S
H361 C374 0.930 . S
H362 C378 0.959 . S
H363 C378 0.959 . S
H364 C378 0.961 . S
H365 C379 0.960 . S
H366 C379 0.961 . S
H367 C379 0.959 . S
H368 C382 0.929 . S
H369 C383 0.931 . S
H370 C385 0.930 . S
C371 H359 0.930 . S
C371 C372 1.399 . S
C371 C376 1.399 . S
C372 C371 1.399 . S
C372 C373 1.376 . S
C373 H360 0.930 . S
C373 C372 1.376 . S
C373 C374 1.388 . S
C374 H361 0.930 . S
C374 C373 1.388 . S
C374 C375 1.390 . S
C375 C374 1.390 . S
C375 C376 1.394 . S
C375 C381 1.465 . S
C376 C371 1.399 . S
C376 C375 1.394 . S
C376 C377 1.516 . S
C377 C376 1.516 . S
C377 C378 1.502 . S
C377 C379 1.561 . S
C377 C380 1.526 . S
C378 H362 0.959 . S
C378 H363 0.959 . S
C378 H364 0.961 . S
C378 C377 1.502 . S
C379 H365 0.960 . S
C379 H366 0.961 . S
C379 H367 0.959 . S
C379 C377 1.561 . S
C380 C377 1.526 . S
C380 C381 1.396 . S
C380 C385 1.390 . S
C381 C375 1.465 . S
C381 C380 1.396 . S
C381 C382 1.399 . S
C382 H368 0.929 . S
C382 C381 1.399 . S
C382 C383 1.385 . S
C383 H369 0.931 . S
C383 C382 1.385 . S
C383 C384 1.389 . S
C384 C383 1.389 . S
C384 C385 1.387 . S
C385 H370 0.930 . S
C385 C380 1.390 . S
C385 C384 1.387 . S
H386 C398 0.930 . S
H387 C400 0.930 . S
H388 C401 0.930 . S
H389 C405 0.959 . S
H390 C405 0.959 . S
H391 C405 0.961 . S
H392 C406 0.960 . S
H393 C406 0.961 . S
H394 C406 0.959 . S
H395 C409 0.929 . S
H396 C410 0.931 . S
H397 C412 0.930 . S
C398 H386 0.930 . S
C398 C399 1.399 . S
C398 C403 1.399 . S
C399 C398 1.399 . S
C399 C400 1.376 . S
C400 H387 0.930 . S
C400 C399 1.376 . S
C400 C401 1.388 . S
C401 H388 0.930 . S
C401 C400 1.388 . S
C401 C402 1.390 . S
C402 C401 1.390 . S
C402 C403 1.394 . S
C402 C408 1.465 . S
C403 C398 1.399 . S
C403 C402 1.394 . S
C403 C404 1.516 . S
C404 C403 1.516 . S
C404 C405 1.502 . S
C404 C406 1.561 . S
C404 C407 1.526 . S
C405 H389 0.959 . S
C405 H390 0.959 . S
C405 H391 0.961 . S
C405 C404 1.502 . S
C406 H392 0.960 . S
C406 H393 0.961 . S
C406 H394 0.959 . S
C406 C404 1.561 . S
C407 C404 1.526 . S
C407 C408 1.396 . S
C407 C412 1.390 . S
C408 C402 1.465 . S
C408 C407 1.396 . S
C408 C409 1.399 . S
C409 H395 0.929 . S
C409 C408 1.399 . S
C409 C410 1.385 . S
C410 H396 0.931 . S
C410 C409 1.385 . S
C410 C411 1.389 . S
C411 C410 1.389 . S
C411 C412 1.387 . S
C412 H397 0.930 . S
C412 C407 1.390 . S
C412 C411 1.387 . S
H413 C425 0.930 . S
H414 C427 0.930 . S
H415 C428 0.930 . S
H416 C432 0.959 . S
H417 C432 0.959 . S
H418 C432 0.961 . S
H419 C433 0.960 . S
H420 C433 0.961 . S
H421 C433 0.959 . S
H422 C436 0.929 . S
H423 C437 0.931 . S
H424 C439 0.930 . S
C425 H413 0.930 . S
C425 C426 1.399 . S
C425 C430 1.399 . S
C426 C425 1.399 . S
C426 C427 1.376 . S
C427 H414 0.930 . S
C427 C426 1.376 . S
C427 C428 1.388 . S
C428 H415 0.930 . S
C428 C427 1.388 . S
C428 C429 1.390 . S
C429 C428 1.390 . S
C429 C430 1.394 . S
C429 C435 1.465 . S
C430 C425 1.399 . S
C430 C429 1.394 . S
C430 C431 1.516 . S
C431 C430 1.516 . S
C431 C432 1.502 . S
C431 C433 1.561 . S
C431 C434 1.526 . S
C432 H416 0.959 . S
C432 H417 0.959 . S
C432 H418 0.961 . S
C432 C431 1.502 . S
C433 H419 0.960 . S
C433 H420 0.961 . S
C433 H421 0.959 . S
C433 C431 1.561 . S
C434 C431 1.526 . S
C434 C435 1.396 . S
C434 C439 1.390 . S
C435 C429 1.465 . S
C435 C434 1.396 . S
C435 C436 1.399 . S
C436 H422 0.929 . S
C436 C435 1.399 . S
C436 C437 1.385 . S
C437 H423 0.931 . S
C437 C436 1.385 . S
C437 C438 1.389 . S
C438 C437 1.389 . S
C438 C439 1.387 . S
C439 H424 0.930 . S
C439 C434 1.390 . S
C439 C438 1.387 . S
H440 C452 0.930 . S
H441 C454 0.930 . S
H442 C455 0.930 . S
H443 C459 0.959 . S
H444 C459 0.959 . S
H445 C459 0.961 . S
H446 C460 0.960 . S
H447 C460 0.961 . S
H448 C460 0.959 . S
H449 C463 0.929 . S
H450 C464 0.931 . S
H451 C466 0.930 . S
C452 H440 0.930 . S
C452 C453 1.399 . S
C452 C457 1.399 . S
C453 C452 1.399 . S
C453 C454 1.376 1_556 S
C454 H441 0.930 . S
C454 C453 1.376 1_554 S
C454 C455 1.388 . S
C455 H442 0.930 . S
C455 C454 1.388 . S
C455 C456 1.390 . S
C456 C455 1.390 . S
C456 C457 1.394 1_554 S
C456 C462 1.465 . S
C457 C452 1.399 . S
C457 C456 1.394 1_556 S
C457 C458 1.516 . S
C458 C457 1.516 . S
C458 C459 1.502 . S
C458 C460 1.561 . S
C458 C461 1.526 . S
C459 H443 0.959 . S
C459 H444 0.959 . S
C459 H445 0.961 . S
C459 C458 1.502 . S
C460 H446 0.960 . S
C460 H447 0.961 . S
C460 H448 0.959 . S
C460 C458 1.561 . S
C461 C458 1.526 . S
C461 C462 1.396 1_556 S
C461 C466 1.390 . S
C462 C456 1.465 . S
C462 C461 1.396 1_554 S
C462 C463 1.399 . S
C463 H449 0.929 . S
C463 C462 1.399 . S
C463 C464 1.385 . S
C464 H450 0.931 . S
C464 C463 1.385 . S
C464 C465 1.389 . S
C465 C464 1.389 . S
C465 C466 1.387 1_554 S
C466 H451 0.930 . S
C466 C461 1.390 . S
C466 C465 1.387 1_556 S
H467 C479 0.930 . S
H468 C481 0.930 . S
H469 C482 0.930 . S
H470 C486 0.959 1_554 S
H471 C486 0.959 . S
H472 C486 0.961 . S
H473 C487 0.960 . S
H474 C487 0.961 . S
H475 C487 0.959 . S
H476 C490 0.929 . S
H477 C491 0.931 . S
H478 C493 0.934 . S
C479 H467 0.930 . S
C479 C480 1.399 . S
C479 C484 1.399 . S
C480 C479 1.399 . S
C480 C481 1.376 1_556 S
C481 H468 0.930 . S
C481 C480 1.376 1_554 S
C481 C482 1.388 . S
C482 H469 0.930 . S
C482 C481 1.388 . S
C482 C483 1.390 . S
C483 C482 1.390 . S
C483 C484 1.394 1_554 S
C483 C489 1.465 . S
C484 C479 1.399 . S
C484 C483 1.394 1_556 S
C484 C485 1.516 . S
C485 C484 1.516 . S
C485 C486 1.502 . S
C485 C487 1.561 . S
C485 C488 1.526 1_556 S
C486 H470 0.959 1_556 S
C486 H471 0.959 . S
C486 H472 0.961 . S
C486 C485 1.502 . S
C487 H473 0.960 . S
C487 H474 0.961 . S
C487 H475 0.959 . S
C487 C485 1.561 . S
C488 C485 1.526 1_554 S
C488 C489 1.396 . S
C488 C493 1.390 . S
C489 C483 1.465 . S
C489 C488 1.396 . S
C489 C490 1.399 . S
C490 H476 0.929 . S
C490 C489 1.399 . S
C490 C491 1.385 . S
C491 H477 0.931 . S
C491 C490 1.385 . S
C491 C492 1.389 . S
C492 C491 1.389 . S
C492 C493 1.387 . S
C493 H478 0.934 . S
C493 C488 1.390 . S
C493 C492 1.387 . S
H494 C506 0.930 . S
H495 C508 0.930 . S
H496 C509 0.930 . S
H497 C513 0.959 . S
H498 C513 0.959 . S
H499 C513 0.961 . S
H500 C514 0.960 . S
H501 C514 0.961 . S
H502 C514 0.959 . S
H503 C517 0.929 . S
H504 C518 0.931 . S
H505 C520 0.930 . S
C506 H494 0.930 . S
C506 C507 1.399 1_554 S
C506 C511 1.399 . S
C507 C506 1.399 1_556 S
C507 C508 1.376 . S
C508 H495 0.930 . S
C508 C507 1.376 . S
C508 C509 1.388 . S
C509 H496 0.930 . S
C509 C508 1.388 . S
C509 C510 1.390 . S
C510 C509 1.390 . S
C510 C511 1.394 1_556 S
C510 C516 1.465 . S
C511 C506 1.399 . S
C511 C510 1.394 1_554 S
C511 C512 1.516 . S
C512 C511 1.516 . S
C512 C513 1.502 . S
C512 C514 1.561 . S
C512 C515 1.526 . S
C513 H497 0.959 . S
C513 H498 0.959 . S
C513 H499 0.961 . S
C513 C512 1.502 . S
C514 H500 0.960 . S
C514 H501 0.961 . S
C514 H502 0.959 . S
C514 C512 1.561 . S
C515 C512 1.526 . S
C515 C516 1.396 1_554 S
C515 C520 1.390 . S
C516 C510 1.465 . S
C516 C515 1.396 1_556 S
C516 C517 1.399 . S
C517 H503 0.929 . S
C517 C516 1.399 . S
C517 C518 1.385 . S
C518 H504 0.931 . S
C518 C517 1.385 . S
C518 C519 1.389 1_556 S
C519 C518 1.389 1_554 S
C519 C520 1.387 . S
C520 H505 0.930 . S
C520 C515 1.390 . S
C520 C519 1.387 . S
H521 C533 0.930 . S
H522 C535 0.930 . S
H523 C536 0.930 . S
H524 C540 0.959 . S
H525 C540 0.959 . S
H526 C540 0.961 . S
H527 C541 0.960 . S
H528 C541 0.961 . S
H529 C541 0.959 . S
H530 C544 0.929 . S
H531 C545 0.931 . S
H532 C547 0.930 . S
C533 H521 0.930 . S
C533 C534 1.399 . S
C533 C538 1.399 . S
C534 C533 1.399 . S
C534 C535 1.376 1_554 S
C535 H522 0.930 . S
C535 C534 1.376 1_556 S
C535 C536 1.388 . S
C536 H523 0.930 . S
C536 C535 1.388 . S
C536 C537 1.390 . S
C537 C536 1.390 . S
C537 C538 1.394 1_556 S
C537 C543 1.465 . S
C538 C533 1.399 . S
C538 C537 1.394 1_554 S
C538 C539 1.516 . S
C539 C538 1.516 . S
C539 C540 1.502 . S
C539 C541 1.561 . S
C539 C542 1.526 . S
C540 H524 0.959 . S
C540 H525 0.959 . S
C540 H526 0.961 . S
C540 C539 1.502 . S
C541 H527 0.960 . S
C541 H528 0.961 . S
C541 H529 0.959 . S
C541 C539 1.561 . S
C542 C539 1.526 . S
C542 C543 1.396 1_554 S
C542 C547 1.390 . S
C543 C537 1.465 . S
C543 C542 1.396 1_556 S
C543 C544 1.399 . S
C544 H530 0.929 . S
C544 C543 1.399 . S
C544 C545 1.385 . S
C545 H531 0.931 . S
C545 C544 1.385 . S
C545 C546 1.389 . S
C546 C545 1.389 . S
C546 C547 1.387 1_556 S
C547 H532 0.930 . S
C547 C542 1.390 . S
C547 C546 1.387 1_554 S
H548 C560 0.930 . S
H549 C562 0.930 . S
H550 C563 0.930 . S
H551 C567 0.959 . S
H552 C567 0.959 . S
H553 C567 0.961 . S
H554 C568 0.960 . S
H555 C568 0.961 . S
H556 C568 0.959 . S
H557 C571 0.929 . S
H558 C572 0.931 . S
H559 C574 0.930 . S
C560 H548 0.930 . S
C560 C561 1.399 . S
C560 C565 1.399 . S
C561 C560 1.399 . S
C561 C562 1.376 . S
C562 H549 0.930 . S
C562 C561 1.376 . S
C562 C563 1.388 . S
C563 H550 0.930 . S
C563 C562 1.388 . S
C563 C564 1.390 . S
C564 C563 1.390 . S
C564 C565 1.394 . S
C564 C570 1.465 . S
C565 C560 1.399 . S
C565 C564 1.394 . S
C565 C566 1.516 . S
C566 C565 1.516 . S
C566 C567 1.502 . S
C566 C568 1.561 . S
C566 C569 1.526 . S
C567 H551 0.959 . S
C567 H552 0.959 . S
C567 H553 0.961 . S
C567 C566 1.502 . S
C568 H554 0.960 . S
C568 H555 0.961 . S
C568 H556 0.959 . S
C568 C566 1.561 . S
C569 C566 1.526 . S
C569 C570 1.396 . S
C569 C574 1.390 . S
C570 C564 1.465 . S
C570 C569 1.396 . S
C570 C571 1.399 . S
C571 H557 0.929 . S
C571 C570 1.399 . S
C571 C572 1.385 . S
C572 H558 0.931 . S
C572 C571 1.385 . S
C572 C573 1.389 . S
C573 C572 1.389 . S
C573 C574 1.387 . S
C574 H559 0.930 . S
C574 C569 1.390 . S
C574 C573 1.387 . S
H575 C587 0.930 . S
H576 C589 0.930 . S
H577 C590 0.930 . S
H578 C594 0.959 . S
H579 C594 0.959 . S
H580 C594 0.961 . S
H581 C595 0.960 . S
H582 C595 0.961 . S
H583 C595 0.959 . S
H584 C598 0.929 . S
H585 C599 0.931 . S
H586 C601 0.930 . S
C587 H575 0.930 . S
C587 C588 1.399 . S
C587 C592 1.399 . S
C588 C587 1.399 . S
C588 C589 1.376 . S
C589 H576 0.930 . S
C589 C588 1.376 . S
C589 C590 1.388 . S
C590 H577 0.930 . S
C590 C589 1.388 . S
C590 C591 1.390 . S
C591 C590 1.390 . S
C591 C592 1.394 . S
C591 C597 1.465 . S
C592 C587 1.399 . S
C592 C591 1.394 . S
C592 C593 1.516 . S
C593 C592 1.516 . S
C593 C594 1.502 . S
C593 C595 1.561 . S
C593 C596 1.526 . S
C594 H578 0.959 . S
C594 H579 0.959 . S
C594 H580 0.961 . S
C594 C593 1.502 . S
C595 H581 0.960 . S
C595 H582 0.961 . S
C595 H583 0.959 . S
C595 C593 1.561 . S
C596 C593 1.526 . S
C596 C597 1.396 . S
C596 C601 1.390 . S
C597 C591 1.465 . S
C597 C596 1.396 . S
C597 C598 1.399 . S
C598 H584 0.929 . S
C598 C597 1.399 . S
C598 C599 1.385 . S
C599 H585 0.931 . S
C599 C598 1.385 . S
C599 C600 1.389 . S
C600 C599 1.389 . S
C600 C601 1.387 . S
C601 H586 0.930 . S
C601 C596 1.390 . S
C601 C600 1.387 . S
H602 C614 0.930 . S
H603 C616 0.930 . S
H604 C617 0.930 . S
H605 C621 0.959 . S
H606 C621 0.959 . S
H607 C621 0.961 . S
H608 C622 0.960 . S
H609 C622 0.961 . S
H610 C622 0.959 . S
H611 C625 0.929 . S
H612 C626 0.931 . S
H613 C628 0.930 . S
C614 H602 0.930 . S
C614 C615 1.399 . S
C614 C619 1.399 . S
C615 C614 1.399 . S
C615 C616 1.376 . S
C616 H603 0.930 . S
C616 C615 1.376 . S
C616 C617 1.388 . S
C617 H604 0.930 . S
C617 C616 1.388 . S
C617 C618 1.390 . S
C618 C617 1.390 . S
C618 C619 1.394 . S
C618 C624 1.465 . S
C619 C614 1.399 . S
C619 C618 1.394 . S
C619 C620 1.516 . S
C620 C619 1.516 . S
C620 C621 1.502 . S
C620 C622 1.561 . S
C620 C623 1.526 . S
C621 H605 0.959 . S
C621 H606 0.959 . S
C621 H607 0.961 . S
C621 C620 1.502 . S
C622 H608 0.960 . S
C622 H609 0.961 . S
C622 H610 0.959 . S
C622 C620 1.561 . S
C623 C620 1.526 . S
C623 C624 1.396 . S
C623 C628 1.390 . S
C624 C618 1.465 . S
C624 C623 1.396 . S
C624 C625 1.399 . S
C625 H611 0.929 . S
C625 C624 1.399 . S
C625 C626 1.385 . S
C626 H612 0.931 . S
C626 C625 1.385 . S
C626 C627 1.389 . S
C627 C626 1.389 . S
C627 C628 1.387 . S
C628 H613 0.930 . S
C628 C623 1.390 . S
C628 C627 1.387 . S
H629 C641 0.930 . S
H630 C643 0.930 . S
H631 C644 0.930 . S
H632 C648 0.959 . S
H633 C648 0.959 . S
H634 C648 0.961 . S
H635 C649 0.960 . S
H636 C649 0.961 . S
H637 C649 0.959 . S
H638 C652 0.929 . S
H639 C653 0.931 . S
H640 C655 0.930 . S
C641 H629 0.930 . S
C641 C642 1.399 . S
C641 C646 1.399 . S
C642 C641 1.399 . S
C642 C643 1.376 . S
C643 H630 0.930 . S
C643 C642 1.376 . S
C643 C644 1.388 . S
C644 H631 0.930 . S
C644 C643 1.388 . S
C644 C645 1.390 . S
C645 C644 1.390 . S
C645 C646 1.394 . S
C645 C651 1.465 . S
C646 C641 1.399 . S
C646 C645 1.394 . S
C646 C647 1.516 . S
C647 C646 1.516 . S
C647 C648 1.502 . S
C647 C649 1.561 . S
C647 C650 1.526 . S
C648 H632 0.959 . S
C648 H633 0.959 . S
C648 H634 0.961 . S
C648 C647 1.502 . S
C649 H635 0.960 . S
C649 H636 0.961 . S
C649 H637 0.959 . S
C649 C647 1.561 . S
C650 C647 1.526 . S
C650 C651 1.396 . S
C650 C655 1.390 . S
C651 C645 1.465 . S
C651 C650 1.396 . S
C651 C652 1.399 . S
C652 H638 0.929 . S
C652 C651 1.399 . S
C652 C653 1.385 . S
C653 H639 0.931 . S
C653 C652 1.385 . S
C653 C654 1.389 . S
C654 C653 1.389 . S
C654 C655 1.387 . S
C655 H640 0.930 . S
C655 C650 1.390 . S
C655 C654 1.387 . S
H656 C668 0.930 . S
H657 C670 0.930 . S
H658 C671 0.930 . S
H659 C675 0.959 . S
H660 C675 0.959 . S
H661 C675 0.961 . S
H662 C676 0.960 . S
H663 C676 0.961 . S
H664 C676 0.959 . S
H665 C679 0.929 . S
H666 C680 0.931 . S
H667 C682 0.930 . S
C668 H656 0.930 . S
C668 C669 1.399 1_554 S
C668 C673 1.399 . S
C669 C668 1.399 1_556 S
C669 C670 1.376 . S
C670 H657 0.930 . S
C670 C669 1.376 . S
C670 C671 1.388 . S
C671 H658 0.930 . S
C671 C670 1.388 . S
C671 C672 1.390 . S
C672 C671 1.390 . S
C672 C673 1.394 1_556 S
C672 C678 1.465 1_565 S
C673 C668 1.399 . S
C673 C672 1.394 1_554 S
C673 C674 1.516 . S
C674 C673 1.516 . S
C674 C675 1.502 . S
C674 C676 1.561 . S
C674 C677 1.526 1_565 S
C675 H659 0.959 . S
C675 H660 0.959 . S
C675 H661 0.961 . S
C675 C674 1.502 . S
C676 H662 0.960 . S
C676 H663 0.961 . S
C676 H664 0.959 . S
C676 C674 1.561 . S
C677 C674 1.526 1_545 S
C677 C678 1.396 1_554 S
C677 C682 1.390 . S
C678 C672 1.465 1_545 S
C678 C677 1.396 1_556 S
C678 C679 1.399 . S
C679 H665 0.929 . S
C679 C678 1.399 . S
C679 C680 1.385 . S
C680 H666 0.931 . S
C680 C679 1.385 . S
C680 C681 1.389 1_556 S
C681 C680 1.389 1_554 S
C681 C682 1.387 . S
C682 H667 0.930 . S
C682 C677 1.390 . S
C682 C681 1.387 . S
H683 C695 0.930 . S
H684 C697 0.927 1_556 S
H685 C698 0.930 . S
H686 C702 0.959 . S
H687 C702 0.959 . S
H688 C702 0.961 . S
H689 C703 0.970 . S
H690 C703 0.963 . S
H691 C703 0.938 1_556 S
H692 C706 0.929 . S
H693 C707 0.931 . S
H694 C709 0.930 1_554 S
C695 H683 0.930 . S
C695 C696 1.399 . S
C695 C700 1.399 . S
C696 C695 1.399 . S
C696 C697 1.387 . S
C697 H684 0.927 1_554 S
C697 C696 1.387 . S
C697 C698 1.381 1_554 S
C698 H685 0.930 . S
C698 C697 1.381 1_556 S
C698 C699 1.390 . S
C699 C698 1.390 . S
C699 C700 1.394 1_556 S
C699 C705 1.465 . S
C700 C695 1.399 . S
C700 C699 1.394 1_554 S
C700 C701 1.516 . S
C701 C700 1.516 . S
C701 C702 1.502 . S
C701 C703 1.571 . S
C701 C704 1.526 1_554 S
C702 H686 0.959 . S
C702 H687 0.959 . S
C702 H688 0.961 . S
C702 C701 1.502 . S
C703 H689 0.970 . S
C703 H690 0.963 . S
C703 H691 0.938 1_554 S
C703 C701 1.571 . S
C704 C701 1.526 1_556 S
C704 C705 1.396 . S
C704 C709 1.390 . S
C705 C699 1.465 . S
C705 C704 1.396 . S
C705 C706 1.399 . S
C706 H692 0.929 . S
C706 C705 1.399 . S
C706 C707 1.385 . S
C707 H693 0.931 . S
C707 C706 1.385 . S
C707 C708 1.389 . S
C708 C707 1.389 . S
C708 C709 1.387 . S
C709 H694 0.930 1_556 S
C709 C704 1.390 . S
C709 C708 1.387 . S
H710 C722 0.930 . S
H711 C724 0.930 . S
H712 C725 0.930 . S
H713 C729 0.959 . S
H714 C729 0.959 . S
H715 C729 0.961 . S
H716 C730 0.960 . S
H717 C730 0.961 . S
H718 C730 0.959 . S
H719 C733 0.929 . S
H720 C734 0.931 . S
H721 C736 0.930 1_655 S
C722 H710 0.930 . S
C722 C723 1.399 . S
C722 C727 1.399 . S
C723 C722 1.399 . S
C723 C724 1.376 1_656 S
C724 H711 0.930 . S
C724 C723 1.376 1_454 S
C724 C725 1.388 . S
C725 H712 0.930 . S
C725 C724 1.388 . S
C725 C726 1.390 . S
C726 C725 1.390 . S
C726 C727 1.394 1_454 S
C726 C732 1.465 . S
C727 C722 1.399 . S
C727 C726 1.394 1_656 S
C727 C728 1.516 . S
C728 C727 1.516 . S
C728 C729 1.502 . S
C728 C730 1.561 1_655 S
C728 C731 1.522 1_655 S
C729 H713 0.959 . S
C729 H714 0.959 . S
C729 H715 0.961 . S
C729 C728 1.502 . S
C730 H716 0.960 . S
C730 H717 0.961 . S
C730 H718 0.959 . S
C730 C728 1.561 1_455 S
C731 C728 1.522 1_455 S
C731 C732 1.403 1_556 S
C731 C736 1.389 . S
C732 C726 1.465 . S
C732 C731 1.403 1_554 S
C732 C733 1.399 . S
C733 H719 0.929 . S
C733 C732 1.399 . S
C733 C734 1.385 . S
C734 H720 0.931 . S
C734 C733 1.385 . S
C734 C735 1.389 . S
C735 C734 1.389 . S
C735 C736 1.386 1_554 S
C736 H721 0.930 1_455 S
C736 C731 1.389 . S
C736 C735 1.386 1_556 S
H737 C749 0.930 . S
H738 C751 0.930 . S
H739 C752 0.930 . S
H740 C756 0.959 . S
H741 C756 0.959 1_655 S
H742 C756 0.961 . S
H743 C757 0.960 1_455 S
H744 C757 0.961 . S
H745 C757 0.959 . S
H746 C760 0.929 . S
H747 C761 0.931 . S
H748 C763 0.930 . S
C749 H737 0.930 . S
C749 C750 1.399 1_565 S
C749 C754 1.399 . S
C750 C749 1.399 1_545 S
C750 C751 1.376 . S
C751 H738 0.930 . S
C751 C750 1.376 . S
C751 C752 1.388 . S
C752 H739 0.930 . S
C752 C751 1.388 . S
C752 C753 1.390 . S
C753 C752 1.390 . S
C753 C754 1.394 1_545 S
C753 C759 1.465 1_454 S
C754 C749 1.399 . S
C754 C753 1.394 1_565 S
C754 C755 1.529 . S
C755 C754 1.529 . S
C755 C756 1.506 1_554 S
C755 C757 1.557 1_455 S
C755 C758 1.513 1_454 S
C756 H740 0.959 . S
C756 H741 0.959 1_455 S
C756 H742 0.961 . S
C756 C755 1.506 1_556 S
C757 H743 0.960 1_655 S
C757 H744 0.961 . S
C757 H745 0.959 . S
C757 C755 1.557 1_655 S
C758 C755 1.513 1_656 S
C758 C759 1.396 1_565 S
C758 C763 1.390 . S
C759 C753 1.465 1_656 S
C759 C758 1.396 1_545 S
C759 C760 1.399 . S
C760 H746 0.929 . S
C760 C759 1.399 . S
C760 C761 1.385 . S
C761 H747 0.931 . S
C761 C760 1.385 . S
C761 C762 1.389 1_545 S
C762 C761 1.389 1_565 S
C762 C763 1.387 . S
C763 H748 0.930 . S
C763 C758 1.390 . S
C763 C762 1.387 . S
H764 C776 0.930 . S
H765 C778 0.930 . S
H766 C779 0.930 . S
H767 C783 0.959 . S
H768 C783 0.959 . S
H769 C783 0.961 . S
H770 C784 0.960 . S
H771 C784 0.961 . S
H772 C784 0.959 . S
H773 C787 0.929 . S
H774 C788 0.931 . S
H775 C790 0.930 . S
C776 H764 0.930 . S
C776 C777 1.399 . S
C776 C781 1.399 . S
C777 C776 1.399 . S
C777 C778 1.376 . S
C778 H765 0.930 . S
C778 C777 1.376 . S
C778 C779 1.388 . S
C779 H766 0.930 . S
C779 C778 1.388 . S
C779 C780 1.390 . S
C780 C779 1.390 . S
C780 C781 1.394 . S
C780 C786 1.465 . S
C781 C776 1.399 . S
C781 C780 1.394 . S
C781 C782 1.516 . S
C782 C781 1.516 . S
C782 C783 1.502 . S
C782 C784 1.561 . S
C782 C785 1.526 . S
C783 H767 0.959 . S
C783 H768 0.959 . S
C783 H769 0.961 . S
C783 C782 1.502 . S
C784 H770 0.960 . S
C784 H771 0.961 . S
C784 H772 0.959 . S
C784 C782 1.561 . S
C785 C782 1.526 . S
C785 C786 1.396 . S
C785 C790 1.390 . S
C786 C780 1.465 . S
C786 C785 1.396 . S
C786 C787 1.399 . S
C787 H773 0.929 . S
C787 C786 1.399 . S
C787 C788 1.385 . S
C788 H774 0.931 . S
C788 C787 1.385 . S
C788 C789 1.389 . S
C789 C788 1.389 . S
C789 C790 1.387 . S
C790 H775 0.930 . S
C790 C785 1.390 . S
C790 C789 1.387 . S
H791 C803 0.930 . S
H792 C805 0.930 . S
H793 C806 0.930 . S
H794 C810 0.959 . S
H795 C810 0.959 . S
H796 C810 0.961 1_455 S
H797 C811 0.960 . S
H798 C811 0.961 1_655 S
H799 C811 0.959 . S
H800 C814 0.929 . S
H801 C815 0.931 . S
H802 C817 0.930 . S
C803 H791 0.930 . S
C803 C804 1.399 . S
C803 C808 1.399 . S
C804 C803 1.399 . S
C804 C805 1.376 . S
C805 H792 0.930 . S
C805 C804 1.376 . S
C805 C806 1.388 . S
C806 H793 0.930 . S
C806 C805 1.388 . S
C806 C807 1.390 . S
C807 C806 1.390 . S
C807 C808 1.394 . S
C807 C813 1.465 1_455 S
C808 C803 1.399 . S
C808 C807 1.394 . S
C808 C809 1.498 1_455 S
C809 C808 1.498 1_655 S
C809 C810 1.508 . S
C809 C811 1.555 1_655 S
C809 C812 1.543 . S
C810 H794 0.959 . S
C810 H795 0.959 . S
C810 H796 0.961 1_655 S
C810 C809 1.508 . S
C811 H797 0.960 . S
C811 H798 0.961 1_455 S
C811 H799 0.959 . S
C811 C809 1.555 1_455 S
C812 C809 1.543 . S
C812 C813 1.396 . S
C812 C817 1.390 . S
C813 C807 1.465 1_655 S
C813 C812 1.396 . S
C813 C814 1.399 . S
C814 H800 0.929 . S
C814 C813 1.399 . S
C814 C815 1.385 . S
C815 H801 0.931 . S
C815 C814 1.385 . S
C815 C816 1.389 . S
C816 C815 1.389 . S
C816 C817 1.387 . S
C817 H802 0.930 . S
C817 C812 1.390 . S
C817 C816 1.387 . S
H818 C830 0.930 . S
H819 C832 0.930 . S
H820 C833 0.930 . S
H821 C837 0.959 . S
H822 C837 0.959 . S
H823 C837 0.961 . S
H824 C838 0.960 . S
H825 C838 0.961 . S
H826 C838 0.959 . S
H827 C841 0.929 . S
H828 C842 0.931 . S
H829 C844 0.930 . S
C830 H818 0.930 . S
C830 C831 1.399 1_455 S
C830 C835 1.399 . S
C831 C830 1.399 1_655 S
C831 C832 1.376 . S
C832 H819 0.930 . S
C832 C831 1.376 . S
C832 C833 1.388 . S
C833 H820 0.930 . S
C833 C832 1.388 . S
C833 C834 1.390 . S
C834 C833 1.390 . S
C834 C835 1.394 1_655 S
C834 C840 1.465 1_565 S
C835 C830 1.399 . S
C835 C834 1.394 1_455 S
C835 C836 1.516 . S
C836 C835 1.516 . S
C836 C837 1.502 . S
C836 C838 1.561 1_455 S
C836 C839 1.526 1_565 S
C837 H821 0.959 . S
C837 H822 0.959 . S
C837 H823 0.961 . S
C837 C836 1.502 . S
C838 H824 0.960 . S
C838 H825 0.961 . S
C838 H826 0.959 . S
C838 C836 1.561 1_655 S
C839 C836 1.526 1_545 S
C839 C840 1.396 1_455 S
C839 C844 1.390 . S
C840 C834 1.465 1_545 S
C840 C839 1.396 1_655 S
C840 C841 1.399 . S
C841 H827 0.929 . S
C841 C840 1.399 . S
C841 C842 1.385 . S
C842 H828 0.931 . S
C842 C841 1.385 . S
C842 C843 1.389 1_655 S
C843 C842 1.389 1_455 S
C843 C844 1.387 . S
C844 H829 0.930 . S
C844 C839 1.390 . S
C844 C843 1.387 . S
H845 C857 0.930 . S
H846 C859 0.930 . S
H847 C860 0.930 . S
H848 C864 0.959 . S
H849 C864 0.959 . S
H850 C864 0.961 . S
H851 C865 0.960 . S
H852 C865 0.961 . S
H853 C865 0.959 . S
H854 C868 0.929 . S
H855 C869 0.931 . S
H856 C871 0.930 . S
C857 H845 0.930 . S
C857 C858 1.399 1_545 S
C857 C862 1.399 . S
C858 C857 1.399 1_565 S
C858 C859 1.376 . S
C859 H846 0.930 . S
C859 C858 1.376 . S
C859 C860 1.388 . S
C860 H847 0.930 . S
C860 C859 1.388 . S
C860 C861 1.390 . S
C861 C860 1.390 . S
C861 C862 1.394 1_565 S
C861 C867 1.465 . S
C862 C857 1.399 . S
C862 C861 1.394 1_545 S
C862 C863 1.516 . S
C863 C862 1.516 . S
C863 C864 1.502 . S
C863 C865 1.561 . S
C863 C866 1.526 . S
C864 H848 0.959 . S
C864 H849 0.959 . S
C864 H850 0.961 . S
C864 C863 1.502 . S
C865 H851 0.960 . S
C865 H852 0.961 . S
C865 H853 0.959 . S
C865 C863 1.561 . S
C866 C863 1.526 . S
C866 C867 1.396 1_545 S
C866 C871 1.390 . S
C867 C861 1.465 . S
C867 C866 1.396 1_565 S
C867 C868 1.399 . S
C868 H854 0.929 . S
C868 C867 1.399 . S
C868 C869 1.385 . S
C869 H855 0.931 . S
C869 C868 1.385 . S
C869 C870 1.389 1_565 S
C870 C869 1.389 1_545 S
C870 C871 1.387 . S
C871 H856 0.930 . S
C871 C866 1.390 . S
C871 C870 1.387 . S
H872 C884 0.930 . S
H873 C886 0.930 . S
H874 C887 0.930 . S
H875 C891 0.959 . S
H876 C891 0.959 . S
H877 C891 0.961 . S
H878 C892 0.960 . S
H879 C892 0.961 . S
H880 C892 0.959 . S
H881 C895 0.929 . S
H882 C896 0.931 . S
H883 C898 0.930 . S
C884 H872 0.930 . S
C884 C885 1.399 . S
C884 C889 1.399 . S
C885 C884 1.399 . S
C885 C886 1.376 . S
C886 H873 0.930 . S
C886 C885 1.376 . S
C886 C887 1.388 . S
C887 H874 0.930 . S
C887 C886 1.388 . S
C887 C888 1.390 . S
C888 C887 1.390 . S
C888 C889 1.394 . S
C888 C894 1.465 . S
C889 C884 1.399 . S
C889 C888 1.394 . S
C889 C890 1.516 . S
C890 C889 1.516 . S
C890 C891 1.502 . S
C890 C892 1.561 . S
C890 C893 1.526 . S
C891 H875 0.959 . S
C891 H876 0.959 . S
C891 H877 0.961 . S
C891 C890 1.502 . S
C892 H878 0.960 . S
C892 H879 0.961 . S
C892 H880 0.959 . S
C892 C890 1.561 . S
C893 C890 1.526 . S
C893 C894 1.396 . S
C893 C898 1.390 . S
C894 C888 1.465 . S
C894 C893 1.396 . S
C894 C895 1.399 . S
C895 H881 0.929 . S
C895 C894 1.399 . S
C895 C896 1.385 . S
C896 H882 0.931 . S
C896 C895 1.385 . S
C896 C897 1.389 . S
C897 C896 1.389 . S
C897 C898 1.387 . S
C898 H883 0.930 . S
C898 C893 1.390 . S
C898 C897 1.387 . S
H899 C911 0.930 . S
H900 C913 0.930 . S
H901 C914 0.930 . S
H902 C918 0.959 . S
H903 C918 0.959 . S
H904 C918 0.961 . S
H905 C919 0.960 . S
H906 C919 0.961 . S
H907 C919 0.959 . S
H908 C922 0.929 . S
H909 C923 0.931 . S
H910 C925 0.930 . S
C911 H899 0.930 . S
C911 C912 1.399 . S
C911 C916 1.399 . S
C912 C911 1.399 . S
C912 C913 1.376 . S
C913 H900 0.930 . S
C913 C912 1.376 . S
C913 C914 1.388 . S
C914 H901 0.930 . S
C914 C913 1.388 . S
C914 C915 1.390 . S
C915 C914 1.390 . S
C915 C916 1.394 . S
C915 C921 1.465 . S
C916 C911 1.399 . S
C916 C915 1.394 . S
C916 C917 1.516 . S
C917 C916 1.516 . S
C917 C918 1.502 . S
C917 C919 1.561 . S
C917 C920 1.526 . S
C918 H902 0.959 . S
C918 H903 0.959 . S
C918 H904 0.961 . S
C918 C917 1.502 . S
C919 H905 0.960 . S
C919 H906 0.961 . S
C919 H907 0.959 . S
C919 C917 1.561 . S
C920 C917 1.526 . S
C920 C921 1.396 . S
C920 C925 1.390 . S
C921 C915 1.465 . S
C921 C920 1.396 . S
C921 C922 1.399 . S
C922 H908 0.929 . S
C922 C921 1.399 . S
C922 C923 1.385 . S
C923 H909 0.931 . S
C923 C922 1.385 . S
C923 C924 1.389 . S
C924 C923 1.389 . S
C924 C925 1.387 . S
C925 H910 0.930 . S
C925 C920 1.390 . S
C925 C924 1.387 . S
H926 C938 0.930 . S
H927 C940 0.930 . S
H928 C941 0.930 1_455 S
H929 C945 0.959 . S
H930 C945 0.959 . S
H931 C945 0.961 . S
H932 C946 0.960 . S
H933 C946 0.961 . S
H934 C946 0.959 1_455 S
H935 C949 0.929 1_455 S
H936 C950 0.931 . S
H937 C952 0.930 . S
C938 H926 0.930 . S
C938 C939 1.399 . S
C938 C943 1.399 . S
C939 C938 1.399 . S
C939 C940 1.376 . S
C940 H927 0.930 . S
C940 C939 1.376 . S
C940 C941 1.388 . S
C941 H928 0.930 1_655 S
C941 C940 1.388 . S
C941 C942 1.390 . S
C942 C941 1.390 . S
C942 C943 1.394 . S
C942 C948 1.465 . S
C943 C938 1.399 . S
C943 C942 1.394 . S
C943 C944 1.516 . S
C944 C943 1.516 . S
C944 C945 1.502 . S
C944 C946 1.561 . S
C944 C947 1.526 . S
C945 H929 0.959 . S
C945 H930 0.959 . S
C945 H931 0.961 . S
C945 C944 1.502 . S
C946 H932 0.960 . S
C946 H933 0.961 . S
C946 H934 0.959 1_655 S
C946 C944 1.561 . S
C947 C944 1.526 . S
C947 C948 1.396 . S
C947 C952 1.390 . S
C948 C942 1.465 . S
C948 C947 1.396 . S
C948 C949 1.399 . S
C949 H935 0.929 1_655 S
C949 C948 1.399 . S
C949 C950 1.385 . S
C950 H936 0.931 . S
C950 C949 1.385 . S
C950 C951 1.389 . S
C951 C950 1.389 . S
C951 C952 1.387 . S
C952 H937 0.930 . S
C952 C947 1.390 . S
C952 C951 1.387 . S
H953 C965 0.930 . S
H954 C967 0.930 . S
H955 C968 0.930 . S
H956 C972 0.959 . S
H957 C972 0.959 . S
H958 C972 0.961 . S
H959 C973 0.960 . S
H960 C973 0.961 . S
H961 C973 0.959 . S
H962 C976 0.929 . S
H963 C977 0.931 . S
H964 C979 0.930 . S
C965 H953 0.930 . S
C965 C966 1.399 . S
C965 C970 1.399 . S
C966 C965 1.399 . S
C966 C967 1.376 1_565 S
C967 H954 0.930 . S
C967 C966 1.376 1_545 S
C967 C968 1.388 . S
C968 H955 0.930 . S
C968 C967 1.388 . S
C968 C969 1.390 1_545 S
C969 C968 1.390 1_565 S
C969 C970 1.394 . S
C969 C975 1.465 . S
C970 C965 1.399 . S
C970 C969 1.394 . S
C970 C971 1.516 . S
C971 C970 1.516 . S
C971 C972 1.502 . S
C971 C973 1.561 . S
C971 C974 1.526 . S
C972 H956 0.959 . S
C972 H957 0.959 . S
C972 H958 0.961 . S
C972 C971 1.502 . S
C973 H959 0.960 . S
C973 H960 0.961 . S
C973 H961 0.959 . S
C973 C971 1.561 . S
C974 C971 1.526 . S
C974 C975 1.396 . S
C974 C979 1.390 . S
C975 C969 1.465 . S
C975 C974 1.396 . S
C975 C976 1.399 1_565 S
C976 H962 0.929 . S
C976 C975 1.399 1_545 S
C976 C977 1.385 . S
C977 H963 0.931 . S
C977 C976 1.385 . S
C977 C978 1.389 1_545 S
C978 C977 1.389 1_565 S
C978 C979 1.387 . S
C979 H964 0.930 . S
C979 C974 1.390 . S
C979 C978 1.387 . S
H980 C992 0.930 . S
H981 C994 0.930 . S
H982 C995 0.930 . S
H983 C999 0.959 . S
H984 C999 0.959 . S
H985 C999 0.961 . S
H986 C1000 0.960 . S
H987 C1000 0.961 . S
H988 C1000 0.959 . S
H989 C1003 0.929 . S
H990 C1004 0.931 . S
H991 C1006 0.930 . S
C992 H980 0.930 . S
C992 C993 1.399 . S
C992 C997 1.399 . S
C993 C992 1.399 . S
C993 C994 1.376 . S
C994 H981 0.930 . S
C994 C993 1.376 . S
C994 C995 1.388 . S
C995 H982 0.930 . S
C995 C994 1.388 . S
C995 C996 1.390 . S
C996 C995 1.390 . S
C996 C997 1.394 . S
C996 C1002 1.465 . S
C997 C992 1.399 . S
C997 C996 1.394 . S
C997 C998 1.516 . S
C998 C997 1.516 . S
C998 C999 1.502 . S
C998 C1000 1.561 . S
C998 C1001 1.526 . S
C999 H983 0.959 . S
C999 H984 0.959 . S
C999 H985 0.961 . S
C999 C998 1.502 . S
C1000 H986 0.960 . S
C1000 H987 0.961 . S
C1000 H988 0.959 . S
C1000 C998 1.561 . S
C1001 C998 1.526 . S
C1001 C1002 1.396 . S
C1001 C1006 1.390 . S
C1002 C996 1.465 . S
C1002 C1001 1.396 . S
C1002 C1003 1.399 . S
C1003 H989 0.929 . S
C1003 C1002 1.399 . S
C1003 C1004 1.385 . S
C1004 H990 0.931 . S
C1004 C1003 1.385 . S
C1004 C1005 1.389 . S
C1005 C1004 1.389 . S
C1005 C1006 1.387 . S
C1006 H991 0.930 . S
C1006 C1001 1.390 . S
C1006 C1005 1.387 . S
H1007 C1019 0.930 . S
H1008 C1021 0.930 . S
H1009 C1022 0.930 . S
H1010 C1026 0.959 . S
H1011 C1026 0.959 . S
H1012 C1026 0.961 . S
H1013 C1027 0.960 . S
H1014 C1027 0.961 . S
H1015 C1027 0.959 . S
H1016 C1030 0.929 . S
H1017 C1031 0.931 . S
H1018 C1033 0.930 . S
C1019 H1007 0.930 . S
C1019 C1020 1.399 . S
C1019 C1024 1.399 . S
C1020 C1019 1.399 . S
C1020 C1021 1.376 . S
C1021 H1008 0.930 . S
C1021 C1020 1.376 . S
C1021 C1022 1.388 . S
C1022 H1009 0.930 . S
C1022 C1021 1.388 . S
C1022 C1023 1.390 . S
C1023 C1022 1.390 . S
C1023 C1024 1.394 . S
C1023 C1029 1.465 . S
C1024 C1019 1.399 . S
C1024 C1023 1.394 . S
C1024 C1025 1.516 . S
C1025 C1024 1.516 . S
C1025 C1026 1.502 . S
C1025 C1027 1.561 . S
C1025 C1028 1.526 . S
C1026 H1010 0.959 . S
C1026 H1011 0.959 . S
C1026 H1012 0.961 . S
C1026 C1025 1.502 . S
C1027 H1013 0.960 . S
C1027 H1014 0.961 . S
C1027 H1015 0.959 . S
C1027 C1025 1.561 . S
C1028 C1025 1.526 . S
C1028 C1029 1.396 . S
C1028 C1033 1.390 . S
C1029 C1023 1.465 . S
C1029 C1028 1.396 . S
C1029 C1030 1.399 . S
C1030 H1016 0.929 . S
C1030 C1029 1.399 . S
C1030 C1031 1.385 . S
C1031 H1017 0.931 . S
C1031 C1030 1.385 . S
C1031 C1032 1.389 . S
C1032 C1031 1.389 . S
C1032 C1033 1.387 . S
C1033 H1018 0.930 . S
C1033 C1028 1.390 . S
C1033 C1032 1.387 . S
H1034 C1046 0.930 . S
H1035 C1048 0.930 . S
H1036 C1049 0.930 . S
H1037 C1053 0.959 . S
H1038 C1053 0.959 . S
H1039 C1053 0.961 . S
H1040 C1054 0.960 . S
H1041 C1054 0.961 . S
H1042 C1054 0.959 . S
H1043 C1057 0.929 . S
H1044 C1058 0.931 . S
H1045 C1060 0.930 . S
C1046 H1034 0.930 . S
C1046 C1047 1.399 . S
C1046 C1051 1.399 . S
C1047 C1046 1.399 . S
C1047 C1048 1.376 . S
C1048 H1035 0.930 . S
C1048 C1047 1.376 . S
C1048 C1049 1.388 . S
C1049 H1036 0.930 . S
C1049 C1048 1.388 . S
C1049 C1050 1.390 . S
C1050 C1049 1.390 . S
C1050 C1051 1.394 . S
C1050 C1056 1.465 . S
C1051 C1046 1.399 . S
C1051 C1050 1.394 . S
C1051 C1052 1.516 . S
C1052 C1051 1.516 . S
C1052 C1053 1.502 1_455 S
C1052 C1054 1.561 . S
C1052 C1055 1.526 . S
C1053 H1037 0.959 . S
C1053 H1038 0.959 . S
C1053 H1039 0.961 . S
C1053 C1052 1.502 1_655 S
C1054 H1040 0.960 . S
C1054 H1041 0.961 . S
C1054 H1042 0.959 . S
C1054 C1052 1.561 . S
C1055 C1052 1.526 . S
C1055 C1056 1.396 . S
C1055 C1060 1.390 . S
C1056 C1050 1.465 . S
C1056 C1055 1.396 . S
C1056 C1057 1.399 . S
C1057 H1043 0.929 . S
C1057 C1056 1.399 . S
C1057 C1058 1.385 . S
C1058 H1044 0.931 . S
C1058 C1057 1.385 . S
C1058 C1059 1.389 . S
C1059 C1058 1.389 . S
C1059 C1060 1.387 . S
C1060 H1045 0.930 . S
C1060 C1055 1.390 . S
C1060 C1059 1.387 . S
H1061 C1073 0.930 . S
H1062 C1075 0.930 1_565 S
H1063 C1076 0.932 . S
H1064 C1080 0.959 . S
H1065 C1080 0.959 . S
H1066 C1080 0.961 . S
H1067 C1081 0.960 . S
H1068 C1081 0.961 . S
H1069 C1081 0.959 . S
H1070 C1084 0.929 . S
H1071 C1085 0.931 1_565 S
H1072 C1087 0.930 . S
C1073 H1061 0.930 . S
C1073 C1074 1.399 . S
C1073 C1078 1.399 . S
C1074 C1073 1.399 . S
C1074 C1075 1.376 . S
C1075 H1062 0.930 1_545 S
C1075 C1074 1.376 . S
C1075 C1076 1.388 1_545 S
C1076 H1063 0.932 . S
C1076 C1075 1.388 1_565 S
C1076 C1077 1.388 1_565 S
C1077 C1076 1.388 1_545 S
C1077 C1078 1.394 . S
C1077 C1083 1.465 . S
C1078 C1073 1.399 . S
C1078 C1077 1.394 . S
C1078 C1079 1.516 . S
C1079 C1078 1.516 . S
C1079 C1080 1.502 . S
C1079 C1081 1.561 . S
C1079 C1082 1.526 . S
C1080 H1064 0.959 . S
C1080 H1065 0.959 . S
C1080 H1066 0.961 . S
C1080 C1079 1.502 . S
C1081 H1067 0.960 . S
C1081 H1068 0.961 . S
C1081 H1069 0.959 . S
C1081 C1079 1.561 . S
C1082 C1079 1.526 . S
C1082 C1083 1.396 . S
C1082 C1087 1.390 . S
C1083 C1077 1.465 . S
C1083 C1082 1.396 . S
C1083 C1084 1.399 1_545 S
C1084 H1070 0.929 . S
C1084 C1083 1.399 1_565 S
C1084 C1085 1.385 1_565 S
C1085 H1071 0.931 1_545 S
C1085 C1084 1.385 1_545 S
C1085 C1086 1.389 . S
C1086 C1085 1.389 . S
C1086 C1087 1.387 . S
C1087 H1072 0.930 . S
C1087 C1082 1.390 . S
C1087 C1086 1.387 . S
C237 C9 0.836 . S
C249 C133 0.811 . S
C264 C147 0.875 . S
C276 C23 0.773 . S
C291 C161 0.853 . S
C303 C37 0.916 . S
C318 C119 0.859 . S
C330 C51 0.754 . S
C345 C65 0.839 . S
C357 C217 0.898 . S
C372 C175 0.832 . S
C384 C79 0.748 . S
C399 C189 0.817 . S
C411 C93 0.765 . S
C426 C203 0.846 . S
C438 C107 0.747 . S
C453 C121 0.901 . S
C465 C21 0.815 . S
C480 C135 0.902 . S
C492 C35 0.875 . S
C507 C149 0.797 . S
C519 C49 0.899 . S
C534 C7 0.900 . S
C546 C163 0.830 . S
C561 C177 0.923 . S
C573 C105 0.840 . S
C588 C191 0.922 . S
C600 C63 0.835 . S
C615 C77 0.813 . S
C627 C205 0.826 . S
C642 C219 0.757 . S
C654 C91 0.846 . S
C669 C120 1.788 . S
C681 C8 1.747 . S
C696 C22 1.740 . S
C708 C134 1.794 . S
C723 C148 1.736 1_655 S
C735 C36 1.781 1_455 S
C750 C50 1.799 1_545 S
C762 C162 1.726 1_565 S
C777 C176 1.760 . S
C789 C64 1.777 . S
C804 C78 1.727 . S
C816 C190 1.800 . S
C831 C204 1.793 1_655 S
C843 C92 1.742 1_455 S
C858 C218 1.785 1_565 S
C870 C106 1.733 1_545 S
C885 C59 1.707 . S
C897 C3 1.673 . S
C912 C73 1.692 . S
C924 C17 1.671 . S
C939 C31 1.706 . S
C951 C87 1.677 . S
C966 C101 1.692 . S
C978 C45 1.696 . S
C993 C115 1.682 . S
C1005 C171 1.707 . S
C1020 C185 1.666 . S
C1032 C129 1.689 . S
C1047 C199 1.691 . S
C1059 C143 1.667 . S
C1074 C213 1.707 . S
C1086 C157 1.679 . S
