# Generated by pormake.
# Topology wip, (6)-cn, num edge types: 1
# Building blocks:
#     Node 0, Type 0, BuildingBlock: BETDIP_clean_sbu_0, # of connection points: 6
#     Node 1, Type 0, BuildingBlock: BETDIP_clean_sbu_0, # of connection points: 6
#     Node 2, Type 0, BuildingBlock: BETDIP_clean_sbu_0, # of connection points: 6
#     Node 3, Type 0, BuildingBlock: BETDIP_clean_sbu_0, # of connection points: 6
#     Node 4, Type 0, BuildingBlock: BETDIP_clean_sbu_0, # of connection points: 6
#     Node 5, Type 0, BuildingBlock: BETDIP_clean_sbu_0, # of connection points: 6
#     Node 6, Type 0, BuildingBlock: BETDIP_clean_sbu_0, # of connection points: 6
#     Node 7, Type 0, BuildingBlock: BETDIP_clean_sbu_0, # of connection points: 6
#     Node 8, Type 0, BuildingBlock: BETDIP_clean_sbu_0, # of connection points: 6
#     Node 9, Type 0, BuildingBlock: BETDIP_clean_sbu_0, # of connection points: 6
#     Node 10, Type 0, BuildingBlock: BETDIP_clean_sbu_0, # of connection points: 6
#     Node 11, Type 0, BuildingBlock: BETDIP_clean_sbu_0, # of connection points: 6
#     Node 12, Type 0, BuildingBlock: BETDIP_clean_sbu_0, # of connection points: 6
#     Node 13, Type 0, BuildingBlock: BETDIP_clean_sbu_0, # of connection points: 6
#     Node 14, Type 0, BuildingBlock: BETDIP_clean_sbu_0, # of connection points: 6
#     Node 15, Type 0, BuildingBlock: BETDIP_clean_sbu_0, # of connection points: 6
#     Node 16, Type 0, BuildingBlock: BETDIP_clean_sbu_0, # of connection points: 6
#     Node 17, Type 0, BuildingBlock: BETDIP_clean_sbu_0, # of connection points: 6
#     Node 18, Type 0, BuildingBlock: BETDIP_clean_sbu_0, # of connection points: 6
#     Node 19, Type 0, BuildingBlock: BETDIP_clean_sbu_0, # of connection points: 6
#     Node 20, Type 0, BuildingBlock: BETDIP_clean_sbu_0, # of connection points: 6
#     Node 21, Type 0, BuildingBlock: BETDIP_clean_sbu_0, # of connection points: 6
#     Node 22, Type 0, BuildingBlock: BETDIP_clean_sbu_0, # of connection points: 6
#     Node 23, Type 0, BuildingBlock: BETDIP_clean_sbu_0, # of connection points: 6
#     Node 24, Type 0, BuildingBlock: BETDIP_clean_sbu_0, # of connection points: 6
#     Node 25, Type 0, BuildingBlock: BETDIP_clean_sbu_0, # of connection points: 6
#     Node 26, Type 0, BuildingBlock: BETDIP_clean_sbu_0, # of connection points: 6
#     Node 27, Type 0, BuildingBlock: BETDIP_clean_sbu_0, # of connection points: 6
#     Node 28, Type 0, BuildingBlock: BETDIP_clean_sbu_0, # of connection points: 6
#     Node 29, Type 0, BuildingBlock: BETDIP_clean_sbu_0, # of connection points: 6
#     Node 30, Type 0, BuildingBlock: BETDIP_clean_sbu_0, # of connection points: 6
#     Node 31, Type 0, BuildingBlock: BETDIP_clean_sbu_0, # of connection points: 6
#     Edge 32, Type (0, 0), BuildingBlock: EZIPEK_clean_linker_0, # of connection points: 2
#     Edge 33, Type (0, 0), BuildingBlock: EZIPEK_clean_linker_0, # of connection points: 2
#     Edge 34, Type (0, 0), BuildingBlock: EZIPEK_clean_linker_0, # of connection points: 2
#     Edge 35, Type (0, 0), BuildingBlock: EZIPEK_clean_linker_0, # of connection points: 2
#     Edge 36, Type (0, 0), BuildingBlock: EZIPEK_clean_linker_0, # of connection points: 2
#     Edge 37, Type (0, 0), BuildingBlock: EZIPEK_clean_linker_0, # of connection points: 2
#     Edge 38, Type (0, 0), BuildingBlock: EZIPEK_clean_linker_0, # of connection points: 2
#     Edge 39, Type (0, 0), BuildingBlock: EZIPEK_clean_linker_0, # of connection points: 2
#     Edge 40, Type (0, 0), BuildingBlock: EZIPEK_clean_linker_0, # of connection points: 2
#     Edge 41, Type (0, 0), BuildingBlock: EZIPEK_clean_linker_0, # of connection points: 2
#     Edge 42, Type (0, 0), BuildingBlock: EZIPEK_clean_linker_0, # of connection points: 2
#     Edge 43, Type (0, 0), BuildingBlock: EZIPEK_clean_linker_0, # of connection points: 2
#     Edge 44, Type (0, 0), BuildingBlock: EZIPEK_clean_linker_0, # of connection points: 2
#     Edge 45, Type (0, 0), BuildingBlock: EZIPEK_clean_linker_0, # of connection points: 2
#     Edge 46, Type (0, 0), BuildingBlock: EZIPEK_clean_linker_0, # of connection points: 2
#     Edge 47, Type (0, 0), BuildingBlock: EZIPEK_clean_linker_0, # of connection points: 2
#     Edge 48, Type (0, 0), BuildingBlock: EZIPEK_clean_linker_0, # of connection points: 2
#     Edge 49, Type (0, 0), BuildingBlock: EZIPEK_clean_linker_0, # of connection points: 2
#     Edge 50, Type (0, 0), BuildingBlock: EZIPEK_clean_linker_0, # of connection points: 2
#     Edge 51, Type (0, 0), BuildingBlock: EZIPEK_clean_linker_0, # of connection points: 2
#     Edge 52, Type (0, 0), BuildingBlock: EZIPEK_clean_linker_0, # of connection points: 2
#     Edge 53, Type (0, 0), BuildingBlock: EZIPEK_clean_linker_0, # of connection points: 2
#     Edge 54, Type (0, 0), BuildingBlock: EZIPEK_clean_linker_0, # of connection points: 2
#     Edge 55, Type (0, 0), BuildingBlock: EZIPEK_clean_linker_0, # of connection points: 2
#     Edge 56, Type (0, 0), BuildingBlock: EZIPEK_clean_linker_0, # of connection points: 2
#     Edge 57, Type (0, 0), BuildingBlock: EZIPEK_clean_linker_0, # of connection points: 2
#     Edge 58, Type (0, 0), BuildingBlock: EZIPEK_clean_linker_0, # of connection points: 2
#     Edge 59, Type (0, 0), BuildingBlock: EZIPEK_clean_linker_0, # of connection points: 2
#     Edge 60, Type (0, 0), BuildingBlock: EZIPEK_clean_linker_0, # of connection points: 2
#     Edge 61, Type (0, 0), BuildingBlock: EZIPEK_clean_linker_0, # of connection points: 2
#     Edge 62, Type (0, 0), BuildingBlock: EZIPEK_clean_linker_0, # of connection points: 2
#     Edge 63, Type (0, 0), BuildingBlock: EZIPEK_clean_linker_0, # of connection points: 2
#     Edge 64, Type (0, 0), BuildingBlock: EZIPEK_clean_linker_0, # of connection points: 2
#     Edge 65, Type (0, 0), BuildingBlock: EZIPEK_clean_linker_0, # of connection points: 2
#     Edge 66, Type (0, 0), BuildingBlock: EZIPEK_clean_linker_0, # of connection points: 2
#     Edge 67, Type (0, 0), BuildingBlock: EZIPEK_clean_linker_0, # of connection points: 2
#     Edge 68, Type (0, 0), BuildingBlock: EZIPEK_clean_linker_0, # of connection points: 2
#     Edge 69, Type (0, 0), BuildingBlock: EZIPEK_clean_linker_0, # of connection points: 2
#     Edge 70, Type (0, 0), BuildingBlock: EZIPEK_clean_linker_0, # of connection points: 2
#     Edge 71, Type (0, 0), BuildingBlock: EZIPEK_clean_linker_0, # of connection points: 2
#     Edge 72, Type (0, 0), BuildingBlock: EZIPEK_clean_linker_0, # of connection points: 2
#     Edge 73, Type (0, 0), BuildingBlock: EZIPEK_clean_linker_0, # of connection points: 2
#     Edge 74, Type (0, 0), BuildingBlock: EZIPEK_clean_linker_0, # of connection points: 2
#     Edge 75, Type (0, 0), BuildingBlock: EZIPEK_clean_linker_0, # of connection points: 2
#     Edge 76, Type (0, 0), BuildingBlock: EZIPEK_clean_linker_0, # of connection points: 2
#     Edge 77, Type (0, 0), BuildingBlock: EZIPEK_clean_linker_0, # of connection points: 2
#     Edge 78, Type (0, 0), BuildingBlock: EZIPEK_clean_linker_0, # of connection points: 2
#     Edge 79, Type (0, 0), BuildingBlock: EZIPEK_clean_linker_0, # of connection points: 2
#     Edge 80, Type (0, 0), BuildingBlock: EZIPEK_clean_linker_0, # of connection points: 2
#     Edge 81, Type (0, 0), BuildingBlock: EZIPEK_clean_linker_0, # of connection points: 2
#     Edge 82, Type (0, 0), BuildingBlock: EZIPEK_clean_linker_0, # of connection points: 2
#     Edge 83, Type (0, 0), BuildingBlock: EZIPEK_clean_linker_0, # of connection points: 2
#     Edge 84, Type (0, 0), BuildingBlock: EZIPEK_clean_linker_0, # of connection points: 2
#     Edge 85, Type (0, 0), BuildingBlock: EZIPEK_clean_linker_0, # of connection points: 2
#     Edge 86, Type (0, 0), BuildingBlock: EZIPEK_clean_linker_0, # of connection points: 2
#     Edge 87, Type (0, 0), BuildingBlock: EZIPEK_clean_linker_0, # of connection points: 2
#     Edge 88, Type (0, 0), BuildingBlock: EZIPEK_clean_linker_0, # of connection points: 2
#     Edge 89, Type (0, 0), BuildingBlock: EZIPEK_clean_linker_0, # of connection points: 2
#     Edge 90, Type (0, 0), BuildingBlock: EZIPEK_clean_linker_0, # of connection points: 2
#     Edge 91, Type (0, 0), BuildingBlock: EZIPEK_clean_linker_0, # of connection points: 2
#     Edge 92, Type (0, 0), BuildingBlock: EZIPEK_clean_linker_0, # of connection points: 2
#     Edge 93, Type (0, 0), BuildingBlock: EZIPEK_clean_linker_0, # of connection points: 2
#     Edge 94, Type (0, 0), BuildingBlock: EZIPEK_clean_linker_0, # of connection points: 2
#     Edge 95, Type (0, 0), BuildingBlock: EZIPEK_clean_linker_0, # of connection points: 2
#     Edge 96, Type (0, 0), BuildingBlock: EZIPEK_clean_linker_0, # of connection points: 2
#     Edge 97, Type (0, 0), BuildingBlock: EZIPEK_clean_linker_0, # of connection points: 2
#     Edge 98, Type (0, 0), BuildingBlock: EZIPEK_clean_linker_0, # of connection points: 2
#     Edge 99, Type (0, 0), BuildingBlock: EZIPEK_clean_linker_0, # of connection points: 2
#     Edge 100, Type (0, 0), BuildingBlock: EZIPEK_clean_linker_0, # of connection points: 2
#     Edge 101, Type (0, 0), BuildingBlock: EZIPEK_clean_linker_0, # of connection points: 2
#     Edge 102, Type (0, 0), BuildingBlock: EZIPEK_clean_linker_0, # of connection points: 2
#     Edge 103, Type (0, 0), BuildingBlock: EZIPEK_clean_linker_0, # of connection points: 2
#     Edge 104, Type (0, 0), BuildingBlock: EZIPEK_clean_linker_0, # of connection points: 2
#     Edge 105, Type (0, 0), BuildingBlock: EZIPEK_clean_linker_0, # of connection points: 2
#     Edge 106, Type (0, 0), BuildingBlock: EZIPEK_clean_linker_0, # of connection points: 2
#     Edge 107, Type (0, 0), BuildingBlock: EZIPEK_clean_linker_0, # of connection points: 2
#     Edge 108, Type (0, 0), BuildingBlock: EZIPEK_clean_linker_0, # of connection points: 2
#     Edge 109, Type (0, 0), BuildingBlock: EZIPEK_clean_linker_0, # of connection points: 2
#     Edge 110, Type (0, 0), BuildingBlock: EZIPEK_clean_linker_0, # of connection points: 2
#     Edge 111, Type (0, 0), BuildingBlock: EZIPEK_clean_linker_0, # of connection points: 2
#     Edge 112, Type (0, 0), BuildingBlock: EZIPEK_clean_linker_0, # of connection points: 2
#     Edge 113, Type (0, 0), BuildingBlock: EZIPEK_clean_linker_0, # of connection points: 2
#     Edge 114, Type (0, 0), BuildingBlock: EZIPEK_clean_linker_0, # of connection points: 2
#     Edge 115, Type (0, 0), BuildingBlock: EZIPEK_clean_linker_0, # of connection points: 2
#     Edge 116, Type (0, 0), BuildingBlock: EZIPEK_clean_linker_0, # of connection points: 2
#     Edge 117, Type (0, 0), BuildingBlock: EZIPEK_clean_linker_0, # of connection points: 2
#     Edge 118, Type (0, 0), BuildingBlock: EZIPEK_clean_linker_0, # of connection points: 2
#     Edge 119, Type (0, 0), BuildingBlock: EZIPEK_clean_linker_0, # of connection points: 2
#     Edge 120, Type (0, 0), BuildingBlock: EZIPEK_clean_linker_0, # of connection points: 2
#     Edge 121, Type (0, 0), BuildingBlock: EZIPEK_clean_linker_0, # of connection points: 2
#     Edge 122, Type (0, 0), BuildingBlock: EZIPEK_clean_linker_0, # of connection points: 2
#     Edge 123, Type (0, 0), BuildingBlock: EZIPEK_clean_linker_0, # of connection points: 2
#     Edge 124, Type (0, 0), BuildingBlock: EZIPEK_clean_linker_0, # of connection points: 2
#     Edge 125, Type (0, 0), BuildingBlock: EZIPEK_clean_linker_0, # of connection points: 2
#     Edge 126, Type (0, 0), BuildingBlock: EZIPEK_clean_linker_0, # of connection points: 2
#     Edge 127, Type (0, 0), BuildingBlock: EZIPEK_clean_linker_0, # of connection points: 2
# Relax obj value: 0.615
# Max RMSD: 0.230
# Mean RMSD: 0.230
data_MOF--net-wip--node1-BETDIP_clean_sbu_0--edge1-EZIPEK_clean_linker_0
_symmetry_space_group_name_H-M    P1
_symmetry_Int_Tables_number       1
_symmetry_cell_setting            triclinic
loop_
_symmetry_equiv_pos_as_xyz
'x, y, z'
_cell_length_a     46.721817
_cell_length_b     46.639282
_cell_length_c     25.610043
_cell_angle_alpha  89.93625
_cell_angle_beta   90.007404
_cell_angle_gamma 89.930597
loop_
_atom_site_label
_atom_site_type_symbol
_atom_site_fract_x
_atom_site_fract_y
_atom_site_fract_z
_atom_type_partial_charge
Tb0 Tb 0.07191 0.41436 0.20779 0.0
Tb1 Tb 0.0935 0.46403 0.24681 0.0
C2 C 0.05068 0.3791 0.14558 0.0
C3 C 0.0345 0.38602 0.09667 0.0
C4 C 0.0054 0.39414 0.09868 0.0
C5 C 0.99114 0.40402 1.05396 0.0
C6 C 0.00552 0.40593 1.006 0.0
C7 C 0.03438 0.39743 1.00349 0.0
C8 C 0.04862 0.38738 1.04817 0.0
C9 C 0.10766 0.40215 0.29148 0.0
C10 C 0.09489 0.46237 0.12496 0.0
C11 C 0.1242 0.50327 0.28159 0.0
C12 C 0.14586 0.50847 0.32001 0.0
C13 C 0.15947 0.48539 0.34436 0.0
C14 C 0.17257 0.48981 0.39195 0.0
C15 C 0.17358 0.51748 0.4127 0.0
C16 C 0.16538 0.54123 0.38282 0.0
C17 C 0.15057 0.53659 0.33666 0.0
C18 C 0.04208 0.47571 0.20393 0.0
C19 C 0.04634 0.43011 0.31337 0.0
O20 O 0.03822 0.38647 0.18935 0.0
O21 O 0.07815 0.38528 0.14589 0.0
O22 O 0.11187 0.42128 0.25495 0.0
O23 O 0.08635 0.38719 0.27421 0.0
O24 O 0.07755 0.44046 0.13368 0.0
O25 O 0.10879 0.47169 0.16598 0.0
O26 O 0.13211 0.48564 0.24477 0.0
O27 O 0.09838 0.49802 0.29941 0.0
O28 O 0.05082 0.45321 0.22503 0.0
O29 O 0.06419 0.49197 0.20395 0.0
O30 O 0.06886 0.44767 0.31573 0.0
O31 O 0.03949 0.41911 0.26766 0.0
H32 H 0.99362 0.39318 0.13503 0.0
H33 H 0.96878 0.41003 1.05668 0.0
H34 H 0.04579 0.39826 0.9667 0.0
H35 H 0.07084 0.38105 1.04489 0.0
H36 H 0.15767 0.46381 0.32922 0.0
H37 H 0.17948 0.47152 0.41473 0.0
H38 H 0.16656 0.5627 0.39879 0.0
H39 H 0.14074 0.55456 0.31664 0.0
Tb40 Tb 0.82463 0.82114 0.45826 0.0
Tb41 Tb 0.7778 0.84644 0.49851 0.0
C42 C 0.85902 0.79789 0.39653 0.0
C43 C 0.8529 0.78206 0.34732 0.0
C44 C 0.84003 0.75475 0.34857 0.0
C45 C 0.83144 0.7412 0.30248 0.0
C46 C 0.83612 0.75437 0.25407 0.0
C47 C 0.84959 0.78125 0.25226 0.0
C48 C 0.85782 0.79502 0.2985 0.0
C49 C 0.84241 0.85921 0.53464 0.0
C50 C 0.77676 0.84401 0.37653 0.0
C51 C 0.7423 0.87802 0.54225 0.0
C52 C 0.74557 0.89444 0.58859 0.0
C53 C 0.77192 0.89278 0.61399 0.0
C54 C 0.77545 0.90594 0.66142 0.0
C55 C 0.75218 0.91968 0.68438 0.0
C56 C 0.72591 0.92223 0.65836 0.0
C57 C 0.72268 0.90972 0.60961 0.0
C58 C 0.76266 0.79455 0.46498 0.0
C59 C 0.81222 0.80207 0.56994 0.0
O60 O 0.85033 0.78573 0.43986 0.0
O61 O 0.85356 0.82553 0.39587 0.0
O62 O 0.82162 0.86311 0.50092 0.0
O63 O 0.85459 0.83621 0.51788 0.0
O64 O 0.79705 0.82497 0.386 0.0
O65 O 0.76929 0.86006 0.41649 0.0
O66 O 0.75897 0.88672 0.50445 0.0
O67 O 0.74376 0.85039 0.55042 0.0
O68 O 0.78601 0.80213 0.48403 0.0
O69 O 0.74748 0.81741 0.46061 0.0
O70 O 0.79679 0.82622 0.57005 0.0
O71 O 0.82091 0.79195 0.52433 0.0
H72 H 0.83635 0.74389 0.38525 0.0
H73 H 0.82135 0.72033 0.30453 0.0
H74 H 0.85361 0.79158 0.21508 0.0
H75 H 0.86771 0.81597 0.29613 0.0
H76 H 0.78916 0.88 0.59817 0.0
H77 H 0.79525 0.90305 0.68266 0.0
H78 H 0.70779 0.93261 0.67681 0.0
H79 H 0.70224 0.91074 0.58972 0.0
Tb80 Tb 0.42519 0.57714 0.70366 0.0
Tb81 Tb 0.4025 0.54434 0.72935 0.0
C82 C 0.43311 0.6087 0.62609 0.0
C83 C 0.44831 0.6009 0.57716 0.0
C84 C 0.47345 0.58414 0.57894 0.0
C85 C 0.48705 0.5754 0.53296 0.0
C86 C 0.4757 0.58294 0.48417 0.0
C87 C 0.45037 0.59929 0.48219 0.0
C88 C 0.43691 0.60835 0.52831 0.0
C89 C 0.39223 0.60023 0.78781 0.0
C90 C 0.41049 0.53239 0.61817 0.0
C91 C 0.36093 0.52018 0.77239 0.0
C92 C 0.3555 0.51753 0.82755 0.0
C93 C 0.34545 0.54146 0.85521 0.0
C94 C 0.34984 0.54314 0.9084 0.0
C95 C 0.36327 0.52045 0.93366 0.0
C96 C 0.37213 0.49596 0.90683 0.0
C97 C 0.36744 0.4941 0.85401 0.0
C98 C 0.44455 0.50942 0.73116 0.0
C99 C 0.45968 0.57297 0.79125 0.0
O100 O 0.44908 0.6097 0.66804 0.0
O101 O 0.40875 0.59548 0.63456 0.0
O102 O 0.38402 0.58392 0.75043 0.0
O103 O 0.4177 0.6067 0.7734 0.0
O104 O 0.43326 0.54315 0.64068 0.0
O105 O 0.38861 0.53771 0.64723 0.0
O106 O 0.35993 0.54618 0.75406 0.0
O107 O 0.3836 0.50672 0.75656 0.0
O108 O 0.448 0.53628 0.72126 0.0
O109 O 0.41815 0.50195 0.73278 0.0
O110 O 0.43517 0.55743 0.79503 0.0
O111 O 0.46378 0.58441 0.74589 0.0
H112 H 0.48261 0.57761 0.61596 0.0
H113 H 0.50663 0.563 0.53544 0.0
H114 H 0.44132 0.60545 0.44488 0.0
H115 H 0.41743 0.62089 0.52585 0.0
H116 H 0.33541 0.55931 0.83538 0.0
H117 H 0.34224 0.56156 0.93007 0.0
H118 H 0.38162 0.47793 0.92729 0.0
H119 H 0.37502 0.47527 0.83342 0.0
Tb120 Tb 0.66686 0.16639 0.96177 0.0
Tb121 Tb 0.71666 0.14804 1.00345 0.0
C122 C 0.63049 0.18418 0.897 0.0
C123 C 0.63597 0.19975 0.84733 0.0
C124 C 0.6623 0.21371 0.84007 0.0
C125 C 0.66822 0.22878 0.79414 0.0
C126 C 0.64771 0.23047 0.75431 0.0
C127 C 0.62131 0.21639 0.76104 0.0
C128 C 0.61551 0.20107 0.80723 0.0
C129 C 0.65598 0.12778 1.04155 0.0
C130 C 0.71566 0.14478 0.88056 0.0
C131 C 0.75662 0.1207 1.0461 0.0
C132 C 0.76109 0.10056 0.08818 0.0
C133 C 0.73876 0.0826 0.10422 0.0
C134 C 0.73974 0.07063 0.15359 0.0
C135 C 0.76299 0.07635 0.1861 0.0
C136 C 0.78759 0.08964 0.16636 0.0
C137 C 0.78645 0.10217 0.1171 0.0
C138 C 0.72785 0.19861 0.96167 0.0
C139 C 0.67654 0.19343 1.06799 0.0
O140 O 0.63764 0.19823 0.93923 0.0
O141 O 0.63916 0.15741 0.89883 0.0
O142 O 0.67612 0.12619 1.00676 0.0
O143 O 0.63933 0.14772 1.02392 0.0
O144 O 0.693 0.1611 0.88837 0.0
O145 O 0.7266 0.13287 0.92267 0.0
O146 O 0.74114 0.11094 1.00773 0.0
O147 O 0.74928 0.14671 1.05978 0.0
O148 O 0.70467 0.19089 0.98261 0.0
O149 O 0.74292 0.17593 0.9556 0.0
O150 O 0.69793 0.17422 0.07008 0.0
O151 O 0.66254 0.19721 1.02393 0.0
H152 H 0.67824 0.21304 0.87043 0.0
H153 H 0.68871 0.23938 0.78986 0.0
H154 H 0.60518 0.21744 0.73072 0.0
H155 H 0.59505 0.19047 0.81177 0.0
H156 H 0.71931 0.08051 0.08145 0.0
H157 H 0.72092 0.06043 0.16924 0.0
H158 H 0.80565 0.09408 0.19161 0.0
H159 H 0.80402 0.11557 0.10417 0.0
Tb160 Tb 0.07648 0.56813 0.82739 0.0
Tb161 Tb 0.10152 0.51921 0.78638 0.0
C162 C 0.05046 0.60176 0.88709 0.0
C163 C 0.03504 0.59576 0.937 0.0
C164 C 0.00648 0.58598 0.93673 0.0
C165 C 0.99274 0.57826 0.98329 0.0
C166 C 0.00706 0.58055 1.03122 0.0
C167 C 0.03535 0.59067 1.03197 0.0
C168 C 0.04919 0.59818 0.98536 0.0
C169 C 0.11559 0.58527 0.75311 0.0
C170 C 0.09879 0.51981 0.90961 0.0
C171 C 0.12958 0.47825 0.74832 0.0
C172 C 0.14672 0.46951 0.70369 0.0
C173 C 0.1763 0.47367 0.70443 0.0
C174 C 0.19031 0.47899 0.65763 0.0
C175 C 0.17399 0.48115 0.61186 0.0
C176 C 0.14788 0.46603 0.61038 0.0
C177 C 0.13353 0.46118 0.65701 0.0
C178 C 0.04878 0.50771 0.82237 0.0
C179 C 0.06 0.55579 0.71341 0.0
O180 O 0.03903 0.5911 0.84461 0.0
O181 O 0.07842 0.5986 0.88775 0.0
O182 O 0.11852 0.56333 0.78507 0.0
O183 O 0.09389 0.59889 0.77184 0.0
O184 O 0.08139 0.54158 0.90044 0.0
O185 O 0.114 0.51081 0.86938 0.0
O186 O 0.1407 0.4979 0.7788 0.0
O187 O 0.10254 0.48313 0.73889 0.0
O188 O 0.05788 0.5297 0.80052 0.0
O189 O 0.07065 0.49145 0.82676 0.0
O190 O 0.08326 0.53899 0.71399 0.0
O191 O 0.0495 0.56526 0.75827 0.0
H192 H 0.99475 0.58411 0.90045 0.0
H193 H 0.9708 0.57081 0.98202 0.0
H194 H 0.04663 0.59289 1.06869 0.0
H195 H 0.07108 0.60573 0.98719 0.0
H196 H 0.18765 0.47617 0.74098 0.0
H197 H 0.21262 0.48403 0.65939 0.0
H198 H 0.13596 0.46393 0.57428 0.0
H199 H 0.11116 0.4551 0.65584 0.0
Tb200 Tb 0.66878 0.82463 0.08244 0.0
Tb201 Tb 0.71122 0.85666 1.04592 0.0
C202 C 0.6358 0.79492 0.1374 0.0
C203 C 0.64111 0.78045 0.18796 0.0
C204 C 0.65149 0.79579 0.23131 0.0
C205 C 0.66046 0.78136 0.2762 0.0
C206 C 0.65837 0.75143 0.27926 0.0
C207 C 0.64698 0.7361 0.23702 0.0
C208 C 0.63868 0.75048 0.19149 0.0
C209 C 0.64654 0.85938 1.00411 0.0
C210 C 0.7131 0.84893 0.16883 0.0
C211 C 0.73682 0.90317 1.03589 0.0
C212 C 0.73496 0.9245 0.99592 0.0
C213 C 0.71553 0.91873 0.95594 0.0
C214 C 0.72167 0.92749 0.90603 0.0
C215 C 0.74732 0.942 0.8963 0.0
C216 C 0.76473 0.95136 0.93722 0.0
C217 C 0.75835 0.94264 0.98779 0.0
C218 C 0.73287 0.80638 1.05172 0.0
C219 C 0.68592 0.80988 0.97126 0.0
O220 O 0.65034 0.78457 0.09809 0.0
O221 O 0.63551 0.82307 0.1375 0.0
O222 O 0.66556 0.86615 1.03926 0.0
O223 O 0.63845 0.83444 1.01925 0.0
O224 O 0.68673 0.83953 0.16007 0.0
O225 O 0.72803 0.85548 0.12717 0.0
O226 O 0.71373 0.90024 1.06434 0.0
O227 O 0.7465 0.87876 1.01781 0.0
O228 O 0.71456 0.81624 0.08495 0.0
O229 O 0.7398 0.82537 1.01666 0.0
O230 O 0.69639 0.83661 0.9716 0.0
O231 O 0.6793 0.79791 1.01623 0.0
H232 H 0.6534 0.81889 0.23033 0.0
H233 H 0.66885 0.79353 0.30881 0.0
H234 H 0.64487 0.71299 0.23913 0.0
H235 H 0.63085 0.73814 0.15865 0.0
H236 H 0.69871 0.90312 0.96138 0.0
H237 H 0.70834 0.91989 0.87422 0.0
H238 H 0.78475 0.96219 0.92932 0.0
H239 H 0.7737 0.94653 1.01868 0.0
Tb240 Tb 0.42724 0.41903 0.33045 0.0
Tb241 Tb 0.38948 0.4598 0.29642 0.0
C242 C 0.45432 0.38459 0.38672 0.0
C243 C 0.46919 0.38831 0.43691 0.0
C244 C 0.47611 0.41586 0.45511 0.0
C245 C 0.48994 0.41957 0.50264 0.0
C246 C 0.49789 0.39567 0.53226 0.0
C247 C 0.49098 0.36801 0.51455 0.0
C248 C 0.47646 0.36438 0.46725 0.0
C249 C 0.3911 0.3958 0.25606 0.0
C250 C 0.40329 0.46282 0.41775 0.0
C251 C 0.34341 0.48733 0.28551 0.0
C252 C 0.33223 0.508 0.24826 0.0
C253 C 0.31237 0.49744 0.21253 0.0
C254 C 0.31811 0.50117 0.16002 0.0
C255 C 0.34356 0.51539 0.14504 0.0
C256 C 0.35513 0.53506 0.18067 0.0
C257 C 0.34979 0.531 0.23339 0.0
C258 C 0.43963 0.48347 0.29587 0.0
C259 C 0.43806 0.43627 0.21845 0.0
O260 O 0.46582 0.39814 0.34694 0.0
O261 O 0.4263 0.38732 0.38847 0.0
O262 O 0.38425 0.41378 0.29339 0.0
O263 O 0.41717 0.38956 0.26711 0.0
O264 O 0.42367 0.44476 0.40427 0.0
O265 O 0.38377 0.46781 0.38191 0.0
O266 O 0.34799 0.46166 0.26659 0.0
O267 O 0.36493 0.49606 0.31351 0.0
O268 O 0.43105 0.46517 0.32978 0.0
O269 O 0.41919 0.48958 0.26307 0.0
O270 O 0.41125 0.44693 0.22121 0.0
O271 O 0.45143 0.42975 0.26215 0.0
H272 H 0.47121 0.43471 0.43284 0.0
H273 H 0.49515 0.44104 0.51569 0.0
H274 H 0.49704 0.34932 0.53715 0.0
H275 H 0.47122 0.34295 0.4541 0.0
H276 H 0.29681 0.48139 0.22398 0.0
H277 H 0.30452 0.48998 0.13266 0.0
H278 H 0.37045 0.55123 0.16934 0.0
H279 H 0.36314 0.54206 0.26146 0.0
Tb280 Tb 0.8237 0.16708 0.58647 0.0
Tb281 Tb 0.77561 0.15369 0.55077 0.0
C282 C 0.8609 0.18703 0.64711 0.0
C283 C 0.85462 0.20302 0.69641 0.0
C284 C 0.82704 0.2144 0.70453 0.0
C285 C 0.82033 0.22993 0.74956 0.0
C286 C 0.84115 0.23491 0.78784 0.0
C287 C 0.86891 0.22377 0.7801 0.0
C288 C 0.87556 0.2079 0.73478 0.0
C289 C 0.83249 0.12951 0.50216 0.0
C290 C 0.7768 0.1423 0.66959 0.0
C291 C 0.72743 0.13844 0.51856 0.0
C292 C 0.72259 0.11306 0.48721 0.0
C293 C 0.74592 0.09443 0.48036 0.0
C294 C 0.74778 0.07804 0.43555 0.0
C295 C 0.72628 0.08033 0.39793 0.0
C296 C 0.70033 0.09414 0.40991 0.0
C297 C 0.69869 0.11115 0.4546 0.0
C298 C 0.77951 0.2179 0.58337 0.0
C299 C 0.81153 0.19332 0.47897 0.0
O300 O 0.85239 0.20015 0.6047 0.0
O301 O 0.85412 0.15968 0.64614 0.0
O302 O 0.813 0.12713 0.53815 0.0
O303 O 0.8488 0.14988 0.51896 0.0
O304 O 0.80171 0.15527 0.66289 0.0
O305 O 0.76407 0.13366 0.62656 0.0
O306 O 0.73687 0.13271 0.56518 0.0
O307 O 0.74281 0.15809 0.49532 0.0
O308 O 0.7832 0.19106 0.59502 0.0
O309 O 0.78344 0.19143 0.59617 0.0
O310 O 0.7917 0.1734 0.47931 0.0
O311 O 0.82489 0.19853 0.52314 0.0
H312 H 0.81052 0.2115 0.67581 0.0
H313 H 0.79879 0.23816 0.75449 0.0
H314 H 0.88534 0.2273 0.80921 0.0
H315 H 0.89703 0.1996 0.72965 0.0
H316 H 0.76453 0.09564 0.50555 0.0
H317 H 0.76789 0.06757 0.42659 0.0
H318 H 0.68362 0.0959 0.38073 0.0
H319 H 0.6806 0.1254 0.45983 0.0
Tb320 Tb 0.89922 0.52298 0.29636 0.0
Tb321 Tb 0.92224 0.57333 0.33208 0.0
C322 C 0.86687 0.48404 0.26526 0.0
C323 C 0.8427 0.48284 0.23103 0.0
C324 C 0.83192 0.50859 0.21121 0.0
C325 C 0.81839 0.50826 0.16352 0.0
C326 C 0.81396 0.48219 0.13827 0.0
C327 C 0.81944 0.45612 0.1634 0.0
C328 C 0.83448 0.45647 0.2101 0.0
C329 C 0.95154 0.51146 0.33464 0.0
C330 C 0.94431 0.55694 0.22389 0.0
C331 C 0.94496 0.60931 0.39121 0.0
C332 C 0.96264 0.60342 0.43865 0.0
C333 C 0.99109 0.59354 0.434 0.0
C334 C 0.00643 0.58428 0.47784 0.0
C335 C 0.99394 0.58521 0.52751 0.0
C336 C 0.96597 0.59592 0.53285 0.0
C337 C 0.95051 0.605 0.48886 0.0
C338 C 0.88344 0.58445 0.25304 0.0
C339 C 0.90025 0.52651 0.41704 0.0
O340 O 0.86207 0.49948 0.30665 0.0
O341 O 0.8914 0.49002 0.24281 0.0
O342 O 0.94246 0.53395 0.31372 0.0
O343 O 0.9295 0.49517 0.33707 0.0
O344 O 0.92239 0.53856 0.22511 0.0
O345 O 0.95226 0.56956 0.26772 0.0
O346 O 0.95623 0.60148 0.34661 0.0
O347 O 0.91765 0.60264 0.39407 0.0
O348 O 0.88078 0.56555 0.29021 0.0
O349 O 0.90457 0.60021 0.26805 0.0
O350 O 0.91895 0.54697 0.40629 0.0
O351 O 0.88436 0.51841 0.37776 0.0
H352 H 0.83773 0.52903 0.22829 0.0
H353 H 0.81604 0.52809 0.14244 0.0
H354 H 0.81614 0.43594 0.14337 0.0
H355 H 0.84246 0.43653 0.2263 0.0
H356 H 0.00154 0.59267 0.39635 0.0
H357 H 0.02819 0.57666 0.4731 0.0
H358 H 0.95618 0.59735 0.5711 0.0
H359 H 0.92886 0.61281 0.49403 0.0
Tb360 Tb 0.20781 0.145 1.04512 0.0
Tb361 Tb 0.15941 0.16804 0.08779 0.0
C362 C 0.23821 0.10448 1.0145 0.0
C363 C 0.23274 0.07877 0.98533 0.0
C364 C 0.20467 0.07386 0.96891 0.0
C365 C 0.2003 0.06231 0.92001 0.0
C366 C 0.22388 0.05343 0.89053 0.0
C367 C 0.25109 0.05168 0.91327 0.0
C368 C 0.25572 0.06517 0.9608 0.0
C369 C 0.22624 0.19551 1.06358 0.0
C370 C 0.16993 0.19522 0.98437 0.0
C371 C 0.12471 0.18448 0.15552 0.0
C372 C 0.13122 0.20029 0.20467 0.0
C373 C 0.14922 0.22456 0.20404 0.0
C374 C 0.15673 0.23851 0.25041 0.0
C375 C 0.14657 0.22853 0.29867 0.0
C376 C 0.12886 0.20415 0.29963 0.0
C377 C 0.12122 0.1902 0.25306 0.0
C378 C 0.14656 0.1304 1.00676 0.0
C379 C 0.21113 0.15141 0.16734 0.0
O380 O 0.22557 0.10499 1.06002 0.0
O381 O 0.23496 0.12842 0.98788 0.0
O382 O 0.20034 0.18788 0.07185 0.0
O383 O 0.24263 0.17374 1.05578 0.0
O384 O 0.1885 0.17316 0.98073 0.0
O385 O 0.15779 0.20088 1.02941 0.0
O386 O 0.12934 0.19859 0.11196 0.0
O387 O 0.13399 0.15785 0.15315 0.0
O388 O 0.16566 0.12751 1.04316 0.0
O389 O 0.13157 0.15169 1.02354 0.0
O390 O 0.18788 0.16696 0.15924 0.0
O391 O 0.2209 0.13715 0.12715 0.0
H392 H 0.18686 0.08373 0.98888 0.0
H393 H 0.17953 0.0651 0.90185 0.0
H394 H 0.26943 0.045 0.89038 0.0
H395 H 0.27746 0.06859 0.97412 0.0
H396 H 0.15767 0.23276 0.16765 0.0
H397 H 0.17051 0.25717 0.24867 0.0
H398 H 0.12089 0.19599 0.33647 0.0
H399 H 0.1077 0.17138 0.25487 0.0
Tb400 Tb 0.58913 0.46177 0.79879 0.0
Tb401 Tb 0.57731 0.40699 0.84176 0.0
C402 C 0.60825 0.50485 0.75398 0.0
C403 C 0.62326 0.50476 0.70543 0.0
C404 C 0.6354 0.47866 0.69046 0.0
C405 C 0.6398 0.47291 0.63862 0.0
C406 C 0.63293 0.49347 0.60111 0.0
C407 C 0.62365 0.52093 0.61681 0.0
C408 C 0.61825 0.52639 0.66907 0.0
C409 C 0.53631 0.45916 0.84094 0.0
C410 C 0.55901 0.417 0.72506 0.0
C411 C 0.55212 0.37219 0.90043 0.0
C412 C 0.53228 0.37993 0.94354 0.0
C413 C 0.51711 0.40596 0.94138 0.0
C414 C 0.50085 0.4155 0.98375 0.0
C415 C 0.49817 0.3986 1.02877 0.0
C416 C 0.51186 0.37155 1.02964 0.0
C417 C 0.52923 0.36258 0.98789 0.0
C418 C 0.61705 0.39819 0.76595 0.0
C419 C 0.59628 0.4599 0.91927 0.0
O420 O 0.62198 0.49171 0.79167 0.0
O421 O 0.58169 0.49636 0.74901 0.0
O422 O 0.55025 0.44055 0.81686 0.0
O423 O 0.55361 0.48056 0.8443 0.0
O424 O 0.57404 0.44108 0.72726 0.0
O425 O 0.55364 0.40274 0.76869 0.0
O426 O 0.543 0.37884 0.85371 0.0
O427 O 0.57906 0.37938 0.90701 0.0
O428 O 0.61436 0.42153 0.79457 0.0
O429 O 0.60392 0.37888 0.79334 0.0
O430 O 0.58487 0.43401 0.91377 0.0
O431 O 0.60442 0.47325 0.87688 0.0
H432 H 0.6385 0.46149 0.71831 0.0
H433 H 0.6466 0.45168 0.62867 0.0
H434 H 0.61942 0.53771 0.58855 0.0
H435 H 0.6084 0.54647 0.6805 0.0
H436 H 0.51843 0.41942 0.90726 0.0
H437 H 0.49059 0.4363 0.98149 0.0
H438 H 0.50995 0.35778 1.06355 0.0
H439 H 0.5405 0.34233 0.99053 0.0
Tb440 Tb 0.27193 0.84019 0.54342 0.0
Tb441 Tb 0.324 0.82478 0.58868 0.0
C442 C 0.23263 0.85879 0.48727 0.0
C443 C 0.23592 0.86646 0.43358 0.0
C444 C 0.26365 0.86497 0.41358 0.0
C445 C 0.26895 0.87234 0.36295 0.0
C446 C 0.2469 0.88355 0.33303 0.0
C447 C 0.21861 0.8843 0.3516 0.0
C448 C 0.213 0.87526 0.40246 0.0
C449 C 0.26551 0.79008 0.59187 0.0
C450 C 0.3125 0.79586 0.48343 0.0
C451 C 0.3605 0.80578 0.6518 0.0
C452 C 0.35448 0.7886 0.69904 0.0
C453 C 0.32689 0.77746 0.706 0.0
C454 C 0.31974 0.76223 0.75093 0.0
C455 C 0.34023 0.75721 0.78978 0.0
C456 C 0.36835 0.76739 0.78212 0.0
C457 C 0.37535 0.78327 0.73721 0.0
C458 C 0.33492 0.85957 0.50363 0.0
C459 C 0.27255 0.84864 0.6645 0.0
O460 O 0.24747 0.87516 0.5188 0.0
O461 O 0.23695 0.83151 0.49544 0.0
O462 O 0.28737 0.79973 0.56964 0.0
O463 O 0.24807 0.81145 0.59422 0.0
O464 O 0.29375 0.8171 0.47876 0.0
O465 O 0.32346 0.79097 0.53001 0.0
O466 O 0.35394 0.79301 0.608 0.0
O467 O 0.35117 0.83234 0.6528 0.0
O468 O 0.31333 0.86154 0.5361 0.0
O469 O 0.35256 0.84342 0.52903 0.0
O470 O 0.29669 0.83386 0.65975 0.0
O471 O 0.26116 0.85856 0.62092 0.0
H472 H 0.28156 0.85965 0.43792 0.0
H473 H 0.29062 0.87133 0.34823 0.0
H474 H 0.20153 0.89315 0.32793 0.0
H475 H 0.19146 0.87631 0.41799 0.0
H476 H 0.31075 0.78082 0.67659 0.0
H477 H 0.2981 0.7544 0.75557 0.0
H478 H 0.38458 0.76376 0.8116 0.0
H479 H 0.39684 0.79154 0.73253 0.0
Tb480 Tb 0.89094 0.46506 0.75212 0.0
Tb481 Tb 0.92098 0.41858 0.71038 0.0
C482 C 0.84832 0.49362 0.77642 0.0
C483 C 0.82732 0.48966 0.8158 0.0
C484 C 0.83025 0.46465 0.84502 0.0
C485 C 0.82277 0.46467 0.89674 0.0
C486 C 0.81218 0.48984 0.91896 0.0
C487 C 0.80649 0.51412 0.88856 0.0
C488 C 0.81378 0.51387 0.83613 0.0
C489 C 0.94056 0.48796 0.72906 0.0
C490 C 0.94063 0.43718 0.81843 0.0
C491 C 0.947 0.38386 0.65314 0.0
C492 C 0.96033 0.3885 0.6014 0.0
C493 C 0.94487 0.4016 0.56066 0.0
C494 C 0.95847 0.40954 0.51443 0.0
C495 C 0.98757 0.40356 0.50722 0.0
C496 C 0.003 0.38968 0.54693 0.0
C497 C 0.98952 0.38245 0.59397 0.0
C498 C 0.88599 0.39989 0.79091 0.0
C499 C 0.89817 0.46671 0.6286 0.0
O500 O 0.84788 0.47434 0.73905 0.0
O501 O 0.87382 0.49759 0.7969 0.0
O502 O 0.93324 0.46196 0.72206 0.0
O503 O 0.9189 0.50126 0.7484 0.0
O504 O 0.91453 0.44905 0.82217 0.0
O505 O 0.95053 0.43001 0.77198 0.0
O506 O 0.95931 0.3975 0.69178 0.0
O507 O 0.91892 0.38552 0.65514 0.0
O508 O 0.88007 0.41938 0.75567 0.0
O509 O 0.90981 0.3894 0.77451 0.0
O510 O 0.91122 0.44185 0.63568 0.0
O511 O 0.88635 0.47874 0.66956 0.0
H512 H 0.84315 0.44725 0.83046 0.0
H513 H 0.8279 0.44616 0.92066 0.0
H514 H 0.79885 0.53376 0.90631 0.0
H515 H 0.8125 0.53358 0.81378 0.0
H516 H 0.92228 0.40604 0.56451 0.0
H517 H 0.94621 0.41993 0.48385 0.0
H518 H 0.02548 0.38474 0.54166 0.0
H519 H 0.00194 0.37252 0.6248 0.0
Tb520 Tb 0.27776 0.15117 0.494 0.0
Tb521 Tb 0.32664 0.16961 0.45579 0.0
C522 C 0.23773 0.12552 0.53742 0.0
C523 C 0.23478 0.11034 0.58543 0.0
C524 C 0.2529 0.11713 0.62695 0.0
C525 C 0.25138 0.10137 0.67222 0.0
C526 C 0.23062 0.07991 0.67688 0.0
C527 C 0.21284 0.07267 0.63512 0.0
C528 C 0.21522 0.08779 0.58876 0.0
C529 C 0.26638 0.20289 0.45541 0.0
C530 C 0.313 0.19529 0.56275 0.0
C531 C 0.36486 0.18802 0.39597 0.0
C532 C 0.3603 0.20535 0.3483 0.0
C533 C 0.33557 0.22237 0.3443 0.0
C534 C 0.33036 0.23903 0.30015 0.0
C535 C 0.34946 0.23834 0.25815 0.0
C536 C 0.37399 0.22083 0.26118 0.0
C537 C 0.37948 0.20456 0.30624 0.0
C538 C 0.33899 0.13349 0.53834 0.0
C539 C 0.27817 0.14988 0.37226 0.0
O540 O 0.2553 0.11318 0.50469 0.0
O541 O 0.24203 0.15307 0.54227 0.0
O542 O 0.2897 0.19441 0.47423 0.0
O543 O 0.25107 0.18034 0.44928 0.0
O544 O 0.29547 0.17281 0.5645 0.0
O545 O 0.32485 0.20125 0.5174 0.0
O546 O 0.35751 0.20083 0.43933 0.0
O547 O 0.35547 0.16153 0.39419 0.0
O548 O 0.31917 0.12975 0.50283 0.0
O549 O 0.35319 0.15515 0.52103 0.0
O550 O 0.30109 0.16567 0.38119 0.0
O551 O 0.26788 0.13657 0.4134 0.0
H552 H 0.2685 0.13421 0.62408 0.0
H553 H 0.26503 0.10712 0.70484 0.0
H554 H 0.19646 0.05642 0.63933 0.0
H555 H 0.20147 0.08243 0.55613 0.0
H556 H 0.32001 0.22232 0.37524 0.0
H557 H 0.31111 0.25198 0.29822 0.0
H558 H 0.38873 0.21972 0.2286 0.0
H559 H 0.39844 0.19121 0.30804 0.0
Tb560 Tb 0.5987 0.5291 0.24126 0.0
Tb561 Tb 0.57374 0.57727 0.20213 0.0
C562 C 0.64135 0.50044 0.26546 0.0
C563 C 0.66622 0.50603 0.2967 0.0
C564 C 0.66765 0.53351 0.31863 0.0
C565 C 0.66907 0.53572 0.37245 0.0
C566 C 0.67135 0.51069 0.4017 0.0
C567 C 0.67853 0.4846 0.37772 0.0
C568 C 0.67651 0.4824 0.32412 0.0
C569 C 0.54946 0.50837 0.21051 0.0
C570 C 0.54407 0.55629 0.29912 0.0
C571 C 0.55783 0.61454 0.13747 0.0
C572 C 0.54497 0.61033 0.08433 0.0
C573 C 0.52299 0.59016 0.07655 0.0
C574 C 0.5122 0.58425 1.02667 0.0
C575 C 0.52253 0.59901 0.98294 0.0
C576 C 0.54412 0.61971 0.99023 0.0
C577 C 0.55537 0.62516 1.04038 0.0
C578 C 0.60633 0.59023 0.29127 0.0
C579 C 0.59481 0.52852 0.11942 0.0
O580 O 0.63994 0.51592 0.2229 0.0
O581 O 0.61714 0.49968 0.29215 0.0
O582 O 0.55732 0.53452 0.2069 0.0
O583 O 0.57028 0.49367 0.23031 0.0
O584 O 0.56846 0.5411 0.30524 0.0
O585 O 0.53858 0.56839 0.25372 0.0
O586 O 0.54218 0.60637 0.17741 0.0
O587 O 0.58472 0.60668 0.14278 0.0
O588 O 0.61282 0.57326 0.25239 0.0
O589 O 0.58271 0.60191 0.27568 0.0
O590 O 0.57954 0.55196 0.12764 0.0
O591 O 0.6074 0.51713 0.15979 0.0
H592 H 0.661 0.55206 0.2964 0.0
H593 H 0.66449 0.55581 0.39151 0.0
H594 H 0.68109 0.46512 0.40041 0.0
H595 H 0.67646 0.46124 0.30666 0.0
H596 H 0.51378 0.57918 0.10923 0.0
H597 H 0.49534 0.56849 1.02235 0.0
H598 H 0.55215 0.63173 0.95714 0.0
H599 H 0.57217 0.64095 1.04481 0.0
Tb600 Tb 0.20892 0.85822 0.99546 0.0
Tb601 Tb 0.16667 0.82548 0.95875 0.0
C602 C 0.2358 0.90407 1.00728 0.0
C603 C 0.23793 0.92244 1.05176 0.0
C604 C 0.22172 0.91433 0.09497 0.0
C605 C 0.22991 0.92256 0.14405 0.0
C606 C 0.25653 0.93575 0.15037 0.0
C607 C 0.2713 0.94673 0.10753 0.0
C608 C 0.26175 0.94029 1.05741 0.0
C609 C 0.23039 0.80802 0.99187 0.0
C610 C 0.18261 0.81216 0.07157 0.0
C611 C 0.13467 0.7947 0.90378 0.0
C612 C 0.13986 0.78008 0.85305 0.0
C613 C 0.14577 0.75048 0.8521 0.0
C614 C 0.15254 0.73669 0.80524 0.0
C615 C 0.15327 0.75214 0.75831 0.0
C616 C 0.14712 0.7816 0.75872 0.0
C617 C 0.14049 0.79548 0.80568 0.0
C618 C 0.14405 0.86032 1.03598 0.0
C619 C 0.20965 0.85109 0.87233 0.0
O620 O 0.21043 0.90281 0.98577 0.0
O621 O 0.2465 0.87875 1.01687 0.0
O622 O 0.21255 0.81759 0.9574 0.0
O623 O 0.23636 0.82695 1.02755 0.0
O624 O 0.19452 0.83823 0.07011 0.0
O625 O 0.17674 0.79982 1.02661 0.0
O626 O 0.14948 0.7849 0.94331 0.0
O627 O 0.13354 0.82283 0.90341 0.0
O628 O 0.16311 0.86709 1.00084 0.0
O629 O 0.13611 0.8351 1.0217 0.0
O630 O 0.18366 0.84086 0.881 0.0
O631 O 0.22472 0.85769 0.91371 0.0
H632 H 0.20583 0.89762 0.09176 0.0
H633 H 0.21859 0.91354 0.1772 0.0
H634 H 0.29162 0.95699 0.11318 0.0
H635 H 0.27499 0.94573 1.02411 0.0
H636 H 0.14544 0.738 0.88777 0.0
H637 H 0.15715 0.71392 0.80551 0.0
H638 H 0.1475 0.79381 0.7227 0.0
H639 H 0.13612 0.81828 0.80483 0.0
Tb640 Tb 0.56906 0.91662 0.71065 0.0
Tb641 Tb 0.59603 0.96599 0.75079 0.0
C642 C 0.5412 0.88284 0.65432 0.0
C643 C 0.52546 0.88824 0.60458 0.0
C644 C 0.49878 0.90241 0.60453 0.0
C645 C 0.48478 0.90886 0.55761 0.0
C646 C 0.49669 0.90048 0.50971 0.0
C647 C 0.52325 0.8863 0.50945 0.0
C648 C 0.53756 0.88039 0.55636 0.0
C649 C 0.60874 0.90116 0.78465 0.0
C650 C 0.58993 0.96496 0.62643 0.0
C651 C 0.63202 0.00246 0.77789 0.0
C652 C 0.65587 0.00957 0.81127 0.0
C653 C 0.67346 0.98801 0.83152 0.0
C654 C 0.68771 0.99309 0.8779 0.0
C655 C 0.68521 0.01972 0.90225 0.0
C656 C 0.67306 0.04295 0.87566 0.0
C657 C 0.6579 0.03771 0.82996 0.0
C658 C 0.54295 0.97919 0.71942 0.0
C659 C 0.55262 0.93149 0.8248 0.0
O660 O 0.53064 0.89493 0.69627 0.0
O661 O 0.56924 0.88483 0.65242 0.0
O662 O 0.61112 0.92193 0.75066 0.0
O663 O 0.58728 0.88643 0.7677 0.0
O664 O 0.57561 0.94099 0.63537 0.0
O665 O 0.60261 0.977 0.66675 0.0
O666 O 0.63695 0.98262 0.74282 0.0
O667 O 0.60679 -0.0 0.80036 0.0
O668 O 0.55229 0.95617 0.73737 0.0
O669 O 0.56503 0.9954 0.71622 0.0
O670 O 0.57552 0.9488 0.82372 0.0
O671 O 0.54263 0.92084 0.78033 0.0
H672 H 0.48861 0.90853 0.64079 0.0
H673 H 0.4643 0.91977 0.55867 0.0
H674 H 0.53283 0.87967 0.47288 0.0
H675 H 0.55809 0.86961 0.5549 0.0
H676 H 0.67324 0.96648 0.81571 0.0
H677 H 0.69655 0.97529 0.89904 0.0
H678 H 0.67105 0.06365 0.89447 0.0
H679 H 0.64494 0.05469 0.81327 0.0
Tb680 Tb 0.33237 0.32356 0.95814 0.0
Tb681 Tb 0.2859 0.352 1.00302 0.0
C682 C 0.36557 0.29709 0.89755 0.0
C683 C 0.3598 0.28173 0.84814 0.0
C684 C 0.33147 0.27693 0.8324 0.0
C685 C 0.32524 0.26263 0.7863 0.0
C686 C 0.34734 0.25205 0.75499 0.0
C687 C 0.37594 0.25638 0.77046 0.0
C688 C 0.38213 0.27135 0.81672 0.0
C689 C 0.35153 0.36235 1.03183 0.0
C690 C 0.28242 0.34669 0.87879 0.0
C691 C 0.25345 0.38965 1.03896 0.0
C692 C 0.24897 0.4089 0.08198 0.0
C693 C 0.25672 0.40024 0.13223 0.0
C694 C 0.2461 0.41482 0.17465 0.0
C695 C 0.22571 0.43657 0.16713 0.0
C696 C 0.21936 0.44662 0.11711 0.0
C697 C 0.2315 0.43296 0.07422 0.0
C698 C 0.26839 0.30079 0.97103 0.0
C699 C 0.3222 0.30568 0.07228 0.0
O700 O 0.35393 0.28558 0.93908 0.0
O701 O 0.362 0.32503 0.89633 0.0
O702 O 0.33009 0.3655 0.99958 0.0
O703 O 0.36445 0.34017 1.01307 0.0
O704 O 0.3049 0.33005 0.88648 0.0
O705 O 0.27365 0.36148 0.91974 0.0
O706 O 0.27413 0.39553 1.00623 0.0
O707 O 0.25194 0.36257 1.05091 0.0
O708 O 0.29265 0.30748 0.9883 0.0
O709 O 0.25354 0.32404 0.96859 0.0
O710 O 0.30443 0.32861 0.07366 0.0
O711 O 0.33223 0.29645 1.027 0.0
H712 H 0.3139 0.28411 0.85556 0.0
H713 H 0.30305 0.2598 0.77503 0.0
H714 H 0.39334 0.24856 0.74641 0.0
H715 H 0.40422 0.27475 0.82793 0.0
H716 H 0.26968 0.38126 0.13877 0.0
H717 H 0.25122 0.40697 0.21343 0.0
H718 H 0.20356 0.46333 0.1113 0.0
H719 H 0.22513 0.4394 1.03523 0.0
Tb720 Tb 0.91456 0.07852 0.20686 0.0
Tb721 Tb 0.8973 0.02772 0.25037 0.0
C722 C 0.93456 0.11549 0.14461 0.0
C723 C 0.95033 0.1101 0.09509 0.0
C724 C 0.958 0.08192 0.08291 0.0
C725 C 0.97158 0.07512 1.03622 0.0
C726 C 0.98018 0.09664 1.00156 0.0
C727 C 0.97412 0.12544 1.0148 0.0
C728 C 0.95876 0.13207 1.06078 0.0
C729 C 0.87605 0.0883 0.28766 0.0
C730 C 0.89367 0.02806 0.12666 0.0
C731 C 0.86719 0.98887 0.28922 0.0
C732 C 0.84311 0.98839 0.32439 0.0
C733 C 0.82849 0.01401 0.33481 0.0
C734 C 0.81341 0.01655 0.38093 0.0
C735 C 0.81263 0.99319 0.4151 0.0
C736 C 0.82073 0.96577 0.39792 0.0
C737 C 0.83687 0.96349 0.35249 0.0
C738 C 0.94716 0.0174 0.20506 0.0
C739 C 0.94264 0.06833 0.31367 0.0
O740 O 0.94788 0.10652 0.18642 0.0
O741 O 0.90748 0.10792 0.14538 0.0
O742 O 0.8751 0.06817 0.25271 0.0
O743 O 0.89524 0.10562 0.26944 0.0
O744 O 0.90641 0.05309 0.13305 0.0
O745 O 0.88453 0.01546 0.16941 0.0
O746 O 0.86131 0.00219 0.24587 0.0
O747 O 0.89203 -0.00357 0.30901 0.0
O748 O 0.93941 0.04062 0.22631 0.0
O749 O 0.9253 0.00084 0.20524 0.0
O750 O 0.92444 0.04602 0.31625 0.0
O751 O 0.94481 0.08303 0.26999 0.0
H752 H 0.95376 0.0651 0.11022 0.0
H753 H 0.97606 0.05294 1.02743 0.0
H754 H 0.98065 0.14264 0.989 0.0
H755 H 0.95372 0.1542 1.06962 0.0
H756 H 0.83193 0.03304 0.31132 0.0
H757 H 0.80663 0.03768 0.39342 0.0
H758 H 0.81954 0.94751 0.42403 0.0
H759 H 0.84721 0.94334 0.3431 0.0
Tb760 Tb 0.16743 0.66932 0.4557 0.0
Tb761 Tb 0.21642 0.64676 0.49897 0.0
C762 C 0.13355 0.69291 0.39272 0.0
C763 C 0.14077 0.7104 0.34603 0.0
C764 C 0.16827 0.72232 0.34103 0.0
C765 C 0.17554 0.73933 0.29805 0.0
C766 C 0.15543 0.74468 0.2587 0.0
C767 C 0.12795 0.73245 0.26301 0.0
C768 C 0.12067 0.71546 0.30638 0.0
C769 C 0.15226 0.63008 0.53253 0.0
C770 C 0.21793 0.64669 0.37735 0.0
C771 C 0.25234 0.61994 0.55109 0.0
C772 C 0.24893 0.61 0.60385 0.0
C773 C 0.23428 0.62732 0.63922 0.0
C774 C 0.22362 0.61594 0.68463 0.0
C775 C 0.22825 0.58689 0.69742 0.0
C776 C 0.24554 0.57041 0.66309 0.0
C777 C 0.25496 0.58163 0.61604 0.0
C778 C 0.22772 0.69929 0.46184 0.0
C779 C 0.17803 0.68967 0.56703 0.0
O780 O 0.141 0.70426 0.43738 0.0
O781 O 0.14021 0.66559 0.3904 0.0
O782 O 0.1735 0.62805 0.4993 0.0
O783 O 0.13793 0.65151 0.51413 0.0
O784 O 0.19555 0.66364 0.3847 0.0
O785 O 0.2271 0.63256 0.41866 0.0
O786 O 0.23496 0.60742 0.51818 0.0
O787 O 0.25281 0.6478 0.54595 0.0
O788 O 0.20514 0.69 0.48187 0.0
O789 O 0.24404 0.67709 0.45769 0.0
O790 O 0.19539 0.66697 0.56821 0.0
O791 O 0.1683 0.6987 0.52144 0.0
H792 H 0.18424 0.71835 0.37044 0.0
H793 H 0.19685 0.74834 0.29543 0.0
H794 H 0.11214 0.7361 0.23277 0.0
H795 H 0.09941 0.70634 0.30898 0.0
H796 H 0.23033 0.64972 0.63155 0.0
H797 H 0.2128 0.63101 0.70939 0.0
H798 H 0.25268 0.54899 0.6718 0.0
H799 H 0.26643 0.56803 0.58882 0.0
Tb800 Tb 0.57109 0.07146 0.33015 0.0
Tb801 Tb 0.59338 0.02224 0.28878 0.0
C802 C 0.54804 0.10539 0.39401 0.0
C803 C 0.53107 0.09872 0.44186 0.0
C804 C 0.52032 0.07088 0.44998 0.0
C805 C 0.50419 0.06419 0.49446 0.0
C806 C 0.4976 0.08543 0.5313 0.0
C807 C 0.50775 0.1135 0.52286 0.0
C808 C 0.52458 0.12 0.47881 0.0
C809 C 0.612 0.0841 0.25417 0.0
C810 C 0.59268 0.02232 0.41128 0.0
C811 C 0.62569 0.98644 0.24565 0.0
C812 C 0.64928 0.98983 0.20988 0.0
C813 C 0.66035 0.01735 0.20131 0.0
C814 C 0.6751 0.02293 0.15564 0.0
C815 C 0.68031 0.00059 0.12067 0.0
C816 C 0.67373 0.97218 0.134 0.0
C817 C 0.6576 0.96684 0.17852 0.0
C818 C 0.54222 0.00884 0.32432 0.0
C819 C 0.54858 0.06259 0.22097 0.0
O820 O 0.53611 0.09739 0.35015 0.0
O821 O 0.57545 0.09894 0.39515 0.0
O822 O 0.61272 0.06381 0.28886 0.0
O823 O 0.59175 0.10047 0.27164 0.0
O824 O 0.57501 0.04378 0.40192 0.0
O825 O 0.60723 0.01328 0.37057 0.0
O826 O 0.63053 -0.00226 0.29114 0.0
O827 O 0.60052 0.99339 0.22722 0.0
O828 O 0.54985 0.0325 0.30498 0.0
O829 O 0.56491 0.9939 0.33147 0.0
O830 O 0.56642 0.03998 0.22215 0.0
O831 O 0.54333 0.0769 0.26401 0.0
H832 H 0.52418 0.05429 0.42155 0.0
H833 H 0.49649 0.04247 0.49979 0.0
H834 H 0.50291 0.13026 0.55075 0.0
H835 H 0.53232 0.14168 0.4734 0.0
H836 H 0.65438 0.03513 0.22618 0.0
H837 H 0.67841 0.045 0.14408 0.0
H838 H 0.67736 0.95494 0.10644 0.0
H839 H 0.64938 0.94547 0.18558 0.0
Tb840 Tb 0.16626 0.3226 0.58901 0.0
Tb841 Tb 0.21504 0.34042 0.54836 0.0
C842 C 0.12907 0.30759 0.65389 0.0
C843 C 0.13441 0.292 0.70334 0.0
C844 C 0.15955 0.27563 0.70884 0.0
C845 C 0.16519 0.26042 0.75466 0.0
C846 C 0.14602 0.26181 0.79653 0.0
C847 C 0.12114 0.27869 0.79189 0.0
C848 C 0.11531 0.29362 0.74544 0.0
C849 C 0.15449 0.35822 0.50416 0.0
C850 C 0.21615 0.34389 0.67041 0.0
C851 C 0.25026 0.3667 0.49338 0.0
C852 C 0.24322 0.38528 0.45008 0.0
C853 C 0.21665 0.39946 0.45041 0.0
C854 C 0.20683 0.41294 0.40587 0.0
C855 C 0.22383 0.41304 0.36136 0.0
C856 C 0.25085 0.39988 0.36116 0.0
C857 C 0.2605 0.38575 0.40564 0.0
C858 C 0.2273 0.29024 0.592 0.0
C859 C 0.17739 0.29272 0.48698 0.0
O860 O 0.13495 0.29298 0.61165 0.0
O861 O 0.13915 0.33381 0.65153 0.0
O862 O 0.17385 0.36197 0.54037 0.0
O863 O 0.13965 0.33698 0.52151 0.0
O864 O 0.19322 0.32774 0.66258 0.0
O865 O 0.22639 0.35628 0.62809 0.0
O866 O 0.24121 0.37616 0.53836 0.0
O867 O 0.244 0.33975 0.48585 0.0
O868 O 0.20381 0.2978 0.57225 0.0
O869 O 0.2431 0.31282 0.59311 0.0
O870 O 0.19686 0.31349 0.48418 0.0
O871 O 0.16531 0.28794 0.53257 0.0
H872 H 0.17492 0.27476 0.67756 0.0
H873 H 0.18455 0.2477 0.75759 0.0
H874 H 0.10615 0.28004 0.82404 0.0
H875 H 0.09598 0.30635 0.7424 0.0
H876 H 0.20288 0.3991 0.48435 0.0
H877 H 0.18578 0.42259 0.40557 0.0
H878 H 0.26388 0.39977 0.32617 0.0
H879 H 0.28076 0.37443 0.40485 0.0
Tb880 Tb 0.91611 0.91588 0.83478 0.0
Tb881 Tb 0.89619 0.96554 0.7972 0.0
C882 C 0.93876 0.87966 0.89401 0.0
C883 C 0.95501 0.88441 0.94344 0.0
C884 C 0.98353 0.89434 0.94197 0.0
C885 C -0.00189 0.90129 0.9879 0.0
C886 C 0.9848 0.89794 1.03648 0.0
C887 C 0.95664 0.88749 1.03859 0.0
C888 C 0.94183 0.88086 0.99245 0.0
C889 C 0.87934 0.90259 0.7546 0.0
C890 C 0.89404 0.96293 0.9193 0.0
C891 C 0.86983 0.00816 0.76199 0.0
C892 C 0.85031 0.01815 0.72213 0.0
C893 C 0.82451 0.00374 0.71277 0.0
C894 C 0.81099 0.00741 0.66524 0.0
C895 C 0.82307 0.02563 0.62821 0.0
C896 C 0.84519 0.04443 0.64183 0.0
C897 C 0.85915 0.04039 0.6891 0.0
C898 C 0.94773 0.97576 0.83798 0.0
C899 C 0.93865 0.92952 0.72443 0.0
O900 O 0.95103 0.88942 0.85166 0.0
O901 O 0.91113 0.88519 0.89468 0.0
O902 O 0.87571 0.9233 0.78867 0.0
O903 O 0.90035 0.88773 0.77308 0.0
O904 O 0.91053 0.94049 0.91011 0.0
O905 O 0.88115 0.97372 0.87823 0.0
O906 O 0.85924 0.99013 0.79589 0.0
O907 O 0.89554 0.00088 0.74656 0.0
O908 O 0.93945 0.95357 0.81494 0.0
O909 O 0.92525 0.9911 0.84442 0.0
O910 O 0.91971 0.95096 0.72641 0.0
O911 O 0.94312 0.91404 0.76671 0.0
H912 H 0.99464 0.89703 0.90523 0.0
H913 H 0.01989 0.90915 0.98558 0.0
H914 H 0.94611 0.88461 0.07591 0.0
H915 H 0.91999 0.87326 0.99509 0.0
H916 H 0.81673 0.98718 0.73883 0.0
H917 H 0.7942 0.99274 0.65413 0.0
H918 H 0.85449 0.05867 0.61301 0.0
H919 H 0.87861 0.05226 0.69701 0.0
Tb920 Tb 0.32518 0.67325 0.0845 0.0
Tb921 Tb 0.28129 0.64746 1.04798 0.0
C922 C 0.36051 0.69861 0.14244 0.0
C923 C 0.35526 0.71129 0.19424 0.0
C924 C 0.32738 0.71105 0.21455 0.0
C925 C 0.32132 0.72346 0.26261 0.0
C926 C 0.34282 0.73767 0.29053 0.0
C927 C 0.37077 0.73854 0.26995 0.0
C928 C 0.37702 0.72513 0.22223 0.0
C929 C 0.34248 0.6419 0.99838 0.0
C930 C 0.28058 0.64901 0.16933 0.0
C931 C 0.25331 0.60227 1.03872 0.0
C932 C 0.25411 0.57757 1.00513 0.0
C933 C 0.279 0.57273 0.97578 0.0
C934 C 0.27622 0.56591 0.92329 0.0
C935 C 0.24888 0.56251 0.90258 0.0
C936 C 0.22493 0.56056 0.93514 0.0
C937 C 0.22757 0.56813 0.98703 0.0
C938 C 0.26165 0.69761 1.05948 0.0
C939 C 0.30672 0.69785 0.98068 0.0
O940 O 0.34647 0.71112 0.10475 0.0
O941 O 0.35862 0.67062 0.13956 0.0
O942 O 0.32513 0.634 1.03494 0.0
O943 O 0.35296 0.6657 1.01517 0.0
O944 O 0.3082 0.65299 0.15946 0.0
O945 O 0.26407 0.64954 0.12831 0.0
O946 O 0.27482 0.60498 0.0711 0.0
O947 O 0.24711 0.62614 1.01394 0.0
O948 O 0.28042 0.68673 0.09117 0.0
O949 O 0.25338 0.67978 1.02335 0.0
O950 O 0.2943 0.67222 0.97733 0.0
O951 O 0.31688 0.70525 1.02618 0.0
H952 H 0.31002 0.70178 0.19275 0.0
H953 H 0.29963 0.72257 0.27749 0.0
H954 H 0.38766 0.74953 0.29087 0.0
H955 H 0.3986 0.72596 0.20688 0.0
H956 H 0.29975 0.57946 0.99014 0.0
H957 H 0.29454 0.56729 0.89774 0.0
H958 H 0.2037 0.55763 0.91884 0.0
H959 H 0.20829 0.57163 1.00969 0.0
Tb960 Tb 0.38546 0.02697 0.79858 0.0
Tb961 Tb 0.41479 0.07266 0.83159 0.0
C962 C 0.34879 0.99028 0.76877 0.0
C963 C 0.34381 0.97187 0.72349 0.0
C964 C 0.32514 0.98303 0.68612 0.0
C965 C 0.33671 0.99027 0.63806 0.0
C966 C 0.36636 0.98573 0.62957 0.0
C967 C 0.3791 0.96331 0.65799 0.0
C968 C 0.36714 0.95568 0.70562 0.0
C969 C 0.43868 0.00987 0.82496 0.0
C970 C 0.43063 0.05684 0.7181 0.0
C971 C 0.44012 0.10746 0.88942 0.0
C972 C 0.4565 0.10219 0.93802 0.0
C973 C 0.48053 0.0839 0.93786 0.0
C974 C 0.49463 0.07705 0.98423 0.0
C975 C 0.48534 0.08883 1.03148 0.0
C976 C 0.46164 0.10735 1.03205 0.0
C977 C 0.44724 0.11391 0.9856 0.0
C978 C 0.37633 0.09159 0.75849 0.0
C979 C 0.39153 0.02856 0.91859 0.0
O980 O 0.34689 0.01785 0.76048 0.0
O981 O 0.37144 0.98441 0.79603 0.0
O982 O 0.43107 0.03294 0.80471 0.0
O983 O 0.4155 0.99578 0.83325 0.0
O984 O 0.40869 0.03812 0.72308 0.0
O985 O 0.43951 0.07095 0.76 0.0
O986 O 0.45136 0.09699 0.84663 0.0
O987 O 0.41237 0.10302 0.89214 0.0
O988 O 0.37139 0.072 0.7945 0.0
O989 O 0.40101 0.10182 0.7706 0.0
O990 O 0.41347 0.04452 0.90404 0.0
O991 O 0.37196 0.02558 0.88209 0.0
H992 H 0.30487 0.99249 0.69747 0.0
H993 H 0.32312 0.00186 0.61128 0.0
H994 H 0.39935 0.95392 0.64693 0.0
H995 H 0.37956 0.94255 0.73215 0.0
H996 H 0.48847 0.0748 0.90188 0.0
H997 H 0.513 0.06284 0.98324 0.0
H998 H 0.45435 0.11671 1.0684 0.0
H999 H 0.42878 0.12796 0.98687 0.0
Tb1000 Tb 0.71926 0.64374 0.54305 0.0
Tb1001 Tb 0.67164 0.67261 0.58063 0.0
C1002 C 0.75568 0.60847 0.51137 0.0
C1003 C 0.75995 0.58548 0.4747 0.0
C1004 C 0.73642 0.57038 0.45556 0.0
C1005 C 0.73897 0.55646 0.40836 0.0
C1006 C 0.76491 0.55689 0.38164 0.0
C1007 C 0.78984 0.56648 0.40633 0.0
C1008 C 0.7872 0.58141 0.45311 0.0
C1009 C 0.73551 0.69499 0.58078 0.0
C1010 C 0.68822 0.69106 0.47092 0.0
C1011 C 0.63808 0.70008 0.63903 0.0
C1012 C 0.64476 0.71648 0.68725 0.0
C1013 C 0.6734 0.72151 0.70124 0.0
C1014 C 0.6804 0.73627 0.74691 0.0
C1015 C 0.65881 0.74759 0.77883 0.0
C1016 C 0.63 0.74325 0.76441 0.0
C1017 C 0.62304 0.72757 0.71926 0.0
C1018 C 0.65555 0.63528 0.50233 0.0
C1019 C 0.71614 0.6456 0.66482 0.0
O1020 O 0.73694 0.60306 0.54787 0.0
O1021 O 0.75289 0.63429 0.49159 0.0
O1022 O 0.71264 0.68803 0.55918 0.0
O1023 O 0.7495 0.67145 0.58509 0.0
O1024 O 0.70355 0.66675 0.4712 0.0
O1025 O 0.67893 0.70148 0.51576 0.0
O1026 O 0.64909 0.71059 0.59613 0.0
O1027 O 0.64149 0.67215 0.64183 0.0
O1028 O 0.67474 0.63047 0.53835 0.0
O1029 O 0.64238 0.65787 0.51867 0.0
O1030 O 0.69702 0.66549 0.65405 0.0
O1031 O 0.72356 0.62928 0.62539 0.0
H1032 H 0.71548 0.5721 0.47349 0.0
H1033 H 0.7201 0.54871 0.38933 0.0
H1034 H 0.81011 0.56659 0.38581 0.0
H1035 H 0.80567 0.59238 0.46904 0.0
H1036 H 0.6905 0.71419 0.6766 0.0
H1037 H 0.70273 0.73914 0.75705 0.0
H1038 H 0.61292 0.75175 0.78846 0.0
H1039 H 0.60077 0.72425 0.70926 0.0
Tb1040 Tb 0.09338 0.96332 0.29168 0.0
Tb1041 Tb 0.07055 0.91588 0.33431 0.0
C1042 C 0.12102 0.0041 0.25242 0.0
C1043 C 0.14084 0.01184 0.21116 0.0
C1044 C 0.16733 -0.00212 0.20649 0.0
C1045 C 0.18079 -0.00271 0.15835 0.0
C1046 C 0.16763 0.01074 0.1159 0.0
C1047 C 0.14531 0.03037 0.12389 0.0
C1048 C 0.13156 0.03065 0.17195 0.0
C1049 C 0.04084 0.97663 0.32622 0.0
C1050 C 0.05122 0.92555 0.22207 0.0
C1051 C 0.04869 0.88045 0.39606 0.0
C1052 C 0.03261 0.88618 0.44441 0.0
C1053 C 0.02114 0.91363 0.45312 0.0
C1054 C 0.00618 0.91972 0.49877 0.0
C1055 C 0.00217 0.89837 0.53647 0.0
C1056 C 0.01361 0.87084 0.52814 0.0
C1057 C 0.0289 0.86482 0.48234 0.0
C1058 C 0.10887 0.89884 0.25882 0.0
C1059 C 0.0926 0.96501 0.41386 0.0
O1060 O 0.13097 0.98695 0.28848 0.0
O1061 O 0.0951 -0.00289 0.23784 0.0
O1062 O 0.04924 0.95348 0.30704 0.0
O1063 O 0.06369 0.99079 0.33425 0.0
O1064 O 0.07392 0.94305 0.22071 0.0
O1065 O 0.04185 0.91626 0.26774 0.0
O1066 O 0.03609 0.88922 0.35329 0.0
O1067 O 0.0759 0.88739 0.39723 0.0
O1068 O 0.11202 0.92049 0.29077 0.0
O1069 O 0.08713 0.88539 0.27737 0.0
O1070 O 0.07413 0.94418 0.40546 0.0
O1071 O 0.10825 0.97202 0.37307 0.0
H1072 H 0.17581 0.98457 0.23755 0.0
H1073 H 0.19872 0.98286 0.15259 0.0
H1074 H 0.13549 0.04135 0.09115 0.0
H1075 H 0.11174 0.04255 0.17611 0.0
H1076 H 0.02374 0.93048 0.42464 0.0
H1077 H -0.00238 0.94108 0.50465 0.0
H1078 H 0.01078 0.85417 0.55714 0.0
H1079 H 0.03775 0.84359 0.47653 0.0
Tb1080 Tb 0.77742 0.34823 1.04784 0.0
Tb1081 Tb 0.82586 0.3222 0.08395 0.0
C1082 C 0.73977 0.38334 1.01922 0.0
C1083 C 0.73493 0.4078 0.98578 0.0
C1084 C 0.75849 0.42258 0.96607 0.0
C1085 C 0.75651 0.43416 0.91665 0.0
C1086 C 0.73105 0.43174 0.88874 0.0
C1087 C 0.70565 0.42444 0.9145 0.0
C1088 C 0.70774 0.4117 0.96365 0.0
C1089 C 0.76256 0.29636 0.0818 0.0
C1090 C 0.80908 0.30093 0.97393 0.0
C1091 C 0.86131 0.29948 0.14447 0.0
C1092 C 0.85658 0.28564 0.1962 0.0
C1093 C 0.84223 0.30007 0.23692 0.0
C1094 C 0.83458 0.28559 0.28278 0.0
C1095 C 0.84174 0.25661 0.2894 0.0
C1096 C 0.85673 0.24232 0.2497 0.0
C1097 C 0.86394 0.25666 0.2034 0.0
C1098 C 0.84037 0.35943 1.00568 0.0
C1099 C 0.77962 0.34421 0.16972 0.0
O1100 O 0.75784 0.38787 1.05711 0.0
O1101 O 0.74422 0.3587 0.99586 0.0
O1102 O 0.78584 0.30399 1.0623 0.0
O1103 O 0.74814 0.3194 0.08915 0.0
O1104 O 0.79035 0.32286 0.97644 0.0
O1105 O 0.82444 0.29474 1.01592 0.0
O1106 O 0.84994 0.28595 0.10473 0.0
O1107 O 0.85742 0.32741 0.1416 0.0
O1108 O 0.82118 0.36402 1.04192 0.0
O1109 O 0.85389 0.33665 1.02045 0.0
O1110 O 0.79999 0.32568 0.15813 0.0
O1111 O 0.77075 0.36019 0.13085 0.0
H1112 H 0.77936 0.42099 0.98435 0.0
H1113 H 0.77583 0.43961 0.89644 0.0
H1114 H 0.68571 0.42289 0.8931 0.0
H1115 H 0.68919 0.401 0.97991 0.0
H1116 H 0.83638 0.32243 0.23315 0.0
H1117 H 0.82302 0.29695 0.31307 0.0
H1118 H 0.86241 0.21993 0.25423 0.0
H1119 H 0.87476 0.24491 0.17272 0.0
Tb1120 Tb 0.38915 0.95739 0.24308 0.0
Tb1121 Tb 0.41214 0.91042 0.20487 0.0
C1122 C 0.36453 0.99368 0.29673 0.0
C1123 C 0.37589 -0.00139 0.34802 0.0
C1124 C 0.38001 0.97488 0.38105 0.0
C1125 C 0.39684 0.97735 0.42473 0.0
C1126 C 0.40686 0.00437 0.43866 0.0
C1127 C 0.40616 0.02725 0.40337 0.0
C1128 C 0.39013 0.02448 0.35807 0.0
C1129 C 0.44206 0.97087 0.21263 0.0
C1130 C 0.4336 0.91976 0.31577 0.0
C1131 C 0.43441 0.87674 0.14074 0.0
C1132 C 0.45071 0.8839 0.09267 0.0
C1133 C 0.4386 0.90094 1.05286 0.0
C1134 C 0.45537 0.91074 1.01127 0.0
C1135 C 0.48438 0.90325 1.00818 0.0
C1136 C 0.49645 0.88587 1.04711 0.0
C1137 C 0.47981 0.87643 0.08916 0.0
C1138 C 0.37189 0.89467 0.27866 0.0
C1139 C 0.38945 0.95929 0.12357 0.0
O1140 O 0.35361 0.96846 0.28872 0.0
O1141 O 0.38253 0.00061 0.26063 0.0
O1142 O 0.4337 0.94783 0.23268 0.0
O1143 O 0.41952 0.98592 0.20373 0.0
O1144 O 0.41381 0.94064 0.31374 0.0
O1145 O 0.44008 0.90612 0.2723 0.0
O1146 O 0.44695 0.88446 0.18415 0.0
O1147 O 0.40688 0.88259 0.14104 0.0
O1148 O 0.36951 0.91528 0.24427 0.0
O1149 O 0.39434 0.88095 0.26322 0.0
O1150 O 0.40902 0.93957 0.13408 0.0
O1151 O 0.37261 0.96531 0.1632 0.0
H1152 H 0.37065 0.95417 0.37311 0.0
H1153 H 0.39781 0.95946 0.45181 0.0
H1154 H 0.41416 0.04817 0.41442 0.0
H1155 H 0.38836 0.04251 0.33156 0.0
H1156 H 0.41626 0.90703 1.05395 0.0
H1157 H 0.44563 0.92379 0.98106 0.0
H1158 H 0.51876 0.87962 1.04485 0.0
H1159 H 0.48979 0.86359 0.1194 0.0
Tb1160 Tb 0.77272 0.64248 1.00264 0.0
Tb1161 Tb 0.82009 0.66656 0.96262 0.0
C1162 C 0.74092 0.60117 1.02468 0.0
C1163 C 0.7439 0.57856 1.06272 0.0
C1164 C 0.7708 0.57484 0.0857 0.0
C1165 C 0.77248 0.56493 0.13637 0.0
C1166 C 0.74762 0.5567 0.16264 0.0
C1167 C 0.72116 0.55654 0.13696 0.0
C1168 C 0.71927 0.56777 0.08674 0.0
C1169 C 0.75787 0.69424 0.98682 0.0
C1170 C 0.8046 0.69152 1.06643 0.0
C1171 C 0.85542 0.69086 0.90283 0.0
C1172 C 0.85013 0.70589 0.85254 0.0
C1173 C 0.82238 0.70689 0.83124 0.0
C1174 C 0.8167 0.72221 0.78547 0.0
C1175 C 0.83845 0.73781 0.76063 0.0
C1176 C 0.86622 0.7372 0.78213 0.0
C1177 C 0.87204 0.7212 0.82747 0.0
C1178 C 0.83433 0.63105 1.04691 0.0
C1179 C 0.77293 0.6441 0.8794 0.0
O1180 O 0.75963 0.60057 0.98668 0.0
O1181 O 0.73844 0.6266 1.04578 0.0
O1182 O 0.77569 0.681 0.95677 0.0
O1183 O 0.74718 0.67764 1.02247 0.0
O1184 O 0.78964 0.66731 0.07059 0.0
O1185 O 0.814 0.69933 1.02049 0.0
O1186 O 0.84387 0.70321 0.9434 0.0
O1187 O 0.85134 0.66303 0.9035 0.0
O1188 O 0.81593 0.62652 1.01012 0.0
O1189 O 0.84784 0.65334 1.03032 0.0
O1190 O 0.80051 0.6492 0.88808 0.0
O1191 O 0.75677 0.64187 0.92114 0.0
H1192 H 0.78988 0.58355 1.06773 0.0
H1193 H 0.79245 0.56739 0.15733 0.0
H1194 H 0.70176 0.55096 0.15779 0.0
H1195 H 0.69837 0.57104 1.06936 0.0
H1196 H 0.80474 0.69644 0.85046 0.0
H1197 H 0.79513 0.72232 0.76993 0.0
H1198 H 0.88337 0.74912 0.76373 0.0
H1199 H 0.89351 0.72119 0.84342 0.0
Tb1200 Tb 0.08741 0.0267 0.74547 0.0
Tb1201 Tb 0.06899 0.07561 0.70784 0.0
C1202 C 0.11658 0.98626 0.78205 0.0
C1203 C 0.13933 0.9825 0.8192 0.0
C1204 C 0.14982 0.00648 0.84517 0.0
C1205 C 0.16346 0.00257 0.8922 0.0
C1206 C 0.16964 0.97498 0.91001 0.0
C1207 C 0.16466 0.95115 0.87815 0.0
C1208 C 0.14845 0.95489 0.83296 0.0
C1209 C 0.03643 0.01445 0.70422 0.0
C1210 C 0.03902 0.06134 0.8105 0.0
C1211 C 0.05359 0.11325 0.64391 0.0
C1212 C 0.03856 0.10803 0.59376 0.0
C1213 C 0.02331 0.0823 0.58662 0.0
C1214 C 0.00915 0.07656 0.5398 0.0
C1215 C 0.00953 0.09666 0.49921 0.0
C1216 C 0.02486 0.12237 0.5058 0.0
C1217 C 0.03941 0.12796 0.55274 0.0
C1218 C 0.10322 0.0862 0.79388 0.0
C1219 C 0.09044 0.02759 0.62475 0.0
O1220 O 0.12409 0.00177 0.74214 0.0
O1221 O 0.09163 0.99381 0.80101 0.0
O1222 O 0.04426 0.03803 0.72281 0.0
O1223 O 0.05924 -0.00045 0.70044 0.0
O1224 O 0.05992 0.04172 0.81233 0.0
O1225 O 0.036 0.07594 0.76682 0.0
O1226 O 0.0388 0.10655 0.68555 0.0
O1227 O 0.08007 0.10386 0.64677 0.0
O1228 O 0.10807 0.06777 0.7567 0.0
O1229 O 0.08213 0.10144 0.77671 0.0
O1230 O 0.07218 0.04856 0.6342 0.0
O1231 O 0.10489 0.01943 0.66587 0.0
H1232 H 0.14461 0.02796 0.83235 0.0
H1233 H 0.16544 0.02054 0.91817 0.0
H1234 H 0.16921 0.92972 0.89218 0.0
H1235 H 0.14112 0.93629 0.81149 0.0
H1236 H 0.02225 0.06657 0.61746 0.0
H1237 H -0.00254 0.05664 0.53553 0.0
H1238 H 0.02539 0.13813 0.47472 0.0
H1239 H 0.0511 0.14785 0.5571 0.0
Tb1240 Tb 0.71757 0.33883 0.50231 0.0
Tb1241 Tb 0.66822 0.32466 0.45894 0.0
C1242 C 0.75922 0.36847 0.53173 0.0
C1243 C 0.76239 0.37962 0.58345 0.0
C1244 C 0.74169 0.37071 0.61884 0.0
C1245 C 0.73971 0.38329 0.6665 0.0
C1246 C 0.75991 0.40363 0.68163 0.0
C1247 C 0.78223 0.41154 0.64779 0.0
C1248 C 0.78302 0.39994 0.59746 0.0
C1249 C 0.72043 0.28511 0.47924 0.0
C1250 C 0.6782 0.29832 0.56903 0.0
C1251 C 0.63232 0.30421 0.39714 0.0
C1252 C 0.63871 0.29033 0.34649 0.0
C1253 C 0.66435 0.27477 0.34062 0.0
C1254 C 0.67073 0.26072 0.294 0.0
C1255 C 0.65152 0.26195 0.2522 0.0
C1256 C 0.62615 0.27798 0.25718 0.0
C1257 C 0.61978 0.29214 0.30413 0.0
C1258 C 0.65574 0.3595 0.5436 0.0
C1259 C 0.7175 0.34468 0.37879 0.0
O1260 O 0.73709 0.37912 0.50717 0.0
O1261 O 0.7595 0.34056 0.5306 0.0
O1262 O 0.70933 0.30428 0.45006 0.0
O1263 O 0.72975 0.29632 0.52238 0.0
O1264 O 0.69867 0.318 0.57182 0.0
O1265 O 0.6656 0.29417 0.52356 0.0
O1266 O 0.64222 0.29022 0.43766 0.0
O1267 O 0.63729 0.33189 0.40029 0.0
O1268 O 0.67694 0.36241 0.51081 0.0
O1269 O 0.6407 0.33923 0.52323 0.0
O1270 O 0.68944 0.34264 0.38627 0.0
O1271 O 0.73351 0.34181 0.42059 0.0
H1272 H 0.7257 0.3552 0.60852 0.0
H1273 H 0.72246 0.37667 0.69219 0.0
H1274 H 0.79842 0.42672 0.66002 0.0
H1275 H 0.79927 0.40672 0.56996 0.0
H1276 H 0.6793 0.2731 0.3726 0.0
H1277 H 0.69032 0.24838 0.2909 0.0
H1278 H 0.61109 0.27907 0.22508 0.0
H1279 H 0.60001 0.30413 0.30757 0.0
C1280 C 0.20323 0.5127 0.49189 0.0
C1281 C 0.17672 0.51998 0.46885 0.0
C1282 C 0.15339 0.51848 0.55312 0.0
C1283 C 0.17821 0.50476 0.57332 0.0
N1284 N 0.22951 0.51008 0.57234 0.0
N1285 N 0.12577 0.53055 0.47799 0.0
C1286 C 0.20429 0.50788 0.54612 0.0
C1287 C 0.15181 0.52415 0.49969 0.0
N1288 N 0.22706 0.5093 0.46168 0.0
N1289 N 0.13009 0.52425 0.58334 0.0
H1290 H 0.12207 0.53231 0.43809 0.0
H1291 H 0.10721 0.53283 0.50035 0.0
H1292 H 0.12934 0.52073 0.62354 0.0
H1293 H 0.12934 0.52073 0.62354 0.0
H1294 H 0.24584 0.49991 0.47553 0.0
H1295 H 0.22741 0.51469 0.42213 0.0
H1296 H 0.24905 0.51362 0.55388 0.0
H1297 H 0.23002 0.51462 0.61196 0.0
C1298 C 0.76436 0.91117 0.82702 0.0
C1299 C 0.75869 0.93946 0.8439 0.0
C1300 C 0.75379 0.95594 0.75469 0.0
C1301 C 0.75431 0.92686 0.73905 0.0
N1302 N 0.75436 0.87617 0.76055 0.0
N1303 N 0.7492 0.98915 0.82675 0.0
C1304 C 0.75835 0.90416 0.7751 0.0
C1305 C 0.75434 0.96216 0.80849 0.0
N1306 N 0.77365 0.89088 0.86171 0.0
N1307 N 0.7525 0.97732 0.71828 0.0
H1308 H 0.75117 0.99425 0.86621 0.0
H1309 H 0.74204 0.00604 0.80357 0.0
H1310 H 0.75079 0.97335 0.67835 0.0
H1311 H 0.75481 -0.00105 0.7272 0.0
H1312 H 0.77987 0.87029 0.85072 0.0
H1313 H 0.77769 0.89568 0.90082 0.0
H1314 H 0.75437 0.85912 0.78685 0.0
H1315 H 0.74802 0.87007 0.72312 0.0
C1316 C 0.34064 0.49922 1.00873 0.0
C1317 C 0.36133 0.51836 0.98919 0.0
C1318 C 0.38184 0.52384 0.07528 0.0
C1319 C 0.35772 0.50877 0.09451 0.0
N1320 N 0.3367 0.46333 0.07429 0.0
N1321 N 0.40585 0.54406 1.00085 0.0
C1322 C 0.34362 0.49042 1.05991 0.0
C1323 C 0.38332 0.52934 1.02142 0.0
N1324 N 0.31864 0.48912 0.97881 0.0
N1325 N 0.40514 0.5293 0.10543 0.0
H1326 H 0.40804 0.54741 0.96082 0.0
H1327 H 0.42212 0.55256 1.02411 0.0
H1328 H 0.40738 0.52165 0.14355 0.0
H1329 H 0.40738 0.52165 0.14355 0.0
H1330 H 0.30274 0.47591 0.99437 0.0
H1331 H 0.31499 0.49586 0.94051 0.0
H1332 H 0.32876 0.44857 1.04737 0.0
H1333 H 0.34242 0.45558 0.11113 0.0
C1334 C 0.74151 0.10494 0.31707 0.0
C1335 C 0.73555 0.0788 0.34344 0.0
C1336 C 0.75435 0.05134 0.2701 0.0
C1337 C 0.75703 0.07728 0.24194 0.0
N1338 N 0.74763 0.12842 0.23443 0.0
N1339 N 0.73362 0.02725 0.34505 0.0
C1340 C 0.74911 0.10402 0.26416 0.0
C1341 C 0.74133 0.05194 0.32004 0.0
N1342 N 0.74098 0.13066 0.34285 0.0
N1343 N 0.76431 0.02637 0.24887 0.0
H1344 H 0.72364 0.02727 0.3815 0.0
H1345 H 0.73509 0.00697 0.32834 0.0
H1346 H 0.77382 0.02553 0.21202 0.0
H1347 H 0.76525 0.00702 0.26908 0.0
H1348 H 0.74748 0.14994 0.3261 0.0
H1349 H 0.73727 0.13276 0.38269 0.0
H1350 H 0.73803 0.14731 0.24727 0.0
H1351 H 0.7532 0.12944 0.19516 0.0
C1352 C 0.78668 0.48793 1.0568 0.0
C1353 C 0.81315 0.4831 0.08186 0.0
C1354 C 0.83935 0.48933 1.00076 0.0
C1355 C 0.81248 0.49191 0.97523 0.0
N1356 N 0.76086 0.49306 0.97572 0.0
N1357 N 0.86512 0.48339 0.08183 0.0
C1358 C 0.78621 0.49165 1.00239 0.0
C1359 C 0.83973 0.48472 1.05496 0.0
N1360 N 0.76215 0.48948 0.08556 0.0
N1361 N 0.86427 0.49053 0.97249 0.0
H1362 H 0.86658 0.4794 0.12174 0.0
H1363 H 0.8851 0.48752 1.06566 0.0
H1364 H 0.86497 0.49722 0.93362 0.0
H1365 H 0.88425 0.48438 0.9865 0.0
H1366 H 0.74293 0.49779 0.07159 0.0
H1367 H 0.7615 0.48317 0.12451 0.0
H1368 H 0.74096 0.48932 0.99263 0.0
H1369 H 0.75957 0.49629 0.93553 0.0
C1370 C 0.22655 0.03559 0.79901 0.0
C1371 C 0.22262 0.05836 0.83459 0.0
C1372 C 0.2147 0.09174 0.76413 0.0
C1373 C 0.22357 0.07035 0.72888 0.0
N1374 N 0.24256 0.02309 0.71219 0.0
N1375 N 0.2244 0.10987 0.84912 0.0
C1376 C 0.23057 0.04237 0.74581 0.0
C1377 C 0.21964 0.08704 0.81693 0.0
N1378 N 0.2268 0.0079 0.81606 0.0
N1379 N 0.20315 0.11702 0.74698 0.0
H1380 H 0.23038 0.10778 0.88804 0.0
H1381 H 0.22607 0.13081 0.83507 0.0
H1382 H 0.19882 0.12104 0.70765 0.0
H1383 H 0.19549 0.13268 0.77245 0.0
H1384 H 0.22717 0.99041 0.79078 0.0
H1385 H 0.22427 0.00261 0.85532 0.0
H1386 H 0.25088 0.00346 0.72441 0.0
H1387 H 0.24607 0.02766 0.67282 0.0
C1388 C 0.62948 0.50966 0.46153 0.0
C1389 C 0.65988 0.50934 0.45414 0.0
C1390 C 0.66543 0.48104 0.53099 0.0
C1391 C 0.63737 0.48757 0.54572 0.0
N1392 N 0.58986 0.50148 0.51884 0.0
N1393 N 0.70709 0.49822 0.48735 0.0
C1394 C 0.61845 0.49968 0.5091 0.0
C1395 C 0.67806 0.49725 0.49201 0.0
N1396 N 0.61098 0.5188 0.42366 0.0
N1397 N 0.67726 0.45563 0.54477 0.0
H1398 H 0.71722 0.5091 0.457 0.0
H1399 H 0.72059 0.48977 0.51601 0.0
H1400 H 0.66377 0.43919 0.55674 0.0
H1401 H 0.69759 0.44923 0.53246 0.0
H1402 H 0.58881 0.5187 0.429 0.0
H1403 H 0.6173 0.52614 0.38716 0.0
H1404 H 0.58042 0.49348 0.55283 0.0
H1405 H 0.58042 0.49348 0.55283 0.0
C1406 C 0.25644 0.92947 0.28868 0.0
C1407 C 0.2554 0.89906 0.28679 0.0
C1408 C 0.27861 0.89932 0.20258 0.0
C1409 C 0.27136 0.92871 0.1985 0.0
N1410 N 0.25718 0.97301 0.23724 0.0
N1411 N 0.26533 0.85429 0.24288 0.0
C1412 C 0.26259 0.94441 0.24232 0.0
C1413 C 0.267 0.88359 0.24437 0.0
N1414 N 0.25188 0.94386 0.33441 0.0
N1415 N 0.29344 0.88634 0.1633 0.0
H1416 H 0.25576 0.84223 0.27245 0.0
H1417 H 0.27127 0.84208 0.21063 0.0
H1418 H 0.30096 0.89799 0.13131 0.0
H1419 H 0.30031 0.86509 0.1648 0.0
H1420 H 0.25495 0.96587 0.3382 0.0
H1421 H 0.24764 0.93358 0.36975 0.0
H1422 H 0.2467 0.98515 0.26553 0.0
H1423 H 0.26222 0.98403 0.20291 0.0
C1424 C 0.65631 0.0098 1.03721 0.0
C1425 C 0.68227 0.00788 1.06557 0.0
C1426 C 0.71006 0.01983 0.98808 0.0
C1427 C 0.68424 0.01929 0.95913 0.0
N1428 N 0.63341 0.00824 0.95361 0.0
N1429 N 0.73344 0.01182 0.0719 0.0
C1430 C 0.65746 0.01313 0.98298 0.0
C1431 C 0.70915 0.01318 1.04216 0.0
N1432 N 0.6304 0.00871 1.06218 0.0
N1433 N 0.73517 0.02611 0.96321 0.0
H1434 H 0.73303 0.00719 0.11177 0.0
H1435 H 0.75404 0.0151 1.05787 0.0
H1436 H 0.7359 0.03207 0.92395 0.0
H1437 H 0.75516 0.0263 0.98095 0.0
H1438 H 0.61114 0.01419 1.04423 0.0
H1439 H 0.628 0.00456 0.10188 0.0
H1440 H 0.61479 -0.00091 0.96854 0.0
H1441 H 0.63234 0.01075 0.91337 0.0
C1442 C 0.19118 0.42013 0.22858 0.0
C1443 C 0.20771 0.44361 0.21172 0.0
C1444 C 0.22118 0.45411 0.30087 0.0
C1445 C 0.21284 0.42583 0.31368 0.0
N1446 N 0.19198 0.38047 0.2888 0.0
N1447 N 0.23375 0.48637 0.23015 0.0
C1448 C 0.19736 0.40862 0.27805 0.0
C1449 C 0.21997 0.46255 0.24797 0.0
N1450 N 0.17391 0.40631 0.19387 0.0
N1451 N 0.23166 0.47193 0.33851 0.0
H1452 H 0.23292 0.49218 0.19076 0.0
H1453 H 0.24646 0.49949 0.2534 0.0
H1454 H 0.23345 0.46567 0.37751 0.0
H1455 H 0.2363 0.49344 0.33191 0.0
H1456 H 0.16076 0.38918 0.20423 0.0
H1457 H 0.17133 0.41395 0.15579 0.0
H1458 H 0.18391 0.36612 0.26136 0.0
H1459 H 0.19803 0.37091 0.32383 0.0
C1460 C 0.84095 -0.00324 0.49641 0.0
C1461 C 0.81419 -0.0002 0.47066 0.0
C1462 C 0.79384 0.02292 0.54737 0.0
C1463 C 0.81977 0.01732 0.57393 0.0
N1464 N 0.86563 0.99178 0.57618 0.0
N1465 N 0.76402 0.01152 0.47277 0.0
C1466 C 0.84236 0.00195 0.54973 0.0
C1467 C 0.79019 0.01166 0.49651 0.0
N1468 N 0.86549 0.98948 0.47036 0.0
N1469 N 0.77315 0.0393 0.57046 0.0
H1470 H 0.76087 0.00291 0.43564 0.0
H1471 H 0.74517 0.01775 0.4912 0.0
H1472 H 0.77542 0.04787 0.60786 0.0
H1473 H 0.75464 0.04601 0.55145 0.0
H1474 H 0.88517 0.98709 0.48927 0.0
H1475 H 0.8671 0.98848 0.42994 0.0
H1476 H 0.86846 0.99293 0.6165 0.0
H1477 H 0.86846 0.99293 0.6165 0.0
C1478 C 0.21356 0.59549 0.78954 0.0
C1479 C 0.2198 0.57561 0.74987 0.0
C1480 C 0.24439 0.54524 0.81263 0.0
C1481 C 0.24367 0.56827 0.84789 0.0
N1482 N 0.23225 0.61798 0.86635 0.0
N1483 N 0.22328 0.52512 0.73529 0.0
C1484 C 0.22978 0.59437 0.83522 0.0
C1485 C 0.22968 0.54824 0.76506 0.0
N1486 N 0.19043 0.61318 0.78578 0.0
N1487 N 0.25986 0.52116 0.82385 0.0
H1488 H 0.21114 0.52758 0.70159 0.0
H1489 H 0.22843 0.50417 0.74567 0.0
H1490 H 0.27137 0.51883 0.85851 0.0
H1491 H 0.26341 0.50484 0.79689 0.0
H1492 H 0.18401 0.62669 0.81606 0.0
H1493 H 0.17658 0.61201 0.75393 0.0
H1494 H 0.22402 0.63794 0.85543 0.0
H1495 H 0.24479 0.61805 0.90004 0.0
C1496 C 0.36864 0.02261 0.5599 0.0
C1497 C 0.3833 0.00414 0.59338 0.0
C1498 C 0.42212 0.00167 0.53069 0.0
C1499 C 0.40224 0.0109 0.49269 0.0
N1500 N 0.35302 0.02635 0.4728 0.0
N1501 N 0.4321 0.99472 0.62097 0.0
C1502 C 0.37473 0.02117 0.50741 0.0
C1503 C 0.41266 -0.00076 0.58254 0.0
N1504 N 0.34968 0.0421 0.57805 0.0
N1505 N 0.4493 0.994 0.51723 0.0
H1506 H 0.42692 -0.00391 0.6605 0.0
H1507 H 0.42692 -0.00391 0.6605 0.0
H1508 H 0.45681 0.99558 0.47892 0.0
H1509 H 0.46394 0.98618 0.54462 0.0
H1510 H 0.3407 0.05734 0.55315 0.0
H1511 H 0.3464 0.04455 0.618 0.0
H1512 H 0.33217 0.03076 0.48513 0.0
H1513 H 0.35425 0.02346 0.4329 0.0
C1514 C 0.75001 0.52984 0.24629 0.0
C1515 C 0.7487 0.55627 0.2195 0.0
C1516 C 0.76055 0.58287 0.2981 0.0
C1517 C 0.76291 0.55617 0.32489 0.0
N1518 N 0.75656 0.50493 0.32853 0.0
N1519 N 0.74594 0.60793 0.21972 0.0
C1520 C 0.75687 0.52975 0.30001 0.0
C1521 C 0.75214 0.58284 0.24534 0.0
N1522 N 0.74453 0.50502 0.22002 0.0
N1523 N 0.7658 0.60825 0.32326 0.0
H1524 H 0.73925 0.60871 0.1809 0.0
H1525 H 0.74504 0.62797 0.23744 0.0
H1526 H 0.76813 0.61024 0.36346 0.0
H1527 H 0.76897 0.62769 0.30417 0.0
H1528 H 0.74898 0.48462 0.23436 0.0
H1529 H 0.73508 0.50509 0.18321 0.0
H1530 H 0.7492 0.48536 0.31453 0.0
H1531 H 0.76287 0.50404 0.36759 0.0
C1532 C 0.19616 -0.00173 1.03691 0.0
C1533 C 0.17017 -0.00318 1.06512 0.0
C1534 C 0.14729 0.96983 0.99548 0.0
C1535 C 0.17286 0.97228 0.96627 0.0
N1536 N 0.22315 0.9816 0.96167 0.0
N1537 N 0.12341 0.97382 0.07628 0.0
C1538 C 0.19801 0.9838 0.98846 0.0
C1539 C 0.14655 0.98061 1.04619 0.0
N1540 N 0.21829 0.01454 1.05525 0.0
N1541 N 0.12312 0.95786 0.97464 0.0
H1542 H 0.12161 0.97801 0.11612 0.0
H1543 H 0.12161 0.97801 0.11612 0.0
H1544 H 0.1222 0.94868 0.93772 0.0
H1545 H 0.10372 0.957 0.99486 0.0
H1546 H 0.23711 0.01821 1.03468 0.0
H1547 H 0.21718 0.02599 0.09017 0.0
H1548 H 0.24281 0.98857 0.9758 0.0
H1549 H 0.22439 0.97023 0.92664 0.0
C1550 C 0.74923 0.4416 0.74706 0.0
C1551 C 0.7579 0.41324 0.73561 0.0
C1552 C 0.74081 0.39633 0.81967 0.0
C1553 C 0.73478 0.42535 0.8334 0.0
N1554 N 0.73847 0.47592 0.81469 0.0
N1555 N 0.76727 0.36473 0.7621 0.0
C1556 C 0.7406 0.44812 0.79845 0.0
C1557 C 0.75575 0.39107 0.77305 0.0
N1558 N 0.7473 0.46175 0.70847 0.0
N1559 N 0.73352 0.37407 0.85197 0.0
H1560 H 0.78122 0.3615 0.73077 0.0
H1561 H 0.76329 0.34615 0.78304 0.0
H1562 H 0.72385 0.37647 0.88806 0.0
H1563 H 0.73528 0.35254 0.84214 0.0
H1564 H 0.73777 0.48172 0.71412 0.0
H1565 H 0.75318 0.45783 0.66989 0.0
H1566 H 0.74607 0.49312 0.79268 0.0
H1567 H 0.73074 0.48157 0.85151 0.0
C1568 C 0.15172 0.35878 0.40025 0.0
C1569 C 0.14747 0.37353 0.44902 0.0
C1570 C 0.1233 0.41113 0.39196 0.0
C1571 C 0.12418 0.39404 0.34472 0.0
N1572 N 0.13449 0.34631 0.31348 0.0
N1573 N 0.12281 0.41321 0.48803 0.0
C1574 C 0.13628 0.36609 0.35254 0.0
C1575 C 0.13123 0.39949 0.44365 0.0
N1576 N 0.17413 0.3405 0.39654 0.0
N1577 N 0.11566 0.4391 0.38783 0.0
H1578 H 0.12891 0.4061 0.52506 0.0
H1579 H 0.10823 0.43013 0.48805 0.0
H1580 H 0.11358 0.44866 0.35147 0.0
H1581 H 0.11586 0.45341 0.41903 0.0
H1582 H 0.17841 0.32802 0.36372 0.0
H1583 H 0.19203 0.3448 0.41921 0.0
H1584 H 0.14005 0.32485 0.31909 0.0
H1585 H 0.12608 0.35097 0.27674 0.0
C1586 C 0.8514 0.9116 0.66219 0.0
C1587 C 0.86468 0.89311 0.70039 0.0
C1588 C 0.86755 0.85669 0.6279 0.0
C1589 C 0.85083 0.87296 0.59066 0.0
N1590 N 0.83009 0.91916 0.57441 0.0
N1591 N 0.87311 0.84298 0.71849 0.0
C1592 C 0.84352 0.90137 0.60892 0.0
C1593 C 0.86869 0.86424 0.68268 0.0
N1594 N 0.8462 0.93912 0.67681 0.0
N1595 N 0.88518 0.83515 0.61145 0.0
H1596 H 0.87141 0.84643 0.75859 0.0
H1597 H 0.87409 0.82137 0.70805 0.0
H1598 H 0.89143 0.83257 0.57285 0.0
H1599 H 0.89835 0.82372 0.63698 0.0
H1600 H 0.83734 0.95452 0.65255 0.0
H1601 H 0.85114 0.94655 0.71407 0.0
H1602 H 0.82239 0.93947 0.5833 0.0
H1603 H 0.82599 0.91304 0.536 0.0
C1604 C 0.33603 0.62326 0.8999 0.0
C1605 C 0.35326 0.62684 0.94638 0.0
C1606 C 0.3936 0.60835 0.89112 0.0
C1607 C 0.37769 0.60863 0.84267 0.0
N1608 N 0.33129 0.6181 0.80561 0.0
N1609 N 0.40149 0.62623 0.97926 0.0
C1610 C 0.34835 0.61691 0.84872 0.0
C1611 C 0.38297 0.62107 0.9391 0.0
N1612 N 0.30717 0.62513 0.90266 0.0
N1613 N 0.41716 0.59158 0.89459 0.0
H1614 H 0.39486 0.6322 1.01655 0.0
H1615 H 0.42363 0.6259 0.9746 0.0
H1616 H 0.41922 0.5745 0.86963 0.0
H1617 H 0.42972 0.58954 0.92797 0.0
H1618 H 0.29609 0.62632 0.93782 0.0
H1619 H 0.29609 0.62632 0.93782 0.0
H1620 H 0.30973 0.62393 0.80755 0.0
H1621 H 0.33898 0.61389 0.76817 0.0
C1622 C 0.66423 0.11648 0.14305 0.0
C1623 C 0.64958 0.1107 0.09463 0.0
C1624 C 0.61814 0.07926 0.15029 0.0
C1625 C 0.6286 0.08969 0.19972 0.0
N1626 N 0.66194 0.12255 0.23831 0.0
N1627 N 0.60785 0.08822 1.05817 0.0
C1628 C 0.65168 0.10971 0.19435 0.0
C1629 C 0.62484 0.09302 0.10055 0.0
N1630 N 0.69082 0.1279 0.14033 0.0
N1631 N 0.60457 0.05374 0.14954 0.0
H1632 H 0.61271 0.09617 1.02113 0.0
H1633 H 0.58816 0.07784 1.06086 0.0
H1634 H 0.60841 0.03951 0.17986 0.0
H1635 H 0.59533 0.04481 0.11636 0.0
H1636 H 0.70324 0.13241 0.17289 0.0
H1637 H 0.70163 0.12855 0.10492 0.0
H1638 H 0.67639 0.13954 0.23741 0.0
H1639 H 0.6544 0.11732 0.27548 0.0
C1640 C 0.14949 0.58067 0.66574 0.0
C1641 C 0.12956 0.59585 0.6986 0.0
C1642 C 0.12218 0.62824 0.62074 0.0
C1643 C 0.14447 0.61589 0.58872 0.0
N1644 N 0.18038 0.57904 0.58733 0.0
N1645 N 0.11053 0.64394 0.70798 0.0
C1646 C 0.15853 0.5918 0.61361 0.0
C1647 C 0.12023 0.62255 0.67623 0.0
N1648 N 0.1601 0.55551 0.68419 0.0
N1649 N 0.10096 0.64435 0.59875 0.0
H1650 H 0.11264 0.64319 0.74847 0.0
H1651 H 0.10502 0.66417 0.69364 0.0
H1652 H 0.0969 0.64473 0.55886 0.0
H1653 H 0.08419 0.65288 0.62075 0.0
H1654 H 0.17203 0.54155 0.66145 0.0
H1655 H 0.15542 0.54794 0.7215 0.0
H1656 H 0.19373 0.56363 0.60367 0.0
H1657 H 0.18568 0.58472 0.54923 0.0
C1658 C 0.63139 0.9122 0.88033 0.0
C1659 C 0.6238 0.89273 0.83883 0.0
C1660 C 0.62577 0.85415 0.90774 0.0
C1661 C 0.6376 0.87236 0.94808 0.0
N1662 N 0.64801 0.92126 0.97029 0.0
N1663 N 0.6236 0.84277 0.81533 0.0
C1664 C 0.63957 0.90211 0.93316 0.0
C1665 C 0.62439 0.86313 0.85356 0.0
N1666 N 0.62995 0.94069 0.86989 0.0
N1667 N 0.61264 0.82897 0.92063 0.0
H1668 H 0.62393 0.84794 0.77569 0.0
H1669 H 0.62642 0.82098 0.82306 0.0
H1670 H 0.60626 0.82384 0.95828 0.0
H1671 H 0.60266 0.81589 0.89312 0.0
H1672 H 0.63055 0.95661 0.8982 0.0
H1673 H 0.62725 0.94812 0.83195 0.0
H1674 H 0.65295 0.94259 0.96258 0.0
H1675 H 0.65156 0.91523 1.00897 0.0
C1676 C 0.35127 0.39643 0.17852 0.0
C1677 C 0.37867 0.38803 0.19905 0.0
C1678 C 0.38906 0.36978 0.10741 0.0
C1679 C 0.36085 0.37535 0.08771 0.0
N1680 N 0.31908 0.40314 0.10397 0.0
N1681 N 0.41805 0.35525 0.18093 0.0
C1682 C 0.34307 0.39102 0.12357 0.0
C1683 C 0.39593 0.37167 0.16269 0.0
N1684 N 0.33177 0.40739 0.21264 0.0
N1685 N 0.4104 0.36352 0.07276 0.0
H1686 H 0.42029 0.34955 0.21995 0.0
H1687 H 0.43084 0.34249 0.15708 0.0
H1688 H 0.40753 0.36456 1.03246 0.0
H1689 H 0.43184 0.36178 0.08355 0.0
H1690 H 0.31057 0.41174 0.20302 0.0
H1691 H 0.3361 0.40913 0.25241 0.0
H1692 H 0.30806 0.41933 0.12331 0.0
H1693 H 0.31345 0.4005 1.06513 0.0
C1694 C 0.82765 0.12478 0.39871 0.0
C1695 C 0.83779 0.11332 0.44748 0.0
C1696 C 0.86464 0.0784 0.38934 0.0
C1697 C 0.85912 0.094 0.34148 0.0
N1698 N 0.83738 0.13708 0.30782 0.0
N1699 N 0.86971 0.0787 0.48501 0.0
C1700 C 0.84166 0.11894 0.34886 0.0
C1701 C 0.85747 0.08999 0.44125 0.0
N1702 N 0.8019 0.13805 0.39824 0.0
N1703 N 0.87672 0.05209 0.38552 0.0
H1704 H 0.86416 0.08564 0.52241 0.0
H1705 H 0.88648 0.06399 0.48399 0.0
H1706 H 0.87861 0.04239 0.34935 0.0
H1707 H 0.88075 0.03878 0.41729 0.0
H1708 H 0.79328 0.14745 0.36491 0.0
H1709 H 0.78736 0.13385 0.4281 0.0
H1710 H 0.82745 0.15699 0.3122 0.0
H1711 H 0.84533 0.13296 0.27051 0.0
C1712 C 0.87161 0.57879 0.15136 0.0
C1713 C 0.86547 0.59158 0.20148 0.0
C1714 C 0.83152 0.62257 0.15005 0.0
C1715 C 0.84227 0.61419 0.0995 0.0
N1716 N 0.87833 0.58552 1.05742 0.0
N1717 N 0.84181 0.63177 0.24187 0.0
C1718 C 0.86432 0.59293 0.10207 0.0
C1719 C 0.84654 0.61564 0.19838 0.0
N1720 N 0.88174 0.55157 0.14997 0.0
N1721 N 0.80471 0.6335 0.15347 0.0
H1722 H 0.85097 0.62685 0.27796 0.0
H1723 H 0.83031 0.65096 0.24056 0.0
H1724 H 0.79005 0.62905 0.12404 0.0
H1725 H 0.79551 0.63996 0.18864 0.0
H1726 H 0.88583 0.54058 0.11535 0.0
H1727 H 0.88001 0.53865 0.18281 0.0
H1728 H 0.89636 0.5723 1.05761 0.0
H1729 H 0.87305 0.59429 1.02116 0.0
C1730 C 0.13587 0.11898 0.85342 0.0
C1731 C 0.11926 0.09348 0.8475 0.0
C1732 C 0.1212 0.0908 0.94728 0.0
C1733 C 0.1405 0.11441 0.95216 0.0
N1734 N 0.17512 0.13982 0.90119 0.0
N1735 N 0.10284 0.05166 0.89378 0.0
C1736 C 0.14985 0.12582 0.90274 0.0
C1737 C 0.11383 0.07854 0.8961 0.0
N1738 N 0.13948 0.13659 0.8114 0.0
N1739 N 0.10982 0.07961 0.99183 0.0
H1740 H 0.10128 0.04107 0.85842 0.0
H1741 H 0.09999 0.03849 0.92621 0.0
H1742 H 0.11555 0.08696 1.02886 0.0
H1743 H 0.09371 0.06427 0.99188 0.0
H1744 H 0.14912 0.15667 0.81436 0.0
H1745 H 0.13128 0.13185 0.77452 0.0
H1746 H 0.18298 0.15018 0.86815 0.0
H1747 H 0.19045 0.13452 0.92902 0.0
C1748 C 0.61833 0.36843 0.6183 0.0
C1749 C 0.64611 0.3746 0.59754 0.0
C1750 C 0.65412 0.40073 0.68462 0.0
C1751 C 0.62728 0.39146 0.70687 0.0
N1752 N 0.58905 0.35638 0.69209 0.0
N1753 N 0.68776 0.40334 0.61047 0.0
C1754 C 0.61129 0.37224 0.67308 0.0
C1755 C 0.66323 0.39258 0.63098 0.0
N1756 N 0.59687 0.36108 0.58457 0.0
N1757 N 0.6722 0.41558 0.71643 0.0
H1758 H 0.69464 0.39793 0.57307 0.0
H1759 H 0.69942 0.41989 0.62733 0.0
H1760 H 0.66677 0.42092 0.75471 0.0
H1761 H 0.6929 0.42149 0.70642 0.0
H1762 H 0.57572 0.35804 0.59633 0.0
H1763 H 0.59885 0.36305 0.54421 0.0
H1764 H 0.58023 0.33932 0.67126 0.0
H1765 H 0.58018 0.35826 0.72883 0.0
C1766 C 0.35627 0.85023 0.40775 0.0
C1767 C 0.3403 0.86857 0.44324 0.0
C1768 C 0.33823 0.90311 0.36505 0.0
C1769 C 0.35599 0.88553 0.33226 0.0
N1770 N 0.36666 0.83576 0.31843 0.0
N1771 N 0.31839 0.91498 0.4516 0.0
C1772 C 0.36044 0.8573 0.35281 0.0
C1773 C 0.33185 0.89563 0.42022 0.0
N1774 N 0.36894 0.82571 0.4256 0.0
N1775 N 0.32408 0.92502 0.34145 0.0
H1776 H 0.31298 0.91031 0.49017 0.0
H1777 H 0.31445 0.93612 0.4407 0.0
H1778 H 0.32425 0.92701 0.30088 0.0
H1779 H 0.30935 0.93817 0.36022 0.0
H1780 H 0.38428 0.81448 0.40425 0.0
H1781 H 0.36606 0.81692 0.46217 0.0
H1782 H 0.36711 0.81415 0.32885 0.0
H1783 H 0.36681 0.83883 0.27811 0.0
C1784 C 0.84218 0.39111 0.85872 0.0
C1785 C 0.87225 0.39063 0.84627 0.0
C1786 C 0.87962 0.37719 0.94141 0.0
C1787 C 0.84984 0.37572 0.95363 0.0
N1788 N 0.80263 0.37906 0.9183 0.0
N1789 N 0.91538 0.36636 0.87704 0.0
C1790 C 0.83118 0.38238 0.91056 0.0
C1791 C 0.88981 0.37915 0.88801 0.0
N1792 N 0.82362 0.39863 0.82011 0.0
N1793 N 0.89897 0.37624 0.98131 0.0
H1794 H 0.92157 0.36035 0.8398 0.0
H1795 H 0.92776 0.35622 0.90547 0.0
H1796 H 0.89276 0.37544 1.02043 0.0
H1797 H 0.9208 0.37977 0.97556 0.0
H1798 H 0.80254 0.40435 0.82744 0.0
H1799 H 0.8302 0.40182 0.78162 0.0
H1800 H 0.7875 0.37974 0.88864 0.0
H1801 H 0.79433 0.37446 0.95502 0.0
C1802 C 0.37087 0.1303 0.6229 0.0
C1803 C 0.34604 0.12023 0.59518 0.0
C1804 C 0.33715 0.09062 0.67852 0.0
C1805 C 0.36108 0.10299 0.70591 0.0
N1806 N 0.38862 0.14697 0.70584 0.0
N1807 N 0.30605 0.08822 0.60018 0.0
C1808 C 0.37404 0.12654 0.67855 0.0
C1809 C 0.32904 0.09998 0.62472 0.0
N1810 N 0.39347 0.1416 0.59608 0.0
N1811 N 0.32152 0.0706 0.70463 0.0
H1812 H 0.3004 0.09385 0.56222 0.0
H1813 H 0.29346 0.07194 0.61553 0.0
H1814 H 0.32528 0.06625 0.74394 0.0
H1815 H 0.30453 0.05914 0.68891 0.0
H1816 H 0.41239 0.14774 0.6146 0.0
H1817 H 0.39562 0.13983 0.55575 0.0
H1818 H 0.397 0.16524 0.68794 0.0
H1819 H 0.38802 0.14817 0.74648 0.0
C1820 C 0.60534 0.59997 0.39464 0.0
C1821 C 0.62159 0.59826 0.34654 0.0
C1822 C 0.66302 0.61459 0.40445 0.0
C1823 C 0.64545 0.61906 0.45033 0.0
N1824 N 0.59649 0.6206 0.48008 0.0
N1825 N 0.66692 0.61066 0.30865 0.0
C1826 C 0.6157 0.61373 0.44183 0.0
C1827 C 0.65074 0.60765 0.35259 0.0
N1828 N 0.58085 0.58479 0.39862 0.0
N1829 N 0.69186 0.61608 0.41029 0.0
H1830 H 0.65902 0.60556 0.2717 0.0
H1831 H 0.68708 0.62015 0.30848 0.0
H1832 H 0.70636 0.61157 0.38054 0.0
H1833 H 0.70099 0.61816 0.44709 0.0
H1834 H 0.56835 0.58336 0.43223 0.0
H1835 H 0.57781 0.56809 0.37365 0.0
H1836 H 0.57453 0.62195 0.47302 0.0
H1837 H 0.60235 0.626 0.51805 0.0
C1838 C 0.14524 0.89928 0.11474 0.0
C1839 C 0.13479 0.87324 0.09169 0.0
C1840 C 0.11296 0.86311 0.17994 0.0
C1841 C 0.12145 0.88995 0.20285 0.0
N1842 N 0.15274 0.92993 0.19198 0.0
N1843 N 0.09612 0.83913 0.10236 0.0
C1844 C 0.13947 0.90707 0.16984 0.0
C1845 C 0.11512 0.85776 0.1244 0.0
N1846 N 0.15866 0.91807 0.08259 0.0
N1847 N 0.10454 0.84109 0.21157 0.0
H1848 H 0.0926 0.83803 1.06228 0.0
H1849 H 0.08028 0.82876 0.12395 0.0
H1850 H 0.10655 0.84176 0.25206 0.0
H1851 H 0.10032 0.82057 0.19737 0.0
H1852 H 0.1674 0.93725 0.09519 0.0
H1853 H 0.16079 0.91442 1.04265 0.0
H1854 H 0.16977 0.94048 0.1746 0.0
H1855 H 0.14913 0.93596 0.23055 0.0
C1856 C -0.0011 0.52019 0.29428 0.0
C1857 C 0.97847 0.49987 0.31146 0.0
C1858 C 0.99433 0.46683 0.24312 0.0
C1859 C 0.01487 0.48715 0.22621 0.0
N1860 N 0.02798 0.53692 0.22227 0.0
N1861 N 0.96495 0.45013 0.31485 0.0
C1862 C 0.0147 0.51502 0.24799 0.0
C1863 C 0.97845 0.47201 0.28942 0.0
N1864 N 0.00326 0.54431 0.32317 0.0
N1865 N 0.98998 0.44275 0.21405 0.0
H1866 H 0.95642 0.45277 0.35221 0.0
H1867 H 0.96573 0.42888 0.30245 0.0
H1868 H 0.00105 0.43941 0.17916 0.0
H1869 H 0.97384 0.42795 0.22173 0.0
H1870 H 0.01937 0.55912 0.31528 0.0
H1871 H 0.99235 0.54757 0.35824 0.0
H1872 H 0.02668 0.55825 0.23409 0.0
H1873 H 0.03687 0.53409 0.18522 0.0
C1874 C 0.76602 0.74197 0.47517 0.0
C1875 C 0.75075 0.76745 0.48664 0.0
C1876 C 0.73603 0.74719 0.57077 0.0
C1877 C 0.7493 0.72101 0.55823 0.0
N1878 N 0.78123 0.69439 0.50198 0.0
N1879 N 0.71337 0.78996 0.53764 0.0
C1880 C 0.76562 0.71864 0.51131 0.0
C1881 C 0.73338 0.76883 0.53217 0.0
N1882 N 0.78135 0.74062 0.42976 0.0
N1883 N 0.72634 0.75131 0.62041 0.0
H1884 H 0.70796 0.80389 0.50745 0.0
H1885 H 0.69914 0.79089 0.5689 0.0
H1886 H 0.73061 0.73631 0.64968 0.0
H1887 H 0.71781 0.77062 0.63371 0.0
H1888 H 0.79384 0.72333 0.41823 0.0
H1889 H 0.7809 0.75703 0.40209 0.0
H1890 H 0.79015 0.68895 0.46619 0.0
H1891 H 0.78702 0.68018 0.53147 0.0
C1892 C 0.49583 0.45228 0.77855 0.0
C1893 C 0.50605 0.46472 0.82513 0.0
C1894 C 0.46532 0.49687 0.81926 0.0
C1895 C 0.4649 0.49297 0.76391 0.0
N1896 N 0.48001 0.46331 0.69157 0.0
N1897 N 0.49558 0.49722 0.89554 0.0
C1898 C 0.48027 0.46954 0.74342 0.0
C1899 C 0.48923 0.48656 0.84763 0.0
N1900 N 0.49662 0.42347 0.77221 0.0
N1901 N 0.4423 0.50767 0.84529 0.0
H1902 H 0.51292 0.48972 0.91667 0.0
H1903 H 0.48457 0.5144 0.91218 0.0
H1904 H 0.44137 0.50897 0.88589 0.0
H1905 H 0.42285 0.51146 0.82691 0.0
H1906 H 0.48529 0.41363 0.74208 0.0
H1907 H 0.50415 0.41009 0.80189 0.0
H1908 H 0.49185 0.44627 0.67636 0.0
H1909 H 0.47043 0.47682 0.66427 0.0
C1910 C 0.7613 0.2222 1.02687 0.0
C1911 C 0.74187 0.22474 0.98407 0.0
C1912 C 0.73166 0.27417 1.01073 0.0
C1913 C 0.74939 0.27087 1.05616 0.0
N1914 N 0.78047 0.24044 0.10727 0.0
N1915 N 0.71343 0.25543 0.92977 0.0
C1916 C 0.76334 0.24428 1.06451 0.0
C1917 C 0.72895 0.25152 0.97433 0.0
N1918 N 0.78032 0.20018 1.03117 0.0
N1919 N 0.71575 0.29808 1.00113 0.0
H1920 H 0.71342 0.24024 0.90006 0.0
H1921 H 0.70253 0.27441 0.92118 0.0
H1922 H 0.71234 0.31478 1.02728 0.0
H1923 H 0.71234 0.31478 1.02728 0.0
H1924 H 0.78467 0.18525 1.00202 0.0
H1925 H 0.78467 0.18525 1.00202 0.0
H1926 H 0.79141 0.22132 0.11463 0.0
H1927 H 0.78307 0.25599 0.13604 0.0
C1928 C 0.97336 0.51587 0.78669 0.0
C1929 C 0.97004 0.49671 0.74404 0.0
C1930 C 0.01913 0.47983 0.75706 0.0
C1931 C 0.02081 0.49673 0.80369 0.0
N1932 N -0.00324 0.52428 0.86931 0.0
N1933 N 0.99136 0.46642 0.67974 0.0
C1934 C -0.00312 0.51246 0.82058 0.0
C1935 C 0.9936 0.48052 0.72636 0.0
N1936 N 0.95532 0.53869 0.7927 0.0
N1937 N 0.04144 0.46252 0.74324 0.0
H1938 H 0.97351 0.46893 0.65556 0.0
H1939 H 0.0072 0.45369 0.66321 0.0
H1940 H 0.05745 0.45669 0.76932 0.0
H1941 H 0.04311 0.45173 0.70791 0.0
H1942 H 0.95788 0.55401 0.82194 0.0
H1943 H 0.94082 0.54479 0.76376 0.0
H1944 H 0.97853 0.53351 0.88571 0.0
H1945 H 0.01388 0.52173 0.89516 0.0
C1946 C 0.72345 0.73092 1.01259 0.0
C1947 C 0.74968 0.72497 0.98727 0.0
C1948 C 0.7679 0.77145 1.01576 0.0
C1949 C 0.74213 0.77618 1.0441 0.0
N1950 N 0.70209 0.75414 0.08683 0.0
N1951 N 0.79268 0.74352 0.94958 0.0
C1952 C 0.72172 0.75413 1.04761 0.0
C1953 C 0.77086 0.74642 0.98441 0.0
N1954 N 0.70026 0.71391 1.00333 0.0
N1955 N 0.78998 0.79036 1.02137 0.0
H1956 H 0.79324 0.72645 0.92347 0.0
H1957 H 0.80802 0.75922 0.94252 0.0
H1958 H 0.7887 0.80777 1.04689 0.0
H1959 H 0.81023 0.78726 1.00542 0.0
H1960 H 0.67996 0.71852 1.01804 0.0
H1961 H 0.70109 0.69716 0.9763 0.0
H1962 H 0.68804 0.73714 0.09326 0.0
H1963 H 0.70271 0.76927 0.11668 0.0
C1964 C 0.47334 0.51782 0.25486 0.0
C1965 C 0.46964 0.49238 0.28418 0.0
C1966 C 0.51477 0.47389 0.25012 0.0
C1967 C 0.51924 0.4997 0.22216 0.0
N1968 N 0.4977 0.54104 0.18317 0.0
N1969 N 0.49339 0.45318 0.32682 0.0
C1970 C 0.49704 0.52033 0.22048 0.0
C1971 C 0.49228 0.47237 0.28694 0.0
N1972 N 0.45485 0.54014 0.26225 0.0
N1973 N 0.53127 0.4504 0.23998 0.0
H1974 H 0.47863 0.45408 0.35704 0.0
H1975 H 0.51076 0.43955 0.33312 0.0
H1976 H 0.54589 0.45008 0.20917 0.0
H1977 H 0.52762 0.43049 0.25728 0.0
H1978 H 0.4578 0.56037 0.24586 0.0
H1979 H 0.43837 0.53918 0.28977 0.0
H1980 H 0.48114 0.55557 0.17663 0.0
H1981 H 0.51359 0.54086 0.1548 0.0
C1982 C 0.73662 0.2202 0.52323 0.0
C1983 C 0.76522 0.228 0.53564 0.0
C1984 C 0.76495 0.26249 0.4637 0.0
C1985 C 0.73511 0.25929 0.46064 0.0
N1986 N 0.69825 0.22424 0.45931 0.0
N1987 N 0.80594 0.25925 0.52078 0.0
C1988 C 0.72309 0.234 0.4804 0.0
C1989 C 0.77951 0.24955 0.50604 0.0
N1990 N 0.72145 0.20233 0.55507 0.0
N1991 N 0.77831 0.28085 0.43036 0.0
H1992 H 0.81728 0.25092 0.55245 0.0
H1993 H 0.81595 0.27682 0.50362 0.0
H1994 H 0.76678 0.29257 0.40289 0.0
H1995 H 0.80049 0.28265 0.4276 0.0
H1996 H 0.70019 0.19695 0.54827 0.0
H1997 H 0.72969 0.19371 0.58946 0.0
H1998 H 0.68917 0.20458 0.46926 0.0
H1999 H 0.68825 0.23537 0.429 0.0
C2000 C 0.26195 0.24754 0.9699 0.0
C2001 C 0.25473 0.27423 0.99185 0.0
C2002 C 0.22719 0.24944 1.06126 0.0
C2003 C 0.23349 0.22296 1.03714 0.0
N2004 N 0.24864 0.19861 0.95745 0.0
N2005 N 0.23384 0.3004 1.0634 0.0
C2006 C 0.24838 0.2225 0.98826 0.0
C2007 C 0.23745 0.27517 1.03804 0.0
N2008 N 0.28338 0.24563 0.93388 0.0
N2009 N 0.21272 0.2499 0.10771 0.0
H2010 H 0.25041 0.31499 1.06343 0.0
H2011 H 0.21707 0.3049 0.08888 0.0
H2012 H 0.20363 0.23171 0.12428 0.0
H2013 H 0.2098 0.26806 0.13061 0.0
H2014 H 0.29188 0.22621 0.92099 0.0
H2015 H 0.29509 0.26336 0.9221 0.0
H2016 H 0.25631 0.19868 0.91921 0.0
H2017 H 0.23823 0.17974 0.96664 0.0
C2018 C 0.21934 0.74619 0.50584 0.0
C2019 C 0.23935 0.7262 0.48553 0.0
C2020 C 0.27463 0.74267 0.5496 0.0
C2021 C 0.25447 0.76253 0.56986 0.0
N2022 N 0.20458 0.77364 0.58112 0.0
N2023 N 0.28899 0.71368 0.47558 0.0
C2024 C 0.22584 0.76153 0.55198 0.0
C2025 C 0.26795 0.72673 0.50391 0.0
N2026 N 0.19429 0.75094 0.48003 0.0
N2027 N 0.29992 0.73871 0.57515 0.0
H2028 H 0.28508 0.70525 0.43852 0.0
H2029 H 0.3106 0.71459 0.48532 0.0
H2030 H 0.30446 0.74952 0.60975 0.0
H2031 H 0.31474 0.72294 0.56522 0.0
H2032 H 0.1799 0.76709 0.49021 0.0
H2033 H 0.18965 0.74058 0.44514 0.0
H2034 H 0.18292 0.77162 0.57207 0.0
H2035 H 0.20851 0.78205 0.61821 0.0
C2036 C 0.22644 0.22566 0.50806 0.0
C2037 C 0.25371 0.22802 0.48367 0.0
C2038 C 0.26745 0.2647 0.54765 0.0
C2039 C 0.23995 0.26324 0.57042 0.0
N2040 N 0.19766 0.23547 0.58477 0.0
N2041 N 0.29554 0.25683 0.46982 0.0
C2042 C 0.2209 0.24135 0.55452 0.0
C2043 C 0.27283 0.24976 0.50051 0.0
N2044 N 0.20498 0.2107 0.48431 0.0
N2045 N 0.2886 0.27967 0.5722 0.0
H2046 H 0.29822 0.24756 0.43327 0.0
H2047 H 0.30909 0.27406 0.47728 0.0
H2048 H 0.28606 0.28729 0.61027 0.0
H2049 H 0.30928 0.28173 0.55772 0.0
H2050 H 0.18403 0.21017 0.49814 0.0
H2051 H 0.20694 0.20257 0.4466 0.0
H2052 H 0.18393 0.21826 0.57827 0.0
H2053 H 0.19443 0.24606 0.62002 0.0
C2054 C 0.22522 0.73151 1.02907 0.0
C2055 C 0.25134 0.72765 1.05631 0.0
C2056 C 0.26693 0.77502 1.02766 0.0
C2057 C 0.2411 0.77828 0.99894 0.0
N2058 N 0.20204 0.7547 0.95617 0.0
N2059 N 0.29221 0.74953 0.09637 0.0
C2060 C 0.22194 0.75513 0.99497 0.0
C2061 C 0.27092 0.75055 1.06004 0.0
N2062 N 0.20353 0.71233 1.03629 0.0
N2063 N 0.28799 0.79508 1.022 0.0
H2064 H 0.29351 0.73294 0.12348 0.0
H2065 H 0.30622 0.76639 0.10367 0.0
H2066 H 0.28607 0.812 0.99545 0.0
H2067 H 0.30809 0.79355 1.03926 0.0
H2068 H 0.18316 0.71505 1.02045 0.0
H2069 H 0.20533 0.69541 1.06287 0.0
H2070 H 0.18882 0.73716 0.94908 0.0
H2071 H 0.20171 0.77025 0.92691 0.0
C2072 C 0.4651 0.97909 0.75917 0.0
C2073 C 0.46562 -0.00367 0.80513 0.0
C2074 C 0.51659 0.00657 0.79052 0.0
C2075 C 0.51591 0.98998 0.74352 0.0
N2076 N 0.48892 0.96477 0.67868 0.0
N2077 N 0.49304 0.0203 0.87106 0.0
C2078 C 0.48994 0.97741 0.72683 0.0
C2079 C 0.49188 0.00778 0.82294 0.0
N2080 N 0.44142 0.96316 0.74769 0.0
N2081 N 0.53949 0.0238 0.80181 0.0
H2082 H 0.47505 0.02318 0.89432 0.0
H2083 H 0.51194 0.02593 0.88989 0.0
H2084 H 0.55631 0.02791 0.77658 0.0
H2085 H 0.54013 0.03801 0.83302 0.0
H2086 H 0.4403 0.94853 0.71716 0.0
H2087 H 0.42378 0.96167 0.77209 0.0
H2088 H 0.47034 0.95716 0.66125 0.0
H2089 H 0.50656 0.96409 0.65369 0.0
C2090 C 0.99234 0.9722 0.28863 0.0
C2091 C 0.01612 0.99032 0.29832 0.0
C2092 C -0.00081 0.02226 0.22726 0.0
C2093 C 0.97514 0.00447 0.22081 0.0
N2094 N 0.95985 0.95528 0.22238 0.0
N2095 N 0.04289 0.03307 0.27376 0.0
C2096 C 0.97502 0.97713 0.24441 0.0
C2097 C 0.01989 0.01551 0.26654 0.0
N2098 N 0.98638 0.95 0.3216 0.0
N2099 N 0.0019 0.04552 0.19528 0.0
H2100 H 0.05327 0.03512 0.30942 0.0
H2101 H 0.05019 0.04771 0.24619 0.0
H2102 H 0.98769 0.049 0.16461 0.0
H2103 H 0.01798 0.06084 0.19778 0.0
H2104 H 0.96804 0.93743 0.31807 0.0
H2105 H -0.00181 0.94632 0.35543 0.0
H2106 H 0.96089 0.93422 0.23594 0.0
H2107 H 0.94982 0.95758 0.18616 0.0
C2108 C 0.46627 0.00124 0.28137 0.0
C2109 C 0.46838 0.98411 0.23546 0.0
C2110 C 0.51999 0.9786 0.25173 0.0
C2111 C 0.51706 0.99478 0.29915 0.0
N2112 N 0.48602 0.01263 0.36603 0.0
N2113 N 0.49788 0.96029 0.17224 0.0
C2114 C 0.48972 0.00314 0.31611 0.0
C2115 C 0.49555 0.9741 0.21912 0.0
N2116 N 0.44379 0.01945 0.28803 0.0
N2117 N 0.54498 0.96452 0.24095 0.0
H2118 H 0.48018 0.95517 0.14941 0.0
H2119 H 0.51715 0.95574 0.15373 0.0
H2120 H 0.54827 0.95148 0.20864 0.0
H2121 H 0.56148 0.96195 0.26757 0.0
H2122 H 0.42903 0.02357 0.25871 0.0
H2123 H 0.44363 0.03503 0.31714 0.0
H2124 H 0.46591 0.01687 0.3819 0.0
H2125 H 0.50272 0.01263 0.39308 0.0
C2126 C 0.97183 0.01569 0.78956 0.0
C2127 C 0.97421 0.98931 0.81659 0.0
C2128 C 0.01481 0.9758 0.76118 0.0
C2129 C 0.01112 0.00146 0.73146 0.0
N2130 N 0.98156 0.04191 0.70984 0.0
N2131 N 0.00294 0.9491 0.8403 0.0
C2132 C 0.988 0.02007 0.74332 0.0
C2133 C -0.00236 0.97106 0.80636 0.0
N2134 N 0.9555 0.03719 0.81008 0.0
N2135 N 0.03361 0.95534 0.74447 0.0
H2136 H 0.99064 0.94638 0.87398 0.0
H2137 H 0.02038 0.93529 0.83787 0.0
H2138 H 0.04071 0.95464 0.7059 0.0
H2139 H 0.03953 0.93735 0.76588 0.0
H2140 H 0.95326 0.05731 0.793 0.0
H2141 H 0.94737 0.03605 0.84798 0.0
H2142 H 0.96367 0.05507 0.71387 0.0
H2143 H 0.99255 0.04459 0.67478 0.0
C2144 C 0.97961 0.44311 0.95082 0.0
C2145 C 0.9897 0.4146 0.95758 0.0
C2146 C 0.97242 0.40248 0.86994 0.0
C2147 C 0.95842 0.42984 0.86574 0.0
N2148 N 0.94908 0.47636 0.90381 0.0
N2149 N 0.99049 0.36567 0.92775 0.0
C2150 C 0.96196 0.4501 0.9069 0.0
C2151 C 0.98484 0.39401 0.91817 0.0
N2152 N 0.98815 0.4639 0.985 0.0
N2153 N 0.97417 0.38399 0.82865 0.0
H2154 H -0.00121 0.35814 0.96299 0.0
H2155 H 0.98414 0.34919 0.90285 0.0
H2156 H 0.96243 0.38542 0.7945 0.0
H2157 H 0.98856 0.36688 0.82791 0.0
H2158 H 0.98439 0.48568 0.97926 0.0
H2159 H 0.00132 0.45962 1.01698 0.0
H2160 H 0.94719 0.49018 0.93554 0.0
H2161 H 0.93957 0.48426 0.86996 0.0
C2162 C 0.8421 0.71377 0.12577 0.0
C2163 C 0.81264 0.70897 0.11318 0.0
C2164 C 0.79917 0.73876 0.18839 0.0
C2165 C 0.82804 0.73926 0.20511 0.0
N2166 N 0.87658 0.72289 0.19434 0.0
N2167 N 0.76287 0.7159 0.13574 0.0
C2168 C 0.84936 0.72543 0.1752 0.0
C2169 C 0.7911 0.72107 0.1456 0.0
N2170 N 0.86337 0.70844 0.09047 0.0
N2171 N 0.77956 0.75616 0.21192 0.0
H2172 H 0.7558 0.70469 0.10324 0.0
H2173 H 0.74652 0.72128 0.1616 0.0
H2174 H 0.78446 0.76918 0.24379 0.0
H2175 H 0.7594 0.75976 0.19601 0.0
H2176 H 0.88461 0.71432 0.09668 0.0
H2177 H 0.85989 0.70167 1.05252 0.0
H2178 H 0.8921 0.70995 0.17703 0.0
H2179 H 0.88291 0.7315 0.23009 0.0
C2180 C 0.51454 0.54031 0.37763 0.0
C2181 C 0.52433 0.5627 0.34423 0.0
C2182 C 0.50393 0.59806 0.40545 0.0
C2183 C 0.49171 0.57575 0.43538 0.0
N2184 N 0.48033 0.52561 0.44379 0.0
N2185 N 0.52114 0.61382 0.32217 0.0
C2186 C 0.49556 0.54683 0.41968 0.0
C2187 C 0.51657 0.59175 0.35637 0.0
N2188 N 0.52338 0.51276 0.36977 0.0
N2189 N 0.50505 0.62532 0.42511 0.0
H2190 H 0.53133 0.6122 0.28647 0.0
H2191 H 0.51221 0.63411 0.3275 0.0
H2192 H 0.49684 0.63094 0.46155 0.0
H2193 H 0.51696 0.64168 0.40787 0.0
H2194 H 0.51989 0.4964 0.39676 0.0
H2195 H 0.53556 0.50641 0.3378 0.0
H2196 H 0.47968 0.50457 0.43022 0.0
H2197 H 0.46617 0.52964 0.47441 0.0
C2198 C 0.65577 0.27788 0.7096 0.0
C2199 C 0.65394 0.24768 0.70631 0.0
C2200 C 0.66338 0.25065 0.61213 0.0
C2201 C 0.6696 0.28074 0.61641 0.0
N2202 N 0.67411 0.32195 0.67442 0.0
N2203 N 0.66085 0.20466 0.65623 0.0
C2204 C 0.66668 0.29397 0.66665 0.0
C2205 C 0.65897 0.23392 0.65806 0.0
N2206 N 0.64583 0.29152 0.75324 0.0
N2207 N 0.66118 0.23754 0.5647 0.0
H2208 H 0.65798 0.19161 0.68891 0.0
H2209 H 0.66773 0.19346 0.62336 0.0
H2210 H 0.66721 0.24665 0.5296 0.0
H2211 H 0.65179 0.21744 0.56006 0.0
H2212 H 0.64305 0.31366 0.75545 0.0
H2213 H 0.63749 0.28057 0.78534 0.0
H2214 H 0.67649 0.33092 0.71141 0.0
H2215 H 0.67949 0.33612 0.64502 0.0
C2216 C 0.96712 0.59169 0.1595 0.0
C2217 C 0.96073 0.5628 0.17454 0.0
C2218 C 0.98809 0.54562 0.09817 0.0
C2219 C 0.99165 0.57429 0.08096 0.0
N2220 N 0.98091 0.62448 0.09048 0.0
N2221 N 0.964 0.51204 0.15523 0.0
C2222 C 0.98027 0.59724 0.11044 0.0
C2223 C 0.97069 0.53973 0.14275 0.0
N2224 N 0.96097 0.61421 0.19175 0.0
N2225 N 0.00248 0.52408 0.07321 0.0
H2226 H 0.95482 0.50595 0.19051 0.0
H2227 H 0.96693 0.49491 0.12973 0.0
H2228 H 0.01519 0.52759 1.04032 0.0
H2229 H 0.00388 0.50321 0.08749 0.0
H2230 H 0.96953 0.63463 0.18657 0.0
H2231 H 0.94885 0.61273 0.22543 0.0
H2232 H 0.96957 0.64158 0.1065 0.0
H2233 H 0.99076 0.62968 1.05517 0.0
C2234 C 0.70101 0.70854 0.37989 0.0
C2235 C 0.68091 0.70678 0.42156 0.0
C2236 C 0.64798 0.73784 0.37166 0.0
C2237 C 0.66648 0.73633 0.32813 0.0
N2238 N 0.70904 0.71727 0.28772 0.0
N2239 N 0.63184 0.71574 0.45067 0.0
C2240 C 0.69244 0.72063 0.33123 0.0
C2241 C 0.65356 0.72051 0.41597 0.0
N2242 N 0.72882 0.70044 0.38741 0.0
N2243 N 0.62472 0.75572 0.37088 0.0
H2244 H 0.63346 0.70333 0.4839 0.0
H2245 H 0.61074 0.72196 0.44378 0.0
H2246 H 0.618 0.76691 0.33782 0.0
H2247 H 0.6132 0.76106 0.40435 0.0
H2248 H 0.74493 0.70403 0.36009 0.0
H2249 H 0.73673 0.69321 0.423 0.0
H2250 H 0.7263 0.70314 0.28601 0.0
H2251 H 0.70432 0.72699 0.25205 0.0
C2252 C 0.55732 0.41769 0.62535 0.0
C2253 C 0.54641 0.40714 0.6739 0.0
C2254 C 0.50354 0.39008 0.62875 0.0
C2255 C 0.51466 0.39969 0.58068 0.0
N2256 N 0.55562 0.41518 0.53087 0.0
N2257 N 0.51633 0.36928 0.7109 0.0
C2258 C 0.54252 0.41153 0.57822 0.0
C2259 C 0.52179 0.38898 0.67266 0.0
N2260 N 0.58253 0.43232 0.62327 0.0
N2261 N 0.47541 0.38247 0.6331 0.0
H2262 H 0.53078 0.36369 0.73995 0.0
H2263 H 0.49921 0.355 0.7087 0.0
H2264 H 0.46103 0.3838 0.602 0.0
H2265 H 0.46589 0.37782 0.66896 0.0
H2266 H 0.58869 0.44465 0.59132 0.0
H2267 H 0.59784 0.43136 0.65254 0.0
H2268 H 0.5771 0.42061 0.52661 0.0
H2269 H 0.54593 0.40989 0.49549 0.0
C2270 C 0.82282 0.25314 0.93018 0.0
C2271 C 0.81309 0.28231 0.92565 0.0
C2272 C 0.82579 0.28087 0.83212 0.0
C2273 C 0.83324 0.25146 0.83605 0.0
N2274 N 0.83311 0.20802 0.88687 0.0
N2275 N 0.79681 0.31927 0.8666 0.0
C2276 C 0.83026 0.2372 0.88458 0.0
C2277 C 0.812 0.29477 0.87495 0.0
N2278 N 0.82491 0.24014 0.97781 0.0
N2279 N 0.83191 0.29556 0.78728 0.0
H2280 H 0.78041 0.32598 0.89109 0.0
H2281 H 0.79729 0.33053 0.83181 0.0
H2282 H 0.84184 0.28598 0.75524 0.0
H2283 H 0.83004 0.31772 0.78367 0.0
H2284 H 0.837 0.22166 0.98413 0.0
H2285 H 0.81472 0.24757 1.01117 0.0
H2286 H 0.82774 0.19589 0.91962 0.0
H2287 H 0.83846 0.19549 0.85461 0.0
C2288 C 0.03547 0.54121 0.62885 0.0
C2289 C 0.04439 0.56319 0.66399 0.0
C2290 C 0.02225 0.5994 0.6063 0.0
C2291 C 0.01118 0.57736 0.5744 0.0
N2292 N 0.00302 0.52713 0.5593 0.0
N2293 N 0.04119 0.61346 0.68945 0.0
C2294 C 0.01677 0.5482 0.58657 0.0
C2295 C 0.03624 0.59229 0.65377 0.0
N2296 N 0.04428 0.51352 0.63597 0.0
N2297 N 0.0203 0.62737 0.59035 0.0
H2298 H 0.05321 0.61087 0.72296 0.0
H2299 H 0.03158 0.6336 0.6875 0.0
H2300 H 0.01012 0.63367 0.55596 0.0
H2301 H 0.03103 0.64416 0.60861 0.0
H2302 H 0.04193 0.49767 0.60768 0.0
H2303 H 0.05516 0.50635 0.66888 0.0
H2304 H 0.00331 0.50559 0.57007 0.0
H2305 H 0.98917 0.53148 0.52832 0.0
C2306 C 0.13992 0.27097 0.42613 0.0
C2307 C 0.16935 0.27529 0.43976 0.0
C2308 C 0.18301 0.24518 0.36482 0.0
C2309 C 0.15421 0.24406 0.34791 0.0
N2310 N 0.10591 0.26138 0.35681 0.0
N2311 N 0.21916 0.27 0.41416 0.0
C2312 C 0.13283 0.25839 0.3771 0.0
C2313 C 0.19093 0.26371 0.4065 0.0
N2314 N 0.11836 0.27882 0.45921 0.0
N2315 N 0.20277 0.22723 0.34318 0.0
H2316 H 0.22705 0.2806 0.44676 0.0
H2317 H 0.2349 0.26531 0.38658 0.0
H2318 H 0.19797 0.21296 0.31309 0.0
H2319 H 0.22286 0.22421 0.35983 0.0
H2320 H 0.09721 0.27237 0.45387 0.0
H2321 H 0.12124 0.28985 0.49388 0.0
H2322 H 0.09037 0.27464 0.37322 0.0
H2323 H 0.09993 0.25301 0.32069 0.0
C2324 C 0.4424 0.43524 0.11769 0.0
C2325 C 0.45267 0.42732 0.16817 0.0
C2326 C 0.49546 0.40761 0.1256 0.0
C2327 C 0.48257 0.4098 0.07592 0.0
N2328 N 0.43899 0.41965 1.02789 0.0
N2329 N 0.48416 0.39235 0.21169 0.0
C2330 C 0.45461 0.42192 0.07268 0.0
C2331 C 0.47794 0.40972 0.17019 0.0
N2332 N 0.42189 0.4558 0.11153 0.0
N2333 N 0.52419 0.40306 0.1308 0.0
H2334 H 0.46927 0.38672 0.24002 0.0
H2335 H 0.50213 0.37904 0.21222 0.0
H2336 H 0.53818 0.4034 0.09907 0.0
H2337 H 0.53418 0.40231 0.16723 0.0
H2338 H 0.41535 0.463 0.07485 0.0
H2339 H 0.4143 0.46842 0.14188 0.0
H2340 H 0.41759 0.42597 1.02572 0.0
H2341 H 0.44611 0.40822 0.99544 0.0
C2342 C 0.33507 0.75709 0.88786 0.0
C2343 C 0.33136 0.74293 0.8395 0.0
C2344 C 0.30207 0.70709 0.88409 0.0
C2345 C 0.31181 0.7167 0.93362 0.0
N2346 N 0.34084 0.75279 0.98012 0.0
N2347 N 0.31577 0.70023 0.79431 0.0
C2348 C 0.3293 0.74216 0.93509 0.0
C2349 C 0.31629 0.71657 0.83843 0.0
N2350 N 0.34232 0.78549 0.88921 0.0
N2351 N 0.27818 0.69046 0.8798 0.0
H2352 H 0.32711 0.7057 0.76067 0.0
H2353 H 0.30664 0.67983 0.79356 0.0
H2354 H 0.26421 0.68714 0.91096 0.0
H2355 H 0.26986 0.68417 0.8438 0.0
H2356 H 0.34237 0.79746 0.92359 0.0
H2357 H 0.34489 0.79796 0.85574 0.0
H2358 H 0.35785 0.76727 0.9796 0.0
H2359 H 0.3337 0.74865 1.01759 0.0
C2360 C 0.02712 0.44462 0.40129 0.0
C2361 C 0.02821 0.42402 0.36044 0.0
C2362 C -0.00297 0.39259 0.41314 0.0
C2363 C 0.00137 0.41068 0.45673 0.0
N2364 N 0.02309 0.4528 0.49417 0.0
N2365 N 0.01466 0.37595 0.33042 0.0
C2366 C 0.01733 0.43627 0.45145 0.0
C2367 C 0.01291 0.39749 0.36658 0.0
N2368 N 0.03333 0.47274 0.39146 0.0
N2369 N 0.97799 0.37037 0.41638 0.0
H2370 H 0.02692 0.37633 0.29678 0.0
H2371 H 0.00624 0.35555 0.33647 0.0
H2372 H 0.96786 0.36435 0.45097 0.0
H2373 H 0.97049 0.35927 0.38386 0.0
H2374 H 0.03062 0.48892 0.41907 0.0
H2375 H 0.03709 0.48058 0.35397 0.0
H2376 H 0.03736 0.46996 0.49312 0.0
H2377 H 0.0154 0.44803 0.53142 0.0
C2378 C 0.31274 0.26335 0.13303 0.0
C2379 C 0.32936 0.28788 0.11986 0.0
C2380 C 0.36021 0.27834 0.19544 0.0
C2381 C 0.3428 0.25493 0.21007 0.0
N2382 N 0.30687 0.22043 0.18639 0.0
N2383 N 0.37793 0.30493 0.12232 0.0
C2384 C 0.32005 0.24617 0.17724 0.0
C2385 C 0.35565 0.2918 0.14655 0.0
N2386 N 0.29135 0.25519 0.1007 0.0
N2387 N 0.38126 0.28787 0.22801 0.0
H2388 H 0.37682 0.3113 0.08368 0.0
H2389 H 0.39865 0.30462 0.13738 0.0
H2390 H 0.38541 0.2787 0.2644 0.0
H2391 H 0.39289 0.30644 0.2204 0.0
H2392 H 0.27608 0.23991 0.11017 0.0
H2393 H 0.29029 0.26317 1.06309 0.0
H2394 H 0.2924 0.21076 0.16112 0.0
H2395 H 0.31199 0.2072 0.21789 0.0
C2396 C 0.51708 0.56965 0.89975 0.0
C2397 C 0.50924 0.59392 0.9303 0.0
C2398 C 0.47608 0.60865 0.86091 0.0
C2399 C 0.47878 0.5813 0.83668 0.0
N2400 N 0.51292 0.54461 0.81655 0.0
N2401 N 0.48032 0.63644 0.94036 0.0
C2402 C 0.50253 0.56413 0.85138 0.0
C2403 C 0.48856 0.61346 0.91084 0.0
N2404 N 0.53808 0.55168 0.91748 0.0
N2405 N 0.46422 0.63101 0.8342 0.0
H2406 H 0.48904 0.64099 0.97691 0.0
H2407 H 0.46326 0.64975 0.9303 0.0
H2408 H 0.46039 0.62999 0.79428 0.0
H2409 H 0.46319 0.65184 0.84871 0.0
H2410 H 0.54352 0.53242 0.8996 0.0
H2411 H 0.54961 0.55562 0.95163 0.0
H2412 H 0.53212 0.53363 0.82145 0.0
H2413 H 0.50354 0.5414 0.78005 0.0
C2414 C 0.18859 0.73108 0.69482 0.0
C2415 C 0.15979 0.73713 0.70845 0.0
C2416 C 0.14305 0.71475 0.62737 0.0
C2417 C 0.17176 0.70654 0.61528 0.0
N2418 N 0.22226 0.70846 0.63552 0.0
N2419 N 0.10934 0.73178 0.69235 0.0
C2420 C 0.19463 0.71495 0.64878 0.0
C2421 C 0.13699 0.72837 0.67577 0.0
N2422 N 0.21017 0.74173 0.72519 0.0
N2423 N 0.12136 0.70986 0.59267 0.0
H2424 H 0.1039 0.74214 0.72703 0.0
H2425 H 0.09179 0.72239 0.67409 0.0
H2426 H 0.12338 0.69743 0.55932 0.0
H2427 H 0.10129 0.71947 0.59551 0.0
H2428 H 0.23178 0.73982 0.71646 0.0
H2429 H 0.20648 0.75388 0.75872 0.0
H2430 H 0.23961 0.70992 0.66078 0.0
H2431 H 0.22825 0.7014 0.59855 0.0
C2432 C 0.47793 0.92603 0.37216 0.0
C2433 C 0.45061 0.91364 0.36453 0.0
C2434 C 0.45587 0.88872 0.44885 0.0
C2435 C 0.48074 0.90513 0.45985 0.0
N2436 N 0.51418 0.94175 0.43303 0.0
N2437 N 0.42392 0.87098 0.3826 0.0
C2438 C 0.49148 0.92437 0.42175 0.0
C2439 C 0.44206 0.89173 0.39958 0.0
N2440 N 0.49296 0.93553 0.33025 0.0
N2441 N 0.44543 0.86996 0.48518 0.0
H2442 H 0.41667 0.87044 0.34441 0.0
H2443 H 0.4202 0.85204 0.40297 0.0
H2444 H 0.45621 0.86482 0.51957 0.0
H2445 H 0.42524 0.86061 0.48234 0.0
H2446 H 0.48468 0.93468 0.29259 0.0
H2447 H 0.51489 0.93944 0.33236 0.0
H2448 H 0.521 0.958 0.40793 0.0
H2449 H 0.52458 0.94154 0.46909 0.0
C2450 C 0.30742 0.20546 0.65905 0.0
C2451 C 0.31962 0.21327 0.61019 0.0
C2452 C 0.34726 0.25041 0.65686 0.0
C2453 C 0.33984 0.23765 0.70507 0.0
N2454 N 0.3171 0.19854 0.75067 0.0
N2455 N 0.35341 0.2452 0.56475 0.0
C2456 C 0.32144 0.2136 0.70566 0.0
C2457 C 0.34035 0.23612 0.60954 0.0
N2458 N 0.28127 0.19255 0.66174 0.0
N2459 N 0.35906 0.27724 0.65563 0.0
H2460 H 0.34496 0.24332 0.52752 0.0
H2461 H 0.37243 0.25689 0.56549 0.0
H2462 H 0.36349 0.28913 0.6891 0.0
H2463 H 0.36165 0.28891 0.6212 0.0
H2464 H 0.27133 0.18772 0.69713 0.0
H2465 H 0.26749 0.19145 0.62979 0.0
H2466 H 0.30549 0.17944 0.7515 0.0
H2467 H 0.32757 0.2035 0.78549 0.0
C2468 C 0.01697 0.06738 0.95193 0.0
C2469 C 0.99463 0.08812 0.95133 0.0
C2470 C -0.00202 0.08941 0.85547 0.0
C2471 C 0.01958 0.06743 0.85656 0.0
N2472 N 0.03541 0.02622 0.90622 0.0
N2473 N 0.95734 0.11036 0.89993 0.0
C2474 C 0.02488 0.05351 0.90486 0.0
C2475 C 0.98337 0.09696 0.90241 0.0
N2476 N 0.03093 0.06091 0.99725 0.0
N2477 N 0.99007 0.10259 0.81008 0.0
H2478 H 0.94464 0.11427 0.93258 0.0
H2479 H 0.94675 0.11455 0.8649 0.0
H2480 H 0.99186 0.09322 0.77345 0.0
H2481 H 0.97955 0.12233 0.80969 0.0
H2482 H 0.0478 0.04631 0.99885 0.0
H2483 H 0.02754 0.07223 1.03181 0.0
H2484 H 0.03799 0.01481 0.94094 0.0
H2485 H 0.03673 0.01344 0.87293 0.0
C2486 C 0.17672 0.80889 0.17265 0.0
C2487 C 0.17372 0.79674 0.12148 0.0
C2488 C 0.16302 0.7501 0.16233 0.0
C2489 C 0.16328 0.76257 0.21237 0.0
N2490 N 0.16363 0.80562 0.26419 0.0
N2491 N 0.14734 0.75916 0.0753 0.0
C2492 C 0.16845 0.79243 0.21737 0.0
C2493 C 0.1623 0.7682 0.11806 0.0
N2494 N 0.18644 0.8362 0.17981 0.0
N2495 N 0.16251 0.72098 0.15675 0.0
H2496 H 0.13861 0.77331 1.04818 0.0
H2497 H 0.13828 0.73878 0.07279 0.0
H2498 H 0.16348 0.70696 0.18849 0.0
H2499 H 0.16399 0.71103 0.12041 0.0
H2500 H 0.19407 0.84342 0.21571 0.0
H2501 H 0.18645 0.85204 0.15146 0.0
H2502 H 0.1635 0.82783 0.26875 0.0
H2503 H 0.15703 0.79458 0.29749 0.0
C2504 C 0.4938 0.07483 0.62781 0.0
C2505 C 0.4802 0.078 0.57872 0.0
C2506 C 0.43372 0.06729 0.62016 0.0
C2507 C 0.44757 0.06115 0.66829 0.0
N2508 N 0.49225 0.05476 0.71449 0.0
N2509 N 0.4374 0.07506 0.5266 0.0
C2510 C 0.47802 0.06383 0.67104 0.0
C2511 C 0.45024 0.07337 0.57446 0.0
N2512 N 0.52181 0.08271 0.63355 0.0
N2513 N 0.40469 0.06932 0.61853 0.0
H2514 H 0.44824 0.0812 0.49282 0.0
H2515 H 0.41632 0.06898 0.51969 0.0
H2516 H 0.39161 0.06409 0.64986 0.0
H2517 H 0.39367 0.0781 0.58706 0.0
H2518 H 0.53185 0.08481 0.66966 0.0
H2519 H 0.53465 0.08934 0.60255 0.0
H2520 H 0.51444 0.05351 0.71705 0.0
H2521 H 0.48186 0.04553 0.74605 0.0
C2522 C 0.13558 0.2199 0.85531 0.0
C2523 C 0.15166 0.24505 0.84493 0.0
C2524 C 0.17417 0.24094 0.93089 0.0
C2525 C 0.16193 0.21345 0.93781 0.0
N2526 N 0.11852 0.18737 0.92141 0.0
N2527 N 0.18805 0.27875 0.87157 0.0
C2528 C 0.13922 0.20548 0.90387 0.0
C2529 C 0.17165 0.25522 0.88216 0.0
N2530 N 0.11692 0.20969 0.81865 0.0
N2531 N 0.18379 0.25553 0.97324 0.0
H2532 H 0.186 0.29079 0.83744 0.0
H2533 H 0.20504 0.28501 0.89538 0.0
H2534 H 0.1803 0.24777 1.01077 0.0
H2535 H 0.18991 0.277 0.97183 0.0
H2536 H 0.10649 0.19006 0.82183 0.0
H2537 H 0.11346 0.21979 0.78284 0.0
H2538 H 0.10025 0.18192 0.90043 0.0
H2539 H 0.11693 0.18241 0.96061 0.0
C2540 C 0.02216 0.94051 0.14374 0.0
C2541 C 0.03445 0.91826 0.17426 0.0
C2542 C 0.01449 0.88249 0.11346 0.0
C2543 C 0.00095 0.90469 0.08509 0.0
N2544 N 0.98562 0.95376 0.08168 0.0
N2545 N 0.03564 0.86731 0.19466 0.0
C2546 C 0.00314 0.93338 0.10241 0.0
C2547 C 0.0286 0.88902 0.16121 0.0
N2548 N 0.02815 0.9686 0.15427 0.0
N2549 N 0.01439 0.85514 0.09428 0.0
H2550 H 0.04628 0.87034 0.22964 0.0
H2551 H 0.0286 0.84629 0.18993 0.0
H2552 H 0.00369 0.84937 1.06011 0.0
H2553 H 0.02675 0.83863 0.10988 0.0
H2554 H 0.02289 0.98529 0.12891 0.0
H2555 H 0.03953 0.97536 0.18691 0.0
H2556 H 0.9827 0.97333 0.10023 0.0
H2557 H 0.97161 0.94979 1.05079 0.0
C2558 C 0.30156 0.77913 0.39259 0.0
C2559 C 0.31957 0.77735 0.43721 0.0
C2560 C 0.34962 0.74354 0.38775 0.0
C2561 C 0.33556 0.75167 0.34101 0.0
N2562 N 0.30172 0.78354 0.29909 0.0
N2563 N 0.36503 0.75904 0.47246 0.0
C2564 C 0.3127 0.77154 0.34339 0.0
C2565 C 0.34479 0.75977 0.43391 0.0
N2566 N 0.27326 0.78605 0.3971 0.0
N2567 N 0.36688 0.71988 0.38882 0.0
H2568 H 0.36452 0.7709 0.50658 0.0
H2569 H 0.38464 0.74868 0.46764 0.0
H2570 H 0.37021 0.70684 0.35633 0.0
H2571 H 0.3752 0.71147 0.42339 0.0
H2572 H 0.25942 0.78616 0.36512 0.0
H2573 H 0.26287 0.78699 0.4331 0.0
H2574 H 0.28627 0.7997 0.30033 0.0
H2575 H 0.31028 0.7797 0.26212 0.0
C2576 C 0.49086 0.06179 0.11541 0.0
C2577 C 0.50125 0.0827 0.08024 0.0
C2578 C 0.54072 0.09346 0.14008 0.0
C2579 C 0.53199 0.0704 0.17289 0.0
N2580 N 0.49088 0.04507 0.20404 0.0
N2581 N 0.53661 0.11799 1.05682 0.0
C2582 C 0.50496 0.05775 0.16386 0.0
C2583 C 0.52633 0.09844 0.09197 0.0
N2584 N 0.4679 0.04517 0.10219 0.0
N2585 N 0.56056 0.1126 0.15736 0.0
H2586 H 0.52583 0.12347 1.02256 0.0
H2587 H 0.55671 0.12746 1.05973 0.0
H2588 H 0.56928 0.1113 0.19427 0.0
H2589 H 0.56577 0.13158 0.13824 0.0
H2590 H 0.46147 0.02753 0.12429 0.0
H2591 H 0.45671 0.04761 1.0672 0.0
H2592 H 0.46913 0.04044 0.20188 0.0
H2593 H 0.49964 0.04373 0.24131 0.0
C2594 C 0.65611 0.75329 0.87657 0.0
C2595 C 0.66646 0.76323 0.82797 0.0
C2596 C 0.6945 0.79961 0.87464 0.0
C2597 C 0.67952 0.79359 0.92175 0.0
N2598 N 0.63872 0.7681 0.96017 0.0
N2599 N 0.69126 0.80051 0.78049 0.0
C2600 C 0.65832 0.77129 0.92097 0.0
C2601 C 0.68438 0.78782 0.82684 0.0
N2602 N 0.64448 0.72653 0.88093 0.0
N2603 N 0.71934 0.81499 0.87522 0.0
H2604 H 0.68344 0.79327 0.74472 0.0
H2605 H 0.70219 0.81996 0.77844 0.0
H2606 H 0.72957 0.82115 0.90951 0.0
H2607 H 0.73184 0.81792 0.84193 0.0
H2608 H 0.63912 0.71748 0.91689 0.0
H2609 H 0.64332 0.71225 0.84967 0.0
H2610 H 0.62207 0.75327 0.95821 0.0
H2611 H 0.63582 0.78264 0.9903 0.0
C2612 C 0.95641 0.9116 0.58143 0.0
C2613 C 0.98593 0.90525 0.58467 0.0
C2614 C 0.98419 0.91157 0.67931 0.0
C2615 C 0.95533 0.9223 0.67575 0.0
N2616 N 0.91524 0.93459 0.61868 0.0
N2617 N 0.02935 0.90377 0.63512 0.0
C2618 C 0.94192 0.92317 0.62546 0.0
C2619 C 0.00016 0.90637 0.63314 0.0
N2620 N 0.9417 0.90509 0.53681 0.0
N2621 N -0.00316 0.90582 0.72624 0.0
H2622 H 0.04204 0.90071 0.6021 0.0
H2623 H 0.04129 0.90707 0.66893 0.0
H2624 H 0.99035 0.91419 0.76175 0.0
H2625 H 0.01465 0.89244 0.72961 0.0
H2626 H 0.91944 0.90562 0.53426 0.0
H2627 H 0.95144 0.89617 0.50397 0.0
H2628 H 0.90692 0.93962 0.58204 0.0
H2629 H 0.90162 0.94059 0.6485 0.0
C2630 C 0.80731 0.22595 0.34029 0.0
C2631 C 0.8335 0.24107 0.33793 0.0
C2632 C 0.84698 0.22139 0.42305 0.0
C2633 C 0.81902 0.20939 0.42949 0.0
N2634 N 0.77035 0.20647 0.39501 0.0
N2635 N 0.87588 0.25796 0.38151 0.0
C2636 C 0.79857 0.21319 0.38823 0.0
C2637 C 0.85241 0.24051 0.38096 0.0
N2638 N 0.79064 0.22366 0.29662 0.0
N2639 N 0.86927 0.2129 0.45402 0.0
H2640 H 0.88116 0.27154 0.35058 0.0
H2641 H 0.88859 0.26076 0.41457 0.0
H2642 H 0.868 0.19611 0.48056 0.0
H2643 H 0.8903 0.2195 0.44786 0.0
H2644 H 0.77326 0.20973 0.29411 0.0
H2645 H 0.79553 0.23386 0.26147 0.0
H2646 H 0.75451 0.21191 0.36813 0.0
H2647 H 0.76164 0.19906 0.4296 0.0
C2648 C 0.52273 0.89728 0.87863 0.0
C2649 C 0.53651 0.92457 0.87407 0.0
C2650 C 0.51801 0.9369 0.96134 0.0
C2651 C 0.50158 0.91138 0.96173 0.0
N2652 N 0.48371 0.87006 0.91576 0.0
N2653 N 0.5418 0.9727 0.9087 0.0
C2654 C 0.50234 0.89261 0.9186 0.0
C2655 C 0.53285 0.94504 0.91491 0.0
N2656 N 0.53044 0.87487 0.84734 0.0
N2657 N 0.51946 0.9534 1.00532 0.0
H2658 H 0.55054 0.98064 0.87435 0.0
H2659 H 0.53769 0.98879 0.93583 0.0
H2660 H 0.50791 0.9487 1.03914 0.0
H2661 H 0.53378 0.97033 1.00962 0.0
H2662 H 0.52281 0.85407 0.85246 0.0
H2663 H 0.5473 0.87581 0.8212 0.0
H2664 H 0.48107 0.85781 0.88208 0.0
H2665 H 0.46906 0.86515 0.94516 0.0
C2666 C 0.84375 0.76772 0.62209 0.0
C2667 C 0.81901 0.78579 0.61915 0.0
C2668 C 0.81026 0.77589 0.71194 0.0
C2669 C 0.83199 0.75457 0.71207 0.0
N2670 N 0.86372 0.72488 0.66088 0.0
N2671 N 0.77377 0.79851 0.65972 0.0
C2672 C 0.84697 0.74879 0.66517 0.0
C2673 C 0.80081 0.78756 0.66362 0.0
N2674 N 0.86519 0.76945 0.58595 0.0
N2675 N 0.79895 0.78557 0.7578 0.0
H2676 H 0.76424 0.80383 0.62427 0.0
H2677 H 0.75935 0.79825 0.69079 0.0
H2678 H 0.80605 0.77842 0.79418 0.0
H2679 H 0.78486 0.80291 0.75949 0.0
H2680 H 0.88429 0.75803 0.58956 0.0
H2681 H 0.86605 0.78498 0.55688 0.0
H2682 H 0.87287 0.7185 0.6256 0.0
H2683 H 0.86582 0.70983 0.69078 0.0
C2684 C 0.96287 0.09485 0.45038 0.0
C2685 C 0.99295 0.09109 0.45055 0.0
C2686 C 0.9911 0.07861 0.35742 0.0
C2687 C 0.96064 0.0777 0.35971 0.0
N2688 N 0.92228 0.10515 0.39629 0.0
N2689 N 0.03619 0.07886 0.40446 0.0
C2690 C 0.94746 0.09106 0.40319 0.0
C2691 C 0.00724 0.0831 0.40397 0.0
N2692 N 0.94886 0.10261 0.49501 0.0
N2693 N 0.00464 0.07871 0.31039 0.0
H2694 H 0.04874 0.08215 0.43755 0.0
H2695 H 0.04747 0.07029 0.37312 0.0
H2696 H 0.99387 0.07668 0.27526 0.0
H2697 H 0.02598 0.08473 0.30602 0.0
H2698 H 0.92661 0.10262 0.49798 0.0
H2699 H 0.95938 0.10748 0.52981 0.0
H2700 H 0.91308 0.11836 0.42449 0.0
H2701 H 0.91363 0.10773 0.35933 0.0
C2702 C 0.65278 0.19987 0.15604 0.0
C2703 C 0.66865 0.21171 0.11405 0.0
C2704 C 0.66969 0.25801 0.16004 0.0
C2705 C 0.6572 0.24488 0.20439 0.0
N2706 N 0.63874 0.20253 0.24673 0.0
N2707 N 0.67796 0.25558 1.06735 0.0
C2708 C 0.64938 0.21556 0.20303 0.0
C2709 C 0.67325 0.24182 0.11344 0.0
N2710 N 0.63721 0.17563 0.14824 0.0
N2711 N 0.67929 0.28564 0.16295 0.0
H2712 H 0.68015 0.2449 1.03197 0.0
H2713 H 0.67589 0.27772 1.06361 0.0
H2714 H 0.67682 0.2983 0.19622 0.0
H2715 H 0.6917 0.29513 0.13386 0.0
H2716 H 0.6355 0.16645 0.11159 0.0
H2717 H 0.62259 0.16748 0.17514 0.0
H2718 H 0.63593 0.18042 0.2496 0.0
H2719 H 0.63457 0.21347 0.2814 0.0
C2720 C 0.09695 0.47423 0.97171 0.0
C2721 C 0.09962 0.50477 0.96483 0.0
C2722 C 0.09747 0.50811 1.06303 0.0
C2723 C 0.09737 0.47738 0.06988 0.0
N2724 N 0.10369 0.43209 1.02671 0.0
N2725 N 0.10798 0.54967 1.00821 0.0
C2726 C 0.09871 0.46088 1.02295 0.0
C2727 C 0.10123 0.52124 1.01185 0.0
N2728 N 0.09181 0.45735 0.92941 0.0
N2729 N 0.09288 0.52543 0.10508 0.0
H2730 H 0.11181 0.55992 0.9727 0.0
H2731 H 0.11284 0.5624 1.0404 0.0
H2732 H 0.09223 0.51804 0.14316 0.0
H2733 H 0.08777 0.54711 0.10173 0.0
H2734 H 0.0843 0.43638 0.93245 0.0
H2735 H 0.09368 0.46459 0.89138 0.0
H2736 H 0.10789 0.41909 0.99455 0.0
H2737 H 0.10693 0.42167 1.06223 0.0
C2738 C 0.74204 0.87279 0.24489 0.0
C2739 C 0.72795 0.84812 0.22365 0.0
C2740 C 0.7446 0.82114 0.30312 0.0
C2741 C 0.76031 0.84529 0.32296 0.0
N2742 N 0.77618 0.89345 0.30701 0.0
N2743 N 0.72061 0.79728 0.23058 0.0
C2744 C 0.75939 0.87093 0.29218 0.0
C2745 C 0.73042 0.82202 0.25266 0.0
N2746 N 0.73801 0.89858 0.22065 0.0
N2747 N 0.74254 0.79708 0.33312 0.0
H2748 H 0.71149 0.79649 0.19355 0.0
H2749 H 0.72314 0.77708 0.2471 0.0
H2750 H 0.75429 0.79439 0.36695 0.0
H2751 H 0.72795 0.78064 0.32647 0.0
H2752 H 0.74474 0.91808 0.23598 0.0
H2753 H 0.72564 0.90081 0.18696 0.0
H2754 H 0.7795 0.91163 0.28423 0.0
H2755 H 0.78881 0.893 0.34059 0.0
C2756 C 0.41417 0.48395 0.56598 0.0
C2757 C 0.4093 0.51437 0.56662 0.0
C2758 C 0.40281 0.51124 0.46958 0.0
C2759 C 0.40509 0.48054 0.46945 0.0
N2760 N 0.41036 0.43778 0.52107 0.0
N2761 N 0.39245 0.55505 0.51788 0.0
C2762 C 0.41039 0.46707 0.51871 0.0
C2763 C 0.40171 0.52729 0.51802 0.0
N2764 N 0.42212 0.47082 0.61117 0.0
N2765 N 0.40365 0.52564 0.42317 0.0
H2766 H 0.39111 0.56732 0.55176 0.0
H2767 H 0.38361 0.56495 0.48515 0.0
H2768 H 0.40598 0.51535 0.38735 0.0
H2769 H 0.40547 0.54787 0.42066 0.0
H2770 H 0.43013 0.45002 0.61334 0.0
H2771 H 0.42209 0.48157 0.64652 0.0
H2772 H 0.41122 0.42607 0.55561 0.0
H2773 H 0.40704 0.42485 0.48848 0.0
C2774 C 0.75516 0.11656 0.75245 0.0
C2775 C 0.7611 0.14231 0.72394 0.0
C2776 C 0.73943 0.16931 0.79929 0.0
C2777 C 0.73132 0.14362 0.82623 0.0
N2778 N 0.72942 0.09216 0.82319 0.0
N2779 N 0.75168 0.19309 0.71827 0.0
C2780 C 0.73885 0.1171 0.80125 0.0
C2781 C 0.75132 0.16853 0.74716 0.0
N2782 N 0.76573 0.09136 0.73342 0.0
N2783 N 0.73707 0.19502 0.82425 0.0
H2784 H 0.75912 0.19363 0.68029 0.0
H2785 H 0.74165 0.21204 0.72967 0.0
H2786 H 0.72811 0.19707 0.86098 0.0
H2787 H 0.7464 0.21388 0.8106 0.0
H2788 H 0.76523 0.07208 0.75387 0.0
H2789 H 0.77694 0.09019 0.69824 0.0
H2790 H 0.73111 0.07221 0.80529 0.0
H2791 H 0.71775 0.09167 0.85789 0.0
C2792 C 0.89016 0.46745 0.52774 0.0
C2793 C 0.89797 0.48211 0.57439 0.0
C2794 C 0.90287 0.52647 0.51916 0.0
C2795 C 0.89878 0.51105 0.47151 0.0
N2796 N 0.89455 0.4634 0.43386 0.0
N2797 N 0.91814 0.52564 0.60976 0.0
C2798 C 0.89404 0.48061 0.47688 0.0
C2799 C 0.90607 0.51162 0.56859 0.0
N2800 N 0.87762 0.4411 0.53159 0.0
N2801 N 0.90213 0.55571 0.51828 0.0
H2802 H 0.92134 0.51601 0.64584 0.0
H2803 H 0.92769 0.54574 0.60631 0.0
H2804 H 0.89787 0.5674 0.48447 0.0
H2805 H 0.9022 0.56817 0.55202 0.0
H2806 H 0.86855 0.43054 0.4998 0.0
H2807 H 0.87352 0.4312 0.56735 0.0
H2808 H 0.89519 0.44109 0.43628 0.0
H2809 H 0.89712 0.47095 0.39612 0.0
C2810 C 0.23152 0.12557 0.25023 0.0
C2811 C 0.22779 0.15132 0.22057 0.0
C2812 C 0.25639 0.1766 0.29026 0.0
C2813 C 0.26153 0.15037 0.31865 0.0
N2814 N 0.2571 0.09897 0.31806 0.0
N2815 N 0.23939 0.20114 0.21125 0.0
C2816 C 0.24969 0.12473 0.2965 0.0
C2817 C 0.24108 0.17671 0.24057 0.0
N2818 N 0.21674 0.10173 0.2351 0.0
N2819 N 0.26535 0.20189 0.31157 0.0
H2820 H 0.22931 0.20167 0.17512 0.0
H2821 H 0.24924 0.22048 0.2201 0.0
H2822 H 0.274 0.20347 0.34872 0.0
H2823 H 0.26197 0.22202 0.29536 0.0
H2824 H 0.21529 0.08314 0.25747 0.0
H2825 H 0.20374 0.10134 0.202 0.0
H2826 H 0.25212 0.07925 0.30145 0.0
H2827 H 0.27081 0.09714 0.34998 0.0
C2828 C 0.57079 0.48004 1.00209 0.0
C2829 C 0.59651 0.47621 0.97245 0.0
C2830 C 0.62062 0.5092 1.0365 0.0
C2831 C 0.59501 0.51225 1.06655 0.0
N2832 N 0.54634 0.49737 0.07971 0.0
N2833 N 0.64712 0.48477 0.96686 0.0
C2834 C 0.57039 0.49674 1.04955 0.0
C2835 C 0.62169 0.49038 0.99119 0.0
N2836 N 0.54586 0.469 0.98345 0.0
N2837 N 0.64398 0.52497 1.05077 0.0
H2838 H 0.64878 0.47085 0.93516 0.0
H2839 H 0.66691 0.49183 0.9802 0.0
H2840 H 0.64394 0.53844 0.08328 0.0
H2841 H 0.66268 0.52642 1.02894 0.0
H2842 H 0.52582 0.47365 0.99894 0.0
H2843 H 0.5447 0.45717 0.94932 0.0
H2844 H 0.5296 0.48274 0.07672 0.0
H2845 H 0.54371 0.51195 0.1098 0.0
C2846 C 0.24023 0.82607 0.80129 0.0
C2847 C 0.22426 0.85051 0.81773 0.0
C2848 C 0.24186 0.87525 0.73635 0.0
C2849 C 0.25581 0.84979 0.71775 0.0
N2850 N 0.25923 0.79857 0.7295 0.0
N2851 N 0.20765 0.89776 0.79645 0.0
C2852 C 0.25265 0.8247 0.74973 0.0
C2853 C 0.22443 0.87485 0.78369 0.0
N2854 N 0.24401 0.80374 0.83518 0.0
N2855 N 0.24623 0.90035 0.7101 0.0
H2856 H 0.19548 0.89827 0.83058 0.0
H2857 H 0.20402 0.91511 0.77172 0.0
H2858 H 0.2591 0.90171 0.67697 0.0
H2859 H 0.23929 0.92022 0.72355 0.0
H2860 H 0.25868 0.78726 0.82873 0.0
H2861 H 0.23427 0.80287 0.87166 0.0
H2862 H 0.2548 0.77944 0.74867 0.0
H2863 H 0.26562 0.79578 0.69121 0.0
C2864 C 0.60026 0.96404 0.52537 0.0
C2865 C 0.5909 0.97923 0.5707 0.0
C2866 C 0.58789 0.0229 0.51311 0.0
C2867 C 0.59368 0.00713 0.46633 0.0
N2868 N 0.59876 0.95906 0.43102 0.0
N2869 N 0.56647 0.02199 0.59902 0.0
C2870 C 0.59815 0.97671 0.47343 0.0
C2871 C 0.58229 0.00837 0.56203 0.0
N2872 N 0.612 0.93745 0.53156 0.0
N2873 N 0.58853 0.05216 0.51202 0.0
H2874 H 0.55866 0.01127 0.63135 0.0
H2875 H 0.55726 0.04206 0.59309 0.0
H2876 H 0.59477 0.0638 0.47923 0.0
H2877 H 0.58659 0.06468 0.54554 0.0
H2878 H 0.62221 0.9265 0.50138 0.0
H2879 H 0.61401 0.92759 0.56795 0.0
H2880 H 0.59835 0.93678 0.43413 0.0
H2881 H 0.59659 0.9662 0.39287 0.0
C2882 C 0.24038 0.31916 0.75254 0.0
C2883 C 0.23264 0.34483 0.72467 0.0
C2884 C 0.25966 0.37175 0.79537 0.0
C2885 C 0.26529 0.34628 0.82519 0.0
N2886 N 0.25541 0.29578 0.83309 0.0
N2887 N 0.23284 0.39636 0.72616 0.0
C2888 C 0.25417 0.32011 0.80359 0.0
C2889 C 0.24194 0.37125 0.74806 0.0
N2890 N 0.23586 0.29322 0.72934 0.0
N2891 N 0.27228 0.39666 0.81112 0.0
H2892 H 0.22 0.39703 0.69288 0.0
H2893 H 0.23576 0.41636 0.74331 0.0
H2894 H 0.28493 0.39792 0.84459 0.0
H2895 H 0.2723 0.41538 0.78898 0.0
H2896 H 0.24474 0.2741 0.74282 0.0
H2897 H 0.22532 0.29092 0.69398 0.0
H2898 H 0.24492 0.2768 0.82355 0.0
H2899 H 0.26472 0.29525 0.86981 0.0
C2900 C 0.86737 0.00271 1.04809 0.0
C2901 C 0.89337 0.01191 0.07251 0.0
C2902 C 0.91962 0.98984 0.99607 0.0
C2903 C 0.89375 0.97903 0.97327 0.0
N2904 N 0.84278 0.97419 0.98121 0.0
N2905 N 0.94469 0.01126 1.0695 0.0
C2906 C 0.86761 0.98549 1.00032 0.0
C2907 C 0.91945 0.00488 1.04577 0.0
N2908 N 0.84209 0.01147 1.06962 0.0
N2909 N 0.94483 0.98594 0.96996 0.0
H2910 H 0.94579 0.01911 0.1071 0.0
H2911 H 0.96477 0.00767 1.05366 0.0
H2912 H 0.94706 0.97201 0.93875 0.0
H2913 H 0.96357 -0.00278 0.97733 0.0
H2914 H 0.82219 0.00866 1.05218 0.0
H2915 H 0.84115 0.02368 0.10369 0.0
H2916 H 0.82322 0.97516 1.00045 0.0
H2917 H 0.84209 0.96183 0.94732 0.0
C2918 C 0.24037 0.6732 0.29691 0.0
C2919 C 0.23516 0.64698 0.32466 0.0
C2920 C 0.26536 0.62301 0.25559 0.0
C2921 C 0.26692 0.64859 0.22486 0.0
N2922 N 0.24954 0.69704 0.21443 0.0
N2923 N 0.24085 0.59561 0.32372 0.0
C2924 C 0.25239 0.6732 0.24497 0.0
C2925 C 0.24744 0.62157 0.30222 0.0
N2926 N 0.2361 0.69878 0.32142 0.0
N2927 N 0.28097 0.59978 0.24011 0.0
H2928 H 0.22722 0.59342 0.35568 0.0
H2929 H 0.24654 0.57609 0.30699 0.0
H2930 H 0.29337 0.5999 0.20621 0.0
H2931 H 0.28353 0.58142 0.26281 0.0
H2932 H 0.24255 0.71835 0.30565 0.0
H2933 H 0.22982 0.70021 0.36011 0.0
H2934 H 0.23616 0.71412 0.22424 0.0
H2935 H 0.25869 0.69884 0.17759 0.0
C2936 C 0.36411 0.98903 1.04775 0.0
C2937 C 0.38963 0.97744 0.07112 0.0
C2938 C 0.41546 -0.00332 0.99238 0.0
C2939 C 0.39074 0.01124 0.97194 0.0
N2940 N 0.34181 0.02421 0.98948 0.0
N2941 N 0.44129 0.97956 1.06814 0.0
C2942 C 0.36519 0.00815 1.00247 0.0
C2943 C 0.41567 0.98399 1.044 0.0
N2944 N 0.33831 0.98073 1.06712 0.0
N2945 N 0.43875 0.99302 0.96132 0.0
H2946 H 0.44279 0.9732 0.10676 0.0
H2947 H 0.46079 0.98617 1.05245 0.0
H2948 H 0.43855 -0.00077 0.9227 0.0
H2949 H 0.45623 0.98023 0.97141 0.0
H2950 H 0.31888 0.98579 1.04942 0.0
H2951 H 0.33664 0.96597 0.09739 0.0
H2952 H 0.32356 0.02552 1.01272 0.0
H2953 H 0.34176 0.03854 0.95823 0.0
C2954 C 0.7727 0.63239 0.77894 0.0
C2955 C 0.75902 0.64442 0.82375 0.0
C2956 C 0.71619 0.65264 0.76626 0.0
C2957 C 0.73097 0.6439 0.71989 0.0
N2958 N 0.77803 0.63282 0.68479 0.0
N2959 N 0.71987 0.67486 0.8516 0.0
C2960 C 0.76053 0.6358 0.72707 0.0
C2961 C 0.73137 0.65703 0.81489 0.0
N2962 N 0.79706 0.61661 0.78544 0.0
N2963 N 0.68714 0.65582 0.76517 0.0
H2964 H 0.73077 0.68095 0.88523 0.0
H2965 H 0.70126 0.68671 0.84513 0.0
H2966 H 0.67475 0.65062 0.73275 0.0
H2967 H 0.67506 0.65997 0.79855 0.0
H2968 H 0.8064 0.60488 0.75528 0.0
H2969 H 0.8061 0.61259 0.82191 0.0
H2970 H 0.80015 0.63049 0.68816 0.0
H2971 H 0.77138 0.63583 0.64655 0.0
C2972 C 0.09398 0.96624 0.51588 0.0
C2973 C 0.09351 0.98164 0.46757 0.0
C2974 C 0.09286 0.0272 0.522 0.0
C2975 C 0.09246 0.01161 0.57034 0.0
N2976 N 0.08819 0.9646 0.60993 0.0
N2977 N 0.09451 0.02829 0.42641 0.0
C2978 C 0.09194 0.98075 0.56603 0.0
C2979 C 0.09336 0.01255 0.4714 0.0
N2980 N 0.0987 0.93729 0.51445 0.0
N2981 N 0.0928 0.0565 0.52443 0.0
H2982 H 0.09446 0.01932 0.38946 0.0
H2983 H 0.09686 0.05039 0.42452 0.0
H2984 H 0.09621 0.06779 0.55892 0.0
H2985 H 0.08925 0.07014 0.49305 0.0
H2986 H 0.10299 0.92489 0.54735 0.0
H2987 H 0.10151 0.92585 0.47991 0.0
H2988 H 0.08135 0.94335 0.60915 0.0
H2989 H 0.09062 0.97243 0.64743 0.0
C2990 C 0.73941 0.31875 0.29799 0.0
C2991 C 0.73181 0.34494 0.32357 0.0
C2992 C 0.75785 0.37067 0.25122 0.0
C2993 C 0.76384 0.34446 0.22392 0.0
N2994 N 0.7544 0.29361 0.21977 0.0
N2995 N 0.73183 0.3963 0.32021 0.0
C2996 C 0.75311 0.3186 0.24727 0.0
C2997 C 0.7405 0.37097 0.29866 0.0
N2998 N 0.73414 0.29341 0.32279 0.0
N2999 N 0.76994 0.39542 0.23314 0.0
H3000 H 0.72 0.39721 0.35474 0.0
H3001 H 0.73436 0.41616 0.30227 0.0
H3002 H 0.78304 0.39605 0.20022 0.0
H3003 H 0.76918 0.41488 0.2529 0.0
H3004 H 0.7428 0.27384 0.31115 0.0
H3005 H 0.72317 0.29229 0.35797 0.0
H3006 H 0.74348 0.27503 0.2303 0.0
H3007 H 0.76424 0.29203 0.18373 0.0
loop_
_geom_bond_atom_site_label_1
_geom_bond_atom_site_label_2
_geom_bond_distance
_geom_bond_site_symmetry_2
_ccdc_geom_bond_type
Tb0 C2 2.809 . S
Tb0 O20 2.484 . S
Tb0 O21 2.440 . S
Tb0 O22 2.658 . S
Tb0 O23 2.409 . S
Tb0 O24 2.378 . S
Tb0 O28 2.325 . S
Tb0 O31 2.341 . S
Tb1 C11 2.809 . S
Tb1 O22 2.325 . S
Tb1 O25 2.341 . S
Tb1 O26 2.484 . S
Tb1 O27 2.440 . S
Tb1 O28 2.658 . S
Tb1 O29 2.409 . S
Tb1 O30 2.378 . S
C2 Tb0 2.809 . S
C2 C3 1.514 1_554 S
C2 O20 1.248 . S
C2 O21 1.266 . S
C3 C2 1.514 1_556 S
C3 C4 1.359 . S
C3 C8 1.348 . S
C4 C3 1.359 . S
C4 C5 1.380 . S
C4 H32 0.929 . S
C5 C4 1.380 . S
C5 C6 1.347 . S
C5 H33 0.931 . S
C6 C5 1.347 . S
C6 C7 1.369 . S
C7 C6 1.369 . S
C7 C8 1.408 . S
C7 H34 0.930 . S
C8 C3 1.348 . S
C8 C7 1.408 . S
C8 H35 0.930 . S
C9 O22 1.281 . S
C9 O23 1.254 . S
C10 O24 1.236 . S
C10 O25 1.266 . S
C11 Tb1 2.809 . S
C11 C12 1.514 . S
C11 O26 1.248 . S
C11 O27 1.266 . S
C12 C11 1.514 . S
C12 C13 1.359 . S
C12 C17 1.348 . S
C13 C12 1.359 . S
C13 C14 1.380 . S
C13 H36 0.929 . S
C14 C13 1.380 . S
C14 C15 1.347 . S
C14 H37 0.931 . S
C15 C14 1.347 . S
C15 C16 1.369 . S
C16 C15 1.369 . S
C16 C17 1.408 . S
C16 H38 0.930 . S
C17 C12 1.348 . S
C17 C16 1.408 . S
C17 H39 0.930 . S
C18 O28 1.281 . S
C18 O29 1.254 . S
C19 O30 1.236 . S
C19 O31 1.266 . S
O20 Tb0 2.484 . S
O20 C2 1.248 . S
O21 Tb0 2.440 . S
O21 C2 1.266 . S
O22 Tb0 2.658 . S
O22 Tb1 2.325 . S
O22 C9 1.281 . S
O23 Tb0 2.409 . S
O23 C9 1.254 . S
O24 Tb0 2.378 . S
O24 C10 1.236 . S
O25 Tb1 2.341 . S
O25 C10 1.266 . S
O26 Tb1 2.484 . S
O26 C11 1.248 . S
O27 Tb1 2.440 . S
O27 C11 1.266 . S
O28 Tb0 2.325 . S
O28 Tb1 2.658 . S
O28 C18 1.281 . S
O29 Tb1 2.409 . S
O29 C18 1.254 . S
O30 Tb1 2.378 . S
O30 C19 1.236 . S
O31 Tb0 2.341 . S
O31 C19 1.266 . S
H32 C4 0.929 . S
H33 C5 0.931 . S
H34 C7 0.930 . S
H35 C8 0.930 . S
H36 C13 0.929 . S
H37 C14 0.931 . S
H38 C16 0.930 . S
H39 C17 0.930 . S
Tb40 C42 2.809 . S
Tb40 O60 2.484 . S
Tb40 O61 2.440 . S
Tb40 O62 2.658 . S
Tb40 O63 2.409 . S
Tb40 O64 2.378 . S
Tb40 O68 2.325 . S
Tb40 O71 2.341 . S
Tb41 C51 2.809 . S
Tb41 O62 2.325 . S
Tb41 O65 2.341 . S
Tb41 O66 2.484 . S
Tb41 O67 2.440 . S
Tb41 O68 2.658 . S
Tb41 O69 2.409 . S
Tb41 O70 2.378 . S
C42 Tb40 2.809 . S
C42 C43 1.514 . S
C42 O60 1.248 . S
C42 O61 1.266 . S
C43 C42 1.514 . S
C43 C44 1.359 . S
C43 C48 1.348 . S
C44 C43 1.359 . S
C44 C45 1.380 . S
C44 H72 0.929 . S
C45 C44 1.380 . S
C45 C46 1.347 . S
C45 H73 0.931 . S
C46 C45 1.347 . S
C46 C47 1.369 . S
C47 C46 1.369 . S
C47 C48 1.408 . S
C47 H74 0.930 . S
C48 C43 1.348 . S
C48 C47 1.408 . S
C48 H75 0.930 . S
C49 O62 1.281 . S
C49 O63 1.254 . S
C50 O64 1.236 . S
C50 O65 1.266 . S
C51 Tb41 2.809 . S
C51 C52 1.514 . S
C51 O66 1.248 . S
C51 O67 1.266 . S
C52 C51 1.514 . S
C52 C53 1.359 . S
C52 C57 1.348 . S
C53 C52 1.359 . S
C53 C54 1.380 . S
C53 H76 0.929 . S
C54 C53 1.380 . S
C54 C55 1.347 . S
C54 H77 0.931 . S
C55 C54 1.347 . S
C55 C56 1.369 . S
C56 C55 1.369 . S
C56 C57 1.408 . S
C56 H78 0.930 . S
C57 C52 1.348 . S
C57 C56 1.408 . S
C57 H79 0.930 . S
C58 O68 1.281 . S
C58 O69 1.254 . S
C59 O70 1.236 . S
C59 O71 1.266 . S
O60 Tb40 2.484 . S
O60 C42 1.248 . S
O61 Tb40 2.440 . S
O61 C42 1.266 . S
O62 Tb40 2.658 . S
O62 Tb41 2.325 . S
O62 C49 1.281 . S
O63 Tb40 2.409 . S
O63 C49 1.254 . S
O64 Tb40 2.378 . S
O64 C50 1.236 . S
O65 Tb41 2.341 . S
O65 C50 1.266 . S
O66 Tb41 2.484 . S
O66 C51 1.248 . S
O67 Tb41 2.440 . S
O67 C51 1.266 . S
O68 Tb40 2.325 . S
O68 Tb41 2.658 . S
O68 C58 1.281 . S
O69 Tb41 2.409 . S
O69 C58 1.254 . S
O70 Tb41 2.378 . S
O70 C59 1.236 . S
O71 Tb40 2.341 . S
O71 C59 1.266 . S
H72 C44 0.929 . S
H73 C45 0.931 . S
H74 C47 0.930 . S
H75 C48 0.930 . S
H76 C53 0.929 . S
H77 C54 0.931 . S
H78 C56 0.930 . S
H79 C57 0.930 . S
Tb80 C82 2.809 . S
Tb80 O100 2.484 . S
Tb80 O101 2.440 . S
Tb80 O102 2.658 . S
Tb80 O103 2.409 . S
Tb80 O104 2.378 . S
Tb80 O108 2.325 . S
Tb80 O111 2.341 . S
Tb81 C91 2.809 . S
Tb81 O102 2.325 . S
Tb81 O105 2.341 . S
Tb81 O106 2.484 . S
Tb81 O107 2.440 . S
Tb81 O108 2.658 . S
Tb81 O109 2.409 . S
Tb81 O110 2.378 . S
C82 Tb80 2.809 . S
C82 C83 1.514 . S
C82 O100 1.248 . S
C82 O101 1.266 . S
C83 C82 1.514 . S
C83 C84 1.359 . S
C83 C88 1.348 . S
C84 C83 1.359 . S
C84 C85 1.380 . S
C84 H112 0.929 . S
C85 C84 1.380 . S
C85 C86 1.347 . S
C85 H113 0.931 . S
C86 C85 1.347 . S
C86 C87 1.369 . S
C87 C86 1.369 . S
C87 C88 1.408 . S
C87 H114 0.930 . S
C88 C83 1.348 . S
C88 C87 1.408 . S
C88 H115 0.930 . S
C89 O102 1.281 . S
C89 O103 1.254 . S
C90 O104 1.236 . S
C90 O105 1.266 . S
C91 Tb81 2.809 . S
C91 C92 1.514 . S
C91 O106 1.248 . S
C91 O107 1.266 . S
C92 C91 1.514 . S
C92 C93 1.359 . S
C92 C97 1.348 . S
C93 C92 1.359 . S
C93 C94 1.380 . S
C93 H116 0.929 . S
C94 C93 1.380 . S
C94 C95 1.347 . S
C94 H117 0.931 . S
C95 C94 1.347 . S
C95 C96 1.369 . S
C96 C95 1.369 . S
C96 C97 1.408 . S
C96 H118 0.930 . S
C97 C92 1.348 . S
C97 C96 1.408 . S
C97 H119 0.930 . S
C98 O108 1.281 . S
C98 O109 1.254 . S
C99 O110 1.236 . S
C99 O111 1.266 . S
O100 Tb80 2.484 . S
O100 C82 1.248 . S
O101 Tb80 2.440 . S
O101 C82 1.266 . S
O102 Tb80 2.658 . S
O102 Tb81 2.325 . S
O102 C89 1.281 . S
O103 Tb80 2.409 . S
O103 C89 1.254 . S
O104 Tb80 2.378 . S
O104 C90 1.236 . S
O105 Tb81 2.341 . S
O105 C90 1.266 . S
O106 Tb81 2.484 . S
O106 C91 1.248 . S
O107 Tb81 2.440 . S
O107 C91 1.266 . S
O108 Tb80 2.325 . S
O108 Tb81 2.658 . S
O108 C98 1.281 . S
O109 Tb81 2.409 . S
O109 C98 1.254 . S
O110 Tb81 2.378 . S
O110 C99 1.236 . S
O111 Tb80 2.341 . S
O111 C99 1.266 . S
H112 C84 0.929 . S
H113 C85 0.931 . S
H114 C87 0.930 . S
H115 C88 0.930 . S
H116 C93 0.929 . S
H117 C94 0.931 . S
H118 C96 0.930 . S
H119 C97 0.930 . S
Tb120 C122 2.809 . S
Tb120 O140 2.484 . S
Tb120 O141 2.440 . S
Tb120 O142 2.658 . S
Tb120 O143 2.409 . S
Tb120 O144 2.378 . S
Tb120 O148 2.325 . S
Tb120 O151 2.341 . S
Tb121 C131 2.809 1_556 S
Tb121 O142 2.325 . S
Tb121 O145 2.341 . S
Tb121 O146 2.484 1_556 S
Tb121 O147 2.440 1_556 S
Tb121 O148 2.658 . S
Tb121 O149 2.409 . S
Tb121 O150 2.378 . S
C122 Tb120 2.809 . S
C122 C123 1.514 . S
C122 O140 1.248 . S
C122 O141 1.266 . S
C123 C122 1.514 . S
C123 C124 1.359 . S
C123 C128 1.348 . S
C124 C123 1.359 . S
C124 C125 1.380 . S
C124 H152 0.929 . S
C125 C124 1.380 . S
C125 C126 1.347 . S
C125 H153 0.931 . S
C126 C125 1.347 . S
C126 C127 1.369 . S
C127 C126 1.369 . S
C127 C128 1.408 . S
C127 H154 0.930 . S
C128 C123 1.348 . S
C128 C127 1.408 . S
C128 H155 0.930 . S
C129 O142 1.281 . S
C129 O143 1.254 . S
C130 O144 1.236 . S
C130 O145 1.266 . S
C131 Tb121 2.809 1_554 S
C131 C132 1.514 . S
C131 O146 1.248 . S
C131 O147 1.266 . S
C132 C131 1.514 . S
C132 C133 1.359 . S
C132 C137 1.348 . S
C133 C132 1.359 . S
C133 C134 1.380 . S
C133 H156 0.929 . S
C134 C133 1.380 . S
C134 C135 1.347 . S
C134 H157 0.931 . S
C135 C134 1.347 . S
C135 C136 1.369 . S
C136 C135 1.369 . S
C136 C137 1.408 . S
C136 H158 0.930 . S
C137 C132 1.348 . S
C137 C136 1.408 . S
C137 H159 0.930 . S
C138 O148 1.281 . S
C138 O149 1.254 . S
C139 O150 1.236 . S
C139 O151 1.266 . S
O140 Tb120 2.484 . S
O140 C122 1.248 . S
O141 Tb120 2.440 . S
O141 C122 1.266 . S
O142 Tb120 2.658 . S
O142 Tb121 2.325 . S
O142 C129 1.281 . S
O143 Tb120 2.409 . S
O143 C129 1.254 . S
O144 Tb120 2.378 . S
O144 C130 1.236 . S
O145 Tb121 2.341 . S
O145 C130 1.266 . S
O146 Tb121 2.484 1_554 S
O146 C131 1.248 . S
O147 Tb121 2.440 1_554 S
O147 C131 1.266 . S
O148 Tb120 2.325 . S
O148 Tb121 2.658 . S
O148 C138 1.281 . S
O149 Tb121 2.409 . S
O149 C138 1.254 . S
O150 Tb121 2.378 . S
O150 C139 1.236 . S
O151 Tb120 2.341 . S
O151 C139 1.266 . S
H152 C124 0.929 . S
H153 C125 0.931 . S
H154 C127 0.930 . S
H155 C128 0.930 . S
H156 C133 0.929 . S
H157 C134 0.931 . S
H158 C136 0.930 . S
H159 C137 0.930 . S
Tb160 C162 2.809 . S
Tb160 O180 2.484 . S
Tb160 O181 2.440 . S
Tb160 O182 2.658 . S
Tb160 O183 2.409 . S
Tb160 O184 2.378 . S
Tb160 O188 2.325 . S
Tb160 O191 2.341 . S
Tb161 C171 2.809 . S
Tb161 O182 2.325 . S
Tb161 O185 2.341 . S
Tb161 O186 2.484 . S
Tb161 O187 2.440 . S
Tb161 O188 2.658 . S
Tb161 O189 2.409 . S
Tb161 O190 2.378 . S
C162 Tb160 2.809 . S
C162 C163 1.514 . S
C162 O180 1.248 . S
C162 O181 1.266 . S
C163 C162 1.514 . S
C163 C164 1.359 . S
C163 C168 1.348 . S
C164 C163 1.359 . S
C164 C165 1.380 . S
C164 H192 0.929 . S
C165 C164 1.380 . S
C165 C166 1.347 1_556 S
C165 H193 0.931 1_556 S
C166 C165 1.347 1_554 S
C166 C167 1.369 1_554 S
C167 C166 1.369 1_556 S
C167 C168 1.408 . S
C167 H194 0.930 . S
C168 C163 1.348 . S
C168 C167 1.408 . S
C168 H195 0.930 . S
C169 O182 1.281 . S
C169 O183 1.254 . S
C170 O184 1.236 . S
C170 O185 1.266 . S
C171 Tb161 2.809 . S
C171 C172 1.514 . S
C171 O186 1.248 . S
C171 O187 1.266 . S
C172 C171 1.514 . S
C172 C173 1.359 . S
C172 C177 1.348 . S
C173 C172 1.359 . S
C173 C174 1.380 . S
C173 H196 0.929 . S
C174 C173 1.380 . S
C174 C175 1.347 . S
C174 H197 0.931 . S
C175 C174 1.347 . S
C175 C176 1.369 . S
C176 C175 1.369 . S
C176 C177 1.408 . S
C176 H198 0.930 . S
C177 C172 1.348 . S
C177 C176 1.408 . S
C177 H199 0.930 . S
C178 O188 1.281 . S
C178 O189 1.254 . S
C179 O190 1.236 . S
C179 O191 1.266 . S
O180 Tb160 2.484 . S
O180 C162 1.248 . S
O181 Tb160 2.440 . S
O181 C162 1.266 . S
O182 Tb160 2.658 . S
O182 Tb161 2.325 . S
O182 C169 1.281 . S
O183 Tb160 2.409 . S
O183 C169 1.254 . S
O184 Tb160 2.378 . S
O184 C170 1.236 . S
O185 Tb161 2.341 . S
O185 C170 1.266 . S
O186 Tb161 2.484 . S
O186 C171 1.248 . S
O187 Tb161 2.440 . S
O187 C171 1.266 . S
O188 Tb160 2.325 . S
O188 Tb161 2.658 . S
O188 C178 1.281 . S
O189 Tb161 2.409 . S
O189 C178 1.254 . S
O190 Tb161 2.378 . S
O190 C179 1.236 . S
O191 Tb160 2.341 . S
O191 C179 1.266 . S
H192 C164 0.929 . S
H193 C165 0.931 1_554 S
H194 C167 0.930 . S
H195 C168 0.930 . S
H196 C173 0.929 . S
H197 C174 0.931 . S
H198 C176 0.930 . S
H199 C177 0.930 . S
Tb200 C202 2.809 . S
Tb200 O220 2.484 . S
Tb200 O221 2.440 . S
Tb200 O222 2.658 1_554 S
Tb200 O223 2.409 . S
Tb200 O224 2.378 . S
Tb200 O228 2.325 . S
Tb200 O231 2.341 1_554 S
Tb201 C211 2.809 . S
Tb201 O222 2.325 . S
Tb201 O225 2.341 1_556 S
Tb201 O226 2.484 . S
Tb201 O227 2.440 . S
Tb201 O228 2.658 1_556 S
Tb201 O229 2.409 . S
Tb201 O230 2.378 . S
C202 Tb200 2.809 . S
C202 C203 1.514 . S
C202 O220 1.248 . S
C202 O221 1.266 . S
C203 C202 1.514 . S
C203 C204 1.359 . S
C203 C208 1.348 . S
C204 C203 1.359 . S
C204 C205 1.380 . S
C204 H232 0.929 . S
C205 C204 1.380 . S
C205 C206 1.347 . S
C205 H233 0.931 . S
C206 C205 1.347 . S
C206 C207 1.369 . S
C207 C206 1.369 . S
C207 C208 1.408 . S
C207 H234 0.930 . S
C208 C203 1.348 . S
C208 C207 1.408 . S
C208 H235 0.930 . S
C209 O222 1.281 . S
C209 O223 1.254 1_556 S
C210 O224 1.236 . S
C210 O225 1.266 . S
C211 Tb201 2.809 . S
C211 C212 1.514 . S
C211 O226 1.248 . S
C211 O227 1.266 . S
C212 C211 1.514 . S
C212 C213 1.359 . S
C212 C217 1.348 . S
C213 C212 1.359 . S
C213 C214 1.380 . S
C213 H236 0.929 . S
C214 C213 1.380 . S
C214 C215 1.347 . S
C214 H237 0.931 . S
C215 C214 1.347 . S
C215 C216 1.369 . S
C216 C215 1.369 . S
C216 C217 1.408 . S
C216 H238 0.930 . S
C217 C212 1.348 . S
C217 C216 1.408 . S
C217 H239 0.930 . S
C218 O228 1.278 1_556 S
C218 O229 1.261 . S
C219 O230 1.236 . S
C219 O231 1.266 . S
O220 Tb200 2.484 . S
O220 C202 1.248 . S
O221 Tb200 2.440 . S
O221 C202 1.266 . S
O222 Tb200 2.658 1_556 S
O222 Tb201 2.325 . S
O222 C209 1.281 . S
O223 Tb200 2.409 . S
O223 C209 1.254 1_554 S
O224 Tb200 2.378 . S
O224 C210 1.236 . S
O225 Tb201 2.341 1_554 S
O225 C210 1.266 . S
O226 Tb201 2.484 . S
O226 C211 1.248 . S
O227 Tb201 2.440 . S
O227 C211 1.266 . S
O228 Tb200 2.325 . S
O228 Tb201 2.658 1_554 S
O228 C218 1.278 1_554 S
O229 Tb201 2.409 . S
O229 C218 1.261 . S
O230 Tb201 2.378 . S
O230 C219 1.236 . S
O231 Tb200 2.341 1_556 S
O231 C219 1.266 . S
H232 C204 0.929 . S
H233 C205 0.931 . S
H234 C207 0.930 . S
H235 C208 0.930 . S
H236 C213 0.929 . S
H237 C214 0.931 . S
H238 C216 0.930 . S
H239 C217 0.930 . S
Tb240 C242 2.809 . S
Tb240 O260 2.484 . S
Tb240 O261 2.440 . S
Tb240 O262 2.658 . S
Tb240 O263 2.409 . S
Tb240 O264 2.378 . S
Tb240 O268 2.325 . S
Tb240 O271 2.341 . S
Tb241 C251 2.809 . S
Tb241 O262 2.325 . S
Tb241 O265 2.341 . S
Tb241 O266 2.484 . S
Tb241 O267 2.440 . S
Tb241 O268 2.658 . S
Tb241 O269 2.409 . S
Tb241 O270 2.378 . S
C242 Tb240 2.809 . S
C242 C243 1.514 . S
C242 O260 1.248 . S
C242 O261 1.266 . S
C243 C242 1.514 . S
C243 C244 1.359 . S
C243 C248 1.348 . S
C244 C243 1.359 . S
C244 C245 1.380 . S
C244 H272 0.929 . S
C245 C244 1.380 . S
C245 C246 1.347 . S
C245 H273 0.931 . S
C246 C245 1.347 . S
C246 C247 1.369 . S
C247 C246 1.369 . S
C247 C248 1.408 . S
C247 H274 0.930 . S
C248 C243 1.348 . S
C248 C247 1.408 . S
C248 H275 0.930 . S
C249 O262 1.281 . S
C249 O263 1.254 . S
C250 O264 1.236 . S
C250 O265 1.266 . S
C251 Tb241 2.809 . S
C251 C252 1.514 . S
C251 O266 1.248 . S
C251 O267 1.266 . S
C252 C251 1.514 . S
C252 C253 1.359 . S
C252 C257 1.348 . S
C253 C252 1.359 . S
C253 C254 1.380 1_554 S
C253 H276 0.929 . S
C254 C253 1.380 1_556 S
C254 C255 1.347 . S
C254 H277 0.931 . S
C255 C254 1.347 . S
C255 C256 1.369 1_556 S
C256 C255 1.369 1_554 S
C256 C257 1.408 . S
C256 H278 0.930 1_554 S
C257 C252 1.348 . S
C257 C256 1.408 . S
C257 H279 0.930 . S
C258 O268 1.281 . S
C258 O269 1.254 . S
C259 O270 1.236 . S
C259 O271 1.266 . S
O260 Tb240 2.484 . S
O260 C242 1.248 . S
O261 Tb240 2.440 . S
O261 C242 1.266 . S
O262 Tb240 2.658 . S
O262 Tb241 2.325 . S
O262 C249 1.281 . S
O263 Tb240 2.409 . S
O263 C249 1.254 . S
O264 Tb240 2.378 . S
O264 C250 1.236 . S
O265 Tb241 2.341 . S
O265 C250 1.266 . S
O266 Tb241 2.484 . S
O266 C251 1.248 . S
O267 Tb241 2.440 . S
O267 C251 1.266 . S
O268 Tb240 2.325 . S
O268 Tb241 2.658 . S
O268 C258 1.281 . S
O269 Tb241 2.409 . S
O269 C258 1.254 . S
O270 Tb241 2.378 . S
O270 C259 1.236 . S
O271 Tb240 2.341 . S
O271 C259 1.266 . S
H272 C244 0.929 . S
H273 C245 0.931 . S
H274 C247 0.930 . S
H275 C248 0.930 . S
H276 C253 0.929 . S
H277 C254 0.931 . S
H278 C256 0.930 1_556 S
H279 C257 0.930 . S
Tb280 C282 2.809 . S
Tb280 O300 2.484 . S
Tb280 O301 2.440 . S
Tb280 O302 2.658 . S
Tb280 O303 2.409 . S
Tb280 O304 2.378 . S
Tb280 O308 2.325 . S
Tb280 O311 2.341 . S
Tb281 C291 2.809 . S
Tb281 O302 2.325 . S
Tb281 O305 2.341 . S
Tb281 O306 2.484 . S
Tb281 O307 2.440 . S
Tb281 O308 2.658 . S
Tb281 O309 2.409 . S
Tb281 O310 2.378 . S
C282 Tb280 2.809 . S
C282 C283 1.514 . S
C282 O300 1.248 . S
C282 O301 1.266 . S
C283 C282 1.514 . S
C283 C284 1.359 . S
C283 C288 1.348 . S
C284 C283 1.359 . S
C284 C285 1.380 . S
C284 H312 0.929 . S
C285 C284 1.380 . S
C285 C286 1.347 . S
C285 H313 0.931 . S
C286 C285 1.347 . S
C286 C287 1.369 . S
C287 C286 1.369 . S
C287 C288 1.408 . S
C287 H314 0.930 . S
C288 C283 1.348 . S
C288 C287 1.408 . S
C288 H315 0.930 . S
C289 O302 1.281 . S
C289 O303 1.254 . S
C290 O304 1.236 . S
C290 O305 1.266 . S
C291 Tb281 2.809 . S
C291 C292 1.514 . S
C291 O306 1.248 . S
C291 O307 1.266 . S
C292 C291 1.514 . S
C292 C293 1.359 . S
C292 C297 1.348 . S
C293 C292 1.359 . S
C293 C294 1.380 . S
C293 H316 0.929 . S
C294 C293 1.380 . S
C294 C295 1.347 . S
C294 H317 0.931 . S
C295 C294 1.347 . S
C295 C296 1.369 . S
C296 C295 1.369 . S
C296 C297 1.408 . S
C296 H318 0.930 . S
C297 C292 1.348 . S
C297 C296 1.408 . S
C297 H319 0.930 . S
C298 O308 1.281 . S
C298 O309 1.254 . S
C299 O310 1.236 . S
C299 O311 1.266 . S
O300 Tb280 2.484 . S
O300 C282 1.248 . S
O301 Tb280 2.440 . S
O301 C282 1.266 . S
O302 Tb280 2.658 . S
O302 Tb281 2.325 . S
O302 C289 1.281 . S
O303 Tb280 2.409 . S
O303 C289 1.254 . S
O304 Tb280 2.378 . S
O304 C290 1.236 . S
O305 Tb281 2.341 . S
O305 C290 1.266 . S
O306 Tb281 2.484 . S
O306 C291 1.248 . S
O307 Tb281 2.440 . S
O307 C291 1.266 . S
O308 Tb280 2.325 . S
O308 Tb281 2.658 . S
O308 C298 1.281 . S
O309 Tb281 2.409 . S
O309 C298 1.254 . S
O310 Tb281 2.378 . S
O310 C299 1.236 . S
O311 Tb280 2.341 . S
O311 C299 1.266 . S
H312 C284 0.929 . S
H313 C285 0.931 . S
H314 C287 0.930 . S
H315 C288 0.930 . S
H316 C293 0.929 . S
H317 C294 0.931 . S
H318 C296 0.930 . S
H319 C297 0.930 . S
Tb320 C322 2.809 . S
Tb320 O340 2.484 . S
Tb320 O341 2.440 . S
Tb320 O342 2.658 . S
Tb320 O343 2.409 . S
Tb320 O344 2.378 . S
Tb320 O348 2.325 . S
Tb320 O351 2.341 . S
Tb321 C331 2.809 . S
Tb321 O342 2.325 . S
Tb321 O345 2.341 . S
Tb321 O346 2.484 . S
Tb321 O347 2.440 . S
Tb321 O348 2.658 . S
Tb321 O349 2.409 . S
Tb321 O350 2.378 . S
C322 Tb320 2.809 . S
C322 C323 1.514 . S
C322 O340 1.248 . S
C322 O341 1.266 . S
C323 C322 1.514 . S
C323 C324 1.359 . S
C323 C328 1.348 . S
C324 C323 1.359 . S
C324 C325 1.380 1_554 S
C324 H352 0.929 . S
C325 C324 1.380 1_556 S
C325 C326 1.347 . S
C325 H353 0.931 . S
C326 C325 1.347 . S
C326 C327 1.369 1_556 S
C327 C326 1.369 1_554 S
C327 C328 1.408 . S
C327 H354 0.930 1_554 S
C328 C323 1.348 . S
C328 C327 1.408 . S
C328 H355 0.930 . S
C329 O342 1.281 . S
C329 O343 1.254 . S
C330 O344 1.236 . S
C330 O345 1.266 . S
C331 Tb321 2.809 . S
C331 C332 1.514 . S
C331 O346 1.248 . S
C331 O347 1.266 . S
C332 C331 1.514 . S
C332 C333 1.359 . S
C332 C337 1.348 . S
C333 C332 1.359 . S
C333 C334 1.380 . S
C333 H356 0.929 . S
C334 C333 1.380 . S
C334 C335 1.347 . S
C334 H357 0.931 . S
C335 C334 1.347 . S
C335 C336 1.369 . S
C336 C335 1.369 . S
C336 C337 1.408 . S
C336 H358 0.930 . S
C337 C332 1.348 . S
C337 C336 1.408 . S
C337 H359 0.930 . S
C338 O348 1.281 . S
C338 O349 1.254 . S
C339 O350 1.236 . S
C339 O351 1.266 . S
O340 Tb320 2.484 . S
O340 C322 1.248 . S
O341 Tb320 2.440 . S
O341 C322 1.266 . S
O342 Tb320 2.658 . S
O342 Tb321 2.325 . S
O342 C329 1.281 . S
O343 Tb320 2.409 . S
O343 C329 1.254 . S
O344 Tb320 2.378 . S
O344 C330 1.236 . S
O345 Tb321 2.341 . S
O345 C330 1.266 . S
O346 Tb321 2.484 . S
O346 C331 1.248 . S
O347 Tb321 2.440 . S
O347 C331 1.266 . S
O348 Tb320 2.325 . S
O348 Tb321 2.658 . S
O348 C338 1.281 . S
O349 Tb321 2.409 . S
O349 C338 1.254 . S
O350 Tb321 2.378 . S
O350 C339 1.236 . S
O351 Tb320 2.341 . S
O351 C339 1.266 . S
H352 C324 0.929 . S
H353 C325 0.931 . S
H354 C327 0.930 1_556 S
H355 C328 0.930 . S
H356 C333 0.929 . S
H357 C334 0.931 . S
H358 C336 0.930 . S
H359 C337 0.930 . S
Tb360 C362 2.809 . S
Tb360 O380 2.484 . S
Tb360 O381 2.440 . S
Tb360 O382 2.658 1_556 S
Tb360 O383 2.409 . S
Tb360 O384 2.378 . S
Tb360 O388 2.325 . S
Tb360 O391 2.341 1_556 S
Tb361 C371 2.809 . S
Tb361 O382 2.325 . S
Tb361 O385 2.341 1_554 S
Tb361 O386 2.484 . S
Tb361 O387 2.440 . S
Tb361 O388 2.658 1_554 S
Tb361 O389 2.409 . S
Tb361 O390 2.378 . S
C362 Tb360 2.809 . S
C362 C363 1.514 . S
C362 O380 1.248 . S
C362 O381 1.266 . S
C363 C362 1.514 . S
C363 C364 1.359 . S
C363 C368 1.348 . S
C364 C363 1.359 . S
C364 C365 1.380 . S
C364 H392 0.929 . S
C365 C364 1.380 . S
C365 C366 1.347 . S
C365 H393 0.931 . S
C366 C365 1.347 . S
C366 C367 1.369 . S
C367 C366 1.369 . S
C367 C368 1.408 . S
C367 H394 0.930 . S
C368 C363 1.348 . S
C368 C367 1.408 . S
C368 H395 0.930 . S
C369 O382 1.278 1_556 S
C369 O383 1.261 . S
C370 O384 1.236 . S
C370 O385 1.266 . S
C371 Tb361 2.809 . S
C371 C372 1.514 . S
C371 O386 1.248 . S
C371 O387 1.266 . S
C372 C371 1.514 . S
C372 C373 1.359 . S
C372 C377 1.348 . S
C373 C372 1.359 . S
C373 C374 1.380 . S
C373 H396 0.929 . S
C374 C373 1.380 . S
C374 C375 1.347 . S
C374 H397 0.931 . S
C375 C374 1.347 . S
C375 C376 1.369 . S
C376 C375 1.369 . S
C376 C377 1.408 . S
C376 H398 0.930 . S
C377 C372 1.348 . S
C377 C376 1.408 . S
C377 H399 0.930 . S
C378 O388 1.281 . S
C378 O389 1.254 1_556 S
C379 O390 1.236 . S
C379 O391 1.266 . S
O380 Tb360 2.484 . S
O380 C362 1.248 . S
O381 Tb360 2.440 . S
O381 C362 1.266 . S
O382 Tb360 2.658 1_554 S
O382 Tb361 2.325 . S
O382 C369 1.278 1_554 S
O383 Tb360 2.409 . S
O383 C369 1.261 . S
O384 Tb360 2.378 . S
O384 C370 1.236 . S
O385 Tb361 2.341 1_556 S
O385 C370 1.266 . S
O386 Tb361 2.484 . S
O386 C371 1.248 . S
O387 Tb361 2.440 . S
O387 C371 1.266 . S
O388 Tb360 2.325 . S
O388 Tb361 2.658 1_556 S
O388 C378 1.281 . S
O389 Tb361 2.409 . S
O389 C378 1.254 1_554 S
O390 Tb361 2.378 . S
O390 C379 1.236 . S
O391 Tb360 2.341 1_554 S
O391 C379 1.266 . S
H392 C364 0.929 . S
H393 C365 0.931 . S
H394 C367 0.930 . S
H395 C368 0.930 . S
H396 C373 0.929 . S
H397 C374 0.931 . S
H398 C376 0.930 . S
H399 C377 0.930 . S
Tb400 C402 2.809 . S
Tb400 O420 2.484 . S
Tb400 O421 2.440 . S
Tb400 O422 2.658 . S
Tb400 O423 2.409 . S
Tb400 O424 2.378 . S
Tb400 O428 2.325 . S
Tb400 O431 2.341 . S
Tb401 C411 2.809 . S
Tb401 O422 2.325 . S
Tb401 O425 2.341 . S
Tb401 O426 2.484 . S
Tb401 O427 2.440 . S
Tb401 O428 2.658 . S
Tb401 O429 2.409 . S
Tb401 O430 2.378 . S
C402 Tb400 2.809 . S
C402 C403 1.514 . S
C402 O420 1.248 . S
C402 O421 1.266 . S
C403 C402 1.514 . S
C403 C404 1.359 . S
C403 C408 1.348 . S
C404 C403 1.359 . S
C404 C405 1.380 . S
C404 H432 0.929 . S
C405 C404 1.380 . S
C405 C406 1.347 . S
C405 H433 0.931 . S
C406 C405 1.347 . S
C406 C407 1.369 . S
C407 C406 1.369 . S
C407 C408 1.408 . S
C407 H434 0.930 . S
C408 C403 1.348 . S
C408 C407 1.408 . S
C408 H435 0.930 . S
C409 O422 1.281 . S
C409 O423 1.254 . S
C410 O424 1.236 . S
C410 O425 1.266 . S
C411 Tb401 2.809 . S
C411 C412 1.514 . S
C411 O426 1.248 . S
C411 O427 1.266 . S
C412 C411 1.514 . S
C412 C413 1.359 . S
C412 C417 1.348 . S
C413 C412 1.359 . S
C413 C414 1.380 . S
C413 H436 0.929 . S
C414 C413 1.380 . S
C414 C415 1.347 1_556 S
C414 H437 0.931 1_556 S
C415 C414 1.347 1_554 S
C415 C416 1.369 1_554 S
C416 C415 1.369 1_556 S
C416 C417 1.408 . S
C416 H438 0.930 . S
C417 C412 1.348 . S
C417 C416 1.408 . S
C417 H439 0.930 . S
C418 O428 1.281 . S
C418 O429 1.254 . S
C419 O430 1.236 . S
C419 O431 1.266 . S
O420 Tb400 2.484 . S
O420 C402 1.248 . S
O421 Tb400 2.440 . S
O421 C402 1.266 . S
O422 Tb400 2.658 . S
O422 Tb401 2.325 . S
O422 C409 1.281 . S
O423 Tb400 2.409 . S
O423 C409 1.254 . S
O424 Tb400 2.378 . S
O424 C410 1.236 . S
O425 Tb401 2.341 . S
O425 C410 1.266 . S
O426 Tb401 2.484 . S
O426 C411 1.248 . S
O427 Tb401 2.440 . S
O427 C411 1.266 . S
O428 Tb400 2.325 . S
O428 Tb401 2.658 . S
O428 C418 1.281 . S
O429 Tb401 2.409 . S
O429 C418 1.254 . S
O430 Tb401 2.378 . S
O430 C419 1.236 . S
O431 Tb400 2.341 . S
O431 C419 1.266 . S
H432 C404 0.929 . S
H433 C405 0.931 . S
H434 C407 0.930 . S
H435 C408 0.930 . S
H436 C413 0.929 . S
H437 C414 0.931 1_554 S
H438 C416 0.930 . S
H439 C417 0.930 . S
Tb440 C442 2.809 . S
Tb440 O460 2.484 . S
Tb440 O461 2.440 . S
Tb440 O462 2.658 . S
Tb440 O463 2.409 . S
Tb440 O464 2.378 . S
Tb440 O468 2.325 . S
Tb440 O471 2.341 . S
Tb441 C451 2.809 . S
Tb441 O462 2.325 . S
Tb441 O465 2.341 . S
Tb441 O466 2.484 . S
Tb441 O467 2.440 . S
Tb441 O468 2.658 . S
Tb441 O469 2.409 . S
Tb441 O470 2.378 . S
C442 Tb440 2.809 . S
C442 C443 1.514 . S
C442 O460 1.248 . S
C442 O461 1.266 . S
C443 C442 1.514 . S
C443 C444 1.359 . S
C443 C448 1.348 . S
C444 C443 1.359 . S
C444 C445 1.380 . S
C444 H472 0.929 . S
C445 C444 1.380 . S
C445 C446 1.347 . S
C445 H473 0.931 . S
C446 C445 1.347 . S
C446 C447 1.369 . S
C447 C446 1.369 . S
C447 C448 1.408 . S
C447 H474 0.930 . S
C448 C443 1.348 . S
C448 C447 1.408 . S
C448 H475 0.930 . S
C449 O462 1.281 . S
C449 O463 1.254 . S
C450 O464 1.236 . S
C450 O465 1.266 . S
C451 Tb441 2.809 . S
C451 C452 1.514 . S
C451 O466 1.248 . S
C451 O467 1.266 . S
C452 C451 1.514 . S
C452 C453 1.359 . S
C452 C457 1.348 . S
C453 C452 1.359 . S
C453 C454 1.380 . S
C453 H476 0.929 . S
C454 C453 1.380 . S
C454 C455 1.347 . S
C454 H477 0.931 . S
C455 C454 1.347 . S
C455 C456 1.369 . S
C456 C455 1.369 . S
C456 C457 1.408 . S
C456 H478 0.930 . S
C457 C452 1.348 . S
C457 C456 1.408 . S
C457 H479 0.930 . S
C458 O468 1.281 . S
C458 O469 1.254 . S
C459 O470 1.236 . S
C459 O471 1.266 . S
O460 Tb440 2.484 . S
O460 C442 1.248 . S
O461 Tb440 2.440 . S
O461 C442 1.266 . S
O462 Tb440 2.658 . S
O462 Tb441 2.325 . S
O462 C449 1.281 . S
O463 Tb440 2.409 . S
O463 C449 1.254 . S
O464 Tb440 2.378 . S
O464 C450 1.236 . S
O465 Tb441 2.341 . S
O465 C450 1.266 . S
O466 Tb441 2.484 . S
O466 C451 1.248 . S
O467 Tb441 2.440 . S
O467 C451 1.266 . S
O468 Tb440 2.325 . S
O468 Tb441 2.658 . S
O468 C458 1.281 . S
O469 Tb441 2.409 . S
O469 C458 1.254 . S
O470 Tb441 2.378 . S
O470 C459 1.236 . S
O471 Tb440 2.341 . S
O471 C459 1.266 . S
H472 C444 0.929 . S
H473 C445 0.931 . S
H474 C447 0.930 . S
H475 C448 0.930 . S
H476 C453 0.929 . S
H477 C454 0.931 . S
H478 C456 0.930 . S
H479 C457 0.930 . S
Tb480 C482 2.809 . S
Tb480 O500 2.484 . S
Tb480 O501 2.440 . S
Tb480 O502 2.658 . S
Tb480 O503 2.409 . S
Tb480 O504 2.378 . S
Tb480 O508 2.325 . S
Tb480 O511 2.341 . S
Tb481 C491 2.809 . S
Tb481 O502 2.325 . S
Tb481 O505 2.341 . S
Tb481 O506 2.484 . S
Tb481 O507 2.440 . S
Tb481 O508 2.658 . S
Tb481 O509 2.409 . S
Tb481 O510 2.378 . S
C482 Tb480 2.809 . S
C482 C483 1.514 . S
C482 O500 1.248 . S
C482 O501 1.266 . S
C483 C482 1.514 . S
C483 C484 1.359 . S
C483 C488 1.348 . S
C484 C483 1.359 . S
C484 C485 1.380 . S
C484 H512 0.929 . S
C485 C484 1.380 . S
C485 C486 1.347 . S
C485 H513 0.931 . S
C486 C485 1.347 . S
C486 C487 1.369 . S
C487 C486 1.369 . S
C487 C488 1.408 . S
C487 H514 0.930 . S
C488 C483 1.348 . S
C488 C487 1.408 . S
C488 H515 0.930 . S
C489 O502 1.281 . S
C489 O503 1.254 . S
C490 O504 1.236 . S
C490 O505 1.266 . S
C491 Tb481 2.809 . S
C491 C492 1.514 . S
C491 O506 1.248 . S
C491 O507 1.266 . S
C492 C491 1.514 . S
C492 C493 1.359 . S
C492 C497 1.348 . S
C493 C492 1.359 . S
C493 C494 1.380 . S
C493 H516 0.929 . S
C494 C493 1.380 . S
C494 C495 1.347 . S
C494 H517 0.931 . S
C495 C494 1.347 . S
C495 C496 1.369 . S
C496 C495 1.369 . S
C496 C497 1.408 . S
C496 H518 0.930 . S
C497 C492 1.348 . S
C497 C496 1.408 . S
C497 H519 0.930 . S
C498 O508 1.281 . S
C498 O509 1.254 . S
C499 O510 1.236 . S
C499 O511 1.266 . S
O500 Tb480 2.484 . S
O500 C482 1.248 . S
O501 Tb480 2.440 . S
O501 C482 1.266 . S
O502 Tb480 2.658 . S
O502 Tb481 2.325 . S
O502 C489 1.281 . S
O503 Tb480 2.409 . S
O503 C489 1.254 . S
O504 Tb480 2.378 . S
O504 C490 1.236 . S
O505 Tb481 2.341 . S
O505 C490 1.266 . S
O506 Tb481 2.484 . S
O506 C491 1.248 . S
O507 Tb481 2.440 . S
O507 C491 1.266 . S
O508 Tb480 2.325 . S
O508 Tb481 2.658 . S
O508 C498 1.281 . S
O509 Tb481 2.409 . S
O509 C498 1.254 . S
O510 Tb481 2.378 . S
O510 C499 1.236 . S
O511 Tb480 2.341 . S
O511 C499 1.266 . S
H512 C484 0.929 . S
H513 C485 0.931 . S
H514 C487 0.930 . S
H515 C488 0.930 . S
H516 C493 0.929 . S
H517 C494 0.931 . S
H518 C496 0.930 . S
H519 C497 0.930 . S
Tb520 C522 2.809 . S
Tb520 O540 2.484 . S
Tb520 O541 2.440 . S
Tb520 O542 2.658 . S
Tb520 O543 2.409 . S
Tb520 O544 2.378 . S
Tb520 O548 2.325 . S
Tb520 O551 2.341 . S
Tb521 C531 2.809 . S
Tb521 O542 2.325 . S
Tb521 O545 2.341 . S
Tb521 O546 2.484 . S
Tb521 O547 2.440 . S
Tb521 O548 2.658 . S
Tb521 O549 2.409 . S
Tb521 O550 2.378 . S
C522 Tb520 2.809 . S
C522 C523 1.514 . S
C522 O540 1.248 . S
C522 O541 1.266 . S
C523 C522 1.514 . S
C523 C524 1.359 . S
C523 C528 1.348 . S
C524 C523 1.359 . S
C524 C525 1.380 . S
C524 H552 0.929 . S
C525 C524 1.380 . S
C525 C526 1.347 . S
C525 H553 0.931 . S
C526 C525 1.347 . S
C526 C527 1.369 . S
C527 C526 1.369 . S
C527 C528 1.408 . S
C527 H554 0.930 . S
C528 C523 1.348 . S
C528 C527 1.408 . S
C528 H555 0.930 . S
C529 O542 1.281 . S
C529 O543 1.254 . S
C530 O544 1.236 . S
C530 O545 1.266 . S
C531 Tb521 2.809 . S
C531 C532 1.514 . S
C531 O546 1.248 . S
C531 O547 1.266 . S
C532 C531 1.514 . S
C532 C533 1.359 . S
C532 C537 1.348 . S
C533 C532 1.359 . S
C533 C534 1.380 . S
C533 H556 0.929 . S
C534 C533 1.380 . S
C534 C535 1.347 . S
C534 H557 0.931 . S
C535 C534 1.347 . S
C535 C536 1.369 . S
C536 C535 1.369 . S
C536 C537 1.408 . S
C536 H558 0.930 . S
C537 C532 1.348 . S
C537 C536 1.408 . S
C537 H559 0.930 . S
C538 O548 1.281 . S
C538 O549 1.254 . S
C539 O550 1.236 . S
C539 O551 1.266 . S
O540 Tb520 2.484 . S
O540 C522 1.248 . S
O541 Tb520 2.440 . S
O541 C522 1.266 . S
O542 Tb520 2.658 . S
O542 Tb521 2.325 . S
O542 C529 1.281 . S
O543 Tb520 2.409 . S
O543 C529 1.254 . S
O544 Tb520 2.378 . S
O544 C530 1.236 . S
O545 Tb521 2.341 . S
O545 C530 1.266 . S
O546 Tb521 2.484 . S
O546 C531 1.248 . S
O547 Tb521 2.440 . S
O547 C531 1.266 . S
O548 Tb520 2.325 . S
O548 Tb521 2.658 . S
O548 C538 1.281 . S
O549 Tb521 2.409 . S
O549 C538 1.254 . S
O550 Tb521 2.378 . S
O550 C539 1.236 . S
O551 Tb520 2.341 . S
O551 C539 1.266 . S
H552 C524 0.929 . S
H553 C525 0.931 . S
H554 C527 0.930 . S
H555 C528 0.930 . S
H556 C533 0.929 . S
H557 C534 0.931 . S
H558 C536 0.930 . S
H559 C537 0.930 . S
Tb560 C562 2.809 . S
Tb560 O580 2.484 . S
Tb560 O581 2.440 . S
Tb560 O582 2.658 . S
Tb560 O583 2.409 . S
Tb560 O584 2.378 . S
Tb560 O588 2.325 . S
Tb560 O591 2.341 . S
Tb561 C571 2.809 . S
Tb561 O582 2.325 . S
Tb561 O585 2.341 . S
Tb561 O586 2.484 . S
Tb561 O587 2.440 . S
Tb561 O588 2.658 . S
Tb561 O589 2.409 . S
Tb561 O590 2.378 . S
C562 Tb560 2.809 . S
C562 C563 1.514 . S
C562 O580 1.248 . S
C562 O581 1.266 . S
C563 C562 1.514 . S
C563 C564 1.359 . S
C563 C568 1.348 . S
C564 C563 1.359 . S
C564 C565 1.380 . S
C564 H592 0.929 . S
C565 C564 1.380 . S
C565 C566 1.347 . S
C565 H593 0.931 . S
C566 C565 1.347 . S
C566 C567 1.369 . S
C567 C566 1.369 . S
C567 C568 1.408 . S
C567 H594 0.930 . S
C568 C563 1.348 . S
C568 C567 1.408 . S
C568 H595 0.930 . S
C569 O582 1.281 . S
C569 O583 1.254 . S
C570 O584 1.236 . S
C570 O585 1.266 . S
C571 Tb561 2.809 . S
C571 C572 1.514 1_554 S
C571 O586 1.248 . S
C571 O587 1.266 . S
C572 C571 1.514 1_556 S
C572 C573 1.359 . S
C572 C577 1.348 . S
C573 C572 1.359 . S
C573 C574 1.380 . S
C573 H596 0.929 . S
C574 C573 1.380 . S
C574 C575 1.347 . S
C574 H597 0.931 . S
C575 C574 1.347 . S
C575 C576 1.369 . S
C576 C575 1.369 . S
C576 C577 1.408 . S
C576 H598 0.930 . S
C577 C572 1.348 . S
C577 C576 1.408 . S
C577 H599 0.930 . S
C578 O588 1.281 . S
C578 O589 1.254 . S
C579 O590 1.236 . S
C579 O591 1.266 . S
O580 Tb560 2.484 . S
O580 C562 1.248 . S
O581 Tb560 2.440 . S
O581 C562 1.266 . S
O582 Tb560 2.658 . S
O582 Tb561 2.325 . S
O582 C569 1.281 . S
O583 Tb560 2.409 . S
O583 C569 1.254 . S
O584 Tb560 2.378 . S
O584 C570 1.236 . S
O585 Tb561 2.341 . S
O585 C570 1.266 . S
O586 Tb561 2.484 . S
O586 C571 1.248 . S
O587 Tb561 2.440 . S
O587 C571 1.266 . S
O588 Tb560 2.325 . S
O588 Tb561 2.658 . S
O588 C578 1.281 . S
O589 Tb561 2.409 . S
O589 C578 1.254 . S
O590 Tb561 2.378 . S
O590 C579 1.236 . S
O591 Tb560 2.341 . S
O591 C579 1.266 . S
H592 C564 0.929 . S
H593 C565 0.931 . S
H594 C567 0.930 . S
H595 C568 0.930 . S
H596 C573 0.929 . S
H597 C574 0.931 . S
H598 C576 0.930 . S
H599 C577 0.930 . S
Tb600 C602 2.809 1_556 S
Tb600 O620 2.484 1_556 S
Tb600 O621 2.440 1_556 S
Tb600 O622 2.658 . S
Tb600 O623 2.409 . S
Tb600 O624 2.378 . S
Tb600 O628 2.325 . S
Tb600 O631 2.341 . S
Tb601 C611 2.809 . S
Tb601 O622 2.325 . S
Tb601 O625 2.341 . S
Tb601 O626 2.484 . S
Tb601 O627 2.440 . S
Tb601 O628 2.658 . S
Tb601 O629 2.409 . S
Tb601 O630 2.378 . S
C602 Tb600 2.809 1_554 S
C602 C603 1.514 . S
C602 O620 1.248 . S
C602 O621 1.266 . S
C603 C602 1.514 . S
C603 C604 1.359 . S
C603 C608 1.348 . S
C604 C603 1.359 . S
C604 C605 1.380 . S
C604 H632 0.929 . S
C605 C604 1.380 . S
C605 C606 1.347 . S
C605 H633 0.931 . S
C606 C605 1.347 . S
C606 C607 1.369 . S
C607 C606 1.369 . S
C607 C608 1.408 . S
C607 H634 0.930 . S
C608 C603 1.348 . S
C608 C607 1.408 . S
C608 H635 0.930 . S
C609 O622 1.281 . S
C609 O623 1.254 . S
C610 O624 1.236 . S
C610 O625 1.266 . S
C611 Tb601 2.809 . S
C611 C612 1.514 . S
C611 O626 1.248 . S
C611 O627 1.266 . S
C612 C611 1.514 . S
C612 C613 1.359 . S
C612 C617 1.348 . S
C613 C612 1.359 . S
C613 C614 1.380 . S
C613 H636 0.929 . S
C614 C613 1.380 . S
C614 C615 1.347 . S
C614 H637 0.931 . S
C615 C614 1.347 . S
C615 C616 1.369 . S
C616 C615 1.369 . S
C616 C617 1.408 . S
C616 H638 0.930 . S
C617 C612 1.348 . S
C617 C616 1.408 . S
C617 H639 0.930 . S
C618 O628 1.281 . S
C618 O629 1.254 . S
C619 O630 1.236 . S
C619 O631 1.266 . S
O620 Tb600 2.484 1_554 S
O620 C602 1.248 . S
O621 Tb600 2.440 1_554 S
O621 C602 1.266 . S
O622 Tb600 2.658 . S
O622 Tb601 2.325 . S
O622 C609 1.281 . S
O623 Tb600 2.409 . S
O623 C609 1.254 . S
O624 Tb600 2.378 . S
O624 C610 1.236 . S
O625 Tb601 2.341 . S
O625 C610 1.266 . S
O626 Tb601 2.484 . S
O626 C611 1.248 . S
O627 Tb601 2.440 . S
O627 C611 1.266 . S
O628 Tb600 2.325 . S
O628 Tb601 2.658 . S
O628 C618 1.281 . S
O629 Tb601 2.409 . S
O629 C618 1.254 . S
O630 Tb601 2.378 . S
O630 C619 1.236 . S
O631 Tb600 2.341 . S
O631 C619 1.266 . S
H632 C604 0.929 . S
H633 C605 0.931 . S
H634 C607 0.930 . S
H635 C608 0.930 . S
H636 C613 0.929 . S
H637 C614 0.931 . S
H638 C616 0.930 . S
H639 C617 0.930 . S
Tb640 C642 2.809 . S
Tb640 O660 2.484 . S
Tb640 O661 2.440 . S
Tb640 O662 2.658 . S
Tb640 O663 2.409 . S
Tb640 O664 2.378 . S
Tb640 O668 2.325 . S
Tb640 O671 2.341 . S
Tb641 C651 2.809 . S
Tb641 O662 2.325 . S
Tb641 O665 2.341 . S
Tb641 O666 2.484 . S
Tb641 O667 2.440 . S
Tb641 O668 2.658 . S
Tb641 O669 2.409 . S
Tb641 O670 2.378 . S
C642 Tb640 2.809 . S
C642 C643 1.514 . S
C642 O660 1.248 . S
C642 O661 1.266 . S
C643 C642 1.514 . S
C643 C644 1.359 . S
C643 C648 1.348 . S
C644 C643 1.359 . S
C644 C645 1.380 . S
C644 H672 0.929 . S
C645 C644 1.380 . S
C645 C646 1.347 . S
C645 H673 0.931 . S
C646 C645 1.347 . S
C646 C647 1.369 . S
C647 C646 1.369 . S
C647 C648 1.408 . S
C647 H674 0.930 . S
C648 C643 1.348 . S
C648 C647 1.408 . S
C648 H675 0.930 . S
C649 O662 1.281 . S
C649 O663 1.254 . S
C650 O664 1.236 . S
C650 O665 1.266 . S
C651 Tb641 2.809 . S
C651 C652 1.514 . S
C651 O666 1.248 . S
C651 O667 1.266 . S
C652 C651 1.514 . S
C652 C653 1.359 . S
C652 C657 1.348 . S
C653 C652 1.359 . S
C653 C654 1.380 . S
C653 H676 0.929 . S
C654 C653 1.380 . S
C654 C655 1.347 . S
C654 H677 0.931 . S
C655 C654 1.347 . S
C655 C656 1.369 1_565 S
C656 C655 1.369 1_545 S
C656 C657 1.408 1_545 S
C656 H678 0.930 . S
C657 C652 1.348 . S
C657 C656 1.408 1_565 S
C657 H679 0.930 1_565 S
C658 O668 1.281 . S
C658 O669 1.254 . S
C659 O670 1.236 . S
C659 O671 1.266 . S
O660 Tb640 2.484 . S
O660 C642 1.248 . S
O661 Tb640 2.440 . S
O661 C642 1.266 . S
O662 Tb640 2.658 . S
O662 Tb641 2.325 . S
O662 C649 1.281 . S
O663 Tb640 2.409 . S
O663 C649 1.254 . S
O664 Tb640 2.378 . S
O664 C650 1.236 . S
O665 Tb641 2.341 . S
O665 C650 1.266 . S
O666 Tb641 2.484 . S
O666 C651 1.248 . S
O667 Tb641 2.440 . S
O667 C651 1.266 . S
O668 Tb640 2.325 . S
O668 Tb641 2.658 . S
O668 C658 1.281 . S
O669 Tb641 2.409 . S
O669 C658 1.254 . S
O670 Tb641 2.378 . S
O670 C659 1.236 . S
O671 Tb640 2.341 . S
O671 C659 1.266 . S
H672 C644 0.929 . S
H673 C645 0.931 . S
H674 C647 0.930 . S
H675 C648 0.930 . S
H676 C653 0.929 . S
H677 C654 0.931 . S
H678 C656 0.930 . S
H679 C657 0.930 1_545 S
Tb680 C682 2.809 . S
Tb680 O700 2.484 . S
Tb680 O701 2.440 . S
Tb680 O702 2.658 . S
Tb680 O703 2.409 . S
Tb680 O704 2.378 . S
Tb680 O708 2.325 . S
Tb680 O711 2.341 . S
Tb681 C691 2.809 1_556 S
Tb681 O702 2.325 . S
Tb681 O705 2.341 . S
Tb681 O706 2.484 1_556 S
Tb681 O707 2.440 1_556 S
Tb681 O708 2.658 . S
Tb681 O709 2.409 . S
Tb681 O710 2.378 . S
C682 Tb680 2.809 . S
C682 C683 1.514 . S
C682 O700 1.248 . S
C682 O701 1.266 . S
C683 C682 1.514 . S
C683 C684 1.359 . S
C683 C688 1.348 . S
C684 C683 1.359 . S
C684 C685 1.380 . S
C684 H712 0.929 . S
C685 C684 1.380 . S
C685 C686 1.347 . S
C685 H713 0.931 . S
C686 C685 1.347 . S
C686 C687 1.369 . S
C687 C686 1.369 . S
C687 C688 1.408 . S
C687 H714 0.930 . S
C688 C683 1.348 . S
C688 C687 1.408 . S
C688 H715 0.930 . S
C689 O702 1.281 . S
C689 O703 1.254 . S
C690 O704 1.236 . S
C690 O705 1.266 . S
C691 Tb681 2.809 1_554 S
C691 C692 1.514 . S
C691 O706 1.248 . S
C691 O707 1.266 . S
C692 C691 1.514 . S
C692 C693 1.359 . S
C692 C697 1.348 . S
C693 C692 1.359 . S
C693 C694 1.380 . S
C693 H716 0.929 . S
C694 C693 1.380 . S
C694 C695 1.347 . S
C694 H717 0.931 . S
C695 C694 1.347 . S
C695 C696 1.369 . S
C696 C695 1.369 . S
C696 C697 1.408 . S
C696 H718 0.930 . S
C697 C692 1.348 . S
C697 C696 1.408 . S
C697 H719 0.930 . S
C698 O708 1.281 . S
C698 O709 1.254 . S
C699 O710 1.236 . S
C699 O711 1.266 . S
O700 Tb680 2.484 . S
O700 C682 1.248 . S
O701 Tb680 2.440 . S
O701 C682 1.266 . S
O702 Tb680 2.658 . S
O702 Tb681 2.325 . S
O702 C689 1.281 . S
O703 Tb680 2.409 . S
O703 C689 1.254 . S
O704 Tb680 2.378 . S
O704 C690 1.236 . S
O705 Tb681 2.341 . S
O705 C690 1.266 . S
O706 Tb681 2.484 1_554 S
O706 C691 1.248 . S
O707 Tb681 2.440 1_554 S
O707 C691 1.266 . S
O708 Tb680 2.325 . S
O708 Tb681 2.658 . S
O708 C698 1.281 . S
O709 Tb681 2.409 . S
O709 C698 1.254 . S
O710 Tb681 2.378 . S
O710 C699 1.236 . S
O711 Tb680 2.341 . S
O711 C699 1.266 . S
H712 C684 0.929 . S
H713 C685 0.931 . S
H714 C687 0.930 . S
H715 C688 0.930 . S
H716 C693 0.929 . S
H717 C694 0.931 . S
H718 C696 0.930 . S
H719 C697 0.930 . S
Tb720 C722 2.809 . S
Tb720 O740 2.484 . S
Tb720 O741 2.440 . S
Tb720 O742 2.658 . S
Tb720 O743 2.409 . S
Tb720 O744 2.378 . S
Tb720 O748 2.325 . S
Tb720 O751 2.341 . S
Tb721 C731 2.809 . S
Tb721 O742 2.325 . S
Tb721 O745 2.341 . S
Tb721 O746 2.484 . S
Tb721 O747 2.440 . S
Tb721 O748 2.658 . S
Tb721 O749 2.409 . S
Tb721 O750 2.378 . S
C722 Tb720 2.809 . S
C722 C723 1.514 1_554 S
C722 O740 1.248 . S
C722 O741 1.266 . S
C723 C722 1.514 1_556 S
C723 C724 1.359 . S
C723 C728 1.348 . S
C724 C723 1.359 . S
C724 C725 1.380 . S
C724 H752 0.929 . S
C725 C724 1.380 . S
C725 C726 1.347 . S
C725 H753 0.931 . S
C726 C725 1.347 . S
C726 C727 1.369 . S
C727 C726 1.369 . S
C727 C728 1.408 . S
C727 H754 0.930 . S
C728 C723 1.348 . S
C728 C727 1.408 . S
C728 H755 0.930 . S
C729 O742 1.281 . S
C729 O743 1.254 . S
C730 O744 1.236 . S
C730 O745 1.266 . S
C731 Tb721 2.809 . S
C731 C732 1.514 . S
C731 O746 1.248 . S
C731 O747 1.266 . S
C732 C731 1.514 . S
C732 C733 1.359 . S
C732 C737 1.348 . S
C733 C732 1.359 . S
C733 C734 1.380 . S
C733 H756 0.929 . S
C734 C733 1.380 . S
C734 C735 1.347 . S
C734 H757 0.931 . S
C735 C734 1.347 . S
C735 C736 1.369 1_545 S
C736 C735 1.369 1_565 S
C736 C737 1.408 1_565 S
C736 H758 0.930 . S
C737 C732 1.348 . S
C737 C736 1.408 1_545 S
C737 H759 0.930 1_545 S
C738 O748 1.281 . S
C738 O749 1.254 . S
C739 O750 1.236 . S
C739 O751 1.266 . S
O740 Tb720 2.484 . S
O740 C722 1.248 . S
O741 Tb720 2.440 . S
O741 C722 1.266 . S
O742 Tb720 2.658 . S
O742 Tb721 2.325 . S
O742 C729 1.281 . S
O743 Tb720 2.409 . S
O743 C729 1.254 . S
O744 Tb720 2.378 . S
O744 C730 1.236 . S
O745 Tb721 2.341 . S
O745 C730 1.266 . S
O746 Tb721 2.484 . S
O746 C731 1.248 . S
O747 Tb721 2.440 . S
O747 C731 1.266 . S
O748 Tb720 2.325 . S
O748 Tb721 2.658 . S
O748 C738 1.281 . S
O749 Tb721 2.409 . S
O749 C738 1.254 . S
O750 Tb721 2.378 . S
O750 C739 1.236 . S
O751 Tb720 2.341 . S
O751 C739 1.266 . S
H752 C724 0.929 . S
H753 C725 0.931 . S
H754 C727 0.930 . S
H755 C728 0.930 . S
H756 C733 0.929 . S
H757 C734 0.931 . S
H758 C736 0.930 . S
H759 C737 0.930 1_565 S
Tb760 C762 2.809 . S
Tb760 O780 2.484 . S
Tb760 O781 2.440 . S
Tb760 O782 2.658 . S
Tb760 O783 2.409 . S
Tb760 O784 2.378 . S
Tb760 O788 2.325 . S
Tb760 O791 2.341 . S
Tb761 C771 2.809 . S
Tb761 O782 2.325 . S
Tb761 O785 2.341 . S
Tb761 O786 2.484 . S
Tb761 O787 2.440 . S
Tb761 O788 2.658 . S
Tb761 O789 2.409 . S
Tb761 O790 2.378 . S
C762 Tb760 2.809 . S
C762 C763 1.514 . S
C762 O780 1.248 . S
C762 O781 1.266 . S
C763 C762 1.514 . S
C763 C764 1.359 . S
C763 C768 1.348 . S
C764 C763 1.359 . S
C764 C765 1.380 . S
C764 H792 0.929 . S
C765 C764 1.380 . S
C765 C766 1.347 . S
C765 H793 0.931 . S
C766 C765 1.347 . S
C766 C767 1.369 . S
C767 C766 1.369 . S
C767 C768 1.408 . S
C767 H794 0.930 . S
C768 C763 1.348 . S
C768 C767 1.408 . S
C768 H795 0.930 . S
C769 O782 1.281 . S
C769 O783 1.254 . S
C770 O784 1.236 . S
C770 O785 1.266 . S
C771 Tb761 2.809 . S
C771 C772 1.514 . S
C771 O786 1.248 . S
C771 O787 1.266 . S
C772 C771 1.514 . S
C772 C773 1.359 . S
C772 C777 1.348 . S
C773 C772 1.359 . S
C773 C774 1.380 . S
C773 H796 0.929 . S
C774 C773 1.380 . S
C774 C775 1.347 . S
C774 H797 0.931 . S
C775 C774 1.347 . S
C775 C776 1.369 . S
C776 C775 1.369 . S
C776 C777 1.408 . S
C776 H798 0.930 . S
C777 C772 1.348 . S
C777 C776 1.408 . S
C777 H799 0.930 . S
C778 O788 1.281 . S
C778 O789 1.254 . S
C779 O790 1.236 . S
C779 O791 1.266 . S
O780 Tb760 2.484 . S
O780 C762 1.248 . S
O781 Tb760 2.440 . S
O781 C762 1.266 . S
O782 Tb760 2.658 . S
O782 Tb761 2.325 . S
O782 C769 1.281 . S
O783 Tb760 2.409 . S
O783 C769 1.254 . S
O784 Tb760 2.378 . S
O784 C770 1.236 . S
O785 Tb761 2.341 . S
O785 C770 1.266 . S
O786 Tb761 2.484 . S
O786 C771 1.248 . S
O787 Tb761 2.440 . S
O787 C771 1.266 . S
O788 Tb760 2.325 . S
O788 Tb761 2.658 . S
O788 C778 1.281 . S
O789 Tb761 2.409 . S
O789 C778 1.254 . S
O790 Tb761 2.378 . S
O790 C779 1.236 . S
O791 Tb760 2.341 . S
O791 C779 1.266 . S
H792 C764 0.929 . S
H793 C765 0.931 . S
H794 C767 0.930 . S
H795 C768 0.930 . S
H796 C773 0.929 . S
H797 C774 0.931 . S
H798 C776 0.930 . S
H799 C777 0.930 . S
Tb800 C802 2.809 . S
Tb800 O820 2.484 . S
Tb800 O821 2.440 . S
Tb800 O822 2.658 . S
Tb800 O823 2.409 . S
Tb800 O824 2.378 . S
Tb800 O828 2.325 . S
Tb800 O831 2.341 . S
Tb801 C811 2.809 . S
Tb801 O822 2.325 . S
Tb801 O825 2.341 . S
Tb801 O826 2.484 . S
Tb801 O827 2.440 . S
Tb801 O828 2.658 . S
Tb801 O829 2.409 . S
Tb801 O830 2.378 . S
C802 Tb800 2.809 . S
C802 C803 1.514 . S
C802 O820 1.248 . S
C802 O821 1.266 . S
C803 C802 1.514 . S
C803 C804 1.359 . S
C803 C808 1.348 . S
C804 C803 1.359 . S
C804 C805 1.380 . S
C804 H832 0.929 . S
C805 C804 1.380 . S
C805 C806 1.347 . S
C805 H833 0.931 . S
C806 C805 1.347 . S
C806 C807 1.369 . S
C807 C806 1.369 . S
C807 C808 1.408 . S
C807 H834 0.930 . S
C808 C803 1.348 . S
C808 C807 1.408 . S
C808 H835 0.930 . S
C809 O822 1.281 . S
C809 O823 1.254 . S
C810 O824 1.236 . S
C810 O825 1.266 . S
C811 Tb801 2.809 . S
C811 C812 1.514 . S
C811 O826 1.248 . S
C811 O827 1.266 . S
C812 C811 1.514 . S
C812 C813 1.359 . S
C812 C817 1.348 . S
C813 C812 1.359 . S
C813 C814 1.380 1_554 S
C813 H836 0.929 . S
C814 C813 1.380 1_556 S
C814 C815 1.347 . S
C814 H837 0.931 . S
C815 C814 1.347 . S
C815 C816 1.369 1_546 S
C816 C815 1.369 1_564 S
C816 C817 1.408 1_565 S
C816 H838 0.930 1_554 S
C817 C812 1.348 . S
C817 C816 1.408 1_545 S
C817 H839 0.930 1_545 S
C818 O828 1.281 . S
C818 O829 1.254 . S
C819 O830 1.236 . S
C819 O831 1.266 . S
O820 Tb800 2.484 . S
O820 C802 1.248 . S
O821 Tb800 2.440 . S
O821 C802 1.266 . S
O822 Tb800 2.658 . S
O822 Tb801 2.325 . S
O822 C809 1.281 . S
O823 Tb800 2.409 . S
O823 C809 1.254 . S
O824 Tb800 2.378 . S
O824 C810 1.236 . S
O825 Tb801 2.341 . S
O825 C810 1.266 . S
O826 Tb801 2.484 . S
O826 C811 1.248 . S
O827 Tb801 2.440 . S
O827 C811 1.266 . S
O828 Tb800 2.325 . S
O828 Tb801 2.658 . S
O828 C818 1.281 . S
O829 Tb801 2.409 . S
O829 C818 1.254 . S
O830 Tb801 2.378 . S
O830 C819 1.236 . S
O831 Tb800 2.341 . S
O831 C819 1.266 . S
H832 C804 0.929 . S
H833 C805 0.931 . S
H834 C807 0.930 . S
H835 C808 0.930 . S
H836 C813 0.929 . S
H837 C814 0.931 . S
H838 C816 0.930 1_556 S
H839 C817 0.930 1_565 S
Tb840 C842 2.809 . S
Tb840 O860 2.484 . S
Tb840 O861 2.440 . S
Tb840 O862 2.658 . S
Tb840 O863 2.409 . S
Tb840 O864 2.378 . S
Tb840 O868 2.325 . S
Tb840 O871 2.341 . S
Tb841 C851 2.809 . S
Tb841 O862 2.325 . S
Tb841 O865 2.341 . S
Tb841 O866 2.484 . S
Tb841 O867 2.440 . S
Tb841 O868 2.658 . S
Tb841 O869 2.409 . S
Tb841 O870 2.378 . S
C842 Tb840 2.809 . S
C842 C843 1.514 . S
C842 O860 1.248 . S
C842 O861 1.266 . S
C843 C842 1.514 . S
C843 C844 1.359 . S
C843 C848 1.348 . S
C844 C843 1.359 . S
C844 C845 1.380 . S
C844 H872 0.929 . S
C845 C844 1.380 . S
C845 C846 1.347 . S
C845 H873 0.931 . S
C846 C845 1.347 . S
C846 C847 1.369 . S
C847 C846 1.369 . S
C847 C848 1.408 . S
C847 H874 0.930 . S
C848 C843 1.348 . S
C848 C847 1.408 . S
C848 H875 0.930 . S
C849 O862 1.281 . S
C849 O863 1.254 . S
C850 O864 1.236 . S
C850 O865 1.266 . S
C851 Tb841 2.809 . S
C851 C852 1.514 . S
C851 O866 1.248 . S
C851 O867 1.266 . S
C852 C851 1.514 . S
C852 C853 1.359 . S
C852 C857 1.348 . S
C853 C852 1.359 . S
C853 C854 1.380 . S
C853 H876 0.929 . S
C854 C853 1.380 . S
C854 C855 1.347 . S
C854 H877 0.931 . S
C855 C854 1.347 . S
C855 C856 1.369 . S
C856 C855 1.369 . S
C856 C857 1.408 . S
C856 H878 0.930 . S
C857 C852 1.348 . S
C857 C856 1.408 . S
C857 H879 0.930 . S
C858 O868 1.281 . S
C858 O869 1.254 . S
C859 O870 1.236 . S
C859 O871 1.266 . S
O860 Tb840 2.484 . S
O860 C842 1.248 . S
O861 Tb840 2.440 . S
O861 C842 1.266 . S
O862 Tb840 2.658 . S
O862 Tb841 2.325 . S
O862 C849 1.281 . S
O863 Tb840 2.409 . S
O863 C849 1.254 . S
O864 Tb840 2.378 . S
O864 C850 1.236 . S
O865 Tb841 2.341 . S
O865 C850 1.266 . S
O866 Tb841 2.484 . S
O866 C851 1.248 . S
O867 Tb841 2.440 . S
O867 C851 1.266 . S
O868 Tb840 2.325 . S
O868 Tb841 2.658 . S
O868 C858 1.281 . S
O869 Tb841 2.409 . S
O869 C858 1.254 . S
O870 Tb841 2.378 . S
O870 C859 1.236 . S
O871 Tb840 2.341 . S
O871 C859 1.266 . S
H872 C844 0.929 . S
H873 C845 0.931 . S
H874 C847 0.930 . S
H875 C848 0.930 . S
H876 C853 0.929 . S
H877 C854 0.931 . S
H878 C856 0.930 . S
H879 C857 0.930 . S
Tb880 C882 2.809 . S
Tb880 O900 2.484 . S
Tb880 O901 2.440 . S
Tb880 O902 2.658 . S
Tb880 O903 2.409 . S
Tb880 O904 2.378 . S
Tb880 O908 2.325 . S
Tb880 O911 2.341 . S
Tb881 C891 2.809 . S
Tb881 O902 2.325 . S
Tb881 O905 2.341 . S
Tb881 O906 2.484 . S
Tb881 O907 2.440 . S
Tb881 O908 2.658 . S
Tb881 O909 2.409 . S
Tb881 O910 2.378 . S
C882 Tb880 2.809 . S
C882 C883 1.514 . S
C882 O900 1.248 . S
C882 O901 1.266 . S
C883 C882 1.514 . S
C883 C884 1.359 . S
C883 C888 1.348 . S
C884 C883 1.359 . S
C884 C885 1.380 . S
C884 H912 0.929 . S
C885 C884 1.380 . S
C885 C886 1.347 1_556 S
C885 H913 0.931 1_556 S
C886 C885 1.347 1_554 S
C886 C887 1.369 1_554 S
C887 C886 1.369 1_556 S
C887 C888 1.408 . S
C887 H914 0.930 . S
C888 C883 1.348 . S
C888 C887 1.408 . S
C888 H915 0.930 . S
C889 O902 1.281 . S
C889 O903 1.254 . S
C890 O904 1.236 . S
C890 O905 1.266 . S
C891 Tb881 2.809 . S
C891 C892 1.514 . S
C891 O906 1.248 . S
C891 O907 1.266 . S
C892 C891 1.514 . S
C892 C893 1.359 . S
C892 C897 1.348 . S
C893 C892 1.359 . S
C893 C894 1.380 . S
C893 H916 0.929 . S
C894 C893 1.380 . S
C894 C895 1.347 . S
C894 H917 0.931 . S
C895 C894 1.347 . S
C895 C896 1.369 1_565 S
C896 C895 1.369 1_545 S
C896 C897 1.408 1_545 S
C896 H918 0.930 . S
C897 C892 1.348 . S
C897 C896 1.408 1_565 S
C897 H919 0.930 1_565 S
C898 O908 1.281 . S
C898 O909 1.254 . S
C899 O910 1.236 . S
C899 O911 1.266 . S
O900 Tb880 2.484 . S
O900 C882 1.248 . S
O901 Tb880 2.440 . S
O901 C882 1.266 . S
O902 Tb880 2.658 . S
O902 Tb881 2.325 . S
O902 C889 1.281 . S
O903 Tb880 2.409 . S
O903 C889 1.254 . S
O904 Tb880 2.378 . S
O904 C890 1.236 . S
O905 Tb881 2.341 . S
O905 C890 1.266 . S
O906 Tb881 2.484 . S
O906 C891 1.248 . S
O907 Tb881 2.440 . S
O907 C891 1.266 . S
O908 Tb880 2.325 . S
O908 Tb881 2.658 . S
O908 C898 1.281 . S
O909 Tb881 2.409 . S
O909 C898 1.254 . S
O910 Tb881 2.378 . S
O910 C899 1.236 . S
O911 Tb880 2.341 . S
O911 C899 1.266 . S
H912 C884 0.929 . S
H913 C885 0.931 1_554 S
H914 C887 0.930 . S
H915 C888 0.930 . S
H916 C893 0.929 . S
H917 C894 0.931 . S
H918 C896 0.930 . S
H919 C897 0.930 1_545 S
Tb920 C922 2.809 . S
Tb920 O940 2.484 . S
Tb920 O941 2.440 . S
Tb920 O942 2.658 1_554 S
Tb920 O943 2.409 . S
Tb920 O944 2.378 . S
Tb920 O948 2.325 . S
Tb920 O951 2.341 1_554 S
Tb921 C931 2.809 . S
Tb921 O942 2.325 . S
Tb921 O945 2.341 1_556 S
Tb921 O946 2.484 . S
Tb921 O947 2.440 . S
Tb921 O948 2.658 1_556 S
Tb921 O949 2.409 . S
Tb921 O950 2.378 . S
C922 Tb920 2.809 . S
C922 C923 1.514 . S
C922 O940 1.248 . S
C922 O941 1.266 . S
C923 C922 1.514 . S
C923 C924 1.359 . S
C923 C928 1.348 . S
C924 C923 1.359 . S
C924 C925 1.380 . S
C924 H952 0.929 . S
C925 C924 1.380 . S
C925 C926 1.347 . S
C925 H953 0.931 . S
C926 C925 1.347 . S
C926 C927 1.369 . S
C927 C926 1.369 . S
C927 C928 1.408 . S
C927 H954 0.930 . S
C928 C923 1.348 . S
C928 C927 1.408 . S
C928 H955 0.930 . S
C929 O942 1.281 . S
C929 O943 1.254 1_556 S
C930 O944 1.236 . S
C930 O945 1.266 . S
C931 Tb921 2.809 . S
C931 C932 1.514 . S
C931 O946 1.248 . S
C931 O947 1.266 . S
C932 C931 1.514 . S
C932 C933 1.359 . S
C932 C937 1.348 . S
C933 C932 1.359 . S
C933 C934 1.380 . S
C933 H956 0.929 . S
C934 C933 1.380 . S
C934 C935 1.347 . S
C934 H957 0.931 . S
C935 C934 1.347 . S
C935 C936 1.369 . S
C936 C935 1.369 . S
C936 C937 1.408 . S
C936 H958 0.930 . S
C937 C932 1.348 . S
C937 C936 1.408 . S
C937 H959 0.930 . S
C938 O948 1.278 1_556 S
C938 O949 1.261 . S
C939 O950 1.236 . S
C939 O951 1.266 . S
O940 Tb920 2.484 . S
O940 C922 1.248 . S
O941 Tb920 2.440 . S
O941 C922 1.266 . S
O942 Tb920 2.658 1_556 S
O942 Tb921 2.325 . S
O942 C929 1.281 . S
O943 Tb920 2.409 . S
O943 C929 1.254 1_554 S
O944 Tb920 2.378 . S
O944 C930 1.236 . S
O945 Tb921 2.341 1_554 S
O945 C930 1.266 . S
O946 Tb921 2.484 . S
O946 C931 1.248 . S
O947 Tb921 2.440 . S
O947 C931 1.266 . S
O948 Tb920 2.325 . S
O948 Tb921 2.658 1_554 S
O948 C938 1.278 1_554 S
O949 Tb921 2.409 . S
O949 C938 1.261 . S
O950 Tb921 2.378 . S
O950 C939 1.236 . S
O951 Tb920 2.341 1_556 S
O951 C939 1.266 . S
H952 C924 0.929 . S
H953 C925 0.931 . S
H954 C927 0.930 . S
H955 C928 0.930 . S
H956 C933 0.929 . S
H957 C934 0.931 . S
H958 C936 0.930 . S
H959 C937 0.930 . S
Tb960 C962 2.809 . S
Tb960 O980 2.484 . S
Tb960 O981 2.440 . S
Tb960 O982 2.658 . S
Tb960 O983 2.409 . S
Tb960 O984 2.378 . S
Tb960 O988 2.325 . S
Tb960 O991 2.341 . S
Tb961 C971 2.809 . S
Tb961 O982 2.325 . S
Tb961 O985 2.341 . S
Tb961 O986 2.484 . S
Tb961 O987 2.440 . S
Tb961 O988 2.658 . S
Tb961 O989 2.409 . S
Tb961 O990 2.378 . S
C962 Tb960 2.809 . S
C962 C963 1.514 . S
C962 O980 1.248 . S
C962 O981 1.266 . S
C963 C962 1.514 . S
C963 C964 1.359 . S
C963 C968 1.348 . S
C964 C963 1.359 . S
C964 C965 1.380 . S
C964 H992 0.929 . S
C965 C964 1.380 . S
C965 C966 1.347 . S
C965 H993 0.931 . S
C966 C965 1.347 . S
C966 C967 1.369 1_545 S
C967 C966 1.369 1_565 S
C967 C968 1.408 1_565 S
C967 H994 0.930 . S
C968 C963 1.348 . S
C968 C967 1.408 1_545 S
C968 H995 0.930 1_545 S
C969 O982 1.281 . S
C969 O983 1.254 . S
C970 O984 1.236 . S
C970 O985 1.266 . S
C971 Tb961 2.809 . S
C971 C972 1.514 . S
C971 O986 1.248 . S
C971 O987 1.266 . S
C972 C971 1.514 . S
C972 C973 1.359 . S
C972 C977 1.348 . S
C973 C972 1.359 . S
C973 C974 1.380 . S
C973 H996 0.929 . S
C974 C973 1.380 . S
C974 C975 1.347 1_556 S
C974 H997 0.931 1_556 S
C975 C974 1.347 1_554 S
C975 C976 1.369 1_554 S
C976 C975 1.369 1_556 S
C976 C977 1.408 . S
C976 H998 0.930 . S
C977 C972 1.348 . S
C977 C976 1.408 . S
C977 H999 0.930 . S
C978 O988 1.281 . S
C978 O989 1.254 . S
C979 O990 1.236 . S
C979 O991 1.266 . S
O980 Tb960 2.484 . S
O980 C962 1.248 . S
O981 Tb960 2.440 . S
O981 C962 1.266 . S
O982 Tb960 2.658 . S
O982 Tb961 2.325 . S
O982 C969 1.281 . S
O983 Tb960 2.409 . S
O983 C969 1.254 . S
O984 Tb960 2.378 . S
O984 C970 1.236 . S
O985 Tb961 2.341 . S
O985 C970 1.266 . S
O986 Tb961 2.484 . S
O986 C971 1.248 . S
O987 Tb961 2.440 . S
O987 C971 1.266 . S
O988 Tb960 2.325 . S
O988 Tb961 2.658 . S
O988 C978 1.281 . S
O989 Tb961 2.409 . S
O989 C978 1.254 . S
O990 Tb961 2.378 . S
O990 C979 1.236 . S
O991 Tb960 2.341 . S
O991 C979 1.266 . S
H992 C964 0.929 . S
H993 C965 0.931 . S
H994 C967 0.930 . S
H995 C968 0.930 1_565 S
H996 C973 0.929 . S
H997 C974 0.931 1_554 S
H998 C976 0.930 . S
H999 C977 0.930 . S
Tb1000 C1002 2.809 . S
Tb1000 O1020 2.484 . S
Tb1000 O1021 2.440 . S
Tb1000 O1022 2.658 . S
Tb1000 O1023 2.409 . S
Tb1000 O1024 2.378 . S
Tb1000 O1028 2.325 . S
Tb1000 O1031 2.341 . S
Tb1001 C1011 2.809 . S
Tb1001 O1022 2.325 . S
Tb1001 O1025 2.341 . S
Tb1001 O1026 2.484 . S
Tb1001 O1027 2.440 . S
Tb1001 O1028 2.658 . S
Tb1001 O1029 2.409 . S
Tb1001 O1030 2.378 . S
C1002 Tb1000 2.809 . S
C1002 C1003 1.514 . S
C1002 O1020 1.248 . S
C1002 O1021 1.266 . S
C1003 C1002 1.514 . S
C1003 C1004 1.359 . S
C1003 C1008 1.348 . S
C1004 C1003 1.359 . S
C1004 C1005 1.380 . S
C1004 H1032 0.929 . S
C1005 C1004 1.380 . S
C1005 C1006 1.347 . S
C1005 H1033 0.931 . S
C1006 C1005 1.347 . S
C1006 C1007 1.369 . S
C1007 C1006 1.369 . S
C1007 C1008 1.408 . S
C1007 H1034 0.930 . S
C1008 C1003 1.348 . S
C1008 C1007 1.408 . S
C1008 H1035 0.930 . S
C1009 O1022 1.281 . S
C1009 O1023 1.254 . S
C1010 O1024 1.236 . S
C1010 O1025 1.266 . S
C1011 Tb1001 2.809 . S
C1011 C1012 1.514 . S
C1011 O1026 1.248 . S
C1011 O1027 1.266 . S
C1012 C1011 1.514 . S
C1012 C1013 1.359 . S
C1012 C1017 1.348 . S
C1013 C1012 1.359 . S
C1013 C1014 1.380 . S
C1013 H1036 0.929 . S
C1014 C1013 1.380 . S
C1014 C1015 1.347 . S
C1014 H1037 0.931 . S
C1015 C1014 1.347 . S
C1015 C1016 1.369 . S
C1016 C1015 1.369 . S
C1016 C1017 1.408 . S
C1016 H1038 0.930 . S
C1017 C1012 1.348 . S
C1017 C1016 1.408 . S
C1017 H1039 0.930 . S
C1018 O1028 1.281 . S
C1018 O1029 1.254 . S
C1019 O1030 1.236 . S
C1019 O1031 1.266 . S
O1020 Tb1000 2.484 . S
O1020 C1002 1.248 . S
O1021 Tb1000 2.440 . S
O1021 C1002 1.266 . S
O1022 Tb1000 2.658 . S
O1022 Tb1001 2.325 . S
O1022 C1009 1.281 . S
O1023 Tb1000 2.409 . S
O1023 C1009 1.254 . S
O1024 Tb1000 2.378 . S
O1024 C1010 1.236 . S
O1025 Tb1001 2.341 . S
O1025 C1010 1.266 . S
O1026 Tb1001 2.484 . S
O1026 C1011 1.248 . S
O1027 Tb1001 2.440 . S
O1027 C1011 1.266 . S
O1028 Tb1000 2.325 . S
O1028 Tb1001 2.658 . S
O1028 C1018 1.281 . S
O1029 Tb1001 2.409 . S
O1029 C1018 1.254 . S
O1030 Tb1001 2.378 . S
O1030 C1019 1.236 . S
O1031 Tb1000 2.341 . S
O1031 C1019 1.266 . S
H1032 C1004 0.929 . S
H1033 C1005 0.931 . S
H1034 C1007 0.930 . S
H1035 C1008 0.930 . S
H1036 C1013 0.929 . S
H1037 C1014 0.931 . S
H1038 C1016 0.930 . S
H1039 C1017 0.930 . S
Tb1040 C1042 2.809 . S
Tb1040 O1060 2.484 . S
Tb1040 O1061 2.440 . S
Tb1040 O1062 2.658 . S
Tb1040 O1063 2.409 . S
Tb1040 O1064 2.378 . S
Tb1040 O1068 2.325 . S
Tb1040 O1071 2.341 . S
Tb1041 C1051 2.809 . S
Tb1041 O1062 2.325 . S
Tb1041 O1065 2.341 . S
Tb1041 O1066 2.484 . S
Tb1041 O1067 2.440 . S
Tb1041 O1068 2.658 . S
Tb1041 O1069 2.409 . S
Tb1041 O1070 2.378 . S
C1042 Tb1040 2.809 . S
C1042 C1043 1.514 . S
C1042 O1060 1.248 . S
C1042 O1061 1.266 . S
C1043 C1042 1.514 . S
C1043 C1044 1.359 . S
C1043 C1048 1.348 . S
C1044 C1043 1.359 . S
C1044 C1045 1.380 1_554 S
C1044 H1072 0.929 . S
C1045 C1044 1.380 1_556 S
C1045 C1046 1.347 . S
C1045 H1073 0.931 . S
C1046 C1045 1.347 . S
C1046 C1047 1.369 1_566 S
C1047 C1046 1.369 1_544 S
C1047 C1048 1.408 1_545 S
C1047 H1074 0.930 1_554 S
C1048 C1043 1.348 . S
C1048 C1047 1.408 1_565 S
C1048 H1075 0.930 1_565 S
C1049 O1062 1.281 . S
C1049 O1063 1.254 . S
C1050 O1064 1.236 . S
C1050 O1065 1.266 . S
C1051 Tb1041 2.809 . S
C1051 C1052 1.514 . S
C1051 O1066 1.248 . S
C1051 O1067 1.266 . S
C1052 C1051 1.514 . S
C1052 C1053 1.359 . S
C1052 C1057 1.348 . S
C1053 C1052 1.359 . S
C1053 C1054 1.380 . S
C1053 H1076 0.929 . S
C1054 C1053 1.380 . S
C1054 C1055 1.347 . S
C1054 H1077 0.931 . S
C1055 C1054 1.347 . S
C1055 C1056 1.369 . S
C1056 C1055 1.369 . S
C1056 C1057 1.408 . S
C1056 H1078 0.930 . S
C1057 C1052 1.348 . S
C1057 C1056 1.408 . S
C1057 H1079 0.930 . S
C1058 O1068 1.281 . S
C1058 O1069 1.254 . S
C1059 O1070 1.236 . S
C1059 O1071 1.266 . S
O1060 Tb1040 2.484 . S
O1060 C1042 1.248 . S
O1061 Tb1040 2.440 . S
O1061 C1042 1.266 . S
O1062 Tb1040 2.658 . S
O1062 Tb1041 2.325 . S
O1062 C1049 1.281 . S
O1063 Tb1040 2.409 . S
O1063 C1049 1.254 . S
O1064 Tb1040 2.378 . S
O1064 C1050 1.236 . S
O1065 Tb1041 2.341 . S
O1065 C1050 1.266 . S
O1066 Tb1041 2.484 . S
O1066 C1051 1.248 . S
O1067 Tb1041 2.440 . S
O1067 C1051 1.266 . S
O1068 Tb1040 2.325 . S
O1068 Tb1041 2.658 . S
O1068 C1058 1.281 . S
O1069 Tb1041 2.409 . S
O1069 C1058 1.254 . S
O1070 Tb1041 2.378 . S
O1070 C1059 1.236 . S
O1071 Tb1040 2.341 . S
O1071 C1059 1.266 . S
H1072 C1044 0.929 . S
H1073 C1045 0.931 . S
H1074 C1047 0.930 1_556 S
H1075 C1048 0.930 1_545 S
H1076 C1053 0.929 . S
H1077 C1054 0.931 . S
H1078 C1056 0.930 . S
H1079 C1057 0.930 . S
Tb1080 C1082 2.809 . S
Tb1080 O1100 2.484 . S
Tb1080 O1101 2.440 . S
Tb1080 O1102 2.658 1_556 S
Tb1080 O1103 2.409 . S
Tb1080 O1104 2.378 . S
Tb1080 O1108 2.325 . S
Tb1080 O1111 2.341 1_556 S
Tb1081 C1091 2.809 . S
Tb1081 O1102 2.325 . S
Tb1081 O1105 2.341 1_554 S
Tb1081 O1106 2.484 . S
Tb1081 O1107 2.440 . S
Tb1081 O1108 2.658 1_554 S
Tb1081 O1109 2.409 . S
Tb1081 O1110 2.378 . S
C1082 Tb1080 2.809 . S
C1082 C1083 1.514 . S
C1082 O1100 1.248 . S
C1082 O1101 1.266 . S
C1083 C1082 1.514 . S
C1083 C1084 1.359 . S
C1083 C1088 1.348 . S
C1084 C1083 1.359 . S
C1084 C1085 1.380 . S
C1084 H1112 0.929 . S
C1085 C1084 1.380 . S
C1085 C1086 1.347 . S
C1085 H1113 0.931 . S
C1086 C1085 1.347 . S
C1086 C1087 1.369 . S
C1087 C1086 1.369 . S
C1087 C1088 1.408 . S
C1087 H1114 0.930 . S
C1088 C1083 1.348 . S
C1088 C1087 1.408 . S
C1088 H1115 0.930 . S
C1089 O1102 1.278 1_556 S
C1089 O1103 1.261 . S
C1090 O1104 1.236 . S
C1090 O1105 1.266 . S
C1091 Tb1081 2.809 . S
C1091 C1092 1.514 . S
C1091 O1106 1.248 . S
C1091 O1107 1.266 . S
C1092 C1091 1.514 . S
C1092 C1093 1.359 . S
C1092 C1097 1.348 . S
C1093 C1092 1.359 . S
C1093 C1094 1.380 . S
C1093 H1116 0.929 . S
C1094 C1093 1.380 . S
C1094 C1095 1.347 . S
C1094 H1117 0.931 . S
C1095 C1094 1.347 . S
C1095 C1096 1.369 . S
C1096 C1095 1.369 . S
C1096 C1097 1.408 . S
C1096 H1118 0.930 . S
C1097 C1092 1.348 . S
C1097 C1096 1.408 . S
C1097 H1119 0.930 . S
C1098 O1108 1.281 . S
C1098 O1109 1.254 1_556 S
C1099 O1110 1.236 . S
C1099 O1111 1.266 . S
O1100 Tb1080 2.484 . S
O1100 C1082 1.248 . S
O1101 Tb1080 2.440 . S
O1101 C1082 1.266 . S
O1102 Tb1080 2.658 1_554 S
O1102 Tb1081 2.325 . S
O1102 C1089 1.278 1_554 S
O1103 Tb1080 2.409 . S
O1103 C1089 1.261 . S
O1104 Tb1080 2.378 . S
O1104 C1090 1.236 . S
O1105 Tb1081 2.341 1_556 S
O1105 C1090 1.266 . S
O1106 Tb1081 2.484 . S
O1106 C1091 1.248 . S
O1107 Tb1081 2.440 . S
O1107 C1091 1.266 . S
O1108 Tb1080 2.325 . S
O1108 Tb1081 2.658 1_556 S
O1108 C1098 1.281 . S
O1109 Tb1081 2.409 . S
O1109 C1098 1.254 1_554 S
O1110 Tb1081 2.378 . S
O1110 C1099 1.236 . S
O1111 Tb1080 2.341 1_554 S
O1111 C1099 1.266 . S
H1112 C1084 0.929 . S
H1113 C1085 0.931 . S
H1114 C1087 0.930 . S
H1115 C1088 0.930 . S
H1116 C1093 0.929 . S
H1117 C1094 0.931 . S
H1118 C1096 0.930 . S
H1119 C1097 0.930 . S
Tb1120 C1122 2.809 . S
Tb1120 O1140 2.484 . S
Tb1120 O1141 2.440 . S
Tb1120 O1142 2.658 . S
Tb1120 O1143 2.409 . S
Tb1120 O1144 2.378 . S
Tb1120 O1148 2.325 . S
Tb1120 O1151 2.341 . S
Tb1121 C1131 2.809 . S
Tb1121 O1142 2.325 . S
Tb1121 O1145 2.341 . S
Tb1121 O1146 2.484 . S
Tb1121 O1147 2.440 . S
Tb1121 O1148 2.658 . S
Tb1121 O1149 2.409 . S
Tb1121 O1150 2.378 . S
C1122 Tb1120 2.809 . S
C1122 C1123 1.514 . S
C1122 O1140 1.248 . S
C1122 O1141 1.266 . S
C1123 C1122 1.514 . S
C1123 C1124 1.359 . S
C1123 C1128 1.348 . S
C1124 C1123 1.359 . S
C1124 C1125 1.380 . S
C1124 H1152 0.929 . S
C1125 C1124 1.380 . S
C1125 C1126 1.347 . S
C1125 H1153 0.931 . S
C1126 C1125 1.347 . S
C1126 C1127 1.369 1_565 S
C1127 C1126 1.369 1_545 S
C1127 C1128 1.408 1_545 S
C1127 H1154 0.930 . S
C1128 C1123 1.348 . S
C1128 C1127 1.408 1_565 S
C1128 H1155 0.930 1_565 S
C1129 O1142 1.281 . S
C1129 O1143 1.254 . S
C1130 O1144 1.236 . S
C1130 O1145 1.266 . S
C1131 Tb1121 2.809 . S
C1131 C1132 1.514 1_554 S
C1131 O1146 1.248 . S
C1131 O1147 1.266 . S
C1132 C1131 1.514 1_556 S
C1132 C1133 1.359 . S
C1132 C1137 1.348 . S
C1133 C1132 1.359 . S
C1133 C1134 1.380 . S
C1133 H1156 0.929 . S
C1134 C1133 1.380 . S
C1134 C1135 1.347 . S
C1134 H1157 0.931 . S
C1135 C1134 1.347 . S
C1135 C1136 1.369 . S
C1136 C1135 1.369 . S
C1136 C1137 1.408 . S
C1136 H1158 0.930 . S
C1137 C1132 1.348 . S
C1137 C1136 1.408 . S
C1137 H1159 0.930 . S
C1138 O1148 1.281 . S
C1138 O1149 1.254 . S
C1139 O1150 1.236 . S
C1139 O1151 1.266 . S
O1140 Tb1120 2.484 . S
O1140 C1122 1.248 . S
O1141 Tb1120 2.440 . S
O1141 C1122 1.266 . S
O1142 Tb1120 2.658 . S
O1142 Tb1121 2.325 . S
O1142 C1129 1.281 . S
O1143 Tb1120 2.409 . S
O1143 C1129 1.254 . S
O1144 Tb1120 2.378 . S
O1144 C1130 1.236 . S
O1145 Tb1121 2.341 . S
O1145 C1130 1.266 . S
O1146 Tb1121 2.484 . S
O1146 C1131 1.248 . S
O1147 Tb1121 2.440 . S
O1147 C1131 1.266 . S
O1148 Tb1120 2.325 . S
O1148 Tb1121 2.658 . S
O1148 C1138 1.281 . S
O1149 Tb1121 2.409 . S
O1149 C1138 1.254 . S
O1150 Tb1121 2.378 . S
O1150 C1139 1.236 . S
O1151 Tb1120 2.341 . S
O1151 C1139 1.266 . S
H1152 C1124 0.929 . S
H1153 C1125 0.931 . S
H1154 C1127 0.930 . S
H1155 C1128 0.930 1_545 S
H1156 C1133 0.929 . S
H1157 C1134 0.931 . S
H1158 C1136 0.930 . S
H1159 C1137 0.930 . S
Tb1160 C1162 2.809 1_556 S
Tb1160 O1180 2.484 1_556 S
Tb1160 O1181 2.440 1_556 S
Tb1160 O1182 2.658 . S
Tb1160 O1183 2.409 . S
Tb1160 O1184 2.378 . S
Tb1160 O1188 2.325 . S
Tb1160 O1191 2.341 . S
Tb1161 C1171 2.809 . S
Tb1161 O1182 2.325 . S
Tb1161 O1185 2.341 . S
Tb1161 O1186 2.484 . S
Tb1161 O1187 2.440 . S
Tb1161 O1188 2.658 . S
Tb1161 O1189 2.409 . S
Tb1161 O1190 2.378 . S
C1162 Tb1160 2.809 1_554 S
C1162 C1163 1.514 . S
C1162 O1180 1.248 . S
C1162 O1181 1.266 . S
C1163 C1162 1.514 . S
C1163 C1164 1.359 . S
C1163 C1168 1.348 . S
C1164 C1163 1.359 . S
C1164 C1165 1.380 . S
C1164 H1192 0.929 . S
C1165 C1164 1.380 . S
C1165 C1166 1.347 . S
C1165 H1193 0.931 . S
C1166 C1165 1.347 . S
C1166 C1167 1.369 . S
C1167 C1166 1.369 . S
C1167 C1168 1.408 . S
C1167 H1194 0.930 . S
C1168 C1163 1.348 . S
C1168 C1167 1.408 . S
C1168 H1195 0.930 . S
C1169 O1182 1.281 . S
C1169 O1183 1.254 . S
C1170 O1184 1.236 . S
C1170 O1185 1.266 . S
C1171 Tb1161 2.809 . S
C1171 C1172 1.514 . S
C1171 O1186 1.248 . S
C1171 O1187 1.266 . S
C1172 C1171 1.514 . S
C1172 C1173 1.359 . S
C1172 C1177 1.348 . S
C1173 C1172 1.359 . S
C1173 C1174 1.380 . S
C1173 H1196 0.929 . S
C1174 C1173 1.380 . S
C1174 C1175 1.347 . S
C1174 H1197 0.931 . S
C1175 C1174 1.347 . S
C1175 C1176 1.369 . S
C1176 C1175 1.369 . S
C1176 C1177 1.408 . S
C1176 H1198 0.930 . S
C1177 C1172 1.348 . S
C1177 C1176 1.408 . S
C1177 H1199 0.930 . S
C1178 O1188 1.281 . S
C1178 O1189 1.254 . S
C1179 O1190 1.236 . S
C1179 O1191 1.266 . S
O1180 Tb1160 2.484 1_554 S
O1180 C1162 1.248 . S
O1181 Tb1160 2.440 1_554 S
O1181 C1162 1.266 . S
O1182 Tb1160 2.658 . S
O1182 Tb1161 2.325 . S
O1182 C1169 1.281 . S
O1183 Tb1160 2.409 . S
O1183 C1169 1.254 . S
O1184 Tb1160 2.378 . S
O1184 C1170 1.236 . S
O1185 Tb1161 2.341 . S
O1185 C1170 1.266 . S
O1186 Tb1161 2.484 . S
O1186 C1171 1.248 . S
O1187 Tb1161 2.440 . S
O1187 C1171 1.266 . S
O1188 Tb1160 2.325 . S
O1188 Tb1161 2.658 . S
O1188 C1178 1.281 . S
O1189 Tb1161 2.409 . S
O1189 C1178 1.254 . S
O1190 Tb1161 2.378 . S
O1190 C1179 1.236 . S
O1191 Tb1160 2.341 . S
O1191 C1179 1.266 . S
H1192 C1164 0.929 . S
H1193 C1165 0.931 . S
H1194 C1167 0.930 . S
H1195 C1168 0.930 . S
H1196 C1173 0.929 . S
H1197 C1174 0.931 . S
H1198 C1176 0.930 . S
H1199 C1177 0.930 . S
Tb1200 C1202 2.809 . S
Tb1200 O1220 2.484 . S
Tb1200 O1221 2.440 . S
Tb1200 O1222 2.658 . S
Tb1200 O1223 2.409 . S
Tb1200 O1224 2.378 . S
Tb1200 O1228 2.325 . S
Tb1200 O1231 2.341 . S
Tb1201 C1211 2.809 . S
Tb1201 O1222 2.325 . S
Tb1201 O1225 2.341 . S
Tb1201 O1226 2.484 . S
Tb1201 O1227 2.440 . S
Tb1201 O1228 2.658 . S
Tb1201 O1229 2.409 . S
Tb1201 O1230 2.378 . S
C1202 Tb1200 2.809 . S
C1202 C1203 1.514 . S
C1202 O1220 1.248 . S
C1202 O1221 1.266 . S
C1203 C1202 1.514 . S
C1203 C1204 1.359 . S
C1203 C1208 1.348 . S
C1204 C1203 1.359 . S
C1204 C1205 1.380 . S
C1204 H1232 0.929 . S
C1205 C1204 1.380 . S
C1205 C1206 1.347 . S
C1205 H1233 0.931 . S
C1206 C1205 1.347 . S
C1206 C1207 1.369 1_545 S
C1207 C1206 1.369 1_565 S
C1207 C1208 1.408 1_565 S
C1207 H1234 0.930 . S
C1208 C1203 1.348 . S
C1208 C1207 1.408 1_545 S
C1208 H1235 0.930 1_545 S
C1209 O1222 1.281 . S
C1209 O1223 1.254 . S
C1210 O1224 1.236 . S
C1210 O1225 1.266 . S
C1211 Tb1201 2.809 . S
C1211 C1212 1.514 . S
C1211 O1226 1.248 . S
C1211 O1227 1.266 . S
C1212 C1211 1.514 . S
C1212 C1213 1.359 . S
C1212 C1217 1.348 . S
C1213 C1212 1.359 . S
C1213 C1214 1.380 . S
C1213 H1236 0.929 . S
C1214 C1213 1.380 . S
C1214 C1215 1.347 . S
C1214 H1237 0.931 . S
C1215 C1214 1.347 . S
C1215 C1216 1.369 . S
C1216 C1215 1.369 . S
C1216 C1217 1.408 . S
C1216 H1238 0.930 . S
C1217 C1212 1.348 . S
C1217 C1216 1.408 . S
C1217 H1239 0.930 . S
C1218 O1228 1.281 . S
C1218 O1229 1.254 . S
C1219 O1230 1.236 . S
C1219 O1231 1.266 . S
O1220 Tb1200 2.484 . S
O1220 C1202 1.248 . S
O1221 Tb1200 2.440 . S
O1221 C1202 1.266 . S
O1222 Tb1200 2.658 . S
O1222 Tb1201 2.325 . S
O1222 C1209 1.281 . S
O1223 Tb1200 2.409 . S
O1223 C1209 1.254 . S
O1224 Tb1200 2.378 . S
O1224 C1210 1.236 . S
O1225 Tb1201 2.341 . S
O1225 C1210 1.266 . S
O1226 Tb1201 2.484 . S
O1226 C1211 1.248 . S
O1227 Tb1201 2.440 . S
O1227 C1211 1.266 . S
O1228 Tb1200 2.325 . S
O1228 Tb1201 2.658 . S
O1228 C1218 1.281 . S
O1229 Tb1201 2.409 . S
O1229 C1218 1.254 . S
O1230 Tb1201 2.378 . S
O1230 C1219 1.236 . S
O1231 Tb1200 2.341 . S
O1231 C1219 1.266 . S
H1232 C1204 0.929 . S
H1233 C1205 0.931 . S
H1234 C1207 0.930 . S
H1235 C1208 0.930 1_565 S
H1236 C1213 0.929 . S
H1237 C1214 0.931 . S
H1238 C1216 0.930 . S
H1239 C1217 0.930 . S
Tb1240 C1242 2.809 . S
Tb1240 O1260 2.484 . S
Tb1240 O1261 2.440 . S
Tb1240 O1262 2.658 . S
Tb1240 O1263 2.409 . S
Tb1240 O1264 2.378 . S
Tb1240 O1268 2.325 . S
Tb1240 O1271 2.341 . S
Tb1241 C1251 2.809 . S
Tb1241 O1262 2.325 . S
Tb1241 O1265 2.341 . S
Tb1241 O1266 2.484 . S
Tb1241 O1267 2.440 . S
Tb1241 O1268 2.658 . S
Tb1241 O1269 2.409 . S
Tb1241 O1270 2.378 . S
C1242 Tb1240 2.809 . S
C1242 C1243 1.514 . S
C1242 O1260 1.248 . S
C1242 O1261 1.266 . S
C1243 C1242 1.514 . S
C1243 C1244 1.359 . S
C1243 C1248 1.348 . S
C1244 C1243 1.359 . S
C1244 C1245 1.380 . S
C1244 H1272 0.929 . S
C1245 C1244 1.380 . S
C1245 C1246 1.347 . S
C1245 H1273 0.931 . S
C1246 C1245 1.347 . S
C1246 C1247 1.369 . S
C1247 C1246 1.369 . S
C1247 C1248 1.408 . S
C1247 H1274 0.930 . S
C1248 C1243 1.348 . S
C1248 C1247 1.408 . S
C1248 H1275 0.930 . S
C1249 O1262 1.281 . S
C1249 O1263 1.254 . S
C1250 O1264 1.236 . S
C1250 O1265 1.266 . S
C1251 Tb1241 2.809 . S
C1251 C1252 1.514 . S
C1251 O1266 1.248 . S
C1251 O1267 1.266 . S
C1252 C1251 1.514 . S
C1252 C1253 1.359 . S
C1252 C1257 1.348 . S
C1253 C1252 1.359 . S
C1253 C1254 1.380 . S
C1253 H1276 0.929 . S
C1254 C1253 1.380 . S
C1254 C1255 1.347 . S
C1254 H1277 0.931 . S
C1255 C1254 1.347 . S
C1255 C1256 1.369 . S
C1256 C1255 1.369 . S
C1256 C1257 1.408 . S
C1256 H1278 0.930 . S
C1257 C1252 1.348 . S
C1257 C1256 1.408 . S
C1257 H1279 0.930 . S
C1258 O1268 1.281 . S
C1258 O1269 1.254 . S
C1259 O1270 1.236 . S
C1259 O1271 1.266 . S
O1260 Tb1240 2.484 . S
O1260 C1242 1.248 . S
O1261 Tb1240 2.440 . S
O1261 C1242 1.266 . S
O1262 Tb1240 2.658 . S
O1262 Tb1241 2.325 . S
O1262 C1249 1.281 . S
O1263 Tb1240 2.409 . S
O1263 C1249 1.254 . S
O1264 Tb1240 2.378 . S
O1264 C1250 1.236 . S
O1265 Tb1241 2.341 . S
O1265 C1250 1.266 . S
O1266 Tb1241 2.484 . S
O1266 C1251 1.248 . S
O1267 Tb1241 2.440 . S
O1267 C1251 1.266 . S
O1268 Tb1240 2.325 . S
O1268 Tb1241 2.658 . S
O1268 C1258 1.281 . S
O1269 Tb1241 2.409 . S
O1269 C1258 1.254 . S
O1270 Tb1241 2.378 . S
O1270 C1259 1.236 . S
O1271 Tb1240 2.341 . S
O1271 C1259 1.266 . S
H1272 C1244 0.929 . S
H1273 C1245 0.931 . S
H1274 C1247 0.930 . S
H1275 C1248 0.930 . S
H1276 C1253 0.929 . S
H1277 C1254 0.931 . S
H1278 C1256 0.930 . S
H1279 C1257 0.930 . S
C1280 C1281 1.363 . S
C1280 C1286 1.379 . S
C1280 N1288 1.356 . S
C1281 C1280 1.363 . S
C1281 C1287 1.363 . S
C1282 C1283 1.363 . S
C1282 C1287 1.379 . S
C1282 N1289 1.356 . S
C1283 C1282 1.363 . S
C1283 C1286 1.363 . S
N1284 C1286 1.356 . S
N1284 H1296 0.984 . S
N1284 H1297 0.985 . S
N1285 C1287 1.356 . S
N1285 H1290 0.984 . S
N1285 H1291 0.985 . S
C1286 C1280 1.379 . S
C1286 C1283 1.363 . S
C1286 N1284 1.356 . S
C1287 C1281 1.363 . S
C1287 C1282 1.379 . S
C1287 N1285 1.356 . S
N1288 C1280 1.356 . S
N1288 H1294 0.984 . S
N1288 H1295 0.984 . S
N1289 C1282 1.356 . S
N1289 H1292 0.984 . S
N1289 H1293 0.985 . S
H1290 N1285 0.984 . S
H1291 N1285 0.985 . S
H1292 N1289 0.984 . S
H1293 N1289 0.985 . S
H1294 N1288 0.984 . S
H1295 N1288 0.984 . S
H1296 N1284 0.984 . S
H1297 N1284 0.985 . S
C1298 C1299 1.363 . S
C1298 C1304 1.379 . S
C1298 N1306 1.356 . S
C1299 C1298 1.363 . S
C1299 C1305 1.363 . S
C1300 C1301 1.363 . S
C1300 C1305 1.379 . S
C1300 N1307 1.356 . S
C1301 C1300 1.363 . S
C1301 C1304 1.363 . S
N1302 C1304 1.356 . S
N1302 H1314 0.984 . S
N1302 H1315 0.985 . S
N1303 C1305 1.356 . S
N1303 H1308 0.984 . S
N1303 H1309 0.985 . S
C1304 C1298 1.379 . S
C1304 C1301 1.363 . S
C1304 N1302 1.356 . S
C1305 C1299 1.363 . S
C1305 C1300 1.379 . S
C1305 N1303 1.356 . S
N1306 C1298 1.356 . S
N1306 H1312 0.984 . S
N1306 H1313 0.984 . S
N1307 C1300 1.356 . S
N1307 H1310 0.984 . S
N1307 H1311 0.985 . S
H1308 N1303 0.984 . S
H1309 N1303 0.985 . S
H1310 N1307 0.984 . S
H1311 N1307 0.985 . S
H1312 N1306 0.984 . S
H1313 N1306 0.984 . S
H1314 N1302 0.984 . S
H1315 N1302 0.985 . S
C1316 C1317 1.363 . S
C1316 C1322 1.379 . S
C1316 N1324 1.356 . S
C1317 C1316 1.363 . S
C1317 C1323 1.363 . S
C1318 C1319 1.363 . S
C1318 C1323 1.379 . S
C1318 N1325 1.356 1_556 S
C1319 C1318 1.363 . S
C1319 C1322 1.363 . S
N1320 C1322 1.356 . S
N1320 H1332 0.984 . S
N1320 H1333 0.985 . S
N1321 C1323 1.356 1_554 S
N1321 H1326 0.984 . S
N1321 H1327 0.985 . S
C1322 C1316 1.379 . S
C1322 C1319 1.363 . S
C1322 N1320 1.356 . S
C1323 C1317 1.363 . S
C1323 C1318 1.379 . S
C1323 N1321 1.356 1_556 S
N1324 C1316 1.356 . S
N1324 H1330 0.984 . S
N1324 H1331 0.984 . S
N1325 C1318 1.356 1_554 S
N1325 H1328 0.984 1_554 S
N1325 H1329 0.985 . S
H1326 N1321 0.984 . S
H1327 N1321 0.985 . S
H1328 N1325 0.984 1_556 S
H1329 N1325 0.985 . S
H1330 N1324 0.984 . S
H1331 N1324 0.984 . S
H1332 N1320 0.984 . S
H1333 N1320 0.985 . S
C1334 C1335 1.363 . S
C1334 C1340 1.379 . S
C1334 N1342 1.356 . S
C1335 C1334 1.363 . S
C1335 C1341 1.363 . S
C1336 C1337 1.363 . S
C1336 C1341 1.379 . S
C1336 N1343 1.356 . S
C1337 C1336 1.363 . S
C1337 C1340 1.363 . S
N1338 C1340 1.356 . S
N1338 H1350 0.984 . S
N1338 H1351 0.985 . S
N1339 C1341 1.356 . S
N1339 H1344 0.984 . S
N1339 H1345 0.985 . S
C1340 C1334 1.379 . S
C1340 C1337 1.363 . S
C1340 N1338 1.356 . S
C1341 C1335 1.363 . S
C1341 C1336 1.379 . S
C1341 N1339 1.356 . S
N1342 C1334 1.356 . S
N1342 H1348 0.984 . S
N1342 H1349 0.984 . S
N1343 C1336 1.356 . S
N1343 H1346 0.984 . S
N1343 H1347 0.985 . S
H1344 N1339 0.984 . S
H1345 N1339 0.985 . S
H1346 N1343 0.984 . S
H1347 N1343 0.985 . S
H1348 N1342 0.984 . S
H1349 N1342 0.984 . S
H1350 N1338 0.984 . S
H1351 N1338 0.985 . S
C1352 C1353 1.363 . S
C1352 C1358 1.379 . S
C1352 N1360 1.356 . S
C1353 C1352 1.363 . S
C1353 C1359 1.363 . S
C1354 C1355 1.363 . S
C1354 C1359 1.379 . S
C1354 N1361 1.356 1_556 S
C1355 C1354 1.363 . S
C1355 C1358 1.363 . S
N1356 C1358 1.356 . S
N1356 H1368 0.984 . S
N1356 H1369 0.985 . S
N1357 C1359 1.356 1_554 S
N1357 H1362 0.984 1_554 S
N1357 H1363 0.985 . S
C1358 C1352 1.379 . S
C1358 C1355 1.363 . S
C1358 N1356 1.356 . S
C1359 C1353 1.363 . S
C1359 C1354 1.379 . S
C1359 N1357 1.356 1_556 S
N1360 C1352 1.356 . S
N1360 H1366 0.984 . S
N1360 H1367 0.984 . S
N1361 C1354 1.356 1_554 S
N1361 H1364 0.984 . S
N1361 H1365 0.985 . S
H1362 N1357 0.984 1_556 S
H1363 N1357 0.985 . S
H1364 N1361 0.984 . S
H1365 N1361 0.985 . S
H1366 N1360 0.984 . S
H1367 N1360 0.984 . S
H1368 N1356 0.984 . S
H1369 N1356 0.985 . S
C1370 C1371 1.363 . S
C1370 C1376 1.379 . S
C1370 N1378 1.356 . S
C1371 C1370 1.363 . S
C1371 C1377 1.363 . S
C1372 C1373 1.363 . S
C1372 C1377 1.379 . S
C1372 N1379 1.356 . S
C1373 C1372 1.363 . S
C1373 C1376 1.363 . S
N1374 C1376 1.356 . S
N1374 H1386 0.984 . S
N1374 H1387 0.985 . S
N1375 C1377 1.356 . S
N1375 H1380 0.984 . S
N1375 H1381 0.985 . S
C1376 C1370 1.379 . S
C1376 C1373 1.363 . S
C1376 N1374 1.356 . S
C1377 C1371 1.363 . S
C1377 C1372 1.379 . S
C1377 N1375 1.356 . S
N1378 C1370 1.356 . S
N1378 H1384 0.984 . S
N1378 H1385 0.984 . S
N1379 C1372 1.356 . S
N1379 H1382 0.984 . S
N1379 H1383 0.985 . S
H1380 N1375 0.984 . S
H1381 N1375 0.985 . S
H1382 N1379 0.984 . S
H1383 N1379 0.985 . S
H1384 N1378 0.984 . S
H1385 N1378 0.984 . S
H1386 N1374 0.984 . S
H1387 N1374 0.985 . S
C1388 C1389 1.363 . S
C1388 C1394 1.379 . S
C1388 N1396 1.356 . S
C1389 C1388 1.363 . S
C1389 C1395 1.363 . S
C1390 C1391 1.363 . S
C1390 C1395 1.379 . S
C1390 N1397 1.356 . S
C1391 C1390 1.363 . S
C1391 C1394 1.363 . S
N1392 C1394 1.356 . S
N1392 H1404 0.984 . S
N1392 H1405 0.985 . S
N1393 C1395 1.356 . S
N1393 H1398 0.984 . S
N1393 H1399 0.985 . S
C1394 C1388 1.379 . S
C1394 C1391 1.363 . S
C1394 N1392 1.356 . S
C1395 C1389 1.363 . S
C1395 C1390 1.379 . S
C1395 N1393 1.356 . S
N1396 C1388 1.356 . S
N1396 H1402 0.984 . S
N1396 H1403 0.984 . S
N1397 C1390 1.356 . S
N1397 H1400 0.984 . S
N1397 H1401 0.985 . S
H1398 N1393 0.984 . S
H1399 N1393 0.985 . S
H1400 N1397 0.984 . S
H1401 N1397 0.985 . S
H1402 N1396 0.984 . S
H1403 N1396 0.984 . S
H1404 N1392 0.984 . S
H1405 N1392 0.985 . S
C1406 C1407 1.363 . S
C1406 C1412 1.379 . S
C1406 N1414 1.356 . S
C1407 C1406 1.363 . S
C1407 C1413 1.363 . S
C1408 C1409 1.363 . S
C1408 C1413 1.379 . S
C1408 N1415 1.356 . S
C1409 C1408 1.363 . S
C1409 C1412 1.363 . S
N1410 C1412 1.356 . S
N1410 H1422 0.984 . S
N1410 H1423 0.985 . S
N1411 C1413 1.356 . S
N1411 H1416 0.984 . S
N1411 H1417 0.985 . S
C1412 C1406 1.379 . S
C1412 C1409 1.363 . S
C1412 N1410 1.356 . S
C1413 C1407 1.363 . S
C1413 C1408 1.379 . S
C1413 N1411 1.356 . S
N1414 C1406 1.356 . S
N1414 H1420 0.984 . S
N1414 H1421 0.984 . S
N1415 C1408 1.356 . S
N1415 H1418 0.984 . S
N1415 H1419 0.985 . S
H1416 N1411 0.984 . S
H1417 N1411 0.985 . S
H1418 N1415 0.984 . S
H1419 N1415 0.985 . S
H1420 N1414 0.984 . S
H1421 N1414 0.984 . S
H1422 N1410 0.984 . S
H1423 N1410 0.985 . S
C1424 C1425 1.363 . S
C1424 C1430 1.379 1_545 S
C1424 N1432 1.356 . S
C1425 C1424 1.363 . S
C1425 C1431 1.363 . S
C1426 C1427 1.363 . S
C1426 C1431 1.379 1_565 S
C1426 N1433 1.356 1_556 S
C1427 C1426 1.363 . S
C1427 C1430 1.363 . S
N1428 C1430 1.356 . S
N1428 H1440 0.984 . S
N1428 H1441 0.985 . S
N1429 C1431 1.356 1_554 S
N1429 H1434 0.984 1_554 S
N1429 H1435 0.985 . S
C1430 C1424 1.379 1_565 S
C1430 C1427 1.363 . S
C1430 N1428 1.356 . S
C1431 C1425 1.363 . S
C1431 C1426 1.379 1_545 S
C1431 N1429 1.356 1_556 S
N1432 C1424 1.356 . S
N1432 H1438 0.984 . S
N1432 H1439 0.984 . S
N1433 C1426 1.356 1_554 S
N1433 H1436 0.984 . S
N1433 H1437 0.985 . S
H1434 N1429 0.984 1_556 S
H1435 N1429 0.985 . S
H1436 N1433 0.984 . S
H1437 N1433 0.985 . S
H1438 N1432 0.984 . S
H1439 N1432 0.984 . S
H1440 N1428 0.984 . S
H1441 N1428 0.985 . S
C1442 C1443 1.363 . S
C1442 C1448 1.379 . S
C1442 N1450 1.356 . S
C1443 C1442 1.363 . S
C1443 C1449 1.363 . S
C1444 C1445 1.363 . S
C1444 C1449 1.379 . S
C1444 N1451 1.356 . S
C1445 C1444 1.363 . S
C1445 C1448 1.363 . S
N1446 C1448 1.356 . S
N1446 H1458 0.984 . S
N1446 H1459 0.985 . S
N1447 C1449 1.356 . S
N1447 H1452 0.984 . S
N1447 H1453 0.985 . S
C1448 C1442 1.379 . S
C1448 C1445 1.363 . S
C1448 N1446 1.356 . S
C1449 C1443 1.363 . S
C1449 C1444 1.379 . S
C1449 N1447 1.356 . S
N1450 C1442 1.356 . S
N1450 H1456 0.984 . S
N1450 H1457 0.984 . S
N1451 C1444 1.356 . S
N1451 H1454 0.984 . S
N1451 H1455 0.985 . S
H1452 N1447 0.984 . S
H1453 N1447 0.985 . S
H1454 N1451 0.984 . S
H1455 N1451 0.985 . S
H1456 N1450 0.984 . S
H1457 N1450 0.984 . S
H1458 N1446 0.984 . S
H1459 N1446 0.985 . S
C1460 C1461 1.363 . S
C1460 C1466 1.379 1_545 S
C1460 N1468 1.356 . S
C1461 C1460 1.363 . S
C1461 C1467 1.363 . S
C1462 C1463 1.363 . S
C1462 C1467 1.379 1_565 S
C1462 N1469 1.356 . S
C1463 C1462 1.363 . S
C1463 C1466 1.363 . S
N1464 C1466 1.356 . S
N1464 H1476 0.984 . S
N1464 H1477 0.985 . S
N1465 C1467 1.356 . S
N1465 H1470 0.984 . S
N1465 H1471 0.985 . S
C1466 C1460 1.379 1_565 S
C1466 C1463 1.363 . S
C1466 N1464 1.356 . S
C1467 C1461 1.363 . S
C1467 C1462 1.379 1_545 S
C1467 N1465 1.356 . S
N1468 C1460 1.356 . S
N1468 H1474 0.984 . S
N1468 H1475 0.984 . S
N1469 C1462 1.356 . S
N1469 H1472 0.984 . S
N1469 H1473 0.985 . S
H1470 N1465 0.984 . S
H1471 N1465 0.985 . S
H1472 N1469 0.984 . S
H1473 N1469 0.985 . S
H1474 N1468 0.984 . S
H1475 N1468 0.984 . S
H1476 N1464 0.984 . S
H1477 N1464 0.985 . S
C1478 C1479 1.363 . S
C1478 C1484 1.379 . S
C1478 N1486 1.356 . S
C1479 C1478 1.363 . S
C1479 C1485 1.363 . S
C1480 C1481 1.363 . S
C1480 C1485 1.379 . S
C1480 N1487 1.356 . S
C1481 C1480 1.363 . S
C1481 C1484 1.363 . S
N1482 C1484 1.356 . S
N1482 H1494 0.984 . S
N1482 H1495 0.985 . S
N1483 C1485 1.356 . S
N1483 H1488 0.984 . S
N1483 H1489 0.985 . S
C1484 C1478 1.379 . S
C1484 C1481 1.363 . S
C1484 N1482 1.356 . S
C1485 C1479 1.363 . S
C1485 C1480 1.379 . S
C1485 N1483 1.356 . S
N1486 C1478 1.356 . S
N1486 H1492 0.984 . S
N1486 H1493 0.984 . S
N1487 C1480 1.356 . S
N1487 H1490 0.984 . S
N1487 H1491 0.985 . S
H1488 N1483 0.984 . S
H1489 N1483 0.985 . S
H1490 N1487 0.984 . S
H1491 N1487 0.985 . S
H1492 N1486 0.984 . S
H1493 N1486 0.984 . S
H1494 N1482 0.984 . S
H1495 N1482 0.985 . S
C1496 C1497 1.363 . S
C1496 C1502 1.379 1_545 S
C1496 N1504 1.356 . S
C1497 C1496 1.363 . S
C1497 C1503 1.363 . S
C1498 C1499 1.363 . S
C1498 C1503 1.379 1_565 S
C1498 N1505 1.356 . S
C1499 C1498 1.363 . S
C1499 C1502 1.363 . S
N1500 C1502 1.356 . S
N1500 H1512 0.984 . S
N1500 H1513 0.985 . S
N1501 C1503 1.356 . S
N1501 H1506 0.984 . S
N1501 H1507 0.985 . S
C1502 C1496 1.379 1_565 S
C1502 C1499 1.363 . S
C1502 N1500 1.356 . S
C1503 C1497 1.363 . S
C1503 C1498 1.379 1_545 S
C1503 N1501 1.356 . S
N1504 C1496 1.356 . S
N1504 H1510 0.984 . S
N1504 H1511 0.984 . S
N1505 C1498 1.356 . S
N1505 H1508 0.984 . S
N1505 H1509 0.985 . S
H1506 N1501 0.984 . S
H1507 N1501 0.985 . S
H1508 N1505 0.984 . S
H1509 N1505 0.985 . S
H1510 N1504 0.984 . S
H1511 N1504 0.984 . S
H1512 N1500 0.984 . S
H1513 N1500 0.985 . S
C1514 C1515 1.363 . S
C1514 C1520 1.379 . S
C1514 N1522 1.356 . S
C1515 C1514 1.363 . S
C1515 C1521 1.363 . S
C1516 C1517 1.363 . S
C1516 C1521 1.379 . S
C1516 N1523 1.356 . S
C1517 C1516 1.363 . S
C1517 C1520 1.363 . S
N1518 C1520 1.356 . S
N1518 H1530 0.984 . S
N1518 H1531 0.985 . S
N1519 C1521 1.356 . S
N1519 H1524 0.984 . S
N1519 H1525 0.985 . S
C1520 C1514 1.379 . S
C1520 C1517 1.363 . S
C1520 N1518 1.356 . S
C1521 C1515 1.363 . S
C1521 C1516 1.379 . S
C1521 N1519 1.356 . S
N1522 C1514 1.356 . S
N1522 H1528 0.984 . S
N1522 H1529 0.984 . S
N1523 C1516 1.356 . S
N1523 H1526 0.984 . S
N1523 H1527 0.985 . S
H1524 N1519 0.984 . S
H1525 N1519 0.985 . S
H1526 N1523 0.984 . S
H1527 N1523 0.985 . S
H1528 N1522 0.984 . S
H1529 N1522 0.984 . S
H1530 N1518 0.984 . S
H1531 N1518 0.985 . S
C1532 C1533 1.363 . S
C1532 C1538 1.379 1_565 S
C1532 N1540 1.356 . S
C1533 C1532 1.363 . S
C1533 C1539 1.363 . S
C1534 C1535 1.363 . S
C1534 C1539 1.379 1_545 S
C1534 N1541 1.356 1_556 S
C1535 C1534 1.363 . S
C1535 C1538 1.363 . S
N1536 C1538 1.356 . S
N1536 H1548 0.984 . S
N1536 H1549 0.985 . S
N1537 C1539 1.356 1_554 S
N1537 H1542 0.984 1_554 S
N1537 H1543 0.985 . S
C1538 C1532 1.379 1_545 S
C1538 C1535 1.363 . S
C1538 N1536 1.356 . S
C1539 C1533 1.363 . S
C1539 C1534 1.379 1_565 S
C1539 N1537 1.356 1_556 S
N1540 C1532 1.356 . S
N1540 H1546 0.984 . S
N1540 H1547 0.984 . S
N1541 C1534 1.356 1_554 S
N1541 H1544 0.984 . S
N1541 H1545 0.985 . S
H1542 N1537 0.984 1_556 S
H1543 N1537 0.985 . S
H1544 N1541 0.984 . S
H1545 N1541 0.985 . S
H1546 N1540 0.984 . S
H1547 N1540 0.984 . S
H1548 N1536 0.984 . S
H1549 N1536 0.985 . S
C1550 C1551 1.363 . S
C1550 C1556 1.379 . S
C1550 N1558 1.356 . S
C1551 C1550 1.363 . S
C1551 C1557 1.363 . S
C1552 C1553 1.363 . S
C1552 C1557 1.379 . S
C1552 N1559 1.356 . S
C1553 C1552 1.363 . S
C1553 C1556 1.363 . S
N1554 C1556 1.356 . S
N1554 H1566 0.984 . S
N1554 H1567 0.985 . S
N1555 C1557 1.356 . S
N1555 H1560 0.984 . S
N1555 H1561 0.985 . S
C1556 C1550 1.379 . S
C1556 C1553 1.363 . S
C1556 N1554 1.356 . S
C1557 C1551 1.363 . S
C1557 C1552 1.379 . S
C1557 N1555 1.356 . S
N1558 C1550 1.356 . S
N1558 H1564 0.984 . S
N1558 H1565 0.984 . S
N1559 C1552 1.356 . S
N1559 H1562 0.984 . S
N1559 H1563 0.985 . S
H1560 N1555 0.984 . S
H1561 N1555 0.985 . S
H1562 N1559 0.984 . S
H1563 N1559 0.985 . S
H1564 N1558 0.984 . S
H1565 N1558 0.984 . S
H1566 N1554 0.984 . S
H1567 N1554 0.985 . S
C1568 C1569 1.363 . S
C1568 C1574 1.379 . S
C1568 N1576 1.356 . S
C1569 C1568 1.363 . S
C1569 C1575 1.363 . S
C1570 C1571 1.363 . S
C1570 C1575 1.379 . S
C1570 N1577 1.356 . S
C1571 C1570 1.363 . S
C1571 C1574 1.363 . S
N1572 C1574 1.356 . S
N1572 H1584 0.984 . S
N1572 H1585 0.985 . S
N1573 C1575 1.356 . S
N1573 H1578 0.984 . S
N1573 H1579 0.985 . S
C1574 C1568 1.379 . S
C1574 C1571 1.363 . S
C1574 N1572 1.356 . S
C1575 C1569 1.363 . S
C1575 C1570 1.379 . S
C1575 N1573 1.356 . S
N1576 C1568 1.356 . S
N1576 H1582 0.984 . S
N1576 H1583 0.984 . S
N1577 C1570 1.356 . S
N1577 H1580 0.984 . S
N1577 H1581 0.985 . S
H1578 N1573 0.984 . S
H1579 N1573 0.985 . S
H1580 N1577 0.984 . S
H1581 N1577 0.985 . S
H1582 N1576 0.984 . S
H1583 N1576 0.984 . S
H1584 N1572 0.984 . S
H1585 N1572 0.985 . S
C1586 C1587 1.363 . S
C1586 C1592 1.379 . S
C1586 N1594 1.356 . S
C1587 C1586 1.363 . S
C1587 C1593 1.363 . S
C1588 C1589 1.363 . S
C1588 C1593 1.379 . S
C1588 N1595 1.356 . S
C1589 C1588 1.363 . S
C1589 C1592 1.363 . S
N1590 C1592 1.356 . S
N1590 H1602 0.984 . S
N1590 H1603 0.985 . S
N1591 C1593 1.356 . S
N1591 H1596 0.984 . S
N1591 H1597 0.985 . S
C1592 C1586 1.379 . S
C1592 C1589 1.363 . S
C1592 N1590 1.356 . S
C1593 C1587 1.363 . S
C1593 C1588 1.379 . S
C1593 N1591 1.356 . S
N1594 C1586 1.356 . S
N1594 H1600 0.984 . S
N1594 H1601 0.984 . S
N1595 C1588 1.356 . S
N1595 H1598 0.984 . S
N1595 H1599 0.985 . S
H1596 N1591 0.984 . S
H1597 N1591 0.985 . S
H1598 N1595 0.984 . S
H1599 N1595 0.985 . S
H1600 N1594 0.984 . S
H1601 N1594 0.984 . S
H1602 N1590 0.984 . S
H1603 N1590 0.985 . S
C1604 C1605 1.363 . S
C1604 C1610 1.379 . S
C1604 N1612 1.356 . S
C1605 C1604 1.363 . S
C1605 C1611 1.363 . S
C1606 C1607 1.363 . S
C1606 C1611 1.379 . S
C1606 N1613 1.356 . S
C1607 C1606 1.363 . S
C1607 C1610 1.363 . S
N1608 C1610 1.356 . S
N1608 H1620 0.984 . S
N1608 H1621 0.985 . S
N1609 C1611 1.356 . S
N1609 H1614 0.984 . S
N1609 H1615 0.985 . S
C1610 C1604 1.379 . S
C1610 C1607 1.363 . S
C1610 N1608 1.356 . S
C1611 C1605 1.363 . S
C1611 C1606 1.379 . S
C1611 N1609 1.356 . S
N1612 C1604 1.356 . S
N1612 H1618 0.984 . S
N1612 H1619 0.984 . S
N1613 C1606 1.356 . S
N1613 H1616 0.984 . S
N1613 H1617 0.985 . S
H1614 N1609 0.984 . S
H1615 N1609 0.985 . S
H1616 N1613 0.984 . S
H1617 N1613 0.985 . S
H1618 N1612 0.984 . S
H1619 N1612 0.984 . S
H1620 N1608 0.984 . S
H1621 N1608 0.985 . S
C1622 C1623 1.363 . S
C1622 C1628 1.379 . S
C1622 N1630 1.356 . S
C1623 C1622 1.363 . S
C1623 C1629 1.363 . S
C1624 C1625 1.363 . S
C1624 C1629 1.379 . S
C1624 N1631 1.356 . S
C1625 C1624 1.363 . S
C1625 C1628 1.363 . S
N1626 C1628 1.356 . S
N1626 H1638 0.984 . S
N1626 H1639 0.985 . S
N1627 C1629 1.356 . S
N1627 H1632 0.984 1_554 S
N1627 H1633 0.985 . S
C1628 C1622 1.379 . S
C1628 C1625 1.363 . S
C1628 N1626 1.356 . S
C1629 C1623 1.363 . S
C1629 C1624 1.379 . S
C1629 N1627 1.356 . S
N1630 C1622 1.356 . S
N1630 H1636 0.984 . S
N1630 H1637 0.984 1_554 S
N1631 C1624 1.356 . S
N1631 H1634 0.984 . S
N1631 H1635 0.985 . S
H1632 N1627 0.984 1_556 S
H1633 N1627 0.985 . S
H1634 N1631 0.984 . S
H1635 N1631 0.985 . S
H1636 N1630 0.984 . S
H1637 N1630 0.984 1_556 S
H1638 N1626 0.984 . S
H1639 N1626 0.985 . S
C1640 C1641 1.363 . S
C1640 C1646 1.379 . S
C1640 N1648 1.356 . S
C1641 C1640 1.363 . S
C1641 C1647 1.363 . S
C1642 C1643 1.363 . S
C1642 C1647 1.379 . S
C1642 N1649 1.356 . S
C1643 C1642 1.363 . S
C1643 C1646 1.363 . S
N1644 C1646 1.356 . S
N1644 H1656 0.984 . S
N1644 H1657 0.985 . S
N1645 C1647 1.356 . S
N1645 H1650 0.984 . S
N1645 H1651 0.985 . S
C1646 C1640 1.379 . S
C1646 C1643 1.363 . S
C1646 N1644 1.356 . S
C1647 C1641 1.363 . S
C1647 C1642 1.379 . S
C1647 N1645 1.356 . S
N1648 C1640 1.356 . S
N1648 H1654 0.984 . S
N1648 H1655 0.984 . S
N1649 C1642 1.356 . S
N1649 H1652 0.984 . S
N1649 H1653 0.985 . S
H1650 N1645 0.984 . S
H1651 N1645 0.985 . S
H1652 N1649 0.984 . S
H1653 N1649 0.985 . S
H1654 N1648 0.984 . S
H1655 N1648 0.984 . S
H1656 N1644 0.984 . S
H1657 N1644 0.985 . S
C1658 C1659 1.363 . S
C1658 C1664 1.379 . S
C1658 N1666 1.356 . S
C1659 C1658 1.363 . S
C1659 C1665 1.363 . S
C1660 C1661 1.363 . S
C1660 C1665 1.379 . S
C1660 N1667 1.356 . S
C1661 C1660 1.363 . S
C1661 C1664 1.363 . S
N1662 C1664 1.356 . S
N1662 H1674 0.984 . S
N1662 H1675 0.985 . S
N1663 C1665 1.356 . S
N1663 H1668 0.984 . S
N1663 H1669 0.985 . S
C1664 C1658 1.379 . S
C1664 C1661 1.363 . S
C1664 N1662 1.356 . S
C1665 C1659 1.363 . S
C1665 C1660 1.379 . S
C1665 N1663 1.356 . S
N1666 C1658 1.356 . S
N1666 H1672 0.984 . S
N1666 H1673 0.984 . S
N1667 C1660 1.356 . S
N1667 H1670 0.984 . S
N1667 H1671 0.985 . S
H1668 N1663 0.984 . S
H1669 N1663 0.985 . S
H1670 N1667 0.984 . S
H1671 N1667 0.985 . S
H1672 N1666 0.984 . S
H1673 N1666 0.984 . S
H1674 N1662 0.984 . S
H1675 N1662 0.985 . S
C1676 C1677 1.363 . S
C1676 C1682 1.379 . S
C1676 N1684 1.356 . S
C1677 C1676 1.363 . S
C1677 C1683 1.363 . S
C1678 C1679 1.363 . S
C1678 C1683 1.379 . S
C1678 N1685 1.356 . S
C1679 C1678 1.363 . S
C1679 C1682 1.363 . S
N1680 C1682 1.356 . S
N1680 H1692 0.984 . S
N1680 H1693 0.985 1_554 S
N1681 C1683 1.356 . S
N1681 H1686 0.984 . S
N1681 H1687 0.985 . S
C1682 C1676 1.379 . S
C1682 C1679 1.363 . S
C1682 N1680 1.356 . S
C1683 C1677 1.363 . S
C1683 C1678 1.379 . S
C1683 N1681 1.356 . S
N1684 C1676 1.356 . S
N1684 H1690 0.984 . S
N1684 H1691 0.984 . S
N1685 C1678 1.356 . S
N1685 H1688 0.984 1_554 S
N1685 H1689 0.985 . S
H1686 N1681 0.984 . S
H1687 N1681 0.985 . S
H1688 N1685 0.984 1_556 S
H1689 N1685 0.985 . S
H1690 N1684 0.984 . S
H1691 N1684 0.984 . S
H1692 N1680 0.984 . S
H1693 N1680 0.985 1_556 S
C1694 C1695 1.363 . S
C1694 C1700 1.379 . S
C1694 N1702 1.356 . S
C1695 C1694 1.363 . S
C1695 C1701 1.363 . S
C1696 C1697 1.363 . S
C1696 C1701 1.379 . S
C1696 N1703 1.356 . S
C1697 C1696 1.363 . S
C1697 C1700 1.363 . S
N1698 C1700 1.356 . S
N1698 H1710 0.984 . S
N1698 H1711 0.985 . S
N1699 C1701 1.356 . S
N1699 H1704 0.984 . S
N1699 H1705 0.985 . S
C1700 C1694 1.379 . S
C1700 C1697 1.363 . S
C1700 N1698 1.356 . S
C1701 C1695 1.363 . S
C1701 C1696 1.379 . S
C1701 N1699 1.356 . S
N1702 C1694 1.356 . S
N1702 H1708 0.984 . S
N1702 H1709 0.984 . S
N1703 C1696 1.356 . S
N1703 H1706 0.984 . S
N1703 H1707 0.985 . S
H1704 N1699 0.984 . S
H1705 N1699 0.985 . S
H1706 N1703 0.984 . S
H1707 N1703 0.985 . S
H1708 N1702 0.984 . S
H1709 N1702 0.984 . S
H1710 N1698 0.984 . S
H1711 N1698 0.985 . S
C1712 C1713 1.363 . S
C1712 C1718 1.379 . S
C1712 N1720 1.356 . S
C1713 C1712 1.363 . S
C1713 C1719 1.363 . S
C1714 C1715 1.363 . S
C1714 C1719 1.379 . S
C1714 N1721 1.356 . S
C1715 C1714 1.363 . S
C1715 C1718 1.363 . S
N1716 C1718 1.356 . S
N1716 H1728 0.984 . S
N1716 H1729 0.985 1_554 S
N1717 C1719 1.356 . S
N1717 H1722 0.984 . S
N1717 H1723 0.985 . S
C1718 C1712 1.379 . S
C1718 C1715 1.363 . S
C1718 N1716 1.356 . S
C1719 C1713 1.363 . S
C1719 C1714 1.379 . S
C1719 N1717 1.356 . S
N1720 C1712 1.356 . S
N1720 H1726 0.984 . S
N1720 H1727 0.984 . S
N1721 C1714 1.356 . S
N1721 H1724 0.984 1_554 S
N1721 H1725 0.985 . S
H1722 N1717 0.984 . S
H1723 N1717 0.985 . S
H1724 N1721 0.984 1_556 S
H1725 N1721 0.985 . S
H1726 N1720 0.984 . S
H1727 N1720 0.984 . S
H1728 N1716 0.984 . S
H1729 N1716 0.985 1_556 S
C1730 C1731 1.363 . S
C1730 C1736 1.379 . S
C1730 N1738 1.356 . S
C1731 C1730 1.363 . S
C1731 C1737 1.363 . S
C1732 C1733 1.363 . S
C1732 C1737 1.379 . S
C1732 N1739 1.356 . S
C1733 C1732 1.363 . S
C1733 C1736 1.363 . S
N1734 C1736 1.356 . S
N1734 H1746 0.984 . S
N1734 H1747 0.985 . S
N1735 C1737 1.356 . S
N1735 H1740 0.984 . S
N1735 H1741 0.985 . S
C1736 C1730 1.379 . S
C1736 C1733 1.363 . S
C1736 N1734 1.356 . S
C1737 C1731 1.363 . S
C1737 C1732 1.379 . S
C1737 N1735 1.356 . S
N1738 C1730 1.356 . S
N1738 H1744 0.984 . S
N1738 H1745 0.984 . S
N1739 C1732 1.356 . S
N1739 H1742 0.984 . S
N1739 H1743 0.985 . S
H1740 N1735 0.984 . S
H1741 N1735 0.985 . S
H1742 N1739 0.984 . S
H1743 N1739 0.985 . S
H1744 N1738 0.984 . S
H1745 N1738 0.984 . S
H1746 N1734 0.984 . S
H1747 N1734 0.985 . S
C1748 C1749 1.363 . S
C1748 C1754 1.379 . S
C1748 N1756 1.356 . S
C1749 C1748 1.363 . S
C1749 C1755 1.363 . S
C1750 C1751 1.363 . S
C1750 C1755 1.379 . S
C1750 N1757 1.356 . S
C1751 C1750 1.363 . S
C1751 C1754 1.363 . S
N1752 C1754 1.356 . S
N1752 H1764 0.984 . S
N1752 H1765 0.985 . S
N1753 C1755 1.356 . S
N1753 H1758 0.984 . S
N1753 H1759 0.985 . S
C1754 C1748 1.379 . S
C1754 C1751 1.363 . S
C1754 N1752 1.356 . S
C1755 C1749 1.363 . S
C1755 C1750 1.379 . S
C1755 N1753 1.356 . S
N1756 C1748 1.356 . S
N1756 H1762 0.984 . S
N1756 H1763 0.984 . S
N1757 C1750 1.356 . S
N1757 H1760 0.984 . S
N1757 H1761 0.985 . S
H1758 N1753 0.984 . S
H1759 N1753 0.985 . S
H1760 N1757 0.984 . S
H1761 N1757 0.985 . S
H1762 N1756 0.984 . S
H1763 N1756 0.984 . S
H1764 N1752 0.984 . S
H1765 N1752 0.985 . S
C1766 C1767 1.363 . S
C1766 C1772 1.379 . S
C1766 N1774 1.356 . S
C1767 C1766 1.363 . S
C1767 C1773 1.363 . S
C1768 C1769 1.363 . S
C1768 C1773 1.379 . S
C1768 N1775 1.356 . S
C1769 C1768 1.363 . S
C1769 C1772 1.363 . S
N1770 C1772 1.356 . S
N1770 H1782 0.984 . S
N1770 H1783 0.985 . S
N1771 C1773 1.356 . S
N1771 H1776 0.984 . S
N1771 H1777 0.985 . S
C1772 C1766 1.379 . S
C1772 C1769 1.363 . S
C1772 N1770 1.356 . S
C1773 C1767 1.363 . S
C1773 C1768 1.379 . S
C1773 N1771 1.356 . S
N1774 C1766 1.356 . S
N1774 H1780 0.984 . S
N1774 H1781 0.984 . S
N1775 C1768 1.356 . S
N1775 H1778 0.984 . S
N1775 H1779 0.985 . S
H1776 N1771 0.984 . S
H1777 N1771 0.985 . S
H1778 N1775 0.984 . S
H1779 N1775 0.985 . S
H1780 N1774 0.984 . S
H1781 N1774 0.984 . S
H1782 N1770 0.984 . S
H1783 N1770 0.985 . S
C1784 C1785 1.363 . S
C1784 C1790 1.379 . S
C1784 N1792 1.356 . S
C1785 C1784 1.363 . S
C1785 C1791 1.363 . S
C1786 C1787 1.363 . S
C1786 C1791 1.379 . S
C1786 N1793 1.356 . S
C1787 C1786 1.363 . S
C1787 C1790 1.363 . S
N1788 C1790 1.356 . S
N1788 H1800 0.984 . S
N1788 H1801 0.985 . S
N1789 C1791 1.356 . S
N1789 H1794 0.984 . S
N1789 H1795 0.985 . S
C1790 C1784 1.379 . S
C1790 C1787 1.363 . S
C1790 N1788 1.356 . S
C1791 C1785 1.363 . S
C1791 C1786 1.379 . S
C1791 N1789 1.356 . S
N1792 C1784 1.356 . S
N1792 H1798 0.984 . S
N1792 H1799 0.984 . S
N1793 C1786 1.356 . S
N1793 H1796 0.984 . S
N1793 H1797 0.985 . S
H1794 N1789 0.984 . S
H1795 N1789 0.985 . S
H1796 N1793 0.984 . S
H1797 N1793 0.985 . S
H1798 N1792 0.984 . S
H1799 N1792 0.984 . S
H1800 N1788 0.984 . S
H1801 N1788 0.985 . S
C1802 C1803 1.363 . S
C1802 C1808 1.379 . S
C1802 N1810 1.356 . S
C1803 C1802 1.363 . S
C1803 C1809 1.363 . S
C1804 C1805 1.363 . S
C1804 C1809 1.379 . S
C1804 N1811 1.356 . S
C1805 C1804 1.363 . S
C1805 C1808 1.363 . S
N1806 C1808 1.356 . S
N1806 H1818 0.984 . S
N1806 H1819 0.985 . S
N1807 C1809 1.356 . S
N1807 H1812 0.984 . S
N1807 H1813 0.985 . S
C1808 C1802 1.379 . S
C1808 C1805 1.363 . S
C1808 N1806 1.356 . S
C1809 C1803 1.363 . S
C1809 C1804 1.379 . S
C1809 N1807 1.356 . S
N1810 C1802 1.356 . S
N1810 H1816 0.984 . S
N1810 H1817 0.984 . S
N1811 C1804 1.356 . S
N1811 H1814 0.984 . S
N1811 H1815 0.985 . S
H1812 N1807 0.984 . S
H1813 N1807 0.985 . S
H1814 N1811 0.984 . S
H1815 N1811 0.985 . S
H1816 N1810 0.984 . S
H1817 N1810 0.984 . S
H1818 N1806 0.984 . S
H1819 N1806 0.985 . S
C1820 C1821 1.363 . S
C1820 C1826 1.379 . S
C1820 N1828 1.356 . S
C1821 C1820 1.363 . S
C1821 C1827 1.363 . S
C1822 C1823 1.363 . S
C1822 C1827 1.379 . S
C1822 N1829 1.356 . S
C1823 C1822 1.363 . S
C1823 C1826 1.363 . S
N1824 C1826 1.356 . S
N1824 H1836 0.984 . S
N1824 H1837 0.985 . S
N1825 C1827 1.356 . S
N1825 H1830 0.984 . S
N1825 H1831 0.985 . S
C1826 C1820 1.379 . S
C1826 C1823 1.363 . S
C1826 N1824 1.356 . S
C1827 C1821 1.363 . S
C1827 C1822 1.379 . S
C1827 N1825 1.356 . S
N1828 C1820 1.356 . S
N1828 H1834 0.984 . S
N1828 H1835 0.984 . S
N1829 C1822 1.356 . S
N1829 H1832 0.984 . S
N1829 H1833 0.985 . S
H1830 N1825 0.984 . S
H1831 N1825 0.985 . S
H1832 N1829 0.984 . S
H1833 N1829 0.985 . S
H1834 N1828 0.984 . S
H1835 N1828 0.984 . S
H1836 N1824 0.984 . S
H1837 N1824 0.985 . S
C1838 C1839 1.363 . S
C1838 C1844 1.379 . S
C1838 N1846 1.356 . S
C1839 C1838 1.363 . S
C1839 C1845 1.363 . S
C1840 C1841 1.363 . S
C1840 C1845 1.379 . S
C1840 N1847 1.356 . S
C1841 C1840 1.363 . S
C1841 C1844 1.363 . S
N1842 C1844 1.356 . S
N1842 H1854 0.984 . S
N1842 H1855 0.985 . S
N1843 C1845 1.356 . S
N1843 H1848 0.984 1_554 S
N1843 H1849 0.985 . S
C1844 C1838 1.379 . S
C1844 C1841 1.363 . S
C1844 N1842 1.356 . S
C1845 C1839 1.363 . S
C1845 C1840 1.379 . S
C1845 N1843 1.356 . S
N1846 C1838 1.356 . S
N1846 H1852 0.984 . S
N1846 H1853 0.984 1_554 S
N1847 C1840 1.356 . S
N1847 H1850 0.984 . S
N1847 H1851 0.985 . S
H1848 N1843 0.984 1_556 S
H1849 N1843 0.985 . S
H1850 N1847 0.984 . S
H1851 N1847 0.985 . S
H1852 N1846 0.984 . S
H1853 N1846 0.984 1_556 S
H1854 N1842 0.984 . S
H1855 N1842 0.985 . S
C1856 C1857 1.363 1_455 S
C1856 C1862 1.379 . S
C1856 N1864 1.355 1_455 S
C1857 C1856 1.363 1_655 S
C1857 C1863 1.363 . S
C1858 C1859 1.363 1_655 S
C1858 C1863 1.379 . S
C1858 N1865 1.354 1_655 S
C1859 C1858 1.363 1_455 S
C1859 C1862 1.363 . S
N1860 C1862 1.356 . S
N1860 H1872 0.984 . S
N1860 H1873 0.985 . S
N1861 C1863 1.356 . S
N1861 H1866 0.984 . S
N1861 H1867 0.985 . S
C1862 C1856 1.379 . S
C1862 C1859 1.363 . S
C1862 N1860 1.356 . S
C1863 C1857 1.363 . S
C1863 C1858 1.379 . S
C1863 N1861 1.356 . S
N1864 C1856 1.355 1_655 S
N1864 H1870 0.976 1_655 S
N1864 H1871 0.995 . S
N1865 C1858 1.354 1_455 S
N1865 H1868 0.996 . S
N1865 H1869 0.975 1_455 S
H1866 N1861 0.984 . S
H1867 N1861 0.985 . S
H1868 N1865 0.996 . S
H1869 N1865 0.975 1_655 S
H1870 N1864 0.976 1_455 S
H1871 N1864 0.995 . S
H1872 N1860 0.984 . S
H1873 N1860 0.985 . S
C1874 C1875 1.363 . S
C1874 C1880 1.379 . S
C1874 N1882 1.356 . S
C1875 C1874 1.363 . S
C1875 C1881 1.363 . S
C1876 C1877 1.363 . S
C1876 C1881 1.379 . S
C1876 N1883 1.356 . S
C1877 C1876 1.363 . S
C1877 C1880 1.363 . S
N1878 C1880 1.356 . S
N1878 H1890 0.984 . S
N1878 H1891 0.985 . S
N1879 C1881 1.356 . S
N1879 H1884 0.984 . S
N1879 H1885 0.985 . S
C1880 C1874 1.379 . S
C1880 C1877 1.363 . S
C1880 N1878 1.356 . S
C1881 C1875 1.363 . S
C1881 C1876 1.379 . S
C1881 N1879 1.356 . S
N1882 C1874 1.356 . S
N1882 H1888 0.984 . S
N1882 H1889 0.984 . S
N1883 C1876 1.356 . S
N1883 H1886 0.984 . S
N1883 H1887 0.985 . S
H1884 N1879 0.984 . S
H1885 N1879 0.985 . S
H1886 N1883 0.984 . S
H1887 N1883 0.985 . S
H1888 N1882 0.984 . S
H1889 N1882 0.984 . S
H1890 N1878 0.984 . S
H1891 N1878 0.985 . S
C1892 C1893 1.363 . S
C1892 C1898 1.379 . S
C1892 N1900 1.356 . S
C1893 C1892 1.363 . S
C1893 C1899 1.363 . S
C1894 C1895 1.363 . S
C1894 C1899 1.379 . S
C1894 N1901 1.356 . S
C1895 C1894 1.363 . S
C1895 C1898 1.363 . S
N1896 C1898 1.356 . S
N1896 H1908 0.984 . S
N1896 H1909 0.985 . S
N1897 C1899 1.356 . S
N1897 H1902 0.984 . S
N1897 H1903 0.985 . S
C1898 C1892 1.379 . S
C1898 C1895 1.363 . S
C1898 N1896 1.356 . S
C1899 C1893 1.363 . S
C1899 C1894 1.379 . S
C1899 N1897 1.356 . S
N1900 C1892 1.356 . S
N1900 H1906 0.984 . S
N1900 H1907 0.984 . S
N1901 C1894 1.356 . S
N1901 H1904 0.984 . S
N1901 H1905 0.985 . S
H1902 N1897 0.984 . S
H1903 N1897 0.985 . S
H1904 N1901 0.984 . S
H1905 N1901 0.985 . S
H1906 N1900 0.984 . S
H1907 N1900 0.984 . S
H1908 N1896 0.984 . S
H1909 N1896 0.985 . S
C1910 C1911 1.363 . S
C1910 C1916 1.379 . S
C1910 N1918 1.356 . S
C1911 C1910 1.363 . S
C1911 C1917 1.363 . S
C1912 C1913 1.363 . S
C1912 C1917 1.379 . S
C1912 N1919 1.356 . S
C1913 C1912 1.363 . S
C1913 C1916 1.363 . S
N1914 C1916 1.356 1_554 S
N1914 H1926 0.984 . S
N1914 H1927 0.985 . S
N1915 C1917 1.356 . S
N1915 H1920 0.984 . S
N1915 H1921 0.985 . S
C1916 C1910 1.379 . S
C1916 C1913 1.363 . S
C1916 N1914 1.356 1_556 S
C1917 C1911 1.363 . S
C1917 C1912 1.379 . S
C1917 N1915 1.356 . S
N1918 C1910 1.356 . S
N1918 H1924 0.984 . S
N1918 H1925 0.984 . S
N1919 C1912 1.356 . S
N1919 H1922 0.984 . S
N1919 H1923 0.985 . S
H1920 N1915 0.984 . S
H1921 N1915 0.985 . S
H1922 N1919 0.984 . S
H1923 N1919 0.985 . S
H1924 N1918 0.984 . S
H1925 N1918 0.984 . S
H1926 N1914 0.984 . S
H1927 N1914 0.985 . S
C1928 C1929 1.363 . S
C1928 C1934 1.379 . S
C1928 N1936 1.356 . S
C1929 C1928 1.363 . S
C1929 C1935 1.363 1_655 S
C1930 C1931 1.363 . S
C1930 C1935 1.379 . S
C1930 N1937 1.356 . S
C1931 C1930 1.363 . S
C1931 C1934 1.363 1_455 S
N1932 C1934 1.356 . S
N1932 H1944 0.984 . S
N1932 H1945 0.985 1_655 S
N1933 C1935 1.356 . S
N1933 H1938 0.984 1_455 S
N1933 H1939 0.985 . S
C1934 C1928 1.379 . S
C1934 C1931 1.363 1_655 S
C1934 N1932 1.356 . S
C1935 C1929 1.363 1_455 S
C1935 C1930 1.379 . S
C1935 N1933 1.356 . S
N1936 C1928 1.356 . S
N1936 H1942 0.984 . S
N1936 H1943 0.984 . S
N1937 C1930 1.356 . S
N1937 H1940 0.984 . S
N1937 H1941 0.985 . S
H1938 N1933 0.984 1_655 S
H1939 N1933 0.985 . S
H1940 N1937 0.984 . S
H1941 N1937 0.985 . S
H1942 N1936 0.984 . S
H1943 N1936 0.984 . S
H1944 N1932 0.984 . S
H1945 N1932 0.985 1_455 S
C1946 C1947 1.363 . S
C1946 C1952 1.379 . S
C1946 N1954 1.356 . S
C1947 C1946 1.363 . S
C1947 C1953 1.363 . S
C1948 C1949 1.363 . S
C1948 C1953 1.379 . S
C1948 N1955 1.356 . S
C1949 C1948 1.363 . S
C1949 C1952 1.363 . S
N1950 C1952 1.356 1_554 S
N1950 H1962 0.984 . S
N1950 H1963 0.985 . S
N1951 C1953 1.356 . S
N1951 H1956 0.984 . S
N1951 H1957 0.985 . S
C1952 C1946 1.379 . S
C1952 C1949 1.363 . S
C1952 N1950 1.356 1_556 S
C1953 C1947 1.363 . S
C1953 C1948 1.379 . S
C1953 N1951 1.356 . S
N1954 C1946 1.356 . S
N1954 H1960 0.984 . S
N1954 H1961 0.984 . S
N1955 C1948 1.356 . S
N1955 H1958 0.987 . S
N1955 H1959 0.985 . S
H1956 N1951 0.984 . S
H1957 N1951 0.985 . S
H1958 N1955 0.987 . S
H1959 N1955 0.985 . S
H1960 N1954 0.984 . S
H1961 N1954 0.984 . S
H1962 N1950 0.984 . S
H1963 N1950 0.985 . S
C1964 C1965 1.363 . S
C1964 C1970 1.379 . S
C1964 N1972 1.356 . S
C1965 C1964 1.363 . S
C1965 C1971 1.363 . S
C1966 C1967 1.363 . S
C1966 C1971 1.379 . S
C1966 N1973 1.356 . S
C1967 C1966 1.363 . S
C1967 C1970 1.363 . S
N1968 C1970 1.356 . S
N1968 H1980 0.984 . S
N1968 H1981 0.985 . S
N1969 C1971 1.356 . S
N1969 H1974 0.984 . S
N1969 H1975 0.985 . S
C1970 C1964 1.379 . S
C1970 C1967 1.363 . S
C1970 N1968 1.356 . S
C1971 C1965 1.363 . S
C1971 C1966 1.379 . S
C1971 N1969 1.356 . S
N1972 C1964 1.356 . S
N1972 H1978 0.984 . S
N1972 H1979 0.984 . S
N1973 C1966 1.356 . S
N1973 H1976 0.984 . S
N1973 H1977 0.985 . S
H1974 N1969 0.984 . S
H1975 N1969 0.985 . S
H1976 N1973 0.984 . S
H1977 N1973 0.985 . S
H1978 N1972 0.984 . S
H1979 N1972 0.984 . S
H1980 N1968 0.984 . S
H1981 N1968 0.985 . S
C1982 C1983 1.363 . S
C1982 C1988 1.379 . S
C1982 N1990 1.356 . S
C1983 C1982 1.363 . S
C1983 C1989 1.363 . S
C1984 C1985 1.363 . S
C1984 C1989 1.379 . S
C1984 N1991 1.356 . S
C1985 C1984 1.363 . S
C1985 C1988 1.363 . S
N1986 C1988 1.356 . S
N1986 H1998 0.984 . S
N1986 H1999 0.985 . S
N1987 C1989 1.356 . S
N1987 H1992 0.984 . S
N1987 H1993 0.985 . S
C1988 C1982 1.379 . S
C1988 C1985 1.363 . S
C1988 N1986 1.356 . S
C1989 C1983 1.363 . S
C1989 C1984 1.379 . S
C1989 N1987 1.356 . S
N1990 C1982 1.356 . S
N1990 H1996 0.984 . S
N1990 H1997 0.984 . S
N1991 C1984 1.356 . S
N1991 H1994 0.984 . S
N1991 H1995 0.985 . S
H1992 N1987 0.984 . S
H1993 N1987 0.985 . S
H1994 N1991 0.984 . S
H1995 N1991 0.985 . S
H1996 N1990 0.984 . S
H1997 N1990 0.984 . S
H1998 N1986 0.984 . S
H1999 N1986 0.985 . S
C2000 C2001 1.363 . S
C2000 C2006 1.379 . S
C2000 N2008 1.356 . S
C2001 C2000 1.363 . S
C2001 C2007 1.363 . S
C2002 C2003 1.363 . S
C2002 C2007 1.379 . S
C2002 N2009 1.356 1_556 S
C2003 C2002 1.363 . S
C2003 C2006 1.363 . S
N2004 C2006 1.356 . S
N2004 H2016 0.984 . S
N2004 H2017 0.985 . S
N2005 C2007 1.356 . S
N2005 H2010 0.984 . S
N2005 H2011 0.985 . S
C2006 C2000 1.379 . S
C2006 C2003 1.363 . S
C2006 N2004 1.356 . S
C2007 C2001 1.363 . S
C2007 C2002 1.379 . S
C2007 N2005 1.356 . S
N2008 C2000 1.356 . S
N2008 H2014 0.984 . S
N2008 H2015 0.984 . S
N2009 C2002 1.356 1_554 S
N2009 H2012 0.984 . S
N2009 H2013 0.985 . S
H2010 N2005 0.984 . S
H2011 N2005 0.985 . S
H2012 N2009 0.984 . S
H2013 N2009 0.985 . S
H2014 N2008 0.984 . S
H2015 N2008 0.984 . S
H2016 N2004 0.984 . S
H2017 N2004 0.985 . S
C2018 C2019 1.363 . S
C2018 C2024 1.379 . S
C2018 N2026 1.356 . S
C2019 C2018 1.363 . S
C2019 C2025 1.363 . S
C2020 C2021 1.363 . S
C2020 C2025 1.379 . S
C2020 N2027 1.356 . S
C2021 C2020 1.363 . S
C2021 C2024 1.363 . S
N2022 C2024 1.356 . S
N2022 H2034 0.984 . S
N2022 H2035 0.985 . S
N2023 C2025 1.356 . S
N2023 H2028 0.984 . S
N2023 H2029 0.985 . S
C2024 C2018 1.379 . S
C2024 C2021 1.363 . S
C2024 N2022 1.356 . S
C2025 C2019 1.363 . S
C2025 C2020 1.379 . S
C2025 N2023 1.356 . S
N2026 C2018 1.356 . S
N2026 H2032 0.984 . S
N2026 H2033 0.984 . S
N2027 C2020 1.356 . S
N2027 H2030 0.984 . S
N2027 H2031 0.985 . S
H2028 N2023 0.984 . S
H2029 N2023 0.985 . S
H2030 N2027 0.984 . S
H2031 N2027 0.985 . S
H2032 N2026 0.984 . S
H2033 N2026 0.984 . S
H2034 N2022 0.984 . S
H2035 N2022 0.985 . S
C2036 C2037 1.363 . S
C2036 C2042 1.379 . S
C2036 N2044 1.356 . S
C2037 C2036 1.363 . S
C2037 C2043 1.363 . S
C2038 C2039 1.363 . S
C2038 C2043 1.379 . S
C2038 N2045 1.356 . S
C2039 C2038 1.363 . S
C2039 C2042 1.363 . S
N2040 C2042 1.356 . S
N2040 H2052 0.984 . S
N2040 H2053 0.985 . S
N2041 C2043 1.356 . S
N2041 H2046 0.984 . S
N2041 H2047 0.985 . S
C2042 C2036 1.379 . S
C2042 C2039 1.363 . S
C2042 N2040 1.356 . S
C2043 C2037 1.363 . S
C2043 C2038 1.379 . S
C2043 N2041 1.356 . S
N2044 C2036 1.356 . S
N2044 H2050 0.984 . S
N2044 H2051 0.984 . S
N2045 C2038 1.356 . S
N2045 H2048 0.984 . S
N2045 H2049 0.985 . S
H2046 N2041 0.984 . S
H2047 N2041 0.985 . S
H2048 N2045 0.984 . S
H2049 N2045 0.985 . S
H2050 N2044 0.984 . S
H2051 N2044 0.984 . S
H2052 N2040 0.984 . S
H2053 N2040 0.985 . S
C2054 C2055 1.363 . S
C2054 C2060 1.379 . S
C2054 N2062 1.356 . S
C2055 C2054 1.363 . S
C2055 C2061 1.363 . S
C2056 C2057 1.363 . S
C2056 C2061 1.379 . S
C2056 N2063 1.356 . S
C2057 C2056 1.363 . S
C2057 C2060 1.363 . S
N2058 C2060 1.356 . S
N2058 H2070 0.984 . S
N2058 H2071 0.985 . S
N2059 C2061 1.356 1_554 S
N2059 H2064 0.984 . S
N2059 H2065 0.985 . S
C2060 C2054 1.379 . S
C2060 C2057 1.363 . S
C2060 N2058 1.356 . S
C2061 C2055 1.363 . S
C2061 C2056 1.379 . S
C2061 N2059 1.356 1_556 S
N2062 C2054 1.356 . S
N2062 H2068 0.984 . S
N2062 H2069 0.984 . S
N2063 C2056 1.356 . S
N2063 H2066 0.984 . S
N2063 H2067 0.985 . S
H2064 N2059 0.984 . S
H2065 N2059 0.985 . S
H2066 N2063 0.984 . S
H2067 N2063 0.985 . S
H2068 N2062 0.984 . S
H2069 N2062 0.984 . S
H2070 N2058 0.984 . S
H2071 N2058 0.985 . S
C2072 C2073 1.363 . S
C2072 C2078 1.379 1_545 S
C2072 N2080 1.356 . S
C2073 C2072 1.363 . S
C2073 C2079 1.363 . S
C2074 C2075 1.363 . S
C2074 C2079 1.379 1_565 S
C2074 N2081 1.356 . S
C2075 C2074 1.363 . S
C2075 C2078 1.363 . S
N2076 C2078 1.356 . S
N2076 H2088 0.984 . S
N2076 H2089 0.985 . S
N2077 C2079 1.356 . S
N2077 H2082 0.984 . S
N2077 H2083 0.985 . S
C2078 C2072 1.379 1_565 S
C2078 C2075 1.363 . S
C2078 N2076 1.356 . S
C2079 C2073 1.363 . S
C2079 C2074 1.379 1_545 S
C2079 N2077 1.356 . S
N2080 C2072 1.356 . S
N2080 H2086 0.984 . S
N2080 H2087 0.984 . S
N2081 C2074 1.356 . S
N2081 H2084 0.984 . S
N2081 H2085 0.985 . S
H2082 N2077 0.984 . S
H2083 N2077 0.985 . S
H2084 N2081 0.984 . S
H2085 N2081 0.985 . S
H2086 N2080 0.984 . S
H2087 N2080 0.984 . S
H2088 N2076 0.984 . S
H2089 N2076 0.985 . S
C2090 C2091 1.363 . S
C2090 C2096 1.379 1_455 S
C2090 N2098 1.356 . S
C2091 C2090 1.363 . S
C2091 C2097 1.363 1_565 S
C2092 C2093 1.363 . S
C2092 C2097 1.379 1_655 S
C2092 N2099 1.356 . S
C2093 C2092 1.363 . S
C2093 C2096 1.363 1_545 S
N2094 C2096 1.356 . S
N2094 H2106 0.984 . S
N2094 H2107 0.985 1_565 S
N2095 C2097 1.356 . S
N2095 H2100 0.984 1_545 S
N2095 H2101 0.985 . S
C2096 C2090 1.379 1_655 S
C2096 C2093 1.363 1_565 S
C2096 N2094 1.356 . S
C2097 C2091 1.363 1_545 S
C2097 C2092 1.379 1_455 S
C2097 N2095 1.356 . S
N2098 C2090 1.356 . S
N2098 H2104 0.984 . S
N2098 H2105 0.984 . S
N2099 C2092 1.356 . S
N2099 H2102 0.984 . S
N2099 H2103 0.985 . S
H2100 N2095 0.984 1_565 S
H2101 N2095 0.985 . S
H2102 N2099 0.984 . S
H2103 N2099 0.985 . S
H2104 N2098 0.984 . S
H2105 N2098 0.984 . S
H2106 N2094 0.984 . S
H2107 N2094 0.985 1_545 S
C2108 C2109 1.363 . S
C2108 C2114 1.379 . S
C2108 N2116 1.356 . S
C2109 C2108 1.363 . S
C2109 C2115 1.363 1_565 S
C2110 C2111 1.363 . S
C2110 C2115 1.379 . S
C2110 N2117 1.356 . S
C2111 C2110 1.363 . S
C2111 C2114 1.363 1_545 S
N2112 C2114 1.356 . S
N2112 H2124 0.984 . S
N2112 H2125 0.985 1_565 S
N2113 C2115 1.356 . S
N2113 H2118 0.984 1_545 S
N2113 H2119 0.985 . S
C2114 C2108 1.379 . S
C2114 C2111 1.363 1_565 S
C2114 N2112 1.356 . S
C2115 C2109 1.363 1_545 S
C2115 C2110 1.379 . S
C2115 N2113 1.356 . S
N2116 C2108 1.356 . S
N2116 H2122 0.984 . S
N2116 H2123 0.984 . S
N2117 C2110 1.356 . S
N2117 H2120 0.984 . S
N2117 H2121 0.985 . S
H2118 N2113 0.984 1_565 S
H2119 N2113 0.985 . S
H2120 N2117 0.984 . S
H2121 N2117 0.985 . S
H2122 N2116 0.984 . S
H2123 N2116 0.984 . S
H2124 N2112 0.984 . S
H2125 N2112 0.985 1_545 S
C2126 C2127 1.363 1_545 S
C2126 C2132 1.376 1_655 S
C2126 N2134 1.356 . S
C2127 C2126 1.363 1_565 S
C2127 C2133 1.367 . S
C2128 C2129 1.363 1_565 S
C2128 C2133 1.375 1_455 S
C2128 N2135 1.356 . S
C2129 C2128 1.363 1_545 S
C2129 C2132 1.366 . S
N2130 C2132 1.357 . S
N2130 H2142 0.984 1_455 S
N2130 H2143 0.985 . S
N2131 C2133 1.358 . S
N2131 H2136 0.984 . S
N2131 H2137 0.985 1_655 S
C2132 C2126 1.376 1_455 S
C2132 C2129 1.366 . S
C2132 N2130 1.357 . S
C2133 C2127 1.367 . S
C2133 C2128 1.375 1_655 S
C2133 N2131 1.358 . S
N2134 C2126 1.356 . S
N2134 H2140 0.984 . S
N2134 H2141 0.952 1_545 S
N2135 C2128 1.356 . S
N2135 H2138 0.953 1_565 S
N2135 H2139 0.985 . S
H2136 N2131 0.984 . S
H2137 N2131 0.985 1_455 S
H2138 N2135 0.953 1_545 S
H2139 N2135 0.985 . S
H2140 N2134 0.984 . S
H2141 N2134 0.952 1_565 S
H2142 N2130 0.984 1_655 S
H2143 N2130 0.985 . S
C2144 C2145 1.363 . S
C2144 C2150 1.379 1_455 S
C2144 N2152 1.356 . S
C2145 C2144 1.363 . S
C2145 C2151 1.363 1_455 S
C2146 C2147 1.363 . S
C2146 C2151 1.379 . S
C2146 N2153 1.356 . S
C2147 C2146 1.363 . S
C2147 C2150 1.363 . S
N2148 C2150 1.356 . S
N2148 H2160 0.984 . S
N2148 H2161 0.985 . S
N2149 C2151 1.356 1_455 S
N2149 H2154 0.984 . S
N2149 H2155 0.985 . S
C2150 C2144 1.379 1_655 S
C2150 C2147 1.363 . S
C2150 N2148 1.356 . S
C2151 C2145 1.363 1_655 S
C2151 C2146 1.379 . S
C2151 N2149 1.356 1_655 S
N2152 C2144 1.356 . S
N2152 H2158 0.984 . S
N2152 H2159 0.984 . S
N2153 C2146 1.356 . S
N2153 H2156 0.984 . S
N2153 H2157 0.985 . S
H2154 N2149 0.984 . S
H2155 N2149 0.985 . S
H2156 N2153 0.984 . S
H2157 N2153 0.985 . S
H2158 N2152 0.984 . S
H2159 N2152 0.984 . S
H2160 N2148 0.984 . S
H2161 N2148 0.985 . S
C2162 C2163 1.363 . S
C2162 C2168 1.379 . S
C2162 N2170 1.356 . S
C2163 C2162 1.363 . S
C2163 C2169 1.363 . S
C2164 C2165 1.363 . S
C2164 C2169 1.379 . S
C2164 N2171 1.356 . S
C2165 C2164 1.363 . S
C2165 C2168 1.363 . S
N2166 C2168 1.356 . S
N2166 H2178 0.984 . S
N2166 H2179 0.985 . S
N2167 C2169 1.356 . S
N2167 H2172 0.984 . S
N2167 H2173 0.985 . S
C2168 C2162 1.379 . S
C2168 C2165 1.363 . S
C2168 N2166 1.356 . S
C2169 C2163 1.363 . S
C2169 C2164 1.379 . S
C2169 N2167 1.356 . S
N2170 C2162 1.356 . S
N2170 H2176 0.984 . S
N2170 H2177 0.984 . S
N2171 C2164 1.356 . S
N2171 H2174 0.984 . S
N2171 H2175 0.985 . S
H2172 N2167 0.984 . S
H2173 N2167 0.985 . S
H2174 N2171 0.984 . S
H2175 N2171 0.985 . S
H2176 N2170 0.984 . S
H2177 N2170 0.984 . S
H2178 N2166 0.984 . S
H2179 N2166 0.985 . S
C2180 C2181 1.363 . S
C2180 C2186 1.379 . S
C2180 N2188 1.356 . S
C2181 C2180 1.363 . S
C2181 C2187 1.363 . S
C2182 C2183 1.363 . S
C2182 C2187 1.379 . S
C2182 N2189 1.356 . S
C2183 C2182 1.363 . S
C2183 C2186 1.363 . S
N2184 C2186 1.356 . S
N2184 H2196 0.984 . S
N2184 H2197 0.985 . S
N2185 C2187 1.356 . S
N2185 H2190 0.984 . S
N2185 H2191 0.985 . S
C2186 C2180 1.379 . S
C2186 C2183 1.363 . S
C2186 N2184 1.356 . S
C2187 C2181 1.363 . S
C2187 C2182 1.379 . S
C2187 N2185 1.356 . S
N2188 C2180 1.356 . S
N2188 H2194 0.984 . S
N2188 H2195 0.984 . S
N2189 C2182 1.356 . S
N2189 H2192 0.984 . S
N2189 H2193 0.985 . S
H2190 N2185 0.984 . S
H2191 N2185 0.985 . S
H2192 N2189 0.984 . S
H2193 N2189 0.985 . S
H2194 N2188 0.984 . S
H2195 N2188 0.984 . S
H2196 N2184 0.984 . S
H2197 N2184 0.985 . S
C2198 C2199 1.363 . S
C2198 C2204 1.379 . S
C2198 N2206 1.356 . S
C2199 C2198 1.363 . S
C2199 C2205 1.363 . S
C2200 C2201 1.363 . S
C2200 C2205 1.379 . S
C2200 N2207 1.356 . S
C2201 C2200 1.363 . S
C2201 C2204 1.363 . S
N2202 C2204 1.356 . S
N2202 H2214 0.984 . S
N2202 H2215 0.985 . S
N2203 C2205 1.356 . S
N2203 H2208 0.984 . S
N2203 H2209 0.985 . S
C2204 C2198 1.379 . S
C2204 C2201 1.363 . S
C2204 N2202 1.356 . S
C2205 C2199 1.363 . S
C2205 C2200 1.379 . S
C2205 N2203 1.356 . S
N2206 C2198 1.356 . S
N2206 H2212 0.984 . S
N2206 H2213 0.984 . S
N2207 C2200 1.356 . S
N2207 H2210 0.984 . S
N2207 H2211 0.985 . S
H2208 N2203 0.984 . S
H2209 N2203 0.985 . S
H2210 N2207 0.984 . S
H2211 N2207 0.985 . S
H2212 N2206 0.984 . S
H2213 N2206 0.984 . S
H2214 N2202 0.984 . S
H2215 N2202 0.985 . S
C2216 C2217 1.363 . S
C2216 C2222 1.379 . S
C2216 N2224 1.356 . S
C2217 C2216 1.363 . S
C2217 C2223 1.363 . S
C2218 C2219 1.355 1_655 S
C2218 C2223 1.397 . S
C2218 N2225 1.343 1_655 S
C2219 C2218 1.355 1_455 S
C2219 C2222 1.363 1_455 S
N2220 C2222 1.356 1_455 S
N2220 H2232 0.984 . S
N2220 H2233 0.985 . S
N2221 C2223 1.356 . S
N2221 H2226 0.984 . S
N2221 H2227 0.985 . S
C2222 C2216 1.379 . S
C2222 C2219 1.363 1_655 S
C2222 N2220 1.356 1_655 S
C2223 C2217 1.363 . S
C2223 C2218 1.397 . S
C2223 N2221 1.356 . S
N2224 C2216 1.356 . S
N2224 H2230 0.984 . S
N2224 H2231 0.984 . S
N2225 C2218 1.343 1_455 S
N2225 H2228 0.984 1_554 S
N2225 H2229 0.985 1_554 S
H2226 N2221 0.984 . S
H2227 N2221 0.985 . S
H2228 N2225 0.984 1_556 S
H2229 N2225 0.985 1_556 S
H2230 N2224 0.984 . S
H2231 N2224 0.984 . S
H2232 N2220 0.984 . S
H2233 N2220 0.985 . S
C2234 C2235 1.363 . S
C2234 C2240 1.379 . S
C2234 N2242 1.356 . S
C2235 C2234 1.363 . S
C2235 C2241 1.363 . S
C2236 C2237 1.363 . S
C2236 C2241 1.379 . S
C2236 N2243 1.356 . S
C2237 C2236 1.363 . S
C2237 C2240 1.363 . S
N2238 C2240 1.356 . S
N2238 H2250 0.984 . S
N2238 H2251 0.985 . S
N2239 C2241 1.356 . S
N2239 H2244 0.984 . S
N2239 H2245 0.985 . S
C2240 C2234 1.379 . S
C2240 C2237 1.363 . S
C2240 N2238 1.356 . S
C2241 C2235 1.363 . S
C2241 C2236 1.379 . S
C2241 N2239 1.356 . S
N2242 C2234 1.356 . S
N2242 H2248 0.984 . S
N2242 H2249 0.984 . S
N2243 C2236 1.356 . S
N2243 H2246 0.984 . S
N2243 H2247 0.985 . S
H2244 N2239 0.984 . S
H2245 N2239 0.985 . S
H2246 N2243 0.984 . S
H2247 N2243 0.985 . S
H2248 N2242 0.984 . S
H2249 N2242 0.984 . S
H2250 N2238 0.984 . S
H2251 N2238 0.985 . S
C2252 C2253 1.363 . S
C2252 C2258 1.379 . S
C2252 N2260 1.356 . S
C2253 C2252 1.363 . S
C2253 C2259 1.363 . S
C2254 C2255 1.363 . S
C2254 C2259 1.379 . S
C2254 N2261 1.356 . S
C2255 C2254 1.363 . S
C2255 C2258 1.363 . S
N2256 C2258 1.356 . S
N2256 H2268 0.984 . S
N2256 H2269 0.985 . S
N2257 C2259 1.356 . S
N2257 H2262 0.984 . S
N2257 H2263 0.985 . S
C2258 C2252 1.379 . S
C2258 C2255 1.363 . S
C2258 N2256 1.356 . S
C2259 C2253 1.363 . S
C2259 C2254 1.379 . S
C2259 N2257 1.356 . S
N2260 C2252 1.356 . S
N2260 H2266 0.984 . S
N2260 H2267 0.984 . S
N2261 C2254 1.356 . S
N2261 H2264 0.984 . S
N2261 H2265 0.985 . S
H2262 N2257 0.984 . S
H2263 N2257 0.985 . S
H2264 N2261 0.984 . S
H2265 N2261 0.985 . S
H2266 N2260 0.984 . S
H2267 N2260 0.984 . S
H2268 N2256 0.984 . S
H2269 N2256 0.985 . S
C2270 C2271 1.363 . S
C2270 C2276 1.379 . S
C2270 N2278 1.356 . S
C2271 C2270 1.363 . S
C2271 C2277 1.363 . S
C2272 C2273 1.363 . S
C2272 C2277 1.379 . S
C2272 N2279 1.356 . S
C2273 C2272 1.363 . S
C2273 C2276 1.363 . S
N2274 C2276 1.356 . S
N2274 H2286 0.984 . S
N2274 H2287 0.985 . S
N2275 C2277 1.356 . S
N2275 H2280 0.984 . S
N2275 H2281 0.985 . S
C2276 C2270 1.379 . S
C2276 C2273 1.363 . S
C2276 N2274 1.356 . S
C2277 C2271 1.363 . S
C2277 C2272 1.379 . S
C2277 N2275 1.356 . S
N2278 C2270 1.356 . S
N2278 H2284 0.984 . S
N2278 H2285 0.984 . S
N2279 C2272 1.356 . S
N2279 H2282 0.984 . S
N2279 H2283 0.985 . S
H2280 N2275 0.984 . S
H2281 N2275 0.985 . S
H2282 N2279 0.984 . S
H2283 N2279 0.985 . S
H2284 N2278 0.984 . S
H2285 N2278 0.984 . S
H2286 N2274 0.984 . S
H2287 N2274 0.985 . S
C2288 C2289 1.363 . S
C2288 C2294 1.379 1_455 S
C2288 N2296 1.356 . S
C2289 C2288 1.363 . S
C2289 C2295 1.363 . S
C2290 C2291 1.363 1_455 S
C2290 C2295 1.379 . S
C2290 N2297 1.356 . S
C2291 C2290 1.363 1_655 S
C2291 C2294 1.363 . S
N2292 C2294 1.356 . S
N2292 H2304 0.984 . S
N2292 H2305 0.985 . S
N2293 C2295 1.356 . S
N2293 H2298 0.984 . S
N2293 H2299 0.985 . S
C2294 C2288 1.379 1_655 S
C2294 C2291 1.363 . S
C2294 N2292 1.356 . S
C2295 C2289 1.363 . S
C2295 C2290 1.379 . S
C2295 N2293 1.356 . S
N2296 C2288 1.356 . S
N2296 H2302 0.984 . S
N2296 H2303 0.984 . S
N2297 C2290 1.356 . S
N2297 H2300 0.984 1_455 S
N2297 H2301 0.985 . S
H2298 N2293 0.984 . S
H2299 N2293 0.985 . S
H2300 N2297 0.984 1_655 S
H2301 N2297 0.985 . S
H2302 N2296 0.984 . S
H2303 N2296 0.984 . S
H2304 N2292 0.984 . S
H2305 N2292 0.985 . S
C2306 C2307 1.363 . S
C2306 C2312 1.379 . S
C2306 N2314 1.356 . S
C2307 C2306 1.363 . S
C2307 C2313 1.363 . S
C2308 C2309 1.363 . S
C2308 C2313 1.379 . S
C2308 N2315 1.356 . S
C2309 C2308 1.363 . S
C2309 C2312 1.363 . S
N2310 C2312 1.356 . S
N2310 H2322 0.984 . S
N2310 H2323 0.985 . S
N2311 C2313 1.356 . S
N2311 H2316 0.984 . S
N2311 H2317 0.985 . S
C2312 C2306 1.379 . S
C2312 C2309 1.363 . S
C2312 N2310 1.356 . S
C2313 C2307 1.363 . S
C2313 C2308 1.379 . S
C2313 N2311 1.356 . S
N2314 C2306 1.356 . S
N2314 H2320 0.984 . S
N2314 H2321 0.984 . S
N2315 C2308 1.356 . S
N2315 H2318 0.984 . S
N2315 H2319 0.985 . S
H2316 N2311 0.984 . S
H2317 N2311 0.985 . S
H2318 N2315 0.984 . S
H2319 N2315 0.985 . S
H2320 N2314 0.984 . S
H2321 N2314 0.984 . S
H2322 N2310 0.984 . S
H2323 N2310 0.985 . S
C2324 C2325 1.363 . S
C2324 C2330 1.379 . S
C2324 N2332 1.356 . S
C2325 C2324 1.363 . S
C2325 C2331 1.363 . S
C2326 C2327 1.363 . S
C2326 C2331 1.379 . S
C2326 N2333 1.356 . S
C2327 C2326 1.363 . S
C2327 C2330 1.363 . S
N2328 C2330 1.356 1_556 S
N2328 H2340 0.984 . S
N2328 H2341 0.985 . S
N2329 C2331 1.356 . S
N2329 H2334 0.984 . S
N2329 H2335 0.985 . S
C2330 C2324 1.379 . S
C2330 C2327 1.363 . S
C2330 N2328 1.356 1_554 S
C2331 C2325 1.363 . S
C2331 C2326 1.379 . S
C2331 N2329 1.356 . S
N2332 C2324 1.356 . S
N2332 H2338 0.984 . S
N2332 H2339 0.984 . S
N2333 C2326 1.356 . S
N2333 H2336 0.984 . S
N2333 H2337 0.985 . S
H2334 N2329 0.984 . S
H2335 N2329 0.985 . S
H2336 N2333 0.984 . S
H2337 N2333 0.985 . S
H2338 N2332 0.984 . S
H2339 N2332 0.984 . S
H2340 N2328 0.984 . S
H2341 N2328 0.985 . S
C2342 C2343 1.363 . S
C2342 C2348 1.379 . S
C2342 N2350 1.356 . S
C2343 C2342 1.363 . S
C2343 C2349 1.363 . S
C2344 C2345 1.363 . S
C2344 C2349 1.379 . S
C2344 N2351 1.356 . S
C2345 C2344 1.363 . S
C2345 C2348 1.363 . S
N2346 C2348 1.356 . S
N2346 H2358 0.984 . S
N2346 H2359 0.985 . S
N2347 C2349 1.356 . S
N2347 H2352 0.984 . S
N2347 H2353 0.985 . S
C2348 C2342 1.379 . S
C2348 C2345 1.363 . S
C2348 N2346 1.356 . S
C2349 C2343 1.363 . S
C2349 C2344 1.379 . S
C2349 N2347 1.356 . S
N2350 C2342 1.356 . S
N2350 H2356 0.984 . S
N2350 H2357 0.984 . S
N2351 C2344 1.356 . S
N2351 H2354 0.984 . S
N2351 H2355 0.985 . S
H2352 N2347 0.984 . S
H2353 N2347 0.985 . S
H2354 N2351 0.984 . S
H2355 N2351 0.985 . S
H2356 N2350 0.984 . S
H2357 N2350 0.984 . S
H2358 N2346 0.984 . S
H2359 N2346 0.985 . S
C2360 C2361 1.363 . S
C2360 C2366 1.379 . S
C2360 N2368 1.356 . S
C2361 C2360 1.363 . S
C2361 C2367 1.363 . S
C2362 C2363 1.363 . S
C2362 C2367 1.379 1_655 S
C2362 N2369 1.356 . S
C2363 C2362 1.363 . S
C2363 C2366 1.363 1_655 S
N2364 C2366 1.356 . S
N2364 H2376 0.984 . S
N2364 H2377 0.985 1_455 S
N2365 C2367 1.356 . S
N2365 H2370 0.984 . S
N2365 H2371 0.985 1_455 S
C2366 C2360 1.379 . S
C2366 C2363 1.363 1_455 S
C2366 N2364 1.356 . S
C2367 C2361 1.363 . S
C2367 C2362 1.379 1_455 S
C2367 N2365 1.356 . S
N2368 C2360 1.356 . S
N2368 H2374 0.984 . S
N2368 H2375 0.984 . S
N2369 C2362 1.356 . S
N2369 H2372 0.984 . S
N2369 H2373 0.985 . S
H2370 N2365 0.984 . S
H2371 N2365 0.985 1_655 S
H2372 N2369 0.984 . S
H2373 N2369 0.985 . S
H2374 N2368 0.984 . S
H2375 N2368 0.984 . S
H2376 N2364 0.984 . S
H2377 N2364 0.985 1_655 S
C2378 C2379 1.363 . S
C2378 C2384 1.379 . S
C2378 N2386 1.356 . S
C2379 C2378 1.363 . S
C2379 C2385 1.363 . S
C2380 C2381 1.363 . S
C2380 C2385 1.379 . S
C2380 N2387 1.356 . S
C2381 C2380 1.363 . S
C2381 C2384 1.363 . S
N2382 C2384 1.356 . S
N2382 H2394 0.984 . S
N2382 H2395 0.985 . S
N2383 C2385 1.356 . S
N2383 H2388 0.984 . S
N2383 H2389 0.985 . S
C2384 C2378 1.379 . S
C2384 C2381 1.363 . S
C2384 N2382 1.356 . S
C2385 C2379 1.363 . S
C2385 C2380 1.379 . S
C2385 N2383 1.356 . S
N2386 C2378 1.356 . S
N2386 H2392 0.984 . S
N2386 H2393 0.984 . S
N2387 C2380 1.356 . S
N2387 H2390 0.984 . S
N2387 H2391 0.985 . S
H2388 N2383 0.984 . S
H2389 N2383 0.985 . S
H2390 N2387 0.984 . S
H2391 N2387 0.985 . S
H2392 N2386 0.984 . S
H2393 N2386 0.984 . S
H2394 N2382 0.984 . S
H2395 N2382 0.985 . S
C2396 C2397 1.363 . S
C2396 C2402 1.379 . S
C2396 N2404 1.356 . S
C2397 C2396 1.363 . S
C2397 C2403 1.363 . S
C2398 C2399 1.363 . S
C2398 C2403 1.379 . S
C2398 N2405 1.356 . S
C2399 C2398 1.363 . S
C2399 C2402 1.363 . S
N2400 C2402 1.356 . S
N2400 H2412 0.984 . S
N2400 H2413 0.985 . S
N2401 C2403 1.356 . S
N2401 H2406 0.984 . S
N2401 H2407 0.985 . S
C2402 C2396 1.379 . S
C2402 C2399 1.363 . S
C2402 N2400 1.356 . S
C2403 C2397 1.363 . S
C2403 C2398 1.379 . S
C2403 N2401 1.356 . S
N2404 C2396 1.356 . S
N2404 H2410 0.984 . S
N2404 H2411 0.984 . S
N2405 C2398 1.356 . S
N2405 H2408 0.984 . S
N2405 H2409 0.985 . S
H2406 N2401 0.984 . S
H2407 N2401 0.985 . S
H2408 N2405 0.984 . S
H2409 N2405 0.985 . S
H2410 N2404 0.984 . S
H2411 N2404 0.984 . S
H2412 N2400 0.984 . S
H2413 N2400 0.985 . S
C2414 C2415 1.363 . S
C2414 C2420 1.379 . S
C2414 N2422 1.356 . S
C2415 C2414 1.363 . S
C2415 C2421 1.363 . S
C2416 C2417 1.363 . S
C2416 C2421 1.379 . S
C2416 N2423 1.356 . S
C2417 C2416 1.363 . S
C2417 C2420 1.363 . S
N2418 C2420 1.356 . S
N2418 H2430 0.984 . S
N2418 H2431 0.985 . S
N2419 C2421 1.356 . S
N2419 H2424 0.984 . S
N2419 H2425 0.985 . S
C2420 C2414 1.379 . S
C2420 C2417 1.363 . S
C2420 N2418 1.356 . S
C2421 C2415 1.363 . S
C2421 C2416 1.379 . S
C2421 N2419 1.356 . S
N2422 C2414 1.356 . S
N2422 H2428 0.984 . S
N2422 H2429 0.984 . S
N2423 C2416 1.356 . S
N2423 H2426 0.984 . S
N2423 H2427 0.985 . S
H2424 N2419 0.984 . S
H2425 N2419 0.985 . S
H2426 N2423 0.984 . S
H2427 N2423 0.985 . S
H2428 N2422 0.984 . S
H2429 N2422 0.984 . S
H2430 N2418 0.984 . S
H2431 N2418 0.985 . S
C2432 C2433 1.363 . S
C2432 C2438 1.379 . S
C2432 N2440 1.356 . S
C2433 C2432 1.363 . S
C2433 C2439 1.363 . S
C2434 C2435 1.363 . S
C2434 C2439 1.379 . S
C2434 N2441 1.356 . S
C2435 C2434 1.363 . S
C2435 C2438 1.363 . S
N2436 C2438 1.356 . S
N2436 H2448 0.984 . S
N2436 H2449 0.985 . S
N2437 C2439 1.356 . S
N2437 H2442 0.984 . S
N2437 H2443 0.985 . S
C2438 C2432 1.379 . S
C2438 C2435 1.363 . S
C2438 N2436 1.356 . S
C2439 C2433 1.363 . S
C2439 C2434 1.379 . S
C2439 N2437 1.356 . S
N2440 C2432 1.356 . S
N2440 H2446 0.984 . S
N2440 H2447 0.984 . S
N2441 C2434 1.356 . S
N2441 H2444 0.984 . S
N2441 H2445 0.985 . S
H2442 N2437 0.984 . S
H2443 N2437 0.985 . S
H2444 N2441 0.984 . S
H2445 N2441 0.985 . S
H2446 N2440 0.984 . S
H2447 N2440 0.984 . S
H2448 N2436 0.984 . S
H2449 N2436 0.985 . S
C2450 C2451 1.363 . S
C2450 C2456 1.379 . S
C2450 N2458 1.356 . S
C2451 C2450 1.363 . S
C2451 C2457 1.363 . S
C2452 C2453 1.363 . S
C2452 C2457 1.379 . S
C2452 N2459 1.356 . S
C2453 C2452 1.363 . S
C2453 C2456 1.363 . S
N2454 C2456 1.356 . S
N2454 H2466 0.984 . S
N2454 H2467 0.985 . S
N2455 C2457 1.356 . S
N2455 H2460 0.984 . S
N2455 H2461 0.985 . S
C2456 C2450 1.379 . S
C2456 C2453 1.363 . S
C2456 N2454 1.356 . S
C2457 C2451 1.363 . S
C2457 C2452 1.379 . S
C2457 N2455 1.356 . S
N2458 C2450 1.356 . S
N2458 H2464 0.984 . S
N2458 H2465 0.984 . S
N2459 C2452 1.356 . S
N2459 H2462 0.984 . S
N2459 H2463 0.985 . S
H2460 N2455 0.984 . S
H2461 N2455 0.985 . S
H2462 N2459 0.984 . S
H2463 N2459 0.985 . S
H2464 N2458 0.984 . S
H2465 N2458 0.984 . S
H2466 N2454 0.984 . S
H2467 N2454 0.985 . S
C2468 C2469 1.363 1_455 S
C2468 C2474 1.379 . S
C2468 N2476 1.356 . S
C2469 C2468 1.363 1_655 S
C2469 C2475 1.363 . S
C2470 C2471 1.363 . S
C2470 C2475 1.379 1_455 S
C2470 N2477 1.356 . S
C2471 C2470 1.363 . S
C2471 C2474 1.363 . S
N2472 C2474 1.356 . S
N2472 H2484 0.984 . S
N2472 H2485 0.985 . S
N2473 C2475 1.356 . S
N2473 H2478 0.984 . S
N2473 H2479 0.985 . S
C2474 C2468 1.379 . S
C2474 C2471 1.363 . S
C2474 N2472 1.356 . S
C2475 C2469 1.363 . S
C2475 C2470 1.379 1_655 S
C2475 N2473 1.356 . S
N2476 C2468 1.356 . S
N2476 H2482 0.984 . S
N2476 H2483 0.984 1_455 S
N2477 C2470 1.356 . S
N2477 H2480 0.984 . S
N2477 H2481 0.963 1_455 S
H2478 N2473 0.984 . S
H2479 N2473 0.985 . S
H2480 N2477 0.984 . S
H2481 N2477 0.963 1_655 S
H2482 N2476 0.984 . S
H2483 N2476 0.984 1_655 S
H2484 N2472 0.984 . S
H2485 N2472 0.985 . S
C2486 C2487 1.363 . S
C2486 C2492 1.379 . S
C2486 N2494 1.356 . S
C2487 C2486 1.363 . S
C2487 C2493 1.363 . S
C2488 C2489 1.363 . S
C2488 C2493 1.379 . S
C2488 N2495 1.356 . S
C2489 C2488 1.363 . S
C2489 C2492 1.363 . S
N2490 C2492 1.356 . S
N2490 H2502 0.984 . S
N2490 H2503 0.985 . S
N2491 C2493 1.356 1_556 S
N2491 H2496 0.984 . S
N2491 H2497 0.985 . S
C2492 C2486 1.379 . S
C2492 C2489 1.363 . S
C2492 N2490 1.356 . S
C2493 C2487 1.363 . S
C2493 C2488 1.379 . S
C2493 N2491 1.356 1_554 S
N2494 C2486 1.356 . S
N2494 H2500 0.984 . S
N2494 H2501 0.984 . S
N2495 C2488 1.356 . S
N2495 H2498 0.984 . S
N2495 H2499 0.985 . S
H2496 N2491 0.984 . S
H2497 N2491 0.985 . S
H2498 N2495 0.984 . S
H2499 N2495 0.985 . S
H2500 N2494 0.984 . S
H2501 N2494 0.984 . S
H2502 N2490 0.984 . S
H2503 N2490 0.985 . S
C2504 C2505 1.363 . S
C2504 C2510 1.379 . S
C2504 N2512 1.356 . S
C2505 C2504 1.363 . S
C2505 C2511 1.363 . S
C2506 C2507 1.363 . S
C2506 C2511 1.379 . S
C2506 N2513 1.356 . S
C2507 C2506 1.363 . S
C2507 C2510 1.363 . S
N2508 C2510 1.356 . S
N2508 H2520 0.984 . S
N2508 H2521 0.985 . S
N2509 C2511 1.356 . S
N2509 H2514 0.984 . S
N2509 H2515 0.985 . S
C2510 C2504 1.379 . S
C2510 C2507 1.363 . S
C2510 N2508 1.356 . S
C2511 C2505 1.363 . S
C2511 C2506 1.379 . S
C2511 N2509 1.356 . S
N2512 C2504 1.356 . S
N2512 H2518 0.984 . S
N2512 H2519 0.984 . S
N2513 C2506 1.356 . S
N2513 H2516 0.984 . S
N2513 H2517 0.985 . S
H2514 N2509 0.984 . S
H2515 N2509 0.985 . S
H2516 N2513 0.984 . S
H2517 N2513 0.985 . S
H2518 N2512 0.984 . S
H2519 N2512 0.984 . S
H2520 N2508 0.984 . S
H2521 N2508 0.985 . S
C2522 C2523 1.363 . S
C2522 C2528 1.379 . S
C2522 N2530 1.356 . S
C2523 C2522 1.363 . S
C2523 C2529 1.363 . S
C2524 C2525 1.363 . S
C2524 C2529 1.379 . S
C2524 N2531 1.356 . S
C2525 C2524 1.363 . S
C2525 C2528 1.363 . S
N2526 C2528 1.356 . S
N2526 H2538 0.984 . S
N2526 H2539 0.985 . S
N2527 C2529 1.356 . S
N2527 H2532 0.984 . S
N2527 H2533 0.985 . S
C2528 C2522 1.379 . S
C2528 C2525 1.363 . S
C2528 N2526 1.356 . S
C2529 C2523 1.363 . S
C2529 C2524 1.379 . S
C2529 N2527 1.356 . S
N2530 C2522 1.356 . S
N2530 H2536 0.984 . S
N2530 H2537 0.984 . S
N2531 C2524 1.356 . S
N2531 H2534 0.984 . S
N2531 H2535 0.985 . S
H2532 N2527 0.984 . S
H2533 N2527 0.985 . S
H2534 N2531 0.984 . S
H2535 N2531 0.985 . S
H2536 N2530 0.984 . S
H2537 N2530 0.984 . S
H2538 N2526 0.984 . S
H2539 N2526 0.985 . S
C2540 C2541 1.363 . S
C2540 C2546 1.379 1_455 S
C2540 N2548 1.356 . S
C2541 C2540 1.363 . S
C2541 C2547 1.363 . S
C2542 C2543 1.363 1_455 S
C2542 C2547 1.379 . S
C2542 N2549 1.356 . S
C2543 C2542 1.363 1_655 S
C2543 C2546 1.363 . S
N2544 C2546 1.356 . S
N2544 H2556 0.984 . S
N2544 H2557 0.985 . S
N2545 C2547 1.356 . S
N2545 H2550 0.984 . S
N2545 H2551 0.985 . S
C2546 C2540 1.379 1_655 S
C2546 C2543 1.363 . S
C2546 N2544 1.356 . S
C2547 C2541 1.363 . S
C2547 C2542 1.379 . S
C2547 N2545 1.356 . S
N2548 C2540 1.356 . S
N2548 H2554 0.984 . S
N2548 H2555 0.984 . S
N2549 C2542 1.356 . S
N2549 H2552 0.984 1_455 S
N2549 H2553 0.985 . S
H2550 N2545 0.984 . S
H2551 N2545 0.985 . S
H2552 N2549 0.984 1_655 S
H2553 N2549 0.985 . S
H2554 N2548 0.984 . S
H2555 N2548 0.984 . S
H2556 N2544 0.984 . S
H2557 N2544 0.985 . S
C2558 C2559 1.363 . S
C2558 C2564 1.379 . S
C2558 N2566 1.356 . S
C2559 C2558 1.363 . S
C2559 C2565 1.363 . S
C2560 C2561 1.363 . S
C2560 C2565 1.379 . S
C2560 N2567 1.356 . S
C2561 C2560 1.363 . S
C2561 C2564 1.363 . S
N2562 C2564 1.356 . S
N2562 H2574 0.984 . S
N2562 H2575 0.985 . S
N2563 C2565 1.356 . S
N2563 H2568 0.984 . S
N2563 H2569 0.985 . S
C2564 C2558 1.379 . S
C2564 C2561 1.363 . S
C2564 N2562 1.356 . S
C2565 C2559 1.363 . S
C2565 C2560 1.379 . S
C2565 N2563 1.356 . S
N2566 C2558 1.356 . S
N2566 H2572 0.984 . S
N2566 H2573 0.984 . S
N2567 C2560 1.356 . S
N2567 H2570 0.984 . S
N2567 H2571 0.985 . S
H2568 N2563 0.984 . S
H2569 N2563 0.985 . S
H2570 N2567 0.984 . S
H2571 N2567 0.985 . S
H2572 N2566 0.984 . S
H2573 N2566 0.984 . S
H2574 N2562 0.984 . S
H2575 N2562 0.985 . S
C2576 C2577 1.363 . S
C2576 C2582 1.379 . S
C2576 N2584 1.356 . S
C2577 C2576 1.363 . S
C2577 C2583 1.363 . S
C2578 C2579 1.363 . S
C2578 C2583 1.379 . S
C2578 N2585 1.356 . S
C2579 C2578 1.363 . S
C2579 C2582 1.363 . S
N2580 C2582 1.356 . S
N2580 H2592 0.984 . S
N2580 H2593 0.985 . S
N2581 C2583 1.356 . S
N2581 H2586 0.984 . S
N2581 H2587 0.985 . S
C2582 C2576 1.379 . S
C2582 C2579 1.363 . S
C2582 N2580 1.356 . S
C2583 C2577 1.363 . S
C2583 C2578 1.379 . S
C2583 N2581 1.356 . S
N2584 C2576 1.356 . S
N2584 H2590 0.984 . S
N2584 H2591 0.984 . S
N2585 C2578 1.356 . S
N2585 H2588 0.984 . S
N2585 H2589 0.985 . S
H2586 N2581 0.984 . S
H2587 N2581 0.985 . S
H2588 N2585 0.984 . S
H2589 N2585 0.985 . S
H2590 N2584 0.984 . S
H2591 N2584 0.984 . S
H2592 N2580 0.984 . S
H2593 N2580 0.985 . S
C2594 C2595 1.363 . S
C2594 C2600 1.379 . S
C2594 N2602 1.356 . S
C2595 C2594 1.363 . S
C2595 C2601 1.363 . S
C2596 C2597 1.363 . S
C2596 C2601 1.379 . S
C2596 N2603 1.356 . S
C2597 C2596 1.363 . S
C2597 C2600 1.363 . S
N2598 C2600 1.356 . S
N2598 H2610 0.984 . S
N2598 H2611 0.985 . S
N2599 C2601 1.356 . S
N2599 H2604 0.984 . S
N2599 H2605 0.985 . S
C2600 C2594 1.379 . S
C2600 C2597 1.363 . S
C2600 N2598 1.356 . S
C2601 C2595 1.363 . S
C2601 C2596 1.379 . S
C2601 N2599 1.356 . S
N2602 C2594 1.356 . S
N2602 H2608 0.984 . S
N2602 H2609 0.984 . S
N2603 C2596 1.356 . S
N2603 H2606 0.984 . S
N2603 H2607 0.985 . S
H2604 N2599 0.984 . S
H2605 N2599 0.985 . S
H2606 N2603 0.984 . S
H2607 N2603 0.985 . S
H2608 N2602 0.984 . S
H2609 N2602 0.984 . S
H2610 N2598 0.984 . S
H2611 N2598 0.985 . S
C2612 C2613 1.363 1_655 S
C2612 C2618 1.379 . S
C2612 N2620 1.356 . S
C2613 C2612 1.363 1_455 S
C2613 C2619 1.363 . S
C2614 C2615 1.363 . S
C2614 C2619 1.379 1_655 S
C2614 N2621 1.356 . S
C2615 C2614 1.363 . S
C2615 C2618 1.363 . S
N2616 C2618 1.356 . S
N2616 H2628 0.984 . S
N2616 H2629 0.985 . S
N2617 C2619 1.356 . S
N2617 H2622 0.984 . S
N2617 H2623 0.985 . S
C2618 C2612 1.379 . S
C2618 C2615 1.363 . S
C2618 N2616 1.356 . S
C2619 C2613 1.363 . S
C2619 C2614 1.379 1_455 S
C2619 N2617 1.356 . S
N2620 C2612 1.356 . S
N2620 H2626 0.984 . S
N2620 H2627 0.984 . S
N2621 C2614 1.356 . S
N2621 H2624 0.987 . S
N2621 H2625 0.982 1_655 S
H2622 N2617 0.984 . S
H2623 N2617 0.985 . S
H2624 N2621 0.987 . S
H2625 N2621 0.982 1_455 S
H2626 N2620 0.984 . S
H2627 N2620 0.984 . S
H2628 N2616 0.984 . S
H2629 N2616 0.985 . S
C2630 C2631 1.363 . S
C2630 C2636 1.379 . S
C2630 N2638 1.356 . S
C2631 C2630 1.363 . S
C2631 C2637 1.363 . S
C2632 C2633 1.363 . S
C2632 C2637 1.379 . S
C2632 N2639 1.356 . S
C2633 C2632 1.363 . S
C2633 C2636 1.363 . S
N2634 C2636 1.356 . S
N2634 H2646 0.984 . S
N2634 H2647 0.985 . S
N2635 C2637 1.356 . S
N2635 H2640 0.984 . S
N2635 H2641 0.985 . S
C2636 C2630 1.379 . S
C2636 C2633 1.363 . S
C2636 N2634 1.356 . S
C2637 C2631 1.363 . S
C2637 C2632 1.379 . S
C2637 N2635 1.356 . S
N2638 C2630 1.356 . S
N2638 H2644 0.984 . S
N2638 H2645 0.984 . S
N2639 C2632 1.356 . S
N2639 H2642 0.984 . S
N2639 H2643 0.985 . S
H2640 N2635 0.984 . S
H2641 N2635 0.985 . S
H2642 N2639 0.984 . S
H2643 N2639 0.985 . S
H2644 N2638 0.984 . S
H2645 N2638 0.984 . S
H2646 N2634 0.984 . S
H2647 N2634 0.985 . S
C2648 C2649 1.363 . S
C2648 C2654 1.379 . S
C2648 N2656 1.356 . S
C2649 C2648 1.363 . S
C2649 C2655 1.363 . S
C2650 C2651 1.363 . S
C2650 C2655 1.379 . S
C2650 N2657 1.356 . S
C2651 C2650 1.363 . S
C2651 C2654 1.363 . S
N2652 C2654 1.356 . S
N2652 H2664 0.984 . S
N2652 H2665 0.985 . S
N2653 C2655 1.356 . S
N2653 H2658 0.984 . S
N2653 H2659 0.985 . S
C2654 C2648 1.379 . S
C2654 C2651 1.363 . S
C2654 N2652 1.356 . S
C2655 C2649 1.363 . S
C2655 C2650 1.379 . S
C2655 N2653 1.356 . S
N2656 C2648 1.356 . S
N2656 H2662 0.984 . S
N2656 H2663 0.984 . S
N2657 C2650 1.356 . S
N2657 H2660 0.984 . S
N2657 H2661 0.985 . S
H2658 N2653 0.984 . S
H2659 N2653 0.985 . S
H2660 N2657 0.984 . S
H2661 N2657 0.985 . S
H2662 N2656 0.984 . S
H2663 N2656 0.984 . S
H2664 N2652 0.984 . S
H2665 N2652 0.985 . S
C2666 C2667 1.363 . S
C2666 C2672 1.379 . S
C2666 N2674 1.356 . S
C2667 C2666 1.363 . S
C2667 C2673 1.363 . S
C2668 C2669 1.363 . S
C2668 C2673 1.379 . S
C2668 N2675 1.356 . S
C2669 C2668 1.363 . S
C2669 C2672 1.363 . S
N2670 C2672 1.356 . S
N2670 H2682 0.984 . S
N2670 H2683 0.985 . S
N2671 C2673 1.356 . S
N2671 H2676 0.984 . S
N2671 H2677 0.985 . S
C2672 C2666 1.379 . S
C2672 C2669 1.363 . S
C2672 N2670 1.356 . S
C2673 C2667 1.363 . S
C2673 C2668 1.379 . S
C2673 N2671 1.356 . S
N2674 C2666 1.356 . S
N2674 H2680 0.984 . S
N2674 H2681 0.984 . S
N2675 C2668 1.356 . S
N2675 H2678 0.984 . S
N2675 H2679 0.985 . S
H2676 N2671 0.984 . S
H2677 N2671 0.985 . S
H2678 N2675 0.984 . S
H2679 N2675 0.985 . S
H2680 N2674 0.984 . S
H2681 N2674 0.984 . S
H2682 N2670 0.984 . S
H2683 N2670 0.985 . S
C2684 C2685 1.363 1_655 S
C2684 C2690 1.379 . S
C2684 N2692 1.356 . S
C2685 C2684 1.363 1_455 S
C2685 C2691 1.363 . S
C2686 C2687 1.352 1_455 S
C2686 C2691 1.385 . S
C2686 N2693 1.357 . S
C2687 C2686 1.352 1_655 S
C2687 C2690 1.363 . S
N2688 C2690 1.356 . S
N2688 H2700 0.984 . S
N2688 H2701 0.985 . S
N2689 C2691 1.356 . S
N2689 H2694 0.984 . S
N2689 H2695 0.985 . S
C2690 C2684 1.379 . S
C2690 C2687 1.363 . S
C2690 N2688 1.356 . S
C2691 C2685 1.363 . S
C2691 C2686 1.385 . S
C2691 N2689 1.356 . S
N2692 C2684 1.356 . S
N2692 H2698 0.984 . S
N2692 H2699 0.984 . S
N2693 C2686 1.357 . S
N2693 H2696 0.984 1_455 S
N2693 H2697 0.985 . S
H2694 N2689 0.984 . S
H2695 N2689 0.985 . S
H2696 N2693 0.984 1_655 S
H2697 N2693 0.985 . S
H2698 N2692 0.984 . S
H2699 N2692 0.984 . S
H2700 N2688 0.984 . S
H2701 N2688 0.985 . S
C2702 C2703 1.363 . S
C2702 C2708 1.379 . S
C2702 N2710 1.356 . S
C2703 C2702 1.363 . S
C2703 C2709 1.363 . S
C2704 C2705 1.363 . S
C2704 C2709 1.379 . S
C2704 N2711 1.356 . S
C2705 C2704 1.363 . S
C2705 C2708 1.363 . S
N2706 C2708 1.356 . S
N2706 H2718 0.984 . S
N2706 H2719 0.985 . S
N2707 C2709 1.356 1_556 S
N2707 H2712 0.984 . S
N2707 H2713 0.985 . S
C2708 C2702 1.379 . S
C2708 C2705 1.363 . S
C2708 N2706 1.356 . S
C2709 C2703 1.363 . S
C2709 C2704 1.379 . S
C2709 N2707 1.356 1_554 S
N2710 C2702 1.356 . S
N2710 H2716 0.984 . S
N2710 H2717 0.984 . S
N2711 C2704 1.356 . S
N2711 H2714 0.984 . S
N2711 H2715 0.985 . S
H2712 N2707 0.984 . S
H2713 N2707 0.985 . S
H2714 N2711 0.984 . S
H2715 N2711 0.985 . S
H2716 N2710 0.984 . S
H2717 N2710 0.984 . S
H2718 N2706 0.984 . S
H2719 N2706 0.985 . S
C2720 C2721 1.363 . S
C2720 C2726 1.379 . S
C2720 N2728 1.356 . S
C2721 C2720 1.363 . S
C2721 C2727 1.363 . S
C2722 C2723 1.363 . S
C2722 C2727 1.379 . S
C2722 N2729 1.356 1_556 S
C2723 C2722 1.363 . S
C2723 C2726 1.363 . S
N2724 C2726 1.356 . S
N2724 H2736 0.984 . S
N2724 H2737 0.985 . S
N2725 C2727 1.356 . S
N2725 H2730 0.984 . S
N2725 H2731 0.985 . S
C2726 C2720 1.379 . S
C2726 C2723 1.363 . S
C2726 N2724 1.356 . S
C2727 C2721 1.363 . S
C2727 C2722 1.379 . S
C2727 N2725 1.356 . S
N2728 C2720 1.356 . S
N2728 H2734 0.984 . S
N2728 H2735 0.984 . S
N2729 C2722 1.356 1_554 S
N2729 H2732 0.984 . S
N2729 H2733 0.985 . S
H2730 N2725 0.984 . S
H2731 N2725 0.985 . S
H2732 N2729 0.984 . S
H2733 N2729 0.985 . S
H2734 N2728 0.984 . S
H2735 N2728 0.984 . S
H2736 N2724 0.984 . S
H2737 N2724 0.985 . S
C2738 C2739 1.363 . S
C2738 C2744 1.379 . S
C2738 N2746 1.356 . S
C2739 C2738 1.363 . S
C2739 C2745 1.363 . S
C2740 C2741 1.363 . S
C2740 C2745 1.379 . S
C2740 N2747 1.356 . S
C2741 C2740 1.363 . S
C2741 C2744 1.363 . S
N2742 C2744 1.356 . S
N2742 H2754 0.984 . S
N2742 H2755 0.985 . S
N2743 C2745 1.356 . S
N2743 H2748 0.984 . S
N2743 H2749 0.985 . S
C2744 C2738 1.379 . S
C2744 C2741 1.363 . S
C2744 N2742 1.356 . S
C2745 C2739 1.363 . S
C2745 C2740 1.379 . S
C2745 N2743 1.356 . S
N2746 C2738 1.356 . S
N2746 H2752 0.984 . S
N2746 H2753 0.984 . S
N2747 C2740 1.356 . S
N2747 H2750 0.984 . S
N2747 H2751 0.985 . S
H2748 N2743 0.984 . S
H2749 N2743 0.985 . S
H2750 N2747 0.984 . S
H2751 N2747 0.985 . S
H2752 N2746 0.984 . S
H2753 N2746 0.984 . S
H2754 N2742 0.984 . S
H2755 N2742 0.985 . S
C2756 C2757 1.363 . S
C2756 C2762 1.379 . S
C2756 N2764 1.356 . S
C2757 C2756 1.363 . S
C2757 C2763 1.363 . S
C2758 C2759 1.363 . S
C2758 C2763 1.379 . S
C2758 N2765 1.356 . S
C2759 C2758 1.363 . S
C2759 C2762 1.363 . S
N2760 C2762 1.356 . S
N2760 H2772 0.984 . S
N2760 H2773 0.985 . S
N2761 C2763 1.356 . S
N2761 H2766 0.984 . S
N2761 H2767 0.985 . S
C2762 C2756 1.379 . S
C2762 C2759 1.363 . S
C2762 N2760 1.356 . S
C2763 C2757 1.363 . S
C2763 C2758 1.379 . S
C2763 N2761 1.356 . S
N2764 C2756 1.356 . S
N2764 H2770 0.984 . S
N2764 H2771 0.984 . S
N2765 C2758 1.356 . S
N2765 H2768 0.984 . S
N2765 H2769 0.985 . S
H2766 N2761 0.984 . S
H2767 N2761 0.985 . S
H2768 N2765 0.984 . S
H2769 N2765 0.985 . S
H2770 N2764 0.984 . S
H2771 N2764 0.984 . S
H2772 N2760 0.984 . S
H2773 N2760 0.985 . S
C2774 C2775 1.363 . S
C2774 C2780 1.379 . S
C2774 N2782 1.356 . S
C2775 C2774 1.363 . S
C2775 C2781 1.363 . S
C2776 C2777 1.363 . S
C2776 C2781 1.379 . S
C2776 N2783 1.356 . S
C2777 C2776 1.363 . S
C2777 C2780 1.363 . S
N2778 C2780 1.356 . S
N2778 H2790 0.984 . S
N2778 H2791 0.985 . S
N2779 C2781 1.356 . S
N2779 H2784 0.984 . S
N2779 H2785 0.985 . S
C2780 C2774 1.379 . S
C2780 C2777 1.363 . S
C2780 N2778 1.356 . S
C2781 C2775 1.363 . S
C2781 C2776 1.379 . S
C2781 N2779 1.356 . S
N2782 C2774 1.356 . S
N2782 H2788 0.984 . S
N2782 H2789 0.984 . S
N2783 C2776 1.356 . S
N2783 H2786 0.984 . S
N2783 H2787 0.985 . S
H2784 N2779 0.984 . S
H2785 N2779 0.985 . S
H2786 N2783 0.984 . S
H2787 N2783 0.985 . S
H2788 N2782 0.984 . S
H2789 N2782 0.984 . S
H2790 N2778 0.984 . S
H2791 N2778 0.985 . S
C2792 C2793 1.363 . S
C2792 C2798 1.379 . S
C2792 N2800 1.356 . S
C2793 C2792 1.363 . S
C2793 C2799 1.363 . S
C2794 C2795 1.363 . S
C2794 C2799 1.379 . S
C2794 N2801 1.356 . S
C2795 C2794 1.363 . S
C2795 C2798 1.363 . S
N2796 C2798 1.356 . S
N2796 H2808 0.984 . S
N2796 H2809 0.985 . S
N2797 C2799 1.356 . S
N2797 H2802 0.984 . S
N2797 H2803 0.985 . S
C2798 C2792 1.379 . S
C2798 C2795 1.363 . S
C2798 N2796 1.356 . S
C2799 C2793 1.363 . S
C2799 C2794 1.379 . S
C2799 N2797 1.356 . S
N2800 C2792 1.356 . S
N2800 H2806 0.984 . S
N2800 H2807 0.984 . S
N2801 C2794 1.356 . S
N2801 H2804 0.984 . S
N2801 H2805 0.985 . S
H2802 N2797 0.984 . S
H2803 N2797 0.985 . S
H2804 N2801 0.984 . S
H2805 N2801 0.985 . S
H2806 N2800 0.984 . S
H2807 N2800 0.984 . S
H2808 N2796 0.984 . S
H2809 N2796 0.985 . S
C2810 C2811 1.363 . S
C2810 C2816 1.379 . S
C2810 N2818 1.356 . S
C2811 C2810 1.363 . S
C2811 C2817 1.363 . S
C2812 C2813 1.363 . S
C2812 C2817 1.379 . S
C2812 N2819 1.356 . S
C2813 C2812 1.363 . S
C2813 C2816 1.363 . S
N2814 C2816 1.356 . S
N2814 H2826 0.984 . S
N2814 H2827 0.985 . S
N2815 C2817 1.356 . S
N2815 H2820 0.984 . S
N2815 H2821 0.985 . S
C2816 C2810 1.379 . S
C2816 C2813 1.363 . S
C2816 N2814 1.356 . S
C2817 C2811 1.363 . S
C2817 C2812 1.379 . S
C2817 N2815 1.356 . S
N2818 C2810 1.356 . S
N2818 H2824 0.984 . S
N2818 H2825 0.984 . S
N2819 C2812 1.356 . S
N2819 H2822 0.984 . S
N2819 H2823 0.985 . S
H2820 N2815 0.984 . S
H2821 N2815 0.985 . S
H2822 N2819 0.984 . S
H2823 N2819 0.985 . S
H2824 N2818 0.984 . S
H2825 N2818 0.984 . S
H2826 N2814 0.984 . S
H2827 N2814 0.985 . S
C2828 C2829 1.363 . S
C2828 C2834 1.379 . S
C2828 N2836 1.356 . S
C2829 C2828 1.363 . S
C2829 C2835 1.363 . S
C2830 C2831 1.363 . S
C2830 C2835 1.379 . S
C2830 N2837 1.356 . S
C2831 C2830 1.363 . S
C2831 C2834 1.363 . S
N2832 C2834 1.356 1_554 S
N2832 H2844 0.984 . S
N2832 H2845 0.985 . S
N2833 C2835 1.356 . S
N2833 H2838 0.984 . S
N2833 H2839 0.985 . S
C2834 C2828 1.379 . S
C2834 C2831 1.363 . S
C2834 N2832 1.356 1_556 S
C2835 C2829 1.363 . S
C2835 C2830 1.379 . S
C2835 N2833 1.356 . S
N2836 C2828 1.356 . S
N2836 H2842 0.984 . S
N2836 H2843 0.984 . S
N2837 C2830 1.356 . S
N2837 H2840 0.984 1_556 S
N2837 H2841 0.985 . S
H2838 N2833 0.984 . S
H2839 N2833 0.985 . S
H2840 N2837 0.984 1_554 S
H2841 N2837 0.985 . S
H2842 N2836 0.984 . S
H2843 N2836 0.984 . S
H2844 N2832 0.984 . S
H2845 N2832 0.985 . S
C2846 C2847 1.363 . S
C2846 C2852 1.379 . S
C2846 N2854 1.356 . S
C2847 C2846 1.363 . S
C2847 C2853 1.363 . S
C2848 C2849 1.363 . S
C2848 C2853 1.379 . S
C2848 N2855 1.356 . S
C2849 C2848 1.363 . S
C2849 C2852 1.363 . S
N2850 C2852 1.356 . S
N2850 H2862 0.984 . S
N2850 H2863 0.985 . S
N2851 C2853 1.356 . S
N2851 H2856 0.984 . S
N2851 H2857 0.985 . S
C2852 C2846 1.379 . S
C2852 C2849 1.363 . S
C2852 N2850 1.356 . S
C2853 C2847 1.363 . S
C2853 C2848 1.379 . S
C2853 N2851 1.356 . S
N2854 C2846 1.356 . S
N2854 H2860 0.984 . S
N2854 H2861 0.984 . S
N2855 C2848 1.356 . S
N2855 H2858 0.984 . S
N2855 H2859 0.985 . S
H2856 N2851 0.984 . S
H2857 N2851 0.985 . S
H2858 N2855 0.984 . S
H2859 N2855 0.985 . S
H2860 N2854 0.984 . S
H2861 N2854 0.984 . S
H2862 N2850 0.984 . S
H2863 N2850 0.985 . S
C2864 C2865 1.363 . S
C2864 C2870 1.379 . S
C2864 N2872 1.356 . S
C2865 C2864 1.363 . S
C2865 C2871 1.363 1_565 S
C2866 C2867 1.363 . S
C2866 C2871 1.379 . S
C2866 N2873 1.356 . S
C2867 C2866 1.363 . S
C2867 C2870 1.363 1_545 S
N2868 C2870 1.356 . S
N2868 H2880 0.984 . S
N2868 H2881 0.985 1_565 S
N2869 C2871 1.356 . S
N2869 H2874 0.984 1_545 S
N2869 H2875 0.985 . S
C2870 C2864 1.379 . S
C2870 C2867 1.363 1_565 S
C2870 N2868 1.356 . S
C2871 C2865 1.363 1_545 S
C2871 C2866 1.379 . S
C2871 N2869 1.356 . S
N2872 C2864 1.356 . S
N2872 H2878 0.984 . S
N2872 H2879 0.984 . S
N2873 C2866 1.356 . S
N2873 H2876 0.984 . S
N2873 H2877 0.985 . S
H2874 N2869 0.984 1_565 S
H2875 N2869 0.985 . S
H2876 N2873 0.984 . S
H2877 N2873 0.985 . S
H2878 N2872 0.984 . S
H2879 N2872 0.984 . S
H2880 N2868 0.984 . S
H2881 N2868 0.985 1_545 S
C2882 C2883 1.363 . S
C2882 C2888 1.379 . S
C2882 N2890 1.356 . S
C2883 C2882 1.363 . S
C2883 C2889 1.363 . S
C2884 C2885 1.363 . S
C2884 C2889 1.379 . S
C2884 N2891 1.356 . S
C2885 C2884 1.363 . S
C2885 C2888 1.363 . S
N2886 C2888 1.356 . S
N2886 H2898 0.984 . S
N2886 H2899 0.985 . S
N2887 C2889 1.356 . S
N2887 H2892 0.984 . S
N2887 H2893 0.985 . S
C2888 C2882 1.379 . S
C2888 C2885 1.363 . S
C2888 N2886 1.356 . S
C2889 C2883 1.363 . S
C2889 C2884 1.379 . S
C2889 N2887 1.356 . S
N2890 C2882 1.356 . S
N2890 H2896 0.984 . S
N2890 H2897 0.984 . S
N2891 C2884 1.356 . S
N2891 H2894 0.984 . S
N2891 H2895 0.985 . S
H2892 N2887 0.984 . S
H2893 N2887 0.985 . S
H2894 N2891 0.984 . S
H2895 N2891 0.985 . S
H2896 N2890 0.984 . S
H2897 N2890 0.984 . S
H2898 N2886 0.984 . S
H2899 N2886 0.985 . S
C2900 C2901 1.363 . S
C2900 C2906 1.379 . S
C2900 N2908 1.356 . S
C2901 C2900 1.363 . S
C2901 C2907 1.363 1_545 S
C2902 C2903 1.363 . S
C2902 C2907 1.379 . S
C2902 N2909 1.356 . S
C2903 C2902 1.363 . S
C2903 C2906 1.363 1_565 S
N2904 C2906 1.356 1_565 S
N2904 H2916 0.982 1_565 S
N2904 H2917 0.988 . S
N2905 C2907 1.356 1_544 S
N2905 H2910 0.987 . S
N2905 H2911 0.982 1_545 S
C2906 C2900 1.379 . S
C2906 C2903 1.363 1_545 S
C2906 N2904 1.356 1_545 S
C2907 C2901 1.363 1_565 S
C2907 C2902 1.379 . S
C2907 N2905 1.356 1_566 S
N2908 C2900 1.356 . S
N2908 H2914 0.984 . S
N2908 H2915 0.984 . S
N2909 C2902 1.356 . S
N2909 H2912 0.984 . S
N2909 H2913 0.985 . S
H2910 N2905 0.987 . S
H2911 N2905 0.982 1_565 S
H2912 N2909 0.984 . S
H2913 N2909 0.985 . S
H2914 N2908 0.984 . S
H2915 N2908 0.984 . S
H2916 N2904 0.982 1_545 S
H2917 N2904 0.988 . S
C2918 C2919 1.363 . S
C2918 C2924 1.379 . S
C2918 N2926 1.356 . S
C2919 C2918 1.363 . S
C2919 C2925 1.363 . S
C2920 C2921 1.363 . S
C2920 C2925 1.379 . S
C2920 N2927 1.356 . S
C2921 C2920 1.363 . S
C2921 C2924 1.363 . S
N2922 C2924 1.356 . S
N2922 H2934 0.984 . S
N2922 H2935 0.985 . S
N2923 C2925 1.356 . S
N2923 H2928 0.984 . S
N2923 H2929 0.985 . S
C2924 C2918 1.379 . S
C2924 C2921 1.363 . S
C2924 N2922 1.356 . S
C2925 C2919 1.363 . S
C2925 C2920 1.379 . S
C2925 N2923 1.356 . S
N2926 C2918 1.356 . S
N2926 H2932 0.984 . S
N2926 H2933 0.984 . S
N2927 C2920 1.356 . S
N2927 H2930 0.984 . S
N2927 H2931 0.985 . S
H2928 N2923 0.984 . S
H2929 N2923 0.985 . S
H2930 N2927 0.984 . S
H2931 N2927 0.985 . S
H2932 N2926 0.984 . S
H2933 N2926 0.984 . S
H2934 N2922 0.984 . S
H2935 N2922 0.985 . S
C2936 C2937 1.363 . S
C2936 C2942 1.379 1_565 S
C2936 N2944 1.356 1_556 S
C2937 C2936 1.363 . S
C2937 C2943 1.363 . S
C2938 C2939 1.363 . S
C2938 C2943 1.379 1_545 S
C2938 N2945 1.356 . S
C2939 C2938 1.363 . S
C2939 C2942 1.363 . S
N2940 C2942 1.356 . S
N2940 H2952 0.984 . S
N2940 H2953 0.985 . S
N2941 C2943 1.356 . S
N2941 H2946 0.984 1_556 S
N2941 H2947 0.985 . S
C2942 C2936 1.379 1_545 S
C2942 C2939 1.363 . S
C2942 N2940 1.356 . S
C2943 C2937 1.363 . S
C2943 C2938 1.379 1_565 S
C2943 N2941 1.356 . S
N2944 C2936 1.356 1_554 S
N2944 H2950 0.984 . S
N2944 H2951 0.984 . S
N2945 C2938 1.356 . S
N2945 H2948 0.984 . S
N2945 H2949 0.985 . S
H2946 N2941 0.984 1_554 S
H2947 N2941 0.985 . S
H2948 N2945 0.984 . S
H2949 N2945 0.985 . S
H2950 N2944 0.984 . S
H2951 N2944 0.984 . S
H2952 N2940 0.984 . S
H2953 N2940 0.985 . S
C2954 C2955 1.363 . S
C2954 C2960 1.379 . S
C2954 N2962 1.356 . S
C2955 C2954 1.363 . S
C2955 C2961 1.363 . S
C2956 C2957 1.363 . S
C2956 C2961 1.379 . S
C2956 N2963 1.356 . S
C2957 C2956 1.363 . S
C2957 C2960 1.363 . S
N2958 C2960 1.356 . S
N2958 H2970 0.984 . S
N2958 H2971 0.985 . S
N2959 C2961 1.356 . S
N2959 H2964 0.984 . S
N2959 H2965 0.985 . S
C2960 C2954 1.379 . S
C2960 C2957 1.363 . S
C2960 N2958 1.356 . S
C2961 C2955 1.363 . S
C2961 C2956 1.379 . S
C2961 N2959 1.356 . S
N2962 C2954 1.356 . S
N2962 H2968 0.984 . S
N2962 H2969 0.984 . S
N2963 C2956 1.356 . S
N2963 H2966 0.984 . S
N2963 H2967 0.985 . S
H2964 N2959 0.984 . S
H2965 N2959 0.985 . S
H2966 N2963 0.984 . S
H2967 N2963 0.985 . S
H2968 N2962 0.984 . S
H2969 N2962 0.984 . S
H2970 N2958 0.984 . S
H2971 N2958 0.985 . S
C2972 C2973 1.363 . S
C2972 C2978 1.379 . S
C2972 N2980 1.356 . S
C2973 C2972 1.363 . S
C2973 C2979 1.363 1_565 S
C2974 C2975 1.363 . S
C2974 C2979 1.379 . S
C2974 N2981 1.356 . S
C2975 C2974 1.363 . S
C2975 C2978 1.363 1_545 S
N2976 C2978 1.356 . S
N2976 H2988 0.984 . S
N2976 H2989 0.985 1_565 S
N2977 C2979 1.356 . S
N2977 H2982 0.984 1_545 S
N2977 H2983 0.985 . S
C2978 C2972 1.379 . S
C2978 C2975 1.363 1_565 S
C2978 N2976 1.356 . S
C2979 C2973 1.363 1_545 S
C2979 C2974 1.379 . S
C2979 N2977 1.356 . S
N2980 C2972 1.356 . S
N2980 H2986 0.984 . S
N2980 H2987 0.984 . S
N2981 C2974 1.356 . S
N2981 H2984 0.984 . S
N2981 H2985 0.985 . S
H2982 N2977 0.984 1_565 S
H2983 N2977 0.985 . S
H2984 N2981 0.984 . S
H2985 N2981 0.985 . S
H2986 N2980 0.984 . S
H2987 N2980 0.984 . S
H2988 N2976 0.984 . S
H2989 N2976 0.985 1_545 S
C2990 C2991 1.363 . S
C2990 C2996 1.379 . S
C2990 N2998 1.356 . S
C2991 C2990 1.363 . S
C2991 C2997 1.363 . S
C2992 C2993 1.363 . S
C2992 C2997 1.379 . S
C2992 N2999 1.356 . S
C2993 C2992 1.363 . S
C2993 C2996 1.363 . S
N2994 C2996 1.356 . S
N2994 H3006 0.984 . S
N2994 H3007 0.985 . S
N2995 C2997 1.356 . S
N2995 H3000 0.984 . S
N2995 H3001 0.985 . S
C2996 C2990 1.379 . S
C2996 C2993 1.363 . S
C2996 N2994 1.356 . S
C2997 C2991 1.363 . S
C2997 C2992 1.379 . S
C2997 N2995 1.356 . S
N2998 C2990 1.356 . S
N2998 H3004 0.984 . S
N2998 H3005 0.984 . S
N2999 C2992 1.356 . S
N2999 H3002 0.984 . S
N2999 H3003 0.985 . S
H3000 N2995 0.984 . S
H3001 N2995 0.985 . S
H3002 N2999 0.984 . S
H3003 N2999 0.985 . S
H3004 N2998 0.984 . S
H3005 N2998 0.984 . S
H3006 N2994 0.984 . S
H3007 N2994 0.985 . S
C1281 C15 1.074 . S
C1283 C175 1.074 . S
C1299 C215 1.071 . S
C1301 C55 1.072 . S
C1317 C95 1.074 . S
C1319 C255 1.074 . S
C1335 C295 1.071 . S
C1337 C135 1.071 . S
C1353 C326 1.074 . S
C1355 C486 1.074 . S
C1371 C366 1.072 . S
C1373 C526 1.072 . S
C1389 C566 1.074 . S
C1391 C406 1.074 . S
C1407 C446 1.071 . S
C1409 C606 1.071 . S
C1425 C815 1.074 . S
C1427 C655 1.074 . S
C1443 C695 1.071 . S
C1445 C855 1.071 . S
C1461 C735 1.074 . S
C1463 C895 1.074 . S
C1479 C775 1.072 . S
C1481 C935 1.071 . S
C1497 C966 1.074 . S
C1499 C1126 1.074 . S
C1515 C1166 1.071 . S
C1517 C1006 1.071 . S
C1533 C1046 1.074 . S
C1535 C1206 1.074 . S
C1551 C1246 1.072 . S
C1553 C1086 1.072 . S
C1569 C849 3.181 . S
C1571 C9 3.181 . S
C1587 C889 3.181 . S
C1589 C49 3.180 . S
C1605 C929 3.181 . S
C1607 C89 3.181 . S
C1623 C129 3.181 1_554 S
C1625 C809 3.181 . S
C1641 C169 3.181 . S
C1643 C769 3.180 . S
C1659 C649 3.181 . S
C1661 C209 3.181 . S
C1677 C249 3.181 . S
C1679 C689 3.181 1_554 S
C1695 C289 3.181 . S
C1697 C729 3.181 . S
C1713 C338 3.181 . S
C1715 C1178 3.181 1_554 S
C1731 C1218 3.181 . S
C1733 C378 3.181 . S
C1749 C1258 3.180 . S
C1751 C418 3.181 . S
C1767 C458 3.181 . S
C1769 C1138 3.181 . S
C1785 C498 3.181 . S
C1787 C1098 3.181 . S
C1803 C538 3.180 . S
C1805 C978 3.181 . S
C1821 C578 3.181 . S
C1823 C1018 3.181 . S
C1839 C618 3.181 1_554 S
C1841 C1058 3.181 . S
C1857 C329 1.483 . S
C1859 C18 1.483 . S
C1875 C58 1.483 . S
C1877 C1009 1.483 . S
C1893 C409 1.483 . S
C1895 C98 1.483 . S
C1911 C138 1.483 . S
C1913 C1089 1.487 . S
C1929 C489 1.483 . S
C1931 C178 1.483 . S
C1947 C1169 1.483 . S
C1949 C218 1.487 . S
C1965 C258 1.483 . S
C1967 C569 1.483 . S
C1983 C298 1.483 . S
C1985 C1249 1.483 . S
C2001 C698 1.483 . S
C2003 C369 1.487 . S
C2019 C778 1.483 . S
C2021 C449 1.483 . S
C2037 C529 1.483 . S
C2039 C858 1.483 . S
C2055 C938 1.487 . S
C2057 C609 1.483 . S
C2073 C969 1.483 . S
C2075 C658 1.483 . S
C2091 C1049 1.483 . S
C2093 C738 1.483 . S
C2109 C1129 1.483 . S
C2111 C818 1.483 . S
C2127 C898 1.483 . S
C2129 C1209 1.483 . S
C2145 C6 1.614 . S
C2147 C490 1.746 . S
C2163 C1170 1.744 1_554 S
C2165 C46 1.613 . S
C2181 C570 1.746 . S
C2183 C86 1.614 . S
C2199 C126 1.613 . S
C2201 C1250 1.744 . S
C2217 C330 1.746 . S
C2219 C166 1.614 . S
C2235 C1010 1.744 . S
C2237 C206 1.613 . S
C2253 C410 1.746 . S
C2255 C246 1.614 . S
C2271 C1090 1.744 . S
C2273 C286 1.613 . S
C2289 C179 1.746 . S
C2291 C335 1.614 . S
C2307 C859 1.744 . S
C2309 C375 1.613 . S
C2325 C259 1.746 . S
C2327 C415 1.614 . S
C2343 C455 1.613 . S
C2345 C939 1.744 . S
C2361 C19 1.746 . S
C2363 C495 1.614 . S
C2379 C699 1.744 1_554 S
C2381 C535 1.613 . S
C2397 C575 1.614 . S
C2399 C99 1.746 . S
C2415 C615 1.613 . S
C2417 C779 1.744 . S
C2433 C1130 1.746 . S
C2435 C646 1.614 . S
C2451 C530 1.744 . S
C2453 C686 1.613 . S
C2469 C726 1.614 . S
C2471 C1210 1.746 . S
C2487 C610 1.744 1_554 S
C2489 C766 1.613 . S
C2505 C806 1.614 . S
C2507 C970 1.746 . S
C2523 C846 1.613 . S
C2525 C370 1.744 . S
C2541 C1050 1.746 . S
C2543 C886 1.614 . S
C2559 C450 1.744 . S
C2561 C926 1.613 . S
C2577 C975 1.614 . S
C2579 C819 1.746 . S
C2595 C1015 1.613 . S
C2597 C219 1.744 . S
C2613 C1055 1.614 . S
C2615 C899 1.746 . S
C2631 C1095 1.613 . S
C2633 C299 1.744 . S
C2649 C659 1.746 . S
C2651 C1135 1.614 . S
C2667 C59 1.744 . S
C2669 C1175 1.613 . S
C2685 C1215 1.614 . S
C2687 C739 1.746 . S
C2703 C139 1.744 1_554 S
C2705 C1255 1.613 . S
C2721 C170 3.485 . S
C2723 C10 3.485 1_556 S
C2739 C210 3.486 . S
C2741 C50 3.486 . S
C2757 C90 3.485 . S
C2759 C250 3.485 . S
C2775 C290 3.486 . S
C2777 C130 3.486 . S
C2793 C499 3.485 . S
C2795 C339 3.485 . S
C2811 C379 3.486 . S
C2813 C539 3.486 . S
C2829 C419 3.485 . S
C2831 C579 3.485 1_556 S
C2847 C619 3.486 . S
C2849 C459 3.486 . S
C2865 C650 3.485 . S
C2867 C810 3.485 . S
C2883 C850 3.486 . S
C2885 C690 3.486 . S
C2901 C730 3.485 1_556 S
C2903 C890 3.485 . S
C2919 C770 3.486 . S
C2921 C930 3.486 . S
C2937 C1139 3.485 1_556 S
C2939 C979 3.485 . S
C2955 C1179 3.486 . S
C2957 C1019 3.486 . S
C2973 C1059 3.485 . S
C2975 C1219 3.485 . S
C2991 C1259 3.486 . S
C2993 C1099 3.486 . S
