# Generated by pormake.
# Topology smu, (6)-cn, num edge types: 1
# Building blocks:
#     Node 0, Type 0, BuildingBlock: MIFKUJ_clean_sbu_0, # of connection points: 6
#     Node 1, Type 0, BuildingBlock: MIFKUJ_clean_sbu_0, # of connection points: 6
#     Node 2, Type 0, BuildingBlock: MIFKUJ_clean_sbu_0, # of connection points: 6
#     Node 3, Type 0, BuildingBlock: MIFKUJ_clean_sbu_0, # of connection points: 6
#     Node 4, Type 0, BuildingBlock: MIFKUJ_clean_sbu_0, # of connection points: 6
#     Node 5, Type 0, BuildingBlock: MIFKUJ_clean_sbu_0, # of connection points: 6
#     Edge 6, Type (0, 0), BuildingBlock: UVAHIK_clean_linker_0, # of connection points: 2
#     Edge 7, Type (0, 0), BuildingBlock: UVAHIK_clean_linker_0, # of connection points: 2
#     Edge 8, Type (0, 0), BuildingBlock: UVAHIK_clean_linker_0, # of connection points: 2
#     Edge 9, Type (0, 0), BuildingBlock: UVAHIK_clean_linker_0, # of connection points: 2
#     Edge 10, Type (0, 0), BuildingBlock: UVAHIK_clean_linker_0, # of connection points: 2
#     Edge 11, Type (0, 0), BuildingBlock: UVAHIK_clean_linker_0, # of connection points: 2
#     Edge 12, Type (0, 0), BuildingBlock: UVAHIK_clean_linker_0, # of connection points: 2
#     Edge 13, Type (0, 0), BuildingBlock: UVAHIK_clean_linker_0, # of connection points: 2
#     Edge 14, Type (0, 0), BuildingBlock: UVAHIK_clean_linker_0, # of connection points: 2
#     Edge 15, Type (0, 0), BuildingBlock: UVAHIK_clean_linker_0, # of connection points: 2
#     Edge 16, Type (0, 0), BuildingBlock: UVAHIK_clean_linker_0, # of connection points: 2
#     Edge 17, Type (0, 0), BuildingBlock: UVAHIK_clean_linker_0, # of connection points: 2
#     Edge 18, Type (0, 0), BuildingBlock: UVAHIK_clean_linker_0, # of connection points: 2
#     Edge 19, Type (0, 0), BuildingBlock: UVAHIK_clean_linker_0, # of connection points: 2
#     Edge 20, Type (0, 0), BuildingBlock: UVAHIK_clean_linker_0, # of connection points: 2
#     Edge 21, Type (0, 0), BuildingBlock: UVAHIK_clean_linker_0, # of connection points: 2
#     Edge 22, Type (0, 0), BuildingBlock: UVAHIK_clean_linker_0, # of connection points: 2
#     Edge 23, Type (0, 0), BuildingBlock: UVAHIK_clean_linker_0, # of connection points: 2
# Relax obj value: 0.224
# Max RMSD: 0.284
# Mean RMSD: 0.284
data_MOF--net-smu--node1-MIFKUJ_clean_sbu_0--edge1-UVAHIK_clean_linker_0
_symmetry_space_group_name_H-M    P1
_symmetry_Int_Tables_number       1
_symmetry_cell_setting            triclinic
loop_
_symmetry_equiv_pos_as_xyz
'x, y, z'
_cell_length_a     42.096691
_cell_length_b     42.178512
_cell_length_c     35.986479
_cell_angle_alpha  90.016455
_cell_angle_beta   89.939373
_cell_angle_gamma 120.57501
loop_
_atom_site_label
_atom_site_type_symbol
_atom_site_fract_x
_atom_site_fract_y
_atom_site_fract_z
_atom_type_partial_charge
Zn0 Zn 0.28118 0.07016 0.25345 0.0
Zn1 Zn 0.388 0.12203 0.24827 0.0
C2 C 0.27172 0.13078 0.2678 0.0
O3 O 0.2703 0.11928 0.30202 0.0
C4 C 0.45383 0.12491 0.22129 0.0
O5 O 0.44113 0.12824 0.1891 0.0
O6 O 0.22727 0.02986 0.25899 0.0
O7 O 0.30034 0.05546 0.20992 0.0
O8 O 0.36151 0.08736 0.20584 0.0
C9 C 0.20679 0.01715 0.23039 0.0
O10 O 0.22108 0.03036 0.19756 0.0
O11 O 0.27969 0.11571 0.24175 0.0
C12 C 0.41699 0.19844 0.26399 0.0
O13 O 0.419 0.18676 0.29726 0.0
O14 O 0.4022 0.17499 0.23791 0.0
O15 O 0.36636 0.1044 0.29915 0.0
O16 O 0.30508 0.0736 0.30262 0.0
O17 O 0.43611 0.1227 0.25073 0.0
C18 C 0.33012 0.06328 0.19336 0.0
C19 C 0.33662 0.08694 0.3177 0.0
Zn20 Zn 0.74054 0.71008 0.23534 0.0
Zn21 Zn 0.75485 0.64361 0.23181 0.0
C22 C 0.81578 0.75677 0.25871 0.0
O23 O 0.79869 0.76037 0.28755 0.0
C24 C 0.68991 0.57732 0.20791 0.0
O25 O 0.70979 0.58501 0.17749 0.0
O26 O 0.72968 0.75131 0.23859 0.0
O27 O 0.71717 0.68187 0.18955 0.0
O28 O 0.76114 0.6689 0.18208 0.0
C29 C 0.72807 0.76748 0.20946 0.0
O30 O 0.73211 0.75599 0.17683 0.0
O31 O 0.7966 0.73532 0.23245 0.0
C32 C 0.78573 0.60169 0.25637 0.0
O33 O 0.76783 0.6009 0.28662 0.0
O34 O 0.78561 0.62016 0.22859 0.0
O35 O 0.76724 0.67014 0.28148 0.0
O36 O 0.72082 0.67998 0.28098 0.0
O37 O 0.70268 0.59964 0.23513 0.0
C38 C 0.73598 0.6736 0.1685 0.0
C39 C 0.742 0.67224 0.29862 0.0
Zn40 Zn 0.91974 0.20209 0.24571 0.0
Zn41 Zn 0.88077 0.25739 0.24654 0.0
C42 C 0.8521 0.13649 0.2642 0.0
O43 O 0.86543 0.14637 0.29795 0.0
C44 C 0.85852 0.30703 0.21932 0.0
O45 O 0.86187 0.29482 0.18682 0.0
O46 O 0.95642 0.18526 0.24714 0.0
O47 O 0.93785 0.2368 0.20241 0.0
O48 O 0.91525 0.27395 0.20315 0.0
C49 C 0.96888 0.17913 0.21754 0.0
O50 O 0.95426 0.1796 0.18546 0.0
O51 O 0.86973 0.15751 0.23715 0.0
C52 C 0.81312 0.19336 0.26583 0.0
O53 O 0.82451 0.20716 0.29918 0.0
O54 O 0.83468 0.20853 0.23841 0.0
O55 O 0.90419 0.26273 0.2962 0.0
O56 O 0.92621 0.22502 0.29601 0.0
O57 O 0.86423 0.29405 0.24871 0.0
C58 C 0.9355 0.26316 0.1885 0.0
C59 C 0.92024 0.24808 0.3125 0.0
Zn60 Zn 0.0928 0.39508 0.74741 0.0
Zn61 Zn 0.06954 0.29849 0.75154 0.0
C62 C 0.16553 0.416 0.76916 0.0
O63 O 0.15438 0.4252 0.79925 0.0
C64 C 0.02138 0.22485 0.72685 0.0
O65 O 0.04295 0.23743 0.69754 0.0
O66 O 0.10036 0.44612 0.74887 0.0
O67 O 0.06267 0.37085 0.70214 0.0
O68 O 0.05704 0.31574 0.70469 0.0
C69 C 0.10824 0.4668 0.72057 0.0
O70 O 0.11225 0.45495 0.68813 0.0
O71 O 0.14291 0.40068 0.7426 0.0
C72 C 0.12421 0.28282 0.77529 0.0
O73 O 0.10846 0.28132 0.8073 0.0
O74 O 0.11453 0.29356 0.74673 0.0
O75 O 0.06566 0.31918 0.80052 0.0
O76 O 0.07047 0.37398 0.79691 0.0
O77 O 0.02787 0.24606 0.75446 0.0
C78 C 0.05319 0.33989 0.68753 0.0
C79 C 0.06417 0.34572 0.81537 0.0
Zn80 Zn 0.30415 0.91556 0.74855 0.0
Zn81 Zn 0.23738 0.94899 0.75517 0.0
C82 C 0.23728 0.84689 0.76633 0.0
O83 O 0.24443 0.86001 0.80033 0.0
C84 C 0.21668 0.00244 0.73486 0.0
O85 O 0.20987 0.98557 0.70264 0.0
O86 O 0.34532 0.90411 0.75013 0.0
O87 O 0.31397 0.94975 0.70561 0.0
O88 O 0.26967 0.96344 0.70983 0.0
C89 C 0.36468 0.9049 0.7226 0.0
O90 O 0.35843 0.91397 0.68964 0.0
O91 O 0.25775 0.86677 0.73987 0.0
C92 C 0.16585 0.89084 0.77573 0.0
O93 O 0.1795 0.90333 0.80891 0.0
O94 O 0.18687 0.90429 0.74759 0.0
O95 O 0.26074 0.9488 0.80354 0.0
O96 O 0.30535 0.93551 0.79947 0.0
O97 O 0.22806 0.99114 0.76161 0.0
C98 C 0.2968 0.96487 0.69269 0.0
C99 C 0.28623 0.94533 0.81821 0.0
Zn100 Zn 0.61987 0.70455 0.72896 0.0
Zn101 Zn 0.7175 0.77321 0.73661 0.0
C102 C 0.6013 0.75483 0.75974 0.0
O103 O 0.59336 0.73211 0.78785 0.0
C104 C 0.79053 0.78791 0.7232 0.0
O105 O 0.78297 0.79612 0.69042 0.0
O106 O 0.56739 0.66233 0.732 0.0
O107 O 0.6416 0.70012 0.68169 0.0
O108 O 0.7006 0.74137 0.6908 0.0
C109 C 0.55095 0.63745 0.70756 0.0
O110 O 0.56846 0.63842 0.67696 0.0
O111 O 0.61641 0.75051 0.73109 0.0
C112 C 0.73902 0.8471 0.7524 0.0
O113 O 0.73565 0.83424 0.78633 0.0
O114 O 0.7302 0.82496 0.7252 0.0
O115 O 0.68755 0.75494 0.78353 0.0
O116 O 0.64476 0.69726 0.77266 0.0
O117 O 0.76635 0.77737 0.74875 0.0
C118 C 0.67501 0.7164 0.6712 0.0
C119 C 0.6697 0.72141 0.79333 0.0
C120 C 0.32695 0.95978 0.874 0.0
C121 C 0.29324 0.95235 0.85839 0.0
C122 C 0.33355 0.96716 0.91198 0.0
C123 C 0.28701 0.95357 0.00152 0.0
H124 H 0.37296 0.04596 0.03061 0.0
C125 C 0.29393 0.02366 0.13978 0.0
C126 C 0.328 0.0447 0.15782 0.0
C127 C 0.292 0.00797 0.10515 0.0
C128 C 0.34925 0.01966 0.02318 0.0
H129 H 0.23968 0.94582 0.87041 0.0
H130 H 0.2511 0.95821 0.93664 0.0
H131 H 0.36556 0.02605 0.96597 0.0
H132 H 0.38662 0.06434 0.15433 0.0
H133 H 0.38314 0.03637 0.09405 0.0
H134 H 0.27039 0.94713 0.05846 0.0
C135 C 0.2724 0.95845 0.91951 0.0
C136 C 0.34501 0.00836 0.98613 0.0
C137 C 0.26602 0.95168 0.88156 0.0
C138 C 0.35999 0.04868 0.14097 0.0
C139 C 0.35802 0.03272 0.10637 0.0
C140 C 0.29142 0.96462 0.03861 0.0
C141 C 0.30628 0.9665 0.93501 0.0
C142 C 0.31335 0.97575 0.97485 0.0
C143 C 0.32405 0.01261 0.08783 0.0
C144 C 0.32203 0.99834 0.04967 0.0
H145 H 0.34844 0.96049 0.8568 0.0
H146 H 0.35989 0.97328 0.9234 0.0
H147 H 0.26259 0.92803 -0.0065 0.0
H148 H 0.26875 0.02007 0.15188 0.0
H149 H 0.26546 0.99324 0.09144 0.0
C150 C 0.72152 0.71621 0.62816 0.0
C151 C 0.68469 0.70565 0.63586 0.0
C152 C 0.73083 0.7063 0.59469 0.0
C153 C 0.69026 0.64419 0.5133 0.0
H154 H 0.77579 0.72113 0.46168 0.0
C155 C 0.70402 0.65739 0.35576 0.0
C156 C 0.73808 0.66762 0.33915 0.0
C157 C 0.70035 0.65533 0.39424 0.0
C158 C 0.75232 0.69909 0.47609 0.0
H159 H 0.62867 0.67605 0.61477 0.0
H160 H 0.64503 0.65976 0.55588 0.0
H161 H 0.76375 0.73105 0.52555 0.0
H162 H 0.79478 0.6826 0.34941 0.0
H163 H 0.78856 0.67999 0.41735 0.0
H164 H 0.67776 0.61326 0.46278 0.0
C165 C 0.66664 0.67492 0.57604 0.0
C166 C 0.74536 0.70473 0.51267 0.0
C167 C 0.65728 0.68455 0.60966 0.0
C168 C 0.76823 0.67467 0.36164 0.0
C169 C 0.76471 0.67323 0.40034 0.0
C170 C 0.69705 0.63873 0.47661 0.0
C171 C 0.70356 0.68586 0.56809 0.0
C172 C 0.71365 0.67777 0.5313 0.0
C173 C 0.73081 0.66392 0.41687 0.0
C174 C 0.72754 0.66656 0.4574 0.0
H175 H 0.74321 0.73199 0.64806 0.0
H176 H 0.75943 0.7147 0.58965 0.0
H177 H 0.66609 0.62255 0.5272 0.0
H178 H 0.68026 0.65151 0.33901 0.0
H179 H 0.67404 0.64854 0.40632 0.0
C180 C 0.97624 0.26715 0.13589 0.0
C181 C 0.95539 0.28029 0.15353 0.0
C182 C 0.99262 0.28109 0.10146 0.0
C183 C 0.98267 0.32664 0.01895 0.0
H184 H 0.07476 0.33317 0.99068 0.0
C185 C 0.04536 0.36802 0.87114 0.0
C186 C 0.05509 0.34362 0.85531 0.0
C187 C 0.03653 0.36564 0.90888 0.0
C188 C 0.04902 0.33149 -0.00175 0.0
H189 H 0.93681 0.31967 0.1495 0.0
H190 H 0.96602 0.34447 0.08954 0.0
H191 H 0.05446 0.32097 0.0553 0.0
H192 H 0.06383 0.2981 0.86682 0.0
H193 H 0.04866 0.29421 0.9326 0.0
H194 H 0.97722 0.33687 0.96168 0.0
C195 C 0.96903 0.32281 0.10209 0.0
C196 C 0.03733 0.32441 0.03518 0.0
C197 C 0.95246 0.30872 0.13654 0.0
C198 C 0.0563 0.3172 0.87809 0.0
C199 C 0.04792 0.31515 0.91583 0.0
C200 C 0.99455 0.33406 0.98205 0.0
C201 C 0.9888 0.30872 0.08389 0.0
C202 C 0.00355 0.32097 0.04578 0.0
C203 C 0.0378 0.33922 0.93154 0.0
C204 C 0.02738 0.33564 0.97123 0.0
H205 H 0.97921 0.24538 0.14818 0.0
H206 H 0.00718 0.26919 0.08804 0.0
H207 H 0.9563 0.32373 0.02603 0.0
H208 H 0.04419 0.3887 0.85433 0.0
H209 H 0.0289 0.38459 0.92041 0.0
C210 C 0.30816 0.07156 0.38098 0.0
C211 C 0.33873 0.08129 0.35792 0.0
C212 C 0.30964 0.06503 0.41876 0.0
C213 C 0.35237 0.03275 0.48378 0.0
H214 H 0.31615 0.07294 0.55844 0.0
C215 C 0.3404 0.99089 0.63847 0.0
C216 C 0.30786 0.98409 0.65646 0.0
C217 C 0.34971 0.00794 0.60359 0.0
C218 C 0.32612 0.06127 0.53793 0.0
H219 H 0.39495 0.09213 0.35642 0.0
H220 H 0.39713 0.07988 0.42254 0.0
H221 H 0.32162 0.09304 0.49403 0.0
H222 H 0.25969 0.98998 0.65186 0.0
H223 H 0.27529 0.01857 0.59119 0.0
H224 H 0.35517 0.99959 0.52711 0.0
C225 C 0.37221 0.07761 0.41124 0.0
C226 C 0.32938 0.07293 0.50113 0.0
C227 C 0.37096 0.08473 0.37351 0.0
C228 C 0.28512 0.99505 0.63903 0.0
C229 C 0.29424 0.01176 0.60421 0.0
C230 C 0.34867 0.02071 0.52054 0.0
C231 C 0.34152 0.0676 0.43412 0.0
C232 C 0.34186 0.05826 0.47363 0.0
C233 C 0.32655 0.01831 0.58594 0.0
C234 C 0.33473 0.03424 0.54791 0.0
H235 H 0.283 0.06886 0.36983 0.0
H236 H 0.28547 0.057 0.43579 0.0
H237 H 0.36182 0.02084 0.46298 0.0
H238 H 0.3586 0.98293 0.65122 0.0
H239 H 0.37501 0.01294 0.59046 0.0
C240 C 0.6585 0.67353 0.84092 0.0
C241 C 0.67736 0.71062 0.82972 0.0
C242 C 0.66626 0.66338 0.87511 0.0
C243 C 0.73556 0.69653 0.9506 0.0
H244 H 0.65172 0.63225 0.01258 0.0
C245 C 0.69946 0.67321 0.11395 0.0
C246 C 0.72907 0.67054 0.12814 0.0
C247 C 0.69321 0.67147 0.07586 0.0
C248 C 0.6754 0.65006 -0.00451 0.0
H249 H 0.71954 0.76607 0.84536 0.0
H250 H 0.73242 0.74845 0.90526 0.0
H251 H 0.64168 0.64284 0.94826 0.0
H252 H 0.7749 0.66308 0.11359 0.0
H253 H 0.76399 0.66028 0.04658 0.0
H254 H 0.76907 0.70528 -0.00147 0.0
C255 C 0.7121 0.72712 0.88737 0.0
C256 C 0.6697 0.65586 0.95858 0.0
C257 C 0.70441 0.73727 0.85321 0.0
C258 C 0.75195 0.66539 0.10344 0.0
C259 C 0.74577 0.66383 0.06515 0.0
C260 C 0.74126 0.69074 0.98756 0.0
C261 C 0.69302 0.69011 0.89874 0.0
C262 C 0.69963 0.68 0.93609 0.0
C263 C 0.71644 0.66708 0.05105 0.0
C264 C 0.71111 0.66833 0.01062 0.0
H265 H 0.63775 0.65228 0.82329 0.0
H266 H 0.65134 0.6346 0.88304 0.0
H267 H 0.7592 0.71482 0.93368 0.0
H268 H 0.68125 0.6771 0.13222 0.0
H269 H 0.67077 0.67469 0.06577 0.0
C270 C 0.93173 0.2878 0.36857 0.0
C271 C 0.93268 0.25837 0.35134 0.0
C272 C 0.94445 0.29804 0.40495 0.0
C273 C 0.00404 0.28945 0.47476 0.0
H274 H 0.95277 0.3179 0.54468 0.0
C275 C 0.03268 0.29993 0.63107 0.0
C276 C 0.03778 0.33159 0.64949 0.0
C277 C 0.01966 0.2925 0.59469 0.0
C278 C 0.96753 0.31037 0.52529 0.0
H279 H 0.94686 0.21602 0.35915 0.0
H280 H 0.96824 0.23334 0.42268 0.0
H281 H 0.92997 0.30151 0.48101 0.0
H282 H 0.03246 0.37995 0.64423 0.0
H283 H 0.00929 0.36664 0.58037 0.0
H284 H 0.04111 0.29758 0.51921 0.0
C285 C 0.95854 0.24913 0.40784 0.0
C286 C 0.95456 0.30105 0.48886 0.0
C287 C 0.94606 0.23905 0.37145 0.0
C288 C 0.02888 0.35535 0.63081 0.0
C289 C 0.0155 0.3477 0.59437 0.0
C290 C 0.01679 0.29849 0.51116 0.0
C291 C 0.9582 0.27895 0.42491 0.0
C292 C 0.97248 0.29013 0.46329 0.0
C293 C 0.0112 0.31641 0.57588 0.0
C294 C 0.99848 0.30869 0.53686 0.0
H295 H 0.92166 0.30332 0.35381 0.0
H296 H 0.94415 0.32137 0.41715 0.0
H297 H 0.01902 0.28202 0.45557 0.0
H298 H 0.03927 0.28104 0.64451 0.0
H299 H 0.01613 0.26792 0.58125 0.0
C300 C 0.50255 0.12114 0.25768 0.0
C301 C 0.48791 0.12293 0.22319 0.0
C302 C 0.53486 0.11954 0.25946 0.0
C303 C 0.61817 0.14344 0.20515 0.0
H304 H 0.63312 0.08728 0.28134 0.0
C305 C 0.75976 0.15845 0.22262 0.0
C306 C 0.77333 0.16774 0.2591 0.0
C307 C 0.72204 0.14264 0.21556 0.0
C308 C 0.62932 0.10303 0.25985 0.0
H309 H 0.49529 0.12359 0.16346 0.0
H310 H 0.5515 0.12051 0.16657 0.0
H311 H 0.57243 0.08091 0.27398 0.0
H312 H 0.75752 0.16373 0.31708 0.0
H313 H 0.69201 0.13654 0.30477 0.0
H314 H 0.67514 0.16645 0.19171 0.0
C315 C 0.53827 0.12086 0.19228 0.0
C316 C 0.59462 0.0995 0.25573 0.0
C317 C 0.506 0.12255 0.1905 0.0
C318 C 0.74804 0.15731 0.28861 0.0
C319 C 0.71035 0.14152 0.28154 0.0
C320 C 0.65277 0.14691 0.20923 0.0
C321 C 0.55324 0.1196 0.22678 0.0
C322 C 0.58887 0.12028 0.22884 0.0
C323 C 0.69717 0.1357 0.24483 0.0
C324 C 0.65899 0.12735 0.23713 0.0
H325 H 0.48929 0.12139 0.28341 0.0
H326 H 0.54593 0.1192 0.28651 0.0
H327 H 0.61491 0.16025 0.18451 0.0
H328 H 0.77845 0.16559 0.19927 0.0
H329 H 0.7126 0.13763 0.18701 0.0
C330 C 0.63893 0.52793 0.2466 0.0
C331 C 0.65527 0.5412 0.21163 0.0
C332 C 0.60862 0.49216 0.25042 0.0
C333 C 0.56348 0.4017 0.20231 0.0
H334 H 0.48698 0.37575 0.27615 0.0
C335 C 0.44336 0.25192 0.2195 0.0
C336 C 0.43637 0.2386 0.2562 0.0
C337 C 0.46586 0.28967 0.21238 0.0
C338 C 0.5082 0.38256 0.25546 0.0
H339 H 0.65133 0.52789 0.15299 0.0
H340 H 0.59808 0.46613 0.15944 0.0
H341 H 0.53395 0.44034 0.26669 0.0
H342 H 0.44604 0.25482 0.31419 0.0
H343 H 0.485 0.32047 0.30177 0.0
H344 H 0.53791 0.34396 0.19126 0.0
C345 C 0.60922 0.48285 0.18416 0.0
C346 C 0.53524 0.4196 0.2501 0.0
C347 C 0.63965 0.51844 0.1804 0.0
C348 C 0.45092 0.26409 0.28558 0.0
C349 C 0.47315 0.30181 0.27846 0.0
C350 C 0.53635 0.36476 0.2075 0.0
C351 C 0.59374 0.46887 0.21932 0.0
C352 C 0.56352 0.42967 0.22371 0.0
C353 C 0.4816 0.31501 0.24179 0.0
C354 C 0.50861 0.35465 0.23442 0.0
H355 H 0.65036 0.54468 0.27127 0.0
H356 H 0.59779 0.48235 0.27801 0.0
H357 H 0.58512 0.40814 0.18224 0.0
H358 H 0.43258 0.23308 0.19621 0.0
H359 H 0.47144 0.29899 0.1838 0.0
C360 C 0.85233 0.35734 0.18989 0.0
C361 C 0.85134 0.33773 0.22184 0.0
C362 C 0.84812 0.38802 0.19277 0.0
C363 C 0.85552 0.45725 0.26067 0.0
H364 H 0.79685 0.47356 0.18865 0.0
C365 C 0.80129 0.55676 0.28352 0.0
C366 C 0.80137 0.57747 0.25293 0.0
C367 C 0.81188 0.53055 0.27921 0.0
C368 C 0.81377 0.46965 0.20866 0.0
H369 H 0.84404 0.33416 0.28171 0.0
H370 H 0.83585 0.38709 0.2866 0.0
H371 H 0.80475 0.42049 0.18188 0.0
H372 H 0.81429 0.58824 0.1942 0.0
H373 H 0.83276 0.54238 0.18677 0.0
H374 H 0.86373 0.50601 0.2879 0.0
C375 C 0.8408 0.37937 0.25944 0.0
C376 C 0.81828 0.43926 0.2048 0.0
C377 C 0.84519 0.34886 0.25659 0.0
C378 C 0.81378 0.5726 0.2183 0.0
C379 C 0.82415 0.54623 0.21395 0.0
C380 C 0.85083 0.48753 0.26463 0.0
C381 C 0.84265 0.39955 0.22763 0.0
C382 C 0.83893 0.43254 0.23094 0.0
C383 C 0.82257 0.52444 0.24419 0.0
C384 C 0.8297 0.49385 0.23881 0.0
H385 H 0.8572 0.34953 0.16274 0.0
H386 H 0.84999 0.40318 0.16778 0.0
H387 H 0.87219 0.45322 0.28088 0.0
H388 H 0.79197 0.55997 0.31058 0.0
H389 H 0.81019 0.51397 0.30295 0.0
C390 C 0.12492 0.52848 0.69422 0.0
C391 C 0.11335 0.50407 0.72451 0.0
C392 C 0.13103 0.56413 0.69854 0.0
C393 C 0.15322 0.63409 0.77088 0.0
H394 H 0.13058 0.68377 0.69377 0.0
C395 C 0.19126 0.78406 0.78986 0.0
C396 C 0.21079 0.80728 0.75994 0.0
C397 C 0.17174 0.74584 0.78533 0.0
C398 C 0.13709 0.67025 0.71553 0.0
H399 H 0.09793 0.49756 0.7828 0.0
H400 H 0.10819 0.55942 0.79016 0.0
H401 H 0.11167 0.6189 0.6862 0.0
H402 H 0.22263 0.80868 0.70105 0.0
H403 H 0.18898 0.74214 0.69329 0.0
H404 H 0.17937 0.6854 0.79984 0.0
C405 C 0.11318 0.55131 0.76323 0.0
C406 C 0.12636 0.63315 0.71116 0.0
C407 C 0.10717 0.51577 0.75895 0.0
C408 C 0.20807 0.79158 0.72475 0.0
C409 C 0.1886 0.75336 0.72024 0.0
C410 C 0.16389 0.67107 0.77526 0.0
C411 C 0.12563 0.57609 0.73322 0.0
C412 C 0.13472 0.61477 0.7386 0.0
C413 C 0.17133 0.73004 0.75079 0.0
C414 C 0.15638 0.68975 0.74746 0.0
H415 H 0.12989 0.52032 0.66731 0.0
H416 H 0.14102 0.58265 0.67495 0.0
H417 H 0.16069 0.62102 0.79229 0.0
H418 H 0.19241 0.79526 0.81724 0.0
H419 H 0.15805 0.72861 0.80923 0.0
C420 C 0.41477 0.895 0.69757 0.0
C421 C 0.39337 0.89476 0.72773 0.0
C422 C 0.441 0.88429 0.7024 0.0
C423 C 0.46314 0.82862 0.76444 0.0
H424 H 0.55836 0.87872 0.71523 0.0
C425 C 0.56912 0.784 0.79045 0.0
C426 C 0.58643 0.78002 0.75885 0.0
C427 C 0.54966 0.80266 0.78826 0.0
C428 C 0.53179 0.8643 0.72897 0.0
H429 H 0.38342 0.88382 0.78681 0.0
H430 H 0.42917 0.86542 0.79519 0.0
H431 H 0.51589 0.90176 0.70786 0.0
H432 H 0.59868 0.79448 0.70063 0.0
H433 H 0.56435 0.82666 0.6967 0.0
H434 H 0.4785 0.79081 0.78505 0.0
C435 C 0.42537 0.8734 0.7677 0.0
C436 C 0.50744 0.87748 0.72472 0.0
C437 C 0.39924 0.88414 0.7629 0.0
C438 C 0.58565 0.79702 0.72551 0.0
C439 C 0.56602 0.81558 0.72328 0.0
C440 C 0.48738 0.81545 0.76864 0.0
C441 C 0.44635 0.87301 0.73746 0.0
C442 C 0.47278 0.85972 0.74236 0.0
C443 C 0.54686 0.81767 0.75438 0.0
C444 C 0.522 0.83304 0.75094 0.0
H445 H 0.41099 0.90305 0.67011 0.0
H446 H 0.45644 0.88397 0.67845 0.0
H447 H 0.43641 0.81384 0.77785 0.0
H448 H 0.56948 0.77158 0.81667 0.0
H449 H 0.53599 0.80451 0.81298 0.0
C450 C 0.21779 0.42116 0.73087 0.0
C451 C 0.20496 0.42788 0.76434 0.0
C452 C 0.25561 0.43656 0.72461 0.0
C453 C 0.34733 0.48435 0.77111 0.0
H454 H 0.38143 0.53306 0.67579 0.0
C455 C 0.49451 0.60567 0.74749 0.0
C456 C 0.51223 0.60788 0.71365 0.0
C457 C 0.45774 0.57842 0.75314 0.0
C458 C 0.3724 0.5191 0.7023 0.0
H459 H 0.22167 0.45433 0.81826 0.0
H460 H 0.28742 0.48149 0.80718 0.0
H461 H 0.31556 0.49351 0.68699 0.0
H462 H 0.50535 0.58276 0.65938 0.0
H463 H 0.44093 0.53514 0.66928 0.0
H464 H 0.40426 0.51103 0.78676 0.0
C465 C 0.26838 0.4641 0.78585 0.0
C466 C 0.33461 0.49635 0.70873 0.0
C467 C 0.23061 0.44869 0.79212 0.0
C468 C 0.49247 0.58189 0.68573 0.0
C469 C 0.45555 0.55469 0.69133 0.0
C470 C 0.38512 0.50719 0.76471 0.0
C471 C 0.28138 0.45896 0.75168 0.0
C472 C 0.32159 0.47931 0.74347 0.0
C473 C 0.43776 0.55279 0.72505 0.0
C474 C 0.39802 0.52542 0.7305 0.0
H475 H 0.19871 0.40498 0.70901 0.0
H476 H 0.26471 0.43157 0.69823 0.0
H477 H 0.33824 0.47112 0.79795 0.0
H478 H 0.50892 0.62522 0.76961 0.0
H479 H 0.44468 0.57804 0.77922 0.0
C480 C 0.23921 0.16384 0.287 0.0
C481 C 0.2548 0.15312 0.2587 0.0
C482 C 0.21521 0.17643 0.27825 0.0
C483 C 0.14848 0.16067 0.20581 0.0
H484 H 0.13112 0.22708 0.26521 0.0
C485 C 0.02046 0.17622 0.18603 0.0
C486 C 0.00299 0.17728 0.21893 0.0
C487 C 0.05465 0.17828 0.18738 0.0
C488 C 0.13559 0.20835 0.24846 0.0
H489 H 0.26088 0.15125 0.19895 0.0
H490 H 0.21929 0.17364 0.18374 0.0
H491 H 0.18843 0.22649 0.273 0.0
H492 H 0.00724 0.18031 0.2791 0.0
H493 H 0.06644 0.1833 0.28141 0.0
H494 H 0.09521 0.14171 0.18211 0.0
C495 C 0.22489 0.1714 0.21269 0.0
C496 C 0.16844 0.20813 0.25282 0.0
C497 C 0.2489 0.1588 0.22145 0.0
C498 C 0.01998 0.17953 0.25321 0.0
C499 C 0.05412 0.18166 0.25454 0.0
C500 C 0.11567 0.16092 0.20143 0.0
C501 C 0.20646 0.17867 0.24101 0.0
C502 C 0.17484 0.18363 0.2322 0.0
C503 C 0.07205 0.18152 0.22164 0.0
C504 C 0.10847 0.18407 0.2234 0.0
H505 H 0.24344 0.16012 0.31599 0.0
H506 H 0.20145 0.18173 0.30076 0.0
H507 H 0.15224 0.14102 0.1899 0.0
H508 H 0.00818 0.17468 0.15916 0.0
H509 H 0.06785 0.17819 0.16156 0.0
C510 C 0.87758 0.79933 0.28708 0.0
C511 C 0.85663 0.77932 0.25609 0.0
C512 C 0.91583 0.82257 0.28429 0.0
C513 C 0.98867 0.87711 0.21637 0.0
H514 H 0.05491 0.882 0.2939 0.0
C515 C 0.14673 0.9701 0.20181 0.0
C516 C 0.16727 0.98813 0.23371 0.0
C517 C 0.10935 0.94318 0.2045 0.0
C518 C 0.03682 0.88139 0.27219 0.0
H519 H 0.85968 0.76756 0.19796 0.0
H520 H 0.92654 0.8084 0.19304 0.0
H521 H 0.98904 0.83728 0.29859 0.0
H522 H 0.16448 0.99191 0.29356 0.0
H523 H 0.09904 0.94567 0.29825 0.0
H524 H 0.03601 0.92172 0.19036 0.0
C525 C 0.91325 0.80615 0.21948 0.0
C526 C 0.99903 0.8556 0.27484 0.0
C527 C 0.87497 0.78258 0.22237 0.0
C528 C 0.14952 0.97843 0.26845 0.0
C529 C 0.11198 0.95171 0.27112 0.0
C530 C 0.02638 0.90311 0.21387 0.0
C531 C 0.93409 0.82666 0.25035 0.0
C532 C 0.97448 0.85318 0.24698 0.0
C533 C 0.09129 0.93375 0.23915 0.0
C534 C 0.05105 0.9057 0.24176 0.0
H535 H 0.86438 0.79744 0.3135 0.0
H536 H 0.93098 0.83818 0.30851 0.0
H537 H 0.97045 0.87639 0.19473 0.0
H538 H 0.15957 0.97664 0.17461 0.0
H539 H 0.0947 0.92955 0.17932 0.0
C540 C 0.80811 0.0723 0.2857 0.0
C541 C 0.82174 0.09845 0.25691 0.0
C542 C 0.78556 0.03487 0.27772 0.0
C543 C 0.77311 0.97232 0.20171 0.0
H544 H 0.70119 0.89825 0.26827 0.0
C545 C 0.72454 0.81953 0.18028 0.0
C546 C 0.72553 0.80113 0.21242 0.0
C547 C 0.7263 0.85345 0.18295 0.0
C548 C 0.72122 0.91862 0.2494 0.0
H549 H 0.81908 0.10628 0.19765 0.0
H550 H 0.77934 0.04097 0.18381 0.0
H551 H 0.72082 0.96305 0.27789 0.0
H552 H 0.72722 0.80303 0.27268 0.0
H553 H 0.73095 0.86239 0.2773 0.0
H554 H 0.77483 0.9284 0.17416 0.0
C555 C 0.78691 0.04931 0.21244 0.0
C556 C 0.73241 0.95571 0.25487 0.0
C557 C 0.80955 0.08675 0.22041 0.0
C558 C 0.72649 0.81652 0.24735 0.0
C559 C 0.72835 0.85047 0.25002 0.0
C560 C 0.76196 0.93535 0.19627 0.0
C561 C 0.77602 0.02283 0.2408 0.0
C562 C 0.75922 0.98309 0.23166 0.0
C563 C 0.72918 0.86977 0.21782 0.0
C564 C 0.73662 0.90814 0.22061 0.0
H565 H 0.81672 0.08041 0.31417 0.0
H566 H 0.77782 0.01528 0.30026 0.0
H567 H 0.79427 0.99265 0.18366 0.0
H568 H 0.72343 0.80826 0.15295 0.0
H569 H 0.72628 0.86731 0.15763 0.0
C570 C 0.15738 0.25332 0.80294 0.0
C571 C 0.146 0.26436 0.77126 0.0
C572 C 0.17159 0.22985 0.79971 0.0
C573 C 0.20542 0.18658 0.73188 0.0
H574 H 0.16534 0.10724 0.80406 0.0
C575 C 0.20339 0.04975 0.70915 0.0
C576 C 0.21199 0.03472 0.73971 0.0
C577 C 0.19926 0.08041 0.71362 0.0
C578 C 0.17719 0.12944 0.78396 0.0
H579 H 0.14275 0.2612 0.7111 0.0
H580 H 0.16689 0.21982 0.70548 0.0
H581 H 0.15324 0.15751 0.81077 0.0
H582 H 0.22315 0.04026 0.79893 0.0
H583 H 0.21576 0.09363 0.80672 0.0
H584 H 0.22846 0.15767 0.70455 0.0
C585 C 0.16528 0.22957 0.73286 0.0
C586 C 0.17038 0.15842 0.78786 0.0
C587 C 0.15134 0.2533 0.73608 0.0
C588 C 0.21641 0.05108 0.77483 0.0
C589 C 0.21206 0.08159 0.77933 0.0
C590 C 0.21206 0.15744 0.72787 0.0
C591 C 0.17449 0.21661 0.76473 0.0
C592 C 0.18417 0.18726 0.76174 0.0
C593 C 0.20341 0.09659 0.74879 0.0
C594 C 0.19777 0.1284 0.75373 0.0
H595 H 0.15396 0.26165 0.83043 0.0
H596 H 0.17928 0.22121 0.82478 0.0
H597 H 0.21688 0.20854 0.71152 0.0
H598 H 0.19985 0.03788 0.6817 0.0
H599 H 0.19214 0.09103 0.68963 0.0
C600 C 0.10212 0.85349 0.80205 0.0
C601 C 0.12537 0.86743 0.77086 0.0
C602 C 0.06389 0.83708 0.79822 0.0
C603 C 0.98734 0.80097 0.72898 0.0
H604 H 0.94284 0.83535 0.80081 0.0
C605 C 0.85207 0.80009 0.70074 0.0
C606 C 0.82676 0.79108 0.73003 0.0
C607 C 0.88657 0.80386 0.70702 0.0
C608 C 0.9546 0.82497 0.78084 0.0
H609 H 0.12645 0.87292 0.71087 0.0
H610 H 0.05996 0.84482 0.70423 0.0
H611 H 0.0063 0.85029 0.80931 0.0
H612 H 0.8177 0.77837 0.78886 0.0
H613 H 0.87811 0.78506 0.79983 0.0
H614 H 0.93579 0.7766 0.69996 0.0
C615 C 0.07113 0.84622 0.73168 0.0
C616 C 0.99104 0.83346 0.78574 0.0
C617 C 0.10936 0.86248 0.73549 0.0
C618 C 0.83661 0.78548 0.76571 0.0
C619 C 0.87126 0.78943 0.77203 0.0
C620 C 0.9509 0.79258 0.72402 0.0
C621 C 0.048 0.83434 0.76313 0.0
C622 C 0.00809 0.82205 0.7596 0.0
C623 C 0.89672 0.79884 0.74277 0.0
C624 C 0.9343 0.80497 0.7496 0.0
H625 H 0.11351 0.85651 0.82967 0.0
H626 H 0.04685 0.82747 0.82294 0.0
H627 H 0.99936 0.79123 0.70862 0.0
H628 H 0.84538 0.80453 0.6729 0.0
H629 H 0.90568 0.81162 0.68397 0.0
C630 C 0.97886 0.16542 0.69472 0.0
C631 C 0.98928 0.18693 0.72716 0.0
C632 C 0.94822 0.12978 0.6948 0.0
C633 C 0.86344 0.06727 0.74824 0.0
H634 H 0.87082 0.99085 0.69602 0.0
C635 C 0.76902 0.91168 0.77621 0.0
C636 C 0.7589 0.88732 0.74599 0.0
C637 C 0.7928 0.94945 0.77113 0.0
C638 C 0.86805 0.01197 0.71022 0.0
H639 H 0.97578 0.18788 0.78519 0.0
H640 H 0.92288 0.12539 0.78559 0.0
H641 H 0.92173 0.05418 0.69303 0.0
H642 H 0.76399 0.88375 0.68633 0.0
H643 H 0.80551 0.94976 0.6775 0.0
H644 H 0.81008 0.02458 0.76633 0.0
C645 C 0.93788 0.13631 0.75984 0.0
C646 C 0.89727 0.04831 0.70853 0.0
C647 C 0.9684 0.17204 0.7597 0.0
C648 C 0.77137 0.90175 0.71023 0.0
C649 C 0.79535 0.93952 0.70519 0.0
C650 C 0.83427 0.03083 0.7501 0.0
C651 C 0.92742 0.11472 0.72739 0.0
C652 C 0.8955 0.07637 0.72781 0.0
C653 C 0.80709 0.96361 0.73574 0.0
C654 C 0.83642 0.00275 0.73137 0.0
H655 H 0.99419 0.17619 0.66911 0.0
H656 H 0.94065 0.11414 0.66919 0.0
H657 H 0.86088 0.0883 0.76288 0.0
H658 H 0.75977 0.90146 0.8041 0.0
H659 H 0.80149 0.96728 0.79525 0.0
loop_
_geom_bond_atom_site_label_1
_geom_bond_atom_site_label_2
_geom_bond_distance
_geom_bond_site_symmetry_2
_ccdc_geom_bond_type
Zn0 O6 1.969 . S
Zn0 O7 1.965 . S
Zn0 O11 2.024 . S
Zn0 O16 1.969 . S
Zn1 O8 1.969 . S
Zn1 O14 1.969 . S
Zn1 O15 1.965 . S
Zn1 O17 2.024 . S
C2 O3 1.229 . S
C2 O11 1.058 . S
O3 C2 1.229 . S
C4 O5 1.229 . S
C4 O17 1.058 . S
O5 C4 1.229 . S
O6 Zn0 1.969 . S
O6 C9 1.267 1_545 S
O7 Zn0 1.965 . S
O7 C18 1.260 . S
O8 Zn1 1.969 . S
O8 C18 1.258 . S
C9 O6 1.267 1_565 S
C9 O10 1.228 1_565 S
O10 C9 1.228 1_545 S
O11 Zn0 2.024 . S
O11 C2 1.058 . S
C12 O13 1.228 . S
C12 O14 1.267 . S
O13 C12 1.228 . S
O14 Zn1 1.969 . S
O14 C12 1.267 . S
O15 Zn1 1.965 . S
O15 C19 1.260 . S
O16 Zn0 1.969 . S
O16 C19 1.258 . S
O17 Zn1 2.024 . S
O17 C4 1.058 . S
C18 O7 1.260 . S
C18 O8 1.258 . S
C19 O15 1.260 . S
C19 O16 1.258 . S
Zn20 O26 1.969 . S
Zn20 O27 1.965 . S
Zn20 O31 2.024 . S
Zn20 O36 1.969 . S
Zn21 O28 1.969 . S
Zn21 O34 1.969 . S
Zn21 O35 1.965 . S
Zn21 O37 2.024 . S
C22 O23 1.229 . S
C22 O31 1.058 . S
O23 C22 1.229 . S
C24 O25 1.229 . S
C24 O37 1.058 . S
O25 C24 1.229 . S
O26 Zn20 1.969 . S
O26 C29 1.267 . S
O27 Zn20 1.965 . S
O27 C38 1.260 . S
O28 Zn21 1.969 . S
O28 C38 1.258 . S
C29 O26 1.267 . S
C29 O30 1.228 . S
O30 C29 1.228 . S
O31 Zn20 2.024 . S
O31 C22 1.058 . S
C32 O33 1.228 . S
C32 O34 1.267 . S
O33 C32 1.228 . S
O34 Zn21 1.969 . S
O34 C32 1.267 . S
O35 Zn21 1.965 . S
O35 C39 1.260 . S
O36 Zn20 1.969 . S
O36 C39 1.258 . S
O37 Zn21 2.024 . S
O37 C24 1.058 . S
C38 O27 1.260 . S
C38 O28 1.258 . S
C39 O35 1.260 . S
C39 O36 1.258 . S
Zn40 O46 1.969 . S
Zn40 O47 1.965 . S
Zn40 O51 2.024 . S
Zn40 O56 1.969 . S
Zn41 O48 1.969 . S
Zn41 O54 1.969 . S
Zn41 O55 1.965 . S
Zn41 O57 2.024 . S
C42 O43 1.229 . S
C42 O51 1.058 . S
O43 C42 1.229 . S
C44 O45 1.229 . S
C44 O57 1.058 . S
O45 C44 1.229 . S
O46 Zn40 1.969 . S
O46 C49 1.267 1_655 S
O47 Zn40 1.965 . S
O47 C58 1.260 . S
O48 Zn41 1.969 . S
O48 C58 1.258 . S
C49 O46 1.267 1_455 S
C49 O50 1.228 1_455 S
O50 C49 1.228 1_655 S
O51 Zn40 2.024 . S
O51 C42 1.058 . S
C52 O53 1.228 . S
C52 O54 1.267 . S
O53 C52 1.228 . S
O54 Zn41 1.969 . S
O54 C52 1.267 . S
O55 Zn41 1.965 . S
O55 C59 1.260 . S
O56 Zn40 1.969 . S
O56 C59 1.258 . S
O57 Zn41 2.024 . S
O57 C44 1.058 . S
C58 O47 1.260 . S
C58 O48 1.258 . S
C59 O55 1.260 . S
C59 O56 1.258 . S
Zn60 O66 1.969 . S
Zn60 O67 1.965 . S
Zn60 O71 2.024 . S
Zn60 O76 1.969 . S
Zn61 O68 1.969 . S
Zn61 O74 1.969 . S
Zn61 O75 1.965 . S
Zn61 O77 2.024 . S
C62 O63 1.229 . S
C62 O71 1.058 . S
O63 C62 1.229 . S
C64 O65 1.229 . S
C64 O77 1.058 . S
O65 C64 1.229 . S
O66 Zn60 1.969 . S
O66 C69 1.267 . S
O67 Zn60 1.965 . S
O67 C78 1.260 . S
O68 Zn61 1.969 . S
O68 C78 1.258 . S
C69 O66 1.267 . S
C69 O70 1.228 . S
O70 C69 1.228 . S
O71 Zn60 2.024 . S
O71 C62 1.058 . S
C72 O73 1.228 . S
C72 O74 1.267 . S
O73 C72 1.228 . S
O74 Zn61 1.969 . S
O74 C72 1.267 . S
O75 Zn61 1.965 . S
O75 C79 1.260 . S
O76 Zn60 1.969 . S
O76 C79 1.258 . S
O77 Zn61 2.024 . S
O77 C64 1.058 . S
C78 O67 1.260 . S
C78 O68 1.258 . S
C79 O75 1.260 . S
C79 O76 1.258 . S
Zn80 O86 1.969 . S
Zn80 O87 1.965 . S
Zn80 O91 2.024 . S
Zn80 O96 1.969 . S
Zn81 O88 1.969 . S
Zn81 O94 1.969 . S
Zn81 O95 1.965 . S
Zn81 O97 2.024 . S
C82 O83 1.229 . S
C82 O91 1.058 . S
O83 C82 1.229 . S
C84 O85 1.229 . S
C84 O97 1.058 . S
O85 C84 1.229 . S
O86 Zn80 1.969 . S
O86 C89 1.267 . S
O87 Zn80 1.965 . S
O87 C98 1.260 . S
O88 Zn81 1.969 . S
O88 C98 1.258 . S
C89 O86 1.267 . S
C89 O90 1.228 . S
O90 C89 1.228 . S
O91 Zn80 2.024 . S
O91 C82 1.058 . S
C92 O93 1.228 . S
C92 O94 1.267 . S
O93 C92 1.228 . S
O94 Zn81 1.969 . S
O94 C92 1.267 . S
O95 Zn81 1.965 . S
O95 C99 1.260 . S
O96 Zn80 1.969 . S
O96 C99 1.258 . S
O97 Zn81 2.024 . S
O97 C84 1.058 . S
C98 O87 1.260 . S
C98 O88 1.258 . S
C99 O95 1.260 . S
C99 O96 1.258 . S
Zn100 O106 1.969 . S
Zn100 O107 1.965 . S
Zn100 O111 2.024 . S
Zn100 O116 1.969 . S
Zn101 O108 1.969 . S
Zn101 O114 1.969 . S
Zn101 O115 1.965 . S
Zn101 O117 2.024 . S
C102 O103 1.229 . S
C102 O111 1.058 . S
O103 C102 1.229 . S
C104 O105 1.229 . S
C104 O117 1.058 . S
O105 C104 1.229 . S
O106 Zn100 1.969 . S
O106 C109 1.267 . S
O107 Zn100 1.965 . S
O107 C118 1.260 . S
O108 Zn101 1.969 . S
O108 C118 1.258 . S
C109 O106 1.267 . S
C109 O110 1.228 . S
O110 C109 1.228 . S
O111 Zn100 2.024 . S
O111 C102 1.058 . S
C112 O113 1.228 . S
C112 O114 1.267 . S
O113 C112 1.228 . S
O114 Zn101 1.969 . S
O114 C112 1.267 . S
O115 Zn101 1.965 . S
O115 C119 1.260 . S
O116 Zn100 1.969 . S
O116 C119 1.258 . S
O117 Zn101 2.024 . S
O117 C104 1.058 . S
C118 O107 1.260 . S
C118 O108 1.258 . S
C119 O115 1.260 . S
C119 O116 1.258 . S
C120 C121 1.349 . S
C120 C122 1.327 . S
C120 H145 0.950 . S
C121 C120 1.349 . S
C121 C137 1.349 . S
C122 C120 1.327 . S
C122 C141 1.429 . S
C122 H146 0.950 . S
C123 C140 1.574 1_556 S
C123 C142 1.368 . S
C123 H147 0.949 . S
H124 C128 0.949 . S
C125 C126 1.349 . S
C125 C127 1.327 . S
C125 H148 0.950 . S
C126 C125 1.349 . S
C126 C138 1.349 . S
C127 C125 1.327 . S
C127 C143 1.429 . S
C127 H149 0.950 1_545 S
C128 H124 0.949 . S
C128 C136 1.574 1_554 S
C128 C144 1.368 . S
H129 C137 0.950 . S
H130 C135 0.950 . S
H131 C136 0.949 . S
H132 C138 0.950 . S
H133 C139 0.950 . S
H134 C140 0.949 . S
C135 H130 0.950 . S
C135 C137 1.327 . S
C135 C141 1.429 . S
C136 C128 1.574 1_556 S
C136 H131 0.949 . S
C136 C142 1.368 1_545 S
C137 C121 1.349 . S
C137 H129 0.950 . S
C137 C135 1.327 . S
C138 C126 1.349 . S
C138 H132 0.950 . S
C138 C139 1.327 . S
C139 H133 0.950 . S
C139 C138 1.327 . S
C139 C143 1.429 . S
C140 C123 1.574 1_554 S
C140 H134 0.949 . S
C140 C144 1.368 1_565 S
C141 C122 1.429 . S
C141 C135 1.429 . S
C141 C142 1.523 . S
C142 C123 1.368 . S
C142 C136 1.368 1_565 S
C142 C141 1.523 . S
C143 C127 1.429 . S
C143 C139 1.429 . S
C143 C144 1.523 . S
C144 C128 1.368 . S
C144 C140 1.368 1_545 S
C144 C143 1.523 . S
H145 C120 0.950 . S
H146 C122 0.950 . S
H147 C123 0.949 . S
H148 C125 0.950 . S
H149 C127 0.950 1_565 S
C150 C151 1.349 . S
C150 C152 1.327 . S
C150 H175 0.950 . S
C151 C150 1.349 . S
C151 C167 1.349 . S
C152 C150 1.327 . S
C152 C171 1.429 . S
C152 H176 0.950 . S
C153 C170 1.574 . S
C153 C172 1.368 . S
C153 H177 0.949 . S
H154 C158 0.949 . S
C155 C156 1.349 . S
C155 C157 1.327 . S
C155 H178 0.950 . S
C156 C155 1.349 . S
C156 C168 1.349 . S
C157 C155 1.327 . S
C157 C173 1.429 . S
C157 H179 0.950 . S
C158 H154 0.949 . S
C158 C166 1.574 . S
C158 C174 1.368 . S
H159 C167 0.950 . S
H160 C165 0.950 . S
H161 C166 0.949 . S
H162 C168 0.950 . S
H163 C169 0.950 . S
H164 C170 0.949 . S
C165 H160 0.950 . S
C165 C167 1.327 . S
C165 C171 1.429 . S
C166 C158 1.574 . S
C166 H161 0.949 . S
C166 C172 1.368 . S
C167 C151 1.349 . S
C167 H159 0.950 . S
C167 C165 1.327 . S
C168 C156 1.349 . S
C168 H162 0.950 . S
C168 C169 1.327 . S
C169 H163 0.950 . S
C169 C168 1.327 . S
C169 C173 1.429 . S
C170 C153 1.574 . S
C170 H164 0.949 . S
C170 C174 1.368 . S
C171 C152 1.429 . S
C171 C165 1.429 . S
C171 C172 1.523 . S
C172 C153 1.368 . S
C172 C166 1.368 . S
C172 C171 1.523 . S
C173 C157 1.429 . S
C173 C169 1.429 . S
C173 C174 1.523 . S
C174 C158 1.368 . S
C174 C170 1.368 . S
C174 C173 1.523 . S
H175 C150 0.950 . S
H176 C152 0.950 . S
H177 C153 0.949 . S
H178 C155 0.950 . S
H179 C157 0.950 . S
C180 C181 1.349 . S
C180 C182 1.327 . S
C180 H205 0.950 . S
C181 C180 1.349 . S
C181 C197 1.349 . S
C182 C180 1.327 . S
C182 C201 1.429 . S
C182 H206 0.950 1_655 S
C183 C200 1.574 1_554 S
C183 C202 1.368 . S
C183 H207 0.949 . S
H184 C188 0.949 . S
C185 C186 1.349 . S
C185 C187 1.327 . S
C185 H208 0.950 . S
C186 C185 1.349 . S
C186 C198 1.349 . S
C187 C185 1.327 . S
C187 C203 1.429 . S
C187 H209 0.950 . S
C188 H184 0.949 . S
C188 C196 1.574 1_556 S
C188 C204 1.368 . S
H189 C197 0.950 . S
H190 C195 0.950 . S
H191 C196 0.949 . S
H192 C198 0.950 . S
H193 C199 0.950 . S
H194 C200 0.949 . S
C195 H190 0.950 . S
C195 C197 1.327 . S
C195 C201 1.429 . S
C196 C188 1.574 1_554 S
C196 H191 0.949 . S
C196 C202 1.368 1_455 S
C197 C181 1.349 . S
C197 H189 0.950 . S
C197 C195 1.327 . S
C198 C186 1.349 . S
C198 H192 0.950 . S
C198 C199 1.327 . S
C199 H193 0.950 . S
C199 C198 1.327 . S
C199 C203 1.429 . S
C200 C183 1.574 1_556 S
C200 H194 0.949 . S
C200 C204 1.368 1_655 S
C201 C182 1.429 . S
C201 C195 1.429 . S
C201 C202 1.523 . S
C202 C183 1.368 . S
C202 C196 1.368 1_655 S
C202 C201 1.523 . S
C203 C187 1.429 . S
C203 C199 1.429 . S
C203 C204 1.523 . S
C204 C188 1.368 . S
C204 C200 1.368 1_455 S
C204 C203 1.523 . S
H205 C180 0.950 . S
H206 C182 0.950 1_455 S
H207 C183 0.949 . S
H208 C185 0.950 . S
H209 C187 0.950 . S
C210 C211 1.349 . S
C210 C212 1.327 . S
C210 H235 0.950 . S
C211 C210 1.349 . S
C211 C227 1.349 . S
C212 C210 1.327 . S
C212 C231 1.429 . S
C212 H236 0.950 . S
C213 C230 1.574 . S
C213 C232 1.368 1_565 S
C213 H237 0.949 . S
H214 C218 0.949 . S
C215 C216 1.349 . S
C215 C217 1.327 . S
C215 H238 0.950 . S
C216 C215 1.349 . S
C216 C228 1.349 . S
C217 C215 1.327 . S
C217 C233 1.429 . S
C217 H239 0.950 . S
C218 H214 0.949 . S
C218 C226 1.574 . S
C218 C234 1.368 1_545 S
H219 C227 0.950 . S
H220 C225 0.950 . S
H221 C226 0.949 . S
H222 C228 0.950 . S
H223 C229 0.950 . S
H224 C230 0.949 . S
C225 H220 0.950 . S
C225 C227 1.327 . S
C225 C231 1.429 . S
C226 C218 1.574 . S
C226 H221 0.949 . S
C226 C232 1.368 . S
C227 C211 1.349 . S
C227 H219 0.950 . S
C227 C225 1.327 . S
C228 C216 1.349 . S
C228 H222 0.950 . S
C228 C229 1.327 . S
C229 H223 0.950 . S
C229 C228 1.327 . S
C229 C233 1.429 . S
C230 C213 1.574 . S
C230 H224 0.949 . S
C230 C234 1.368 . S
C231 C212 1.429 . S
C231 C225 1.429 . S
C231 C232 1.523 . S
C232 C213 1.368 1_545 S
C232 C226 1.368 . S
C232 C231 1.523 . S
C233 C217 1.429 . S
C233 C229 1.429 . S
C233 C234 1.523 . S
C234 C218 1.368 1_565 S
C234 C230 1.368 . S
C234 C233 1.523 . S
H235 C210 0.950 . S
H236 C212 0.950 . S
H237 C213 0.949 . S
H238 C215 0.950 . S
H239 C217 0.950 . S
C240 C241 1.349 . S
C240 C242 1.327 . S
C240 H265 0.950 . S
C241 C240 1.349 . S
C241 C257 1.349 . S
C242 C240 1.327 . S
C242 C261 1.429 . S
C242 H266 0.950 . S
C243 C260 1.574 1_556 S
C243 C262 1.368 . S
C243 H267 0.949 . S
H244 C248 0.949 . S
C245 C246 1.349 . S
C245 C247 1.327 . S
C245 H268 0.950 . S
C246 C245 1.349 . S
C246 C258 1.349 . S
C247 C245 1.327 . S
C247 C263 1.429 . S
C247 H269 0.950 . S
C248 H244 0.949 . S
C248 C256 1.574 1_554 S
C248 C264 1.368 . S
H249 C257 0.950 . S
H250 C255 0.950 . S
H251 C256 0.949 . S
H252 C258 0.950 . S
H253 C259 0.950 . S
H254 C260 0.949 . S
C255 H250 0.950 . S
C255 C257 1.327 . S
C255 C261 1.429 . S
C256 C248 1.574 1_556 S
C256 H251 0.949 . S
C256 C262 1.368 . S
C257 C241 1.349 . S
C257 H249 0.950 . S
C257 C255 1.327 . S
C258 C246 1.349 . S
C258 H252 0.950 . S
C258 C259 1.327 . S
C259 H253 0.950 . S
C259 C258 1.327 . S
C259 C263 1.429 . S
C260 C243 1.574 1_554 S
C260 H254 0.949 . S
C260 C264 1.368 . S
C261 C242 1.429 . S
C261 C255 1.429 . S
C261 C262 1.523 . S
C262 C243 1.368 . S
C262 C256 1.368 . S
C262 C261 1.523 . S
C263 C247 1.429 . S
C263 C259 1.429 . S
C263 C264 1.523 . S
C264 C248 1.368 . S
C264 C260 1.368 . S
C264 C263 1.523 . S
H265 C240 0.950 . S
H266 C242 0.950 . S
H267 C243 0.949 . S
H268 C245 0.950 . S
H269 C247 0.950 . S
C270 C271 1.349 . S
C270 C272 1.327 . S
C270 H295 0.950 . S
C271 C270 1.349 . S
C271 C287 1.349 . S
C272 C270 1.327 . S
C272 C291 1.429 . S
C272 H296 0.950 . S
C273 C290 1.574 . S
C273 C292 1.368 1_455 S
C273 H297 0.949 . S
H274 C278 0.949 . S
C275 C276 1.349 . S
C275 C277 1.327 . S
C275 H298 0.950 . S
C276 C275 1.349 . S
C276 C288 1.349 . S
C277 C275 1.327 . S
C277 C293 1.429 . S
C277 H299 0.950 . S
C278 H274 0.949 . S
C278 C286 1.574 . S
C278 C294 1.368 1_655 S
H279 C287 0.950 . S
H280 C285 0.950 . S
H281 C286 0.949 . S
H282 C288 0.950 . S
H283 C289 0.950 1_655 S
H284 C290 0.949 . S
C285 H280 0.950 . S
C285 C287 1.327 . S
C285 C291 1.429 . S
C286 C278 1.574 . S
C286 H281 0.949 . S
C286 C292 1.368 . S
C287 C271 1.349 . S
C287 H279 0.950 . S
C287 C285 1.327 . S
C288 C276 1.349 . S
C288 H282 0.950 . S
C288 C289 1.327 . S
C289 H283 0.950 1_455 S
C289 C288 1.327 . S
C289 C293 1.429 . S
C290 C273 1.574 . S
C290 H284 0.949 . S
C290 C294 1.368 . S
C291 C272 1.429 . S
C291 C285 1.429 . S
C291 C292 1.523 . S
C292 C273 1.368 1_655 S
C292 C286 1.368 . S
C292 C291 1.523 . S
C293 C277 1.429 . S
C293 C289 1.429 . S
C293 C294 1.523 . S
C294 C278 1.368 1_455 S
C294 C290 1.368 . S
C294 C293 1.523 . S
H295 C270 0.950 . S
H296 C272 0.950 . S
H297 C273 0.949 . S
H298 C275 0.950 . S
H299 C277 0.950 . S
C300 C301 1.349 . S
C300 C302 1.327 . S
C300 H325 0.950 . S
C301 C300 1.349 . S
C301 C317 1.349 . S
C302 C300 1.327 . S
C302 C321 1.429 . S
C302 H326 0.950 . S
C303 C320 1.574 . S
C303 C322 1.368 . S
C303 H327 0.949 . S
H304 C308 0.949 . S
C305 C306 1.349 . S
C305 C307 1.327 . S
C305 H328 0.950 . S
C306 C305 1.349 . S
C306 C318 1.349 . S
C307 C305 1.327 . S
C307 C323 1.429 . S
C307 H329 0.950 . S
C308 H304 0.949 . S
C308 C316 1.574 . S
C308 C324 1.368 . S
H309 C317 0.950 . S
H310 C315 0.950 . S
H311 C316 0.949 . S
H312 C318 0.950 . S
H313 C319 0.950 . S
H314 C320 0.949 . S
C315 H310 0.950 . S
C315 C317 1.327 . S
C315 C321 1.429 . S
C316 C308 1.574 . S
C316 H311 0.949 . S
C316 C322 1.368 . S
C317 C301 1.349 . S
C317 H309 0.950 . S
C317 C315 1.327 . S
C318 C306 1.349 . S
C318 H312 0.950 . S
C318 C319 1.327 . S
C319 H313 0.950 . S
C319 C318 1.327 . S
C319 C323 1.429 . S
C320 C303 1.574 . S
C320 H314 0.949 . S
C320 C324 1.368 . S
C321 C302 1.429 . S
C321 C315 1.429 . S
C321 C322 1.523 . S
C322 C303 1.368 . S
C322 C316 1.368 . S
C322 C321 1.523 . S
C323 C307 1.429 . S
C323 C319 1.429 . S
C323 C324 1.523 . S
C324 C308 1.368 . S
C324 C320 1.368 . S
C324 C323 1.523 . S
H325 C300 0.950 . S
H326 C302 0.950 . S
H327 C303 0.949 . S
H328 C305 0.950 . S
H329 C307 0.950 . S
C330 C331 1.349 . S
C330 C332 1.327 . S
C330 H355 0.950 . S
C331 C330 1.349 . S
C331 C347 1.349 . S
C332 C330 1.327 . S
C332 C351 1.429 . S
C332 H356 0.950 . S
C333 C350 1.574 . S
C333 C352 1.368 . S
C333 H357 0.949 . S
H334 C338 0.949 . S
C335 C336 1.349 . S
C335 C337 1.327 . S
C335 H358 0.950 . S
C336 C335 1.349 . S
C336 C348 1.349 . S
C337 C335 1.327 . S
C337 C353 1.429 . S
C337 H359 0.950 . S
C338 H334 0.949 . S
C338 C346 1.574 . S
C338 C354 1.368 . S
H339 C347 0.950 . S
H340 C345 0.950 . S
H341 C346 0.949 . S
H342 C348 0.950 . S
H343 C349 0.950 . S
H344 C350 0.949 . S
C345 H340 0.950 . S
C345 C347 1.327 . S
C345 C351 1.429 . S
C346 C338 1.574 . S
C346 H341 0.949 . S
C346 C352 1.368 . S
C347 C331 1.349 . S
C347 H339 0.950 . S
C347 C345 1.327 . S
C348 C336 1.349 . S
C348 H342 0.950 . S
C348 C349 1.327 . S
C349 H343 0.950 . S
C349 C348 1.327 . S
C349 C353 1.429 . S
C350 C333 1.574 . S
C350 H344 0.949 . S
C350 C354 1.368 . S
C351 C332 1.429 . S
C351 C345 1.429 . S
C351 C352 1.523 . S
C352 C333 1.368 . S
C352 C346 1.368 . S
C352 C351 1.523 . S
C353 C337 1.429 . S
C353 C349 1.429 . S
C353 C354 1.523 . S
C354 C338 1.368 . S
C354 C350 1.368 . S
C354 C353 1.523 . S
H355 C330 0.950 . S
H356 C332 0.950 . S
H357 C333 0.949 . S
H358 C335 0.950 . S
H359 C337 0.950 . S
C360 C361 1.349 . S
C360 C362 1.327 . S
C360 H385 0.950 . S
C361 C360 1.349 . S
C361 C377 1.349 . S
C362 C360 1.327 . S
C362 C381 1.429 . S
C362 H386 0.950 . S
C363 C380 1.574 . S
C363 C382 1.368 . S
C363 H387 0.949 . S
H364 C368 0.949 . S
C365 C366 1.349 . S
C365 C367 1.327 . S
C365 H388 0.950 . S
C366 C365 1.349 . S
C366 C378 1.349 . S
C367 C365 1.327 . S
C367 C383 1.429 . S
C367 H389 0.950 . S
C368 H364 0.949 . S
C368 C376 1.574 . S
C368 C384 1.368 . S
H369 C377 0.950 . S
H370 C375 0.950 . S
H371 C376 0.949 . S
H372 C378 0.950 . S
H373 C379 0.950 . S
H374 C380 0.949 . S
C375 H370 0.950 . S
C375 C377 1.327 . S
C375 C381 1.429 . S
C376 C368 1.574 . S
C376 H371 0.949 . S
C376 C382 1.368 . S
C377 C361 1.349 . S
C377 H369 0.950 . S
C377 C375 1.327 . S
C378 C366 1.349 . S
C378 H372 0.950 . S
C378 C379 1.327 . S
C379 H373 0.950 . S
C379 C378 1.327 . S
C379 C383 1.429 . S
C380 C363 1.574 . S
C380 H374 0.949 . S
C380 C384 1.368 . S
C381 C362 1.429 . S
C381 C375 1.429 . S
C381 C382 1.523 . S
C382 C363 1.368 . S
C382 C376 1.368 . S
C382 C381 1.523 . S
C383 C367 1.429 . S
C383 C379 1.429 . S
C383 C384 1.523 . S
C384 C368 1.368 . S
C384 C380 1.368 . S
C384 C383 1.523 . S
H385 C360 0.950 . S
H386 C362 0.950 . S
H387 C363 0.949 . S
H388 C365 0.950 . S
H389 C367 0.950 . S
C390 C391 1.349 . S
C390 C392 1.327 . S
C390 H415 0.950 . S
C391 C390 1.349 . S
C391 C407 1.349 . S
C392 C390 1.327 . S
C392 C411 1.429 . S
C392 H416 0.950 . S
C393 C410 1.574 . S
C393 C412 1.368 . S
C393 H417 0.949 . S
H394 C398 0.949 . S
C395 C396 1.349 . S
C395 C397 1.327 . S
C395 H418 0.950 . S
C396 C395 1.349 . S
C396 C408 1.349 . S
C397 C395 1.327 . S
C397 C413 1.429 . S
C397 H419 0.950 . S
C398 H394 0.949 . S
C398 C406 1.574 . S
C398 C414 1.368 . S
H399 C407 0.950 . S
H400 C405 0.950 . S
H401 C406 0.949 . S
H402 C408 0.950 . S
H403 C409 0.950 . S
H404 C410 0.949 . S
C405 H400 0.950 . S
C405 C407 1.327 . S
C405 C411 1.429 . S
C406 C398 1.574 . S
C406 H401 0.949 . S
C406 C412 1.368 . S
C407 C391 1.349 . S
C407 H399 0.950 . S
C407 C405 1.327 . S
C408 C396 1.349 . S
C408 H402 0.950 . S
C408 C409 1.327 . S
C409 H403 0.950 . S
C409 C408 1.327 . S
C409 C413 1.429 . S
C410 C393 1.574 . S
C410 H404 0.949 . S
C410 C414 1.368 . S
C411 C392 1.429 . S
C411 C405 1.429 . S
C411 C412 1.523 . S
C412 C393 1.368 . S
C412 C406 1.368 . S
C412 C411 1.523 . S
C413 C397 1.429 . S
C413 C409 1.429 . S
C413 C414 1.523 . S
C414 C398 1.368 . S
C414 C410 1.368 . S
C414 C413 1.523 . S
H415 C390 0.950 . S
H416 C392 0.950 . S
H417 C393 0.949 . S
H418 C395 0.950 . S
H419 C397 0.950 . S
C420 C421 1.349 . S
C420 C422 1.327 . S
C420 H445 0.950 . S
C421 C420 1.349 . S
C421 C437 1.349 . S
C422 C420 1.327 . S
C422 C441 1.429 . S
C422 H446 0.950 . S
C423 C440 1.574 . S
C423 C442 1.368 . S
C423 H447 0.949 . S
H424 C428 0.949 . S
C425 C426 1.349 . S
C425 C427 1.327 . S
C425 H448 0.950 . S
C426 C425 1.349 . S
C426 C438 1.349 . S
C427 C425 1.327 . S
C427 C443 1.429 . S
C427 H449 0.950 . S
C428 H424 0.949 . S
C428 C436 1.574 . S
C428 C444 1.368 . S
H429 C437 0.950 . S
H430 C435 0.950 . S
H431 C436 0.949 . S
H432 C438 0.950 . S
H433 C439 0.950 . S
H434 C440 0.949 . S
C435 H430 0.950 . S
C435 C437 1.327 . S
C435 C441 1.429 . S
C436 C428 1.574 . S
C436 H431 0.949 . S
C436 C442 1.368 . S
C437 C421 1.349 . S
C437 H429 0.950 . S
C437 C435 1.327 . S
C438 C426 1.349 . S
C438 H432 0.950 . S
C438 C439 1.327 . S
C439 H433 0.950 . S
C439 C438 1.327 . S
C439 C443 1.429 . S
C440 C423 1.574 . S
C440 H434 0.949 . S
C440 C444 1.368 . S
C441 C422 1.429 . S
C441 C435 1.429 . S
C441 C442 1.523 . S
C442 C423 1.368 . S
C442 C436 1.368 . S
C442 C441 1.523 . S
C443 C427 1.429 . S
C443 C439 1.429 . S
C443 C444 1.523 . S
C444 C428 1.368 . S
C444 C440 1.368 . S
C444 C443 1.523 . S
H445 C420 0.950 . S
H446 C422 0.950 . S
H447 C423 0.949 . S
H448 C425 0.950 . S
H449 C427 0.950 . S
C450 C451 1.349 . S
C450 C452 1.327 . S
C450 H475 0.950 . S
C451 C450 1.349 . S
C451 C467 1.349 . S
C452 C450 1.327 . S
C452 C471 1.429 . S
C452 H476 0.950 . S
C453 C470 1.574 . S
C453 C472 1.368 . S
C453 H477 0.949 . S
H454 C458 0.949 . S
C455 C456 1.349 . S
C455 C457 1.327 . S
C455 H478 0.950 . S
C456 C455 1.349 . S
C456 C468 1.349 . S
C457 C455 1.327 . S
C457 C473 1.429 . S
C457 H479 0.950 . S
C458 H454 0.949 . S
C458 C466 1.574 . S
C458 C474 1.368 . S
H459 C467 0.950 . S
H460 C465 0.950 . S
H461 C466 0.949 . S
H462 C468 0.950 . S
H463 C469 0.950 . S
H464 C470 0.949 . S
C465 H460 0.950 . S
C465 C467 1.327 . S
C465 C471 1.429 . S
C466 C458 1.574 . S
C466 H461 0.949 . S
C466 C472 1.368 . S
C467 C451 1.349 . S
C467 H459 0.950 . S
C467 C465 1.327 . S
C468 C456 1.349 . S
C468 H462 0.950 . S
C468 C469 1.327 . S
C469 H463 0.950 . S
C469 C468 1.327 . S
C469 C473 1.429 . S
C470 C453 1.574 . S
C470 H464 0.949 . S
C470 C474 1.368 . S
C471 C452 1.429 . S
C471 C465 1.429 . S
C471 C472 1.523 . S
C472 C453 1.368 . S
C472 C466 1.368 . S
C472 C471 1.523 . S
C473 C457 1.429 . S
C473 C469 1.429 . S
C473 C474 1.523 . S
C474 C458 1.368 . S
C474 C470 1.368 . S
C474 C473 1.523 . S
H475 C450 0.950 . S
H476 C452 0.950 . S
H477 C453 0.949 . S
H478 C455 0.950 . S
H479 C457 0.950 . S
C480 C481 1.349 . S
C480 C482 1.327 . S
C480 H505 0.950 . S
C481 C480 1.349 . S
C481 C497 1.349 . S
C482 C480 1.327 . S
C482 C501 1.429 . S
C482 H506 0.950 . S
C483 C500 1.574 . S
C483 C502 1.368 . S
C483 H507 0.949 . S
H484 C488 0.949 . S
C485 C486 1.349 . S
C485 C487 1.327 . S
C485 H508 0.947 1_455 S
C486 C485 1.349 . S
C486 C498 1.349 . S
C487 C485 1.327 . S
C487 C503 1.429 . S
C487 H509 0.950 . S
C488 H484 0.949 . S
C488 C496 1.574 . S
C488 C504 1.368 . S
H489 C497 0.950 . S
H490 C495 0.950 . S
H491 C496 0.949 . S
H492 C498 0.950 . S
H493 C499 0.950 . S
H494 C500 0.949 . S
C495 H490 0.950 . S
C495 C497 1.327 . S
C495 C501 1.429 . S
C496 C488 1.574 . S
C496 H491 0.949 . S
C496 C502 1.368 . S
C497 C481 1.349 . S
C497 H489 0.950 . S
C497 C495 1.327 . S
C498 C486 1.349 . S
C498 H492 0.950 . S
C498 C499 1.327 . S
C499 H493 0.950 . S
C499 C498 1.327 . S
C499 C503 1.429 . S
C500 C483 1.574 . S
C500 H494 0.949 . S
C500 C504 1.368 . S
C501 C482 1.429 . S
C501 C495 1.429 . S
C501 C502 1.523 . S
C502 C483 1.368 . S
C502 C496 1.368 . S
C502 C501 1.523 . S
C503 C487 1.429 . S
C503 C499 1.429 . S
C503 C504 1.523 . S
C504 C488 1.368 . S
C504 C500 1.368 . S
C504 C503 1.523 . S
H505 C480 0.950 . S
H506 C482 0.950 . S
H507 C483 0.949 . S
H508 C485 0.947 1_655 S
H509 C487 0.950 . S
C510 C511 1.349 . S
C510 C512 1.327 . S
C510 H535 0.950 . S
C511 C510 1.349 . S
C511 C527 1.349 . S
C512 C510 1.327 . S
C512 C531 1.429 . S
C512 H536 0.950 . S
C513 C530 1.574 . S
C513 C532 1.368 . S
C513 H537 0.949 . S
H514 C518 0.949 . S
C515 C516 1.349 . S
C515 C517 1.327 . S
C515 H538 0.950 . S
C516 C515 1.349 . S
C516 C528 1.349 . S
C517 C515 1.327 . S
C517 C533 1.429 . S
C517 H539 0.950 . S
C518 H514 0.949 . S
C518 C526 1.574 . S
C518 C534 1.368 . S
H519 C527 0.950 . S
H520 C525 0.950 . S
H521 C526 0.949 . S
H522 C528 0.950 . S
H523 C529 0.950 . S
H524 C530 0.949 . S
C525 H520 0.950 . S
C525 C527 1.327 . S
C525 C531 1.429 . S
C526 C518 1.574 . S
C526 H521 0.949 . S
C526 C532 1.368 . S
C527 C511 1.349 . S
C527 H519 0.950 . S
C527 C525 1.327 . S
C528 C516 1.349 . S
C528 H522 0.950 . S
C528 C529 1.327 . S
C529 H523 0.950 . S
C529 C528 1.327 . S
C529 C533 1.429 . S
C530 C513 1.574 . S
C530 H524 0.949 . S
C530 C534 1.368 . S
C531 C512 1.429 . S
C531 C525 1.429 . S
C531 C532 1.523 1_655 S
C532 C513 1.368 . S
C532 C526 1.368 . S
C532 C531 1.523 1_455 S
C533 C517 1.429 . S
C533 C529 1.429 . S
C533 C534 1.523 . S
C534 C518 1.368 . S
C534 C530 1.368 . S
C534 C533 1.523 . S
H535 C510 0.950 . S
H536 C512 0.950 . S
H537 C513 0.949 . S
H538 C515 0.950 . S
H539 C517 0.950 . S
C540 C541 1.349 . S
C540 C542 1.327 . S
C540 H565 0.950 . S
C541 C540 1.349 . S
C541 C557 1.349 . S
C542 C540 1.327 . S
C542 C561 1.429 . S
C542 H566 0.950 . S
C543 C560 1.574 . S
C543 C562 1.368 . S
C543 H567 0.949 . S
H544 C548 0.949 . S
C545 C546 1.349 . S
C545 C547 1.327 . S
C545 H568 0.950 . S
C546 C545 1.349 . S
C546 C558 1.349 . S
C547 C545 1.327 . S
C547 C563 1.429 . S
C547 H569 0.950 . S
C548 H544 0.949 . S
C548 C556 1.574 . S
C548 C564 1.368 . S
H549 C557 0.950 . S
H550 C555 0.950 . S
H551 C556 0.949 . S
H552 C558 0.950 . S
H553 C559 0.950 . S
H554 C560 0.949 . S
C555 H550 0.950 . S
C555 C557 1.327 . S
C555 C561 1.429 . S
C556 C548 1.574 . S
C556 H551 0.949 . S
C556 C562 1.368 . S
C557 C541 1.349 . S
C557 H549 0.950 . S
C557 C555 1.327 . S
C558 C546 1.349 . S
C558 H552 0.950 . S
C558 C559 1.327 . S
C559 H553 0.950 . S
C559 C558 1.327 . S
C559 C563 1.429 . S
C560 C543 1.574 . S
C560 H554 0.949 . S
C560 C564 1.368 . S
C561 C542 1.429 . S
C561 C555 1.429 . S
C561 C562 1.523 1_545 S
C562 C543 1.368 . S
C562 C556 1.368 . S
C562 C561 1.523 1_565 S
C563 C547 1.429 . S
C563 C559 1.429 . S
C563 C564 1.523 . S
C564 C548 1.368 . S
C564 C560 1.368 . S
C564 C563 1.523 . S
H565 C540 0.950 . S
H566 C542 0.950 . S
H567 C543 0.949 . S
H568 C545 0.950 . S
H569 C547 0.950 . S
C570 C571 1.349 . S
C570 C572 1.327 . S
C570 H595 0.950 . S
C571 C570 1.349 . S
C571 C587 1.349 . S
C572 C570 1.327 . S
C572 C591 1.429 . S
C572 H596 0.950 . S
C573 C590 1.574 . S
C573 C592 1.368 . S
C573 H597 0.949 . S
H574 C578 0.949 . S
C575 C576 1.349 . S
C575 C577 1.327 . S
C575 H598 0.950 . S
C576 C575 1.349 . S
C576 C588 1.349 . S
C577 C575 1.327 . S
C577 C593 1.429 . S
C577 H599 0.950 . S
C578 H574 0.949 . S
C578 C586 1.574 . S
C578 C594 1.368 . S
H579 C587 0.950 . S
H580 C585 0.950 . S
H581 C586 0.949 . S
H582 C588 0.950 1_565 S
H583 C589 0.950 . S
H584 C590 0.949 . S
C585 H580 0.950 . S
C585 C587 1.327 . S
C585 C591 1.429 . S
C586 C578 1.574 . S
C586 H581 0.949 . S
C586 C592 1.368 . S
C587 C571 1.349 . S
C587 H579 0.950 . S
C587 C585 1.327 . S
C588 C576 1.349 . S
C588 H582 0.950 1_545 S
C588 C589 1.327 . S
C589 H583 0.950 . S
C589 C588 1.327 . S
C589 C593 1.429 . S
C590 C573 1.574 . S
C590 H584 0.949 . S
C590 C594 1.368 . S
C591 C572 1.429 . S
C591 C585 1.429 . S
C591 C592 1.523 . S
C592 C573 1.368 . S
C592 C586 1.368 . S
C592 C591 1.523 . S
C593 C577 1.429 . S
C593 C589 1.429 . S
C593 C594 1.523 . S
C594 C578 1.368 . S
C594 C590 1.368 . S
C594 C593 1.523 . S
H595 C570 0.950 . S
H596 C572 0.950 . S
H597 C573 0.949 . S
H598 C575 0.950 . S
H599 C577 0.950 . S
C600 C601 1.349 . S
C600 C602 1.327 . S
C600 H625 0.950 . S
C601 C600 1.349 . S
C601 C617 1.349 . S
C602 C600 1.327 . S
C602 C621 1.429 . S
C602 H626 0.950 . S
C603 C620 1.574 . S
C603 C622 1.368 . S
C603 H627 0.949 . S
H604 C608 0.949 . S
C605 C606 1.349 . S
C605 C607 1.327 . S
C605 H628 0.950 . S
C606 C605 1.349 . S
C606 C618 1.349 . S
C607 C605 1.327 . S
C607 C623 1.429 . S
C607 H629 0.950 . S
C608 H604 0.949 . S
C608 C616 1.574 . S
C608 C624 1.368 . S
H609 C617 0.950 . S
H610 C615 0.950 . S
H611 C616 0.949 . S
H612 C618 0.950 . S
H613 C619 0.950 . S
H614 C620 0.949 . S
C615 H610 0.950 . S
C615 C617 1.327 . S
C615 C621 1.429 . S
C616 C608 1.574 . S
C616 H611 0.949 . S
C616 C622 1.368 . S
C617 C601 1.349 . S
C617 H609 0.950 . S
C617 C615 1.327 . S
C618 C606 1.349 . S
C618 H612 0.950 . S
C618 C619 1.327 . S
C619 H613 0.950 . S
C619 C618 1.327 . S
C619 C623 1.429 . S
C620 C603 1.574 . S
C620 H614 0.949 . S
C620 C624 1.368 . S
C621 C602 1.429 . S
C621 C615 1.429 . S
C621 C622 1.523 1_455 S
C622 C603 1.368 . S
C622 C616 1.368 . S
C622 C621 1.523 1_655 S
C623 C607 1.429 . S
C623 C619 1.429 . S
C623 C624 1.523 . S
C624 C608 1.368 . S
C624 C620 1.368 . S
C624 C623 1.523 . S
H625 C600 0.950 . S
H626 C602 0.950 . S
H627 C603 0.949 . S
H628 C605 0.950 . S
H629 C607 0.950 . S
C630 C631 1.349 . S
C630 C632 1.327 . S
C630 H655 0.950 1_655 S
C631 C630 1.349 . S
C631 C647 1.349 . S
C632 C630 1.327 . S
C632 C651 1.429 . S
C632 H656 0.950 . S
C633 C650 1.574 . S
C633 C652 1.368 . S
C633 H657 0.949 . S
H634 C638 0.949 . S
C635 C636 1.349 . S
C635 C637 1.327 . S
C635 H658 0.950 . S
C636 C635 1.349 . S
C636 C648 1.349 . S
C637 C635 1.327 . S
C637 C653 1.429 . S
C637 H659 0.950 . S
C638 H634 0.949 . S
C638 C646 1.574 . S
C638 C654 1.368 . S
H639 C647 0.950 . S
H640 C645 0.950 . S
H641 C646 0.949 . S
H642 C648 0.950 . S
H643 C649 0.950 . S
H644 C650 0.949 . S
C645 H640 0.950 . S
C645 C647 1.327 . S
C645 C651 1.429 . S
C646 C638 1.574 . S
C646 H641 0.949 . S
C646 C652 1.368 . S
C647 C631 1.349 . S
C647 H639 0.950 . S
C647 C645 1.327 . S
C648 C636 1.349 . S
C648 H642 0.950 . S
C648 C649 1.327 . S
C649 H643 0.950 . S
C649 C648 1.327 . S
C649 C653 1.429 . S
C650 C633 1.574 . S
C650 H644 0.949 . S
C650 C654 1.368 . S
C651 C632 1.429 . S
C651 C645 1.429 . S
C651 C652 1.523 . S
C652 C633 1.368 . S
C652 C646 1.368 . S
C652 C651 1.523 . S
C653 C637 1.429 . S
C653 C649 1.429 . S
C653 C654 1.523 1_565 S
C654 C638 1.368 . S
C654 C650 1.368 . S
C654 C653 1.523 1_545 S
H655 C630 0.950 1_455 S
H656 C632 0.950 . S
H657 C633 0.949 . S
H658 C635 0.950 . S
H659 C637 0.950 . S
C121 C99 2.210 . S
C126 C18 2.155 . S
C151 C118 2.143 . S
C156 C39 2.211 . S
C181 C58 2.155 . S
C186 C79 2.210 . S
C211 C19 2.211 . S
C216 C98 2.143 . S
C241 C119 2.210 . S
C246 C38 2.155 . S
C271 C59 2.211 . S
C276 C78 2.143 . S
C301 C4 1.394 . S
C306 C52 1.615 . S
C331 C24 1.394 . S
C336 C12 1.615 . S
C361 C44 1.394 . S
C366 C32 1.615 . S
C391 C69 1.484 . S
C396 C82 1.601 . S
C421 C89 1.484 . S
C426 C102 1.601 . S
C451 C62 1.601 . S
C456 C109 1.484 . S
C481 C2 0.784 . S
C486 C49 0.775 . S
C511 C22 0.784 . S
C516 C9 0.775 . S
C541 C42 0.784 . S
C546 C29 0.775 . S
C571 C72 0.778 . S
C576 C84 0.764 1_545 S
C601 C92 0.778 . S
C606 C104 0.764 . S
C631 C64 0.764 1_655 S
C636 C112 0.778 . S
