# Generated by pormake.
# Topology ukg, (4)-cn, num edge types: 1
# Building blocks:
#     Node 0, Type 0, BuildingBlock: MUDLON_clean_sbu_0, # of connection points: 4
#     Node 1, Type 0, BuildingBlock: MUDLON_clean_sbu_0, # of connection points: 4
#     Node 2, Type 0, BuildingBlock: MUDLON_clean_sbu_0, # of connection points: 4
#     Node 3, Type 0, BuildingBlock: MUDLON_clean_sbu_0, # of connection points: 4
#     Node 4, Type 0, BuildingBlock: MUDLON_clean_sbu_0, # of connection points: 4
#     Node 5, Type 0, BuildingBlock: MUDLON_clean_sbu_0, # of connection points: 4
#     Node 6, Type 0, BuildingBlock: MUDLON_clean_sbu_0, # of connection points: 4
#     Node 7, Type 0, BuildingBlock: MUDLON_clean_sbu_0, # of connection points: 4
#     Edge 8, Type (0, 0), BuildingBlock: CIFDUS_clean_linker_0, # of connection points: 2
#     Edge 9, Type (0, 0), BuildingBlock: CIFDUS_clean_linker_0, # of connection points: 2
#     Edge 10, Type (0, 0), BuildingBlock: CIFDUS_clean_linker_0, # of connection points: 2
#     Edge 11, Type (0, 0), BuildingBlock: CIFDUS_clean_linker_0, # of connection points: 2
#     Edge 12, Type (0, 0), BuildingBlock: CIFDUS_clean_linker_0, # of connection points: 2
#     Edge 13, Type (0, 0), BuildingBlock: CIFDUS_clean_linker_0, # of connection points: 2
#     Edge 14, Type (0, 0), BuildingBlock: CIFDUS_clean_linker_0, # of connection points: 2
#     Edge 15, Type (0, 0), BuildingBlock: CIFDUS_clean_linker_0, # of connection points: 2
#     Edge 16, Type (0, 0), BuildingBlock: CIFDUS_clean_linker_0, # of connection points: 2
#     Edge 17, Type (0, 0), BuildingBlock: CIFDUS_clean_linker_0, # of connection points: 2
#     Edge 18, Type (0, 0), BuildingBlock: CIFDUS_clean_linker_0, # of connection points: 2
#     Edge 19, Type (0, 0), BuildingBlock: CIFDUS_clean_linker_0, # of connection points: 2
#     Edge 20, Type (0, 0), BuildingBlock: CIFDUS_clean_linker_0, # of connection points: 2
#     Edge 21, Type (0, 0), BuildingBlock: CIFDUS_clean_linker_0, # of connection points: 2
#     Edge 22, Type (0, 0), BuildingBlock: CIFDUS_clean_linker_0, # of connection points: 2
#     Edge 23, Type (0, 0), BuildingBlock: CIFDUS_clean_linker_0, # of connection points: 2
# Relax obj value: 0.085
# Max RMSD: 0.240
# Mean RMSD: 0.240
data_MOF--net-ukg--node1-MUDLON_clean_sbu_0--edge1-CIFDUS_clean_linker_0
_symmetry_space_group_name_H-M    P1
_symmetry_Int_Tables_number       1
_symmetry_cell_setting            triclinic
loop_
_symmetry_equiv_pos_as_xyz
'x, y, z'
_cell_length_a     28.525478
_cell_length_b     28.4934
_cell_length_c     33.035916
_cell_angle_alpha  89.272878
_cell_angle_beta   90.728196
_cell_angle_gamma 89.888469
loop_
_atom_site_label
_atom_site_type_symbol
_atom_site_fract_x
_atom_site_fract_y
_atom_site_fract_z
_atom_type_partial_charge
Mg0 Mg 0.04552 0.68278 0.16105 0.0
C1 C 0.99705 0.65666 0.23871 0.0
O2 O 0.99181 0.70245 0.23938 0.0
C3 C 0.14581 0.69396 0.13545 0.0
O4 O 0.12802 0.67431 0.10296 0.0
C5 C 0.03196 0.6015 0.10464 0.0
O6 O 0.04277 0.57847 0.13819 0.0
O7 O 0.03062 0.64612 0.10509 0.0
O8 O 0.02088 0.63862 0.21055 0.0
O9 O 1.00492 0.74717 0.16254 0.0
C10 C 0.0231 0.7843 0.17671 0.0
O11 O 0.06755 0.7838 0.18762 0.0
O12 O 0.11958 0.70037 0.16571 0.0
Mg13 Mg 0.34396 0.53902 0.66429 0.0
C14 C 0.36605 0.45695 0.71392 0.0
O15 O 0.3392 0.4419 0.68422 0.0
C16 C 0.34541 0.64223 0.64454 0.0
O17 O 0.36675 0.6256 0.61277 0.0
C18 C 0.42838 0.53385 0.61106 0.0
O19 O 0.44797 0.54935 0.64452 0.0
O20 O 0.38449 0.52612 0.61037 0.0
O21 O 0.3767 0.5003 0.71456 0.0
O22 O 0.27468 0.5084 0.65902 0.0
C23 C 0.24292 0.5244 0.6817 0.0
O24 O 0.25216 0.56157 0.70352 0.0
O25 O 0.33384 0.61404 0.67282 0.0
Mg26 Mg 0.48564 0.86371 0.1765 0.0
C27 C 0.54467 0.89259 0.24874 0.0
O28 O 0.55318 0.84727 0.24988 0.0
C29 C 0.39611 0.81747 0.15708 0.0
O30 O 0.42304 0.80629 0.12666 0.0
C31 C 0.52815 0.90212 0.09939 0.0
O32 O 0.56163 0.87256 0.11007 0.0
O33 O 0.49157 0.90438 0.1208 0.0
O34 O 0.51472 0.90859 0.22322 0.0
O35 O 0.52829 0.80028 0.17602 0.0
C36 C 0.51357 0.76379 0.19442 0.0
O37 O 0.47188 0.76482 0.21082 0.0
O38 O 0.41286 0.84368 0.18456 0.0
Mg39 Mg 0.17014 0.98177 0.66715 0.0
C40 C 0.14019 0.03835 0.73942 0.0
O41 O 0.18553 0.04597 0.74173 0.0
C42 C 0.22011 0.89265 0.65293 0.0
O43 O 0.2359 0.92042 0.62413 0.0
C44 C 0.1068 0.02694 0.60511 0.0
O45 O 0.11003 0.06049 0.63193 0.0
O46 O 0.13041 0.98947 0.61088 0.0
O47 O 0.12456 1.00989 0.71318 0.0
O48 O 0.2339 0.02369 0.66744 0.0
C49 C 0.26875 1.00873 0.68832 0.0
O50 O 0.26545 0.96795 0.70705 0.0
O51 O 0.18952 0.90858 0.67686 0.0
Mg52 Mg 0.98146 0.35251 0.85897 0.0
C53 C 1.00536 0.25365 0.83421 0.0
O54 O 0.96431 0.25815 0.8161 0.0
C55 C 0.98478 0.42828 0.92005 0.0
O56 O 0.97447 0.45193 0.8867 0.0
C57 C 0.88662 0.30913 0.86512 0.0
O58 O 0.90931 0.28658 0.89428 0.0
O59 O 0.90816 0.34026 0.84476 0.0
O60 O 0.02098 0.28736 0.85532 0.0
O61 O 1.01209 0.40193 0.81665 0.0
C62 C 0.03378 0.38879 0.78539 0.0
O63 O 0.0349 0.34394 0.77672 0.0
O64 O 0.98909 0.3839 0.91828 0.0
Mg65 Mg 0.69195 0.50777 0.37519 0.0
C66 C 0.79574 0.52954 0.36169 0.0
O67 O 0.79927 0.48362 0.3607 0.0
C68 C 0.61352 0.51058 0.43271 0.0
O69 O 0.59449 0.49026 0.40104 0.0
C70 C 0.72167 0.4092 0.34688 0.0
O71 O 0.73113 0.43041 0.3124 0.0
O72 O 0.70504 0.43276 0.3758 0.0
O73 O 0.75629 0.5481 0.36933 0.0
O74 O 0.64439 0.5312 0.32717 0.0
C75 C 0.6588 0.55741 0.29849 0.0
O76 O 0.70393 0.56568 0.29562 0.0
O77 O 0.6563 0.52293 0.43116 0.0
Mg78 Mg 0.52762 0.17746 0.86722 0.0
C79 C 0.50618 0.28406 0.8628 0.0
O80 O 0.54832 0.28912 0.87861 0.0
C81 C 0.53541 0.10181 0.92737 0.0
O82 O 0.5663 0.09112 0.89977 0.0
C83 C 0.62376 0.21609 0.8428 0.0
O84 O 0.59969 0.23804 0.81412 0.0
O85 O 0.60265 0.18878 0.86716 0.0
O86 O 0.48959 0.24302 0.8583 0.0
O87 O 0.50384 0.13103 0.81966 0.0
C88 C 0.47878 0.14647 0.79026 0.0
O89 O 0.4722 0.19194 0.78627 0.0
O90 O 0.51189 0.13956 0.92282 0.0
Mg91 Mg 0.86526 0.05284 0.35434 0.0
C92 C 0.764 0.02837 0.33825 0.0
O93 O 0.76579 0.06984 0.32054 0.0
C94 C 0.92896 1.00912 0.41662 0.0
O95 O 0.92467 0.97486 0.39059 0.0
C96 C 0.82283 0.14795 0.36389 0.0
O97 O 0.80715 0.12619 0.3963 0.0
O98 O 0.84953 0.12581 0.34022 0.0
O99 O 0.80044 1.01261 0.35646 0.0
O100 O 0.90886 0.02202 0.3084 0.0
C101 C 0.89165 0.99457 0.28211 0.0
O102 O 0.84607 0.98818 0.2807 0.0
O103 O 0.90595 0.04686 0.41027 0.0
H104 H 0.98406 0.52248 0.93137 0.0
H105 H 1.00495 0.39068 0.99503 0.0
H106 H 0.02114 0.43268 0.05772 0.0
H107 H 0.0303 0.50684 0.09421 0.0
H108 H 1.00988 0.63844 0.03006 0.0
H109 H 0.99265 0.59634 0.96779 0.0
C110 C 0.99199 0.50283 0.95895 0.0
C111 C 0.99326 0.45345 0.95843 0.0
C112 C 1.0015 0.52717 0.9948 0.0
C113 C 1.00373 0.42868 0.99451 0.0
C114 C 1.01304 0.45268 0.03039 0.0
C115 C 0.02207 0.52636 0.06663 0.0
C116 C 0.02144 0.57578 0.06689 0.0
C117 C 1.01221 0.50193 0.03084 0.0
C118 C 1.01064 0.60043 0.03082 0.0
C119 C 1.00076 0.57638 0.99514 0.0
H120 H 0.52107 0.55301 0.60124 0.0
H121 H 0.39957 0.49853 0.53842 0.0
H122 H 0.44616 0.48677 0.47794 0.0
H123 H 0.52115 0.49178 0.4429 0.0
H124 H 0.64272 0.54681 0.50517 0.0
H125 H 0.5962 0.55858 0.56586 0.0
C126 C 0.50475 0.5385 0.57435 0.0
C127 C 0.45686 0.5266 0.57446 0.0
C128 C 0.53172 0.53197 0.53956 0.0
C129 C 0.43632 0.50799 0.53925 0.0
C130 C 0.46295 0.50125 0.50461 0.0
C131 C 0.53757 0.50636 0.46972 0.0
C132 C 0.58542 0.51832 0.46945 0.0
C133 C 0.51064 0.5131 0.50444 0.0
C134 C 0.60598 0.5373 0.50449 0.0
C135 C 0.5794 0.54401 0.53924 0.0
H136 H 0.47613 0.97962 0.07944 0.0
H137 H 0.59468 0.89771 0.04105 0.0
H138 H 0.60719 0.95235 0.98477 0.0
H139 H 0.5852 0.0235 0.9469 0.0
H140 H 0.46796 0.10696 0.98565 0.0
H141 H 0.45441 0.05165 0.04154 0.0
C142 C 0.50454 0.97356 0.05862 0.0
C143 C 0.53433 0.93448 0.06441 0.0
C144 C 0.51195 1.00551 0.02656 0.0
C145 C 0.57123 0.92745 0.03735 0.0
C146 C 0.57845 0.95871 1.00515 0.0
C147 C 0.55664 0.02971 0.96754 0.0
C148 C 0.52761 0.06934 0.96203 0.0
C149 C 0.54917 0.99793 0.99959 0.0
C150 C 0.49091 0.07682 0.98921 0.0
C151 C 0.48307 0.04513 0.02113 0.0
H152 H 0.95398 0.07627 0.47093 0.0
H153 H 0.98026 0.93209 0.4394 0.0
H154 H 0.03836 0.92523 0.49395 0.0
H155 H 0.08207 0.96006 0.55057 0.0
H156 H 0.05568 0.10413 0.58231 0.0
H157 H 0.9977 0.11111 0.52762 0.0
C158 C 0.97224 0.04328 0.47609 0.0
C159 C 0.96262 1.00477 0.45106 0.0
C160 C 1.00591 0.03958 0.50743 0.0
C161 C 0.98684 0.96234 0.45815 0.0
C162 C 0.02022 0.95837 0.48933 0.0
C163 C 0.06384 0.99308 0.54541 0.0
C164 C 0.07337 0.03151 0.57052 0.0
C165 C 0.03019 0.99679 0.51406 0.0
C166 C 0.04915 0.07394 0.56348 0.0
C167 C 1.01585 0.07798 0.53222 0.0
H168 H 0.18888 0.75006 0.19109 0.0
H169 H 0.21256 0.67743 0.07921 0.0
H170 H 0.29172 0.70917 0.07631 0.0
H171 H 0.35359 0.75859 0.10443 0.0
H172 H 0.33077 0.83225 0.21585 0.0
H173 H 0.25185 0.79914 0.21991 0.0
C174 C 0.21149 0.74091 0.16623 0.0
C175 C 0.19472 0.71136 0.13541 0.0
C176 C 0.25701 0.75969 0.1645 0.0
C177 C 0.22443 0.70012 0.10331 0.0
C178 C 0.26975 0.7183 0.10157 0.0
C179 C 0.33144 0.76751 0.12965 0.0
C180 C 0.34809 0.798 0.15972 0.0
C181 C 0.28625 0.74837 0.1318 0.0
C182 C 0.31883 0.80898 0.19221 0.0
C183 C 0.2737 0.78999 0.19459 0.0
H184 H 0.28014 0.68298 0.69277 0.0
H185 H 0.3761 0.71303 0.59584 0.0
H186 H 0.34621 0.79308 0.59051 0.0
H187 H 0.29078 0.85339 0.611 0.0
H188 H 0.19354 0.82416 0.70708 0.0
H189 H 0.2259 0.74491 0.71498 0.0
C190 C 0.29489 0.70723 0.67084 0.0
C191 C 0.33028 0.69196 0.64469 0.0
C192 C 0.27699 0.7532 0.66745 0.0
C193 C 0.34875 0.72376 0.61623 0.0
C194 C 0.33161 0.76956 0.61308 0.0
C195 C 0.27656 0.82977 0.63372 0.0
C196 C 0.23954 0.84465 0.65821 0.0
C197 C 0.29529 0.78441 0.63808 0.0
C198 C 0.22189 0.81358 0.68768 0.0
C199 C 0.24044 0.76826 0.69226 0.0
H200 H 0.6769 0.28304 0.80563 0.0
H201 H 0.684 0.17128 0.89506 0.0
H202 H 0.76572 0.19013 0.90952 0.0
H203 H 0.83451 0.23944 0.89835 0.0
H204 H 0.82811 0.3516 0.80937 0.0
H205 H 0.74679 0.3315 0.7933 0.0
C206 C 0.69642 0.26258 0.82805 0.0
C207 C 0.67424 0.22587 0.84925 0.0
C208 C 0.74346 0.27385 0.83655 0.0
C209 C 0.70008 0.19983 0.87834 0.0
C210 C 0.74685 0.2106 0.88671 0.0
C211 C 0.81539 0.25956 0.87545 0.0
C212 C 0.83735 0.2971 0.85526 0.0
C213 C 0.76874 0.2478 0.86631 0.0
C214 C 0.81204 0.32259 0.82548 0.0
C215 C 0.76553 0.31109 0.81623 0.0
H216 H 0.77707 0.35364 0.30065 0.0
H217 H 0.69411 0.35254 0.40908 0.0
H218 H 0.71786 0.27181 0.42359 0.0
H219 H 0.76367 0.20231 0.40677 0.0
H220 H 0.84782 0.20295 0.29909 0.0
H221 H 0.82224 0.28307 0.28317 0.0
C222 C 0.76389 0.33559 0.32726 0.0
C223 C 0.73389 0.35918 0.35373 0.0
C224 C 0.77817 0.2892 0.33578 0.0
C225 C 0.71737 0.33534 0.38824 0.0
C226 C 0.73097 0.28914 0.39663 0.0
C227 C 0.7765 0.2199 0.3798 0.0
C228 C 0.80776 0.19665 0.35427 0.0
C229 C 0.7617 0.26591 0.37085 0.0
C230 C 0.82384 0.22004 0.31938 0.0
C231 C 0.80916 0.26586 0.31019 0.0
H232 H 0.8761 0.50161 0.32548 0.0
H233 H 0.8031 0.62486 0.3662 0.0
H234 H 0.86234 0.67502 0.33533 0.0
H235 H 0.93018 0.68403 0.29126 0.0
H236 H 1.00086 0.56102 0.24726 0.0
H237 H 0.94751 0.51067 0.28536 0.0
C238 C 0.87352 0.53942 0.32819 0.0
C239 C 0.83501 0.55942 0.34792 0.0
C240 C 0.90713 0.56813 0.30952 0.0
C241 C 0.83221 0.60851 0.351 0.0
C242 C 0.86604 0.63725 0.33328 0.0
C243 C 0.93444 0.64622 0.29044 0.0
C244 C 0.96929 0.62637 0.26616 0.0
C245 C 0.90297 0.61748 0.31161 0.0
C246 C 0.9742 0.57727 0.26551 0.0
C247 C 0.94362 0.54843 0.28721 0.0
H248 H 0.4394 0.46677 0.76785 0.0
H249 H 0.3315 0.37038 0.72941 0.0
H250 H 0.36251 0.31036 0.77532 0.0
H251 H 0.42323 0.2828 0.82206 0.0
H252 H 0.53404 0.37632 0.85933 0.0
H253 H 0.49848 0.43992 0.81891 0.0
C254 C 0.42245 0.43281 0.76995 0.0
C255 C 0.38347 0.42299 0.74491 0.0
C256 C 0.44098 0.39781 0.79616 0.0
C257 C 0.36188 0.37878 0.74794 0.0
C258 C 0.37951 0.34435 0.77428 0.0
C259 C 0.43944 0.31721 0.82186 0.0
C260 C 0.48147 0.32456 0.84351 0.0
C261 C 0.41953 0.35314 0.79788 0.0
C262 C 0.50172 0.36955 0.84288 0.0
C263 C 0.48152 0.40593 0.8196 0.0
H264 H 0.61712 0.8701 0.29987 0.0
H265 H 0.54316 0.98859 0.24681 0.0
H266 H 0.60267 0.04167 0.27346 0.0
H267 H 0.67986 0.05349 0.30517 0.0
H268 H 0.75486 0.93497 0.35691 0.0
H269 H 0.69053 0.88301 0.33773 0.0
C270 C 0.61355 0.9076 0.29465 0.0
C271 C 0.57596 0.92519 0.27089 0.0
C272 C 0.64835 0.93793 0.30949 0.0
C273 C 0.57182 0.97396 0.26475 0.0
C274 C 0.60598 1.00439 0.27984 0.0
C275 C 0.68195 1.01638 0.31271 0.0
C276 C 0.72243 0.9981 0.33198 0.0
C277 C 0.64509 0.98661 0.30118 0.0
C278 C 0.72425 0.94999 0.34192 0.0
C279 C 0.68752 0.92019 0.33083 0.0
H280 H 0.98011 0.17379 0.79559 0.0
H281 H 0.09778 0.24064 0.85452 0.0
H282 H 0.14913 0.17681 0.83394 0.0
H283 H 0.16201 0.10623 0.79368 0.0
H284 H 0.04446 0.04021 0.73379 0.0
H285 H 0.99166 0.09915 0.76083 0.0
C286 C 1.01689 0.1742 0.80431 0.0
C287 C 0.03515 0.21227 0.82613 0.0
C288 C 0.04632 0.13758 0.7921 0.0
C289 C 0.0828 0.21191 0.83756 0.0
C290 C 0.11225 0.17547 0.82571 0.0
C291 C 0.12475 0.10427 0.78701 0.0
C292 C 0.10739 0.06909 0.76134 0.0
C293 C 0.09461 0.13872 0.80216 0.0
C294 C 0.0589 0.06697 0.75329 0.0
C295 C 0.02865 0.10083 0.7686 0.0
H296 H 0.09235 0.37108 0.72287 0.0
H297 H 0.04196 0.48294 0.79796 0.0
H298 H 0.0991 0.53651 0.76863 0.0
H299 H 0.16889 0.54916 0.72758 0.0
H300 H 0.22099 0.43698 0.65382 0.0
H301 H 0.15722 0.38631 0.67627 0.0
C302 C 0.09336 0.40735 0.73239 0.0
C303 C 0.06332 0.42271 0.763 0.0
C304 C 0.12683 0.43791 0.71582 0.0
C305 C 0.06492 0.46998 0.77473 0.0
C306 C 0.09768 0.50069 0.75804 0.0
C307 C 0.16593 0.51387 0.71591 0.0
C308 C 0.20002 0.49675 0.68947 0.0
C309 C 0.12969 0.48465 0.72947 0.0
C310 C 0.19536 0.45105 0.67433 0.0
C311 C 0.15901 0.42193 0.68732 0.0
H312 H 0.67769 0.62563 0.24259 0.0
H313 H 0.56311 0.55254 0.29961 0.0
H314 H 0.50737 0.60749 0.26845 0.0
H315 H 0.4921 0.68133 0.23177 0.0
H316 H 0.60674 0.75609 0.17655 0.0
H317 H 0.66135 0.6951 0.19989 0.0
C318 C 0.64047 0.62119 0.24769 0.0
C319 C 0.62474 0.58533 0.27389 0.0
C320 C 0.6086 0.6535 0.23031 0.0
C321 C 0.57631 0.58 0.27988 0.0
C322 C 0.54436 0.61154 0.26217 0.0
C323 C 0.52894 0.68405 0.22435 0.0
C324 C 0.54536 0.72359 0.20293 0.0
C325 C 0.56026 0.64927 0.23841 0.0
C326 C 0.59314 0.7262 0.19321 0.0
C327 C 0.62446 0.6914 0.20667 0.0
H328 H 0.41165 0.16798 0.73361 0.0
H329 H 0.48061 0.0506 0.7933 0.0
H330 H 0.42401 0.99689 0.76319 0.0
H331 H 0.34997 0.98438 0.72664 0.0
H332 H 0.27939 0.10172 0.66851 0.0
H333 H 0.34194 0.15418 0.69094 0.0
C334 C 0.41484 0.13057 0.7395 0.0
C335 C 0.45 0.11348 0.76616 0.0
C336 C 0.38159 0.09989 0.72269 0.0
C337 C 0.45371 0.06483 0.7732 0.0
C338 C 0.42123 0.03405 0.7561 0.0
C339 C 0.34849 0.02134 0.71843 0.0
C340 C 0.3097 0.03919 0.69643 0.0
C341 C 0.38419 0.05137 0.73189 0.0
C342 C 0.3087 0.08706 0.6856 0.0
C343 C 0.34439 0.11714 0.69855 0.0
H344 H 0.04967 0.86555 0.21256 0.0
H345 H 0.9287 0.79398 0.16366 0.0
H346 H 0.87761 0.85576 0.1885 0.0
H347 H 0.8666 0.92568 0.2299 0.0
H348 H 0.98743 0.99578 0.28067 0.0
H349 H 0.03917 0.93924 0.24889 0.0
C350 C 1.0122 0.86372 0.20684 0.0
C351 C 0.99305 0.82488 0.18666 0.0
C352 C 0.9829 0.89898 0.22177 0.0
C353 C 0.94441 0.82331 0.17932 0.0
C354 C 0.9151 0.85858 0.19362 0.0
C355 C 0.90427 0.92905 0.23357 0.0
C356 C 0.92301 0.96466 0.25801 0.0
C357 C 0.93385 0.89593 0.21578 0.0
C358 C 0.97197 0.96856 0.26224 0.0
C359 C 1.00164 0.93614 0.24416 0.0
loop_
_geom_bond_atom_site_label_1
_geom_bond_atom_site_label_2
_geom_bond_distance
_geom_bond_site_symmetry_2
_ccdc_geom_bond_type
Mg0 O7 2.141 . S
Mg0 O8 2.048 1_455 S
Mg0 O9 2.048 . S
Mg0 O12 2.141 . S
C1 O2 1.313 . S
C1 O8 1.195 . S
O2 C1 1.313 . S
C3 O4 1.245 . S
C3 O12 1.289 . S
O4 C3 1.245 . S
C5 O6 1.245 . S
C5 O7 1.289 . S
O6 C5 1.245 . S
O7 Mg0 2.141 . S
O7 C5 1.289 . S
O8 Mg0 2.048 1_655 S
O8 C1 1.195 . S
O9 Mg0 2.048 . S
O9 C10 1.195 . S
C10 O9 1.195 . S
C10 O11 1.313 1_455 S
O11 C10 1.313 1_655 S
O12 Mg0 2.141 . S
O12 C3 1.289 . S
Mg13 O20 2.141 . S
Mg13 O21 2.048 . S
Mg13 O22 2.048 . S
Mg13 O25 2.141 . S
C14 O15 1.313 . S
C14 O21 1.195 . S
O15 C14 1.313 . S
C16 O17 1.245 . S
C16 O25 1.289 . S
O17 C16 1.245 . S
C18 O19 1.245 . S
C18 O20 1.289 . S
O19 C18 1.245 . S
O20 Mg13 2.141 . S
O20 C18 1.289 . S
O21 Mg13 2.048 . S
O21 C14 1.195 . S
O22 Mg13 2.048 . S
O22 C23 1.195 . S
C23 O22 1.195 . S
C23 O24 1.313 . S
O24 C23 1.313 . S
O25 Mg13 2.141 . S
O25 C16 1.289 . S
Mg26 O33 2.141 . S
Mg26 O34 2.048 . S
Mg26 O35 2.048 . S
Mg26 O38 2.141 . S
C27 O28 1.313 . S
C27 O34 1.195 . S
O28 C27 1.313 . S
C29 O30 1.245 . S
C29 O38 1.289 . S
O30 C29 1.245 . S
C31 O32 1.245 . S
C31 O33 1.289 . S
O32 C31 1.245 . S
O33 Mg26 2.141 . S
O33 C31 1.289 . S
O34 Mg26 2.048 . S
O34 C27 1.195 . S
O35 Mg26 2.048 . S
O35 C36 1.195 . S
C36 O35 1.195 . S
C36 O37 1.313 . S
O37 C36 1.313 . S
O38 Mg26 2.141 . S
O38 C29 1.289 . S
Mg39 O46 2.141 . S
Mg39 O47 2.048 1_565 S
Mg39 O48 2.048 . S
Mg39 O51 2.141 . S
C40 O41 1.313 . S
C40 O47 1.195 . S
O41 C40 1.313 . S
C42 O43 1.245 . S
C42 O51 1.289 . S
O43 C42 1.245 . S
C44 O45 1.245 . S
C44 O46 1.289 . S
O45 C44 1.245 . S
O46 Mg39 2.141 . S
O46 C44 1.289 . S
O47 Mg39 2.048 1_545 S
O47 C40 1.195 . S
O48 Mg39 2.048 . S
O48 C49 1.195 . S
C49 O48 1.195 . S
C49 O50 1.313 1_565 S
O50 C49 1.313 1_545 S
O51 Mg39 2.141 . S
O51 C42 1.289 . S
Mg52 O59 2.141 . S
Mg52 O60 2.048 . S
Mg52 O61 2.048 1_655 S
Mg52 O64 2.141 . S
C53 O54 1.313 1_655 S
C53 O60 1.195 . S
O54 C53 1.313 1_455 S
C55 O56 1.245 . S
C55 O64 1.289 . S
O56 C55 1.245 . S
C57 O58 1.245 . S
C57 O59 1.289 . S
O58 C57 1.245 . S
O59 Mg52 2.141 . S
O59 C57 1.289 . S
O60 Mg52 2.048 . S
O60 C53 1.195 . S
O61 Mg52 2.048 1_455 S
O61 C62 1.195 . S
C62 O61 1.195 . S
C62 O63 1.313 . S
O63 C62 1.313 . S
O64 Mg52 2.141 . S
O64 C55 1.289 . S
Mg65 O72 2.141 . S
Mg65 O73 2.048 . S
Mg65 O74 2.048 . S
Mg65 O77 2.141 . S
C66 O67 1.313 . S
C66 O73 1.195 . S
O67 C66 1.313 . S
C68 O69 1.245 . S
C68 O77 1.289 . S
O69 C68 1.245 . S
C70 O71 1.245 . S
C70 O72 1.289 . S
O71 C70 1.245 . S
O72 Mg65 2.141 . S
O72 C70 1.289 . S
O73 Mg65 2.048 . S
O73 C66 1.195 . S
O74 Mg65 2.048 . S
O74 C75 1.195 . S
C75 O74 1.195 . S
C75 O76 1.313 . S
O76 C75 1.313 . S
O77 Mg65 2.141 . S
O77 C68 1.289 . S
Mg78 O85 2.141 . S
Mg78 O86 2.048 . S
Mg78 O87 2.048 . S
Mg78 O90 2.141 . S
C79 O80 1.313 . S
C79 O86 1.195 . S
O80 C79 1.313 . S
C81 O82 1.245 . S
C81 O90 1.289 . S
O82 C81 1.245 . S
C83 O84 1.245 . S
C83 O85 1.289 . S
O84 C83 1.245 . S
O85 Mg78 2.141 . S
O85 C83 1.289 . S
O86 Mg78 2.048 . S
O86 C79 1.195 . S
O87 Mg78 2.048 . S
O87 C88 1.195 . S
C88 O87 1.195 . S
C88 O89 1.313 . S
O89 C88 1.313 . S
O90 Mg78 2.141 . S
O90 C81 1.289 . S
Mg91 O98 2.141 . S
Mg91 O99 2.048 . S
Mg91 O100 2.048 1_545 S
Mg91 O103 2.141 . S
C92 O93 1.313 1_545 S
C92 O99 1.195 . S
O93 C92 1.313 1_565 S
C94 O95 1.245 . S
C94 O103 1.289 . S
O95 C94 1.245 . S
C96 O97 1.245 . S
C96 O98 1.289 . S
O97 C96 1.245 . S
O98 Mg91 2.141 . S
O98 C96 1.289 . S
O99 Mg91 2.048 . S
O99 C92 1.195 . S
O100 Mg91 2.048 1_565 S
O100 C101 1.195 . S
C101 O100 1.195 . S
C101 O102 1.313 . S
O102 C101 1.313 . S
O103 Mg91 2.141 . S
O103 C94 1.289 . S
H104 C110 0.930 1_455 S
H105 C113 0.930 . S
H106 C114 0.930 . S
H107 C115 0.930 1_655 S
H108 C118 0.930 . S
H109 C119 0.930 . S
C110 H104 0.930 1_655 S
C110 C111 1.355 . S
C110 C112 1.415 1_655 S
C111 C110 1.355 . S
C111 C113 1.419 . S
C112 C110 1.415 1_455 S
C112 C117 1.425 1_456 S
C112 C119 1.409 . S
C113 H105 0.930 . S
C113 C111 1.419 . S
C113 C114 1.362 1_556 S
C114 H106 0.930 . S
C114 C113 1.362 1_554 S
C114 C117 1.409 . S
C115 H107 0.930 1_455 S
C115 C116 1.355 . S
C115 C117 1.415 1_455 S
C116 C115 1.355 . S
C116 C118 1.419 . S
C117 C112 1.425 1_654 S
C117 C114 1.409 . S
C117 C115 1.415 1_655 S
C118 H108 0.930 . S
C118 C116 1.419 . S
C118 C119 1.362 1_554 S
C119 H109 0.930 . S
C119 C112 1.409 . S
C119 C118 1.362 1_556 S
H120 C126 0.930 . S
H121 C129 0.930 . S
H122 C130 0.930 . S
H123 C131 0.930 . S
H124 C134 0.930 . S
H125 C135 0.930 . S
C126 H120 0.930 . S
C126 C127 1.355 . S
C126 C128 1.415 . S
C127 C126 1.355 . S
C127 C129 1.419 . S
C128 C126 1.415 . S
C128 C133 1.425 . S
C128 C135 1.409 . S
C129 H121 0.930 . S
C129 C127 1.419 . S
C129 C130 1.362 . S
C130 H122 0.930 . S
C130 C129 1.362 . S
C130 C133 1.409 . S
C131 H123 0.930 . S
C131 C132 1.355 . S
C131 C133 1.415 . S
C132 C131 1.355 . S
C132 C134 1.419 . S
C133 C128 1.425 . S
C133 C130 1.409 . S
C133 C131 1.415 . S
C134 H124 0.930 . S
C134 C132 1.419 . S
C134 C135 1.362 . S
C135 H125 0.930 . S
C135 C128 1.409 . S
C135 C134 1.362 . S
H136 C142 0.930 1_545 S
H137 C145 0.930 . S
H138 C146 0.930 1_556 S
H139 C147 0.930 1_565 S
H140 C150 0.930 . S
H141 C151 0.930 1_554 S
C142 H136 0.930 1_565 S
C142 C143 1.355 . S
C142 C144 1.415 1_565 S
C143 C142 1.355 . S
C143 C145 1.419 . S
C144 C142 1.415 1_545 S
C144 C149 1.425 1_544 S
C144 C151 1.409 1_554 S
C145 H137 0.930 . S
C145 C143 1.419 . S
C145 C146 1.362 . S
C146 H138 0.930 1_554 S
C146 C145 1.362 . S
C146 C149 1.409 1_554 S
C147 H139 0.930 1_545 S
C147 C148 1.355 . S
C147 C149 1.415 1_545 S
C148 C147 1.355 . S
C148 C150 1.419 . S
C149 C144 1.425 1_566 S
C149 C146 1.409 1_556 S
C149 C147 1.415 1_565 S
C150 H140 0.930 . S
C150 C148 1.419 . S
C150 C151 1.362 . S
C151 H141 0.930 1_556 S
C151 C144 1.409 1_556 S
C151 C150 1.362 . S
H152 C158 0.930 . S
H153 C161 0.930 . S
H154 C162 0.930 . S
H155 C163 0.930 . S
H156 C166 0.930 . S
H157 C167 0.930 . S
C158 H152 0.930 . S
C158 C159 1.355 1_455 S
C158 C160 1.415 . S
C159 C158 1.355 1_655 S
C159 C161 1.419 . S
C160 C158 1.415 . S
C160 C165 1.425 1_445 S
C160 C167 1.409 . S
C161 H153 0.930 . S
C161 C159 1.419 . S
C161 C162 1.362 1_545 S
C162 H154 0.930 . S
C162 C161 1.362 1_565 S
C162 C165 1.409 . S
C163 H155 0.930 . S
C163 C164 1.355 1_655 S
C163 C165 1.415 . S
C164 C163 1.355 1_455 S
C164 C166 1.419 . S
C165 C160 1.425 1_665 S
C165 C162 1.409 . S
C165 C163 1.415 . S
C166 H156 0.930 . S
C166 C164 1.419 . S
C166 C167 1.362 1_565 S
C167 H157 0.930 . S
C167 C160 1.409 . S
C167 C166 1.362 1_545 S
H168 C174 0.930 . S
H169 C177 0.930 . S
H170 C178 0.930 . S
H171 C179 0.930 . S
H172 C182 0.930 . S
H173 C183 0.930 . S
C174 H168 0.930 . S
C174 C175 1.355 . S
C174 C176 1.415 . S
C175 C174 1.355 . S
C175 C177 1.419 . S
C176 C174 1.415 . S
C176 C181 1.425 . S
C176 C183 1.409 . S
C177 H169 0.930 . S
C177 C175 1.419 . S
C177 C178 1.362 . S
C178 H170 0.930 . S
C178 C177 1.362 . S
C178 C181 1.409 . S
C179 H171 0.930 . S
C179 C180 1.355 . S
C179 C181 1.415 . S
C180 C179 1.355 . S
C180 C182 1.419 . S
C181 C176 1.425 . S
C181 C178 1.409 . S
C181 C179 1.415 . S
C182 H172 0.930 . S
C182 C180 1.419 . S
C182 C183 1.362 . S
C183 H173 0.930 . S
C183 C176 1.409 . S
C183 C182 1.362 . S
H184 C190 0.930 . S
H185 C193 0.930 . S
H186 C194 0.930 . S
H187 C195 0.930 . S
H188 C198 0.930 . S
H189 C199 0.930 . S
C190 H184 0.930 . S
C190 C191 1.355 . S
C190 C192 1.415 . S
C191 C190 1.355 . S
C191 C193 1.419 . S
C192 C190 1.415 . S
C192 C197 1.425 . S
C192 C199 1.409 . S
C193 H185 0.930 . S
C193 C191 1.419 . S
C193 C194 1.362 . S
C194 H186 0.930 . S
C194 C193 1.362 . S
C194 C197 1.409 . S
C195 H187 0.930 . S
C195 C196 1.355 . S
C195 C197 1.415 . S
C196 C195 1.355 . S
C196 C198 1.419 . S
C197 C192 1.425 . S
C197 C194 1.409 . S
C197 C195 1.415 . S
C198 H188 0.930 . S
C198 C196 1.419 . S
C198 C199 1.362 . S
C199 H189 0.930 . S
C199 C192 1.409 . S
C199 C198 1.362 . S
H200 C206 0.930 . S
H201 C209 0.930 . S
H202 C210 0.930 . S
H203 C211 0.930 . S
H204 C214 0.930 . S
H205 C215 0.930 . S
C206 H200 0.930 . S
C206 C207 1.355 . S
C206 C208 1.415 . S
C207 C206 1.355 . S
C207 C209 1.419 . S
C208 C206 1.415 . S
C208 C213 1.425 . S
C208 C215 1.409 . S
C209 H201 0.930 . S
C209 C207 1.419 . S
C209 C210 1.362 . S
C210 H202 0.930 . S
C210 C209 1.362 . S
C210 C213 1.409 . S
C211 H203 0.930 . S
C211 C212 1.355 . S
C211 C213 1.415 . S
C212 C211 1.355 . S
C212 C214 1.419 . S
C213 C208 1.425 . S
C213 C210 1.409 . S
C213 C211 1.415 . S
C214 H204 0.930 . S
C214 C212 1.419 . S
C214 C215 1.362 . S
C215 H205 0.930 . S
C215 C208 1.409 . S
C215 C214 1.362 . S
H216 C222 0.930 . S
H217 C225 0.930 . S
H218 C226 0.930 . S
H219 C227 0.930 . S
H220 C230 0.930 . S
H221 C231 0.930 . S
C222 H216 0.930 . S
C222 C223 1.355 . S
C222 C224 1.415 . S
C223 C222 1.355 . S
C223 C225 1.419 . S
C224 C222 1.415 . S
C224 C229 1.425 . S
C224 C231 1.409 . S
C225 H217 0.930 . S
C225 C223 1.419 . S
C225 C226 1.362 . S
C226 H218 0.930 . S
C226 C225 1.362 . S
C226 C229 1.409 . S
C227 H219 0.930 . S
C227 C228 1.355 . S
C227 C229 1.415 . S
C228 C227 1.355 . S
C228 C230 1.419 . S
C229 C224 1.425 . S
C229 C226 1.409 . S
C229 C227 1.415 . S
C230 H220 0.930 . S
C230 C228 1.419 . S
C230 C231 1.362 . S
C231 H221 0.930 . S
C231 C224 1.409 . S
C231 C230 1.362 . S
H232 C238 0.930 . S
H233 C241 0.930 . S
H234 C242 0.930 . S
H235 C243 0.930 . S
H236 C246 0.930 . S
H237 C247 0.930 . S
C238 H232 0.930 . S
C238 C239 1.355 . S
C238 C240 1.415 . S
C239 C238 1.355 . S
C239 C241 1.419 . S
C240 C238 1.415 . S
C240 C245 1.425 . S
C240 C247 1.409 . S
C241 H233 0.930 . S
C241 C239 1.419 . S
C241 C242 1.362 . S
C242 H234 0.930 . S
C242 C241 1.362 . S
C242 C245 1.409 . S
C243 H235 0.930 . S
C243 C244 1.355 . S
C243 C245 1.415 . S
C244 C243 1.355 . S
C244 C246 1.419 . S
C245 C240 1.425 . S
C245 C242 1.409 . S
C245 C243 1.415 . S
C246 H236 0.930 . S
C246 C244 1.419 . S
C246 C247 1.362 . S
C247 H237 0.930 . S
C247 C240 1.409 . S
C247 C246 1.362 . S
H248 C254 0.930 . S
H249 C257 0.930 . S
H250 C258 0.930 . S
H251 C259 0.930 . S
H252 C262 0.930 . S
H253 C263 0.930 . S
C254 H248 0.930 . S
C254 C255 1.355 . S
C254 C256 1.415 . S
C255 C254 1.355 . S
C255 C257 1.419 . S
C256 C254 1.415 . S
C256 C261 1.425 . S
C256 C263 1.409 . S
C257 H249 0.930 . S
C257 C255 1.419 . S
C257 C258 1.362 . S
C258 H250 0.930 . S
C258 C257 1.362 . S
C258 C261 1.409 . S
C259 H251 0.930 . S
C259 C260 1.355 . S
C259 C261 1.415 . S
C260 C259 1.355 . S
C260 C262 1.419 . S
C261 C256 1.425 . S
C261 C258 1.409 . S
C261 C259 1.415 . S
C262 H252 0.930 . S
C262 C260 1.419 . S
C262 C263 1.362 . S
C263 H253 0.930 . S
C263 C256 1.409 . S
C263 C262 1.362 . S
H264 C270 0.930 . S
H265 C273 0.930 . S
H266 C274 0.930 . S
H267 C275 0.930 . S
H268 C278 0.930 . S
H269 C279 0.930 . S
C270 H264 0.930 . S
C270 C271 1.355 . S
C270 C272 1.415 . S
C271 C270 1.355 . S
C271 C273 1.419 . S
C272 C270 1.415 . S
C272 C277 1.425 . S
C272 C279 1.409 . S
C273 H265 0.930 . S
C273 C271 1.419 . S
C273 C274 1.362 . S
C274 H266 0.930 . S
C274 C273 1.362 . S
C274 C277 1.409 . S
C275 H267 0.930 . S
C275 C276 1.355 . S
C275 C277 1.415 . S
C276 C275 1.355 . S
C276 C278 1.419 . S
C277 C272 1.425 . S
C277 C274 1.409 . S
C277 C275 1.415 . S
C278 H268 0.930 . S
C278 C276 1.419 . S
C278 C279 1.362 . S
C279 H269 0.930 . S
C279 C272 1.409 . S
C279 C278 1.362 . S
H280 C286 0.930 . S
H281 C289 0.930 . S
H282 C290 0.930 . S
H283 C291 0.930 . S
H284 C294 0.930 . S
H285 C295 0.930 . S
C286 H280 0.930 . S
C286 C287 1.355 . S
C286 C288 1.415 . S
C287 C286 1.355 . S
C287 C289 1.419 1_455 S
C288 C286 1.415 . S
C288 C293 1.425 . S
C288 C295 1.409 . S
C289 H281 0.930 . S
C289 C287 1.419 1_655 S
C289 C290 1.362 1_655 S
C290 H282 0.930 . S
C290 C289 1.362 1_455 S
C290 C293 1.409 . S
C291 H283 0.930 . S
C291 C292 1.355 . S
C291 C293 1.415 . S
C292 C291 1.355 . S
C292 C294 1.419 . S
C293 C288 1.425 . S
C293 C290 1.409 . S
C293 C291 1.415 . S
C294 H284 0.930 . S
C294 C292 1.419 . S
C294 C295 1.362 . S
C295 H285 0.930 . S
C295 C288 1.409 . S
C295 C294 1.362 . S
H296 C302 0.930 . S
H297 C305 0.930 . S
H298 C306 0.930 . S
H299 C307 0.930 . S
H300 C310 0.930 . S
H301 C311 0.930 . S
C302 H296 0.930 . S
C302 C303 1.355 . S
C302 C304 1.415 . S
C303 C302 1.355 . S
C303 C305 1.419 . S
C304 C302 1.415 . S
C304 C309 1.425 . S
C304 C311 1.409 . S
C305 H297 0.930 . S
C305 C303 1.419 . S
C305 C306 1.362 . S
C306 H298 0.930 . S
C306 C305 1.362 . S
C306 C309 1.409 . S
C307 H299 0.930 . S
C307 C308 1.355 . S
C307 C309 1.415 . S
C308 C307 1.355 . S
C308 C310 1.419 . S
C309 C304 1.425 . S
C309 C306 1.409 . S
C309 C307 1.415 . S
C310 H300 0.930 . S
C310 C308 1.419 . S
C310 C311 1.362 . S
C311 H301 0.930 . S
C311 C304 1.409 . S
C311 C310 1.362 . S
H312 C318 0.930 . S
H313 C321 0.930 . S
H314 C322 0.930 . S
H315 C323 0.930 . S
H316 C326 0.930 . S
H317 C327 0.930 . S
C318 H312 0.930 . S
C318 C319 1.355 . S
C318 C320 1.415 . S
C319 C318 1.355 . S
C319 C321 1.419 . S
C320 C318 1.415 . S
C320 C325 1.425 . S
C320 C327 1.409 . S
C321 H313 0.930 . S
C321 C319 1.419 . S
C321 C322 1.362 . S
C322 H314 0.930 . S
C322 C321 1.362 . S
C322 C325 1.409 . S
C323 H315 0.930 . S
C323 C324 1.355 . S
C323 C325 1.415 . S
C324 C323 1.355 . S
C324 C326 1.419 . S
C325 C320 1.425 . S
C325 C322 1.409 . S
C325 C323 1.415 . S
C326 H316 0.930 . S
C326 C324 1.419 . S
C326 C327 1.362 . S
C327 H317 0.930 . S
C327 C320 1.409 . S
C327 C326 1.362 . S
H328 C334 0.930 . S
H329 C337 0.930 . S
H330 C338 0.930 1_565 S
H331 C339 0.930 1_565 S
H332 C342 0.930 . S
H333 C343 0.930 . S
C334 H328 0.930 . S
C334 C335 1.355 . S
C334 C336 1.415 . S
C335 C334 1.355 . S
C335 C337 1.419 . S
C336 C334 1.415 . S
C336 C341 1.425 . S
C336 C343 1.409 . S
C337 H329 0.930 . S
C337 C335 1.419 . S
C337 C338 1.362 . S
C338 H330 0.930 1_545 S
C338 C337 1.362 . S
C338 C341 1.409 . S
C339 H331 0.930 1_545 S
C339 C340 1.355 . S
C339 C341 1.415 . S
C340 C339 1.355 . S
C340 C342 1.419 . S
C341 C336 1.425 . S
C341 C338 1.409 . S
C341 C339 1.415 . S
C342 H332 0.930 . S
C342 C340 1.419 . S
C342 C343 1.362 . S
C343 H333 0.930 . S
C343 C336 1.409 . S
C343 C342 1.362 . S
H344 C350 0.930 . S
H345 C353 0.930 1_455 S
H346 C354 0.930 . S
H347 C355 0.930 . S
H348 C358 0.930 . S
H349 C359 0.930 . S
C350 H344 0.930 . S
C350 C351 1.355 . S
C350 C352 1.415 . S
C351 C350 1.355 . S
C351 C353 1.419 . S
C352 C350 1.415 . S
C352 C357 1.425 . S
C352 C359 1.409 . S
C353 H345 0.930 1_655 S
C353 C351 1.419 . S
C353 C354 1.362 . S
C354 H346 0.930 . S
C354 C353 1.362 . S
C354 C357 1.409 . S
C355 H347 0.930 . S
C355 C356 1.355 . S
C355 C357 1.415 . S
C356 C355 1.355 . S
C356 C358 1.419 . S
C357 C352 1.425 . S
C357 C354 1.409 . S
C357 C355 1.415 . S
C358 H348 0.930 . S
C358 C356 1.419 . S
C358 C359 1.362 . S
C359 H349 0.930 . S
C359 C352 1.409 . S
C359 C358 1.362 . S
C111 C55 1.775 . S
C116 C5 1.775 . S
C127 C18 1.836 . S
C132 C68 1.836 . S
C143 C31 1.761 . S
C148 C81 1.761 . S
C159 C94 1.760 . S
C164 C44 1.760 . S
C175 C3 1.891 . S
C180 C29 1.888 . S
C191 C16 1.890 . S
C196 C42 1.887 . S
C207 C83 1.891 . S
C212 C57 1.891 . S
C223 C70 1.889 . S
C228 C96 1.892 . S
C239 C66 1.484 . S
C244 C1 1.507 . S
C255 C14 1.524 . S
C260 C79 1.441 . S
C271 C27 1.524 . S
C276 C92 1.425 1_565 S
C287 C53 1.473 1_455 S
C292 C40 1.518 . S
C303 C62 1.511 . S
C308 C23 1.457 . S
C319 C75 1.512 . S
C324 C36 1.455 . S
C335 C88 1.518 . S
C340 C49 1.431 1_545 S
C351 C10 1.493 1_655 S
C356 C101 1.506 . S
