# Generated by pormake.
# Topology som, (6)-cn, num edge types: 1
# Building blocks:
#     Node 0, Type 0, BuildingBlock: GEDQOX_clean_sbu_0, # of connection points: 6
#     Node 1, Type 0, BuildingBlock: GEDQOX_clean_sbu_0, # of connection points: 6
#     Node 2, Type 0, BuildingBlock: GEDQOX_clean_sbu_0, # of connection points: 6
#     Node 3, Type 0, BuildingBlock: GEDQOX_clean_sbu_0, # of connection points: 6
#     Node 4, Type 0, BuildingBlock: GEDQOX_clean_sbu_0, # of connection points: 6
#     Node 5, Type 0, BuildingBlock: GEDQOX_clean_sbu_0, # of connection points: 6
#     Node 6, Type 0, BuildingBlock: GEDQOX_clean_sbu_0, # of connection points: 6
#     Node 7, Type 0, BuildingBlock: GEDQOX_clean_sbu_0, # of connection points: 6
#     Node 8, Type 0, BuildingBlock: GEDQOX_clean_sbu_0, # of connection points: 6
#     Node 9, Type 0, BuildingBlock: GEDQOX_clean_sbu_0, # of connection points: 6
#     Node 10, Type 0, BuildingBlock: GEDQOX_clean_sbu_0, # of connection points: 6
#     Node 11, Type 0, BuildingBlock: GEDQOX_clean_sbu_0, # of connection points: 6
#     Node 12, Type 0, BuildingBlock: GEDQOX_clean_sbu_0, # of connection points: 6
#     Node 13, Type 0, BuildingBlock: GEDQOX_clean_sbu_0, # of connection points: 6
#     Node 14, Type 0, BuildingBlock: GEDQOX_clean_sbu_0, # of connection points: 6
#     Node 15, Type 0, BuildingBlock: GEDQOX_clean_sbu_0, # of connection points: 6
#     Node 16, Type 0, BuildingBlock: GEDQOX_clean_sbu_0, # of connection points: 6
#     Node 17, Type 0, BuildingBlock: GEDQOX_clean_sbu_0, # of connection points: 6
#     Node 18, Type 0, BuildingBlock: GEDQOX_clean_sbu_0, # of connection points: 6
#     Node 19, Type 0, BuildingBlock: GEDQOX_clean_sbu_0, # of connection points: 6
#     Node 20, Type 0, BuildingBlock: GEDQOX_clean_sbu_0, # of connection points: 6
#     Node 21, Type 0, BuildingBlock: GEDQOX_clean_sbu_0, # of connection points: 6
#     Node 22, Type 0, BuildingBlock: GEDQOX_clean_sbu_0, # of connection points: 6
#     Node 23, Type 0, BuildingBlock: GEDQOX_clean_sbu_0, # of connection points: 6
#     Node 24, Type 0, BuildingBlock: GEDQOX_clean_sbu_0, # of connection points: 6
#     Node 25, Type 0, BuildingBlock: GEDQOX_clean_sbu_0, # of connection points: 6
#     Node 26, Type 0, BuildingBlock: GEDQOX_clean_sbu_0, # of connection points: 6
#     Node 27, Type 0, BuildingBlock: GEDQOX_clean_sbu_0, # of connection points: 6
#     Node 28, Type 0, BuildingBlock: GEDQOX_clean_sbu_0, # of connection points: 6
#     Node 29, Type 0, BuildingBlock: GEDQOX_clean_sbu_0, # of connection points: 6
#     Node 30, Type 0, BuildingBlock: GEDQOX_clean_sbu_0, # of connection points: 6
#     Node 31, Type 0, BuildingBlock: GEDQOX_clean_sbu_0, # of connection points: 6
#     Edge 32, Type (0, 0), BuildingBlock: KIFKEQ_clean_linker_1, # of connection points: 2
#     Edge 33, Type (0, 0), BuildingBlock: KIFKEQ_clean_linker_1, # of connection points: 2
#     Edge 34, Type (0, 0), BuildingBlock: KIFKEQ_clean_linker_1, # of connection points: 2
#     Edge 35, Type (0, 0), BuildingBlock: KIFKEQ_clean_linker_1, # of connection points: 2
#     Edge 36, Type (0, 0), BuildingBlock: KIFKEQ_clean_linker_1, # of connection points: 2
#     Edge 37, Type (0, 0), BuildingBlock: KIFKEQ_clean_linker_1, # of connection points: 2
#     Edge 38, Type (0, 0), BuildingBlock: KIFKEQ_clean_linker_1, # of connection points: 2
#     Edge 39, Type (0, 0), BuildingBlock: KIFKEQ_clean_linker_1, # of connection points: 2
#     Edge 40, Type (0, 0), BuildingBlock: KIFKEQ_clean_linker_1, # of connection points: 2
#     Edge 41, Type (0, 0), BuildingBlock: KIFKEQ_clean_linker_1, # of connection points: 2
#     Edge 42, Type (0, 0), BuildingBlock: KIFKEQ_clean_linker_1, # of connection points: 2
#     Edge 43, Type (0, 0), BuildingBlock: KIFKEQ_clean_linker_1, # of connection points: 2
#     Edge 44, Type (0, 0), BuildingBlock: KIFKEQ_clean_linker_1, # of connection points: 2
#     Edge 45, Type (0, 0), BuildingBlock: KIFKEQ_clean_linker_1, # of connection points: 2
#     Edge 46, Type (0, 0), BuildingBlock: KIFKEQ_clean_linker_1, # of connection points: 2
#     Edge 47, Type (0, 0), BuildingBlock: KIFKEQ_clean_linker_1, # of connection points: 2
#     Edge 48, Type (0, 0), BuildingBlock: KIFKEQ_clean_linker_1, # of connection points: 2
#     Edge 49, Type (0, 0), BuildingBlock: KIFKEQ_clean_linker_1, # of connection points: 2
#     Edge 50, Type (0, 0), BuildingBlock: KIFKEQ_clean_linker_1, # of connection points: 2
#     Edge 51, Type (0, 0), BuildingBlock: KIFKEQ_clean_linker_1, # of connection points: 2
#     Edge 52, Type (0, 0), BuildingBlock: KIFKEQ_clean_linker_1, # of connection points: 2
#     Edge 53, Type (0, 0), BuildingBlock: KIFKEQ_clean_linker_1, # of connection points: 2
#     Edge 54, Type (0, 0), BuildingBlock: KIFKEQ_clean_linker_1, # of connection points: 2
#     Edge 55, Type (0, 0), BuildingBlock: KIFKEQ_clean_linker_1, # of connection points: 2
#     Edge 56, Type (0, 0), BuildingBlock: KIFKEQ_clean_linker_1, # of connection points: 2
#     Edge 57, Type (0, 0), BuildingBlock: KIFKEQ_clean_linker_1, # of connection points: 2
#     Edge 58, Type (0, 0), BuildingBlock: KIFKEQ_clean_linker_1, # of connection points: 2
#     Edge 59, Type (0, 0), BuildingBlock: KIFKEQ_clean_linker_1, # of connection points: 2
#     Edge 60, Type (0, 0), BuildingBlock: KIFKEQ_clean_linker_1, # of connection points: 2
#     Edge 61, Type (0, 0), BuildingBlock: KIFKEQ_clean_linker_1, # of connection points: 2
#     Edge 62, Type (0, 0), BuildingBlock: KIFKEQ_clean_linker_1, # of connection points: 2
#     Edge 63, Type (0, 0), BuildingBlock: KIFKEQ_clean_linker_1, # of connection points: 2
#     Edge 64, Type (0, 0), BuildingBlock: KIFKEQ_clean_linker_1, # of connection points: 2
#     Edge 65, Type (0, 0), BuildingBlock: KIFKEQ_clean_linker_1, # of connection points: 2
#     Edge 66, Type (0, 0), BuildingBlock: KIFKEQ_clean_linker_1, # of connection points: 2
#     Edge 67, Type (0, 0), BuildingBlock: KIFKEQ_clean_linker_1, # of connection points: 2
#     Edge 68, Type (0, 0), BuildingBlock: KIFKEQ_clean_linker_1, # of connection points: 2
#     Edge 69, Type (0, 0), BuildingBlock: KIFKEQ_clean_linker_1, # of connection points: 2
#     Edge 70, Type (0, 0), BuildingBlock: KIFKEQ_clean_linker_1, # of connection points: 2
#     Edge 71, Type (0, 0), BuildingBlock: KIFKEQ_clean_linker_1, # of connection points: 2
#     Edge 72, Type (0, 0), BuildingBlock: KIFKEQ_clean_linker_1, # of connection points: 2
#     Edge 73, Type (0, 0), BuildingBlock: KIFKEQ_clean_linker_1, # of connection points: 2
#     Edge 74, Type (0, 0), BuildingBlock: KIFKEQ_clean_linker_1, # of connection points: 2
#     Edge 75, Type (0, 0), BuildingBlock: KIFKEQ_clean_linker_1, # of connection points: 2
#     Edge 76, Type (0, 0), BuildingBlock: KIFKEQ_clean_linker_1, # of connection points: 2
#     Edge 77, Type (0, 0), BuildingBlock: KIFKEQ_clean_linker_1, # of connection points: 2
#     Edge 78, Type (0, 0), BuildingBlock: KIFKEQ_clean_linker_1, # of connection points: 2
#     Edge 79, Type (0, 0), BuildingBlock: KIFKEQ_clean_linker_1, # of connection points: 2
#     Edge 80, Type (0, 0), BuildingBlock: KIFKEQ_clean_linker_1, # of connection points: 2
#     Edge 81, Type (0, 0), BuildingBlock: KIFKEQ_clean_linker_1, # of connection points: 2
#     Edge 82, Type (0, 0), BuildingBlock: KIFKEQ_clean_linker_1, # of connection points: 2
#     Edge 83, Type (0, 0), BuildingBlock: KIFKEQ_clean_linker_1, # of connection points: 2
#     Edge 84, Type (0, 0), BuildingBlock: KIFKEQ_clean_linker_1, # of connection points: 2
#     Edge 85, Type (0, 0), BuildingBlock: KIFKEQ_clean_linker_1, # of connection points: 2
#     Edge 86, Type (0, 0), BuildingBlock: KIFKEQ_clean_linker_1, # of connection points: 2
#     Edge 87, Type (0, 0), BuildingBlock: KIFKEQ_clean_linker_1, # of connection points: 2
#     Edge 88, Type (0, 0), BuildingBlock: KIFKEQ_clean_linker_1, # of connection points: 2
#     Edge 89, Type (0, 0), BuildingBlock: KIFKEQ_clean_linker_1, # of connection points: 2
#     Edge 90, Type (0, 0), BuildingBlock: KIFKEQ_clean_linker_1, # of connection points: 2
#     Edge 91, Type (0, 0), BuildingBlock: KIFKEQ_clean_linker_1, # of connection points: 2
#     Edge 92, Type (0, 0), BuildingBlock: KIFKEQ_clean_linker_1, # of connection points: 2
#     Edge 93, Type (0, 0), BuildingBlock: KIFKEQ_clean_linker_1, # of connection points: 2
#     Edge 94, Type (0, 0), BuildingBlock: KIFKEQ_clean_linker_1, # of connection points: 2
#     Edge 95, Type (0, 0), BuildingBlock: KIFKEQ_clean_linker_1, # of connection points: 2
#     Edge 96, Type (0, 0), BuildingBlock: KIFKEQ_clean_linker_1, # of connection points: 2
#     Edge 97, Type (0, 0), BuildingBlock: KIFKEQ_clean_linker_1, # of connection points: 2
#     Edge 98, Type (0, 0), BuildingBlock: KIFKEQ_clean_linker_1, # of connection points: 2
#     Edge 99, Type (0, 0), BuildingBlock: KIFKEQ_clean_linker_1, # of connection points: 2
#     Edge 100, Type (0, 0), BuildingBlock: KIFKEQ_clean_linker_1, # of connection points: 2
#     Edge 101, Type (0, 0), BuildingBlock: KIFKEQ_clean_linker_1, # of connection points: 2
#     Edge 102, Type (0, 0), BuildingBlock: KIFKEQ_clean_linker_1, # of connection points: 2
#     Edge 103, Type (0, 0), BuildingBlock: KIFKEQ_clean_linker_1, # of connection points: 2
#     Edge 104, Type (0, 0), BuildingBlock: KIFKEQ_clean_linker_1, # of connection points: 2
#     Edge 105, Type (0, 0), BuildingBlock: KIFKEQ_clean_linker_1, # of connection points: 2
#     Edge 106, Type (0, 0), BuildingBlock: KIFKEQ_clean_linker_1, # of connection points: 2
#     Edge 107, Type (0, 0), BuildingBlock: KIFKEQ_clean_linker_1, # of connection points: 2
#     Edge 108, Type (0, 0), BuildingBlock: KIFKEQ_clean_linker_1, # of connection points: 2
#     Edge 109, Type (0, 0), BuildingBlock: KIFKEQ_clean_linker_1, # of connection points: 2
#     Edge 110, Type (0, 0), BuildingBlock: KIFKEQ_clean_linker_1, # of connection points: 2
#     Edge 111, Type (0, 0), BuildingBlock: KIFKEQ_clean_linker_1, # of connection points: 2
#     Edge 112, Type (0, 0), BuildingBlock: KIFKEQ_clean_linker_1, # of connection points: 2
#     Edge 113, Type (0, 0), BuildingBlock: KIFKEQ_clean_linker_1, # of connection points: 2
#     Edge 114, Type (0, 0), BuildingBlock: KIFKEQ_clean_linker_1, # of connection points: 2
#     Edge 115, Type (0, 0), BuildingBlock: KIFKEQ_clean_linker_1, # of connection points: 2
#     Edge 116, Type (0, 0), BuildingBlock: KIFKEQ_clean_linker_1, # of connection points: 2
#     Edge 117, Type (0, 0), BuildingBlock: KIFKEQ_clean_linker_1, # of connection points: 2
#     Edge 118, Type (0, 0), BuildingBlock: KIFKEQ_clean_linker_1, # of connection points: 2
#     Edge 119, Type (0, 0), BuildingBlock: KIFKEQ_clean_linker_1, # of connection points: 2
#     Edge 120, Type (0, 0), BuildingBlock: KIFKEQ_clean_linker_1, # of connection points: 2
#     Edge 121, Type (0, 0), BuildingBlock: KIFKEQ_clean_linker_1, # of connection points: 2
#     Edge 122, Type (0, 0), BuildingBlock: KIFKEQ_clean_linker_1, # of connection points: 2
#     Edge 123, Type (0, 0), BuildingBlock: KIFKEQ_clean_linker_1, # of connection points: 2
#     Edge 124, Type (0, 0), BuildingBlock: KIFKEQ_clean_linker_1, # of connection points: 2
#     Edge 125, Type (0, 0), BuildingBlock: KIFKEQ_clean_linker_1, # of connection points: 2
#     Edge 126, Type (0, 0), BuildingBlock: KIFKEQ_clean_linker_1, # of connection points: 2
#     Edge 127, Type (0, 0), BuildingBlock: KIFKEQ_clean_linker_1, # of connection points: 2
# Relax obj value: 0.188
# Max RMSD: 0.203
# Mean RMSD: 0.203
data_MOF--net-som--node1-GEDQOX_clean_sbu_0--edge1-KIFKEQ_clean_linker_1
_symmetry_space_group_name_H-M    P1
_symmetry_Int_Tables_number       1
_symmetry_cell_setting            triclinic
loop_
_symmetry_equiv_pos_as_xyz
'x, y, z'
_cell_length_a     15.812787
_cell_length_b     104.62887
_cell_length_c     117.93901
_cell_angle_alpha  90.018878
_cell_angle_beta   89.870653
_cell_angle_gamma 90.023936
loop_
_atom_site_label
_atom_site_type_symbol
_atom_site_fract_x
_atom_site_fract_y
_atom_site_fract_z
_atom_type_partial_charge
Nd0 Nd 0.10526 0.50229 0.06917 0.0
Nd1 Nd 0.0914 0.53 0.07422 0.0
C2 C 0.09465 0.47832 0.06175 0.0
C3 C 0.05538 0.46557 0.06343 0.0
C4 C 1.01733 0.45944 0.05416 0.0
C5 C 0.98989 0.44675 0.05499 0.0
C6 C 1.00017 0.43981 0.06513 0.0
C7 C 1.0355 0.44612 0.07455 0.0
C8 C 0.06293 0.45885 0.07371 0.0
C9 C 0.12948 0.50807 0.09181 0.0
C10 C 0.91879 0.51461 0.07431 0.0
C11 C 0.09808 0.55393 0.0818 0.0
C12 C 0.12773 0.56726 0.08013 0.0
C13 C 0.16886 0.57349 0.0891 0.0
C14 C 0.18542 0.58663 0.08858 0.0
C15 C 0.16088 0.59389 0.0791 0.0
C16 C 0.12308 0.58751 0.06989 0.0
C17 C 0.10646 0.57435 0.07041 0.0
C18 C 0.07155 0.52418 0.05146 0.0
C19 C 0.27865 0.51758 0.06916 0.0
O20 O 0.04815 0.4876 0.05775 0.0
O21 O 0.14947 0.48222 0.06925 0.0
O22 O 0.17152 0.49951 0.08627 0.0
O23 O 0.0727 0.51292 0.08564 0.0
O24 O 0.96133 0.50604 0.0684 0.0
O25 O 0.9592 0.52369 0.07981 0.0
O26 O 0.15235 0.54514 0.08481 0.0
O27 O 1.03935 0.54959 0.07505 0.0
O28 O 1.02834 0.53278 0.0568 0.0
O29 O 0.12652 0.51938 0.0579 0.0
O30 O 0.23624 0.52647 0.07476 0.0
O31 O 0.23832 0.50827 0.06392 0.0
H32 H 1.01103 0.46437 0.04612 0.0
H33 H 0.96158 0.44232 0.04762 0.0
H34 H 1.04508 0.44109 0.08246 0.0
H35 H 0.09236 0.46327 0.081 0.0
H36 H 0.18552 0.56829 0.09671 0.0
H37 H 0.21607 0.59114 0.09575 0.0
H38 H 0.10287 0.59278 0.06247 0.0
H39 H 0.07421 0.56983 0.06338 0.0
Nd40 Nd 0.25192 0.78373 0.06904 0.0
Nd41 Nd 0.25565 0.75383 0.07516 0.0
C42 C 0.26566 0.80672 0.05969 0.0
C43 C 0.29899 0.81981 0.06139 0.0
C44 C 0.34014 0.82592 0.05235 0.0
C45 C 0.3647 0.83874 0.05322 0.0
C46 C 0.3484 0.84579 0.06315 0.0
C47 C 0.30962 0.83951 0.07236 0.0
C48 C 0.28505 0.82666 0.07149 0.0
C49 C 0.22579 0.7783 0.09169 0.0
C50 C 0.43579 0.76957 0.07353 0.0
C51 C 0.25235 0.73134 0.08553 0.0
C52 C 0.23492 0.71759 0.08376 0.0
C53 C 0.20555 0.71028 0.09291 0.0
C54 C 0.19562 0.69704 0.09186 0.0
C55 C 0.215 0.69077 0.08161 0.0
C56 C 0.24202 0.6982 0.07232 0.0
C57 C 0.25204 0.71149 0.07339 0.0
C58 C 0.25231 0.75752 0.05168 0.0
C59 C 0.07699 0.76823 0.07041 0.0
O60 O 0.31997 0.79751 0.05785 0.0
O61 O 0.20144 0.80313 0.06594 0.0
O62 O 0.19817 0.78842 0.08655 0.0
O63 O 0.27558 0.77217 0.08523 0.0
O64 O 0.3951 0.77996 0.07016 0.0
O65 O 0.39625 0.759 0.07671 0.0
O66 O 0.188 0.73923 0.08553 0.0
O67 O 0.31962 0.73607 0.08057 0.0
O68 O 0.2544 0.7463 0.05636 0.0
O69 O 0.25039 0.76561 0.05949 0.0
O70 O 0.11676 0.7599 0.07692 0.0
O71 O 0.11904 0.77668 0.06422 0.0
H72 H 0.35163 0.82085 0.04449 0.0
H73 H 0.39588 0.84315 0.04603 0.0
H74 H 0.29561 0.84464 0.08012 0.0
H75 H 0.25335 0.82219 0.07861 0.0
H76 H 0.19183 0.71479 0.10098 0.0
H77 H 0.17312 0.6917 0.09913 0.0
H78 H 0.25798 0.69371 0.06432 0.0
H79 H 0.27487 0.71693 0.0662 0.0
Nd80 Nd 0.09998 0.7834 0.19932 0.0
Nd81 Nd 0.10079 0.75337 0.19385 0.0
C82 C 0.0922 0.80596 0.20946 0.0
C83 C 0.06045 0.81918 0.20798 0.0
C84 C 1.02385 0.82549 0.21727 0.0
C85 C 0.99963 0.83832 0.21645 0.0
C86 C 1.01171 0.84522 0.20632 0.0
C87 C 1.04636 0.83875 0.19691 0.0
C88 C 0.0705 0.82588 0.19773 0.0
C89 C 0.10494 0.77942 0.17596 0.0
C90 C 0.9205 0.76808 0.19443 0.0
C91 C 0.13035 0.72984 0.18659 0.0
C92 C 0.1114 0.71608 0.18785 0.0
C93 C 0.11326 0.70826 0.17819 0.0
C94 C 0.10763 0.69497 0.1792 0.0
C95 C 0.10009 0.68916 0.18993 0.0
C96 C 0.095 0.69708 0.19957 0.0
C97 C 0.10064 0.71041 0.19855 0.0
C98 C 0.06984 0.75999 0.21617 0.0
C99 C 0.27927 0.76915 0.19612 0.0
O100 O 1.03634 0.79689 0.2112 0.0
O101 O 0.15544 0.80234 0.20301 0.0
O102 O 0.10136 0.79065 0.18061 0.0
O103 O 0.10264 0.7712 0.18371 0.0
O104 O 0.95918 0.77781 0.19942 0.0
O105 O 0.96204 0.75817 0.19017 0.0
O106 O 0.17267 0.73535 0.19478 0.0
O107 O 0.07326 0.7373 0.18197 0.0
O108 O 1.03766 0.75003 0.21123 0.0
O109 O 0.12178 0.76545 0.20961 0.0
O110 O 0.23765 0.76003 0.19074 0.0
O111 O 0.23952 0.77819 0.20186 0.0
H112 H 1.01531 0.82053 0.22526 0.0
H113 H 0.97166 0.84286 0.22381 0.0
H114 H 0.0572 0.84374 0.18899 0.0
H115 H 0.09856 0.82125 0.19042 0.0
H116 H 0.12235 0.71243 0.16986 0.0
H117 H 0.11284 0.68922 0.17159 0.0
H118 H 0.08788 0.69297 0.20795 0.0
H119 H 0.099 0.71624 0.20614 0.0
Nd120 Nd 0.23427 0.50179 0.19916 0.0
Nd121 Nd 0.24761 0.52941 0.19399 0.0
C122 C 0.24552 0.4779 0.20671 0.0
C123 C 0.28404 0.46519 0.20455 0.0
C124 C 0.33435 0.45951 0.21295 0.0
C125 C 0.36312 0.44692 0.21173 0.0
C126 C 0.34172 0.43966 0.20211 0.0
C127 C 0.29329 0.44549 0.19355 0.0
C128 C 0.26481 0.4581 0.19475 0.0
C129 C 0.20986 0.50736 0.17648 0.0
C130 C 0.42088 0.51414 0.19368 0.0
C131 C 0.23645 0.55328 0.18638 0.0
C132 C 0.20714 0.56646 0.18883 0.0
C133 C 0.15461 0.57268 0.181 0.0
C134 C 0.1349 0.58564 0.18228 0.0
C135 C 0.16775 0.59274 0.19141 0.0
C136 C 0.21815 0.58638 0.19946 0.0
C137 C 0.23762 0.57339 0.19819 0.0
C138 C 0.26802 0.52387 0.21679 0.0
C139 C 0.06119 0.51688 0.19879 0.0
O140 O 0.29427 0.48715 0.21031 0.0
O141 O 0.18734 0.48188 0.19971 0.0
O142 O 0.16824 0.49877 0.18205 0.0
O143 O 0.26638 0.5123 0.18264 0.0
O144 O 0.37893 0.50535 0.19943 0.0
O145 O 0.38006 0.52339 0.18847 0.0
O146 O 0.18002 0.54451 0.18417 0.0
O147 O 0.3005 0.54888 0.19214 0.0
O148 O 0.31006 0.53255 0.21141 0.0
O149 O 0.2132 0.51892 0.21041 0.0
O150 O 0.10412 0.52532 0.19276 0.0
O151 O 0.1014 0.50799 0.20456 0.0
H152 H 0.34935 0.46468 0.22065 0.0
H153 H 0.39947 0.44272 0.21855 0.0
H154 H 0.27663 0.44025 0.18595 0.0
H155 H 0.2261 0.46217 0.1881 0.0
H156 H 0.13105 0.5676 0.17365 0.0
H157 H 0.09671 0.59023 0.17585 0.0
H158 H 0.24352 0.59149 0.20668 0.0
H159 H 0.27834 0.56889 0.20439 0.0
Nd160 Nd 1.00427 0.50454 0.94358 0.0
Nd161 Nd 0.99301 0.53243 0.9489 0.0
C162 C 0.99335 0.48086 0.93547 0.0
C163 C 0.97114 0.46731 0.93761 0.0
C164 C 0.92995 0.4604 0.92906 0.0
C165 C 0.91863 0.44718 0.93002 0.0
C166 C 0.94839 0.44051 0.93957 0.0
C167 C 0.98643 0.44754 0.94839 0.0
C168 C 0.998 0.46081 0.9474 0.0
C169 C 1.02282 0.50981 0.96647 0.0
C170 C 0.8191 0.51745 0.94812 0.0
C171 C 1.00341 0.55625 0.95669 0.0
C172 C 1.04298 0.56903 0.95523 0.0
C173 C 0.08167 0.57491 0.96458 0.0
C174 C 0.10944 0.58761 0.96396 0.0
C175 C 0.09884 0.59481 0.95397 0.0
C176 C 0.06282 0.58874 0.94447 0.0
C177 C 1.0351 0.57601 0.94509 0.0
C178 C 0.96779 0.5268 0.92624 0.0
C179 C 0.17882 0.51986 0.9435 0.0
O180 O 0.93266 0.48925 0.93446 0.0
O181 O 0.06021 0.48547 0.94048 0.0
O182 O 0.06074 0.5006 0.96123 0.0
O183 O 0.97085 0.5152 0.95994 0.0
O184 O 0.86169 0.50904 0.94202 0.0
O185 O 0.85953 0.52621 0.95405 0.0
O186 O 0.04954 0.54688 0.96062 0.0
O187 O 0.94894 0.5525 0.94908 0.0
O188 O 0.9272 0.53553 0.93179 0.0
O189 O 1.02411 0.52181 0.9324 0.0
O190 O 0.13729 0.52884 0.94907 0.0
O191 O 0.13791 0.5105 0.93844 0.0
H192 H 0.90891 0.46519 0.92142 0.0
H193 H 0.88768 0.44214 0.92316 0.0
H194 H 1.01041 0.44272 0.95584 0.0
H195 H 1.03028 0.46589 0.95412 0.0
H196 H 0.08825 0.56979 0.97251 0.0
H197 H 0.13827 0.59185 0.97138 0.0
H198 H 0.05294 0.59396 0.93666 0.0
H199 H 1.00517 0.57179 0.93774 0.0
Nd200 Nd 0.84603 0.27942 0.94341 0.0
Nd201 Nd 0.85818 0.2518 0.94864 0.0
C202 C 0.85342 0.3033 0.93571 0.0
C203 C 0.87972 0.31672 0.93763 0.0
C204 C 0.91372 0.32366 0.92852 0.0
C205 C 0.92701 0.33684 0.92941 0.0
C206 C 0.90645 0.34345 0.93945 0.0
C207 C 0.87601 0.33638 0.94877 0.0
C208 C 0.86247 0.32315 0.94786 0.0
C209 C 0.8254 0.27396 0.96629 0.0
C210 C 1.03238 0.26692 0.9484 0.0
C211 C 0.84517 0.228 0.95645 0.0
C212 C 0.80759 0.21517 0.95452 0.0
C213 C 0.76635 0.20898 0.96353 0.0
C214 C 0.73869 0.19632 0.96244 0.0
C215 C 0.75185 0.18948 0.9523 0.0
C216 C 0.79129 0.19582 0.94317 0.0
C217 C 0.81881 0.20852 0.94426 0.0
C218 C 0.88404 0.257 0.92587 0.0
C219 C 0.67281 0.26421 0.94342 0.0
O220 O 0.91087 0.29471 0.93335 0.0
O221 O 0.7916 0.2988 0.94187 0.0
O222 O 0.78307 0.28255 0.96086 0.0
O223 O 0.87989 0.26895 0.95986 0.0
O224 O 0.99039 0.27573 0.94269 0.0
O225 O 0.99163 0.25774 0.95377 0.0
O226 O 0.79561 0.23729 0.95975 0.0
O227 O 0.90432 0.23185 0.94951 0.0
O228 O 0.92217 0.24817 0.93155 0.0
O229 O 0.82798 0.2623 0.93195 0.0
O230 O 0.71474 0.25575 0.94949 0.0
O231 O 0.71389 0.27313 0.93779 0.0
H232 H 0.92723 0.31894 0.92054 0.0
H233 H 0.95201 0.34192 0.92214 0.0
H234 H 0.85917 0.34115 0.9566 0.0
H235 H 0.83581 0.31805 0.95501 0.0
H236 H 0.75771 0.21383 0.97157 0.0
H237 H 0.70964 0.19175 0.96971 0.0
H238 H 0.80145 0.19094 0.93519 0.0
H239 H 0.85042 0.21302 0.93715 0.0
Nd240 Nd 0.9972 0.27966 0.82337 0.0
Nd241 Nd 0.98723 0.25184 0.81776 0.0
C242 C 0.98786 0.30325 0.83169 0.0
C243 C 0.96395 0.31677 0.82975 0.0
C244 C 0.92623 0.32362 0.83864 0.0
C245 C 0.91428 0.33684 0.8378 0.0
C246 C 0.93996 0.34356 0.82804 0.0
C247 C 0.97434 0.33657 0.81891 0.0
C248 C 0.98648 0.32331 0.81977 0.0
C249 C 1.01625 0.27468 0.80038 0.0
C250 C 0.81211 0.26678 0.81848 0.0
C251 C 1.00101 0.22821 0.80957 0.0
C252 C 1.03886 0.21538 0.8113 0.0
C253 C 0.07955 0.20935 0.80216 0.0
C254 C 0.10678 0.19665 0.80302 0.0
C255 C 0.09368 0.1896 0.81305 0.0
C256 C 0.05552 0.19582 0.82235 0.0
C257 C 1.02829 0.20855 0.82148 0.0
C258 C 0.9621 0.25679 0.84058 0.0
C259 C 0.17172 0.26455 0.82291 0.0
O260 O 0.92828 0.29474 0.83317 0.0
O261 O 0.05287 0.29879 0.82613 0.0
O262 O 0.05429 0.2838 0.80573 0.0
O263 O 0.96434 0.26918 0.80689 0.0
O264 O 0.85372 0.27551 0.82433 0.0
O265 O 0.85306 0.25776 0.8129 0.0
O266 O 0.05038 0.2376 0.80644 0.0
O267 O 0.94162 0.23187 0.81656 0.0
O268 O 0.92536 0.24779 0.83493 0.0
O269 O 1.01701 0.2623 0.83447 0.0
O270 O 0.13012 0.25602 0.81689 0.0
O271 O 0.13059 0.27346 0.82857 0.0
H272 H 0.90857 0.31881 0.84643 0.0
H273 H 0.88616 0.34185 0.84491 0.0
H274 H 0.99517 0.34142 0.81129 0.0
H275 H 1.01604 0.31826 0.81279 0.0
H276 H 0.08831 0.21437 0.79421 0.0
H277 H 0.13731 0.1923 0.79576 0.0
H278 H 1.04376 0.19071 0.83017 0.0
H279 H 0.99686 0.21291 0.82867 0.0
Nd280 Nd 0.84223 0.50459 0.8243 0.0
Nd281 Nd 0.85446 0.53255 0.81918 0.0
C282 C 0.85011 0.48083 0.83225 0.0
C283 C 0.87541 0.46738 0.83025 0.0
C284 C 0.91161 0.46047 0.8392 0.0
C285 C 0.92434 0.44728 0.83828 0.0
C286 C 0.90096 0.44063 0.82839 0.0
C287 C 0.86822 0.44768 0.81922 0.0
C288 C 0.8553 0.46091 0.82015 0.0
C289 C 0.82335 0.51014 0.80147 0.0
C290 C 1.02845 0.51736 0.81939 0.0
C291 C 0.84347 0.55649 0.81171 0.0
C292 C 0.80292 0.56915 0.81336 0.0
C293 C 0.76825 0.57547 0.80396 0.0
C294 C 0.7387 0.58804 0.8049 0.0
C295 C 0.74337 0.59466 0.81528 0.0
C296 C 0.77605 0.58819 0.82478 0.0
C297 C 0.80545 0.57557 0.82384 0.0
C298 C 0.8793 0.52668 0.84177 0.0
C299 C 0.66867 0.51999 0.82423 0.0
O300 O 0.90856 0.48939 0.83422 0.0
O301 O 0.78691 0.48533 0.82637 0.0
O302 O 0.78454 0.50097 0.80668 0.0
O303 O 0.8759 0.5154 0.80802 0.0
O304 O 0.98638 0.50849 0.82506 0.0
O305 O 0.98794 0.52658 0.81405 0.0
O306 O 0.79799 0.54714 0.80762 0.0
O307 O 0.89767 0.55267 0.81932 0.0
O308 O 0.92026 0.53541 0.8363 0.0
O309 O 0.82273 0.52177 0.83558 0.0
O310 O 0.71088 0.52869 0.81844 0.0
O311 O 0.70917 0.51084 0.82964 0.0
H312 H 0.92737 0.46522 0.84708 0.0
H313 H 0.95118 0.44222 0.84544 0.0
H314 H 0.84916 0.44289 0.8115 0.0
H315 H 0.82693 0.46599 0.81312 0.0
H316 H 0.76641 0.5708 0.79577 0.0
H317 H 0.71503 0.59273 0.79736 0.0
H318 H 0.77957 0.5929 0.83294 0.0
H319 H 0.83186 0.57097 0.83125 0.0
Nd320 Nd 0.09666 1.00224 0.56841 0.0
Nd321 Nd 0.08542 0.03018 0.57328 0.0
C322 C 0.08529 0.97821 0.56112 0.0
C323 C 1.04592 0.96543 0.56271 0.0
C324 C 1.00589 0.95952 0.55347 0.0
C325 C 0.97858 0.9468 0.55416 0.0
C326 C 0.99095 0.9396 0.56411 0.0
C327 C 1.02829 0.94569 0.57351 0.0
C328 C 0.05562 0.95843 0.57281 0.0
C329 C 0.11905 1.00831 0.59106 0.0
C330 C 0.91115 1.01498 0.5731 0.0
C331 C 0.09459 0.05398 0.58111 0.0
C332 C 0.12544 0.06724 0.57944 0.0
C333 C 0.16737 0.07338 0.58838 0.0
C334 C 0.18564 0.08646 0.58784 0.0
C335 C 0.16205 0.09377 0.57834 0.0
C336 C 0.12337 0.08748 0.56915 0.0
C337 C 0.10505 0.07437 0.5697 0.0
C338 C 0.06698 0.02447 0.55047 0.0
C339 C 0.27132 0.01731 0.56846 0.0
O340 O 1.03933 0.98751 0.55704 0.0
O341 O 0.13975 0.98211 0.56868 0.0
O342 O 0.16044 0.9995 0.58573 0.0
O343 O 0.06379 1.01319 0.58468 0.0
O344 O 0.95338 1.0062 0.56742 0.0
O345 O 0.95163 0.02416 0.57848 0.0
O346 O 0.14853 0.04506 0.58393 0.0
O347 O 1.03462 0.04982 0.57447 0.0
O348 O 1.02786 0.03363 0.55565 0.0
O349 O 0.11952 0.01925 0.55705 0.0
O350 O 0.2295 0.02633 0.57395 0.0
O351 O 0.23063 1.00798 0.5633 0.0
H352 H 0.99797 0.96464 0.54556 0.0
H353 H 0.94872 0.94256 0.54681 0.0
H354 H 1.03954 0.94046 0.58128 0.0
H355 H 0.08669 0.96266 0.58008 0.0
H356 H 0.18344 0.06815 0.596 0.0
H357 H 0.21693 0.0909 0.59499 0.0
H358 H 0.10387 0.09279 0.56172 0.0
H359 H 0.07229 0.06992 0.56267 0.0
Nd360 Nd 0.25047 0.2846 0.56806 0.0
Nd361 Nd 0.24986 0.25353 0.57459 0.0
C362 C 0.25603 0.30688 0.55743 0.0
C363 C 0.28413 0.32029 0.55893 0.0
C364 C 0.32402 0.32656 0.54988 0.0
C365 C 0.34699 0.33945 0.55075 0.0
C366 C 0.33036 0.34644 0.56072 0.0
C367 C 0.29195 0.34004 0.5699 0.0
C368 C 0.26905 0.3271 0.56902 0.0
C369 C 0.24441 0.28052 0.59141 0.0
C370 C 0.43006 0.26954 0.57286 0.0
C371 C 0.24371 0.2313 0.58534 0.0
C372 C 0.23604 0.21736 0.58359 0.0
C373 C 0.20925 0.20973 0.59267 0.0
C374 C 0.20343 0.19646 0.59148 0.0
C375 C 0.22437 0.19047 0.58115 0.0
C376 C 0.24991 0.1982 0.57197 0.0
C377 C 0.25584 0.21154 0.57318 0.0
C378 C 0.25331 0.25781 0.55121 0.0
C379 C 0.07202 0.26905 0.57081 0.0
O380 O 0.31497 0.29814 0.55635 0.0
O381 O 0.19087 0.303 0.56342 0.0
O382 O 0.24741 0.29178 0.58676 0.0
O383 O 0.24814 0.27233 0.58362 0.0
O384 O 0.39148 0.27947 0.56818 0.0
O385 O 0.38904 0.25953 0.57709 0.0
O386 O 0.17668 0.23825 0.58326 0.0
O387 O 0.31444 0.23678 0.58216 0.0
O388 O 0.25303 0.24646 0.55572 0.0
O389 O 0.25014 0.26577 0.55917 0.0
O390 O 0.11177 0.25994 0.5765 0.0
O391 O 0.11279 0.27811 0.56512 0.0
H392 H 0.3366 0.32151 0.54203 0.0
H393 H 0.37791 0.34393 0.54358 0.0
H394 H 0.27758 0.34509 0.57768 0.0
H395 H 0.23849 0.3225 0.57616 0.0
H396 H 0.19317 0.21404 0.60074 0.0
H397 H 0.18198 0.19088 0.59867 0.0
H398 H 0.26695 0.19393 0.56392 0.0
H399 H 0.27652 0.21727 0.56605 0.0
Nd400 Nd 0.09252 0.28409 0.69812 0.0
Nd401 Nd 0.08731 0.25436 0.69249 0.0
C402 C 0.08652 0.30664 0.70832 0.0
C403 C 0.05526 0.31988 0.70671 0.0
C404 C 1.01471 0.32609 0.71576 0.0
C405 C 0.98911 0.33885 0.71477 0.0
C406 C 1.00371 0.34575 0.7047 0.0
C407 C 1.04338 0.33944 0.69557 0.0
C408 C 0.0687 0.32663 0.69656 0.0
C409 C 0.08964 0.28055 0.67466 0.0
C410 C 0.91329 0.27003 0.69298 0.0
C411 C 0.09781 0.23095 0.68388 0.0
C412 C 0.11903 0.21742 0.68609 0.0
C413 C 0.15627 0.21023 0.67738 0.0
C414 C 0.16831 0.19706 0.67862 0.0
C415 C 0.14323 0.19075 0.68861 0.0
C416 C 0.10888 0.19807 0.69753 0.0
C417 C 0.09665 0.21129 0.69627 0.0
C418 C 0.0656 0.26062 0.71513 0.0
C419 C 0.2721 0.26865 0.69595 0.0
O420 O 1.03007 0.29766 0.71003 0.0
O421 O 0.14983 0.30289 0.70195 0.0
O422 O 0.08954 0.29166 0.67954 0.0
O423 O 0.08755 0.27215 0.68226 0.0
O424 O 0.95261 0.27844 0.69945 0.0
O425 O 0.95588 0.26142 0.68707 0.0
O426 O 0.15956 0.23924 0.6833 0.0
O427 O 1.02975 0.23557 0.68867 0.0
O428 O 1.03161 0.25074 0.71031 0.0
O429 O 0.11565 0.26605 0.70831 0.0
O430 O 0.23068 0.2584 0.69239 0.0
O431 O 0.23303 0.27903 0.69965 0.0
H432 H 1.00411 0.32112 0.72369 0.0
H433 H 0.95982 0.34341 0.72202 0.0
H434 H 0.0547 0.34438 0.68765 0.0
H435 H 0.09955 0.32207 0.68942 0.0
H436 H 0.17401 0.21475 0.66946 0.0
H437 H 0.19635 0.19179 0.67166 0.0
H438 H 0.0885 0.19352 0.70531 0.0
H439 H 0.06764 0.21663 0.70312 0.0
Nd440 Nd 0.24077 1.00082 0.69671 0.0
Nd441 Nd 0.24894 0.03074 0.69379 0.0
C442 C 0.25131 0.97581 0.70002 0.0
C443 C 0.29936 0.96389 0.70231 0.0
C444 C 0.28175 0.95672 0.7121 0.0
C445 C 0.31325 0.94427 0.7133 0.0
C446 C 0.36253 0.93862 0.70468 0.0
C447 C 0.38327 0.94606 0.69512 0.0
C448 C 0.3522 0.95852 0.69396 0.0
C449 C 0.19935 1.01027 0.67557 0.0
C450 C 0.42572 1.01489 0.69445 0.0
C451 C 0.24765 0.05406 0.68506 0.0
C452 C 0.22458 0.06755 0.68718 0.0
C453 C 0.18839 0.07467 0.67836 0.0
C454 C 0.17325 0.08776 0.67966 0.0
C455 C 0.19412 0.09408 0.68981 0.0
C456 C 0.22872 0.08685 0.69875 0.0
C457 C 0.24373 0.07372 0.69745 0.0
C458 C 0.2572 0.02499 0.71677 0.0
C459 C 0.06621 1.01642 0.69888 0.0
O460 O 0.23338 0.98383 0.70825 0.0
O461 O 0.26239 0.9814 0.6902 0.0
O462 O 0.15858 1.00122 0.6807 0.0
O463 O 0.26047 1.01412 0.68159 0.0
O464 O 0.38332 1.00489 0.6983 0.0
O465 O 0.38717 0.02519 0.69056 0.0
O466 O 0.18638 0.04581 0.68345 0.0
O467 O 0.31126 0.04934 0.69079 0.0
O468 O 0.25651 0.03654 0.71278 0.0
O469 O 0.25092 1.01724 0.70864 0.0
O470 O 0.10565 0.02629 0.69418 0.0
O471 O 0.10727 1.00615 0.7024 0.0
H472 H 0.24057 0.96053 0.71862 0.0
H473 H 0.29722 0.93896 0.72088 0.0
H474 H 0.42012 0.94207 0.68823 0.0
H475 H 0.36644 0.96369 0.68623 0.0
H476 H 0.1738 0.07015 0.67033 0.0
H477 H 0.1477 0.09301 0.67253 0.0
H478 H 0.24457 0.09136 0.70673 0.0
H479 H 0.27164 0.06844 0.7044 0.0
Nd480 Nd 0.998 1.00521 0.44256 0.0
Nd481 Nd 0.99533 0.03497 0.44879 0.0
C482 C 0.97658 0.98207 0.43375 0.0
C483 C 0.96045 0.96838 0.43612 0.0
C484 C 0.89415 0.96229 0.43038 0.0
C485 C 0.8809 0.94915 0.43154 0.0
C486 C 0.93397 0.94172 0.43847 0.0
C487 C 0.99895 0.94791 0.44452 0.0
C488 C 1.01225 0.96112 0.44334 0.0
C489 C 1.02023 1.01086 0.46527 0.0
C490 C 0.81585 0.02025 0.44574 0.0
C491 C 1.00426 0.05733 0.45925 0.0
C492 C 1.03757 0.07048 0.45764 0.0
C493 C 0.08766 0.07602 0.46613 0.0
C494 C 0.11511 0.08872 0.4652 0.0
C495 C 0.09263 0.09622 0.45577 0.0
C496 C 1.04359 0.09056 0.44717 0.0
C497 C 1.01654 0.07784 0.44807 0.0
C498 C 0.99511 0.03173 0.42529 0.0
C499 C 0.17426 0.02069 0.44285 0.0
O500 O 0.91464 0.99006 0.43558 0.0
O501 O 0.05078 0.98687 0.43618 0.0
O502 O 0.05196 1.00089 0.46032 0.0
O503 O 0.97133 1.01665 0.45857 0.0
O504 O 0.85751 1.01075 0.44087 0.0
O505 O 0.85509 0.02977 0.45092 0.0
O506 O 0.05933 0.04813 0.46088 0.0
O507 O 0.94018 0.05382 0.45293 0.0
O508 O 0.99518 0.0428 0.43025 0.0
O509 O 0.99783 0.0233 0.43284 0.0
O510 O 0.13598 0.02942 0.44915 0.0
O511 O 0.13152 1.01168 0.43743 0.0
H512 H 0.85335 0.96768 0.42476 0.0
H513 H 0.82934 0.94478 0.42692 0.0
H514 H 1.04134 0.94248 0.44987 0.0
H515 H 0.06399 0.96556 0.44787 0.0
H516 H 0.10433 0.0706 0.47363 0.0
H517 H 0.15196 0.09277 0.47205 0.0
H518 H 1.02606 0.09598 0.43971 0.0
H519 H 0.97828 0.07384 0.44134 0.0
Nd520 Nd 0.86411 0.78057 0.44354 0.0
Nd521 Nd 0.8637 0.75068 0.4489 0.0
C522 C 0.89459 0.80415 0.43648 0.0
C523 C 0.87761 0.818 0.4377 0.0
C524 C 0.86238 0.82527 0.42793 0.0
C525 C 0.86006 0.83862 0.42846 0.0
C526 C 0.87338 0.84505 0.43879 0.0
C527 C 0.88448 0.83772 0.44869 0.0
C528 C 0.88675 0.82433 0.44815 0.0
C529 C 0.83185 0.77408 0.46585 0.0
C530 C 1.04283 0.76489 0.44589 0.0
C531 C 0.85346 0.72801 0.45881 0.0
C532 C 0.82194 0.71483 0.45684 0.0
C533 C 0.76505 0.70934 0.4646 0.0
C534 C 0.7389 0.69662 0.46339 0.0
C535 C 0.76952 0.68901 0.45443 0.0
C536 C 0.82551 0.69459 0.44656 0.0
C537 C 0.85131 0.70735 0.44773 0.0
C538 C 0.87083 0.75454 0.42552 0.0
C539 C 0.6841 0.76589 0.44383 0.0
O540 O 0.93712 0.79849 0.44456 0.0
O541 O 0.83692 0.79681 0.43183 0.0
O542 O 0.80019 0.784 0.46082 0.0
O543 O 0.88423 0.76853 0.45939 0.0
O544 O 1.00111 0.77395 0.44046 0.0
O545 O 1.00304 0.75588 0.45165 0.0
O546 O 0.79709 0.73705 0.46034 0.0
O547 O 0.91913 0.73181 0.45289 0.0
O548 O 0.8682 0.74336 0.43026 0.0
O549 O 0.86734 0.76284 0.43322 0.0
O550 O 0.72275 0.7562 0.44885 0.0
O551 O 0.72576 0.77581 0.43961 0.0
H552 H 0.85546 0.82063 0.41976 0.0
H553 H 0.84964 0.84392 0.4207 0.0
H554 H 0.89533 0.84233 0.45678 0.0
H555 H 0.89889 0.81898 0.45583 0.0
H556 H 0.74194 0.71485 0.47175 0.0
H557 H 0.69653 0.69263 0.46969 0.0
H558 H 0.84948 0.68909 0.43947 0.0
H559 H 0.89508 0.71127 0.44157 0.0
Nd560 Nd 1.00122 0.78041 0.32409 0.0
Nd561 Nd 0.99569 0.7506 0.31836 0.0
C562 C 0.99823 0.80293 0.33438 0.0
C563 C 0.97841 0.8166 0.33263 0.0
C564 C 0.95348 0.824 0.34196 0.0
C565 C 0.9418 0.8372 0.34086 0.0
C566 C 0.95493 0.84332 0.33038 0.0
C567 C 0.97733 0.8358 0.32093 0.0
C568 C 0.98912 0.82256 0.32205 0.0
C569 C 0.99833 0.77668 0.30063 0.0
C570 C 0.8217 0.76625 0.31895 0.0
C571 C 1.00885 0.72719 0.30981 0.0
C572 C 1.04617 0.71437 0.31165 0.0
C573 C 0.0819 0.70787 0.3024 0.0
C574 C 0.11012 0.69526 0.30355 0.0
C575 C 0.10308 0.6888 0.31398 0.0
C576 C 0.06902 0.69545 0.32332 0.0
C577 C 1.04096 0.70811 0.32217 0.0
C578 C 0.96474 0.75676 0.34076 0.0
C579 C 0.18056 0.76448 0.32291 0.0
O580 O 0.93499 0.79485 0.33479 0.0
O581 O 0.06448 0.79839 0.32906 0.0
O582 O 1.00025 0.78788 0.30534 0.0
O583 O 0.99622 0.7685 0.30839 0.0
O584 O 0.86128 0.77469 0.32539 0.0
O585 O 0.86399 0.75762 0.31299 0.0
O586 O 0.0595 0.73656 0.30696 0.0
O587 O 0.94823 0.73081 0.31665 0.0
O588 O 0.93258 0.74702 0.33553 0.0
O589 O 1.01882 0.76227 0.33449 0.0
O590 O 0.13926 0.75401 0.3199 0.0
O591 O 0.14154 0.77522 0.32569 0.0
H592 H 0.94472 0.8196 0.3502 0.0
H593 H 0.92303 0.84262 0.34827 0.0
H594 H 0.98846 0.84019 0.31274 0.0
H595 H 1.00845 0.81703 0.31472 0.0
H596 H 0.08594 0.71245 0.29418 0.0
H597 H 0.13488 0.69043 0.29613 0.0
H598 H 0.06366 0.69086 0.33152 0.0
H599 H 1.01379 0.7129 0.32946 0.0
Nd600 Nd 0.84346 1.0033 0.325 0.0
Nd601 Nd 0.84668 0.033 0.31849 0.0
C602 C 0.85652 0.98025 0.33429 0.0
C603 C 0.8746 0.96662 0.33199 0.0
C604 C 0.91974 0.95958 0.34007 0.0
C605 C 0.93283 0.94646 0.33865 0.0
C606 C 0.90101 0.94002 0.32908 0.0
C607 C 0.85685 0.94716 0.32087 0.0
C608 C 0.84384 0.96034 0.3223 0.0
C609 C 0.82373 1.00857 0.30217 0.0
C610 C 1.02685 0.01795 0.32148 0.0
C611 C 0.84069 0.05519 0.30772 0.0
C612 C 0.81101 0.06852 0.30917 0.0
C613 C 0.77664 0.07497 0.29984 0.0
C614 C 0.75334 0.08784 0.3007 0.0
C615 C 0.76412 0.09461 0.31092 0.0
C616 C 0.79671 0.088 0.32036 0.0
C617 C 0.81991 0.07509 0.31949 0.0
C618 C 0.84318 0.03017 0.34201 0.0
C619 C 0.66812 0.01877 0.32381 0.0
O620 O 0.9195 0.98833 0.33372 0.0
O621 O 0.78571 0.98499 0.33042 0.0
O622 O 0.79355 0.99849 0.30713 0.0
O623 O 0.87093 1.0146 0.30893 0.0
O624 O 0.98572 1.00795 0.32562 0.0
O625 O 0.98755 0.02797 0.3171 0.0
O626 O 0.78304 0.04629 0.3065 0.0
O627 O 0.90485 0.05153 0.31393 0.0
O628 O 0.8424 0.04114 0.33689 0.0
O629 O 0.84207 0.02155 0.33459 0.0
O630 O 0.70748 0.02704 0.31718 0.0
O631 O 0.71049 1.01032 0.32991 0.0
H632 H 0.94346 0.9642 0.34765 0.0
H633 H 0.9659 0.94129 0.34524 0.0
H634 H 0.83229 0.94257 0.31333 0.0
H635 H 0.80889 0.96557 0.31592 0.0
H636 H 0.7689 0.07009 0.2918 0.0
H637 H 0.72693 0.0925 0.29331 0.0
H638 H 0.80651 0.09289 0.32835 0.0
H639 H 0.84616 0.07033 0.32684 0.0
Nd640 Nd 0.60425 0.50258 0.5688 0.0
Nd641 Nd 0.59214 0.53014 0.57449 0.0
C642 C 0.5913 0.47899 0.5605 0.0
C643 C 0.55027 0.46629 0.56173 0.0
C644 C 0.51157 0.4607 0.55225 0.0
C645 C 0.482 0.44809 0.55266 0.0
C646 C 0.49073 0.44069 0.56256 0.0
C647 C 0.52673 0.44647 0.5722 0.0
C648 C 0.55632 0.45912 0.57179 0.0
C649 C 0.63061 0.50733 0.59158 0.0
C650 C 0.41891 0.51486 0.57448 0.0
C651 C 0.60021 0.55396 0.58235 0.0
C652 C 0.62606 0.56732 0.58004 0.0
C653 C 0.65954 0.57465 0.58892 0.0
C654 C 0.67451 0.58774 0.58753 0.0
C655 C 0.65627 0.59388 0.57719 0.0
C656 C 0.62503 0.58641 0.56817 0.0
C657 C 0.61006 0.57328 0.56958 0.0
C658 C 0.57206 0.52497 0.55158 0.0
C659 C 0.77868 0.51761 0.56947 0.0
O660 O 0.54598 0.48858 0.55682 0.0
O661 O 0.6465 0.48241 0.56814 0.0
O662 O 0.66866 0.4986 0.58574 0.0
O663 O 0.57451 0.51278 0.58565 0.0
O664 O 0.46073 0.50646 0.56832 0.0
O665 O 0.45998 0.52376 0.58013 0.0
O666 O 0.65865 0.54542 0.58431 0.0
O667 O 0.53665 0.54939 0.57659 0.0
O668 O 0.52935 0.53348 0.55709 0.0
O669 O 0.62662 0.51996 0.55794 0.0
O670 O 0.73634 0.52632 0.57527 0.0
O671 O 0.73832 0.50853 0.56392 0.0
H672 H 0.50633 0.46599 0.54438 0.0
H673 H 0.45321 0.44409 0.54513 0.0
H674 H 0.53507 0.44108 0.57995 0.0
H675 H 0.58615 0.46313 0.57924 0.0
H676 H 0.6715 0.57031 0.59711 0.0
H677 H 0.6974 0.59314 0.59473 0.0
H678 H 0.61136 0.59073 0.56003 0.0
H679 H 0.58409 0.56786 0.56257 0.0
Nd680 Nd 0.73817 0.78257 0.56837 0.0
Nd681 Nd 0.74913 0.75496 0.57387 0.0
C682 C 0.75058 0.80623 0.56024 0.0
C683 C 0.78791 0.81909 0.56208 0.0
C684 C 0.82856 0.82527 0.55302 0.0
C685 C 0.856 0.83795 0.55404 0.0
C686 C 0.84318 0.84483 0.56417 0.0
C687 C 0.8043 0.8385 0.57335 0.0
C688 C 0.77703 0.82579 0.57232 0.0
C689 C 0.7126 0.77772 0.59122 0.0
C690 C 0.9234 0.77012 0.57402 0.0
C691 C 0.73771 0.73119 0.5818 0.0
C692 C 0.71631 0.71764 0.57953 0.0
C693 C 0.67548 0.71058 0.58804 0.0
C694 C 0.6647 0.69736 0.58693 0.0
C695 C 0.69463 0.69085 0.57728 0.0
C696 C 0.73239 0.69804 0.56852 0.0
C697 C 0.74341 0.71131 0.56965 0.0
C698 C 0.7696 0.76011 0.55094 0.0
C699 C 0.56401 0.76773 0.56939 0.0
O700 O 0.80044 0.79691 0.55707 0.0
O701 O 0.69131 0.80246 0.5672 0.0
O702 O 0.67509 0.78658 0.58549 0.0
O703 O 0.76778 0.77221 0.58515 0.0
O704 O 0.8823 0.77885 0.56815 0.0
O705 O 0.88186 0.76097 0.57931 0.0
O706 O 0.67659 0.73953 0.58271 0.0
O707 O 0.80514 0.7359 0.57697 0.0
O708 O 0.81053 0.75139 0.5564 0.0
O709 O 0.71561 0.76528 0.55734 0.0
O710 O 0.60664 0.75946 0.57559 0.0
O711 O 0.60458 0.77637 0.56332 0.0
H712 H 0.83695 0.82039 0.54499 0.0
H713 H 0.88463 0.8425 0.54674 0.0
H714 H 0.79441 0.84341 0.58133 0.0
H715 H 0.74589 0.8213 0.57948 0.0
H716 H 0.65425 0.71523 0.59574 0.0
H717 H 0.63399 0.69219 0.59375 0.0
H718 H 0.75656 0.69336 0.561 0.0
H719 H 0.77543 0.71652 0.56297 0.0
Nd720 Nd 0.61313 0.78165 0.69955 0.0
Nd721 Nd 0.60397 0.75405 0.69365 0.0
C722 C 0.60092 0.80508 0.70818 0.0
C723 C 0.56923 0.81827 0.70615 0.0
C724 C 0.4924 0.82239 0.71095 0.0
C725 C 0.46761 0.83523 0.71024 0.0
C726 C 0.51949 0.84431 0.70481 0.0
C727 C 0.59525 0.84011 0.69977 0.0
C728 C 0.61987 0.82728 0.70044 0.0
C729 C 0.63794 0.7773 0.67661 0.0
C730 C 0.42844 0.76897 0.69406 0.0
C731 C 0.61822 0.73052 0.68526 0.0
C732 C 0.6367 0.71697 0.68784 0.0
C733 C 0.67997 0.70965 0.67974 0.0
C734 C 0.69161 0.69653 0.68132 0.0
C735 C 0.66024 0.69036 0.69108 0.0
C736 C 0.61836 0.6978 0.69933 0.0
C737 C 0.60671 0.71098 0.69773 0.0
C738 C 0.5838 0.75872 0.71669 0.0
C739 C 0.78764 0.76705 0.69805 0.0
O740 O 0.5463 0.79599 0.71031 0.0
O741 O 0.66475 0.80111 0.70208 0.0
O742 O 0.67378 0.78628 0.68239 0.0
O743 O 0.58398 0.77151 0.68266 0.0
O744 O 0.46949 0.77768 0.69998 0.0
O745 O 0.46988 0.7599 0.68866 0.0
O746 O 0.68066 0.73869 0.68544 0.0
O747 O 0.54778 0.73533 0.68915 0.0
O748 O 0.54637 0.74962 0.71125 0.0
O749 O 0.63608 0.76423 0.71027 0.0
O750 O 0.74521 0.75908 0.69153 0.0
O751 O 0.74669 0.7753 0.70448 0.0
H752 H 0.4525 0.81575 0.71556 0.0
H753 H 0.40927 0.83814 0.71432 0.0
H754 H 0.6362 0.84679 0.69538 0.0
H755 H 0.67984 0.82452 0.69673 0.0
H756 H 0.70292 0.71405 0.672 0.0
H757 H 0.7229 0.69114 0.67469 0.0
H758 H 0.59425 0.69343 0.707 0.0
H759 H 0.57305 0.71642 0.70412 0.0
Nd760 Nd 0.74188 0.50211 0.69931 0.0
Nd761 Nd 0.75318 0.52968 0.69354 0.0
C762 C 0.75449 0.47863 0.70777 0.0
C763 C 0.79403 0.46588 0.70625 0.0
C764 C 0.83252 0.45996 0.71558 0.0
C765 C 0.861 0.44732 0.71487 0.0
C766 C 0.85135 0.44022 0.7048 0.0
C767 C 0.81559 0.44634 0.69531 0.0
C768 C 0.78715 0.45902 0.69603 0.0
C769 C 0.71638 0.50673 0.67649 0.0
C770 C 0.92733 0.5145 0.69343 0.0
C771 C 0.74257 0.55336 0.68543 0.0
C772 C 0.71962 0.56683 0.68765 0.0
C773 C 0.68766 0.57418 0.67869 0.0
C774 C 0.67606 0.58736 0.67993 0.0
C775 C 0.69621 0.59353 0.69017 0.0
C776 C 0.72479 0.58605 0.69933 0.0
C777 C 0.73672 0.57282 0.69807 0.0
C778 C 0.77223 0.52467 0.71651 0.0
C779 C 0.56764 0.51696 0.69814 0.0
O780 O 0.80214 0.48814 0.7111 0.0
O781 O 0.69699 0.48212 0.70047 0.0
O782 O 0.67892 0.49789 0.68228 0.0
O783 O 0.77171 0.51229 0.68247 0.0
O784 O 0.88608 0.5058 0.69937 0.0
O785 O 0.88598 0.52362 0.68812 0.0
O786 O 0.6822 0.54493 0.68431 0.0
O787 O 0.80889 0.5488 0.69059 0.0
O788 O 0.81405 0.53332 0.71104 0.0
O789 O 0.71856 0.51954 0.71009 0.0
O790 O 0.61055 0.52524 0.69195 0.0
O791 O 0.60785 0.50831 0.70421 0.0
H792 H 0.83847 0.46502 0.72356 0.0
H793 H 0.88966 0.44304 0.72228 0.0
H794 H 0.80651 0.44119 0.68745 0.0
H795 H 0.75756 0.46331 0.68869 0.0
H796 H 0.67418 0.56977 0.67057 0.0
H797 H 0.65255 0.59276 0.67277 0.0
H798 H 0.74126 0.59049 0.70732 0.0
H799 H 0.76175 0.56737 0.7051 0.0
Nd800 Nd 0.49806 0.50552 0.44373 0.0
Nd801 Nd 0.48757 0.5334 0.44908 0.0
C802 C 0.48391 0.48186 0.43571 0.0
C803 C 0.45738 0.4686 0.43835 0.0
C804 C 0.40405 0.46214 0.43076 0.0
C805 C 0.38588 0.44915 0.43225 0.0
C806 C 0.42105 0.44227 0.44134 0.0
C807 C 0.47253 0.44886 0.44913 0.0
C808 C 0.49046 0.46188 0.44766 0.0
C809 C 0.51666 0.51073 0.46663 0.0
C810 C 0.3133 0.51858 0.44828 0.0
C811 C 0.50006 0.55719 0.45685 0.0
C812 C 0.54092 0.56981 0.45506 0.0
C813 C 0.58621 0.57547 0.46397 0.0
C814 C 0.61679 0.588 0.46303 0.0
C815 C 0.60231 0.59522 0.45315 0.0
C816 C 0.55897 0.5894 0.4441 0.0
C817 C 0.52868 0.57685 0.44503 0.0
C818 C 0.46361 0.52783 0.4264 0.0
C819 C 0.67314 0.52065 0.44376 0.0
O820 O 0.42538 0.49054 0.43443 0.0
O821 O 0.55145 0.48627 0.44071 0.0
O822 O 0.55429 0.5015 0.46137 0.0
O823 O 0.46482 0.51617 0.46012 0.0
O824 O 0.35578 0.51019 0.44216 0.0
O825 O 0.35385 0.52731 0.45423 0.0
O826 O 0.54631 0.54776 0.46065 0.0
O827 O 0.44367 0.55347 0.44947 0.0
O828 O 0.42294 0.53659 0.4319 0.0
O829 O 0.51931 0.52277 0.43262 0.0
O830 O 0.63166 0.52963 0.44933 0.0
O831 O 0.63219 0.51131 0.43867 0.0
H832 H 0.37844 0.46706 0.42346 0.0
H833 H 0.34683 0.44439 0.42601 0.0
H834 H 0.49972 0.44392 0.45632 0.0
H835 H 0.53178 0.46659 0.45367 0.0
H836 H 0.59576 0.57033 0.47184 0.0
H837 H 0.64902 0.59218 0.47022 0.0
H838 H 0.54771 0.5946 0.43631 0.0
H839 H 0.494 0.57279 0.43799 0.0
Nd840 Nd 0.35901 0.28139 0.44451 0.0
Nd841 Nd 0.35907 0.25148 0.44986 0.0
C842 C 0.3888 0.30502 0.43749 0.0
C843 C 0.36979 0.31878 0.43879 0.0
C844 C 0.3693 0.32656 0.42912 0.0
C845 C 0.36349 0.33986 0.43011 0.0
C846 C 0.35814 0.34572 0.44084 0.0
C847 C 0.35552 0.33784 0.45053 0.0
C848 C 0.36133 0.32451 0.44952 0.0
C849 C 0.32728 0.27477 0.46681 0.0
C850 C 0.53803 0.26574 0.44683 0.0
C851 C 0.34874 0.22888 0.4599 0.0
C852 C 0.31555 0.21575 0.45815 0.0
C853 C 0.26496 0.21012 0.46657 0.0
C854 C 0.23763 0.19744 0.46554 0.0
C855 C 0.26068 0.19002 0.45606 0.0
C856 C 0.31024 0.19576 0.44752 0.0
C857 C 0.33722 0.20848 0.44854 0.0
C858 C 0.36616 0.25532 0.42649 0.0
C859 C 0.17924 0.26664 0.44473 0.0
O860 O 0.43055 0.29944 0.44569 0.0
O861 O 0.33221 0.29758 0.43273 0.0
O862 O 0.29429 0.28461 0.46179 0.0
O863 O 0.37992 0.26934 0.46031 0.0
O864 O 0.49622 0.27483 0.44144 0.0
O865 O 0.49838 0.25669 0.45257 0.0
O866 O 0.29358 0.23805 0.4616 0.0
O867 O 0.41333 0.23248 0.45368 0.0
O868 O 0.36357 0.24414 0.43124 0.0
O869 O 0.36252 0.26364 0.43417 0.0
O870 O 0.21795 0.25692 0.44971 0.0
O871 O 0.22078 0.2766 0.44057 0.0
H872 H 0.37663 0.32237 0.42077 0.0
H873 H 0.36681 0.34557 0.42247 0.0
H874 H 0.35013 0.34198 0.45891 0.0
H875 H 0.36155 0.31872 0.45713 0.0
H876 H 0.24784 0.21548 0.4741 0.0
H877 H 0.20042 0.19333 0.47234 0.0
H878 H 0.32824 0.1904 0.44004 0.0
H879 H 0.37591 0.21254 0.44186 0.0
Nd880 Nd 0.50529 0.28066 0.32518 0.0
Nd881 Nd 0.49894 0.25076 0.31952 0.0
C882 C 0.50045 0.30339 0.33511 0.0
C883 C 0.48437 0.31708 0.33276 0.0
C884 C 0.43895 0.32436 0.3407 0.0
C885 C 0.42804 0.33753 0.33915 0.0
C886 C 0.46265 0.34376 0.32963 0.0
C887 C 0.50688 0.33638 0.32157 0.0
C888 C 0.51748 0.32318 0.3231 0.0
C889 C 0.50625 0.27664 0.30173 0.0
C890 C 0.32531 0.26645 0.32011 0.0
C891 C 0.51172 0.22738 0.31091 0.0
C892 C 0.55154 0.21463 0.31219 0.0
C893 C 0.59461 0.20925 0.30293 0.0
C894 C 0.6235 0.19661 0.30332 0.0
C895 C 0.60961 0.18897 0.31298 0.0
C896 C 0.56912 0.19454 0.32242 0.0
C897 C 0.54029 0.20721 0.32203 0.0
C898 C 0.46618 0.25709 0.34185 0.0
C899 C 0.68397 0.26454 0.32442 0.0
O900 O 0.43565 0.29559 0.33492 0.0
O901 O 0.56919 0.29836 0.33079 0.0
O902 O 0.51011 0.28789 0.30633 0.0
O903 O 0.50084 0.26866 0.30961 0.0
O904 O 0.36522 0.27491 0.3265 0.0
O905 O 0.36729 0.25778 0.31416 0.0
O906 O 0.55891 0.23695 0.30753 0.0
O907 O 0.4545 0.23076 0.31835 0.0
O908 O 0.43409 0.24734 0.3366 0.0
O909 O 0.52102 0.26253 0.33564 0.0
O910 O 0.64257 0.25408 0.32135 0.0
O911 O 0.64508 0.27532 0.32715 0.0
H912 H 0.41327 0.31989 0.34824 0.0
H913 H 0.39453 0.34288 0.3456 0.0
H914 H 0.53339 0.34081 0.31406 0.0
H915 H 0.55254 0.3178 0.31681 0.0
H916 H 0.6039 0.21473 0.29523 0.0
H917 H 0.65583 0.19277 0.29597 0.0
H918 H 0.55671 0.18895 0.32998 0.0
H919 H 0.50702 0.21105 0.3293 0.0
Nd920 Nd 0.34628 0.5041 0.32453 0.0
Nd921 Nd 0.3583 0.53193 0.31905 0.0
C922 C 0.35616 0.48045 0.33268 0.0
C923 C 0.38133 0.46707 0.33029 0.0
C924 C 0.42666 0.46025 0.33852 0.0
C925 C 0.44175 0.44714 0.33723 0.0
C926 C 0.41146 0.4405 0.32768 0.0
C927 C 0.36843 0.44746 0.31925 0.0
C928 C 0.35357 0.46059 0.32053 0.0
C929 C 0.32695 0.50924 0.30164 0.0
C930 C 0.53224 0.51684 0.3195 0.0
C931 C 0.34679 0.55573 0.31125 0.0
C932 C 0.30807 0.56852 0.31295 0.0
C933 C 0.26243 0.57412 0.30406 0.0
C934 C 0.23481 0.58681 0.3048 0.0
C935 C 0.25257 0.59427 0.31445 0.0
C936 C 0.29565 0.58848 0.32354 0.0
C937 C 0.3232 0.57576 0.3228 0.0
C938 C 0.3825 0.52652 0.34175 0.0
C939 C 0.17259 0.51941 0.32422 0.0
O940 O 0.41532 0.48901 0.33422 0.0
O941 O 0.29059 0.48497 0.32731 0.0
O942 O 0.28846 0.50013 0.30697 0.0
O943 O 0.37958 0.51461 0.30809 0.0
O944 O 0.49017 0.50817 0.3254 0.0
O945 O 0.49161 0.52586 0.31393 0.0
O946 O 0.29897 0.54639 0.30763 0.0
O947 O 0.40366 0.55194 0.31851 0.0
O948 O 0.42331 0.53519 0.33617 0.0
O949 O 0.32634 0.52146 0.3356 0.0
O950 O 0.21482 0.52798 0.31827 0.0
O951 O 0.21312 0.5104 0.3298 0.0
H952 H 0.44799 0.46499 0.34617 0.0
H953 H 0.47423 0.44211 0.34396 0.0
H954 H 0.3453 0.44271 0.31171 0.0
H955 H 0.31845 0.46559 0.31403 0.0
H956 H 0.25019 0.56879 0.29636 0.0
H957 H 0.2005 0.59084 0.29772 0.0
H958 H 0.31113 0.59392 0.33107 0.0
H959 H 0.35861 0.57176 0.3298 0.0
Nd960 Nd 0.60648 1.00261 0.06914 0.0
Nd961 Nd 0.59261 0.0302 0.07406 0.0
C962 C 0.59703 0.97868 0.06165 0.0
C963 C 0.55636 0.96599 0.06307 0.0
C964 C 0.5164 0.96029 0.05373 0.0
C965 C 0.48777 0.94765 0.05428 0.0
C966 C 0.49881 0.94032 0.06418 0.0
C967 C 0.53592 0.9462 0.07369 0.0
C968 C 0.56454 0.95888 0.07314 0.0
C969 C 0.63204 1.00839 0.09178 0.0
C970 C 0.41974 1.01479 0.07468 0.0
C971 C 0.60123 0.05418 0.08147 0.0
C972 C 0.62635 0.06753 0.07903 0.0
C973 C 0.66572 0.07467 0.08759 0.0
C974 C 0.68032 0.08777 0.0862 0.0
C975 C 0.65575 0.09408 0.0762 0.0
C976 C 0.61864 0.08681 0.06746 0.0
C977 C 0.60406 0.07367 0.06887 0.0
C978 C 0.5731 0.02442 0.05125 0.0
C979 C 0.77949 0.01774 0.06954 0.0
O980 O 0.55249 0.98803 0.05737 0.0
O981 O 0.64961 0.9825 0.06947 0.0
O982 O 0.67415 0.99989 0.08616 0.0
O983 O 0.57476 1.01323 0.08566 0.0
O984 O 0.46159 1.00594 0.06899 0.0
O985 O 0.46068 0.02412 0.07976 0.0
O986 O 0.6602 0.04572 0.08341 0.0
O987 O 0.53701 0.04948 0.07594 0.0
O988 O 0.53028 0.03306 0.05658 0.0
O989 O 0.62783 0.0196 0.05772 0.0
O990 O 0.73626 0.02624 0.07547 0.0
O991 O 0.73957 1.00877 0.06383 0.0
H992 H 0.50958 0.96552 0.04585 0.0
H993 H 0.45808 0.94354 0.04685 0.0
H994 H 0.54603 0.94085 0.08143 0.0
H995 H 0.59544 0.96296 0.08048 0.0
H996 H 0.68259 0.07019 0.09556 0.0
H997 H 0.70791 0.09303 0.09318 0.0
H998 H 0.59998 0.09129 0.05958 0.0
H999 H 0.57348 0.0684 0.06211 0.0
Nd1000 Nd 0.7439 0.28269 0.06977 0.0
Nd1001 Nd 0.75619 0.25484 0.07441 0.0
C1002 C 0.75488 0.30679 0.06267 0.0
C1003 C 0.79412 0.31952 0.0645 0.0
C1004 C 0.83717 0.32545 0.0555 0.0
C1005 C 0.86551 0.33809 0.05645 0.0
C1006 C 0.85113 0.34518 0.06642 0.0
C1007 C 0.81005 0.3391 0.07556 0.0
C1008 C 0.78188 0.32643 0.07462 0.0
C1009 C 0.71932 0.27647 0.09238 0.0
C1010 C 0.92968 0.27016 0.07455 0.0
C1011 C 0.74787 0.23095 0.08202 0.0
C1012 C 0.72201 0.21758 0.07982 0.0
C1013 C 0.68678 0.21045 0.08872 0.0
C1014 C 0.67359 0.19729 0.08755 0.0
C1015 C 0.69553 0.19093 0.07745 0.0
C1016 C 0.72724 0.19821 0.06834 0.0
C1017 C 0.74059 0.2114 0.06952 0.0
C1018 C 0.77638 0.26071 0.05164 0.0
C1019 C 0.56999 0.26756 0.06967 0.0
O1020 O 0.80158 0.29756 0.05857 0.0
O1021 O 0.69964 0.30276 0.0701 0.0
O1022 O 0.6778 0.2852 0.087 0.0
O1023 O 0.77571 0.27171 0.08606 0.0
O1024 O 0.88754 0.2789 0.06883 0.0
O1025 O 0.88897 0.26098 0.0799 0.0
O1026 O 0.68968 0.2395 0.08417 0.0
O1027 O 0.81105 0.23553 0.07615 0.0
O1028 O 0.8156 0.2516 0.05683 0.0
O1029 O 0.72286 0.26583 0.05819 0.0
O1030 O 0.61191 0.25862 0.07524 0.0
O1031 O 0.61076 0.27685 0.06446 0.0
H1032 H 0.84653 0.32042 0.04756 0.0
H1033 H 0.89588 0.34246 0.04918 0.0
H1034 H 0.7989 0.34418 0.08342 0.0
H1035 H 0.74875 0.32216 0.08172 0.0
H1036 H 0.67218 0.21499 0.09675 0.0
H1037 H 0.6476 0.19205 0.09467 0.0
H1038 H 0.74524 0.19363 0.06046 0.0
H1039 H 0.76815 0.21667 0.06252 0.0
Nd1040 Nd 0.60558 0.28339 0.19915 0.0
Nd1041 Nd 0.59962 0.25339 0.19458 0.0
C1042 C 0.59277 0.30716 0.20687 0.0
C1043 C 0.55646 0.32 0.20464 0.0
C1044 C 0.50356 0.32565 0.2128 0.0
C1045 C 0.47599 0.33829 0.21156 0.0
C1046 C 0.50114 0.34563 0.20214 0.0
C1047 C 0.55243 0.33985 0.19382 0.0
C1048 C 0.57975 0.32718 0.19505 0.0
C1049 C 0.63519 0.27617 0.17697 0.0
C1050 C 0.42039 0.26936 0.19518 0.0
C1051 C 0.60221 0.23036 0.18519 0.0
C1052 C 0.61889 0.2167 0.18762 0.0
C1053 C 0.66644 0.20948 0.17987 0.0
C1054 C 0.67706 0.19631 0.18139 0.0
C1055 C 0.63998 0.19 0.1907 0.0
C1056 C 0.5938 0.19731 0.1986 0.0
C1057 C 0.58348 0.21051 0.1971 0.0
C1058 C 0.60158 0.25818 0.21788 0.0
C1059 C 0.77918 0.26776 0.19903 0.0
O1060 O 0.54136 0.29798 0.20993 0.0
O1061 O 0.65408 0.30319 0.2003 0.0
O1062 O 0.66854 0.2861 0.18178 0.0
O1063 O 0.58147 0.271 0.18351 0.0
O1064 O 0.46186 0.27998 0.19776 0.0
O1065 O 0.45928 0.25848 0.19285 0.0
O1066 O 0.66694 0.23818 0.18488 0.0
O1067 O 0.53472 0.23548 0.18977 0.0
O1068 O 0.60061 0.24677 0.21357 0.0
O1069 O 0.60397 0.26601 0.20984 0.0
O1070 O 0.73935 0.25912 0.19283 0.0
O1071 O 0.73699 0.27656 0.20478 0.0
H1072 H 0.48543 0.32039 0.22034 0.0
H1073 H 0.43741 0.34245 0.2182 0.0
H1074 H 0.57207 0.34515 0.18638 0.0
H1075 H 0.62057 0.32313 0.1886 0.0
H1076 H 0.69382 0.21401 0.17245 0.0
H1077 H 0.71217 0.191 0.17505 0.0
H1078 H 0.56536 0.19282 0.20595 0.0
H1079 H 0.54665 0.21583 0.20325 0.0
Nd1080 Nd 0.73927 1.00166 0.19917 0.0
Nd1081 Nd 0.75295 0.02936 0.19441 0.0
C1082 C 0.74989 0.9776 0.20637 0.0
C1083 C 0.79263 0.96503 0.20512 0.0
C1084 C 0.83506 0.95974 0.21445 0.0
C1085 C 0.86549 0.94718 0.21409 0.0
C1086 C 0.85381 0.93951 0.2044 0.0
C1087 C 0.81407 0.94498 0.19489 0.0
C1088 C 0.78368 0.95757 0.19525 0.0
C1089 C 0.71391 1.00771 0.17658 0.0
C1090 C 0.92557 1.01397 0.19401 0.0
C1091 C 0.74512 0.05338 0.18709 0.0
C1092 C 0.71842 0.06668 0.18953 0.0
C1093 C 0.67515 0.07358 0.18115 0.0
C1094 C 0.6597 0.08667 0.18248 0.0
C1095 C 0.68755 0.09321 0.19222 0.0
C1096 C 0.72826 0.08617 0.20079 0.0
C1097 C 0.74352 0.07305 0.19947 0.0
C1098 C 0.77266 0.02342 0.21716 0.0
C1099 C 0.56568 1.01678 0.19915 0.0
O1100 O 0.79137 0.98704 0.21104 0.0
O1101 O 0.69966 0.98138 0.19827 0.0
O1102 O 0.6716 0.99916 0.18211 0.0
O1103 O 0.77115 1.01246 0.18275 0.0
O1104 O 0.88322 1.00531 0.19984 0.0
O1105 O 0.88499 0.02314 0.18866 0.0
O1106 O 0.68742 0.04483 0.18474 0.0
O1107 O 0.808 0.04871 0.19291 0.0
O1108 O 0.8153 0.03212 0.21188 0.0
O1109 O 0.71796 0.01859 0.21067 0.0
O1110 O 0.6083 0.02571 0.19363 0.0
O1111 O 0.6058 1.00744 0.20435 0.0
H1112 H 0.84245 0.96521 0.22219 0.0
H1113 H 0.89711 0.9434 0.22151 0.0
H1114 H 0.80327 0.93938 0.18732 0.0
H1115 H 0.75075 0.9613 0.18792 0.0
H1116 H 0.65598 0.06893 0.17336 0.0
H1117 H 0.62905 0.09177 0.17564 0.0
H1118 H 0.74944 0.09083 0.20848 0.0
H1119 H 0.77707 0.06799 0.20609 0.0
Nd1120 Nd 0.50838 1.00416 0.94332 0.0
Nd1121 Nd 0.49613 0.03213 0.9479 0.0
C1122 C 0.50005 0.98019 0.93586 0.0
C1123 C 0.47261 0.9669 0.93814 0.0
C1124 C 0.43977 0.95961 0.92919 0.0
C1125 C 0.42376 0.94654 0.93056 0.0
C1126 C 0.44028 0.94039 0.94095 0.0
C1127 C 0.47077 0.94783 0.95004 0.0
C1128 C 0.4868 0.96094 0.94865 0.0
C1129 C 0.52776 1.01018 0.96607 0.0
C1130 C 0.32208 1.01697 0.94808 0.0
C1131 C 0.50663 0.05628 0.95492 0.0
C1132 C 0.54686 0.069 0.95339 0.0
C1133 C 0.58688 0.07484 0.96267 0.0
C1134 C 0.61473 0.08753 0.96202 0.0
C1135 C 0.60289 0.09478 0.95209 0.0
C1136 C 0.5656 0.08876 0.94265 0.0
C1137 C 0.53775 0.07604 0.9433 0.0
C1138 C 0.4712 0.02572 0.92539 0.0
C1139 C 0.682 0.01953 0.94309 0.0
O1140 O 0.44294 0.98881 0.93346 0.0
O1141 O 0.56238 0.98474 0.94187 0.0
O1142 O 0.56696 1.001 0.96094 0.0
O1143 O 0.47482 1.01529 0.95948 0.0
O1144 O 0.3641 1.00795 0.9426 0.0
O1145 O 0.36266 0.02634 0.95319 0.0
O1146 O 0.55103 0.047 0.95935 0.0
O1147 O 0.45413 0.0523 0.94716 0.0
O1148 O 0.42955 0.03446 0.93076 0.0
O1149 O 0.52802 0.02102 0.93166 0.0
O1150 O 0.63976 0.02836 0.94871 0.0
O1151 O 0.64149 1.01025 0.93785 0.0
H1152 H 0.42924 0.96394 0.92097 0.0
H1153 H 0.40151 0.94116 0.92331 0.0
H1154 H 0.4831 0.9435 0.9582 0.0
H1155 H 0.51225 0.96633 0.9557 0.0
H1156 H 0.59432 0.06969 0.97057 0.0
H1157 H 0.64452 0.09173 0.9694 0.0
H1158 H 0.55474 0.09403 0.93489 0.0
H1159 H 0.50667 0.07187 0.93601 0.0
Nd1160 Nd 0.34633 0.77939 0.94435 0.0
Nd1161 Nd 0.35603 0.75155 0.9499 0.0
C1162 C 0.3593 0.80304 0.93618 0.0
C1163 C 0.37905 0.81664 0.93846 0.0
C1164 C 0.42082 0.82374 0.93006 0.0
C1165 C 0.43084 0.83697 0.93119 0.0
C1166 C 0.39922 0.84345 0.94076 0.0
C1167 C 0.36032 0.83623 0.9494 0.0
C1168 C 0.35005 0.82296 0.94825 0.0
C1169 C 0.32585 0.77426 0.96729 0.0
C1170 C 0.53056 0.76634 0.94879 0.0
C1171 C 0.34316 0.72794 0.9581 0.0
C1172 C 0.30544 0.71511 0.95624 0.0
C1173 C 0.26403 0.70898 0.96527 0.0
C1174 C 0.23613 0.69633 0.96421 0.0
C1175 C 0.24929 0.68944 0.9541 0.0
C1176 C 0.28889 0.69572 0.94495 0.0
C1177 C 0.31658 0.70841 0.946 0.0
C1178 C 0.38219 0.75653 0.92712 0.0
C1179 C 0.17121 0.76425 0.94433 0.0
O1180 O 0.42122 0.79479 0.93584 0.0
O1181 O 0.29031 0.79831 0.94059 0.0
O1182 O 0.28784 0.78338 0.96196 0.0
O1183 O 0.37838 0.76887 0.96081 0.0
O1184 O 0.48822 0.77461 0.94254 0.0
O1185 O 0.48978 0.75777 0.9549 0.0
O1186 O 0.29346 0.73729 0.96125 0.0
O1187 O 0.40266 0.73166 0.95115 0.0
O1188 O 0.41872 0.74752 0.93278 0.0
O1189 O 0.32712 0.76205 0.9332 0.0
O1190 O 0.21213 0.75536 0.95004 0.0
O1191 O 0.21268 0.7735 0.93917 0.0
H1192 H 0.44355 0.8191 0.92243 0.0
H1193 H 0.46244 0.84216 0.92446 0.0
H1194 H 0.33485 0.8409 0.95686 0.0
H1195 H 0.31729 0.81771 0.95485 0.0
H1196 H 0.25541 0.71387 0.97328 0.0
H1197 H 0.2069 0.6918 0.97149 0.0
H1198 H 0.29903 0.6908 0.93698 0.0
H1199 H 0.34826 0.71287 0.93888 0.0
Nd1200 Nd 0.49693 0.77917 0.82445 0.0
Nd1201 Nd 0.48479 0.7515 0.81914 0.0
C1202 C 0.48859 0.80306 0.83214 0.0
C1203 C 0.46198 0.81641 0.82993 0.0
C1204 C 0.42056 0.82324 0.83854 0.0
C1205 C 0.40495 0.83635 0.83739 0.0
C1206 C 0.43065 0.843 0.82759 0.0
C1207 C 0.46974 0.83603 0.81879 0.0
C1208 C 0.48524 0.82289 0.81995 0.0
C1209 C 0.51812 0.77368 0.80158 0.0
C1210 C 0.31063 0.76661 0.81946 0.0
C1211 C 0.4979 0.72775 0.81124 0.0
C1212 C 0.53567 0.71492 0.81307 0.0
C1213 C 0.58246 0.70923 0.80429 0.0
C1214 C 0.60969 0.69653 0.80513 0.0
C1215 C 0.59042 0.68914 0.81478 0.0
C1216 C 0.54605 0.695 0.82375 0.0
C1217 C 0.51886 0.70773 0.8229 0.0
C1218 C 0.45885 0.75669 0.8419 0.0
C1219 C 0.67013 0.76394 0.82445 0.0
O1220 O 0.43084 0.79446 0.83434 0.0
O1221 O 0.55169 0.79851 0.82624 0.0
O1222 O 0.56002 0.78234 0.80701 0.0
O1223 O 0.4635 0.76868 0.80799 0.0
O1224 O 0.35266 0.7754 0.82519 0.0
O1225 O 0.35131 0.75745 0.81405 0.0
O1226 O 0.54719 0.73707 0.80795 0.0
O1227 O 0.43884 0.73154 0.81822 0.0
O1228 O 0.42086 0.74783 0.83623 0.0
O1229 O 0.51487 0.762 0.83583 0.0
O1230 O 0.62826 0.75547 0.81839 0.0
O1231 O 0.62906 0.77288 0.83007 0.0
H1232 H 0.4029 0.81852 0.84637 0.0
H1233 H 0.37573 0.84137 0.84441 0.0
H1234 H 0.48929 0.84077 0.81106 0.0
H1235 H 0.5174 0.81789 0.81315 0.0
H1236 H 0.59603 0.71451 0.79659 0.0
H1237 H 0.64502 0.69245 0.79814 0.0
H1238 H 0.5294 0.68961 0.83127 0.0
H1239 H 0.48257 0.7118 0.82981 0.0
Nd1240 Nd 0.3482 1.0031 0.82403 0.0
Nd1241 Nd 0.35567 0.03306 0.81865 0.0
C1242 C 0.35008 0.98047 0.83415 0.0
C1243 C 0.36742 0.96673 0.83229 0.0
C1244 C 0.39479 0.95927 0.84145 0.0
C1245 C 0.40411 0.94603 0.8403 0.0
C1246 C 0.3861 0.9399 0.82995 0.0
C1247 C 0.36112 0.94748 0.82067 0.0
C1248 C 0.35173 0.96076 0.82183 0.0
C1249 C 0.35013 1.00714 0.80064 0.0
C1250 C 0.5287 1.01726 0.81902 0.0
C1251 C 0.34418 0.0567 0.81055 0.0
C1252 C 0.30557 0.0695 0.81226 0.0
C1253 C 0.26505 0.07551 0.80313 0.0
C1254 C 0.23642 0.08814 0.80404 0.0
C1255 C 0.24791 0.09514 0.81413 0.0
C1256 C 0.28667 0.08898 0.82338 0.0
C1257 C 0.31512 0.07632 0.82247 0.0
C1258 C 0.38444 0.02628 0.84096 0.0
C1259 C 0.16984 0.01928 0.82309 0.0
O1260 O 0.41451 0.98835 0.83434 0.0
O1261 O 0.28353 0.98527 0.82912 0.0
O1262 O 0.34647 0.99589 0.80525 0.0
O1263 O 0.354 1.01524 0.80847 0.0
O1264 O 0.48856 1.00874 0.82535 0.0
O1265 O 0.48699 0.02601 0.81316 0.0
O1266 O 0.29575 0.04733 0.80711 0.0
O1267 O 0.40189 0.053 0.81776 0.0
O1268 O 0.419 0.03601 0.83598 0.0
O1269 O 0.33046 0.02113 0.8345 0.0
O1270 O 0.21164 0.02975 0.82011 0.0
O1271 O 0.20841 1.0085 0.82583 0.0
H1272 H 0.40733 0.96367 0.84959 0.0
H1273 H 0.42499 0.94058 0.84758 0.0
H1274 H 0.34619 0.94311 0.81259 0.0
H1275 H 0.33039 0.96632 0.81463 0.0
H1276 H 0.2577 0.07054 0.79513 0.0
H1277 H 0.20793 0.09256 0.79668 0.0
H1278 H 0.29556 0.09399 0.83133 0.0
H1279 H 0.34613 0.07197 0.82968 0.0
H1280 H 1.0242 0.4215 0.0488 0.0
H1281 H 0.92612 0.4265 0.08272 0.0
H1282 H 0.98867 0.3989 0.04955 0.0
H1283 H 0.89355 0.40369 0.08364 0.0
H1284 H 0.7624 0.36508 0.07591 0.0
H1285 H 0.79862 0.38774 0.07598 0.0
H1286 H 1.03177 0.37928 0.05837 0.0
H1287 H 0.99544 0.35664 0.05829 0.0
C1288 C 0.99469 0.4178 0.05642 0.0
C1289 C 0.97769 0.42591 0.06567 0.0
C1290 C 0.97538 0.40476 0.05691 0.0
C1291 C 0.93854 0.39938 0.06668 0.0
C1292 C 0.92123 0.40748 0.07594 0.0
C1293 C 0.94071 0.42056 0.07545 0.0
C1294 C 0.822 0.36802 0.0722 0.0
C1295 C 0.87578 0.35897 0.06706 0.0
C1296 C 0.84278 0.38105 0.07222 0.0
C1297 C 0.91795 0.38542 0.06711 0.0
C1298 C 0.97253 0.37634 0.06219 0.0
C1299 C 0.95173 0.36332 0.06215 0.0
H1300 H 0.52124 0.92265 0.04732 0.0
H1301 H 0.4251 0.92645 0.08146 0.0
H1302 H 0.48467 0.90009 0.04741 0.0
H1303 H 0.38828 0.90375 0.08154 0.0
H1304 H 0.41427 0.85955 0.08102 0.0
H1305 H 0.4493 0.88231 0.08158 0.0
H1306 H 0.36287 0.88636 0.04705 0.0
H1307 H 0.32812 0.86374 0.0465 0.0
C1308 C 0.49126 0.91872 0.05481 0.0
C1309 C 0.47548 0.92646 0.06434 0.0
C1310 C 0.47033 0.90573 0.05486 0.0
C1311 C 0.43293 0.90005 0.06445 0.0
C1312 C 0.4178 0.90774 0.07405 0.0
C1313 C 0.43881 0.92078 0.07399 0.0
C1314 C 0.40221 0.86532 0.07358 0.0
C1315 C 0.3691 0.85973 0.06367 0.0
C1316 C 0.42222 0.87839 0.0739 0.0
C1317 C 0.40957 0.8862 0.06433 0.0
C1318 C 0.37528 0.88062 0.05451 0.0
C1319 C 0.35537 0.8676 0.05418 0.0
H1320 H 0.83866 0.92226 0.22177 0.0
H1321 H 0.92511 0.92535 0.18711 0.0
H1322 H 0.87761 0.89979 0.22196 0.0
H1323 H 0.96408 0.90275 0.1873 0.0
H1324 H 0.93976 0.85859 0.18865 0.0
H1325 H 0.90378 0.88128 0.18794 0.0
H1326 H 1.00009 0.88612 0.22191 0.0
H1327 H 1.03614 0.86354 0.22261 0.0
C1328 C 0.86705 0.91821 0.21422 0.0
C1329 C 0.87922 0.92573 0.20445 0.0
C1330 C 0.88933 0.90527 0.21432 0.0
C1331 C 0.92444 0.8994 0.20466 0.0
C1332 C 0.9363 0.90688 0.19486 0.0
C1333 C 0.91401 0.91987 0.19476 0.0
C1334 C 0.95393 0.86451 0.19594 0.0
C1335 C 0.99031 0.85914 0.20573 0.0
C1336 C 0.93332 0.87755 0.19552 0.0
C1337 C 0.94847 0.88557 0.20489 0.0
C1338 C 0.98582 0.88022 0.21461 0.0
C1339 C 1.00645 0.86722 0.21502 0.0
H1340 H 0.4932 0.4286 0.20789 0.0
H1341 H 0.24637 0.41951 0.19451 0.0
H1342 H 0.53079 0.40598 0.20744 0.0
H1343 H 0.28484 0.39696 0.19373 0.0
H1344 H 0.348 0.35668 0.20716 0.0
H1345 H 0.31084 0.3793 0.20672 0.0
H1346 H 0.56128 0.38841 0.19447 0.0
H1347 H 0.59927 0.36583 0.19524 0.0
C1348 C 0.44702 0.42179 0.20481 0.0
C1349 C 0.36668 0.42591 0.20125 0.0
C1350 C 0.46889 0.40882 0.20444 0.0
C1351 C 0.41084 0.3996 0.20056 0.0
C1352 C 0.33084 0.40375 0.19689 0.0
C1353 C 0.30913 0.41672 0.1972 0.0
C1354 C 0.39527 0.36351 0.2044 0.0
C1355 C 0.47672 0.35939 0.20126 0.0
C1356 C 0.37368 0.37648 0.20404 0.0
C1357 C 0.43306 0.38572 0.20057 0.0
C1358 C 0.51421 0.3816 0.1973 0.0
C1359 C 0.53568 0.36861 0.19762 0.0
H1360 H 0.07688 0.61274 0.97069 0.0
H1361 H 0.17174 0.60851 0.93652 0.0
H1362 H 0.11292 0.63533 0.97031 0.0
H1363 H 0.2047 0.63131 0.93597 0.0
H1364 H 0.33671 0.66973 0.94406 0.0
H1365 H 0.30033 0.64708 0.94369 0.0
H1366 H 0.06957 0.65517 0.96198 0.0
H1367 H 0.10611 0.6778 0.96239 0.0
C1368 C 0.1058 0.6166 0.96309 0.0
C1369 C 0.12171 0.6087 0.95366 0.0
C1370 C 0.12539 0.62965 0.96281 0.0
C1371 C 0.16143 0.63524 0.95309 0.0
C1372 C 0.17768 0.62735 0.94365 0.0
C1373 C 0.15795 0.61427 0.94392 0.0
C1374 C 0.27761 0.66672 0.94787 0.0
C1375 C 0.22459 0.67565 0.9533 0.0
C1376 C 0.25672 0.65369 0.94766 0.0
C1377 C 0.18218 0.64921 0.95287 0.0
C1378 C 0.12836 0.65819 0.95809 0.0
C1379 C 0.14928 0.6712 0.95831 0.0
H1380 H 0.83893 0.16984 0.94208 0.0
H1381 H 0.60934 0.17773 0.9607 0.0
H1382 H 0.80292 0.14718 0.94167 0.0
H1383 H 0.57331 0.15509 0.96028 0.0
H1384 H 0.58261 0.11263 0.96891 0.0
H1385 H 0.61824 0.13524 0.96853 0.0
H1386 H 0.70656 0.13139 0.93402 0.0
H1387 H 0.67387 0.10857 0.93455 0.0
C1388 C 0.78013 0.16679 0.94595 0.0
C1389 C 0.72731 0.17568 0.95146 0.0
C1390 C 0.75948 0.15375 0.94572 0.0
C1391 C 0.68541 0.14922 0.95101 0.0
C1392 C 0.63175 0.15815 0.95632 0.0
C1393 C 0.6524 0.17118 0.95655 0.0
C1394 C 0.61068 0.11653 0.96127 0.0
C1395 C 0.62568 0.10868 0.95178 0.0
C1396 C 0.63004 0.12959 0.961 0.0
C1397 C 0.66497 0.13524 0.95123 0.0
C1398 C 0.68038 0.12739 0.94174 0.0
C1399 C 0.66081 0.1143 0.942 0.0
H1400 H 0.0751 0.17142 0.79648 0.0
H1401 H 0.16311 0.17618 0.83087 0.0
H1402 H 0.11177 0.14887 0.79719 0.0
H1403 H 0.19685 0.15341 0.83173 0.0
H1404 H 0.3326 0.11506 0.82423 0.0
H1405 H 0.29489 0.13766 0.82437 0.0
H1406 H 0.06758 0.12908 0.80562 0.0
H1407 H 0.10537 0.10651 0.80546 0.0
C1408 C 0.10261 0.16769 0.8042 0.0
C1409 C 0.11648 0.17572 0.8136 0.0
C1410 C 0.12258 0.15466 0.80466 0.0
C1411 C 0.157 0.14923 0.81454 0.0
C1412 C 0.17112 0.15725 0.82394 0.0
C1413 C 0.15094 0.1703 0.82349 0.0
C1414 C 0.27395 0.11795 0.82027 0.0
C1415 C 0.22231 0.1089 0.81479 0.0
C1416 C 0.2523 0.13095 0.82035 0.0
C1417 C 0.17838 0.13528 0.81494 0.0
C1418 C 0.12588 0.12618 0.80967 0.0
C1419 C 0.14754 0.1132 0.80959 0.0
H1420 H 0.64812 0.67514 0.833 0.0
H1421 H 0.58346 0.67153 0.79758 0.0
H1422 H 0.68114 0.65235 0.83369 0.0
H1423 H 0.61958 0.64895 0.79816 0.0
H1424 H 0.607 0.60636 0.80529 0.0
H1425 H 0.56947 0.62894 0.80556 0.0
H1426 H 0.78366 0.6368 0.82712 0.0
H1427 H 0.82111 0.61419 0.82687 0.0
C1428 C 0.64097 0.66951 0.82535 0.0
C1429 C 0.6132 0.67525 0.81523 0.0
C1430 C 0.66075 0.65644 0.82572 0.0
C1431 C 0.65294 0.64874 0.81599 0.0
C1432 C 0.62535 0.6545 0.80587 0.0
C1433 C 0.60575 0.66754 0.8055 0.0
C1434 C 0.64633 0.61289 0.81007 0.0
C1435 C 0.71738 0.6084 0.81602 0.0
C1436 C 0.62484 0.62588 0.81021 0.0
C1437 C 0.6738 0.63478 0.81629 0.0
C1438 C 0.74381 0.63025 0.82245 0.0
C1439 C 0.7653 0.61724 0.82231 0.0
H1440 H 1.01118 0.9217 0.54732 0.0
H1441 H 0.92085 0.92582 0.58172 0.0
H1442 H 0.97586 0.89908 0.54776 0.0
H1443 H 0.88846 0.90299 0.58231 0.0
H1444 H 0.7563 0.86448 0.57441 0.0
H1445 H 0.79211 0.88715 0.57476 0.0
H1446 H 1.021 0.87925 0.55599 0.0
H1447 H 0.98515 0.8566 0.55563 0.0
C1448 C 0.9834 0.91781 0.55498 0.0
C1449 C 0.96855 0.92569 0.56446 0.0
C1450 C 0.96421 0.90475 0.55529 0.0
C1451 C 0.92959 0.89911 0.56509 0.0
C1452 C 0.91438 0.90698 0.57457 0.0
C1453 C 0.93378 0.92007 0.57427 0.0
C1454 C 0.81489 0.86753 0.57049 0.0
C1455 C 0.86756 0.85864 0.56495 0.0
C1456 C 0.83545 0.88058 0.57068 0.0
C1457 C 0.90926 0.88512 0.56534 0.0
C1458 C 0.96275 0.87619 0.56 0.0
C1459 C 0.9422 0.86316 0.5598 0.0
H1460 H 0.3131 0.36459 0.54413 0.0
H1461 H 0.39474 0.36001 0.57881 0.0
H1462 H 0.35011 0.38713 0.54487 0.0
H1463 H 0.43175 0.38268 0.57956 0.0
H1464 H 0.41335 0.42689 0.57961 0.0
H1465 H 0.37359 0.4043 0.5795 0.0
H1466 H 0.47338 0.40058 0.54555 0.0
H1467 H 0.51299 0.42303 0.54566 0.0
C1468 C 0.33972 0.36835 0.5519 0.0
C1469 C 0.35154 0.36037 0.56137 0.0
C1470 C 0.36094 0.38133 0.55233 0.0
C1471 C 0.39462 0.38677 0.56225 0.0
C1472 C 0.40519 0.37887 0.57181 0.0
C1473 C 0.38396 0.36585 0.57137 0.0
C1474 C 0.42724 0.42123 0.57215 0.0
C1475 C 0.4658 0.42688 0.56261 0.0
C1476 C 0.40448 0.40826 0.57209 0.0
C1477 C 0.41967 0.40058 0.56249 0.0
C1478 C 0.45893 0.40622 0.55301 0.0
C1479 C 0.48163 0.41915 0.55307 0.0
H1480 H 0.85941 0.35729 0.71263 0.0
H1481 H 0.09253 0.36551 0.69494 0.0
H1482 H 0.82261 0.37988 0.71221 0.0
H1483 H 0.05589 0.38817 0.69456 0.0
H1484 H 0.92655 0.42677 0.68737 0.0
H1485 H 0.96054 0.404 0.68671 0.0
H1486 H 0.86532 0.3996 0.72084 0.0
H1487 H 0.82837 0.42213 0.72132 0.0
C1488 C 0.9031 0.36392 0.70869 0.0
C1489 C 0.97924 0.35953 0.70388 0.0
C1490 C 0.88202 0.37692 0.70846 0.0
C1491 C 0.93651 0.38594 0.70344 0.0
C1492 C 1.01185 0.38152 0.6984 0.0
C1493 C 1.0329 0.3685 0.69862 0.0
C1494 C 0.91226 0.42093 0.6947 0.0
C1495 C 0.8748 0.42637 0.70441 0.0
C1496 C 0.93256 0.40787 0.69437 0.0
C1497 C 0.91557 0.39989 0.70371 0.0
C1498 C 0.87836 0.40536 0.71342 0.0
C1499 C 0.85823 0.41838 0.71375 0.0
H1500 H 0.6236 0.86482 0.70844 0.0
H1501 H 0.36361 0.85521 0.70128 0.0
H1502 H 0.58696 0.88741 0.70877 0.0
H1503 H 0.32689 0.87786 0.70143 0.0
H1504 H 0.27124 0.91839 0.71315 0.0
H1505 H 0.30975 0.89589 0.71349 0.0
H1506 H 0.54722 0.90487 0.69715 0.0
H1507 H 0.51084 0.92746 0.69741 0.0
C1508 C 0.5587 0.86753 0.70679 0.0
C1509 C 0.49664 0.85816 0.70479 0.0
C1510 C 0.53761 0.88053 0.70697 0.0
C1511 C 0.45385 0.88455 0.70512 0.0
C1512 C 0.39178 0.87516 0.70309 0.0
C1513 C 0.41284 0.86215 0.70297 0.0
C1514 C 0.33244 0.91563 0.70982 0.0
C1515 C 0.3879 0.92485 0.70528 0.0
C1516 C 0.35399 0.90265 0.70985 0.0
C1517 C 0.4315 0.89846 0.70528 0.0
C1518 C 0.48734 0.90769 0.70085 0.0
C1519 C 0.46597 0.92068 0.70087 0.0
H1520 H 0.2455 0.10697 0.46137 0.0
H1521 H 0.99777 0.11666 0.44868 0.0
H1522 H 0.28511 0.12951 0.46103 0.0
H1523 H 1.03816 0.13916 0.44804 0.0
H1524 H 0.10759 0.17923 0.46156 0.0
H1525 H 0.06806 0.15669 0.4611 0.0
H1526 H 0.31549 0.14713 0.44806 0.0
H1527 H 0.35581 0.16963 0.44883 0.0
C1528 C 0.19949 0.1139 0.45848 0.0
C1529 C 0.11831 0.10996 0.45508 0.0
C1530 C 0.22252 0.12683 0.45817 0.0
C1531 C 0.16486 0.1362 0.45451 0.0
C1532 C 0.08394 0.13225 0.45102 0.0
C1533 C 0.06107 0.11931 0.45126 0.0
C1534 C 0.15373 0.17232 0.45864 0.0
C1535 C 0.23503 0.17629 0.45526 0.0
C1536 C 0.13074 0.15939 0.45826 0.0
C1537 C 0.18855 0.15004 0.45455 0.0
C1538 C 0.26959 0.15403 0.45107 0.0
C1539 C 0.29242 0.16697 0.45139 0.0
H1540 H 0.87026 0.66855 0.44898 0.0
H1541 H 0.61306 0.67825 0.45784 0.0
H1542 H 0.83103 0.64601 0.44794 0.0
H1543 H 0.57437 0.65569 0.45711 0.0
H1544 H 0.51448 0.6155 0.44433 0.0
H1545 H 0.55545 0.63798 0.44393 0.0
H1546 H 0.79032 0.62858 0.46056 0.0
H1547 H 0.75042 0.60604 0.46066 0.0
C1548 C 0.80519 0.6659 0.45064 0.0
C1549 C 0.74487 0.67526 0.4535 0.0
C1550 C 0.78289 0.65294 0.45017 0.0
C1551 C 0.69954 0.64899 0.45247 0.0
C1552 C 0.63897 0.65837 0.45518 0.0
C1553 C 0.66137 0.67131 0.45571 0.0
C1554 C 0.57543 0.61819 0.44775 0.0
C1555 C 0.62911 0.60891 0.45252 0.0
C1556 C 0.5985 0.63112 0.44765 0.0
C1557 C 0.67609 0.63514 0.45226 0.0
C1558 C 0.73041 0.62584 0.45685 0.0
C1559 C 0.70714 0.61291 0.45701 0.0
H1560 H 0.26268 0.61173 0.29719 0.0
H1561 H 0.19204 0.6084 0.33246 0.0
H1562 H 0.22727 0.63434 0.29758 0.0
H1563 H 0.15968 0.63122 0.33297 0.0
H1564 H 1.02225 0.66948 0.3255 0.0
H1565 H 0.05873 0.64683 0.32603 0.0
H1566 H 0.27766 0.6543 0.30509 0.0
H1567 H 0.24115 0.67691 0.30456 0.0
C1568 C 0.23919 0.61579 0.30503 0.0
C1569 C 0.22988 0.60815 0.31478 0.0
C1570 C 0.22001 0.62884 0.3053 0.0
C1571 C 0.19101 0.63469 0.31533 0.0
C1572 C 0.18124 0.62706 0.32507 0.0
C1573 C 0.20061 0.61397 0.32481 0.0
C1574 C 0.07887 0.66633 0.32114 0.0
C1575 C 0.12842 0.67507 0.31493 0.0
C1576 C 0.09978 0.65331 0.32143 0.0
C1577 C 0.17083 0.64866 0.31552 0.0
C1578 C 0.22147 0.65745 0.30955 0.0
C1579 C 0.20057 0.67045 0.30925 0.0
H1580 H 0.79229 0.11307 0.29487 0.0
H1581 H 0.68969 0.10786 0.32852 0.0
H1582 H 0.75659 0.13566 0.29565 0.0
H1583 H 0.65415 0.13057 0.32932 0.0
H1584 H 0.67742 0.1747 0.33039 0.0
H1585 H 0.71543 0.15205 0.33021 0.0
H1586 H 0.63341 0.14927 0.2954 0.0
H1587 H 0.59531 0.17177 0.29558 0.0
C1588 C 0.76134 0.1167 0.30241 0.0
C1589 C 0.74329 0.10854 0.31159 0.0
C1590 C 0.74092 0.1297 0.30286 0.0
C1591 C 0.7019 0.13497 0.31252 0.0
C1592 C 0.68495 0.12689 0.32179 0.0
C1593 C 0.70533 0.11384 0.32133 0.0
C1594 C 0.66703 0.16923 0.32272 0.0
C1595 C 0.63385 0.17515 0.31297 0.0
C1596 C 0.68879 0.15623 0.32262 0.0
C1597 C 0.67801 0.1488 0.31277 0.0
C1598 C 0.64429 0.15471 0.30307 0.0
C1599 C 0.62251 0.16767 0.30317 0.0
H1600 H 0.26835 0.50254 0.10424 0.0
H1601 H 1.01837 0.51874 0.10718 0.0
H1602 H 0.28781 0.50455 0.12469 0.0
H1603 H 1.03737 0.52057 0.12781 0.0
H1604 H 0.07181 0.50141 0.16397 0.0
H1605 H 0.05163 0.50381 0.14356 0.0
H1606 H 0.29894 0.52099 0.14069 0.0
H1607 H 0.31861 0.51876 0.16127 0.0
C1608 C 0.2177 0.50663 0.10927 0.0
C1609 C 0.14157 0.5104 0.10412 0.0
C1610 C 0.22916 0.50787 0.12098 0.0
C1611 C 0.16419 0.51271 0.12789 0.0
C1612 C 0.0885 0.51675 0.12272 0.0
C1613 C 0.07764 0.51574 0.11092 0.0
C1614 C 0.12161 0.50582 0.15901 0.0
C1615 C 0.19712 0.50979 0.1642 0.0
C1616 C 0.10971 0.50729 0.14732 0.0
C1617 C 0.17364 0.51258 0.14049 0.0
C1618 C 0.24863 0.51682 0.14573 0.0
C1619 C 0.25989 0.51557 0.15749 0.0
H1620 H 0.21132 0.75633 0.10468 0.0
H1621 H 0.22315 0.79741 0.10694 0.0
H1622 H 0.17805 0.75521 0.12508 0.0
H1623 H 0.19538 0.79639 0.12709 0.0
H1624 H 0.05264 0.79482 0.15908 0.0
H1625 H 0.08198 0.79318 0.13895 0.0
H1626 H 0.21745 0.75788 0.14465 0.0
H1627 H 0.18266 0.75925 0.16496 0.0
C1628 C 0.20862 0.76507 0.10959 0.0
C1629 C 0.219 0.77696 0.1042 0.0
C1630 C 0.1895 0.76446 0.12128 0.0
C1631 C 0.18144 0.77573 0.1278 0.0
C1632 C 0.19724 0.7875 0.12239 0.0
C1633 C 0.21441 0.7881 0.1108 0.0
C1634 C 0.08771 0.78661 0.15602 0.0
C1635 C 0.11569 0.77722 0.16361 0.0
C1636 C 0.1057 0.78572 0.14445 0.0
C1637 C 0.15471 0.77559 0.14007 0.0
C1638 C 0.17977 0.76584 0.14763 0.0
C1639 C 0.15993 0.76661 0.15928 0.0
H1640 H 0.77013 0.51564 0.85719 0.0
H1641 H 1.01923 0.53211 0.85402 0.0
H1642 H 0.79114 0.51353 0.87777 0.0
H1643 H 1.04074 0.52982 0.8744 0.0
H1644 H 0.07544 0.51544 0.91084 0.0
H1645 H 0.0539 0.51325 0.89028 0.0
H1646 H 0.80618 0.53016 0.89363 0.0
H1647 H 0.82822 0.53252 0.914 0.0
C1648 C 0.82966 0.51863 0.86086 0.0
C1649 C 0.89272 0.52414 0.85402 0.0
C1650 C 0.84168 0.51746 0.87263 0.0
C1651 C 0.91771 0.52151 0.87773 0.0
C1652 C 0.98186 0.5265 0.87076 0.0
C1653 C 0.96922 0.5279 0.85909 0.0
C1654 C 1.01621 0.51856 0.90717 0.0
C1655 C 0.95388 0.52427 0.914 0.0
C1656 C 1.00388 0.51734 0.89542 0.0
C1657 C 0.92824 0.52154 0.89032 0.0
C1658 C 0.86474 0.52672 0.89728 0.0
C1659 C 0.8777 0.52817 0.90894 0.0
H1660 H 0.88079 0.24049 0.85468 0.0
H1661 H 1.01678 0.27628 0.85478 0.0
H1662 H 0.86136 0.24196 0.87511 0.0
H1663 H 0.99525 0.27786 0.87551 0.0
H1664 H 0.82717 0.27626 0.9116 0.0
H1665 H 0.84826 0.27774 0.89086 0.0
H1666 H 0.98546 0.24215 0.89139 0.0
H1667 H 0.96651 0.24078 0.91183 0.0
C1668 C 0.90633 0.24873 0.85905 0.0
C1669 C 0.9512 0.25821 0.85308 0.0
C1670 C 0.89487 0.24957 0.87078 0.0
C1671 C 0.9265 0.26002 0.87691 0.0
C1672 C 0.96969 0.26973 0.87097 0.0
C1673 C 0.9826 0.26878 0.85915 0.0
C1674 C 0.86197 0.2688 0.90725 0.0
C1675 C 0.89449 0.25835 0.91337 0.0
C1676 C 0.87462 0.2697 0.89542 0.0
C1677 C 0.91862 0.26005 0.88952 0.0
C1678 C 0.95129 0.24971 0.89569 0.0
C1679 C 0.94012 0.24893 0.90742 0.0
H1680 H 0.25445 1.00211 0.60398 0.0
H1681 H 1.01167 0.0208 0.60581 0.0
H1682 H 0.27378 1.0052 0.62431 0.0
H1683 H 1.0305 0.02376 0.62634 0.0
H1684 H 0.05608 1.00647 0.66347 0.0
H1685 H 1.03638 1.00833 0.64301 0.0
H1686 H 0.29228 0.02217 0.63951 0.0
H1687 H 0.31158 0.02046 0.66013 0.0
C1688 C 0.20535 1.00697 0.60873 0.0
C1689 C 0.13122 1.01112 0.6033 0.0
C1690 C 0.21679 1.00883 0.62039 0.0
C1691 C 0.1538 1.01473 0.62698 0.0
C1692 C 0.08012 0.01913 0.62151 0.0
C1693 C 0.06934 0.01747 0.60976 0.0
C1694 C 0.1077 1.01014 0.65836 0.0
C1695 C 0.18554 1.01325 0.6634 0.0
C1696 C 0.09622 1.01126 0.64663 0.0
C1697 C 0.16281 1.01533 0.63959 0.0
C1698 C 0.23988 0.01892 0.64469 0.0
C1699 C 0.25086 0.01801 0.65649 0.0
H1700 H 0.1816 0.25912 0.60255 0.0
H1701 H 0.27311 0.29744 0.60815 0.0
H1702 H 0.13978 0.25776 0.62268 0.0
H1703 H 0.23454 0.29602 0.62801 0.0
H1704 H 0.06778 0.29807 0.65815 0.0
H1705 H 0.10512 0.29657 0.63822 0.0
H1706 H 0.18388 0.25743 0.64304 0.0
H1707 H 0.14335 0.25888 0.66319 0.0
C1708 C 0.19427 0.26713 0.60812 0.0
C1709 C 0.22996 0.27844 0.60375 0.0
C1710 C 0.17028 0.26638 0.61964 0.0
C1711 C 0.18176 0.2769 0.62698 0.0
C1712 C 0.22193 0.28786 0.62262 0.0
C1713 C 0.24496 0.28864 0.6112 0.0
C1714 C 0.0921 0.28907 0.65496 0.0
C1715 C 0.1031 0.27864 0.66228 0.0
C1716 C 0.1144 0.28823 0.64351 0.0
C1717 C 0.14976 0.27697 0.63899 0.0
C1718 C 0.1571 0.26626 0.6462 0.0
C1719 C 0.1339 0.26709 0.65774 0.0
H1720 H 1.01507 0.0493 0.40875 0.0
H1721 H 0.94053 1.0101 0.414 0.0
H1722 H 0.97767 0.04769 0.38885 0.0
H1723 H 0.8995 1.00852 0.39393 0.0
H1724 H 0.90187 1.00914 0.35381 0.0
H1725 H 0.94214 1.00837 0.37394 0.0
H1726 H 0.85265 0.0471 0.37814 0.0
H1727 H 0.81605 0.04794 0.35818 0.0
C1728 C 0.99076 0.04029 0.40561 0.0
C1729 C 0.98037 0.02986 0.41296 0.0
C1730 C 0.96834 0.03938 0.39419 0.0
C1731 C 0.93335 0.02806 0.38974 0.0
C1732 C 0.9261 0.0174 0.39701 0.0
C1733 C 0.94957 0.01829 0.40851 0.0
C1734 C 0.89006 0.01739 0.35912 0.0
C1735 C 0.85643 0.02864 0.3544 0.0
C1736 C 0.91313 1.01697 0.37066 0.0
C1737 C 0.90261 0.02778 0.37769 0.0
C1738 C 0.86454 0.03872 0.37299 0.0
C1739 C 0.84255 0.03918 0.36153 0.0
H1740 H 0.05652 0.77113 0.35638 0.0
H1741 H 0.83254 0.74793 0.35281 0.0
H1742 H 1.03183 0.77221 0.37704 0.0
H1743 H 0.80754 0.74913 0.37308 0.0
H1744 H 0.90733 0.77696 0.41392 0.0
H1745 H 0.92968 0.77941 0.3933 0.0
H1746 H 0.88376 0.73905 0.38884 0.0
H1747 H 0.86157 0.73667 0.40909 0.0
C1748 C 1.0015 0.76646 0.35996 0.0
C1749 C 0.94733 0.75925 0.35298 0.0
C1750 C 0.98718 0.76709 0.37178 0.0
C1751 C 0.9185 0.76054 0.37677 0.0
C1752 C 0.86213 0.75403 0.36961 0.0
C1753 C 0.87642 0.75337 0.35794 0.0
C1754 C 0.90157 0.76867 0.40847 0.0
C1755 C 0.88191 0.75664 0.41313 0.0
C1756 C 0.91501 0.77005 0.39669 0.0
C1757 C 0.90781 0.75945 0.38937 0.0
C1758 C 0.88845 0.74748 0.39414 0.0
C1759 C 0.87592 0.7461 0.4058 0.0
H1760 H 0.71888 0.49147 0.60521 0.0
H1761 H 0.57136 0.52618 0.6061 0.0
H1762 H 0.7398 0.49276 0.62561 0.0
H1763 H 0.59434 0.52757 0.6268 0.0
H1764 H 0.76849 0.52638 0.66237 0.0
H1765 H 0.74517 0.52808 0.6417 0.0
H1766 H 0.61435 0.49192 0.64212 0.0
H1767 H 0.63552 0.49033 0.6625 0.0
C1768 C 0.69114 0.49944 0.60976 0.0
C1769 C 0.6426 0.50866 0.60403 0.0
C1770 C 0.70346 0.50017 0.62145 0.0
C1771 C 0.66894 0.51026 0.62777 0.0
C1772 C 0.6221 0.51973 0.62209 0.0
C1773 C 0.60842 0.51888 0.6103 0.0
C1774 C 0.73462 0.51885 0.65801 0.0
C1775 C 0.70453 0.50817 0.66405 0.0
C1776 C 0.72068 0.51987 0.64624 0.0
C1777 C 0.67779 0.51013 0.64034 0.0
C1778 C 0.64753 0.49956 0.64644 0.0
C1779 C 0.65998 0.49865 0.65813 0.0
H1780 H 0.63285 0.79422 0.60531 0.0
H1781 H 0.7674 0.75833 0.60544 0.0
H1782 H 0.61454 0.7929 0.62577 0.0
H1783 H 0.74705 0.75689 0.62618 0.0
H1784 H 0.587 0.75774 0.6623 0.0
H1785 H 0.60746 0.75651 0.64155 0.0
H1786 H 0.73222 0.79316 0.64211 0.0
H1787 H 0.71383 0.79428 0.66258 0.0
C1788 C 0.65837 0.78599 0.6097 0.0
C1789 C 0.70242 0.77644 0.60373 0.0
C1790 C 0.64767 0.78524 0.62145 0.0
C1791 C 0.67926 0.7748 0.62759 0.0
C1792 C 0.72164 0.76502 0.62165 0.0
C1793 C 0.73384 0.76589 0.60982 0.0
C1794 C 0.61886 0.76549 0.65796 0.0
C1795 C 0.64809 0.77616 0.66409 0.0
C1796 C 0.63115 0.76474 0.64612 0.0
C1797 C 0.67138 0.77476 0.64021 0.0
C1798 C 0.70077 0.78532 0.6464 0.0
C1799 C 0.69002 0.78596 0.65815 0.0
H1800 H 0.27208 0.51581 0.35717 0.0
H1801 H 0.52117 0.53232 0.35413 0.0
H1802 H 0.29119 0.51416 0.37781 0.0
H1803 H 0.54085 0.53046 0.37459 0.0
H1804 H 0.57202 0.51627 0.41125 0.0
H1805 H 0.55227 0.51392 0.39067 0.0
H1806 H 0.30538 0.53123 0.39348 0.0
H1807 H 0.32578 0.53376 0.41387 0.0
C1808 C 0.3312 0.51891 0.36089 0.0
C1809 C 0.39483 0.5243 0.35406 0.0
C1810 C 0.34213 0.518 0.37269 0.0
C1811 C 0.41764 0.52218 0.37784 0.0
C1812 C 0.48235 0.52705 0.3709 0.0
C1813 C 0.47077 0.5282 0.35918 0.0
C1814 C 0.51336 0.51946 0.40745 0.0
C1815 C 0.45076 0.52531 0.41414 0.0
C1816 C 0.50206 0.51814 0.39569 0.0
C1817 C 0.42716 0.52239 0.39044 0.0
C1818 C 0.36338 0.52776 0.39725 0.0
C1819 C 0.37535 0.5293 0.40893 0.0
H1820 H 0.35604 0.23744 0.41009 0.0
H1821 H 0.40433 0.27767 0.41486 0.0
H1822 H 0.37945 0.23972 0.38985 0.0
H1823 H 0.42793 0.28002 0.39426 0.0
H1824 H 0.55713 0.27144 0.35756 0.0
H1825 H 0.5306 0.27264 0.37818 0.0
H1826 H 0.30555 0.2498 0.37393 0.0
H1827 H 0.33236 0.24847 0.3537 0.0
C1828 C 0.37116 0.24683 0.40679 0.0
C1829 C 0.37756 0.25738 0.41409 0.0
C1830 C 0.38439 0.24816 0.39514 0.0
C1831 C 0.40491 0.26008 0.39035 0.0
C1832 C 0.41238 0.2707 0.39766 0.0
C1833 C 0.39822 0.26938 0.40943 0.0
C1834 C 0.50155 0.26684 0.36107 0.0
C1835 C 0.44769 0.25967 0.35402 0.0
C1836 C 0.48618 0.26755 0.37286 0.0
C1837 C 0.41673 0.2611 0.37776 0.0
C1838 C 0.36069 0.25462 0.37053 0.0
C1839 C 0.37603 0.25389 0.35889 0.0
H1840 H 0.57516 1.00208 0.1641 0.0
H1841 H 0.82392 0.01874 0.16126 0.0
H1842 H 0.55502 1.00437 0.14369 0.0
H1843 H 0.80424 0.02087 0.14066 0.0
H1844 H 0.77122 1.00274 0.10415 0.0
H1845 H 0.79139 1.00469 0.12459 0.0
H1846 H 0.54142 0.02084 0.12788 0.0
H1847 H 0.5217 0.01905 0.10726 0.0
C1848 C 0.62542 1.00633 0.1591 0.0
C1849 C 0.7014 1.01014 0.16428 0.0
C1850 C 0.61356 1.00772 0.14741 0.0
C1851 C 0.67795 1.01279 0.14051 0.0
C1852 C 0.75351 1.01687 0.14572 0.0
C1853 C 0.76477 1.01569 0.15751 0.0
C1854 C 0.7208 1.00684 0.10921 0.0
C1855 C 0.64459 1.01065 0.1041 0.0
C1856 C 0.73267 1.00804 0.12093 0.0
C1857 C 0.66807 1.0129 0.1279 0.0
C1858 C 0.5923 1.01699 0.12276 0.0
C1859 C 0.58102 1.016 0.11096 0.0
H1860 H 0.82959 0.26526 0.10749 0.0
H1861 H 0.58025 0.28172 0.10503 0.0
H1862 H 0.81012 0.26278 0.12808 0.0
H1863 H 0.56017 0.27903 0.12543 0.0
H1864 H 0.52821 0.2642 0.16183 0.0
H1865 H 0.5486 0.26209 0.14121 0.0
H1866 H 0.79597 0.27918 0.14419 0.0
H1867 H 0.77488 0.28151 0.1646 0.0
C1868 C 0.77032 0.26817 0.11131 0.0
C1869 C 0.70677 0.27379 0.10466 0.0
C1870 C 0.75915 0.26678 0.12309 0.0
C1871 C 0.68344 0.27069 0.12841 0.0
C1872 C 0.61882 0.2758 0.12162 0.0
C1873 C 0.63064 0.27743 0.10994 0.0
C1874 C 0.58731 0.26731 0.15808 0.0
C1875 C 0.64971 0.2731 0.16481 0.0
C1876 C 0.59891 0.26616 0.14628 0.0
C1877 C 0.67396 0.27049 0.14104 0.0
C1878 C 0.73782 0.27566 0.14793 0.0
C1879 C 0.72549 0.27705 0.15962 0.0
H1880 H 0.52362 0.03199 0.85326 0.0
H1881 H 0.27965 1.0138 0.85607 0.0
H1882 H 0.54574 0.02937 0.8736 0.0
H1883 H 0.30109 1.01138 0.87662 0.0
H1884 H 0.33084 0.03052 0.913 0.0
H1885 H 0.31056 0.02805 0.8926 0.0
H1886 H 0.56287 1.01273 0.88947 0.0
H1887 H 0.58261 1.01499 0.91007 0.0
C1888 C 0.47503 0.02729 0.85823 0.0
C1889 C 0.39965 0.02317 0.85308 0.0
C1890 C 0.48799 0.02572 0.86989 0.0
C1891 C 0.42519 0.0202 0.87677 0.0
C1892 C 0.35059 1.01572 0.87156 0.0
C1893 C 0.33836 1.01705 0.8598 0.0
C1894 C 0.38171 0.02647 0.90799 0.0
C1895 C 0.45857 0.02303 0.91313 0.0
C1896 C 0.36978 0.02497 0.8963 0.0
C1897 C 0.43501 0.0202 0.88938 0.0
C1898 C 0.51144 1.01647 0.89456 0.0
C1899 C 0.52275 0.01773 0.90635 0.0
H1900 H 0.51762 0.77583 0.85614 0.0
H1901 H 0.3744 0.74069 0.85593 0.0
H1902 H 0.49711 0.77736 0.87689 0.0
H1903 H 0.35602 0.7421 0.87638 0.0
H1904 H 0.46418 0.74031 0.91302 0.0
H1905 H 0.48315 0.7418 0.89258 0.0
H1906 H 0.34828 0.77759 0.89225 0.0
H1907 H 0.32718 0.776 0.91299 0.0
C1908 C 0.48204 0.76846 0.8605 0.0
C1909 C 0.44831 0.75808 0.85439 0.0
C1910 C 0.46976 0.76939 0.87232 0.0
C1911 C 0.42485 0.75984 0.87822 0.0
C1912 C 0.39086 0.74958 0.87207 0.0
C1913 C 0.40172 0.74878 0.86033 0.0
C1914 C 0.43839 0.74854 0.90866 0.0
C1915 C 0.39331 0.75797 0.91464 0.0
C1916 C 0.44958 0.74938 0.89693 0.0
C1917 C 0.41748 0.75981 0.89083 0.0
C1918 C 0.37418 0.76949 0.89678 0.0
C1919 C 0.36154 0.76852 0.9086 0.0
H1920 H 0.1557 0.67608 0.06392 0.0
H1921 H 0.26265 0.6731 0.09747 0.0
H1922 H 0.14404 0.6528 0.06298 0.0
H1923 H 0.25147 0.64995 0.09652 0.0
H1924 H 0.13243 0.6104 0.09669 0.0
H1925 H 0.14631 0.63353 0.09693 0.0
H1926 H 0.22378 0.63299 0.06179 0.0
H1927 H 0.20941 0.60972 0.06154 0.0
C1928 C 0.17739 0.67048 0.07105 0.0
C1929 C 0.20932 0.67652 0.08081 0.0
C1930 C 0.17081 0.65711 0.07052 0.0
C1931 C 0.19615 0.64944 0.07971 0.0
C1932 C 0.22948 0.65551 0.08937 0.0
C1933 C 0.23589 0.66883 0.08992 0.0
C1934 C 0.1535 0.61516 0.08903 0.0
C1935 C 0.17057 0.60812 0.07912 0.0
C1936 C 0.16141 0.62848 0.08917 0.0
C1937 C 0.18679 0.6352 0.0794 0.0
C1938 C 0.20324 0.62818 0.06944 0.0
C1939 C 0.19515 0.61482 0.0693 0.0
H1940 H 0.18092 0.67481 0.20608 0.0
H1941 H 1.02536 0.67119 0.17619 0.0
H1942 H 0.19165 0.65163 0.20727 0.0
H1943 H 1.03924 0.64801 0.17709 0.0
H1944 H 1.02127 0.60604 0.18719 0.0
H1945 H 0.99995 0.62914 0.18752 0.0
H1946 H 0.26043 0.63442 0.19745 0.0
H1947 H 0.28143 0.61138 0.19719 0.0
C1948 C 0.14828 0.66908 0.19981 0.0
C1949 C 0.10229 0.67493 0.19103 0.0
C1950 C 0.15544 0.65576 0.20041 0.0
C1951 C 0.11685 0.64789 0.19223 0.0
C1952 C 0.06926 0.65372 0.18359 0.0
C1953 C 0.06208 0.66705 0.183 0.0
C1954 C 0.07399 0.61214 0.18944 0.0
C1955 C 0.15305 0.60681 0.19217 0.0
C1956 C 0.06182 0.6254 0.18961 0.0
C1957 C 0.12844 0.63371 0.1925 0.0
C1958 C 0.20717 0.62836 0.19538 0.0
C1959 C 0.21927 0.6151 0.19523 0.0
H1960 H 0.86044 0.36059 0.92311 0.0
H1961 H 0.96468 0.35867 0.95687 0.0
H1962 H 0.87008 0.38375 0.92355 0.0
H1963 H 0.97551 0.382 0.95728 0.0
H1964 H 0.90638 0.42506 0.95768 0.0
H1965 H 0.89626 0.40172 0.95803 0.0
H1966 H 0.97158 0.40041 0.92281 0.0
H1967 H 0.98048 0.42359 0.92245 0.0
C1968 C 0.88652 0.3651 0.93059 0.0
C1969 C 0.91265 0.35771 0.9399 0.0
C1970 C 0.89211 0.37844 0.93085 0.0
C1971 C 0.92439 0.38484 0.94041 0.0
C1972 C 0.94956 0.37746 0.9498 0.0
C1973 C 0.94357 0.36406 0.94956 0.0
C1974 C 0.92109 0.41977 0.95003 0.0
C1975 C 0.94325 0.42625 0.94 0.0
C1976 C 0.9155 0.40637 0.95023 0.0
C1977 C 0.93233 0.39911 0.94042 0.0
C1978 C 0.95604 0.40563 0.93047 0.0
C1979 C 0.96122 0.41897 0.93026 0.0
H1980 H 0.95337 0.42533 0.81067 0.0
H1981 H 0.85982 0.42356 0.84505 0.0
H1982 H 0.96312 0.402 0.81023 0.0
H1983 H 0.86856 0.40039 0.84459 0.0
H1984 H 0.97825 0.36044 0.84495 0.0
H1985 H 0.96987 0.38363 0.84467 0.0
H1986 H 0.88209 0.38239 0.81002 0.0
H1987 H 0.89149 0.35905 0.81029 0.0
C1988 C 0.93439 0.41998 0.81811 0.0
C1989 C 0.90673 0.42637 0.82794 0.0
C1990 C 0.93977 0.40658 0.81785 0.0
C1991 C 0.9173 0.39924 0.82741 0.0
C1992 C 0.8884 0.40567 0.83716 0.0
C1993 C 0.88336 0.41901 0.83742 0.0
C1994 C 0.9563 0.36508 0.83729 0.0
C1995 C 0.93468 0.35782 0.82768 0.0
C1996 C 0.95146 0.37842 0.83713 0.0
C1997 C 0.92453 0.38496 0.82735 0.0
C1998 C 0.9039 0.37773 0.81767 0.0
C1999 C 0.90908 0.36433 0.81783 0.0
H2000 H 0.13598 0.1104 0.5959 0.0
H2001 H 0.21261 0.1094 0.56074 0.0
H2002 H 0.15336 0.13347 0.59611 0.0
H2003 H 0.2304 0.13264 0.56096 0.0
H2004 H 0.16592 0.176 0.56327 0.0
H2005 H 0.15301 0.15273 0.5622 0.0
H2006 H 0.26159 0.14948 0.59565 0.0
H2007 H 0.27406 0.17261 0.59672 0.0
C2008 C 0.15771 0.11508 0.58823 0.0
C2009 C 0.17369 0.10796 0.57833 0.0
C2010 C 0.16765 0.12836 0.58835 0.0
C2011 C 0.194 0.13498 0.57858 0.0
C2012 C 0.20926 0.1279 0.56862 0.0
C2013 C 0.19917 0.11456 0.5685 0.0
C2014 C 0.18781 0.1703 0.57035 0.0
C2015 C 0.22018 0.17623 0.58014 0.0
C2016 C 0.18045 0.15694 0.56973 0.0
C2017 C 0.2054 0.14918 0.57889 0.0
C2018 C 0.23979 0.15513 0.58854 0.0
C2019 C 0.24701 0.16843 0.58915 0.0
H2020 H 0.10518 0.17312 0.6723 0.0
H2021 H 0.19433 0.17615 0.70678 0.0
H2022 H 0.116 0.14996 0.67334 0.0
H2023 H 0.20296 0.15282 0.70793 0.0
H2024 H 0.29997 0.11161 0.69981 0.0
H2025 H 0.28567 0.13485 0.7002 0.0
H2026 H 0.04801 0.13183 0.68244 0.0
H2027 H 0.06198 0.10865 0.6821 0.0
C2028 C 0.1274 0.16884 0.68011 0.0
C2029 C 0.1494 0.17654 0.68943 0.0
C2030 C 0.13256 0.15553 0.68075 0.0
C2031 C 0.15999 0.14948 0.69074 0.0
C2032 C 0.18212 0.15715 0.70009 0.0
C2033 C 0.17649 0.17052 0.69946 0.0
C2034 C 0.24395 0.11588 0.69615 0.0
C2035 C 0.18245 0.10821 0.69084 0.0
C2036 C 0.23582 0.12923 0.69637 0.0
C2037 C 0.16608 0.13525 0.69126 0.0
C2038 C 0.10343 0.12755 0.68625 0.0
C2039 C 0.11146 0.11424 0.68605 0.0
H2040 H 0.95339 0.86051 0.42348 0.0
H2041 H 0.81187 0.86186 0.45482 0.0
H2042 H 0.96726 0.88364 0.42377 0.0
H2043 H 0.82586 0.88516 0.45511 0.0
H2044 H 0.94501 0.92573 0.45698 0.0
H2045 H 0.92999 0.90244 0.45736 0.0
H2046 H 0.88182 0.90248 0.42133 0.0
H2047 H 0.89966 0.92554 0.42088 0.0
C2048 C 0.92416 0.86575 0.43037 0.0
C2049 C 0.88066 0.85928 0.43906 0.0
C2050 C 0.9323 0.87905 0.43055 0.0
C2051 C 0.8972 0.88632 0.43942 0.0
C2052 C 0.8544 0.87987 0.4482 0.0
C2053 C 0.84624 0.86651 0.44803 0.0
C2054 C 0.93177 0.92074 0.44913 0.0
C2055 C 0.92345 0.92754 0.4389 0.0
C2056 C 0.92226 0.9074 0.44937 0.0
C2057 C 0.90487 0.90055 0.43937 0.0
C2058 C 0.89622 0.90739 0.42917 0.0
C2059 C 0.90545 0.92067 0.42894 0.0
H2060 H 1.01103 0.86126 0.34548 0.0
H2061 H 0.88437 0.85766 0.31323 0.0
H2062 H 0.99878 0.8844 0.34437 0.0
H2063 H 0.87436 0.88096 0.31195 0.0
H2064 H 0.78626 0.92228 0.32133 0.0
H2065 H 0.80086 0.89905 0.32091 0.0
H2066 H 0.05495 0.90244 0.33391 0.0
H2067 H 1.04063 0.92561 0.33428 0.0
C2068 C 0.98031 0.8654 0.33815 0.0
C2069 C 0.94821 0.85754 0.32948 0.0
C2070 C 0.97426 0.87871 0.33744 0.0
C2071 C 0.93587 0.8846 0.32805 0.0
C2072 C 0.90379 0.87676 0.31935 0.0
C2073 C 0.91021 0.8634 0.32003 0.0
C2074 C 0.84577 0.9181 0.32393 0.0
C2075 C 0.91197 0.92587 0.32794 0.0
C2076 C 0.8541 0.90475 0.3237 0.0
C2077 C 0.92878 0.89883 0.32749 0.0
C2078 C 0.99584 0.90664 0.33116 0.0
C2079 C 0.9876 0.91995 0.33137 0.0
H2080 H 0.7826 0.60908 0.58579 0.0
H2081 H 0.55295 0.61093 0.5661 0.0
H2082 H 0.79335 0.6323 0.58527 0.0
H2083 H 0.56431 0.63419 0.56549 0.0
H2084 H 0.65361 0.67567 0.55898 0.0
H2085 H 0.64818 0.65229 0.55817 0.0
H2086 H 0.71895 0.65044 0.59347 0.0
H2087 H 0.72645 0.67366 0.5942 0.0
C2088 C 0.73424 0.61441 0.58136 0.0
C2089 C 0.66653 0.60805 0.57606 0.0
C2090 C 0.74045 0.62776 0.58106 0.0
C2091 C 0.67931 0.63517 0.57542 0.0
C2092 C 0.61299 0.62881 0.56982 0.0
C2093 C 0.6066 0.61544 0.57016 0.0
C2094 C 0.66853 0.67026 0.56654 0.0
C2095 C 0.69011 0.67659 0.57667 0.0
C2096 C 0.66474 0.65686 0.56611 0.0
C2097 C 0.68333 0.64945 0.57575 0.0
C2098 C 0.70522 0.6558 0.58584 0.0
C2099 C 0.70846 0.66915 0.5863 0.0
H2100 H 0.6355 0.6082 0.70781 0.0
H2101 H 0.74739 0.6111 0.67448 0.0
H2102 H 0.62951 0.63158 0.709 0.0
H2103 H 0.7398 0.6343 0.67556 0.0
H2104 H 0.79581 0.67527 0.68537 0.0
H2105 H 0.80542 0.65204 0.68582 0.0
H2106 H 0.55442 0.64994 0.70017 0.0
H2107 H 0.54417 0.67323 0.6996 0.0
C2108 C 0.6589 0.61381 0.70075 0.0
C2109 C 0.69155 0.60775 0.69103 0.0
C2110 C 0.65487 0.6272 0.7014 0.0
C2111 C 0.68439 0.63484 0.69239 0.0
C2112 C 0.71741 0.62875 0.68272 0.0
C2113 C 0.72081 0.61542 0.68204 0.0
C2114 C 0.74241 0.66989 0.68859 0.0
C2115 C 0.66885 0.67619 0.69234 0.0
C2116 C 0.748 0.65654 0.68886 0.0
C2117 C 0.68038 0.64909 0.69293 0.0
C2118 C 0.60796 0.65538 0.69706 0.0
C2119 C 0.60219 0.66875 0.69675 0.0
H2120 H 0.53663 0.42385 0.44704 0.0
H2121 H 0.27456 0.4287 0.43778 0.0
H2122 H 0.51689 0.40078 0.44761 0.0
H2123 H 0.2545 0.40559 0.43843 0.0
H2124 H 0.27976 0.36351 0.42731 0.0
H2125 H 0.29264 0.3867 0.42804 0.0
H2126 H 0.45115 0.38351 0.45769 0.0
H2127 H 0.44138 0.3603 0.45664 0.0
C2128 C 0.47435 0.42002 0.44531 0.0
C2129 C 0.40724 0.42818 0.44235 0.0
C2130 C 0.46297 0.40675 0.44564 0.0
C2131 C 0.38407 0.40125 0.44305 0.0
C2132 C 0.31653 0.40943 0.44029 0.0
C2133 C 0.32799 0.42271 0.43994 0.0
C2134 C 0.31762 0.36774 0.43397 0.0
C2135 C 0.35983 0.35997 0.44188 0.0
C2136 C 0.32423 0.38108 0.43447 0.0
C2137 C 0.37321 0.38704 0.44291 0.0
C2138 C 0.4138 0.37928 0.45098 0.0
C2139 C 0.40722 0.36594 0.45047 0.0
H2140 H 0.58284 0.36086 0.32234 0.0
H2141 H 0.32422 0.35881 0.33404 0.0
H2142 H 0.5712 0.38406 0.32089 0.0
H2143 H 0.31347 0.38202 0.33296 0.0
H2144 H 0.29523 0.42294 0.32022 0.0
H2145 H 0.30809 0.39972 0.31973 0.0
H2146 H 0.56103 0.40259 0.33323 0.0
H2147 H 0.54925 0.42583 0.33335 0.0
C2148 C 0.52326 0.36533 0.32453 0.0
C2149 C 0.45451 0.35792 0.32832 0.0
C2150 C 0.5169 0.37867 0.32382 0.0
C2151 C 0.44148 0.38497 0.32684 0.0
C2152 C 0.3723 0.37753 0.33045 0.0
C2153 C 0.37876 0.3642 0.3312 0.0
C2154 C 0.35417 0.41865 0.32291 0.0
C2155 C 0.42119 0.42631 0.32683 0.0
C2156 C 0.36115 0.4053 0.32276 0.0
C2157 C 0.43544 0.39923 0.3265 0.0
C2158 C 0.50311 0.4069 0.3302 0.0
C2159 C 0.49603 0.42025 0.33038 0.0
H2160 H 0.78784 0.10906 0.0834 0.0
H2161 H 0.54526 0.11133 0.06676 0.0
H2162 H 0.79834 0.13229 0.08316 0.0
H2163 H 0.55621 0.13459 0.06643 0.0
H2164 H 0.64076 0.17617 0.05955 0.0
H2165 H 0.63459 0.15283 0.05841 0.0
H2166 H 0.72995 0.1502 0.09261 0.0
H2167 H 0.73833 0.17339 0.09363 0.0
C2168 C 0.73664 0.11449 0.07969 0.0
C2169 C 0.66542 0.10826 0.07517 0.0
C2170 C 0.74267 0.12784 0.07955 0.0
C2171 C 0.67778 0.13535 0.07486 0.0
C2172 C 0.60775 0.12912 0.07002 0.0
C2173 C 0.60158 0.11575 0.07019 0.0
C2174 C 0.66087 0.1706 0.06679 0.0
C2175 C 0.6897 0.1767 0.0767 0.0
C2176 C 0.65669 0.15722 0.06617 0.0
C2177 C 0.68201 0.14961 0.0754 0.0
C2178 C 0.71093 0.15573 0.08528 0.0
C2179 C 0.71466 0.16906 0.08592 0.0
H2180 H 0.51742 0.17292 0.19726 0.0
H2181 H 0.77902 0.17489 0.18681 0.0
H2182 H 0.52792 0.1497 0.19858 0.0
H2183 H 0.78874 0.15166 0.18777 0.0
H2184 H 0.80222 0.11063 0.20034 0.0
H2185 H 0.79 0.13385 0.2009 0.0
H2186 H 0.5408 0.13128 0.18616 0.0
H2187 H 0.55183 0.10802 0.18597 0.0
C2188 C 0.5774 0.16842 0.19532 0.0
C2189 C 0.64736 0.17582 0.19192 0.0
C2190 C 0.58314 0.15508 0.19595 0.0
C2191 C 0.6591 0.14875 0.19325 0.0
C2192 C 0.72943 0.15617 0.19002 0.0
C2193 C 0.7236 0.16951 0.18935 0.0
C2194 C 0.74418 0.11498 0.19739 0.0
C2195 C 0.67801 0.1074 0.19311 0.0
C2196 C 0.73762 0.12833 0.19758 0.0
C2197 C 0.6646 0.13449 0.19352 0.0
C2198 C 0.59772 0.1269 0.18945 0.0
C2199 C 0.60439 0.11354 0.18923 0.0
H2200 H 0.36973 0.86067 0.92377 0.0
H2201 H 0.43748 0.85861 0.95917 0.0
H2202 H 0.37754 0.88388 0.92452 0.0
H2203 H 0.44322 0.88198 0.96 0.0
H2204 H 0.54126 0.92324 0.9523 0.0
H2205 H 0.52882 0.9 0.95289 0.0
H2206 H 0.30269 0.9021 0.93254 0.0
H2207 H 0.31449 0.92531 0.93203 0.0
C2208 C 0.38662 0.86516 0.93172 0.0
C2209 C 0.40351 0.85772 0.94139 0.0
C2210 C 0.39004 0.87851 0.93219 0.0
C2211 C 0.41067 0.88485 0.94233 0.0
C2212 C 0.42768 0.87743 0.95203 0.0
C2213 C 0.4237 0.86403 0.95157 0.0
C2214 C 0.48798 0.91879 0.94811 0.0
C2215 C 0.4292 0.92623 0.94205 0.0
C2216 C 0.48097 0.90542 0.94844 0.0
C2217 C 0.41519 0.89913 0.94267 0.0
C2218 C 0.35517 0.90659 0.93688 0.0
C2219 C 0.36198 0.91993 0.93659 0.0
H2220 H 0.5417 0.86068 0.81885 0.0
H2221 H 0.29615 0.85759 0.83472 0.0
H2222 H 0.52892 0.8839 0.81883 0.0
H2223 H 0.28349 0.88081 0.83473 0.0
H2224 H 0.33548 0.92207 0.84557 0.0
H2225 H 0.34491 0.89891 0.84436 0.0
H2226 H 0.45348 0.90207 0.81085 0.0
H2227 H 0.44673 0.92537 0.81222 0.0
C2228 C 0.48434 0.86492 0.82217 0.0
C2229 C 0.42015 0.85719 0.82684 0.0
C2230 C 0.47706 0.87828 0.82218 0.0
C2231 C 0.40543 0.88429 0.82686 0.0
C2232 C 0.34035 0.87655 0.83126 0.0
C2233 C 0.34758 0.86321 0.83125 0.0
C2234 C 0.36218 0.91787 0.83797 0.0
C2235 C 0.39084 0.92566 0.82902 0.0
C2236 C 0.36653 0.90453 0.83722 0.0
C2237 C 0.3997 0.89855 0.82749 0.0
C2238 C 0.4282 0.90632 0.81851 0.0
C2239 C 0.42357 0.9197 0.81925 0.0
H2240 H 0.80855 0.52764 0.08811 0.0
H2241 H 0.8165 0.50175 0.05961 0.0
H2242 H 0.65467 0.52837 0.08686 0.0
H2243 H 0.66376 0.50295 0.05795 0.0
H2244 H 0.38345 0.49773 0.06399 0.0
H2245 H 0.53608 0.49673 0.06577 0.0
H2246 H 0.54034 0.53629 0.07642 0.0
H2247 H 0.38636 0.53702 0.07518 0.0
C2248 C 0.77743 0.52211 0.08157 0.0
C2249 C 0.8249 0.51457 0.07402 0.0
C2250 C 0.68904 0.52263 0.08076 0.0
C2251 C 0.64588 0.51576 0.07227 0.0
C2252 C 0.69386 0.50819 0.06475 0.0
C2253 C 0.78193 0.50753 0.06568 0.0
C2254 C 0.41691 0.50626 0.06663 0.0
C2255 C 0.37254 0.51747 0.0694 0.0
C2256 C 0.50494 0.50571 0.06762 0.0
C2257 C 0.55155 0.51643 0.07123 0.0
C2258 C 0.50701 0.52774 0.07382 0.0
C2259 C 0.4186 0.52822 0.07299 0.0
H2260 H 0.54227 0.74926 0.07655 0.0
H2261 H 0.54284 0.78991 0.07006 0.0
H2262 H 0.69558 0.74896 0.07536 0.0
H2263 H 0.69699 0.78969 0.06925 0.0
H2264 H 0.97177 0.7545 0.08416 0.0
H2265 H 0.81865 0.75522 0.08517 0.0
H2266 H 0.81455 0.78285 0.05795 0.0
H2267 H 0.96893 0.78245 0.0572 0.0
C2268 C 0.57507 0.75819 0.07501 0.0
C2269 C 0.52985 0.76962 0.07344 0.0
C2270 C 0.66338 0.75802 0.07437 0.0
C2271 C 0.70922 0.76931 0.07222 0.0
C2272 C 0.664 0.78077 0.07074 0.0
C2273 C 0.57545 0.78092 0.0713 0.0
C2274 C 0.93848 0.76071 0.07834 0.0
C2275 C 0.98299 0.76839 0.07057 0.0
C2276 C 0.85023 0.76108 0.07889 0.0
C2277 C 0.80365 0.76906 0.07162 0.0
C2278 C 0.84815 0.77672 0.06379 0.0
C2279 C 0.93676 0.77641 0.06329 0.0
H2280 H 0.81583 0.78851 0.19772 0.0
H2281 H 0.81234 0.74808 0.1903 0.0
H2282 H 0.66222 0.78887 0.19775 0.0
H2283 H 0.65813 0.74831 0.19076 0.0
H2284 H 0.38138 0.75517 0.18206 0.0
H2285 H 0.53508 0.75506 0.18119 0.0
H2286 H 0.54389 0.78258 0.20851 0.0
H2287 H 0.38995 0.78305 0.20906 0.0
C2288 C 0.78226 0.77966 0.19615 0.0
C2289 C 0.82662 0.76826 0.19401 0.0
C2290 C 0.69385 0.77985 0.19625 0.0
C2291 C 0.6471 0.76861 0.19435 0.0
C2292 C 0.69161 0.75721 0.19211 0.0
C2293 C 0.78024 0.75705 0.19188 0.0
C2294 C 0.41607 0.76122 0.18788 0.0
C2295 C 0.37314 0.76914 0.19563 0.0
C2296 C 0.50451 0.76109 0.18743 0.0
C2297 C 0.55256 0.76879 0.19478 0.0
C2298 C 0.50939 0.77668 0.20256 0.0
C2299 C 0.42087 0.77691 0.20293 0.0
H2300 H 0.95993 0.52927 0.18366 0.0
H2301 H 0.95002 0.50422 0.21272 0.0
H2302 H 0.80714 0.52811 0.18192 0.0
H2303 H 0.7962 0.50353 0.21135 0.0
H2304 H 0.52812 0.49476 0.19987 0.0
H2305 H 0.68209 0.49539 0.20099 0.0
H2306 H 0.67925 0.53466 0.18957 0.0
H2307 H 0.52635 0.53376 0.18793 0.0
C2308 C 0.92492 0.52368 0.18981 0.0
C2309 C 0.96733 0.51687 0.19835 0.0
C2310 C 0.83685 0.52304 0.18884 0.0
C2311 C 0.78835 0.51573 0.19649 0.0
C2312 C 0.83098 0.50907 0.20515 0.0
C2313 C 0.91934 0.50956 0.20602 0.0
C2314 C 0.56062 0.50347 0.19749 0.0
C2315 C 0.51483 0.51418 0.19374 0.0
C2316 C 0.64906 0.5039 0.19824 0.0
C2317 C 0.69399 0.5151 0.19543 0.0
C2318 C 0.64773 0.52577 0.19162 0.0
C2319 C 0.55959 0.52527 0.19071 0.0
H2320 H 0.70826 0.53016 0.96206 0.0
H2321 H 0.71756 0.50512 0.93298 0.0
H2322 H 0.55439 0.53079 0.96078 0.0
H2323 H 0.56466 0.50619 0.93134 0.0
H2324 H 0.28439 0.50023 0.93782 0.0
H2325 H 0.43747 0.49947 0.93928 0.0
H2326 H 0.43994 0.53887 0.95036 0.0
H2327 H 0.28594 0.53939 0.94939 0.0
C2328 C 0.67746 0.52481 0.95537 0.0
C2329 C 0.72527 0.51752 0.94768 0.0
C2330 C 0.58908 0.52526 0.95456 0.0
C2331 C 0.54629 0.51857 0.94593 0.0
C2332 C 0.5946 0.51129 0.93824 0.0
C2333 C 0.6827 0.5107 0.93915 0.0
C2334 C 0.31757 0.50877 0.94049 0.0
C2335 C 0.27274 0.51988 0.94347 0.0
C2336 C 0.40579 0.50836 0.94129 0.0
C2337 C 0.45194 0.51911 0.94495 0.0
C2338 C 0.40694 0.53031 0.94772 0.0
C2339 C 0.31848 0.53066 0.94706 0.0
H2340 H 0.56302 0.27713 0.92952 0.0
H2341 H 0.56998 0.25153 0.95821 0.0
H2342 H 0.40899 0.27778 0.93072 0.0
H2343 H 0.41721 0.25265 0.9598 0.0
H2344 H 0.13736 0.24715 0.95372 0.0
H2345 H 0.2902 0.24624 0.95198 0.0
H2346 H 0.29382 0.2857 0.94107 0.0
H2347 H 0.13983 0.28634 0.94228 0.0
C2348 C 0.53167 0.27165 0.93609 0.0
C2349 C 0.5789 0.26421 0.94371 0.0
C2350 C 0.44321 0.27212 0.93687 0.0
C2351 C 0.39976 0.2653 0.94539 0.0
C2352 C 0.44753 0.25785 0.95298 0.0
C2353 C 0.53563 0.25723 0.95209 0.0
C2354 C 0.17076 0.25567 0.95103 0.0
C2355 C 0.12626 0.26684 0.94818 0.0
C2356 C 0.25887 0.25517 0.95006 0.0
C2357 C 0.30535 0.2659 0.94639 0.0
C2358 C 0.26063 0.27715 0.94372 0.0
C2359 C 0.17219 0.27758 0.94452 0.0
H2360 H 0.70693 0.24701 0.81314 0.0
H2361 H 0.70514 0.28621 0.82456 0.0
H2362 H 0.55386 0.24619 0.81478 0.0
H2363 H 0.55118 0.28567 0.82566 0.0
H2364 H 0.28122 0.2774 0.83692 0.0
H2365 H 0.43535 0.27785 0.83591 0.0
H2366 H 0.42765 0.25276 0.80679 0.0
H2367 H 0.27473 0.25183 0.80819 0.0
C2368 C 0.67363 0.25554 0.81582 0.0
C2369 C 0.7183 0.26669 0.81869 0.0
C2370 C 0.58546 0.2551 0.81672 0.0
C2371 C 0.53923 0.26587 0.82034 0.0
C2372 C 0.58418 0.27709 0.82305 0.0
C2373 C 0.67261 0.27746 0.82231 0.0
C2374 C 0.31269 0.2719 0.83037 0.0
C2375 C 0.26559 0.26452 0.82269 0.0
C2376 C 0.40121 0.27225 0.82971 0.0
C2377 C 0.4448 0.26537 0.82124 0.0
C2378 C 0.39716 0.25799 0.81358 0.0
C2379 C 0.30899 0.2575 0.81435 0.0
H2380 H 0.13336 0.53728 0.8144 0.0
H2381 H 0.13584 0.49788 0.82524 0.0
H2382 H 0.28614 0.53821 0.81615 0.0
H2383 H 0.28977 0.49854 0.82643 0.0
H2384 H 0.55862 0.50684 0.83798 0.0
H2385 H 0.40464 0.50626 0.83686 0.0
H2386 H 0.41337 0.53201 0.8082 0.0
H2387 H 0.56619 0.53306 0.80973 0.0
C2388 C 0.16676 0.52872 0.81696 0.0
C2389 C 0.12229 0.51749 0.81964 0.0
C2390 C 0.25483 0.52923 0.81793 0.0
C2391 C 0.30129 0.51845 0.82142 0.0
C2392 C 0.25659 0.50713 0.82393 0.0
C2393 C 0.16819 0.50669 0.82313 0.0
C2394 C 0.5274 0.51247 0.83152 0.0
C2395 C 0.57478 0.52006 0.824 0.0
C2396 C 0.43895 0.51204 0.83078 0.0
C2397 C 0.39567 0.51905 0.8224 0.0
C2398 C 0.44358 0.52666 0.81492 0.0
C2399 C 0.5317 0.52723 0.81577 0.0
H2400 H 0.37617 0.99732 0.56369 0.0
H2401 H 0.3786 0.03695 0.57392 0.0
H2402 H 0.52907 0.99649 0.56534 0.0
H2403 H 0.53254 0.03636 0.57503 0.0
H2404 H 0.80118 0.02828 0.58672 0.0
H2405 H 0.64721 0.02878 0.58562 0.0
H2406 H 0.65597 1.0027 0.55718 0.0
H2407 H 0.80887 1.00174 0.5587 0.0
C2408 C 0.40957 1.00595 0.5661 0.0
C2409 C 0.36511 1.01722 0.56863 0.0
C2410 C 0.49766 1.00549 0.56701 0.0
C2411 C 0.54404 1.01636 0.57032 0.0
C2412 C 0.49935 0.02771 0.57268 0.0
C2413 C 0.41097 0.0281 0.57193 0.0
C2414 C 0.76998 0.02257 0.58031 0.0
C2415 C 0.81735 1.01491 0.57285 0.0
C2416 C 0.68157 0.02295 0.57959 0.0
C2417 C 0.63835 1.01582 0.57128 0.0
C2418 C 0.68622 1.00814 0.56384 0.0
C2419 C 0.77434 1.00762 0.56468 0.0
H2420 H 0.53662 0.24934 0.57674 0.0
H2421 H 0.53694 0.28976 0.56927 0.0
H2422 H 0.6905 0.24917 0.57599 0.0
H2423 H 0.69076 0.28971 0.56894 0.0
H2424 H 0.96314 0.28313 0.55767 0.0
H2425 H 0.80898 0.28312 0.5582 0.0
H2426 H 0.81404 0.25554 0.58548 0.0
H2427 H 0.96747 0.25521 0.58464 0.0
C2428 C 0.56949 0.25823 0.57509 0.0
C2429 C 0.52412 0.26955 0.57306 0.0
C2430 C 0.65804 0.25815 0.57469 0.0
C2431 C 0.70376 0.26942 0.57238 0.0
C2432 C 0.65816 0.28078 0.57052 0.0
C2433 C 0.56965 0.28083 0.57081 0.0
C2434 C 0.93131 0.27704 0.56376 0.0
C2435 C 0.97797 0.26914 0.57107 0.0
C2436 C 0.84269 0.27709 0.56413 0.0
C2437 C 0.79837 0.26933 0.5719 0.0
C2438 C 0.84538 0.26148 0.57923 0.0
C2439 C 0.93379 0.26134 0.57879 0.0
H2440 H 0.80705 0.28394 0.70642 0.0
H2441 H 0.80626 0.25574 0.67965 0.0
H2442 H 0.65395 0.28322 0.70722 0.0
H2443 H 0.65177 0.25535 0.68016 0.0
H2444 H 0.37895 0.24837 0.69216 0.0
H2445 H 0.53314 0.24863 0.69125 0.0
H2446 H 0.53163 0.28936 0.69736 0.0
H2447 H 0.37844 0.28901 0.69868 0.0
C2448 C 0.7742 0.27768 0.70058 0.0
C2449 C 0.81929 0.26993 0.69294 0.0
C2450 C 0.68594 0.27732 0.70101 0.0
C2451 C 0.63986 0.26927 0.69373 0.0
C2452 C 0.68494 0.26155 0.68601 0.0
C2453 C 0.77361 0.26184 0.68565 0.0
C2454 C 0.41161 0.25737 0.69336 0.0
C2455 C 0.36608 0.26865 0.69558 0.0
C2456 C 0.50016 0.25754 0.69275 0.0
C2457 C 0.54538 0.26901 0.69424 0.0
C2458 C 0.49949 0.28029 0.69638 0.0
C2459 C 0.41125 0.28009 0.6971 0.0
H2460 H 0.96137 0.99584 0.70135 0.0
H2461 H 0.95831 0.03679 0.69685 0.0
H2462 H 0.80814 0.99532 0.70007 0.0
H2463 H 0.80434 0.03641 0.69613 0.0
H2464 H 0.53686 0.0305 0.68321 0.0
H2465 H 0.69042 0.03082 0.68459 0.0
H2466 H 0.68019 0.99992 0.70889 0.0
H2467 H 0.52711 0.99922 0.70706 0.0
C2468 C 0.92785 1.00478 0.70031 0.0
C2469 C 0.9723 1.01636 0.69921 0.0
C2470 C 0.83953 1.0045 0.69961 0.0
C2471 C 0.79295 1.01581 0.69795 0.0
C2472 C 0.83761 0.02744 0.69715 0.0
C2473 C 0.9261 0.0277 0.69768 0.0
C2474 C 0.56751 0.02372 0.68879 0.0
C2475 C 0.51957 1.0148 0.69498 0.0
C2476 C 0.6558 0.02398 0.68968 0.0
C2477 C 0.69858 1.01545 0.69691 0.0
C2478 C 0.65025 1.00651 0.70308 0.0
C2479 C 0.56208 1.00613 0.70206 0.0
H2480 H 0.71451 1.00648 0.43149 0.0
H2481 H 0.70439 0.03399 0.45875 0.0
H2482 H 0.5611 1.00683 0.43015 0.0
H2483 H 0.55062 0.0339 0.45784 0.0
H2484 H 0.28053 0.04066 0.44719 0.0
H2485 H 0.43426 0.04063 0.44749 0.0
H2486 H 0.43447 1.00055 0.43851 0.0
H2487 H 0.2805 1.00083 0.43765 0.0
C2488 C 0.67943 1.01251 0.4373 0.0
C2489 C 0.72193 0.02023 0.44521 0.0
C2490 C 0.59105 1.01266 0.43658 0.0
C2491 C 0.54244 0.0204 0.44387 0.0
C2492 C 0.5853 0.02801 0.45189 0.0
C2493 C 0.67379 0.028 0.45249 0.0
C2494 C 0.31347 0.03186 0.44519 0.0
C2495 C 0.26814 0.02075 0.44238 0.0
C2496 C 0.40195 0.0318 0.44547 0.0
C2497 C 0.44778 0.02056 0.44313 0.0
C2498 C 0.4021 1.00946 0.44019 0.0
C2499 C 0.3135 1.00959 0.43973 0.0
H2500 H 0.57597 0.78589 0.43975 0.0
H2501 H 0.57941 0.74544 0.44701 0.0
H2502 H 0.4218 0.78567 0.44029 0.0
H2503 H 0.42576 0.74508 0.44712 0.0
H2504 H 0.15392 0.75089 0.45868 0.0
H2505 H 0.30788 0.75131 0.45798 0.0
H2506 H 0.29821 0.77902 0.43083 0.0
H2507 H 0.1446 0.77895 0.43185 0.0
C2508 C 0.54386 0.77691 0.44131 0.0
C2509 C 0.59022 0.7657 0.44338 0.0
C2510 C 0.45523 0.77676 0.44158 0.0
C2511 C 0.41068 0.76536 0.44381 0.0
C2512 C 0.45741 0.7541 0.44563 0.0
C2513 C 0.54584 0.75429 0.44548 0.0
C2514 C 0.18467 0.75707 0.45256 0.0
C2515 C 0.13672 0.7649 0.44535 0.0
C2516 C 0.27319 0.75726 0.4521 0.0
C2517 C 0.31614 0.76519 0.44433 0.0
C2518 C 0.26785 0.77295 0.43707 0.0
C2519 C 0.17944 0.77285 0.4376 0.0
H2520 H 0.28703 0.78489 0.32529 0.0
H2521 H 0.28777 0.74404 0.31985 0.0
H2522 H 0.44002 0.78524 0.32382 0.0
H2523 H 0.442 0.74434 0.31876 0.0
H2524 H 0.71348 0.75148 0.30618 0.0
H2525 H 0.55907 0.75088 0.30716 0.0
H2526 H 0.56368 0.77947 0.3336 0.0
H2527 H 0.71653 0.78038 0.33236 0.0
C2528 C 0.31982 0.77593 0.32394 0.0
C2529 C 0.27467 0.76442 0.32274 0.0
C2530 C 0.40802 0.77613 0.32313 0.0
C2531 C 0.45398 0.76482 0.3212 0.0
C2532 C 0.4089 0.75327 0.32009 0.0
C2533 C 0.32034 0.75308 0.32082 0.0
C2534 C 0.68137 0.7577 0.31214 0.0
C2535 C 0.72767 0.76604 0.31913 0.0
C2536 C 0.59277 0.75728 0.31278 0.0
C2537 C 0.54839 0.76514 0.32045 0.0
C2538 C 0.59508 0.77344 0.32743 0.0
C2539 C 0.68323 0.77392 0.32675 0.0
H2540 H 0.1331 0.9979 0.3261 0.0
H2541 H 0.13361 0.03815 0.31794 0.0
H2542 H 0.28712 0.99807 0.32688 0.0
H2543 H 0.28702 0.03845 0.31914 0.0
H2544 H 0.56224 0.03217 0.30998 0.0
H2545 H 0.40905 0.03171 0.30945 0.0
H2546 H 0.40623 1.00513 0.33749 0.0
H2547 H 0.56072 1.00524 0.33775 0.0
C2548 C 0.16599 1.00681 0.32453 0.0
C2549 C 0.12079 0.01799 0.32188 0.0
C2550 C 0.25449 1.00693 0.32507 0.0
C2551 C 0.30009 0.01827 0.32307 0.0
C2552 C 0.25456 0.02947 0.32051 0.0
C2553 C 0.16624 0.02931 0.31987 0.0
C2554 C 0.52922 0.02625 0.31608 0.0
C2555 C 0.57412 0.01875 0.32393 0.0
C2556 C 0.44091 0.02604 0.31581 0.0
C2557 C 0.39461 0.01843 0.32345 0.0
C2558 C 0.43953 1.01098 0.33137 0.0
C2559 C 0.52823 1.01111 0.33157 0.0
H2560 H 0.3163 0.50221 0.55972 0.0
H2561 H 0.30887 0.5277 0.5885 0.0
H2562 H 0.16362 0.50332 0.55818 0.0
H2563 H 0.15481 0.52833 0.58736 0.0
H2564 H 0.88586 0.53696 0.57579 0.0
H2565 H 1.03978 0.53628 0.57707 0.0
H2566 H 1.0365 0.49688 0.56598 0.0
H2567 H 0.8838 0.49783 0.56415 0.0
C2568 C 0.28186 0.50788 0.56587 0.0
C2569 C 0.32499 0.51483 0.57426 0.0
C2570 C 0.19379 0.50848 0.56502 0.0
C2571 C 0.14586 0.5159 0.57265 0.0
C2572 C 0.18915 0.5227 0.58118 0.0
C2573 C 0.27763 0.52224 0.58193 0.0
C2574 C 0.9183 0.5282 0.57353 0.0
C2575 C 0.87253 0.51749 0.56978 0.0
C2576 C 1.00669 0.52775 0.57437 0.0
C2577 C 0.05148 0.51651 0.57166 0.0
C2578 C 1.00513 0.50581 0.56793 0.0
C2579 C 0.9171 0.50633 0.56691 0.0
H2580 H 0.45333 0.78017 0.55531 0.0
H2581 H 0.46216 0.75556 0.58466 0.0
H2582 H 0.29942 0.78074 0.55658 0.0
H2583 H 0.30918 0.75659 0.58629 0.0
H2584 H 1.02871 0.75059 0.58004 0.0
H2585 H 0.18192 0.74979 0.57856 0.0
H2586 H 0.18471 0.78895 0.56686 0.0
H2587 H 1.03074 0.78948 0.56783 0.0
C2588 C 0.42242 0.77491 0.56206 0.0
C2589 C 0.47014 0.76777 0.56984 0.0
C2590 C 0.33399 0.77533 0.56287 0.0
C2591 C 0.29102 0.76875 0.57158 0.0
C2592 C 0.33923 0.7616 0.57934 0.0
C2593 C 0.42739 0.76105 0.57843 0.0
C2594 C 0.06204 0.75907 0.57723 0.0
C2595 C 1.01733 0.77011 0.57407 0.0
C2596 C 0.1503 0.75863 0.57641 0.0
C2597 C 0.1966 0.7693 0.57256 0.0
C2598 C 0.15166 0.78044 0.56963 0.0
C2599 C 0.06319 0.78081 0.5703 0.0
H2600 H 0.89799 0.77906 0.71247 0.0
H2601 H 0.88979 0.75538 0.6825 0.0
H2602 H 0.05201 0.77952 0.71138 0.0
H2603 H 1.04294 0.75629 0.68107 0.0
H2604 H 0.32245 0.74964 0.68767 0.0
H2605 H 0.16903 0.74901 0.68894 0.0
H2606 H 0.16777 0.78791 0.70134 0.0
H2607 H 0.32177 0.78828 0.70054 0.0
C2608 C 0.92905 0.774 0.70562 0.0
C2609 C 0.88149 0.76713 0.69762 0.0
C2610 C 1.01753 0.77434 0.70492 0.0
C2611 C 0.0607 0.76797 0.69611 0.0
C2612 C 1.01265 0.76113 0.68811 0.0
C2613 C 0.92443 0.76065 0.6889 0.0
C2614 C 0.28942 0.75809 0.6906 0.0
C2615 C 0.33452 0.76901 0.69399 0.0
C2616 C 0.20107 0.75776 0.69129 0.0
C2617 C 0.15517 0.7684 0.69527 0.0
C2618 C 0.20053 0.77942 0.69845 0.0
C2619 C 0.28902 0.77969 0.6979 0.0
H2620 H 1.03284 0.53403 0.68739 0.0
H2621 H 1.03442 0.49514 0.69962 0.0
H2622 H 0.18598 0.53485 0.68888 0.0
H2623 H 0.18835 0.49569 0.70061 0.0
H2624 H 0.45634 0.50453 0.71221 0.0
H2625 H 0.30251 0.50394 0.71091 0.0
H2626 H 0.31362 0.52807 0.68118 0.0
H2627 H 0.46652 0.52912 0.68285 0.0
C2628 C 0.06607 0.52555 0.6902 0.0
C2629 C 1.02125 0.51451 0.69337 0.0
C2630 C 0.1543 0.526 0.69103 0.0
C2631 C 0.20044 0.51534 0.69489 0.0
C2632 C 0.15541 0.50419 0.69782 0.0
C2633 C 0.06697 0.50381 0.69715 0.0
C2634 C 0.42574 0.50978 0.70546 0.0
C2635 C 0.47381 0.51693 0.69768 0.0
C2636 C 0.33737 0.50935 0.70463 0.0
C2637 C 0.2948 0.51591 0.6959 0.0
C2638 C 0.34335 0.52307 0.68815 0.0
C2639 C 0.43147 0.52363 0.68907 0.0
H2640 H 0.779 0.50102 0.43816 0.0
H2641 H 0.77982 0.54023 0.4496 0.0
H2642 H 0.93218 0.50035 0.4396 0.0
H2643 H 0.9338 0.5398 0.45055 0.0
H2644 H 0.20241 0.53127 0.46223 0.0
H2645 H 0.04847 0.53179 0.461 0.0
H2646 H 0.05897 0.50717 0.43157 0.0
H2647 H 0.21191 0.50621 0.43316 0.0
C2648 C 0.81204 0.50959 0.44079 0.0
C2649 C 0.76702 0.52068 0.44375 0.0
C2650 C 0.90027 0.50923 0.44159 0.0
C2651 C 0.94618 0.52002 0.44521 0.0
C2652 C 0.90097 0.53121 0.44795 0.0
C2653 C 0.81252 0.5315 0.4473 0.0
C2654 C 0.17164 0.5259 0.45556 0.0
C2655 C 0.21951 0.51864 0.44785 0.0
C2656 C 0.08324 0.52629 0.45477 0.0
C2657 C 1.04052 0.51955 0.44616 0.0
C2658 C 0.08889 0.5123 0.43846 0.0
C2659 C 0.177 0.51178 0.43934 0.0
H2660 H 0.07119 0.28664 0.44065 0.0
H2661 H 0.07447 0.24618 0.44789 0.0
H2662 H 0.91705 0.28643 0.44118 0.0
H2663 H 0.9208 0.24584 0.44798 0.0
H2664 H 0.6491 0.25172 0.45959 0.0
H2665 H 0.80304 0.25209 0.45886 0.0
H2666 H 0.79339 0.2798 0.43172 0.0
H2667 H 0.63977 0.27978 0.43277 0.0
C2668 C 1.03905 0.27766 0.4422 0.0
C2669 C 0.08536 0.26644 0.44427 0.0
C2670 C 0.95043 0.27752 0.44247 0.0
C2671 C 0.90584 0.26612 0.44468 0.0
C2672 C 0.9525 0.25486 0.4465 0.0
C2673 C 1.04093 0.25503 0.44636 0.0
C2674 C 0.67985 0.25789 0.45347 0.0
C2675 C 0.6319 0.26573 0.44627 0.0
C2676 C 0.76835 0.25805 0.45299 0.0
C2677 C 0.8113 0.26597 0.44521 0.0
C2678 C 0.76303 0.27375 0.43796 0.0
C2679 C 0.67462 0.27367 0.43852 0.0
H2680 H 0.2207 0.28039 0.33377 0.0
H2681 H 0.21643 0.25179 0.30734 0.0
H2682 H 0.06793 0.2794 0.33518 0.0
H2683 H 0.0621 0.25111 0.30849 0.0
H2684 H 0.7912 0.24412 0.32117 0.0
H2685 H 0.94544 0.24442 0.32007 0.0
H2686 H 0.94357 0.28524 0.32565 0.0
H2687 H 0.79066 0.28487 0.32715 0.0
C2688 C 0.18714 0.27399 0.32813 0.0
C2689 C 0.23124 0.26621 0.32039 0.0
C2690 C 0.09902 0.27346 0.32892 0.0
C2691 C 0.05197 0.26521 0.32193 0.0
C2692 C 0.09603 0.25746 0.31413 0.0
C2693 C 0.1846 0.25792 0.31339 0.0
C2694 C 0.82381 0.25314 0.32227 0.0
C2695 C 0.77814 0.26445 0.32433 0.0
C2696 C 0.91239 0.25334 0.32152 0.0
C2697 C 0.95754 0.26486 0.32276 0.0
C2698 C 0.91158 0.27614 0.32486 0.0
C2699 C 0.82338 0.27593 0.32568 0.0
H2700 H 0.07024 0.53209 0.30944 0.0
H2701 H 0.06241 0.50666 0.33824 0.0
H2702 H 0.91738 0.53106 0.30794 0.0
H2703 H 0.90841 0.50611 0.33715 0.0
H2704 H 0.63942 0.49752 0.32579 0.0
H2705 H 0.79333 0.49817 0.32694 0.0
H2706 H 0.79022 0.53752 0.31573 0.0
H2707 H 0.63736 0.53659 0.31404 0.0
C2708 C 1.03568 0.52644 0.31559 0.0
C2709 C 0.0787 0.51948 0.32398 0.0
C2710 C 0.94754 0.52589 0.31477 0.0
C2711 C 0.89954 0.51851 0.32242 0.0
C2712 C 0.94278 0.51171 0.33095 0.0
C2713 C 1.03124 0.51212 0.33166 0.0
C2714 C 0.67187 0.50626 0.32348 0.0
C2715 C 0.62609 0.51697 0.31974 0.0
C2716 C 0.76028 0.5067 0.32424 0.0
C2717 C 0.80513 0.51792 0.32147 0.0
C2718 C 0.75879 0.52861 0.31773 0.0
C2719 C 0.67069 0.5281 0.31679 0.0
H2720 H 0.89067 1.00503 0.05568 0.0
H2721 H 0.8807 0.03016 0.08469 0.0
H2722 H 1.04438 1.00425 0.05711 0.0
H2723 H 1.0335 0.02893 0.0865 0.0
H2724 H 0.31468 0.03443 0.08046 0.0
H2725 H 0.16181 0.03537 0.07887 0.0
H2726 H 0.15801 0.99607 0.06751 0.0
H2727 H 0.312 0.99539 0.06859 0.0
C2728 C 0.92132 1.01037 0.06238 0.0
C2729 C 0.87335 0.01773 0.07001 0.0
C2730 C 1.00963 1.00983 0.06329 0.0
C2731 C 0.05226 1.01648 0.07196 0.0
C2732 C 1.00378 0.02385 0.07957 0.0
C2733 C 0.91573 0.02454 0.07856 0.0
C2734 C 0.28126 0.02594 0.07771 0.0
C2735 C 0.32577 1.01482 0.07468 0.0
C2736 C 0.19311 0.02646 0.07683 0.0
C2737 C 0.14658 1.01581 0.07304 0.0
C2738 C 0.19125 1.00457 0.07025 0.0
C2739 C 0.27971 1.00412 0.07098 0.0
H2740 H 1.03259 0.28335 0.06012 0.0
H2741 H 1.03926 0.25688 0.08818 0.0
H2742 H 0.18547 0.28229 0.05855 0.0
H2743 H 0.19324 0.25628 0.08702 0.0
H2744 H 0.4623 0.248 0.07535 0.0
H2745 H 0.30831 0.24865 0.07652 0.0
H2746 H 0.31252 0.28842 0.06653 0.0
H2747 H 0.46536 0.28751 0.0648 0.0
C2748 C 0.0669 0.27747 0.0661 0.0
C2749 C 1.02356 0.27023 0.0743 0.0
C2750 C 0.15504 0.27689 0.06523 0.0
C2751 C 0.20269 0.2692 0.07265 0.0
C2752 C 0.15913 0.26212 0.081 0.0
C2753 C 0.07068 0.26256 0.08175 0.0
C2754 C 0.43006 0.25684 0.0733 0.0
C2755 C 0.47614 0.26767 0.06989 0.0
C2756 C 0.34163 0.25727 0.07409 0.0
C2757 C 0.29708 0.26861 0.07166 0.0
C2758 C 0.34372 0.27942 0.06825 0.0
C2759 C 0.43182 0.27892 0.06729 0.0
H2760 H 0.88427 0.25334 0.18584 0.0
H2761 H 0.88743 0.28285 0.21147 0.0
H2762 H 1.03721 0.25422 0.18458 0.0
H2763 H 1.0418 0.28344 0.21048 0.0
H2764 H 0.3133 0.28991 0.19775 0.0
H2765 H 0.15903 0.28968 0.19875 0.0
H2766 H 0.16069 0.24865 0.19455 0.0
H2767 H 0.31371 0.24893 0.19318 0.0
C2768 C 0.91761 0.25993 0.19133 0.0
C2769 C 0.8732 0.26798 0.1988 0.0
C2770 C 1.00578 0.26039 0.19063 0.0
C2771 C 0.05247 0.26886 0.19746 0.0
C2772 C 1.0081 0.27691 0.20498 0.0
C2773 C 0.91951 0.2765 0.20563 0.0
C2774 C 0.28066 0.28085 0.19695 0.0
C2775 C 0.32627 0.26945 0.19531 0.0
C2776 C 0.19208 0.28071 0.19763 0.0
C2777 C 0.1469 0.26915 0.19673 0.0
C2778 C 0.19278 0.25777 0.19508 0.0
C2779 C 0.28101 0.25793 0.19433 0.0
H2780 H 0.46073 0.99684 0.204 0.0
H2781 H 0.45827 0.03629 0.19328 0.0
H2782 H 0.30812 0.99588 0.20216 0.0
H2783 H 0.3043 0.03558 0.192 0.0
H2784 H 1.03561 0.02719 0.18031 0.0
H2785 H 0.18958 0.02786 0.18151 0.0
H2786 H 0.18078 1.002 0.21009 0.0
H2787 H 1.02804 1.00087 0.20848 0.0
C2788 C 0.42736 1.00541 0.20144 0.0
C2789 C 0.47182 1.01666 0.19884 0.0
C2790 C 0.33935 1.00487 0.20042 0.0
C2791 C 0.29287 1.01566 0.19695 0.0
C2792 C 0.33752 0.027 0.1945 0.0
C2793 C 0.42593 0.02746 0.19535 0.0
C2794 C 0.06683 0.02155 0.18677 0.0
C2795 C 1.01946 1.01391 0.19424 0.0
C2796 C 0.15526 0.02203 0.18754 0.0
C2797 C 0.19852 1.01502 0.19593 0.0
C2798 C 0.15061 1.00735 0.20337 0.0
C2799 C 0.06253 1.00673 0.20248 0.0
H2800 H 0.78437 0.03294 0.95737 0.0
H2801 H 0.7921 1.00605 0.92961 0.0
H2802 H 0.93715 0.0319 0.95897 0.0
H2803 H 0.94605 1.00547 0.93079 0.0
H2804 H 0.21454 0.99734 0.94262 0.0
H2805 H 0.06061 0.99798 0.9414 0.0
H2806 H 0.06457 0.0379 0.95094 0.0
H2807 H 0.21732 0.037 0.95271 0.0
C2808 C 0.8189 0.02697 0.95145 0.0
C2809 C 0.77587 0.0196 0.94334 0.0
C2810 C 0.90699 0.0264 0.95234 0.0
C2811 C 0.95492 0.0186 0.94501 0.0
C2812 C 0.9117 1.0114 0.93675 0.0
C2813 C 0.82328 1.01182 0.93598 0.0
C2814 C 0.18226 1.0062 0.94456 0.0
C2815 C 0.22824 1.01708 0.94785 0.0
C2816 C 0.09387 1.00663 0.94375 0.0
C2817 C 0.04927 0.01801 0.94603 0.0
C2818 C 0.0958 0.02887 0.94933 0.0
C2819 C 0.18386 0.02838 0.95031 0.0
H2820 H 0.06561 0.78384 0.93854 0.0
H2821 H 0.06412 0.74475 0.95026 0.0
H2822 H 0.91233 0.78454 0.93997 0.0
H2823 H 0.91016 0.7452 0.9512 0.0
H2824 H 0.64115 0.75376 0.96279 0.0
H2825 H 0.79513 0.75326 0.96157 0.0
H2826 H 0.78553 0.7777 0.93204 0.0
H2827 H 0.63253 0.77864 0.93361 0.0
C2828 C 1.03241 0.7753 0.94123 0.0
C2829 C 0.07728 0.76423 0.94426 0.0
C2830 C 0.94412 0.77568 0.94202 0.0
C2831 C 0.898 0.76493 0.94572 0.0
C2832 C 0.94309 0.75377 0.94853 0.0
C2833 C 1.03156 0.75345 0.94789 0.0
C2834 C 0.67211 0.75909 0.95609 0.0
C2835 C 0.62443 0.76629 0.94834 0.0
C2836 C 0.76055 0.75872 0.95531 0.0
C2837 C 0.80357 0.76541 0.94667 0.0
C2838 C 0.75541 0.77261 0.93894 0.0
C2839 C 0.66724 0.7731 0.93981 0.0
H2840 H 0.20333 0.78602 0.82561 0.0
H2841 H 0.20548 0.74683 0.81416 0.0
H2842 H 0.04936 0.78538 0.82684 0.0
H2843 H 0.05265 0.74591 0.81594 0.0
H2844 H 0.77293 0.75123 0.8097 0.0
H2845 H 0.9257 0.75232 0.80812 0.0
H2846 H 0.93405 0.7775 0.83719 0.0
H2847 H 0.77999 0.77688 0.83837 0.0
C2848 C 0.17091 0.77726 0.82337 0.0
C2849 C 0.21674 0.76652 0.8197 0.0
C2850 C 0.08247 0.77683 0.82419 0.0
C2851 C 1.03765 0.76558 0.82153 0.0
C2852 C 0.08405 0.75485 0.81785 0.0
C2853 C 0.17215 0.75535 0.81686 0.0
C2854 C 0.8073 0.75694 0.81581 0.0
C2855 C 0.76406 0.76393 0.82419 0.0
C2856 C 0.89541 0.75753 0.81494 0.0
C2857 C 0.94323 0.76499 0.82253 0.0
C2858 C 0.89981 0.77183 0.83104 0.0
C2859 C 0.81132 0.77138 0.8318 0.0
H2860 H 0.6333 1.00332 0.83261 0.0
H2861 H 0.63746 0.03195 0.80623 0.0
H2862 H 0.78612 1.00436 0.83396 0.0
H2863 H 0.79172 0.03268 0.8073 0.0
H2864 H 0.06261 0.03971 0.81986 0.0
H2865 H 0.90832 0.03938 0.81883 0.0
H2866 H 0.9104 0.99855 0.8243 0.0
H2867 H 0.06323 0.99894 0.82573 0.0
C2868 C 0.66685 1.00974 0.82697 0.0
C2869 C 0.62274 0.01751 0.81926 0.0
C2870 C 0.75497 1.0103 0.82772 0.0
C2871 C 0.80194 0.01857 0.82071 0.0
C2872 C 0.75785 0.02632 0.81295 0.0
C2873 C 0.66931 0.02582 0.81226 0.0
C2874 C 1.03002 0.03068 0.82094 0.0
C2875 C 0.0757 0.01937 0.82296 0.0
C2876 C 0.94144 0.03047 0.82024 0.0
C2877 C 0.89635 0.01894 0.82148 0.0
C2878 C 0.94234 1.00766 0.82352 0.0
C2879 C 1.0305 1.00789 0.82429 0.0
H2880 H 0.94374 0.53144 0.03747 0.0
H2881 H 0.18299 0.51166 0.0375 0.0
H2882 H 0.93059 0.52783 0.01715 0.0
H2883 H 0.17274 0.5086 0.01703 0.0
H2884 H 0.09707 0.49441 0.98214 0.0
H2885 H 0.10723 0.49757 1.00251 0.0
H2886 H 0.97676 0.5337 0.99922 0.0
H2887 H 0.96283 0.53008 0.97884 0.0
C2888 C 0.99414 0.52639 0.03307 0.0
C2889 C 0.06452 0.52183 0.03908 0.0
C2890 C 0.98692 0.52441 0.02137 0.0
C2891 C 0.05069 0.51796 0.01527 0.0
C2892 C 0.12136 0.51341 0.02135 0.0
C2893 C 0.12785 0.51523 0.03312 0.0
C2894 C 0.07026 0.50301 0.98579 0.0
C2895 C 1.02878 0.51197 0.97889 0.0
C2896 C 0.07675 0.5049 0.99751 0.0
C2897 C 1.04319 0.51594 1.00268 0.0
C2898 C 1.00215 0.52496 0.99569 0.0
C2899 C 0.99452 0.52295 0.98396 0.0
H2900 H 0.40471 0.75602 0.98027 0.0
H2901 H 0.22475 0.78692 0.98227 0.0
H2902 H 0.38762 0.75216 1.00063 0.0
H2903 H 0.20637 0.78297 1.00251 0.0
H2904 H 0.25603 0.78072 0.04084 0.0
H2905 H 0.27608 0.78481 0.02058 0.0
H2906 H 0.28751 0.74415 0.01436 0.0
H2907 H 0.26915 0.74016 0.03461 0.0
C2908 C 0.3615 0.76198 0.98506 0.0
C2909 C 0.3164 0.77181 0.97966 0.0
C2910 C 0.35118 0.75973 0.99673 0.0
C2911 C 0.29558 0.76726 1.0033 0.0
C2912 C 0.25068 0.77709 0.99783 0.0
C2913 C 0.26084 0.77931 0.98618 0.0
C2914 C 0.26275 0.77268 0.03513 0.0
C2915 C 0.26107 0.76013 0.03933 0.0
C2916 C 0.27387 0.77501 0.02348 0.0
C2917 C 0.28374 0.76482 0.01575 0.0
C2918 C 0.28153 0.75226 0.02002 0.0
C2919 C 0.27027 0.74995 0.03164 0.0
H2920 H 1.00814 0.79423 0.28363 0.0
H2921 H 1.00665 0.75357 0.28963 0.0
H2922 H 1.02447 0.79049 0.26331 0.0
H2923 H 1.02502 0.74975 0.2693 0.0
H2924 H 0.97163 0.74711 0.2313 0.0
H2925 H 0.95306 0.75114 0.25149 0.0
H2926 H 0.12357 0.78331 0.24916 0.0
H2927 H 0.1408 0.77934 0.22881 0.0
C2928 C 1.01142 0.78447 0.2806 0.0
C2929 C 1.00596 0.77419 0.28825 0.0
C2930 C 1.02152 0.78231 0.26893 0.0
C2931 C 1.02644 0.76981 0.26457 0.0
C2932 C 1.02048 0.75952 0.27227 0.0
C2933 C 1.01033 0.76169 0.28395 0.0
C2934 C 1.00509 0.75507 0.23508 0.0
C2935 C 0.05792 0.76288 0.22843 0.0
C2936 C 0.99492 0.75733 0.24672 0.0
C2937 C 1.03713 0.76751 0.25207 0.0
C2938 C 0.08933 0.77544 0.24536 0.0
C2939 C 0.09965 0.77315 0.23369 0.0
H2940 H 0.15853 0.51115 0.23093 0.0
H2941 H 0.39653 0.53127 0.23058 0.0
H2942 H 0.17127 0.50804 0.25137 0.0
H2943 H 0.41229 0.52761 0.25084 0.0
H2944 H 0.38523 0.52957 0.2892 0.0
H2945 H 0.36862 0.53328 0.26888 0.0
H2946 H 0.23845 0.49708 0.26574 0.0
H2947 H 0.25118 0.49385 0.28607 0.0
C2948 C 0.21402 0.51479 0.23522 0.0
C2949 C 0.27627 0.52151 0.22916 0.0
C2950 C 0.22187 0.51294 0.24697 0.0
C2951 C 0.29299 0.51756 0.25293 0.0
C2952 C 0.35566 0.52413 0.24673 0.0
C2953 C 0.34706 0.52615 0.23504 0.0
C2954 C 0.35306 0.52244 0.28413 0.0
C2955 C 0.31961 0.51142 0.28924 0.0
C2956 C 0.34387 0.5245 0.27243 0.0
C2957 C 0.3021 0.51549 0.26549 0.0
C2958 C 0.26942 0.50441 0.2707 0.0
C2959 C 0.27741 0.50247 0.2824 0.0
H2960 H 0.93643 0.26159 0.9804 0.0
H2961 H 0.69811 0.28158 0.98032 0.0
H2962 H 0.926 0.25891 1.00091 0.0
H2963 H 0.68459 0.27834 1.00069 0.0
H2964 H 0.71453 0.28076 0.03908 0.0
H2965 H 0.72841 0.28417 0.01865 0.0
H2966 H 0.86182 0.24824 0.01562 0.0
H2967 H 0.85178 0.24532 0.03601 0.0
C2968 C 0.88131 0.26529 0.98477 0.0
C2969 C 0.81832 0.27184 0.97874 0.0
C2970 C 0.87477 0.26369 0.99657 0.0
C2971 C 0.80421 0.26838 1.00265 0.0
C2972 C 0.74082 0.2748 0.99649 0.0
C2973 C 0.74813 0.27658 0.98474 0.0
C2974 C 0.74685 0.27363 0.03401 0.0
C2975 C 0.782 0.26278 0.03918 0.0
C2976 C 0.75448 0.27552 0.02224 0.0
C2977 C 0.79644 0.2665 0.01529 0.0
C2978 C 0.83073 0.25559 0.02056 0.0
C2979 C 0.82427 0.25383 0.03231 0.0
H2980 H 0.08501 0.29079 0.78471 0.0
H2981 H 0.96107 0.25425 0.78782 0.0
H2982 H 0.09424 0.28803 0.76427 0.0
H2983 H 0.97465 0.251 0.7674 0.0
H2984 H 0.94184 0.25247 0.72938 0.0
H2985 H 0.92756 0.25619 0.74965 0.0
H2986 H 0.15914 0.27823 0.74919 0.0
H2987 H 0.16973 0.27507 0.72871 0.0
C2988 C 0.0603 0.28208 0.781 0.0
C2989 C 1.02185 0.27277 0.78789 0.0
C2990 C 0.06629 0.28042 0.76923 0.0
C2991 C 1.03545 0.26926 0.76396 0.0
C2992 C 0.99766 0.25987 0.77096 0.0
C2993 C 0.99029 0.26167 0.78273 0.0
C2994 C 0.98938 0.25819 0.73362 0.0
C2995 C 0.05697 0.26346 0.72744 0.0
C2996 C 0.98177 0.26023 0.74533 0.0
C2997 C 1.04253 0.26743 0.7513 0.0
C2998 C 0.11003 0.27279 0.74501 0.0
C2999 C 0.11665 0.27094 0.73323 0.0
H3000 H 0.74983 0.49476 0.78572 0.0
H3001 H 0.88238 0.53057 0.7892 0.0
H3002 H 0.73929 0.49803 0.76538 0.0
H3003 H 0.8678 0.53433 0.76885 0.0
H3004 H 0.89875 0.53245 0.73051 0.0
H3005 H 0.91281 0.52886 0.75082 0.0
H3006 H 0.67316 0.5089 0.75095 0.0
H3007 H 0.66231 0.51192 0.7305 0.0
C3008 C 0.77615 0.50342 0.78212 0.0
C3009 C 0.81726 0.51238 0.78907 0.0
C3010 C 0.7694 0.50538 0.77041 0.0
C3011 C 0.8022 0.5165 0.76529 0.0
C3012 C 0.84296 0.52552 0.77233 0.0
C3013 C 0.85095 0.52344 0.78404 0.0
C3014 C 0.84925 0.52726 0.73491 0.0
C3015 C 0.77945 0.52247 0.72891 0.0
C3016 C 0.85686 0.52528 0.74661 0.0
C3017 C 0.79411 0.51861 0.75272 0.0
C3018 C 0.72388 0.51387 0.74664 0.0
C3019 C 0.71709 0.51568 0.73488 0.0
H3020 H 1.00282 0.04077 0.53473 0.0
H3021 H 0.12141 1.00387 0.53801 0.0
H3022 H 0.99511 0.03804 0.51432 0.0
H3023 H 0.10895 1.00062 0.51757 0.0
H3024 H 0.14212 1.00201 0.47944 0.0
H3025 H 0.15661 1.00555 0.49973 0.0
H3026 H 0.92876 0.02844 0.49941 0.0
H3027 H 0.91829 0.02549 0.47895 0.0
C3028 C 1.02662 0.03198 0.53107 0.0
C3029 C 0.06302 0.02255 0.53799 0.0
C3030 C 1.02145 0.03034 0.5193 0.0
C3031 C 0.05084 0.01906 0.51408 0.0
C3032 C 0.08696 1.00957 0.5211 0.0
C3033 C 0.09369 1.01136 0.53288 0.0
C3034 C 0.09553 1.00788 0.48372 0.0
C3035 C 1.02909 1.01347 0.47759 0.0
C3036 C 0.10324 1.00982 0.49544 0.0
C3037 C 1.04365 1.01723 0.50144 0.0
C3038 C 0.97713 0.02286 0.49521 0.0
C3039 C 0.97052 0.02112 0.48343 0.0
H3040 H 0.40168 0.2559 0.47961 0.0
H3041 H 0.22606 0.28735 0.48181 0.0
H3042 H 0.38473 0.25203 0.49997 0.0
H3043 H 0.20768 0.28339 0.50204 0.0
H3044 H 0.25829 0.28109 0.54034 0.0
H3045 H 0.2776 0.2851 0.52003 0.0
H3046 H 0.28636 0.2444 0.51392 0.0
H3047 H 0.26913 0.2405 0.53417 0.0
C3048 C 0.35915 0.26194 0.48443 0.0
C3049 C 0.31549 0.27196 0.47909 0.0
C3050 C 0.34901 0.2597 0.49611 0.0
C3051 C 0.29496 0.26742 0.50275 0.0
C3052 C 0.25094 0.27737 0.49732 0.0
C3053 C 0.26099 0.27958 0.48567 0.0
C3054 C 0.26452 0.27303 0.53464 0.0
C3055 C 0.26243 0.26049 0.53888 0.0
C3056 C 0.27509 0.2753 0.52297 0.0
C3057 C 0.28388 0.26508 0.51524 0.0
C3058 C 0.2813 0.25254 0.51955 0.0
C3059 C 0.2707 0.25029 0.53119 0.0
H3060 H 0.37241 0.02976 0.78917 0.0
H3061 H 0.30228 0.99032 0.78431 0.0
H3062 H 0.35229 0.03374 0.76894 0.0
H3063 H 0.27725 0.99432 0.76429 0.0
H3064 H 0.30539 1.0022 0.72643 0.0
H3065 H 0.33227 0.99793 0.74648 0.0
H3066 H 0.255 0.03651 0.75471 0.0
H3067 H 0.23332 0.04083 0.73468 0.0
C3068 C 0.35213 0.02196 0.78377 0.0
C3069 C 0.3391 1.00973 0.78834 0.0
C3070 C 0.33973 0.02424 0.77215 0.0
C3071 C 0.31248 1.01438 0.7648 0.0
C3072 C 0.29966 1.00214 0.76948 0.0
C3073 C 0.31342 0.99985 0.78104 0.0
C3074 C 0.29393 1.0097 0.73257 0.0
C3075 C 0.26726 0.02184 0.72898 0.0
C3076 C 0.30901 1.00728 0.74412 0.0
C3077 C 0.29643 1.01687 0.7524 0.0
C3078 C 0.26778 0.02892 0.7487 0.0
C3079 C 0.25426 0.03138 0.73718 0.0
H3080 H 0.75538 0.78935 0.48145 0.0
H3081 H 0.88328 0.75314 0.47818 0.0
H3082 H 0.74062 0.78604 0.50172 0.0
H3083 H 0.86456 0.74937 0.49851 0.0
H3084 H 0.66118 0.77295 0.53678 0.0
H3085 H 0.67253 0.77556 0.51626 0.0
H3086 H 0.90916 0.75484 0.51655 0.0
H3087 H 0.89471 0.75171 0.53692 0.0
C3088 C 0.77955 0.78057 0.48507 0.0
C3089 C 0.82084 0.77153 0.47819 0.0
C3090 C 0.7704 0.7786 0.49675 0.0
C3091 C 0.80103 0.7674 0.50195 0.0
C3092 C 0.84135 0.75824 0.49497 0.0
C3093 C 0.85164 0.76033 0.48327 0.0
C3094 C 0.71541 0.76894 0.53242 0.0
C3095 C 0.77686 0.76209 0.53848 0.0
C3096 C 0.72247 0.7705 0.52062 0.0
C3097 C 0.79202 0.76544 0.51456 0.0
C3098 C 0.85371 0.75868 0.52074 0.0
C3099 C 0.84589 0.75696 0.53249 0.0
H3100 H 0.66344 1.01017 0.23098 0.0
H3101 H 0.89629 0.03162 0.23143 0.0
H3102 H 0.67292 1.0072 0.25148 0.0
H3103 H 0.90856 0.02819 0.25178 0.0
H3104 H 0.87457 0.02973 0.2901 0.0
H3105 H 0.85902 0.0336 0.26976 0.0
H3106 H 0.7419 0.99649 0.26596 0.0
H3107 H 0.75378 0.99303 0.28626 0.0
C3108 C 0.71708 1.01416 0.23546 0.0
C3109 C 0.7789 0.02117 0.22959 0.0
C3110 C 0.72302 1.01239 0.24724 0.0
C3111 C 0.79166 0.01744 0.25345 0.0
C3112 C 0.8538 0.02436 0.24746 0.0
C3113 C 0.84721 0.02625 0.23572 0.0
C3114 C 0.84522 0.02246 0.28489 0.0
C3115 C 0.81544 1.01109 0.2898 0.0
C3116 C 0.83674 0.0246 0.27318 0.0
C3117 C 0.79916 1.01536 0.26604 0.0
C3118 C 0.76964 1.00398 0.27107 0.0
C3119 C 0.77714 1.00193 0.28276 0.0
H3120 H 0.68146 0.51228 0.53745 0.0
H3121 H 0.44432 0.5326 0.53774 0.0
H3122 H 0.66934 0.50927 0.517 0.0
H3123 H 0.42919 0.52905 0.51744 0.0
H3124 H 0.45863 0.5311 0.47906 0.0
H3125 H 0.47414 0.53474 0.49942 0.0
H3126 H 0.60178 0.49836 0.50261 0.0
H3127 H 0.59012 0.49519 0.48226 0.0
C3128 C 0.62629 0.51599 0.53314 0.0
C3129 C 0.56409 0.52272 0.53919 0.0
C3130 C 0.61879 0.5142 0.52139 0.0
C3131 C 0.54808 0.5189 0.5154 0.0
C3132 C 0.48548 0.52551 0.52158 0.0
C3133 C 0.49372 0.52746 0.53328 0.0
C3134 C 0.49 0.52392 0.48415 0.0
C3135 C 0.52311 0.51287 0.47905 0.0
C3136 C 0.49855 0.52594 0.49587 0.0
C3137 C 0.53937 0.51686 0.50283 0.0
C3138 C 0.57159 0.50574 0.49763 0.0
C3139 C 0.56421 0.50384 0.48592 0.0
H3140 H 0.64688 0.78122 0.78779 0.0
H3141 H 0.41073 0.76062 0.78743 0.0
H3142 H 0.66428 0.77742 0.76756 0.0
H3143 H 0.4251 0.75735 0.76701 0.0
H3144 H 0.50759 0.74325 0.73225 0.0
H3145 H 0.49321 0.74653 0.7526 0.0
H3146 H 0.62193 0.78285 0.74948 0.0
H3147 H 0.64008 0.77911 0.72918 0.0
C3148 C 0.59814 0.77596 0.78333 0.0
C3149 C 0.52737 0.77124 0.78921 0.0
C3150 C 0.60768 0.77386 0.77166 0.0
C3151 C 0.54602 0.76712 0.76544 0.0
C3152 C 0.47497 0.7624 0.77141 0.0
C3153 C 0.46617 0.76434 0.78314 0.0
C3154 C 0.53318 0.75191 0.73594 0.0
C3155 C 0.57544 0.76089 0.72911 0.0
C3156 C 0.52424 0.75387 0.74765 0.0
C3157 C 0.55606 0.765 0.75287 0.0
C3158 C 0.59786 0.77403 0.74593 0.0
C3159 C 0.60795 0.77195 0.73424 0.0
H3160 H 0.48262 0.25397 0.2904 0.0
H3161 H 0.55968 0.29309 0.28538 0.0
H3162 H 0.5047 0.24969 0.27024 0.0
H3163 H 0.58658 0.28878 0.26544 0.0
H3164 H 0.55764 0.28099 0.2277 0.0
H3165 H 0.53138 0.28533 0.24772 0.0
H3166 H 0.60107 0.24642 0.25585 0.0
H3167 H 0.62215 0.24204 0.23576 0.0
C3168 C 0.50493 0.26163 0.28498 0.0
C3169 C 0.51915 0.27387 0.28947 0.0
C3170 C 0.51843 0.25918 0.27339 0.0
C3171 C 0.54788 0.26886 0.26601 0.0
C3172 C 0.56232 0.28109 0.27064 0.0
C3173 C 0.54748 0.28357 0.28216 0.0
C3174 C 0.5676 0.27341 0.2338 0.0
C3175 C 0.592 0.26119 0.23014 0.0
C3176 C 0.55295 0.27588 0.24535 0.0
C3177 C 0.56373 0.26624 0.25361 0.0
C3178 C 0.58995 0.25407 0.24986 0.0
C3179 C 0.6031 0.25156 0.23831 0.0
H3180 H 0.68524 1.01198 0.03729 0.0
H3181 H 0.44635 0.03182 0.03714 0.0
H3182 H 0.67584 1.00905 0.0168 0.0
H3183 H 0.4339 0.02834 0.0168 0.0
H3184 H 0.46574 0.03039 0.97844 0.0
H3185 H 0.47895 0.03405 0.99883 0.0
H3186 H 0.61209 0.99815 1.00218 0.0
H3187 H 0.60272 0.99497 0.98182 0.0
C3188 C 0.63023 1.0156 0.03287 0.0
C3189 C 0.56676 0.02217 0.03883 0.0
C3190 C 0.6243 1.01385 0.02109 0.0
C3191 C 0.5539 0.01844 0.01495 0.0
C3192 C 0.49003 0.02488 0.02104 0.0
C3193 C 0.49672 0.02679 0.03277 0.0
C3194 C 0.49788 0.02332 0.98357 0.0
C3195 C 0.53314 1.0124 0.97851 0.0
C3196 C 0.50511 0.02535 0.99532 0.0
C3197 C 0.54675 1.01641 1.00234 0.0
C3198 C 0.58121 1.00544 0.99717 0.0
C3199 C 0.57515 1.00353 0.98544 0.0
loop_
_geom_bond_atom_site_label_1
_geom_bond_atom_site_label_2
_geom_bond_distance
_geom_bond_site_symmetry_2
_ccdc_geom_bond_type
Nd0 C2 2.836 1_455 S
Nd0 O20 2.500 1_455 S
Nd0 O21 2.491 1_455 S
Nd0 O22 2.487 . S
Nd0 O23 2.682 . S
Nd0 O24 2.410 1_455 S
Nd0 O29 2.414 . S
Nd0 O31 2.424 . S
Nd1 C11 2.836 . S
Nd1 O23 2.414 . S
Nd1 O25 2.424 1_455 S
Nd1 O26 2.500 . S
Nd1 O27 2.492 . S
Nd1 O28 2.487 . S
Nd1 O29 2.682 . S
Nd1 O30 2.410 . S
C2 Nd0 2.836 1_655 S
C2 C3 1.498 . S
C2 O20 1.258 . S
C2 O21 1.240 . S
C3 C2 1.498 . S
C3 C4 1.366 . S
C3 C8 1.407 . S
C4 C3 1.366 . S
C4 C5 1.392 . S
C4 H32 0.930 . S
C5 C4 1.392 . S
C5 C6 1.398 . S
C5 H33 0.929 . S
C6 C5 1.398 . S
C6 C7 1.352 . S
C7 C6 1.352 . S
C7 C8 1.384 . S
C7 H34 0.930 . S
C8 C3 1.407 . S
C8 C7 1.384 . S
C8 H35 0.929 . S
C9 O22 1.241 . S
C9 O23 1.273 . S
C10 O24 1.251 . S
C10 O25 1.268 . S
C11 Nd1 2.836 . S
C11 C12 1.498 . S
C11 O26 1.258 . S
C11 O27 1.239 . S
C12 C11 1.498 . S
C12 C13 1.366 . S
C12 C17 1.407 . S
C13 C12 1.366 . S
C13 C14 1.392 . S
C13 H36 0.930 . S
C14 C13 1.392 . S
C14 C15 1.398 . S
C14 H37 0.929 . S
C15 C14 1.398 . S
C15 C16 1.352 . S
C16 C15 1.352 . S
C16 C17 1.384 . S
C16 H38 0.930 . S
C17 C12 1.407 . S
C17 C16 1.384 . S
C17 H39 0.929 . S
C18 O28 1.241 . S
C18 O29 1.273 . S
C19 O30 1.251 . S
C19 O31 1.268 . S
O20 Nd0 2.500 1_655 S
O20 C2 1.258 . S
O21 Nd0 2.491 1_655 S
O21 C2 1.240 . S
O22 Nd0 2.487 . S
O22 C9 1.241 . S
O23 Nd0 2.682 . S
O23 Nd1 2.414 . S
O23 C9 1.273 . S
O24 Nd0 2.410 1_655 S
O24 C10 1.251 . S
O25 Nd1 2.424 1_655 S
O25 C10 1.268 . S
O26 Nd1 2.500 . S
O26 C11 1.258 . S
O27 Nd1 2.492 . S
O27 C11 1.239 . S
O28 Nd1 2.487 . S
O28 C18 1.241 . S
O29 Nd0 2.414 . S
O29 Nd1 2.682 . S
O29 C18 1.273 . S
O30 Nd1 2.410 . S
O30 C19 1.251 . S
O31 Nd0 2.424 . S
O31 C19 1.268 . S
H32 C4 0.930 . S
H33 C5 0.929 . S
H34 C7 0.930 . S
H35 C8 0.929 . S
H36 C13 0.930 . S
H37 C14 0.929 . S
H38 C16 0.930 . S
H39 C17 0.929 . S
Nd40 C42 2.836 . S
Nd40 O60 2.500 . S
Nd40 O61 2.492 . S
Nd40 O62 2.487 . S
Nd40 O63 2.682 . S
Nd40 O64 2.410 . S
Nd40 O69 2.414 . S
Nd40 O71 2.424 . S
Nd41 C51 2.836 . S
Nd41 O63 2.414 . S
Nd41 O65 2.424 . S
Nd41 O66 2.500 . S
Nd41 O67 2.492 . S
Nd41 O68 2.487 . S
Nd41 O69 2.682 . S
Nd41 O70 2.410 . S
C42 Nd40 2.836 . S
C42 C43 1.498 . S
C42 O60 1.258 . S
C42 O61 1.239 . S
C43 C42 1.498 . S
C43 C44 1.366 . S
C43 C48 1.407 . S
C44 C43 1.366 . S
C44 C45 1.392 . S
C44 H72 0.930 . S
C45 C44 1.392 . S
C45 C46 1.398 . S
C45 H73 0.929 . S
C46 C45 1.398 . S
C46 C47 1.352 . S
C47 C46 1.352 . S
C47 C48 1.384 . S
C47 H74 0.930 . S
C48 C43 1.407 . S
C48 C47 1.384 . S
C48 H75 0.929 . S
C49 O62 1.241 . S
C49 O63 1.273 . S
C50 O64 1.251 . S
C50 O65 1.268 . S
C51 Nd41 2.836 . S
C51 C52 1.498 . S
C51 O66 1.258 . S
C51 O67 1.239 . S
C52 C51 1.498 . S
C52 C53 1.366 . S
C52 C57 1.407 . S
C53 C52 1.366 . S
C53 C54 1.392 . S
C53 H76 0.930 . S
C54 C53 1.392 . S
C54 C55 1.398 . S
C54 H77 0.929 1_455 S
C55 C54 1.398 . S
C55 C56 1.352 . S
C56 C55 1.352 . S
C56 C57 1.384 . S
C56 H78 0.930 . S
C57 C52 1.407 . S
C57 C56 1.384 . S
C57 H79 0.929 . S
C58 O68 1.241 . S
C58 O69 1.273 . S
C59 O70 1.251 . S
C59 O71 1.268 . S
O60 Nd40 2.500 . S
O60 C42 1.258 . S
O61 Nd40 2.492 . S
O61 C42 1.239 . S
O62 Nd40 2.487 . S
O62 C49 1.241 . S
O63 Nd40 2.682 . S
O63 Nd41 2.414 . S
O63 C49 1.273 . S
O64 Nd40 2.410 . S
O64 C50 1.251 . S
O65 Nd41 2.424 . S
O65 C50 1.268 . S
O66 Nd41 2.500 . S
O66 C51 1.258 . S
O67 Nd41 2.492 . S
O67 C51 1.239 . S
O68 Nd41 2.487 . S
O68 C58 1.241 . S
O69 Nd40 2.414 . S
O69 Nd41 2.682 . S
O69 C58 1.273 . S
O70 Nd41 2.410 . S
O70 C59 1.251 . S
O71 Nd40 2.424 . S
O71 C59 1.268 . S
H72 C44 0.930 . S
H73 C45 0.929 . S
H74 C47 0.930 . S
H75 C48 0.929 . S
H76 C53 0.930 . S
H77 C54 0.929 1_655 S
H78 C56 0.930 . S
H79 C57 0.929 . S
Nd80 C82 2.836 1_455 S
Nd80 O100 2.500 1_455 S
Nd80 O101 2.489 1_455 S
Nd80 O102 2.487 . S
Nd80 O103 2.682 . S
Nd80 O104 2.410 1_455 S
Nd80 O109 2.414 . S
Nd80 O111 2.424 . S
Nd81 C91 2.836 . S
Nd81 O103 2.414 . S
Nd81 O105 2.424 1_455 S
Nd81 O106 2.500 . S
Nd81 O107 2.492 . S
Nd81 O108 2.487 . S
Nd81 O109 2.682 . S
Nd81 O110 2.410 . S
C82 Nd80 2.836 1_655 S
C82 C83 1.498 . S
C82 O100 1.258 . S
C82 O101 1.242 . S
C83 C82 1.498 . S
C83 C84 1.366 . S
C83 C88 1.407 . S
C84 C83 1.366 . S
C84 C85 1.392 . S
C84 H112 0.930 . S
C85 C84 1.392 . S
C85 C86 1.398 . S
C85 H113 0.929 . S
C86 C85 1.398 . S
C86 C87 1.352 . S
C87 C86 1.352 . S
C87 C88 1.384 . S
C87 H114 0.930 . S
C88 C83 1.407 . S
C88 C87 1.384 . S
C88 H115 0.929 . S
C89 O102 1.241 . S
C89 O103 1.273 . S
C90 O104 1.251 . S
C90 O105 1.268 . S
C91 Nd81 2.836 . S
C91 C92 1.498 . S
C91 O106 1.258 . S
C91 O107 1.239 . S
C92 C91 1.498 . S
C92 C93 1.366 . S
C92 C97 1.407 . S
C93 C92 1.366 . S
C93 C94 1.392 . S
C93 H116 0.930 . S
C94 C93 1.392 . S
C94 C95 1.398 . S
C94 H117 0.929 . S
C95 C94 1.398 . S
C95 C96 1.352 . S
C96 C95 1.352 . S
C96 C97 1.384 . S
C96 H118 0.930 . S
C97 C92 1.407 . S
C97 C96 1.384 . S
C97 H119 0.929 . S
C98 O108 1.241 . S
C98 O109 1.273 . S
C99 O110 1.251 . S
C99 O111 1.268 . S
O100 Nd80 2.500 1_655 S
O100 C82 1.258 . S
O101 Nd80 2.489 1_655 S
O101 C82 1.242 . S
O102 Nd80 2.487 . S
O102 C89 1.241 . S
O103 Nd80 2.682 . S
O103 Nd81 2.414 . S
O103 C89 1.273 . S
O104 Nd80 2.410 1_655 S
O104 C90 1.251 . S
O105 Nd81 2.424 1_655 S
O105 C90 1.268 . S
O106 Nd81 2.500 . S
O106 C91 1.258 . S
O107 Nd81 2.492 . S
O107 C91 1.239 . S
O108 Nd81 2.487 . S
O108 C98 1.241 . S
O109 Nd80 2.414 . S
O109 Nd81 2.682 . S
O109 C98 1.273 . S
O110 Nd81 2.410 . S
O110 C99 1.251 . S
O111 Nd80 2.424 . S
O111 C99 1.268 . S
H112 C84 0.930 . S
H113 C85 0.929 . S
H114 C87 0.930 . S
H115 C88 0.929 . S
H116 C93 0.930 . S
H117 C94 0.929 . S
H118 C96 0.930 . S
H119 C97 0.929 . S
Nd120 C122 2.836 . S
Nd120 O140 2.500 . S
Nd120 O141 2.492 . S
Nd120 O142 2.487 . S
Nd120 O143 2.682 . S
Nd120 O144 2.410 . S
Nd120 O149 2.414 . S
Nd120 O151 2.424 . S
Nd121 C131 2.836 . S
Nd121 O143 2.414 . S
Nd121 O145 2.424 . S
Nd121 O146 2.500 . S
Nd121 O147 2.492 . S
Nd121 O148 2.487 . S
Nd121 O149 2.682 . S
Nd121 O150 2.410 . S
C122 Nd120 2.836 . S
C122 C123 1.498 . S
C122 O140 1.258 . S
C122 O141 1.239 . S
C123 C122 1.498 . S
C123 C124 1.366 . S
C123 C128 1.407 . S
C124 C123 1.366 . S
C124 C125 1.392 . S
C124 H152 0.930 . S
C125 C124 1.392 . S
C125 C126 1.398 . S
C125 H153 0.929 . S
C126 C125 1.398 . S
C126 C127 1.352 . S
C127 C126 1.352 . S
C127 C128 1.384 . S
C127 H154 0.930 . S
C128 C123 1.407 . S
C128 C127 1.384 . S
C128 H155 0.929 . S
C129 O142 1.241 . S
C129 O143 1.273 . S
C130 O144 1.251 . S
C130 O145 1.268 . S
C131 Nd121 2.836 . S
C131 C132 1.498 . S
C131 O146 1.258 . S
C131 O147 1.239 . S
C132 C131 1.498 . S
C132 C133 1.366 . S
C132 C137 1.407 . S
C133 C132 1.366 . S
C133 C134 1.392 . S
C133 H156 0.930 . S
C134 C133 1.392 . S
C134 C135 1.398 . S
C134 H157 0.929 1_455 S
C135 C134 1.398 . S
C135 C136 1.352 . S
C136 C135 1.352 . S
C136 C137 1.384 . S
C136 H158 0.930 . S
C137 C132 1.407 . S
C137 C136 1.384 . S
C137 H159 0.929 . S
C138 O148 1.241 . S
C138 O149 1.273 . S
C139 O150 1.251 . S
C139 O151 1.268 . S
O140 Nd120 2.500 . S
O140 C122 1.258 . S
O141 Nd120 2.492 . S
O141 C122 1.239 . S
O142 Nd120 2.487 . S
O142 C129 1.241 . S
O143 Nd120 2.682 . S
O143 Nd121 2.414 . S
O143 C129 1.273 . S
O144 Nd120 2.410 . S
O144 C130 1.251 . S
O145 Nd121 2.424 . S
O145 C130 1.268 . S
O146 Nd121 2.500 . S
O146 C131 1.258 . S
O147 Nd121 2.492 . S
O147 C131 1.239 . S
O148 Nd121 2.487 . S
O148 C138 1.241 . S
O149 Nd120 2.414 . S
O149 Nd121 2.682 . S
O149 C138 1.273 . S
O150 Nd121 2.410 . S
O150 C139 1.251 . S
O151 Nd120 2.424 . S
O151 C139 1.268 . S
H152 C124 0.930 . S
H153 C125 0.929 . S
H154 C127 0.930 . S
H155 C128 0.929 . S
H156 C133 0.930 . S
H157 C134 0.929 1_655 S
H158 C136 0.930 . S
H159 C137 0.929 . S
Nd160 C162 2.836 . S
Nd160 O180 2.500 . S
Nd160 O181 2.492 . S
Nd160 O182 2.487 . S
Nd160 O183 2.682 . S
Nd160 O184 2.410 . S
Nd160 O189 2.414 . S
Nd160 O191 2.424 1_655 S
Nd161 C171 2.836 1_655 S
Nd161 O183 2.414 . S
Nd161 O185 2.424 . S
Nd161 O186 2.500 1_655 S
Nd161 O187 2.491 1_655 S
Nd161 O188 2.487 . S
Nd161 O189 2.682 . S
Nd161 O190 2.410 1_655 S
C162 Nd160 2.836 . S
C162 C163 1.498 . S
C162 O180 1.258 . S
C162 O181 1.239 . S
C163 C162 1.498 . S
C163 C164 1.366 . S
C163 C168 1.407 . S
C164 C163 1.366 . S
C164 C165 1.392 . S
C164 H192 0.930 . S
C165 C164 1.392 . S
C165 C166 1.398 . S
C165 H193 0.929 . S
C166 C165 1.398 . S
C166 C167 1.352 . S
C167 C166 1.352 . S
C167 C168 1.384 . S
C167 H194 0.930 . S
C168 C163 1.407 . S
C168 C167 1.384 . S
C168 H195 0.929 . S
C169 O182 1.241 . S
C169 O183 1.273 . S
C170 O184 1.251 . S
C170 O185 1.268 . S
C171 Nd161 2.836 1_455 S
C171 C172 1.498 . S
C171 O186 1.258 . S
C171 O187 1.240 . S
C172 C171 1.498 . S
C172 C173 1.366 . S
C172 C177 1.407 . S
C173 C172 1.366 . S
C173 C174 1.392 . S
C173 H196 0.930 . S
C174 C173 1.392 . S
C174 C175 1.398 . S
C174 H197 0.929 . S
C175 C174 1.398 . S
C175 C176 1.352 . S
C176 C175 1.352 . S
C176 C177 1.384 . S
C176 H198 0.930 . S
C177 C172 1.407 . S
C177 C176 1.384 . S
C177 H199 0.929 . S
C178 O188 1.241 . S
C178 O189 1.273 . S
C179 O190 1.251 . S
C179 O191 1.268 . S
O180 Nd160 2.500 . S
O180 C162 1.258 . S
O181 Nd160 2.492 . S
O181 C162 1.239 . S
O182 Nd160 2.487 . S
O182 C169 1.241 . S
O183 Nd160 2.682 . S
O183 Nd161 2.414 . S
O183 C169 1.273 . S
O184 Nd160 2.410 . S
O184 C170 1.251 . S
O185 Nd161 2.424 . S
O185 C170 1.268 . S
O186 Nd161 2.500 1_455 S
O186 C171 1.258 . S
O187 Nd161 2.491 1_455 S
O187 C171 1.240 . S
O188 Nd161 2.487 . S
O188 C178 1.241 . S
O189 Nd160 2.414 . S
O189 Nd161 2.682 . S
O189 C178 1.273 . S
O190 Nd161 2.410 1_455 S
O190 C179 1.251 . S
O191 Nd160 2.424 1_455 S
O191 C179 1.268 . S
H192 C164 0.930 . S
H193 C165 0.929 . S
H194 C167 0.930 . S
H195 C168 0.929 . S
H196 C173 0.930 . S
H197 C174 0.929 . S
H198 C176 0.930 . S
H199 C177 0.929 . S
Nd200 C202 2.836 . S
Nd200 O220 2.500 . S
Nd200 O221 2.492 . S
Nd200 O222 2.487 . S
Nd200 O223 2.682 . S
Nd200 O224 2.410 . S
Nd200 O229 2.414 . S
Nd200 O231 2.424 . S
Nd201 C211 2.836 . S
Nd201 O223 2.414 . S
Nd201 O225 2.424 . S
Nd201 O226 2.500 . S
Nd201 O227 2.492 . S
Nd201 O228 2.487 . S
Nd201 O229 2.682 . S
Nd201 O230 2.410 . S
C202 Nd200 2.836 . S
C202 C203 1.498 . S
C202 O220 1.258 . S
C202 O221 1.239 . S
C203 C202 1.498 . S
C203 C204 1.366 . S
C203 C208 1.407 . S
C204 C203 1.366 . S
C204 C205 1.392 . S
C204 H232 0.930 . S
C205 C204 1.392 . S
C205 C206 1.398 . S
C205 H233 0.929 1_655 S
C206 C205 1.398 . S
C206 C207 1.352 . S
C207 C206 1.352 . S
C207 C208 1.384 . S
C207 H234 0.930 . S
C208 C203 1.407 . S
C208 C207 1.384 . S
C208 H235 0.929 . S
C209 O222 1.241 . S
C209 O223 1.273 . S
C210 O224 1.251 . S
C210 O225 1.268 . S
C211 Nd201 2.836 . S
C211 C212 1.498 . S
C211 O226 1.258 . S
C211 O227 1.239 . S
C212 C211 1.498 . S
C212 C213 1.366 . S
C212 C217 1.407 . S
C213 C212 1.366 . S
C213 C214 1.392 . S
C213 H236 0.930 . S
C214 C213 1.392 . S
C214 C215 1.398 . S
C214 H237 0.929 . S
C215 C214 1.398 . S
C215 C216 1.352 . S
C216 C215 1.352 . S
C216 C217 1.384 . S
C216 H238 0.930 . S
C217 C212 1.407 . S
C217 C216 1.384 . S
C217 H239 0.929 . S
C218 O228 1.241 . S
C218 O229 1.273 . S
C219 O230 1.251 . S
C219 O231 1.268 . S
O220 Nd200 2.500 . S
O220 C202 1.258 . S
O221 Nd200 2.492 . S
O221 C202 1.239 . S
O222 Nd200 2.487 . S
O222 C209 1.241 . S
O223 Nd200 2.682 . S
O223 Nd201 2.414 . S
O223 C209 1.273 . S
O224 Nd200 2.410 . S
O224 C210 1.251 . S
O225 Nd201 2.424 . S
O225 C210 1.268 . S
O226 Nd201 2.500 . S
O226 C211 1.258 . S
O227 Nd201 2.492 . S
O227 C211 1.239 . S
O228 Nd201 2.487 . S
O228 C218 1.241 . S
O229 Nd200 2.414 . S
O229 Nd201 2.682 . S
O229 C218 1.273 . S
O230 Nd201 2.410 . S
O230 C219 1.251 . S
O231 Nd200 2.424 . S
O231 C219 1.268 . S
H232 C204 0.930 . S
H233 C205 0.929 1_455 S
H234 C207 0.930 . S
H235 C208 0.929 . S
H236 C213 0.930 . S
H237 C214 0.929 . S
H238 C216 0.930 . S
H239 C217 0.929 . S
Nd240 C242 2.836 . S
Nd240 O260 2.500 . S
Nd240 O261 2.492 . S
Nd240 O262 2.487 . S
Nd240 O263 2.682 . S
Nd240 O264 2.410 . S
Nd240 O269 2.414 . S
Nd240 O271 2.424 1_655 S
Nd241 C251 2.836 1_655 S
Nd241 O263 2.414 . S
Nd241 O265 2.424 . S
Nd241 O266 2.500 1_655 S
Nd241 O267 2.489 1_655 S
Nd241 O268 2.487 . S
Nd241 O269 2.682 . S
Nd241 O270 2.410 1_655 S
C242 Nd240 2.836 . S
C242 C243 1.498 . S
C242 O260 1.258 . S
C242 O261 1.239 . S
C243 C242 1.498 . S
C243 C244 1.366 . S
C243 C248 1.407 . S
C244 C243 1.366 . S
C244 C245 1.392 . S
C244 H272 0.930 . S
C245 C244 1.392 . S
C245 C246 1.398 . S
C245 H273 0.929 . S
C246 C245 1.398 . S
C246 C247 1.352 . S
C247 C246 1.352 . S
C247 C248 1.384 . S
C247 H274 0.930 . S
C248 C243 1.407 . S
C248 C247 1.384 . S
C248 H275 0.929 . S
C249 O262 1.241 . S
C249 O263 1.273 . S
C250 O264 1.251 . S
C250 O265 1.268 . S
C251 Nd241 2.836 1_455 S
C251 C252 1.498 . S
C251 O266 1.258 . S
C251 O267 1.242 . S
C252 C251 1.498 . S
C252 C253 1.366 . S
C252 C257 1.407 . S
C253 C252 1.366 . S
C253 C254 1.392 . S
C253 H276 0.930 . S
C254 C253 1.392 . S
C254 C255 1.398 . S
C254 H277 0.929 . S
C255 C254 1.398 . S
C255 C256 1.352 . S
C256 C255 1.352 . S
C256 C257 1.384 . S
C256 H278 0.930 . S
C257 C252 1.407 . S
C257 C256 1.384 . S
C257 H279 0.929 . S
C258 O268 1.241 . S
C258 O269 1.273 . S
C259 O270 1.251 . S
C259 O271 1.268 . S
O260 Nd240 2.500 . S
O260 C242 1.258 . S
O261 Nd240 2.492 . S
O261 C242 1.239 . S
O262 Nd240 2.487 . S
O262 C249 1.241 . S
O263 Nd240 2.682 . S
O263 Nd241 2.414 . S
O263 C249 1.273 . S
O264 Nd240 2.410 . S
O264 C250 1.251 . S
O265 Nd241 2.424 . S
O265 C250 1.268 . S
O266 Nd241 2.500 1_455 S
O266 C251 1.258 . S
O267 Nd241 2.489 1_455 S
O267 C251 1.242 . S
O268 Nd241 2.487 . S
O268 C258 1.241 . S
O269 Nd240 2.414 . S
O269 Nd241 2.682 . S
O269 C258 1.273 . S
O270 Nd241 2.410 1_455 S
O270 C259 1.251 . S
O271 Nd240 2.424 1_455 S
O271 C259 1.268 . S
H272 C244 0.930 . S
H273 C245 0.929 . S
H274 C247 0.930 . S
H275 C248 0.929 . S
H276 C253 0.930 . S
H277 C254 0.929 . S
H278 C256 0.930 . S
H279 C257 0.929 . S
Nd280 C282 2.836 . S
Nd280 O300 2.500 . S
Nd280 O301 2.492 . S
Nd280 O302 2.487 . S
Nd280 O303 2.682 . S
Nd280 O304 2.410 . S
Nd280 O309 2.414 . S
Nd280 O311 2.424 . S
Nd281 C291 2.836 . S
Nd281 O303 2.414 . S
Nd281 O305 2.424 . S
Nd281 O306 2.500 . S
Nd281 O307 2.492 . S
Nd281 O308 2.487 . S
Nd281 O309 2.682 . S
Nd281 O310 2.410 . S
C282 Nd280 2.836 . S
C282 C283 1.498 . S
C282 O300 1.258 . S
C282 O301 1.239 . S
C283 C282 1.498 . S
C283 C284 1.366 . S
C283 C288 1.407 . S
C284 C283 1.366 . S
C284 C285 1.392 . S
C284 H312 0.930 . S
C285 C284 1.392 . S
C285 C286 1.398 . S
C285 H313 0.929 1_655 S
C286 C285 1.398 . S
C286 C287 1.352 . S
C287 C286 1.352 . S
C287 C288 1.384 . S
C287 H314 0.930 . S
C288 C283 1.407 . S
C288 C287 1.384 . S
C288 H315 0.929 . S
C289 O302 1.241 . S
C289 O303 1.273 . S
C290 O304 1.251 . S
C290 O305 1.268 . S
C291 Nd281 2.836 . S
C291 C292 1.498 . S
C291 O306 1.258 . S
C291 O307 1.239 . S
C292 C291 1.498 . S
C292 C293 1.366 . S
C292 C297 1.407 . S
C293 C292 1.366 . S
C293 C294 1.392 . S
C293 H316 0.930 . S
C294 C293 1.392 . S
C294 C295 1.398 . S
C294 H317 0.929 . S
C295 C294 1.398 . S
C295 C296 1.352 . S
C296 C295 1.352 . S
C296 C297 1.384 . S
C296 H318 0.930 . S
C297 C292 1.407 . S
C297 C296 1.384 . S
C297 H319 0.929 . S
C298 O308 1.241 . S
C298 O309 1.273 . S
C299 O310 1.251 . S
C299 O311 1.268 . S
O300 Nd280 2.500 . S
O300 C282 1.258 . S
O301 Nd280 2.492 . S
O301 C282 1.239 . S
O302 Nd280 2.487 . S
O302 C289 1.241 . S
O303 Nd280 2.682 . S
O303 Nd281 2.414 . S
O303 C289 1.273 . S
O304 Nd280 2.410 . S
O304 C290 1.251 . S
O305 Nd281 2.424 . S
O305 C290 1.268 . S
O306 Nd281 2.500 . S
O306 C291 1.258 . S
O307 Nd281 2.492 . S
O307 C291 1.239 . S
O308 Nd281 2.487 . S
O308 C298 1.241 . S
O309 Nd280 2.414 . S
O309 Nd281 2.682 . S
O309 C298 1.273 . S
O310 Nd281 2.410 . S
O310 C299 1.251 . S
O311 Nd280 2.424 . S
O311 C299 1.268 . S
H312 C284 0.930 . S
H313 C285 0.929 1_455 S
H314 C287 0.930 . S
H315 C288 0.929 . S
H316 C293 0.930 . S
H317 C294 0.929 . S
H318 C296 0.930 . S
H319 C297 0.929 . S
Nd320 C322 2.836 1_455 S
Nd320 O340 2.500 1_455 S
Nd320 O341 2.496 . S
Nd320 O342 2.487 . S
Nd320 O343 2.682 1_565 S
Nd320 O344 2.410 1_455 S
Nd320 O349 2.414 . S
Nd320 O351 2.424 . S
Nd321 C331 2.836 . S
Nd321 O343 2.414 . S
Nd321 O345 2.424 1_455 S
Nd321 O346 2.500 . S
Nd321 O347 2.492 . S
Nd321 O348 2.487 . S
Nd321 O349 2.682 1_545 S
Nd321 O350 2.410 . S
C322 Nd320 2.836 1_655 S
C322 C323 1.498 . S
C322 O340 1.258 . S
C322 O341 1.234 1_655 S
C323 C322 1.498 . S
C323 C324 1.366 . S
C323 C328 1.407 . S
C324 C323 1.366 . S
C324 C325 1.392 . S
C324 H352 0.930 . S
C325 C324 1.392 . S
C325 C326 1.398 . S
C325 H353 0.929 . S
C326 C325 1.398 . S
C326 C327 1.352 . S
C327 C326 1.352 . S
C327 C328 1.384 . S
C327 H354 0.930 . S
C328 C323 1.407 . S
C328 C327 1.384 . S
C328 H355 0.929 . S
C329 O342 1.241 . S
C329 O343 1.273 1_565 S
C330 O344 1.251 . S
C330 O345 1.268 1_565 S
C331 Nd321 2.836 . S
C331 C332 1.498 . S
C331 O346 1.258 . S
C331 O347 1.239 . S
C332 C331 1.498 . S
C332 C333 1.366 . S
C332 C337 1.407 . S
C333 C332 1.366 . S
C333 C334 1.392 . S
C333 H356 0.930 . S
C334 C333 1.392 . S
C334 C335 1.398 . S
C334 H357 0.929 . S
C335 C334 1.398 . S
C335 C336 1.352 . S
C336 C335 1.352 . S
C336 C337 1.384 . S
C336 H358 0.930 . S
C337 C332 1.407 . S
C337 C336 1.384 . S
C337 H359 0.929 . S
C338 O348 1.241 . S
C338 O349 1.273 1_545 S
C339 O350 1.251 . S
C339 O351 1.268 1_545 S
O340 Nd320 2.500 1_655 S
O340 C322 1.258 . S
O341 Nd320 2.496 . S
O341 C322 1.234 1_455 S
O342 Nd320 2.487 . S
O342 C329 1.241 . S
O343 Nd320 2.682 1_545 S
O343 Nd321 2.414 . S
O343 C329 1.273 1_545 S
O344 Nd320 2.410 1_655 S
O344 C330 1.251 . S
O345 Nd321 2.424 1_655 S
O345 C330 1.268 1_545 S
O346 Nd321 2.500 . S
O346 C331 1.258 . S
O347 Nd321 2.492 . S
O347 C331 1.239 . S
O348 Nd321 2.487 . S
O348 C338 1.241 . S
O349 Nd320 2.414 . S
O349 Nd321 2.682 1_565 S
O349 C338 1.273 1_565 S
O350 Nd321 2.410 . S
O350 C339 1.251 . S
O351 Nd320 2.424 . S
O351 C339 1.268 1_565 S
H352 C324 0.930 . S
H353 C325 0.929 . S
H354 C327 0.930 . S
H355 C328 0.929 . S
H356 C333 0.930 . S
H357 C334 0.929 . S
H358 C336 0.930 . S
H359 C337 0.929 . S
Nd360 C362 2.836 . S
Nd360 O380 2.500 . S
Nd360 O381 2.492 . S
Nd360 O382 2.487 . S
Nd360 O383 2.682 . S
Nd360 O384 2.410 . S
Nd360 O389 2.414 . S
Nd360 O391 2.424 . S
Nd361 C371 2.836 . S
Nd361 O383 2.414 . S
Nd361 O385 2.424 . S
Nd361 O386 2.500 . S
Nd361 O387 2.492 . S
Nd361 O388 2.487 . S
Nd361 O389 2.682 . S
Nd361 O390 2.410 . S
C362 Nd360 2.836 . S
C362 C363 1.498 . S
C362 O380 1.258 . S
C362 O381 1.239 . S
C363 C362 1.498 . S
C363 C364 1.366 . S
C363 C368 1.407 . S
C364 C363 1.366 . S
C364 C365 1.392 . S
C364 H392 0.930 . S
C365 C364 1.392 . S
C365 C366 1.398 . S
C365 H393 0.929 . S
C366 C365 1.398 . S
C366 C367 1.352 . S
C367 C366 1.352 . S
C367 C368 1.384 . S
C367 H394 0.930 . S
C368 C363 1.407 . S
C368 C367 1.384 . S
C368 H395 0.929 . S
C369 O382 1.241 . S
C369 O383 1.273 . S
C370 O384 1.251 . S
C370 O385 1.268 . S
C371 Nd361 2.836 . S
C371 C372 1.498 . S
C371 O386 1.258 . S
C371 O387 1.239 . S
C372 C371 1.498 . S
C372 C373 1.366 . S
C372 C377 1.407 . S
C373 C372 1.366 . S
C373 C374 1.392 . S
C373 H396 0.930 . S
C374 C373 1.392 . S
C374 C375 1.398 . S
C374 H397 0.929 1_455 S
C375 C374 1.398 . S
C375 C376 1.352 . S
C376 C375 1.352 . S
C376 C377 1.384 . S
C376 H398 0.930 . S
C377 C372 1.407 . S
C377 C376 1.384 . S
C377 H399 0.929 . S
C378 O388 1.241 . S
C378 O389 1.273 . S
C379 O390 1.251 . S
C379 O391 1.268 . S
O380 Nd360 2.500 . S
O380 C362 1.258 . S
O381 Nd360 2.492 . S
O381 C362 1.239 . S
O382 Nd360 2.487 . S
O382 C369 1.241 . S
O383 Nd360 2.682 . S
O383 Nd361 2.414 . S
O383 C369 1.273 . S
O384 Nd360 2.410 . S
O384 C370 1.251 . S
O385 Nd361 2.424 . S
O385 C370 1.268 . S
O386 Nd361 2.500 . S
O386 C371 1.258 . S
O387 Nd361 2.492 . S
O387 C371 1.239 . S
O388 Nd361 2.487 . S
O388 C378 1.241 . S
O389 Nd360 2.414 . S
O389 Nd361 2.682 . S
O389 C378 1.273 . S
O390 Nd361 2.410 . S
O390 C379 1.251 . S
O391 Nd360 2.424 . S
O391 C379 1.268 . S
H392 C364 0.930 . S
H393 C365 0.929 . S
H394 C367 0.930 . S
H395 C368 0.929 . S
H396 C373 0.930 . S
H397 C374 0.929 1_655 S
H398 C376 0.930 . S
H399 C377 0.929 . S
Nd400 C402 2.836 1_455 S
Nd400 O420 2.500 1_455 S
Nd400 O421 2.488 1_455 S
Nd400 O422 2.487 . S
Nd400 O423 2.682 . S
Nd400 O424 2.410 1_455 S
Nd400 O429 2.414 . S
Nd400 O431 2.424 . S
Nd401 C411 2.836 . S
Nd401 O423 2.414 . S
Nd401 O425 2.424 1_455 S
Nd401 O426 2.500 . S
Nd401 O427 2.492 . S
Nd401 O428 2.487 . S
Nd401 O429 2.682 . S
Nd401 O430 2.410 . S
C402 Nd400 2.836 1_655 S
C402 C403 1.498 . S
C402 O420 1.258 . S
C402 O421 1.243 . S
C403 C402 1.498 . S
C403 C404 1.366 . S
C403 C408 1.407 . S
C404 C403 1.366 . S
C404 C405 1.392 . S
C404 H432 0.930 . S
C405 C404 1.392 . S
C405 C406 1.398 . S
C405 H433 0.929 . S
C406 C405 1.398 . S
C406 C407 1.352 . S
C407 C406 1.352 . S
C407 C408 1.384 . S
C407 H434 0.930 . S
C408 C403 1.407 . S
C408 C407 1.384 . S
C408 H435 0.929 . S
C409 O422 1.241 . S
C409 O423 1.273 . S
C410 O424 1.251 . S
C410 O425 1.268 . S
C411 Nd401 2.836 . S
C411 C412 1.498 . S
C411 O426 1.258 . S
C411 O427 1.239 . S
C412 C411 1.498 . S
C412 C413 1.366 . S
C412 C417 1.407 . S
C413 C412 1.366 . S
C413 C414 1.392 . S
C413 H436 0.930 . S
C414 C413 1.392 . S
C414 C415 1.398 . S
C414 H437 0.929 . S
C415 C414 1.398 . S
C415 C416 1.352 . S
C416 C415 1.352 . S
C416 C417 1.384 . S
C416 H438 0.930 . S
C417 C412 1.407 . S
C417 C416 1.384 . S
C417 H439 0.929 . S
C418 O428 1.241 . S
C418 O429 1.273 . S
C419 O430 1.251 . S
C419 O431 1.268 . S
O420 Nd400 2.500 1_655 S
O420 C402 1.258 . S
O421 Nd400 2.488 1_655 S
O421 C402 1.243 . S
O422 Nd400 2.487 . S
O422 C409 1.241 . S
O423 Nd400 2.682 . S
O423 Nd401 2.414 . S
O423 C409 1.273 . S
O424 Nd400 2.410 1_655 S
O424 C410 1.251 . S
O425 Nd401 2.424 1_655 S
O425 C410 1.268 . S
O426 Nd401 2.500 . S
O426 C411 1.258 . S
O427 Nd401 2.492 . S
O427 C411 1.239 . S
O428 Nd401 2.487 . S
O428 C418 1.241 . S
O429 Nd400 2.414 . S
O429 Nd401 2.682 . S
O429 C418 1.273 . S
O430 Nd401 2.410 . S
O430 C419 1.251 . S
O431 Nd400 2.424 . S
O431 C419 1.268 . S
H432 C404 0.930 . S
H433 C405 0.929 . S
H434 C407 0.930 . S
H435 C408 0.929 . S
H436 C413 0.930 . S
H437 C414 0.929 . S
H438 C416 0.930 . S
H439 C417 0.929 . S
Nd440 C442 2.836 . S
Nd440 O460 2.500 . S
Nd440 O461 2.492 . S
Nd440 O462 2.487 . S
Nd440 O463 2.682 1_565 S
Nd440 O464 2.410 . S
Nd440 O469 2.414 . S
Nd440 O471 2.424 . S
Nd441 C451 2.836 . S
Nd441 O463 2.414 . S
Nd441 O465 2.424 . S
Nd441 O466 2.500 . S
Nd441 O467 2.492 . S
Nd441 O468 2.487 . S
Nd441 O469 2.682 1_545 S
Nd441 O470 2.410 . S
C442 Nd440 2.836 . S
C442 C443 1.498 . S
C442 O460 1.258 . S
C442 O461 1.239 . S
C443 C442 1.498 . S
C443 C444 1.366 . S
C443 C448 1.407 . S
C444 C443 1.366 . S
C444 C445 1.392 . S
C444 H472 0.930 . S
C445 C444 1.392 . S
C445 C446 1.398 . S
C445 H473 0.929 . S
C446 C445 1.398 . S
C446 C447 1.352 . S
C447 C446 1.352 . S
C447 C448 1.384 . S
C447 H474 0.930 . S
C448 C443 1.407 . S
C448 C447 1.384 . S
C448 H475 0.929 . S
C449 O462 1.241 . S
C449 O463 1.273 1_565 S
C450 O464 1.251 . S
C450 O465 1.268 1_565 S
C451 Nd441 2.836 . S
C451 C452 1.498 . S
C451 O466 1.258 . S
C451 O467 1.239 . S
C452 C451 1.498 . S
C452 C453 1.366 . S
C452 C457 1.407 . S
C453 C452 1.366 . S
C453 C454 1.392 . S
C453 H476 0.930 . S
C454 C453 1.392 . S
C454 C455 1.398 . S
C454 H477 0.929 1_455 S
C455 C454 1.398 . S
C455 C456 1.352 . S
C456 C455 1.352 . S
C456 C457 1.384 . S
C456 H478 0.930 . S
C457 C452 1.407 . S
C457 C456 1.384 . S
C457 H479 0.929 . S
C458 O468 1.241 . S
C458 O469 1.273 1_545 S
C459 O470 1.251 . S
C459 O471 1.268 1_545 S
O460 Nd440 2.500 . S
O460 C442 1.258 . S
O461 Nd440 2.492 . S
O461 C442 1.239 . S
O462 Nd440 2.487 . S
O462 C449 1.241 . S
O463 Nd440 2.682 1_545 S
O463 Nd441 2.414 . S
O463 C449 1.273 1_545 S
O464 Nd440 2.410 . S
O464 C450 1.251 . S
O465 Nd441 2.424 . S
O465 C450 1.268 1_545 S
O466 Nd441 2.500 . S
O466 C451 1.258 . S
O467 Nd441 2.492 . S
O467 C451 1.239 . S
O468 Nd441 2.487 . S
O468 C458 1.241 . S
O469 Nd440 2.414 . S
O469 Nd441 2.682 1_565 S
O469 C458 1.273 1_565 S
O470 Nd441 2.410 . S
O470 C459 1.251 . S
O471 Nd440 2.424 . S
O471 C459 1.268 1_565 S
H472 C444 0.930 . S
H473 C445 0.929 . S
H474 C447 0.930 . S
H475 C448 0.929 . S
H476 C453 0.930 . S
H477 C454 0.929 1_655 S
H478 C456 0.930 . S
H479 C457 0.929 . S
Nd480 C482 2.836 . S
Nd480 O500 2.500 . S
Nd480 O501 2.492 . S
Nd480 O502 2.487 . S
Nd480 O503 2.682 1_565 S
Nd480 O504 2.410 . S
Nd480 O509 2.414 . S
Nd480 O511 2.424 1_655 S
Nd481 C491 2.836 1_655 S
Nd481 O503 2.414 . S
Nd481 O505 2.424 . S
Nd481 O506 2.500 1_655 S
Nd481 O507 2.496 . S
Nd481 O508 2.487 . S
Nd481 O509 2.682 1_545 S
Nd481 O510 2.410 1_655 S
C482 Nd480 2.836 . S
C482 C483 1.498 . S
C482 O500 1.258 . S
C482 O501 1.239 . S
C483 C482 1.498 . S
C483 C484 1.366 . S
C483 C488 1.407 . S
C484 C483 1.366 . S
C484 C485 1.392 . S
C484 H512 0.930 . S
C485 C484 1.392 . S
C485 C486 1.398 . S
C485 H513 0.929 . S
C486 C485 1.398 . S
C486 C487 1.352 . S
C487 C486 1.352 . S
C487 C488 1.384 . S
C487 H514 0.930 . S
C488 C483 1.407 . S
C488 C487 1.384 . S
C488 H515 0.929 . S
C489 O502 1.241 . S
C489 O503 1.273 1_565 S
C490 O504 1.251 . S
C490 O505 1.268 1_565 S
C491 Nd481 2.836 1_455 S
C491 C492 1.498 . S
C491 O506 1.258 . S
C491 O507 1.234 1_455 S
C492 C491 1.498 . S
C492 C493 1.366 . S
C492 C497 1.407 . S
C493 C492 1.366 . S
C493 C494 1.392 . S
C493 H516 0.930 . S
C494 C493 1.392 . S
C494 C495 1.398 . S
C494 H517 0.929 . S
C495 C494 1.398 . S
C495 C496 1.352 . S
C496 C495 1.352 . S
C496 C497 1.384 . S
C496 H518 0.930 . S
C497 C492 1.407 . S
C497 C496 1.384 . S
C497 H519 0.929 . S
C498 O508 1.241 . S
C498 O509 1.273 1_545 S
C499 O510 1.251 . S
C499 O511 1.268 1_545 S
O500 Nd480 2.500 . S
O500 C482 1.258 . S
O501 Nd480 2.492 . S
O501 C482 1.239 . S
O502 Nd480 2.487 . S
O502 C489 1.241 . S
O503 Nd480 2.682 1_545 S
O503 Nd481 2.414 . S
O503 C489 1.273 1_545 S
O504 Nd480 2.410 . S
O504 C490 1.251 . S
O505 Nd481 2.424 . S
O505 C490 1.268 1_545 S
O506 Nd481 2.500 1_455 S
O506 C491 1.258 . S
O507 Nd481 2.496 . S
O507 C491 1.234 1_655 S
O508 Nd481 2.487 . S
O508 C498 1.241 . S
O509 Nd480 2.414 . S
O509 Nd481 2.682 1_565 S
O509 C498 1.273 1_565 S
O510 Nd481 2.410 1_455 S
O510 C499 1.251 . S
O511 Nd480 2.424 1_455 S
O511 C499 1.268 1_565 S
H512 C484 0.930 . S
H513 C485 0.929 . S
H514 C487 0.930 . S
H515 C488 0.929 . S
H516 C493 0.930 . S
H517 C494 0.929 . S
H518 C496 0.930 . S
H519 C497 0.929 . S
Nd520 C522 2.836 . S
Nd520 O540 2.500 . S
Nd520 O541 2.492 . S
Nd520 O542 2.487 . S
Nd520 O543 2.682 . S
Nd520 O544 2.410 . S
Nd520 O549 2.414 . S
Nd520 O551 2.424 . S
Nd521 C531 2.836 . S
Nd521 O543 2.414 . S
Nd521 O545 2.424 . S
Nd521 O546 2.500 . S
Nd521 O547 2.492 . S
Nd521 O548 2.487 . S
Nd521 O549 2.682 . S
Nd521 O550 2.410 . S
C522 Nd520 2.836 . S
C522 C523 1.498 . S
C522 O540 1.258 . S
C522 O541 1.239 . S
C523 C522 1.498 . S
C523 C524 1.366 . S
C523 C528 1.407 . S
C524 C523 1.366 . S
C524 C525 1.392 . S
C524 H552 0.930 . S
C525 C524 1.392 . S
C525 C526 1.398 . S
C525 H553 0.929 1_655 S
C526 C525 1.398 . S
C526 C527 1.352 . S
C527 C526 1.352 . S
C527 C528 1.384 . S
C527 H554 0.930 . S
C528 C523 1.407 . S
C528 C527 1.384 . S
C528 H555 0.929 . S
C529 O542 1.241 . S
C529 O543 1.273 . S
C530 O544 1.251 . S
C530 O545 1.268 . S
C531 Nd521 2.836 . S
C531 C532 1.498 . S
C531 O546 1.258 . S
C531 O547 1.239 . S
C532 C531 1.498 . S
C532 C533 1.366 . S
C532 C537 1.407 . S
C533 C532 1.366 . S
C533 C534 1.392 . S
C533 H556 0.930 . S
C534 C533 1.392 . S
C534 C535 1.398 . S
C534 H557 0.929 . S
C535 C534 1.398 . S
C535 C536 1.352 . S
C536 C535 1.352 . S
C536 C537 1.384 . S
C536 H558 0.930 . S
C537 C532 1.407 . S
C537 C536 1.384 . S
C537 H559 0.929 . S
C538 O548 1.241 . S
C538 O549 1.273 . S
C539 O550 1.251 . S
C539 O551 1.268 . S
O540 Nd520 2.500 . S
O540 C522 1.258 . S
O541 Nd520 2.492 . S
O541 C522 1.239 . S
O542 Nd520 2.487 . S
O542 C529 1.241 . S
O543 Nd520 2.682 . S
O543 Nd521 2.414 . S
O543 C529 1.273 . S
O544 Nd520 2.410 . S
O544 C530 1.251 . S
O545 Nd521 2.424 . S
O545 C530 1.268 . S
O546 Nd521 2.500 . S
O546 C531 1.258 . S
O547 Nd521 2.492 . S
O547 C531 1.239 . S
O548 Nd521 2.487 . S
O548 C538 1.241 . S
O549 Nd520 2.414 . S
O549 Nd521 2.682 . S
O549 C538 1.273 . S
O550 Nd521 2.410 . S
O550 C539 1.251 . S
O551 Nd520 2.424 . S
O551 C539 1.268 . S
H552 C524 0.930 . S
H553 C525 0.929 1_455 S
H554 C527 0.930 . S
H555 C528 0.929 . S
H556 C533 0.930 . S
H557 C534 0.929 . S
H558 C536 0.930 . S
H559 C537 0.929 . S
Nd560 C562 2.836 . S
Nd560 O580 2.500 . S
Nd560 O581 2.492 . S
Nd560 O582 2.487 . S
Nd560 O583 2.682 . S
Nd560 O584 2.410 . S
Nd560 O589 2.414 . S
Nd560 O591 2.424 1_655 S
Nd561 C571 2.836 1_655 S
Nd561 O583 2.414 . S
Nd561 O585 2.424 . S
Nd561 O586 2.500 1_655 S
Nd561 O587 2.488 1_655 S
Nd561 O588 2.487 . S
Nd561 O589 2.682 . S
Nd561 O590 2.410 1_655 S
C562 Nd560 2.836 . S
C562 C563 1.498 . S
C562 O580 1.258 . S
C562 O581 1.239 . S
C563 C562 1.498 . S
C563 C564 1.366 . S
C563 C568 1.407 . S
C564 C563 1.366 . S
C564 C565 1.392 . S
C564 H592 0.930 . S
C565 C564 1.392 . S
C565 C566 1.398 . S
C565 H593 0.929 . S
C566 C565 1.398 . S
C566 C567 1.352 . S
C567 C566 1.352 . S
C567 C568 1.384 . S
C567 H594 0.930 . S
C568 C563 1.407 . S
C568 C567 1.384 . S
C568 H595 0.929 . S
C569 O582 1.241 . S
C569 O583 1.273 . S
C570 O584 1.251 . S
C570 O585 1.268 . S
C571 Nd561 2.836 1_455 S
C571 C572 1.498 . S
C571 O586 1.258 . S
C571 O587 1.243 . S
C572 C571 1.498 . S
C572 C573 1.366 . S
C572 C577 1.407 . S
C573 C572 1.366 . S
C573 C574 1.392 . S
C573 H596 0.930 . S
C574 C573 1.392 . S
C574 C575 1.398 . S
C574 H597 0.929 . S
C575 C574 1.398 . S
C575 C576 1.352 . S
C576 C575 1.352 . S
C576 C577 1.384 . S
C576 H598 0.930 . S
C577 C572 1.407 . S
C577 C576 1.384 . S
C577 H599 0.929 . S
C578 O588 1.241 . S
C578 O589 1.273 . S
C579 O590 1.251 . S
C579 O591 1.268 . S
O580 Nd560 2.500 . S
O580 C562 1.258 . S
O581 Nd560 2.492 . S
O581 C562 1.239 . S
O582 Nd560 2.487 . S
O582 C569 1.241 . S
O583 Nd560 2.682 . S
O583 Nd561 2.414 . S
O583 C569 1.273 . S
O584 Nd560 2.410 . S
O584 C570 1.251 . S
O585 Nd561 2.424 . S
O585 C570 1.268 . S
O586 Nd561 2.500 1_455 S
O586 C571 1.258 . S
O587 Nd561 2.488 1_455 S
O587 C571 1.243 . S
O588 Nd561 2.487 . S
O588 C578 1.241 . S
O589 Nd560 2.414 . S
O589 Nd561 2.682 . S
O589 C578 1.273 . S
O590 Nd561 2.410 1_455 S
O590 C579 1.251 . S
O591 Nd560 2.424 1_455 S
O591 C579 1.268 . S
H592 C564 0.930 . S
H593 C565 0.929 . S
H594 C567 0.930 . S
H595 C568 0.929 . S
H596 C573 0.930 . S
H597 C574 0.929 . S
H598 C576 0.930 . S
H599 C577 0.929 . S
Nd600 C602 2.836 . S
Nd600 O620 2.500 . S
Nd600 O621 2.492 . S
Nd600 O622 2.487 . S
Nd600 O623 2.682 1_565 S
Nd600 O624 2.410 . S
Nd600 O629 2.414 . S
Nd600 O631 2.424 . S
Nd601 C611 2.836 . S
Nd601 O623 2.414 . S
Nd601 O625 2.424 . S
Nd601 O626 2.500 . S
Nd601 O627 2.492 . S
Nd601 O628 2.487 . S
Nd601 O629 2.682 1_545 S
Nd601 O630 2.410 . S
C602 Nd600 2.836 . S
C602 C603 1.498 . S
C602 O620 1.258 . S
C602 O621 1.239 . S
C603 C602 1.498 . S
C603 C604 1.366 . S
C603 C608 1.407 . S
C604 C603 1.366 . S
C604 C605 1.392 . S
C604 H632 0.930 . S
C605 C604 1.392 . S
C605 C606 1.398 . S
C605 H633 0.929 1_655 S
C606 C605 1.398 . S
C606 C607 1.352 . S
C607 C606 1.352 . S
C607 C608 1.384 . S
C607 H634 0.930 . S
C608 C603 1.407 . S
C608 C607 1.384 . S
C608 H635 0.929 . S
C609 O622 1.241 . S
C609 O623 1.273 1_565 S
C610 O624 1.251 . S
C610 O625 1.268 1_565 S
C611 Nd601 2.836 . S
C611 C612 1.498 . S
C611 O626 1.258 . S
C611 O627 1.239 . S
C612 C611 1.498 . S
C612 C613 1.366 . S
C612 C617 1.407 . S
C613 C612 1.366 . S
C613 C614 1.392 . S
C613 H636 0.930 . S
C614 C613 1.392 . S
C614 C615 1.398 . S
C614 H637 0.929 . S
C615 C614 1.398 . S
C615 C616 1.352 . S
C616 C615 1.352 . S
C616 C617 1.384 . S
C616 H638 0.930 . S
C617 C612 1.407 . S
C617 C616 1.384 . S
C617 H639 0.929 . S
C618 O628 1.241 . S
C618 O629 1.273 1_545 S
C619 O630 1.251 . S
C619 O631 1.268 1_545 S
O620 Nd600 2.500 . S
O620 C602 1.258 . S
O621 Nd600 2.492 . S
O621 C602 1.239 . S
O622 Nd600 2.487 . S
O622 C609 1.241 . S
O623 Nd600 2.682 1_545 S
O623 Nd601 2.414 . S
O623 C609 1.273 1_545 S
O624 Nd600 2.410 . S
O624 C610 1.251 . S
O625 Nd601 2.424 . S
O625 C610 1.268 1_545 S
O626 Nd601 2.500 . S
O626 C611 1.258 . S
O627 Nd601 2.492 . S
O627 C611 1.239 . S
O628 Nd601 2.487 . S
O628 C618 1.241 . S
O629 Nd600 2.414 . S
O629 Nd601 2.682 1_565 S
O629 C618 1.273 1_565 S
O630 Nd601 2.410 . S
O630 C619 1.251 . S
O631 Nd600 2.424 . S
O631 C619 1.268 1_565 S
H632 C604 0.930 . S
H633 C605 0.929 1_455 S
H634 C607 0.930 . S
H635 C608 0.929 . S
H636 C613 0.930 . S
H637 C614 0.929 . S
H638 C616 0.930 . S
H639 C617 0.929 . S
Nd640 C642 2.836 . S
Nd640 O660 2.500 . S
Nd640 O661 2.492 . S
Nd640 O662 2.487 . S
Nd640 O663 2.682 . S
Nd640 O664 2.410 . S
Nd640 O669 2.414 . S
Nd640 O671 2.424 . S
Nd641 C651 2.836 . S
Nd641 O663 2.414 . S
Nd641 O665 2.424 . S
Nd641 O666 2.500 . S
Nd641 O667 2.492 . S
Nd641 O668 2.487 . S
Nd641 O669 2.682 . S
Nd641 O670 2.410 . S
C642 Nd640 2.836 . S
C642 C643 1.498 . S
C642 O660 1.258 . S
C642 O661 1.239 . S
C643 C642 1.498 . S
C643 C644 1.366 . S
C643 C648 1.407 . S
C644 C643 1.366 . S
C644 C645 1.392 . S
C644 H672 0.930 . S
C645 C644 1.392 . S
C645 C646 1.398 . S
C645 H673 0.929 . S
C646 C645 1.398 . S
C646 C647 1.352 . S
C647 C646 1.352 . S
C647 C648 1.384 . S
C647 H674 0.930 . S
C648 C643 1.407 . S
C648 C647 1.384 . S
C648 H675 0.929 . S
C649 O662 1.241 . S
C649 O663 1.273 . S
C650 O664 1.251 . S
C650 O665 1.268 . S
C651 Nd641 2.836 . S
C651 C652 1.498 . S
C651 O666 1.258 . S
C651 O667 1.239 . S
C652 C651 1.498 . S
C652 C653 1.366 . S
C652 C657 1.407 . S
C653 C652 1.366 . S
C653 C654 1.392 . S
C653 H676 0.930 . S
C654 C653 1.392 . S
C654 C655 1.398 . S
C654 H677 0.929 . S
C655 C654 1.398 . S
C655 C656 1.352 . S
C656 C655 1.352 . S
C656 C657 1.384 . S
C656 H678 0.930 . S
C657 C652 1.407 . S
C657 C656 1.384 . S
C657 H679 0.929 . S
C658 O668 1.241 . S
C658 O669 1.273 . S
C659 O670 1.251 . S
C659 O671 1.268 . S
O660 Nd640 2.500 . S
O660 C642 1.258 . S
O661 Nd640 2.492 . S
O661 C642 1.239 . S
O662 Nd640 2.487 . S
O662 C649 1.241 . S
O663 Nd640 2.682 . S
O663 Nd641 2.414 . S
O663 C649 1.273 . S
O664 Nd640 2.410 . S
O664 C650 1.251 . S
O665 Nd641 2.424 . S
O665 C650 1.268 . S
O666 Nd641 2.500 . S
O666 C651 1.258 . S
O667 Nd641 2.492 . S
O667 C651 1.239 . S
O668 Nd641 2.487 . S
O668 C658 1.241 . S
O669 Nd640 2.414 . S
O669 Nd641 2.682 . S
O669 C658 1.273 . S
O670 Nd641 2.410 . S
O670 C659 1.251 . S
O671 Nd640 2.424 . S
O671 C659 1.268 . S
H672 C644 0.930 . S
H673 C645 0.929 . S
H674 C647 0.930 . S
H675 C648 0.929 . S
H676 C653 0.930 . S
H677 C654 0.929 . S
H678 C656 0.930 . S
H679 C657 0.929 . S
Nd680 C682 2.836 . S
Nd680 O700 2.500 . S
Nd680 O701 2.492 . S
Nd680 O702 2.487 . S
Nd680 O703 2.682 . S
Nd680 O704 2.410 . S
Nd680 O709 2.414 . S
Nd680 O711 2.424 . S
Nd681 C691 2.836 . S
Nd681 O703 2.414 . S
Nd681 O705 2.424 . S
Nd681 O706 2.500 . S
Nd681 O707 2.492 . S
Nd681 O708 2.487 . S
Nd681 O709 2.682 . S
Nd681 O710 2.410 . S
C682 Nd680 2.836 . S
C682 C683 1.498 . S
C682 O700 1.258 . S
C682 O701 1.239 . S
C683 C682 1.498 . S
C683 C684 1.366 . S
C683 C688 1.407 . S
C684 C683 1.366 . S
C684 C685 1.392 . S
C684 H712 0.930 . S
C685 C684 1.392 . S
C685 C686 1.398 . S
C685 H713 0.929 . S
C686 C685 1.398 . S
C686 C687 1.352 . S
C687 C686 1.352 . S
C687 C688 1.384 . S
C687 H714 0.930 . S
C688 C683 1.407 . S
C688 C687 1.384 . S
C688 H715 0.929 . S
C689 O702 1.241 . S
C689 O703 1.273 . S
C690 O704 1.251 . S
C690 O705 1.268 . S
C691 Nd681 2.836 . S
C691 C692 1.498 . S
C691 O706 1.258 . S
C691 O707 1.239 . S
C692 C691 1.498 . S
C692 C693 1.366 . S
C692 C697 1.407 . S
C693 C692 1.366 . S
C693 C694 1.392 . S
C693 H716 0.930 . S
C694 C693 1.392 . S
C694 C695 1.398 . S
C694 H717 0.929 . S
C695 C694 1.398 . S
C695 C696 1.352 . S
C696 C695 1.352 . S
C696 C697 1.384 . S
C696 H718 0.930 . S
C697 C692 1.407 . S
C697 C696 1.384 . S
C697 H719 0.929 . S
C698 O708 1.241 . S
C698 O709 1.273 . S
C699 O710 1.251 . S
C699 O711 1.268 . S
O700 Nd680 2.500 . S
O700 C682 1.258 . S
O701 Nd680 2.492 . S
O701 C682 1.239 . S
O702 Nd680 2.487 . S
O702 C689 1.241 . S
O703 Nd680 2.682 . S
O703 Nd681 2.414 . S
O703 C689 1.273 . S
O704 Nd680 2.410 . S
O704 C690 1.251 . S
O705 Nd681 2.424 . S
O705 C690 1.268 . S
O706 Nd681 2.500 . S
O706 C691 1.258 . S
O707 Nd681 2.492 . S
O707 C691 1.239 . S
O708 Nd681 2.487 . S
O708 C698 1.241 . S
O709 Nd680 2.414 . S
O709 Nd681 2.682 . S
O709 C698 1.273 . S
O710 Nd681 2.410 . S
O710 C699 1.251 . S
O711 Nd680 2.424 . S
O711 C699 1.268 . S
H712 C684 0.930 . S
H713 C685 0.929 . S
H714 C687 0.930 . S
H715 C688 0.929 . S
H716 C693 0.930 . S
H717 C694 0.929 . S
H718 C696 0.930 . S
H719 C697 0.929 . S
Nd720 C722 2.836 . S
Nd720 O740 2.500 . S
Nd720 O741 2.492 . S
Nd720 O742 2.487 . S
Nd720 O743 2.682 . S
Nd720 O744 2.410 . S
Nd720 O749 2.414 . S
Nd720 O751 2.424 . S
Nd721 C731 2.836 . S
Nd721 O743 2.414 . S
Nd721 O745 2.424 . S
Nd721 O746 2.500 . S
Nd721 O747 2.492 . S
Nd721 O748 2.487 . S
Nd721 O749 2.682 . S
Nd721 O750 2.410 . S
C722 Nd720 2.836 . S
C722 C723 1.498 . S
C722 O740 1.258 . S
C722 O741 1.239 . S
C723 C722 1.498 . S
C723 C724 1.366 . S
C723 C728 1.407 . S
C724 C723 1.366 . S
C724 C725 1.392 . S
C724 H752 0.930 . S
C725 C724 1.392 . S
C725 C726 1.398 . S
C725 H753 0.929 . S
C726 C725 1.398 . S
C726 C727 1.352 . S
C727 C726 1.352 . S
C727 C728 1.384 . S
C727 H754 0.930 . S
C728 C723 1.407 . S
C728 C727 1.384 . S
C728 H755 0.929 . S
C729 O742 1.241 . S
C729 O743 1.273 . S
C730 O744 1.251 . S
C730 O745 1.268 . S
C731 Nd721 2.836 . S
C731 C732 1.498 . S
C731 O746 1.258 . S
C731 O747 1.239 . S
C732 C731 1.498 . S
C732 C733 1.366 . S
C732 C737 1.407 . S
C733 C732 1.366 . S
C733 C734 1.392 . S
C733 H756 0.930 . S
C734 C733 1.392 . S
C734 C735 1.398 . S
C734 H757 0.929 . S
C735 C734 1.398 . S
C735 C736 1.352 . S
C736 C735 1.352 . S
C736 C737 1.384 . S
C736 H758 0.930 . S
C737 C732 1.407 . S
C737 C736 1.384 . S
C737 H759 0.929 . S
C738 O748 1.241 . S
C738 O749 1.273 . S
C739 O750 1.251 . S
C739 O751 1.268 . S
O740 Nd720 2.500 . S
O740 C722 1.258 . S
O741 Nd720 2.492 . S
O741 C722 1.239 . S
O742 Nd720 2.487 . S
O742 C729 1.241 . S
O743 Nd720 2.682 . S
O743 Nd721 2.414 . S
O743 C729 1.273 . S
O744 Nd720 2.410 . S
O744 C730 1.251 . S
O745 Nd721 2.424 . S
O745 C730 1.268 . S
O746 Nd721 2.500 . S
O746 C731 1.258 . S
O747 Nd721 2.492 . S
O747 C731 1.239 . S
O748 Nd721 2.487 . S
O748 C738 1.241 . S
O749 Nd720 2.414 . S
O749 Nd721 2.682 . S
O749 C738 1.273 . S
O750 Nd721 2.410 . S
O750 C739 1.251 . S
O751 Nd720 2.424 . S
O751 C739 1.268 . S
H752 C724 0.930 . S
H753 C725 0.929 . S
H754 C727 0.930 . S
H755 C728 0.929 . S
H756 C733 0.930 . S
H757 C734 0.929 . S
H758 C736 0.930 . S
H759 C737 0.929 . S
Nd760 C762 2.836 . S
Nd760 O780 2.500 . S
Nd760 O781 2.492 . S
Nd760 O782 2.487 . S
Nd760 O783 2.682 . S
Nd760 O784 2.410 . S
Nd760 O789 2.414 . S
Nd760 O791 2.424 . S
Nd761 C771 2.836 . S
Nd761 O783 2.414 . S
Nd761 O785 2.424 . S
Nd761 O786 2.500 . S
Nd761 O787 2.492 . S
Nd761 O788 2.487 . S
Nd761 O789 2.682 . S
Nd761 O790 2.410 . S
C762 Nd760 2.836 . S
C762 C763 1.498 . S
C762 O780 1.258 . S
C762 O781 1.239 . S
C763 C762 1.498 . S
C763 C764 1.366 . S
C763 C768 1.407 . S
C764 C763 1.366 . S
C764 C765 1.392 . S
C764 H792 0.930 . S
C765 C764 1.392 . S
C765 C766 1.398 . S
C765 H793 0.929 . S
C766 C765 1.398 . S
C766 C767 1.352 . S
C767 C766 1.352 . S
C767 C768 1.384 . S
C767 H794 0.930 . S
C768 C763 1.407 . S
C768 C767 1.384 . S
C768 H795 0.929 . S
C769 O782 1.241 . S
C769 O783 1.273 . S
C770 O784 1.251 . S
C770 O785 1.268 . S
C771 Nd761 2.836 . S
C771 C772 1.498 . S
C771 O786 1.258 . S
C771 O787 1.239 . S
C772 C771 1.498 . S
C772 C773 1.366 . S
C772 C777 1.407 . S
C773 C772 1.366 . S
C773 C774 1.392 . S
C773 H796 0.930 . S
C774 C773 1.392 . S
C774 C775 1.398 . S
C774 H797 0.929 . S
C775 C774 1.398 . S
C775 C776 1.352 . S
C776 C775 1.352 . S
C776 C777 1.384 . S
C776 H798 0.930 . S
C777 C772 1.407 . S
C777 C776 1.384 . S
C777 H799 0.929 . S
C778 O788 1.241 . S
C778 O789 1.273 . S
C779 O790 1.251 . S
C779 O791 1.268 . S
O780 Nd760 2.500 . S
O780 C762 1.258 . S
O781 Nd760 2.492 . S
O781 C762 1.239 . S
O782 Nd760 2.487 . S
O782 C769 1.241 . S
O783 Nd760 2.682 . S
O783 Nd761 2.414 . S
O783 C769 1.273 . S
O784 Nd760 2.410 . S
O784 C770 1.251 . S
O785 Nd761 2.424 . S
O785 C770 1.268 . S
O786 Nd761 2.500 . S
O786 C771 1.258 . S
O787 Nd761 2.492 . S
O787 C771 1.239 . S
O788 Nd761 2.487 . S
O788 C778 1.241 . S
O789 Nd760 2.414 . S
O789 Nd761 2.682 . S
O789 C778 1.273 . S
O790 Nd761 2.410 . S
O790 C779 1.251 . S
O791 Nd760 2.424 . S
O791 C779 1.268 . S
H792 C764 0.930 . S
H793 C765 0.929 . S
H794 C767 0.930 . S
H795 C768 0.929 . S
H796 C773 0.930 . S
H797 C774 0.929 . S
H798 C776 0.930 . S
H799 C777 0.929 . S
Nd800 C802 2.836 . S
Nd800 O820 2.500 . S
Nd800 O821 2.492 . S
Nd800 O822 2.487 . S
Nd800 O823 2.682 . S
Nd800 O824 2.410 . S
Nd800 O829 2.414 . S
Nd800 O831 2.424 . S
Nd801 C811 2.836 . S
Nd801 O823 2.414 . S
Nd801 O825 2.424 . S
Nd801 O826 2.500 . S
Nd801 O827 2.492 . S
Nd801 O828 2.487 . S
Nd801 O829 2.682 . S
Nd801 O830 2.410 . S
C802 Nd800 2.836 . S
C802 C803 1.498 . S
C802 O820 1.258 . S
C802 O821 1.239 . S
C803 C802 1.498 . S
C803 C804 1.366 . S
C803 C808 1.407 . S
C804 C803 1.366 . S
C804 C805 1.392 . S
C804 H832 0.930 . S
C805 C804 1.392 . S
C805 C806 1.398 . S
C805 H833 0.929 . S
C806 C805 1.398 . S
C806 C807 1.352 . S
C807 C806 1.352 . S
C807 C808 1.384 . S
C807 H834 0.930 . S
C808 C803 1.407 . S
C808 C807 1.384 . S
C808 H835 0.929 . S
C809 O822 1.241 . S
C809 O823 1.273 . S
C810 O824 1.251 . S
C810 O825 1.268 . S
C811 Nd801 2.836 . S
C811 C812 1.498 . S
C811 O826 1.258 . S
C811 O827 1.239 . S
C812 C811 1.498 . S
C812 C813 1.366 . S
C812 C817 1.407 . S
C813 C812 1.366 . S
C813 C814 1.392 . S
C813 H836 0.930 . S
C814 C813 1.392 . S
C814 C815 1.398 . S
C814 H837 0.929 . S
C815 C814 1.398 . S
C815 C816 1.352 . S
C816 C815 1.352 . S
C816 C817 1.384 . S
C816 H838 0.930 . S
C817 C812 1.407 . S
C817 C816 1.384 . S
C817 H839 0.929 . S
C818 O828 1.241 . S
C818 O829 1.273 . S
C819 O830 1.251 . S
C819 O831 1.268 . S
O820 Nd800 2.500 . S
O820 C802 1.258 . S
O821 Nd800 2.492 . S
O821 C802 1.239 . S
O822 Nd800 2.487 . S
O822 C809 1.241 . S
O823 Nd800 2.682 . S
O823 Nd801 2.414 . S
O823 C809 1.273 . S
O824 Nd800 2.410 . S
O824 C810 1.251 . S
O825 Nd801 2.424 . S
O825 C810 1.268 . S
O826 Nd801 2.500 . S
O826 C811 1.258 . S
O827 Nd801 2.492 . S
O827 C811 1.239 . S
O828 Nd801 2.487 . S
O828 C818 1.241 . S
O829 Nd800 2.414 . S
O829 Nd801 2.682 . S
O829 C818 1.273 . S
O830 Nd801 2.410 . S
O830 C819 1.251 . S
O831 Nd800 2.424 . S
O831 C819 1.268 . S
H832 C804 0.930 . S
H833 C805 0.929 . S
H834 C807 0.930 . S
H835 C808 0.929 . S
H836 C813 0.930 . S
H837 C814 0.929 . S
H838 C816 0.930 . S
H839 C817 0.929 . S
Nd840 C842 2.836 . S
Nd840 O860 2.500 . S
Nd840 O861 2.492 . S
Nd840 O862 2.487 . S
Nd840 O863 2.682 . S
Nd840 O864 2.410 . S
Nd840 O869 2.414 . S
Nd840 O871 2.424 . S
Nd841 C851 2.836 . S
Nd841 O863 2.414 . S
Nd841 O865 2.424 . S
Nd841 O866 2.500 . S
Nd841 O867 2.492 . S
Nd841 O868 2.487 . S
Nd841 O869 2.682 . S
Nd841 O870 2.410 . S
C842 Nd840 2.836 . S
C842 C843 1.498 . S
C842 O860 1.258 . S
C842 O861 1.239 . S
C843 C842 1.498 . S
C843 C844 1.366 . S
C843 C848 1.407 . S
C844 C843 1.366 . S
C844 C845 1.392 . S
C844 H872 0.930 . S
C845 C844 1.392 . S
C845 C846 1.398 . S
C845 H873 0.929 . S
C846 C845 1.398 . S
C846 C847 1.352 . S
C847 C846 1.352 . S
C847 C848 1.384 . S
C847 H874 0.930 . S
C848 C843 1.407 . S
C848 C847 1.384 . S
C848 H875 0.929 . S
C849 O862 1.241 . S
C849 O863 1.273 . S
C850 O864 1.251 . S
C850 O865 1.268 . S
C851 Nd841 2.836 . S
C851 C852 1.498 . S
C851 O866 1.258 . S
C851 O867 1.239 . S
C852 C851 1.498 . S
C852 C853 1.366 . S
C852 C857 1.407 . S
C853 C852 1.366 . S
C853 C854 1.392 . S
C853 H876 0.930 . S
C854 C853 1.392 . S
C854 C855 1.398 . S
C854 H877 0.929 . S
C855 C854 1.398 . S
C855 C856 1.352 . S
C856 C855 1.352 . S
C856 C857 1.384 . S
C856 H878 0.930 . S
C857 C852 1.407 . S
C857 C856 1.384 . S
C857 H879 0.929 . S
C858 O868 1.241 . S
C858 O869 1.273 . S
C859 O870 1.251 . S
C859 O871 1.268 . S
O860 Nd840 2.500 . S
O860 C842 1.258 . S
O861 Nd840 2.492 . S
O861 C842 1.239 . S
O862 Nd840 2.487 . S
O862 C849 1.241 . S
O863 Nd840 2.682 . S
O863 Nd841 2.414 . S
O863 C849 1.273 . S
O864 Nd840 2.410 . S
O864 C850 1.251 . S
O865 Nd841 2.424 . S
O865 C850 1.268 . S
O866 Nd841 2.500 . S
O866 C851 1.258 . S
O867 Nd841 2.492 . S
O867 C851 1.239 . S
O868 Nd841 2.487 . S
O868 C858 1.241 . S
O869 Nd840 2.414 . S
O869 Nd841 2.682 . S
O869 C858 1.273 . S
O870 Nd841 2.410 . S
O870 C859 1.251 . S
O871 Nd840 2.424 . S
O871 C859 1.268 . S
H872 C844 0.930 . S
H873 C845 0.929 . S
H874 C847 0.930 . S
H875 C848 0.929 . S
H876 C853 0.930 . S
H877 C854 0.929 . S
H878 C856 0.930 . S
H879 C857 0.929 . S
Nd880 C882 2.836 . S
Nd880 O900 2.500 . S
Nd880 O901 2.492 . S
Nd880 O902 2.487 . S
Nd880 O903 2.682 . S
Nd880 O904 2.410 . S
Nd880 O909 2.414 . S
Nd880 O911 2.424 . S
Nd881 C891 2.836 . S
Nd881 O903 2.414 . S
Nd881 O905 2.424 . S
Nd881 O906 2.500 . S
Nd881 O907 2.492 . S
Nd881 O908 2.487 . S
Nd881 O909 2.682 . S
Nd881 O910 2.410 . S
C882 Nd880 2.836 . S
C882 C883 1.498 . S
C882 O900 1.258 . S
C882 O901 1.239 . S
C883 C882 1.498 . S
C883 C884 1.366 . S
C883 C888 1.407 . S
C884 C883 1.366 . S
C884 C885 1.392 . S
C884 H912 0.930 . S
C885 C884 1.392 . S
C885 C886 1.398 . S
C885 H913 0.929 . S
C886 C885 1.398 . S
C886 C887 1.352 . S
C887 C886 1.352 . S
C887 C888 1.384 . S
C887 H914 0.930 . S
C888 C883 1.407 . S
C888 C887 1.384 . S
C888 H915 0.929 . S
C889 O902 1.241 . S
C889 O903 1.273 . S
C890 O904 1.251 . S
C890 O905 1.268 . S
C891 Nd881 2.836 . S
C891 C892 1.498 . S
C891 O906 1.258 . S
C891 O907 1.239 . S
C892 C891 1.498 . S
C892 C893 1.366 . S
C892 C897 1.407 . S
C893 C892 1.366 . S
C893 C894 1.392 . S
C893 H916 0.930 . S
C894 C893 1.392 . S
C894 C895 1.398 . S
C894 H917 0.929 . S
C895 C894 1.398 . S
C895 C896 1.352 . S
C896 C895 1.352 . S
C896 C897 1.384 . S
C896 H918 0.930 . S
C897 C892 1.407 . S
C897 C896 1.384 . S
C897 H919 0.929 . S
C898 O908 1.241 . S
C898 O909 1.273 . S
C899 O910 1.251 . S
C899 O911 1.268 . S
O900 Nd880 2.500 . S
O900 C882 1.258 . S
O901 Nd880 2.492 . S
O901 C882 1.239 . S
O902 Nd880 2.487 . S
O902 C889 1.241 . S
O903 Nd880 2.682 . S
O903 Nd881 2.414 . S
O903 C889 1.273 . S
O904 Nd880 2.410 . S
O904 C890 1.251 . S
O905 Nd881 2.424 . S
O905 C890 1.268 . S
O906 Nd881 2.500 . S
O906 C891 1.258 . S
O907 Nd881 2.492 . S
O907 C891 1.239 . S
O908 Nd881 2.487 . S
O908 C898 1.241 . S
O909 Nd880 2.414 . S
O909 Nd881 2.682 . S
O909 C898 1.273 . S
O910 Nd881 2.410 . S
O910 C899 1.251 . S
O911 Nd880 2.424 . S
O911 C899 1.268 . S
H912 C884 0.930 . S
H913 C885 0.929 . S
H914 C887 0.930 . S
H915 C888 0.929 . S
H916 C893 0.930 . S
H917 C894 0.929 . S
H918 C896 0.930 . S
H919 C897 0.929 . S
Nd920 C922 2.836 . S
Nd920 O940 2.500 . S
Nd920 O941 2.492 . S
Nd920 O942 2.487 . S
Nd920 O943 2.682 . S
Nd920 O944 2.410 . S
Nd920 O949 2.414 . S
Nd920 O951 2.424 . S
Nd921 C931 2.836 . S
Nd921 O943 2.414 . S
Nd921 O945 2.424 . S
Nd921 O946 2.500 . S
Nd921 O947 2.492 . S
Nd921 O948 2.487 . S
Nd921 O949 2.682 . S
Nd921 O950 2.410 . S
C922 Nd920 2.836 . S
C922 C923 1.498 . S
C922 O940 1.258 . S
C922 O941 1.239 . S
C923 C922 1.498 . S
C923 C924 1.366 . S
C923 C928 1.407 . S
C924 C923 1.366 . S
C924 C925 1.392 . S
C924 H952 0.930 . S
C925 C924 1.392 . S
C925 C926 1.398 . S
C925 H953 0.929 . S
C926 C925 1.398 . S
C926 C927 1.352 . S
C927 C926 1.352 . S
C927 C928 1.384 . S
C927 H954 0.930 . S
C928 C923 1.407 . S
C928 C927 1.384 . S
C928 H955 0.929 . S
C929 O942 1.241 . S
C929 O943 1.273 . S
C930 O944 1.251 . S
C930 O945 1.268 . S
C931 Nd921 2.836 . S
C931 C932 1.498 . S
C931 O946 1.258 . S
C931 O947 1.239 . S
C932 C931 1.498 . S
C932 C933 1.366 . S
C932 C937 1.407 . S
C933 C932 1.366 . S
C933 C934 1.392 . S
C933 H956 0.930 . S
C934 C933 1.392 . S
C934 C935 1.398 . S
C934 H957 0.929 . S
C935 C934 1.398 . S
C935 C936 1.352 . S
C936 C935 1.352 . S
C936 C937 1.384 . S
C936 H958 0.930 . S
C937 C932 1.407 . S
C937 C936 1.384 . S
C937 H959 0.929 . S
C938 O948 1.241 . S
C938 O949 1.273 . S
C939 O950 1.251 . S
C939 O951 1.268 . S
O940 Nd920 2.500 . S
O940 C922 1.258 . S
O941 Nd920 2.492 . S
O941 C922 1.239 . S
O942 Nd920 2.487 . S
O942 C929 1.241 . S
O943 Nd920 2.682 . S
O943 Nd921 2.414 . S
O943 C929 1.273 . S
O944 Nd920 2.410 . S
O944 C930 1.251 . S
O945 Nd921 2.424 . S
O945 C930 1.268 . S
O946 Nd921 2.500 . S
O946 C931 1.258 . S
O947 Nd921 2.492 . S
O947 C931 1.239 . S
O948 Nd921 2.487 . S
O948 C938 1.241 . S
O949 Nd920 2.414 . S
O949 Nd921 2.682 . S
O949 C938 1.273 . S
O950 Nd921 2.410 . S
O950 C939 1.251 . S
O951 Nd920 2.424 . S
O951 C939 1.268 . S
H952 C924 0.930 . S
H953 C925 0.929 . S
H954 C927 0.930 . S
H955 C928 0.929 . S
H956 C933 0.930 . S
H957 C934 0.929 . S
H958 C936 0.930 . S
H959 C937 0.929 . S
Nd960 C962 2.836 . S
Nd960 O980 2.500 . S
Nd960 O981 2.492 . S
Nd960 O982 2.487 . S
Nd960 O983 2.682 1_565 S
Nd960 O984 2.410 . S
Nd960 O989 2.414 . S
Nd960 O991 2.424 . S
Nd961 C971 2.836 . S
Nd961 O983 2.414 . S
Nd961 O985 2.424 . S
Nd961 O986 2.500 . S
Nd961 O987 2.492 . S
Nd961 O988 2.487 . S
Nd961 O989 2.682 1_545 S
Nd961 O990 2.410 . S
C962 Nd960 2.836 . S
C962 C963 1.498 . S
C962 O980 1.258 . S
C962 O981 1.239 . S
C963 C962 1.498 . S
C963 C964 1.366 . S
C963 C968 1.407 . S
C964 C963 1.366 . S
C964 C965 1.392 . S
C964 H992 0.930 . S
C965 C964 1.392 . S
C965 C966 1.398 . S
C965 H993 0.929 . S
C966 C965 1.398 . S
C966 C967 1.352 . S
C967 C966 1.352 . S
C967 C968 1.384 . S
C967 H994 0.930 . S
C968 C963 1.407 . S
C968 C967 1.384 . S
C968 H995 0.929 . S
C969 O982 1.241 . S
C969 O983 1.273 1_565 S
C970 O984 1.251 . S
C970 O985 1.268 1_565 S
C971 Nd961 2.836 . S
C971 C972 1.498 . S
C971 O986 1.258 . S
C971 O987 1.239 . S
C972 C971 1.498 . S
C972 C973 1.366 . S
C972 C977 1.407 . S
C973 C972 1.366 . S
C973 C974 1.392 . S
C973 H996 0.930 . S
C974 C973 1.392 . S
C974 C975 1.398 . S
C974 H997 0.929 . S
C975 C974 1.398 . S
C975 C976 1.352 . S
C976 C975 1.352 . S
C976 C977 1.384 . S
C976 H998 0.930 . S
C977 C972 1.407 . S
C977 C976 1.384 . S
C977 H999 0.929 . S
C978 O988 1.241 . S
C978 O989 1.273 1_545 S
C979 O990 1.251 . S
C979 O991 1.268 1_545 S
O980 Nd960 2.500 . S
O980 C962 1.258 . S
O981 Nd960 2.492 . S
O981 C962 1.239 . S
O982 Nd960 2.487 . S
O982 C969 1.241 . S
O983 Nd960 2.682 1_545 S
O983 Nd961 2.414 . S
O983 C969 1.273 1_545 S
O984 Nd960 2.410 . S
O984 C970 1.251 . S
O985 Nd961 2.424 . S
O985 C970 1.268 1_545 S
O986 Nd961 2.500 . S
O986 C971 1.258 . S
O987 Nd961 2.492 . S
O987 C971 1.239 . S
O988 Nd961 2.487 . S
O988 C978 1.241 . S
O989 Nd960 2.414 . S
O989 Nd961 2.682 1_565 S
O989 C978 1.273 1_565 S
O990 Nd961 2.410 . S
O990 C979 1.251 . S
O991 Nd960 2.424 . S
O991 C979 1.268 1_565 S
H992 C964 0.930 . S
H993 C965 0.929 . S
H994 C967 0.930 . S
H995 C968 0.929 . S
H996 C973 0.930 . S
H997 C974 0.929 . S
H998 C976 0.930 . S
H999 C977 0.929 . S
Nd1000 C1002 2.836 . S
Nd1000 O1020 2.500 . S
Nd1000 O1021 2.492 . S
Nd1000 O1022 2.487 . S
Nd1000 O1023 2.682 . S
Nd1000 O1024 2.410 . S
Nd1000 O1029 2.414 . S
Nd1000 O1031 2.424 . S
Nd1001 C1011 2.836 . S
Nd1001 O1023 2.414 . S
Nd1001 O1025 2.424 . S
Nd1001 O1026 2.500 . S
Nd1001 O1027 2.492 . S
Nd1001 O1028 2.487 . S
Nd1001 O1029 2.682 . S
Nd1001 O1030 2.410 . S
C1002 Nd1000 2.836 . S
C1002 C1003 1.498 . S
C1002 O1020 1.258 . S
C1002 O1021 1.239 . S
C1003 C1002 1.498 . S
C1003 C1004 1.366 . S
C1003 C1008 1.407 . S
C1004 C1003 1.366 . S
C1004 C1005 1.392 . S
C1004 H1032 0.930 . S
C1005 C1004 1.392 . S
C1005 C1006 1.398 . S
C1005 H1033 0.929 . S
C1006 C1005 1.398 . S
C1006 C1007 1.352 . S
C1007 C1006 1.352 . S
C1007 C1008 1.384 . S
C1007 H1034 0.930 . S
C1008 C1003 1.407 . S
C1008 C1007 1.384 . S
C1008 H1035 0.929 . S
C1009 O1022 1.241 . S
C1009 O1023 1.273 . S
C1010 O1024 1.251 . S
C1010 O1025 1.268 . S
C1011 Nd1001 2.836 . S
C1011 C1012 1.498 . S
C1011 O1026 1.258 . S
C1011 O1027 1.239 . S
C1012 C1011 1.498 . S
C1012 C1013 1.366 . S
C1012 C1017 1.407 . S
C1013 C1012 1.366 . S
C1013 C1014 1.392 . S
C1013 H1036 0.930 . S
C1014 C1013 1.392 . S
C1014 C1015 1.398 . S
C1014 H1037 0.929 . S
C1015 C1014 1.398 . S
C1015 C1016 1.352 . S
C1016 C1015 1.352 . S
C1016 C1017 1.384 . S
C1016 H1038 0.930 . S
C1017 C1012 1.407 . S
C1017 C1016 1.384 . S
C1017 H1039 0.929 . S
C1018 O1028 1.241 . S
C1018 O1029 1.273 . S
C1019 O1030 1.251 . S
C1019 O1031 1.268 . S
O1020 Nd1000 2.500 . S
O1020 C1002 1.258 . S
O1021 Nd1000 2.492 . S
O1021 C1002 1.239 . S
O1022 Nd1000 2.487 . S
O1022 C1009 1.241 . S
O1023 Nd1000 2.682 . S
O1023 Nd1001 2.414 . S
O1023 C1009 1.273 . S
O1024 Nd1000 2.410 . S
O1024 C1010 1.251 . S
O1025 Nd1001 2.424 . S
O1025 C1010 1.268 . S
O1026 Nd1001 2.500 . S
O1026 C1011 1.258 . S
O1027 Nd1001 2.492 . S
O1027 C1011 1.239 . S
O1028 Nd1001 2.487 . S
O1028 C1018 1.241 . S
O1029 Nd1000 2.414 . S
O1029 Nd1001 2.682 . S
O1029 C1018 1.273 . S
O1030 Nd1001 2.410 . S
O1030 C1019 1.251 . S
O1031 Nd1000 2.424 . S
O1031 C1019 1.268 . S
H1032 C1004 0.930 . S
H1033 C1005 0.929 . S
H1034 C1007 0.930 . S
H1035 C1008 0.929 . S
H1036 C1013 0.930 . S
H1037 C1014 0.929 . S
H1038 C1016 0.930 . S
H1039 C1017 0.929 . S
Nd1040 C1042 2.836 . S
Nd1040 O1060 2.500 . S
Nd1040 O1061 2.492 . S
Nd1040 O1062 2.487 . S
Nd1040 O1063 2.682 . S
Nd1040 O1064 2.410 . S
Nd1040 O1069 2.414 . S
Nd1040 O1071 2.424 . S
Nd1041 C1051 2.836 . S
Nd1041 O1063 2.414 . S
Nd1041 O1065 2.424 . S
Nd1041 O1066 2.500 . S
Nd1041 O1067 2.492 . S
Nd1041 O1068 2.487 . S
Nd1041 O1069 2.682 . S
Nd1041 O1070 2.410 . S
C1042 Nd1040 2.836 . S
C1042 C1043 1.498 . S
C1042 O1060 1.258 . S
C1042 O1061 1.239 . S
C1043 C1042 1.498 . S
C1043 C1044 1.366 . S
C1043 C1048 1.407 . S
C1044 C1043 1.366 . S
C1044 C1045 1.392 . S
C1044 H1072 0.930 . S
C1045 C1044 1.392 . S
C1045 C1046 1.398 . S
C1045 H1073 0.929 . S
C1046 C1045 1.398 . S
C1046 C1047 1.352 . S
C1047 C1046 1.352 . S
C1047 C1048 1.384 . S
C1047 H1074 0.930 . S
C1048 C1043 1.407 . S
C1048 C1047 1.384 . S
C1048 H1075 0.929 . S
C1049 O1062 1.241 . S
C1049 O1063 1.273 . S
C1050 O1064 1.251 . S
C1050 O1065 1.268 . S
C1051 Nd1041 2.836 . S
C1051 C1052 1.498 . S
C1051 O1066 1.258 . S
C1051 O1067 1.239 . S
C1052 C1051 1.498 . S
C1052 C1053 1.366 . S
C1052 C1057 1.407 . S
C1053 C1052 1.366 . S
C1053 C1054 1.392 . S
C1053 H1076 0.930 . S
C1054 C1053 1.392 . S
C1054 C1055 1.398 . S
C1054 H1077 0.929 . S
C1055 C1054 1.398 . S
C1055 C1056 1.352 . S
C1056 C1055 1.352 . S
C1056 C1057 1.384 . S
C1056 H1078 0.930 . S
C1057 C1052 1.407 . S
C1057 C1056 1.384 . S
C1057 H1079 0.929 . S
C1058 O1068 1.241 . S
C1058 O1069 1.273 . S
C1059 O1070 1.251 . S
C1059 O1071 1.268 . S
O1060 Nd1040 2.500 . S
O1060 C1042 1.258 . S
O1061 Nd1040 2.492 . S
O1061 C1042 1.239 . S
O1062 Nd1040 2.487 . S
O1062 C1049 1.241 . S
O1063 Nd1040 2.682 . S
O1063 Nd1041 2.414 . S
O1063 C1049 1.273 . S
O1064 Nd1040 2.410 . S
O1064 C1050 1.251 . S
O1065 Nd1041 2.424 . S
O1065 C1050 1.268 . S
O1066 Nd1041 2.500 . S
O1066 C1051 1.258 . S
O1067 Nd1041 2.492 . S
O1067 C1051 1.239 . S
O1068 Nd1041 2.487 . S
O1068 C1058 1.241 . S
O1069 Nd1040 2.414 . S
O1069 Nd1041 2.682 . S
O1069 C1058 1.273 . S
O1070 Nd1041 2.410 . S
O1070 C1059 1.251 . S
O1071 Nd1040 2.424 . S
O1071 C1059 1.268 . S
H1072 C1044 0.930 . S
H1073 C1045 0.929 . S
H1074 C1047 0.930 . S
H1075 C1048 0.929 . S
H1076 C1053 0.930 . S
H1077 C1054 0.929 . S
H1078 C1056 0.930 . S
H1079 C1057 0.929 . S
Nd1080 C1082 2.836 . S
Nd1080 O1100 2.500 . S
Nd1080 O1101 2.492 . S
Nd1080 O1102 2.487 . S
Nd1080 O1103 2.682 1_565 S
Nd1080 O1104 2.410 . S
Nd1080 O1109 2.414 . S
Nd1080 O1111 2.424 . S
Nd1081 C1091 2.836 . S
Nd1081 O1103 2.414 . S
Nd1081 O1105 2.424 . S
Nd1081 O1106 2.500 . S
Nd1081 O1107 2.492 . S
Nd1081 O1108 2.487 . S
Nd1081 O1109 2.682 1_545 S
Nd1081 O1110 2.410 . S
C1082 Nd1080 2.836 . S
C1082 C1083 1.498 . S
C1082 O1100 1.258 . S
C1082 O1101 1.239 . S
C1083 C1082 1.498 . S
C1083 C1084 1.366 . S
C1083 C1088 1.407 . S
C1084 C1083 1.366 . S
C1084 C1085 1.392 . S
C1084 H1112 0.930 . S
C1085 C1084 1.392 . S
C1085 C1086 1.398 . S
C1085 H1113 0.929 . S
C1086 C1085 1.398 . S
C1086 C1087 1.352 . S
C1087 C1086 1.352 . S
C1087 C1088 1.384 . S
C1087 H1114 0.930 . S
C1088 C1083 1.407 . S
C1088 C1087 1.384 . S
C1088 H1115 0.929 . S
C1089 O1102 1.241 . S
C1089 O1103 1.273 1_565 S
C1090 O1104 1.251 . S
C1090 O1105 1.268 1_565 S
C1091 Nd1081 2.836 . S
C1091 C1092 1.498 . S
C1091 O1106 1.258 . S
C1091 O1107 1.239 . S
C1092 C1091 1.498 . S
C1092 C1093 1.366 . S
C1092 C1097 1.407 . S
C1093 C1092 1.366 . S
C1093 C1094 1.392 . S
C1093 H1116 0.930 . S
C1094 C1093 1.392 . S
C1094 C1095 1.398 . S
C1094 H1117 0.929 . S
C1095 C1094 1.398 . S
C1095 C1096 1.352 . S
C1096 C1095 1.352 . S
C1096 C1097 1.384 . S
C1096 H1118 0.930 . S
C1097 C1092 1.407 . S
C1097 C1096 1.384 . S
C1097 H1119 0.929 . S
C1098 O1108 1.241 . S
C1098 O1109 1.273 1_545 S
C1099 O1110 1.251 . S
C1099 O1111 1.268 1_545 S
O1100 Nd1080 2.500 . S
O1100 C1082 1.258 . S
O1101 Nd1080 2.492 . S
O1101 C1082 1.239 . S
O1102 Nd1080 2.487 . S
O1102 C1089 1.241 . S
O1103 Nd1080 2.682 1_545 S
O1103 Nd1081 2.414 . S
O1103 C1089 1.273 1_545 S
O1104 Nd1080 2.410 . S
O1104 C1090 1.251 . S
O1105 Nd1081 2.424 . S
O1105 C1090 1.268 1_545 S
O1106 Nd1081 2.500 . S
O1106 C1091 1.258 . S
O1107 Nd1081 2.492 . S
O1107 C1091 1.239 . S
O1108 Nd1081 2.487 . S
O1108 C1098 1.241 . S
O1109 Nd1080 2.414 . S
O1109 Nd1081 2.682 1_565 S
O1109 C1098 1.273 1_565 S
O1110 Nd1081 2.410 . S
O1110 C1099 1.251 . S
O1111 Nd1080 2.424 . S
O1111 C1099 1.268 1_565 S
H1112 C1084 0.930 . S
H1113 C1085 0.929 . S
H1114 C1087 0.930 . S
H1115 C1088 0.929 . S
H1116 C1093 0.930 . S
H1117 C1094 0.929 . S
H1118 C1096 0.930 . S
H1119 C1097 0.929 . S
Nd1120 C1122 2.836 . S
Nd1120 O1140 2.500 . S
Nd1120 O1141 2.492 . S
Nd1120 O1142 2.487 . S
Nd1120 O1143 2.682 1_565 S
Nd1120 O1144 2.410 . S
Nd1120 O1149 2.414 . S
Nd1120 O1151 2.424 . S
Nd1121 C1131 2.836 . S
Nd1121 O1143 2.414 . S
Nd1121 O1145 2.424 . S
Nd1121 O1146 2.500 . S
Nd1121 O1147 2.492 . S
Nd1121 O1148 2.487 . S
Nd1121 O1149 2.682 1_545 S
Nd1121 O1150 2.410 . S
C1122 Nd1120 2.836 . S
C1122 C1123 1.498 . S
C1122 O1140 1.258 . S
C1122 O1141 1.239 . S
C1123 C1122 1.498 . S
C1123 C1124 1.366 . S
C1123 C1128 1.407 . S
C1124 C1123 1.366 . S
C1124 C1125 1.392 . S
C1124 H1152 0.930 . S
C1125 C1124 1.392 . S
C1125 C1126 1.398 . S
C1125 H1153 0.929 . S
C1126 C1125 1.398 . S
C1126 C1127 1.352 . S
C1127 C1126 1.352 . S
C1127 C1128 1.384 . S
C1127 H1154 0.930 . S
C1128 C1123 1.407 . S
C1128 C1127 1.384 . S
C1128 H1155 0.929 . S
C1129 O1142 1.241 . S
C1129 O1143 1.273 1_565 S
C1130 O1144 1.251 . S
C1130 O1145 1.268 1_565 S
C1131 Nd1121 2.836 . S
C1131 C1132 1.498 . S
C1131 O1146 1.258 . S
C1131 O1147 1.239 . S
C1132 C1131 1.498 . S
C1132 C1133 1.366 . S
C1132 C1137 1.407 . S
C1133 C1132 1.366 . S
C1133 C1134 1.392 . S
C1133 H1156 0.930 . S
C1134 C1133 1.392 . S
C1134 C1135 1.398 . S
C1134 H1157 0.929 . S
C1135 C1134 1.398 . S
C1135 C1136 1.352 . S
C1136 C1135 1.352 . S
C1136 C1137 1.384 . S
C1136 H1158 0.930 . S
C1137 C1132 1.407 . S
C1137 C1136 1.384 . S
C1137 H1159 0.929 . S
C1138 O1148 1.241 . S
C1138 O1149 1.273 1_545 S
C1139 O1150 1.251 . S
C1139 O1151 1.268 1_545 S
O1140 Nd1120 2.500 . S
O1140 C1122 1.258 . S
O1141 Nd1120 2.492 . S
O1141 C1122 1.239 . S
O1142 Nd1120 2.487 . S
O1142 C1129 1.241 . S
O1143 Nd1120 2.682 1_545 S
O1143 Nd1121 2.414 . S
O1143 C1129 1.273 1_545 S
O1144 Nd1120 2.410 . S
O1144 C1130 1.251 . S
O1145 Nd1121 2.424 . S
O1145 C1130 1.268 1_545 S
O1146 Nd1121 2.500 . S
O1146 C1131 1.258 . S
O1147 Nd1121 2.492 . S
O1147 C1131 1.239 . S
O1148 Nd1121 2.487 . S
O1148 C1138 1.241 . S
O1149 Nd1120 2.414 . S
O1149 Nd1121 2.682 1_565 S
O1149 C1138 1.273 1_565 S
O1150 Nd1121 2.410 . S
O1150 C1139 1.251 . S
O1151 Nd1120 2.424 . S
O1151 C1139 1.268 1_565 S
H1152 C1124 0.930 . S
H1153 C1125 0.929 . S
H1154 C1127 0.930 . S
H1155 C1128 0.929 . S
H1156 C1133 0.930 . S
H1157 C1134 0.929 . S
H1158 C1136 0.930 . S
H1159 C1137 0.929 . S
Nd1160 C1162 2.836 . S
Nd1160 O1180 2.500 . S
Nd1160 O1181 2.492 . S
Nd1160 O1182 2.487 . S
Nd1160 O1183 2.682 . S
Nd1160 O1184 2.410 . S
Nd1160 O1189 2.414 . S
Nd1160 O1191 2.424 . S
Nd1161 C1171 2.836 . S
Nd1161 O1183 2.414 . S
Nd1161 O1185 2.424 . S
Nd1161 O1186 2.500 . S
Nd1161 O1187 2.492 . S
Nd1161 O1188 2.487 . S
Nd1161 O1189 2.682 . S
Nd1161 O1190 2.410 . S
C1162 Nd1160 2.836 . S
C1162 C1163 1.498 . S
C1162 O1180 1.258 . S
C1162 O1181 1.239 . S
C1163 C1162 1.498 . S
C1163 C1164 1.366 . S
C1163 C1168 1.407 . S
C1164 C1163 1.366 . S
C1164 C1165 1.392 . S
C1164 H1192 0.930 . S
C1165 C1164 1.392 . S
C1165 C1166 1.398 . S
C1165 H1193 0.929 . S
C1166 C1165 1.398 . S
C1166 C1167 1.352 . S
C1167 C1166 1.352 . S
C1167 C1168 1.384 . S
C1167 H1194 0.930 . S
C1168 C1163 1.407 . S
C1168 C1167 1.384 . S
C1168 H1195 0.929 . S
C1169 O1182 1.241 . S
C1169 O1183 1.273 . S
C1170 O1184 1.251 . S
C1170 O1185 1.268 . S
C1171 Nd1161 2.836 . S
C1171 C1172 1.498 . S
C1171 O1186 1.258 . S
C1171 O1187 1.239 . S
C1172 C1171 1.498 . S
C1172 C1173 1.366 . S
C1172 C1177 1.407 . S
C1173 C1172 1.366 . S
C1173 C1174 1.392 . S
C1173 H1196 0.930 . S
C1174 C1173 1.392 . S
C1174 C1175 1.398 . S
C1174 H1197 0.929 . S
C1175 C1174 1.398 . S
C1175 C1176 1.352 . S
C1176 C1175 1.352 . S
C1176 C1177 1.384 . S
C1176 H1198 0.930 . S
C1177 C1172 1.407 . S
C1177 C1176 1.384 . S
C1177 H1199 0.929 . S
C1178 O1188 1.241 . S
C1178 O1189 1.273 . S
C1179 O1190 1.251 . S
C1179 O1191 1.268 . S
O1180 Nd1160 2.500 . S
O1180 C1162 1.258 . S
O1181 Nd1160 2.492 . S
O1181 C1162 1.239 . S
O1182 Nd1160 2.487 . S
O1182 C1169 1.241 . S
O1183 Nd1160 2.682 . S
O1183 Nd1161 2.414 . S
O1183 C1169 1.273 . S
O1184 Nd1160 2.410 . S
O1184 C1170 1.251 . S
O1185 Nd1161 2.424 . S
O1185 C1170 1.268 . S
O1186 Nd1161 2.500 . S
O1186 C1171 1.258 . S
O1187 Nd1161 2.492 . S
O1187 C1171 1.239 . S
O1188 Nd1161 2.487 . S
O1188 C1178 1.241 . S
O1189 Nd1160 2.414 . S
O1189 Nd1161 2.682 . S
O1189 C1178 1.273 . S
O1190 Nd1161 2.410 . S
O1190 C1179 1.251 . S
O1191 Nd1160 2.424 . S
O1191 C1179 1.268 . S
H1192 C1164 0.930 . S
H1193 C1165 0.929 . S
H1194 C1167 0.930 . S
H1195 C1168 0.929 . S
H1196 C1173 0.930 . S
H1197 C1174 0.929 . S
H1198 C1176 0.930 . S
H1199 C1177 0.929 . S
Nd1200 C1202 2.836 . S
Nd1200 O1220 2.500 . S
Nd1200 O1221 2.492 . S
Nd1200 O1222 2.487 . S
Nd1200 O1223 2.682 . S
Nd1200 O1224 2.410 . S
Nd1200 O1229 2.414 . S
Nd1200 O1231 2.424 . S
Nd1201 C1211 2.836 . S
Nd1201 O1223 2.414 . S
Nd1201 O1225 2.424 . S
Nd1201 O1226 2.500 . S
Nd1201 O1227 2.492 . S
Nd1201 O1228 2.487 . S
Nd1201 O1229 2.682 . S
Nd1201 O1230 2.410 . S
C1202 Nd1200 2.836 . S
C1202 C1203 1.498 . S
C1202 O1220 1.258 . S
C1202 O1221 1.239 . S
C1203 C1202 1.498 . S
C1203 C1204 1.366 . S
C1203 C1208 1.407 . S
C1204 C1203 1.366 . S
C1204 C1205 1.392 . S
C1204 H1232 0.930 . S
C1205 C1204 1.392 . S
C1205 C1206 1.398 . S
C1205 H1233 0.929 . S
C1206 C1205 1.398 . S
C1206 C1207 1.352 . S
C1207 C1206 1.352 . S
C1207 C1208 1.384 . S
C1207 H1234 0.930 . S
C1208 C1203 1.407 . S
C1208 C1207 1.384 . S
C1208 H1235 0.929 . S
C1209 O1222 1.241 . S
C1209 O1223 1.273 . S
C1210 O1224 1.251 . S
C1210 O1225 1.268 . S
C1211 Nd1201 2.836 . S
C1211 C1212 1.498 . S
C1211 O1226 1.258 . S
C1211 O1227 1.239 . S
C1212 C1211 1.498 . S
C1212 C1213 1.366 . S
C1212 C1217 1.407 . S
C1213 C1212 1.366 . S
C1213 C1214 1.392 . S
C1213 H1236 0.930 . S
C1214 C1213 1.392 . S
C1214 C1215 1.398 . S
C1214 H1237 0.929 . S
C1215 C1214 1.398 . S
C1215 C1216 1.352 . S
C1216 C1215 1.352 . S
C1216 C1217 1.384 . S
C1216 H1238 0.930 . S
C1217 C1212 1.407 . S
C1217 C1216 1.384 . S
C1217 H1239 0.929 . S
C1218 O1228 1.241 . S
C1218 O1229 1.273 . S
C1219 O1230 1.251 . S
C1219 O1231 1.268 . S
O1220 Nd1200 2.500 . S
O1220 C1202 1.258 . S
O1221 Nd1200 2.492 . S
O1221 C1202 1.239 . S
O1222 Nd1200 2.487 . S
O1222 C1209 1.241 . S
O1223 Nd1200 2.682 . S
O1223 Nd1201 2.414 . S
O1223 C1209 1.273 . S
O1224 Nd1200 2.410 . S
O1224 C1210 1.251 . S
O1225 Nd1201 2.424 . S
O1225 C1210 1.268 . S
O1226 Nd1201 2.500 . S
O1226 C1211 1.258 . S
O1227 Nd1201 2.492 . S
O1227 C1211 1.239 . S
O1228 Nd1201 2.487 . S
O1228 C1218 1.241 . S
O1229 Nd1200 2.414 . S
O1229 Nd1201 2.682 . S
O1229 C1218 1.273 . S
O1230 Nd1201 2.410 . S
O1230 C1219 1.251 . S
O1231 Nd1200 2.424 . S
O1231 C1219 1.268 . S
H1232 C1204 0.930 . S
H1233 C1205 0.929 . S
H1234 C1207 0.930 . S
H1235 C1208 0.929 . S
H1236 C1213 0.930 . S
H1237 C1214 0.929 . S
H1238 C1216 0.930 . S
H1239 C1217 0.929 . S
Nd1240 C1242 2.836 . S
Nd1240 O1260 2.500 . S
Nd1240 O1261 2.492 . S
Nd1240 O1262 2.487 . S
Nd1240 O1263 2.682 1_565 S
Nd1240 O1264 2.410 . S
Nd1240 O1269 2.414 . S
Nd1240 O1271 2.424 . S
Nd1241 C1251 2.836 . S
Nd1241 O1263 2.414 . S
Nd1241 O1265 2.424 . S
Nd1241 O1266 2.500 . S
Nd1241 O1267 2.492 . S
Nd1241 O1268 2.487 . S
Nd1241 O1269 2.682 1_545 S
Nd1241 O1270 2.410 . S
C1242 Nd1240 2.836 . S
C1242 C1243 1.498 . S
C1242 O1260 1.258 . S
C1242 O1261 1.239 . S
C1243 C1242 1.498 . S
C1243 C1244 1.366 . S
C1243 C1248 1.407 . S
C1244 C1243 1.366 . S
C1244 C1245 1.392 . S
C1244 H1272 0.930 . S
C1245 C1244 1.392 . S
C1245 C1246 1.398 . S
C1245 H1273 0.929 . S
C1246 C1245 1.398 . S
C1246 C1247 1.352 . S
C1247 C1246 1.352 . S
C1247 C1248 1.384 . S
C1247 H1274 0.930 . S
C1248 C1243 1.407 . S
C1248 C1247 1.384 . S
C1248 H1275 0.929 . S
C1249 O1262 1.241 . S
C1249 O1263 1.273 1_565 S
C1250 O1264 1.251 . S
C1250 O1265 1.268 1_565 S
C1251 Nd1241 2.836 . S
C1251 C1252 1.498 . S
C1251 O1266 1.258 . S
C1251 O1267 1.239 . S
C1252 C1251 1.498 . S
C1252 C1253 1.366 . S
C1252 C1257 1.407 . S
C1253 C1252 1.366 . S
C1253 C1254 1.392 . S
C1253 H1276 0.930 . S
C1254 C1253 1.392 . S
C1254 C1255 1.398 . S
C1254 H1277 0.929 . S
C1255 C1254 1.398 . S
C1255 C1256 1.352 . S
C1256 C1255 1.352 . S
C1256 C1257 1.384 . S
C1256 H1278 0.930 . S
C1257 C1252 1.407 . S
C1257 C1256 1.384 . S
C1257 H1279 0.929 . S
C1258 O1268 1.241 . S
C1258 O1269 1.273 1_545 S
C1259 O1270 1.251 . S
C1259 O1271 1.268 1_545 S
O1260 Nd1240 2.500 . S
O1260 C1242 1.258 . S
O1261 Nd1240 2.492 . S
O1261 C1242 1.239 . S
O1262 Nd1240 2.487 . S
O1262 C1249 1.241 . S
O1263 Nd1240 2.682 1_545 S
O1263 Nd1241 2.414 . S
O1263 C1249 1.273 1_545 S
O1264 Nd1240 2.410 . S
O1264 C1250 1.251 . S
O1265 Nd1241 2.424 . S
O1265 C1250 1.268 1_545 S
O1266 Nd1241 2.500 . S
O1266 C1251 1.258 . S
O1267 Nd1241 2.492 . S
O1267 C1251 1.239 . S
O1268 Nd1241 2.487 . S
O1268 C1258 1.241 . S
O1269 Nd1240 2.414 . S
O1269 Nd1241 2.682 1_565 S
O1269 C1258 1.273 1_565 S
O1270 Nd1241 2.410 . S
O1270 C1259 1.251 . S
O1271 Nd1240 2.424 . S
O1271 C1259 1.268 1_565 S
H1272 C1244 0.930 . S
H1273 C1245 0.929 . S
H1274 C1247 0.930 . S
H1275 C1248 0.929 . S
H1276 C1253 0.930 . S
H1277 C1254 0.929 . S
H1278 C1256 0.930 . S
H1279 C1257 0.929 . S
H1280 C1288 0.950 . S
H1281 C1293 0.950 . S
H1282 C1290 0.950 . S
H1283 C1292 0.950 . S
H1284 C1294 0.950 . S
H1285 C1296 0.950 . S
H1286 C1298 0.950 . S
H1287 C1299 0.950 1_455 S
C1288 H1280 0.950 . S
C1288 C1289 1.386 . S
C1288 C1290 1.391 . S
C1289 C1288 1.386 . S
C1289 C1293 1.393 . S
C1290 H1282 0.950 . S
C1290 C1288 1.391 . S
C1290 C1291 1.400 . S
C1291 C1290 1.400 . S
C1291 C1292 1.398 . S
C1291 C1297 1.491 . S
C1292 H1283 0.950 . S
C1292 C1291 1.398 . S
C1292 C1293 1.391 . S
C1293 H1281 0.950 . S
C1293 C1289 1.393 . S
C1293 C1292 1.391 . S
C1294 H1284 0.950 . S
C1294 C1295 1.386 . S
C1294 C1296 1.391 . S
C1295 C1294 1.386 . S
C1295 C1299 1.393 . S
C1296 H1285 0.950 . S
C1296 C1294 1.391 . S
C1296 C1297 1.400 . S
C1297 C1291 1.491 . S
C1297 C1296 1.400 . S
C1297 C1298 1.398 . S
C1298 H1286 0.950 . S
C1298 C1297 1.398 . S
C1298 C1299 1.391 . S
C1299 H1287 0.950 1_655 S
C1299 C1295 1.393 . S
C1299 C1298 1.391 . S
H1300 C1308 0.950 . S
H1301 C1313 0.950 . S
H1302 C1310 0.950 . S
H1303 C1312 0.950 . S
H1304 C1314 0.950 . S
H1305 C1316 0.950 . S
H1306 C1318 0.950 . S
H1307 C1319 0.950 . S
C1308 H1300 0.950 . S
C1308 C1309 1.386 . S
C1308 C1310 1.391 . S
C1309 C1308 1.386 . S
C1309 C1313 1.393 . S
C1310 H1302 0.950 . S
C1310 C1308 1.391 . S
C1310 C1311 1.400 . S
C1311 C1310 1.400 . S
C1311 C1312 1.398 . S
C1311 C1317 1.491 . S
C1312 H1303 0.950 . S
C1312 C1311 1.398 . S
C1312 C1313 1.391 . S
C1313 H1301 0.950 . S
C1313 C1309 1.393 . S
C1313 C1312 1.391 . S
C1314 H1304 0.950 . S
C1314 C1315 1.386 . S
C1314 C1316 1.391 . S
C1315 C1314 1.386 . S
C1315 C1319 1.393 . S
C1316 H1305 0.950 . S
C1316 C1314 1.391 . S
C1316 C1317 1.400 . S
C1317 C1311 1.491 . S
C1317 C1316 1.400 . S
C1317 C1318 1.398 . S
C1318 H1306 0.950 . S
C1318 C1317 1.398 . S
C1318 C1319 1.391 . S
C1319 H1307 0.950 . S
C1319 C1315 1.393 . S
C1319 C1318 1.391 . S
H1320 C1328 0.950 . S
H1321 C1333 0.950 . S
H1322 C1330 0.950 . S
H1323 C1332 0.950 . S
H1324 C1334 0.950 . S
H1325 C1336 0.950 . S
H1326 C1338 0.950 . S
H1327 C1339 0.950 . S
C1328 H1320 0.950 . S
C1328 C1329 1.386 . S
C1328 C1330 1.391 . S
C1329 C1328 1.386 . S
C1329 C1333 1.393 . S
C1330 H1322 0.950 . S
C1330 C1328 1.391 . S
C1330 C1331 1.400 . S
C1331 C1330 1.400 . S
C1331 C1332 1.398 . S
C1331 C1337 1.491 . S
C1332 H1323 0.950 . S
C1332 C1331 1.398 . S
C1332 C1333 1.391 . S
C1333 H1321 0.950 . S
C1333 C1329 1.393 . S
C1333 C1332 1.391 . S
C1334 H1324 0.950 . S
C1334 C1335 1.386 . S
C1334 C1336 1.391 . S
C1335 C1334 1.386 . S
C1335 C1339 1.393 . S
C1336 H1325 0.950 . S
C1336 C1334 1.391 . S
C1336 C1337 1.400 . S
C1337 C1331 1.491 . S
C1337 C1336 1.400 . S
C1337 C1338 1.398 . S
C1338 H1326 0.950 . S
C1338 C1337 1.398 . S
C1338 C1339 1.391 . S
C1339 H1327 0.950 . S
C1339 C1335 1.393 . S
C1339 C1338 1.391 . S
H1340 C1348 0.950 . S
H1341 C1353 0.950 . S
H1342 C1350 0.950 . S
H1343 C1352 0.950 . S
H1344 C1354 0.950 . S
H1345 C1356 0.950 . S
H1346 C1358 0.950 . S
H1347 C1359 0.950 . S
C1348 H1340 0.950 . S
C1348 C1349 1.386 . S
C1348 C1350 1.391 . S
C1349 C1348 1.386 . S
C1349 C1353 1.393 . S
C1350 H1342 0.950 . S
C1350 C1348 1.391 . S
C1350 C1351 1.400 . S
C1351 C1350 1.400 . S
C1351 C1352 1.398 . S
C1351 C1357 1.491 . S
C1352 H1343 0.950 . S
C1352 C1351 1.398 . S
C1352 C1353 1.391 . S
C1353 H1341 0.950 . S
C1353 C1349 1.393 . S
C1353 C1352 1.391 . S
C1354 H1344 0.950 . S
C1354 C1355 1.386 . S
C1354 C1356 1.391 . S
C1355 C1354 1.386 . S
C1355 C1359 1.393 . S
C1356 H1345 0.950 . S
C1356 C1354 1.391 . S
C1356 C1357 1.400 . S
C1357 C1351 1.491 . S
C1357 C1356 1.400 . S
C1357 C1358 1.398 . S
C1358 H1346 0.950 . S
C1358 C1357 1.398 . S
C1358 C1359 1.391 . S
C1359 H1347 0.950 . S
C1359 C1355 1.393 . S
C1359 C1358 1.391 . S
H1360 C1368 0.950 . S
H1361 C1373 0.950 . S
H1362 C1370 0.950 . S
H1363 C1372 0.950 . S
H1364 C1374 0.950 . S
H1365 C1376 0.950 . S
H1366 C1378 0.950 . S
H1367 C1379 0.950 1_655 S
C1368 H1360 0.950 . S
C1368 C1369 1.386 . S
C1368 C1370 1.391 . S
C1369 C1368 1.386 . S
C1369 C1373 1.393 . S
C1370 H1362 0.950 . S
C1370 C1368 1.391 . S
C1370 C1371 1.400 . S
C1371 C1370 1.400 . S
C1371 C1372 1.398 . S
C1371 C1377 1.491 . S
C1372 H1363 0.950 . S
C1372 C1371 1.398 . S
C1372 C1373 1.391 . S
C1373 H1361 0.950 . S
C1373 C1369 1.393 . S
C1373 C1372 1.391 . S
C1374 H1364 0.950 . S
C1374 C1375 1.386 . S
C1374 C1376 1.391 . S
C1375 C1374 1.386 . S
C1375 C1379 1.393 . S
C1376 H1365 0.950 . S
C1376 C1374 1.391 . S
C1376 C1377 1.400 . S
C1377 C1371 1.491 . S
C1377 C1376 1.400 . S
C1377 C1378 1.398 . S
C1378 H1366 0.950 . S
C1378 C1377 1.398 . S
C1378 C1379 1.391 . S
C1379 H1367 0.950 1_455 S
C1379 C1375 1.393 . S
C1379 C1378 1.391 . S
H1380 C1388 0.950 . S
H1381 C1393 0.950 . S
H1382 C1390 0.950 . S
H1383 C1392 0.950 . S
H1384 C1394 0.950 . S
H1385 C1396 0.950 . S
H1386 C1398 0.950 . S
H1387 C1399 0.950 . S
C1388 H1380 0.950 . S
C1388 C1389 1.386 . S
C1388 C1390 1.391 . S
C1389 C1388 1.386 . S
C1389 C1393 1.393 . S
C1390 H1382 0.950 . S
C1390 C1388 1.391 . S
C1390 C1391 1.400 . S
C1391 C1390 1.400 . S
C1391 C1392 1.398 . S
C1391 C1397 1.491 . S
C1392 H1383 0.950 . S
C1392 C1391 1.398 . S
C1392 C1393 1.391 . S
C1393 H1381 0.950 . S
C1393 C1389 1.393 . S
C1393 C1392 1.391 . S
C1394 H1384 0.950 . S
C1394 C1395 1.386 . S
C1394 C1396 1.391 . S
C1395 C1394 1.386 . S
C1395 C1399 1.393 . S
C1396 H1385 0.950 . S
C1396 C1394 1.391 . S
C1396 C1397 1.400 . S
C1397 C1391 1.491 . S
C1397 C1396 1.400 . S
C1397 C1398 1.398 . S
C1398 H1386 0.950 . S
C1398 C1397 1.398 . S
C1398 C1399 1.391 . S
C1399 H1387 0.950 . S
C1399 C1395 1.393 . S
C1399 C1398 1.391 . S
H1400 C1408 0.950 . S
H1401 C1413 0.950 . S
H1402 C1410 0.950 . S
H1403 C1412 0.950 . S
H1404 C1414 0.950 . S
H1405 C1416 0.950 . S
H1406 C1418 0.950 . S
H1407 C1419 0.950 1_655 S
C1408 H1400 0.950 . S
C1408 C1409 1.386 . S
C1408 C1410 1.391 . S
C1409 C1408 1.386 . S
C1409 C1413 1.393 . S
C1410 H1402 0.950 . S
C1410 C1408 1.391 . S
C1410 C1411 1.400 . S
C1411 C1410 1.400 . S
C1411 C1412 1.398 . S
C1411 C1417 1.491 . S
C1412 H1403 0.950 . S
C1412 C1411 1.398 . S
C1412 C1413 1.391 . S
C1413 H1401 0.950 . S
C1413 C1409 1.393 . S
C1413 C1412 1.391 . S
C1414 H1404 0.950 . S
C1414 C1415 1.386 . S
C1414 C1416 1.391 . S
C1415 C1414 1.386 . S
C1415 C1419 1.393 . S
C1416 H1405 0.950 . S
C1416 C1414 1.391 . S
C1416 C1417 1.400 . S
C1417 C1411 1.491 . S
C1417 C1416 1.400 . S
C1417 C1418 1.398 . S
C1418 H1406 0.950 . S
C1418 C1417 1.398 . S
C1418 C1419 1.391 . S
C1419 H1407 0.950 1_455 S
C1419 C1415 1.393 . S
C1419 C1418 1.391 . S
H1420 C1428 0.950 . S
H1421 C1433 0.950 . S
H1422 C1430 0.950 . S
H1423 C1432 0.950 . S
H1424 C1434 0.950 . S
H1425 C1436 0.950 . S
H1426 C1438 0.950 . S
H1427 C1439 0.950 . S
C1428 H1420 0.950 . S
C1428 C1429 1.386 . S
C1428 C1430 1.391 . S
C1429 C1428 1.386 . S
C1429 C1433 1.393 . S
C1430 H1422 0.950 . S
C1430 C1428 1.391 . S
C1430 C1431 1.400 . S
C1431 C1430 1.400 . S
C1431 C1432 1.398 . S
C1431 C1437 1.491 . S
C1432 H1423 0.950 . S
C1432 C1431 1.398 . S
C1432 C1433 1.391 . S
C1433 H1421 0.950 . S
C1433 C1429 1.393 . S
C1433 C1432 1.391 . S
C1434 H1424 0.950 . S
C1434 C1435 1.386 . S
C1434 C1436 1.391 . S
C1435 C1434 1.386 . S
C1435 C1439 1.393 . S
C1436 H1425 0.950 . S
C1436 C1434 1.391 . S
C1436 C1437 1.400 . S
C1437 C1431 1.491 . S
C1437 C1436 1.400 . S
C1437 C1438 1.398 . S
C1438 H1426 0.950 . S
C1438 C1437 1.398 . S
C1438 C1439 1.391 . S
C1439 H1427 0.950 . S
C1439 C1435 1.393 . S
C1439 C1438 1.391 . S
H1440 C1448 0.950 . S
H1441 C1453 0.950 . S
H1442 C1450 0.950 . S
H1443 C1452 0.950 . S
H1444 C1454 0.950 . S
H1445 C1456 0.950 . S
H1446 C1458 0.950 . S
H1447 C1459 0.950 1_455 S
C1448 H1440 0.950 . S
C1448 C1449 1.386 . S
C1448 C1450 1.391 . S
C1449 C1448 1.386 . S
C1449 C1453 1.393 . S
C1450 H1442 0.950 . S
C1450 C1448 1.391 . S
C1450 C1451 1.400 . S
C1451 C1450 1.400 . S
C1451 C1452 1.398 . S
C1451 C1457 1.491 . S
C1452 H1443 0.950 . S
C1452 C1451 1.398 . S
C1452 C1453 1.391 . S
C1453 H1441 0.950 . S
C1453 C1449 1.393 . S
C1453 C1452 1.391 . S
C1454 H1444 0.950 . S
C1454 C1455 1.386 . S
C1454 C1456 1.391 . S
C1455 C1454 1.386 . S
C1455 C1459 1.393 . S
C1456 H1445 0.950 . S
C1456 C1454 1.391 . S
C1456 C1457 1.400 . S
C1457 C1451 1.491 . S
C1457 C1456 1.400 . S
C1457 C1458 1.398 . S
C1458 H1446 0.950 . S
C1458 C1457 1.398 . S
C1458 C1459 1.391 . S
C1459 H1447 0.950 1_655 S
C1459 C1455 1.393 . S
C1459 C1458 1.391 . S
H1460 C1468 0.950 . S
H1461 C1473 0.950 . S
H1462 C1470 0.950 . S
H1463 C1472 0.950 . S
H1464 C1474 0.950 . S
H1465 C1476 0.950 . S
H1466 C1478 0.950 . S
H1467 C1479 0.950 . S
C1468 H1460 0.950 . S
C1468 C1469 1.386 . S
C1468 C1470 1.391 . S
C1469 C1468 1.386 . S
C1469 C1473 1.393 . S
C1470 H1462 0.950 . S
C1470 C1468 1.391 . S
C1470 C1471 1.400 . S
C1471 C1470 1.400 . S
C1471 C1472 1.398 . S
C1471 C1477 1.491 . S
C1472 H1463 0.950 . S
C1472 C1471 1.398 . S
C1472 C1473 1.391 . S
C1473 H1461 0.950 . S
C1473 C1469 1.393 . S
C1473 C1472 1.391 . S
C1474 H1464 0.950 . S
C1474 C1475 1.386 . S
C1474 C1476 1.391 . S
C1475 C1474 1.386 . S
C1475 C1479 1.393 . S
C1476 H1465 0.950 . S
C1476 C1474 1.391 . S
C1476 C1477 1.400 . S
C1477 C1471 1.491 . S
C1477 C1476 1.400 . S
C1477 C1478 1.398 . S
C1478 H1466 0.950 . S
C1478 C1477 1.398 . S
C1478 C1479 1.391 . S
C1479 H1467 0.950 . S
C1479 C1475 1.393 . S
C1479 C1478 1.391 . S
H1480 C1488 0.950 . S
H1481 C1493 0.950 . S
H1482 C1490 0.950 . S
H1483 C1492 0.950 . S
H1484 C1494 0.950 1_455 S
H1485 C1496 0.950 . S
H1486 C1498 0.950 . S
H1487 C1499 0.950 . S
C1488 H1480 0.950 . S
C1488 C1489 1.386 . S
C1488 C1490 1.391 . S
C1489 C1488 1.386 . S
C1489 C1493 1.393 . S
C1490 H1482 0.950 . S
C1490 C1488 1.391 . S
C1490 C1491 1.400 . S
C1491 C1490 1.400 . S
C1491 C1492 1.398 . S
C1491 C1497 1.491 . S
C1492 H1483 0.950 . S
C1492 C1491 1.398 . S
C1492 C1493 1.391 . S
C1493 H1481 0.950 . S
C1493 C1489 1.393 . S
C1493 C1492 1.391 . S
C1494 H1484 0.950 1_655 S
C1494 C1495 1.386 . S
C1494 C1496 1.391 . S
C1495 C1494 1.386 . S
C1495 C1499 1.393 . S
C1496 H1485 0.950 . S
C1496 C1494 1.391 . S
C1496 C1497 1.400 . S
C1497 C1491 1.491 . S
C1497 C1496 1.400 . S
C1497 C1498 1.398 . S
C1498 H1486 0.950 . S
C1498 C1497 1.398 . S
C1498 C1499 1.391 . S
C1499 H1487 0.950 . S
C1499 C1495 1.393 . S
C1499 C1498 1.391 . S
H1500 C1508 0.950 . S
H1501 C1513 0.950 . S
H1502 C1510 0.950 . S
H1503 C1512 0.950 . S
H1504 C1514 0.950 . S
H1505 C1516 0.950 . S
H1506 C1518 0.950 . S
H1507 C1519 0.950 . S
C1508 H1500 0.950 . S
C1508 C1509 1.386 . S
C1508 C1510 1.391 . S
C1509 C1508 1.386 . S
C1509 C1513 1.393 . S
C1510 H1502 0.950 . S
C1510 C1508 1.391 . S
C1510 C1511 1.400 . S
C1511 C1510 1.400 . S
C1511 C1512 1.398 . S
C1511 C1517 1.491 . S
C1512 H1503 0.950 . S
C1512 C1511 1.398 . S
C1512 C1513 1.391 . S
C1513 H1501 0.950 . S
C1513 C1509 1.393 . S
C1513 C1512 1.391 . S
C1514 H1504 0.950 . S
C1514 C1515 1.386 . S
C1514 C1516 1.391 . S
C1515 C1514 1.386 . S
C1515 C1519 1.393 . S
C1516 H1505 0.950 . S
C1516 C1514 1.391 . S
C1516 C1517 1.400 . S
C1517 C1511 1.491 . S
C1517 C1516 1.400 . S
C1517 C1518 1.398 . S
C1518 H1506 0.950 . S
C1518 C1517 1.398 . S
C1518 C1519 1.391 . S
C1519 H1507 0.950 . S
C1519 C1515 1.393 . S
C1519 C1518 1.391 . S
H1520 C1528 0.950 . S
H1521 C1533 0.950 . S
H1522 C1530 0.950 . S
H1523 C1532 0.950 . S
H1524 C1534 0.950 1_655 S
H1525 C1536 0.939 1_655 S
H1526 C1538 0.950 . S
H1527 C1539 0.950 . S
C1528 H1520 0.950 . S
C1528 C1529 1.386 . S
C1528 C1530 1.391 . S
C1529 C1528 1.386 . S
C1529 C1533 1.393 . S
C1530 H1522 0.950 . S
C1530 C1528 1.391 . S
C1530 C1531 1.400 . S
C1531 C1530 1.400 . S
C1531 C1532 1.398 . S
C1531 C1537 1.491 . S
C1532 H1523 0.950 . S
C1532 C1531 1.398 . S
C1532 C1533 1.391 . S
C1533 H1521 0.950 . S
C1533 C1529 1.393 . S
C1533 C1532 1.391 . S
C1534 H1524 0.950 1_455 S
C1534 C1535 1.386 . S
C1534 C1536 1.391 . S
C1535 C1534 1.386 . S
C1535 C1539 1.393 . S
C1536 H1525 0.939 1_455 S
C1536 C1534 1.391 . S
C1536 C1537 1.400 . S
C1537 C1531 1.491 . S
C1537 C1536 1.400 . S
C1537 C1538 1.398 . S
C1538 H1526 0.950 . S
C1538 C1537 1.398 . S
C1538 C1539 1.391 . S
C1539 H1527 0.950 . S
C1539 C1535 1.393 . S
C1539 C1538 1.391 . S
H1540 C1548 0.950 . S
H1541 C1553 0.950 . S
H1542 C1550 0.950 . S
H1543 C1552 0.950 . S
H1544 C1554 0.950 . S
H1545 C1556 0.950 . S
H1546 C1558 0.950 . S
H1547 C1559 0.950 . S
C1548 H1540 0.950 . S
C1548 C1549 1.386 . S
C1548 C1550 1.391 . S
C1549 C1548 1.386 . S
C1549 C1553 1.393 . S
C1550 H1542 0.950 . S
C1550 C1548 1.391 . S
C1550 C1551 1.400 . S
C1551 C1550 1.400 . S
C1551 C1552 1.398 . S
C1551 C1557 1.491 . S
C1552 H1543 0.950 . S
C1552 C1551 1.398 . S
C1552 C1553 1.391 . S
C1553 H1541 0.950 . S
C1553 C1549 1.393 . S
C1553 C1552 1.391 . S
C1554 H1544 0.950 . S
C1554 C1555 1.386 . S
C1554 C1556 1.391 . S
C1555 C1554 1.386 . S
C1555 C1559 1.393 . S
C1556 H1545 0.950 . S
C1556 C1554 1.391 . S
C1556 C1557 1.400 . S
C1557 C1551 1.491 . S
C1557 C1556 1.400 . S
C1557 C1558 1.398 . S
C1558 H1546 0.950 . S
C1558 C1557 1.398 . S
C1558 C1559 1.391 . S
C1559 H1547 0.950 . S
C1559 C1555 1.393 . S
C1559 C1558 1.391 . S
H1560 C1568 0.950 . S
H1561 C1573 0.950 . S
H1562 C1570 0.950 . S
H1563 C1572 0.950 . S
H1564 C1574 0.950 . S
H1565 C1576 0.950 . S
H1566 C1578 0.950 . S
H1567 C1579 0.950 . S
C1568 H1560 0.950 . S
C1568 C1569 1.386 . S
C1568 C1570 1.391 . S
C1569 C1568 1.386 . S
C1569 C1573 1.393 . S
C1570 H1562 0.950 . S
C1570 C1568 1.391 . S
C1570 C1571 1.400 . S
C1571 C1570 1.400 . S
C1571 C1572 1.398 . S
C1571 C1577 1.491 . S
C1572 H1563 0.950 . S
C1572 C1571 1.398 . S
C1572 C1573 1.391 . S
C1573 H1561 0.950 . S
C1573 C1569 1.393 . S
C1573 C1572 1.391 . S
C1574 H1564 0.950 . S
C1574 C1575 1.386 . S
C1574 C1576 1.391 . S
C1575 C1574 1.386 . S
C1575 C1579 1.393 . S
C1576 H1565 0.950 . S
C1576 C1574 1.391 . S
C1576 C1577 1.400 . S
C1577 C1571 1.491 . S
C1577 C1576 1.400 . S
C1577 C1578 1.398 . S
C1578 H1566 0.950 . S
C1578 C1577 1.398 . S
C1578 C1579 1.391 . S
C1579 H1567 0.950 . S
C1579 C1575 1.393 . S
C1579 C1578 1.391 . S
H1580 C1588 0.950 . S
H1581 C1593 0.950 . S
H1582 C1590 0.950 . S
H1583 C1592 0.950 . S
H1584 C1594 0.950 . S
H1585 C1596 0.950 . S
H1586 C1598 0.950 . S
H1587 C1599 0.950 . S
C1588 H1580 0.950 . S
C1588 C1589 1.386 . S
C1588 C1590 1.391 . S
C1589 C1588 1.386 . S
C1589 C1593 1.393 . S
C1590 H1582 0.950 . S
C1590 C1588 1.391 . S
C1590 C1591 1.400 . S
C1591 C1590 1.400 . S
C1591 C1592 1.398 . S
C1591 C1597 1.491 . S
C1592 H1583 0.950 . S
C1592 C1591 1.398 . S
C1592 C1593 1.391 . S
C1593 H1581 0.950 . S
C1593 C1589 1.393 . S
C1593 C1592 1.391 . S
C1594 H1584 0.950 . S
C1594 C1595 1.386 . S
C1594 C1596 1.391 . S
C1595 C1594 1.386 . S
C1595 C1599 1.393 . S
C1596 H1585 0.950 . S
C1596 C1594 1.391 . S
C1596 C1597 1.400 . S
C1597 C1591 1.491 . S
C1597 C1596 1.400 . S
C1597 C1598 1.398 . S
C1598 H1586 0.950 . S
C1598 C1597 1.398 . S
C1598 C1599 1.391 . S
C1599 H1587 0.950 . S
C1599 C1595 1.393 . S
C1599 C1598 1.391 . S
H1600 C1608 0.950 . S
H1601 C1613 0.959 . S
H1602 C1610 0.950 . S
H1603 C1612 0.950 . S
H1604 C1614 0.950 . S
H1605 C1616 0.950 . S
H1606 C1618 0.950 . S
H1607 C1619 0.950 . S
C1608 H1600 0.950 . S
C1608 C1609 1.386 . S
C1608 C1610 1.391 . S
C1609 C1608 1.386 . S
C1609 C1613 1.393 . S
C1610 H1602 0.950 . S
C1610 C1608 1.391 . S
C1610 C1611 1.400 . S
C1611 C1610 1.400 . S
C1611 C1612 1.398 . S
C1611 C1617 1.491 . S
C1612 H1603 0.950 . S
C1612 C1611 1.398 . S
C1612 C1613 1.391 . S
C1613 H1601 0.959 . S
C1613 C1609 1.393 . S
C1613 C1612 1.391 . S
C1614 H1604 0.950 . S
C1614 C1615 1.386 . S
C1614 C1616 1.391 . S
C1615 C1614 1.386 . S
C1615 C1619 1.393 . S
C1616 H1605 0.950 . S
C1616 C1614 1.391 . S
C1616 C1617 1.400 . S
C1617 C1611 1.491 . S
C1617 C1616 1.400 . S
C1617 C1618 1.398 . S
C1618 H1606 0.950 . S
C1618 C1617 1.398 . S
C1618 C1619 1.391 . S
C1619 H1607 0.950 . S
C1619 C1615 1.393 . S
C1619 C1618 1.391 . S
H1620 C1628 0.950 . S
H1621 C1633 0.950 . S
H1622 C1630 0.950 . S
H1623 C1632 0.950 . S
H1624 C1634 0.950 1_655 S
H1625 C1636 0.950 . S
H1626 C1638 0.950 . S
H1627 C1639 0.950 . S
C1628 H1620 0.950 . S
C1628 C1629 1.386 . S
C1628 C1630 1.391 . S
C1629 C1628 1.386 . S
C1629 C1633 1.393 . S
C1630 H1622 0.950 . S
C1630 C1628 1.391 . S
C1630 C1631 1.400 . S
C1631 C1630 1.400 . S
C1631 C1632 1.398 . S
C1631 C1637 1.491 . S
C1632 H1623 0.950 . S
C1632 C1631 1.398 . S
C1632 C1633 1.391 . S
C1633 H1621 0.950 . S
C1633 C1629 1.393 . S
C1633 C1632 1.391 . S
C1634 H1624 0.950 1_455 S
C1634 C1635 1.386 . S
C1634 C1636 1.391 . S
C1635 C1634 1.386 . S
C1635 C1639 1.393 . S
C1636 H1625 0.950 . S
C1636 C1634 1.391 . S
C1636 C1637 1.400 . S
C1637 C1631 1.491 . S
C1637 C1636 1.400 . S
C1637 C1638 1.398 . S
C1638 H1626 0.950 . S
C1638 C1637 1.398 . S
C1638 C1639 1.391 . S
C1639 H1627 0.950 . S
C1639 C1635 1.393 . S
C1639 C1638 1.391 . S
H1640 C1648 0.950 . S
H1641 C1653 0.950 . S
H1642 C1650 0.950 . S
H1643 C1652 0.950 . S
H1644 C1654 0.950 1_455 S
H1645 C1656 0.946 1_455 S
H1646 C1658 0.950 . S
H1647 C1659 0.950 . S
C1648 H1640 0.950 . S
C1648 C1649 1.386 . S
C1648 C1650 1.391 . S
C1649 C1648 1.386 . S
C1649 C1653 1.393 . S
C1650 H1642 0.950 . S
C1650 C1648 1.391 . S
C1650 C1651 1.400 . S
C1651 C1650 1.400 . S
C1651 C1652 1.398 . S
C1651 C1657 1.491 . S
C1652 H1643 0.950 . S
C1652 C1651 1.398 . S
C1652 C1653 1.391 . S
C1653 H1641 0.950 . S
C1653 C1649 1.393 . S
C1653 C1652 1.391 . S
C1654 H1644 0.950 1_655 S
C1654 C1655 1.386 . S
C1654 C1656 1.391 . S
C1655 C1654 1.386 . S
C1655 C1659 1.393 . S
C1656 H1645 0.946 1_655 S
C1656 C1654 1.391 . S
C1656 C1657 1.400 . S
C1657 C1651 1.491 . S
C1657 C1656 1.400 . S
C1657 C1658 1.398 . S
C1658 H1646 0.950 . S
C1658 C1657 1.398 . S
C1658 C1659 1.391 . S
C1659 H1647 0.950 . S
C1659 C1655 1.393 . S
C1659 C1658 1.391 . S
H1660 C1668 0.950 . S
H1661 C1673 0.950 1_455 S
H1662 C1670 0.950 . S
H1663 C1672 0.950 . S
H1664 C1674 0.950 . S
H1665 C1676 0.950 . S
H1666 C1678 0.950 . S
H1667 C1679 0.950 . S
C1668 H1660 0.950 . S
C1668 C1669 1.386 . S
C1668 C1670 1.391 . S
C1669 C1668 1.386 . S
C1669 C1673 1.393 . S
C1670 H1662 0.950 . S
C1670 C1668 1.391 . S
C1670 C1671 1.400 . S
C1671 C1670 1.400 . S
C1671 C1672 1.398 . S
C1671 C1677 1.491 . S
C1672 H1663 0.950 . S
C1672 C1671 1.398 . S
C1672 C1673 1.391 . S
C1673 H1661 0.950 1_655 S
C1673 C1669 1.393 . S
C1673 C1672 1.391 . S
C1674 H1664 0.950 . S
C1674 C1675 1.386 . S
C1674 C1676 1.391 . S
C1675 C1674 1.386 . S
C1675 C1679 1.393 . S
C1676 H1665 0.950 . S
C1676 C1674 1.391 . S
C1676 C1677 1.400 . S
C1677 C1671 1.491 . S
C1677 C1676 1.400 . S
C1677 C1678 1.398 . S
C1678 H1666 0.950 . S
C1678 C1677 1.398 . S
C1678 C1679 1.391 . S
C1679 H1667 0.950 . S
C1679 C1675 1.393 . S
C1679 C1678 1.391 . S
H1680 C1688 0.948 1_565 S
H1681 C1693 0.950 1_655 S
H1682 C1690 0.947 . S
H1683 C1692 0.950 1_655 S
H1684 C1694 0.950 . S
H1685 C1696 0.950 . S
H1686 C1698 0.950 . S
H1687 C1699 0.961 . S
C1688 H1680 0.948 1_545 S
C1688 C1689 1.386 . S
C1688 C1690 1.391 1_545 S
C1689 C1688 1.386 . S
C1689 C1693 1.393 . S
C1690 H1682 0.947 . S
C1690 C1688 1.391 1_565 S
C1690 C1691 1.397 1_565 S
C1691 C1690 1.397 1_545 S
C1691 C1692 1.410 . S
C1691 C1697 1.490 . S
C1692 H1683 0.950 1_455 S
C1692 C1691 1.410 . S
C1692 C1693 1.391 . S
C1693 H1681 0.950 1_455 S
C1693 C1689 1.393 . S
C1693 C1692 1.391 . S
C1694 H1684 0.950 . S
C1694 C1695 1.386 . S
C1694 C1696 1.391 . S
C1695 C1694 1.386 . S
C1695 C1699 1.388 1_545 S
C1696 H1685 0.950 . S
C1696 C1694 1.391 . S
C1696 C1697 1.403 . S
C1697 C1691 1.490 . S
C1697 C1696 1.403 . S
C1697 C1698 1.395 1_545 S
C1698 H1686 0.950 . S
C1698 C1697 1.395 1_565 S
C1698 C1699 1.394 . S
C1699 H1687 0.961 . S
C1699 C1695 1.388 1_565 S
C1699 C1698 1.394 . S
H1700 C1708 0.950 . S
H1701 C1713 0.950 . S
H1702 C1710 0.950 . S
H1703 C1712 0.950 . S
H1704 C1714 0.950 . S
H1705 C1716 0.950 . S
H1706 C1718 0.950 . S
H1707 C1719 0.950 . S
C1708 H1700 0.950 . S
C1708 C1709 1.386 . S
C1708 C1710 1.391 . S
C1709 C1708 1.386 . S
C1709 C1713 1.393 . S
C1710 H1702 0.950 . S
C1710 C1708 1.391 . S
C1710 C1711 1.400 . S
C1711 C1710 1.400 . S
C1711 C1712 1.398 . S
C1711 C1717 1.491 . S
C1712 H1703 0.950 . S
C1712 C1711 1.398 . S
C1712 C1713 1.391 . S
C1713 H1701 0.950 . S
C1713 C1709 1.393 . S
C1713 C1712 1.391 . S
C1714 H1704 0.950 . S
C1714 C1715 1.386 . S
C1714 C1716 1.391 . S
C1715 C1714 1.386 . S
C1715 C1719 1.393 . S
C1716 H1705 0.950 . S
C1716 C1714 1.391 . S
C1716 C1717 1.400 . S
C1717 C1711 1.491 . S
C1717 C1716 1.400 . S
C1717 C1718 1.398 . S
C1718 H1706 0.950 . S
C1718 C1717 1.398 . S
C1718 C1719 1.391 . S
C1719 H1707 0.950 . S
C1719 C1715 1.393 . S
C1719 C1718 1.391 . S
H1720 C1728 0.950 . S
H1721 C1733 0.950 . S
H1722 C1730 0.950 . S
H1723 C1732 0.950 . S
H1724 C1734 0.950 . S
H1725 C1736 0.950 . S
H1726 C1738 0.950 . S
H1727 C1739 0.950 . S
C1728 H1720 0.950 . S
C1728 C1729 1.343 1_545 S
C1728 C1730 1.391 . S
C1729 C1728 1.343 1_565 S
C1729 C1733 1.435 . S
C1730 H1722 0.950 . S
C1730 C1728 1.391 . S
C1730 C1731 1.356 1_545 S
C1731 C1730 1.356 1_565 S
C1731 C1732 1.443 . S
C1731 C1737 1.491 . S
C1732 H1723 0.950 . S
C1732 C1731 1.443 . S
C1732 C1733 1.391 . S
C1733 H1721 0.950 . S
C1733 C1729 1.435 . S
C1733 C1732 1.391 . S
C1734 H1724 0.950 . S
C1734 C1735 1.440 . S
C1734 C1736 1.391 . S
C1735 C1734 1.440 . S
C1735 C1739 1.339 1_565 S
C1736 H1725 0.950 . S
C1736 C1734 1.391 . S
C1736 C1737 1.452 . S
C1737 C1731 1.491 . S
C1737 C1736 1.452 . S
C1737 C1738 1.348 1_565 S
C1738 H1726 0.950 . S
C1738 C1737 1.348 1_545 S
C1738 C1739 1.391 . S
C1739 H1727 0.950 . S
C1739 C1735 1.339 1_545 S
C1739 C1738 1.391 . S
H1740 C1748 0.950 . S
H1741 C1753 0.950 . S
H1742 C1750 0.950 . S
H1743 C1752 0.950 . S
H1744 C1754 0.950 . S
H1745 C1756 0.950 . S
H1746 C1758 0.950 . S
H1747 C1759 0.950 . S
C1748 H1740 0.950 . S
C1748 C1749 1.386 . S
C1748 C1750 1.391 . S
C1749 C1748 1.386 . S
C1749 C1753 1.393 . S
C1750 H1742 0.950 . S
C1750 C1748 1.391 . S
C1750 C1751 1.400 . S
C1751 C1750 1.400 . S
C1751 C1752 1.398 . S
C1751 C1757 1.491 . S
C1752 H1743 0.950 . S
C1752 C1751 1.398 . S
C1752 C1753 1.391 . S
C1753 H1741 0.950 . S
C1753 C1749 1.393 . S
C1753 C1752 1.391 . S
C1754 H1744 0.950 . S
C1754 C1755 1.386 . S
C1754 C1756 1.391 . S
C1755 C1754 1.386 . S
C1755 C1759 1.393 . S
C1756 H1745 0.950 . S
C1756 C1754 1.391 . S
C1756 C1757 1.400 . S
C1757 C1751 1.491 . S
C1757 C1756 1.400 . S
C1757 C1758 1.398 . S
C1758 H1746 0.950 . S
C1758 C1757 1.398 . S
C1758 C1759 1.391 . S
C1759 H1747 0.950 . S
C1759 C1755 1.393 . S
C1759 C1758 1.391 . S
H1760 C1768 0.950 . S
H1761 C1773 0.950 . S
H1762 C1770 0.950 . S
H1763 C1772 0.950 . S
H1764 C1774 0.950 . S
H1765 C1776 0.950 . S
H1766 C1778 0.950 . S
H1767 C1779 0.950 . S
C1768 H1760 0.950 . S
C1768 C1769 1.386 . S
C1768 C1770 1.391 . S
C1769 C1768 1.386 . S
C1769 C1773 1.393 . S
C1770 H1762 0.950 . S
C1770 C1768 1.391 . S
C1770 C1771 1.400 . S
C1771 C1770 1.400 . S
C1771 C1772 1.398 . S
C1771 C1777 1.491 . S
C1772 H1763 0.950 . S
C1772 C1771 1.398 . S
C1772 C1773 1.391 . S
C1773 H1761 0.950 . S
C1773 C1769 1.393 . S
C1773 C1772 1.391 . S
C1774 H1764 0.950 . S
C1774 C1775 1.386 . S
C1774 C1776 1.391 . S
C1775 C1774 1.386 . S
C1775 C1779 1.393 . S
C1776 H1765 0.950 . S
C1776 C1774 1.391 . S
C1776 C1777 1.400 . S
C1777 C1771 1.491 . S
C1777 C1776 1.400 . S
C1777 C1778 1.398 . S
C1778 H1766 0.950 . S
C1778 C1777 1.398 . S
C1778 C1779 1.391 . S
C1779 H1767 0.950 . S
C1779 C1775 1.393 . S
C1779 C1778 1.391 . S
H1780 C1788 0.950 . S
H1781 C1793 0.950 . S
H1782 C1790 0.950 . S
H1783 C1792 0.950 . S
H1784 C1794 0.950 . S
H1785 C1796 0.950 . S
H1786 C1798 0.950 . S
H1787 C1799 0.950 . S
C1788 H1780 0.950 . S
C1788 C1789 1.386 . S
C1788 C1790 1.391 . S
C1789 C1788 1.386 . S
C1789 C1793 1.393 . S
C1790 H1782 0.950 . S
C1790 C1788 1.391 . S
C1790 C1791 1.400 . S
C1791 C1790 1.400 . S
C1791 C1792 1.398 . S
C1791 C1797 1.491 . S
C1792 H1783 0.950 . S
C1792 C1791 1.398 . S
C1792 C1793 1.391 . S
C1793 H1781 0.950 . S
C1793 C1789 1.393 . S
C1793 C1792 1.391 . S
C1794 H1784 0.950 . S
C1794 C1795 1.386 . S
C1794 C1796 1.391 . S
C1795 C1794 1.386 . S
C1795 C1799 1.393 . S
C1796 H1785 0.950 . S
C1796 C1794 1.391 . S
C1796 C1797 1.400 . S
C1797 C1791 1.491 . S
C1797 C1796 1.400 . S
C1797 C1798 1.398 . S
C1798 H1786 0.950 . S
C1798 C1797 1.398 . S
C1798 C1799 1.391 . S
C1799 H1787 0.950 . S
C1799 C1795 1.393 . S
C1799 C1798 1.391 . S
H1800 C1808 0.950 . S
H1801 C1813 0.950 . S
H1802 C1810 0.950 . S
H1803 C1812 0.950 . S
H1804 C1814 0.950 . S
H1805 C1816 0.950 . S
H1806 C1818 0.950 . S
H1807 C1819 0.950 . S
C1808 H1800 0.950 . S
C1808 C1809 1.386 . S
C1808 C1810 1.391 . S
C1809 C1808 1.386 . S
C1809 C1813 1.393 . S
C1810 H1802 0.950 . S
C1810 C1808 1.391 . S
C1810 C1811 1.400 . S
C1811 C1810 1.400 . S
C1811 C1812 1.398 . S
C1811 C1817 1.491 . S
C1812 H1803 0.950 . S
C1812 C1811 1.398 . S
C1812 C1813 1.391 . S
C1813 H1801 0.950 . S
C1813 C1809 1.393 . S
C1813 C1812 1.391 . S
C1814 H1804 0.950 . S
C1814 C1815 1.386 . S
C1814 C1816 1.391 . S
C1815 C1814 1.386 . S
C1815 C1819 1.393 . S
C1816 H1805 0.950 . S
C1816 C1814 1.391 . S
C1816 C1817 1.400 . S
C1817 C1811 1.491 . S
C1817 C1816 1.400 . S
C1817 C1818 1.398 . S
C1818 H1806 0.950 . S
C1818 C1817 1.398 . S
C1818 C1819 1.391 . S
C1819 H1807 0.950 . S
C1819 C1815 1.393 . S
C1819 C1818 1.391 . S
H1820 C1828 0.950 . S
H1821 C1833 0.950 . S
H1822 C1830 0.950 . S
H1823 C1832 0.950 . S
H1824 C1834 0.950 . S
H1825 C1836 0.950 . S
H1826 C1838 0.950 . S
H1827 C1839 0.950 . S
C1828 H1820 0.950 . S
C1828 C1829 1.386 . S
C1828 C1830 1.391 . S
C1829 C1828 1.386 . S
C1829 C1833 1.393 . S
C1830 H1822 0.950 . S
C1830 C1828 1.391 . S
C1830 C1831 1.400 . S
C1831 C1830 1.400 . S
C1831 C1832 1.398 . S
C1831 C1837 1.491 . S
C1832 H1823 0.950 . S
C1832 C1831 1.398 . S
C1832 C1833 1.391 . S
C1833 H1821 0.950 . S
C1833 C1829 1.393 . S
C1833 C1832 1.391 . S
C1834 H1824 0.950 . S
C1834 C1835 1.386 . S
C1834 C1836 1.391 . S
C1835 C1834 1.386 . S
C1835 C1839 1.393 . S
C1836 H1825 0.950 . S
C1836 C1834 1.391 . S
C1836 C1837 1.400 . S
C1837 C1831 1.491 . S
C1837 C1836 1.400 . S
C1837 C1838 1.398 . S
C1838 H1826 0.950 . S
C1838 C1837 1.398 . S
C1838 C1839 1.391 . S
C1839 H1827 0.950 . S
C1839 C1835 1.393 . S
C1839 C1838 1.391 . S
H1840 C1848 0.950 . S
H1841 C1853 0.950 . S
H1842 C1850 0.950 . S
H1843 C1852 0.950 . S
H1844 C1854 0.950 . S
H1845 C1856 0.950 . S
H1846 C1858 0.950 . S
H1847 C1859 0.950 . S
C1848 H1840 0.950 . S
C1848 C1849 1.386 . S
C1848 C1850 1.391 . S
C1849 C1848 1.386 . S
C1849 C1853 1.393 1_545 S
C1850 H1842 0.950 . S
C1850 C1848 1.391 . S
C1850 C1851 1.434 . S
C1851 C1850 1.434 . S
C1851 C1852 1.371 1_545 S
C1851 C1857 1.490 . S
C1852 H1843 0.950 . S
C1852 C1851 1.371 1_565 S
C1852 C1853 1.391 . S
C1853 H1841 0.950 . S
C1853 C1849 1.393 1_565 S
C1853 C1852 1.391 . S
C1854 H1844 0.950 . S
C1854 C1855 1.378 1_565 S
C1854 C1856 1.391 . S
C1855 C1854 1.378 1_545 S
C1855 C1859 1.400 . S
C1856 H1845 0.950 . S
C1856 C1854 1.391 . S
C1856 C1857 1.386 1_565 S
C1857 C1851 1.490 . S
C1857 C1856 1.386 1_545 S
C1857 C1858 1.412 . S
C1858 H1846 0.950 . S
C1858 C1857 1.412 . S
C1858 C1859 1.391 . S
C1859 H1847 0.950 . S
C1859 C1855 1.400 . S
C1859 C1858 1.391 . S
H1860 C1868 0.950 . S
H1861 C1873 0.950 . S
H1862 C1870 0.950 . S
H1863 C1872 0.950 . S
H1864 C1874 0.950 . S
H1865 C1876 0.950 . S
H1866 C1878 0.950 . S
H1867 C1879 0.950 . S
C1868 H1860 0.950 . S
C1868 C1869 1.386 . S
C1868 C1870 1.391 . S
C1869 C1868 1.386 . S
C1869 C1873 1.393 . S
C1870 H1862 0.950 . S
C1870 C1868 1.391 . S
C1870 C1871 1.400 . S
C1871 C1870 1.400 . S
C1871 C1872 1.398 . S
C1871 C1877 1.491 . S
C1872 H1863 0.950 . S
C1872 C1871 1.398 . S
C1872 C1873 1.391 . S
C1873 H1861 0.950 . S
C1873 C1869 1.393 . S
C1873 C1872 1.391 . S
C1874 H1864 0.950 . S
C1874 C1875 1.386 . S
C1874 C1876 1.391 . S
C1875 C1874 1.386 . S
C1875 C1879 1.393 . S
C1876 H1865 0.950 . S
C1876 C1874 1.391 . S
C1876 C1877 1.400 . S
C1877 C1871 1.491 . S
C1877 C1876 1.400 . S
C1877 C1878 1.398 . S
C1878 H1866 0.950 . S
C1878 C1877 1.398 . S
C1878 C1879 1.391 . S
C1879 H1867 0.950 . S
C1879 C1875 1.393 . S
C1879 C1878 1.391 . S
H1880 C1888 0.950 . S
H1881 C1893 0.950 . S
H1882 C1890 0.950 . S
H1883 C1892 0.950 . S
H1884 C1894 0.950 . S
H1885 C1896 0.950 . S
H1886 C1898 0.950 . S
H1887 C1899 0.950 . S
C1888 H1880 0.950 . S
C1888 C1889 1.356 1_545 S
C1888 C1890 1.391 . S
C1889 C1888 1.356 1_565 S
C1889 C1893 1.423 . S
C1890 H1882 0.950 . S
C1890 C1888 1.391 . S
C1890 C1891 1.365 1_545 S
C1891 C1890 1.365 1_565 S
C1891 C1892 1.434 . S
C1891 C1897 1.490 . S
C1892 H1883 0.950 . S
C1892 C1891 1.434 . S
C1892 C1893 1.391 . S
C1893 H1881 0.950 . S
C1893 C1889 1.423 . S
C1893 C1892 1.391 . S
C1894 H1884 0.950 . S
C1894 C1895 1.444 . S
C1894 C1896 1.391 . S
C1895 C1894 1.444 . S
C1895 C1899 1.337 1_565 S
C1896 H1885 0.950 . S
C1896 C1894 1.391 . S
C1896 C1897 1.452 . S
C1897 C1891 1.490 . S
C1897 C1896 1.452 . S
C1897 C1898 1.349 1_565 S
C1898 H1886 0.950 . S
C1898 C1897 1.349 1_545 S
C1898 C1899 1.391 . S
C1899 H1887 0.950 . S
C1899 C1895 1.337 1_545 S
C1899 C1898 1.391 . S
H1900 C1908 0.950 . S
H1901 C1913 0.950 . S
H1902 C1910 0.950 . S
H1903 C1912 0.950 . S
H1904 C1914 0.950 . S
H1905 C1916 0.950 . S
H1906 C1918 0.950 . S
H1907 C1919 0.950 . S
C1908 H1900 0.950 . S
C1908 C1909 1.386 . S
C1908 C1910 1.391 . S
C1909 C1908 1.386 . S
C1909 C1913 1.393 . S
C1910 H1902 0.950 . S
C1910 C1908 1.391 . S
C1910 C1911 1.400 . S
C1911 C1910 1.400 . S
C1911 C1912 1.398 . S
C1911 C1917 1.491 . S
C1912 H1903 0.950 . S
C1912 C1911 1.398 . S
C1912 C1913 1.391 . S
C1913 H1901 0.950 . S
C1913 C1909 1.393 . S
C1913 C1912 1.391 . S
C1914 H1904 0.950 . S
C1914 C1915 1.386 . S
C1914 C1916 1.391 . S
C1915 C1914 1.386 . S
C1915 C1919 1.393 . S
C1916 H1905 0.950 . S
C1916 C1914 1.391 . S
C1916 C1917 1.400 . S
C1917 C1911 1.491 . S
C1917 C1916 1.400 . S
C1917 C1918 1.398 . S
C1918 H1906 0.950 . S
C1918 C1917 1.398 . S
C1918 C1919 1.391 . S
C1919 H1907 0.950 . S
C1919 C1915 1.393 . S
C1919 C1918 1.391 . S
H1920 C1928 0.950 . S
H1921 C1933 0.950 . S
H1922 C1930 0.950 . S
H1923 C1932 0.950 . S
H1924 C1934 0.950 . S
H1925 C1936 0.950 . S
H1926 C1938 0.950 . S
H1927 C1939 0.950 . S
C1928 H1920 0.950 . S
C1928 C1929 1.386 . S
C1928 C1930 1.391 . S
C1929 C1928 1.386 . S
C1929 C1933 1.393 . S
C1930 H1922 0.950 . S
C1930 C1928 1.391 . S
C1930 C1931 1.400 . S
C1931 C1930 1.400 . S
C1931 C1932 1.398 . S
C1931 C1937 1.491 . S
C1932 H1923 0.950 . S
C1932 C1931 1.398 . S
C1932 C1933 1.391 . S
C1933 H1921 0.950 . S
C1933 C1929 1.393 . S
C1933 C1932 1.391 . S
C1934 H1924 0.950 . S
C1934 C1935 1.386 . S
C1934 C1936 1.391 . S
C1935 C1934 1.386 . S
C1935 C1939 1.393 . S
C1936 H1925 0.950 . S
C1936 C1934 1.391 . S
C1936 C1937 1.400 . S
C1937 C1931 1.491 . S
C1937 C1936 1.400 . S
C1937 C1938 1.398 . S
C1938 H1926 0.950 . S
C1938 C1937 1.398 . S
C1938 C1939 1.391 . S
C1939 H1927 0.950 . S
C1939 C1935 1.393 . S
C1939 C1938 1.391 . S
H1940 C1948 0.950 . S
H1941 C1953 0.950 . S
H1942 C1950 0.950 . S
H1943 C1952 0.950 . S
H1944 C1954 0.950 1_655 S
H1945 C1956 0.950 . S
H1946 C1958 0.950 . S
H1947 C1959 0.950 . S
C1948 H1940 0.950 . S
C1948 C1949 1.386 . S
C1948 C1950 1.391 . S
C1949 C1948 1.386 . S
C1949 C1953 1.393 . S
C1950 H1942 0.950 . S
C1950 C1948 1.391 . S
C1950 C1951 1.400 . S
C1951 C1950 1.400 . S
C1951 C1952 1.398 . S
C1951 C1957 1.491 . S
C1952 H1943 0.950 . S
C1952 C1951 1.398 . S
C1952 C1953 1.391 . S
C1953 H1941 0.950 . S
C1953 C1949 1.393 . S
C1953 C1952 1.391 . S
C1954 H1944 0.950 1_455 S
C1954 C1955 1.386 . S
C1954 C1956 1.391 . S
C1955 C1954 1.386 . S
C1955 C1959 1.393 . S
C1956 H1945 0.950 . S
C1956 C1954 1.391 . S
C1956 C1957 1.400 . S
C1957 C1951 1.491 . S
C1957 C1956 1.400 . S
C1957 C1958 1.398 . S
C1958 H1946 0.950 . S
C1958 C1957 1.398 . S
C1958 C1959 1.391 . S
C1959 H1947 0.950 . S
C1959 C1955 1.393 . S
C1959 C1958 1.391 . S
H1960 C1968 0.950 . S
H1961 C1973 0.950 . S
H1962 C1970 0.950 . S
H1963 C1972 0.950 . S
H1964 C1974 0.950 . S
H1965 C1976 0.950 . S
H1966 C1978 0.950 . S
H1967 C1979 0.950 . S
C1968 H1960 0.950 . S
C1968 C1969 1.386 . S
C1968 C1970 1.391 . S
C1969 C1968 1.386 . S
C1969 C1973 1.393 . S
C1970 H1962 0.950 . S
C1970 C1968 1.391 . S
C1970 C1971 1.400 . S
C1971 C1970 1.400 . S
C1971 C1972 1.398 . S
C1971 C1977 1.491 . S
C1972 H1963 0.950 . S
C1972 C1971 1.398 . S
C1972 C1973 1.391 . S
C1973 H1961 0.950 . S
C1973 C1969 1.393 . S
C1973 C1972 1.391 . S
C1974 H1964 0.950 . S
C1974 C1975 1.386 . S
C1974 C1976 1.391 . S
C1975 C1974 1.386 . S
C1975 C1979 1.393 . S
C1976 H1965 0.950 . S
C1976 C1974 1.391 . S
C1976 C1977 1.400 . S
C1977 C1971 1.491 . S
C1977 C1976 1.400 . S
C1977 C1978 1.398 . S
C1978 H1966 0.950 . S
C1978 C1977 1.398 . S
C1978 C1979 1.391 . S
C1979 H1967 0.950 . S
C1979 C1975 1.393 . S
C1979 C1978 1.391 . S
H1980 C1988 0.950 . S
H1981 C1993 0.950 . S
H1982 C1990 0.950 . S
H1983 C1992 0.950 . S
H1984 C1994 0.950 . S
H1985 C1996 0.950 . S
H1986 C1998 0.950 . S
H1987 C1999 0.950 . S
C1988 H1980 0.950 . S
C1988 C1989 1.386 . S
C1988 C1990 1.391 . S
C1989 C1988 1.386 . S
C1989 C1993 1.393 . S
C1990 H1982 0.950 . S
C1990 C1988 1.391 . S
C1990 C1991 1.400 . S
C1991 C1990 1.400 . S
C1991 C1992 1.398 . S
C1991 C1997 1.491 . S
C1992 H1983 0.950 . S
C1992 C1991 1.398 . S
C1992 C1993 1.391 . S
C1993 H1981 0.950 . S
C1993 C1989 1.393 . S
C1993 C1992 1.391 . S
C1994 H1984 0.950 . S
C1994 C1995 1.386 . S
C1994 C1996 1.391 . S
C1995 C1994 1.386 . S
C1995 C1999 1.393 . S
C1996 H1985 0.950 . S
C1996 C1994 1.391 . S
C1996 C1997 1.400 . S
C1997 C1991 1.491 . S
C1997 C1996 1.400 . S
C1997 C1998 1.398 . S
C1998 H1986 0.950 . S
C1998 C1997 1.398 . S
C1998 C1999 1.391 . S
C1999 H1987 0.950 . S
C1999 C1995 1.393 . S
C1999 C1998 1.391 . S
H2000 C2008 0.950 . S
H2001 C2013 0.950 . S
H2002 C2010 0.950 . S
H2003 C2012 0.950 . S
H2004 C2014 0.950 . S
H2005 C2016 0.950 . S
H2006 C2018 0.950 . S
H2007 C2019 0.950 . S
C2008 H2000 0.950 . S
C2008 C2009 1.386 . S
C2008 C2010 1.391 . S
C2009 C2008 1.386 . S
C2009 C2013 1.393 . S
C2010 H2002 0.950 . S
C2010 C2008 1.391 . S
C2010 C2011 1.400 . S
C2011 C2010 1.400 . S
C2011 C2012 1.398 . S
C2011 C2017 1.491 . S
C2012 H2003 0.950 . S
C2012 C2011 1.398 . S
C2012 C2013 1.391 . S
C2013 H2001 0.950 . S
C2013 C2009 1.393 . S
C2013 C2012 1.391 . S
C2014 H2004 0.950 . S
C2014 C2015 1.386 . S
C2014 C2016 1.391 . S
C2015 C2014 1.386 . S
C2015 C2019 1.393 . S
C2016 H2005 0.950 . S
C2016 C2014 1.391 . S
C2016 C2017 1.400 . S
C2017 C2011 1.491 . S
C2017 C2016 1.400 . S
C2017 C2018 1.398 . S
C2018 H2006 0.950 . S
C2018 C2017 1.398 . S
C2018 C2019 1.391 . S
C2019 H2007 0.950 . S
C2019 C2015 1.393 . S
C2019 C2018 1.391 . S
H2020 C2028 0.950 . S
H2021 C2033 0.950 . S
H2022 C2030 0.950 . S
H2023 C2032 0.950 . S
H2024 C2034 0.950 . S
H2025 C2036 0.950 . S
H2026 C2038 0.950 . S
H2027 C2039 0.946 1_655 S
C2028 H2020 0.950 . S
C2028 C2029 1.386 . S
C2028 C2030 1.391 . S
C2029 C2028 1.386 . S
C2029 C2033 1.393 . S
C2030 H2022 0.950 . S
C2030 C2028 1.391 . S
C2030 C2031 1.400 . S
C2031 C2030 1.400 . S
C2031 C2032 1.398 . S
C2031 C2037 1.491 . S
C2032 H2023 0.950 . S
C2032 C2031 1.398 . S
C2032 C2033 1.391 . S
C2033 H2021 0.950 . S
C2033 C2029 1.393 . S
C2033 C2032 1.391 . S
C2034 H2024 0.950 . S
C2034 C2035 1.386 . S
C2034 C2036 1.391 . S
C2035 C2034 1.386 . S
C2035 C2039 1.395 . S
C2036 H2025 0.950 . S
C2036 C2034 1.391 . S
C2036 C2037 1.400 . S
C2037 C2031 1.491 . S
C2037 C2036 1.400 . S
C2037 C2038 1.398 . S
C2038 H2026 0.950 . S
C2038 C2037 1.398 . S
C2038 C2039 1.392 . S
C2039 H2027 0.946 1_455 S
C2039 C2035 1.395 . S
C2039 C2038 1.392 . S
H2040 C2048 0.950 1_455 S
H2041 C2053 0.950 . S
H2042 C2050 0.950 . S
H2043 C2052 0.950 . S
H2044 C2054 0.950 . S
H2045 C2056 0.950 . S
H2046 C2058 0.950 . S
H2047 C2059 0.950 . S
C2048 H2040 0.950 1_655 S
C2048 C2049 1.386 . S
C2048 C2050 1.391 . S
C2049 C2048 1.386 . S
C2049 C2053 1.393 . S
C2050 H2042 0.950 . S
C2050 C2048 1.391 . S
C2050 C2051 1.400 . S
C2051 C2050 1.400 . S
C2051 C2052 1.398 . S
C2051 C2057 1.491 . S
C2052 H2043 0.950 . S
C2052 C2051 1.398 . S
C2052 C2053 1.391 . S
C2053 H2041 0.950 . S
C2053 C2049 1.393 . S
C2053 C2052 1.391 . S
C2054 H2044 0.950 . S
C2054 C2055 1.386 . S
C2054 C2056 1.391 . S
C2055 C2054 1.386 . S
C2055 C2059 1.393 . S
C2056 H2045 0.950 . S
C2056 C2054 1.391 . S
C2056 C2057 1.400 . S
C2057 C2051 1.491 . S
C2057 C2056 1.400 . S
C2057 C2058 1.398 . S
C2058 H2046 0.950 . S
C2058 C2057 1.398 . S
C2058 C2059 1.391 . S
C2059 H2047 0.950 . S
C2059 C2055 1.393 . S
C2059 C2058 1.391 . S
H2060 C2068 0.950 . S
H2061 C2073 0.950 . S
H2062 C2070 0.950 . S
H2063 C2072 0.950 . S
H2064 C2074 0.950 . S
H2065 C2076 0.950 . S
H2066 C2078 0.950 . S
H2067 C2079 0.950 1_455 S
C2068 H2060 0.950 . S
C2068 C2069 1.386 . S
C2068 C2070 1.391 . S
C2069 C2068 1.386 . S
C2069 C2073 1.393 . S
C2070 H2062 0.950 . S
C2070 C2068 1.391 . S
C2070 C2071 1.400 . S
C2071 C2070 1.400 . S
C2071 C2072 1.398 . S
C2071 C2077 1.491 . S
C2072 H2063 0.950 . S
C2072 C2071 1.398 . S
C2072 C2073 1.391 . S
C2073 H2061 0.950 . S
C2073 C2069 1.393 . S
C2073 C2072 1.391 . S
C2074 H2064 0.950 . S
C2074 C2075 1.386 . S
C2074 C2076 1.391 . S
C2075 C2074 1.386 . S
C2075 C2079 1.393 . S
C2076 H2065 0.950 . S
C2076 C2074 1.391 . S
C2076 C2077 1.400 . S
C2077 C2071 1.491 . S
C2077 C2076 1.400 . S
C2077 C2078 1.398 . S
C2078 H2066 0.950 . S
C2078 C2077 1.398 . S
C2078 C2079 1.391 . S
C2079 H2067 0.950 1_655 S
C2079 C2075 1.393 . S
C2079 C2078 1.391 . S
H2080 C2088 0.950 . S
H2081 C2093 0.950 . S
H2082 C2090 0.950 . S
H2083 C2092 0.950 . S
H2084 C2094 0.950 . S
H2085 C2096 0.950 . S
H2086 C2098 0.950 . S
H2087 C2099 0.950 . S
C2088 H2080 0.950 . S
C2088 C2089 1.386 . S
C2088 C2090 1.391 . S
C2089 C2088 1.386 . S
C2089 C2093 1.393 . S
C2090 H2082 0.950 . S
C2090 C2088 1.391 . S
C2090 C2091 1.400 . S
C2091 C2090 1.400 . S
C2091 C2092 1.398 . S
C2091 C2097 1.491 . S
C2092 H2083 0.950 . S
C2092 C2091 1.398 . S
C2092 C2093 1.391 . S
C2093 H2081 0.950 . S
C2093 C2089 1.393 . S
C2093 C2092 1.391 . S
C2094 H2084 0.950 . S
C2094 C2095 1.386 . S
C2094 C2096 1.391 . S
C2095 C2094 1.386 . S
C2095 C2099 1.393 . S
C2096 H2085 0.950 . S
C2096 C2094 1.391 . S
C2096 C2097 1.400 . S
C2097 C2091 1.491 . S
C2097 C2096 1.400 . S
C2097 C2098 1.398 . S
C2098 H2086 0.950 . S
C2098 C2097 1.398 . S
C2098 C2099 1.391 . S
C2099 H2087 0.950 . S
C2099 C2095 1.393 . S
C2099 C2098 1.391 . S
H2100 C2108 0.950 . S
H2101 C2113 0.950 . S
H2102 C2110 0.950 . S
H2103 C2112 0.950 . S
H2104 C2114 0.950 . S
H2105 C2116 0.950 . S
H2106 C2118 0.950 . S
H2107 C2119 0.950 . S
C2108 H2100 0.950 . S
C2108 C2109 1.386 . S
C2108 C2110 1.391 . S
C2109 C2108 1.386 . S
C2109 C2113 1.393 . S
C2110 H2102 0.950 . S
C2110 C2108 1.391 . S
C2110 C2111 1.400 . S
C2111 C2110 1.400 . S
C2111 C2112 1.398 . S
C2111 C2117 1.491 . S
C2112 H2103 0.950 . S
C2112 C2111 1.398 . S
C2112 C2113 1.391 . S
C2113 H2101 0.950 . S
C2113 C2109 1.393 . S
C2113 C2112 1.391 . S
C2114 H2104 0.950 . S
C2114 C2115 1.386 . S
C2114 C2116 1.391 . S
C2115 C2114 1.386 . S
C2115 C2119 1.393 . S
C2116 H2105 0.950 . S
C2116 C2114 1.391 . S
C2116 C2117 1.400 . S
C2117 C2111 1.491 . S
C2117 C2116 1.400 . S
C2117 C2118 1.398 . S
C2118 H2106 0.950 . S
C2118 C2117 1.398 . S
C2118 C2119 1.391 . S
C2119 H2107 0.950 . S
C2119 C2115 1.393 . S
C2119 C2118 1.391 . S
H2120 C2128 0.950 . S
H2121 C2133 0.950 . S
H2122 C2130 0.950 . S
H2123 C2132 0.950 . S
H2124 C2134 0.950 . S
H2125 C2136 0.950 . S
H2126 C2138 0.950 . S
H2127 C2139 0.950 . S
C2128 H2120 0.950 . S
C2128 C2129 1.386 . S
C2128 C2130 1.391 . S
C2129 C2128 1.386 . S
C2129 C2133 1.393 . S
C2130 H2122 0.950 . S
C2130 C2128 1.391 . S
C2130 C2131 1.400 . S
C2131 C2130 1.400 . S
C2131 C2132 1.398 . S
C2131 C2137 1.491 . S
C2132 H2123 0.950 . S
C2132 C2131 1.398 . S
C2132 C2133 1.391 . S
C2133 H2121 0.950 . S
C2133 C2129 1.393 . S
C2133 C2132 1.391 . S
C2134 H2124 0.950 . S
C2134 C2135 1.386 . S
C2134 C2136 1.391 . S
C2135 C2134 1.386 . S
C2135 C2139 1.393 . S
C2136 H2125 0.950 . S
C2136 C2134 1.391 . S
C2136 C2137 1.400 . S
C2137 C2131 1.491 . S
C2137 C2136 1.400 . S
C2137 C2138 1.398 . S
C2138 H2126 0.950 . S
C2138 C2137 1.398 . S
C2138 C2139 1.391 . S
C2139 H2127 0.950 . S
C2139 C2135 1.393 . S
C2139 C2138 1.391 . S
H2140 C2148 0.950 . S
H2141 C2153 0.950 . S
H2142 C2150 0.950 . S
H2143 C2152 0.950 . S
H2144 C2154 0.950 . S
H2145 C2156 0.950 . S
H2146 C2158 0.950 . S
H2147 C2159 0.950 . S
C2148 H2140 0.950 . S
C2148 C2149 1.386 . S
C2148 C2150 1.391 . S
C2149 C2148 1.386 . S
C2149 C2153 1.393 . S
C2150 H2142 0.950 . S
C2150 C2148 1.391 . S
C2150 C2151 1.400 . S
C2151 C2150 1.400 . S
C2151 C2152 1.398 . S
C2151 C2157 1.491 . S
C2152 H2143 0.950 . S
C2152 C2151 1.398 . S
C2152 C2153 1.391 . S
C2153 H2141 0.950 . S
C2153 C2149 1.393 . S
C2153 C2152 1.391 . S
C2154 H2144 0.950 . S
C2154 C2155 1.386 . S
C2154 C2156 1.391 . S
C2155 C2154 1.386 . S
C2155 C2159 1.393 . S
C2156 H2145 0.950 . S
C2156 C2154 1.391 . S
C2156 C2157 1.400 . S
C2157 C2151 1.491 . S
C2157 C2156 1.400 . S
C2157 C2158 1.398 . S
C2158 H2146 0.950 . S
C2158 C2157 1.398 . S
C2158 C2159 1.391 . S
C2159 H2147 0.950 . S
C2159 C2155 1.393 . S
C2159 C2158 1.391 . S
H2160 C2168 0.950 . S
H2161 C2173 0.950 . S
H2162 C2170 0.950 . S
H2163 C2172 0.950 . S
H2164 C2174 0.950 . S
H2165 C2176 0.950 . S
H2166 C2178 0.950 . S
H2167 C2179 0.950 . S
C2168 H2160 0.950 . S
C2168 C2169 1.386 . S
C2168 C2170 1.391 . S
C2169 C2168 1.386 . S
C2169 C2173 1.393 . S
C2170 H2162 0.950 . S
C2170 C2168 1.391 . S
C2170 C2171 1.400 . S
C2171 C2170 1.400 . S
C2171 C2172 1.398 . S
C2171 C2177 1.491 . S
C2172 H2163 0.950 . S
C2172 C2171 1.398 . S
C2172 C2173 1.391 . S
C2173 H2161 0.950 . S
C2173 C2169 1.393 . S
C2173 C2172 1.391 . S
C2174 H2164 0.950 . S
C2174 C2175 1.386 . S
C2174 C2176 1.391 . S
C2175 C2174 1.386 . S
C2175 C2179 1.393 . S
C2176 H2165 0.950 . S
C2176 C2174 1.391 . S
C2176 C2177 1.400 . S
C2177 C2171 1.491 . S
C2177 C2176 1.400 . S
C2177 C2178 1.398 . S
C2178 H2166 0.950 . S
C2178 C2177 1.398 . S
C2178 C2179 1.391 . S
C2179 H2167 0.950 . S
C2179 C2175 1.393 . S
C2179 C2178 1.391 . S
H2180 C2188 0.950 . S
H2181 C2193 0.950 . S
H2182 C2190 0.950 . S
H2183 C2192 0.950 . S
H2184 C2194 0.950 . S
H2185 C2196 0.950 . S
H2186 C2198 0.950 . S
H2187 C2199 0.950 . S
C2188 H2180 0.950 . S
C2188 C2189 1.386 . S
C2188 C2190 1.391 . S
C2189 C2188 1.386 . S
C2189 C2193 1.393 . S
C2190 H2182 0.950 . S
C2190 C2188 1.391 . S
C2190 C2191 1.400 . S
C2191 C2190 1.400 . S
C2191 C2192 1.398 . S
C2191 C2197 1.491 . S
C2192 H2183 0.950 . S
C2192 C2191 1.398 . S
C2192 C2193 1.391 . S
C2193 H2181 0.950 . S
C2193 C2189 1.393 . S
C2193 C2192 1.391 . S
C2194 H2184 0.950 . S
C2194 C2195 1.386 . S
C2194 C2196 1.391 . S
C2195 C2194 1.386 . S
C2195 C2199 1.393 . S
C2196 H2185 0.950 . S
C2196 C2194 1.391 . S
C2196 C2197 1.400 . S
C2197 C2191 1.491 . S
C2197 C2196 1.400 . S
C2197 C2198 1.398 . S
C2198 H2186 0.950 . S
C2198 C2197 1.398 . S
C2198 C2199 1.391 . S
C2199 H2187 0.950 . S
C2199 C2195 1.393 . S
C2199 C2198 1.391 . S
H2200 C2208 0.950 . S
H2201 C2213 0.950 . S
H2202 C2210 0.950 . S
H2203 C2212 0.950 . S
H2204 C2214 0.950 . S
H2205 C2216 0.950 . S
H2206 C2218 0.950 . S
H2207 C2219 0.950 . S
C2208 H2200 0.950 . S
C2208 C2209 1.386 . S
C2208 C2210 1.391 . S
C2209 C2208 1.386 . S
C2209 C2213 1.393 . S
C2210 H2202 0.950 . S
C2210 C2208 1.391 . S
C2210 C2211 1.400 . S
C2211 C2210 1.400 . S
C2211 C2212 1.398 . S
C2211 C2217 1.491 . S
C2212 H2203 0.950 . S
C2212 C2211 1.398 . S
C2212 C2213 1.391 . S
C2213 H2201 0.950 . S
C2213 C2209 1.393 . S
C2213 C2212 1.391 . S
C2214 H2204 0.950 . S
C2214 C2215 1.386 . S
C2214 C2216 1.391 . S
C2215 C2214 1.386 . S
C2215 C2219 1.393 . S
C2216 H2205 0.950 . S
C2216 C2214 1.391 . S
C2216 C2217 1.400 . S
C2217 C2211 1.491 . S
C2217 C2216 1.400 . S
C2217 C2218 1.398 . S
C2218 H2206 0.950 . S
C2218 C2217 1.398 . S
C2218 C2219 1.391 . S
C2219 H2207 0.950 . S
C2219 C2215 1.393 . S
C2219 C2218 1.391 . S
H2220 C2228 0.950 . S
H2221 C2233 0.950 . S
H2222 C2230 0.950 . S
H2223 C2232 0.950 . S
H2224 C2234 0.950 . S
H2225 C2236 0.950 . S
H2226 C2238 0.950 . S
H2227 C2239 0.950 . S
C2228 H2220 0.950 . S
C2228 C2229 1.386 . S
C2228 C2230 1.391 . S
C2229 C2228 1.386 . S
C2229 C2233 1.393 . S
C2230 H2222 0.950 . S
C2230 C2228 1.391 . S
C2230 C2231 1.400 . S
C2231 C2230 1.400 . S
C2231 C2232 1.398 . S
C2231 C2237 1.491 . S
C2232 H2223 0.950 . S
C2232 C2231 1.398 . S
C2232 C2233 1.391 . S
C2233 H2221 0.950 . S
C2233 C2229 1.393 . S
C2233 C2232 1.391 . S
C2234 H2224 0.950 . S
C2234 C2235 1.386 . S
C2234 C2236 1.391 . S
C2235 C2234 1.386 . S
C2235 C2239 1.393 . S
C2236 H2225 0.950 . S
C2236 C2234 1.391 . S
C2236 C2237 1.400 . S
C2237 C2231 1.491 . S
C2237 C2236 1.400 . S
C2237 C2238 1.398 . S
C2238 H2226 0.950 . S
C2238 C2237 1.398 . S
C2238 C2239 1.391 . S
C2239 H2227 0.950 . S
C2239 C2235 1.393 . S
C2239 C2238 1.391 . S
H2240 C2248 0.950 . S
H2241 C2253 0.950 . S
H2242 C2250 0.950 . S
H2243 C2252 0.950 . S
H2244 C2254 0.950 . S
H2245 C2256 0.950 . S
H2246 C2258 0.950 . S
H2247 C2259 0.950 . S
C2248 H2240 0.950 . S
C2248 C2249 1.386 . S
C2248 C2250 1.391 . S
C2249 C2248 1.386 . S
C2249 C2253 1.393 . S
C2250 H2242 0.950 . S
C2250 C2248 1.391 . S
C2250 C2251 1.400 . S
C2251 C2250 1.400 . S
C2251 C2252 1.398 . S
C2251 C2257 1.491 . S
C2252 H2243 0.950 . S
C2252 C2251 1.398 . S
C2252 C2253 1.391 . S
C2253 H2241 0.950 . S
C2253 C2249 1.393 . S
C2253 C2252 1.391 . S
C2254 H2244 0.950 . S
C2254 C2255 1.386 . S
C2254 C2256 1.391 . S
C2255 C2254 1.386 . S
C2255 C2259 1.393 . S
C2256 H2245 0.950 . S
C2256 C2254 1.391 . S
C2256 C2257 1.400 . S
C2257 C2251 1.491 . S
C2257 C2256 1.400 . S
C2257 C2258 1.398 . S
C2258 H2246 0.950 . S
C2258 C2257 1.398 . S
C2258 C2259 1.391 . S
C2259 H2247 0.950 . S
C2259 C2255 1.393 . S
C2259 C2258 1.391 . S
H2260 C2268 0.950 . S
H2261 C2273 0.950 . S
H2262 C2270 0.950 . S
H2263 C2272 0.950 . S
H2264 C2274 0.950 . S
H2265 C2276 0.950 . S
H2266 C2278 0.950 . S
H2267 C2279 0.950 . S
C2268 H2260 0.950 . S
C2268 C2269 1.386 . S
C2268 C2270 1.391 . S
C2269 C2268 1.386 . S
C2269 C2273 1.393 . S
C2270 H2262 0.950 . S
C2270 C2268 1.391 . S
C2270 C2271 1.400 . S
C2271 C2270 1.400 . S
C2271 C2272 1.398 . S
C2271 C2277 1.491 . S
C2272 H2263 0.950 . S
C2272 C2271 1.398 . S
C2272 C2273 1.391 . S
C2273 H2261 0.950 . S
C2273 C2269 1.393 . S
C2273 C2272 1.391 . S
C2274 H2264 0.950 . S
C2274 C2275 1.386 . S
C2274 C2276 1.391 . S
C2275 C2274 1.386 . S
C2275 C2279 1.393 . S
C2276 H2265 0.950 . S
C2276 C2274 1.391 . S
C2276 C2277 1.400 . S
C2277 C2271 1.491 . S
C2277 C2276 1.400 . S
C2277 C2278 1.398 . S
C2278 H2266 0.950 . S
C2278 C2277 1.398 . S
C2278 C2279 1.391 . S
C2279 H2267 0.950 . S
C2279 C2275 1.393 . S
C2279 C2278 1.391 . S
H2280 C2288 0.950 . S
H2281 C2293 0.950 . S
H2282 C2290 0.950 . S
H2283 C2292 0.950 . S
H2284 C2294 0.950 . S
H2285 C2296 0.950 . S
H2286 C2298 0.950 . S
H2287 C2299 0.950 . S
C2288 H2280 0.950 . S
C2288 C2289 1.386 . S
C2288 C2290 1.391 . S
C2289 C2288 1.386 . S
C2289 C2293 1.393 . S
C2290 H2282 0.950 . S
C2290 C2288 1.391 . S
C2290 C2291 1.400 . S
C2291 C2290 1.400 . S
C2291 C2292 1.398 . S
C2291 C2297 1.491 . S
C2292 H2283 0.950 . S
C2292 C2291 1.398 . S
C2292 C2293 1.391 . S
C2293 H2281 0.950 . S
C2293 C2289 1.393 . S
C2293 C2292 1.391 . S
C2294 H2284 0.950 . S
C2294 C2295 1.386 . S
C2294 C2296 1.391 . S
C2295 C2294 1.386 . S
C2295 C2299 1.393 . S
C2296 H2285 0.950 . S
C2296 C2294 1.391 . S
C2296 C2297 1.400 . S
C2297 C2291 1.491 . S
C2297 C2296 1.400 . S
C2297 C2298 1.398 . S
C2298 H2286 0.950 . S
C2298 C2297 1.398 . S
C2298 C2299 1.391 . S
C2299 H2287 0.950 . S
C2299 C2295 1.393 . S
C2299 C2298 1.391 . S
H2300 C2308 0.950 . S
H2301 C2313 0.950 . S
H2302 C2310 0.950 . S
H2303 C2312 0.950 . S
H2304 C2314 0.950 . S
H2305 C2316 0.950 . S
H2306 C2318 0.950 . S
H2307 C2319 0.950 . S
C2308 H2300 0.950 . S
C2308 C2309 1.386 . S
C2308 C2310 1.391 . S
C2309 C2308 1.386 . S
C2309 C2313 1.393 . S
C2310 H2302 0.950 . S
C2310 C2308 1.391 . S
C2310 C2311 1.400 . S
C2311 C2310 1.400 . S
C2311 C2312 1.398 . S
C2311 C2317 1.491 . S
C2312 H2303 0.950 . S
C2312 C2311 1.398 . S
C2312 C2313 1.391 . S
C2313 H2301 0.950 . S
C2313 C2309 1.393 . S
C2313 C2312 1.391 . S
C2314 H2304 0.950 . S
C2314 C2315 1.386 . S
C2314 C2316 1.391 . S
C2315 C2314 1.386 . S
C2315 C2319 1.393 . S
C2316 H2305 0.950 . S
C2316 C2314 1.391 . S
C2316 C2317 1.400 . S
C2317 C2311 1.491 . S
C2317 C2316 1.400 . S
C2317 C2318 1.398 . S
C2318 H2306 0.950 . S
C2318 C2317 1.398 . S
C2318 C2319 1.391 . S
C2319 H2307 0.950 . S
C2319 C2315 1.393 . S
C2319 C2318 1.391 . S
H2320 C2328 0.950 . S
H2321 C2333 0.950 . S
H2322 C2330 0.950 . S
H2323 C2332 0.950 . S
H2324 C2334 0.950 . S
H2325 C2336 0.950 . S
H2326 C2338 0.950 . S
H2327 C2339 0.950 . S
C2328 H2320 0.950 . S
C2328 C2329 1.386 . S
C2328 C2330 1.391 . S
C2329 C2328 1.386 . S
C2329 C2333 1.393 . S
C2330 H2322 0.950 . S
C2330 C2328 1.391 . S
C2330 C2331 1.400 . S
C2331 C2330 1.400 . S
C2331 C2332 1.398 . S
C2331 C2337 1.491 . S
C2332 H2323 0.950 . S
C2332 C2331 1.398 . S
C2332 C2333 1.391 . S
C2333 H2321 0.950 . S
C2333 C2329 1.393 . S
C2333 C2332 1.391 . S
C2334 H2324 0.950 . S
C2334 C2335 1.386 . S
C2334 C2336 1.391 . S
C2335 C2334 1.386 . S
C2335 C2339 1.393 . S
C2336 H2325 0.950 . S
C2336 C2334 1.391 . S
C2336 C2337 1.400 . S
C2337 C2331 1.491 . S
C2337 C2336 1.400 . S
C2337 C2338 1.398 . S
C2338 H2326 0.950 . S
C2338 C2337 1.398 . S
C2338 C2339 1.391 . S
C2339 H2327 0.950 . S
C2339 C2335 1.393 . S
C2339 C2338 1.391 . S
H2340 C2348 0.950 . S
H2341 C2353 0.950 . S
H2342 C2350 0.950 . S
H2343 C2352 0.950 . S
H2344 C2354 0.950 . S
H2345 C2356 0.950 . S
H2346 C2358 0.950 . S
H2347 C2359 0.950 . S
C2348 H2340 0.950 . S
C2348 C2349 1.386 . S
C2348 C2350 1.391 . S
C2349 C2348 1.386 . S
C2349 C2353 1.393 . S
C2350 H2342 0.950 . S
C2350 C2348 1.391 . S
C2350 C2351 1.400 . S
C2351 C2350 1.400 . S
C2351 C2352 1.398 . S
C2351 C2357 1.491 . S
C2352 H2343 0.950 . S
C2352 C2351 1.398 . S
C2352 C2353 1.391 . S
C2353 H2341 0.950 . S
C2353 C2349 1.393 . S
C2353 C2352 1.391 . S
C2354 H2344 0.950 . S
C2354 C2355 1.386 . S
C2354 C2356 1.391 . S
C2355 C2354 1.386 . S
C2355 C2359 1.393 . S
C2356 H2345 0.950 . S
C2356 C2354 1.391 . S
C2356 C2357 1.400 . S
C2357 C2351 1.491 . S
C2357 C2356 1.400 . S
C2357 C2358 1.398 . S
C2358 H2346 0.950 . S
C2358 C2357 1.398 . S
C2358 C2359 1.391 . S
C2359 H2347 0.950 . S
C2359 C2355 1.393 . S
C2359 C2358 1.391 . S
H2360 C2368 0.950 . S
H2361 C2373 0.950 . S
H2362 C2370 0.950 . S
H2363 C2372 0.950 . S
H2364 C2374 0.950 . S
H2365 C2376 0.950 . S
H2366 C2378 0.950 . S
H2367 C2379 0.950 . S
C2368 H2360 0.950 . S
C2368 C2369 1.386 . S
C2368 C2370 1.391 . S
C2369 C2368 1.386 . S
C2369 C2373 1.393 . S
C2370 H2362 0.950 . S
C2370 C2368 1.391 . S
C2370 C2371 1.400 . S
C2371 C2370 1.400 . S
C2371 C2372 1.398 . S
C2371 C2377 1.491 . S
C2372 H2363 0.950 . S
C2372 C2371 1.398 . S
C2372 C2373 1.391 . S
C2373 H2361 0.950 . S
C2373 C2369 1.393 . S
C2373 C2372 1.391 . S
C2374 H2364 0.950 . S
C2374 C2375 1.386 . S
C2374 C2376 1.391 . S
C2375 C2374 1.386 . S
C2375 C2379 1.393 . S
C2376 H2365 0.950 . S
C2376 C2374 1.391 . S
C2376 C2377 1.400 . S
C2377 C2371 1.491 . S
C2377 C2376 1.400 . S
C2377 C2378 1.398 . S
C2378 H2366 0.950 . S
C2378 C2377 1.398 . S
C2378 C2379 1.391 . S
C2379 H2367 0.950 . S
C2379 C2375 1.393 . S
C2379 C2378 1.391 . S
H2380 C2388 0.950 . S
H2381 C2393 0.950 . S
H2382 C2390 0.950 . S
H2383 C2392 0.950 . S
H2384 C2394 0.950 . S
H2385 C2396 0.950 . S
H2386 C2398 0.950 . S
H2387 C2399 0.950 . S
C2388 H2380 0.950 . S
C2388 C2389 1.386 . S
C2388 C2390 1.391 . S
C2389 C2388 1.386 . S
C2389 C2393 1.393 . S
C2390 H2382 0.950 . S
C2390 C2388 1.391 . S
C2390 C2391 1.400 . S
C2391 C2390 1.400 . S
C2391 C2392 1.398 . S
C2391 C2397 1.491 . S
C2392 H2383 0.950 . S
C2392 C2391 1.398 . S
C2392 C2393 1.391 . S
C2393 H2381 0.950 . S
C2393 C2389 1.393 . S
C2393 C2392 1.391 . S
C2394 H2384 0.950 . S
C2394 C2395 1.386 . S
C2394 C2396 1.391 . S
C2395 C2394 1.386 . S
C2395 C2399 1.393 . S
C2396 H2385 0.950 . S
C2396 C2394 1.391 . S
C2396 C2397 1.400 . S
C2397 C2391 1.491 . S
C2397 C2396 1.400 . S
C2397 C2398 1.398 . S
C2398 H2386 0.950 . S
C2398 C2397 1.398 . S
C2398 C2399 1.391 . S
C2399 H2387 0.950 . S
C2399 C2395 1.393 . S
C2399 C2398 1.391 . S
H2400 C2408 0.950 . S
H2401 C2413 0.950 . S
H2402 C2410 0.950 . S
H2403 C2412 0.950 . S
H2404 C2414 0.950 . S
H2405 C2416 0.950 . S
H2406 C2418 0.950 . S
H2407 C2419 0.950 . S
C2408 H2400 0.950 . S
C2408 C2409 1.386 1_565 S
C2408 C2410 1.391 . S
C2409 C2408 1.386 1_545 S
C2409 C2413 1.393 . S
C2410 H2402 0.950 . S
C2410 C2408 1.391 . S
C2410 C2411 1.400 1_565 S
C2411 C2410 1.400 1_545 S
C2411 C2412 1.398 . S
C2411 C2417 1.491 1_545 S
C2412 H2403 0.950 . S
C2412 C2411 1.398 . S
C2412 C2413 1.391 . S
C2413 H2401 0.950 . S
C2413 C2409 1.393 . S
C2413 C2412 1.391 . S
C2414 H2404 0.950 . S
C2414 C2415 1.386 1_545 S
C2414 C2416 1.391 . S
C2415 C2414 1.386 1_565 S
C2415 C2419 1.393 . S
C2416 H2405 0.950 . S
C2416 C2414 1.391 . S
C2416 C2417 1.400 1_545 S
C2417 C2411 1.491 1_565 S
C2417 C2416 1.400 1_565 S
C2417 C2418 1.398 . S
C2418 H2406 0.950 . S
C2418 C2417 1.398 . S
C2418 C2419 1.391 . S
C2419 H2407 0.950 . S
C2419 C2415 1.393 . S
C2419 C2418 1.391 . S
H2420 C2428 0.950 . S
H2421 C2433 0.950 . S
H2422 C2430 0.950 . S
H2423 C2432 0.950 . S
H2424 C2434 0.950 . S
H2425 C2436 0.950 . S
H2426 C2438 0.950 . S
H2427 C2439 0.950 . S
C2428 H2420 0.950 . S
C2428 C2429 1.386 . S
C2428 C2430 1.391 . S
C2429 C2428 1.386 . S
C2429 C2433 1.393 . S
C2430 H2422 0.950 . S
C2430 C2428 1.391 . S
C2430 C2431 1.400 . S
C2431 C2430 1.400 . S
C2431 C2432 1.398 . S
C2431 C2437 1.491 . S
C2432 H2423 0.950 . S
C2432 C2431 1.398 . S
C2432 C2433 1.391 . S
C2433 H2421 0.950 . S
C2433 C2429 1.393 . S
C2433 C2432 1.391 . S
C2434 H2424 0.950 . S
C2434 C2435 1.386 . S
C2434 C2436 1.391 . S
C2435 C2434 1.386 . S
C2435 C2439 1.393 . S
C2436 H2425 0.950 . S
C2436 C2434 1.391 . S
C2436 C2437 1.400 . S
C2437 C2431 1.491 . S
C2437 C2436 1.400 . S
C2437 C2438 1.398 . S
C2438 H2426 0.950 . S
C2438 C2437 1.398 . S
C2438 C2439 1.391 . S
C2439 H2427 0.950 . S
C2439 C2435 1.393 . S
C2439 C2438 1.391 . S
H2440 C2448 0.950 . S
H2441 C2453 0.950 . S
H2442 C2450 0.950 . S
H2443 C2452 0.950 . S
H2444 C2454 0.950 . S
H2445 C2456 0.950 . S
H2446 C2458 0.950 . S
H2447 C2459 0.950 . S
C2448 H2440 0.950 . S
C2448 C2449 1.386 . S
C2448 C2450 1.391 . S
C2449 C2448 1.386 . S
C2449 C2453 1.393 . S
C2450 H2442 0.950 . S
C2450 C2448 1.391 . S
C2450 C2451 1.400 . S
C2451 C2450 1.400 . S
C2451 C2452 1.398 . S
C2451 C2457 1.491 . S
C2452 H2443 0.950 . S
C2452 C2451 1.398 . S
C2452 C2453 1.391 . S
C2453 H2441 0.950 . S
C2453 C2449 1.393 . S
C2453 C2452 1.391 . S
C2454 H2444 0.950 . S
C2454 C2455 1.386 . S
C2454 C2456 1.391 . S
C2455 C2454 1.386 . S
C2455 C2459 1.393 . S
C2456 H2445 0.950 . S
C2456 C2454 1.391 . S
C2456 C2457 1.400 . S
C2457 C2451 1.491 . S
C2457 C2456 1.400 . S
C2457 C2458 1.398 . S
C2458 H2446 0.950 . S
C2458 C2457 1.398 . S
C2458 C2459 1.391 . S
C2459 H2447 0.950 . S
C2459 C2455 1.393 . S
C2459 C2458 1.391 . S
H2460 C2468 0.960 . S
H2461 C2473 0.950 . S
H2462 C2470 0.958 . S
H2463 C2472 0.950 . S
H2464 C2474 0.965 . S
H2465 C2476 0.952 . S
H2466 C2478 0.950 . S
H2467 C2479 0.950 . S
C2468 H2460 0.960 . S
C2468 C2469 1.386 . S
C2468 C2470 1.387 1_545 S
C2469 C2468 1.386 . S
C2469 C2473 1.393 . S
C2470 H2462 0.958 . S
C2470 C2468 1.387 1_565 S
C2470 C2471 1.397 1_565 S
C2471 C2470 1.397 1_545 S
C2471 C2472 1.398 . S
C2471 C2477 1.491 1_545 S
C2472 H2463 0.950 . S
C2472 C2471 1.398 . S
C2472 C2473 1.391 . S
C2473 H2461 0.950 . S
C2473 C2469 1.393 . S
C2473 C2472 1.391 . S
C2474 H2464 0.965 . S
C2474 C2475 1.386 . S
C2474 C2476 1.390 1_565 S
C2475 C2474 1.386 . S
C2475 C2479 1.393 . S
C2476 H2465 0.952 . S
C2476 C2474 1.390 1_545 S
C2476 C2477 1.399 1_545 S
C2477 C2471 1.491 1_565 S
C2477 C2476 1.399 1_565 S
C2477 C2478 1.398 . S
C2478 H2466 0.950 . S
C2478 C2477 1.398 . S
C2478 C2479 1.391 . S
C2479 H2467 0.950 . S
C2479 C2475 1.393 . S
C2479 C2478 1.391 . S
H2480 C2488 0.950 . S
H2481 C2493 0.949 . S
H2482 C2490 0.950 . S
H2483 C2492 0.950 . S
H2484 C2494 0.950 . S
H2485 C2496 0.950 . S
H2486 C2498 0.950 . S
H2487 C2499 0.949 1_565 S
C2488 H2480 0.950 . S
C2488 C2489 1.386 . S
C2488 C2490 1.391 . S
C2489 C2488 1.386 . S
C2489 C2493 1.394 1_565 S
C2490 H2482 0.950 . S
C2490 C2488 1.391 . S
C2490 C2491 1.426 . S
C2491 C2490 1.426 . S
C2491 C2492 1.385 1_565 S
C2491 C2497 1.480 1_565 S
C2492 H2483 0.950 . S
C2492 C2491 1.385 1_545 S
C2492 C2493 1.390 . S
C2493 H2481 0.949 . S
C2493 C2489 1.394 1_545 S
C2493 C2492 1.390 . S
C2494 H2484 0.950 . S
C2494 C2495 1.386 . S
C2494 C2496 1.391 . S
C2495 C2494 1.386 . S
C2495 C2499 1.394 . S
C2496 H2485 0.950 . S
C2496 C2494 1.391 . S
C2496 C2497 1.434 . S
C2497 C2491 1.480 1_545 S
C2497 C2496 1.434 . S
C2497 C2498 1.381 1_545 S
C2498 H2486 0.950 . S
C2498 C2497 1.381 1_565 S
C2498 C2499 1.390 1_565 S
C2499 H2487 0.949 1_545 S
C2499 C2495 1.394 . S
C2499 C2498 1.390 1_545 S
H2500 C2508 0.950 . S
H2501 C2513 0.950 . S
H2502 C2510 0.950 . S
H2503 C2512 0.950 . S
H2504 C2514 0.950 . S
H2505 C2516 0.950 . S
H2506 C2518 0.950 . S
H2507 C2519 0.950 . S
C2508 H2500 0.950 . S
C2508 C2509 1.386 . S
C2508 C2510 1.391 . S
C2509 C2508 1.386 . S
C2509 C2513 1.393 . S
C2510 H2502 0.950 . S
C2510 C2508 1.391 . S
C2510 C2511 1.400 . S
C2511 C2510 1.400 . S
C2511 C2512 1.398 . S
C2511 C2517 1.491 . S
C2512 H2503 0.950 . S
C2512 C2511 1.398 . S
C2512 C2513 1.391 . S
C2513 H2501 0.950 . S
C2513 C2509 1.393 . S
C2513 C2512 1.391 . S
C2514 H2504 0.950 . S
C2514 C2515 1.386 . S
C2514 C2516 1.391 . S
C2515 C2514 1.386 . S
C2515 C2519 1.393 . S
C2516 H2505 0.950 . S
C2516 C2514 1.391 . S
C2516 C2517 1.400 . S
C2517 C2511 1.491 . S
C2517 C2516 1.400 . S
C2517 C2518 1.398 . S
C2518 H2506 0.950 . S
C2518 C2517 1.398 . S
C2518 C2519 1.391 . S
C2519 H2507 0.950 . S
C2519 C2515 1.393 . S
C2519 C2518 1.391 . S
H2520 C2528 0.950 . S
H2521 C2533 0.950 . S
H2522 C2530 0.950 . S
H2523 C2532 0.950 . S
H2524 C2534 0.950 . S
H2525 C2536 0.950 . S
H2526 C2538 0.950 . S
H2527 C2539 0.950 . S
C2528 H2520 0.950 . S
C2528 C2529 1.386 . S
C2528 C2530 1.391 . S
C2529 C2528 1.386 . S
C2529 C2533 1.393 . S
C2530 H2522 0.950 . S
C2530 C2528 1.391 . S
C2530 C2531 1.400 . S
C2531 C2530 1.400 . S
C2531 C2532 1.398 . S
C2531 C2537 1.491 . S
C2532 H2523 0.950 . S
C2532 C2531 1.398 . S
C2532 C2533 1.391 . S
C2533 H2521 0.950 . S
C2533 C2529 1.393 . S
C2533 C2532 1.391 . S
C2534 H2524 0.950 . S
C2534 C2535 1.386 . S
C2534 C2536 1.391 . S
C2535 C2534 1.386 . S
C2535 C2539 1.393 . S
C2536 H2525 0.950 . S
C2536 C2534 1.391 . S
C2536 C2537 1.400 . S
C2537 C2531 1.491 . S
C2537 C2536 1.400 . S
C2537 C2538 1.398 . S
C2538 H2526 0.950 . S
C2538 C2537 1.398 . S
C2538 C2539 1.391 . S
C2539 H2527 0.950 . S
C2539 C2535 1.393 . S
C2539 C2538 1.391 . S
H2540 C2548 0.950 . S
H2541 C2553 0.950 . S
H2542 C2550 0.950 . S
H2543 C2552 0.950 . S
H2544 C2554 0.950 . S
H2545 C2556 0.950 . S
H2546 C2558 0.950 . S
H2547 C2559 0.950 . S
C2548 H2540 0.950 . S
C2548 C2549 1.386 . S
C2548 C2550 1.391 . S
C2549 C2548 1.386 . S
C2549 C2553 1.393 1_565 S
C2550 H2542 0.950 . S
C2550 C2548 1.391 . S
C2550 C2551 1.479 . S
C2551 C2550 1.479 . S
C2551 C2552 1.335 1_565 S
C2551 C2557 1.481 1_565 S
C2552 H2543 0.950 . S
C2552 C2551 1.335 1_545 S
C2552 C2553 1.391 . S
C2553 H2541 0.950 . S
C2553 C2549 1.393 1_545 S
C2553 C2552 1.391 . S
C2554 H2544 0.950 . S
C2554 C2555 1.386 . S
C2554 C2556 1.391 . S
C2555 C2554 1.386 . S
C2555 C2559 1.393 1_545 S
C2556 H2545 0.950 . S
C2556 C2554 1.391 . S
C2556 C2557 1.400 . S
C2557 C2551 1.481 1_545 S
C2557 C2556 1.400 . S
C2557 C2558 1.398 1_545 S
C2558 H2546 0.950 . S
C2558 C2557 1.398 1_565 S
C2558 C2559 1.391 . S
C2559 H2547 0.950 . S
C2559 C2555 1.393 1_565 S
C2559 C2558 1.391 . S
H2560 C2568 0.950 . S
H2561 C2573 0.950 . S
H2562 C2570 0.950 . S
H2563 C2572 0.950 . S
H2564 C2574 0.950 . S
H2565 C2576 0.950 . S
H2566 C2578 0.950 . S
H2567 C2579 0.950 . S
C2568 H2560 0.950 . S
C2568 C2569 1.386 . S
C2568 C2570 1.391 . S
C2569 C2568 1.386 . S
C2569 C2573 1.393 . S
C2570 H2562 0.950 . S
C2570 C2568 1.391 . S
C2570 C2571 1.400 . S
C2571 C2570 1.400 . S
C2571 C2572 1.398 . S
C2571 C2577 1.491 1_455 S
C2572 H2563 0.950 . S
C2572 C2571 1.398 . S
C2572 C2573 1.391 . S
C2573 H2561 0.950 . S
C2573 C2569 1.393 . S
C2573 C2572 1.391 . S
C2574 H2564 0.950 . S
C2574 C2575 1.386 . S
C2574 C2576 1.391 . S
C2575 C2574 1.386 . S
C2575 C2579 1.393 . S
C2576 H2565 0.950 . S
C2576 C2574 1.391 . S
C2576 C2577 1.400 . S
C2577 C2571 1.491 1_655 S
C2577 C2576 1.400 . S
C2577 C2578 1.398 . S
C2578 H2566 0.950 . S
C2578 C2577 1.398 . S
C2578 C2579 1.391 . S
C2579 H2567 0.950 . S
C2579 C2575 1.393 . S
C2579 C2578 1.391 . S
H2580 C2588 0.950 . S
H2581 C2593 0.950 . S
H2582 C2590 0.950 . S
H2583 C2592 0.950 . S
H2584 C2594 0.950 . S
H2585 C2596 0.950 . S
H2586 C2598 0.950 . S
H2587 C2599 0.950 . S
C2588 H2580 0.950 . S
C2588 C2589 1.386 . S
C2588 C2590 1.391 . S
C2589 C2588 1.386 . S
C2589 C2593 1.393 . S
C2590 H2582 0.950 . S
C2590 C2588 1.391 . S
C2590 C2591 1.400 . S
C2591 C2590 1.400 . S
C2591 C2592 1.398 . S
C2591 C2597 1.491 . S
C2592 H2583 0.950 . S
C2592 C2591 1.398 . S
C2592 C2593 1.391 . S
C2593 H2581 0.950 . S
C2593 C2589 1.393 . S
C2593 C2592 1.391 . S
C2594 H2584 0.950 . S
C2594 C2595 1.386 . S
C2594 C2596 1.391 . S
C2595 C2594 1.386 . S
C2595 C2599 1.393 . S
C2596 H2585 0.950 . S
C2596 C2594 1.391 . S
C2596 C2597 1.400 . S
C2597 C2591 1.491 . S
C2597 C2596 1.400 . S
C2597 C2598 1.398 . S
C2598 H2586 0.950 . S
C2598 C2597 1.398 . S
C2598 C2599 1.391 . S
C2599 H2587 0.950 . S
C2599 C2595 1.393 . S
C2599 C2598 1.391 . S
H2600 C2608 0.950 . S
H2601 C2613 0.950 . S
H2602 C2610 0.950 . S
H2603 C2612 0.950 . S
H2604 C2614 0.950 . S
H2605 C2616 0.950 . S
H2606 C2618 0.950 . S
H2607 C2619 0.950 . S
C2608 H2600 0.950 . S
C2608 C2609 1.386 . S
C2608 C2610 1.391 . S
C2609 C2608 1.386 . S
C2609 C2613 1.393 . S
C2610 H2602 0.950 . S
C2610 C2608 1.391 . S
C2610 C2611 1.400 . S
C2611 C2610 1.400 . S
C2611 C2612 1.398 . S
C2611 C2617 1.491 1_655 S
C2612 H2603 0.950 . S
C2612 C2611 1.398 . S
C2612 C2613 1.391 . S
C2613 H2601 0.950 . S
C2613 C2609 1.393 . S
C2613 C2612 1.391 . S
C2614 H2604 0.950 . S
C2614 C2615 1.386 . S
C2614 C2616 1.391 . S
C2615 C2614 1.386 . S
C2615 C2619 1.393 . S
C2616 H2605 0.950 . S
C2616 C2614 1.391 . S
C2616 C2617 1.400 . S
C2617 C2611 1.491 1_455 S
C2617 C2616 1.400 . S
C2617 C2618 1.398 . S
C2618 H2606 0.950 . S
C2618 C2617 1.398 . S
C2618 C2619 1.391 . S
C2619 H2607 0.950 . S
C2619 C2615 1.393 . S
C2619 C2618 1.391 . S
H2620 C2628 0.950 . S
H2621 C2633 0.950 . S
H2622 C2630 0.950 . S
H2623 C2632 0.950 . S
H2624 C2634 0.950 . S
H2625 C2636 0.950 . S
H2626 C2638 0.950 . S
H2627 C2639 0.950 . S
C2628 H2620 0.950 . S
C2628 C2629 1.386 . S
C2628 C2630 1.391 . S
C2629 C2628 1.386 . S
C2629 C2633 1.393 . S
C2630 H2622 0.950 . S
C2630 C2628 1.391 . S
C2630 C2631 1.400 . S
C2631 C2630 1.400 . S
C2631 C2632 1.398 . S
C2631 C2637 1.491 . S
C2632 H2623 0.950 . S
C2632 C2631 1.398 . S
C2632 C2633 1.391 . S
C2633 H2621 0.950 . S
C2633 C2629 1.393 . S
C2633 C2632 1.391 . S
C2634 H2624 0.950 . S
C2634 C2635 1.386 . S
C2634 C2636 1.391 . S
C2635 C2634 1.386 . S
C2635 C2639 1.393 . S
C2636 H2625 0.950 . S
C2636 C2634 1.391 . S
C2636 C2637 1.400 . S
C2637 C2631 1.491 . S
C2637 C2636 1.400 . S
C2637 C2638 1.398 . S
C2638 H2626 0.950 . S
C2638 C2637 1.398 . S
C2638 C2639 1.391 . S
C2639 H2627 0.950 . S
C2639 C2635 1.393 . S
C2639 C2638 1.391 . S
H2640 C2648 0.950 . S
H2641 C2653 0.950 . S
H2642 C2650 0.950 . S
H2643 C2652 0.950 . S
H2644 C2654 0.950 . S
H2645 C2656 0.950 . S
H2646 C2658 0.950 . S
H2647 C2659 0.950 . S
C2648 H2640 0.950 . S
C2648 C2649 1.386 . S
C2648 C2650 1.391 . S
C2649 C2648 1.386 . S
C2649 C2653 1.393 . S
C2650 H2642 0.950 . S
C2650 C2648 1.391 . S
C2650 C2651 1.400 . S
C2651 C2650 1.400 . S
C2651 C2652 1.398 . S
C2651 C2657 1.491 1_655 S
C2652 H2643 0.950 . S
C2652 C2651 1.398 . S
C2652 C2653 1.391 . S
C2653 H2641 0.950 . S
C2653 C2649 1.393 . S
C2653 C2652 1.391 . S
C2654 H2644 0.950 . S
C2654 C2655 1.386 . S
C2654 C2656 1.391 . S
C2655 C2654 1.386 . S
C2655 C2659 1.393 . S
C2656 H2645 0.950 . S
C2656 C2654 1.391 . S
C2656 C2657 1.400 . S
C2657 C2651 1.491 1_455 S
C2657 C2656 1.400 . S
C2657 C2658 1.398 . S
C2658 H2646 0.950 . S
C2658 C2657 1.398 . S
C2658 C2659 1.391 . S
C2659 H2647 0.950 . S
C2659 C2655 1.393 . S
C2659 C2658 1.391 . S
H2660 C2668 0.950 . S
H2661 C2673 0.950 . S
H2662 C2670 0.950 . S
H2663 C2672 0.950 . S
H2664 C2674 0.950 . S
H2665 C2676 0.950 . S
H2666 C2678 0.950 . S
H2667 C2679 0.950 . S
C2668 H2660 0.950 . S
C2668 C2669 1.386 . S
C2668 C2670 1.391 . S
C2669 C2668 1.386 . S
C2669 C2673 1.393 . S
C2670 H2662 0.950 . S
C2670 C2668 1.391 . S
C2670 C2671 1.400 . S
C2671 C2670 1.400 . S
C2671 C2672 1.398 . S
C2671 C2677 1.491 . S
C2672 H2663 0.950 . S
C2672 C2671 1.398 . S
C2672 C2673 1.391 . S
C2673 H2661 0.950 . S
C2673 C2669 1.393 . S
C2673 C2672 1.391 . S
C2674 H2664 0.950 . S
C2674 C2675 1.386 . S
C2674 C2676 1.391 . S
C2675 C2674 1.386 . S
C2675 C2679 1.393 . S
C2676 H2665 0.950 . S
C2676 C2674 1.391 . S
C2676 C2677 1.400 . S
C2677 C2671 1.491 . S
C2677 C2676 1.400 . S
C2677 C2678 1.398 . S
C2678 H2666 0.950 . S
C2678 C2677 1.398 . S
C2678 C2679 1.391 . S
C2679 H2667 0.950 . S
C2679 C2675 1.393 . S
C2679 C2678 1.391 . S
H2680 C2688 0.950 . S
H2681 C2693 0.950 . S
H2682 C2690 0.950 . S
H2683 C2692 0.950 . S
H2684 C2694 0.950 . S
H2685 C2696 0.950 . S
H2686 C2698 0.950 . S
H2687 C2699 0.950 . S
C2688 H2680 0.950 . S
C2688 C2689 1.386 . S
C2688 C2690 1.391 . S
C2689 C2688 1.386 . S
C2689 C2693 1.393 . S
C2690 H2682 0.950 . S
C2690 C2688 1.391 . S
C2690 C2691 1.400 . S
C2691 C2690 1.400 . S
C2691 C2692 1.398 . S
C2691 C2697 1.491 1_455 S
C2692 H2683 0.950 . S
C2692 C2691 1.398 . S
C2692 C2693 1.391 . S
C2693 H2681 0.950 . S
C2693 C2689 1.393 . S
C2693 C2692 1.391 . S
C2694 H2684 0.950 . S
C2694 C2695 1.386 . S
C2694 C2696 1.391 . S
C2695 C2694 1.386 . S
C2695 C2699 1.393 . S
C2696 H2685 0.950 . S
C2696 C2694 1.391 . S
C2696 C2697 1.400 . S
C2697 C2691 1.491 1_655 S
C2697 C2696 1.400 . S
C2697 C2698 1.398 . S
C2698 H2686 0.950 . S
C2698 C2697 1.398 . S
C2698 C2699 1.391 . S
C2699 H2687 0.950 . S
C2699 C2695 1.393 . S
C2699 C2698 1.391 . S
H2700 C2708 0.950 . S
H2701 C2713 0.950 . S
H2702 C2710 0.950 . S
H2703 C2712 0.950 . S
H2704 C2714 0.950 . S
H2705 C2716 0.950 . S
H2706 C2718 0.950 . S
H2707 C2719 0.950 . S
C2708 H2700 0.950 . S
C2708 C2709 1.386 . S
C2708 C2710 1.391 . S
C2709 C2708 1.386 . S
C2709 C2713 1.393 . S
C2710 H2702 0.950 . S
C2710 C2708 1.391 . S
C2710 C2711 1.400 . S
C2711 C2710 1.400 . S
C2711 C2712 1.398 . S
C2711 C2717 1.491 . S
C2712 H2703 0.950 . S
C2712 C2711 1.398 . S
C2712 C2713 1.391 . S
C2713 H2701 0.950 . S
C2713 C2709 1.393 . S
C2713 C2712 1.391 . S
C2714 H2704 0.950 . S
C2714 C2715 1.386 . S
C2714 C2716 1.391 . S
C2715 C2714 1.386 . S
C2715 C2719 1.393 . S
C2716 H2705 0.950 . S
C2716 C2714 1.391 . S
C2716 C2717 1.400 . S
C2717 C2711 1.491 . S
C2717 C2716 1.400 . S
C2717 C2718 1.398 . S
C2718 H2706 0.950 . S
C2718 C2717 1.398 . S
C2718 C2719 1.391 . S
C2719 H2707 0.950 . S
C2719 C2715 1.393 . S
C2719 C2718 1.391 . S
H2720 C2728 0.950 . S
H2721 C2733 0.950 . S
H2722 C2730 0.950 . S
H2723 C2732 0.950 . S
H2724 C2734 0.950 . S
H2725 C2736 0.950 . S
H2726 C2738 0.950 . S
H2727 C2739 0.950 . S
C2728 H2720 0.950 . S
C2728 C2729 1.386 1_565 S
C2728 C2730 1.391 . S
C2729 C2728 1.386 1_545 S
C2729 C2733 1.393 . S
C2730 H2722 0.950 . S
C2730 C2728 1.391 . S
C2730 C2731 1.400 1_565 S
C2731 C2730 1.400 1_545 S
C2731 C2732 1.398 . S
C2731 C2737 1.491 1_645 S
C2732 H2723 0.950 . S
C2732 C2731 1.398 . S
C2732 C2733 1.391 . S
C2733 H2721 0.950 . S
C2733 C2729 1.393 . S
C2733 C2732 1.391 . S
C2734 H2724 0.950 . S
C2734 C2735 1.386 1_545 S
C2734 C2736 1.391 . S
C2735 C2734 1.386 1_565 S
C2735 C2739 1.393 . S
C2736 H2725 0.950 . S
C2736 C2734 1.391 . S
C2736 C2737 1.400 1_545 S
C2737 C2731 1.491 1_465 S
C2737 C2736 1.400 1_565 S
C2737 C2738 1.398 . S
C2738 H2726 0.950 . S
C2738 C2737 1.398 . S
C2738 C2739 1.391 . S
C2739 H2727 0.950 . S
C2739 C2735 1.393 . S
C2739 C2738 1.391 . S
H2740 C2748 0.950 . S
H2741 C2753 0.950 . S
H2742 C2750 0.950 . S
H2743 C2752 0.950 . S
H2744 C2754 0.950 . S
H2745 C2756 0.950 . S
H2746 C2758 0.950 . S
H2747 C2759 0.950 . S
C2748 H2740 0.950 . S
C2748 C2749 1.386 . S
C2748 C2750 1.391 . S
C2749 C2748 1.386 . S
C2749 C2753 1.393 . S
C2750 H2742 0.950 . S
C2750 C2748 1.391 . S
C2750 C2751 1.400 . S
C2751 C2750 1.400 . S
C2751 C2752 1.398 . S
C2751 C2757 1.491 . S
C2752 H2743 0.950 . S
C2752 C2751 1.398 . S
C2752 C2753 1.391 . S
C2753 H2741 0.950 . S
C2753 C2749 1.393 . S
C2753 C2752 1.391 . S
C2754 H2744 0.950 . S
C2754 C2755 1.386 . S
C2754 C2756 1.391 . S
C2755 C2754 1.386 . S
C2755 C2759 1.393 . S
C2756 H2745 0.950 . S
C2756 C2754 1.391 . S
C2756 C2757 1.400 . S
C2757 C2751 1.491 . S
C2757 C2756 1.400 . S
C2757 C2758 1.398 . S
C2758 H2746 0.950 . S
C2758 C2757 1.398 . S
C2758 C2759 1.391 . S
C2759 H2747 0.950 . S
C2759 C2755 1.393 . S
C2759 C2758 1.391 . S
H2760 C2768 0.950 . S
H2761 C2773 0.950 . S
H2762 C2770 0.950 . S
H2763 C2772 0.950 . S
H2764 C2774 0.950 . S
H2765 C2776 0.950 . S
H2766 C2778 0.950 . S
H2767 C2779 0.950 . S
C2768 H2760 0.950 . S
C2768 C2769 1.386 . S
C2768 C2770 1.391 . S
C2769 C2768 1.386 . S
C2769 C2773 1.393 . S
C2770 H2762 0.950 . S
C2770 C2768 1.391 . S
C2770 C2771 1.400 . S
C2771 C2770 1.400 . S
C2771 C2772 1.398 . S
C2771 C2777 1.491 1_655 S
C2772 H2763 0.950 . S
C2772 C2771 1.398 . S
C2772 C2773 1.391 . S
C2773 H2761 0.950 . S
C2773 C2769 1.393 . S
C2773 C2772 1.391 . S
C2774 H2764 0.950 . S
C2774 C2775 1.386 . S
C2774 C2776 1.391 . S
C2775 C2774 1.386 . S
C2775 C2779 1.393 . S
C2776 H2765 0.950 . S
C2776 C2774 1.391 . S
C2776 C2777 1.400 . S
C2777 C2771 1.491 1_455 S
C2777 C2776 1.400 . S
C2777 C2778 1.398 . S
C2778 H2766 0.950 . S
C2778 C2777 1.398 . S
C2778 C2779 1.391 . S
C2779 H2767 0.950 . S
C2779 C2775 1.393 . S
C2779 C2778 1.391 . S
H2780 C2788 0.950 . S
H2781 C2793 0.950 . S
H2782 C2790 0.950 . S
H2783 C2792 0.950 . S
H2784 C2794 0.950 . S
H2785 C2796 0.950 . S
H2786 C2798 0.950 . S
H2787 C2799 0.950 . S
C2788 H2780 0.950 . S
C2788 C2789 1.386 1_565 S
C2788 C2790 1.391 . S
C2789 C2788 1.386 1_545 S
C2789 C2793 1.393 . S
C2790 H2782 0.950 . S
C2790 C2788 1.391 . S
C2790 C2791 1.400 1_565 S
C2791 C2790 1.400 1_545 S
C2791 C2792 1.398 . S
C2791 C2797 1.491 1_545 S
C2792 H2783 0.950 . S
C2792 C2791 1.398 . S
C2792 C2793 1.391 . S
C2793 H2781 0.950 . S
C2793 C2789 1.393 . S
C2793 C2792 1.391 . S
C2794 H2784 0.950 . S
C2794 C2795 1.386 1_545 S
C2794 C2796 1.391 . S
C2795 C2794 1.386 1_565 S
C2795 C2799 1.393 . S
C2796 H2785 0.950 . S
C2796 C2794 1.391 . S
C2796 C2797 1.400 1_545 S
C2797 C2791 1.491 1_565 S
C2797 C2796 1.400 1_565 S
C2797 C2798 1.398 . S
C2798 H2786 0.950 . S
C2798 C2797 1.398 . S
C2798 C2799 1.391 . S
C2799 H2787 0.950 . S
C2799 C2795 1.393 . S
C2799 C2798 1.391 . S
H2800 C2808 0.950 . S
H2801 C2813 0.950 . S
H2802 C2810 0.950 . S
H2803 C2812 0.950 . S
H2804 C2814 0.950 . S
H2805 C2816 0.950 . S
H2806 C2818 0.950 . S
H2807 C2819 0.950 . S
C2808 H2800 0.950 . S
C2808 C2809 1.386 . S
C2808 C2810 1.391 . S
C2809 C2808 1.386 . S
C2809 C2813 1.393 1_545 S
C2810 H2802 0.950 . S
C2810 C2808 1.391 . S
C2810 C2811 1.400 . S
C2811 C2810 1.400 . S
C2811 C2812 1.398 1_545 S
C2811 C2817 1.482 1_645 S
C2812 H2803 0.950 . S
C2812 C2811 1.398 1_565 S
C2812 C2813 1.391 . S
C2813 H2801 0.950 . S
C2813 C2809 1.393 1_565 S
C2813 C2812 1.391 . S
C2814 H2804 0.950 . S
C2814 C2815 1.386 . S
C2814 C2816 1.391 . S
C2815 C2814 1.386 . S
C2815 C2819 1.393 1_565 S
C2816 H2805 0.950 . S
C2816 C2814 1.391 . S
C2816 C2817 1.462 . S
C2817 C2811 1.482 1_465 S
C2817 C2816 1.462 . S
C2817 C2818 1.349 1_565 S
C2818 H2806 0.950 . S
C2818 C2817 1.349 1_545 S
C2818 C2819 1.391 . S
C2819 H2807 0.950 . S
C2819 C2815 1.393 1_545 S
C2819 C2818 1.391 . S
H2820 C2828 0.950 . S
H2821 C2833 0.950 . S
H2822 C2830 0.950 . S
H2823 C2832 0.950 . S
H2824 C2834 0.950 . S
H2825 C2836 0.950 . S
H2826 C2838 0.950 . S
H2827 C2839 0.950 . S
C2828 H2820 0.950 . S
C2828 C2829 1.386 . S
C2828 C2830 1.391 . S
C2829 C2828 1.386 . S
C2829 C2833 1.393 . S
C2830 H2822 0.950 . S
C2830 C2828 1.391 . S
C2830 C2831 1.400 . S
C2831 C2830 1.400 . S
C2831 C2832 1.398 . S
C2831 C2837 1.491 . S
C2832 H2823 0.950 . S
C2832 C2831 1.398 . S
C2832 C2833 1.391 . S
C2833 H2821 0.950 . S
C2833 C2829 1.393 . S
C2833 C2832 1.391 . S
C2834 H2824 0.950 . S
C2834 C2835 1.386 . S
C2834 C2836 1.391 . S
C2835 C2834 1.386 . S
C2835 C2839 1.393 . S
C2836 H2825 0.950 . S
C2836 C2834 1.391 . S
C2836 C2837 1.400 . S
C2837 C2831 1.491 . S
C2837 C2836 1.400 . S
C2837 C2838 1.398 . S
C2838 H2826 0.950 . S
C2838 C2837 1.398 . S
C2838 C2839 1.391 . S
C2839 H2827 0.950 . S
C2839 C2835 1.393 . S
C2839 C2838 1.391 . S
H2840 C2848 0.950 . S
H2841 C2853 0.950 . S
H2842 C2850 0.950 . S
H2843 C2852 0.950 . S
H2844 C2854 0.950 . S
H2845 C2856 0.950 . S
H2846 C2858 0.950 . S
H2847 C2859 0.950 . S
C2848 H2840 0.950 . S
C2848 C2849 1.386 . S
C2848 C2850 1.391 . S
C2849 C2848 1.386 . S
C2849 C2853 1.393 . S
C2850 H2842 0.950 . S
C2850 C2848 1.391 . S
C2850 C2851 1.400 . S
C2851 C2850 1.400 . S
C2851 C2852 1.398 . S
C2851 C2857 1.491 1_455 S
C2852 H2843 0.950 . S
C2852 C2851 1.398 . S
C2852 C2853 1.391 . S
C2853 H2841 0.950 . S
C2853 C2849 1.393 . S
C2853 C2852 1.391 . S
C2854 H2844 0.950 . S
C2854 C2855 1.386 . S
C2854 C2856 1.391 . S
C2855 C2854 1.386 . S
C2855 C2859 1.393 . S
C2856 H2845 0.950 . S
C2856 C2854 1.391 . S
C2856 C2857 1.400 . S
C2857 C2851 1.491 1_655 S
C2857 C2856 1.400 . S
C2857 C2858 1.398 . S
C2858 H2846 0.950 . S
C2858 C2857 1.398 . S
C2858 C2859 1.391 . S
C2859 H2847 0.950 . S
C2859 C2855 1.393 . S
C2859 C2858 1.391 . S
H2860 C2868 0.950 . S
H2861 C2873 0.950 . S
H2862 C2870 0.950 . S
H2863 C2872 0.950 . S
H2864 C2874 0.950 . S
H2865 C2876 0.950 . S
H2866 C2878 0.950 . S
H2867 C2879 0.950 . S
C2868 H2860 0.950 . S
C2868 C2869 1.386 . S
C2868 C2870 1.391 . S
C2869 C2868 1.386 . S
C2869 C2873 1.393 1_565 S
C2870 H2862 0.950 . S
C2870 C2868 1.391 . S
C2870 C2871 1.457 . S
C2871 C2870 1.457 . S
C2871 C2872 1.354 1_565 S
C2871 C2877 1.483 1_565 S
C2872 H2863 0.950 . S
C2872 C2871 1.354 1_545 S
C2872 C2873 1.391 . S
C2873 H2861 0.950 . S
C2873 C2869 1.393 1_545 S
C2873 C2872 1.391 . S
C2874 H2864 0.950 . S
C2874 C2875 1.386 . S
C2874 C2876 1.391 . S
C2875 C2874 1.386 . S
C2875 C2879 1.393 1_545 S
C2876 H2865 0.950 . S
C2876 C2874 1.391 . S
C2876 C2877 1.400 . S
C2877 C2871 1.483 1_545 S
C2877 C2876 1.400 . S
C2877 C2878 1.398 1_545 S
C2878 H2866 0.950 . S
C2878 C2877 1.398 1_565 S
C2878 C2879 1.391 . S
C2879 H2867 0.950 . S
C2879 C2875 1.393 1_565 S
C2879 C2878 1.391 . S
H2880 C2888 0.950 . S
H2881 C2893 0.950 . S
H2882 C2890 0.950 . S
H2883 C2892 0.950 . S
H2884 C2894 0.950 . S
H2885 C2896 0.950 . S
H2886 C2898 0.950 . S
H2887 C2899 0.950 . S
C2888 H2880 0.950 . S
C2888 C2889 1.386 1_655 S
C2888 C2890 1.391 . S
C2889 C2888 1.386 1_455 S
C2889 C2893 1.393 . S
C2890 H2882 0.950 . S
C2890 C2888 1.391 . S
C2890 C2891 1.387 1_655 S
C2891 C2890 1.387 1_455 S
C2891 C2892 1.411 . S
C2891 C2897 1.490 1_454 S
C2892 H2883 0.950 . S
C2892 C2891 1.411 . S
C2892 C2893 1.391 . S
C2893 H2881 0.950 . S
C2893 C2889 1.393 . S
C2893 C2892 1.391 . S
C2894 H2884 0.950 . S
C2894 C2895 1.386 1_455 S
C2894 C2896 1.391 . S
C2895 C2894 1.386 1_655 S
C2895 C2899 1.393 . S
C2896 H2885 0.950 . S
C2896 C2894 1.391 . S
C2896 C2897 1.387 1_455 S
C2897 C2891 1.490 1_656 S
C2897 C2896 1.387 1_655 S
C2897 C2898 1.411 . S
C2898 H2886 0.950 . S
C2898 C2897 1.411 . S
C2898 C2899 1.391 . S
C2899 H2887 0.950 . S
C2899 C2895 1.393 . S
C2899 C2898 1.391 . S
H2900 C2908 0.950 . S
H2901 C2913 0.950 . S
H2902 C2910 0.950 . S
H2903 C2912 0.950 . S
H2904 C2914 0.950 . S
H2905 C2916 0.950 . S
H2906 C2918 0.950 . S
H2907 C2919 0.950 . S
C2908 H2900 0.950 . S
C2908 C2909 1.386 . S
C2908 C2910 1.391 . S
C2909 C2908 1.386 . S
C2909 C2913 1.393 . S
C2910 H2902 0.950 . S
C2910 C2908 1.391 . S
C2910 C2911 1.400 . S
C2911 C2910 1.400 . S
C2911 C2912 1.398 . S
C2911 C2917 1.491 1_556 S
C2912 H2903 0.950 . S
C2912 C2911 1.398 . S
C2912 C2913 1.391 . S
C2913 H2901 0.950 . S
C2913 C2909 1.393 . S
C2913 C2912 1.391 . S
C2914 H2904 0.950 . S
C2914 C2915 1.386 . S
C2914 C2916 1.391 . S
C2915 C2914 1.386 . S
C2915 C2919 1.393 . S
C2916 H2905 0.950 . S
C2916 C2914 1.391 . S
C2916 C2917 1.400 . S
C2917 C2911 1.491 1_554 S
C2917 C2916 1.400 . S
C2917 C2918 1.398 . S
C2918 H2906 0.950 . S
C2918 C2917 1.398 . S
C2918 C2919 1.391 . S
C2919 H2907 0.950 . S
C2919 C2915 1.393 . S
C2919 C2918 1.391 . S
H2920 C2928 0.950 . S
H2921 C2933 0.950 . S
H2922 C2930 0.950 . S
H2923 C2932 0.950 . S
H2924 C2934 0.950 . S
H2925 C2936 0.950 . S
H2926 C2938 0.950 . S
H2927 C2939 0.950 . S
C2928 H2920 0.950 . S
C2928 C2929 1.386 . S
C2928 C2930 1.391 . S
C2929 C2928 1.386 . S
C2929 C2933 1.393 1_455 S
C2930 H2922 0.950 . S
C2930 C2928 1.391 . S
C2930 C2931 1.400 . S
C2931 C2930 1.400 . S
C2931 C2932 1.398 . S
C2931 C2937 1.490 1_455 S
C2932 H2923 0.950 . S
C2932 C2931 1.398 . S
C2932 C2933 1.390 1_455 S
C2933 H2921 0.950 . S
C2933 C2929 1.393 1_655 S
C2933 C2932 1.390 1_655 S
C2934 H2924 0.950 . S
C2934 C2935 1.386 . S
C2934 C2936 1.391 . S
C2935 C2934 1.386 . S
C2935 C2939 1.393 1_655 S
C2936 H2925 0.950 . S
C2936 C2934 1.391 . S
C2936 C2937 1.401 . S
C2937 C2931 1.490 1_655 S
C2937 C2936 1.401 . S
C2937 C2938 1.398 . S
C2938 H2926 0.950 . S
C2938 C2937 1.398 . S
C2938 C2939 1.390 1_655 S
C2939 H2927 0.950 . S
C2939 C2935 1.393 1_455 S
C2939 C2938 1.390 1_455 S
H2940 C2948 0.950 . S
H2941 C2953 0.950 . S
H2942 C2950 0.950 . S
H2943 C2952 0.950 . S
H2944 C2954 0.950 . S
H2945 C2956 0.950 . S
H2946 C2958 0.950 . S
H2947 C2959 0.950 . S
C2948 H2940 0.950 . S
C2948 C2949 1.386 . S
C2948 C2950 1.391 . S
C2949 C2948 1.386 . S
C2949 C2953 1.393 . S
C2950 H2942 0.950 . S
C2950 C2948 1.391 . S
C2950 C2951 1.400 . S
C2951 C2950 1.400 . S
C2951 C2952 1.398 . S
C2951 C2957 1.491 . S
C2952 H2943 0.950 . S
C2952 C2951 1.398 . S
C2952 C2953 1.391 . S
C2953 H2941 0.950 . S
C2953 C2949 1.393 . S
C2953 C2952 1.391 . S
C2954 H2944 0.950 . S
C2954 C2955 1.386 . S
C2954 C2956 1.391 . S
C2955 C2954 1.386 . S
C2955 C2959 1.393 . S
C2956 H2945 0.950 . S
C2956 C2954 1.391 . S
C2956 C2957 1.400 . S
C2957 C2951 1.491 . S
C2957 C2956 1.400 . S
C2957 C2958 1.398 . S
C2958 H2946 0.950 . S
C2958 C2957 1.398 . S
C2958 C2959 1.391 . S
C2959 H2947 0.950 . S
C2959 C2955 1.393 . S
C2959 C2958 1.391 . S
H2960 C2968 0.950 . S
H2961 C2973 0.950 . S
H2962 C2970 0.950 . S
H2963 C2972 0.950 . S
H2964 C2974 0.950 . S
H2965 C2976 0.950 . S
H2966 C2978 0.950 . S
H2967 C2979 0.950 . S
C2968 H2960 0.950 . S
C2968 C2969 1.386 . S
C2968 C2970 1.391 . S
C2969 C2968 1.386 . S
C2969 C2973 1.393 . S
C2970 H2962 0.950 . S
C2970 C2968 1.391 . S
C2970 C2971 1.400 . S
C2971 C2970 1.400 . S
C2971 C2972 1.398 . S
C2971 C2977 1.491 1_556 S
C2972 H2963 0.950 . S
C2972 C2971 1.398 . S
C2972 C2973 1.391 . S
C2973 H2961 0.950 . S
C2973 C2969 1.393 . S
C2973 C2972 1.391 . S
C2974 H2964 0.950 . S
C2974 C2975 1.386 . S
C2974 C2976 1.391 . S
C2975 C2974 1.386 . S
C2975 C2979 1.393 . S
C2976 H2965 0.950 . S
C2976 C2974 1.391 . S
C2976 C2977 1.400 . S
C2977 C2971 1.491 1_554 S
C2977 C2976 1.400 . S
C2977 C2978 1.398 . S
C2978 H2966 0.950 . S
C2978 C2977 1.398 . S
C2978 C2979 1.391 . S
C2979 H2967 0.950 . S
C2979 C2975 1.393 . S
C2979 C2978 1.391 . S
H2980 C2988 0.950 . S
H2981 C2993 0.950 . S
H2982 C2990 0.950 . S
H2983 C2992 0.950 . S
H2984 C2994 0.950 . S
H2985 C2996 0.950 . S
H2986 C2998 0.950 . S
H2987 C2999 0.950 . S
C2988 H2980 0.950 . S
C2988 C2989 1.386 1_455 S
C2988 C2990 1.391 . S
C2989 C2988 1.386 1_655 S
C2989 C2993 1.393 . S
C2990 H2982 0.950 . S
C2990 C2988 1.391 . S
C2990 C2991 1.400 1_455 S
C2991 C2990 1.400 1_655 S
C2991 C2992 1.398 . S
C2991 C2997 1.491 1_655 S
C2992 H2983 0.950 . S
C2992 C2991 1.398 . S
C2992 C2993 1.391 . S
C2993 H2981 0.950 . S
C2993 C2989 1.393 . S
C2993 C2992 1.391 . S
C2994 H2984 0.950 . S
C2994 C2995 1.386 1_655 S
C2994 C2996 1.391 . S
C2995 C2994 1.386 1_455 S
C2995 C2999 1.393 . S
C2996 H2985 0.950 . S
C2996 C2994 1.391 . S
C2996 C2997 1.400 1_655 S
C2997 C2991 1.491 1_455 S
C2997 C2996 1.400 1_455 S
C2997 C2998 1.398 . S
C2998 H2986 0.950 . S
C2998 C2997 1.398 . S
C2998 C2999 1.391 . S
C2999 H2987 0.950 . S
C2999 C2995 1.393 . S
C2999 C2998 1.391 . S
H3000 C3008 0.950 . S
H3001 C3013 0.950 . S
H3002 C3010 0.950 . S
H3003 C3012 0.950 . S
H3004 C3014 0.950 . S
H3005 C3016 0.950 . S
H3006 C3018 0.950 . S
H3007 C3019 0.950 . S
C3008 H3000 0.950 . S
C3008 C3009 1.386 . S
C3008 C3010 1.391 . S
C3009 C3008 1.386 . S
C3009 C3013 1.393 . S
C3010 H3002 0.950 . S
C3010 C3008 1.391 . S
C3010 C3011 1.400 . S
C3011 C3010 1.400 . S
C3011 C3012 1.398 . S
C3011 C3017 1.491 . S
C3012 H3003 0.950 . S
C3012 C3011 1.398 . S
C3012 C3013 1.391 . S
C3013 H3001 0.950 . S
C3013 C3009 1.393 . S
C3013 C3012 1.391 . S
C3014 H3004 0.950 . S
C3014 C3015 1.386 . S
C3014 C3016 1.391 . S
C3015 C3014 1.386 . S
C3015 C3019 1.393 . S
C3016 H3005 0.950 . S
C3016 C3014 1.391 . S
C3016 C3017 1.400 . S
C3017 C3011 1.491 . S
C3017 C3016 1.400 . S
C3017 C3018 1.398 . S
C3018 H3006 0.950 . S
C3018 C3017 1.398 . S
C3018 C3019 1.391 . S
C3019 H3007 0.950 . S
C3019 C3015 1.393 . S
C3019 C3018 1.391 . S
H3020 C3028 0.950 . S
H3021 C3033 0.950 . S
H3022 C3030 0.950 . S
H3023 C3032 0.950 . S
H3024 C3034 0.950 . S
H3025 C3036 0.950 . S
H3026 C3038 0.950 . S
H3027 C3039 0.950 . S
C3028 H3020 0.950 . S
C3028 C3029 1.390 1_655 S
C3028 C3030 1.391 . S
C3029 C3028 1.390 1_455 S
C3029 C3033 1.388 1_565 S
C3030 H3022 0.950 . S
C3030 C3028 1.391 . S
C3030 C3031 1.398 1_665 S
C3031 C3030 1.398 1_445 S
C3031 C3032 1.401 . S
C3031 C3037 1.490 1_445 S
C3032 H3023 0.950 . S
C3032 C3031 1.401 . S
C3032 C3033 1.391 . S
C3033 H3021 0.950 . S
C3033 C3029 1.388 1_545 S
C3033 C3032 1.391 . S
C3034 H3024 0.950 . S
C3034 C3035 1.385 1_455 S
C3034 C3036 1.391 . S
C3035 C3034 1.385 1_655 S
C3035 C3039 1.394 1_545 S
C3036 H3025 0.950 . S
C3036 C3034 1.391 . S
C3036 C3037 1.392 1_445 S
C3037 C3031 1.490 1_665 S
C3037 C3036 1.392 1_665 S
C3037 C3038 1.407 . S
C3038 H3026 0.950 . S
C3038 C3037 1.407 . S
C3038 C3039 1.391 . S
C3039 H3027 0.950 . S
C3039 C3035 1.394 1_565 S
C3039 C3038 1.391 . S
H3040 C3048 0.950 . S
H3041 C3053 0.950 . S
H3042 C3050 0.950 . S
H3043 C3052 0.950 . S
H3044 C3054 0.950 . S
H3045 C3056 0.950 . S
H3046 C3058 0.950 . S
H3047 C3059 0.950 . S
C3048 H3040 0.950 . S
C3048 C3049 1.386 . S
C3048 C3050 1.391 . S
C3049 C3048 1.386 . S
C3049 C3053 1.393 . S
C3050 H3042 0.950 . S
C3050 C3048 1.391 . S
C3050 C3051 1.400 . S
C3051 C3050 1.400 . S
C3051 C3052 1.398 . S
C3051 C3057 1.491 . S
C3052 H3043 0.950 . S
C3052 C3051 1.398 . S
C3052 C3053 1.391 . S
C3053 H3041 0.950 . S
C3053 C3049 1.393 . S
C3053 C3052 1.391 . S
C3054 H3044 0.950 . S
C3054 C3055 1.386 . S
C3054 C3056 1.391 . S
C3055 C3054 1.386 . S
C3055 C3059 1.393 . S
C3056 H3045 0.950 . S
C3056 C3054 1.391 . S
C3056 C3057 1.400 . S
C3057 C3051 1.491 . S
C3057 C3056 1.400 . S
C3057 C3058 1.398 . S
C3058 H3046 0.950 . S
C3058 C3057 1.398 . S
C3058 C3059 1.391 . S
C3059 H3047 0.950 . S
C3059 C3055 1.393 . S
C3059 C3058 1.391 . S
H3060 C3068 0.950 . S
H3061 C3073 0.950 . S
H3062 C3070 0.950 . S
H3063 C3072 0.950 . S
H3064 C3074 0.950 . S
H3065 C3076 0.950 . S
H3066 C3078 0.950 . S
H3067 C3079 0.950 . S
C3068 H3060 0.950 . S
C3068 C3069 1.430 . S
C3068 C3070 1.391 . S
C3069 C3068 1.430 . S
C3069 C3073 1.348 1_545 S
C3070 H3062 0.950 . S
C3070 C3068 1.391 . S
C3070 C3071 1.407 . S
C3071 C3070 1.407 . S
C3071 C3072 1.392 1_545 S
C3071 C3077 1.491 . S
C3072 H3063 0.950 . S
C3072 C3071 1.392 1_565 S
C3072 C3073 1.391 . S
C3073 H3061 0.950 . S
C3073 C3069 1.348 1_565 S
C3073 C3072 1.391 . S
C3074 H3064 0.950 . S
C3074 C3075 1.412 . S
C3074 C3076 1.391 . S
C3075 C3074 1.412 . S
C3075 C3079 1.366 1_565 S
C3076 H3065 0.950 . S
C3076 C3074 1.391 . S
C3076 C3077 1.407 1_565 S
C3077 C3071 1.491 . S
C3077 C3076 1.407 1_545 S
C3077 C3078 1.392 . S
C3078 H3066 0.950 . S
C3078 C3077 1.392 . S
C3078 C3079 1.391 . S
C3079 H3067 0.950 . S
C3079 C3075 1.366 1_545 S
C3079 C3078 1.391 . S
H3080 C3088 0.950 . S
H3081 C3093 0.950 . S
H3082 C3090 0.950 . S
H3083 C3092 0.950 . S
H3084 C3094 0.950 . S
H3085 C3096 0.950 . S
H3086 C3098 0.950 . S
H3087 C3099 0.950 . S
C3088 H3080 0.950 . S
C3088 C3089 1.386 . S
C3088 C3090 1.391 . S
C3089 C3088 1.386 . S
C3089 C3093 1.393 . S
C3090 H3082 0.950 . S
C3090 C3088 1.391 . S
C3090 C3091 1.400 . S
C3091 C3090 1.400 . S
C3091 C3092 1.398 . S
C3091 C3097 1.491 . S
C3092 H3083 0.950 . S
C3092 C3091 1.398 . S
C3092 C3093 1.391 . S
C3093 H3081 0.950 . S
C3093 C3089 1.393 . S
C3093 C3092 1.391 . S
C3094 H3084 0.950 . S
C3094 C3095 1.386 . S
C3094 C3096 1.391 . S
C3095 C3094 1.386 . S
C3095 C3099 1.393 . S
C3096 H3085 0.950 . S
C3096 C3094 1.391 . S
C3096 C3097 1.400 . S
C3097 C3091 1.491 . S
C3097 C3096 1.400 . S
C3097 C3098 1.398 . S
C3098 H3086 0.950 . S
C3098 C3097 1.398 . S
C3098 C3099 1.391 . S
C3099 H3087 0.950 . S
C3099 C3095 1.393 . S
C3099 C3098 1.391 . S
H3100 C3108 0.950 . S
H3101 C3113 0.950 . S
H3102 C3110 0.950 . S
H3103 C3112 0.958 . S
H3104 C3114 0.956 . S
H3105 C3116 0.950 . S
H3106 C3118 0.955 . S
H3107 C3119 0.950 . S
C3108 H3100 0.950 . S
C3108 C3109 1.386 . S
C3108 C3110 1.395 . S
C3109 C3108 1.386 . S
C3109 C3113 1.393 . S
C3110 H3102 0.950 . S
C3110 C3108 1.395 . S
C3110 C3111 1.400 . S
C3111 C3110 1.400 . S
C3111 C3112 1.397 . S
C3111 C3117 1.489 1_565 S
C3112 H3103 0.958 . S
C3112 C3111 1.397 . S
C3112 C3113 1.395 . S
C3113 H3101 0.950 . S
C3113 C3109 1.393 . S
C3113 C3112 1.395 . S
C3114 H3104 0.956 . S
C3114 C3115 1.386 . S
C3114 C3116 1.391 . S
C3115 C3114 1.386 . S
C3115 C3119 1.393 . S
C3116 H3105 0.950 . S
C3116 C3114 1.391 . S
C3116 C3117 1.400 . S
C3117 C3111 1.489 1_545 S
C3117 C3116 1.400 . S
C3117 C3118 1.397 . S
C3118 H3106 0.955 . S
C3118 C3117 1.397 . S
C3118 C3119 1.391 . S
C3119 H3107 0.950 . S
C3119 C3115 1.393 . S
C3119 C3118 1.391 . S
H3120 C3128 0.950 . S
H3121 C3133 0.950 . S
H3122 C3130 0.950 . S
H3123 C3132 0.950 . S
H3124 C3134 0.950 . S
H3125 C3136 0.950 . S
H3126 C3138 0.950 . S
H3127 C3139 0.950 . S
C3128 H3120 0.950 . S
C3128 C3129 1.386 . S
C3128 C3130 1.391 . S
C3129 C3128 1.386 . S
C3129 C3133 1.393 . S
C3130 H3122 0.950 . S
C3130 C3128 1.391 . S
C3130 C3131 1.400 . S
C3131 C3130 1.400 . S
C3131 C3132 1.398 . S
C3131 C3137 1.491 . S
C3132 H3123 0.950 . S
C3132 C3131 1.398 . S
C3132 C3133 1.391 . S
C3133 H3121 0.950 . S
C3133 C3129 1.393 . S
C3133 C3132 1.391 . S
C3134 H3124 0.950 . S
C3134 C3135 1.386 . S
C3134 C3136 1.391 . S
C3135 C3134 1.386 . S
C3135 C3139 1.393 . S
C3136 H3125 0.950 . S
C3136 C3134 1.391 . S
C3136 C3137 1.400 . S
C3137 C3131 1.491 . S
C3137 C3136 1.400 . S
C3137 C3138 1.398 . S
C3138 H3126 0.950 . S
C3138 C3137 1.398 . S
C3138 C3139 1.391 . S
C3139 H3127 0.950 . S
C3139 C3135 1.393 . S
C3139 C3138 1.391 . S
H3140 C3148 0.950 . S
H3141 C3153 0.950 . S
H3142 C3150 0.950 . S
H3143 C3152 0.950 . S
H3144 C3154 0.950 . S
H3145 C3156 0.950 . S
H3146 C3158 0.950 . S
H3147 C3159 0.950 . S
C3148 H3140 0.950 . S
C3148 C3149 1.386 . S
C3148 C3150 1.391 . S
C3149 C3148 1.386 . S
C3149 C3153 1.393 . S
C3150 H3142 0.950 . S
C3150 C3148 1.391 . S
C3150 C3151 1.400 . S
C3151 C3150 1.400 . S
C3151 C3152 1.398 . S
C3151 C3157 1.491 . S
C3152 H3143 0.950 . S
C3152 C3151 1.398 . S
C3152 C3153 1.391 . S
C3153 H3141 0.950 . S
C3153 C3149 1.393 . S
C3153 C3152 1.391 . S
C3154 H3144 0.950 . S
C3154 C3155 1.386 . S
C3154 C3156 1.391 . S
C3155 C3154 1.386 . S
C3155 C3159 1.393 . S
C3156 H3145 0.950 . S
C3156 C3154 1.391 . S
C3156 C3157 1.400 . S
C3157 C3151 1.491 . S
C3157 C3156 1.400 . S
C3157 C3158 1.398 . S
C3158 H3146 0.950 . S
C3158 C3157 1.398 . S
C3158 C3159 1.391 . S
C3159 H3147 0.950 . S
C3159 C3155 1.393 . S
C3159 C3158 1.391 . S
H3160 C3168 0.950 . S
H3161 C3173 0.950 . S
H3162 C3170 0.950 . S
H3163 C3172 0.950 . S
H3164 C3174 0.950 . S
H3165 C3176 0.950 . S
H3166 C3178 0.950 . S
H3167 C3179 0.950 . S
C3168 H3160 0.950 . S
C3168 C3169 1.386 . S
C3168 C3170 1.391 . S
C3169 C3168 1.386 . S
C3169 C3173 1.393 . S
C3170 H3162 0.950 . S
C3170 C3168 1.391 . S
C3170 C3171 1.400 . S
C3171 C3170 1.400 . S
C3171 C3172 1.398 . S
C3171 C3177 1.491 . S
C3172 H3163 0.950 . S
C3172 C3171 1.398 . S
C3172 C3173 1.391 . S
C3173 H3161 0.950 . S
C3173 C3169 1.393 . S
C3173 C3172 1.391 . S
C3174 H3164 0.950 . S
C3174 C3175 1.386 . S
C3174 C3176 1.391 . S
C3175 C3174 1.386 . S
C3175 C3179 1.393 . S
C3176 H3165 0.950 . S
C3176 C3174 1.391 . S
C3176 C3177 1.400 . S
C3177 C3171 1.491 . S
C3177 C3176 1.400 . S
C3177 C3178 1.398 . S
C3178 H3166 0.950 . S
C3178 C3177 1.398 . S
C3178 C3179 1.391 . S
C3179 H3167 0.950 . S
C3179 C3175 1.393 . S
C3179 C3178 1.391 . S
H3180 C3188 0.950 . S
H3181 C3193 0.950 . S
H3182 C3190 0.950 . S
H3183 C3192 0.950 . S
H3184 C3194 0.950 . S
H3185 C3196 0.950 . S
H3186 C3198 0.950 . S
H3187 C3199 0.950 . S
C3188 H3180 0.950 . S
C3188 C3189 1.429 . S
C3188 C3190 1.391 . S
C3189 C3188 1.429 . S
C3189 C3193 1.349 1_565 S
C3190 H3182 0.950 . S
C3190 C3188 1.391 . S
C3190 C3191 1.406 . S
C3191 C3190 1.406 . S
C3191 C3192 1.393 1_565 S
C3191 C3197 1.491 1_554 S
C3192 H3183 0.950 . S
C3192 C3191 1.393 1_545 S
C3192 C3193 1.391 . S
C3193 H3181 0.950 . S
C3193 C3189 1.349 1_545 S
C3193 C3192 1.391 . S
C3194 H3184 0.950 . S
C3194 C3195 1.410 . S
C3194 C3196 1.391 . S
C3195 C3194 1.410 . S
C3195 C3199 1.368 1_545 S
C3196 H3185 0.950 . S
C3196 C3194 1.391 . S
C3196 C3197 1.406 1_545 S
C3197 C3191 1.491 1_556 S
C3197 C3196 1.406 1_565 S
C3197 C3198 1.393 . S
C3198 H3186 0.950 . S
C3198 C3197 1.393 . S
C3198 C3199 1.391 . S
C3199 H3187 0.950 . S
C3199 C3195 1.368 1_565 S
C3199 C3198 1.391 . S
C1289 C6 2.125 . S
C1295 C1006 2.127 . S
C1309 C966 2.095 . S
C1315 C46 2.084 . S
C1329 C1086 2.095 . S
C1335 C86 2.084 . S
C1349 C126 2.128 . S
C1355 C1046 2.127 . S
C1369 C175 2.137 . S
C1375 C1175 2.136 . S
C1389 C215 2.099 . S
C1395 C1135 2.087 . S
C1409 C255 2.114 . S
C1415 C1255 2.101 . S
C1429 C1215 2.119 . S
C1435 C295 2.119 . S
C1449 C326 2.100 . S
C1455 C686 2.091 . S
C1469 C366 2.119 . S
C1475 C646 2.118 . S
C1489 C406 2.125 . S
C1495 C766 2.123 . S
C1509 C726 2.111 . S
C1515 C446 2.101 . S
C1529 C495 2.102 . S
C1535 C855 2.094 . S
C1549 C535 2.134 . S
C1555 C815 2.132 . S
C1569 C935 2.140 . S
C1575 C575 2.140 . S
C1589 C615 2.117 . S
C1595 C895 2.107 . S
C1609 C9 1.489 . S
C1615 C129 1.477 . S
C1629 C49 1.477 . S
C1635 C89 1.495 . S
C1649 C298 1.489 . S
C1655 C178 1.465 . S
C1669 C258 1.478 . S
C1675 C218 1.494 . S
C1689 C329 1.489 1_545 S
C1695 C449 1.462 1_545 S
C1709 C369 1.475 . S
C1715 C409 1.476 . S
C1729 C498 1.467 1_565 S
C1735 C618 1.467 1_565 S
C1749 C578 1.482 . S
C1755 C538 1.469 . S
C1769 C649 1.488 . S
C1775 C769 1.465 . S
C1789 C689 1.475 . S
C1795 C729 1.481 . S
C1809 C938 1.491 . S
C1815 C818 1.466 . S
C1829 C858 1.496 . S
C1835 C898 1.474 . S
C1849 C1089 1.489 1_545 S
C1855 C969 1.465 1_545 S
C1869 C1009 1.458 . S
C1875 C1049 1.480 . S
C1889 C1258 1.467 1_565 S
C1895 C1138 1.467 1_565 S
C1909 C1218 1.472 . S
C1915 C1178 1.461 . S
C1929 C55 2.179 . S
C1935 C15 2.178 . S
C1949 C95 2.184 . S
C1955 C135 2.186 . S
C1969 C206 2.179 . S
C1975 C166 2.180 . S
C1989 C286 2.204 . S
C1995 C246 2.204 . S
C2009 C335 2.228 . S
C2015 C375 2.239 . S
C2029 C415 2.222 . S
C2035 C455 2.231 . S
C2049 C526 2.209 . S
C2055 C486 2.218 . S
C2069 C566 2.210 . S
C2075 C606 2.221 . S
C2089 C655 2.195 . S
C2095 C695 2.197 . S
C2109 C775 2.182 . S
C2115 C735 2.183 . S
C2129 C806 2.197 . S
C2135 C846 2.199 . S
C2149 C886 2.191 . S
C2155 C926 2.192 . S
C2169 C975 2.219 . S
C2175 C1015 2.231 . S
C2189 C1055 2.221 . S
C2195 C1095 2.230 . S
C2209 C1166 2.208 . S
C2215 C1126 2.220 . S
C2229 C1206 2.221 . S
C2235 C1246 2.232 . S
C2249 C10 2.455 . S
C2255 C19 2.455 . S
C2269 C50 2.456 . S
C2275 C59 2.456 1_655 S
C2289 C90 2.444 . S
C2295 C99 2.444 . S
C2309 C139 2.449 1_655 S
C2315 C130 2.449 . S
C2329 C170 2.443 . S
C2335 C179 2.443 . S
C2349 C219 2.456 . S
C2355 C210 2.456 1_455 S
C2369 C250 2.453 . S
C2375 C259 2.453 . S
C2389 C290 2.449 1_455 S
C2395 C299 2.449 . S
C2409 C339 2.453 . S
C2415 C330 2.453 . S
C2429 C370 2.456 . S
C2435 C379 2.456 1_655 S
C2449 C410 2.443 . S
C2455 C419 2.443 . S
C2469 C459 2.456 1_655 S
C2475 C450 2.456 . S
C2489 C490 2.442 . S
C2495 C499 2.442 . S
C2509 C539 2.457 . S
C2515 C530 2.457 1_455 S
C2529 C579 2.455 . S
C2535 C570 2.455 . S
C2549 C610 2.445 1_455 S
C2555 C619 2.445 . S
C2569 C650 2.443 . S
C2575 C659 2.443 . S
C2589 C699 2.453 . S
C2595 C690 2.453 1_455 S
C2609 C739 2.448 . S
C2615 C730 2.448 . S
C2629 C770 2.454 1_455 S
C2635 C779 2.454 . S
C2649 C819 2.450 . S
C2655 C810 2.450 . S
C2669 C859 2.448 1_655 S
C2675 C850 2.448 . S
C2689 C890 2.447 . S
C2695 C899 2.447 . S
C2709 C939 2.447 1_655 S
C2715 C930 2.447 . S
C2729 C979 2.452 . S
C2735 C970 2.452 . S
C2749 C1010 2.456 1_455 S
C2755 C1019 2.456 . S
C2769 C1059 2.443 . S
C2775 C1050 2.443 . S
C2789 C1099 2.449 . S
C2795 C1090 2.449 1_455 S
C2809 C1139 2.447 . S
C2815 C1130 2.447 . S
C2829 C1179 2.454 1_655 S
C2835 C1170 2.454 . S
C2849 C1210 2.446 . S
C2855 C1219 2.446 . S
C2869 C1250 2.443 . S
C2875 C1259 2.443 1_655 S
C2889 C18 1.462 . S
C2895 C169 1.462 . S
C2909 C1169 1.465 . S
C2915 C58 1.465 . S
C2929 C569 1.478 1_455 S
C2935 C98 1.478 1_655 S
C2949 C138 1.466 . S
C2955 C929 1.466 . S
C2969 C209 1.463 . S
C2975 C1018 1.463 . S
C2989 C249 1.485 . S
C2995 C418 1.485 . S
C3009 C289 1.486 . S
C3015 C778 1.486 . S
C3029 C338 1.455 1_565 S
C3035 C489 1.455 1_545 S
C3049 C849 1.465 . S
C3055 C378 1.465 . S
C3069 C1249 1.455 1_545 S
C3075 C458 1.455 1_565 S
C3089 C529 1.469 . S
C3095 C698 1.469 . S
C3109 C1098 1.484 1_565 S
C3115 C609 1.457 1_545 S
C3129 C658 1.487 . S
C3135 C809 1.487 . S
C3149 C1209 1.487 . S
C3155 C738 1.487 . S
C3169 C889 1.471 . S
C3175 C1058 1.471 . S
C3189 C978 1.458 1_565 S
C3195 C1129 1.458 1_545 S
