# Generated by pormake.
# Topology fda, (5)-cn, num edge types: 1
# Building blocks:
#     Node 0, Type 0, BuildingBlock: BEQFEK_clean_sbu_0, # of connection points: 5
#     Node 1, Type 0, BuildingBlock: BEQFEK_clean_sbu_0, # of connection points: 5
#     Node 2, Type 0, BuildingBlock: BEQFEK_clean_sbu_0, # of connection points: 5
#     Node 3, Type 0, BuildingBlock: BEQFEK_clean_sbu_0, # of connection points: 5
#     Node 4, Type 0, BuildingBlock: BEQFEK_clean_sbu_0, # of connection points: 5
#     Node 5, Type 0, BuildingBlock: BEQFEK_clean_sbu_0, # of connection points: 5
#     Node 6, Type 0, BuildingBlock: BEQFEK_clean_sbu_0, # of connection points: 5
#     Node 7, Type 0, BuildingBlock: BEQFEK_clean_sbu_0, # of connection points: 5
#     Node 8, Type 0, BuildingBlock: BEQFEK_clean_sbu_0, # of connection points: 5
#     Node 9, Type 0, BuildingBlock: BEQFEK_clean_sbu_0, # of connection points: 5
#     Node 10, Type 0, BuildingBlock: BEQFEK_clean_sbu_0, # of connection points: 5
#     Node 11, Type 0, BuildingBlock: BEQFEK_clean_sbu_0, # of connection points: 5
#     Node 12, Type 0, BuildingBlock: BEQFEK_clean_sbu_0, # of connection points: 5
#     Node 13, Type 0, BuildingBlock: BEQFEK_clean_sbu_0, # of connection points: 5
#     Node 14, Type 0, BuildingBlock: BEQFEK_clean_sbu_0, # of connection points: 5
#     Node 15, Type 0, BuildingBlock: BEQFEK_clean_sbu_0, # of connection points: 5
#     Node 16, Type 0, BuildingBlock: BEQFEK_clean_sbu_0, # of connection points: 5
#     Node 17, Type 0, BuildingBlock: BEQFEK_clean_sbu_0, # of connection points: 5
#     Node 18, Type 0, BuildingBlock: BEQFEK_clean_sbu_0, # of connection points: 5
#     Node 19, Type 0, BuildingBlock: BEQFEK_clean_sbu_0, # of connection points: 5
#     Node 20, Type 0, BuildingBlock: BEQFEK_clean_sbu_0, # of connection points: 5
#     Node 21, Type 0, BuildingBlock: BEQFEK_clean_sbu_0, # of connection points: 5
#     Node 22, Type 0, BuildingBlock: BEQFEK_clean_sbu_0, # of connection points: 5
#     Node 23, Type 0, BuildingBlock: BEQFEK_clean_sbu_0, # of connection points: 5
#     Node 24, Type 0, BuildingBlock: BEQFEK_clean_sbu_0, # of connection points: 5
#     Node 25, Type 0, BuildingBlock: BEQFEK_clean_sbu_0, # of connection points: 5
#     Node 26, Type 0, BuildingBlock: BEQFEK_clean_sbu_0, # of connection points: 5
#     Node 27, Type 0, BuildingBlock: BEQFEK_clean_sbu_0, # of connection points: 5
#     Node 28, Type 0, BuildingBlock: BEQFEK_clean_sbu_0, # of connection points: 5
#     Node 29, Type 0, BuildingBlock: BEQFEK_clean_sbu_0, # of connection points: 5
#     Node 30, Type 0, BuildingBlock: BEQFEK_clean_sbu_0, # of connection points: 5
#     Node 31, Type 0, BuildingBlock: BEQFEK_clean_sbu_0, # of connection points: 5
#     Node 32, Type 0, BuildingBlock: BEQFEK_clean_sbu_0, # of connection points: 5
#     Node 33, Type 0, BuildingBlock: BEQFEK_clean_sbu_0, # of connection points: 5
#     Node 34, Type 0, BuildingBlock: BEQFEK_clean_sbu_0, # of connection points: 5
#     Node 35, Type 0, BuildingBlock: BEQFEK_clean_sbu_0, # of connection points: 5
#     Node 36, Type 0, BuildingBlock: BEQFEK_clean_sbu_0, # of connection points: 5
#     Node 37, Type 0, BuildingBlock: BEQFEK_clean_sbu_0, # of connection points: 5
#     Node 38, Type 0, BuildingBlock: BEQFEK_clean_sbu_0, # of connection points: 5
#     Node 39, Type 0, BuildingBlock: BEQFEK_clean_sbu_0, # of connection points: 5
#     Node 40, Type 0, BuildingBlock: BEQFEK_clean_sbu_0, # of connection points: 5
#     Node 41, Type 0, BuildingBlock: BEQFEK_clean_sbu_0, # of connection points: 5
#     Node 42, Type 0, BuildingBlock: BEQFEK_clean_sbu_0, # of connection points: 5
#     Node 43, Type 0, BuildingBlock: BEQFEK_clean_sbu_0, # of connection points: 5
#     Node 44, Type 0, BuildingBlock: BEQFEK_clean_sbu_0, # of connection points: 5
#     Node 45, Type 0, BuildingBlock: BEQFEK_clean_sbu_0, # of connection points: 5
#     Node 46, Type 0, BuildingBlock: BEQFEK_clean_sbu_0, # of connection points: 5
#     Node 47, Type 0, BuildingBlock: BEQFEK_clean_sbu_0, # of connection points: 5
#     Node 48, Type 0, BuildingBlock: BEQFEK_clean_sbu_0, # of connection points: 5
#     Node 49, Type 0, BuildingBlock: BEQFEK_clean_sbu_0, # of connection points: 5
#     Node 50, Type 0, BuildingBlock: BEQFEK_clean_sbu_0, # of connection points: 5
#     Node 51, Type 0, BuildingBlock: BEQFEK_clean_sbu_0, # of connection points: 5
#     Node 52, Type 0, BuildingBlock: BEQFEK_clean_sbu_0, # of connection points: 5
#     Node 53, Type 0, BuildingBlock: BEQFEK_clean_sbu_0, # of connection points: 5
#     Node 54, Type 0, BuildingBlock: BEQFEK_clean_sbu_0, # of connection points: 5
#     Node 55, Type 0, BuildingBlock: BEQFEK_clean_sbu_0, # of connection points: 5
#     Node 56, Type 0, BuildingBlock: BEQFEK_clean_sbu_0, # of connection points: 5
#     Node 57, Type 0, BuildingBlock: BEQFEK_clean_sbu_0, # of connection points: 5
#     Node 58, Type 0, BuildingBlock: BEQFEK_clean_sbu_0, # of connection points: 5
#     Node 59, Type 0, BuildingBlock: BEQFEK_clean_sbu_0, # of connection points: 5
#     Node 60, Type 0, BuildingBlock: BEQFEK_clean_sbu_0, # of connection points: 5
#     Node 61, Type 0, BuildingBlock: BEQFEK_clean_sbu_0, # of connection points: 5
#     Node 62, Type 0, BuildingBlock: BEQFEK_clean_sbu_0, # of connection points: 5
#     Node 63, Type 0, BuildingBlock: BEQFEK_clean_sbu_0, # of connection points: 5
#     Node 64, Type 0, BuildingBlock: BEQFEK_clean_sbu_0, # of connection points: 5
#     Node 65, Type 0, BuildingBlock: BEQFEK_clean_sbu_0, # of connection points: 5
#     Node 66, Type 0, BuildingBlock: BEQFEK_clean_sbu_0, # of connection points: 5
#     Node 67, Type 0, BuildingBlock: BEQFEK_clean_sbu_0, # of connection points: 5
#     Node 68, Type 0, BuildingBlock: BEQFEK_clean_sbu_0, # of connection points: 5
#     Node 69, Type 0, BuildingBlock: BEQFEK_clean_sbu_0, # of connection points: 5
#     Node 70, Type 0, BuildingBlock: BEQFEK_clean_sbu_0, # of connection points: 5
#     Node 71, Type 0, BuildingBlock: BEQFEK_clean_sbu_0, # of connection points: 5
#     Node 72, Type 0, BuildingBlock: BEQFEK_clean_sbu_0, # of connection points: 5
#     Node 73, Type 0, BuildingBlock: BEQFEK_clean_sbu_0, # of connection points: 5
#     Node 74, Type 0, BuildingBlock: BEQFEK_clean_sbu_0, # of connection points: 5
#     Node 75, Type 0, BuildingBlock: BEQFEK_clean_sbu_0, # of connection points: 5
#     Node 76, Type 0, BuildingBlock: BEQFEK_clean_sbu_0, # of connection points: 5
#     Node 77, Type 0, BuildingBlock: BEQFEK_clean_sbu_0, # of connection points: 5
#     Node 78, Type 0, BuildingBlock: BEQFEK_clean_sbu_0, # of connection points: 5
#     Node 79, Type 0, BuildingBlock: BEQFEK_clean_sbu_0, # of connection points: 5
#     Node 80, Type 0, BuildingBlock: BEQFEK_clean_sbu_0, # of connection points: 5
#     Node 81, Type 0, BuildingBlock: BEQFEK_clean_sbu_0, # of connection points: 5
#     Node 82, Type 0, BuildingBlock: BEQFEK_clean_sbu_0, # of connection points: 5
#     Node 83, Type 0, BuildingBlock: BEQFEK_clean_sbu_0, # of connection points: 5
#     Node 84, Type 0, BuildingBlock: BEQFEK_clean_sbu_0, # of connection points: 5
#     Node 85, Type 0, BuildingBlock: BEQFEK_clean_sbu_0, # of connection points: 5
#     Node 86, Type 0, BuildingBlock: BEQFEK_clean_sbu_0, # of connection points: 5
#     Node 87, Type 0, BuildingBlock: BEQFEK_clean_sbu_0, # of connection points: 5
#     Node 88, Type 0, BuildingBlock: BEQFEK_clean_sbu_0, # of connection points: 5
#     Node 89, Type 0, BuildingBlock: BEQFEK_clean_sbu_0, # of connection points: 5
#     Node 90, Type 0, BuildingBlock: BEQFEK_clean_sbu_0, # of connection points: 5
#     Node 91, Type 0, BuildingBlock: BEQFEK_clean_sbu_0, # of connection points: 5
#     Node 92, Type 0, BuildingBlock: BEQFEK_clean_sbu_0, # of connection points: 5
#     Node 93, Type 0, BuildingBlock: BEQFEK_clean_sbu_0, # of connection points: 5
#     Node 94, Type 0, BuildingBlock: BEQFEK_clean_sbu_0, # of connection points: 5
#     Node 95, Type 0, BuildingBlock: BEQFEK_clean_sbu_0, # of connection points: 5
#     Edge 96, Type (0, 0), None
#     Edge 97, Type (0, 0), None
#     Edge 98, Type (0, 0), None
#     Edge 99, Type (0, 0), None
#     Edge 100, Type (0, 0), None
#     Edge 101, Type (0, 0), None
#     Edge 102, Type (0, 0), None
#     Edge 103, Type (0, 0), None
#     Edge 104, Type (0, 0), None
#     Edge 105, Type (0, 0), None
#     Edge 106, Type (0, 0), None
#     Edge 107, Type (0, 0), None
#     Edge 108, Type (0, 0), None
#     Edge 109, Type (0, 0), None
#     Edge 110, Type (0, 0), None
#     Edge 111, Type (0, 0), None
#     Edge 112, Type (0, 0), None
#     Edge 113, Type (0, 0), None
#     Edge 114, Type (0, 0), None
#     Edge 115, Type (0, 0), None
#     Edge 116, Type (0, 0), None
#     Edge 117, Type (0, 0), None
#     Edge 118, Type (0, 0), None
#     Edge 119, Type (0, 0), None
#     Edge 120, Type (0, 0), None
#     Edge 121, Type (0, 0), None
#     Edge 122, Type (0, 0), None
#     Edge 123, Type (0, 0), None
#     Edge 124, Type (0, 0), None
#     Edge 125, Type (0, 0), None
#     Edge 126, Type (0, 0), None
#     Edge 127, Type (0, 0), None
#     Edge 128, Type (0, 0), None
#     Edge 129, Type (0, 0), None
#     Edge 130, Type (0, 0), None
#     Edge 131, Type (0, 0), None
#     Edge 132, Type (0, 0), None
#     Edge 133, Type (0, 0), None
#     Edge 134, Type (0, 0), None
#     Edge 135, Type (0, 0), None
#     Edge 136, Type (0, 0), None
#     Edge 137, Type (0, 0), None
#     Edge 138, Type (0, 0), None
#     Edge 139, Type (0, 0), None
#     Edge 140, Type (0, 0), None
#     Edge 141, Type (0, 0), None
#     Edge 142, Type (0, 0), None
#     Edge 143, Type (0, 0), None
#     Edge 144, Type (0, 0), None
#     Edge 145, Type (0, 0), None
#     Edge 146, Type (0, 0), None
#     Edge 147, Type (0, 0), None
#     Edge 148, Type (0, 0), None
#     Edge 149, Type (0, 0), None
#     Edge 150, Type (0, 0), None
#     Edge 151, Type (0, 0), None
#     Edge 152, Type (0, 0), None
#     Edge 153, Type (0, 0), None
#     Edge 154, Type (0, 0), None
#     Edge 155, Type (0, 0), None
#     Edge 156, Type (0, 0), None
#     Edge 157, Type (0, 0), None
#     Edge 158, Type (0, 0), None
#     Edge 159, Type (0, 0), None
#     Edge 160, Type (0, 0), None
#     Edge 161, Type (0, 0), None
#     Edge 162, Type (0, 0), None
#     Edge 163, Type (0, 0), None
#     Edge 164, Type (0, 0), None
#     Edge 165, Type (0, 0), None
#     Edge 166, Type (0, 0), None
#     Edge 167, Type (0, 0), None
#     Edge 168, Type (0, 0), None
#     Edge 169, Type (0, 0), None
#     Edge 170, Type (0, 0), None
#     Edge 171, Type (0, 0), None
#     Edge 172, Type (0, 0), None
#     Edge 173, Type (0, 0), None
#     Edge 174, Type (0, 0), None
#     Edge 175, Type (0, 0), None
#     Edge 176, Type (0, 0), None
#     Edge 177, Type (0, 0), None
#     Edge 178, Type (0, 0), None
#     Edge 179, Type (0, 0), None
#     Edge 180, Type (0, 0), None
#     Edge 181, Type (0, 0), None
#     Edge 182, Type (0, 0), None
#     Edge 183, Type (0, 0), None
#     Edge 184, Type (0, 0), None
#     Edge 185, Type (0, 0), None
#     Edge 186, Type (0, 0), None
#     Edge 187, Type (0, 0), None
#     Edge 188, Type (0, 0), None
#     Edge 189, Type (0, 0), None
#     Edge 190, Type (0, 0), None
#     Edge 191, Type (0, 0), None
#     Edge 192, Type (0, 0), None
#     Edge 193, Type (0, 0), None
#     Edge 194, Type (0, 0), None
#     Edge 195, Type (0, 0), None
#     Edge 196, Type (0, 0), None
#     Edge 197, Type (0, 0), None
#     Edge 198, Type (0, 0), None
#     Edge 199, Type (0, 0), None
#     Edge 200, Type (0, 0), None
#     Edge 201, Type (0, 0), None
#     Edge 202, Type (0, 0), None
#     Edge 203, Type (0, 0), None
#     Edge 204, Type (0, 0), None
#     Edge 205, Type (0, 0), None
#     Edge 206, Type (0, 0), None
#     Edge 207, Type (0, 0), None
#     Edge 208, Type (0, 0), None
#     Edge 209, Type (0, 0), None
#     Edge 210, Type (0, 0), None
#     Edge 211, Type (0, 0), None
#     Edge 212, Type (0, 0), None
#     Edge 213, Type (0, 0), None
#     Edge 214, Type (0, 0), None
#     Edge 215, Type (0, 0), None
#     Edge 216, Type (0, 0), None
#     Edge 217, Type (0, 0), None
#     Edge 218, Type (0, 0), None
#     Edge 219, Type (0, 0), None
#     Edge 220, Type (0, 0), None
#     Edge 221, Type (0, 0), None
#     Edge 222, Type (0, 0), None
#     Edge 223, Type (0, 0), None
#     Edge 224, Type (0, 0), None
#     Edge 225, Type (0, 0), None
#     Edge 226, Type (0, 0), None
#     Edge 227, Type (0, 0), None
#     Edge 228, Type (0, 0), None
#     Edge 229, Type (0, 0), None
#     Edge 230, Type (0, 0), None
#     Edge 231, Type (0, 0), None
#     Edge 232, Type (0, 0), None
#     Edge 233, Type (0, 0), None
#     Edge 234, Type (0, 0), None
#     Edge 235, Type (0, 0), None
#     Edge 236, Type (0, 0), None
#     Edge 237, Type (0, 0), None
#     Edge 238, Type (0, 0), None
#     Edge 239, Type (0, 0), None
#     Edge 240, Type (0, 0), None
#     Edge 241, Type (0, 0), None
#     Edge 242, Type (0, 0), None
#     Edge 243, Type (0, 0), None
#     Edge 244, Type (0, 0), None
#     Edge 245, Type (0, 0), None
#     Edge 246, Type (0, 0), None
#     Edge 247, Type (0, 0), None
#     Edge 248, Type (0, 0), None
#     Edge 249, Type (0, 0), None
#     Edge 250, Type (0, 0), None
#     Edge 251, Type (0, 0), None
#     Edge 252, Type (0, 0), None
#     Edge 253, Type (0, 0), None
#     Edge 254, Type (0, 0), None
#     Edge 255, Type (0, 0), None
#     Edge 256, Type (0, 0), None
#     Edge 257, Type (0, 0), None
#     Edge 258, Type (0, 0), None
#     Edge 259, Type (0, 0), None
#     Edge 260, Type (0, 0), None
#     Edge 261, Type (0, 0), None
#     Edge 262, Type (0, 0), None
#     Edge 263, Type (0, 0), None
#     Edge 264, Type (0, 0), None
#     Edge 265, Type (0, 0), None
#     Edge 266, Type (0, 0), None
#     Edge 267, Type (0, 0), None
#     Edge 268, Type (0, 0), None
#     Edge 269, Type (0, 0), None
#     Edge 270, Type (0, 0), None
#     Edge 271, Type (0, 0), None
#     Edge 272, Type (0, 0), None
#     Edge 273, Type (0, 0), None
#     Edge 274, Type (0, 0), None
#     Edge 275, Type (0, 0), None
#     Edge 276, Type (0, 0), None
#     Edge 277, Type (0, 0), None
#     Edge 278, Type (0, 0), None
#     Edge 279, Type (0, 0), None
#     Edge 280, Type (0, 0), None
#     Edge 281, Type (0, 0), None
#     Edge 282, Type (0, 0), None
#     Edge 283, Type (0, 0), None
#     Edge 284, Type (0, 0), None
#     Edge 285, Type (0, 0), None
#     Edge 286, Type (0, 0), None
#     Edge 287, Type (0, 0), None
#     Edge 288, Type (0, 0), None
#     Edge 289, Type (0, 0), None
#     Edge 290, Type (0, 0), None
#     Edge 291, Type (0, 0), None
#     Edge 292, Type (0, 0), None
#     Edge 293, Type (0, 0), None
#     Edge 294, Type (0, 0), None
#     Edge 295, Type (0, 0), None
#     Edge 296, Type (0, 0), None
#     Edge 297, Type (0, 0), None
#     Edge 298, Type (0, 0), None
#     Edge 299, Type (0, 0), None
#     Edge 300, Type (0, 0), None
#     Edge 301, Type (0, 0), None
#     Edge 302, Type (0, 0), None
#     Edge 303, Type (0, 0), None
#     Edge 304, Type (0, 0), None
#     Edge 305, Type (0, 0), None
#     Edge 306, Type (0, 0), None
#     Edge 307, Type (0, 0), None
#     Edge 308, Type (0, 0), None
#     Edge 309, Type (0, 0), None
#     Edge 310, Type (0, 0), None
#     Edge 311, Type (0, 0), None
#     Edge 312, Type (0, 0), None
#     Edge 313, Type (0, 0), None
#     Edge 314, Type (0, 0), None
#     Edge 315, Type (0, 0), None
#     Edge 316, Type (0, 0), None
#     Edge 317, Type (0, 0), None
#     Edge 318, Type (0, 0), None
#     Edge 319, Type (0, 0), None
#     Edge 320, Type (0, 0), None
#     Edge 321, Type (0, 0), None
#     Edge 322, Type (0, 0), None
#     Edge 323, Type (0, 0), None
#     Edge 324, Type (0, 0), None
#     Edge 325, Type (0, 0), None
#     Edge 326, Type (0, 0), None
#     Edge 327, Type (0, 0), None
#     Edge 328, Type (0, 0), None
#     Edge 329, Type (0, 0), None
#     Edge 330, Type (0, 0), None
#     Edge 331, Type (0, 0), None
#     Edge 332, Type (0, 0), None
#     Edge 333, Type (0, 0), None
#     Edge 334, Type (0, 0), None
#     Edge 335, Type (0, 0), None
# Relax obj value: 0.707
# Max RMSD: 0.212
# Mean RMSD: 0.212
data_MOF--net-fda--node1-BEQFEK_clean_sbu_0--edge1-none
_symmetry_space_group_name_H-M    P1
_symmetry_Int_Tables_number       1
_symmetry_cell_setting            triclinic
loop_
_symmetry_equiv_pos_as_xyz
'x, y, z'
_cell_length_a     47.209739
_cell_length_b     47.210979
_cell_length_c     47.210128
_cell_angle_alpha  89.998179
_cell_angle_beta   89.997764
_cell_angle_gamma 89.997905
loop_
_atom_site_label
_atom_site_type_symbol
_atom_site_fract_x
_atom_site_fract_y
_atom_site_fract_z
_atom_type_partial_charge
Co0 Co 0.02004 0.22189 0.33878 0.0
Co1 Co 0.05374 0.17334 0.36545 0.0
C2 C 0.07609 0.23396 0.36455 0.0
O3 O 0.05695 0.24213 0.34742 0.0
O4 O 0.07673 0.2081 0.37169 0.0
C5 C 1.01318 0.25218 0.29137 0.0
O6 O 0.03275 0.2345 0.28258 0.0
C7 C 0.10835 0.14668 0.36314 0.0
C8 C 0.10811 0.11558 0.39777 0.0
C9 C 0.12599 0.12869 0.37835 0.0
N10 N 0.08177 0.14481 0.3734 0.0
N11 N 0.08164 0.12573 0.39385 0.0
C12 C 0.11699 0.16729 0.34066 0.0
H13 H 0.09816 0.17554 0.32927 0.0
H14 H 0.13148 0.15689 0.32534 0.0
H15 H 0.12847 0.18527 0.35055 0.0
C16 C 1.00141 0.17861 0.30082 0.0
N17 N 0.02012 0.18788 0.3202 0.0
N18 N 0.03739 0.16767 0.3277 0.0
C19 C 0.03216 0.14525 0.31051 0.0
C20 C 1.00887 0.1515 0.2926 0.0
C21 C 0.97279 0.19202 0.29717 0.0
H22 H 0.96678 0.20372 0.31664 0.0
H23 H 0.97335 0.20718 0.27925 0.0
H24 H 0.95615 0.17595 0.29313 0.0
O25 O 1.00115 0.21717 0.37459 0.0
O26 O 0.02194 0.18026 0.39595 0.0
H27 H 0.04332 0.10687 0.3318 0.0
H28 H 0.04459 0.10468 0.29332 0.0
C29 C 0.04874 0.11831 0.312 0.0
H30 H 0.07168 0.12334 0.31304 0.0
H31 H 0.06404 0.12109 0.40639 0.0
O32 O 0.99901 0.24582 0.31328 0.0
C33 C 1.00353 0.20052 0.39563 0.0
Co34 Co 0.06171 0.77006 0.5888 0.0
Co35 Co 0.11026 0.80374 0.61547 0.0
C36 C 0.04964 0.82611 0.61455 0.0
O37 O 0.04148 0.80698 0.5974 0.0
O38 O 0.07549 0.82672 0.62172 0.0
C39 C 0.03143 0.76317 0.54138 0.0
O40 O 0.04911 0.78274 0.53259 0.0
C41 C 0.13692 0.85835 0.61316 0.0
C42 C 0.16803 0.8581 0.64777 0.0
C43 C 0.15493 0.87598 0.62836 0.0
N44 N 0.13879 0.83177 0.62342 0.0
N45 N 0.15787 0.83163 0.64386 0.0
C46 C 0.1163 0.86699 0.59069 0.0
H47 H 0.10805 0.84816 0.5793 0.0
H48 H 0.1267 0.88147 0.57536 0.0
H49 H 0.09833 0.87847 0.60058 0.0
C50 C 0.105 0.7514 0.55085 0.0
N51 N 0.09572 0.77012 0.57022 0.0
N52 N 0.11593 0.78738 0.57772 0.0
C53 C 0.13835 0.78215 0.56054 0.0
C54 C 0.1321 0.75887 0.54262 0.0
C55 C 0.09158 0.72279 0.54719 0.0
H56 H 0.07987 0.71678 0.56666 0.0
H57 H 0.07642 0.72335 0.52927 0.0
H58 H 0.10765 0.70615 0.54316 0.0
O59 O 0.0664 0.75119 0.62462 0.0
O60 O 0.10334 0.77194 0.64598 0.0
H61 H 0.17673 0.79331 0.58183 0.0
H62 H 0.17894 0.79456 0.54335 0.0
C63 C 0.16529 0.79872 0.56203 0.0
H64 H 0.16027 0.82166 0.56306 0.0
H65 H 0.16252 0.81403 0.6564 0.0
O66 O 0.03778 0.74902 0.56331 0.0
C67 C 0.08305 0.75356 0.64566 0.0
Co68 Co 0.5136 0.81171 0.83875 0.0
Co69 Co 0.47988 0.86024 0.86542 0.0
C70 C 0.45754 0.79962 0.86452 0.0
O71 O 0.4767 0.79145 0.8474 0.0
O72 O 0.45688 0.82548 0.87165 0.0
C73 C 0.52048 0.78142 0.79134 0.0
O74 O 0.50091 0.7991 0.78255 0.0
C75 C 0.42527 0.8869 0.86311 0.0
C76 C 0.42552 0.918 0.89775 0.0
C77 C 0.40764 0.9049 0.87833 0.0
N78 N 0.45185 0.88876 0.87337 0.0
N79 N 0.45199 0.90784 0.89382 0.0
C80 C 0.41662 0.8663 0.84064 0.0
H81 H 0.43546 0.85805 0.82924 0.0
H82 H 0.40214 0.8767 0.82532 0.0
H83 H 0.40515 0.84832 0.85052 0.0
C84 C 0.53221 0.855 0.80079 0.0
N85 N 0.51351 0.84572 0.82017 0.0
N86 N 0.49623 0.86592 0.82767 0.0
C87 C 0.50144 0.88833 0.81048 0.0
C88 C 0.52473 0.8821 0.79256 0.0
C89 C 0.56084 0.8416 0.79713 0.0
H90 H 0.56685 0.8299 0.81661 0.0
H91 H 0.56029 0.82644 0.77922 0.0
H92 H 0.57747 0.85768 0.7931 0.0
O93 O 0.53249 0.81643 0.87456 0.0
O94 O 0.51167 0.85331 0.89593 0.0
H95 H 0.49025 0.92671 0.83177 0.0
H96 H 0.489 0.92891 0.79328 0.0
C97 C 0.48485 0.91527 0.81197 0.0
H98 H 0.46191 0.91023 0.813 0.0
H99 H 0.46958 0.91248 0.90637 0.0
O100 O 0.53465 0.78779 0.81325 0.0
C101 C 0.53009 0.83306 0.8956 0.0
Co102 Co 0.47191 0.26356 0.08881 0.0
Co103 Co 0.42337 0.22985 0.11548 0.0
C104 C 0.48399 0.2075 0.11455 0.0
O105 O 0.49215 0.22665 0.09741 0.0
O106 O 0.45814 0.20686 0.12171 0.0
C107 C 0.50219 0.27047 0.0414 0.0
O108 O 0.48452 0.2509 0.03259 0.0
C109 C 0.39671 0.17524 0.11316 0.0
C110 C 0.3656 0.17549 0.14778 0.0
C111 C 0.3787 0.15761 0.12836 0.0
N112 N 0.39484 0.20182 0.12342 0.0
N113 N 0.37575 0.20196 0.14387 0.0
C114 C 0.41732 0.1666 0.09068 0.0
H115 H 0.42557 0.18544 0.0793 0.0
H116 H 0.40692 0.15212 0.07536 0.0
H117 H 0.4353 0.15512 0.10057 0.0
C118 C 0.42862 0.2822 0.05085 0.0
N119 N 0.4379 0.26349 0.07023 0.0
N120 N 0.41769 0.24621 0.07773 0.0
C121 C 0.39528 0.25143 0.06054 0.0
C122 C 0.40152 0.27472 0.04263 0.0
C123 C 0.44203 0.31082 0.04719 0.0
H124 H 0.45373 0.31683 0.06667 0.0
H125 H 0.45718 0.31027 0.02927 0.0
H126 H 0.42595 0.32745 0.04316 0.0
O127 O 0.4672 0.28243 0.12463 0.0
O128 O 0.43029 0.26164 0.14599 0.0
H129 H 0.3569 0.24026 0.08184 0.0
H130 H 0.3547 0.23902 0.04335 0.0
C131 C 0.36834 0.23486 0.06203 0.0
H132 H 0.37337 0.21192 0.06306 0.0
H133 H 0.37111 0.21955 0.15641 0.0
O134 O 0.49583 0.28462 0.06332 0.0
C135 C 0.45056 0.28003 0.14567 0.0
Co136 Co 0.02004 0.81169 0.19484 0.0
Co137 Co 0.05372 0.86024 0.16815 0.0
C138 C 0.07608 0.79963 0.16904 0.0
O139 O 0.05694 0.79146 0.18618 0.0
O140 O 0.07671 0.82549 0.1619 0.0
C141 C 1.0132 0.78141 0.24226 0.0
O142 O 0.03277 0.7991 0.25104 0.0
C143 C 0.10834 0.8869 0.17046 0.0
C144 C 0.10809 0.918 0.13583 0.0
C145 C 0.12597 0.9049 0.15525 0.0
N146 N 0.08176 0.88877 0.1602 0.0
N147 N 0.08162 0.90785 0.13975 0.0
C148 C 0.11698 0.86629 0.19294 0.0
H149 H 0.09814 0.85805 0.20433 0.0
H150 H 0.13146 0.87669 0.20826 0.0
H151 H 0.12845 0.84831 0.18305 0.0
C152 C 1.00141 0.85499 0.2328 0.0
N153 N 0.02012 0.84571 0.21342 0.0
N154 N 0.03739 0.86591 0.20591 0.0
C155 C 0.03217 0.88833 0.22309 0.0
C156 C 1.00888 0.88209 0.24101 0.0
C157 C 0.9728 0.84157 0.23648 0.0
H158 H 0.96679 0.82986 0.21701 0.0
H159 H 0.97337 0.82642 0.2544 0.0
H160 H 0.95616 0.85764 0.24051 0.0
O161 O 1.00113 0.81642 0.15904 0.0
O162 O 0.02191 0.85332 0.13766 0.0
H163 H 0.04333 0.92671 0.20178 0.0
H164 H 0.04458 0.92892 0.24027 0.0
C165 C 0.04874 0.91527 0.22159 0.0
H166 H 0.07168 0.91024 0.22056 0.0
H167 H 0.06403 0.9125 0.1272 0.0
O168 O 0.99902 0.78776 0.22035 0.0
C169 C 1.00351 0.83306 0.138 0.0
Co170 Co 0.47189 0.77003 0.44479 0.0
Co171 Co 0.42334 0.8037 0.41811 0.0
C172 C 0.48395 0.82608 0.41906 0.0
O173 O 0.49211 0.80697 0.43622 0.0
O174 O 0.45811 0.82669 0.41187 0.0
C175 C 0.50214 0.76312 0.49222 0.0
O176 O 0.48444 0.78268 0.50101 0.0
C177 C 0.39668 0.85831 0.42043 0.0
C178 C 0.36558 0.85809 0.38581 0.0
C179 C 0.37868 0.87595 0.40523 0.0
N180 N 0.39481 0.83174 0.41016 0.0
N181 N 0.37573 0.83161 0.38972 0.0
C182 C 0.41729 0.86695 0.44291 0.0
H183 H 0.42554 0.8481 0.4543 0.0
H184 H 0.40689 0.88143 0.45824 0.0
H185 H 0.43528 0.87842 0.43303 0.0
C186 C 0.4286 0.75134 0.48271 0.0
N187 N 0.43787 0.77007 0.46334 0.0
N188 N 0.41765 0.78733 0.45585 0.0
C189 C 0.39524 0.78209 0.47303 0.0
C190 C 0.40149 0.75879 0.49094 0.0
C191 C 0.44202 0.72273 0.48636 0.0
H192 H 0.45373 0.71673 0.46689 0.0
H193 H 0.45718 0.72328 0.50428 0.0
H194 H 0.42595 0.70608 0.49039 0.0
O195 O 0.46722 0.75118 0.40895 0.0
O196 O 0.43028 0.77192 0.38759 0.0
H197 H 0.35684 0.79324 0.45175 0.0
H198 H 0.35466 0.7945 0.49023 0.0
C199 C 0.36829 0.79865 0.47154 0.0
H200 H 0.37331 0.82159 0.4705 0.0
H201 H 0.37108 0.81402 0.37716 0.0
O202 O 0.49581 0.74898 0.47028 0.0
C203 C 0.45058 0.75355 0.38791 0.0
Co204 Co 0.51358 0.22191 0.69485 0.0
Co205 Co 0.47991 0.17335 0.66817 0.0
C206 C 0.45754 0.23396 0.66905 0.0
O207 O 0.47667 0.24214 0.68619 0.0
O208 O 0.45691 0.2081 0.66191 0.0
C209 C 0.5204 0.2522 0.74226 0.0
O210 O 0.50083 0.23452 0.75104 0.0
C211 C 0.42529 0.14669 0.67048 0.0
C212 C 0.42554 0.11559 0.63585 0.0
C213 C 0.40766 0.12869 0.65527 0.0
N214 N 0.45187 0.14482 0.66022 0.0
N215 N 0.45201 0.12574 0.63977 0.0
C216 C 0.41664 0.1673 0.69295 0.0
H217 H 0.43548 0.17555 0.70434 0.0
H218 H 0.40216 0.1569 0.70827 0.0
H219 H 0.40517 0.18528 0.68306 0.0
C220 C 0.53221 0.17862 0.73282 0.0
N221 N 0.51349 0.1879 0.71344 0.0
N222 N 0.49623 0.16769 0.70593 0.0
C223 C 0.50146 0.14527 0.72311 0.0
C224 C 0.52475 0.15152 0.74103 0.0
C225 C 0.56081 0.19205 0.73649 0.0
H226 H 0.56683 0.20376 0.71702 0.0
H227 H 0.56025 0.2072 0.75441 0.0
H228 H 0.57746 0.17598 0.74052 0.0
O229 O 0.53249 0.21718 0.65905 0.0
O230 O 0.51172 0.18027 0.63768 0.0
H231 H 0.49031 0.10689 0.7018 0.0
H232 H 0.48906 0.10468 0.74029 0.0
C233 C 0.4849 0.11832 0.72161 0.0
H234 H 0.46196 0.12335 0.72058 0.0
H235 H 0.46961 0.12109 0.62723 0.0
O236 O 0.53458 0.24585 0.72035 0.0
C237 C 0.53012 0.20054 0.63801 0.0
Co238 Co 0.06173 0.26356 0.9448 0.0
Co239 Co 0.11028 0.22988 0.91812 0.0
C240 C 0.04967 0.2075 0.91907 0.0
O241 O 0.04151 0.22662 0.93623 0.0
O242 O 0.07551 0.20689 0.91189 0.0
C243 C 0.03148 0.27047 0.99222 0.0
O244 O 0.04917 0.25091 1.00102 0.0
C245 C 0.13693 0.17526 0.92044 0.0
C246 C 0.16804 0.17549 0.88581 0.0
C247 C 0.15493 0.15762 0.90524 0.0
N248 N 0.13881 0.20183 0.91017 0.0
N249 N 0.15789 0.20196 0.88973 0.0
C250 C 0.11632 0.16663 0.94292 0.0
H251 H 0.10808 0.18547 0.95431 0.0
H252 H 0.12672 0.15214 0.95824 0.0
H253 H 0.09834 0.15516 0.93304 0.0
C254 C 0.10503 0.28224 0.98272 0.0
N255 N 0.09576 0.26352 0.96335 0.0
N256 N 0.11597 0.24625 0.95586 0.0
C257 C 0.13839 0.25149 0.97304 0.0
C258 C 0.13213 0.27478 0.99095 0.0
C259 C 0.09161 0.31085 0.98637 0.0
H260 H 0.0799 0.31685 0.96689 0.0
H261 H 0.07645 0.3103 1.00429 0.0
H262 H 0.10768 0.32749 0.9904 0.0
O263 O 0.06641 0.28241 0.90896 0.0
O264 O 0.10335 0.26166 0.8876 0.0
H265 H 0.17678 0.24034 0.95176 0.0
H266 H 0.17896 0.23907 0.99024 0.0
C267 C 0.16533 0.23492 0.97155 0.0
H268 H 0.16031 0.21198 0.97051 0.0
H269 H 0.16254 0.21955 0.87717 0.0
O270 O 0.03781 0.28461 0.97028 0.0
C271 C 0.08306 0.28003 0.88791 0.0
Co272 Co 0.33876 0.02003 0.22194 0.0
Co273 Co 0.36544 0.05372 0.17339 0.0
C274 C 0.36452 0.07607 0.23401 0.0
O275 O 0.34737 0.05694 0.24217 0.0
O276 O 0.37168 0.0767 0.20815 0.0
C277 C 0.29136 1.01315 0.25223 0.0
O278 O 0.28256 0.03272 0.23455 0.0
C279 C 0.36315 0.10835 0.14676 0.0
C280 C 0.39774 0.1081 0.11562 0.0
C281 C 0.37837 0.12599 0.12877 0.0
N282 N 0.37339 0.08177 0.14487 0.0
N283 N 0.39382 0.08163 0.12576 0.0
C284 C 0.34066 0.11699 0.16737 0.0
H285 H 0.32927 0.09815 0.17561 0.0
H286 H 0.32534 0.13147 0.15696 0.0
H287 H 0.35055 0.12847 0.18535 0.0
C288 C 0.30081 1.0014 0.17865 0.0
N289 N 0.32019 0.02011 0.18792 0.0
N290 N 0.32769 0.03738 0.16771 0.0
C291 C 0.31051 0.03215 0.1453 0.0
C292 C 0.29259 1.00886 0.15154 0.0
C293 C 0.29715 0.97278 0.19206 0.0
H294 H 0.31662 0.96677 0.20377 0.0
H295 H 0.27922 0.97334 0.20722 0.0
H296 H 0.29311 0.95614 0.17599 0.0
O297 O 0.37459 1.00116 0.21722 0.0
O298 O 0.39595 0.02193 0.1803 0.0
H299 H 0.33182 0.04331 0.10692 0.0
H300 H 0.29333 0.04456 0.1047 0.0
C301 C 0.31201 0.04872 0.11835 0.0
H302 H 0.31304 0.07166 0.12338 0.0
H303 H 0.40635 0.06403 0.12109 0.0
O304 O 0.31328 0.99899 0.24586 0.0
C305 C 0.39563 1.00354 0.20058 0.0
Co306 Co 0.26357 0.0888 0.47194 0.0
Co307 Co 0.22987 0.11547 0.42339 0.0
C308 C 0.20753 0.11456 0.48401 0.0
O309 O 0.22665 0.09741 0.49218 0.0
O310 O 0.2069 0.12172 0.45816 0.0
C311 C 0.27046 0.0414 0.50223 0.0
O312 O 0.25089 0.0326 0.48455 0.0
C313 C 0.17525 0.11316 0.39677 0.0
C314 C 0.17549 0.14774 0.3656 0.0
C315 C 0.15761 0.12836 0.37877 0.0
N316 N 0.20183 0.12341 0.39488 0.0
N317 N 0.20196 0.14383 0.37576 0.0
C318 C 0.16661 0.09068 0.41738 0.0
H319 H 0.18545 0.0793 0.42563 0.0
H320 H 0.15214 0.07535 0.40698 0.0
H321 H 0.15513 0.10057 0.43536 0.0
C322 C 0.28221 0.05084 0.42865 0.0
N323 N 0.2635 0.07023 0.43793 0.0
N324 N 0.24623 0.07773 0.41772 0.0
C325 C 0.25145 0.06053 0.39531 0.0
C326 C 0.27474 0.04262 0.40155 0.0
C327 C 0.31082 0.04718 0.44206 0.0
H328 H 0.31684 0.06665 0.45377 0.0
H329 H 0.31027 0.02926 0.45722 0.0
H330 H 0.32746 0.04314 0.42599 0.0
O331 O 0.28243 0.12463 0.46723 0.0
O332 O 0.26166 0.14598 0.4303 0.0
H333 H 0.24028 0.08183 0.35692 0.0
H334 H 0.23903 0.04334 0.35472 0.0
C335 C 0.23488 0.06203 0.36836 0.0
H336 H 0.21194 0.06306 0.3734 0.0
H337 H 0.21956 0.15636 0.37108 0.0
O338 O 0.28462 0.06332 0.49587 0.0
C339 C 0.28005 0.14567 0.45058 0.0
Co340 Co 0.19485 1.01355 0.72194 0.0
Co341 Co 0.16818 0.97986 0.67338 0.0
C342 C 0.16909 0.95751 0.734 0.0
O343 O 0.18624 0.97663 0.74217 0.0
O344 O 0.16193 0.95689 0.70815 0.0
C345 C 0.24225 0.02042 0.75223 0.0
O346 O 0.25105 1.00085 0.73455 0.0
C347 C 0.17048 0.92524 0.64675 0.0
C348 C 0.13588 0.92549 0.61561 0.0
C349 C 0.15526 0.9076 0.62877 0.0
N350 N 0.16023 0.95182 0.64487 0.0
N351 N 0.1398 0.95196 0.62576 0.0
C352 C 0.19296 0.9166 0.66736 0.0
H353 H 0.20435 0.93543 0.67561 0.0
H354 H 0.20828 0.90212 0.65696 0.0
H355 H 0.18307 0.90512 0.68534 0.0
C356 C 0.23281 0.03219 0.67865 0.0
N357 N 0.21343 1.01348 0.68792 0.0
N358 N 0.20593 0.99621 0.66771 0.0
C359 C 0.22312 1.00144 0.6453 0.0
C360 C 0.24103 0.02473 0.65155 0.0
C361 C 0.23647 0.0608 0.69207 0.0
H362 H 0.217 0.06681 0.70378 0.0
H363 H 0.25439 0.06024 0.70723 0.0
H364 H 0.24051 0.07744 0.676 0.0
O365 O 0.15902 0.03242 0.71722 0.0
O366 O 0.13767 1.01165 0.6803 0.0
H367 H 0.20181 0.99029 0.60692 0.0
H368 H 0.2403 0.98904 0.60471 0.0
C369 C 0.22162 0.98488 0.61835 0.0
H370 H 0.22059 0.96194 0.62337 0.0
H371 H 0.12728 0.96956 0.62109 0.0
O372 O 0.22033 0.03459 0.74587 0.0
C373 C 0.13798 0.03004 0.70058 0.0
Co374 Co 0.27007 0.94479 0.97194 0.0
Co375 Co 0.30375 0.91812 0.92338 0.0
C376 C 0.32611 0.91903 0.984 0.0
O377 O 0.30699 0.93619 0.99217 0.0
O378 O 0.32673 0.91186 0.95815 0.0
C379 C 0.26318 0.99219 1.00222 0.0
O380 O 0.28275 1.00099 0.98454 0.0
C381 C 0.35838 0.92043 0.89675 0.0
C382 C 0.35813 0.88585 0.86559 0.0
C383 C 0.37601 0.90523 0.87875 0.0
N384 N 0.3318 0.91018 0.89486 0.0
N385 N 0.33166 0.88976 0.87575 0.0
C386 C 0.36702 0.9429 0.91737 0.0
H387 H 0.34818 0.95429 0.92562 0.0
H388 H 0.38149 0.95823 0.90696 0.0
H389 H 0.3785 0.93301 0.93534 0.0
C390 C 0.25142 0.98274 0.92865 0.0
N391 N 0.27013 0.96336 0.93792 0.0
N392 N 0.2874 0.95587 0.91772 0.0
C393 C 0.28217 0.97305 0.8953 0.0
C394 C 0.25888 0.99097 0.90155 0.0
C395 C 0.22281 0.98641 0.94207 0.0
H396 H 0.21679 0.96693 0.95378 0.0
H397 H 0.22336 1.00433 0.95723 0.0
H398 H 0.20616 0.99044 0.926 0.0
O399 O 0.25121 0.90896 0.96723 0.0
O400 O 0.27197 0.88761 0.9303 0.0
H401 H 0.29333 0.95175 0.85692 0.0
H402 H 0.29458 0.99024 0.85471 0.0
C403 C 0.29874 0.97156 0.86835 0.0
H404 H 0.32168 0.97053 0.87338 0.0
H405 H 0.31406 0.87724 0.87107 0.0
O406 O 0.24903 0.97027 0.99587 0.0
C407 C 0.25359 0.88792 0.95059 0.0
Co408 Co 0.33875 1.01362 0.31173 0.0
Co409 Co 0.36543 0.97986 0.36024 0.0
C410 C 0.36448 0.95755 0.29962 0.0
O411 O 0.34737 0.97672 0.29146 0.0
O412 O 0.37163 0.95688 0.32547 0.0
C413 C 0.29133 0.02056 0.28149 0.0
O414 O 0.28251 1.00094 0.2991 0.0
C415 C 0.36313 0.92522 0.38686 0.0
C416 C 0.39775 0.92545 0.41798 0.0
C417 C 0.37836 0.90758 0.40483 0.0
N418 N 0.37339 0.9518 0.38875 0.0
N419 N 0.39382 0.95193 0.40784 0.0
C420 C 0.34063 0.9166 0.36626 0.0
H421 H 0.32924 0.93544 0.35804 0.0
H422 H 0.32532 0.90211 0.37668 0.0
H423 H 0.3505 0.90512 0.34827 0.0
C424 C 0.30084 0.03225 0.35506 0.0
N425 N 0.3202 1.01352 0.34576 0.0
N426 N 0.32769 0.99623 0.36595 0.0
C427 C 0.31052 1.00145 0.38838 0.0
C428 C 0.29266 0.02478 0.38217 0.0
C429 C 0.2972 0.06088 0.34167 0.0
H430 H 0.31668 0.06689 0.32998 0.0
H431 H 0.27929 0.06035 0.32651 0.0
H432 H 0.29317 0.0775 0.35776 0.0
O433 O 0.37458 0.03248 0.31645 0.0
O434 O 0.39596 1.01164 0.35331 0.0
H435 H 0.33182 0.99027 0.42676 0.0
H436 H 0.29333 0.989 0.42895 0.0
C437 C 0.31202 0.98486 0.41531 0.0
H438 H 0.31306 0.96192 0.41027 0.0
H439 H 0.40636 0.96953 0.41251 0.0
O440 O 0.31326 0.0347 0.28785 0.0
C441 C 0.39563 0.03006 0.33307 0.0
Co442 Co 0.26998 0.08878 0.56174 0.0
Co443 Co 0.30376 0.11544 0.61025 0.0
C444 C 0.32605 0.11451 0.54961 0.0
O445 O 0.30687 0.09741 0.54146 0.0
O446 O 0.32674 0.12164 0.57547 0.0
C447 C 0.26305 0.04135 0.53149 0.0
O448 O 0.28268 0.03254 0.54909 0.0
C449 C 0.3584 0.11315 0.63687 0.0
C450 C 0.35815 0.14775 0.668 0.0
C451 C 0.37603 0.12837 0.65485 0.0
N452 N 0.33181 0.1234 0.63875 0.0
N453 N 0.33168 0.14383 0.65785 0.0
C454 C 0.36703 0.09066 0.61627 0.0
H455 H 0.34819 0.07927 0.60803 0.0
H456 H 0.38151 0.07534 0.62668 0.0
H457 H 0.37851 0.10054 0.59828 0.0
C458 C 0.25138 0.05085 0.60506 0.0
N459 N 0.27009 0.07021 0.59576 0.0
N460 N 0.2874 0.07771 0.61595 0.0
C461 C 0.28219 0.06053 0.63837 0.0
C462 C 0.25886 0.04266 0.63217 0.0
C463 C 0.22274 0.04721 0.59169 0.0
H464 H 0.21672 0.0667 0.58 0.0
H465 H 0.22327 0.0293 0.57652 0.0
H466 H 0.20612 0.04317 0.60778 0.0
O467 O 0.25111 0.12459 0.56647 0.0
O468 O 0.27197 0.14597 0.60332 0.0
H469 H 0.29337 0.0818 0.67676 0.0
H470 H 0.29465 0.04332 0.67893 0.0
C471 C 0.29879 0.06201 0.6653 0.0
H472 H 0.32172 0.06306 0.66025 0.0
H473 H 0.31407 0.15636 0.66253 0.0
O474 O 0.2489 0.06328 0.53786 0.0
C475 C 0.25353 0.14564 0.58309 0.0
Co476 Co 0.19485 0.01995 0.81174 0.0
Co477 Co 0.16818 0.05371 0.86024 0.0
C478 C 0.16913 0.07602 0.79962 0.0
O479 O 0.18624 0.05685 0.79147 0.0
O480 O 0.16199 0.07669 0.82547 0.0
C481 C 0.24228 1.013 0.7815 0.0
O482 O 0.2511 0.03263 0.7991 0.0
C483 C 0.17048 0.10835 0.88686 0.0
C484 C 0.13586 0.10812 0.91798 0.0
C485 C 0.15525 0.12599 0.90483 0.0
N486 N 0.16022 0.08177 0.88875 0.0
N487 N 0.13978 0.08164 0.90784 0.0
C488 C 0.19298 0.11697 0.86627 0.0
H489 H 0.20437 0.09813 0.85804 0.0
H490 H 0.20829 0.13145 0.87668 0.0
H491 H 0.18311 0.12845 0.84827 0.0
C492 C 0.23277 1.00132 0.85506 0.0
N493 N 0.21341 0.02004 0.84576 0.0
N494 N 0.20591 0.03734 0.86595 0.0
C495 C 0.22308 0.03213 0.88838 0.0
C496 C 0.24095 1.0088 0.88217 0.0
C497 C 0.23641 0.97269 0.84168 0.0
H498 H 0.21693 0.96668 0.82999 0.0
H499 H 0.25432 0.97322 0.82651 0.0
H500 H 0.24044 0.95607 0.85777 0.0
O501 O 0.15903 1.00109 0.81645 0.0
O502 O 0.13765 0.02194 0.85331 0.0
H503 H 0.2018 0.04331 0.92676 0.0
H504 H 0.24028 0.04459 0.92894 0.0
C505 C 0.22159 0.04872 0.91531 0.0
H506 H 0.22055 0.07166 0.91026 0.0
H507 H 0.12725 0.06404 0.91251 0.0
O508 O 0.22035 0.99886 0.78786 0.0
C509 C 0.13798 1.00351 0.83307 0.0
Co510 Co 0.26366 0.94482 0.06174 0.0
Co511 Co 0.22987 0.91815 0.11023 0.0
C512 C 0.20759 0.91909 0.0496 0.0
O513 O 0.22677 0.93618 0.04145 0.0
O514 O 0.20689 0.91196 0.07546 0.0
C515 C 0.2706 0.99225 0.03149 0.0
O516 O 0.25097 1.00106 0.04909 0.0
C517 C 0.17524 0.92045 0.13686 0.0
C518 C 0.17548 0.88584 0.16799 0.0
C519 C 0.1576 0.90523 0.15484 0.0
N520 N 0.20182 0.91019 0.13874 0.0
N521 N 0.20195 0.88976 0.15784 0.0
C522 C 0.1666 0.94294 0.11626 0.0
H523 H 0.18544 0.95433 0.10803 0.0
H524 H 0.15212 0.95826 0.12667 0.0
H525 H 0.15513 0.93307 0.09827 0.0
C526 C 0.28226 0.98274 0.10506 0.0
N527 N 0.26354 0.96338 0.09576 0.0
N528 N 0.24624 0.95589 0.11594 0.0
C529 C 0.25144 0.97307 0.13837 0.0
C530 C 0.27477 0.99094 0.13216 0.0
C531 C 0.31089 0.98638 0.09169 0.0
H532 H 0.31692 0.9669 0.08 0.0
H533 H 0.31037 1.00429 0.07652 0.0
H534 H 0.32751 0.99042 0.10778 0.0
O535 O 0.28254 0.90901 0.06647 0.0
O536 O 0.26166 0.88762 0.10331 0.0
H537 H 0.24024 0.95178 0.17674 0.0
H538 H 0.23897 0.99027 0.17893 0.0
C539 C 0.23483 0.97158 0.16529 0.0
H540 H 0.2119 0.97054 0.16023 0.0
H541 H 0.21955 0.87723 0.16251 0.0
O542 O 0.28475 0.97032 0.03786 0.0
C543 C 0.28011 0.88796 0.08308 0.0
Co544 Co 0.22192 0.33881 0.02003 0.0
Co545 Co 0.17337 0.36548 0.05373 0.0
C546 C 0.23398 0.36455 0.07609 0.0
O547 O 0.24215 0.3474 0.05696 0.0
O548 O 0.20813 0.37171 0.07671 0.0
C549 C 0.25219 0.2914 1.01314 0.0
O550 O 0.2345 0.2826 0.0327 0.0
C551 C 0.14671 0.36316 0.10835 0.0
C552 C 0.11559 0.39778 0.1081 0.0
C553 C 0.1287 0.37836 0.12598 0.0
N554 N 0.14484 0.37343 0.08177 0.0
N555 N 0.12575 0.39387 0.08163 0.0
C556 C 0.16732 0.34068 0.11698 0.0
H557 H 0.17557 0.3293 0.09815 0.0
H558 H 0.15692 0.32536 0.13147 0.0
H559 H 0.1853 0.35057 0.12846 0.0
C560 C 0.17861 0.30089 1.00135 0.0
N561 N 0.18789 0.32025 0.02008 0.0
N562 N 0.16769 0.32775 0.03736 0.0
C563 C 0.14527 0.31057 0.03212 0.0
C564 C 0.1515 0.29271 1.00879 0.0
C565 C 0.19204 0.29724 0.97274 0.0
H566 H 0.20374 0.31672 0.96673 0.0
H567 H 0.2072 0.27933 0.9733 0.0
H568 H 0.17597 0.2932 0.9561 0.0
O569 O 0.21722 0.37465 1.00118 0.0
O570 O 0.1803 0.396 0.02195 0.0
H571 H 0.10687 0.33184 0.04328 0.0
H572 H 0.1047 0.29336 0.04455 0.0
C573 C 0.11833 0.31205 0.0487 0.0
H574 H 0.12336 0.3131 0.07164 0.0
H575 H 0.1211 0.40641 0.06404 0.0
O576 O 0.24584 0.31333 0.99898 0.0
C577 C 0.20058 0.39569 1.00356 0.0
Co578 Co 0.72192 0.19485 1.01355 0.0
Co579 Co 0.67337 0.16819 0.97986 0.0
C580 C 0.73398 0.16909 0.95749 0.0
O581 O 0.74215 0.18622 0.97663 0.0
O582 O 0.70813 0.16194 0.95686 0.0
C583 C 0.7522 0.24226 0.02042 0.0
O584 O 0.73451 0.25106 1.00085 0.0
C585 C 0.64671 0.17049 0.92524 0.0
C586 C 0.6156 0.13587 0.9255 0.0
C587 C 0.62871 0.15528 0.90762 0.0
N588 N 0.64484 0.16024 0.95183 0.0
N589 N 0.62575 0.1398 0.95197 0.0
C590 C 0.66733 0.19295 0.91659 0.0
H591 H 0.67557 0.20436 0.93542 0.0
H592 H 0.65693 0.20827 0.90209 0.0
H593 H 0.68531 0.18306 0.90513 0.0
C594 C 0.67863 0.23281 0.03219 0.0
N595 N 0.68791 0.21343 1.01347 0.0
N596 N 0.6677 0.20594 0.9962 0.0
C597 C 0.64528 0.22313 1.00143 0.0
C598 C 0.65153 0.24103 0.02472 0.0
C599 C 0.69204 0.23646 0.0608 0.0
H600 H 0.70375 0.21698 0.06681 0.0
H601 H 0.7072 0.25438 0.06025 0.0
H602 H 0.67597 0.24049 0.07744 0.0
O603 O 0.7172 0.15904 0.03243 0.0
O604 O 0.68028 0.13768 1.01165 0.0
H605 H 0.6069 0.20183 0.99026 0.0
H606 H 0.6047 0.24031 0.98902 0.0
C607 C 0.61834 0.22163 0.98486 0.0
H608 H 0.62337 0.22061 0.96192 0.0
H609 H 0.6211 0.12726 0.96957 0.0
O610 O 0.74585 0.22034 0.03458 0.0
C611 C 0.70055 0.138 0.03005 0.0
Co612 Co 0.08875 0.47189 0.2636 0.0
Co613 Co 0.11543 0.42336 0.22988 0.0
C614 C 0.1145 0.48399 0.20755 0.0
O615 O 0.09738 0.49215 0.2267 0.0
O616 O 0.12165 0.45813 0.2069 0.0
C617 C 0.04135 0.50218 0.2705 0.0
O618 O 0.03254 0.48452 0.25093 0.0
C619 C 0.11314 0.39674 0.17524 0.0
C620 C 0.14775 0.36561 0.17549 0.0
C621 C 0.12836 0.37876 0.15761 0.0
N622 N 0.12338 0.39485 0.20183 0.0
N623 N 0.14382 0.37575 0.20196 0.0
C624 C 0.09065 0.41734 0.16661 0.0
H625 H 0.07925 0.42558 0.18545 0.0
H626 H 0.07533 0.40693 0.15213 0.0
H627 H 0.10052 0.43533 0.15513 0.0
C628 C 0.05079 0.42859 0.28222 0.0
N629 N 0.07017 0.43788 0.26351 0.0
N630 N 0.07768 0.41768 0.24623 0.0
C631 C 0.0605 0.39525 0.25146 0.0
C632 C 0.04258 0.40149 0.27474 0.0
C633 C 0.04713 0.442 0.31084 0.0
H634 H 0.0666 0.4537 0.31686 0.0
H635 H 0.02921 0.45715 0.31028 0.0
H636 H 0.04309 0.42592 0.32747 0.0
O637 O 0.12457 0.46716 0.28248 0.0
O638 O 0.14594 0.43028 0.26166 0.0
H639 H 0.08182 0.35688 0.2403 0.0
H640 H 0.04334 0.35466 0.23905 0.0
C641 C 0.06201 0.36831 0.23489 0.0
H642 H 0.06304 0.37334 0.21195 0.0
H643 H 0.15635 0.37108 0.21956 0.0
O644 O 0.06327 0.4958 0.28466 0.0
C645 C 0.14561 0.45053 0.28008 0.0
Co646 Co 0.8117 0.83876 0.51353 0.0
Co647 Co 0.86024 0.86543 0.47984 0.0
C648 C 0.79963 0.86453 0.45748 0.0
O649 O 0.79146 0.84739 0.47662 0.0
O650 O 0.82548 0.87168 0.45685 0.0
C651 C 0.78142 0.79134 0.5204 0.0
O652 O 0.79911 0.78255 0.50084 0.0
C653 C 0.88691 0.86313 0.42523 0.0
C654 C 0.91802 0.89775 0.42549 0.0
C655 C 0.90491 0.87834 0.40761 0.0
N656 N 0.88878 0.87338 0.45181 0.0
N657 N 0.90787 0.89382 0.45196 0.0
C658 C 0.86629 0.84066 0.41658 0.0
H659 H 0.85805 0.82926 0.43541 0.0
H660 H 0.87669 0.82535 0.40208 0.0
H661 H 0.84831 0.85056 0.40511 0.0
C662 C 0.85498 0.8008 0.53216 0.0
N663 N 0.84571 0.82018 0.51345 0.0
N664 N 0.86591 0.82768 0.49618 0.0
C665 C 0.88833 0.81049 0.5014 0.0
C666 C 0.88208 0.79257 0.52469 0.0
C667 C 0.84157 0.79714 0.56078 0.0
H668 H 0.82986 0.81661 0.56679 0.0
H669 H 0.82642 0.77922 0.56023 0.0
H670 H 0.85765 0.79311 0.57742 0.0
O671 O 0.81641 0.87457 0.53243 0.0
O672 O 0.85333 0.89593 0.51164 0.0
H673 H 0.92671 0.83179 0.49023 0.0
H674 H 0.92892 0.79331 0.48899 0.0
C675 C 0.91527 0.81198 0.48483 0.0
H676 H 0.91024 0.813 0.46189 0.0
H677 H 0.91251 0.90636 0.46956 0.0
O678 O 0.78777 0.81326 0.53456 0.0
C679 C 0.83306 0.8956 0.53005 0.0
Co680 Co 0.94485 0.0617 0.26356 0.0
Co681 Co 0.91817 0.11024 0.22985 0.0
C682 C 0.91909 0.04963 0.2075 0.0
O683 O 0.93622 0.04146 0.22665 0.0
O684 O 0.91194 0.07548 0.20686 0.0
C685 C 0.99226 0.03143 0.27044 0.0
O686 O 1.00106 0.04911 0.25087 0.0
C687 C 0.92046 0.13691 0.17525 0.0
C688 C 0.88584 0.16802 0.17551 0.0
C689 C 0.90525 0.15491 0.15762 0.0
N690 N 0.91021 0.13877 0.20183 0.0
N691 N 0.88977 0.15786 0.20198 0.0
C692 C 0.94294 0.1163 0.16659 0.0
H693 H 0.95434 0.10806 0.18542 0.0
H694 H 0.95825 0.1267 0.15209 0.0
H695 H 0.93304 0.09832 0.15513 0.0
C696 C 0.98277 0.10501 0.28221 0.0
N697 N 0.96341 0.09572 0.26349 0.0
N698 N 0.95591 0.11592 0.24621 0.0
C699 C 0.97308 0.13835 0.25143 0.0
C700 C 0.99095 0.13213 0.27476 0.0
C701 C 0.98643 0.0916 0.31083 0.0
H702 H 0.96695 0.0799 0.31684 0.0
H703 H 1.00434 0.07644 0.31027 0.0
H704 H 0.99047 0.10767 0.32747 0.0
O705 O 0.90903 0.06642 0.28245 0.0
O706 O 0.88766 0.10332 0.26165 0.0
H707 H 0.9518 0.17674 0.24026 0.0
H708 H 0.99028 0.17892 0.23899 0.0
C709 C 0.97159 0.16529 0.23485 0.0
H710 H 0.97055 0.16025 0.21191 0.0
H711 H 0.87723 0.1625 0.21958 0.0
O712 O 0.97034 0.03778 0.2846 0.0
C713 C 0.88799 0.08305 0.28005 0.0
Co714 Co 0.3117 0.69476 0.52002 0.0
Co715 Co 0.36025 0.66809 0.55372 0.0
C716 C 0.29964 0.66903 0.57608 0.0
O717 O 0.29148 0.68618 0.55695 0.0
O718 O 0.32549 0.66186 0.57671 0.0
C719 C 0.28143 0.74218 0.51313 0.0
O720 O 0.29912 0.75098 0.53269 0.0
C721 C 0.38691 0.6704 0.60833 0.0
C722 C 0.41803 0.63579 0.60809 0.0
C723 C 0.40492 0.65521 0.62596 0.0
N724 N 0.38878 0.66014 0.58175 0.0
N725 N 0.40787 0.6397 0.58162 0.0
C726 C 0.3663 0.69288 0.61698 0.0
H727 H 0.35805 0.70427 0.59814 0.0
H728 H 0.3767 0.7082 0.63146 0.0
H729 H 0.34832 0.68299 0.62845 0.0
C730 C 0.35501 0.73268 0.50134 0.0
N731 N 0.34573 0.71332 0.52007 0.0
N732 N 0.36593 0.70583 0.53735 0.0
C733 C 0.38835 0.723 0.53211 0.0
C734 C 0.38212 0.74087 0.50878 0.0
C735 C 0.34158 0.73634 0.47273 0.0
H736 H 0.32988 0.71686 0.46672 0.0
H737 H 0.32642 0.75425 0.47329 0.0
H738 H 0.35765 0.74038 0.45608 0.0
O739 O 0.31639 0.65893 0.50117 0.0
O740 O 0.35332 0.63757 0.52193 0.0
H741 H 0.42675 0.70173 0.54327 0.0
H742 H 0.42892 0.74021 0.54454 0.0
C743 C 0.41529 0.72152 0.54869 0.0
H744 H 0.41026 0.72047 0.57162 0.0
H745 H 0.41252 0.62716 0.56402 0.0
O746 O 0.28778 0.72025 0.49898 0.0
C747 C 0.33303 0.63789 0.50355 0.0
Co748 Co 0.08877 0.56169 0.27002 0.0
Co749 Co 0.11545 0.61021 0.30375 0.0
C750 C 0.11452 0.54959 0.32608 0.0
O751 O 0.09739 0.54144 0.30693 0.0
O752 O 0.12167 0.57544 0.32673 0.0
C753 C 0.04133 0.53145 0.2631 0.0
O754 O 0.03253 0.54906 0.28273 0.0
C755 C 0.11315 0.63687 0.35837 0.0
C756 C 0.14777 0.66798 0.35811 0.0
C757 C 0.12836 0.65487 0.376 0.0
N758 N 0.12341 0.63874 0.33179 0.0
N759 N 0.14385 0.65782 0.33165 0.0
C760 C 0.09067 0.61626 0.36702 0.0
H761 H 0.07927 0.60802 0.34818 0.0
H762 H 0.07536 0.62667 0.38151 0.0
H763 H 0.10056 0.59828 0.37849 0.0
C764 C 0.05082 0.605 0.25141 0.0
N765 N 0.0702 0.59571 0.27012 0.0
N766 N 0.0777 0.61591 0.28739 0.0
C767 C 0.06052 0.63833 0.28218 0.0
C768 C 0.0426 0.6321 0.25889 0.0
C769 C 0.04715 0.59161 0.22279 0.0
H770 H 0.06663 0.5799 0.21676 0.0
H771 H 0.02923 0.57646 0.22333 0.0
H772 H 0.04312 0.60769 0.20616 0.0
O773 O 0.12459 0.5664 0.25115 0.0
O774 O 0.14596 0.60329 0.27196 0.0
H775 H 0.08184 0.6767 0.29335 0.0
H776 H 0.04335 0.67892 0.29459 0.0
C777 C 0.06203 0.66527 0.29875 0.0
H778 H 0.06305 0.66024 0.32169 0.0
H779 H 0.15639 0.66247 0.31405 0.0
O780 O 0.06327 0.5378 0.24896 0.0
C781 C 0.14564 0.58303 0.25355 0.0
Co782 Co 0.44484 0.47191 0.77006 0.0
Co783 Co 0.41815 0.42336 0.80374 0.0
C784 C 0.41907 0.48397 0.82611 0.0
O785 O 0.43623 0.49214 0.80698 0.0
O786 O 0.41191 0.45812 0.82673 0.0
C787 C 0.49225 0.50218 0.76318 0.0
O788 O 0.50104 0.4845 0.78275 0.0
C789 C 0.42046 0.3967 0.85836 0.0
C790 C 0.38585 0.36559 0.85811 0.0
C791 C 0.40526 0.3787 0.87599 0.0
N792 N 0.4102 0.39483 0.83178 0.0
N793 N 0.38977 0.37574 0.83164 0.0
C794 C 0.44293 0.41732 0.86701 0.0
H795 H 0.45433 0.42557 0.84817 0.0
H796 H 0.45825 0.40692 0.88149 0.0
H797 H 0.43304 0.4353 0.87848 0.0
C798 C 0.48279 0.42862 0.75142 0.0
N799 N 0.46341 0.43789 0.77013 0.0
N800 N 0.4559 0.41768 0.78739 0.0
C801 C 0.47309 0.39526 0.78216 0.0
C802 C 0.49101 0.40151 0.75888 0.0
C803 C 0.48647 0.44204 0.72281 0.0
H804 H 0.467 0.45375 0.71679 0.0
H805 H 0.50439 0.45719 0.72337 0.0
H806 H 0.4905 0.42597 0.70616 0.0
O807 O 0.40901 0.46721 0.75119 0.0
O808 O 0.38765 0.43028 0.77195 0.0
H809 H 0.45177 0.35689 0.79332 0.0
H810 H 0.49025 0.35467 0.79456 0.0
C811 C 0.47158 0.36832 0.79873 0.0
H812 H 0.47056 0.37334 0.82167 0.0
H813 H 0.37722 0.37109 0.81405 0.0
O814 O 0.47032 0.49584 0.74903 0.0
C815 C 0.38797 0.45056 0.75357 0.0
Co816 Co 1.01356 0.8117 0.6949 0.0
Co817 Co 0.97987 0.86024 0.66821 0.0
C818 C 0.95752 0.79962 0.6691 0.0
O819 O 0.97666 0.79145 0.68624 0.0
O820 O 0.95688 0.82548 0.66196 0.0
C821 C 0.02043 0.7814 0.7423 0.0
O822 O 1.00085 0.79907 0.7511 0.0
C823 C 0.92525 0.8869 0.67049 0.0
C824 C 0.92552 0.91801 0.63587 0.0
C825 C 0.90763 0.9049 0.65528 0.0
N826 N 0.95184 0.88877 0.66024 0.0
N827 N 0.95199 0.90785 0.6398 0.0
C828 C 0.9166 0.86629 0.69296 0.0
H829 H 0.93543 0.85805 0.70437 0.0
H830 H 0.9021 0.87669 0.70828 0.0
H831 H 0.90513 0.84831 0.68307 0.0
C832 C 0.03217 0.85499 0.73286 0.0
N833 N 1.01346 0.84571 0.71348 0.0
N834 N 0.99619 0.86591 0.70596 0.0
C835 C 1.00141 0.88834 0.72315 0.0
C836 C 0.02469 0.88209 0.74107 0.0
C837 C 0.06078 0.84158 0.73652 0.0
H838 H 0.0668 0.82988 0.71705 0.0
H839 H 0.06023 0.82643 0.75444 0.0
H840 H 0.07742 0.85766 0.74056 0.0
O841 O 0.03247 0.81643 0.6591 0.0
O842 O 1.01168 0.85332 0.63771 0.0
H843 H 0.99025 0.92671 0.70183 0.0
H844 H 0.98899 0.92892 0.74032 0.0
C845 C 0.98484 0.91528 0.72164 0.0
H846 H 0.9619 0.91024 0.72061 0.0
H847 H 0.96959 0.9125 0.62726 0.0
O848 O 0.0346 0.78778 0.72039 0.0
C849 C 0.0301 0.83307 0.63805 0.0
Co850 Co 0.97194 0.26357 0.44486 0.0
Co851 Co 0.92341 0.22982 0.41819 0.0
C852 C 0.98401 0.20748 0.41915 0.0
O853 O 0.99219 0.22668 0.43622 0.0
O854 O 0.95816 0.20679 0.412 0.0
C855 C 1.00219 0.27045 0.49229 0.0
O856 O 0.9845 0.25089 0.50108 0.0
C857 C 0.89671 0.17523 0.42049 0.0
C858 C 0.86563 0.17551 0.38585 0.0
C859 C 0.87871 0.15762 0.40527 0.0
N860 N 0.89487 0.20181 0.41023 0.0
N861 N 0.87579 0.20197 0.38978 0.0
C862 C 0.9173 0.16657 0.44298 0.0
H863 H 0.92554 0.1854 0.45439 0.0
H864 H 0.90688 0.15208 0.45829 0.0
H865 H 0.93528 0.15509 0.4331 0.0
C866 C 0.92863 0.28218 0.48281 0.0
N867 N 0.93792 0.26347 0.46343 0.0
N868 N 0.91773 0.24619 0.45593 0.0
C869 C 0.89531 0.2514 0.47313 0.0
C870 C 0.90154 0.27469 0.49104 0.0
C871 C 0.94203 0.3108 0.48647 0.0
H872 H 0.95374 0.31682 0.467 0.0
H873 H 0.95718 0.31026 0.50439 0.0
H874 H 0.92594 0.32743 0.4905 0.0
O875 O 0.96722 0.28246 0.40905 0.0
O876 O 0.93036 0.26161 0.38767 0.0
H877 H 0.85694 0.2402 0.45183 0.0
H878 H 0.85473 0.23897 0.49032 0.0
C879 C 0.86837 0.23481 0.47164 0.0
H880 H 0.87342 0.21187 0.47062 0.0
H881 H 0.87117 0.21957 0.37723 0.0
O882 O 0.99585 0.28461 0.47037 0.0
C883 C 0.9506 0.28004 0.388 0.0
Co884 Co 0.52005 0.22188 0.1949 0.0
Co885 Co 0.55375 0.17335 0.16821 0.0
C886 C 0.5761 0.23396 0.16913 0.0
O887 O 0.55695 0.24213 0.18626 0.0
O888 O 0.57674 0.20811 0.16198 0.0
C889 C 0.51316 0.25215 0.24231 0.0
O890 O 0.53274 0.23448 0.25111 0.0
C891 C 0.60836 0.14668 0.1705 0.0
C892 C 0.60809 0.11558 0.13587 0.0
C893 C 0.62598 0.12868 0.15528 0.0
N894 N 0.58178 0.14482 0.16024 0.0
N895 N 0.58163 0.12574 0.1398 0.0
C896 C 0.61701 0.16729 0.19297 0.0
H897 H 0.59818 0.17553 0.20437 0.0
H898 H 0.6315 0.15689 0.20828 0.0
H899 H 0.62848 0.18527 0.18308 0.0
C900 C 0.50143 0.17858 0.23285 0.0
N901 N 0.52014 0.18787 0.21347 0.0
N902 N 0.53741 0.16767 0.20596 0.0
C903 C 0.5322 0.14524 0.22315 0.0
C904 C 0.50891 0.15148 0.24107 0.0
C905 C 0.47281 0.19198 0.23651 0.0
H906 H 0.46679 0.20369 0.21704 0.0
H907 H 0.47336 0.20714 0.25443 0.0
H908 H 0.45618 0.1759 0.24054 0.0
O909 O 0.50115 0.21716 0.1591 0.0
O910 O 0.52194 0.18027 0.13771 0.0
H911 H 0.54337 0.10687 0.20183 0.0
H912 H 0.54462 0.10466 0.24032 0.0
C913 C 0.54878 0.1183 0.22164 0.0
H914 H 0.57171 0.12334 0.22061 0.0
H915 H 0.56403 0.1211 0.12726 0.0
O916 O 0.499 0.24579 0.2204 0.0
C917 C 0.50353 0.20053 0.13805 0.0
Co918 Co 0.56169 0.77 0.94485 0.0
Co919 Co 0.6102 0.80377 0.91818 0.0
C920 C 0.54961 0.8261 0.91913 0.0
O921 O 0.54142 0.80689 0.93618 0.0
O922 O 0.57546 0.82681 0.91199 0.0
C923 C 0.53142 0.76313 0.99228 0.0
O924 O 0.54911 0.7827 1.00107 0.0
C925 C 0.63691 0.85836 0.92048 0.0
C926 C 0.66798 0.8581 0.88583 0.0
C927 C 0.65491 0.87598 0.90526 0.0
N928 N 0.63875 0.83178 0.91022 0.0
N929 N 0.65782 0.83164 0.88975 0.0
C930 C 0.61633 0.86702 0.94298 0.0
H931 H 0.60808 0.84818 0.95438 0.0
H932 H 0.62676 0.88149 0.95829 0.0
H933 H 0.59835 0.8785 0.93311 0.0
C934 C 0.60499 0.75142 0.98281 0.0
N935 N 0.5957 0.77012 0.96342 0.0
N936 N 0.61589 0.78741 0.95592 0.0
C937 C 0.63831 0.78221 0.97312 0.0
C938 C 0.63208 0.75892 0.99103 0.0
C939 C 0.59161 0.7228 0.98647 0.0
H940 H 0.5799 0.71677 0.967 0.0
H941 H 0.57645 0.72334 1.00439 0.0
H942 H 0.6077 0.70617 0.9905 0.0
O943 O 0.56642 0.75111 0.90905 0.0
O944 O 0.60326 0.77199 0.88766 0.0
H945 H 0.67668 0.79341 0.95181 0.0
H946 H 0.67889 0.79465 0.9903 0.0
C947 C 0.66524 0.7988 0.97162 0.0
H948 H 0.66019 0.82174 0.97061 0.0
H949 H 0.66243 0.81404 0.8772 0.0
O950 O 0.53777 0.74897 0.97036 0.0
C951 C 0.58303 0.75354 0.88799 0.0
Co952 Co 1.01356 0.22189 0.83874 0.0
Co953 Co 0.9799 0.17334 0.86545 0.0
C954 C 0.95753 0.23395 0.86455 0.0
O955 O 0.97665 0.24213 0.8474 0.0
O956 O 0.95691 0.2081 0.87171 0.0
C957 C 0.02041 0.25218 0.79133 0.0
O958 O 1.00084 0.2345 0.78254 0.0
C959 C 0.92528 0.14668 0.86315 0.0
C960 C 0.92553 0.11557 0.89777 0.0
C961 C 0.90765 0.12868 0.87835 0.0
N962 N 0.95186 0.14481 0.87341 0.0
N963 N 0.952 0.12573 0.89385 0.0
C964 C 0.91664 0.1673 0.84067 0.0
H965 H 0.93548 0.17554 0.82928 0.0
H966 H 0.90216 0.15689 0.82535 0.0
H967 H 0.90516 0.18527 0.85056 0.0
C968 C 0.03219 0.1786 0.80079 0.0
N969 N 1.01348 0.18788 0.82017 0.0
N970 N 0.99622 0.16767 0.82768 0.0
C971 C 1.00145 0.14525 0.81051 0.0
C972 C 0.02473 0.15149 0.79258 0.0
C973 C 0.0608 0.19202 0.79712 0.0
H974 H 0.06681 0.20373 0.81659 0.0
H975 H 0.06024 0.20717 0.77919 0.0
H976 H 0.07744 0.17595 0.79308 0.0
O977 O 0.03247 0.21717 0.87454 0.0
O978 O 1.01171 0.18026 0.89593 0.0
H979 H 0.9903 0.10687 0.83183 0.0
H980 H 0.98904 0.10465 0.79334 0.0
C981 C 0.98489 0.1183 0.81202 0.0
H982 H 0.96195 0.12332 0.81305 0.0
H983 H 0.9696 0.12108 0.9064 0.0
O984 O 0.03458 0.24582 0.81324 0.0
C985 C 0.03011 0.20053 0.89558 0.0
Co986 Co 0.56171 0.26358 0.5888 0.0
Co987 Co 0.61025 0.22987 0.61548 0.0
C988 C 0.54966 0.2075 0.6145 0.0
O989 O 0.54148 0.22667 0.59741 0.0
O990 O 0.5755 0.20684 0.62168 0.0
C991 C 0.53148 0.27047 0.54136 0.0
O992 O 0.54919 0.25092 0.53257 0.0
C993 C 0.63695 0.17527 0.61316 0.0
C994 C 0.66802 0.17551 0.64781 0.0
C995 C 0.65494 0.15763 0.62838 0.0
N996 N 0.6388 0.20184 0.62344 0.0
N997 N 0.65786 0.20197 0.6439 0.0
C998 C 0.61636 0.16663 0.59066 0.0
H999 H 0.60812 0.18547 0.57927 0.0
H1000 H 0.62678 0.15215 0.57535 0.0
H1001 H 0.59837 0.15515 0.60053 0.0
C1002 C 0.60502 0.28225 0.55089 0.0
N1003 N 0.59574 0.26352 0.57025 0.0
N1004 N 0.61595 0.24625 0.57775 0.0
C1005 C 0.63837 0.25149 0.56057 0.0
C1006 C 0.63212 0.27479 0.54266 0.0
C1007 C 0.5916 0.31087 0.54725 0.0
H1008 H 0.57989 0.31686 0.56672 0.0
H1009 H 0.57645 0.31032 0.52933 0.0
H1010 H 0.60768 0.32751 0.54323 0.0
O1011 O 0.5664 0.28245 0.62463 0.0
O1012 O 0.60329 0.26164 0.646 0.0
H1013 H 0.67676 0.24033 0.58185 0.0
H1014 H 0.67894 0.23907 0.54336 0.0
C1015 C 0.66531 0.23492 0.56205 0.0
H1016 H 0.66028 0.21198 0.56309 0.0
H1017 H 0.66249 0.21956 0.65646 0.0
O1018 O 0.5378 0.28462 0.5633 0.0
C1019 C 0.58303 0.28004 0.64568 0.0
Co1020 Co 0.52008 0.81169 0.33873 0.0
Co1021 Co 0.55373 0.86025 0.36543 0.0
C1022 C 0.5761 0.79964 0.36455 0.0
O1023 O 0.55699 0.79146 0.34739 0.0
O1024 O 0.57672 0.82549 0.3717 0.0
C1025 C 0.51323 0.78139 0.29133 0.0
O1026 O 0.53281 0.79907 0.28254 0.0
C1027 C 0.60834 0.88691 0.36314 0.0
C1028 C 0.60808 0.91802 0.39775 0.0
C1029 C 0.62597 0.90492 0.37834 0.0
N1030 N 0.58176 0.88878 0.37339 0.0
N1031 N 0.58162 0.90787 0.39383 0.0
C1032 C 0.61699 0.8663 0.34067 0.0
H1033 H 0.59816 0.85805 0.32927 0.0
H1034 H 0.63147 0.8767 0.32534 0.0
H1035 H 0.62847 0.84832 0.35056 0.0
C1036 C 0.50144 0.85498 0.30077 0.0
N1037 N 0.52016 0.8457 0.32015 0.0
N1038 N 0.53741 0.86592 0.32767 0.0
C1039 C 0.53217 0.88834 0.31049 0.0
C1040 C 0.50889 0.88209 0.29257 0.0
C1041 C 0.47284 0.84155 0.2971 0.0
H1042 H 0.46683 0.82984 0.31657 0.0
H1043 H 0.47341 0.8264 0.27918 0.0
H1044 H 0.45619 0.85761 0.29307 0.0
O1045 O 0.50116 0.81641 0.37453 0.0
O1046 O 0.52191 0.85333 0.39592 0.0
H1047 H 0.54331 0.92671 0.33181 0.0
H1048 H 0.54457 0.92894 0.29333 0.0
C1049 C 0.54873 0.91529 0.312 0.0
H1050 H 0.57167 0.91027 0.31304 0.0
H1051 H 0.56402 0.91251 0.40638 0.0
O1052 O 0.49906 0.78776 0.31323 0.0
C1053 C 0.50351 0.83306 0.39557 0.0
Co1054 Co 0.97191 0.77001 0.08879 0.0
Co1055 Co 0.92337 0.80374 0.11547 0.0
C1056 C 0.98397 0.8261 0.11448 0.0
O1057 O 0.99215 0.80692 0.0974 0.0
O1058 O 0.95812 0.82677 0.12166 0.0
C1059 C 1.00214 0.76311 0.04135 0.0
O1060 O 0.98445 0.78266 0.03256 0.0
C1061 C 0.89668 0.85834 0.11315 0.0
C1062 C 0.86561 0.8581 0.1478 0.0
C1063 C 0.87869 0.87597 0.12836 0.0
N1064 N 0.89483 0.83177 0.12342 0.0
N1065 N 0.87577 0.83163 0.14389 0.0
C1066 C 0.91727 0.86698 0.09065 0.0
H1067 H 0.92551 0.84814 0.07925 0.0
H1068 H 0.90685 0.88146 0.07533 0.0
H1069 H 0.93526 0.87846 0.10051 0.0
C1070 C 0.9286 0.75135 0.05088 0.0
N1071 N 0.93788 0.77007 0.07024 0.0
N1072 N 0.91768 0.78735 0.07774 0.0
C1073 C 0.89526 0.78212 0.06055 0.0
C1074 C 0.9015 0.75882 0.04265 0.0
C1075 C 0.94201 0.72273 0.04724 0.0
H1076 H 0.95371 0.71673 0.06672 0.0
H1077 H 0.95717 0.72327 0.02932 0.0
H1078 H 0.92593 0.70609 0.04321 0.0
O1079 O 0.96722 0.75114 0.12462 0.0
O1080 O 0.93033 0.77197 0.146 0.0
H1081 H 0.85686 0.79329 0.08183 0.0
H1082 H 0.85469 0.79455 0.04334 0.0
C1083 C 0.86832 0.7987 0.06203 0.0
H1084 H 0.87335 0.82164 0.06307 0.0
H1085 H 0.87114 0.81404 0.15645 0.0
O1086 O 0.99582 0.74896 0.06329 0.0
C1087 C 0.95059 0.75356 0.14567 0.0
Co1088 Co 0.69485 1.01356 0.81167 0.0
Co1089 Co 0.66818 0.97986 0.86022 0.0
C1090 C 0.6691 0.95752 0.7996 0.0
O1091 O 0.68624 0.97665 0.79143 0.0
O1092 O 0.66194 0.95688 0.82545 0.0
C1093 C 0.74226 0.02044 0.78139 0.0
O1094 O 0.75106 1.00087 0.79907 0.0
C1095 C 0.67047 0.92523 0.88685 0.0
C1096 C 0.63589 0.9255 0.91801 0.0
C1097 C 0.65526 0.90761 0.90485 0.0
N1098 N 0.66023 0.95182 0.88874 0.0
N1099 N 0.63981 0.95197 0.90785 0.0
C1100 C 0.69294 0.91658 0.86623 0.0
H1101 H 0.70434 0.93542 0.85799 0.0
H1102 H 0.70826 0.9021 0.87664 0.0
H1103 H 0.68305 0.90511 0.84826 0.0
C1104 C 0.73281 0.03219 0.85496 0.0
N1105 N 0.71343 1.01348 0.84569 0.0
N1106 N 0.70593 0.9962 0.86589 0.0
C1107 C 0.72312 1.00142 0.8883 0.0
C1108 C 0.74104 0.02471 0.88206 0.0
C1109 C 0.73647 0.0608 0.84156 0.0
H1110 H 0.71699 0.06682 0.82985 0.0
H1111 H 0.75439 0.06025 0.8264 0.0
H1112 H 0.7405 0.07744 0.85763 0.0
O1113 O 0.65903 0.03244 0.81639 0.0
O1114 O 0.63767 1.01165 0.8533 0.0
H1115 H 0.70183 0.99024 0.92668 0.0
H1116 H 0.74031 0.98899 0.92888 0.0
C1117 C 0.72163 0.98484 0.91524 0.0
H1118 H 0.7206 0.9619 0.9102 0.0
H1119 H 0.62729 0.96957 0.91253 0.0
O1120 O 0.72034 0.0346 0.78775 0.0
C1121 C 0.63799 0.03005 0.83303 0.0
Co1122 Co 0.77002 0.94482 0.56166 0.0
Co1123 Co 0.80377 0.91815 0.61018 0.0
C1124 C 0.82611 0.91912 0.54958 0.0
O1125 O 0.80692 0.9362 0.5414 0.0
O1126 O 0.8268 0.91195 0.57543 0.0
C1127 C 0.76311 0.99224 0.5314 0.0
O1128 O 0.78268 1.00104 0.54908 0.0
C1129 C 0.85838 0.92045 0.63685 0.0
C1130 C 0.85812 0.88584 0.66798 0.0
C1131 C 0.876 0.90523 0.65485 0.0
N1132 N 0.8318 0.91019 0.63872 0.0
N1133 N 0.83165 0.88975 0.65781 0.0
C1134 C 0.86703 0.94295 0.61627 0.0
H1135 H 0.84819 0.95434 0.60802 0.0
H1136 H 0.8815 0.95827 0.62669 0.0
H1137 H 0.87852 0.93308 0.59829 0.0
C1138 C 0.75141 0.98276 0.60497 0.0
N1139 N 0.77011 0.96338 0.59568 0.0
N1140 N 0.7874 0.95588 0.61587 0.0
C1141 C 0.78219 0.97307 0.63829 0.0
C1142 C 0.75889 0.99099 0.63206 0.0
C1143 C 0.72278 0.98642 0.59157 0.0
H1144 H 0.71676 0.96694 0.57987 0.0
H1145 H 0.72332 1.00434 0.57642 0.0
H1146 H 0.70615 0.99045 0.60766 0.0
O1147 O 0.75115 0.909 0.56637 0.0
O1148 O 0.772 0.88762 0.60324 0.0
H1149 H 0.79337 0.95177 0.67667 0.0
H1150 H 0.79462 0.99026 0.67887 0.0
C1151 C 0.79877 0.97158 0.66523 0.0
H1152 H 0.82171 0.97055 0.66019 0.0
H1153 H 0.81405 0.87722 0.66246 0.0
O1154 O 0.74896 0.97031 0.53775 0.0
C1155 C 0.75358 0.88795 0.58299 0.0
Co1156 Co 0.83876 0.02001 0.31166 0.0
Co1157 Co 0.86543 0.05377 0.36018 0.0
C1158 C 0.86447 0.0761 0.29958 0.0
O1159 O 0.8474 0.0569 0.2914 0.0
O1160 O 0.87163 0.07679 0.32543 0.0
C1161 C 0.79134 1.01312 0.28139 0.0
O1162 O 0.78254 0.03268 0.29907 0.0
C1163 C 0.86314 0.10837 0.38685 0.0
C1164 C 0.89775 0.1081 0.41798 0.0
C1165 C 0.87837 0.12599 0.40484 0.0
N1166 N 0.87339 0.08179 0.38872 0.0
N1167 N 0.89382 0.08163 0.40781 0.0
C1168 C 0.84065 0.11703 0.36627 0.0
H1169 H 0.82925 0.0982 0.35802 0.0
H1170 H 0.82534 0.13151 0.37669 0.0
H1171 H 0.85052 0.12851 0.34828 0.0
C1172 C 0.80082 1.00141 0.35496 0.0
N1173 N 0.8202 0.02011 0.34568 0.0
N1174 N 0.82769 0.0374 0.36587 0.0
C1175 C 0.81049 0.0322 0.38828 0.0
C1176 C 0.79258 1.0089 0.38205 0.0
C1177 C 0.79716 0.97278 0.34157 0.0
H1178 H 0.81664 0.96677 0.32987 0.0
H1179 H 0.77925 0.97332 0.32641 0.0
H1180 H 0.79313 0.95616 0.35766 0.0
O1181 O 0.87458 1.00113 0.31638 0.0
O1182 O 0.89596 0.02199 0.35324 0.0
H1183 H 0.83178 0.04339 0.42666 0.0
H1184 H 0.79329 0.04464 0.42886 0.0
C1185 C 0.81198 0.04879 0.41521 0.0
H1186 H 0.813 0.07172 0.41017 0.0
H1187 H 0.90635 0.06403 0.41247 0.0
O1188 O 0.81327 0.99896 0.28775 0.0
C1189 C 0.89563 1.00355 0.333 0.0
Co1190 Co 0.76359 0.08878 0.06166 0.0
Co1191 Co 0.72983 0.11544 0.11018 0.0
C1192 C 0.7075 0.11448 0.04958 0.0
O1193 O 0.72669 0.0974 0.0414 0.0
O1194 O 0.70681 0.12164 0.07543 0.0
C1195 C 0.7705 0.04136 0.03139 0.0
O1196 O 0.75093 0.03255 0.04908 0.0
C1197 C 0.67523 0.11313 0.13686 0.0
C1198 C 0.67549 0.14774 0.16798 0.0
C1199 C 0.65761 0.12835 0.15485 0.0
N1200 N 0.70181 0.12339 0.13872 0.0
N1201 N 0.70196 0.14383 0.15781 0.0
C1202 C 0.66658 0.09064 0.11627 0.0
H1203 H 0.68542 0.07925 0.10802 0.0
H1204 H 0.65211 0.07532 0.12669 0.0
H1205 H 0.65509 0.10051 0.09829 0.0
C1206 C 0.7822 0.05083 0.10496 0.0
N1207 N 0.76349 0.07021 0.09567 0.0
N1208 N 0.7462 0.0777 0.11587 0.0
C1209 C 0.75141 0.06051 0.13828 0.0
C1210 C 0.77471 0.0426 0.13205 0.0
C1211 C 0.81083 0.04718 0.09157 0.0
H1212 H 0.81685 0.06666 0.07987 0.0
H1213 H 0.8103 0.02926 0.07641 0.0
H1214 H 0.82746 0.04315 0.10765 0.0
O1215 O 0.78246 0.1246 0.06637 0.0
O1216 O 0.76161 0.14596 0.10324 0.0
H1217 H 0.74022 0.08179 0.17666 0.0
H1218 H 0.73898 0.04331 0.17886 0.0
C1219 C 0.73482 0.06199 0.16522 0.0
H1220 H 0.71189 0.06301 0.16017 0.0
H1221 H 0.71956 0.15636 0.16247 0.0
O1222 O 0.78465 0.06328 0.03774 0.0
C1223 C 0.78003 0.14564 0.083 0.0
Co1224 Co 0.69488 0.01996 0.72188 0.0
Co1225 Co 0.6682 0.05373 0.67338 0.0
C1226 C 0.66915 0.07603 0.734 0.0
O1227 O 0.68625 0.05686 0.74216 0.0
O1228 O 0.66201 0.07671 0.70815 0.0
C1229 C 0.7423 1.01302 0.75213 0.0
O1230 O 0.75112 0.03265 0.73452 0.0
C1231 C 0.67049 0.10837 0.64676 0.0
C1232 C 0.63589 0.10813 0.61563 0.0
C1233 C 0.65527 0.12601 0.62878 0.0
N1234 N 0.66024 0.08179 0.64487 0.0
N1235 N 0.63981 0.08165 0.62577 0.0
C1236 C 0.69298 0.117 0.66736 0.0
H1237 H 0.70438 0.09816 0.67559 0.0
H1238 H 0.7083 0.13149 0.65695 0.0
H1239 H 0.68311 0.12847 0.68535 0.0
C1240 C 0.7328 1.00135 0.67855 0.0
N1241 N 0.71344 0.02007 0.68786 0.0
N1242 N 0.70594 0.03736 0.66767 0.0
C1243 C 0.72311 0.03215 0.64524 0.0
C1244 C 0.74098 1.00882 0.65145 0.0
C1245 C 0.73645 0.97272 0.69194 0.0
H1246 H 0.71697 0.9667 0.70363 0.0
H1247 H 0.75436 0.97325 0.7071 0.0
H1248 H 0.74048 0.95609 0.67585 0.0
O1249 O 0.65906 1.00109 0.71716 0.0
O1250 O 0.63768 0.02195 0.6803 0.0
H1251 H 0.70181 0.04333 0.60687 0.0
H1252 H 0.74029 0.0446 0.60466 0.0
C1253 C 0.72161 0.04874 0.61831 0.0
H1254 H 0.72057 0.07168 0.62336 0.0
H1255 H 0.62729 0.06405 0.6211 0.0
O1256 O 0.72038 0.99888 0.74576 0.0
C1257 C 0.63801 1.00352 0.70054 0.0
Co1258 Co 0.76361 0.94489 0.47187 0.0
Co1259 Co 0.72986 0.9182 0.42336 0.0
C1260 C 0.70756 0.91912 0.48399 0.0
O1261 O 0.72672 0.93623 0.49215 0.0
O1262 O 0.70688 0.91199 0.45813 0.0
C1263 C 0.77052 0.99231 0.50213 0.0
O1264 O 0.75088 1.00112 0.48454 0.0
C1265 C 0.67523 0.92048 0.39674 0.0
C1266 C 0.67548 0.88587 0.36561 0.0
C1267 C 0.65759 0.90525 0.37876 0.0
N1268 N 0.70181 0.91024 0.39485 0.0
N1269 N 0.70195 0.8898 0.37575 0.0
C1270 C 0.66658 0.94297 0.41733 0.0
H1271 H 0.68542 0.95437 0.42557 0.0
H1272 H 0.6521 0.95828 0.40692 0.0
H1273 H 0.65511 0.93309 0.43532 0.0
C1274 C 0.78221 0.98282 0.42855 0.0
N1275 N 0.76349 0.96346 0.43785 0.0
N1276 N 0.7462 0.95595 0.41766 0.0
C1277 C 0.75142 0.97312 0.39523 0.0
C1278 C 0.77474 0.991 0.40144 0.0
C1279 C 0.81084 0.98647 0.44194 0.0
H1280 H 0.81686 0.96699 0.45363 0.0
H1281 H 0.8103 1.00439 0.4571 0.0
H1282 H 0.82746 0.99051 0.42585 0.0
O1283 O 0.78251 0.9091 0.46713 0.0
O1284 O 0.76166 0.88769 0.43028 0.0
H1285 H 0.74025 0.95181 0.35686 0.0
H1286 H 0.73898 0.99029 0.35465 0.0
C1287 C 0.73483 0.97161 0.3683 0.0
H1288 H 0.7119 0.97057 0.37334 0.0
H1289 H 0.71956 0.87728 0.37108 0.0
O1290 O 0.78468 0.9704 0.49576 0.0
C1291 C 0.7801 0.88804 0.45051 0.0
Co1292 Co 0.83872 1.01362 0.22187 0.0
Co1293 Co 0.86542 0.97987 0.17336 0.0
C1294 C 0.86448 0.95756 0.23399 0.0
O1295 O 0.84736 0.97672 0.24214 0.0
O1296 O 0.87162 0.9569 0.20813 0.0
C1297 C 0.79129 0.02053 0.25213 0.0
O1298 O 0.78248 1.0009 0.23452 0.0
C1299 C 0.86313 0.92524 0.14675 0.0
C1300 C 0.89774 0.92548 0.11561 0.0
C1301 C 0.87836 0.9076 0.12877 0.0
N1302 N 0.87338 0.95182 0.14486 0.0
N1303 N 0.89381 0.95195 0.12576 0.0
C1304 C 0.84064 0.9166 0.16735 0.0
H1305 H 0.82924 0.93544 0.17558 0.0
H1306 H 0.82533 0.90211 0.15694 0.0
H1307 H 0.85052 0.90513 0.18534 0.0
C1308 C 0.80079 0.03223 0.17855 0.0
N1309 N 0.82016 1.01351 0.18785 0.0
N1310 N 0.82767 0.99622 0.16766 0.0
C1311 C 0.8105 1.00144 0.14523 0.0
C1312 C 0.79262 0.02476 0.15143 0.0
C1313 C 0.79714 0.06085 0.19194 0.0
H1314 H 0.81661 0.06687 0.20363 0.0
H1315 H 0.77922 0.06031 0.2071 0.0
H1316 H 0.7931 0.07748 0.17585 0.0
O1317 O 0.87452 0.0325 0.21715 0.0
O1318 O 0.89593 1.01167 0.18029 0.0
H1319 H 0.83182 0.99027 0.10685 0.0
H1320 H 0.79334 0.989 0.10465 0.0
C1321 C 0.81202 0.98485 0.11829 0.0
H1322 H 0.81306 0.96192 0.12333 0.0
H1323 H 0.90634 0.96956 0.12108 0.0
O1324 O 0.81321 0.03469 0.24576 0.0
C1325 C 0.89558 0.0301 0.20053 0.0
Co1326 Co 0.77 0.08872 0.97187 0.0
Co1327 Co 0.80375 0.11541 0.92337 0.0
C1328 C 0.82605 0.11449 0.984 0.0
O1329 O 0.80688 0.09738 0.99215 0.0
O1330 O 0.82673 0.12162 0.95814 0.0
C1331 C 0.76308 0.0413 1.00213 0.0
O1332 O 0.78272 0.03249 0.98453 0.0
C1333 C 0.85839 0.11313 0.89674 0.0
C1334 C 0.85814 0.14774 0.86562 0.0
C1335 C 0.87602 0.12835 0.87877 0.0
N1336 N 0.83181 0.12338 0.89486 0.0
N1337 N 0.83167 0.14381 0.87576 0.0
C1338 C 0.86703 0.09063 0.91734 0.0
H1339 H 0.84819 0.07924 0.92557 0.0
H1340 H 0.88151 0.07532 0.90693 0.0
H1341 H 0.8785 0.1005 0.93533 0.0
C1342 C 0.7514 0.0508 0.92855 0.0
N1343 N 0.77012 0.07016 0.93786 0.0
N1344 N 0.78741 0.07767 0.91767 0.0
C1345 C 0.7822 0.0605 0.89523 0.0
C1346 C 0.75887 0.04262 0.90144 0.0
C1347 C 0.72277 0.04716 0.94194 0.0
H1348 H 0.71675 0.06664 0.95362 0.0
H1349 H 0.7233 0.02924 0.9571 0.0
H1350 H 0.70614 0.04312 0.92584 0.0
O1351 O 0.7511 0.12452 0.96714 0.0
O1352 O 0.77196 0.14592 0.93029 0.0
H1353 H 0.79337 0.0818 0.85686 0.0
H1354 H 0.79465 0.04332 0.85466 0.0
C1355 C 0.79879 0.062 0.8683 0.0
H1356 H 0.82172 0.06305 0.87335 0.0
H1357 H 0.81407 0.15634 0.87109 0.0
O1358 O 0.74892 0.06321 0.99576 0.0
C1359 C 0.75351 0.14557 0.95052 0.0
Co1360 Co 0.81171 0.69481 1.01354 0.0
Co1361 Co 0.86026 0.66812 0.97987 0.0
C1362 C 0.79965 0.66906 0.95749 0.0
O1363 O 0.79149 0.68622 0.97661 0.0
O1364 O 0.8255 0.66188 0.95688 0.0
C1365 C 0.78145 0.74224 0.02043 0.0
O1366 O 0.79915 0.75103 1.00087 0.0
C1367 C 0.88693 0.67044 0.92526 0.0
C1368 C 0.91804 0.63581 0.9255 0.0
C1369 C 0.90493 0.65523 0.90763 0.0
N1370 N 0.88879 0.66017 0.95184 0.0
N1371 N 0.90788 0.63973 0.95197 0.0
C1372 C 0.86631 0.69291 0.91661 0.0
H1373 H 0.85807 0.7043 0.93545 0.0
H1374 H 0.87672 0.70823 0.90213 0.0
H1375 H 0.84834 0.68302 0.90514 0.0
C1376 C 0.85501 0.73272 0.03224 0.0
N1377 N 0.84573 0.71337 1.0135 0.0
N1378 N 0.86594 0.70586 0.99623 0.0
C1379 C 0.88837 0.72303 1.00148 0.0
C1380 C 0.88214 0.7409 0.0248 0.0
C1381 C 0.84158 0.73639 0.06084 0.0
H1382 H 0.82987 0.71692 0.06684 0.0
H1383 H 0.82643 0.75431 0.06027 0.0
H1384 H 0.85765 0.74042 0.07749 0.0
O1385 O 0.81639 0.65898 0.03241 0.0
O1386 O 0.85332 0.63762 1.01166 0.0
H1387 H 0.92676 0.70175 0.99033 0.0
H1388 H 0.92895 0.74023 0.98905 0.0
C1389 C 0.91531 0.72154 0.9849 0.0
H1390 H 0.91028 0.7205 0.96196 0.0
H1391 H 0.91252 0.62718 0.96957 0.0
O1392 O 0.78778 0.7203 0.03458 0.0
C1393 C 0.83303 0.63794 0.03004 0.0
Co1394 Co 0.31169 0.83867 0.02004 0.0
Co1395 Co 0.36022 0.86536 0.05379 0.0
C1396 C 0.29962 0.86442 0.07612 0.0
O1397 O 0.29143 0.84736 0.05693 0.0
O1398 O 0.32547 0.87156 0.07682 0.0
C1399 C 0.28141 0.79126 1.01318 0.0
O1400 O 0.29908 0.78247 0.03275 0.0
C1401 C 0.38691 0.86307 0.10839 0.0
C1402 C 0.41799 0.89772 0.10811 0.0
C1403 C 0.40491 0.8783 0.126 0.0
N1404 N 0.38876 0.87332 0.0818 0.0
N1405 N 0.40783 0.89378 0.08165 0.0
C1406 C 0.36632 0.84058 0.11705 0.0
H1407 H 0.35808 0.82917 0.09822 0.0
H1408 H 0.37674 0.82528 0.13154 0.0
H1409 H 0.34833 0.85047 0.12852 0.0
C1410 C 0.35499 0.80072 1.00146 0.0
N1411 N 0.34571 0.8201 0.02017 0.0
N1412 N 0.3659 0.82761 0.03745 0.0
C1413 C 0.38833 0.81042 0.03223 0.0
C1414 C 0.3821 0.79251 1.00894 0.0
C1415 C 0.3416 0.79706 0.97284 0.0
H1416 H 0.32989 0.81654 0.96682 0.0
H1417 H 0.32645 0.77914 0.97338 0.0
H1418 H 0.35768 0.79303 0.95621 0.0
O1419 O 0.31644 0.87446 1.00113 0.0
O1420 O 0.35328 0.89586 0.02199 0.0
H1421 H 0.42669 0.83175 0.0434 0.0
H1422 H 0.42892 0.79326 0.04464 0.0
C1423 C 0.41527 0.81193 0.0488 0.0
H1424 H 0.41023 0.81295 0.07174 0.0
H1425 H 0.41245 0.90632 0.06404 0.0
O1426 O 0.28778 0.81317 0.99901 0.0
C1427 C 0.33306 0.89551 1.00354 0.0
Co1428 Co 0.94487 0.56169 0.77 0.0
Co1429 Co 0.9182 0.61021 0.80374 0.0
C1430 C 0.91913 0.54959 0.82606 0.0
O1431 O 0.93624 0.54143 0.8069 0.0
O1432 O 0.91199 0.57545 0.82672 0.0
C1433 C 0.99228 0.53141 0.7631 0.0
O1434 O 1.00108 0.54908 0.78267 0.0
C1435 C 0.92049 0.63684 0.85837 0.0
C1436 C 0.88589 0.66797 0.85812 0.0
C1437 C 0.90527 0.65482 0.876 0.0
N1438 N 0.91025 0.63873 0.83178 0.0
N1439 N 0.88981 0.65783 0.83165 0.0
C1440 C 0.94298 0.61624 0.867 0.0
H1441 H 0.95438 0.608 0.84817 0.0
H1442 H 0.9583 0.62665 0.88149 0.0
H1443 H 0.93311 0.59826 0.87848 0.0
C1444 C 0.98283 0.60499 0.75139 0.0
N1445 N 0.96345 0.5957 0.7701 0.0
N1446 N 0.95595 0.6159 0.78738 0.0
C1447 C 0.97314 0.63832 0.78217 0.0
C1448 C 0.99105 0.63208 0.75888 0.0
C1449 C 0.98649 0.59159 0.72277 0.0
H1450 H 0.96702 0.5799 0.71675 0.0
H1451 H 1.00441 0.57644 0.72331 0.0
H1452 H 0.99053 0.60768 0.70614 0.0
O1453 O 0.90906 0.56642 0.75112 0.0
O1454 O 0.88768 0.6033 0.77195 0.0
H1455 H 0.95183 0.67669 0.79335 0.0
H1456 H 0.99031 0.6789 0.79459 0.0
C1457 C 0.97164 0.66525 0.79875 0.0
H1458 H 0.97061 0.66022 0.82169 0.0
H1459 H 0.87729 0.6625 0.81404 0.0
O1460 O 0.97036 0.53778 0.74893 0.0
C1461 C 0.88801 0.58305 0.75352 0.0
Co1462 Co 0.22194 0.19492 0.52004 0.0
Co1463 Co 0.17342 0.16823 0.5538 0.0
C1464 C 0.23402 0.16917 0.57613 0.0
O1465 O 0.24221 0.18623 0.55692 0.0
O1466 O 0.20817 0.16203 0.57684 0.0
C1467 C 0.25222 0.24233 0.51317 0.0
O1468 O 0.23454 0.25113 0.53275 0.0
C1469 C 0.14672 0.17051 0.6084 0.0
C1470 C 0.11564 0.13587 0.60812 0.0
C1471 C 0.12872 0.15529 0.62601 0.0
N1472 N 0.14488 0.16026 0.58181 0.0
N1473 N 0.12581 0.1398 0.58166 0.0
C1474 C 0.16731 0.193 0.61706 0.0
H1475 H 0.17555 0.20442 0.59823 0.0
H1476 H 0.15689 0.2083 0.63155 0.0
H1477 H 0.18529 0.18312 0.62853 0.0
C1478 C 0.17863 0.23287 0.50147 0.0
N1479 N 0.18793 0.21349 0.52018 0.0
N1480 N 0.16773 0.20598 0.53746 0.0
C1481 C 0.14531 0.22317 0.53225 0.0
C1482 C 0.15153 0.24108 0.50896 0.0
C1483 C 0.19202 0.23653 0.47285 0.0
H1484 H 0.20373 0.21706 0.46682 0.0
H1485 H 0.20717 0.25445 0.47338 0.0
H1486 H 0.17594 0.24056 0.45622 0.0
O1487 O 0.21719 0.15913 0.50113 0.0
O1488 O 0.18036 0.13772 0.52201 0.0
H1489 H 0.10695 0.20184 0.54344 0.0
H1490 H 0.10471 0.24032 0.54467 0.0
C1491 C 0.11837 0.22166 0.54883 0.0
H1492 H 0.12341 0.22064 0.57177 0.0
H1493 H 0.12118 0.12726 0.56405 0.0
O1494 O 0.24585 0.22042 0.499 0.0
C1495 C 0.20058 0.13808 0.50355 0.0
Co1496 Co 0.08872 0.97191 0.77001 0.0
Co1497 Co 0.1154 0.9234 0.80379 0.0
C1498 C 0.11445 0.984 0.8261 0.0
O1499 O 0.0974 0.99218 0.80689 0.0
O1500 O 0.12158 0.95814 0.82683 0.0
C1501 C 0.0413 1.00219 0.76313 0.0
O1502 O 0.0325 0.98451 0.7827 0.0
C1503 C 0.11312 0.8967 0.85838 0.0
C1504 C 0.14777 0.86562 0.8581 0.0
C1505 C 0.12835 0.8787 0.87599 0.0
N1506 N 0.12337 0.89486 0.8318 0.0
N1507 N 0.14384 0.87579 0.83164 0.0
C1508 C 0.09062 0.91728 0.86704 0.0
H1509 H 0.07921 0.92552 0.84822 0.0
H1510 H 0.07533 0.90685 0.88154 0.0
H1511 H 0.1005 0.93527 0.87852 0.0
C1512 C 0.0508 0.92859 0.75142 0.0
N1513 N 0.07016 0.93789 0.77014 0.0
N1514 N 0.07766 0.91771 0.78743 0.0
C1515 C 0.06049 0.89527 0.78223 0.0
C1516 C 0.04261 0.90148 0.7589 0.0
C1517 C 0.04715 0.94197 0.72279 0.0
H1518 H 0.06663 0.95366 0.71677 0.0
H1519 H 0.02924 0.95714 0.72332 0.0
H1520 H 0.04312 0.92588 0.70617 0.0
O1521 O 0.12451 0.96717 0.7511 0.0
O1522 O 0.14592 0.93035 0.772 0.0
H1523 H 0.08178 0.8569 0.79343 0.0
H1524 H 0.04329 0.85471 0.79469 0.0
C1525 C 0.06198 0.86835 0.79883 0.0
H1526 H 0.06301 0.87341 0.82176 0.0
H1527 H 0.15638 0.87117 0.81403 0.0
O1528 O 0.06321 0.99581 0.74896 0.0
C1529 C 0.14557 0.95055 0.75353 0.0
Co1530 Co 0.72192 0.33881 0.51357 0.0
Co1531 Co 0.67337 0.3655 0.47989 0.0
C1532 C 0.73398 0.36455 0.45751 0.0
O1533 O 0.74214 0.34739 0.47663 0.0
O1534 O 0.70813 0.37173 0.4569 0.0
C1535 C 0.75217 0.29138 0.52046 0.0
O1536 O 0.73448 0.28259 0.5009 0.0
C1537 C 0.6467 0.36319 0.42528 0.0
C1538 C 0.61557 0.3978 0.42554 0.0
C1539 C 0.62868 0.37839 0.40765 0.0
N1540 N 0.64484 0.37345 0.45186 0.0
N1541 N 0.62574 0.39388 0.452 0.0
C1542 C 0.66732 0.34073 0.41662 0.0
H1543 H 0.67556 0.32933 0.43545 0.0
H1544 H 0.65692 0.32541 0.40213 0.0
H1545 H 0.68529 0.35062 0.40515 0.0
C1546 C 0.67861 0.3009 0.53226 0.0
N1547 N 0.68789 0.32026 0.51353 0.0
N1548 N 0.66768 0.32776 0.49626 0.0
C1549 C 0.64526 0.31059 0.50149 0.0
C1550 C 0.65149 0.29271 0.52482 0.0
C1551 C 0.69204 0.29723 0.56086 0.0
H1552 H 0.70375 0.3167 0.56687 0.0
H1553 H 0.70719 0.27931 0.5603 0.0
H1554 H 0.67597 0.29319 0.57751 0.0
O1555 O 0.71724 0.37464 0.53242 0.0
O1556 O 0.68031 0.39601 0.51167 0.0
H1557 H 0.60686 0.33186 0.49034 0.0
H1558 H 0.60469 0.29338 0.48906 0.0
C1559 C 0.61832 0.31207 0.48492 0.0
H1560 H 0.62335 0.31312 0.46198 0.0
H1561 H 0.62109 0.40642 0.4696 0.0
O1562 O 0.74584 0.31332 0.5346 0.0
C1563 C 0.7006 0.39569 0.53005 0.0
Co1564 Co 0.94486 0.4719 0.7636 0.0
Co1565 Co 0.91818 0.42338 0.72986 0.0
C1566 C 0.91911 0.484 0.70754 0.0
O1567 O 0.93623 0.49216 0.72669 0.0
O1568 O 0.91196 0.45815 0.70688 0.0
C1569 C 0.99229 0.50214 0.77051 0.0
O1570 O 1.0011 0.48453 0.75088 0.0
C1571 C 0.92047 0.39672 0.67524 0.0
C1572 C 0.88587 0.3656 0.67551 0.0
C1573 C 0.90527 0.37871 0.65762 0.0
N1574 N 0.91022 0.39486 0.70183 0.0
N1575 N 0.88979 0.37576 0.70198 0.0
C1576 C 0.94294 0.41733 0.66658 0.0
H1577 H 0.95435 0.42558 0.68541 0.0
H1578 H 0.95825 0.40694 0.65209 0.0
H1579 H 0.93304 0.43531 0.65512 0.0
C1580 C 0.98281 0.4286 0.7822 0.0
N1581 N 0.96343 0.43789 0.7635 0.0
N1582 N 0.95593 0.41769 0.74621 0.0
C1583 C 0.97312 0.39527 0.75142 0.0
C1584 C 0.99104 0.40151 0.77471 0.0
C1585 C 0.98647 0.44199 0.81083 0.0
H1586 H 0.96699 0.45369 0.81685 0.0
H1587 H 1.00439 0.45714 0.81029 0.0
H1588 H 0.9905 0.4259 0.82745 0.0
O1589 O 0.90904 0.46719 0.78247 0.0
O1590 O 0.88767 0.43031 0.76165 0.0
H1591 H 0.95181 0.35691 0.74024 0.0
H1592 H 0.9903 0.35469 0.739 0.0
C1593 C 0.97162 0.36834 0.73484 0.0
H1594 H 0.9706 0.37338 0.7119 0.0
H1595 H 0.87726 0.37111 0.71958 0.0
O1596 O 0.97036 0.4958 0.78466 0.0
C1597 C 0.88799 0.45056 0.78007 0.0
Co1598 Co 0.58878 0.56168 0.26352 0.0
Co1599 Co 0.61547 0.61024 0.22986 0.0
C1600 C 0.61455 0.54963 0.20748 0.0
O1601 O 0.59739 0.54146 0.22659 0.0
O1602 O 0.62173 0.57548 0.20687 0.0
C1603 C 0.54135 0.53143 0.27039 0.0
O1604 O 0.53257 0.54912 0.25083 0.0
C1605 C 0.61317 0.63691 0.17525 0.0
C1606 C 0.64777 0.66804 0.17551 0.0
C1607 C 0.62837 0.65492 0.15762 0.0
N1608 N 0.62342 0.63877 0.20183 0.0
N1609 N 0.64385 0.65787 0.20198 0.0
C1610 C 0.59071 0.61628 0.16659 0.0
H1611 H 0.57931 0.60803 0.18542 0.0
H1612 H 0.57539 0.62668 0.1521 0.0
H1613 H 0.60061 0.59831 0.15512 0.0
C1614 C 0.55083 0.60497 0.28218 0.0
N1615 N 0.57021 0.5957 0.26347 0.0
N1616 N 0.57772 0.61591 0.2462 0.0
C1617 C 0.56053 0.63832 0.25143 0.0
C1618 C 0.54261 0.63207 0.27472 0.0
C1619 C 0.54716 0.59154 0.31079 0.0
H1620 H 0.56663 0.57982 0.3168 0.0
H1621 H 0.52923 0.5764 0.31022 0.0
H1622 H 0.54313 0.60761 0.32743 0.0
O1623 O 0.62461 0.56637 0.2824 0.0
O1624 O 0.64597 0.60331 0.26166 0.0
H1625 H 0.58184 0.6767 0.24028 0.0
H1626 H 0.54335 0.67892 0.23903 0.0
C1627 C 0.56203 0.66527 0.23487 0.0
H1628 H 0.56305 0.66025 0.21193 0.0
H1629 H 0.65639 0.66252 0.21958 0.0
O1630 O 0.56329 0.53775 0.28454 0.0
C1631 C 0.64565 0.58302 0.28003 0.0
Co1632 Co 0.51998 0.72193 0.83876 0.0
Co1633 Co 0.55378 0.67342 0.86542 0.0
C1634 C 0.57608 0.73403 0.86446 0.0
O1635 O 0.55686 0.74221 0.84742 0.0
O1636 O 0.57681 0.70817 0.87159 0.0
C1637 C 0.51306 0.75216 0.79132 0.0
O1638 O 0.53268 0.73455 0.78251 0.0
C1639 C 0.60838 0.64672 0.86311 0.0
C1640 C 0.60812 0.61564 0.89776 0.0
C1641 C 0.62601 0.62872 0.87833 0.0
N1642 N 0.58181 0.64488 0.87338 0.0
N1643 N 0.58166 0.62581 0.89384 0.0
C1644 C 0.61704 0.6673 0.84062 0.0
H1645 H 0.59821 0.67555 0.82922 0.0
H1646 H 0.63152 0.65688 0.82531 0.0
H1647 H 0.62853 0.68529 0.85049 0.0
C1648 C 0.50141 0.67862 0.80081 0.0
N1649 N 0.52011 0.68791 0.82019 0.0
N1650 N 0.53741 0.66773 0.82769 0.0
C1651 C 0.53221 0.64531 0.81049 0.0
C1652 C 0.50891 0.65153 0.79258 0.0
C1653 C 0.47277 0.69199 0.79717 0.0
H1654 H 0.46675 0.70368 0.81665 0.0
H1655 H 0.47329 0.70714 0.77925 0.0
H1656 H 0.45615 0.67589 0.79314 0.0
O1657 O 0.5011 0.7172 0.87457 0.0
O1658 O 0.52201 0.68037 0.89596 0.0
H1659 H 0.54341 0.60694 0.8318 0.0
H1660 H 0.54465 0.60473 0.79331 0.0
C1661 C 0.5488 0.61838 0.81199 0.0
H1662 H 0.57174 0.62342 0.813 0.0
H1663 H 0.56406 0.62119 0.9064 0.0
O1664 O 0.49891 0.74581 0.81325 0.0
C1665 C 0.50355 0.70059 0.89563 0.0
Co1666 Co 0.56172 0.26999 0.08876 0.0
Co1667 Co 0.61023 0.30373 0.11545 0.0
C1668 C 0.5496 0.32604 0.11453 0.0
O1669 O 0.54145 0.30688 0.09742 0.0
O1670 O 0.57546 0.32672 0.12166 0.0
C1671 C 0.53146 0.26307 0.04134 0.0
O1672 O 0.54906 0.28271 0.03253 0.0
C1673 C 0.63689 0.35835 0.11315 0.0
C1674 C 0.66801 0.3581 0.14777 0.0
C1675 C 0.6549 0.37598 0.12835 0.0
N1676 N 0.63875 0.33177 0.12341 0.0
N1677 N 0.65784 0.33163 0.14386 0.0
C1678 C 0.61629 0.367 0.09067 0.0
H1679 H 0.60804 0.34817 0.07928 0.0
H1680 H 0.6267 0.38148 0.07535 0.0
H1681 H 0.59831 0.37848 0.10056 0.0
C1682 C 0.60504 0.25139 0.05083 0.0
N1683 N 0.59574 0.2701 0.0702 0.0
N1684 N 0.61593 0.28739 0.0777 0.0
C1685 C 0.63836 0.28218 0.06053 0.0
C1686 C 0.63215 0.25886 0.04265 0.0
C1687 C 0.59166 0.22276 0.04718 0.0
H1688 H 0.57997 0.21674 0.06667 0.0
H1689 H 0.57649 0.22329 0.02928 0.0
H1690 H 0.60775 0.20614 0.04314 0.0
O1691 O 0.56645 0.25109 0.12456 0.0
O1692 O 0.6033 0.27194 0.14596 0.0
H1693 H 0.67674 0.29336 0.08182 0.0
H1694 H 0.67893 0.29464 0.04334 0.0
C1695 C 0.66529 0.29878 0.06203 0.0
H1696 H 0.66024 0.32171 0.06307 0.0
H1697 H 0.66248 0.31403 0.1564 0.0
O1698 O 0.53784 0.24892 0.06326 0.0
C1699 C 0.58307 0.2535 0.14562 0.0
Co1700 Co 1.01367 0.31167 0.33878 0.0
Co1701 Co 0.97984 0.36016 0.36545 0.0
C1702 C 0.95756 0.29955 0.36447 0.0
O1703 O 0.97679 0.29139 0.34744 0.0
O1704 O 0.9568 0.32541 0.3716 0.0
C1705 C 0.02061 0.28145 0.29134 0.0
O1706 O 1.00098 0.29906 0.28253 0.0
C1707 C 0.92524 0.38686 0.36313 0.0
C1708 C 0.9255 0.41794 0.39778 0.0
C1709 C 0.90761 0.40487 0.37834 0.0
N1710 N 0.95181 0.3887 0.37341 0.0
N1711 N 0.95196 0.40777 0.39387 0.0
C1712 C 0.91659 0.36628 0.34063 0.0
H1713 H 0.93542 0.35804 0.32924 0.0
H1714 H 0.90212 0.37671 0.32532 0.0
H1715 H 0.9051 0.3483 0.3505 0.0
C1716 C 0.03226 0.35501 0.30087 0.0
N1717 N 1.01354 0.3457 0.32023 0.0
N1718 N 0.99622 0.36587 0.32772 0.0
C1719 C 1.00142 0.3883 0.31054 0.0
C1720 C 0.02476 0.3821 0.29267 0.0
C1721 C 0.0609 0.34164 0.29723 0.0
H1722 H 0.06692 0.32995 0.31671 0.0
H1723 H 0.06038 0.32648 0.27931 0.0
H1724 H 0.07751 0.35774 0.29319 0.0
O1725 O 0.03254 0.31639 0.37459 0.0
O1726 O 1.0116 0.3532 0.39599 0.0
H1727 H 0.99021 0.42667 0.33182 0.0
H1728 H 0.98895 0.42886 0.29333 0.0
C1729 C 0.98481 0.41522 0.31202 0.0
H1730 H 0.96188 0.41016 0.31305 0.0
H1731 H 0.96955 0.41239 0.40642 0.0
O1732 O 0.03475 0.2878 0.31327 0.0
C1733 C 0.03007 0.33299 0.39566 0.0
Co1734 Co 0.9719 0.76364 0.58873 0.0
Co1735 Co 0.9234 0.72986 0.61541 0.0
C1736 C 0.98403 0.70757 0.61448 0.0
O1737 O 0.99218 0.72675 0.59738 0.0
O1738 O 0.95817 0.70687 0.62161 0.0
C1739 C 1.00216 0.77058 0.54131 0.0
O1740 O 0.98457 0.75093 0.53249 0.0
C1741 C 0.89674 0.67524 0.61313 0.0
C1742 C 0.86563 0.67551 0.64775 0.0
C1743 C 0.87873 0.65762 0.62833 0.0
N1744 N 0.89488 0.70182 0.62338 0.0
N1745 N 0.87579 0.70197 0.64382 0.0
C1746 C 0.91734 0.66659 0.59065 0.0
H1747 H 0.92558 0.68542 0.57924 0.0
H1748 H 0.90694 0.6521 0.57534 0.0
H1749 H 0.93533 0.65512 0.60054 0.0
C1750 C 0.92857 0.78223 0.5508 0.0
N1751 N 0.93788 0.76351 0.57017 0.0
N1752 N 0.9177 0.74622 0.57767 0.0
C1753 C 0.89526 0.75142 0.5605 0.0
C1754 C 0.90147 0.77475 0.54262 0.0
C1755 C 0.94195 0.81086 0.54716 0.0
H1756 H 0.95363 0.81689 0.56664 0.0
H1757 H 0.95712 0.81034 0.52925 0.0
H1758 H 0.92585 0.82748 0.54312 0.0
O1759 O 0.96716 0.78252 0.62453 0.0
O1760 O 0.93033 0.76165 0.64593 0.0
H1761 H 0.85689 0.74024 0.58179 0.0
H1762 H 0.8547 0.73896 0.54331 0.0
C1763 C 0.86834 0.73482 0.56199 0.0
H1764 H 0.87339 0.71189 0.56304 0.0
H1765 H 0.87115 0.71957 0.65636 0.0
O1766 O 0.99578 0.78472 0.56323 0.0
C1767 C 0.95055 0.7801 0.64559 0.0
Co1768 Co 0.51993 0.31169 0.69485 0.0
Co1769 Co 0.55377 0.36017 0.66818 0.0
C1770 C 0.57606 0.29956 0.6692 0.0
O1771 O 0.55681 0.2914 0.68622 0.0
O1772 O 0.57681 0.32542 0.66206 0.0
C1773 C 0.51297 0.28147 0.74229 0.0
O1774 O 0.53259 0.29908 0.75111 0.0
C1775 C 0.60837 0.38687 0.67048 0.0
C1776 C 0.6081 0.41794 0.63582 0.0
C1777 C 0.62599 0.40487 0.65525 0.0
N1778 N 0.58179 0.38871 0.66021 0.0
N1779 N 0.58164 0.40777 0.63975 0.0
C1780 C 0.61703 0.36629 0.69298 0.0
H1781 H 0.5982 0.35807 0.7044 0.0
H1782 H 0.63152 0.37672 0.70827 0.0
H1783 H 0.6285 0.3483 0.68311 0.0
C1784 C 0.50133 0.35503 0.73275 0.0
N1785 N 0.52005 0.34572 0.71339 0.0
N1786 N 0.53737 0.36589 0.70591 0.0
C1787 C 0.53216 0.38832 0.72308 0.0
C1788 C 0.50882 0.38213 0.74095 0.0
C1789 C 0.47269 0.34167 0.73639 0.0
H1790 H 0.46667 0.32998 0.7169 0.0
H1791 H 0.4732 0.3265 0.7543 0.0
H1792 H 0.45608 0.35777 0.74042 0.0
O1793 O 0.50107 0.31641 0.65903 0.0
O1794 O 0.52202 0.3532 0.63763 0.0
H1795 H 0.54338 0.4267 0.70181 0.0
H1796 H 0.54464 0.42887 0.74029 0.0
C1797 C 0.54878 0.41524 0.7216 0.0
H1798 H 0.57171 0.41017 0.72056 0.0
H1799 H 0.56404 0.41239 0.6272 0.0
O1800 O 0.49883 0.28782 0.72036 0.0
C1801 C 0.50354 0.333 0.63797 0.0
Co1802 Co 0.97193 0.26998 0.94491 0.0
Co1803 Co 0.92341 0.30372 0.91823 0.0
C1804 C 0.98404 0.32603 0.91913 0.0
O1805 O 0.9922 0.30686 0.93623 0.0
O1806 O 0.95817 0.32671 0.91201 0.0
C1807 C 1.00222 0.26306 0.99232 0.0
O1808 O 0.98463 0.28271 1.00113 0.0
C1809 C 0.89675 0.35834 0.92051 0.0
C1810 C 0.86564 0.35807 0.88589 0.0
C1811 C 0.87874 0.37596 0.90529 0.0
N1812 N 0.89489 0.33176 0.91026 0.0
N1813 N 0.8758 0.33161 0.88982 0.0
C1814 C 0.91736 0.367 0.94298 0.0
H1815 H 0.9256 0.34817 0.95439 0.0
H1816 H 0.90696 0.3815 0.95828 0.0
H1817 H 0.93534 0.37846 0.93308 0.0
C1818 C 0.92863 0.25141 0.98288 0.0
N1819 N 0.93792 0.27011 0.9635 0.0
N1820 N 0.91773 0.28739 0.95598 0.0
C1821 C 0.8953 0.28219 0.97317 0.0
C1822 C 0.90153 0.2589 0.99109 0.0
C1823 C 0.94201 0.22278 0.98654 0.0
H1824 H 0.9537 0.21675 0.96706 0.0
H1825 H 0.95716 0.22331 1.00446 0.0
H1826 H 0.92592 0.20616 0.99057 0.0
O1827 O 0.96718 0.25107 0.90912 0.0
O1828 O 0.93033 0.27193 0.88772 0.0
H1829 H 0.85694 0.29337 0.95183 0.0
H1830 H 0.8547 0.29461 0.99032 0.0
C1831 C 0.86836 0.29877 0.97165 0.0
H1832 H 0.8734 0.3217 0.97063 0.0
H1833 H 0.87115 0.314 0.87729 0.0
O1834 O 0.99582 0.2489 0.97041 0.0
C1835 C 0.95056 0.25348 0.88807 0.0
Co1836 Co 1.01369 0.72192 0.19486 0.0
Co1837 Co 0.97985 0.67344 0.1682 0.0
C1838 C 0.95756 0.73404 0.1692 0.0
O1839 O 0.97681 0.74221 0.18621 0.0
O1840 O 0.9568 0.70819 0.16207 0.0
C1841 C 0.02063 0.75215 0.2423 0.0
O1842 O 1.00101 0.73454 0.25112 0.0
C1843 C 0.92525 0.64674 0.17049 0.0
C1844 C 0.92552 0.61567 0.13584 0.0
C1845 C 0.90763 0.62874 0.15526 0.0
N1846 N 0.95183 0.6449 0.16023 0.0
N1847 N 0.95199 0.62584 0.13977 0.0
C1848 C 0.91659 0.66731 0.193 0.0
H1849 H 0.93541 0.67554 0.20441 0.0
H1850 H 0.90209 0.65688 0.20829 0.0
H1851 H 0.90512 0.68531 0.18313 0.0
C1852 C 0.03227 0.67858 0.23278 0.0
N1853 N 1.01356 0.68789 0.21341 0.0
N1854 N 0.99624 0.66772 0.20593 0.0
C1855 C 1.00144 0.64529 0.22311 0.0
C1856 C 0.02478 0.65149 0.24097 0.0
C1857 C 0.06091 0.69194 0.23642 0.0
H1858 H 0.06694 0.70363 0.21693 0.0
H1859 H 0.0604 0.70711 0.25433 0.0
H1860 H 0.07753 0.67584 0.24045 0.0
O1861 O 0.03256 0.71719 0.15905 0.0
O1862 O 1.01161 0.6804 0.13765 0.0
H1863 H 0.99022 0.60692 0.20182 0.0
H1864 H 0.98897 0.60473 0.24031 0.0
C1865 C 0.98483 0.61837 0.22162 0.0
H1866 H 0.9619 0.62344 0.2206 0.0
H1867 H 0.96959 0.62122 0.12722 0.0
O1868 O 0.03478 0.74579 0.22037 0.0
C1869 C 0.03008 0.7006 0.13798 0.0
Co1870 Co 0.5617 0.76362 0.44492 0.0
Co1871 Co 0.61021 0.72986 0.41823 0.0
C1872 C 0.54959 0.70756 0.41914 0.0
O1873 O 0.54142 0.72674 0.43623 0.0
O1874 O 0.57545 0.70687 0.41202 0.0
C1875 C 0.5314 0.77053 0.49232 0.0
O1876 O 0.54899 0.75089 0.50114 0.0
C1877 C 0.63687 0.67524 0.42051 0.0
C1878 C 0.66797 0.67551 0.38588 0.0
C1879 C 0.65487 0.65762 0.40528 0.0
N1880 N 0.63874 0.70183 0.41026 0.0
N1881 N 0.65782 0.70198 0.38981 0.0
C1882 C 0.61627 0.66659 0.44298 0.0
H1883 H 0.60803 0.68541 0.4544 0.0
H1884 H 0.62667 0.65208 0.45828 0.0
H1885 H 0.59828 0.65513 0.43309 0.0
C1886 C 0.605 0.78218 0.48288 0.0
N1887 N 0.5957 0.76348 0.4635 0.0
N1888 N 0.6159 0.7462 0.45598 0.0
C1889 C 0.63832 0.7514 0.47317 0.0
C1890 C 0.6321 0.77469 0.49109 0.0
C1891 C 0.59162 0.81081 0.48654 0.0
H1892 H 0.57992 0.81684 0.46706 0.0
H1893 H 0.57646 0.81027 0.50446 0.0
H1894 H 0.60771 0.82743 0.49057 0.0
O1895 O 0.56645 0.78253 0.40912 0.0
O1896 O 0.60329 0.76166 0.38772 0.0
H1897 H 0.67668 0.74022 0.45183 0.0
H1898 H 0.67892 0.73898 0.49031 0.0
C1899 C 0.66526 0.73482 0.47165 0.0
H1900 H 0.66023 0.71189 0.47063 0.0
H1901 H 0.66246 0.71959 0.37728 0.0
O1902 O 0.5378 0.78469 0.47041 0.0
C1903 C 0.58307 0.78011 0.38807 0.0
Co1904 Co 0.83874 0.52003 0.72193 0.0
Co1905 Co 0.86543 0.55376 0.6734 0.0
C1906 C 0.86448 0.5761 0.734 0.0
O1907 O 0.8474 0.55692 0.74219 0.0
O1908 O 0.87164 0.57678 0.70815 0.0
C1909 C 0.79133 0.51315 0.75222 0.0
O1910 O 0.78253 0.53272 0.73455 0.0
C1911 C 0.86315 0.60837 0.64674 0.0
C1912 C 0.89777 0.60811 0.61562 0.0
C1913 C 0.87839 0.626 0.62876 0.0
N1914 N 0.87339 0.58179 0.64487 0.0
N1915 N 0.89384 0.58164 0.62578 0.0
C1916 C 0.84065 0.61702 0.66732 0.0
H1917 H 0.82925 0.59819 0.67556 0.0
H1918 H 0.82534 0.6315 0.6569 0.0
H1919 H 0.85052 0.62851 0.68531 0.0
C1920 C 0.80079 0.50143 0.67864 0.0
N1921 N 0.82016 0.52014 0.68792 0.0
N1922 N 0.82768 0.53741 0.66772 0.0
C1923 C 0.8105 0.53218 0.64529 0.0
C1924 C 0.79258 0.50889 0.65153 0.0
C1925 C 0.79712 0.47281 0.69204 0.0
H1926 H 0.81659 0.46679 0.70375 0.0
H1927 H 0.7792 0.47336 0.70719 0.0
H1928 H 0.79309 0.45617 0.67597 0.0
O1929 O 0.87454 0.50113 0.7172 0.0
O1930 O 0.89594 0.52197 0.68034 0.0
H1931 H 0.83183 0.54333 0.60693 0.0
H1932 H 0.79335 0.54458 0.60469 0.0
C1933 C 0.81202 0.54874 0.61834 0.0
H1934 H 0.81304 0.57168 0.62337 0.0
H1935 H 0.90637 0.56403 0.62113 0.0
O1936 O 0.81324 0.49898 0.74585 0.0
C1937 C 0.89559 0.50353 0.70057 0.0
Co1938 Co 0.76356 0.58872 0.97192 0.0
Co1939 Co 0.72989 0.61541 0.92336 0.0
C1940 C 0.70753 0.61453 0.98398 0.0
O1941 O 0.72665 0.59738 0.99216 0.0
O1942 O 0.70691 0.62167 0.95812 0.0
C1943 C 0.7704 0.54133 1.00223 0.0
O1944 O 0.75082 0.53254 0.98456 0.0
C1945 C 0.67526 0.61314 0.89673 0.0
C1946 C 0.67553 0.64772 0.86558 0.0
C1947 C 0.65763 0.62836 0.87874 0.0
N1948 N 0.70185 0.62337 0.89484 0.0
N1949 N 0.702 0.64379 0.87573 0.0
C1950 C 0.6666 0.59067 0.91735 0.0
H1951 H 0.68544 0.57927 0.92559 0.0
H1952 H 0.65211 0.57535 0.90695 0.0
H1953 H 0.65513 0.60056 0.93533 0.0
C1954 C 0.78218 0.55075 0.92864 0.0
N1955 N 0.76347 0.57013 0.93791 0.0
N1956 N 0.74621 0.57764 0.9177 0.0
C1957 C 0.75144 0.56046 0.89528 0.0
C1958 C 0.77472 0.54253 0.90153 0.0
C1959 C 0.81079 0.54708 0.94206 0.0
H1960 H 0.8168 0.56655 0.95377 0.0
H1961 H 0.81022 0.52916 0.95722 0.0
H1962 H 0.82743 0.54304 0.926 0.0
O1963 O 0.78247 0.62452 0.96718 0.0
O1964 O 0.7617 0.6459 0.93027 0.0
H1965 H 0.74029 0.58178 0.85691 0.0
H1966 H 0.73904 0.54329 0.85469 0.0
C1967 C 0.73488 0.56197 0.86833 0.0
H1968 H 0.71194 0.563 0.87336 0.0
H1969 H 0.71961 0.6563 0.87105 0.0
O1970 O 0.78458 0.56323 0.99586 0.0
C1971 C 0.7801 0.64556 0.95053 0.0
Co1972 Co 0.69489 0.51353 0.22192 0.0
Co1973 Co 0.66821 0.47987 0.17335 0.0
C1974 C 0.66907 0.45751 0.23398 0.0
O1975 O 0.68622 0.47663 0.24216 0.0
O1976 O 0.66193 0.45689 0.20812 0.0
C1977 C 0.74227 0.52037 0.25224 0.0
O1978 O 0.75107 0.5008 0.23457 0.0
C1979 C 0.67048 0.42523 0.14674 0.0
C1980 C 0.63589 0.42549 0.11559 0.0
C1981 C 0.65526 0.4076 0.12875 0.0
N1982 N 0.66025 0.45182 0.14484 0.0
N1983 N 0.63982 0.45197 0.12573 0.0
C1984 C 0.69296 0.41659 0.16735 0.0
H1985 H 0.70435 0.43542 0.17559 0.0
H1986 H 0.70827 0.4021 0.15695 0.0
H1987 H 0.68306 0.40512 0.18533 0.0
C1988 C 0.73287 0.53215 0.17864 0.0
N1989 N 0.71349 0.51344 0.18791 0.0
N1990 N 0.70597 0.49619 0.16769 0.0
C1991 C 0.72314 0.50143 0.14527 0.0
C1992 C 0.74107 0.52471 0.15152 0.0
C1993 C 0.73654 0.56076 0.19207 0.0
H1994 H 0.71706 0.56677 0.20378 0.0
H1995 H 0.75446 0.56019 0.20722 0.0
H1996 H 0.74057 0.57741 0.17601 0.0
O1997 O 0.65909 0.53244 0.21717 0.0
O1998 O 0.63772 0.51168 0.18025 0.0
H1999 H 0.70181 0.49031 0.1069 0.0
H2000 H 0.74029 0.48906 0.10466 0.0
C2001 C 0.72162 0.48489 0.11831 0.0
H2002 H 0.7206 0.46194 0.12332 0.0
H2003 H 0.62731 0.46957 0.12106 0.0
O2004 O 0.72037 0.53456 0.24586 0.0
C2005 C 0.63805 0.53008 0.20052 0.0
Co2006 Co 0.77008 0.44489 0.47192 0.0
Co2007 Co 0.80373 0.41819 0.42335 0.0
C2008 C 0.8261 0.41908 0.48396 0.0
O2009 O 0.807 0.43624 0.49215 0.0
O2010 O 0.8267 0.41192 0.45811 0.0
C2011 C 0.76324 0.49228 0.50223 0.0
O2012 O 0.78281 0.50107 0.48454 0.0
C2013 C 0.85836 0.42046 0.39673 0.0
C2014 C 0.8581 0.38587 0.36558 0.0
C2015 C 0.87599 0.40523 0.37874 0.0
N2016 N 0.83177 0.41023 0.39483 0.0
N2017 N 0.83162 0.38981 0.37572 0.0
C2018 C 0.86701 0.44293 0.41734 0.0
H2019 H 0.84817 0.45434 0.42558 0.0
H2020 H 0.8815 0.45824 0.40694 0.0
H2021 H 0.87847 0.43304 0.43532 0.0
C2022 C 0.75143 0.48285 0.42864 0.0
N2023 N 0.77015 0.46347 0.43791 0.0
N2024 N 0.7874 0.45595 0.41769 0.0
C2025 C 0.78215 0.47312 0.39526 0.0
C2026 C 0.75887 0.49105 0.40152 0.0
C2027 C 0.72283 0.48652 0.44208 0.0
H2028 H 0.71682 0.46706 0.4538 0.0
H2029 H 0.72341 0.50445 0.45723 0.0
H2030 H 0.70618 0.49056 0.42602 0.0
O2031 O 0.75118 0.40908 0.46719 0.0
O2032 O 0.77191 0.38771 0.43026 0.0
H2033 H 0.79327 0.45178 0.35689 0.0
H2034 H 0.79452 0.49027 0.35464 0.0
C2035 C 0.79869 0.4716 0.3683 0.0
H2036 H 0.82163 0.47057 0.37331 0.0
H2037 H 0.81401 0.3773 0.37104 0.0
O2038 O 0.74906 0.47038 0.49586 0.0
C2039 C 0.75353 0.38804 0.45054 0.0
Co2040 Co 0.83875 0.51362 0.81171 0.0
Co2041 Co 0.86545 0.47982 0.8602 0.0
C2042 C 0.86447 0.45752 0.79959 0.0
O2043 O 0.84742 0.47674 0.79142 0.0
O2044 O 0.87161 0.45679 0.82544 0.0
C2045 C 0.7913 0.52056 0.78149 0.0
O2046 O 0.7825 0.50092 0.7991 0.0
C2047 C 0.86317 0.42521 0.88688 0.0
C2048 C 0.89781 0.42548 0.91797 0.0
C2049 C 0.87841 0.40759 0.90486 0.0
N2050 N 0.87342 0.45179 0.88873 0.0
N2051 N 0.89388 0.45194 0.90781 0.0
C2052 C 0.84066 0.41656 0.86631 0.0
H2053 H 0.82926 0.43539 0.85807 0.0
H2054 H 0.82536 0.40208 0.87674 0.0
H2055 H 0.85052 0.40507 0.84832 0.0
C2056 C 0.80085 0.5322 0.85505 0.0
N2057 N 0.8202 0.51349 0.84574 0.0
N2058 N 0.8277 0.49618 0.86592 0.0
C2059 C 0.81053 0.50139 0.88835 0.0
C2060 C 0.79266 0.52472 0.88215 0.0
C2061 C 0.79721 0.56085 0.84168 0.0
H2062 H 0.8167 0.56686 0.83 0.0
H2063 H 0.7793 0.56033 0.82652 0.0
H2064 H 0.79318 0.57746 0.85779 0.0
O2065 O 0.87454 0.53251 0.81643 0.0
O2066 O 0.89597 0.5116 0.85324 0.0
H2067 H 0.83181 0.49018 0.92673 0.0
H2068 H 0.79333 0.48891 0.92891 0.0
C2069 C 0.81202 0.48477 0.91527 0.0
H2070 H 0.81307 0.46184 0.91021 0.0
H2071 H 0.90641 0.46955 0.91245 0.0
O2072 O 0.81323 0.5347 0.78784 0.0
C2073 C 0.89561 0.53007 0.83303 0.0
Co2074 Co 0.76994 0.58877 0.0617 0.0
Co2075 Co 0.80378 0.61544 0.11017 0.0
C2076 C 0.82606 0.61442 0.04957 0.0
O2077 O 0.80682 0.5974 0.04141 0.0
O2078 O 0.82681 0.62158 0.07542 0.0
C2079 C 0.76298 0.54132 0.0315 0.0
O2080 O 0.78261 0.5325 0.04911 0.0
C2081 C 0.85839 0.61317 0.13685 0.0
C2082 C 0.85811 0.64779 0.16795 0.0
C2083 C 0.87601 0.6284 0.15483 0.0
N2084 N 0.83181 0.62342 0.1387 0.0
N2085 N 0.83165 0.64386 0.15779 0.0
C2086 C 0.86705 0.59066 0.11628 0.0
H2087 H 0.84822 0.57924 0.10805 0.0
H2088 H 0.88153 0.57536 0.12671 0.0
H2089 H 0.87852 0.60052 0.09829 0.0
C2090 C 0.75136 0.55087 0.10505 0.0
N2091 N 0.77007 0.57023 0.09574 0.0
N2092 N 0.78739 0.57772 0.1159 0.0
C2093 C 0.7822 0.56053 0.13833 0.0
C2094 C 0.75887 0.54266 0.13214 0.0
C2095 C 0.72271 0.54724 0.0917 0.0
H2096 H 0.71668 0.56672 0.08002 0.0
H2097 H 0.72322 0.52933 0.07653 0.0
H2098 H 0.7061 0.5432 0.10781 0.0
O2099 O 0.75108 0.62459 0.06641 0.0
O2100 O 0.77201 0.64599 0.10321 0.0
H2101 H 0.79343 0.58179 0.17671 0.0
H2102 H 0.79471 0.5433 0.17887 0.0
C2103 C 0.79883 0.562 0.16524 0.0
H2104 H 0.82176 0.56305 0.16016 0.0
H2105 H 0.81404 0.65639 0.16243 0.0
O2106 O 0.74885 0.56325 0.03784 0.0
C2107 C 0.75355 0.64565 0.083 0.0
Co2108 Co 0.69481 0.51993 0.3117 0.0
Co2109 Co 0.66813 0.55377 0.36018 0.0
C2110 C 0.66916 0.57606 0.29957 0.0
O2111 O 0.68619 0.55682 0.29141 0.0
O2112 O 0.662 0.5768 0.32542 0.0
C2113 C 0.74227 0.51296 0.28151 0.0
O2114 O 0.75108 0.53258 0.29912 0.0
C2115 C 0.67042 0.60838 0.38685 0.0
C2116 C 0.63579 0.60811 0.41796 0.0
C2117 C 0.65519 0.626 0.40484 0.0
N2118 N 0.66016 0.5818 0.3887 0.0
N2119 N 0.63972 0.58165 0.40779 0.0
C2120 C 0.69294 0.61703 0.36628 0.0
H2121 H 0.70434 0.59819 0.35805 0.0
H2122 H 0.70824 0.6315 0.37672 0.0
H2123 H 0.68308 0.62852 0.3483 0.0
C2124 C 0.7327 0.50134 0.35505 0.0
N2125 N 0.71334 0.52005 0.34574 0.0
N2126 N 0.70586 0.53738 0.3659 0.0
C2127 C 0.72305 0.53218 0.38833 0.0
C2128 C 0.74091 0.50885 0.38214 0.0
C2129 C 0.73633 0.47269 0.3417 0.0
H2130 H 0.71685 0.46667 0.33002 0.0
H2131 H 0.75424 0.47319 0.32653 0.0
H2132 H 0.74037 0.45609 0.35781 0.0
O2133 O 0.65899 0.50109 0.3164 0.0
O2134 O 0.63759 0.52201 0.35321 0.0
H2135 H 0.70179 0.54342 0.42672 0.0
H2136 H 0.74028 0.54469 0.42887 0.0
C2137 C 0.72158 0.54881 0.41524 0.0
H2138 H 0.72053 0.57174 0.41016 0.0
H2139 H 0.62718 0.56404 0.41243 0.0
O2140 O 0.72033 0.49884 0.28785 0.0
C2141 C 0.63792 0.50355 0.333 0.0
Co2142 Co 0.7637 0.44486 0.56171 0.0
Co2143 Co 0.72985 0.41818 0.61018 0.0
C2144 C 0.70757 0.4192 0.54957 0.0
O2145 O 0.72682 0.43623 0.54141 0.0
O2146 O 0.70682 0.41205 0.57542 0.0
C2147 C 0.77066 0.49231 0.53149 0.0
O2148 O 0.75103 0.50113 0.5491 0.0
C2149 C 0.67524 0.42046 0.63685 0.0
C2150 C 0.67551 0.38582 0.66795 0.0
C2151 C 0.65762 0.40521 0.65483 0.0
N2152 N 0.70182 0.41021 0.63871 0.0
N2153 N 0.70197 0.38976 0.65779 0.0
C2154 C 0.66658 0.44297 0.61628 0.0
H2155 H 0.68541 0.45439 0.60806 0.0
H2156 H 0.65209 0.45826 0.62672 0.0
H2157 H 0.65511 0.43311 0.59828 0.0
C2158 C 0.78227 0.48276 0.60505 0.0
N2159 N 0.76356 0.4634 0.59574 0.0
N2160 N 0.74624 0.45591 0.6159 0.0
C2161 C 0.75143 0.47309 0.63833 0.0
C2162 C 0.77477 0.49096 0.63214 0.0
C2163 C 0.81092 0.4864 0.59169 0.0
H2164 H 0.81695 0.46692 0.58001 0.0
H2165 H 0.81041 0.50431 0.57653 0.0
H2166 H 0.82753 0.49043 0.6078 0.0
O2167 O 0.78256 0.40904 0.56642 0.0
O2168 O 0.76162 0.38764 0.60321 0.0
H2169 H 0.74021 0.45181 0.67671 0.0
H2170 H 0.73894 0.4903 0.67889 0.0
C2171 C 0.73481 0.47161 0.66525 0.0
H2172 H 0.71188 0.47057 0.66018 0.0
H2173 H 0.71958 0.37723 0.66243 0.0
O2174 O 0.78479 0.47037 0.53784 0.0
C2175 C 0.78009 0.38798 0.58301 0.0
Co2176 Co 0.72193 0.83872 0.51992 0.0
Co2177 Co 0.67346 0.8654 0.55377 0.0
C2178 C 0.73406 0.86442 0.57604 0.0
O2179 O 0.74223 0.8474 0.55679 0.0
O2180 O 0.70821 0.87154 0.5768 0.0
C2181 C 0.75216 0.79128 0.51298 0.0
O2182 O 0.73456 0.78247 0.53261 0.0
C2183 C 0.64675 0.86311 0.60836 0.0
C2184 C 0.61567 0.89776 0.60809 0.0
C2185 C 0.62875 0.87833 0.62598 0.0
N2186 N 0.64492 0.87337 0.58178 0.0
N2187 N 0.62585 0.89383 0.58163 0.0
C2188 C 0.66733 0.84061 0.61702 0.0
H2189 H 0.67557 0.8292 0.5982 0.0
H2190 H 0.6569 0.82531 0.63151 0.0
H2191 H 0.68532 0.85048 0.6285 0.0
C2192 C 0.67859 0.8008 0.50138 0.0
N2193 N 0.68791 0.82017 0.52008 0.0
N2194 N 0.66774 0.82767 0.5374 0.0
C2195 C 0.64531 0.81048 0.53223 0.0
C2196 C 0.6515 0.79261 0.5089 0.0
C2197 C 0.69193 0.79716 0.47273 0.0
H2198 H 0.70362 0.81664 0.4667 0.0
H2199 H 0.7071 0.77924 0.47324 0.0
H2200 H 0.67582 0.79312 0.45613 0.0
O2201 O 0.71719 0.87452 0.50103 0.0
O2202 O 0.68041 0.89594 0.52199 0.0
H2203 H 0.60695 0.83178 0.54346 0.0
H2204 H 0.60475 0.7933 0.54471 0.0
C2205 C 0.6184 0.81197 0.54885 0.0
H2206 H 0.62347 0.813 0.57178 0.0
H2207 H 0.62123 0.90638 0.56403 0.0
O2208 O 0.74579 0.8132 0.49883 0.0
C2209 C 0.7006 0.89559 0.5035 0.0
Co2210 Co 0.2219 0.69482 0.51364 0.0
Co2211 Co 0.17339 0.66815 0.47988 0.0
C2212 C 0.23401 0.66908 0.45757 0.0
O2213 O 0.24217 0.68618 0.47675 0.0
O2214 O 0.20816 0.66195 0.45689 0.0
C2215 C 0.25217 0.74224 0.52056 0.0
O2216 O 0.23456 0.75105 0.50093 0.0
C2217 C 0.14675 0.67044 0.42525 0.0
C2218 C 0.11563 0.63583 0.42551 0.0
C2219 C 0.12877 0.65521 0.40762 0.0
N2220 N 0.14487 0.66019 0.45184 0.0
N2221 N 0.12578 0.63976 0.45198 0.0
C2222 C 0.16735 0.69293 0.41661 0.0
H2223 H 0.17558 0.70433 0.43544 0.0
H2224 H 0.15693 0.70824 0.40213 0.0
H2225 H 0.18533 0.68306 0.40513 0.0
C2226 C 0.17859 0.73275 0.53226 0.0
N2227 N 0.18788 0.71339 0.51354 0.0
N2228 N 0.16769 0.70589 0.49624 0.0
C2229 C 0.14526 0.72307 0.50146 0.0
C2230 C 0.15148 0.74094 0.52479 0.0
C2231 C 0.19197 0.73639 0.56089 0.0
H2232 H 0.20366 0.71691 0.5669 0.0
H2233 H 0.20714 0.7543 0.56035 0.0
H2234 H 0.17589 0.74043 0.57751 0.0
O2235 O 0.21718 0.65901 0.53252 0.0
O2236 O 0.18032 0.63763 0.51167 0.0
H2237 H 0.10688 0.70179 0.49029 0.0
H2238 H 0.1047 0.74027 0.48901 0.0
C2239 C 0.11833 0.72158 0.48487 0.0
H2240 H 0.12338 0.72053 0.46194 0.0
H2241 H 0.12111 0.62723 0.46959 0.0
O2242 O 0.2458 0.72032 0.53471 0.0
C2243 C 0.20055 0.63796 0.5301 0.0
Co2244 Co 0.58874 0.97191 0.76359 0.0
Co2245 Co 0.61543 0.9234 0.72983 0.0
C2246 C 0.61448 0.984 0.7075 0.0
O2247 O 0.59741 0.99219 0.7267 0.0
O2248 O 0.62162 0.95815 0.7068 0.0
C2249 C 0.54133 1.0022 0.77047 0.0
O2250 O 0.53252 0.98453 0.75089 0.0
C2251 C 0.61316 0.89673 0.67522 0.0
C2252 C 0.64778 0.86562 0.6755 0.0
C2253 C 0.62839 0.87875 0.6576 0.0
N2254 N 0.6234 0.89487 0.70181 0.0
N2255 N 0.64384 0.87578 0.70196 0.0
C2256 C 0.59066 0.91731 0.66656 0.0
H2257 H 0.57925 0.92555 0.68539 0.0
H2258 H 0.57536 0.90689 0.65208 0.0
H2259 H 0.60053 0.9353 0.65509 0.0
C2260 C 0.55081 0.92859 0.78219 0.0
N2261 N 0.57017 0.93789 0.76347 0.0
N2262 N 0.57768 0.91771 0.74618 0.0
C2263 C 0.56052 0.89527 0.7514 0.0
C2264 C 0.54264 0.90148 0.77472 0.0
C2265 C 0.54716 0.94199 0.81081 0.0
H2266 H 0.56664 0.95368 0.81683 0.0
H2267 H 0.52924 0.95715 0.81027 0.0
H2268 H 0.54312 0.9259 0.82744 0.0
O2269 O 0.62453 0.96717 0.78248 0.0
O2270 O 0.64594 0.93034 0.76162 0.0
H2271 H 0.58182 0.8569 0.74022 0.0
H2272 H 0.54334 0.85469 0.73896 0.0
C2273 C 0.56202 0.86834 0.73481 0.0
H2274 H 0.56306 0.87338 0.71188 0.0
H2275 H 0.65637 0.87113 0.71957 0.0
O2276 O 0.56323 0.99582 0.78464 0.0
C2277 C 0.64559 0.95056 0.78007 0.0
Co2278 Co 0.31171 0.33876 1.01364 0.0
Co2279 Co 0.36023 0.36543 0.97988 0.0
C2280 C 0.2996 0.3645 0.95757 0.0
O2281 O 0.29144 0.3474 0.97675 0.0
O2282 O 0.32546 0.37163 0.95689 0.0
C2283 C 0.28145 0.29134 0.02057 0.0
O2284 O 0.29906 0.28252 1.00094 0.0
C2285 C 0.38686 0.36314 0.92525 0.0
C2286 C 0.41799 0.39775 0.9255 0.0
C2287 C 0.40485 0.37836 0.90762 0.0
N2288 N 0.38874 0.37339 0.95184 0.0
N2289 N 0.40784 0.39382 0.95197 0.0
C2290 C 0.36627 0.34064 0.91661 0.0
H2291 H 0.35803 0.32925 0.93545 0.0
H2292 H 0.37669 0.32533 0.90213 0.0
H2293 H 0.34828 0.35052 0.90514 0.0
C2294 C 0.35503 0.30083 0.03226 0.0
N2295 N 0.34573 0.32019 1.01354 0.0
N2296 N 0.36592 0.32769 0.99624 0.0
C2297 C 0.38835 0.31051 1.00146 0.0
C2298 C 0.38214 0.29264 0.02479 0.0
C2299 C 0.34164 0.29718 0.06089 0.0
H2300 H 0.32995 0.31667 0.0669 0.0
H2301 H 0.32648 0.27927 0.06035 0.0
H2302 H 0.35773 0.29314 0.07751 0.0
O2303 O 0.31644 0.37457 0.03252 0.0
O2304 O 0.3533 0.39595 1.01167 0.0
H2305 H 0.42673 0.3318 0.99028 0.0
H2306 H 0.42892 0.29332 0.98901 0.0
C2307 C 0.41528 0.31201 0.98487 0.0
H2308 H 0.41024 0.31305 0.96193 0.0
H2309 H 0.4125 0.40635 0.96958 0.0
O2310 O 0.28782 0.31326 0.03472 0.0
C2311 C 0.33306 0.39562 0.0301 0.0
Co2312 Co 0.44489 0.56171 0.76365 0.0
Co2313 Co 0.41822 0.6102 0.72986 0.0
C2314 C 0.41916 0.54957 0.70758 0.0
O2315 O 0.43624 0.54142 0.72677 0.0
O2316 O 0.41203 0.57543 0.70687 0.0
C2317 C 0.49231 0.53145 0.77059 0.0
O2318 O 0.50113 0.54904 0.75096 0.0
C2319 C 0.4205 0.63682 0.67522 0.0
C2320 C 0.38587 0.66794 0.67547 0.0
C2321 C 0.40526 0.6548 0.65759 0.0
N2322 N 0.41025 0.63871 0.70181 0.0
N2323 N 0.3898 0.6578 0.70195 0.0
C2324 C 0.44299 0.61624 0.66658 0.0
H2325 H 0.4544 0.60801 0.68542 0.0
H2326 H 0.4583 0.62665 0.6521 0.0
H2327 H 0.43313 0.59824 0.65511 0.0
C2328 C 0.48282 0.60503 0.78224 0.0
N2329 N 0.46346 0.59572 0.76353 0.0
N2330 N 0.45595 0.6159 0.74622 0.0
C2331 C 0.47313 0.63834 0.75143 0.0
C2332 C 0.49101 0.63214 0.77475 0.0
C2333 C 0.48648 0.59166 0.81087 0.0
H2334 H 0.467 0.57997 0.8169 0.0
H2335 H 0.50439 0.5765 0.81034 0.0
H2336 H 0.49052 0.60775 0.82749 0.0
O2337 O 0.40908 0.56644 0.78253 0.0
O2338 O 0.38769 0.60327 0.76164 0.0
H2339 H 0.45182 0.6767 0.74024 0.0
H2340 H 0.4903 0.67892 0.73898 0.0
C2341 C 0.47162 0.66527 0.73483 0.0
H2342 H 0.47059 0.66022 0.7119 0.0
H2343 H 0.37728 0.66246 0.71955 0.0
O2344 O 0.47039 0.53783 0.78474 0.0
C2345 C 0.38802 0.58305 0.7801 0.0
Co2346 Co 0.81169 0.19488 0.01994 0.0
Co2347 Co 0.86016 0.16819 0.05377 0.0
C2348 C 0.79955 0.16917 0.07604 0.0
O2349 O 0.79139 0.1862 0.05681 0.0
O2350 O 0.8254 0.16204 0.0768 0.0
C2351 C 0.78146 0.24232 1.013 0.0
O2352 O 0.79906 0.25113 0.03263 0.0
C2353 C 0.88683 0.17047 0.10838 0.0
C2354 C 0.91794 0.13584 0.10811 0.0
C2355 C 0.90482 0.15524 0.126 0.0
N2356 N 0.88869 0.16021 0.0818 0.0
N2357 N 0.90777 0.13976 0.08165 0.0
C2358 C 0.86626 0.19298 0.11702 0.0
H2359 H 0.85803 0.20438 0.09819 0.0
H2360 H 0.8767 0.20829 0.1315 0.0
H2361 H 0.84828 0.18313 0.12852 0.0
C2362 C 0.85503 0.23279 1.00139 0.0
N2363 N 0.84571 0.21342 0.02009 0.0
N2364 N 0.86588 0.20592 0.03741 0.0
C2365 C 0.88831 0.2231 0.03223 0.0
C2366 C 0.88213 0.24098 1.0089 0.0
C2367 C 0.84169 0.23644 0.97274 0.0
H2368 H 0.83 0.21696 0.96671 0.0
H2369 H 0.82652 0.25435 0.97325 0.0
H2370 H 0.8578 0.24047 0.95614 0.0
O2371 O 0.81642 0.15908 1.00105 0.0
O2372 O 0.85321 0.13766 0.02199 0.0
H2373 H 0.92667 0.2018 0.04346 0.0
H2374 H 0.92888 0.24028 0.04471 0.0
C2375 C 0.91522 0.22161 0.04885 0.0
H2376 H 0.91015 0.22058 0.07178 0.0
H2377 H 0.91241 0.12723 0.06404 0.0
O2378 O 0.78783 0.2204 0.99885 0.0
C2379 C 0.83302 0.13801 1.00351 0.0
Co2380 Co 0.58876 0.06169 0.76999 0.0
Co2381 Co 0.61546 0.11018 0.80376 0.0
C2382 C 0.61447 0.04958 0.82608 0.0
O2383 O 0.59741 0.04141 0.80687 0.0
O2384 O 0.62163 0.07543 0.82679 0.0
C2385 C 0.54131 0.03146 0.76306 0.0
O2386 O 0.53251 0.04908 0.78269 0.0
C2387 C 0.61316 0.13686 0.85837 0.0
C2388 C 0.64779 0.16796 0.85811 0.0
C2389 C 0.62839 0.15484 0.87599 0.0
N2390 N 0.62343 0.13871 0.83179 0.0
N2391 N 0.64387 0.15779 0.83164 0.0
C2392 C 0.59065 0.11628 0.86701 0.0
H2393 H 0.57926 0.10804 0.84818 0.0
H2394 H 0.57534 0.12672 0.88148 0.0
H2395 H 0.60051 0.0983 0.87851 0.0
C2396 C 0.55086 0.10503 0.75138 0.0
N2397 N 0.57022 0.09572 0.7701 0.0
N2398 N 0.57772 0.1159 0.7874 0.0
C2399 C 0.56055 0.13833 0.78218 0.0
C2400 C 0.54268 0.13213 0.75886 0.0
C2401 C 0.54722 0.09165 0.72274 0.0
H2402 H 0.5667 0.07996 0.71673 0.0
H2403 H 0.52931 0.07649 0.72327 0.0
H2404 H 0.54319 0.10775 0.70612 0.0
O2405 O 0.62457 0.0664 0.7511 0.0
O2406 O 0.64598 0.10323 0.77198 0.0
H2407 H 0.58184 0.17671 0.79338 0.0
H2408 H 0.54335 0.17889 0.79466 0.0
C2409 C 0.56204 0.16525 0.79879 0.0
H2410 H 0.56309 0.1602 0.82172 0.0
H2411 H 0.65641 0.16244 0.81404 0.0
O2412 O 0.56324 0.03781 0.74891 0.0
C2413 C 0.64563 0.083 0.75353 0.0
Co2414 Co 0.94487 0.97192 0.26995 0.0
Co2415 Co 0.91818 0.92343 0.30375 0.0
C2416 C 0.91916 0.98403 0.32605 0.0
O2417 O 0.93621 0.99221 0.30683 0.0
O2418 O 0.91201 0.95818 0.32677 0.0
C2419 C 0.99231 1.00216 0.26302 0.0
O2420 O 1.00112 0.98455 0.28265 0.0
C2421 C 0.92047 0.89676 0.35836 0.0
C2422 C 0.88584 0.86565 0.3581 0.0
C2423 C 0.90524 0.87877 0.37598 0.0
N2424 N 0.91021 0.8949 0.33178 0.0
N2425 N 0.88976 0.87582 0.33163 0.0
C2426 C 0.94298 0.91733 0.367 0.0
H2427 H 0.95438 0.92557 0.34817 0.0
H2428 H 0.95829 0.90689 0.38147 0.0
H2429 H 0.93312 0.93531 0.37849 0.0
C2430 C 0.98277 0.92858 0.25136 0.0
N2431 N 0.96342 0.9379 0.27008 0.0
N2432 N 0.95591 0.91772 0.28738 0.0
C2433 C 0.97308 0.89528 0.28217 0.0
C2434 C 0.99096 0.90148 0.25884 0.0
C2435 C 0.98642 0.94196 0.22272 0.0
H2436 H 0.96693 0.95365 0.2167 0.0
H2437 H 1.00433 0.95712 0.22324 0.0
H2438 H 0.99045 0.92586 0.2061 0.0
O2439 O 0.90906 0.9672 0.25107 0.0
O2440 O 0.88765 0.93038 0.27197 0.0
H2441 H 0.95179 0.85691 0.29337 0.0
H2442 H 0.99028 0.85472 0.29464 0.0
C2443 C 0.97159 0.86836 0.29878 0.0
H2444 H 0.97055 0.87342 0.32171 0.0
H2445 H 0.87723 0.87117 0.31403 0.0
O2446 O 0.97038 0.9958 0.24887 0.0
C2447 C 0.888 0.9506 0.25351 0.0
Co2448 Co 0.51362 0.31167 0.19492 0.0
Co2449 Co 0.47982 0.36016 0.16823 0.0
C2450 C 0.45753 0.29955 0.1692 0.0
O2451 O 0.47675 0.29138 0.18624 0.0
O2452 O 0.45679 0.32541 0.16206 0.0
C2453 C 0.52056 0.28142 0.24236 0.0
O2454 O 0.50092 0.29902 0.25117 0.0
C2455 C 0.42522 0.38686 0.17052 0.0
C2456 C 0.4255 0.41795 0.13588 0.0
C2457 C 0.40761 0.40487 0.1553 0.0
N2458 N 0.4518 0.3887 0.16026 0.0
N2459 N 0.45196 0.40777 0.1398 0.0
C2460 C 0.41655 0.36628 0.19301 0.0
H2461 H 0.43538 0.35803 0.20442 0.0
H2462 H 0.40207 0.3767 0.20831 0.0
H2463 H 0.40508 0.3483 0.18313 0.0
C2464 C 0.53217 0.35498 0.23287 0.0
N2465 N 0.51347 0.34568 0.21348 0.0
N2466 N 0.49618 0.36586 0.20598 0.0
C2467 C 0.50137 0.38828 0.22317 0.0
C2468 C 0.52466 0.38207 0.24109 0.0
C2469 C 0.56081 0.34162 0.23652 0.0
H2470 H 0.56684 0.32993 0.21704 0.0
H2471 H 0.56029 0.32647 0.25444 0.0
H2472 H 0.57742 0.35772 0.24055 0.0
O2473 O 0.53252 0.31641 0.15912 0.0
O2474 O 0.51161 0.35321 0.13771 0.0
H2475 H 0.49016 0.42664 0.20184 0.0
H2476 H 0.48893 0.42887 0.24032 0.0
C2477 C 0.48477 0.41521 0.22166 0.0
H2478 H 0.46184 0.41016 0.22065 0.0
H2479 H 0.46957 0.4124 0.12726 0.0
O2480 O 0.5347 0.28779 0.22043 0.0
C2481 C 0.53008 0.33301 0.13806 0.0
Co2482 Co 0.47192 0.76365 0.9449 0.0
Co2483 Co 0.42344 0.72982 0.91821 0.0
C2484 C 0.48405 0.70754 0.91917 0.0
O2485 O 0.49222 0.72679 0.93619 0.0
O2486 O 0.45819 0.70679 0.91205 0.0
C2487 C 0.50216 0.77055 0.99234 0.0
O2488 O 0.48455 0.75092 1.00114 0.0
C2489 C 0.39673 0.67523 0.9205 0.0
C2490 C 0.36565 0.67551 0.88585 0.0
C2491 C 0.37873 0.65762 0.90528 0.0
N2492 N 0.3949 0.70181 0.91024 0.0
N2493 N 0.37583 0.70197 0.88978 0.0
C2494 C 0.41731 0.66656 0.943 0.0
H2495 H 0.42556 0.68539 0.95441 0.0
H2496 H 0.40688 0.65208 0.9583 0.0
H2497 H 0.4353 0.65508 0.93312 0.0
C2498 C 0.42859 0.78219 0.98282 0.0
N2499 N 0.4379 0.76349 0.96346 0.0
N2500 N 0.41773 0.74618 0.95595 0.0
C2501 C 0.3953 0.75137 0.97314 0.0
C2502 C 0.40149 0.77469 0.99102 0.0
C2503 C 0.44195 0.81084 0.98647 0.0
H2504 H 0.45363 0.81687 0.96699 0.0
H2505 H 0.45711 0.81032 1.00438 0.0
H2506 H 0.42584 0.82744 0.99051 0.0
O2507 O 0.46718 0.78256 0.90911 0.0
O2508 O 0.4304 0.76161 0.88769 0.0
H2509 H 0.35693 0.74015 0.95184 0.0
H2510 H 0.35473 0.73889 0.99033 0.0
C2511 C 0.36838 0.73475 0.97164 0.0
H2512 H 0.37345 0.71182 0.97061 0.0
H2513 H 0.37121 0.71957 0.87723 0.0
O2514 O 0.4958 0.78471 0.97042 0.0
C2515 C 0.45058 0.7801 0.88805 0.0
Co2516 Co 0.01998 0.72191 0.69487 0.0
Co2517 Co 0.05379 0.67343 0.66818 0.0
C2518 C 0.07609 0.73403 0.66918 0.0
O2519 O 0.05686 0.74219 0.68622 0.0
O2520 O 0.07682 0.70818 0.66202 0.0
C2521 C 1.01303 0.75213 0.74232 0.0
O2522 O 0.03266 0.73453 0.75113 0.0
C2523 C 0.10839 0.64672 0.67048 0.0
C2524 C 0.10812 0.61563 0.63584 0.0
C2525 C 0.126 0.62871 0.65527 0.0
N2526 N 0.08181 0.64489 0.66021 0.0
N2527 N 0.08166 0.62581 0.63976 0.0
C2528 C 0.11704 0.6673 0.69297 0.0
H2529 H 0.09821 0.67555 0.70438 0.0
H2530 H 0.13153 0.65688 0.70828 0.0
H2531 H 0.12853 0.68529 0.6831 0.0
C2532 C 1.00139 0.67858 0.73278 0.0
N2533 N 0.02011 0.68789 0.71342 0.0
N2534 N 0.03741 0.66771 0.70591 0.0
C2535 C 0.03221 0.64528 0.72309 0.0
C2536 C 1.00888 0.65147 0.74096 0.0
C2537 C 0.97275 0.69194 0.73642 0.0
H2538 H 0.96673 0.70363 0.71694 0.0
H2539 H 0.97327 0.7071 0.75434 0.0
H2540 H 0.95614 0.67584 0.74045 0.0
O2541 O 1.0011 0.71719 0.65906 0.0
O2542 O 0.02201 0.68039 0.63765 0.0
H2543 H 0.04341 0.60691 0.70179 0.0
H2544 H 0.04467 0.6047 0.74027 0.0
C2545 C 0.04882 0.61835 0.72159 0.0
H2546 H 0.07175 0.62341 0.72056 0.0
H2547 H 0.06406 0.62119 0.62721 0.0
O2548 O 0.99889 0.74578 0.72038 0.0
C2549 C 1.00355 0.7006 0.638 0.0
Co2550 Co 0.0617 0.26993 0.44493 0.0
Co2551 Co 0.11018 0.30376 0.41824 0.0
C2552 C 0.04957 0.32603 0.4192 0.0
O2553 O 0.04139 0.30678 0.43621 0.0
O2554 O 0.07543 0.3268 0.41209 0.0
C2555 C 0.03146 0.26302 0.49237 0.0
O2556 O 0.04906 0.28266 0.50117 0.0
C2557 C 0.13688 0.35836 0.42052 0.0
C2558 C 0.16795 0.35808 0.38586 0.0
C2559 C 0.15488 0.37597 0.40529 0.0
N2560 N 0.13872 0.33178 0.41026 0.0
N2561 N 0.15778 0.33162 0.38979 0.0
C2562 C 0.11631 0.36702 0.44302 0.0
H2563 H 0.10807 0.3482 0.45443 0.0
H2564 H 0.12674 0.38151 0.45832 0.0
H2565 H 0.09832 0.3785 0.43315 0.0
C2566 C 0.10504 0.25139 0.48286 0.0
N2567 N 0.09572 0.2701 0.46349 0.0
N2568 N 0.11589 0.28741 0.45598 0.0
C2569 C 0.13832 0.28222 0.47316 0.0
C2570 C 0.13214 0.2589 0.49104 0.0
C2571 C 0.09168 0.22275 0.48651 0.0
H2572 H 0.08 0.21672 0.46703 0.0
H2573 H 0.07652 0.22327 0.50442 0.0
H2574 H 0.10779 0.20614 0.49054 0.0
O2575 O 0.06646 0.25101 0.40915 0.0
O2576 O 0.10322 0.27198 0.38772 0.0
H2577 H 0.17669 0.29344 0.45186 0.0
H2578 H 0.17889 0.2947 0.49034 0.0
C2579 C 0.16524 0.29884 0.47166 0.0
H2580 H 0.16017 0.32177 0.47063 0.0
H2581 H 0.1624 0.31402 0.37725 0.0
O2582 O 0.03783 0.24886 0.47046 0.0
C2583 C 0.08305 0.25348 0.38808 0.0
Co2584 Co 0.51367 0.72189 0.33873 0.0
Co2585 Co 0.47985 0.67341 0.36542 0.0
C2586 C 0.45755 0.73402 0.3644 0.0
O2587 O 0.47678 0.74218 0.34736 0.0
O2588 O 0.45681 0.70817 0.37155 0.0
C2589 C 0.52064 0.75213 0.29129 0.0
O2590 O 0.50101 0.73453 0.28247 0.0
C2591 C 0.42525 0.64671 0.36313 0.0
C2592 C 0.42552 0.61564 0.39778 0.0
C2593 C 0.40763 0.62871 0.37835 0.0
N2594 N 0.45183 0.64488 0.37339 0.0
N2595 N 0.45198 0.62581 0.39385 0.0
C2596 C 0.41659 0.66729 0.34063 0.0
H2597 H 0.43542 0.67552 0.32921 0.0
H2598 H 0.4021 0.65686 0.32533 0.0
H2599 H 0.40512 0.68528 0.35049 0.0
C2600 C 0.53227 0.67856 0.30084 0.0
N2601 N 0.51355 0.68787 0.32019 0.0
N2602 N 0.49624 0.66769 0.32769 0.0
C2603 C 0.50145 0.64526 0.31052 0.0
C2604 C 0.52479 0.65145 0.29265 0.0
C2605 C 0.56091 0.69192 0.29721 0.0
H2606 H 0.56693 0.7036 0.31669 0.0
H2607 H 0.5604 0.70709 0.27929 0.0
H2608 H 0.57753 0.67582 0.29317 0.0
O2609 O 0.53253 0.71718 0.37454 0.0
O2610 O 0.51161 0.68038 0.39596 0.0
H2611 H 0.49025 0.60688 0.3318 0.0
H2612 H 0.48898 0.6047 0.29332 0.0
C2613 C 0.48485 0.61834 0.31201 0.0
H2614 H 0.46191 0.62339 0.31305 0.0
H2615 H 0.46959 0.62119 0.4064 0.0
O2616 O 0.53477 0.74576 0.31323 0.0
C2617 C 0.53008 0.70059 0.39561 0.0
Co2618 Co 0.06168 0.76364 0.08868 0.0
Co2619 Co 0.11018 0.72984 0.11536 0.0
C2620 C 0.04958 0.70755 0.11443 0.0
O2621 O 0.04139 0.72678 0.0974 0.0
O2622 O 0.07544 0.70681 0.12154 0.0
C2623 C 0.03141 0.77053 0.04126 0.0
O2624 O 0.04901 0.7509 0.03245 0.0
C2625 C 0.13688 0.67524 0.11309 0.0
C2626 C 0.16796 0.67552 0.14774 0.0
C2627 C 0.15488 0.65762 0.12832 0.0
N2628 N 0.13872 0.70182 0.12334 0.0
N2629 N 0.15779 0.70198 0.14379 0.0
C2630 C 0.1163 0.66657 0.0906 0.0
H2631 H 0.10806 0.6854 0.07918 0.0
H2632 H 0.12672 0.65208 0.0753 0.0
H2633 H 0.09831 0.6551 0.10047 0.0
C2634 C 0.10499 0.78218 0.05072 0.0
N2635 N 0.09569 0.76348 0.0701 0.0
N2636 N 0.11588 0.74619 0.07761 0.0
C2637 C 0.1383 0.75139 0.06043 0.0
C2638 C 0.13208 0.77468 0.04251 0.0
C2639 C 0.09162 0.81082 0.04707 0.0
H2640 H 0.07992 0.81684 0.06655 0.0
H2641 H 0.07646 0.81029 0.02915 0.0
H2642 H 0.10772 0.82743 0.04305 0.0
O2643 O 0.06644 0.78256 0.12446 0.0
O2644 O 0.10324 0.76163 0.14588 0.0
H2645 H 0.17666 0.7402 0.08176 0.0
H2646 H 0.1789 0.73896 0.04327 0.0
C2647 C 0.16524 0.7348 0.06194 0.0
H2648 H 0.1602 0.71187 0.06296 0.0
H2649 H 0.16242 0.71958 0.15634 0.0
O2650 O 0.03779 0.7847 0.06316 0.0
C2651 C 0.08304 0.78011 0.14552 0.0
Co2652 Co 0.01996 0.31168 0.83872 0.0
Co2653 Co 0.05378 0.36016 0.8654 0.0
C2654 C 0.07608 0.29956 0.8644 0.0
O2655 O 0.05684 0.29139 0.84737 0.0
O2656 O 0.07682 0.32541 0.87154 0.0
C2657 C 1.013 0.28145 0.79129 0.0
O2658 O 0.03264 0.29904 0.78246 0.0
C2659 C 0.10838 0.38687 0.86312 0.0
C2660 C 0.1081 0.41794 0.89777 0.0
C2661 C 0.12599 0.40487 0.87834 0.0
N2662 N 0.0818 0.3887 0.87337 0.0
N2663 N 0.08164 0.40777 0.89384 0.0
C2664 C 0.11705 0.36629 0.84062 0.0
H2665 H 0.09822 0.35806 0.8292 0.0
H2666 H 0.13154 0.37672 0.82533 0.0
H2667 H 0.12852 0.3483 0.85049 0.0
C2668 C 1.00138 0.35502 0.80081 0.0
N2669 N 0.02009 0.3457 0.82017 0.0
N2670 N 0.0374 0.36588 0.82767 0.0
C2671 C 0.0322 0.38831 0.8105 0.0
C2672 C 1.00887 0.38212 0.79263 0.0
C2673 C 0.97274 0.34165 0.79717 0.0
H2674 H 0.96672 0.32997 0.81666 0.0
H2675 H 0.97325 0.32649 0.77926 0.0
H2676 H 0.95612 0.35776 0.79314 0.0
O2677 O 1.00109 0.31641 0.87453 0.0
O2678 O 0.02202 0.3532 0.89594 0.0
H2679 H 0.0434 0.42668 0.8318 0.0
H2680 H 0.04466 0.42889 0.79331 0.0
C2681 C 0.0488 0.41524 0.81199 0.0
H2682 H 0.07173 0.41018 0.81302 0.0
H2683 H 0.06403 0.41239 0.90638 0.0
O2684 O 0.99887 0.28781 0.81322 0.0
C2685 C 1.00355 0.333 0.8956 0.0
Co2686 Co 0.47194 0.26994 0.58867 0.0
Co2687 Co 0.42345 0.30375 0.61535 0.0
C2688 C 0.48405 0.32604 0.61442 0.0
O2689 O 0.49224 0.3068 0.5974 0.0
O2690 O 0.45819 0.32679 0.62152 0.0
C2691 C 0.50222 0.26305 0.54126 0.0
O2692 O 0.48462 0.28268 0.53244 0.0
C2693 C 0.39675 0.35835 0.61308 0.0
C2694 C 0.36568 0.35807 0.64774 0.0
C2695 C 0.37875 0.37597 0.62832 0.0
N2696 N 0.39491 0.33177 0.62333 0.0
N2697 N 0.37584 0.33161 0.6438 0.0
C2698 C 0.41733 0.36702 0.59059 0.0
H2699 H 0.42556 0.3482 0.57916 0.0
H2700 H 0.4069 0.38152 0.57529 0.0
H2701 H 0.43532 0.37849 0.60046 0.0
C2702 C 0.42863 0.25141 0.55072 0.0
N2703 N 0.43794 0.27011 0.5701 0.0
N2704 N 0.41775 0.2874 0.57761 0.0
C2705 C 0.39532 0.28221 0.56042 0.0
C2706 C 0.40154 0.25891 0.5425 0.0
C2707 C 0.442 0.22277 0.54707 0.0
H2708 H 0.45369 0.21675 0.56655 0.0
H2709 H 0.45716 0.2233 0.52915 0.0
H2710 H 0.4259 0.20616 0.54304 0.0
O2711 O 0.46718 0.25102 0.62445 0.0
O2712 O 0.43039 0.27197 0.64588 0.0
H2713 H 0.35697 0.2934 0.58176 0.0
H2714 H 0.35473 0.29464 0.54327 0.0
C2715 C 0.36839 0.2988 0.56194 0.0
H2716 H 0.37344 0.32173 0.56295 0.0
H2717 H 0.37122 0.31401 0.65634 0.0
O2718 O 0.49583 0.24888 0.56316 0.0
C2719 C 0.45058 0.25348 0.64552 0.0
Co2720 Co 0.19488 0.51357 0.31167 0.0
Co2721 Co 0.16819 0.47982 0.3602 0.0
C2722 C 0.16914 0.45749 0.2996 0.0
O2723 O 0.18621 0.47668 0.29141 0.0
O2724 O 0.16198 0.45681 0.32545 0.0
C2725 C 0.2423 0.52045 0.28139 0.0
O2726 O 0.25109 0.50087 0.29907 0.0
C2727 C 0.17047 0.42521 0.38687 0.0
C2728 C 0.13586 0.42549 0.418 0.0
C2729 C 0.15524 0.4076 0.40486 0.0
N2730 N 0.16023 0.4518 0.38874 0.0
N2731 N 0.13979 0.45196 0.40784 0.0
C2732 C 0.19296 0.41655 0.36628 0.0
H2733 H 0.20437 0.43538 0.35804 0.0
H2734 H 0.20826 0.40206 0.3767 0.0
H2735 H 0.18308 0.40508 0.3483 0.0
C2736 C 0.23283 0.53216 0.35497 0.0
N2737 N 0.21345 0.51345 0.34569 0.0
N2738 N 0.20595 0.49617 0.36589 0.0
C2739 C 0.22313 0.50139 0.38831 0.0
C2740 C 0.24105 0.52468 0.38207 0.0
C2741 C 0.23649 0.56078 0.34157 0.0
H2742 H 0.21702 0.5668 0.32987 0.0
H2743 H 0.25442 0.56023 0.32642 0.0
H2744 H 0.24052 0.57741 0.35766 0.0
O2745 O 0.15908 0.53247 0.31641 0.0
O2746 O 0.13768 0.51162 0.35327 0.0
H2747 H 0.20182 0.49022 0.42668 0.0
H2748 H 0.2403 0.48897 0.4289 0.0
C2749 C 0.22163 0.48481 0.41525 0.0
H2750 H 0.2206 0.46187 0.41021 0.0
H2751 H 0.12727 0.46957 0.41249 0.0
O2752 O 0.22038 0.53461 0.28776 0.0
C2753 C 0.13803 0.53006 0.33303 0.0
Co2754 Co 0.27003 0.4449 0.06168 0.0
Co2755 Co 0.30376 0.41821 0.11022 0.0
C2756 C 0.32611 0.41915 0.04962 0.0
O2757 O 0.30692 0.43622 0.04142 0.0
O2758 O 0.32679 0.412 0.07547 0.0
C2759 C 0.26317 0.49231 0.03139 0.0
O2760 O 0.28275 0.50111 0.04907 0.0
C2761 C 0.35837 0.42047 0.13689 0.0
C2762 C 0.35808 0.38585 0.16801 0.0
C2763 C 0.37598 0.40523 0.15487 0.0
N2764 N 0.33178 0.41024 0.13875 0.0
N2765 N 0.33162 0.3898 0.15784 0.0
C2766 C 0.36703 0.44296 0.1163 0.0
H2767 H 0.34821 0.45438 0.10806 0.0
H2768 H 0.38152 0.45827 0.12673 0.0
H2769 H 0.37851 0.43309 0.09832 0.0
C2770 C 0.25144 0.48286 0.10498 0.0
N2771 N 0.27015 0.46348 0.09569 0.0
N2772 N 0.28742 0.45596 0.11589 0.0
C2773 C 0.2822 0.47315 0.13832 0.0
C2774 C 0.25891 0.49107 0.13208 0.0
C2775 C 0.22282 0.48652 0.09157 0.0
H2776 H 0.2168 0.46705 0.07987 0.0
H2777 H 0.22337 0.50444 0.07642 0.0
H2778 H 0.20618 0.49055 0.10765 0.0
O2779 O 0.25112 0.40911 0.06642 0.0
O2780 O 0.27196 0.38771 0.10328 0.0
H2781 H 0.29336 0.45183 0.17668 0.0
H2782 H 0.29461 0.49031 0.17891 0.0
C2783 C 0.29877 0.47164 0.16526 0.0
H2784 H 0.32171 0.47062 0.16023 0.0
H2785 H 0.31401 0.37728 0.1625 0.0
O2786 O 0.249 0.47041 0.03776 0.0
C2787 C 0.25352 0.38806 0.08304 0.0
Co2788 Co 0.33872 0.52003 0.81168 0.0
Co2789 Co 0.3654 0.55376 0.86021 0.0
C2790 C 0.36449 0.57609 0.7996 0.0
O2791 O 0.34742 0.55691 0.79141 0.0
O2792 O 0.37163 0.57678 0.82546 0.0
C2793 C 0.29132 0.51316 0.78138 0.0
O2794 O 0.28252 0.53274 0.79905 0.0
C2795 C 0.36314 0.60838 0.88687 0.0
C2796 C 0.39775 0.60809 0.918 0.0
C2797 C 0.37837 0.62599 0.90486 0.0
N2798 N 0.37337 0.58179 0.88874 0.0
N2799 N 0.39381 0.58163 0.90784 0.0
C2800 C 0.34065 0.61704 0.86628 0.0
H2801 H 0.32924 0.59821 0.85804 0.0
H2802 H 0.32534 0.63153 0.8767 0.0
H2803 H 0.35053 0.62851 0.8483 0.0
C2804 C 0.30076 0.50145 0.85497 0.0
N2805 N 0.32014 0.52015 0.84569 0.0
N2806 N 0.32765 0.53742 0.86589 0.0
C2807 C 0.31046 0.53221 0.88831 0.0
C2808 C 0.29254 0.50892 0.88207 0.0
C2809 C 0.2971 0.47282 0.84157 0.0
H2810 H 0.31658 0.46681 0.82987 0.0
H2811 H 0.27918 0.47337 0.82642 0.0
H2812 H 0.29307 0.45619 0.85765 0.0
O2813 O 0.37451 0.50111 0.81643 0.0
O2814 O 0.39591 0.52196 0.85328 0.0
H2815 H 0.33179 0.54337 0.92668 0.0
H2816 H 0.2933 0.54462 0.92891 0.0
C2817 C 0.31197 0.54878 0.91525 0.0
H2818 H 0.313 0.57172 0.91022 0.0
H2819 H 0.40633 0.56402 0.9125 0.0
O2820 O 0.31322 0.49899 0.78776 0.0
C2821 C 0.39556 0.50351 0.83306 0.0
Co2822 Co 0.26358 0.58868 0.56168 0.0
Co2823 Co 0.22986 0.61537 0.61022 0.0
C2824 C 0.20751 0.61443 0.54962 0.0
O2825 O 0.22669 0.59735 0.54142 0.0
O2826 O 0.20684 0.62159 0.57547 0.0
C2827 C 0.27044 0.54126 0.53139 0.0
O2828 O 0.25087 0.53247 0.54907 0.0
C2829 C 0.17525 0.6131 0.63688 0.0
C2830 C 0.17552 0.64773 0.66799 0.0
C2831 C 0.15763 0.62835 0.65486 0.0
N2832 N 0.20184 0.62334 0.63875 0.0
N2833 N 0.20199 0.64378 0.65784 0.0
C2834 C 0.16659 0.59061 0.6163 0.0
H2835 H 0.18542 0.5792 0.60806 0.0
H2836 H 0.1521 0.57531 0.62672 0.0
H2837 H 0.15512 0.60048 0.59831 0.0
C2838 C 0.28219 0.55073 0.60497 0.0
N2839 N 0.26348 0.5701 0.59569 0.0
N2840 N 0.24621 0.57761 0.6159 0.0
C2841 C 0.25144 0.56044 0.63832 0.0
C2842 C 0.27473 0.54252 0.63208 0.0
C2843 C 0.31081 0.54706 0.59156 0.0
H2844 H 0.31682 0.56654 0.57985 0.0
H2845 H 0.31025 0.52914 0.57641 0.0
H2846 H 0.32745 0.54304 0.60763 0.0
O2847 O 0.28249 0.62447 0.56641 0.0
O2848 O 0.26166 0.64587 0.60328 0.0
H2849 H 0.24028 0.58176 0.67669 0.0
H2850 H 0.23904 0.54328 0.67892 0.0
C2851 C 0.23487 0.56195 0.66527 0.0
H2852 H 0.21193 0.56297 0.66025 0.0
H2853 H 0.2196 0.6563 0.66249 0.0
O2854 O 0.28461 0.56317 0.53775 0.0
C2855 C 0.28009 0.64552 0.58304 0.0
Co2856 Co 0.19488 0.51996 0.2219 0.0
Co2857 Co 0.16819 0.55377 0.17342 0.0
C2858 C 0.16916 0.57606 0.23403 0.0
O2859 O 0.1862 0.55683 0.2422 0.0
O2860 O 0.16202 0.5768 0.20818 0.0
C2861 C 0.24233 0.51303 0.25213 0.0
O2862 O 0.25113 0.53267 0.23452 0.0
C2863 C 0.17045 0.60838 0.14675 0.0
C2864 C 0.13583 0.6081 0.11563 0.0
C2865 C 0.15522 0.626 0.12876 0.0
N2866 N 0.16021 0.5818 0.14489 0.0
N2867 N 0.13976 0.58164 0.1258 0.0
C2868 C 0.19296 0.61704 0.16732 0.0
H2869 H 0.20437 0.59821 0.17556 0.0
H2870 H 0.20826 0.63152 0.15689 0.0
H2871 H 0.18309 0.62852 0.18531 0.0
C2872 C 0.23279 0.50139 0.17857 0.0
N2873 N 0.21343 0.5201 0.18788 0.0
N2874 N 0.20593 0.53741 0.16771 0.0
C2875 C 0.22311 0.53222 0.14527 0.0
C2876 C 0.24098 0.50889 0.15147 0.0
C2877 C 0.23644 0.47275 0.19193 0.0
H2878 H 0.21695 0.46673 0.20362 0.0
H2879 H 0.25435 0.47327 0.20709 0.0
H2880 H 0.24047 0.45614 0.17582 0.0
O2881 O 0.15909 0.50106 0.21717 0.0
O2882 O 0.13766 0.52198 0.18038 0.0
H2883 H 0.20181 0.54342 0.1069 0.0
H2884 H 0.2403 0.54469 0.10471 0.0
C2885 C 0.22161 0.54883 0.11835 0.0
H2886 H 0.22057 0.57176 0.12341 0.0
H2887 H 0.12724 0.56403 0.12116 0.0
O2888 O 0.2204 0.49889 0.24577 0.0
C2889 C 0.13802 0.50351 0.20058 0.0
Co2890 Co 0.26365 0.4449 0.97191 0.0
Co2891 Co 0.22984 0.4182 0.92343 0.0
C2892 C 0.20755 0.41921 0.98404 0.0
O2893 O 0.22678 0.43624 0.9922 0.0
O2894 O 0.20681 0.41206 0.95819 0.0
C2895 C 0.27059 0.49235 1.00213 0.0
O2896 O 0.25096 0.50116 0.98452 0.0
C2897 C 0.17523 0.42046 0.89675 0.0
C2898 C 0.17552 0.38583 0.86566 0.0
C2899 C 0.15762 0.40522 0.87877 0.0
N2900 N 0.20182 0.41022 0.8949 0.0
N2901 N 0.20198 0.38977 0.87582 0.0
C2902 C 0.16657 0.44297 0.91732 0.0
H2903 H 0.1854 0.45439 0.92555 0.0
H2904 H 0.15208 0.45826 0.90688 0.0
H2905 H 0.15509 0.43311 0.93531 0.0
C2906 C 0.28223 0.4828 0.92857 0.0
N2907 N 0.26352 0.46344 0.93788 0.0
N2908 N 0.24621 0.45594 0.91771 0.0
C2909 C 0.2514 0.47312 0.89527 0.0
C2910 C 0.27473 0.49099 0.90147 0.0
C2911 C 0.31087 0.48645 0.94192 0.0
H2912 H 0.31689 0.46697 0.95361 0.0
H2913 H 0.31035 0.50436 0.95709 0.0
H2914 H 0.32748 0.49048 0.92582 0.0
O2915 O 0.28254 0.4091 0.96719 0.0
O2916 O 0.26162 0.38767 0.9304 0.0
H2917 H 0.24019 0.45182 0.8569 0.0
H2918 H 0.23892 0.49031 0.85471 0.0
C2919 C 0.23479 0.47162 0.86836 0.0
H2920 H 0.21186 0.47058 0.87342 0.0
H2921 H 0.21959 0.37724 0.87118 0.0
O2922 O 0.28473 0.47042 0.99577 0.0
C2923 C 0.28009 0.38803 0.9506 0.0
Co2924 Co 0.33876 0.51363 0.72191 0.0
Co2925 Co 0.36546 0.47982 0.67343 0.0
C2926 C 0.36445 0.45752 0.73404 0.0
O2927 O 0.34741 0.47675 0.7422 0.0
O2928 O 0.37161 0.45679 0.70819 0.0
C2929 C 0.2913 0.52058 0.75212 0.0
O2930 O 0.2825 0.50095 0.73451 0.0
C2931 C 0.36319 0.42521 0.64675 0.0
C2932 C 0.39781 0.42549 0.61564 0.0
C2933 C 0.37842 0.40759 0.62876 0.0
N2934 N 0.37344 0.45179 0.6449 0.0
N2935 N 0.39388 0.45195 0.62581 0.0
C2936 C 0.34068 0.41655 0.66733 0.0
H2937 H 0.32927 0.43538 0.67557 0.0
H2938 H 0.32538 0.40207 0.6569 0.0
H2939 H 0.35055 0.40507 0.68532 0.0
C2940 C 0.30086 0.53221 0.67856 0.0
N2941 N 0.32022 0.5135 0.68788 0.0
N2942 N 0.32772 0.49619 0.66771 0.0
C2943 C 0.31054 0.50138 0.64527 0.0
C2944 C 0.29266 0.52471 0.65147 0.0
C2945 C 0.29721 0.56085 0.69192 0.0
H2946 H 0.31669 0.56688 0.70361 0.0
H2947 H 0.2793 0.56034 0.70709 0.0
H2948 H 0.29318 0.57746 0.67581 0.0
O2949 O 0.37456 0.5325 0.71719 0.0
O2950 O 0.39599 0.51159 0.68039 0.0
H2951 H 0.33182 0.49017 0.6069 0.0
H2952 H 0.29334 0.48889 0.60472 0.0
C2953 C 0.31203 0.48476 0.61836 0.0
H2954 H 0.31308 0.46183 0.62343 0.0
H2955 H 0.4064 0.46956 0.62116 0.0
O2956 O 0.31324 0.53471 0.74577 0.0
C2957 C 0.39564 0.53005 0.7006 0.0
Co2958 Co 0.26996 0.58868 0.4719 0.0
Co2959 Co 0.30377 0.61538 0.42342 0.0
C2960 C 0.32607 0.61437 0.48403 0.0
O2961 O 0.30684 0.59733 0.49219 0.0
O2962 O 0.3268 0.62152 0.45818 0.0
C2963 C 0.26302 0.54123 0.50213 0.0
O2964 O 0.28265 0.53242 0.48452 0.0
C2965 C 0.35839 0.61312 0.39675 0.0
C2966 C 0.35811 0.64776 0.36566 0.0
C2967 C 0.37601 0.62836 0.37878 0.0
N2968 N 0.3318 0.62336 0.39489 0.0
N2969 N 0.33165 0.64382 0.37582 0.0
C2970 C 0.36704 0.59061 0.41732 0.0
H2971 H 0.34822 0.57919 0.42554 0.0
H2972 H 0.38154 0.57531 0.40688 0.0
H2973 H 0.37852 0.60046 0.43531 0.0
C2974 C 0.25138 0.55078 0.42856 0.0
N2975 N 0.27009 0.57014 0.43788 0.0
N2976 N 0.2874 0.57765 0.4177 0.0
C2977 C 0.2822 0.56047 0.39526 0.0
C2978 C 0.25887 0.5426 0.40146 0.0
C2979 C 0.22274 0.54714 0.44193 0.0
H2980 H 0.21672 0.56662 0.45362 0.0
H2981 H 0.22326 0.52922 0.45709 0.0
H2982 H 0.20613 0.54311 0.42583 0.0
O2983 O 0.25108 0.62448 0.46719 0.0
O2984 O 0.272 0.64591 0.43039 0.0
H2985 H 0.2934 0.58177 0.35689 0.0
H2986 H 0.29467 0.54329 0.3547 0.0
C2987 C 0.29881 0.56197 0.36834 0.0
H2988 H 0.32174 0.56301 0.3734 0.0
H2989 H 0.31404 0.65634 0.37117 0.0
O2990 O 0.24888 0.56316 0.49577 0.0
C2991 C 0.25353 0.64556 0.4506 0.0
Co2992 Co 0.3117 0.1949 0.51365 0.0
Co2993 Co 0.36017 0.1682 0.47983 0.0
C2994 C 0.29957 0.16919 0.45754 0.0
O2995 O 0.2914 0.18622 0.47678 0.0
O2996 O 0.32542 0.16205 0.45679 0.0
C2997 C 0.28148 0.24236 0.52058 0.0
O2998 O 0.29909 0.25116 0.50095 0.0
C2999 C 0.38688 0.17049 0.42524 0.0
C3000 C 0.41796 0.13583 0.42552 0.0
C3001 C 0.40488 0.15526 0.40763 0.0
N3002 N 0.38871 0.16023 0.45182 0.0
N3003 N 0.40778 0.13976 0.45198 0.0
C3004 C 0.36631 0.19299 0.41658 0.0
H3005 H 0.35807 0.2044 0.4354 0.0
H3006 H 0.37674 0.20829 0.40209 0.0
H3007 H 0.34832 0.18312 0.4051 0.0
C3008 C 0.35504 0.23282 0.5322 0.0
N3009 N 0.34572 0.21345 0.5135 0.0
N3010 N 0.36589 0.20594 0.49619 0.0
C3011 C 0.38832 0.22312 0.50137 0.0
C3012 C 0.38214 0.241 0.52469 0.0
C3013 C 0.34169 0.23647 0.56085 0.0
H3014 H 0.32999 0.217 0.56688 0.0
H3015 H 0.32653 0.25439 0.56033 0.0
H3016 H 0.3578 0.2405 0.57745 0.0
O3017 O 0.31643 0.15911 0.53255 0.0
O3018 O 0.35321 0.13768 0.51161 0.0
H3019 H 0.42668 0.20181 0.49014 0.0
H3020 H 0.4289 0.24029 0.48889 0.0
C3021 C 0.41524 0.22162 0.48475 0.0
H3022 H 0.41017 0.2206 0.46182 0.0
H3023 H 0.4124 0.12721 0.46958 0.0
O3024 O 0.28783 0.22043 0.53473 0.0
C3025 C 0.33302 0.13804 0.53009 0.0
Co3026 Co 0.81171 0.3387 0.51995 0.0
Co3027 Co 0.8602 0.36539 0.55376 0.0
C3028 C 0.79959 0.36443 0.57605 0.0
O3029 O 0.79141 0.34741 0.55681 0.0
O3030 O 0.82545 0.37155 0.57679 0.0
C3031 C 0.78144 0.29129 0.51304 0.0
O3032 O 0.79903 0.28247 0.53268 0.0
C3033 C 0.88687 0.36312 0.60838 0.0
C3034 C 0.91796 0.39776 0.6081 0.0
C3035 C 0.90484 0.37837 0.626 0.0
N3036 N 0.88873 0.37337 0.58179 0.0
N3037 N 0.9078 0.39382 0.58164 0.0
C3038 C 0.8663 0.34061 0.61703 0.0
H3039 H 0.85807 0.3292 0.5982 0.0
H3040 H 0.87674 0.32531 0.63151 0.0
H3041 H 0.84831 0.35046 0.62852 0.0
C3042 C 0.85504 0.30078 0.50139 0.0
N3043 N 0.84573 0.32014 0.5201 0.0
N3044 N 0.86591 0.32765 0.5374 0.0
C3045 C 0.88835 0.31048 0.5322 0.0
C3046 C 0.88215 0.2926 0.50887 0.0
C3047 C 0.84167 0.29713 0.47275 0.0
H3048 H 0.82998 0.31661 0.46673 0.0
H3049 H 0.8265 0.27922 0.47328 0.0
H3050 H 0.85777 0.29309 0.45614 0.0
O3051 O 0.81646 0.37449 0.50104 0.0
O3052 O 0.85325 0.39591 0.52198 0.0
H3053 H 0.92671 0.33179 0.54338 0.0
H3054 H 0.92892 0.29331 0.54465 0.0
C3055 C 0.91527 0.31199 0.54879 0.0
H3056 H 0.91022 0.31303 0.57173 0.0
H3057 H 0.91244 0.40635 0.56403 0.0
O3058 O 0.78783 0.31319 0.49887 0.0
C3059 C 0.83306 0.39555 0.50349 0.0
Co3060 Co 0.44489 0.06167 0.27001 0.0
Co3061 Co 0.4182 0.11017 0.30379 0.0
C3062 C 0.41916 0.04957 0.3261 0.0
O3063 O 0.43621 0.04139 0.30689 0.0
O3064 O 0.41201 0.07543 0.32682 0.0
C3065 C 0.4923 0.03139 0.26313 0.0
O3066 O 0.50111 0.04906 0.2827 0.0
C3067 C 0.42047 0.13685 0.35839 0.0
C3068 C 0.38585 0.16797 0.35811 0.0
C3069 C 0.40524 0.15484 0.376 0.0
N3070 N 0.41023 0.13871 0.3318 0.0
N3071 N 0.38979 0.1578 0.33164 0.0
C3072 C 0.44297 0.11627 0.36705 0.0
H3073 H 0.45438 0.10803 0.34822 0.0
H3074 H 0.45827 0.1267 0.38153 0.0
H3075 H 0.4331 0.09828 0.37853 0.0
C3076 C 0.48281 0.10499 0.25142 0.0
N3077 N 0.46345 0.09568 0.27014 0.0
N3078 N 0.45594 0.11587 0.28743 0.0
C3079 C 0.47312 0.1383 0.28222 0.0
C3080 C 0.49099 0.13209 0.2589 0.0
C3081 C 0.48646 0.0916 0.22279 0.0
H3082 H 0.46698 0.07991 0.21677 0.0
H3083 H 0.50437 0.07644 0.22333 0.0
H3084 H 0.4905 0.10769 0.20617 0.0
O3085 O 0.4091 0.06641 0.25111 0.0
O3086 O 0.38769 0.10324 0.272 0.0
H3087 H 0.45182 0.17667 0.29342 0.0
H3088 H 0.49031 0.17887 0.29468 0.0
C3089 C 0.47162 0.16522 0.29882 0.0
H3090 H 0.47059 0.16017 0.32176 0.0
H3091 H 0.37726 0.16245 0.31403 0.0
O3092 O 0.4704 0.03776 0.24896 0.0
C3093 C 0.38804 0.08302 0.25354 0.0
Co3094 Co 0.72192 0.69492 0.01993 0.0
Co3095 Co 0.67344 0.66823 0.05376 0.0
C3096 C 0.73405 0.6692 0.07604 0.0
O3097 O 0.74222 0.68622 0.0568 0.0
O3098 O 0.70819 0.66208 0.07679 0.0
C3099 C 0.75219 0.74233 1.01301 0.0
O3100 O 0.73459 0.75115 0.03265 0.0
C3101 C 0.64676 0.67051 0.10837 0.0
C3102 C 0.61568 0.63586 0.10811 0.0
C3103 C 0.62879 0.65526 0.126 0.0
N3104 N 0.64491 0.66026 0.08179 0.0
N3105 N 0.62584 0.6398 0.08164 0.0
C3106 C 0.66733 0.69302 0.11702 0.0
H3107 H 0.67556 0.70443 0.09819 0.0
H3108 H 0.65689 0.70832 0.1315 0.0
H3109 H 0.68532 0.68317 0.12851 0.0
C3110 C 0.67859 0.73284 1.00138 0.0
N3111 N 0.6879 0.71348 0.02009 0.0
N3112 N 0.66772 0.70597 0.0374 0.0
C3113 C 0.64528 0.72314 0.03219 0.0
C3114 C 0.65148 0.74102 1.00886 0.0
C3115 C 0.69195 0.73648 0.97274 0.0
H3116 H 0.70364 0.717 0.96671 0.0
H3117 H 0.70712 0.7544 0.97326 0.0
H3118 H 0.67585 0.74052 0.95613 0.0
O3119 O 0.71716 0.65913 1.00103 0.0
O3120 O 0.68038 0.6377 0.02199 0.0
H3121 H 0.60692 0.70183 0.04339 0.0
H3122 H 0.60471 0.74031 0.04465 0.0
C3123 C 0.61836 0.72163 0.04879 0.0
H3124 H 0.62341 0.7206 0.07173 0.0
H3125 H 0.62119 0.62727 0.06404 0.0
O3126 O 0.7458 0.72042 0.99885 0.0
C3127 C 0.70057 0.63806 1.00349 0.0
Co3128 Co 0.58868 0.4719 0.26992 0.0
Co3129 Co 0.61535 0.42344 0.30378 0.0
C3130 C 0.61438 0.48406 0.32603 0.0
O3131 O 0.59738 0.49223 0.30677 0.0
O3132 O 0.62149 0.4582 0.32681 0.0
C3133 C 0.54125 0.50216 0.26298 0.0
O3134 O 0.53243 0.48458 0.28262 0.0
C3135 C 0.61309 0.39678 0.3584 0.0
C3136 C 0.64774 0.3657 0.35814 0.0
C3137 C 0.62834 0.37881 0.37603 0.0
N3138 N 0.62334 0.39492 0.33182 0.0
N3139 N 0.6438 0.37585 0.33167 0.0
C3140 C 0.59057 0.41734 0.36705 0.0
H3141 H 0.57915 0.42556 0.34822 0.0
H3142 H 0.57527 0.4069 0.38154 0.0
H3143 H 0.60042 0.43534 0.37853 0.0
C3144 C 0.55075 0.42857 0.2514 0.0
N3145 N 0.57011 0.43789 0.2701 0.0
N3146 N 0.57762 0.41772 0.28742 0.0
C3147 C 0.56044 0.39529 0.28223 0.0
C3148 C 0.54256 0.40147 0.25891 0.0
C3149 C 0.5471 0.44191 0.22275 0.0
H3150 H 0.56658 0.45359 0.21671 0.0
H3151 H 0.52919 0.45708 0.22326 0.0
H3152 H 0.54306 0.4258 0.20615 0.0
O3153 O 0.62446 0.46714 0.25101 0.0
O3154 O 0.64589 0.43039 0.272 0.0
H3155 H 0.58176 0.35693 0.29345 0.0
H3156 H 0.54328 0.35471 0.29471 0.0
C3157 C 0.56195 0.36837 0.29885 0.0
H3158 H 0.56297 0.37343 0.32178 0.0
H3159 H 0.65633 0.37121 0.31406 0.0
O3160 O 0.56316 0.49577 0.24882 0.0
C3161 C 0.64553 0.45056 0.25349 0.0
Co3162 Co 0.22193 0.8387 1.01365 0.0
Co3163 Co 0.17346 0.8654 0.97983 0.0
C3164 C 0.23406 0.8644 0.95755 0.0
O3165 O 0.24222 0.84736 0.97678 0.0
O3166 O 0.20821 0.87155 0.9568 0.0
C3167 C 0.25214 0.79124 0.02059 0.0
O3168 O 0.23454 0.78244 1.00096 0.0
C3169 C 0.14678 0.86313 0.92523 0.0
C3170 C 0.11566 0.89775 0.92551 0.0
C3171 C 0.12879 0.87836 0.90762 0.0
N3172 N 0.14493 0.87338 0.95181 0.0
N3173 N 0.12584 0.89382 0.95197 0.0
C3174 C 0.16735 0.84062 0.91657 0.0
H3175 H 0.17559 0.82921 0.9354 0.0
H3176 H 0.15691 0.82532 0.90209 0.0
H3177 H 0.18534 0.85048 0.90509 0.0
C3178 C 0.17858 0.80078 0.03221 0.0
N3179 N 0.1879 0.82015 1.01351 0.0
N3180 N 0.16774 0.82766 0.99619 0.0
C3181 C 0.1453 0.81048 1.00137 0.0
C3182 C 0.15149 0.7926 0.0247 0.0
C3183 C 0.19194 0.79713 0.06085 0.0
H3184 H 0.20363 0.8166 0.06688 0.0
H3185 H 0.20709 0.77921 0.06033 0.0
H3186 H 0.17582 0.7931 0.07746 0.0
O3187 O 0.21721 0.87449 0.03254 0.0
O3188 O 0.18042 0.89592 1.01161 0.0
H3189 H 0.10694 0.83179 0.99015 0.0
H3190 H 0.10473 0.79331 0.98889 0.0
C3191 C 0.11839 0.81198 0.98476 0.0
H3192 H 0.12345 0.81301 0.96183 0.0
H3193 H 0.12119 0.90635 0.96958 0.0
O3194 O 0.24579 0.81317 0.03473 0.0
C3195 C 0.20062 0.89557 0.03009 0.0
Co3196 Co 0.44486 0.97191 0.26363 0.0
Co3197 Co 0.41817 0.92341 0.22985 0.0
C3198 C 0.41915 0.98401 0.20754 0.0
O3199 O 0.43621 0.99218 0.22675 0.0
O3200 O 0.412 0.95816 0.20682 0.0
C3201 C 0.49232 1.00213 0.27055 0.0
O3202 O 0.50112 0.98451 0.25093 0.0
C3203 C 0.42046 0.89673 0.17525 0.0
C3204 C 0.38585 0.86561 0.17552 0.0
C3205 C 0.40524 0.87874 0.15763 0.0
N3206 N 0.4102 0.89488 0.20183 0.0
N3207 N 0.38977 0.87579 0.20198 0.0
C3208 C 0.44296 0.91731 0.16659 0.0
H3209 H 0.45436 0.92556 0.18542 0.0
H3210 H 0.45827 0.90688 0.15211 0.0
H3211 H 0.43309 0.9353 0.1551 0.0
C3212 C 0.48277 0.92857 0.28223 0.0
N3213 N 0.46341 0.93788 0.26352 0.0
N3214 N 0.45591 0.9177 0.24621 0.0
C3215 C 0.47309 0.89527 0.25142 0.0
C3216 C 0.49096 0.90147 0.27475 0.0
C3217 C 0.4864 0.94194 0.31087 0.0
H3218 H 0.46692 0.95364 0.31688 0.0
H3219 H 0.50431 0.95711 0.31035 0.0
H3220 H 0.49043 0.92585 0.32749 0.0
O3221 O 0.40906 0.96719 0.28252 0.0
O3222 O 0.38765 0.93037 0.26163 0.0
H3223 H 0.45182 0.85689 0.24021 0.0
H3224 H 0.4903 0.85472 0.23894 0.0
C3225 C 0.47161 0.86835 0.2348 0.0
H3226 H 0.47056 0.87342 0.21187 0.0
H3227 H 0.37724 0.87114 0.21959 0.0
O3228 O 0.47038 0.99578 0.2847 0.0
C3229 C 0.388 0.95059 0.28008 0.0
Co3230 Co 0.08875 0.06167 0.76363 0.0
Co3231 Co 0.11545 0.11017 0.72986 0.0
C3232 C 0.11447 0.04957 0.70754 0.0
O3233 O 0.0974 0.0414 0.72674 0.0
O3234 O 0.12162 0.07542 0.70683 0.0
C3235 C 0.04129 0.03145 0.77055 0.0
O3236 O 0.03249 0.04907 0.75093 0.0
C3237 C 0.11316 0.13685 0.67525 0.0
C3238 C 0.14778 0.16797 0.67553 0.0
C3239 C 0.12839 0.15485 0.65764 0.0
N3240 N 0.12342 0.1387 0.70184 0.0
N3241 N 0.14385 0.15779 0.70199 0.0
C3242 C 0.09066 0.11627 0.6666 0.0
H3243 H 0.07926 0.10803 0.68543 0.0
H3244 H 0.07535 0.1267 0.65212 0.0
H3245 H 0.10053 0.09829 0.65511 0.0
C3246 C 0.05085 0.105 0.78224 0.0
N3247 N 0.07021 0.09569 0.76352 0.0
N3248 N 0.07771 0.11588 0.74622 0.0
C3249 C 0.06053 0.13831 0.75143 0.0
C3250 C 0.04266 0.13211 0.77476 0.0
C3251 C 0.04721 0.09163 0.81087 0.0
H3252 H 0.06669 0.07993 0.81689 0.0
H3253 H 0.02929 0.07646 0.81035 0.0
H3254 H 0.04318 0.10772 0.82749 0.0
O3255 O 0.12455 0.06638 0.78252 0.0
O3256 O 0.14597 0.10321 0.76164 0.0
H3257 H 0.08181 0.17669 0.74022 0.0
H3258 H 0.04333 0.17887 0.73895 0.0
C3259 C 0.06202 0.16523 0.73482 0.0
H3260 H 0.06306 0.16017 0.71189 0.0
H3261 H 0.15638 0.16244 0.7196 0.0
O3262 O 0.06323 0.03779 0.7847 0.0
C3263 C 0.14562 0.08298 0.78009 0.0
loop_
_geom_bond_atom_site_label_1
_geom_bond_atom_site_label_2
_geom_bond_distance
_geom_bond_site_symmetry_2
_ccdc_geom_bond_type
Co0 O3 1.970 . S
Co0 N17 1.989 . S
Co0 O25 1.967 1_455 S
Co0 O32 1.920 1_455 S
Co1 O4 1.966 . S
Co1 N10 2.022 . S
Co1 N18 1.993 . S
Co1 O26 1.941 . S
C2 O3 1.258 . S
C2 O4 1.263 . S
O3 Co0 1.970 . S
O3 C2 1.258 . S
O4 Co1 1.966 . S
O4 C2 1.263 . S
C5 O6 1.235 1_655 S
C5 O32 1.289 . S
O6 C5 1.235 1_455 S
C7 C9 1.400 . S
C7 N10 1.351 . S
C7 C12 1.501 . S
C8 C9 1.387 . S
C8 N11 1.341 . S
C9 C7 1.400 . S
C9 C8 1.387 . S
N10 Co1 2.022 . S
N10 C7 1.351 . S
N10 N11 1.365 . S
N11 C8 1.341 . S
N11 N10 1.365 . S
N11 H31 0.862 . S
C12 C7 1.501 . S
C12 H13 0.961 . S
C12 H14 0.961 . S
C12 H15 0.960 . S
H13 C12 0.961 . S
H14 C12 0.961 . S
H15 C12 0.960 . S
C16 N17 1.342 . S
C16 C20 1.401 . S
C16 C21 1.499 1_455 S
N17 Co0 1.989 . S
N17 C16 1.342 . S
N17 N18 1.388 . S
N18 Co1 1.993 . S
N18 N17 1.388 . S
N18 C19 1.346 . S
C19 N18 1.346 . S
C19 C20 1.396 . S
C19 C29 1.510 . S
C20 C16 1.401 . S
C20 C19 1.396 . S
C21 C16 1.499 1_655 S
C21 H22 0.959 . S
C21 H23 0.960 1_655 S
C21 H24 0.961 . S
H22 C21 0.959 . S
H23 C21 0.960 1_455 S
H24 C21 0.961 . S
O25 Co0 1.967 1_655 S
O25 C33 1.260 . S
O26 Co1 1.941 . S
O26 C33 1.239 1_455 S
H27 C29 0.959 . S
H28 C29 0.961 . S
C29 C19 1.510 . S
C29 H27 0.959 . S
C29 H28 0.961 . S
C29 H30 0.960 . S
H30 C29 0.960 . S
H31 N11 0.862 . S
O32 Co0 1.920 1_655 S
O32 C5 1.289 . S
C33 O25 1.260 . S
C33 O26 1.239 1_655 S
Co34 O37 1.970 . S
Co34 N51 1.989 . S
Co34 O59 1.967 . S
Co34 O66 1.920 . S
Co35 O38 1.966 . S
Co35 N44 2.022 . S
Co35 N52 1.993 . S
Co35 O60 1.941 . S
C36 O37 1.258 . S
C36 O38 1.263 . S
O37 Co34 1.970 . S
O37 C36 1.258 . S
O38 Co35 1.966 . S
O38 C36 1.263 . S
C39 O40 1.236 . S
C39 O66 1.289 1_655 S
O40 C39 1.236 . S
C41 C43 1.400 . S
C41 N44 1.351 . S
C41 C46 1.501 . S
C42 C43 1.387 . S
C42 N45 1.341 . S
C43 C41 1.400 . S
C43 C42 1.387 . S
N44 Co35 2.022 . S
N44 C41 1.351 . S
N44 N45 1.365 . S
N45 C42 1.341 . S
N45 N44 1.365 . S
N45 H65 0.862 . S
C46 C41 1.501 . S
C46 H47 0.961 . S
C46 H48 0.961 . S
C46 H49 0.960 . S
H47 C46 0.961 . S
H48 C46 0.961 . S
H49 C46 0.960 . S
C50 N51 1.342 . S
C50 C54 1.401 . S
C50 C55 1.499 . S
N51 Co34 1.989 . S
N51 C50 1.342 . S
N51 N52 1.388 . S
N52 Co35 1.993 . S
N52 N51 1.388 . S
N52 C53 1.346 . S
C53 N52 1.346 . S
C53 C54 1.396 . S
C53 C63 1.510 . S
C54 C50 1.401 . S
C54 C53 1.396 . S
C55 C50 1.499 . S
C55 H56 0.959 . S
C55 H57 0.960 . S
C55 H58 0.961 . S
H56 C55 0.959 . S
H57 C55 0.960 . S
H58 C55 0.961 . S
O59 Co34 1.967 . S
O59 C67 1.258 . S
O60 Co35 1.941 . S
O60 C67 1.266 . S
H61 C63 0.959 . S
H62 C63 0.961 . S
C63 C53 1.510 . S
C63 H61 0.959 . S
C63 H62 0.961 . S
C63 H64 0.960 . S
H64 C63 0.960 . S
H65 N45 0.862 . S
O66 Co34 1.920 . S
O66 C39 1.289 1_455 S
C67 O59 1.258 . S
C67 O60 1.266 . S
Co68 O71 1.970 . S
Co68 N85 1.989 . S
Co68 O93 1.967 . S
Co68 O100 1.920 . S
Co69 O72 1.966 . S
Co69 N78 2.022 . S
Co69 N86 1.993 . S
Co69 O94 1.941 . S
C70 O71 1.258 . S
C70 O72 1.263 . S
O71 Co68 1.970 . S
O71 C70 1.258 . S
O72 Co69 1.966 . S
O72 C70 1.263 . S
C73 O74 1.235 . S
C73 O100 1.289 . S
O74 C73 1.235 . S
C75 C77 1.400 . S
C75 N78 1.351 . S
C75 C80 1.501 . S
C76 C77 1.387 . S
C76 N79 1.341 . S
C77 C75 1.400 . S
C77 C76 1.387 . S
N78 Co69 2.022 . S
N78 C75 1.351 . S
N78 N79 1.365 . S
N79 C76 1.341 . S
N79 N78 1.365 . S
N79 H99 0.862 . S
C80 C75 1.501 . S
C80 H81 0.961 . S
C80 H82 0.961 . S
C80 H83 0.960 . S
H81 C80 0.961 . S
H82 C80 0.961 . S
H83 C80 0.960 . S
C84 N85 1.342 . S
C84 C88 1.401 . S
C84 C89 1.499 . S
N85 Co68 1.989 . S
N85 C84 1.342 . S
N85 N86 1.388 . S
N86 Co69 1.993 . S
N86 N85 1.388 . S
N86 C87 1.346 . S
C87 N86 1.346 . S
C87 C88 1.396 . S
C87 C97 1.510 . S
C88 C84 1.401 . S
C88 C87 1.396 . S
C89 C84 1.499 . S
C89 H90 0.959 . S
C89 H91 0.960 . S
C89 H92 0.961 . S
H90 C89 0.959 . S
H91 C89 0.960 . S
H92 C89 0.961 . S
O93 Co68 1.967 . S
O93 C101 1.258 . S
O94 Co69 1.941 . S
O94 C101 1.266 . S
H95 C97 0.959 . S
H96 C97 0.961 . S
C97 C87 1.510 . S
C97 H95 0.959 . S
C97 H96 0.961 . S
C97 H98 0.960 . S
H98 C97 0.960 . S
H99 N79 0.862 . S
O100 Co68 1.920 . S
O100 C73 1.289 . S
C101 O93 1.258 . S
C101 O94 1.266 . S
Co102 O105 1.970 . S
Co102 N119 1.989 . S
Co102 O127 1.967 . S
Co102 O134 1.920 . S
Co103 O106 1.966 . S
Co103 N112 2.022 . S
Co103 N120 1.993 . S
Co103 O128 1.941 . S
C104 O105 1.258 . S
C104 O106 1.263 . S
O105 Co102 1.970 . S
O105 C104 1.258 . S
O106 Co103 1.966 . S
O106 C104 1.263 . S
C107 O108 1.235 . S
C107 O134 1.289 . S
O108 C107 1.235 . S
C109 C111 1.400 . S
C109 N112 1.351 . S
C109 C114 1.501 . S
C110 C111 1.387 . S
C110 N113 1.341 . S
C111 C109 1.400 . S
C111 C110 1.387 . S
N112 Co103 2.022 . S
N112 C109 1.351 . S
N112 N113 1.365 . S
N113 C110 1.341 . S
N113 N112 1.365 . S
N113 H133 0.862 . S
C114 C109 1.501 . S
C114 H115 0.961 . S
C114 H116 0.961 . S
C114 H117 0.960 . S
H115 C114 0.961 . S
H116 C114 0.961 . S
H117 C114 0.960 . S
C118 N119 1.342 . S
C118 C122 1.401 . S
C118 C123 1.499 1_554 S
N119 Co102 1.989 . S
N119 C118 1.342 . S
N119 N120 1.388 . S
N120 Co103 1.993 . S
N120 N119 1.388 . S
N120 C121 1.346 . S
C121 N120 1.346 . S
C121 C122 1.396 . S
C121 C131 1.510 . S
C122 C118 1.401 . S
C122 C121 1.396 . S
C123 C118 1.499 1_556 S
C123 H124 0.959 1_556 S
C123 H125 0.960 . S
C123 H126 0.961 . S
H124 C123 0.959 1_554 S
H125 C123 0.960 . S
H126 C123 0.961 . S
O127 Co102 1.967 . S
O127 C135 1.258 . S
O128 Co103 1.941 . S
O128 C135 1.266 . S
H129 C131 0.959 . S
H130 C131 0.961 . S
C131 C121 1.510 . S
C131 H129 0.959 . S
C131 H130 0.961 . S
C131 H132 0.960 . S
H132 C131 0.960 . S
H133 N113 0.862 . S
O134 Co102 1.920 . S
O134 C107 1.289 . S
C135 O127 1.258 . S
C135 O128 1.266 . S
Co136 O139 1.970 . S
Co136 N153 1.989 . S
Co136 O161 1.967 1_455 S
Co136 O168 1.920 1_455 S
Co137 O140 1.966 . S
Co137 N146 2.022 . S
Co137 N154 1.993 . S
Co137 O162 1.941 . S
C138 O139 1.258 . S
C138 O140 1.263 . S
O139 Co136 1.970 . S
O139 C138 1.258 . S
O140 Co137 1.966 . S
O140 C138 1.263 . S
C141 O142 1.235 1_655 S
C141 O168 1.289 . S
O142 C141 1.235 1_455 S
C143 C145 1.400 . S
C143 N146 1.351 . S
C143 C148 1.501 . S
C144 C145 1.387 . S
C144 N147 1.341 . S
C145 C143 1.400 . S
C145 C144 1.387 . S
N146 Co137 2.022 . S
N146 C143 1.351 . S
N146 N147 1.365 . S
N147 C144 1.341 . S
N147 N146 1.365 . S
N147 H167 0.862 . S
C148 C143 1.501 . S
C148 H149 0.961 . S
C148 H150 0.961 . S
C148 H151 0.960 . S
H149 C148 0.961 . S
H150 C148 0.961 . S
H151 C148 0.960 . S
C152 N153 1.342 . S
C152 C156 1.401 . S
C152 C157 1.499 1_455 S
N153 Co136 1.989 . S
N153 C152 1.342 . S
N153 N154 1.388 . S
N154 Co137 1.993 . S
N154 N153 1.388 . S
N154 C155 1.346 . S
C155 N154 1.346 . S
C155 C156 1.396 . S
C155 C165 1.510 . S
C156 C152 1.401 . S
C156 C155 1.396 . S
C157 C152 1.499 1_655 S
C157 H158 0.959 . S
C157 H159 0.960 1_655 S
C157 H160 0.961 . S
H158 C157 0.959 . S
H159 C157 0.960 1_455 S
H160 C157 0.961 . S
O161 Co136 1.967 1_655 S
O161 C169 1.260 . S
O162 Co137 1.941 . S
O162 C169 1.238 1_455 S
H163 C165 0.959 . S
H164 C165 0.961 . S
C165 C155 1.510 . S
C165 H163 0.959 . S
C165 H164 0.961 . S
C165 H166 0.960 . S
H166 C165 0.960 . S
H167 N147 0.862 . S
O168 Co136 1.920 1_655 S
O168 C141 1.289 . S
C169 O161 1.260 . S
C169 O162 1.238 1_655 S
Co170 O173 1.970 . S
Co170 N187 1.989 . S
Co170 O195 1.967 . S
Co170 O202 1.920 . S
Co171 O174 1.966 . S
Co171 N180 2.022 . S
Co171 N188 1.993 . S
Co171 O196 1.941 . S
C172 O173 1.258 . S
C172 O174 1.263 . S
O173 Co170 1.970 . S
O173 C172 1.258 . S
O174 Co171 1.966 . S
O174 C172 1.263 . S
C175 O176 1.235 . S
C175 O202 1.289 . S
O176 C175 1.235 . S
C177 C179 1.400 . S
C177 N180 1.351 . S
C177 C182 1.501 . S
C178 C179 1.387 . S
C178 N181 1.341 . S
C179 C177 1.400 . S
C179 C178 1.387 . S
N180 Co171 2.022 . S
N180 C177 1.351 . S
N180 N181 1.365 . S
N181 C178 1.341 . S
N181 N180 1.365 . S
N181 H201 0.862 . S
C182 C177 1.501 . S
C182 H183 0.961 . S
C182 H184 0.961 . S
C182 H185 0.960 . S
H183 C182 0.961 . S
H184 C182 0.961 . S
H185 C182 0.960 . S
C186 N187 1.342 . S
C186 C190 1.401 . S
C186 C191 1.499 . S
N187 Co170 1.989 . S
N187 C186 1.342 . S
N187 N188 1.388 . S
N188 Co171 1.993 . S
N188 N187 1.388 . S
N188 C189 1.346 . S
C189 N188 1.346 . S
C189 C190 1.396 . S
C189 C199 1.510 . S
C190 C186 1.401 . S
C190 C189 1.396 . S
C191 C186 1.499 . S
C191 H192 0.959 . S
C191 H193 0.960 . S
C191 H194 0.961 . S
H192 C191 0.959 . S
H193 C191 0.960 . S
H194 C191 0.961 . S
O195 Co170 1.967 . S
O195 C203 1.258 . S
O196 Co171 1.941 . S
O196 C203 1.266 . S
H197 C199 0.959 . S
H198 C199 0.961 . S
C199 C189 1.510 . S
C199 H197 0.959 . S
C199 H198 0.961 . S
C199 H200 0.960 . S
H200 C199 0.960 . S
H201 N181 0.862 . S
O202 Co170 1.920 . S
O202 C175 1.289 . S
C203 O195 1.258 . S
C203 O196 1.266 . S
Co204 O207 1.970 . S
Co204 N221 1.989 . S
Co204 O229 1.967 . S
Co204 O236 1.920 . S
Co205 O208 1.966 . S
Co205 N214 2.022 . S
Co205 N222 1.993 . S
Co205 O230 1.941 . S
C206 O207 1.258 . S
C206 O208 1.263 . S
O207 Co204 1.970 . S
O207 C206 1.258 . S
O208 Co205 1.966 . S
O208 C206 1.263 . S
C209 O210 1.235 . S
C209 O236 1.289 . S
O210 C209 1.235 . S
C211 C213 1.400 . S
C211 N214 1.351 . S
C211 C216 1.501 . S
C212 C213 1.387 . S
C212 N215 1.341 . S
C213 C211 1.400 . S
C213 C212 1.387 . S
N214 Co205 2.022 . S
N214 C211 1.351 . S
N214 N215 1.365 . S
N215 C212 1.341 . S
N215 N214 1.365 . S
N215 H235 0.862 . S
C216 C211 1.501 . S
C216 H217 0.961 . S
C216 H218 0.961 . S
C216 H219 0.960 . S
H217 C216 0.961 . S
H218 C216 0.961 . S
H219 C216 0.960 . S
C220 N221 1.342 . S
C220 C224 1.401 . S
C220 C225 1.499 . S
N221 Co204 1.989 . S
N221 C220 1.342 . S
N221 N222 1.388 . S
N222 Co205 1.993 . S
N222 N221 1.388 . S
N222 C223 1.346 . S
C223 N222 1.346 . S
C223 C224 1.396 . S
C223 C233 1.510 . S
C224 C220 1.401 . S
C224 C223 1.396 . S
C225 C220 1.499 . S
C225 H226 0.959 . S
C225 H227 0.960 . S
C225 H228 0.961 . S
H226 C225 0.959 . S
H227 C225 0.960 . S
H228 C225 0.961 . S
O229 Co204 1.967 . S
O229 C237 1.258 . S
O230 Co205 1.941 . S
O230 C237 1.266 . S
H231 C233 0.959 . S
H232 C233 0.961 . S
C233 C223 1.510 . S
C233 H231 0.959 . S
C233 H232 0.961 . S
C233 H234 0.960 . S
H234 C233 0.960 . S
H235 N215 0.862 . S
O236 Co204 1.920 . S
O236 C209 1.289 . S
C237 O229 1.258 . S
C237 O230 1.266 . S
Co238 O241 1.970 . S
Co238 N255 1.989 . S
Co238 O263 1.967 . S
Co238 O270 1.920 . S
Co239 O242 1.966 . S
Co239 N248 2.022 . S
Co239 N256 1.993 . S
Co239 O264 1.941 . S
C240 O241 1.258 . S
C240 O242 1.263 . S
O241 Co238 1.970 . S
O241 C240 1.258 . S
O242 Co239 1.966 . S
O242 C240 1.263 . S
C243 O244 1.236 . S
C243 O270 1.289 1_655 S
O244 C243 1.236 . S
C245 C247 1.400 . S
C245 N248 1.351 . S
C245 C250 1.501 . S
C246 C247 1.387 . S
C246 N249 1.341 . S
C247 C245 1.400 . S
C247 C246 1.387 . S
N248 Co239 2.022 . S
N248 C245 1.351 . S
N248 N249 1.365 . S
N249 C246 1.341 . S
N249 N248 1.365 . S
N249 H269 0.862 . S
C250 C245 1.501 . S
C250 H251 0.961 . S
C250 H252 0.961 . S
C250 H253 0.960 . S
H251 C250 0.961 . S
H252 C250 0.961 . S
H253 C250 0.960 . S
C254 N255 1.342 . S
C254 C258 1.401 . S
C254 C259 1.499 1_556 S
N255 Co238 1.989 . S
N255 C254 1.342 . S
N255 N256 1.388 . S
N256 Co239 1.993 . S
N256 N255 1.388 . S
N256 C257 1.346 . S
C257 N256 1.346 . S
C257 C258 1.396 . S
C257 C267 1.510 . S
C258 C254 1.401 . S
C258 C257 1.396 . S
C259 C254 1.499 1_554 S
C259 H260 0.959 1_554 S
C259 H261 0.960 . S
C259 H262 0.961 . S
H260 C259 0.959 1_556 S
H261 C259 0.960 . S
H262 C259 0.961 . S
O263 Co238 1.967 . S
O263 C271 1.258 . S
O264 Co239 1.941 . S
O264 C271 1.266 . S
H265 C267 0.959 . S
H266 C267 0.961 . S
C267 C257 1.510 . S
C267 H265 0.959 . S
C267 H266 0.961 . S
C267 H268 0.960 . S
H268 C267 0.960 . S
H269 N249 0.862 . S
O270 Co238 1.920 . S
O270 C243 1.289 1_455 S
C271 O263 1.258 . S
C271 O264 1.266 . S
Co272 O275 1.970 . S
Co272 N289 1.989 . S
Co272 O297 1.967 1_545 S
Co272 O304 1.920 1_545 S
Co273 O276 1.966 . S
Co273 N282 2.022 . S
Co273 N290 1.993 . S
Co273 O298 1.941 . S
C274 O275 1.258 . S
C274 O276 1.263 . S
O275 Co272 1.970 . S
O275 C274 1.258 . S
O276 Co273 1.966 . S
O276 C274 1.263 . S
C277 O278 1.235 1_565 S
C277 O304 1.289 . S
O278 C277 1.235 1_545 S
C279 C281 1.400 . S
C279 N282 1.351 . S
C279 C284 1.501 . S
C280 C281 1.387 . S
C280 N283 1.341 . S
C281 C279 1.400 . S
C281 C280 1.387 . S
N282 Co273 2.022 . S
N282 C279 1.351 . S
N282 N283 1.365 . S
N283 C280 1.341 . S
N283 N282 1.365 . S
N283 H303 0.862 . S
C284 C279 1.501 . S
C284 H285 0.961 . S
C284 H286 0.961 . S
C284 H287 0.960 . S
H285 C284 0.961 . S
H286 C284 0.961 . S
H287 C284 0.960 . S
C288 N289 1.342 . S
C288 C292 1.401 . S
C288 C293 1.499 1_545 S
N289 Co272 1.989 . S
N289 C288 1.342 . S
N289 N290 1.388 . S
N290 Co273 1.993 . S
N290 N289 1.388 . S
N290 C291 1.346 . S
C291 N290 1.346 . S
C291 C292 1.396 . S
C291 C301 1.510 . S
C292 C288 1.401 . S
C292 C291 1.396 . S
C293 C288 1.499 1_565 S
C293 H294 0.959 . S
C293 H295 0.960 1_565 S
C293 H296 0.961 . S
H294 C293 0.959 . S
H295 C293 0.960 1_545 S
H296 C293 0.961 . S
O297 Co272 1.967 1_565 S
O297 C305 1.260 . S
O298 Co273 1.941 . S
O298 C305 1.239 1_545 S
H299 C301 0.959 . S
H300 C301 0.961 . S
C301 C291 1.510 . S
C301 H299 0.959 . S
C301 H300 0.961 . S
C301 H302 0.960 . S
H302 C301 0.960 . S
H303 N283 0.862 . S
O304 Co272 1.920 1_565 S
O304 C277 1.289 . S
C305 O297 1.260 . S
C305 O298 1.239 1_565 S
Co306 O309 1.970 . S
Co306 N323 1.989 . S
Co306 O331 1.967 . S
Co306 O338 1.920 . S
Co307 O310 1.966 . S
Co307 N316 2.022 . S
Co307 N324 1.993 . S
Co307 O332 1.941 . S
C308 O309 1.258 . S
C308 O310 1.263 . S
O309 Co306 1.970 . S
O309 C308 1.258 . S
O310 Co307 1.966 . S
O310 C308 1.263 . S
C311 O312 1.235 . S
C311 O338 1.289 . S
O312 C311 1.235 . S
C313 C315 1.400 . S
C313 N316 1.351 . S
C313 C318 1.501 . S
C314 C315 1.387 . S
C314 N317 1.341 . S
C315 C313 1.400 . S
C315 C314 1.387 . S
N316 Co307 2.022 . S
N316 C313 1.351 . S
N316 N317 1.365 . S
N317 C314 1.341 . S
N317 N316 1.365 . S
N317 H337 0.862 . S
C318 C313 1.501 . S
C318 H319 0.961 . S
C318 H320 0.961 . S
C318 H321 0.960 . S
H319 C318 0.961 . S
H320 C318 0.961 . S
H321 C318 0.960 . S
C322 N323 1.342 . S
C322 C326 1.401 . S
C322 C327 1.499 1_545 S
N323 Co306 1.989 . S
N323 C322 1.342 . S
N323 N324 1.388 . S
N324 Co307 1.993 . S
N324 N323 1.388 . S
N324 C325 1.346 . S
C325 N324 1.346 . S
C325 C326 1.396 . S
C325 C335 1.510 . S
C326 C322 1.401 . S
C326 C325 1.396 . S
C327 C322 1.499 1_565 S
C327 H328 0.959 1_565 S
C327 H329 0.960 . S
C327 H330 0.961 . S
H328 C327 0.959 1_545 S
H329 C327 0.960 . S
H330 C327 0.961 . S
O331 Co306 1.967 . S
O331 C339 1.258 . S
O332 Co307 1.941 . S
O332 C339 1.266 . S
H333 C335 0.959 . S
H334 C335 0.961 . S
C335 C325 1.510 . S
C335 H333 0.959 . S
C335 H334 0.961 . S
C335 H336 0.960 . S
H336 C335 0.960 . S
H337 N317 0.862 . S
O338 Co306 1.920 . S
O338 C311 1.289 . S
C339 O331 1.258 . S
C339 O332 1.266 . S
Co340 O343 1.970 . S
Co340 N357 1.989 . S
Co340 O365 1.967 1_565 S
Co340 O372 1.920 1_565 S
Co341 O344 1.966 . S
Co341 N350 2.022 . S
Co341 N358 1.993 . S
Co341 O366 1.941 . S
C342 O343 1.258 . S
C342 O344 1.263 . S
O343 Co340 1.970 . S
O343 C342 1.258 . S
O344 Co341 1.966 . S
O344 C342 1.263 . S
C345 O346 1.235 1_545 S
C345 O372 1.289 . S
O346 C345 1.235 1_565 S
C347 C349 1.400 . S
C347 N350 1.351 . S
C347 C352 1.501 . S
C348 C349 1.387 . S
C348 N351 1.341 . S
C349 C347 1.400 . S
C349 C348 1.387 . S
N350 Co341 2.022 . S
N350 C347 1.351 . S
N350 N351 1.365 . S
N351 C348 1.341 . S
N351 N350 1.365 . S
N351 H371 0.862 . S
C352 C347 1.501 . S
C352 H353 0.961 . S
C352 H354 0.961 . S
C352 H355 0.960 . S
H353 C352 0.961 . S
H354 C352 0.961 . S
H355 C352 0.960 . S
C356 N357 1.342 . S
C356 C360 1.401 . S
C356 C361 1.499 1_565 S
N357 Co340 1.989 . S
N357 C356 1.342 . S
N357 N358 1.388 . S
N358 Co341 1.993 . S
N358 N357 1.388 . S
N358 C359 1.346 . S
C359 N358 1.346 . S
C359 C360 1.396 . S
C359 C369 1.510 . S
C360 C356 1.401 . S
C360 C359 1.396 . S
C361 C356 1.499 1_545 S
C361 H362 0.959 . S
C361 H363 0.960 1_545 S
C361 H364 0.961 . S
H362 C361 0.959 . S
H363 C361 0.960 1_565 S
H364 C361 0.961 . S
O365 Co340 1.967 1_545 S
O365 C373 1.260 . S
O366 Co341 1.941 . S
O366 C373 1.239 1_565 S
H367 C369 0.959 . S
H368 C369 0.961 . S
C369 C359 1.510 . S
C369 H367 0.959 . S
C369 H368 0.961 . S
C369 H370 0.960 . S
H370 C369 0.960 . S
H371 N351 0.862 . S
O372 Co340 1.920 1_545 S
O372 C345 1.289 . S
C373 O365 1.260 . S
C373 O366 1.239 1_545 S
Co374 O377 1.970 . S
Co374 N391 1.989 . S
Co374 O399 1.967 . S
Co374 O406 1.920 . S
Co375 O378 1.966 . S
Co375 N384 2.022 . S
Co375 N392 1.993 . S
Co375 O400 1.941 . S
C376 O377 1.258 . S
C376 O378 1.263 . S
O377 Co374 1.970 . S
O377 C376 1.258 . S
O378 Co375 1.966 . S
O378 C376 1.263 . S
C379 O380 1.236 . S
C379 O406 1.289 1_554 S
O380 C379 1.236 . S
C381 C383 1.400 . S
C381 N384 1.351 . S
C381 C386 1.501 . S
C382 C383 1.387 . S
C382 N385 1.341 . S
C383 C381 1.400 . S
C383 C382 1.387 . S
N384 Co375 2.022 . S
N384 C381 1.351 . S
N384 N385 1.365 . S
N385 C382 1.341 . S
N385 N384 1.365 . S
N385 H405 0.862 . S
C386 C381 1.501 . S
C386 H387 0.961 . S
C386 H388 0.961 . S
C386 H389 0.960 . S
H387 C386 0.961 . S
H388 C386 0.961 . S
H389 C386 0.960 . S
C390 N391 1.342 . S
C390 C394 1.401 . S
C390 C395 1.499 1_565 S
N391 Co374 1.989 . S
N391 C390 1.342 . S
N391 N392 1.388 . S
N392 Co375 1.993 . S
N392 N391 1.388 . S
N392 C393 1.346 . S
C393 N392 1.346 . S
C393 C394 1.396 . S
C393 C403 1.510 . S
C394 C390 1.401 . S
C394 C393 1.396 . S
C395 C390 1.499 1_545 S
C395 H396 0.959 1_545 S
C395 H397 0.960 . S
C395 H398 0.961 . S
H396 C395 0.959 1_565 S
H397 C395 0.960 . S
H398 C395 0.961 . S
O399 Co374 1.967 . S
O399 C407 1.258 . S
O400 Co375 1.941 . S
O400 C407 1.266 . S
H401 C403 0.959 . S
H402 C403 0.961 . S
C403 C393 1.510 . S
C403 H401 0.959 . S
C403 H402 0.961 . S
C403 H404 0.960 . S
H404 C403 0.960 . S
H405 N385 0.862 . S
O406 Co374 1.920 . S
O406 C379 1.289 1_556 S
C407 O399 1.258 . S
C407 O400 1.266 . S
Co408 O411 1.970 . S
Co408 N425 1.989 . S
Co408 O433 1.967 1_565 S
Co408 O440 1.920 1_565 S
Co409 O412 1.966 . S
Co409 N418 2.022 . S
Co409 N426 1.993 . S
Co409 O434 1.941 . S
C410 O411 1.258 . S
C410 O412 1.263 . S
O411 Co408 1.970 . S
O411 C410 1.258 . S
O412 Co409 1.966 . S
O412 C410 1.263 . S
C413 O414 1.235 1_545 S
C413 O440 1.289 . S
O414 C413 1.235 1_565 S
C415 C417 1.400 . S
C415 N418 1.351 . S
C415 C420 1.501 . S
C416 C417 1.387 . S
C416 N419 1.341 . S
C417 C415 1.400 . S
C417 C416 1.387 . S
N418 Co409 2.022 . S
N418 C415 1.351 . S
N418 N419 1.365 . S
N419 C416 1.341 . S
N419 N418 1.365 . S
N419 H439 0.862 . S
C420 C415 1.501 . S
C420 H421 0.961 . S
C420 H422 0.961 . S
C420 H423 0.960 . S
H421 C420 0.961 . S
H422 C420 0.961 . S
H423 C420 0.960 . S
C424 N425 1.342 . S
C424 C428 1.401 . S
C424 C429 1.499 1_565 S
N425 Co408 1.989 . S
N425 C424 1.342 . S
N425 N426 1.388 . S
N426 Co409 1.993 . S
N426 N425 1.388 . S
N426 C427 1.346 . S
C427 N426 1.346 . S
C427 C428 1.396 . S
C427 C437 1.510 . S
C428 C424 1.401 . S
C428 C427 1.396 . S
C429 C424 1.499 1_545 S
C429 H430 0.959 . S
C429 H431 0.960 1_545 S
C429 H432 0.961 . S
H430 C429 0.959 . S
H431 C429 0.960 1_565 S
H432 C429 0.961 . S
O433 Co408 1.967 1_545 S
O433 C441 1.260 . S
O434 Co409 1.941 . S
O434 C441 1.239 1_565 S
H435 C437 0.959 . S
H436 C437 0.961 . S
C437 C427 1.510 . S
C437 H435 0.959 . S
C437 H436 0.961 . S
C437 H438 0.960 . S
H438 C437 0.960 . S
H439 N419 0.862 . S
O440 Co408 1.920 1_545 S
O440 C413 1.289 . S
C441 O433 1.260 . S
C441 O434 1.239 1_545 S
Co442 O445 1.970 . S
Co442 N459 1.989 . S
Co442 O467 1.967 . S
Co442 O474 1.920 . S
Co443 O446 1.966 . S
Co443 N452 2.022 . S
Co443 N460 1.993 . S
Co443 O468 1.941 . S
C444 O445 1.258 . S
C444 O446 1.263 . S
O445 Co442 1.970 . S
O445 C444 1.258 . S
O446 Co443 1.966 . S
O446 C444 1.263 . S
C447 O448 1.235 . S
C447 O474 1.289 . S
O448 C447 1.235 . S
C449 C451 1.400 . S
C449 N452 1.351 . S
C449 C454 1.501 . S
C450 C451 1.387 . S
C450 N453 1.341 . S
C451 C449 1.400 . S
C451 C450 1.387 . S
N452 Co443 2.022 . S
N452 C449 1.351 . S
N452 N453 1.365 . S
N453 C450 1.341 . S
N453 N452 1.365 . S
N453 H473 0.862 . S
C454 C449 1.501 . S
C454 H455 0.961 . S
C454 H456 0.961 . S
C454 H457 0.960 . S
H455 C454 0.961 . S
H456 C454 0.961 . S
H457 C454 0.960 . S
C458 N459 1.342 . S
C458 C462 1.401 . S
C458 C463 1.499 1_545 S
N459 Co442 1.989 . S
N459 C458 1.342 . S
N459 N460 1.388 . S
N460 Co443 1.993 . S
N460 N459 1.388 . S
N460 C461 1.346 . S
C461 N460 1.346 . S
C461 C462 1.396 . S
C461 C471 1.510 . S
C462 C458 1.401 . S
C462 C461 1.396 . S
C463 C458 1.499 1_565 S
C463 H464 0.959 1_565 S
C463 H465 0.960 . S
C463 H466 0.961 . S
H464 C463 0.959 1_545 S
H465 C463 0.960 . S
H466 C463 0.961 . S
O467 Co442 1.967 . S
O467 C475 1.258 . S
O468 Co443 1.941 . S
O468 C475 1.266 . S
H469 C471 0.959 . S
H470 C471 0.961 . S
C471 C461 1.510 . S
C471 H469 0.959 . S
C471 H470 0.961 . S
C471 H472 0.960 . S
H472 C471 0.960 . S
H473 N453 0.862 . S
O474 Co442 1.920 . S
O474 C447 1.289 . S
C475 O467 1.258 . S
C475 O468 1.266 . S
Co476 O479 1.970 . S
Co476 N493 1.989 . S
Co476 O501 1.967 1_545 S
Co476 O508 1.920 1_545 S
Co477 O480 1.966 . S
Co477 N486 2.022 . S
Co477 N494 1.993 . S
Co477 O502 1.941 . S
C478 O479 1.258 . S
C478 O480 1.263 . S
O479 Co476 1.970 . S
O479 C478 1.258 . S
O480 Co477 1.966 . S
O480 C478 1.263 . S
C481 O482 1.235 1_565 S
C481 O508 1.289 . S
O482 C481 1.235 1_545 S
C483 C485 1.400 . S
C483 N486 1.351 . S
C483 C488 1.501 . S
C484 C485 1.387 . S
C484 N487 1.341 . S
C485 C483 1.400 . S
C485 C484 1.387 . S
N486 Co477 2.022 . S
N486 C483 1.351 . S
N486 N487 1.365 . S
N487 C484 1.341 . S
N487 N486 1.365 . S
N487 H507 0.862 . S
C488 C483 1.501 . S
C488 H489 0.961 . S
C488 H490 0.961 . S
C488 H491 0.960 . S
H489 C488 0.961 . S
H490 C488 0.961 . S
H491 C488 0.960 . S
C492 N493 1.342 . S
C492 C496 1.401 . S
C492 C497 1.499 1_545 S
N493 Co476 1.989 . S
N493 C492 1.342 . S
N493 N494 1.388 . S
N494 Co477 1.993 . S
N494 N493 1.388 . S
N494 C495 1.346 . S
C495 N494 1.346 . S
C495 C496 1.396 . S
C495 C505 1.510 . S
C496 C492 1.401 . S
C496 C495 1.396 . S
C497 C492 1.499 1_565 S
C497 H498 0.959 . S
C497 H499 0.960 1_565 S
C497 H500 0.961 . S
H498 C497 0.959 . S
H499 C497 0.960 1_545 S
H500 C497 0.961 . S
O501 Co476 1.967 1_565 S
O501 C509 1.260 . S
O502 Co477 1.941 . S
O502 C509 1.238 1_545 S
H503 C505 0.959 . S
H504 C505 0.961 . S
C505 C495 1.510 . S
C505 H503 0.959 . S
C505 H504 0.961 . S
C505 H506 0.960 . S
H506 C505 0.960 . S
H507 N487 0.862 . S
O508 Co476 1.920 1_565 S
O508 C481 1.289 . S
C509 O501 1.260 . S
C509 O502 1.238 1_565 S
Co510 O513 1.970 . S
Co510 N527 1.989 . S
Co510 O535 1.967 . S
Co510 O542 1.920 . S
Co511 O514 1.966 . S
Co511 N520 2.022 . S
Co511 N528 1.993 . S
Co511 O536 1.941 . S
C512 O513 1.258 . S
C512 O514 1.263 . S
O513 Co510 1.970 . S
O513 C512 1.258 . S
O514 Co511 1.966 . S
O514 C512 1.263 . S
C515 O516 1.236 . S
C515 O542 1.289 1_556 S
O516 C515 1.236 . S
C517 C519 1.400 . S
C517 N520 1.351 . S
C517 C522 1.501 . S
C518 C519 1.387 . S
C518 N521 1.341 . S
C519 C517 1.400 . S
C519 C518 1.387 . S
N520 Co511 2.022 . S
N520 C517 1.351 . S
N520 N521 1.365 . S
N521 C518 1.341 . S
N521 N520 1.365 . S
N521 H541 0.862 . S
C522 C517 1.501 . S
C522 H523 0.961 . S
C522 H524 0.961 . S
C522 H525 0.960 . S
H523 C522 0.961 . S
H524 C522 0.961 . S
H525 C522 0.960 . S
C526 N527 1.342 . S
C526 C530 1.401 . S
C526 C531 1.499 1_565 S
N527 Co510 1.989 . S
N527 C526 1.342 . S
N527 N528 1.388 . S
N528 Co511 1.993 . S
N528 N527 1.388 . S
N528 C529 1.346 . S
C529 N528 1.346 . S
C529 C530 1.396 . S
C529 C539 1.510 . S
C530 C526 1.401 . S
C530 C529 1.396 . S
C531 C526 1.499 1_545 S
C531 H532 0.959 1_545 S
C531 H533 0.960 . S
C531 H534 0.961 . S
H532 C531 0.959 1_565 S
H533 C531 0.960 . S
H534 C531 0.961 . S
O535 Co510 1.967 . S
O535 C543 1.258 . S
O536 Co511 1.941 . S
O536 C543 1.266 . S
H537 C539 0.959 . S
H538 C539 0.961 . S
C539 C529 1.510 . S
C539 H537 0.959 . S
C539 H538 0.961 . S
C539 H540 0.960 . S
H540 C539 0.960 . S
H541 N521 0.862 . S
O542 Co510 1.920 . S
O542 C515 1.289 1_554 S
C543 O535 1.258 . S
C543 O536 1.266 . S
Co544 O547 1.970 . S
Co544 N561 1.989 . S
Co544 O569 1.967 1_554 S
Co544 O576 1.920 1_554 S
Co545 O548 1.966 . S
Co545 N554 2.022 . S
Co545 N562 1.993 . S
Co545 O570 1.941 . S
C546 O547 1.258 . S
C546 O548 1.263 . S
O547 Co544 1.970 . S
O547 C546 1.258 . S
O548 Co545 1.966 . S
O548 C546 1.263 . S
C549 O550 1.235 1_556 S
C549 O576 1.289 . S
O550 C549 1.235 1_554 S
C551 C553 1.400 . S
C551 N554 1.351 . S
C551 C556 1.501 . S
C552 C553 1.387 . S
C552 N555 1.341 . S
C553 C551 1.400 . S
C553 C552 1.387 . S
N554 Co545 2.022 . S
N554 C551 1.351 . S
N554 N555 1.365 . S
N555 C552 1.341 . S
N555 N554 1.365 . S
N555 H575 0.862 . S
C556 C551 1.501 . S
C556 H557 0.961 . S
C556 H558 0.961 . S
C556 H559 0.960 . S
H557 C556 0.961 . S
H558 C556 0.961 . S
H559 C556 0.960 . S
C560 N561 1.342 . S
C560 C564 1.401 . S
C560 C565 1.499 1_554 S
N561 Co544 1.989 . S
N561 C560 1.342 . S
N561 N562 1.388 . S
N562 Co545 1.993 . S
N562 N561 1.388 . S
N562 C563 1.346 . S
C563 N562 1.346 . S
C563 C564 1.396 . S
C563 C573 1.510 . S
C564 C560 1.401 . S
C564 C563 1.396 . S
C565 C560 1.499 1_556 S
C565 H566 0.959 . S
C565 H567 0.960 1_556 S
C565 H568 0.961 . S
H566 C565 0.959 . S
H567 C565 0.960 1_554 S
H568 C565 0.961 . S
O569 Co544 1.967 1_556 S
O569 C577 1.260 . S
O570 Co545 1.941 . S
O570 C577 1.239 1_554 S
H571 C573 0.959 . S
H572 C573 0.961 . S
C573 C563 1.510 . S
C573 H571 0.959 . S
C573 H572 0.961 . S
C573 H574 0.960 . S
H574 C573 0.960 . S
H575 N555 0.862 . S
O576 Co544 1.920 1_556 S
O576 C549 1.289 . S
C577 O569 1.260 . S
C577 O570 1.239 1_556 S
Co578 O581 1.970 . S
Co578 N595 1.989 . S
Co578 O603 1.967 1_556 S
Co578 O610 1.920 1_556 S
Co579 O582 1.966 . S
Co579 N588 2.022 . S
Co579 N596 1.993 . S
Co579 O604 1.941 . S
C580 O581 1.258 . S
C580 O582 1.263 . S
O581 Co578 1.970 . S
O581 C580 1.258 . S
O582 Co579 1.966 . S
O582 C580 1.263 . S
C583 O584 1.235 1_554 S
C583 O610 1.289 . S
O584 C583 1.235 1_556 S
C585 C587 1.400 . S
C585 N588 1.351 . S
C585 C590 1.501 . S
C586 C587 1.387 . S
C586 N589 1.341 . S
C587 C585 1.400 . S
C587 C586 1.387 . S
N588 Co579 2.022 . S
N588 C585 1.351 . S
N588 N589 1.365 . S
N589 C586 1.341 . S
N589 N588 1.365 . S
N589 H609 0.862 . S
C590 C585 1.501 . S
C590 H591 0.961 . S
C590 H592 0.961 . S
C590 H593 0.960 . S
H591 C590 0.961 . S
H592 C590 0.961 . S
H593 C590 0.960 . S
C594 N595 1.342 . S
C594 C598 1.401 . S
C594 C599 1.499 1_556 S
N595 Co578 1.989 . S
N595 C594 1.342 . S
N595 N596 1.388 . S
N596 Co579 1.993 . S
N596 N595 1.388 . S
N596 C597 1.346 . S
C597 N596 1.346 . S
C597 C598 1.396 . S
C597 C607 1.510 . S
C598 C594 1.401 . S
C598 C597 1.396 . S
C599 C594 1.499 1_554 S
C599 H600 0.959 . S
C599 H601 0.960 1_554 S
C599 H602 0.961 . S
H600 C599 0.959 . S
H601 C599 0.960 1_556 S
H602 C599 0.961 . S
O603 Co578 1.967 1_554 S
O603 C611 1.260 . S
O604 Co579 1.941 . S
O604 C611 1.239 1_556 S
H605 C607 0.959 . S
H606 C607 0.961 . S
C607 C597 1.510 . S
C607 H605 0.959 . S
C607 H606 0.961 . S
C607 H608 0.960 . S
H608 C607 0.960 . S
H609 N589 0.862 . S
O610 Co578 1.920 1_554 S
O610 C583 1.289 . S
C611 O603 1.260 . S
C611 O604 1.239 1_554 S
Co612 O615 1.970 . S
Co612 N629 1.989 . S
Co612 O637 1.967 . S
Co612 O644 1.920 . S
Co613 O616 1.966 . S
Co613 N622 2.022 . S
Co613 N630 1.993 . S
Co613 O638 1.941 . S
C614 O615 1.258 . S
C614 O616 1.263 . S
O615 Co612 1.970 . S
O615 C614 1.258 . S
O616 Co613 1.966 . S
O616 C614 1.263 . S
C617 O618 1.235 . S
C617 O644 1.289 . S
O618 C617 1.235 . S
C619 C621 1.400 . S
C619 N622 1.351 . S
C619 C624 1.501 . S
C620 C621 1.387 . S
C620 N623 1.341 . S
C621 C619 1.400 . S
C621 C620 1.387 . S
N622 Co613 2.022 . S
N622 C619 1.351 . S
N622 N623 1.365 . S
N623 C620 1.341 . S
N623 N622 1.365 . S
N623 H643 0.862 . S
C624 C619 1.501 . S
C624 H625 0.961 . S
C624 H626 0.961 . S
C624 H627 0.960 . S
H625 C624 0.961 . S
H626 C624 0.961 . S
H627 C624 0.960 . S
C628 N629 1.342 . S
C628 C632 1.401 . S
C628 C633 1.499 1_455 S
N629 Co612 1.989 . S
N629 C628 1.342 . S
N629 N630 1.388 . S
N630 Co613 1.993 . S
N630 N629 1.388 . S
N630 C631 1.346 . S
C631 N630 1.346 . S
C631 C632 1.396 . S
C631 C641 1.510 . S
C632 C628 1.401 . S
C632 C631 1.396 . S
C633 C628 1.499 1_655 S
C633 H634 0.959 1_655 S
C633 H635 0.960 . S
C633 H636 0.961 . S
H634 C633 0.959 1_455 S
H635 C633 0.960 . S
H636 C633 0.961 . S
O637 Co612 1.967 . S
O637 C645 1.258 . S
O638 Co613 1.941 . S
O638 C645 1.266 . S
H639 C641 0.959 . S
H640 C641 0.961 . S
C641 C631 1.510 . S
C641 H639 0.959 . S
C641 H640 0.961 . S
C641 H642 0.960 . S
H642 C641 0.960 . S
H643 N623 0.862 . S
O644 Co612 1.920 . S
O644 C617 1.289 . S
C645 O637 1.258 . S
C645 O638 1.266 . S
Co646 O649 1.970 . S
Co646 N663 1.989 . S
Co646 O671 1.967 . S
Co646 O678 1.920 . S
Co647 O650 1.966 . S
Co647 N656 2.022 . S
Co647 N664 1.993 . S
Co647 O672 1.941 . S
C648 O649 1.258 . S
C648 O650 1.263 . S
O649 Co646 1.970 . S
O649 C648 1.258 . S
O650 Co647 1.966 . S
O650 C648 1.263 . S
C651 O652 1.235 . S
C651 O678 1.289 . S
O652 C651 1.235 . S
C653 C655 1.400 . S
C653 N656 1.351 . S
C653 C658 1.501 . S
C654 C655 1.387 . S
C654 N657 1.341 . S
C655 C653 1.400 . S
C655 C654 1.387 . S
N656 Co647 2.022 . S
N656 C653 1.351 . S
N656 N657 1.365 . S
N657 C654 1.341 . S
N657 N656 1.365 . S
N657 H677 0.862 . S
C658 C653 1.501 . S
C658 H659 0.961 . S
C658 H660 0.961 . S
C658 H661 0.960 . S
H659 C658 0.961 . S
H660 C658 0.961 . S
H661 C658 0.960 . S
C662 N663 1.342 . S
C662 C666 1.401 . S
C662 C667 1.499 . S
N663 Co646 1.989 . S
N663 C662 1.342 . S
N663 N664 1.388 . S
N664 Co647 1.993 . S
N664 N663 1.388 . S
N664 C665 1.346 . S
C665 N664 1.346 . S
C665 C666 1.396 . S
C665 C675 1.510 . S
C666 C662 1.401 . S
C666 C665 1.396 . S
C667 C662 1.499 . S
C667 H668 0.959 . S
C667 H669 0.960 . S
C667 H670 0.961 . S
H668 C667 0.959 . S
H669 C667 0.960 . S
H670 C667 0.961 . S
O671 Co646 1.967 . S
O671 C679 1.258 . S
O672 Co647 1.941 . S
O672 C679 1.266 . S
H673 C675 0.959 . S
H674 C675 0.961 . S
C675 C665 1.510 . S
C675 H673 0.959 . S
C675 H674 0.961 . S
C675 H676 0.960 . S
H676 C675 0.960 . S
H677 N657 0.862 . S
O678 Co646 1.920 . S
O678 C651 1.289 . S
C679 O671 1.258 . S
C679 O672 1.266 . S
Co680 O683 1.970 . S
Co680 N697 1.989 . S
Co680 O705 1.967 . S
Co680 O712 1.920 . S
Co681 O684 1.966 . S
Co681 N690 2.022 . S
Co681 N698 1.993 . S
Co681 O706 1.941 . S
C682 O683 1.258 . S
C682 O684 1.263 . S
O683 Co680 1.970 . S
O683 C682 1.258 . S
O684 Co681 1.966 . S
O684 C682 1.263 . S
C685 O686 1.236 . S
C685 O712 1.289 1_565 S
O686 C685 1.236 . S
C687 C689 1.400 . S
C687 N690 1.351 . S
C687 C692 1.501 . S
C688 C689 1.387 . S
C688 N691 1.341 . S
C689 C687 1.400 . S
C689 C688 1.387 . S
N690 Co681 2.022 . S
N690 C687 1.351 . S
N690 N691 1.365 . S
N691 C688 1.341 . S
N691 N690 1.365 . S
N691 H711 0.862 . S
C692 C687 1.501 . S
C692 H693 0.961 . S
C692 H694 0.961 . S
C692 H695 0.960 . S
H693 C692 0.961 . S
H694 C692 0.961 . S
H695 C692 0.960 . S
C696 N697 1.342 . S
C696 C700 1.401 . S
C696 C701 1.499 1_655 S
N697 Co680 1.989 . S
N697 C696 1.342 . S
N697 N698 1.388 . S
N698 Co681 1.993 . S
N698 N697 1.388 . S
N698 C699 1.346 . S
C699 N698 1.346 . S
C699 C700 1.396 . S
C699 C709 1.510 . S
C700 C696 1.401 . S
C700 C699 1.396 . S
C701 C696 1.499 1_455 S
C701 H702 0.959 1_455 S
C701 H703 0.960 . S
C701 H704 0.961 . S
H702 C701 0.959 1_655 S
H703 C701 0.960 . S
H704 C701 0.961 . S
O705 Co680 1.967 . S
O705 C713 1.258 . S
O706 Co681 1.941 . S
O706 C713 1.266 . S
H707 C709 0.959 . S
H708 C709 0.961 . S
C709 C699 1.510 . S
C709 H707 0.959 . S
C709 H708 0.961 . S
C709 H710 0.960 . S
H710 C709 0.960 . S
H711 N691 0.862 . S
O712 Co680 1.920 . S
O712 C685 1.289 1_545 S
C713 O705 1.258 . S
C713 O706 1.266 . S
Co714 O717 1.970 . S
Co714 N731 1.989 . S
Co714 O739 1.967 . S
Co714 O746 1.920 . S
Co715 O718 1.966 . S
Co715 N724 2.022 . S
Co715 N732 1.993 . S
Co715 O740 1.941 . S
C716 O717 1.258 . S
C716 O718 1.263 . S
O717 Co714 1.970 . S
O717 C716 1.258 . S
O718 Co715 1.966 . S
O718 C716 1.263 . S
C719 O720 1.235 . S
C719 O746 1.289 . S
O720 C719 1.235 . S
C721 C723 1.400 . S
C721 N724 1.351 . S
C721 C726 1.501 . S
C722 C723 1.387 . S
C722 N725 1.341 . S
C723 C721 1.400 . S
C723 C722 1.387 . S
N724 Co715 2.022 . S
N724 C721 1.351 . S
N724 N725 1.365 . S
N725 C722 1.341 . S
N725 N724 1.365 . S
N725 H745 0.862 . S
C726 C721 1.501 . S
C726 H727 0.961 . S
C726 H728 0.961 . S
C726 H729 0.960 . S
H727 C726 0.961 . S
H728 C726 0.961 . S
H729 C726 0.960 . S
C730 N731 1.342 . S
C730 C734 1.401 . S
C730 C735 1.499 . S
N731 Co714 1.989 . S
N731 C730 1.342 . S
N731 N732 1.388 . S
N732 Co715 1.993 . S
N732 N731 1.388 . S
N732 C733 1.346 . S
C733 N732 1.346 . S
C733 C734 1.396 . S
C733 C743 1.510 . S
C734 C730 1.401 . S
C734 C733 1.396 . S
C735 C730 1.499 . S
C735 H736 0.959 . S
C735 H737 0.960 . S
C735 H738 0.961 . S
H736 C735 0.959 . S
H737 C735 0.960 . S
H738 C735 0.961 . S
O739 Co714 1.967 . S
O739 C747 1.258 . S
O740 Co715 1.941 . S
O740 C747 1.266 . S
H741 C743 0.959 . S
H742 C743 0.961 . S
C743 C733 1.510 . S
C743 H741 0.959 . S
C743 H742 0.961 . S
C743 H744 0.960 . S
H744 C743 0.960 . S
H745 N725 0.862 . S
O746 Co714 1.920 . S
O746 C719 1.289 . S
C747 O739 1.258 . S
C747 O740 1.266 . S
Co748 O751 1.970 . S
Co748 N765 1.989 . S
Co748 O773 1.967 . S
Co748 O780 1.920 . S
Co749 O752 1.966 . S
Co749 N758 2.022 . S
Co749 N766 1.993 . S
Co749 O774 1.941 . S
C750 O751 1.258 . S
C750 O752 1.263 . S
O751 Co748 1.970 . S
O751 C750 1.258 . S
O752 Co749 1.966 . S
O752 C750 1.263 . S
C753 O754 1.235 . S
C753 O780 1.289 . S
O754 C753 1.235 . S
C755 C757 1.400 . S
C755 N758 1.351 . S
C755 C760 1.501 . S
C756 C757 1.387 . S
C756 N759 1.341 . S
C757 C755 1.400 . S
C757 C756 1.387 . S
N758 Co749 2.022 . S
N758 C755 1.351 . S
N758 N759 1.365 . S
N759 C756 1.341 . S
N759 N758 1.365 . S
N759 H779 0.862 . S
C760 C755 1.501 . S
C760 H761 0.961 . S
C760 H762 0.961 . S
C760 H763 0.960 . S
H761 C760 0.961 . S
H762 C760 0.961 . S
H763 C760 0.960 . S
C764 N765 1.342 . S
C764 C768 1.401 . S
C764 C769 1.499 1_455 S
N765 Co748 1.989 . S
N765 C764 1.342 . S
N765 N766 1.388 . S
N766 Co749 1.993 . S
N766 N765 1.388 . S
N766 C767 1.346 . S
C767 N766 1.346 . S
C767 C768 1.396 . S
C767 C777 1.510 . S
C768 C764 1.401 . S
C768 C767 1.396 . S
C769 C764 1.499 1_655 S
C769 H770 0.959 1_655 S
C769 H771 0.960 . S
C769 H772 0.961 . S
H770 C769 0.959 1_455 S
H771 C769 0.960 . S
H772 C769 0.961 . S
O773 Co748 1.967 . S
O773 C781 1.258 . S
O774 Co749 1.941 . S
O774 C781 1.266 . S
H775 C777 0.959 . S
H776 C777 0.961 . S
C777 C767 1.510 . S
C777 H775 0.959 . S
C777 H776 0.961 . S
C777 H778 0.960 . S
H778 C777 0.960 . S
H779 N759 0.862 . S
O780 Co748 1.920 . S
O780 C753 1.289 . S
C781 O773 1.258 . S
C781 O774 1.266 . S
Co782 O785 1.970 . S
Co782 N799 1.989 . S
Co782 O807 1.967 . S
Co782 O814 1.920 . S
Co783 O786 1.966 . S
Co783 N792 2.022 . S
Co783 N800 1.993 . S
Co783 O808 1.941 . S
C784 O785 1.258 . S
C784 O786 1.263 . S
O785 Co782 1.970 . S
O785 C784 1.258 . S
O786 Co783 1.966 . S
O786 C784 1.263 . S
C787 O788 1.235 . S
C787 O814 1.289 . S
O788 C787 1.235 . S
C789 C791 1.400 . S
C789 N792 1.351 . S
C789 C794 1.501 . S
C790 C791 1.387 . S
C790 N793 1.341 . S
C791 C789 1.400 . S
C791 C790 1.387 . S
N792 Co783 2.022 . S
N792 C789 1.351 . S
N792 N793 1.365 . S
N793 C790 1.341 . S
N793 N792 1.365 . S
N793 H813 0.862 . S
C794 C789 1.501 . S
C794 H795 0.961 . S
C794 H796 0.961 . S
C794 H797 0.960 . S
H795 C794 0.961 . S
H796 C794 0.961 . S
H797 C794 0.960 . S
C798 N799 1.342 . S
C798 C802 1.401 . S
C798 C803 1.499 . S
N799 Co782 1.989 . S
N799 C798 1.342 . S
N799 N800 1.388 . S
N800 Co783 1.993 . S
N800 N799 1.388 . S
N800 C801 1.346 . S
C801 N800 1.346 . S
C801 C802 1.396 . S
C801 C811 1.510 . S
C802 C798 1.401 . S
C802 C801 1.396 . S
C803 C798 1.499 . S
C803 H804 0.959 . S
C803 H805 0.960 . S
C803 H806 0.961 . S
H804 C803 0.959 . S
H805 C803 0.960 . S
H806 C803 0.961 . S
O807 Co782 1.967 . S
O807 C815 1.258 . S
O808 Co783 1.941 . S
O808 C815 1.266 . S
H809 C811 0.959 . S
H810 C811 0.961 . S
C811 C801 1.510 . S
C811 H809 0.959 . S
C811 H810 0.961 . S
C811 H812 0.960 . S
H812 C811 0.960 . S
H813 N793 0.862 . S
O814 Co782 1.920 . S
O814 C787 1.289 . S
C815 O807 1.258 . S
C815 O808 1.266 . S
Co816 O819 1.970 . S
Co816 N833 1.989 . S
Co816 O841 1.967 1_655 S
Co816 O848 1.920 1_655 S
Co817 O820 1.966 . S
Co817 N826 2.022 . S
Co817 N834 1.993 . S
Co817 O842 1.941 . S
C818 O819 1.258 . S
C818 O820 1.263 . S
O819 Co816 1.970 . S
O819 C818 1.258 . S
O820 Co817 1.966 . S
O820 C818 1.263 . S
C821 O822 1.235 1_455 S
C821 O848 1.289 . S
O822 C821 1.235 1_655 S
C823 C825 1.400 . S
C823 N826 1.351 . S
C823 C828 1.501 . S
C824 C825 1.387 . S
C824 N827 1.341 . S
C825 C823 1.400 . S
C825 C824 1.387 . S
N826 Co817 2.022 . S
N826 C823 1.351 . S
N826 N827 1.365 . S
N827 C824 1.341 . S
N827 N826 1.365 . S
N827 H847 0.862 . S
C828 C823 1.501 . S
C828 H829 0.961 . S
C828 H830 0.961 . S
C828 H831 0.960 . S
H829 C828 0.961 . S
H830 C828 0.961 . S
H831 C828 0.960 . S
C832 N833 1.342 . S
C832 C836 1.401 . S
C832 C837 1.499 1_655 S
N833 Co816 1.989 . S
N833 C832 1.342 . S
N833 N834 1.388 . S
N834 Co817 1.993 . S
N834 N833 1.388 . S
N834 C835 1.346 . S
C835 N834 1.346 . S
C835 C836 1.396 . S
C835 C845 1.510 . S
C836 C832 1.401 . S
C836 C835 1.396 . S
C837 C832 1.499 1_455 S
C837 H838 0.959 . S
C837 H839 0.960 1_455 S
C837 H840 0.961 . S
H838 C837 0.959 . S
H839 C837 0.960 1_655 S
H840 C837 0.961 . S
O841 Co816 1.967 1_455 S
O841 C849 1.260 . S
O842 Co817 1.941 . S
O842 C849 1.239 1_655 S
H843 C845 0.959 . S
H844 C845 0.961 . S
C845 C835 1.510 . S
C845 H843 0.959 . S
C845 H844 0.961 . S
C845 H846 0.960 . S
H846 C845 0.960 . S
H847 N827 0.862 . S
O848 Co816 1.920 1_455 S
O848 C821 1.289 . S
C849 O841 1.260 . S
C849 O842 1.239 1_455 S
Co850 O853 1.970 . S
Co850 N867 1.989 . S
Co850 O875 1.967 . S
Co850 O882 1.920 . S
Co851 O854 1.966 . S
Co851 N860 2.022 . S
Co851 N868 1.993 . S
Co851 O876 1.941 . S
C852 O853 1.258 . S
C852 O854 1.263 . S
O853 Co850 1.970 . S
O853 C852 1.258 . S
O854 Co851 1.966 . S
O854 C852 1.263 . S
C855 O856 1.236 . S
C855 O882 1.289 1_455 S
O856 C855 1.236 . S
C857 C859 1.400 . S
C857 N860 1.351 . S
C857 C862 1.501 . S
C858 C859 1.387 . S
C858 N861 1.341 . S
C859 C857 1.400 . S
C859 C858 1.387 . S
N860 Co851 2.022 . S
N860 C857 1.351 . S
N860 N861 1.365 . S
N861 C858 1.341 . S
N861 N860 1.365 . S
N861 H881 0.862 . S
C862 C857 1.501 . S
C862 H863 0.961 . S
C862 H864 0.961 . S
C862 H865 0.960 . S
H863 C862 0.961 . S
H864 C862 0.961 . S
H865 C862 0.960 . S
C866 N867 1.342 . S
C866 C870 1.401 . S
C866 C871 1.499 . S
N867 Co850 1.989 . S
N867 C866 1.342 . S
N867 N868 1.388 . S
N868 Co851 1.993 . S
N868 N867 1.388 . S
N868 C869 1.346 . S
C869 N868 1.346 . S
C869 C870 1.396 . S
C869 C879 1.510 . S
C870 C866 1.401 . S
C870 C869 1.396 . S
C871 C866 1.499 . S
C871 H872 0.959 . S
C871 H873 0.960 . S
C871 H874 0.961 . S
H872 C871 0.959 . S
H873 C871 0.960 . S
H874 C871 0.961 . S
O875 Co850 1.967 . S
O875 C883 1.258 . S
O876 Co851 1.941 . S
O876 C883 1.266 . S
H877 C879 0.959 . S
H878 C879 0.961 . S
C879 C869 1.510 . S
C879 H877 0.959 . S
C879 H878 0.961 . S
C879 H880 0.960 . S
H880 C879 0.960 . S
H881 N861 0.862 . S
O882 Co850 1.920 . S
O882 C855 1.289 1_655 S
C883 O875 1.258 . S
C883 O876 1.266 . S
Co884 O887 1.970 . S
Co884 N901 1.989 . S
Co884 O909 1.967 . S
Co884 O916 1.920 . S
Co885 O888 1.966 . S
Co885 N894 2.022 . S
Co885 N902 1.993 . S
Co885 O910 1.941 . S
C886 O887 1.258 . S
C886 O888 1.263 . S
O887 Co884 1.970 . S
O887 C886 1.258 . S
O888 Co885 1.966 . S
O888 C886 1.263 . S
C889 O890 1.235 . S
C889 O916 1.289 . S
O890 C889 1.235 . S
C891 C893 1.400 . S
C891 N894 1.351 . S
C891 C896 1.501 . S
C892 C893 1.387 . S
C892 N895 1.341 . S
C893 C891 1.400 . S
C893 C892 1.387 . S
N894 Co885 2.022 . S
N894 C891 1.351 . S
N894 N895 1.365 . S
N895 C892 1.341 . S
N895 N894 1.365 . S
N895 H915 0.862 . S
C896 C891 1.501 . S
C896 H897 0.961 . S
C896 H898 0.961 . S
C896 H899 0.960 . S
H897 C896 0.961 . S
H898 C896 0.961 . S
H899 C896 0.960 . S
C900 N901 1.342 . S
C900 C904 1.401 . S
C900 C905 1.499 . S
N901 Co884 1.989 . S
N901 C900 1.342 . S
N901 N902 1.388 . S
N902 Co885 1.993 . S
N902 N901 1.388 . S
N902 C903 1.346 . S
C903 N902 1.346 . S
C903 C904 1.396 . S
C903 C913 1.510 . S
C904 C900 1.401 . S
C904 C903 1.396 . S
C905 C900 1.499 . S
C905 H906 0.959 . S
C905 H907 0.960 . S
C905 H908 0.961 . S
H906 C905 0.959 . S
H907 C905 0.960 . S
H908 C905 0.961 . S
O909 Co884 1.967 . S
O909 C917 1.258 . S
O910 Co885 1.941 . S
O910 C917 1.266 . S
H911 C913 0.959 . S
H912 C913 0.961 . S
C913 C903 1.510 . S
C913 H911 0.959 . S
C913 H912 0.961 . S
C913 H914 0.960 . S
H914 C913 0.960 . S
H915 N895 0.862 . S
O916 Co884 1.920 . S
O916 C889 1.289 . S
C917 O909 1.258 . S
C917 O910 1.266 . S
Co918 O921 1.970 . S
Co918 N935 1.989 . S
Co918 O943 1.967 . S
Co918 O950 1.920 . S
Co919 O922 1.966 . S
Co919 N928 2.022 . S
Co919 N936 1.993 . S
Co919 O944 1.941 . S
C920 O921 1.258 . S
C920 O922 1.263 . S
O921 Co918 1.970 . S
O921 C920 1.258 . S
O922 Co919 1.966 . S
O922 C920 1.263 . S
C923 O924 1.235 . S
C923 O950 1.289 . S
O924 C923 1.235 . S
C925 C927 1.400 . S
C925 N928 1.351 . S
C925 C930 1.501 . S
C926 C927 1.387 . S
C926 N929 1.341 . S
C927 C925 1.400 . S
C927 C926 1.387 . S
N928 Co919 2.022 . S
N928 C925 1.351 . S
N928 N929 1.365 . S
N929 C926 1.341 . S
N929 N928 1.365 . S
N929 H949 0.862 . S
C930 C925 1.501 . S
C930 H931 0.961 . S
C930 H932 0.961 . S
C930 H933 0.960 . S
H931 C930 0.961 . S
H932 C930 0.961 . S
H933 C930 0.960 . S
C934 N935 1.342 . S
C934 C938 1.401 . S
C934 C939 1.499 1_556 S
N935 Co918 1.989 . S
N935 C934 1.342 . S
N935 N936 1.388 . S
N936 Co919 1.993 . S
N936 N935 1.388 . S
N936 C937 1.346 . S
C937 N936 1.346 . S
C937 C938 1.396 . S
C937 C947 1.510 . S
C938 C934 1.401 . S
C938 C937 1.396 . S
C939 C934 1.499 1_554 S
C939 H940 0.959 1_554 S
C939 H941 0.960 . S
C939 H942 0.961 . S
H940 C939 0.959 1_556 S
H941 C939 0.960 . S
H942 C939 0.961 . S
O943 Co918 1.967 . S
O943 C951 1.258 . S
O944 Co919 1.941 . S
O944 C951 1.266 . S
H945 C947 0.959 . S
H946 C947 0.961 . S
C947 C937 1.510 . S
C947 H945 0.959 . S
C947 H946 0.961 . S
C947 H948 0.960 . S
H948 C947 0.960 . S
H949 N929 0.862 . S
O950 Co918 1.920 . S
O950 C923 1.289 . S
C951 O943 1.258 . S
C951 O944 1.266 . S
Co952 O955 1.970 . S
Co952 N969 1.989 . S
Co952 O977 1.967 1_655 S
Co952 O984 1.920 1_655 S
Co953 O956 1.966 . S
Co953 N962 2.022 . S
Co953 N970 1.993 . S
Co953 O978 1.941 . S
C954 O955 1.258 . S
C954 O956 1.263 . S
O955 Co952 1.970 . S
O955 C954 1.258 . S
O956 Co953 1.966 . S
O956 C954 1.263 . S
C957 O958 1.235 1_455 S
C957 O984 1.289 . S
O958 C957 1.235 1_655 S
C959 C961 1.400 . S
C959 N962 1.351 . S
C959 C964 1.501 . S
C960 C961 1.387 . S
C960 N963 1.341 . S
C961 C959 1.400 . S
C961 C960 1.387 . S
N962 Co953 2.022 . S
N962 C959 1.351 . S
N962 N963 1.365 . S
N963 C960 1.341 . S
N963 N962 1.365 . S
N963 H983 0.862 . S
C964 C959 1.501 . S
C964 H965 0.961 . S
C964 H966 0.961 . S
C964 H967 0.960 . S
H965 C964 0.961 . S
H966 C964 0.961 . S
H967 C964 0.960 . S
C968 N969 1.342 . S
C968 C972 1.401 . S
C968 C973 1.499 1_655 S
N969 Co952 1.989 . S
N969 C968 1.342 . S
N969 N970 1.388 . S
N970 Co953 1.993 . S
N970 N969 1.388 . S
N970 C971 1.346 . S
C971 N970 1.346 . S
C971 C972 1.396 . S
C971 C981 1.510 . S
C972 C968 1.401 . S
C972 C971 1.396 . S
C973 C968 1.499 1_455 S
C973 H974 0.959 . S
C973 H975 0.960 1_455 S
C973 H976 0.961 . S
H974 C973 0.959 . S
H975 C973 0.960 1_655 S
H976 C973 0.961 . S
O977 Co952 1.967 1_455 S
O977 C985 1.260 . S
O978 Co953 1.941 . S
O978 C985 1.238 1_655 S
H979 C981 0.959 . S
H980 C981 0.961 . S
C981 C971 1.510 . S
C981 H979 0.959 . S
C981 H980 0.961 . S
C981 H982 0.960 . S
H982 C981 0.960 . S
H983 N963 0.862 . S
O984 Co952 1.920 1_455 S
O984 C957 1.289 . S
C985 O977 1.260 . S
C985 O978 1.238 1_455 S
Co986 O989 1.970 . S
Co986 N1003 1.989 . S
Co986 O1011 1.967 . S
Co986 O1018 1.920 . S
Co987 O990 1.966 . S
Co987 N996 2.022 . S
Co987 N1004 1.993 . S
Co987 O1012 1.941 . S
C988 O989 1.258 . S
C988 O990 1.263 . S
O989 Co986 1.970 . S
O989 C988 1.258 . S
O990 Co987 1.966 . S
O990 C988 1.263 . S
C991 O992 1.235 . S
C991 O1018 1.289 . S
O992 C991 1.235 . S
C993 C995 1.400 . S
C993 N996 1.351 . S
C993 C998 1.501 . S
C994 C995 1.387 . S
C994 N997 1.341 . S
C995 C993 1.400 . S
C995 C994 1.387 . S
N996 Co987 2.022 . S
N996 C993 1.351 . S
N996 N997 1.365 . S
N997 C994 1.341 . S
N997 N996 1.365 . S
N997 H1017 0.862 . S
C998 C993 1.501 . S
C998 H999 0.961 . S
C998 H1000 0.961 . S
C998 H1001 0.960 . S
H999 C998 0.961 . S
H1000 C998 0.961 . S
H1001 C998 0.960 . S
C1002 N1003 1.342 . S
C1002 C1006 1.401 . S
C1002 C1007 1.499 . S
N1003 Co986 1.989 . S
N1003 C1002 1.342 . S
N1003 N1004 1.388 . S
N1004 Co987 1.993 . S
N1004 N1003 1.388 . S
N1004 C1005 1.346 . S
C1005 N1004 1.346 . S
C1005 C1006 1.396 . S
C1005 C1015 1.510 . S
C1006 C1002 1.401 . S
C1006 C1005 1.396 . S
C1007 C1002 1.499 . S
C1007 H1008 0.959 . S
C1007 H1009 0.960 . S
C1007 H1010 0.961 . S
H1008 C1007 0.959 . S
H1009 C1007 0.960 . S
H1010 C1007 0.961 . S
O1011 Co986 1.967 . S
O1011 C1019 1.258 . S
O1012 Co987 1.941 . S
O1012 C1019 1.266 . S
H1013 C1015 0.959 . S
H1014 C1015 0.961 . S
C1015 C1005 1.510 . S
C1015 H1013 0.959 . S
C1015 H1014 0.961 . S
C1015 H1016 0.960 . S
H1016 C1015 0.960 . S
H1017 N997 0.862 . S
O1018 Co986 1.920 . S
O1018 C991 1.289 . S
C1019 O1011 1.258 . S
C1019 O1012 1.266 . S
Co1020 O1023 1.970 . S
Co1020 N1037 1.989 . S
Co1020 O1045 1.967 . S
Co1020 O1052 1.920 . S
Co1021 O1024 1.966 . S
Co1021 N1030 2.022 . S
Co1021 N1038 1.993 . S
Co1021 O1046 1.941 . S
C1022 O1023 1.258 . S
C1022 O1024 1.263 . S
O1023 Co1020 1.970 . S
O1023 C1022 1.258 . S
O1024 Co1021 1.966 . S
O1024 C1022 1.263 . S
C1025 O1026 1.235 . S
C1025 O1052 1.289 . S
O1026 C1025 1.235 . S
C1027 C1029 1.400 . S
C1027 N1030 1.351 . S
C1027 C1032 1.501 . S
C1028 C1029 1.387 . S
C1028 N1031 1.341 . S
C1029 C1027 1.400 . S
C1029 C1028 1.387 . S
N1030 Co1021 2.022 . S
N1030 C1027 1.351 . S
N1030 N1031 1.365 . S
N1031 C1028 1.341 . S
N1031 N1030 1.365 . S
N1031 H1051 0.862 . S
C1032 C1027 1.501 . S
C1032 H1033 0.961 . S
C1032 H1034 0.961 . S
C1032 H1035 0.960 . S
H1033 C1032 0.961 . S
H1034 C1032 0.961 . S
H1035 C1032 0.960 . S
C1036 N1037 1.342 . S
C1036 C1040 1.401 . S
C1036 C1041 1.499 . S
N1037 Co1020 1.989 . S
N1037 C1036 1.342 . S
N1037 N1038 1.388 . S
N1038 Co1021 1.993 . S
N1038 N1037 1.388 . S
N1038 C1039 1.346 . S
C1039 N1038 1.346 . S
C1039 C1040 1.396 . S
C1039 C1049 1.510 . S
C1040 C1036 1.401 . S
C1040 C1039 1.396 . S
C1041 C1036 1.499 . S
C1041 H1042 0.959 . S
C1041 H1043 0.960 . S
C1041 H1044 0.961 . S
H1042 C1041 0.959 . S
H1043 C1041 0.960 . S
H1044 C1041 0.961 . S
O1045 Co1020 1.967 . S
O1045 C1053 1.258 . S
O1046 Co1021 1.941 . S
O1046 C1053 1.266 . S
H1047 C1049 0.959 . S
H1048 C1049 0.961 . S
C1049 C1039 1.510 . S
C1049 H1047 0.959 . S
C1049 H1048 0.961 . S
C1049 H1050 0.960 . S
H1050 C1049 0.960 . S
H1051 N1031 0.862 . S
O1052 Co1020 1.920 . S
O1052 C1025 1.289 . S
C1053 O1045 1.258 . S
C1053 O1046 1.266 . S
Co1054 O1057 1.970 . S
Co1054 N1071 1.989 . S
Co1054 O1079 1.967 . S
Co1054 O1086 1.920 . S
Co1055 O1058 1.966 . S
Co1055 N1064 2.022 . S
Co1055 N1072 1.993 . S
Co1055 O1080 1.941 . S
C1056 O1057 1.258 . S
C1056 O1058 1.263 . S
O1057 Co1054 1.970 . S
O1057 C1056 1.258 . S
O1058 Co1055 1.966 . S
O1058 C1056 1.263 . S
C1059 O1060 1.236 . S
C1059 O1086 1.289 1_455 S
O1060 C1059 1.236 . S
C1061 C1063 1.400 . S
C1061 N1064 1.351 . S
C1061 C1066 1.501 . S
C1062 C1063 1.387 . S
C1062 N1065 1.341 . S
C1063 C1061 1.400 . S
C1063 C1062 1.387 . S
N1064 Co1055 2.022 . S
N1064 C1061 1.351 . S
N1064 N1065 1.365 . S
N1065 C1062 1.341 . S
N1065 N1064 1.365 . S
N1065 H1085 0.862 . S
C1066 C1061 1.501 . S
C1066 H1067 0.961 . S
C1066 H1068 0.961 . S
C1066 H1069 0.960 . S
H1067 C1066 0.961 . S
H1068 C1066 0.961 . S
H1069 C1066 0.960 . S
C1070 N1071 1.342 . S
C1070 C1074 1.401 . S
C1070 C1075 1.499 1_554 S
N1071 Co1054 1.989 . S
N1071 C1070 1.342 . S
N1071 N1072 1.388 . S
N1072 Co1055 1.993 . S
N1072 N1071 1.388 . S
N1072 C1073 1.346 . S
C1073 N1072 1.346 . S
C1073 C1074 1.396 . S
C1073 C1083 1.510 . S
C1074 C1070 1.401 . S
C1074 C1073 1.396 . S
C1075 C1070 1.499 1_556 S
C1075 H1076 0.959 1_556 S
C1075 H1077 0.960 . S
C1075 H1078 0.961 . S
H1076 C1075 0.959 1_554 S
H1077 C1075 0.960 . S
H1078 C1075 0.961 . S
O1079 Co1054 1.967 . S
O1079 C1087 1.258 . S
O1080 Co1055 1.941 . S
O1080 C1087 1.266 . S
H1081 C1083 0.959 . S
H1082 C1083 0.961 . S
C1083 C1073 1.510 . S
C1083 H1081 0.959 . S
C1083 H1082 0.961 . S
C1083 H1084 0.960 . S
H1084 C1083 0.960 . S
H1085 N1065 0.862 . S
O1086 Co1054 1.920 . S
O1086 C1059 1.289 1_655 S
C1087 O1079 1.258 . S
C1087 O1080 1.266 . S
Co1088 O1091 1.970 . S
Co1088 N1105 1.989 . S
Co1088 O1113 1.967 1_565 S
Co1088 O1120 1.920 1_565 S
Co1089 O1092 1.966 . S
Co1089 N1098 2.022 . S
Co1089 N1106 1.993 . S
Co1089 O1114 1.941 . S
C1090 O1091 1.258 . S
C1090 O1092 1.263 . S
O1091 Co1088 1.970 . S
O1091 C1090 1.258 . S
O1092 Co1089 1.966 . S
O1092 C1090 1.263 . S
C1093 O1094 1.235 1_545 S
C1093 O1120 1.289 . S
O1094 C1093 1.235 1_565 S
C1095 C1097 1.400 . S
C1095 N1098 1.351 . S
C1095 C1100 1.501 . S
C1096 C1097 1.387 . S
C1096 N1099 1.341 . S
C1097 C1095 1.400 . S
C1097 C1096 1.387 . S
N1098 Co1089 2.022 . S
N1098 C1095 1.351 . S
N1098 N1099 1.365 . S
N1099 C1096 1.341 . S
N1099 N1098 1.365 . S
N1099 H1119 0.862 . S
C1100 C1095 1.501 . S
C1100 H1101 0.961 . S
C1100 H1102 0.961 . S
C1100 H1103 0.960 . S
H1101 C1100 0.961 . S
H1102 C1100 0.961 . S
H1103 C1100 0.960 . S
C1104 N1105 1.342 . S
C1104 C1108 1.401 . S
C1104 C1109 1.499 1_565 S
N1105 Co1088 1.989 . S
N1105 C1104 1.342 . S
N1105 N1106 1.388 . S
N1106 Co1089 1.993 . S
N1106 N1105 1.388 . S
N1106 C1107 1.346 . S
C1107 N1106 1.346 . S
C1107 C1108 1.396 . S
C1107 C1117 1.510 . S
C1108 C1104 1.401 . S
C1108 C1107 1.396 . S
C1109 C1104 1.499 1_545 S
C1109 H1110 0.959 . S
C1109 H1111 0.960 1_545 S
C1109 H1112 0.961 . S
H1110 C1109 0.959 . S
H1111 C1109 0.960 1_565 S
H1112 C1109 0.961 . S
O1113 Co1088 1.967 1_545 S
O1113 C1121 1.260 . S
O1114 Co1089 1.941 . S
O1114 C1121 1.239 1_565 S
H1115 C1117 0.959 . S
H1116 C1117 0.961 . S
C1117 C1107 1.510 . S
C1117 H1115 0.959 . S
C1117 H1116 0.961 . S
C1117 H1118 0.960 . S
H1118 C1117 0.960 . S
H1119 N1099 0.862 . S
O1120 Co1088 1.920 1_545 S
O1120 C1093 1.289 . S
C1121 O1113 1.260 . S
C1121 O1114 1.239 1_545 S
Co1122 O1125 1.970 . S
Co1122 N1139 1.989 . S
Co1122 O1147 1.967 . S
Co1122 O1154 1.920 . S
Co1123 O1126 1.966 . S
Co1123 N1132 2.022 . S
Co1123 N1140 1.993 . S
Co1123 O1148 1.941 . S
C1124 O1125 1.258 . S
C1124 O1126 1.263 . S
O1125 Co1122 1.970 . S
O1125 C1124 1.258 . S
O1126 Co1123 1.966 . S
O1126 C1124 1.263 . S
C1127 O1128 1.235 . S
C1127 O1154 1.289 . S
O1128 C1127 1.235 . S
C1129 C1131 1.400 . S
C1129 N1132 1.351 . S
C1129 C1134 1.501 . S
C1130 C1131 1.387 . S
C1130 N1133 1.341 . S
C1131 C1129 1.400 . S
C1131 C1130 1.387 . S
N1132 Co1123 2.022 . S
N1132 C1129 1.351 . S
N1132 N1133 1.365 . S
N1133 C1130 1.341 . S
N1133 N1132 1.365 . S
N1133 H1153 0.862 . S
C1134 C1129 1.501 . S
C1134 H1135 0.961 . S
C1134 H1136 0.961 . S
C1134 H1137 0.960 . S
H1135 C1134 0.961 . S
H1136 C1134 0.961 . S
H1137 C1134 0.960 . S
C1138 N1139 1.342 . S
C1138 C1142 1.401 . S
C1138 C1143 1.499 1_565 S
N1139 Co1122 1.989 . S
N1139 C1138 1.342 . S
N1139 N1140 1.388 . S
N1140 Co1123 1.993 . S
N1140 N1139 1.388 . S
N1140 C1141 1.346 . S
C1141 N1140 1.346 . S
C1141 C1142 1.396 . S
C1141 C1151 1.510 . S
C1142 C1138 1.401 . S
C1142 C1141 1.396 . S
C1143 C1138 1.499 1_545 S
C1143 H1144 0.959 1_545 S
C1143 H1145 0.960 . S
C1143 H1146 0.961 . S
H1144 C1143 0.959 1_565 S
H1145 C1143 0.960 . S
H1146 C1143 0.961 . S
O1147 Co1122 1.967 . S
O1147 C1155 1.258 . S
O1148 Co1123 1.941 . S
O1148 C1155 1.266 . S
H1149 C1151 0.959 . S
H1150 C1151 0.961 . S
C1151 C1141 1.510 . S
C1151 H1149 0.959 . S
C1151 H1150 0.961 . S
C1151 H1152 0.960 . S
H1152 C1151 0.960 . S
H1153 N1133 0.862 . S
O1154 Co1122 1.920 . S
O1154 C1127 1.289 . S
C1155 O1147 1.258 . S
C1155 O1148 1.266 . S
Co1156 O1159 1.970 . S
Co1156 N1173 1.989 . S
Co1156 O1181 1.967 1_545 S
Co1156 O1188 1.920 1_545 S
Co1157 O1160 1.966 . S
Co1157 N1166 2.022 . S
Co1157 N1174 1.993 . S
Co1157 O1182 1.941 . S
C1158 O1159 1.258 . S
C1158 O1160 1.263 . S
O1159 Co1156 1.970 . S
O1159 C1158 1.258 . S
O1160 Co1157 1.966 . S
O1160 C1158 1.263 . S
C1161 O1162 1.235 1_565 S
C1161 O1188 1.289 . S
O1162 C1161 1.235 1_545 S
C1163 C1165 1.400 . S
C1163 N1166 1.351 . S
C1163 C1168 1.501 . S
C1164 C1165 1.387 . S
C1164 N1167 1.341 . S
C1165 C1163 1.400 . S
C1165 C1164 1.387 . S
N1166 Co1157 2.022 . S
N1166 C1163 1.351 . S
N1166 N1167 1.365 . S
N1167 C1164 1.341 . S
N1167 N1166 1.365 . S
N1167 H1187 0.862 . S
C1168 C1163 1.501 . S
C1168 H1169 0.961 . S
C1168 H1170 0.961 . S
C1168 H1171 0.960 . S
H1169 C1168 0.961 . S
H1170 C1168 0.961 . S
H1171 C1168 0.960 . S
C1172 N1173 1.342 . S
C1172 C1176 1.401 . S
C1172 C1177 1.499 1_545 S
N1173 Co1156 1.989 . S
N1173 C1172 1.342 . S
N1173 N1174 1.388 . S
N1174 Co1157 1.993 . S
N1174 N1173 1.388 . S
N1174 C1175 1.346 . S
C1175 N1174 1.346 . S
C1175 C1176 1.396 . S
C1175 C1185 1.510 . S
C1176 C1172 1.401 . S
C1176 C1175 1.396 . S
C1177 C1172 1.499 1_565 S
C1177 H1178 0.959 . S
C1177 H1179 0.960 1_565 S
C1177 H1180 0.961 . S
H1178 C1177 0.959 . S
H1179 C1177 0.960 1_545 S
H1180 C1177 0.961 . S
O1181 Co1156 1.967 1_565 S
O1181 C1189 1.260 . S
O1182 Co1157 1.941 . S
O1182 C1189 1.239 1_545 S
H1183 C1185 0.959 . S
H1184 C1185 0.961 . S
C1185 C1175 1.510 . S
C1185 H1183 0.959 . S
C1185 H1184 0.961 . S
C1185 H1186 0.960 . S
H1186 C1185 0.960 . S
H1187 N1167 0.862 . S
O1188 Co1156 1.920 1_565 S
O1188 C1161 1.289 . S
C1189 O1181 1.260 . S
C1189 O1182 1.239 1_565 S
Co1190 O1193 1.970 . S
Co1190 N1207 1.989 . S
Co1190 O1215 1.967 . S
Co1190 O1222 1.920 . S
Co1191 O1194 1.966 . S
Co1191 N1200 2.022 . S
Co1191 N1208 1.993 . S
Co1191 O1216 1.941 . S
C1192 O1193 1.258 . S
C1192 O1194 1.263 . S
O1193 Co1190 1.970 . S
O1193 C1192 1.258 . S
O1194 Co1191 1.966 . S
O1194 C1192 1.263 . S
C1195 O1196 1.236 . S
C1195 O1222 1.289 1_556 S
O1196 C1195 1.236 . S
C1197 C1199 1.400 . S
C1197 N1200 1.351 . S
C1197 C1202 1.501 . S
C1198 C1199 1.387 . S
C1198 N1201 1.341 . S
C1199 C1197 1.400 . S
C1199 C1198 1.387 . S
N1200 Co1191 2.022 . S
N1200 C1197 1.351 . S
N1200 N1201 1.365 . S
N1201 C1198 1.341 . S
N1201 N1200 1.365 . S
N1201 H1221 0.862 . S
C1202 C1197 1.501 . S
C1202 H1203 0.961 . S
C1202 H1204 0.961 . S
C1202 H1205 0.960 . S
H1203 C1202 0.961 . S
H1204 C1202 0.961 . S
H1205 C1202 0.960 . S
C1206 N1207 1.342 . S
C1206 C1210 1.401 . S
C1206 C1211 1.499 1_545 S
N1207 Co1190 1.989 . S
N1207 C1206 1.342 . S
N1207 N1208 1.388 . S
N1208 Co1191 1.993 . S
N1208 N1207 1.388 . S
N1208 C1209 1.346 . S
C1209 N1208 1.346 . S
C1209 C1210 1.396 . S
C1209 C1219 1.510 . S
C1210 C1206 1.401 . S
C1210 C1209 1.396 . S
C1211 C1206 1.499 1_565 S
C1211 H1212 0.959 1_565 S
C1211 H1213 0.960 . S
C1211 H1214 0.961 . S
H1212 C1211 0.959 1_545 S
H1213 C1211 0.960 . S
H1214 C1211 0.961 . S
O1215 Co1190 1.967 . S
O1215 C1223 1.258 . S
O1216 Co1191 1.941 . S
O1216 C1223 1.266 . S
H1217 C1219 0.959 . S
H1218 C1219 0.961 . S
C1219 C1209 1.510 . S
C1219 H1217 0.959 . S
C1219 H1218 0.961 . S
C1219 H1220 0.960 . S
H1220 C1219 0.960 . S
H1221 N1201 0.862 . S
O1222 Co1190 1.920 . S
O1222 C1195 1.289 1_554 S
C1223 O1215 1.258 . S
C1223 O1216 1.266 . S
Co1224 O1227 1.970 . S
Co1224 N1241 1.989 . S
Co1224 O1249 1.967 1_545 S
Co1224 O1256 1.920 1_545 S
Co1225 O1228 1.966 . S
Co1225 N1234 2.022 . S
Co1225 N1242 1.993 . S
Co1225 O1250 1.941 . S
C1226 O1227 1.258 . S
C1226 O1228 1.263 . S
O1227 Co1224 1.970 . S
O1227 C1226 1.258 . S
O1228 Co1225 1.966 . S
O1228 C1226 1.263 . S
C1229 O1230 1.235 1_565 S
C1229 O1256 1.289 . S
O1230 C1229 1.235 1_545 S
C1231 C1233 1.400 . S
C1231 N1234 1.351 . S
C1231 C1236 1.501 . S
C1232 C1233 1.387 . S
C1232 N1235 1.341 . S
C1233 C1231 1.400 . S
C1233 C1232 1.387 . S
N1234 Co1225 2.022 . S
N1234 C1231 1.351 . S
N1234 N1235 1.365 . S
N1235 C1232 1.341 . S
N1235 N1234 1.365 . S
N1235 H1255 0.862 . S
C1236 C1231 1.501 . S
C1236 H1237 0.961 . S
C1236 H1238 0.961 . S
C1236 H1239 0.960 . S
H1237 C1236 0.961 . S
H1238 C1236 0.961 . S
H1239 C1236 0.960 . S
C1240 N1241 1.342 . S
C1240 C1244 1.401 . S
C1240 C1245 1.499 1_545 S
N1241 Co1224 1.989 . S
N1241 C1240 1.342 . S
N1241 N1242 1.388 . S
N1242 Co1225 1.993 . S
N1242 N1241 1.388 . S
N1242 C1243 1.346 . S
C1243 N1242 1.346 . S
C1243 C1244 1.396 . S
C1243 C1253 1.510 . S
C1244 C1240 1.401 . S
C1244 C1243 1.396 . S
C1245 C1240 1.499 1_565 S
C1245 H1246 0.959 . S
C1245 H1247 0.960 1_565 S
C1245 H1248 0.961 . S
H1246 C1245 0.959 . S
H1247 C1245 0.960 1_545 S
H1248 C1245 0.961 . S
O1249 Co1224 1.967 1_565 S
O1249 C1257 1.260 . S
O1250 Co1225 1.941 . S
O1250 C1257 1.239 1_545 S
H1251 C1253 0.959 . S
H1252 C1253 0.961 . S
C1253 C1243 1.510 . S
C1253 H1251 0.959 . S
C1253 H1252 0.961 . S
C1253 H1254 0.960 . S
H1254 C1253 0.960 . S
H1255 N1235 0.862 . S
O1256 Co1224 1.920 1_565 S
O1256 C1229 1.289 . S
C1257 O1249 1.260 . S
C1257 O1250 1.239 1_565 S
Co1258 O1261 1.970 . S
Co1258 N1275 1.989 . S
Co1258 O1283 1.967 . S
Co1258 O1290 1.920 . S
Co1259 O1262 1.966 . S
Co1259 N1268 2.022 . S
Co1259 N1276 1.993 . S
Co1259 O1284 1.941 . S
C1260 O1261 1.258 . S
C1260 O1262 1.263 . S
O1261 Co1258 1.970 . S
O1261 C1260 1.258 . S
O1262 Co1259 1.966 . S
O1262 C1260 1.263 . S
C1263 O1264 1.235 . S
C1263 O1290 1.289 . S
O1264 C1263 1.235 . S
C1265 C1267 1.400 . S
C1265 N1268 1.351 . S
C1265 C1270 1.501 . S
C1266 C1267 1.387 . S
C1266 N1269 1.341 . S
C1267 C1265 1.400 . S
C1267 C1266 1.387 . S
N1268 Co1259 2.022 . S
N1268 C1265 1.351 . S
N1268 N1269 1.365 . S
N1269 C1266 1.341 . S
N1269 N1268 1.365 . S
N1269 H1289 0.862 . S
C1270 C1265 1.501 . S
C1270 H1271 0.961 . S
C1270 H1272 0.961 . S
C1270 H1273 0.960 . S
H1271 C1270 0.961 . S
H1272 C1270 0.961 . S
H1273 C1270 0.960 . S
C1274 N1275 1.342 . S
C1274 C1278 1.401 . S
C1274 C1279 1.499 1_565 S
N1275 Co1258 1.989 . S
N1275 C1274 1.342 . S
N1275 N1276 1.388 . S
N1276 Co1259 1.993 . S
N1276 N1275 1.388 . S
N1276 C1277 1.346 . S
C1277 N1276 1.346 . S
C1277 C1278 1.396 . S
C1277 C1287 1.510 . S
C1278 C1274 1.401 . S
C1278 C1277 1.396 . S
C1279 C1274 1.499 1_545 S
C1279 H1280 0.959 1_545 S
C1279 H1281 0.960 . S
C1279 H1282 0.961 . S
H1280 C1279 0.959 1_565 S
H1281 C1279 0.960 . S
H1282 C1279 0.961 . S
O1283 Co1258 1.967 . S
O1283 C1291 1.258 . S
O1284 Co1259 1.941 . S
O1284 C1291 1.266 . S
H1285 C1287 0.959 . S
H1286 C1287 0.961 . S
C1287 C1277 1.510 . S
C1287 H1285 0.959 . S
C1287 H1286 0.961 . S
C1287 H1288 0.960 . S
H1288 C1287 0.960 . S
H1289 N1269 0.862 . S
O1290 Co1258 1.920 . S
O1290 C1263 1.289 . S
C1291 O1283 1.258 . S
C1291 O1284 1.266 . S
Co1292 O1295 1.970 . S
Co1292 N1309 1.989 . S
Co1292 O1317 1.967 1_565 S
Co1292 O1324 1.920 1_565 S
Co1293 O1296 1.966 . S
Co1293 N1302 2.022 . S
Co1293 N1310 1.993 . S
Co1293 O1318 1.941 . S
C1294 O1295 1.258 . S
C1294 O1296 1.263 . S
O1295 Co1292 1.970 . S
O1295 C1294 1.258 . S
O1296 Co1293 1.966 . S
O1296 C1294 1.263 . S
C1297 O1298 1.235 1_545 S
C1297 O1324 1.289 . S
O1298 C1297 1.235 1_565 S
C1299 C1301 1.400 . S
C1299 N1302 1.351 . S
C1299 C1304 1.501 . S
C1300 C1301 1.387 . S
C1300 N1303 1.341 . S
C1301 C1299 1.400 . S
C1301 C1300 1.387 . S
N1302 Co1293 2.022 . S
N1302 C1299 1.351 . S
N1302 N1303 1.365 . S
N1303 C1300 1.341 . S
N1303 N1302 1.365 . S
N1303 H1323 0.862 . S
C1304 C1299 1.501 . S
C1304 H1305 0.961 . S
C1304 H1306 0.961 . S
C1304 H1307 0.960 . S
H1305 C1304 0.961 . S
H1306 C1304 0.961 . S
H1307 C1304 0.960 . S
C1308 N1309 1.342 . S
C1308 C1312 1.401 . S
C1308 C1313 1.499 1_565 S
N1309 Co1292 1.989 . S
N1309 C1308 1.342 . S
N1309 N1310 1.388 . S
N1310 Co1293 1.993 . S
N1310 N1309 1.388 . S
N1310 C1311 1.346 . S
C1311 N1310 1.346 . S
C1311 C1312 1.396 . S
C1311 C1321 1.510 . S
C1312 C1308 1.401 . S
C1312 C1311 1.396 . S
C1313 C1308 1.499 1_545 S
C1313 H1314 0.959 . S
C1313 H1315 0.960 1_545 S
C1313 H1316 0.961 . S
H1314 C1313 0.959 . S
H1315 C1313 0.960 1_565 S
H1316 C1313 0.961 . S
O1317 Co1292 1.967 1_545 S
O1317 C1325 1.260 . S
O1318 Co1293 1.941 . S
O1318 C1325 1.238 1_565 S
H1319 C1321 0.959 . S
H1320 C1321 0.961 . S
C1321 C1311 1.510 . S
C1321 H1319 0.959 . S
C1321 H1320 0.961 . S
C1321 H1322 0.960 . S
H1322 C1321 0.960 . S
H1323 N1303 0.862 . S
O1324 Co1292 1.920 1_545 S
O1324 C1297 1.289 . S
C1325 O1317 1.260 . S
C1325 O1318 1.238 1_545 S
Co1326 O1329 1.970 . S
Co1326 N1343 1.989 . S
Co1326 O1351 1.967 . S
Co1326 O1358 1.920 . S
Co1327 O1330 1.966 . S
Co1327 N1336 2.022 . S
Co1327 N1344 1.993 . S
Co1327 O1352 1.941 . S
C1328 O1329 1.258 . S
C1328 O1330 1.263 . S
O1329 Co1326 1.970 . S
O1329 C1328 1.258 . S
O1330 Co1327 1.966 . S
O1330 C1328 1.263 . S
C1331 O1332 1.236 . S
C1331 O1358 1.289 1_554 S
O1332 C1331 1.236 . S
C1333 C1335 1.400 . S
C1333 N1336 1.351 . S
C1333 C1338 1.501 . S
C1334 C1335 1.387 . S
C1334 N1337 1.341 . S
C1335 C1333 1.400 . S
C1335 C1334 1.387 . S
N1336 Co1327 2.022 . S
N1336 C1333 1.351 . S
N1336 N1337 1.365 . S
N1337 C1334 1.341 . S
N1337 N1336 1.365 . S
N1337 H1357 0.862 . S
C1338 C1333 1.501 . S
C1338 H1339 0.961 . S
C1338 H1340 0.961 . S
C1338 H1341 0.960 . S
H1339 C1338 0.961 . S
H1340 C1338 0.961 . S
H1341 C1338 0.960 . S
C1342 N1343 1.342 . S
C1342 C1346 1.401 . S
C1342 C1347 1.499 1_545 S
N1343 Co1326 1.989 . S
N1343 C1342 1.342 . S
N1343 N1344 1.388 . S
N1344 Co1327 1.993 . S
N1344 N1343 1.388 . S
N1344 C1345 1.346 . S
C1345 N1344 1.346 . S
C1345 C1346 1.396 . S
C1345 C1355 1.510 . S
C1346 C1342 1.401 . S
C1346 C1345 1.396 . S
C1347 C1342 1.499 1_565 S
C1347 H1348 0.959 1_565 S
C1347 H1349 0.960 . S
C1347 H1350 0.961 . S
H1348 C1347 0.959 1_545 S
H1349 C1347 0.960 . S
H1350 C1347 0.961 . S
O1351 Co1326 1.967 . S
O1351 C1359 1.258 . S
O1352 Co1327 1.941 . S
O1352 C1359 1.266 . S
H1353 C1355 0.959 . S
H1354 C1355 0.961 . S
C1355 C1345 1.510 . S
C1355 H1353 0.959 . S
C1355 H1354 0.961 . S
C1355 H1356 0.960 . S
H1356 C1355 0.960 . S
H1357 N1337 0.862 . S
O1358 Co1326 1.920 . S
O1358 C1331 1.289 1_556 S
C1359 O1351 1.258 . S
C1359 O1352 1.266 . S
Co1360 O1363 1.970 . S
Co1360 N1377 1.989 . S
Co1360 O1385 1.967 1_556 S
Co1360 O1392 1.920 1_556 S
Co1361 O1364 1.966 . S
Co1361 N1370 2.022 . S
Co1361 N1378 1.993 . S
Co1361 O1386 1.941 . S
C1362 O1363 1.258 . S
C1362 O1364 1.263 . S
O1363 Co1360 1.970 . S
O1363 C1362 1.258 . S
O1364 Co1361 1.966 . S
O1364 C1362 1.263 . S
C1365 O1366 1.235 1_554 S
C1365 O1392 1.289 . S
O1366 C1365 1.235 1_556 S
C1367 C1369 1.400 . S
C1367 N1370 1.351 . S
C1367 C1372 1.501 . S
C1368 C1369 1.387 . S
C1368 N1371 1.341 . S
C1369 C1367 1.400 . S
C1369 C1368 1.387 . S
N1370 Co1361 2.022 . S
N1370 C1367 1.351 . S
N1370 N1371 1.365 . S
N1371 C1368 1.341 . S
N1371 N1370 1.365 . S
N1371 H1391 0.862 . S
C1372 C1367 1.501 . S
C1372 H1373 0.961 . S
C1372 H1374 0.961 . S
C1372 H1375 0.960 . S
H1373 C1372 0.961 . S
H1374 C1372 0.961 . S
H1375 C1372 0.960 . S
C1376 N1377 1.342 . S
C1376 C1380 1.401 . S
C1376 C1381 1.499 1_556 S
N1377 Co1360 1.989 . S
N1377 C1376 1.342 . S
N1377 N1378 1.388 . S
N1378 Co1361 1.993 . S
N1378 N1377 1.388 . S
N1378 C1379 1.346 . S
C1379 N1378 1.346 . S
C1379 C1380 1.396 . S
C1379 C1389 1.510 . S
C1380 C1376 1.401 . S
C1380 C1379 1.396 . S
C1381 C1376 1.499 1_554 S
C1381 H1382 0.959 . S
C1381 H1383 0.960 1_554 S
C1381 H1384 0.961 . S
H1382 C1381 0.959 . S
H1383 C1381 0.960 1_556 S
H1384 C1381 0.961 . S
O1385 Co1360 1.967 1_554 S
O1385 C1393 1.260 . S
O1386 Co1361 1.941 . S
O1386 C1393 1.239 1_556 S
H1387 C1389 0.959 . S
H1388 C1389 0.961 . S
C1389 C1379 1.510 . S
C1389 H1387 0.959 . S
C1389 H1388 0.961 . S
C1389 H1390 0.960 . S
H1390 C1389 0.960 . S
H1391 N1371 0.862 . S
O1392 Co1360 1.920 1_554 S
O1392 C1365 1.289 . S
C1393 O1385 1.260 . S
C1393 O1386 1.239 1_554 S
Co1394 O1397 1.970 . S
Co1394 N1411 1.989 . S
Co1394 O1419 1.967 1_554 S
Co1394 O1426 1.920 1_554 S
Co1395 O1398 1.966 . S
Co1395 N1404 2.022 . S
Co1395 N1412 1.993 . S
Co1395 O1420 1.941 . S
C1396 O1397 1.258 . S
C1396 O1398 1.263 . S
O1397 Co1394 1.970 . S
O1397 C1396 1.258 . S
O1398 Co1395 1.966 . S
O1398 C1396 1.263 . S
C1399 O1400 1.235 1_556 S
C1399 O1426 1.289 . S
O1400 C1399 1.235 1_554 S
C1401 C1403 1.400 . S
C1401 N1404 1.351 . S
C1401 C1406 1.501 . S
C1402 C1403 1.387 . S
C1402 N1405 1.341 . S
C1403 C1401 1.400 . S
C1403 C1402 1.387 . S
N1404 Co1395 2.022 . S
N1404 C1401 1.351 . S
N1404 N1405 1.365 . S
N1405 C1402 1.341 . S
N1405 N1404 1.365 . S
N1405 H1425 0.862 . S
C1406 C1401 1.501 . S
C1406 H1407 0.961 . S
C1406 H1408 0.961 . S
C1406 H1409 0.960 . S
H1407 C1406 0.961 . S
H1408 C1406 0.961 . S
H1409 C1406 0.960 . S
C1410 N1411 1.342 . S
C1410 C1414 1.401 . S
C1410 C1415 1.499 1_554 S
N1411 Co1394 1.989 . S
N1411 C1410 1.342 . S
N1411 N1412 1.388 . S
N1412 Co1395 1.993 . S
N1412 N1411 1.388 . S
N1412 C1413 1.346 . S
C1413 N1412 1.346 . S
C1413 C1414 1.396 . S
C1413 C1423 1.510 . S
C1414 C1410 1.401 . S
C1414 C1413 1.396 . S
C1415 C1410 1.499 1_556 S
C1415 H1416 0.959 . S
C1415 H1417 0.960 1_556 S
C1415 H1418 0.961 . S
H1416 C1415 0.959 . S
H1417 C1415 0.960 1_554 S
H1418 C1415 0.961 . S
O1419 Co1394 1.967 1_556 S
O1419 C1427 1.260 . S
O1420 Co1395 1.941 . S
O1420 C1427 1.239 1_554 S
H1421 C1423 0.959 . S
H1422 C1423 0.961 . S
C1423 C1413 1.510 . S
C1423 H1421 0.959 . S
C1423 H1422 0.961 . S
C1423 H1424 0.960 . S
H1424 C1423 0.960 . S
H1425 N1405 0.862 . S
O1426 Co1394 1.920 1_556 S
O1426 C1399 1.289 . S
C1427 O1419 1.260 . S
C1427 O1420 1.239 1_556 S
Co1428 O1431 1.970 . S
Co1428 N1445 1.989 . S
Co1428 O1453 1.967 . S
Co1428 O1460 1.920 . S
Co1429 O1432 1.966 . S
Co1429 N1438 2.022 . S
Co1429 N1446 1.993 . S
Co1429 O1454 1.941 . S
C1430 O1431 1.258 . S
C1430 O1432 1.263 . S
O1431 Co1428 1.970 . S
O1431 C1430 1.258 . S
O1432 Co1429 1.966 . S
O1432 C1430 1.263 . S
C1433 O1434 1.235 . S
C1433 O1460 1.289 . S
O1434 C1433 1.235 . S
C1435 C1437 1.400 . S
C1435 N1438 1.351 . S
C1435 C1440 1.501 . S
C1436 C1437 1.387 . S
C1436 N1439 1.341 . S
C1437 C1435 1.400 . S
C1437 C1436 1.387 . S
N1438 Co1429 2.022 . S
N1438 C1435 1.351 . S
N1438 N1439 1.365 . S
N1439 C1436 1.341 . S
N1439 N1438 1.365 . S
N1439 H1459 0.862 . S
C1440 C1435 1.501 . S
C1440 H1441 0.961 . S
C1440 H1442 0.961 . S
C1440 H1443 0.960 . S
H1441 C1440 0.961 . S
H1442 C1440 0.961 . S
H1443 C1440 0.960 . S
C1444 N1445 1.342 . S
C1444 C1448 1.401 . S
C1444 C1449 1.499 1_655 S
N1445 Co1428 1.989 . S
N1445 C1444 1.342 . S
N1445 N1446 1.388 . S
N1446 Co1429 1.993 . S
N1446 N1445 1.388 . S
N1446 C1447 1.346 . S
C1447 N1446 1.346 . S
C1447 C1448 1.396 . S
C1447 C1457 1.510 . S
C1448 C1444 1.401 . S
C1448 C1447 1.396 . S
C1449 C1444 1.499 1_455 S
C1449 H1450 0.959 1_455 S
C1449 H1451 0.960 . S
C1449 H1452 0.961 . S
H1450 C1449 0.959 1_655 S
H1451 C1449 0.960 . S
H1452 C1449 0.961 . S
O1453 Co1428 1.967 . S
O1453 C1461 1.258 . S
O1454 Co1429 1.941 . S
O1454 C1461 1.266 . S
H1455 C1457 0.959 . S
H1456 C1457 0.961 . S
C1457 C1447 1.510 . S
C1457 H1455 0.959 . S
C1457 H1456 0.961 . S
C1457 H1458 0.960 . S
H1458 C1457 0.960 . S
H1459 N1439 0.862 . S
O1460 Co1428 1.920 . S
O1460 C1433 1.289 . S
C1461 O1453 1.258 . S
C1461 O1454 1.266 . S
Co1462 O1465 1.970 . S
Co1462 N1479 1.989 . S
Co1462 O1487 1.967 . S
Co1462 O1494 1.920 . S
Co1463 O1466 1.966 . S
Co1463 N1472 2.022 . S
Co1463 N1480 1.993 . S
Co1463 O1488 1.941 . S
C1464 O1465 1.258 . S
C1464 O1466 1.263 . S
O1465 Co1462 1.970 . S
O1465 C1464 1.258 . S
O1466 Co1463 1.966 . S
O1466 C1464 1.263 . S
C1467 O1468 1.235 . S
C1467 O1494 1.289 . S
O1468 C1467 1.235 . S
C1469 C1471 1.400 . S
C1469 N1472 1.351 . S
C1469 C1474 1.501 . S
C1470 C1471 1.387 . S
C1470 N1473 1.341 . S
C1471 C1469 1.400 . S
C1471 C1470 1.387 . S
N1472 Co1463 2.022 . S
N1472 C1469 1.351 . S
N1472 N1473 1.365 . S
N1473 C1470 1.341 . S
N1473 N1472 1.365 . S
N1473 H1493 0.862 . S
C1474 C1469 1.501 . S
C1474 H1475 0.961 . S
C1474 H1476 0.961 . S
C1474 H1477 0.960 . S
H1475 C1474 0.961 . S
H1476 C1474 0.961 . S
H1477 C1474 0.960 . S
C1478 N1479 1.342 . S
C1478 C1482 1.401 . S
C1478 C1483 1.499 . S
N1479 Co1462 1.989 . S
N1479 C1478 1.342 . S
N1479 N1480 1.388 . S
N1480 Co1463 1.993 . S
N1480 N1479 1.388 . S
N1480 C1481 1.346 . S
C1481 N1480 1.346 . S
C1481 C1482 1.396 . S
C1481 C1491 1.510 . S
C1482 C1478 1.401 . S
C1482 C1481 1.396 . S
C1483 C1478 1.499 . S
C1483 H1484 0.959 . S
C1483 H1485 0.960 . S
C1483 H1486 0.961 . S
H1484 C1483 0.959 . S
H1485 C1483 0.960 . S
H1486 C1483 0.961 . S
O1487 Co1462 1.967 . S
O1487 C1495 1.258 . S
O1488 Co1463 1.941 . S
O1488 C1495 1.266 . S
H1489 C1491 0.959 . S
H1490 C1491 0.961 . S
C1491 C1481 1.510 . S
C1491 H1489 0.959 . S
C1491 H1490 0.961 . S
C1491 H1492 0.960 . S
H1492 C1491 0.960 . S
H1493 N1473 0.862 . S
O1494 Co1462 1.920 . S
O1494 C1467 1.289 . S
C1495 O1487 1.258 . S
C1495 O1488 1.266 . S
Co1496 O1499 1.970 . S
Co1496 N1513 1.989 . S
Co1496 O1521 1.967 . S
Co1496 O1528 1.920 . S
Co1497 O1500 1.966 . S
Co1497 N1506 2.022 . S
Co1497 N1514 1.993 . S
Co1497 O1522 1.941 . S
C1498 O1499 1.258 . S
C1498 O1500 1.263 . S
O1499 Co1496 1.970 . S
O1499 C1498 1.258 . S
O1500 Co1497 1.966 . S
O1500 C1498 1.263 . S
C1501 O1502 1.236 . S
C1501 O1528 1.289 1_545 S
O1502 C1501 1.236 . S
C1503 C1505 1.400 . S
C1503 N1506 1.351 . S
C1503 C1508 1.501 . S
C1504 C1505 1.387 . S
C1504 N1507 1.341 . S
C1505 C1503 1.400 . S
C1505 C1504 1.387 . S
N1506 Co1497 2.022 . S
N1506 C1503 1.351 . S
N1506 N1507 1.365 . S
N1507 C1504 1.341 . S
N1507 N1506 1.365 . S
N1507 H1527 0.862 . S
C1508 C1503 1.501 . S
C1508 H1509 0.961 . S
C1508 H1510 0.961 . S
C1508 H1511 0.960 . S
H1509 C1508 0.961 . S
H1510 C1508 0.961 . S
H1511 C1508 0.960 . S
C1512 N1513 1.342 . S
C1512 C1516 1.401 . S
C1512 C1517 1.499 1_455 S
N1513 Co1496 1.989 . S
N1513 C1512 1.342 . S
N1513 N1514 1.388 . S
N1514 Co1497 1.993 . S
N1514 N1513 1.388 . S
N1514 C1515 1.346 . S
C1515 N1514 1.346 . S
C1515 C1516 1.396 . S
C1515 C1525 1.510 . S
C1516 C1512 1.401 . S
C1516 C1515 1.396 . S
C1517 C1512 1.499 1_655 S
C1517 H1518 0.959 1_655 S
C1517 H1519 0.960 . S
C1517 H1520 0.961 . S
H1518 C1517 0.959 1_455 S
H1519 C1517 0.960 . S
H1520 C1517 0.961 . S
O1521 Co1496 1.967 . S
O1521 C1529 1.258 . S
O1522 Co1497 1.941 . S
O1522 C1529 1.266 . S
H1523 C1525 0.959 . S
H1524 C1525 0.961 . S
C1525 C1515 1.510 . S
C1525 H1523 0.959 . S
C1525 H1524 0.961 . S
C1525 H1526 0.960 . S
H1526 C1525 0.960 . S
H1527 N1507 0.862 . S
O1528 Co1496 1.920 . S
O1528 C1501 1.289 1_565 S
C1529 O1521 1.258 . S
C1529 O1522 1.266 . S
Co1530 O1533 1.970 . S
Co1530 N1547 1.989 . S
Co1530 O1555 1.967 . S
Co1530 O1562 1.920 . S
Co1531 O1534 1.966 . S
Co1531 N1540 2.022 . S
Co1531 N1548 1.993 . S
Co1531 O1556 1.941 . S
C1532 O1533 1.258 . S
C1532 O1534 1.263 . S
O1533 Co1530 1.970 . S
O1533 C1532 1.258 . S
O1534 Co1531 1.966 . S
O1534 C1532 1.263 . S
C1535 O1536 1.235 . S
C1535 O1562 1.289 . S
O1536 C1535 1.235 . S
C1537 C1539 1.400 . S
C1537 N1540 1.351 . S
C1537 C1542 1.501 . S
C1538 C1539 1.387 . S
C1538 N1541 1.341 . S
C1539 C1537 1.400 . S
C1539 C1538 1.387 . S
N1540 Co1531 2.022 . S
N1540 C1537 1.351 . S
N1540 N1541 1.365 . S
N1541 C1538 1.341 . S
N1541 N1540 1.365 . S
N1541 H1561 0.862 . S
C1542 C1537 1.501 . S
C1542 H1543 0.961 . S
C1542 H1544 0.961 . S
C1542 H1545 0.960 . S
H1543 C1542 0.961 . S
H1544 C1542 0.961 . S
H1545 C1542 0.960 . S
C1546 N1547 1.342 . S
C1546 C1550 1.401 . S
C1546 C1551 1.499 . S
N1547 Co1530 1.989 . S
N1547 C1546 1.342 . S
N1547 N1548 1.388 . S
N1548 Co1531 1.993 . S
N1548 N1547 1.388 . S
N1548 C1549 1.346 . S
C1549 N1548 1.346 . S
C1549 C1550 1.396 . S
C1549 C1559 1.510 . S
C1550 C1546 1.401 . S
C1550 C1549 1.396 . S
C1551 C1546 1.499 . S
C1551 H1552 0.959 . S
C1551 H1553 0.960 . S
C1551 H1554 0.961 . S
H1552 C1551 0.959 . S
H1553 C1551 0.960 . S
H1554 C1551 0.961 . S
O1555 Co1530 1.967 . S
O1555 C1563 1.258 . S
O1556 Co1531 1.941 . S
O1556 C1563 1.266 . S
H1557 C1559 0.959 . S
H1558 C1559 0.961 . S
C1559 C1549 1.510 . S
C1559 H1557 0.959 . S
C1559 H1558 0.961 . S
C1559 H1560 0.960 . S
H1560 C1559 0.960 . S
H1561 N1541 0.862 . S
O1562 Co1530 1.920 . S
O1562 C1535 1.289 . S
C1563 O1555 1.258 . S
C1563 O1556 1.266 . S
Co1564 O1567 1.970 . S
Co1564 N1581 1.989 . S
Co1564 O1589 1.967 . S
Co1564 O1596 1.920 . S
Co1565 O1568 1.966 . S
Co1565 N1574 2.022 . S
Co1565 N1582 1.993 . S
Co1565 O1590 1.941 . S
C1566 O1567 1.258 . S
C1566 O1568 1.263 . S
O1567 Co1564 1.970 . S
O1567 C1566 1.258 . S
O1568 Co1565 1.966 . S
O1568 C1566 1.263 . S
C1569 O1570 1.235 . S
C1569 O1596 1.289 . S
O1570 C1569 1.235 . S
C1571 C1573 1.400 . S
C1571 N1574 1.351 . S
C1571 C1576 1.501 . S
C1572 C1573 1.387 . S
C1572 N1575 1.341 . S
C1573 C1571 1.400 . S
C1573 C1572 1.387 . S
N1574 Co1565 2.022 . S
N1574 C1571 1.351 . S
N1574 N1575 1.365 . S
N1575 C1572 1.341 . S
N1575 N1574 1.365 . S
N1575 H1595 0.862 . S
C1576 C1571 1.501 . S
C1576 H1577 0.961 . S
C1576 H1578 0.961 . S
C1576 H1579 0.960 . S
H1577 C1576 0.961 . S
H1578 C1576 0.961 . S
H1579 C1576 0.960 . S
C1580 N1581 1.342 . S
C1580 C1584 1.401 . S
C1580 C1585 1.499 1_655 S
N1581 Co1564 1.989 . S
N1581 C1580 1.342 . S
N1581 N1582 1.388 . S
N1582 Co1565 1.993 . S
N1582 N1581 1.388 . S
N1582 C1583 1.346 . S
C1583 N1582 1.346 . S
C1583 C1584 1.396 . S
C1583 C1593 1.510 . S
C1584 C1580 1.401 . S
C1584 C1583 1.396 . S
C1585 C1580 1.499 1_455 S
C1585 H1586 0.959 1_455 S
C1585 H1587 0.960 . S
C1585 H1588 0.961 . S
H1586 C1585 0.959 1_655 S
H1587 C1585 0.960 . S
H1588 C1585 0.961 . S
O1589 Co1564 1.967 . S
O1589 C1597 1.258 . S
O1590 Co1565 1.941 . S
O1590 C1597 1.266 . S
H1591 C1593 0.959 . S
H1592 C1593 0.961 . S
C1593 C1583 1.510 . S
C1593 H1591 0.959 . S
C1593 H1592 0.961 . S
C1593 H1594 0.960 . S
H1594 C1593 0.960 . S
H1595 N1575 0.862 . S
O1596 Co1564 1.920 . S
O1596 C1569 1.289 . S
C1597 O1589 1.258 . S
C1597 O1590 1.266 . S
Co1598 O1601 1.970 . S
Co1598 N1615 1.989 . S
Co1598 O1623 1.967 . S
Co1598 O1630 1.920 . S
Co1599 O1602 1.966 . S
Co1599 N1608 2.022 . S
Co1599 N1616 1.993 . S
Co1599 O1624 1.941 . S
C1600 O1601 1.258 . S
C1600 O1602 1.263 . S
O1601 Co1598 1.970 . S
O1601 C1600 1.258 . S
O1602 Co1599 1.966 . S
O1602 C1600 1.263 . S
C1603 O1604 1.235 . S
C1603 O1630 1.289 . S
O1604 C1603 1.235 . S
C1605 C1607 1.400 . S
C1605 N1608 1.351 . S
C1605 C1610 1.501 . S
C1606 C1607 1.387 . S
C1606 N1609 1.341 . S
C1607 C1605 1.400 . S
C1607 C1606 1.387 . S
N1608 Co1599 2.022 . S
N1608 C1605 1.351 . S
N1608 N1609 1.365 . S
N1609 C1606 1.341 . S
N1609 N1608 1.365 . S
N1609 H1629 0.862 . S
C1610 C1605 1.501 . S
C1610 H1611 0.961 . S
C1610 H1612 0.961 . S
C1610 H1613 0.960 . S
H1611 C1610 0.961 . S
H1612 C1610 0.961 . S
H1613 C1610 0.960 . S
C1614 N1615 1.342 . S
C1614 C1618 1.401 . S
C1614 C1619 1.499 . S
N1615 Co1598 1.989 . S
N1615 C1614 1.342 . S
N1615 N1616 1.388 . S
N1616 Co1599 1.993 . S
N1616 N1615 1.388 . S
N1616 C1617 1.346 . S
C1617 N1616 1.346 . S
C1617 C1618 1.396 . S
C1617 C1627 1.510 . S
C1618 C1614 1.401 . S
C1618 C1617 1.396 . S
C1619 C1614 1.499 . S
C1619 H1620 0.959 . S
C1619 H1621 0.960 . S
C1619 H1622 0.961 . S
H1620 C1619 0.959 . S
H1621 C1619 0.960 . S
H1622 C1619 0.961 . S
O1623 Co1598 1.967 . S
O1623 C1631 1.258 . S
O1624 Co1599 1.941 . S
O1624 C1631 1.266 . S
H1625 C1627 0.959 . S
H1626 C1627 0.961 . S
C1627 C1617 1.510 . S
C1627 H1625 0.959 . S
C1627 H1626 0.961 . S
C1627 H1628 0.960 . S
H1628 C1627 0.960 . S
H1629 N1609 0.862 . S
O1630 Co1598 1.920 . S
O1630 C1603 1.289 . S
C1631 O1623 1.258 . S
C1631 O1624 1.266 . S
Co1632 O1635 1.970 . S
Co1632 N1649 1.989 . S
Co1632 O1657 1.967 . S
Co1632 O1664 1.920 . S
Co1633 O1636 1.966 . S
Co1633 N1642 2.022 . S
Co1633 N1650 1.993 . S
Co1633 O1658 1.941 . S
C1634 O1635 1.258 . S
C1634 O1636 1.263 . S
O1635 Co1632 1.970 . S
O1635 C1634 1.258 . S
O1636 Co1633 1.966 . S
O1636 C1634 1.263 . S
C1637 O1638 1.235 . S
C1637 O1664 1.289 . S
O1638 C1637 1.235 . S
C1639 C1641 1.400 . S
C1639 N1642 1.351 . S
C1639 C1644 1.501 . S
C1640 C1641 1.387 . S
C1640 N1643 1.341 . S
C1641 C1639 1.400 . S
C1641 C1640 1.387 . S
N1642 Co1633 2.022 . S
N1642 C1639 1.351 . S
N1642 N1643 1.365 . S
N1643 C1640 1.341 . S
N1643 N1642 1.365 . S
N1643 H1663 0.862 . S
C1644 C1639 1.501 . S
C1644 H1645 0.961 . S
C1644 H1646 0.961 . S
C1644 H1647 0.960 . S
H1645 C1644 0.961 . S
H1646 C1644 0.961 . S
H1647 C1644 0.960 . S
C1648 N1649 1.342 . S
C1648 C1652 1.401 . S
C1648 C1653 1.499 . S
N1649 Co1632 1.989 . S
N1649 C1648 1.342 . S
N1649 N1650 1.388 . S
N1650 Co1633 1.993 . S
N1650 N1649 1.388 . S
N1650 C1651 1.346 . S
C1651 N1650 1.346 . S
C1651 C1652 1.396 . S
C1651 C1661 1.510 . S
C1652 C1648 1.401 . S
C1652 C1651 1.396 . S
C1653 C1648 1.499 . S
C1653 H1654 0.959 . S
C1653 H1655 0.960 . S
C1653 H1656 0.961 . S
H1654 C1653 0.959 . S
H1655 C1653 0.960 . S
H1656 C1653 0.961 . S
O1657 Co1632 1.967 . S
O1657 C1665 1.258 . S
O1658 Co1633 1.941 . S
O1658 C1665 1.266 . S
H1659 C1661 0.959 . S
H1660 C1661 0.961 . S
C1661 C1651 1.510 . S
C1661 H1659 0.959 . S
C1661 H1660 0.961 . S
C1661 H1662 0.960 . S
H1662 C1661 0.960 . S
H1663 N1643 0.862 . S
O1664 Co1632 1.920 . S
O1664 C1637 1.289 . S
C1665 O1657 1.258 . S
C1665 O1658 1.266 . S
Co1666 O1669 1.970 . S
Co1666 N1683 1.989 . S
Co1666 O1691 1.967 . S
Co1666 O1698 1.920 . S
Co1667 O1670 1.966 . S
Co1667 N1676 2.022 . S
Co1667 N1684 1.993 . S
Co1667 O1692 1.941 . S
C1668 O1669 1.258 . S
C1668 O1670 1.263 . S
O1669 Co1666 1.970 . S
O1669 C1668 1.258 . S
O1670 Co1667 1.966 . S
O1670 C1668 1.263 . S
C1671 O1672 1.235 . S
C1671 O1698 1.289 . S
O1672 C1671 1.235 . S
C1673 C1675 1.400 . S
C1673 N1676 1.351 . S
C1673 C1678 1.501 . S
C1674 C1675 1.387 . S
C1674 N1677 1.341 . S
C1675 C1673 1.400 . S
C1675 C1674 1.387 . S
N1676 Co1667 2.022 . S
N1676 C1673 1.351 . S
N1676 N1677 1.365 . S
N1677 C1674 1.341 . S
N1677 N1676 1.365 . S
N1677 H1697 0.862 . S
C1678 C1673 1.501 . S
C1678 H1679 0.961 . S
C1678 H1680 0.961 . S
C1678 H1681 0.960 . S
H1679 C1678 0.961 . S
H1680 C1678 0.961 . S
H1681 C1678 0.960 . S
C1682 N1683 1.342 . S
C1682 C1686 1.401 . S
C1682 C1687 1.499 1_554 S
N1683 Co1666 1.989 . S
N1683 C1682 1.342 . S
N1683 N1684 1.388 . S
N1684 Co1667 1.993 . S
N1684 N1683 1.388 . S
N1684 C1685 1.346 . S
C1685 N1684 1.346 . S
C1685 C1686 1.396 . S
C1685 C1695 1.510 . S
C1686 C1682 1.401 . S
C1686 C1685 1.396 . S
C1687 C1682 1.499 1_556 S
C1687 H1688 0.959 1_556 S
C1687 H1689 0.960 . S
C1687 H1690 0.961 . S
H1688 C1687 0.959 1_554 S
H1689 C1687 0.960 . S
H1690 C1687 0.961 . S
O1691 Co1666 1.967 . S
O1691 C1699 1.258 . S
O1692 Co1667 1.941 . S
O1692 C1699 1.266 . S
H1693 C1695 0.959 . S
H1694 C1695 0.961 . S
C1695 C1685 1.510 . S
C1695 H1693 0.959 . S
C1695 H1694 0.961 . S
C1695 H1696 0.960 . S
H1696 C1695 0.960 . S
H1697 N1677 0.862 . S
O1698 Co1666 1.920 . S
O1698 C1671 1.289 . S
C1699 O1691 1.258 . S
C1699 O1692 1.266 . S
Co1700 O1703 1.970 . S
Co1700 N1717 1.989 . S
Co1700 O1725 1.967 1_655 S
Co1700 O1732 1.920 1_655 S
Co1701 O1704 1.966 . S
Co1701 N1710 2.022 . S
Co1701 N1718 1.993 . S
Co1701 O1726 1.941 . S
C1702 O1703 1.258 . S
C1702 O1704 1.263 . S
O1703 Co1700 1.970 . S
O1703 C1702 1.258 . S
O1704 Co1701 1.966 . S
O1704 C1702 1.263 . S
C1705 O1706 1.235 1_455 S
C1705 O1732 1.289 . S
O1706 C1705 1.235 1_655 S
C1707 C1709 1.400 . S
C1707 N1710 1.351 . S
C1707 C1712 1.501 . S
C1708 C1709 1.387 . S
C1708 N1711 1.341 . S
C1709 C1707 1.400 . S
C1709 C1708 1.387 . S
N1710 Co1701 2.022 . S
N1710 C1707 1.351 . S
N1710 N1711 1.365 . S
N1711 C1708 1.341 . S
N1711 N1710 1.365 . S
N1711 H1731 0.862 . S
C1712 C1707 1.501 . S
C1712 H1713 0.961 . S
C1712 H1714 0.961 . S
C1712 H1715 0.960 . S
H1713 C1712 0.961 . S
H1714 C1712 0.961 . S
H1715 C1712 0.960 . S
C1716 N1717 1.342 . S
C1716 C1720 1.401 . S
C1716 C1721 1.499 1_655 S
N1717 Co1700 1.989 . S
N1717 C1716 1.342 . S
N1717 N1718 1.388 . S
N1718 Co1701 1.993 . S
N1718 N1717 1.388 . S
N1718 C1719 1.346 . S
C1719 N1718 1.346 . S
C1719 C1720 1.396 . S
C1719 C1729 1.510 . S
C1720 C1716 1.401 . S
C1720 C1719 1.396 . S
C1721 C1716 1.499 1_455 S
C1721 H1722 0.959 . S
C1721 H1723 0.960 1_455 S
C1721 H1724 0.961 . S
H1722 C1721 0.959 . S
H1723 C1721 0.960 1_655 S
H1724 C1721 0.961 . S
O1725 Co1700 1.967 1_455 S
O1725 C1733 1.260 . S
O1726 Co1701 1.941 . S
O1726 C1733 1.239 1_655 S
H1727 C1729 0.959 . S
H1728 C1729 0.961 . S
C1729 C1719 1.510 . S
C1729 H1727 0.959 . S
C1729 H1728 0.961 . S
C1729 H1730 0.960 . S
H1730 C1729 0.960 . S
H1731 N1711 0.862 . S
O1732 Co1700 1.920 1_455 S
O1732 C1705 1.289 . S
C1733 O1725 1.260 . S
C1733 O1726 1.239 1_455 S
Co1734 O1737 1.970 . S
Co1734 N1751 1.989 . S
Co1734 O1759 1.967 . S
Co1734 O1766 1.920 . S
Co1735 O1738 1.966 . S
Co1735 N1744 2.022 . S
Co1735 N1752 1.993 . S
Co1735 O1760 1.941 . S
C1736 O1737 1.258 . S
C1736 O1738 1.263 . S
O1737 Co1734 1.970 . S
O1737 C1736 1.258 . S
O1738 Co1735 1.966 . S
O1738 C1736 1.263 . S
C1739 O1740 1.236 . S
C1739 O1766 1.289 1_455 S
O1740 C1739 1.236 . S
C1741 C1743 1.400 . S
C1741 N1744 1.351 . S
C1741 C1746 1.501 . S
C1742 C1743 1.387 . S
C1742 N1745 1.341 . S
C1743 C1741 1.400 . S
C1743 C1742 1.387 . S
N1744 Co1735 2.022 . S
N1744 C1741 1.351 . S
N1744 N1745 1.365 . S
N1745 C1742 1.341 . S
N1745 N1744 1.365 . S
N1745 H1765 0.862 . S
C1746 C1741 1.501 . S
C1746 H1747 0.961 . S
C1746 H1748 0.961 . S
C1746 H1749 0.960 . S
H1747 C1746 0.961 . S
H1748 C1746 0.961 . S
H1749 C1746 0.960 . S
C1750 N1751 1.342 . S
C1750 C1754 1.401 . S
C1750 C1755 1.499 . S
N1751 Co1734 1.989 . S
N1751 C1750 1.342 . S
N1751 N1752 1.388 . S
N1752 Co1735 1.993 . S
N1752 N1751 1.388 . S
N1752 C1753 1.346 . S
C1753 N1752 1.346 . S
C1753 C1754 1.396 . S
C1753 C1763 1.510 . S
C1754 C1750 1.401 . S
C1754 C1753 1.396 . S
C1755 C1750 1.499 . S
C1755 H1756 0.959 . S
C1755 H1757 0.960 . S
C1755 H1758 0.961 . S
H1756 C1755 0.959 . S
H1757 C1755 0.960 . S
H1758 C1755 0.961 . S
O1759 Co1734 1.967 . S
O1759 C1767 1.258 . S
O1760 Co1735 1.941 . S
O1760 C1767 1.266 . S
H1761 C1763 0.959 . S
H1762 C1763 0.961 . S
C1763 C1753 1.510 . S
C1763 H1761 0.959 . S
C1763 H1762 0.961 . S
C1763 H1764 0.960 . S
H1764 C1763 0.960 . S
H1765 N1745 0.862 . S
O1766 Co1734 1.920 . S
O1766 C1739 1.289 1_655 S
C1767 O1759 1.258 . S
C1767 O1760 1.266 . S
Co1768 O1771 1.970 . S
Co1768 N1785 1.989 . S
Co1768 O1793 1.967 . S
Co1768 O1800 1.920 . S
Co1769 O1772 1.966 . S
Co1769 N1778 2.022 . S
Co1769 N1786 1.993 . S
Co1769 O1794 1.941 . S
C1770 O1771 1.258 . S
C1770 O1772 1.263 . S
O1771 Co1768 1.970 . S
O1771 C1770 1.258 . S
O1772 Co1769 1.966 . S
O1772 C1770 1.263 . S
C1773 O1774 1.235 . S
C1773 O1800 1.289 . S
O1774 C1773 1.235 . S
C1775 C1777 1.400 . S
C1775 N1778 1.351 . S
C1775 C1780 1.501 . S
C1776 C1777 1.387 . S
C1776 N1779 1.341 . S
C1777 C1775 1.400 . S
C1777 C1776 1.387 . S
N1778 Co1769 2.022 . S
N1778 C1775 1.351 . S
N1778 N1779 1.365 . S
N1779 C1776 1.341 . S
N1779 N1778 1.365 . S
N1779 H1799 0.862 . S
C1780 C1775 1.501 . S
C1780 H1781 0.961 . S
C1780 H1782 0.961 . S
C1780 H1783 0.960 . S
H1781 C1780 0.961 . S
H1782 C1780 0.961 . S
H1783 C1780 0.960 . S
C1784 N1785 1.342 . S
C1784 C1788 1.401 . S
C1784 C1789 1.499 . S
N1785 Co1768 1.989 . S
N1785 C1784 1.342 . S
N1785 N1786 1.388 . S
N1786 Co1769 1.993 . S
N1786 N1785 1.388 . S
N1786 C1787 1.346 . S
C1787 N1786 1.346 . S
C1787 C1788 1.396 . S
C1787 C1797 1.510 . S
C1788 C1784 1.401 . S
C1788 C1787 1.396 . S
C1789 C1784 1.499 . S
C1789 H1790 0.959 . S
C1789 H1791 0.960 . S
C1789 H1792 0.961 . S
H1790 C1789 0.959 . S
H1791 C1789 0.960 . S
H1792 C1789 0.961 . S
O1793 Co1768 1.967 . S
O1793 C1801 1.258 . S
O1794 Co1769 1.941 . S
O1794 C1801 1.266 . S
H1795 C1797 0.959 . S
H1796 C1797 0.961 . S
C1797 C1787 1.510 . S
C1797 H1795 0.959 . S
C1797 H1796 0.961 . S
C1797 H1798 0.960 . S
H1798 C1797 0.960 . S
H1799 N1779 0.862 . S
O1800 Co1768 1.920 . S
O1800 C1773 1.289 . S
C1801 O1793 1.258 . S
C1801 O1794 1.266 . S
Co1802 O1805 1.970 . S
Co1802 N1819 1.989 . S
Co1802 O1827 1.967 . S
Co1802 O1834 1.920 . S
Co1803 O1806 1.966 . S
Co1803 N1812 2.022 . S
Co1803 N1820 1.993 . S
Co1803 O1828 1.941 . S
C1804 O1805 1.258 . S
C1804 O1806 1.263 . S
O1805 Co1802 1.970 . S
O1805 C1804 1.258 . S
O1806 Co1803 1.966 . S
O1806 C1804 1.263 . S
C1807 O1808 1.236 . S
C1807 O1834 1.289 1_455 S
O1808 C1807 1.236 . S
C1809 C1811 1.400 . S
C1809 N1812 1.351 . S
C1809 C1814 1.501 . S
C1810 C1811 1.387 . S
C1810 N1813 1.341 . S
C1811 C1809 1.400 . S
C1811 C1810 1.387 . S
N1812 Co1803 2.022 . S
N1812 C1809 1.351 . S
N1812 N1813 1.365 . S
N1813 C1810 1.341 . S
N1813 N1812 1.365 . S
N1813 H1833 0.862 . S
C1814 C1809 1.501 . S
C1814 H1815 0.961 . S
C1814 H1816 0.961 . S
C1814 H1817 0.960 . S
H1815 C1814 0.961 . S
H1816 C1814 0.961 . S
H1817 C1814 0.960 . S
C1818 N1819 1.342 . S
C1818 C1822 1.401 . S
C1818 C1823 1.499 1_556 S
N1819 Co1802 1.989 . S
N1819 C1818 1.342 . S
N1819 N1820 1.388 . S
N1820 Co1803 1.993 . S
N1820 N1819 1.388 . S
N1820 C1821 1.346 . S
C1821 N1820 1.346 . S
C1821 C1822 1.396 . S
C1821 C1831 1.510 . S
C1822 C1818 1.401 . S
C1822 C1821 1.396 . S
C1823 C1818 1.499 1_554 S
C1823 H1824 0.959 1_554 S
C1823 H1825 0.960 . S
C1823 H1826 0.961 . S
H1824 C1823 0.959 1_556 S
H1825 C1823 0.960 . S
H1826 C1823 0.961 . S
O1827 Co1802 1.967 . S
O1827 C1835 1.258 . S
O1828 Co1803 1.941 . S
O1828 C1835 1.266 . S
H1829 C1831 0.959 . S
H1830 C1831 0.961 . S
C1831 C1821 1.510 . S
C1831 H1829 0.959 . S
C1831 H1830 0.961 . S
C1831 H1832 0.960 . S
H1832 C1831 0.960 . S
H1833 N1813 0.862 . S
O1834 Co1802 1.920 . S
O1834 C1807 1.289 1_655 S
C1835 O1827 1.258 . S
C1835 O1828 1.266 . S
Co1836 O1839 1.970 . S
Co1836 N1853 1.989 . S
Co1836 O1861 1.967 1_655 S
Co1836 O1868 1.920 1_655 S
Co1837 O1840 1.966 . S
Co1837 N1846 2.022 . S
Co1837 N1854 1.993 . S
Co1837 O1862 1.941 . S
C1838 O1839 1.258 . S
C1838 O1840 1.263 . S
O1839 Co1836 1.970 . S
O1839 C1838 1.258 . S
O1840 Co1837 1.966 . S
O1840 C1838 1.263 . S
C1841 O1842 1.235 1_455 S
C1841 O1868 1.289 . S
O1842 C1841 1.235 1_655 S
C1843 C1845 1.400 . S
C1843 N1846 1.351 . S
C1843 C1848 1.501 . S
C1844 C1845 1.387 . S
C1844 N1847 1.341 . S
C1845 C1843 1.400 . S
C1845 C1844 1.387 . S
N1846 Co1837 2.022 . S
N1846 C1843 1.351 . S
N1846 N1847 1.365 . S
N1847 C1844 1.341 . S
N1847 N1846 1.365 . S
N1847 H1867 0.862 . S
C1848 C1843 1.501 . S
C1848 H1849 0.961 . S
C1848 H1850 0.961 . S
C1848 H1851 0.960 . S
H1849 C1848 0.961 . S
H1850 C1848 0.961 . S
H1851 C1848 0.960 . S
C1852 N1853 1.342 . S
C1852 C1856 1.401 . S
C1852 C1857 1.499 1_655 S
N1853 Co1836 1.989 . S
N1853 C1852 1.342 . S
N1853 N1854 1.388 . S
N1854 Co1837 1.993 . S
N1854 N1853 1.388 . S
N1854 C1855 1.346 . S
C1855 N1854 1.346 . S
C1855 C1856 1.396 . S
C1855 C1865 1.510 . S
C1856 C1852 1.401 . S
C1856 C1855 1.396 . S
C1857 C1852 1.499 1_455 S
C1857 H1858 0.959 . S
C1857 H1859 0.960 1_455 S
C1857 H1860 0.961 . S
H1858 C1857 0.959 . S
H1859 C1857 0.960 1_655 S
H1860 C1857 0.961 . S
O1861 Co1836 1.967 1_455 S
O1861 C1869 1.260 . S
O1862 Co1837 1.941 . S
O1862 C1869 1.239 1_655 S
H1863 C1865 0.959 . S
H1864 C1865 0.961 . S
C1865 C1855 1.510 . S
C1865 H1863 0.959 . S
C1865 H1864 0.961 . S
C1865 H1866 0.960 . S
H1866 C1865 0.960 . S
H1867 N1847 0.862 . S
O1868 Co1836 1.920 1_455 S
O1868 C1841 1.289 . S
C1869 O1861 1.260 . S
C1869 O1862 1.239 1_455 S
Co1870 O1873 1.970 . S
Co1870 N1887 1.989 . S
Co1870 O1895 1.967 . S
Co1870 O1902 1.920 . S
Co1871 O1874 1.966 . S
Co1871 N1880 2.022 . S
Co1871 N1888 1.993 . S
Co1871 O1896 1.941 . S
C1872 O1873 1.258 . S
C1872 O1874 1.263 . S
O1873 Co1870 1.970 . S
O1873 C1872 1.258 . S
O1874 Co1871 1.966 . S
O1874 C1872 1.263 . S
C1875 O1876 1.235 . S
C1875 O1902 1.289 . S
O1876 C1875 1.235 . S
C1877 C1879 1.400 . S
C1877 N1880 1.351 . S
C1877 C1882 1.501 . S
C1878 C1879 1.387 . S
C1878 N1881 1.341 . S
C1879 C1877 1.400 . S
C1879 C1878 1.387 . S
N1880 Co1871 2.022 . S
N1880 C1877 1.351 . S
N1880 N1881 1.365 . S
N1881 C1878 1.341 . S
N1881 N1880 1.365 . S
N1881 H1901 0.862 . S
C1882 C1877 1.501 . S
C1882 H1883 0.961 . S
C1882 H1884 0.961 . S
C1882 H1885 0.960 . S
H1883 C1882 0.961 . S
H1884 C1882 0.961 . S
H1885 C1882 0.960 . S
C1886 N1887 1.342 . S
C1886 C1890 1.401 . S
C1886 C1891 1.499 . S
N1887 Co1870 1.989 . S
N1887 C1886 1.342 . S
N1887 N1888 1.388 . S
N1888 Co1871 1.993 . S
N1888 N1887 1.388 . S
N1888 C1889 1.346 . S
C1889 N1888 1.346 . S
C1889 C1890 1.396 . S
C1889 C1899 1.510 . S
C1890 C1886 1.401 . S
C1890 C1889 1.396 . S
C1891 C1886 1.499 . S
C1891 H1892 0.959 . S
C1891 H1893 0.960 . S
C1891 H1894 0.961 . S
H1892 C1891 0.959 . S
H1893 C1891 0.960 . S
H1894 C1891 0.961 . S
O1895 Co1870 1.967 . S
O1895 C1903 1.258 . S
O1896 Co1871 1.941 . S
O1896 C1903 1.266 . S
H1897 C1899 0.959 . S
H1898 C1899 0.961 . S
C1899 C1889 1.510 . S
C1899 H1897 0.959 . S
C1899 H1898 0.961 . S
C1899 H1900 0.960 . S
H1900 C1899 0.960 . S
H1901 N1881 0.862 . S
O1902 Co1870 1.920 . S
O1902 C1875 1.289 . S
C1903 O1895 1.258 . S
C1903 O1896 1.266 . S
Co1904 O1907 1.970 . S
Co1904 N1921 1.989 . S
Co1904 O1929 1.967 . S
Co1904 O1936 1.920 . S
Co1905 O1908 1.966 . S
Co1905 N1914 2.022 . S
Co1905 N1922 1.993 . S
Co1905 O1930 1.941 . S
C1906 O1907 1.258 . S
C1906 O1908 1.263 . S
O1907 Co1904 1.970 . S
O1907 C1906 1.258 . S
O1908 Co1905 1.966 . S
O1908 C1906 1.263 . S
C1909 O1910 1.235 . S
C1909 O1936 1.289 . S
O1910 C1909 1.235 . S
C1911 C1913 1.400 . S
C1911 N1914 1.351 . S
C1911 C1916 1.501 . S
C1912 C1913 1.387 . S
C1912 N1915 1.341 . S
C1913 C1911 1.400 . S
C1913 C1912 1.387 . S
N1914 Co1905 2.022 . S
N1914 C1911 1.351 . S
N1914 N1915 1.365 . S
N1915 C1912 1.341 . S
N1915 N1914 1.365 . S
N1915 H1935 0.862 . S
C1916 C1911 1.501 . S
C1916 H1917 0.961 . S
C1916 H1918 0.961 . S
C1916 H1919 0.960 . S
H1917 C1916 0.961 . S
H1918 C1916 0.961 . S
H1919 C1916 0.960 . S
C1920 N1921 1.342 . S
C1920 C1924 1.401 . S
C1920 C1925 1.499 . S
N1921 Co1904 1.989 . S
N1921 C1920 1.342 . S
N1921 N1922 1.388 . S
N1922 Co1905 1.993 . S
N1922 N1921 1.388 . S
N1922 C1923 1.346 . S
C1923 N1922 1.346 . S
C1923 C1924 1.396 . S
C1923 C1933 1.510 . S
C1924 C1920 1.401 . S
C1924 C1923 1.396 . S
C1925 C1920 1.499 . S
C1925 H1926 0.959 . S
C1925 H1927 0.960 . S
C1925 H1928 0.961 . S
H1926 C1925 0.959 . S
H1927 C1925 0.960 . S
H1928 C1925 0.961 . S
O1929 Co1904 1.967 . S
O1929 C1937 1.258 . S
O1930 Co1905 1.941 . S
O1930 C1937 1.266 . S
H1931 C1933 0.959 . S
H1932 C1933 0.961 . S
C1933 C1923 1.510 . S
C1933 H1931 0.959 . S
C1933 H1932 0.961 . S
C1933 H1934 0.960 . S
H1934 C1933 0.960 . S
H1935 N1915 0.862 . S
O1936 Co1904 1.920 . S
O1936 C1909 1.289 . S
C1937 O1929 1.258 . S
C1937 O1930 1.266 . S
Co1938 O1941 1.970 . S
Co1938 N1955 1.989 . S
Co1938 O1963 1.967 . S
Co1938 O1970 1.920 . S
Co1939 O1942 1.966 . S
Co1939 N1948 2.022 . S
Co1939 N1956 1.993 . S
Co1939 O1964 1.941 . S
C1940 O1941 1.258 . S
C1940 O1942 1.263 . S
O1941 Co1938 1.970 . S
O1941 C1940 1.258 . S
O1942 Co1939 1.966 . S
O1942 C1940 1.263 . S
C1943 O1944 1.236 . S
C1943 O1970 1.289 1_554 S
O1944 C1943 1.236 . S
C1945 C1947 1.400 . S
C1945 N1948 1.351 . S
C1945 C1950 1.501 . S
C1946 C1947 1.387 . S
C1946 N1949 1.341 . S
C1947 C1945 1.400 . S
C1947 C1946 1.387 . S
N1948 Co1939 2.022 . S
N1948 C1945 1.351 . S
N1948 N1949 1.365 . S
N1949 C1946 1.341 . S
N1949 N1948 1.365 . S
N1949 H1969 0.862 . S
C1950 C1945 1.501 . S
C1950 H1951 0.961 . S
C1950 H1952 0.961 . S
C1950 H1953 0.960 . S
H1951 C1950 0.961 . S
H1952 C1950 0.961 . S
H1953 C1950 0.960 . S
C1954 N1955 1.342 . S
C1954 C1958 1.401 . S
C1954 C1959 1.499 . S
N1955 Co1938 1.989 . S
N1955 C1954 1.342 . S
N1955 N1956 1.388 . S
N1956 Co1939 1.993 . S
N1956 N1955 1.388 . S
N1956 C1957 1.346 . S
C1957 N1956 1.346 . S
C1957 C1958 1.396 . S
C1957 C1967 1.510 . S
C1958 C1954 1.401 . S
C1958 C1957 1.396 . S
C1959 C1954 1.499 . S
C1959 H1960 0.959 . S
C1959 H1961 0.960 . S
C1959 H1962 0.961 . S
H1960 C1959 0.959 . S
H1961 C1959 0.960 . S
H1962 C1959 0.961 . S
O1963 Co1938 1.967 . S
O1963 C1971 1.258 . S
O1964 Co1939 1.941 . S
O1964 C1971 1.266 . S
H1965 C1967 0.959 . S
H1966 C1967 0.961 . S
C1967 C1957 1.510 . S
C1967 H1965 0.959 . S
C1967 H1966 0.961 . S
C1967 H1968 0.960 . S
H1968 C1967 0.960 . S
H1969 N1949 0.862 . S
O1970 Co1938 1.920 . S
O1970 C1943 1.289 1_556 S
C1971 O1963 1.258 . S
C1971 O1964 1.266 . S
Co1972 O1975 1.970 . S
Co1972 N1989 1.989 . S
Co1972 O1997 1.967 . S
Co1972 O2004 1.920 . S
Co1973 O1976 1.966 . S
Co1973 N1982 2.022 . S
Co1973 N1990 1.993 . S
Co1973 O1998 1.941 . S
C1974 O1975 1.258 . S
C1974 O1976 1.263 . S
O1975 Co1972 1.970 . S
O1975 C1974 1.258 . S
O1976 Co1973 1.966 . S
O1976 C1974 1.263 . S
C1977 O1978 1.235 . S
C1977 O2004 1.289 . S
O1978 C1977 1.235 . S
C1979 C1981 1.400 . S
C1979 N1982 1.351 . S
C1979 C1984 1.501 . S
C1980 C1981 1.387 . S
C1980 N1983 1.341 . S
C1981 C1979 1.400 . S
C1981 C1980 1.387 . S
N1982 Co1973 2.022 . S
N1982 C1979 1.351 . S
N1982 N1983 1.365 . S
N1983 C1980 1.341 . S
N1983 N1982 1.365 . S
N1983 H2003 0.862 . S
C1984 C1979 1.501 . S
C1984 H1985 0.961 . S
C1984 H1986 0.961 . S
C1984 H1987 0.960 . S
H1985 C1984 0.961 . S
H1986 C1984 0.961 . S
H1987 C1984 0.960 . S
C1988 N1989 1.342 . S
C1988 C1992 1.401 . S
C1988 C1993 1.499 . S
N1989 Co1972 1.989 . S
N1989 C1988 1.342 . S
N1989 N1990 1.388 . S
N1990 Co1973 1.993 . S
N1990 N1989 1.388 . S
N1990 C1991 1.346 . S
C1991 N1990 1.346 . S
C1991 C1992 1.396 . S
C1991 C2001 1.510 . S
C1992 C1988 1.401 . S
C1992 C1991 1.396 . S
C1993 C1988 1.499 . S
C1993 H1994 0.959 . S
C1993 H1995 0.960 . S
C1993 H1996 0.961 . S
H1994 C1993 0.959 . S
H1995 C1993 0.960 . S
H1996 C1993 0.961 . S
O1997 Co1972 1.967 . S
O1997 C2005 1.258 . S
O1998 Co1973 1.941 . S
O1998 C2005 1.266 . S
H1999 C2001 0.959 . S
H2000 C2001 0.961 . S
C2001 C1991 1.510 . S
C2001 H1999 0.959 . S
C2001 H2000 0.961 . S
C2001 H2002 0.960 . S
H2002 C2001 0.960 . S
H2003 N1983 0.862 . S
O2004 Co1972 1.920 . S
O2004 C1977 1.289 . S
C2005 O1997 1.258 . S
C2005 O1998 1.266 . S
Co2006 O2009 1.970 . S
Co2006 N2023 1.989 . S
Co2006 O2031 1.967 . S
Co2006 O2038 1.920 . S
Co2007 O2010 1.966 . S
Co2007 N2016 2.022 . S
Co2007 N2024 1.993 . S
Co2007 O2032 1.941 . S
C2008 O2009 1.258 . S
C2008 O2010 1.263 . S
O2009 Co2006 1.970 . S
O2009 C2008 1.258 . S
O2010 Co2007 1.966 . S
O2010 C2008 1.263 . S
C2011 O2012 1.235 . S
C2011 O2038 1.289 . S
O2012 C2011 1.235 . S
C2013 C2015 1.400 . S
C2013 N2016 1.351 . S
C2013 C2018 1.501 . S
C2014 C2015 1.387 . S
C2014 N2017 1.341 . S
C2015 C2013 1.400 . S
C2015 C2014 1.387 . S
N2016 Co2007 2.022 . S
N2016 C2013 1.351 . S
N2016 N2017 1.365 . S
N2017 C2014 1.341 . S
N2017 N2016 1.365 . S
N2017 H2037 0.862 . S
C2018 C2013 1.501 . S
C2018 H2019 0.961 . S
C2018 H2020 0.961 . S
C2018 H2021 0.960 . S
H2019 C2018 0.961 . S
H2020 C2018 0.961 . S
H2021 C2018 0.960 . S
C2022 N2023 1.342 . S
C2022 C2026 1.401 . S
C2022 C2027 1.499 . S
N2023 Co2006 1.989 . S
N2023 C2022 1.342 . S
N2023 N2024 1.388 . S
N2024 Co2007 1.993 . S
N2024 N2023 1.388 . S
N2024 C2025 1.346 . S
C2025 N2024 1.346 . S
C2025 C2026 1.396 . S
C2025 C2035 1.510 . S
C2026 C2022 1.401 . S
C2026 C2025 1.396 . S
C2027 C2022 1.499 . S
C2027 H2028 0.959 . S
C2027 H2029 0.960 . S
C2027 H2030 0.961 . S
H2028 C2027 0.959 . S
H2029 C2027 0.960 . S
H2030 C2027 0.961 . S
O2031 Co2006 1.967 . S
O2031 C2039 1.258 . S
O2032 Co2007 1.941 . S
O2032 C2039 1.266 . S
H2033 C2035 0.959 . S
H2034 C2035 0.961 . S
C2035 C2025 1.510 . S
C2035 H2033 0.959 . S
C2035 H2034 0.961 . S
C2035 H2036 0.960 . S
H2036 C2035 0.960 . S
H2037 N2017 0.862 . S
O2038 Co2006 1.920 . S
O2038 C2011 1.289 . S
C2039 O2031 1.258 . S
C2039 O2032 1.266 . S
Co2040 O2043 1.970 . S
Co2040 N2057 1.989 . S
Co2040 O2065 1.967 . S
Co2040 O2072 1.920 . S
Co2041 O2044 1.966 . S
Co2041 N2050 2.022 . S
Co2041 N2058 1.993 . S
Co2041 O2066 1.941 . S
C2042 O2043 1.258 . S
C2042 O2044 1.263 . S
O2043 Co2040 1.970 . S
O2043 C2042 1.258 . S
O2044 Co2041 1.966 . S
O2044 C2042 1.263 . S
C2045 O2046 1.235 . S
C2045 O2072 1.289 . S
O2046 C2045 1.235 . S
C2047 C2049 1.400 . S
C2047 N2050 1.351 . S
C2047 C2052 1.501 . S
C2048 C2049 1.387 . S
C2048 N2051 1.341 . S
C2049 C2047 1.400 . S
C2049 C2048 1.387 . S
N2050 Co2041 2.022 . S
N2050 C2047 1.351 . S
N2050 N2051 1.365 . S
N2051 C2048 1.341 . S
N2051 N2050 1.365 . S
N2051 H2071 0.862 . S
C2052 C2047 1.501 . S
C2052 H2053 0.961 . S
C2052 H2054 0.961 . S
C2052 H2055 0.960 . S
H2053 C2052 0.961 . S
H2054 C2052 0.961 . S
H2055 C2052 0.960 . S
C2056 N2057 1.342 . S
C2056 C2060 1.401 . S
C2056 C2061 1.499 . S
N2057 Co2040 1.989 . S
N2057 C2056 1.342 . S
N2057 N2058 1.388 . S
N2058 Co2041 1.993 . S
N2058 N2057 1.388 . S
N2058 C2059 1.346 . S
C2059 N2058 1.346 . S
C2059 C2060 1.396 . S
C2059 C2069 1.510 . S
C2060 C2056 1.401 . S
C2060 C2059 1.396 . S
C2061 C2056 1.499 . S
C2061 H2062 0.959 . S
C2061 H2063 0.960 . S
C2061 H2064 0.961 . S
H2062 C2061 0.959 . S
H2063 C2061 0.960 . S
H2064 C2061 0.961 . S
O2065 Co2040 1.967 . S
O2065 C2073 1.258 . S
O2066 Co2041 1.941 . S
O2066 C2073 1.266 . S
H2067 C2069 0.959 . S
H2068 C2069 0.961 . S
C2069 C2059 1.510 . S
C2069 H2067 0.959 . S
C2069 H2068 0.961 . S
C2069 H2070 0.960 . S
H2070 C2069 0.960 . S
H2071 N2051 0.862 . S
O2072 Co2040 1.920 . S
O2072 C2045 1.289 . S
C2073 O2065 1.258 . S
C2073 O2066 1.266 . S
Co2074 O2077 1.970 . S
Co2074 N2091 1.989 . S
Co2074 O2099 1.967 . S
Co2074 O2106 1.920 . S
Co2075 O2078 1.966 . S
Co2075 N2084 2.022 . S
Co2075 N2092 1.993 . S
Co2075 O2100 1.941 . S
C2076 O2077 1.258 . S
C2076 O2078 1.263 . S
O2077 Co2074 1.970 . S
O2077 C2076 1.258 . S
O2078 Co2075 1.966 . S
O2078 C2076 1.263 . S
C2079 O2080 1.236 . S
C2079 O2106 1.289 1_556 S
O2080 C2079 1.236 . S
C2081 C2083 1.400 . S
C2081 N2084 1.351 . S
C2081 C2086 1.501 . S
C2082 C2083 1.387 . S
C2082 N2085 1.341 . S
C2083 C2081 1.400 . S
C2083 C2082 1.387 . S
N2084 Co2075 2.022 . S
N2084 C2081 1.351 . S
N2084 N2085 1.365 . S
N2085 C2082 1.341 . S
N2085 N2084 1.365 . S
N2085 H2105 0.862 . S
C2086 C2081 1.501 . S
C2086 H2087 0.961 . S
C2086 H2088 0.961 . S
C2086 H2089 0.960 . S
H2087 C2086 0.961 . S
H2088 C2086 0.961 . S
H2089 C2086 0.960 . S
C2090 N2091 1.342 . S
C2090 C2094 1.401 . S
C2090 C2095 1.499 . S
N2091 Co2074 1.989 . S
N2091 C2090 1.342 . S
N2091 N2092 1.388 . S
N2092 Co2075 1.993 . S
N2092 N2091 1.388 . S
N2092 C2093 1.346 . S
C2093 N2092 1.346 . S
C2093 C2094 1.396 . S
C2093 C2103 1.510 . S
C2094 C2090 1.401 . S
C2094 C2093 1.396 . S
C2095 C2090 1.499 . S
C2095 H2096 0.959 . S
C2095 H2097 0.960 . S
C2095 H2098 0.961 . S
H2096 C2095 0.959 . S
H2097 C2095 0.960 . S
H2098 C2095 0.961 . S
O2099 Co2074 1.967 . S
O2099 C2107 1.258 . S
O2100 Co2075 1.941 . S
O2100 C2107 1.266 . S
H2101 C2103 0.959 . S
H2102 C2103 0.961 . S
C2103 C2093 1.510 . S
C2103 H2101 0.959 . S
C2103 H2102 0.961 . S
C2103 H2104 0.960 . S
H2104 C2103 0.960 . S
H2105 N2085 0.862 . S
O2106 Co2074 1.920 . S
O2106 C2079 1.289 1_554 S
C2107 O2099 1.258 . S
C2107 O2100 1.266 . S
Co2108 O2111 1.970 . S
Co2108 N2125 1.989 . S
Co2108 O2133 1.967 . S
Co2108 O2140 1.920 . S
Co2109 O2112 1.966 . S
Co2109 N2118 2.022 . S
Co2109 N2126 1.993 . S
Co2109 O2134 1.941 . S
C2110 O2111 1.258 . S
C2110 O2112 1.263 . S
O2111 Co2108 1.970 . S
O2111 C2110 1.258 . S
O2112 Co2109 1.966 . S
O2112 C2110 1.263 . S
C2113 O2114 1.235 . S
C2113 O2140 1.289 . S
O2114 C2113 1.235 . S
C2115 C2117 1.400 . S
C2115 N2118 1.351 . S
C2115 C2120 1.501 . S
C2116 C2117 1.387 . S
C2116 N2119 1.341 . S
C2117 C2115 1.400 . S
C2117 C2116 1.387 . S
N2118 Co2109 2.022 . S
N2118 C2115 1.351 . S
N2118 N2119 1.365 . S
N2119 C2116 1.341 . S
N2119 N2118 1.365 . S
N2119 H2139 0.862 . S
C2120 C2115 1.501 . S
C2120 H2121 0.961 . S
C2120 H2122 0.961 . S
C2120 H2123 0.960 . S
H2121 C2120 0.961 . S
H2122 C2120 0.961 . S
H2123 C2120 0.960 . S
C2124 N2125 1.342 . S
C2124 C2128 1.401 . S
C2124 C2129 1.499 . S
N2125 Co2108 1.989 . S
N2125 C2124 1.342 . S
N2125 N2126 1.388 . S
N2126 Co2109 1.993 . S
N2126 N2125 1.388 . S
N2126 C2127 1.346 . S
C2127 N2126 1.346 . S
C2127 C2128 1.396 . S
C2127 C2137 1.510 . S
C2128 C2124 1.401 . S
C2128 C2127 1.396 . S
C2129 C2124 1.499 . S
C2129 H2130 0.959 . S
C2129 H2131 0.960 . S
C2129 H2132 0.961 . S
H2130 C2129 0.959 . S
H2131 C2129 0.960 . S
H2132 C2129 0.961 . S
O2133 Co2108 1.967 . S
O2133 C2141 1.258 . S
O2134 Co2109 1.941 . S
O2134 C2141 1.266 . S
H2135 C2137 0.959 . S
H2136 C2137 0.961 . S
C2137 C2127 1.510 . S
C2137 H2135 0.959 . S
C2137 H2136 0.961 . S
C2137 H2138 0.960 . S
H2138 C2137 0.960 . S
H2139 N2119 0.862 . S
O2140 Co2108 1.920 . S
O2140 C2113 1.289 . S
C2141 O2133 1.258 . S
C2141 O2134 1.266 . S
Co2142 O2145 1.970 . S
Co2142 N2159 1.989 . S
Co2142 O2167 1.967 . S
Co2142 O2174 1.920 . S
Co2143 O2146 1.966 . S
Co2143 N2152 2.022 . S
Co2143 N2160 1.993 . S
Co2143 O2168 1.941 . S
C2144 O2145 1.258 . S
C2144 O2146 1.263 . S
O2145 Co2142 1.970 . S
O2145 C2144 1.258 . S
O2146 Co2143 1.966 . S
O2146 C2144 1.263 . S
C2147 O2148 1.235 . S
C2147 O2174 1.289 . S
O2148 C2147 1.235 . S
C2149 C2151 1.400 . S
C2149 N2152 1.351 . S
C2149 C2154 1.501 . S
C2150 C2151 1.387 . S
C2150 N2153 1.341 . S
C2151 C2149 1.400 . S
C2151 C2150 1.387 . S
N2152 Co2143 2.022 . S
N2152 C2149 1.351 . S
N2152 N2153 1.365 . S
N2153 C2150 1.341 . S
N2153 N2152 1.365 . S
N2153 H2173 0.862 . S
C2154 C2149 1.501 . S
C2154 H2155 0.961 . S
C2154 H2156 0.961 . S
C2154 H2157 0.960 . S
H2155 C2154 0.961 . S
H2156 C2154 0.961 . S
H2157 C2154 0.960 . S
C2158 N2159 1.342 . S
C2158 C2162 1.401 . S
C2158 C2163 1.499 . S
N2159 Co2142 1.989 . S
N2159 C2158 1.342 . S
N2159 N2160 1.388 . S
N2160 Co2143 1.993 . S
N2160 N2159 1.388 . S
N2160 C2161 1.346 . S
C2161 N2160 1.346 . S
C2161 C2162 1.396 . S
C2161 C2171 1.510 . S
C2162 C2158 1.401 . S
C2162 C2161 1.396 . S
C2163 C2158 1.499 . S
C2163 H2164 0.959 . S
C2163 H2165 0.960 . S
C2163 H2166 0.961 . S
H2164 C2163 0.959 . S
H2165 C2163 0.960 . S
H2166 C2163 0.961 . S
O2167 Co2142 1.967 . S
O2167 C2175 1.258 . S
O2168 Co2143 1.941 . S
O2168 C2175 1.266 . S
H2169 C2171 0.959 . S
H2170 C2171 0.961 . S
C2171 C2161 1.510 . S
C2171 H2169 0.959 . S
C2171 H2170 0.961 . S
C2171 H2172 0.960 . S
H2172 C2171 0.960 . S
H2173 N2153 0.862 . S
O2174 Co2142 1.920 . S
O2174 C2147 1.289 . S
C2175 O2167 1.258 . S
C2175 O2168 1.266 . S
Co2176 O2179 1.970 . S
Co2176 N2193 1.989 . S
Co2176 O2201 1.967 . S
Co2176 O2208 1.920 . S
Co2177 O2180 1.966 . S
Co2177 N2186 2.022 . S
Co2177 N2194 1.993 . S
Co2177 O2202 1.941 . S
C2178 O2179 1.258 . S
C2178 O2180 1.263 . S
O2179 Co2176 1.970 . S
O2179 C2178 1.258 . S
O2180 Co2177 1.966 . S
O2180 C2178 1.263 . S
C2181 O2182 1.235 . S
C2181 O2208 1.289 . S
O2182 C2181 1.235 . S
C2183 C2185 1.400 . S
C2183 N2186 1.351 . S
C2183 C2188 1.501 . S
C2184 C2185 1.387 . S
C2184 N2187 1.341 . S
C2185 C2183 1.400 . S
C2185 C2184 1.387 . S
N2186 Co2177 2.022 . S
N2186 C2183 1.351 . S
N2186 N2187 1.365 . S
N2187 C2184 1.341 . S
N2187 N2186 1.365 . S
N2187 H2207 0.862 . S
C2188 C2183 1.501 . S
C2188 H2189 0.961 . S
C2188 H2190 0.961 . S
C2188 H2191 0.960 . S
H2189 C2188 0.961 . S
H2190 C2188 0.961 . S
H2191 C2188 0.960 . S
C2192 N2193 1.342 . S
C2192 C2196 1.401 . S
C2192 C2197 1.499 . S
N2193 Co2176 1.989 . S
N2193 C2192 1.342 . S
N2193 N2194 1.388 . S
N2194 Co2177 1.993 . S
N2194 N2193 1.388 . S
N2194 C2195 1.346 . S
C2195 N2194 1.346 . S
C2195 C2196 1.396 . S
C2195 C2205 1.510 . S
C2196 C2192 1.401 . S
C2196 C2195 1.396 . S
C2197 C2192 1.499 . S
C2197 H2198 0.959 . S
C2197 H2199 0.960 . S
C2197 H2200 0.961 . S
H2198 C2197 0.959 . S
H2199 C2197 0.960 . S
H2200 C2197 0.961 . S
O2201 Co2176 1.967 . S
O2201 C2209 1.258 . S
O2202 Co2177 1.941 . S
O2202 C2209 1.266 . S
H2203 C2205 0.959 . S
H2204 C2205 0.961 . S
C2205 C2195 1.510 . S
C2205 H2203 0.959 . S
C2205 H2204 0.961 . S
C2205 H2206 0.960 . S
H2206 C2205 0.960 . S
H2207 N2187 0.862 . S
O2208 Co2176 1.920 . S
O2208 C2181 1.289 . S
C2209 O2201 1.258 . S
C2209 O2202 1.266 . S
Co2210 O2213 1.970 . S
Co2210 N2227 1.989 . S
Co2210 O2235 1.967 . S
Co2210 O2242 1.920 . S
Co2211 O2214 1.966 . S
Co2211 N2220 2.022 . S
Co2211 N2228 1.993 . S
Co2211 O2236 1.941 . S
C2212 O2213 1.258 . S
C2212 O2214 1.263 . S
O2213 Co2210 1.970 . S
O2213 C2212 1.258 . S
O2214 Co2211 1.966 . S
O2214 C2212 1.263 . S
C2215 O2216 1.235 . S
C2215 O2242 1.289 . S
O2216 C2215 1.235 . S
C2217 C2219 1.400 . S
C2217 N2220 1.351 . S
C2217 C2222 1.501 . S
C2218 C2219 1.387 . S
C2218 N2221 1.341 . S
C2219 C2217 1.400 . S
C2219 C2218 1.387 . S
N2220 Co2211 2.022 . S
N2220 C2217 1.351 . S
N2220 N2221 1.365 . S
N2221 C2218 1.341 . S
N2221 N2220 1.365 . S
N2221 H2241 0.862 . S
C2222 C2217 1.501 . S
C2222 H2223 0.961 . S
C2222 H2224 0.961 . S
C2222 H2225 0.960 . S
H2223 C2222 0.961 . S
H2224 C2222 0.961 . S
H2225 C2222 0.960 . S
C2226 N2227 1.342 . S
C2226 C2230 1.401 . S
C2226 C2231 1.499 . S
N2227 Co2210 1.989 . S
N2227 C2226 1.342 . S
N2227 N2228 1.388 . S
N2228 Co2211 1.993 . S
N2228 N2227 1.388 . S
N2228 C2229 1.346 . S
C2229 N2228 1.346 . S
C2229 C2230 1.396 . S
C2229 C2239 1.510 . S
C2230 C2226 1.401 . S
C2230 C2229 1.396 . S
C2231 C2226 1.499 . S
C2231 H2232 0.959 . S
C2231 H2233 0.960 . S
C2231 H2234 0.961 . S
H2232 C2231 0.959 . S
H2233 C2231 0.960 . S
H2234 C2231 0.961 . S
O2235 Co2210 1.967 . S
O2235 C2243 1.258 . S
O2236 Co2211 1.941 . S
O2236 C2243 1.266 . S
H2237 C2239 0.959 . S
H2238 C2239 0.961 . S
C2239 C2229 1.510 . S
C2239 H2237 0.959 . S
C2239 H2238 0.961 . S
C2239 H2240 0.960 . S
H2240 C2239 0.960 . S
H2241 N2221 0.862 . S
O2242 Co2210 1.920 . S
O2242 C2215 1.289 . S
C2243 O2235 1.258 . S
C2243 O2236 1.266 . S
Co2244 O2247 1.970 . S
Co2244 N2261 1.989 . S
Co2244 O2269 1.967 . S
Co2244 O2276 1.920 . S
Co2245 O2248 1.966 . S
Co2245 N2254 2.022 . S
Co2245 N2262 1.993 . S
Co2245 O2270 1.941 . S
C2246 O2247 1.258 . S
C2246 O2248 1.263 . S
O2247 Co2244 1.970 . S
O2247 C2246 1.258 . S
O2248 Co2245 1.966 . S
O2248 C2246 1.263 . S
C2249 O2250 1.236 . S
C2249 O2276 1.289 1_545 S
O2250 C2249 1.236 . S
C2251 C2253 1.400 . S
C2251 N2254 1.351 . S
C2251 C2256 1.501 . S
C2252 C2253 1.387 . S
C2252 N2255 1.341 . S
C2253 C2251 1.400 . S
C2253 C2252 1.387 . S
N2254 Co2245 2.022 . S
N2254 C2251 1.351 . S
N2254 N2255 1.365 . S
N2255 C2252 1.341 . S
N2255 N2254 1.365 . S
N2255 H2275 0.862 . S
C2256 C2251 1.501 . S
C2256 H2257 0.961 . S
C2256 H2258 0.961 . S
C2256 H2259 0.960 . S
H2257 C2256 0.961 . S
H2258 C2256 0.961 . S
H2259 C2256 0.960 . S
C2260 N2261 1.342 . S
C2260 C2264 1.401 . S
C2260 C2265 1.499 . S
N2261 Co2244 1.989 . S
N2261 C2260 1.342 . S
N2261 N2262 1.388 . S
N2262 Co2245 1.993 . S
N2262 N2261 1.388 . S
N2262 C2263 1.346 . S
C2263 N2262 1.346 . S
C2263 C2264 1.396 . S
C2263 C2273 1.510 . S
C2264 C2260 1.401 . S
C2264 C2263 1.396 . S
C2265 C2260 1.499 . S
C2265 H2266 0.959 . S
C2265 H2267 0.960 . S
C2265 H2268 0.961 . S
H2266 C2265 0.959 . S
H2267 C2265 0.960 . S
H2268 C2265 0.961 . S
O2269 Co2244 1.967 . S
O2269 C2277 1.258 . S
O2270 Co2245 1.941 . S
O2270 C2277 1.266 . S
H2271 C2273 0.959 . S
H2272 C2273 0.961 . S
C2273 C2263 1.510 . S
C2273 H2271 0.959 . S
C2273 H2272 0.961 . S
C2273 H2274 0.960 . S
H2274 C2273 0.960 . S
H2275 N2255 0.862 . S
O2276 Co2244 1.920 . S
O2276 C2249 1.289 1_565 S
C2277 O2269 1.258 . S
C2277 O2270 1.266 . S
Co2278 O2281 1.970 . S
Co2278 N2295 1.989 . S
Co2278 O2303 1.967 1_556 S
Co2278 O2310 1.920 1_556 S
Co2279 O2282 1.966 . S
Co2279 N2288 2.022 . S
Co2279 N2296 1.993 . S
Co2279 O2304 1.941 . S
C2280 O2281 1.258 . S
C2280 O2282 1.263 . S
O2281 Co2278 1.970 . S
O2281 C2280 1.258 . S
O2282 Co2279 1.966 . S
O2282 C2280 1.263 . S
C2283 O2284 1.235 1_554 S
C2283 O2310 1.289 . S
O2284 C2283 1.235 1_556 S
C2285 C2287 1.400 . S
C2285 N2288 1.351 . S
C2285 C2290 1.501 . S
C2286 C2287 1.387 . S
C2286 N2289 1.341 . S
C2287 C2285 1.400 . S
C2287 C2286 1.387 . S
N2288 Co2279 2.022 . S
N2288 C2285 1.351 . S
N2288 N2289 1.365 . S
N2289 C2286 1.341 . S
N2289 N2288 1.365 . S
N2289 H2309 0.862 . S
C2290 C2285 1.501 . S
C2290 H2291 0.961 . S
C2290 H2292 0.961 . S
C2290 H2293 0.960 . S
H2291 C2290 0.961 . S
H2292 C2290 0.961 . S
H2293 C2290 0.960 . S
C2294 N2295 1.342 . S
C2294 C2298 1.401 . S
C2294 C2299 1.499 1_556 S
N2295 Co2278 1.989 . S
N2295 C2294 1.342 . S
N2295 N2296 1.388 . S
N2296 Co2279 1.993 . S
N2296 N2295 1.388 . S
N2296 C2297 1.346 . S
C2297 N2296 1.346 . S
C2297 C2298 1.396 . S
C2297 C2307 1.510 . S
C2298 C2294 1.401 . S
C2298 C2297 1.396 . S
C2299 C2294 1.499 1_554 S
C2299 H2300 0.959 . S
C2299 H2301 0.960 1_554 S
C2299 H2302 0.961 . S
H2300 C2299 0.959 . S
H2301 C2299 0.960 1_556 S
H2302 C2299 0.961 . S
O2303 Co2278 1.967 1_554 S
O2303 C2311 1.260 . S
O2304 Co2279 1.941 . S
O2304 C2311 1.239 1_556 S
H2305 C2307 0.959 . S
H2306 C2307 0.961 . S
C2307 C2297 1.510 . S
C2307 H2305 0.959 . S
C2307 H2306 0.961 . S
C2307 H2308 0.960 . S
H2308 C2307 0.960 . S
H2309 N2289 0.862 . S
O2310 Co2278 1.920 1_554 S
O2310 C2283 1.289 . S
C2311 O2303 1.260 . S
C2311 O2304 1.239 1_554 S
Co2312 O2315 1.970 . S
Co2312 N2329 1.989 . S
Co2312 O2337 1.967 . S
Co2312 O2344 1.920 . S
Co2313 O2316 1.966 . S
Co2313 N2322 2.022 . S
Co2313 N2330 1.993 . S
Co2313 O2338 1.941 . S
C2314 O2315 1.258 . S
C2314 O2316 1.263 . S
O2315 Co2312 1.970 . S
O2315 C2314 1.258 . S
O2316 Co2313 1.966 . S
O2316 C2314 1.263 . S
C2317 O2318 1.235 . S
C2317 O2344 1.289 . S
O2318 C2317 1.235 . S
C2319 C2321 1.400 . S
C2319 N2322 1.351 . S
C2319 C2324 1.501 . S
C2320 C2321 1.387 . S
C2320 N2323 1.341 . S
C2321 C2319 1.400 . S
C2321 C2320 1.387 . S
N2322 Co2313 2.022 . S
N2322 C2319 1.351 . S
N2322 N2323 1.365 . S
N2323 C2320 1.341 . S
N2323 N2322 1.365 . S
N2323 H2343 0.862 . S
C2324 C2319 1.501 . S
C2324 H2325 0.961 . S
C2324 H2326 0.961 . S
C2324 H2327 0.960 . S
H2325 C2324 0.961 . S
H2326 C2324 0.961 . S
H2327 C2324 0.960 . S
C2328 N2329 1.342 . S
C2328 C2332 1.401 . S
C2328 C2333 1.499 . S
N2329 Co2312 1.989 . S
N2329 C2328 1.342 . S
N2329 N2330 1.388 . S
N2330 Co2313 1.993 . S
N2330 N2329 1.388 . S
N2330 C2331 1.346 . S
C2331 N2330 1.346 . S
C2331 C2332 1.396 . S
C2331 C2341 1.510 . S
C2332 C2328 1.401 . S
C2332 C2331 1.396 . S
C2333 C2328 1.499 . S
C2333 H2334 0.959 . S
C2333 H2335 0.960 . S
C2333 H2336 0.961 . S
H2334 C2333 0.959 . S
H2335 C2333 0.960 . S
H2336 C2333 0.961 . S
O2337 Co2312 1.967 . S
O2337 C2345 1.258 . S
O2338 Co2313 1.941 . S
O2338 C2345 1.266 . S
H2339 C2341 0.959 . S
H2340 C2341 0.961 . S
C2341 C2331 1.510 . S
C2341 H2339 0.959 . S
C2341 H2340 0.961 . S
C2341 H2342 0.960 . S
H2342 C2341 0.960 . S
H2343 N2323 0.862 . S
O2344 Co2312 1.920 . S
O2344 C2317 1.289 . S
C2345 O2337 1.258 . S
C2345 O2338 1.266 . S
Co2346 O2349 1.970 . S
Co2346 N2363 1.989 . S
Co2346 O2371 1.967 1_554 S
Co2346 O2378 1.920 1_554 S
Co2347 O2350 1.966 . S
Co2347 N2356 2.022 . S
Co2347 N2364 1.993 . S
Co2347 O2372 1.941 . S
C2348 O2349 1.258 . S
C2348 O2350 1.263 . S
O2349 Co2346 1.970 . S
O2349 C2348 1.258 . S
O2350 Co2347 1.966 . S
O2350 C2348 1.263 . S
C2351 O2352 1.235 1_556 S
C2351 O2378 1.289 . S
O2352 C2351 1.235 1_554 S
C2353 C2355 1.400 . S
C2353 N2356 1.351 . S
C2353 C2358 1.501 . S
C2354 C2355 1.387 . S
C2354 N2357 1.341 . S
C2355 C2353 1.400 . S
C2355 C2354 1.387 . S
N2356 Co2347 2.022 . S
N2356 C2353 1.351 . S
N2356 N2357 1.365 . S
N2357 C2354 1.341 . S
N2357 N2356 1.365 . S
N2357 H2377 0.862 . S
C2358 C2353 1.501 . S
C2358 H2359 0.961 . S
C2358 H2360 0.961 . S
C2358 H2361 0.960 . S
H2359 C2358 0.961 . S
H2360 C2358 0.961 . S
H2361 C2358 0.960 . S
C2362 N2363 1.342 . S
C2362 C2366 1.401 . S
C2362 C2367 1.499 1_554 S
N2363 Co2346 1.989 . S
N2363 C2362 1.342 . S
N2363 N2364 1.388 . S
N2364 Co2347 1.993 . S
N2364 N2363 1.388 . S
N2364 C2365 1.346 . S
C2365 N2364 1.346 . S
C2365 C2366 1.396 . S
C2365 C2375 1.510 . S
C2366 C2362 1.401 . S
C2366 C2365 1.396 . S
C2367 C2362 1.499 1_556 S
C2367 H2368 0.959 . S
C2367 H2369 0.960 1_556 S
C2367 H2370 0.961 . S
H2368 C2367 0.959 . S
H2369 C2367 0.960 1_554 S
H2370 C2367 0.961 . S
O2371 Co2346 1.967 1_556 S
O2371 C2379 1.260 . S
O2372 Co2347 1.941 . S
O2372 C2379 1.238 1_554 S
H2373 C2375 0.959 . S
H2374 C2375 0.961 . S
C2375 C2365 1.510 . S
C2375 H2373 0.959 . S
C2375 H2374 0.961 . S
C2375 H2376 0.960 . S
H2376 C2375 0.960 . S
H2377 N2357 0.862 . S
O2378 Co2346 1.920 1_556 S
O2378 C2351 1.289 . S
C2379 O2371 1.260 . S
C2379 O2372 1.238 1_556 S
Co2380 O2383 1.970 . S
Co2380 N2397 1.989 . S
Co2380 O2405 1.967 . S
Co2380 O2412 1.920 . S
Co2381 O2384 1.966 . S
Co2381 N2390 2.022 . S
Co2381 N2398 1.993 . S
Co2381 O2406 1.941 . S
C2382 O2383 1.258 . S
C2382 O2384 1.263 . S
O2383 Co2380 1.970 . S
O2383 C2382 1.258 . S
O2384 Co2381 1.966 . S
O2384 C2382 1.263 . S
C2385 O2386 1.236 . S
C2385 O2412 1.289 1_565 S
O2386 C2385 1.236 . S
C2387 C2389 1.400 . S
C2387 N2390 1.351 . S
C2387 C2392 1.501 . S
C2388 C2389 1.387 . S
C2388 N2391 1.341 . S
C2389 C2387 1.400 . S
C2389 C2388 1.387 . S
N2390 Co2381 2.022 . S
N2390 C2387 1.351 . S
N2390 N2391 1.365 . S
N2391 C2388 1.341 . S
N2391 N2390 1.365 . S
N2391 H2411 0.862 . S
C2392 C2387 1.501 . S
C2392 H2393 0.961 . S
C2392 H2394 0.961 . S
C2392 H2395 0.960 . S
H2393 C2392 0.961 . S
H2394 C2392 0.961 . S
H2395 C2392 0.960 . S
C2396 N2397 1.342 . S
C2396 C2400 1.401 . S
C2396 C2401 1.499 . S
N2397 Co2380 1.989 . S
N2397 C2396 1.342 . S
N2397 N2398 1.388 . S
N2398 Co2381 1.993 . S
N2398 N2397 1.388 . S
N2398 C2399 1.346 . S
C2399 N2398 1.346 . S
C2399 C2400 1.396 . S
C2399 C2409 1.510 . S
C2400 C2396 1.401 . S
C2400 C2399 1.396 . S
C2401 C2396 1.499 . S
C2401 H2402 0.959 . S
C2401 H2403 0.960 . S
C2401 H2404 0.961 . S
H2402 C2401 0.959 . S
H2403 C2401 0.960 . S
H2404 C2401 0.961 . S
O2405 Co2380 1.967 . S
O2405 C2413 1.258 . S
O2406 Co2381 1.941 . S
O2406 C2413 1.266 . S
H2407 C2409 0.959 . S
H2408 C2409 0.961 . S
C2409 C2399 1.510 . S
C2409 H2407 0.959 . S
C2409 H2408 0.961 . S
C2409 H2410 0.960 . S
H2410 C2409 0.960 . S
H2411 N2391 0.862 . S
O2412 Co2380 1.920 . S
O2412 C2385 1.289 1_545 S
C2413 O2405 1.258 . S
C2413 O2406 1.266 . S
Co2414 O2417 1.970 . S
Co2414 N2431 1.989 . S
Co2414 O2439 1.967 . S
Co2414 O2446 1.920 . S
Co2415 O2418 1.966 . S
Co2415 N2424 2.022 . S
Co2415 N2432 1.993 . S
Co2415 O2440 1.941 . S
C2416 O2417 1.258 . S
C2416 O2418 1.263 . S
O2417 Co2414 1.970 . S
O2417 C2416 1.258 . S
O2418 Co2415 1.966 . S
O2418 C2416 1.263 . S
C2419 O2420 1.236 . S
C2419 O2446 1.289 1_545 S
O2420 C2419 1.236 . S
C2421 C2423 1.400 . S
C2421 N2424 1.351 . S
C2421 C2426 1.501 . S
C2422 C2423 1.387 . S
C2422 N2425 1.341 . S
C2423 C2421 1.400 . S
C2423 C2422 1.387 . S
N2424 Co2415 2.022 . S
N2424 C2421 1.351 . S
N2424 N2425 1.365 . S
N2425 C2422 1.341 . S
N2425 N2424 1.365 . S
N2425 H2445 0.862 . S
C2426 C2421 1.501 . S
C2426 H2427 0.961 . S
C2426 H2428 0.961 . S
C2426 H2429 0.960 . S
H2427 C2426 0.961 . S
H2428 C2426 0.961 . S
H2429 C2426 0.960 . S
C2430 N2431 1.342 . S
C2430 C2434 1.401 . S
C2430 C2435 1.499 1_655 S
N2431 Co2414 1.989 . S
N2431 C2430 1.342 . S
N2431 N2432 1.388 . S
N2432 Co2415 1.993 . S
N2432 N2431 1.388 . S
N2432 C2433 1.346 . S
C2433 N2432 1.346 . S
C2433 C2434 1.396 . S
C2433 C2443 1.510 . S
C2434 C2430 1.401 . S
C2434 C2433 1.396 . S
C2435 C2430 1.499 1_455 S
C2435 H2436 0.959 1_455 S
C2435 H2437 0.960 . S
C2435 H2438 0.961 . S
H2436 C2435 0.959 1_655 S
H2437 C2435 0.960 . S
H2438 C2435 0.961 . S
O2439 Co2414 1.967 . S
O2439 C2447 1.258 . S
O2440 Co2415 1.941 . S
O2440 C2447 1.266 . S
H2441 C2443 0.959 . S
H2442 C2443 0.961 . S
C2443 C2433 1.510 . S
C2443 H2441 0.959 . S
C2443 H2442 0.961 . S
C2443 H2444 0.960 . S
H2444 C2443 0.960 . S
H2445 N2425 0.862 . S
O2446 Co2414 1.920 . S
O2446 C2419 1.289 1_565 S
C2447 O2439 1.258 . S
C2447 O2440 1.266 . S
Co2448 O2451 1.970 . S
Co2448 N2465 1.989 . S
Co2448 O2473 1.967 . S
Co2448 O2480 1.920 . S
Co2449 O2452 1.966 . S
Co2449 N2458 2.022 . S
Co2449 N2466 1.993 . S
Co2449 O2474 1.941 . S
C2450 O2451 1.258 . S
C2450 O2452 1.263 . S
O2451 Co2448 1.970 . S
O2451 C2450 1.258 . S
O2452 Co2449 1.966 . S
O2452 C2450 1.263 . S
C2453 O2454 1.235 . S
C2453 O2480 1.289 . S
O2454 C2453 1.235 . S
C2455 C2457 1.400 . S
C2455 N2458 1.351 . S
C2455 C2460 1.501 . S
C2456 C2457 1.387 . S
C2456 N2459 1.341 . S
C2457 C2455 1.400 . S
C2457 C2456 1.387 . S
N2458 Co2449 2.022 . S
N2458 C2455 1.351 . S
N2458 N2459 1.365 . S
N2459 C2456 1.341 . S
N2459 N2458 1.365 . S
N2459 H2479 0.862 . S
C2460 C2455 1.501 . S
C2460 H2461 0.961 . S
C2460 H2462 0.961 . S
C2460 H2463 0.960 . S
H2461 C2460 0.961 . S
H2462 C2460 0.961 . S
H2463 C2460 0.960 . S
C2464 N2465 1.342 . S
C2464 C2468 1.401 . S
C2464 C2469 1.499 . S
N2465 Co2448 1.989 . S
N2465 C2464 1.342 . S
N2465 N2466 1.388 . S
N2466 Co2449 1.993 . S
N2466 N2465 1.388 . S
N2466 C2467 1.346 . S
C2467 N2466 1.346 . S
C2467 C2468 1.396 . S
C2467 C2477 1.510 . S
C2468 C2464 1.401 . S
C2468 C2467 1.396 . S
C2469 C2464 1.499 . S
C2469 H2470 0.959 . S
C2469 H2471 0.960 . S
C2469 H2472 0.961 . S
H2470 C2469 0.959 . S
H2471 C2469 0.960 . S
H2472 C2469 0.961 . S
O2473 Co2448 1.967 . S
O2473 C2481 1.258 . S
O2474 Co2449 1.941 . S
O2474 C2481 1.266 . S
H2475 C2477 0.959 . S
H2476 C2477 0.961 . S
C2477 C2467 1.510 . S
C2477 H2475 0.959 . S
C2477 H2476 0.961 . S
C2477 H2478 0.960 . S
H2478 C2477 0.960 . S
H2479 N2459 0.862 . S
O2480 Co2448 1.920 . S
O2480 C2453 1.289 . S
C2481 O2473 1.258 . S
C2481 O2474 1.266 . S
Co2482 O2485 1.970 . S
Co2482 N2499 1.989 . S
Co2482 O2507 1.967 . S
Co2482 O2514 1.920 . S
Co2483 O2486 1.966 . S
Co2483 N2492 2.022 . S
Co2483 N2500 1.993 . S
Co2483 O2508 1.941 . S
C2484 O2485 1.258 . S
C2484 O2486 1.263 . S
O2485 Co2482 1.970 . S
O2485 C2484 1.258 . S
O2486 Co2483 1.966 . S
O2486 C2484 1.263 . S
C2487 O2488 1.235 . S
C2487 O2514 1.289 . S
O2488 C2487 1.235 . S
C2489 C2491 1.400 . S
C2489 N2492 1.351 . S
C2489 C2494 1.501 . S
C2490 C2491 1.387 . S
C2490 N2493 1.341 . S
C2491 C2489 1.400 . S
C2491 C2490 1.387 . S
N2492 Co2483 2.022 . S
N2492 C2489 1.351 . S
N2492 N2493 1.365 . S
N2493 C2490 1.341 . S
N2493 N2492 1.365 . S
N2493 H2513 0.862 . S
C2494 C2489 1.501 . S
C2494 H2495 0.961 . S
C2494 H2496 0.961 . S
C2494 H2497 0.960 . S
H2495 C2494 0.961 . S
H2496 C2494 0.961 . S
H2497 C2494 0.960 . S
C2498 N2499 1.342 . S
C2498 C2502 1.401 . S
C2498 C2503 1.499 1_556 S
N2499 Co2482 1.989 . S
N2499 C2498 1.342 . S
N2499 N2500 1.388 . S
N2500 Co2483 1.993 . S
N2500 N2499 1.388 . S
N2500 C2501 1.346 . S
C2501 N2500 1.346 . S
C2501 C2502 1.396 . S
C2501 C2511 1.510 . S
C2502 C2498 1.401 . S
C2502 C2501 1.396 . S
C2503 C2498 1.499 1_554 S
C2503 H2504 0.959 1_554 S
C2503 H2505 0.960 . S
C2503 H2506 0.961 . S
H2504 C2503 0.959 1_556 S
H2505 C2503 0.960 . S
H2506 C2503 0.961 . S
O2507 Co2482 1.967 . S
O2507 C2515 1.258 . S
O2508 Co2483 1.941 . S
O2508 C2515 1.266 . S
H2509 C2511 0.959 . S
H2510 C2511 0.961 . S
C2511 C2501 1.510 . S
C2511 H2509 0.959 . S
C2511 H2510 0.961 . S
C2511 H2512 0.960 . S
H2512 C2511 0.960 . S
H2513 N2493 0.862 . S
O2514 Co2482 1.920 . S
O2514 C2487 1.289 . S
C2515 O2507 1.258 . S
C2515 O2508 1.266 . S
Co2516 O2519 1.970 . S
Co2516 N2533 1.989 . S
Co2516 O2541 1.967 1_455 S
Co2516 O2548 1.920 1_455 S
Co2517 O2520 1.966 . S
Co2517 N2526 2.022 . S
Co2517 N2534 1.993 . S
Co2517 O2542 1.941 . S
C2518 O2519 1.258 . S
C2518 O2520 1.263 . S
O2519 Co2516 1.970 . S
O2519 C2518 1.258 . S
O2520 Co2517 1.966 . S
O2520 C2518 1.263 . S
C2521 O2522 1.235 1_655 S
C2521 O2548 1.289 . S
O2522 C2521 1.235 1_455 S
C2523 C2525 1.400 . S
C2523 N2526 1.351 . S
C2523 C2528 1.501 . S
C2524 C2525 1.387 . S
C2524 N2527 1.341 . S
C2525 C2523 1.400 . S
C2525 C2524 1.387 . S
N2526 Co2517 2.022 . S
N2526 C2523 1.351 . S
N2526 N2527 1.365 . S
N2527 C2524 1.341 . S
N2527 N2526 1.365 . S
N2527 H2547 0.862 . S
C2528 C2523 1.501 . S
C2528 H2529 0.961 . S
C2528 H2530 0.961 . S
C2528 H2531 0.960 . S
H2529 C2528 0.961 . S
H2530 C2528 0.961 . S
H2531 C2528 0.960 . S
C2532 N2533 1.342 . S
C2532 C2536 1.401 . S
C2532 C2537 1.499 1_455 S
N2533 Co2516 1.989 . S
N2533 C2532 1.342 . S
N2533 N2534 1.388 . S
N2534 Co2517 1.993 . S
N2534 N2533 1.388 . S
N2534 C2535 1.346 . S
C2535 N2534 1.346 . S
C2535 C2536 1.396 . S
C2535 C2545 1.510 . S
C2536 C2532 1.401 . S
C2536 C2535 1.396 . S
C2537 C2532 1.499 1_655 S
C2537 H2538 0.959 . S
C2537 H2539 0.960 1_655 S
C2537 H2540 0.961 . S
H2538 C2537 0.959 . S
H2539 C2537 0.960 1_455 S
H2540 C2537 0.961 . S
O2541 Co2516 1.967 1_655 S
O2541 C2549 1.260 . S
O2542 Co2517 1.941 . S
O2542 C2549 1.239 1_455 S
H2543 C2545 0.959 . S
H2544 C2545 0.961 . S
C2545 C2535 1.510 . S
C2545 H2543 0.959 . S
C2545 H2544 0.961 . S
C2545 H2546 0.960 . S
H2546 C2545 0.960 . S
H2547 N2527 0.862 . S
O2548 Co2516 1.920 1_655 S
O2548 C2521 1.289 . S
C2549 O2541 1.260 . S
C2549 O2542 1.239 1_655 S
Co2550 O2553 1.970 . S
Co2550 N2567 1.989 . S
Co2550 O2575 1.967 . S
Co2550 O2582 1.920 . S
Co2551 O2554 1.966 . S
Co2551 N2560 2.022 . S
Co2551 N2568 1.993 . S
Co2551 O2576 1.941 . S
C2552 O2553 1.258 . S
C2552 O2554 1.263 . S
O2553 Co2550 1.970 . S
O2553 C2552 1.258 . S
O2554 Co2551 1.966 . S
O2554 C2552 1.263 . S
C2555 O2556 1.236 . S
C2555 O2582 1.289 1_655 S
O2556 C2555 1.236 . S
C2557 C2559 1.400 . S
C2557 N2560 1.351 . S
C2557 C2562 1.501 . S
C2558 C2559 1.387 . S
C2558 N2561 1.341 . S
C2559 C2557 1.400 . S
C2559 C2558 1.387 . S
N2560 Co2551 2.022 . S
N2560 C2557 1.351 . S
N2560 N2561 1.365 . S
N2561 C2558 1.341 . S
N2561 N2560 1.365 . S
N2561 H2581 0.862 . S
C2562 C2557 1.501 . S
C2562 H2563 0.961 . S
C2562 H2564 0.961 . S
C2562 H2565 0.960 . S
H2563 C2562 0.961 . S
H2564 C2562 0.961 . S
H2565 C2562 0.960 . S
C2566 N2567 1.342 . S
C2566 C2570 1.401 . S
C2566 C2571 1.499 . S
N2567 Co2550 1.989 . S
N2567 C2566 1.342 . S
N2567 N2568 1.388 . S
N2568 Co2551 1.993 . S
N2568 N2567 1.388 . S
N2568 C2569 1.346 . S
C2569 N2568 1.346 . S
C2569 C2570 1.396 . S
C2569 C2579 1.510 . S
C2570 C2566 1.401 . S
C2570 C2569 1.396 . S
C2571 C2566 1.499 . S
C2571 H2572 0.959 . S
C2571 H2573 0.960 . S
C2571 H2574 0.961 . S
H2572 C2571 0.959 . S
H2573 C2571 0.960 . S
H2574 C2571 0.961 . S
O2575 Co2550 1.967 . S
O2575 C2583 1.258 . S
O2576 Co2551 1.941 . S
O2576 C2583 1.266 . S
H2577 C2579 0.959 . S
H2578 C2579 0.961 . S
C2579 C2569 1.510 . S
C2579 H2577 0.959 . S
C2579 H2578 0.961 . S
C2579 H2580 0.960 . S
H2580 C2579 0.960 . S
H2581 N2561 0.862 . S
O2582 Co2550 1.920 . S
O2582 C2555 1.289 1_455 S
C2583 O2575 1.258 . S
C2583 O2576 1.266 . S
Co2584 O2587 1.970 . S
Co2584 N2601 1.989 . S
Co2584 O2609 1.967 . S
Co2584 O2616 1.920 . S
Co2585 O2588 1.966 . S
Co2585 N2594 2.022 . S
Co2585 N2602 1.993 . S
Co2585 O2610 1.941 . S
C2586 O2587 1.258 . S
C2586 O2588 1.263 . S
O2587 Co2584 1.970 . S
O2587 C2586 1.258 . S
O2588 Co2585 1.966 . S
O2588 C2586 1.263 . S
C2589 O2590 1.235 . S
C2589 O2616 1.289 . S
O2590 C2589 1.235 . S
C2591 C2593 1.400 . S
C2591 N2594 1.351 . S
C2591 C2596 1.501 . S
C2592 C2593 1.387 . S
C2592 N2595 1.341 . S
C2593 C2591 1.400 . S
C2593 C2592 1.387 . S
N2594 Co2585 2.022 . S
N2594 C2591 1.351 . S
N2594 N2595 1.365 . S
N2595 C2592 1.341 . S
N2595 N2594 1.365 . S
N2595 H2615 0.862 . S
C2596 C2591 1.501 . S
C2596 H2597 0.961 . S
C2596 H2598 0.961 . S
C2596 H2599 0.960 . S
H2597 C2596 0.961 . S
H2598 C2596 0.961 . S
H2599 C2596 0.960 . S
C2600 N2601 1.342 . S
C2600 C2604 1.401 . S
C2600 C2605 1.499 . S
N2601 Co2584 1.989 . S
N2601 C2600 1.342 . S
N2601 N2602 1.388 . S
N2602 Co2585 1.993 . S
N2602 N2601 1.388 . S
N2602 C2603 1.346 . S
C2603 N2602 1.346 . S
C2603 C2604 1.396 . S
C2603 C2613 1.510 . S
C2604 C2600 1.401 . S
C2604 C2603 1.396 . S
C2605 C2600 1.499 . S
C2605 H2606 0.959 . S
C2605 H2607 0.960 . S
C2605 H2608 0.961 . S
H2606 C2605 0.959 . S
H2607 C2605 0.960 . S
H2608 C2605 0.961 . S
O2609 Co2584 1.967 . S
O2609 C2617 1.258 . S
O2610 Co2585 1.941 . S
O2610 C2617 1.266 . S
H2611 C2613 0.959 . S
H2612 C2613 0.961 . S
C2613 C2603 1.510 . S
C2613 H2611 0.959 . S
C2613 H2612 0.961 . S
C2613 H2614 0.960 . S
H2614 C2613 0.960 . S
H2615 N2595 0.862 . S
O2616 Co2584 1.920 . S
O2616 C2589 1.289 . S
C2617 O2609 1.258 . S
C2617 O2610 1.266 . S
Co2618 O2621 1.970 . S
Co2618 N2635 1.989 . S
Co2618 O2643 1.967 . S
Co2618 O2650 1.920 . S
Co2619 O2622 1.966 . S
Co2619 N2628 2.022 . S
Co2619 N2636 1.993 . S
Co2619 O2644 1.941 . S
C2620 O2621 1.258 . S
C2620 O2622 1.263 . S
O2621 Co2618 1.970 . S
O2621 C2620 1.258 . S
O2622 Co2619 1.966 . S
O2622 C2620 1.263 . S
C2623 O2624 1.236 . S
C2623 O2650 1.289 1_655 S
O2624 C2623 1.236 . S
C2625 C2627 1.400 . S
C2625 N2628 1.351 . S
C2625 C2630 1.501 . S
C2626 C2627 1.387 . S
C2626 N2629 1.341 . S
C2627 C2625 1.400 . S
C2627 C2626 1.387 . S
N2628 Co2619 2.022 . S
N2628 C2625 1.351 . S
N2628 N2629 1.365 . S
N2629 C2626 1.341 . S
N2629 N2628 1.365 . S
N2629 H2649 0.862 . S
C2630 C2625 1.501 . S
C2630 H2631 0.961 . S
C2630 H2632 0.961 . S
C2630 H2633 0.960 . S
H2631 C2630 0.961 . S
H2632 C2630 0.961 . S
H2633 C2630 0.960 . S
C2634 N2635 1.342 . S
C2634 C2638 1.401 . S
C2634 C2639 1.499 1_554 S
N2635 Co2618 1.989 . S
N2635 C2634 1.342 . S
N2635 N2636 1.388 . S
N2636 Co2619 1.993 . S
N2636 N2635 1.388 . S
N2636 C2637 1.346 . S
C2637 N2636 1.346 . S
C2637 C2638 1.396 . S
C2637 C2647 1.510 . S
C2638 C2634 1.401 . S
C2638 C2637 1.396 . S
C2639 C2634 1.499 1_556 S
C2639 H2640 0.959 1_556 S
C2639 H2641 0.960 . S
C2639 H2642 0.961 . S
H2640 C2639 0.959 1_554 S
H2641 C2639 0.960 . S
H2642 C2639 0.961 . S
O2643 Co2618 1.967 . S
O2643 C2651 1.258 . S
O2644 Co2619 1.941 . S
O2644 C2651 1.266 . S
H2645 C2647 0.959 . S
H2646 C2647 0.961 . S
C2647 C2637 1.510 . S
C2647 H2645 0.959 . S
C2647 H2646 0.961 . S
C2647 H2648 0.960 . S
H2648 C2647 0.960 . S
H2649 N2629 0.862 . S
O2650 Co2618 1.920 . S
O2650 C2623 1.289 1_455 S
C2651 O2643 1.258 . S
C2651 O2644 1.266 . S
Co2652 O2655 1.970 . S
Co2652 N2669 1.989 . S
Co2652 O2677 1.967 1_455 S
Co2652 O2684 1.920 1_455 S
Co2653 O2656 1.966 . S
Co2653 N2662 2.022 . S
Co2653 N2670 1.993 . S
Co2653 O2678 1.941 . S
C2654 O2655 1.258 . S
C2654 O2656 1.263 . S
O2655 Co2652 1.970 . S
O2655 C2654 1.258 . S
O2656 Co2653 1.966 . S
O2656 C2654 1.263 . S
C2657 O2658 1.235 1_655 S
C2657 O2684 1.289 . S
O2658 C2657 1.235 1_455 S
C2659 C2661 1.400 . S
C2659 N2662 1.351 . S
C2659 C2664 1.501 . S
C2660 C2661 1.387 . S
C2660 N2663 1.341 . S
C2661 C2659 1.400 . S
C2661 C2660 1.387 . S
N2662 Co2653 2.022 . S
N2662 C2659 1.351 . S
N2662 N2663 1.365 . S
N2663 C2660 1.341 . S
N2663 N2662 1.365 . S
N2663 H2683 0.862 . S
C2664 C2659 1.501 . S
C2664 H2665 0.961 . S
C2664 H2666 0.961 . S
C2664 H2667 0.960 . S
H2665 C2664 0.961 . S
H2666 C2664 0.961 . S
H2667 C2664 0.960 . S
C2668 N2669 1.342 . S
C2668 C2672 1.401 . S
C2668 C2673 1.499 1_455 S
N2669 Co2652 1.989 . S
N2669 C2668 1.342 . S
N2669 N2670 1.388 . S
N2670 Co2653 1.993 . S
N2670 N2669 1.388 . S
N2670 C2671 1.346 . S
C2671 N2670 1.346 . S
C2671 C2672 1.396 . S
C2671 C2681 1.510 . S
C2672 C2668 1.401 . S
C2672 C2671 1.396 . S
C2673 C2668 1.499 1_655 S
C2673 H2674 0.959 . S
C2673 H2675 0.960 1_655 S
C2673 H2676 0.961 . S
H2674 C2673 0.959 . S
H2675 C2673 0.960 1_455 S
H2676 C2673 0.961 . S
O2677 Co2652 1.967 1_655 S
O2677 C2685 1.260 . S
O2678 Co2653 1.941 . S
O2678 C2685 1.239 1_455 S
H2679 C2681 0.959 . S
H2680 C2681 0.961 . S
C2681 C2671 1.510 . S
C2681 H2679 0.959 . S
C2681 H2680 0.961 . S
C2681 H2682 0.960 . S
H2682 C2681 0.960 . S
H2683 N2663 0.862 . S
O2684 Co2652 1.920 1_655 S
O2684 C2657 1.289 . S
C2685 O2677 1.260 . S
C2685 O2678 1.239 1_655 S
Co2686 O2689 1.970 . S
Co2686 N2703 1.989 . S
Co2686 O2711 1.967 . S
Co2686 O2718 1.920 . S
Co2687 O2690 1.966 . S
Co2687 N2696 2.022 . S
Co2687 N2704 1.993 . S
Co2687 O2712 1.941 . S
C2688 O2689 1.258 . S
C2688 O2690 1.263 . S
O2689 Co2686 1.970 . S
O2689 C2688 1.258 . S
O2690 Co2687 1.966 . S
O2690 C2688 1.263 . S
C2691 O2692 1.235 . S
C2691 O2718 1.289 . S
O2692 C2691 1.235 . S
C2693 C2695 1.400 . S
C2693 N2696 1.351 . S
C2693 C2698 1.501 . S
C2694 C2695 1.387 . S
C2694 N2697 1.341 . S
C2695 C2693 1.400 . S
C2695 C2694 1.387 . S
N2696 Co2687 2.022 . S
N2696 C2693 1.351 . S
N2696 N2697 1.365 . S
N2697 C2694 1.341 . S
N2697 N2696 1.365 . S
N2697 H2717 0.862 . S
C2698 C2693 1.501 . S
C2698 H2699 0.961 . S
C2698 H2700 0.961 . S
C2698 H2701 0.960 . S
H2699 C2698 0.961 . S
H2700 C2698 0.961 . S
H2701 C2698 0.960 . S
C2702 N2703 1.342 . S
C2702 C2706 1.401 . S
C2702 C2707 1.499 . S
N2703 Co2686 1.989 . S
N2703 C2702 1.342 . S
N2703 N2704 1.388 . S
N2704 Co2687 1.993 . S
N2704 N2703 1.388 . S
N2704 C2705 1.346 . S
C2705 N2704 1.346 . S
C2705 C2706 1.396 . S
C2705 C2715 1.510 . S
C2706 C2702 1.401 . S
C2706 C2705 1.396 . S
C2707 C2702 1.499 . S
C2707 H2708 0.959 . S
C2707 H2709 0.960 . S
C2707 H2710 0.961 . S
H2708 C2707 0.959 . S
H2709 C2707 0.960 . S
H2710 C2707 0.961 . S
O2711 Co2686 1.967 . S
O2711 C2719 1.258 . S
O2712 Co2687 1.941 . S
O2712 C2719 1.266 . S
H2713 C2715 0.959 . S
H2714 C2715 0.961 . S
C2715 C2705 1.510 . S
C2715 H2713 0.959 . S
C2715 H2714 0.961 . S
C2715 H2716 0.960 . S
H2716 C2715 0.960 . S
H2717 N2697 0.862 . S
O2718 Co2686 1.920 . S
O2718 C2691 1.289 . S
C2719 O2711 1.258 . S
C2719 O2712 1.266 . S
Co2720 O2723 1.970 . S
Co2720 N2737 1.989 . S
Co2720 O2745 1.967 . S
Co2720 O2752 1.920 . S
Co2721 O2724 1.966 . S
Co2721 N2730 2.022 . S
Co2721 N2738 1.993 . S
Co2721 O2746 1.941 . S
C2722 O2723 1.258 . S
C2722 O2724 1.263 . S
O2723 Co2720 1.970 . S
O2723 C2722 1.258 . S
O2724 Co2721 1.966 . S
O2724 C2722 1.263 . S
C2725 O2726 1.235 . S
C2725 O2752 1.289 . S
O2726 C2725 1.235 . S
C2727 C2729 1.400 . S
C2727 N2730 1.351 . S
C2727 C2732 1.501 . S
C2728 C2729 1.387 . S
C2728 N2731 1.341 . S
C2729 C2727 1.400 . S
C2729 C2728 1.387 . S
N2730 Co2721 2.022 . S
N2730 C2727 1.351 . S
N2730 N2731 1.365 . S
N2731 C2728 1.341 . S
N2731 N2730 1.365 . S
N2731 H2751 0.862 . S
C2732 C2727 1.501 . S
C2732 H2733 0.961 . S
C2732 H2734 0.961 . S
C2732 H2735 0.960 . S
H2733 C2732 0.961 . S
H2734 C2732 0.961 . S
H2735 C2732 0.960 . S
C2736 N2737 1.342 . S
C2736 C2740 1.401 . S
C2736 C2741 1.499 . S
N2737 Co2720 1.989 . S
N2737 C2736 1.342 . S
N2737 N2738 1.388 . S
N2738 Co2721 1.993 . S
N2738 N2737 1.388 . S
N2738 C2739 1.346 . S
C2739 N2738 1.346 . S
C2739 C2740 1.396 . S
C2739 C2749 1.510 . S
C2740 C2736 1.401 . S
C2740 C2739 1.396 . S
C2741 C2736 1.499 . S
C2741 H2742 0.959 . S
C2741 H2743 0.960 . S
C2741 H2744 0.961 . S
H2742 C2741 0.959 . S
H2743 C2741 0.960 . S
H2744 C2741 0.961 . S
O2745 Co2720 1.967 . S
O2745 C2753 1.258 . S
O2746 Co2721 1.941 . S
O2746 C2753 1.266 . S
H2747 C2749 0.959 . S
H2748 C2749 0.961 . S
C2749 C2739 1.510 . S
C2749 H2747 0.959 . S
C2749 H2748 0.961 . S
C2749 H2750 0.960 . S
H2750 C2749 0.960 . S
H2751 N2731 0.862 . S
O2752 Co2720 1.920 . S
O2752 C2725 1.289 . S
C2753 O2745 1.258 . S
C2753 O2746 1.266 . S
Co2754 O2757 1.970 . S
Co2754 N2771 1.989 . S
Co2754 O2779 1.967 . S
Co2754 O2786 1.920 . S
Co2755 O2758 1.966 . S
Co2755 N2764 2.022 . S
Co2755 N2772 1.993 . S
Co2755 O2780 1.941 . S
C2756 O2757 1.258 . S
C2756 O2758 1.263 . S
O2757 Co2754 1.970 . S
O2757 C2756 1.258 . S
O2758 Co2755 1.966 . S
O2758 C2756 1.263 . S
C2759 O2760 1.236 . S
C2759 O2786 1.289 1_556 S
O2760 C2759 1.236 . S
C2761 C2763 1.400 . S
C2761 N2764 1.351 . S
C2761 C2766 1.501 . S
C2762 C2763 1.387 . S
C2762 N2765 1.341 . S
C2763 C2761 1.400 . S
C2763 C2762 1.387 . S
N2764 Co2755 2.022 . S
N2764 C2761 1.351 . S
N2764 N2765 1.365 . S
N2765 C2762 1.341 . S
N2765 N2764 1.365 . S
N2765 H2785 0.862 . S
C2766 C2761 1.501 . S
C2766 H2767 0.961 . S
C2766 H2768 0.961 . S
C2766 H2769 0.960 . S
H2767 C2766 0.961 . S
H2768 C2766 0.961 . S
H2769 C2766 0.960 . S
C2770 N2771 1.342 . S
C2770 C2774 1.401 . S
C2770 C2775 1.499 . S
N2771 Co2754 1.989 . S
N2771 C2770 1.342 . S
N2771 N2772 1.388 . S
N2772 Co2755 1.993 . S
N2772 N2771 1.388 . S
N2772 C2773 1.346 . S
C2773 N2772 1.346 . S
C2773 C2774 1.396 . S
C2773 C2783 1.510 . S
C2774 C2770 1.401 . S
C2774 C2773 1.396 . S
C2775 C2770 1.499 . S
C2775 H2776 0.959 . S
C2775 H2777 0.960 . S
C2775 H2778 0.961 . S
H2776 C2775 0.959 . S
H2777 C2775 0.960 . S
H2778 C2775 0.961 . S
O2779 Co2754 1.967 . S
O2779 C2787 1.258 . S
O2780 Co2755 1.941 . S
O2780 C2787 1.266 . S
H2781 C2783 0.959 . S
H2782 C2783 0.961 . S
C2783 C2773 1.510 . S
C2783 H2781 0.959 . S
C2783 H2782 0.961 . S
C2783 H2784 0.960 . S
H2784 C2783 0.960 . S
H2785 N2765 0.862 . S
O2786 Co2754 1.920 . S
O2786 C2759 1.289 1_554 S
C2787 O2779 1.258 . S
C2787 O2780 1.266 . S
Co2788 O2791 1.970 . S
Co2788 N2805 1.989 . S
Co2788 O2813 1.967 . S
Co2788 O2820 1.920 . S
Co2789 O2792 1.966 . S
Co2789 N2798 2.022 . S
Co2789 N2806 1.993 . S
Co2789 O2814 1.941 . S
C2790 O2791 1.258 . S
C2790 O2792 1.263 . S
O2791 Co2788 1.970 . S
O2791 C2790 1.258 . S
O2792 Co2789 1.966 . S
O2792 C2790 1.263 . S
C2793 O2794 1.235 . S
C2793 O2820 1.289 . S
O2794 C2793 1.235 . S
C2795 C2797 1.400 . S
C2795 N2798 1.351 . S
C2795 C2800 1.501 . S
C2796 C2797 1.387 . S
C2796 N2799 1.341 . S
C2797 C2795 1.400 . S
C2797 C2796 1.387 . S
N2798 Co2789 2.022 . S
N2798 C2795 1.351 . S
N2798 N2799 1.365 . S
N2799 C2796 1.341 . S
N2799 N2798 1.365 . S
N2799 H2819 0.862 . S
C2800 C2795 1.501 . S
C2800 H2801 0.961 . S
C2800 H2802 0.961 . S
C2800 H2803 0.960 . S
H2801 C2800 0.961 . S
H2802 C2800 0.961 . S
H2803 C2800 0.960 . S
C2804 N2805 1.342 . S
C2804 C2808 1.401 . S
C2804 C2809 1.499 . S
N2805 Co2788 1.989 . S
N2805 C2804 1.342 . S
N2805 N2806 1.388 . S
N2806 Co2789 1.993 . S
N2806 N2805 1.388 . S
N2806 C2807 1.346 . S
C2807 N2806 1.346 . S
C2807 C2808 1.396 . S
C2807 C2817 1.510 . S
C2808 C2804 1.401 . S
C2808 C2807 1.396 . S
C2809 C2804 1.499 . S
C2809 H2810 0.959 . S
C2809 H2811 0.960 . S
C2809 H2812 0.961 . S
H2810 C2809 0.959 . S
H2811 C2809 0.960 . S
H2812 C2809 0.961 . S
O2813 Co2788 1.967 . S
O2813 C2821 1.258 . S
O2814 Co2789 1.941 . S
O2814 C2821 1.266 . S
H2815 C2817 0.959 . S
H2816 C2817 0.961 . S
C2817 C2807 1.510 . S
C2817 H2815 0.959 . S
C2817 H2816 0.961 . S
C2817 H2818 0.960 . S
H2818 C2817 0.960 . S
H2819 N2799 0.862 . S
O2820 Co2788 1.920 . S
O2820 C2793 1.289 . S
C2821 O2813 1.258 . S
C2821 O2814 1.266 . S
Co2822 O2825 1.970 . S
Co2822 N2839 1.989 . S
Co2822 O2847 1.967 . S
Co2822 O2854 1.920 . S
Co2823 O2826 1.966 . S
Co2823 N2832 2.022 . S
Co2823 N2840 1.993 . S
Co2823 O2848 1.941 . S
C2824 O2825 1.258 . S
C2824 O2826 1.263 . S
O2825 Co2822 1.970 . S
O2825 C2824 1.258 . S
O2826 Co2823 1.966 . S
O2826 C2824 1.263 . S
C2827 O2828 1.235 . S
C2827 O2854 1.289 . S
O2828 C2827 1.235 . S
C2829 C2831 1.400 . S
C2829 N2832 1.351 . S
C2829 C2834 1.501 . S
C2830 C2831 1.387 . S
C2830 N2833 1.341 . S
C2831 C2829 1.400 . S
C2831 C2830 1.387 . S
N2832 Co2823 2.022 . S
N2832 C2829 1.351 . S
N2832 N2833 1.365 . S
N2833 C2830 1.341 . S
N2833 N2832 1.365 . S
N2833 H2853 0.862 . S
C2834 C2829 1.501 . S
C2834 H2835 0.961 . S
C2834 H2836 0.961 . S
C2834 H2837 0.960 . S
H2835 C2834 0.961 . S
H2836 C2834 0.961 . S
H2837 C2834 0.960 . S
C2838 N2839 1.342 . S
C2838 C2842 1.401 . S
C2838 C2843 1.499 . S
N2839 Co2822 1.989 . S
N2839 C2838 1.342 . S
N2839 N2840 1.388 . S
N2840 Co2823 1.993 . S
N2840 N2839 1.388 . S
N2840 C2841 1.346 . S
C2841 N2840 1.346 . S
C2841 C2842 1.396 . S
C2841 C2851 1.510 . S
C2842 C2838 1.401 . S
C2842 C2841 1.396 . S
C2843 C2838 1.499 . S
C2843 H2844 0.959 . S
C2843 H2845 0.960 . S
C2843 H2846 0.961 . S
H2844 C2843 0.959 . S
H2845 C2843 0.960 . S
H2846 C2843 0.961 . S
O2847 Co2822 1.967 . S
O2847 C2855 1.258 . S
O2848 Co2823 1.941 . S
O2848 C2855 1.266 . S
H2849 C2851 0.959 . S
H2850 C2851 0.961 . S
C2851 C2841 1.510 . S
C2851 H2849 0.959 . S
C2851 H2850 0.961 . S
C2851 H2852 0.960 . S
H2852 C2851 0.960 . S
H2853 N2833 0.862 . S
O2854 Co2822 1.920 . S
O2854 C2827 1.289 . S
C2855 O2847 1.258 . S
C2855 O2848 1.266 . S
Co2856 O2859 1.970 . S
Co2856 N2873 1.989 . S
Co2856 O2881 1.967 . S
Co2856 O2888 1.920 . S
Co2857 O2860 1.966 . S
Co2857 N2866 2.022 . S
Co2857 N2874 1.993 . S
Co2857 O2882 1.941 . S
C2858 O2859 1.258 . S
C2858 O2860 1.263 . S
O2859 Co2856 1.970 . S
O2859 C2858 1.258 . S
O2860 Co2857 1.966 . S
O2860 C2858 1.263 . S
C2861 O2862 1.235 . S
C2861 O2888 1.289 . S
O2862 C2861 1.235 . S
C2863 C2865 1.400 . S
C2863 N2866 1.351 . S
C2863 C2868 1.501 . S
C2864 C2865 1.387 . S
C2864 N2867 1.341 . S
C2865 C2863 1.400 . S
C2865 C2864 1.387 . S
N2866 Co2857 2.022 . S
N2866 C2863 1.351 . S
N2866 N2867 1.365 . S
N2867 C2864 1.341 . S
N2867 N2866 1.365 . S
N2867 H2887 0.862 . S
C2868 C2863 1.501 . S
C2868 H2869 0.961 . S
C2868 H2870 0.961 . S
C2868 H2871 0.960 . S
H2869 C2868 0.961 . S
H2870 C2868 0.961 . S
H2871 C2868 0.960 . S
C2872 N2873 1.342 . S
C2872 C2876 1.401 . S
C2872 C2877 1.499 . S
N2873 Co2856 1.989 . S
N2873 C2872 1.342 . S
N2873 N2874 1.388 . S
N2874 Co2857 1.993 . S
N2874 N2873 1.388 . S
N2874 C2875 1.346 . S
C2875 N2874 1.346 . S
C2875 C2876 1.396 . S
C2875 C2885 1.510 . S
C2876 C2872 1.401 . S
C2876 C2875 1.396 . S
C2877 C2872 1.499 . S
C2877 H2878 0.959 . S
C2877 H2879 0.960 . S
C2877 H2880 0.961 . S
H2878 C2877 0.959 . S
H2879 C2877 0.960 . S
H2880 C2877 0.961 . S
O2881 Co2856 1.967 . S
O2881 C2889 1.258 . S
O2882 Co2857 1.941 . S
O2882 C2889 1.266 . S
H2883 C2885 0.959 . S
H2884 C2885 0.961 . S
C2885 C2875 1.510 . S
C2885 H2883 0.959 . S
C2885 H2884 0.961 . S
C2885 H2886 0.960 . S
H2886 C2885 0.960 . S
H2887 N2867 0.862 . S
O2888 Co2856 1.920 . S
O2888 C2861 1.289 . S
C2889 O2881 1.258 . S
C2889 O2882 1.266 . S
Co2890 O2893 1.970 . S
Co2890 N2907 1.989 . S
Co2890 O2915 1.967 . S
Co2890 O2922 1.920 . S
Co2891 O2894 1.966 . S
Co2891 N2900 2.022 . S
Co2891 N2908 1.993 . S
Co2891 O2916 1.941 . S
C2892 O2893 1.258 . S
C2892 O2894 1.263 . S
O2893 Co2890 1.970 . S
O2893 C2892 1.258 . S
O2894 Co2891 1.966 . S
O2894 C2892 1.263 . S
C2895 O2896 1.236 . S
C2895 O2922 1.289 1_554 S
O2896 C2895 1.236 . S
C2897 C2899 1.400 . S
C2897 N2900 1.351 . S
C2897 C2902 1.501 . S
C2898 C2899 1.387 . S
C2898 N2901 1.341 . S
C2899 C2897 1.400 . S
C2899 C2898 1.387 . S
N2900 Co2891 2.022 . S
N2900 C2897 1.351 . S
N2900 N2901 1.365 . S
N2901 C2898 1.341 . S
N2901 N2900 1.365 . S
N2901 H2921 0.862 . S
C2902 C2897 1.501 . S
C2902 H2903 0.961 . S
C2902 H2904 0.961 . S
C2902 H2905 0.960 . S
H2903 C2902 0.961 . S
H2904 C2902 0.961 . S
H2905 C2902 0.960 . S
C2906 N2907 1.342 . S
C2906 C2910 1.401 . S
C2906 C2911 1.499 . S
N2907 Co2890 1.989 . S
N2907 C2906 1.342 . S
N2907 N2908 1.388 . S
N2908 Co2891 1.993 . S
N2908 N2907 1.388 . S
N2908 C2909 1.346 . S
C2909 N2908 1.346 . S
C2909 C2910 1.396 . S
C2909 C2919 1.510 . S
C2910 C2906 1.401 . S
C2910 C2909 1.396 . S
C2911 C2906 1.499 . S
C2911 H2912 0.959 . S
C2911 H2913 0.960 . S
C2911 H2914 0.961 . S
H2912 C2911 0.959 . S
H2913 C2911 0.960 . S
H2914 C2911 0.961 . S
O2915 Co2890 1.967 . S
O2915 C2923 1.258 . S
O2916 Co2891 1.941 . S
O2916 C2923 1.266 . S
H2917 C2919 0.959 . S
H2918 C2919 0.961 . S
C2919 C2909 1.510 . S
C2919 H2917 0.959 . S
C2919 H2918 0.961 . S
C2919 H2920 0.960 . S
H2920 C2919 0.960 . S
H2921 N2901 0.862 . S
O2922 Co2890 1.920 . S
O2922 C2895 1.289 1_556 S
C2923 O2915 1.258 . S
C2923 O2916 1.266 . S
Co2924 O2927 1.970 . S
Co2924 N2941 1.989 . S
Co2924 O2949 1.967 . S
Co2924 O2956 1.920 . S
Co2925 O2928 1.966 . S
Co2925 N2934 2.022 . S
Co2925 N2942 1.993 . S
Co2925 O2950 1.941 . S
C2926 O2927 1.258 . S
C2926 O2928 1.263 . S
O2927 Co2924 1.970 . S
O2927 C2926 1.258 . S
O2928 Co2925 1.966 . S
O2928 C2926 1.263 . S
C2929 O2930 1.235 . S
C2929 O2956 1.289 . S
O2930 C2929 1.235 . S
C2931 C2933 1.400 . S
C2931 N2934 1.351 . S
C2931 C2936 1.501 . S
C2932 C2933 1.387 . S
C2932 N2935 1.341 . S
C2933 C2931 1.400 . S
C2933 C2932 1.387 . S
N2934 Co2925 2.022 . S
N2934 C2931 1.351 . S
N2934 N2935 1.365 . S
N2935 C2932 1.341 . S
N2935 N2934 1.365 . S
N2935 H2955 0.862 . S
C2936 C2931 1.501 . S
C2936 H2937 0.961 . S
C2936 H2938 0.961 . S
C2936 H2939 0.960 . S
H2937 C2936 0.961 . S
H2938 C2936 0.961 . S
H2939 C2936 0.960 . S
C2940 N2941 1.342 . S
C2940 C2944 1.401 . S
C2940 C2945 1.499 . S
N2941 Co2924 1.989 . S
N2941 C2940 1.342 . S
N2941 N2942 1.388 . S
N2942 Co2925 1.993 . S
N2942 N2941 1.388 . S
N2942 C2943 1.346 . S
C2943 N2942 1.346 . S
C2943 C2944 1.396 . S
C2943 C2953 1.510 . S
C2944 C2940 1.401 . S
C2944 C2943 1.396 . S
C2945 C2940 1.499 . S
C2945 H2946 0.959 . S
C2945 H2947 0.960 . S
C2945 H2948 0.961 . S
H2946 C2945 0.959 . S
H2947 C2945 0.960 . S
H2948 C2945 0.961 . S
O2949 Co2924 1.967 . S
O2949 C2957 1.258 . S
O2950 Co2925 1.941 . S
O2950 C2957 1.266 . S
H2951 C2953 0.959 . S
H2952 C2953 0.961 . S
C2953 C2943 1.510 . S
C2953 H2951 0.959 . S
C2953 H2952 0.961 . S
C2953 H2954 0.960 . S
H2954 C2953 0.960 . S
H2955 N2935 0.862 . S
O2956 Co2924 1.920 . S
O2956 C2929 1.289 . S
C2957 O2949 1.258 . S
C2957 O2950 1.266 . S
Co2958 O2961 1.970 . S
Co2958 N2975 1.989 . S
Co2958 O2983 1.967 . S
Co2958 O2990 1.920 . S
Co2959 O2962 1.966 . S
Co2959 N2968 2.022 . S
Co2959 N2976 1.993 . S
Co2959 O2984 1.941 . S
C2960 O2961 1.258 . S
C2960 O2962 1.263 . S
O2961 Co2958 1.970 . S
O2961 C2960 1.258 . S
O2962 Co2959 1.966 . S
O2962 C2960 1.263 . S
C2963 O2964 1.235 . S
C2963 O2990 1.289 . S
O2964 C2963 1.235 . S
C2965 C2967 1.400 . S
C2965 N2968 1.351 . S
C2965 C2970 1.501 . S
C2966 C2967 1.387 . S
C2966 N2969 1.341 . S
C2967 C2965 1.400 . S
C2967 C2966 1.387 . S
N2968 Co2959 2.022 . S
N2968 C2965 1.351 . S
N2968 N2969 1.365 . S
N2969 C2966 1.341 . S
N2969 N2968 1.365 . S
N2969 H2989 0.862 . S
C2970 C2965 1.501 . S
C2970 H2971 0.961 . S
C2970 H2972 0.961 . S
C2970 H2973 0.960 . S
H2971 C2970 0.961 . S
H2972 C2970 0.961 . S
H2973 C2970 0.960 . S
C2974 N2975 1.342 . S
C2974 C2978 1.401 . S
C2974 C2979 1.499 . S
N2975 Co2958 1.989 . S
N2975 C2974 1.342 . S
N2975 N2976 1.388 . S
N2976 Co2959 1.993 . S
N2976 N2975 1.388 . S
N2976 C2977 1.346 . S
C2977 N2976 1.346 . S
C2977 C2978 1.396 . S
C2977 C2987 1.510 . S
C2978 C2974 1.401 . S
C2978 C2977 1.396 . S
C2979 C2974 1.499 . S
C2979 H2980 0.959 . S
C2979 H2981 0.960 . S
C2979 H2982 0.961 . S
H2980 C2979 0.959 . S
H2981 C2979 0.960 . S
H2982 C2979 0.961 . S
O2983 Co2958 1.967 . S
O2983 C2991 1.258 . S
O2984 Co2959 1.941 . S
O2984 C2991 1.266 . S
H2985 C2987 0.959 . S
H2986 C2987 0.961 . S
C2987 C2977 1.510 . S
C2987 H2985 0.959 . S
C2987 H2986 0.961 . S
C2987 H2988 0.960 . S
H2988 C2987 0.960 . S
H2989 N2969 0.862 . S
O2990 Co2958 1.920 . S
O2990 C2963 1.289 . S
C2991 O2983 1.258 . S
C2991 O2984 1.266 . S
Co2992 O2995 1.970 . S
Co2992 N3009 1.989 . S
Co2992 O3017 1.967 . S
Co2992 O3024 1.920 . S
Co2993 O2996 1.966 . S
Co2993 N3002 2.022 . S
Co2993 N3010 1.993 . S
Co2993 O3018 1.941 . S
C2994 O2995 1.258 . S
C2994 O2996 1.263 . S
O2995 Co2992 1.970 . S
O2995 C2994 1.258 . S
O2996 Co2993 1.966 . S
O2996 C2994 1.263 . S
C2997 O2998 1.235 . S
C2997 O3024 1.289 . S
O2998 C2997 1.235 . S
C2999 C3001 1.400 . S
C2999 N3002 1.351 . S
C2999 C3004 1.501 . S
C3000 C3001 1.387 . S
C3000 N3003 1.341 . S
C3001 C2999 1.400 . S
C3001 C3000 1.387 . S
N3002 Co2993 2.022 . S
N3002 C2999 1.351 . S
N3002 N3003 1.365 . S
N3003 C3000 1.341 . S
N3003 N3002 1.365 . S
N3003 H3023 0.862 . S
C3004 C2999 1.501 . S
C3004 H3005 0.961 . S
C3004 H3006 0.961 . S
C3004 H3007 0.960 . S
H3005 C3004 0.961 . S
H3006 C3004 0.961 . S
H3007 C3004 0.960 . S
C3008 N3009 1.342 . S
C3008 C3012 1.401 . S
C3008 C3013 1.499 . S
N3009 Co2992 1.989 . S
N3009 C3008 1.342 . S
N3009 N3010 1.388 . S
N3010 Co2993 1.993 . S
N3010 N3009 1.388 . S
N3010 C3011 1.346 . S
C3011 N3010 1.346 . S
C3011 C3012 1.396 . S
C3011 C3021 1.510 . S
C3012 C3008 1.401 . S
C3012 C3011 1.396 . S
C3013 C3008 1.499 . S
C3013 H3014 0.959 . S
C3013 H3015 0.960 . S
C3013 H3016 0.961 . S
H3014 C3013 0.959 . S
H3015 C3013 0.960 . S
H3016 C3013 0.961 . S
O3017 Co2992 1.967 . S
O3017 C3025 1.258 . S
O3018 Co2993 1.941 . S
O3018 C3025 1.266 . S
H3019 C3021 0.959 . S
H3020 C3021 0.961 . S
C3021 C3011 1.510 . S
C3021 H3019 0.959 . S
C3021 H3020 0.961 . S
C3021 H3022 0.960 . S
H3022 C3021 0.960 . S
H3023 N3003 0.862 . S
O3024 Co2992 1.920 . S
O3024 C2997 1.289 . S
C3025 O3017 1.258 . S
C3025 O3018 1.266 . S
Co3026 O3029 1.970 . S
Co3026 N3043 1.989 . S
Co3026 O3051 1.967 . S
Co3026 O3058 1.920 . S
Co3027 O3030 1.966 . S
Co3027 N3036 2.022 . S
Co3027 N3044 1.993 . S
Co3027 O3052 1.941 . S
C3028 O3029 1.258 . S
C3028 O3030 1.263 . S
O3029 Co3026 1.970 . S
O3029 C3028 1.258 . S
O3030 Co3027 1.966 . S
O3030 C3028 1.263 . S
C3031 O3032 1.235 . S
C3031 O3058 1.289 . S
O3032 C3031 1.235 . S
C3033 C3035 1.400 . S
C3033 N3036 1.351 . S
C3033 C3038 1.501 . S
C3034 C3035 1.387 . S
C3034 N3037 1.341 . S
C3035 C3033 1.400 . S
C3035 C3034 1.387 . S
N3036 Co3027 2.022 . S
N3036 C3033 1.351 . S
N3036 N3037 1.365 . S
N3037 C3034 1.341 . S
N3037 N3036 1.365 . S
N3037 H3057 0.862 . S
C3038 C3033 1.501 . S
C3038 H3039 0.961 . S
C3038 H3040 0.961 . S
C3038 H3041 0.960 . S
H3039 C3038 0.961 . S
H3040 C3038 0.961 . S
H3041 C3038 0.960 . S
C3042 N3043 1.342 . S
C3042 C3046 1.401 . S
C3042 C3047 1.499 . S
N3043 Co3026 1.989 . S
N3043 C3042 1.342 . S
N3043 N3044 1.388 . S
N3044 Co3027 1.993 . S
N3044 N3043 1.388 . S
N3044 C3045 1.346 . S
C3045 N3044 1.346 . S
C3045 C3046 1.396 . S
C3045 C3055 1.510 . S
C3046 C3042 1.401 . S
C3046 C3045 1.396 . S
C3047 C3042 1.499 . S
C3047 H3048 0.959 . S
C3047 H3049 0.960 . S
C3047 H3050 0.961 . S
H3048 C3047 0.959 . S
H3049 C3047 0.960 . S
H3050 C3047 0.961 . S
O3051 Co3026 1.967 . S
O3051 C3059 1.258 . S
O3052 Co3027 1.941 . S
O3052 C3059 1.266 . S
H3053 C3055 0.959 . S
H3054 C3055 0.961 . S
C3055 C3045 1.510 . S
C3055 H3053 0.959 . S
C3055 H3054 0.961 . S
C3055 H3056 0.960 . S
H3056 C3055 0.960 . S
H3057 N3037 0.862 . S
O3058 Co3026 1.920 . S
O3058 C3031 1.289 . S
C3059 O3051 1.258 . S
C3059 O3052 1.266 . S
Co3060 O3063 1.970 . S
Co3060 N3077 1.989 . S
Co3060 O3085 1.967 . S
Co3060 O3092 1.920 . S
Co3061 O3064 1.966 . S
Co3061 N3070 2.022 . S
Co3061 N3078 1.993 . S
Co3061 O3086 1.941 . S
C3062 O3063 1.258 . S
C3062 O3064 1.263 . S
O3063 Co3060 1.970 . S
O3063 C3062 1.258 . S
O3064 Co3061 1.966 . S
O3064 C3062 1.263 . S
C3065 O3066 1.236 . S
C3065 O3092 1.289 1_565 S
O3066 C3065 1.236 . S
C3067 C3069 1.400 . S
C3067 N3070 1.351 . S
C3067 C3072 1.501 . S
C3068 C3069 1.387 . S
C3068 N3071 1.341 . S
C3069 C3067 1.400 . S
C3069 C3068 1.387 . S
N3070 Co3061 2.022 . S
N3070 C3067 1.351 . S
N3070 N3071 1.365 . S
N3071 C3068 1.341 . S
N3071 N3070 1.365 . S
N3071 H3091 0.862 . S
C3072 C3067 1.501 . S
C3072 H3073 0.961 . S
C3072 H3074 0.961 . S
C3072 H3075 0.960 . S
H3073 C3072 0.961 . S
H3074 C3072 0.961 . S
H3075 C3072 0.960 . S
C3076 N3077 1.342 . S
C3076 C3080 1.401 . S
C3076 C3081 1.499 . S
N3077 Co3060 1.989 . S
N3077 C3076 1.342 . S
N3077 N3078 1.388 . S
N3078 Co3061 1.993 . S
N3078 N3077 1.388 . S
N3078 C3079 1.346 . S
C3079 N3078 1.346 . S
C3079 C3080 1.396 . S
C3079 C3089 1.510 . S
C3080 C3076 1.401 . S
C3080 C3079 1.396 . S
C3081 C3076 1.499 . S
C3081 H3082 0.959 . S
C3081 H3083 0.960 . S
C3081 H3084 0.961 . S
H3082 C3081 0.959 . S
H3083 C3081 0.960 . S
H3084 C3081 0.961 . S
O3085 Co3060 1.967 . S
O3085 C3093 1.258 . S
O3086 Co3061 1.941 . S
O3086 C3093 1.266 . S
H3087 C3089 0.959 . S
H3088 C3089 0.961 . S
C3089 C3079 1.510 . S
C3089 H3087 0.959 . S
C3089 H3088 0.961 . S
C3089 H3090 0.960 . S
H3090 C3089 0.960 . S
H3091 N3071 0.862 . S
O3092 Co3060 1.920 . S
O3092 C3065 1.289 1_545 S
C3093 O3085 1.258 . S
C3093 O3086 1.266 . S
Co3094 O3097 1.970 . S
Co3094 N3111 1.989 . S
Co3094 O3119 1.967 1_554 S
Co3094 O3126 1.920 1_554 S
Co3095 O3098 1.966 . S
Co3095 N3104 2.022 . S
Co3095 N3112 1.993 . S
Co3095 O3120 1.941 . S
C3096 O3097 1.258 . S
C3096 O3098 1.263 . S
O3097 Co3094 1.970 . S
O3097 C3096 1.258 . S
O3098 Co3095 1.966 . S
O3098 C3096 1.263 . S
C3099 O3100 1.235 1_556 S
C3099 O3126 1.289 . S
O3100 C3099 1.235 1_554 S
C3101 C3103 1.400 . S
C3101 N3104 1.351 . S
C3101 C3106 1.501 . S
C3102 C3103 1.387 . S
C3102 N3105 1.341 . S
C3103 C3101 1.400 . S
C3103 C3102 1.387 . S
N3104 Co3095 2.022 . S
N3104 C3101 1.351 . S
N3104 N3105 1.365 . S
N3105 C3102 1.341 . S
N3105 N3104 1.365 . S
N3105 H3125 0.862 . S
C3106 C3101 1.501 . S
C3106 H3107 0.961 . S
C3106 H3108 0.961 . S
C3106 H3109 0.960 . S
H3107 C3106 0.961 . S
H3108 C3106 0.961 . S
H3109 C3106 0.960 . S
C3110 N3111 1.342 . S
C3110 C3114 1.401 . S
C3110 C3115 1.499 1_554 S
N3111 Co3094 1.989 . S
N3111 C3110 1.342 . S
N3111 N3112 1.388 . S
N3112 Co3095 1.993 . S
N3112 N3111 1.388 . S
N3112 C3113 1.346 . S
C3113 N3112 1.346 . S
C3113 C3114 1.396 . S
C3113 C3123 1.510 . S
C3114 C3110 1.401 . S
C3114 C3113 1.396 . S
C3115 C3110 1.499 1_556 S
C3115 H3116 0.959 . S
C3115 H3117 0.960 1_556 S
C3115 H3118 0.961 . S
H3116 C3115 0.959 . S
H3117 C3115 0.960 1_554 S
H3118 C3115 0.961 . S
O3119 Co3094 1.967 1_556 S
O3119 C3127 1.260 . S
O3120 Co3095 1.941 . S
O3120 C3127 1.239 1_554 S
H3121 C3123 0.959 . S
H3122 C3123 0.961 . S
C3123 C3113 1.510 . S
C3123 H3121 0.959 . S
C3123 H3122 0.961 . S
C3123 H3124 0.960 . S
H3124 C3123 0.960 . S
H3125 N3105 0.862 . S
O3126 Co3094 1.920 1_556 S
O3126 C3099 1.289 . S
C3127 O3119 1.260 . S
C3127 O3120 1.239 1_556 S
Co3128 O3131 1.970 . S
Co3128 N3145 1.989 . S
Co3128 O3153 1.967 . S
Co3128 O3160 1.920 . S
Co3129 O3132 1.966 . S
Co3129 N3138 2.022 . S
Co3129 N3146 1.993 . S
Co3129 O3154 1.941 . S
C3130 O3131 1.258 . S
C3130 O3132 1.263 . S
O3131 Co3128 1.970 . S
O3131 C3130 1.258 . S
O3132 Co3129 1.966 . S
O3132 C3130 1.263 . S
C3133 O3134 1.235 . S
C3133 O3160 1.289 . S
O3134 C3133 1.235 . S
C3135 C3137 1.400 . S
C3135 N3138 1.351 . S
C3135 C3140 1.501 . S
C3136 C3137 1.387 . S
C3136 N3139 1.341 . S
C3137 C3135 1.400 . S
C3137 C3136 1.387 . S
N3138 Co3129 2.022 . S
N3138 C3135 1.351 . S
N3138 N3139 1.365 . S
N3139 C3136 1.341 . S
N3139 N3138 1.365 . S
N3139 H3159 0.862 . S
C3140 C3135 1.501 . S
C3140 H3141 0.961 . S
C3140 H3142 0.961 . S
C3140 H3143 0.960 . S
H3141 C3140 0.961 . S
H3142 C3140 0.961 . S
H3143 C3140 0.960 . S
C3144 N3145 1.342 . S
C3144 C3148 1.401 . S
C3144 C3149 1.499 . S
N3145 Co3128 1.989 . S
N3145 C3144 1.342 . S
N3145 N3146 1.388 . S
N3146 Co3129 1.993 . S
N3146 N3145 1.388 . S
N3146 C3147 1.346 . S
C3147 N3146 1.346 . S
C3147 C3148 1.396 . S
C3147 C3157 1.510 . S
C3148 C3144 1.401 . S
C3148 C3147 1.396 . S
C3149 C3144 1.499 . S
C3149 H3150 0.959 . S
C3149 H3151 0.960 . S
C3149 H3152 0.961 . S
H3150 C3149 0.959 . S
H3151 C3149 0.960 . S
H3152 C3149 0.961 . S
O3153 Co3128 1.967 . S
O3153 C3161 1.258 . S
O3154 Co3129 1.941 . S
O3154 C3161 1.266 . S
H3155 C3157 0.959 . S
H3156 C3157 0.961 . S
C3157 C3147 1.510 . S
C3157 H3155 0.959 . S
C3157 H3156 0.961 . S
C3157 H3158 0.960 . S
H3158 C3157 0.960 . S
H3159 N3139 0.862 . S
O3160 Co3128 1.920 . S
O3160 C3133 1.289 . S
C3161 O3153 1.258 . S
C3161 O3154 1.266 . S
Co3162 O3165 1.970 . S
Co3162 N3179 1.989 . S
Co3162 O3187 1.967 1_556 S
Co3162 O3194 1.920 1_556 S
Co3163 O3166 1.966 . S
Co3163 N3172 2.022 . S
Co3163 N3180 1.993 . S
Co3163 O3188 1.941 . S
C3164 O3165 1.258 . S
C3164 O3166 1.263 . S
O3165 Co3162 1.970 . S
O3165 C3164 1.258 . S
O3166 Co3163 1.966 . S
O3166 C3164 1.263 . S
C3167 O3168 1.235 1_554 S
C3167 O3194 1.289 . S
O3168 C3167 1.235 1_556 S
C3169 C3171 1.400 . S
C3169 N3172 1.351 . S
C3169 C3174 1.501 . S
C3170 C3171 1.387 . S
C3170 N3173 1.341 . S
C3171 C3169 1.400 . S
C3171 C3170 1.387 . S
N3172 Co3163 2.022 . S
N3172 C3169 1.351 . S
N3172 N3173 1.365 . S
N3173 C3170 1.341 . S
N3173 N3172 1.365 . S
N3173 H3193 0.862 . S
C3174 C3169 1.501 . S
C3174 H3175 0.961 . S
C3174 H3176 0.961 . S
C3174 H3177 0.960 . S
H3175 C3174 0.961 . S
H3176 C3174 0.961 . S
H3177 C3174 0.960 . S
C3178 N3179 1.342 . S
C3178 C3182 1.401 . S
C3178 C3183 1.499 1_556 S
N3179 Co3162 1.989 . S
N3179 C3178 1.342 . S
N3179 N3180 1.388 . S
N3180 Co3163 1.993 . S
N3180 N3179 1.388 . S
N3180 C3181 1.346 . S
C3181 N3180 1.346 . S
C3181 C3182 1.396 . S
C3181 C3191 1.510 . S
C3182 C3178 1.401 . S
C3182 C3181 1.396 . S
C3183 C3178 1.499 1_554 S
C3183 H3184 0.959 . S
C3183 H3185 0.960 1_554 S
C3183 H3186 0.961 . S
H3184 C3183 0.959 . S
H3185 C3183 0.960 1_556 S
H3186 C3183 0.961 . S
O3187 Co3162 1.967 1_554 S
O3187 C3195 1.260 . S
O3188 Co3163 1.941 . S
O3188 C3195 1.238 1_556 S
H3189 C3191 0.959 . S
H3190 C3191 0.961 . S
C3191 C3181 1.510 . S
C3191 H3189 0.959 . S
C3191 H3190 0.961 . S
C3191 H3192 0.960 . S
H3192 C3191 0.960 . S
H3193 N3173 0.862 . S
O3194 Co3162 1.920 1_554 S
O3194 C3167 1.289 . S
C3195 O3187 1.260 . S
C3195 O3188 1.238 1_554 S
Co3196 O3199 1.970 . S
Co3196 N3213 1.989 . S
Co3196 O3221 1.967 . S
Co3196 O3228 1.920 . S
Co3197 O3200 1.966 . S
Co3197 N3206 2.022 . S
Co3197 N3214 1.993 . S
Co3197 O3222 1.941 . S
C3198 O3199 1.258 . S
C3198 O3200 1.263 . S
O3199 Co3196 1.970 . S
O3199 C3198 1.258 . S
O3200 Co3197 1.966 . S
O3200 C3198 1.263 . S
C3201 O3202 1.236 . S
C3201 O3228 1.289 1_545 S
O3202 C3201 1.236 . S
C3203 C3205 1.400 . S
C3203 N3206 1.351 . S
C3203 C3208 1.501 . S
C3204 C3205 1.387 . S
C3204 N3207 1.341 . S
C3205 C3203 1.400 . S
C3205 C3204 1.387 . S
N3206 Co3197 2.022 . S
N3206 C3203 1.351 . S
N3206 N3207 1.365 . S
N3207 C3204 1.341 . S
N3207 N3206 1.365 . S
N3207 H3227 0.862 . S
C3208 C3203 1.501 . S
C3208 H3209 0.961 . S
C3208 H3210 0.961 . S
C3208 H3211 0.960 . S
H3209 C3208 0.961 . S
H3210 C3208 0.961 . S
H3211 C3208 0.960 . S
C3212 N3213 1.342 . S
C3212 C3216 1.401 . S
C3212 C3217 1.499 . S
N3213 Co3196 1.989 . S
N3213 C3212 1.342 . S
N3213 N3214 1.388 . S
N3214 Co3197 1.993 . S
N3214 N3213 1.388 . S
N3214 C3215 1.346 . S
C3215 N3214 1.346 . S
C3215 C3216 1.396 . S
C3215 C3225 1.510 . S
C3216 C3212 1.401 . S
C3216 C3215 1.396 . S
C3217 C3212 1.499 . S
C3217 H3218 0.959 . S
C3217 H3219 0.960 . S
C3217 H3220 0.961 . S
H3218 C3217 0.959 . S
H3219 C3217 0.960 . S
H3220 C3217 0.961 . S
O3221 Co3196 1.967 . S
O3221 C3229 1.258 . S
O3222 Co3197 1.941 . S
O3222 C3229 1.266 . S
H3223 C3225 0.959 . S
H3224 C3225 0.961 . S
C3225 C3215 1.510 . S
C3225 H3223 0.959 . S
C3225 H3224 0.961 . S
C3225 H3226 0.960 . S
H3226 C3225 0.960 . S
H3227 N3207 0.862 . S
O3228 Co3196 1.920 . S
O3228 C3201 1.289 1_565 S
C3229 O3221 1.258 . S
C3229 O3222 1.266 . S
Co3230 O3233 1.970 . S
Co3230 N3247 1.989 . S
Co3230 O3255 1.967 . S
Co3230 O3262 1.920 . S
Co3231 O3234 1.966 . S
Co3231 N3240 2.022 . S
Co3231 N3248 1.993 . S
Co3231 O3256 1.941 . S
C3232 O3233 1.258 . S
C3232 O3234 1.263 . S
O3233 Co3230 1.970 . S
O3233 C3232 1.258 . S
O3234 Co3231 1.966 . S
O3234 C3232 1.263 . S
C3235 O3236 1.236 . S
C3235 O3262 1.289 1_565 S
O3236 C3235 1.236 . S
C3237 C3239 1.400 . S
C3237 N3240 1.351 . S
C3237 C3242 1.501 . S
C3238 C3239 1.387 . S
C3238 N3241 1.341 . S
C3239 C3237 1.400 . S
C3239 C3238 1.387 . S
N3240 Co3231 2.022 . S
N3240 C3237 1.351 . S
N3240 N3241 1.365 . S
N3241 C3238 1.341 . S
N3241 N3240 1.365 . S
N3241 H3261 0.862 . S
C3242 C3237 1.501 . S
C3242 H3243 0.961 . S
C3242 H3244 0.961 . S
C3242 H3245 0.960 . S
H3243 C3242 0.961 . S
H3244 C3242 0.961 . S
H3245 C3242 0.960 . S
C3246 N3247 1.342 . S
C3246 C3250 1.401 . S
C3246 C3251 1.499 1_455 S
N3247 Co3230 1.989 . S
N3247 C3246 1.342 . S
N3247 N3248 1.388 . S
N3248 Co3231 1.993 . S
N3248 N3247 1.388 . S
N3248 C3249 1.346 . S
C3249 N3248 1.346 . S
C3249 C3250 1.396 . S
C3249 C3259 1.510 . S
C3250 C3246 1.401 . S
C3250 C3249 1.396 . S
C3251 C3246 1.499 1_655 S
C3251 H3252 0.959 1_655 S
C3251 H3253 0.960 . S
C3251 H3254 0.961 . S
H3252 C3251 0.959 1_455 S
H3253 C3251 0.960 . S
H3254 C3251 0.961 . S
O3255 Co3230 1.967 . S
O3255 C3263 1.258 . S
O3256 Co3231 1.941 . S
O3256 C3263 1.266 . S
H3257 C3259 0.959 . S
H3258 C3259 0.961 . S
C3259 C3249 1.510 . S
C3259 H3257 0.959 . S
C3259 H3258 0.961 . S
C3259 H3260 0.960 . S
H3260 C3259 0.960 . S
H3261 N3241 0.862 . S
O3262 Co3230 1.920 . S
O3262 C3235 1.289 1_545 S
C3263 O3255 1.258 . S
C3263 O3256 1.266 . S
C2 C2583 2.785 . S
C849 C36 2.805 . S
C70 C2515 2.785 . S
C104 C917 2.785 . S
C2651 C138 2.785 . S
C172 C1053 2.785 . S
C2719 C206 2.785 . S
C240 C985 2.805 . S
C274 C3093 2.785 . S
C1495 C308 2.785 . S
C342 C1529 2.785 . S
C376 C1427 2.805 . S
C410 C3229 2.785 . S
C3025 C444 2.785 . S
C478 C3263 2.785 . S
C512 C3195 2.805 . S
C546 C2787 2.785 . S
C1359 C580 2.785 . S
C614 C2889 2.785 . S
C648 C1291 2.785 . S
C1325 C682 2.805 . S
C716 C2855 2.785 . S
C2753 C750 2.785 . S
C2821 C784 2.785 . S
C1767 C818 2.785 . S
C852 C33 2.805 . S
C1699 C886 2.785 . S
C920 C101 2.785 . S
C1835 C954 2.785 . S
C237 C988 2.785 . S
C1022 C1903 2.785 . S
C1056 C169 2.805 . S
C2277 C1090 2.785 . S
C1124 C679 2.785 . S
C713 C1158 2.785 . S
C611 C1192 2.805 . S
C1226 C2413 2.785 . S
C1260 C2209 2.785 . S
C2447 C1294 2.785 . S
C2379 C1328 2.805 . S
C1971 C1362 2.785 . S
C543 C1396 2.785 . S
C1430 C2073 2.785 . S
C1464 C475 2.785 . S
C509 C1498 2.805 . S
C1532 C2039 2.785 . S
C1566 C1937 2.785 . S
C1600 C2005 2.785 . S
C951 C1634 2.785 . S
C2481 C1668 2.785 . S
C883 C1702 2.785 . S
C2549 C1736 2.805 . S
C1770 C1019 2.785 . S
C1804 C2685 2.805 . S
C1087 C1838 2.785 . S
C1872 C2617 2.785 . S
C1461 C1906 2.785 . S
C3127 C1940 2.805 . S
C3161 C1974 2.785 . S
C3059 C2008 2.785 . S
C1597 C2042 2.785 . S
C1393 C2076 2.805 . S
C2110 C1631 2.785 . S
C2144 C1563 2.785 . S
C1155 C2178 2.785 . S
C2991 C2212 2.785 . S
C1257 C2246 2.805 . S
C2923 C2280 2.785 . S
C2314 C2957 2.785 . S
C1223 C2348 2.785 . S
C2382 C1121 2.805 . S
C1189 C2416 2.805 . S
C2450 C135 2.785 . S
C2484 C1665 2.785 . S
C2518 C67 2.785 . S
C1733 C2552 2.805 . S
C203 C2586 2.785 . S
C1869 C2620 2.805 . S
C2654 C271 2.785 . S
C2688 C1801 2.785 . S
C2722 C645 2.785 . S
C2311 C2756 2.805 . S
C2345 C2790 2.785 . S
C2243 C2824 2.785 . S
C2858 C781 2.785 . S
C577 C2892 2.805 . S
C815 C2926 2.785 . S
C747 C2960 2.785 . S
C339 C2994 2.785 . S
C3028 C2175 2.785 . S
C441 C3062 2.805 . S
C3096 C2107 2.785 . S
C2141 C3130 2.785 . S
C407 C3164 2.785 . S
C305 C3198 2.805 . S
C3232 C373 2.805 . S
C1705 C5 0.230 1_455 S
C1739 C39 0.230 1_455 S
C1637 C73 0.230 . S
C107 C1671 0.230 . S
C1841 C141 0.230 1_455 S
C1875 C175 0.230 . S
C1773 C209 0.230 . S
C1807 C243 0.230 1_455 S
C413 C277 0.230 1_545 S
C447 C311 0.230 . S
C481 C345 0.230 1_565 S
C515 C379 0.230 1_556 S
C2283 C549 0.230 1_554 S
C2351 C583 0.230 1_556 S
C617 C753 0.230 . S
C651 C2181 0.230 . S
C2419 C685 0.230 1_545 S
C2215 C719 0.230 . S
C787 C2317 0.230 . S
C2521 C821 0.230 1_655 S
C855 C2555 0.230 1_455 S
C889 C2453 0.230 . S
C923 C2487 0.230 . S
C957 C2657 0.230 1_455 S
C2691 C991 0.230 . S
C1025 C2589 0.230 . S
C2623 C1059 0.230 1_655 S
C1093 C1229 0.230 1_545 S
C1127 C1263 0.230 . S
C1297 C1161 0.230 1_545 S
C1195 C1331 0.230 1_556 S
C3099 C1365 0.230 1_556 S
C3167 C1399 0.230 1_554 S
C1569 C1433 0.230 . S
C1467 C2997 0.230 . S
C3235 C1501 0.230 1_565 S
C3031 C1535 0.230 . S
C1603 C3133 0.230 . S
C1909 C2045 0.230 . S
C1943 C2079 0.230 1_554 S
C1977 C2113 0.230 . S
C2147 C2011 0.230 . S
C2385 C2249 0.230 1_565 S
C2725 C2861 0.230 . S
C2895 C2759 0.230 1_554 S
C2793 C2929 0.230 . S
C2963 C2827 0.230 . S
C3201 C3065 0.230 1_545 S
C315 C9 1.672 . S
C349 C43 1.672 . S
C77 C383 1.672 . S
C281 C111 1.672 . S
C519 C145 1.672 . S
C179 C417 1.672 . S
C451 C213 1.672 . S
C247 C485 1.672 . S
C553 C621 1.672 . S
C2389 C587 1.672 . S
C655 C2423 1.672 . S
C689 C2355 1.672 . S
C723 C2321 1.672 . S
C2219 C757 1.672 . S
C2287 C791 1.672 . S
C825 C1131 1.672 . S
C1165 C859 1.672 . S
C893 C1199 1.672 . S
C1097 C927 1.672 . S
C1335 C961 1.672 . S
C995 C1233 1.672 . S
C1029 C1267 1.672 . S
C1301 C1063 1.672 . S
C1369 C1437 1.672 . S
C1403 C3205 1.672 . S
C3239 C1471 1.672 . S
C3171 C1505 1.672 . S
C3137 C1539 1.672 . S
C1573 C3035 1.672 . S
C3103 C1607 1.672 . S
C1641 C1947 1.672 . S
C1675 C1981 1.672 . S
C1709 C2015 1.672 . S
C1913 C1743 1.672 . S
C1777 C2151 1.672 . S
C2049 C1811 1.672 . S
C1845 C2083 1.672 . S
C2117 C1879 1.672 . S
C2185 C2253 1.672 . S
C2457 C2763 1.672 . S
C2797 C2491 1.672 . S
C2525 C2831 1.672 . S
C2729 C2559 1.672 . S
C2967 C2593 1.672 . S
C2865 C2627 1.672 . S
C2661 C2899 1.672 . S
C2695 C2933 1.672 . S
C3001 C3069 1.672 . S
C700 C20 2.970 1_655 S
C2230 C54 2.969 . S
C88 C2264 2.969 . S
C122 C2298 2.969 1_554 S
C156 C2434 2.969 1_455 S
C734 C190 2.969 . S
C2400 C224 2.969 . S
C258 C564 2.970 1_556 S
C292 C530 2.970 1_545 S
C428 C326 2.969 1_565 S
C462 C360 2.969 1_545 S
C394 C496 2.969 1_565 S
C598 C1686 2.969 1_556 S
C1720 C632 2.969 1_655 S
C1754 C666 2.969 . S
C768 C1856 2.969 1_455 S
C802 C1788 2.969 . S
C836 C1516 2.970 1_655 S
C3046 C870 2.969 . S
C904 C3080 2.969 . S
C938 C3114 2.969 1_556 S
C972 C3250 2.969 1_655 S
C1550 C1006 2.969 . S
C1040 C3216 2.969 . S
C1380 C1074 2.970 1_556 S
C1346 C1108 2.970 1_545 S
C1142 C1244 2.969 1_565 S
C1176 C1278 2.969 1_545 S
C1210 C1312 2.969 1_545 S
C2502 C1414 2.969 1_556 S
C1448 C2536 2.969 1_655 S
C1482 C2570 2.969 . S
C2672 C1584 2.969 1_455 S
C1618 C2604 2.969 . S
C1652 C2332 2.970 . S
C1822 C2366 2.969 1_556 S
C2196 C1890 2.970 . S
C2162 C1924 2.970 . S
C2060 C1958 2.969 . S
C1992 C2094 2.969 . S
C2128 C2026 2.969 . S
C2468 C3148 2.970 . S
C2638 C3182 2.969 1_554 S
C2706 C3012 2.970 . S
C2978 C2740 2.970 . S
C2876 C2774 2.969 . S
C2808 C2910 2.969 . S
C2842 C2944 2.969 . S
