# Generated by pormake.
# Topology acs-f, (3)-cn, num edge types: 1
# Building blocks:
#     Node 0, Type 0, BuildingBlock: OLANEW_clean_sbu_2, # of connection points: 3
#     Node 1, Type 0, BuildingBlock: OLANEW_clean_sbu_2, # of connection points: 3
#     Node 2, Type 0, BuildingBlock: OLANEW_clean_sbu_2, # of connection points: 3
#     Node 3, Type 0, BuildingBlock: OLANEW_clean_sbu_2, # of connection points: 3
#     Node 4, Type 0, BuildingBlock: OLANEW_clean_sbu_2, # of connection points: 3
#     Node 5, Type 0, BuildingBlock: OLANEW_clean_sbu_2, # of connection points: 3
#     Node 6, Type 0, BuildingBlock: OLANEW_clean_sbu_2, # of connection points: 3
#     Node 7, Type 0, BuildingBlock: OLANEW_clean_sbu_2, # of connection points: 3
#     Node 8, Type 0, BuildingBlock: OLANEW_clean_sbu_2, # of connection points: 3
#     Node 9, Type 0, BuildingBlock: OLANEW_clean_sbu_2, # of connection points: 3
#     Node 10, Type 0, BuildingBlock: OLANEW_clean_sbu_2, # of connection points: 3
#     Node 11, Type 0, BuildingBlock: OLANEW_clean_sbu_2, # of connection points: 3
#     Edge 12, Type (0, 0), BuildingBlock: FUNLAD_clean_linker_1, # of connection points: 2
#     Edge 13, Type (0, 0), BuildingBlock: FUNLAD_clean_linker_1, # of connection points: 2
#     Edge 14, Type (0, 0), BuildingBlock: FUNLAD_clean_linker_1, # of connection points: 2
#     Edge 15, Type (0, 0), BuildingBlock: FUNLAD_clean_linker_1, # of connection points: 2
#     Edge 16, Type (0, 0), BuildingBlock: FUNLAD_clean_linker_1, # of connection points: 2
#     Edge 17, Type (0, 0), BuildingBlock: FUNLAD_clean_linker_1, # of connection points: 2
#     Edge 18, Type (0, 0), BuildingBlock: FUNLAD_clean_linker_1, # of connection points: 2
#     Edge 19, Type (0, 0), BuildingBlock: FUNLAD_clean_linker_1, # of connection points: 2
#     Edge 20, Type (0, 0), BuildingBlock: FUNLAD_clean_linker_1, # of connection points: 2
#     Edge 21, Type (0, 0), BuildingBlock: FUNLAD_clean_linker_1, # of connection points: 2
#     Edge 22, Type (0, 0), BuildingBlock: FUNLAD_clean_linker_1, # of connection points: 2
#     Edge 23, Type (0, 0), BuildingBlock: FUNLAD_clean_linker_1, # of connection points: 2
#     Edge 24, Type (0, 0), BuildingBlock: FUNLAD_clean_linker_1, # of connection points: 2
#     Edge 25, Type (0, 0), BuildingBlock: FUNLAD_clean_linker_1, # of connection points: 2
#     Edge 26, Type (0, 0), BuildingBlock: FUNLAD_clean_linker_1, # of connection points: 2
#     Edge 27, Type (0, 0), BuildingBlock: FUNLAD_clean_linker_1, # of connection points: 2
#     Edge 28, Type (0, 0), BuildingBlock: FUNLAD_clean_linker_1, # of connection points: 2
#     Edge 29, Type (0, 0), BuildingBlock: FUNLAD_clean_linker_1, # of connection points: 2
# Relax obj value: 0.064
# Max RMSD: 0.033
# Mean RMSD: 0.033
data_MOF--net-acs-f--node1-OLANEW_clean_sbu_2--edge1-FUNLAD_clean_linker_1
_symmetry_space_group_name_H-M    P1
_symmetry_Int_Tables_number       1
_symmetry_cell_setting            triclinic
loop_
_symmetry_equiv_pos_as_xyz
'x, y, z'
_cell_length_a     38.690675
_cell_length_b     38.689819
_cell_length_c     53.587742
_cell_angle_alpha  90.207628
_cell_angle_beta   89.698783
_cell_angle_gamma 120.11901
loop_
_atom_site_label
_atom_site_type_symbol
_atom_site_fract_x
_atom_site_fract_y
_atom_site_fract_z
_atom_type_partial_charge
O0 O 0.97739 0.46036 0.13364 0.0
Cd1 Cd 0.96132 0.42266 0.09451 0.0
O2 O 0.02582 0.44705 0.13786 0.0
Cd3 Cd 0.07381 0.44737 0.15937 0.0
O4 O 0.12046 0.44513 0.18085 0.0
C5 C 0.11133 0.41543 0.19498 0.0
O6 O 0.07394 0.38663 0.19651 0.0
C7 C 0.00594 0.46245 0.14645 0.0
C8 C 0.95977 0.46273 0.05184 0.0
O9 O 0.92846 0.44338 0.0654 0.0
O10 O 0.9921 0.46408 0.05875 0.0
O11 O 0.56502 0.49948 0.15554 0.0
Cd12 Cd 0.59302 0.51758 0.1134 0.0
O13 O 0.58763 0.56303 0.16311 0.0
Cd14 Cd 0.59481 0.61001 0.18889 0.0
O15 O 0.59289 0.65104 0.21611 0.0
C16 C 0.59298 0.64522 0.23945 0.0
O17 O 0.59505 0.61429 0.24746 0.0
C18 C 0.56923 0.52696 0.17043 0.0
C19 C 0.53497 0.48812 0.07624 0.0
O20 O 0.5506 0.46771 0.08386 0.0
O21 O 0.54649 0.52233 0.08625 0.0
O22 O 0.46026 0.107 0.13609 0.0
Cd23 Cd 0.46589 0.13859 0.09576 0.0
O24 O 0.41205 0.04841 0.1234 0.0
Cd25 Cd 0.37004 0.98588 0.13252 0.0
O26 O 0.32985 0.92952 0.15126 0.0
C27 C 0.3023 0.92785 0.16508 0.0
O28 O 0.29851 0.95962 0.16738 0.0
C29 C 0.43587 0.07029 0.14037 0.0
C30 C 0.50196 0.11362 0.06052 0.0
O31 O 0.523 0.14144 0.07608 0.0
O32 O 0.46384 0.0975 0.06151 0.0
O33 O 0.52547 0.00149 0.32617 0.0
Cd34 Cd 0.54348 0.96809 0.35785 0.0
O35 O 0.49449 0.94749 0.30282 0.0
Cd36 Cd 0.51221 0.91121 0.32437 0.0
O37 O 0.53339 0.86854 0.32266 0.0
C38 C 0.56257 0.87758 0.30793 0.0
O39 O 0.57923 0.91214 0.29638 0.0
C40 C 0.50502 0.98383 0.30697 0.0
C41 C 0.50753 0.96628 0.40334 0.0
O42 O 0.54195 0.99578 0.39761 0.0
O43 O 0.49023 0.9375 0.38773 0.0
O44 O 0.96116 0.52605 0.34282 0.0
Cd45 Cd 0.96195 0.55 0.38527 0.0
O46 O 0.01283 0.58446 0.33386 0.0
Cd47 Cd 0.05613 0.63201 0.30957 0.0
O48 O 0.09642 0.68167 0.2856 0.0
C49 C 0.08754 0.70831 0.28048 0.0
O50 O 0.05475 0.70539 0.28981 0.0
C51 C 0.98685 0.54933 0.32704 0.0
C52 C 0.98233 0.51243 0.42184 0.0
O53 O 0.94594 0.498 0.41509 0.0
O54 O 0.00922 0.54426 0.41109 0.0
O55 O 0.48383 0.40213 0.36346 0.0
Cd56 Cd 0.45033 0.37395 0.40323 0.0
O57 O 0.43135 0.40623 0.35316 0.0
Cd58 Cd 0.39066 0.41365 0.32846 0.0
O59 O 0.34914 0.41988 0.30405 0.0
C60 C 0.36109 0.45012 0.28993 0.0
O61 O 0.39892 0.47805 0.29004 0.0
C62 C 0.46557 0.41122 0.34752 0.0
C63 C 0.47601 0.42739 0.4431 0.0
O64 O 0.49219 0.40611 0.43853 0.0
O65 O 0.44832 0.42407 0.42857 0.0
O66 O 0.02221 0.57742 0.79915 0.0
Cd67 Cd 0.99092 0.60596 0.82551 0.0
O68 O 0.0566 0.63188 0.77664 0.0
Cd69 Cd 0.02233 0.65874 0.79042 0.0
O70 O 0.97176 0.6666 0.78142 0.0
C71 C 0.97081 0.67775 0.75927 0.0
O72 O 0.00081 0.68626 0.74412 0.0
C73 C 0.04803 0.59658 0.78227 0.0
C74 C 0.99389 0.58825 0.87557 0.0
O75 O 0.96407 0.56488 0.86189 0.0
O76 O 0.0221 0.62016 0.86574 0.0
O77 O 0.30767 0.43986 0.85708 0.0
Cd78 Cd 0.27451 0.40953 0.89655 0.0
O79 O 0.29675 0.38166 0.84359 0.0
Cd80 Cd 0.29669 0.339 0.81651 0.0
O81 O 0.29235 0.29027 0.79343 0.0
C82 C 0.32023 0.29492 0.77875 0.0
O83 O 0.35294 0.32999 0.77718 0.0
C84 C 0.31162 0.41902 0.84017 0.0
C85 C 0.32873 0.43636 0.93593 0.0
O86 O 0.32129 0.40492 0.9236 0.0
O87 O 0.31056 0.45503 0.92976 0.0
O88 O 0.55326 0.94404 0.84143 0.0
Cd89 Cd 0.61185 0.97855 0.86818 0.0
O90 O 0.58862 0.96822 0.807 0.0
Cd91 Cd 0.64782 -0.00028 0.8239 0.0
O92 O 0.71105 0.04449 0.82015 0.0
C93 C 0.7186 0.07767 0.81079 0.0
O94 O 0.68877 0.0835 0.8055 0.0
C95 C 0.55504 0.94768 0.81785 0.0
C96 C 0.59328 0.01442 0.90711 0.0
O97 O 0.60513 0.03175 0.88594 0.0
O98 O 0.5909 0.98045 0.91016 0.0
O99 O 0.40825 0.97931 0.65487 0.0
Cd100 Cd 0.38387 0.00888 0.62447 0.0
O101 O 0.36003 0.96387 0.68226 0.0
Cd102 Cd 0.33869 -0.00044 0.66348 0.0
O103 O 0.3339 0.05343 0.66569 0.0
C104 C 0.32888 0.06268 0.68763 0.0
O105 O 0.32541 0.03907 0.70623 0.0
C106 C 0.39101 0.96294 0.67526 0.0
C107 C 0.41897 0.0134 0.57817 0.0
O108 O 0.38595 0.98236 0.58437 0.0
O109 O 0.43513 0.04252 0.59365 0.0
O110 O 0.12009 0.43666 0.64736 0.0
Cd111 Cd 0.13186 0.41001 0.60885 0.0
O112 O 0.08172 0.37597 0.66176 0.0
Cd113 Cd 0.03942 0.33553 0.68964 0.0
O114 O 0.98955 0.29696 0.71412 0.0
C115 C 0.96283 0.30617 0.71838 0.0
O116 O 0.96633 0.3387 0.70836 0.0
C117 C 0.0974 0.4135 0.6644 0.0
C118 C 0.11187 0.43955 0.56734 0.0
O119 O 0.08575 0.40722 0.57802 0.0
O120 O 0.14741 0.45773 0.5761 0.0
O121 O 0.52917 0.55642 0.68986 0.0
Cd122 Cd 0.58707 0.59773 0.66324 0.0
O123 O 0.54973 0.51412 0.69872 0.0
Cd124 Cd 0.61011 0.5528 0.68462 0.0
O125 O 0.67401 0.58673 0.69236 0.0
C126 C 0.68539 0.61135 0.71044 0.0
O127 O 0.65901 0.61714 0.72239 0.0
C128 C 0.52323 0.52424 0.70006 0.0
C129 C 0.57677 0.56391 0.61587 0.0
O130 O 0.59457 0.55599 0.63307 0.0
O131 O 0.56416 0.58813 0.62088 0.0
H132 H 0.34437 0.48101 0.26208 0.0
C133 C 0.33291 0.45443 0.27363 0.0
H134 H 0.28216 0.39959 0.28375 0.0
H135 H 0.19653 0.49795 0.23949 0.0
H136 H 0.22451 0.54098 0.27562 0.0
H137 H 0.27094 0.53385 0.30363 0.0
H138 H 0.28986 0.48387 0.29561 0.0
C139 C 0.29385 0.42691 0.27292 0.0
C140 C 0.26584 0.43149 0.25621 0.0
C141 C 0.25488 0.46073 0.26134 0.0
C142 C 0.22762 0.46443 0.24542 0.0
C143 C 0.21712 0.49384 0.25096 0.0
C144 C 0.23289 0.51869 0.27167 0.0
C145 C 0.25907 0.51471 0.28742 0.0
C146 C 0.26989 0.48602 0.28249 0.0
H147 H 0.1326 0.38672 0.22144 0.0
C148 C 0.14205 0.41278 0.20964 0.0
H149 H 0.19062 0.4681 0.19787 0.0
H150 H 0.2811 0.37281 0.24097 0.0
H151 H 0.25333 0.33001 0.20472 0.0
H152 H 0.20646 0.3368 0.17692 0.0
H153 H 0.18697 0.38633 0.18525 0.0
C154 C 0.1808 0.44124 0.20893 0.0
C155 C 0.21075 0.43838 0.22474 0.0
C156 C 0.22207 0.40945 0.21945 0.0
C157 C 0.24943 0.40584 0.23532 0.0
C158 C 0.26028 0.37674 0.22961 0.0
C159 C 0.24467 0.35204 0.20881 0.0
C160 C 0.21825 0.35584 0.19317 0.0
C161 C 0.2071 0.38425 0.19827 0.0
H162 H 0.58883 0.66576 0.27734 0.0
C163 C 0.58912 0.67194 0.25754 0.0
H164 H 0.58335 0.7081 0.23036 0.0
H165 H 0.48432 0.76181 0.29598 0.0
H166 H 0.43069 0.70781 0.27286 0.0
H167 H 0.44295 0.6616 0.24757 0.0
H168 H 0.50912 0.66935 0.24517 0.0
C169 C 0.58462 0.70254 0.25011 0.0
C170 C 0.57666 0.72703 0.26812 0.0
C171 C 0.5377 0.72165 0.26974 0.0
C172 C 0.53056 0.74796 0.28459 0.0
C173 C 0.4915 0.74251 0.28525 0.0
C174 C 0.46036 0.7116 0.27203 0.0
C175 C 0.46727 0.68562 0.25777 0.0
C176 C 0.50542 0.69047 0.25652 0.0
H177 H 0.59653 0.85637 0.28612 0.0
C178 C 0.57433 0.84808 0.30085 0.0
H179 H 0.53295 0.80161 0.32409 0.0
H180 H 0.65454 0.74448 0.26995 0.0
H181 H 0.7074 0.79591 0.29513 0.0
H182 H 0.69419 0.83939 0.32257 0.0
H183 H 0.62807 0.83202 0.3247 0.0
C184 C 0.55615 0.81071 0.30997 0.0
C185 C 0.56248 0.77961 0.29782 0.0
C186 C 0.60082 0.7832 0.29759 0.0
C187 C 0.60809 0.75725 0.28241 0.0
C188 C 0.64713 0.76278 0.28157 0.0
C189 C 0.67778 0.79224 0.2959 0.0
C190 C 0.67036 0.81679 0.3113 0.0
C191 C 0.63239 0.81244 0.31223 0.0
H192 H 0.10621 0.76611 0.26234 0.0
C193 C 0.11389 0.74288 0.26475 0.0
H194 H 0.15428 0.72319 0.25502 0.0
H195 H 0.2075 0.83411 0.15795 0.0
H196 H 0.16477 0.76933 0.13912 0.0
H197 H 0.12547 0.70961 0.16526 0.0
H198 H 0.12853 0.71444 0.21043 0.0
C199 C 0.14675 0.74666 0.25359 0.0
C200 C 0.17267 0.7822 0.238 0.0
C201 C 0.17154 0.77868 0.21166 0.0
C202 C 0.19485 0.813 0.19661 0.0
C203 C 0.19153 0.8089 0.17032 0.0
C204 C 0.16683 0.77189 0.15925 0.0
C205 C 0.14466 0.73828 0.17396 0.0
C206 C 0.14674 0.74147 0.19987 0.0
H207 H 0.28182 0.8663 0.17788 0.0
C208 C 0.27573 0.89082 0.17886 0.0
H209 H 0.23913 0.91158 0.19425 0.0
H210 H 0.18393 0.79855 0.28804 0.0
H211 H 0.22654 0.86325 0.30704 0.0
H212 H 0.26656 0.92293 0.28104 0.0
H213 H 0.26447 0.91818 0.2359 0.0
C214 C 0.24482 0.88686 0.19262 0.0
C215 C 0.22001 0.85061 0.20802 0.0
C216 C 0.22121 0.85401 0.23442 0.0
C217 C 0.19777 0.81973 0.24942 0.0
C218 C 0.20043 0.82377 0.27573 0.0
C219 C 0.22495 0.86071 0.2869 0.0
C220 C 0.24752 0.89429 0.27226 0.0
C221 C 0.24594 0.89115 0.24634 0.0
H222 H 0.73365 0.64806 0.73684 0.0
C223 C 0.72642 0.62958 0.72021 0.0
H224 H 0.74605 0.60131 0.69472 0.0
H225 H 0.91349 0.7342 0.7529 0.0
H226 H 0.90445 0.78529 0.7329 0.0
H227 H 0.84417 0.76705 0.70803 0.0
H228 H 0.79232 0.69768 0.70332 0.0
C229 C 0.75354 0.62117 0.71069 0.0
C230 C 0.79132 0.63266 0.72418 0.0
C231 C 0.82186 0.67327 0.72609 0.0
C232 C 0.85734 0.68368 0.73961 0.0
C233 C 0.88661 0.72455 0.74213 0.0
C234 C 0.88168 0.75419 0.73087 0.0
C235 C 0.84768 0.74393 0.71693 0.0
C236 C 0.81804 0.704 0.71449 0.0
H237 H 0.93461 0.68293 0.72958 0.0
C238 C 0.93467 0.67622 0.74926 0.0
H239 H 0.90024 0.65491 0.78219 0.0
H240 H 0.73806 0.55207 0.72483 0.0
H241 H 0.74789 0.501 0.7439 0.0
H242 H 0.81048 0.5188 0.76593 0.0
H243 H 0.86344 0.58776 0.76917 0.0
C244 C 0.90109 0.66329 0.76276 0.0
C245 C 0.8628 0.65334 0.75042 0.0
C246 C 0.83218 0.61275 0.74858 0.0
C247 C 0.7964 0.60243 0.73551 0.0
C248 C 0.76613 0.56166 0.73421 0.0
C249 C 0.77132 0.53198 0.74513 0.0
C250 C 0.80652 0.542 0.75755 0.0
C251 C 0.8367 0.5818 0.7593 0.0
H252 H 0.29049 0.23105 0.76892 0.0
C253 C 0.31635 0.26014 0.76494 0.0
H254 H 0.37048 0.29164 0.7448 0.0
H255 H 0.3934 0.14108 0.73696 0.0
H256 H 0.44956 0.18617 0.7627 0.0
H257 H 0.45686 0.25001 0.77737 0.0
H258 H 0.40823 0.26924 0.76625 0.0
C259 C 0.34399 0.26292 0.74852 0.0
C260 C 0.34146 0.2263 0.73751 0.0
C261 C 0.37029 0.21561 0.74415 0.0
C262 C 0.36573 0.17852 0.73604 0.0
C263 C 0.39502 0.1686 0.74292 0.0
C264 C 0.4275 0.19427 0.75763 0.0
C265 C 0.43164 0.23022 0.76586 0.0
C266 C 0.40346 0.24091 0.7593 0.0
H267 H 0.33582 0.12106 0.67685 0.0
C268 C 0.32998 0.10083 0.69238 0.0
H269 H 0.32137 0.09209 0.73126 0.0
H270 H 0.28524 0.24116 0.71757 0.0
H271 H 0.22875 0.19593 0.69199 0.0
H272 H 0.21824 0.12962 0.68027 0.0
H273 H 0.26447 0.10841 0.69365 0.0
C274 C 0.32579 0.11163 0.71557 0.0
C275 C 0.33227 0.15207 0.72143 0.0
C276 C 0.30427 0.16345 0.71395 0.0
C277 C 0.30935 0.20099 0.7216 0.0
C278 C 0.2819 0.21236 0.71308 0.0
C279 C 0.24952 0.1868 0.69826 0.0
C280 C 0.24368 0.14952 0.69159 0.0
C281 C 0.27058 0.13778 0.69932 0.0
H282 H 0.90299 0.28694 0.73383 0.0
C283 C 0.92657 0.27948 0.7328 0.0
H284 H 0.94445 0.23811 0.74335 0.0
H285 H 0.81228 0.17297 0.83052 0.0
H286 H 0.8717 0.21411 0.85503 0.0
H287 H 0.93672 0.25715 0.83453 0.0
H288 H 0.94266 0.25947 0.78933 0.0
C289 C 0.92103 0.24581 0.74362 0.0
C290 C 0.88245 0.21791 0.75599 0.0
C291 C 0.87967 0.21617 0.78238 0.0
C292 C 0.84228 0.1909 0.7942 0.0
C293 C 0.84007 0.19092 0.82058 0.0
C294 C 0.87392 0.21455 0.83487 0.0
C295 C 0.91053 0.23882 0.82333 0.0
C296 C 0.91353 0.23985 0.79739 0.0
H297 H 0.78324 0.09992 0.80623 0.0
C298 C 0.75983 0.10721 0.80335 0.0
H299 H 0.74477 0.14783 0.78761 0.0
H300 H 0.87839 0.21133 0.70502 0.0
H301 H 0.81932 0.16955 0.68047 0.0
H302 H 0.75437 0.12604 0.70088 0.0
H303 H 0.74815 0.12395 0.74595 0.0
C304 C 0.76832 0.1411 0.79144 0.0
C305 C 0.80793 0.16696 0.77954 0.0
C306 C 0.81092 0.16815 0.75313 0.0
C307 C 0.84827 0.19344 0.74135 0.0
C308 C 0.85061 0.19327 0.71495 0.0
C309 C 0.81696 0.16926 0.70061 0.0
C310 C 0.78041 0.14475 0.71211 0.0
C311 C 0.77725 0.14397 0.73803 0.0
H312 H 0.92916 0.47832 0.02316 0.0
C313 C 0.95763 0.48113 0.02826 0.0
H314 H 0.01678 0.50014 0.01679 0.0
H315 H 0.97865 0.48652 0.90182 0.0
H316 H 0.98942 0.43057 0.90788 0.0
H317 H -0.00251 0.41063 0.95015 0.0
H318 H 0.99505 0.44664 0.98659 0.0
C319 C 0.9887 0.49869 0.01238 0.0
C320 C 0.98399 0.51128 0.987 0.0
C321 C 0.98534 0.48978 0.96588 0.0
C322 C 0.98014 0.50093 0.94154 0.0
C323 C 0.98196 0.4791 0.92077 0.0
C324 C 0.98819 0.44693 0.92397 0.0
C325 C 0.99278 0.43574 0.94776 0.0
C326 C 0.99138 0.45676 0.96853 0.0
H327 H 0.02301 0.59909 0.91236 0.0
C328 C -0.00342 0.57857 0.90184 0.0
H329 H 0.94243 0.52338 0.90212 0.0
H330 H 0.98323 0.561 0.02324 0.0
H331 H 0.97049 0.61574 0.0173 0.0
H332 H 0.95781 0.63275 0.9753 0.0
H333 H 0.95836 0.59549 0.93895 0.0
C334 C 0.96828 0.54485 0.9127 0.0
C335 C 0.97359 0.53355 0.93833 0.0
C336 C 0.972 0.55494 0.95945 0.0
C337 C 0.97785 0.54419 0.98379 0.0
C338 C 0.97772 0.56705 0.00444 0.0
C339 C 0.97065 0.5987 0.00128 0.0
C340 C 0.96363 0.60835 0.97762 0.0
C341 C 0.96423 0.58683 0.95689 0.0
H342 H 0.36336 0.47862 0.966 0.0
C343 C 0.35761 0.45126 0.95665 0.0
H344 H 0.37058 0.4043 0.95559 0.0
H345 H 0.52897 0.54533 0.01504 0.0
H346 H 0.54735 0.57921 0.97509 0.0
H347 H 0.50139 0.553 0.93928 0.0
H348 H 0.43673 0.49285 0.94324 0.0
C349 C 0.37687 0.43236 0.96416 0.0
C350 C 0.40529 0.44774 0.98544 0.0
C351 C 0.4431 0.48287 0.98276 0.0
C352 C 0.46978 0.49773 0.00334 0.0
C353 C 0.50744 0.53277 9e-05 0.0
C354 C 0.51844 0.55249 0.97722 0.0
C355 C 0.49255 0.53775 0.95707 0.0
C356 C 0.45538 0.50329 0.95966 0.0
H357 H 0.49697 0.44359 0.04809 0.0
C358 C 0.50486 0.4724 0.05622 0.0
H359 H 0.49598 0.52196 0.05509 0.0
H360 H 0.33549 0.37925 -0.00338 0.0
H361 H 0.31676 0.34557 0.03667 0.0
H362 H 0.3622 0.37231 0.0727 0.0
H363 H 0.42672 0.43263 0.06886 0.0
C364 C 0.48744 0.49256 0.04769 0.0
C365 C 0.45885 0.47715 0.02646 0.0
C366 C 0.42091 0.44212 0.02918 0.0
C367 C 0.39436 0.42714 0.00854 0.0
C368 C 0.35679 0.39197 0.01169 0.0
C369 C 0.34561 0.37238 0.03459 0.0
C370 C 0.37122 0.3874 0.05486 0.0
C371 C 0.40836 0.42193 0.05234 0.0
H372 H 0.55249 0.10877 0.04546 0.0
C373 C 0.52155 0.10045 0.04224 0.0
H374 H 0.47172 0.07111 0.01854 0.0
H375 H 0.63217 0.09443 0.95416 0.0
H376 H 0.6612 0.16564 0.96092 0.0
H377 H 0.6254 0.19187 0.98564 0.0
H378 H 0.56124 0.14699 0.00452 0.0
C379 C 0.50272 0.07961 0.02169 0.0
C380 C 0.52207 0.06485 0.00375 0.0
C381 C 0.55811 0.09185 0.99122 0.0
C382 C 0.57712 0.07698 0.97518 0.0
C383 C 0.61511 0.10426 0.96507 0.0
C384 C 0.63233 0.14522 0.96901 0.0
C385 C 0.6123 0.15996 0.98305 0.0
C386 C 0.57561 0.13377 0.99403 0.0
H387 H 0.57553 0.05661 0.92156 0.0
C388 C 0.58086 0.03258 0.92684 0.0
H389 H 0.58013 0.99564 0.95586 0.0
H390 H 0.4541 0.00465 0.02538 0.0
H391 H 0.42284 0.93397 0.01625 0.0
H392 H 0.45226 0.90885 0.98524 0.0
H393 H 0.51341 0.95415 0.96351 0.0
C394 C 0.57517 0.01991 0.95063 0.0
C395 C 0.55811 0.0355 0.96968 0.0
C396 C 0.5217 0.00859 0.98183 0.0
C397 C 0.50404 0.02321 -0.00086 0.0
C398 C 0.46839 0.99545 0.0116 0.0
C399 C 0.45013 0.95468 0.00661 0.0
C400 C 0.46673 0.94054 0.98919 0.0
C401 C 0.50202 0.96698 0.97689 0.0
H402 H 0.46668 0.04275 0.54991 0.0
C403 C 0.43869 0.01567 0.55413 0.0
H404 H 0.39531 0.95833 0.54139 0.0
H405 H 0.4448 0.00296 0.4278 0.0
H406 H 0.38236 0.00331 0.42901 0.0
H407 H 0.34742 0.99643 0.46892 0.0
H408 H 0.37494 0.98947 0.5079 0.0
C409 C 0.42375 0.98521 0.53778 0.0
C410 C 0.44444 0.98805 0.51374 0.0
C411 C 0.42749 0.99114 0.49107 0.0
C412 C 0.44726 0.99436 0.46801 0.0
C413 C 0.43049 -0.00084 0.44577 0.0
C414 C 0.39477 -0.00028 0.44621 0.0
C415 C 0.37513 0.99591 0.46868 0.0
C416 C 0.39122 0.99183 0.49092 0.0
H417 H 0.45893 0.93903 0.4312 0.0
C418 C 0.48775 0.96522 0.42715 0.0
H419 H 0.53308 0.02147 0.44011 0.0
H420 H 0.48361 0.97957 0.55367 0.0
H421 H 0.5461 0.97931 0.55248 0.0
H422 H 0.5808 0.98567 0.51255 0.0
H423 H 0.55306 0.99212 0.47353 0.0
C424 C 0.50383 0.99555 0.44358 0.0
C425 C 0.48352 0.99352 0.46765 0.0
C426 C 0.50056 0.99062 0.49034 0.0
C427 C 0.48084 0.98751 0.5134 0.0
C428 C 0.49779 0.98308 0.53568 0.0
C429 C 0.53355 0.98262 0.53526 0.0
C430 C 0.55306 0.98615 0.51277 0.0
C431 C 0.53684 0.98993 0.49051 0.0
H432 H 0.12516 0.48363 0.53747 0.0
C433 C 0.10165 0.45615 0.54573 0.0
H434 H 0.04089 0.411 0.54398 0.0
H435 H 0.04374 0.56225 0.4832 0.0
H436 H 0.05871 0.59551 0.5234 0.0
H437 H 0.07101 0.56516 0.56022 0.0
H438 H 0.06871 0.50156 0.557 0.0
C439 C 0.06449 0.43903 0.5364 0.0
C440 C 0.055 0.45659 0.51462 0.0
C441 C 0.05596 0.49362 0.51693 0.0
C442 C 0.04815 0.51078 0.49581 0.0
C443 C 0.04945 0.54785 0.49861 0.0
C444 C 0.05791 0.56724 0.52161 0.0
C445 C 0.06488 0.55018 0.54232 0.0
C446 C 0.06378 0.51375 0.54016 0.0
H447 H 0.96833 0.46596 0.45022 0.0
C448 C 0.99239 0.49305 0.44193 0.0
H449 H 0.05377 0.53641 0.44333 0.0
H450 H 0.04933 0.38465 0.50405 0.0
H451 H 0.03338 0.35092 0.46396 0.0
H452 H 0.0204 0.38096 0.42725 0.0
H453 H 0.02311 0.4448 0.43043 0.0
C454 C 0.02971 0.50849 0.45074 0.0
C455 C 0.03844 0.49046 0.47258 0.0
C456 C 0.03701 0.45322 0.47033 0.0
C457 C 0.04499 0.43614 0.49143 0.0
C458 C 0.04345 0.39896 0.48866 0.0
C459 C 0.03442 0.37931 0.46573 0.0
C460 C 0.02707 0.3962 0.44507 0.0
C461 C 0.02848 0.43278 0.4472 0.0
H462 H 0.47301 0.4716 0.46778 0.0
C463 C 0.48742 0.4539 0.46506 0.0
H464 H 0.52813 0.43799 0.4797 0.0
H465 H 0.61683 0.58859 0.55034 0.0
H466 H 0.66758 0.60446 0.51859 0.0
H467 H 0.65224 0.5635 0.48045 0.0
H468 H 0.58604 0.50646 0.47379 0.0
C469 C 0.51292 0.45491 0.48237 0.0
C470 C 0.52185 0.47961 0.50538 0.0
C471 C 0.5608 0.51259 0.50909 0.0
C472 C 0.56974 0.53606 0.53116 0.0
C473 C 0.60864 0.56935 0.53413 0.0
C474 C 0.63799 0.57891 0.516 0.0
C475 C 0.62935 0.55586 0.49452 0.0
C476 C 0.59124 0.52314 0.49096 0.0
H477 H 0.58228 0.52482 0.58802 0.0
C478 C 0.57039 0.54466 0.59122 0.0
H479 H 0.53572 0.56793 0.57641 0.0
H480 H 0.44511 0.41586 0.50552 0.0
H481 H 0.39443 0.40065 0.53705 0.0
H482 H 0.40936 0.44292 0.57454 0.0
H483 H 0.47528 0.50047 0.58079 0.0
C484 C 0.54921 0.54952 0.5732 0.0
C485 C 0.53978 0.52629 0.54956 0.0
C486 C 0.50073 0.49356 0.54577 0.0
C487 C 0.49188 0.46978 0.52386 0.0
C488 C 0.45321 0.43589 0.5213 0.0
C489 C 0.42385 0.42657 0.53939 0.0
C490 C 0.43227 0.45032 0.56052 0.0
C491 C 0.47024 0.48333 0.56384 0.0
H492 H 0.95515 0.51231 0.29447 0.0
C493 C 0.98412 0.53574 0.30099 0.0
H494 H 0.04532 0.57182 0.29202 0.0
H495 H 0.96831 0.42659 0.20592 0.0
H496 H 0.95817 0.38158 0.24005 0.0
H497 H 0.97439 0.40655 0.28328 0.0
H498 H -8e-05 0.47655 0.29264 0.0
C499 C 0.01589 0.54944 0.28567 0.0
C500 C 0.01159 0.53519 0.25936 0.0
C501 C -0.00127 0.49453 0.25407 0.0
C502 C 0.99155 0.48057 0.22899 0.0
C503 C 0.97601 0.43927 0.22445 0.0
C504 C 0.96978 0.41298 0.24391 0.0
C505 C 0.97875 0.427 0.26825 0.0
C506 C 0.99308 0.46724 0.27338 0.0
H507 H 0.03915 0.4808 0.18196 0.0
C508 C 0.0148 0.48033 0.17165 0.0
H509 H 0.96834 0.49403 0.17269 0.0
H510 H 0.03764 0.61514 0.26284 0.0
H511 H 0.05304 0.66137 0.2285 0.0
H512 H 0.04439 0.63791 0.18488 0.0
H513 H 0.01993 0.56799 0.17539 0.0
C514 C 0.99232 0.49343 0.18279 0.0
C515 C -0.0004 0.50779 0.20911 0.0
C516 C 0.01413 0.54873 0.21433 0.0
C517 C 0.01989 0.56241 0.23947 0.0
C518 C 0.03355 0.60332 0.24412 0.0
C519 C 0.04234 0.63014 0.22457 0.0
C520 C 0.0374 0.61692 0.20001 0.0
C521 C 0.02332 0.57671 0.19484 0.0
H522 H 0.50459 0.41568 0.31615 0.0
C523 C 0.48315 0.42425 0.32241 0.0
H524 H 0.45435 0.45672 0.31355 0.0
H525 H 0.60322 0.51893 0.23079 0.0
H526 H 0.64682 0.55036 0.26611 0.0
H527 H 0.61946 0.54062 0.30884 0.0
H528 H 0.54837 0.49866 0.31649 0.0
C529 C 0.47452 0.44661 0.30744 0.0
C530 C 0.49074 0.45654 0.28156 0.0
C531 C 0.53217 0.48254 0.27733 0.0
C532 C 0.54767 0.48979 0.25257 0.0
C533 C 0.5895 0.51382 0.24904 0.0
C534 C 0.61497 0.53183 0.2692 0.0
C535 C 0.59959 0.52622 0.29326 0.0
C536 C 0.55873 0.50186 0.2974 0.0
H537 H 0.55595 0.54207 0.20769 0.0
C538 C 0.5534 0.51775 0.19615 0.0
H539 H 0.53321 0.45594 0.19457 0.0
H540 H 0.40987 0.40562 0.28314 0.0
H541 H 0.36538 0.37825 0.24772 0.0
H542 H 0.39168 0.39384 0.20468 0.0
H543 H 0.46261 0.43677 0.19685 0.0
C544 C 0.53702 0.48092 0.20594 0.0
C545 C 0.52136 0.47273 0.232 0.0
C546 C 0.47979 0.44776 0.23624 0.0
C547 C 0.46452 0.43942 0.26103 0.0
C548 C 0.42297 0.41364 0.26471 0.0
C549 C 0.3971 0.39757 0.24453 0.0
C550 C 0.41191 0.40632 0.22031 0.0
C551 C 0.45273 0.43099 0.21609 0.0
H552 H 0.42136 0.01991 0.16564 0.0
C553 C 0.43636 0.0523 0.16447 0.0
H554 H 0.47175 0.1068 0.18336 0.0
H555 H 0.40234 0.96041 0.26962 0.0
H556 H 0.33614 0.94768 0.25895 0.0
H557 H 0.32665 0.98528 0.22514 0.0
H558 H 0.38335 0.03559 0.20174 0.0
C559 C 0.45612 0.07438 0.18442 0.0
C560 C 0.46165 0.05541 0.20703 0.0
C561 C 0.42824 0.02708 0.22111 0.0
C562 C 0.43375 0.00602 0.24095 0.0
C563 C 0.39984 0.97727 0.25437 0.0
C564 C 0.36166 0.96975 0.24849 0.0
C565 C 0.35633 0.99087 0.22944 0.0
C566 C 0.38913 0.01943 0.21598 0.0
H567 H 0.50614 0.03778 0.2924 0.0
C568 C 0.49581 0.00645 0.28868 0.0
H569 H 0.46677 0.95875 0.26304 0.0
H570 H 0.53245 0.10946 0.18472 0.0
H571 H 0.59847 0.12225 0.19555 0.0
H572 H 0.60789 0.08519 0.22965 0.0
H573 H 0.55138 0.03534 0.25318 0.0
C574 C 0.47788 0.99019 0.26688 0.0
C575 C 0.47267 0.01409 0.24714 0.0
C576 C 0.50622 0.04324 0.23354 0.0
C577 C 0.50072 0.0642 0.21363 0.0
C578 C 0.53471 0.09274 0.20012 0.0
C579 C 0.57289 0.10033 0.20608 0.0
C580 C 0.5782 0.07951 0.22529 0.0
C581 C 0.5454 0.05112 0.2388 0.0
H582 H 0.08589 0.59417 0.75228 0.0
C583 C 0.06557 0.57708 0.76735 0.0
H584 H 0.03269 0.52038 0.78433 0.0
H585 H 0.02254 0.43445 0.68141 0.0
H586 H 0.95355 0.41545 0.68874 0.0
H587 H 0.9346 0.44262 0.72461 0.0
H588 H 0.9847 0.48918 0.75322 0.0
C589 C 0.05425 0.53829 0.77001 0.0
C590 C 0.06538 0.5176 0.75085 0.0
C591 C 0.03548 0.48928 0.73477 0.0
C592 C 0.04632 0.47292 0.71441 0.0
C593 C 0.01606 0.44667 0.69775 0.0
C594 C 0.97624 0.43576 0.70159 0.0
C595 C 0.96558 0.4511 0.72175 0.0
C596 C 0.99472 0.47777 0.73809 0.0
H597 H 0.069 0.40884 0.70108 0.0
C598 C 0.08756 0.42959 0.68661 0.0
H599 H 0.11824 0.48979 0.67481 0.0
H600 H 0.12905 0.56675 0.78024 0.0
H601 H 0.19815 0.58446 0.77373 0.0
H602 H 0.21712 0.55633 0.73836 0.0
H603 H 0.16713 0.51022 0.70936 0.0
C604 C 0.09899 0.46846 0.68882 0.0
C605 C 0.08696 0.48401 0.71065 0.0
C606 C 0.11661 0.51121 0.72729 0.0
C607 C 0.10578 0.52781 0.74751 0.0
C608 C 0.13584 0.5541 0.76421 0.0
C609 C 0.17556 0.56428 0.76079 0.0
C610 C 0.18623 0.54841 0.74089 0.0
C611 C 0.15724 0.52207 0.72433 0.0
H612 H 0.48382 0.47252 0.72352 0.0
C613 C 0.48739 0.49988 0.71543 0.0
H614 H 0.46628 0.54076 0.71532 0.0
H615 H 0.31686 0.37886 0.76904 0.0
H616 H 0.3027 0.35054 0.7273 0.0
H617 H 0.34758 0.38682 0.69206 0.0
H618 H 0.4069 0.45173 0.69835 0.0
C619 C 0.46199 0.51242 0.72209 0.0
C620 C 0.43273 0.49189 0.74259 0.0
C621 C 0.39816 0.45417 0.73856 0.0
C622 C 0.37237 0.43322 0.75889 0.0
C623 C 0.33774 0.39582 0.7543 0.0
C624 C 0.32918 0.37929 0.73043 0.0
C625 C 0.35447 0.3997 0.71059 0.0
C626 C 0.38851 0.43681 0.71447 0.0
H627 H 0.33515 0.46677 0.81191 0.0
C628 C 0.33363 0.43893 0.81721 0.0
H629 H 0.35607 0.40003 0.81023 0.0
H630 H 0.49533 0.56475 0.75629 0.0
H631 H 0.51075 0.59223 0.79813 0.0
H632 H 0.46812 0.5544 0.83382 0.0
H633 H 0.40969 0.48924 0.82784 0.0
C634 C 0.35561 0.42668 0.8046 0.0
C635 C 0.38142 0.44989 0.78321 0.0
C636 C 0.41596 0.4878 0.78721 0.0
C637 C 0.44115 0.50915 0.76675 0.0
C638 C 0.47527 0.54709 0.77117 0.0
C639 C 0.48453 0.56323 0.79511 0.0
C640 C 0.4605 0.54197 0.81519 0.0
C641 C 0.42675 0.50464 0.81143 0.0
H642 H 0.4894 0.91719 0.81337 0.0
C643 C 0.51775 0.93198 0.8034 0.0
H644 H 0.54653 0.95494 0.76877 0.0
H645 H 0.39655 0.86934 0.69928 0.0
H646 H 0.42282 0.82448 0.6933 0.0
H647 H 0.47639 0.82903 0.72035 0.0
H648 H 0.50388 0.87832 0.75364 0.0
C649 C 0.51846 0.94043 0.77903 0.0
C650 C 0.48219 0.9336 0.76542 0.0
C651 C 0.46645 0.90467 0.74613 0.0
C652 C 0.43592 0.90234 0.73035 0.0
C653 C 0.4204 0.87289 0.7114 0.0
C654 C 0.43504 0.84684 0.70788 0.0
C655 C 0.46518 0.84939 0.72313 0.0
C656 C 0.48079 0.87787 0.74209 0.0
H657 H 0.43929 0.95204 0.68654 0.0
C658 C 0.4101 0.9473 0.69197 0.0
H659 H 0.36687 0.9288 0.72067 0.0
H660 H 0.50522 0.99254 0.801 0.0
H661 H 0.47738 0.03547 0.80768 0.0
H662 H 0.42329 0.03022 0.78093 0.0
H663 H 0.39702 0.98214 0.74724 0.0
C664 C 0.39543 0.93252 0.71471 0.0
C665 C 0.42158 0.92931 0.73373 0.0
C666 C 0.43538 0.95646 0.75408 0.0
C667 C 0.46612 0.95901 0.76976 0.0
C668 C 0.48117 0.9883 0.78891 0.0
C669 C 0.46561 0.01344 0.79289 0.0
C670 C 0.4352 0.01052 0.77782 0.0
C671 C 0.42033 0.98264 0.75853 0.0
loop_
_geom_bond_atom_site_label_1
_geom_bond_atom_site_label_2
_geom_bond_distance
_geom_bond_site_symmetry_2
_ccdc_geom_bond_type
O0 Cd1 2.300 1_655 S
O0 C7 1.275 . S
Cd1 O0 2.300 1_455 S
Cd1 O9 2.381 1_455 S
Cd1 O10 2.378 . S
O2 Cd3 2.385 . S
O2 C7 1.255 1_455 S
Cd3 O2 2.385 . S
Cd3 O4 2.317 . S
O4 Cd3 2.317 . S
O4 C5 1.232 . S
C5 O4 1.232 . S
C5 O6 1.218 . S
O6 C5 1.218 . S
C7 O0 1.275 . S
C7 O2 1.255 1_655 S
C8 O9 1.258 . S
C8 O10 1.256 1_655 S
O9 Cd1 2.381 1_655 S
O9 C8 1.258 . S
O10 Cd1 2.378 . S
O10 C8 1.256 1_455 S
O11 Cd12 2.300 . S
O11 C18 1.275 . S
Cd12 O11 2.300 . S
Cd12 O20 2.381 . S
Cd12 O21 2.378 . S
O13 Cd14 2.385 . S
O13 C18 1.255 . S
Cd14 O13 2.385 . S
Cd14 O15 2.317 . S
O15 Cd14 2.317 . S
O15 C16 1.232 . S
C16 O15 1.232 . S
C16 O17 1.218 . S
O17 C16 1.218 . S
C18 O11 1.275 . S
C18 O13 1.255 . S
C19 O20 1.258 . S
C19 O21 1.256 . S
O20 Cd12 2.381 . S
O20 C19 1.258 . S
O21 Cd12 2.378 . S
O21 C19 1.256 . S
O22 Cd23 2.300 1_545 S
O22 C29 1.275 . S
Cd23 O22 2.300 1_565 S
Cd23 O31 2.381 1_565 S
Cd23 O32 2.378 . S
O24 Cd25 2.385 . S
O24 C29 1.255 1_565 S
Cd25 O24 2.385 . S
Cd25 O26 2.317 . S
O26 Cd25 2.317 . S
O26 C27 1.232 . S
C27 O26 1.232 . S
C27 O28 1.218 . S
O28 C27 1.218 . S
C29 O22 1.275 . S
C29 O24 1.255 1_545 S
C30 O31 1.258 . S
C30 O32 1.256 1_545 S
O31 Cd23 2.381 1_545 S
O31 C30 1.258 . S
O32 Cd23 2.378 . S
O32 C30 1.256 1_565 S
O33 Cd34 2.300 1_545 S
O33 C40 1.275 . S
Cd34 O33 2.300 1_565 S
Cd34 O42 2.381 1_565 S
Cd34 O43 2.378 . S
O35 Cd36 2.385 . S
O35 C40 1.255 1_565 S
Cd36 O35 2.385 . S
Cd36 O37 2.317 . S
O37 Cd36 2.317 . S
O37 C38 1.232 . S
C38 O37 1.232 . S
C38 O39 1.218 . S
O39 C38 1.218 . S
C40 O33 1.275 . S
C40 O35 1.255 1_545 S
C41 O42 1.258 . S
C41 O43 1.256 1_545 S
O42 Cd34 2.381 1_545 S
O42 C41 1.258 . S
O43 Cd34 2.378 . S
O43 C41 1.256 1_565 S
O44 Cd45 2.300 1_655 S
O44 C51 1.275 . S
Cd45 O44 2.300 1_455 S
Cd45 O53 2.381 1_455 S
Cd45 O54 2.378 . S
O46 Cd47 2.385 . S
O46 C51 1.255 1_455 S
Cd47 O46 2.385 . S
Cd47 O48 2.317 . S
O48 Cd47 2.317 . S
O48 C49 1.232 . S
C49 O48 1.232 . S
C49 O50 1.218 . S
O50 C49 1.218 . S
C51 O44 1.275 . S
C51 O46 1.255 1_655 S
C52 O53 1.258 . S
C52 O54 1.256 1_655 S
O53 Cd45 2.381 1_655 S
O53 C52 1.258 . S
O54 Cd45 2.378 . S
O54 C52 1.256 1_455 S
O55 Cd56 2.300 . S
O55 C62 1.275 . S
Cd56 O55 2.300 . S
Cd56 O64 2.381 . S
Cd56 O65 2.378 . S
O57 Cd58 2.385 . S
O57 C62 1.255 . S
Cd58 O57 2.385 . S
Cd58 O59 2.317 . S
O59 Cd58 2.317 . S
O59 C60 1.232 . S
C60 O59 1.232 . S
C60 O61 1.218 . S
O61 C60 1.218 . S
C62 O55 1.275 . S
C62 O57 1.255 . S
C63 O64 1.258 . S
C63 O65 1.256 . S
O64 Cd56 2.381 . S
O64 C63 1.258 . S
O65 Cd56 2.378 . S
O65 C63 1.256 . S
O66 Cd67 2.300 . S
O66 C73 1.275 . S
Cd67 O66 2.300 . S
Cd67 O75 2.381 . S
Cd67 O76 2.378 . S
O68 Cd69 2.385 . S
O68 C73 1.255 . S
Cd69 O68 2.385 . S
Cd69 O70 2.317 1_455 S
O70 Cd69 2.317 1_655 S
O70 C71 1.232 . S
C71 O70 1.232 . S
C71 O72 1.218 . S
O72 C71 1.218 . S
C73 O66 1.275 . S
C73 O68 1.255 . S
C74 O75 1.258 . S
C74 O76 1.256 . S
O75 Cd67 2.381 . S
O75 C74 1.258 . S
O76 Cd67 2.378 . S
O76 C74 1.256 . S
O77 Cd78 2.300 . S
O77 C84 1.275 . S
Cd78 O77 2.300 . S
Cd78 O86 2.381 . S
Cd78 O87 2.378 . S
O79 Cd80 2.385 . S
O79 C84 1.255 . S
Cd80 O79 2.385 . S
Cd80 O81 2.317 . S
O81 Cd80 2.317 . S
O81 C82 1.232 . S
C82 O81 1.232 . S
C82 O83 1.218 . S
O83 C82 1.218 . S
C84 O77 1.275 . S
C84 O79 1.255 . S
C85 O86 1.258 . S
C85 O87 1.256 . S
O86 Cd78 2.381 . S
O86 C85 1.258 . S
O87 Cd78 2.378 . S
O87 C85 1.256 . S
O88 Cd89 2.300 . S
O88 C95 1.275 . S
Cd89 O88 2.300 . S
Cd89 O97 2.381 . S
Cd89 O98 2.378 . S
O90 Cd91 2.385 . S
O90 C95 1.255 . S
Cd91 O90 2.385 . S
Cd91 O92 2.317 1_565 S
O92 Cd91 2.317 1_545 S
O92 C93 1.232 . S
C93 O92 1.232 . S
C93 O94 1.218 . S
O94 C93 1.218 . S
C95 O88 1.275 . S
C95 O90 1.255 . S
C96 O97 1.258 . S
C96 O98 1.256 . S
O97 Cd89 2.381 . S
O97 C96 1.258 . S
O98 Cd89 2.378 . S
O98 C96 1.256 . S
O99 Cd100 2.300 . S
O99 C106 1.275 . S
Cd100 O99 2.300 . S
Cd100 O108 2.381 . S
Cd100 O109 2.378 . S
O101 Cd102 2.385 . S
O101 C106 1.255 . S
Cd102 O101 2.385 . S
Cd102 O103 2.317 1_565 S
O103 Cd102 2.317 1_545 S
O103 C104 1.232 . S
C104 O103 1.232 . S
C104 O105 1.218 . S
O105 C104 1.218 . S
C106 O99 1.275 . S
C106 O101 1.255 . S
C107 O108 1.258 . S
C107 O109 1.256 . S
O108 Cd100 2.381 . S
O108 C107 1.258 . S
O109 Cd100 2.378 . S
O109 C107 1.256 . S
O110 Cd111 2.300 . S
O110 C117 1.275 . S
Cd111 O110 2.300 . S
Cd111 O119 2.381 . S
Cd111 O120 2.378 . S
O112 Cd113 2.385 . S
O112 C117 1.255 . S
Cd113 O112 2.385 . S
Cd113 O114 2.317 1_455 S
O114 Cd113 2.317 1_655 S
O114 C115 1.232 . S
C115 O114 1.232 . S
C115 O116 1.218 . S
O116 C115 1.218 . S
C117 O110 1.275 . S
C117 O112 1.255 . S
C118 O119 1.258 . S
C118 O120 1.256 . S
O119 Cd111 2.381 . S
O119 C118 1.258 . S
O120 Cd111 2.378 . S
O120 C118 1.256 . S
O121 Cd122 2.300 . S
O121 C128 1.275 . S
Cd122 O121 2.300 . S
Cd122 O130 2.381 . S
Cd122 O131 2.378 . S
O123 Cd124 2.385 . S
O123 C128 1.255 . S
Cd124 O123 2.385 . S
Cd124 O125 2.317 . S
O125 Cd124 2.317 . S
O125 C126 1.232 . S
C126 O125 1.232 . S
C126 O127 1.218 . S
O127 C126 1.218 . S
C128 O121 1.275 . S
C128 O123 1.255 . S
C129 O130 1.258 . S
C129 O131 1.256 . S
O130 Cd122 2.381 . S
O130 C129 1.258 . S
O131 Cd122 2.378 . S
O131 C129 1.256 . S
H132 C133 0.951 . S
C133 H132 0.951 . S
C133 C139 1.265 . S
H134 C139 0.950 . S
H135 C143 0.949 . S
H136 C144 0.950 . S
H137 C145 0.951 . S
H138 C146 0.951 . S
C139 C133 1.265 . S
C139 H134 0.950 . S
C139 C140 1.478 . S
C140 C139 1.478 . S
C140 C141 1.397 . S
C140 C157 1.394 . S
C141 C140 1.397 . S
C141 C142 1.438 . S
C141 C146 1.429 . S
C142 C141 1.438 . S
C142 C143 1.428 . S
C142 C155 1.394 . S
C143 H135 0.949 . S
C143 C142 1.428 . S
C143 C144 1.345 . S
C144 H136 0.950 . S
C144 C143 1.345 . S
C144 C145 1.424 . S
C145 H137 0.951 . S
C145 C144 1.424 . S
C145 C146 1.347 . S
C146 H138 0.951 . S
C146 C141 1.429 . S
C146 C145 1.347 . S
H147 C148 0.951 . S
C148 H147 0.951 . S
C148 C154 1.265 . S
H149 C154 0.950 . S
H150 C158 0.949 . S
H151 C159 0.950 . S
H152 C160 0.951 . S
H153 C161 0.951 . S
C154 C148 1.265 . S
C154 H149 0.950 . S
C154 C155 1.478 . S
C155 C142 1.394 . S
C155 C154 1.478 . S
C155 C156 1.397 . S
C156 C155 1.397 . S
C156 C157 1.438 . S
C156 C161 1.429 . S
C157 C140 1.394 . S
C157 C156 1.438 . S
C157 C158 1.428 . S
C158 H150 0.949 . S
C158 C157 1.428 . S
C158 C159 1.345 . S
C159 H151 0.950 . S
C159 C158 1.345 . S
C159 C160 1.424 . S
C160 H152 0.951 . S
C160 C159 1.424 . S
C160 C161 1.347 . S
C161 H153 0.951 . S
C161 C156 1.429 . S
C161 C160 1.347 . S
H162 C163 0.951 . S
C163 H162 0.951 . S
C163 C169 1.265 . S
H164 C169 0.950 . S
H165 C173 0.949 . S
H166 C174 0.950 . S
H167 C175 0.951 . S
H168 C176 0.951 . S
C169 C163 1.265 . S
C169 H164 0.950 . S
C169 C170 1.478 . S
C170 C169 1.478 . S
C170 C171 1.397 . S
C170 C187 1.394 . S
C171 C170 1.397 . S
C171 C172 1.438 . S
C171 C176 1.429 . S
C172 C171 1.438 . S
C172 C173 1.428 . S
C172 C185 1.394 . S
C173 H165 0.949 . S
C173 C172 1.428 . S
C173 C174 1.345 . S
C174 H166 0.950 . S
C174 C173 1.345 . S
C174 C175 1.424 . S
C175 H167 0.951 . S
C175 C174 1.424 . S
C175 C176 1.347 . S
C176 H168 0.951 . S
C176 C171 1.429 . S
C176 C175 1.347 . S
H177 C178 0.951 . S
C178 H177 0.951 . S
C178 C184 1.265 . S
H179 C184 0.950 . S
H180 C188 0.949 . S
H181 C189 0.950 . S
H182 C190 0.951 . S
H183 C191 0.951 . S
C184 C178 1.265 . S
C184 H179 0.950 . S
C184 C185 1.478 . S
C185 C172 1.394 . S
C185 C184 1.478 . S
C185 C186 1.397 . S
C186 C185 1.397 . S
C186 C187 1.438 . S
C186 C191 1.429 . S
C187 C170 1.394 . S
C187 C186 1.438 . S
C187 C188 1.428 . S
C188 H180 0.949 . S
C188 C187 1.428 . S
C188 C189 1.345 . S
C189 H181 0.950 . S
C189 C188 1.345 . S
C189 C190 1.424 . S
C190 H182 0.951 . S
C190 C189 1.424 . S
C190 C191 1.347 . S
C191 H183 0.951 . S
C191 C186 1.429 . S
C191 C190 1.347 . S
H192 C193 0.951 . S
C193 H192 0.951 . S
C193 C199 1.265 . S
H194 C199 0.950 . S
H195 C203 0.949 . S
H196 C204 0.950 . S
H197 C205 0.951 . S
H198 C206 0.951 . S
C199 C193 1.265 . S
C199 H194 0.950 . S
C199 C200 1.478 . S
C200 C199 1.478 . S
C200 C201 1.397 . S
C200 C217 1.394 . S
C201 C200 1.397 . S
C201 C202 1.438 . S
C201 C206 1.429 . S
C202 C201 1.438 . S
C202 C203 1.428 . S
C202 C215 1.394 . S
C203 H195 0.949 . S
C203 C202 1.428 . S
C203 C204 1.345 . S
C204 H196 0.950 . S
C204 C203 1.345 . S
C204 C205 1.424 . S
C205 H197 0.951 . S
C205 C204 1.424 . S
C205 C206 1.347 . S
C206 H198 0.951 . S
C206 C201 1.429 . S
C206 C205 1.347 . S
H207 C208 0.951 . S
C208 H207 0.951 . S
C208 C214 1.265 . S
H209 C214 0.950 . S
H210 C218 0.949 . S
H211 C219 0.950 . S
H212 C220 0.951 . S
H213 C221 0.951 . S
C214 C208 1.265 . S
C214 H209 0.950 . S
C214 C215 1.478 . S
C215 C202 1.394 . S
C215 C214 1.478 . S
C215 C216 1.397 . S
C216 C215 1.397 . S
C216 C217 1.438 . S
C216 C221 1.429 . S
C217 C200 1.394 . S
C217 C216 1.438 . S
C217 C218 1.428 . S
C218 H210 0.949 . S
C218 C217 1.428 . S
C218 C219 1.345 . S
C219 H211 0.950 . S
C219 C218 1.345 . S
C219 C220 1.424 . S
C220 H212 0.951 . S
C220 C219 1.424 . S
C220 C221 1.347 . S
C221 H213 0.951 . S
C221 C216 1.429 . S
C221 C220 1.347 . S
H222 C223 0.951 . S
C223 H222 0.951 . S
C223 C229 1.265 . S
H224 C229 0.950 . S
H225 C233 0.949 . S
H226 C234 0.950 . S
H227 C235 0.951 . S
H228 C236 0.951 . S
C229 C223 1.265 . S
C229 H224 0.950 . S
C229 C230 1.478 . S
C230 C229 1.478 . S
C230 C231 1.397 . S
C230 C247 1.394 . S
C231 C230 1.397 . S
C231 C232 1.438 . S
C231 C236 1.429 . S
C232 C231 1.438 . S
C232 C233 1.428 . S
C232 C245 1.394 . S
C233 H225 0.949 . S
C233 C232 1.428 . S
C233 C234 1.345 . S
C234 H226 0.950 . S
C234 C233 1.345 . S
C234 C235 1.424 . S
C235 H227 0.951 . S
C235 C234 1.424 . S
C235 C236 1.347 . S
C236 H228 0.951 . S
C236 C231 1.429 . S
C236 C235 1.347 . S
H237 C238 0.951 . S
C238 H237 0.951 . S
C238 C244 1.265 . S
H239 C244 0.950 . S
H240 C248 0.949 . S
H241 C249 0.950 . S
H242 C250 0.951 . S
H243 C251 0.951 . S
C244 C238 1.265 . S
C244 H239 0.950 . S
C244 C245 1.478 . S
C245 C232 1.394 . S
C245 C244 1.478 . S
C245 C246 1.397 . S
C246 C245 1.397 . S
C246 C247 1.438 . S
C246 C251 1.429 . S
C247 C230 1.394 . S
C247 C246 1.438 . S
C247 C248 1.428 . S
C248 H240 0.949 . S
C248 C247 1.428 . S
C248 C249 1.345 . S
C249 H241 0.950 . S
C249 C248 1.345 . S
C249 C250 1.424 . S
C250 H242 0.951 . S
C250 C249 1.424 . S
C250 C251 1.347 . S
C251 H243 0.951 . S
C251 C246 1.429 . S
C251 C250 1.347 . S
H252 C253 0.951 . S
C253 H252 0.951 . S
C253 C259 1.265 . S
H254 C259 0.950 . S
H255 C263 0.949 . S
H256 C264 0.950 . S
H257 C265 0.951 . S
H258 C266 0.951 . S
C259 C253 1.265 . S
C259 H254 0.950 . S
C259 C260 1.478 . S
C260 C259 1.478 . S
C260 C261 1.397 . S
C260 C277 1.394 . S
C261 C260 1.397 . S
C261 C262 1.438 . S
C261 C266 1.429 . S
C262 C261 1.438 . S
C262 C263 1.428 . S
C262 C275 1.394 . S
C263 H255 0.949 . S
C263 C262 1.428 . S
C263 C264 1.345 . S
C264 H256 0.950 . S
C264 C263 1.345 . S
C264 C265 1.424 . S
C265 H257 0.951 . S
C265 C264 1.424 . S
C265 C266 1.347 . S
C266 H258 0.951 . S
C266 C261 1.429 . S
C266 C265 1.347 . S
H267 C268 0.951 . S
C268 H267 0.951 . S
C268 C274 1.265 . S
H269 C274 0.950 . S
H270 C278 0.949 . S
H271 C279 0.950 . S
H272 C280 0.951 . S
H273 C281 0.951 . S
C274 C268 1.265 . S
C274 H269 0.950 . S
C274 C275 1.478 . S
C275 C262 1.394 . S
C275 C274 1.478 . S
C275 C276 1.397 . S
C276 C275 1.397 . S
C276 C277 1.438 . S
C276 C281 1.429 . S
C277 C260 1.394 . S
C277 C276 1.438 . S
C277 C278 1.428 . S
C278 H270 0.949 . S
C278 C277 1.428 . S
C278 C279 1.345 . S
C279 H271 0.950 . S
C279 C278 1.345 . S
C279 C280 1.424 . S
C280 H272 0.951 . S
C280 C279 1.424 . S
C280 C281 1.347 . S
C281 H273 0.951 . S
C281 C276 1.429 . S
C281 C280 1.347 . S
H282 C283 0.951 . S
C283 H282 0.951 . S
C283 C289 1.265 . S
H284 C289 0.950 . S
H285 C293 0.949 . S
H286 C294 0.950 . S
H287 C295 0.951 . S
H288 C296 0.951 . S
C289 C283 1.265 . S
C289 H284 0.950 . S
C289 C290 1.478 . S
C290 C289 1.478 . S
C290 C291 1.397 . S
C290 C307 1.394 . S
C291 C290 1.397 . S
C291 C292 1.438 . S
C291 C296 1.429 . S
C292 C291 1.438 . S
C292 C293 1.428 . S
C292 C305 1.394 . S
C293 H285 0.949 . S
C293 C292 1.428 . S
C293 C294 1.345 . S
C294 H286 0.950 . S
C294 C293 1.345 . S
C294 C295 1.424 . S
C295 H287 0.951 . S
C295 C294 1.424 . S
C295 C296 1.347 . S
C296 H288 0.951 . S
C296 C291 1.429 . S
C296 C295 1.347 . S
H297 C298 0.951 . S
C298 H297 0.951 . S
C298 C304 1.265 . S
H299 C304 0.950 . S
H300 C308 0.949 . S
H301 C309 0.950 . S
H302 C310 0.951 . S
H303 C311 0.951 . S
C304 C298 1.265 . S
C304 H299 0.950 . S
C304 C305 1.478 . S
C305 C292 1.394 . S
C305 C304 1.478 . S
C305 C306 1.397 . S
C306 C305 1.397 . S
C306 C307 1.438 . S
C306 C311 1.429 . S
C307 C290 1.394 . S
C307 C306 1.438 . S
C307 C308 1.428 . S
C308 H300 0.949 . S
C308 C307 1.428 . S
C308 C309 1.345 . S
C309 H301 0.950 . S
C309 C308 1.345 . S
C309 C310 1.424 . S
C310 H302 0.951 . S
C310 C309 1.424 . S
C310 C311 1.347 . S
C311 H303 0.951 . S
C311 C306 1.429 . S
C311 C310 1.347 . S
H312 C313 0.951 . S
C313 H312 0.951 . S
C313 C319 1.265 1_655 S
H314 C319 0.950 . S
H315 C323 0.949 . S
H316 C324 0.950 . S
H317 C325 0.951 . S
H318 C326 0.951 1_554 S
C319 C313 1.265 1_455 S
C319 H314 0.950 . S
C319 C320 1.478 . S
C320 C319 1.478 . S
C320 C321 1.397 1_554 S
C320 C337 1.394 1_455 S
C321 C320 1.397 1_556 S
C321 C322 1.438 . S
C321 C326 1.429 . S
C322 C321 1.438 . S
C322 C323 1.428 . S
C322 C335 1.394 1_455 S
C323 H315 0.949 . S
C323 C322 1.428 . S
C323 C324 1.345 . S
C324 H316 0.950 . S
C324 C323 1.345 . S
C324 C325 1.424 . S
C325 H317 0.951 . S
C325 C324 1.424 . S
C325 C326 1.347 . S
C326 H318 0.951 1_556 S
C326 C321 1.429 . S
C326 C325 1.347 . S
H327 C328 0.951 . S
C328 H327 0.951 . S
C328 C334 1.265 1_455 S
H329 C334 0.950 . S
H330 C338 0.949 . S
H331 C339 0.950 . S
H332 C340 0.951 . S
H333 C341 0.951 1_556 S
C334 C328 1.265 1_655 S
C334 H329 0.950 . S
C334 C335 1.478 . S
C335 C322 1.394 1_655 S
C335 C334 1.478 . S
C335 C336 1.397 1_556 S
C336 C335 1.397 1_554 S
C336 C337 1.438 . S
C336 C341 1.429 . S
C337 C320 1.394 1_655 S
C337 C336 1.438 . S
C337 C338 1.428 . S
C338 H330 0.949 . S
C338 C337 1.428 . S
C338 C339 1.345 . S
C339 H331 0.950 . S
C339 C338 1.345 . S
C339 C340 1.424 . S
C340 H332 0.951 . S
C340 C339 1.424 . S
C340 C341 1.347 . S
C341 H333 0.951 1_554 S
C341 C336 1.429 . S
C341 C340 1.347 . S
H342 C343 0.951 . S
C343 H342 0.951 . S
C343 C349 1.265 . S
H344 C349 0.950 . S
H345 C353 0.949 . S
H346 C354 0.950 1_554 S
H347 C355 0.951 . S
H348 C356 0.951 . S
C349 C343 1.265 . S
C349 H344 0.950 . S
C349 C350 1.478 . S
C350 C349 1.478 . S
C350 C351 1.397 . S
C350 C367 1.394 . S
C351 C350 1.397 . S
C351 C352 1.438 1_556 S
C351 C356 1.429 . S
C352 C351 1.438 1_554 S
C352 C353 1.428 . S
C352 C365 1.394 . S
C353 H345 0.949 . S
C353 C352 1.428 . S
C353 C354 1.345 1_554 S
C354 H346 0.950 1_556 S
C354 C353 1.345 1_556 S
C354 C355 1.424 . S
C355 H347 0.951 . S
C355 C354 1.424 . S
C355 C356 1.347 . S
C356 H348 0.951 . S
C356 C351 1.429 . S
C356 C355 1.347 . S
H357 C358 0.951 . S
C358 H357 0.951 . S
C358 C364 1.265 . S
H359 C364 0.950 . S
H360 C368 0.949 . S
H361 C369 0.950 1_556 S
H362 C370 0.951 . S
H363 C371 0.951 . S
C364 C358 1.265 . S
C364 H359 0.950 . S
C364 C365 1.478 . S
C365 C352 1.394 . S
C365 C364 1.478 . S
C365 C366 1.397 . S
C366 C365 1.397 . S
C366 C367 1.438 1_554 S
C366 C371 1.429 . S
C367 C350 1.394 . S
C367 C366 1.438 1_556 S
C367 C368 1.428 . S
C368 H360 0.949 . S
C368 C367 1.428 . S
C368 C369 1.345 1_556 S
C369 H361 0.950 1_554 S
C369 C368 1.345 1_554 S
C369 C370 1.424 . S
C370 H362 0.951 . S
C370 C369 1.424 . S
C370 C371 1.347 . S
C371 H363 0.951 . S
C371 C366 1.429 . S
C371 C370 1.347 . S
H372 C373 0.951 . S
C373 H372 0.951 . S
C373 C379 1.265 . S
H374 C379 0.950 . S
H375 C383 0.949 . S
H376 C384 0.950 . S
H377 C385 0.951 . S
H378 C386 0.951 1_554 S
C379 C373 1.265 . S
C379 H374 0.950 . S
C379 C380 1.478 . S
C380 C379 1.478 . S
C380 C381 1.397 1_554 S
C380 C397 1.394 1_545 S
C381 C380 1.397 1_556 S
C381 C382 1.438 . S
C381 C386 1.429 . S
C382 C381 1.438 . S
C382 C383 1.428 . S
C382 C395 1.394 1_545 S
C383 H375 0.949 . S
C383 C382 1.428 . S
C383 C384 1.345 . S
C384 H376 0.950 . S
C384 C383 1.345 . S
C384 C385 1.424 . S
C385 H377 0.951 . S
C385 C384 1.424 . S
C385 C386 1.347 . S
C386 H378 0.951 1_556 S
C386 C381 1.429 . S
C386 C385 1.347 . S
H387 C388 0.951 . S
C388 H387 0.951 . S
C388 C394 1.265 . S
H389 C394 0.950 . S
H390 C398 0.949 . S
H391 C399 0.950 . S
H392 C400 0.951 . S
H393 C401 0.951 1_556 S
C394 C388 1.265 . S
C394 H389 0.950 . S
C394 C395 1.478 . S
C395 C382 1.394 1_565 S
C395 C394 1.478 . S
C395 C396 1.397 1_556 S
C396 C395 1.397 1_554 S
C396 C397 1.438 . S
C396 C401 1.429 . S
C397 C380 1.394 1_565 S
C397 C396 1.438 . S
C397 C398 1.428 . S
C398 H390 0.949 . S
C398 C397 1.428 . S
C398 C399 1.345 . S
C399 H391 0.950 . S
C399 C398 1.345 . S
C399 C400 1.424 . S
C400 H392 0.951 . S
C400 C399 1.424 . S
C400 C401 1.347 . S
C401 H393 0.951 1_554 S
C401 C396 1.429 . S
C401 C400 1.347 . S
H402 C403 0.951 1_545 S
C403 H402 0.951 1_565 S
C403 C409 1.265 . S
H404 C409 0.950 . S
H405 C413 0.949 . S
H406 C414 0.950 . S
H407 C415 0.951 . S
H408 C416 0.951 . S
C409 C403 1.265 . S
C409 H404 0.950 . S
C409 C410 1.478 . S
C410 C409 1.478 . S
C410 C411 1.397 . S
C410 C427 1.394 1_565 S
C411 C410 1.397 . S
C411 C412 1.438 . S
C411 C416 1.429 . S
C412 C411 1.438 . S
C412 C413 1.428 . S
C412 C425 1.394 1_565 S
C413 H405 0.949 . S
C413 C412 1.428 . S
C413 C414 1.345 . S
C414 H406 0.950 . S
C414 C413 1.345 . S
C414 C415 1.424 . S
C415 H407 0.951 . S
C415 C414 1.424 . S
C415 C416 1.347 . S
C416 H408 0.951 . S
C416 C411 1.429 . S
C416 C415 1.347 . S
H417 C418 0.951 1_565 S
C418 H417 0.951 1_545 S
C418 C424 1.265 . S
H419 C424 0.950 . S
H420 C428 0.949 . S
H421 C429 0.950 . S
H422 C430 0.951 . S
H423 C431 0.951 . S
C424 C418 1.265 . S
C424 H419 0.950 . S
C424 C425 1.478 . S
C425 C412 1.394 1_545 S
C425 C424 1.478 . S
C425 C426 1.397 . S
C426 C425 1.397 . S
C426 C427 1.438 . S
C426 C431 1.429 . S
C427 C410 1.394 1_545 S
C427 C426 1.438 . S
C427 C428 1.428 . S
C428 H420 0.949 . S
C428 C427 1.428 . S
C428 C429 1.345 . S
C429 H421 0.950 . S
C429 C428 1.345 . S
C429 C430 1.424 . S
C430 H422 0.951 . S
C430 C429 1.424 . S
C430 C431 1.347 . S
C431 H423 0.951 . S
C431 C426 1.429 . S
C431 C430 1.347 . S
H432 C433 0.951 . S
C433 H432 0.951 . S
C433 C439 1.265 . S
H434 C439 0.950 . S
H435 C443 0.949 . S
H436 C444 0.950 . S
H437 C445 0.951 . S
H438 C446 0.951 . S
C439 C433 1.265 . S
C439 H434 0.950 . S
C439 C440 1.478 . S
C440 C439 1.478 . S
C440 C441 1.397 . S
C440 C457 1.394 1_455 S
C441 C440 1.397 . S
C441 C442 1.438 . S
C441 C446 1.429 . S
C442 C441 1.438 . S
C442 C443 1.428 . S
C442 C455 1.394 1_455 S
C443 H435 0.949 . S
C443 C442 1.428 . S
C443 C444 1.345 . S
C444 H436 0.950 . S
C444 C443 1.345 . S
C444 C445 1.424 . S
C445 H437 0.951 . S
C445 C444 1.424 . S
C445 C446 1.347 . S
C446 H438 0.951 . S
C446 C441 1.429 . S
C446 C445 1.347 . S
H447 C448 0.951 . S
C448 H447 0.951 . S
C448 C454 1.265 . S
H449 C454 0.950 . S
H450 C458 0.949 . S
H451 C459 0.950 . S
H452 C460 0.951 . S
H453 C461 0.951 . S
C454 C448 1.265 . S
C454 H449 0.950 . S
C454 C455 1.478 . S
C455 C442 1.394 1_655 S
C455 C454 1.478 . S
C455 C456 1.397 . S
C456 C455 1.397 . S
C456 C457 1.438 . S
C456 C461 1.429 . S
C457 C440 1.394 1_655 S
C457 C456 1.438 . S
C457 C458 1.428 . S
C458 H450 0.949 . S
C458 C457 1.428 . S
C458 C459 1.345 . S
C459 H451 0.950 . S
C459 C458 1.345 . S
C459 C460 1.424 . S
C460 H452 0.951 . S
C460 C459 1.424 . S
C460 C461 1.347 . S
C461 H453 0.951 . S
C461 C456 1.429 . S
C461 C460 1.347 . S
H462 C463 0.951 . S
C463 H462 0.951 . S
C463 C469 1.265 . S
H464 C469 0.950 . S
H465 C473 0.949 . S
H466 C474 0.950 . S
H467 C475 0.951 . S
H468 C476 0.951 . S
C469 C463 1.265 . S
C469 H464 0.950 . S
C469 C470 1.478 . S
C470 C469 1.478 . S
C470 C471 1.397 . S
C470 C487 1.394 . S
C471 C470 1.397 . S
C471 C472 1.438 . S
C471 C476 1.429 . S
C472 C471 1.438 . S
C472 C473 1.428 . S
C472 C485 1.394 . S
C473 H465 0.949 . S
C473 C472 1.428 . S
C473 C474 1.345 . S
C474 H466 0.950 . S
C474 C473 1.345 . S
C474 C475 1.424 . S
C475 H467 0.951 . S
C475 C474 1.424 . S
C475 C476 1.347 . S
C476 H468 0.951 . S
C476 C471 1.429 . S
C476 C475 1.347 . S
H477 C478 0.951 . S
C478 H477 0.951 . S
C478 C484 1.265 . S
H479 C484 0.950 . S
H480 C488 0.949 . S
H481 C489 0.950 . S
H482 C490 0.951 . S
H483 C491 0.951 . S
C484 C478 1.265 . S
C484 H479 0.950 . S
C484 C485 1.478 . S
C485 C472 1.394 . S
C485 C484 1.478 . S
C485 C486 1.397 . S
C486 C485 1.397 . S
C486 C487 1.438 . S
C486 C491 1.429 . S
C487 C470 1.394 . S
C487 C486 1.438 . S
C487 C488 1.428 . S
C488 H480 0.949 . S
C488 C487 1.428 . S
C488 C489 1.345 . S
C489 H481 0.950 . S
C489 C488 1.345 . S
C489 C490 1.424 . S
C490 H482 0.951 . S
C490 C489 1.424 . S
C490 C491 1.347 . S
C491 H483 0.951 . S
C491 C486 1.429 . S
C491 C490 1.347 . S
H492 C493 0.951 . S
C493 H492 0.951 . S
C493 C499 1.289 . S
H494 C499 0.928 1_455 S
H495 C503 0.949 . S
H496 C504 0.950 . S
H497 C505 0.951 . S
H498 C506 0.951 . S
C499 C493 1.289 . S
C499 H494 0.928 1_655 S
C499 C500 1.475 . S
C500 C499 1.475 . S
C500 C501 1.397 . S
C500 C517 1.394 . S
C501 C500 1.397 . S
C501 C502 1.438 . S
C501 C506 1.429 . S
C502 C501 1.438 . S
C502 C503 1.428 . S
C502 C515 1.394 . S
C503 H495 0.949 . S
C503 C502 1.428 . S
C503 C504 1.345 . S
C504 H496 0.950 . S
C504 C503 1.345 . S
C504 C505 1.424 . S
C505 H497 0.951 . S
C505 C504 1.424 . S
C505 C506 1.347 . S
C506 H498 0.951 . S
C506 C501 1.429 . S
C506 C505 1.347 . S
H507 C508 0.951 1_455 S
C508 H507 0.951 1_655 S
C508 C514 1.265 . S
H509 C514 0.950 . S
H510 C518 0.949 . S
H511 C519 0.950 . S
H512 C520 0.951 . S
H513 C521 0.951 . S
C514 C508 1.265 . S
C514 H509 0.950 . S
C514 C515 1.478 . S
C515 C502 1.394 . S
C515 C514 1.478 . S
C515 C516 1.397 . S
C516 C515 1.397 . S
C516 C517 1.438 . S
C516 C521 1.429 . S
C517 C500 1.394 . S
C517 C516 1.438 . S
C517 C518 1.428 . S
C518 H510 0.949 . S
C518 C517 1.428 . S
C518 C519 1.345 . S
C519 H511 0.950 . S
C519 C518 1.345 . S
C519 C520 1.424 . S
C520 H512 0.951 . S
C520 C519 1.424 . S
C520 C521 1.347 . S
C521 H513 0.951 . S
C521 C516 1.429 . S
C521 C520 1.347 . S
H522 C523 0.951 . S
C523 H522 0.951 . S
C523 C529 1.265 . S
H524 C529 0.950 . S
H525 C533 0.949 . S
H526 C534 0.950 . S
H527 C535 0.951 . S
H528 C536 0.951 . S
C529 C523 1.265 . S
C529 H524 0.950 . S
C529 C530 1.478 . S
C530 C529 1.478 . S
C530 C531 1.397 . S
C530 C547 1.394 . S
C531 C530 1.397 . S
C531 C532 1.438 . S
C531 C536 1.429 . S
C532 C531 1.438 . S
C532 C533 1.428 . S
C532 C545 1.394 . S
C533 H525 0.949 . S
C533 C532 1.428 . S
C533 C534 1.345 . S
C534 H526 0.950 . S
C534 C533 1.345 . S
C534 C535 1.424 . S
C535 H527 0.951 . S
C535 C534 1.424 . S
C535 C536 1.347 . S
C536 H528 0.951 . S
C536 C531 1.429 . S
C536 C535 1.347 . S
H537 C538 0.951 . S
C538 H537 0.951 . S
C538 C544 1.265 . S
H539 C544 0.950 . S
H540 C548 0.949 . S
H541 C549 0.950 . S
H542 C550 0.951 . S
H543 C551 0.951 . S
C544 C538 1.265 . S
C544 H539 0.950 . S
C544 C545 1.478 . S
C545 C532 1.394 . S
C545 C544 1.478 . S
C545 C546 1.397 . S
C546 C545 1.397 . S
C546 C547 1.438 . S
C546 C551 1.429 . S
C547 C530 1.394 . S
C547 C546 1.438 . S
C547 C548 1.428 . S
C548 H540 0.949 . S
C548 C547 1.428 . S
C548 C549 1.345 . S
C549 H541 0.950 . S
C549 C548 1.345 . S
C549 C550 1.424 . S
C550 H542 0.951 . S
C550 C549 1.424 . S
C550 C551 1.347 . S
C551 H543 0.951 . S
C551 C546 1.429 . S
C551 C550 1.347 . S
H552 C553 0.951 . S
C553 H552 0.951 . S
C553 C559 1.265 . S
H554 C559 0.950 . S
H555 C563 0.949 . S
H556 C564 0.950 . S
H557 C565 0.951 . S
H558 C566 0.951 . S
C559 C553 1.265 . S
C559 H554 0.950 . S
C559 C560 1.478 . S
C560 C559 1.478 . S
C560 C561 1.397 1_545 S
C560 C577 1.394 . S
C561 C560 1.397 1_565 S
C561 C562 1.438 . S
C561 C566 1.429 . S
C562 C561 1.438 . S
C562 C563 1.428 . S
C562 C575 1.394 1_565 S
C563 H555 0.949 . S
C563 C562 1.428 . S
C563 C564 1.345 . S
C564 H556 0.950 . S
C564 C563 1.345 . S
C564 C565 1.424 . S
C565 H557 0.951 . S
C565 C564 1.424 . S
C565 C566 1.347 . S
C566 H558 0.951 . S
C566 C561 1.429 . S
C566 C565 1.347 . S
H567 C568 0.951 . S
C568 H567 0.951 . S
C568 C574 1.265 . S
H569 C574 0.950 . S
H570 C578 0.949 . S
H571 C579 0.950 . S
H572 C580 0.951 . S
H573 C581 0.951 . S
C574 C568 1.265 . S
C574 H569 0.950 . S
C574 C575 1.478 . S
C575 C562 1.394 1_545 S
C575 C574 1.478 . S
C575 C576 1.397 . S
C576 C575 1.397 . S
C576 C577 1.438 . S
C576 C581 1.429 . S
C577 C560 1.394 . S
C577 C576 1.438 . S
C577 C578 1.428 . S
C578 H570 0.949 . S
C578 C577 1.428 . S
C578 C579 1.345 . S
C579 H571 0.950 . S
C579 C578 1.345 . S
C579 C580 1.424 . S
C580 H572 0.951 . S
C580 C579 1.424 . S
C580 C581 1.347 . S
C581 H573 0.951 . S
C581 C576 1.429 . S
C581 C580 1.347 . S
H582 C583 0.951 1_655 S
C583 H582 0.951 1_455 S
C583 C589 1.265 . S
H584 C589 0.950 . S
H585 C593 0.949 . S
H586 C594 0.950 . S
H587 C595 0.951 . S
H588 C596 0.951 . S
C589 C583 1.265 . S
C589 H584 0.950 . S
C589 C590 1.478 . S
C590 C589 1.478 . S
C590 C591 1.397 . S
C590 C607 1.394 . S
C591 C590 1.397 . S
C591 C592 1.438 . S
C591 C596 1.429 . S
C592 C591 1.438 . S
C592 C593 1.428 . S
C592 C605 1.394 . S
C593 H585 0.949 . S
C593 C592 1.428 . S
C593 C594 1.345 . S
C594 H586 0.950 . S
C594 C593 1.345 . S
C594 C595 1.424 . S
C595 H587 0.951 . S
C595 C594 1.424 . S
C595 C596 1.347 . S
C596 H588 0.951 . S
C596 C591 1.429 . S
C596 C595 1.347 . S
H597 C598 0.951 . S
C598 H597 0.951 . S
C598 C604 1.242 1_455 S
H599 C604 0.971 . S
H600 C608 0.949 . S
H601 C609 0.963 . S
H602 C610 0.951 . S
H603 C611 0.951 . S
C604 C598 1.242 1_655 S
C604 H599 0.971 . S
C604 C605 1.482 1_655 S
C605 C592 1.394 . S
C605 C604 1.482 1_455 S
C605 C606 1.397 . S
C606 C605 1.397 . S
C606 C607 1.438 . S
C606 C611 1.429 1_455 S
C607 C590 1.394 . S
C607 C606 1.438 . S
C607 C608 1.428 . S
C608 H600 0.949 . S
C608 C607 1.428 . S
C608 C609 1.345 . S
C609 H601 0.963 . S
C609 C608 1.345 . S
C609 C610 1.424 1_455 S
C610 H602 0.951 . S
C610 C609 1.424 1_655 S
C610 C611 1.347 . S
C611 H603 0.951 . S
C611 C606 1.429 1_655 S
C611 C610 1.347 . S
H612 C613 0.951 . S
C613 H612 0.951 . S
C613 C619 1.265 . S
H614 C619 0.950 . S
H615 C623 0.949 . S
H616 C624 0.950 . S
H617 C625 0.951 . S
H618 C626 0.951 . S
C619 C613 1.265 . S
C619 H614 0.950 . S
C619 C620 1.478 . S
C620 C619 1.478 . S
C620 C621 1.397 . S
C620 C637 1.394 . S
C621 C620 1.397 . S
C621 C622 1.438 . S
C621 C626 1.429 . S
C622 C621 1.438 . S
C622 C623 1.428 . S
C622 C635 1.394 . S
C623 H615 0.949 . S
C623 C622 1.428 . S
C623 C624 1.345 . S
C624 H616 0.950 . S
C624 C623 1.345 . S
C624 C625 1.424 . S
C625 H617 0.951 . S
C625 C624 1.424 . S
C625 C626 1.347 . S
C626 H618 0.951 . S
C626 C621 1.429 . S
C626 C625 1.347 . S
H627 C628 0.951 . S
C628 H627 0.951 . S
C628 C634 1.265 . S
H629 C634 0.950 . S
H630 C638 0.949 . S
H631 C639 0.950 . S
H632 C640 0.951 . S
H633 C641 0.951 . S
C634 C628 1.265 . S
C634 H629 0.950 . S
C634 C635 1.478 . S
C635 C622 1.394 . S
C635 C634 1.478 . S
C635 C636 1.397 . S
C636 C635 1.397 . S
C636 C637 1.438 . S
C636 C641 1.429 . S
C637 C620 1.394 . S
C637 C636 1.438 . S
C637 C638 1.428 . S
C638 H630 0.949 . S
C638 C637 1.428 . S
C638 C639 1.345 . S
C639 H631 0.950 . S
C639 C638 1.345 . S
C639 C640 1.424 . S
C640 H632 0.951 . S
C640 C639 1.424 . S
C640 C641 1.347 . S
C641 H633 0.951 . S
C641 C636 1.429 . S
C641 C640 1.347 . S
H642 C643 0.951 . S
C643 H642 0.951 . S
C643 C649 1.265 . S
H644 C649 0.950 . S
H645 C653 0.949 . S
H646 C654 0.950 . S
H647 C655 0.951 . S
H648 C656 0.951 . S
C649 C643 1.265 . S
C649 H644 0.950 . S
C649 C650 1.478 . S
C650 C649 1.478 . S
C650 C651 1.397 . S
C650 C667 1.394 1_565 S
C651 C650 1.397 . S
C651 C652 1.438 . S
C651 C656 1.429 . S
C652 C651 1.438 . S
C652 C653 1.428 . S
C652 C665 1.394 . S
C653 H645 0.949 . S
C653 C652 1.428 . S
C653 C654 1.345 . S
C654 H646 0.950 . S
C654 C653 1.345 . S
C654 C655 1.424 . S
C655 H647 0.951 . S
C655 C654 1.424 . S
C655 C656 1.347 . S
C656 H648 0.951 . S
C656 C651 1.429 . S
C656 C655 1.347 . S
H657 C658 0.951 . S
C658 H657 0.951 . S
C658 C664 1.265 . S
H659 C664 0.950 . S
H660 C668 0.949 . S
H661 C669 0.950 . S
H662 C670 0.951 . S
H663 C671 0.951 . S
C664 C658 1.265 . S
C664 H659 0.950 . S
C664 C665 1.478 . S
C665 C652 1.394 . S
C665 C664 1.478 . S
C665 C666 1.397 1_565 S
C666 C665 1.397 1_545 S
C666 C667 1.438 . S
C666 C671 1.429 . S
C667 C650 1.394 1_545 S
C667 C666 1.438 . S
C667 C668 1.428 . S
C668 H660 0.949 . S
C668 C667 1.428 . S
C668 C669 1.345 . S
C669 H661 0.950 . S
C669 C668 1.345 . S
C669 C670 1.424 . S
C670 H662 0.951 . S
C670 C669 1.424 . S
C670 C671 1.347 . S
C671 H663 0.951 . S
C671 C666 1.429 . S
C671 C670 1.347 . S
C133 C60 1.448 . S
C148 C5 1.461 . S
C163 C16 1.535 . S
C178 C38 1.383 . S
C193 C49 1.537 . S
C208 C27 1.381 . S
C223 C126 1.665 . S
C238 C71 1.668 . S
C253 C82 1.664 . S
C268 C104 1.745 . S
C283 C115 1.755 . S
C298 C93 1.674 . S
C313 C8 1.963 . S
C328 C74 2.045 . S
C343 C85 2.057 . S
C358 C19 1.971 . S
C373 C30 1.895 . S
C388 C96 2.012 . S
C403 C107 2.050 . S
C418 C41 1.949 . S
C433 C118 2.058 . S
C448 C52 1.972 . S
C463 C63 1.898 . S
C478 C129 2.025 . S
C493 C51 1.055 . S
C508 C7 0.953 . S
C523 C62 0.991 . S
C538 C18 0.880 . S
C553 C29 0.868 . S
C568 C40 0.899 . S
C583 C73 1.049 . S
C598 C117 1.026 . S
C613 C128 1.039 . S
C628 C84 1.014 . S
C643 C95 0.981 . S
C658 C106 0.984 . S
