# Generated by pormake.
# Topology fcj, (5)-cn, num edge types: 1
# Building blocks:
#     Node 0, Type 0, BuildingBlock: BEQFEK_clean_sbu_0, # of connection points: 5
#     Node 1, Type 0, BuildingBlock: BEQFEK_clean_sbu_0, # of connection points: 5
#     Node 2, Type 0, BuildingBlock: BEQFEK_clean_sbu_0, # of connection points: 5
#     Node 3, Type 0, BuildingBlock: BEQFEK_clean_sbu_0, # of connection points: 5
#     Node 4, Type 0, BuildingBlock: BEQFEK_clean_sbu_0, # of connection points: 5
#     Node 5, Type 0, BuildingBlock: BEQFEK_clean_sbu_0, # of connection points: 5
#     Node 6, Type 0, BuildingBlock: BEQFEK_clean_sbu_0, # of connection points: 5
#     Node 7, Type 0, BuildingBlock: BEQFEK_clean_sbu_0, # of connection points: 5
#     Node 8, Type 0, BuildingBlock: BEQFEK_clean_sbu_0, # of connection points: 5
#     Node 9, Type 0, BuildingBlock: BEQFEK_clean_sbu_0, # of connection points: 5
#     Node 10, Type 0, BuildingBlock: BEQFEK_clean_sbu_0, # of connection points: 5
#     Node 11, Type 0, BuildingBlock: BEQFEK_clean_sbu_0, # of connection points: 5
#     Node 12, Type 0, BuildingBlock: BEQFEK_clean_sbu_0, # of connection points: 5
#     Node 13, Type 0, BuildingBlock: BEQFEK_clean_sbu_0, # of connection points: 5
#     Node 14, Type 0, BuildingBlock: BEQFEK_clean_sbu_0, # of connection points: 5
#     Node 15, Type 0, BuildingBlock: BEQFEK_clean_sbu_0, # of connection points: 5
#     Node 16, Type 0, BuildingBlock: BEQFEK_clean_sbu_0, # of connection points: 5
#     Node 17, Type 0, BuildingBlock: BEQFEK_clean_sbu_0, # of connection points: 5
#     Node 18, Type 0, BuildingBlock: BEQFEK_clean_sbu_0, # of connection points: 5
#     Node 19, Type 0, BuildingBlock: BEQFEK_clean_sbu_0, # of connection points: 5
#     Node 20, Type 0, BuildingBlock: BEQFEK_clean_sbu_0, # of connection points: 5
#     Node 21, Type 0, BuildingBlock: BEQFEK_clean_sbu_0, # of connection points: 5
#     Node 22, Type 0, BuildingBlock: BEQFEK_clean_sbu_0, # of connection points: 5
#     Node 23, Type 0, BuildingBlock: BEQFEK_clean_sbu_0, # of connection points: 5
#     Edge 24, Type (0, 0), BuildingBlock: MIFKUJ_clean_linker_0, # of connection points: 2
#     Edge 25, Type (0, 0), BuildingBlock: MIFKUJ_clean_linker_0, # of connection points: 2
#     Edge 26, Type (0, 0), BuildingBlock: MIFKUJ_clean_linker_0, # of connection points: 2
#     Edge 27, Type (0, 0), BuildingBlock: MIFKUJ_clean_linker_0, # of connection points: 2
#     Edge 28, Type (0, 0), BuildingBlock: MIFKUJ_clean_linker_0, # of connection points: 2
#     Edge 29, Type (0, 0), BuildingBlock: MIFKUJ_clean_linker_0, # of connection points: 2
#     Edge 30, Type (0, 0), BuildingBlock: MIFKUJ_clean_linker_0, # of connection points: 2
#     Edge 31, Type (0, 0), BuildingBlock: MIFKUJ_clean_linker_0, # of connection points: 2
#     Edge 32, Type (0, 0), BuildingBlock: MIFKUJ_clean_linker_0, # of connection points: 2
#     Edge 33, Type (0, 0), BuildingBlock: MIFKUJ_clean_linker_0, # of connection points: 2
#     Edge 34, Type (0, 0), BuildingBlock: MIFKUJ_clean_linker_0, # of connection points: 2
#     Edge 35, Type (0, 0), BuildingBlock: MIFKUJ_clean_linker_0, # of connection points: 2
#     Edge 36, Type (0, 0), BuildingBlock: MIFKUJ_clean_linker_0, # of connection points: 2
#     Edge 37, Type (0, 0), BuildingBlock: MIFKUJ_clean_linker_0, # of connection points: 2
#     Edge 38, Type (0, 0), BuildingBlock: MIFKUJ_clean_linker_0, # of connection points: 2
#     Edge 39, Type (0, 0), BuildingBlock: MIFKUJ_clean_linker_0, # of connection points: 2
#     Edge 40, Type (0, 0), BuildingBlock: MIFKUJ_clean_linker_0, # of connection points: 2
#     Edge 41, Type (0, 0), BuildingBlock: MIFKUJ_clean_linker_0, # of connection points: 2
#     Edge 42, Type (0, 0), BuildingBlock: MIFKUJ_clean_linker_0, # of connection points: 2
#     Edge 43, Type (0, 0), BuildingBlock: MIFKUJ_clean_linker_0, # of connection points: 2
#     Edge 44, Type (0, 0), BuildingBlock: MIFKUJ_clean_linker_0, # of connection points: 2
#     Edge 45, Type (0, 0), BuildingBlock: MIFKUJ_clean_linker_0, # of connection points: 2
#     Edge 46, Type (0, 0), BuildingBlock: MIFKUJ_clean_linker_0, # of connection points: 2
#     Edge 47, Type (0, 0), BuildingBlock: MIFKUJ_clean_linker_0, # of connection points: 2
#     Edge 48, Type (0, 0), BuildingBlock: MIFKUJ_clean_linker_0, # of connection points: 2
#     Edge 49, Type (0, 0), BuildingBlock: MIFKUJ_clean_linker_0, # of connection points: 2
#     Edge 50, Type (0, 0), BuildingBlock: MIFKUJ_clean_linker_0, # of connection points: 2
#     Edge 51, Type (0, 0), BuildingBlock: MIFKUJ_clean_linker_0, # of connection points: 2
#     Edge 52, Type (0, 0), BuildingBlock: MIFKUJ_clean_linker_0, # of connection points: 2
#     Edge 53, Type (0, 0), BuildingBlock: MIFKUJ_clean_linker_0, # of connection points: 2
#     Edge 54, Type (0, 0), BuildingBlock: MIFKUJ_clean_linker_0, # of connection points: 2
#     Edge 55, Type (0, 0), BuildingBlock: MIFKUJ_clean_linker_0, # of connection points: 2
#     Edge 56, Type (0, 0), BuildingBlock: MIFKUJ_clean_linker_0, # of connection points: 2
#     Edge 57, Type (0, 0), BuildingBlock: MIFKUJ_clean_linker_0, # of connection points: 2
#     Edge 58, Type (0, 0), BuildingBlock: MIFKUJ_clean_linker_0, # of connection points: 2
#     Edge 59, Type (0, 0), BuildingBlock: MIFKUJ_clean_linker_0, # of connection points: 2
#     Edge 60, Type (0, 0), BuildingBlock: MIFKUJ_clean_linker_0, # of connection points: 2
#     Edge 61, Type (0, 0), BuildingBlock: MIFKUJ_clean_linker_0, # of connection points: 2
#     Edge 62, Type (0, 0), BuildingBlock: MIFKUJ_clean_linker_0, # of connection points: 2
#     Edge 63, Type (0, 0), BuildingBlock: MIFKUJ_clean_linker_0, # of connection points: 2
#     Edge 64, Type (0, 0), BuildingBlock: MIFKUJ_clean_linker_0, # of connection points: 2
#     Edge 65, Type (0, 0), BuildingBlock: MIFKUJ_clean_linker_0, # of connection points: 2
#     Edge 66, Type (0, 0), BuildingBlock: MIFKUJ_clean_linker_0, # of connection points: 2
#     Edge 67, Type (0, 0), BuildingBlock: MIFKUJ_clean_linker_0, # of connection points: 2
#     Edge 68, Type (0, 0), BuildingBlock: MIFKUJ_clean_linker_0, # of connection points: 2
#     Edge 69, Type (0, 0), BuildingBlock: MIFKUJ_clean_linker_0, # of connection points: 2
#     Edge 70, Type (0, 0), BuildingBlock: MIFKUJ_clean_linker_0, # of connection points: 2
#     Edge 71, Type (0, 0), BuildingBlock: MIFKUJ_clean_linker_0, # of connection points: 2
#     Edge 72, Type (0, 0), BuildingBlock: MIFKUJ_clean_linker_0, # of connection points: 2
#     Edge 73, Type (0, 0), BuildingBlock: MIFKUJ_clean_linker_0, # of connection points: 2
#     Edge 74, Type (0, 0), BuildingBlock: MIFKUJ_clean_linker_0, # of connection points: 2
#     Edge 75, Type (0, 0), BuildingBlock: MIFKUJ_clean_linker_0, # of connection points: 2
#     Edge 76, Type (0, 0), BuildingBlock: MIFKUJ_clean_linker_0, # of connection points: 2
#     Edge 77, Type (0, 0), BuildingBlock: MIFKUJ_clean_linker_0, # of connection points: 2
#     Edge 78, Type (0, 0), BuildingBlock: MIFKUJ_clean_linker_0, # of connection points: 2
#     Edge 79, Type (0, 0), BuildingBlock: MIFKUJ_clean_linker_0, # of connection points: 2
#     Edge 80, Type (0, 0), BuildingBlock: MIFKUJ_clean_linker_0, # of connection points: 2
#     Edge 81, Type (0, 0), BuildingBlock: MIFKUJ_clean_linker_0, # of connection points: 2
#     Edge 82, Type (0, 0), BuildingBlock: MIFKUJ_clean_linker_0, # of connection points: 2
#     Edge 83, Type (0, 0), BuildingBlock: MIFKUJ_clean_linker_0, # of connection points: 2
# Relax obj value: 0.325
# Max RMSD: 0.216
# Mean RMSD: 0.216
data_MOF--net-fcj--node1-BEQFEK_clean_sbu_0--edge1-MIFKUJ_clean_linker_0
_symmetry_space_group_name_H-M    P1
_symmetry_Int_Tables_number       1
_symmetry_cell_setting            triclinic
loop_
_symmetry_equiv_pos_as_xyz
'x, y, z'
_cell_length_a     65.589666
_cell_length_b     65.587545
_cell_length_c     65.5753
_cell_angle_alpha  90.002379
_cell_angle_beta   89.991135
_cell_angle_gamma 89.985544
loop_
_atom_site_label
_atom_site_type_symbol
_atom_site_fract_x
_atom_site_fract_y
_atom_site_fract_z
_atom_type_partial_charge
Co0 Co 0.09592 0.16743 0.33348 0.0
Co1 Co 0.0725 0.20618 0.34863 0.0
C2 C 0.051 0.16865 0.33237 0.0
O3 O 0.06744 0.15856 0.32999 0.0
O4 O 0.05115 0.18686 0.33914 0.0
C5 C 0.11577 0.13913 0.30845 0.0
O6 O 0.10187 0.14578 0.29563 0.0
C7 C 0.04216 0.22884 0.37218 0.0
C8 C 0.0544 0.26023 0.37084 0.0
C9 C 0.03831 0.24875 0.37827 0.0
N10 N 0.05984 0.22863 0.36183 0.0
N11 N 0.06713 0.24739 0.36115 0.0
C12 C 0.02845 0.21066 0.37385 0.0
H13 H 0.02179 0.20744 0.35863 0.0
H14 H 0.03752 0.19713 0.37845 0.0
H15 H 0.01575 0.21301 0.3847 0.0
C16 C 0.11459 0.17126 0.374 0.0
N17 N 0.10074 0.17701 0.36007 0.0
N18 N 0.09136 0.19352 0.36649 0.0
C19 C 0.09914 0.19896 0.38474 0.0
C20 C 0.11422 0.18505 0.39003 0.0
C21 C 0.12853 0.15336 0.37147 0.0
H22 H 0.11974 0.14005 0.36585 0.0
H23 H 0.13607 0.14926 0.38606 0.0
H24 H 0.14034 0.15709 0.35994 0.0
O25 O 0.10188 0.18898 0.31312 0.0
O26 O 0.08635 0.21689 0.32416 0.0
H27 H 0.09734 0.23146 0.38524 0.0
H28 H 0.10288 0.22033 0.40976 0.0
C29 C 0.09403 0.21843 0.39549 0.0
H30 H 0.07751 0.21866 0.3991 0.0
H31 H 0.0806 0.25148 0.35375 0.0
O32 O 0.11525 0.14535 0.32677 0.0
C33 C 0.09741 0.20775 0.3111 0.0
Co34 Co 0.57502 0.34894 0.0795 0.0
Co35 Co 0.53893 0.32343 0.09732 0.0
C36 C 0.57633 0.30411 0.07839 0.0
O37 O 0.5857 0.32095 0.07601 0.0
O38 O 0.55841 0.30332 0.08583 0.0
C39 C 0.61347 0.37308 0.07362 0.0
O40 O 0.62328 0.36226 0.08731 0.0
C41 C 0.5203 0.29178 0.12248 0.0
C42 C 0.48755 0.29912 0.11955 0.0
C43 C 0.50103 0.28514 0.12779 0.0
N44 N 0.51837 0.30904 0.11164 0.0
N45 N 0.49877 0.31351 0.11016 0.0
C46 C 0.54006 0.28094 0.12588 0.0
H47 H 0.54257 0.26996 0.11324 0.0
H48 H 0.55286 0.29201 0.126 0.0
H49 H 0.53973 0.27229 0.14042 0.0
C50 C 0.57277 0.3676 0.1209 0.0
N51 N 0.56678 0.35391 0.10681 0.0
N52 N 0.55187 0.34283 0.11443 0.0
C53 C 0.54803 0.34902 0.13366 0.0
C54 C 0.56129 0.36476 0.13843 0.0
C55 C 0.5876 0.38451 0.117 0.0
H56 H 0.58533 0.39072 0.10145 0.0
H57 H 0.60333 0.37847 0.11826 0.0
H58 H 0.58579 0.39707 0.12818 0.0
O59 O 0.55187 0.35253 0.06047 0.0
O60 O 0.52534 0.33673 0.07407 0.0
H61 H 0.51677 0.34203 0.13968 0.0
H62 H 0.53165 0.34737 0.16234 0.0
C63 C 0.53187 0.34011 0.14706 0.0
H64 H 0.53469 0.32355 0.14893 0.0
H65 H 0.49303 0.32591 0.10206 0.0
O66 O 0.5949 0.36927 0.06962 0.0
C67 C 0.53316 0.34747 0.05997 0.0
Co68 Co 0.40246 0.83145 0.83814 0.0
Co69 Co 0.43018 0.79538 0.85214 0.0
C70 C 0.44742 0.83437 0.8348 0.0
O71 O 0.42989 0.84243 0.83247 0.0
O72 O 0.44946 0.81654 0.84226 0.0
C73 C 0.37911 0.85792 0.8145 0.0
O74 O 0.39246 0.85188 0.80083 0.0
C75 C 0.46226 0.77543 0.87565 0.0
C76 C 0.45708 0.74301 0.86803 0.0
C77 C 0.47004 0.75601 0.87846 0.0
N78 N 0.44545 0.77397 0.86406 0.0
N79 N 0.44225 0.75454 0.8598 0.0
C80 C 0.47176 0.79519 0.88192 0.0
H81 H 0.48544 0.79804 0.87238 0.0
H82 H 0.46081 0.80794 0.87999 0.0
H83 H 0.47675 0.79448 0.89805 0.0
C84 C 0.38727 0.82694 0.88017 0.0
N85 N 0.40033 0.82194 0.8652 0.0
N86 N 0.41135 0.80623 0.87101 0.0
C87 C 0.40531 0.80043 0.88978 0.0
C88 C 0.38999 0.8135 0.89626 0.0
C89 C 0.37094 0.84273 0.87799 0.0
H90 H 0.37782 0.85728 0.87282 0.0
H91 H 0.36267 0.8453 0.89251 0.0
H92 H 0.35993 0.83771 0.86616 0.0
O93 O 0.39653 0.80933 0.81839 0.0
O94 O 0.41603 0.78362 0.82834 0.0
H95 H 0.41181 0.76848 0.89064 0.0
H96 H 0.40478 0.77926 0.91513 0.0
C97 C 0.41317 0.78201 0.9007 0.0
H98 H 0.42956 0.78423 0.90421 0.0
H99 H 0.43042 0.74924 0.85059 0.0
O100 O 0.3813 0.85211 0.83283 0.0
C101 C 0.40299 0.79118 0.81615 0.0
Co102 Co 0.92338 0.64439 0.58264 0.0
Co103 Co 0.95448 0.67519 0.60161 0.0
C104 C 0.9155 0.68915 0.58198 0.0
O105 O 0.90989 0.67095 0.57815 0.0
O106 O 0.93235 0.69288 0.59092 0.0
C107 C 0.90119 0.62141 0.55463 0.0
O108 O 0.90735 0.6364 0.54285 0.0
C109 C 0.96978 0.70887 0.62677 0.0
C110 C 0.00245 0.701 0.62914 0.0
C111 C 0.98818 0.71551 0.63487 0.0
N112 N 0.97313 0.69134 0.6167 0.0
N113 N 0.99267 0.68671 0.6182 0.0
C114 C 0.94915 0.71826 0.62934 0.0
H115 H 0.93729 0.70619 0.62961 0.0
H116 H 0.94836 0.72733 0.6436 0.0
H117 H 0.94602 0.72843 0.61618 0.0
C118 C 0.92625 0.6265 0.62367 0.0
N119 N 0.93095 0.64106 0.61006 0.0
N120 N 0.94403 0.65387 0.61826 0.0
C121 C 0.94798 0.64786 0.63755 0.0
C122 C 0.93695 0.63025 0.64149 0.0
C123 C 0.91184 0.6093 0.61951 0.0
H124 H 0.89772 0.61533 0.61243 0.0
H125 H 0.90784 0.60093 0.63367 0.0
H126 H 0.91899 0.5986 0.60852 0.0
O127 O 0.94755 0.64243 0.56498 0.0
O128 O 0.96988 0.66423 0.57792 0.0
H129 H 0.97843 0.65715 0.6443 0.0
H130 H 0.96365 0.65051 0.66653 0.0
C131 C 0.96309 0.65793 0.65134 0.0
H132 H 0.959 0.67423 0.65322 0.0
H133 H -0.00067 0.67383 0.61163 0.0
O134 O 0.90548 0.622 0.57351 0.0
C135 C 0.96489 0.65106 0.56458 0.0
Co136 Co 0.60181 0.32263 0.66437 0.0
Co137 Co 0.57237 0.28978 0.64611 0.0
C138 C 0.55693 0.32983 0.6621 0.0
O139 O 0.57481 0.33591 0.6667 0.0
O140 O 0.55395 0.3124 0.65404 0.0
C141 C 0.62375 0.34799 0.69098 0.0
O142 O 0.60854 0.3431 0.70308 0.0
C143 C 0.54001 0.2719 0.62106 0.0
C144 C 0.54926 0.23952 0.62003 0.0
C145 C 0.53435 0.25299 0.61354 0.0
N146 N 0.55742 0.26969 0.63161 0.0
N147 N 0.56289 0.25031 0.63092 0.0
C148 C 0.52972 0.29194 0.61746 0.0
H149 H 0.54125 0.30428 0.6165 0.0
H150 H 0.52058 0.29158 0.60323 0.0
H151 H 0.51943 0.29527 0.63046 0.0
C152 C 0.62144 0.31752 0.62439 0.0
N153 N 0.60653 0.31318 0.63775 0.0
N154 N 0.59432 0.29937 0.62984 0.0
C155 C 0.60105 0.29459 0.61099 0.0
C156 C 0.61854 0.30581 0.60706 0.0
C157 C 0.63793 0.33284 0.62815 0.0
H158 H 0.64825 0.32703 0.64024 0.0
H159 H 0.63106 0.34727 0.6337 0.0
H160 H 0.6469 0.336 0.61416 0.0
O161 O 0.60341 0.29983 0.6839 0.0
O162 O 0.58216 0.27658 0.67157 0.0
H163 H 0.5926 0.26375 0.60495 0.0
H164 H 0.59923 0.27807 0.58242 0.0
C165 C 0.59155 0.27887 0.59747 0.0
H166 H 0.5752 0.28251 0.59523 0.0
H167 H 0.57589 0.24444 0.63798 0.0
O168 O 0.62359 0.34161 0.6727 0.0
C169 C 0.59467 0.28258 0.68512 0.0
Co170 Co 0.43213 0.85588 0.4203 0.0
Co171 Co 0.45913 0.82442 0.39655 0.0
C172 C 0.42219 0.81099 0.41912 0.0
O173 O 0.41869 0.82921 0.42497 0.0
O174 O 0.43725 0.80675 0.4076 0.0
C175 C 0.39708 0.88223 0.43037 0.0
O176 O 0.386 0.87178 0.41737 0.0
C177 C 0.47546 0.79004 0.37256 0.0
C178 C 0.50582 0.80214 0.36432 0.0
C179 C 0.4936 0.78501 0.36298 0.0
N180 N 0.47687 0.80938 0.37921 0.0
N181 N 0.49495 0.8166 0.37398 0.0
C182 C 0.45808 0.77611 0.3774 0.0
H183 H 0.45829 0.77257 0.39395 0.0
H184 H 0.44346 0.78389 0.37393 0.0
H185 H 0.45904 0.76164 0.36871 0.0
C186 C 0.43045 0.875 0.37939 0.0
N187 N 0.43691 0.8604 0.39227 0.0
N188 N 0.44762 0.84685 0.38203 0.0
C189 C 0.44771 0.8521 0.36211 0.0
C190 C 0.43672 0.87005 0.35982 0.0
C191 C 0.41976 0.89413 0.38582 0.0
H192 H 0.42496 0.89888 0.40117 0.0
H193 H 0.40309 0.89135 0.38621 0.0
H194 H 0.42275 0.9067 0.3749 0.0
O195 O 0.45777 0.85647 0.43531 0.0
O196 O 0.47677 0.8332 0.41988 0.0
H197 H 0.47378 0.84159 0.34573 0.0
H198 H 0.45114 0.84407 0.3303 0.0
C199 C 0.457 0.83952 0.34551 0.0
H200 H 0.45365 0.82316 0.34814 0.0
H201 H 0.50016 0.83112 0.37778 0.0
O202 O 0.41573 0.87775 0.43298 0.0
C203 C 0.47421 0.84638 0.43389 0.0
Co204 Co 0.8984 0.67353 0.16854 0.0
Co205 Co 0.92624 0.70795 0.15063 0.0
C206 C 0.94311 0.66807 0.1664 0.0
O207 O 0.92554 0.66064 0.17005 0.0
O208 O 0.94522 0.68603 0.15935 0.0
C209 C 0.87405 0.63579 0.1722 0.0
O210 O 0.88571 0.62735 0.15827 0.0
C211 C 0.95918 0.72581 0.12649 0.0
C212 C 0.94949 0.75798 0.12399 0.0
C213 C 0.96491 0.74457 0.11869 0.0
N214 N 0.94122 0.72801 0.13606 0.0
N215 N 0.93547 0.74727 0.13448 0.0
C216 C 0.97012 0.70593 0.12418 0.0
H217 H 0.95895 0.69337 0.12233 0.0
H218 H 0.98056 0.70623 0.11085 0.0
H219 H 0.9792 0.70296 0.13814 0.0
C220 C 0.87784 0.67938 0.12857 0.0
N221 N 0.89287 0.68342 0.14195 0.0
N222 N 0.90481 0.69761 0.13424 0.0
C223 C 0.89784 0.70284 0.1156 0.0
C224 C 0.88066 0.69137 0.11146 0.0
C225 C 0.86018 0.6655 0.13262 0.0
H226 H 0.85453 0.66782 0.14838 0.0
H227 H 0.86527 0.64948 0.13097 0.0
H228 H 0.84752 0.6682 0.12173 0.0
O229 O 0.89737 0.69597 0.18868 0.0
O230 O 0.91538 0.72131 0.17542 0.0
H231 H 0.90465 0.73407 0.10957 0.0
H232 H 0.89972 0.71913 0.08698 0.0
C233 C 0.90692 0.71897 0.1023 0.0
H234 H 0.92352 0.71628 0.10063 0.0
H235 H 0.92207 0.75313 0.14076 0.0
O236 O 0.87728 0.65408 0.17774 0.0
C237 C 0.90435 0.71404 0.18963 0.0
Co238 Co 0.06885 0.14655 0.92594 0.0
Co239 Co 0.04235 0.17805 0.90178 0.0
C240 C 0.08049 0.19108 0.92183 0.0
O241 O 0.08326 0.17307 0.92862 0.0
O242 O 0.06534 0.19539 0.91051 0.0
C243 C 0.10459 0.12108 0.93195 0.0
O244 O 0.11319 0.13191 0.91745 0.0
C245 C 0.02374 0.21252 0.87938 0.0
C246 C 0.99858 0.19674 0.86345 0.0
C247 C 0.00777 0.21563 0.86574 0.0
N248 N 0.02424 0.1926 0.88429 0.0
N249 N 0.00897 0.18337 0.87497 0.0
C250 C 0.03672 0.22834 0.88949 0.0
H251 H 0.04005 0.22381 0.90543 0.0
H252 H 0.05136 0.2297 0.88113 0.0
H253 H 0.02902 0.2434 0.88974 0.0
C254 C 0.06591 0.12429 0.88673 0.0
N255 N 0.062 0.14056 0.89864 0.0
N256 N 0.05245 0.15452 0.88781 0.0
C257 C 0.0513 0.14804 0.86828 0.0
C258 C 0.0594 0.12861 0.86718 0.0
C259 C 0.07569 0.10489 0.89377 0.0
H260 H 0.07154 0.10169 0.90983 0.0
H261 H 0.09248 0.10636 0.89249 0.0
H262 H 0.07094 0.09184 0.88411 0.0
O263 O 0.0441 0.14715 0.94247 0.0
O264 O 0.02574 0.17066 0.92645 0.0
H265 H 0.02734 0.15683 0.84806 0.0
H266 H 0.05207 0.1564 0.83655 0.0
C267 C 0.04366 0.16039 0.85069 0.0
H268 H 0.04545 0.1769 0.85378 0.0
H269 H 0.00559 0.1679 0.87656 0.0
O270 O 0.08645 0.12508 0.93746 0.0
C271 C 0.02813 0.15802 0.94102 0.0
Co272 Co 0.32343 0.1032 0.16951 0.0
Co273 Co 0.34379 0.07435 0.20177 0.0
C274 C 0.3286 0.05863 0.16157 0.0
O275 O 0.32299 0.07636 0.1559 0.0
O276 O 0.33693 0.05565 0.17888 0.0
C277 C 0.31787 0.12906 0.13296 0.0
O278 O 0.33244 0.11884 0.12376 0.0
C279 C 0.36582 0.04125 0.22297 0.0
C280 C 0.37145 0.0557 0.25291 0.0
C281 C 0.37406 0.03774 0.24215 0.0
N282 N 0.35884 0.06053 0.22242 0.0
N283 N 0.36234 0.06908 0.24033 0.0
C284 C 0.3624 0.02606 0.20628 0.0
H285 H 0.34581 0.02481 0.20325 0.0
H286 H 0.36983 0.03157 0.19211 0.0
H287 H 0.36833 0.01074 0.21022 0.0
C288 C 0.36281 0.12495 0.17457 0.0
N289 N 0.34984 0.10973 0.17922 0.0
N290 N 0.35886 0.0971 0.19195 0.0
C291 C 0.37814 0.10353 0.19522 0.0
C292 C 0.38122 0.12135 0.18427 0.0
C293 C 0.35741 0.14328 0.16207 0.0
H294 H 0.34129 0.14759 0.16468 0.0
H295 H 0.35964 0.13973 0.1457 0.0
H296 H 0.36727 0.15646 0.16603 0.0
O297 O 0.30368 0.10241 0.19182 0.0
O298 O 0.31799 0.08299 0.21544 0.0
H299 H 0.39139 0.09524 0.22375 0.0
H300 H 0.40943 0.09681 0.20311 0.0
C301 C 0.39374 0.09209 0.2073 0.0
H302 H 0.39205 0.07547 0.2047 0.0
H303 H 0.358 0.0839 0.24412 0.0
O304 O 0.31277 0.12445 0.15107 0.0
C305 C 0.30324 0.09394 0.20922 0.0
Co306 Co 0.64898 0.57688 0.93056 0.0
Co307 Co 0.6764 0.59844 0.96312 0.0
C308 C 0.69426 0.57818 0.92619 0.0
O309 O 0.67677 0.57345 0.91913 0.0
O310 O 0.6962 0.58759 0.94308 0.0
C311 C 0.62624 0.548 0.908 0.0
O312 O 0.63891 0.53531 0.91694 0.0
C313 C 0.70799 0.62467 0.98072 0.0
C314 C 0.69487 0.63163 0.01099 0.0
C315 C 0.71156 0.63536 0.9986 0.0
N316 N 0.69 0.61506 0.98248 0.0
N317 N 0.68225 0.61923 0.00061 0.0
C318 C 0.72054 0.62479 0.96166 0.0
H319 H 0.71044 0.62467 0.94809 0.0
H320 H 0.73061 0.63837 0.96104 0.0
H321 H 0.7301 0.61083 0.96124 0.0
C322 C 0.62972 0.61751 0.9299 0.0
N323 N 0.64384 0.6044 0.93692 0.0
N324 N 0.65575 0.61385 0.94997 0.0
C325 C 0.64989 0.63352 0.95131 0.0
C326 C 0.63318 0.63648 0.93865 0.0
C327 C 0.61245 0.61142 0.91625 0.0
H328 H 0.60573 0.59691 0.92176 0.0
H329 H 0.61836 0.60885 0.90061 0.0
H330 H 0.60027 0.62314 0.91581 0.0
O331 O 0.64618 0.55961 0.95501 0.0
O332 O 0.66496 0.57501 0.9785 0.0
H333 H 0.6575 0.64706 0.97994 0.0
H334 H 0.65606 0.66503 0.95912 0.0
C335 C 0.6608 0.64941 0.96352 0.0
H336 H 0.67746 0.64795 0.96115 0.0
H337 H 0.66827 0.61372 0.00583 0.0
O338 O 0.62842 0.56702 0.91089 0.0
C339 C 0.65328 0.56051 0.97304 0.0
Co340 Co 0.17107 0.89565 0.6772 0.0
Co341 Co 0.15111 0.92156 0.71198 0.0
C342 C 0.17053 0.94031 0.67415 0.0
O343 O 0.17437 0.92321 0.66575 0.0
O344 O 0.1622 0.94138 0.6917 0.0
C345 C 0.18271 0.87332 0.63931 0.0
O346 O 0.17706 0.88886 0.62801 0.0
C347 C 0.12754 0.95477 0.7306 0.0
C348 C 0.12151 0.94251 0.7614 0.0
C349 C 0.11862 0.95948 0.74918 0.0
N350 N 0.13545 0.9359 0.73181 0.0
N351 N 0.13176 0.92865 0.75026 0.0
C352 C 0.12809 0.96769 0.71182 0.0
H353 H 0.12626 0.95799 0.69808 0.0
H354 H 0.11588 0.97941 0.71213 0.0
H355 H 0.14309 0.97545 0.71088 0.0
C356 C 0.13028 0.87674 0.67726 0.0
N357 N 0.14362 0.89062 0.68426 0.0
N358 N 0.13505 0.90122 0.69898 0.0
C359 C 0.11589 0.89429 0.70189 0.0
C360 C 0.11232 0.87843 0.68829 0.0
C361 C 0.13454 0.86251 0.6599 0.0
H362 H 0.14081 0.87129 0.64691 0.0
H363 H 0.1206 0.85446 0.65471 0.0
H364 H 0.14613 0.85114 0.66468 0.0
O365 O 0.18914 0.8928 0.70114 0.0
O366 O 0.17443 0.90925 0.72669 0.0
H367 H 0.10885 0.89827 0.73339 0.0
H368 H 0.08676 0.89434 0.7176 0.0
C369 C 0.10194 0.9017 0.71835 0.0
H370 H 0.10014 0.91847 0.7171 0.0
H371 H 0.13656 0.91436 0.75535 0.0
O372 O 0.18094 0.87422 0.65858 0.0
C373 C 0.18889 0.89837 0.71971 0.0
Co374 Co 0.84665 0.41227 0.41516 0.0
Co375 Co 0.82077 0.39692 0.45205 0.0
C376 C 0.80183 0.41374 0.41332 0.0
O377 O 0.81895 0.41604 0.40446 0.0
O378 O 0.80071 0.40688 0.43148 0.0
C379 C 0.8676 0.43718 0.38755 0.0
O380 O 0.8532 0.44993 0.3932 0.0
C381 C 0.78889 0.37247 0.47061 0.0
C382 C 0.79697 0.37323 0.5033 0.0
C383 C 0.78261 0.36581 0.48966 0.0
N384 N 0.80601 0.38343 0.47291 0.0
N385 N 0.81082 0.38381 0.49247 0.0
C386 C 0.77973 0.36749 0.45031 0.0
H387 H 0.79178 0.36707 0.43843 0.0
H388 H 0.77171 0.3526 0.45079 0.0
H389 H 0.76862 0.37954 0.44613 0.0
C390 C 0.86407 0.37113 0.41891 0.0
N391 N 0.85061 0.38549 0.4246 0.0
N392 N 0.84006 0.37888 0.44031 0.0
C393 C 0.84664 0.36004 0.44527 0.0
C394 C 0.86193 0.35445 0.43174 0.0
C395 C 0.88006 0.37446 0.40295 0.0
H396 H 0.88941 0.3879 0.4072 0.0
H397 H 0.87258 0.37789 0.38816 0.0
H398 H 0.89026 0.36111 0.40113 0.0
O399 O 0.85111 0.4324 0.43716 0.0
O400 O 0.83444 0.42099 0.46428 0.0
H401 H 0.84121 0.35665 0.47723 0.0
H402 H 0.84658 0.33291 0.46415 0.0
C403 C 0.83884 0.34791 0.46295 0.0
H404 H 0.82224 0.34538 0.46109 0.0
H405 H 0.82351 0.39138 0.49842 0.0
O406 O 0.86712 0.41902 0.39422 0.0
C407 C 0.84582 0.43419 0.45573 0.0
Co408 Co 0.8315 0.40006 0.82984 0.0
Co409 Co 0.84903 0.42653 0.79439 0.0
C410 C 0.83273 0.4442 0.83435 0.0
O411 O 0.82989 0.42697 0.84286 0.0
O412 O 0.83929 0.44559 0.81608 0.0
C413 C 0.82165 0.37529 0.86688 0.0
O414 O 0.82887 0.38952 0.87899 0.0
C415 C 0.87486 0.45883 0.77815 0.0
C416 C 0.87523 0.45188 0.74519 0.0
C417 C 0.88225 0.4657 0.75956 0.0
N418 N 0.86387 0.44188 0.77486 0.0
N419 N 0.86418 0.43775 0.75515 0.0
C420 C 0.87885 0.46749 0.79888 0.0
H421 H 0.87922 0.45506 0.81037 0.0
H422 H 0.8935 0.47595 0.79918 0.0
H423 H 0.86631 0.47808 0.80298 0.0
C424 C 0.87162 0.3802 0.82569 0.0
N425 N 0.85809 0.39465 0.82039 0.0
N426 N 0.86561 0.40552 0.80532 0.0
C427 C 0.8842 0.39818 0.80041 0.0
C428 C 0.88856 0.38182 0.81314 0.0
C429 C 0.8684 0.36537 0.84274 0.0
H430 H 0.86323 0.37371 0.85649 0.0
H431 H 0.88256 0.35692 0.84651 0.0
H432 H 0.8563 0.35438 0.83838 0.0
O433 O 0.81144 0.39942 0.80734 0.0
O434 O 0.82476 0.41514 0.78056 0.0
H435 H 0.91055 0.3963 0.78049 0.0
H436 H 0.90116 0.42173 0.78564 0.0
C437 C 0.89667 0.40567 0.78283 0.0
H438 H 0.88731 0.40528 0.76876 0.0
H439 H 0.85669 0.42539 0.74848 0.0
O440 O 0.82211 0.37775 0.84768 0.0
C441 C 0.81036 0.40516 0.78885 0.0
Co442 Co 0.34565 0.08505 0.57886 0.0
Co443 Co 0.31875 0.1017 0.543 0.0
C444 C 0.30081 0.08271 0.58113 0.0
O445 O 0.31806 0.08026 0.58971 0.0
O446 O 0.29921 0.09031 0.5633 0.0
C447 C 0.36948 0.06013 0.60485 0.0
O448 O 0.35709 0.04593 0.59805 0.0
C449 C 0.28562 0.12349 0.52172 0.0
C450 C 0.30109 0.13208 0.49301 0.0
C451 C 0.28298 0.1343 0.50366 0.0
N452 N 0.30467 0.11589 0.52192 0.0
N453 N 0.31369 0.12081 0.50459 0.0
C454 C 0.26994 0.11872 0.53763 0.0
H455 H 0.27087 0.10238 0.54178 0.0
H456 H 0.27304 0.12791 0.55149 0.0
H457 H 0.25424 0.12169 0.53216 0.0
C458 C 0.36134 0.12695 0.57768 0.0
N459 N 0.34854 0.11243 0.57093 0.0
N460 N 0.33765 0.11967 0.55573 0.0
C461 C 0.34343 0.13913 0.55222 0.0
C462 C 0.35854 0.14432 0.56604 0.0
C463 C 0.37713 0.12354 0.59379 0.0
H464 H 0.36979 0.11718 0.60763 0.0
H465 H 0.38513 0.13784 0.59787 0.0
H466 H 0.38845 0.11227 0.58819 0.0
O467 O 0.35073 0.06615 0.55575 0.0
O468 O 0.33281 0.07852 0.52991 0.0
H469 H 0.34107 0.14717 0.52078 0.0
H470 H 0.3399 0.1686 0.53792 0.0
C471 C 0.33518 0.1525 0.5357 0.0
H472 H 0.3183 0.15168 0.53553 0.0
H473 H 0.32859 0.11674 0.50083 0.0
O474 O 0.36662 0.07846 0.59938 0.0
C475 C 0.34491 0.06526 0.53726 0.0
Co476 Co 0.6757 0.60214 0.31449 0.0
Co477 Co 0.65136 0.57258 0.28601 0.0
C478 C 0.67214 0.55786 0.32409 0.0
O479 O 0.67786 0.57576 0.32908 0.0
O480 O 0.66217 0.55458 0.30774 0.0
C481 C 0.68649 0.62831 0.34927 0.0
O482 O 0.67416 0.6174 0.36067 0.0
C483 C 0.6259 0.53882 0.27082 0.0
C484 C 0.61362 0.55207 0.24237 0.0
C485 C 0.61349 0.53463 0.25424 0.0
N486 N 0.63312 0.55789 0.26882 0.0
N487 N 0.62571 0.56572 0.25178 0.0
C488 C 0.63005 0.52534 0.28875 0.0
H489 H 0.62898 0.53434 0.30303 0.0
H490 H 0.61911 0.51247 0.28951 0.0
H491 H 0.64576 0.51921 0.28751 0.0
C492 C 0.63604 0.62373 0.31472 0.0
N493 N 0.64826 0.60846 0.30848 0.0
N494 N 0.63753 0.59537 0.29773 0.0
C495 C 0.61785 0.60143 0.29762 0.0
C496 C 0.61627 0.61963 0.30836 0.0
C497 C 0.64339 0.64255 0.32536 0.0
H498 H 0.65885 0.64664 0.31993 0.0
H499 H 0.64398 0.63969 0.34202 0.0
H500 H 0.63302 0.65562 0.32252 0.0
O501 O 0.69197 0.60068 0.28954 0.0
O502 O 0.6748 0.58084 0.26831 0.0
H503 H 0.59944 0.59197 0.27249 0.0
H504 H 0.58594 0.59322 0.29639 0.0
C505 C 0.60064 0.58909 0.28911 0.0
H506 H 0.60352 0.57262 0.29159 0.0
H507 H 0.62899 0.58037 0.24654 0.0
O508 O 0.68868 0.62396 0.33054 0.0
C509 C 0.69019 0.59198 0.27233 0.0
Co510 Co 0.15143 0.91858 0.07165 0.0
Co511 Co 0.17945 0.89756 0.03906 0.0
C512 C 0.19627 0.91712 0.0774 0.0
O513 O 0.17869 0.92212 0.0841 0.0
O514 O 0.19842 0.90781 0.06045 0.0
C515 C 0.12886 0.93454 0.10765 0.0
O516 O 0.14607 0.93597 0.11778 0.0
C517 C 0.21103 0.8704 0.02274 0.0
C518 C 0.20082 0.86658 0.99085 0.0
C519 C 0.21593 0.86093 0.00448 0.0
N520 N 0.19385 0.8812 0.02 0.0
N521 N 0.18782 0.87886 0.00091 0.0
C522 C 0.2217 0.8683 0.04279 0.0
H523 H 0.21053 0.8693 0.05546 0.0
H524 H 0.23005 0.85361 0.04369 0.0
H525 H 0.23279 0.88095 0.04447 0.0
C526 C 0.13283 0.87779 0.07174 0.0
N527 N 0.14686 0.89107 0.06492 0.0
N528 N 0.15811 0.88218 0.05089 0.0
C529 C 0.1514 0.86291 0.04821 0.0
C530 C 0.13526 0.85959 0.0614 0.0
C531 C 0.11698 0.88269 0.08741 0.0
H532 H 0.10663 0.8946 0.08133 0.0
H533 H 0.12446 0.88882 0.10129 0.0
H534 H 0.10789 0.86905 0.0915 0.0
O535 O 0.14956 0.93608 0.04722 0.0
O536 O 0.1688 0.92128 0.02372 0.0
H537 H 0.15844 0.85409 0.01767 0.0
H538 H 0.15242 0.83298 0.03435 0.0
C539 C 0.16015 0.848 0.03335 0.0
H540 H 0.17664 0.84599 0.03646 0.0
H541 H 0.17481 0.88565 0.99477 0.0
O542 O 0.12894 0.92794 0.08944 0.0
C543 C 0.15701 0.93563 0.02932 0.0
Co544 Co 0.17708 0.33131 0.10084 0.0
Co545 Co 0.20702 0.35378 0.07104 0.0
C546 C 0.17059 0.33055 0.05573 0.0
O547 O 0.16523 0.32546 0.07372 0.0
O548 O 0.1862 0.34171 0.05256 0.0
C549 C 0.15095 0.30364 0.12227 0.0
O550 O 0.15277 0.29243 0.10576 0.0
C551 C 0.22626 0.3755 0.03648 0.0
C552 C 0.25154 0.39124 0.05225 0.0
C553 C 0.24241 0.38889 0.03335 0.0
N554 N 0.22556 0.37079 0.05643 0.0
N555 N 0.24091 0.37999 0.06568 0.0
C556 C 0.21331 0.36534 0.02067 0.0
H557 H 0.21099 0.34911 0.02474 0.0
H558 H 0.19821 0.37295 0.02011 0.0
H559 H 0.22048 0.36589 0.00537 0.0
C560 C 0.17435 0.37239 0.11847 0.0
N561 N 0.18167 0.35938 0.10442 0.0
N562 N 0.19382 0.36925 0.09186 0.0
C563 C 0.19418 0.38911 0.09738 0.0
C564 C 0.18201 0.39159 0.11443 0.0
C565 C 0.16075 0.36637 0.13577 0.0
H566 H 0.14666 0.35933 0.12961 0.0
H567 H 0.15661 0.37965 0.14541 0.0
H568 H 0.16861 0.35478 0.14527 0.0
O569 O 0.2025 0.31589 0.10363 0.0
O570 O 0.22393 0.33122 0.08252 0.0
H571 H 0.22152 0.40591 0.09204 0.0
H572 H 0.19867 0.42078 0.08983 0.0
C573 C 0.20554 0.40565 0.08656 0.0
H574 H 0.20537 0.40296 0.06988 0.0
H575 H 0.24415 0.37851 0.08118 0.0
O576 O 0.15931 0.32109 0.12282 0.0
C577 C 0.21998 0.31724 0.0954 0.0
Co578 Co 0.68086 0.17014 0.89843 0.0
Co579 Co 0.71025 0.14871 0.92967 0.0
C580 C 0.67038 0.16714 0.94274 0.0
O581 O 0.66561 0.17238 0.92459 0.0
O582 O 0.68709 0.15798 0.94661 0.0
C583 C 0.646 0.17953 0.8709 0.0
O584 O 0.63371 0.16985 0.88341 0.0
C585 C 0.72569 0.12286 0.96309 0.0
C586 C 0.75697 0.11647 0.95226 0.0
C587 C 0.74348 0.11256 0.96801 0.0
N588 N 0.72853 0.13238 0.94516 0.0
N589 N 0.74728 0.12857 0.93884 0.0
C590 C 0.706 0.12282 0.97459 0.0
H591 H 0.69302 0.12207 0.96378 0.0
H592 H 0.7052 0.10977 0.98533 0.0
H593 H 0.70472 0.13723 0.98337 0.0
C594 C 0.68563 0.13062 0.87753 0.0
N595 N 0.68928 0.14313 0.89335 0.0
N596 N 0.7009 0.13367 0.9067 0.0
C597 C 0.70437 0.11447 0.90005 0.0
C598 C 0.69495 0.11207 0.88131 0.0
C599 C 0.67354 0.13642 0.85909 0.0
H600 H 0.65727 0.13799 0.86339 0.0
H601 H 0.67484 0.12482 0.8469 0.0
H602 H 0.67896 0.15129 0.85314 0.0
O603 O 0.70474 0.18811 0.8997 0.0
O604 O 0.72594 0.17338 0.92153 0.0
H605 H 0.73323 0.10291 0.90959 0.0
H606 H 0.71456 0.08344 0.90454 0.0
C607 C 0.71687 0.09889 0.91103 0.0
H608 H 0.71277 0.09876 0.92743 0.0
H609 H 0.75342 0.13416 0.92527 0.0
O610 O 0.66488 0.18084 0.87509 0.0
C611 C 0.72152 0.18783 0.90938 0.0
Co612 Co 0.57568 0.92821 0.64868 0.0
Co613 Co 0.5966 0.96016 0.67743 0.0
C614 C 0.57911 0.92083 0.6934 0.0
O615 O 0.5739 0.91474 0.67567 0.0
O616 O 0.58784 0.938 0.69609 0.0
C617 C 0.56738 0.8915 0.62332 0.0
O618 O 0.57825 0.88032 0.63588 0.0
C619 C 0.6229 0.97801 0.70921 0.0
C620 C 0.62537 0.00978 0.69828 0.0
C621 C 0.63134 0.99686 0.71391 0.0
N622 N 0.61236 0.97983 0.69172 0.0
N623 N 0.61394 0.99884 0.68526 0.0
C624 C 0.62582 0.95826 0.72025 0.0
H625 H 0.62496 0.94531 0.70941 0.0
H626 H 0.64074 0.95797 0.72822 0.0
H627 H 0.61349 0.95648 0.73169 0.0
C628 C 0.61593 0.93093 0.62825 0.0
N629 N 0.60271 0.93658 0.64289 0.0
N630 N 0.61183 0.94936 0.65538 0.0
C631 C 0.63135 0.9518 0.6494 0.0
C632 C 0.63459 0.94017 0.63201 0.0
C633 C 0.61046 0.91771 0.61045 0.0
H634 H 0.59507 0.92177 0.60479 0.0
H635 H 0.61034 0.90153 0.61537 0.0
H636 H 0.62151 0.91949 0.59776 0.0
O637 O 0.55692 0.95153 0.64876 0.0
O638 O 0.57192 0.97499 0.66785 0.0
H639 H 0.64367 0.9802 0.65952 0.0
H640 H 0.66263 0.96057 0.65567 0.0
C641 C 0.64693 0.96369 0.6611 0.0
H642 H 0.64598 0.95966 0.67748 0.0
H643 H 0.60711 0.00435 0.67199 0.0
O644 O 0.56513 0.91044 0.62675 0.0
C645 C 0.55712 0.96917 0.65675 0.0
Co646 Co 0.82201 0.83439 0.39926 0.0
Co647 Co 0.78879 0.85211 0.42845 0.0
C648 C 0.82518 0.82922 0.44431 0.0
O649 O 0.83243 0.82666 0.42647 0.0
O650 O 0.80852 0.83879 0.44715 0.0
C651 C 0.84579 0.80777 0.37603 0.0
O652 O 0.83735 0.79471 0.38867 0.0
C653 C 0.7721 0.87582 0.46223 0.0
C654 C 0.73911 0.87515 0.45536 0.0
C655 C 0.75323 0.88164 0.46965 0.0
N656 N 0.76928 0.86633 0.44431 0.0
N657 N 0.74956 0.86621 0.44013 0.0
C658 C 0.79223 0.87725 0.47284 0.0
H659 H 0.7941 0.86378 0.48291 0.0
H660 H 0.80481 0.87731 0.46152 0.0
H661 H 0.79307 0.89115 0.48242 0.0
C662 C 0.82245 0.87689 0.38488 0.0
N663 N 0.816 0.86241 0.39786 0.0
N664 N 0.80197 0.87006 0.40996 0.0
C665 C 0.79906 0.88983 0.4051 0.0
C666 C 0.81201 0.89484 0.38909 0.0
C667 C 0.8364 0.87266 0.36729 0.0
H668 H 0.83054 0.85942 0.35855 0.0
H669 H 0.8517 0.86852 0.37321 0.0
H670 H 0.8378 0.88584 0.35683 0.0
O671 O 0.79746 0.81821 0.39307 0.0
O672 O 0.7737 0.8304 0.41379 0.0
H673 H 0.76829 0.89729 0.41284 0.0
H674 H 0.78467 0.91928 0.40944 0.0
C675 C 0.78385 0.90344 0.4153 0.0
H676 H 0.7868 0.90361 0.43195 0.0
H677 H 0.7432 0.85936 0.42729 0.0
O678 O 0.84213 0.82665 0.37827 0.0
C679 C 0.77933 0.81804 0.39994 0.0
Co680 Co 0.91917 0.06897 0.14798 0.0
Co681 Co 0.90084 0.03649 0.1781 0.0
C682 C 0.91847 0.07672 0.19245 0.0
O683 O 0.92239 0.08299 0.17446 0.0
O684 O 0.91042 0.0593 0.19565 0.0
C685 C 0.92869 0.10578 0.12366 0.0
O686 O 0.92437 0.11702 0.13967 0.0
C687 C 0.87773 0.01872 0.21245 0.0
C688 C 0.87182 0.98764 0.20081 0.0
C689 C 0.86836 0.00034 0.21733 0.0
N690 N 0.88599 0.01697 0.19375 0.0
N691 N 0.88247 0.99834 0.18694 0.0
C692 C 0.88075 0.03693 0.22588 0.0
H693 H 0.89724 0.04037 0.22679 0.0
H694 H 0.87301 0.05032 0.219 0.0
H695 H 0.87513 0.03444 0.24159 0.0
C696 C 0.87782 0.06612 0.13071 0.0
N697 N 0.89197 0.06041 0.1444 0.0
N698 N 0.88415 0.04657 0.15665 0.0
C699 C 0.8647 0.04294 0.15095 0.0
C700 C 0.86012 0.05527 0.13443 0.0
C701 C 0.88147 0.0812 0.11398 0.0
H702 H 0.89423 0.07582 0.10425 0.0
H703 H 0.88592 0.09604 0.12074 0.0
H704 H 0.86776 0.08341 0.10436 0.0
O705 O 0.93832 0.04568 0.14703 0.0
O706 O 0.92531 0.02224 0.16759 0.0
H707 H 0.85578 0.01255 0.15837 0.0
H708 H 0.83472 0.03002 0.15562 0.0
C709 C 0.85057 0.02835 0.16131 0.0
H710 H 0.8508 0.03105 0.178 0.0
H711 H 0.88741 0.99292 0.17282 0.0
O712 O 0.92733 0.08649 0.12483 0.0
C713 C 0.93916 0.02818 0.15537 0.0
Co714 Co 0.31904 0.6787 0.60178 0.0
Co715 Co 0.29461 0.65147 0.57114 0.0
C716 C 0.32933 0.67614 0.55666 0.0
O717 O 0.33192 0.68334 0.57457 0.0
O718 O 0.31565 0.66287 0.55292 0.0
C719 C 0.35331 0.69184 0.62777 0.0
O720 O 0.36524 0.67933 0.61764 0.0
C721 C 0.27435 0.62935 0.53752 0.0
C722 C 0.25288 0.61005 0.55493 0.0
C723 C 0.25895 0.61491 0.53529 0.0
N724 N 0.2775 0.63233 0.55757 0.0
N725 N 0.26444 0.62093 0.56783 0.0
C726 C 0.28374 0.64233 0.52125 0.0
H727 H 0.28728 0.65769 0.52733 0.0
H728 H 0.29816 0.63515 0.51605 0.0
H729 H 0.27336 0.64404 0.50801 0.0
C730 C 0.32235 0.63919 0.62364 0.0
N731 N 0.31623 0.65063 0.60772 0.0
N732 N 0.3075 0.6388 0.59405 0.0
C733 C 0.30915 0.61922 0.60026 0.0
C734 C 0.31821 0.61894 0.61933 0.0
C735 C 0.3322 0.64743 0.6425 0.0
H736 H 0.32548 0.66241 0.64651 0.0
H737 H 0.34874 0.64942 0.63965 0.0
H738 H 0.33048 0.63687 0.65558 0.0
O739 O 0.29239 0.69173 0.60219 0.0
O740 O 0.27548 0.67393 0.57901 0.0
H741 H 0.28749 0.59589 0.5933 0.0
H742 H 0.31343 0.5881 0.59065 0.0
C743 C 0.30277 0.60097 0.58814 0.0
H744 H 0.3024 0.60456 0.57164 0.0
H745 H 0.26293 0.62115 0.58367 0.0
O746 O 0.33456 0.69318 0.62313 0.0
C747 C 0.27643 0.6885 0.59178 0.0
Co748 Co 0.07413 0.57593 0.34756 0.0
Co749 Co 0.09591 0.54242 0.3215 0.0
C750 C 0.07982 0.58247 0.30386 0.0
O751 O 0.07457 0.58983 0.32107 0.0
O752 O 0.08756 0.56467 0.30238 0.0
C753 C 0.0614 0.61139 0.37331 0.0
O754 O 0.07114 0.62423 0.36142 0.0
C755 C 0.12387 0.52719 0.29032 0.0
C756 C 0.12593 0.49448 0.29803 0.0
C757 C 0.13226 0.50888 0.28394 0.0
N758 N 0.11292 0.52375 0.30728 0.0
N759 N 0.11434 0.5042 0.31192 0.0
C760 C 0.12657 0.54772 0.2808 0.0
H761 H 0.12667 0.5597 0.29275 0.0
H762 H 0.14096 0.54839 0.2719 0.0
H763 H 0.11363 0.55072 0.27036 0.0
C764 C 0.1123 0.57261 0.37108 0.0
N765 N 0.10039 0.56717 0.35532 0.0
N766 N 0.1097 0.55304 0.34456 0.0
C767 C 0.12794 0.549 0.35319 0.0
C768 C 0.13007 0.56119 0.37036 0.0
C769 C 0.10707 0.58916 0.38591 0.0
H770 H 0.10293 0.60312 0.37736 0.0
H771 H 0.11995 0.59284 0.39621 0.0
H772 H 0.09369 0.58443 0.39513 0.0
O773 O 0.05521 0.55282 0.3453 0.0
O774 O 0.07093 0.52737 0.3296 0.0
H775 H 0.1347 0.51807 0.34567 0.0
H776 H 0.15626 0.53207 0.35542 0.0
C777 C 0.14246 0.53308 0.34571 0.0
H778 H 0.147 0.53665 0.32981 0.0
H779 H 0.10697 0.4974 0.32427 0.0
O780 O 0.06166 0.59243 0.3694 0.0
C781 C 0.05534 0.53467 0.33853 0.0
Co782 Co 0.41783 0.41587 0.84543 0.0
Co783 Co 0.40134 0.45276 0.82023 0.0
C784 C 0.41832 0.41448 0.80056 0.0
O785 O 0.42111 0.40549 0.81754 0.0
O786 O 0.41118 0.43254 0.79973 0.0
C787 C 0.44403 0.39026 0.86736 0.0
O788 O 0.45714 0.39782 0.85423 0.0
C789 C 0.37755 0.4726 0.78836 0.0
C790 C 0.37695 0.50463 0.79876 0.0
C791 C 0.37075 0.4919 0.78308 0.0
N792 N 0.38742 0.4739 0.80624 0.0
N793 N 0.38696 0.49306 0.81243 0.0
C794 C 0.37409 0.45303 0.77716 0.0
H795 H 0.37253 0.44026 0.78816 0.0
H796 H 0.36023 0.45395 0.76749 0.0
H797 H 0.38744 0.44986 0.76726 0.0
C798 C 0.37737 0.41938 0.86438 0.0
N799 N 0.39104 0.42492 0.85017 0.0
N800 N 0.38396 0.44061 0.83991 0.0
C801 C 0.36548 0.44569 0.8474 0.0
C802 C 0.36078 0.43244 0.86326 0.0
C803 C 0.38053 0.40225 0.87914 0.0
H804 H 0.38656 0.38874 0.87095 0.0
H805 H 0.36612 0.39803 0.88694 0.0
H806 H 0.39197 0.40691 0.89071 0.0
O807 O 0.43758 0.43823 0.84983 0.0
O808 O 0.42548 0.46517 0.83342 0.0
H809 H 0.36325 0.47794 0.84367 0.0
H810 H 0.33929 0.46582 0.8496 0.0
C811 C 0.35377 0.4642 0.84103 0.0
H812 H 0.35041 0.46328 0.82448 0.0
H813 H 0.39374 0.49828 0.82586 0.0
O814 O 0.42533 0.39493 0.86562 0.0
C815 C 0.43897 0.45686 0.84461 0.0
H816 H 0.25535 0.1567 0.52614 0.0
H817 H 0.22433 0.1733 0.51354 0.0
H818 H 0.24062 0.15698 0.45197 0.0
H819 H 0.27085 0.1392 0.46449 0.0
H820 H 0.22554 0.20047 0.46055 0.0
H821 H 0.21071 0.12689 0.47119 0.0
H822 H 0.2089 0.09692 0.49385 0.0
H823 H 0.16884 0.12944 0.53419 0.0
H824 H 0.17069 0.15972 0.51187 0.0
H825 H 0.15497 0.187 0.38499 0.0
H826 H 0.18114 0.18717 0.41127 0.0
H827 H 0.13461 0.18856 0.45788 0.0
H828 H 0.10817 0.18749 0.43123 0.0
H829 H 0.16135 0.16091 0.4669 0.0
H830 H 0.16702 0.23008 0.45068 0.0
H831 H 0.16856 0.26113 0.42958 0.0
H832 H 0.22472 0.24067 0.40288 0.0
H833 H 0.22339 0.20933 0.42355 0.0
C834 C 0.25205 0.15616 0.50998 0.0
C835 C 0.265 0.14578 0.49638 0.0
C836 C 0.23457 0.16602 0.50281 0.0
C837 C 0.23026 0.16621 0.4819 0.0
C838 C 0.2438 0.15697 0.46819 0.0
C839 C 0.26098 0.14677 0.47537 0.0
C840 C 0.21091 0.17448 0.47411 0.0
C841 C 0.2114 0.19202 0.46196 0.0
C842 C 0.19239 0.1639 0.47688 0.0
C843 C 0.19103 0.1456 0.49003 0.0
C844 C 0.20165 0.12769 0.48498 0.0
C845 C 0.2006 0.11064 0.49774 0.0
C846 C 0.18882 0.11129 0.51548 0.0
C847 C 0.178 0.12897 0.52046 0.0
C848 C 0.17904 0.14607 0.50777 0.0
C849 C 0.15035 0.18744 0.40085 0.0
C850 C 0.12968 0.18706 0.4062 0.0
C851 C 0.16529 0.18785 0.41588 0.0
C852 C 0.15987 0.18829 0.43659 0.0
C853 C 0.13913 0.18841 0.44199 0.0
C854 C 0.12409 0.18784 0.42685 0.0
C855 C 0.17609 0.18644 0.45222 0.0
C856 C 0.17511 0.17003 0.46594 0.0
C857 C 0.19405 0.19839 0.45119 0.0
C858 C 0.19508 0.21729 0.4387 0.0
C859 C 0.17966 0.23213 0.44023 0.0
C860 C 0.18049 0.2498 0.42835 0.0
C861 C 0.19672 0.25287 0.4149 0.0
C862 C 0.21217 0.23828 0.41333 0.0
C863 C 0.21141 0.22057 0.42517 0.0
H864 H 0.19734 0.26656 0.40571 0.0
H865 H 0.18803 0.09808 0.52535 0.0
H866 H 0.53064 0.38753 0.15454 0.0
H867 H 0.53381 0.41353 0.1813 0.0
H868 H 0.59683 0.39682 0.19004 0.0
H869 H 0.59367 0.37091 0.16326 0.0
H870 H 0.57583 0.40835 0.22714 0.0
H871 H 0.58882 0.43216 0.1581 0.0
H872 H 0.57995 0.43706 0.12193 0.0
H873 H 0.52627 0.47035 0.13927 0.0
H874 H 0.53478 0.46544 0.17563 0.0
H875 H 0.6304 0.49677 0.25493 0.0
H876 H 0.6157 0.46528 0.24166 0.0
H877 H 0.55999 0.49732 0.22726 0.0
H878 H 0.57508 0.52908 0.23992 0.0
H879 H 0.57161 0.47723 0.19609 0.0
H880 H 0.56329 0.45924 0.26598 0.0
H881 H 0.57371 0.45485 0.30184 0.0
H882 H 0.61885 0.41103 0.28372 0.0
H883 H 0.60891 0.41535 0.24771 0.0
C884 C 0.54493 0.38903 0.16267 0.0
C885 C 0.56194 0.37739 0.15697 0.0
C886 C 0.54674 0.40384 0.17788 0.0
C887 C 0.56558 0.40709 0.18754 0.0
C888 C 0.58215 0.39442 0.18285 0.0
C889 C 0.58038 0.37975 0.16754 0.0
C890 C 0.56895 0.42552 0.20005 0.0
C891 C 0.57489 0.42346 0.22049 0.0
C892 C 0.56737 0.44517 0.19134 0.0
C893 C 0.56228 0.44822 0.16954 0.0
C894 C 0.57504 0.44038 0.15419 0.0
C895 C 0.57009 0.44319 0.13365 0.0
C896 C 0.55249 0.45394 0.12828 0.0
C897 C 0.53986 0.46198 0.14346 0.0
C898 C 0.54475 0.4592 0.16403 0.0
C899 C 0.61482 0.49694 0.24944 0.0
C900 C 0.60372 0.51521 0.24865 0.0
C901 C 0.60639 0.47892 0.24191 0.0
C902 C 0.58657 0.47879 0.23378 0.0
C903 C 0.57526 0.497 0.23356 0.0
C904 C 0.58385 0.5151 0.24077 0.0
C905 C 0.57864 0.4603 0.22342 0.0
C906 C 0.572 0.46228 0.20317 0.0
C907 C 0.57961 0.44065 0.2324 0.0
C908 C 0.5854 0.43771 0.2541 0.0
C909 C 0.5755 0.44874 0.26962 0.0
C910 C 0.58133 0.44625 0.28998 0.0
C911 C 0.59696 0.43269 0.29505 0.0
C912 C 0.60674 0.42152 0.27977 0.0
C913 C 0.60099 0.42396 0.25938 0.0
H914 H 0.60147 0.43083 0.31082 0.0
H915 H 0.54867 0.45612 0.11238 0.0
H916 H 0.36244 0.78331 0.90141 0.0
H917 H 0.33384 0.7832 0.92557 0.0
H918 H 0.35704 0.83815 0.95329 0.0
H919 H 0.3855 0.83838 0.92894 0.0
H920 H 0.33758 0.80795 0.98152 0.0
H921 H 0.32545 0.84722 0.91881 0.0
H922 H 0.32449 0.85127 0.88139 0.0
H923 H 0.28467 0.79955 0.87651 0.0
H924 H 0.28528 0.79532 0.91394 0.0
H925 H 0.25532 0.86824 0.01568 0.0
H926 H 0.2858 0.85148 0.00264 0.0
H927 H 0.24829 0.81012 0.96778 0.0
H928 H 0.21767 0.82726 0.98053 0.0
H929 H 0.2745 0.82681 0.94422 0.0
H930 H 0.27965 0.79347 0.00812 0.0
H931 H 0.27998 0.78995 0.04554 0.0
H932 H 0.33262 0.82868 0.04907 0.0
H933 H 0.33245 0.83269 0.01169 0.0
C934 C 0.36173 0.79491 0.91315 0.0
C935 C 0.37598 0.81084 0.91352 0.0
C936 C 0.34546 0.79486 0.92687 0.0
C937 C 0.34339 0.8107 0.94111 0.0
C938 C 0.35853 0.82573 0.94249 0.0
C939 C 0.37469 0.82589 0.92863 0.0
C940 C 0.32401 0.81346 0.95218 0.0
C941 C 0.32372 0.81208 0.97351 0.0
C942 C 0.30594 0.81833 0.94154 0.0
C943 C 0.30559 0.82082 0.91909 0.0
C944 C 0.3166 0.83664 0.90972 0.0
C945 C 0.31609 0.839 0.88854 0.0
C946 C 0.30466 0.82558 0.87657 0.0
C947 C 0.29358 0.80989 0.88579 0.0
C948 C 0.29394 0.80755 0.90698 0.0
C949 C 0.25355 0.85513 0.00581 0.0
C950 C 0.23416 0.84887 0.99926 0.0
C951 C 0.27101 0.84552 0.99835 0.0
C952 C 0.26938 0.82935 0.9844 0.0
C953 C 0.24994 0.82252 0.97857 0.0
C954 C 0.23248 0.8323 0.98583 0.0
C955 C 0.28781 0.82154 0.97387 0.0
C956 C 0.28806 0.82214 0.95247 0.0
C957 C 0.30573 0.81585 0.98454 0.0
C958 C 0.30595 0.81348 0.00707 0.0
C959 C 0.29121 0.80136 0.01687 0.0
C960 C 0.29138 0.79926 0.03808 0.0
C961 C 0.30629 0.80911 0.04968 0.0
C962 C 0.32108 0.82106 0.04007 0.0
C963 C 0.32097 0.82323 0.01886 0.0
H964 H 0.3064 0.80747 0.0661 0.0
H965 H 0.30433 0.8274 0.86016 0.0
H966 H 0.91166 0.47083 0.731 0.0
H967 H 0.92682 0.50287 0.71958 0.0
H968 H 0.89278 0.53548 0.76549 0.0
H969 H 0.87718 0.50354 0.7766 0.0
H970 H 0.88691 0.55123 0.72865 0.0
H971 H 0.94463 0.53389 0.76819 0.0
H972 H 0.97207 0.51217 0.78191 0.0
H973 H 0.99765 0.50598 0.72196 0.0
H974 H 0.9702 0.5274 0.7078 0.0
H975 H 0.92587 0.63959 0.68039 0.0
H976 H 0.92255 0.61565 0.7091 0.0
H977 H 0.94647 0.5673 0.67139 0.0
H978 H 0.94974 0.59115 0.64285 0.0
H979 H 0.95951 0.56463 0.71214 0.0
H980 H 0.89731 0.57434 0.67271 0.0
H981 H 0.86965 0.59524 0.65815 0.0
H982 H 0.85246 0.6149 0.71822 0.0
H983 H 0.88029 0.59435 0.7331 0.0
C984 C 0.90775 0.48479 0.73892 0.0
C985 C 0.89348 0.48464 0.75487 0.0
C986 C 0.91654 0.50306 0.73252 0.0
C987 C 0.91115 0.52154 0.74189 0.0
C988 C 0.89734 0.52136 0.75824 0.0
C989 C 0.88859 0.50305 0.7647 0.0
C990 C 0.9179 0.54107 0.73278 0.0
C991 C 0.90284 0.55447 0.72561 0.0
C992 C 0.93866 0.54511 0.7285 0.0
C993 C 0.95526 0.5322 0.73691 0.0
C994 C 0.95602 0.52778 0.75789 0.0
C995 C 0.97159 0.51554 0.76576 0.0
C996 C 0.98658 0.50768 0.75281 0.0
C997 C 0.98604 0.51208 0.73197 0.0
C998 C 0.97049 0.52431 0.72402 0.0
C999 C 0.93084 0.62395 0.67852 0.0
C1000 C 0.93788 0.617 0.65956 0.0
C1001 C 0.92897 0.61035 0.69483 0.0
C1002 C 0.93416 0.58972 0.69227 0.0
C1003 C 0.94248 0.58317 0.67368 0.0
C1004 C 0.94421 0.59671 0.65739 0.0
C1005 C 0.92848 0.57431 0.70771 0.0
C1006 C 0.94368 0.56168 0.71589 0.0
C1007 C 0.90784 0.57086 0.7129 0.0
C1008 C 0.89102 0.58305 0.70399 0.0
C1009 C 0.88773 0.58326 0.68279 0.0
C1010 C 0.87202 0.59502 0.67449 0.0
C1011 C 0.85934 0.60644 0.68725 0.0
C1012 C 0.86233 0.60608 0.70835 0.0
C1013 C 0.87807 0.5944 0.71673 0.0
H1014 H 0.84717 0.61553 0.6808 0.0
H1015 H 0.99863 0.49821 0.75893 0.0
H1016 H 0.77864 0.33729 0.51935 0.0
H1017 H 0.74724 0.32119 0.53131 0.0
H1018 H 0.71309 0.35307 0.48499 0.0
H1019 H 0.74434 0.36965 0.47337 0.0
H1020 H 0.69693 0.35845 0.52176 0.0
H1021 H 0.71772 0.30146 0.48258 0.0
H1022 H 0.74106 0.27513 0.46936 0.0
H1023 H 0.74766 0.25025 0.52956 0.0
H1024 H 0.7246 0.27661 0.54322 0.0
H1025 H 0.60952 0.31574 0.56781 0.0
H1026 H 0.63396 0.31972 0.53962 0.0
H1027 H 0.68232 0.29804 0.57864 0.0
H1028 H 0.65797 0.29409 0.60665 0.0
H1029 H 0.68678 0.28525 0.53798 0.0
H1030 H 0.67308 0.34682 0.57721 0.0
H1031 H 0.65049 0.37338 0.59131 0.0
H1032 H 0.63144 0.38971 0.53081 0.0
H1033 H 0.65369 0.36298 0.51638 0.0
C1034 C 0.76448 0.34059 0.51151 0.0
C1035 C 0.76399 0.35445 0.49522 0.0
C1036 C 0.74658 0.33125 0.51823 0.0
C1037 C 0.72788 0.33568 0.50881 0.0
C1038 C 0.72741 0.34923 0.49227 0.0
C1039 C 0.74533 0.35855 0.48552 0.0
C1040 C 0.70867 0.328 0.51784 0.0
C1041 C 0.69443 0.34237 0.52476 0.0
C1042 C 0.7056 0.30706 0.52207 0.0
C1043 C 0.71949 0.29111 0.51395 0.0
C1044 C 0.72426 0.29047 0.49304 0.0
C1045 C 0.73742 0.27552 0.48546 0.0
C1046 C 0.74585 0.26104 0.49862 0.0
C1047 C 0.74111 0.26147 0.51938 0.0
C1048 C 0.72796 0.2764 0.52705 0.0
C1049 C 0.62528 0.31133 0.57006 0.0
C1050 C 0.63207 0.30478 0.58924 0.0
C1051 C 0.63917 0.31359 0.55405 0.0
C1052 C 0.65993 0.3093 0.55715 0.0
C1053 C 0.66636 0.30134 0.57593 0.0
C1054 C 0.65253 0.29921 0.59191 0.0
C1055 C 0.67546 0.31576 0.54216 0.0
C1056 C 0.68903 0.30122 0.5343 0.0
C1057 C 0.67802 0.33656 0.5371 0.0
C1058 C 0.66482 0.35275 0.54574 0.0
C1059 C 0.66394 0.35597 0.56693 0.0
C1060 C 0.65122 0.37106 0.57498 0.0
C1061 C 0.63949 0.38319 0.56197 0.0
C1062 C 0.6405 0.38027 0.54087 0.0
C1063 C 0.65315 0.36515 0.53275 0.0
H1064 H 0.62965 0.39487 0.56822 0.0
H1065 H 0.75604 0.24947 0.49271 0.0
H1066 H 0.40279 0.01216 0.22602 0.0
H1067 H 0.41627 0.98079 0.24139 0.0
H1068 H 0.37639 0.9892 0.29313 0.0
H1069 H 0.36339 0.02066 0.27804 0.0
H1070 H 0.41201 0.97956 0.30607 0.0
H1071 H 0.36698 0.95365 0.25462 0.0
H1072 H 0.35338 0.94973 0.21979 0.0
H1073 H 0.41069 0.92515 0.19981 0.0
H1074 H 0.42474 0.92923 0.23449 0.0
H1075 H 0.39946 0.88222 0.34712 0.0
H1076 H 0.39193 0.9074 0.32067 0.0
H1077 H 0.45545 0.90893 0.30383 0.0
H1078 H 0.46316 0.8839 0.33072 0.0
H1079 H 0.41229 0.91249 0.27093 0.0
H1080 H 0.45653 0.94323 0.32587 0.0
H1081 H 0.46514 0.94491 0.36249 0.0
H1082 H 0.40265 0.95817 0.37689 0.0
H1083 H 0.39368 0.95631 0.34034 0.0
C1084 C 0.39681 0.00709 0.24056 0.0
C1085 C 0.3819 0.01856 0.25078 0.0
C1086 C 0.4045 0.98923 0.24933 0.0
C1087 C 0.39719 0.98251 0.26833 0.0
C1088 C 0.38231 0.99408 0.27849 0.0
C1089 C 0.37485 0.01201 0.26987 0.0
C1090 C 0.40521 0.96371 0.27802 0.0
C1091 C 0.41215 0.96499 0.29823 0.0
C1092 C 0.40546 0.9446 0.2679 0.0
C1093 C 0.39699 0.94197 0.24709 0.0
C1094 C 0.37674 0.94756 0.24276 0.0
C1095 C 0.36894 0.94529 0.22305 0.0
C1096 C 0.38118 0.93726 0.20758 0.0
C1097 C 0.40124 0.93141 0.21181 0.0
C1098 C 0.40913 0.93369 0.23149 0.0
C1099 C 0.41173 0.88757 0.33744 0.0
C1100 C 0.4319 0.88146 0.34105 0.0
C1101 C 0.40739 0.90177 0.32225 0.0
C1102 C 0.42315 0.90994 0.31039 0.0
C1103 C 0.4431 0.90259 0.31278 0.0
C1104 C 0.44748 0.88838 0.3281 0.0
C1105 C 0.41913 0.92866 0.29864 0.0
C1106 C 0.4127 0.92729 0.27831 0.0
C1107 C 0.41892 0.94769 0.30866 0.0
C1108 C 0.42445 0.94956 0.33047 0.0
C1109 C 0.44465 0.94646 0.33688 0.0
C1110 C 0.44958 0.94744 0.3576 0.0
C1111 C 0.43445 0.95165 0.37201 0.0
C1112 C 0.41436 0.95494 0.36571 0.0
C1113 C 0.40935 0.95395 0.34501 0.0
H1114 H 0.43828 0.95235 0.38804 0.0
H1115 H 0.37512 0.93551 0.19233 0.0
H1116 H 0.87804 0.66642 0.07879 0.0
H1117 H 0.85037 0.66547 0.05362 0.0
H1118 H 0.82338 0.71872 0.08133 0.0
H1119 H 0.85129 0.71979 0.10631 0.0
H1120 H 0.79846 0.684 0.08058 0.0
H1121 H 0.83864 0.72315 0.03447 0.0
H1122 H 0.86941 0.73233 0.01494 0.0
H1123 H 0.86652 0.67532 0.98288 0.0
H1124 H 0.83591 0.66564 0.00245 0.0
H1125 H 0.71216 0.67115 0.01927 0.0
H1126 H 0.74203 0.68877 0.03308 0.0
H1127 H 0.78131 0.64344 0.00599 0.0
H1128 H 0.75155 0.62601 0.99192 0.0
H1129 H 0.79923 0.68041 0.005 0.0
H1130 H 0.76512 0.63827 0.05449 0.0
H1131 H 0.73597 0.62613 0.07492 0.0
H1132 H 0.72946 0.68558 0.10158 0.0
H1133 H 0.75843 0.69814 0.08108 0.0
C1134 C 0.86653 0.67827 0.07896 0.0
C1135 C 0.86663 0.69325 0.09417 0.0
C1136 C 0.85082 0.67778 0.06463 0.0
C1137 C 0.83495 0.69212 0.06559 0.0
C1138 C 0.83561 0.70766 0.08028 0.0
C1139 C 0.85148 0.7083 0.09445 0.0
C1140 C 0.8163 0.68884 0.05344 0.0
C1141 C 0.79845 0.68378 0.06403 0.0
C1142 C 0.81663 0.68785 0.03191 0.0
C1143 C 0.83503 0.69361 0.02005 0.0
C1144 C 0.84466 0.71249 0.02338 0.0
C1145 C 0.86206 0.7178 0.01228 0.0
C1146 C 0.86994 0.7044 0.9977 0.0
C1147 C 0.8604 0.68568 0.99418 0.0
C1148 C 0.84301 0.68029 0.00526 0.0
C1149 C 0.72722 0.66522 0.01596 0.0
C1150 C 0.72962 0.64732 0.00448 0.0
C1151 C 0.74424 0.67527 0.02382 0.0
C1152 C 0.76385 0.66726 0.02075 0.0
C1153 C 0.76632 0.64995 0.00842 0.0
C1154 C 0.74931 0.64002 0.00037 0.0
C1155 C 0.78147 0.67545 0.0322 0.0
C1156 C 0.79912 0.6812 0.02152 0.0
C1157 C 0.78118 0.67671 0.05375 0.0
C1158 C 0.76375 0.66921 0.06606 0.0
C1159 C 0.75735 0.64879 0.06458 0.0
C1160 C 0.74089 0.64183 0.07619 0.0
C1161 C 0.73083 0.6551 0.08949 0.0
C1162 C 0.73724 0.67534 0.09124 0.0
C1163 C 0.75368 0.68239 0.07963 0.0
H1164 H 0.7181 0.64967 0.09849 0.0
H1165 H 0.88341 0.70854 0.98912 0.0
H1166 H 0.08407 0.96551 0.77113 0.0
H1167 H 0.07172 0.99774 0.78563 0.0
H1168 H 0.12242 0.02948 0.75833 0.0
H1169 H 0.13465 0.99739 0.7436 0.0
H1170 H 0.11692 0.03454 0.80219 0.0
H1171 H 0.07985 0.03953 0.73922 0.0
H1172 H 0.05682 0.02741 0.71211 0.0
H1173 H 0.00813 0.0218 0.75552 0.0
H1174 H 0.03097 0.03358 0.78298 0.0
H1175 H 0.08866 0.13093 0.83821 0.0
H1176 H 0.09654 0.10503 0.81232 0.0
H1177 H 0.04379 0.0704 0.83098 0.0
H1178 H 0.03594 0.09636 0.8568 0.0
H1179 H 0.05064 0.06856 0.7888 0.0
H1180 H 0.08646 0.05865 0.85171 0.0
H1181 H 0.10811 0.06896 0.88067 0.0
H1182 H 0.15761 0.08131 0.83963 0.0
H1183 H 0.13614 0.0713 0.81036 0.0
C1184 C 0.09232 0.97946 0.76795 0.0
C1185 C 0.11009 0.97909 0.75604 0.0
C1186 C 0.08526 0.9978 0.77616 0.0
C1187 C 0.09612 0.01593 0.77289 0.0
C1188 C 0.11377 0.01564 0.76083 0.0
C1189 C 0.12063 0.99736 0.75232 0.0
C1190 C 0.08994 0.03482 0.78347 0.0
C1191 C 0.10264 0.04225 0.79897 0.0
C1192 C 0.07098 0.04435 0.77968 0.0
C1193 C 0.0572 0.03726 0.76321 0.0
C1194 C 0.06429 0.03552 0.74304 0.0
C1195 C 0.05126 0.02875 0.72759 0.0
C1196 C 0.03104 0.02379 0.7321 0.0
C1197 C 0.0238 0.02563 0.75206 0.0
C1198 C 0.03679 0.03237 0.76757 0.0
C1199 C 0.07849 0.11805 0.83628 0.0
C1200 C 0.06173 0.11545 0.84924 0.0
C1201 C 0.083 0.10329 0.82162 0.0
C1202 C 0.07083 0.08575 0.81991 0.0
C1203 C 0.05329 0.08387 0.83202 0.0
C1204 C 0.04884 0.09861 0.84672 0.0
C1205 C 0.0777 0.06833 0.80738 0.0
C1206 C 0.06508 0.06105 0.79172 0.0
C1207 C 0.09658 0.05863 0.81126 0.0
C1208 C 0.10963 0.06446 0.82882 0.0
C1209 C 0.10191 0.06372 0.84884 0.0
C1210 C 0.11415 0.06949 0.86531 0.0
C1211 C 0.1342 0.07587 0.86198 0.0
C1212 C 0.14206 0.07641 0.84217 0.0
C1213 C 0.12988 0.07067 0.82564 0.0
H1214 H 0.14365 0.08034 0.87475 0.0
H1215 H 0.02097 0.01856 0.72012 0.0
H1216 H 0.40477 0.13744 0.21455 0.0
H1217 H 0.43333 0.16138 0.21045 0.0
H1218 H 0.42801 0.15636 0.14503 0.0
H1219 H 0.39978 0.13238 0.14914 0.0
H1220 H 0.46798 0.15934 0.15707 0.0
H1221 H 0.40338 0.19337 0.169 0.0
H1222 H 0.37213 0.20073 0.18856 0.0
H1223 H 0.40823 0.22019 0.2396 0.0
H1224 H 0.43974 0.21264 0.22041 0.0
H1225 H 0.48179 0.25415 0.10899 0.0
H1226 H 0.46995 0.22217 0.12423 0.0
H1227 H 0.4949 0.24045 0.1823 0.0
H1228 H 0.50729 0.27239 0.1668 0.0
H1229 H 0.45174 0.22911 0.18147 0.0
H1230 H 0.51664 0.20273 0.16343 0.0
H1231 H 0.54642 0.19614 0.14147 0.0
H1232 H 0.50858 0.1634 0.09929 0.0
H1233 H 0.47847 0.17004 0.12082 0.0
C1234 C 0.41009 0.14116 0.19936 0.0
C1235 C 0.40006 0.1334 0.18214 0.0
C1236 C 0.42631 0.1548 0.19702 0.0
C1237 C 0.43263 0.16075 0.17743 0.0
C1238 C 0.4234 0.15194 0.16027 0.0
C1239 C 0.40719 0.13842 0.16261 0.0
C1240 C 0.44713 0.17777 0.1745 0.0
C1241 C 0.46455 0.17458 0.16249 0.0
C1242 C 0.44278 0.19757 0.1819 0.0
C1243 C 0.42389 0.20219 0.19341 0.0
C1244 C 0.40465 0.19906 0.18446 0.0
C1245 C 0.38689 0.20329 0.19546 0.0
C1246 C 0.38819 0.21087 0.21534 0.0
C1247 C 0.40725 0.21427 0.22423 0.0
C1248 C 0.42507 0.21002 0.2133 0.0
C1249 C 0.48498 0.25113 0.12492 0.0
C1250 C 0.49537 0.2655 0.13682 0.0
C1251 C 0.47835 0.2329 0.13356 0.0
C1252 C 0.48174 0.22895 0.15431 0.0
C1253 C 0.49234 0.24322 0.16622 0.0
C1254 C 0.49936 0.26135 0.15742 0.0
C1255 C 0.47232 0.21077 0.16363 0.0
C1256 C 0.45568 0.21376 0.1767 0.0
C1257 C 0.47723 0.19089 0.1569 0.0
C1258 C 0.49525 0.18696 0.14375 0.0
C1259 C 0.51461 0.19427 0.14938 0.0
C1260 C 0.53157 0.19049 0.13703 0.0
C1261 C 0.5294 0.17932 0.11903 0.0
C1262 C 0.51024 0.17199 0.11328 0.0
C1263 C 0.49323 0.17574 0.12558 0.0
H1264 H 0.54257 0.1763 0.10956 0.0
H1265 H 0.37442 0.21414 0.22383 0.0
H1266 H 0.61765 0.66201 0.96758 0.0
H1267 H 0.59483 0.6911 0.9621 0.0
H1268 H 0.59845 0.68153 0.89705 0.0
H1269 H 0.62211 0.65327 0.9025 0.0
H1270 H 0.59579 0.72086 0.9047 0.0
H1271 H 0.56034 0.65964 0.92711 0.0
H1272 H 0.55313 0.63156 0.95108 0.0
H1273 H 0.5387 0.67491 0.99801 0.0
H1274 H 0.54606 0.70325 0.97434 0.0
H1275 H 0.49988 0.73445 0.86023 0.0
H1276 H 0.53199 0.72285 0.87519 0.0
H1277 H 0.51633 0.75221 0.93196 0.0
H1278 H 0.48403 0.76393 0.91691 0.0
H1279 H 0.52737 0.71073 0.93538 0.0
H1280 H 0.55441 0.77163 0.90705 0.0
H1281 H 0.55986 0.79773 0.88056 0.0
H1282 H 0.58857 0.75322 0.84209 0.0
H1283 H 0.58302 0.72676 0.8682 0.0
C1284 C 0.61396 0.66652 0.95213 0.0
C1285 C 0.62132 0.65532 0.93544 0.0
C1286 C 0.60085 0.68302 0.94901 0.0
C1287 C 0.59462 0.68823 0.92919 0.0
C1288 C 0.60299 0.67776 0.91249 0.0
C1289 C 0.6163 0.66149 0.9156 0.0
C1290 C 0.57791 0.70301 0.92569 0.0
C1291 C 0.58084 0.71872 0.91145 0.0
C1292 C 0.55852 0.70053 0.93489 0.0
C1293 C 0.55399 0.68353 0.94906 0.0
C1294 C 0.55575 0.66317 0.94258 0.0
C1295 C 0.55162 0.64721 0.9561 0.0
C1296 C 0.54553 0.65145 0.97608 0.0
C1297 C 0.54347 0.67166 0.98255 0.0
C1298 C 0.54761 0.68767 0.96909 0.0
C1299 C 0.50344 0.73861 0.87582 0.0
C1300 C 0.48972 0.75019 0.88741 0.0
C1301 C 0.5218 0.73214 0.88429 0.0
C1302 C 0.52662 0.73697 0.90456 0.0
C1303 C 0.51294 0.74861 0.9162 0.0
C1304 C 0.49463 0.75535 0.9076 0.0
C1305 C 0.54509 0.72804 0.91384 0.0
C1306 C 0.54247 0.71337 0.92914 0.0
C1307 C 0.56462 0.73125 0.90532 0.0
C1308 C 0.56823 0.74717 0.8896 0.0
C1309 C 0.56178 0.76737 0.8929 0.0
C1310 C 0.5649 0.78224 0.87795 0.0
C1311 C 0.57454 0.77713 0.85965 0.0
C1312 C 0.58112 0.75715 0.85628 0.0
C1313 C 0.57802 0.74222 0.87117 0.0
H1314 H 0.57693 0.78867 0.84809 0.0
H1315 H 0.54234 0.63909 0.98653 0.0
H1316 H 0.11261 0.8374 0.69131 0.0
H1317 H 0.08446 0.81395 0.68453 0.0
H1318 H 0.04382 0.86494 0.67584 0.0
H1319 H 0.0723 0.88861 0.68219 0.0
H1320 H 0.02682 0.82939 0.69854 0.0
H1321 H 0.05978 0.84731 0.63677 0.0
H1322 H 0.08806 0.85339 0.61283 0.0
H1323 H 0.10431 0.79004 0.61537 0.0
H1324 H 0.07683 0.78375 0.64017 0.0
H1325 H 0.97212 0.75377 0.62853 0.0
H1326 H 0.9854 0.78598 0.6419 0.0
H1327 H 0.02996 0.75301 0.67717 0.0
H1328 H 0.01645 0.72075 0.6644 0.0
H1329 H 0.03856 0.7853 0.63815 0.0
H1330 H 0.00931 0.77117 0.70663 0.0
H1331 H 0.97976 0.76568 0.72924 0.0
H1332 H 0.95421 0.82291 0.71025 0.0
H1333 H 0.98351 0.82856 0.68729 0.0
C1334 C 0.09762 0.84358 0.68817 0.0
C1335 C 0.09456 0.86471 0.68706 0.0
C1336 C 0.08158 0.83023 0.68437 0.0
C1337 C 0.06218 0.83778 0.67951 0.0
C1338 C 0.05872 0.8589 0.6796 0.0
C1339 C 0.07491 0.87234 0.68323 0.0
C1340 C 0.04628 0.82338 0.67272 0.0
C1341 C 0.02919 0.81996 0.68516 0.0
C1342 C 0.04931 0.81127 0.65512 0.0
C1343 C 0.06631 0.81511 0.64059 0.0
C1344 C 0.06962 0.83474 0.63257 0.0
C1345 C 0.08553 0.83823 0.61882 0.0
C1346 C 0.09804 0.82213 0.61265 0.0
C1347 C 0.09468 0.80252 0.62024 0.0
C1348 C 0.079 0.79901 0.63424 0.0
C1349 C 0.98405 0.75329 0.6399 0.0
C1350 C 0.99311 0.73469 0.6456 0.0
C1351 C 0.99167 0.77173 0.64744 0.0
C1352 C 0.0084 0.77175 0.66072 0.0
C1353 C 0.01677 0.75321 0.66722 0.0
C1354 C 0.00914 0.73483 0.65979 0.0
C1355 C 0.01988 0.79065 0.66453 0.0
C1356 C 0.03608 0.79498 0.65134 0.0
C1357 C 0.01594 0.80358 0.68127 0.0
C1358 C 0.9984 0.80012 0.69503 0.0
C1359 C 0.99726 0.78244 0.70707 0.0
C1360 C 0.9806 0.77934 0.72001 0.0
C1361 C 0.96507 0.7939 0.72112 0.0
C1362 C 0.96621 0.81162 0.70934 0.0
C1363 C 0.98284 0.81478 0.69637 0.0
H1364 H 0.95219 0.79148 0.73115 0.0
H1365 H 0.11031 0.82484 0.60194 0.0
H1366 H 0.01883 0.23482 0.41257 0.0
H1367 H 0.98742 0.24846 0.42775 0.0
H1368 H 0.98616 0.29593 0.38221 0.0
H1369 H 0.01716 0.28214 0.36683 0.0
H1370 H 0.97847 0.3106 0.42004 0.0
H1371 H 0.95674 0.25464 0.37705 0.0
H1372 H 0.95639 0.21874 0.36584 0.0
H1373 H 0.93513 0.20018 0.42493 0.0
H1374 H 0.93567 0.23598 0.43659 0.0
H1375 H 0.86799 0.32615 0.40232 0.0
H1376 H 0.89656 0.30219 0.40019 0.0
H1377 H 0.91543 0.31933 0.46086 0.0
H1378 H 0.88694 0.34351 0.46285 0.0
H1379 H 0.9147 0.26984 0.421 0.0
H1380 H 0.96567 0.33032 0.45742 0.0
H1381 H 0.96572 0.36726 0.46478 0.0
H1382 H 0.92789 0.37807 0.41245 0.0
H1383 H 0.92772 0.34124 0.40474 0.0
C1384 C 0.01159 0.24794 0.40564 0.0
C1385 C 0.01997 0.2571 0.38818 0.0
C1386 C 0.99382 0.25581 0.41442 0.0
C1387 C 0.98439 0.27305 0.40595 0.0
C1388 C 0.99321 0.2826 0.38896 0.0
C1389 C 0.01086 0.27471 0.38017 0.0
C1390 C 0.9651 0.28115 0.41434 0.0
C1391 C 0.96461 0.30158 0.42056 0.0
C1392 C 0.947 0.26941 0.41482 0.0
C1393 C 0.94649 0.24794 0.40776 0.0
C1394 C 0.95215 0.24288 0.3877 0.0
C1395 C 0.9519 0.22256 0.38126 0.0
C1396 C 0.9458 0.20718 0.39469 0.0
C1397 C 0.93989 0.21211 0.41456 0.0
C1398 C 0.94017 0.2324 0.42109 0.0
C1399 C 0.87788 0.32423 0.41541 0.0
C1400 C 0.87556 0.33666 0.43265 0.0
C1401 C 0.8941 0.31052 0.41425 0.0
C1402 C 0.90822 0.30921 0.43027 0.0
C1403 C 0.90473 0.32023 0.4483 0.0
C1404 C 0.88849 0.33396 0.44946 0.0
C1405 C 0.92812 0.2993 0.42654 0.0
C1406 C 0.92872 0.27861 0.42112 0.0
C1407 C 0.94632 0.31088 0.42634 0.0
C1408 C 0.9465 0.33305 0.43068 0.0
C1409 C 0.95739 0.34061 0.4475 0.0
C1410 C 0.95742 0.36151 0.45173 0.0
C1411 C 0.94672 0.37498 0.43915 0.0
C1412 C 0.93605 0.3676 0.42225 0.0
C1413 C 0.93597 0.34672 0.41796 0.0
H1414 H 0.94676 0.39115 0.44245 0.0
H1415 H 0.94561 0.19146 0.38967 0.0
H1416 H 0.03031 0.24917 0.85371 0.0
H1417 H 0.0173 0.28092 0.83891 0.0
H1418 H 0.95648 0.25599 0.83888 0.0
H1419 H 0.96909 0.22473 0.85453 0.0
H1420 H 0.96876 0.27644 0.80158 0.0
H1421 H 0.96908 0.28537 0.87633 0.0
H1422 H 0.98737 0.28657 0.90918 0.0
H1423 H 0.02606 0.33415 0.88625 0.0
H1424 H 0.00816 0.333 0.85314 0.0
H1425 H 0.88655 0.34101 0.80857 0.0
H1426 H 0.91433 0.31648 0.81093 0.0
H1427 H 0.9575 0.36575 0.81751 0.0
H1428 H 0.92927 0.39047 0.81581 0.0
H1429 H 0.96419 0.33786 0.84555 0.0
H1430 H 0.95799 0.33559 0.77427 0.0
H1431 H 0.94117 0.33449 0.74069 0.0
H1432 H 0.91634 0.27556 0.75465 0.0
H1433 H 0.93273 0.27641 0.78845 0.0
C1434 C 0.0141 0.25062 0.85104 0.0
C1435 C 0.0006 0.2347 0.85603 0.0
C1436 C 0.00678 0.26863 0.84224 0.0
C1437 C 0.98596 0.27074 0.83792 0.0
C1438 C 0.97263 0.25458 0.84208 0.0
C1439 C 0.97986 0.23677 0.85109 0.0
C1440 C 0.97747 0.29007 0.8301 0.0
C1441 C 0.96779 0.28997 0.81106 0.0
C1442 C 0.97711 0.30792 0.84215 0.0
C1443 C 0.98746 0.30894 0.86222 0.0
C1444 C 0.98157 0.296 0.87826 0.0
C1445 C 0.99186 0.29667 0.89693 0.0
C1446 C 0.00792 0.31037 0.89978 0.0
C1447 C 0.01365 0.32351 0.88401 0.0
C1448 C 0.00344 0.32286 0.86529 0.0
C1449 C 0.902 0.34659 0.8103 0.0
C1450 C 0.90587 0.36751 0.81211 0.0
C1451 C 0.91791 0.3326 0.81144 0.0
C1452 C 0.93809 0.33926 0.81408 0.0
C1453 C 0.94207 0.36028 0.81533 0.0
C1454 C 0.92603 0.37435 0.81427 0.0
C1455 C 0.95441 0.32395 0.81736 0.0
C1456 C 0.96564 0.32473 0.83559 0.0
C1457 C 0.95646 0.30682 0.80437 0.0
C1458 C 0.9466 0.3061 0.78397 0.0
C1459 C 0.94885 0.32243 0.77024 0.0
C1460 C 0.93939 0.32185 0.75115 0.0
C1461 C 0.92769 0.30497 0.74554 0.0
C1462 C 0.92544 0.28862 0.75901 0.0
C1463 C 0.93485 0.28912 0.77813 0.0
H1464 H 0.92037 0.30455 0.73075 0.0
H1465 H 0.01588 0.31085 0.91423 0.0
H1466 H 0.38531 0.15358 0.5362 0.0
H1467 H 0.41348 0.17811 0.53838 0.0
H1468 H 0.39112 0.19868 0.5967 0.0
H1469 H 0.36312 0.17383 0.59471 0.0
H1470 H 0.41098 0.23041 0.56401 0.0
H1471 H 0.4228 0.16985 0.60839 0.0
H1472 H 0.42147 0.13261 0.61381 0.0
H1473 H 0.45645 0.12315 0.55927 0.0
H1474 H 0.45812 0.16038 0.55368 0.0
H1475 H 0.49556 0.26562 0.62156 0.0
H1476 H 0.46411 0.2523 0.60686 0.0
H1477 H 0.49919 0.21346 0.56691 0.0
H1478 H 0.53074 0.22646 0.58203 0.0
H1479 H 0.47246 0.19204 0.58591 0.0
H1480 H 0.46939 0.25457 0.54889 0.0
H1481 H 0.47022 0.29181 0.54387 0.0
H1482 H 0.41802 0.2986 0.58281 0.0
H1483 H 0.41704 0.26142 0.58831 0.0
C1484 C 0.38608 0.16386 0.54911 0.0
C1485 C 0.37226 0.16199 0.56531 0.0
C1486 C 0.40207 0.17782 0.55033 0.0
C1487 C 0.4042 0.19017 0.56764 0.0
C1488 C 0.38948 0.1894 0.58313 0.0
C1489 C 0.37363 0.17524 0.58203 0.0
C1490 C 0.42353 0.201 0.57122 0.0
C1491 C 0.42448 0.22219 0.56887 0.0
C1492 C 0.44107 0.19006 0.5771 0.0
C1493 C 0.44047 0.16778 0.58056 0.0
C1494 C 0.43018 0.15979 0.59757 0.0
C1495 C 0.42941 0.13872 0.6007 0.0
C1496 C 0.43875 0.12552 0.58684 0.0
C1497 C 0.44916 0.13338 0.56996 0.0
C1498 C 0.45011 0.15446 0.56685 0.0
C1499 C 0.49657 0.25473 0.6092 0.0
C1500 C 0.51554 0.24722 0.60272 0.0
C1501 C 0.47857 0.24712 0.60078 0.0
C1502 C 0.47926 0.23205 0.58558 0.0
C1503 C 0.49828 0.22512 0.57858 0.0
C1504 C 0.51626 0.23253 0.58719 0.0
C1505 C 0.46027 0.22182 0.57882 0.0
C1506 C 0.45925 0.20052 0.58069 0.0
C1507 C 0.44276 0.23281 0.57246 0.0
C1508 C 0.44323 0.25519 0.56912 0.0
C1509 C 0.45817 0.26401 0.55651 0.0
C1510 C 0.45865 0.28511 0.55355 0.0
C1511 C 0.4442 0.29757 0.56305 0.0
C1512 C 0.42921 0.28893 0.57547 0.0
C1513 C 0.42866 0.26784 0.57849 0.0
H1514 H 0.44461 0.3139 0.56074 0.0
H1515 H 0.43791 0.10922 0.58921 0.0
H1516 H 0.58555 0.63046 0.28226 0.0
H1517 H 0.55674 0.65315 0.28944 0.0
H1518 H 0.57743 0.65957 0.35162 0.0
H1519 H 0.60519 0.63581 0.34486 0.0
H1520 H 0.53831 0.66024 0.35175 0.0
H1521 H 0.59058 0.69413 0.31221 0.0
H1522 H 0.61319 0.69888 0.28253 0.0
H1523 H 0.56109 0.70311 0.24309 0.0
H1524 H 0.53817 0.69815 0.27256 0.0
H1525 H 0.52486 0.76355 0.37873 0.0
H1526 H 0.53784 0.73044 0.3673 0.0
H1527 H 0.49158 0.72826 0.3206 0.0
H1528 H 0.47817 0.76136 0.33244 0.0
H1529 H 0.53578 0.7223 0.30853 0.0
H1530 H 0.48433 0.6967 0.35362 0.0
H1531 H 0.46523 0.69548 0.38599 0.0
H1532 H 0.51987 0.67896 0.41803 0.0
H1533 H 0.53939 0.68043 0.38592 0.0
C1534 C 0.5836 0.63634 0.29756 0.0
C1535 C 0.59778 0.63172 0.31292 0.0
C1536 C 0.56726 0.64944 0.30162 0.0
C1537 C 0.56516 0.65846 0.32096 0.0
C1538 C 0.57873 0.65292 0.33655 0.0
C1539 C 0.59478 0.63957 0.3326 0.0
C1540 C 0.55004 0.67489 0.32475 0.0
C1541 C 0.53771 0.67376 0.34224 0.0
C1542 C 0.54897 0.69246 0.3122 0.0
C1543 C 0.56269 0.6955 0.29451 0.0
C1544 C 0.58396 0.69594 0.29718 0.0
C1545 C 0.59683 0.69868 0.28041 0.0
C1546 C 0.58858 0.70122 0.26092 0.0
C1547 C 0.56745 0.70109 0.25819 0.0
C1548 C 0.55452 0.69831 0.27491 0.0
C1549 C 0.51738 0.75587 0.36616 0.0
C1550 C 0.50056 0.76477 0.35644 0.0
C1551 C 0.52471 0.737 0.35972 0.0
C1552 C 0.51553 0.72694 0.34324 0.0
C1553 C 0.49871 0.73581 0.33344 0.0
C1554 C 0.49109 0.75458 0.34018 0.0
C1555 C 0.52461 0.70778 0.33574 0.0
C1556 C 0.53588 0.70846 0.31762 0.0
C1557 C 0.52514 0.6901 0.34802 0.0
C1558 C 0.51336 0.68877 0.36733 0.0
C1559 C 0.49231 0.69293 0.36758 0.0
C1560 C 0.4814 0.69218 0.38589 0.0
C1561 C 0.49133 0.68717 0.40405 0.0
C1562 C 0.51219 0.68283 0.40394 0.0
C1563 C 0.52318 0.68359 0.38568 0.0
H1564 H 0.48287 0.68662 0.41821 0.0
H1565 H 0.59857 0.70335 0.24795 0.0
H1566 H 0.97054 0.76876 0.08557 0.0
H1567 H 0.00309 0.78174 0.07235 0.0
H1568 H 0.03544 0.74734 0.11811 0.0
H1569 H 0.00305 0.7341 0.13115 0.0
H1570 H 0.04117 0.79221 0.1168 0.0
H1571 H 0.04367 0.73228 0.07479 0.0
H1572 H 0.03035 0.70753 0.04985 0.0
H1573 H 0.02554 0.75487 0.00489 0.0
H1574 H 0.03854 0.78 0.02967 0.0
H1575 H 0.13667 0.83062 0.09066 0.0
H1576 H 0.11074 0.80455 0.0975 0.0
H1577 H 0.07771 0.82343 0.04375 0.0
H1578 H 0.10406 0.84905 0.03665 0.0
H1579 H 0.0739 0.78315 0.04915 0.0
H1580 H 0.06532 0.84335 0.08997 0.0
H1581 H 0.07548 0.87046 0.11399 0.0
H1582 H 0.08831 0.82552 0.15983 0.0
H1583 H 0.07829 0.79812 0.13604 0.0
C1584 C 0.98466 0.76365 0.09246 0.0
C1585 C 0.9844 0.75029 0.10917 0.0
C1586 C 0.00317 0.77096 0.08487 0.0
C1587 C 0.02156 0.7653 0.0942 0.0
C1588 C 0.02136 0.75162 0.11061 0.0
C1589 C 0.0029 0.74402 0.11795 0.0
C1590 C 0.04065 0.77566 0.08847 0.0
C1591 C 0.04863 0.78992 0.1022 0.0
C1592 C 0.04975 0.77314 0.06911 0.0
C1593 C 0.0419 0.75807 0.05417 0.0
C1594 C 0.03957 0.73747 0.05966 0.0
C1595 C 0.03213 0.72335 0.04553 0.0
C1596 C 0.02705 0.72963 0.02581 0.0
C1597 C 0.02946 0.75003 0.02017 0.0
C1598 C 0.03689 0.76421 0.03425 0.0
C1599 C 0.12416 0.82867 0.08004 0.0
C1600 C 0.12217 0.84157 0.06316 0.0
C1601 C 0.10933 0.81395 0.08399 0.0
C1602 C 0.09212 0.81234 0.07133 0.0
C1603 C 0.09086 0.82442 0.0537 0.0
C1604 C 0.10583 0.839 0.04965 0.0
C1605 C 0.07453 0.79966 0.07757 0.0
C1606 C 0.06669 0.78516 0.0639 0.0
C1607 C 0.06517 0.80227 0.09685 0.0
C1608 C 0.07131 0.81868 0.11116 0.0
C1609 C 0.07045 0.83925 0.10512 0.0
C1610 C 0.07614 0.85466 0.1187 0.0
C1611 C 0.08265 0.8497 0.13837 0.0
C1612 C 0.08334 0.82933 0.14456 0.0
C1613 C 0.07762 0.81385 0.13105 0.0
H1614 H 0.0871 0.86166 0.14884 0.0
H1615 H 0.0213 0.71868 0.01489 0.0
H1616 H 0.12151 0.52255 0.24622 0.0
H1617 H 0.1338 0.50985 0.21345 0.0
H1618 H 0.17674 0.47092 0.24447 0.0
H1619 H 0.1644 0.48357 0.27748 0.0
H1620 H 0.19047 0.49072 0.20442 0.0
H1621 H 0.13671 0.44954 0.23615 0.0
H1622 H 0.10295 0.44585 0.25231 0.0
H1623 H 0.0744 0.47129 0.19915 0.0
H1624 H 0.10808 0.47543 0.18282 0.0
H1625 H 0.20636 0.40214 0.14574 0.0
H1626 H 0.20075 0.42955 0.17046 0.0
H1627 H 0.14746 0.44883 0.13689 0.0
H1628 H 0.15292 0.42092 0.11245 0.0
H1629 H 0.13835 0.44441 0.17497 0.0
H1630 H 0.1908 0.4792 0.14006 0.0
H1631 H 0.22406 0.48435 0.12335 0.0
H1632 H 0.25469 0.47336 0.18016 0.0
H1633 H 0.22162 0.46782 0.19717 0.0
C1634 C 0.13413 0.51193 0.24608 0.0
C1635 C 0.1422 0.50418 0.26435 0.0
C1636 C 0.14105 0.50462 0.22734 0.0
C1637 C 0.15617 0.48953 0.22663 0.0
C1638 C 0.16519 0.48273 0.24479 0.0
C1639 C 0.15807 0.48984 0.26357 0.0
C1640 C 0.16017 0.47856 0.20742 0.0
C1641 C 0.1792 0.48051 0.19792 0.0
C1642 C 0.14513 0.46583 0.19874 0.0
C1643 C 0.12489 0.46301 0.20838 0.0
C1644 C 0.12324 0.4545 0.22799 0.0
C1645 C 0.10413 0.45231 0.23716 0.0
C1646 C 0.08655 0.45839 0.22678 0.0
C1647 C 0.08804 0.46662 0.20718 0.0
C1648 C 0.10713 0.46889 0.19796 0.0
C1649 C 0.19374 0.41256 0.14352 0.0
C1650 C 0.18009 0.40972 0.12736 0.0
C1651 C 0.19059 0.42826 0.1575 0.0
C1652 C 0.17381 0.44143 0.1554 0.0
C1653 C 0.16054 0.43892 0.13875 0.0
C1654 C 0.16365 0.4231 0.12481 0.0
C1655 C 0.16893 0.45615 0.17184 0.0
C1656 C 0.14964 0.45488 0.18102 0.0
C1657 C 0.18371 0.46964 0.18 0.0
C1658 C 0.20369 0.47295 0.16987 0.0
C1659 C 0.20463 0.47771 0.14897 0.0
C1660 C 0.22345 0.48073 0.13945 0.0
C1661 C 0.24148 0.47915 0.15068 0.0
C1662 C 0.24071 0.47458 0.17148 0.0
C1663 C 0.22192 0.47152 0.18108 0.0
H1664 H 0.25604 0.4815 0.14328 0.0
H1665 H 0.07176 0.45669 0.23391 0.0
H1666 H 0.71441 0.10911 0.84522 0.0
H1667 H 0.70855 0.08336 0.81881 0.0
H1668 H 0.66955 0.04997 0.85991 0.0
H1669 H 0.67546 0.07586 0.88645 0.0
H1670 H 0.69582 0.02516 0.82972 0.0
H1671 H 0.6423 0.07638 0.83334 0.0
H1672 H 0.63025 0.11177 0.83775 0.0
H1673 H 0.66648 0.13076 0.78662 0.0
H1674 H 0.67855 0.09538 0.78179 0.0
H1675 H 0.62741 0.98358 0.75355 0.0
H1676 H 0.64398 0.99776 0.78372 0.0
H1677 H 0.67704 0.04005 0.74576 0.0
H1678 H 0.66094 0.0256 0.71543 0.0
H1679 H 0.65415 0.05848 0.77598 0.0
H1680 H 0.70237 0.00346 0.76964 0.0
H1681 H 0.71297 0.96752 0.76675 0.0
H1682 H 0.68546 0.95438 0.8247 0.0
H1683 H 0.67443 0.99021 0.8278 0.0
C1684 C 0.70518 0.09588 0.84878 0.0
C1685 C 0.69528 0.09433 0.86764 0.0
C1686 C 0.70187 0.08122 0.83377 0.0
C1687 C 0.68857 0.06488 0.83747 0.0
C1688 C 0.67998 0.06241 0.85691 0.0
C1689 C 0.68331 0.07715 0.87197 0.0
C1690 C 0.68102 0.05281 0.82007 0.0
C1691 C 0.68653 0.03226 0.81803 0.0
C1692 C 0.66899 0.06221 0.8049 0.0
C1693 C 0.66138 0.08334 0.80728 0.0
C1694 C 0.64765 0.08812 0.82303 0.0
C1695 C 0.64075 0.10813 0.82555 0.0
C1696 C 0.64763 0.1235 0.8125 0.0
C1697 C 0.6612 0.11883 0.79673 0.0
C1698 C 0.66796 0.09879 0.79401 0.0
C1699 C 0.63881 0.9953 0.75149 0.0
C1700 C 0.6431 0.00326 0.73204 0.0
C1701 C 0.64816 0.0035 0.7688 0.0
C1702 C 0.6618 0.01986 0.76692 0.0
C1703 C 0.6666 0.02737 0.74749 0.0
C1704 C 0.65736 0.01914 0.73021 0.0
C1705 C 0.66921 0.03073 0.78522 0.0
C1706 C 0.6635 0.0512 0.78753 0.0
C1707 C 0.68074 0.02103 0.80069 0.0
C1708 C 0.68739 -0.00051 0.79885 0.0
C1709 C 0.69841 0.99288 0.78168 0.0
C1710 C 0.70454 0.97253 0.78002 0.0
C1711 C 0.69985 0.95866 0.7955 0.0
C1712 C 0.68906 0.96513 0.8127 0.0
C1713 C 0.68288 0.98547 0.81443 0.0
H1714 H 0.70461 0.94291 0.79419 0.0
H1715 H 0.6425 0.13904 0.81467 0.0
H1716 H 0.65137 0.90428 0.62031 0.0
H1717 H 0.68043 0.89914 0.59784 0.0
H1718 H 0.69084 0.96416 0.59622 0.0
H1719 H 0.66069 0.96936 0.61778 0.0
H1720 H 0.6916 0.95084 0.55998 0.0
H1721 H 0.72601 0.92964 0.61911 0.0
H1722 H 0.73175 0.91213 0.65187 0.0
H1723 H 0.72641 0.85404 0.62217 0.0
H1724 H 0.72032 0.87116 0.58928 0.0
H1725 H 0.76615 0.91739 0.4866 0.0
H1726 H 0.75526 0.93193 0.51947 0.0
H1727 H 0.71812 0.87877 0.53053 0.0
H1728 H 0.72877 0.86442 0.49777 0.0
H1729 H 0.7406 0.89349 0.56572 0.0
H1730 H 0.69643 0.91771 0.50967 0.0
H1731 H 0.69119 0.9359 0.47715 0.0
H1732 H 0.71744 0.99009 0.50288 0.0
H1733 H 0.72305 0.97209 0.53549 0.0
C1734 C 0.65993 0.91746 0.61523 0.0
C1735 C 0.65374 0.93721 0.62055 0.0
C1736 C 0.67679 0.91451 0.60266 0.0
C1737 C 0.68814 0.93124 0.59558 0.0
C1738 C 0.68242 0.951 0.60159 0.0
C1739 C 0.6653 0.95397 0.61396 0.0
C1740 C 0.70426 0.92799 0.58002 0.0
C1741 C 0.70276 0.93874 0.56156 0.0
C1742 C 0.7189 0.91221 0.58194 0.0
C1743 C 0.72267 0.90174 0.60169 0.0
C1744 C 0.72595 0.91313 0.61956 0.0
C1745 C 0.72927 0.90327 0.63817 0.0
C1746 C 0.72944 0.88199 0.6391 0.0
C1747 C 0.72631 0.87053 0.62142 0.0
C1748 C 0.72296 0.88031 0.60278 0.0
C1749 C 0.75598 0.90874 0.49631 0.0
C1750 C 0.74827 0.88984 0.48988 0.0
C1751 C 0.74979 0.91701 0.51498 0.0
C1752 C 0.73599 0.90633 0.52738 0.0
C1753 C 0.72893 0.88712 0.52123 0.0
C1754 C 0.73486 0.87903 0.50251 0.0
C1755 C 0.72708 0.91573 0.54579 0.0
C1756 C 0.72996 0.90612 0.56465 0.0
C1757 C 0.71393 0.93272 0.54439 0.0
C1758 C 0.71038 0.94352 0.52488 0.0
C1759 C 0.70121 0.93346 0.50833 0.0
C1760 C 0.69816 0.94373 0.4899 0.0
C1761 C 0.70404 0.96412 0.48793 0.0
C1762 C 0.71293 0.97428 0.50441 0.0
C1763 C 0.71605 0.96406 0.52286 0.0
H1764 H 0.70166 0.97205 0.47366 0.0
H1765 H 0.73201 0.87439 0.65352 0.0
H1766 H 0.87065 0.96382 0.2363 0.0
H1767 H 0.85342 0.95311 0.26752 0.0
H1768 H 0.82477 0.01211 0.2723 0.0
H1769 H 0.84146 0.02272 0.2405 0.0
H1770 H 0.84281 0.99791 0.30934 0.0
H1771 H 0.7952 0.97612 0.25971 0.0
H1772 H 0.7835 0.96021 0.22773 0.0
H1773 H 0.80619 0.9022 0.24788 0.0
H1774 H 0.81831 0.91781 0.27986 0.0
H1775 H 0.78007 0.91312 0.36998 0.0
H1776 H 0.78191 0.94019 0.34427 0.0
H1777 H 0.84688 0.94466 0.35389 0.0
H1778 H 0.84486 0.91817 0.38 0.0
H1779 H 0.80073 0.93507 0.31016 0.0
H1780 H 0.86596 0.98893 0.3388 0.0
H1781 H 0.87639 0.00568 0.37078 0.0
H1782 H 0.81503 0.00189 0.39326 0.0
H1783 H 0.80413 0.98539 0.3613 0.0
C1784 C 0.86064 0.9745 0.24395 0.0
C1785 C 0.85784 0.99429 0.2363 0.0
C1786 C 0.85081 0.96837 0.26176 0.0
C1787 C 0.83788 0.98186 0.27218 0.0
C1788 C 0.83486 0.00159 0.26453 0.0
C1789 C 0.84457 0.00768 0.24653 0.0
C1790 C 0.82787 0.97505 0.29118 0.0
C1791 C 0.83338 0.98433 0.30963 0.0
C1792 C 0.81506 0.95773 0.29136 0.0
C1793 C 0.80773 0.94818 0.27217 0.0
C1794 C 0.79782 0.96 0.25727 0.0
C1795 C 0.79109 0.95103 0.23914 0.0
C1796 C 0.79411 0.93021 0.23576 0.0
C1797 C 0.80385 0.91832 0.25052 0.0
C1798 C 0.81062 0.92722 0.26867 0.0
C1799 C 0.79456 0.92049 0.3671 0.0
C1800 C 0.81235 0.91365 0.3768 0.0
C1801 C 0.79563 0.93584 0.35236 0.0
C1802 C 0.81451 0.94453 0.34716 0.0
C1803 C 0.83207 0.93852 0.35786 0.0
C1804 C 0.83097 0.92328 0.37265 0.0
C1805 C 0.81657 0.95724 0.32858 0.0
C1806 C 0.80963 0.94901 0.31007 0.0
C1807 C 0.82782 0.97566 0.32843 0.0
C1808 C 0.83424 0.98583 0.34763 0.0
C1809 C 0.85464 0.9918 0.35049 0.0
C1810 C 0.86065 0.00122 0.36864 0.0
C1811 C 0.84639 0.00482 0.38406 0.0
C1812 C 0.82608 0.99904 0.38133 0.0
C1813 C 0.81998 0.98962 0.36321 0.0
H1814 H 0.85108 0.0121 0.3981 0.0
H1815 H 0.7889 0.92329 0.22172 0.0
H1816 H 0.84617 0.02556 0.10946 0.0
H1817 H 0.81947 0.02907 0.08341 0.0
H1818 H 0.80597 0.08958 0.10541 0.0
H1819 H 0.83293 0.08619 0.13118 0.0
H1820 H 0.77018 0.0641 0.09099 0.0
H1821 H 0.83736 0.09036 0.07063 0.0
H1822 H 0.87455 0.08712 0.06582 0.0
H1823 H 0.86541 0.03435 0.02816 0.0
H1824 H 0.82815 0.03731 0.03275 0.0
H1825 H 0.73651 0.1237 0.00741 0.0
H1826 H 0.75004 0.10731 0.038 0.0
H1827 H 0.77532 0.05907 0.00096 0.0
H1828 H 0.76251 0.07601 0.97029 0.0
H1829 H 0.80316 0.07302 0.02346 0.0
H1830 H 0.73549 0.05134 0.03729 0.0
H1831 H 0.69827 0.05437 0.04155 0.0
H1832 H 0.70697 0.09623 0.09113 0.0
H1833 H 0.74426 0.09369 0.08699 0.0
C1834 C 0.83702 0.03931 0.10906 0.0
C1835 C 0.84143 0.05565 0.1221 0.0
C1836 C 0.82184 0.0413 0.09427 0.0
C1837 C 0.81084 0.05958 0.09256 0.0
C1838 C 0.8142 0.07531 0.10666 0.0
C1839 C 0.82957 0.07341 0.12126 0.0
C1840 C 0.79839 0.06361 0.07427 0.0
C1841 C 0.77725 0.06609 0.07617 0.0
C1842 C 0.80769 0.0657 0.05497 0.0
C1843 C 0.83004 0.06391 0.05222 0.0
C1844 C 0.84331 0.07798 0.06145 0.0
C1845 C 0.86438 0.07623 0.05873 0.0
C1846 C 0.87234 0.06047 0.0468 0.0
C1847 C 0.85923 0.04651 0.03745 0.0
C1848 C 0.83814 0.04825 0.04006 0.0
C1849 C 0.74445 0.1093 0.00591 0.0
C1850 C 0.74843 0.101 0.9866 0.0
C1851 C 0.75213 0.09988 0.02341 0.0
C1852 C 0.76356 0.0818 0.02187 0.0
C1853 C 0.76657 0.07299 0.00257 0.0
C1854 C 0.75925 0.08263 0.98507 0.0
C1855 C 0.77461 0.07366 0.03988 0.0
C1856 C 0.79572 0.07057 0.03804 0.0
C1857 C 0.76513 0.07086 0.05912 0.0
C1858 C 0.7427 0.07242 0.06173 0.0
C1859 C 0.72947 0.06131 0.04901 0.0
C1860 C 0.70836 0.06292 0.05142 0.0
C1861 C 0.70026 0.07551 0.06658 0.0
C1862 C 0.71327 0.08648 0.07939 0.0
C1863 C 0.7344 0.08494 0.07704 0.0
H1864 H 0.68391 0.07674 0.06842 0.0
H1865 H 0.88866 0.05913 0.04474 0.0
H1866 H 0.37982 0.47963 0.74427 0.0
H1867 H 0.36746 0.49465 0.7125 0.0
H1868 H 0.32903 0.53561 0.74672 0.0
H1869 H 0.34116 0.52043 0.77863 0.0
H1870 H 0.31089 0.52057 0.70969 0.0
H1871 H 0.37383 0.55157 0.7345 0.0
H1872 H 0.40966 0.55011 0.74582 0.0
H1873 H 0.42709 0.52401 0.68833 0.0
H1874 H 0.39127 0.52506 0.6768 0.0
H1875 H 0.29958 0.61197 0.65538 0.0
H1876 H 0.30587 0.58395 0.67919 0.0
H1877 H 0.34947 0.55804 0.63718 0.0
H1878 H 0.34361 0.5866 0.61364 0.0
H1879 H 0.36495 0.55959 0.67386 0.0
H1880 H 0.30324 0.53456 0.64631 0.0
H1881 H 0.26754 0.53542 0.63462 0.0
H1882 H 0.24752 0.54875 0.69551 0.0
H1883 H 0.28314 0.54829 0.70755 0.0
C1884 C 0.36818 0.4913 0.74503 0.0
C1885 C 0.36124 0.49874 0.76389 0.0
C1886 C 0.36126 0.49997 0.72687 0.0
C1887 C 0.3474 0.51624 0.72733 0.0
C1888 C 0.33964 0.52297 0.74609 0.0
C1889 C 0.34666 0.5144 0.76426 0.0
C1890 C 0.34283 0.52791 0.70862 0.0
C1891 C 0.32262 0.52916 0.7018 0.0
C1892 C 0.35833 0.53854 0.69806 0.0
C1893 C 0.37988 0.53818 0.70488 0.0
C1894 C 0.38529 0.54539 0.72434 0.0
C1895 C 0.40559 0.54465 0.73078 0.0
C1896 C 0.42064 0.53692 0.71783 0.0
C1897 C 0.41542 0.52997 0.69837 0.0
C1898 C 0.39512 0.53063 0.69187 0.0
C1899 C 0.31039 0.60017 0.65125 0.0
C1900 C 0.32115 0.60128 0.63284 0.0
C1901 C 0.31382 0.58408 0.66471 0.0
C1902 C 0.32791 0.56871 0.65982 0.0
C1903 C 0.33844 0.56966 0.64118 0.0
C1904 C 0.33505 0.58586 0.62775 0.0
C1905 C 0.33281 0.55272 0.67502 0.0
C1906 C 0.35315 0.55068 0.6813 0.0
C1907 C 0.31741 0.54126 0.68493 0.0
C1908 C 0.29591 0.54151 0.67781 0.0
C1909 C 0.29125 0.53783 0.6572 0.0
C1910 C 0.27102 0.53822 0.65051 0.0
C1911 C 0.25528 0.54217 0.66431 0.0
C1912 C 0.25974 0.54569 0.68484 0.0
C1913 C 0.27995 0.54534 0.69161 0.0
H1914 H 0.23962 0.54246 0.6591 0.0
H1915 H 0.43635 0.53636 0.72284 0.0
H1916 H 0.17037 0.56874 0.36319 0.0
H1917 H 0.1968 0.57531 0.38905 0.0
H1918 H 0.15332 0.56218 0.43665 0.0
H1919 H 0.12717 0.5553 0.41096 0.0
H1920 H 0.17184 0.60193 0.43767 0.0
H1921 H 0.18956 0.5304 0.43019 0.0
H1922 H 0.20066 0.50026 0.41065 0.0
H1923 H 0.25615 0.53088 0.39426 0.0
H1924 H 0.24523 0.56134 0.41347 0.0
H1925 H 0.21939 0.60375 0.5315 0.0
H1926 H 0.20151 0.59286 0.50091 0.0
H1927 H 0.25695 0.59878 0.46599 0.0
H1928 H 0.27535 0.60863 0.497 0.0
H1929 H 0.23605 0.56561 0.45443 0.0
H1930 H 0.2208 0.63563 0.46387 0.0
H1931 H 0.21028 0.66682 0.48201 0.0
H1932 H 0.1509 0.64126 0.49231 0.0
H1933 H 0.16117 0.60974 0.47459 0.0
C1934 C 0.16675 0.56672 0.37918 0.0
C1935 C 0.14684 0.5617 0.38525 0.0
C1936 C 0.18175 0.57049 0.39387 0.0
C1937 C 0.17688 0.56932 0.41467 0.0
C1938 C 0.15729 0.56321 0.42064 0.0
C1939 C 0.14242 0.5593 0.40602 0.0
C1940 C 0.19128 0.57653 0.43036 0.0
C1941 C 0.18581 0.59392 0.44149 0.0
C1942 C 0.2099 0.56657 0.43454 0.0
C1943 C 0.21646 0.54824 0.42305 0.0
C1944 C 0.20403 0.53079 0.42224 0.0
C1945 C 0.21031 0.51363 0.41127 0.0
C1946 C 0.22907 0.51368 0.40116 0.0
C1947 C 0.24161 0.53087 0.40206 0.0
C1948 C 0.23539 0.54809 0.413 0.0
C1949 C 0.22787 0.60264 0.51736 0.0
C1950 C 0.24865 0.60774 0.51654 0.0
C1951 C 0.21758 0.59654 0.49985 0.0
C1952 C 0.22776 0.59561 0.48106 0.0
C1953 C 0.24874 0.59976 0.48029 0.0
C1954 C 0.25915 0.6057 0.49795 0.0
C1955 C 0.21617 0.59058 0.46237 0.0
C1956 C 0.2222 0.57377 0.45053 0.0
C1957 C 0.19811 0.60126 0.45728 0.0
C1958 C 0.19184 0.62022 0.46802 0.0
C1959 C 0.20556 0.63657 0.47016 0.0
C1960 C 0.19962 0.65433 0.48036 0.0
C1961 C 0.17995 0.656 0.48835 0.0
C1962 C 0.16615 0.63993 0.48614 0.0
C1963 C 0.17202 0.62211 0.47601 0.0
H1964 H 0.17538 0.66977 0.49622 0.0
H1965 H 0.23391 0.50037 0.39268 0.0
H1966 H 0.28141 0.39859 0.02382 0.0
H1967 H 0.29429 0.41327 0.99217 0.0
H1968 H 0.23324 0.41528 0.96787 0.0
H1969 H 0.22001 0.40157 4e-05 0.0
H1970 H 0.26425 0.39514 0.94254 0.0
H1971 H 0.25163 0.45808 0.97612 0.0
H1972 H 0.25197 0.48246 0.00473 0.0
H1973 H 0.31743 0.48195 0.00482 0.0
H1974 H 0.3175 0.45733 0.97641 0.0
H1975 H 0.31971 0.43188 0.85623 0.0
H1976 H 0.29245 0.43162 0.88204 0.0
H1977 H 0.33775 0.43594 0.92963 0.0
H1978 H 0.36469 0.43684 0.90398 0.0
H1979 H 0.30556 0.45842 0.9391 0.0
H1980 H 0.31803 0.38977 0.91344 0.0
H1981 H 0.31943 0.36332 0.88673 0.0
H1982 H 0.25601 0.37287 0.87352 0.0
H1983 H 0.25432 0.39959 0.90001 0.0
C1984 C 0.27067 0.40231 0.01185 0.0
C1985 C 0.24977 0.39825 0.01418 0.0
C1986 C 0.27805 0.41073 0.9938 0.0
C1987 C 0.26469 0.41526 0.97774 0.0
C1988 C 0.24376 0.41169 0.9801 0.0
C1989 C 0.2363 0.40356 0.99835 0.0
C1990 C 0.27312 0.42258 0.95821 0.0
C1991 C 0.27279 0.40928 0.9415 0.0
C1992 C 0.28447 0.44085 0.95712 0.0
C1993 C 0.28455 0.45577 0.97416 0.0
C1994 C 0.2661 0.46305 0.98232 0.0
C1995 C 0.26622 0.47694 0.9985 0.0
C1996 C 0.28471 0.48374 0.0066 0.0
C1997 C 0.30312 0.47669 0.99852 0.0
C1998 C 0.30309 0.46278 0.98235 0.0
C1999 C 0.32367 0.43314 0.87222 0.0
C2000 C 0.34416 0.43415 0.87827 0.0
C2001 C 0.30818 0.43292 0.8869 0.0
C2002 C 0.3131 0.43354 0.90776 0.0
C2003 C 0.33358 0.43548 0.91364 0.0
C2004 C 0.34896 0.4358 0.89903 0.0
C2005 C 0.29743 0.43055 0.92374 0.0
C2006 C 0.29642 0.44465 0.93981 0.0
C2007 C 0.28509 0.41284 0.92439 0.0
C2008 C 0.28612 0.39685 0.90847 0.0
C2009 C 0.30443 0.38633 0.90472 0.0
C2010 C 0.30527 0.37128 0.88964 0.0
C2011 C 0.28783 0.36647 0.87838 0.0
C2012 C 0.26951 0.37666 0.88221 0.0
C2013 C 0.26861 0.39176 0.89724 0.0
H2014 H 0.28851 0.3548 0.86673 0.0
H2015 H 0.28477 0.49449 0.01912 0.0
H2016 H 0.15209 0.31976 0.1606 0.0
H2017 H 0.14159 0.30341 0.19234 0.0
H2018 H 0.11917 0.25168 0.15855 0.0
H2019 H 0.12991 0.26781 0.12657 0.0
H2020 H 0.09339 0.26509 0.1923 0.0
H2021 H 0.16236 0.24569 0.17694 0.0
H2022 H 0.19816 0.25222 0.16749 0.0
H2023 H 0.20627 0.28797 0.22175 0.0
H2024 H 0.17039 0.28194 0.23134 0.0
H2025 H 0.12328 0.19407 0.28138 0.0
H2026 H 0.13147 0.21065 0.24905 0.0
H2027 H 0.09463 0.26241 0.26605 0.0
H2028 H 0.08626 0.24596 0.29844 0.0
H2029 H 0.14984 0.24694 0.2394 0.0
H2030 H 0.06899 0.27791 0.22298 0.0
H2031 H 0.03325 0.2697 0.2314 0.0
H2032 H 0.04916 0.20663 0.23889 0.0
H2033 H 0.08492 0.21442 0.23025 0.0
C2034 C 0.14466 0.30504 0.15983 0.0
C2035 C 0.14201 0.29498 0.14106 0.0
C2036 C 0.1387 0.29573 0.17799 0.0
C2037 C 0.12981 0.27631 0.17773 0.0
C2038 C 0.12605 0.26669 0.159 0.0
C2039 C 0.13224 0.2759 0.14078 0.0
C2040 C 0.12585 0.26552 0.1971 0.0
C2041 C 0.10568 0.26114 0.20263 0.0
C2042 C 0.14198 0.26008 0.21034 0.0
C2043 C 0.16363 0.26353 0.20475 0.0
C2044 C 0.17173 0.25509 0.18677 0.0
C2045 C 0.19204 0.25868 0.1814 0.0
C2046 C 0.20447 0.27054 0.19399 0.0
C2047 C 0.19662 0.2788 0.212 0.0
C2048 C 0.1763 0.27529 0.21742 0.0
C2049 C 0.11704 0.20907 0.27836 0.0
C2050 C 0.104 0.21864 0.29246 0.0
C2051 C 0.12179 0.21852 0.25988 0.0
C2052 C 0.11344 0.23761 0.25508 0.0
C2053 C 0.101 0.24754 0.26939 0.0
C2054 C 0.09632 0.23815 0.28793 0.0
C2055 C 0.11731 0.24686 0.23486 0.0
C2056 C 0.1375 0.25094 0.22913 0.0
C2057 C 0.1012 0.25173 0.22133 0.0
C2058 C 0.07966 0.24681 0.22617 0.0
C2059 C 0.06484 0.26228 0.22634 0.0
C2060 C 0.04458 0.2577 0.23116 0.0
C2061 C 0.03895 0.23767 0.23574 0.0
C2062 C 0.05356 0.22216 0.23542 0.0
C2063 C 0.07382 0.22665 0.23058 0.0
H2064 H 0.02327 0.23416 0.2395 0.0
H2065 H 0.22019 0.27331 0.1898 0.0
H2066 H 0.42115 0.37302 0.89774 0.0
H2067 H 0.43323 0.36139 0.93105 0.0
H2068 H 0.49528 0.37347 0.9128 0.0
H2069 H 0.48342 0.38454 0.87937 0.0
H2070 H 0.49388 0.34047 0.9359 0.0
H2071 H 0.46645 0.40891 0.93921 0.0
H2072 H 0.43964 0.43492 0.93482 0.0
H2073 H 0.40081 0.40237 0.97629 0.0
H2074 H 0.42732 0.376 0.9807 0.0
H2075 H 0.5464 0.36555 0.02493 0.0
H2076 H 0.52771 0.36953 0.99307 0.0
H2077 H 0.47376 0.34467 0.02122 0.0
H2078 H 0.49242 0.34041 0.05335 0.0
H2079 H 0.46741 0.38011 0.99476 0.0
H2080 H 0.49811 0.31374 0.99432 0.0
H2081 H 0.52638 0.28937 0.99885 0.0
H2082 H 0.56048 0.31969 0.95189 0.0
H2083 H 0.53254 0.34447 0.94732 0.0
C2084 C 0.4374 0.3728 0.90068 0.0
C2085 C 0.45132 0.37995 0.88601 0.0
C2086 C 0.44426 0.36625 0.91976 0.0
C2087 C 0.46511 0.36702 0.92456 0.0
C2088 C 0.47911 0.37284 0.90947 0.0
C2089 C 0.47229 0.37921 0.89035 0.0
C2090 C 0.47236 0.36331 0.94565 0.0
C2091 C 0.4881 0.34916 0.94874 0.0
C2092 C 0.46457 0.3744 0.9625 0.0
C2093 C 0.44876 0.39038 0.9601 0.0
C2094 C 0.45215 0.40725 0.94729 0.0
C2095 C 0.43701 0.42205 0.94481 0.0
C2096 C 0.41851 0.42026 0.95522 0.0
C2097 C 0.41514 0.40371 0.9682 0.0
C2098 C 0.43021 0.38883 0.97071 0.0
C2099 C 0.53049 0.36116 0.02452 0.0
C2100 C 0.52096 0.35247 0.04166 0.0
C2101 C 0.51986 0.36339 0.00626 0.0
C2102 C 0.4995 0.3571 0.0048 0.0
C2103 C 0.48953 0.3495 0.02211 0.0
C2104 C 0.50022 0.34707 0.04041 0.0
C2105 C 0.48913 0.35761 0.98481 0.0
C2106 C 0.47287 0.37116 0.98195 0.0
C2107 C 0.49657 0.34614 0.96813 0.0
C2108 C 0.51328 0.33105 0.97058 0.0
C2109 C 0.51169 0.3153 0.98505 0.0
C2110 C 0.52765 0.3014 0.98762 0.0
C2111 C 0.54523 0.30301 0.97569 0.0
C2112 C 0.54686 0.31848 0.96113 0.0
C2113 C 0.53095 0.33244 0.95853 0.0
H2114 H 0.55758 0.29224 0.97771 0.0
H2115 H 0.4068 0.43173 0.95326 0.0
H2116 H 0.37424 0.80153 0.78765 0.0
H2117 H 0.36579 0.7832 0.75634 0.0
H2118 H 0.40813 0.73555 0.77258 0.0
H2119 H 0.41682 0.7538 0.80385 0.0
H2120 H 0.41382 0.74894 0.73373 0.0
H2121 H 0.3577 0.72789 0.77555 0.0
H2122 H 0.32787 0.73223 0.798 0.0
H2123 H 0.29655 0.76489 0.75069 0.0
H2124 H 0.32639 0.76122 0.72811 0.0
H2125 H 0.38496 0.68141 0.65293 0.0
H2126 H 0.39391 0.69733 0.68553 0.0
H2127 H 0.34718 0.74276 0.67617 0.0
H2128 H 0.33772 0.72646 0.64412 0.0
H2129 H 0.34409 0.72886 0.71261 0.0
H2130 H 0.40006 0.75287 0.6718 0.0
H2131 H 0.42969 0.7498 0.64885 0.0
H2132 H 0.46081 0.71325 0.69338 0.0
H2133 H 0.43125 0.71589 0.7165 0.0
C2134 C 0.38162 0.78705 0.78469 0.0
C2135 C 0.39629 0.77918 0.79823 0.0
C2136 C 0.37671 0.77656 0.76681 0.0
C2137 C 0.38631 0.758 0.76218 0.0
C2138 C 0.40058 0.74988 0.77587 0.0
C2139 C 0.40546 0.76031 0.79378 0.0
C2140 C 0.38222 0.74757 0.74257 0.0
C2141 C 0.39861 0.74426 0.7292 0.0
C2142 C 0.3623 0.74199 0.7365 0.0
C2143 C 0.3444 0.74443 0.75019 0.0
C2144 C 0.34456 0.73621 0.77 0.0
C2145 C 0.32762 0.73852 0.78274 0.0
C2146 C 0.31033 0.74883 0.77578 0.0
C2147 C 0.30994 0.75686 0.75605 0.0
C2148 C 0.32688 0.75471 0.74329 0.0
C2149 C 0.37685 0.69498 0.65772 0.0
C2150 C 0.36065 0.7027 0.64604 0.0
C2151 C 0.38197 0.70408 0.67634 0.0
C2152 C 0.37127 0.72133 0.6833 0.0
C2153 C 0.35556 0.7294 0.67123 0.0
C2154 C 0.35023 0.72013 0.65286 0.0
C2155 C 0.37565 0.7305 0.70355 0.0
C2156 C 0.35931 0.73351 0.7171 0.0
C2157 C 0.39558 0.73604 0.70968 0.0
C2158 C 0.41335 0.73439 0.69578 0.0
C2159 C 0.41315 0.74404 0.67663 0.0
C2160 C 0.42995 0.7424 0.6636 0.0
C2161 C 0.4471 0.73129 0.66963 0.0
C2162 C 0.44751 0.72183 0.68872 0.0
C2163 C 0.43074 0.7234 0.70179 0.0
H2164 H 0.46009 0.73004 0.65953 0.0
H2165 H 0.29724 0.75061 0.78567 0.0
H2166 H 0.06697 0.64733 0.39419 0.0
H2167 H 0.05211 0.65664 0.42733 0.0
H2168 H 0.01879 0.59995 0.42832 0.0
H2169 H 0.03338 0.59063 0.3955 0.0
H2170 H 0.9952 0.63178 0.43994 0.0
H2171 H 0.06187 0.60464 0.45447 0.0
H2172 H 0.09934 0.60285 0.45211 0.0
H2173 H 0.10411 0.66333 0.47671 0.0
H2174 H 0.0666 0.66563 0.47887 0.0
H2175 H 0.9647 0.61758 0.54007 0.0
H2176 H 0.98359 0.61264 0.50844 0.0
H2177 H 0.01427 0.67012 0.51755 0.0
H2178 H 0.99583 0.67486 0.54973 0.0
H2179 H 0.03958 0.64197 0.5004 0.0
H2180 H 0.97194 0.66755 0.48764 0.0
H2181 H 0.93452 0.66735 0.49144 0.0
H2182 H 0.93172 0.608 0.46398 0.0
H2183 H 0.96917 0.60769 0.46031 0.0
C2184 C 0.05629 0.637 0.4014 0.0
C2185 C 0.0514 0.61823 0.3923 0.0
C2186 C 0.04793 0.64227 0.42035 0.0
C2187 C 0.0345 0.62888 0.43032 0.0
C2188 C 0.02913 0.61048 0.4209 0.0
C2189 C 0.03755 0.60516 0.40216 0.0
C2190 C 0.02615 0.63359 0.45077 0.0
C2191 C 0.00491 0.63395 0.45316 0.0
C2192 C 0.03885 0.63674 0.46794 0.0
C2193 C 0.06141 0.63542 0.46656 0.0
C2194 C 0.07089 0.61765 0.45917 0.0
C2195 C 0.09214 0.61652 0.45791 0.0
C2196 C 0.1041 0.63299 0.4642 0.0
C2197 C 0.09482 0.65061 0.47179 0.0
C2198 C 0.07357 0.65184 0.47303 0.0
C2199 C 0.97571 0.62902 0.53554 0.0
C2200 C 0.97859 0.64675 0.54723 0.0
C2201 C 0.98645 0.62621 0.51742 0.0
C2202 C -9e-05 0.64129 0.51038 0.0
C2203 C 0.00382 0.65838 0.52265 0.0
C2204 C 0.99328 0.66107 0.54101 0.0
C2205 C 0.00865 0.6398 0.48958 0.0
C2206 C 0.02991 0.6401 0.48712 0.0
C2207 C 0.99598 0.63711 0.4723 0.0
C2208 C 0.97338 0.63756 0.47381 0.0
C2209 C 0.96335 0.65443 0.48246 0.0
C2210 C 0.94214 0.6544 0.48462 0.0
C2211 C 0.93077 0.63764 0.47801 0.0
C2212 C 0.94057 0.62094 0.46912 0.0
C2213 C 0.96178 0.62088 0.46697 0.0
H2214 H 0.91435 0.63761 0.47974 0.0
H2215 H 0.12055 0.63207 0.46324 0.0
H2216 H 0.60681 0.17962 0.85582 0.0
H2217 H 0.5947 0.19576 0.82428 0.0
H2218 H 0.65593 0.21567 0.81093 0.0
H2219 H 0.66806 0.19988 0.84222 0.0
H2220 H 0.62839 0.24658 0.80768 0.0
H2221 H 0.63438 0.17597 0.77866 0.0
H2222 H 0.62615 0.13922 0.77771 0.0
H2223 H 0.5624 0.15296 0.7831 0.0
H2224 H 0.57021 0.18982 0.7832 0.0
H2225 H 0.62964 0.28011 0.70715 0.0
H2226 H 0.6353 0.26123 0.7387 0.0
H2227 H 0.57347 0.23874 0.73648 0.0
H2228 H 0.5682 0.25667 0.70411 0.0
H2229 H 0.59598 0.21017 0.74985 0.0
H2230 H 0.58908 0.27984 0.76854 0.0
H2231 H 0.59578 0.31679 0.76685 0.0
H2232 H 0.65823 0.30659 0.78361 0.0
H2233 H 0.65199 0.26954 0.78514 0.0
C2234 C 0.61768 0.18737 0.84611 0.0
C2235 C 0.63837 0.18858 0.85164 0.0
C2236 C 0.61076 0.19647 0.82803 0.0
C2237 C 0.62444 0.20686 0.81523 0.0
C2238 C 0.6451 0.20779 0.82061 0.0
C2239 C 0.652 0.19873 0.83855 0.0
C2240 C 0.6174 0.21767 0.79665 0.0
C2241 C 0.6214 0.23863 0.79496 0.0
C2242 C 0.60747 0.20754 0.78045 0.0
C2243 C 0.60287 0.18552 0.78119 0.0
C2244 C 0.61863 0.1711 0.77978 0.0
C2245 C 0.61405 0.15029 0.77932 0.0
C2246 C 0.59382 0.14375 0.78066 0.0
C2247 C 0.57808 0.15804 0.78217 0.0
C2248 C 0.58255 0.17888 0.78226 0.0
C2249 C 0.61733 0.27098 0.71332 0.0
C2250 C 0.59846 0.2699 0.70329 0.0
C2251 C 0.62049 0.26034 0.73146 0.0
C2252 C 0.60461 0.24906 0.74038 0.0
C2253 C 0.58592 0.24746 0.73001 0.0
C2254 C 0.58292 0.25767 0.71152 0.0
C2255 C 0.60761 0.23903 0.7605 0.0
C2256 C 0.60272 0.21829 0.76258 0.0
C2257 C 0.61636 0.24953 0.77726 0.0
C2258 C 0.62008 0.27187 0.77683 0.0
C2259 C 0.60426 0.28546 0.7718 0.0
C2260 C 0.60798 0.30643 0.77086 0.0
C2261 C 0.62742 0.31403 0.77508 0.0
C2262 C 0.64317 0.30068 0.78034 0.0
C2263 C 0.63955 0.27969 0.78128 0.0
H2264 H 0.63028 0.33027 0.77429 0.0
H2265 H 0.59033 0.12762 0.78038 0.0
H2266 H 0.57246 0.85287 0.60751 0.0
H2267 H 0.55898 0.83978 0.57507 0.0
H2268 H 0.52998 0.89774 0.56381 0.0
H2269 H 0.54299 0.91073 0.59591 0.0
H2270 H 0.50458 0.86673 0.55604 0.0
H2271 H 0.57526 0.8844 0.54121 0.0
H2272 H 0.61246 0.8813 0.5458 0.0
H2273 H 0.60938 0.81768 0.53059 0.0
H2274 H 0.57209 0.82037 0.52619 0.0
H2275 H 0.48196 0.88067 0.4555 0.0
H2276 H 0.50132 0.88334 0.48711 0.0
H2277 H 0.51946 0.82036 0.48163 0.0
H2278 H 0.50039 0.81772 0.44945 0.0
H2279 H 0.55003 0.84576 0.49924 0.0
H2280 H 0.47958 0.82968 0.50948 0.0
H2281 H 0.44264 0.83374 0.50375 0.0
H2282 H 0.44527 0.89466 0.5276 0.0
H2283 H 0.48229 0.89108 0.53318 0.0
C2284 C 0.5631 0.86274 0.59814 0.0
C2285 C 0.55882 0.88284 0.60431 0.0
C2286 C 0.5555 0.85528 0.57959 0.0
C2287 C 0.54357 0.86784 0.56698 0.0
C2288 C 0.5391 0.88776 0.57331 0.0
C2289 C 0.54663 0.89518 0.5917 0.0
C2290 C 0.53559 0.8607 0.54707 0.0
C2291 C 0.51453 0.86213 0.54364 0.0
C2292 C 0.5485 0.85408 0.53106 0.0
C2293 C 0.57088 0.85252 0.53363 0.0
C2294 C 0.5825 0.86971 0.53902 0.0
C2295 C 0.6036 0.86804 0.54155 0.0
C2296 C 0.61327 0.84929 0.53856 0.0
C2297 C 0.60186 0.83219 0.53295 0.0
C2298 C 0.58075 0.83377 0.53043 0.0
C2299 C 0.49048 0.86752 0.46074 0.0
C2300 C 0.48948 0.84892 0.4502 0.0
C2301 C 0.50149 0.86905 0.47882 0.0
C2302 C 0.51136 0.8519 0.48694 0.0
C2303 C 0.51182 0.83372 0.47565 0.0
C2304 C 0.50096 0.83225 0.45729 0.0
C2305 C 0.51919 0.8527 0.50811 0.0
C2306 C 0.54008 0.84995 0.51178 0.0
C2307 C 0.50614 0.85813 0.52444 0.0
C2308 C 0.48374 0.86013 0.52167 0.0
C2309 C 0.4723 0.84397 0.51344 0.0
C2310 C 0.45134 0.84619 0.51021 0.0
C2311 C 0.44162 0.86446 0.51528 0.0
C2312 C 0.45282 0.88051 0.52368 0.0
C2313 C 0.47378 0.87838 0.52692 0.0
H2314 H 0.4254 0.86616 0.51273 0.0
H2315 H 0.6296 0.84802 0.54052 0.0
H2316 H 0.86279 0.83049 0.34538 0.0
H2317 H 0.87754 0.81792 0.31349 0.0
H2318 H 0.86838 0.75596 0.33358 0.0
H2319 H 0.85392 0.76833 0.36555 0.0
H2320 H 0.90425 0.75997 0.31379 0.0
H2321 H 0.83391 0.77935 0.30292 0.0
H2322 H 0.80477 0.80311 0.30322 0.0
H2323 H 0.83668 0.84328 0.26253 0.0
H2324 H 0.86615 0.81985 0.26222 0.0
H2325 H 0.8898 0.70059 0.22613 0.0
H2326 H 0.88461 0.72023 0.25726 0.0
H2327 H 0.90456 0.77481 0.22652 0.0
H2328 H 0.91008 0.75516 0.19513 0.0
H2329 H 0.86769 0.77894 0.25028 0.0
H2330 H 0.93625 0.756 0.25758 0.0
H2331 H 0.96432 0.73101 0.25703 0.0
H2332 H 0.93495 0.69647 0.30426 0.0
H2333 H 0.90652 0.72108 0.30486 0.0
C2334 C 0.8642 0.81418 0.34314 0.0
C2335 C 0.85702 0.80039 0.35792 0.0
C2336 C 0.87257 0.80704 0.32488 0.0
C2337 C 0.87377 0.78601 0.32106 0.0
C2338 C 0.86757 0.77225 0.33622 0.0
C2339 C 0.85925 0.77936 0.35447 0.0
C2340 C 0.88021 0.77821 0.30085 0.0
C2341 C 0.89624 0.76408 0.29991 0.0
C2342 C 0.87005 0.78396 0.28267 0.0
C2343 C 0.85232 0.79799 0.28275 0.0
C2344 C 0.83477 0.79333 0.29417 0.0
C2345 C 0.81819 0.80672 0.29432 0.0
C2346 C 0.8189 0.82473 0.28296 0.0
C2347 C 0.83617 0.82935 0.27136 0.0
C2348 C 0.85282 0.81602 0.27119 0.0
C2349 C 0.89303 0.71679 0.22589 0.0
C2350 C 0.90037 0.72632 0.20814 0.0
C2351 C 0.89015 0.72795 0.24374 0.0
C2352 C 0.89442 0.74889 0.2442 0.0
C2353 C 0.9013 0.75862 0.22644 0.0
C2354 C 0.90445 0.74738 0.20856 0.0
C2355 C 0.89141 0.7604 0.26334 0.0
C2356 C 0.87599 0.77517 0.26409 0.0
C2357 C 0.90203 0.75514 0.28136 0.0
C2358 C 0.91916 0.74033 0.28115 0.0
C2359 C 0.93569 0.74299 0.26773 0.0
C2360 C 0.95168 0.72891 0.26743 0.0
C2361 C 0.9514 0.71214 0.28058 0.0
C2362 C 0.93514 0.70946 0.29408 0.0
C2363 C 0.91909 0.72349 0.29442 0.0
H2364 H 0.9638 0.70125 0.28032 0.0
H2365 H 0.80605 0.83508 0.28309 0.0
H2366 H 0.01781 0.12399 0.96203 0.0
H2367 H 0.99479 0.12139 0.99125 0.0
H2368 H 0.98126 0.18556 0.98664 0.0
H2369 H 0.0039 0.18816 0.95677 0.0
H2370 H 0.99721 0.16654 0.0278 0.0
H2371 H 0.94443 0.16321 0.97744 0.0
H2372 H 0.92838 0.15119 0.94565 0.0
H2373 H 0.92837 0.08983 0.96845 0.0
H2374 H 0.94475 0.10142 0.00026 0.0
H2375 H 0.93391 0.14646 0.11478 0.0
H2376 H 0.94526 0.16127 0.08235 0.0
H2377 H 0.94919 0.10101 0.05622 0.0
H2378 H 0.93752 0.08625 0.08812 0.0
H2379 H 0.93332 0.1261 0.02945 0.0
H2380 H 0.99141 0.12662 0.07496 0.0
H2381 H 0.01018 0.13581 0.10622 0.0
H2382 H 0.00287 0.19937 0.0923 0.0
H2383 H 0.98381 0.19053 0.06106 0.0
C2384 C 0.00969 0.13748 0.96703 0.0
C2385 C 0.01259 0.15627 0.95718 0.0
C2386 C 0.99656 0.13597 0.98368 0.0
C2387 C 0.9864 0.15328 0.99102 0.0
C2388 C 0.98897 0.17205 0.98107 0.0
C2389 C 0.00177 0.17347 0.96402 0.0
C2390 C 0.97418 0.15157 0.00986 0.0
C2391 C 0.9829 0.15824 0.0282 0.0
C2392 C 0.95588 0.14025 0.01026 0.0
C2393 C 0.94596 0.13319 0.99119 0.0
C2394 C 0.94118 0.14713 0.9756 0.0
C2395 C 0.93199 0.14039 0.95759 0.0
C2396 C 0.92739 0.11975 0.95502 0.0
C2397 C 0.93195 0.10581 0.97047 0.0
C2398 C 0.94116 0.11246 0.9885 0.0
C2399 C 0.93709 0.13641 0.10207 0.0
C2400 C 0.93497 0.11517 0.10411 0.0
C2401 C 0.94361 0.14489 0.08357 0.0
C2402 C 0.94824 0.13224 0.06688 0.0
C2403 C 0.94565 0.1111 0.06882 0.0
C2404 C 0.9391 0.10267 0.08718 0.0
C2405 C 0.9566 0.14059 0.04756 0.0
C2406 C 0.94724 0.13502 0.02911 0.0
C2407 C 0.97454 0.1526 0.04708 0.0
C2408 C 0.98594 0.15793 0.06586 0.0
C2409 C 0.99365 0.14255 0.07867 0.0
C2410 C 0.00437 0.1477 0.09636 0.0
C2411 C 0.00764 0.16816 0.10129 0.0
C2412 C 0.00026 0.18353 0.0885 0.0
C2413 C 0.9895 0.17846 0.0708 0.0
H2414 H 0.01595 0.17212 0.11499 0.0
H2415 H 0.92026 0.11457 0.94106 0.0
H2416 H 0.26538 0.10384 0.19599 0.0
H2417 H 0.2346 0.10837 0.21606 0.0
H2418 H 0.26799 0.09442 0.27102 0.0
H2419 H 0.29903 0.08898 0.25068 0.0
H2420 H 0.23128 0.07752 0.27255 0.0
H2421 H 0.25587 0.14413 0.25852 0.0
H2422 H 0.26929 0.17248 0.2378 0.0
H2423 H 0.21428 0.17309 0.20232 0.0
H2424 H 0.20063 0.14453 0.22263 0.0
H2425 H 0.14912 0.12617 0.33011 0.0
H2426 H 0.18175 0.11459 0.3161 0.0
H2427 H 0.15649 0.11662 0.25543 0.0
H2428 H 0.12391 0.1281 0.2692 0.0
H2429 H 0.19138 0.14076 0.26107 0.0
H2430 H 0.16812 0.07213 0.27579 0.0
H2431 H 0.15556 0.04471 0.29823 0.0
H2432 H 0.20927 0.04996 0.3353 0.0
H2433 H 0.22202 0.07762 0.31323 0.0
C2434 C 0.26626 0.10176 0.21235 0.0
C2435 C 0.28471 0.09634 0.2218 0.0
C2436 C 0.24862 0.10441 0.22383 0.0
C2437 C 0.24908 0.10226 0.24512 0.0
C2438 C 0.26734 0.09631 0.25463 0.0
C2439 C 0.28504 0.09328 0.24303 0.0
C2440 C 0.23039 0.10655 0.25714 0.0
C2441 C 0.22272 0.0915 0.27032 0.0
C2442 C 0.21919 0.12478 0.25423 0.0
C2443 C 0.22728 0.14208 0.24203 0.0
C2444 C 0.24668 0.15022 0.24622 0.0
C2445 C 0.25432 0.16634 0.23455 0.0
C2446 C 0.24266 0.17456 0.21873 0.0
C2447 C 0.2233 0.1667 0.21458 0.0
C2448 C 0.21559 0.15056 0.22618 0.0
C2449 C 0.15036 0.12368 0.31383 0.0
C2450 C 0.13399 0.1283 0.30073 0.0
C2451 C 0.16901 0.11703 0.30587 0.0
C2452 C 0.17152 0.1149 0.28474 0.0
C2453 C 0.15484 0.11827 0.27179 0.0
C2454 C 0.13621 0.1248 0.2797 0.0
C2455 C 0.19195 0.11145 0.27582 0.0
C2456 C 0.20002 0.12683 0.26337 0.0
C2457 C 0.20359 0.09374 0.27974 0.0
C2458 C 0.19591 0.07711 0.29299 0.0
C2459 C 0.17716 0.06758 0.28884 0.0
C2460 C 0.17003 0.05196 0.30147 0.0
C2461 C 0.18158 0.04564 0.31822 0.0
C2462 C 0.20032 0.05489 0.32234 0.0
C2463 C 0.20751 0.07053 0.30977 0.0
H2464 H 0.17603 0.03354 0.32798 0.0
H2465 H 0.24861 0.18703 0.20972 0.0
H2466 H 0.6697 0.55383 0.011 0.0
H2467 H 0.66494 0.5238 0.03272 0.0
H2468 H 0.62288 0.49871 0.98882 0.0
H2469 H 0.62731 0.52857 0.96723 0.0
H2470 H 0.60952 0.4932 0.0273 0.0
H2471 H 0.67287 0.485 0.98985 0.0
H2472 H 0.70755 0.49532 0.97971 0.0
H2473 H 0.72721 0.49186 0.04205 0.0
H2474 H 0.69248 0.482 0.05266 0.0
H2475 H 0.60463 0.38919 0.03676 0.0
H2476 H 0.61455 0.42252 0.02371 0.0
H2477 H 0.65203 0.43244 0.07684 0.0
H2478 H 0.64242 0.39858 0.08989 0.0
H2479 H 0.66909 0.44843 0.04064 0.0
H2480 H 0.60595 0.45099 0.07678 0.0
H2481 H 0.57133 0.43929 0.08547 0.0
H2482 H 0.55096 0.45311 0.02486 0.0
H2483 H 0.58563 0.46422 0.01551 0.0
C2484 C 0.65923 0.54203 0.00611 0.0
C2485 C 0.64899 0.54355 0.9873 0.0
C2486 C 0.65661 0.52486 0.0185 0.0
C2487 C 0.64375 0.50893 0.01226 0.0
C2488 C 0.6329 0.51081 0.99392 0.0
C2489 C 0.63551 0.5279 0.98155 0.0
C2490 C 0.64201 0.48982 0.02419 0.0
C2491 C 0.62253 0.48341 0.03021 0.0
C2492 C 0.6591 0.47733 0.0285 0.0
C2493 C 0.68002 0.48302 0.02208 0.0
C2494 C 0.68454 0.4866 0.00142 0.0
C2495 C 0.70421 0.49234 0.99558 0.0
C2496 C 0.71957 0.49426 0.01021 0.0
C2497 C 0.71529 0.49041 0.03073 0.0
C2498 C 0.69561 0.48477 0.03667 0.0
C2499 C 0.6153 0.39829 0.0455 0.0
C2500 C 0.62261 0.39144 0.06443 0.0
C2501 C 0.62091 0.41734 0.03805 0.0
C2502 C 0.6336 0.43013 0.04956 0.0
C2503 C 0.6421 0.42282 0.06782 0.0
C2504 C 0.63665 0.40351 0.07522 0.0
C2505 C 0.6365 0.45155 0.04302 0.0
C2506 C 0.65614 0.45841 0.03812 0.0
C2507 C 0.61953 0.46449 0.03964 0.0
C2508 C 0.59847 0.45837 0.04541 0.0
C2509 C 0.59413 0.45145 0.06526 0.0
C2510 C 0.57449 0.44491 0.07031 0.0
C2511 C 0.55894 0.44553 0.05577 0.0
C2512 C 0.56301 0.45266 0.03612 0.0
C2513 C 0.58267 0.45906 0.03092 0.0
H2514 H 0.54375 0.44046 0.05974 0.0
H2515 H 0.7348 0.49869 0.00564 0.0
H2516 H 0.19351 0.90532 0.76081 0.0
H2517 H 0.22388 0.89885 0.78156 0.0
H2518 H 0.25449 0.87374 0.72899 0.0
H2519 H 0.2242 0.87953 0.70841 0.0
H2520 H 0.26363 0.85201 0.76105 0.0
H2521 H 0.26139 0.92418 0.74524 0.0
H2522 H 0.24592 0.95847 0.74493 0.0
H2523 H 0.24358 0.95836 0.81038 0.0
H2524 H 0.25883 0.92395 0.81105 0.0
H2525 H 0.36716 0.86664 0.77569 0.0
H2526 H 0.33292 0.87558 0.7643 0.0
H2527 H 0.31275 0.8794 0.82675 0.0
H2528 H 0.34705 0.87019 0.83843 0.0
H2529 H 0.29644 0.91104 0.7953 0.0
H2530 H 0.30196 0.83908 0.81023 0.0
H2531 H 0.32125 0.80683 0.80902 0.0
H2532 H 0.31926 0.80769 0.74359 0.0
H2533 H 0.30026 0.84021 0.7444 0.0
C2534 C 0.20664 0.89822 0.75373 0.0
C2535 C 0.20646 0.8931 0.7329 0.0
C2536 C 0.22401 0.89461 0.7656 0.0
C2537 C 0.24159 0.8861 0.75675 0.0
C2538 C 0.24113 0.88032 0.73617 0.0
C2539 C 0.22378 0.88373 0.72438 0.0
C2540 C 0.26084 0.88395 0.76847 0.0
C2541 C 0.27072 0.86494 0.76854 0.0
C2542 C 0.27005 0.90071 0.77857 0.0
C2543 C 0.26102 0.92142 0.77818 0.0
C2544 C 0.25745 0.93143 0.75955 0.0
C2545 C 0.24874 0.95088 0.75932 0.0
C2546 C 0.24371 0.96056 0.77762 0.0
C2547 C 0.24744 0.95083 0.79621 0.0
C2548 C 0.25613 0.93135 0.79653 0.0
C2549 C 0.35563 0.86983 0.78706 0.0
C2550 C 0.35976 0.86744 0.80795 0.0
C2551 C 0.33607 0.87496 0.78051 0.0
C2552 C 0.32038 0.87794 0.79471 0.0
C2553 C 0.32475 0.87717 0.81561 0.0
C2554 C 0.34432 0.87185 0.82222 0.0
C2555 C 0.29912 0.87932 0.78746 0.0
C2556 C 0.289 0.89809 0.78819 0.0
C2557 C 0.28971 0.86241 0.77797 0.0
C2558 C 0.29983 0.84216 0.77738 0.0
C2559 C 0.30566 0.83241 0.79558 0.0
C2560 C 0.31657 0.81411 0.79497 0.0
C2561 C 0.32158 0.8053 0.77624 0.0
C2562 C 0.31542 0.8146 0.75808 0.0
C2563 C 0.30455 0.83295 0.75861 0.0
H2564 H 0.33026 0.79128 0.77582 0.0
H2565 H 0.23696 0.97562 0.77741 0.0
H2566 H 0.84593 0.44043 0.49712 0.0
H2567 H 0.85502 0.47177 0.51526 0.0
H2568 H 0.8678 0.50131 0.45784 0.0
H2569 H 0.85964 0.46993 0.43978 0.0
H2570 H 0.89519 0.51199 0.48346 0.0
H2571 H 0.82201 0.50865 0.4857 0.0
H2572 H 0.78865 0.49299 0.49313 0.0
H2573 H 0.80367 0.49036 0.55681 0.0
H2574 H 0.83725 0.50577 0.54971 0.0
H2575 H 0.89245 0.61447 0.51453 0.0
H2576 H 0.8816 0.58244 0.49898 0.0
H2577 H 0.87899 0.55424 0.55834 0.0
H2578 H 0.88964 0.58634 0.57413 0.0
H2579 H 0.84699 0.54251 0.53319 0.0
H2580 H 0.92028 0.54829 0.52956 0.0
H2581 H 0.9523 0.56594 0.52076 0.0
H2582 H 0.93552 0.56562 0.45748 0.0
H2583 H 0.90319 0.54833 0.46594 0.0
C2584 C 0.8508 0.45358 0.48841 0.0
C2585 C 0.85204 0.4527 0.46703 0.0
C2586 C 0.85588 0.47153 0.49877 0.0
C2587 C 0.86177 0.48906 0.48791 0.0
C2588 C 0.86333 0.48803 0.46659 0.0
C2589 C 0.85862 0.47004 0.45627 0.0
C2590 C 0.86618 0.50857 0.49858 0.0
C2591 C 0.88452 0.51873 0.49416 0.0
C2592 C 0.85246 0.51729 0.51282 0.0
C2593 C 0.83222 0.50817 0.51714 0.0
C2594 C 0.81825 0.50461 0.50127 0.0
C2595 C 0.79929 0.49579 0.50542 0.0
C2596 C 0.79406 0.49063 0.52542 0.0
C2597 C 0.80776 0.49434 0.54132 0.0
C2598 C 0.82675 0.50312 0.53724 0.0
C2599 C 0.88929 0.60156 0.52434 0.0
C2600 C 0.8921 0.60289 0.54556 0.0
C2601 C 0.88316 0.58325 0.51541 0.0
C2602 C 0.87986 0.5659 0.52749 0.0
C2603 C 0.88157 0.56745 0.54876 0.0
C2604 C 0.88768 0.58579 0.55773 0.0
C2605 C 0.87579 0.5459 0.51783 0.0
C2606 C 0.85761 0.53567 0.5225 0.0
C2607 C 0.88951 0.53726 0.50358 0.0
C2608 C 0.90922 0.54715 0.49841 0.0
C2609 C 0.92336 0.55208 0.51378 0.0
C2610 C 0.94156 0.56203 0.50885 0.0
C2611 C 0.94592 0.56693 0.48858 0.0
C2612 C 0.93211 0.56182 0.47318 0.0
C2613 C 0.91385 0.55195 0.47803 0.0
H2614 H 0.96 0.57466 0.48481 0.0
H2615 H 0.77938 0.48381 0.52861 0.0
H2616 H 0.77253 0.39929 0.80441 0.0
H2617 H 0.74116 0.39193 0.78605 0.0
H2618 H 0.77402 0.39311 0.72902 0.0
H2619 H 0.80551 0.40159 0.74741 0.0
H2620 H 0.7387 0.41075 0.72422 0.0
H2621 H 0.75984 0.34739 0.75406 0.0
H2622 H 0.77082 0.32443 0.78175 0.0
H2623 H 0.71442 0.33496 0.8133 0.0
H2624 H 0.70327 0.35826 0.78602 0.0
H2625 H 0.6593 0.35699 0.67102 0.0
H2626 H 0.6911 0.36926 0.68607 0.0
H2627 H 0.66164 0.37396 0.74472 0.0
H2628 H 0.62989 0.36143 0.72989 0.0
H2629 H 0.69621 0.35248 0.74698 0.0
H2630 H 0.67558 0.41647 0.71741 0.0
H2631 H 0.66464 0.43934 0.68964 0.0
H2632 H 0.71997 0.4267 0.65698 0.0
H2633 H 0.73112 0.40354 0.68444 0.0
C2634 C 0.77312 0.39794 0.78795 0.0
C2635 C 0.79152 0.40075 0.77734 0.0
C2636 C 0.75516 0.39365 0.77747 0.0
C2637 C 0.75529 0.3914 0.75618 0.0
C2638 C 0.77358 0.39462 0.74546 0.0
C2639 C 0.79155 0.3994 0.75596 0.0
C2640 C 0.73628 0.38564 0.7453 0.0
C2641 C 0.72957 0.39781 0.72899 0.0
C2642 C 0.72416 0.36895 0.75172 0.0
C2643 C 0.73079 0.35472 0.76805 0.0
C2644 C 0.74984 0.34492 0.76697 0.0
C2645 C 0.7561 0.33183 0.78261 0.0
C2646 C 0.74336 0.32829 0.79933 0.0
C2647 C 0.72431 0.33775 0.80039 0.0
C2648 C 0.71801 0.35089 0.78484 0.0
C2649 C 0.65949 0.36095 0.68705 0.0
C2650 C 0.6421 0.35811 0.6993 0.0
C2651 C 0.67768 0.36803 0.69561 0.0
C2652 C 0.67873 0.37255 0.71651 0.0
C2653 C 0.66116 0.37051 0.72856 0.0
C2654 C 0.64301 0.3634 0.72004 0.0
C2655 C 0.69847 0.3778 0.7262 0.0
C2656 C 0.70537 0.3654 0.7422 0.0
C2657 C 0.71076 0.39416 0.7194 0.0
C2658 C 0.70408 0.40811 0.70289 0.0
C2659 C 0.68533 0.41843 0.70423 0.0
C2660 C 0.67911 0.43148 0.68855 0.0
C2661 C 0.69158 0.43443 0.67153 0.0
C2662 C 0.71032 0.42438 0.67016 0.0
C2663 C 0.7166 0.41131 0.68579 0.0
H2664 H 0.68674 0.44454 0.65941 0.0
H2665 H 0.74823 0.31817 0.81143 0.0
H2666 H 0.40929 0.89753 0.46675 0.0
H2667 H 0.39761 0.92871 0.48345 0.0
H2668 H 0.35502 0.93924 0.43448 0.0
H2669 H 0.36642 0.90764 0.41776 0.0
H2670 H 0.3819 0.97363 0.44569 0.0
H2671 H 0.33473 0.92646 0.47538 0.0
H2672 H 0.3244 0.89472 0.49267 0.0
H2673 H 0.36086 0.91072 0.54464 0.0
H2674 H 0.37166 0.94244 0.52753 0.0
H2675 H 0.33418 0.05701 0.4977 0.0
H2676 H 0.34169 0.02621 0.47813 0.0
H2677 H 0.37701 0.00272 0.52841 0.0
H2678 H 0.3694 0.0333 0.54819 0.0
H2679 H 0.35086 0.97471 0.51469 0.0
H2680 H 0.39996 0.02003 0.48533 0.0
H2681 H 0.41231 0.05126 0.46845 0.0
H2682 H 0.37454 0.03856 0.4165 0.0
H2683 H 0.36174 0.00737 0.43321 0.0
C2684 C 0.39729 0.90637 0.45963 0.0
C2685 C 0.3887 0.90018 0.441 0.0
C2686 C 0.39063 0.92414 0.46919 0.0
C2687 C 0.37547 0.9362 0.46018 0.0
C2688 C 0.36673 0.93005 0.44163 0.0
C2689 C 0.37314 0.91199 0.4322 0.0
C2690 C 0.3694 0.95553 0.47005 0.0
C2691 C 0.3747 0.97396 0.46059 0.0
C2692 C 0.36062 0.95579 0.48972 0.0
C2693 C 0.35414 0.93675 0.50009 0.0
C2694 C 0.34069 0.92313 0.49042 0.0
C2695 C 0.33472 0.90516 0.5002 0.0
C2696 C 0.342 0.90068 0.51972 0.0
C2697 C 0.35524 0.9142 0.52951 0.0
C2698 C 0.36127 0.93219 0.51979 0.0
C2699 C 0.34373 0.04541 0.50454 0.0
C2700 C 0.35113 0.04762 0.52456 0.0
C2701 C 0.34805 0.02782 0.49329 0.0
C2702 C 0.35993 0.01218 0.5018 0.0
C2703 C 0.36773 0.01457 0.52158 0.0
C2704 C 0.36343 0.03212 0.53284 0.0
C2705 C 0.36355 0.99294 0.49047 0.0
C2706 C 0.35782 0.97449 0.49969 0.0
C2707 C 0.37214 0.99268 0.47066 0.0
C2708 C 0.3797 0.0115 0.46063 0.0
C2709 C 0.39413 0.024 0.47039 0.0
C2710 C 0.40124 0.04167 0.46084 0.0
C2711 C 0.39416 0.04693 0.44145 0.0
C2712 C 0.37998 0.03449 0.43155 0.0
C2713 C 0.3728 0.01681 0.44104 0.0
H2714 H 0.3997 0.06061 0.43407 0.0
H2715 H 0.33735 0.88677 0.52727 0.0
H2716 H 0.85445 0.64378 0.20766 0.0
H2717 H 0.82319 0.62837 0.22042 0.0
H2718 H 0.82114 0.58846 0.16818 0.0
H2719 H 0.85285 0.60387 0.15524 0.0
H2720 H 0.78367 0.60935 0.17667 0.0
H2721 H 0.83061 0.56654 0.21093 0.0
H2722 H 0.86137 0.55774 0.23066 0.0
H2723 H 0.8395 0.59313 0.28123 0.0
H2724 H 0.80874 0.60241 0.26171 0.0
H2725 H 0.69584 0.57169 0.23585 0.0
H2726 H 0.72654 0.57229 0.21429 0.0
H2727 H 0.75381 0.61661 0.25447 0.0
H2728 H 0.72358 0.61626 0.2758 0.0
H2729 H 0.7785 0.58268 0.24726 0.0
H2730 H 0.73602 0.63102 0.20984 0.0
H2731 H 0.70576 0.64106 0.1899 0.0
H2732 H 0.71959 0.59523 0.14522 0.0
H2733 H 0.7498 0.58472 0.16507 0.0
C2734 C 0.84751 0.63158 0.19894 0.0
C2735 C 0.8561 0.62501 0.18046 0.0
C2736 C 0.82967 0.62274 0.2063 0.0
C2737 C 0.81995 0.60719 0.19531 0.0
C2738 C 0.82851 0.60039 0.1769 0.0
C2739 C 0.84663 0.60911 0.16962 0.0
C2740 C 0.80037 0.59903 0.20301 0.0
C2741 C 0.78251 0.60294 0.19187 0.0
C2742 C 0.79892 0.59081 0.22288 0.0
C2743 C 0.81737 0.58522 0.2348 0.0
C2744 C 0.83241 0.57256 0.22621 0.0
C2745 C 0.84984 0.56747 0.23737 0.0
C2746 C 0.85239 0.57488 0.25718 0.0
C2747 C 0.83749 0.58738 0.26588 0.0
C2748 C 0.82003 0.59253 0.25479 0.0
C2749 C 0.70828 0.58176 0.2399 0.0
C2750 C 0.7073 0.59379 0.25766 0.0
C2751 C 0.7258 0.58204 0.2276 0.0
C2752 C 0.74249 0.59433 0.23296 0.0
C2753 C 0.74118 0.60684 0.25022 0.0
C2754 C 0.7238 0.60665 0.26237 0.0
C2755 C 0.76184 0.59397 0.22133 0.0
C2756 C 0.77965 0.58841 0.23179 0.0
C2757 C 0.7632 0.60067 0.20088 0.0
C2758 C 0.74496 0.60688 0.18909 0.0
C2759 C 0.73247 0.62292 0.19589 0.0
C2760 C 0.71536 0.62873 0.18457 0.0
C2761 C 0.7107 0.61873 0.16635 0.0
C2762 C 0.72318 0.60292 0.15937 0.0
C2763 C 0.74028 0.59703 0.17065 0.0
H2764 H 0.69747 0.62327 0.15759 0.0
H2765 H 0.8659 0.57092 0.26579 0.0
H2766 H 0.17457 0.9438 0.99215 0.0
H2767 H 0.1684 0.97347 0.97024 0.0
H2768 H 0.12347 0.99562 0.01287 0.0
H2769 H 0.12936 0.96618 0.03468 0.0
H2770 H 0.11054 0.99872 0.97343 0.0
H2771 H 0.17184 0.01433 0.01293 0.0
H2772 H 0.20723 0.0082 0.02409 0.0
H2773 H 0.22769 0.01112 0.96196 0.0
H2774 H 0.19236 0.01712 0.95042 0.0
H2775 H 0.09625 0.10191 0.96755 0.0
H2776 H 0.10872 0.06882 0.97891 0.0
H2777 H 0.14715 0.06466 0.92568 0.0
H2778 H 0.13485 0.09818 0.91425 0.0
H2779 H 0.1656 0.04944 0.96224 0.0
H2780 H 0.10503 0.04022 0.92357 0.0
H2781 H 0.06987 0.04813 0.91293 0.0
H2782 H 0.048 0.03295 0.97276 0.0
H2783 H 0.0831 0.02534 0.98389 0.0
C2784 C 0.16324 0.95491 0.99675 0.0
C2785 C 0.15251 0.95266 0.01521 0.0
C2786 C 0.15982 0.97187 0.98426 0.0
C2787 C 0.1456 0.98679 0.99003 0.0
C2788 C 0.1345 0.98427 0.00813 0.0
C2789 C 0.13795 0.96744 0.02062 0.0
C2790 C 0.14239 0.00544 0.97771 0.0
C2791 C 0.12258 0.00979 0.97095 0.0
C2792 C 0.15827 0.01955 0.97384 0.0
C2793 C 0.17946 0.01593 0.9808 0.0
C2794 C 0.18387 0.01349 0.00164 0.0
C2795 C 0.20391 0.01007 0.00804 0.0
C2796 C 0.21969 0.00919 0.99374 0.0
C2797 C 0.21545 0.01177 0.97301 0.0
C2798 C 0.19543 0.0152 0.96654 0.0
C2799 C 0.10757 0.09411 0.95838 0.0
C2800 C 0.11446 0.10252 0.93994 0.0
C2801 C 0.11466 0.07521 0.96487 0.0
C2802 C 0.12855 0.06417 0.95293 0.0
C2803 C 0.13637 0.07296 0.93505 0.0
C2804 C 0.12936 0.09207 0.92858 0.0
C2805 C 0.1336 0.04299 0.95879 0.0
C2806 C 0.15369 0.03814 0.96425 0.0
C2807 C 0.118 0.02831 0.96137 0.0
C2808 C 0.09674 0.03226 0.95459 0.0
C2809 C 0.09275 0.03864 0.93449 0.0
C2810 C 0.07282 0.04309 0.92837 0.0
C2811 C 0.05671 0.04104 0.94216 0.0
C2812 C 0.0605 0.0345 0.96209 0.0
C2813 C 0.08041 0.0301 0.96831 0.0
H2814 H 0.0413 0.04451 0.93741 0.0
H2815 H 0.2352 0.00659 0.99872 0.0
H2816 H 0.33464 0.15412 0.10395 0.0
H2817 H 0.32145 0.18739 0.09277 0.0
H2818 H 0.26824 0.17895 0.13052 0.0
H2819 H 0.28126 0.146 0.14172 0.0
H2820 H 0.25876 0.19549 0.09327 0.0
H2821 H 0.30711 0.20517 0.14812 0.0
H2822 H 0.34087 0.20188 0.16429 0.0
H2823 H 0.36785 0.23656 0.11573 0.0
H2824 H 0.33425 0.23969 0.09904 0.0
H2825 H 0.21718 0.28682 0.12356 0.0
H2826 H 0.23839 0.25648 0.1261 0.0
H2827 H 0.27803 0.27974 0.07911 0.0
H2828 H 0.25672 0.3104 0.07629 0.0
H2829 H 0.29774 0.25687 0.11437 0.0
H2830 H 0.24601 0.25117 0.06278 0.0
H2831 H 0.21092 0.25538 0.05013 0.0
H2832 H 0.18927 0.21279 0.09488 0.0
H2833 H 0.22415 0.20898 0.10841 0.0
C2834 C 0.31995 0.15923 0.1095 0.0
C2835 C 0.309 0.14756 0.12376 0.0
C2836 C 0.31251 0.17824 0.10321 0.0
C2837 C 0.29396 0.18566 0.11096 0.0
C2838 C 0.28257 0.1735 0.12435 0.0
C2839 C 0.29007 0.15471 0.13079 0.0
C2840 C 0.28675 0.20655 0.10638 0.0
C2841 C 0.26733 0.2089 0.09776 0.0
C2842 C 0.29808 0.22405 0.11204 0.0
C2843 C 0.31823 0.22242 0.12218 0.0
C2844 C 0.32028 0.21194 0.14079 0.0
C2845 C 0.33938 0.21012 0.15007 0.0
C2846 C 0.35652 0.21895 0.14102 0.0
C2847 C 0.35457 0.22967 0.1227 0.0
C2848 C 0.3355 0.23147 0.11331 0.0
C2849 C 0.2306 0.28576 0.11398 0.0
C2850 C 0.23505 0.3009 0.09945 0.0
C2851 C 0.24274 0.26841 0.11552 0.0
C2852 C 0.25956 0.26581 0.1026 0.0
C2853 C 0.26505 0.28153 0.08918 0.0
C2854 C 0.25283 0.29898 0.08756 0.0
C2855 C 0.26964 0.24568 0.10166 0.0
C2856 C 0.28948 0.24348 0.1093 0.0
C2857 C 0.25862 0.22825 0.0953 0.0
C2858 C 0.23772 0.22989 0.0867 0.0
C2859 C 0.23376 0.24281 0.07003 0.0
C2860 C 0.2139 0.24512 0.06269 0.0
C2861 C 0.19788 0.23429 0.07162 0.0
C2862 C 0.2017 0.22115 0.08795 0.0
C2863 C 0.22152 0.21895 0.0955 0.0
H2864 H 0.18251 0.23609 0.06588 0.0
H2865 H 0.3713 0.21753 0.14822 0.0
H2866 H 0.80194 0.3458 0.84555 0.0
H2867 H 0.78694 0.31447 0.85834 0.0
H2868 H 0.80646 0.32947 0.9193 0.0
H2869 H 0.82169 0.36134 0.90656 0.0
H2870 H 0.81353 0.2868 0.90567 0.0
H2871 H 0.75987 0.3362 0.91137 0.0
H2872 H 0.7381 0.36439 0.89932 0.0
H2873 H 0.71604 0.3269 0.85041 0.0
H2874 H 0.73801 0.29864 0.86186 0.0
H2875 H 0.7488 0.20282 0.93725 0.0
H2876 H 0.76786 0.23493 0.93496 0.0
H2877 H 0.7445 0.24432 0.87412 0.0
H2878 H 0.72497 0.21285 0.87666 0.0
H2879 H 0.73925 0.27706 0.89531 0.0
H2880 H 0.79545 0.23028 0.88505 0.0
H2881 H 0.81824 0.20183 0.89429 0.0
H2882 H 0.83608 0.23339 0.94882 0.0
H2883 H 0.8132 0.26194 0.94001 0.0
C2884 C 0.80316 0.34254 0.8617 0.0
C2885 C 0.81293 0.35617 0.87508 0.0
C2886 C 0.79454 0.32459 0.86896 0.0
C2887 C 0.79548 0.31979 0.88975 0.0
C2888 C 0.80559 0.33301 0.90319 0.0
C2889 C 0.81417 0.3512 0.89592 0.0
C2890 C 0.78527 0.30108 0.89704 0.0
C2891 C 0.79722 0.28472 0.90389 0.0
C2892 C 0.76407 0.29838 0.89429 0.0
C2893 C 0.75068 0.31532 0.88744 0.0
C2894 C 0.7505 0.33402 0.89795 0.0
C2895 C 0.73812 0.35001 0.89121 0.0
C2896 C 0.72574 0.34746 0.87406 0.0
C2897 C 0.72568 0.32889 0.86364 0.0
C2898 C 0.73808 0.31286 0.87027 0.0
C2899 C 0.74804 0.21162 0.92329 0.0
C2900 C 0.73535 0.20543 0.90716 0.0
C2901 C 0.75893 0.22995 0.92199 0.0
C2902 C 0.75759 0.24208 0.90437 0.0
C2903 C 0.74562 0.23535 0.88795 0.0
C2904 C 0.73452 0.21731 0.88938 0.0
C2905 C 0.76759 0.26235 0.90313 0.0
C2906 C 0.75552 0.27911 0.8975 0.0
C2907 C 0.78868 0.26525 0.90672 0.0
C2908 C 0.80243 0.24811 0.91201 0.0
C2909 C 0.80411 0.23107 0.8991 0.0
C2910 C 0.81706 0.21494 0.90424 0.0
C2911 C 0.82855 0.21576 0.92217 0.0
C2912 C 0.82714 0.23275 0.93496 0.0
C2913 C 0.81419 0.24891 0.9299 0.0
H2914 H 0.83857 0.20327 0.92612 0.0
H2915 H 0.71616 0.35986 0.86888 0.0
H2916 H 0.40052 0.08525 0.61713 0.0
H2917 H 0.43347 0.07509 0.63132 0.0
H2918 H 0.41406 0.01223 0.63147 0.0
H2919 H 0.38105 0.02225 0.61758 0.0
H2920 H 0.43589 0.0205 0.66483 0.0
H2921 H 0.44179 0.03217 0.59232 0.0
H2922 H 0.44001 0.05206 0.56047 0.0
H2923 H 0.48293 0.09519 0.58461 0.0
H2924 H 0.48468 0.07572 0.61679 0.0
H2925 H 0.51935 0.95779 0.64414 0.0
H2926 H 0.489 0.97893 0.64092 0.0
H2927 H 0.52332 0.03175 0.65966 0.0
H2928 H 0.55402 0.01049 0.66337 0.0
H2929 H 0.49655 0.03503 0.62196 0.0
H2930 H 0.49447 0.01791 0.69275 0.0
H2931 H 0.49698 0.99491 0.72237 0.0
H2932 H 0.4471 0.9593 0.69937 0.0
H2933 H 0.4445 0.9819 0.66943 0.0
C2934 C 0.40314 0.06929 0.6205 0.0
C2935 C 0.38823 0.0545 0.61603 0.0
C2936 C 0.42201 0.06352 0.62854 0.0
C2937 C 0.42632 0.04287 0.63216 0.0
C2938 C 0.41107 0.02825 0.62877 0.0
C2939 C 0.39222 0.03399 0.62075 0.0
C2940 C 0.44704 0.03614 0.63818 0.0
C2941 C 0.44915 0.02374 0.6555 0.0
C2942 C 0.46447 0.04074 0.62624 0.0
C2943 C 0.46315 0.05265 0.60706 0.0
C2944 C 0.45067 0.04602 0.59093 0.0
C2945 C 0.44971 0.05718 0.5728 0.0
C2946 C 0.46135 0.07487 0.57052 0.0
C2947 C 0.47394 0.08146 0.58639 0.0
C2948 C 0.47489 0.0704 0.6046 0.0
C2949 C 0.52057 0.97391 0.64752 0.0
C2950 C 0.53912 0.98247 0.65401 0.0
C2951 C 0.50316 0.98593 0.64576 0.0
C2952 C 0.50395 0.0068 0.65022 0.0
C2953 C 0.52248 0.01562 0.65626 0.0
C2954 C 0.53993 0.00347 0.65837 0.0
C2955 C 0.48518 0.01907 0.64827 0.0
C2956 C 0.48341 0.03239 0.63166 0.0
C2957 C 0.46802 0.01511 0.66068 0.0
C2958 C 0.46937 0.00156 0.67877 0.0
C2959 C 0.48413 0.00509 0.69392 0.0
C2960 C 0.48556 0.99213 0.71079 0.0
C2961 C 0.47223 0.97564 0.71274 0.0
C2962 C 0.45742 0.97209 0.69784 0.0
C2963 C 0.45594 0.98499 0.68093 0.0
H2964 H 0.47336 0.96562 0.72581 0.0
H2965 H 0.46061 0.08347 0.55645 0.0
H2966 H 0.67652 0.65009 0.38362 0.0
H2967 H 0.69053 0.68319 0.39411 0.0
H2968 H 0.73184 0.68193 0.34292 0.0
H2969 H 0.7181 0.64906 0.33247 0.0
H2970 H 0.75054 0.69531 0.3771 0.0
H2971 H 0.68864 0.70814 0.34001 0.0
H2972 H 0.6519 0.70471 0.33286 0.0
H2973 H 0.63777 0.73086 0.39121 0.0
H2974 H 0.67447 0.73409 0.39887 0.0
H2975 H 0.78226 0.79515 0.36539 0.0
H2976 H 0.76322 0.76423 0.35731 0.0
H2977 H 0.7264 0.77257 0.41118 0.0
H2978 H 0.74503 0.80394 0.4191 0.0
H2979 H 0.70456 0.75545 0.37886 0.0
H2980 H 0.76857 0.74523 0.41355 0.0
H2981 H 0.80554 0.75074 0.41719 0.0
H2982 H 0.81621 0.71968 0.3606 0.0
H2983 H 0.77919 0.71476 0.35611 0.0
C2984 C 0.68879 0.65676 0.37481 0.0
C2985 C 0.69614 0.64705 0.35717 0.0
C2986 C 0.69668 0.67569 0.38074 0.0
C2987 C 0.71206 0.68507 0.36914 0.0
C2988 C 0.71996 0.67497 0.35206 0.0
C2989 C 0.71203 0.6562 0.34607 0.0
C2990 C 0.71955 0.70577 0.37414 0.0
C2991 C 0.7405 0.70846 0.37743 0.0
C2992 C 0.70638 0.72287 0.37476 0.0
C2993 C 0.68431 0.72111 0.37013 0.0
C2994 C 0.6777 0.71299 0.3514 0.0
C2995 C 0.65688 0.7111 0.34724 0.0
C2996 C 0.64251 0.7175 0.3616 0.0
C2997 C 0.64893 0.72586 0.38012 0.0
C2998 C 0.66974 0.72772 0.38439 0.0
C2999 C 0.76981 0.79067 0.37529 0.0
C3000 C 0.76538 0.80175 0.39308 0.0
C3001 C 0.75895 0.773 0.37065 0.0
C3002 C 0.74378 0.76587 0.38395 0.0
C3003 C 0.73816 0.77777 0.40081 0.0
C3004 C 0.74886 0.79565 0.40533 0.0
C3005 C 0.73557 0.74498 0.3815 0.0
C3006 C 0.71454 0.74225 0.37878 0.0
C3007 C 0.7487 0.72782 0.38116 0.0
C3008 C 0.77105 0.72975 0.38443 0.0
C3009 C 0.77878 0.73962 0.40184 0.0
C3010 C 0.79975 0.74267 0.40405 0.0
C3011 C 0.81323 0.73549 0.3892 0.0
C3012 C 0.80575 0.72522 0.3721 0.0
C3013 C 0.78476 0.72235 0.36968 0.0
H3014 H 0.82946 0.7379 0.39093 0.0
H3015 H 0.62639 0.71603 0.35835 0.0
H3016 H 0.95048 0.99351 0.17588 0.0
H3017 H 0.98269 0.97488 0.17274 0.0
H3018 H 0.00121 0.01503 0.12405 0.0
H3019 H 0.96939 0.03393 0.12733 0.0
H3020 H 0.00131 0.95387 0.14345 0.0
H3021 H 0.0507 0.02606 0.1278 0.0
H3022 H 0.05043 0.0626 0.13673 0.0
H3023 H 0.01578 0.04954 0.19073 0.0
H3024 H 0.01613 0.0129 0.18231 0.0
H3025 H 0.09102 0.93167 0.09081 0.0
H3026 H 0.05896 0.94427 0.1044 0.0
H3027 H 0.08972 0.96468 0.15886 0.0
H3028 H 0.12226 0.95235 0.14507 0.0
H3029 H 0.0657 0.99358 0.14511 0.0
H3030 H 0.05657 0.92387 0.16065 0.0
H3031 H 0.05637 0.88668 0.1553 0.0
H3032 H 0.01123 0.8933 0.10837 0.0
H3033 H 0.01126 0.93058 0.1133 0.0
C3034 C 0.96133 0.99825 0.16438 0.0
C3035 C 0.95744 0.01535 0.15199 0.0
C3036 C 0.97974 0.98759 0.16262 0.0
C3037 C 0.99453 0.99384 0.14847 0.0
C3038 C 0.99023 0.01025 0.13543 0.0
C3039 C 0.97195 0.02097 0.13725 0.0
C3040 C 0.01467 0.98357 0.14746 0.0
C3041 C 0.01541 0.9625 0.1439 0.0
C3042 C 0.0331 0.99474 0.14884 0.0
C3043 C 0.03333 0.01672 0.15433 0.0
C3044 C 0.04316 0.03096 0.14166 0.0
C3045 C 0.04296 0.0517 0.14662 0.0
C3046 C 0.03305 0.05839 0.16426 0.0
C3047 C 0.0234 0.04434 0.17704 0.0
C3048 C 0.02359 0.02359 0.17217 0.0
C3049 C 0.09105 0.93868 0.10577 0.0
C3050 C 0.10927 0.94108 0.11682 0.0
C3051 C 0.0726 0.94575 0.1136 0.0
C3052 C 0.07184 0.9552 0.13278 0.0
C3053 C 0.08994 0.95736 0.14405 0.0
C3054 C 0.10851 0.95029 0.13617 0.0
C3055 C 0.05232 0.96399 0.14015 0.0
C3056 C 0.05167 0.98484 0.14493 0.0
C3057 C 0.03403 0.9525 0.14044 0.0
C3058 C 0.034 0.93007 0.1373 0.0
C3059 C 0.0467 0.91742 0.14909 0.0
C3060 C 0.04659 0.89631 0.14615 0.0
C3061 C 0.03381 0.88763 0.13149 0.0
C3062 C 0.0211 0.90005 0.11973 0.0
C3063 C 0.02112 0.92117 0.12263 0.0
H3064 H 0.03372 0.87128 0.12926 0.0
H3065 H 0.03286 0.07446 0.16804 0.0
H3066 H 0.2517 0.70298 0.56155 0.0
H3067 H 0.22865 0.73246 0.56391 0.0
H3068 H 0.24039 0.73643 0.62852 0.0
H3069 H 0.26371 0.70747 0.62615 0.0
H3070 H 0.19892 0.74487 0.6172 0.0
H3071 H 0.2688 0.7635 0.6012 0.0
H3072 H 0.30021 0.76155 0.58064 0.0
H3073 H 0.2671 0.78115 0.52765 0.0
H3074 H 0.23539 0.78293 0.54791 0.0
H3075 H 0.19974 0.84116 0.65898 0.0
H3076 H 0.20965 0.80841 0.64488 0.0
H3077 H 0.19198 0.82848 0.58479 0.0
H3078 H 0.1821 0.86183 0.59888 0.0
H3079 H 0.22926 0.80676 0.58589 0.0
H3080 H 0.16146 0.79929 0.61046 0.0
H3081 H 0.13441 0.80381 0.63606 0.0
H3082 H 0.16537 0.763 0.67673 0.0
H3083 H 0.19338 0.75927 0.652 0.0
C3084 C 0.24887 0.70983 0.57632 0.0
C3085 C 0.2595 0.70311 0.59367 0.0
C3086 C 0.23578 0.72664 0.57763 0.0
C3087 C 0.23292 0.73659 0.59638 0.0
C3088 C 0.24233 0.72887 0.61395 0.0
C3089 C 0.2557 0.71242 0.61257 0.0
C3090 C 0.22243 0.75651 0.59756 0.0
C3091 C 0.20533 0.75842 0.61023 0.0
C3092 C 0.23076 0.77406 0.58819 0.0
C3093 C 0.24972 0.77309 0.57597 0.0
C3094 C 0.26819 0.76721 0.58512 0.0
C3095 C 0.28605 0.76617 0.57354 0.0
C3096 C 0.28565 0.77116 0.55284 0.0
C3097 C 0.26738 0.77724 0.54368 0.0
C3098 C 0.24946 0.77827 0.55519 0.0
C3099 C 0.19797 0.83875 0.64274 0.0
C3100 C 0.18992 0.85406 0.63007 0.0
C3101 C 0.20362 0.81996 0.63471 0.0
C3102 C 0.20112 0.81589 0.61389 0.0
C3103 C 0.19383 0.83132 0.60096 0.0
C3104 C 0.18821 0.85032 0.60901 0.0
C3105 C 0.20603 0.79528 0.60608 0.0
C3106 C 0.22217 0.79322 0.59221 0.0
C3107 C 0.19701 0.77763 0.61471 0.0
C3108 C 0.17964 0.77903 0.62929 0.0
C3109 C 0.16262 0.79135 0.62489 0.0
C3110 C 0.14709 0.7938 0.63928 0.0
C3111 C 0.14803 0.78353 0.6579 0.0
C3112 C 0.16461 0.7709 0.66225 0.0
C3113 C 0.18039 0.76869 0.64808 0.0
H3114 H 0.13595 0.78543 0.66899 0.0
H3115 H 0.29953 0.77041 0.54397 0.0
H3116 H 0.01687 0.54894 0.34297 0.0
H3117 H 0.98576 0.52953 0.34825 0.0
H3118 H 0.01987 0.47337 0.34471 0.0
H3119 H 0.05132 0.49291 0.33868 0.0
H3120 H 0.98368 0.46971 0.32571 0.0
H3121 H 0.00587 0.49299 0.39087 0.0
H3122 H 0.01798 0.51781 0.41638 0.0
H3123 H 0.9625 0.55198 0.41002 0.0
H3124 H 0.95019 0.52756 0.3842 0.0
H3125 H 0.90201 0.41583 0.3772 0.0
H3126 H 0.9344 0.42994 0.36525 0.0
H3127 H 0.90731 0.4898 0.36232 0.0
H3128 H 0.87495 0.47591 0.37433 0.0
H3129 H 0.94177 0.48855 0.38584 0.0
H3130 H 0.92052 0.46509 0.31935 0.0
H3131 H 0.90887 0.43949 0.2944 0.0
H3132 H 0.96303 0.4042 0.30478 0.0
H3133 H 0.97488 0.42946 0.33002 0.0
C3134 C 0.01782 0.53245 0.3433 0.0
C3135 C 0.03659 0.52243 0.34076 0.0
C3136 C -0.0 0.52137 0.34634 0.0
C3137 C 0.00057 0.50002 0.34741 0.0
C3138 C 0.01915 0.48986 0.34411 0.0
C3139 C 0.03706 0.501 0.34073 0.0
C3140 C 0.98172 0.48864 0.3525 0.0
C3141 C 0.97466 0.47357 0.33903 0.0
C3142 C 0.96988 0.49383 0.36981 0.0
C3143 C 0.97717 0.5085 0.38547 0.0
C3144 C 0.99631 0.50587 0.3948 0.0
C3145 C 0.0032 0.51987 0.40933 0.0
C3146 C 0.99103 0.53649 0.41478 0.0
C3147 C 0.97192 0.53911 0.40576 0.0
C3148 C 0.96497 0.52519 0.39119 0.0
C3149 C 0.90282 0.43193 0.3736 0.0
C3150 C 0.88596 0.44481 0.37692 0.0
C3151 C 0.92133 0.43994 0.36673 0.0
C3152 C 0.92324 0.46092 0.36299 0.0
C3153 C 0.90614 0.47358 0.36522 0.0
C3154 C 0.88765 0.4656 0.37204 0.0
C3155 C 0.94343 0.47008 0.35874 0.0
C3156 C 0.95082 0.48463 0.37254 0.0
C3157 C 0.95559 0.46423 0.34191 0.0
C3158 C 0.94847 0.44905 0.32674 0.0
C3159 C 0.92985 0.45177 0.31646 0.0
C3160 C 0.92323 0.43735 0.30223 0.0
C3161 C 0.93517 0.4202 0.29805 0.0
C3162 C 0.95378 0.41747 0.30806 0.0
C3163 C 0.96046 0.43185 0.32231 0.0
H3164 H 0.93002 0.40905 0.28703 0.0
H3165 H 0.9964 0.54731 0.42602 0.0
H3166 H 0.59568 0.57011 0.89008 0.0
H3167 H 0.56372 0.55713 0.87595 0.0
H3168 H 0.58343 0.49549 0.88774 0.0
H3169 H 0.61552 0.50828 0.90159 0.0
H3170 H 0.56387 0.49807 0.85174 0.0
H3171 H 0.55238 0.52032 0.92094 0.0
H3172 H 0.55274 0.5451 0.94923 0.0
H3173 H 0.51294 0.58467 0.91551 0.0
H3174 H 0.51257 0.56022 0.88688 0.0
H3175 H 0.47347 0.44211 0.86252 0.0
H3176 H 0.5048 0.46054 0.87017 0.0
H3177 H 0.47776 0.5163 0.84824 0.0
H3178 H 0.44617 0.4979 0.84028 0.0
H3179 H 0.50002 0.51991 0.88607 0.0
H3180 H 0.50898 0.49503 0.81812 0.0
H3181 H 0.50838 0.46917 0.79085 0.0
H3182 H 0.5528 0.43355 0.82316 0.0
H3183 H 0.55343 0.45905 0.85081 0.0
C3184 C 0.59335 0.55377 0.88941 0.0
C3185 C 0.60807 0.54022 0.89715 0.0
C3186 C 0.57503 0.5464 0.8814 0.0
C3187 C 0.57107 0.52537 0.88112 0.0
C3188 C 0.58615 0.51178 0.88788 0.0
C3189 C 0.60448 0.51913 0.89584 0.0
C3190 C 0.55085 0.51747 0.87483 0.0
C3191 C 0.54993 0.50278 0.85931 0.0
C3192 C 0.5326 0.52394 0.88443 0.0
C3193 C 0.53265 0.53857 0.90168 0.0
C3194 C 0.54383 0.53438 0.9195 0.0
C3195 C 0.54402 0.54835 0.9356 0.0
C3196 C 0.53292 0.56648 0.93414 0.0
C3197 C 0.52156 0.57064 0.9166 0.0
C3198 C 0.52135 0.55673 0.90044 0.0
C3199 C 0.47405 0.45832 0.85942 0.0
C3200 C 0.45732 0.46852 0.85066 0.0
C3201 C 0.49202 0.4688 0.86375 0.0
C3202 C 0.49362 0.48969 0.85953 0.0
C3203 C 0.47678 0.50014 0.85149 0.0
C3204 C 0.45879 0.4896 0.84694 0.0
C3205 C 0.51315 0.50033 0.86324 0.0
C3206 C 0.51393 0.51547 0.8783 0.0
C3207 C 0.5313 0.49418 0.85332 0.0
C3208 C 0.53113 0.47889 0.83662 0.0
C3209 C 0.51851 0.48161 0.8195 0.0
C3210 C 0.51818 0.46703 0.80395 0.0
C3211 C 0.53052 0.44971 0.80529 0.0
C3212 C 0.54324 0.44697 0.82215 0.0
C3213 C 0.54361 0.4615 0.83776 0.0
H3214 H 0.53024 0.43843 0.79324 0.0
H3215 H 0.53309 0.57729 0.94661 0.0
H3216 H 0.92752 0.11743 0.19338 0.0
H3217 H 0.94385 0.13617 0.22119 0.0
H3218 H 0.94239 0.08208 0.25863 0.0
H3219 H 0.92558 0.0635 0.23123 0.0
H3220 H 0.93743 0.1141 0.28204 0.0
H3221 H 0.98449 0.09403 0.22971 0.0
H3222 H 0.99808 0.09156 0.19471 0.0
H3223 H 0.00275 0.1568 0.1916 0.0
H3224 H 0.98898 0.15965 0.22653 0.0
H3225 H 0.04205 0.12865 0.32481 0.0
H3226 H 0.01288 0.11556 0.3055 0.0
H3227 H 0.98809 0.17627 0.30139 0.0
H3228 H 0.01677 0.18945 0.32121 0.0
H3229 H 0.00425 0.14371 0.26248 0.0
H3230 H 0.95694 0.16114 0.31839 0.0
H3231 H 0.94655 0.15944 0.3545 0.0
H3232 H 0.94617 0.09403 0.35161 0.0
H3233 H 0.95691 0.09537 0.31555 0.0
C3234 C 0.93032 0.10966 0.20769 0.0
C3235 C 0.92541 0.08894 0.21006 0.0
C3236 C 0.93968 0.12036 0.22355 0.0
C3237 C 0.94472 0.1104 0.24183 0.0
C3238 C 0.93866 0.09009 0.24467 0.0
C3239 C 0.92904 0.07947 0.22895 0.0
C3240 C 0.95804 0.12036 0.25715 0.0
C3241 C 0.95199 0.12065 0.27772 0.0
C3242 C 0.97717 0.12872 0.25161 0.0
C3243 C 0.98547 0.12707 0.23062 0.0
C3244 C 0.98827 0.10785 0.2215 0.0
C3245 C 0.99603 0.10638 0.20169 0.0
C3246 C 0.0012 0.12402 0.19091 0.0
C3247 C 0.99869 0.14315 0.19995 0.0
C3248 C 0.99093 0.14471 0.21975 0.0
C3249 C 0.03008 0.13911 0.32034 0.0
C3250 C 0.03174 0.16008 0.32445 0.0
C3251 C 0.01344 0.13161 0.30938 0.0
C3252 C 0.99837 0.14497 0.30224 0.0
C3253 C -0.00055 0.16572 0.30712 0.0
C3254 C 0.01587 0.1732 0.31842 0.0
C3255 C 0.98345 0.13771 0.28712 0.0
C3256 C 0.98942 0.13764 0.26662 0.0
C3257 C 0.96456 0.12917 0.2928 0.0
C3258 C 0.95799 0.12836 0.31439 0.0
C3259 C 0.95489 0.1464 0.32553 0.0
C3260 C 0.94887 0.1455 0.34597 0.0
C3261 C 0.94577 0.12663 0.35537 0.0
C3262 C 0.94862 0.10863 0.34433 0.0
C3263 C 0.95466 0.10946 0.32389 0.0
H3264 H 0.94111 0.12597 0.37119 0.0
H3265 H 0.0072 0.12285 0.17558 0.0
H3266 H 0.55679 0.27644 0.05516 0.0
H3267 H 0.57173 0.24844 0.03596 0.0
H3268 H 0.63042 0.26115 0.0631 0.0
H3269 H 0.61565 0.29056 0.08088 0.0
H3270 H 0.63661 0.25578 0.02674 0.0
H3271 H 0.59771 0.21595 0.07368 0.0
H3272 H 0.56713 0.20561 0.09298 0.0
H3273 H 0.53618 0.19154 0.03703 0.0
H3274 H 0.56644 0.20208 0.01738 0.0
H3275 H 0.68063 0.16818 0.98304 0.0
H3276 H 0.66265 0.18594 0.01032 0.0
H3277 H 0.6134 0.19991 0.96913 0.0
H3278 H 0.63146 0.18244 0.94146 0.0
H3279 H 0.60375 0.18864 0.01504 0.0
H3280 H 0.64248 0.23412 0.96955 0.0
H3281 H 0.67408 0.24324 0.95131 0.0
H3282 H 0.7068 0.24447 0.00801 0.0
H3283 H 0.67542 0.23501 0.02654 0.0
C3284 C 0.57282 0.273 0.05727 0.0
C3285 C 0.5851 0.28548 0.06955 0.0
C3286 C 0.58135 0.25684 0.04641 0.0
C3287 C 0.60219 0.25221 0.04834 0.0
C3288 C 0.61431 0.26431 0.06131 0.0
C3289 C 0.6059 0.28102 0.07155 0.0
C3290 C 0.61163 0.2361 0.0354 0.0
C3291 C 0.62954 0.24098 0.02467 0.0
C3292 C 0.6024 0.21675 0.03221 0.0
C3293 C 0.58433 0.20993 0.04404 0.0
C3294 C 0.58436 0.21072 0.06548 0.0
C3295 C 0.56707 0.20483 0.07649 0.0
C3296 C 0.54971 0.19796 0.06623 0.0
C3297 C 0.54964 0.19687 0.04495 0.0
C3298 C 0.56686 0.20277 0.03388 0.0
C3299 C 0.66573 0.17453 0.97983 0.0
C3300 C 0.65759 0.17412 0.95998 0.0
C3301 C 0.65548 0.18464 0.99549 0.0
C3302 C 0.6368 0.19424 0.99165 0.0
C3303 C 0.62779 0.19246 0.97234 0.0
C3304 C 0.63819 0.18259 0.95654 0.0
C3305 C 0.62833 0.20862 0.00674 0.0
C3306 C 0.61075 0.20339 0.01765 0.0
C3307 C 0.63797 0.2275 0.01046 0.0
C3308 C 0.65669 0.23365 0.99938 0.0
C3309 C 0.65645 0.23618 0.9781 0.0
C3310 C 0.67431 0.24143 0.96771 0.0
C3311 C 0.69245 0.24438 0.97848 0.0
C3312 C 0.69275 0.24215 -0.00032 0.0
C3313 C 0.67493 0.23686 0.01013 0.0
H3314 H 0.70627 0.24843 0.97042 0.0
H3315 H 0.5363 0.1935 0.07474 0.0
H3316 H 0.59001 0.927 0.73324 0.0
H3317 H 0.57558 0.91055 0.76336 0.0
H3318 H 0.53919 0.87172 0.72467 0.0
H3319 H 0.5539 0.88767 0.69457 0.0
H3320 H 0.53806 0.9126 0.77471 0.0
H3321 H 0.52613 0.82856 0.74733 0.0
H3322 H 0.54488 0.80248 0.72779 0.0
H3323 H 0.60154 0.83195 0.74212 0.0
H3324 H 0.58318 0.85804 0.762 0.0
H3325 H 0.44843 0.86821 0.8106 0.0
H3326 H 0.47785 0.88249 0.79312 0.0
H3327 H 0.51714 0.83913 0.82324 0.0
H3328 H 0.48756 0.82427 0.84038 0.0
H3329 H 0.52491 0.83883 0.78479 0.0
H3330 H 0.51982 0.89139 0.83381 0.0
H3331 H 0.5032 0.91739 0.8553 0.0
H3332 H 0.48524 0.95062 0.80182 0.0
H3333 H 0.50149 0.92468 0.77999 0.0
C3334 C 0.57927 0.91465 0.73113 0.0
C3335 C 0.57299 0.90877 0.71147 0.0
C3336 C 0.57101 0.90529 0.74838 0.0
C3337 C 0.55634 0.88987 0.74632 0.0
C3338 C 0.55077 0.88332 0.7267 0.0
C3339 C 0.55913 0.89255 0.70945 0.0
C3340 C 0.54512 0.88219 0.76441 0.0
C3341 C 0.53539 0.89645 0.77708 0.0
C3342 C 0.54205 0.86113 0.76787 0.0
C3343 C 0.55324 0.84534 0.75609 0.0
C3344 C 0.5426 0.82941 0.74643 0.0
C3345 C 0.55316 0.81464 0.73526 0.0
C3346 C 0.57438 0.81558 0.73368 0.0
C3347 C 0.5851 0.83127 0.7433 0.0
C3348 C 0.57461 0.84608 0.7545 0.0
C3349 C 0.46336 0.86194 0.81385 0.0
C3350 C 0.46562 0.84502 0.82681 0.0
C3351 C 0.48023 0.87021 0.8039 0.0
C3352 C 0.49978 0.86201 0.80698 0.0
C3353 C 0.50221 0.84569 0.82061 0.0
C3354 C 0.48529 0.83725 0.83043 0.0
C3355 C 0.51715 0.86928 0.79444 0.0
C3356 C 0.52797 0.85496 0.78276 0.0
C3357 C 0.52158 0.89027 0.79219 0.0
C3358 C 0.51184 0.90602 0.80525 0.0
C3359 C 0.51223 0.90418 0.82662 0.0
C3360 C 0.50288 0.91891 0.83887 0.0
C3361 C 0.49316 0.93563 0.82993 0.0
C3362 C 0.49279 0.93767 0.80873 0.0
C3363 C 0.50211 0.92297 0.79641 0.0
H3364 H 0.48592 0.94702 0.83944 0.0
H3365 H 0.58253 0.80414 0.72502 0.0
H3366 H 0.92659 0.72926 0.57873 0.0
H3367 H 0.90893 0.75592 0.55972 0.0
H3368 H 0.8591 0.71463 0.54789 0.0
H3369 H 0.8769 0.68772 0.56639 0.0
H3370 H 0.87163 0.73004 0.51401 0.0
H3371 H 0.85366 0.75739 0.57876 0.0
H3372 H 0.85913 0.76976 0.61383 0.0
H3373 H 0.89777 0.81755 0.59131 0.0
H3374 H 0.89277 0.80529 0.5561 0.0
H3375 H 0.81117 0.82587 0.48354 0.0
H3376 H 0.82541 0.80484 0.51082 0.0
H3377 H 0.87627 0.78904 0.47223 0.0
H3378 H 0.862 0.80964 0.44474 0.0
H3379 H 0.86018 0.80242 0.53284 0.0
H3380 H 0.88599 0.74025 0.47601 0.0
H3381 H 0.87609 0.7265 0.44238 0.0
H3382 H 0.81431 0.74578 0.45243 0.0
H3383 H 0.82388 0.75973 0.48595 0.0
C3384 C 0.91168 0.72596 0.57246 0.0
C3385 C 0.90326 0.70628 0.57386 0.0
C3386 C 0.90155 0.74128 0.56165 0.0
C3387 C 0.8827 0.73728 0.55233 0.0
C3388 C 0.8737 0.71802 0.55483 0.0
C3389 C 0.88389 0.70265 0.56545 0.0
C3390 C 0.87346 0.7523 0.53816 0.0
C3391 C 0.86909 0.74583 0.51824 0.0
C3392 C 0.8699 0.77288 0.54364 0.0
C3393 C 0.87298 0.7803 0.56479 0.0
C3394 C 0.86346 0.77043 0.58129 0.0
C3395 C 0.86645 0.77744 0.6012 0.0
C3396 C 0.87883 0.7944 0.6048 0.0
C3397 C 0.88821 0.80441 0.5885 0.0
C3398 C 0.88528 0.79745 0.56856 0.0
C3399 C 0.82555 0.81817 0.48094 0.0
C3400 C 0.8353 0.8192 0.46183 0.0
C3401 C 0.83368 0.8062 0.49659 0.0
C3402 C 0.85168 0.7951 0.49341 0.0
C3403 C 0.86214 0.79719 0.47485 0.0
C3404 C 0.85398 0.80903 0.45916 0.0
C3405 C 0.85871 0.78011 0.50879 0.0
C3406 C 0.86274 0.78659 0.52879 0.0
C3407 C 0.86146 0.75936 0.50363 0.0
C3408 C 0.85569 0.75117 0.48337 0.0
C3409 C 0.87031 0.74156 0.47099 0.0
C3410 C 0.86477 0.73379 0.45192 0.0
C3411 C 0.84461 0.73537 0.44518 0.0
C3412 C 0.82996 0.74473 0.45751 0.0
C3413 C 0.83544 0.75263 0.47652 0.0
H3414 H 0.84034 0.72927 0.43046 0.0
H3415 H 0.88112 0.79981 0.62022 0.0
H3416 H 0.42413 0.43202 0.76312 0.0
H3417 H 0.4429 0.41761 0.73438 0.0
H3418 H 0.44841 0.36047 0.76651 0.0
H3419 H 0.43006 0.37486 0.79548 0.0
H3420 H 0.48437 0.37383 0.75539 0.0
H3421 H 0.41978 0.36495 0.7226 0.0
H3422 H 0.38602 0.3755 0.70987 0.0
H3423 H 0.41426 0.41922 0.67016 0.0
H3424 H 0.4482 0.40912 0.68285 0.0
H3425 H 0.51654 0.31947 0.65997 0.0
H3426 H 0.4884 0.33588 0.67796 0.0
H3427 H 0.52867 0.38413 0.69723 0.0
H3428 H 0.557 0.36776 0.67949 0.0
H3429 H 0.46848 0.37398 0.68138 0.0
H3430 H 0.52318 0.38808 0.74833 0.0
H3431 H 0.55641 0.37569 0.76096 0.0
H3432 H 0.54566 0.31742 0.73311 0.0
H3433 H 0.51225 0.32936 0.72062 0.0
C3434 C 0.4289 0.41623 0.76389 0.0
C3435 C 0.42584 0.40466 0.78171 0.0
C3436 C 0.43958 0.40799 0.74739 0.0
C3437 C 0.44713 0.38799 0.74834 0.0
C3438 C 0.44285 0.37599 0.76553 0.0
C3439 C 0.43232 0.38424 0.78207 0.0
C3440 C 0.46151 0.38037 0.73266 0.0
C3441 C 0.48079 0.37382 0.73923 0.0
C3442 C 0.45691 0.38037 0.71156 0.0
C3443 C 0.43653 0.38639 0.70381 0.0
C3444 C 0.41879 0.37692 0.71127 0.0
C3445 C 0.39962 0.3828 0.70403 0.0
C3446 C 0.39799 0.39805 0.68925 0.0
C3447 C 0.41554 0.40742 0.68162 0.0
C3448 C 0.43475 0.4016 0.68881 0.0
C3449 C 0.51934 0.33387 0.66754 0.0
C3450 C 0.53914 0.34206 0.66868 0.0
C3451 C 0.50317 0.34328 0.67773 0.0
C3452 C 0.50659 0.36098 0.68919 0.0
C3453 C 0.52583 0.37031 0.68864 0.0
C3454 C 0.54201 0.36089 0.67853 0.0
C3455 C 0.4912 0.36771 0.70423 0.0
C3456 C 0.47189 0.37408 0.69757 0.0
C3457 C 0.49557 0.36727 0.72535 0.0
C3458 C 0.51533 0.3597 0.73337 0.0
C3459 C 0.52787 0.37259 0.74501 0.0
C3460 C 0.54674 0.36565 0.75213 0.0
C3461 C 0.55317 0.34581 0.74777 0.0
C3462 C 0.54069 0.3328 0.73642 0.0
C3463 C 0.52179 0.33965 0.72931 0.0
H3464 H 0.56781 0.3405 0.75323 0.0
H3465 H 0.38314 0.40258 0.68367 0.0
H3466 H 0.34935 0.71249 0.5559 0.0
H3467 H 0.36382 0.72967 0.52623 0.0
H3468 H 0.35009 0.67746 0.48878 0.0
H3469 H 0.33491 0.66021 0.51837 0.0
H3470 H 0.39371 0.70191 0.48624 0.0
H3471 H 0.32062 0.70499 0.47945 0.0
H3472 H 0.28553 0.71045 0.4917 0.0
H3473 H 0.29988 0.77269 0.50603 0.0
H3474 H 0.33533 0.76731 0.49488 0.0
H3475 H 0.42007 0.77117 0.40622 0.0
H3476 H 0.40222 0.74297 0.42298 0.0
H3477 H 0.37912 0.78471 0.46835 0.0
H3478 H 0.3961 0.81287 0.45133 0.0
H3479 H 0.35113 0.75859 0.45977 0.0
H3480 H 0.4244 0.75382 0.47444 0.0
H3481 H 0.46034 0.74987 0.46398 0.0
H3482 H 0.44604 0.69278 0.43526 0.0
H3483 H 0.40998 0.69652 0.44542 0.0
C3484 C 0.3497 0.70446 0.54147 0.0
C3485 C 0.34088 0.68503 0.53946 0.0
C3486 C 0.35793 0.71433 0.52454 0.0
C3487 C 0.35783 0.70484 0.5054 0.0
C3488 C 0.35022 0.68497 0.50349 0.0
C3489 C 0.34155 0.6752 0.52037 0.0
C3490 C 0.36439 0.71658 0.48736 0.0
C3491 C 0.38429 0.71402 0.48004 0.0
C3492 C 0.35208 0.73245 0.47956 0.0
C3493 C 0.33078 0.73563 0.48661 0.0
C3494 C 0.31644 0.71971 0.48563 0.0
C3495 C 0.29645 0.7228 0.49239 0.0
C3496 C 0.29051 0.74186 0.49983 0.0
C3497 C 0.30454 0.75786 0.5005 0.0
C3498 C 0.32461 0.75478 0.49403 0.0
C3499 C 0.41095 0.77434 0.41961 0.0
C3500 C 0.40966 0.79424 0.42755 0.0
C3501 C 0.40083 0.7582 0.42922 0.0
C3502 C 0.38965 0.76163 0.44717 0.0
C3503 C 0.38765 0.78163 0.45453 0.0
C3504 C 0.39743 0.79776 0.44478 0.0
C3505 C 0.38083 0.74459 0.4592 0.0
C3506 C 0.36043 0.74615 0.46547 0.0
C3507 C 0.39278 0.72797 0.46618 0.0
C3508 C 0.4145 0.72555 0.4605 0.0
C3509 C 0.42893 0.74047 0.46584 0.0
C3510 C 0.44931 0.73827 0.45997 0.0
C3511 C 0.45546 0.72111 0.44891 0.0
C3512 C 0.44126 0.70608 0.44379 0.0
C3513 C 0.42086 0.70822 0.44962 0.0
H3514 H 0.47123 0.71945 0.44433 0.0
H3515 H 0.27501 0.74425 0.50497 0.0
H3516 H 0.98189 0.68253 0.17095 0.0
H3517 H 0.01019 0.66565 0.18804 0.0
H3518 H 0.97428 0.6108 0.19364 0.0
H3519 H 0.94563 0.62781 0.177 0.0
H3520 H 0.98748 0.62164 0.22901 0.0
H3521 H 0.01863 0.61295 0.16407 0.0
H3522 H 0.03105 0.62306 0.13006 0.0
H3523 H 0.07303 0.66511 0.15751 0.0
H3524 H 0.06066 0.65547 0.1917 0.0
H3525 H 0.08216 0.56889 0.26441 0.0
H3526 H 0.06463 0.58331 0.23495 0.0
H3527 H 0.04604 0.63494 0.27114 0.0
H3528 H 0.06358 0.62075 0.30072 0.0
H3529 H 0.06133 0.62145 0.21238 0.0
H3530 H 0.99449 0.63576 0.26743 0.0
H3531 H 0.98234 0.6236 0.30092 0.0
H3532 H 0.0111 0.56567 0.29068 0.0
H3533 H 0.02308 0.57736 0.257 0.0
C3534 C 0.98016 0.6667 0.17531 0.0
C3535 C 0.96141 0.65658 0.17283 0.0
C3536 C 0.99643 0.65702 0.18503 0.0
C3537 C 0.99438 0.63695 0.19214 0.0
C3538 C 0.97617 0.62634 0.18836 0.0
C3539 C 0.95981 0.63608 0.17884 0.0
C3540 C 0.01 0.62812 0.2059 0.0
C3541 C 0.00358 0.62146 0.2252 0.0
C3542 C 0.03104 0.62778 0.20099 0.0
C3543 C 0.0386 0.63357 0.18046 0.0
C3544 C 0.0304 0.62446 0.16286 0.0
C3545 C 0.03746 0.63009 0.14354 0.0
C3546 C 0.05279 0.64475 0.14162 0.0
C3547 C 0.06114 0.65377 0.15902 0.0
C3548 C 0.05414 0.6482 0.17838 0.0
C3549 C 0.075 0.58367 0.26598 0.0
C3550 C 0.07396 0.59348 0.28506 0.0
C3551 C 0.06502 0.5919 0.24906 0.0
C3552 C 0.05382 0.60997 0.25103 0.0
C3553 C 0.0545 0.62085 0.26944 0.0
C3554 C 0.06449 0.61267 0.28634 0.0
C3555 C 0.03866 0.61555 0.23535 0.0
C3556 C 0.04517 0.62156 0.21589 0.0
C3557 C 0.0176 0.61495 0.23986 0.0
C3558 C 0.00985 0.60753 0.2598 0.0
C3559 C 0.99811 0.62039 0.27228 0.0
C3560 C 0.99126 0.61358 0.2913 0.0
C3561 C 0.996 0.59389 0.29795 0.0
C3562 C 0.00749 0.58093 0.28554 0.0
C3563 C 0.01431 0.58765 0.26649 0.0
H3564 H 0.99074 0.58867 0.3127 0.0
H3565 H 0.05823 0.64909 0.12666 0.0
H3566 H 0.14496 0.29785 0.05592 0.0
H3567 H 0.13131 0.2797 0.02645 0.0
H3568 H 0.15785 0.3243 0.98617 0.0
H3569 H 0.17206 0.34248 0.01562 0.0
H3570 H 0.10826 0.30207 0.98423 0.0
H3571 H 0.18329 0.29647 0.97605 0.0
H3572 H 0.21762 0.29146 0.99059 0.0
H3573 H 0.19847 0.23469 0.01701 0.0
H3574 H 0.16389 0.23965 0.00302 0.0
H3575 H 0.08376 0.23011 0.90703 0.0
H3576 H 0.10189 0.25866 0.92282 0.0
H3577 H 0.12414 0.21837 0.96989 0.0
H3578 H 0.10699 0.1898 0.95376 0.0
H3579 H 0.15199 0.24437 0.96212 0.0
H3580 H 0.0787 0.24891 0.9742 0.0
H3581 H 0.04291 0.2517 0.96291 0.0
H3582 H 0.05657 0.30798 0.93237 0.0
H3583 H 0.09251 0.30539 0.94331 0.0
C3584 C 0.14764 0.30407 0.04085 0.0
C3585 C 0.15978 0.32152 0.03811 0.0
C3586 C 0.13982 0.29365 0.02404 0.0
C3587 C 0.14375 0.30063 0.00424 0.0
C3588 C 0.1548 0.31869 0.0014 0.0
C3589 C 0.16291 0.329 0.01822 0.0
C3590 C 0.1377 0.28782 0.98678 0.0
C3591 C 0.11795 0.28976 0.97889 0.0
C3592 C 0.15022 0.27156 0.98033 0.0
C3593 C 0.17098 0.26856 0.9887 0.0
C3594 C 0.18635 0.28306 0.98518 0.0
C3595 C 0.20585 0.28021 0.99328 0.0
C3596 C 0.21021 0.26279 0.00477 0.0
C3597 C 0.19507 0.24819 0.00815 0.0
C3598 C 0.17551 0.25103 0.00016 0.0
C3599 C 0.09285 0.2273 0.92053 0.0
C3600 C 0.09375 0.20773 0.92927 0.0
C3601 C 0.10311 0.24366 0.9296 0.0
C3602 C 0.11399 0.24079 0.94784 0.0
C3603 C 0.11583 0.22103 0.95586 0.0
C3604 C 0.10594 0.20466 0.94662 0.0
C3605 C 0.12229 0.25828 0.95959 0.0
C3606 C 0.14244 0.25709 0.9667 0.0
C3607 C 0.10997 0.27506 0.96553 0.0
C3608 C 0.0883 0.27685 0.95937 0.0
C3609 C 0.07407 0.26184 0.96502 0.0
C3610 C 0.05377 0.26338 0.95868 0.0
C3611 C 0.04749 0.27998 0.94687 0.0
C3612 C 0.06147 0.29512 0.94148 0.0
C3613 C 0.0818 0.29363 0.94775 0.0
H3614 H 0.03178 0.28112 0.94194 0.0
H3615 H 0.22533 0.26059 0.01102 0.0
H3616 H 0.1981 0.939 0.11293 0.0
H3617 H 0.22787 0.95623 0.12706 0.0
H3618 H 0.26596 0.92863 0.0811 0.0
H3619 H 0.23625 0.91155 0.06663 0.0
H3620 H 0.26618 0.94755 0.14188 0.0
H3621 H 0.29594 0.96682 0.06195 0.0
H3622 H 0.28349 0.96804 0.02642 0.0
H3623 H 0.22301 0.98124 0.04776 0.0
H3624 H 0.23519 0.98048 0.08332 0.0
H3625 H 0.34352 0.01951 0.16333 0.0
H3626 H 0.32904 0.98932 0.1468 0.0
H3627 H 0.28501 0.02744 0.11609 0.0
H3628 H 0.29997 0.0575 0.13161 0.0
H3629 H 0.29369 0.99786 0.09247 0.0
H3630 H 0.27638 0.00309 0.16526 0.0
H3631 H 0.28597 0.00455 0.20164 0.0
H3632 H 0.31627 0.94674 0.19628 0.0
H3633 H 0.30697 0.94505 0.15982 0.0
C3634 C 0.21285 0.93622 0.10606 0.0
C3635 C 0.21469 0.9242 0.08839 0.0
C3636 C 0.2299 0.94598 0.11426 0.0
C3637 C 0.24904 0.94393 0.10493 0.0
C3638 C 0.25126 0.93057 0.08838 0.0
C3639 C 0.23422 0.92083 0.08013 0.0
C3640 C 0.26576 0.95794 0.11074 0.0
C3641 C 0.27244 0.95836 0.13104 0.0
C3642 C 0.27378 0.97217 0.09662 0.0
C3643 C 0.26643 0.9733 0.07526 0.0
C3644 C 0.28002 0.97007 0.05902 0.0
C3645 C 0.27301 0.9707 0.03889 0.0
C3646 C 0.25246 0.97464 0.03484 0.0
C3647 C 0.23891 0.97815 0.0509 0.0
C3648 C 0.24586 0.97762 0.07104 0.0
C3649 C 0.33104 0.02145 0.1527 0.0
C3650 C 0.32268 0.04085 0.14903 0.0
C3651 C 0.32272 0.00418 0.14332 0.0
C3652 C 0.30555 0.00602 0.13063 0.0
C3653 C 0.2982 0.02555 0.12586 0.0
C3654 C 0.30676 0.04279 0.13483 0.0
C3655 C 0.29379 0.98791 0.12381 0.0
C3656 C 0.28799 0.98666 0.10324 0.0
C3657 C 0.28616 0.97331 0.13782 0.0
C3658 C 0.29114 0.97403 0.15984 0.0
C3659 C 0.28509 0.99071 0.17187 0.0
C3660 C 0.29049 0.99159 0.19248 0.0
C3661 C 0.30176 0.97577 0.20125 0.0
C3662 C 0.30756 0.95899 0.18946 0.0
C3663 C 0.30221 0.95805 0.16883 0.0
H3664 H 0.30598 0.9765 0.21719 0.0
H3665 H 0.24704 0.975 0.01925 0.0
H3666 H 0.81954 0.47944 0.81699 0.0
H3667 H 0.80153 0.50722 0.8337 0.0
H3668 H 0.81256 0.47924 0.8923 0.0
H3669 H 0.82947 0.45063 0.87538 0.0
H3670 H 0.77552 0.48721 0.89031 0.0
H3671 H 0.83403 0.52761 0.87585 0.0
H3672 H 0.86183 0.54213 0.85513 0.0
H3673 H 0.81804 0.5711 0.81602 0.0
H3674 H 0.78996 0.55652 0.83633 0.0
H3675 H 0.73238 0.57344 0.94213 0.0
H3676 H 0.76131 0.55591 0.92642 0.0
H3677 H 0.72713 0.54885 0.87076 0.0
H3678 H 0.69781 0.56588 0.88648 0.0
H3679 H 0.77828 0.56107 0.87404 0.0
H3680 H 0.72143 0.51096 0.88532 0.0
H3681 H 0.69454 0.49696 0.90761 0.0
H3682 H 0.73846 0.48781 0.95532 0.0
H3683 H 0.76552 0.50208 0.93335 0.0
C3684 C 0.81854 0.47943 0.83348 0.0
C3685 C 0.82576 0.4628 0.84489 0.0
C3686 C 0.80834 0.49545 0.84307 0.0
C3687 C 0.80576 0.49551 0.86434 0.0
C3688 C 0.81423 0.47953 0.87587 0.0
C3689 C 0.82395 0.46322 0.86622 0.0
C3690 C 0.79211 0.51071 0.87418 0.0
C3691 C 0.77654 0.50338 0.88696 0.0
C3692 C 0.79302 0.53188 0.86973 0.0
C3693 C 0.80987 0.54085 0.85757 0.0
C3694 C 0.83032 0.53697 0.86276 0.0
C3695 C 0.84613 0.54523 0.8511 0.0
C3696 C 0.84171 0.5575 0.83425 0.0
C3697 C 0.82145 0.56159 0.82908 0.0
C3698 C 0.80558 0.55336 0.84068 0.0
C3699 C 0.73114 0.56858 0.92639 0.0
C3700 C 0.71273 0.57084 0.91559 0.0
C3701 C 0.7477 0.55864 0.91746 0.0
C3702 C 0.74625 0.55119 0.8975 0.0
C3703 C 0.72847 0.55466 0.88617 0.0
C3704 C 0.71173 0.56425 0.89521 0.0
C3705 C 0.76201 0.53727 0.88962 0.0
C3706 C 0.77776 0.54488 0.87738 0.0
C3707 C 0.76156 0.5164 0.89469 0.0
C3708 C 0.74538 0.50777 0.90783 0.0
C3709 C 0.72528 0.50614 0.90063 0.0
C3710 C 0.71002 0.49813 0.91319 0.0
C3711 C 0.71477 0.49155 0.93289 0.0
C3712 C 0.73479 0.49295 0.94008 0.0
C3713 C 0.75008 0.501 0.92759 0.0
H3714 H 0.70294 0.48529 0.94255 0.0
H3715 H 0.85397 0.56386 0.82523 0.0
H3716 H 0.29177 0.08294 0.62169 0.0
H3717 H 0.26392 0.06471 0.63856 0.0
H3718 H 0.2421 0.04401 0.57997 0.0
H3719 H 0.26892 0.06354 0.56309 0.0
H3720 H 0.21136 0.04754 0.6026 0.0
H3721 H 0.27645 0.01548 0.6119 0.0
H3722 H 0.31257 0.01325 0.62216 0.0
H3723 H 0.29609 0.02641 0.68416 0.0
H3724 H 0.2599 0.02899 0.6742 0.0
H3725 H 0.17986 0.94618 0.63391 0.0
H3726 H 0.19632 0.97611 0.61875 0.0
H3727 H 0.1947 0.00665 0.67693 0.0
H3728 H 0.1779 0.97706 0.69214 0.0
H3729 H 0.23506 0.0003 0.65672 0.0
H3730 H 0.16743 0.02669 0.64468 0.0
H3731 H 0.13228 0.02499 0.63147 0.0
H3732 H 0.15515 0.01703 0.57063 0.0
H3733 H 0.19045 0.01837 0.58352 0.0
C3734 C 0.28071 0.07486 0.61246 0.0
C3735 C 0.28254 0.07443 0.59115 0.0
C3736 C 0.2649 0.06433 0.62208 0.0
C3737 C 0.25129 0.05237 0.6106 0.0
C3738 C 0.25243 0.05299 0.58921 0.0
C3739 C 0.2678 0.06411 0.57956 0.0
C3740 C 0.23705 0.03795 0.62077 0.0
C3741 C 0.21661 0.03716 0.61436 0.0
C3742 C 0.24378 0.02436 0.6362 0.0
C3743 C 0.26551 0.02266 0.64226 0.0
C3744 C 0.28056 0.01801 0.6277 0.0
C3745 C 0.30104 0.01668 0.63346 0.0
C3746 C 0.30663 0.01975 0.65379 0.0
C3747 C 0.29174 0.02408 0.66841 0.0
C3748 C 0.27125 0.02548 0.66272 0.0
C3749 C 0.18262 0.95944 0.64337 0.0
C3750 C 0.17768 0.95924 0.66424 0.0
C3751 C 0.19193 0.97652 0.63467 0.0
C3752 C 0.19665 0.9935 0.64677 0.0
C3753 C 0.19104 0.99368 0.66738 0.0
C3754 C 0.18141 0.97677 0.67601 0.0
C3755 C 0.20957 0.00995 0.63849 0.0
C3756 C 0.22982 0.01094 0.64518 0.0
C3757 C 0.20282 0.02315 0.62288 0.0
C3758 C 0.1816 0.02245 0.6151 0.0
C3759 C 0.16497 0.02439 0.62851 0.0
C3760 C 0.14501 0.02353 0.62107 0.0
C3761 C 0.14148 0.02086 0.60023 0.0
C3762 C 0.15791 0.01909 0.58677 0.0
C3763 C 0.17789 0.01992 0.59413 0.0
H3764 H 0.12602 0.02021 0.5945 0.0
H3765 H 0.32249 0.01871 0.65822 0.0
H3766 H 0.67445 0.51799 0.31251 0.0
H3767 H 0.6905 0.49007 0.33093 0.0
H3768 H 0.70103 0.52985 0.3823 0.0
H3769 H 0.6856 0.55815 0.36356 0.0
H3770 H 0.73436 0.51235 0.37295 0.0
H3771 H 0.66691 0.48775 0.38394 0.0
H3772 H 0.63187 0.47792 0.37452 0.0
H3773 H 0.6552 0.4311 0.33515 0.0
H3774 H 0.6904 0.44081 0.34413 0.0
H3775 H 0.76321 0.41633 0.42921 0.0
H3776 H 0.73502 0.43674 0.41577 0.0
H3777 H 0.77018 0.45 0.36184 0.0
H3778 H 0.79842 0.42977 0.37503 0.0
H3779 H 0.71123 0.44046 0.37801 0.0
H3780 H 0.77158 0.50136 0.35908 0.0
H3781 H 0.8063 0.51094 0.36997 0.0
H3782 H 0.79486 0.48611 0.42948 0.0
H3783 H 0.75998 0.47671 0.41904 0.0
C3784 C 0.67975 0.52072 0.3279 0.0
C3785 C 0.67887 0.54032 0.33654 0.0
C3786 C 0.68886 0.50466 0.33849 0.0
C3787 C 0.69687 0.50777 0.3581 0.0
C3788 C 0.695 0.52709 0.36717 0.0
C3789 C 0.68618 0.54324 0.35646 0.0
C3790 C 0.70926 0.49164 0.36803 0.0
C3791 C 0.72911 0.49672 0.37423 0.0
C3792 C 0.70249 0.47118 0.36987 0.0
C3793 C 0.68132 0.4651 0.36463 0.0
C3794 C 0.66458 0.47543 0.37319 0.0
C3795 C 0.64468 0.46987 0.36794 0.0
C3796 C 0.64131 0.45392 0.35422 0.0
C3797 C 0.65784 0.44345 0.34578 0.0
C3798 C 0.67777 0.44895 0.35098 0.0
C3799 C 0.76475 0.42311 0.41422 0.0
C3800 C 0.78325 0.42178 0.40338 0.0
C3801 C 0.74857 0.43468 0.40656 0.0
C3802 C 0.75072 0.44508 0.38801 0.0
C3803 C 0.76837 0.4422 0.3763 0.0
C3804 C 0.78451 0.43066 0.3839 0.0
C3805 C 0.73617 0.4613 0.38231 0.0
C3806 C 0.71613 0.45621 0.37692 0.0
C3807 C 0.74254 0.48187 0.38156 0.0
C3808 C 0.76324 0.48818 0.38821 0.0
C3809 C 0.77643 0.49808 0.37453 0.0
C3810 C 0.79615 0.50345 0.38061 0.0
C3811 C 0.8028 0.49908 0.40038 0.0
C3812 C 0.78972 0.48944 0.41415 0.0
C3813 C 0.76998 0.48408 0.40815 0.0
H3814 H 0.81809 0.50319 0.40504 0.0
H3815 H 0.6259 0.44966 0.35015 0.0
loop_
_geom_bond_atom_site_label_1
_geom_bond_atom_site_label_2
_geom_bond_distance
_geom_bond_site_symmetry_2
_ccdc_geom_bond_type
Co0 O3 1.970 . S
Co0 N17 1.989 . S
Co0 O25 1.967 . S
Co0 O32 1.920 . S
Co1 O4 1.966 . S
Co1 N10 2.022 . S
Co1 N18 1.993 . S
Co1 O26 1.941 . S
C2 O3 1.258 . S
C2 O4 1.263 . S
O3 Co0 1.970 . S
O3 C2 1.258 . S
O4 Co1 1.966 . S
O4 C2 1.263 . S
C5 O6 1.235 . S
C5 O32 1.289 . S
O6 C5 1.235 . S
C7 C9 1.400 . S
C7 N10 1.351 . S
C7 C12 1.501 . S
C8 C9 1.387 . S
C8 N11 1.341 . S
C9 C7 1.400 . S
C9 C8 1.387 . S
N10 Co1 2.022 . S
N10 C7 1.351 . S
N10 N11 1.365 . S
N11 C8 1.341 . S
N11 N10 1.365 . S
N11 H31 0.862 . S
C12 C7 1.501 . S
C12 H13 0.961 . S
C12 H14 0.961 . S
C12 H15 0.960 . S
H13 C12 0.961 . S
H14 C12 0.961 . S
H15 C12 0.960 . S
C16 N17 1.342 . S
C16 C20 1.401 . S
C16 C21 1.499 . S
N17 Co0 1.989 . S
N17 C16 1.342 . S
N17 N18 1.388 . S
N18 Co1 1.993 . S
N18 N17 1.388 . S
N18 C19 1.346 . S
C19 N18 1.346 . S
C19 C20 1.396 . S
C19 C29 1.510 . S
C20 C16 1.401 . S
C20 C19 1.396 . S
C21 C16 1.499 . S
C21 H22 0.959 . S
C21 H23 0.960 . S
C21 H24 0.961 . S
H22 C21 0.959 . S
H23 C21 0.960 . S
H24 C21 0.961 . S
O25 Co0 1.967 . S
O25 C33 1.258 . S
O26 Co1 1.941 . S
O26 C33 1.266 . S
H27 C29 0.959 . S
H28 C29 0.961 . S
C29 C19 1.510 . S
C29 H27 0.959 . S
C29 H28 0.961 . S
C29 H30 0.960 . S
H30 C29 0.960 . S
H31 N11 0.862 . S
O32 Co0 1.920 . S
O32 C5 1.289 . S
C33 O25 1.258 . S
C33 O26 1.266 . S
Co34 O37 1.970 . S
Co34 N51 1.989 . S
Co34 O59 1.967 . S
Co34 O66 1.920 . S
Co35 O38 1.966 . S
Co35 N44 2.022 . S
Co35 N52 1.993 . S
Co35 O60 1.941 . S
C36 O37 1.258 . S
C36 O38 1.263 . S
O37 Co34 1.970 . S
O37 C36 1.258 . S
O38 Co35 1.966 . S
O38 C36 1.263 . S
C39 O40 1.235 . S
C39 O66 1.289 . S
O40 C39 1.235 . S
C41 C43 1.400 . S
C41 N44 1.351 . S
C41 C46 1.501 . S
C42 C43 1.387 . S
C42 N45 1.341 . S
C43 C41 1.400 . S
C43 C42 1.387 . S
N44 Co35 2.022 . S
N44 C41 1.351 . S
N44 N45 1.365 . S
N45 C42 1.341 . S
N45 N44 1.365 . S
N45 H65 0.862 . S
C46 C41 1.501 . S
C46 H47 0.961 . S
C46 H48 0.961 . S
C46 H49 0.960 . S
H47 C46 0.961 . S
H48 C46 0.961 . S
H49 C46 0.960 . S
C50 N51 1.342 . S
C50 C54 1.401 . S
C50 C55 1.499 . S
N51 Co34 1.989 . S
N51 C50 1.342 . S
N51 N52 1.388 . S
N52 Co35 1.993 . S
N52 N51 1.388 . S
N52 C53 1.346 . S
C53 N52 1.346 . S
C53 C54 1.396 . S
C53 C63 1.510 . S
C54 C50 1.401 . S
C54 C53 1.396 . S
C55 C50 1.499 . S
C55 H56 0.959 . S
C55 H57 0.960 . S
C55 H58 0.961 . S
H56 C55 0.959 . S
H57 C55 0.960 . S
H58 C55 0.961 . S
O59 Co34 1.967 . S
O59 C67 1.258 . S
O60 Co35 1.941 . S
O60 C67 1.266 . S
H61 C63 0.959 . S
H62 C63 0.961 . S
C63 C53 1.510 . S
C63 H61 0.959 . S
C63 H62 0.961 . S
C63 H64 0.960 . S
H64 C63 0.960 . S
H65 N45 0.862 . S
O66 Co34 1.920 . S
O66 C39 1.289 . S
C67 O59 1.258 . S
C67 O60 1.266 . S
Co68 O71 1.970 . S
Co68 N85 1.989 . S
Co68 O93 1.967 . S
Co68 O100 1.920 . S
Co69 O72 1.966 . S
Co69 N78 2.022 . S
Co69 N86 1.993 . S
Co69 O94 1.941 . S
C70 O71 1.258 . S
C70 O72 1.263 . S
O71 Co68 1.970 . S
O71 C70 1.258 . S
O72 Co69 1.966 . S
O72 C70 1.263 . S
C73 O74 1.235 . S
C73 O100 1.289 . S
O74 C73 1.235 . S
C75 C77 1.400 . S
C75 N78 1.351 . S
C75 C80 1.501 . S
C76 C77 1.387 . S
C76 N79 1.341 . S
C77 C75 1.400 . S
C77 C76 1.387 . S
N78 Co69 2.022 . S
N78 C75 1.351 . S
N78 N79 1.365 . S
N79 C76 1.341 . S
N79 N78 1.365 . S
N79 H99 0.862 . S
C80 C75 1.501 . S
C80 H81 0.961 . S
C80 H82 0.961 . S
C80 H83 0.960 . S
H81 C80 0.961 . S
H82 C80 0.961 . S
H83 C80 0.960 . S
C84 N85 1.342 . S
C84 C88 1.401 . S
C84 C89 1.499 . S
N85 Co68 1.989 . S
N85 C84 1.342 . S
N85 N86 1.388 . S
N86 Co69 1.993 . S
N86 N85 1.388 . S
N86 C87 1.346 . S
C87 N86 1.346 . S
C87 C88 1.396 . S
C87 C97 1.510 . S
C88 C84 1.401 . S
C88 C87 1.396 . S
C89 C84 1.499 . S
C89 H90 0.959 . S
C89 H91 0.960 . S
C89 H92 0.961 . S
H90 C89 0.959 . S
H91 C89 0.960 . S
H92 C89 0.961 . S
O93 Co68 1.967 . S
O93 C101 1.258 . S
O94 Co69 1.941 . S
O94 C101 1.266 . S
H95 C97 0.959 . S
H96 C97 0.961 . S
C97 C87 1.510 . S
C97 H95 0.959 . S
C97 H96 0.961 . S
C97 H98 0.960 . S
H98 C97 0.960 . S
H99 N79 0.862 . S
O100 Co68 1.920 . S
O100 C73 1.289 . S
C101 O93 1.258 . S
C101 O94 1.266 . S
Co102 O105 1.970 . S
Co102 N119 1.989 . S
Co102 O127 1.967 . S
Co102 O134 1.920 . S
Co103 O106 1.966 . S
Co103 N112 2.022 . S
Co103 N120 1.993 . S
Co103 O128 1.941 . S
C104 O105 1.258 . S
C104 O106 1.263 . S
O105 Co102 1.970 . S
O105 C104 1.258 . S
O106 Co103 1.966 . S
O106 C104 1.263 . S
C107 O108 1.235 . S
C107 O134 1.289 . S
O108 C107 1.235 . S
C109 C111 1.400 . S
C109 N112 1.351 . S
C109 C114 1.501 . S
C110 C111 1.387 . S
C110 N113 1.341 . S
C111 C109 1.400 . S
C111 C110 1.387 . S
N112 Co103 2.022 . S
N112 C109 1.351 . S
N112 N113 1.365 . S
N113 C110 1.341 . S
N113 N112 1.365 . S
N113 H133 0.862 . S
C114 C109 1.501 . S
C114 H115 0.961 . S
C114 H116 0.961 . S
C114 H117 0.960 . S
H115 C114 0.961 . S
H116 C114 0.961 . S
H117 C114 0.960 . S
C118 N119 1.342 . S
C118 C122 1.401 . S
C118 C123 1.499 . S
N119 Co102 1.989 . S
N119 C118 1.342 . S
N119 N120 1.388 . S
N120 Co103 1.993 . S
N120 N119 1.388 . S
N120 C121 1.346 . S
C121 N120 1.346 . S
C121 C122 1.396 . S
C121 C131 1.510 . S
C122 C118 1.401 . S
C122 C121 1.396 . S
C123 C118 1.499 . S
C123 H124 0.959 . S
C123 H125 0.960 . S
C123 H126 0.961 . S
H124 C123 0.959 . S
H125 C123 0.960 . S
H126 C123 0.961 . S
O127 Co102 1.967 . S
O127 C135 1.258 . S
O128 Co103 1.941 . S
O128 C135 1.266 . S
H129 C131 0.959 . S
H130 C131 0.961 . S
C131 C121 1.510 . S
C131 H129 0.959 . S
C131 H130 0.961 . S
C131 H132 0.960 . S
H132 C131 0.960 . S
H133 N113 0.862 . S
O134 Co102 1.920 . S
O134 C107 1.289 . S
C135 O127 1.258 . S
C135 O128 1.266 . S
Co136 O139 1.970 . S
Co136 N153 1.989 . S
Co136 O161 1.967 . S
Co136 O168 1.920 . S
Co137 O140 1.966 . S
Co137 N146 2.022 . S
Co137 N154 1.993 . S
Co137 O162 1.941 . S
C138 O139 1.258 . S
C138 O140 1.263 . S
O139 Co136 1.970 . S
O139 C138 1.258 . S
O140 Co137 1.966 . S
O140 C138 1.263 . S
C141 O142 1.235 . S
C141 O168 1.289 . S
O142 C141 1.235 . S
C143 C145 1.400 . S
C143 N146 1.351 . S
C143 C148 1.501 . S
C144 C145 1.387 . S
C144 N147 1.341 . S
C145 C143 1.400 . S
C145 C144 1.387 . S
N146 Co137 2.022 . S
N146 C143 1.351 . S
N146 N147 1.365 . S
N147 C144 1.341 . S
N147 N146 1.365 . S
N147 H167 0.862 . S
C148 C143 1.501 . S
C148 H149 0.961 . S
C148 H150 0.961 . S
C148 H151 0.960 . S
H149 C148 0.961 . S
H150 C148 0.961 . S
H151 C148 0.960 . S
C152 N153 1.342 . S
C152 C156 1.401 . S
C152 C157 1.499 . S
N153 Co136 1.989 . S
N153 C152 1.342 . S
N153 N154 1.388 . S
N154 Co137 1.993 . S
N154 N153 1.388 . S
N154 C155 1.346 . S
C155 N154 1.346 . S
C155 C156 1.396 . S
C155 C165 1.510 . S
C156 C152 1.401 . S
C156 C155 1.396 . S
C157 C152 1.499 . S
C157 H158 0.959 . S
C157 H159 0.960 . S
C157 H160 0.961 . S
H158 C157 0.959 . S
H159 C157 0.960 . S
H160 C157 0.961 . S
O161 Co136 1.967 . S
O161 C169 1.258 . S
O162 Co137 1.941 . S
O162 C169 1.266 . S
H163 C165 0.959 . S
H164 C165 0.961 . S
C165 C155 1.510 . S
C165 H163 0.959 . S
C165 H164 0.961 . S
C165 H166 0.960 . S
H166 C165 0.960 . S
H167 N147 0.862 . S
O168 Co136 1.920 . S
O168 C141 1.289 . S
C169 O161 1.258 . S
C169 O162 1.266 . S
Co170 O173 1.970 . S
Co170 N187 1.989 . S
Co170 O195 1.967 . S
Co170 O202 1.920 . S
Co171 O174 1.966 . S
Co171 N180 2.022 . S
Co171 N188 1.993 . S
Co171 O196 1.941 . S
C172 O173 1.258 . S
C172 O174 1.263 . S
O173 Co170 1.970 . S
O173 C172 1.258 . S
O174 Co171 1.966 . S
O174 C172 1.263 . S
C175 O176 1.235 . S
C175 O202 1.289 . S
O176 C175 1.235 . S
C177 C179 1.400 . S
C177 N180 1.351 . S
C177 C182 1.501 . S
C178 C179 1.387 . S
C178 N181 1.341 . S
C179 C177 1.400 . S
C179 C178 1.387 . S
N180 Co171 2.022 . S
N180 C177 1.351 . S
N180 N181 1.365 . S
N181 C178 1.341 . S
N181 N180 1.365 . S
N181 H201 0.862 . S
C182 C177 1.501 . S
C182 H183 0.961 . S
C182 H184 0.961 . S
C182 H185 0.960 . S
H183 C182 0.961 . S
H184 C182 0.961 . S
H185 C182 0.960 . S
C186 N187 1.342 . S
C186 C190 1.401 . S
C186 C191 1.499 . S
N187 Co170 1.989 . S
N187 C186 1.342 . S
N187 N188 1.388 . S
N188 Co171 1.993 . S
N188 N187 1.388 . S
N188 C189 1.346 . S
C189 N188 1.346 . S
C189 C190 1.396 . S
C189 C199 1.510 . S
C190 C186 1.401 . S
C190 C189 1.396 . S
C191 C186 1.499 . S
C191 H192 0.959 . S
C191 H193 0.960 . S
C191 H194 0.961 . S
H192 C191 0.959 . S
H193 C191 0.960 . S
H194 C191 0.961 . S
O195 Co170 1.967 . S
O195 C203 1.258 . S
O196 Co171 1.941 . S
O196 C203 1.266 . S
H197 C199 0.959 . S
H198 C199 0.961 . S
C199 C189 1.510 . S
C199 H197 0.959 . S
C199 H198 0.961 . S
C199 H200 0.960 . S
H200 C199 0.960 . S
H201 N181 0.862 . S
O202 Co170 1.920 . S
O202 C175 1.289 . S
C203 O195 1.258 . S
C203 O196 1.266 . S
Co204 O207 1.970 . S
Co204 N221 1.989 . S
Co204 O229 1.967 . S
Co204 O236 1.920 . S
Co205 O208 1.966 . S
Co205 N214 2.022 . S
Co205 N222 1.993 . S
Co205 O230 1.941 . S
C206 O207 1.258 . S
C206 O208 1.263 . S
O207 Co204 1.970 . S
O207 C206 1.258 . S
O208 Co205 1.966 . S
O208 C206 1.263 . S
C209 O210 1.235 . S
C209 O236 1.289 . S
O210 C209 1.235 . S
C211 C213 1.400 . S
C211 N214 1.351 . S
C211 C216 1.501 . S
C212 C213 1.387 . S
C212 N215 1.341 . S
C213 C211 1.400 . S
C213 C212 1.387 . S
N214 Co205 2.022 . S
N214 C211 1.351 . S
N214 N215 1.365 . S
N215 C212 1.341 . S
N215 N214 1.365 . S
N215 H235 0.862 . S
C216 C211 1.501 . S
C216 H217 0.961 . S
C216 H218 0.961 . S
C216 H219 0.960 . S
H217 C216 0.961 . S
H218 C216 0.961 . S
H219 C216 0.960 . S
C220 N221 1.342 . S
C220 C224 1.401 . S
C220 C225 1.499 . S
N221 Co204 1.989 . S
N221 C220 1.342 . S
N221 N222 1.388 . S
N222 Co205 1.993 . S
N222 N221 1.388 . S
N222 C223 1.346 . S
C223 N222 1.346 . S
C223 C224 1.396 . S
C223 C233 1.510 . S
C224 C220 1.401 . S
C224 C223 1.396 . S
C225 C220 1.499 . S
C225 H226 0.959 . S
C225 H227 0.960 . S
C225 H228 0.961 . S
H226 C225 0.959 . S
H227 C225 0.960 . S
H228 C225 0.961 . S
O229 Co204 1.967 . S
O229 C237 1.258 . S
O230 Co205 1.941 . S
O230 C237 1.266 . S
H231 C233 0.959 . S
H232 C233 0.961 . S
C233 C223 1.510 . S
C233 H231 0.959 . S
C233 H232 0.961 . S
C233 H234 0.960 . S
H234 C233 0.960 . S
H235 N215 0.862 . S
O236 Co204 1.920 . S
O236 C209 1.289 . S
C237 O229 1.258 . S
C237 O230 1.266 . S
Co238 O241 1.970 . S
Co238 N255 1.989 . S
Co238 O263 1.967 . S
Co238 O270 1.920 . S
Co239 O242 1.966 . S
Co239 N248 2.022 . S
Co239 N256 1.993 . S
Co239 O264 1.941 . S
C240 O241 1.258 . S
C240 O242 1.263 . S
O241 Co238 1.970 . S
O241 C240 1.258 . S
O242 Co239 1.966 . S
O242 C240 1.263 . S
C243 O244 1.235 . S
C243 O270 1.289 . S
O244 C243 1.235 . S
C245 C247 1.400 . S
C245 N248 1.351 . S
C245 C250 1.501 . S
C246 C247 1.387 . S
C246 N249 1.341 . S
C247 C245 1.400 . S
C247 C246 1.387 . S
N248 Co239 2.022 . S
N248 C245 1.351 . S
N248 N249 1.365 . S
N249 C246 1.341 . S
N249 N248 1.365 . S
N249 H269 0.862 . S
C250 C245 1.501 . S
C250 H251 0.961 . S
C250 H252 0.961 . S
C250 H253 0.960 . S
H251 C250 0.961 . S
H252 C250 0.961 . S
H253 C250 0.960 . S
C254 N255 1.342 . S
C254 C258 1.401 . S
C254 C259 1.499 . S
N255 Co238 1.989 . S
N255 C254 1.342 . S
N255 N256 1.388 . S
N256 Co239 1.993 . S
N256 N255 1.388 . S
N256 C257 1.346 . S
C257 N256 1.346 . S
C257 C258 1.396 . S
C257 C267 1.510 . S
C258 C254 1.401 . S
C258 C257 1.396 . S
C259 C254 1.499 . S
C259 H260 0.959 . S
C259 H261 0.960 . S
C259 H262 0.961 . S
H260 C259 0.959 . S
H261 C259 0.960 . S
H262 C259 0.961 . S
O263 Co238 1.967 . S
O263 C271 1.258 . S
O264 Co239 1.941 . S
O264 C271 1.266 . S
H265 C267 0.959 . S
H266 C267 0.961 . S
C267 C257 1.510 . S
C267 H265 0.959 . S
C267 H266 0.961 . S
C267 H268 0.960 . S
H268 C267 0.960 . S
H269 N249 0.862 . S
O270 Co238 1.920 . S
O270 C243 1.289 . S
C271 O263 1.258 . S
C271 O264 1.266 . S
Co272 O275 1.970 . S
Co272 N289 1.989 . S
Co272 O297 1.967 . S
Co272 O304 1.920 . S
Co273 O276 1.966 . S
Co273 N282 2.022 . S
Co273 N290 1.993 . S
Co273 O298 1.941 . S
C274 O275 1.258 . S
C274 O276 1.263 . S
O275 Co272 1.970 . S
O275 C274 1.258 . S
O276 Co273 1.966 . S
O276 C274 1.263 . S
C277 O278 1.235 . S
C277 O304 1.289 . S
O278 C277 1.235 . S
C279 C281 1.400 . S
C279 N282 1.351 . S
C279 C284 1.501 . S
C280 C281 1.387 . S
C280 N283 1.341 . S
C281 C279 1.400 . S
C281 C280 1.387 . S
N282 Co273 2.022 . S
N282 C279 1.351 . S
N282 N283 1.365 . S
N283 C280 1.341 . S
N283 N282 1.365 . S
N283 H303 0.862 . S
C284 C279 1.501 . S
C284 H285 0.961 . S
C284 H286 0.961 . S
C284 H287 0.960 . S
H285 C284 0.961 . S
H286 C284 0.961 . S
H287 C284 0.960 . S
C288 N289 1.342 . S
C288 C292 1.401 . S
C288 C293 1.499 . S
N289 Co272 1.989 . S
N289 C288 1.342 . S
N289 N290 1.388 . S
N290 Co273 1.993 . S
N290 N289 1.388 . S
N290 C291 1.346 . S
C291 N290 1.346 . S
C291 C292 1.396 . S
C291 C301 1.510 . S
C292 C288 1.401 . S
C292 C291 1.396 . S
C293 C288 1.499 . S
C293 H294 0.959 . S
C293 H295 0.960 . S
C293 H296 0.961 . S
H294 C293 0.959 . S
H295 C293 0.960 . S
H296 C293 0.961 . S
O297 Co272 1.967 . S
O297 C305 1.258 . S
O298 Co273 1.941 . S
O298 C305 1.266 . S
H299 C301 0.959 . S
H300 C301 0.961 . S
C301 C291 1.510 . S
C301 H299 0.959 . S
C301 H300 0.961 . S
C301 H302 0.960 . S
H302 C301 0.960 . S
H303 N283 0.862 . S
O304 Co272 1.920 . S
O304 C277 1.289 . S
C305 O297 1.258 . S
C305 O298 1.266 . S
Co306 O309 1.970 . S
Co306 N323 1.989 . S
Co306 O331 1.967 . S
Co306 O338 1.920 . S
Co307 O310 1.966 . S
Co307 N316 2.022 . S
Co307 N324 1.993 . S
Co307 O332 1.941 . S
C308 O309 1.258 . S
C308 O310 1.263 . S
O309 Co306 1.970 . S
O309 C308 1.258 . S
O310 Co307 1.966 . S
O310 C308 1.263 . S
C311 O312 1.235 . S
C311 O338 1.289 . S
O312 C311 1.235 . S
C313 C315 1.400 . S
C313 N316 1.351 . S
C313 C318 1.501 . S
C314 C315 1.387 . S
C314 N317 1.341 . S
C315 C313 1.400 . S
C315 C314 1.387 . S
N316 Co307 2.022 . S
N316 C313 1.351 . S
N316 N317 1.365 . S
N317 C314 1.341 . S
N317 N316 1.365 . S
N317 H337 0.862 . S
C318 C313 1.501 . S
C318 H319 0.961 . S
C318 H320 0.961 . S
C318 H321 0.960 . S
H319 C318 0.961 . S
H320 C318 0.961 . S
H321 C318 0.960 . S
C322 N323 1.342 . S
C322 C326 1.401 . S
C322 C327 1.499 . S
N323 Co306 1.989 . S
N323 C322 1.342 . S
N323 N324 1.388 . S
N324 Co307 1.993 . S
N324 N323 1.388 . S
N324 C325 1.346 . S
C325 N324 1.346 . S
C325 C326 1.396 . S
C325 C335 1.510 . S
C326 C322 1.401 . S
C326 C325 1.396 . S
C327 C322 1.499 . S
C327 H328 0.959 . S
C327 H329 0.960 . S
C327 H330 0.961 . S
H328 C327 0.959 . S
H329 C327 0.960 . S
H330 C327 0.961 . S
O331 Co306 1.967 . S
O331 C339 1.258 . S
O332 Co307 1.941 . S
O332 C339 1.266 . S
H333 C335 0.959 . S
H334 C335 0.961 . S
C335 C325 1.510 . S
C335 H333 0.959 . S
C335 H334 0.961 . S
C335 H336 0.960 . S
H336 C335 0.960 . S
H337 N317 0.862 . S
O338 Co306 1.920 . S
O338 C311 1.289 . S
C339 O331 1.258 . S
C339 O332 1.266 . S
Co340 O343 1.970 . S
Co340 N357 1.989 . S
Co340 O365 1.967 . S
Co340 O372 1.920 . S
Co341 O344 1.966 . S
Co341 N350 2.022 . S
Co341 N358 1.993 . S
Co341 O366 1.941 . S
C342 O343 1.258 . S
C342 O344 1.263 . S
O343 Co340 1.970 . S
O343 C342 1.258 . S
O344 Co341 1.966 . S
O344 C342 1.263 . S
C345 O346 1.235 . S
C345 O372 1.289 . S
O346 C345 1.235 . S
C347 C349 1.400 . S
C347 N350 1.351 . S
C347 C352 1.501 . S
C348 C349 1.387 . S
C348 N351 1.341 . S
C349 C347 1.400 . S
C349 C348 1.387 . S
N350 Co341 2.022 . S
N350 C347 1.351 . S
N350 N351 1.365 . S
N351 C348 1.341 . S
N351 N350 1.365 . S
N351 H371 0.862 . S
C352 C347 1.501 . S
C352 H353 0.961 . S
C352 H354 0.961 . S
C352 H355 0.960 . S
H353 C352 0.961 . S
H354 C352 0.961 . S
H355 C352 0.960 . S
C356 N357 1.342 . S
C356 C360 1.401 . S
C356 C361 1.499 . S
N357 Co340 1.989 . S
N357 C356 1.342 . S
N357 N358 1.388 . S
N358 Co341 1.993 . S
N358 N357 1.388 . S
N358 C359 1.346 . S
C359 N358 1.346 . S
C359 C360 1.396 . S
C359 C369 1.510 . S
C360 C356 1.401 . S
C360 C359 1.396 . S
C361 C356 1.499 . S
C361 H362 0.959 . S
C361 H363 0.960 . S
C361 H364 0.961 . S
H362 C361 0.959 . S
H363 C361 0.960 . S
H364 C361 0.961 . S
O365 Co340 1.967 . S
O365 C373 1.258 . S
O366 Co341 1.941 . S
O366 C373 1.266 . S
H367 C369 0.959 . S
H368 C369 0.961 . S
C369 C359 1.510 . S
C369 H367 0.959 . S
C369 H368 0.961 . S
C369 H370 0.960 . S
H370 C369 0.960 . S
H371 N351 0.862 . S
O372 Co340 1.920 . S
O372 C345 1.289 . S
C373 O365 1.258 . S
C373 O366 1.266 . S
Co374 O377 1.970 . S
Co374 N391 1.989 . S
Co374 O399 1.967 . S
Co374 O406 1.920 . S
Co375 O378 1.966 . S
Co375 N384 2.022 . S
Co375 N392 1.993 . S
Co375 O400 1.941 . S
C376 O377 1.258 . S
C376 O378 1.263 . S
O377 Co374 1.970 . S
O377 C376 1.258 . S
O378 Co375 1.966 . S
O378 C376 1.263 . S
C379 O380 1.235 . S
C379 O406 1.289 . S
O380 C379 1.235 . S
C381 C383 1.400 . S
C381 N384 1.351 . S
C381 C386 1.501 . S
C382 C383 1.387 . S
C382 N385 1.341 . S
C383 C381 1.400 . S
C383 C382 1.387 . S
N384 Co375 2.022 . S
N384 C381 1.351 . S
N384 N385 1.365 . S
N385 C382 1.341 . S
N385 N384 1.365 . S
N385 H405 0.862 . S
C386 C381 1.501 . S
C386 H387 0.961 . S
C386 H388 0.961 . S
C386 H389 0.960 . S
H387 C386 0.961 . S
H388 C386 0.961 . S
H389 C386 0.960 . S
C390 N391 1.342 . S
C390 C394 1.401 . S
C390 C395 1.499 . S
N391 Co374 1.989 . S
N391 C390 1.342 . S
N391 N392 1.388 . S
N392 Co375 1.993 . S
N392 N391 1.388 . S
N392 C393 1.346 . S
C393 N392 1.346 . S
C393 C394 1.396 . S
C393 C403 1.510 . S
C394 C390 1.401 . S
C394 C393 1.396 . S
C395 C390 1.499 . S
C395 H396 0.959 . S
C395 H397 0.960 . S
C395 H398 0.961 . S
H396 C395 0.959 . S
H397 C395 0.960 . S
H398 C395 0.961 . S
O399 Co374 1.967 . S
O399 C407 1.258 . S
O400 Co375 1.941 . S
O400 C407 1.266 . S
H401 C403 0.959 . S
H402 C403 0.961 . S
C403 C393 1.510 . S
C403 H401 0.959 . S
C403 H402 0.961 . S
C403 H404 0.960 . S
H404 C403 0.960 . S
H405 N385 0.862 . S
O406 Co374 1.920 . S
O406 C379 1.289 . S
C407 O399 1.258 . S
C407 O400 1.266 . S
Co408 O411 1.970 . S
Co408 N425 1.989 . S
Co408 O433 1.967 . S
Co408 O440 1.920 . S
Co409 O412 1.966 . S
Co409 N418 2.022 . S
Co409 N426 1.993 . S
Co409 O434 1.941 . S
C410 O411 1.258 . S
C410 O412 1.263 . S
O411 Co408 1.970 . S
O411 C410 1.258 . S
O412 Co409 1.966 . S
O412 C410 1.263 . S
C413 O414 1.235 . S
C413 O440 1.289 . S
O414 C413 1.235 . S
C415 C417 1.400 . S
C415 N418 1.351 . S
C415 C420 1.501 . S
C416 C417 1.387 . S
C416 N419 1.341 . S
C417 C415 1.400 . S
C417 C416 1.387 . S
N418 Co409 2.022 . S
N418 C415 1.351 . S
N418 N419 1.365 . S
N419 C416 1.341 . S
N419 N418 1.365 . S
N419 H439 0.862 . S
C420 C415 1.501 . S
C420 H421 0.961 . S
C420 H422 0.961 . S
C420 H423 0.960 . S
H421 C420 0.961 . S
H422 C420 0.961 . S
H423 C420 0.960 . S
C424 N425 1.342 . S
C424 C428 1.401 . S
C424 C429 1.499 . S
N425 Co408 1.989 . S
N425 C424 1.342 . S
N425 N426 1.388 . S
N426 Co409 1.993 . S
N426 N425 1.388 . S
N426 C427 1.346 . S
C427 N426 1.346 . S
C427 C428 1.396 . S
C427 C437 1.510 . S
C428 C424 1.401 . S
C428 C427 1.396 . S
C429 C424 1.499 . S
C429 H430 0.959 . S
C429 H431 0.960 . S
C429 H432 0.961 . S
H430 C429 0.959 . S
H431 C429 0.960 . S
H432 C429 0.961 . S
O433 Co408 1.967 . S
O433 C441 1.258 . S
O434 Co409 1.941 . S
O434 C441 1.266 . S
H435 C437 0.959 . S
H436 C437 0.961 . S
C437 C427 1.510 . S
C437 H435 0.959 . S
C437 H436 0.961 . S
C437 H438 0.960 . S
H438 C437 0.960 . S
H439 N419 0.862 . S
O440 Co408 1.920 . S
O440 C413 1.289 . S
C441 O433 1.258 . S
C441 O434 1.266 . S
Co442 O445 1.970 . S
Co442 N459 1.989 . S
Co442 O467 1.967 . S
Co442 O474 1.920 . S
Co443 O446 1.966 . S
Co443 N452 2.022 . S
Co443 N460 1.993 . S
Co443 O468 1.941 . S
C444 O445 1.258 . S
C444 O446 1.263 . S
O445 Co442 1.970 . S
O445 C444 1.258 . S
O446 Co443 1.966 . S
O446 C444 1.263 . S
C447 O448 1.235 . S
C447 O474 1.289 . S
O448 C447 1.235 . S
C449 C451 1.400 . S
C449 N452 1.351 . S
C449 C454 1.501 . S
C450 C451 1.387 . S
C450 N453 1.341 . S
C451 C449 1.400 . S
C451 C450 1.387 . S
N452 Co443 2.022 . S
N452 C449 1.351 . S
N452 N453 1.365 . S
N453 C450 1.341 . S
N453 N452 1.365 . S
N453 H473 0.862 . S
C454 C449 1.501 . S
C454 H455 0.961 . S
C454 H456 0.961 . S
C454 H457 0.960 . S
H455 C454 0.961 . S
H456 C454 0.961 . S
H457 C454 0.960 . S
C458 N459 1.342 . S
C458 C462 1.401 . S
C458 C463 1.499 . S
N459 Co442 1.989 . S
N459 C458 1.342 . S
N459 N460 1.388 . S
N460 Co443 1.993 . S
N460 N459 1.388 . S
N460 C461 1.346 . S
C461 N460 1.346 . S
C461 C462 1.396 . S
C461 C471 1.510 . S
C462 C458 1.401 . S
C462 C461 1.396 . S
C463 C458 1.499 . S
C463 H464 0.959 . S
C463 H465 0.960 . S
C463 H466 0.961 . S
H464 C463 0.959 . S
H465 C463 0.960 . S
H466 C463 0.961 . S
O467 Co442 1.967 . S
O467 C475 1.258 . S
O468 Co443 1.941 . S
O468 C475 1.266 . S
H469 C471 0.959 . S
H470 C471 0.961 . S
C471 C461 1.510 . S
C471 H469 0.959 . S
C471 H470 0.961 . S
C471 H472 0.960 . S
H472 C471 0.960 . S
H473 N453 0.862 . S
O474 Co442 1.920 . S
O474 C447 1.289 . S
C475 O467 1.258 . S
C475 O468 1.266 . S
Co476 O479 1.970 . S
Co476 N493 1.989 . S
Co476 O501 1.967 . S
Co476 O508 1.920 . S
Co477 O480 1.966 . S
Co477 N486 2.022 . S
Co477 N494 1.993 . S
Co477 O502 1.941 . S
C478 O479 1.258 . S
C478 O480 1.263 . S
O479 Co476 1.970 . S
O479 C478 1.258 . S
O480 Co477 1.966 . S
O480 C478 1.263 . S
C481 O482 1.235 . S
C481 O508 1.289 . S
O482 C481 1.235 . S
C483 C485 1.400 . S
C483 N486 1.351 . S
C483 C488 1.501 . S
C484 C485 1.387 . S
C484 N487 1.341 . S
C485 C483 1.400 . S
C485 C484 1.387 . S
N486 Co477 2.022 . S
N486 C483 1.351 . S
N486 N487 1.365 . S
N487 C484 1.341 . S
N487 N486 1.365 . S
N487 H507 0.862 . S
C488 C483 1.501 . S
C488 H489 0.961 . S
C488 H490 0.961 . S
C488 H491 0.960 . S
H489 C488 0.961 . S
H490 C488 0.961 . S
H491 C488 0.960 . S
C492 N493 1.342 . S
C492 C496 1.401 . S
C492 C497 1.499 . S
N493 Co476 1.989 . S
N493 C492 1.342 . S
N493 N494 1.388 . S
N494 Co477 1.993 . S
N494 N493 1.388 . S
N494 C495 1.346 . S
C495 N494 1.346 . S
C495 C496 1.396 . S
C495 C505 1.510 . S
C496 C492 1.401 . S
C496 C495 1.396 . S
C497 C492 1.499 . S
C497 H498 0.959 . S
C497 H499 0.960 . S
C497 H500 0.961 . S
H498 C497 0.959 . S
H499 C497 0.960 . S
H500 C497 0.961 . S
O501 Co476 1.967 . S
O501 C509 1.258 . S
O502 Co477 1.941 . S
O502 C509 1.266 . S
H503 C505 0.959 . S
H504 C505 0.961 . S
C505 C495 1.510 . S
C505 H503 0.959 . S
C505 H504 0.961 . S
C505 H506 0.960 . S
H506 C505 0.960 . S
H507 N487 0.862 . S
O508 Co476 1.920 . S
O508 C481 1.289 . S
C509 O501 1.258 . S
C509 O502 1.266 . S
Co510 O513 1.970 . S
Co510 N527 1.989 . S
Co510 O535 1.967 . S
Co510 O542 1.920 . S
Co511 O514 1.966 . S
Co511 N520 2.022 . S
Co511 N528 1.993 . S
Co511 O536 1.941 . S
C512 O513 1.258 . S
C512 O514 1.263 . S
O513 Co510 1.970 . S
O513 C512 1.258 . S
O514 Co511 1.966 . S
O514 C512 1.263 . S
C515 O516 1.235 . S
C515 O542 1.289 . S
O516 C515 1.235 . S
C517 C519 1.400 . S
C517 N520 1.351 . S
C517 C522 1.501 . S
C518 C519 1.387 . S
C518 N521 1.341 . S
C519 C517 1.400 . S
C519 C518 1.387 . S
N520 Co511 2.022 . S
N520 C517 1.351 . S
N520 N521 1.365 . S
N521 C518 1.341 . S
N521 N520 1.365 . S
N521 H541 0.862 . S
C522 C517 1.501 . S
C522 H523 0.961 . S
C522 H524 0.961 . S
C522 H525 0.960 . S
H523 C522 0.961 . S
H524 C522 0.961 . S
H525 C522 0.960 . S
C526 N527 1.342 . S
C526 C530 1.401 . S
C526 C531 1.499 . S
N527 Co510 1.989 . S
N527 C526 1.342 . S
N527 N528 1.388 . S
N528 Co511 1.993 . S
N528 N527 1.388 . S
N528 C529 1.346 . S
C529 N528 1.346 . S
C529 C530 1.396 . S
C529 C539 1.510 . S
C530 C526 1.401 . S
C530 C529 1.396 . S
C531 C526 1.499 . S
C531 H532 0.959 . S
C531 H533 0.960 . S
C531 H534 0.961 . S
H532 C531 0.959 . S
H533 C531 0.960 . S
H534 C531 0.961 . S
O535 Co510 1.967 . S
O535 C543 1.258 . S
O536 Co511 1.941 . S
O536 C543 1.266 . S
H537 C539 0.959 . S
H538 C539 0.961 . S
C539 C529 1.510 . S
C539 H537 0.959 . S
C539 H538 0.961 . S
C539 H540 0.960 . S
H540 C539 0.960 . S
H541 N521 0.862 . S
O542 Co510 1.920 . S
O542 C515 1.289 . S
C543 O535 1.258 . S
C543 O536 1.266 . S
Co544 O547 1.970 . S
Co544 N561 1.989 . S
Co544 O569 1.967 . S
Co544 O576 1.920 . S
Co545 O548 1.966 . S
Co545 N554 2.022 . S
Co545 N562 1.993 . S
Co545 O570 1.941 . S
C546 O547 1.258 . S
C546 O548 1.263 . S
O547 Co544 1.970 . S
O547 C546 1.258 . S
O548 Co545 1.966 . S
O548 C546 1.263 . S
C549 O550 1.235 . S
C549 O576 1.289 . S
O550 C549 1.235 . S
C551 C553 1.400 . S
C551 N554 1.351 . S
C551 C556 1.501 . S
C552 C553 1.387 . S
C552 N555 1.341 . S
C553 C551 1.400 . S
C553 C552 1.387 . S
N554 Co545 2.022 . S
N554 C551 1.351 . S
N554 N555 1.365 . S
N555 C552 1.341 . S
N555 N554 1.365 . S
N555 H575 0.862 . S
C556 C551 1.501 . S
C556 H557 0.961 . S
C556 H558 0.961 . S
C556 H559 0.960 . S
H557 C556 0.961 . S
H558 C556 0.961 . S
H559 C556 0.960 . S
C560 N561 1.342 . S
C560 C564 1.401 . S
C560 C565 1.499 . S
N561 Co544 1.989 . S
N561 C560 1.342 . S
N561 N562 1.388 . S
N562 Co545 1.993 . S
N562 N561 1.388 . S
N562 C563 1.346 . S
C563 N562 1.346 . S
C563 C564 1.396 . S
C563 C573 1.510 . S
C564 C560 1.401 . S
C564 C563 1.396 . S
C565 C560 1.499 . S
C565 H566 0.959 . S
C565 H567 0.960 . S
C565 H568 0.961 . S
H566 C565 0.959 . S
H567 C565 0.960 . S
H568 C565 0.961 . S
O569 Co544 1.967 . S
O569 C577 1.258 . S
O570 Co545 1.941 . S
O570 C577 1.266 . S
H571 C573 0.959 . S
H572 C573 0.961 . S
C573 C563 1.510 . S
C573 H571 0.959 . S
C573 H572 0.961 . S
C573 H574 0.960 . S
H574 C573 0.960 . S
H575 N555 0.862 . S
O576 Co544 1.920 . S
O576 C549 1.289 . S
C577 O569 1.258 . S
C577 O570 1.266 . S
Co578 O581 1.970 . S
Co578 N595 1.989 . S
Co578 O603 1.967 . S
Co578 O610 1.920 . S
Co579 O582 1.966 . S
Co579 N588 2.022 . S
Co579 N596 1.993 . S
Co579 O604 1.941 . S
C580 O581 1.258 . S
C580 O582 1.263 . S
O581 Co578 1.970 . S
O581 C580 1.258 . S
O582 Co579 1.966 . S
O582 C580 1.263 . S
C583 O584 1.235 . S
C583 O610 1.289 . S
O584 C583 1.235 . S
C585 C587 1.400 . S
C585 N588 1.351 . S
C585 C590 1.501 . S
C586 C587 1.387 . S
C586 N589 1.341 . S
C587 C585 1.400 . S
C587 C586 1.387 . S
N588 Co579 2.022 . S
N588 C585 1.351 . S
N588 N589 1.365 . S
N589 C586 1.341 . S
N589 N588 1.365 . S
N589 H609 0.862 . S
C590 C585 1.501 . S
C590 H591 0.961 . S
C590 H592 0.961 . S
C590 H593 0.960 . S
H591 C590 0.961 . S
H592 C590 0.961 . S
H593 C590 0.960 . S
C594 N595 1.342 . S
C594 C598 1.401 . S
C594 C599 1.499 . S
N595 Co578 1.989 . S
N595 C594 1.342 . S
N595 N596 1.388 . S
N596 Co579 1.993 . S
N596 N595 1.388 . S
N596 C597 1.346 . S
C597 N596 1.346 . S
C597 C598 1.396 . S
C597 C607 1.510 . S
C598 C594 1.401 . S
C598 C597 1.396 . S
C599 C594 1.499 . S
C599 H600 0.959 . S
C599 H601 0.960 . S
C599 H602 0.961 . S
H600 C599 0.959 . S
H601 C599 0.960 . S
H602 C599 0.961 . S
O603 Co578 1.967 . S
O603 C611 1.258 . S
O604 Co579 1.941 . S
O604 C611 1.266 . S
H605 C607 0.959 . S
H606 C607 0.961 . S
C607 C597 1.510 . S
C607 H605 0.959 . S
C607 H606 0.961 . S
C607 H608 0.960 . S
H608 C607 0.960 . S
H609 N589 0.862 . S
O610 Co578 1.920 . S
O610 C583 1.289 . S
C611 O603 1.258 . S
C611 O604 1.266 . S
Co612 O615 1.970 . S
Co612 N629 1.989 . S
Co612 O637 1.967 . S
Co612 O644 1.920 . S
Co613 O616 1.966 . S
Co613 N622 2.022 . S
Co613 N630 1.993 . S
Co613 O638 1.941 . S
C614 O615 1.258 . S
C614 O616 1.263 . S
O615 Co612 1.970 . S
O615 C614 1.258 . S
O616 Co613 1.966 . S
O616 C614 1.263 . S
C617 O618 1.235 . S
C617 O644 1.289 . S
O618 C617 1.235 . S
C619 C621 1.400 . S
C619 N622 1.351 . S
C619 C624 1.501 . S
C620 C621 1.387 . S
C620 N623 1.341 . S
C621 C619 1.400 . S
C621 C620 1.387 . S
N622 Co613 2.022 . S
N622 C619 1.351 . S
N622 N623 1.365 . S
N623 C620 1.341 . S
N623 N622 1.365 . S
N623 H643 0.862 . S
C624 C619 1.501 . S
C624 H625 0.961 . S
C624 H626 0.961 . S
C624 H627 0.960 . S
H625 C624 0.961 . S
H626 C624 0.961 . S
H627 C624 0.960 . S
C628 N629 1.342 . S
C628 C632 1.401 . S
C628 C633 1.499 . S
N629 Co612 1.989 . S
N629 C628 1.342 . S
N629 N630 1.388 . S
N630 Co613 1.993 . S
N630 N629 1.388 . S
N630 C631 1.346 . S
C631 N630 1.346 . S
C631 C632 1.396 . S
C631 C641 1.510 . S
C632 C628 1.401 . S
C632 C631 1.396 . S
C633 C628 1.499 . S
C633 H634 0.959 . S
C633 H635 0.960 . S
C633 H636 0.961 . S
H634 C633 0.959 . S
H635 C633 0.960 . S
H636 C633 0.961 . S
O637 Co612 1.967 . S
O637 C645 1.258 . S
O638 Co613 1.941 . S
O638 C645 1.266 . S
H639 C641 0.959 . S
H640 C641 0.961 . S
C641 C631 1.510 . S
C641 H639 0.959 . S
C641 H640 0.961 . S
C641 H642 0.960 . S
H642 C641 0.960 . S
H643 N623 0.862 . S
O644 Co612 1.920 . S
O644 C617 1.289 . S
C645 O637 1.258 . S
C645 O638 1.266 . S
Co646 O649 1.970 . S
Co646 N663 1.989 . S
Co646 O671 1.967 . S
Co646 O678 1.920 . S
Co647 O650 1.966 . S
Co647 N656 2.022 . S
Co647 N664 1.993 . S
Co647 O672 1.941 . S
C648 O649 1.258 . S
C648 O650 1.263 . S
O649 Co646 1.970 . S
O649 C648 1.258 . S
O650 Co647 1.966 . S
O650 C648 1.263 . S
C651 O652 1.235 . S
C651 O678 1.289 . S
O652 C651 1.235 . S
C653 C655 1.400 . S
C653 N656 1.351 . S
C653 C658 1.501 . S
C654 C655 1.387 . S
C654 N657 1.341 . S
C655 C653 1.400 . S
C655 C654 1.387 . S
N656 Co647 2.022 . S
N656 C653 1.351 . S
N656 N657 1.365 . S
N657 C654 1.341 . S
N657 N656 1.365 . S
N657 H677 0.862 . S
C658 C653 1.501 . S
C658 H659 0.961 . S
C658 H660 0.961 . S
C658 H661 0.960 . S
H659 C658 0.961 . S
H660 C658 0.961 . S
H661 C658 0.960 . S
C662 N663 1.342 . S
C662 C666 1.401 . S
C662 C667 1.499 . S
N663 Co646 1.989 . S
N663 C662 1.342 . S
N663 N664 1.388 . S
N664 Co647 1.993 . S
N664 N663 1.388 . S
N664 C665 1.346 . S
C665 N664 1.346 . S
C665 C666 1.396 . S
C665 C675 1.510 . S
C666 C662 1.401 . S
C666 C665 1.396 . S
C667 C662 1.499 . S
C667 H668 0.959 . S
C667 H669 0.960 . S
C667 H670 0.961 . S
H668 C667 0.959 . S
H669 C667 0.960 . S
H670 C667 0.961 . S
O671 Co646 1.967 . S
O671 C679 1.258 . S
O672 Co647 1.941 . S
O672 C679 1.266 . S
H673 C675 0.959 . S
H674 C675 0.961 . S
C675 C665 1.510 . S
C675 H673 0.959 . S
C675 H674 0.961 . S
C675 H676 0.960 . S
H676 C675 0.960 . S
H677 N657 0.862 . S
O678 Co646 1.920 . S
O678 C651 1.289 . S
C679 O671 1.258 . S
C679 O672 1.266 . S
Co680 O683 1.970 . S
Co680 N697 1.989 . S
Co680 O705 1.967 . S
Co680 O712 1.920 . S
Co681 O684 1.966 . S
Co681 N690 2.022 . S
Co681 N698 1.993 . S
Co681 O706 1.941 . S
C682 O683 1.258 . S
C682 O684 1.263 . S
O683 Co680 1.970 . S
O683 C682 1.258 . S
O684 Co681 1.966 . S
O684 C682 1.263 . S
C685 O686 1.235 . S
C685 O712 1.289 . S
O686 C685 1.235 . S
C687 C689 1.400 . S
C687 N690 1.351 . S
C687 C692 1.501 . S
C688 C689 1.387 . S
C688 N691 1.341 . S
C689 C687 1.400 . S
C689 C688 1.387 . S
N690 Co681 2.022 . S
N690 C687 1.351 . S
N690 N691 1.365 . S
N691 C688 1.341 . S
N691 N690 1.365 . S
N691 H711 0.862 . S
C692 C687 1.501 . S
C692 H693 0.961 . S
C692 H694 0.961 . S
C692 H695 0.960 . S
H693 C692 0.961 . S
H694 C692 0.961 . S
H695 C692 0.960 . S
C696 N697 1.342 . S
C696 C700 1.401 . S
C696 C701 1.499 . S
N697 Co680 1.989 . S
N697 C696 1.342 . S
N697 N698 1.388 . S
N698 Co681 1.993 . S
N698 N697 1.388 . S
N698 C699 1.346 . S
C699 N698 1.346 . S
C699 C700 1.396 . S
C699 C709 1.510 . S
C700 C696 1.401 . S
C700 C699 1.396 . S
C701 C696 1.499 . S
C701 H702 0.959 . S
C701 H703 0.960 . S
C701 H704 0.961 . S
H702 C701 0.959 . S
H703 C701 0.960 . S
H704 C701 0.961 . S
O705 Co680 1.967 . S
O705 C713 1.258 . S
O706 Co681 1.941 . S
O706 C713 1.266 . S
H707 C709 0.959 . S
H708 C709 0.961 . S
C709 C699 1.510 . S
C709 H707 0.959 . S
C709 H708 0.961 . S
C709 H710 0.960 . S
H710 C709 0.960 . S
H711 N691 0.862 . S
O712 Co680 1.920 . S
O712 C685 1.289 . S
C713 O705 1.258 . S
C713 O706 1.266 . S
Co714 O717 1.970 . S
Co714 N731 1.989 . S
Co714 O739 1.967 . S
Co714 O746 1.920 . S
Co715 O718 1.966 . S
Co715 N724 2.022 . S
Co715 N732 1.993 . S
Co715 O740 1.941 . S
C716 O717 1.258 . S
C716 O718 1.263 . S
O717 Co714 1.970 . S
O717 C716 1.258 . S
O718 Co715 1.966 . S
O718 C716 1.263 . S
C719 O720 1.235 . S
C719 O746 1.289 . S
O720 C719 1.235 . S
C721 C723 1.400 . S
C721 N724 1.351 . S
C721 C726 1.501 . S
C722 C723 1.387 . S
C722 N725 1.341 . S
C723 C721 1.400 . S
C723 C722 1.387 . S
N724 Co715 2.022 . S
N724 C721 1.351 . S
N724 N725 1.365 . S
N725 C722 1.341 . S
N725 N724 1.365 . S
N725 H745 0.862 . S
C726 C721 1.501 . S
C726 H727 0.961 . S
C726 H728 0.961 . S
C726 H729 0.960 . S
H727 C726 0.961 . S
H728 C726 0.961 . S
H729 C726 0.960 . S
C730 N731 1.342 . S
C730 C734 1.401 . S
C730 C735 1.499 . S
N731 Co714 1.989 . S
N731 C730 1.342 . S
N731 N732 1.388 . S
N732 Co715 1.993 . S
N732 N731 1.388 . S
N732 C733 1.346 . S
C733 N732 1.346 . S
C733 C734 1.396 . S
C733 C743 1.510 . S
C734 C730 1.401 . S
C734 C733 1.396 . S
C735 C730 1.499 . S
C735 H736 0.959 . S
C735 H737 0.960 . S
C735 H738 0.961 . S
H736 C735 0.959 . S
H737 C735 0.960 . S
H738 C735 0.961 . S
O739 Co714 1.967 . S
O739 C747 1.258 . S
O740 Co715 1.941 . S
O740 C747 1.266 . S
H741 C743 0.959 . S
H742 C743 0.961 . S
C743 C733 1.510 . S
C743 H741 0.959 . S
C743 H742 0.961 . S
C743 H744 0.960 . S
H744 C743 0.960 . S
H745 N725 0.862 . S
O746 Co714 1.920 . S
O746 C719 1.289 . S
C747 O739 1.258 . S
C747 O740 1.266 . S
Co748 O751 1.970 . S
Co748 N765 1.989 . S
Co748 O773 1.967 . S
Co748 O780 1.920 . S
Co749 O752 1.966 . S
Co749 N758 2.022 . S
Co749 N766 1.993 . S
Co749 O774 1.941 . S
C750 O751 1.258 . S
C750 O752 1.263 . S
O751 Co748 1.970 . S
O751 C750 1.258 . S
O752 Co749 1.966 . S
O752 C750 1.263 . S
C753 O754 1.235 . S
C753 O780 1.289 . S
O754 C753 1.235 . S
C755 C757 1.400 . S
C755 N758 1.351 . S
C755 C760 1.501 . S
C756 C757 1.387 . S
C756 N759 1.341 . S
C757 C755 1.400 . S
C757 C756 1.387 . S
N758 Co749 2.022 . S
N758 C755 1.351 . S
N758 N759 1.365 . S
N759 C756 1.341 . S
N759 N758 1.365 . S
N759 H779 0.862 . S
C760 C755 1.501 . S
C760 H761 0.961 . S
C760 H762 0.961 . S
C760 H763 0.960 . S
H761 C760 0.961 . S
H762 C760 0.961 . S
H763 C760 0.960 . S
C764 N765 1.342 . S
C764 C768 1.401 . S
C764 C769 1.499 . S
N765 Co748 1.989 . S
N765 C764 1.342 . S
N765 N766 1.388 . S
N766 Co749 1.993 . S
N766 N765 1.388 . S
N766 C767 1.346 . S
C767 N766 1.346 . S
C767 C768 1.396 . S
C767 C777 1.510 . S
C768 C764 1.401 . S
C768 C767 1.396 . S
C769 C764 1.499 . S
C769 H770 0.959 . S
C769 H771 0.960 . S
C769 H772 0.961 . S
H770 C769 0.959 . S
H771 C769 0.960 . S
H772 C769 0.961 . S
O773 Co748 1.967 . S
O773 C781 1.258 . S
O774 Co749 1.941 . S
O774 C781 1.266 . S
H775 C777 0.959 . S
H776 C777 0.961 . S
C777 C767 1.510 . S
C777 H775 0.959 . S
C777 H776 0.961 . S
C777 H778 0.960 . S
H778 C777 0.960 . S
H779 N759 0.862 . S
O780 Co748 1.920 . S
O780 C753 1.289 . S
C781 O773 1.258 . S
C781 O774 1.266 . S
Co782 O785 1.970 . S
Co782 N799 1.989 . S
Co782 O807 1.967 . S
Co782 O814 1.920 . S
Co783 O786 1.966 . S
Co783 N792 2.022 . S
Co783 N800 1.993 . S
Co783 O808 1.941 . S
C784 O785 1.258 . S
C784 O786 1.263 . S
O785 Co782 1.970 . S
O785 C784 1.258 . S
O786 Co783 1.966 . S
O786 C784 1.263 . S
C787 O788 1.235 . S
C787 O814 1.289 . S
O788 C787 1.235 . S
C789 C791 1.400 . S
C789 N792 1.351 . S
C789 C794 1.501 . S
C790 C791 1.387 . S
C790 N793 1.341 . S
C791 C789 1.400 . S
C791 C790 1.387 . S
N792 Co783 2.022 . S
N792 C789 1.351 . S
N792 N793 1.365 . S
N793 C790 1.341 . S
N793 N792 1.365 . S
N793 H813 0.862 . S
C794 C789 1.501 . S
C794 H795 0.961 . S
C794 H796 0.961 . S
C794 H797 0.960 . S
H795 C794 0.961 . S
H796 C794 0.961 . S
H797 C794 0.960 . S
C798 N799 1.342 . S
C798 C802 1.401 . S
C798 C803 1.499 . S
N799 Co782 1.989 . S
N799 C798 1.342 . S
N799 N800 1.388 . S
N800 Co783 1.993 . S
N800 N799 1.388 . S
N800 C801 1.346 . S
C801 N800 1.346 . S
C801 C802 1.396 . S
C801 C811 1.510 . S
C802 C798 1.401 . S
C802 C801 1.396 . S
C803 C798 1.499 . S
C803 H804 0.959 . S
C803 H805 0.960 . S
C803 H806 0.961 . S
H804 C803 0.959 . S
H805 C803 0.960 . S
H806 C803 0.961 . S
O807 Co782 1.967 . S
O807 C815 1.258 . S
O808 Co783 1.941 . S
O808 C815 1.266 . S
H809 C811 0.959 . S
H810 C811 0.961 . S
C811 C801 1.510 . S
C811 H809 0.959 . S
C811 H810 0.961 . S
C811 H812 0.960 . S
H812 C811 0.960 . S
H813 N793 0.862 . S
O814 Co782 1.920 . S
O814 C787 1.289 . S
C815 O807 1.258 . S
C815 O808 1.266 . S
H816 C834 0.951 . S
H817 C836 0.951 . S
H818 C838 0.950 . S
H819 C839 0.950 . S
H820 C841 0.950 . S
H821 C844 0.950 . S
H822 C845 0.950 . S
H823 C847 0.950 . S
H824 C848 0.950 . S
H825 C849 0.951 . S
H826 C851 0.951 . S
H827 C853 0.950 . S
H828 C854 0.950 . S
H829 C856 0.950 . S
H830 C859 0.950 . S
H831 C860 0.950 . S
H832 C862 0.950 . S
H833 C863 0.950 . S
C834 H816 0.951 . S
C834 C835 1.366 . S
C834 C836 1.388 . S
C835 C834 1.366 . S
C835 C839 1.385 . S
C836 H817 0.951 . S
C836 C834 1.388 . S
C836 C837 1.366 . S
C837 C836 1.366 . S
C837 C838 1.414 . S
C837 C840 1.499 . S
C838 H818 0.950 . S
C838 C837 1.414 . S
C838 C839 1.374 . S
C839 H819 0.950 . S
C839 C835 1.385 . S
C839 C838 1.374 . S
C840 C837 1.499 . S
C840 C841 1.373 . S
C840 C842 1.389 . S
C841 H820 0.950 . S
C841 C840 1.373 . S
C841 C857 1.377 . S
C842 C840 1.389 . S
C842 C843 1.524 . S
C842 C856 1.377 . S
C843 C842 1.524 . S
C843 C844 1.397 . S
C843 C848 1.363 . S
C844 H821 0.950 . S
C844 C843 1.397 . S
C844 C845 1.334 . S
C845 H822 0.950 . S
C845 C844 1.334 . S
C845 C846 1.287 . S
C846 C845 1.287 . S
C846 C847 1.524 . S
C846 H865 0.913 . S
C847 H823 0.950 . S
C847 C846 1.524 . S
C847 C848 1.415 . S
C848 H824 0.950 . S
C848 C843 1.363 . S
C848 C847 1.415 . S
C849 H825 0.951 . S
C849 C850 1.366 . S
C849 C851 1.388 . S
C850 C849 1.366 . S
C850 C854 1.385 . S
C851 H826 0.951 . S
C851 C849 1.388 . S
C851 C852 1.366 . S
C852 C851 1.366 . S
C852 C853 1.414 . S
C852 C855 1.499 . S
C853 H827 0.950 . S
C853 C852 1.414 . S
C853 C854 1.374 . S
C854 H828 0.950 . S
C854 C850 1.385 . S
C854 C853 1.374 . S
C855 C852 1.499 . S
C855 C856 1.373 . S
C855 C857 1.389 . S
C856 H829 0.950 . S
C856 C842 1.377 . S
C856 C855 1.373 . S
C857 C841 1.377 . S
C857 C855 1.389 . S
C857 C858 1.524 . S
C858 C857 1.524 . S
C858 C859 1.397 . S
C858 C863 1.363 . S
C859 H830 0.950 . S
C859 C858 1.397 . S
C859 C860 1.334 . S
C860 H831 0.950 . S
C860 C859 1.334 . S
C860 C861 1.287 . S
C861 C860 1.287 . S
C861 C862 1.524 . S
C861 H864 0.999 . S
C862 H832 0.950 . S
C862 C861 1.524 . S
C862 C863 1.415 . S
C863 H833 0.950 . S
C863 C858 1.363 . S
C863 C862 1.415 . S
H864 C861 0.999 . S
H865 C846 0.913 . S
H866 C884 0.951 . S
H867 C886 0.951 . S
H868 C888 0.950 . S
H869 C889 0.950 . S
H870 C891 0.950 . S
H871 C894 0.950 . S
H872 C895 0.950 . S
H873 C897 0.950 . S
H874 C898 0.950 . S
H875 C899 0.951 . S
H876 C901 0.951 . S
H877 C903 0.950 . S
H878 C904 0.950 . S
H879 C906 0.950 . S
H880 C909 0.950 . S
H881 C910 0.950 . S
H882 C912 0.950 . S
H883 C913 0.950 . S
C884 H866 0.951 . S
C884 C885 1.366 . S
C884 C886 1.388 . S
C885 C884 1.366 . S
C885 C889 1.385 . S
C886 H867 0.951 . S
C886 C884 1.388 . S
C886 C887 1.366 . S
C887 C886 1.366 . S
C887 C888 1.414 . S
C887 C890 1.499 . S
C888 H868 0.950 . S
C888 C887 1.414 . S
C888 C889 1.374 . S
C889 H869 0.950 . S
C889 C885 1.385 . S
C889 C888 1.374 . S
C890 C887 1.499 . S
C890 C891 1.373 . S
C890 C892 1.389 . S
C891 H870 0.950 . S
C891 C890 1.373 . S
C891 C907 1.377 . S
C892 C890 1.389 . S
C892 C893 1.524 . S
C892 C906 1.377 . S
C893 C892 1.524 . S
C893 C894 1.397 . S
C893 C898 1.363 . S
C894 H871 0.950 . S
C894 C893 1.397 . S
C894 C895 1.334 . S
C895 H872 0.950 . S
C895 C894 1.334 . S
C895 C896 1.287 . S
C896 C895 1.287 . S
C896 C897 1.524 . S
C896 H915 0.913 . S
C897 H873 0.950 . S
C897 C896 1.524 . S
C897 C898 1.415 . S
C898 H874 0.950 . S
C898 C893 1.363 . S
C898 C897 1.415 . S
C899 H875 0.951 . S
C899 C900 1.366 . S
C899 C901 1.388 . S
C900 C899 1.366 . S
C900 C904 1.385 . S
C901 H876 0.951 . S
C901 C899 1.388 . S
C901 C902 1.366 . S
C902 C901 1.366 . S
C902 C903 1.414 . S
C902 C905 1.499 . S
C903 H877 0.950 . S
C903 C902 1.414 . S
C903 C904 1.374 . S
C904 H878 0.950 . S
C904 C900 1.385 . S
C904 C903 1.374 . S
C905 C902 1.499 . S
C905 C906 1.373 . S
C905 C907 1.389 . S
C906 H879 0.950 . S
C906 C892 1.377 . S
C906 C905 1.373 . S
C907 C891 1.377 . S
C907 C905 1.389 . S
C907 C908 1.524 . S
C908 C907 1.524 . S
C908 C909 1.397 . S
C908 C913 1.363 . S
C909 H880 0.950 . S
C909 C908 1.397 . S
C909 C910 1.334 . S
C910 H881 0.950 . S
C910 C909 1.334 . S
C910 C911 1.287 . S
C911 C910 1.287 . S
C911 C912 1.524 . S
C911 H914 0.999 . S
C912 H882 0.950 . S
C912 C911 1.524 . S
C912 C913 1.415 . S
C913 H883 0.950 . S
C913 C908 1.363 . S
C913 C912 1.415 . S
H914 C911 0.999 . S
H915 C896 0.913 . S
H916 C934 0.951 . S
H917 C936 0.951 . S
H918 C938 0.950 . S
H919 C939 0.950 . S
H920 C941 0.950 . S
H921 C944 0.950 . S
H922 C945 0.950 . S
H923 C947 0.950 . S
H924 C948 0.950 . S
H925 C949 0.951 . S
H926 C951 0.951 . S
H927 C953 0.950 . S
H928 C954 0.950 . S
H929 C956 0.950 . S
H930 C959 0.950 1_556 S
H931 C960 0.950 . S
H932 C962 0.950 . S
H933 C963 0.950 . S
C934 H916 0.951 . S
C934 C935 1.366 . S
C934 C936 1.388 . S
C935 C934 1.366 . S
C935 C939 1.385 . S
C936 H917 0.951 . S
C936 C934 1.388 . S
C936 C937 1.366 . S
C937 C936 1.366 . S
C937 C938 1.414 . S
C937 C940 1.499 . S
C938 H918 0.950 . S
C938 C937 1.414 . S
C938 C939 1.374 . S
C939 H919 0.950 . S
C939 C935 1.385 . S
C939 C938 1.374 . S
C940 C937 1.499 . S
C940 C941 1.373 . S
C940 C942 1.389 . S
C941 H920 0.950 . S
C941 C940 1.373 . S
C941 C957 1.377 . S
C942 C940 1.389 . S
C942 C943 1.524 . S
C942 C956 1.377 . S
C943 C942 1.524 . S
C943 C944 1.397 . S
C943 C948 1.363 . S
C944 H921 0.950 . S
C944 C943 1.397 . S
C944 C945 1.334 . S
C945 H922 0.950 . S
C945 C944 1.334 . S
C945 C946 1.287 . S
C946 C945 1.287 . S
C946 C947 1.524 . S
C946 H965 0.913 . S
C947 H923 0.950 . S
C947 C946 1.524 . S
C947 C948 1.415 . S
C948 H924 0.950 . S
C948 C943 1.363 . S
C948 C947 1.415 . S
C949 H925 0.951 . S
C949 C950 1.366 . S
C949 C951 1.388 . S
C950 C949 1.366 . S
C950 C954 1.385 1_554 S
C951 H926 0.951 . S
C951 C949 1.388 . S
C951 C952 1.366 1_554 S
C952 C951 1.366 1_556 S
C952 C953 1.414 . S
C952 C955 1.499 . S
C953 H927 0.950 . S
C953 C952 1.414 . S
C953 C954 1.374 . S
C954 H928 0.950 . S
C954 C950 1.385 1_556 S
C954 C953 1.374 . S
C955 C952 1.499 . S
C955 C956 1.373 . S
C955 C957 1.389 . S
C956 H929 0.950 . S
C956 C942 1.377 . S
C956 C955 1.373 . S
C957 C941 1.377 . S
C957 C955 1.389 . S
C957 C958 1.524 . S
C958 C957 1.524 . S
C958 C959 1.397 1_556 S
C958 C963 1.363 1_556 S
C959 H930 0.950 1_554 S
C959 C958 1.397 1_554 S
C959 C960 1.334 . S
C960 H931 0.950 . S
C960 C959 1.334 . S
C960 C961 1.287 . S
C961 C960 1.287 . S
C961 C962 1.524 . S
C961 H964 0.999 . S
C962 H932 0.950 . S
C962 C961 1.524 . S
C962 C963 1.415 . S
C963 H933 0.950 . S
C963 C958 1.363 1_554 S
C963 C962 1.415 . S
H964 C961 0.999 . S
H965 C946 0.913 . S
H966 C984 0.951 . S
H967 C986 0.951 . S
H968 C988 0.950 . S
H969 C989 0.950 . S
H970 C991 0.950 . S
H971 C994 0.950 . S
H972 C995 0.950 . S
H973 C997 0.950 . S
H974 C998 0.950 . S
H975 C999 0.951 . S
H976 C1001 0.951 . S
H977 C1003 0.950 . S
H978 C1004 0.950 . S
H979 C1006 0.950 . S
H980 C1009 0.950 . S
H981 C1010 0.950 . S
H982 C1012 0.950 . S
H983 C1013 0.950 . S
C984 H966 0.951 . S
C984 C985 1.366 . S
C984 C986 1.388 . S
C985 C984 1.366 . S
C985 C989 1.385 . S
C986 H967 0.951 . S
C986 C984 1.388 . S
C986 C987 1.366 . S
C987 C986 1.366 . S
C987 C988 1.414 . S
C987 C990 1.499 . S
C988 H968 0.950 . S
C988 C987 1.414 . S
C988 C989 1.374 . S
C989 H969 0.950 . S
C989 C985 1.385 . S
C989 C988 1.374 . S
C990 C987 1.499 . S
C990 C991 1.373 . S
C990 C992 1.389 . S
C991 H970 0.950 . S
C991 C990 1.373 . S
C991 C1007 1.377 . S
C992 C990 1.389 . S
C992 C993 1.524 . S
C992 C1006 1.377 . S
C993 C992 1.524 . S
C993 C994 1.397 . S
C993 C998 1.363 . S
C994 H971 0.950 . S
C994 C993 1.397 . S
C994 C995 1.334 . S
C995 H972 0.950 . S
C995 C994 1.334 . S
C995 C996 1.287 . S
C996 C995 1.287 . S
C996 C997 1.524 . S
C996 H1015 0.913 . S
C997 H973 0.950 . S
C997 C996 1.524 . S
C997 C998 1.415 . S
C998 H974 0.950 . S
C998 C993 1.363 . S
C998 C997 1.415 . S
C999 H975 0.951 . S
C999 C1000 1.366 . S
C999 C1001 1.388 . S
C1000 C999 1.366 . S
C1000 C1004 1.385 . S
C1001 H976 0.951 . S
C1001 C999 1.388 . S
C1001 C1002 1.366 . S
C1002 C1001 1.366 . S
C1002 C1003 1.414 . S
C1002 C1005 1.499 . S
C1003 H977 0.950 . S
C1003 C1002 1.414 . S
C1003 C1004 1.374 . S
C1004 H978 0.950 . S
C1004 C1000 1.385 . S
C1004 C1003 1.374 . S
C1005 C1002 1.499 . S
C1005 C1006 1.373 . S
C1005 C1007 1.389 . S
C1006 H979 0.950 . S
C1006 C992 1.377 . S
C1006 C1005 1.373 . S
C1007 C991 1.377 . S
C1007 C1005 1.389 . S
C1007 C1008 1.524 . S
C1008 C1007 1.524 . S
C1008 C1009 1.397 . S
C1008 C1013 1.363 . S
C1009 H980 0.950 . S
C1009 C1008 1.397 . S
C1009 C1010 1.334 . S
C1010 H981 0.950 . S
C1010 C1009 1.334 . S
C1010 C1011 1.287 . S
C1011 C1010 1.287 . S
C1011 C1012 1.524 . S
C1011 H1014 0.999 . S
C1012 H982 0.950 . S
C1012 C1011 1.524 . S
C1012 C1013 1.415 . S
C1013 H983 0.950 . S
C1013 C1008 1.363 . S
C1013 C1012 1.415 . S
H1014 C1011 0.999 . S
H1015 C996 0.913 . S
H1016 C1034 0.951 . S
H1017 C1036 0.951 . S
H1018 C1038 0.950 . S
H1019 C1039 0.950 . S
H1020 C1041 0.950 . S
H1021 C1044 0.950 . S
H1022 C1045 0.950 . S
H1023 C1047 0.950 . S
H1024 C1048 0.950 . S
H1025 C1049 0.951 . S
H1026 C1051 0.951 . S
H1027 C1053 0.950 . S
H1028 C1054 0.950 . S
H1029 C1056 0.950 . S
H1030 C1059 0.950 . S
H1031 C1060 0.950 . S
H1032 C1062 0.950 . S
H1033 C1063 0.950 . S
C1034 H1016 0.951 . S
C1034 C1035 1.366 . S
C1034 C1036 1.388 . S
C1035 C1034 1.366 . S
C1035 C1039 1.385 . S
C1036 H1017 0.951 . S
C1036 C1034 1.388 . S
C1036 C1037 1.366 . S
C1037 C1036 1.366 . S
C1037 C1038 1.414 . S
C1037 C1040 1.499 . S
C1038 H1018 0.950 . S
C1038 C1037 1.414 . S
C1038 C1039 1.374 . S
C1039 H1019 0.950 . S
C1039 C1035 1.385 . S
C1039 C1038 1.374 . S
C1040 C1037 1.499 . S
C1040 C1041 1.373 . S
C1040 C1042 1.389 . S
C1041 H1020 0.950 . S
C1041 C1040 1.373 . S
C1041 C1057 1.377 . S
C1042 C1040 1.389 . S
C1042 C1043 1.524 . S
C1042 C1056 1.377 . S
C1043 C1042 1.524 . S
C1043 C1044 1.397 . S
C1043 C1048 1.363 . S
C1044 H1021 0.950 . S
C1044 C1043 1.397 . S
C1044 C1045 1.334 . S
C1045 H1022 0.950 . S
C1045 C1044 1.334 . S
C1045 C1046 1.287 . S
C1046 C1045 1.287 . S
C1046 C1047 1.524 . S
C1046 H1065 0.913 . S
C1047 H1023 0.950 . S
C1047 C1046 1.524 . S
C1047 C1048 1.415 . S
C1048 H1024 0.950 . S
C1048 C1043 1.363 . S
C1048 C1047 1.415 . S
C1049 H1025 0.951 . S
C1049 C1050 1.366 . S
C1049 C1051 1.388 . S
C1050 C1049 1.366 . S
C1050 C1054 1.385 . S
C1051 H1026 0.951 . S
C1051 C1049 1.388 . S
C1051 C1052 1.366 . S
C1052 C1051 1.366 . S
C1052 C1053 1.414 . S
C1052 C1055 1.499 . S
C1053 H1027 0.950 . S
C1053 C1052 1.414 . S
C1053 C1054 1.374 . S
C1054 H1028 0.950 . S
C1054 C1050 1.385 . S
C1054 C1053 1.374 . S
C1055 C1052 1.499 . S
C1055 C1056 1.373 . S
C1055 C1057 1.389 . S
C1056 H1029 0.950 . S
C1056 C1042 1.377 . S
C1056 C1055 1.373 . S
C1057 C1041 1.377 . S
C1057 C1055 1.389 . S
C1057 C1058 1.524 . S
C1058 C1057 1.524 . S
C1058 C1059 1.397 . S
C1058 C1063 1.363 . S
C1059 H1030 0.950 . S
C1059 C1058 1.397 . S
C1059 C1060 1.334 . S
C1060 H1031 0.950 . S
C1060 C1059 1.334 . S
C1060 C1061 1.287 . S
C1061 C1060 1.287 . S
C1061 C1062 1.524 . S
C1061 H1064 0.999 . S
C1062 H1032 0.950 . S
C1062 C1061 1.524 . S
C1062 C1063 1.415 . S
C1063 H1033 0.950 . S
C1063 C1058 1.363 . S
C1063 C1062 1.415 . S
H1064 C1061 0.999 . S
H1065 C1046 0.913 . S
H1066 C1084 0.951 . S
H1067 C1086 0.951 . S
H1068 C1088 0.950 . S
H1069 C1089 0.950 . S
H1070 C1091 0.950 . S
H1071 C1094 0.950 . S
H1072 C1095 0.950 . S
H1073 C1097 0.950 . S
H1074 C1098 0.950 . S
H1075 C1099 0.951 . S
H1076 C1101 0.951 . S
H1077 C1103 0.950 . S
H1078 C1104 0.950 . S
H1079 C1106 0.950 . S
H1080 C1109 0.950 . S
H1081 C1110 0.950 . S
H1082 C1112 0.950 . S
H1083 C1113 0.950 . S
C1084 H1066 0.951 . S
C1084 C1085 1.366 . S
C1084 C1086 1.388 1_545 S
C1085 C1084 1.366 . S
C1085 C1089 1.385 . S
C1086 H1067 0.951 . S
C1086 C1084 1.388 1_565 S
C1086 C1087 1.366 . S
C1087 C1086 1.366 . S
C1087 C1088 1.414 . S
C1087 C1090 1.499 . S
C1088 H1068 0.950 . S
C1088 C1087 1.414 . S
C1088 C1089 1.374 1_565 S
C1089 H1069 0.950 . S
C1089 C1085 1.385 . S
C1089 C1088 1.374 1_545 S
C1090 C1087 1.499 . S
C1090 C1091 1.373 . S
C1090 C1092 1.389 . S
C1091 H1070 0.950 . S
C1091 C1090 1.373 . S
C1091 C1107 1.377 . S
C1092 C1090 1.389 . S
C1092 C1093 1.524 . S
C1092 C1106 1.377 . S
C1093 C1092 1.524 . S
C1093 C1094 1.397 . S
C1093 C1098 1.363 . S
C1094 H1071 0.950 . S
C1094 C1093 1.397 . S
C1094 C1095 1.334 . S
C1095 H1072 0.950 . S
C1095 C1094 1.334 . S
C1095 C1096 1.287 . S
C1096 C1095 1.287 . S
C1096 C1097 1.524 . S
C1096 H1115 0.913 . S
C1097 H1073 0.950 . S
C1097 C1096 1.524 . S
C1097 C1098 1.415 . S
C1098 H1074 0.950 . S
C1098 C1093 1.363 . S
C1098 C1097 1.415 . S
C1099 H1075 0.951 . S
C1099 C1100 1.366 . S
C1099 C1101 1.388 . S
C1100 C1099 1.366 . S
C1100 C1104 1.385 . S
C1101 H1076 0.951 . S
C1101 C1099 1.388 . S
C1101 C1102 1.366 . S
C1102 C1101 1.366 . S
C1102 C1103 1.414 . S
C1102 C1105 1.499 . S
C1103 H1077 0.950 . S
C1103 C1102 1.414 . S
C1103 C1104 1.374 . S
C1104 H1078 0.950 . S
C1104 C1100 1.385 . S
C1104 C1103 1.374 . S
C1105 C1102 1.499 . S
C1105 C1106 1.373 . S
C1105 C1107 1.389 . S
C1106 H1079 0.950 . S
C1106 C1092 1.377 . S
C1106 C1105 1.373 . S
C1107 C1091 1.377 . S
C1107 C1105 1.389 . S
C1107 C1108 1.524 . S
C1108 C1107 1.524 . S
C1108 C1109 1.397 . S
C1108 C1113 1.363 . S
C1109 H1080 0.950 . S
C1109 C1108 1.397 . S
C1109 C1110 1.334 . S
C1110 H1081 0.950 . S
C1110 C1109 1.334 . S
C1110 C1111 1.287 . S
C1111 C1110 1.287 . S
C1111 C1112 1.524 . S
C1111 H1114 0.999 . S
C1112 H1082 0.950 . S
C1112 C1111 1.524 . S
C1112 C1113 1.415 . S
C1113 H1083 0.950 . S
C1113 C1108 1.363 . S
C1113 C1112 1.415 . S
H1114 C1111 0.999 . S
H1115 C1096 0.913 . S
H1116 C1134 0.951 . S
H1117 C1136 0.951 . S
H1118 C1138 0.950 . S
H1119 C1139 0.950 . S
H1120 C1141 0.950 . S
H1121 C1144 0.950 . S
H1122 C1145 0.950 . S
H1123 C1147 0.950 . S
H1124 C1148 0.950 . S
H1125 C1149 0.951 . S
H1126 C1151 0.951 . S
H1127 C1153 0.950 . S
H1128 C1154 0.950 . S
H1129 C1156 0.950 . S
H1130 C1159 0.950 . S
H1131 C1160 0.950 . S
H1132 C1162 0.950 . S
H1133 C1163 0.950 . S
C1134 H1116 0.951 . S
C1134 C1135 1.366 . S
C1134 C1136 1.388 . S
C1135 C1134 1.366 . S
C1135 C1139 1.385 . S
C1136 H1117 0.951 . S
C1136 C1134 1.388 . S
C1136 C1137 1.366 . S
C1137 C1136 1.366 . S
C1137 C1138 1.414 . S
C1137 C1140 1.499 . S
C1138 H1118 0.950 . S
C1138 C1137 1.414 . S
C1138 C1139 1.374 . S
C1139 H1119 0.950 . S
C1139 C1135 1.385 . S
C1139 C1138 1.374 . S
C1140 C1137 1.499 . S
C1140 C1141 1.373 . S
C1140 C1142 1.389 . S
C1141 H1120 0.950 . S
C1141 C1140 1.373 . S
C1141 C1157 1.377 . S
C1142 C1140 1.389 . S
C1142 C1143 1.524 . S
C1142 C1156 1.377 . S
C1143 C1142 1.524 . S
C1143 C1144 1.397 . S
C1143 C1148 1.363 . S
C1144 H1121 0.950 . S
C1144 C1143 1.397 . S
C1144 C1145 1.334 . S
C1145 H1122 0.950 . S
C1145 C1144 1.334 . S
C1145 C1146 1.287 . S
C1146 C1145 1.287 . S
C1146 C1147 1.524 1_554 S
C1146 H1165 0.913 . S
C1147 H1123 0.950 . S
C1147 C1146 1.524 1_556 S
C1147 C1148 1.415 1_556 S
C1148 H1124 0.950 . S
C1148 C1143 1.363 . S
C1148 C1147 1.415 1_554 S
C1149 H1125 0.951 . S
C1149 C1150 1.366 1_554 S
C1149 C1151 1.388 . S
C1150 C1149 1.366 1_556 S
C1150 C1154 1.385 . S
C1151 H1126 0.951 . S
C1151 C1149 1.388 . S
C1151 C1152 1.366 . S
C1152 C1151 1.366 . S
C1152 C1153 1.414 1_554 S
C1152 C1155 1.499 . S
C1153 H1127 0.950 . S
C1153 C1152 1.414 1_556 S
C1153 C1154 1.374 . S
C1154 H1128 0.950 . S
C1154 C1150 1.385 . S
C1154 C1153 1.374 . S
C1155 C1152 1.499 . S
C1155 C1156 1.373 . S
C1155 C1157 1.389 . S
C1156 H1129 0.950 . S
C1156 C1142 1.377 . S
C1156 C1155 1.373 . S
C1157 C1141 1.377 . S
C1157 C1155 1.389 . S
C1157 C1158 1.524 . S
C1158 C1157 1.524 . S
C1158 C1159 1.397 . S
C1158 C1163 1.363 . S
C1159 H1130 0.950 . S
C1159 C1158 1.397 . S
C1159 C1160 1.334 . S
C1160 H1131 0.950 . S
C1160 C1159 1.334 . S
C1160 C1161 1.287 . S
C1161 C1160 1.287 . S
C1161 C1162 1.524 . S
C1161 H1164 0.999 . S
C1162 H1132 0.950 . S
C1162 C1161 1.524 . S
C1162 C1163 1.415 . S
C1163 H1133 0.950 . S
C1163 C1158 1.363 . S
C1163 C1162 1.415 . S
H1164 C1161 0.999 . S
H1165 C1146 0.913 . S
H1166 C1184 0.951 . S
H1167 C1186 0.951 . S
H1168 C1188 0.950 . S
H1169 C1189 0.951 . S
H1170 C1191 0.950 . S
H1171 C1194 0.950 . S
H1172 C1195 0.950 . S
H1173 C1197 0.950 . S
H1174 C1198 0.950 . S
H1175 C1199 0.951 . S
H1176 C1201 0.951 . S
H1177 C1203 0.950 . S
H1178 C1204 0.950 . S
H1179 C1206 0.950 . S
H1180 C1209 0.950 . S
H1181 C1210 0.950 . S
H1182 C1212 0.950 . S
H1183 C1213 0.950 . S
C1184 H1166 0.951 . S
C1184 C1185 1.366 . S
C1184 C1186 1.388 1_565 S
C1185 C1184 1.366 . S
C1185 C1189 1.403 . S
C1186 H1167 0.951 . S
C1186 C1184 1.388 1_545 S
C1186 C1187 1.366 . S
C1187 C1186 1.366 . S
C1187 C1188 1.414 . S
C1187 C1190 1.499 . S
C1188 H1168 0.950 . S
C1188 C1187 1.414 . S
C1188 C1189 1.354 1_545 S
C1189 H1169 0.951 . S
C1189 C1185 1.403 . S
C1189 C1188 1.354 1_565 S
C1190 C1187 1.499 . S
C1190 C1191 1.373 . S
C1190 C1192 1.389 . S
C1191 H1170 0.950 . S
C1191 C1190 1.373 . S
C1191 C1207 1.377 . S
C1192 C1190 1.389 . S
C1192 C1193 1.524 . S
C1192 C1206 1.377 . S
C1193 C1192 1.524 . S
C1193 C1194 1.397 . S
C1193 C1198 1.363 . S
C1194 H1171 0.950 . S
C1194 C1193 1.397 . S
C1194 C1195 1.334 . S
C1195 H1172 0.950 . S
C1195 C1194 1.334 . S
C1195 C1196 1.287 . S
C1196 C1195 1.287 . S
C1196 C1197 1.524 . S
C1196 H1215 0.913 . S
C1197 H1173 0.950 . S
C1197 C1196 1.524 . S
C1197 C1198 1.415 . S
C1198 H1174 0.950 . S
C1198 C1193 1.363 . S
C1198 C1197 1.415 . S
C1199 H1175 0.951 . S
C1199 C1200 1.366 . S
C1199 C1201 1.388 . S
C1200 C1199 1.366 . S
C1200 C1204 1.385 . S
C1201 H1176 0.951 . S
C1201 C1199 1.388 . S
C1201 C1202 1.366 . S
C1202 C1201 1.366 . S
C1202 C1203 1.414 . S
C1202 C1205 1.499 . S
C1203 H1177 0.950 . S
C1203 C1202 1.414 . S
C1203 C1204 1.374 . S
C1204 H1178 0.950 . S
C1204 C1200 1.385 . S
C1204 C1203 1.374 . S
C1205 C1202 1.499 . S
C1205 C1206 1.373 . S
C1205 C1207 1.389 . S
C1206 H1179 0.950 . S
C1206 C1192 1.377 . S
C1206 C1205 1.373 . S
C1207 C1191 1.377 . S
C1207 C1205 1.389 . S
C1207 C1208 1.524 . S
C1208 C1207 1.524 . S
C1208 C1209 1.397 . S
C1208 C1213 1.363 . S
C1209 H1180 0.950 . S
C1209 C1208 1.397 . S
C1209 C1210 1.334 . S
C1210 H1181 0.950 . S
C1210 C1209 1.334 . S
C1210 C1211 1.287 . S
C1211 C1210 1.287 . S
C1211 C1212 1.524 . S
C1211 H1214 0.999 . S
C1212 H1182 0.950 . S
C1212 C1211 1.524 . S
C1212 C1213 1.415 . S
C1213 H1183 0.950 . S
C1213 C1208 1.363 . S
C1213 C1212 1.415 . S
H1214 C1211 0.999 . S
H1215 C1196 0.913 . S
H1216 C1234 0.951 . S
H1217 C1236 0.951 . S
H1218 C1238 0.950 . S
H1219 C1239 0.950 . S
H1220 C1241 0.950 . S
H1221 C1244 0.950 . S
H1222 C1245 0.950 . S
H1223 C1247 0.950 . S
H1224 C1248 0.950 . S
H1225 C1249 0.951 . S
H1226 C1251 0.951 . S
H1227 C1253 0.950 . S
H1228 C1254 0.950 . S
H1229 C1256 0.950 . S
H1230 C1259 0.950 . S
H1231 C1260 0.950 . S
H1232 C1262 0.950 . S
H1233 C1263 0.950 . S
C1234 H1216 0.951 . S
C1234 C1235 1.366 . S
C1234 C1236 1.388 . S
C1235 C1234 1.366 . S
C1235 C1239 1.385 . S
C1236 H1217 0.951 . S
C1236 C1234 1.388 . S
C1236 C1237 1.366 . S
C1237 C1236 1.366 . S
C1237 C1238 1.414 . S
C1237 C1240 1.499 . S
C1238 H1218 0.950 . S
C1238 C1237 1.414 . S
C1238 C1239 1.374 . S
C1239 H1219 0.950 . S
C1239 C1235 1.385 . S
C1239 C1238 1.374 . S
C1240 C1237 1.499 . S
C1240 C1241 1.373 . S
C1240 C1242 1.389 . S
C1241 H1220 0.950 . S
C1241 C1240 1.373 . S
C1241 C1257 1.377 . S
C1242 C1240 1.389 . S
C1242 C1243 1.524 . S
C1242 C1256 1.377 . S
C1243 C1242 1.524 . S
C1243 C1244 1.397 . S
C1243 C1248 1.363 . S
C1244 H1221 0.950 . S
C1244 C1243 1.397 . S
C1244 C1245 1.334 . S
C1245 H1222 0.950 . S
C1245 C1244 1.334 . S
C1245 C1246 1.287 . S
C1246 C1245 1.287 . S
C1246 C1247 1.524 . S
C1246 H1265 0.913 . S
C1247 H1223 0.950 . S
C1247 C1246 1.524 . S
C1247 C1248 1.415 . S
C1248 H1224 0.950 . S
C1248 C1243 1.363 . S
C1248 C1247 1.415 . S
C1249 H1225 0.951 . S
C1249 C1250 1.366 . S
C1249 C1251 1.388 . S
C1250 C1249 1.366 . S
C1250 C1254 1.385 . S
C1251 H1226 0.951 . S
C1251 C1249 1.388 . S
C1251 C1252 1.366 . S
C1252 C1251 1.366 . S
C1252 C1253 1.414 . S
C1252 C1255 1.499 . S
C1253 H1227 0.950 . S
C1253 C1252 1.414 . S
C1253 C1254 1.374 . S
C1254 H1228 0.950 . S
C1254 C1250 1.385 . S
C1254 C1253 1.374 . S
C1255 C1252 1.499 . S
C1255 C1256 1.373 . S
C1255 C1257 1.389 . S
C1256 H1229 0.950 . S
C1256 C1242 1.377 . S
C1256 C1255 1.373 . S
C1257 C1241 1.377 . S
C1257 C1255 1.389 . S
C1257 C1258 1.524 . S
C1258 C1257 1.524 . S
C1258 C1259 1.397 . S
C1258 C1263 1.363 . S
C1259 H1230 0.950 . S
C1259 C1258 1.397 . S
C1259 C1260 1.334 . S
C1260 H1231 0.950 . S
C1260 C1259 1.334 . S
C1260 C1261 1.287 . S
C1261 C1260 1.287 . S
C1261 C1262 1.524 . S
C1261 H1264 0.999 . S
C1262 H1232 0.950 . S
C1262 C1261 1.524 . S
C1262 C1263 1.415 . S
C1263 H1233 0.950 . S
C1263 C1258 1.363 . S
C1263 C1262 1.415 . S
H1264 C1261 0.999 . S
H1265 C1246 0.913 . S
H1266 C1284 0.951 . S
H1267 C1286 0.951 . S
H1268 C1288 0.950 . S
H1269 C1289 0.950 . S
H1270 C1291 0.950 . S
H1271 C1294 0.950 . S
H1272 C1295 0.950 . S
H1273 C1297 0.950 . S
H1274 C1298 0.950 . S
H1275 C1299 0.951 . S
H1276 C1301 0.951 . S
H1277 C1303 0.950 . S
H1278 C1304 0.950 . S
H1279 C1306 0.950 . S
H1280 C1309 0.950 . S
H1281 C1310 0.950 . S
H1282 C1312 0.950 . S
H1283 C1313 0.950 . S
C1284 H1266 0.951 . S
C1284 C1285 1.366 . S
C1284 C1286 1.388 . S
C1285 C1284 1.366 . S
C1285 C1289 1.385 . S
C1286 H1267 0.951 . S
C1286 C1284 1.388 . S
C1286 C1287 1.366 . S
C1287 C1286 1.366 . S
C1287 C1288 1.414 . S
C1287 C1290 1.499 . S
C1288 H1268 0.950 . S
C1288 C1287 1.414 . S
C1288 C1289 1.374 . S
C1289 H1269 0.950 . S
C1289 C1285 1.385 . S
C1289 C1288 1.374 . S
C1290 C1287 1.499 . S
C1290 C1291 1.373 . S
C1290 C1292 1.389 . S
C1291 H1270 0.950 . S
C1291 C1290 1.373 . S
C1291 C1307 1.377 . S
C1292 C1290 1.389 . S
C1292 C1293 1.524 . S
C1292 C1306 1.377 . S
C1293 C1292 1.524 . S
C1293 C1294 1.397 . S
C1293 C1298 1.363 . S
C1294 H1271 0.950 . S
C1294 C1293 1.397 . S
C1294 C1295 1.334 . S
C1295 H1272 0.950 . S
C1295 C1294 1.334 . S
C1295 C1296 1.287 . S
C1296 C1295 1.287 . S
C1296 C1297 1.524 . S
C1296 H1315 0.913 1_556 S
C1297 H1273 0.950 . S
C1297 C1296 1.524 . S
C1297 C1298 1.415 . S
C1298 H1274 0.950 . S
C1298 C1293 1.363 . S
C1298 C1297 1.415 . S
C1299 H1275 0.951 . S
C1299 C1300 1.366 . S
C1299 C1301 1.388 . S
C1300 C1299 1.366 . S
C1300 C1304 1.385 . S
C1301 H1276 0.951 . S
C1301 C1299 1.388 . S
C1301 C1302 1.366 . S
C1302 C1301 1.366 . S
C1302 C1303 1.414 . S
C1302 C1305 1.499 . S
C1303 H1277 0.950 . S
C1303 C1302 1.414 . S
C1303 C1304 1.374 . S
C1304 H1278 0.950 . S
C1304 C1300 1.385 . S
C1304 C1303 1.374 . S
C1305 C1302 1.499 . S
C1305 C1306 1.373 . S
C1305 C1307 1.389 . S
C1306 H1279 0.950 . S
C1306 C1292 1.377 . S
C1306 C1305 1.373 . S
C1307 C1291 1.377 . S
C1307 C1305 1.389 . S
C1307 C1308 1.524 . S
C1308 C1307 1.524 . S
C1308 C1309 1.397 . S
C1308 C1313 1.363 . S
C1309 H1280 0.950 . S
C1309 C1308 1.397 . S
C1309 C1310 1.334 . S
C1310 H1281 0.950 . S
C1310 C1309 1.334 . S
C1310 C1311 1.287 . S
C1311 C1310 1.287 . S
C1311 C1312 1.524 . S
C1311 H1314 0.999 . S
C1312 H1282 0.950 . S
C1312 C1311 1.524 . S
C1312 C1313 1.415 . S
C1313 H1283 0.950 . S
C1313 C1308 1.363 . S
C1313 C1312 1.415 . S
H1314 C1311 0.999 . S
H1315 C1296 0.913 1_554 S
H1316 C1334 0.951 . S
H1317 C1336 0.951 . S
H1318 C1338 0.950 . S
H1319 C1339 0.950 . S
H1320 C1341 0.950 . S
H1321 C1344 0.950 . S
H1322 C1345 0.950 . S
H1323 C1347 0.950 . S
H1324 C1348 0.950 . S
H1325 C1349 0.951 . S
H1326 C1351 0.951 . S
H1327 C1353 0.950 . S
H1328 C1354 0.950 . S
H1329 C1356 0.950 . S
H1330 C1359 0.951 . S
H1331 C1360 0.950 . S
H1332 C1362 0.950 . S
H1333 C1363 0.950 . S
C1334 H1316 0.951 . S
C1334 C1335 1.366 . S
C1334 C1336 1.388 . S
C1335 C1334 1.366 . S
C1335 C1339 1.385 . S
C1336 H1317 0.951 . S
C1336 C1334 1.388 . S
C1336 C1337 1.366 . S
C1337 C1336 1.366 . S
C1337 C1338 1.414 . S
C1337 C1340 1.499 . S
C1338 H1318 0.950 . S
C1338 C1337 1.414 . S
C1338 C1339 1.374 . S
C1339 H1319 0.950 . S
C1339 C1335 1.385 . S
C1339 C1338 1.374 . S
C1340 C1337 1.499 . S
C1340 C1341 1.373 . S
C1340 C1342 1.389 . S
C1341 H1320 0.950 . S
C1341 C1340 1.373 . S
C1341 C1357 1.377 . S
C1342 C1340 1.389 . S
C1342 C1343 1.524 . S
C1342 C1356 1.377 . S
C1343 C1342 1.524 . S
C1343 C1344 1.397 . S
C1343 C1348 1.363 . S
C1344 H1321 0.950 . S
C1344 C1343 1.397 . S
C1344 C1345 1.334 . S
C1345 H1322 0.950 . S
C1345 C1344 1.334 . S
C1345 C1346 1.287 . S
C1346 C1345 1.287 . S
C1346 C1347 1.524 . S
C1346 H1365 0.913 . S
C1347 H1323 0.950 . S
C1347 C1346 1.524 . S
C1347 C1348 1.415 . S
C1348 H1324 0.950 . S
C1348 C1343 1.363 . S
C1348 C1347 1.415 . S
C1349 H1325 0.951 . S
C1349 C1350 1.366 . S
C1349 C1351 1.388 . S
C1350 C1349 1.366 . S
C1350 C1354 1.385 1_655 S
C1351 H1326 0.951 . S
C1351 C1349 1.388 . S
C1351 C1352 1.366 1_655 S
C1352 C1351 1.366 1_455 S
C1352 C1353 1.414 . S
C1352 C1355 1.499 . S
C1353 H1327 0.950 . S
C1353 C1352 1.414 . S
C1353 C1354 1.374 . S
C1354 H1328 0.950 . S
C1354 C1350 1.385 1_455 S
C1354 C1353 1.374 . S
C1355 C1352 1.499 . S
C1355 C1356 1.373 . S
C1355 C1357 1.389 . S
C1356 H1329 0.950 . S
C1356 C1342 1.377 . S
C1356 C1355 1.373 . S
C1357 C1341 1.377 . S
C1357 C1355 1.389 . S
C1357 C1358 1.472 1_455 S
C1358 C1357 1.472 1_655 S
C1358 C1359 1.417 . S
C1358 C1363 1.392 . S
C1359 H1330 0.951 . S
C1359 C1358 1.417 . S
C1359 C1360 1.334 . S
C1360 H1331 0.950 . S
C1360 C1359 1.334 . S
C1360 C1361 1.287 . S
C1361 C1360 1.287 . S
C1361 C1362 1.524 . S
C1361 H1364 0.999 . S
C1362 H1332 0.950 . S
C1362 C1361 1.524 . S
C1362 C1363 1.415 . S
C1363 H1333 0.950 . S
C1363 C1358 1.392 . S
C1363 C1362 1.415 . S
H1364 C1361 0.999 . S
H1365 C1346 0.913 . S
H1366 C1384 0.951 . S
H1367 C1386 0.951 . S
H1368 C1388 0.950 . S
H1369 C1389 0.950 . S
H1370 C1391 0.950 . S
H1371 C1394 0.950 . S
H1372 C1395 0.950 . S
H1373 C1397 0.950 . S
H1374 C1398 0.950 . S
H1375 C1399 0.951 . S
H1376 C1401 0.951 . S
H1377 C1403 0.950 . S
H1378 C1404 0.950 . S
H1379 C1406 0.950 . S
H1380 C1409 0.950 . S
H1381 C1410 0.950 . S
H1382 C1412 0.950 . S
H1383 C1413 0.950 . S
C1384 H1366 0.951 . S
C1384 C1385 1.366 . S
C1384 C1386 1.388 1_455 S
C1385 C1384 1.366 . S
C1385 C1389 1.385 . S
C1386 H1367 0.951 . S
C1386 C1384 1.388 1_655 S
C1386 C1387 1.366 . S
C1387 C1386 1.366 . S
C1387 C1388 1.414 . S
C1387 C1390 1.499 . S
C1388 H1368 0.950 . S
C1388 C1387 1.414 . S
C1388 C1389 1.374 1_655 S
C1389 H1369 0.950 . S
C1389 C1385 1.385 . S
C1389 C1388 1.374 1_455 S
C1390 C1387 1.499 . S
C1390 C1391 1.373 . S
C1390 C1392 1.389 . S
C1391 H1370 0.950 . S
C1391 C1390 1.373 . S
C1391 C1407 1.377 . S
C1392 C1390 1.389 . S
C1392 C1393 1.524 . S
C1392 C1406 1.377 . S
C1393 C1392 1.524 . S
C1393 C1394 1.397 . S
C1393 C1398 1.363 . S
C1394 H1371 0.950 . S
C1394 C1393 1.397 . S
C1394 C1395 1.334 . S
C1395 H1372 0.950 . S
C1395 C1394 1.334 . S
C1395 C1396 1.287 . S
C1396 C1395 1.287 . S
C1396 C1397 1.524 . S
C1396 H1415 0.913 . S
C1397 H1373 0.950 . S
C1397 C1396 1.524 . S
C1397 C1398 1.415 . S
C1398 H1374 0.950 . S
C1398 C1393 1.363 . S
C1398 C1397 1.415 . S
C1399 H1375 0.951 . S
C1399 C1400 1.366 . S
C1399 C1401 1.388 . S
C1400 C1399 1.366 . S
C1400 C1404 1.385 . S
C1401 H1376 0.951 . S
C1401 C1399 1.388 . S
C1401 C1402 1.366 . S
C1402 C1401 1.366 . S
C1402 C1403 1.414 . S
C1402 C1405 1.499 . S
C1403 H1377 0.950 . S
C1403 C1402 1.414 . S
C1403 C1404 1.374 . S
C1404 H1378 0.950 . S
C1404 C1400 1.385 . S
C1404 C1403 1.374 . S
C1405 C1402 1.499 . S
C1405 C1406 1.373 . S
C1405 C1407 1.389 . S
C1406 H1379 0.950 . S
C1406 C1392 1.377 . S
C1406 C1405 1.373 . S
C1407 C1391 1.377 . S
C1407 C1405 1.389 . S
C1407 C1408 1.524 . S
C1408 C1407 1.524 . S
C1408 C1409 1.397 . S
C1408 C1413 1.363 . S
C1409 H1380 0.950 . S
C1409 C1408 1.397 . S
C1409 C1410 1.334 . S
C1410 H1381 0.950 . S
C1410 C1409 1.334 . S
C1410 C1411 1.287 . S
C1411 C1410 1.287 . S
C1411 C1412 1.524 . S
C1411 H1414 0.999 . S
C1412 H1382 0.950 . S
C1412 C1411 1.524 . S
C1412 C1413 1.415 . S
C1413 H1383 0.950 . S
C1413 C1408 1.363 . S
C1413 C1412 1.415 . S
H1414 C1411 0.999 . S
H1415 C1396 0.913 . S
H1416 C1434 0.951 . S
H1417 C1436 0.951 . S
H1418 C1438 0.950 . S
H1419 C1439 0.950 . S
H1420 C1441 0.950 . S
H1421 C1444 0.950 . S
H1422 C1445 0.950 . S
H1423 C1447 0.950 . S
H1424 C1448 0.950 1_655 S
H1425 C1449 0.951 . S
H1426 C1451 0.951 . S
H1427 C1453 0.950 . S
H1428 C1454 0.950 . S
H1429 C1456 0.950 . S
H1430 C1459 0.950 . S
H1431 C1460 0.950 . S
H1432 C1462 0.950 . S
H1433 C1463 0.950 . S
C1434 H1416 0.951 . S
C1434 C1435 1.366 . S
C1434 C1436 1.388 . S
C1435 C1434 1.366 . S
C1435 C1439 1.385 1_455 S
C1436 H1417 0.951 . S
C1436 C1434 1.388 . S
C1436 C1437 1.366 1_455 S
C1437 C1436 1.366 1_655 S
C1437 C1438 1.414 . S
C1437 C1440 1.499 . S
C1438 H1418 0.950 . S
C1438 C1437 1.414 . S
C1438 C1439 1.374 . S
C1439 H1419 0.950 . S
C1439 C1435 1.385 1_655 S
C1439 C1438 1.374 . S
C1440 C1437 1.499 . S
C1440 C1441 1.373 . S
C1440 C1442 1.389 . S
C1441 H1420 0.950 . S
C1441 C1440 1.373 . S
C1441 C1457 1.377 . S
C1442 C1440 1.389 . S
C1442 C1443 1.524 . S
C1442 C1456 1.377 . S
C1443 C1442 1.524 . S
C1443 C1444 1.397 . S
C1443 C1448 1.366 1_655 S
C1444 H1421 0.950 . S
C1444 C1443 1.397 . S
C1444 C1445 1.334 . S
C1445 H1422 0.950 . S
C1445 C1444 1.334 . S
C1445 C1446 1.287 1_655 S
C1446 C1445 1.287 1_455 S
C1446 C1447 1.524 . S
C1446 H1465 0.913 . S
C1447 H1423 0.950 . S
C1447 C1446 1.524 . S
C1447 C1448 1.411 . S
C1448 H1424 0.950 1_455 S
C1448 C1443 1.366 1_455 S
C1448 C1447 1.411 . S
C1449 H1425 0.951 . S
C1449 C1450 1.366 . S
C1449 C1451 1.388 . S
C1450 C1449 1.366 . S
C1450 C1454 1.385 . S
C1451 H1426 0.951 . S
C1451 C1449 1.388 . S
C1451 C1452 1.366 . S
C1452 C1451 1.366 . S
C1452 C1453 1.414 . S
C1452 C1455 1.499 . S
C1453 H1427 0.950 . S
C1453 C1452 1.414 . S
C1453 C1454 1.374 . S
C1454 H1428 0.950 . S
C1454 C1450 1.385 . S
C1454 C1453 1.374 . S
C1455 C1452 1.499 . S
C1455 C1456 1.373 . S
C1455 C1457 1.389 . S
C1456 H1429 0.950 . S
C1456 C1442 1.377 . S
C1456 C1455 1.373 . S
C1457 C1441 1.377 . S
C1457 C1455 1.389 . S
C1457 C1458 1.524 . S
C1458 C1457 1.524 . S
C1458 C1459 1.397 . S
C1458 C1463 1.363 . S
C1459 H1430 0.950 . S
C1459 C1458 1.397 . S
C1459 C1460 1.334 . S
C1460 H1431 0.950 . S
C1460 C1459 1.334 . S
C1460 C1461 1.287 . S
C1461 C1460 1.287 . S
C1461 C1462 1.524 . S
C1461 H1464 0.999 . S
C1462 H1432 0.950 . S
C1462 C1461 1.524 . S
C1462 C1463 1.415 . S
C1463 H1433 0.950 . S
C1463 C1458 1.363 . S
C1463 C1462 1.415 . S
H1464 C1461 0.999 . S
H1465 C1446 0.913 . S
H1466 C1484 0.951 . S
H1467 C1486 0.951 . S
H1468 C1488 0.950 . S
H1469 C1489 0.950 . S
H1470 C1491 0.950 . S
H1471 C1494 0.950 . S
H1472 C1495 0.950 . S
H1473 C1497 0.950 . S
H1474 C1498 0.950 . S
H1475 C1499 0.951 . S
H1476 C1501 0.951 . S
H1477 C1503 0.950 . S
H1478 C1504 0.950 . S
H1479 C1506 0.950 . S
H1480 C1509 0.950 . S
H1481 C1510 0.950 . S
H1482 C1512 0.950 . S
H1483 C1513 0.950 . S
C1484 H1466 0.951 . S
C1484 C1485 1.366 . S
C1484 C1486 1.388 . S
C1485 C1484 1.366 . S
C1485 C1489 1.385 . S
C1486 H1467 0.951 . S
C1486 C1484 1.388 . S
C1486 C1487 1.366 . S
C1487 C1486 1.366 . S
C1487 C1488 1.414 . S
C1487 C1490 1.499 . S
C1488 H1468 0.950 . S
C1488 C1487 1.414 . S
C1488 C1489 1.374 . S
C1489 H1469 0.950 . S
C1489 C1485 1.385 . S
C1489 C1488 1.374 . S
C1490 C1487 1.499 . S
C1490 C1491 1.373 . S
C1490 C1492 1.389 . S
C1491 H1470 0.950 . S
C1491 C1490 1.373 . S
C1491 C1507 1.377 . S
C1492 C1490 1.389 . S
C1492 C1493 1.524 . S
C1492 C1506 1.377 . S
C1493 C1492 1.524 . S
C1493 C1494 1.397 . S
C1493 C1498 1.363 . S
C1494 H1471 0.950 . S
C1494 C1493 1.397 . S
C1494 C1495 1.334 . S
C1495 H1472 0.950 . S
C1495 C1494 1.334 . S
C1495 C1496 1.287 . S
C1496 C1495 1.287 . S
C1496 C1497 1.524 . S
C1496 H1515 0.913 . S
C1497 H1473 0.950 . S
C1497 C1496 1.524 . S
C1497 C1498 1.415 . S
C1498 H1474 0.950 . S
C1498 C1493 1.363 . S
C1498 C1497 1.415 . S
C1499 H1475 0.951 . S
C1499 C1500 1.366 . S
C1499 C1501 1.388 . S
C1500 C1499 1.366 . S
C1500 C1504 1.385 . S
C1501 H1476 0.951 . S
C1501 C1499 1.388 . S
C1501 C1502 1.366 . S
C1502 C1501 1.366 . S
C1502 C1503 1.414 . S
C1502 C1505 1.499 . S
C1503 H1477 0.950 . S
C1503 C1502 1.414 . S
C1503 C1504 1.374 . S
C1504 H1478 0.950 . S
C1504 C1500 1.385 . S
C1504 C1503 1.374 . S
C1505 C1502 1.499 . S
C1505 C1506 1.373 . S
C1505 C1507 1.389 . S
C1506 H1479 0.950 . S
C1506 C1492 1.377 . S
C1506 C1505 1.373 . S
C1507 C1491 1.377 . S
C1507 C1505 1.389 . S
C1507 C1508 1.524 . S
C1508 C1507 1.524 . S
C1508 C1509 1.397 . S
C1508 C1513 1.363 . S
C1509 H1480 0.950 . S
C1509 C1508 1.397 . S
C1509 C1510 1.334 . S
C1510 H1481 0.950 . S
C1510 C1509 1.334 . S
C1510 C1511 1.287 . S
C1511 C1510 1.287 . S
C1511 C1512 1.524 . S
C1511 H1514 0.999 . S
C1512 H1482 0.950 . S
C1512 C1511 1.524 . S
C1512 C1513 1.415 . S
C1513 H1483 0.950 . S
C1513 C1508 1.363 . S
C1513 C1512 1.415 . S
H1514 C1511 0.999 . S
H1515 C1496 0.913 . S
H1516 C1534 0.951 . S
H1517 C1536 0.951 . S
H1518 C1538 0.950 . S
H1519 C1539 0.950 . S
H1520 C1541 0.950 . S
H1521 C1544 0.950 . S
H1522 C1545 0.950 . S
H1523 C1547 0.950 . S
H1524 C1548 0.950 . S
H1525 C1549 0.951 . S
H1526 C1551 0.951 . S
H1527 C1553 0.950 . S
H1528 C1554 0.950 . S
H1529 C1556 0.950 . S
H1530 C1559 0.950 . S
H1531 C1560 0.950 . S
H1532 C1562 0.950 . S
H1533 C1563 0.950 . S
C1534 H1516 0.951 . S
C1534 C1535 1.366 . S
C1534 C1536 1.388 . S
C1535 C1534 1.366 . S
C1535 C1539 1.385 . S
C1536 H1517 0.951 . S
C1536 C1534 1.388 . S
C1536 C1537 1.366 . S
C1537 C1536 1.366 . S
C1537 C1538 1.414 . S
C1537 C1540 1.499 . S
C1538 H1518 0.950 . S
C1538 C1537 1.414 . S
C1538 C1539 1.374 . S
C1539 H1519 0.950 . S
C1539 C1535 1.385 . S
C1539 C1538 1.374 . S
C1540 C1537 1.499 . S
C1540 C1541 1.373 . S
C1540 C1542 1.389 . S
C1541 H1520 0.950 . S
C1541 C1540 1.373 . S
C1541 C1557 1.377 . S
C1542 C1540 1.389 . S
C1542 C1543 1.524 . S
C1542 C1556 1.377 . S
C1543 C1542 1.524 . S
C1543 C1544 1.397 . S
C1543 C1548 1.363 . S
C1544 H1521 0.950 . S
C1544 C1543 1.397 . S
C1544 C1545 1.334 . S
C1545 H1522 0.950 . S
C1545 C1544 1.334 . S
C1545 C1546 1.287 . S
C1546 C1545 1.287 . S
C1546 C1547 1.524 . S
C1546 H1565 0.913 . S
C1547 H1523 0.950 . S
C1547 C1546 1.524 . S
C1547 C1548 1.415 . S
C1548 H1524 0.950 . S
C1548 C1543 1.363 . S
C1548 C1547 1.415 . S
C1549 H1525 0.951 . S
C1549 C1550 1.366 . S
C1549 C1551 1.388 . S
C1550 C1549 1.366 . S
C1550 C1554 1.385 . S
C1551 H1526 0.951 . S
C1551 C1549 1.388 . S
C1551 C1552 1.366 . S
C1552 C1551 1.366 . S
C1552 C1553 1.414 . S
C1552 C1555 1.499 . S
C1553 H1527 0.950 . S
C1553 C1552 1.414 . S
C1553 C1554 1.374 . S
C1554 H1528 0.950 . S
C1554 C1550 1.385 . S
C1554 C1553 1.374 . S
C1555 C1552 1.499 . S
C1555 C1556 1.373 . S
C1555 C1557 1.389 . S
C1556 H1529 0.950 . S
C1556 C1542 1.377 . S
C1556 C1555 1.373 . S
C1557 C1541 1.377 . S
C1557 C1555 1.389 . S
C1557 C1558 1.524 . S
C1558 C1557 1.524 . S
C1558 C1559 1.397 . S
C1558 C1563 1.363 . S
C1559 H1530 0.950 . S
C1559 C1558 1.397 . S
C1559 C1560 1.334 . S
C1560 H1531 0.950 . S
C1560 C1559 1.334 . S
C1560 C1561 1.287 . S
C1561 C1560 1.287 . S
C1561 C1562 1.524 . S
C1561 H1564 0.999 . S
C1562 H1532 0.950 . S
C1562 C1561 1.524 . S
C1562 C1563 1.415 . S
C1563 H1533 0.950 . S
C1563 C1558 1.363 . S
C1563 C1562 1.415 . S
H1564 C1561 0.999 . S
H1565 C1546 0.913 . S
H1566 C1584 0.951 . S
H1567 C1586 0.954 . S
H1568 C1588 0.950 . S
H1569 C1589 0.950 . S
H1570 C1591 0.950 . S
H1571 C1594 0.950 . S
H1572 C1595 0.950 . S
H1573 C1597 0.950 . S
H1574 C1598 0.950 . S
H1575 C1599 0.951 . S
H1576 C1601 0.951 . S
H1577 C1603 0.950 . S
H1578 C1604 0.950 . S
H1579 C1606 0.950 . S
H1580 C1609 0.950 . S
H1581 C1610 0.950 . S
H1582 C1612 0.950 . S
H1583 C1613 0.950 . S
C1584 H1566 0.951 . S
C1584 C1585 1.366 . S
C1584 C1586 1.416 . S
C1585 C1584 1.366 . S
C1585 C1589 1.385 1_655 S
C1586 H1567 0.954 . S
C1586 C1584 1.416 . S
C1586 C1587 1.335 1_655 S
C1587 C1586 1.335 1_455 S
C1587 C1588 1.414 . S
C1587 C1590 1.499 . S
C1588 H1568 0.950 . S
C1588 C1587 1.414 . S
C1588 C1589 1.374 . S
C1589 H1569 0.950 . S
C1589 C1585 1.385 1_455 S
C1589 C1588 1.374 . S
C1590 C1587 1.499 . S
C1590 C1591 1.373 . S
C1590 C1592 1.389 . S
C1591 H1570 0.950 . S
C1591 C1590 1.373 . S
C1591 C1607 1.377 . S
C1592 C1590 1.389 . S
C1592 C1593 1.524 . S
C1592 C1606 1.377 . S
C1593 C1592 1.524 . S
C1593 C1594 1.397 . S
C1593 C1598 1.363 . S
C1594 H1571 0.950 . S
C1594 C1593 1.397 . S
C1594 C1595 1.334 . S
C1595 H1572 0.950 . S
C1595 C1594 1.334 . S
C1595 C1596 1.287 . S
C1596 C1595 1.287 . S
C1596 C1597 1.524 . S
C1596 H1615 0.913 . S
C1597 H1573 0.950 . S
C1597 C1596 1.524 . S
C1597 C1598 1.415 . S
C1598 H1574 0.950 . S
C1598 C1593 1.363 . S
C1598 C1597 1.415 . S
C1599 H1575 0.951 . S
C1599 C1600 1.366 . S
C1599 C1601 1.388 . S
C1600 C1599 1.366 . S
C1600 C1604 1.385 . S
C1601 H1576 0.951 . S
C1601 C1599 1.388 . S
C1601 C1602 1.366 . S
C1602 C1601 1.366 . S
C1602 C1603 1.414 . S
C1602 C1605 1.499 . S
C1603 H1577 0.950 . S
C1603 C1602 1.414 . S
C1603 C1604 1.374 . S
C1604 H1578 0.950 . S
C1604 C1600 1.385 . S
C1604 C1603 1.374 . S
C1605 C1602 1.499 . S
C1605 C1606 1.373 . S
C1605 C1607 1.389 . S
C1606 H1579 0.950 . S
C1606 C1592 1.377 . S
C1606 C1605 1.373 . S
C1607 C1591 1.377 . S
C1607 C1605 1.389 . S
C1607 C1608 1.524 . S
C1608 C1607 1.524 . S
C1608 C1609 1.397 . S
C1608 C1613 1.363 . S
C1609 H1580 0.950 . S
C1609 C1608 1.397 . S
C1609 C1610 1.334 . S
C1610 H1581 0.950 . S
C1610 C1609 1.334 . S
C1610 C1611 1.287 . S
C1611 C1610 1.287 . S
C1611 C1612 1.524 . S
C1611 H1614 0.999 . S
C1612 H1582 0.950 . S
C1612 C1611 1.524 . S
C1612 C1613 1.415 . S
C1613 H1583 0.950 . S
C1613 C1608 1.363 . S
C1613 C1612 1.415 . S
H1614 C1611 0.999 . S
H1615 C1596 0.913 . S
H1616 C1634 0.951 . S
H1617 C1636 0.951 . S
H1618 C1638 0.950 . S
H1619 C1639 0.950 . S
H1620 C1641 0.950 . S
H1621 C1644 0.950 . S
H1622 C1645 0.950 . S
H1623 C1647 0.950 . S
H1624 C1648 0.950 . S
H1625 C1649 0.951 . S
H1626 C1651 0.951 . S
H1627 C1653 0.950 . S
H1628 C1654 0.950 . S
H1629 C1656 0.950 . S
H1630 C1659 0.950 . S
H1631 C1660 0.950 . S
H1632 C1662 0.950 . S
H1633 C1663 0.950 . S
C1634 H1616 0.951 . S
C1634 C1635 1.366 . S
C1634 C1636 1.388 . S
C1635 C1634 1.366 . S
C1635 C1639 1.385 . S
C1636 H1617 0.951 . S
C1636 C1634 1.388 . S
C1636 C1637 1.366 . S
C1637 C1636 1.366 . S
C1637 C1638 1.414 . S
C1637 C1640 1.499 . S
C1638 H1618 0.950 . S
C1638 C1637 1.414 . S
C1638 C1639 1.374 . S
C1639 H1619 0.950 . S
C1639 C1635 1.385 . S
C1639 C1638 1.374 . S
C1640 C1637 1.499 . S
C1640 C1641 1.373 . S
C1640 C1642 1.389 . S
C1641 H1620 0.950 . S
C1641 C1640 1.373 . S
C1641 C1657 1.377 . S
C1642 C1640 1.389 . S
C1642 C1643 1.524 . S
C1642 C1656 1.377 . S
C1643 C1642 1.524 . S
C1643 C1644 1.397 . S
C1643 C1648 1.363 . S
C1644 H1621 0.950 . S
C1644 C1643 1.397 . S
C1644 C1645 1.334 . S
C1645 H1622 0.950 . S
C1645 C1644 1.334 . S
C1645 C1646 1.287 . S
C1646 C1645 1.287 . S
C1646 C1647 1.524 . S
C1646 H1665 0.913 . S
C1647 H1623 0.950 . S
C1647 C1646 1.524 . S
C1647 C1648 1.415 . S
C1648 H1624 0.950 . S
C1648 C1643 1.363 . S
C1648 C1647 1.415 . S
C1649 H1625 0.951 . S
C1649 C1650 1.366 . S
C1649 C1651 1.388 . S
C1650 C1649 1.366 . S
C1650 C1654 1.385 . S
C1651 H1626 0.951 . S
C1651 C1649 1.388 . S
C1651 C1652 1.366 . S
C1652 C1651 1.366 . S
C1652 C1653 1.414 . S
C1652 C1655 1.499 . S
C1653 H1627 0.950 . S
C1653 C1652 1.414 . S
C1653 C1654 1.374 . S
C1654 H1628 0.950 . S
C1654 C1650 1.385 . S
C1654 C1653 1.374 . S
C1655 C1652 1.499 . S
C1655 C1656 1.373 . S
C1655 C1657 1.389 . S
C1656 H1629 0.950 . S
C1656 C1642 1.377 . S
C1656 C1655 1.373 . S
C1657 C1641 1.377 . S
C1657 C1655 1.389 . S
C1657 C1658 1.524 . S
C1658 C1657 1.524 . S
C1658 C1659 1.397 . S
C1658 C1663 1.363 . S
C1659 H1630 0.950 . S
C1659 C1658 1.397 . S
C1659 C1660 1.334 . S
C1660 H1631 0.950 . S
C1660 C1659 1.334 . S
C1660 C1661 1.287 . S
C1661 C1660 1.287 . S
C1661 C1662 1.524 . S
C1661 H1664 0.999 . S
C1662 H1632 0.950 . S
C1662 C1661 1.524 . S
C1662 C1663 1.415 . S
C1663 H1633 0.950 . S
C1663 C1658 1.363 . S
C1663 C1662 1.415 . S
H1664 C1661 0.999 . S
H1665 C1646 0.913 . S
H1666 C1684 0.951 . S
H1667 C1686 0.951 . S
H1668 C1688 0.950 . S
H1669 C1689 0.950 . S
H1670 C1691 0.950 . S
H1671 C1694 0.950 . S
H1672 C1695 0.950 . S
H1673 C1697 0.950 . S
H1674 C1698 0.950 . S
H1675 C1699 0.951 . S
H1676 C1701 0.951 . S
H1677 C1703 0.950 . S
H1678 C1704 0.950 . S
H1679 C1706 0.950 . S
H1680 C1709 0.924 1_545 S
H1681 C1710 0.950 . S
H1682 C1712 0.950 . S
H1683 C1713 0.950 . S
C1684 H1666 0.951 . S
C1684 C1685 1.366 . S
C1684 C1686 1.388 . S
C1685 C1684 1.366 . S
C1685 C1689 1.385 . S
C1686 H1667 0.951 . S
C1686 C1684 1.388 . S
C1686 C1687 1.366 . S
C1687 C1686 1.366 . S
C1687 C1688 1.414 . S
C1687 C1690 1.499 . S
C1688 H1668 0.950 . S
C1688 C1687 1.414 . S
C1688 C1689 1.374 . S
C1689 H1669 0.950 . S
C1689 C1685 1.385 . S
C1689 C1688 1.374 . S
C1690 C1687 1.499 . S
C1690 C1691 1.373 . S
C1690 C1692 1.389 . S
C1691 H1670 0.950 . S
C1691 C1690 1.373 . S
C1691 C1707 1.377 . S
C1692 C1690 1.389 . S
C1692 C1693 1.524 . S
C1692 C1706 1.377 . S
C1693 C1692 1.524 . S
C1693 C1694 1.397 . S
C1693 C1698 1.363 . S
C1694 H1671 0.950 . S
C1694 C1693 1.397 . S
C1694 C1695 1.334 . S
C1695 H1672 0.950 . S
C1695 C1694 1.334 . S
C1695 C1696 1.287 . S
C1696 C1695 1.287 . S
C1696 C1697 1.524 . S
C1696 H1715 0.913 . S
C1697 H1673 0.950 . S
C1697 C1696 1.524 . S
C1697 C1698 1.415 . S
C1698 H1674 0.950 . S
C1698 C1693 1.363 . S
C1698 C1697 1.415 . S
C1699 H1675 0.951 . S
C1699 C1700 1.366 . S
C1699 C1701 1.388 . S
C1700 C1699 1.366 . S
C1700 C1704 1.385 1_565 S
C1701 H1676 0.951 . S
C1701 C1699 1.388 . S
C1701 C1702 1.366 1_565 S
C1702 C1701 1.366 1_545 S
C1702 C1703 1.414 . S
C1702 C1705 1.499 . S
C1703 H1677 0.950 . S
C1703 C1702 1.414 . S
C1703 C1704 1.374 . S
C1704 H1678 0.950 . S
C1704 C1700 1.385 1_545 S
C1704 C1703 1.374 . S
C1705 C1702 1.499 . S
C1705 C1706 1.373 . S
C1705 C1707 1.389 . S
C1706 H1679 0.950 . S
C1706 C1692 1.377 . S
C1706 C1705 1.373 . S
C1707 C1691 1.377 . S
C1707 C1705 1.389 . S
C1707 C1708 1.524 . S
C1708 C1707 1.524 . S
C1708 C1709 1.390 1_545 S
C1708 C1713 1.363 1_545 S
C1709 H1680 0.924 1_565 S
C1709 C1708 1.390 1_565 S
C1709 C1710 1.367 . S
C1710 H1681 0.950 . S
C1710 C1709 1.367 . S
C1710 C1711 1.287 . S
C1711 C1710 1.287 . S
C1711 C1712 1.524 . S
C1711 H1714 0.999 . S
C1712 H1682 0.950 . S
C1712 C1711 1.524 . S
C1712 C1713 1.415 . S
C1713 H1683 0.950 . S
C1713 C1708 1.363 1_565 S
C1713 C1712 1.415 . S
H1714 C1711 0.999 . S
H1715 C1696 0.913 . S
H1716 C1734 0.951 . S
H1717 C1736 0.951 . S
H1718 C1738 0.950 . S
H1719 C1739 0.950 . S
H1720 C1741 0.950 . S
H1721 C1744 0.950 . S
H1722 C1745 0.950 . S
H1723 C1747 0.950 . S
H1724 C1748 0.950 . S
H1725 C1749 0.951 . S
H1726 C1751 0.951 . S
H1727 C1753 0.950 . S
H1728 C1754 0.950 . S
H1729 C1756 0.950 . S
H1730 C1759 0.950 . S
H1731 C1760 0.950 . S
H1732 C1762 0.950 . S
H1733 C1763 0.950 . S
C1734 H1716 0.951 . S
C1734 C1735 1.366 . S
C1734 C1736 1.388 . S
C1735 C1734 1.366 . S
C1735 C1739 1.385 . S
C1736 H1717 0.951 . S
C1736 C1734 1.388 . S
C1736 C1737 1.366 . S
C1737 C1736 1.366 . S
C1737 C1738 1.414 . S
C1737 C1740 1.499 . S
C1738 H1718 0.950 . S
C1738 C1737 1.414 . S
C1738 C1739 1.374 . S
C1739 H1719 0.950 . S
C1739 C1735 1.385 . S
C1739 C1738 1.374 . S
C1740 C1737 1.499 . S
C1740 C1741 1.373 . S
C1740 C1742 1.389 . S
C1741 H1720 0.950 . S
C1741 C1740 1.373 . S
C1741 C1757 1.377 . S
C1742 C1740 1.389 . S
C1742 C1743 1.524 . S
C1742 C1756 1.377 . S
C1743 C1742 1.524 . S
C1743 C1744 1.397 . S
C1743 C1748 1.363 . S
C1744 H1721 0.950 . S
C1744 C1743 1.397 . S
C1744 C1745 1.334 . S
C1745 H1722 0.950 . S
C1745 C1744 1.334 . S
C1745 C1746 1.287 . S
C1746 C1745 1.287 . S
C1746 C1747 1.524 . S
C1746 H1765 0.913 . S
C1747 H1723 0.950 . S
C1747 C1746 1.524 . S
C1747 C1748 1.415 . S
C1748 H1724 0.950 . S
C1748 C1743 1.363 . S
C1748 C1747 1.415 . S
C1749 H1725 0.951 . S
C1749 C1750 1.366 . S
C1749 C1751 1.388 . S
C1750 C1749 1.366 . S
C1750 C1754 1.385 . S
C1751 H1726 0.951 . S
C1751 C1749 1.388 . S
C1751 C1752 1.366 . S
C1752 C1751 1.366 . S
C1752 C1753 1.414 . S
C1752 C1755 1.499 . S
C1753 H1727 0.950 . S
C1753 C1752 1.414 . S
C1753 C1754 1.374 . S
C1754 H1728 0.950 . S
C1754 C1750 1.385 . S
C1754 C1753 1.374 . S
C1755 C1752 1.499 . S
C1755 C1756 1.373 . S
C1755 C1757 1.389 . S
C1756 H1729 0.950 . S
C1756 C1742 1.377 . S
C1756 C1755 1.373 . S
C1757 C1741 1.377 . S
C1757 C1755 1.389 . S
C1757 C1758 1.524 . S
C1758 C1757 1.524 . S
C1758 C1759 1.397 . S
C1758 C1763 1.363 . S
C1759 H1730 0.950 . S
C1759 C1758 1.397 . S
C1759 C1760 1.334 . S
C1760 H1731 0.950 . S
C1760 C1759 1.334 . S
C1760 C1761 1.287 . S
C1761 C1760 1.287 . S
C1761 C1762 1.524 . S
C1761 H1764 0.999 . S
C1762 H1732 0.950 . S
C1762 C1761 1.524 . S
C1762 C1763 1.415 . S
C1763 H1733 0.950 . S
C1763 C1758 1.363 . S
C1763 C1762 1.415 . S
H1764 C1761 0.999 . S
H1765 C1746 0.913 . S
H1766 C1784 0.951 . S
H1767 C1786 0.951 . S
H1768 C1788 0.950 . S
H1769 C1789 0.950 . S
H1770 C1791 0.950 . S
H1771 C1794 0.950 . S
H1772 C1795 0.950 . S
H1773 C1797 0.950 . S
H1774 C1798 0.950 . S
H1775 C1799 0.951 . S
H1776 C1801 0.951 . S
H1777 C1803 0.950 . S
H1778 C1804 0.950 . S
H1779 C1806 0.950 . S
H1780 C1809 0.950 . S
H1781 C1810 0.950 . S
H1782 C1812 0.950 1_545 S
H1783 C1813 0.950 . S
C1784 H1766 0.951 . S
C1784 C1785 1.366 1_565 S
C1784 C1786 1.388 . S
C1785 C1784 1.366 1_545 S
C1785 C1789 1.385 . S
C1786 H1767 0.951 . S
C1786 C1784 1.388 . S
C1786 C1787 1.366 . S
C1787 C1786 1.366 . S
C1787 C1788 1.414 1_565 S
C1787 C1790 1.499 . S
C1788 H1768 0.950 . S
C1788 C1787 1.414 1_545 S
C1788 C1789 1.374 . S
C1789 H1769 0.950 . S
C1789 C1785 1.385 . S
C1789 C1788 1.374 . S
C1790 C1787 1.499 . S
C1790 C1791 1.373 . S
C1790 C1792 1.389 . S
C1791 H1770 0.950 . S
C1791 C1790 1.373 . S
C1791 C1807 1.377 . S
C1792 C1790 1.389 . S
C1792 C1793 1.524 . S
C1792 C1806 1.377 . S
C1793 C1792 1.524 . S
C1793 C1794 1.397 . S
C1793 C1798 1.363 . S
C1794 H1771 0.950 . S
C1794 C1793 1.397 . S
C1794 C1795 1.334 . S
C1795 H1772 0.950 . S
C1795 C1794 1.334 . S
C1795 C1796 1.287 . S
C1796 C1795 1.287 . S
C1796 C1797 1.524 . S
C1796 H1815 0.913 . S
C1797 H1773 0.950 . S
C1797 C1796 1.524 . S
C1797 C1798 1.415 . S
C1798 H1774 0.950 . S
C1798 C1793 1.363 . S
C1798 C1797 1.415 . S
C1799 H1775 0.951 . S
C1799 C1800 1.366 . S
C1799 C1801 1.388 . S
C1800 C1799 1.366 . S
C1800 C1804 1.385 . S
C1801 H1776 0.951 . S
C1801 C1799 1.388 . S
C1801 C1802 1.366 . S
C1802 C1801 1.366 . S
C1802 C1803 1.414 . S
C1802 C1805 1.499 . S
C1803 H1777 0.950 . S
C1803 C1802 1.414 . S
C1803 C1804 1.374 . S
C1804 H1778 0.950 . S
C1804 C1800 1.385 . S
C1804 C1803 1.374 . S
C1805 C1802 1.499 . S
C1805 C1806 1.373 . S
C1805 C1807 1.389 . S
C1806 H1779 0.950 . S
C1806 C1792 1.377 . S
C1806 C1805 1.373 . S
C1807 C1791 1.377 . S
C1807 C1805 1.389 . S
C1807 C1808 1.524 . S
C1808 C1807 1.524 . S
C1808 C1809 1.397 . S
C1808 C1813 1.363 . S
C1809 H1780 0.950 . S
C1809 C1808 1.397 . S
C1809 C1810 1.334 . S
C1810 H1781 0.950 . S
C1810 C1809 1.334 . S
C1810 C1811 1.287 . S
C1811 C1810 1.287 . S
C1811 C1812 1.524 . S
C1811 H1814 0.999 . S
C1812 H1782 0.950 1_565 S
C1812 C1811 1.524 . S
C1812 C1813 1.415 . S
C1813 H1783 0.950 . S
C1813 C1808 1.363 . S
C1813 C1812 1.415 . S
H1814 C1811 0.999 . S
H1815 C1796 0.913 . S
H1816 C1834 0.951 . S
H1817 C1836 0.951 . S
H1818 C1838 0.950 . S
H1819 C1839 0.950 . S
H1820 C1841 0.950 . S
H1821 C1844 0.950 . S
H1822 C1845 0.950 . S
H1823 C1847 0.950 . S
H1824 C1848 0.950 . S
H1825 C1849 0.951 . S
H1826 C1851 0.951 . S
H1827 C1853 0.950 . S
H1828 C1854 0.950 . S
H1829 C1856 0.950 . S
H1830 C1859 0.950 . S
H1831 C1860 0.950 . S
H1832 C1862 0.950 . S
H1833 C1863 0.950 . S
C1834 H1816 0.951 . S
C1834 C1835 1.366 . S
C1834 C1836 1.388 . S
C1835 C1834 1.366 . S
C1835 C1839 1.385 . S
C1836 H1817 0.951 . S
C1836 C1834 1.388 . S
C1836 C1837 1.366 . S
C1837 C1836 1.366 . S
C1837 C1838 1.414 . S
C1837 C1840 1.499 . S
C1838 H1818 0.950 . S
C1838 C1837 1.414 . S
C1838 C1839 1.374 . S
C1839 H1819 0.950 . S
C1839 C1835 1.385 . S
C1839 C1838 1.374 . S
C1840 C1837 1.499 . S
C1840 C1841 1.373 . S
C1840 C1842 1.389 . S
C1841 H1820 0.950 . S
C1841 C1840 1.373 . S
C1841 C1857 1.377 . S
C1842 C1840 1.389 . S
C1842 C1843 1.524 . S
C1842 C1856 1.377 . S
C1843 C1842 1.524 . S
C1843 C1844 1.397 . S
C1843 C1848 1.363 . S
C1844 H1821 0.950 . S
C1844 C1843 1.397 . S
C1844 C1845 1.334 . S
C1845 H1822 0.950 . S
C1845 C1844 1.334 . S
C1845 C1846 1.287 . S
C1846 C1845 1.287 . S
C1846 C1847 1.524 . S
C1846 H1865 0.913 . S
C1847 H1823 0.950 . S
C1847 C1846 1.524 . S
C1847 C1848 1.415 . S
C1848 H1824 0.950 . S
C1848 C1843 1.363 . S
C1848 C1847 1.415 . S
C1849 H1825 0.951 . S
C1849 C1850 1.366 1_554 S
C1849 C1851 1.388 . S
C1850 C1849 1.366 1_556 S
C1850 C1854 1.385 . S
C1851 H1826 0.951 . S
C1851 C1849 1.388 . S
C1851 C1852 1.366 . S
C1852 C1851 1.366 . S
C1852 C1853 1.414 1_554 S
C1852 C1855 1.499 . S
C1853 H1827 0.950 . S
C1853 C1852 1.414 1_556 S
C1853 C1854 1.374 . S
C1854 H1828 0.950 . S
C1854 C1850 1.385 . S
C1854 C1853 1.374 . S
C1855 C1852 1.499 . S
C1855 C1856 1.373 . S
C1855 C1857 1.389 . S
C1856 H1829 0.950 . S
C1856 C1842 1.377 . S
C1856 C1855 1.373 . S
C1857 C1841 1.377 . S
C1857 C1855 1.389 . S
C1857 C1858 1.524 . S
C1858 C1857 1.524 . S
C1858 C1859 1.397 . S
C1858 C1863 1.363 . S
C1859 H1830 0.950 . S
C1859 C1858 1.397 . S
C1859 C1860 1.334 . S
C1860 H1831 0.950 . S
C1860 C1859 1.334 . S
C1860 C1861 1.287 . S
C1861 C1860 1.287 . S
C1861 C1862 1.524 . S
C1861 H1864 0.999 . S
C1862 H1832 0.950 . S
C1862 C1861 1.524 . S
C1862 C1863 1.415 . S
C1863 H1833 0.950 . S
C1863 C1858 1.363 . S
C1863 C1862 1.415 . S
H1864 C1861 0.999 . S
H1865 C1846 0.913 . S
H1866 C1884 0.951 . S
H1867 C1886 0.951 . S
H1868 C1888 0.950 . S
H1869 C1889 0.950 . S
H1870 C1891 0.950 . S
H1871 C1894 0.950 . S
H1872 C1895 0.950 . S
H1873 C1897 0.950 . S
H1874 C1898 0.950 . S
H1875 C1899 0.951 . S
H1876 C1901 0.951 . S
H1877 C1903 0.950 . S
H1878 C1904 0.950 . S
H1879 C1906 0.950 . S
H1880 C1909 0.950 . S
H1881 C1910 0.950 . S
H1882 C1912 0.950 . S
H1883 C1913 0.950 . S
C1884 H1866 0.951 . S
C1884 C1885 1.366 . S
C1884 C1886 1.388 . S
C1885 C1884 1.366 . S
C1885 C1889 1.385 . S
C1886 H1867 0.951 . S
C1886 C1884 1.388 . S
C1886 C1887 1.366 . S
C1887 C1886 1.366 . S
C1887 C1888 1.414 . S
C1887 C1890 1.499 . S
C1888 H1868 0.950 . S
C1888 C1887 1.414 . S
C1888 C1889 1.374 . S
C1889 H1869 0.950 . S
C1889 C1885 1.385 . S
C1889 C1888 1.374 . S
C1890 C1887 1.499 . S
C1890 C1891 1.373 . S
C1890 C1892 1.389 . S
C1891 H1870 0.950 . S
C1891 C1890 1.373 . S
C1891 C1907 1.377 . S
C1892 C1890 1.389 . S
C1892 C1893 1.524 . S
C1892 C1906 1.377 . S
C1893 C1892 1.524 . S
C1893 C1894 1.397 . S
C1893 C1898 1.363 . S
C1894 H1871 0.950 . S
C1894 C1893 1.397 . S
C1894 C1895 1.334 . S
C1895 H1872 0.950 . S
C1895 C1894 1.334 . S
C1895 C1896 1.287 . S
C1896 C1895 1.287 . S
C1896 C1897 1.524 . S
C1896 H1915 0.913 . S
C1897 H1873 0.950 . S
C1897 C1896 1.524 . S
C1897 C1898 1.415 . S
C1898 H1874 0.950 . S
C1898 C1893 1.363 . S
C1898 C1897 1.415 . S
C1899 H1875 0.951 . S
C1899 C1900 1.366 . S
C1899 C1901 1.388 . S
C1900 C1899 1.366 . S
C1900 C1904 1.385 . S
C1901 H1876 0.951 . S
C1901 C1899 1.388 . S
C1901 C1902 1.366 . S
C1902 C1901 1.366 . S
C1902 C1903 1.414 . S
C1902 C1905 1.499 . S
C1903 H1877 0.950 . S
C1903 C1902 1.414 . S
C1903 C1904 1.374 . S
C1904 H1878 0.950 . S
C1904 C1900 1.385 . S
C1904 C1903 1.374 . S
C1905 C1902 1.499 . S
C1905 C1906 1.373 . S
C1905 C1907 1.389 . S
C1906 H1879 0.950 . S
C1906 C1892 1.377 . S
C1906 C1905 1.373 . S
C1907 C1891 1.377 . S
C1907 C1905 1.389 . S
C1907 C1908 1.524 . S
C1908 C1907 1.524 . S
C1908 C1909 1.397 . S
C1908 C1913 1.363 . S
C1909 H1880 0.950 . S
C1909 C1908 1.397 . S
C1909 C1910 1.334 . S
C1910 H1881 0.950 . S
C1910 C1909 1.334 . S
C1910 C1911 1.287 . S
C1911 C1910 1.287 . S
C1911 C1912 1.524 . S
C1911 H1914 0.999 . S
C1912 H1882 0.950 . S
C1912 C1911 1.524 . S
C1912 C1913 1.415 . S
C1913 H1883 0.950 . S
C1913 C1908 1.363 . S
C1913 C1912 1.415 . S
H1914 C1911 0.999 . S
H1915 C1896 0.913 . S
H1916 C1934 0.951 . S
H1917 C1936 0.951 . S
H1918 C1938 0.950 . S
H1919 C1939 0.950 . S
H1920 C1941 0.950 . S
H1921 C1944 0.950 . S
H1922 C1945 0.950 . S
H1923 C1947 0.950 . S
H1924 C1948 0.950 . S
H1925 C1949 0.951 . S
H1926 C1951 0.951 . S
H1927 C1953 0.950 . S
H1928 C1954 0.950 . S
H1929 C1956 0.950 . S
H1930 C1959 0.950 . S
H1931 C1960 0.950 . S
H1932 C1962 0.950 . S
H1933 C1963 0.950 . S
C1934 H1916 0.951 . S
C1934 C1935 1.366 . S
C1934 C1936 1.388 . S
C1935 C1934 1.366 . S
C1935 C1939 1.385 . S
C1936 H1917 0.951 . S
C1936 C1934 1.388 . S
C1936 C1937 1.366 . S
C1937 C1936 1.366 . S
C1937 C1938 1.414 . S
C1937 C1940 1.499 . S
C1938 H1918 0.950 . S
C1938 C1937 1.414 . S
C1938 C1939 1.374 . S
C1939 H1919 0.950 . S
C1939 C1935 1.385 . S
C1939 C1938 1.374 . S
C1940 C1937 1.499 . S
C1940 C1941 1.373 . S
C1940 C1942 1.389 . S
C1941 H1920 0.950 . S
C1941 C1940 1.373 . S
C1941 C1957 1.377 . S
C1942 C1940 1.389 . S
C1942 C1943 1.524 . S
C1942 C1956 1.377 . S
C1943 C1942 1.524 . S
C1943 C1944 1.397 . S
C1943 C1948 1.363 . S
C1944 H1921 0.950 . S
C1944 C1943 1.397 . S
C1944 C1945 1.334 . S
C1945 H1922 0.950 . S
C1945 C1944 1.334 . S
C1945 C1946 1.287 . S
C1946 C1945 1.287 . S
C1946 C1947 1.524 . S
C1946 H1965 0.913 . S
C1947 H1923 0.950 . S
C1947 C1946 1.524 . S
C1947 C1948 1.415 . S
C1948 H1924 0.950 . S
C1948 C1943 1.363 . S
C1948 C1947 1.415 . S
C1949 H1925 0.951 . S
C1949 C1950 1.366 . S
C1949 C1951 1.388 . S
C1950 C1949 1.366 . S
C1950 C1954 1.385 . S
C1951 H1926 0.951 . S
C1951 C1949 1.388 . S
C1951 C1952 1.366 . S
C1952 C1951 1.366 . S
C1952 C1953 1.414 . S
C1952 C1955 1.499 . S
C1953 H1927 0.950 . S
C1953 C1952 1.414 . S
C1953 C1954 1.374 . S
C1954 H1928 0.950 . S
C1954 C1950 1.385 . S
C1954 C1953 1.374 . S
C1955 C1952 1.499 . S
C1955 C1956 1.373 . S
C1955 C1957 1.389 . S
C1956 H1929 0.950 . S
C1956 C1942 1.377 . S
C1956 C1955 1.373 . S
C1957 C1941 1.377 . S
C1957 C1955 1.389 . S
C1957 C1958 1.524 . S
C1958 C1957 1.524 . S
C1958 C1959 1.397 . S
C1958 C1963 1.363 . S
C1959 H1930 0.950 . S
C1959 C1958 1.397 . S
C1959 C1960 1.334 . S
C1960 H1931 0.950 . S
C1960 C1959 1.334 . S
C1960 C1961 1.287 . S
C1961 C1960 1.287 . S
C1961 C1962 1.524 . S
C1961 H1964 0.999 . S
C1962 H1932 0.950 . S
C1962 C1961 1.524 . S
C1962 C1963 1.415 . S
C1963 H1933 0.950 . S
C1963 C1958 1.363 . S
C1963 C1962 1.415 . S
H1964 C1961 0.999 . S
H1965 C1946 0.913 . S
H1966 C1984 0.951 . S
H1967 C1986 0.951 . S
H1968 C1988 0.950 . S
H1969 C1989 0.950 . S
H1970 C1991 0.950 . S
H1971 C1994 0.950 . S
H1972 C1995 0.950 . S
H1973 C1997 0.950 . S
H1974 C1998 0.950 . S
H1975 C1999 0.951 . S
H1976 C2001 0.951 . S
H1977 C2003 0.950 . S
H1978 C2004 0.950 . S
H1979 C2006 0.950 . S
H1980 C2009 0.950 . S
H1981 C2010 0.950 . S
H1982 C2012 0.950 . S
H1983 C2013 0.950 . S
C1984 H1966 0.951 . S
C1984 C1985 1.366 . S
C1984 C1986 1.388 . S
C1985 C1984 1.366 . S
C1985 C1989 1.385 1_554 S
C1986 H1967 0.951 . S
C1986 C1984 1.388 . S
C1986 C1987 1.366 1_554 S
C1987 C1986 1.366 1_556 S
C1987 C1988 1.414 . S
C1987 C1990 1.499 . S
C1988 H1968 0.950 . S
C1988 C1987 1.414 . S
C1988 C1989 1.374 . S
C1989 H1969 0.950 . S
C1989 C1985 1.385 1_556 S
C1989 C1988 1.374 . S
C1990 C1987 1.499 . S
C1990 C1991 1.373 . S
C1990 C1992 1.389 . S
C1991 H1970 0.950 . S
C1991 C1990 1.373 . S
C1991 C2007 1.377 . S
C1992 C1990 1.389 . S
C1992 C1993 1.524 . S
C1992 C2006 1.377 . S
C1993 C1992 1.524 . S
C1993 C1994 1.397 . S
C1993 C1998 1.363 . S
C1994 H1971 0.950 . S
C1994 C1993 1.397 . S
C1994 C1995 1.334 1_556 S
C1995 H1972 0.950 . S
C1995 C1994 1.334 1_554 S
C1995 C1996 1.287 . S
C1996 C1995 1.287 . S
C1996 C1997 1.524 . S
C1996 H2015 0.913 . S
C1997 H1973 0.950 . S
C1997 C1996 1.524 . S
C1997 C1998 1.415 1_554 S
C1998 H1974 0.950 . S
C1998 C1993 1.363 . S
C1998 C1997 1.415 1_556 S
C1999 H1975 0.951 . S
C1999 C2000 1.366 . S
C1999 C2001 1.388 . S
C2000 C1999 1.366 . S
C2000 C2004 1.385 . S
C2001 H1976 0.951 . S
C2001 C1999 1.388 . S
C2001 C2002 1.366 . S
C2002 C2001 1.366 . S
C2002 C2003 1.414 . S
C2002 C2005 1.499 . S
C2003 H1977 0.950 . S
C2003 C2002 1.414 . S
C2003 C2004 1.374 . S
C2004 H1978 0.950 . S
C2004 C2000 1.385 . S
C2004 C2003 1.374 . S
C2005 C2002 1.499 . S
C2005 C2006 1.373 . S
C2005 C2007 1.389 . S
C2006 H1979 0.950 . S
C2006 C1992 1.377 . S
C2006 C2005 1.373 . S
C2007 C1991 1.377 . S
C2007 C2005 1.389 . S
C2007 C2008 1.524 . S
C2008 C2007 1.524 . S
C2008 C2009 1.397 . S
C2008 C2013 1.363 . S
C2009 H1980 0.950 . S
C2009 C2008 1.397 . S
C2009 C2010 1.334 . S
C2010 H1981 0.950 . S
C2010 C2009 1.334 . S
C2010 C2011 1.287 . S
C2011 C2010 1.287 . S
C2011 C2012 1.524 . S
C2011 H2014 0.999 . S
C2012 H1982 0.950 . S
C2012 C2011 1.524 . S
C2012 C2013 1.415 . S
C2013 H1983 0.950 . S
C2013 C2008 1.363 . S
C2013 C2012 1.415 . S
H2014 C2011 0.999 . S
H2015 C1996 0.913 . S
H2016 C2034 0.951 . S
H2017 C2036 0.951 . S
H2018 C2038 0.950 . S
H2019 C2039 0.950 . S
H2020 C2041 0.950 . S
H2021 C2044 0.950 . S
H2022 C2045 0.950 . S
H2023 C2047 0.950 . S
H2024 C2048 0.950 . S
H2025 C2049 0.951 . S
H2026 C2051 0.951 . S
H2027 C2053 0.950 . S
H2028 C2054 0.950 . S
H2029 C2056 0.950 . S
H2030 C2059 0.950 . S
H2031 C2060 0.950 . S
H2032 C2062 0.950 . S
H2033 C2063 0.950 . S
C2034 H2016 0.951 . S
C2034 C2035 1.366 . S
C2034 C2036 1.388 . S
C2035 C2034 1.366 . S
C2035 C2039 1.385 . S
C2036 H2017 0.951 . S
C2036 C2034 1.388 . S
C2036 C2037 1.366 . S
C2037 C2036 1.366 . S
C2037 C2038 1.414 . S
C2037 C2040 1.499 . S
C2038 H2018 0.950 . S
C2038 C2037 1.414 . S
C2038 C2039 1.374 . S
C2039 H2019 0.950 . S
C2039 C2035 1.385 . S
C2039 C2038 1.374 . S
C2040 C2037 1.499 . S
C2040 C2041 1.373 . S
C2040 C2042 1.389 . S
C2041 H2020 0.950 . S
C2041 C2040 1.373 . S
C2041 C2057 1.377 . S
C2042 C2040 1.389 . S
C2042 C2043 1.524 . S
C2042 C2056 1.377 . S
C2043 C2042 1.524 . S
C2043 C2044 1.397 . S
C2043 C2048 1.363 . S
C2044 H2021 0.950 . S
C2044 C2043 1.397 . S
C2044 C2045 1.334 . S
C2045 H2022 0.950 . S
C2045 C2044 1.334 . S
C2045 C2046 1.287 . S
C2046 C2045 1.287 . S
C2046 C2047 1.524 . S
C2046 H2065 0.913 . S
C2047 H2023 0.950 . S
C2047 C2046 1.524 . S
C2047 C2048 1.415 . S
C2048 H2024 0.950 . S
C2048 C2043 1.363 . S
C2048 C2047 1.415 . S
C2049 H2025 0.951 . S
C2049 C2050 1.366 . S
C2049 C2051 1.388 . S
C2050 C2049 1.366 . S
C2050 C2054 1.385 . S
C2051 H2026 0.951 . S
C2051 C2049 1.388 . S
C2051 C2052 1.366 . S
C2052 C2051 1.366 . S
C2052 C2053 1.414 . S
C2052 C2055 1.499 . S
C2053 H2027 0.950 . S
C2053 C2052 1.414 . S
C2053 C2054 1.374 . S
C2054 H2028 0.950 . S
C2054 C2050 1.385 . S
C2054 C2053 1.374 . S
C2055 C2052 1.499 . S
C2055 C2056 1.373 . S
C2055 C2057 1.389 . S
C2056 H2029 0.950 . S
C2056 C2042 1.377 . S
C2056 C2055 1.373 . S
C2057 C2041 1.377 . S
C2057 C2055 1.389 . S
C2057 C2058 1.524 . S
C2058 C2057 1.524 . S
C2058 C2059 1.397 . S
C2058 C2063 1.363 . S
C2059 H2030 0.950 . S
C2059 C2058 1.397 . S
C2059 C2060 1.334 . S
C2060 H2031 0.950 . S
C2060 C2059 1.334 . S
C2060 C2061 1.287 . S
C2061 C2060 1.287 . S
C2061 C2062 1.524 . S
C2061 H2064 0.999 . S
C2062 H2032 0.950 . S
C2062 C2061 1.524 . S
C2062 C2063 1.415 . S
C2063 H2033 0.950 . S
C2063 C2058 1.363 . S
C2063 C2062 1.415 . S
H2064 C2061 0.999 . S
H2065 C2046 0.913 . S
H2066 C2084 0.951 . S
H2067 C2086 0.951 . S
H2068 C2088 0.950 . S
H2069 C2089 0.950 . S
H2070 C2091 0.950 . S
H2071 C2094 0.950 . S
H2072 C2095 0.950 . S
H2073 C2097 0.950 . S
H2074 C2098 0.950 . S
H2075 C2099 0.951 . S
H2076 C2101 0.917 1_556 S
H2077 C2103 0.950 . S
H2078 C2104 0.950 . S
H2079 C2106 0.950 1_554 S
H2080 C2109 0.950 . S
H2081 C2110 0.950 . S
H2082 C2112 0.950 . S
H2083 C2113 0.950 . S
C2084 H2066 0.951 . S
C2084 C2085 1.366 . S
C2084 C2086 1.388 . S
C2085 C2084 1.366 . S
C2085 C2089 1.385 . S
C2086 H2067 0.951 . S
C2086 C2084 1.388 . S
C2086 C2087 1.366 . S
C2087 C2086 1.366 . S
C2087 C2088 1.414 . S
C2087 C2090 1.499 . S
C2088 H2068 0.950 . S
C2088 C2087 1.414 . S
C2088 C2089 1.374 . S
C2089 H2069 0.950 . S
C2089 C2085 1.385 . S
C2089 C2088 1.374 . S
C2090 C2087 1.499 . S
C2090 C2091 1.373 . S
C2090 C2092 1.389 . S
C2091 H2070 0.950 . S
C2091 C2090 1.373 . S
C2091 C2107 1.377 . S
C2092 C2090 1.389 . S
C2092 C2093 1.524 . S
C2092 C2106 1.377 . S
C2093 C2092 1.524 . S
C2093 C2094 1.397 . S
C2093 C2098 1.363 . S
C2094 H2071 0.950 . S
C2094 C2093 1.397 . S
C2094 C2095 1.334 . S
C2095 H2072 0.950 . S
C2095 C2094 1.334 . S
C2095 C2096 1.287 . S
C2096 C2095 1.287 . S
C2096 C2097 1.524 . S
C2096 H2115 0.913 . S
C2097 H2073 0.950 . S
C2097 C2096 1.524 . S
C2097 C2098 1.415 . S
C2098 H2074 0.950 . S
C2098 C2093 1.363 . S
C2098 C2097 1.415 . S
C2099 H2075 0.951 . S
C2099 C2100 1.366 . S
C2099 C2101 1.388 . S
C2100 C2099 1.366 . S
C2100 C2104 1.385 . S
C2101 H2076 0.917 1_554 S
C2101 C2099 1.388 . S
C2101 C2102 1.366 . S
C2102 C2101 1.366 . S
C2102 C2103 1.414 . S
C2102 C2105 1.499 1_554 S
C2103 H2077 0.950 . S
C2103 C2102 1.414 . S
C2103 C2104 1.374 . S
C2104 H2078 0.950 . S
C2104 C2100 1.385 . S
C2104 C2103 1.374 . S
C2105 C2102 1.499 1_556 S
C2105 C2106 1.373 . S
C2105 C2107 1.389 . S
C2106 H2079 0.950 1_556 S
C2106 C2092 1.377 . S
C2106 C2105 1.373 . S
C2107 C2091 1.377 . S
C2107 C2105 1.389 . S
C2107 C2108 1.524 . S
C2108 C2107 1.524 . S
C2108 C2109 1.397 . S
C2108 C2113 1.363 . S
C2109 H2080 0.950 . S
C2109 C2108 1.397 . S
C2109 C2110 1.334 . S
C2110 H2081 0.950 . S
C2110 C2109 1.334 . S
C2110 C2111 1.287 . S
C2111 C2110 1.287 . S
C2111 C2112 1.524 . S
C2111 H2114 0.999 . S
C2112 H2082 0.950 . S
C2112 C2111 1.524 . S
C2112 C2113 1.415 . S
C2113 H2083 0.950 . S
C2113 C2108 1.363 . S
C2113 C2112 1.415 . S
H2114 C2111 0.999 . S
H2115 C2096 0.913 . S
H2116 C2134 0.951 . S
H2117 C2136 0.951 . S
H2118 C2138 0.950 . S
H2119 C2139 0.950 . S
H2120 C2141 0.950 . S
H2121 C2144 0.950 . S
H2122 C2145 0.950 . S
H2123 C2147 0.950 . S
H2124 C2148 0.950 . S
H2125 C2149 0.951 . S
H2126 C2151 0.951 . S
H2127 C2153 0.950 . S
H2128 C2154 0.950 . S
H2129 C2156 0.950 . S
H2130 C2159 0.950 . S
H2131 C2160 0.950 . S
H2132 C2162 0.950 . S
H2133 C2163 0.950 . S
C2134 H2116 0.951 . S
C2134 C2135 1.366 . S
C2134 C2136 1.388 . S
C2135 C2134 1.366 . S
C2135 C2139 1.385 . S
C2136 H2117 0.951 . S
C2136 C2134 1.388 . S
C2136 C2137 1.366 . S
C2137 C2136 1.366 . S
C2137 C2138 1.414 . S
C2137 C2140 1.499 . S
C2138 H2118 0.950 . S
C2138 C2137 1.414 . S
C2138 C2139 1.374 . S
C2139 H2119 0.950 . S
C2139 C2135 1.385 . S
C2139 C2138 1.374 . S
C2140 C2137 1.499 . S
C2140 C2141 1.373 . S
C2140 C2142 1.389 . S
C2141 H2120 0.950 . S
C2141 C2140 1.373 . S
C2141 C2157 1.377 . S
C2142 C2140 1.389 . S
C2142 C2143 1.524 . S
C2142 C2156 1.377 . S
C2143 C2142 1.524 . S
C2143 C2144 1.397 . S
C2143 C2148 1.363 . S
C2144 H2121 0.950 . S
C2144 C2143 1.397 . S
C2144 C2145 1.334 . S
C2145 H2122 0.950 . S
C2145 C2144 1.334 . S
C2145 C2146 1.287 . S
C2146 C2145 1.287 . S
C2146 C2147 1.524 . S
C2146 H2165 0.913 . S
C2147 H2123 0.950 . S
C2147 C2146 1.524 . S
C2147 C2148 1.415 . S
C2148 H2124 0.950 . S
C2148 C2143 1.363 . S
C2148 C2147 1.415 . S
C2149 H2125 0.951 . S
C2149 C2150 1.366 . S
C2149 C2151 1.388 . S
C2150 C2149 1.366 . S
C2150 C2154 1.385 . S
C2151 H2126 0.951 . S
C2151 C2149 1.388 . S
C2151 C2152 1.366 . S
C2152 C2151 1.366 . S
C2152 C2153 1.414 . S
C2152 C2155 1.499 . S
C2153 H2127 0.950 . S
C2153 C2152 1.414 . S
C2153 C2154 1.374 . S
C2154 H2128 0.950 . S
C2154 C2150 1.385 . S
C2154 C2153 1.374 . S
C2155 C2152 1.499 . S
C2155 C2156 1.373 . S
C2155 C2157 1.389 . S
C2156 H2129 0.950 . S
C2156 C2142 1.377 . S
C2156 C2155 1.373 . S
C2157 C2141 1.377 . S
C2157 C2155 1.389 . S
C2157 C2158 1.524 . S
C2158 C2157 1.524 . S
C2158 C2159 1.397 . S
C2158 C2163 1.363 . S
C2159 H2130 0.950 . S
C2159 C2158 1.397 . S
C2159 C2160 1.334 . S
C2160 H2131 0.950 . S
C2160 C2159 1.334 . S
C2160 C2161 1.287 . S
C2161 C2160 1.287 . S
C2161 C2162 1.524 . S
C2161 H2164 0.999 . S
C2162 H2132 0.950 . S
C2162 C2161 1.524 . S
C2162 C2163 1.415 . S
C2163 H2133 0.950 . S
C2163 C2158 1.363 . S
C2163 C2162 1.415 . S
H2164 C2161 0.999 . S
H2165 C2146 0.913 . S
H2166 C2184 0.951 . S
H2167 C2186 0.951 . S
H2168 C2188 0.950 . S
H2169 C2189 0.950 . S
H2170 C2191 0.950 1_655 S
H2171 C2194 0.950 . S
H2172 C2195 0.950 . S
H2173 C2197 0.950 . S
H2174 C2198 0.950 . S
H2175 C2199 0.951 . S
H2176 C2201 0.951 . S
H2177 C2203 0.950 . S
H2178 C2204 0.959 . S
H2179 C2206 0.950 . S
H2180 C2209 0.950 . S
H2181 C2210 0.950 . S
H2182 C2212 0.950 . S
H2183 C2213 0.950 . S
C2184 H2166 0.951 . S
C2184 C2185 1.366 . S
C2184 C2186 1.388 . S
C2185 C2184 1.366 . S
C2185 C2189 1.385 . S
C2186 H2167 0.951 . S
C2186 C2184 1.388 . S
C2186 C2187 1.366 . S
C2187 C2186 1.366 . S
C2187 C2188 1.414 . S
C2187 C2190 1.499 . S
C2188 H2168 0.950 . S
C2188 C2187 1.414 . S
C2188 C2189 1.374 . S
C2189 H2169 0.950 . S
C2189 C2185 1.385 . S
C2189 C2188 1.374 . S
C2190 C2187 1.499 . S
C2190 C2191 1.373 . S
C2190 C2192 1.389 . S
C2191 H2170 0.950 1_455 S
C2191 C2190 1.373 . S
C2191 C2207 1.377 1_455 S
C2192 C2190 1.389 . S
C2192 C2193 1.524 . S
C2192 C2206 1.377 . S
C2193 C2192 1.524 . S
C2193 C2194 1.397 . S
C2193 C2198 1.363 . S
C2194 H2171 0.950 . S
C2194 C2193 1.397 . S
C2194 C2195 1.334 . S
C2195 H2172 0.950 . S
C2195 C2194 1.334 . S
C2195 C2196 1.287 . S
C2196 C2195 1.287 . S
C2196 C2197 1.524 . S
C2196 H2215 0.913 . S
C2197 H2173 0.950 . S
C2197 C2196 1.524 . S
C2197 C2198 1.415 . S
C2198 H2174 0.950 . S
C2198 C2193 1.363 . S
C2198 C2197 1.415 . S
C2199 H2175 0.951 . S
C2199 C2200 1.366 . S
C2199 C2201 1.388 . S
C2200 C2199 1.366 . S
C2200 C2204 1.385 . S
C2201 H2176 0.951 . S
C2201 C2199 1.388 . S
C2201 C2202 1.366 . S
C2202 C2201 1.366 . S
C2202 C2203 1.414 1_655 S
C2202 C2205 1.499 1_655 S
C2203 H2177 0.950 . S
C2203 C2202 1.414 1_455 S
C2203 C2204 1.374 1_455 S
C2204 H2178 0.959 . S
C2204 C2200 1.385 . S
C2204 C2203 1.374 1_655 S
C2205 C2202 1.499 1_455 S
C2205 C2206 1.373 . S
C2205 C2207 1.389 1_455 S
C2206 H2179 0.950 . S
C2206 C2192 1.377 . S
C2206 C2205 1.373 . S
C2207 C2191 1.377 1_655 S
C2207 C2205 1.389 1_655 S
C2207 C2208 1.524 . S
C2208 C2207 1.524 . S
C2208 C2209 1.397 . S
C2208 C2213 1.363 . S
C2209 H2180 0.950 . S
C2209 C2208 1.397 . S
C2209 C2210 1.334 . S
C2210 H2181 0.950 . S
C2210 C2209 1.334 . S
C2210 C2211 1.287 . S
C2211 C2210 1.287 . S
C2211 C2212 1.524 . S
C2211 H2214 0.999 . S
C2212 H2182 0.950 . S
C2212 C2211 1.524 . S
C2212 C2213 1.415 . S
C2213 H2183 0.950 . S
C2213 C2208 1.363 . S
C2213 C2212 1.415 . S
H2214 C2211 0.999 . S
H2215 C2196 0.913 . S
H2216 C2234 0.951 . S
H2217 C2236 0.951 . S
H2218 C2238 0.950 . S
H2219 C2239 0.950 . S
H2220 C2241 0.950 . S
H2221 C2244 0.950 . S
H2222 C2245 0.950 . S
H2223 C2247 0.950 . S
H2224 C2248 0.950 . S
H2225 C2249 0.951 . S
H2226 C2251 0.951 . S
H2227 C2253 0.950 . S
H2228 C2254 0.950 . S
H2229 C2256 0.950 . S
H2230 C2259 0.950 . S
H2231 C2260 0.950 . S
H2232 C2262 0.950 . S
H2233 C2263 0.950 . S
C2234 H2216 0.951 . S
C2234 C2235 1.366 . S
C2234 C2236 1.388 . S
C2235 C2234 1.366 . S
C2235 C2239 1.385 . S
C2236 H2217 0.951 . S
C2236 C2234 1.388 . S
C2236 C2237 1.366 . S
C2237 C2236 1.366 . S
C2237 C2238 1.414 . S
C2237 C2240 1.499 . S
C2238 H2218 0.950 . S
C2238 C2237 1.414 . S
C2238 C2239 1.374 . S
C2239 H2219 0.950 . S
C2239 C2235 1.385 . S
C2239 C2238 1.374 . S
C2240 C2237 1.499 . S
C2240 C2241 1.373 . S
C2240 C2242 1.389 . S
C2241 H2220 0.950 . S
C2241 C2240 1.373 . S
C2241 C2257 1.377 . S
C2242 C2240 1.389 . S
C2242 C2243 1.524 . S
C2242 C2256 1.377 . S
C2243 C2242 1.524 . S
C2243 C2244 1.397 . S
C2243 C2248 1.363 . S
C2244 H2221 0.950 . S
C2244 C2243 1.397 . S
C2244 C2245 1.334 . S
C2245 H2222 0.950 . S
C2245 C2244 1.334 . S
C2245 C2246 1.287 . S
C2246 C2245 1.287 . S
C2246 C2247 1.524 . S
C2246 H2265 0.913 . S
C2247 H2223 0.950 . S
C2247 C2246 1.524 . S
C2247 C2248 1.415 . S
C2248 H2224 0.950 . S
C2248 C2243 1.363 . S
C2248 C2247 1.415 . S
C2249 H2225 0.951 . S
C2249 C2250 1.366 . S
C2249 C2251 1.388 . S
C2250 C2249 1.366 . S
C2250 C2254 1.385 . S
C2251 H2226 0.951 . S
C2251 C2249 1.388 . S
C2251 C2252 1.366 . S
C2252 C2251 1.366 . S
C2252 C2253 1.414 . S
C2252 C2255 1.499 . S
C2253 H2227 0.950 . S
C2253 C2252 1.414 . S
C2253 C2254 1.374 . S
C2254 H2228 0.950 . S
C2254 C2250 1.385 . S
C2254 C2253 1.374 . S
C2255 C2252 1.499 . S
C2255 C2256 1.373 . S
C2255 C2257 1.389 . S
C2256 H2229 0.950 . S
C2256 C2242 1.377 . S
C2256 C2255 1.373 . S
C2257 C2241 1.377 . S
C2257 C2255 1.389 . S
C2257 C2258 1.524 . S
C2258 C2257 1.524 . S
C2258 C2259 1.397 . S
C2258 C2263 1.363 . S
C2259 H2230 0.950 . S
C2259 C2258 1.397 . S
C2259 C2260 1.334 . S
C2260 H2231 0.950 . S
C2260 C2259 1.334 . S
C2260 C2261 1.287 . S
C2261 C2260 1.287 . S
C2261 C2262 1.524 . S
C2261 H2264 0.999 . S
C2262 H2232 0.950 . S
C2262 C2261 1.524 . S
C2262 C2263 1.415 . S
C2263 H2233 0.950 . S
C2263 C2258 1.363 . S
C2263 C2262 1.415 . S
H2264 C2261 0.999 . S
H2265 C2246 0.913 . S
H2266 C2284 0.951 . S
H2267 C2286 0.951 . S
H2268 C2288 0.950 . S
H2269 C2289 0.950 . S
H2270 C2291 0.950 . S
H2271 C2294 0.950 . S
H2272 C2295 0.950 . S
H2273 C2297 0.950 . S
H2274 C2298 0.950 . S
H2275 C2299 0.951 . S
H2276 C2301 0.951 . S
H2277 C2303 0.950 . S
H2278 C2304 0.950 . S
H2279 C2306 0.950 . S
H2280 C2309 0.950 . S
H2281 C2310 0.950 . S
H2282 C2312 0.950 . S
H2283 C2313 0.950 . S
C2284 H2266 0.951 . S
C2284 C2285 1.366 . S
C2284 C2286 1.388 . S
C2285 C2284 1.366 . S
C2285 C2289 1.385 . S
C2286 H2267 0.951 . S
C2286 C2284 1.388 . S
C2286 C2287 1.366 . S
C2287 C2286 1.366 . S
C2287 C2288 1.414 . S
C2287 C2290 1.499 . S
C2288 H2268 0.950 . S
C2288 C2287 1.414 . S
C2288 C2289 1.374 . S
C2289 H2269 0.950 . S
C2289 C2285 1.385 . S
C2289 C2288 1.374 . S
C2290 C2287 1.499 . S
C2290 C2291 1.373 . S
C2290 C2292 1.389 . S
C2291 H2270 0.950 . S
C2291 C2290 1.373 . S
C2291 C2307 1.377 . S
C2292 C2290 1.389 . S
C2292 C2293 1.524 . S
C2292 C2306 1.377 . S
C2293 C2292 1.524 . S
C2293 C2294 1.397 . S
C2293 C2298 1.363 . S
C2294 H2271 0.950 . S
C2294 C2293 1.397 . S
C2294 C2295 1.334 . S
C2295 H2272 0.950 . S
C2295 C2294 1.334 . S
C2295 C2296 1.287 . S
C2296 C2295 1.287 . S
C2296 C2297 1.524 . S
C2296 H2315 0.913 . S
C2297 H2273 0.950 . S
C2297 C2296 1.524 . S
C2297 C2298 1.415 . S
C2298 H2274 0.950 . S
C2298 C2293 1.363 . S
C2298 C2297 1.415 . S
C2299 H2275 0.951 . S
C2299 C2300 1.366 . S
C2299 C2301 1.388 . S
C2300 C2299 1.366 . S
C2300 C2304 1.385 . S
C2301 H2276 0.951 . S
C2301 C2299 1.388 . S
C2301 C2302 1.366 . S
C2302 C2301 1.366 . S
C2302 C2303 1.414 . S
C2302 C2305 1.499 . S
C2303 H2277 0.950 . S
C2303 C2302 1.414 . S
C2303 C2304 1.374 . S
C2304 H2278 0.950 . S
C2304 C2300 1.385 . S
C2304 C2303 1.374 . S
C2305 C2302 1.499 . S
C2305 C2306 1.373 . S
C2305 C2307 1.389 . S
C2306 H2279 0.950 . S
C2306 C2292 1.377 . S
C2306 C2305 1.373 . S
C2307 C2291 1.377 . S
C2307 C2305 1.389 . S
C2307 C2308 1.524 . S
C2308 C2307 1.524 . S
C2308 C2309 1.397 . S
C2308 C2313 1.363 . S
C2309 H2280 0.950 . S
C2309 C2308 1.397 . S
C2309 C2310 1.334 . S
C2310 H2281 0.950 . S
C2310 C2309 1.334 . S
C2310 C2311 1.287 . S
C2311 C2310 1.287 . S
C2311 C2312 1.524 . S
C2311 H2314 0.999 . S
C2312 H2282 0.950 . S
C2312 C2311 1.524 . S
C2312 C2313 1.415 . S
C2313 H2283 0.950 . S
C2313 C2308 1.363 . S
C2313 C2312 1.415 . S
H2314 C2311 0.999 . S
H2315 C2296 0.913 . S
H2316 C2334 0.951 . S
H2317 C2336 0.951 . S
H2318 C2338 0.950 . S
H2319 C2339 0.950 . S
H2320 C2341 0.950 . S
H2321 C2344 0.950 . S
H2322 C2345 0.950 . S
H2323 C2347 0.950 . S
H2324 C2348 0.950 . S
H2325 C2349 0.951 . S
H2326 C2351 0.951 . S
H2327 C2353 0.950 . S
H2328 C2354 0.950 . S
H2329 C2356 0.950 . S
H2330 C2359 0.950 . S
H2331 C2360 0.950 . S
H2332 C2362 0.950 . S
H2333 C2363 0.950 . S
C2334 H2316 0.951 . S
C2334 C2335 1.366 . S
C2334 C2336 1.388 . S
C2335 C2334 1.366 . S
C2335 C2339 1.385 . S
C2336 H2317 0.951 . S
C2336 C2334 1.388 . S
C2336 C2337 1.366 . S
C2337 C2336 1.366 . S
C2337 C2338 1.414 . S
C2337 C2340 1.499 . S
C2338 H2318 0.950 . S
C2338 C2337 1.414 . S
C2338 C2339 1.374 . S
C2339 H2319 0.950 . S
C2339 C2335 1.385 . S
C2339 C2338 1.374 . S
C2340 C2337 1.499 . S
C2340 C2341 1.373 . S
C2340 C2342 1.389 . S
C2341 H2320 0.950 . S
C2341 C2340 1.373 . S
C2341 C2357 1.377 . S
C2342 C2340 1.389 . S
C2342 C2343 1.524 . S
C2342 C2356 1.377 . S
C2343 C2342 1.524 . S
C2343 C2344 1.397 . S
C2343 C2348 1.363 . S
C2344 H2321 0.950 . S
C2344 C2343 1.397 . S
C2344 C2345 1.334 . S
C2345 H2322 0.950 . S
C2345 C2344 1.334 . S
C2345 C2346 1.287 . S
C2346 C2345 1.287 . S
C2346 C2347 1.524 . S
C2346 H2365 0.913 . S
C2347 H2323 0.950 . S
C2347 C2346 1.524 . S
C2347 C2348 1.415 . S
C2348 H2324 0.950 . S
C2348 C2343 1.363 . S
C2348 C2347 1.415 . S
C2349 H2325 0.951 . S
C2349 C2350 1.366 . S
C2349 C2351 1.388 . S
C2350 C2349 1.366 . S
C2350 C2354 1.385 . S
C2351 H2326 0.951 . S
C2351 C2349 1.388 . S
C2351 C2352 1.366 . S
C2352 C2351 1.366 . S
C2352 C2353 1.414 . S
C2352 C2355 1.499 . S
C2353 H2327 0.950 . S
C2353 C2352 1.414 . S
C2353 C2354 1.374 . S
C2354 H2328 0.950 . S
C2354 C2350 1.385 . S
C2354 C2353 1.374 . S
C2355 C2352 1.499 . S
C2355 C2356 1.373 . S
C2355 C2357 1.389 . S
C2356 H2329 0.950 . S
C2356 C2342 1.377 . S
C2356 C2355 1.373 . S
C2357 C2341 1.377 . S
C2357 C2355 1.389 . S
C2357 C2358 1.524 . S
C2358 C2357 1.524 . S
C2358 C2359 1.397 . S
C2358 C2363 1.363 . S
C2359 H2330 0.950 . S
C2359 C2358 1.397 . S
C2359 C2360 1.334 . S
C2360 H2331 0.950 . S
C2360 C2359 1.334 . S
C2360 C2361 1.287 . S
C2361 C2360 1.287 . S
C2361 C2362 1.524 . S
C2361 H2364 0.999 . S
C2362 H2332 0.950 . S
C2362 C2361 1.524 . S
C2362 C2363 1.415 . S
C2363 H2333 0.950 . S
C2363 C2358 1.363 . S
C2363 C2362 1.415 . S
H2364 C2361 0.999 . S
H2365 C2346 0.913 . S
H2366 C2384 0.951 . S
H2367 C2386 0.950 1_655 S
H2368 C2388 0.950 . S
H2369 C2389 0.950 . S
H2370 C2391 0.950 . S
H2371 C2394 0.950 . S
H2372 C2395 0.950 . S
H2373 C2397 0.950 . S
H2374 C2398 0.950 . S
H2375 C2399 0.951 . S
H2376 C2401 0.951 . S
H2377 C2403 0.950 . S
H2378 C2404 0.950 . S
H2379 C2406 0.950 . S
H2380 C2409 0.950 . S
H2381 C2410 0.950 . S
H2382 C2412 0.950 . S
H2383 C2413 0.950 . S
C2384 H2366 0.951 . S
C2384 C2385 1.366 . S
C2384 C2386 1.388 . S
C2385 C2384 1.366 . S
C2385 C2389 1.385 . S
C2386 H2367 0.950 1_455 S
C2386 C2384 1.388 . S
C2386 C2387 1.366 . S
C2387 C2386 1.366 . S
C2387 C2388 1.414 . S
C2387 C2390 1.499 1_456 S
C2388 H2368 0.950 . S
C2388 C2387 1.414 . S
C2388 C2389 1.374 . S
C2389 H2369 0.950 . S
C2389 C2385 1.385 . S
C2389 C2388 1.374 . S
C2390 C2387 1.499 1_654 S
C2390 C2391 1.373 1_655 S
C2390 C2392 1.389 . S
C2391 H2370 0.950 . S
C2391 C2390 1.373 1_455 S
C2391 C2407 1.377 1_455 S
C2392 C2390 1.389 . S
C2392 C2393 1.524 1_554 S
C2392 C2406 1.377 . S
C2393 C2392 1.524 1_556 S
C2393 C2394 1.397 . S
C2393 C2398 1.363 . S
C2394 H2371 0.950 . S
C2394 C2393 1.397 . S
C2394 C2395 1.334 . S
C2395 H2372 0.950 . S
C2395 C2394 1.334 . S
C2395 C2396 1.287 . S
C2396 C2395 1.287 . S
C2396 C2397 1.524 . S
C2396 H2415 0.913 . S
C2397 H2373 0.950 . S
C2397 C2396 1.524 . S
C2397 C2398 1.415 . S
C2398 H2374 0.950 . S
C2398 C2393 1.363 . S
C2398 C2397 1.415 . S
C2399 H2375 0.951 . S
C2399 C2400 1.366 . S
C2399 C2401 1.388 . S
C2400 C2399 1.366 . S
C2400 C2404 1.385 . S
C2401 H2376 0.951 . S
C2401 C2399 1.388 . S
C2401 C2402 1.366 . S
C2402 C2401 1.366 . S
C2402 C2403 1.414 . S
C2402 C2405 1.499 . S
C2403 H2377 0.950 . S
C2403 C2402 1.414 . S
C2403 C2404 1.374 . S
C2404 H2378 0.950 . S
C2404 C2400 1.385 . S
C2404 C2403 1.374 . S
C2405 C2402 1.499 . S
C2405 C2406 1.373 . S
C2405 C2407 1.389 . S
C2406 H2379 0.950 . S
C2406 C2392 1.377 . S
C2406 C2405 1.373 . S
C2407 C2391 1.377 1_655 S
C2407 C2405 1.389 . S
C2407 C2408 1.524 1_655 S
C2408 C2407 1.524 1_455 S
C2408 C2409 1.397 . S
C2408 C2413 1.363 . S
C2409 H2380 0.950 . S
C2409 C2408 1.397 . S
C2409 C2410 1.334 . S
C2410 H2381 0.950 . S
C2410 C2409 1.334 . S
C2410 C2411 1.287 . S
C2411 C2410 1.287 . S
C2411 C2412 1.524 . S
C2411 H2414 0.999 . S
C2412 H2382 0.950 . S
C2412 C2411 1.524 . S
C2412 C2413 1.415 . S
C2413 H2383 0.950 . S
C2413 C2408 1.363 . S
C2413 C2412 1.415 . S
H2414 C2411 0.999 . S
H2415 C2396 0.913 . S
H2416 C2434 0.951 . S
H2417 C2436 0.951 . S
H2418 C2438 0.950 . S
H2419 C2439 0.950 . S
H2420 C2441 0.950 . S
H2421 C2444 0.950 . S
H2422 C2445 0.950 . S
H2423 C2447 0.950 . S
H2424 C2448 0.950 . S
H2425 C2449 0.951 . S
H2426 C2451 0.951 . S
H2427 C2453 0.950 . S
H2428 C2454 0.950 . S
H2429 C2456 0.950 . S
H2430 C2459 0.950 . S
H2431 C2460 0.950 . S
H2432 C2462 0.950 . S
H2433 C2463 0.950 . S
C2434 H2416 0.951 . S
C2434 C2435 1.366 . S
C2434 C2436 1.388 . S
C2435 C2434 1.366 . S
C2435 C2439 1.385 . S
C2436 H2417 0.951 . S
C2436 C2434 1.388 . S
C2436 C2437 1.366 . S
C2437 C2436 1.366 . S
C2437 C2438 1.414 . S
C2437 C2440 1.499 . S
C2438 H2418 0.950 . S
C2438 C2437 1.414 . S
C2438 C2439 1.374 . S
C2439 H2419 0.950 . S
C2439 C2435 1.385 . S
C2439 C2438 1.374 . S
C2440 C2437 1.499 . S
C2440 C2441 1.373 . S
C2440 C2442 1.389 . S
C2441 H2420 0.950 . S
C2441 C2440 1.373 . S
C2441 C2457 1.377 . S
C2442 C2440 1.389 . S
C2442 C2443 1.524 . S
C2442 C2456 1.377 . S
C2443 C2442 1.524 . S
C2443 C2444 1.397 . S
C2443 C2448 1.363 . S
C2444 H2421 0.950 . S
C2444 C2443 1.397 . S
C2444 C2445 1.334 . S
C2445 H2422 0.950 . S
C2445 C2444 1.334 . S
C2445 C2446 1.287 . S
C2446 C2445 1.287 . S
C2446 C2447 1.524 . S
C2446 H2465 0.913 . S
C2447 H2423 0.950 . S
C2447 C2446 1.524 . S
C2447 C2448 1.415 . S
C2448 H2424 0.950 . S
C2448 C2443 1.363 . S
C2448 C2447 1.415 . S
C2449 H2425 0.951 . S
C2449 C2450 1.366 . S
C2449 C2451 1.388 . S
C2450 C2449 1.366 . S
C2450 C2454 1.385 . S
C2451 H2426 0.951 . S
C2451 C2449 1.388 . S
C2451 C2452 1.366 . S
C2452 C2451 1.366 . S
C2452 C2453 1.414 . S
C2452 C2455 1.499 . S
C2453 H2427 0.950 . S
C2453 C2452 1.414 . S
C2453 C2454 1.374 . S
C2454 H2428 0.950 . S
C2454 C2450 1.385 . S
C2454 C2453 1.374 . S
C2455 C2452 1.499 . S
C2455 C2456 1.373 . S
C2455 C2457 1.389 . S
C2456 H2429 0.950 . S
C2456 C2442 1.377 . S
C2456 C2455 1.373 . S
C2457 C2441 1.377 . S
C2457 C2455 1.389 . S
C2457 C2458 1.524 . S
C2458 C2457 1.524 . S
C2458 C2459 1.397 . S
C2458 C2463 1.363 . S
C2459 H2430 0.950 . S
C2459 C2458 1.397 . S
C2459 C2460 1.334 . S
C2460 H2431 0.950 . S
C2460 C2459 1.334 . S
C2460 C2461 1.287 . S
C2461 C2460 1.287 . S
C2461 C2462 1.524 . S
C2461 H2464 0.999 . S
C2462 H2432 0.950 . S
C2462 C2461 1.524 . S
C2462 C2463 1.415 . S
C2463 H2433 0.950 . S
C2463 C2458 1.363 . S
C2463 C2462 1.415 . S
H2464 C2461 0.999 . S
H2465 C2446 0.913 . S
H2466 C2484 0.951 1_554 S
H2467 C2486 0.951 . S
H2468 C2488 0.950 . S
H2469 C2489 0.950 . S
H2470 C2491 0.950 1_556 S
H2471 C2494 0.950 . S
H2472 C2495 0.950 . S
H2473 C2497 0.950 . S
H2474 C2498 0.950 . S
H2475 C2499 0.951 . S
H2476 C2501 0.951 . S
H2477 C2503 0.950 . S
H2478 C2504 0.950 . S
H2479 C2506 0.950 . S
H2480 C2509 0.950 . S
H2481 C2510 0.950 . S
H2482 C2512 0.950 . S
H2483 C2513 0.950 . S
C2484 H2466 0.951 1_556 S
C2484 C2485 1.366 . S
C2484 C2486 1.388 1_556 S
C2485 C2484 1.366 . S
C2485 C2489 1.385 . S
C2486 H2467 0.951 . S
C2486 C2484 1.388 1_554 S
C2486 C2487 1.366 1_554 S
C2487 C2486 1.366 1_556 S
C2487 C2488 1.414 . S
C2487 C2490 1.499 1_556 S
C2488 H2468 0.950 . S
C2488 C2487 1.414 . S
C2488 C2489 1.374 . S
C2489 H2469 0.950 . S
C2489 C2485 1.385 . S
C2489 C2488 1.374 . S
C2490 C2487 1.499 1_554 S
C2490 C2491 1.373 . S
C2490 C2492 1.389 . S
C2491 H2470 0.950 1_554 S
C2491 C2490 1.373 . S
C2491 C2507 1.377 . S
C2492 C2490 1.389 . S
C2492 C2493 1.524 . S
C2492 C2506 1.377 . S
C2493 C2492 1.524 . S
C2493 C2494 1.397 1_554 S
C2493 C2498 1.363 . S
C2494 H2471 0.950 . S
C2494 C2493 1.397 1_556 S
C2494 C2495 1.334 . S
C2495 H2472 0.950 . S
C2495 C2494 1.334 . S
C2495 C2496 1.287 1_556 S
C2496 C2495 1.287 1_554 S
C2496 C2497 1.524 . S
C2496 H2515 0.913 . S
C2497 H2473 0.950 . S
C2497 C2496 1.524 . S
C2497 C2498 1.415 . S
C2498 H2474 0.950 . S
C2498 C2493 1.363 . S
C2498 C2497 1.415 . S
C2499 H2475 0.951 . S
C2499 C2500 1.366 . S
C2499 C2501 1.388 . S
C2500 C2499 1.366 . S
C2500 C2504 1.385 . S
C2501 H2476 0.951 . S
C2501 C2499 1.388 . S
C2501 C2502 1.366 . S
C2502 C2501 1.366 . S
C2502 C2503 1.414 . S
C2502 C2505 1.499 . S
C2503 H2477 0.950 . S
C2503 C2502 1.414 . S
C2503 C2504 1.374 . S
C2504 H2478 0.950 . S
C2504 C2500 1.385 . S
C2504 C2503 1.374 . S
C2505 C2502 1.499 . S
C2505 C2506 1.373 . S
C2505 C2507 1.389 . S
C2506 H2479 0.950 . S
C2506 C2492 1.377 . S
C2506 C2505 1.373 . S
C2507 C2491 1.377 . S
C2507 C2505 1.389 . S
C2507 C2508 1.524 . S
C2508 C2507 1.524 . S
C2508 C2509 1.397 . S
C2508 C2513 1.363 1_554 S
C2509 H2480 0.950 . S
C2509 C2508 1.397 . S
C2509 C2510 1.334 . S
C2510 H2481 0.950 . S
C2510 C2509 1.334 . S
C2510 C2511 1.287 . S
C2511 C2510 1.287 . S
C2511 C2512 1.524 1_554 S
C2511 H2514 0.999 . S
C2512 H2482 0.950 . S
C2512 C2511 1.524 1_556 S
C2512 C2513 1.415 . S
C2513 H2483 0.950 . S
C2513 C2508 1.363 1_556 S
C2513 C2512 1.415 . S
H2514 C2511 0.999 . S
H2515 C2496 0.913 . S
H2516 C2534 0.951 . S
H2517 C2536 0.951 . S
H2518 C2538 0.950 . S
H2519 C2539 0.950 . S
H2520 C2541 0.950 . S
H2521 C2544 0.950 . S
H2522 C2545 0.950 . S
H2523 C2547 0.950 . S
H2524 C2548 0.950 . S
H2525 C2549 0.951 . S
H2526 C2551 0.951 . S
H2527 C2553 0.950 . S
H2528 C2554 0.950 . S
H2529 C2556 0.950 . S
H2530 C2559 0.950 . S
H2531 C2560 0.950 . S
H2532 C2562 0.950 . S
H2533 C2563 0.950 . S
C2534 H2516 0.951 . S
C2534 C2535 1.366 . S
C2534 C2536 1.388 . S
C2535 C2534 1.366 . S
C2535 C2539 1.385 . S
C2536 H2517 0.951 . S
C2536 C2534 1.388 . S
C2536 C2537 1.366 . S
C2537 C2536 1.366 . S
C2537 C2538 1.414 . S
C2537 C2540 1.499 . S
C2538 H2518 0.950 . S
C2538 C2537 1.414 . S
C2538 C2539 1.374 . S
C2539 H2519 0.950 . S
C2539 C2535 1.385 . S
C2539 C2538 1.374 . S
C2540 C2537 1.499 . S
C2540 C2541 1.373 . S
C2540 C2542 1.389 . S
C2541 H2520 0.950 . S
C2541 C2540 1.373 . S
C2541 C2557 1.377 . S
C2542 C2540 1.389 . S
C2542 C2543 1.524 . S
C2542 C2556 1.377 . S
C2543 C2542 1.524 . S
C2543 C2544 1.397 . S
C2543 C2548 1.363 . S
C2544 H2521 0.950 . S
C2544 C2543 1.397 . S
C2544 C2545 1.334 . S
C2545 H2522 0.950 . S
C2545 C2544 1.334 . S
C2545 C2546 1.287 . S
C2546 C2545 1.287 . S
C2546 C2547 1.524 . S
C2546 H2565 0.913 . S
C2547 H2523 0.950 . S
C2547 C2546 1.524 . S
C2547 C2548 1.415 . S
C2548 H2524 0.950 . S
C2548 C2543 1.363 . S
C2548 C2547 1.415 . S
C2549 H2525 0.951 . S
C2549 C2550 1.366 . S
C2549 C2551 1.388 . S
C2550 C2549 1.366 . S
C2550 C2554 1.385 . S
C2551 H2526 0.951 . S
C2551 C2549 1.388 . S
C2551 C2552 1.366 . S
C2552 C2551 1.366 . S
C2552 C2553 1.414 . S
C2552 C2555 1.499 . S
C2553 H2527 0.950 . S
C2553 C2552 1.414 . S
C2553 C2554 1.374 . S
C2554 H2528 0.950 . S
C2554 C2550 1.385 . S
C2554 C2553 1.374 . S
C2555 C2552 1.499 . S
C2555 C2556 1.373 . S
C2555 C2557 1.389 . S
C2556 H2529 0.950 . S
C2556 C2542 1.377 . S
C2556 C2555 1.373 . S
C2557 C2541 1.377 . S
C2557 C2555 1.389 . S
C2557 C2558 1.524 . S
C2558 C2557 1.524 . S
C2558 C2559 1.397 . S
C2558 C2563 1.363 . S
C2559 H2530 0.950 . S
C2559 C2558 1.397 . S
C2559 C2560 1.334 . S
C2560 H2531 0.950 . S
C2560 C2559 1.334 . S
C2560 C2561 1.287 . S
C2561 C2560 1.287 . S
C2561 C2562 1.524 . S
C2561 H2564 0.999 . S
C2562 H2532 0.950 . S
C2562 C2561 1.524 . S
C2562 C2563 1.415 . S
C2563 H2533 0.950 . S
C2563 C2558 1.363 . S
C2563 C2562 1.415 . S
H2564 C2561 0.999 . S
H2565 C2546 0.913 . S
H2566 C2584 0.951 . S
H2567 C2586 0.951 . S
H2568 C2588 0.950 . S
H2569 C2589 0.950 . S
H2570 C2591 0.950 . S
H2571 C2594 0.950 . S
H2572 C2595 0.950 . S
H2573 C2597 0.950 . S
H2574 C2598 0.950 . S
H2575 C2599 0.951 . S
H2576 C2601 0.951 . S
H2577 C2603 0.950 . S
H2578 C2604 0.950 . S
H2579 C2606 0.950 . S
H2580 C2609 0.950 . S
H2581 C2610 0.950 . S
H2582 C2612 0.950 . S
H2583 C2613 0.950 . S
C2584 H2566 0.951 . S
C2584 C2585 1.366 . S
C2584 C2586 1.388 . S
C2585 C2584 1.366 . S
C2585 C2589 1.385 . S
C2586 H2567 0.951 . S
C2586 C2584 1.388 . S
C2586 C2587 1.366 . S
C2587 C2586 1.366 . S
C2587 C2588 1.414 . S
C2587 C2590 1.499 . S
C2588 H2568 0.950 . S
C2588 C2587 1.414 . S
C2588 C2589 1.374 . S
C2589 H2569 0.950 . S
C2589 C2585 1.385 . S
C2589 C2588 1.374 . S
C2590 C2587 1.499 . S
C2590 C2591 1.373 . S
C2590 C2592 1.389 . S
C2591 H2570 0.950 . S
C2591 C2590 1.373 . S
C2591 C2607 1.377 . S
C2592 C2590 1.389 . S
C2592 C2593 1.524 . S
C2592 C2606 1.377 . S
C2593 C2592 1.524 . S
C2593 C2594 1.397 . S
C2593 C2598 1.363 . S
C2594 H2571 0.950 . S
C2594 C2593 1.397 . S
C2594 C2595 1.334 . S
C2595 H2572 0.950 . S
C2595 C2594 1.334 . S
C2595 C2596 1.287 . S
C2596 C2595 1.287 . S
C2596 C2597 1.524 . S
C2596 H2615 0.913 . S
C2597 H2573 0.950 . S
C2597 C2596 1.524 . S
C2597 C2598 1.415 . S
C2598 H2574 0.950 . S
C2598 C2593 1.363 . S
C2598 C2597 1.415 . S
C2599 H2575 0.951 . S
C2599 C2600 1.366 . S
C2599 C2601 1.388 . S
C2600 C2599 1.366 . S
C2600 C2604 1.385 . S
C2601 H2576 0.951 . S
C2601 C2599 1.388 . S
C2601 C2602 1.366 . S
C2602 C2601 1.366 . S
C2602 C2603 1.414 . S
C2602 C2605 1.499 . S
C2603 H2577 0.950 . S
C2603 C2602 1.414 . S
C2603 C2604 1.374 . S
C2604 H2578 0.950 . S
C2604 C2600 1.385 . S
C2604 C2603 1.374 . S
C2605 C2602 1.499 . S
C2605 C2606 1.373 . S
C2605 C2607 1.389 . S
C2606 H2579 0.950 . S
C2606 C2592 1.377 . S
C2606 C2605 1.373 . S
C2607 C2591 1.377 . S
C2607 C2605 1.389 . S
C2607 C2608 1.524 . S
C2608 C2607 1.524 . S
C2608 C2609 1.397 . S
C2608 C2613 1.363 . S
C2609 H2580 0.950 . S
C2609 C2608 1.397 . S
C2609 C2610 1.334 . S
C2610 H2581 0.950 . S
C2610 C2609 1.334 . S
C2610 C2611 1.287 . S
C2611 C2610 1.287 . S
C2611 C2612 1.524 . S
C2611 H2614 0.999 . S
C2612 H2582 0.950 . S
C2612 C2611 1.524 . S
C2612 C2613 1.415 . S
C2613 H2583 0.950 . S
C2613 C2608 1.363 . S
C2613 C2612 1.415 . S
H2614 C2611 0.999 . S
H2615 C2596 0.913 . S
H2616 C2634 0.951 . S
H2617 C2636 0.951 . S
H2618 C2638 0.950 . S
H2619 C2639 0.950 . S
H2620 C2641 0.950 . S
H2621 C2644 0.950 . S
H2622 C2645 0.950 . S
H2623 C2647 0.950 . S
H2624 C2648 0.950 . S
H2625 C2649 0.951 . S
H2626 C2651 0.951 . S
H2627 C2653 0.950 . S
H2628 C2654 0.950 . S
H2629 C2656 0.950 . S
H2630 C2659 0.950 . S
H2631 C2660 0.950 . S
H2632 C2662 0.950 . S
H2633 C2663 0.950 . S
C2634 H2616 0.951 . S
C2634 C2635 1.366 . S
C2634 C2636 1.388 . S
C2635 C2634 1.366 . S
C2635 C2639 1.385 . S
C2636 H2617 0.951 . S
C2636 C2634 1.388 . S
C2636 C2637 1.366 . S
C2637 C2636 1.366 . S
C2637 C2638 1.414 . S
C2637 C2640 1.499 . S
C2638 H2618 0.950 . S
C2638 C2637 1.414 . S
C2638 C2639 1.374 . S
C2639 H2619 0.950 . S
C2639 C2635 1.385 . S
C2639 C2638 1.374 . S
C2640 C2637 1.499 . S
C2640 C2641 1.373 . S
C2640 C2642 1.389 . S
C2641 H2620 0.950 . S
C2641 C2640 1.373 . S
C2641 C2657 1.377 . S
C2642 C2640 1.389 . S
C2642 C2643 1.524 . S
C2642 C2656 1.377 . S
C2643 C2642 1.524 . S
C2643 C2644 1.397 . S
C2643 C2648 1.363 . S
C2644 H2621 0.950 . S
C2644 C2643 1.397 . S
C2644 C2645 1.334 . S
C2645 H2622 0.950 . S
C2645 C2644 1.334 . S
C2645 C2646 1.287 . S
C2646 C2645 1.287 . S
C2646 C2647 1.524 . S
C2646 H2665 0.913 . S
C2647 H2623 0.950 . S
C2647 C2646 1.524 . S
C2647 C2648 1.415 . S
C2648 H2624 0.950 . S
C2648 C2643 1.363 . S
C2648 C2647 1.415 . S
C2649 H2625 0.951 . S
C2649 C2650 1.366 . S
C2649 C2651 1.388 . S
C2650 C2649 1.366 . S
C2650 C2654 1.385 . S
C2651 H2626 0.951 . S
C2651 C2649 1.388 . S
C2651 C2652 1.366 . S
C2652 C2651 1.366 . S
C2652 C2653 1.414 . S
C2652 C2655 1.499 . S
C2653 H2627 0.950 . S
C2653 C2652 1.414 . S
C2653 C2654 1.374 . S
C2654 H2628 0.950 . S
C2654 C2650 1.385 . S
C2654 C2653 1.374 . S
C2655 C2652 1.499 . S
C2655 C2656 1.373 . S
C2655 C2657 1.389 . S
C2656 H2629 0.950 . S
C2656 C2642 1.377 . S
C2656 C2655 1.373 . S
C2657 C2641 1.377 . S
C2657 C2655 1.389 . S
C2657 C2658 1.524 . S
C2658 C2657 1.524 . S
C2658 C2659 1.397 . S
C2658 C2663 1.363 . S
C2659 H2630 0.950 . S
C2659 C2658 1.397 . S
C2659 C2660 1.334 . S
C2660 H2631 0.950 . S
C2660 C2659 1.334 . S
C2660 C2661 1.287 . S
C2661 C2660 1.287 . S
C2661 C2662 1.524 . S
C2661 H2664 0.999 . S
C2662 H2632 0.950 . S
C2662 C2661 1.524 . S
C2662 C2663 1.415 . S
C2663 H2633 0.950 . S
C2663 C2658 1.363 . S
C2663 C2662 1.415 . S
H2664 C2661 0.999 . S
H2665 C2646 0.913 . S
H2666 C2684 0.951 . S
H2667 C2686 0.951 . S
H2668 C2688 0.950 . S
H2669 C2689 0.950 . S
H2670 C2691 0.950 . S
H2671 C2694 0.950 . S
H2672 C2695 0.950 . S
H2673 C2697 0.950 . S
H2674 C2698 0.950 . S
H2675 C2699 0.951 . S
H2676 C2701 0.951 . S
H2677 C2703 0.950 1_565 S
H2678 C2704 0.950 . S
H2679 C2706 0.950 . S
H2680 C2709 0.950 . S
H2681 C2710 0.950 . S
H2682 C2712 0.950 . S
H2683 C2713 0.950 . S
C2684 H2666 0.951 . S
C2684 C2685 1.366 . S
C2684 C2686 1.388 . S
C2685 C2684 1.366 . S
C2685 C2689 1.385 . S
C2686 H2667 0.951 . S
C2686 C2684 1.388 . S
C2686 C2687 1.366 . S
C2687 C2686 1.366 . S
C2687 C2688 1.414 . S
C2687 C2690 1.499 . S
C2688 H2668 0.950 . S
C2688 C2687 1.414 . S
C2688 C2689 1.374 . S
C2689 H2669 0.950 . S
C2689 C2685 1.385 . S
C2689 C2688 1.374 . S
C2690 C2687 1.499 . S
C2690 C2691 1.373 . S
C2690 C2692 1.389 . S
C2691 H2670 0.950 . S
C2691 C2690 1.373 . S
C2691 C2707 1.377 . S
C2692 C2690 1.389 . S
C2692 C2693 1.524 . S
C2692 C2706 1.377 . S
C2693 C2692 1.524 . S
C2693 C2694 1.397 . S
C2693 C2698 1.363 . S
C2694 H2671 0.950 . S
C2694 C2693 1.397 . S
C2694 C2695 1.334 . S
C2695 H2672 0.950 . S
C2695 C2694 1.334 . S
C2695 C2696 1.287 . S
C2696 C2695 1.287 . S
C2696 C2697 1.524 . S
C2696 H2715 0.913 . S
C2697 H2673 0.950 . S
C2697 C2696 1.524 . S
C2697 C2698 1.415 . S
C2698 H2674 0.950 . S
C2698 C2693 1.363 . S
C2698 C2697 1.415 . S
C2699 H2675 0.951 . S
C2699 C2700 1.366 . S
C2699 C2701 1.388 . S
C2700 C2699 1.366 . S
C2700 C2704 1.385 . S
C2701 H2676 0.951 . S
C2701 C2699 1.388 . S
C2701 C2702 1.366 . S
C2702 C2701 1.366 . S
C2702 C2703 1.414 . S
C2702 C2705 1.499 1_545 S
C2703 H2677 0.950 1_545 S
C2703 C2702 1.414 . S
C2703 C2704 1.374 . S
C2704 H2678 0.950 . S
C2704 C2700 1.385 . S
C2704 C2703 1.374 . S
C2705 C2702 1.499 1_565 S
C2705 C2706 1.373 . S
C2705 C2707 1.389 . S
C2706 H2679 0.950 . S
C2706 C2692 1.377 . S
C2706 C2705 1.373 . S
C2707 C2691 1.377 . S
C2707 C2705 1.389 . S
C2707 C2708 1.524 1_565 S
C2708 C2707 1.524 1_545 S
C2708 C2709 1.397 . S
C2708 C2713 1.363 . S
C2709 H2680 0.950 . S
C2709 C2708 1.397 . S
C2709 C2710 1.334 . S
C2710 H2681 0.950 . S
C2710 C2709 1.334 . S
C2710 C2711 1.287 . S
C2711 C2710 1.287 . S
C2711 C2712 1.524 . S
C2711 H2714 0.999 . S
C2712 H2682 0.950 . S
C2712 C2711 1.524 . S
C2712 C2713 1.415 . S
C2713 H2683 0.950 . S
C2713 C2708 1.363 . S
C2713 C2712 1.415 . S
H2714 C2711 0.999 . S
H2715 C2696 0.913 . S
H2716 C2734 0.951 . S
H2717 C2736 0.951 . S
H2718 C2738 0.950 . S
H2719 C2739 0.950 . S
H2720 C2741 0.950 . S
H2721 C2744 0.950 . S
H2722 C2745 0.950 . S
H2723 C2747 0.950 . S
H2724 C2748 0.950 . S
H2725 C2749 0.951 . S
H2726 C2751 0.951 . S
H2727 C2753 0.950 . S
H2728 C2754 0.950 . S
H2729 C2756 0.950 . S
H2730 C2759 0.950 . S
H2731 C2760 0.950 . S
H2732 C2762 0.950 . S
H2733 C2763 0.950 . S
C2734 H2716 0.951 . S
C2734 C2735 1.366 . S
C2734 C2736 1.388 . S
C2735 C2734 1.366 . S
C2735 C2739 1.385 . S
C2736 H2717 0.951 . S
C2736 C2734 1.388 . S
C2736 C2737 1.366 . S
C2737 C2736 1.366 . S
C2737 C2738 1.414 . S
C2737 C2740 1.499 . S
C2738 H2718 0.950 . S
C2738 C2737 1.414 . S
C2738 C2739 1.374 . S
C2739 H2719 0.950 . S
C2739 C2735 1.385 . S
C2739 C2738 1.374 . S
C2740 C2737 1.499 . S
C2740 C2741 1.373 . S
C2740 C2742 1.389 . S
C2741 H2720 0.950 . S
C2741 C2740 1.373 . S
C2741 C2757 1.377 . S
C2742 C2740 1.389 . S
C2742 C2743 1.524 . S
C2742 C2756 1.377 . S
C2743 C2742 1.524 . S
C2743 C2744 1.397 . S
C2743 C2748 1.363 . S
C2744 H2721 0.950 . S
C2744 C2743 1.397 . S
C2744 C2745 1.334 . S
C2745 H2722 0.950 . S
C2745 C2744 1.334 . S
C2745 C2746 1.287 . S
C2746 C2745 1.287 . S
C2746 C2747 1.524 . S
C2746 H2765 0.913 . S
C2747 H2723 0.950 . S
C2747 C2746 1.524 . S
C2747 C2748 1.415 . S
C2748 H2724 0.950 . S
C2748 C2743 1.363 . S
C2748 C2747 1.415 . S
C2749 H2725 0.951 . S
C2749 C2750 1.366 . S
C2749 C2751 1.388 . S
C2750 C2749 1.366 . S
C2750 C2754 1.385 . S
C2751 H2726 0.951 . S
C2751 C2749 1.388 . S
C2751 C2752 1.366 . S
C2752 C2751 1.366 . S
C2752 C2753 1.414 . S
C2752 C2755 1.499 . S
C2753 H2727 0.950 . S
C2753 C2752 1.414 . S
C2753 C2754 1.374 . S
C2754 H2728 0.950 . S
C2754 C2750 1.385 . S
C2754 C2753 1.374 . S
C2755 C2752 1.499 . S
C2755 C2756 1.373 . S
C2755 C2757 1.389 . S
C2756 H2729 0.950 . S
C2756 C2742 1.377 . S
C2756 C2755 1.373 . S
C2757 C2741 1.377 . S
C2757 C2755 1.389 . S
C2757 C2758 1.524 . S
C2758 C2757 1.524 . S
C2758 C2759 1.397 . S
C2758 C2763 1.363 . S
C2759 H2730 0.950 . S
C2759 C2758 1.397 . S
C2759 C2760 1.334 . S
C2760 H2731 0.950 . S
C2760 C2759 1.334 . S
C2760 C2761 1.287 . S
C2761 C2760 1.287 . S
C2761 C2762 1.524 . S
C2761 H2764 0.999 . S
C2762 H2732 0.950 . S
C2762 C2761 1.524 . S
C2762 C2763 1.415 . S
C2763 H2733 0.950 . S
C2763 C2758 1.363 . S
C2763 C2762 1.415 . S
H2764 C2761 0.999 . S
H2765 C2746 0.913 . S
H2766 C2784 0.951 1_556 S
H2767 C2786 0.951 . S
H2768 C2788 0.985 . S
H2769 C2789 0.950 . S
H2770 C2791 0.950 1_554 S
H2771 C2794 0.950 1_554 S
H2772 C2795 0.952 1_554 S
H2773 C2797 0.950 . S
H2774 C2798 0.950 . S
H2775 C2799 0.951 . S
H2776 C2801 0.951 . S
H2777 C2803 0.950 . S
H2778 C2804 0.950 . S
H2779 C2806 0.950 . S
H2780 C2809 0.950 . S
H2781 C2810 0.950 . S
H2782 C2812 0.950 . S
H2783 C2813 0.950 . S
C2784 H2766 0.951 1_554 S
C2784 C2785 1.366 . S
C2784 C2786 1.388 1_554 S
C2785 C2784 1.366 . S
C2785 C2789 1.385 . S
C2786 H2767 0.951 . S
C2786 C2784 1.388 1_556 S
C2786 C2787 1.366 1_556 S
C2787 C2786 1.366 1_554 S
C2787 C2788 1.414 . S
C2787 C2790 1.499 1_564 S
C2788 H2768 0.985 . S
C2788 C2787 1.414 . S
C2788 C2789 1.374 . S
C2789 H2769 0.950 . S
C2789 C2785 1.385 . S
C2789 C2788 1.374 . S
C2790 C2787 1.499 1_546 S
C2790 C2791 1.373 . S
C2790 C2792 1.389 . S
C2791 H2770 0.950 1_556 S
C2791 C2790 1.373 . S
C2791 C2807 1.377 . S
C2792 C2790 1.389 . S
C2792 C2793 1.524 . S
C2792 C2806 1.377 . S
C2793 C2792 1.524 . S
C2793 C2794 1.397 . S
C2793 C2798 1.363 . S
C2794 H2771 0.950 1_556 S
C2794 C2793 1.397 . S
C2794 C2795 1.331 1_545 S
C2795 H2772 0.952 1_556 S
C2795 C2794 1.331 1_565 S
C2795 C2796 1.288 . S
C2796 C2795 1.288 . S
C2796 C2797 1.524 . S
C2796 H2815 0.913 . S
C2797 H2773 0.950 . S
C2797 C2796 1.524 . S
C2797 C2798 1.415 1_565 S
C2798 H2774 0.950 . S
C2798 C2793 1.363 . S
C2798 C2797 1.415 1_545 S
C2799 H2775 0.951 . S
C2799 C2800 1.366 . S
C2799 C2801 1.388 . S
C2800 C2799 1.366 . S
C2800 C2804 1.385 . S
C2801 H2776 0.951 . S
C2801 C2799 1.388 . S
C2801 C2802 1.366 . S
C2802 C2801 1.366 . S
C2802 C2803 1.414 . S
C2802 C2805 1.499 . S
C2803 H2777 0.950 . S
C2803 C2802 1.414 . S
C2803 C2804 1.374 . S
C2804 H2778 0.950 . S
C2804 C2800 1.385 . S
C2804 C2803 1.374 . S
C2805 C2802 1.499 . S
C2805 C2806 1.373 . S
C2805 C2807 1.389 . S
C2806 H2779 0.950 . S
C2806 C2792 1.377 . S
C2806 C2805 1.373 . S
C2807 C2791 1.377 . S
C2807 C2805 1.389 . S
C2807 C2808 1.524 . S
C2808 C2807 1.524 . S
C2808 C2809 1.397 . S
C2808 C2813 1.363 1_556 S
C2809 H2780 0.950 . S
C2809 C2808 1.397 . S
C2809 C2810 1.334 . S
C2810 H2781 0.950 . S
C2810 C2809 1.334 . S
C2810 C2811 1.287 . S
C2811 C2810 1.287 . S
C2811 C2812 1.524 1_556 S
C2811 H2814 0.999 . S
C2812 H2782 0.950 . S
C2812 C2811 1.524 1_554 S
C2812 C2813 1.415 . S
C2813 H2783 0.950 . S
C2813 C2808 1.363 1_554 S
C2813 C2812 1.415 . S
H2814 C2811 0.999 . S
H2815 C2796 0.913 . S
H2816 C2834 0.951 . S
H2817 C2836 0.951 . S
H2818 C2838 0.950 . S
H2819 C2839 0.950 . S
H2820 C2841 0.950 . S
H2821 C2844 0.950 . S
H2822 C2845 0.950 . S
H2823 C2847 0.950 . S
H2824 C2848 0.950 . S
H2825 C2849 0.951 . S
H2826 C2851 0.951 . S
H2827 C2853 0.950 . S
H2828 C2854 0.950 . S
H2829 C2856 0.950 . S
H2830 C2859 0.950 . S
H2831 C2860 0.950 . S
H2832 C2862 0.950 . S
H2833 C2863 0.950 . S
C2834 H2816 0.951 . S
C2834 C2835 1.366 . S
C2834 C2836 1.388 . S
C2835 C2834 1.366 . S
C2835 C2839 1.385 . S
C2836 H2817 0.951 . S
C2836 C2834 1.388 . S
C2836 C2837 1.366 . S
C2837 C2836 1.366 . S
C2837 C2838 1.414 . S
C2837 C2840 1.499 . S
C2838 H2818 0.950 . S
C2838 C2837 1.414 . S
C2838 C2839 1.374 . S
C2839 H2819 0.950 . S
C2839 C2835 1.385 . S
C2839 C2838 1.374 . S
C2840 C2837 1.499 . S
C2840 C2841 1.373 . S
C2840 C2842 1.389 . S
C2841 H2820 0.950 . S
C2841 C2840 1.373 . S
C2841 C2857 1.377 . S
C2842 C2840 1.389 . S
C2842 C2843 1.524 . S
C2842 C2856 1.377 . S
C2843 C2842 1.524 . S
C2843 C2844 1.397 . S
C2843 C2848 1.363 . S
C2844 H2821 0.950 . S
C2844 C2843 1.397 . S
C2844 C2845 1.334 . S
C2845 H2822 0.950 . S
C2845 C2844 1.334 . S
C2845 C2846 1.287 . S
C2846 C2845 1.287 . S
C2846 C2847 1.524 . S
C2846 H2865 0.913 . S
C2847 H2823 0.950 . S
C2847 C2846 1.524 . S
C2847 C2848 1.415 . S
C2848 H2824 0.950 . S
C2848 C2843 1.363 . S
C2848 C2847 1.415 . S
C2849 H2825 0.951 . S
C2849 C2850 1.366 . S
C2849 C2851 1.388 . S
C2850 C2849 1.366 . S
C2850 C2854 1.385 . S
C2851 H2826 0.951 . S
C2851 C2849 1.388 . S
C2851 C2852 1.366 . S
C2852 C2851 1.366 . S
C2852 C2853 1.414 . S
C2852 C2855 1.499 . S
C2853 H2827 0.950 . S
C2853 C2852 1.414 . S
C2853 C2854 1.374 . S
C2854 H2828 0.950 . S
C2854 C2850 1.385 . S
C2854 C2853 1.374 . S
C2855 C2852 1.499 . S
C2855 C2856 1.373 . S
C2855 C2857 1.389 . S
C2856 H2829 0.950 . S
C2856 C2842 1.377 . S
C2856 C2855 1.373 . S
C2857 C2841 1.377 . S
C2857 C2855 1.389 . S
C2857 C2858 1.524 . S
C2858 C2857 1.524 . S
C2858 C2859 1.397 . S
C2858 C2863 1.363 . S
C2859 H2830 0.950 . S
C2859 C2858 1.397 . S
C2859 C2860 1.334 . S
C2860 H2831 0.950 . S
C2860 C2859 1.334 . S
C2860 C2861 1.287 . S
C2861 C2860 1.287 . S
C2861 C2862 1.524 . S
C2861 H2864 0.999 . S
C2862 H2832 0.950 . S
C2862 C2861 1.524 . S
C2862 C2863 1.415 . S
C2863 H2833 0.950 . S
C2863 C2858 1.363 . S
C2863 C2862 1.415 . S
H2864 C2861 0.999 . S
H2865 C2846 0.913 . S
H2866 C2884 0.951 . S
H2867 C2886 0.951 . S
H2868 C2888 0.950 . S
H2869 C2889 0.950 . S
H2870 C2891 0.950 . S
H2871 C2894 0.950 . S
H2872 C2895 0.950 . S
H2873 C2897 0.950 . S
H2874 C2898 0.950 . S
H2875 C2899 0.951 . S
H2876 C2901 0.951 . S
H2877 C2903 0.950 . S
H2878 C2904 0.950 . S
H2879 C2906 0.950 . S
H2880 C2909 0.950 . S
H2881 C2910 0.950 . S
H2882 C2912 0.950 . S
H2883 C2913 0.950 . S
C2884 H2866 0.951 . S
C2884 C2885 1.366 . S
C2884 C2886 1.388 . S
C2885 C2884 1.366 . S
C2885 C2889 1.385 . S
C2886 H2867 0.951 . S
C2886 C2884 1.388 . S
C2886 C2887 1.366 . S
C2887 C2886 1.366 . S
C2887 C2888 1.414 . S
C2887 C2890 1.499 . S
C2888 H2868 0.950 . S
C2888 C2887 1.414 . S
C2888 C2889 1.374 . S
C2889 H2869 0.950 . S
C2889 C2885 1.385 . S
C2889 C2888 1.374 . S
C2890 C2887 1.499 . S
C2890 C2891 1.373 . S
C2890 C2892 1.389 . S
C2891 H2870 0.950 . S
C2891 C2890 1.373 . S
C2891 C2907 1.377 . S
C2892 C2890 1.389 . S
C2892 C2893 1.524 . S
C2892 C2906 1.377 . S
C2893 C2892 1.524 . S
C2893 C2894 1.397 . S
C2893 C2898 1.363 . S
C2894 H2871 0.950 . S
C2894 C2893 1.397 . S
C2894 C2895 1.334 . S
C2895 H2872 0.950 . S
C2895 C2894 1.334 . S
C2895 C2896 1.287 . S
C2896 C2895 1.287 . S
C2896 C2897 1.524 . S
C2896 H2915 0.913 . S
C2897 H2873 0.950 . S
C2897 C2896 1.524 . S
C2897 C2898 1.415 . S
C2898 H2874 0.950 . S
C2898 C2893 1.363 . S
C2898 C2897 1.415 . S
C2899 H2875 0.951 . S
C2899 C2900 1.366 . S
C2899 C2901 1.388 . S
C2900 C2899 1.366 . S
C2900 C2904 1.385 . S
C2901 H2876 0.951 . S
C2901 C2899 1.388 . S
C2901 C2902 1.366 . S
C2902 C2901 1.366 . S
C2902 C2903 1.414 . S
C2902 C2905 1.499 . S
C2903 H2877 0.950 . S
C2903 C2902 1.414 . S
C2903 C2904 1.374 . S
C2904 H2878 0.950 . S
C2904 C2900 1.385 . S
C2904 C2903 1.374 . S
C2905 C2902 1.499 . S
C2905 C2906 1.373 . S
C2905 C2907 1.389 . S
C2906 H2879 0.950 . S
C2906 C2892 1.377 . S
C2906 C2905 1.373 . S
C2907 C2891 1.377 . S
C2907 C2905 1.389 . S
C2907 C2908 1.524 . S
C2908 C2907 1.524 . S
C2908 C2909 1.397 . S
C2908 C2913 1.363 . S
C2909 H2880 0.950 . S
C2909 C2908 1.397 . S
C2909 C2910 1.334 . S
C2910 H2881 0.950 . S
C2910 C2909 1.334 . S
C2910 C2911 1.287 . S
C2911 C2910 1.287 . S
C2911 C2912 1.524 . S
C2911 H2914 0.999 . S
C2912 H2882 0.950 . S
C2912 C2911 1.524 . S
C2912 C2913 1.415 . S
C2913 H2883 0.950 . S
C2913 C2908 1.363 . S
C2913 C2912 1.415 . S
H2914 C2911 0.999 . S
H2915 C2896 0.913 . S
H2916 C2934 0.951 . S
H2917 C2936 0.951 . S
H2918 C2938 0.950 . S
H2919 C2939 0.950 . S
H2920 C2941 0.950 . S
H2921 C2944 0.950 . S
H2922 C2945 0.950 . S
H2923 C2947 0.950 . S
H2924 C2948 0.950 . S
H2925 C2949 0.951 . S
H2926 C2951 0.951 . S
H2927 C2953 0.950 . S
H2928 C2954 0.950 . S
H2929 C2956 0.950 . S
H2930 C2959 0.950 . S
H2931 C2960 0.950 . S
H2932 C2962 0.950 . S
H2933 C2963 0.972 . S
C2934 H2916 0.951 . S
C2934 C2935 1.366 . S
C2934 C2936 1.388 . S
C2935 C2934 1.366 . S
C2935 C2939 1.385 . S
C2936 H2917 0.951 . S
C2936 C2934 1.388 . S
C2936 C2937 1.366 . S
C2937 C2936 1.366 . S
C2937 C2938 1.414 . S
C2937 C2940 1.499 . S
C2938 H2918 0.950 . S
C2938 C2937 1.414 . S
C2938 C2939 1.374 . S
C2939 H2919 0.950 . S
C2939 C2935 1.385 . S
C2939 C2938 1.374 . S
C2940 C2937 1.499 . S
C2940 C2941 1.373 . S
C2940 C2942 1.389 . S
C2941 H2920 0.950 . S
C2941 C2940 1.373 . S
C2941 C2957 1.377 . S
C2942 C2940 1.389 . S
C2942 C2943 1.524 . S
C2942 C2956 1.377 . S
C2943 C2942 1.524 . S
C2943 C2944 1.397 . S
C2943 C2948 1.363 . S
C2944 H2921 0.950 . S
C2944 C2943 1.397 . S
C2944 C2945 1.334 . S
C2945 H2922 0.950 . S
C2945 C2944 1.334 . S
C2945 C2946 1.287 . S
C2946 C2945 1.287 . S
C2946 C2947 1.524 . S
C2946 H2965 0.913 . S
C2947 H2923 0.950 . S
C2947 C2946 1.524 . S
C2947 C2948 1.415 . S
C2948 H2924 0.950 . S
C2948 C2943 1.363 . S
C2948 C2947 1.415 . S
C2949 H2925 0.951 . S
C2949 C2950 1.366 . S
C2949 C2951 1.388 . S
C2950 C2949 1.366 . S
C2950 C2954 1.385 . S
C2951 H2926 0.951 . S
C2951 C2949 1.388 . S
C2951 C2952 1.366 . S
C2952 C2951 1.366 . S
C2952 C2953 1.414 1_565 S
C2952 C2955 1.499 1_565 S
C2953 H2927 0.950 . S
C2953 C2952 1.414 1_545 S
C2953 C2954 1.374 1_545 S
C2954 H2928 0.950 . S
C2954 C2950 1.385 . S
C2954 C2953 1.374 1_565 S
C2955 C2952 1.499 1_545 S
C2955 C2956 1.373 . S
C2955 C2957 1.389 . S
C2956 H2929 0.950 . S
C2956 C2942 1.377 . S
C2956 C2955 1.373 . S
C2957 C2941 1.377 . S
C2957 C2955 1.389 . S
C2957 C2958 1.524 . S
C2958 C2957 1.524 . S
C2958 C2959 1.397 . S
C2958 C2963 1.339 1_545 S
C2959 H2930 0.950 . S
C2959 C2958 1.397 . S
C2959 C2960 1.334 . S
C2960 H2931 0.950 . S
C2960 C2959 1.334 . S
C2960 C2961 1.287 . S
C2961 C2960 1.287 . S
C2961 C2962 1.524 1_545 S
C2961 H2964 0.999 . S
C2962 H2932 0.950 . S
C2962 C2961 1.524 1_565 S
C2962 C2963 1.421 . S
C2963 H2933 0.972 . S
C2963 C2958 1.339 1_565 S
C2963 C2962 1.421 . S
H2964 C2961 0.999 . S
H2965 C2946 0.913 . S
H2966 C2984 0.951 . S
H2967 C2986 0.951 . S
H2968 C2988 0.950 . S
H2969 C2989 0.950 . S
H2970 C2991 0.950 . S
H2971 C2994 0.950 . S
H2972 C2995 0.950 . S
H2973 C2997 0.950 . S
H2974 C2998 0.950 . S
H2975 C2999 0.951 . S
H2976 C3001 0.951 . S
H2977 C3003 0.950 . S
H2978 C3004 0.950 . S
H2979 C3006 0.950 . S
H2980 C3009 0.950 . S
H2981 C3010 0.950 . S
H2982 C3012 0.950 . S
H2983 C3013 0.950 . S
C2984 H2966 0.951 . S
C2984 C2985 1.366 . S
C2984 C2986 1.388 . S
C2985 C2984 1.366 . S
C2985 C2989 1.385 . S
C2986 H2967 0.951 . S
C2986 C2984 1.388 . S
C2986 C2987 1.366 . S
C2987 C2986 1.366 . S
C2987 C2988 1.414 . S
C2987 C2990 1.499 . S
C2988 H2968 0.950 . S
C2988 C2987 1.414 . S
C2988 C2989 1.374 . S
C2989 H2969 0.950 . S
C2989 C2985 1.385 . S
C2989 C2988 1.374 . S
C2990 C2987 1.499 . S
C2990 C2991 1.373 . S
C2990 C2992 1.389 . S
C2991 H2970 0.950 . S
C2991 C2990 1.373 . S
C2991 C3007 1.377 . S
C2992 C2990 1.389 . S
C2992 C2993 1.524 . S
C2992 C3006 1.377 . S
C2993 C2992 1.524 . S
C2993 C2994 1.397 . S
C2993 C2998 1.363 . S
C2994 H2971 0.950 . S
C2994 C2993 1.397 . S
C2994 C2995 1.334 . S
C2995 H2972 0.950 . S
C2995 C2994 1.334 . S
C2995 C2996 1.287 . S
C2996 C2995 1.287 . S
C2996 C2997 1.524 . S
C2996 H3015 0.913 . S
C2997 H2973 0.950 . S
C2997 C2996 1.524 . S
C2997 C2998 1.415 . S
C2998 H2974 0.950 . S
C2998 C2993 1.363 . S
C2998 C2997 1.415 . S
C2999 H2975 0.951 . S
C2999 C3000 1.366 . S
C2999 C3001 1.388 . S
C3000 C2999 1.366 . S
C3000 C3004 1.385 . S
C3001 H2976 0.951 . S
C3001 C2999 1.388 . S
C3001 C3002 1.366 . S
C3002 C3001 1.366 . S
C3002 C3003 1.414 . S
C3002 C3005 1.499 . S
C3003 H2977 0.950 . S
C3003 C3002 1.414 . S
C3003 C3004 1.374 . S
C3004 H2978 0.950 . S
C3004 C3000 1.385 . S
C3004 C3003 1.374 . S
C3005 C3002 1.499 . S
C3005 C3006 1.373 . S
C3005 C3007 1.389 . S
C3006 H2979 0.950 . S
C3006 C2992 1.377 . S
C3006 C3005 1.373 . S
C3007 C2991 1.377 . S
C3007 C3005 1.389 . S
C3007 C3008 1.524 . S
C3008 C3007 1.524 . S
C3008 C3009 1.397 . S
C3008 C3013 1.363 . S
C3009 H2980 0.950 . S
C3009 C3008 1.397 . S
C3009 C3010 1.334 . S
C3010 H2981 0.950 . S
C3010 C3009 1.334 . S
C3010 C3011 1.287 . S
C3011 C3010 1.287 . S
C3011 C3012 1.524 . S
C3011 H3014 0.999 . S
C3012 H2982 0.950 . S
C3012 C3011 1.524 . S
C3012 C3013 1.415 . S
C3013 H2983 0.950 . S
C3013 C3008 1.363 . S
C3013 C3012 1.415 . S
H3014 C3011 0.999 . S
H3015 C2996 0.913 . S
H3016 C3034 0.951 . S
H3017 C3036 0.951 . S
H3018 C3038 0.950 1_565 S
H3019 C3039 0.950 . S
H3020 C3041 0.950 1_655 S
H3021 C3044 0.950 . S
H3022 C3045 0.950 . S
H3023 C3047 0.950 . S
H3024 C3048 0.950 . S
H3025 C3049 0.951 . S
H3026 C3051 0.951 . S
H3027 C3053 0.950 . S
H3028 C3054 0.950 . S
H3029 C3056 0.935 1_545 S
H3030 C3059 0.950 . S
H3031 C3060 0.950 . S
H3032 C3062 0.950 . S
H3033 C3063 0.950 . S
C3034 H3016 0.951 . S
C3034 C3035 1.366 . S
C3034 C3036 1.388 . S
C3035 C3034 1.366 . S
C3035 C3039 1.385 . S
C3036 H3017 0.951 . S
C3036 C3034 1.388 . S
C3036 C3037 1.366 . S
C3037 C3036 1.366 . S
C3037 C3038 1.414 . S
C3037 C3040 1.499 1_645 S
C3038 H3018 0.950 1_545 S
C3038 C3037 1.414 . S
C3038 C3039 1.374 . S
C3039 H3019 0.950 . S
C3039 C3035 1.385 . S
C3039 C3038 1.374 . S
C3040 C3037 1.499 1_465 S
C3040 C3041 1.373 . S
C3040 C3042 1.389 1_565 S
C3041 H3020 0.950 1_455 S
C3041 C3040 1.373 . S
C3041 C3057 1.377 . S
C3042 C3040 1.389 1_545 S
C3042 C3043 1.524 . S
C3042 C3056 1.377 1_545 S
C3043 C3042 1.524 . S
C3043 C3044 1.397 . S
C3043 C3048 1.363 . S
C3044 H3021 0.950 . S
C3044 C3043 1.397 . S
C3044 C3045 1.334 . S
C3045 H3022 0.950 . S
C3045 C3044 1.334 . S
C3045 C3046 1.287 . S
C3046 C3045 1.287 . S
C3046 C3047 1.524 . S
C3046 H3065 0.913 . S
C3047 H3023 0.950 . S
C3047 C3046 1.524 . S
C3047 C3048 1.415 . S
C3048 H3024 0.950 . S
C3048 C3043 1.363 . S
C3048 C3047 1.415 . S
C3049 H3025 0.951 . S
C3049 C3050 1.366 . S
C3049 C3051 1.388 . S
C3050 C3049 1.366 . S
C3050 C3054 1.385 . S
C3051 H3026 0.951 . S
C3051 C3049 1.388 . S
C3051 C3052 1.366 . S
C3052 C3051 1.366 . S
C3052 C3053 1.414 . S
C3052 C3055 1.499 . S
C3053 H3027 0.950 . S
C3053 C3052 1.414 . S
C3053 C3054 1.374 . S
C3054 H3028 0.950 . S
C3054 C3050 1.385 . S
C3054 C3053 1.374 . S
C3055 C3052 1.499 . S
C3055 C3056 1.373 . S
C3055 C3057 1.389 . S
C3056 H3029 0.935 1_565 S
C3056 C3042 1.377 1_565 S
C3056 C3055 1.373 . S
C3057 C3041 1.377 . S
C3057 C3055 1.389 . S
C3057 C3058 1.524 . S
C3058 C3057 1.524 . S
C3058 C3059 1.397 . S
C3058 C3063 1.363 . S
C3059 H3030 0.950 . S
C3059 C3058 1.397 . S
C3059 C3060 1.334 . S
C3060 H3031 0.950 . S
C3060 C3059 1.334 . S
C3060 C3061 1.287 . S
C3061 C3060 1.287 . S
C3061 C3062 1.524 . S
C3061 H3064 0.999 . S
C3062 H3032 0.950 . S
C3062 C3061 1.524 . S
C3062 C3063 1.415 . S
C3063 H3033 0.950 . S
C3063 C3058 1.363 . S
C3063 C3062 1.415 . S
H3064 C3061 0.999 . S
H3065 C3046 0.913 . S
H3066 C3084 0.951 . S
H3067 C3086 0.951 . S
H3068 C3088 0.950 . S
H3069 C3089 0.950 . S
H3070 C3091 0.950 . S
H3071 C3094 0.950 . S
H3072 C3095 0.950 . S
H3073 C3097 0.950 . S
H3074 C3098 0.950 . S
H3075 C3099 0.951 . S
H3076 C3101 0.951 . S
H3077 C3103 0.950 . S
H3078 C3104 0.950 . S
H3079 C3106 0.950 . S
H3080 C3109 0.950 . S
H3081 C3110 0.950 . S
H3082 C3112 0.950 . S
H3083 C3113 0.950 . S
C3084 H3066 0.951 . S
C3084 C3085 1.366 . S
C3084 C3086 1.388 . S
C3085 C3084 1.366 . S
C3085 C3089 1.385 . S
C3086 H3067 0.951 . S
C3086 C3084 1.388 . S
C3086 C3087 1.366 . S
C3087 C3086 1.366 . S
C3087 C3088 1.414 . S
C3087 C3090 1.499 . S
C3088 H3068 0.950 . S
C3088 C3087 1.414 . S
C3088 C3089 1.374 . S
C3089 H3069 0.950 . S
C3089 C3085 1.385 . S
C3089 C3088 1.374 . S
C3090 C3087 1.499 . S
C3090 C3091 1.373 . S
C3090 C3092 1.389 . S
C3091 H3070 0.950 . S
C3091 C3090 1.373 . S
C3091 C3107 1.377 . S
C3092 C3090 1.389 . S
C3092 C3093 1.524 . S
C3092 C3106 1.377 . S
C3093 C3092 1.524 . S
C3093 C3094 1.397 . S
C3093 C3098 1.363 . S
C3094 H3071 0.950 . S
C3094 C3093 1.397 . S
C3094 C3095 1.334 . S
C3095 H3072 0.950 . S
C3095 C3094 1.334 . S
C3095 C3096 1.287 . S
C3096 C3095 1.287 . S
C3096 C3097 1.524 . S
C3096 H3115 0.913 . S
C3097 H3073 0.950 . S
C3097 C3096 1.524 . S
C3097 C3098 1.415 . S
C3098 H3074 0.950 . S
C3098 C3093 1.363 . S
C3098 C3097 1.415 . S
C3099 H3075 0.951 . S
C3099 C3100 1.366 . S
C3099 C3101 1.388 . S
C3100 C3099 1.366 . S
C3100 C3104 1.385 . S
C3101 H3076 0.951 . S
C3101 C3099 1.388 . S
C3101 C3102 1.366 . S
C3102 C3101 1.366 . S
C3102 C3103 1.414 . S
C3102 C3105 1.499 . S
C3103 H3077 0.950 . S
C3103 C3102 1.414 . S
C3103 C3104 1.374 . S
C3104 H3078 0.950 . S
C3104 C3100 1.385 . S
C3104 C3103 1.374 . S
C3105 C3102 1.499 . S
C3105 C3106 1.373 . S
C3105 C3107 1.389 . S
C3106 H3079 0.950 . S
C3106 C3092 1.377 . S
C3106 C3105 1.373 . S
C3107 C3091 1.377 . S
C3107 C3105 1.389 . S
C3107 C3108 1.524 . S
C3108 C3107 1.524 . S
C3108 C3109 1.397 . S
C3108 C3113 1.363 . S
C3109 H3080 0.950 . S
C3109 C3108 1.397 . S
C3109 C3110 1.334 . S
C3110 H3081 0.950 . S
C3110 C3109 1.334 . S
C3110 C3111 1.287 . S
C3111 C3110 1.287 . S
C3111 C3112 1.524 . S
C3111 H3114 0.999 . S
C3112 H3082 0.950 . S
C3112 C3111 1.524 . S
C3112 C3113 1.415 . S
C3113 H3083 0.950 . S
C3113 C3108 1.363 . S
C3113 C3112 1.415 . S
H3114 C3111 0.999 . S
H3115 C3096 0.913 . S
H3116 C3134 0.951 . S
H3117 C3136 0.951 1_655 S
H3118 C3138 0.950 . S
H3119 C3139 0.950 . S
H3120 C3141 0.950 . S
H3121 C3144 0.950 1_455 S
H3122 C3145 0.950 . S
H3123 C3147 0.950 . S
H3124 C3148 0.950 . S
H3125 C3149 0.951 . S
H3126 C3151 0.951 . S
H3127 C3153 0.950 . S
H3128 C3154 0.950 . S
H3129 C3156 0.950 . S
H3130 C3159 0.950 . S
H3131 C3160 0.950 . S
H3132 C3162 0.950 . S
H3133 C3163 0.950 . S
C3134 H3116 0.951 . S
C3134 C3135 1.366 . S
C3134 C3136 1.388 . S
C3135 C3134 1.366 . S
C3135 C3139 1.385 . S
C3136 H3117 0.951 1_455 S
C3136 C3134 1.388 . S
C3136 C3137 1.366 . S
C3137 C3136 1.366 . S
C3137 C3138 1.414 . S
C3137 C3140 1.499 1_455 S
C3138 H3118 0.950 . S
C3138 C3137 1.414 . S
C3138 C3139 1.374 . S
C3139 H3119 0.950 . S
C3139 C3135 1.385 . S
C3139 C3138 1.374 . S
C3140 C3137 1.499 1_655 S
C3140 C3141 1.373 . S
C3140 C3142 1.389 . S
C3141 H3120 0.950 . S
C3141 C3140 1.373 . S
C3141 C3157 1.377 . S
C3142 C3140 1.389 . S
C3142 C3143 1.524 . S
C3142 C3156 1.377 . S
C3143 C3142 1.524 . S
C3143 C3144 1.397 . S
C3143 C3148 1.363 . S
C3144 H3121 0.950 1_655 S
C3144 C3143 1.397 . S
C3144 C3145 1.334 1_655 S
C3145 H3122 0.950 . S
C3145 C3144 1.334 1_455 S
C3145 C3146 1.287 1_455 S
C3146 C3145 1.287 1_655 S
C3146 C3147 1.524 . S
C3146 H3165 0.913 . S
C3147 H3123 0.950 . S
C3147 C3146 1.524 . S
C3147 C3148 1.415 . S
C3148 H3124 0.950 . S
C3148 C3143 1.363 . S
C3148 C3147 1.415 . S
C3149 H3125 0.951 . S
C3149 C3150 1.366 . S
C3149 C3151 1.388 . S
C3150 C3149 1.366 . S
C3150 C3154 1.385 . S
C3151 H3126 0.951 . S
C3151 C3149 1.388 . S
C3151 C3152 1.366 . S
C3152 C3151 1.366 . S
C3152 C3153 1.414 . S
C3152 C3155 1.499 . S
C3153 H3127 0.950 . S
C3153 C3152 1.414 . S
C3153 C3154 1.374 . S
C3154 H3128 0.950 . S
C3154 C3150 1.385 . S
C3154 C3153 1.374 . S
C3155 C3152 1.499 . S
C3155 C3156 1.373 . S
C3155 C3157 1.389 . S
C3156 H3129 0.950 . S
C3156 C3142 1.377 . S
C3156 C3155 1.373 . S
C3157 C3141 1.377 . S
C3157 C3155 1.389 . S
C3157 C3158 1.524 . S
C3158 C3157 1.524 . S
C3158 C3159 1.397 . S
C3158 C3163 1.363 . S
C3159 H3130 0.950 . S
C3159 C3158 1.397 . S
C3159 C3160 1.334 . S
C3160 H3131 0.950 . S
C3160 C3159 1.334 . S
C3160 C3161 1.287 . S
C3161 C3160 1.287 . S
C3161 C3162 1.524 . S
C3161 H3164 0.999 . S
C3162 H3132 0.950 . S
C3162 C3161 1.524 . S
C3162 C3163 1.415 . S
C3163 H3133 0.950 . S
C3163 C3158 1.363 . S
C3163 C3162 1.415 . S
H3164 C3161 0.999 . S
H3165 C3146 0.913 . S
H3166 C3184 0.951 . S
H3167 C3186 0.951 . S
H3168 C3188 0.950 . S
H3169 C3189 0.950 . S
H3170 C3191 0.950 . S
H3171 C3194 0.950 . S
H3172 C3195 0.950 . S
H3173 C3197 0.950 . S
H3174 C3198 0.950 . S
H3175 C3199 0.951 . S
H3176 C3201 0.951 . S
H3177 C3203 0.950 . S
H3178 C3204 0.950 . S
H3179 C3206 0.950 . S
H3180 C3209 0.950 . S
H3181 C3210 0.950 . S
H3182 C3212 0.950 . S
H3183 C3213 0.950 . S
C3184 H3166 0.951 . S
C3184 C3185 1.366 . S
C3184 C3186 1.388 . S
C3185 C3184 1.366 . S
C3185 C3189 1.385 . S
C3186 H3167 0.951 . S
C3186 C3184 1.388 . S
C3186 C3187 1.366 . S
C3187 C3186 1.366 . S
C3187 C3188 1.414 . S
C3187 C3190 1.499 . S
C3188 H3168 0.950 . S
C3188 C3187 1.414 . S
C3188 C3189 1.374 . S
C3189 H3169 0.950 . S
C3189 C3185 1.385 . S
C3189 C3188 1.374 . S
C3190 C3187 1.499 . S
C3190 C3191 1.373 . S
C3190 C3192 1.389 . S
C3191 H3170 0.950 . S
C3191 C3190 1.373 . S
C3191 C3207 1.377 . S
C3192 C3190 1.389 . S
C3192 C3193 1.524 . S
C3192 C3206 1.377 . S
C3193 C3192 1.524 . S
C3193 C3194 1.397 . S
C3193 C3198 1.363 . S
C3194 H3171 0.950 . S
C3194 C3193 1.397 . S
C3194 C3195 1.334 . S
C3195 H3172 0.950 . S
C3195 C3194 1.334 . S
C3195 C3196 1.287 . S
C3196 C3195 1.287 . S
C3196 C3197 1.524 . S
C3196 H3215 0.913 . S
C3197 H3173 0.950 . S
C3197 C3196 1.524 . S
C3197 C3198 1.415 . S
C3198 H3174 0.950 . S
C3198 C3193 1.363 . S
C3198 C3197 1.415 . S
C3199 H3175 0.951 . S
C3199 C3200 1.366 . S
C3199 C3201 1.388 . S
C3200 C3199 1.366 . S
C3200 C3204 1.385 . S
C3201 H3176 0.951 . S
C3201 C3199 1.388 . S
C3201 C3202 1.366 . S
C3202 C3201 1.366 . S
C3202 C3203 1.414 . S
C3202 C3205 1.499 . S
C3203 H3177 0.950 . S
C3203 C3202 1.414 . S
C3203 C3204 1.374 . S
C3204 H3178 0.950 . S
C3204 C3200 1.385 . S
C3204 C3203 1.374 . S
C3205 C3202 1.499 . S
C3205 C3206 1.373 . S
C3205 C3207 1.389 . S
C3206 H3179 0.950 . S
C3206 C3192 1.377 . S
C3206 C3205 1.373 . S
C3207 C3191 1.377 . S
C3207 C3205 1.389 . S
C3207 C3208 1.524 . S
C3208 C3207 1.524 . S
C3208 C3209 1.397 . S
C3208 C3213 1.363 . S
C3209 H3180 0.950 . S
C3209 C3208 1.397 . S
C3209 C3210 1.334 . S
C3210 H3181 0.950 . S
C3210 C3209 1.334 . S
C3210 C3211 1.287 . S
C3211 C3210 1.287 . S
C3211 C3212 1.524 . S
C3211 H3214 0.999 . S
C3212 H3182 0.950 . S
C3212 C3211 1.524 . S
C3212 C3213 1.415 . S
C3213 H3183 0.950 . S
C3213 C3208 1.363 . S
C3213 C3212 1.415 . S
H3214 C3211 0.999 . S
H3215 C3196 0.913 . S
H3216 C3234 0.951 . S
H3217 C3236 0.951 . S
H3218 C3238 0.950 . S
H3219 C3239 0.950 . S
H3220 C3241 0.950 . S
H3221 C3244 0.950 . S
H3222 C3245 0.950 . S
H3223 C3247 0.950 . S
H3224 C3248 0.948 1_655 S
H3225 C3249 0.951 . S
H3226 C3251 0.951 . S
H3227 C3253 0.950 . S
H3228 C3254 0.950 . S
H3229 C3256 0.950 . S
H3230 C3259 0.950 . S
H3231 C3260 0.950 . S
H3232 C3262 0.950 . S
H3233 C3263 0.950 . S
C3234 H3216 0.951 . S
C3234 C3235 1.366 . S
C3234 C3236 1.388 . S
C3235 C3234 1.366 . S
C3235 C3239 1.385 . S
C3236 H3217 0.951 . S
C3236 C3234 1.388 . S
C3236 C3237 1.366 . S
C3237 C3236 1.366 . S
C3237 C3238 1.414 . S
C3237 C3240 1.499 . S
C3238 H3218 0.950 . S
C3238 C3237 1.414 . S
C3238 C3239 1.374 . S
C3239 H3219 0.950 . S
C3239 C3235 1.385 . S
C3239 C3238 1.374 . S
C3240 C3237 1.499 . S
C3240 C3241 1.373 . S
C3240 C3242 1.389 . S
C3241 H3220 0.950 . S
C3241 C3240 1.373 . S
C3241 C3257 1.377 . S
C3242 C3240 1.389 . S
C3242 C3243 1.521 1_655 S
C3242 C3256 1.377 1_655 S
C3243 C3242 1.521 1_455 S
C3243 C3244 1.405 . S
C3243 C3248 1.363 . S
C3244 H3221 0.950 . S
C3244 C3243 1.405 . S
C3244 C3245 1.334 . S
C3245 H3222 0.950 . S
C3245 C3244 1.334 . S
C3245 C3246 1.287 . S
C3246 C3245 1.287 . S
C3246 C3247 1.524 . S
C3246 H3265 0.913 . S
C3247 H3223 0.950 . S
C3247 C3246 1.524 . S
C3247 C3248 1.417 . S
C3248 H3224 0.948 1_455 S
C3248 C3243 1.363 . S
C3248 C3247 1.417 . S
C3249 H3225 0.951 . S
C3249 C3250 1.366 . S
C3249 C3251 1.388 . S
C3250 C3249 1.366 . S
C3250 C3254 1.385 . S
C3251 H3226 0.951 . S
C3251 C3249 1.388 . S
C3251 C3252 1.366 . S
C3252 C3251 1.366 . S
C3252 C3253 1.414 . S
C3252 C3255 1.499 . S
C3253 H3227 0.950 . S
C3253 C3252 1.414 . S
C3253 C3254 1.374 . S
C3254 H3228 0.950 . S
C3254 C3250 1.385 . S
C3254 C3253 1.374 . S
C3255 C3252 1.499 . S
C3255 C3256 1.373 . S
C3255 C3257 1.389 1_455 S
C3256 H3229 0.950 . S
C3256 C3242 1.377 1_455 S
C3256 C3255 1.373 . S
C3257 C3241 1.377 . S
C3257 C3255 1.389 1_655 S
C3257 C3258 1.524 . S
C3258 C3257 1.524 . S
C3258 C3259 1.397 . S
C3258 C3263 1.363 . S
C3259 H3230 0.950 . S
C3259 C3258 1.397 . S
C3259 C3260 1.334 . S
C3260 H3231 0.950 . S
C3260 C3259 1.334 . S
C3260 C3261 1.287 . S
C3261 C3260 1.287 . S
C3261 C3262 1.524 . S
C3261 H3264 0.999 . S
C3262 H3232 0.950 . S
C3262 C3261 1.524 . S
C3262 C3263 1.415 . S
C3263 H3233 0.950 . S
C3263 C3258 1.363 . S
C3263 C3262 1.415 . S
H3264 C3261 0.999 . S
H3265 C3246 0.913 . S
H3266 C3284 0.951 . S
H3267 C3286 0.951 . S
H3268 C3288 0.950 . S
H3269 C3289 0.950 . S
H3270 C3291 0.950 . S
H3271 C3294 0.950 . S
H3272 C3295 0.950 . S
H3273 C3297 0.950 . S
H3274 C3298 0.950 1_556 S
H3275 C3299 0.951 . S
H3276 C3301 0.951 . S
H3277 C3303 0.950 . S
H3278 C3304 0.950 . S
H3279 C3306 0.950 . S
H3280 C3309 0.950 . S
H3281 C3310 0.950 . S
H3282 C3312 0.981 . S
H3283 C3313 0.892 1_554 S
C3284 H3266 0.951 . S
C3284 C3285 1.366 . S
C3284 C3286 1.388 . S
C3285 C3284 1.366 . S
C3285 C3289 1.385 . S
C3286 H3267 0.951 . S
C3286 C3284 1.388 . S
C3286 C3287 1.366 . S
C3287 C3286 1.366 . S
C3287 C3288 1.414 . S
C3287 C3290 1.499 . S
C3288 H3268 0.950 . S
C3288 C3287 1.414 . S
C3288 C3289 1.374 . S
C3289 H3269 0.950 . S
C3289 C3285 1.385 . S
C3289 C3288 1.374 . S
C3290 C3287 1.499 . S
C3290 C3291 1.373 . S
C3290 C3292 1.389 . S
C3291 H3270 0.950 . S
C3291 C3290 1.373 . S
C3291 C3307 1.377 1_554 S
C3292 C3290 1.389 . S
C3292 C3293 1.524 . S
C3292 C3306 1.377 1_554 S
C3293 C3292 1.524 . S
C3293 C3294 1.397 . S
C3293 C3298 1.363 . S
C3294 H3271 0.950 . S
C3294 C3293 1.397 . S
C3294 C3295 1.334 . S
C3295 H3272 0.950 . S
C3295 C3294 1.334 . S
C3295 C3296 1.287 . S
C3296 C3295 1.287 . S
C3296 C3297 1.524 . S
C3296 H3315 0.913 . S
C3297 H3273 0.950 . S
C3297 C3296 1.524 . S
C3297 C3298 1.415 . S
C3298 H3274 0.950 1_554 S
C3298 C3293 1.363 . S
C3298 C3297 1.415 . S
C3299 H3275 0.951 . S
C3299 C3300 1.366 . S
C3299 C3301 1.388 . S
C3300 C3299 1.366 . S
C3300 C3304 1.385 . S
C3301 H3276 0.951 . S
C3301 C3299 1.388 . S
C3301 C3302 1.366 . S
C3302 C3301 1.366 . S
C3302 C3303 1.414 . S
C3302 C3305 1.499 . S
C3303 H3277 0.950 . S
C3303 C3302 1.414 . S
C3303 C3304 1.374 . S
C3304 H3278 0.950 . S
C3304 C3300 1.385 . S
C3304 C3303 1.374 . S
C3305 C3302 1.499 . S
C3305 C3306 1.373 . S
C3305 C3307 1.389 . S
C3306 H3279 0.950 . S
C3306 C3292 1.377 1_556 S
C3306 C3305 1.373 . S
C3307 C3291 1.377 1_556 S
C3307 C3305 1.389 . S
C3307 C3308 1.524 . S
C3308 C3307 1.524 . S
C3308 C3309 1.397 . S
C3308 C3313 1.400 . S
C3309 H3280 0.950 . S
C3309 C3308 1.397 . S
C3309 C3310 1.334 . S
C3310 H3281 0.950 . S
C3310 C3309 1.334 . S
C3310 C3311 1.287 . S
C3311 C3310 1.287 . S
C3311 C3312 1.524 . S
C3311 H3314 0.999 . S
C3312 H3282 0.981 . S
C3312 C3311 1.524 . S
C3312 C3313 1.437 . S
C3313 H3283 0.892 1_556 S
C3313 C3308 1.400 . S
C3313 C3312 1.437 . S
H3314 C3311 0.999 . S
H3315 C3296 0.913 . S
H3316 C3334 0.951 . S
H3317 C3336 0.951 . S
H3318 C3338 0.950 . S
H3319 C3339 0.950 . S
H3320 C3341 0.950 . S
H3321 C3344 0.950 . S
H3322 C3345 0.950 . S
H3323 C3347 0.950 . S
H3324 C3348 0.950 . S
H3325 C3349 0.951 . S
H3326 C3351 0.951 . S
H3327 C3353 0.950 . S
H3328 C3354 0.950 . S
H3329 C3356 0.950 . S
H3330 C3359 0.950 . S
H3331 C3360 0.950 . S
H3332 C3362 0.950 . S
H3333 C3363 0.950 . S
C3334 H3316 0.951 . S
C3334 C3335 1.366 . S
C3334 C3336 1.388 . S
C3335 C3334 1.366 . S
C3335 C3339 1.385 . S
C3336 H3317 0.951 . S
C3336 C3334 1.388 . S
C3336 C3337 1.366 . S
C3337 C3336 1.366 . S
C3337 C3338 1.414 . S
C3337 C3340 1.499 . S
C3338 H3318 0.950 . S
C3338 C3337 1.414 . S
C3338 C3339 1.374 . S
C3339 H3319 0.950 . S
C3339 C3335 1.385 . S
C3339 C3338 1.374 . S
C3340 C3337 1.499 . S
C3340 C3341 1.373 . S
C3340 C3342 1.389 . S
C3341 H3320 0.950 . S
C3341 C3340 1.373 . S
C3341 C3357 1.377 . S
C3342 C3340 1.389 . S
C3342 C3343 1.524 . S
C3342 C3356 1.377 . S
C3343 C3342 1.524 . S
C3343 C3344 1.397 . S
C3343 C3348 1.363 . S
C3344 H3321 0.950 . S
C3344 C3343 1.397 . S
C3344 C3345 1.334 . S
C3345 H3322 0.950 . S
C3345 C3344 1.334 . S
C3345 C3346 1.287 . S
C3346 C3345 1.287 . S
C3346 C3347 1.524 . S
C3346 H3365 0.913 . S
C3347 H3323 0.950 . S
C3347 C3346 1.524 . S
C3347 C3348 1.415 . S
C3348 H3324 0.950 . S
C3348 C3343 1.363 . S
C3348 C3347 1.415 . S
C3349 H3325 0.951 . S
C3349 C3350 1.366 . S
C3349 C3351 1.388 . S
C3350 C3349 1.366 . S
C3350 C3354 1.385 . S
C3351 H3326 0.951 . S
C3351 C3349 1.388 . S
C3351 C3352 1.366 . S
C3352 C3351 1.366 . S
C3352 C3353 1.414 . S
C3352 C3355 1.499 . S
C3353 H3327 0.950 . S
C3353 C3352 1.414 . S
C3353 C3354 1.374 . S
C3354 H3328 0.950 . S
C3354 C3350 1.385 . S
C3354 C3353 1.374 . S
C3355 C3352 1.499 . S
C3355 C3356 1.373 . S
C3355 C3357 1.389 . S
C3356 H3329 0.950 . S
C3356 C3342 1.377 . S
C3356 C3355 1.373 . S
C3357 C3341 1.377 . S
C3357 C3355 1.389 . S
C3357 C3358 1.524 . S
C3358 C3357 1.524 . S
C3358 C3359 1.397 . S
C3358 C3363 1.363 . S
C3359 H3330 0.950 . S
C3359 C3358 1.397 . S
C3359 C3360 1.334 . S
C3360 H3331 0.950 . S
C3360 C3359 1.334 . S
C3360 C3361 1.287 . S
C3361 C3360 1.287 . S
C3361 C3362 1.524 . S
C3361 H3364 0.999 . S
C3362 H3332 0.950 . S
C3362 C3361 1.524 . S
C3362 C3363 1.415 . S
C3363 H3333 0.950 . S
C3363 C3358 1.363 . S
C3363 C3362 1.415 . S
H3364 C3361 0.999 . S
H3365 C3346 0.913 . S
H3366 C3384 0.951 . S
H3367 C3386 0.951 . S
H3368 C3388 0.950 . S
H3369 C3389 0.950 . S
H3370 C3391 0.950 . S
H3371 C3394 0.950 . S
H3372 C3395 0.950 . S
H3373 C3397 0.950 . S
H3374 C3398 0.950 . S
H3375 C3399 0.951 . S
H3376 C3401 0.951 . S
H3377 C3403 0.950 . S
H3378 C3404 0.950 . S
H3379 C3406 0.950 . S
H3380 C3409 0.950 . S
H3381 C3410 0.950 . S
H3382 C3412 0.950 . S
H3383 C3413 0.950 . S
C3384 H3366 0.951 . S
C3384 C3385 1.366 . S
C3384 C3386 1.388 . S
C3385 C3384 1.366 . S
C3385 C3389 1.385 . S
C3386 H3367 0.951 . S
C3386 C3384 1.388 . S
C3386 C3387 1.366 . S
C3387 C3386 1.366 . S
C3387 C3388 1.414 . S
C3387 C3390 1.499 . S
C3388 H3368 0.950 . S
C3388 C3387 1.414 . S
C3388 C3389 1.374 . S
C3389 H3369 0.950 . S
C3389 C3385 1.385 . S
C3389 C3388 1.374 . S
C3390 C3387 1.499 . S
C3390 C3391 1.373 . S
C3390 C3392 1.389 . S
C3391 H3370 0.950 . S
C3391 C3390 1.373 . S
C3391 C3407 1.377 . S
C3392 C3390 1.389 . S
C3392 C3393 1.524 . S
C3392 C3406 1.377 . S
C3393 C3392 1.524 . S
C3393 C3394 1.397 . S
C3393 C3398 1.363 . S
C3394 H3371 0.950 . S
C3394 C3393 1.397 . S
C3394 C3395 1.334 . S
C3395 H3372 0.950 . S
C3395 C3394 1.334 . S
C3395 C3396 1.287 . S
C3396 C3395 1.287 . S
C3396 C3397 1.524 . S
C3396 H3415 0.913 . S
C3397 H3373 0.950 . S
C3397 C3396 1.524 . S
C3397 C3398 1.415 . S
C3398 H3374 0.950 . S
C3398 C3393 1.363 . S
C3398 C3397 1.415 . S
C3399 H3375 0.951 . S
C3399 C3400 1.366 . S
C3399 C3401 1.388 . S
C3400 C3399 1.366 . S
C3400 C3404 1.385 . S
C3401 H3376 0.951 . S
C3401 C3399 1.388 . S
C3401 C3402 1.366 . S
C3402 C3401 1.366 . S
C3402 C3403 1.414 . S
C3402 C3405 1.499 . S
C3403 H3377 0.950 . S
C3403 C3402 1.414 . S
C3403 C3404 1.374 . S
C3404 H3378 0.950 . S
C3404 C3400 1.385 . S
C3404 C3403 1.374 . S
C3405 C3402 1.499 . S
C3405 C3406 1.373 . S
C3405 C3407 1.389 . S
C3406 H3379 0.950 . S
C3406 C3392 1.377 . S
C3406 C3405 1.373 . S
C3407 C3391 1.377 . S
C3407 C3405 1.389 . S
C3407 C3408 1.524 . S
C3408 C3407 1.524 . S
C3408 C3409 1.397 . S
C3408 C3413 1.363 . S
C3409 H3380 0.950 . S
C3409 C3408 1.397 . S
C3409 C3410 1.334 . S
C3410 H3381 0.950 . S
C3410 C3409 1.334 . S
C3410 C3411 1.287 . S
C3411 C3410 1.287 . S
C3411 C3412 1.524 . S
C3411 H3414 0.999 . S
C3412 H3382 0.950 . S
C3412 C3411 1.524 . S
C3412 C3413 1.415 . S
C3413 H3383 0.950 . S
C3413 C3408 1.363 . S
C3413 C3412 1.415 . S
H3414 C3411 0.999 . S
H3415 C3396 0.913 . S
H3416 C3434 0.951 . S
H3417 C3436 0.951 . S
H3418 C3438 0.950 . S
H3419 C3439 0.950 . S
H3420 C3441 0.950 . S
H3421 C3444 0.950 . S
H3422 C3445 0.950 . S
H3423 C3447 0.950 . S
H3424 C3448 0.950 . S
H3425 C3449 0.951 . S
H3426 C3451 0.951 . S
H3427 C3453 0.950 . S
H3428 C3454 0.950 . S
H3429 C3456 0.950 . S
H3430 C3459 0.950 . S
H3431 C3460 0.950 . S
H3432 C3462 0.950 . S
H3433 C3463 0.950 . S
C3434 H3416 0.951 . S
C3434 C3435 1.366 . S
C3434 C3436 1.388 . S
C3435 C3434 1.366 . S
C3435 C3439 1.385 . S
C3436 H3417 0.951 . S
C3436 C3434 1.388 . S
C3436 C3437 1.366 . S
C3437 C3436 1.366 . S
C3437 C3438 1.414 . S
C3437 C3440 1.499 . S
C3438 H3418 0.950 . S
C3438 C3437 1.414 . S
C3438 C3439 1.374 . S
C3439 H3419 0.950 . S
C3439 C3435 1.385 . S
C3439 C3438 1.374 . S
C3440 C3437 1.499 . S
C3440 C3441 1.373 . S
C3440 C3442 1.389 . S
C3441 H3420 0.950 . S
C3441 C3440 1.373 . S
C3441 C3457 1.377 . S
C3442 C3440 1.389 . S
C3442 C3443 1.524 . S
C3442 C3456 1.377 . S
C3443 C3442 1.524 . S
C3443 C3444 1.397 . S
C3443 C3448 1.363 . S
C3444 H3421 0.950 . S
C3444 C3443 1.397 . S
C3444 C3445 1.334 . S
C3445 H3422 0.950 . S
C3445 C3444 1.334 . S
C3445 C3446 1.287 . S
C3446 C3445 1.287 . S
C3446 C3447 1.524 . S
C3446 H3465 0.913 . S
C3447 H3423 0.950 . S
C3447 C3446 1.524 . S
C3447 C3448 1.415 . S
C3448 H3424 0.950 . S
C3448 C3443 1.363 . S
C3448 C3447 1.415 . S
C3449 H3425 0.951 . S
C3449 C3450 1.366 . S
C3449 C3451 1.388 . S
C3450 C3449 1.366 . S
C3450 C3454 1.385 . S
C3451 H3426 0.951 . S
C3451 C3449 1.388 . S
C3451 C3452 1.366 . S
C3452 C3451 1.366 . S
C3452 C3453 1.414 . S
C3452 C3455 1.499 . S
C3453 H3427 0.950 . S
C3453 C3452 1.414 . S
C3453 C3454 1.374 . S
C3454 H3428 0.950 . S
C3454 C3450 1.385 . S
C3454 C3453 1.374 . S
C3455 C3452 1.499 . S
C3455 C3456 1.373 . S
C3455 C3457 1.389 . S
C3456 H3429 0.950 . S
C3456 C3442 1.377 . S
C3456 C3455 1.373 . S
C3457 C3441 1.377 . S
C3457 C3455 1.389 . S
C3457 C3458 1.524 . S
C3458 C3457 1.524 . S
C3458 C3459 1.397 . S
C3458 C3463 1.363 . S
C3459 H3430 0.950 . S
C3459 C3458 1.397 . S
C3459 C3460 1.334 . S
C3460 H3431 0.950 . S
C3460 C3459 1.334 . S
C3460 C3461 1.287 . S
C3461 C3460 1.287 . S
C3461 C3462 1.524 . S
C3461 H3464 0.999 . S
C3462 H3432 0.950 . S
C3462 C3461 1.524 . S
C3462 C3463 1.415 . S
C3463 H3433 0.950 . S
C3463 C3458 1.363 . S
C3463 C3462 1.415 . S
H3464 C3461 0.999 . S
H3465 C3446 0.913 . S
H3466 C3484 0.951 . S
H3467 C3486 0.951 . S
H3468 C3488 0.950 . S
H3469 C3489 0.950 . S
H3470 C3491 0.950 . S
H3471 C3494 0.950 . S
H3472 C3495 0.950 . S
H3473 C3497 0.950 . S
H3474 C3498 0.950 . S
H3475 C3499 0.951 . S
H3476 C3501 0.951 . S
H3477 C3503 0.950 . S
H3478 C3504 0.950 . S
H3479 C3506 0.950 . S
H3480 C3509 0.950 . S
H3481 C3510 0.950 . S
H3482 C3512 0.950 . S
H3483 C3513 0.950 . S
C3484 H3466 0.951 . S
C3484 C3485 1.366 . S
C3484 C3486 1.388 . S
C3485 C3484 1.366 . S
C3485 C3489 1.385 . S
C3486 H3467 0.951 . S
C3486 C3484 1.388 . S
C3486 C3487 1.366 . S
C3487 C3486 1.366 . S
C3487 C3488 1.414 . S
C3487 C3490 1.499 . S
C3488 H3468 0.950 . S
C3488 C3487 1.414 . S
C3488 C3489 1.374 . S
C3489 H3469 0.950 . S
C3489 C3485 1.385 . S
C3489 C3488 1.374 . S
C3490 C3487 1.499 . S
C3490 C3491 1.373 . S
C3490 C3492 1.389 . S
C3491 H3470 0.950 . S
C3491 C3490 1.373 . S
C3491 C3507 1.377 . S
C3492 C3490 1.389 . S
C3492 C3493 1.524 . S
C3492 C3506 1.377 . S
C3493 C3492 1.524 . S
C3493 C3494 1.397 . S
C3493 C3498 1.363 . S
C3494 H3471 0.950 . S
C3494 C3493 1.397 . S
C3494 C3495 1.334 . S
C3495 H3472 0.950 . S
C3495 C3494 1.334 . S
C3495 C3496 1.287 . S
C3496 C3495 1.287 . S
C3496 C3497 1.524 . S
C3496 H3515 0.913 . S
C3497 H3473 0.950 . S
C3497 C3496 1.524 . S
C3497 C3498 1.415 . S
C3498 H3474 0.950 . S
C3498 C3493 1.363 . S
C3498 C3497 1.415 . S
C3499 H3475 0.951 . S
C3499 C3500 1.366 . S
C3499 C3501 1.388 . S
C3500 C3499 1.366 . S
C3500 C3504 1.385 . S
C3501 H3476 0.951 . S
C3501 C3499 1.388 . S
C3501 C3502 1.366 . S
C3502 C3501 1.366 . S
C3502 C3503 1.414 . S
C3502 C3505 1.499 . S
C3503 H3477 0.950 . S
C3503 C3502 1.414 . S
C3503 C3504 1.374 . S
C3504 H3478 0.950 . S
C3504 C3500 1.385 . S
C3504 C3503 1.374 . S
C3505 C3502 1.499 . S
C3505 C3506 1.373 . S
C3505 C3507 1.389 . S
C3506 H3479 0.950 . S
C3506 C3492 1.377 . S
C3506 C3505 1.373 . S
C3507 C3491 1.377 . S
C3507 C3505 1.389 . S
C3507 C3508 1.524 . S
C3508 C3507 1.524 . S
C3508 C3509 1.397 . S
C3508 C3513 1.363 . S
C3509 H3480 0.950 . S
C3509 C3508 1.397 . S
C3509 C3510 1.334 . S
C3510 H3481 0.950 . S
C3510 C3509 1.334 . S
C3510 C3511 1.287 . S
C3511 C3510 1.287 . S
C3511 C3512 1.524 . S
C3511 H3514 0.999 . S
C3512 H3482 0.950 . S
C3512 C3511 1.524 . S
C3512 C3513 1.415 . S
C3513 H3483 0.950 . S
C3513 C3508 1.363 . S
C3513 C3512 1.415 . S
H3514 C3511 0.999 . S
H3515 C3496 0.913 . S
H3516 C3534 0.951 . S
H3517 C3536 0.951 . S
H3518 C3538 0.950 . S
H3519 C3539 0.950 . S
H3520 C3541 0.950 . S
H3521 C3544 0.950 . S
H3522 C3545 0.950 . S
H3523 C3547 0.950 . S
H3524 C3548 0.950 . S
H3525 C3549 0.951 . S
H3526 C3551 0.951 . S
H3527 C3553 0.950 . S
H3528 C3554 0.950 . S
H3529 C3556 0.950 . S
H3530 C3559 0.915 1_455 S
H3531 C3560 0.950 . S
H3532 C3562 0.950 . S
H3533 C3563 0.950 . S
C3534 H3516 0.951 . S
C3534 C3535 1.366 . S
C3534 C3536 1.388 . S
C3535 C3534 1.366 . S
C3535 C3539 1.385 . S
C3536 H3517 0.951 . S
C3536 C3534 1.388 . S
C3536 C3537 1.366 . S
C3537 C3536 1.366 . S
C3537 C3538 1.414 . S
C3537 C3540 1.499 . S
C3538 H3518 0.950 . S
C3538 C3537 1.414 . S
C3538 C3539 1.374 . S
C3539 H3519 0.950 . S
C3539 C3535 1.385 . S
C3539 C3538 1.374 . S
C3540 C3537 1.499 . S
C3540 C3541 1.373 . S
C3540 C3542 1.389 1_655 S
C3541 H3520 0.950 . S
C3541 C3540 1.373 . S
C3541 C3557 1.377 . S
C3542 C3540 1.389 1_455 S
C3542 C3543 1.524 . S
C3542 C3556 1.377 . S
C3543 C3542 1.524 . S
C3543 C3544 1.397 . S
C3543 C3548 1.363 . S
C3544 H3521 0.950 . S
C3544 C3543 1.397 . S
C3544 C3545 1.334 . S
C3545 H3522 0.950 . S
C3545 C3544 1.334 . S
C3545 C3546 1.287 . S
C3546 C3545 1.287 . S
C3546 C3547 1.524 . S
C3546 H3565 0.913 . S
C3547 H3523 0.950 . S
C3547 C3546 1.524 . S
C3547 C3548 1.415 . S
C3548 H3524 0.950 . S
C3548 C3543 1.363 . S
C3548 C3547 1.415 . S
C3549 H3525 0.951 . S
C3549 C3550 1.366 . S
C3549 C3551 1.388 . S
C3550 C3549 1.366 . S
C3550 C3554 1.385 . S
C3551 H3526 0.951 . S
C3551 C3549 1.388 . S
C3551 C3552 1.366 . S
C3552 C3551 1.366 . S
C3552 C3553 1.414 . S
C3552 C3555 1.499 . S
C3553 H3527 0.950 . S
C3553 C3552 1.414 . S
C3553 C3554 1.374 . S
C3554 H3528 0.950 . S
C3554 C3550 1.385 . S
C3554 C3553 1.374 . S
C3555 C3552 1.499 . S
C3555 C3556 1.373 . S
C3555 C3557 1.389 1_455 S
C3556 H3529 0.950 . S
C3556 C3542 1.377 . S
C3556 C3555 1.373 . S
C3557 C3541 1.377 . S
C3557 C3555 1.389 1_655 S
C3557 C3558 1.524 . S
C3558 C3557 1.524 . S
C3558 C3559 1.397 . S
C3558 C3563 1.363 . S
C3559 H3530 0.915 1_655 S
C3559 C3558 1.397 . S
C3559 C3560 1.334 . S
C3560 H3531 0.950 . S
C3560 C3559 1.334 . S
C3560 C3561 1.287 . S
C3561 C3560 1.287 . S
C3561 C3562 1.524 . S
C3561 H3564 0.999 . S
C3562 H3532 0.950 . S
C3562 C3561 1.524 . S
C3562 C3563 1.415 . S
C3563 H3533 0.950 . S
C3563 C3558 1.363 . S
C3563 C3562 1.415 . S
H3564 C3561 0.999 . S
H3565 C3546 0.913 . S
H3566 C3584 0.951 . S
H3567 C3586 0.951 . S
H3568 C3588 0.950 . S
H3569 C3589 0.950 . S
H3570 C3591 0.950 . S
H3571 C3594 0.950 1_556 S
H3572 C3595 0.956 . S
H3573 C3597 0.950 . S
H3574 C3598 0.950 . S
H3575 C3599 0.951 . S
H3576 C3601 0.951 . S
H3577 C3603 0.950 . S
H3578 C3604 0.950 . S
H3579 C3606 0.950 . S
H3580 C3609 0.965 . S
H3581 C3610 0.950 . S
H3582 C3612 0.950 . S
H3583 C3613 0.950 . S
C3584 H3566 0.951 . S
C3584 C3585 1.366 . S
C3584 C3586 1.388 . S
C3585 C3584 1.366 . S
C3585 C3589 1.385 . S
C3586 H3567 0.951 . S
C3586 C3584 1.388 . S
C3586 C3587 1.366 . S
C3587 C3586 1.366 . S
C3587 C3588 1.414 . S
C3587 C3590 1.499 . S
C3588 H3568 0.950 . S
C3588 C3587 1.414 . S
C3588 C3589 1.374 . S
C3589 H3569 0.950 . S
C3589 C3585 1.385 . S
C3589 C3588 1.374 . S
C3590 C3587 1.499 . S
C3590 C3591 1.373 . S
C3590 C3592 1.389 . S
C3591 H3570 0.950 . S
C3591 C3590 1.373 . S
C3591 C3607 1.377 1_554 S
C3592 C3590 1.389 . S
C3592 C3593 1.524 . S
C3592 C3606 1.377 1_554 S
C3593 C3592 1.524 . S
C3593 C3594 1.397 . S
C3593 C3598 1.363 . S
C3594 H3571 0.950 1_554 S
C3594 C3593 1.397 . S
C3594 C3595 1.334 . S
C3595 H3572 0.956 . S
C3595 C3594 1.334 . S
C3595 C3596 1.287 . S
C3596 C3595 1.287 . S
C3596 C3597 1.524 . S
C3596 H3615 0.913 . S
C3597 H3573 0.950 . S
C3597 C3596 1.524 . S
C3597 C3598 1.415 . S
C3598 H3574 0.950 . S
C3598 C3593 1.363 . S
C3598 C3597 1.415 . S
C3599 H3575 0.951 . S
C3599 C3600 1.366 . S
C3599 C3601 1.388 . S
C3600 C3599 1.366 . S
C3600 C3604 1.385 . S
C3601 H3576 0.951 . S
C3601 C3599 1.388 . S
C3601 C3602 1.366 . S
C3602 C3601 1.366 . S
C3602 C3603 1.414 . S
C3602 C3605 1.499 . S
C3603 H3577 0.950 . S
C3603 C3602 1.414 . S
C3603 C3604 1.374 . S
C3604 H3578 0.950 . S
C3604 C3600 1.385 . S
C3604 C3603 1.374 . S
C3605 C3602 1.499 . S
C3605 C3606 1.373 . S
C3605 C3607 1.389 . S
C3606 H3579 0.950 . S
C3606 C3592 1.377 1_556 S
C3606 C3605 1.373 . S
C3607 C3591 1.377 1_556 S
C3607 C3605 1.389 . S
C3607 C3608 1.524 . S
C3608 C3607 1.524 . S
C3608 C3609 1.397 . S
C3608 C3613 1.363 . S
C3609 H3580 0.965 . S
C3609 C3608 1.397 . S
C3609 C3610 1.334 . S
C3610 H3581 0.950 . S
C3610 C3609 1.334 . S
C3610 C3611 1.287 . S
C3611 C3610 1.287 . S
C3611 C3612 1.524 . S
C3611 H3614 0.999 . S
C3612 H3582 0.950 . S
C3612 C3611 1.524 . S
C3612 C3613 1.415 . S
C3613 H3583 0.950 . S
C3613 C3608 1.363 . S
C3613 C3612 1.415 . S
H3614 C3611 0.999 . S
H3615 C3596 0.913 . S
H3616 C3634 0.951 . S
H3617 C3636 0.951 . S
H3618 C3638 0.950 . S
H3619 C3639 0.950 . S
H3620 C3641 0.950 . S
H3621 C3644 0.950 1_565 S
H3622 C3645 0.946 1_565 S
H3623 C3647 0.950 . S
H3624 C3648 0.950 . S
H3625 C3649 0.951 . S
H3626 C3651 0.951 . S
H3627 C3653 0.950 . S
H3628 C3654 0.950 . S
H3629 C3656 0.950 . S
H3630 C3659 0.950 1_545 S
H3631 C3660 0.950 . S
H3632 C3662 0.950 . S
H3633 C3663 0.950 . S
C3634 H3616 0.951 . S
C3634 C3635 1.366 . S
C3634 C3636 1.388 . S
C3635 C3634 1.366 . S
C3635 C3639 1.385 . S
C3636 H3617 0.951 . S
C3636 C3634 1.388 . S
C3636 C3637 1.366 . S
C3637 C3636 1.366 . S
C3637 C3638 1.414 . S
C3637 C3640 1.499 . S
C3638 H3618 0.950 . S
C3638 C3637 1.414 . S
C3638 C3639 1.374 . S
C3639 H3619 0.950 . S
C3639 C3635 1.385 . S
C3639 C3638 1.374 . S
C3640 C3637 1.499 . S
C3640 C3641 1.373 . S
C3640 C3642 1.389 1_565 S
C3641 H3620 0.950 . S
C3641 C3640 1.373 . S
C3641 C3657 1.377 . S
C3642 C3640 1.389 1_545 S
C3642 C3643 1.524 . S
C3642 C3656 1.377 . S
C3643 C3642 1.524 . S
C3643 C3644 1.397 . S
C3643 C3648 1.363 . S
C3644 H3621 0.950 1_545 S
C3644 C3643 1.397 . S
C3644 C3645 1.334 . S
C3645 H3622 0.946 1_545 S
C3645 C3644 1.334 . S
C3645 C3646 1.287 . S
C3646 C3645 1.287 . S
C3646 C3647 1.524 . S
C3646 H3665 0.913 . S
C3647 H3623 0.950 . S
C3647 C3646 1.524 . S
C3647 C3648 1.415 . S
C3648 H3624 0.950 . S
C3648 C3643 1.363 . S
C3648 C3647 1.415 . S
C3649 H3625 0.951 . S
C3649 C3650 1.366 . S
C3649 C3651 1.388 . S
C3650 C3649 1.366 . S
C3650 C3654 1.385 . S
C3651 H3626 0.951 . S
C3651 C3649 1.388 . S
C3651 C3652 1.366 . S
C3652 C3651 1.366 . S
C3652 C3653 1.414 . S
C3652 C3655 1.499 . S
C3653 H3627 0.950 . S
C3653 C3652 1.414 . S
C3653 C3654 1.374 . S
C3654 H3628 0.950 . S
C3654 C3650 1.385 . S
C3654 C3653 1.374 . S
C3655 C3652 1.499 . S
C3655 C3656 1.373 . S
C3655 C3657 1.389 1_545 S
C3656 H3629 0.950 . S
C3656 C3642 1.377 . S
C3656 C3655 1.373 . S
C3657 C3641 1.377 . S
C3657 C3655 1.389 1_565 S
C3657 C3658 1.524 . S
C3658 C3657 1.524 . S
C3658 C3659 1.397 . S
C3658 C3663 1.363 . S
C3659 H3630 0.950 1_565 S
C3659 C3658 1.397 . S
C3659 C3660 1.334 . S
C3660 H3631 0.950 . S
C3660 C3659 1.334 . S
C3660 C3661 1.287 . S
C3661 C3660 1.287 . S
C3661 C3662 1.524 . S
C3661 H3664 0.999 . S
C3662 H3632 0.950 . S
C3662 C3661 1.524 . S
C3662 C3663 1.415 . S
C3663 H3633 0.950 . S
C3663 C3658 1.363 . S
C3663 C3662 1.415 . S
H3664 C3661 0.999 . S
H3665 C3646 0.913 . S
H3666 C3684 0.951 . S
H3667 C3686 0.951 . S
H3668 C3688 0.950 . S
H3669 C3689 0.950 . S
H3670 C3691 0.950 . S
H3671 C3694 0.950 . S
H3672 C3695 0.950 . S
H3673 C3697 0.950 . S
H3674 C3698 0.950 . S
H3675 C3699 0.951 . S
H3676 C3701 0.951 . S
H3677 C3703 0.950 . S
H3678 C3704 0.950 . S
H3679 C3706 0.950 . S
H3680 C3709 0.950 . S
H3681 C3710 0.950 . S
H3682 C3712 0.950 . S
H3683 C3713 0.950 . S
C3684 H3666 0.951 . S
C3684 C3685 1.366 . S
C3684 C3686 1.388 . S
C3685 C3684 1.366 . S
C3685 C3689 1.385 . S
C3686 H3667 0.951 . S
C3686 C3684 1.388 . S
C3686 C3687 1.366 . S
C3687 C3686 1.366 . S
C3687 C3688 1.414 . S
C3687 C3690 1.499 . S
C3688 H3668 0.950 . S
C3688 C3687 1.414 . S
C3688 C3689 1.374 . S
C3689 H3669 0.950 . S
C3689 C3685 1.385 . S
C3689 C3688 1.374 . S
C3690 C3687 1.499 . S
C3690 C3691 1.373 . S
C3690 C3692 1.389 . S
C3691 H3670 0.950 . S
C3691 C3690 1.373 . S
C3691 C3707 1.377 . S
C3692 C3690 1.389 . S
C3692 C3693 1.524 . S
C3692 C3706 1.377 . S
C3693 C3692 1.524 . S
C3693 C3694 1.397 . S
C3693 C3698 1.363 . S
C3694 H3671 0.950 . S
C3694 C3693 1.397 . S
C3694 C3695 1.334 . S
C3695 H3672 0.950 . S
C3695 C3694 1.334 . S
C3695 C3696 1.287 . S
C3696 C3695 1.287 . S
C3696 C3697 1.524 . S
C3696 H3715 0.913 . S
C3697 H3673 0.950 . S
C3697 C3696 1.524 . S
C3697 C3698 1.415 . S
C3698 H3674 0.950 . S
C3698 C3693 1.363 . S
C3698 C3697 1.415 . S
C3699 H3675 0.951 . S
C3699 C3700 1.366 . S
C3699 C3701 1.388 . S
C3700 C3699 1.366 . S
C3700 C3704 1.385 . S
C3701 H3676 0.951 . S
C3701 C3699 1.388 . S
C3701 C3702 1.366 . S
C3702 C3701 1.366 . S
C3702 C3703 1.414 . S
C3702 C3705 1.499 . S
C3703 H3677 0.950 . S
C3703 C3702 1.414 . S
C3703 C3704 1.374 . S
C3704 H3678 0.950 . S
C3704 C3700 1.385 . S
C3704 C3703 1.374 . S
C3705 C3702 1.499 . S
C3705 C3706 1.373 . S
C3705 C3707 1.389 . S
C3706 H3679 0.950 . S
C3706 C3692 1.377 . S
C3706 C3705 1.373 . S
C3707 C3691 1.377 . S
C3707 C3705 1.389 . S
C3707 C3708 1.524 . S
C3708 C3707 1.524 . S
C3708 C3709 1.397 . S
C3708 C3713 1.363 . S
C3709 H3680 0.950 . S
C3709 C3708 1.397 . S
C3709 C3710 1.334 . S
C3710 H3681 0.950 . S
C3710 C3709 1.334 . S
C3710 C3711 1.287 . S
C3711 C3710 1.287 . S
C3711 C3712 1.524 . S
C3711 H3714 0.999 . S
C3712 H3682 0.950 . S
C3712 C3711 1.524 . S
C3712 C3713 1.415 . S
C3713 H3683 0.950 . S
C3713 C3708 1.363 . S
C3713 C3712 1.415 . S
H3714 C3711 0.999 . S
H3715 C3696 0.913 . S
H3716 C3734 0.951 . S
H3717 C3736 0.951 . S
H3718 C3738 0.950 . S
H3719 C3739 0.950 . S
H3720 C3741 0.950 . S
H3721 C3744 0.950 . S
H3722 C3745 0.950 . S
H3723 C3747 0.950 . S
H3724 C3748 0.950 . S
H3725 C3749 0.951 . S
H3726 C3751 0.951 . S
H3727 C3753 0.950 . S
H3728 C3754 0.950 . S
H3729 C3756 0.959 . S
H3730 C3759 0.950 . S
H3731 C3760 0.950 . S
H3732 C3762 0.950 . S
H3733 C3763 0.950 . S
C3734 H3716 0.951 . S
C3734 C3735 1.366 . S
C3734 C3736 1.388 . S
C3735 C3734 1.366 . S
C3735 C3739 1.385 . S
C3736 H3717 0.951 . S
C3736 C3734 1.388 . S
C3736 C3737 1.366 . S
C3737 C3736 1.366 . S
C3737 C3738 1.414 . S
C3737 C3740 1.499 . S
C3738 H3718 0.950 . S
C3738 C3737 1.414 . S
C3738 C3739 1.374 . S
C3739 H3719 0.950 . S
C3739 C3735 1.385 . S
C3739 C3738 1.374 . S
C3740 C3737 1.499 . S
C3740 C3741 1.373 . S
C3740 C3742 1.389 . S
C3741 H3720 0.950 . S
C3741 C3740 1.373 . S
C3741 C3757 1.377 1_545 S
C3742 C3740 1.389 . S
C3742 C3743 1.524 . S
C3742 C3756 1.345 1_545 S
C3743 C3742 1.524 . S
C3743 C3744 1.397 . S
C3743 C3748 1.363 . S
C3744 H3721 0.950 . S
C3744 C3743 1.397 . S
C3744 C3745 1.334 . S
C3745 H3722 0.950 . S
C3745 C3744 1.334 . S
C3745 C3746 1.287 . S
C3746 C3745 1.287 . S
C3746 C3747 1.524 . S
C3746 H3765 0.913 . S
C3747 H3723 0.950 . S
C3747 C3746 1.524 . S
C3747 C3748 1.415 . S
C3748 H3724 0.950 . S
C3748 C3743 1.363 . S
C3748 C3747 1.415 . S
C3749 H3725 0.951 . S
C3749 C3750 1.366 . S
C3749 C3751 1.388 . S
C3750 C3749 1.366 . S
C3750 C3754 1.385 . S
C3751 H3726 0.951 . S
C3751 C3749 1.388 . S
C3751 C3752 1.366 . S
C3752 C3751 1.366 . S
C3752 C3753 1.414 . S
C3752 C3755 1.499 . S
C3753 H3727 0.950 . S
C3753 C3752 1.414 . S
C3753 C3754 1.374 . S
C3754 H3728 0.950 . S
C3754 C3750 1.385 . S
C3754 C3753 1.374 . S
C3755 C3752 1.499 . S
C3755 C3756 1.399 . S
C3755 C3757 1.389 . S
C3756 H3729 0.959 . S
C3756 C3742 1.345 1_565 S
C3756 C3755 1.399 . S
C3757 C3741 1.377 1_565 S
C3757 C3755 1.389 . S
C3757 C3758 1.524 . S
C3758 C3757 1.524 . S
C3758 C3759 1.397 . S
C3758 C3763 1.363 . S
C3759 H3730 0.950 . S
C3759 C3758 1.397 . S
C3759 C3760 1.334 . S
C3760 H3731 0.950 . S
C3760 C3759 1.334 . S
C3760 C3761 1.287 . S
C3761 C3760 1.287 . S
C3761 C3762 1.524 . S
C3761 H3764 0.999 . S
C3762 H3732 0.950 . S
C3762 C3761 1.524 . S
C3762 C3763 1.415 . S
C3763 H3733 0.950 . S
C3763 C3758 1.363 . S
C3763 C3762 1.415 . S
H3764 C3761 0.999 . S
H3765 C3746 0.913 . S
H3766 C3784 0.951 . S
H3767 C3786 0.951 . S
H3768 C3788 0.950 . S
H3769 C3789 0.950 . S
H3770 C3791 0.950 . S
H3771 C3794 0.950 . S
H3772 C3795 0.950 . S
H3773 C3797 0.950 . S
H3774 C3798 0.950 . S
H3775 C3799 0.951 . S
H3776 C3801 0.951 . S
H3777 C3803 0.950 . S
H3778 C3804 0.950 . S
H3779 C3806 0.950 . S
H3780 C3809 0.950 . S
H3781 C3810 0.950 . S
H3782 C3812 0.950 . S
H3783 C3813 0.950 . S
C3784 H3766 0.951 . S
C3784 C3785 1.366 . S
C3784 C3786 1.388 . S
C3785 C3784 1.366 . S
C3785 C3789 1.385 . S
C3786 H3767 0.951 . S
C3786 C3784 1.388 . S
C3786 C3787 1.366 . S
C3787 C3786 1.366 . S
C3787 C3788 1.414 . S
C3787 C3790 1.499 . S
C3788 H3768 0.950 . S
C3788 C3787 1.414 . S
C3788 C3789 1.374 . S
C3789 H3769 0.950 . S
C3789 C3785 1.385 . S
C3789 C3788 1.374 . S
C3790 C3787 1.499 . S
C3790 C3791 1.373 . S
C3790 C3792 1.389 . S
C3791 H3770 0.950 . S
C3791 C3790 1.373 . S
C3791 C3807 1.377 . S
C3792 C3790 1.389 . S
C3792 C3793 1.524 . S
C3792 C3806 1.377 . S
C3793 C3792 1.524 . S
C3793 C3794 1.397 . S
C3793 C3798 1.363 . S
C3794 H3771 0.950 . S
C3794 C3793 1.397 . S
C3794 C3795 1.334 . S
C3795 H3772 0.950 . S
C3795 C3794 1.334 . S
C3795 C3796 1.287 . S
C3796 C3795 1.287 . S
C3796 C3797 1.524 . S
C3796 H3815 0.913 . S
C3797 H3773 0.950 . S
C3797 C3796 1.524 . S
C3797 C3798 1.415 . S
C3798 H3774 0.950 . S
C3798 C3793 1.363 . S
C3798 C3797 1.415 . S
C3799 H3775 0.951 . S
C3799 C3800 1.366 . S
C3799 C3801 1.388 . S
C3800 C3799 1.366 . S
C3800 C3804 1.385 . S
C3801 H3776 0.951 . S
C3801 C3799 1.388 . S
C3801 C3802 1.366 . S
C3802 C3801 1.366 . S
C3802 C3803 1.414 . S
C3802 C3805 1.499 . S
C3803 H3777 0.950 . S
C3803 C3802 1.414 . S
C3803 C3804 1.374 . S
C3804 H3778 0.950 . S
C3804 C3800 1.385 . S
C3804 C3803 1.374 . S
C3805 C3802 1.499 . S
C3805 C3806 1.373 . S
C3805 C3807 1.389 . S
C3806 H3779 0.950 . S
C3806 C3792 1.377 . S
C3806 C3805 1.373 . S
C3807 C3791 1.377 . S
C3807 C3805 1.389 . S
C3807 C3808 1.524 . S
C3808 C3807 1.524 . S
C3808 C3809 1.397 . S
C3808 C3813 1.363 . S
C3809 H3780 0.950 . S
C3809 C3808 1.397 . S
C3809 C3810 1.334 . S
C3810 H3781 0.950 . S
C3810 C3809 1.334 . S
C3810 C3811 1.287 . S
C3811 C3810 1.287 . S
C3811 C3812 1.524 . S
C3811 H3814 0.999 . S
C3812 H3782 0.950 . S
C3812 C3811 1.524 . S
C3812 C3813 1.415 . S
C3813 H3783 0.950 . S
C3813 C3808 1.363 . S
C3813 C3812 1.415 . S
H3814 C3811 0.999 . S
H3815 C3796 0.913 . S
C835 C451 1.489 . S
C850 C20 1.602 . S
C885 C54 1.602 . S
C900 C485 1.488 . S
C935 C88 1.602 . S
C950 C519 1.488 . S
C985 C417 1.488 . S
C1000 C122 1.602 . S
C1035 C383 1.488 . S
C1050 C156 1.602 . S
C1085 C281 1.488 . S
C1100 C190 1.602 . S
C1135 C224 1.601 . S
C1150 C315 1.490 . S
C1185 C349 1.488 . S
C1200 C258 1.602 . S
C1235 C292 1.602 . S
C1250 C43 1.488 . S
C1285 C326 1.602 . S
C1300 C77 1.489 . S
C1335 C360 1.602 . S
C1350 C111 1.488 . S
C1385 C9 1.488 . S
C1400 C394 1.602 . S
C1435 C247 1.489 . S
C1450 C428 1.602 . S
C1485 C462 1.602 . S
C1500 C145 1.488 . S
C1535 C496 1.602 . S
C1550 C179 1.489 . S
C1585 C213 1.488 . S
C1600 C530 1.602 . S
C1635 C757 1.490 . S
C1650 C564 1.601 . S
C1685 C598 1.602 . S
C1700 C621 1.488 . S
C1735 C632 1.602 . S
C1750 C655 1.489 . S
C1785 C689 1.489 . S
C1800 C666 1.602 . S
C1835 C700 1.602 . S
C1850 C587 1.488 . S
C1885 C791 1.490 . S
C1900 C734 1.601 . S
C1935 C768 1.601 . S
C1950 C723 1.489 . S
C1985 C553 1.488 . S
C2000 C802 1.602 . S
C2035 C549 1.017 . S
C2050 C33 1.016 . S
C2085 C787 1.017 . S
C2100 C67 1.017 . S
C2135 C101 1.016 . S
C2150 C719 1.017 . S
C2185 C753 1.017 . S
C2200 C135 1.017 . S
C2235 C583 1.017 . S
C2250 C169 1.016 . S
C2285 C617 1.017 . S
C2300 C203 1.016 . S
C2335 C651 1.017 . S
C2350 C237 1.016 . S
C2385 C271 1.016 . S
C2400 C685 1.017 . S
C2435 C305 1.016 . S
C2450 C5 1.017 . S
C2485 C339 1.016 . S
C2500 C39 1.017 . S
C2535 C373 1.016 . S
C2550 C73 1.017 . S
C2585 C407 1.016 . S
C2600 C107 1.017 . S
C2635 C441 1.016 . S
C2650 C141 1.017 . S
C2685 C175 1.016 . S
C2700 C475 1.016 . S
C2735 C209 1.017 . S
C2750 C509 1.016 . S
C2785 C543 1.016 . S
C2800 C243 1.017 . S
C2835 C277 1.017 . S
C2850 C577 1.017 . S
C2885 C413 1.017 . S
C2900 C611 1.016 . S
C2935 C447 1.017 . S
C2950 C645 1.016 . S
C2985 C481 1.017 . S
C3000 C679 1.017 . S
C3035 C713 1.017 . S
C3050 C515 1.017 . S
C3085 C747 1.017 . S
C3100 C345 1.017 . S
C3135 C781 1.016 . S
C3150 C379 1.017 . S
C3185 C311 1.017 . S
C3200 C815 1.016 . S
C3235 C682 1.119 . S
C3250 C2 1.118 . S
C3285 C36 1.118 . S
C3300 C580 1.119 . S
C3335 C614 1.119 . S
C3350 C70 1.118 . S
C3385 C104 1.118 . S
C3400 C648 1.119 . S
C3435 C784 1.118 . S
C3450 C138 1.119 . S
C3485 C716 1.119 . S
C3500 C172 1.119 . S
C3535 C206 1.118 . S
C3550 C750 1.119 . S
C3585 C546 1.119 . S
C3600 C240 1.119 . S
C3635 C512 1.119 . S
C3650 C274 1.118 . S
C3685 C410 1.118 . S
C3700 C308 1.119 . S
C3735 C444 1.119 . S
C3750 C342 1.118 . S
C3785 C478 1.118 . S
C3800 C376 1.119 . S
