# Generated by pormake.
# Topology vck, (7)-cn, num edge types: 1
# Building blocks:
#     Node 0, Type 0, BuildingBlock: NUHQUE_clean_sbu_2, # of connection points: 7
#     Node 1, Type 0, BuildingBlock: NUHQUE_clean_sbu_2, # of connection points: 7
#     Node 2, Type 0, BuildingBlock: NUHQUE_clean_sbu_2, # of connection points: 7
#     Node 3, Type 0, BuildingBlock: NUHQUE_clean_sbu_2, # of connection points: 7
#     Node 4, Type 0, BuildingBlock: NUHQUE_clean_sbu_2, # of connection points: 7
#     Node 5, Type 0, BuildingBlock: NUHQUE_clean_sbu_2, # of connection points: 7
#     Node 6, Type 0, BuildingBlock: NUHQUE_clean_sbu_2, # of connection points: 7
#     Node 7, Type 0, BuildingBlock: NUHQUE_clean_sbu_2, # of connection points: 7
#     Node 8, Type 0, BuildingBlock: NUHQUE_clean_sbu_2, # of connection points: 7
#     Node 9, Type 0, BuildingBlock: NUHQUE_clean_sbu_2, # of connection points: 7
#     Node 10, Type 0, BuildingBlock: NUHQUE_clean_sbu_2, # of connection points: 7
#     Node 11, Type 0, BuildingBlock: NUHQUE_clean_sbu_2, # of connection points: 7
#     Node 12, Type 0, BuildingBlock: NUHQUE_clean_sbu_2, # of connection points: 7
#     Node 13, Type 0, BuildingBlock: NUHQUE_clean_sbu_2, # of connection points: 7
#     Node 14, Type 0, BuildingBlock: NUHQUE_clean_sbu_2, # of connection points: 7
#     Node 15, Type 0, BuildingBlock: NUHQUE_clean_sbu_2, # of connection points: 7
#     Edge 16, Type (0, 0), BuildingBlock: UVAHIK_clean_linker_0, # of connection points: 2
#     Edge 17, Type (0, 0), BuildingBlock: UVAHIK_clean_linker_0, # of connection points: 2
#     Edge 18, Type (0, 0), BuildingBlock: UVAHIK_clean_linker_0, # of connection points: 2
#     Edge 19, Type (0, 0), BuildingBlock: UVAHIK_clean_linker_0, # of connection points: 2
#     Edge 20, Type (0, 0), BuildingBlock: UVAHIK_clean_linker_0, # of connection points: 2
#     Edge 21, Type (0, 0), BuildingBlock: UVAHIK_clean_linker_0, # of connection points: 2
#     Edge 22, Type (0, 0), BuildingBlock: UVAHIK_clean_linker_0, # of connection points: 2
#     Edge 23, Type (0, 0), BuildingBlock: UVAHIK_clean_linker_0, # of connection points: 2
#     Edge 24, Type (0, 0), BuildingBlock: UVAHIK_clean_linker_0, # of connection points: 2
#     Edge 25, Type (0, 0), BuildingBlock: UVAHIK_clean_linker_0, # of connection points: 2
#     Edge 26, Type (0, 0), BuildingBlock: UVAHIK_clean_linker_0, # of connection points: 2
#     Edge 27, Type (0, 0), BuildingBlock: UVAHIK_clean_linker_0, # of connection points: 2
#     Edge 28, Type (0, 0), BuildingBlock: UVAHIK_clean_linker_0, # of connection points: 2
#     Edge 29, Type (0, 0), BuildingBlock: UVAHIK_clean_linker_0, # of connection points: 2
#     Edge 30, Type (0, 0), BuildingBlock: UVAHIK_clean_linker_0, # of connection points: 2
#     Edge 31, Type (0, 0), BuildingBlock: UVAHIK_clean_linker_0, # of connection points: 2
#     Edge 32, Type (0, 0), BuildingBlock: UVAHIK_clean_linker_0, # of connection points: 2
#     Edge 33, Type (0, 0), BuildingBlock: UVAHIK_clean_linker_0, # of connection points: 2
#     Edge 34, Type (0, 0), BuildingBlock: UVAHIK_clean_linker_0, # of connection points: 2
#     Edge 35, Type (0, 0), BuildingBlock: UVAHIK_clean_linker_0, # of connection points: 2
#     Edge 36, Type (0, 0), BuildingBlock: UVAHIK_clean_linker_0, # of connection points: 2
#     Edge 37, Type (0, 0), BuildingBlock: UVAHIK_clean_linker_0, # of connection points: 2
#     Edge 38, Type (0, 0), BuildingBlock: UVAHIK_clean_linker_0, # of connection points: 2
#     Edge 39, Type (0, 0), BuildingBlock: UVAHIK_clean_linker_0, # of connection points: 2
#     Edge 40, Type (0, 0), BuildingBlock: UVAHIK_clean_linker_0, # of connection points: 2
#     Edge 41, Type (0, 0), BuildingBlock: UVAHIK_clean_linker_0, # of connection points: 2
#     Edge 42, Type (0, 0), BuildingBlock: UVAHIK_clean_linker_0, # of connection points: 2
#     Edge 43, Type (0, 0), BuildingBlock: UVAHIK_clean_linker_0, # of connection points: 2
#     Edge 44, Type (0, 0), BuildingBlock: UVAHIK_clean_linker_0, # of connection points: 2
#     Edge 45, Type (0, 0), BuildingBlock: UVAHIK_clean_linker_0, # of connection points: 2
#     Edge 46, Type (0, 0), BuildingBlock: UVAHIK_clean_linker_0, # of connection points: 2
#     Edge 47, Type (0, 0), BuildingBlock: UVAHIK_clean_linker_0, # of connection points: 2
#     Edge 48, Type (0, 0), BuildingBlock: UVAHIK_clean_linker_0, # of connection points: 2
#     Edge 49, Type (0, 0), BuildingBlock: UVAHIK_clean_linker_0, # of connection points: 2
#     Edge 50, Type (0, 0), BuildingBlock: UVAHIK_clean_linker_0, # of connection points: 2
#     Edge 51, Type (0, 0), BuildingBlock: UVAHIK_clean_linker_0, # of connection points: 2
#     Edge 52, Type (0, 0), BuildingBlock: UVAHIK_clean_linker_0, # of connection points: 2
#     Edge 53, Type (0, 0), BuildingBlock: UVAHIK_clean_linker_0, # of connection points: 2
#     Edge 54, Type (0, 0), BuildingBlock: UVAHIK_clean_linker_0, # of connection points: 2
#     Edge 55, Type (0, 0), BuildingBlock: UVAHIK_clean_linker_0, # of connection points: 2
#     Edge 56, Type (0, 0), BuildingBlock: UVAHIK_clean_linker_0, # of connection points: 2
#     Edge 57, Type (0, 0), BuildingBlock: UVAHIK_clean_linker_0, # of connection points: 2
#     Edge 58, Type (0, 0), BuildingBlock: UVAHIK_clean_linker_0, # of connection points: 2
#     Edge 59, Type (0, 0), BuildingBlock: UVAHIK_clean_linker_0, # of connection points: 2
#     Edge 60, Type (0, 0), BuildingBlock: UVAHIK_clean_linker_0, # of connection points: 2
#     Edge 61, Type (0, 0), BuildingBlock: UVAHIK_clean_linker_0, # of connection points: 2
#     Edge 62, Type (0, 0), BuildingBlock: UVAHIK_clean_linker_0, # of connection points: 2
#     Edge 63, Type (0, 0), BuildingBlock: UVAHIK_clean_linker_0, # of connection points: 2
#     Edge 64, Type (0, 0), BuildingBlock: UVAHIK_clean_linker_0, # of connection points: 2
#     Edge 65, Type (0, 0), BuildingBlock: UVAHIK_clean_linker_0, # of connection points: 2
#     Edge 66, Type (0, 0), BuildingBlock: UVAHIK_clean_linker_0, # of connection points: 2
#     Edge 67, Type (0, 0), BuildingBlock: UVAHIK_clean_linker_0, # of connection points: 2
#     Edge 68, Type (0, 0), BuildingBlock: UVAHIK_clean_linker_0, # of connection points: 2
#     Edge 69, Type (0, 0), BuildingBlock: UVAHIK_clean_linker_0, # of connection points: 2
#     Edge 70, Type (0, 0), BuildingBlock: UVAHIK_clean_linker_0, # of connection points: 2
#     Edge 71, Type (0, 0), BuildingBlock: UVAHIK_clean_linker_0, # of connection points: 2
# Relax obj value: 0.174
# Max RMSD: 0.201
# Mean RMSD: 0.201
data_MOF--net-vck--node1-NUHQUE_clean_sbu_2--edge1-UVAHIK_clean_linker_0
_symmetry_space_group_name_H-M    P1
_symmetry_Int_Tables_number       1
_symmetry_cell_setting            triclinic
loop_
_symmetry_equiv_pos_as_xyz
'x, y, z'
_cell_length_a     91.315574
_cell_length_b     62.53464
_cell_length_c     25.948143
_cell_angle_alpha  89.969268
_cell_angle_beta   90.018767
_cell_angle_gamma 89.996505
loop_
_atom_site_label
_atom_site_type_symbol
_atom_site_fract_x
_atom_site_fract_y
_atom_site_fract_z
_atom_type_partial_charge
O0 O 0.55144 0.14947 0.12342 0.0
Tb1 Tb 0.56392 0.12028 0.13425 0.0
Eu2 Eu 0.56387 0.12849 0.99849 0.0
C3 C 0.55623 0.16686 0.14638 0.0
O4 O 0.56872 0.16607 0.1714 0.0
C5 C 0.58693 0.14823 0.08034 0.0
O6 O 0.57843 0.09975 0.98785 0.0
C7 C 0.55763 0.14605 0.91017 0.0
C8 C 0.57283 0.08248 0.96668 0.0
O9 O 0.55907 0.0827 0.95194 0.0
C10 C 0.54584 0.09337 0.05878 0.0
C11 C 0.54835 0.14588 0.86314 0.0
C12 C 0.53731 0.16148 0.85802 0.0
C13 C 0.52924 0.16331 0.81229 0.0
C14 C 0.53212 0.14933 0.77151 0.0
C15 C 0.54343 0.13421 0.77467 0.0
C16 C 0.55157 0.13252 0.82066 0.0
O17 O 0.58533 0.1317 0.11114 0.0
O18 O 0.5775 0.1523 0.04321 0.0
O19 O 0.57475 0.11296 0.2079 0.0
O20 O 0.55162 0.11549 0.20564 0.0
C21 C 0.56283 0.11198 0.23529 0.0
O22 O 0.54431 0.10999 0.02801 0.0
O23 O 0.5567 0.09241 0.09192 0.0
O24 O 0.5677 0.13122 0.91575 0.0
O25 O 0.55145 0.15171 0.95392 0.0
H26 H 0.53528 0.17271 0.88903 0.0
H27 H 0.52624 0.15139 0.73548 0.0
H28 H 0.56056 0.12124 0.82273 0.0
O29 O 0.44595 0.85532 0.11488 0.0
Tb30 Tb 0.43094 0.8815 0.13068 0.0
Eu31 Eu 0.4306 0.87631 0.99192 0.0
C32 C 0.44167 0.83564 0.12473 0.0
O33 O 0.42805 0.83235 0.13885 0.0
C34 C 0.40744 0.85709 0.07274 0.0
O35 O 0.4161 0.90443 0.97283 0.0
C36 C 0.43771 0.85705 0.90662 0.0
C37 C 0.41202 0.91873 1.00707 0.0
O38 O 0.41569 0.91615 0.05556 0.0
C39 C 0.45109 0.9094 0.05761 0.0
C40 C 0.44658 0.85746 0.8587 0.0
C41 C 0.4579 0.84239 0.85282 0.0
C42 C 0.4655 0.84061 0.80608 0.0
C43 C 0.46184 0.85411 0.76504 0.0
C44 C 0.45022 0.86871 0.76913 0.0
C45 C 0.44265 0.87041 0.81625 0.0
O46 O 0.40927 0.87385 0.10231 0.0
O47 O 0.4171 0.85254 0.03688 0.0
O48 O 0.4333 0.86866 0.20868 0.0
O49 O 0.42637 0.90073 0.19989 0.0
C50 C 0.42943 0.88583 0.23318 0.0
O51 O 0.45009 0.8958 0.01883 0.0
O52 O 0.44283 0.90847 0.09917 0.0
O53 O 0.4266 0.87029 0.91059 0.0
O54 O 0.44452 0.85375 0.95062 0.0
H55 H 0.46048 0.83148 0.88403 0.0
H56 H 0.4673 0.85196 0.72828 0.0
H57 H 0.43346 0.88131 0.81916 0.0
O58 O 0.69467 0.3988 0.37431 0.0
Tb59 Tb 0.68182 0.36988 0.38445 0.0
Eu60 Eu 0.6811 0.37855 0.24755 0.0
C61 C 0.69009 0.41636 0.39712 0.0
O62 O 0.67748 0.41602 0.42141 0.0
C63 C 0.65864 0.39796 0.33177 0.0
O64 O 0.6676 0.34886 0.23453 0.0
C65 C 0.68769 0.39739 0.16117 0.0
C66 C 0.67154 0.33563 0.19763 0.0
O67 O 0.68303 0.34033 0.16931 0.0
C68 C 0.69882 0.34244 0.30604 0.0
C69 C 0.69616 0.3968 0.1124 0.0
C70 C 0.70713 0.41232 0.10508 0.0
C71 C 0.71473 0.41373 0.05833 0.0
C72 C 0.71146 0.39936 0.01874 0.0
C73 C 0.70021 0.38426 0.02415 0.0
C74 C 0.69249 0.38302 0.07114 0.0
O75 O 0.66034 0.38134 0.36214 0.0
O76 O 0.66796 0.40219 0.29448 0.0
O77 O 0.69387 0.36373 0.45595 0.0
O78 O 0.6707 0.3633 0.45788 0.0
C79 C 0.68251 0.36117 0.48543 0.0
O80 O 0.70037 0.35904 0.27522 0.0
O81 O 0.68848 0.34187 0.34126 0.0
O82 O 0.67628 0.38475 0.16646 0.0
O83 O 0.69503 0.4003 0.20427 0.0
H84 H 0.70949 0.42377 0.13534 0.0
H85 H 0.71701 0.40101 0.98198 0.0
H86 H 0.68358 0.3717 0.07504 0.0
O87 O 0.30164 0.60355 0.36868 0.0
Tb88 Tb 0.31413 0.63236 0.38403 0.0
Eu89 Eu 0.31593 0.62567 0.2454 0.0
C90 C 0.30624 0.5855 0.38912 0.0
O91 O 0.31881 0.58533 0.4137 0.0
C92 C 0.33853 0.60653 0.33102 0.0
O93 O 0.32989 0.6538 0.222 0.0
C94 C 0.30796 0.6053 0.16256 0.0
C95 C 0.3364 0.66653 0.25517 0.0
O96 O 0.33567 0.66225 0.30461 0.0
C97 C 0.29815 0.6619 0.30649 0.0
C98 C 0.29875 0.60524 0.11541 0.0
C99 C 0.28764 0.58975 0.11115 0.0
C100 C 0.27948 0.58775 0.06565 0.0
C101 C 0.28236 0.60143 0.02428 0.0
C102 C 0.29375 0.61645 0.02663 0.0
C103 C 0.30197 0.61834 0.07239 0.0
O104 O 0.33602 0.62234 0.36307 0.0
O105 O 0.32989 0.60265 0.2915 0.0
O106 O 0.32467 0.63747 0.45916 0.0
O107 O 0.30153 0.63686 0.45505 0.0
C108 C 0.31266 0.63894 0.48582 0.0
O109 O 0.29704 0.6462 0.27282 0.0
O110 O 0.30761 0.66133 0.34463 0.0
O111 O 0.3193 0.6182 0.16437 0.0
O112 O 0.3014 0.60294 0.20738 0.0
H113 H 0.28561 0.57876 0.14271 0.0
H114 H 0.2764 0.59923 0.98848 0.0
H115 H 0.31098 0.6296 0.07392 0.0
O116 O 0.55201 0.64864 0.62247 0.0
Tb117 Tb 0.5649 0.6197 0.63113 0.0
Eu118 Eu 0.565 0.62905 0.49464 0.0
C119 C 0.55654 0.66588 0.64671 0.0
O120 O 0.56904 0.66517 0.67169 0.0
C121 C 0.58744 0.64887 0.57832 0.0
O122 O 0.57835 0.59914 0.48297 0.0
C123 C 0.55875 0.64756 0.40752 0.0
C124 C 0.57439 0.58578 0.44638 0.0
O125 O 0.56299 0.59051 0.41763 0.0
C126 C 0.54707 0.59328 0.55305 0.0
C127 C 0.5506 0.64693 0.35804 0.0
C128 C 0.53978 0.66258 0.34949 0.0
C129 C 0.53254 0.664 0.30197 0.0
C130 C 0.53605 0.64948 0.26293 0.0
C131 C 0.54711 0.63419 0.2697 0.0
C132 C 0.55447 0.63297 0.31737 0.0
O133 O 0.58612 0.63217 0.60871 0.0
O134 O 0.57784 0.65291 0.54174 0.0
O135 O 0.57614 0.61173 0.7036 0.0
O136 O 0.55301 0.61425 0.70319 0.0
C137 C 0.5644 0.61052 0.73186 0.0
O138 O 0.54558 0.61004 0.52273 0.0
O139 O 0.55771 0.59216 0.58714 0.0
O140 O 0.57017 0.63503 0.41375 0.0
O141 O 0.55114 0.65046 0.45003 0.0
H142 H 0.53723 0.67408 0.37945 0.0
H143 H 0.53081 0.65107 0.22558 0.0
H144 H 0.56326 0.6215 0.32229 0.0
O145 O 0.44467 0.35701 0.62702 0.0
Tb146 Tb 0.43166 0.3859 0.63387 0.0
Eu147 Eu 0.43252 0.37609 0.49782 0.0
C148 C 0.44001 0.33992 0.65167 0.0
O149 O 0.42742 0.34083 0.67603 0.0
C150 C 0.41023 0.35566 0.58056 0.0
O151 O 0.41879 0.40559 0.48533 0.0
C152 C 0.43917 0.35771 0.41099 0.0
C153 C 0.42274 0.41895 0.4487 0.0
O154 O 0.43427 0.41438 0.42052 0.0
C155 C 0.44961 0.41265 0.55641 0.0
C156 C 0.44727 0.35851 0.36145 0.0
C157 C 0.45839 0.34329 0.35337 0.0
C158 C 0.46567 0.34198 0.306 0.0
C159 C 0.46194 0.35617 0.26652 0.0
C160 C 0.45055 0.371 0.27272 0.0
C161 C 0.44313 0.37211 0.32035 0.0
O162 O 0.41077 0.37306 0.60887 0.0
O163 O 0.42033 0.35174 0.5457 0.0
O164 O 0.42011 0.3933 0.70613 0.0
O165 O 0.44329 0.39208 0.70605 0.0
C166 C 0.43179 0.39517 0.73455 0.0
O167 O 0.4515 0.3959 0.52637 0.0
O168 O 0.43878 0.41348 0.58983 0.0
O169 O 0.42745 0.36966 0.41701 0.0
O170 O 0.44687 0.35534 0.45351 0.0
H171 H 0.46113 0.33198 0.38359 0.0
H172 H 0.46727 0.35463 0.22933 0.0
H173 H 0.43411 0.38321 0.32492 0.0
O174 O 0.6939 0.89851 0.87306 0.0
Tb175 Tb 0.68071 0.86973 0.87957 0.0
Eu176 Eu 0.68213 0.87944 0.74331 0.0
C177 C 0.68935 0.91571 0.89745 0.0
O178 O 0.67681 0.915 0.92218 0.0
C179 C 0.66017 0.9005 0.82487 0.0
O180 O 0.66811 0.85018 0.73211 0.0
C181 C 0.68864 0.89721 0.65556 0.0
C182 C 0.6719 0.83663 0.69569 0.0
O183 O 0.68347 0.84087 0.66738 0.0
C184 C 0.69915 0.84289 0.80303 0.0
C185 C 0.6964 0.89625 0.60536 0.0
C186 C 0.70769 0.91112 0.59673 0.0
C187 C 0.71457 0.91258 0.54867 0.0
C188 C 0.71029 0.89884 0.50898 0.0
C189 C 0.69874 0.8843 0.51574 0.0
C190 C 0.69172 0.88307 0.56418 0.0
O191 O 0.66013 0.88271 0.85172 0.0
O192 O 0.67064 0.90436 0.79143 0.0
O193 O 0.66833 0.86189 0.94981 0.0
O194 O 0.69141 0.86471 0.95414 0.0
C195 C 0.67959 0.86098 0.98053 0.0
O196 O 0.70099 0.85951 0.77242 0.0
O197 O 0.68841 0.8421 0.83686 0.0
O198 O 0.67677 0.88568 0.66258 0.0
O199 O 0.69661 0.89942 0.69749 0.0
H200 H 0.71084 0.92213 0.62706 0.0
H201 H 0.7153 0.90062 0.4713 0.0
H202 H 0.68258 0.87225 0.56934 0.0
O203 O 0.30154 0.10617 0.87361 0.0
Tb204 Tb 0.31398 0.13555 0.88129 0.0
Eu205 Eu 0.31381 0.12621 0.74572 0.0
C206 C 0.30638 0.08927 0.89859 0.0
O207 O 0.31881 0.09067 0.92382 0.0
C208 C 0.33624 0.10636 0.82881 0.0
O209 O 0.32819 0.15525 0.73665 0.0
C210 C 0.30802 0.1086 0.65713 0.0
C211 C 0.32306 0.17149 0.7099 0.0
O212 O 0.30996 0.16989 0.68931 0.0
C213 C 0.29559 0.16159 0.80424 0.0
C214 C 0.29918 0.10902 0.60908 0.0
C215 C 0.28813 0.09352 0.60267 0.0
C216 C 0.28035 0.09195 0.55628 0.0
C217 C 0.28352 0.1061 0.51611 0.0
C218 C 0.29485 0.12114 0.52057 0.0
C219 C 0.30272 0.12256 0.5672 0.0
O220 O 0.33519 0.12377 0.8569 0.0
O221 O 0.32657 0.10213 0.79262 0.0
O222 O 0.32524 0.14338 0.95383 0.0
O223 O 0.30209 0.14117 0.95314 0.0
C224 C 0.31347 0.14475 0.98191 0.0
O225 O 0.2942 0.1449 0.77367 0.0
O226 O 0.30642 0.1629 0.83753 0.0
O227 O 0.31844 0.12286 0.66352 0.0
O228 O 0.30126 0.10353 0.70024 0.0
H229 H 0.28586 0.08218 0.63327 0.0
H230 H 0.27784 0.1043 0.47962 0.0
H231 H 0.31171 0.1338 0.57031 0.0
O232 O 0.05107 0.14808 0.61972 0.0
Tb233 Tb 0.06411 0.11943 0.63079 0.0
Eu234 Eu 0.06401 0.12747 0.49503 0.0
C235 C 0.05548 0.16571 0.64258 0.0
O236 O 0.06795 0.16549 0.66779 0.0
C237 C 0.08661 0.14836 0.57707 0.0
O238 O 0.07852 0.09865 0.48448 0.0
C239 C 0.05749 0.14507 0.40706 0.0
C240 C 0.07337 0.08248 0.4576 0.0
O241 O 0.06018 0.08403 0.43768 0.0
C242 C 0.04662 0.09164 0.55505 0.0
C243 C 0.04855 0.14464 0.35926 0.0
C244 C 0.0375 0.16015 0.35311 0.0
C245 C 0.02967 0.16179 0.30683 0.0
C246 C 0.0328 0.14769 0.26654 0.0
C247 C 0.04413 0.13263 0.27078 0.0
C248 C 0.05204 0.13114 0.31729 0.0
O249 O 0.08531 0.13195 0.60839 0.0
O250 O 0.07711 0.15186 0.53983 0.0
O251 O 0.07507 0.11224 0.70424 0.0
O252 O 0.05193 0.1145 0.70238 0.0
C253 C 0.0632 0.11112 0.73182 0.0
O254 O 0.04481 0.1081 0.524 0.0
O255 O 0.05741 0.09121 0.58858 0.0
O256 O 0.06816 0.13115 0.41265 0.0
O257 O 0.0508 0.14974 0.45055 0.0
H258 H 0.03527 0.17145 0.38381 0.0
H259 H 0.0271 0.14956 0.23011 0.0
H260 H 0.06104 0.1199 0.32022 0.0
O261 O 0.94475 0.85323 0.62318 0.0
Tb262 Tb 0.9322 0.88246 0.63249 0.0
Eu263 Eu 0.93221 0.87431 0.49719 0.0
C264 C 0.93998 0.83592 0.64663 0.0
O265 O 0.92746 0.83675 0.67152 0.0
C266 C 0.90987 0.85339 0.57906 0.0
O267 O 0.91701 0.90255 0.48952 0.0
C268 C 0.93779 0.85756 0.40746 0.0
C269 C 0.92221 0.92038 0.46967 0.0
O270 O 0.93596 0.92102 0.455 0.0
C271 C 0.95084 0.90888 0.55703 0.0
C272 C 0.94702 0.85804 0.36036 0.0
C273 C 0.95817 0.84265 0.35478 0.0
C274 C 0.96622 0.84116 0.30895 0.0
C275 C 0.9632 0.85527 0.26854 0.0
C276 C 0.95178 0.87019 0.27218 0.0
C277 C 0.94366 0.87154 0.31824 0.0
O278 O 0.91098 0.87031 0.60886 0.0
O279 O 0.91954 0.84966 0.54256 0.0
O280 O 0.92118 0.89088 0.70506 0.0
O281 O 0.9442 0.88661 0.70466 0.0
C282 C 0.93296 0.8911 0.73331 0.0
O283 O 0.95203 0.89239 0.52574 0.0
O284 O 0.94004 0.91013 0.59041 0.0
O285 O 0.92803 0.87272 0.41442 0.0
O286 O 0.94396 0.85111 0.45059 0.0
H287 H 0.96032 0.8313 0.38548 0.0
H288 H 0.96906 0.85347 0.23243 0.0
H289 H 0.93459 0.88266 0.32066 0.0
O290 O 0.19327 0.39646 0.87606 0.0
Tb291 Tb 0.1797 0.36803 0.88023 0.0
Eu292 Eu 0.18117 0.37918 0.7443 0.0
C293 C 0.18897 0.41315 0.90295 0.0
O294 O 0.17651 0.41205 0.92812 0.0
C295 C 0.15986 0.40056 0.8281 0.0
O296 O 0.16682 0.3503 0.73205 0.0
C297 C 0.18788 0.39746 0.65731 0.0
C298 C 0.17034 0.33702 0.69472 0.0
O299 O 0.18182 0.34133 0.66601 0.0
C300 C 0.19776 0.34177 0.80187 0.0
C301 C 0.19556 0.39652 0.60697 0.0
C302 C 0.20672 0.41157 0.59787 0.0
C303 C 0.21371 0.41274 0.54992 0.0
C304 C 0.20964 0.39857 0.51087 0.0
C305 C 0.1982 0.38389 0.5181 0.0
C306 C 0.19107 0.38293 0.56631 0.0
O307 O 0.1594 0.38255 0.85417 0.0
O308 O 0.1703 0.40408 0.79425 0.0
O309 O 0.19095 0.36124 0.95281 0.0
O310 O 0.16777 0.36021 0.95154 0.0
C311 C 0.17932 0.35809 0.98058 0.0
O312 O 0.19983 0.35867 0.7724 0.0
O313 O 0.18683 0.34078 0.8349 0.0
O314 O 0.17579 0.38639 0.66404 0.0
O315 O 0.19596 0.39897 0.69916 0.0
H316 H 0.20975 0.42283 0.62782 0.0
H317 H 0.21476 0.39997 0.47328 0.0
H318 H 0.18203 0.37194 0.57172 0.0
O319 O 0.80127 0.6058 0.8741 0.0
Tb320 Tb 0.81409 0.63462 0.88576 0.0
Eu321 Eu 0.81357 0.62504 0.75164 0.0
C322 C 0.8055 0.5884 0.89844 0.0
O323 O 0.81767 0.58895 0.92537 0.0
C324 C 0.83608 0.6047 0.83437 0.0
O325 O 0.82739 0.65455 0.74036 0.0
C326 C 0.80754 0.60701 0.66377 0.0
C327 C 0.82209 0.66988 0.711 0.0
O328 O 0.80918 0.66712 0.68967 0.0
C329 C 0.79502 0.66053 0.80987 0.0
C330 C 0.79933 0.60779 0.61443 0.0
C331 C 0.78807 0.59276 0.60621 0.0
C332 C 0.78098 0.59132 0.55833 0.0
C333 C 0.78507 0.60521 0.51857 0.0
C334 C 0.79662 0.61969 0.52515 0.0
C335 C 0.80377 0.62101 0.57311 0.0
O336 O 0.83519 0.62195 0.86304 0.0
O337 O 0.82632 0.60079 0.79826 0.0
O338 O 0.80296 0.63296 0.96014 0.0
O339 O 0.82402 0.64711 0.95698 0.0
C340 C 0.8132 0.64194 0.98723 0.0
O341 O 0.79391 0.64387 0.77901 0.0
O342 O 0.80554 0.66193 0.84431 0.0
O343 O 0.81868 0.62004 0.67045 0.0
O344 O 0.8001 0.60337 0.7063 0.0
H345 H 0.78513 0.58164 0.63656 0.0
H346 H 0.77999 0.60363 0.48095 0.0
H347 H 0.81298 0.63178 0.57752 0.0
O348 O 0.05151 0.6488 0.12213 0.0
Tb349 Tb 0.0642 0.61963 0.13033 0.0
Eu350 Eu 0.06298 0.62927 0.99713 0.0
C351 C 0.05611 0.66576 0.14746 0.0
O352 O 0.06843 0.66451 0.17349 0.0
C353 C 0.08517 0.65045 0.07776 0.0
O354 O 0.07802 0.60076 0.99142 0.0
C355 C 0.05802 0.64569 0.90657 0.0
C356 C 0.0729 0.58298 0.97121 0.0
O357 O 0.05927 0.58248 0.95505 0.0
C358 C 0.04386 0.59474 0.05611 0.0
C359 C 0.0497 0.64457 0.85747 0.0
C360 C 0.03822 0.6592 0.84905 0.0
C361 C 0.03112 0.66032 0.80117 0.0
C362 C 0.03539 0.64648 0.76159 0.0
C363 C 0.04717 0.63239 0.76837 0.0
C364 C 0.05434 0.63143 0.81631 0.0
O365 O 0.08501 0.63272 0.10495 0.0
O366 O 0.07481 0.65432 0.0438 0.0
O367 O 0.05363 0.62109 0.20557 0.0
O368 O 0.07457 0.60663 0.20034 0.0
C369 C 0.06397 0.61181 0.23157 0.0
O370 O 0.04302 0.61128 0.02476 0.0
O371 O 0.05462 0.59281 0.08955 0.0
O372 O 0.06836 0.63153 0.91538 0.0
O373 O 0.05086 0.65133 0.94839 0.0
H374 H 0.03512 0.67033 0.87917 0.0
H375 H 0.03029 0.64783 0.72396 0.0
H376 H 0.06374 0.62102 0.82079 0.0
O377 O 0.94378 0.35436 0.1217 0.0
Tb378 Tb 0.93076 0.38307 0.13246 0.0
Eu379 Eu 0.93106 0.37479 0.99527 0.0
C380 C 0.93938 0.33699 0.14584 0.0
O381 O 0.92707 0.33766 0.17199 0.0
C382 C 0.90965 0.35287 0.07865 0.0
O383 O 0.91592 0.40208 0.97498 0.0
C384 C 0.93857 0.35549 0.91049 0.0
C385 C 0.90969 0.41459 0.00929 0.0
O386 O 0.91136 0.41052 0.05853 0.0
C387 C 0.94892 0.41143 0.05599 0.0
C388 C 0.94639 0.35642 0.86049 0.0
C389 C 0.95772 0.34163 0.85157 0.0
C390 C 0.96447 0.34021 0.80315 0.0
C391 C 0.96 0.35395 0.76357 0.0
C392 C 0.9484 0.36826 0.771 0.0
C393 C 0.94157 0.36954 0.8195 0.0
O394 O 0.90988 0.37 0.10779 0.0
O395 O 0.91988 0.34967 0.04389 0.0
O396 O 0.94151 0.38124 0.20745 0.0
O397 O 0.92026 0.39477 0.20344 0.0
C398 C 0.93101 0.38975 0.23417 0.0
O399 O 0.94972 0.39601 0.02141 0.0
O400 O 0.93946 0.41116 0.09424 0.0
O401 O 0.92634 0.36635 0.91567 0.0
O402 O 0.94644 0.35468 0.95293 0.0
H403 H 0.96095 0.33063 0.88186 0.0
H404 H 0.96484 0.35238 0.72555 0.0
H405 H 0.93232 0.38017 0.82461 0.0
O406 O 0.19546 0.89895 0.3698 0.0
Tb407 Tb 0.18292 0.86968 0.37792 0.0
Eu408 Eu 0.18318 0.87828 0.24256 0.0
C409 C 0.19071 0.91604 0.3942 0.0
O410 O 0.17819 0.91499 0.41897 0.0
C411 C 0.16087 0.8991 0.32454 0.0
O412 O 0.16815 0.84983 0.2353 0.0
C413 C 0.18868 0.89514 0.15284 0.0
C414 C 0.17347 0.83208 0.21556 0.0
O415 O 0.1872 0.8317 0.20047 0.0
C416 C 0.2019 0.8439 0.30248 0.0
C417 C 0.19791 0.89488 0.10573 0.0
C418 C 0.20898 0.9104 0.10036 0.0
C419 C 0.21702 0.91211 0.05456 0.0
C420 C 0.21406 0.8981 0.01393 0.0
C421 C 0.20271 0.88304 0.01735 0.0
C422 C 0.19461 0.88148 0.06342 0.0
O423 O 0.16178 0.88195 0.35367 0.0
O424 O 0.17062 0.90287 0.28833 0.0
O425 O 0.17185 0.861 0.45028 0.0
O426 O 0.19487 0.8653 0.45009 0.0
C427 C 0.18362 0.86072 0.47861 0.0
O428 O 0.20306 0.86047 0.27141 0.0
O429 O 0.19096 0.84233 0.33521 0.0
O430 O 0.179 0.87986 0.15975 0.0
O431 O 0.1948 0.90162 0.19599 0.0
H432 H 0.21108 0.92167 0.13124 0.0
H433 H 0.21991 0.90006 0.97784 0.0
H434 H 0.18559 0.87025 0.0657 0.0
O435 O 0.80121 0.10486 0.36788 0.0
Tb436 Tb 0.81442 0.13345 0.37715 0.0
Eu437 Eu 0.81236 0.12401 0.24416 0.0
C438 C 0.80549 0.08754 0.39249 0.0
O439 O 0.81777 0.08812 0.41889 0.0
C440 C 0.83468 0.10203 0.32352 0.0
O441 O 0.8275 0.15231 0.2366 0.0
C442 C 0.80671 0.10736 0.15442 0.0
C443 C 0.82234 0.17 0.21599 0.0
O444 O 0.80868 0.17045 0.20019 0.0
C445 C 0.79431 0.1594 0.3044 0.0
C446 C 0.79869 0.10831 0.1047 0.0
C447 C 0.78731 0.09356 0.09587 0.0
C448 C 0.78056 0.09206 0.04742 0.0
C449 C 0.7851 0.10565 1.00765 0.0
C450 C 0.79676 0.11989 0.01495 0.0
C451 C 0.80357 0.12125 0.06348 0.0
O452 O 0.83494 0.11965 0.35106 0.0
O453 O 0.82408 0.09862 0.29022 0.0
O454 O 0.80386 0.13204 0.45243 0.0
O455 O 0.82505 0.14574 0.44738 0.0
C456 C 0.81438 0.14082 0.47857 0.0
O457 O 0.79293 0.14295 0.273 0.0
O458 O 0.80532 0.16077 0.33696 0.0
O459 O 0.81759 0.12071 0.16255 0.0
O460 O 0.79922 0.10284 0.19635 0.0
H461 H 0.78403 0.08262 0.12618 0.0
H462 H 0.78028 0.10402 0.96963 0.0
H463 H 0.8129 0.13176 0.06839 0.0
C464 C 0.55336 0.206 0.1607 0.0
C465 C 0.54692 0.186 0.15148 0.0
C466 C 0.54471 0.22363 0.17354 0.0
C467 C 0.50583 0.24259 0.18241 0.0
H468 H 0.52244 0.28132 0.28354 0.0
C469 C 0.47137 0.30304 0.29954 0.0
C470 C 0.47601 0.32436 0.29498 0.0
C471 C 0.48027 0.28637 0.28206 0.0
C472 C 0.51771 0.27065 0.25516 0.0
H473 H 0.52639 0.16879 0.14685 0.0
H474 H 0.51129 0.19923 0.17136 0.0
H475 H 0.53724 0.25207 0.25001 0.0
H476 H 0.49369 0.34505 0.27038 0.0
H477 H 0.50956 0.31573 0.24149 0.0
H478 H 0.48607 0.26087 0.18976 0.0
C479 C 0.52297 0.20164 0.16729 0.0
C480 C 0.52621 0.25397 0.23544 0.0
C481 C 0.53162 0.18411 0.15329 0.0
C482 C 0.48994 0.3287 0.27452 0.0
C483 C 0.49897 0.312 0.25802 0.0
C484 C 0.49725 0.25903 0.20296 0.0
C485 C 0.52943 0.22156 0.17877 0.0
C486 C 0.52042 0.2397 0.19864 0.0
C487 C 0.49407 0.29073 0.26063 0.0
C488 C 0.50313 0.2732 0.23944 0.0
H489 H 0.56515 0.20791 0.15909 0.0
H490 H 0.55009 0.23879 0.18038 0.0
H491 H 0.50102 0.23227 0.15354 0.0
H492 H 0.46059 0.29933 0.31458 0.0
H493 H 0.47631 0.27007 0.28473 0.0
C494 C 0.46709 0.8225 0.14229 0.0
C495 C 0.45238 0.8181 0.13051 0.0
C496 C 0.47649 0.80601 0.1577 0.0
C497 C 0.48161 0.7476 0.1584 0.0
H498 H 0.50133 0.75699 0.28884 0.0
C499 C 0.50895 0.67795 0.26616 0.0
C500 C 0.52245 0.68191 0.29022 0.0
C501 C 0.50043 0.69486 0.24771 0.0
C502 C 0.49609 0.75416 0.25204 0.0
H503 H 0.43621 0.79295 0.12226 0.0
H504 H 0.45271 0.76415 0.14787 0.0
H505 H 0.48749 0.78602 0.24916 0.0
H506 H 0.53749 0.70661 0.31498 0.0
H507 H 0.5228 0.73618 0.282 0.0
H508 H 0.4903 0.7159 0.16057 0.0
C509 C 0.45695 0.78031 0.14576 0.0
C510 C 0.48817 0.77082 0.22931 0.0
C511 C 0.4475 0.7968 0.13118 0.0
C512 C 0.52702 0.70315 0.29722 0.0
C513 C 0.51858 0.72008 0.2782 0.0
C514 C 0.48966 0.73101 0.18078 0.0
C515 C 0.47141 0.78482 0.16066 0.0
C516 C 0.48074 0.76765 0.18251 0.0
C517 C 0.50532 0.71613 0.25221 0.0
C518 C 0.49688 0.73398 0.22821 0.0
H519 H 0.47113 0.83878 0.1424 0.0
H520 H 0.48764 0.80987 0.16851 0.0
H521 H 0.47608 0.74477 0.1221 0.0
H522 H 0.50515 0.6617 0.26055 0.0
H523 H 0.4901 0.6912 0.2292 0.0
C524 C 0.715 0.43272 0.40481 0.0
C525 C 0.69972 0.43517 0.40282 0.0
C526 C 0.72393 0.44994 0.41905 0.0
C527 C 0.72657 0.50791 0.42706 0.0
H528 H 0.75017 0.49842 0.54919 0.0
C529 C 0.75694 0.57784 0.52497 0.0
C530 C 0.77068 0.57365 0.54704 0.0
C531 C 0.74799 0.56103 0.50845 0.0
C532 C 0.74388 0.50135 0.51453 0.0
H533 H 0.68185 0.45772 0.4111 0.0
H534 H 0.69753 0.488 0.434 0.0
H535 H 0.73601 0.46905 0.51288 0.0
H536 H 0.78588 0.54875 0.56918 0.0
H537 H 0.77063 0.51944 0.53876 0.0
H538 H 0.73472 0.53992 0.42714 0.0
C539 C 0.70255 0.47272 0.4254 0.0
C540 C 0.73573 0.48448 0.49389 0.0
C541 C 0.6936 0.45541 0.41237 0.0
C542 C 0.7752 0.55236 0.55312 0.0
C543 C 0.76641 0.53556 0.53567 0.0
C544 C 0.73496 0.5247 0.447 0.0
C545 C 0.71774 0.46998 0.43025 0.0
C546 C 0.72695 0.48764 0.45016 0.0
C547 C 0.75273 0.53963 0.51248 0.0
C548 C 0.74369 0.52172 0.49129 0.0
H549 H 0.71999 0.41726 0.39803 0.0
H550 H 0.73564 0.4475 0.42231 0.0
H551 H 0.7199 0.51069 0.39317 0.0
H552 H 0.75323 0.59416 0.5199 0.0
H553 H 0.73741 0.56489 0.49209 0.0
C554 C 0.30237 0.5464 0.40246 0.0
C555 C 0.29646 0.5668 0.39328 0.0
C556 C 0.29323 0.52923 0.41492 0.0
C557 C 0.25989 0.51837 0.48311 0.0
H558 H 0.2604 0.4627 0.41757 0.0
C559 C 0.21972 0.45157 0.54317 0.0
C560 C 0.22412 0.4302 0.53803 0.0
C561 C 0.22867 0.46812 0.52531 0.0
C562 C 0.2603 0.478 0.43706 0.0
H563 H 0.27636 0.58511 0.38815 0.0
H564 H 0.26039 0.55512 0.41132 0.0
H565 H 0.27554 0.4915 0.38312 0.0
H566 H 0.24148 0.40925 0.5122 0.0
H567 H 0.25754 0.43811 0.48361 0.0
H568 H 0.24527 0.50492 0.53851 0.0
C569 C 0.27208 0.55246 0.40829 0.0
C570 C 0.26887 0.49453 0.41686 0.0
C571 C 0.28119 0.56953 0.39469 0.0
C572 C 0.23787 0.42566 0.5165 0.0
C573 C 0.24696 0.44222 0.49955 0.0
C574 C 0.25156 0.50175 0.50398 0.0
C575 C 0.27806 0.53228 0.41948 0.0
C576 C 0.26867 0.51488 0.43955 0.0
C577 C 0.24236 0.46369 0.50267 0.0
C578 C 0.25157 0.48132 0.48116 0.0
H579 H 0.31411 0.54387 0.40162 0.0
H580 H 0.29809 0.51383 0.42351 0.0
H581 H 0.25976 0.53386 0.5018 0.0
H582 H 0.20905 0.45543 0.55885 0.0
H583 H 0.22456 0.48433 0.52768 0.0
C584 C 0.4712 0.80164 0.80184 0.0
C585 C 0.47592 0.82289 0.79693 0.0
C586 C 0.4801 0.78482 0.78518 0.0
C587 C 0.51213 0.77425 0.6994 0.0
H588 H 0.51023 0.71805 0.76221 0.0
C589 C 0.55317 0.70478 0.66396 0.0
C590 C 0.54698 0.68472 0.65293 0.0
C591 C 0.54425 0.72206 0.67739 0.0
C592 C 0.51075 0.73364 0.74408 0.0
H593 H 0.49378 0.84332 0.77308 0.0
H594 H 0.50974 0.81399 0.74675 0.0
H595 H 0.49605 0.74733 0.79888 0.0
H596 H 0.52665 0.66709 0.64589 0.0
H597 H 0.51104 0.69729 0.67082 0.0
H598 H 0.52741 0.76049 0.64606 0.0
C599 C 0.49897 0.81019 0.76151 0.0
C600 C 0.50259 0.75045 0.76494 0.0
C601 C 0.48993 0.82702 0.77723 0.0
C602 C 0.53168 0.68243 0.65384 0.0
C603 C 0.52278 0.69961 0.66845 0.0
C604 C 0.52051 0.75752 0.67925 0.0
C605 C 0.49403 0.78886 0.76398 0.0
C606 C 0.5031 0.77102 0.74279 0.0
C607 C 0.52902 0.71946 0.68112 0.0
C608 C 0.51983 0.73706 0.70125 0.0
H609 H 0.46031 0.7981 0.81609 0.0
H610 H 0.47574 0.76875 0.78706 0.0
H611 H 0.5126 0.78964 0.68037 0.0
H612 H 0.56494 0.70696 0.66352 0.0
H613 H 0.54931 0.7372 0.68712 0.0
C614 C 0.46474 0.323 0.6595 0.0
C615 C 0.44942 0.32096 0.65848 0.0
C616 C 0.47349 0.30569 0.67442 0.0
C617 C 0.47502 0.24764 0.68646 0.0
H618 H 0.50026 0.25775 0.80419 0.0
C619 C 0.50483 0.17773 0.78558 0.0
C620 C 0.51908 0.1814 0.80372 0.0
C621 C 0.49601 0.19481 0.76993 0.0
C622 C 0.49348 0.25464 0.77079 0.0
H623 H 0.43128 0.29905 0.66917 0.0
H624 H 0.44664 0.26861 0.69343 0.0
H625 H 0.48633 0.28727 0.76723 0.0
H626 H 0.53529 0.20567 0.82038 0.0
H627 H 0.52018 0.23546 0.79157 0.0
H628 H 0.48241 0.21526 0.68848 0.0
C629 C 0.45183 0.28364 0.68353 0.0
C630 C 0.48548 0.27159 0.74975 0.0
C631 C 0.44307 0.30104 0.66975 0.0
C632 C 0.52423 0.20248 0.80734 0.0
C633 C 0.51552 0.21955 0.79079 0.0
C634 C 0.48323 0.23076 0.70683 0.0
C635 C 0.46708 0.28597 0.68732 0.0
C636 C 0.47613 0.26821 0.7076 0.0
C637 C 0.50137 0.21594 0.77096 0.0
C638 C 0.49251 0.23396 0.74956 0.0
H639 H 0.4699 0.33823 0.65133 0.0
H640 H 0.48525 0.30781 0.67678 0.0
H641 H 0.46792 0.24468 0.65378 0.0
H642 H 0.50064 0.16157 0.78247 0.0
H643 H 0.48506 0.19136 0.75627 0.0
C644 C 0.69227 0.95496 0.91031 0.0
C645 C 0.69869 0.93484 0.90246 0.0
C646 C 0.70094 0.97274 0.92182 0.0
C647 C 0.73994 0.99158 0.92903 0.0
H648 H 0.72335 0.03259 0.02479 0.0
C649 C 0.77437 0.05321 0.0431 0.0
C650 C 0.77013 0.07459 0.0358 0.0
C651 C 0.7654 0.03654 0.02609 0.0
C652 C 0.72807 0.02129 0.99786 0.0
H653 H 0.71918 0.91751 0.89927 0.0
H654 H 0.73432 0.94819 0.92178 0.0
H655 H 0.70844 0.00287 0.99437 0.0
H656 H 0.7531 0.09539 1.00645 0.0
H657 H 0.73707 0.06608 0.97843 0.0
H658 H 0.75983 0.0097 0.93502 0.0
C659 C 0.72265 0.9506 0.91746 0.0
C660 C 0.71951 0.00432 0.97991 0.0
C661 C 0.71398 0.93292 0.90467 0.0
C662 C 0.75654 0.07901 0.01275 0.0
C663 C 0.74742 0.06231 0.99674 0.0
C664 C 0.74858 0.00831 0.94791 0.0
C665 C 0.71623 0.97071 0.92719 0.0
C666 C 0.7253 0.98919 0.94513 0.0
C667 C 0.7519 0.04095 1.0024 0.0
C668 C 0.74272 0.02329 0.98245 0.0
H669 H 0.68049 0.95689 0.9083 0.0
H670 H 0.69557 0.988 0.92729 0.0
H671 H 0.74477 0.98063 0.90158 0.0
H672 H 0.78489 0.04942 0.06016 0.0
H673 H 0.76904 0.02018 0.0311 0.0
C674 C 0.24149 0.92632 0.02778 0.0
C675 C 0.22724 0.93012 0.0459 0.0
C676 C 0.25042 0.94336 0.01265 0.0
C677 C 0.24824 0.99603 0.95622 0.0
H678 H 0.2877 0.00463 1.00707 0.0
C679 C 0.28194 0.07152 0.90559 0.0
C680 C 0.29726 0.07 0.90493 0.0
C681 C 0.27342 0.05393 0.92022 0.0
C682 C 0.27682 0.00227 0.9915 0.0
H683 H 0.21115 0.95454 0.06298 0.0
H684 H 0.2267 0.9844 0.03555 0.0
H685 H 0.27308 0.97507 0.0402 0.0
H686 H 0.3157 0.04866 0.91541 0.0
H687 H 0.3009 0.01766 0.93789 0.0
H688 H 0.252 0.02259 0.90614 0.0
C689 C 0.23099 0.96826 0.03365 0.0
C690 C 0.26842 0.98542 0.01098 0.0
C691 C 0.22217 0.95126 0.04976 0.0
C692 C 0.30389 0.05029 0.91613 0.0
C693 C 0.29538 0.03259 0.92962 0.0
C694 C 0.25672 0.01263 0.93594 0.0
C695 C 0.24511 0.96443 0.01431 0.0
C696 C 0.25403 0.98226 0.9938 0.0
C697 C 0.28005 0.03432 0.93349 0.0
C698 C 0.27112 0.01609 0.9535 0.0
H699 H 0.24557 0.91012 0.02417 0.0
H700 H 0.26126 0.94003 0.99771 0.0
H701 H 0.23721 0.9937 0.94187 0.0
H702 H 0.27656 0.08661 0.89761 0.0
H703 H 0.26169 0.05607 0.92322 0.0
C704 C 0.9704 0.30135 0.79782 0.0
C705 C 0.9748 0.32266 0.79123 0.0
C706 C 0.97919 0.28461 0.78003 0.0
C707 C 0.01024 0.27384 0.68981 0.0
H708 H 0.00984 0.21846 0.75706 0.0
C709 C 0.05187 0.2048 0.65628 0.0
C710 C 0.04581 0.18449 0.64727 0.0
C711 C 0.04287 0.22211 0.66872 0.0
C712 C 0.00993 0.23381 0.73769 0.0
H713 H 0.99198 0.34332 0.76274 0.0
H714 H 0.0078 0.31416 0.7343 0.0
H715 H 0.99571 0.2478 0.79354 0.0
H716 H 0.02559 0.16644 0.64265 0.0
H717 H 0.00985 0.19671 0.66597 0.0
H718 H 0.02512 0.2598 0.63545 0.0
C719 C 0.99733 0.31022 0.75136 0.0
C720 C 0.00179 0.25066 0.75842 0.0
C721 C 0.98838 0.32697 0.76823 0.0
C722 C 0.03053 0.18197 0.64903 0.0
C723 C 0.02155 0.19919 0.6627 0.0
C724 C 0.01863 0.25708 0.66976 0.0
C725 C 0.99273 0.28879 0.75601 0.0
C726 C 0.00176 0.27093 0.73468 0.0
C727 C 0.02769 0.2193 0.67351 0.0
C728 C 0.01847 0.23691 0.69337 0.0
H729 H 0.95983 0.29765 0.8146 0.0
H730 H 0.97506 0.26846 0.78357 0.0
H731 H 0.01029 0.28899 0.6696 0.0
H732 H 0.06363 0.20715 0.65514 0.0
H733 H 0.04785 0.23746 0.67704 0.0
C734 C 0.02493 0.69913 0.79558 0.0
C735 C 0.02061 0.67771 0.78967 0.0
C736 C 0.0159 0.71569 0.77823 0.0
C737 C 0.97852 0.73094 0.75081 0.0
H738 H 0.99506 0.77037 0.65115 0.0
C739 C 0.94275 0.7967 0.66051 0.0
C740 C 0.94924 0.81671 0.65165 0.0
C741 C 0.95137 0.77893 0.67259 0.0
C742 C 0.99028 0.75976 0.67951 0.0
H743 H 0.00339 0.65674 0.76262 0.0
H744 H 0.98727 0.68587 0.73401 0.0
H745 H 0.0101 0.74152 0.68581 0.0
H746 H 0.9698 0.83381 0.64711 0.0
H747 H 0.98486 0.80315 0.6704 0.0
H748 H 0.95896 0.74952 0.74689 0.0
C749 C -0.00228 0.68975 0.75148 0.0
C750 C -0.00109 0.74317 0.69911 0.0
C751 C 0.00689 0.67315 0.76782 0.0
C752 C 0.96454 0.81849 0.65327 0.0
C753 C 0.97317 0.80082 0.66654 0.0
C754 C 0.96997 0.74779 0.73209 0.0
C755 C 0.00229 0.71113 0.75559 0.0
C756 C 0.9931 0.72863 0.7349 0.0
C757 C 0.96668 0.78086 0.67741 0.0
C758 C 0.97571 0.76247 0.69608 0.0
H759 H 0.03555 0.70302 0.81168 0.0
H760 H 0.01961 0.73207 0.78205 0.0
H761 H 0.97385 0.71999 0.77868 0.0
H762 H 0.93096 0.79487 0.65902 0.0
H763 H 0.94596 0.76377 0.67899 0.0
C764 C 0.27426 0.54866 0.0609 0.0
C765 C 0.26918 0.56978 0.05793 0.0
C766 C 0.26543 0.53173 0.04441 0.0
C767 C 0.23289 0.52131 0.96119 0.0
H768 H 0.23592 0.46436 0.01938 0.0
C769 C 0.1923 0.45177 0.92301 0.0
C770 C 0.19851 0.43189 0.91046 0.0
C771 C 0.2012 0.46895 0.93723 0.0
C772 C 0.23509 0.48017 1.00252 0.0
H773 H 0.25074 0.58986 0.03808 0.0
H774 H 0.23493 0.56031 0.01209 0.0
H775 H 0.25005 0.49352 0.05701 0.0
H776 H 0.21886 0.41446 0.90157 0.0
H777 H 0.23446 0.44448 0.92786 0.0
H778 H 0.2174 0.50788 0.90811 0.0
C779 C 0.24592 0.55671 0.02514 0.0
C780 C 0.2432 0.49691 0.02395 0.0
C781 C 0.25486 0.57365 0.0407 0.0
C782 C 0.21381 0.42967 0.91073 0.0
C783 C 0.22271 0.44674 0.92612 0.0
C784 C 0.22457 0.50464 0.94046 0.0
C785 C 0.25122 0.53555 0.0253 0.0
C786 C 0.24225 0.51774 1.00353 0.0
C787 C 0.21644 0.46641 0.94022 0.0
C788 C 0.22564 0.48392 0.96081 0.0
H789 H 0.28537 0.54534 0.07323 0.0
H790 H 0.27003 0.51578 0.04455 0.0
H791 H 0.23209 0.53693 0.94343 0.0
H792 H 0.18052 0.45389 0.92301 0.0
H793 H 0.19611 0.48394 0.94804 0.0
C794 C 0.78056 0.57201 0.90258 0.0
C795 C 0.79585 0.5696 0.90291 0.0
C796 C 0.77151 0.55486 0.91627 0.0
C797 C 0.76911 0.49688 0.92786 0.0
H798 H 0.74415 0.50756 0.04596 0.0
C799 C 0.73898 0.42767 0.0287 0.0
C800 C 0.72488 0.43164 0.04781 0.0
C801 C 0.74783 0.44455 0.01203 0.0
C802 C 0.75083 0.5043 0.01243 0.0
H803 H 0.81367 0.5472 0.9145 0.0
H804 H 0.7978 0.51703 0.93654 0.0
H805 H 0.75837 0.53674 0.00892 0.0
H806 H 0.70891 0.45619 0.06488 0.0
H807 H 0.72403 0.48564 0.03421 0.0
H808 H 0.76135 0.46468 0.9299 0.0
C809 C 0.79285 0.53222 0.92653 0.0
C810 C 0.759 0.52105 0.99134 0.0
C811 C 0.8019 0.54946 0.914 0.0
C812 C 0.71987 0.45279 0.05109 0.0
C813 C 0.72858 0.46966 0.0335 0.0
C814 C 0.76073 0.48019 0.94826 0.0
C815 C 0.77761 0.53494 0.92925 0.0
C816 C 0.76828 0.51745 0.94912 0.0
C817 C 0.74262 0.46576 0.01297 0.0
C818 C 0.75155 0.4836 0.99116 0.0
H819 H 0.77563 0.58742 0.89457 0.0
H820 H 0.75977 0.55727 0.91788 0.0
H821 H 0.77616 0.49376 0.89515 0.0
H822 H 0.74306 0.41144 0.02585 0.0
H823 H 0.75868 0.44089 0.99783 0.0
C824 C 0.05336 0.70472 0.16409 0.0
C825 C 0.04686 0.68489 0.1534 0.0
C826 C 0.04477 0.72227 0.17792 0.0
C827 C 0.006 0.74156 0.18684 0.0
H828 H 0.02256 0.77887 0.29114 0.0
C829 C 0.97151 0.80208 0.30329 0.0
C830 C 0.9765 0.82328 0.29993 0.0
C831 C 0.98035 0.78522 0.28649 0.0
C832 C 0.01784 0.7686 0.26191 0.0
H833 H 0.02628 0.66791 0.14709 0.0
H834 H 0.01125 0.69821 0.17324 0.0
H835 H 0.03723 0.7497 0.25646 0.0
H836 H 0.99474 0.84352 0.27844 0.0
H837 H 0.01047 0.81387 0.25075 0.0
H838 H 0.98639 0.76018 0.19427 0.0
C839 C 0.02294 0.70055 0.16964 0.0
C840 C 0.02627 0.75197 0.24155 0.0
C841 C 0.03155 0.68311 0.15468 0.0
C842 C 0.99072 0.82727 0.28168 0.0
C843 C -0.00033 0.81037 0.26585 0.0
C844 C 0.99749 0.75795 0.20798 0.0
C845 C 0.02947 0.72026 0.18265 0.0
C846 C 0.0205 0.73825 0.20351 0.0
C847 C 0.99442 0.78926 0.26694 0.0
C848 C 0.00336 0.77162 0.24559 0.0
H849 H 0.06516 0.70655 0.16289 0.0
H850 H 0.05019 0.73729 0.18593 0.0
H851 H 0.00122 0.73165 0.15707 0.0
H852 H 0.96051 0.79865 0.31658 0.0
H853 H 0.97612 0.76905 0.28798 0.0
C854 C 0.94254 0.29792 0.15982 0.0
C855 C 0.94886 0.31803 0.15082 0.0
C856 C 0.95127 0.28047 0.17338 0.0
C857 C 0.99018 0.26204 0.18506 0.0
H858 H 0.97326 0.22361 0.2863 0.0
C859 C 0.02439 0.2009 0.30137 0.0
C860 C 0.01943 0.17971 0.29737 0.0
C861 C 0.01561 0.21781 0.28438 0.0
C862 C 0.97809 0.23419 0.25792 0.0
H863 H 0.96924 0.33561 0.14708 0.0
H864 H 0.9845 0.30543 0.17273 0.0
H865 H 0.95857 0.25273 0.25156 0.0
H866 H 0.00131 0.15953 0.27445 0.0
H867 H 0.98568 0.18923 0.24639 0.0
H868 H 0.0099 0.24373 0.19339 0.0
C869 C 0.97286 0.30283 0.16804 0.0
C870 C 0.96965 0.2508 0.23752 0.0
C871 C 0.96413 0.3202 0.15334 0.0
C872 C 0.00531 0.17577 0.2782 0.0
C873 C 0.99641 0.19271 0.26215 0.0
C874 C -0.00131 0.24564 0.20624 0.0
C875 C 0.9665 0.28284 0.17956 0.0
C876 C 0.97553 0.26492 0.20054 0.0
C877 C 0.00162 0.21383 0.26397 0.0
C878 C 0.9927 0.23154 0.24271 0.0
H879 H 0.93078 0.29581 0.15766 0.0
H880 H 0.94598 0.26524 0.18017 0.0
H881 H 0.99506 0.27229 0.15617 0.0
H882 H 0.03532 0.20431 0.31539 0.0
H883 H 0.01981 0.23399 0.28649 0.0
C884 C 0.1937 0.95494 0.41237 0.0
C885 C 0.20007 0.93507 0.40075 0.0
C886 C 0.20246 0.97236 0.42604 0.0
C887 C 0.23609 0.98431 0.49201 0.0
H888 H 0.23335 0.04065 0.43048 0.0
C889 C 0.27514 0.05286 0.55028 0.0
C890 C 0.27014 0.07401 0.54664 0.0
C891 C 0.26638 0.03594 0.53332 0.0
C892 C 0.23408 0.02516 0.44891 0.0
H893 H 0.22058 0.91792 0.39285 0.0
H894 H 0.23591 0.94835 0.41815 0.0
H895 H 0.21871 0.01138 0.39584 0.0
H896 H 0.25191 0.09415 0.52472 0.0
H897 H 0.2362 0.06461 0.49783 0.0
H898 H 0.2509 0.998 0.54652 0.0
C899 C 0.22415 0.95042 0.41611 0.0
C900 C 0.22578 0.00836 0.42858 0.0
C901 C 0.2154 0.93311 0.40129 0.0
C902 C 0.25598 0.07792 0.52786 0.0
C903 C 0.24709 0.06098 0.51183 0.0
C904 C 0.24416 1.00118 0.51304 0.0
C905 C 0.21772 0.97008 0.4294 0.0
C906 C 0.22679 0.98778 0.44977 0.0
C907 C 0.25229 0.03977 0.51308 0.0
C908 C 0.24333 0.02186 0.49169 0.0
H909 H 0.18191 0.95687 0.41218 0.0
H910 H 0.19727 0.98735 0.43624 0.0
H911 H 0.23686 0.96862 0.50954 0.0
H912 H 0.28613 0.0495 0.5638 0.0
H913 H 0.27093 0.01997 0.53425 0.0
C914 C 0.72051 0.95142 0.54367 0.0
C915 C 0.72494 0.93012 0.53732 0.0
C916 C 0.72939 0.96814 0.52648 0.0
C917 C 0.76074 0.97894 0.43789 0.0
H918 H 0.76009 0.03426 0.50531 0.0
C919 C 0.80217 0.04845 0.40646 0.0
C920 C 0.79597 0.06862 0.3968 0.0
C921 C 0.79326 0.031 0.41848 0.0
C922 C 0.76025 0.01892 0.48592 0.0
H923 H 0.74226 0.90944 0.50998 0.0
H924 H 0.75823 0.93861 0.48252 0.0
H925 H 0.74593 0.00482 0.54132 0.0
H926 H 0.77565 0.08632 0.39044 0.0
H927 H 0.76004 0.0558 0.41309 0.0
H928 H 0.77572 0.99311 0.38398 0.0
C929 C 0.74767 0.94253 0.49894 0.0
C930 C 0.75211 0.00203 0.50636 0.0
C931 C 0.73864 0.92579 0.51522 0.0
C932 C 0.78068 0.07089 0.39738 0.0
C933 C 0.77178 0.05353 0.41064 0.0
C934 C 0.76914 0.99575 0.41813 0.0
C935 C 0.74304 0.96396 0.50331 0.0
C936 C 0.75215 0.9818 0.48249 0.0
C937 C 0.77803 0.03357 0.42217 0.0
C938 C 0.76887 0.0159 0.44179 0.0
H939 H 0.70986 0.95511 0.5598 0.0
H940 H 0.72525 0.9843 0.52975 0.0
H941 H 0.76086 0.96382 0.41765 0.0
H942 H 0.81395 0.04632 0.40617 0.0
H943 H 0.79831 0.01576 0.42737 0.0
C944 C 0.5616 0.12448 0.70601 0.0
C945 C 0.54747 0.12247 0.72697 0.0
C946 C 0.5643 0.11871 0.65462 0.0
C947 C 0.54388 0.11724 0.53364 0.0
H948 H 0.57864 0.0913 0.47509 0.0
C949 C 0.54842 0.10513 0.31518 0.0
C950 C 0.56201 0.10894 0.29173 0.0
C951 C 0.54727 0.10377 0.36878 0.0
C952 C 0.56893 0.09877 0.49078 0.0
H953 H 0.52549 0.11099 0.71244 0.0
H954 H 0.53021 0.10064 0.62333 0.0
H955 H 0.57585 0.09325 0.56889 0.0
H956 H 0.58514 0.11384 0.3057 0.0
H957 H 0.58312 0.11216 0.39967 0.0
H958 H 0.53711 0.12358 0.4565 0.0
C959 C 0.53914 0.10709 0.646 0.0
C960 C 0.56731 0.09979 0.54454 0.0
C961 C 0.53646 0.11284 0.69714 0.0
C962 C 0.57452 0.11083 0.32286 0.0
C963 C 0.57335 0.10975 0.37672 0.0
C964 C 0.54555 0.11642 0.48021 0.0
C965 C 0.55289 0.11086 0.62341 0.0
C966 C 0.55471 0.10894 0.56654 0.0
C967 C 0.55965 0.10655 0.40048 0.0
C968 C 0.55804 0.10709 0.45784 0.0
H969 H 0.57026 0.13206 0.72796 0.0
H970 H 0.57501 0.12182 0.63835 0.0
H971 H 0.53422 0.12492 0.54924 0.0
H972 H 0.53861 0.10341 0.29208 0.0
H973 H 0.53659 0.10071 0.38535 0.0
C974 C 0.42628 0.90762 0.31377 0.0
C975 C 0.42892 0.88783 0.2899 0.0
C976 C 0.42628 0.90929 0.36769 0.0
C977 C 0.42281 0.87675 0.48653 0.0
H978 H 0.44523 0.92198 0.55145 0.0
C979 C 0.43035 0.87785 0.70608 0.0
C980 C 0.44505 0.87964 0.72156 0.0
C981 C 0.42617 0.88338 0.65585 0.0
C982 C 0.43886 0.90932 0.53393 0.0
H983 H 0.43349 0.8543 0.30341 0.0
H984 H 0.43347 0.85715 0.39702 0.0
H985 H 0.44216 0.92181 0.45782 0.0
H986 H 0.46661 0.89033 0.69818 0.0
H987 H 0.45938 0.89992 0.61077 0.0
H988 H 0.42002 0.86369 0.56203 0.0
C989 C 0.43127 0.87137 0.37444 0.0
C990 C 0.437 0.90931 0.48031 0.0
C991 C 0.43138 0.86975 0.32076 0.0
C992 C 0.45521 0.88869 0.68721 0.0
C993 C 0.45104 0.89428 0.63714 0.0
C994 C 0.42461 0.8768 0.54003 0.0
C995 C 0.42878 0.89115 0.39863 0.0
C996 C 0.42927 0.89271 0.45589 0.0
C997 C 0.43659 0.89089 0.62018 0.0
C998 C 0.43294 0.8928 0.56434 0.0
H999 H 0.42435 0.92181 0.29081 0.0
H1000 H 0.42426 0.92473 0.38517 0.0
H1001 H 0.41663 0.86388 0.46899 0.0
H1002 H 0.42229 0.8708 0.73153 0.0
H1003 H 0.41491 0.88089 0.64427 0.0
C1004 C 0.69642 0.35327 0.56606 0.0
C1005 C 0.68307 0.35809 0.54193 0.0
C1006 C 0.69731 0.35184 0.61974 0.0
C1007 C 0.67493 0.34865 0.74063 0.0
H1008 H 0.71028 0.37199 0.80119 0.0
C1009 C 0.68196 0.37479 0.95567 0.0
C1010 C 0.69589 0.37195 0.97765 0.0
C1011 C 0.67934 0.3688 0.90435 0.0
C1012 C 0.70042 0.36508 0.78502 0.0
H1013 H 0.6601 0.36477 0.55484 0.0
H1014 H 0.6617 0.36298 0.64882 0.0
H1015 H 0.70786 0.37063 0.70829 0.0
H1016 H 0.71754 0.35885 0.96518 0.0
H1017 H 0.71293 0.34801 0.87631 0.0
H1018 H 0.66737 0.34396 0.8183 0.0
C1019 C 0.67145 0.35981 0.62639 0.0
C1020 C 0.69902 0.36426 0.73149 0.0
C1021 C 0.67053 0.36096 0.57249 0.0
C1022 C 0.70671 0.36125 0.9491 0.0
C1023 C 0.7041 0.35526 0.89806 0.0
C1024 C 0.67629 0.34968 0.79449 0.0
C1025 C 0.68492 0.35555 0.65085 0.0
C1026 C 0.6863 0.35597 0.70834 0.0
C1027 C 0.69063 0.3599 0.87427 0.0
C1028 C 0.68909 0.35784 0.81728 0.0
H1029 H 0.70624 0.3508 0.54341 0.0
H1030 H 0.7078 0.34798 0.63684 0.0
H1031 H 0.66502 0.34197 0.72437 0.0
H1032 H 0.67349 0.38324 0.97664 0.0
H1033 H 0.66885 0.37261 0.88717 0.0
C1034 C 0.29816 0.64532 0.56589 0.0
C1035 C 0.31171 0.64131 0.54243 0.0
C1036 C 0.29699 0.64644 0.61955 0.0
C1037 C 0.31881 0.65079 0.74134 0.0
H1038 H 0.28387 0.62561 0.80059 0.0
C1039 C 0.31176 0.62564 0.95701 0.0
C1040 C 0.29771 0.62793 0.97844 0.0
C1041 C 0.31434 0.6312 0.90538 0.0
C1042 C 0.29361 0.63302 0.78477 0.0
H1043 H 0.33476 0.63565 0.55649 0.0
H1044 H 0.33271 0.63691 0.6504 0.0
H1045 H 0.28661 0.62691 0.70773 0.0
H1046 H 0.27576 0.63962 0.9644 0.0
H1047 H 0.28027 0.64962 0.87491 0.0
H1048 H 0.32594 0.65612 0.81925 0.0
C1049 C 0.32299 0.63969 0.62748 0.0
C1050 C 0.29518 0.63381 0.73128 0.0
C1051 C 0.32417 0.63883 0.57363 0.0
C1052 C 0.28667 0.63757 0.94874 0.0
C1053 C 0.28923 0.64312 0.89738 0.0
C1054 C 0.31728 0.64981 0.79513 0.0
C1055 C 0.30933 0.64325 0.65125 0.0
C1056 C 0.30777 0.64276 0.70864 0.0
C1057 C 0.30289 0.63911 0.87439 0.0
C1058 C 0.30461 0.64099 0.81744 0.0
H1059 H 0.28839 0.64748 0.54274 0.0
H1060 H 0.28635 0.64972 0.63616 0.0
H1061 H 0.32859 0.658 0.72545 0.0
H1062 H 0.32043 0.61804 0.97884 0.0
H1063 H 0.32499 0.6279 0.88883 0.0
C1064 C 0.56548 0.62441 0.20198 0.0
C1065 C 0.55155 0.62154 0.2239 0.0
C1066 C 0.56814 0.61828 0.15077 0.0
C1067 C 0.5471 0.61474 0.03169 0.0
H1068 H 0.58218 0.59079 0.97065 0.0
C1069 C 0.55059 0.60298 0.81278 0.0
C1070 C 0.56396 0.60729 0.78832 0.0
C1071 C 0.54979 0.60153 0.86647 0.0
C1072 C 0.57236 0.59771 0.987 0.0
H1073 H 0.52995 0.60828 0.21152 0.0
H1074 H 0.53462 0.59724 0.12284 0.0
H1075 H 0.57996 0.59288 0.06463 0.0
H1076 H 0.58707 0.61303 0.80062 0.0
H1077 H 0.58565 0.61128 0.89466 0.0
H1078 H 0.53965 0.62051 0.95509 0.0
C1079 C 0.54342 0.60455 0.14458 0.0
C1080 C 0.57108 0.59879 0.0409 0.0
C1081 C 0.54079 0.61066 0.1955 0.0
C1082 C 0.57662 0.60961 0.81854 0.0
C1083 C 0.5758 0.60849 0.87248 0.0
C1084 C 0.54843 0.6139 0.97814 0.0
C1085 C 0.55687 0.60925 0.12079 0.0
C1086 C 0.55838 0.60721 0.06381 0.0
C1087 C 0.5623 0.60477 0.89729 0.0
C1088 C 0.56103 0.60529 0.95482 0.0
H1089 H 0.5739 0.63302 0.22283 0.0
H1090 H 0.57861 0.62211 0.13355 0.0
H1091 H 0.53733 0.62186 0.04799 0.0
H1092 H 0.54067 0.60093 0.79039 0.0
H1093 H 0.53927 0.59806 0.88378 0.0
C1094 C 0.43189 0.37991 0.20509 0.0
C1095 C 0.44584 0.38323 0.22651 0.0
C1096 C 0.429 0.38588 0.15389 0.0
C1097 C 0.44961 0.39037 0.03379 0.0
H1098 H 0.41389 0.41301 0.97437 0.0
C1099 C 0.44542 0.40326 0.8155 0.0
C1100 C 0.43215 0.39831 0.79107 0.0
C1101 C 0.44626 0.40448 0.8692 0.0
C1102 C 0.42389 0.40646 0.99028 0.0
H1103 H 0.46722 0.39709 0.21317 0.0
H1104 H 0.46213 0.40786 0.12456 0.0
H1105 H 0.41642 0.41068 0.06826 0.0
H1106 H 0.40921 0.39122 0.80348 0.0
H1107 H 0.41071 0.39263 0.89762 0.0
H1108 H 0.45696 0.38527 0.95682 0.0
C1109 C 0.4535 0.40029 0.14665 0.0
C1110 C 0.42535 0.40523 0.04412 0.0
C1111 C 0.45638 0.39434 0.19755 0.0
C1112 C 0.41959 0.39515 0.82138 0.0
C1113 C 0.42046 0.39606 0.87536 0.0
C1114 C 0.44811 0.39138 0.98031 0.0
C1115 C 0.44004 0.39521 0.12339 0.0
C1116 C 0.43829 0.39729 0.06646 0.0
C1117 C 0.43388 0.40037 0.9001 0.0
C1118 C 0.43528 0.39956 0.95758 0.0
H1119 H 0.42364 0.37114 0.22637 0.0
H1120 H 0.41851 0.38174 0.13712 0.0
H1121 H 0.45957 0.38361 0.0496 0.0
H1122 H 0.45526 0.40596 0.79307 0.0
H1123 H 0.4567 0.40843 0.88648 0.0
C1124 C 0.7036 0.86255 0.43677 0.0
C1125 C 0.69343 0.87251 0.46955 0.0
C1126 C 0.69965 0.85644 0.38688 0.0
C1127 C 0.67316 0.87164 0.28552 0.0
H1128 H 0.69292 0.82668 0.20977 0.0
C1129 C 0.66589 0.85956 0.06444 0.0
C1130 C 0.67912 0.85792 0.03711 0.0
C1131 C 0.66575 0.85824 0.11844 0.0
C1132 C 0.6873 0.8393 0.2304 0.0
H1133 H 0.67083 0.88245 0.477 0.0
H1134 H 0.66372 0.87117 0.39013 0.0
H1135 H 0.69535 0.82842 0.3033 0.0
H1136 H 0.70251 0.85308 0.04457 0.0
H1137 H 0.70227 0.85038 0.13846 0.0
H1138 H 0.66522 0.88257 0.21226 0.0
C1139 C 0.67489 0.86851 0.40263 0.0
C1140 C 0.68872 0.84036 0.28408 0.0
C1141 C 0.67888 0.87467 0.45275 0.0
C1142 C 0.69214 0.85436 0.06461 0.0
C1143 C 0.69199 0.85271 0.11838 0.0
C1144 C 0.67162 0.87044 0.23184 0.0
C1145 C 0.68537 0.86005 0.36833 0.0
C1146 C 0.682 0.8569 0.31234 0.0
C1147 C 0.67882 0.85488 0.14605 0.0
C1148 C 0.67898 0.85459 0.20352 0.0
H1149 H 0.7149 0.86069 0.44868 0.0
H1150 H 0.7081 0.85017 0.36187 0.0
H1151 H 0.66797 0.8848 0.30556 0.0
H1152 H 0.65569 0.86239 0.0442 0.0
H1153 H 0.65543 0.85989 0.13862 0.0
C1154 C 0.29952 0.15234 0.06238 0.0
C1155 C 0.31294 0.14796 0.03834 0.0
C1156 C 0.29857 0.15364 0.11603 0.0
C1157 C 0.32064 0.15712 0.23744 0.0
H1158 H 0.28554 0.13226 0.29628 0.0
C1159 C 0.31318 0.13068 0.45232 0.0
C1160 C 0.29912 0.13317 0.47355 0.0
C1161 C 0.31592 0.13664 0.40105 0.0
C1162 C 0.29533 0.13958 0.2806 0.0
H1163 H 0.336 0.14203 0.05133 0.0
H1164 H 0.33432 0.1436 0.14541 0.0
H1165 H 0.28824 0.1339 0.20353 0.0
H1166 H 0.27736 0.14564 0.45975 0.0
H1167 H 0.28218 0.15637 0.37094 0.0
H1168 H 0.32786 0.16195 0.3155 0.0
C1169 C 0.32454 0.1465 0.12287 0.0
C1170 C 0.29688 0.14058 0.22716 0.0
C1171 C 0.32551 0.1455 0.06895 0.0
C1172 C 0.28827 0.14347 0.44423 0.0
C1173 C 0.291 0.14942 0.39325 0.0
C1174 C 0.31913 0.15592 0.29124 0.0
C1175 C 0.31098 0.15022 0.14722 0.0
C1176 C 0.30951 0.14946 0.20463 0.0
C1177 C 0.30464 0.14516 0.37028 0.0
C1178 C 0.30639 0.14725 0.31339 0.0
H1179 H 0.28966 0.15451 0.03969 0.0
H1180 H 0.28801 0.15712 0.13304 0.0
H1181 H 0.33048 0.16422 0.22164 0.0
H1182 H 0.32169 0.12257 0.47388 0.0
H1183 H 0.32654 0.13314 0.38448 0.0
C1184 C 0.03751 0.11062 0.19403 0.0
C1185 C 0.04838 0.12072 0.2236 0.0
C1186 C 0.04023 0.10489 0.14292 0.0
C1187 C 0.06832 0.0986 0.04087 0.0
H1188 H 0.03768 0.12177 0.9537 0.0
C1189 C 0.07503 0.11012 0.81916 0.0
C1190 C 0.06248 0.10802 0.78826 0.0
C1191 C 0.07396 0.10894 0.87303 0.0
C1192 C 0.04625 0.11478 0.97716 0.0
H1193 H 0.07099 0.13114 0.22427 0.0
H1194 H 0.07583 0.12093 0.13467 0.0
H1195 H 0.03493 0.12284 0.04651 0.0
H1196 H 0.03914 0.10201 0.78901 0.0
H1197 H 0.0373 0.09912 0.88229 0.0
H1198 H 0.07963 0.09053 0.97109 0.0
C1199 C 0.0652 0.11743 0.15112 0.0
C1200 C 0.04466 0.11545 0.03062 0.0
C1201 C 0.06246 0.12318 0.2025 0.0
C1202 C 0.04897 0.10391 0.81194 0.0
C1203 C 0.04792 0.10243 0.86555 0.0
C1204 C 0.06985 0.09772 0.98705 0.0
C1205 C 0.05389 0.10916 0.12012 0.0
C1206 C 0.05564 0.10738 0.0632 0.0
C1207 C 0.06033 0.10541 0.89703 0.0
C1208 C 0.05881 0.10582 0.95443 0.0
H1209 H 0.02658 0.10846 0.20945 0.0
H1210 H 0.03139 0.09813 0.12037 0.0
H1211 H 0.07697 0.09226 0.06498 0.0
H1212 H 0.08559 0.11337 0.80181 0.0
H1213 H 0.08374 0.11152 0.89579 0.0
C1214 C 0.95852 0.89201 0.19515 0.0
C1215 C 0.9476 0.88207 0.22481 0.0
C1216 C 0.95581 0.89777 0.14404 0.0
C1217 C 0.92781 0.90463 0.04206 0.0
H1218 H 0.95801 0.88015 0.95525 0.0
C1219 C 0.92099 0.89302 0.82032 0.0
C1220 C 0.93361 0.89447 0.78963 0.0
C1221 C 0.92202 0.89431 0.87419 0.0
C1222 C 0.94958 0.88751 0.97859 0.0
H1223 H 0.92491 0.87203 0.22566 0.0
H1224 H 0.92008 0.88233 0.13606 0.0
H1225 H 0.96077 0.87918 0.04804 0.0
H1226 H 0.95706 0.89952 0.79065 0.0
H1227 H 0.95885 0.90267 0.88383 0.0
H1228 H 0.91663 0.91301 0.97216 0.0
C1229 C 0.93075 0.88565 0.15245 0.0
C1230 C 0.95117 0.88689 0.03203 0.0
C1231 C 0.93349 0.87984 0.20382 0.0
C1232 C 0.94717 0.89811 0.81344 0.0
C1233 C 0.94818 0.89974 0.867 0.0
C1234 C 0.92628 0.90548 0.98823 0.0
C1235 C 0.94211 0.89372 0.12137 0.0
C1236 C 0.94034 0.89545 0.06448 0.0
C1237 C 0.9357 0.89733 0.89833 0.0
C1238 C 0.93718 0.89692 0.95574 0.0
H1239 H 0.96947 0.89403 0.2105 0.0
H1240 H 0.96469 0.90437 0.12138 0.0
H1241 H 0.91927 0.91133 0.06611 0.0
H1242 H 0.91039 0.89014 0.80283 0.0
H1243 H 0.91218 0.8922 0.89685 0.0
C1244 C 0.1926 0.34953 0.06196 0.0
C1245 C 0.17946 0.35489 0.03713 0.0
C1246 C 0.19334 0.34849 0.11572 0.0
C1247 C 0.17085 0.34807 0.2367 0.0
H1248 H 0.20693 0.36983 0.2954 0.0
C1249 C 0.17934 0.37531 0.4509 0.0
C1250 C 0.19324 0.37156 0.4724 0.0
C1251 C 0.17633 0.36924 0.39986 0.0
C1252 C 0.19685 0.36339 0.27979 0.0
H1253 H 0.15664 0.36285 0.04895 0.0
H1254 H 0.15798 0.36175 0.14318 0.0
H1255 H 0.20432 0.36776 0.20269 0.0
H1256 H 0.21437 0.35689 0.45935 0.0
H1257 H 0.20907 0.3459 0.37107 0.0
H1258 H 0.16329 0.34459 0.3148 0.0
C1259 C 0.16769 0.35786 0.12119 0.0
C1260 C 0.19534 0.36213 0.22634 0.0
C1261 C 0.16691 0.35858 0.06714 0.0
C1262 C 0.20357 0.35995 0.44369 0.0
C1263 C 0.20058 0.35389 0.39296 0.0
C1264 C 0.17232 0.34955 0.29052 0.0
C1265 C 0.18101 0.35321 0.1463 0.0
C1266 C 0.18238 0.35433 0.2038 0.0
C1267 C 0.18719 0.35937 0.36957 0.0
C1268 C 0.1854 0.35709 0.31267 0.0
H1269 H 0.20243 0.34641 0.0398 0.0
H1270 H 0.2037 0.34424 0.13327 0.0
H1271 H 0.16074 0.34184 0.22097 0.0
H1272 H 0.17126 0.3845 0.47196 0.0
H1273 H 0.16592 0.3737 0.383 0.0
C1274 C 0.79373 0.64693 0.45563 0.0
C1275 C 0.80216 0.63088 0.47892 0.0
C1276 C 0.79673 0.65352 0.40516 0.0
C1277 C 0.79667 0.65053 0.28933 0.0
H1278 H 0.83441 0.64525 0.22228 0.0
C1279 C 0.80098 0.63586 0.07175 0.0
C1280 C 0.81272 0.64456 0.04386 0.0
C1281 C 0.80049 0.63751 0.12538 0.0
C1282 C 0.8238 0.64712 0.24033 0.0
H1283 H 0.82056 0.60956 0.46899 0.0
H1284 H 0.82563 0.62046 0.38059 0.0
H1285 H 0.83296 0.64426 0.31603 0.0
H1286 H 0.83312 0.66199 0.05009 0.0
H1287 H 0.83214 0.66537 0.14416 0.0
H1288 H 0.78752 0.65381 0.21399 0.0
C1289 C 0.81698 0.6286 0.40128 0.0
C1290 C 0.82294 0.64627 0.29426 0.0
C1291 C 0.81412 0.62231 0.45207 0.0
C1292 C 0.82394 0.65513 0.0707 0.0
C1293 C 0.8234 0.65694 0.12461 0.0
C1294 C 0.79755 0.65161 0.23564 0.0
C1295 C 0.80799 0.64374 0.37637 0.0
C1296 C 0.80931 0.64746 0.31954 0.0
C1297 C 0.81166 0.6481 0.1527 0.0
C1298 C 0.81106 0.64934 0.21022 0.0
H1299 H 0.78434 0.65357 0.47554 0.0
H1300 H 0.78979 0.66562 0.38799 0.0
H1301 H 0.78592 0.65124 0.30684 0.0
H1302 H 0.79223 0.62745 0.05216 0.0
H1303 H 0.79144 0.63004 0.14546 0.0
C1304 C 0.07504 0.59821 0.31427 0.0
C1305 C 0.06372 0.60886 0.28812 0.0
C1306 C 0.07463 0.59606 0.36814 0.0
C1307 C 0.04885 0.60019 0.47954 0.0
H1308 H 0.08413 0.60841 0.56012 0.0
C1309 C 0.06479 0.63014 0.69561 0.0
C1310 C 0.0529 0.6213 0.72235 0.0
C1311 C 0.06784 0.62379 0.64502 0.0
C1312 C 0.07415 0.60613 0.53829 0.0
H1313 H 0.04318 0.62575 0.29759 0.0
H1314 H 0.04258 0.62252 0.39071 0.0
H1315 H 0.08562 0.60762 0.46631 0.0
H1316 H 0.03542 0.59806 0.71907 0.0
H1317 H 0.0412 0.58592 0.6319 0.0
H1318 H 0.03719 0.60011 0.55064 0.0
C1319 C 0.05162 0.61527 0.37015 0.0
C1320 C 0.07504 0.6054 0.48435 0.0
C1321 C 0.05201 0.61729 0.31662 0.0
C1322 C 0.04474 0.60492 0.69923 0.0
C1323 C 0.04794 0.59827 0.64898 0.0
C1324 C 0.04794 0.60114 0.53321 0.0
C1325 C 0.06288 0.60458 0.39679 0.0
C1326 C 0.06234 0.60294 0.45421 0.0
C1327 C 0.0591 0.60831 0.62024 0.0
C1328 C 0.06052 0.60455 0.56348 0.0
H1329 H 0.08421 0.59157 0.29316 0.0
H1330 H 0.08344 0.5876 0.38725 0.0
H1331 H 0.03886 0.59777 0.45781 0.0
H1332 H 0.07103 0.64312 0.71243 0.0
H1333 H 0.0764 0.63212 0.62435 0.0
C1334 C 0.91987 0.40251 0.31737 0.0
C1335 C 0.9313 0.39229 0.29082 0.0
C1336 C 0.92032 0.40441 0.37127 0.0
C1337 C 0.94624 0.40049 0.48232 0.0
H1338 H 0.91108 0.39146 0.56299 0.0
C1339 C 0.93071 0.37012 0.6984 0.0
C1340 C 0.94247 0.3793 0.72518 0.0
C1341 C 0.92758 0.37641 0.64781 0.0
C1342 C 0.92103 0.39397 0.54113 0.0
H1343 H 0.95204 0.37587 0.29959 0.0
H1344 H 0.95269 0.37865 0.39286 0.0
H1345 H 0.90954 0.3923 0.4692 0.0
H1346 H 0.95964 0.40302 0.72193 0.0
H1347 H 0.95372 0.41501 0.63469 0.0
H1348 H 0.95792 0.40079 0.55342 0.0
C1349 C 0.94354 0.38576 0.37256 0.0
C1350 C 0.92011 0.39472 0.4872 0.0
C1351 C 0.94312 0.384 0.31896 0.0
C1352 C 0.95041 0.39592 0.70208 0.0
C1353 C 0.94714 0.40248 0.65179 0.0
C1354 C 0.94718 0.39953 0.53599 0.0
C1355 C 0.93219 0.39605 0.39958 0.0
C1356 C 0.93277 0.3975 0.45703 0.0
C1357 C 0.93611 0.39213 0.62304 0.0
C1358 C 0.93464 0.39585 0.56628 0.0
H1359 H 0.91061 0.40904 0.29654 0.0
H1360 H 0.91143 0.41257 0.39065 0.0
H1361 H 0.95619 0.40315 0.46056 0.0
H1362 H 0.92465 0.35695 0.71519 0.0
H1363 H 0.91913 0.36783 0.62712 0.0
C1364 C 0.20958 0.86149 0.94006 0.0
C1365 C 0.1986 0.87121 0.96987 0.0
C1366 C 0.20684 0.85564 0.88903 0.0
C1367 C 0.1787 0.8481 0.78773 0.0
H1368 H 0.20868 0.87253 0.69983 0.0
C1369 C 0.17165 0.85888 0.56568 0.0
C1370 C 0.18426 0.85737 0.53495 0.0
C1371 C 0.17271 0.85776 0.61958 0.0
C1372 C 0.20031 0.86519 0.7235 0.0
H1373 H 0.17582 0.88081 0.97104 0.0
H1374 H 0.17097 0.87039 0.88158 0.0
H1375 H 0.21155 0.87391 0.79255 0.0
H1376 H 0.20772 0.85235 0.53597 0.0
H1377 H 0.20955 0.84951 0.6292 0.0
H1378 H 0.16748 0.83935 0.7182 0.0
C1379 C 0.18169 0.86729 0.89779 0.0
C1380 C 0.20196 0.86603 0.7769 0.0
C1381 C 0.18444 0.87317 0.94908 0.0
C1382 C 0.19783 0.8538 0.55878 0.0
C1383 C 0.19887 0.85236 0.61236 0.0
C1384 C 0.17711 0.84703 0.73395 0.0
C1385 C 0.19307 0.85939 0.86657 0.0
C1386 C 0.19122 0.85749 0.80974 0.0
C1387 C 0.1864 0.85487 0.64371 0.0
C1388 C 0.18793 0.85555 0.70108 0.0
H1389 H 0.22056 0.85966 0.95525 0.0
H1390 H 0.21575 0.84917 0.86629 0.0
H1391 H 0.17023 0.84139 0.81207 0.0
H1392 H 0.16105 0.8617 0.54819 0.0
H1393 H 0.16288 0.85993 0.64227 0.0
C1394 C 0.79512 0.14772 0.94627 0.0
C1395 C 0.80278 0.13074 0.96904 0.0
C1396 C 0.79851 0.15433 0.8961 0.0
C1397 C 0.79845 0.15179 0.78021 0.0
H1398 H 0.83598 0.14333 0.71347 0.0
C1399 C 0.80226 0.13576 0.56352 0.0
C1400 C 0.81417 0.14366 0.53515 0.0
C1401 C 0.80189 0.13771 0.61707 0.0
C1402 C 0.82545 0.14611 0.73147 0.0
H1403 H 0.82021 0.10778 0.95863 0.0
H1404 H 0.82592 0.11875 0.87077 0.0
H1405 H 0.8344 0.14237 0.80727 0.0
H1406 H 0.83505 0.15992 0.54046 0.0
H1407 H 0.83432 0.16374 0.63457 0.0
H1408 H 0.78952 0.15584 0.70476 0.0
C1409 C 0.81761 0.12756 0.89162 0.0
C1410 C 0.82451 0.14528 0.78539 0.0
C1411 C 0.81437 0.12121 0.94207 0.0
C1412 C 0.82572 0.1537 0.56146 0.0
C1413 C 0.82533 0.15577 0.61534 0.0
C1414 C 0.79942 0.15282 0.72655 0.0
C1415 C 0.80936 0.14369 0.86717 0.0
C1416 C 0.81092 0.14758 0.8105 0.0
C1417 C 0.81337 0.14779 0.64385 0.0
C1418 C 0.81284 0.14936 0.70128 0.0
H1419 H 0.78603 0.15511 0.96628 0.0
H1420 H 0.79214 0.16716 0.87924 0.0
H1421 H 0.78774 0.1534 0.7976 0.0
H1422 H 0.79325 0.12778 0.54438 0.0
H1423 H 0.79267 0.1309 0.63753 0.0
C1424 C 0.53429 0.06087 0.09708 0.0
C1425 C 0.5356 0.07508 0.05535 0.0
C1426 C 0.52484 0.04337 0.09434 0.0
C1427 C 0.50788 0.00571 1.00721 0.0
H1428 H 0.4797 0.99736 0.11708 0.0
C1429 C 0.4658 0.93585 1.00634 0.0
C1430 C 0.46172 0.9272 0.0542 0.0
C1431 C 0.47477 0.95401 1.00391 0.0
C1432 C 0.48765 0.99917 0.08646 0.0
H1433 H 0.52812 0.08196 0.97776 0.0
H1434 H 0.51182 0.05081 0.97252 0.0
H1435 H 0.49532 0.02887 0.1175 0.0
H1436 H 0.46444 0.93005 0.13688 0.0
H1437 H 0.48055 0.96087 0.13278 0.0
H1438 H 0.50069 0.97562 0.97713 0.0
C1439 C 0.51805 0.05349 1.00745 0.0
C1440 C 0.49651 0.01736 0.08657 0.0
C1441 C 0.52731 0.07132 0.01059 0.0
C1442 C 0.46723 0.93652 0.09941 0.0
C1443 C 0.47638 0.95437 0.09701 0.0
C1444 C 0.49918 0.98726 1.00752 0.0
C1445 C 0.51669 0.03945 0.04947 0.0
C1446 C 0.50677 0.02073 0.04721 0.0
C1447 C 0.48003 0.9637 0.04932 0.0
C1448 C 0.48904 0.98362 0.0475 0.0
H1449 H 0.5405 0.06336 0.13217 0.0
H1450 H 0.52404 0.03271 0.12714 0.0
H1451 H 0.51581 0.00792 0.97661 0.0
H1452 H 0.46162 0.92909 0.97083 0.0
H1453 H 0.4772 0.96079 0.96648 0.0
C1454 C 0.71529 0.31855 0.25422 0.0
C1455 C 0.70888 0.32403 0.30166 0.0
C1456 C 0.72453 0.30072 0.25051 0.0
C1457 C 0.75053 0.26962 0.32179 0.0
H1458 H 0.74015 0.2203 0.239 0.0
C1459 C 0.7819 0.19076 0.3444 0.0
C1460 C 0.7839 0.17749 0.3014 0.0
C1461 C 0.77267 0.20851 0.34172 0.0
C1462 C 0.74341 0.23404 0.26158 0.0
H1463 H 0.70724 0.31542 0.38242 0.0
H1464 H 0.72382 0.28482 0.3762 0.0
H1465 H 0.7246 0.25214 0.23743 0.0
H1466 H 0.77771 0.17228 0.2218 0.0
H1467 H 0.7621 0.20389 0.21611 0.0
H1468 H 0.76952 0.25225 0.34493 0.0
C1469 C 0.72148 0.29409 0.34187 0.0
C1470 C 0.73444 0.25222 0.26078 0.0
C1471 C 0.71199 0.31153 0.34533 0.0
C1472 C 0.77633 0.1822 0.25566 0.0
C1473 C 0.76731 0.2003 0.25256 0.0
C1474 C 0.75966 0.25171 0.3218 0.0
C1475 C 0.72777 0.28848 0.29445 0.0
C1476 C 0.73781 0.26997 0.29158 0.0
C1477 C 0.76543 0.21383 0.29551 0.0
C1478 C 0.75609 0.23344 0.29257 0.0
H1479 H 0.71299 0.32784 0.21991 0.0
H1480 H 0.72931 0.29665 0.21358 0.0
H1481 H 0.7534 0.28326 0.34549 0.0
H1482 H 0.78743 0.18737 0.38044 0.0
H1483 H 0.77119 0.218 0.3762 0.0
C1484 C 0.28263 0.68715 0.25465 0.0
C1485 C 0.28839 0.68068 0.30235 0.0
C1486 C 0.27389 0.70552 0.25114 0.0
C1487 C 0.26362 0.75444 0.32633 0.0
H1488 H 0.23151 0.7574 0.22872 0.0
C1489 C 0.2149 0.81288 0.34212 0.0
C1490 C 0.21258 0.82619 0.29924 0.0
C1491 C 0.22482 0.79593 0.33947 0.0
C1492 C 0.24053 0.75679 0.25581 0.0
H1493 H 0.28911 0.68784 0.38401 0.0
H1494 H 0.27337 0.71899 0.37858 0.0
H1495 H 0.24725 0.72579 0.23034 0.0
H1496 H 0.21873 0.83209 0.21977 0.0
H1497 H 0.23579 0.80178 0.2147 0.0
H1498 H 0.25629 0.78501 0.35343 0.0
C1499 C 0.27604 0.71063 0.34328 0.0
C1500 C 0.24962 0.73875 0.25667 0.0
C1501 C 0.28499 0.6926 0.34656 0.0
C1502 C 0.22034 0.82213 0.25347 0.0
C1503 C 0.23002 0.8048 0.25045 0.0
C1504 C 0.25436 0.77221 0.32614 0.0
C1505 C 0.2705 0.71757 0.29546 0.0
C1506 C 0.26121 0.73721 0.29238 0.0
C1507 C 0.23238 0.79166 0.29356 0.0
C1508 C 0.24269 0.77346 0.29118 0.0
H1509 H 0.28517 0.67833 0.21986 0.0
H1510 H 0.27002 0.71043 0.21352 0.0
H1511 H 0.27264 0.75425 0.35337 0.0
H1512 H 0.20912 0.81567 0.37795 0.0
H1513 H 0.22645 0.78595 0.37312 0.0
C1514 C 0.46189 0.44435 0.59536 0.0
C1515 C 0.45958 0.43117 0.55237 0.0
C1516 C 0.4711 0.4621 0.59207 0.0
C1517 C 0.50005 0.48713 0.5099 0.0
H1518 H 0.49161 0.53618 0.59638 0.0
C1519 C 0.52973 0.57035 0.50232 0.0
C1520 C 0.53664 0.5753 0.54924 0.0
C1521 C 0.52009 0.55297 0.49909 0.0
C1522 C 0.49405 0.52259 0.57196 0.0
H1523 H 0.46496 0.42632 0.47196 0.0
H1524 H 0.48056 0.45793 0.46527 0.0
H1525 H 0.47493 0.5058 0.59629 0.0
H1526 H 0.53874 0.56628 0.6296 0.0
H1527 H 0.52146 0.53647 0.62427 0.0
H1528 H 0.519 0.50462 0.48462 0.0
C1529 C 0.47565 0.45422 0.50218 0.0
C1530 C 0.48459 0.50504 0.5722 0.0
C1531 C 0.46666 0.43613 0.50585 0.0
C1532 C 0.53361 0.56277 0.59291 0.0
C1533 C 0.52372 0.54579 0.58997 0.0
C1534 C 0.50934 0.50494 0.50887 0.0
C1535 C 0.478 0.4675 0.54529 0.0
C1536 C 0.4876 0.48682 0.54201 0.0
C1537 C 0.51693 0.5407 0.54304 0.0
C1538 C 0.50653 0.52263 0.54058 0.0
H1539 H 0.45671 0.44076 0.63193 0.0
H1540 H 0.4729 0.47144 0.6266 0.0
H1541 H 0.5029 0.4734 0.4866 0.0
H1542 H 0.53196 0.57968 0.46802 0.0
H1543 H 0.51494 0.54929 0.46255 0.0
C1544 C 0.77769 0.68343 0.75864 0.0
C1545 C 0.78456 0.67847 0.80558 0.0
C1546 C 0.76863 0.70146 0.75459 0.0
C1547 C 0.75982 0.7523 0.8243 0.0
H1548 H 0.72586 0.75303 0.73456 0.0
C1549 C 0.71185 0.81174 0.84303 0.0
C1550 C 0.70921 0.82447 0.79939 0.0
C1551 C 0.72138 0.79432 0.84026 0.0
C1552 C 0.73539 0.75302 0.75942 0.0
H1553 H 0.78678 0.68777 0.88563 0.0
H1554 H 0.77047 0.71825 0.87956 0.0
H1555 H 0.74152 0.7213 0.73729 0.0
H1556 H 0.71417 0.82872 0.71833 0.0
H1557 H 0.73057 0.79759 0.71319 0.0
H1558 H 0.75315 0.78362 0.84822 0.0
C1559 C 0.77254 0.70904 0.84502 0.0
C1560 C 0.74442 0.73492 0.7609 0.0
C1561 C 0.7818 0.69138 0.84871 0.0
C1562 C 0.71611 0.81925 0.75263 0.0
C1563 C 0.72539 0.80145 0.74958 0.0
C1564 C 0.75063 0.77013 0.82357 0.0
C1565 C 0.76602 0.71464 0.79771 0.0
C1566 C 0.75669 0.7342 0.79386 0.0
C1567 C 0.72817 0.78899 0.79353 0.0
C1568 C 0.73831 0.77058 0.79145 0.0
H1569 H 0.77967 0.67378 0.7247 0.0
H1570 H 0.76396 0.70528 0.71737 0.0
H1571 H 0.76937 0.75274 0.84899 0.0
H1572 H 0.70671 0.81543 0.87959 0.0
H1573 H 0.72335 0.78487 0.87458 0.0
C1574 C 0.28281 0.19273 0.84364 0.0
C1575 C 0.28517 0.1796 0.80061 0.0
C1576 C 0.27335 0.2102 0.84065 0.0
C1577 C 0.24396 0.23466 0.75939 0.0
H1578 H 0.25255 0.28408 0.84454 0.0
C1579 C 0.21507 0.31869 0.75153 0.0
C1580 C 0.20784 0.32338 0.79799 0.0
C1581 C 0.22452 0.3011 0.74831 0.0
C1582 C 0.25007 0.27038 0.82051 0.0
H1583 H 0.27949 0.17442 0.72055 0.0
H1584 H 0.26347 0.20559 0.71432 0.0
H1585 H 0.26932 0.2538 0.8444 0.0
H1586 H 0.20491 0.3136 0.87752 0.0
H1587 H 0.22187 0.28338 0.87225 0.0
H1588 H 0.2249 0.25199 0.73445 0.0
C1589 C 0.26856 0.20206 0.75103 0.0
C1590 C 0.25958 0.25289 0.82073 0.0
C1591 C 0.27781 0.18423 0.75442 0.0
C1592 C 0.2103 0.3103 0.84117 0.0
C1593 C 0.22 0.29308 0.83827 0.0
C1594 C 0.23462 0.25242 0.75837 0.0
C1595 C 0.26624 0.21537 0.79411 0.0
C1596 C 0.25652 0.23456 0.79099 0.0
C1597 C 0.22714 0.28832 0.79183 0.0
C1598 C 0.2375 0.27023 0.78958 0.0
H1599 H 0.28818 0.18937 0.88 0.0
H1600 H 0.27155 0.21953 0.87518 0.0
H1601 H 0.24109 0.22084 0.73643 0.0
H1602 H 0.21328 0.32845 0.71759 0.0
H1603 H 0.22997 0.29767 0.71216 0.0
C1604 C 0.9637 0.94017 0.5961 0.0
C1605 C 0.96133 0.92684 0.55331 0.0
C1606 C 0.97343 0.95735 0.59295 0.0
C1607 C 0.9876 0.99783 0.5121 0.0
H1608 H 0.02239 0.99808 0.59771 0.0
C1609 C 0.02931 0.06791 0.50607 0.0
C1610 C 0.03669 0.073 0.55193 0.0
C1611 C 0.02049 0.04961 0.50318 0.0
C1612 C 0.01262 0.99854 0.57413 0.0
H1613 H 0.96719 0.92118 0.47348 0.0
H1614 H 0.98387 0.95191 0.46755 0.0
H1615 H 0.00614 0.96719 0.59886 0.0
H1616 H 0.04018 0.06347 0.63127 0.0
H1617 H 0.02427 0.03247 0.62737 0.0
H1618 H 0.99347 0.02955 0.48932 0.0
C1619 C 0.97831 0.94871 0.5036 0.0
C1620 C 0.00342 0.9807 0.57448 0.0
C1621 C 0.96883 0.93114 0.50712 0.0
C1622 C 0.03478 0.05979 0.59514 0.0
C1623 C 0.02573 0.04183 0.59267 0.0
C1624 C 0.99663 0.01594 0.51255 0.0
C1625 C 0.98071 0.96185 0.54661 0.0
C1626 C 0.99082 0.98025 0.54369 0.0
C1627 C 0.01859 0.03625 0.54647 0.0
C1628 C 0.00922 0.01664 0.54397 0.0
H1629 H 0.95813 0.9372 0.63226 0.0
H1630 H 0.97514 0.96733 0.62654 0.0
H1631 H 0.97784 0.99782 0.48832 0.0
H1632 H 0.03063 0.07776 0.47205 0.0
H1633 H 0.01538 0.04579 0.46669 0.0
C1634 C 0.96433 0.43686 1.00409 0.0
C1635 C 0.95879 0.43011 0.05189 0.0
C1636 C 0.97291 0.4554 1.00064 0.0
C1637 C 0.98259 0.50439 0.0763 0.0
H1638 H 0.01461 0.5087 0.97875 0.0
C1639 C 0.03039 0.56401 0.09491 0.0
C1640 C 0.03305 0.57722 0.05211 0.0
C1641 C 0.02052 0.54702 0.09144 0.0
C1642 C 0.0056 0.50773 1.00578 0.0
H1643 H 0.95839 0.43688 0.13378 0.0
H1644 H 0.97382 0.46834 0.12836 0.0
H1645 H -0.00069 0.4766 0.97966 0.0
H1646 H 0.02756 0.58291 0.97196 0.0
H1647 H 0.01059 0.55255 0.9655 0.0
H1648 H 0.98944 0.53508 0.10402 0.0
C1649 C 0.9711 0.46006 0.093 0.0
C1650 C 0.99678 0.4894 1.00627 0.0
C1651 C 0.96233 0.44185 0.09625 0.0
C1652 C 0.02567 0.57305 1.00563 0.0
C1653 C 0.01604 0.55567 1.00181 0.0
C1654 C 0.99156 0.52245 0.07643 0.0
C1655 C 0.97632 0.46736 0.04508 0.0
C1656 C 0.98526 0.48734 0.04207 0.0
C1657 C 0.01336 0.54259 0.0448 0.0
C1658 C 0.00322 0.52419 0.04156 0.0
H1659 H 0.96169 0.42818 0.96918 0.0
H1660 H 0.97658 0.46056 0.96297 0.0
H1661 H 0.97358 0.50379 0.10339 0.0
H1662 H 0.03588 0.56687 0.13128 0.0
H1663 H 0.01867 0.53708 0.12503 0.0
C1664 C 0.597 0.06447 0.95298 0.0
C1665 C 0.58175 0.0631 0.95853 0.0
C1666 C 0.60524 0.04619 0.94182 0.0
C1667 C 0.60097 0.99043 0.89212 0.0
H1668 H 0.64134 0.98542 0.93683 0.0
C1669 C 0.63712 0.91428 0.86599 0.0
C1670 C 0.65043 0.91824 0.84053 0.0
C1671 C 0.62834 0.93131 0.88249 0.0
C1672 C 0.63006 0.98665 0.92417 0.0
H1673 H 0.56321 0.0415 0.95933 0.0
H1674 H 0.57757 0.0095 0.94256 0.0
H1675 H 0.62682 0.01611 0.96422 0.0
H1676 H 0.66508 0.94313 0.81314 0.0
H1677 H 0.64992 0.97271 0.84308 0.0
H1678 H 0.60426 0.96053 0.85325 0.0
C1679 C 0.5832 0.02471 0.94448 0.0
C1680 C 0.62175 0.00431 0.93946 0.0
C1681 C 0.57495 0.04305 0.95451 0.0
C1682 C 0.65481 0.93952 0.83213 0.0
C1683 C 0.64621 0.95647 0.84963 0.0
C1684 C 0.60921 0.97256 0.87773 0.0
C1685 C 0.59845 0.02603 0.93707 0.0
C1686 C 0.60713 0.00663 0.92308 0.0
C1687 C 0.63291 0.95254 0.87492 0.0
C1688 C 0.62388 0.97068 0.89305 0.0
H1689 H 0.60251 0.07978 0.95559 0.0
H1690 H 0.61689 0.04803 0.93557 0.0
H1691 H 0.58988 0.99173 0.87775 0.0
H1692 H 0.63351 0.89804 0.87307 0.0
H1693 H 0.61811 0.92792 0.90203 0.0
C1694 C 0.39906 0.94012 0.93937 0.0
C1695 C 0.40424 0.9383 0.99017 0.0
C1696 C 0.39242 0.959 0.92242 0.0
C1697 C 0.37491 0.00898 0.96907 0.0
H1698 H 0.38258 0.02823 0.82955 0.0
C1699 C 0.3538 0.09018 0.89245 0.0
C1700 C 0.34656 0.08926 0.84464 0.0
C1701 C 0.36195 0.07271 0.91018 0.0
C1702 C 0.3803 0.02301 0.86854 0.0
H1703 H 0.40643 0.95488 0.06317 0.0
H1704 H 0.3951 0.98795 0.03337 0.0
H1705 H 0.39424 0.99572 0.86127 0.0
H1706 H 0.34281 0.06964 0.77697 0.0
H1707 H 0.35714 0.03935 0.80765 0.0
H1708 H 0.361 0.0364 0.97621 0.0
C1709 C 0.39592 0.97466 1.00679 0.0
C1710 C 0.38692 0.00431 0.88669 0.0
C1711 C 0.40247 0.9557 0.02386 0.0
C1712 C 0.34821 0.07088 0.814 0.0
C1713 C 0.35647 0.05353 0.8315 0.0
C1714 C 0.36837 0.02777 0.951 0.0
C1715 C 0.3909 0.97661 0.95572 0.0
C1716 C 0.38419 0.99691 0.93703 0.0
C1717 C 0.36319 0.05407 0.8802 0.0
C1718 C 0.37088 0.03488 0.90038 0.0
H1719 H 0.40017 0.92697 0.91249 0.0
H1720 H 0.38842 0.95972 0.88317 0.0
H1721 H 0.37239 0.00364 1.00778 0.0
H1722 H 0.35273 0.10406 0.9171 0.0
H1723 H 0.36714 0.07367 0.94764 0.0
C1724 C 0.65512 0.30584 0.22672 0.0
C1725 C 0.6633 0.31573 0.18763 0.0
C1726 C 0.64782 0.28653 0.21726 0.0
C1727 C 0.64594 0.24165 0.12134 0.0
H1728 H 0.6092 0.22958 0.19033 0.0
C1729 C 0.60254 0.17943 0.05534 0.0
C1730 C 0.59803 0.16467 0.09299 0.0
C1731 C 0.61175 0.19645 0.06841 0.0
C1732 C 0.61953 0.23271 0.17117 0.0
H1733 H 0.66996 0.31357 0.10769 0.0
H1734 H 0.65667 0.28075 0.09024 0.0
H1735 H 0.62228 0.26261 0.20974 0.0
H1736 H 0.59987 0.15594 0.17369 0.0
H1737 H 0.61558 0.18621 0.19673 0.0
H1738 H 0.64259 0.21215 0.08076 0.0
C1739 C 0.65631 0.28719 0.12892 0.0
C1740 C 0.6271 0.25159 0.18243 0.0
C1741 C 0.66385 0.30619 0.13874 0.0
C1742 C 0.60321 0.16699 0.14375 0.0
C1743 C 0.61211 0.18433 0.15705 0.0
C1744 C 0.63819 0.22303 0.1093 0.0
C1745 C 0.64829 0.27692 0.16814 0.0
C1746 C 0.6404 0.25642 0.15748 0.0
C1747 C 0.61634 0.1993 0.11957 0.0
C1748 C 0.62491 0.21844 0.13404 0.0
H1749 H 0.65464 0.31276 0.26495 0.0
H1750 H 0.64202 0.27904 0.24881 0.0
H1751 H 0.6563 0.24439 0.10221 0.0
H1752 H 0.59875 0.17804 0.01592 0.0
H1753 H 0.61484 0.20786 0.03891 0.0
C1754 C 0.3916 0.83929 0.1392 0.0
C1755 C 0.39703 0.84015 0.08855 0.0
C1756 C 0.38394 0.82128 0.15651 0.0
C1757 C 0.37983 0.76371 0.12559 0.0
H1758 H 0.34871 0.76584 0.22708 0.0
C1759 C 0.34616 0.68942 0.18384 0.0
C1760 C 0.34363 0.6863 0.23674 0.0
C1761 C 0.3524 0.70843 0.16597 0.0
C1762 C 0.35747 0.76502 0.19903 0.0
H1763 H 0.39777 0.82353 0.01534 0.0
H1764 H 0.38397 0.79256 0.04479 0.0
H1765 H 0.35909 0.79912 0.1939 0.0
H1766 H 0.34566 0.70075 0.3124 0.0
H1767 H 0.3565 0.73406 0.28101 0.0
H1768 H 0.37808 0.72963 0.13033 0.0
C1769 C 0.38606 0.80539 0.07182 0.0
C1770 C 0.36344 0.78408 0.18001 0.0
C1771 C 0.39385 0.82325 0.05474 0.0
C1772 C 0.34752 0.70261 0.27142 0.0
C1773 C 0.35362 0.72175 0.25345 0.0
C1774 C 0.37378 0.74471 0.14424 0.0
C1775 C 0.38141 0.80384 0.12337 0.0
C1776 C 0.3747 0.78367 0.14299 0.0
C1777 C 0.35611 0.72486 0.20052 0.0
C1778 C 0.36256 0.74514 0.18117 0.0
H1779 H 0.39395 0.85198 0.16636 0.0
H1780 H 0.38062 0.82063 0.19653 0.0
H1781 H 0.38873 0.76269 0.09814 0.0
H1782 H 0.34327 0.6772 0.15608 0.0
H1783 H 0.35407 0.71043 0.12492 0.0
C1784 C 0.64273 0.42889 0.30736 0.0
C1785 C 0.64755 0.41433 0.34498 0.0
C1786 C 0.6335 0.44583 0.3207 0.0
C1787 C 0.62603 0.48235 0.42322 0.0
H1788 H 0.58905 0.49361 0.35512 0.0
C1789 C 0.59067 0.55601 0.47667 0.0
C1790 C 0.5825 0.56569 0.43723 0.0
C1791 C 0.59787 0.53656 0.46799 0.0
C1792 C 0.59946 0.49097 0.37401 0.0
H1793 H 0.64625 0.40585 0.42594 0.0
H1794 H 0.63046 0.436 0.44947 0.0
H1795 H 0.60272 0.46126 0.33426 0.0
H1796 H 0.57574 0.56299 0.35746 0.0
H1797 H 0.58885 0.5299 0.34135 0.0
H1798 H 0.62337 0.51246 0.46088 0.0
C1799 C 0.63371 0.43403 0.40961 0.0
C1800 C 0.60719 0.4723 0.36233 0.0
C1801 C 0.64266 0.41675 0.39604 0.0
C1802 C 0.58185 0.55578 0.38878 0.0
C1803 C 0.58928 0.53663 0.37974 0.0
C1804 C 0.61848 0.50128 0.43412 0.0
C1805 C 0.62918 0.4488 0.37211 0.0
C1806 C 0.62056 0.46788 0.38668 0.0
C1807 C 0.5973 0.52658 0.4193 0.0
C1808 C 0.60511 0.50597 0.4094 0.0
H1809 H 0.6463 0.42741 0.26771 0.0
H1810 H 0.63016 0.45708 0.29118 0.0
H1811 H 0.63642 0.47935 0.44207 0.0
H1812 H 0.59124 0.56322 0.51457 0.0
H1813 H 0.60369 0.52925 0.49977 0.0
C1814 C 0.35402 0.58738 0.39616 0.0
C1815 C 0.34974 0.59037 0.34457 0.0
C1816 C 0.36296 0.57012 0.4099 0.0
C1817 C 0.39015 0.53242 0.36354 0.0
H1818 H 0.37336 0.49184 0.45989 0.0
C1819 C 0.4154 0.44891 0.39069 0.0
C1820 C 0.41454 0.43893 0.43905 0.0
C1821 C 0.40797 0.46802 0.38127 0.0
C1822 C 0.37841 0.50313 0.43375 0.0
H1823 H 0.35213 0.57836 0.26666 0.0
H1824 H 0.36824 0.5487 0.29056 0.0
H1825 H 0.3604 0.52498 0.44062 0.0
H1826 H 0.40539 0.44122 0.5158 0.0
H1827 H 0.39289 0.47513 0.50033 0.0
H1828 H 0.40835 0.51115 0.35742 0.0
C1829 C 0.36444 0.55951 0.32031 0.0
C1830 C 0.37091 0.52208 0.42258 0.0
C1831 C 0.35521 0.57644 0.30671 0.0
C1832 C 0.40612 0.44848 0.47798 0.0
C1833 C 0.39891 0.46789 0.46892 0.0
C1834 C 0.39781 0.5137 0.37547 0.0
C1835 C 0.3681 0.55592 0.37214 0.0
C1836 C 0.37662 0.53672 0.38684 0.0
C1837 C 0.39972 0.47796 0.42036 0.0
C1838 C 0.39194 0.49857 0.41009 0.0
H1839 H 0.34992 0.59776 0.42628 0.0
H1840 H 0.36571 0.56769 0.4501 0.0
H1841 H 0.39481 0.54358 0.33613 0.0
H1842 H 0.42171 0.44179 0.35976 0.0
H1843 H 0.40859 0.47483 0.34298 0.0
C1844 C 0.66385 0.80736 0.63695 0.0
C1845 C 0.66334 0.81701 0.6858 0.0
C1846 C 0.65591 0.78874 0.62703 0.0
C1847 C 0.6416 0.74066 0.68331 0.0
H1848 H 0.6133 0.74122 0.57196 0.0
C1849 C 0.60325 0.66864 0.64148 0.0
C1850 C 0.59834 0.6656 0.5907 0.0
C1851 C 0.61176 0.6865 0.65419 0.0
C1852 C 0.62136 0.74053 0.6025 0.0
H1853 H 0.65436 0.81459 0.76289 0.0
H1854 H 0.64075 0.78142 0.74577 0.0
H1855 H 0.62689 0.77358 0.59237 0.0
H1856 H 0.59938 0.6779 0.51276 0.0
H1857 H 0.61495 0.70814 0.53397 0.0
H1858 H 0.63663 0.70744 0.69229 0.0
C1859 C 0.64717 0.78856 0.71517 0.0
C1860 C 0.62901 0.7592 0.61447 0.0
C1861 C 0.65486 0.80753 0.72481 0.0
C1862 C 0.60285 0.67999 0.55238 0.0
C1863 C 0.61164 0.69752 0.56478 0.0
C1864 C 0.63416 0.72179 0.67065 0.0
C1865 C 0.64757 0.77912 0.66608 0.0
C1866 C 0.63919 0.75943 0.65491 0.0
C1867 C 0.61585 0.70145 0.61615 0.0
C1868 C 0.62394 0.72143 0.62991 0.0
H1869 H 0.67027 0.81434 0.60612 0.0
H1870 H 0.6564 0.78169 0.58893 0.0
H1871 H 0.64951 0.74046 0.71443 0.0
H1872 H 0.5999 0.65784 0.67192 0.0
H1873 H 0.61463 0.68896 0.69423 0.0
C1874 C 0.39081 0.33986 0.63807 0.0
C1875 C 0.39992 0.33825 0.59455 0.0
C1876 C 0.38221 0.32247 0.65365 0.0
C1877 C 0.38023 0.26363 0.64183 0.0
H1878 H 0.34017 0.27069 0.68817 0.0
C1879 C 0.32573 0.20869 0.67567 0.0
C1880 C 0.3318 0.19119 0.7022 0.0
C1881 C 0.33397 0.22714 0.66687 0.0
C1882 C 0.35134 0.26845 0.6752 0.0
H1883 H 0.40671 0.31728 0.5323 0.0
H1884 H 0.39165 0.28724 0.55906 0.0
H1885 H 0.3544 0.30203 0.66267 0.0
H1886 H 0.35122 0.17953 0.7412 0.0
H1887 H 0.36565 0.21185 0.72592 0.0
H1888 H 0.37709 0.23004 0.65302 0.0
C1889 C 0.39135 0.30176 0.58178 0.0
C1890 C 0.35953 0.28643 0.66106 0.0
C1891 C 0.39991 0.31909 0.5662 0.0
C1892 C 0.34625 0.19269 0.72044 0.0
C1893 C 0.35453 0.21117 0.71148 0.0
C1894 C 0.37206 0.24567 0.65608 0.0
C1895 C 0.38257 0.3031 0.6261 0.0
C1896 C 0.37401 0.2842 0.64356 0.0
C1897 C 0.34851 0.22857 0.6843 0.0
C1898 C 0.35746 0.24783 0.67239 0.0
H1899 H 0.3906 0.35435 0.66093 0.0
H1900 H 0.37561 0.32399 0.68812 0.0
H1901 H 0.39143 0.26137 0.62927 0.0
H1902 H 0.31461 0.2081 0.66117 0.0
H1903 H 0.32905 0.2401 0.64524 0.0
C1904 C 0.15016 0.93541 0.30965 0.0
C1905 C 0.15046 0.91638 0.33851 0.0
C1906 C 0.14156 0.95268 0.32531 0.0
C1907 C 0.11007 0.96791 0.40631 0.0
H1908 H 0.12733 0.02445 0.39653 0.0
C1909 C 0.09672 0.0615 0.46636 0.0
C1910 C 0.08216 0.06288 0.44913 0.0
C1911 C 0.10503 0.04311 0.45673 0.0
C1912 C 0.12239 0.00877 0.40006 0.0
H1913 H 0.14158 0.90042 0.40586 0.0
H1914 H 0.1265 0.93065 0.43317 0.0
H1915 H 0.14168 0.99322 0.37209 0.0
H1916 H 0.06482 0.04587 0.40921 0.0
H1917 H 0.07932 0.01402 0.39215 0.0
H1918 H 0.09079 0.98351 0.43459 0.0
C1919 C 0.13292 0.93213 0.39825 0.0
C1920 C 0.13056 0.99088 0.38542 0.0
C1921 C 0.14157 0.9148 0.3826 0.0
C1922 C 0.07602 0.04537 0.42292 0.0
C1923 C 0.0843 0.027 0.41348 0.0
C1924 C 0.10188 0.98583 0.42083 0.0
C1925 C 0.13301 0.95139 0.37021 0.0
C1926 C 0.12445 0.97025 0.38783 0.0
C1927 C 0.09894 0.02569 0.42991 0.0
C1928 C 0.1079 0.0065 0.41742 0.0
H1929 H 0.1568 0.9372 0.27532 0.0
H1930 H 0.14166 0.96712 0.30224 0.0
H1931 H 0.10502 0.95226 0.40846 0.0
H1932 H 0.10175 0.07468 0.48684 0.0
H1933 H 0.11623 0.04252 0.47041 0.0
C1934 C 0.89758 0.93703 0.45499 0.0
C1935 C 0.91277 0.93927 0.46171 0.0
C1936 C 0.88895 0.95483 0.44279 0.0
C1937 C 0.88661 0.01293 0.45066 0.0
H1938 H 0.86418 0.0094 0.32412 0.0
C1939 C 0.85747 0.08715 0.3645 0.0
C1940 C 0.84418 0.08387 0.33845 0.0
C1941 C 0.86599 0.06968 0.38031 0.0
C1942 C 0.87012 0.01064 0.36009 0.0
H1943 H 0.93074 0.96194 0.46338 0.0
H1944 H 0.91555 0.9931 0.44363 0.0
H1945 H 0.87794 0.97842 0.35378 0.0
H1946 H 0.8292 0.05972 0.30982 0.0
H1947 H 0.84355 0.02954 0.33908 0.0
H1948 H 0.8785 0.04485 0.45818 0.0
C1949 C 0.91039 0.97757 0.44707 0.0
C1950 C 0.87806 0.99285 0.37689 0.0
C1951 C 0.91906 0.95973 0.4581 0.0
C1952 C 0.83953 0.06283 0.32889 0.0
C1953 C 0.84784 0.04544 0.34559 0.0
C1954 C 0.87842 0.03063 0.43445 0.0
C1955 C 0.89531 0.97522 0.43836 0.0
C1956 C 0.88641 0.99385 0.42217 0.0
C1957 C 0.86124 0.04855 0.37133 0.0
C1958 C 0.87009 0.02977 0.38878 0.0
H1959 H 0.89246 0.92144 0.45742 0.0
H1960 H 0.87732 0.95267 0.43643 0.0
H1961 H 0.89295 0.01404 0.48584 0.0
H1962 H 0.86132 0.1032 0.37241 0.0
H1963 H 0.87633 0.07281 0.39923 0.0
C1964 C 0.10158 0.17995 0.5508 0.0
C1965 C 0.09733 0.1654 0.58915 0.0
C1966 C 0.11022 0.19767 0.56307 0.0
C1967 C 0.13284 0.22214 0.66845 0.0
H1968 H 0.12503 0.27399 0.59105 0.0
C1969 C 0.15344 0.30772 0.72373 0.0
C1970 C 0.16166 0.31754 0.68452 0.0
C1971 C 0.14574 0.28878 0.71386 0.0
C1972 C 0.12731 0.2596 0.61291 0.0
H1973 H 0.09915 0.15765 0.67032 0.0
H1974 H 0.11361 0.18903 0.69235 0.0
H1975 H 0.11163 0.24146 0.57057 0.0
H1976 H 0.16807 0.31553 0.6042 0.0
H1977 H 0.15419 0.28292 0.58665 0.0
H1978 H 0.14816 0.24094 0.71205 0.0
C1979 C 0.11068 0.18656 0.65238 0.0
C1980 C 0.11976 0.24083 0.6009 0.0
C1981 C 0.10231 0.16853 0.63981 0.0
C1982 C 0.16185 0.30829 0.63519 0.0
C1983 C 0.1539 0.28969 0.62507 0.0
C1984 C 0.14017 0.24109 0.68115 0.0
C1985 C 0.11453 0.20162 0.61432 0.0
C1986 C 0.12253 0.22171 0.62801 0.0
C1987 C 0.14586 0.27969 0.66434 0.0
C1988 C 0.13757 0.2599 0.6531 0.0
H1989 H 0.09805 0.17782 0.51127 0.0
H1990 H 0.11334 0.20841 0.53224 0.0
H1991 H 0.13547 0.20778 0.68984 0.0
H1992 H 0.15319 0.31446 0.76217 0.0
H1993 H 0.13955 0.28135 0.74467 0.0
C1994 C 0.84459 0.69274 0.72113 0.0
C1995 C 0.83046 0.68975 0.70085 0.0
C1996 C 0.85253 0.71135 0.70983 0.0
C1997 C 0.85477 0.75455 0.61301 0.0
H1998 H 0.87857 0.78319 0.7157 0.0
C1999 C 0.8977 0.81842 0.55979 0.0
C2000 C 0.89915 0.83638 0.59198 0.0
C2001 C 0.88863 0.8014 0.57372 0.0
C2002 C 0.87187 0.77549 0.6867 0.0
H2003 H 0.81346 0.70422 0.65389 0.0
H2004 H 0.82721 0.73654 0.6346 0.0
H2005 H 0.86412 0.75186 0.74006 0.0
H2006 H 0.89192 0.85063 0.66384 0.0
H2007 H 0.87597 0.82088 0.68799 0.0
H2008 H 0.8624 0.77818 0.55973 0.0
C2009 C 0.83228 0.72442 0.65853 0.0
C2010 C 0.86373 0.75739 0.70052 0.0
C2011 C 0.82436 0.7059 0.66983 0.0
C2012 C 0.89104 0.83708 0.63803 0.0
C2013 C 0.882 0.81995 0.65213 0.0
C2014 C 0.86293 0.77256 0.59918 0.0
C2015 C 0.84651 0.72731 0.67795 0.0
C2016 C 0.8551 0.74668 0.66379 0.0
C2017 C 0.88078 0.80183 0.6203 0.0
C2018 C 0.87163 0.7832 0.63576 0.0
H2019 H 0.8496 0.68062 0.7452 0.0
H2020 H 0.86351 0.713 0.72507 0.0
H2021 H 0.84837 0.74657 0.58359 0.0
H2022 H 0.9038 0.81729 0.52409 0.0
H2023 H 0.88809 0.7876 0.54857 0.0
C2024 C 0.09757 0.56602 0.96011 0.0
C2025 C 0.0823 0.56396 0.96448 0.0
C2026 C 0.10623 0.54813 0.94906 0.0
C2027 C 0.10806 0.48988 0.95579 0.0
H2028 H 0.13212 0.49386 0.83316 0.0
C2029 C 0.13719 0.41566 0.86941 0.0
C2030 C 0.15071 0.41882 0.84486 0.0
C2031 C 0.12885 0.4332 0.88577 0.0
C2032 C 0.12572 0.49249 0.86811 0.0
H2033 H 0.0642 0.54152 0.96323 0.0
H2034 H 0.07942 0.51021 0.9454 0.0
H2035 H 0.11828 0.52488 0.86179 0.0
H2036 H 0.16639 0.44277 0.82009 0.0
H2037 H 0.15232 0.47306 0.85039 0.0
H2038 H 0.11575 0.45772 0.96325 0.0
C2039 C 0.08463 0.52567 0.94983 0.0
C2040 C 0.11774 0.51031 0.8843 0.0
C2041 C 0.07594 0.54359 0.95974 0.0
C2042 C 0.15585 0.43979 0.83786 0.0
C2043 C 0.1477 0.45724 0.85513 0.0
C2044 C 0.11628 0.47213 0.9402 0.0
C2045 C 0.09981 0.52784 0.94342 0.0
C2046 C 0.10878 0.50915 0.9281 0.0
C2047 C 0.134 0.45427 0.87887 0.0
C2048 C 0.1252 0.47314 0.89595 0.0
H2049 H 0.10275 0.58154 0.96347 0.0
H2050 H 0.11794 0.55017 0.94448 0.0
H2051 H 0.10125 0.48864 0.98984 0.0
H2052 H 0.13299 0.39965 0.87537 0.0
H2053 H 0.11828 0.4302 0.9032 0.0
C2054 C 0.85282 0.5873 0.89878 0.0
C2055 C 0.84618 0.58727 0.84986 0.0
C2056 C 0.86061 0.56941 0.91609 0.0
C2057 C 0.87948 0.52049 0.87347 0.0
H2058 H 0.86872 0.49826 1.00776 0.0
C2059 C 0.89811 0.43687 0.94017 0.0
C2060 C 0.90187 0.4341 0.99224 0.0
C2061 C 0.89152 0.45581 0.92338 0.0
C2062 C 0.87205 0.50438 0.97053 0.0
H2063 H 0.84316 0.56886 0.77983 0.0
H2064 H 0.85697 0.53786 0.80972 0.0
H2065 H 0.85789 0.53157 0.9772 0.0
H2066 H 0.90162 0.44904 0.06763 0.0
H2067 H 0.89049 0.48227 0.03824 0.0
H2068 H 0.89378 0.49357 0.86682 0.0
C2069 C 0.85606 0.55165 0.83478 0.0
C2070 C 0.86582 0.52348 0.95302 0.0
C2071 C 0.84811 0.5694 0.81774 0.0
C2072 C 0.89874 0.4506 0.0273 0.0
C2073 C 0.8923 0.46966 0.01041 0.0
C2074 C 0.88584 0.50152 0.89118 0.0
C2075 C 0.86212 0.55128 0.88454 0.0
C2076 C 0.86938 0.53165 0.90415 0.0
C2077 C 0.88868 0.47259 0.95813 0.0
C2078 C 0.88212 0.49309 0.93978 0.0
H2079 H 0.85151 0.60076 0.9246 0.0
H2080 H 0.8653 0.56963 0.95444 0.0
H2081 H 0.88253 0.52653 0.83584 0.0
H2082 H 0.90029 0.42441 0.91222 0.0
H2083 H 0.88861 0.45725 0.88307 0.0
C2084 C 0.17084 0.79256 0.20692 0.0
C2085 C 0.16428 0.81284 0.20896 0.0
C2086 C 0.16241 0.77433 0.19766 0.0
C2087 C 0.12366 0.75477 0.19036 0.0
H2088 H 0.14133 0.70974 0.10849 0.0
C2089 C 0.0907 0.68946 0.08419 0.0
C2090 C 0.09494 0.66817 0.09344 0.0
C2091 C 0.09929 0.70643 0.10169 0.0
C2092 C 0.13632 0.72211 0.13178 0.0
H2093 H 0.14376 0.83002 0.20351 0.0
H2094 H 0.12907 0.79839 0.18482 0.0
H2095 H 0.15584 0.74086 0.13245 0.0
H2096 H 0.11161 0.64799 0.12766 0.0
H2097 H 0.127 0.67788 0.15664 0.0
H2098 H 0.10391 0.73626 0.18701 0.0
C2099 C 0.14066 0.79632 0.19201 0.0
C2100 C 0.14464 0.73995 0.14588 0.0
C2101 C 0.14908 0.81454 0.20243 0.0
C2102 C 0.1081 0.66422 0.11986 0.0
C2103 C 0.11689 0.68127 0.13639 0.0
C2104 C 0.11528 0.73712 0.17535 0.0
C2105 C 0.14723 0.77595 0.18898 0.0
C2106 C 0.13843 0.7566 0.17529 0.0
C2107 C 0.11246 0.70251 0.12789 0.0
C2108 C 0.12153 0.72068 0.14581 0.0
H2109 H 0.18254 0.79076 0.21254 0.0
H2110 H 0.16787 0.75896 0.19718 0.0
H2111 H 0.11853 0.76694 0.21388 0.0
H2112 H 0.08054 0.69307 0.06449 0.0
H2113 H 0.09569 0.72266 0.09438 0.0
C2114 C 0.8253 0.20943 0.20545 0.0
C2115 C 0.83169 0.18904 0.20899 0.0
C2116 C 0.83393 0.22742 0.1956 0.0
C2117 C 0.86633 0.24344 0.12769 0.0
H2118 H 0.86584 0.29471 0.21166 0.0
C2119 C 0.90487 0.31366 0.08317 0.0
C2120 C 0.90023 0.33464 0.09357 0.0
C2121 C 0.89658 0.29617 0.09931 0.0
C2122 C 0.86594 0.2807 0.1872 0.0
H2123 H 0.85212 0.17146 0.20583 0.0
H2124 H 0.8672 0.20296 0.18678 0.0
H2125 H 0.85134 0.26367 0.2375 0.0
H2126 H 0.88318 0.35377 0.1286 0.0
H2127 H 0.86817 0.32321 0.1544 0.0
H2128 H 0.88025 0.26043 0.07594 0.0
C2129 C 0.85552 0.20495 0.19234 0.0
C2130 C 0.85772 0.26287 0.20236 0.0
C2131 C 0.84692 0.187 0.2034 0.0
C2132 C 0.88701 0.33776 0.12006 0.0
C2133 C 0.8785 0.3202 0.13525 0.0
C2134 C 0.87429 0.26136 0.11192 0.0
C2135 C 0.84907 0.22528 0.18801 0.0
C2136 C 0.85795 0.24406 0.1729 0.0
C2137 C 0.8832 0.29912 0.12524 0.0
C2138 C 0.87432 0.28023 0.14162 0.0
H2139 H 0.81358 0.21146 0.20993 0.0
H2140 H 0.82871 0.24292 0.19221 0.0
H2141 H 0.86647 0.22922 0.10387 0.0
H2142 H 0.91518 0.31067 0.06378 0.0
H2143 H 0.90086 0.28032 0.0921 0.0
loop_
_geom_bond_atom_site_label_1
_geom_bond_atom_site_label_2
_geom_bond_distance
_geom_bond_site_symmetry_2
_ccdc_geom_bond_type
O0 Tb1 2.292 . S
O0 C3 1.255 . S
Tb1 O0 2.292 . S
Tb1 O17 2.326 . S
Tb1 O19 2.500 . S
Tb1 O20 2.473 . S
Tb1 O23 2.324 . S
Eu2 O6 2.292 . S
Eu2 C7 2.852 . S
Eu2 O18 2.324 1_556 S
Eu2 O22 2.327 . S
Eu2 O24 2.500 . S
Eu2 O25 2.473 . S
C3 O0 1.255 . S
C3 O4 1.247 . S
O4 C3 1.247 . S
C5 O17 1.242 . S
C5 O18 1.258 . S
O6 Eu2 2.292 . S
O6 C8 1.255 . S
C7 Eu2 2.852 . S
C7 C11 1.503 . S
C7 O24 1.273 . S
C7 O25 1.257 . S
C8 O6 1.255 . S
C8 O9 1.247 1_556 S
O9 C8 1.247 1_554 S
C10 O22 1.238 1_554 S
C10 O23 1.258 . S
C11 C7 1.503 . S
C11 C12 1.379 . S
C11 C16 1.392 . S
C12 C11 1.379 . S
C12 C13 1.404 . S
C12 H26 0.929 . S
C13 C12 1.404 . S
C13 C14 1.389 . S
C14 C13 1.389 . S
C14 C15 1.399 . S
C14 H27 0.931 . S
C15 C14 1.399 . S
C15 C16 1.390 . S
C16 C11 1.392 . S
C16 C15 1.390 . S
C16 H28 0.929 . S
O17 Tb1 2.326 . S
O17 C5 1.242 . S
O18 Eu2 2.324 1_554 S
O18 C5 1.258 . S
O19 Tb1 2.500 . S
O19 C21 1.273 . S
O20 Tb1 2.473 . S
O20 C21 1.257 . S
C21 O19 1.273 . S
C21 O20 1.257 . S
O22 Eu2 2.327 . S
O22 C10 1.238 1_556 S
O23 Tb1 2.324 . S
O23 C10 1.258 . S
O24 Eu2 2.500 . S
O24 C7 1.273 . S
O25 Eu2 2.473 . S
O25 C7 1.257 . S
H26 C12 0.929 . S
H27 C14 0.931 . S
H28 C16 0.929 . S
O29 Tb30 2.292 . S
O29 C32 1.255 . S
Tb30 O29 2.292 . S
Tb30 O46 2.326 . S
Tb30 O48 2.500 . S
Tb30 O49 2.473 . S
Tb30 O52 2.324 . S
Eu31 O35 2.292 . S
Eu31 C36 2.852 . S
Eu31 O47 2.324 1_556 S
Eu31 O51 2.327 . S
Eu31 O53 2.500 . S
Eu31 O54 2.473 . S
C32 O29 1.255 . S
C32 O33 1.247 . S
O33 C32 1.247 . S
C34 O46 1.242 . S
C34 O47 1.258 . S
O35 Eu31 2.292 . S
O35 C37 1.255 . S
C36 Eu31 2.852 . S
C36 C40 1.503 . S
C36 O53 1.273 . S
C36 O54 1.257 . S
C37 O35 1.255 . S
C37 O38 1.247 1_556 S
O38 C37 1.247 1_554 S
C39 O51 1.238 1_554 S
C39 O52 1.258 . S
C40 C36 1.503 . S
C40 C41 1.379 . S
C40 C45 1.392 . S
C41 C40 1.379 . S
C41 C42 1.404 . S
C41 H55 0.929 . S
C42 C41 1.404 . S
C42 C43 1.389 . S
C43 C42 1.389 . S
C43 C44 1.399 . S
C43 H56 0.931 . S
C44 C43 1.399 . S
C44 C45 1.390 . S
C45 C40 1.392 . S
C45 C44 1.390 . S
C45 H57 0.929 . S
O46 Tb30 2.326 . S
O46 C34 1.242 . S
O47 Eu31 2.324 1_554 S
O47 C34 1.258 . S
O48 Tb30 2.500 . S
O48 C50 1.273 . S
O49 Tb30 2.473 . S
O49 C50 1.257 . S
C50 O48 1.273 . S
C50 O49 1.257 . S
O51 Eu31 2.327 . S
O51 C39 1.238 1_556 S
O52 Tb30 2.324 . S
O52 C39 1.258 . S
O53 Eu31 2.500 . S
O53 C36 1.273 . S
O54 Eu31 2.473 . S
O54 C36 1.257 . S
H55 C41 0.929 . S
H56 C43 0.931 . S
H57 C45 0.929 . S
O58 Tb59 2.292 . S
O58 C61 1.255 . S
Tb59 O58 2.292 . S
Tb59 O75 2.326 . S
Tb59 O77 2.500 . S
Tb59 O78 2.473 . S
Tb59 O81 2.324 . S
Eu60 O64 2.292 . S
Eu60 C65 2.852 . S
Eu60 O76 2.324 . S
Eu60 O80 2.326 . S
Eu60 O82 2.500 . S
Eu60 O83 2.473 . S
C61 O58 1.255 . S
C61 O62 1.247 . S
O62 C61 1.247 . S
C63 O75 1.242 . S
C63 O76 1.258 . S
O64 Eu60 2.292 . S
O64 C66 1.255 . S
C65 Eu60 2.852 . S
C65 C69 1.503 . S
C65 O82 1.273 . S
C65 O83 1.257 . S
C66 O64 1.255 . S
C66 O67 1.247 . S
O67 C66 1.247 . S
C68 O80 1.242 . S
C68 O81 1.258 . S
C69 C65 1.503 . S
C69 C70 1.379 . S
C69 C74 1.392 . S
C70 C69 1.379 . S
C70 C71 1.404 . S
C70 H84 0.929 . S
C71 C70 1.404 . S
C71 C72 1.389 . S
C72 C71 1.389 . S
C72 C73 1.399 . S
C72 H85 0.931 . S
C73 C72 1.399 . S
C73 C74 1.390 . S
C74 C69 1.392 . S
C74 C73 1.390 . S
C74 H86 0.929 . S
O75 Tb59 2.326 . S
O75 C63 1.242 . S
O76 Eu60 2.324 . S
O76 C63 1.258 . S
O77 Tb59 2.500 . S
O77 C79 1.273 . S
O78 Tb59 2.473 . S
O78 C79 1.257 . S
C79 O77 1.273 . S
C79 O78 1.257 . S
O80 Eu60 2.326 . S
O80 C68 1.242 . S
O81 Tb59 2.324 . S
O81 C68 1.258 . S
O82 Eu60 2.500 . S
O82 C65 1.273 . S
O83 Eu60 2.473 . S
O83 C65 1.257 . S
H84 C70 0.929 . S
H85 C72 0.931 . S
H86 C74 0.929 . S
O87 Tb88 2.292 . S
O87 C90 1.255 . S
Tb88 O87 2.292 . S
Tb88 O104 2.326 . S
Tb88 O106 2.500 . S
Tb88 O107 2.473 . S
Tb88 O110 2.324 . S
Eu89 O93 2.292 . S
Eu89 C94 2.852 . S
Eu89 O105 2.324 . S
Eu89 O109 2.326 . S
Eu89 O111 2.500 . S
Eu89 O112 2.473 . S
C90 O87 1.255 . S
C90 O91 1.247 . S
O91 C90 1.247 . S
C92 O104 1.242 . S
C92 O105 1.258 . S
O93 Eu89 2.292 . S
O93 C95 1.255 . S
C94 Eu89 2.852 . S
C94 C98 1.503 . S
C94 O111 1.273 . S
C94 O112 1.257 . S
C95 O93 1.255 . S
C95 O96 1.247 . S
O96 C95 1.247 . S
C97 O109 1.242 . S
C97 O110 1.258 . S
C98 C94 1.503 . S
C98 C99 1.379 . S
C98 C103 1.392 . S
C99 C98 1.379 . S
C99 C100 1.404 . S
C99 H113 0.929 . S
C100 C99 1.404 . S
C100 C101 1.389 . S
C101 C100 1.389 . S
C101 C102 1.399 . S
C101 H114 0.931 . S
C102 C101 1.399 . S
C102 C103 1.390 . S
C103 C98 1.392 . S
C103 C102 1.390 . S
C103 H115 0.929 . S
O104 Tb88 2.326 . S
O104 C92 1.242 . S
O105 Eu89 2.324 . S
O105 C92 1.258 . S
O106 Tb88 2.500 . S
O106 C108 1.273 . S
O107 Tb88 2.473 . S
O107 C108 1.257 . S
C108 O106 1.273 . S
C108 O107 1.257 . S
O109 Eu89 2.326 . S
O109 C97 1.242 . S
O110 Tb88 2.324 . S
O110 C97 1.258 . S
O111 Eu89 2.500 . S
O111 C94 1.273 . S
O112 Eu89 2.473 . S
O112 C94 1.257 . S
H113 C99 0.929 . S
H114 C101 0.931 . S
H115 C103 0.929 . S
O116 Tb117 2.292 . S
O116 C119 1.255 . S
Tb117 O116 2.292 . S
Tb117 O133 2.326 . S
Tb117 O135 2.500 . S
Tb117 O136 2.473 . S
Tb117 O139 2.324 . S
Eu118 O122 2.292 . S
Eu118 C123 2.852 . S
Eu118 O134 2.324 . S
Eu118 O138 2.326 . S
Eu118 O140 2.500 . S
Eu118 O141 2.473 . S
C119 O116 1.255 . S
C119 O120 1.247 . S
O120 C119 1.247 . S
C121 O133 1.242 . S
C121 O134 1.258 . S
O122 Eu118 2.292 . S
O122 C124 1.255 . S
C123 Eu118 2.852 . S
C123 C127 1.503 . S
C123 O140 1.273 . S
C123 O141 1.257 . S
C124 O122 1.255 . S
C124 O125 1.247 . S
O125 C124 1.247 . S
C126 O138 1.242 . S
C126 O139 1.258 . S
C127 C123 1.503 . S
C127 C128 1.379 . S
C127 C132 1.392 . S
C128 C127 1.379 . S
C128 C129 1.404 . S
C128 H142 0.929 . S
C129 C128 1.404 . S
C129 C130 1.389 . S
C130 C129 1.389 . S
C130 C131 1.399 . S
C130 H143 0.931 . S
C131 C130 1.399 . S
C131 C132 1.390 . S
C132 C127 1.392 . S
C132 C131 1.390 . S
C132 H144 0.929 . S
O133 Tb117 2.326 . S
O133 C121 1.242 . S
O134 Eu118 2.324 . S
O134 C121 1.258 . S
O135 Tb117 2.500 . S
O135 C137 1.273 . S
O136 Tb117 2.473 . S
O136 C137 1.257 . S
C137 O135 1.273 . S
C137 O136 1.257 . S
O138 Eu118 2.326 . S
O138 C126 1.242 . S
O139 Tb117 2.324 . S
O139 C126 1.258 . S
O140 Eu118 2.500 . S
O140 C123 1.273 . S
O141 Eu118 2.473 . S
O141 C123 1.257 . S
H142 C128 0.929 . S
H143 C130 0.931 . S
H144 C132 0.929 . S
O145 Tb146 2.292 . S
O145 C148 1.255 . S
Tb146 O145 2.292 . S
Tb146 O162 2.326 . S
Tb146 O164 2.500 . S
Tb146 O165 2.473 . S
Tb146 O168 2.324 . S
Eu147 O151 2.292 . S
Eu147 C152 2.852 . S
Eu147 O163 2.324 . S
Eu147 O167 2.326 . S
Eu147 O169 2.500 . S
Eu147 O170 2.473 . S
C148 O145 1.255 . S
C148 O149 1.247 . S
O149 C148 1.247 . S
C150 O162 1.242 . S
C150 O163 1.258 . S
O151 Eu147 2.292 . S
O151 C153 1.255 . S
C152 Eu147 2.852 . S
C152 C156 1.503 . S
C152 O169 1.273 . S
C152 O170 1.257 . S
C153 O151 1.255 . S
C153 O154 1.247 . S
O154 C153 1.247 . S
C155 O167 1.242 . S
C155 O168 1.258 . S
C156 C152 1.503 . S
C156 C157 1.379 . S
C156 C161 1.392 . S
C157 C156 1.379 . S
C157 C158 1.404 . S
C157 H171 0.929 . S
C158 C157 1.404 . S
C158 C159 1.389 . S
C159 C158 1.389 . S
C159 C160 1.399 . S
C159 H172 0.931 . S
C160 C159 1.399 . S
C160 C161 1.390 . S
C161 C156 1.392 . S
C161 C160 1.390 . S
C161 H173 0.929 . S
O162 Tb146 2.326 . S
O162 C150 1.242 . S
O163 Eu147 2.324 . S
O163 C150 1.258 . S
O164 Tb146 2.500 . S
O164 C166 1.273 . S
O165 Tb146 2.473 . S
O165 C166 1.257 . S
C166 O164 1.273 . S
C166 O165 1.257 . S
O167 Eu147 2.326 . S
O167 C155 1.242 . S
O168 Tb146 2.324 . S
O168 C155 1.258 . S
O169 Eu147 2.500 . S
O169 C152 1.273 . S
O170 Eu147 2.473 . S
O170 C152 1.257 . S
H171 C157 0.929 . S
H172 C159 0.931 . S
H173 C161 0.929 . S
O174 Tb175 2.292 . S
O174 C177 1.255 . S
Tb175 O174 2.292 . S
Tb175 O191 2.326 . S
Tb175 O193 2.500 . S
Tb175 O194 2.473 . S
Tb175 O197 2.324 . S
Eu176 O180 2.292 . S
Eu176 C181 2.852 . S
Eu176 O192 2.324 . S
Eu176 O196 2.326 . S
Eu176 O198 2.500 . S
Eu176 O199 2.473 . S
C177 O174 1.255 . S
C177 O178 1.247 . S
O178 C177 1.247 . S
C179 O191 1.242 . S
C179 O192 1.258 . S
O180 Eu176 2.292 . S
O180 C182 1.255 . S
C181 Eu176 2.852 . S
C181 C185 1.503 . S
C181 O198 1.273 . S
C181 O199 1.257 . S
C182 O180 1.255 . S
C182 O183 1.247 . S
O183 C182 1.247 . S
C184 O196 1.242 . S
C184 O197 1.258 . S
C185 C181 1.503 . S
C185 C186 1.379 . S
C185 C190 1.392 . S
C186 C185 1.379 . S
C186 C187 1.404 . S
C186 H200 0.929 . S
C187 C186 1.404 . S
C187 C188 1.389 . S
C188 C187 1.389 . S
C188 C189 1.399 . S
C188 H201 0.931 . S
C189 C188 1.399 . S
C189 C190 1.390 . S
C190 C185 1.392 . S
C190 C189 1.390 . S
C190 H202 0.929 . S
O191 Tb175 2.326 . S
O191 C179 1.242 . S
O192 Eu176 2.324 . S
O192 C179 1.258 . S
O193 Tb175 2.500 . S
O193 C195 1.273 . S
O194 Tb175 2.473 . S
O194 C195 1.257 . S
C195 O193 1.273 . S
C195 O194 1.257 . S
O196 Eu176 2.326 . S
O196 C184 1.242 . S
O197 Tb175 2.324 . S
O197 C184 1.258 . S
O198 Eu176 2.500 . S
O198 C181 1.273 . S
O199 Eu176 2.473 . S
O199 C181 1.257 . S
H200 C186 0.929 . S
H201 C188 0.931 . S
H202 C190 0.929 . S
O203 Tb204 2.292 . S
O203 C206 1.255 . S
Tb204 O203 2.292 . S
Tb204 O220 2.326 . S
Tb204 O222 2.500 . S
Tb204 O223 2.473 . S
Tb204 O226 2.324 . S
Eu205 O209 2.292 . S
Eu205 C210 2.852 . S
Eu205 O221 2.324 . S
Eu205 O225 2.326 . S
Eu205 O227 2.500 . S
Eu205 O228 2.473 . S
C206 O203 1.255 . S
C206 O207 1.247 . S
O207 C206 1.247 . S
C208 O220 1.242 . S
C208 O221 1.258 . S
O209 Eu205 2.292 . S
O209 C211 1.255 . S
C210 Eu205 2.852 . S
C210 C214 1.503 . S
C210 O227 1.273 . S
C210 O228 1.257 . S
C211 O209 1.255 . S
C211 O212 1.247 . S
O212 C211 1.247 . S
C213 O225 1.242 . S
C213 O226 1.258 . S
C214 C210 1.503 . S
C214 C215 1.379 . S
C214 C219 1.392 . S
C215 C214 1.379 . S
C215 C216 1.404 . S
C215 H229 0.929 . S
C216 C215 1.404 . S
C216 C217 1.389 . S
C217 C216 1.389 . S
C217 C218 1.399 . S
C217 H230 0.931 . S
C218 C217 1.399 . S
C218 C219 1.390 . S
C219 C214 1.392 . S
C219 C218 1.390 . S
C219 H231 0.929 . S
O220 Tb204 2.326 . S
O220 C208 1.242 . S
O221 Eu205 2.324 . S
O221 C208 1.258 . S
O222 Tb204 2.500 . S
O222 C224 1.273 . S
O223 Tb204 2.473 . S
O223 C224 1.257 . S
C224 O222 1.273 . S
C224 O223 1.257 . S
O225 Eu205 2.326 . S
O225 C213 1.242 . S
O226 Tb204 2.324 . S
O226 C213 1.258 . S
O227 Eu205 2.500 . S
O227 C210 1.273 . S
O228 Eu205 2.473 . S
O228 C210 1.257 . S
H229 C215 0.929 . S
H230 C217 0.931 . S
H231 C219 0.929 . S
O232 Tb233 2.292 . S
O232 C235 1.255 . S
Tb233 O232 2.292 . S
Tb233 O249 2.326 . S
Tb233 O251 2.500 . S
Tb233 O252 2.473 . S
Tb233 O255 2.324 . S
Eu234 O238 2.292 . S
Eu234 C239 2.852 . S
Eu234 O250 2.324 . S
Eu234 O254 2.326 . S
Eu234 O256 2.500 . S
Eu234 O257 2.473 . S
C235 O232 1.255 . S
C235 O236 1.247 . S
O236 C235 1.247 . S
C237 O249 1.242 . S
C237 O250 1.258 . S
O238 Eu234 2.292 . S
O238 C240 1.255 . S
C239 Eu234 2.852 . S
C239 C243 1.503 . S
C239 O256 1.273 . S
C239 O257 1.257 . S
C240 O238 1.255 . S
C240 O241 1.247 . S
O241 C240 1.247 . S
C242 O254 1.242 . S
C242 O255 1.258 . S
C243 C239 1.503 . S
C243 C244 1.379 . S
C243 C248 1.392 . S
C244 C243 1.379 . S
C244 C245 1.404 . S
C244 H258 0.929 . S
C245 C244 1.404 . S
C245 C246 1.389 . S
C246 C245 1.389 . S
C246 C247 1.399 . S
C246 H259 0.931 . S
C247 C246 1.399 . S
C247 C248 1.390 . S
C248 C243 1.392 . S
C248 C247 1.390 . S
C248 H260 0.929 . S
O249 Tb233 2.326 . S
O249 C237 1.242 . S
O250 Eu234 2.324 . S
O250 C237 1.258 . S
O251 Tb233 2.500 . S
O251 C253 1.273 . S
O252 Tb233 2.473 . S
O252 C253 1.257 . S
C253 O251 1.273 . S
C253 O252 1.257 . S
O254 Eu234 2.326 . S
O254 C242 1.242 . S
O255 Tb233 2.324 . S
O255 C242 1.258 . S
O256 Eu234 2.500 . S
O256 C239 1.273 . S
O257 Eu234 2.473 . S
O257 C239 1.257 . S
H258 C244 0.929 . S
H259 C246 0.931 . S
H260 C248 0.929 . S
O261 Tb262 2.292 . S
O261 C264 1.255 . S
Tb262 O261 2.292 . S
Tb262 O278 2.326 . S
Tb262 O280 2.500 . S
Tb262 O281 2.473 . S
Tb262 O284 2.324 . S
Eu263 O267 2.292 . S
Eu263 C268 2.852 . S
Eu263 O279 2.324 . S
Eu263 O283 2.326 . S
Eu263 O285 2.500 . S
Eu263 O286 2.473 . S
C264 O261 1.255 . S
C264 O265 1.247 . S
O265 C264 1.247 . S
C266 O278 1.242 . S
C266 O279 1.258 . S
O267 Eu263 2.292 . S
O267 C269 1.255 . S
C268 Eu263 2.852 . S
C268 C272 1.503 . S
C268 O285 1.273 . S
C268 O286 1.257 . S
C269 O267 1.255 . S
C269 O270 1.247 . S
O270 C269 1.247 . S
C271 O283 1.242 . S
C271 O284 1.258 . S
C272 C268 1.503 . S
C272 C273 1.379 . S
C272 C277 1.392 . S
C273 C272 1.379 . S
C273 C274 1.404 . S
C273 H287 0.929 . S
C274 C273 1.404 . S
C274 C275 1.389 . S
C275 C274 1.389 . S
C275 C276 1.399 . S
C275 H288 0.931 . S
C276 C275 1.399 . S
C276 C277 1.390 . S
C277 C272 1.392 . S
C277 C276 1.390 . S
C277 H289 0.929 . S
O278 Tb262 2.326 . S
O278 C266 1.242 . S
O279 Eu263 2.324 . S
O279 C266 1.258 . S
O280 Tb262 2.500 . S
O280 C282 1.273 . S
O281 Tb262 2.473 . S
O281 C282 1.257 . S
C282 O280 1.273 . S
C282 O281 1.257 . S
O283 Eu263 2.326 . S
O283 C271 1.242 . S
O284 Tb262 2.324 . S
O284 C271 1.258 . S
O285 Eu263 2.500 . S
O285 C268 1.273 . S
O286 Eu263 2.473 . S
O286 C268 1.257 . S
H287 C273 0.929 . S
H288 C275 0.931 . S
H289 C277 0.929 . S
O290 Tb291 2.292 . S
O290 C293 1.255 . S
Tb291 O290 2.292 . S
Tb291 O307 2.326 . S
Tb291 O309 2.500 . S
Tb291 O310 2.473 . S
Tb291 O313 2.324 . S
Eu292 O296 2.292 . S
Eu292 C297 2.852 . S
Eu292 O308 2.324 . S
Eu292 O312 2.326 . S
Eu292 O314 2.500 . S
Eu292 O315 2.473 . S
C293 O290 1.255 . S
C293 O294 1.247 . S
O294 C293 1.247 . S
C295 O307 1.242 . S
C295 O308 1.258 . S
O296 Eu292 2.292 . S
O296 C298 1.255 . S
C297 Eu292 2.852 . S
C297 C301 1.503 . S
C297 O314 1.273 . S
C297 O315 1.257 . S
C298 O296 1.255 . S
C298 O299 1.247 . S
O299 C298 1.247 . S
C300 O312 1.242 . S
C300 O313 1.258 . S
C301 C297 1.503 . S
C301 C302 1.379 . S
C301 C306 1.392 . S
C302 C301 1.379 . S
C302 C303 1.404 . S
C302 H316 0.929 . S
C303 C302 1.404 . S
C303 C304 1.389 . S
C304 C303 1.389 . S
C304 C305 1.399 . S
C304 H317 0.931 . S
C305 C304 1.399 . S
C305 C306 1.390 . S
C306 C301 1.392 . S
C306 C305 1.390 . S
C306 H318 0.929 . S
O307 Tb291 2.326 . S
O307 C295 1.242 . S
O308 Eu292 2.324 . S
O308 C295 1.258 . S
O309 Tb291 2.500 . S
O309 C311 1.273 . S
O310 Tb291 2.473 . S
O310 C311 1.257 . S
C311 O309 1.273 . S
C311 O310 1.257 . S
O312 Eu292 2.326 . S
O312 C300 1.242 . S
O313 Tb291 2.324 . S
O313 C300 1.258 . S
O314 Eu292 2.500 . S
O314 C297 1.273 . S
O315 Eu292 2.473 . S
O315 C297 1.257 . S
H316 C302 0.929 . S
H317 C304 0.931 . S
H318 C306 0.929 . S
O319 Tb320 2.292 . S
O319 C322 1.255 . S
Tb320 O319 2.292 . S
Tb320 O336 2.326 . S
Tb320 O338 2.500 . S
Tb320 O339 2.473 . S
Tb320 O342 2.324 . S
Eu321 O325 2.292 . S
Eu321 C326 2.852 . S
Eu321 O337 2.324 . S
Eu321 O341 2.326 . S
Eu321 O343 2.500 . S
Eu321 O344 2.473 . S
C322 O319 1.255 . S
C322 O323 1.247 . S
O323 C322 1.247 . S
C324 O336 1.242 . S
C324 O337 1.258 . S
O325 Eu321 2.292 . S
O325 C327 1.255 . S
C326 Eu321 2.852 . S
C326 C330 1.503 . S
C326 O343 1.273 . S
C326 O344 1.257 . S
C327 O325 1.255 . S
C327 O328 1.247 . S
O328 C327 1.247 . S
C329 O341 1.242 . S
C329 O342 1.258 . S
C330 C326 1.503 . S
C330 C331 1.379 . S
C330 C335 1.392 . S
C331 C330 1.379 . S
C331 C332 1.404 . S
C331 H345 0.929 . S
C332 C331 1.404 . S
C332 C333 1.389 . S
C333 C332 1.389 . S
C333 C334 1.399 . S
C333 H346 0.931 . S
C334 C333 1.399 . S
C334 C335 1.390 . S
C335 C330 1.392 . S
C335 C334 1.390 . S
C335 H347 0.929 . S
O336 Tb320 2.326 . S
O336 C324 1.242 . S
O337 Eu321 2.324 . S
O337 C324 1.258 . S
O338 Tb320 2.500 . S
O338 C340 1.273 . S
O339 Tb320 2.473 . S
O339 C340 1.257 . S
C340 O338 1.273 . S
C340 O339 1.257 . S
O341 Eu321 2.326 . S
O341 C329 1.242 . S
O342 Tb320 2.324 . S
O342 C329 1.258 . S
O343 Eu321 2.500 . S
O343 C326 1.273 . S
O344 Eu321 2.473 . S
O344 C326 1.257 . S
H345 C331 0.929 . S
H346 C333 0.931 . S
H347 C335 0.929 . S
O348 Tb349 2.292 . S
O348 C351 1.255 . S
Tb349 O348 2.292 . S
Tb349 O365 2.326 . S
Tb349 O367 2.500 . S
Tb349 O368 2.473 . S
Tb349 O371 2.324 . S
Eu350 O354 2.292 . S
Eu350 C355 2.852 . S
Eu350 O366 2.324 1_556 S
Eu350 O370 2.327 . S
Eu350 O372 2.500 . S
Eu350 O373 2.473 . S
C351 O348 1.255 . S
C351 O352 1.247 . S
O352 C351 1.247 . S
C353 O365 1.242 . S
C353 O366 1.258 . S
O354 Eu350 2.292 . S
O354 C356 1.255 . S
C355 Eu350 2.852 . S
C355 C359 1.503 . S
C355 O372 1.273 . S
C355 O373 1.257 . S
C356 O354 1.255 . S
C356 O357 1.247 1_556 S
O357 C356 1.247 1_554 S
C358 O370 1.238 1_554 S
C358 O371 1.258 . S
C359 C355 1.503 . S
C359 C360 1.379 . S
C359 C364 1.392 . S
C360 C359 1.379 . S
C360 C361 1.404 . S
C360 H374 0.929 . S
C361 C360 1.404 . S
C361 C362 1.389 . S
C362 C361 1.389 . S
C362 C363 1.399 . S
C362 H375 0.931 . S
C363 C362 1.399 . S
C363 C364 1.390 . S
C364 C359 1.392 . S
C364 C363 1.390 . S
C364 H376 0.929 . S
O365 Tb349 2.326 . S
O365 C353 1.242 . S
O366 Eu350 2.324 1_554 S
O366 C353 1.258 . S
O367 Tb349 2.500 . S
O367 C369 1.273 . S
O368 Tb349 2.473 . S
O368 C369 1.257 . S
C369 O367 1.273 . S
C369 O368 1.257 . S
O370 Eu350 2.327 . S
O370 C358 1.238 1_556 S
O371 Tb349 2.324 . S
O371 C358 1.258 . S
O372 Eu350 2.500 . S
O372 C355 1.273 . S
O373 Eu350 2.473 . S
O373 C355 1.257 . S
H374 C360 0.929 . S
H375 C362 0.931 . S
H376 C364 0.929 . S
O377 Tb378 2.292 . S
O377 C380 1.255 . S
Tb378 O377 2.292 . S
Tb378 O394 2.326 . S
Tb378 O396 2.500 . S
Tb378 O397 2.473 . S
Tb378 O400 2.324 . S
Eu379 O383 2.292 . S
Eu379 C384 2.852 . S
Eu379 O395 2.324 1_556 S
Eu379 O399 2.327 . S
Eu379 O401 2.500 . S
Eu379 O402 2.473 . S
C380 O377 1.255 . S
C380 O381 1.247 . S
O381 C380 1.247 . S
C382 O394 1.242 . S
C382 O395 1.258 . S
O383 Eu379 2.292 . S
O383 C385 1.255 . S
C384 Eu379 2.852 . S
C384 C388 1.503 . S
C384 O401 1.273 . S
C384 O402 1.257 . S
C385 O383 1.255 . S
C385 O386 1.247 1_556 S
O386 C385 1.247 1_554 S
C387 O399 1.238 1_554 S
C387 O400 1.258 . S
C388 C384 1.503 . S
C388 C389 1.379 . S
C388 C393 1.392 . S
C389 C388 1.379 . S
C389 C390 1.404 . S
C389 H403 0.929 . S
C390 C389 1.404 . S
C390 C391 1.389 . S
C391 C390 1.389 . S
C391 C392 1.399 . S
C391 H404 0.931 . S
C392 C391 1.399 . S
C392 C393 1.390 . S
C393 C388 1.392 . S
C393 C392 1.390 . S
C393 H405 0.929 . S
O394 Tb378 2.326 . S
O394 C382 1.242 . S
O395 Eu379 2.324 1_554 S
O395 C382 1.258 . S
O396 Tb378 2.500 . S
O396 C398 1.273 . S
O397 Tb378 2.473 . S
O397 C398 1.257 . S
C398 O396 1.273 . S
C398 O397 1.257 . S
O399 Eu379 2.327 . S
O399 C387 1.238 1_556 S
O400 Tb378 2.324 . S
O400 C387 1.258 . S
O401 Eu379 2.500 . S
O401 C384 1.273 . S
O402 Eu379 2.473 . S
O402 C384 1.257 . S
H403 C389 0.929 . S
H404 C391 0.931 . S
H405 C393 0.929 . S
O406 Tb407 2.292 . S
O406 C409 1.255 . S
Tb407 O406 2.292 . S
Tb407 O423 2.326 . S
Tb407 O425 2.500 . S
Tb407 O426 2.473 . S
Tb407 O429 2.324 . S
Eu408 O412 2.292 . S
Eu408 C413 2.852 . S
Eu408 O424 2.324 . S
Eu408 O428 2.326 . S
Eu408 O430 2.500 . S
Eu408 O431 2.473 . S
C409 O406 1.255 . S
C409 O410 1.247 . S
O410 C409 1.247 . S
C411 O423 1.242 . S
C411 O424 1.258 . S
O412 Eu408 2.292 . S
O412 C414 1.255 . S
C413 Eu408 2.852 . S
C413 C417 1.503 . S
C413 O430 1.273 . S
C413 O431 1.257 . S
C414 O412 1.255 . S
C414 O415 1.247 . S
O415 C414 1.247 . S
C416 O428 1.242 . S
C416 O429 1.258 . S
C417 C413 1.503 . S
C417 C418 1.379 . S
C417 C422 1.392 . S
C418 C417 1.379 . S
C418 C419 1.404 . S
C418 H432 0.929 . S
C419 C418 1.404 . S
C419 C420 1.389 . S
C420 C419 1.389 . S
C420 C421 1.399 . S
C420 H433 0.931 . S
C421 C420 1.399 . S
C421 C422 1.390 . S
C422 C417 1.392 . S
C422 C421 1.390 . S
C422 H434 0.929 . S
O423 Tb407 2.326 . S
O423 C411 1.242 . S
O424 Eu408 2.324 . S
O424 C411 1.258 . S
O425 Tb407 2.500 . S
O425 C427 1.273 . S
O426 Tb407 2.473 . S
O426 C427 1.257 . S
C427 O425 1.273 . S
C427 O426 1.257 . S
O428 Eu408 2.326 . S
O428 C416 1.242 . S
O429 Tb407 2.324 . S
O429 C416 1.258 . S
O430 Eu408 2.500 . S
O430 C413 1.273 . S
O431 Eu408 2.473 . S
O431 C413 1.257 . S
H432 C418 0.929 . S
H433 C420 0.931 . S
H434 C422 0.929 . S
O435 Tb436 2.292 . S
O435 C438 1.255 . S
Tb436 O435 2.292 . S
Tb436 O452 2.326 . S
Tb436 O454 2.500 . S
Tb436 O455 2.473 . S
Tb436 O458 2.324 . S
Eu437 O441 2.292 . S
Eu437 C442 2.852 . S
Eu437 O453 2.324 . S
Eu437 O457 2.326 . S
Eu437 O459 2.500 . S
Eu437 O460 2.473 . S
C438 O435 1.255 . S
C438 O439 1.247 . S
O439 C438 1.247 . S
C440 O452 1.242 . S
C440 O453 1.258 . S
O441 Eu437 2.292 . S
O441 C443 1.255 . S
C442 Eu437 2.852 . S
C442 C446 1.503 . S
C442 O459 1.273 . S
C442 O460 1.257 . S
C443 O441 1.255 . S
C443 O444 1.247 . S
O444 C443 1.247 . S
C445 O457 1.242 . S
C445 O458 1.258 . S
C446 C442 1.503 . S
C446 C447 1.379 . S
C446 C451 1.392 . S
C447 C446 1.379 . S
C447 C448 1.404 . S
C447 H461 0.929 . S
C448 C447 1.404 . S
C448 C449 1.389 . S
C449 C448 1.389 . S
C449 C450 1.399 . S
C449 H462 0.931 . S
C450 C449 1.399 . S
C450 C451 1.390 . S
C451 C446 1.392 . S
C451 C450 1.390 . S
C451 H463 0.929 . S
O452 Tb436 2.326 . S
O452 C440 1.242 . S
O453 Eu437 2.324 . S
O453 C440 1.258 . S
O454 Tb436 2.500 . S
O454 C456 1.273 . S
O455 Tb436 2.473 . S
O455 C456 1.257 . S
C456 O454 1.273 . S
C456 O455 1.257 . S
O457 Eu437 2.326 . S
O457 C445 1.242 . S
O458 Tb436 2.324 . S
O458 C445 1.258 . S
O459 Eu437 2.500 . S
O459 C442 1.273 . S
O460 Eu437 2.473 . S
O460 C442 1.257 . S
H461 C447 0.929 . S
H462 C449 0.931 . S
H463 C451 0.929 . S
C464 C465 1.349 . S
C464 C466 1.327 . S
C464 H489 0.950 . S
C465 C464 1.349 . S
C465 C481 1.349 . S
C466 C464 1.327 . S
C466 C485 1.429 . S
C466 H490 0.950 . S
C467 C484 1.574 . S
C467 C486 1.368 . S
C467 H491 0.949 . S
H468 C472 0.949 . S
C469 C470 1.349 . S
C469 C471 1.327 . S
C469 H492 0.950 . S
C470 C469 1.349 . S
C470 C482 1.349 . S
C471 C469 1.327 . S
C471 C487 1.429 . S
C471 H493 0.950 . S
C472 H468 0.949 . S
C472 C480 1.574 . S
C472 C488 1.368 . S
H473 C481 0.950 . S
H474 C479 0.950 . S
H475 C480 0.949 . S
H476 C482 0.950 . S
H477 C483 0.950 . S
H478 C484 0.949 . S
C479 H474 0.950 . S
C479 C481 1.327 . S
C479 C485 1.429 . S
C480 C472 1.574 . S
C480 H475 0.949 . S
C480 C486 1.368 . S
C481 C465 1.349 . S
C481 H473 0.950 . S
C481 C479 1.327 . S
C482 C470 1.349 . S
C482 H476 0.950 . S
C482 C483 1.327 . S
C483 H477 0.950 . S
C483 C482 1.327 . S
C483 C487 1.429 . S
C484 C467 1.574 . S
C484 H478 0.949 . S
C484 C488 1.368 . S
C485 C466 1.429 . S
C485 C479 1.429 . S
C485 C486 1.523 . S
C486 C467 1.368 . S
C486 C480 1.368 . S
C486 C485 1.523 . S
C487 C471 1.429 . S
C487 C483 1.429 . S
C487 C488 1.523 . S
C488 C472 1.368 . S
C488 C484 1.368 . S
C488 C487 1.523 . S
H489 C464 0.950 . S
H490 C466 0.950 . S
H491 C467 0.949 . S
H492 C469 0.950 . S
H493 C471 0.950 . S
C494 C495 1.349 . S
C494 C496 1.327 . S
C494 H519 0.950 . S
C495 C494 1.349 . S
C495 C511 1.349 . S
C496 C494 1.327 . S
C496 C515 1.429 . S
C496 H520 0.950 . S
C497 C514 1.574 . S
C497 C516 1.368 . S
C497 H521 0.949 . S
H498 C502 0.949 . S
C499 C500 1.349 . S
C499 C501 1.327 . S
C499 H522 0.950 . S
C500 C499 1.349 . S
C500 C512 1.349 . S
C501 C499 1.327 . S
C501 C517 1.429 . S
C501 H523 0.950 . S
C502 H498 0.949 . S
C502 C510 1.574 . S
C502 C518 1.368 . S
H503 C511 0.950 . S
H504 C509 0.950 . S
H505 C510 0.949 . S
H506 C512 0.950 . S
H507 C513 0.950 . S
H508 C514 0.949 . S
C509 H504 0.950 . S
C509 C511 1.327 . S
C509 C515 1.429 . S
C510 C502 1.574 . S
C510 H505 0.949 . S
C510 C516 1.368 . S
C511 C495 1.349 . S
C511 H503 0.950 . S
C511 C509 1.327 . S
C512 C500 1.349 . S
C512 H506 0.950 . S
C512 C513 1.327 . S
C513 H507 0.950 . S
C513 C512 1.327 . S
C513 C517 1.429 . S
C514 C497 1.574 . S
C514 H508 0.949 . S
C514 C518 1.368 . S
C515 C496 1.429 . S
C515 C509 1.429 . S
C515 C516 1.523 . S
C516 C497 1.368 . S
C516 C510 1.368 . S
C516 C515 1.523 . S
C517 C501 1.429 . S
C517 C513 1.429 . S
C517 C518 1.523 . S
C518 C502 1.368 . S
C518 C514 1.368 . S
C518 C517 1.523 . S
H519 C494 0.950 . S
H520 C496 0.950 . S
H521 C497 0.949 . S
H522 C499 0.950 . S
H523 C501 0.950 . S
C524 C525 1.349 . S
C524 C526 1.327 . S
C524 H549 0.950 . S
C525 C524 1.349 . S
C525 C541 1.349 . S
C526 C524 1.327 . S
C526 C545 1.429 . S
C526 H550 0.950 . S
C527 C544 1.574 . S
C527 C546 1.368 . S
C527 H551 0.949 . S
H528 C532 0.949 . S
C529 C530 1.349 . S
C529 C531 1.327 . S
C529 H552 0.950 . S
C530 C529 1.349 . S
C530 C542 1.349 . S
C531 C529 1.327 . S
C531 C547 1.429 . S
C531 H553 0.950 . S
C532 H528 0.949 . S
C532 C540 1.574 . S
C532 C548 1.368 . S
H533 C541 0.950 . S
H534 C539 0.950 . S
H535 C540 0.949 . S
H536 C542 0.950 . S
H537 C543 0.950 . S
H538 C544 0.949 . S
C539 H534 0.950 . S
C539 C541 1.327 . S
C539 C545 1.429 . S
C540 C532 1.574 . S
C540 H535 0.949 . S
C540 C546 1.368 . S
C541 C525 1.349 . S
C541 H533 0.950 . S
C541 C539 1.327 . S
C542 C530 1.349 . S
C542 H536 0.950 . S
C542 C543 1.327 . S
C543 H537 0.950 . S
C543 C542 1.327 . S
C543 C547 1.429 . S
C544 C527 1.574 . S
C544 H538 0.949 . S
C544 C548 1.368 . S
C545 C526 1.429 . S
C545 C539 1.429 . S
C545 C546 1.523 . S
C546 C527 1.368 . S
C546 C540 1.368 . S
C546 C545 1.523 . S
C547 C531 1.429 . S
C547 C543 1.429 . S
C547 C548 1.523 . S
C548 C532 1.368 . S
C548 C544 1.368 . S
C548 C547 1.523 . S
H549 C524 0.950 . S
H550 C526 0.950 . S
H551 C527 0.949 . S
H552 C529 0.950 . S
H553 C531 0.950 . S
C554 C555 1.349 . S
C554 C556 1.327 . S
C554 H579 0.950 . S
C555 C554 1.349 . S
C555 C571 1.349 . S
C556 C554 1.327 . S
C556 C575 1.429 . S
C556 H580 0.950 . S
C557 C574 1.574 . S
C557 C576 1.368 . S
C557 H581 0.949 . S
H558 C562 0.949 . S
C559 C560 1.349 . S
C559 C561 1.327 . S
C559 H582 0.950 . S
C560 C559 1.349 . S
C560 C572 1.349 . S
C561 C559 1.327 . S
C561 C577 1.429 . S
C561 H583 0.950 . S
C562 H558 0.949 . S
C562 C570 1.574 . S
C562 C578 1.368 . S
H563 C571 0.950 . S
H564 C569 0.950 . S
H565 C570 0.949 . S
H566 C572 0.950 . S
H567 C573 0.950 . S
H568 C574 0.949 . S
C569 H564 0.950 . S
C569 C571 1.327 . S
C569 C575 1.429 . S
C570 C562 1.574 . S
C570 H565 0.949 . S
C570 C576 1.368 . S
C571 C555 1.349 . S
C571 H563 0.950 . S
C571 C569 1.327 . S
C572 C560 1.349 . S
C572 H566 0.950 . S
C572 C573 1.327 . S
C573 H567 0.950 . S
C573 C572 1.327 . S
C573 C577 1.429 . S
C574 C557 1.574 . S
C574 H568 0.949 . S
C574 C578 1.368 . S
C575 C556 1.429 . S
C575 C569 1.429 . S
C575 C576 1.523 . S
C576 C557 1.368 . S
C576 C570 1.368 . S
C576 C575 1.523 . S
C577 C561 1.429 . S
C577 C573 1.429 . S
C577 C578 1.523 . S
C578 C562 1.368 . S
C578 C574 1.368 . S
C578 C577 1.523 . S
H579 C554 0.950 . S
H580 C556 0.950 . S
H581 C557 0.949 . S
H582 C559 0.950 . S
H583 C561 0.950 . S
C584 C585 1.349 . S
C584 C586 1.327 . S
C584 H609 0.950 . S
C585 C584 1.349 . S
C585 C601 1.349 . S
C586 C584 1.327 . S
C586 C605 1.429 . S
C586 H610 0.950 . S
C587 C604 1.574 . S
C587 C606 1.368 . S
C587 H611 0.949 . S
H588 C592 0.949 . S
C589 C590 1.349 . S
C589 C591 1.327 . S
C589 H612 0.950 . S
C590 C589 1.349 . S
C590 C602 1.349 . S
C591 C589 1.327 . S
C591 C607 1.429 . S
C591 H613 0.950 . S
C592 H588 0.949 . S
C592 C600 1.574 . S
C592 C608 1.368 . S
H593 C601 0.950 . S
H594 C599 0.950 . S
H595 C600 0.949 . S
H596 C602 0.950 . S
H597 C603 0.950 . S
H598 C604 0.949 . S
C599 H594 0.950 . S
C599 C601 1.327 . S
C599 C605 1.429 . S
C600 C592 1.574 . S
C600 H595 0.949 . S
C600 C606 1.368 . S
C601 C585 1.349 . S
C601 H593 0.950 . S
C601 C599 1.327 . S
C602 C590 1.349 . S
C602 H596 0.950 . S
C602 C603 1.327 . S
C603 H597 0.950 . S
C603 C602 1.327 . S
C603 C607 1.429 . S
C604 C587 1.574 . S
C604 H598 0.949 . S
C604 C608 1.368 . S
C605 C586 1.429 . S
C605 C599 1.429 . S
C605 C606 1.523 . S
C606 C587 1.368 . S
C606 C600 1.368 . S
C606 C605 1.523 . S
C607 C591 1.429 . S
C607 C603 1.429 . S
C607 C608 1.523 . S
C608 C592 1.368 . S
C608 C604 1.368 . S
C608 C607 1.523 . S
H609 C584 0.950 . S
H610 C586 0.950 . S
H611 C587 0.949 . S
H612 C589 0.950 . S
H613 C591 0.950 . S
C614 C615 1.349 . S
C614 C616 1.327 . S
C614 H639 0.950 . S
C615 C614 1.349 . S
C615 C631 1.349 . S
C616 C614 1.327 . S
C616 C635 1.429 . S
C616 H640 0.950 . S
C617 C634 1.574 . S
C617 C636 1.368 . S
C617 H641 0.949 . S
H618 C622 0.949 . S
C619 C620 1.349 . S
C619 C621 1.327 . S
C619 H642 0.950 . S
C620 C619 1.349 . S
C620 C632 1.349 . S
C621 C619 1.327 . S
C621 C637 1.429 . S
C621 H643 0.950 . S
C622 H618 0.949 . S
C622 C630 1.574 . S
C622 C638 1.368 . S
H623 C631 0.950 . S
H624 C629 0.950 . S
H625 C630 0.949 . S
H626 C632 0.950 . S
H627 C633 0.950 . S
H628 C634 0.949 . S
C629 H624 0.950 . S
C629 C631 1.327 . S
C629 C635 1.429 . S
C630 C622 1.574 . S
C630 H625 0.949 . S
C630 C636 1.368 . S
C631 C615 1.349 . S
C631 H623 0.950 . S
C631 C629 1.327 . S
C632 C620 1.349 . S
C632 H626 0.950 . S
C632 C633 1.327 . S
C633 H627 0.950 . S
C633 C632 1.327 . S
C633 C637 1.429 . S
C634 C617 1.574 . S
C634 H628 0.949 . S
C634 C638 1.368 . S
C635 C616 1.429 . S
C635 C629 1.429 . S
C635 C636 1.523 . S
C636 C617 1.368 . S
C636 C630 1.368 . S
C636 C635 1.523 . S
C637 C621 1.429 . S
C637 C633 1.429 . S
C637 C638 1.523 . S
C638 C622 1.368 . S
C638 C634 1.368 . S
C638 C637 1.523 . S
H639 C614 0.950 . S
H640 C616 0.950 . S
H641 C617 0.949 . S
H642 C619 0.950 . S
H643 C621 0.950 . S
C644 C645 1.349 . S
C644 C646 1.327 . S
C644 H669 0.950 . S
C645 C644 1.349 . S
C645 C661 1.349 . S
C646 C644 1.327 . S
C646 C665 1.429 . S
C646 H670 0.950 . S
C647 C664 1.574 1_565 S
C647 C666 1.368 . S
C647 H671 0.949 . S
H648 C652 0.949 . S
C649 C650 1.349 . S
C649 C651 1.327 . S
C649 H672 0.950 . S
C650 C649 1.349 . S
C650 C662 1.349 . S
C651 C649 1.327 . S
C651 C667 1.429 . S
C651 H673 0.950 . S
C652 H648 0.949 . S
C652 C660 1.574 1_554 S
C652 C668 1.368 . S
H653 C661 0.950 . S
H654 C659 0.950 . S
H655 C660 0.949 . S
H656 C662 0.950 . S
H657 C663 0.950 . S
H658 C664 0.949 . S
C659 H654 0.950 . S
C659 C661 1.327 . S
C659 C665 1.429 . S
C660 C652 1.574 1_556 S
C660 H655 0.949 . S
C660 C666 1.368 1_545 S
C661 C645 1.349 . S
C661 H653 0.950 . S
C661 C659 1.327 . S
C662 C650 1.349 . S
C662 H656 0.950 . S
C662 C663 1.327 . S
C663 H657 0.950 . S
C663 C662 1.327 . S
C663 C667 1.429 . S
C664 C647 1.574 1_545 S
C664 H658 0.949 . S
C664 C668 1.368 1_556 S
C665 C646 1.429 . S
C665 C659 1.429 . S
C665 C666 1.523 . S
C666 C647 1.368 . S
C666 C660 1.368 1_565 S
C666 C665 1.523 . S
C667 C651 1.429 . S
C667 C663 1.429 . S
C667 C668 1.523 . S
C668 C652 1.368 . S
C668 C664 1.368 1_554 S
C668 C667 1.523 . S
H669 C644 0.950 . S
H670 C646 0.950 . S
H671 C647 0.949 . S
H672 C649 0.950 . S
H673 C651 0.950 . S
C674 C675 1.349 . S
C674 C676 1.327 . S
C674 H699 0.950 . S
C675 C674 1.349 . S
C675 C691 1.349 . S
C676 C674 1.327 . S
C676 C695 1.429 . S
C676 H700 0.950 . S
C677 C694 1.574 . S
C677 C696 1.368 1_556 S
C677 H701 0.949 . S
H678 C682 0.949 . S
C679 C680 1.349 . S
C679 C681 1.327 . S
C679 H702 0.950 . S
C680 C679 1.349 . S
C680 C692 1.349 . S
C681 C679 1.327 . S
C681 C697 1.429 . S
C681 H703 0.950 . S
C682 H678 0.949 . S
C682 C690 1.574 1_545 S
C682 C698 1.368 1_554 S
H683 C691 0.950 . S
H684 C689 0.950 1_556 S
H685 C690 0.949 . S
H686 C692 0.950 . S
H687 C693 0.950 . S
H688 C694 0.949 . S
C689 H684 0.950 1_554 S
C689 C691 1.327 . S
C689 C695 1.429 . S
C690 C682 1.574 1_565 S
C690 H685 0.949 . S
C690 C696 1.368 . S
C691 C675 1.349 . S
C691 H683 0.950 . S
C691 C689 1.327 . S
C692 C680 1.349 . S
C692 H686 0.950 . S
C692 C693 1.327 . S
C693 H687 0.950 . S
C693 C692 1.327 . S
C693 C697 1.429 . S
C694 C677 1.574 . S
C694 H688 0.949 . S
C694 C698 1.368 1_565 S
C695 C676 1.429 . S
C695 C689 1.429 . S
C695 C696 1.523 . S
C696 C677 1.368 1_554 S
C696 C690 1.368 . S
C696 C695 1.523 . S
C697 C681 1.429 . S
C697 C693 1.429 . S
C697 C698 1.523 . S
C698 C682 1.368 1_556 S
C698 C694 1.368 1_545 S
C698 C697 1.523 . S
H699 C674 0.950 . S
H700 C676 0.950 . S
H701 C677 0.949 . S
H702 C679 0.950 . S
H703 C681 0.950 . S
C704 C705 1.349 . S
C704 C706 1.327 . S
C704 H729 0.950 . S
C705 C704 1.349 . S
C705 C721 1.349 . S
C706 C704 1.327 . S
C706 C725 1.429 . S
C706 H730 0.950 . S
C707 C724 1.574 . S
C707 C726 1.368 1_455 S
C707 H731 0.949 . S
H708 C712 0.952 . S
C709 C710 1.349 . S
C709 C711 1.327 . S
C709 H732 0.950 . S
C710 C709 1.349 . S
C710 C722 1.349 . S
C711 C709 1.327 . S
C711 C727 1.429 . S
C711 H733 0.950 . S
C712 H708 0.952 . S
C712 C720 1.581 . S
C712 C728 1.358 1_655 S
H713 C721 0.950 . S
H714 C719 0.950 . S
H715 C720 0.949 . S
H716 C722 0.950 . S
H717 C723 0.950 . S
H718 C724 0.949 . S
C719 H714 0.950 . S
C719 C721 1.327 . S
C719 C725 1.429 . S
C720 C712 1.581 . S
C720 H715 0.949 . S
C720 C726 1.368 . S
C721 C705 1.349 . S
C721 H713 0.950 . S
C721 C719 1.327 . S
C722 C710 1.349 . S
C722 H716 0.950 . S
C722 C723 1.327 . S
C723 H717 0.950 . S
C723 C722 1.327 . S
C723 C727 1.429 . S
C724 C707 1.574 . S
C724 H718 0.949 . S
C724 C728 1.368 . S
C725 C706 1.429 . S
C725 C719 1.429 . S
C725 C726 1.523 . S
C726 C707 1.368 1_655 S
C726 C720 1.368 . S
C726 C725 1.523 . S
C727 C711 1.429 . S
C727 C723 1.429 . S
C727 C728 1.523 . S
C728 C712 1.358 1_455 S
C728 C724 1.368 . S
C728 C727 1.523 . S
H729 C704 0.950 . S
H730 C706 0.950 . S
H731 C707 0.949 . S
H732 C709 0.950 . S
H733 C711 0.950 . S
C734 C735 1.349 . S
C734 C736 1.327 . S
C734 H759 0.950 . S
C735 C734 1.349 . S
C735 C751 1.349 . S
C736 C734 1.327 . S
C736 C755 1.429 . S
C736 H760 0.950 . S
C737 C754 1.574 . S
C737 C756 1.368 1_655 S
C737 H761 0.949 . S
H738 C742 0.949 . S
C739 C740 1.349 . S
C739 C741 1.327 . S
C739 H762 0.950 . S
C740 C739 1.349 . S
C740 C752 1.349 . S
C741 C739 1.327 . S
C741 C757 1.429 . S
C741 H763 0.950 . S
C742 H738 0.949 . S
C742 C750 1.574 . S
C742 C758 1.368 1_455 S
H743 C751 0.950 . S
H744 C749 0.950 1_655 S
H745 C750 0.949 . S
H746 C752 0.950 . S
H747 C753 0.950 1_455 S
H748 C754 0.949 . S
C749 H744 0.950 1_455 S
C749 C751 1.327 . S
C749 C755 1.429 . S
C750 C742 1.574 . S
C750 H745 0.949 . S
C750 C756 1.368 . S
C751 C735 1.349 . S
C751 H743 0.950 . S
C751 C749 1.327 . S
C752 C740 1.349 . S
C752 H746 0.950 . S
C752 C753 1.327 . S
C753 H747 0.950 1_655 S
C753 C752 1.327 . S
C753 C757 1.429 . S
C754 C737 1.574 . S
C754 H748 0.949 . S
C754 C758 1.368 . S
C755 C736 1.429 . S
C755 C749 1.429 . S
C755 C756 1.523 . S
C756 C737 1.368 1_455 S
C756 C750 1.368 . S
C756 C755 1.523 . S
C757 C741 1.429 . S
C757 C753 1.429 . S
C757 C758 1.523 . S
C758 C742 1.368 1_655 S
C758 C754 1.368 . S
C758 C757 1.523 . S
H759 C734 0.950 . S
H760 C736 0.950 . S
H761 C737 0.949 . S
H762 C739 0.950 . S
H763 C741 0.950 . S
C764 C765 1.349 . S
C764 C766 1.327 . S
C764 H789 0.950 . S
C765 C764 1.349 . S
C765 C781 1.349 . S
C766 C764 1.327 . S
C766 C785 1.429 . S
C766 H790 0.950 . S
C767 C784 1.574 . S
C767 C786 1.368 1_556 S
C767 H791 0.949 . S
H768 C772 0.949 . S
C769 C770 1.349 . S
C769 C771 1.327 . S
C769 H792 0.950 . S
C770 C769 1.349 . S
C770 C782 1.349 . S
C771 C769 1.327 . S
C771 C787 1.429 . S
C771 H793 0.950 . S
C772 H768 0.949 . S
C772 C780 1.574 . S
C772 C788 1.368 1_554 S
H773 C781 0.950 . S
H774 C779 0.950 1_556 S
H775 C780 0.949 . S
H776 C782 0.950 . S
H777 C783 0.950 . S
H778 C784 0.949 . S
C779 H774 0.950 1_554 S
C779 C781 1.327 . S
C779 C785 1.429 . S
C780 C772 1.574 . S
C780 H775 0.949 . S
C780 C786 1.368 . S
C781 C765 1.349 . S
C781 H773 0.950 . S
C781 C779 1.327 . S
C782 C770 1.349 . S
C782 H776 0.950 . S
C782 C783 1.327 . S
C783 H777 0.950 . S
C783 C782 1.327 . S
C783 C787 1.429 . S
C784 C767 1.574 . S
C784 H778 0.949 . S
C784 C788 1.368 . S
C785 C766 1.429 . S
C785 C779 1.429 . S
C785 C786 1.523 . S
C786 C767 1.368 1_554 S
C786 C780 1.368 . S
C786 C785 1.523 . S
C787 C771 1.429 . S
C787 C783 1.429 . S
C787 C788 1.523 . S
C788 C772 1.368 1_556 S
C788 C784 1.368 . S
C788 C787 1.523 . S
H789 C764 0.950 . S
H790 C766 0.950 . S
H791 C767 0.949 . S
H792 C769 0.950 . S
H793 C771 0.950 . S
C794 C795 1.349 . S
C794 C796 1.327 . S
C794 H819 0.950 . S
C795 C794 1.349 . S
C795 C811 1.349 . S
C796 C794 1.327 . S
C796 C815 1.429 . S
C796 H820 0.950 . S
C797 C814 1.574 . S
C797 C816 1.368 . S
C797 H821 0.949 . S
H798 C802 0.949 . S
C799 C800 1.349 . S
C799 C801 1.327 . S
C799 H822 0.950 . S
C800 C799 1.349 . S
C800 C812 1.349 . S
C801 C799 1.327 . S
C801 C817 1.429 . S
C801 H823 0.950 1_554 S
C802 H798 0.949 . S
C802 C810 1.571 1_554 S
C802 C818 1.368 . S
H803 C811 0.950 . S
H804 C809 0.950 . S
H805 C810 0.948 1_554 S
H806 C812 0.950 . S
H807 C813 0.950 . S
H808 C814 0.949 . S
C809 H804 0.950 . S
C809 C811 1.327 . S
C809 C815 1.429 . S
C810 C802 1.571 1_556 S
C810 H805 0.948 1_556 S
C810 C816 1.372 . S
C811 C795 1.349 . S
C811 H803 0.950 . S
C811 C809 1.327 . S
C812 C800 1.349 . S
C812 H806 0.950 . S
C812 C813 1.327 . S
C813 H807 0.950 . S
C813 C812 1.327 . S
C813 C817 1.429 . S
C814 C797 1.574 . S
C814 H808 0.949 . S
C814 C818 1.368 1_556 S
C815 C796 1.429 . S
C815 C809 1.429 . S
C815 C816 1.523 . S
C816 C797 1.368 . S
C816 C810 1.372 . S
C816 C815 1.523 . S
C817 C801 1.429 . S
C817 C813 1.429 . S
C817 C818 1.523 . S
C818 C802 1.368 . S
C818 C814 1.368 1_554 S
C818 C817 1.523 . S
H819 C794 0.950 . S
H820 C796 0.950 . S
H821 C797 0.949 . S
H822 C799 0.950 . S
H823 C801 0.950 1_556 S
C824 C825 1.349 . S
C824 C826 1.327 . S
C824 H849 0.950 . S
C825 C824 1.349 . S
C825 C841 1.349 . S
C826 C824 1.327 . S
C826 C845 1.429 . S
C826 H850 0.950 . S
C827 C844 1.574 . S
C827 C846 1.368 1_655 S
C827 H851 0.949 . S
H828 C832 0.949 . S
C829 C830 1.349 . S
C829 C831 1.327 . S
C829 H852 0.950 . S
C830 C829 1.349 . S
C830 C842 1.349 . S
C831 C829 1.327 . S
C831 C847 1.429 . S
C831 H853 0.950 . S
C832 H828 0.949 . S
C832 C840 1.574 . S
C832 C848 1.368 1_455 S
H833 C841 0.950 . S
H834 C839 0.950 . S
H835 C840 0.949 . S
H836 C842 0.950 . S
H837 C843 0.950 1_455 S
H838 C844 0.949 . S
C839 H834 0.950 . S
C839 C841 1.327 . S
C839 C845 1.429 . S
C840 C832 1.574 . S
C840 H835 0.949 . S
C840 C846 1.368 . S
C841 C825 1.349 . S
C841 H833 0.950 . S
C841 C839 1.327 . S
C842 C830 1.349 . S
C842 H836 0.950 . S
C842 C843 1.327 . S
C843 H837 0.950 1_655 S
C843 C842 1.327 . S
C843 C847 1.429 . S
C844 C827 1.574 . S
C844 H838 0.949 . S
C844 C848 1.368 . S
C845 C826 1.429 . S
C845 C839 1.429 . S
C845 C846 1.523 . S
C846 C827 1.368 1_455 S
C846 C840 1.368 . S
C846 C845 1.523 . S
C847 C831 1.429 . S
C847 C843 1.429 . S
C847 C848 1.523 . S
C848 C832 1.368 1_655 S
C848 C844 1.368 . S
C848 C847 1.523 . S
H849 C824 0.950 . S
H850 C826 0.950 . S
H851 C827 0.949 . S
H852 C829 0.950 . S
H853 C831 0.950 . S
C854 C855 1.349 . S
C854 C856 1.327 . S
C854 H879 0.950 . S
C855 C854 1.349 . S
C855 C871 1.349 . S
C856 C854 1.327 . S
C856 C875 1.429 . S
C856 H880 0.950 . S
C857 C874 1.574 . S
C857 C876 1.368 1_455 S
C857 H881 0.949 . S
H858 C862 0.949 . S
C859 C860 1.349 . S
C859 C861 1.327 . S
C859 H882 0.950 . S
C860 C859 1.349 . S
C860 C872 1.349 . S
C861 C859 1.327 . S
C861 C877 1.429 . S
C861 H883 0.950 . S
C862 H858 0.949 . S
C862 C870 1.574 . S
C862 C878 1.368 1_655 S
H863 C871 0.950 . S
H864 C869 0.950 . S
H865 C870 0.949 . S
H866 C872 0.950 . S
H867 C873 0.950 1_655 S
H868 C874 0.949 . S
C869 H864 0.950 . S
C869 C871 1.327 . S
C869 C875 1.429 . S
C870 C862 1.574 . S
C870 H865 0.949 . S
C870 C876 1.368 . S
C871 C855 1.349 . S
C871 H863 0.950 . S
C871 C869 1.327 . S
C872 C860 1.349 . S
C872 H866 0.950 . S
C872 C873 1.327 . S
C873 H867 0.950 1_455 S
C873 C872 1.327 . S
C873 C877 1.429 . S
C874 C857 1.574 . S
C874 H868 0.949 . S
C874 C878 1.368 . S
C875 C856 1.429 . S
C875 C869 1.429 . S
C875 C876 1.523 . S
C876 C857 1.368 1_655 S
C876 C870 1.368 . S
C876 C875 1.523 . S
C877 C861 1.429 . S
C877 C873 1.429 . S
C877 C878 1.523 . S
C878 C862 1.368 1_455 S
C878 C874 1.368 . S
C878 C877 1.523 . S
H879 C854 0.950 . S
H880 C856 0.950 . S
H881 C857 0.949 . S
H882 C859 0.950 . S
H883 C861 0.950 . S
C884 C885 1.349 . S
C884 C886 1.327 . S
C884 H909 0.950 . S
C885 C884 1.349 . S
C885 C901 1.349 . S
C886 C884 1.327 . S
C886 C905 1.429 . S
C886 H910 0.950 . S
C887 C904 1.574 1_565 S
C887 C906 1.368 . S
C887 H911 0.949 . S
H888 C892 0.949 . S
C889 C890 1.349 . S
C889 C891 1.327 . S
C889 H912 0.950 . S
C890 C889 1.349 . S
C890 C902 1.349 . S
C891 C889 1.327 . S
C891 C907 1.429 . S
C891 H913 0.950 . S
C892 H888 0.949 . S
C892 C900 1.574 . S
C892 C908 1.368 . S
H893 C901 0.950 . S
H894 C899 0.950 . S
H895 C900 0.949 . S
H896 C902 0.950 . S
H897 C903 0.950 . S
H898 C904 0.949 . S
C899 H894 0.950 . S
C899 C901 1.327 . S
C899 C905 1.429 . S
C900 C892 1.574 . S
C900 H895 0.949 . S
C900 C906 1.368 1_545 S
C901 C885 1.349 . S
C901 H893 0.950 . S
C901 C899 1.327 . S
C902 C890 1.349 . S
C902 H896 0.950 . S
C902 C903 1.327 . S
C903 H897 0.950 . S
C903 C902 1.327 . S
C903 C907 1.429 . S
C904 C887 1.574 1_545 S
C904 H898 0.949 . S
C904 C908 1.368 . S
C905 C886 1.429 . S
C905 C899 1.429 . S
C905 C906 1.523 . S
C906 C887 1.368 . S
C906 C900 1.368 1_565 S
C906 C905 1.523 . S
C907 C891 1.429 . S
C907 C903 1.429 . S
C907 C908 1.523 . S
C908 C892 1.368 . S
C908 C904 1.368 . S
C908 C907 1.523 . S
H909 C884 0.950 . S
H910 C886 0.950 . S
H911 C887 0.949 . S
H912 C889 0.950 . S
H913 C891 0.950 . S
C914 C915 1.349 . S
C914 C916 1.327 . S
C914 H939 0.950 . S
C915 C914 1.349 . S
C915 C931 1.349 . S
C916 C914 1.327 . S
C916 C935 1.429 . S
C916 H940 0.950 . S
C917 C934 1.574 . S
C917 C936 1.368 . S
C917 H941 0.949 . S
H918 C922 0.949 . S
C919 C920 1.349 . S
C919 C921 1.327 . S
C919 H942 0.950 . S
C920 C919 1.349 . S
C920 C932 1.349 . S
C921 C919 1.327 . S
C921 C937 1.429 . S
C921 H943 0.950 . S
C922 H918 0.949 . S
C922 C930 1.574 1_545 S
C922 C938 1.368 . S
H923 C931 0.950 . S
H924 C929 0.950 . S
H925 C930 0.949 . S
H926 C932 0.950 . S
H927 C933 0.950 . S
H928 C934 0.949 . S
C929 H924 0.950 . S
C929 C931 1.327 . S
C929 C935 1.429 . S
C930 C922 1.574 1_565 S
C930 H925 0.949 . S
C930 C936 1.368 . S
C931 C915 1.349 . S
C931 H923 0.950 . S
C931 C929 1.327 . S
C932 C920 1.349 . S
C932 H926 0.950 . S
C932 C933 1.327 . S
C933 H927 0.950 . S
C933 C932 1.327 . S
C933 C937 1.429 . S
C934 C917 1.574 . S
C934 H928 0.949 . S
C934 C938 1.368 1_565 S
C935 C916 1.429 . S
C935 C929 1.429 . S
C935 C936 1.523 . S
C936 C917 1.368 . S
C936 C930 1.368 . S
C936 C935 1.523 . S
C937 C921 1.429 . S
C937 C933 1.429 . S
C937 C938 1.523 . S
C938 C922 1.368 . S
C938 C934 1.368 1_545 S
C938 C937 1.523 . S
H939 C914 0.950 . S
H940 C916 0.950 . S
H941 C917 0.949 . S
H942 C919 0.950 . S
H943 C921 0.950 . S
C944 C945 1.349 . S
C944 C946 1.327 . S
C944 H969 0.950 . S
C945 C944 1.349 . S
C945 C961 1.349 . S
C946 C944 1.327 . S
C946 C965 1.429 . S
C946 H970 0.950 . S
C947 C964 1.574 . S
C947 C966 1.368 . S
C947 H971 0.949 . S
H948 C952 0.949 . S
C949 C950 1.349 . S
C949 C951 1.327 . S
C949 H972 0.950 . S
C950 C949 1.349 . S
C950 C962 1.349 . S
C951 C949 1.327 . S
C951 C967 1.429 . S
C951 H973 0.950 . S
C952 H948 0.949 . S
C952 C960 1.574 . S
C952 C968 1.368 . S
H953 C961 0.950 . S
H954 C959 0.950 . S
H955 C960 0.949 . S
H956 C962 0.950 . S
H957 C963 0.950 . S
H958 C964 0.949 . S
C959 H954 0.950 . S
C959 C961 1.327 . S
C959 C965 1.429 . S
C960 C952 1.574 . S
C960 H955 0.949 . S
C960 C966 1.368 . S
C961 C945 1.349 . S
C961 H953 0.950 . S
C961 C959 1.327 . S
C962 C950 1.349 . S
C962 H956 0.950 . S
C962 C963 1.327 . S
C963 H957 0.950 . S
C963 C962 1.327 . S
C963 C967 1.429 . S
C964 C947 1.574 . S
C964 H958 0.949 . S
C964 C968 1.368 . S
C965 C946 1.429 . S
C965 C959 1.429 . S
C965 C966 1.523 . S
C966 C947 1.368 . S
C966 C960 1.368 . S
C966 C965 1.523 . S
C967 C951 1.429 . S
C967 C963 1.429 . S
C967 C968 1.523 . S
C968 C952 1.368 . S
C968 C964 1.368 . S
C968 C967 1.523 . S
H969 C944 0.950 . S
H970 C946 0.950 . S
H971 C947 0.949 . S
H972 C949 0.950 . S
H973 C951 0.950 . S
C974 C975 1.349 . S
C974 C976 1.327 . S
C974 H999 0.950 . S
C975 C974 1.349 . S
C975 C991 1.349 . S
C976 C974 1.327 . S
C976 C995 1.429 . S
C976 H1000 0.950 . S
C977 C994 1.574 . S
C977 C996 1.368 . S
C977 H1001 0.949 . S
H978 C982 0.949 . S
C979 C980 1.349 . S
C979 C981 1.327 . S
C979 H1002 0.950 . S
C980 C979 1.349 . S
C980 C992 1.349 . S
C981 C979 1.327 . S
C981 C997 1.429 . S
C981 H1003 0.950 . S
C982 H978 0.949 . S
C982 C990 1.574 . S
C982 C998 1.368 . S
H983 C991 0.950 . S
H984 C989 0.950 . S
H985 C990 0.949 . S
H986 C992 0.950 . S
H987 C993 0.950 . S
H988 C994 0.949 . S
C989 H984 0.950 . S
C989 C991 1.327 . S
C989 C995 1.429 . S
C990 C982 1.574 . S
C990 H985 0.949 . S
C990 C996 1.368 . S
C991 C975 1.349 . S
C991 H983 0.950 . S
C991 C989 1.327 . S
C992 C980 1.349 . S
C992 H986 0.950 . S
C992 C993 1.327 . S
C993 H987 0.950 . S
C993 C992 1.327 . S
C993 C997 1.429 . S
C994 C977 1.574 . S
C994 H988 0.949 . S
C994 C998 1.368 . S
C995 C976 1.429 . S
C995 C989 1.429 . S
C995 C996 1.523 . S
C996 C977 1.368 . S
C996 C990 1.368 . S
C996 C995 1.523 . S
C997 C981 1.429 . S
C997 C993 1.429 . S
C997 C998 1.523 . S
C998 C982 1.368 . S
C998 C994 1.368 . S
C998 C997 1.523 . S
H999 C974 0.950 . S
H1000 C976 0.950 . S
H1001 C977 0.949 . S
H1002 C979 0.950 . S
H1003 C981 0.950 . S
C1004 C1005 1.349 . S
C1004 C1006 1.327 . S
C1004 H1029 0.950 . S
C1005 C1004 1.349 . S
C1005 C1021 1.349 . S
C1006 C1004 1.327 . S
C1006 C1025 1.429 . S
C1006 H1030 0.950 . S
C1007 C1024 1.574 . S
C1007 C1026 1.368 . S
C1007 H1031 0.949 . S
H1008 C1012 0.949 . S
C1009 C1010 1.349 . S
C1009 C1011 1.327 . S
C1009 H1032 0.950 . S
C1010 C1009 1.349 . S
C1010 C1022 1.349 . S
C1011 C1009 1.327 . S
C1011 C1027 1.429 . S
C1011 H1033 0.950 . S
C1012 H1008 0.949 . S
C1012 C1020 1.574 . S
C1012 C1028 1.368 . S
H1013 C1021 0.950 . S
H1014 C1019 0.950 . S
H1015 C1020 0.949 . S
H1016 C1022 0.950 . S
H1017 C1023 0.950 . S
H1018 C1024 0.949 . S
C1019 H1014 0.950 . S
C1019 C1021 1.327 . S
C1019 C1025 1.429 . S
C1020 C1012 1.574 . S
C1020 H1015 0.949 . S
C1020 C1026 1.368 . S
C1021 C1005 1.349 . S
C1021 H1013 0.950 . S
C1021 C1019 1.327 . S
C1022 C1010 1.349 . S
C1022 H1016 0.950 . S
C1022 C1023 1.327 . S
C1023 H1017 0.950 . S
C1023 C1022 1.327 . S
C1023 C1027 1.429 . S
C1024 C1007 1.574 . S
C1024 H1018 0.949 . S
C1024 C1028 1.368 . S
C1025 C1006 1.429 . S
C1025 C1019 1.429 . S
C1025 C1026 1.523 . S
C1026 C1007 1.368 . S
C1026 C1020 1.368 . S
C1026 C1025 1.523 . S
C1027 C1011 1.429 . S
C1027 C1023 1.429 . S
C1027 C1028 1.523 . S
C1028 C1012 1.368 . S
C1028 C1024 1.368 . S
C1028 C1027 1.523 . S
H1029 C1004 0.950 . S
H1030 C1006 0.950 . S
H1031 C1007 0.949 . S
H1032 C1009 0.950 . S
H1033 C1011 0.950 . S
C1034 C1035 1.349 . S
C1034 C1036 1.327 . S
C1034 H1059 0.950 . S
C1035 C1034 1.349 . S
C1035 C1051 1.349 . S
C1036 C1034 1.327 . S
C1036 C1055 1.429 . S
C1036 H1060 0.950 . S
C1037 C1054 1.574 . S
C1037 C1056 1.368 . S
C1037 H1061 0.949 . S
H1038 C1042 0.949 . S
C1039 C1040 1.349 . S
C1039 C1041 1.327 . S
C1039 H1062 0.950 . S
C1040 C1039 1.349 . S
C1040 C1052 1.349 . S
C1041 C1039 1.327 . S
C1041 C1057 1.429 . S
C1041 H1063 0.950 . S
C1042 H1038 0.949 . S
C1042 C1050 1.574 . S
C1042 C1058 1.368 . S
H1043 C1051 0.950 . S
H1044 C1049 0.950 . S
H1045 C1050 0.949 . S
H1046 C1052 0.950 . S
H1047 C1053 0.950 . S
H1048 C1054 0.949 . S
C1049 H1044 0.950 . S
C1049 C1051 1.327 . S
C1049 C1055 1.429 . S
C1050 C1042 1.574 . S
C1050 H1045 0.949 . S
C1050 C1056 1.368 . S
C1051 C1035 1.349 . S
C1051 H1043 0.950 . S
C1051 C1049 1.327 . S
C1052 C1040 1.349 . S
C1052 H1046 0.950 . S
C1052 C1053 1.327 . S
C1053 H1047 0.950 . S
C1053 C1052 1.327 . S
C1053 C1057 1.429 . S
C1054 C1037 1.574 . S
C1054 H1048 0.949 . S
C1054 C1058 1.368 . S
C1055 C1036 1.429 . S
C1055 C1049 1.429 . S
C1055 C1056 1.523 . S
C1056 C1037 1.368 . S
C1056 C1050 1.368 . S
C1056 C1055 1.523 . S
C1057 C1041 1.429 . S
C1057 C1053 1.429 . S
C1057 C1058 1.523 . S
C1058 C1042 1.368 . S
C1058 C1054 1.368 . S
C1058 C1057 1.523 . S
H1059 C1034 0.950 . S
H1060 C1036 0.950 . S
H1061 C1037 0.949 . S
H1062 C1039 0.950 . S
H1063 C1041 0.950 . S
C1064 C1065 1.349 . S
C1064 C1066 1.327 . S
C1064 H1089 0.950 . S
C1065 C1064 1.349 . S
C1065 C1081 1.349 . S
C1066 C1064 1.327 . S
C1066 C1085 1.429 . S
C1066 H1090 0.950 . S
C1067 C1084 1.574 1_554 S
C1067 C1086 1.368 . S
C1067 H1091 0.949 . S
H1068 C1072 0.949 . S
C1069 C1070 1.349 . S
C1069 C1071 1.327 . S
C1069 H1092 0.950 . S
C1070 C1069 1.349 . S
C1070 C1082 1.349 . S
C1071 C1069 1.327 . S
C1071 C1087 1.429 . S
C1071 H1093 0.950 . S
C1072 H1068 0.949 . S
C1072 C1080 1.574 1_556 S
C1072 C1088 1.368 . S
H1073 C1081 0.950 . S
H1074 C1079 0.950 . S
H1075 C1080 0.949 . S
H1076 C1082 0.950 . S
H1077 C1083 0.950 . S
H1078 C1084 0.949 . S
C1079 H1074 0.950 . S
C1079 C1081 1.327 . S
C1079 C1085 1.429 . S
C1080 C1072 1.574 1_554 S
C1080 H1075 0.949 . S
C1080 C1086 1.368 . S
C1081 C1065 1.349 . S
C1081 H1073 0.950 . S
C1081 C1079 1.327 . S
C1082 C1070 1.349 . S
C1082 H1076 0.950 . S
C1082 C1083 1.327 . S
C1083 H1077 0.950 . S
C1083 C1082 1.327 . S
C1083 C1087 1.429 . S
C1084 C1067 1.574 1_556 S
C1084 H1078 0.949 . S
C1084 C1088 1.368 . S
C1085 C1066 1.429 . S
C1085 C1079 1.429 . S
C1085 C1086 1.523 . S
C1086 C1067 1.368 . S
C1086 C1080 1.368 . S
C1086 C1085 1.523 . S
C1087 C1071 1.429 . S
C1087 C1083 1.429 . S
C1087 C1088 1.523 . S
C1088 C1072 1.368 . S
C1088 C1084 1.368 . S
C1088 C1087 1.523 . S
H1089 C1064 0.950 . S
H1090 C1066 0.950 . S
H1091 C1067 0.949 . S
H1092 C1069 0.950 . S
H1093 C1071 0.950 . S
C1094 C1095 1.349 . S
C1094 C1096 1.327 . S
C1094 H1119 0.950 . S
C1095 C1094 1.349 . S
C1095 C1111 1.349 . S
C1096 C1094 1.327 . S
C1096 C1115 1.429 . S
C1096 H1120 0.950 . S
C1097 C1114 1.574 1_554 S
C1097 C1116 1.368 . S
C1097 H1121 0.949 . S
H1098 C1102 0.949 . S
C1099 C1100 1.349 . S
C1099 C1101 1.327 . S
C1099 H1122 0.950 . S
C1100 C1099 1.349 . S
C1100 C1112 1.349 . S
C1101 C1099 1.327 . S
C1101 C1117 1.429 . S
C1101 H1123 0.950 . S
C1102 H1098 0.949 . S
C1102 C1110 1.574 1_556 S
C1102 C1118 1.368 . S
H1103 C1111 0.950 . S
H1104 C1109 0.950 . S
H1105 C1110 0.949 . S
H1106 C1112 0.950 . S
H1107 C1113 0.950 . S
H1108 C1114 0.949 . S
C1109 H1104 0.950 . S
C1109 C1111 1.327 . S
C1109 C1115 1.429 . S
C1110 C1102 1.574 1_554 S
C1110 H1105 0.949 . S
C1110 C1116 1.368 . S
C1111 C1095 1.349 . S
C1111 H1103 0.950 . S
C1111 C1109 1.327 . S
C1112 C1100 1.349 . S
C1112 H1106 0.950 . S
C1112 C1113 1.327 . S
C1113 H1107 0.950 . S
C1113 C1112 1.327 . S
C1113 C1117 1.429 . S
C1114 C1097 1.574 1_556 S
C1114 H1108 0.949 . S
C1114 C1118 1.368 . S
C1115 C1096 1.429 . S
C1115 C1109 1.429 . S
C1115 C1116 1.523 . S
C1116 C1097 1.368 . S
C1116 C1110 1.368 . S
C1116 C1115 1.523 . S
C1117 C1101 1.429 . S
C1117 C1113 1.429 . S
C1117 C1118 1.523 . S
C1118 C1102 1.368 . S
C1118 C1114 1.368 . S
C1118 C1117 1.523 . S
H1119 C1094 0.950 . S
H1120 C1096 0.950 . S
H1121 C1097 0.949 . S
H1122 C1099 0.950 . S
H1123 C1101 0.950 . S
C1124 C1125 1.349 . S
C1124 C1126 1.327 . S
C1124 H1149 0.950 . S
C1125 C1124 1.349 . S
C1125 C1141 1.349 . S
C1126 C1124 1.327 . S
C1126 C1145 1.429 . S
C1126 H1150 0.950 . S
C1127 C1144 1.574 . S
C1127 C1146 1.368 . S
C1127 H1151 0.949 . S
H1128 C1132 0.949 . S
C1129 C1130 1.349 . S
C1129 C1131 1.327 . S
C1129 H1152 0.950 . S
C1130 C1129 1.349 . S
C1130 C1142 1.349 . S
C1131 C1129 1.327 . S
C1131 C1147 1.429 . S
C1131 H1153 0.950 . S
C1132 H1128 0.949 . S
C1132 C1140 1.574 . S
C1132 C1148 1.368 . S
H1133 C1141 0.950 . S
H1134 C1139 0.950 . S
H1135 C1140 0.949 . S
H1136 C1142 0.950 . S
H1137 C1143 0.950 . S
H1138 C1144 0.949 . S
C1139 H1134 0.950 . S
C1139 C1141 1.327 . S
C1139 C1145 1.429 . S
C1140 C1132 1.574 . S
C1140 H1135 0.949 . S
C1140 C1146 1.368 . S
C1141 C1125 1.349 . S
C1141 H1133 0.950 . S
C1141 C1139 1.327 . S
C1142 C1130 1.349 . S
C1142 H1136 0.950 . S
C1142 C1143 1.327 . S
C1143 H1137 0.950 . S
C1143 C1142 1.327 . S
C1143 C1147 1.429 . S
C1144 C1127 1.574 . S
C1144 H1138 0.949 . S
C1144 C1148 1.368 . S
C1145 C1126 1.429 . S
C1145 C1139 1.429 . S
C1145 C1146 1.523 . S
C1146 C1127 1.368 . S
C1146 C1140 1.368 . S
C1146 C1145 1.523 . S
C1147 C1131 1.429 . S
C1147 C1143 1.429 . S
C1147 C1148 1.523 . S
C1148 C1132 1.368 . S
C1148 C1144 1.368 . S
C1148 C1147 1.523 . S
H1149 C1124 0.950 . S
H1150 C1126 0.950 . S
H1151 C1127 0.949 . S
H1152 C1129 0.950 . S
H1153 C1131 0.950 . S
C1154 C1155 1.349 . S
C1154 C1156 1.327 . S
C1154 H1179 0.950 . S
C1155 C1154 1.349 . S
C1155 C1171 1.349 . S
C1156 C1154 1.327 . S
C1156 C1175 1.429 . S
C1156 H1180 0.950 . S
C1157 C1174 1.574 . S
C1157 C1176 1.368 . S
C1157 H1181 0.949 . S
H1158 C1162 0.949 . S
C1159 C1160 1.349 . S
C1159 C1161 1.327 . S
C1159 H1182 0.950 . S
C1160 C1159 1.349 . S
C1160 C1172 1.349 . S
C1161 C1159 1.327 . S
C1161 C1177 1.429 . S
C1161 H1183 0.950 . S
C1162 H1158 0.949 . S
C1162 C1170 1.574 . S
C1162 C1178 1.368 . S
H1163 C1171 0.950 . S
H1164 C1169 0.950 . S
H1165 C1170 0.949 . S
H1166 C1172 0.950 . S
H1167 C1173 0.950 . S
H1168 C1174 0.949 . S
C1169 H1164 0.950 . S
C1169 C1171 1.327 . S
C1169 C1175 1.429 . S
C1170 C1162 1.574 . S
C1170 H1165 0.949 . S
C1170 C1176 1.368 . S
C1171 C1155 1.349 . S
C1171 H1163 0.950 . S
C1171 C1169 1.327 . S
C1172 C1160 1.349 . S
C1172 H1166 0.950 . S
C1172 C1173 1.327 . S
C1173 H1167 0.950 . S
C1173 C1172 1.327 . S
C1173 C1177 1.429 . S
C1174 C1157 1.574 . S
C1174 H1168 0.949 . S
C1174 C1178 1.368 . S
C1175 C1156 1.429 . S
C1175 C1169 1.429 . S
C1175 C1176 1.523 . S
C1176 C1157 1.368 . S
C1176 C1170 1.368 . S
C1176 C1175 1.523 . S
C1177 C1161 1.429 . S
C1177 C1173 1.429 . S
C1177 C1178 1.523 . S
C1178 C1162 1.368 . S
C1178 C1174 1.368 . S
C1178 C1177 1.523 . S
H1179 C1154 0.950 . S
H1180 C1156 0.950 . S
H1181 C1157 0.949 . S
H1182 C1159 0.950 . S
H1183 C1161 0.950 . S
C1184 C1185 1.349 . S
C1184 C1186 1.327 . S
C1184 H1209 0.950 . S
C1185 C1184 1.349 . S
C1185 C1201 1.349 . S
C1186 C1184 1.327 . S
C1186 C1205 1.429 . S
C1186 H1210 0.950 . S
C1187 C1204 1.574 1_554 S
C1187 C1206 1.368 . S
C1187 H1211 0.949 . S
H1188 C1192 0.949 . S
C1189 C1190 1.349 . S
C1189 C1191 1.327 . S
C1189 H1212 0.950 . S
C1190 C1189 1.349 . S
C1190 C1202 1.349 . S
C1191 C1189 1.327 . S
C1191 C1207 1.429 . S
C1191 H1213 0.950 . S
C1192 H1188 0.949 . S
C1192 C1200 1.574 1_556 S
C1192 C1208 1.368 . S
H1193 C1201 0.950 . S
H1194 C1199 0.950 . S
H1195 C1200 0.949 . S
H1196 C1202 0.950 . S
H1197 C1203 0.950 . S
H1198 C1204 0.949 . S
C1199 H1194 0.950 . S
C1199 C1201 1.327 . S
C1199 C1205 1.429 . S
C1200 C1192 1.574 1_554 S
C1200 H1195 0.949 . S
C1200 C1206 1.368 . S
C1201 C1185 1.349 . S
C1201 H1193 0.950 . S
C1201 C1199 1.327 . S
C1202 C1190 1.349 . S
C1202 H1196 0.950 . S
C1202 C1203 1.327 . S
C1203 H1197 0.950 . S
C1203 C1202 1.327 . S
C1203 C1207 1.429 . S
C1204 C1187 1.574 1_556 S
C1204 H1198 0.949 . S
C1204 C1208 1.368 . S
C1205 C1186 1.429 . S
C1205 C1199 1.429 . S
C1205 C1206 1.523 . S
C1206 C1187 1.368 . S
C1206 C1200 1.368 . S
C1206 C1205 1.523 . S
C1207 C1191 1.429 . S
C1207 C1203 1.429 . S
C1207 C1208 1.523 . S
C1208 C1192 1.368 . S
C1208 C1204 1.368 . S
C1208 C1207 1.523 . S
H1209 C1184 0.950 . S
H1210 C1186 0.950 . S
H1211 C1187 0.949 . S
H1212 C1189 0.950 . S
H1213 C1191 0.950 . S
C1214 C1215 1.349 . S
C1214 C1216 1.327 . S
C1214 H1239 0.950 . S
C1215 C1214 1.349 . S
C1215 C1231 1.349 . S
C1216 C1214 1.327 . S
C1216 C1235 1.429 . S
C1216 H1240 0.950 . S
C1217 C1234 1.574 1_554 S
C1217 C1236 1.368 . S
C1217 H1241 0.949 . S
H1218 C1222 0.949 . S
C1219 C1220 1.349 . S
C1219 C1221 1.327 . S
C1219 H1242 0.950 . S
C1220 C1219 1.349 . S
C1220 C1232 1.349 . S
C1221 C1219 1.327 . S
C1221 C1237 1.429 . S
C1221 H1243 0.950 . S
C1222 H1218 0.949 . S
C1222 C1230 1.574 1_556 S
C1222 C1238 1.368 . S
H1223 C1231 0.950 . S
H1224 C1229 0.950 . S
H1225 C1230 0.949 . S
H1226 C1232 0.950 . S
H1227 C1233 0.950 . S
H1228 C1234 0.949 . S
C1229 H1224 0.950 . S
C1229 C1231 1.327 . S
C1229 C1235 1.429 . S
C1230 C1222 1.574 1_554 S
C1230 H1225 0.949 . S
C1230 C1236 1.368 . S
C1231 C1215 1.349 . S
C1231 H1223 0.950 . S
C1231 C1229 1.327 . S
C1232 C1220 1.349 . S
C1232 H1226 0.950 . S
C1232 C1233 1.327 . S
C1233 H1227 0.950 . S
C1233 C1232 1.327 . S
C1233 C1237 1.429 . S
C1234 C1217 1.574 1_556 S
C1234 H1228 0.949 . S
C1234 C1238 1.368 . S
C1235 C1216 1.429 . S
C1235 C1229 1.429 . S
C1235 C1236 1.523 . S
C1236 C1217 1.368 . S
C1236 C1230 1.368 . S
C1236 C1235 1.523 . S
C1237 C1221 1.429 . S
C1237 C1233 1.429 . S
C1237 C1238 1.523 . S
C1238 C1222 1.368 . S
C1238 C1234 1.368 . S
C1238 C1237 1.523 . S
H1239 C1214 0.950 . S
H1240 C1216 0.950 . S
H1241 C1217 0.949 . S
H1242 C1219 0.950 . S
H1243 C1221 0.950 . S
C1244 C1245 1.349 . S
C1244 C1246 1.327 . S
C1244 H1269 0.950 . S
C1245 C1244 1.349 . S
C1245 C1261 1.349 . S
C1246 C1244 1.327 . S
C1246 C1265 1.429 . S
C1246 H1270 0.950 . S
C1247 C1264 1.574 . S
C1247 C1266 1.368 . S
C1247 H1271 0.949 . S
H1248 C1252 0.949 . S
C1249 C1250 1.349 . S
C1249 C1251 1.327 . S
C1249 H1272 0.950 . S
C1250 C1249 1.349 . S
C1250 C1262 1.349 . S
C1251 C1249 1.327 . S
C1251 C1267 1.429 . S
C1251 H1273 0.950 . S
C1252 H1248 0.949 . S
C1252 C1260 1.574 . S
C1252 C1268 1.368 . S
H1253 C1261 0.950 . S
H1254 C1259 0.950 . S
H1255 C1260 0.949 . S
H1256 C1262 0.950 . S
H1257 C1263 0.950 . S
H1258 C1264 0.949 . S
C1259 H1254 0.950 . S
C1259 C1261 1.327 . S
C1259 C1265 1.429 . S
C1260 C1252 1.574 . S
C1260 H1255 0.949 . S
C1260 C1266 1.368 . S
C1261 C1245 1.349 . S
C1261 H1253 0.950 . S
C1261 C1259 1.327 . S
C1262 C1250 1.349 . S
C1262 H1256 0.950 . S
C1262 C1263 1.327 . S
C1263 H1257 0.950 . S
C1263 C1262 1.327 . S
C1263 C1267 1.429 . S
C1264 C1247 1.574 . S
C1264 H1258 0.949 . S
C1264 C1268 1.368 . S
C1265 C1246 1.429 . S
C1265 C1259 1.429 . S
C1265 C1266 1.523 . S
C1266 C1247 1.368 . S
C1266 C1260 1.368 . S
C1266 C1265 1.523 . S
C1267 C1251 1.429 . S
C1267 C1263 1.429 . S
C1267 C1268 1.523 . S
C1268 C1252 1.368 . S
C1268 C1264 1.368 . S
C1268 C1267 1.523 . S
H1269 C1244 0.950 . S
H1270 C1246 0.950 . S
H1271 C1247 0.949 . S
H1272 C1249 0.950 . S
H1273 C1251 0.950 . S
C1274 C1275 1.349 . S
C1274 C1276 1.327 . S
C1274 H1299 0.950 . S
C1275 C1274 1.349 . S
C1275 C1291 1.349 . S
C1276 C1274 1.327 . S
C1276 C1295 1.429 . S
C1276 H1300 0.950 . S
C1277 C1294 1.574 . S
C1277 C1296 1.368 . S
C1277 H1301 0.949 . S
H1278 C1282 0.949 . S
C1279 C1280 1.349 . S
C1279 C1281 1.327 . S
C1279 H1302 0.950 . S
C1280 C1279 1.349 . S
C1280 C1292 1.349 . S
C1281 C1279 1.327 . S
C1281 C1297 1.429 . S
C1281 H1303 0.950 . S
C1282 H1278 0.949 . S
C1282 C1290 1.574 . S
C1282 C1298 1.368 . S
H1283 C1291 0.950 . S
H1284 C1289 0.950 . S
H1285 C1290 0.949 . S
H1286 C1292 0.950 . S
H1287 C1293 0.950 . S
H1288 C1294 0.949 . S
C1289 H1284 0.950 . S
C1289 C1291 1.327 . S
C1289 C1295 1.429 . S
C1290 C1282 1.574 . S
C1290 H1285 0.949 . S
C1290 C1296 1.368 . S
C1291 C1275 1.349 . S
C1291 H1283 0.950 . S
C1291 C1289 1.327 . S
C1292 C1280 1.349 . S
C1292 H1286 0.950 . S
C1292 C1293 1.327 . S
C1293 H1287 0.950 . S
C1293 C1292 1.327 . S
C1293 C1297 1.429 . S
C1294 C1277 1.574 . S
C1294 H1288 0.949 . S
C1294 C1298 1.368 . S
C1295 C1276 1.429 . S
C1295 C1289 1.429 . S
C1295 C1296 1.523 . S
C1296 C1277 1.368 . S
C1296 C1290 1.368 . S
C1296 C1295 1.523 . S
C1297 C1281 1.429 . S
C1297 C1293 1.429 . S
C1297 C1298 1.523 . S
C1298 C1282 1.368 . S
C1298 C1294 1.368 . S
C1298 C1297 1.523 . S
H1299 C1274 0.950 . S
H1300 C1276 0.950 . S
H1301 C1277 0.949 . S
H1302 C1279 0.950 . S
H1303 C1281 0.950 . S
C1304 C1305 1.349 . S
C1304 C1306 1.327 . S
C1304 H1329 0.950 . S
C1305 C1304 1.349 . S
C1305 C1321 1.349 . S
C1306 C1304 1.327 . S
C1306 C1325 1.429 . S
C1306 H1330 0.950 . S
C1307 C1324 1.574 . S
C1307 C1326 1.368 . S
C1307 H1331 0.949 . S
H1308 C1312 0.949 . S
C1309 C1310 1.349 . S
C1309 C1311 1.327 . S
C1309 H1332 0.950 . S
C1310 C1309 1.349 . S
C1310 C1322 1.349 . S
C1311 C1309 1.327 . S
C1311 C1327 1.429 . S
C1311 H1333 0.950 . S
C1312 H1308 0.949 . S
C1312 C1320 1.574 . S
C1312 C1328 1.368 . S
H1313 C1321 0.950 . S
H1314 C1319 0.950 . S
H1315 C1320 0.949 . S
H1316 C1322 0.950 . S
H1317 C1323 0.950 . S
H1318 C1324 0.949 . S
C1319 H1314 0.950 . S
C1319 C1321 1.327 . S
C1319 C1325 1.429 . S
C1320 C1312 1.574 . S
C1320 H1315 0.949 . S
C1320 C1326 1.368 . S
C1321 C1305 1.349 . S
C1321 H1313 0.950 . S
C1321 C1319 1.327 . S
C1322 C1310 1.349 . S
C1322 H1316 0.950 . S
C1322 C1323 1.327 . S
C1323 H1317 0.950 . S
C1323 C1322 1.327 . S
C1323 C1327 1.429 . S
C1324 C1307 1.574 . S
C1324 H1318 0.949 . S
C1324 C1328 1.368 . S
C1325 C1306 1.429 . S
C1325 C1319 1.429 . S
C1325 C1326 1.523 . S
C1326 C1307 1.368 . S
C1326 C1320 1.368 . S
C1326 C1325 1.523 . S
C1327 C1311 1.429 . S
C1327 C1323 1.429 . S
C1327 C1328 1.523 . S
C1328 C1312 1.368 . S
C1328 C1324 1.368 . S
C1328 C1327 1.523 . S
H1329 C1304 0.950 . S
H1330 C1306 0.950 . S
H1331 C1307 0.949 . S
H1332 C1309 0.950 . S
H1333 C1311 0.950 . S
C1334 C1335 1.349 . S
C1334 C1336 1.327 . S
C1334 H1359 0.950 . S
C1335 C1334 1.349 . S
C1335 C1351 1.349 . S
C1336 C1334 1.327 . S
C1336 C1355 1.429 . S
C1336 H1360 0.950 . S
C1337 C1354 1.574 . S
C1337 C1356 1.368 . S
C1337 H1361 0.949 . S
H1338 C1342 0.949 . S
C1339 C1340 1.349 . S
C1339 C1341 1.327 . S
C1339 H1362 0.950 . S
C1340 C1339 1.349 . S
C1340 C1352 1.349 . S
C1341 C1339 1.327 . S
C1341 C1357 1.429 . S
C1341 H1363 0.950 . S
C1342 H1338 0.949 . S
C1342 C1350 1.574 . S
C1342 C1358 1.368 . S
H1343 C1351 0.950 . S
H1344 C1349 0.950 . S
H1345 C1350 0.949 . S
H1346 C1352 0.950 . S
H1347 C1353 0.950 . S
H1348 C1354 0.949 . S
C1349 H1344 0.950 . S
C1349 C1351 1.327 . S
C1349 C1355 1.429 . S
C1350 C1342 1.574 . S
C1350 H1345 0.949 . S
C1350 C1356 1.368 . S
C1351 C1335 1.349 . S
C1351 H1343 0.950 . S
C1351 C1349 1.327 . S
C1352 C1340 1.349 . S
C1352 H1346 0.950 . S
C1352 C1353 1.327 . S
C1353 H1347 0.950 . S
C1353 C1352 1.327 . S
C1353 C1357 1.429 . S
C1354 C1337 1.574 . S
C1354 H1348 0.949 . S
C1354 C1358 1.368 . S
C1355 C1336 1.429 . S
C1355 C1349 1.429 . S
C1355 C1356 1.523 . S
C1356 C1337 1.368 . S
C1356 C1350 1.368 . S
C1356 C1355 1.523 . S
C1357 C1341 1.429 . S
C1357 C1353 1.429 . S
C1357 C1358 1.523 . S
C1358 C1342 1.368 . S
C1358 C1354 1.368 . S
C1358 C1357 1.523 . S
H1359 C1334 0.950 . S
H1360 C1336 0.950 . S
H1361 C1337 0.949 . S
H1362 C1339 0.950 . S
H1363 C1341 0.950 . S
C1364 C1365 1.349 . S
C1364 C1366 1.327 . S
C1364 H1389 0.950 . S
C1365 C1364 1.349 . S
C1365 C1381 1.349 . S
C1366 C1364 1.327 . S
C1366 C1385 1.429 . S
C1366 H1390 0.950 . S
C1367 C1384 1.574 . S
C1367 C1386 1.368 . S
C1367 H1391 0.949 . S
H1368 C1372 0.949 . S
C1369 C1370 1.349 . S
C1369 C1371 1.327 . S
C1369 H1392 0.950 . S
C1370 C1369 1.349 . S
C1370 C1382 1.349 . S
C1371 C1369 1.327 . S
C1371 C1387 1.429 . S
C1371 H1393 0.950 . S
C1372 H1368 0.949 . S
C1372 C1380 1.574 . S
C1372 C1388 1.368 . S
H1373 C1381 0.950 . S
H1374 C1379 0.950 . S
H1375 C1380 0.949 . S
H1376 C1382 0.950 . S
H1377 C1383 0.950 . S
H1378 C1384 0.949 . S
C1379 H1374 0.950 . S
C1379 C1381 1.327 . S
C1379 C1385 1.429 . S
C1380 C1372 1.574 . S
C1380 H1375 0.949 . S
C1380 C1386 1.368 . S
C1381 C1365 1.349 . S
C1381 H1373 0.950 . S
C1381 C1379 1.327 . S
C1382 C1370 1.349 . S
C1382 H1376 0.950 . S
C1382 C1383 1.327 . S
C1383 H1377 0.950 . S
C1383 C1382 1.327 . S
C1383 C1387 1.429 . S
C1384 C1367 1.574 . S
C1384 H1378 0.949 . S
C1384 C1388 1.368 . S
C1385 C1366 1.429 . S
C1385 C1379 1.429 . S
C1385 C1386 1.523 . S
C1386 C1367 1.368 . S
C1386 C1380 1.368 . S
C1386 C1385 1.523 . S
C1387 C1371 1.429 . S
C1387 C1383 1.429 . S
C1387 C1388 1.523 . S
C1388 C1372 1.368 . S
C1388 C1384 1.368 . S
C1388 C1387 1.523 . S
H1389 C1364 0.950 . S
H1390 C1366 0.950 . S
H1391 C1367 0.949 . S
H1392 C1369 0.950 . S
H1393 C1371 0.950 . S
C1394 C1395 1.349 . S
C1394 C1396 1.327 . S
C1394 H1419 0.950 . S
C1395 C1394 1.349 . S
C1395 C1411 1.349 . S
C1396 C1394 1.327 . S
C1396 C1415 1.429 . S
C1396 H1420 0.950 . S
C1397 C1414 1.574 . S
C1397 C1416 1.368 . S
C1397 H1421 0.949 . S
H1398 C1402 0.949 . S
C1399 C1400 1.349 . S
C1399 C1401 1.327 . S
C1399 H1422 0.950 . S
C1400 C1399 1.349 . S
C1400 C1412 1.349 . S
C1401 C1399 1.327 . S
C1401 C1417 1.429 . S
C1401 H1423 0.950 . S
C1402 H1398 0.949 . S
C1402 C1410 1.574 . S
C1402 C1418 1.368 . S
H1403 C1411 0.950 . S
H1404 C1409 0.950 . S
H1405 C1410 0.949 . S
H1406 C1412 0.950 . S
H1407 C1413 0.950 . S
H1408 C1414 0.949 . S
C1409 H1404 0.950 . S
C1409 C1411 1.327 . S
C1409 C1415 1.429 . S
C1410 C1402 1.574 . S
C1410 H1405 0.949 . S
C1410 C1416 1.368 . S
C1411 C1395 1.349 . S
C1411 H1403 0.950 . S
C1411 C1409 1.327 . S
C1412 C1400 1.349 . S
C1412 H1406 0.950 . S
C1412 C1413 1.327 . S
C1413 H1407 0.950 . S
C1413 C1412 1.327 . S
C1413 C1417 1.429 . S
C1414 C1397 1.574 . S
C1414 H1408 0.949 . S
C1414 C1418 1.368 . S
C1415 C1396 1.429 . S
C1415 C1409 1.429 . S
C1415 C1416 1.523 . S
C1416 C1397 1.368 . S
C1416 C1410 1.368 . S
C1416 C1415 1.523 . S
C1417 C1401 1.429 . S
C1417 C1413 1.429 . S
C1417 C1418 1.523 . S
C1418 C1402 1.368 . S
C1418 C1414 1.368 . S
C1418 C1417 1.523 . S
H1419 C1394 0.950 . S
H1420 C1396 0.950 . S
H1421 C1397 0.949 . S
H1422 C1399 0.950 . S
H1423 C1401 0.950 . S
C1424 C1425 1.349 . S
C1424 C1426 1.327 . S
C1424 H1449 0.950 . S
C1425 C1424 1.349 . S
C1425 C1441 1.349 1_554 S
C1426 C1424 1.327 . S
C1426 C1445 1.429 . S
C1426 H1450 0.950 . S
C1427 C1444 1.574 1_545 S
C1427 C1446 1.368 1_556 S
C1427 H1451 0.949 . S
H1428 C1432 0.949 . S
C1429 C1430 1.349 1_556 S
C1429 C1431 1.327 . S
C1429 H1452 0.950 . S
C1430 C1429 1.349 1_554 S
C1430 C1442 1.349 . S
C1431 C1429 1.327 . S
C1431 C1447 1.429 1_556 S
C1431 H1453 0.950 . S
C1432 H1428 0.949 . S
C1432 C1440 1.574 1_565 S
C1432 C1448 1.368 . S
H1433 C1441 0.950 . S
H1434 C1439 0.950 . S
H1435 C1440 0.949 . S
H1436 C1442 0.950 . S
H1437 C1443 0.950 . S
H1438 C1444 0.949 . S
C1439 H1434 0.950 . S
C1439 C1441 1.327 . S
C1439 C1445 1.429 1_556 S
C1440 C1432 1.574 1_545 S
C1440 H1435 0.949 . S
C1440 C1446 1.368 . S
C1441 C1425 1.349 1_556 S
C1441 H1433 0.950 . S
C1441 C1439 1.327 . S
C1442 C1430 1.349 . S
C1442 H1436 0.950 . S
C1442 C1443 1.327 . S
C1443 H1437 0.950 . S
C1443 C1442 1.327 . S
C1443 C1447 1.429 . S
C1444 C1427 1.574 1_565 S
C1444 H1438 0.949 . S
C1444 C1448 1.368 1_556 S
C1445 C1426 1.429 . S
C1445 C1439 1.429 1_554 S
C1445 C1446 1.523 . S
C1446 C1427 1.368 1_554 S
C1446 C1440 1.368 . S
C1446 C1445 1.523 . S
C1447 C1431 1.429 1_554 S
C1447 C1443 1.429 . S
C1447 C1448 1.523 . S
C1448 C1432 1.368 . S
C1448 C1444 1.368 1_554 S
C1448 C1447 1.523 . S
H1449 C1424 0.950 . S
H1450 C1426 0.950 . S
H1451 C1427 0.949 . S
H1452 C1429 0.950 . S
H1453 C1431 0.950 . S
C1454 C1455 1.349 . S
C1454 C1456 1.327 . S
C1454 H1479 0.950 . S
C1455 C1454 1.349 . S
C1455 C1471 1.349 . S
C1456 C1454 1.327 . S
C1456 C1475 1.429 . S
C1456 H1480 0.950 . S
C1457 C1474 1.574 . S
C1457 C1476 1.368 . S
C1457 H1481 0.949 . S
H1458 C1462 0.949 . S
C1459 C1460 1.349 . S
C1459 C1461 1.327 . S
C1459 H1482 0.950 . S
C1460 C1459 1.349 . S
C1460 C1472 1.349 . S
C1461 C1459 1.327 . S
C1461 C1477 1.429 . S
C1461 H1483 0.950 . S
C1462 H1458 0.949 . S
C1462 C1470 1.574 . S
C1462 C1478 1.368 . S
H1463 C1471 0.950 . S
H1464 C1469 0.950 . S
H1465 C1470 0.949 . S
H1466 C1472 0.950 . S
H1467 C1473 0.950 . S
H1468 C1474 0.949 . S
C1469 H1464 0.950 . S
C1469 C1471 1.327 . S
C1469 C1475 1.429 . S
C1470 C1462 1.574 . S
C1470 H1465 0.949 . S
C1470 C1476 1.368 . S
C1471 C1455 1.349 . S
C1471 H1463 0.950 . S
C1471 C1469 1.327 . S
C1472 C1460 1.349 . S
C1472 H1466 0.950 . S
C1472 C1473 1.327 . S
C1473 H1467 0.950 . S
C1473 C1472 1.327 . S
C1473 C1477 1.429 . S
C1474 C1457 1.574 . S
C1474 H1468 0.949 . S
C1474 C1478 1.368 . S
C1475 C1456 1.429 . S
C1475 C1469 1.429 . S
C1475 C1476 1.523 . S
C1476 C1457 1.368 . S
C1476 C1470 1.368 . S
C1476 C1475 1.523 . S
C1477 C1461 1.429 . S
C1477 C1473 1.429 . S
C1477 C1478 1.523 . S
C1478 C1462 1.368 . S
C1478 C1474 1.368 . S
C1478 C1477 1.523 . S
H1479 C1454 0.950 . S
H1480 C1456 0.950 . S
H1481 C1457 0.949 . S
H1482 C1459 0.950 . S
H1483 C1461 0.950 . S
C1484 C1485 1.349 . S
C1484 C1486 1.327 . S
C1484 H1509 0.950 . S
C1485 C1484 1.349 . S
C1485 C1501 1.349 . S
C1486 C1484 1.327 . S
C1486 C1505 1.429 . S
C1486 H1510 0.950 . S
C1487 C1504 1.574 . S
C1487 C1506 1.368 . S
C1487 H1511 0.949 . S
H1488 C1492 0.949 . S
C1489 C1490 1.349 . S
C1489 C1491 1.327 . S
C1489 H1512 0.950 . S
C1490 C1489 1.349 . S
C1490 C1502 1.349 . S
C1491 C1489 1.327 . S
C1491 C1507 1.429 . S
C1491 H1513 0.950 . S
C1492 H1488 0.949 . S
C1492 C1500 1.574 . S
C1492 C1508 1.368 . S
H1493 C1501 0.950 . S
H1494 C1499 0.950 . S
H1495 C1500 0.949 . S
H1496 C1502 0.950 . S
H1497 C1503 0.950 . S
H1498 C1504 0.949 . S
C1499 H1494 0.950 . S
C1499 C1501 1.327 . S
C1499 C1505 1.429 . S
C1500 C1492 1.574 . S
C1500 H1495 0.949 . S
C1500 C1506 1.368 . S
C1501 C1485 1.349 . S
C1501 H1493 0.950 . S
C1501 C1499 1.327 . S
C1502 C1490 1.349 . S
C1502 H1496 0.950 . S
C1502 C1503 1.327 . S
C1503 H1497 0.950 . S
C1503 C1502 1.327 . S
C1503 C1507 1.429 . S
C1504 C1487 1.574 . S
C1504 H1498 0.949 . S
C1504 C1508 1.368 . S
C1505 C1486 1.429 . S
C1505 C1499 1.429 . S
C1505 C1506 1.523 . S
C1506 C1487 1.368 . S
C1506 C1500 1.368 . S
C1506 C1505 1.523 . S
C1507 C1491 1.429 . S
C1507 C1503 1.429 . S
C1507 C1508 1.523 . S
C1508 C1492 1.368 . S
C1508 C1504 1.368 . S
C1508 C1507 1.523 . S
H1509 C1484 0.950 . S
H1510 C1486 0.950 . S
H1511 C1487 0.949 . S
H1512 C1489 0.950 . S
H1513 C1491 0.950 . S
C1514 C1515 1.349 . S
C1514 C1516 1.327 . S
C1514 H1539 0.950 . S
C1515 C1514 1.349 . S
C1515 C1531 1.349 . S
C1516 C1514 1.327 . S
C1516 C1535 1.429 . S
C1516 H1540 0.950 . S
C1517 C1534 1.574 . S
C1517 C1536 1.368 . S
C1517 H1541 0.949 . S
H1518 C1522 0.949 . S
C1519 C1520 1.349 . S
C1519 C1521 1.327 . S
C1519 H1542 0.950 . S
C1520 C1519 1.349 . S
C1520 C1532 1.349 . S
C1521 C1519 1.327 . S
C1521 C1537 1.429 . S
C1521 H1543 0.950 . S
C1522 H1518 0.949 . S
C1522 C1530 1.574 . S
C1522 C1538 1.368 . S
H1523 C1531 0.950 . S
H1524 C1529 0.950 . S
H1525 C1530 0.949 . S
H1526 C1532 0.950 . S
H1527 C1533 0.950 . S
H1528 C1534 0.949 . S
C1529 H1524 0.950 . S
C1529 C1531 1.327 . S
C1529 C1535 1.429 . S
C1530 C1522 1.574 . S
C1530 H1525 0.949 . S
C1530 C1536 1.368 . S
C1531 C1515 1.349 . S
C1531 H1523 0.950 . S
C1531 C1529 1.327 . S
C1532 C1520 1.349 . S
C1532 H1526 0.950 . S
C1532 C1533 1.327 . S
C1533 H1527 0.950 . S
C1533 C1532 1.327 . S
C1533 C1537 1.429 . S
C1534 C1517 1.574 . S
C1534 H1528 0.949 . S
C1534 C1538 1.368 . S
C1535 C1516 1.429 . S
C1535 C1529 1.429 . S
C1535 C1536 1.523 . S
C1536 C1517 1.368 . S
C1536 C1530 1.368 . S
C1536 C1535 1.523 . S
C1537 C1521 1.429 . S
C1537 C1533 1.429 . S
C1537 C1538 1.523 . S
C1538 C1522 1.368 . S
C1538 C1534 1.368 . S
C1538 C1537 1.523 . S
H1539 C1514 0.950 . S
H1540 C1516 0.950 . S
H1541 C1517 0.949 . S
H1542 C1519 0.950 . S
H1543 C1521 0.950 . S
C1544 C1545 1.349 . S
C1544 C1546 1.327 . S
C1544 H1569 0.950 . S
C1545 C1544 1.349 . S
C1545 C1561 1.349 . S
C1546 C1544 1.327 . S
C1546 C1565 1.429 . S
C1546 H1570 0.950 . S
C1547 C1564 1.574 . S
C1547 C1566 1.368 . S
C1547 H1571 0.949 . S
H1548 C1552 0.949 . S
C1549 C1550 1.349 . S
C1549 C1551 1.327 . S
C1549 H1572 0.950 . S
C1550 C1549 1.349 . S
C1550 C1562 1.349 . S
C1551 C1549 1.327 . S
C1551 C1567 1.429 . S
C1551 H1573 0.950 . S
C1552 H1548 0.949 . S
C1552 C1560 1.574 . S
C1552 C1568 1.368 . S
H1553 C1561 0.950 . S
H1554 C1559 0.950 . S
H1555 C1560 0.949 . S
H1556 C1562 0.950 . S
H1557 C1563 0.950 . S
H1558 C1564 0.949 . S
C1559 H1554 0.950 . S
C1559 C1561 1.327 . S
C1559 C1565 1.429 . S
C1560 C1552 1.574 . S
C1560 H1555 0.949 . S
C1560 C1566 1.368 . S
C1561 C1545 1.349 . S
C1561 H1553 0.950 . S
C1561 C1559 1.327 . S
C1562 C1550 1.349 . S
C1562 H1556 0.950 . S
C1562 C1563 1.327 . S
C1563 H1557 0.950 . S
C1563 C1562 1.327 . S
C1563 C1567 1.429 . S
C1564 C1547 1.574 . S
C1564 H1558 0.949 . S
C1564 C1568 1.368 . S
C1565 C1546 1.429 . S
C1565 C1559 1.429 . S
C1565 C1566 1.523 . S
C1566 C1547 1.368 . S
C1566 C1560 1.368 . S
C1566 C1565 1.523 . S
C1567 C1551 1.429 . S
C1567 C1563 1.429 . S
C1567 C1568 1.523 . S
C1568 C1552 1.368 . S
C1568 C1564 1.368 . S
C1568 C1567 1.523 . S
H1569 C1544 0.950 . S
H1570 C1546 0.950 . S
H1571 C1547 0.949 . S
H1572 C1549 0.950 . S
H1573 C1551 0.950 . S
C1574 C1575 1.349 . S
C1574 C1576 1.327 . S
C1574 H1599 0.950 . S
C1575 C1574 1.349 . S
C1575 C1591 1.349 . S
C1576 C1574 1.327 . S
C1576 C1595 1.429 . S
C1576 H1600 0.950 . S
C1577 C1594 1.574 . S
C1577 C1596 1.368 . S
C1577 H1601 0.949 . S
H1578 C1582 0.949 . S
C1579 C1580 1.349 . S
C1579 C1581 1.327 . S
C1579 H1602 0.950 . S
C1580 C1579 1.349 . S
C1580 C1592 1.349 . S
C1581 C1579 1.327 . S
C1581 C1597 1.429 . S
C1581 H1603 0.950 . S
C1582 H1578 0.949 . S
C1582 C1590 1.574 . S
C1582 C1598 1.368 . S
H1583 C1591 0.950 . S
H1584 C1589 0.950 . S
H1585 C1590 0.949 . S
H1586 C1592 0.950 . S
H1587 C1593 0.950 . S
H1588 C1594 0.949 . S
C1589 H1584 0.950 . S
C1589 C1591 1.327 . S
C1589 C1595 1.429 . S
C1590 C1582 1.574 . S
C1590 H1585 0.949 . S
C1590 C1596 1.368 . S
C1591 C1575 1.349 . S
C1591 H1583 0.950 . S
C1591 C1589 1.327 . S
C1592 C1580 1.349 . S
C1592 H1586 0.950 . S
C1592 C1593 1.327 . S
C1593 H1587 0.950 . S
C1593 C1592 1.327 . S
C1593 C1597 1.429 . S
C1594 C1577 1.574 . S
C1594 H1588 0.949 . S
C1594 C1598 1.368 . S
C1595 C1576 1.429 . S
C1595 C1589 1.429 . S
C1595 C1596 1.523 . S
C1596 C1577 1.368 . S
C1596 C1590 1.368 . S
C1596 C1595 1.523 . S
C1597 C1581 1.429 . S
C1597 C1593 1.429 . S
C1597 C1598 1.523 . S
C1598 C1582 1.368 . S
C1598 C1594 1.368 . S
C1598 C1597 1.523 . S
H1599 C1574 0.950 . S
H1600 C1576 0.950 . S
H1601 C1577 0.949 . S
H1602 C1579 0.950 . S
H1603 C1581 0.950 . S
C1604 C1605 1.349 . S
C1604 C1606 1.327 . S
C1604 H1629 0.950 . S
C1605 C1604 1.349 . S
C1605 C1621 1.349 . S
C1606 C1604 1.327 . S
C1606 C1625 1.429 . S
C1606 H1630 0.950 . S
C1607 C1624 1.574 1_565 S
C1607 C1626 1.368 1_455 S
C1607 H1631 0.949 . S
H1608 C1612 0.949 . S
C1609 C1610 1.349 . S
C1609 C1611 1.327 . S
C1609 H1632 0.950 . S
C1610 C1609 1.349 . S
C1610 C1622 1.349 . S
C1611 C1609 1.327 . S
C1611 C1627 1.429 . S
C1611 H1633 0.950 . S
C1612 H1608 0.949 . S
C1612 C1620 1.574 1_545 S
C1612 C1628 1.368 1_655 S
H1613 C1621 0.950 . S
H1614 C1619 0.950 . S
H1615 C1620 0.949 . S
H1616 C1622 0.950 . S
H1617 C1623 0.950 . S
H1618 C1624 0.949 . S
C1619 H1614 0.950 . S
C1619 C1621 1.327 . S
C1619 C1625 1.429 . S
C1620 C1612 1.574 1_565 S
C1620 H1615 0.949 . S
C1620 C1626 1.368 . S
C1621 C1605 1.349 . S
C1621 H1613 0.950 . S
C1621 C1619 1.327 . S
C1622 C1610 1.349 . S
C1622 H1616 0.950 . S
C1622 C1623 1.327 . S
C1623 H1617 0.950 . S
C1623 C1622 1.327 . S
C1623 C1627 1.429 . S
C1624 C1607 1.574 1_545 S
C1624 H1618 0.949 . S
C1624 C1628 1.368 . S
C1625 C1606 1.429 . S
C1625 C1619 1.429 . S
C1625 C1626 1.523 . S
C1626 C1607 1.368 1_655 S
C1626 C1620 1.368 . S
C1626 C1625 1.523 . S
C1627 C1611 1.429 . S
C1627 C1623 1.429 . S
C1627 C1628 1.523 . S
C1628 C1612 1.368 1_455 S
C1628 C1624 1.368 . S
C1628 C1627 1.523 . S
H1629 C1604 0.950 . S
H1630 C1606 0.950 . S
H1631 C1607 0.949 . S
H1632 C1609 0.950 . S
H1633 C1611 0.950 . S
C1634 C1635 1.349 1_556 S
C1634 C1636 1.327 . S
C1634 H1659 0.950 . S
C1635 C1634 1.349 1_554 S
C1635 C1651 1.349 . S
C1636 C1634 1.327 . S
C1636 C1655 1.429 1_556 S
C1636 H1660 0.950 . S
C1637 C1654 1.574 . S
C1637 C1656 1.368 1_455 S
C1637 H1661 0.949 . S
H1638 C1642 0.949 . S
C1639 C1640 1.349 . S
C1639 C1641 1.327 . S
C1639 H1662 0.950 . S
C1640 C1639 1.349 . S
C1640 C1652 1.349 1_554 S
C1641 C1639 1.327 . S
C1641 C1657 1.429 . S
C1641 H1663 0.950 . S
C1642 H1638 0.949 . S
C1642 C1650 1.574 . S
C1642 C1658 1.368 1_656 S
H1643 C1651 0.950 . S
H1644 C1649 0.950 . S
H1645 C1650 0.949 . S
H1646 C1652 0.950 . S
H1647 C1653 0.950 . S
H1648 C1654 0.949 . S
C1649 H1644 0.950 . S
C1649 C1651 1.327 . S
C1649 C1655 1.429 . S
C1650 C1642 1.574 . S
C1650 H1645 0.949 . S
C1650 C1656 1.368 1_556 S
C1651 C1635 1.349 . S
C1651 H1643 0.950 . S
C1651 C1649 1.327 . S
C1652 C1640 1.349 1_556 S
C1652 H1646 0.950 . S
C1652 C1653 1.327 . S
C1653 H1647 0.950 . S
C1653 C1652 1.327 . S
C1653 C1657 1.429 1_556 S
C1654 C1637 1.574 . S
C1654 H1648 0.949 . S
C1654 C1658 1.368 . S
C1655 C1636 1.429 1_554 S
C1655 C1649 1.429 . S
C1655 C1656 1.523 . S
C1656 C1637 1.368 1_655 S
C1656 C1650 1.368 1_554 S
C1656 C1655 1.523 . S
C1657 C1641 1.429 . S
C1657 C1653 1.429 1_554 S
C1657 C1658 1.523 . S
C1658 C1642 1.368 1_454 S
C1658 C1654 1.368 . S
C1658 C1657 1.523 . S
H1659 C1634 0.950 . S
H1660 C1636 0.950 . S
H1661 C1637 0.949 . S
H1662 C1639 0.950 . S
H1663 C1641 0.950 . S
C1664 C1665 1.349 . S
C1664 C1666 1.327 . S
C1664 H1689 0.950 . S
C1665 C1664 1.349 . S
C1665 C1681 1.349 . S
C1666 C1664 1.327 . S
C1666 C1685 1.429 . S
C1666 H1690 0.950 . S
C1667 C1684 1.574 . S
C1667 C1686 1.339 1_565 S
C1667 H1691 0.949 . S
H1668 C1672 0.949 . S
C1669 C1670 1.349 . S
C1669 C1671 1.327 . S
C1669 H1692 0.950 . S
C1670 C1669 1.349 . S
C1670 C1682 1.349 . S
C1671 C1669 1.327 . S
C1671 C1687 1.429 . S
C1671 H1693 0.950 . S
C1672 H1668 0.949 . S
C1672 C1680 1.574 1_565 S
C1672 C1688 1.368 . S
H1673 C1681 0.950 1_554 S
H1674 C1679 0.950 . S
H1675 C1680 0.949 . S
H1676 C1682 0.950 . S
H1677 C1683 0.950 . S
H1678 C1684 0.949 . S
C1679 H1674 0.950 . S
C1679 C1681 1.327 . S
C1679 C1685 1.429 . S
C1680 C1672 1.574 1_545 S
C1680 H1675 0.949 . S
C1680 C1686 1.379 . S
C1681 C1665 1.349 . S
C1681 H1673 0.950 1_556 S
C1681 C1679 1.327 . S
C1682 C1670 1.349 . S
C1682 H1676 0.950 . S
C1682 C1683 1.327 . S
C1683 H1677 0.950 . S
C1683 C1682 1.327 . S
C1683 C1687 1.429 . S
C1684 C1667 1.574 . S
C1684 H1678 0.949 . S
C1684 C1688 1.368 . S
C1685 C1666 1.429 . S
C1685 C1679 1.429 . S
C1685 C1686 1.547 . S
C1686 C1667 1.339 1_545 S
C1686 C1680 1.379 . S
C1686 C1685 1.547 . S
C1687 C1671 1.429 . S
C1687 C1683 1.429 . S
C1687 C1688 1.523 . S
C1688 C1672 1.368 . S
C1688 C1684 1.368 . S
C1688 C1687 1.523 . S
H1689 C1664 0.950 . S
H1690 C1666 0.950 . S
H1691 C1667 0.949 . S
H1692 C1669 0.950 . S
H1693 C1671 0.950 . S
C1694 C1695 1.349 . S
C1694 C1696 1.327 . S
C1694 H1719 0.950 . S
C1695 C1694 1.349 . S
C1695 C1711 1.349 . S
C1696 C1694 1.327 . S
C1696 C1715 1.429 . S
C1696 H1720 0.950 . S
C1697 C1714 1.574 . S
C1697 C1716 1.348 1_545 S
C1697 H1721 0.949 . S
H1698 C1702 0.949 . S
C1699 C1700 1.349 . S
C1699 C1701 1.327 . S
C1699 H1722 0.950 . S
C1700 C1699 1.349 . S
C1700 C1712 1.349 . S
C1701 C1699 1.327 . S
C1701 C1717 1.429 . S
C1701 H1723 0.950 . S
C1702 H1698 0.949 . S
C1702 C1710 1.574 1_545 S
C1702 C1718 1.368 . S
H1703 C1711 0.950 1_554 S
H1704 C1709 0.950 1_554 S
H1705 C1710 0.949 . S
H1706 C1712 0.950 . S
H1707 C1713 0.950 . S
H1708 C1714 0.949 . S
C1709 H1704 0.950 1_556 S
C1709 C1711 1.327 . S
C1709 C1715 1.429 . S
C1710 C1702 1.574 1_565 S
C1710 H1705 0.949 . S
C1710 C1716 1.371 . S
C1711 C1695 1.349 . S
C1711 H1703 0.950 1_556 S
C1711 C1709 1.327 . S
C1712 C1700 1.349 . S
C1712 H1706 0.950 . S
C1712 C1713 1.327 . S
C1713 H1707 0.950 . S
C1713 C1712 1.327 . S
C1713 C1717 1.429 . S
C1714 C1697 1.574 . S
C1714 H1708 0.949 . S
C1714 C1718 1.368 . S
C1715 C1696 1.429 . S
C1715 C1709 1.429 . S
C1715 C1716 1.547 . S
C1716 C1697 1.348 1_565 S
C1716 C1710 1.371 . S
C1716 C1715 1.547 . S
C1717 C1701 1.429 . S
C1717 C1713 1.429 . S
C1717 C1718 1.523 . S
C1718 C1702 1.368 . S
C1718 C1714 1.368 . S
C1718 C1717 1.523 . S
H1719 C1694 0.950 . S
H1720 C1696 0.950 . S
H1721 C1697 0.949 . S
H1722 C1699 0.950 . S
H1723 C1701 0.950 . S
C1724 C1725 1.349 . S
C1724 C1726 1.327 . S
C1724 H1749 0.950 . S
C1725 C1724 1.349 . S
C1725 C1741 1.349 . S
C1726 C1724 1.327 . S
C1726 C1745 1.429 . S
C1726 H1750 0.950 . S
C1727 C1744 1.574 . S
C1727 C1746 1.368 . S
C1727 H1751 0.949 . S
H1728 C1732 0.949 . S
C1729 C1730 1.349 . S
C1729 C1731 1.327 . S
C1729 H1752 0.950 . S
C1730 C1729 1.349 . S
C1730 C1742 1.349 . S
C1731 C1729 1.327 . S
C1731 C1747 1.429 . S
C1731 H1753 0.950 . S
C1732 H1728 0.949 . S
C1732 C1740 1.574 . S
C1732 C1748 1.368 . S
H1733 C1741 0.950 . S
H1734 C1739 0.950 . S
H1735 C1740 0.949 . S
H1736 C1742 0.950 . S
H1737 C1743 0.950 . S
H1738 C1744 0.949 . S
C1739 H1734 0.950 . S
C1739 C1741 1.327 . S
C1739 C1745 1.429 . S
C1740 C1732 1.574 . S
C1740 H1735 0.949 . S
C1740 C1746 1.368 . S
C1741 C1725 1.349 . S
C1741 H1733 0.950 . S
C1741 C1739 1.327 . S
C1742 C1730 1.349 . S
C1742 H1736 0.950 . S
C1742 C1743 1.327 . S
C1743 H1737 0.950 . S
C1743 C1742 1.327 . S
C1743 C1747 1.429 . S
C1744 C1727 1.574 . S
C1744 H1738 0.949 . S
C1744 C1748 1.368 . S
C1745 C1726 1.429 . S
C1745 C1739 1.429 . S
C1745 C1746 1.523 . S
C1746 C1727 1.368 . S
C1746 C1740 1.368 . S
C1746 C1745 1.523 . S
C1747 C1731 1.429 . S
C1747 C1743 1.429 . S
C1747 C1748 1.523 . S
C1748 C1732 1.368 . S
C1748 C1744 1.368 . S
C1748 C1747 1.523 . S
H1749 C1724 0.950 . S
H1750 C1726 0.950 . S
H1751 C1727 0.949 . S
H1752 C1729 0.950 . S
H1753 C1731 0.950 . S
C1754 C1755 1.349 . S
C1754 C1756 1.327 . S
C1754 H1779 0.950 . S
C1755 C1754 1.349 . S
C1755 C1771 1.349 . S
C1756 C1754 1.327 . S
C1756 C1775 1.429 . S
C1756 H1780 0.950 . S
C1757 C1774 1.574 . S
C1757 C1776 1.368 . S
C1757 H1781 0.949 . S
H1758 C1762 0.949 . S
C1759 C1760 1.349 . S
C1759 C1761 1.327 . S
C1759 H1782 0.950 . S
C1760 C1759 1.349 . S
C1760 C1772 1.349 . S
C1761 C1759 1.327 . S
C1761 C1777 1.429 . S
C1761 H1783 0.950 . S
C1762 H1758 0.949 . S
C1762 C1770 1.574 . S
C1762 C1778 1.368 . S
H1763 C1771 0.950 . S
H1764 C1769 0.950 . S
H1765 C1770 0.949 . S
H1766 C1772 0.950 . S
H1767 C1773 0.950 . S
H1768 C1774 0.949 . S
C1769 H1764 0.950 . S
C1769 C1771 1.327 . S
C1769 C1775 1.429 . S
C1770 C1762 1.574 . S
C1770 H1765 0.949 . S
C1770 C1776 1.368 . S
C1771 C1755 1.349 . S
C1771 H1763 0.950 . S
C1771 C1769 1.327 . S
C1772 C1760 1.349 . S
C1772 H1766 0.950 . S
C1772 C1773 1.327 . S
C1773 H1767 0.950 . S
C1773 C1772 1.327 . S
C1773 C1777 1.429 . S
C1774 C1757 1.574 . S
C1774 H1768 0.949 . S
C1774 C1778 1.368 . S
C1775 C1756 1.429 . S
C1775 C1769 1.429 . S
C1775 C1776 1.523 . S
C1776 C1757 1.368 . S
C1776 C1770 1.368 . S
C1776 C1775 1.523 . S
C1777 C1761 1.429 . S
C1777 C1773 1.429 . S
C1777 C1778 1.523 . S
C1778 C1762 1.368 . S
C1778 C1774 1.368 . S
C1778 C1777 1.523 . S
H1779 C1754 0.950 . S
H1780 C1756 0.950 . S
H1781 C1757 0.949 . S
H1782 C1759 0.950 . S
H1783 C1761 0.950 . S
C1784 C1785 1.349 . S
C1784 C1786 1.327 . S
C1784 H1809 0.950 . S
C1785 C1784 1.349 . S
C1785 C1801 1.349 . S
C1786 C1784 1.327 . S
C1786 C1805 1.429 . S
C1786 H1810 0.950 . S
C1787 C1804 1.574 . S
C1787 C1806 1.368 . S
C1787 H1811 0.949 . S
H1788 C1792 0.949 . S
C1789 C1790 1.349 . S
C1789 C1791 1.327 . S
C1789 H1812 0.950 . S
C1790 C1789 1.349 . S
C1790 C1802 1.349 . S
C1791 C1789 1.327 . S
C1791 C1807 1.429 . S
C1791 H1813 0.950 . S
C1792 H1788 0.949 . S
C1792 C1800 1.574 . S
C1792 C1808 1.368 . S
H1793 C1801 0.950 . S
H1794 C1799 0.950 . S
H1795 C1800 0.949 . S
H1796 C1802 0.950 . S
H1797 C1803 0.950 . S
H1798 C1804 0.949 . S
C1799 H1794 0.950 . S
C1799 C1801 1.327 . S
C1799 C1805 1.429 . S
C1800 C1792 1.574 . S
C1800 H1795 0.949 . S
C1800 C1806 1.368 . S
C1801 C1785 1.349 . S
C1801 H1793 0.950 . S
C1801 C1799 1.327 . S
C1802 C1790 1.349 . S
C1802 H1796 0.950 . S
C1802 C1803 1.327 . S
C1803 H1797 0.950 . S
C1803 C1802 1.327 . S
C1803 C1807 1.429 . S
C1804 C1787 1.574 . S
C1804 H1798 0.949 . S
C1804 C1808 1.368 . S
C1805 C1786 1.429 . S
C1805 C1799 1.429 . S
C1805 C1806 1.523 . S
C1806 C1787 1.368 . S
C1806 C1800 1.368 . S
C1806 C1805 1.523 . S
C1807 C1791 1.429 . S
C1807 C1803 1.429 . S
C1807 C1808 1.523 . S
C1808 C1792 1.368 . S
C1808 C1804 1.368 . S
C1808 C1807 1.523 . S
H1809 C1784 0.950 . S
H1810 C1786 0.950 . S
H1811 C1787 0.949 . S
H1812 C1789 0.950 . S
H1813 C1791 0.950 . S
C1814 C1815 1.349 . S
C1814 C1816 1.327 . S
C1814 H1839 0.950 . S
C1815 C1814 1.349 . S
C1815 C1831 1.349 . S
C1816 C1814 1.327 . S
C1816 C1835 1.429 . S
C1816 H1840 0.950 . S
C1817 C1834 1.574 . S
C1817 C1836 1.368 . S
C1817 H1841 0.949 . S
H1818 C1822 0.949 . S
C1819 C1820 1.349 . S
C1819 C1821 1.327 . S
C1819 H1842 0.950 . S
C1820 C1819 1.349 . S
C1820 C1832 1.349 . S
C1821 C1819 1.327 . S
C1821 C1837 1.429 . S
C1821 H1843 0.950 . S
C1822 H1818 0.949 . S
C1822 C1830 1.574 . S
C1822 C1838 1.368 . S
H1823 C1831 0.950 . S
H1824 C1829 0.950 . S
H1825 C1830 0.949 . S
H1826 C1832 0.950 . S
H1827 C1833 0.950 . S
H1828 C1834 0.949 . S
C1829 H1824 0.950 . S
C1829 C1831 1.327 . S
C1829 C1835 1.429 . S
C1830 C1822 1.574 . S
C1830 H1825 0.949 . S
C1830 C1836 1.368 . S
C1831 C1815 1.349 . S
C1831 H1823 0.950 . S
C1831 C1829 1.327 . S
C1832 C1820 1.349 . S
C1832 H1826 0.950 . S
C1832 C1833 1.327 . S
C1833 H1827 0.950 . S
C1833 C1832 1.327 . S
C1833 C1837 1.429 . S
C1834 C1817 1.574 . S
C1834 H1828 0.949 . S
C1834 C1838 1.368 . S
C1835 C1816 1.429 . S
C1835 C1829 1.429 . S
C1835 C1836 1.523 . S
C1836 C1817 1.368 . S
C1836 C1830 1.368 . S
C1836 C1835 1.523 . S
C1837 C1821 1.429 . S
C1837 C1833 1.429 . S
C1837 C1838 1.523 . S
C1838 C1822 1.368 . S
C1838 C1834 1.368 . S
C1838 C1837 1.523 . S
H1839 C1814 0.950 . S
H1840 C1816 0.950 . S
H1841 C1817 0.949 . S
H1842 C1819 0.950 . S
H1843 C1821 0.950 . S
C1844 C1845 1.349 . S
C1844 C1846 1.327 . S
C1844 H1869 0.950 . S
C1845 C1844 1.349 . S
C1845 C1861 1.349 . S
C1846 C1844 1.327 . S
C1846 C1865 1.429 . S
C1846 H1870 0.950 . S
C1847 C1864 1.574 . S
C1847 C1866 1.368 . S
C1847 H1871 0.949 . S
H1848 C1852 0.949 . S
C1849 C1850 1.349 . S
C1849 C1851 1.327 . S
C1849 H1872 0.950 . S
C1850 C1849 1.349 . S
C1850 C1862 1.349 . S
C1851 C1849 1.327 . S
C1851 C1867 1.429 . S
C1851 H1873 0.950 . S
C1852 H1848 0.949 . S
C1852 C1860 1.574 . S
C1852 C1868 1.368 . S
H1853 C1861 0.950 . S
H1854 C1859 0.950 . S
H1855 C1860 0.949 . S
H1856 C1862 0.950 . S
H1857 C1863 0.950 . S
H1858 C1864 0.949 . S
C1859 H1854 0.950 . S
C1859 C1861 1.327 . S
C1859 C1865 1.429 . S
C1860 C1852 1.574 . S
C1860 H1855 0.949 . S
C1860 C1866 1.368 . S
C1861 C1845 1.349 . S
C1861 H1853 0.950 . S
C1861 C1859 1.327 . S
C1862 C1850 1.349 . S
C1862 H1856 0.950 . S
C1862 C1863 1.327 . S
C1863 H1857 0.950 . S
C1863 C1862 1.327 . S
C1863 C1867 1.429 . S
C1864 C1847 1.574 . S
C1864 H1858 0.949 . S
C1864 C1868 1.368 . S
C1865 C1846 1.429 . S
C1865 C1859 1.429 . S
C1865 C1866 1.523 . S
C1866 C1847 1.368 . S
C1866 C1860 1.368 . S
C1866 C1865 1.523 . S
C1867 C1851 1.429 . S
C1867 C1863 1.429 . S
C1867 C1868 1.523 . S
C1868 C1852 1.368 . S
C1868 C1864 1.368 . S
C1868 C1867 1.523 . S
H1869 C1844 0.950 . S
H1870 C1846 0.950 . S
H1871 C1847 0.949 . S
H1872 C1849 0.950 . S
H1873 C1851 0.950 . S
C1874 C1875 1.349 . S
C1874 C1876 1.327 . S
C1874 H1899 0.950 . S
C1875 C1874 1.349 . S
C1875 C1891 1.349 . S
C1876 C1874 1.327 . S
C1876 C1895 1.429 . S
C1876 H1900 0.950 . S
C1877 C1894 1.574 . S
C1877 C1896 1.368 . S
C1877 H1901 0.949 . S
H1878 C1882 0.949 . S
C1879 C1880 1.349 . S
C1879 C1881 1.327 . S
C1879 H1902 0.950 . S
C1880 C1879 1.349 . S
C1880 C1892 1.349 . S
C1881 C1879 1.327 . S
C1881 C1897 1.429 . S
C1881 H1903 0.950 . S
C1882 H1878 0.949 . S
C1882 C1890 1.574 . S
C1882 C1898 1.368 . S
H1883 C1891 0.950 . S
H1884 C1889 0.950 . S
H1885 C1890 0.949 . S
H1886 C1892 0.950 . S
H1887 C1893 0.950 . S
H1888 C1894 0.949 . S
C1889 H1884 0.950 . S
C1889 C1891 1.327 . S
C1889 C1895 1.429 . S
C1890 C1882 1.574 . S
C1890 H1885 0.949 . S
C1890 C1896 1.368 . S
C1891 C1875 1.349 . S
C1891 H1883 0.950 . S
C1891 C1889 1.327 . S
C1892 C1880 1.349 . S
C1892 H1886 0.950 . S
C1892 C1893 1.327 . S
C1893 H1887 0.950 . S
C1893 C1892 1.327 . S
C1893 C1897 1.429 . S
C1894 C1877 1.574 . S
C1894 H1888 0.949 . S
C1894 C1898 1.368 . S
C1895 C1876 1.429 . S
C1895 C1889 1.429 . S
C1895 C1896 1.523 . S
C1896 C1877 1.368 . S
C1896 C1890 1.368 . S
C1896 C1895 1.523 . S
C1897 C1881 1.429 . S
C1897 C1893 1.429 . S
C1897 C1898 1.523 . S
C1898 C1882 1.368 . S
C1898 C1894 1.368 . S
C1898 C1897 1.523 . S
H1899 C1874 0.950 . S
H1900 C1876 0.950 . S
H1901 C1877 0.949 . S
H1902 C1879 0.950 . S
H1903 C1881 0.950 . S
C1904 C1905 1.349 . S
C1904 C1906 1.327 . S
C1904 H1929 0.950 . S
C1905 C1904 1.349 . S
C1905 C1921 1.349 . S
C1906 C1904 1.327 . S
C1906 C1925 1.429 . S
C1906 H1930 0.950 . S
C1907 C1924 1.574 1_565 S
C1907 C1926 1.368 . S
C1907 H1931 0.949 . S
H1908 C1912 0.949 . S
C1909 C1910 1.349 . S
C1909 C1911 1.327 . S
C1909 H1932 0.950 . S
C1910 C1909 1.349 . S
C1910 C1922 1.349 . S
C1911 C1909 1.327 . S
C1911 C1927 1.429 . S
C1911 H1933 0.950 . S
C1912 H1908 0.949 . S
C1912 C1920 1.574 . S
C1912 C1928 1.344 1_565 S
H1913 C1921 0.950 . S
H1914 C1919 0.950 . S
H1915 C1920 0.949 . S
H1916 C1922 0.950 . S
H1917 C1923 0.950 . S
H1918 C1924 0.949 . S
C1919 H1914 0.950 . S
C1919 C1921 1.327 . S
C1919 C1925 1.429 . S
C1920 C1912 1.574 . S
C1920 H1915 0.949 . S
C1920 C1926 1.368 . S
C1921 C1905 1.349 . S
C1921 H1913 0.950 . S
C1921 C1919 1.327 . S
C1922 C1910 1.349 . S
C1922 H1916 0.950 . S
C1922 C1923 1.327 . S
C1923 H1917 0.950 . S
C1923 C1922 1.327 . S
C1923 C1927 1.429 . S
C1924 C1907 1.574 1_545 S
C1924 H1918 0.949 . S
C1924 C1928 1.375 . S
C1925 C1906 1.429 . S
C1925 C1919 1.429 . S
C1925 C1926 1.523 . S
C1926 C1907 1.368 . S
C1926 C1920 1.368 . S
C1926 C1925 1.523 . S
C1927 C1911 1.429 . S
C1927 C1923 1.429 . S
C1927 C1928 1.548 . S
C1928 C1912 1.344 1_545 S
C1928 C1924 1.375 . S
C1928 C1927 1.548 . S
H1929 C1904 0.950 . S
H1930 C1906 0.950 . S
H1931 C1907 0.949 . S
H1932 C1909 0.950 . S
H1933 C1911 0.950 . S
C1934 C1935 1.349 . S
C1934 C1936 1.327 . S
C1934 H1959 0.950 . S
C1935 C1934 1.349 . S
C1935 C1951 1.349 . S
C1936 C1934 1.327 . S
C1936 C1955 1.429 . S
C1936 H1960 0.950 . S
C1937 C1954 1.574 . S
C1937 C1956 1.343 1_545 S
C1937 H1961 0.949 . S
H1938 C1942 0.949 . S
C1939 C1940 1.349 . S
C1939 C1941 1.327 . S
C1939 H1962 0.950 . S
C1940 C1939 1.349 . S
C1940 C1952 1.349 . S
C1941 C1939 1.327 . S
C1941 C1957 1.429 . S
C1941 H1963 0.950 . S
C1942 H1938 0.949 . S
C1942 C1950 1.574 1_545 S
C1942 C1958 1.368 . S
H1943 C1951 0.950 . S
H1944 C1949 0.950 . S
H1945 C1950 0.949 . S
H1946 C1952 0.950 . S
H1947 C1953 0.950 . S
H1948 C1954 0.949 . S
C1949 H1944 0.950 . S
C1949 C1951 1.327 . S
C1949 C1955 1.429 . S
C1950 C1942 1.574 1_565 S
C1950 H1945 0.949 . S
C1950 C1956 1.375 . S
C1951 C1935 1.349 . S
C1951 H1943 0.950 . S
C1951 C1949 1.327 . S
C1952 C1940 1.349 . S
C1952 H1946 0.950 . S
C1952 C1953 1.327 . S
C1953 H1947 0.950 . S
C1953 C1952 1.327 . S
C1953 C1957 1.429 . S
C1954 C1937 1.574 . S
C1954 H1948 0.949 . S
C1954 C1958 1.368 . S
C1955 C1936 1.429 . S
C1955 C1949 1.429 . S
C1955 C1956 1.548 . S
C1956 C1937 1.343 1_565 S
C1956 C1950 1.375 . S
C1956 C1955 1.548 . S
C1957 C1941 1.429 . S
C1957 C1953 1.429 . S
C1957 C1958 1.523 . S
C1958 C1942 1.368 . S
C1958 C1954 1.368 . S
C1958 C1957 1.523 . S
H1959 C1934 0.950 . S
H1960 C1936 0.950 . S
H1961 C1937 0.949 . S
H1962 C1939 0.950 . S
H1963 C1941 0.950 . S
C1964 C1965 1.349 . S
C1964 C1966 1.327 . S
C1964 H1989 0.950 . S
C1965 C1964 1.349 . S
C1965 C1981 1.349 . S
C1966 C1964 1.327 . S
C1966 C1985 1.429 . S
C1966 H1990 0.950 . S
C1967 C1984 1.574 . S
C1967 C1986 1.368 . S
C1967 H1991 0.949 . S
H1968 C1972 0.949 . S
C1969 C1970 1.349 . S
C1969 C1971 1.327 . S
C1969 H1992 0.950 . S
C1970 C1969 1.349 . S
C1970 C1982 1.349 . S
C1971 C1969 1.327 . S
C1971 C1987 1.429 . S
C1971 H1993 0.950 . S
C1972 H1968 0.949 . S
C1972 C1980 1.574 . S
C1972 C1988 1.368 . S
H1973 C1981 0.950 . S
H1974 C1979 0.950 . S
H1975 C1980 0.949 . S
H1976 C1982 0.950 . S
H1977 C1983 0.950 . S
H1978 C1984 0.949 . S
C1979 H1974 0.950 . S
C1979 C1981 1.327 . S
C1979 C1985 1.429 . S
C1980 C1972 1.574 . S
C1980 H1975 0.949 . S
C1980 C1986 1.368 . S
C1981 C1965 1.349 . S
C1981 H1973 0.950 . S
C1981 C1979 1.327 . S
C1982 C1970 1.349 . S
C1982 H1976 0.950 . S
C1982 C1983 1.327 . S
C1983 H1977 0.950 . S
C1983 C1982 1.327 . S
C1983 C1987 1.429 . S
C1984 C1967 1.574 . S
C1984 H1978 0.949 . S
C1984 C1988 1.368 . S
C1985 C1966 1.429 . S
C1985 C1979 1.429 . S
C1985 C1986 1.523 . S
C1986 C1967 1.368 . S
C1986 C1980 1.368 . S
C1986 C1985 1.523 . S
C1987 C1971 1.429 . S
C1987 C1983 1.429 . S
C1987 C1988 1.523 . S
C1988 C1972 1.368 . S
C1988 C1984 1.368 . S
C1988 C1987 1.523 . S
H1989 C1964 0.950 . S
H1990 C1966 0.950 . S
H1991 C1967 0.949 . S
H1992 C1969 0.950 . S
H1993 C1971 0.950 . S
C1994 C1995 1.349 . S
C1994 C1996 1.327 . S
C1994 H2019 0.950 . S
C1995 C1994 1.349 . S
C1995 C2011 1.349 . S
C1996 C1994 1.327 . S
C1996 C2015 1.429 . S
C1996 H2020 0.950 . S
C1997 C2014 1.574 . S
C1997 C2016 1.368 . S
C1997 H2021 0.949 . S
H1998 C2002 0.949 . S
C1999 C2000 1.349 . S
C1999 C2001 1.327 . S
C1999 H2022 0.950 . S
C2000 C1999 1.349 . S
C2000 C2012 1.349 . S
C2001 C1999 1.327 . S
C2001 C2017 1.429 . S
C2001 H2023 0.950 . S
C2002 H1998 0.949 . S
C2002 C2010 1.574 . S
C2002 C2018 1.368 . S
H2003 C2011 0.950 . S
H2004 C2009 0.950 . S
H2005 C2010 0.949 . S
H2006 C2012 0.950 . S
H2007 C2013 0.950 . S
H2008 C2014 0.949 . S
C2009 H2004 0.950 . S
C2009 C2011 1.327 . S
C2009 C2015 1.429 . S
C2010 C2002 1.574 . S
C2010 H2005 0.949 . S
C2010 C2016 1.368 . S
C2011 C1995 1.349 . S
C2011 H2003 0.950 . S
C2011 C2009 1.327 . S
C2012 C2000 1.349 . S
C2012 H2006 0.950 . S
C2012 C2013 1.327 . S
C2013 H2007 0.950 . S
C2013 C2012 1.327 . S
C2013 C2017 1.429 . S
C2014 C1997 1.574 . S
C2014 H2008 0.949 . S
C2014 C2018 1.368 . S
C2015 C1996 1.429 . S
C2015 C2009 1.429 . S
C2015 C2016 1.523 . S
C2016 C1997 1.368 . S
C2016 C2010 1.368 . S
C2016 C2015 1.523 . S
C2017 C2001 1.429 . S
C2017 C2013 1.429 . S
C2017 C2018 1.523 . S
C2018 C2002 1.368 . S
C2018 C2014 1.368 . S
C2018 C2017 1.523 . S
H2019 C1994 0.950 . S
H2020 C1996 0.950 . S
H2021 C1997 0.949 . S
H2022 C1999 0.950 . S
H2023 C2001 0.950 . S
C2024 C2025 1.349 . S
C2024 C2026 1.327 . S
C2024 H2049 0.950 . S
C2025 C2024 1.349 . S
C2025 C2041 1.349 . S
C2026 C2024 1.327 . S
C2026 C2045 1.429 . S
C2026 H2050 0.950 . S
C2027 C2044 1.574 . S
C2027 C2046 1.368 . S
C2027 H2051 0.949 . S
H2028 C2032 0.949 . S
C2029 C2030 1.349 . S
C2029 C2031 1.327 . S
C2029 H2052 0.950 . S
C2030 C2029 1.349 . S
C2030 C2042 1.349 . S
C2031 C2029 1.327 . S
C2031 C2047 1.429 . S
C2031 H2053 0.950 . S
C2032 H2028 0.949 . S
C2032 C2040 1.574 . S
C2032 C2048 1.368 . S
H2033 C2041 0.950 1_554 S
H2034 C2039 0.943 1_554 S
H2035 C2040 0.949 . S
H2036 C2042 0.950 . S
H2037 C2043 0.950 . S
H2038 C2044 0.949 . S
C2039 H2034 0.943 1_556 S
C2039 C2041 1.327 . S
C2039 C2045 1.429 . S
C2040 C2032 1.574 . S
C2040 H2035 0.949 . S
C2040 C2046 1.368 . S
C2041 C2025 1.349 . S
C2041 H2033 0.950 1_556 S
C2041 C2039 1.327 . S
C2042 C2030 1.349 . S
C2042 H2036 0.950 . S
C2042 C2043 1.327 . S
C2043 H2037 0.950 . S
C2043 C2042 1.327 . S
C2043 C2047 1.429 . S
C2044 C2027 1.574 . S
C2044 H2038 0.949 . S
C2044 C2048 1.368 . S
C2045 C2026 1.429 . S
C2045 C2039 1.429 . S
C2045 C2046 1.523 . S
C2046 C2027 1.368 . S
C2046 C2040 1.368 . S
C2046 C2045 1.523 . S
C2047 C2031 1.429 . S
C2047 C2043 1.429 . S
C2047 C2048 1.523 . S
C2048 C2032 1.368 . S
C2048 C2044 1.368 . S
C2048 C2047 1.523 . S
H2049 C2024 0.950 . S
H2050 C2026 0.950 . S
H2051 C2027 0.949 . S
H2052 C2029 0.950 . S
H2053 C2031 0.950 . S
C2054 C2055 1.349 . S
C2054 C2056 1.327 . S
C2054 H2079 0.950 . S
C2055 C2054 1.349 . S
C2055 C2071 1.349 . S
C2056 C2054 1.327 . S
C2056 C2075 1.429 . S
C2056 H2080 0.950 . S
C2057 C2074 1.574 . S
C2057 C2076 1.368 . S
C2057 H2081 0.949 . S
H2058 C2062 0.949 . S
C2059 C2060 1.349 . S
C2059 C2061 1.327 . S
C2059 H2082 0.950 . S
C2060 C2059 1.349 . S
C2060 C2072 1.349 . S
C2061 C2059 1.327 . S
C2061 C2077 1.429 . S
C2061 H2083 0.950 . S
C2062 H2058 0.949 . S
C2062 C2070 1.574 . S
C2062 C2078 1.368 . S
H2063 C2071 0.950 . S
H2064 C2069 0.950 . S
H2065 C2070 0.949 . S
H2066 C2072 0.950 1_554 S
H2067 C2073 0.950 1_554 S
H2068 C2074 0.949 . S
C2069 H2064 0.950 . S
C2069 C2071 1.327 . S
C2069 C2075 1.429 . S
C2070 C2062 1.574 . S
C2070 H2065 0.949 . S
C2070 C2076 1.368 . S
C2071 C2055 1.349 . S
C2071 H2063 0.950 . S
C2071 C2069 1.327 . S
C2072 C2060 1.349 . S
C2072 H2066 0.950 1_556 S
C2072 C2073 1.327 . S
C2073 H2067 0.950 1_556 S
C2073 C2072 1.327 . S
C2073 C2077 1.429 . S
C2074 C2057 1.574 . S
C2074 H2068 0.949 . S
C2074 C2078 1.368 . S
C2075 C2056 1.429 . S
C2075 C2069 1.429 . S
C2075 C2076 1.523 . S
C2076 C2057 1.368 . S
C2076 C2070 1.368 . S
C2076 C2075 1.523 . S
C2077 C2061 1.429 . S
C2077 C2073 1.429 . S
C2077 C2078 1.523 . S
C2078 C2062 1.368 . S
C2078 C2074 1.368 . S
C2078 C2077 1.523 . S
H2079 C2054 0.950 . S
H2080 C2056 0.950 . S
H2081 C2057 0.949 . S
H2082 C2059 0.950 . S
H2083 C2061 0.950 . S
C2084 C2085 1.349 . S
C2084 C2086 1.327 . S
C2084 H2109 0.950 . S
C2085 C2084 1.349 . S
C2085 C2101 1.349 . S
C2086 C2084 1.327 . S
C2086 C2105 1.429 . S
C2086 H2110 0.950 . S
C2087 C2104 1.574 . S
C2087 C2106 1.368 . S
C2087 H2111 0.949 . S
H2088 C2092 0.949 . S
C2089 C2090 1.349 . S
C2089 C2091 1.327 . S
C2089 H2112 0.950 . S
C2090 C2089 1.349 . S
C2090 C2102 1.349 . S
C2091 C2089 1.327 . S
C2091 C2107 1.429 . S
C2091 H2113 0.950 . S
C2092 H2088 0.949 . S
C2092 C2100 1.574 . S
C2092 C2108 1.368 . S
H2093 C2101 0.950 . S
H2094 C2099 0.950 . S
H2095 C2100 0.949 . S
H2096 C2102 0.950 . S
H2097 C2103 0.950 . S
H2098 C2104 0.949 . S
C2099 H2094 0.950 . S
C2099 C2101 1.327 . S
C2099 C2105 1.429 . S
C2100 C2092 1.574 . S
C2100 H2095 0.949 . S
C2100 C2106 1.368 . S
C2101 C2085 1.349 . S
C2101 H2093 0.950 . S
C2101 C2099 1.327 . S
C2102 C2090 1.349 . S
C2102 H2096 0.950 . S
C2102 C2103 1.327 . S
C2103 H2097 0.950 . S
C2103 C2102 1.327 . S
C2103 C2107 1.429 . S
C2104 C2087 1.574 . S
C2104 H2098 0.949 . S
C2104 C2108 1.368 . S
C2105 C2086 1.429 . S
C2105 C2099 1.429 . S
C2105 C2106 1.523 . S
C2106 C2087 1.368 . S
C2106 C2100 1.368 . S
C2106 C2105 1.523 . S
C2107 C2091 1.429 . S
C2107 C2103 1.429 . S
C2107 C2108 1.523 . S
C2108 C2092 1.368 . S
C2108 C2104 1.368 . S
C2108 C2107 1.523 . S
H2109 C2084 0.950 . S
H2110 C2086 0.950 . S
H2111 C2087 0.949 . S
H2112 C2089 0.950 . S
H2113 C2091 0.950 . S
C2114 C2115 1.349 . S
C2114 C2116 1.327 . S
C2114 H2139 0.950 . S
C2115 C2114 1.349 . S
C2115 C2131 1.349 . S
C2116 C2114 1.327 . S
C2116 C2135 1.429 . S
C2116 H2140 0.950 . S
C2117 C2134 1.574 . S
C2117 C2136 1.368 . S
C2117 H2141 0.949 . S
H2118 C2122 0.949 . S
C2119 C2120 1.349 . S
C2119 C2121 1.327 . S
C2119 H2142 0.950 . S
C2120 C2119 1.349 . S
C2120 C2132 1.349 . S
C2121 C2119 1.327 . S
C2121 C2137 1.429 . S
C2121 H2143 0.950 . S
C2122 H2118 0.949 . S
C2122 C2130 1.574 . S
C2122 C2138 1.368 . S
H2123 C2131 0.950 . S
H2124 C2129 0.950 . S
H2125 C2130 0.949 . S
H2126 C2132 0.950 . S
H2127 C2133 0.950 . S
H2128 C2134 0.949 . S
C2129 H2124 0.950 . S
C2129 C2131 1.327 . S
C2129 C2135 1.429 . S
C2130 C2122 1.574 . S
C2130 H2125 0.949 . S
C2130 C2136 1.368 . S
C2131 C2115 1.349 . S
C2131 H2123 0.950 . S
C2131 C2129 1.327 . S
C2132 C2120 1.349 . S
C2132 H2126 0.950 . S
C2132 C2133 1.327 . S
C2133 H2127 0.950 . S
C2133 C2132 1.327 . S
C2133 C2137 1.429 . S
C2134 C2117 1.574 . S
C2134 H2128 0.949 . S
C2134 C2138 1.368 . S
C2135 C2116 1.429 . S
C2135 C2129 1.429 . S
C2135 C2136 1.523 . S
C2136 C2117 1.368 . S
C2136 C2130 1.368 . S
C2136 C2135 1.523 . S
C2137 C2121 1.429 . S
C2137 C2133 1.429 . S
C2137 C2138 1.523 . S
C2138 C2122 1.368 . S
C2138 C2134 1.368 . S
C2138 C2137 1.523 . S
H2139 C2114 0.950 . S
H2140 C2116 0.950 . S
H2141 C2117 0.949 . S
H2142 C2119 0.950 . S
H2143 C2121 0.950 . S
C465 C3 0.605 . S
C470 C158 0.646 . S
C495 C32 0.605 . S
C500 C129 0.646 . S
C525 C61 0.606 . S
C530 C332 0.646 . S
C555 C90 0.606 . S
C560 C303 0.646 . S
C585 C42 0.646 . S
C590 C119 0.606 . S
C615 C148 0.605 . S
C620 C13 0.645 . S
C645 C177 0.606 . S
C650 C448 0.646 . S
C675 C419 0.646 . S
C680 C206 0.606 . S
C705 C390 0.646 . S
C710 C235 0.606 . S
C735 C361 0.646 . S
C740 C264 0.606 . S
C765 C100 0.646 . S
C770 C293 0.606 . S
C795 C322 0.606 . S
C800 C71 0.646 . S
C825 C351 0.605 . S
C830 C274 0.646 . S
C855 C380 0.605 . S
C860 C245 0.646 . S
C885 C409 0.606 . S
C890 C216 0.646 . S
C915 C187 0.646 . S
C920 C438 0.606 . S
C945 C15 2.359 . S
C950 C21 2.229 . S
C975 C50 2.229 . S
C980 C44 2.359 . S
C1005 C79 2.229 . S
C1010 C73 2.359 1_556 S
C1035 C108 2.229 . S
C1040 C102 2.359 1_556 S
C1065 C131 2.359 . S
C1070 C137 2.229 . S
C1095 C160 2.359 . S
C1100 C166 2.229 . S
C1125 C189 2.359 . S
C1130 C195 2.229 1_554 S
C1155 C224 2.229 1_554 S
C1160 C218 2.359 . S
C1185 C247 2.359 . S
C1190 C253 2.229 . S
C1215 C276 2.359 . S
C1220 C282 2.229 . S
C1245 C311 2.229 1_554 S
C1250 C305 2.359 . S
C1275 C334 2.359 . S
C1280 C340 2.229 1_554 S
C1305 C369 2.229 . S
C1310 C363 2.359 . S
C1335 C398 2.229 . S
C1340 C392 2.359 . S
C1365 C421 2.359 1_556 S
C1370 C427 2.229 . S
C1395 C450 2.359 1_556 S
C1400 C456 2.229 . S
C1425 C10 1.559 . S
C1430 C39 1.559 . S
C1455 C68 1.559 . S
C1460 C445 1.559 . S
C1485 C97 1.559 . S
C1490 C416 1.559 . S
C1515 C155 1.559 . S
C1520 C126 1.559 . S
C1545 C329 1.559 . S
C1550 C184 1.559 . S
C1575 C213 1.559 . S
C1580 C300 1.559 . S
C1605 C271 1.560 . S
C1610 C242 1.560 . S
C1635 C387 1.560 . S
C1640 C358 1.560 . S
C1665 C8 1.501 . S
C1670 C179 1.531 . S
C1695 C37 1.501 . S
C1700 C208 1.531 . S
C1725 C66 1.502 . S
C1730 C5 1.531 . S
C1755 C34 1.531 . S
C1760 C95 1.501 . S
C1785 C63 1.530 . S
C1790 C124 1.501 . S
C1815 C92 1.530 . S
C1820 C153 1.501 . S
C1845 C182 1.502 . S
C1850 C121 1.531 . S
C1875 C150 1.531 . S
C1880 C211 1.502 . S
C1905 C411 1.530 . S
C1910 C240 1.501 . S
C1935 C269 1.501 . S
C1940 C440 1.530 . S
C1965 C237 1.531 . S
C1970 C298 1.502 . S
C1995 C327 1.502 . S
C2000 C266 1.531 . S
C2025 C356 1.501 . S
C2030 C295 1.531 . S
C2055 C324 1.530 . S
C2060 C385 1.502 . S
C2085 C414 1.502 . S
C2090 C353 1.531 . S
C2115 C443 1.502 . S
C2120 C382 1.531 . S
