# Generated by pormake.
# Topology qtz-x, (6)-cn, num edge types: 1
# Building blocks:
#     Node 0, Type 0, BuildingBlock: KUMBOL_clean_sbu_0, # of connection points: 6
#     Node 1, Type 0, BuildingBlock: KUMBOL_clean_sbu_0, # of connection points: 6
#     Node 2, Type 0, BuildingBlock: KUMBOL_clean_sbu_0, # of connection points: 6
#     Edge 3, Type (0, 0), BuildingBlock: CIFDUS_clean_linker_0, # of connection points: 2
#     Edge 4, Type (0, 0), BuildingBlock: CIFDUS_clean_linker_0, # of connection points: 2
#     Edge 5, Type (0, 0), BuildingBlock: CIFDUS_clean_linker_0, # of connection points: 2
#     Edge 6, Type (0, 0), BuildingBlock: CIFDUS_clean_linker_0, # of connection points: 2
#     Edge 7, Type (0, 0), BuildingBlock: CIFDUS_clean_linker_0, # of connection points: 2
#     Edge 8, Type (0, 0), BuildingBlock: CIFDUS_clean_linker_0, # of connection points: 2
#     Edge 9, Type (0, 0), BuildingBlock: CIFDUS_clean_linker_0, # of connection points: 2
#     Edge 10, Type (0, 0), BuildingBlock: CIFDUS_clean_linker_0, # of connection points: 2
#     Edge 11, Type (0, 0), BuildingBlock: CIFDUS_clean_linker_0, # of connection points: 2
# Relax obj value: 0.164
# Max RMSD: 0.283
# Mean RMSD: 0.283
data_MOF--net-qtz-x--node1-KUMBOL_clean_sbu_0--edge1-CIFDUS_clean_linker_0
_symmetry_space_group_name_H-M    P1
_symmetry_Int_Tables_number       1
_symmetry_cell_setting            triclinic
loop_
_symmetry_equiv_pos_as_xyz
'x, y, z'
_cell_length_a     13.378138
_cell_length_b     13.36377
_cell_length_c     46.336554
_cell_angle_alpha  89.938088
_cell_angle_beta   89.711843
_cell_angle_gamma 120.01939
loop_
_atom_site_label
_atom_site_type_symbol
_atom_site_fract_x
_atom_site_fract_y
_atom_site_fract_z
_atom_type_partial_charge
Gd0 Gd 0.03287 0.35371 0.14852 0.0
Gd1 Gd 0.26123 0.44537 0.20196 0.0
C2 C 0.6411 0.59274 0.17812 0.0
C3 C 0.68249 0.45206 0.19967 0.0
C4 C 0.48842 0.42422 0.20254 0.0
C5 C 0.52475 0.5267 0.18729 0.0
C6 C 0.56789 0.38752 0.20937 0.0
C7 C 0.71847 0.55335 0.18375 0.0
C8 C 0.67836 0.69984 0.16493 0.0
C9 C 0.60308 0.74294 0.16316 0.0
N10 N 0.44981 0.56671 0.1836 0.0
C11 C 0.48977 0.67633 0.17331 0.0
H12 H 0.436 0.71435 0.1725 0.0
C13 C 0.34374 0.27298 0.23093 0.0
N14 N 0.37827 0.36554 0.21275 0.0
C15 C 0.4185 0.23167 0.23748 0.0
C16 C 0.53092 0.28878 0.22653 0.0
H17 H 0.25771 0.22998 0.24005 0.0
H18 H 0.80708 0.60194 0.17635 0.0
H19 H 0.85519 0.11766 0.18754 0.0
H20 H 0.76647 0.75228 0.15732 0.0
H21 H 0.63254 0.82824 0.15426 0.0
H22 H 0.74414 0.42449 0.20441 0.0
H23 H 0.0636 0.58084 0.10961 0.0
H24 H 0.51628 0.07175 0.18491 0.0
H25 H 0.65062 0.0079 0.20145 0.0
H26 H 0.56025 0.37971 0.12341 0.0
H27 H 0.38989 0.15683 0.25133 0.0
H28 H 0.58939 0.2578 0.23207 0.0
H29 H 0.48268 0.20725 0.15433 0.0
H30 H 0.94067 0.65166 0.08948 0.0
N31 N 0.84099 0.25011 0.16557 0.0
C32 C 0.60669 0.12166 0.17906 0.0
C33 C 0.68242 0.08587 0.18864 0.0
C34 C 0.6483 0.2201 0.1616 0.0
C35 C 0.76767 0.28432 0.15549 0.0
C36 C 0.79915 0.14971 0.18102 0.0
N37 N 0.92645 0.43996 0.13239 0.0
C38 C 0.81162 0.38173 0.1382 0.0
C39 C 0.90316 0.57565 0.10318 0.0
C40 C 0.7848 0.5163 0.10887 0.0
C41 C 0.97279 0.53522 0.11478 0.0
C42 C 0.73739 0.4175 0.12634 0.0
H43 H 0.73073 0.54689 0.09955 0.0
O44 O 0.05562 0.34367 0.10251 0.0
O45 O 0.22176 0.41854 0.15504 0.0
O46 O 0.24585 0.59658 0.18429 0.0
O47 O 0.05421 0.51542 0.16911 0.0
O48 O 0.1774 0.49468 0.12272 0.0
O49 O 0.93832 0.18904 0.12645 0.0
O50 O 0.21992 0.53259 0.2359 0.0
O51 O 0.07476 0.37642 0.1951 0.0
O52 O 0.04428 0.19953 0.16458 0.0
O53 O 0.22914 0.27519 0.18359 0.0
O54 O 0.11667 0.2931 0.22564 0.0
O55 O 0.36548 0.50843 0.24097 0.0
C56 C 0.26258 0.49356 0.13511 0.0
C57 C 0.61847 0.35335 0.13215 0.0
C58 C 0.57415 0.25505 0.14978 0.0
C59 C 0.97425 0.23592 0.10103 0.0
C60 C 0.88658 0.20993 0.07867 0.0
C61 C 0.76773 0.14365 0.0847 0.0
C62 C 0.92324 0.25854 0.05111 0.0
C63 C 0.84313 0.24593 0.02991 0.0
C64 C 0.68738 0.12781 0.06347 0.0
C65 C 0.72452 0.17911 0.03629 0.0
C66 C 0.15413 0.60479 0.177 0.0
C67 C 0.032 0.30034 0.21457 0.0
C68 C 0.30024 0.54219 0.25326 0.0
C69 C 0.26687 0.50585 0.28374 0.0
C70 C 0.16654 0.40145 0.29039 0.0
C71 C 0.33643 0.57477 0.30657 0.0
C72 C 0.30426 0.53961 0.33557 0.0
C73 C 0.13491 0.36603 0.31886 0.0
C74 C 0.20287 0.43456 0.34134 0.0
C75 C 0.13213 0.1887 0.17342 0.0
H76 H 0.73674 0.10551 0.10582 0.0
H77 H 0.01493 0.30873 0.0464 0.0
H78 H 0.59596 0.0776 0.06829 0.0
H79 H 0.66049 0.16921 0.0206 0.0
H80 H 0.11248 0.34643 0.27372 0.0
H81 H 0.41437 0.65572 0.3018 0.0
H82 H 0.05788 0.28462 0.32356 0.0
H83 H 0.17703 0.40427 0.3633 0.0
Gd84 Gd 0.67663 0.14047 0.48762 0.0
Gd85 Gd 0.53308 0.90941 0.54103 0.0
C86 C 0.34099 0.52482 0.51787 0.0
C87 C 0.15458 0.45905 0.54078 0.0
C88 C 0.30227 0.66269 0.54212 0.0
C89 C 0.37769 0.63938 0.52668 0.0
C90 C 0.19083 0.57224 0.54974 0.0
C91 C 0.22924 0.43564 0.52478 0.0
C92 C 0.41875 0.50204 0.50316 0.0
C93 C 0.53121 0.59106 0.49841 0.0
N94 N 0.48784 0.72649 0.52158 0.0
C95 C 0.56522 0.70221 0.5083 0.0
H96 H 0.65338 0.7673 0.50429 0.0
C97 C 0.2723 0.79638 0.56883 0.0
N98 N 0.33991 0.7723 0.55124 0.0
C99 C 0.1606 0.71019 0.57632 0.0
C100 C 0.1195 0.59757 0.56669 0.0
H101 H 0.30412 0.88289 0.57682 0.0
H102 H 0.20026 0.34766 0.51832 0.0
H103 H 0.57071 0.2924 0.52092 0.0
H104 H 0.39368 0.41557 0.49594 0.0
H105 H 0.59262 0.57392 0.4874 0.0
H106 H 0.06903 0.38887 0.54617 0.0
H107 H 0.89232 0.15118 0.44964 0.0
H108 H 0.8452 0.63849 0.53205 0.0
H109 H 0.64087 0.48902 0.53884 0.0
H110 H 0.16305 0.64205 0.48319 0.0
H111 H 0.10673 0.73048 0.58974 0.0
H112 H 0.03319 0.53064 0.57271 0.0
H113 H 0.03949 0.69533 0.51075 0.0
H114 H 0.09513 0.29192 0.4372 0.0
N115 N 0.73647 0.32523 0.5068 0.0
C116 C 0.81598 0.55115 0.52493 0.0
C117 C 0.70042 0.46705 0.52873 0.0
C118 C 0.89094 0.52254 0.51083 0.0
C119 C 0.84827 0.40717 0.50207 0.0
C120 C 0.66131 0.35491 0.51876 0.0
N121 N 0.87152 0.26742 0.47689 0.0
C122 C 0.91776 0.3774 0.48646 0.0
C123 C 0.04631 0.31709 0.45112 0.0
C124 C 0.09711 0.42932 0.46189 0.0
C125 C 0.93177 0.23751 0.45833 0.0
C126 C 0.03177 0.46184 0.47906 0.0
H127 H 0.18595 0.49034 0.45641 0.0
O128 O 0.6703 0.11697 0.44113 0.0
O129 O 0.55673 0.95232 0.49431 0.0
O130 O 0.70745 0.93448 0.52877 0.0
O131 O 0.81631 0.12162 0.50969 0.0
O132 O 0.69011 -0.00115 0.46525 0.0
O133 O 0.61196 0.22694 0.45999 0.0
O134 O 0.65535 0.9688 0.57685 0.0
O135 O 0.64336 0.09793 0.53437 0.0
O136 O 0.49669 0.10859 0.49643 0.0
O137 O 0.39222 0.93536 0.52221 0.0
O138 O 0.50181 0.04466 0.56086 0.0
O139 O 0.49493 0.81004 0.58093 0.0
C140 C 0.59659 0.9131 0.4755 0.0
C141 C 0.07551 0.57617 0.48834 0.0
C142 C 0.00526 0.60646 0.50418 0.0
C143 C 0.63605 0.19078 0.43623 0.0
C144 C 0.6996 0.27644 0.41327 0.0
C145 C 0.76073 0.39538 0.4191 0.0
C146 C 0.70271 0.23762 0.38522 0.0
C147 C 0.76782 0.31631 0.36309 0.0
C148 C 0.82389 0.47409 0.39723 0.0
C149 C 0.82801 0.43522 0.3695 0.0
C150 C 0.80695 0.02603 0.52111 0.0
C151 C 0.59595 0.13392 0.55195 0.0
C152 C 0.58687 0.88608 0.59415 0.0
C153 C 0.56953 0.91927 0.62341 0.0
C154 C 0.49838 0.96742 0.62791 0.0
C155 C 0.62067 0.89832 0.64738 0.0
C156 C 0.59945 0.92395 0.67546 0.0
C157 C 0.47953 0.99525 0.65568 0.0
C158 C 0.52927 0.97309 0.67942 0.0
C159 C 0.39932 0.02355 0.50729 0.0
H160 H 0.76079 0.42755 0.44055 0.0
H161 H 0.65526 0.14571 0.3808 0.0
H162 H 0.87161 0.56564 0.40191 0.0
H163 H 0.88132 0.49838 0.35335 0.0
H164 H 0.45572 0.98225 0.6102 0.0
H165 H 0.67459 0.85982 0.64431 0.0
H166 H 0.42485 0.03267 0.65883 0.0
H167 H 0.5126 0.99365 0.70088 0.0
Gd168 Gd 0.86037 0.5056 0.81423 0.0
Gd169 Gd 0.75491 0.62679 0.86875 0.0
C170 C 0.61825 0.87237 0.84915 0.0
C171 C 0.76019 0.04842 0.87247 0.0
C172 C 0.78334 0.87901 0.87257 0.0
C173 C 0.68141 0.8178 0.85718 0.0
C174 C 0.82224 0.9944 0.88083 0.0
C175 C 0.65917 0.98804 0.85649 0.0
C176 C 0.51285 0.80781 0.83512 0.0
C177 C 0.46766 0.68972 0.83163 0.0
N178 N 0.63937 0.70339 0.85202 0.0
C179 C 0.53047 0.63827 0.84104 0.0
H180 H 0.48953 0.54641 0.83905 0.0
C181 C 0.93262 0.87757 0.89943 0.0
N182 N 0.84006 0.82372 0.88125 0.0
C183 C 0.97611 0.99281 0.9073 0.0
C184 C 0.92112 0.05184 0.89782 0.0
H185 H 0.97528 0.83283 0.90738 0.0
H186 H 0.61279 0.03142 0.85013 0.0
H187 H 0.10102 0.57412 0.85409 0.0
H188 H 0.46339 0.84715 0.82802 0.0
H189 H 0.38337 0.63759 0.82207 0.0
H190 H 0.79064 0.13751 0.8779 0.0
H191 H 0.63849 0.30489 0.77453 0.0
H192 H 0.13895 0.27686 0.85684 0.0
H193 H 0.20712 0.47968 0.8699 0.0
H194 H 0.82874 0.0009 0.79961 0.0
H195 H 0.05119 0.03556 0.921 0.0
H196 H 0.95393 0.14074 0.90431 0.0
H197 H 0.00039 0.10151 0.8297 0.0
H198 H 0.5669 0.10467 0.75818 0.0
N199 N 0.96598 0.4243 0.83372 0.0
C200 C 0.08987 0.31723 0.85018 0.0
C201 C 0.12855 0.43162 0.85763 0.0
C202 C 0.99018 0.25725 0.8336 0.0
C203 C 0.92722 0.3124 0.82607 0.0
C204 C 0.06695 0.48483 0.84862 0.0
N205 N 0.77068 0.30944 0.801 0.0
C206 C 0.82825 0.25421 0.80911 0.0
C207 C 0.63997 0.14541 0.77257 0.0
C208 C 0.696 0.08645 0.78129 0.0
C209 C 0.68035 0.25833 0.78201 0.0
C210 C 0.79275 0.14148 0.79911 0.0
H211 H 0.66535 -0.00064 0.77363 0.0
O212 O 0.83663 0.49098 0.76765 0.0
O213 O 0.74655 0.5846 0.82191 0.0
O214 O 0.60332 0.47061 0.84878 0.0
O215 O 0.68331 0.3658 0.82929 0.0
O216 O 0.8704 0.65603 0.79019 0.0
O217 O 0.00653 0.54806 0.78652 0.0
O218 O 0.68063 0.49645 0.90313 0.0
O219 O 0.82755 0.51189 0.8608 0.0
O220 O 0.01259 0.66626 0.83177 0.0
O221 O 0.92736 0.76824 0.8507 0.0
O222 O 0.9091 0.63727 0.89097 0.0
O223 O 0.6725 0.65094 0.90695 0.0
C224 C 0.78738 0.66097 0.80246 0.0
C225 C 0.85594 0.08772 0.80662 0.0
C226 C 0.95393 0.14518 0.8238 0.0
C227 C 0.94344 0.51584 0.76307 0.0
C228 C 0.9613 0.4402 0.74296 0.0
C229 C 0.01468 0.37812 0.75218 0.0
C230 C 0.92732 0.43217 0.71395 0.0
C231 C 0.94593 0.36241 0.69429 0.0
C232 C 0.03116 0.30722 0.73306 0.0
C233 C -0.00276 0.29927 0.70436 0.0
C234 C 0.59445 0.37351 0.83907 0.0
C235 C 0.90196 0.54496 0.88039 0.0
C236 C 0.65591 0.55815 0.92007 0.0
C237 C 0.69763 0.57202 0.95035 0.0
C238 C 0.81663 0.63137 0.95605 0.0
C239 C 0.61956 0.52932 0.97393 0.0
C240 C 0.66132 0.54655 1.00257 0.0
C241 C 0.85758 0.64516 0.9842 0.0
C242 C 0.7806 0.6033 1.00734 0.0
C243 C 0.01783 0.76232 0.84101 0.0
H244 H 0.04439 0.38457 0.77411 0.0
H245 H 0.88828 0.48179 0.70664 0.0
H246 H 0.07082 0.25846 0.74049 0.0
H247 H 0.0101 0.24244 0.69012 0.0
H248 H 0.87898 0.66914 0.93898 0.0
H249 H 0.52742 0.48613 0.97012 0.0
H250 H 0.94961 0.69057 0.9881 0.0
H251 H 0.81418 0.61734 0.02911 0.0
H252 H -0.00203 0.66828 0.19178 0.0
H253 H 0.3386 0.79962 0.15577 0.0
H254 H 0.36096 0.99122 0.15097 0.0
H255 H 0.28619 0.12431 0.15858 0.0
H256 H 0.94191 0.99248 0.19191 0.0
H257 H 0.91901 0.79989 0.19704 0.0
C258 C 0.07687 0.7393 0.18295 0.0
C259 C 0.16746 0.72077 0.17478 0.0
C260 C 0.08904 0.8496 0.1802 0.0
C261 C 0.26952 0.8128 0.1633 0.0
C262 C 0.28215 0.9224 0.16038 0.0
C263 C 0.20654 0.05294 0.16689 0.0
C264 C 0.11637 0.07183 0.17496 0.0
C265 C 0.19321 0.94221 0.16911 0.0
C266 C 0.01219 0.9792 0.18533 0.0
C267 C -0.00088 0.86921 0.18829 0.0
H268 H 0.18696 0.88268 0.53055 0.0
H269 H 0.37917 0.19467 0.48019 0.0
H270 H 0.21464 0.22549 0.48118 0.0
H271 H 0.02143 0.17058 0.49909 0.0
H272 H 0.82735 0.85511 0.54798 0.0
H273 H 0.99302 0.82579 0.54742 0.0
C274 C 0.19374 0.95795 0.52004 0.0
C275 C 0.29614 0.0366 0.50574 0.0
C276 C 0.10008 0.97699 0.52131 0.0
C277 C 0.30179 0.1326 0.49158 0.0
C278 C 0.20811 0.15117 0.49237 0.0
C279 C 0.01404 0.09425 0.50906 0.0
C280 C 0.91087 0.01423 0.52285 0.0
C281 C 0.10758 0.07491 0.50758 0.0
C282 C 0.90509 0.91781 0.53681 0.0
C283 C -0.00069 0.90012 0.53631 0.0
H284 H 0.07507 0.97966 0.82596 0.0
H285 H 0.21619 0.77644 0.85964 0.0
H286 H 0.40696 0.94848 0.86261 0.0
H287 H 0.53581 0.15666 0.8541 0.0
H288 H 0.39601 0.36079 0.8202 0.0
H289 H 0.20441 0.18933 0.8177 0.0
C290 C 0.14798 0.97406 0.83401 0.0
C291 C 0.13232 0.8665 0.84255 0.0
C292 C 0.25802 0.07309 0.83506 0.0
C293 C 0.22689 0.85844 0.85257 0.0
C294 C 0.33601 0.95666 0.85421 0.0
C295 C 0.46298 0.16283 0.84618 0.0
C296 C 0.47911 0.27046 0.83756 0.0
C297 C 0.35291 0.06416 0.8452 0.0
C298 C 0.38477 0.2789 0.82753 0.0
C299 C 0.27523 0.18081 0.82604 0.0
H300 H 0.63213 0.69251 0.03653 0.0
H301 H 0.52281 0.33225 0.02619 0.0
H302 H 0.4057 0.28548 0.07057 0.0
H303 H 0.32417 0.34731 0.11056 0.0
H304 H 0.4174 0.70524 0.11619 0.0
H305 H 0.55424 0.75415 0.07637 0.0
C306 C 0.58188 0.60373 0.04399 0.0
C307 C 0.58365 0.51549 0.02799 0.0
C308 C 0.51432 0.57793 0.06916 0.0
C309 C 0.52009 0.40095 0.03791 0.0
C310 C 0.45425 0.3746 0.06339 0.0
C311 C 0.37792 0.4364 0.10367 0.0
C312 C 0.36554 0.5238 0.11728 0.0
C313 C 0.44988 0.46237 0.07911 0.0
C314 C 0.42999 0.63776 0.10701 0.0
C315 C 0.50646 0.66533 0.08385 0.0
H316 H 0.77855 0.41306 0.31017 0.0
H317 H 0.78682 0.1259 0.35054 0.0
H318 H 0.83983 0.07625 0.30464 0.0
H319 H 0.92255 0.13812 0.25597 0.0
H320 H 0.9333 0.4367 0.21729 0.0
H321 H 0.83277 0.45654 0.25898 0.0
C322 C 0.79124 0.33914 0.30893 0.0
C323 C 0.78083 0.27504 0.33409 0.0
C324 C 0.82612 0.31337 0.28262 0.0
C325 C 0.79384 0.17712 0.33171 0.0
C326 C 0.82497 0.14884 0.3054 0.0
C327 C 0.89908 0.20496 0.25631 0.0
C328 C 0.93748 0.28719 0.23389 0.0
C329 C 0.84667 0.21955 0.28109 0.0
C330 C 0.90594 0.37292 0.23436 0.0
C331 C 0.84968 0.38527 0.25844 0.0
H332 H 0.88265 0.86329 0.77513 0.0
H333 H 0.5584 0.55041 0.7886 0.0
H334 H 0.46793 0.61067 0.75188 0.0
H335 H 0.48772 0.74369 0.71217 0.0
H336 H 0.81833 0.04518 0.69529 0.0
H337 H 0.90111 -0.00107 0.73686 0.0
C338 C 0.7912 0.8103 0.77058 0.0
C339 C 0.72526 0.7061 0.78571 0.0
C340 C 0.74243 0.84235 0.74823 0.0
C341 C 0.60866 0.63472 0.77864 0.0
C342 C 0.55785 0.66797 0.75714 0.0
C343 C 0.57768 0.79903 0.71783 0.0
C344 C 0.64784 0.89688 0.70082 0.0
C345 C 0.62469 0.77026 0.74132 0.0
C346 C 0.76396 0.96886 0.70808 0.0
C347 C 0.81082 0.94244 0.73179 0.0
H348 H 0.0404 0.5982 0.92635 0.0
H349 H 0.76556 0.30963 0.88174 0.0
H350 H 0.72883 0.18683 0.92419 0.0
H351 H 0.75767 0.16953 0.97595 0.0
H352 H 0.01973 0.46638 0.02146 0.0
H353 H 0.07932 0.57704 0.97674 0.0
C354 C 0.9751 0.50732 0.92564 0.0
C355 C 0.90561 0.46305 0.90111 0.0
C356 C 0.95088 0.43908 0.9505 0.0
C357 C 0.82083 0.3455 0.90036 0.0
C358 C 0.79872 0.2757 0.92477 0.0
C359 C 0.82805 0.25828 0.97604 0.0
C360 C 0.88385 0.30932 1.00208 0.0
C361 C 0.86007 0.32293 0.95032 0.0
C362 C 0.97613 0.42406 1.00172 0.0
C363 C 0.01008 0.48784 0.97615 0.0
H364 H 0.22992 0.59266 0.38474 0.0
H365 H 0.53822 0.64236 0.34164 0.0
H366 H 0.654 0.74901 0.38336 0.0
H367 H 0.66784 0.83345 0.43127 0.0
H368 H 0.36098 0.79185 0.47326 0.0
H369 H 0.24378 0.67538 0.43279 0.0
C370 C 0.32244 0.62637 0.38455 0.0
C371 C 0.37559 0.60988 0.36012 0.0
C372 C 0.38815 0.68739 0.40854 0.0
C373 C 0.49562 0.65526 0.36002 0.0
C374 C 0.56154 0.71509 0.38397 0.0
C375 C 0.57479 0.79608 0.43189 0.0
C376 C 0.52275 0.82016 0.45529 0.0
C377 C 0.50865 0.73169 0.40831 0.0
C378 C 0.40254 0.77267 0.45574 0.0
C379 C 0.33582 0.7071 0.43251 0.0
H380 H 0.74922 0.34818 0.67296 0.0
H381 H 0.06142 0.35357 0.64626 0.0
H382 H 0.98935 0.30601 0.59704 0.0
H383 H 0.82601 0.23477 0.56357 0.0
H384 H 0.51258 0.22501 0.59073 0.0
H385 H 0.59925 0.30863 0.6372 0.0
C386 C 0.80299 0.34215 0.65626 0.0
C387 C 0.90953 0.35193 0.66355 0.0
C388 C 0.76102 0.31471 0.62791 0.0
C389 C 0.97756 0.34315 0.6415 0.0
C390 C 0.93684 0.31684 0.61324 0.0
C391 C 0.77824 0.25488 0.57925 0.0
C392 C 0.66245 0.22223 0.57396 0.0
C393 C 0.82699 0.29843 0.60641 0.0
C394 C 0.60176 0.24911 0.59444 0.0
C395 C 0.65076 0.29547 0.62116 0.0
loop_
_geom_bond_atom_site_label_1
_geom_bond_atom_site_label_2
_geom_bond_distance
_geom_bond_site_symmetry_2
_ccdc_geom_bond_type
Gd0 N31 2.661 . S
Gd0 N37 2.601 . S
Gd0 O44 2.545 . S
Gd0 O45 2.606 1_655 S
Gd0 O47 2.429 . S
Gd0 O48 2.545 . S
Gd0 O49 2.412 . S
Gd0 O51 2.362 . S
Gd0 O52 2.324 . S
Gd0 C59 2.828 . S
Gd1 N10 2.661 . S
Gd1 N14 2.601 . S
Gd1 O45 2.362 . S
Gd1 O46 2.324 . S
Gd1 O50 2.545 . S
Gd1 O51 2.606 1_455 S
Gd1 O53 2.429 . S
Gd1 O54 2.545 . S
Gd1 O55 2.412 . S
Gd1 C68 2.828 . S
C2 C5 1.417 . S
C2 C7 1.431 . S
C2 C8 1.412 . S
C3 C6 1.437 . S
C3 C7 1.317 . S
C3 H22 0.929 . S
C4 C5 1.426 . S
C4 C6 1.413 . S
C4 N14 1.359 . S
C5 C2 1.417 . S
C5 C4 1.426 . S
C5 N10 1.350 . S
C6 C3 1.437 . S
C6 C4 1.413 . S
C6 C16 1.391 . S
C7 C2 1.431 . S
C7 C3 1.317 . S
C7 H18 0.930 . S
C8 C2 1.412 . S
C8 C9 1.355 . S
C8 H20 0.930 . S
C9 C8 1.355 . S
C9 C11 1.402 . S
C9 H21 0.930 . S
N10 Gd1 2.661 . S
N10 C5 1.350 . S
N10 C11 1.307 . S
C11 C9 1.402 . S
C11 N10 1.307 . S
C11 H12 0.930 . S
H12 C11 0.930 . S
C13 N14 1.334 . S
C13 C15 1.394 . S
C13 H17 0.930 . S
N14 Gd1 2.601 . S
N14 C4 1.359 . S
N14 C13 1.334 . S
C15 C13 1.394 . S
C15 C16 1.359 . S
C15 H27 0.930 . S
C16 C6 1.391 . S
C16 C15 1.359 . S
C16 H28 0.929 . S
H17 C13 0.930 . S
H18 C7 0.930 . S
H19 C36 0.930 . S
H20 C8 0.930 . S
H21 C9 0.930 . S
H22 C3 0.929 . S
H23 C41 0.930 . S
H24 C32 0.930 1_565 S
H25 C33 0.930 1_565 S
H26 C57 0.929 . S
H27 C15 0.930 . S
H28 C16 0.929 . S
H29 C58 0.930 . S
H30 C39 0.930 . S
N31 Gd0 2.661 . S
N31 C35 1.350 . S
N31 C36 1.307 . S
C32 H24 0.930 1_545 S
C32 C33 1.355 . S
C32 C34 1.412 . S
C33 H25 0.930 1_545 S
C33 C32 1.355 . S
C33 C36 1.402 . S
C34 C32 1.412 . S
C34 C35 1.417 . S
C34 C58 1.431 . S
C35 N31 1.350 . S
C35 C34 1.417 . S
C35 C38 1.426 . S
C36 H19 0.930 . S
C36 N31 1.307 . S
C36 C33 1.402 . S
N37 Gd0 2.601 . S
N37 C38 1.359 . S
N37 C41 1.334 . S
C38 C35 1.426 . S
C38 N37 1.359 . S
C38 C42 1.413 . S
C39 H30 0.930 . S
C39 C40 1.359 . S
C39 C41 1.394 . S
C40 C39 1.359 . S
C40 C42 1.391 . S
C40 H43 0.929 . S
C41 H23 0.930 . S
C41 N37 1.334 . S
C41 C39 1.394 . S
C42 C38 1.413 . S
C42 C40 1.391 . S
C42 C57 1.437 . S
H43 C40 0.929 . S
O44 Gd0 2.545 . S
O44 C59 1.258 . S
O45 Gd0 2.606 1_455 S
O45 Gd1 2.362 . S
O45 C56 1.284 . S
O46 Gd1 2.324 . S
O46 C66 1.254 . S
O47 Gd0 2.429 . S
O47 C66 1.268 1_655 S
O48 Gd0 2.545 . S
O48 C56 1.250 1_655 S
O49 Gd0 2.412 . S
O49 C59 1.252 . S
O50 Gd1 2.545 . S
O50 C68 1.258 . S
O51 Gd0 2.362 . S
O51 Gd1 2.606 1_655 S
O51 C67 1.284 . S
O52 Gd0 2.324 . S
O52 C75 1.254 . S
O53 Gd1 2.429 . S
O53 C75 1.268 1_455 S
O54 Gd1 2.545 . S
O54 C67 1.250 1_455 S
O55 Gd1 2.412 . S
O55 C68 1.252 . S
C56 O45 1.284 . S
C56 O48 1.250 1_455 S
C57 H26 0.929 . S
C57 C42 1.437 . S
C57 C58 1.317 . S
C58 H29 0.930 . S
C58 C34 1.431 . S
C58 C57 1.317 . S
C59 Gd0 2.828 . S
C59 O44 1.258 . S
C59 O49 1.252 . S
C59 C60 1.497 . S
C60 C59 1.497 . S
C60 C61 1.395 . S
C60 C62 1.380 . S
C61 C60 1.395 . S
C61 C64 1.398 . S
C61 H76 0.930 . S
C62 C60 1.380 . S
C62 C63 1.391 . S
C62 H77 0.930 . S
C63 C62 1.391 . S
C63 C65 1.387 . S
C64 C61 1.398 . S
C64 C65 1.380 . S
C64 H78 0.930 . S
C65 C63 1.387 . S
C65 C64 1.380 . S
C65 H79 0.930 1_554 S
C66 O46 1.254 . S
C66 O47 1.268 1_455 S
C67 O51 1.284 . S
C67 O54 1.250 1_655 S
C68 Gd1 2.828 . S
C68 O50 1.258 . S
C68 O55 1.252 . S
C68 C69 1.497 . S
C69 C68 1.497 . S
C69 C70 1.395 . S
C69 C71 1.380 . S
C70 C69 1.395 . S
C70 C73 1.398 . S
C70 H80 0.930 . S
C71 C69 1.380 . S
C71 C72 1.391 . S
C71 H81 0.930 . S
C72 C71 1.391 . S
C72 C74 1.387 . S
C73 C70 1.398 . S
C73 C74 1.380 . S
C73 H82 0.930 . S
C74 C72 1.387 . S
C74 C73 1.380 . S
C74 H83 0.930 . S
C75 O52 1.254 . S
C75 O53 1.268 1_655 S
H76 C61 0.930 . S
H77 C62 0.930 . S
H78 C64 0.930 . S
H79 C65 0.930 1_556 S
H80 C70 0.930 . S
H81 C71 0.930 . S
H82 C73 0.930 . S
H83 C74 0.930 . S
Gd84 N115 2.661 . S
Gd84 N121 2.601 1_655 S
Gd84 O128 2.545 1_655 S
Gd84 O129 2.606 . S
Gd84 O131 2.434 . S
Gd84 O132 2.545 . S
Gd84 O133 2.412 . S
Gd84 O135 2.362 . S
Gd84 O136 2.324 . S
Gd84 C143 2.828 . S
Gd85 N94 2.661 1_545 S
Gd85 N98 2.601 1_545 S
Gd85 O129 2.362 . S
Gd85 O130 2.324 . S
Gd85 O134 2.545 1_545 S
Gd85 O135 2.606 . S
Gd85 O137 2.429 . S
Gd85 O138 2.545 . S
Gd85 O139 2.412 1_545 S
Gd85 C152 2.828 1_545 S
C86 C89 1.417 . S
C86 C91 1.431 . S
C86 C92 1.412 . S
C87 C90 1.437 . S
C87 C91 1.317 . S
C87 H106 0.929 . S
C88 C89 1.426 . S
C88 C90 1.413 . S
C88 N98 1.359 . S
C89 C86 1.417 . S
C89 C88 1.426 . S
C89 N94 1.350 . S
C90 C87 1.437 . S
C90 C88 1.413 . S
C90 C100 1.391 . S
C91 C86 1.431 . S
C91 C87 1.317 . S
C91 H102 0.930 . S
C92 C86 1.412 . S
C92 C93 1.355 . S
C92 H104 0.930 . S
C93 C92 1.355 . S
C93 C95 1.402 . S
C93 H105 0.930 . S
N94 Gd85 2.661 1_565 S
N94 C89 1.350 . S
N94 C95 1.307 . S
C95 C93 1.402 . S
C95 N94 1.307 . S
C95 H96 0.930 . S
H96 C95 0.930 . S
C97 N98 1.334 . S
C97 C99 1.394 . S
C97 H101 0.930 . S
N98 Gd85 2.601 1_565 S
N98 C88 1.359 . S
N98 C97 1.334 . S
C99 C97 1.394 . S
C99 C100 1.359 . S
C99 H111 0.930 . S
C100 C90 1.391 . S
C100 C99 1.359 . S
C100 H112 0.929 . S
H101 C97 0.930 . S
H102 C91 0.930 . S
H103 C120 0.930 . S
H104 C92 0.930 . S
H105 C93 0.930 . S
H106 C87 0.929 . S
H107 C125 0.930 . S
H108 C116 0.930 . S
H109 C117 0.930 . S
H110 C141 0.929 . S
H111 C99 0.930 . S
H112 C100 0.929 . S
H113 C142 0.930 . S
H114 C123 0.930 . S
N115 Gd84 2.661 . S
N115 C119 1.350 1_655 S
N115 C120 1.307 . S
C116 H108 0.930 . S
C116 C117 1.355 . S
C116 C118 1.412 1_655 S
C117 H109 0.930 . S
C117 C116 1.355 . S
C117 C120 1.402 . S
C118 C116 1.412 1_455 S
C118 C119 1.417 . S
C118 C142 1.431 . S
C119 N115 1.350 1_455 S
C119 C118 1.417 . S
C119 C122 1.426 . S
C120 H103 0.930 . S
C120 N115 1.307 . S
C120 C117 1.402 . S
N121 Gd84 2.601 1_455 S
N121 C122 1.359 . S
N121 C125 1.334 . S
C122 C119 1.426 . S
C122 N121 1.359 . S
C122 C126 1.413 . S
C123 H114 0.930 . S
C123 C124 1.359 . S
C123 C125 1.394 . S
C124 C123 1.359 . S
C124 C126 1.391 . S
C124 H127 0.929 . S
C125 H107 0.930 . S
C125 N121 1.334 . S
C125 C123 1.394 . S
C126 C122 1.413 . S
C126 C124 1.391 . S
C126 C141 1.437 . S
H127 C124 0.929 . S
O128 Gd84 2.545 1_455 S
O128 C143 1.258 1_455 S
O129 Gd84 2.606 . S
O129 Gd85 2.362 . S
O129 C140 1.284 . S
O130 Gd85 2.324 . S
O130 C150 1.254 . S
O131 Gd84 2.434 . S
O131 C150 1.267 . S
O132 Gd84 2.545 . S
O132 C140 1.250 . S
O133 Gd84 2.412 . S
O133 C143 1.252 . S
O134 Gd85 2.545 1_565 S
O134 C152 1.258 . S
O135 Gd84 2.362 . S
O135 Gd85 2.606 . S
O135 C151 1.284 . S
O136 Gd84 2.324 . S
O136 C159 1.254 . S
O137 Gd85 2.429 . S
O137 C159 1.268 . S
O138 Gd85 2.545 . S
O138 C151 1.250 . S
O139 Gd85 2.412 1_565 S
O139 C152 1.252 . S
C140 O129 1.284 . S
C140 O132 1.250 . S
C141 H110 0.929 . S
C141 C126 1.437 . S
C141 C142 1.317 . S
C142 H113 0.930 . S
C142 C118 1.431 . S
C142 C141 1.317 . S
C143 Gd84 2.828 . S
C143 O128 1.258 1_655 S
C143 O133 1.252 . S
C143 C144 1.497 . S
C144 C143 1.497 . S
C144 C145 1.395 1_655 S
C144 C146 1.380 . S
C145 C144 1.395 1_455 S
C145 C148 1.398 . S
C145 H160 0.930 . S
C146 C144 1.380 . S
C146 C147 1.391 . S
C146 H161 0.930 . S
C147 C146 1.391 . S
C147 C149 1.387 . S
C148 C145 1.398 . S
C148 C149 1.380 1_455 S
C148 H162 0.930 . S
C149 C147 1.387 . S
C149 C148 1.380 1_655 S
C149 H163 0.930 . S
C150 O130 1.254 . S
C150 O131 1.267 . S
C151 O135 1.284 . S
C151 O138 1.250 . S
C152 Gd85 2.828 1_565 S
C152 O134 1.258 . S
C152 O139 1.252 . S
C152 C153 1.497 . S
C153 C152 1.497 . S
C153 C154 1.395 . S
C153 C155 1.380 . S
C154 C153 1.395 . S
C154 C157 1.398 . S
C154 H164 0.930 . S
C155 C153 1.380 . S
C155 C156 1.391 . S
C155 H165 0.930 . S
C156 C155 1.391 . S
C156 C158 1.387 . S
C157 C154 1.398 . S
C157 C158 1.380 . S
C157 H166 0.930 . S
C158 C156 1.387 . S
C158 C157 1.380 . S
C158 H167 0.930 . S
C159 O136 1.254 . S
C159 O137 1.268 . S
H160 C145 0.930 . S
H161 C146 0.930 . S
H162 C148 0.930 . S
H163 C149 0.930 . S
H164 C154 0.930 . S
H165 C155 0.930 . S
H166 C157 0.930 . S
H167 C158 0.930 . S
Gd168 N199 2.660 . S
Gd168 N205 2.601 . S
Gd168 O212 2.545 . S
Gd168 O213 2.606 . S
Gd168 O215 2.429 . S
Gd168 O216 2.545 . S
Gd168 O217 2.412 . S
Gd168 O219 2.362 . S
Gd168 O220 2.324 . S
Gd168 C227 2.828 . S
Gd169 N178 2.661 . S
Gd169 N182 2.601 . S
Gd169 O213 2.362 . S
Gd169 O214 2.324 . S
Gd169 O218 2.545 . S
Gd169 O219 2.606 . S
Gd169 O221 2.429 . S
Gd169 O222 2.545 . S
Gd169 O223 2.412 . S
Gd169 C236 2.828 . S
C170 C173 1.417 . S
C170 C175 1.431 . S
C170 C176 1.412 . S
C171 C174 1.437 . S
C171 C175 1.317 . S
C171 H190 0.929 . S
C172 C173 1.426 . S
C172 C174 1.413 . S
C172 N182 1.359 . S
C173 C170 1.417 . S
C173 C172 1.426 . S
C173 N178 1.350 . S
C174 C171 1.437 . S
C174 C172 1.413 . S
C174 C184 1.391 . S
C175 C170 1.431 . S
C175 C171 1.317 . S
C175 H186 0.930 . S
C176 C170 1.412 . S
C176 C177 1.355 . S
C176 H188 0.930 . S
C177 C176 1.355 . S
C177 C179 1.402 . S
C177 H189 0.930 . S
N178 Gd169 2.661 . S
N178 C173 1.350 . S
N178 C179 1.307 . S
C179 C177 1.402 . S
C179 N178 1.307 . S
C179 H180 0.930 . S
H180 C179 0.930 . S
C181 N182 1.334 . S
C181 C183 1.394 . S
C181 H185 0.930 . S
N182 Gd169 2.601 . S
N182 C172 1.359 . S
N182 C181 1.334 . S
C183 C181 1.394 . S
C183 C184 1.359 . S
C183 H195 0.930 . S
C184 C174 1.391 . S
C184 C183 1.359 . S
C184 H196 0.929 1_565 S
H185 C181 0.930 . S
H186 C175 0.930 . S
H187 C204 0.930 . S
H188 C176 0.930 . S
H189 C177 0.930 . S
H190 C171 0.929 . S
H191 C209 0.930 . S
H192 C200 0.930 . S
H193 C201 0.930 . S
H194 C225 0.929 . S
H195 C183 0.930 . S
H196 C184 0.929 1_545 S
H197 C226 0.930 . S
H198 C207 0.930 . S
N199 Gd168 2.660 . S
N199 C203 1.351 . S
N199 C204 1.307 1_655 S
C200 H192 0.930 . S
C200 C201 1.355 . S
C200 C202 1.412 . S
C201 H193 0.930 . S
C201 C200 1.355 . S
C201 C204 1.402 . S
C202 C200 1.412 . S
C202 C203 1.417 1_455 S
C202 C226 1.431 . S
C203 N199 1.351 . S
C203 C202 1.417 1_655 S
C203 C206 1.426 . S
C204 H187 0.930 . S
C204 N199 1.307 1_455 S
C204 C201 1.402 . S
N205 Gd168 2.601 . S
N205 C206 1.359 . S
N205 C209 1.334 . S
C206 C203 1.426 . S
C206 N205 1.359 . S
C206 C210 1.413 1_545 S
C207 H198 0.930 . S
C207 C208 1.359 . S
C207 C209 1.394 1_565 S
C208 C207 1.359 . S
C208 C210 1.391 . S
C208 H211 0.929 . S
C209 H191 0.930 . S
C209 N205 1.334 . S
C209 C207 1.394 1_545 S
C210 C206 1.413 1_565 S
C210 C208 1.391 . S
C210 C225 1.437 . S
H211 C208 0.929 . S
O212 Gd168 2.545 . S
O212 C227 1.258 . S
O213 Gd168 2.606 . S
O213 Gd169 2.362 . S
O213 C224 1.284 . S
O214 Gd169 2.324 . S
O214 C234 1.254 . S
O215 Gd168 2.429 . S
O215 C234 1.268 . S
O216 Gd168 2.545 . S
O216 C224 1.250 . S
O217 Gd168 2.412 . S
O217 C227 1.252 . S
O218 Gd169 2.545 . S
O218 C236 1.258 . S
O219 Gd168 2.362 . S
O219 Gd169 2.606 . S
O219 C235 1.284 . S
O220 Gd168 2.324 . S
O220 C243 1.254 1_655 S
O221 Gd169 2.429 . S
O221 C243 1.268 1_655 S
O222 Gd169 2.545 . S
O222 C235 1.250 . S
O223 Gd169 2.412 . S
O223 C236 1.252 . S
C224 O213 1.284 . S
C224 O216 1.250 . S
C225 H194 0.929 . S
C225 C210 1.437 . S
C225 C226 1.317 1_665 S
C226 H197 0.930 . S
C226 C202 1.431 . S
C226 C225 1.317 1_445 S
C227 Gd168 2.828 . S
C227 O212 1.258 . S
C227 O217 1.252 . S
C227 C228 1.497 . S
C228 C227 1.497 . S
C228 C229 1.395 . S
C228 C230 1.380 1_655 S
C229 C228 1.395 . S
C229 C232 1.398 . S
C229 H244 0.930 . S
C230 C228 1.380 1_455 S
C230 C231 1.391 . S
C230 H245 0.930 . S
C231 C230 1.391 . S
C231 C233 1.387 . S
C232 C229 1.398 . S
C232 C233 1.380 1_655 S
C232 H246 0.930 . S
C233 C231 1.387 . S
C233 C232 1.380 1_455 S
C233 H247 0.930 . S
C234 O214 1.254 . S
C234 O215 1.268 . S
C235 O219 1.284 . S
C235 O222 1.250 . S
C236 Gd169 2.828 . S
C236 O218 1.258 . S
C236 O223 1.252 . S
C236 C237 1.497 . S
C237 C236 1.497 . S
C237 C238 1.395 . S
C237 C239 1.380 . S
C238 C237 1.395 . S
C238 C241 1.398 . S
C238 H248 0.930 . S
C239 C237 1.380 . S
C239 C240 1.391 . S
C239 H249 0.930 . S
C240 C239 1.391 . S
C240 C242 1.387 . S
C241 C238 1.398 . S
C241 C242 1.380 . S
C241 H250 0.930 . S
C242 C240 1.387 . S
C242 C241 1.380 . S
C242 H251 0.930 1_556 S
C243 O220 1.254 1_455 S
C243 O221 1.268 1_455 S
H244 C229 0.930 . S
H245 C230 0.930 . S
H246 C232 0.930 . S
H247 C233 0.930 . S
H248 C238 0.930 . S
H249 C239 0.930 . S
H250 C241 0.930 . S
H251 C242 0.930 1_554 S
H252 C258 0.930 . S
H253 C261 0.930 . S
H254 C262 0.930 . S
H255 C263 0.930 . S
H256 C266 0.930 . S
H257 C267 0.930 . S
C258 H252 0.930 . S
C258 C259 1.355 1_655 S
C258 C260 1.415 . S
C259 C258 1.355 1_455 S
C259 C261 1.419 . S
C260 C258 1.415 . S
C260 C265 1.425 1_655 S
C260 C267 1.409 . S
C261 H253 0.930 . S
C261 C259 1.419 . S
C261 C262 1.362 . S
C262 H254 0.930 . S
C262 C261 1.362 . S
C262 C265 1.409 . S
C263 H255 0.930 . S
C263 C264 1.355 1_455 S
C263 C265 1.415 1_545 S
C264 C263 1.355 1_655 S
C264 C266 1.419 1_545 S
C265 C260 1.425 1_455 S
C265 C262 1.409 . S
C265 C263 1.415 1_565 S
C266 H256 0.930 . S
C266 C264 1.419 1_565 S
C266 C267 1.362 . S
C267 H257 0.930 . S
C267 C260 1.409 . S
C267 C266 1.362 . S
H268 C274 0.930 . S
H269 C277 0.930 . S
H270 C278 0.930 . S
H271 C279 0.930 . S
H272 C282 0.930 . S
H273 C283 0.930 . S
C274 H268 0.930 . S
C274 C275 1.355 . S
C274 C276 1.415 . S
C275 C274 1.355 . S
C275 C277 1.419 . S
C276 C274 1.415 . S
C276 C281 1.425 . S
C276 C283 1.409 . S
C277 H269 0.930 . S
C277 C275 1.419 . S
C277 C278 1.362 . S
C278 H270 0.930 . S
C278 C277 1.362 . S
C278 C281 1.409 . S
C279 H271 0.930 . S
C279 C280 1.355 . S
C279 C281 1.415 . S
C280 C279 1.355 . S
C280 C282 1.419 . S
C281 C276 1.425 . S
C281 C278 1.409 . S
C281 C279 1.415 . S
C282 H272 0.930 . S
C282 C280 1.419 . S
C282 C283 1.362 . S
C283 H273 0.930 . S
C283 C276 1.409 . S
C283 C282 1.362 . S
H284 C290 0.930 . S
H285 C293 0.930 . S
H286 C294 0.930 . S
H287 C295 0.930 . S
H288 C298 0.930 . S
H289 C299 0.930 . S
C290 H284 0.930 . S
C290 C291 1.355 . S
C290 C292 1.415 . S
C291 C290 1.355 . S
C291 C293 1.419 . S
C292 C290 1.415 . S
C292 C297 1.425 . S
C292 C299 1.409 1_565 S
C293 H285 0.930 . S
C293 C291 1.419 . S
C293 C294 1.362 . S
C294 H286 0.930 . S
C294 C293 1.362 . S
C294 C297 1.409 . S
C295 H287 0.930 . S
C295 C296 1.355 1_565 S
C295 C297 1.415 . S
C296 C295 1.355 1_545 S
C296 C298 1.419 . S
C297 C292 1.425 . S
C297 C294 1.409 . S
C297 C295 1.415 . S
C298 H288 0.930 . S
C298 C296 1.419 . S
C298 C299 1.362 . S
C299 H289 0.930 . S
C299 C292 1.409 1_545 S
C299 C298 1.362 . S
H300 C306 0.937 . S
H301 C309 0.930 . S
H302 C310 0.930 . S
H303 C311 0.930 . S
H304 C314 0.930 . S
H305 C315 0.930 . S
C306 H300 0.937 . S
C306 C307 1.355 . S
C306 C308 1.415 . S
C307 C306 1.355 . S
C307 C309 1.419 . S
C308 C306 1.415 . S
C308 C313 1.425 . S
C308 C315 1.409 . S
C309 H301 0.930 . S
C309 C307 1.419 . S
C309 C310 1.362 . S
C310 H302 0.930 . S
C310 C309 1.362 . S
C310 C313 1.409 . S
C311 H303 0.930 . S
C311 C312 1.355 . S
C311 C313 1.415 . S
C312 C311 1.355 . S
C312 C314 1.419 . S
C313 C308 1.425 . S
C313 C310 1.409 . S
C313 C311 1.415 . S
C314 H304 0.930 . S
C314 C312 1.419 . S
C314 C315 1.362 . S
C315 H305 0.930 . S
C315 C308 1.409 . S
C315 C314 1.362 . S
H316 C322 0.930 . S
H317 C325 0.930 . S
H318 C326 0.930 . S
H319 C327 0.930 . S
H320 C330 0.930 1_455 S
H321 C331 0.930 1_455 S
C322 H316 0.930 . S
C322 C323 1.355 . S
C322 C324 1.415 . S
C323 C322 1.355 . S
C323 C325 1.419 . S
C324 C322 1.415 . S
C324 C329 1.425 . S
C324 C331 1.409 . S
C325 H317 0.930 . S
C325 C323 1.419 . S
C325 C326 1.362 . S
C326 H318 0.930 . S
C326 C325 1.362 . S
C326 C329 1.409 . S
C327 H319 0.930 . S
C327 C328 1.355 . S
C327 C329 1.415 . S
C328 C327 1.355 . S
C328 C330 1.419 . S
C329 C324 1.425 . S
C329 C326 1.409 . S
C329 C327 1.415 . S
C330 H320 0.930 1_655 S
C330 C328 1.419 . S
C330 C331 1.362 . S
C331 H321 0.930 1_655 S
C331 C324 1.409 . S
C331 C330 1.362 . S
H332 C338 0.930 . S
H333 C341 0.930 . S
H334 C342 0.930 . S
H335 C343 0.930 . S
H336 C346 0.930 . S
H337 C347 0.930 . S
C338 H332 0.930 . S
C338 C339 1.355 . S
C338 C340 1.415 . S
C339 C338 1.355 . S
C339 C341 1.419 . S
C340 C338 1.415 . S
C340 C345 1.425 . S
C340 C347 1.409 . S
C341 H333 0.930 . S
C341 C339 1.419 . S
C341 C342 1.362 . S
C342 H334 0.930 . S
C342 C341 1.362 . S
C342 C345 1.409 . S
C343 H335 0.930 . S
C343 C344 1.355 . S
C343 C345 1.415 . S
C344 C343 1.355 . S
C344 C346 1.419 . S
C345 C340 1.425 . S
C345 C342 1.409 . S
C345 C343 1.415 . S
C346 H336 0.930 . S
C346 C344 1.419 . S
C346 C347 1.362 . S
C347 H337 0.930 . S
C347 C340 1.409 . S
C347 C346 1.362 . S
H348 C354 0.930 . S
H349 C357 0.930 . S
H350 C358 0.930 1_565 S
H351 C359 0.930 1_565 S
H352 C362 0.930 . S
H353 C363 0.930 . S
C354 H348 0.930 . S
C354 C355 1.355 . S
C354 C356 1.415 . S
C355 C354 1.355 . S
C355 C357 1.419 . S
C356 C354 1.415 . S
C356 C361 1.425 . S
C356 C363 1.409 . S
C357 H349 0.930 . S
C357 C355 1.419 . S
C357 C358 1.362 . S
C358 H350 0.930 1_545 S
C358 C357 1.362 . S
C358 C361 1.409 . S
C359 H351 0.930 1_545 S
C359 C360 1.355 1_556 S
C359 C361 1.415 . S
C360 C359 1.355 1_554 S
C360 C362 1.419 . S
C361 C356 1.425 . S
C361 C358 1.409 . S
C361 C359 1.415 . S
C362 H352 0.930 . S
C362 C360 1.419 . S
C362 C363 1.362 1_554 S
C363 H353 0.930 . S
C363 C356 1.409 . S
C363 C362 1.362 1_556 S
H364 C370 0.930 . S
H365 C373 0.930 . S
H366 C374 0.930 1_545 S
H367 C375 0.930 . S
H368 C378 0.930 . S
H369 C379 0.930 . S
C370 H364 0.930 . S
C370 C371 1.355 . S
C370 C372 1.415 . S
C371 C370 1.355 . S
C371 C373 1.419 . S
C372 C370 1.415 . S
C372 C377 1.425 . S
C372 C379 1.409 . S
C373 H365 0.930 . S
C373 C371 1.419 . S
C373 C374 1.362 . S
C374 H366 0.930 1_565 S
C374 C373 1.362 . S
C374 C377 1.409 . S
C375 H367 0.930 . S
C375 C376 1.355 1_545 S
C375 C377 1.415 1_545 S
C376 C375 1.355 1_565 S
C376 C378 1.419 . S
C377 C372 1.425 . S
C377 C374 1.409 . S
C377 C375 1.415 1_565 S
C378 H368 0.930 . S
C378 C376 1.419 . S
C378 C379 1.362 . S
C379 H369 0.930 . S
C379 C372 1.409 . S
C379 C378 1.362 . S
H380 C386 0.930 1_655 S
H381 C389 0.930 . S
H382 C390 0.930 . S
H383 C391 0.930 . S
H384 C394 0.930 . S
H385 C395 0.930 . S
C386 H380 0.930 1_455 S
C386 C387 1.355 . S
C386 C388 1.415 1_455 S
C387 C386 1.355 . S
C387 C389 1.419 . S
C388 C386 1.415 1_655 S
C388 C393 1.425 1_655 S
C388 C395 1.409 . S
C389 H381 0.930 . S
C389 C387 1.419 . S
C389 C390 1.362 . S
C390 H382 0.930 . S
C390 C389 1.362 . S
C390 C393 1.409 . S
C391 H383 0.930 . S
C391 C392 1.355 1_455 S
C391 C393 1.415 . S
C392 C391 1.355 1_655 S
C392 C394 1.419 . S
C393 C388 1.425 1_455 S
C393 C390 1.409 . S
C393 C391 1.415 . S
C394 H384 0.930 . S
C394 C392 1.419 . S
C394 C395 1.362 . S
C395 H385 0.930 . S
C395 C388 1.409 . S
C395 C394 1.362 . S
C259 C66 1.475 . S
C264 C75 1.475 . S
C275 C159 1.539 . S
C280 C150 1.539 1_455 S
C291 C243 1.505 . S
C296 C234 1.505 . S
C307 C240 1.709 1_554 S
C312 C56 1.800 . S
C323 C147 1.317 . S
C328 C67 1.364 . S
C339 C224 1.836 . S
C344 C156 1.723 . S
C355 C235 1.473 . S
C360 C63 1.184 . S
C371 C72 1.693 . S
C376 C140 1.846 1_565 S
C387 C231 1.266 . S
C392 C151 1.440 . S
